# Generated by pormake.
# Topology unl, (4)-cn, num edge types: 1
# Building blocks:
#     Node 0, Type 0, BuildingBlock: KUFVIS_clean_sbu_0, # of connection points: 4
#     Node 1, Type 0, BuildingBlock: KUFVIS_clean_sbu_0, # of connection points: 4
#     Node 2, Type 0, BuildingBlock: KUFVIS_clean_sbu_0, # of connection points: 4
#     Node 3, Type 0, BuildingBlock: KUFVIS_clean_sbu_0, # of connection points: 4
#     Node 4, Type 0, BuildingBlock: KUFVIS_clean_sbu_0, # of connection points: 4
#     Node 5, Type 0, BuildingBlock: KUFVIS_clean_sbu_0, # of connection points: 4
#     Node 6, Type 0, BuildingBlock: KUFVIS_clean_sbu_0, # of connection points: 4
#     Node 7, Type 0, BuildingBlock: KUFVIS_clean_sbu_0, # of connection points: 4
#     Node 8, Type 0, BuildingBlock: KUFVIS_clean_sbu_0, # of connection points: 4
#     Node 9, Type 0, BuildingBlock: KUFVIS_clean_sbu_0, # of connection points: 4
#     Node 10, Type 0, BuildingBlock: KUFVIS_clean_sbu_0, # of connection points: 4
#     Node 11, Type 0, BuildingBlock: KUFVIS_clean_sbu_0, # of connection points: 4
#     Node 12, Type 0, BuildingBlock: KUFVIS_clean_sbu_0, # of connection points: 4
#     Node 13, Type 0, BuildingBlock: KUFVIS_clean_sbu_0, # of connection points: 4
#     Node 14, Type 0, BuildingBlock: KUFVIS_clean_sbu_0, # of connection points: 4
#     Node 15, Type 0, BuildingBlock: KUFVIS_clean_sbu_0, # of connection points: 4
#     Node 16, Type 0, BuildingBlock: KUFVIS_clean_sbu_0, # of connection points: 4
#     Node 17, Type 0, BuildingBlock: KUFVIS_clean_sbu_0, # of connection points: 4
#     Node 18, Type 0, BuildingBlock: KUFVIS_clean_sbu_0, # of connection points: 4
#     Node 19, Type 0, BuildingBlock: KUFVIS_clean_sbu_0, # of connection points: 4
#     Node 20, Type 0, BuildingBlock: KUFVIS_clean_sbu_0, # of connection points: 4
#     Node 21, Type 0, BuildingBlock: KUFVIS_clean_sbu_0, # of connection points: 4
#     Node 22, Type 0, BuildingBlock: KUFVIS_clean_sbu_0, # of connection points: 4
#     Node 23, Type 0, BuildingBlock: KUFVIS_clean_sbu_0, # of connection points: 4
#     Node 24, Type 0, BuildingBlock: KUFVIS_clean_sbu_0, # of connection points: 4
#     Node 25, Type 0, BuildingBlock: KUFVIS_clean_sbu_0, # of connection points: 4
#     Node 26, Type 0, BuildingBlock: KUFVIS_clean_sbu_0, # of connection points: 4
#     Node 27, Type 0, BuildingBlock: KUFVIS_clean_sbu_0, # of connection points: 4
#     Node 28, Type 0, BuildingBlock: KUFVIS_clean_sbu_0, # of connection points: 4
#     Node 29, Type 0, BuildingBlock: KUFVIS_clean_sbu_0, # of connection points: 4
#     Node 30, Type 0, BuildingBlock: KUFVIS_clean_sbu_0, # of connection points: 4
#     Node 31, Type 0, BuildingBlock: KUFVIS_clean_sbu_0, # of connection points: 4
#     Node 32, Type 0, BuildingBlock: KUFVIS_clean_sbu_0, # of connection points: 4
#     Node 33, Type 0, BuildingBlock: KUFVIS_clean_sbu_0, # of connection points: 4
#     Node 34, Type 0, BuildingBlock: KUFVIS_clean_sbu_0, # of connection points: 4
#     Node 35, Type 0, BuildingBlock: KUFVIS_clean_sbu_0, # of connection points: 4
#     Edge 36, Type (0, 0), BuildingBlock: AJUNOK_clean_linker_0, # of connection points: 2
#     Edge 37, Type (0, 0), BuildingBlock: AJUNOK_clean_linker_0, # of connection points: 2
#     Edge 38, Type (0, 0), BuildingBlock: AJUNOK_clean_linker_0, # of connection points: 2
#     Edge 39, Type (0, 0), BuildingBlock: AJUNOK_clean_linker_0, # of connection points: 2
#     Edge 40, Type (0, 0), BuildingBlock: AJUNOK_clean_linker_0, # of connection points: 2
#     Edge 41, Type (0, 0), BuildingBlock: AJUNOK_clean_linker_0, # of connection points: 2
#     Edge 42, Type (0, 0), BuildingBlock: AJUNOK_clean_linker_0, # of connection points: 2
#     Edge 43, Type (0, 0), BuildingBlock: AJUNOK_clean_linker_0, # of connection points: 2
#     Edge 44, Type (0, 0), BuildingBlock: AJUNOK_clean_linker_0, # of connection points: 2
#     Edge 45, Type (0, 0), BuildingBlock: AJUNOK_clean_linker_0, # of connection points: 2
#     Edge 46, Type (0, 0), BuildingBlock: AJUNOK_clean_linker_0, # of connection points: 2
#     Edge 47, Type (0, 0), BuildingBlock: AJUNOK_clean_linker_0, # of connection points: 2
#     Edge 48, Type (0, 0), BuildingBlock: AJUNOK_clean_linker_0, # of connection points: 2
#     Edge 49, Type (0, 0), BuildingBlock: AJUNOK_clean_linker_0, # of connection points: 2
#     Edge 50, Type (0, 0), BuildingBlock: AJUNOK_clean_linker_0, # of connection points: 2
#     Edge 51, Type (0, 0), BuildingBlock: AJUNOK_clean_linker_0, # of connection points: 2
#     Edge 52, Type (0, 0), BuildingBlock: AJUNOK_clean_linker_0, # of connection points: 2
#     Edge 53, Type (0, 0), BuildingBlock: AJUNOK_clean_linker_0, # of connection points: 2
#     Edge 54, Type (0, 0), BuildingBlock: AJUNOK_clean_linker_0, # of connection points: 2
#     Edge 55, Type (0, 0), BuildingBlock: AJUNOK_clean_linker_0, # of connection points: 2
#     Edge 56, Type (0, 0), BuildingBlock: AJUNOK_clean_linker_0, # of connection points: 2
#     Edge 57, Type (0, 0), BuildingBlock: AJUNOK_clean_linker_0, # of connection points: 2
#     Edge 58, Type (0, 0), BuildingBlock: AJUNOK_clean_linker_0, # of connection points: 2
#     Edge 59, Type (0, 0), BuildingBlock: AJUNOK_clean_linker_0, # of connection points: 2
#     Edge 60, Type (0, 0), BuildingBlock: AJUNOK_clean_linker_0, # of connection points: 2
#     Edge 61, Type (0, 0), BuildingBlock: AJUNOK_clean_linker_0, # of connection points: 2
#     Edge 62, Type (0, 0), BuildingBlock: AJUNOK_clean_linker_0, # of connection points: 2
#     Edge 63, Type (0, 0), BuildingBlock: AJUNOK_clean_linker_0, # of connection points: 2
#     Edge 64, Type (0, 0), BuildingBlock: AJUNOK_clean_linker_0, # of connection points: 2
#     Edge 65, Type (0, 0), BuildingBlock: AJUNOK_clean_linker_0, # of connection points: 2
#     Edge 66, Type (0, 0), BuildingBlock: AJUNOK_clean_linker_0, # of connection points: 2
#     Edge 67, Type (0, 0), BuildingBlock: AJUNOK_clean_linker_0, # of connection points: 2
#     Edge 68, Type (0, 0), BuildingBlock: AJUNOK_clean_linker_0, # of connection points: 2
#     Edge 69, Type (0, 0), BuildingBlock: AJUNOK_clean_linker_0, # of connection points: 2
#     Edge 70, Type (0, 0), BuildingBlock: AJUNOK_clean_linker_0, # of connection points: 2
#     Edge 71, Type (0, 0), BuildingBlock: AJUNOK_clean_linker_0, # of connection points: 2
#     Edge 72, Type (0, 0), BuildingBlock: AJUNOK_clean_linker_0, # of connection points: 2
#     Edge 73, Type (0, 0), BuildingBlock: AJUNOK_clean_linker_0, # of connection points: 2
#     Edge 74, Type (0, 0), BuildingBlock: AJUNOK_clean_linker_0, # of connection points: 2
#     Edge 75, Type (0, 0), BuildingBlock: AJUNOK_clean_linker_0, # of connection points: 2
#     Edge 76, Type (0, 0), BuildingBlock: AJUNOK_clean_linker_0, # of connection points: 2
#     Edge 77, Type (0, 0), BuildingBlock: AJUNOK_clean_linker_0, # of connection points: 2
#     Edge 78, Type (0, 0), BuildingBlock: AJUNOK_clean_linker_0, # of connection points: 2
#     Edge 79, Type (0, 0), BuildingBlock: AJUNOK_clean_linker_0, # of connection points: 2
#     Edge 80, Type (0, 0), BuildingBlock: AJUNOK_clean_linker_0, # of connection points: 2
#     Edge 81, Type (0, 0), BuildingBlock: AJUNOK_clean_linker_0, # of connection points: 2
#     Edge 82, Type (0, 0), BuildingBlock: AJUNOK_clean_linker_0, # of connection points: 2
#     Edge 83, Type (0, 0), BuildingBlock: AJUNOK_clean_linker_0, # of connection points: 2
#     Edge 84, Type (0, 0), BuildingBlock: AJUNOK_clean_linker_0, # of connection points: 2
#     Edge 85, Type (0, 0), BuildingBlock: AJUNOK_clean_linker_0, # of connection points: 2
#     Edge 86, Type (0, 0), BuildingBlock: AJUNOK_clean_linker_0, # of connection points: 2
#     Edge 87, Type (0, 0), BuildingBlock: AJUNOK_clean_linker_0, # of connection points: 2
#     Edge 88, Type (0, 0), BuildingBlock: AJUNOK_clean_linker_0, # of connection points: 2
#     Edge 89, Type (0, 0), BuildingBlock: AJUNOK_clean_linker_0, # of connection points: 2
#     Edge 90, Type (0, 0), BuildingBlock: AJUNOK_clean_linker_0, # of connection points: 2
#     Edge 91, Type (0, 0), BuildingBlock: AJUNOK_clean_linker_0, # of connection points: 2
#     Edge 92, Type (0, 0), BuildingBlock: AJUNOK_clean_linker_0, # of connection points: 2
#     Edge 93, Type (0, 0), BuildingBlock: AJUNOK_clean_linker_0, # of connection points: 2
#     Edge 94, Type (0, 0), BuildingBlock: AJUNOK_clean_linker_0, # of connection points: 2
#     Edge 95, Type (0, 0), BuildingBlock: AJUNOK_clean_linker_0, # of connection points: 2
#     Edge 96, Type (0, 0), BuildingBlock: AJUNOK_clean_linker_0, # of connection points: 2
#     Edge 97, Type (0, 0), BuildingBlock: AJUNOK_clean_linker_0, # of connection points: 2
#     Edge 98, Type (0, 0), BuildingBlock: AJUNOK_clean_linker_0, # of connection points: 2
#     Edge 99, Type (0, 0), BuildingBlock: AJUNOK_clean_linker_0, # of connection points: 2
#     Edge 100, Type (0, 0), BuildingBlock: AJUNOK_clean_linker_0, # of connection points: 2
#     Edge 101, Type (0, 0), BuildingBlock: AJUNOK_clean_linker_0, # of connection points: 2
#     Edge 102, Type (0, 0), BuildingBlock: AJUNOK_clean_linker_0, # of connection points: 2
#     Edge 103, Type (0, 0), BuildingBlock: AJUNOK_clean_linker_0, # of connection points: 2
#     Edge 104, Type (0, 0), BuildingBlock: AJUNOK_clean_linker_0, # of connection points: 2
#     Edge 105, Type (0, 0), BuildingBlock: AJUNOK_clean_linker_0, # of connection points: 2
#     Edge 106, Type (0, 0), BuildingBlock: AJUNOK_clean_linker_0, # of connection points: 2
#     Edge 107, Type (0, 0), BuildingBlock: AJUNOK_clean_linker_0, # of connection points: 2
# Relax obj value: 0.072
# Max RMSD: 0.161
# Mean RMSD: 0.161
data_MOF--net-unl--node1-KUFVIS_clean_sbu_0--edge1-AJUNOK_clean_linker_0
_symmetry_space_group_name_H-M    P1
_symmetry_Int_Tables_number       1
_symmetry_cell_setting            triclinic
loop_
_symmetry_equiv_pos_as_xyz
'x, y, z'
_cell_length_a     47.860512
_cell_length_b     47.784926
_cell_length_c     29.938043
_cell_angle_alpha  90.061411
_cell_angle_beta   89.855148
_cell_angle_gamma 119.90108
loop_
_atom_site_label
_atom_site_type_symbol
_atom_site_fract_x
_atom_site_fract_y
_atom_site_fract_z
_atom_type_partial_charge
Mn0 Mn 0.23267 0.15977 0.10682 0.0
Mn1 Mn 0.15331 0.11157 0.09784 0.0
C2 C 0.1989 0.16499 0.15983 0.0
C3 C 0.28217 0.16679 0.13271 0.0
C4 C 0.19286 0.16655 0.03413 0.0
O5 O 0.22734 0.12279 0.06522 0.0
O6 O 0.17495 0.0876 0.07768 0.0
C7 C 0.13863 0.05878 0.16016 0.0
N8 N 0.13367 0.08297 0.14621 0.0
C9 C 0.08268 0.06014 0.18346 0.0
C10 C 0.08661 0.03422 0.19717 0.0
C11 C 0.11533 0.03428 0.1869 0.0
C12 C 0.10763 0.08479 0.15917 0.0
H13 H 0.15975 0.05779 0.14981 0.0
C14 C 0.20277 0.09434 0.06311 0.0
O15 O 0.28068 0.18286 0.09871 0.0
O16 O 0.25498 0.14677 0.1514 0.0
N17 N 0.12904 0.13141 0.11642 0.0
C18 C 0.12887 0.15779 0.09952 0.0
C19 C 0.1043 0.16418 0.11207 0.0
C20 C 0.07918 0.14236 0.13984 0.0
C21 C 0.07905 0.11453 0.15485 0.0
C22 C 0.10545 0.11083 0.14405 0.0
H23 H 0.1474 0.17396 0.0771 0.0
O24 O 0.22832 0.18796 0.15307 0.0
O25 O 0.1904 0.13955 0.13527 0.0
O26 O 0.21884 0.18041 0.05679 0.0
O27 O 0.16915 0.13928 0.04477 0.0
C28 C 0.05298 0.08941 0.1778 0.0
C29 C 0.05442 0.06177 0.19068 0.0
H30 H 0.06767 0.01414 0.21531 0.0
H31 H 0.11928 0.01506 0.19783 0.0
H32 H 0.10425 0.18536 0.09939 0.0
H33 H 0.05964 0.1467 0.14832 0.0
H34 H 0.03137 0.09065 0.18452 0.0
H35 H 0.03354 0.04185 0.2059 0.0
Mn36 Mn 0.86058 0.07962 0.10944 0.0
Mn37 Mn 0.89951 0.03737 0.10857 0.0
C38 C 0.84961 0.04074 0.16506 0.0
C39 C 0.85762 0.12518 0.1319 0.0
C40 C 0.84474 0.02337 0.04608 0.0
O41 O 0.89976 0.10685 0.06749 0.0
O42 O 0.92502 0.07848 0.07698 0.0
C43 C 0.95026 0.083 0.16867 0.0
N44 N 0.92819 0.05201 0.15768 0.0
C45 C 0.93407 0.03262 0.2284 0.0
C46 C 0.95693 0.06407 0.24058 0.0
C47 C 0.96527 0.08949 0.21046 0.0
C48 C 0.91951 0.02762 0.18691 0.0
H49 H 0.95516 0.1028 0.14671 0.0
C50 C 0.92425 0.10304 0.062 0.0
O51 O 0.84187 0.10806 0.09747 0.0
O52 O 0.87603 0.11653 0.15211 0.0
N53 N 0.87787 0.99657 0.13794 0.0
C54 C 0.8537 0.96784 0.12242 0.0
C55 C 0.84249 0.94 0.1488 0.0
C56 C 0.8565 0.94199 0.19064 0.0
C57 C 0.88233 0.97159 0.20472 0.0
C58 C 0.89331 0.99812 0.1761 0.0
H59 H 0.84335 0.96605 0.08996 0.0
O60 O 0.82923 0.05042 0.15667 0.0
O61 O 0.87543 0.05406 0.14065 0.0
O62 O 0.83773 0.04401 0.06172 0.0
O63 O 0.86875 0.02079 0.05891 0.0
C64 C 0.89761 0.97596 0.24608 0.0
C65 C 0.92366 1.00645 0.25733 0.0
H66 H 0.96672 0.06889 0.27395 0.0
H67 H 0.98227 0.11408 0.21993 0.0
H68 H 0.82291 0.9172 0.13711 0.0
H69 H 0.84739 0.9207 0.21152 0.0
H70 H 0.88974 0.95599 0.26889 0.0
H71 H 0.93597 0.01025 0.28802 0.0
Mn72 Mn 0.93377 0.79195 0.11183 0.0
Mn73 Mn 0.95023 0.86724 0.10588 0.0
C74 C 0.97163 0.82756 0.16438 0.0
C75 C 0.89508 0.73895 0.13343 0.0
C76 C 0.97458 0.83693 0.04089 0.0
O77 O 0.89966 0.79329 0.07015 0.0
O78 O 0.90372 0.83828 0.09827 0.0
C79 C 0.91437 0.87952 0.17601 0.0
N80 N 0.94256 0.88807 0.15436 0.0
C81 C 0.96328 0.94419 0.17092 0.0
C82 C 0.93495 0.93599 0.1945 0.0
C83 C 0.91046 0.90349 0.19759 0.0
C84 C 0.96649 0.91911 0.15246 0.0
H85 H 0.89485 0.8548 0.17563 0.0
C86 C 0.88839 0.81233 0.07598 0.0
O87 O 0.91446 0.74446 0.0999 0.0
O88 O 0.89871 0.76417 0.15477 0.0
N89 N 0.99462 0.89937 0.11272 0.0
C90 C 0.0221 0.90241 0.09458 0.0
C91 C 0.04965 0.93315 0.09112 0.0
C92 C 0.04835 0.9605 0.1054 0.0
C93 C 0.0201 0.95655 0.12545 0.0
C94 C 0.99416 0.92514 0.13017 0.0
H95 H 0.02336 0.88162 0.08394 0.0
O96 O 0.96765 0.79909 0.15643 0.0
O97 O 0.95121 0.83367 0.14369 0.0
O98 O 0.96971 0.81244 0.06365 0.0
O99 O 0.95865 0.85099 0.04953 0.0
C100 C 0.01654 0.98239 0.1412 0.0
C101 C 0.98828 0.97623 0.16443 0.0
H102 H 0.93213 0.95456 0.21047 0.0
H103 H 0.88837 0.89711 0.21539 0.0
H104 H 0.07158 0.9358 0.07666 0.0
H105 H 0.06933 0.98428 0.10171 0.0
H106 H 0.0354 0.00697 0.13566 0.0
H107 H 0.98593 0.99619 0.17708 0.0
Mn108 Mn 0.15559 0.22099 0.38793 0.0
Mn109 Mn 0.10723 0.14098 0.38591 0.0
C110 C 0.16406 0.19046 0.33342 0.0
C111 C 0.16495 0.27284 0.3682 0.0
C112 C 0.15864 0.17563 0.45552 0.0
O113 O 0.11625 0.21277 0.42688 0.0
O114 O 0.08248 0.16118 0.40757 0.0
C115 C 0.05763 0.13051 0.32045 0.0
N116 N 0.08088 0.12437 0.33492 0.0
C117 C 0.05684 0.07326 0.29767 0.0
C118 C 0.03212 0.07864 0.28277 0.0
C119 C 0.03334 0.10806 0.2927 0.0
C120 C 0.08181 0.0978 0.32198 0.0
H121 H 0.05716 0.15185 0.3313 0.0
C122 C 0.08803 0.18774 0.42554 0.0
O123 O 0.17855 0.26823 0.4027 0.0
O124 O 0.14583 0.2473 0.34535 0.0
N125 N 0.12775 0.11777 0.36552 0.0
C126 C 0.15363 0.11689 0.38261 0.0
C127 C 0.15884 0.09137 0.37103 0.0
C128 C 0.13622 0.06597 0.34434 0.0
C129 C 0.10937 0.06713 0.32808 0.0
C130 C 0.10704 0.09454 0.33766 0.0
H131 H 0.17 0.13531 0.40512 0.0
O132 O 0.1865 0.21952 0.34347 0.0
O133 O 0.13698 0.18067 0.35434 0.0
O134 O 0.17331 0.2033 0.43691 0.0
O135 O 0.13201 0.1529 0.4413 0.0
C136 C 0.0838 0.04142 0.30522 0.0
C137 C 0.05713 0.04416 0.29115 0.0
H138 H 0.01212 0.0603 0.2639 0.0
H139 H 0.01504 0.11308 0.28096 0.0
H140 H 0.17956 0.09071 0.38409 0.0
H141 H 0.13936 0.04548 0.33722 0.0
H142 H 0.08406 0.0192 0.29916 0.0
H143 H 0.03708 0.02372 0.27513 0.0
Mn144 Mn 0.78519 0.93145 0.38167 0.0
Mn145 Mn 0.86416 0.9637 0.40257 0.0
C146 C 0.82119 0.9728 0.33358 0.0
C147 C 0.73706 0.89022 0.35124 0.0
C148 C 0.81949 0.97977 0.45511 0.0
O149 O 0.78689 0.89848 0.42434 0.0
O150 O 0.84017 0.91863 0.42356 0.0
C151 C 0.88149 0.92351 0.34672 0.0
N152 N 0.88797 0.9527 0.36279 0.0
C153 C 0.94441 0.97611 0.3471 0.0
C154 C 0.93867 0.94613 0.33099 0.0
C155 C 0.9069 0.91989 0.32969 0.0
C156 C 0.91782 0.9785 0.36119 0.0
H157 H 0.85709 0.90363 0.34646 0.0
C158 C 0.81177 0.8962 0.43256 0.0
O159 O 0.7374 0.90726 0.3852 0.0
O160 O 0.76488 0.89717 0.33465 0.0
N161 N 0.8934 0.00724 0.38595 0.0
C162 C 0.89394 0.03482 0.39882 0.0
C163 C 0.92308 0.06435 0.39715 0.0
C164 C 0.95171 0.0649 0.38471 0.0
C165 C 0.95072 0.036 0.37293 0.0
C166 C 0.92072 0.00769 0.37312 0.0
H167 H 0.87244 0.03409 0.41091 0.0
O168 O 0.79132 0.96518 0.3388 0.0
O169 O 0.83012 0.95529 0.35696 0.0
O170 O 0.79434 0.9643 0.43167 0.0
O171 O 0.84497 0.97835 0.4486 0.0
C172 C 0.9783 0.03391 0.36189 0.0
C173 C 0.97515 1.00404 0.34858 0.0
H174 H 0.95834 0.94329 0.31863 0.0
H175 H 0.902 0.89691 0.31619 0.0
H176 H 0.92367 0.08644 0.40699 0.0
H177 H 0.97431 0.08755 0.3847 0.0
H178 H 1.00197 0.05514 0.36348 0.0
H179 H 0.99637 1.00288 0.33905 0.0
Mn180 Mn 0.07932 0.85559 0.382 0.0
Mn181 Mn 0.05768 0.91173 0.3833 0.0
C182 C 0.04173 0.8524 0.32901 0.0
C183 C 0.1186 0.84277 0.35899 0.0
C184 C 0.03598 0.85883 0.4525 0.0
O185 O 0.11284 0.89233 0.42201 0.0
O186 O 0.10336 0.93223 0.40231 0.0
C187 C 0.09871 0.95238 0.30968 0.0
N188 N 0.06903 0.93506 0.32878 0.0
C189 C 0.04341 0.94165 0.26444 0.0
C190 C 0.07348 0.95919 0.24369 0.0
C191 C 0.10139 0.96483 0.26652 0.0
C192 C 0.04209 0.92928 0.30689 0.0
H193 H 0.11999 0.95556 0.32652 0.0
C194 C 0.12089 0.92224 0.42073 0.0
O195 O 0.10034 0.82892 0.39353 0.0
O196 O 0.11373 0.86363 0.33802 0.0
N197 N 0.01384 0.8947 0.36542 0.0
C198 C 0.98616 0.87388 0.38742 0.0
C199 C 0.9562 0.86492 0.36805 0.0
C200 C 0.955 0.87771 0.3265 0.0
C201 C 0.98376 0.89993 0.30537 0.0
C202 C 0.0129 0.90828 0.32651 0.0
H203 H 0.98669 0.8642 0.41955 0.0
O204 O 0.04527 0.82762 0.33673 0.0
O205 O 0.06096 0.87794 0.3518 0.0
O206 O 0.04468 0.84106 0.43162 0.0
O207 O 0.04416 0.88755 0.4402 0.0
C208 C 0.98469 0.91364 0.26371 0.0
C209 C 0.01455 0.93463 0.24356 0.0
H210 H 0.075 0.96702 0.20949 0.0
H211 H 0.12472 0.97788 0.25048 0.0
H212 H 0.93414 0.84804 0.38498 0.0
H213 H 0.93192 0.8701 0.31093 0.0
H214 H 0.96255 0.9078 0.24701 0.0
H215 H 0.01552 0.94538 0.21206 0.0
Mn216 Mn 0.78404 0.85686 0.88416 0.0
Mn217 Mn 0.8632 0.90461 0.9042 0.0
C218 C 0.82083 0.85285 0.83577 0.0
C219 C 0.73553 0.84855 0.85308 0.0
C220 C 0.81983 0.84384 0.9571 0.0
O221 O 0.78482 0.8914 0.92603 0.0
O222 O 0.83824 0.92401 0.92776 0.0
C223 C 0.879 0.96382 0.85423 0.0
N224 N 0.8857 0.94021 0.8651 0.0
C225 C 0.94237 0.97544 0.85349 0.0
C226 C 0.93632 1.00048 0.84274 0.0
C227 C 0.90435 0.9944 0.84195 0.0
C228 C 0.91586 0.94498 0.86231 0.0
H229 H 0.85458 0.9593 0.85586 0.0
C230 C 0.80972 0.91808 0.93601 0.0
O231 O 0.73609 0.83224 0.88734 0.0
O232 O 0.76326 0.86975 0.83676 0.0
N233 N 0.89282 0.89146 0.88485 0.0
C234 C 0.89434 0.86481 0.89703 0.0
C235 C 0.92386 0.86526 0.89412 0.0
C236 C 0.95196 0.89398 0.88234 0.0
C237 C 0.95009 0.92171 0.87264 0.0
C238 C 0.91957 0.91882 0.87193 0.0
H239 H 0.8732 0.84354 0.909 0.0
O240 O 0.79134 0.82979 0.84128 0.0
O241 O 0.82893 0.87895 0.85937 0.0
O242 O 0.79399 0.83434 0.93518 0.0
O243 O 0.84545 0.87018 0.9491 0.0
C244 C 0.97733 0.95253 0.8663 0.0
C245 C 0.97355 0.97941 0.85659 0.0
H246 H 0.95603 0.02435 0.83517 0.0
H247 H 0.89933 0.01346 0.83365 0.0
H248 H 0.92522 0.84401 0.90289 0.0
H249 H 0.9749 0.89464 0.88193 0.0
H250 H 1.00125 0.95597 0.87002 0.0
H251 H 0.99469 1.00285 0.85121 0.0
Mn252 Mn 0.15573 0.93023 0.89403 0.0
Mn253 Mn 0.12569 0.98083 0.88709 0.0
C254 C 0.17325 0.96891 0.83604 0.0
C255 C 0.1571 0.88254 0.87665 0.0
C256 C 0.17722 0.99074 0.95243 0.0
O257 O 0.11412 0.90555 0.93117 0.0
O258 O 0.09836 0.94215 0.92408 0.0
C259 C 0.06436 0.93939 0.84121 0.0
N260 N 0.09227 0.96799 0.84469 0.0
C261 C 0.07038 0.99609 0.8047 0.0
C262 C 0.04116 0.96698 0.80085 0.0
C263 C 0.03846 0.93831 0.8181 0.0
C264 C 0.09584 0.99519 0.82569 0.0
H265 H 0.0616 0.91792 0.85729 0.0
C266 C 0.09387 0.91506 0.93855 0.0
O267 O 0.17072 0.89951 0.91203 0.0
O268 O 0.14139 0.89249 0.85222 0.0
N269 N 0.14803 0.01952 0.85302 0.0
C270 C 0.17864 0.04465 0.85729 0.0
C271 C 0.18708 0.07422 0.83658 0.0
C272 C 0.16347 0.07799 0.81379 0.0
C273 C 0.13192 0.05185 0.81087 0.0
C274 C 0.12562 0.02254 0.82965 0.0
H275 H 0.19617 0.04213 0.87677 0.0
O276 O 0.19063 0.9572 0.85134 0.0
O277 O 0.14535 0.95821 0.85583 0.0
O278 O 0.17797 0.96489 0.9442 0.0
O279 O 0.15893 0.9984 0.93217 0.0
C280 C 0.10613 0.05384 0.79165 0.0
C281 C 0.07514 0.0261 0.78971 0.0
H282 H 0.02064 0.96655 0.7851 0.0
H283 H 0.01612 0.91567 0.81578 0.0
H284 H 0.21137 0.09438 0.83952 0.0
H285 H 0.16971 0.10114 0.79925 0.0
H286 H 0.10978 0.07656 0.77865 0.0
H287 H 0.05525 0.02796 0.77587 0.0
Mn288 Mn 0.07971 0.22169 0.87625 0.0
Mn289 Mn 0.05148 0.14235 0.87288 0.0
C290 C 0.04169 0.19052 0.8214 0.0
C291 C 0.12152 0.27322 0.85558 0.0
C292 C 0.0321 0.17486 0.94346 0.0
O293 O 0.11129 0.21454 0.91557 0.0
O294 O 0.09629 0.16362 0.89561 0.0
C295 C 0.09359 0.14158 0.80144 0.0
N296 N 0.06353 0.13067 0.81864 0.0
C297 C 0.03875 0.09902 0.75361 0.0
C298 C 0.06923 0.10994 0.73484 0.0
C299 C 0.09689 0.1313 0.75887 0.0
C300 C 0.03686 0.11076 0.79527 0.0
H301 H 0.11474 0.1588 0.81943 0.0
C302 C 0.11606 0.1904 0.91429 0.0
O303 O 0.10337 0.26912 0.89015 0.0
O304 O 0.11525 0.24748 0.83336 0.0
N305 N 1.00815 0.11893 0.85145 0.0
C306 C 0.98033 0.11391 0.87132 0.0
C307 C 0.95067 0.09425 0.85022 0.0
C308 C 0.94988 0.07964 0.80922 0.0
C309 C 0.9787 0.08443 0.79021 0.0
C310 C 1.00753 0.1042 0.81282 0.0
H311 H 0.98057 0.12471 0.90299 0.0
O312 O 0.04713 0.21933 0.83085 0.0
O313 O 0.0592 0.18175 0.84368 0.0
O314 O 0.04434 0.20273 0.92527 0.0
O315 O 0.03712 0.15257 0.92909 0.0
C316 C 0.98004 0.07043 0.74965 0.0
C317 C 0.01015 0.07773 0.73175 0.0
H318 H 0.07131 0.1031 0.7012 0.0
H319 H 0.12056 0.14023 0.74432 0.0
H320 H 0.92851 0.0904 0.86549 0.0
H321 H 0.92705 0.06481 0.79263 0.0
H322 H 0.95814 0.05431 0.73201 0.0
H323 H 0.01156 0.06693 0.70141 0.0
Mn324 Mn 0.86293 0.78844 0.61212 0.0
Mn325 Mn 0.90331 0.86955 0.6142 0.0
C326 C 0.85182 0.81607 0.66768 0.0
C327 C 0.85898 0.73923 0.63245 0.0
C328 C 0.84913 0.83047 0.54947 0.0
O329 O 0.9024 0.80033 0.57142 0.0
O330 O 0.92938 0.85391 0.58286 0.0
C331 C 0.95362 0.8745 0.67558 0.0
N332 N 0.93151 0.88321 0.66398 0.0
C333 C 0.94135 0.91418 0.7307 0.0
C334 C 0.96497 0.90657 0.74278 0.0
C335 C 0.97089 0.88624 0.71544 0.0
C336 C 0.92429 0.90104 0.69152 0.0
H337 H 0.9572 0.85785 0.65537 0.0
C338 C 0.92767 0.82817 0.5673 0.0
O339 O 0.84377 0.74158 0.5981 0.0
O340 O 0.87711 0.76567 0.65422 0.0
N341 N 0.8815 0.88867 0.64386 0.0
C342 C 0.85635 0.89197 0.62927 0.0
C343 C 0.84566 0.9094 0.65502 0.0
C344 C 0.86148 0.92397 0.69498 0.0
C345 C 0.88833 0.92164 0.70805 0.0
C346 C 0.89792 0.90406 0.68088 0.0
H347 H 0.84472 0.88171 0.59808 0.0
O348 O 0.83109 0.78625 0.65839 0.0
O349 O 0.87821 0.82838 0.64459 0.0
O350 O 0.84142 0.80251 0.56436 0.0
O351 O 0.87328 0.85658 0.56337 0.0
C352 C 0.90667 0.93697 0.74615 0.0
C353 C 0.93337 0.93343 0.75689 0.0
H354 H 0.9774 0.91497 0.77406 0.0
H355 H 0.98837 0.87935 0.72533 0.0
H356 H 0.82539 0.91171 0.64398 0.0
H357 H 0.85319 0.93735 0.71492 0.0
H358 H 0.9007 0.95179 0.76687 0.0
H359 H 0.9481 0.94568 0.7849 0.0
Mn360 Mn 0.23463 0.07551 0.60606 0.0
Mn361 Mn 0.15356 0.0308 0.6064 0.0
C362 C 0.20949 0.03587 0.66179 0.0
C363 C 0.28318 0.12151 0.62701 0.0
C364 C 0.19528 0.01841 0.54322 0.0
O365 O 0.22244 0.1032 0.56799 0.0
O366 O 0.16891 0.07189 0.57266 0.0
C367 C 0.13629 0.07375 0.65393 0.0
N368 N 0.13326 0.04415 0.64875 0.0
C369 C 0.08113 0.01787 0.68335 0.0
C370 C 0.08305 0.04803 0.6877 0.0
C371 C 0.11119 0.07619 0.67405 0.0
C372 C 0.10738 0.01722 0.66434 0.0
H373 H 0.15722 0.09511 0.64135 0.0
C374 C 0.19407 0.09777 0.56007 0.0
O375 O 0.28116 0.10474 0.59182 0.0
O376 O 0.25681 0.11178 0.64974 0.0
N377 N 0.13306 0.99045 0.63698 0.0
C378 C 0.13635 0.96396 0.63153 0.0
C379 C 0.11271 0.93423 0.6493 0.0
C380 C 0.08535 0.93191 0.67057 0.0
C381 C 0.08238 0.95955 0.67494 0.0
C382 C 0.10751 0.98866 0.65881 0.0
H383 H 0.15657 0.96557 0.6133 0.0
O384 O 0.23877 0.04626 0.64826 0.0
O385 O 0.19433 0.04871 0.64129 0.0
O386 O 0.22263 0.04176 0.55501 0.0
O387 O 0.169 0.01307 0.56058 0.0
C388 C 0.05515 0.95936 0.69331 0.0
C389 C 0.05414 0.98838 0.69626 0.0
H390 H 0.06315 0.04976 0.70182 0.0
H391 H 0.11341 0.09968 0.67743 0.0
H392 H 0.11503 0.91297 0.64536 0.0
H393 H 0.06664 0.90875 0.68288 0.0
H394 H 0.03483 0.93707 0.7049 0.0
H395 H 0.0328 0.98788 0.70944 0.0
Mn396 Mn 0.93281 0.14871 0.60628 0.0
Mn397 Mn 0.95711 0.09472 0.58903 0.0
C398 C 0.97257 0.15071 0.65507 0.0
C399 C 0.89326 0.16047 0.63319 0.0
C400 C 0.97756 0.1542 0.53186 0.0
O401 O 0.89872 0.11469 0.5636 0.0
O402 O 0.91153 0.07616 0.57357 0.0
C403 C 0.91662 0.04039 0.64876 0.0
N404 N 0.94625 0.06215 0.63273 0.0
C405 C 0.96663 0.02609 0.64642 0.0
C406 C 0.9364 1.00325 0.66316 0.0
C407 C 0.91144 0.01068 0.66534 0.0
C408 C 0.9709 0.05606 0.63321 0.0
H409 H 0.89695 0.04535 0.6474 0.0
C410 C 0.89205 0.08534 0.56103 0.0
O411 O 0.91197 0.17582 0.59981 0.0
O412 O 0.89793 0.13855 0.6517 0.0
N413 N 1.00089 0.10694 0.60118 0.0
C414 C 0.02817 0.13096 0.58202 0.0
C415 C 0.05615 0.12842 0.58015 0.0
C416 C 0.05513 0.10003 0.59484 0.0
C417 C 0.02638 0.07491 0.61247 0.0
C418 C 1.00006 0.07997 0.61676 0.0
H419 H 0.02854 0.15185 0.56822 0.0
O420 O 0.96688 0.17442 0.65065 0.0
O421 O 0.95326 0.12474 0.63217 0.0
O422 O 0.96727 0.16858 0.55691 0.0
O423 O 0.97044 0.1251 0.53833 0.0
C424 C 0.02227 0.04446 0.62396 0.0
C425 C 0.9925 0.02011 0.64123 0.0
H426 H 0.93217 0.97992 0.67389 0.0
H427 H 0.88796 0.99312 0.67799 0.0
H428 H 0.07803 0.14772 0.56563 0.0
H429 H 0.07632 0.09751 0.59151 0.0
H430 H 0.04169 0.03937 0.61905 0.0
H431 H 0.98976 0.99693 0.65034 0.0
Mn432 Mn 0.90331 0.49356 0.43959 0.0
Mn433 Mn 0.8226 0.45609 0.43718 0.0
C434 C 0.87542 0.50645 0.49295 0.0
C435 C 0.95109 0.49603 0.46343 0.0
C436 C 0.86506 0.51101 0.37504 0.0
O437 O 0.89188 0.45383 0.39983 0.0
O438 O 0.83821 0.43024 0.40541 0.0
C439 C 0.80606 0.39746 0.48954 0.0
N440 N 0.80267 0.42356 0.48128 0.0
C441 C 0.74908 0.39733 0.5106 0.0
C442 C 0.75065 0.36891 0.51591 0.0
C443 C 0.77984 0.36946 0.50741 0.0
C444 C 0.7765 0.4247 0.49492 0.0
H445 H 0.82806 0.39772 0.48053 0.0
C446 C 0.86359 0.4301 0.39265 0.0
O447 O 0.9503 0.51151 0.42828 0.0
O448 O 0.92395 0.47857 0.48404 0.0
N449 N 0.80245 0.47675 0.46639 0.0
C450 C 0.80459 0.50563 0.45722 0.0
C451 C 0.78089 0.51208 0.47372 0.0
C452 C 0.75382 0.48761 0.49586 0.0
C453 C 0.7511 0.45723 0.50155 0.0
C454 C 0.77702 0.4535 0.48875 0.0
H455 H 0.82413 0.52341 0.43736 0.0
O456 O 0.90544 0.52622 0.48355 0.0
O457 O 0.8625 0.47907 0.47169 0.0
O458 O 0.89237 0.51627 0.38915 0.0
O459 O 0.83846 0.48859 0.38995 0.0
C460 C 0.72297 0.42995 0.51667 0.0
C461 C 0.7215 0.39971 0.51995 0.0
H462 H 0.73001 0.34694 0.52804 0.0
H463 H 0.78168 0.34806 0.51291 0.0
H464 H 0.78273 0.53526 0.46761 0.0
H465 H 0.73476 0.49201 0.5068 0.0
H466 H 0.70246 0.43225 0.5254 0.0
H467 H 0.69955 0.37872 0.5312 0.0
Mn468 Mn 0.52742 0.41426 0.43562 0.0
Mn469 Mn 0.56968 0.37568 0.43272 0.0
C470 C 0.51726 0.37455 0.49088 0.0
C471 C 0.52279 0.45917 0.45795 0.0
C472 C 0.51659 0.36303 0.36716 0.0
O473 O 0.56668 0.44321 0.39449 0.0
O474 O 0.59631 0.41996 0.40944 0.0
C475 C 0.61825 0.41416 0.5004 0.0
N476 N 0.59673 0.3851 0.48281 0.0
C477 C 0.6172 0.35731 0.52583 0.0
C478 C 0.64092 0.3871 0.54259 0.0
C479 C 0.64048 0.41551 0.53178 0.0
C480 C 0.5942 0.35738 0.49777 0.0
H481 H 0.61848 0.43592 0.49002 0.0
C482 C 0.59343 0.44311 0.39331 0.0
O483 O 0.50744 0.44171 0.42362 0.0
O484 O 0.5413 0.45086 0.47877 0.0
N485 N 0.54847 0.33203 0.45369 0.0
C486 C 0.52335 0.30534 0.43508 0.0
C487 C 0.51752 0.27448 0.44716 0.0
C488 C 0.53872 0.27136 0.47636 0.0
C489 C 0.56515 0.29916 0.49378 0.0
C490 C 0.56864 0.32914 0.48232 0.0
H491 H 0.50813 0.30759 0.41095 0.0
O492 O 0.49656 0.3838 0.48207 0.0
O493 O 0.54336 0.38904 0.46701 0.0
O494 O 0.5057 0.37931 0.38682 0.0
O495 O 0.54216 0.36323 0.37926 0.0
C496 C 0.5893 0.29851 0.5198 0.0
C497 C 0.61576 0.3277 0.53481 0.0
H498 H 0.65938 0.38839 0.56411 0.0
H499 H 0.65799 0.43843 0.54611 0.0
H500 H 0.49741 0.25321 0.43275 0.0
H501 H 0.53492 0.24759 0.48429 0.0
H502 H 0.58812 0.27581 0.52766 0.0
H503 H 0.63494 0.32711 0.55297 0.0
Mn504 Mn 0.6045 0.12278 0.44824 0.0
Mn505 Mn 0.63687 0.20318 0.44945 0.0
C506 C 0.64352 0.15362 0.50243 0.0
C507 C 0.56118 0.07244 0.47133 0.0
C508 C 0.65488 0.16789 0.38125 0.0
O509 O 0.57403 0.13083 0.4081 0.0
O510 O 0.5931 0.18322 0.42374 0.0
C511 C 0.59257 0.20274 0.5181 0.0
N512 N 0.62318 0.21457 0.5025 0.0
C513 C 0.64568 0.24451 0.56962 0.0
C514 C 0.61458 0.23213 0.58705 0.0
C515 C 0.58781 0.21122 0.56112 0.0
C516 C 0.64899 0.23384 0.5278 0.0
H517 H 0.57205 0.18604 0.4985 0.0
C518 C 0.5719 0.15649 0.40658 0.0
O519 O 0.57863 0.07486 0.4366 0.0
O520 O 0.56887 0.09913 0.49194 0.0
N521 N 0.67946 0.22642 0.47358 0.0
C522 C 0.70798 0.23318 0.45424 0.0
C523 C 0.7371 0.25414 0.47578 0.0
C524 C 0.73665 0.26848 0.51654 0.0
C525 C 0.70707 0.26185 0.53512 0.0
C526 C 0.67886 0.24098 0.51188 0.0
H527 H 0.70862 0.22307 0.42234 0.0
O528 O 0.63639 0.12417 0.49393 0.0
O529 O 0.62711 0.16335 0.47943 0.0
O530 O 0.63963 0.13977 0.39897 0.0
O531 O 0.65273 0.19213 0.39494 0.0
C532 C 0.70433 0.27519 0.57567 0.0
C533 C 0.67354 0.26628 0.59274 0.0
H534 H 0.61124 0.2377 0.62093 0.0
H535 H 0.56367 0.20125 0.57446 0.0
H536 H 0.75982 0.25942 0.46082 0.0
H537 H 0.75912 0.28461 0.53315 0.0
H538 H 0.72562 0.29198 0.59409 0.0
H539 H 0.67109 0.27652 0.62314 0.0
Mn540 Mn 0.83901 0.56867 0.72336 0.0
Mn541 Mn 0.79828 0.48786 0.7288 0.0
C542 C 0.84955 0.53917 0.66913 0.0
C543 C 0.84239 0.61674 0.69834 0.0
C544 C 0.85325 0.53015 0.79094 0.0
O545 O 0.80022 0.55889 0.76468 0.0
O546 O 0.77223 0.50524 0.75542 0.0
C547 C 0.74392 0.47416 0.66993 0.0
N548 N 0.76893 0.46963 0.68093 0.0
C549 C 0.75065 0.42449 0.63184 0.0
C550 C 0.72323 0.42685 0.62291 0.0
C551 C 0.72065 0.45283 0.64 0.0
C552 C 0.77356 0.44712 0.66057 0.0
H553 H 0.7415 0.49348 0.68458 0.0
C554 C 0.77444 0.53154 0.76926 0.0
O555 O 0.85828 0.61614 0.73307 0.0
O556 O 0.82387 0.58929 0.67913 0.0
N557 N 0.81939 0.46621 0.70449 0.0
C558 C 0.84433 0.46372 0.72205 0.0
C559 C 0.85249 0.44168 0.70372 0.0
C560 C 0.83376 0.42102 0.66917 0.0
C561 C 0.80675 0.42229 0.65396 0.0
C562 C 0.80055 0.44561 0.67241 0.0
H563 H 0.8576 0.47804 0.75014 0.0
O564 O 0.87001 0.56917 0.67774 0.0
O565 O 0.82327 0.5272 0.693 0.0
O566 O 0.86193 0.55726 0.77241 0.0
O567 O 0.82834 0.50397 0.77938 0.0
C568 C 0.78437 0.39979 0.62374 0.0
C569 C 0.75549 0.39983 0.61495 0.0
H570 H 0.70415 0.40888 0.60286 0.0
H571 H 0.7003 0.45575 0.63143 0.0
H572 H 0.87263 0.44003 0.71703 0.0
H573 H 0.83953 0.4034 0.65591 0.0
H574 H 0.78795 0.38092 0.60969 0.0
H575 H 0.73642 0.37988 0.59711 0.0
Mn576 Mn 0.45325 0.27352 0.71654 0.0
Mn577 Mn 0.53332 0.30765 0.72413 0.0
C578 C 0.48615 0.31414 0.66517 0.0
C579 C 0.40442 0.23077 0.68964 0.0
C580 C 0.49323 0.32296 0.7873 0.0
O581 O 0.4595 0.24175 0.75689 0.0
O582 O 0.51283 0.26331 0.74796 0.0
C583 C 0.54634 0.26678 0.66433 0.0
N584 N 0.55217 0.2965 0.67694 0.0
C585 C 0.60446 0.32237 0.64338 0.0
C586 C 0.59952 0.29201 0.63056 0.0
C587 C 0.5698 0.26415 0.63972 0.0
C588 C 0.57914 0.32356 0.66454 0.0
H589 H 0.52435 0.24534 0.6741 0.0
C590 C 0.4855 0.24054 0.76101 0.0
O591 O 0.40528 0.24745 0.72445 0.0
O592 O 0.43185 0.23895 0.67085 0.0
N593 N 0.55746 0.35075 0.7023 0.0
C594 C 0.55825 0.37794 0.71772 0.0
C595 C 0.58465 0.4083 0.70726 0.0
C596 C 0.6109 0.41021 0.68356 0.0
C597 C 0.60984 0.38173 0.66933 0.0
C598 C 0.58182 0.35244 0.67761 0.0
H599 H 0.53919 0.3764 0.73841 0.0
O600 O 0.45642 0.30657 0.67207 0.0
O601 O 0.49548 0.29706 0.68771 0.0
O602 O 0.46614 0.30731 0.76746 0.0
O603 O 0.51815 0.3219 0.77533 0.0
C604 C 0.63624 0.38102 0.65009 0.0
C605 C 0.63384 0.35136 0.63787 0.0
H606 H 0.61849 0.28997 0.61393 0.0
H607 H 0.5653 0.24057 0.62978 0.0
H608 H 0.58538 0.43006 0.71915 0.0
H609 H 0.63202 0.43354 0.67749 0.0
H610 H 0.65855 0.40315 0.64516 0.0
H611 H 0.65466 0.35119 0.62394 0.0
Mn612 Mn 0.74723 0.19075 0.72221 0.0
Mn613 Mn 0.71732 0.2402 0.74091 0.0
C614 C 0.70707 0.18748 0.67311 0.0
C615 C 0.78871 0.1823 0.6941 0.0
C616 C 0.69976 0.18038 0.79579 0.0
O617 O 0.78006 0.22542 0.76556 0.0
O618 O 0.76262 0.26089 0.76005 0.0
C619 C 0.75741 0.29852 0.68912 0.0
N620 N 0.72758 0.27391 0.69953 0.0
C621 C 0.70438 0.30812 0.69213 0.0
C622 C 0.73516 0.33427 0.68401 0.0
C623 C 0.7617 0.32931 0.68107 0.0
C624 C 0.70154 0.27783 0.69875 0.0
H625 H 0.77785 0.29482 0.68936 0.0
C626 C 0.78396 0.25369 0.77093 0.0
O627 O 0.77048 0.16573 0.72725 0.0
O628 O 0.78259 0.20359 0.67683 0.0
N629 N 0.67346 0.2252 0.72506 0.0
C630 C 0.64646 0.19898 0.74099 0.0
C631 C 0.61691 0.19855 0.74071 0.0
C632 C 0.61595 0.22626 0.72764 0.0
C633 C 0.64443 0.25371 0.71386 0.0
C634 C 0.67248 0.25149 0.71076 0.0
H635 H 0.64756 0.17863 0.75384 0.0
O636 O 0.71402 0.16457 0.67683 0.0
O637 O 0.72506 0.2132 0.69712 0.0
O638 O 0.7127 0.16818 0.77137 0.0
O639 O 0.70391 0.2084 0.7892 0.0
C640 C 0.64663 0.28387 0.70651 0.0
C641 C 0.67666 0.31117 0.69621 0.0
H642 H 0.73862 0.35829 0.6816 0.0
H643 H 0.78564 0.34935 0.67515 0.0
H644 H 0.59527 0.1775 0.75261 0.0
H645 H 0.59351 0.22658 0.72986 0.0
H646 H 0.62564 0.28659 0.71063 0.0
H647 H 0.67823 0.33441 0.69183 0.0
Mn648 Mn 0.45626 0.19138 0.21663 0.0
Mn649 Mn 0.53596 0.23983 0.22107 0.0
C650 C 0.48907 0.18442 0.16459 0.0
C651 C 0.40578 0.18313 0.19333 0.0
C652 C 0.49806 0.18686 0.28832 0.0
O653 O 0.46274 0.22974 0.25612 0.0
O654 O 0.51479 0.2645 0.24025 0.0
C655 C 0.54759 0.28863 0.15287 0.0
N656 N 0.55417 0.26638 0.17029 0.0
C657 C 0.60461 0.28871 0.1316 0.0
C658 C 0.5994 0.31322 0.11512 0.0
C659 C 0.57004 0.31223 0.12414 0.0
C660 C 0.58044 0.26482 0.15784 0.0
H661 H 0.52563 0.28847 0.1615 0.0
C662 C 0.48734 0.25824 0.25582 0.0
O663 O 0.40875 0.16839 0.22784 0.0
O664 O 0.43216 0.20247 0.17216 0.0
N665 N 0.55995 0.21945 0.20297 0.0
C666 C 0.56059 0.19367 0.22113 0.0
C667 C 0.58591 0.18797 0.21031 0.0
C668 C 0.61118 0.20981 0.1827 0.0
C669 C 0.61025 0.2365 0.16506 0.0
C670 C 0.58333 0.23963 0.17472 0.0
H671 H 0.54224 0.17783 0.24407 0.0
O672 O 0.45969 0.16157 0.17206 0.0
O673 O 0.49779 0.21074 0.1868 0.0
O674 O 0.47157 0.17254 0.26691 0.0
O675 O 0.52153 0.21396 0.27625 0.0
C676 C 0.6357 0.2611 0.14039 0.0
C677 C 0.63322 0.28764 0.12483 0.0
H678 H 0.61768 0.33274 0.09543 0.0
H679 H 0.56494 0.33002 0.1104 0.0
H680 H 0.58652 0.16746 0.2245 0.0
H681 H 0.63139 0.20617 0.1759 0.0
H682 H 0.65755 0.26022 0.13406 0.0
H683 H 0.65354 0.30712 0.10785 0.0
Mn684 Mn 0.82496 0.26948 0.21692 0.0
Mn685 Mn 0.77577 0.30018 0.21249 0.0
C686 C 0.83197 0.30617 0.16018 0.0
C687 C 0.83399 0.22704 0.19718 0.0
C688 C 0.82873 0.32024 0.28083 0.0
O689 O 0.78664 0.23991 0.25848 0.0
O690 O 0.75198 0.25667 0.23898 0.0
C691 C 0.73037 0.25558 0.1457 0.0
N692 N 0.75085 0.2863 0.15964 0.0
C693 C 0.74564 0.30835 0.09073 0.0
C694 C 0.725 0.27711 0.07505 0.0
C695 C 0.71709 0.25051 0.10278 0.0
C696 C 0.75873 0.31195 0.1331 0.0
H697 H 0.72507 0.23511 0.16661 0.0
C698 C 0.75844 0.2369 0.25883 0.0
O699 O 0.84833 0.24554 0.23126 0.0
O700 O 0.81389 0.23273 0.17569 0.0
N701 N 0.79607 0.34256 0.18755 0.0
C702 C 0.81899 0.37103 0.20566 0.0
C703 C 0.82958 0.39987 0.1818 0.0
C704 C 0.81646 0.39912 0.13969 0.0
C705 C 0.79243 0.3696 0.12238 0.0
C706 C 0.78222 0.3418 0.14817 0.0
H707 H 0.82913 0.37189 0.23805 0.0
O708 O 0.85493 0.30026 0.16983 0.0
O709 O 0.80591 0.28997 0.18354 0.0
O710 O 0.84297 0.30615 0.26377 0.0
O711 O 0.80178 0.31619 0.26689 0.0
C712 C 0.77838 0.36658 0.08035 0.0
C713 C 0.75483 0.33596 0.06501 0.0
H714 H 0.71626 0.27349 0.0411 0.0
H715 H 0.70149 0.22621 0.09081 0.0
H716 H 0.84797 0.42254 0.19568 0.0
H717 H 0.8251 0.42126 0.12085 0.0
H718 H 0.78555 0.38766 0.0599 0.0
H719 H 0.74354 0.33339 0.03366 0.0
Mn720 Mn 0.75105 0.55921 0.21252 0.0
Mn721 Mn 0.72841 0.48168 0.22694 0.0
C722 C 0.71259 0.52244 0.16174 0.0
C723 C 0.79135 0.61033 0.18673 0.0
C724 C 0.70593 0.51865 0.28525 0.0
O725 O 0.78413 0.55859 0.25656 0.0
O726 O 0.77434 0.50877 0.24174 0.0
C727 C 0.76799 0.46929 0.1628 0.0
N728 N 0.73892 0.4607 0.1816 0.0
C729 C 0.7179 0.40502 0.16227 0.0
C730 C 0.74756 0.41312 0.14254 0.0
C731 C 0.77258 0.4455 0.14201 0.0
C732 C 0.71425 0.43009 0.17992 0.0
H733 H 0.78747 0.49396 0.1644 0.0
C734 C 0.7924 0.53697 0.25712 0.0
O735 O 0.77221 0.60726 0.21954 0.0
O736 O 0.78667 0.58371 0.16847 0.0
N737 N 0.6846 0.45025 0.21501 0.0
C738 C 0.65727 0.44681 0.23424 0.0
C739 C 0.62941 0.41628 0.23564 0.0
C740 C 0.63027 0.3892 0.21909 0.0
C741 C 0.65885 0.39314 0.2003 0.0
C742 C 0.68535 0.42446 0.19785 0.0
H743 H 0.65673 0.4671 0.24859 0.0
O744 O 0.71798 0.55169 0.16687 0.0
O745 O 0.73156 0.51563 0.18513 0.0
O746 O 0.71528 0.54337 0.26051 0.0
O747 O 0.71527 0.49823 0.27893 0.0
C748 C 0.66245 0.3672 0.18488 0.0
C749 C 0.69186 0.37315 0.16541 0.0
H750 H 0.7511 0.39467 0.12739 0.0
H751 H 0.79548 0.45197 0.12661 0.0
H752 H 0.60775 0.41359 0.25102 0.0
H753 H 0.60903 0.36548 0.22145 0.0
H754 H 0.64277 0.34267 0.18786 0.0
H755 H 0.69424 0.35314 0.15303 0.0
Mn756 Mn 0.52429 0.12146 0.93787 0.0
Mn757 Mn 0.57304 0.20117 0.93038 0.0
C758 C 0.5191 0.15485 0.99164 0.0
C759 C 0.51679 0.07128 0.96216 0.0
C760 C 0.51742 0.16263 0.86732 0.0
O761 O 0.56116 0.12687 0.89585 0.0
O762 O 0.59628 0.17894 0.91024 0.0
C763 C 0.62401 0.2131 0.99464 0.0
N764 N 0.60153 0.21998 0.97903 0.0
C765 C 0.62648 0.2714 0.01545 0.0
C766 C 0.65066 0.26542 0.03105 0.0
C767 C 0.64863 0.23555 0.02201 0.0
C768 C 0.60132 0.24706 0.99108 0.0
H769 H 0.62343 0.19096 0.9854 0.0
C770 C 0.5897 0.15131 0.89512 0.0
O771 O 0.50084 0.07345 0.92857 0.0
O772 O 0.53691 0.09819 0.9814 0.0
N773 N 0.5546 0.22682 0.94893 0.0
C774 C 0.5294 0.22862 0.93104 0.0
C775 C 0.52562 0.25533 0.94067 0.0
C776 C 0.5488 0.28079 0.96664 0.0
C777 C 0.575 0.2788 0.9837 0.0
C778 C 0.57631 0.25066 0.97531 0.0
H779 H 0.51252 0.21009 0.9093 0.0
O780 O 0.49622 0.12544 0.9845 0.0
O781 O 0.54461 0.16363 0.96718 0.0
O782 O 0.50377 0.1363 0.88933 0.0
O783 O 0.54519 0.18593 0.87721 0.0
C784 C 0.60087 0.30435 0.00638 0.0
C785 C 0.62692 0.30088 0.02136 0.0
H786 H 0.67081 0.2836 0.04989 0.0
H787 H 0.66641 0.23003 0.03456 0.0
H788 H 0.50555 0.25681 0.92674 0.0
H789 H 0.5466 0.30199 0.97248 0.0
H790 H 0.60128 0.32698 0.01175 0.0
H791 H 0.64713 0.32111 0.03739 0.0
Mn792 Mn 0.89968 0.41075 0.94414 0.0
Mn793 Mn 0.82212 0.38683 0.92237 0.0
C794 C 0.86046 0.37089 0.991 0.0
C795 C 0.95002 0.44888 0.97368 0.0
C796 C 0.86207 0.3649 0.86972 0.0
O797 O 0.90198 0.44594 0.90153 0.0
O798 O 0.8501 0.43209 0.90528 0.0
C799 C 0.80966 0.42915 0.98128 0.0
N800 N 0.80063 0.39946 0.96422 0.0
C801 C 0.74497 0.38018 0.98143 0.0
C802 C 0.7535 0.41053 -0.00074 0.0
C803 C 0.78608 0.43498 1e-05 0.0
C804 C 0.76979 0.37532 0.96586 0.0
H805 H 0.83454 0.44814 0.97999 0.0
C806 C 0.87927 0.45221 0.89589 0.0
O807 O 0.94726 0.43049 0.94018 0.0
O808 O 0.92325 0.44483 0.99079 0.0
N809 N 0.78938 0.3436 0.9356 0.0
C810 C 0.78531 0.3155 0.9181 0.0
C811 C 0.7545 0.28792 0.91746 0.0
C812 C 0.7277 0.29004 0.93201 0.0
C813 C 0.73216 0.31955 0.94806 0.0
C814 C 0.76373 0.34563 0.9504 0.0
H815 H 0.80535 0.31423 0.90446 0.0
O816 O 0.88966 0.37596 0.98771 0.0
O817 O 0.85467 0.39067 0.96768 0.0
O818 O 0.88665 0.37674 0.89478 0.0
O819 O 0.83944 0.37133 0.87433 0.0
C820 C 0.70652 0.3244 0.96101 0.0
C821 C 0.71293 0.35458 0.97823 0.0
H822 H 0.73523 0.41509 0.01274 0.0
H823 H 0.79289 0.45841 0.01396 0.0
H824 H 0.75128 0.26541 0.90422 0.0
H825 H 0.70382 0.26901 0.93018 0.0
H826 H 0.68186 0.30508 0.95785 0.0
H827 H 0.69312 0.35788 0.98886 0.0
Mn828 Mn 0.61061 0.49408 0.93816 0.0
Mn829 Mn 0.63719 0.44137 0.93758 0.0
C830 C 0.64758 0.49829 0.99303 0.0
C831 C 0.56962 0.50485 0.96069 0.0
C832 C 0.65965 0.49607 0.87127 0.0
O833 O 0.57845 0.45682 0.89716 0.0
O834 O 0.59296 0.41992 0.91337 0.0
C835 C 0.59247 0.397 0.00537 0.0
N836 N 0.62316 0.41598 0.9902 0.0
C837 C 0.64525 0.40867 0.05769 0.0
C838 C 0.61406 0.38931 0.07442 0.0
C839 C 0.58744 0.38329 0.04804 0.0
C840 C 0.64886 0.42219 0.01551 0.0
H841 H 0.57203 0.39334 0.98578 0.0
C842 C 0.57329 0.42777 0.89659 0.0
O843 O 0.58807 0.51944 0.9266 0.0
O844 O 0.57497 0.48412 0.9811 0.0
N845 N 0.67985 0.45925 0.96075 0.0
C846 C 0.70849 0.48138 0.94211 0.0
C847 C 0.73735 0.49059 0.96498 0.0
C848 C 0.73647 0.47679 0.00663 0.0
C849 C 0.70678 0.45344 0.0244 0.0
C850 C 0.67889 0.4447 -0.00034 0.0
H851 H 0.7095 0.49187 0.90999 0.0
O852 O 0.64302 0.52239 0.98494 0.0
O853 O 0.62999 0.47283 0.96912 0.0
O854 O 0.64685 0.51106 0.89012 0.0
O855 O 0.65348 0.46784 0.88295 0.0
C856 C 0.70368 0.43883 0.06604 0.0
C857 C 0.6729 0.41641 0.08234 0.0
H858 H 0.6105 0.3802 0.10823 0.0
H859 H 0.56321 0.36892 0.06092 0.0
H860 H 0.76015 0.50838 0.95066 0.0
H861 H 0.75866 0.48435 0.02475 0.0
H862 H 0.72481 0.44506 0.08571 0.0
H863 H 0.67023 0.40516 0.11385 0.0
Mn864 Mn 0.56141 0.82253 0.76966 0.0
Mn865 Mn 0.481 0.77654 0.77304 0.0
C866 C 0.53231 0.83133 0.82568 0.0
C867 C 0.61191 0.82927 0.78889 0.0
C868 C 0.51635 0.8301 0.70581 0.0
O869 O 0.55178 0.78347 0.7292 0.0
O870 O 0.49925 0.75162 0.74544 0.0
C871 C 0.47606 0.72729 0.83687 0.0
N872 N 0.46825 0.74999 0.8246 0.0
C873 C 0.43626 0.74057 0.89012 0.0
C874 C 0.44369 0.71701 0.90364 0.0
C875 C 0.46387 0.71041 0.87703 0.0
C876 C 0.44979 0.75723 0.85074 0.0
H877 H 0.49187 0.72251 0.8166 0.0
C878 C 0.52563 0.75612 0.72819 0.0
O879 O 0.60848 0.84417 0.7549 0.0
O880 O 0.58599 0.81031 0.81114 0.0
N881 N 0.46022 0.7978 0.79956 0.0
C882 C 0.45617 0.82209 0.78292 0.0
C883 C 0.43799 0.83266 0.80709 0.0
C884 C 0.42364 0.81774 0.84769 0.0
C885 C 0.42718 0.79202 0.86318 0.0
C886 C 0.44551 0.7825 0.8376 0.0
H887 H 0.46645 0.83319 0.75137 0.0
O888 O 0.56156 0.85344 0.816 0.0
O889 O 0.52158 0.80487 0.80288 0.0
O890 O 0.54457 0.84198 0.72236 0.0
O891 O 0.49216 0.80395 0.71951 0.0
C892 C 0.41218 0.77455 0.90208 0.0
C893 C 0.41617 0.74837 0.9145 0.0
H894 H 0.43487 0.70474 0.9351 0.0
H895 H 0.47005 0.6925 0.88749 0.0
H896 H 0.43496 0.85217 0.79435 0.0
H897 H 0.40954 0.82584 0.8663 0.0
H898 H 0.39671 0.78035 0.92164 0.0
H899 H 0.40322 0.73357 0.942 0.0
Mn900 Mn 0.19166 0.74088 0.78141 0.0
Mn901 Mn 0.24555 0.71656 0.76075 0.0
C902 C 0.19091 0.70073 0.82864 0.0
C903 C 0.17958 0.7791 0.81282 0.0
C904 C 0.18384 0.69379 0.70761 0.0
O905 O 0.22468 0.77637 0.73904 0.0
O906 O 0.26165 0.76099 0.74034 0.0
C907 C 0.30003 0.76183 0.8171 0.0
N908 N 0.27996 0.73138 0.80212 0.0
C909 C 0.31879 0.71495 0.81747 0.0
C910 C 0.34018 0.74621 0.83255 0.0
C911 C 0.33052 0.7696 0.83353 0.0
C912 C 0.28806 0.70819 0.8044 0.0
H913 H 0.29296 0.78002 0.81534 0.0
C914 C 0.25308 0.78154 0.7312 0.0
O915 O 0.16396 0.76146 0.77875 0.0
O916 O 0.20206 0.77436 0.82884 0.0
N917 N 0.23671 0.67426 0.77639 0.0
C918 C 0.21378 0.64576 0.75872 0.0
C919 C 0.21891 0.61934 0.75701 0.0
C920 C 0.24858 0.62299 0.77068 0.0
C921 C 0.27255 0.65296 0.78678 0.0
C922 C 0.26516 0.67781 0.79039 0.0
H923 H 0.19193 0.64341 0.74547 0.0
O924 O 0.16678 0.70576 0.82497 0.0
O925 O 0.21645 0.72056 0.80533 0.0
O926 O 0.17143 0.7072 0.73077 0.0
O927 O 0.21221 0.69878 0.71401 0.0
C928 C 0.30401 0.6597 0.79744 0.0
C929 C 0.32697 0.6905 0.81354 0.0
H930 H 0.36405 0.75239 0.84299 0.0
H931 H 0.34695 0.79378 0.84521 0.0
H932 H 0.20054 0.59673 0.74312 0.0
H933 H 0.253 0.60293 0.76762 0.0
H934 H 0.31091 0.64154 0.79278 0.0
H935 H 0.3509 0.69523 0.82226 0.0
Mn936 Mn 0.27232 0.44611 0.7705 0.0
Mn937 Mn 0.30881 0.52667 0.76215 0.0
C938 C 0.3123 0.47704 0.82361 0.0
C939 C 0.22833 0.39743 0.79582 0.0
C940 C 0.32229 0.48429 0.70025 0.0
O941 O 0.24241 0.45382 0.72885 0.0
O942 O 0.26396 0.50701 0.73981 0.0
C943 C 0.27015 0.54121 0.82393 0.0
N944 N 0.29936 0.54696 0.80932 0.0
C945 C 0.32637 0.59901 0.84379 0.0
C946 C 0.29621 0.59499 0.85571 0.0
C947 C 0.26805 0.5654 0.84739 0.0
C948 C 0.32675 0.57373 0.82116 0.0
H949 H 0.24887 0.5185 0.81697 0.0
C950 C 0.24136 0.47994 0.72571 0.0
O951 O 0.24541 0.39846 0.76145 0.0
O952 O 0.23663 0.42476 0.81519 0.0
N953 N 0.35256 0.55128 0.7817 0.0
C954 C 0.37935 0.55207 0.76465 0.0
C955 C 0.41001 0.57794 0.77519 0.0
C956 C 0.4128 0.60373 0.80112 0.0
C957 C 0.38487 0.6031 0.81679 0.0
C958 C 0.35511 0.57585 0.80715 0.0
H959 H 0.37731 0.53339 0.74276 0.0
O960 O 0.30362 0.44719 0.81496 0.0
O961 O 0.29714 0.48845 0.80026 0.0
O962 O 0.30638 0.45773 0.7211 0.0
O963 O 0.32163 0.50978 0.71072 0.0
C964 C 0.3852 0.6291 0.83958 0.0
C965 C 0.35591 0.62735 0.8521 0.0
H966 H 0.29459 0.61429 0.87206 0.0
H967 H 0.24473 0.56133 0.85791 0.0
H968 H 0.43139 0.57854 0.76204 0.0
H969 H 0.43641 0.62422 0.80783 0.0
H970 H 0.40776 0.65083 0.84662 0.0
H971 H 0.35638 0.64788 0.86821 0.0
Mn972 Mn 0.49024 0.89593 0.04604 0.0
Mn973 Mn 0.44112 0.81623 0.06126 0.0
C974 C 0.49385 0.86039 0.99437 0.0
C975 C 0.4992 0.94637 0.02048 0.0
C976 C 0.50132 0.85689 0.1162 0.0
O977 O 0.45575 0.89386 0.08956 0.0
O978 O 0.42153 0.84078 0.08541 0.0
C979 C 0.38279 0.80168 0.01032 0.0
N980 N 0.40628 0.79477 0.02093 0.0
C981 C 0.37107 0.73815 0.00819 0.0
C982 C 0.34629 0.74447 -0.00269 0.0
C983 C 0.3524 0.7765 -0.00281 0.0
C984 C 0.40141 0.76453 0.01769 0.0
H985 H 0.38715 0.82607 0.01308 0.0
C986 C 0.42822 0.86912 0.09663 0.0
O987 O 0.51529 0.94371 0.05336 0.0
O988 O 0.47807 0.91957 0.00171 0.0
N989 N 0.45457 0.78707 0.04094 0.0
C990 C 0.48112 0.78535 0.05272 0.0
C991 C 0.48087 0.75599 0.04797 0.0
C992 C 0.45232 0.7281 0.03523 0.0
C993 C 0.4245 0.73 0.02682 0.0
C994 C 0.42736 0.76055 0.02733 0.0
H995 H 0.50226 0.80631 0.06521 0.0
O996 O 0.51689 0.88982 0.0007 0.0
O997 O 0.46781 0.85188 0.01835 0.0
O998 O 0.51225 0.88325 0.09485 0.0
O999 O 0.47428 0.83233 0.10773 0.0
C1000 C 0.39375 0.70281 0.01992 0.0
C1001 C 0.36698 0.70682 0.01059 0.0
H1002 H 0.3226 0.72487 0.98917 0.0
H1003 H 0.33345 0.78164 0.98886 0.0
H1004 H 0.50217 0.75455 0.0559 0.0
H1005 H 0.45188 0.70528 0.03285 0.0
H1006 H 0.39035 0.67879 0.02253 0.0
H1007 H 0.34361 0.68577 0.00463 0.0
Mn1008 Mn 0.12667 0.59597 0.05357 0.0
Mn1009 Mn 0.20663 0.62855 0.04866 0.0
C1010 C 0.15579 0.63408 -0.0024 0.0
C1011 C 0.07604 0.55222 0.03387 0.0
C1012 C 0.17262 0.64628 0.11885 0.0
O1013 O 0.13637 0.5663 0.09339 0.0
O1014 O 0.18786 0.58443 0.07311 0.0
C1015 C 0.20866 0.58609 0.97895 0.0
N1016 N 0.21839 0.61633 0.99466 0.0
C1017 C 0.2474 0.64057 0.92745 0.0
C1018 C 0.23733 0.60984 0.90998 0.0
C1019 C 0.21788 0.58238 0.93586 0.0
C1020 C 0.23643 0.64277 0.96959 0.0
H1021 H 0.19317 0.56499 -0.0014 0.0
C1022 C 0.16178 0.56368 0.09233 0.0
O1023 O 0.07933 0.57034 0.06816 0.0
O1024 O 0.10206 0.55954 0.0117 0.0
N1025 N 0.22778 0.67149 0.02528 0.0
C1026 C 0.23204 0.69928 0.04437 0.0
C1027 C 0.24999 0.72873 0.02177 0.0
C1028 C 0.26371 0.72937 0.98006 0.0
C1029 C 0.25976 0.70061 0.96181 0.0
C1030 C 0.24183 0.67203 0.98602 0.0
H1031 H 0.22201 0.69916 0.0766 0.0
O1032 O 0.12661 0.6271 0.00753 0.0
O1033 O 0.16619 0.61803 0.0202 0.0
O1034 O 0.14452 0.63199 0.1014 0.0
O1035 O 0.196 0.64297 0.10465 0.0
C1036 C 0.27307 0.69914 0.92067 0.0
C1037 C 0.26701 0.66907 0.90396 0.0
H1038 H 0.2433 0.60722 0.87602 0.0
H1039 H 0.20964 0.55849 0.92245 0.0
H1040 H 0.2532 0.75085 0.03645 0.0
H1041 H 0.27721 0.75202 0.96234 0.0
H1042 H 0.28791 0.72092 0.90182 0.0
H1043 H 0.27769 0.66773 0.87345 0.0
Mn1044 Mn 0.41691 0.52309 0.04888 0.0
Mn1045 Mn 0.36815 0.55515 0.05093 0.0
C1046 C 0.37597 0.50844 0.99545 0.0
C1047 C 0.46377 0.52275 0.02512 0.0
C1048 C 0.359 0.50121 0.11221 0.0
O1049 O 0.44319 0.56355 0.08843 0.0
O1050 O 0.40786 0.58113 0.08536 0.0
C1051 C 0.41048 0.61493 0.00106 0.0
N1052 N 0.38115 0.58824 0.00753 0.0
C1053 C 0.35462 0.61028 0.96466 0.0
C1054 C 0.38442 0.63816 0.95736 0.0
C1055 C 0.41267 0.64014 0.97461 0.0
C1056 C 0.35445 0.58487 0.9876 0.0
H1057 H 0.43179 0.61716 0.01679 0.0
C1058 C 0.43482 0.58449 0.09778 0.0
O1059 O 0.44782 0.50728 0.06047 0.0
O1060 O 0.45301 0.53924 0.00425 0.0
N1061 N 0.32838 0.53365 0.01907 0.0
C1062 C 0.30173 0.50472 0.02821 0.0
C1063 C 0.27186 0.49759 0.01005 0.0
C1064 C 0.26933 0.52118 0.98528 0.0
C1065 C 0.29694 0.55121 0.97774 0.0
C1066 C 0.32639 0.55594 0.99377 0.0
H1067 H 0.3032 0.48747 0.04973 0.0
O1068 O 0.38755 0.48966 0.00444 0.0
O1069 O 0.38872 0.53536 0.01731 0.0
O1070 O 0.38362 0.49944 0.09973 0.0
O1071 O 0.35173 0.52135 0.09629 0.0
C1072 C 0.29613 0.57742 0.95771 0.0
C1073 C 0.32493 0.60714 0.95194 0.0
H1074 H 0.38568 0.6583 0.93922 0.0
H1075 H 0.43585 0.6615 0.96935 0.0
H1076 H 0.25062 0.47453 0.01677 0.0
H1077 H 0.24601 0.51626 0.97316 0.0
H1078 H 0.27346 0.57513 0.94732 0.0
H1079 H 0.32405 0.62753 0.93786 0.0
Mn1080 Mn 0.1249 0.52306 0.54964 0.0
Mn1081 Mn 0.20417 0.57393 0.5531 0.0
C1082 C 0.15746 0.51826 0.49494 0.0
C1083 C 0.07423 0.51426 0.52761 0.0
C1084 C 0.16902 0.5177 0.61673 0.0
O1085 O 0.13062 0.55951 0.593 0.0
O1086 O 0.18186 0.59661 0.57669 0.0
C1087 C 0.20644 0.61917 0.48447 0.0
N1088 N 0.21725 0.59961 0.50045 0.0
C1089 C 0.24478 0.60364 0.43195 0.0
C1090 C 0.23456 0.62429 0.41501 0.0
C1091 C 0.21543 0.63234 0.44151 0.0
C1092 C 0.23548 0.5916 0.47498 0.0
H1093 H 0.18983 0.62335 0.50343 0.0
C1094 C 0.1544 0.58849 0.59419 0.0
O1095 O 0.0774 0.49868 0.56097 0.0
O1096 O 0.10051 0.5351 0.50765 0.0
N1097 N 0.22857 0.55515 0.53101 0.0
C1098 C 0.23563 0.53394 0.55138 0.0
C1099 C 0.25388 0.52283 0.52862 0.0
C1100 C 0.26517 0.53414 0.48542 0.0
C1101 C 0.2593 0.55751 0.46646 0.0
C1102 C 0.24181 0.56837 0.49137 0.0
H1103 H 0.22801 0.52604 0.58499 0.0
O1104 O 0.12827 0.49497 0.50184 0.0
O1105 O 0.16594 0.54363 0.51968 0.0
O1106 O 0.14211 0.50383 0.5962 0.0
O1107 O 0.19176 0.54625 0.60744 0.0
C1108 C 0.2692 0.56974 0.42328 0.0
C1109 C 0.2619 0.59279 0.40636 0.0
H1110 H 0.23999 0.6326 0.38088 0.0
H1111 H 0.20662 0.64755 0.42827 0.0
H1112 H 0.25907 0.50551 0.54424 0.0
H1113 H 0.27832 0.52479 0.46718 0.0
H1114 H 0.28186 0.56107 0.40286 0.0
H1115 H 0.26859 0.60174 0.37337 0.0
Mn1116 Mn 0.48843 0.60244 0.54568 0.0
Mn1117 Mn 0.43389 0.62517 0.5636 0.0
C1118 C 0.49034 0.64239 0.49729 0.0
C1119 C 0.50076 0.56349 0.51848 0.0
C1120 C 0.49252 0.64514 0.62129 0.0
O1121 O 0.45419 0.5678 0.58807 0.0
O1122 O 0.41487 0.57893 0.57519 0.0
C1123 C 0.38078 0.58791 0.50043 0.0
N1124 N 0.40217 0.61651 0.51958 0.0
C1125 C 0.36786 0.6389 0.50565 0.0
C1126 C 0.34573 0.61001 0.48475 0.0
C1127 C 0.35247 0.58458 0.48136 0.0
C1128 C 0.39656 0.6415 0.52122 0.0
H1129 H 0.38508 0.56775 0.50064 0.0
C1130 C 0.42448 0.56003 0.58896 0.0
O1131 O 0.51577 0.58197 0.55214 0.0
O1132 O 0.47878 0.568 0.49994 0.0
N1133 N 0.44688 0.66957 0.55469 0.0
C1134 C 0.4718 0.69648 0.57305 0.0
C1135 C 0.46997 0.72486 0.57657 0.0
C1136 C 0.44176 0.72474 0.56337 0.0
C1137 C 0.41617 0.69656 0.54523 0.0
C1138 C 0.42028 0.6697 0.54012 0.0
H1139 H 0.49286 0.69633 0.5847 0.0
O1140 O 0.5142 0.63697 0.50176 0.0
O1141 O 0.46435 0.62265 0.5199 0.0
O1142 O 0.5079 0.63677 0.5951 0.0
O1143 O 0.4629 0.63596 0.61553 0.0
C1144 C 0.38661 0.69385 0.53223 0.0
C1145 C 0.36259 0.66516 0.51198 0.0
H1146 H 0.3237 0.60736 0.4711 0.0
H1147 H 0.33558 0.56223 0.46519 0.0
H1148 H 0.48985 0.74645 0.59073 0.0
H1149 H 0.44001 0.74636 0.56729 0.0
H1150 H 0.3822 0.71371 0.5375 0.0
H1151 H 0.34018 0.66347 0.5015 0.0
Mn1152 Mn 0.40961 0.89821 0.55423 0.0
Mn1153 Mn 0.37388 0.81728 0.56154 0.0
C1154 C 0.37109 0.86648 0.49984 0.0
C1155 C 0.45348 0.94817 0.53128 0.0
C1156 C 0.35722 0.85801 0.62173 0.0
O1157 O 0.43942 0.89095 0.59691 0.0
O1158 O 0.41749 0.83761 0.58707 0.0
C1159 C 0.41623 0.80542 0.50296 0.0
N1160 N 0.38618 0.79867 0.51516 0.0
C1161 C 0.3616 0.74829 0.47611 0.0
C1162 C 0.39243 0.75378 0.46484 0.0
C1163 C 0.41979 0.78316 0.47673 0.0
C1164 C 0.35965 0.77235 0.49992 0.0
H1165 H 0.43721 0.82734 0.5139 0.0
C1166 C 0.44012 0.86467 0.60097 0.0
O1167 O 0.43505 0.9458 0.56461 0.0
O1168 O 0.44651 0.92138 0.51121 0.0
N1169 N 0.33116 0.79231 0.53859 0.0
C1170 C 0.30333 0.78969 0.55485 0.0
C1171 C 0.27351 0.76405 0.5409 0.0
C1172 C 0.2726 0.7399 0.51315 0.0
C1173 C 0.30148 0.74178 0.49956 0.0
C1174 C 0.33041 0.76912 0.51187 0.0
H1175 H 0.30385 0.80693 0.57824 0.0
O1176 O 0.37892 0.89626 0.5075 0.0
O1177 O 0.38631 0.85591 0.52435 0.0
O1178 O 0.37404 0.88506 0.60219 0.0
O1179 O 0.3584 0.83277 0.61148 0.0
C1180 C 0.30274 0.71667 0.47674 0.0
C1181 C 0.3328 0.71957 0.46623 0.0
H1182 H 0.39529 0.73571 0.44687 0.0
H1183 H 0.44367 0.7885 0.4671 0.0
H1184 H 0.25136 0.76239 0.55275 0.0
H1185 H 0.2497 0.71955 0.50342 0.0
H1186 H 0.28078 0.69466 0.46829 0.0
H1187 H 0.33338 0.69947 0.45058 0.0
Mn1188 Mn 0.19985 0.45067 0.28069 0.0
Mn1189 Mn 0.25456 0.52776 0.26263 0.0
C1190 C 0.19793 0.48888 0.32886 0.0
C1191 C 0.1887 0.40014 0.30949 0.0
C1192 C 0.19567 0.48899 0.20474 0.0
O1193 O 0.23348 0.4501 0.23749 0.0
O1194 O 0.27341 0.50022 0.2503 0.0
C1195 C 0.30563 0.54117 0.32842 0.0
N1196 N 0.28563 0.54963 0.30782 0.0
C1197 C 0.31864 0.60516 0.32882 0.0
C1198 C 0.33923 0.59705 0.35133 0.0
C1199 C 0.33259 0.56485 0.35156 0.0
C1200 C 0.2911 0.58014 0.30899 0.0
H1201 H 0.30102 0.51664 0.32685 0.0
C1202 C 0.26323 0.47175 0.23585 0.0
O1203 O 0.17297 0.40254 0.27582 0.0
O1204 O 0.21063 0.42713 0.32675 0.0
N1205 N 0.24212 0.55962 0.27202 0.0
C1206 C 0.21837 0.56284 0.25195 0.0
C1207 C 0.22041 0.5932 0.25068 0.0
C1208 C 0.24776 0.62038 0.26789 0.0
C1209 C 0.27234 0.6167 0.28736 0.0
C1210 C 0.26811 0.58554 0.28965 0.0
H1211 H 0.19805 0.54248 0.23707 0.0
O1212 O 0.17419 0.45953 0.32492 0.0
O1213 O 0.22369 0.49499 0.30577 0.0
O1214 O 0.18032 0.46521 0.23098 0.0
O1215 O 0.22523 0.50987 0.21069 0.0
C1216 C 0.3011 0.64271 0.30421 0.0
C1217 C 0.324 0.63692 0.32568 0.0
H1218 H 0.35969 0.61527 0.36925 0.0
H1219 H 0.34838 0.55842 0.36894 0.0
H1220 H 0.20139 0.59579 0.23526 0.0
H1221 H 0.24968 0.64391 0.26585 0.0
H1222 H 0.30571 0.66717 0.30097 0.0
H1223 H 0.34552 0.65696 0.33975 0.0
Mn1224 Mn 0.55993 0.74568 0.27129 0.0
Mn1225 Mn 0.48236 0.72294 0.28 0.0
C1226 C 0.52945 0.70975 0.32887 0.0
C1227 C 0.61238 0.78635 0.28959 0.0
C1228 C 0.50965 0.69923 0.20719 0.0
O1229 O 0.55374 0.77765 0.23143 0.0
O1230 O 0.50538 0.76766 0.25674 0.0
C1231 C 0.4862 0.76707 0.35157 0.0
N1232 N 0.47352 0.73656 0.33506 0.0
C1233 C 0.44511 0.71362 0.403 0.0
C1234 C 0.45771 0.74459 0.42099 0.0
C1235 C 0.47826 0.77157 0.39507 0.0
C1236 C 0.45403 0.71052 0.3599 0.0
H1237 H 0.50313 0.78767 0.33233 0.0
C1238 C 0.53147 0.785 0.23497 0.0
O1239 O 0.60717 0.76751 0.25544 0.0
O1240 O 0.58732 0.78136 0.31235 0.0
N1241 N 0.45761 0.67991 0.30215 0.0
C1242 C 0.45047 0.65139 0.28226 0.0
C1243 C 0.43152 0.62228 0.30509 0.0
C1244 C 0.42006 0.62279 0.348 0.0
C1245 C 0.42688 0.65235 0.36699 0.0
C1246 C 0.44542 0.68054 0.34242 0.0
H1247 H 0.4591 0.65063 0.24936 0.0
O1248 O 0.5572 0.71327 0.31753 0.0
O1249 O 0.52134 0.72785 0.3066 0.0
O1250 O 0.53771 0.70938 0.22385 0.0
O1251 O 0.48979 0.70719 0.22309 0.0
C1252 C 0.41654 0.65502 0.40974 0.0
C1253 C 0.42531 0.68564 0.42719 0.0
H1254 H 0.45287 0.74759 0.45541 0.0
H1255 H 0.48862 0.79562 0.40896 0.0
H1256 H 0.42608 0.59957 0.28985 0.0
H1257 H 0.40619 0.60041 0.36616 0.0
H1258 H 0.40202 0.63363 0.42919 0.0
H1259 H 0.41709 0.68799 0.45916 0.0
Mn1260 Mn 0.26994 0.82122 0.27493 0.0
Mn1261 Mn 0.31238 0.78232 0.27102 0.0
C1262 C 0.31057 0.83293 0.32725 0.0
C1263 C 0.2245 0.82396 0.2986 0.0
C1264 C 0.32482 0.83757 0.20931 0.0
O1265 O 0.24187 0.78213 0.2345 0.0
O1266 O 0.27039 0.75668 0.24095 0.0
C1267 C 0.27056 0.72529 0.32572 0.0
N1268 N 0.30013 0.75079 0.31652 0.0
C1269 C 0.32673 0.72753 0.35679 0.0
C1270 C 0.29655 0.7006 0.36644 0.0
C1271 C 0.26828 0.7 0.35196 0.0
C1272 C 0.32716 0.75309 0.33379 0.0
H1273 H 0.24905 0.7241 0.31238 0.0
C1274 C 0.24552 0.7577 0.22793 0.0
O1275 O 0.24132 0.83976 0.26396 0.0
O1276 O 0.23386 0.80618 0.31917 0.0
N1277 N 0.35371 0.80306 0.29893 0.0
C1278 C 0.38066 0.83103 0.28733 0.0
C1279 C 0.41074 0.83766 0.30401 0.0
C1280 C 0.4131 0.81423 0.32942 0.0
C1281 C 0.38518 0.78489 0.33894 0.0
C1282 C 0.35563 0.78098 0.32481 0.0
H1283 H 0.3792 0.84791 0.26517 0.0
O1284 O 0.30041 0.85306 0.31948 0.0
O1285 O 0.29594 0.8059 0.30546 0.0
O1286 O 0.30396 0.84406 0.22517 0.0
O1287 O 0.32815 0.81419 0.22274 0.0
C1288 C 0.38562 0.75862 0.35937 0.0
C1289 C 0.35644 0.72968 0.36735 0.0
H1290 H 0.29489 0.68029 0.38469 0.0
H1291 H 0.2448 0.67974 0.35936 0.0
H1292 H 0.43216 0.8602 0.29573 0.0
H1293 H 0.43646 0.81866 0.3406 0.0
H1294 H 0.40828 0.76021 0.36835 0.0
H1295 H 0.3572 0.70933 0.38179 0.0
C1296 C 0.18329 0.03523 0.05519 0.0
C1297 C 0.20507 0.06725 0.04188 0.0
C1298 C 0.17869 0.00866 0.02949 0.0
C1299 C 0.19546 0.01296 0.98922 0.0
H1300 H 0.16783 0.03064 0.08396 0.0
H1301 H 0.15902 0.98497 0.03834 0.0
S1302 S 0.25963 0.09096 0.94384 0.0
N1303 N 0.24722 0.10119 0.98934 0.0
N1304 N 0.23834 0.05116 0.94101 0.0
C1305 C 0.22005 0.04444 0.9785 0.0
C1306 C 0.22486 0.07162 0.00473 0.0
C1307 C 0.95372 0.14905 0.00603 0.0
C1308 C 0.95404 0.12727 0.03757 0.0
C1309 C 0.9807 0.1677 0.97809 0.0
C1310 C 1.0089 0.16538 0.98119 0.0
H1311 H 0.93191 0.15017 0.00089 0.0
H1312 H 0.97849 0.18196 0.95169 0.0
S1313 S 0.02384 0.11522 0.06093 0.0
N1314 N 0.98695 0.10734 0.0723 0.0
N1315 N 0.03663 0.1423 0.02069 0.0
C1316 C 0.01039 0.14588 0.01486 0.0
C1317 C 0.98326 0.12684 0.04274 0.0
C1318 C 0.83463 0.8028 0.97835 0.0
C1319 C 0.82267 0.82323 0.9913 0.0
C1320 C 0.85302 0.79557 0.00792 0.0
C1321 C 0.85957 0.8083 0.05148 0.0
H1322 H 0.83292 0.79539 0.94379 0.0
H1323 H 0.86488 0.78295 0.99508 0.0
S1324 S 0.82601 0.8556 0.10461 0.0
N1325 N 0.81358 0.85101 0.05232 0.0
N1326 N 0.84628 0.8361 0.10875 0.0
C1327 C 0.84342 0.82454 0.0665 0.0
C1328 C 0.82541 0.83238 0.03616 0.0
C1329 C 1.00089 0.1566 0.45717 0.0
C1330 C 1.003 0.17203 0.49795 0.0
C1331 C 0.02847 0.16431 0.43194 0.0
C1332 C 0.05958 0.18743 0.44672 0.0
H1333 H 0.97806 0.13642 0.44659 0.0
H1334 H 0.02548 0.15018 0.40216 0.0
S1335 S 0.07762 0.23795 0.54834 0.0
N1336 N 0.03803 0.21448 0.54926 0.0
N1337 N 0.09021 0.22849 0.5023 0.0
C1338 C 0.06171 0.20541 0.48511 0.0
C1339 C 0.03332 0.19787 0.51055 0.0
C1340 C 0.79744 0.86082 0.50002 0.0
C1341 C 0.80952 0.86787 0.45617 0.0
C1342 C 0.80678 0.84389 0.52924 0.0
C1343 C 0.82891 0.8342 0.51565 0.0
H1344 H 0.78347 0.87117 0.51313 0.0
H1345 H 0.79909 0.84113 0.5638 0.0
S1346 S 0.86074 0.83959 0.40152 0.0
N1347 N 0.83869 0.85728 0.39819 0.0
N1348 N 0.85787 0.82766 0.45392 0.0
C1349 C 0.83783 0.83759 0.47071 0.0
C1350 C 0.82773 0.85397 0.44076 0.0
C1351 C 0.15819 0.93892 0.48674 0.0
C1352 C 0.14988 0.94675 0.44544 0.0
C1353 C 0.17857 0.96329 0.51671 0.0
C1354 C 0.19151 0.99626 0.50634 0.0
H1355 H 0.14644 0.91405 0.49788 0.0
H1356 H 0.18139 0.95626 0.55002 0.0
S1357 S 0.1837 0.02929 0.39843 0.0
N1358 N 0.16138 0.98979 0.39244 0.0
N1359 N 0.19916 0.0352 0.44912 0.0
C1360 C 0.18683 1.0042 0.46305 0.0
C1361 C 0.16603 0.97953 0.43258 0.0
C1362 C 0.83546 1.00315 0.96902 0.0
C1363 C 0.82388 0.99936 0.01284 0.0
C1364 C 0.82701 0.97625 0.94189 0.0
C1365 C 0.80717 0.94456 0.95784 0.0
H1366 H 0.85384 0.0267 0.95729 0.0
H1367 H 0.83858 0.98036 0.90971 0.0
S1368 S 0.76573 0.92235 0.0674 0.0
N1369 N 0.78715 0.96221 0.06849 0.0
N1370 N 0.77226 0.91133 0.01787 0.0
C1371 C 0.79233 0.94067 -0.00041 0.0
C1372 C 0.80051 0.96825 0.02704 0.0
C1373 C 0.02562 0.84386 0.00345 0.0
C1374 C 1.00203 0.85321 0.00803 0.0
C1375 C 0.05505 0.8635 0.98066 0.0
C1376 C 0.06246 0.89366 0.96224 0.0
H1377 H 0.02194 0.82185 0.01909 0.0
H1378 H 0.07243 0.85533 0.97852 0.0
S1379 S 1.00898 0.92963 0.96507 0.0
N1380 N 0.98798 0.89443 0.98994 0.0
N1381 N 0.04303 0.93154 0.95042 0.0
C1382 C 0.03868 0.90285 0.9659 0.0
C1383 C 1.00859 0.88258 0.98765 0.0
C1384 C 0.15872 0.21182 0.97498 0.0
C1385 C 0.14436 0.19165 0.93765 0.0
C1386 C 0.17968 0.20731 0.00347 0.0
C1387 C 0.18671 0.18234 0.99576 0.0
H1388 H 0.15171 0.22934 0.9844 0.0
H1389 H 0.18743 0.22102 0.03424 0.0
S1390 S 0.16173 0.12816 0.89756 0.0
N1391 N 0.14412 0.14999 0.89033 0.0
N1392 N 0.1823 0.14121 0.94444 0.0
C1393 C 0.17571 0.16487 0.95587 0.0
C1394 C 0.15472 0.16948 0.92682 0.0
C1395 C 0.95517 0.81037 0.51028 0.0
C1396 C 0.95709 0.83209 0.54373 0.0
C1397 C 0.98217 0.81711 0.48343 0.0
C1398 C 0.01202 0.84565 0.48939 0.0
H1399 H 0.93224 0.78915 0.50286 0.0
H1400 H 0.97891 0.80131 0.45554 0.0
S1401 S 0.03169 0.90739 0.57712 0.0
N1402 N 0.99309 0.8813 0.58461 0.0
N1403 N 0.04303 0.89326 0.53476 0.0
C1404 C 0.01494 0.86584 0.52519 0.0
C1405 C 0.98771 0.85929 0.55211 0.0
C1406 C 0.15302 0.14458 0.52395 0.0
C1407 C 0.1736 0.16576 0.4909 0.0
C1408 C 0.16043 0.12354 0.54663 0.0
C1409 C 0.18913 0.12302 0.53807 0.0
H1410 H 0.12957 0.14227 0.52965 0.0
H1411 H 0.14266 0.1066 0.56977 0.0
S1412 S 0.25295 0.17615 0.45794 0.0
N1413 N 0.22508 0.18674 0.45291 0.0
N1414 N 0.23971 0.14784 0.49683 0.0
C1415 C 0.2113 0.146 0.50781 0.0
C1416 C 0.20346 0.16734 0.48414 0.0
C1417 C 0.84898 0.02799 0.55827 0.0
C1418 C 0.86166 0.05954 0.54111 0.0
C1419 C 0.8301 1.00081 0.53191 0.0
C1420 C 0.82232 1.00412 0.4879 0.0
H1421 H 0.8567 0.02419 0.59052 0.0
H1422 H 0.82471 0.97732 0.54429 0.0
S1423 S 0.84169 0.08072 0.43145 0.0
N1424 N 0.85993 0.09223 0.48034 0.0
N1425 N 0.82254 0.04082 0.43163 0.0
C1426 C 0.83012 0.03517 0.47308 0.0
C1427 C 0.85031 0.06308 0.49952 0.0
C1428 C 0.8726 0.37306 0.31103 0.0
C1429 C 0.84338 0.34392 0.31739 0.0
C1430 C 0.88031 0.40064 0.33726 0.0
C1431 C 0.85857 0.40005 0.36968 0.0
H1432 H 0.88825 0.37535 0.28338 0.0
H1433 H 0.90222 0.42301 0.32994 0.0
S1434 S 0.78052 0.32773 0.40164 0.0
N1435 N 0.79496 0.31481 0.36167 0.0
N1436 N 0.80757 0.36615 0.40816 0.0
C1437 C 0.83028 0.37014 0.37769 0.0
C1438 C 0.82326 0.34219 0.35241 0.0
C1439 C 0.62208 0.48698 0.33421 0.0
C1440 C 0.62328 0.46993 0.37194 0.0
C1441 C 0.65016 0.50666 0.3086 0.0
C1442 C 0.68026 0.50974 0.31973 0.0
H1443 H 0.59908 0.48322 0.32246 0.0
H1444 H 0.64762 0.51685 0.27761 0.0
S1445 S 0.69757 0.47526 0.41935 0.0
N1446 N 0.65857 0.462 0.4224 0.0
N1447 N 0.71018 0.49786 0.3741 0.0
C1448 C 0.68216 0.49545 0.35955 0.0
C1449 C 0.65401 0.4758 0.38557 0.0
C1450 C 0.53869 0.1826 0.39216 0.0
C1451 C 0.54486 0.15722 0.38264 0.0
C1452 C 0.51953 0.18952 0.36414 0.0
C1453 C 0.50508 0.17104 0.32578 0.0
H1454 H 0.55058 0.19883 0.41987 0.0
H1455 H 0.51822 0.21118 0.37054 0.0
S1456 S 0.50848 0.09855 0.28973 0.0
N1457 N 0.53127 0.11095 0.33492 0.0
N1458 N 0.49438 0.12357 0.28291 0.0
C1459 C 0.50778 0.14335 0.31863 0.0
C1460 C 0.5279 0.13654 0.34686 0.0
C1461 C 0.68602 0.49428 0.80089 0.0
C1462 C 0.68611 0.51229 0.83799 0.0
C1463 C 0.71441 0.5022 0.77757 0.0
C1464 C 0.74453 0.52855 0.79012 0.0
H1465 H 0.66414 0.47234 0.79182 0.0
H1466 H 0.7128 0.4862 0.75088 0.0
S1467 S 0.75751 0.58522 0.8829 0.0
N1468 N 0.7184 0.55916 0.88456 0.0
N1469 N 0.77199 0.5743 0.84031 0.0
C1470 C 0.74463 0.54837 0.82504 0.0
C1471 C 0.7154 0.54022 0.84899 0.0
C1472 C 0.51047 0.20575 0.76846 0.0
C1473 C 0.48581 0.21214 0.78143 0.0
C1474 C 0.51756 0.18528 0.79328 0.0
C1475 C 0.50022 0.16998 0.83213 0.0
H1476 H 0.52618 0.21851 0.74066 0.0
H1477 H 0.53881 0.18389 0.78436 0.0
S1478 S 0.42976 0.17375 0.87656 0.0
N1479 N 0.44116 0.19783 0.83252 0.0
N1480 N 0.45432 0.15883 0.87906 0.0
C1481 C 0.47304 0.17291 0.84257 0.0
C1482 C 0.46593 0.19421 0.81736 0.0
C1483 C 0.84579 0.33982 0.79513 0.0
C1484 C 0.85553 0.3382 0.83864 0.0
C1485 C 0.82592 0.3117 0.77103 0.0
C1486 C 0.81408 0.28076 0.78989 0.0
H1487 H 0.85101 0.36287 0.78122 0.0
H1488 H 0.81751 0.31445 0.73885 0.0
S1489 S 0.83705 0.26355 0.90013 0.0
N1490 N 0.85651 0.30339 0.89704 0.0
N1491 N 0.81742 0.25033 0.85244 0.0
C1492 C 0.82668 0.27875 0.83128 0.0
C1493 C 0.84792 0.30761 0.85544 0.0
C1494 C 0.47405 0.30843 0.34286 0.0
C1495 C 0.49826 0.33991 0.3312 0.0
C1496 C 0.46813 0.28163 0.31626 0.0
C1497 C 0.48572 0.28577 0.27669 0.0
H1498 H 0.46242 0.30404 0.37522 0.0
H1499 H 0.45195 0.25759 0.32883 0.0
S1500 S 0.54253 0.36433 0.22396 0.0
N1501 N 0.53389 0.37425 0.27284 0.0
N1502 N 0.52157 0.32456 0.22162 0.0
C1503 C 0.50594 0.31759 0.26147 0.0
C1504 C 0.51238 0.34456 0.28892 0.0
C1505 C 0.69945 0.20278 0.27425 0.0
C1506 C 0.73136 0.21102 0.28523 0.0
C1507 C 0.67374 0.18543 0.30381 0.0
C1508 C 0.67859 0.1748 0.34515 0.0
H1509 H 0.69451 0.21175 0.24378 0.0
H1510 H 0.6503 0.1823 0.2956 0.0
S1511 S 0.75607 0.18602 0.38816 0.0
N1512 N 0.76552 0.20432 0.3391 0.0
N1513 N 0.71679 0.17083 0.39413 0.0
C1514 C 0.70959 0.18004 0.35491 0.0
C1515 C 0.73607 0.19826 0.32502 0.0
C1516 C 0.85069 0.55185 0.35106 0.0
C1517 C 0.86212 0.5307 0.33941 0.0
C1518 C 0.83086 0.55738 0.3219 0.0
C1519 C 0.8222 0.54212 0.28002 0.0
H1520 H 0.85419 0.56144 0.38463 0.0
H1521 H 0.81966 0.5708 0.3341 0.0
S1522 S 0.85323 0.49181 0.22951 0.0
N1523 N 0.86838 0.49958 0.28047 0.0
N1524 N 0.83265 0.51097 0.22486 0.0
C1525 C 0.83763 0.52503 0.26572 0.0
C1526 C 0.85733 0.51913 0.29558 0.0
C1527 C 0.64855 0.17022 0.89345 0.0
C1528 C 0.61751 0.14914 0.87645 0.0
C1529 C 0.67642 0.17608 0.87038 0.0
C1530 C 0.67457 0.1611 0.82927 0.0
H1531 H 0.6515 0.18443 0.92308 0.0
H1532 H 0.69945 0.19531 0.88219 0.0
S1533 S 0.59972 0.09875 0.77482 0.0
N1534 N 0.58683 0.10925 0.8196 0.0
N1535 N 0.63951 0.11996 0.77645 0.0
C1536 C 0.644 0.13654 0.81515 0.0
C1537 C 0.61533 0.13079 0.8385 0.0
C1538 C 0.86522 0.49563 0.89349 0.0
C1539 C 0.88487 0.48349 0.87745 0.0
C1540 C 0.85924 0.51652 0.86784 0.0
C1541 C 0.87319 0.52662 0.82552 0.0
H1542 H 0.85153 0.48626 0.92397 0.0
H1543 H 0.84054 0.52151 0.87879 0.0
S1544 S 0.93359 0.50961 0.77377 0.0
N1545 N 0.9233 0.4884 0.82056 0.0
N1546 N 0.9132 0.52916 0.7731 0.0
C1547 C 0.89714 0.51928 0.81258 0.0
C1548 C 0.90269 0.49721 0.83832 0.0
C1549 C 0.53367 0.36889 0.8888 0.0
C1550 C 0.54385 0.40089 0.87531 0.0
C1551 C 0.51188 0.34231 0.86338 0.0
C1552 C 0.49903 0.34639 0.82345 0.0
H1553 H 0.54449 0.36423 0.91747 0.0
H1554 H 0.50789 0.31862 0.87244 0.0
S1555 S 0.51195 0.42415 0.77812 0.0
N1556 N 0.53509 0.43461 0.82297 0.0
N1557 N 0.49346 0.38431 0.77564 0.0
C1558 C 0.50545 0.37776 0.81275 0.0
C1559 C 0.52813 0.40512 0.83845 0.0
C1560 C 0.49226 0.66869 0.69483 0.0
C1561 C 0.50931 0.67055 0.65569 0.0
C1562 C 0.49958 0.69632 0.71965 0.0
C1563 C 0.52422 0.72726 0.70645 0.0
H1564 H 0.47125 0.64607 0.7043 0.0
H1565 H 0.48423 0.69345 0.74792 0.0
S1566 S 0.57931 0.74455 0.61011 0.0
N1567 N 0.55473 0.7051 0.60791 0.0
N1568 N 0.56835 0.75736 0.65451 0.0
C1569 C 0.54369 0.72906 0.67001 0.0
C1570 C 0.53637 0.7006 0.6448 0.0
C1571 C 0.33721 0.84403 0.69884 0.0
C1572 C 0.33305 0.85337 0.65619 0.0
C1573 C 0.31063 0.82409 0.72569 0.0
C1574 C 0.27871 0.812 0.71065 0.0
H1575 H 0.36093 0.8492 0.70957 0.0
H1576 H 0.31526 0.81549 0.7566 0.0
S1577 S 0.25522 0.83524 0.60533 0.0
N1578 N 0.29505 0.85452 0.60358 0.0
N1579 N 0.24481 0.81545 0.65329 0.0
C1580 C 0.27432 0.82453 0.67056 0.0
C1581 C 0.30164 0.84566 0.64353 0.0
C1582 C 0.18552 0.47676 0.63354 0.0
C1583 C 0.17676 0.49921 0.64914 0.0
C1584 C 0.20419 0.46784 0.66002 0.0
C1585 C 0.21393 0.48057 0.70322 0.0
H1586 H 0.18086 0.46872 0.59911 0.0
H1587 H 0.21325 0.45321 0.64525 0.0
S1588 S 0.18816 0.5318 0.76378 0.0
N1589 N 0.17367 0.52871 0.71289 0.0
N1590 N 0.20662 0.51044 0.76349 0.0
C1591 C 0.20139 0.49942 0.72086 0.0
C1592 C 0.18326 0.5091 0.69365 0.0
C1593 C 0.36979 0.85027 0.10466 0.0
C1594 C 0.40164 0.87156 0.11867 0.0
C1595 C 0.3433 0.84327 0.13186 0.0
C1596 C 0.34755 0.85751 0.17403 0.0
H1597 H 0.36528 0.83656 0.07421 0.0
H1598 H 0.31977 0.82382 0.12203 0.0
S1599 S 0.42486 0.92056 0.22209 0.0
N1600 N 0.43533 0.91095 0.1743 0.0
N1601 N 0.38515 0.8985 0.22503 0.0
C1602 C 0.37868 0.88222 0.18573 0.0
C1603 C 0.4059 0.8891 0.15815 0.0
C1604 C 0.18727 0.52948 0.1028 0.0
C1605 C 0.16304 0.5366 0.11546 0.0
C1606 C 0.1951 0.51033 0.12947 0.0
C1607 C 0.17874 0.49688 0.16968 0.0
H1608 H 0.20194 0.54058 0.07344 0.0
H1609 H 0.21585 0.50814 0.12028 0.0
S1610 S 0.10999 0.50347 0.21479 0.0
N1611 N 0.12012 0.52523 0.16852 0.0
N1612 N 0.13445 0.48848 0.21821 0.0
C1613 C 0.15204 0.50058 0.18026 0.0
C1614 C 0.14433 0.52069 0.15333 0.0
C1615 C 0.50437 0.64933 0.16861 0.0
C1616 C 0.49623 0.67391 0.17158 0.0
C1617 C 0.48524 0.62075 0.14374 0.0
C1618 C 0.45696 0.61549 0.12168 0.0
H1619 H 0.52448 0.6513 0.18765 0.0
H1620 H 0.4919 0.60217 0.14339 0.0
S1621 S 0.42625 0.67355 0.11758 0.0
N1622 N 0.45962 0.69215 0.14699 0.0
N1623 N 0.42306 0.6388 0.10349 0.0
C1624 C 0.44962 0.64077 0.12309 0.0
C1625 C 0.46943 0.66984 0.14699 0.0
C1626 C 0.13971 0.60943 0.66266 0.0
C1627 C 0.15173 0.61435 0.61868 0.0
C1628 C 0.14567 0.63585 0.69025 0.0
C1629 C 0.16439 0.66795 0.67503 0.0
H1630 H 0.12817 0.58545 0.67707 0.0
H1631 H 0.13868 0.63124 0.7251 0.0
S1632 S 0.19238 0.69296 0.55925 0.0
N1633 N 0.176 0.65332 0.5585 0.0
N1634 N 0.18869 0.70256 0.61103 0.0
C1635 C 0.17286 0.67274 0.62985 0.0
C1636 C 0.16628 0.64603 0.60158 0.0
C1637 C 0.34057 0.49809 0.62248 0.0
C1638 C 0.34527 0.4882 0.66446 0.0
C1639 C 0.3668 0.51785 0.59503 0.0
C1640 C 0.39887 0.52941 0.60915 0.0
H1641 H 0.31683 0.49355 0.61295 0.0
H1642 H 0.36194 0.52697 0.56466 0.0
S1643 S 0.42324 0.50343 0.71127 0.0
N1644 N 0.38348 0.48496 0.71439 0.0
N1645 N 0.43323 0.52404 0.66398 0.0
C1646 C 0.4036 0.51594 0.64809 0.0
C1647 C 0.37658 0.49482 0.67549 0.0
C1648 C 0.4945 0.83156 0.63216 0.0
C1649 C 0.50898 0.84783 0.67182 0.0
C1650 C 0.47461 0.83945 0.60754 0.0
C1651 C 0.46793 0.86372 0.62174 0.0
H1652 H 0.49618 0.81062 0.62221 0.0
H1653 H 0.46249 0.8246 0.57885 0.0
S1654 S 0.50346 0.91622 0.72074 0.0
N1655 N 0.51856 0.89176 0.72185 0.0
N1656 N 0.48055 0.90639 0.6757 0.0
C1657 C 0.48478 0.88231 0.65905 0.0
C1658 C 0.50548 0.8744 0.68405 0.0
C1659 C 0.28018 0.45231 0.16895 0.0
C1660 C 0.28744 0.46667 0.21146 0.0
C1661 C 0.30492 0.4592 0.13787 0.0
C1662 C 0.33753 0.48067 0.14829 0.0
H1663 H 0.25538 0.43882 0.15784 0.0
H1664 H 0.29822 0.45051 0.104 0.0
S1665 S 0.36936 0.51775 0.25852 0.0
N1666 N 0.32985 0.49759 0.2653 0.0
N1667 N 0.37588 0.51121 0.20635 0.0
C1668 C 0.34516 0.49126 0.19249 0.0
C1669 C 0.32015 0.4841 0.22422 0.0
C1670 C 0.54748 0.82096 0.16699 0.0
C1671 C 0.53352 0.81295 0.20988 0.0
C1672 C 0.54114 0.84034 0.13792 0.0
C1673 C 0.52052 0.8521 0.15074 0.0
H1674 H 0.5609 0.80989 0.15431 0.0
H1675 H 0.54974 0.84334 0.1038 0.0
S1676 S 0.48491 0.84504 0.26266 0.0
N1677 N 0.50373 0.82411 0.2664 0.0
N1678 N 0.49109 0.85926 0.2112 0.0
C1679 C 0.50981 0.84755 0.19503 0.0
C1680 C 0.51643 0.82823 0.22471 0.0
C1681 C 0.21832 0.69822 0.21552 0.0
C1682 C 0.22012 0.72796 0.20553 0.0
C1683 C 0.19937 0.67046 0.19032 0.0
C1684 C 0.18116 0.67097 0.15405 0.0
H1685 H 0.2331 0.69662 0.24155 0.0
H1686 H 0.20092 0.649 0.1972 0.0
S1687 S 0.17453 0.74128 0.11616 0.0
N1688 N 0.19957 0.75528 0.15897 0.0
N1689 N 0.16387 0.70277 0.11125 0.0
C1690 C 0.18044 0.69962 0.14579 0.0
C1691 C 0.19997 0.7282 0.17158 0.0
C1692 C 0.15094 0.17673 0.25297 0.0
C1693 C 0.16696 0.1754 0.29158 0.0
C1694 C 0.16005 0.1718 0.21015 0.0
C1695 C 0.1842 0.16349 0.20441 0.0
H1696 H 0.13322 0.18448 0.2555 0.0
H1697 H 0.14967 0.17683 0.18162 0.0
S1698 S 0.23264 0.15574 0.29507 0.0
N1699 N 0.2085 0.16578 0.32127 0.0
N1700 N 0.22319 0.15315 0.2416 0.0
C1701 C 0.19908 0.16034 0.24313 0.0
C1702 C 0.19097 0.16696 0.28645 0.0
C1703 C 0.86029 0.01892 0.28421 0.0
C1704 C 0.83473 0.987 0.2889 0.0
C1705 C 0.86602 0.03566 0.24323 0.0
C1706 C 0.84596 0.02139 0.20581 0.0
H1707 H 0.87478 0.03173 0.31273 0.0
H1708 H 0.88541 0.06049 0.24141 0.0
S1709 S 0.77544 0.9389 0.20068 0.0
N1710 N 0.78983 0.94171 0.25156 0.0
N1711 N 0.79924 0.974 0.17654 0.0
C1712 C 0.82052 0.98966 0.21002 0.0
C1713 C 0.81544 0.97225 0.25086 0.0
C1714 C 0.97264 0.83006 0.24734 0.0
C1715 C 0.98867 0.84338 0.20659 0.0
C1716 C 0.98973 0.83414 0.28744 0.0
C1717 C 0.02354 0.85283 0.28888 0.0
H1718 H 0.94676 0.81405 0.24753 0.0
H1719 H 0.97646 0.82168 0.3172 0.0
S1720 S 0.0773 0.89222 0.19196 0.0
N1721 N 0.04066 0.87487 0.17058 0.0
N1722 N 0.07247 0.88456 0.24608 0.0
C1723 C 0.0398 0.86734 0.24892 0.0
C1724 C 0.02248 0.86226 0.20785 0.0
C1725 C 0.86814 0.83876 0.74491 0.0
C1726 C 0.84762 0.83177 0.70784 0.0
C1727 C 0.86158 0.84891 0.78591 0.0
C1728 C 0.83472 0.8532 0.791 0.0
H1729 H 0.88839 0.8346 0.74293 0.0
H1730 H 0.8764 0.85116 0.81412 0.0
S1731 S 0.77496 0.84023 0.7027 0.0
N1732 N 0.79993 0.83045 0.67839 0.0
N1733 N 0.78886 0.85174 0.75383 0.0
C1734 C 0.81531 0.84815 0.75301 0.0
C1735 C 0.82127 0.83668 0.71202 0.0
C1736 C 0.17046 0.0104 0.72732 0.0
C1737 C 0.19946 0.01797 0.70565 0.0
C1738 C 0.16118 0.99293 0.76775 0.0
C1739 C 0.18264 0.987 0.79246 0.0
H1740 H 0.15492 0.01827 0.71353 0.0
H1741 H 0.13694 0.98389 0.77938 0.0
S1742 S 0.26393 1.00504 0.75392 0.0
N1743 N 0.24992 0.01728 0.71266 0.0
N1744 N 0.23547 0.99126 0.79237 0.0
C1745 C 0.21272 0.99614 0.77249 0.0
C1746 C 0.22065 0.01052 0.72898 0.0
C1747 C 0.97298 0.1486 0.73783 0.0
C1748 C 0.98907 0.15074 0.69727 0.0
C1749 C 0.98986 0.16052 0.77829 0.0
C1750 C 0.02342 0.17365 0.78042 0.0
H1751 H 0.94733 0.14009 0.7376 0.0
H1752 H 0.97667 0.16033 0.80783 0.0
S1753 S 0.07744 0.18605 0.68451 0.0
N1754 N 0.04109 0.16921 0.66227 0.0
N1755 N 0.07228 0.18834 0.73868 0.0
C1756 C 0.0397 0.17474 0.74074 0.0
C1757 C 0.02269 0.16397 0.69918 0.0
C1758 C 0.85808 0.50247 0.61652 0.0
C1759 C 0.85059 0.52706 0.62353 0.0
C1760 C 0.86232 0.49353 0.57333 0.0
C1761 C 0.86232 0.51095 0.53554 0.0
H1762 H 0.86306 0.49154 0.64432 0.0
H1763 H 0.86853 0.4747 0.5699 0.0
S1764 S 0.85107 0.5823 0.53614 0.0
N1765 N 0.84543 0.57014 0.58867 0.0
N1766 N 0.85932 0.55727 0.5087 0.0
C1767 C 0.85713 0.5371 0.54217 0.0
C1768 C 0.8501 0.54437 0.58575 0.0
C1769 C 0.50143 0.31432 0.58536 0.0
C1770 C 0.50235 0.33193 0.62363 0.0
C1771 C 0.50743 0.32827 0.54238 0.0
C1772 C 0.51632 0.36085 0.53612 0.0
H1773 H 0.49326 0.28878 0.58819 0.0
H1774 H 0.5028 0.31271 0.51404 0.0
S1775 S 0.52277 0.4176 0.62559 0.0
N1776 N 0.5118 0.38339 0.65223 0.0
N1777 N 0.52639 0.41048 0.57248 0.0
C1778 C 0.51876 0.37904 0.57451 0.0
C1779 C 0.51113 0.36445 0.61792 0.0
C1780 C 0.6935 0.18535 0.54898 0.0
C1781 C 0.65976 0.169 0.54514 0.0
C1782 C 0.70867 0.19537 0.59093 0.0
C1783 C 0.69071 0.18774 0.63099 0.0
H1784 H 0.70825 0.18939 0.51959 0.0
H1785 H 0.7347 0.20674 0.5923 0.0
S1786 S 0.60147 0.14155 0.6389 0.0
N1787 N 0.6088 0.14527 0.58467 0.0
N1788 N 0.6371 0.15995 0.66335 0.0
C1789 C 0.65693 0.17085 0.62735 0.0
C1790 C 0.64154 0.16239 0.58454 0.0
C1791 C 0.51307 0.19359 0.04294 0.0
C1792 C 0.52045 0.16882 0.03655 0.0
C1793 C 0.50661 0.20114 0.0859 0.0
C1794 C 0.50589 0.18322 0.12366 0.0
H1795 H 0.50986 0.2056 0.01462 0.0
H1796 H 0.49929 0.21917 0.08898 0.0
S1797 S 0.52467 0.11688 0.12526 0.0
N1798 N 0.52896 0.12808 0.07234 0.0
N1799 N 0.51421 0.14049 0.15209 0.0
C1800 C 0.51428 0.15924 0.11796 0.0
C1801 C 0.52212 0.15244 0.07465 0.0
C1802 C 0.85891 0.37276 0.07329 0.0
C1803 C 0.84409 0.35577 0.03373 0.0
C1804 C 0.85435 0.3568 0.11444 0.0
C1805 C 0.83337 0.32342 0.11827 0.0
H1806 H 0.87644 0.3983 0.07169 0.0
H1807 H 0.86793 0.37056 0.14322 0.0
S1808 S 0.78954 0.26732 0.02542 0.0
N1809 N 0.80915 0.30313 0.00134 0.0
N1810 N 0.79795 0.27367 0.07922 0.0
C1811 C 0.81742 0.30625 0.07957 0.0
C1812 C 0.82322 0.3223 0.03728 0.0
C1813 C 0.69831 0.51807 0.03805 0.0
C1814 C 0.66477 0.49807 0.03436 0.0
C1815 C 0.71425 0.52176 0.07904 0.0
C1816 C 0.69723 0.5068 0.11862 0.0
H1817 H 0.71222 0.53174 0.00935 0.0
H1818 H 0.7399 0.53875 0.08056 0.0
S1819 S 0.60862 0.45406 0.12737 0.0
N1820 N 0.61493 0.46331 0.07375 0.0
N1821 N 0.64451 0.47233 0.15109 0.0
C1822 C 0.66368 0.48663 0.11514 0.0
C1823 C 0.64756 0.48194 0.07307 0.0
C1824 C 0.50011 0.82089 0.94463 0.0
C1825 C 0.49389 0.84658 0.94958 0.0
C1826 C 0.51047 0.81471 0.90347 0.0
C1827 C 0.51592 0.83458 0.86597 0.0
H1828 H 0.49938 0.80686 0.97306 0.0
H1829 H 0.51612 0.79541 0.90175 0.0
S1830 S 0.50309 0.90474 0.86059 0.0
N1831 N 0.49259 0.89101 0.91207 0.0
N1832 N 0.51418 0.88078 0.83623 0.0
C1833 C 0.50932 0.85991 0.87009 0.0
C1834 C 0.49764 0.86543 0.91134 0.0
C1835 C 0.19392 0.70168 0.91137 0.0
C1836 C 0.19193 0.68516 0.87129 0.0
C1837 C 0.18309 0.68533 0.95248 0.0
C1838 C 0.17136 0.65198 0.95576 0.0
H1839 H 0.20146 0.72715 0.91032 0.0
H1840 H 0.18311 0.69875 0.98166 0.0
S1841 S 0.15966 0.59689 0.86157 0.0
N1842 N 0.17482 0.63281 0.83803 0.0
N1843 N 0.15795 0.6028 0.91563 0.0
C1844 C 0.17034 0.63531 0.91654 0.0
C1845 C 0.17992 0.6517 0.87433 0.0
C1846 C 0.36951 0.52489 0.91895 0.0
C1847 C 0.35648 0.50311 0.95479 0.0
C1848 C 0.35473 0.51737 0.87671 0.0
C1849 C 0.32539 0.48875 0.86933 0.0
H1850 H 0.3926 0.54676 0.92261 0.0
H1851 H 0.36787 0.53299 0.84958 0.0
S1852 S 0.28002 0.4251 0.95419 0.0
N1853 N 0.31264 0.45197 0.9808 0.0
N1854 N 0.28279 0.43957 0.9033 0.0
C1855 C 0.31122 0.4678 0.90612 0.0
C1856 C 0.3272 0.47456 0.9483 0.0
C1857 C 0.18775 0.49651 0.45208 0.0
C1858 C 0.17525 0.51756 0.45435 0.0
C1859 C 0.19962 0.49124 0.41164 0.0
C1860 C 0.19815 0.50559 0.37113 0.0
H1861 H 0.18749 0.48325 0.48156 0.0
H1862 H 0.20758 0.47362 0.41138 0.0
S1863 S 0.16449 0.56021 0.3584 0.0
N1864 N 0.16143 0.55235 0.41249 0.0
N1865 N 0.18117 0.54038 0.3362 0.0
C1866 C 0.18559 0.52663 0.37309 0.0
C1867 C 0.17459 0.53294 0.41462 0.0
C1868 C 0.48736 0.6421 0.41454 0.0
C1869 C 0.49034 0.65872 0.45486 0.0
C1870 C 0.49913 0.65855 0.37363 0.0
C1871 C 0.51315 0.69226 0.37081 0.0
H1872 H 0.47816 0.61629 0.41521 0.0
H1873 H 0.49799 0.64483 0.34419 0.0
S1874 S 0.5285 0.74758 0.46621 0.0
N1875 N 0.51047 0.71129 0.48906 0.0
N1876 N 0.53023 0.74187 0.41206 0.0
C1877 C 0.51548 0.70915 0.41045 0.0
C1878 C 0.50451 0.69249 0.45237 0.0
C1879 C 0.32734 0.82691 0.44834 0.0
C1880 C 0.35842 0.85337 0.45467 0.0
C1881 C 0.31353 0.81815 0.40565 0.0
C1882 C 0.3294 0.83699 0.36804 0.0
H1883 H 0.31232 0.81444 0.47634 0.0
H1884 H 0.28902 0.79829 0.40273 0.0
S1885 S 0.41028 0.91009 0.36632 0.0
N1886 N 0.40496 0.89796 0.41888 0.0
N1887 N 0.37714 0.88414 0.33978 0.0
C1888 C 0.36026 0.86374 0.37368 0.0
C1889 C 0.37514 0.87138 0.41667 0.0
C1890 C 0.34209 0.18998 0.12531 0.0
C1891 C 0.31335 0.17076 0.14916 0.0
C1892 C 0.3717 0.19376 0.1398 0.0
C1893 C 0.37393 0.17851 0.17882 0.0
H1894 H 0.34178 0.20214 0.09496 0.0
H1895 H 0.39303 0.20875 0.12006 0.0
S1896 S 0.30594 0.1263 0.25437 0.0
N1897 N 0.28919 0.13678 0.21451 0.0
N1898 N 0.34461 0.14385 0.2416 0.0
C1899 C 0.34539 0.15938 0.20321 0.0
C1900 C 0.31523 0.15553 0.18844 0.0
C1901 C 0.82577 0.18367 0.14288 0.0
C1902 C 0.84077 0.20133 0.18185 0.0
C1903 C 0.83182 0.15963 0.12673 0.0
C1904 C 0.85315 0.15206 0.14878 0.0
H1905 H 0.80912 0.18841 0.12445 0.0
H1906 H 0.81941 0.14671 0.09679 0.0
S1907 S 0.89892 0.1912 0.25217 0.0
N1908 N 0.87817 0.20961 0.24202 0.0
N1909 N 0.88952 0.16443 0.2118 0.0
C1910 C 0.8685 0.16962 0.18771 0.0
C1911 C 0.86231 0.19419 0.2042 0.0
C1912 C 0.82328 0.67079 0.19464 0.0
C1913 C 0.81786 0.6427 0.17191 0.0
C1914 C 0.84833 0.70153 0.18214 0.0
C1915 C 0.8692 0.70572 0.14624 0.0
H1916 H 0.80809 0.66912 0.22257 0.0
H1917 H 0.85124 0.72222 0.20087 0.0
S1918 S 0.86545 0.64009 0.07531 0.0
N1919 N 0.83565 0.62122 0.11139 0.0
N1920 N 0.88254 0.67881 0.08794 0.0
C1921 C 0.86408 0.67785 0.12312 0.0
C1922 C 0.83853 0.64647 0.1359 0.0
C1923 C 0.16082 0.33958 0.30351 0.0
C1924 C 0.18251 0.36805 0.32625 0.0
C1925 C 0.15525 0.30911 0.31748 0.0
C1926 C 0.17101 0.30561 0.35496 0.0
H1927 H 0.14818 0.34076 0.27426 0.0
H1928 H 0.13848 0.28812 0.29844 0.0
S1929 S 0.22953 0.37238 0.4272 0.0
N1930 N 0.21944 0.39057 0.38893 0.0
N1931 N 0.20893 0.33352 0.41516 0.0
C1932 C 0.19249 0.33384 0.3784 0.0
C1933 C 0.19824 0.36492 0.36408 0.0
C1934 C 0.64762 0.83044 0.342 0.0
C1935 C 0.64493 0.81255 0.30322 0.0
C1936 C 0.67739 0.85537 0.35673 0.0
C1937 C 0.70607 0.8637 0.33354 0.0
H1938 H 0.62648 0.8252 0.36154 0.0
H1939 H 0.6778 0.8681 0.38691 0.0
S1940 S 0.71262 0.82508 0.22933 0.0
N1941 N 0.67372 0.8053 0.2413 0.0
N1942 N 0.72995 0.85235 0.26912 0.0
C1943 C 0.70394 0.8462 0.2945 0.0
C1944 C 0.67336 0.82063 0.27935 0.0
C1945 C 0.1877 0.84683 0.29071 0.0
C1946 C 0.19652 0.82697 0.3143 0.0
C1947 C 0.16233 0.85131 0.30525 0.0
C1948 C 0.1445 0.83613 0.34408 0.0
H1949 H 0.20068 0.85937 0.26082 0.0
H1950 H 0.15688 0.86711 0.28585 0.0
S1951 S 0.15724 0.78103 0.41772 0.0
N1952 N 0.18489 0.79143 0.37832 0.0
N1953 N 0.1372 0.79987 0.40559 0.0
C1954 C 0.1527 0.81581 0.36778 0.0
C1955 C 0.17866 0.81124 0.35293 0.0
C1956 C 0.67553 0.82317 0.85719 0.0
C1957 C 0.70452 0.84353 0.83459 0.0
C1958 C 0.6459 0.81855 0.84176 0.0
C1959 C 0.64383 0.83403 0.80294 0.0
H1960 H 0.67564 0.81088 0.88752 0.0
H1961 H 0.62446 0.80288 0.86087 0.0
S1962 S 0.71244 0.8886 0.72993 0.0
N1963 N 0.72918 0.87848 0.77027 0.0
N1964 N 0.67347 0.8698 0.74124 0.0
C1965 C 0.67256 0.85405 0.77945 0.0
C1966 C 0.70286 0.85879 0.79526 0.0
C1967 C 0.15248 0.81272 0.80812 0.0
C1968 C 0.17277 0.80422 0.83134 0.0
C1969 C 0.14697 0.83744 0.8235 0.0
C1970 C 0.16131 0.85468 0.863 0.0
H1971 H 0.14119 0.80063 0.7772 0.0
H1972 H 0.1317 0.84337 0.80376 0.0
S1973 S 0.21498 0.84063 0.93789 0.0
N1974 N 0.20622 0.81432 0.89707 0.0
N1975 N 0.19579 0.86037 0.92603 0.0
C1976 C 0.18098 0.84583 0.88722 0.0
C1977 C 0.18672 0.82077 0.8714 0.0
C1978 C 0.19124 0.33782 0.78775 0.0
C1979 C 0.20079 0.36638 0.81207 0.0
C1980 C 0.16563 0.30809 0.80213 0.0
C1981 C 0.14834 0.30547 0.84155 0.0
H1982 H 0.20362 0.33831 0.75717 0.0
H1983 H 0.15941 0.28695 0.78196 0.0
S1984 S 0.16391 0.3729 0.91812 0.0
N1985 N 0.19101 0.39008 0.87807 0.0
N1986 N 0.14289 0.33423 0.90502 0.0
C1987 C 0.15759 0.33382 0.86633 0.0
C1988 C 0.18376 0.36421 0.85164 0.0
C1989 C 0.86894 0.70597 0.68801 0.0
C1990 C 0.85488 0.70773 0.64759 0.0
C1991 C 0.86463 0.67651 0.70417 0.0
C1992 C 0.84606 0.6475 0.68066 0.0
H1993 H 0.88324 0.72751 0.70769 0.0
H1994 H 0.87593 0.67656 0.7355 0.0
S1995 S 0.80497 0.63891 0.57217 0.0
N1996 N 0.82218 0.67779 0.5838 0.0
N1997 N 0.81411 0.62254 0.61406 0.0
C1998 C 0.83208 0.6489 0.63995 0.0
C1999 C 0.83649 0.67894 0.62346 0.0
C2000 C 0.31557 0.16663 0.68086 0.0
C2001 C 0.3142 0.14989 0.64139 0.0
C2002 C 0.34467 0.19284 0.69598 0.0
C2003 C 0.37371 0.20343 0.67235 0.0
H2004 H 0.29401 0.1593 0.70059 0.0
H2005 H 0.3444 0.20468 0.72672 0.0
S2006 S 0.38321 0.16865 0.56611 0.0
N2007 N 0.34455 0.14647 0.57835 0.0
N2008 N 0.39902 0.19548 0.60664 0.0
C2009 C 0.37263 0.18716 0.63251 0.0
C2010 C 0.34299 0.16051 0.61708 0.0
C2011 C 0.84692 0.1495 0.68439 0.0
C2012 C 0.86715 0.16694 0.64839 0.0
C2013 C 0.82174 0.15459 0.6987 0.0
C2014 C 0.81554 0.17734 0.6777 0.0
H2015 H 0.85045 0.13162 0.70172 0.0
H2016 H 0.80702 0.14046 0.72658 0.0
S2017 S 0.86131 0.22945 0.58173 0.0
N2018 N 0.87905 0.20808 0.59199 0.0
N2019 N 0.83197 0.21753 0.6188 0.0
C2020 C 0.83559 0.195 0.64168 0.0
C2021 C 0.86126 0.18984 0.6271 0.0
C2022 C 0.04046 0.52439 0.47356 0.0
C2023 C 0.04229 0.50856 0.51216 0.0
C2024 C 0.01089 0.5198 0.45786 0.0
C2025 C 0.98181 0.49924 0.48009 0.0
H2026 H 0.06207 0.54058 0.45513 0.0
H2027 H 0.01097 0.53276 0.42815 0.0
S2028 S 0.97316 0.45179 0.58265 0.0
N2029 N 0.01224 0.47119 0.57216 0.0
N2030 N 0.95669 0.46261 0.54278 0.0
C2031 C 0.9832 0.48305 0.51864 0.0
C2032 C 0.01339 0.4877 0.53462 0.0
C2033 C 0.49239 0.51941 0.46461 0.0
C2034 C 0.50767 0.53779 0.50294 0.0
C2035 C 0.49775 0.49444 0.45007 0.0
C2036 C 0.51855 0.48662 0.47327 0.0
H2037 H 0.47597 0.52419 0.44566 0.0
H2038 H 0.48519 0.48099 0.42053 0.0
S2039 S 0.56459 0.52728 0.57579 0.0
N2040 N 0.54475 0.54634 0.56378 0.0
N2041 N 0.55463 0.49957 0.53666 0.0
C2042 C 0.53416 0.50494 0.51151 0.0
C2043 C 0.52878 0.53043 0.52625 0.0
C2044 C 0.52443 0.01219 0.46319 0.0
C2045 C 0.53381 0.04092 0.48716 0.0
C2046 C 0.49861 0.98238 0.47768 0.0
C2047 C 0.48102 0.97999 0.51675 0.0
H2048 H 0.53705 0.01268 0.43286 0.0
H2049 H 0.49232 0.96107 0.45787 0.0
S2050 S 0.49625 0.04785 0.59243 0.0
N2051 N 0.52354 0.06476 0.55262 0.0
N2052 N 0.47539 0.00917 0.57954 0.0
C2053 C 0.49028 0.00852 0.54114 0.0
C2054 C 0.51653 0.0388 0.52646 0.0
C2055 C 0.49278 0.01109 0.95375 0.0
C2056 C 0.51254 0.03969 0.97765 0.0
C2057 C 0.48868 0.98112 0.96763 0.0
C2058 C 0.5042 0.97845 0.00599 0.0
H2059 H 0.48039 0.0118 0.92392 0.0
H2060 H 0.47325 0.9599 0.94801 0.0
S2061 S 0.55788 0.04588 0.08128 0.0
N2062 N 0.54734 0.06315 0.04226 0.0
N2063 N 0.53974 0.00722 0.06815 0.0
C2064 C 0.52394 0.00686 0.0303 0.0
C2065 C 0.52807 0.03732 0.01622 0.0
C2066 C 0.98507 0.49484 0.02552 0.0
C2067 C 0.98232 0.4741 0.99017 0.0
C2068 C 0.01537 0.51967 0.04004 0.0
C2069 C 0.04417 0.52487 0.01971 0.0
H2070 H 0.96365 0.49216 0.04185 0.0
H2071 H 0.01615 0.5352 0.06697 0.0
S2072 S 0.05045 0.47648 0.92696 0.0
N2073 N 0.0114 0.45998 0.93619 0.0
N2074 N 0.06785 0.50631 0.96319 0.0
C2075 C 0.04174 0.50392 0.98486 0.0
C2076 C 0.011 0.47867 0.9702 0.0
C2077 C 0.52653 0.49616 0.01587 0.0
C2078 C 0.54354 0.51106 0.97637 0.0
C2079 C 0.50137 0.50063 0.03156 0.0
C2080 C 0.49186 0.52016 0.00849 0.0
H2081 H 0.53255 0.48066 0.03498 0.0
H2082 H 0.48905 0.48827 0.0619 0.0
S2083 S 0.52877 0.56521 0.90359 0.0
N2084 N 0.54927 0.54668 0.91478 0.0
N2085 N 0.50194 0.55502 0.94411 0.0
C2086 C 0.50886 0.53557 0.96915 0.0
C2087 C 0.53465 0.53105 0.95317 0.0
loop_
_geom_bond_atom_site_label_1
_geom_bond_atom_site_label_2
_geom_bond_distance
_geom_bond_site_symmetry_2
_ccdc_geom_bond_type
Mn0 O5 2.095 . S
Mn0 O15 2.162 . S
Mn0 O16 2.297 . S
Mn0 O24 2.385 . S
Mn0 O25 2.209 . S
Mn0 O26 2.094 . S
Mn1 O6 2.121 . S
Mn1 N8 2.257 . S
Mn1 N17 2.282 . S
Mn1 O25 2.215 . S
Mn1 O27 2.117 . S
C2 O24 1.234 . S
C2 O25 1.283 . S
C3 O15 1.281 . S
C3 O16 1.236 . S
C4 O26 1.240 . S
C4 O27 1.264 . S
O5 Mn0 2.095 . S
O5 C14 1.250 . S
O6 Mn1 2.121 . S
O6 C14 1.258 . S
C7 N8 1.326 . S
C7 C11 1.460 . S
C7 H13 0.929 . S
N8 Mn1 2.257 . S
N8 C7 1.326 . S
N8 C12 1.362 . S
C9 C10 1.258 . S
C9 C12 1.431 . S
C9 C29 1.449 . S
C10 C9 1.258 . S
C10 C11 1.477 . S
C10 H30 0.931 . S
C11 C7 1.460 . S
C11 C10 1.477 . S
C11 H31 0.930 1_545 S
C12 N8 1.362 . S
C12 C9 1.431 . S
C12 C22 1.476 . S
H13 C7 0.929 . S
C14 O5 1.250 . S
C14 O6 1.258 . S
O15 Mn0 2.162 . S
O15 C3 1.281 . S
O16 Mn0 2.297 . S
O16 C3 1.236 . S
N17 Mn1 2.282 . S
N17 C18 1.328 . S
N17 C22 1.318 . S
C18 N17 1.328 . S
C18 C19 1.457 . S
C18 H23 0.929 . S
C19 C18 1.457 . S
C19 C20 1.291 . S
C19 H32 0.931 . S
C20 C19 1.291 . S
C20 C21 1.373 . S
C20 H33 0.929 . S
C21 C20 1.373 . S
C21 C22 1.396 . S
C21 C28 1.403 . S
C22 C12 1.476 . S
C22 N17 1.318 . S
C22 C21 1.396 . S
H23 C18 0.929 . S
O24 Mn0 2.385 . S
O24 C2 1.234 . S
O25 Mn0 2.209 . S
O25 Mn1 2.215 . S
O25 C2 1.283 . S
O26 Mn0 2.094 . S
O26 C4 1.240 . S
O27 Mn1 2.117 . S
O27 C4 1.264 . S
C28 C21 1.403 . S
C28 C29 1.399 . S
C28 H34 0.929 . S
C29 C9 1.449 . S
C29 C28 1.399 . S
C29 H35 0.930 . S
H30 C10 0.931 . S
H31 C11 0.930 1_565 S
H32 C19 0.931 . S
H33 C20 0.929 . S
H34 C28 0.929 . S
H35 C29 0.930 . S
Mn36 O41 2.095 . S
Mn36 O51 2.162 . S
Mn36 O52 2.297 . S
Mn36 O60 2.385 . S
Mn36 O61 2.209 . S
Mn36 O62 2.094 . S
Mn37 O42 2.121 . S
Mn37 N44 2.257 . S
Mn37 N53 2.282 1_545 S
Mn37 O61 2.215 . S
Mn37 O63 2.117 . S
C38 O60 1.234 . S
C38 O61 1.283 . S
C39 O51 1.281 . S
C39 O52 1.236 . S
C40 O62 1.240 . S
C40 O63 1.264 . S
O41 Mn36 2.095 . S
O41 C50 1.250 . S
O42 Mn37 2.121 . S
O42 C50 1.258 . S
C43 N44 1.326 . S
C43 C47 1.460 . S
C43 H49 0.929 . S
N44 Mn37 2.257 . S
N44 C43 1.326 . S
N44 C48 1.362 . S
C45 C46 1.258 . S
C45 C48 1.431 . S
C45 C65 1.449 1_545 S
C46 C45 1.258 . S
C46 C47 1.477 . S
C46 H66 0.931 . S
C47 C43 1.460 . S
C47 C46 1.477 . S
C47 H67 0.930 1_655 S
C48 N44 1.362 . S
C48 C45 1.431 . S
C48 C58 1.476 1_545 S
H49 C43 0.929 . S
C50 O41 1.250 . S
C50 O42 1.258 . S
O51 Mn36 2.162 . S
O51 C39 1.281 . S
O52 Mn36 2.297 . S
O52 C39 1.236 . S
N53 Mn37 2.282 1_565 S
N53 C54 1.328 . S
N53 C58 1.318 . S
C54 N53 1.328 . S
C54 C55 1.457 . S
C54 H59 0.929 . S
C55 C54 1.457 . S
C55 C56 1.291 . S
C55 H68 0.931 . S
C56 C55 1.291 . S
C56 C57 1.373 . S
C56 H69 0.929 . S
C57 C56 1.373 . S
C57 C58 1.396 . S
C57 C64 1.403 . S
C58 C48 1.476 1_565 S
C58 N53 1.318 . S
C58 C57 1.396 . S
H59 C54 0.929 . S
O60 Mn36 2.385 . S
O60 C38 1.234 . S
O61 Mn36 2.209 . S
O61 Mn37 2.215 . S
O61 C38 1.283 . S
O62 Mn36 2.094 . S
O62 C40 1.240 . S
O63 Mn37 2.117 . S
O63 C40 1.264 . S
C64 C57 1.403 . S
C64 C65 1.399 . S
C64 H70 0.929 . S
C65 C45 1.449 1_565 S
C65 C64 1.399 . S
C65 H71 0.930 . S
H66 C46 0.931 . S
H67 C47 0.930 1_455 S
H68 C55 0.931 . S
H69 C56 0.929 . S
H70 C64 0.929 . S
H71 C65 0.930 . S
Mn72 O77 2.095 . S
Mn72 O87 2.162 . S
Mn72 O88 2.297 . S
Mn72 O96 2.385 . S
Mn72 O97 2.209 . S
Mn72 O98 2.094 . S
Mn73 O78 2.121 . S
Mn73 N80 2.257 . S
Mn73 N89 2.282 1_655 S
Mn73 O97 2.215 . S
Mn73 O99 2.117 . S
C74 O96 1.234 . S
C74 O97 1.283 . S
C75 O87 1.281 . S
C75 O88 1.236 . S
C76 O98 1.240 . S
C76 O99 1.264 . S
O77 Mn72 2.095 . S
O77 C86 1.250 . S
O78 Mn73 2.121 . S
O78 C86 1.258 . S
C79 N80 1.326 . S
C79 C83 1.460 . S
C79 H85 0.929 . S
N80 Mn73 2.257 . S
N80 C79 1.326 . S
N80 C84 1.362 . S
C81 C82 1.258 . S
C81 C84 1.431 . S
C81 C101 1.449 1_655 S
C82 C81 1.258 . S
C82 C83 1.477 . S
C82 H102 0.931 . S
C83 C79 1.460 . S
C83 C82 1.477 . S
C83 H103 0.930 . S
C84 N80 1.362 . S
C84 C81 1.431 . S
C84 C94 1.476 1_655 S
H85 C79 0.929 . S
C86 O77 1.250 . S
C86 O78 1.258 . S
O87 Mn72 2.162 . S
O87 C75 1.281 . S
O88 Mn72 2.297 . S
O88 C75 1.236 . S
N89 Mn73 2.282 1_455 S
N89 C90 1.328 . S
N89 C94 1.318 . S
C90 N89 1.328 . S
C90 C91 1.457 . S
C90 H95 0.929 . S
C91 C90 1.457 . S
C91 C92 1.291 . S
C91 H104 0.931 . S
C92 C91 1.291 . S
C92 C93 1.373 . S
C92 H105 0.929 . S
C93 C92 1.373 . S
C93 C94 1.396 . S
C93 C100 1.403 . S
C94 C84 1.476 1_455 S
C94 N89 1.318 . S
C94 C93 1.396 . S
H95 C90 0.929 . S
O96 Mn72 2.385 . S
O96 C74 1.234 . S
O97 Mn72 2.209 . S
O97 Mn73 2.215 . S
O97 C74 1.283 . S
O98 Mn72 2.094 . S
O98 C76 1.240 . S
O99 Mn73 2.117 . S
O99 C76 1.264 . S
C100 C93 1.403 . S
C100 C101 1.399 . S
C100 H106 0.929 . S
C101 C81 1.449 1_455 S
C101 C100 1.399 . S
C101 H107 0.930 . S
H102 C82 0.931 . S
H103 C83 0.930 . S
H104 C91 0.931 . S
H105 C92 0.929 . S
H106 C100 0.929 . S
H107 C101 0.930 . S
Mn108 O113 2.095 . S
Mn108 O123 2.162 . S
Mn108 O124 2.297 . S
Mn108 O132 2.385 . S
Mn108 O133 2.209 . S
Mn108 O134 2.094 . S
Mn109 O114 2.121 . S
Mn109 N116 2.257 . S
Mn109 N125 2.282 . S
Mn109 O133 2.215 . S
Mn109 O135 2.117 . S
C110 O132 1.234 . S
C110 O133 1.283 . S
C111 O123 1.281 . S
C111 O124 1.236 . S
C112 O134 1.240 . S
C112 O135 1.264 . S
O113 Mn108 2.095 . S
O113 C122 1.250 . S
O114 Mn109 2.121 . S
O114 C122 1.258 . S
C115 N116 1.326 . S
C115 C119 1.460 . S
C115 H121 0.929 . S
N116 Mn109 2.257 . S
N116 C115 1.326 . S
N116 C120 1.362 . S
C117 C118 1.258 . S
C117 C120 1.431 . S
C117 C137 1.449 . S
C118 C117 1.258 . S
C118 C119 1.477 . S
C118 H138 0.931 . S
C119 C115 1.460 . S
C119 C118 1.477 . S
C119 H139 0.930 1_455 S
C120 N116 1.362 . S
C120 C117 1.431 . S
C120 C130 1.476 . S
H121 C115 0.929 . S
C122 O113 1.250 . S
C122 O114 1.258 . S
O123 Mn108 2.162 . S
O123 C111 1.281 . S
O124 Mn108 2.297 . S
O124 C111 1.236 . S
N125 Mn109 2.282 . S
N125 C126 1.328 . S
N125 C130 1.318 . S
C126 N125 1.328 . S
C126 C127 1.457 . S
C126 H131 0.929 . S
C127 C126 1.457 . S
C127 C128 1.291 . S
C127 H140 0.931 . S
C128 C127 1.291 . S
C128 C129 1.373 . S
C128 H141 0.929 . S
C129 C128 1.373 . S
C129 C130 1.396 . S
C129 C136 1.403 . S
C130 C120 1.476 . S
C130 N125 1.318 . S
C130 C129 1.396 . S
H131 C126 0.929 . S
O132 Mn108 2.385 . S
O132 C110 1.234 . S
O133 Mn108 2.209 . S
O133 Mn109 2.215 . S
O133 C110 1.283 . S
O134 Mn108 2.094 . S
O134 C112 1.240 . S
O135 Mn109 2.117 . S
O135 C112 1.264 . S
C136 C129 1.403 . S
C136 C137 1.399 . S
C136 H142 0.929 . S
C137 C117 1.449 . S
C137 C136 1.399 . S
C137 H143 0.930 . S
H138 C118 0.931 . S
H139 C119 0.930 1_655 S
H140 C127 0.931 . S
H141 C128 0.929 . S
H142 C136 0.929 . S
H143 C137 0.930 . S
Mn144 O149 2.095 . S
Mn144 O159 2.162 . S
Mn144 O160 2.297 . S
Mn144 O168 2.385 . S
Mn144 O169 2.209 . S
Mn144 O170 2.094 . S
Mn145 O150 2.121 . S
Mn145 N152 2.257 . S
Mn145 N161 2.282 1_565 S
Mn145 O169 2.215 . S
Mn145 O171 2.117 . S
C146 O168 1.234 . S
C146 O169 1.283 . S
C147 O159 1.281 . S
C147 O160 1.236 . S
C148 O170 1.240 . S
C148 O171 1.264 . S
O149 Mn144 2.095 . S
O149 C158 1.250 . S
O150 Mn145 2.121 . S
O150 C158 1.258 . S
C151 N152 1.326 . S
C151 C155 1.460 . S
C151 H157 0.929 . S
N152 Mn145 2.257 . S
N152 C151 1.326 . S
N152 C156 1.362 . S
C153 C154 1.258 . S
C153 C156 1.431 . S
C153 C173 1.449 1_565 S
C154 C153 1.258 . S
C154 C155 1.477 . S
C154 H174 0.931 . S
C155 C151 1.460 . S
C155 C154 1.477 . S
C155 H175 0.930 . S
C156 N152 1.362 . S
C156 C153 1.431 . S
C156 C166 1.476 1_565 S
H157 C151 0.929 . S
C158 O149 1.250 . S
C158 O150 1.258 . S
O159 Mn144 2.162 . S
O159 C147 1.281 . S
O160 Mn144 2.297 . S
O160 C147 1.236 . S
N161 Mn145 2.282 1_545 S
N161 C162 1.328 . S
N161 C166 1.318 . S
C162 N161 1.328 . S
C162 C163 1.457 . S
C162 H167 0.929 . S
C163 C162 1.457 . S
C163 C164 1.291 . S
C163 H176 0.931 . S
C164 C163 1.291 . S
C164 C165 1.373 . S
C164 H177 0.929 . S
C165 C164 1.373 . S
C165 C166 1.396 . S
C165 C172 1.403 . S
C166 C156 1.476 1_545 S
C166 N161 1.318 . S
C166 C165 1.396 . S
H167 C162 0.929 . S
O168 Mn144 2.385 . S
O168 C146 1.234 . S
O169 Mn144 2.209 . S
O169 Mn145 2.215 . S
O169 C146 1.283 . S
O170 Mn144 2.094 . S
O170 C148 1.240 . S
O171 Mn145 2.117 . S
O171 C148 1.264 . S
C172 C165 1.403 . S
C172 C173 1.399 . S
C172 H178 0.929 . S
C173 C153 1.449 1_545 S
C173 C172 1.399 . S
C173 H179 0.930 . S
H174 C154 0.931 . S
H175 C155 0.930 . S
H176 C163 0.931 . S
H177 C164 0.929 . S
H178 C172 0.929 . S
H179 C173 0.930 . S
Mn180 O185 2.095 . S
Mn180 O195 2.162 . S
Mn180 O196 2.297 . S
Mn180 O204 2.385 . S
Mn180 O205 2.209 . S
Mn180 O206 2.094 . S
Mn181 O186 2.121 . S
Mn181 N188 2.257 . S
Mn181 N197 2.282 1_455 S
Mn181 O205 2.215 . S
Mn181 O207 2.117 . S
C182 O204 1.234 . S
C182 O205 1.283 . S
C183 O195 1.281 . S
C183 O196 1.236 . S
C184 O206 1.240 . S
C184 O207 1.264 . S
O185 Mn180 2.095 . S
O185 C194 1.250 . S
O186 Mn181 2.121 . S
O186 C194 1.258 . S
C187 N188 1.326 . S
C187 C191 1.460 . S
C187 H193 0.929 . S
N188 Mn181 2.257 . S
N188 C187 1.326 . S
N188 C192 1.362 . S
C189 C190 1.258 . S
C189 C192 1.431 . S
C189 C209 1.449 1_455 S
C190 C189 1.258 . S
C190 C191 1.477 . S
C190 H210 0.931 . S
C191 C187 1.460 . S
C191 C190 1.477 . S
C191 H211 0.930 1_565 S
C192 N188 1.362 . S
C192 C189 1.431 . S
C192 C202 1.476 1_455 S
H193 C187 0.929 . S
C194 O185 1.250 . S
C194 O186 1.258 . S
O195 Mn180 2.162 . S
O195 C183 1.281 . S
O196 Mn180 2.297 . S
O196 C183 1.236 . S
N197 Mn181 2.282 1_655 S
N197 C198 1.328 . S
N197 C202 1.318 . S
C198 N197 1.328 . S
C198 C199 1.457 . S
C198 H203 0.929 . S
C199 C198 1.457 . S
C199 C200 1.291 . S
C199 H212 0.931 . S
C200 C199 1.291 . S
C200 C201 1.373 . S
C200 H213 0.929 . S
C201 C200 1.373 . S
C201 C202 1.396 . S
C201 C208 1.403 . S
C202 C192 1.476 1_655 S
C202 N197 1.318 . S
C202 C201 1.396 . S
H203 C198 0.929 . S
O204 Mn180 2.385 . S
O204 C182 1.234 . S
O205 Mn180 2.209 . S
O205 Mn181 2.215 . S
O205 C182 1.283 . S
O206 Mn180 2.094 . S
O206 C184 1.240 . S
O207 Mn181 2.117 . S
O207 C184 1.264 . S
C208 C201 1.403 . S
C208 C209 1.399 . S
C208 H214 0.929 . S
C209 C189 1.449 1_655 S
C209 C208 1.399 . S
C209 H215 0.930 . S
H210 C190 0.931 . S
H211 C191 0.930 1_545 S
H212 C199 0.931 . S
H213 C200 0.929 . S
H214 C208 0.929 . S
H215 C209 0.930 . S
Mn216 O221 2.095 . S
Mn216 O231 2.162 . S
Mn216 O232 2.297 . S
Mn216 O240 2.385 . S
Mn216 O241 2.209 . S
Mn216 O242 2.094 . S
Mn217 O222 2.121 . S
Mn217 N224 2.257 . S
Mn217 N233 2.282 . S
Mn217 O241 2.215 . S
Mn217 O243 2.117 . S
C218 O240 1.234 . S
C218 O241 1.283 . S
C219 O231 1.281 . S
C219 O232 1.236 . S
C220 O242 1.240 . S
C220 O243 1.264 . S
O221 Mn216 2.095 . S
O221 C230 1.250 . S
O222 Mn217 2.121 . S
O222 C230 1.258 . S
C223 N224 1.326 . S
C223 C227 1.460 . S
C223 H229 0.929 . S
N224 Mn217 2.257 . S
N224 C223 1.326 . S
N224 C228 1.362 . S
C225 C226 1.258 . S
C225 C228 1.431 . S
C225 C245 1.449 . S
C226 C225 1.258 . S
C226 C227 1.477 . S
C226 H246 0.931 . S
C227 C223 1.460 . S
C227 C226 1.477 . S
C227 H247 0.930 1_565 S
C228 N224 1.362 . S
C228 C225 1.431 . S
C228 C238 1.476 . S
H229 C223 0.929 . S
C230 O221 1.250 . S
C230 O222 1.258 . S
O231 Mn216 2.162 . S
O231 C219 1.281 . S
O232 Mn216 2.297 . S
O232 C219 1.236 . S
N233 Mn217 2.282 . S
N233 C234 1.328 . S
N233 C238 1.318 . S
C234 N233 1.328 . S
C234 C235 1.457 . S
C234 H239 0.929 . S
C235 C234 1.457 . S
C235 C236 1.291 . S
C235 H248 0.931 . S
C236 C235 1.291 . S
C236 C237 1.373 . S
C236 H249 0.929 . S
C237 C236 1.373 . S
C237 C238 1.396 . S
C237 C244 1.403 . S
C238 C228 1.476 . S
C238 N233 1.318 . S
C238 C237 1.396 . S
H239 C234 0.929 . S
O240 Mn216 2.385 . S
O240 C218 1.234 . S
O241 Mn216 2.209 . S
O241 Mn217 2.215 . S
O241 C218 1.283 . S
O242 Mn216 2.094 . S
O242 C220 1.240 . S
O243 Mn217 2.117 . S
O243 C220 1.264 . S
C244 C237 1.403 . S
C244 C245 1.399 . S
C244 H250 0.929 . S
C245 C225 1.449 . S
C245 C244 1.399 . S
C245 H251 0.930 . S
H246 C226 0.931 . S
H247 C227 0.930 1_545 S
H248 C235 0.931 . S
H249 C236 0.929 . S
H250 C244 0.929 . S
H251 C245 0.930 . S
Mn252 O257 2.095 . S
Mn252 O267 2.162 . S
Mn252 O268 2.297 . S
Mn252 O276 2.385 . S
Mn252 O277 2.209 . S
Mn252 O278 2.094 . S
Mn253 O258 2.121 . S
Mn253 N260 2.257 . S
Mn253 N269 2.282 1_565 S
Mn253 O277 2.215 . S
Mn253 O279 2.117 . S
C254 O276 1.234 . S
C254 O277 1.283 . S
C255 O267 1.281 . S
C255 O268 1.236 . S
C256 O278 1.240 . S
C256 O279 1.264 . S
O257 Mn252 2.095 . S
O257 C266 1.250 . S
O258 Mn253 2.121 . S
O258 C266 1.258 . S
C259 N260 1.326 . S
C259 C263 1.460 . S
C259 H265 0.929 . S
N260 Mn253 2.257 . S
N260 C259 1.326 . S
N260 C264 1.362 . S
C261 C262 1.258 . S
C261 C264 1.431 . S
C261 C281 1.449 1_565 S
C262 C261 1.258 . S
C262 C263 1.477 . S
C262 H282 0.931 . S
C263 C259 1.460 . S
C263 C262 1.477 . S
C263 H283 0.930 1_455 S
C264 N260 1.362 . S
C264 C261 1.431 . S
C264 C274 1.476 1_565 S
H265 C259 0.929 . S
C266 O257 1.250 . S
C266 O258 1.258 . S
O267 Mn252 2.162 . S
O267 C255 1.281 . S
O268 Mn252 2.297 . S
O268 C255 1.236 . S
N269 Mn253 2.282 1_545 S
N269 C270 1.328 . S
N269 C274 1.318 . S
C270 N269 1.328 . S
C270 C271 1.457 . S
C270 H275 0.929 . S
C271 C270 1.457 . S
C271 C272 1.291 . S
C271 H284 0.931 . S
C272 C271 1.291 . S
C272 C273 1.373 . S
C272 H285 0.929 . S
C273 C272 1.373 . S
C273 C274 1.396 . S
C273 C280 1.403 . S
C274 C264 1.476 1_545 S
C274 N269 1.318 . S
C274 C273 1.396 . S
H275 C270 0.929 . S
O276 Mn252 2.385 . S
O276 C254 1.234 . S
O277 Mn252 2.209 . S
O277 Mn253 2.215 . S
O277 C254 1.283 . S
O278 Mn252 2.094 . S
O278 C256 1.240 . S
O279 Mn253 2.117 . S
O279 C256 1.264 . S
C280 C273 1.403 . S
C280 C281 1.399 . S
C280 H286 0.929 . S
C281 C261 1.449 1_545 S
C281 C280 1.399 . S
C281 H287 0.930 . S
H282 C262 0.931 . S
H283 C263 0.930 1_655 S
H284 C271 0.931 . S
H285 C272 0.929 . S
H286 C280 0.929 . S
H287 C281 0.930 . S
Mn288 O293 2.095 . S
Mn288 O303 2.162 . S
Mn288 O304 2.297 . S
Mn288 O312 2.385 . S
Mn288 O313 2.209 . S
Mn288 O314 2.094 . S
Mn289 O294 2.121 . S
Mn289 N296 2.257 . S
Mn289 N305 2.282 1_455 S
Mn289 O313 2.215 . S
Mn289 O315 2.117 . S
C290 O312 1.234 . S
C290 O313 1.283 . S
C291 O303 1.281 . S
C291 O304 1.236 . S
C292 O314 1.240 . S
C292 O315 1.264 . S
O293 Mn288 2.095 . S
O293 C302 1.250 . S
O294 Mn289 2.121 . S
O294 C302 1.258 . S
C295 N296 1.326 . S
C295 C299 1.460 . S
C295 H301 0.929 . S
N296 Mn289 2.257 . S
N296 C295 1.326 . S
N296 C300 1.362 . S
C297 C298 1.258 . S
C297 C300 1.431 . S
C297 C317 1.449 1_455 S
C298 C297 1.258 . S
C298 C299 1.477 . S
C298 H318 0.931 . S
C299 C295 1.460 . S
C299 C298 1.477 . S
C299 H319 0.930 . S
C300 N296 1.362 . S
C300 C297 1.431 . S
C300 C310 1.476 1_455 S
H301 C295 0.929 . S
C302 O293 1.250 . S
C302 O294 1.258 . S
O303 Mn288 2.162 . S
O303 C291 1.281 . S
O304 Mn288 2.297 . S
O304 C291 1.236 . S
N305 Mn289 2.282 1_655 S
N305 C306 1.328 . S
N305 C310 1.318 . S
C306 N305 1.328 . S
C306 C307 1.457 . S
C306 H311 0.929 . S
C307 C306 1.457 . S
C307 C308 1.291 . S
C307 H320 0.931 . S
C308 C307 1.291 . S
C308 C309 1.373 . S
C308 H321 0.929 . S
C309 C308 1.373 . S
C309 C310 1.396 . S
C309 C316 1.403 . S
C310 C300 1.476 1_655 S
C310 N305 1.318 . S
C310 C309 1.396 . S
H311 C306 0.929 . S
O312 Mn288 2.385 . S
O312 C290 1.234 . S
O313 Mn288 2.209 . S
O313 Mn289 2.215 . S
O313 C290 1.283 . S
O314 Mn288 2.094 . S
O314 C292 1.240 . S
O315 Mn289 2.117 . S
O315 C292 1.264 . S
C316 C309 1.403 . S
C316 C317 1.399 . S
C316 H322 0.929 . S
C317 C297 1.449 1_655 S
C317 C316 1.399 . S
C317 H323 0.930 . S
H318 C298 0.931 . S
H319 C299 0.930 . S
H320 C307 0.931 . S
H321 C308 0.929 . S
H322 C316 0.929 . S
H323 C317 0.930 . S
Mn324 O329 2.095 . S
Mn324 O339 2.162 . S
Mn324 O340 2.297 . S
Mn324 O348 2.385 . S
Mn324 O349 2.209 . S
Mn324 O350 2.094 . S
Mn325 O330 2.121 . S
Mn325 N332 2.257 . S
Mn325 N341 2.282 . S
Mn325 O349 2.215 . S
Mn325 O351 2.117 . S
C326 O348 1.234 . S
C326 O349 1.283 . S
C327 O339 1.281 . S
C327 O340 1.236 . S
C328 O350 1.240 . S
C328 O351 1.264 . S
O329 Mn324 2.095 . S
O329 C338 1.250 . S
O330 Mn325 2.121 . S
O330 C338 1.258 . S
C331 N332 1.326 . S
C331 C335 1.460 . S
C331 H337 0.929 . S
N332 Mn325 2.257 . S
N332 C331 1.326 . S
N332 C336 1.362 . S
C333 C334 1.258 . S
C333 C336 1.431 . S
C333 C353 1.449 . S
C334 C333 1.258 . S
C334 C335 1.477 . S
C334 H354 0.931 . S
C335 C331 1.460 . S
C335 C334 1.477 . S
C335 H355 0.930 1_655 S
C336 N332 1.362 . S
C336 C333 1.431 . S
C336 C346 1.476 . S
H337 C331 0.929 . S
C338 O329 1.250 . S
C338 O330 1.258 . S
O339 Mn324 2.162 . S
O339 C327 1.281 . S
O340 Mn324 2.297 . S
O340 C327 1.236 . S
N341 Mn325 2.282 . S
N341 C342 1.328 . S
N341 C346 1.318 . S
C342 N341 1.328 . S
C342 C343 1.457 . S
C342 H347 0.929 . S
C343 C342 1.457 . S
C343 C344 1.291 . S
C343 H356 0.931 . S
C344 C343 1.291 . S
C344 C345 1.373 . S
C344 H357 0.929 . S
C345 C344 1.373 . S
C345 C346 1.396 . S
C345 C352 1.403 . S
C346 C336 1.476 . S
C346 N341 1.318 . S
C346 C345 1.396 . S
H347 C342 0.929 . S
O348 Mn324 2.385 . S
O348 C326 1.234 . S
O349 Mn324 2.209 . S
O349 Mn325 2.215 . S
O349 C326 1.283 . S
O350 Mn324 2.094 . S
O350 C328 1.240 . S
O351 Mn325 2.117 . S
O351 C328 1.264 . S
C352 C345 1.403 . S
C352 C353 1.399 . S
C352 H358 0.929 . S
C353 C333 1.449 . S
C353 C352 1.399 . S
C353 H359 0.930 . S
H354 C334 0.931 . S
H355 C335 0.930 1_455 S
H356 C343 0.931 . S
H357 C344 0.929 . S
H358 C352 0.929 . S
H359 C353 0.930 . S
Mn360 O365 2.095 . S
Mn360 O375 2.162 . S
Mn360 O376 2.297 . S
Mn360 O384 2.385 . S
Mn360 O385 2.209 . S
Mn360 O386 2.094 . S
Mn361 O366 2.121 . S
Mn361 N368 2.257 . S
Mn361 N377 2.282 1_545 S
Mn361 O385 2.215 . S
Mn361 O387 2.117 . S
C362 O384 1.234 . S
C362 O385 1.283 . S
C363 O375 1.281 . S
C363 O376 1.236 . S
C364 O386 1.240 . S
C364 O387 1.264 . S
O365 Mn360 2.095 . S
O365 C374 1.250 . S
O366 Mn361 2.121 . S
O366 C374 1.258 . S
C367 N368 1.326 . S
C367 C371 1.460 . S
C367 H373 0.929 . S
N368 Mn361 2.257 . S
N368 C367 1.326 . S
N368 C372 1.362 . S
C369 C370 1.258 . S
C369 C372 1.431 . S
C369 C389 1.449 1_545 S
C370 C369 1.258 . S
C370 C371 1.477 . S
C370 H390 0.931 . S
C371 C367 1.460 . S
C371 C370 1.477 . S
C371 H391 0.930 . S
C372 N368 1.362 . S
C372 C369 1.431 . S
C372 C382 1.476 1_545 S
H373 C367 0.929 . S
C374 O365 1.250 . S
C374 O366 1.258 . S
O375 Mn360 2.162 . S
O375 C363 1.281 . S
O376 Mn360 2.297 . S
O376 C363 1.236 . S
N377 Mn361 2.282 1_565 S
N377 C378 1.328 . S
N377 C382 1.318 . S
C378 N377 1.328 . S
C378 C379 1.457 . S
C378 H383 0.929 . S
C379 C378 1.457 . S
C379 C380 1.291 . S
C379 H392 0.931 . S
C380 C379 1.291 . S
C380 C381 1.373 . S
C380 H393 0.929 . S
C381 C380 1.373 . S
C381 C382 1.396 . S
C381 C388 1.403 . S
C382 C372 1.476 1_565 S
C382 N377 1.318 . S
C382 C381 1.396 . S
H383 C378 0.929 . S
O384 Mn360 2.385 . S
O384 C362 1.234 . S
O385 Mn360 2.209 . S
O385 Mn361 2.215 . S
O385 C362 1.283 . S
O386 Mn360 2.094 . S
O386 C364 1.240 . S
O387 Mn361 2.117 . S
O387 C364 1.264 . S
C388 C381 1.403 . S
C388 C389 1.399 . S
C388 H394 0.929 . S
C389 C369 1.449 1_565 S
C389 C388 1.399 . S
C389 H395 0.930 . S
H390 C370 0.931 . S
H391 C371 0.930 . S
H392 C379 0.931 . S
H393 C380 0.929 . S
H394 C388 0.929 . S
H395 C389 0.930 . S
Mn396 O401 2.095 . S
Mn396 O411 2.162 . S
Mn396 O412 2.297 . S
Mn396 O420 2.385 . S
Mn396 O421 2.209 . S
Mn396 O422 2.094 . S
Mn397 O402 2.121 . S
Mn397 N404 2.257 . S
Mn397 N413 2.282 1_655 S
Mn397 O421 2.215 . S
Mn397 O423 2.117 . S
C398 O420 1.234 . S
C398 O421 1.283 . S
C399 O411 1.281 . S
C399 O412 1.236 . S
C400 O422 1.240 . S
C400 O423 1.264 . S
O401 Mn396 2.095 . S
O401 C410 1.250 . S
O402 Mn397 2.121 . S
O402 C410 1.258 . S
C403 N404 1.326 . S
C403 C407 1.460 . S
C403 H409 0.929 . S
N404 Mn397 2.257 . S
N404 C403 1.326 . S
N404 C408 1.362 . S
C405 C406 1.258 . S
C405 C408 1.431 . S
C405 C425 1.449 1_655 S
C406 C405 1.258 . S
C406 C407 1.477 . S
C406 H426 0.931 . S
C407 C403 1.460 . S
C407 C406 1.477 . S
C407 H427 0.930 1_545 S
C408 N404 1.362 . S
C408 C405 1.431 . S
C408 C418 1.476 1_655 S
H409 C403 0.929 . S
C410 O401 1.250 . S
C410 O402 1.258 . S
O411 Mn396 2.162 . S
O411 C399 1.281 . S
O412 Mn396 2.297 . S
O412 C399 1.236 . S
N413 Mn397 2.282 1_455 S
N413 C414 1.328 . S
N413 C418 1.318 . S
C414 N413 1.328 . S
C414 C415 1.457 . S
C414 H419 0.929 . S
C415 C414 1.457 . S
C415 C416 1.291 . S
C415 H428 0.931 . S
C416 C415 1.291 . S
C416 C417 1.373 . S
C416 H429 0.929 . S
C417 C416 1.373 . S
C417 C418 1.396 . S
C417 C424 1.403 . S
C418 C408 1.476 1_455 S
C418 N413 1.318 . S
C418 C417 1.396 . S
H419 C414 0.929 . S
O420 Mn396 2.385 . S
O420 C398 1.234 . S
O421 Mn396 2.209 . S
O421 Mn397 2.215 . S
O421 C398 1.283 . S
O422 Mn396 2.094 . S
O422 C400 1.240 . S
O423 Mn397 2.117 . S
O423 C400 1.264 . S
C424 C417 1.403 . S
C424 C425 1.399 . S
C424 H430 0.929 . S
C425 C405 1.449 1_455 S
C425 C424 1.399 . S
C425 H431 0.930 . S
H426 C406 0.931 . S
H427 C407 0.930 1_565 S
H428 C415 0.931 . S
H429 C416 0.929 . S
H430 C424 0.929 . S
H431 C425 0.930 . S
Mn432 O437 2.095 . S
Mn432 O447 2.162 . S
Mn432 O448 2.297 . S
Mn432 O456 2.385 . S
Mn432 O457 2.209 . S
Mn432 O458 2.094 . S
Mn433 O438 2.121 . S
Mn433 N440 2.257 . S
Mn433 N449 2.282 . S
Mn433 O457 2.215 . S
Mn433 O459 2.117 . S
C434 O456 1.234 . S
C434 O457 1.283 . S
C435 O447 1.281 . S
C435 O448 1.236 . S
C436 O458 1.240 . S
C436 O459 1.264 . S
O437 Mn432 2.095 . S
O437 C446 1.250 . S
O438 Mn433 2.121 . S
O438 C446 1.258 . S
C439 N440 1.326 . S
C439 C443 1.460 . S
C439 H445 0.929 . S
N440 Mn433 2.257 . S
N440 C439 1.326 . S
N440 C444 1.362 . S
C441 C442 1.258 . S
C441 C444 1.431 . S
C441 C461 1.449 . S
C442 C441 1.258 . S
C442 C443 1.477 . S
C442 H462 0.931 . S
C443 C439 1.460 . S
C443 C442 1.477 . S
C443 H463 0.930 . S
C444 N440 1.362 . S
C444 C441 1.431 . S
C444 C454 1.476 . S
H445 C439 0.929 . S
C446 O437 1.250 . S
C446 O438 1.258 . S
O447 Mn432 2.162 . S
O447 C435 1.281 . S
O448 Mn432 2.297 . S
O448 C435 1.236 . S
N449 Mn433 2.282 . S
N449 C450 1.328 . S
N449 C454 1.318 . S
C450 N449 1.328 . S
C450 C451 1.457 . S
C450 H455 0.929 . S
C451 C450 1.457 . S
C451 C452 1.291 . S
C451 H464 0.931 . S
C452 C451 1.291 . S
C452 C453 1.373 . S
C452 H465 0.929 . S
C453 C452 1.373 . S
C453 C454 1.396 . S
C453 C460 1.403 . S
C454 C444 1.476 . S
C454 N449 1.318 . S
C454 C453 1.396 . S
H455 C450 0.929 . S
O456 Mn432 2.385 . S
O456 C434 1.234 . S
O457 Mn432 2.209 . S
O457 Mn433 2.215 . S
O457 C434 1.283 . S
O458 Mn432 2.094 . S
O458 C436 1.240 . S
O459 Mn433 2.117 . S
O459 C436 1.264 . S
C460 C453 1.403 . S
C460 C461 1.399 . S
C460 H466 0.929 . S
C461 C441 1.449 . S
C461 C460 1.399 . S
C461 H467 0.930 . S
H462 C442 0.931 . S
H463 C443 0.930 . S
H464 C451 0.931 . S
H465 C452 0.929 . S
H466 C460 0.929 . S
H467 C461 0.930 . S
Mn468 O473 2.095 . S
Mn468 O483 2.162 . S
Mn468 O484 2.297 . S
Mn468 O492 2.385 . S
Mn468 O493 2.209 . S
Mn468 O494 2.094 . S
Mn469 O474 2.121 . S
Mn469 N476 2.257 . S
Mn469 N485 2.282 . S
Mn469 O493 2.215 . S
Mn469 O495 2.117 . S
C470 O492 1.234 . S
C470 O493 1.283 . S
C471 O483 1.281 . S
C471 O484 1.236 . S
C472 O494 1.240 . S
C472 O495 1.264 . S
O473 Mn468 2.095 . S
O473 C482 1.250 . S
O474 Mn469 2.121 . S
O474 C482 1.258 . S
C475 N476 1.326 . S
C475 C479 1.460 . S
C475 H481 0.929 . S
N476 Mn469 2.257 . S
N476 C475 1.326 . S
N476 C480 1.362 . S
C477 C478 1.258 . S
C477 C480 1.431 . S
C477 C497 1.449 . S
C478 C477 1.258 . S
C478 C479 1.477 . S
C478 H498 0.931 . S
C479 C475 1.460 . S
C479 C478 1.477 . S
C479 H499 0.930 . S
C480 N476 1.362 . S
C480 C477 1.431 . S
C480 C490 1.476 . S
H481 C475 0.929 . S
C482 O473 1.250 . S
C482 O474 1.258 . S
O483 Mn468 2.162 . S
O483 C471 1.281 . S
O484 Mn468 2.297 . S
O484 C471 1.236 . S
N485 Mn469 2.282 . S
N485 C486 1.328 . S
N485 C490 1.318 . S
C486 N485 1.328 . S
C486 C487 1.457 . S
C486 H491 0.929 . S
C487 C486 1.457 . S
C487 C488 1.291 . S
C487 H500 0.931 . S
C488 C487 1.291 . S
C488 C489 1.373 . S
C488 H501 0.929 . S
C489 C488 1.373 . S
C489 C490 1.396 . S
C489 C496 1.403 . S
C490 C480 1.476 . S
C490 N485 1.318 . S
C490 C489 1.396 . S
H491 C486 0.929 . S
O492 Mn468 2.385 . S
O492 C470 1.234 . S
O493 Mn468 2.209 . S
O493 Mn469 2.215 . S
O493 C470 1.283 . S
O494 Mn468 2.094 . S
O494 C472 1.240 . S
O495 Mn469 2.117 . S
O495 C472 1.264 . S
C496 C489 1.403 . S
C496 C497 1.399 . S
C496 H502 0.929 . S
C497 C477 1.449 . S
C497 C496 1.399 . S
C497 H503 0.930 . S
H498 C478 0.931 . S
H499 C479 0.930 . S
H500 C487 0.931 . S
H501 C488 0.929 . S
H502 C496 0.929 . S
H503 C497 0.930 . S
Mn504 O509 2.095 . S
Mn504 O519 2.162 . S
Mn504 O520 2.297 . S
Mn504 O528 2.385 . S
Mn504 O529 2.209 . S
Mn504 O530 2.094 . S
Mn505 O510 2.121 . S
Mn505 N512 2.257 . S
Mn505 N521 2.282 . S
Mn505 O529 2.215 . S
Mn505 O531 2.117 . S
C506 O528 1.234 . S
C506 O529 1.283 . S
C507 O519 1.281 . S
C507 O520 1.236 . S
C508 O530 1.240 . S
C508 O531 1.264 . S
O509 Mn504 2.095 . S
O509 C518 1.250 . S
O510 Mn505 2.121 . S
O510 C518 1.258 . S
C511 N512 1.326 . S
C511 C515 1.460 . S
C511 H517 0.929 . S
N512 Mn505 2.257 . S
N512 C511 1.326 . S
N512 C516 1.362 . S
C513 C514 1.258 . S
C513 C516 1.431 . S
C513 C533 1.449 . S
C514 C513 1.258 . S
C514 C515 1.477 . S
C514 H534 0.931 . S
C515 C511 1.460 . S
C515 C514 1.477 . S
C515 H535 0.930 . S
C516 N512 1.362 . S
C516 C513 1.431 . S
C516 C526 1.476 . S
H517 C511 0.929 . S
C518 O509 1.250 . S
C518 O510 1.258 . S
O519 Mn504 2.162 . S
O519 C507 1.281 . S
O520 Mn504 2.297 . S
O520 C507 1.236 . S
N521 Mn505 2.282 . S
N521 C522 1.328 . S
N521 C526 1.318 . S
C522 N521 1.328 . S
C522 C523 1.457 . S
C522 H527 0.929 . S
C523 C522 1.457 . S
C523 C524 1.291 . S
C523 H536 0.931 . S
C524 C523 1.291 . S
C524 C525 1.373 . S
C524 H537 0.929 . S
C525 C524 1.373 . S
C525 C526 1.396 . S
C525 C532 1.403 . S
C526 C516 1.476 . S
C526 N521 1.318 . S
C526 C525 1.396 . S
H527 C522 0.929 . S
O528 Mn504 2.385 . S
O528 C506 1.234 . S
O529 Mn504 2.209 . S
O529 Mn505 2.215 . S
O529 C506 1.283 . S
O530 Mn504 2.094 . S
O530 C508 1.240 . S
O531 Mn505 2.117 . S
O531 C508 1.264 . S
C532 C525 1.403 . S
C532 C533 1.399 . S
C532 H538 0.929 . S
C533 C513 1.449 . S
C533 C532 1.399 . S
C533 H539 0.930 . S
H534 C514 0.931 . S
H535 C515 0.930 . S
H536 C523 0.931 . S
H537 C524 0.929 . S
H538 C532 0.929 . S
H539 C533 0.930 . S
Mn540 O545 2.095 . S
Mn540 O555 2.162 . S
Mn540 O556 2.297 . S
Mn540 O564 2.385 . S
Mn540 O565 2.209 . S
Mn540 O566 2.094 . S
Mn541 O546 2.121 . S
Mn541 N548 2.257 . S
Mn541 N557 2.282 . S
Mn541 O565 2.215 . S
Mn541 O567 2.117 . S
C542 O564 1.234 . S
C542 O565 1.283 . S
C543 O555 1.281 . S
C543 O556 1.236 . S
C544 O566 1.240 . S
C544 O567 1.264 . S
O545 Mn540 2.095 . S
O545 C554 1.250 . S
O546 Mn541 2.121 . S
O546 C554 1.258 . S
C547 N548 1.326 . S
C547 C551 1.460 . S
C547 H553 0.929 . S
N548 Mn541 2.257 . S
N548 C547 1.326 . S
N548 C552 1.362 . S
C549 C550 1.258 . S
C549 C552 1.431 . S
C549 C569 1.449 . S
C550 C549 1.258 . S
C550 C551 1.477 . S
C550 H570 0.931 . S
C551 C547 1.460 . S
C551 C550 1.477 . S
C551 H571 0.930 . S
C552 N548 1.362 . S
C552 C549 1.431 . S
C552 C562 1.476 . S
H553 C547 0.929 . S
C554 O545 1.250 . S
C554 O546 1.258 . S
O555 Mn540 2.162 . S
O555 C543 1.281 . S
O556 Mn540 2.297 . S
O556 C543 1.236 . S
N557 Mn541 2.282 . S
N557 C558 1.328 . S
N557 C562 1.318 . S
C558 N557 1.328 . S
C558 C559 1.457 . S
C558 H563 0.929 . S
C559 C558 1.457 . S
C559 C560 1.291 . S
C559 H572 0.931 . S
C560 C559 1.291 . S
C560 C561 1.373 . S
C560 H573 0.929 . S
C561 C560 1.373 . S
C561 C562 1.396 . S
C561 C568 1.403 . S
C562 C552 1.476 . S
C562 N557 1.318 . S
C562 C561 1.396 . S
H563 C558 0.929 . S
O564 Mn540 2.385 . S
O564 C542 1.234 . S
O565 Mn540 2.209 . S
O565 Mn541 2.215 . S
O565 C542 1.283 . S
O566 Mn540 2.094 . S
O566 C544 1.240 . S
O567 Mn541 2.117 . S
O567 C544 1.264 . S
C568 C561 1.403 . S
C568 C569 1.399 . S
C568 H574 0.929 . S
C569 C549 1.449 . S
C569 C568 1.399 . S
C569 H575 0.930 . S
H570 C550 0.931 . S
H571 C551 0.930 . S
H572 C559 0.931 . S
H573 C560 0.929 . S
H574 C568 0.929 . S
H575 C569 0.930 . S
Mn576 O581 2.095 . S
Mn576 O591 2.162 . S
Mn576 O592 2.297 . S
Mn576 O600 2.385 . S
Mn576 O601 2.209 . S
Mn576 O602 2.094 . S
Mn577 O582 2.121 . S
Mn577 N584 2.257 . S
Mn577 N593 2.282 . S
Mn577 O601 2.215 . S
Mn577 O603 2.117 . S
C578 O600 1.234 . S
C578 O601 1.283 . S
C579 O591 1.281 . S
C579 O592 1.236 . S
C580 O602 1.240 . S
C580 O603 1.264 . S
O581 Mn576 2.095 . S
O581 C590 1.250 . S
O582 Mn577 2.121 . S
O582 C590 1.258 . S
C583 N584 1.326 . S
C583 C587 1.460 . S
C583 H589 0.929 . S
N584 Mn577 2.257 . S
N584 C583 1.326 . S
N584 C588 1.362 . S
C585 C586 1.258 . S
C585 C588 1.431 . S
C585 C605 1.449 . S
C586 C585 1.258 . S
C586 C587 1.477 . S
C586 H606 0.931 . S
C587 C583 1.460 . S
C587 C586 1.477 . S
C587 H607 0.930 . S
C588 N584 1.362 . S
C588 C585 1.431 . S
C588 C598 1.476 . S
H589 C583 0.929 . S
C590 O581 1.250 . S
C590 O582 1.258 . S
O591 Mn576 2.162 . S
O591 C579 1.281 . S
O592 Mn576 2.297 . S
O592 C579 1.236 . S
N593 Mn577 2.282 . S
N593 C594 1.328 . S
N593 C598 1.318 . S
C594 N593 1.328 . S
C594 C595 1.457 . S
C594 H599 0.929 . S
C595 C594 1.457 . S
C595 C596 1.291 . S
C595 H608 0.931 . S
C596 C595 1.291 . S
C596 C597 1.373 . S
C596 H609 0.929 . S
C597 C596 1.373 . S
C597 C598 1.396 . S
C597 C604 1.403 . S
C598 C588 1.476 . S
C598 N593 1.318 . S
C598 C597 1.396 . S
H599 C594 0.929 . S
O600 Mn576 2.385 . S
O600 C578 1.234 . S
O601 Mn576 2.209 . S
O601 Mn577 2.215 . S
O601 C578 1.283 . S
O602 Mn576 2.094 . S
O602 C580 1.240 . S
O603 Mn577 2.117 . S
O603 C580 1.264 . S
C604 C597 1.403 . S
C604 C605 1.399 . S
C604 H610 0.929 . S
C605 C585 1.449 . S
C605 C604 1.399 . S
C605 H611 0.930 . S
H606 C586 0.931 . S
H607 C587 0.930 . S
H608 C595 0.931 . S
H609 C596 0.929 . S
H610 C604 0.929 . S
H611 C605 0.930 . S
Mn612 O617 2.095 . S
Mn612 O627 2.162 . S
Mn612 O628 2.297 . S
Mn612 O636 2.385 . S
Mn612 O637 2.209 . S
Mn612 O638 2.094 . S
Mn613 O618 2.121 . S
Mn613 N620 2.257 . S
Mn613 N629 2.282 . S
Mn613 O637 2.215 . S
Mn613 O639 2.117 . S
C614 O636 1.234 . S
C614 O637 1.283 . S
C615 O627 1.281 . S
C615 O628 1.236 . S
C616 O638 1.240 . S
C616 O639 1.264 . S
O617 Mn612 2.095 . S
O617 C626 1.250 . S
O618 Mn613 2.121 . S
O618 C626 1.258 . S
C619 N620 1.326 . S
C619 C623 1.460 . S
C619 H625 0.929 . S
N620 Mn613 2.257 . S
N620 C619 1.326 . S
N620 C624 1.362 . S
C621 C622 1.258 . S
C621 C624 1.431 . S
C621 C641 1.449 . S
C622 C621 1.258 . S
C622 C623 1.477 . S
C622 H642 0.931 . S
C623 C619 1.460 . S
C623 C622 1.477 . S
C623 H643 0.930 . S
C624 N620 1.362 . S
C624 C621 1.431 . S
C624 C634 1.476 . S
H625 C619 0.929 . S
C626 O617 1.250 . S
C626 O618 1.258 . S
O627 Mn612 2.162 . S
O627 C615 1.281 . S
O628 Mn612 2.297 . S
O628 C615 1.236 . S
N629 Mn613 2.282 . S
N629 C630 1.328 . S
N629 C634 1.318 . S
C630 N629 1.328 . S
C630 C631 1.457 . S
C630 H635 0.929 . S
C631 C630 1.457 . S
C631 C632 1.291 . S
C631 H644 0.931 . S
C632 C631 1.291 . S
C632 C633 1.373 . S
C632 H645 0.929 . S
C633 C632 1.373 . S
C633 C634 1.396 . S
C633 C640 1.403 . S
C634 C624 1.476 . S
C634 N629 1.318 . S
C634 C633 1.396 . S
H635 C630 0.929 . S
O636 Mn612 2.385 . S
O636 C614 1.234 . S
O637 Mn612 2.209 . S
O637 Mn613 2.215 . S
O637 C614 1.283 . S
O638 Mn612 2.094 . S
O638 C616 1.240 . S
O639 Mn613 2.117 . S
O639 C616 1.264 . S
C640 C633 1.403 . S
C640 C641 1.399 . S
C640 H646 0.929 . S
C641 C621 1.449 . S
C641 C640 1.399 . S
C641 H647 0.930 . S
H642 C622 0.931 . S
H643 C623 0.930 . S
H644 C631 0.931 . S
H645 C632 0.929 . S
H646 C640 0.929 . S
H647 C641 0.930 . S
Mn648 O653 2.095 . S
Mn648 O663 2.162 . S
Mn648 O664 2.297 . S
Mn648 O672 2.385 . S
Mn648 O673 2.209 . S
Mn648 O674 2.094 . S
Mn649 O654 2.121 . S
Mn649 N656 2.257 . S
Mn649 N665 2.282 . S
Mn649 O673 2.215 . S
Mn649 O675 2.117 . S
C650 O672 1.234 . S
C650 O673 1.283 . S
C651 O663 1.281 . S
C651 O664 1.236 . S
C652 O674 1.240 . S
C652 O675 1.264 . S
O653 Mn648 2.095 . S
O653 C662 1.250 . S
O654 Mn649 2.121 . S
O654 C662 1.258 . S
C655 N656 1.326 . S
C655 C659 1.460 . S
C655 H661 0.929 . S
N656 Mn649 2.257 . S
N656 C655 1.326 . S
N656 C660 1.362 . S
C657 C658 1.258 . S
C657 C660 1.431 . S
C657 C677 1.449 . S
C658 C657 1.258 . S
C658 C659 1.477 . S
C658 H678 0.931 . S
C659 C655 1.460 . S
C659 C658 1.477 . S
C659 H679 0.930 . S
C660 N656 1.362 . S
C660 C657 1.431 . S
C660 C670 1.476 . S
H661 C655 0.929 . S
C662 O653 1.250 . S
C662 O654 1.258 . S
O663 Mn648 2.162 . S
O663 C651 1.281 . S
O664 Mn648 2.297 . S
O664 C651 1.236 . S
N665 Mn649 2.282 . S
N665 C666 1.328 . S
N665 C670 1.318 . S
C666 N665 1.328 . S
C666 C667 1.457 . S
C666 H671 0.929 . S
C667 C666 1.457 . S
C667 C668 1.291 . S
C667 H680 0.931 . S
C668 C667 1.291 . S
C668 C669 1.373 . S
C668 H681 0.929 . S
C669 C668 1.373 . S
C669 C670 1.396 . S
C669 C676 1.403 . S
C670 C660 1.476 . S
C670 N665 1.318 . S
C670 C669 1.396 . S
H671 C666 0.929 . S
O672 Mn648 2.385 . S
O672 C650 1.234 . S
O673 Mn648 2.209 . S
O673 Mn649 2.215 . S
O673 C650 1.283 . S
O674 Mn648 2.094 . S
O674 C652 1.240 . S
O675 Mn649 2.117 . S
O675 C652 1.264 . S
C676 C669 1.403 . S
C676 C677 1.399 . S
C676 H682 0.929 . S
C677 C657 1.449 . S
C677 C676 1.399 . S
C677 H683 0.930 . S
H678 C658 0.931 . S
H679 C659 0.930 . S
H680 C667 0.931 . S
H681 C668 0.929 . S
H682 C676 0.929 . S
H683 C677 0.930 . S
Mn684 O689 2.095 . S
Mn684 O699 2.162 . S
Mn684 O700 2.297 . S
Mn684 O708 2.385 . S
Mn684 O709 2.209 . S
Mn684 O710 2.094 . S
Mn685 O690 2.121 . S
Mn685 N692 2.257 . S
Mn685 N701 2.282 . S
Mn685 O709 2.215 . S
Mn685 O711 2.117 . S
C686 O708 1.234 . S
C686 O709 1.283 . S
C687 O699 1.281 . S
C687 O700 1.236 . S
C688 O710 1.240 . S
C688 O711 1.264 . S
O689 Mn684 2.095 . S
O689 C698 1.250 . S
O690 Mn685 2.121 . S
O690 C698 1.258 . S
C691 N692 1.326 . S
C691 C695 1.460 . S
C691 H697 0.929 . S
N692 Mn685 2.257 . S
N692 C691 1.326 . S
N692 C696 1.362 . S
C693 C694 1.258 . S
C693 C696 1.431 . S
C693 C713 1.449 . S
C694 C693 1.258 . S
C694 C695 1.477 . S
C694 H714 0.931 . S
C695 C691 1.460 . S
C695 C694 1.477 . S
C695 H715 0.930 . S
C696 N692 1.362 . S
C696 C693 1.431 . S
C696 C706 1.476 . S
H697 C691 0.929 . S
C698 O689 1.250 . S
C698 O690 1.258 . S
O699 Mn684 2.162 . S
O699 C687 1.281 . S
O700 Mn684 2.297 . S
O700 C687 1.236 . S
N701 Mn685 2.282 . S
N701 C702 1.328 . S
N701 C706 1.318 . S
C702 N701 1.328 . S
C702 C703 1.457 . S
C702 H707 0.929 . S
C703 C702 1.457 . S
C703 C704 1.291 . S
C703 H716 0.931 . S
C704 C703 1.291 . S
C704 C705 1.373 . S
C704 H717 0.929 . S
C705 C704 1.373 . S
C705 C706 1.396 . S
C705 C712 1.403 . S
C706 C696 1.476 . S
C706 N701 1.318 . S
C706 C705 1.396 . S
H707 C702 0.929 . S
O708 Mn684 2.385 . S
O708 C686 1.234 . S
O709 Mn684 2.209 . S
O709 Mn685 2.215 . S
O709 C686 1.283 . S
O710 Mn684 2.094 . S
O710 C688 1.240 . S
O711 Mn685 2.117 . S
O711 C688 1.264 . S
C712 C705 1.403 . S
C712 C713 1.399 . S
C712 H718 0.929 . S
C713 C693 1.449 . S
C713 C712 1.399 . S
C713 H719 0.930 . S
H714 C694 0.931 . S
H715 C695 0.930 . S
H716 C703 0.931 . S
H717 C704 0.929 . S
H718 C712 0.929 . S
H719 C713 0.930 . S
Mn720 O725 2.095 . S
Mn720 O735 2.162 . S
Mn720 O736 2.297 . S
Mn720 O744 2.385 . S
Mn720 O745 2.209 . S
Mn720 O746 2.094 . S
Mn721 O726 2.121 . S
Mn721 N728 2.257 . S
Mn721 N737 2.282 . S
Mn721 O745 2.215 . S
Mn721 O747 2.117 . S
C722 O744 1.234 . S
C722 O745 1.283 . S
C723 O735 1.281 . S
C723 O736 1.236 . S
C724 O746 1.240 . S
C724 O747 1.264 . S
O725 Mn720 2.095 . S
O725 C734 1.250 . S
O726 Mn721 2.121 . S
O726 C734 1.258 . S
C727 N728 1.326 . S
C727 C731 1.460 . S
C727 H733 0.929 . S
N728 Mn721 2.257 . S
N728 C727 1.326 . S
N728 C732 1.362 . S
C729 C730 1.258 . S
C729 C732 1.431 . S
C729 C749 1.449 . S
C730 C729 1.258 . S
C730 C731 1.477 . S
C730 H750 0.931 . S
C731 C727 1.460 . S
C731 C730 1.477 . S
C731 H751 0.930 . S
C732 N728 1.362 . S
C732 C729 1.431 . S
C732 C742 1.476 . S
H733 C727 0.929 . S
C734 O725 1.250 . S
C734 O726 1.258 . S
O735 Mn720 2.162 . S
O735 C723 1.281 . S
O736 Mn720 2.297 . S
O736 C723 1.236 . S
N737 Mn721 2.282 . S
N737 C738 1.328 . S
N737 C742 1.318 . S
C738 N737 1.328 . S
C738 C739 1.457 . S
C738 H743 0.929 . S
C739 C738 1.457 . S
C739 C740 1.291 . S
C739 H752 0.931 . S
C740 C739 1.291 . S
C740 C741 1.373 . S
C740 H753 0.929 . S
C741 C740 1.373 . S
C741 C742 1.396 . S
C741 C748 1.403 . S
C742 C732 1.476 . S
C742 N737 1.318 . S
C742 C741 1.396 . S
H743 C738 0.929 . S
O744 Mn720 2.385 . S
O744 C722 1.234 . S
O745 Mn720 2.209 . S
O745 Mn721 2.215 . S
O745 C722 1.283 . S
O746 Mn720 2.094 . S
O746 C724 1.240 . S
O747 Mn721 2.117 . S
O747 C724 1.264 . S
C748 C741 1.403 . S
C748 C749 1.399 . S
C748 H754 0.929 . S
C749 C729 1.449 . S
C749 C748 1.399 . S
C749 H755 0.930 . S
H750 C730 0.931 . S
H751 C731 0.930 . S
H752 C739 0.931 . S
H753 C740 0.929 . S
H754 C748 0.929 . S
H755 C749 0.930 . S
Mn756 O761 2.095 . S
Mn756 O771 2.162 . S
Mn756 O772 2.297 . S
Mn756 O780 2.385 . S
Mn756 O781 2.209 . S
Mn756 O782 2.094 . S
Mn757 O762 2.121 . S
Mn757 N764 2.257 . S
Mn757 N773 2.282 . S
Mn757 O781 2.215 . S
Mn757 O783 2.117 . S
C758 O780 1.234 1_554 S
C758 O781 1.283 1_554 S
C759 O771 1.281 . S
C759 O772 1.236 . S
C760 O782 1.240 . S
C760 O783 1.264 . S
O761 Mn756 2.095 . S
O761 C770 1.250 . S
O762 Mn757 2.121 . S
O762 C770 1.258 . S
C763 N764 1.327 . S
C763 C767 1.452 1_556 S
C763 H769 0.936 . S
N764 Mn757 2.257 . S
N764 C763 1.327 . S
N764 C768 1.362 1_556 S
C765 C766 1.258 . S
C765 C768 1.431 . S
C765 C785 1.449 . S
C766 C765 1.258 . S
C766 C767 1.477 . S
C766 H786 0.931 . S
C767 C763 1.452 1_554 S
C767 C766 1.477 . S
C767 H787 0.930 . S
C768 N764 1.362 1_554 S
C768 C765 1.431 . S
C768 C778 1.476 . S
H769 C763 0.936 . S
C770 O761 1.250 . S
C770 O762 1.258 . S
O771 Mn756 2.162 . S
O771 C759 1.281 . S
O772 Mn756 2.297 . S
O772 C759 1.236 . S
N773 Mn757 2.282 . S
N773 C774 1.328 . S
N773 C778 1.318 1_556 S
C774 N773 1.328 . S
C774 C775 1.457 1_556 S
C774 H779 0.929 . S
C775 C774 1.457 1_554 S
C775 C776 1.291 . S
C775 H788 0.931 . S
C776 C775 1.291 . S
C776 C777 1.373 . S
C776 H789 0.929 . S
C777 C776 1.373 . S
C777 C778 1.396 . S
C777 C784 1.403 . S
C778 C768 1.476 . S
C778 N773 1.318 1_554 S
C778 C777 1.396 . S
H779 C774 0.929 . S
O780 Mn756 2.385 . S
O780 C758 1.234 1_556 S
O781 Mn756 2.209 . S
O781 Mn757 2.215 . S
O781 C758 1.283 1_556 S
O782 Mn756 2.094 . S
O782 C760 1.240 . S
O783 Mn757 2.117 . S
O783 C760 1.264 . S
C784 C777 1.403 . S
C784 C785 1.399 . S
C784 H790 0.929 . S
C785 C765 1.449 . S
C785 C784 1.399 . S
C785 H791 0.930 . S
H786 C766 0.931 . S
H787 C767 0.930 . S
H788 C775 0.931 . S
H789 C776 0.929 . S
H790 C784 0.929 . S
H791 C785 0.930 . S
Mn792 O797 2.095 . S
Mn792 O807 2.162 . S
Mn792 O808 2.297 . S
Mn792 O816 2.385 . S
Mn792 O817 2.209 . S
Mn792 O818 2.094 . S
Mn793 O798 2.121 . S
Mn793 N800 2.257 . S
Mn793 N809 2.282 . S
Mn793 O817 2.215 . S
Mn793 O819 2.117 . S
C794 O816 1.234 1_554 S
C794 O817 1.283 1_554 S
C795 O807 1.281 . S
C795 O808 1.236 . S
C796 O818 1.240 . S
C796 O819 1.264 . S
O797 Mn792 2.095 . S
O797 C806 1.250 . S
O798 Mn793 2.121 . S
O798 C806 1.258 . S
C799 N800 1.327 . S
C799 C803 1.452 1_556 S
C799 H805 0.936 . S
N800 Mn793 2.257 . S
N800 C799 1.327 . S
N800 C804 1.362 1_556 S
C801 C802 1.258 . S
C801 C804 1.431 . S
C801 C821 1.449 . S
C802 C801 1.258 . S
C802 C803 1.477 . S
C802 H822 0.931 . S
C803 C799 1.452 1_554 S
C803 C802 1.477 . S
C803 H823 0.930 . S
C804 N800 1.362 1_554 S
C804 C801 1.431 . S
C804 C814 1.476 . S
H805 C799 0.936 . S
C806 O797 1.250 . S
C806 O798 1.258 . S
O807 Mn792 2.162 . S
O807 C795 1.281 . S
O808 Mn792 2.297 . S
O808 C795 1.236 . S
N809 Mn793 2.282 . S
N809 C810 1.328 . S
N809 C814 1.318 1_556 S
C810 N809 1.328 . S
C810 C811 1.457 1_556 S
C810 H815 0.929 . S
C811 C810 1.457 1_554 S
C811 C812 1.291 . S
C811 H824 0.931 . S
C812 C811 1.291 . S
C812 C813 1.373 . S
C812 H825 0.929 . S
C813 C812 1.373 . S
C813 C814 1.396 . S
C813 C820 1.403 . S
C814 C804 1.476 . S
C814 N809 1.318 1_554 S
C814 C813 1.396 . S
H815 C810 0.929 . S
O816 Mn792 2.385 . S
O816 C794 1.234 1_556 S
O817 Mn792 2.209 . S
O817 Mn793 2.215 . S
O817 C794 1.283 1_556 S
O818 Mn792 2.094 . S
O818 C796 1.240 . S
O819 Mn793 2.117 . S
O819 C796 1.264 . S
C820 C813 1.403 . S
C820 C821 1.399 . S
C820 H826 0.929 . S
C821 C801 1.449 . S
C821 C820 1.399 . S
C821 H827 0.930 . S
H822 C802 0.931 . S
H823 C803 0.930 . S
H824 C811 0.931 . S
H825 C812 0.929 . S
H826 C820 0.929 . S
H827 C821 0.930 . S
Mn828 O833 2.095 . S
Mn828 O843 2.162 . S
Mn828 O844 2.297 . S
Mn828 O852 2.385 . S
Mn828 O853 2.209 . S
Mn828 O854 2.094 . S
Mn829 O834 2.121 . S
Mn829 N836 2.257 . S
Mn829 N845 2.282 . S
Mn829 O853 2.215 . S
Mn829 O855 2.117 . S
C830 O852 1.234 1_554 S
C830 O853 1.283 1_554 S
C831 O843 1.281 . S
C831 O844 1.236 . S
C832 O854 1.240 . S
C832 O855 1.264 . S
O833 Mn828 2.095 . S
O833 C842 1.250 . S
O834 Mn829 2.121 . S
O834 C842 1.258 . S
C835 N836 1.327 . S
C835 C839 1.453 1_556 S
C835 H841 0.935 . S
N836 Mn829 2.257 . S
N836 C835 1.327 . S
N836 C840 1.362 1_556 S
C837 C838 1.258 . S
C837 C840 1.431 . S
C837 C857 1.449 . S
C838 C837 1.258 . S
C838 C839 1.477 . S
C838 H858 0.931 . S
C839 C835 1.453 1_554 S
C839 C838 1.477 . S
C839 H859 0.930 . S
C840 N836 1.362 1_554 S
C840 C837 1.431 . S
C840 C850 1.476 . S
H841 C835 0.935 . S
C842 O833 1.250 . S
C842 O834 1.258 . S
O843 Mn828 2.162 . S
O843 C831 1.281 . S
O844 Mn828 2.297 . S
O844 C831 1.236 . S
N845 Mn829 2.282 . S
N845 C846 1.328 . S
N845 C850 1.318 1_556 S
C846 N845 1.328 . S
C846 C847 1.457 1_556 S
C846 H851 0.929 . S
C847 C846 1.457 1_554 S
C847 C848 1.291 . S
C847 H860 0.931 . S
C848 C847 1.291 . S
C848 C849 1.373 . S
C848 H861 0.929 . S
C849 C848 1.373 . S
C849 C850 1.396 . S
C849 C856 1.403 . S
C850 C840 1.476 . S
C850 N845 1.318 1_554 S
C850 C849 1.396 . S
H851 C846 0.929 . S
O852 Mn828 2.385 . S
O852 C830 1.234 1_556 S
O853 Mn828 2.209 . S
O853 Mn829 2.215 . S
O853 C830 1.283 1_556 S
O854 Mn828 2.094 . S
O854 C832 1.240 . S
O855 Mn829 2.117 . S
O855 C832 1.264 . S
C856 C849 1.403 . S
C856 C857 1.399 . S
C856 H862 0.929 . S
C857 C837 1.449 . S
C857 C856 1.399 . S
C857 H863 0.930 . S
H858 C838 0.931 . S
H859 C839 0.930 . S
H860 C847 0.931 . S
H861 C848 0.929 . S
H862 C856 0.929 . S
H863 C857 0.930 . S
Mn864 O869 2.095 . S
Mn864 O879 2.162 . S
Mn864 O880 2.297 . S
Mn864 O888 2.385 . S
Mn864 O889 2.209 . S
Mn864 O890 2.094 . S
Mn865 O870 2.121 . S
Mn865 N872 2.257 . S
Mn865 N881 2.282 . S
Mn865 O889 2.215 . S
Mn865 O891 2.117 . S
C866 O888 1.234 . S
C866 O889 1.283 . S
C867 O879 1.281 . S
C867 O880 1.236 . S
C868 O890 1.240 . S
C868 O891 1.264 . S
O869 Mn864 2.095 . S
O869 C878 1.250 . S
O870 Mn865 2.121 . S
O870 C878 1.258 . S
C871 N872 1.326 . S
C871 C875 1.460 . S
C871 H877 0.929 . S
N872 Mn865 2.257 . S
N872 C871 1.326 . S
N872 C876 1.362 . S
C873 C874 1.258 . S
C873 C876 1.431 . S
C873 C893 1.449 . S
C874 C873 1.258 . S
C874 C875 1.477 . S
C874 H894 0.931 . S
C875 C871 1.460 . S
C875 C874 1.477 . S
C875 H895 0.930 . S
C876 N872 1.362 . S
C876 C873 1.431 . S
C876 C886 1.476 . S
H877 C871 0.929 . S
C878 O869 1.250 . S
C878 O870 1.258 . S
O879 Mn864 2.162 . S
O879 C867 1.281 . S
O880 Mn864 2.297 . S
O880 C867 1.236 . S
N881 Mn865 2.282 . S
N881 C882 1.328 . S
N881 C886 1.318 . S
C882 N881 1.328 . S
C882 C883 1.457 . S
C882 H887 0.929 . S
C883 C882 1.457 . S
C883 C884 1.291 . S
C883 H896 0.931 . S
C884 C883 1.291 . S
C884 C885 1.373 . S
C884 H897 0.929 . S
C885 C884 1.373 . S
C885 C886 1.396 . S
C885 C892 1.403 . S
C886 C876 1.476 . S
C886 N881 1.318 . S
C886 C885 1.396 . S
H887 C882 0.929 . S
O888 Mn864 2.385 . S
O888 C866 1.234 . S
O889 Mn864 2.209 . S
O889 Mn865 2.215 . S
O889 C866 1.283 . S
O890 Mn864 2.094 . S
O890 C868 1.240 . S
O891 Mn865 2.117 . S
O891 C868 1.264 . S
C892 C885 1.403 . S
C892 C893 1.399 . S
C892 H898 0.929 . S
C893 C873 1.449 . S
C893 C892 1.399 . S
C893 H899 0.930 . S
H894 C874 0.931 . S
H895 C875 0.930 . S
H896 C883 0.931 . S
H897 C884 0.929 . S
H898 C892 0.929 . S
H899 C893 0.930 . S
Mn900 O905 2.095 . S
Mn900 O915 2.162 . S
Mn900 O916 2.297 . S
Mn900 O924 2.385 . S
Mn900 O925 2.209 . S
Mn900 O926 2.094 . S
Mn901 O906 2.121 . S
Mn901 N908 2.257 . S
Mn901 N917 2.282 . S
Mn901 O925 2.215 . S
Mn901 O927 2.117 . S
C902 O924 1.234 . S
C902 O925 1.283 . S
C903 O915 1.281 . S
C903 O916 1.236 . S
C904 O926 1.240 . S
C904 O927 1.264 . S
O905 Mn900 2.095 . S
O905 C914 1.250 . S
O906 Mn901 2.121 . S
O906 C914 1.258 . S
C907 N908 1.326 . S
C907 C911 1.460 . S
C907 H913 0.929 . S
N908 Mn901 2.257 . S
N908 C907 1.326 . S
N908 C912 1.362 . S
C909 C910 1.258 . S
C909 C912 1.431 . S
C909 C929 1.449 . S
C910 C909 1.258 . S
C910 C911 1.477 . S
C910 H930 0.931 . S
C911 C907 1.460 . S
C911 C910 1.477 . S
C911 H931 0.930 . S
C912 N908 1.362 . S
C912 C909 1.431 . S
C912 C922 1.476 . S
H913 C907 0.929 . S
C914 O905 1.250 . S
C914 O906 1.258 . S
O915 Mn900 2.162 . S
O915 C903 1.281 . S
O916 Mn900 2.297 . S
O916 C903 1.236 . S
N917 Mn901 2.282 . S
N917 C918 1.328 . S
N917 C922 1.318 . S
C918 N917 1.328 . S
C918 C919 1.457 . S
C918 H923 0.929 . S
C919 C918 1.457 . S
C919 C920 1.291 . S
C919 H932 0.931 . S
C920 C919 1.291 . S
C920 C921 1.373 . S
C920 H933 0.929 . S
C921 C920 1.373 . S
C921 C922 1.396 . S
C921 C928 1.403 . S
C922 C912 1.476 . S
C922 N917 1.318 . S
C922 C921 1.396 . S
H923 C918 0.929 . S
O924 Mn900 2.385 . S
O924 C902 1.234 . S
O925 Mn900 2.209 . S
O925 Mn901 2.215 . S
O925 C902 1.283 . S
O926 Mn900 2.094 . S
O926 C904 1.240 . S
O927 Mn901 2.117 . S
O927 C904 1.264 . S
C928 C921 1.403 . S
C928 C929 1.399 . S
C928 H934 0.929 . S
C929 C909 1.449 . S
C929 C928 1.399 . S
C929 H935 0.930 . S
H930 C910 0.931 . S
H931 C911 0.930 . S
H932 C919 0.931 . S
H933 C920 0.929 . S
H934 C928 0.929 . S
H935 C929 0.930 . S
Mn936 O941 2.095 . S
Mn936 O951 2.162 . S
Mn936 O952 2.297 . S
Mn936 O960 2.385 . S
Mn936 O961 2.209 . S
Mn936 O962 2.094 . S
Mn937 O942 2.121 . S
Mn937 N944 2.257 . S
Mn937 N953 2.282 . S
Mn937 O961 2.215 . S
Mn937 O963 2.117 . S
C938 O960 1.234 . S
C938 O961 1.283 . S
C939 O951 1.281 . S
C939 O952 1.236 . S
C940 O962 1.240 . S
C940 O963 1.264 . S
O941 Mn936 2.095 . S
O941 C950 1.250 . S
O942 Mn937 2.121 . S
O942 C950 1.258 . S
C943 N944 1.326 . S
C943 C947 1.460 . S
C943 H949 0.929 . S
N944 Mn937 2.257 . S
N944 C943 1.326 . S
N944 C948 1.362 . S
C945 C946 1.258 . S
C945 C948 1.431 . S
C945 C965 1.449 . S
C946 C945 1.258 . S
C946 C947 1.477 . S
C946 H966 0.931 . S
C947 C943 1.460 . S
C947 C946 1.477 . S
C947 H967 0.930 . S
C948 N944 1.362 . S
C948 C945 1.431 . S
C948 C958 1.476 . S
H949 C943 0.929 . S
C950 O941 1.250 . S
C950 O942 1.258 . S
O951 Mn936 2.162 . S
O951 C939 1.281 . S
O952 Mn936 2.297 . S
O952 C939 1.236 . S
N953 Mn937 2.282 . S
N953 C954 1.328 . S
N953 C958 1.318 . S
C954 N953 1.328 . S
C954 C955 1.457 . S
C954 H959 0.929 . S
C955 C954 1.457 . S
C955 C956 1.291 . S
C955 H968 0.931 . S
C956 C955 1.291 . S
C956 C957 1.373 . S
C956 H969 0.929 . S
C957 C956 1.373 . S
C957 C958 1.396 . S
C957 C964 1.403 . S
C958 C948 1.476 . S
C958 N953 1.318 . S
C958 C957 1.396 . S
H959 C954 0.929 . S
O960 Mn936 2.385 . S
O960 C938 1.234 . S
O961 Mn936 2.209 . S
O961 Mn937 2.215 . S
O961 C938 1.283 . S
O962 Mn936 2.094 . S
O962 C940 1.240 . S
O963 Mn937 2.117 . S
O963 C940 1.264 . S
C964 C957 1.403 . S
C964 C965 1.399 . S
C964 H970 0.929 . S
C965 C945 1.449 . S
C965 C964 1.399 . S
C965 H971 0.930 . S
H966 C946 0.931 . S
H967 C947 0.930 . S
H968 C955 0.931 . S
H969 C956 0.929 . S
H970 C964 0.929 . S
H971 C965 0.930 . S
Mn972 O977 2.095 . S
Mn972 O987 2.162 . S
Mn972 O988 2.297 . S
Mn972 O996 2.385 . S
Mn972 O997 2.209 . S
Mn972 O998 2.094 . S
Mn973 O978 2.121 . S
Mn973 N980 2.257 . S
Mn973 N989 2.282 . S
Mn973 O997 2.215 . S
Mn973 O999 2.117 . S
C974 O996 1.234 1_556 S
C974 O997 1.283 1_556 S
C975 O987 1.281 . S
C975 O988 1.236 . S
C976 O998 1.240 . S
C976 O999 1.264 . S
O977 Mn972 2.095 . S
O977 C986 1.250 . S
O978 Mn973 2.121 . S
O978 C986 1.258 . S
C979 N980 1.327 . S
C979 C983 1.452 1_554 S
C979 H985 0.936 . S
N980 Mn973 2.257 . S
N980 C979 1.327 . S
N980 C984 1.362 1_554 S
C981 C982 1.258 . S
C981 C984 1.431 . S
C981 C1001 1.449 . S
C982 C981 1.258 . S
C982 C983 1.477 . S
C982 H1002 0.931 . S
C983 C979 1.452 1_556 S
C983 C982 1.477 . S
C983 H1003 0.930 . S
C984 N980 1.362 1_556 S
C984 C981 1.431 . S
C984 C994 1.476 . S
H985 C979 0.936 . S
C986 O977 1.250 . S
C986 O978 1.258 . S
O987 Mn972 2.162 . S
O987 C975 1.281 . S
O988 Mn972 2.297 . S
O988 C975 1.236 . S
N989 Mn973 2.282 . S
N989 C990 1.328 . S
N989 C994 1.318 1_554 S
C990 N989 1.328 . S
C990 C991 1.457 1_554 S
C990 H995 0.929 . S
C991 C990 1.457 1_556 S
C991 C992 1.291 . S
C991 H1004 0.931 . S
C992 C991 1.291 . S
C992 C993 1.373 . S
C992 H1005 0.929 . S
C993 C992 1.373 . S
C993 C994 1.396 . S
C993 C1000 1.403 . S
C994 C984 1.476 . S
C994 N989 1.318 1_556 S
C994 C993 1.396 . S
H995 C990 0.929 . S
O996 Mn972 2.385 . S
O996 C974 1.234 1_554 S
O997 Mn972 2.209 . S
O997 Mn973 2.215 . S
O997 C974 1.283 1_554 S
O998 Mn972 2.094 . S
O998 C976 1.240 . S
O999 Mn973 2.117 . S
O999 C976 1.264 . S
C1000 C993 1.403 . S
C1000 C1001 1.399 . S
C1000 H1006 0.929 . S
C1001 C981 1.449 . S
C1001 C1000 1.399 . S
C1001 H1007 0.930 . S
H1002 C982 0.931 . S
H1003 C983 0.930 . S
H1004 C991 0.931 . S
H1005 C992 0.929 . S
H1006 C1000 0.929 . S
H1007 C1001 0.930 . S
Mn1008 O1013 2.095 . S
Mn1008 O1023 2.162 . S
Mn1008 O1024 2.297 . S
Mn1008 O1032 2.385 . S
Mn1008 O1033 2.209 . S
Mn1008 O1034 2.094 . S
Mn1009 O1014 2.121 . S
Mn1009 N1016 2.257 . S
Mn1009 N1025 2.282 . S
Mn1009 O1033 2.215 . S
Mn1009 O1035 2.117 . S
C1010 O1032 1.234 1_556 S
C1010 O1033 1.283 1_556 S
C1011 O1023 1.281 . S
C1011 O1024 1.236 . S
C1012 O1034 1.240 . S
C1012 O1035 1.264 . S
O1013 Mn1008 2.095 . S
O1013 C1022 1.250 . S
O1014 Mn1009 2.121 . S
O1014 C1022 1.258 . S
C1015 N1016 1.327 . S
C1015 C1019 1.452 1_554 S
C1015 H1021 0.936 . S
N1016 Mn1009 2.257 . S
N1016 C1015 1.327 . S
N1016 C1020 1.362 1_554 S
C1017 C1018 1.258 . S
C1017 C1020 1.431 . S
C1017 C1037 1.449 . S
C1018 C1017 1.258 . S
C1018 C1019 1.477 . S
C1018 H1038 0.931 . S
C1019 C1015 1.452 1_556 S
C1019 C1018 1.477 . S
C1019 H1039 0.930 . S
C1020 N1016 1.362 1_556 S
C1020 C1017 1.431 . S
C1020 C1030 1.476 . S
H1021 C1015 0.936 . S
C1022 O1013 1.250 . S
C1022 O1014 1.258 . S
O1023 Mn1008 2.162 . S
O1023 C1011 1.281 . S
O1024 Mn1008 2.297 . S
O1024 C1011 1.236 . S
N1025 Mn1009 2.282 . S
N1025 C1026 1.328 . S
N1025 C1030 1.318 1_554 S
C1026 N1025 1.328 . S
C1026 C1027 1.457 1_554 S
C1026 H1031 0.929 . S
C1027 C1026 1.457 1_556 S
C1027 C1028 1.291 . S
C1027 H1040 0.931 . S
C1028 C1027 1.291 . S
C1028 C1029 1.373 . S
C1028 H1041 0.929 . S
C1029 C1028 1.373 . S
C1029 C1030 1.396 . S
C1029 C1036 1.403 . S
C1030 C1020 1.476 . S
C1030 N1025 1.318 1_556 S
C1030 C1029 1.396 . S
H1031 C1026 0.929 . S
O1032 Mn1008 2.385 . S
O1032 C1010 1.234 1_554 S
O1033 Mn1008 2.209 . S
O1033 Mn1009 2.215 . S
O1033 C1010 1.283 1_554 S
O1034 Mn1008 2.094 . S
O1034 C1012 1.240 . S
O1035 Mn1009 2.117 . S
O1035 C1012 1.264 . S
C1036 C1029 1.403 . S
C1036 C1037 1.399 . S
C1036 H1042 0.929 . S
C1037 C1017 1.449 . S
C1037 C1036 1.399 . S
C1037 H1043 0.930 . S
H1038 C1018 0.931 . S
H1039 C1019 0.930 . S
H1040 C1027 0.931 . S
H1041 C1028 0.929 . S
H1042 C1036 0.929 . S
H1043 C1037 0.930 . S
Mn1044 O1049 2.095 . S
Mn1044 O1059 2.162 . S
Mn1044 O1060 2.297 . S
Mn1044 O1068 2.385 . S
Mn1044 O1069 2.209 . S
Mn1044 O1070 2.094 . S
Mn1045 O1050 2.121 . S
Mn1045 N1052 2.257 . S
Mn1045 N1061 2.282 . S
Mn1045 O1069 2.215 . S
Mn1045 O1071 2.117 . S
C1046 O1068 1.234 1_556 S
C1046 O1069 1.283 1_556 S
C1047 O1059 1.281 . S
C1047 O1060 1.236 . S
C1048 O1070 1.240 . S
C1048 O1071 1.264 . S
O1049 Mn1044 2.095 . S
O1049 C1058 1.250 . S
O1050 Mn1045 2.121 . S
O1050 C1058 1.258 . S
C1051 N1052 1.327 . S
C1051 C1055 1.453 1_554 S
C1051 H1057 0.935 . S
N1052 Mn1045 2.257 . S
N1052 C1051 1.327 . S
N1052 C1056 1.362 1_554 S
C1053 C1054 1.258 . S
C1053 C1056 1.431 . S
C1053 C1073 1.449 . S
C1054 C1053 1.258 . S
C1054 C1055 1.477 . S
C1054 H1074 0.931 . S
C1055 C1051 1.453 1_556 S
C1055 C1054 1.477 . S
C1055 H1075 0.930 . S
C1056 N1052 1.362 1_556 S
C1056 C1053 1.431 . S
C1056 C1066 1.476 . S
H1057 C1051 0.935 . S
C1058 O1049 1.250 . S
C1058 O1050 1.258 . S
O1059 Mn1044 2.162 . S
O1059 C1047 1.281 . S
O1060 Mn1044 2.297 . S
O1060 C1047 1.236 . S
N1061 Mn1045 2.282 . S
N1061 C1062 1.328 . S
N1061 C1066 1.318 1_554 S
C1062 N1061 1.328 . S
C1062 C1063 1.457 1_554 S
C1062 H1067 0.929 . S
C1063 C1062 1.457 1_556 S
C1063 C1064 1.291 . S
C1063 H1076 0.931 . S
C1064 C1063 1.291 . S
C1064 C1065 1.373 . S
C1064 H1077 0.929 . S
C1065 C1064 1.373 . S
C1065 C1066 1.396 . S
C1065 C1072 1.403 . S
C1066 C1056 1.476 . S
C1066 N1061 1.318 1_556 S
C1066 C1065 1.396 . S
H1067 C1062 0.929 . S
O1068 Mn1044 2.385 . S
O1068 C1046 1.234 1_554 S
O1069 Mn1044 2.209 . S
O1069 Mn1045 2.215 . S
O1069 C1046 1.283 1_554 S
O1070 Mn1044 2.094 . S
O1070 C1048 1.240 . S
O1071 Mn1045 2.117 . S
O1071 C1048 1.264 . S
C1072 C1065 1.403 . S
C1072 C1073 1.399 . S
C1072 H1078 0.929 . S
C1073 C1053 1.449 . S
C1073 C1072 1.399 . S
C1073 H1079 0.930 . S
H1074 C1054 0.931 . S
H1075 C1055 0.930 . S
H1076 C1063 0.931 . S
H1077 C1064 0.929 . S
H1078 C1072 0.929 . S
H1079 C1073 0.930 . S
Mn1080 O1085 2.095 . S
Mn1080 O1095 2.162 . S
Mn1080 O1096 2.297 . S
Mn1080 O1104 2.385 . S
Mn1080 O1105 2.209 . S
Mn1080 O1106 2.094 . S
Mn1081 O1086 2.121 . S
Mn1081 N1088 2.257 . S
Mn1081 N1097 2.282 . S
Mn1081 O1105 2.215 . S
Mn1081 O1107 2.117 . S
C1082 O1104 1.234 . S
C1082 O1105 1.283 . S
C1083 O1095 1.281 . S
C1083 O1096 1.236 . S
C1084 O1106 1.240 . S
C1084 O1107 1.264 . S
O1085 Mn1080 2.095 . S
O1085 C1094 1.250 . S
O1086 Mn1081 2.121 . S
O1086 C1094 1.258 . S
C1087 N1088 1.326 . S
C1087 C1091 1.460 . S
C1087 H1093 0.929 . S
N1088 Mn1081 2.257 . S
N1088 C1087 1.326 . S
N1088 C1092 1.362 . S
C1089 C1090 1.258 . S
C1089 C1092 1.431 . S
C1089 C1109 1.449 . S
C1090 C1089 1.258 . S
C1090 C1091 1.477 . S
C1090 H1110 0.931 . S
C1091 C1087 1.460 . S
C1091 C1090 1.477 . S
C1091 H1111 0.930 . S
C1092 N1088 1.362 . S
C1092 C1089 1.431 . S
C1092 C1102 1.476 . S
H1093 C1087 0.929 . S
C1094 O1085 1.250 . S
C1094 O1086 1.258 . S
O1095 Mn1080 2.162 . S
O1095 C1083 1.281 . S
O1096 Mn1080 2.297 . S
O1096 C1083 1.236 . S
N1097 Mn1081 2.282 . S
N1097 C1098 1.328 . S
N1097 C1102 1.318 . S
C1098 N1097 1.328 . S
C1098 C1099 1.457 . S
C1098 H1103 0.929 . S
C1099 C1098 1.457 . S
C1099 C1100 1.291 . S
C1099 H1112 0.931 . S
C1100 C1099 1.291 . S
C1100 C1101 1.373 . S
C1100 H1113 0.929 . S
C1101 C1100 1.373 . S
C1101 C1102 1.396 . S
C1101 C1108 1.403 . S
C1102 C1092 1.476 . S
C1102 N1097 1.318 . S
C1102 C1101 1.396 . S
H1103 C1098 0.929 . S
O1104 Mn1080 2.385 . S
O1104 C1082 1.234 . S
O1105 Mn1080 2.209 . S
O1105 Mn1081 2.215 . S
O1105 C1082 1.283 . S
O1106 Mn1080 2.094 . S
O1106 C1084 1.240 . S
O1107 Mn1081 2.117 . S
O1107 C1084 1.264 . S
C1108 C1101 1.403 . S
C1108 C1109 1.399 . S
C1108 H1114 0.929 . S
C1109 C1089 1.449 . S
C1109 C1108 1.399 . S
C1109 H1115 0.930 . S
H1110 C1090 0.931 . S
H1111 C1091 0.930 . S
H1112 C1099 0.931 . S
H1113 C1100 0.929 . S
H1114 C1108 0.929 . S
H1115 C1109 0.930 . S
Mn1116 O1121 2.095 . S
Mn1116 O1131 2.162 . S
Mn1116 O1132 2.297 . S
Mn1116 O1140 2.385 . S
Mn1116 O1141 2.209 . S
Mn1116 O1142 2.094 . S
Mn1117 O1122 2.121 . S
Mn1117 N1124 2.257 . S
Mn1117 N1133 2.282 . S
Mn1117 O1141 2.215 . S
Mn1117 O1143 2.117 . S
C1118 O1140 1.234 . S
C1118 O1141 1.283 . S
C1119 O1131 1.281 . S
C1119 O1132 1.236 . S
C1120 O1142 1.240 . S
C1120 O1143 1.264 . S
O1121 Mn1116 2.095 . S
O1121 C1130 1.250 . S
O1122 Mn1117 2.121 . S
O1122 C1130 1.258 . S
C1123 N1124 1.326 . S
C1123 C1127 1.460 . S
C1123 H1129 0.929 . S
N1124 Mn1117 2.257 . S
N1124 C1123 1.326 . S
N1124 C1128 1.362 . S
C1125 C1126 1.258 . S
C1125 C1128 1.431 . S
C1125 C1145 1.449 . S
C1126 C1125 1.258 . S
C1126 C1127 1.477 . S
C1126 H1146 0.931 . S
C1127 C1123 1.460 . S
C1127 C1126 1.477 . S
C1127 H1147 0.930 . S
C1128 N1124 1.362 . S
C1128 C1125 1.431 . S
C1128 C1138 1.476 . S
H1129 C1123 0.929 . S
C1130 O1121 1.250 . S
C1130 O1122 1.258 . S
O1131 Mn1116 2.162 . S
O1131 C1119 1.281 . S
O1132 Mn1116 2.297 . S
O1132 C1119 1.236 . S
N1133 Mn1117 2.282 . S
N1133 C1134 1.328 . S
N1133 C1138 1.318 . S
C1134 N1133 1.328 . S
C1134 C1135 1.457 . S
C1134 H1139 0.929 . S
C1135 C1134 1.457 . S
C1135 C1136 1.291 . S
C1135 H1148 0.931 . S
C1136 C1135 1.291 . S
C1136 C1137 1.373 . S
C1136 H1149 0.929 . S
C1137 C1136 1.373 . S
C1137 C1138 1.396 . S
C1137 C1144 1.403 . S
C1138 C1128 1.476 . S
C1138 N1133 1.318 . S
C1138 C1137 1.396 . S
H1139 C1134 0.929 . S
O1140 Mn1116 2.385 . S
O1140 C1118 1.234 . S
O1141 Mn1116 2.209 . S
O1141 Mn1117 2.215 . S
O1141 C1118 1.283 . S
O1142 Mn1116 2.094 . S
O1142 C1120 1.240 . S
O1143 Mn1117 2.117 . S
O1143 C1120 1.264 . S
C1144 C1137 1.403 . S
C1144 C1145 1.399 . S
C1144 H1150 0.929 . S
C1145 C1125 1.449 . S
C1145 C1144 1.399 . S
C1145 H1151 0.930 . S
H1146 C1126 0.931 . S
H1147 C1127 0.930 . S
H1148 C1135 0.931 . S
H1149 C1136 0.929 . S
H1150 C1144 0.929 . S
H1151 C1145 0.930 . S
Mn1152 O1157 2.095 . S
Mn1152 O1167 2.162 . S
Mn1152 O1168 2.297 . S
Mn1152 O1176 2.385 . S
Mn1152 O1177 2.209 . S
Mn1152 O1178 2.094 . S
Mn1153 O1158 2.121 . S
Mn1153 N1160 2.257 . S
Mn1153 N1169 2.282 . S
Mn1153 O1177 2.215 . S
Mn1153 O1179 2.117 . S
C1154 O1176 1.234 . S
C1154 O1177 1.283 . S
C1155 O1167 1.281 . S
C1155 O1168 1.236 . S
C1156 O1178 1.240 . S
C1156 O1179 1.264 . S
O1157 Mn1152 2.095 . S
O1157 C1166 1.250 . S
O1158 Mn1153 2.121 . S
O1158 C1166 1.258 . S
C1159 N1160 1.326 . S
C1159 C1163 1.460 . S
C1159 H1165 0.929 . S
N1160 Mn1153 2.257 . S
N1160 C1159 1.326 . S
N1160 C1164 1.362 . S
C1161 C1162 1.258 . S
C1161 C1164 1.431 . S
C1161 C1181 1.449 . S
C1162 C1161 1.258 . S
C1162 C1163 1.477 . S
C1162 H1182 0.931 . S
C1163 C1159 1.460 . S
C1163 C1162 1.477 . S
C1163 H1183 0.930 . S
C1164 N1160 1.362 . S
C1164 C1161 1.431 . S
C1164 C1174 1.476 . S
H1165 C1159 0.929 . S
C1166 O1157 1.250 . S
C1166 O1158 1.258 . S
O1167 Mn1152 2.162 . S
O1167 C1155 1.281 . S
O1168 Mn1152 2.297 . S
O1168 C1155 1.236 . S
N1169 Mn1153 2.282 . S
N1169 C1170 1.328 . S
N1169 C1174 1.318 . S
C1170 N1169 1.328 . S
C1170 C1171 1.457 . S
C1170 H1175 0.929 . S
C1171 C1170 1.457 . S
C1171 C1172 1.291 . S
C1171 H1184 0.931 . S
C1172 C1171 1.291 . S
C1172 C1173 1.373 . S
C1172 H1185 0.929 . S
C1173 C1172 1.373 . S
C1173 C1174 1.396 . S
C1173 C1180 1.403 . S
C1174 C1164 1.476 . S
C1174 N1169 1.318 . S
C1174 C1173 1.396 . S
H1175 C1170 0.929 . S
O1176 Mn1152 2.385 . S
O1176 C1154 1.234 . S
O1177 Mn1152 2.209 . S
O1177 Mn1153 2.215 . S
O1177 C1154 1.283 . S
O1178 Mn1152 2.094 . S
O1178 C1156 1.240 . S
O1179 Mn1153 2.117 . S
O1179 C1156 1.264 . S
C1180 C1173 1.403 . S
C1180 C1181 1.399 . S
C1180 H1186 0.929 . S
C1181 C1161 1.449 . S
C1181 C1180 1.399 . S
C1181 H1187 0.930 . S
H1182 C1162 0.931 . S
H1183 C1163 0.930 . S
H1184 C1171 0.931 . S
H1185 C1172 0.929 . S
H1186 C1180 0.929 . S
H1187 C1181 0.930 . S
Mn1188 O1193 2.095 . S
Mn1188 O1203 2.162 . S
Mn1188 O1204 2.297 . S
Mn1188 O1212 2.385 . S
Mn1188 O1213 2.209 . S
Mn1188 O1214 2.094 . S
Mn1189 O1194 2.121 . S
Mn1189 N1196 2.257 . S
Mn1189 N1205 2.282 . S
Mn1189 O1213 2.215 . S
Mn1189 O1215 2.117 . S
C1190 O1212 1.234 . S
C1190 O1213 1.283 . S
C1191 O1203 1.281 . S
C1191 O1204 1.236 . S
C1192 O1214 1.240 . S
C1192 O1215 1.264 . S
O1193 Mn1188 2.095 . S
O1193 C1202 1.250 . S
O1194 Mn1189 2.121 . S
O1194 C1202 1.258 . S
C1195 N1196 1.326 . S
C1195 C1199 1.460 . S
C1195 H1201 0.929 . S
N1196 Mn1189 2.257 . S
N1196 C1195 1.326 . S
N1196 C1200 1.362 . S
C1197 C1198 1.258 . S
C1197 C1200 1.431 . S
C1197 C1217 1.449 . S
C1198 C1197 1.258 . S
C1198 C1199 1.477 . S
C1198 H1218 0.931 . S
C1199 C1195 1.460 . S
C1199 C1198 1.477 . S
C1199 H1219 0.930 . S
C1200 N1196 1.362 . S
C1200 C1197 1.431 . S
C1200 C1210 1.476 . S
H1201 C1195 0.929 . S
C1202 O1193 1.250 . S
C1202 O1194 1.258 . S
O1203 Mn1188 2.162 . S
O1203 C1191 1.281 . S
O1204 Mn1188 2.297 . S
O1204 C1191 1.236 . S
N1205 Mn1189 2.282 . S
N1205 C1206 1.328 . S
N1205 C1210 1.318 . S
C1206 N1205 1.328 . S
C1206 C1207 1.457 . S
C1206 H1211 0.929 . S
C1207 C1206 1.457 . S
C1207 C1208 1.291 . S
C1207 H1220 0.931 . S
C1208 C1207 1.291 . S
C1208 C1209 1.373 . S
C1208 H1221 0.929 . S
C1209 C1208 1.373 . S
C1209 C1210 1.396 . S
C1209 C1216 1.403 . S
C1210 C1200 1.476 . S
C1210 N1205 1.318 . S
C1210 C1209 1.396 . S
H1211 C1206 0.929 . S
O1212 Mn1188 2.385 . S
O1212 C1190 1.234 . S
O1213 Mn1188 2.209 . S
O1213 Mn1189 2.215 . S
O1213 C1190 1.283 . S
O1214 Mn1188 2.094 . S
O1214 C1192 1.240 . S
O1215 Mn1189 2.117 . S
O1215 C1192 1.264 . S
C1216 C1209 1.403 . S
C1216 C1217 1.399 . S
C1216 H1222 0.929 . S
C1217 C1197 1.449 . S
C1217 C1216 1.399 . S
C1217 H1223 0.930 . S
H1218 C1198 0.931 . S
H1219 C1199 0.930 . S
H1220 C1207 0.931 . S
H1221 C1208 0.929 . S
H1222 C1216 0.929 . S
H1223 C1217 0.930 . S
Mn1224 O1229 2.095 . S
Mn1224 O1239 2.162 . S
Mn1224 O1240 2.297 . S
Mn1224 O1248 2.385 . S
Mn1224 O1249 2.209 . S
Mn1224 O1250 2.094 . S
Mn1225 O1230 2.121 . S
Mn1225 N1232 2.257 . S
Mn1225 N1241 2.282 . S
Mn1225 O1249 2.215 . S
Mn1225 O1251 2.117 . S
C1226 O1248 1.234 . S
C1226 O1249 1.283 . S
C1227 O1239 1.281 . S
C1227 O1240 1.236 . S
C1228 O1250 1.240 . S
C1228 O1251 1.264 . S
O1229 Mn1224 2.095 . S
O1229 C1238 1.250 . S
O1230 Mn1225 2.121 . S
O1230 C1238 1.258 . S
C1231 N1232 1.326 . S
C1231 C1235 1.460 . S
C1231 H1237 0.929 . S
N1232 Mn1225 2.257 . S
N1232 C1231 1.326 . S
N1232 C1236 1.362 . S
C1233 C1234 1.258 . S
C1233 C1236 1.431 . S
C1233 C1253 1.449 . S
C1234 C1233 1.258 . S
C1234 C1235 1.477 . S
C1234 H1254 0.931 . S
C1235 C1231 1.460 . S
C1235 C1234 1.477 . S
C1235 H1255 0.930 . S
C1236 N1232 1.362 . S
C1236 C1233 1.431 . S
C1236 C1246 1.476 . S
H1237 C1231 0.929 . S
C1238 O1229 1.250 . S
C1238 O1230 1.258 . S
O1239 Mn1224 2.162 . S
O1239 C1227 1.281 . S
O1240 Mn1224 2.297 . S
O1240 C1227 1.236 . S
N1241 Mn1225 2.282 . S
N1241 C1242 1.328 . S
N1241 C1246 1.318 . S
C1242 N1241 1.328 . S
C1242 C1243 1.457 . S
C1242 H1247 0.929 . S
C1243 C1242 1.457 . S
C1243 C1244 1.291 . S
C1243 H1256 0.931 . S
C1244 C1243 1.291 . S
C1244 C1245 1.373 . S
C1244 H1257 0.929 . S
C1245 C1244 1.373 . S
C1245 C1246 1.396 . S
C1245 C1252 1.403 . S
C1246 C1236 1.476 . S
C1246 N1241 1.318 . S
C1246 C1245 1.396 . S
H1247 C1242 0.929 . S
O1248 Mn1224 2.385 . S
O1248 C1226 1.234 . S
O1249 Mn1224 2.209 . S
O1249 Mn1225 2.215 . S
O1249 C1226 1.283 . S
O1250 Mn1224 2.094 . S
O1250 C1228 1.240 . S
O1251 Mn1225 2.117 . S
O1251 C1228 1.264 . S
C1252 C1245 1.403 . S
C1252 C1253 1.399 . S
C1252 H1258 0.929 . S
C1253 C1233 1.449 . S
C1253 C1252 1.399 . S
C1253 H1259 0.930 . S
H1254 C1234 0.931 . S
H1255 C1235 0.930 . S
H1256 C1243 0.931 . S
H1257 C1244 0.929 . S
H1258 C1252 0.929 . S
H1259 C1253 0.930 . S
Mn1260 O1265 2.095 . S
Mn1260 O1275 2.162 . S
Mn1260 O1276 2.297 . S
Mn1260 O1284 2.385 . S
Mn1260 O1285 2.209 . S
Mn1260 O1286 2.094 . S
Mn1261 O1266 2.121 . S
Mn1261 N1268 2.257 . S
Mn1261 N1277 2.282 . S
Mn1261 O1285 2.215 . S
Mn1261 O1287 2.117 . S
C1262 O1284 1.234 . S
C1262 O1285 1.283 . S
C1263 O1275 1.281 . S
C1263 O1276 1.236 . S
C1264 O1286 1.240 . S
C1264 O1287 1.264 . S
O1265 Mn1260 2.095 . S
O1265 C1274 1.250 . S
O1266 Mn1261 2.121 . S
O1266 C1274 1.258 . S
C1267 N1268 1.326 . S
C1267 C1271 1.460 . S
C1267 H1273 0.929 . S
N1268 Mn1261 2.257 . S
N1268 C1267 1.326 . S
N1268 C1272 1.362 . S
C1269 C1270 1.258 . S
C1269 C1272 1.431 . S
C1269 C1289 1.449 . S
C1270 C1269 1.258 . S
C1270 C1271 1.477 . S
C1270 H1290 0.931 . S
C1271 C1267 1.460 . S
C1271 C1270 1.477 . S
C1271 H1291 0.930 . S
C1272 N1268 1.362 . S
C1272 C1269 1.431 . S
C1272 C1282 1.476 . S
H1273 C1267 0.929 . S
C1274 O1265 1.250 . S
C1274 O1266 1.258 . S
O1275 Mn1260 2.162 . S
O1275 C1263 1.281 . S
O1276 Mn1260 2.297 . S
O1276 C1263 1.236 . S
N1277 Mn1261 2.282 . S
N1277 C1278 1.328 . S
N1277 C1282 1.318 . S
C1278 N1277 1.328 . S
C1278 C1279 1.457 . S
C1278 H1283 0.929 . S
C1279 C1278 1.457 . S
C1279 C1280 1.291 . S
C1279 H1292 0.931 . S
C1280 C1279 1.291 . S
C1280 C1281 1.373 . S
C1280 H1293 0.929 . S
C1281 C1280 1.373 . S
C1281 C1282 1.396 . S
C1281 C1288 1.403 . S
C1282 C1272 1.476 . S
C1282 N1277 1.318 . S
C1282 C1281 1.396 . S
H1283 C1278 0.929 . S
O1284 Mn1260 2.385 . S
O1284 C1262 1.234 . S
O1285 Mn1260 2.209 . S
O1285 Mn1261 2.215 . S
O1285 C1262 1.283 . S
O1286 Mn1260 2.094 . S
O1286 C1264 1.240 . S
O1287 Mn1261 2.117 . S
O1287 C1264 1.264 . S
C1288 C1281 1.403 . S
C1288 C1289 1.399 . S
C1288 H1294 0.929 . S
C1289 C1269 1.449 . S
C1289 C1288 1.399 . S
C1289 H1295 0.930 . S
H1290 C1270 0.931 . S
H1291 C1271 0.930 . S
H1292 C1279 0.931 . S
H1293 C1280 0.929 . S
H1294 C1288 0.929 . S
H1295 C1289 0.930 . S
C1296 C1297 1.369 . S
C1296 C1298 1.419 . S
C1296 H1300 0.930 . S
C1297 C1296 1.369 . S
C1297 C1306 1.429 . S
C1298 C1296 1.419 . S
C1298 C1299 1.363 1_554 S
C1298 H1301 0.929 1_545 S
C1299 C1298 1.363 1_556 S
C1299 C1305 1.428 . S
H1300 C1296 0.930 . S
H1301 C1298 0.929 1_565 S
S1302 N1303 1.613 . S
S1302 N1304 1.610 . S
N1303 S1302 1.613 . S
N1303 C1306 1.350 1_556 S
N1304 S1302 1.610 . S
N1304 C1305 1.351 . S
C1305 C1299 1.428 . S
C1305 N1304 1.351 . S
C1305 C1306 1.434 1_556 S
C1306 C1297 1.429 . S
C1306 N1303 1.350 1_554 S
C1306 C1305 1.434 1_554 S
C1307 C1308 1.361 1_556 S
C1307 C1309 1.423 . S
C1307 H1311 0.933 . S
C1308 C1307 1.361 1_554 S
C1308 C1317 1.429 . S
C1309 C1307 1.423 . S
C1309 C1310 1.363 . S
C1309 H1312 0.929 . S
C1310 C1309 1.363 . S
C1310 C1316 1.428 1_556 S
H1311 C1307 0.933 . S
H1312 C1309 0.929 . S
S1313 N1314 1.613 1_455 S
S1313 N1315 1.610 . S
N1314 S1313 1.613 1_655 S
N1314 C1317 1.350 . S
N1315 S1313 1.610 . S
N1315 C1316 1.351 1_455 S
C1316 C1310 1.428 1_554 S
C1316 N1315 1.351 1_655 S
C1316 C1317 1.434 . S
C1317 C1308 1.429 . S
C1317 N1314 1.350 . S
C1317 C1316 1.434 . S
C1318 C1319 1.369 . S
C1318 C1320 1.419 1_556 S
C1318 H1322 0.930 . S
C1319 C1318 1.369 . S
C1319 C1328 1.429 1_556 S
C1320 C1318 1.419 1_554 S
C1320 C1321 1.363 . S
C1320 H1323 0.929 1_554 S
C1321 C1320 1.363 . S
C1321 C1327 1.428 . S
H1322 C1318 0.930 . S
H1323 C1320 0.929 1_556 S
S1324 N1325 1.613 . S
S1324 N1326 1.610 . S
N1325 S1324 1.613 . S
N1325 C1328 1.350 . S
N1326 S1324 1.610 . S
N1326 C1327 1.351 . S
C1327 C1321 1.428 . S
C1327 N1326 1.351 . S
C1327 C1328 1.434 . S
C1328 C1319 1.429 1_554 S
C1328 N1325 1.350 . S
C1328 C1327 1.434 . S
C1329 C1330 1.369 . S
C1329 C1331 1.419 . S
C1329 H1333 0.930 1_455 S
C1330 C1329 1.369 . S
C1330 C1339 1.429 . S
C1331 C1329 1.419 . S
C1331 C1332 1.363 . S
C1331 H1334 0.929 . S
C1332 C1331 1.363 . S
C1332 C1338 1.428 . S
H1333 C1329 0.930 1_655 S
H1334 C1331 0.929 . S
S1335 N1336 1.613 . S
S1335 N1337 1.610 . S
N1336 S1335 1.613 . S
N1336 C1339 1.350 . S
N1337 S1335 1.610 . S
N1337 C1338 1.351 . S
C1338 C1332 1.428 . S
C1338 N1337 1.351 . S
C1338 C1339 1.434 . S
C1339 C1330 1.429 . S
C1339 N1336 1.350 . S
C1339 C1338 1.434 . S
C1340 C1341 1.369 . S
C1340 C1342 1.419 . S
C1340 H1344 0.930 . S
C1341 C1340 1.369 . S
C1341 C1350 1.429 . S
C1342 C1340 1.419 . S
C1342 C1343 1.363 . S
C1342 H1345 0.929 . S
C1343 C1342 1.363 . S
C1343 C1349 1.428 . S
H1344 C1340 0.930 . S
H1345 C1342 0.929 . S
S1346 N1347 1.613 . S
S1346 N1348 1.610 . S
N1347 S1346 1.613 . S
N1347 C1350 1.350 . S
N1348 S1346 1.610 . S
N1348 C1349 1.351 . S
C1349 C1343 1.428 . S
C1349 N1348 1.351 . S
C1349 C1350 1.434 . S
C1350 C1341 1.429 . S
C1350 N1347 1.350 . S
C1350 C1349 1.434 . S
C1351 C1352 1.369 . S
C1351 C1353 1.419 . S
C1351 H1355 0.930 . S
C1352 C1351 1.369 . S
C1352 C1361 1.429 . S
C1353 C1351 1.419 . S
C1353 C1354 1.363 . S
C1353 H1356 0.929 . S
C1354 C1353 1.363 . S
C1354 C1360 1.428 . S
H1355 C1351 0.930 . S
H1356 C1353 0.929 . S
S1357 N1358 1.613 . S
S1357 N1359 1.610 . S
N1358 S1357 1.613 . S
N1358 C1361 1.350 . S
N1359 S1357 1.610 . S
N1359 C1360 1.351 . S
C1360 C1354 1.428 . S
C1360 N1359 1.351 . S
C1360 C1361 1.434 . S
C1361 C1352 1.429 . S
C1361 N1358 1.350 . S
C1361 C1360 1.434 . S
C1362 C1363 1.368 1_556 S
C1362 C1364 1.442 . S
C1362 H1366 0.908 1_565 S
C1363 C1362 1.368 1_554 S
C1363 C1372 1.429 . S
C1364 C1362 1.442 . S
C1364 C1365 1.363 . S
C1364 H1367 0.929 . S
C1365 C1364 1.363 . S
C1365 C1371 1.428 . S
H1366 C1362 0.908 1_545 S
H1367 C1364 0.929 . S
S1368 N1369 1.613 . S
S1368 N1370 1.610 . S
N1369 S1368 1.613 . S
N1369 C1372 1.350 . S
N1370 S1368 1.610 . S
N1370 C1371 1.351 1_554 S
C1371 C1365 1.428 . S
C1371 N1370 1.351 1_556 S
C1371 C1372 1.434 1_556 S
C1372 C1363 1.429 . S
C1372 N1369 1.350 . S
C1372 C1371 1.434 1_554 S
C1373 C1374 1.366 1_556 S
C1373 C1375 1.425 . S
C1373 H1377 0.927 1_556 S
C1374 C1373 1.366 1_554 S
C1374 C1383 1.429 1_554 S
C1375 C1373 1.425 . S
C1375 C1376 1.363 . S
C1375 H1378 0.929 . S
C1376 C1375 1.363 . S
C1376 C1382 1.428 . S
H1377 C1373 0.927 1_554 S
H1378 C1375 0.929 . S
S1379 N1380 1.613 1_556 S
S1379 N1381 1.610 1_655 S
N1380 S1379 1.613 1_554 S
N1380 C1383 1.350 1_654 S
N1381 S1379 1.610 1_455 S
N1381 C1382 1.351 . S
C1382 C1376 1.428 . S
C1382 N1381 1.351 . S
C1382 C1383 1.434 . S
C1383 C1374 1.429 1_556 S
C1383 N1380 1.350 1_456 S
C1383 C1382 1.434 . S
C1384 C1385 1.369 . S
C1384 C1386 1.419 1_556 S
C1384 H1388 0.930 . S
C1385 C1384 1.369 . S
C1385 C1394 1.429 . S
C1386 C1384 1.419 1_554 S
C1386 C1387 1.363 . S
C1386 H1389 0.929 . S
C1387 C1386 1.363 . S
C1387 C1393 1.428 1_554 S
H1388 C1384 0.930 . S
H1389 C1386 0.929 . S
S1390 N1391 1.613 . S
S1390 N1392 1.610 . S
N1391 S1390 1.613 . S
N1391 C1394 1.350 . S
N1392 S1390 1.610 . S
N1392 C1393 1.351 . S
C1393 C1387 1.428 1_556 S
C1393 N1392 1.351 . S
C1393 C1394 1.434 . S
C1394 C1385 1.429 . S
C1394 N1391 1.350 . S
C1394 C1393 1.434 . S
C1395 C1396 1.369 . S
C1395 C1397 1.419 . S
C1395 H1399 0.930 . S
C1396 C1395 1.369 . S
C1396 C1405 1.429 . S
C1397 C1395 1.419 . S
C1397 C1398 1.363 . S
C1397 H1400 0.929 . S
C1398 C1397 1.363 . S
C1398 C1404 1.428 . S
H1399 C1395 0.930 . S
H1400 C1397 0.929 . S
S1401 N1402 1.613 1_455 S
S1401 N1403 1.610 . S
N1402 S1401 1.613 1_655 S
N1402 C1405 1.350 . S
N1403 S1401 1.610 . S
N1403 C1404 1.351 1_455 S
C1404 C1398 1.428 . S
C1404 N1403 1.351 1_655 S
C1404 C1405 1.434 . S
C1405 C1396 1.429 . S
C1405 N1402 1.350 . S
C1405 C1404 1.434 . S
C1406 C1407 1.369 . S
C1406 C1408 1.419 . S
C1406 H1410 0.930 . S
C1407 C1406 1.369 . S
C1407 C1416 1.429 . S
C1408 C1406 1.419 . S
C1408 C1409 1.363 . S
C1408 H1411 0.929 . S
C1409 C1408 1.363 . S
C1409 C1415 1.428 . S
H1410 C1406 0.930 . S
H1411 C1408 0.929 . S
S1412 N1413 1.613 . S
S1412 N1414 1.610 . S
N1413 S1412 1.613 . S
N1413 C1416 1.350 . S
N1414 S1412 1.610 . S
N1414 C1415 1.351 . S
C1415 C1409 1.428 . S
C1415 N1414 1.351 . S
C1415 C1416 1.434 . S
C1416 C1407 1.429 . S
C1416 N1413 1.350 . S
C1416 C1415 1.434 . S
C1417 C1418 1.369 . S
C1417 C1419 1.419 . S
C1417 H1421 0.930 . S
C1418 C1417 1.369 . S
C1418 C1427 1.429 . S
C1419 C1417 1.419 . S
C1419 C1420 1.363 . S
C1419 H1422 0.929 1_545 S
C1420 C1419 1.363 . S
C1420 C1426 1.428 . S
H1421 C1417 0.930 . S
H1422 C1419 0.929 1_565 S
S1423 N1424 1.613 . S
S1423 N1425 1.610 . S
N1424 S1423 1.613 . S
N1424 C1427 1.350 . S
N1425 S1423 1.610 . S
N1425 C1426 1.351 . S
C1426 C1420 1.428 . S
C1426 N1425 1.351 . S
C1426 C1427 1.434 . S
C1427 C1418 1.429 . S
C1427 N1424 1.350 . S
C1427 C1426 1.434 . S
C1428 C1429 1.369 . S
C1428 C1430 1.419 . S
C1428 H1432 0.930 . S
C1429 C1428 1.369 . S
C1429 C1438 1.429 . S
C1430 C1428 1.419 . S
C1430 C1431 1.363 . S
C1430 H1433 0.929 . S
C1431 C1430 1.363 . S
C1431 C1437 1.428 . S
H1432 C1428 0.930 . S
H1433 C1430 0.929 . S
S1434 N1435 1.613 . S
S1434 N1436 1.610 . S
N1435 S1434 1.613 . S
N1435 C1438 1.350 . S
N1436 S1434 1.610 . S
N1436 C1437 1.351 . S
C1437 C1431 1.428 . S
C1437 N1436 1.351 . S
C1437 C1438 1.434 . S
C1438 C1429 1.429 . S
C1438 N1435 1.350 . S
C1438 C1437 1.434 . S
C1439 C1440 1.369 . S
C1439 C1441 1.419 . S
C1439 H1443 0.930 . S
C1440 C1439 1.369 . S
C1440 C1449 1.429 . S
C1441 C1439 1.419 . S
C1441 C1442 1.363 . S
C1441 H1444 0.929 . S
C1442 C1441 1.363 . S
C1442 C1448 1.428 . S
H1443 C1439 0.930 . S
H1444 C1441 0.929 . S
S1445 N1446 1.613 . S
S1445 N1447 1.610 . S
N1446 S1445 1.613 . S
N1446 C1449 1.350 . S
N1447 S1445 1.610 . S
N1447 C1448 1.351 . S
C1448 C1442 1.428 . S
C1448 N1447 1.351 . S
C1448 C1449 1.434 . S
C1449 C1440 1.429 . S
C1449 N1446 1.350 . S
C1449 C1448 1.434 . S
C1450 C1451 1.369 . S
C1450 C1452 1.419 . S
C1450 H1454 0.930 . S
C1451 C1450 1.369 . S
C1451 C1460 1.429 . S
C1452 C1450 1.419 . S
C1452 C1453 1.363 . S
C1452 H1455 0.929 . S
C1453 C1452 1.363 . S
C1453 C1459 1.428 . S
H1454 C1450 0.930 . S
H1455 C1452 0.929 . S
S1456 N1457 1.613 . S
S1456 N1458 1.610 . S
N1457 S1456 1.613 . S
N1457 C1460 1.350 . S
N1458 S1456 1.610 . S
N1458 C1459 1.351 . S
C1459 C1453 1.428 . S
C1459 N1458 1.351 . S
C1459 C1460 1.434 . S
C1460 C1451 1.429 . S
C1460 N1457 1.350 . S
C1460 C1459 1.434 . S
C1461 C1462 1.369 . S
C1461 C1463 1.419 . S
C1461 H1465 0.930 . S
C1462 C1461 1.369 . S
C1462 C1471 1.429 . S
C1463 C1461 1.419 . S
C1463 C1464 1.363 . S
C1463 H1466 0.929 . S
C1464 C1463 1.363 . S
C1464 C1470 1.428 . S
H1465 C1461 0.930 . S
H1466 C1463 0.929 . S
S1467 N1468 1.613 . S
S1467 N1469 1.610 . S
N1468 S1467 1.613 . S
N1468 C1471 1.350 . S
N1469 S1467 1.610 . S
N1469 C1470 1.351 . S
C1470 C1464 1.428 . S
C1470 N1469 1.351 . S
C1470 C1471 1.434 . S
C1471 C1462 1.429 . S
C1471 N1468 1.350 . S
C1471 C1470 1.434 . S
C1472 C1473 1.369 . S
C1472 C1474 1.419 . S
C1472 H1476 0.930 . S
C1473 C1472 1.369 . S
C1473 C1482 1.429 . S
C1474 C1472 1.419 . S
C1474 C1475 1.363 . S
C1474 H1477 0.929 . S
C1475 C1474 1.363 . S
C1475 C1481 1.428 . S
H1476 C1472 0.930 . S
H1477 C1474 0.929 . S
S1478 N1479 1.613 . S
S1478 N1480 1.610 . S
N1479 S1478 1.613 . S
N1479 C1482 1.350 . S
N1480 S1478 1.610 . S
N1480 C1481 1.351 . S
C1481 C1475 1.428 . S
C1481 N1480 1.351 . S
C1481 C1482 1.434 . S
C1482 C1473 1.429 . S
C1482 N1479 1.350 . S
C1482 C1481 1.434 . S
C1483 C1484 1.369 . S
C1483 C1485 1.419 . S
C1483 H1487 0.930 . S
C1484 C1483 1.369 . S
C1484 C1493 1.429 . S
C1485 C1483 1.419 . S
C1485 C1486 1.363 . S
C1485 H1488 0.929 . S
C1486 C1485 1.363 . S
C1486 C1492 1.428 . S
H1487 C1483 0.930 . S
H1488 C1485 0.929 . S
S1489 N1490 1.613 . S
S1489 N1491 1.610 . S
N1490 S1489 1.613 . S
N1490 C1493 1.350 . S
N1491 S1489 1.610 . S
N1491 C1492 1.351 . S
C1492 C1486 1.428 . S
C1492 N1491 1.351 . S
C1492 C1493 1.434 . S
C1493 C1484 1.429 . S
C1493 N1490 1.350 . S
C1493 C1492 1.434 . S
C1494 C1495 1.369 . S
C1494 C1496 1.419 . S
C1494 H1498 0.930 . S
C1495 C1494 1.369 . S
C1495 C1504 1.429 . S
C1496 C1494 1.419 . S
C1496 C1497 1.363 . S
C1496 H1499 0.929 . S
C1497 C1496 1.363 . S
C1497 C1503 1.428 . S
H1498 C1494 0.930 . S
H1499 C1496 0.929 . S
S1500 N1501 1.613 . S
S1500 N1502 1.610 . S
N1501 S1500 1.613 . S
N1501 C1504 1.350 . S
N1502 S1500 1.610 . S
N1502 C1503 1.351 . S
C1503 C1497 1.428 . S
C1503 N1502 1.351 . S
C1503 C1504 1.434 . S
C1504 C1495 1.429 . S
C1504 N1501 1.350 . S
C1504 C1503 1.434 . S
C1505 C1506 1.369 . S
C1505 C1507 1.419 . S
C1505 H1509 0.930 . S
C1506 C1505 1.369 . S
C1506 C1515 1.429 . S
C1507 C1505 1.419 . S
C1507 C1508 1.363 . S
C1507 H1510 0.929 . S
C1508 C1507 1.363 . S
C1508 C1514 1.428 . S
H1509 C1505 0.930 . S
H1510 C1507 0.929 . S
S1511 N1512 1.613 . S
S1511 N1513 1.610 . S
N1512 S1511 1.613 . S
N1512 C1515 1.350 . S
N1513 S1511 1.610 . S
N1513 C1514 1.351 . S
C1514 C1508 1.428 . S
C1514 N1513 1.351 . S
C1514 C1515 1.434 . S
C1515 C1506 1.429 . S
C1515 N1512 1.350 . S
C1515 C1514 1.434 . S
C1516 C1517 1.369 . S
C1516 C1518 1.419 . S
C1516 H1520 0.930 . S
C1517 C1516 1.369 . S
C1517 C1526 1.429 . S
C1518 C1516 1.419 . S
C1518 C1519 1.363 . S
C1518 H1521 0.929 . S
C1519 C1518 1.363 . S
C1519 C1525 1.428 . S
H1520 C1516 0.930 . S
H1521 C1518 0.929 . S
S1522 N1523 1.613 . S
S1522 N1524 1.610 . S
N1523 S1522 1.613 . S
N1523 C1526 1.350 . S
N1524 S1522 1.610 . S
N1524 C1525 1.351 . S
C1525 C1519 1.428 . S
C1525 N1524 1.351 . S
C1525 C1526 1.434 . S
C1526 C1517 1.429 . S
C1526 N1523 1.350 . S
C1526 C1525 1.434 . S
C1527 C1528 1.369 . S
C1527 C1529 1.419 . S
C1527 H1531 0.930 . S
C1528 C1527 1.369 . S
C1528 C1537 1.429 . S
C1529 C1527 1.419 . S
C1529 C1530 1.363 . S
C1529 H1532 0.929 . S
C1530 C1529 1.363 . S
C1530 C1536 1.428 . S
H1531 C1527 0.930 . S
H1532 C1529 0.929 . S
S1533 N1534 1.613 . S
S1533 N1535 1.610 . S
N1534 S1533 1.613 . S
N1534 C1537 1.350 . S
N1535 S1533 1.610 . S
N1535 C1536 1.351 . S
C1536 C1530 1.428 . S
C1536 N1535 1.351 . S
C1536 C1537 1.434 . S
C1537 C1528 1.429 . S
C1537 N1534 1.350 . S
C1537 C1536 1.434 . S
C1538 C1539 1.369 . S
C1538 C1540 1.419 . S
C1538 H1542 0.930 . S
C1539 C1538 1.369 . S
C1539 C1548 1.429 . S
C1540 C1538 1.419 . S
C1540 C1541 1.363 . S
C1540 H1543 0.929 . S
C1541 C1540 1.363 . S
C1541 C1547 1.428 . S
H1542 C1538 0.930 . S
H1543 C1540 0.929 . S
S1544 N1545 1.613 . S
S1544 N1546 1.610 . S
N1545 S1544 1.613 . S
N1545 C1548 1.350 . S
N1546 S1544 1.610 . S
N1546 C1547 1.351 . S
C1547 C1541 1.428 . S
C1547 N1546 1.351 . S
C1547 C1548 1.434 . S
C1548 C1539 1.429 . S
C1548 N1545 1.350 . S
C1548 C1547 1.434 . S
C1549 C1550 1.369 . S
C1549 C1551 1.419 . S
C1549 H1553 0.930 . S
C1550 C1549 1.369 . S
C1550 C1559 1.429 . S
C1551 C1549 1.419 . S
C1551 C1552 1.363 . S
C1551 H1554 0.929 . S
C1552 C1551 1.363 . S
C1552 C1558 1.428 . S
H1553 C1549 0.930 . S
H1554 C1551 0.929 . S
S1555 N1556 1.613 . S
S1555 N1557 1.610 . S
N1556 S1555 1.613 . S
N1556 C1559 1.350 . S
N1557 S1555 1.610 . S
N1557 C1558 1.351 . S
C1558 C1552 1.428 . S
C1558 N1557 1.351 . S
C1558 C1559 1.434 . S
C1559 C1550 1.429 . S
C1559 N1556 1.350 . S
C1559 C1558 1.434 . S
C1560 C1561 1.369 . S
C1560 C1562 1.419 . S
C1560 H1564 0.930 . S
C1561 C1560 1.369 . S
C1561 C1570 1.429 . S
C1562 C1560 1.419 . S
C1562 C1563 1.363 . S
C1562 H1565 0.929 . S
C1563 C1562 1.363 . S
C1563 C1569 1.428 . S
H1564 C1560 0.930 . S
H1565 C1562 0.929 . S
S1566 N1567 1.613 . S
S1566 N1568 1.610 . S
N1567 S1566 1.613 . S
N1567 C1570 1.350 . S
N1568 S1566 1.610 . S
N1568 C1569 1.351 . S
C1569 C1563 1.428 . S
C1569 N1568 1.351 . S
C1569 C1570 1.434 . S
C1570 C1561 1.429 . S
C1570 N1567 1.350 . S
C1570 C1569 1.434 . S
C1571 C1572 1.369 . S
C1571 C1573 1.419 . S
C1571 H1575 0.930 . S
C1572 C1571 1.369 . S
C1572 C1581 1.429 . S
C1573 C1571 1.419 . S
C1573 C1574 1.363 . S
C1573 H1576 0.929 . S
C1574 C1573 1.363 . S
C1574 C1580 1.428 . S
H1575 C1571 0.930 . S
H1576 C1573 0.929 . S
S1577 N1578 1.613 . S
S1577 N1579 1.610 . S
N1578 S1577 1.613 . S
N1578 C1581 1.350 . S
N1579 S1577 1.610 . S
N1579 C1580 1.351 . S
C1580 C1574 1.428 . S
C1580 N1579 1.351 . S
C1580 C1581 1.434 . S
C1581 C1572 1.429 . S
C1581 N1578 1.350 . S
C1581 C1580 1.434 . S
C1582 C1583 1.369 . S
C1582 C1584 1.419 . S
C1582 H1586 0.930 . S
C1583 C1582 1.369 . S
C1583 C1592 1.429 . S
C1584 C1582 1.419 . S
C1584 C1585 1.363 . S
C1584 H1587 0.929 . S
C1585 C1584 1.363 . S
C1585 C1591 1.428 . S
H1586 C1582 0.930 . S
H1587 C1584 0.929 . S
S1588 N1589 1.613 . S
S1588 N1590 1.610 . S
N1589 S1588 1.613 . S
N1589 C1592 1.350 . S
N1590 S1588 1.610 . S
N1590 C1591 1.351 . S
C1591 C1585 1.428 . S
C1591 N1590 1.351 . S
C1591 C1592 1.434 . S
C1592 C1583 1.429 . S
C1592 N1589 1.350 . S
C1592 C1591 1.434 . S
C1593 C1594 1.369 . S
C1593 C1595 1.419 . S
C1593 H1597 0.930 . S
C1594 C1593 1.369 . S
C1594 C1603 1.429 . S
C1595 C1593 1.419 . S
C1595 C1596 1.363 . S
C1595 H1598 0.929 . S
C1596 C1595 1.363 . S
C1596 C1602 1.428 . S
H1597 C1593 0.930 . S
H1598 C1595 0.929 . S
S1599 N1600 1.613 . S
S1599 N1601 1.610 . S
N1600 S1599 1.613 . S
N1600 C1603 1.350 . S
N1601 S1599 1.610 . S
N1601 C1602 1.351 . S
C1602 C1596 1.428 . S
C1602 N1601 1.351 . S
C1602 C1603 1.434 . S
C1603 C1594 1.429 . S
C1603 N1600 1.350 . S
C1603 C1602 1.434 . S
C1604 C1605 1.369 . S
C1604 C1606 1.419 . S
C1604 H1608 0.930 . S
C1605 C1604 1.369 . S
C1605 C1614 1.429 . S
C1606 C1604 1.419 . S
C1606 C1607 1.363 . S
C1606 H1609 0.929 . S
C1607 C1606 1.363 . S
C1607 C1613 1.428 . S
H1608 C1604 0.930 . S
H1609 C1606 0.929 . S
S1610 N1611 1.613 . S
S1610 N1612 1.610 . S
N1611 S1610 1.613 . S
N1611 C1614 1.350 . S
N1612 S1610 1.610 . S
N1612 C1613 1.351 . S
C1613 C1607 1.428 . S
C1613 N1612 1.351 . S
C1613 C1614 1.434 . S
C1614 C1605 1.429 . S
C1614 N1611 1.350 . S
C1614 C1613 1.434 . S
C1615 C1616 1.369 . S
C1615 C1617 1.419 . S
C1615 H1619 0.930 . S
C1616 C1615 1.369 . S
C1616 C1625 1.429 . S
C1617 C1615 1.419 . S
C1617 C1618 1.363 . S
C1617 H1620 0.929 . S
C1618 C1617 1.363 . S
C1618 C1624 1.428 . S
H1619 C1615 0.930 . S
H1620 C1617 0.929 . S
S1621 N1622 1.613 . S
S1621 N1623 1.610 . S
N1622 S1621 1.613 . S
N1622 C1625 1.350 . S
N1623 S1621 1.610 . S
N1623 C1624 1.351 . S
C1624 C1618 1.428 . S
C1624 N1623 1.351 . S
C1624 C1625 1.434 . S
C1625 C1616 1.429 . S
C1625 N1622 1.350 . S
C1625 C1624 1.434 . S
C1626 C1627 1.369 . S
C1626 C1628 1.419 . S
C1626 H1630 0.930 . S
C1627 C1626 1.369 . S
C1627 C1636 1.429 . S
C1628 C1626 1.419 . S
C1628 C1629 1.363 . S
C1628 H1631 0.929 . S
C1629 C1628 1.363 . S
C1629 C1635 1.428 . S
H1630 C1626 0.930 . S
H1631 C1628 0.929 . S
S1632 N1633 1.613 . S
S1632 N1634 1.610 . S
N1633 S1632 1.613 . S
N1633 C1636 1.350 . S
N1634 S1632 1.610 . S
N1634 C1635 1.351 . S
C1635 C1629 1.428 . S
C1635 N1634 1.351 . S
C1635 C1636 1.434 . S
C1636 C1627 1.429 . S
C1636 N1633 1.350 . S
C1636 C1635 1.434 . S
C1637 C1638 1.369 . S
C1637 C1639 1.419 . S
C1637 H1641 0.930 . S
C1638 C1637 1.369 . S
C1638 C1647 1.429 . S
C1639 C1637 1.419 . S
C1639 C1640 1.363 . S
C1639 H1642 0.929 . S
C1640 C1639 1.363 . S
C1640 C1646 1.428 . S
H1641 C1637 0.930 . S
H1642 C1639 0.929 . S
S1643 N1644 1.613 . S
S1643 N1645 1.610 . S
N1644 S1643 1.613 . S
N1644 C1647 1.350 . S
N1645 S1643 1.610 . S
N1645 C1646 1.351 . S
C1646 C1640 1.428 . S
C1646 N1645 1.351 . S
C1646 C1647 1.434 . S
C1647 C1638 1.429 . S
C1647 N1644 1.350 . S
C1647 C1646 1.434 . S
C1648 C1649 1.369 . S
C1648 C1650 1.419 . S
C1648 H1652 0.930 . S
C1649 C1648 1.369 . S
C1649 C1658 1.429 . S
C1650 C1648 1.419 . S
C1650 C1651 1.363 . S
C1650 H1653 0.929 . S
C1651 C1650 1.363 . S
C1651 C1657 1.428 . S
H1652 C1648 0.930 . S
H1653 C1650 0.929 . S
S1654 N1655 1.613 . S
S1654 N1656 1.610 . S
N1655 S1654 1.613 . S
N1655 C1658 1.350 . S
N1656 S1654 1.610 . S
N1656 C1657 1.351 . S
C1657 C1651 1.428 . S
C1657 N1656 1.351 . S
C1657 C1658 1.434 . S
C1658 C1649 1.429 . S
C1658 N1655 1.350 . S
C1658 C1657 1.434 . S
C1659 C1660 1.369 . S
C1659 C1661 1.419 . S
C1659 H1663 0.930 . S
C1660 C1659 1.369 . S
C1660 C1669 1.429 . S
C1661 C1659 1.419 . S
C1661 C1662 1.363 . S
C1661 H1664 0.929 . S
C1662 C1661 1.363 . S
C1662 C1668 1.428 . S
H1663 C1659 0.930 . S
H1664 C1661 0.929 . S
S1665 N1666 1.613 . S
S1665 N1667 1.610 . S
N1666 S1665 1.613 . S
N1666 C1669 1.350 . S
N1667 S1665 1.610 . S
N1667 C1668 1.351 . S
C1668 C1662 1.428 . S
C1668 N1667 1.351 . S
C1668 C1669 1.434 . S
C1669 C1660 1.429 . S
C1669 N1666 1.350 . S
C1669 C1668 1.434 . S
C1670 C1671 1.369 . S
C1670 C1672 1.419 . S
C1670 H1674 0.930 . S
C1671 C1670 1.369 . S
C1671 C1680 1.429 . S
C1672 C1670 1.419 . S
C1672 C1673 1.363 . S
C1672 H1675 0.929 . S
C1673 C1672 1.363 . S
C1673 C1679 1.428 . S
H1674 C1670 0.930 . S
H1675 C1672 0.929 . S
S1676 N1677 1.613 . S
S1676 N1678 1.610 . S
N1677 S1676 1.613 . S
N1677 C1680 1.350 . S
N1678 S1676 1.610 . S
N1678 C1679 1.351 . S
C1679 C1673 1.428 . S
C1679 N1678 1.351 . S
C1679 C1680 1.434 . S
C1680 C1671 1.429 . S
C1680 N1677 1.350 . S
C1680 C1679 1.434 . S
C1681 C1682 1.369 . S
C1681 C1683 1.419 . S
C1681 H1685 0.930 . S
C1682 C1681 1.369 . S
C1682 C1691 1.429 . S
C1683 C1681 1.419 . S
C1683 C1684 1.363 . S
C1683 H1686 0.929 . S
C1684 C1683 1.363 . S
C1684 C1690 1.428 . S
H1685 C1681 0.930 . S
H1686 C1683 0.929 . S
S1687 N1688 1.613 . S
S1687 N1689 1.610 . S
N1688 S1687 1.613 . S
N1688 C1691 1.350 . S
N1689 S1687 1.610 . S
N1689 C1690 1.351 . S
C1690 C1684 1.428 . S
C1690 N1689 1.351 . S
C1690 C1691 1.434 . S
C1691 C1682 1.429 . S
C1691 N1688 1.350 . S
C1691 C1690 1.434 . S
C1692 C1693 1.369 . S
C1692 C1694 1.419 . S
C1692 H1696 0.930 . S
C1693 C1692 1.369 . S
C1693 C1702 1.429 . S
C1694 C1692 1.419 . S
C1694 C1695 1.363 . S
C1694 H1697 0.929 . S
C1695 C1694 1.363 . S
C1695 C1701 1.428 . S
H1696 C1692 0.930 . S
H1697 C1694 0.929 . S
S1698 N1699 1.613 . S
S1698 N1700 1.610 . S
N1699 S1698 1.613 . S
N1699 C1702 1.350 . S
N1700 S1698 1.610 . S
N1700 C1701 1.351 . S
C1701 C1695 1.428 . S
C1701 N1700 1.351 . S
C1701 C1702 1.434 . S
C1702 C1693 1.429 . S
C1702 N1699 1.350 . S
C1702 C1701 1.434 . S
C1703 C1704 1.369 . S
C1703 C1705 1.419 1_565 S
C1703 H1707 0.930 . S
C1704 C1703 1.369 . S
C1704 C1713 1.429 . S
C1705 C1703 1.419 1_545 S
C1705 C1706 1.363 . S
C1705 H1708 0.929 . S
C1706 C1705 1.363 . S
C1706 C1712 1.428 . S
H1707 C1703 0.930 . S
H1708 C1705 0.929 . S
S1709 N1710 1.613 . S
S1709 N1711 1.610 . S
N1710 S1709 1.613 . S
N1710 C1713 1.350 . S
N1711 S1709 1.610 . S
N1711 C1712 1.351 1_565 S
C1712 C1706 1.428 . S
C1712 N1711 1.351 1_545 S
C1712 C1713 1.434 1_545 S
C1713 C1704 1.429 . S
C1713 N1710 1.350 . S
C1713 C1712 1.434 1_565 S
C1714 C1715 1.369 . S
C1714 C1716 1.419 . S
C1714 H1718 0.930 . S
C1715 C1714 1.369 . S
C1715 C1724 1.429 1_655 S
C1716 C1714 1.419 . S
C1716 C1717 1.363 1_655 S
C1716 H1719 0.929 . S
C1717 C1716 1.363 1_455 S
C1717 C1723 1.428 . S
H1718 C1714 0.930 . S
H1719 C1716 0.929 . S
S1720 N1721 1.613 . S
S1720 N1722 1.610 . S
N1721 S1720 1.613 . S
N1721 C1724 1.350 . S
N1722 S1720 1.610 . S
N1722 C1723 1.351 . S
C1723 C1717 1.428 . S
C1723 N1722 1.351 . S
C1723 C1724 1.434 . S
C1724 C1715 1.429 1_455 S
C1724 N1721 1.350 . S
C1724 C1723 1.434 . S
C1725 C1726 1.369 . S
C1725 C1727 1.419 . S
C1725 H1729 0.930 . S
C1726 C1725 1.369 . S
C1726 C1735 1.429 . S
C1727 C1725 1.419 . S
C1727 C1728 1.363 . S
C1727 H1730 0.929 . S
C1728 C1727 1.363 . S
C1728 C1734 1.428 . S
H1729 C1725 0.930 . S
H1730 C1727 0.929 . S
S1731 N1732 1.613 . S
S1731 N1733 1.610 . S
N1732 S1731 1.613 . S
N1732 C1735 1.350 . S
N1733 S1731 1.610 . S
N1733 C1734 1.351 . S
C1734 C1728 1.428 . S
C1734 N1733 1.351 . S
C1734 C1735 1.434 . S
C1735 C1726 1.429 . S
C1735 N1732 1.350 . S
C1735 C1734 1.434 . S
C1736 C1737 1.369 . S
C1736 C1738 1.419 1_545 S
C1736 H1740 0.930 . S
C1737 C1736 1.369 . S
C1737 C1746 1.429 . S
C1738 C1736 1.419 1_565 S
C1738 C1739 1.363 . S
C1738 H1741 0.929 . S
C1739 C1738 1.363 . S
C1739 C1745 1.428 . S
H1740 C1736 0.930 . S
H1741 C1738 0.929 . S
S1742 N1743 1.613 1_565 S
S1742 N1744 1.610 . S
N1743 S1742 1.613 1_545 S
N1743 C1746 1.350 . S
N1744 S1742 1.610 . S
N1744 C1745 1.351 . S
C1745 C1739 1.428 . S
C1745 N1744 1.351 . S
C1745 C1746 1.434 1_565 S
C1746 C1737 1.429 . S
C1746 N1743 1.350 . S
C1746 C1745 1.434 1_545 S
C1747 C1748 1.369 . S
C1747 C1749 1.433 . S
C1747 H1751 0.930 . S
C1748 C1747 1.369 . S
C1748 C1757 1.429 1_655 S
C1749 C1747 1.433 . S
C1749 C1750 1.341 1_655 S
C1749 H1752 0.938 . S
C1750 C1749 1.341 1_455 S
C1750 C1756 1.428 . S
H1751 C1747 0.930 . S
H1752 C1749 0.938 . S
S1753 N1754 1.613 . S
S1753 N1755 1.610 . S
N1754 S1753 1.613 . S
N1754 C1757 1.350 . S
N1755 S1753 1.610 . S
N1755 C1756 1.351 . S
C1756 C1750 1.428 . S
C1756 N1755 1.351 . S
C1756 C1757 1.434 . S
C1757 C1748 1.429 1_455 S
C1757 N1754 1.350 . S
C1757 C1756 1.434 . S
C1758 C1759 1.369 . S
C1758 C1760 1.419 . S
C1758 H1762 0.930 . S
C1759 C1758 1.369 . S
C1759 C1768 1.429 . S
C1760 C1758 1.419 . S
C1760 C1761 1.363 . S
C1760 H1763 0.929 . S
C1761 C1760 1.363 . S
C1761 C1767 1.428 . S
H1762 C1758 0.930 . S
H1763 C1760 0.929 . S
S1764 N1765 1.613 . S
S1764 N1766 1.610 . S
N1765 S1764 1.613 . S
N1765 C1768 1.350 . S
N1766 S1764 1.610 . S
N1766 C1767 1.351 . S
C1767 C1761 1.428 . S
C1767 N1766 1.351 . S
C1767 C1768 1.434 . S
C1768 C1759 1.429 . S
C1768 N1765 1.350 . S
C1768 C1767 1.434 . S
C1769 C1770 1.369 . S
C1769 C1771 1.419 . S
C1769 H1773 0.930 . S
C1770 C1769 1.369 . S
C1770 C1779 1.429 . S
C1771 C1769 1.419 . S
C1771 C1772 1.363 . S
C1771 H1774 0.929 . S
C1772 C1771 1.363 . S
C1772 C1778 1.428 . S
H1773 C1769 0.930 . S
H1774 C1771 0.929 . S
S1775 N1776 1.613 . S
S1775 N1777 1.610 . S
N1776 S1775 1.613 . S
N1776 C1779 1.350 . S
N1777 S1775 1.610 . S
N1777 C1778 1.351 . S
C1778 C1772 1.428 . S
C1778 N1777 1.351 . S
C1778 C1779 1.434 . S
C1779 C1770 1.429 . S
C1779 N1776 1.350 . S
C1779 C1778 1.434 . S
C1780 C1781 1.369 . S
C1780 C1782 1.419 . S
C1780 H1784 0.930 . S
C1781 C1780 1.369 . S
C1781 C1790 1.429 . S
C1782 C1780 1.419 . S
C1782 C1783 1.363 . S
C1782 H1785 0.929 . S
C1783 C1782 1.363 . S
C1783 C1789 1.428 . S
H1784 C1780 0.930 . S
H1785 C1782 0.929 . S
S1786 N1787 1.613 . S
S1786 N1788 1.610 . S
N1787 S1786 1.613 . S
N1787 C1790 1.350 . S
N1788 S1786 1.610 . S
N1788 C1789 1.351 . S
C1789 C1783 1.428 . S
C1789 N1788 1.351 . S
C1789 C1790 1.434 . S
C1790 C1781 1.429 . S
C1790 N1787 1.350 . S
C1790 C1789 1.434 . S
C1791 C1792 1.369 . S
C1791 C1793 1.419 . S
C1791 H1795 0.930 . S
C1792 C1791 1.369 . S
C1792 C1801 1.429 . S
C1793 C1791 1.419 . S
C1793 C1794 1.363 . S
C1793 H1796 0.929 . S
C1794 C1793 1.363 . S
C1794 C1800 1.428 . S
H1795 C1791 0.930 . S
H1796 C1793 0.929 . S
S1797 N1798 1.613 . S
S1797 N1799 1.610 . S
N1798 S1797 1.613 . S
N1798 C1801 1.350 . S
N1799 S1797 1.610 . S
N1799 C1800 1.351 . S
C1800 C1794 1.428 . S
C1800 N1799 1.351 . S
C1800 C1801 1.434 . S
C1801 C1792 1.429 . S
C1801 N1798 1.350 . S
C1801 C1800 1.434 . S
C1802 C1803 1.369 . S
C1802 C1804 1.419 . S
C1802 H1806 0.930 . S
C1803 C1802 1.369 . S
C1803 C1812 1.429 . S
C1804 C1802 1.419 . S
C1804 C1805 1.363 . S
C1804 H1807 0.929 . S
C1805 C1804 1.363 . S
C1805 C1811 1.428 . S
H1806 C1802 0.930 . S
H1807 C1804 0.929 . S
S1808 N1809 1.613 . S
S1808 N1810 1.610 . S
N1809 S1808 1.613 . S
N1809 C1812 1.350 . S
N1810 S1808 1.610 . S
N1810 C1811 1.351 . S
C1811 C1805 1.428 . S
C1811 N1810 1.351 . S
C1811 C1812 1.434 . S
C1812 C1803 1.429 . S
C1812 N1809 1.350 . S
C1812 C1811 1.434 . S
C1813 C1814 1.369 . S
C1813 C1815 1.419 . S
C1813 H1817 0.930 . S
C1814 C1813 1.369 . S
C1814 C1823 1.429 . S
C1815 C1813 1.419 . S
C1815 C1816 1.363 . S
C1815 H1818 0.929 . S
C1816 C1815 1.363 . S
C1816 C1822 1.428 . S
H1817 C1813 0.930 . S
H1818 C1815 0.929 . S
S1819 N1820 1.613 . S
S1819 N1821 1.610 . S
N1820 S1819 1.613 . S
N1820 C1823 1.350 . S
N1821 S1819 1.610 . S
N1821 C1822 1.351 . S
C1822 C1816 1.428 . S
C1822 N1821 1.351 . S
C1822 C1823 1.434 . S
C1823 C1814 1.429 . S
C1823 N1820 1.350 . S
C1823 C1822 1.434 . S
C1824 C1825 1.369 . S
C1824 C1826 1.419 . S
C1824 H1828 0.930 . S
C1825 C1824 1.369 . S
C1825 C1834 1.429 . S
C1826 C1824 1.419 . S
C1826 C1827 1.363 . S
C1826 H1829 0.929 . S
C1827 C1826 1.363 . S
C1827 C1833 1.428 . S
H1828 C1824 0.930 . S
H1829 C1826 0.929 . S
S1830 N1831 1.613 . S
S1830 N1832 1.610 . S
N1831 S1830 1.613 . S
N1831 C1834 1.350 . S
N1832 S1830 1.610 . S
N1832 C1833 1.351 . S
C1833 C1827 1.428 . S
C1833 N1832 1.351 . S
C1833 C1834 1.434 . S
C1834 C1825 1.429 . S
C1834 N1831 1.350 . S
C1834 C1833 1.434 . S
C1835 C1836 1.369 . S
C1835 C1837 1.419 . S
C1835 H1839 0.930 . S
C1836 C1835 1.369 . S
C1836 C1845 1.429 . S
C1837 C1835 1.419 . S
C1837 C1838 1.363 . S
C1837 H1840 0.929 . S
C1838 C1837 1.363 . S
C1838 C1844 1.428 . S
H1839 C1835 0.930 . S
H1840 C1837 0.929 . S
S1841 N1842 1.613 . S
S1841 N1843 1.610 . S
N1842 S1841 1.613 . S
N1842 C1845 1.350 . S
N1843 S1841 1.610 . S
N1843 C1844 1.351 . S
C1844 C1838 1.428 . S
C1844 N1843 1.351 . S
C1844 C1845 1.434 . S
C1845 C1836 1.429 . S
C1845 N1842 1.350 . S
C1845 C1844 1.434 . S
C1846 C1847 1.369 . S
C1846 C1848 1.419 . S
C1846 H1850 0.930 . S
C1847 C1846 1.369 . S
C1847 C1856 1.429 . S
C1848 C1846 1.419 . S
C1848 C1849 1.363 . S
C1848 H1851 0.929 . S
C1849 C1848 1.363 . S
C1849 C1855 1.428 . S
H1850 C1846 0.930 . S
H1851 C1848 0.929 . S
S1852 N1853 1.613 1_556 S
S1852 N1854 1.610 . S
N1853 S1852 1.613 1_554 S
N1853 C1856 1.350 1_554 S
N1854 S1852 1.610 . S
N1854 C1855 1.351 . S
C1855 C1849 1.428 . S
C1855 N1854 1.351 . S
C1855 C1856 1.434 . S
C1856 C1847 1.429 . S
C1856 N1853 1.350 1_556 S
C1856 C1855 1.434 . S
C1857 C1858 1.369 . S
C1857 C1859 1.419 . S
C1857 H1861 0.930 . S
C1858 C1857 1.369 . S
C1858 C1867 1.429 . S
C1859 C1857 1.419 . S
C1859 C1860 1.363 . S
C1859 H1862 0.929 . S
C1860 C1859 1.363 . S
C1860 C1866 1.428 . S
H1861 C1857 0.930 . S
H1862 C1859 0.929 . S
S1863 N1864 1.613 . S
S1863 N1865 1.610 . S
N1864 S1863 1.613 . S
N1864 C1867 1.350 . S
N1865 S1863 1.610 . S
N1865 C1866 1.351 . S
C1866 C1860 1.428 . S
C1866 N1865 1.351 . S
C1866 C1867 1.434 . S
C1867 C1858 1.429 . S
C1867 N1864 1.350 . S
C1867 C1866 1.434 . S
C1868 C1869 1.369 . S
C1868 C1870 1.419 . S
C1868 H1872 0.930 . S
C1869 C1868 1.369 . S
C1869 C1878 1.429 . S
C1870 C1868 1.419 . S
C1870 C1871 1.363 . S
C1870 H1873 0.929 . S
C1871 C1870 1.363 . S
C1871 C1877 1.428 . S
H1872 C1868 0.930 . S
H1873 C1870 0.929 . S
S1874 N1875 1.613 . S
S1874 N1876 1.610 . S
N1875 S1874 1.613 . S
N1875 C1878 1.350 . S
N1876 S1874 1.610 . S
N1876 C1877 1.351 . S
C1877 C1871 1.428 . S
C1877 N1876 1.351 . S
C1877 C1878 1.434 . S
C1878 C1869 1.429 . S
C1878 N1875 1.350 . S
C1878 C1877 1.434 . S
C1879 C1880 1.369 . S
C1879 C1881 1.419 . S
C1879 H1883 0.930 . S
C1880 C1879 1.369 . S
C1880 C1889 1.429 . S
C1881 C1879 1.419 . S
C1881 C1882 1.363 . S
C1881 H1884 0.929 . S
C1882 C1881 1.363 . S
C1882 C1888 1.428 . S
H1883 C1879 0.930 . S
H1884 C1881 0.929 . S
S1885 N1886 1.613 . S
S1885 N1887 1.610 . S
N1886 S1885 1.613 . S
N1886 C1889 1.350 . S
N1887 S1885 1.610 . S
N1887 C1888 1.351 . S
C1888 C1882 1.428 . S
C1888 N1887 1.351 . S
C1888 C1889 1.434 . S
C1889 C1880 1.429 . S
C1889 N1886 1.350 . S
C1889 C1888 1.434 . S
C1890 C1891 1.369 . S
C1890 C1892 1.419 . S
C1890 H1894 0.930 . S
C1891 C1890 1.369 . S
C1891 C1900 1.429 . S
C1892 C1890 1.419 . S
C1892 C1893 1.363 . S
C1892 H1895 0.929 . S
C1893 C1892 1.363 . S
C1893 C1899 1.428 . S
H1894 C1890 0.930 . S
H1895 C1892 0.929 . S
S1896 N1897 1.613 . S
S1896 N1898 1.610 . S
N1897 S1896 1.613 . S
N1897 C1900 1.350 . S
N1898 S1896 1.610 . S
N1898 C1899 1.351 . S
C1899 C1893 1.428 . S
C1899 N1898 1.351 . S
C1899 C1900 1.434 . S
C1900 C1891 1.429 . S
C1900 N1897 1.350 . S
C1900 C1899 1.434 . S
C1901 C1902 1.369 . S
C1901 C1903 1.419 . S
C1901 H1905 0.930 . S
C1902 C1901 1.369 . S
C1902 C1911 1.429 . S
C1903 C1901 1.419 . S
C1903 C1904 1.363 . S
C1903 H1906 0.929 . S
C1904 C1903 1.363 . S
C1904 C1910 1.428 . S
H1905 C1901 0.930 . S
H1906 C1903 0.929 . S
S1907 N1908 1.613 . S
S1907 N1909 1.610 . S
N1908 S1907 1.613 . S
N1908 C1911 1.350 . S
N1909 S1907 1.610 . S
N1909 C1910 1.351 . S
C1910 C1904 1.428 . S
C1910 N1909 1.351 . S
C1910 C1911 1.434 . S
C1911 C1902 1.429 . S
C1911 N1908 1.350 . S
C1911 C1910 1.434 . S
C1912 C1913 1.369 . S
C1912 C1914 1.419 . S
C1912 H1916 0.930 . S
C1913 C1912 1.369 . S
C1913 C1922 1.429 . S
C1914 C1912 1.419 . S
C1914 C1915 1.363 . S
C1914 H1917 0.929 . S
C1915 C1914 1.363 . S
C1915 C1921 1.428 . S
H1916 C1912 0.930 . S
H1917 C1914 0.929 . S
S1918 N1919 1.613 . S
S1918 N1920 1.610 . S
N1919 S1918 1.613 . S
N1919 C1922 1.350 . S
N1920 S1918 1.610 . S
N1920 C1921 1.351 . S
C1921 C1915 1.428 . S
C1921 N1920 1.351 . S
C1921 C1922 1.434 . S
C1922 C1913 1.429 . S
C1922 N1919 1.350 . S
C1922 C1921 1.434 . S
C1923 C1924 1.369 . S
C1923 C1925 1.419 . S
C1923 H1927 0.930 . S
C1924 C1923 1.369 . S
C1924 C1933 1.429 . S
C1925 C1923 1.419 . S
C1925 C1926 1.363 . S
C1925 H1928 0.929 . S
C1926 C1925 1.363 . S
C1926 C1932 1.428 . S
H1927 C1923 0.930 . S
H1928 C1925 0.929 . S
S1929 N1930 1.613 . S
S1929 N1931 1.610 . S
N1930 S1929 1.613 . S
N1930 C1933 1.350 . S
N1931 S1929 1.610 . S
N1931 C1932 1.351 . S
C1932 C1926 1.428 . S
C1932 N1931 1.351 . S
C1932 C1933 1.434 . S
C1933 C1924 1.429 . S
C1933 N1930 1.350 . S
C1933 C1932 1.434 . S
C1934 C1935 1.369 . S
C1934 C1936 1.419 . S
C1934 H1938 0.930 . S
C1935 C1934 1.369 . S
C1935 C1944 1.429 . S
C1936 C1934 1.419 . S
C1936 C1937 1.363 . S
C1936 H1939 0.929 . S
C1937 C1936 1.363 . S
C1937 C1943 1.428 . S
H1938 C1934 0.930 . S
H1939 C1936 0.929 . S
S1940 N1941 1.613 . S
S1940 N1942 1.610 . S
N1941 S1940 1.613 . S
N1941 C1944 1.350 . S
N1942 S1940 1.610 . S
N1942 C1943 1.351 . S
C1943 C1937 1.428 . S
C1943 N1942 1.351 . S
C1943 C1944 1.434 . S
C1944 C1935 1.429 . S
C1944 N1941 1.350 . S
C1944 C1943 1.434 . S
C1945 C1946 1.369 . S
C1945 C1947 1.419 . S
C1945 H1949 0.930 . S
C1946 C1945 1.369 . S
C1946 C1955 1.429 . S
C1947 C1945 1.419 . S
C1947 C1948 1.363 . S
C1947 H1950 0.929 . S
C1948 C1947 1.363 . S
C1948 C1954 1.428 . S
H1949 C1945 0.930 . S
H1950 C1947 0.929 . S
S1951 N1952 1.613 . S
S1951 N1953 1.610 . S
N1952 S1951 1.613 . S
N1952 C1955 1.350 . S
N1953 S1951 1.610 . S
N1953 C1954 1.351 . S
C1954 C1948 1.428 . S
C1954 N1953 1.351 . S
C1954 C1955 1.434 . S
C1955 C1946 1.429 . S
C1955 N1952 1.350 . S
C1955 C1954 1.434 . S
C1956 C1957 1.369 . S
C1956 C1958 1.419 . S
C1956 H1960 0.930 . S
C1957 C1956 1.369 . S
C1957 C1966 1.429 . S
C1958 C1956 1.419 . S
C1958 C1959 1.363 . S
C1958 H1961 0.929 . S
C1959 C1958 1.363 . S
C1959 C1965 1.428 . S
H1960 C1956 0.930 . S
H1961 C1958 0.929 . S
S1962 N1963 1.613 . S
S1962 N1964 1.610 . S
N1963 S1962 1.613 . S
N1963 C1966 1.350 . S
N1964 S1962 1.610 . S
N1964 C1965 1.351 . S
C1965 C1959 1.428 . S
C1965 N1964 1.351 . S
C1965 C1966 1.434 . S
C1966 C1957 1.429 . S
C1966 N1963 1.350 . S
C1966 C1965 1.434 . S
C1967 C1968 1.369 . S
C1967 C1969 1.419 . S
C1967 H1971 0.930 . S
C1968 C1967 1.369 . S
C1968 C1977 1.429 . S
C1969 C1967 1.419 . S
C1969 C1970 1.363 . S
C1969 H1972 0.929 . S
C1970 C1969 1.363 . S
C1970 C1976 1.428 . S
H1971 C1967 0.930 . S
H1972 C1969 0.929 . S
S1973 N1974 1.613 . S
S1973 N1975 1.610 . S
N1974 S1973 1.613 . S
N1974 C1977 1.350 . S
N1975 S1973 1.610 . S
N1975 C1976 1.351 . S
C1976 C1970 1.428 . S
C1976 N1975 1.351 . S
C1976 C1977 1.434 . S
C1977 C1968 1.429 . S
C1977 N1974 1.350 . S
C1977 C1976 1.434 . S
C1978 C1979 1.369 . S
C1978 C1980 1.419 . S
C1978 H1982 0.930 . S
C1979 C1978 1.369 . S
C1979 C1988 1.429 . S
C1980 C1978 1.419 . S
C1980 C1981 1.363 . S
C1980 H1983 0.929 . S
C1981 C1980 1.363 . S
C1981 C1987 1.428 . S
H1982 C1978 0.930 . S
H1983 C1980 0.929 . S
S1984 N1985 1.613 . S
S1984 N1986 1.610 . S
N1985 S1984 1.613 . S
N1985 C1988 1.350 . S
N1986 S1984 1.610 . S
N1986 C1987 1.351 . S
C1987 C1981 1.428 . S
C1987 N1986 1.351 . S
C1987 C1988 1.434 . S
C1988 C1979 1.429 . S
C1988 N1985 1.350 . S
C1988 C1987 1.434 . S
C1989 C1990 1.369 . S
C1989 C1991 1.419 . S
C1989 H1993 0.930 . S
C1990 C1989 1.369 . S
C1990 C1999 1.429 . S
C1991 C1989 1.419 . S
C1991 C1992 1.363 . S
C1991 H1994 0.929 . S
C1992 C1991 1.363 . S
C1992 C1998 1.428 . S
H1993 C1989 0.930 . S
H1994 C1991 0.929 . S
S1995 N1996 1.613 . S
S1995 N1997 1.610 . S
N1996 S1995 1.613 . S
N1996 C1999 1.350 . S
N1997 S1995 1.610 . S
N1997 C1998 1.351 . S
C1998 C1992 1.428 . S
C1998 N1997 1.351 . S
C1998 C1999 1.434 . S
C1999 C1990 1.429 . S
C1999 N1996 1.350 . S
C1999 C1998 1.434 . S
C2000 C2001 1.369 . S
C2000 C2002 1.419 . S
C2000 H2004 0.930 . S
C2001 C2000 1.369 . S
C2001 C2010 1.429 . S
C2002 C2000 1.419 . S
C2002 C2003 1.363 . S
C2002 H2005 0.929 . S
C2003 C2002 1.363 . S
C2003 C2009 1.428 . S
H2004 C2000 0.930 . S
H2005 C2002 0.929 . S
S2006 N2007 1.613 . S
S2006 N2008 1.610 . S
N2007 S2006 1.613 . S
N2007 C2010 1.350 . S
N2008 S2006 1.610 . S
N2008 C2009 1.351 . S
C2009 C2003 1.428 . S
C2009 N2008 1.351 . S
C2009 C2010 1.434 . S
C2010 C2001 1.429 . S
C2010 N2007 1.350 . S
C2010 C2009 1.434 . S
C2011 C2012 1.369 . S
C2011 C2013 1.419 . S
C2011 H2015 0.930 . S
C2012 C2011 1.369 . S
C2012 C2021 1.429 . S
C2013 C2011 1.419 . S
C2013 C2014 1.363 . S
C2013 H2016 0.929 . S
C2014 C2013 1.363 . S
C2014 C2020 1.428 . S
H2015 C2011 0.930 . S
H2016 C2013 0.929 . S
S2017 N2018 1.613 . S
S2017 N2019 1.610 . S
N2018 S2017 1.613 . S
N2018 C2021 1.350 . S
N2019 S2017 1.610 . S
N2019 C2020 1.351 . S
C2020 C2014 1.428 . S
C2020 N2019 1.351 . S
C2020 C2021 1.434 . S
C2021 C2012 1.429 . S
C2021 N2018 1.350 . S
C2021 C2020 1.434 . S
C2022 C2023 1.369 . S
C2022 C2024 1.419 . S
C2022 H2026 0.930 . S
C2023 C2022 1.369 . S
C2023 C2032 1.429 1_455 S
C2024 C2022 1.419 . S
C2024 C2025 1.363 1_455 S
C2024 H2027 0.929 . S
C2025 C2024 1.363 1_655 S
C2025 C2031 1.428 . S
H2026 C2022 0.930 . S
H2027 C2024 0.929 . S
S2028 N2029 1.613 . S
S2028 N2030 1.610 . S
N2029 S2028 1.613 . S
N2029 C2032 1.350 . S
N2030 S2028 1.610 . S
N2030 C2031 1.351 . S
C2031 C2025 1.428 . S
C2031 N2030 1.351 . S
C2031 C2032 1.434 . S
C2032 C2023 1.429 1_655 S
C2032 N2029 1.350 . S
C2032 C2031 1.434 . S
C2033 C2034 1.369 . S
C2033 C2035 1.419 . S
C2033 H2037 0.930 . S
C2034 C2033 1.369 . S
C2034 C2043 1.429 . S
C2035 C2033 1.419 . S
C2035 C2036 1.363 . S
C2035 H2038 0.929 . S
C2036 C2035 1.363 . S
C2036 C2042 1.428 . S
H2037 C2033 0.930 . S
H2038 C2035 0.929 . S
S2039 N2040 1.613 . S
S2039 N2041 1.610 . S
N2040 S2039 1.613 . S
N2040 C2043 1.350 . S
N2041 S2039 1.610 . S
N2041 C2042 1.351 . S
C2042 C2036 1.428 . S
C2042 N2041 1.351 . S
C2042 C2043 1.434 . S
C2043 C2034 1.429 . S
C2043 N2040 1.350 . S
C2043 C2042 1.434 . S
C2044 C2045 1.369 . S
C2044 C2046 1.419 1_545 S
C2044 H2048 0.930 . S
C2045 C2044 1.369 . S
C2045 C2054 1.429 . S
C2046 C2044 1.419 1_565 S
C2046 C2047 1.363 . S
C2046 H2049 0.929 . S
C2047 C2046 1.363 . S
C2047 C2053 1.428 . S
H2048 C2044 0.930 . S
H2049 C2046 0.929 . S
S2050 N2051 1.613 . S
S2050 N2052 1.610 1_545 S
N2051 S2050 1.613 . S
N2051 C2054 1.350 . S
N2052 S2050 1.610 1_565 S
N2052 C2053 1.351 . S
C2053 C2047 1.428 . S
C2053 N2052 1.351 . S
C2053 C2054 1.434 1_565 S
C2054 C2045 1.429 . S
C2054 N2051 1.350 . S
C2054 C2053 1.434 1_545 S
C2055 C2056 1.369 1_565 S
C2055 C2057 1.419 . S
C2055 H2059 0.930 . S
C2056 C2055 1.369 1_545 S
C2056 C2065 1.429 1_556 S
C2057 C2055 1.419 . S
C2057 C2058 1.363 1_556 S
C2057 H2060 0.929 . S
C2058 C2057 1.363 1_554 S
C2058 C2064 1.428 1_565 S
H2059 C2055 0.930 . S
H2060 C2057 0.929 . S
S2061 N2062 1.613 . S
S2061 N2063 1.610 . S
N2062 S2061 1.613 . S
N2062 C2065 1.350 . S
N2063 S2061 1.610 . S
N2063 C2064 1.351 . S
C2064 C2058 1.428 1_545 S
C2064 N2063 1.351 . S
C2064 C2065 1.434 . S
C2065 C2056 1.429 1_554 S
C2065 N2062 1.350 . S
C2065 C2064 1.434 . S
C2066 C2067 1.369 . S
C2066 C2068 1.419 1_655 S
C2066 H2070 0.930 . S
C2067 C2066 1.369 . S
C2067 C2076 1.429 1_556 S
C2068 C2066 1.419 1_455 S
C2068 C2069 1.363 1_556 S
C2068 H2071 0.929 . S
C2069 C2068 1.363 1_554 S
C2069 C2075 1.428 . S
H2070 C2066 0.930 . S
H2071 C2068 0.929 . S
S2072 N2073 1.613 1_455 S
S2072 N2074 1.610 . S
N2073 S2072 1.613 1_655 S
N2073 C2076 1.350 . S
N2074 S2072 1.610 . S
N2074 C2075 1.351 . S
C2075 C2069 1.428 . S
C2075 N2074 1.351 . S
C2075 C2076 1.434 1_455 S
C2076 C2067 1.429 1_554 S
C2076 N2073 1.350 . S
C2076 C2075 1.434 1_655 S
C2077 C2078 1.369 1_554 S
C2077 C2079 1.419 . S
C2077 H2081 0.930 . S
C2078 C2077 1.369 1_556 S
C2078 C2087 1.429 . S
C2079 C2077 1.419 . S
C2079 C2080 1.363 . S
C2079 H2082 0.929 . S
C2080 C2079 1.363 . S
C2080 C2086 1.428 1_554 S
H2081 C2077 0.930 . S
H2082 C2079 0.929 . S
S2083 N2084 1.613 . S
S2083 N2085 1.610 . S
N2084 S2083 1.613 . S
N2084 C2087 1.350 . S
N2085 S2083 1.610 . S
N2085 C2086 1.351 . S
C2086 C2080 1.428 1_556 S
C2086 N2085 1.351 . S
C2086 C2087 1.434 . S
C2087 C2078 1.429 . S
C2087 N2084 1.350 . S
C2087 C2086 1.434 . S
C1297 C14 1.294 . S
C1299 C256 1.286 1_545 S
C1308 C50 1.300 . S
C1310 C292 1.289 1_655 S
C1319 C220 1.283 . S
C1321 C86 1.295 . S
C1330 C400 1.287 1_455 S
C1332 C122 1.296 . S
C1341 C158 1.297 . S
C1343 C328 1.286 . S
C1352 C194 1.293 . S
C1354 C364 1.282 1_565 S
C1363 C40 1.285 1_565 S
C1365 C230 1.295 . S
C1374 C76 1.283 1_455 S
C1376 C266 1.295 . S
C1385 C302 1.293 . S
C1387 C4 1.283 . S
C1396 C338 1.299 . S
C1398 C184 1.288 1_655 S
C1407 C112 1.291 . S
C1409 C374 1.299 . S
C1418 C410 1.299 . S
C1420 C148 1.289 1_545 S
C1429 C688 1.283 . S
C1431 C446 1.293 . S
C1440 C482 1.299 . S
C1442 C724 1.287 . S
C1451 C518 1.292 . S
C1453 C652 1.283 . S
C1462 C832 1.286 . S
C1464 C554 1.295 . S
C1473 C590 1.298 . S
C1475 C760 1.289 . S
C1484 C796 1.287 . S
C1486 C626 1.295 . S
C1495 C472 1.288 . S
C1497 C662 1.298 . S
C1506 C698 1.294 . S
C1508 C508 1.285 . S
C1517 C436 1.288 . S
C1519 C734 1.298 . S
C1528 C770 1.296 . S
C1530 C616 1.287 . S
C1539 C806 1.300 . S
C1541 C544 1.290 . S
C1550 C842 1.300 . S
C1552 C580 1.290 . S
C1561 C1120 1.289 . S
C1563 C878 1.299 . S
C1572 C1156 1.291 . S
C1574 C914 1.299 . S
C1583 C1084 1.286 . S
C1585 C950 1.297 . S
C1594 C986 1.298 . S
C1596 C1264 1.289 . S
C1605 C1022 1.300 . S
C1607 C1192 1.290 . S
C1616 C1228 1.284 . S
C1618 C1058 1.296 . S
C1627 C1094 1.297 . S
C1629 C904 1.286 . S
C1638 C940 1.286 . S
C1640 C1130 1.295 . S
C1649 C868 1.287 . S
C1651 C1166 1.296 . S
C1660 C1202 1.296 . S
C1662 C1048 1.285 . S
C1671 C1238 1.295 . S
C1673 C976 1.285 . S
C1682 C1274 1.296 . S
C1684 C1012 1.287 . S
C1693 C110 1.439 . S
C1695 C2 1.446 . S
C1704 C146 1.444 . S
C1706 C38 1.439 . S
C1715 C74 1.439 . S
C1717 C182 1.446 . S
C1726 C326 1.441 . S
C1728 C218 1.446 . S
C1737 C362 1.438 . S
C1739 C254 1.443 . S
C1748 C398 1.444 . S
C1750 C290 1.446 . S
C1759 C542 1.445 . S
C1761 C434 1.445 . S
C1770 C578 1.441 . S
C1772 C470 1.446 . S
C1781 C506 1.445 . S
C1783 C614 1.445 . S
C1792 C758 1.446 . S
C1794 C650 1.440 . S
C1803 C794 1.445 . S
C1805 C686 1.446 . S
C1814 C830 1.447 . S
C1816 C722 1.442 . S
C1825 C974 1.441 . S
C1827 C866 1.440 . S
C1836 C902 1.441 . S
C1838 C1010 1.446 . S
C1847 C1046 1.439 . S
C1849 C938 1.446 . S
C1858 C1082 1.447 . S
C1860 C1190 1.442 . S
C1869 C1118 1.447 . S
C1871 C1226 1.444 . S
C1880 C1154 1.447 . S
C1882 C1262 1.443 . S
C1891 C3 1.465 . S
C1893 C651 1.469 . S
C1902 C687 1.469 . S
C1904 C39 1.466 . S
C1913 C723 1.466 . S
C1915 C75 1.468 . S
C1924 C1191 1.465 . S
C1926 C111 1.469 . S
C1935 C1227 1.469 . S
C1937 C147 1.466 . S
C1946 C1263 1.465 . S
C1948 C183 1.469 . S
C1957 C219 1.465 . S
C1959 C867 1.469 . S
C1968 C903 1.469 . S
C1970 C255 1.466 . S
C1979 C939 1.465 . S
C1981 C291 1.469 . S
C1990 C327 1.468 . S
C1992 C543 1.467 . S
C2001 C363 1.468 . S
C2003 C579 1.467 . S
C2012 C399 1.469 . S
C2014 C615 1.466 . S
C2023 C1083 1.470 . S
C2025 C435 1.465 . S
C2034 C1119 1.469 . S
C2036 C471 1.466 . S
C2045 C507 1.467 . S
C2047 C1155 1.467 . S
C2056 C759 1.465 . S
C2058 C975 1.469 . S
C2067 C795 1.468 . S
C2069 C1011 1.467 . S
C2078 C831 1.470 . S
C2080 C1047 1.465 . S
