# Generated by pormake.
# Topology uki, (4)-cn, num edge types: 1
# Building blocks:
#     Node 0, Type 0, BuildingBlock: KOZSID_clean_sbu_0, # of connection points: 4
#     Node 1, Type 0, BuildingBlock: KOZSID_clean_sbu_0, # of connection points: 4
#     Node 2, Type 0, BuildingBlock: KOZSID_clean_sbu_0, # of connection points: 4
#     Node 3, Type 0, BuildingBlock: KOZSID_clean_sbu_0, # of connection points: 4
#     Node 4, Type 0, BuildingBlock: KOZSID_clean_sbu_0, # of connection points: 4
#     Node 5, Type 0, BuildingBlock: KOZSID_clean_sbu_0, # of connection points: 4
#     Node 6, Type 0, BuildingBlock: KOZSID_clean_sbu_0, # of connection points: 4
#     Node 7, Type 0, BuildingBlock: KOZSID_clean_sbu_0, # of connection points: 4
#     Node 8, Type 0, BuildingBlock: KOZSID_clean_sbu_0, # of connection points: 4
#     Node 9, Type 0, BuildingBlock: KOZSID_clean_sbu_0, # of connection points: 4
#     Node 10, Type 0, BuildingBlock: KOZSID_clean_sbu_0, # of connection points: 4
#     Node 11, Type 0, BuildingBlock: KOZSID_clean_sbu_0, # of connection points: 4
#     Node 12, Type 0, BuildingBlock: KOZSID_clean_sbu_0, # of connection points: 4
#     Node 13, Type 0, BuildingBlock: KOZSID_clean_sbu_0, # of connection points: 4
#     Node 14, Type 0, BuildingBlock: KOZSID_clean_sbu_0, # of connection points: 4
#     Node 15, Type 0, BuildingBlock: KOZSID_clean_sbu_0, # of connection points: 4
#     Edge 16, Type (0, 0), BuildingBlock: TEMPAE_clean_linker_10, # of connection points: 2
#     Edge 17, Type (0, 0), BuildingBlock: TEMPAE_clean_linker_10, # of connection points: 2
#     Edge 18, Type (0, 0), BuildingBlock: TEMPAE_clean_linker_10, # of connection points: 2
#     Edge 19, Type (0, 0), BuildingBlock: TEMPAE_clean_linker_10, # of connection points: 2
#     Edge 20, Type (0, 0), BuildingBlock: TEMPAE_clean_linker_10, # of connection points: 2
#     Edge 21, Type (0, 0), BuildingBlock: TEMPAE_clean_linker_10, # of connection points: 2
#     Edge 22, Type (0, 0), BuildingBlock: TEMPAE_clean_linker_10, # of connection points: 2
#     Edge 23, Type (0, 0), BuildingBlock: TEMPAE_clean_linker_10, # of connection points: 2
#     Edge 24, Type (0, 0), BuildingBlock: TEMPAE_clean_linker_10, # of connection points: 2
#     Edge 25, Type (0, 0), BuildingBlock: TEMPAE_clean_linker_10, # of connection points: 2
#     Edge 26, Type (0, 0), BuildingBlock: TEMPAE_clean_linker_10, # of connection points: 2
#     Edge 27, Type (0, 0), BuildingBlock: TEMPAE_clean_linker_10, # of connection points: 2
#     Edge 28, Type (0, 0), BuildingBlock: TEMPAE_clean_linker_10, # of connection points: 2
#     Edge 29, Type (0, 0), BuildingBlock: TEMPAE_clean_linker_10, # of connection points: 2
#     Edge 30, Type (0, 0), BuildingBlock: TEMPAE_clean_linker_10, # of connection points: 2
#     Edge 31, Type (0, 0), BuildingBlock: TEMPAE_clean_linker_10, # of connection points: 2
#     Edge 32, Type (0, 0), BuildingBlock: TEMPAE_clean_linker_10, # of connection points: 2
#     Edge 33, Type (0, 0), BuildingBlock: TEMPAE_clean_linker_10, # of connection points: 2
#     Edge 34, Type (0, 0), BuildingBlock: TEMPAE_clean_linker_10, # of connection points: 2
#     Edge 35, Type (0, 0), BuildingBlock: TEMPAE_clean_linker_10, # of connection points: 2
#     Edge 36, Type (0, 0), BuildingBlock: TEMPAE_clean_linker_10, # of connection points: 2
#     Edge 37, Type (0, 0), BuildingBlock: TEMPAE_clean_linker_10, # of connection points: 2
#     Edge 38, Type (0, 0), BuildingBlock: TEMPAE_clean_linker_10, # of connection points: 2
#     Edge 39, Type (0, 0), BuildingBlock: TEMPAE_clean_linker_10, # of connection points: 2
#     Edge 40, Type (0, 0), BuildingBlock: TEMPAE_clean_linker_10, # of connection points: 2
#     Edge 41, Type (0, 0), BuildingBlock: TEMPAE_clean_linker_10, # of connection points: 2
#     Edge 42, Type (0, 0), BuildingBlock: TEMPAE_clean_linker_10, # of connection points: 2
#     Edge 43, Type (0, 0), BuildingBlock: TEMPAE_clean_linker_10, # of connection points: 2
#     Edge 44, Type (0, 0), BuildingBlock: TEMPAE_clean_linker_10, # of connection points: 2
#     Edge 45, Type (0, 0), BuildingBlock: TEMPAE_clean_linker_10, # of connection points: 2
#     Edge 46, Type (0, 0), BuildingBlock: TEMPAE_clean_linker_10, # of connection points: 2
#     Edge 47, Type (0, 0), BuildingBlock: TEMPAE_clean_linker_10, # of connection points: 2
# Relax obj value: 0.121
# Max RMSD: 0.240
# Mean RMSD: 0.240
data_MOF--net-uki--node1-KOZSID_clean_sbu_0--edge1-TEMPAE_clean_linker_10
_symmetry_space_group_name_H-M    P1
_symmetry_Int_Tables_number       1
_symmetry_cell_setting            triclinic
loop_
_symmetry_equiv_pos_as_xyz
'x, y, z'
_cell_length_a     38.17017
_cell_length_b     38.257006
_cell_length_c     89.93439
_cell_angle_alpha  89.992909
_cell_angle_beta   89.97926
_cell_angle_gamma 89.981378
loop_
_atom_site_label
_atom_site_type_symbol
_atom_site_fract_x
_atom_site_fract_y
_atom_site_fract_z
_atom_type_partial_charge
C0 C 0.17568 0.22618 0.32527 0.0
C1 C 0.20386 0.2042 0.32248 0.0
C2 C 0.19684 0.18737 0.30934 0.0
C3 C 0.16484 0.19989 0.30483 0.0
N4 N 0.15147 0.22385 0.31422 0.0
Co5 Co 0.10503 0.24696 0.31205 0.0
N6 N 0.1014 0.234 0.2907 0.0
C7 C 0.12028 0.20911 0.28382 0.0
C8 C 0.11242 0.20631 0.26896 0.0
C9 C 0.08686 0.23085 0.26639 0.0
C10 C 0.08039 0.24721 0.27988 0.0
N11 N 0.05857 0.26982 0.31 0.0
C12 C 0.04107 0.27991 0.29761 0.0
C13 C 1.00881 0.29442 0.30126 0.0
C14 C 1.00624 0.29342 0.31645 0.0
C15 C 0.03684 0.27831 0.32122 0.0
N16 N 0.10838 0.25998 0.33342 0.0
C17 C 0.08152 0.27042 0.34206 0.0
C18 C 0.09135 0.27764 0.3564 0.0
C19 C 0.12655 0.27094 0.35691 0.0
C20 C 0.13624 0.25965 0.34281 0.0
N21 N 0.12817 0.2908 0.3062 0.0
C22 C 0.15464 0.35289 0.29362 0.0
C23 C 0.12926 0.35391 0.30495 0.0
C24 C 0.11644 0.32259 0.3111 0.0
C25 C 0.16779 0.32013 0.28944 0.0
C26 C 0.15435 0.28967 0.29582 0.0
N27 N 0.08184 0.20258 0.31744 0.0
C28 C 0.08166 0.14784 0.33088 0.0
C29 C 0.05391 0.13511 0.32216 0.0
C30 C 0.03961 0.15767 0.31146 0.0
C31 C 0.05382 0.19105 0.3093 0.0
C32 C 0.09503 0.18156 0.32842 0.0
H33 H 0.04274 0.20707 0.30064 0.0
H34 H 0.11669 0.1902 0.33517 0.0
H35 H 0.09612 0.32405 0.31943 0.0
H36 H 0.16434 0.26507 0.29187 0.0
C37 C 0.14878 0.19342 0.29107 0.0
C38 C 0.17122 0.24595 0.33919 0.0
C39 C 0.05292 0.27365 0.28231 0.0
C40 C 0.04862 0.27736 0.33591 0.0
H41 H 0.22677 0.20025 0.32938 0.0
H42 H 0.21344 0.16878 0.30363 0.0
H43 H 0.12477 0.18948 0.26083 0.0
H44 H 0.07446 0.23606 0.2558 0.0
H45 H 0.98908 0.30447 0.29375 0.0
H46 H 0.98515 0.30372 0.3232 0.0
H47 H 0.07508 0.28744 0.36534 0.0
H48 H 0.14304 0.27357 0.36663 0.0
H49 H 0.11836 0.37857 0.30862 0.0
H50 H 0.18803 0.31787 0.28105 0.0
H51 H 0.09324 0.13177 0.33949 0.0
H52 H 0.01837 0.14919 0.30435 0.0
C53 C 0.26214 0.98633 0.71263 0.0
C54 C 0.27292 0.01897 0.70762 0.0
C55 C 0.28576 0.01435 0.6936 0.0
C56 C 0.28144 0.97946 0.69069 0.0
N57 N 0.26598 0.96174 0.70186 0.0
Co58 Co 0.25111 0.91164 0.70135 0.0
N59 N 0.26123 0.90764 0.67958 0.0
C60 C 0.27963 0.93078 0.6714 0.0
C61 C 0.28391 0.92095 0.65687 0.0
C62 C 0.26737 0.88947 0.6557 0.0
C63 C 0.25368 0.88189 0.66966 0.0
N64 N 0.23571 0.86163 0.70062 0.0
C65 C 0.2295 0.84011 0.68883 0.0
C66 C 0.21905 0.80719 0.69356 0.0
C67 C 0.21954 0.80778 0.70877 0.0
C68 C 0.22996 0.84095 0.71249 0.0
N69 N 0.24177 0.91549 0.72322 0.0
C70 C 0.23599 0.88828 0.73243 0.0
C71 C 0.23346 0.89768 0.74709 0.0
C72 C 0.23858 0.93302 0.74727 0.0
C73 C 0.24373 0.94339 0.73262 0.0
N74 N 0.20252 0.92685 0.69715 0.0
C75 C 0.13379 0.95393 0.69407 0.0
C76 C 0.14124 0.92672 0.70406 0.0
C77 C 0.17541 0.91363 0.70538 0.0
C78 C 0.16152 0.96615 0.68518 0.0
C79 C 0.19546 0.95229 0.68686 0.0
N80 N 0.29947 0.89639 0.70606 0.0
C81 C 0.34414 0.85141 0.7061 0.0
C82 C 0.36183 0.86795 0.71785 0.0
C83 C 0.34909 0.90037 0.72264 0.0
C84 C 0.3183 0.91407 0.7166 0.0
C85 C 0.31317 0.86613 0.70032 0.0
H86 H 0.3092 0.93838 0.72106 0.0
H87 H 0.29967 0.85218 0.69164 0.0
H88 H 0.17987 0.89321 0.71337 0.0
H89 H 0.21607 0.96288 0.68006 0.0
C90 C 0.28838 0.96336 0.67715 0.0
C91 C 0.25452 0.979 0.72837 0.0
C92 C 0.23596 0.84884 0.67313 0.0
C93 C 0.23139 0.85456 0.72685 0.0
H94 H 0.27294 0.04335 0.71373 0.0
H95 H 0.29661 0.03413 0.68633 0.0
H96 H 0.29676 0.93538 0.64806 0.0
H97 H 0.26592 0.87377 0.64572 0.0
H98 H 0.2123 0.78489 0.68675 0.0
H99 H 0.21257 0.78668 0.71623 0.0
H100 H 0.2288 0.88081 0.75654 0.0
H101 H 0.23958 0.94892 0.75719 0.0
H102 H 0.1208 0.91558 0.71093 0.0
H103 H 0.15739 0.98711 0.67728 0.0
H104 H 0.35318 0.82651 0.70185 0.0
H105 H 0.36237 0.91483 0.73132 0.0
C106 C 0.84539 0.79234 0.3263 0.0
C107 C 0.81733 0.81446 0.3235 0.0
C108 C 0.82425 0.83087 0.31025 0.0
C109 C 0.85607 0.81798 0.30569 0.0
N110 N 0.86943 0.79416 0.31515 0.0
Co111 Co 0.91573 0.77072 0.31292 0.0
N112 N 0.91921 0.78332 0.29152 0.0
C113 C 0.90035 0.80819 0.28461 0.0
C114 C 0.90817 0.81087 0.26974 0.0
C115 C 0.9337 0.78629 0.26718 0.0
C116 C 0.94019 0.77003 0.28069 0.0
N117 N 0.96204 0.74747 0.31082 0.0
C118 C 0.97943 0.73721 0.29842 0.0
C119 C 0.01159 0.72245 0.30206 0.0
C120 C 0.01422 0.72347 0.31723 0.0
C121 C 0.98376 0.73884 0.32202 0.0
N122 N 0.91254 0.7581 0.33435 0.0
C123 C 0.93939 0.74737 0.34294 0.0
C124 C 0.92969 0.74034 0.35731 0.0
C125 C 0.8946 0.74749 0.35791 0.0
C126 C 0.88485 0.75889 0.34384 0.0
N127 N 0.89224 0.72692 0.30723 0.0
C128 C 0.86605 0.66494 0.29447 0.0
C129 C 0.89127 0.66382 0.30585 0.0
C130 C 0.90397 0.69509 0.3121 0.0
C131 C 0.85278 0.69771 0.29038 0.0
C132 C 0.86606 0.72811 0.29686 0.0
N133 N 0.93929 0.81507 0.31807 0.0
C134 C 0.93948 0.87067 0.33087 0.0
C135 C 0.96698 0.88299 0.32187 0.0
C136 C 0.98144 0.85958 0.31154 0.0
C137 C 0.96734 0.82606 0.30982 0.0
C138 C 0.92621 0.83672 0.32886 0.0
H139 H 0.97856 0.80946 0.30139 0.0
H140 H 0.90452 0.82851 0.3357 0.0
H141 H 0.92426 0.69357 0.32042 0.0
H142 H 0.85605 0.75272 0.29294 0.0
C143 C 0.872 0.8241 0.29187 0.0
C144 C 0.84997 0.77305 0.34034 0.0
C145 C 0.9677 0.74363 0.28312 0.0
C146 C 0.97211 0.74002 0.33672 0.0
H147 H 0.79461 0.81883 0.33046 0.0
H148 H 0.80771 0.84947 0.30451 0.0
H149 H 0.89585 0.8277 0.2616 0.0
H150 H 0.94611 0.78103 0.2566 0.0
H151 H 0.03124 0.71225 0.29454 0.0
H152 H 0.03526 0.71306 0.32398 0.0
H153 H 0.94597 0.73036 0.3662 0.0
H154 H 0.87824 0.74503 0.36768 0.0
H155 H 0.90221 0.63912 0.30946 0.0
H156 H 0.83266 0.70002 0.28195 0.0
H157 H 0.9273 0.88752 0.33904 0.0
H158 H 1.00333 0.86721 0.30459 0.0
C159 C 0.75899 0.03454 0.71375 0.0
C160 C 0.74347 1.0036 0.70905 0.0
C161 C 0.73011 1.00981 0.69522 0.0
C162 C 0.73835 0.04395 0.6922 0.0
N163 N 0.75664 0.05969 0.70312 0.0
Co164 Co 0.77386 0.10906 0.70295 0.0
N165 N 0.76309 0.11461 0.68132 0.0
C166 C 0.74299 0.09299 0.67313 0.0
C167 C 0.73899 0.10359 0.65868 0.0
C168 C 0.75753 0.13399 0.65761 0.0
C169 C 0.77198 0.14022 0.67154 0.0
N170 N 0.79112 0.15843 0.7026 0.0
C171 C 0.79794 0.18022 0.69096 0.0
C172 C 0.80944 0.21258 0.69593 0.0
C173 C 0.80911 0.21133 0.71114 0.0
C174 C 0.7977 0.17833 0.71463 0.0
N175 N 0.7842 0.10363 0.72463 0.0
C176 C 0.79157 0.12989 0.73411 0.0
C177 C 0.79586 0.11901 0.74853 0.0
C178 C 0.79024 0.0837 0.74824 0.0
C179 C 0.78283 0.07498 0.7336 0.0
N180 N 0.82156 0.09218 0.69819 0.0
C181 C 0.8894 0.06376 0.69401 0.0
C182 C 0.88335 0.09098 0.70415 0.0
C183 C 0.84961 0.10472 0.70603 0.0
C184 C 0.86057 0.05181 0.68569 0.0
C185 C 0.82708 0.0664 0.68789 0.0
N186 N 0.7264 0.12598 0.70819 0.0
C187 C 0.6823 0.17152 0.70828 0.0
C188 C 0.66452 0.15523 0.72008 0.0
C189 C 0.67712 0.12287 0.72498 0.0
C190 C 0.70769 0.10883 0.71893 0.0
C191 C 0.71308 0.15642 0.70247 0.0
H192 H 0.71672 0.08461 0.72347 0.0
H193 H 0.7267 0.17011 0.69373 0.0
H194 H 0.84624 0.12503 0.71416 0.0
H195 H 0.80559 0.05634 0.68142 0.0
C196 C 0.73192 0.06103 0.67882 0.0
C197 C 0.77045 0.04019 0.72913 0.0
C198 C 0.79141 0.17219 0.6752 0.0
C199 C 0.79669 0.16389 0.72889 0.0
H200 H 0.74091 0.97945 0.71523 0.0
H201 H 0.71616 0.99156 0.68818 0.0
H202 H 0.7249 0.09039 0.64987 0.0
H203 H 0.75968 0.14999 0.64772 0.0
H204 H 0.8169 0.23493 0.68927 0.0
H205 H 0.81701 0.2318 0.71874 0.0
H206 H 0.8023 0.13485 0.75812 0.0
H207 H 0.79051 0.06644 0.75778 0.0
H208 H 0.90435 0.10105 0.711 0.0
H209 H 0.86376 0.03127 0.67752 0.0
H210 H 0.6734 0.19642 0.70398 0.0
H211 H 0.66384 0.10865 0.73375 0.0
C212 C 0.17289 0.29351 0.93761 0.0
C213 C 0.20082 0.31579 0.94039 0.0
C214 C 0.19377 0.33228 0.95361 0.0
C215 C 0.16201 0.31928 0.95817 0.0
N216 N 0.14883 0.29529 0.94875 0.0
Co217 Co 0.10257 0.27181 0.95097 0.0
N218 N 0.0989 0.28464 0.97233 0.0
C219 C 0.11758 0.30965 0.97922 0.0
C220 C 0.10975 0.31229 0.99409 0.0
C221 C 0.08445 0.28749 0.99667 0.0
C222 C 0.07812 0.27113 0.98317 0.0
N223 N 0.05628 0.24861 0.95307 0.0
C224 C 0.03902 0.23823 0.96548 0.0
C225 C 1.0069 0.22338 0.96188 0.0
C226 C 1.00419 0.22443 0.9467 0.0
C227 C 0.03458 0.2399 0.94189 0.0
N228 N 0.10593 0.25885 0.92958 0.0
C229 C 0.07916 0.24791 0.921 0.0
C230 C 0.08898 0.2406 0.90667 0.0
C231 C 0.12405 0.24783 0.90608 0.0
C232 C 0.13367 0.25958 0.92012 0.0
N233 N 0.12607 0.22813 0.9568 0.0
C234 C 0.15242 0.16637 0.96971 0.0
C235 C 0.12714 0.16505 0.95836 0.0
C236 C 0.11437 0.19622 0.95203 0.0
C237 C 0.16564 0.19922 0.9737 0.0
C238 C 0.15227 0.2295 0.96715 0.0
N239 N 0.07903 0.31606 0.94563 0.0
C240 C 0.07873 0.371 0.93235 0.0
C241 C 0.05117 0.38368 0.9412 0.0
C242 C 0.03693 0.36095 0.95185 0.0
C243 C 0.05109 0.32748 0.95386 0.0
C244 C 0.09205 0.3372 0.93466 0.0
H245 H 0.0401 0.31133 0.9625 0.0
H246 H 0.1136 0.32864 0.92783 0.0
H247 H 0.09406 0.19456 0.94372 0.0
H248 H 0.16225 0.25418 0.971 0.0
C249 C 0.14594 0.32555 0.97196 0.0
C250 C 0.16841 0.27416 0.92357 0.0
C251 C 0.05104 0.2443 0.98076 0.0
C252 C 0.04636 0.24076 0.9272 0.0
H253 H 0.22352 0.32024 0.93343 0.0
H254 H 0.21017 0.35104 0.95932 0.0
H255 H 0.12198 0.32918 1.00223 0.0
H256 H 0.07213 0.28208 0.00726 0.0
H257 H 0.98741 0.21298 0.96942 0.0
H258 H 0.98322 0.21384 0.93997 0.0
H259 H 0.07278 0.23044 0.89779 0.0
H260 H 0.14047 0.24525 0.89633 0.0
H261 H 0.11622 0.1403 0.95482 0.0
H262 H 0.18582 0.20167 0.9821 0.0
H263 H 0.09023 0.38719 0.92376 0.0
H264 H 0.01581 0.36937 0.95905 0.0
C265 C 0.23652 0.98176 0.04969 0.0
C266 C 0.22142 0.01366 0.05339 0.0
C267 C 0.22223 0.01605 0.06858 0.0
C268 C 0.23782 0.9857 0.07331 0.0
N269 N 0.24678 0.9643 0.06206 0.0
Co270 Co 0.2705 0.91832 0.06408 0.0
N271 N 0.25744 0.91456 0.08544 0.0
C272 C 0.24647 0.9411 0.09411 0.0
C273 C 0.23926 0.93101 0.10842 0.0
C274 C 0.24651 0.89599 0.10888 0.0
C275 C 0.25811 0.88666 0.09478 0.0
N276 N 0.29446 0.87237 0.06622 0.0
C277 C 0.29235 0.84802 0.07721 0.0
C278 C 0.31484 0.82028 0.0744 0.0
C279 C 0.33173 0.82772 0.0613 0.0
C280 C 0.31876 0.85952 0.05684 0.0
N281 N 0.28351 0.92232 0.04274 0.0
C282 C 0.30879 0.9039 0.03586 0.0
C283 C 0.31158 0.9119 0.02101 0.0
C284 C 0.28664 0.93707 0.01844 0.0
C285 C 0.27008 0.9432 0.03193 0.0
N286 N 0.31452 0.9422 0.0695 0.0
C287 C 0.38184 0.9709 0.07395 0.0
C288 C 0.35876 0.98496 0.06339 0.0
C289 C 0.32549 0.97039 0.06136 0.0
C290 C 0.36954 0.94321 0.08281 0.0
C291 C 0.33588 0.92939 0.08045 0.0
N292 N 0.22703 0.89456 0.05818 0.0
C293 C 0.19846 0.85497 0.04123 0.0
C294 C 0.16543 0.86794 0.04522 0.0
C295 C 0.16386 0.89305 0.05661 0.0
C296 C 0.19495 0.90593 0.06297 0.0
C297 C 0.22868 0.86851 0.04779 0.0
H298 H 0.19309 0.92608 0.07132 0.0
H299 H 0.25352 0.85879 0.04393 0.0
H300 H 0.30908 0.98138 0.05281 0.0
H301 H 0.32768 0.90753 0.08717 0.0
C302 C 0.23894 0.97383 0.08799 0.0
C303 C 0.24326 0.97032 0.03436 0.0
C304 C 0.27225 0.85194 0.09109 0.0
C305 C 0.32498 0.87572 0.04309 0.0
H306 H 0.21115 0.0333 0.0459 0.0
H307 H 0.21155 0.03685 0.07536 0.0
H308 H 0.22904 0.94699 0.11736 0.0
H309 H 0.24395 0.87938 0.11855 0.0
H310 H 0.31905 0.79738 0.08124 0.0
H311 H 0.35063 0.81149 0.05557 0.0
H312 H 0.3287 0.8999 0.01289 0.0
H313 H 0.28133 0.94945 0.00787 0.0
H314 H 0.36647 1.00691 0.05652 0.0
H315 H 0.38621 0.93134 0.09113 0.0
H316 H 0.20112 0.8349 0.03281 0.0
H317 H 0.13896 0.90377 0.06014 0.0
C318 C 0.84634 0.72994 0.93769 0.0
C319 C 0.81769 0.70874 0.94069 0.0
C320 C 0.82421 0.6927 0.95405 0.0
C321 C 0.8564 0.70487 0.95848 0.0
N322 N 0.87037 0.72791 0.94883 0.0
Co323 Co 0.91728 0.75015 0.95082 0.0
N324 N 0.92053 0.73822 0.9723 0.0
C325 C 0.9012 0.71398 0.97938 0.0
C326 C 0.90898 0.71171 0.99426 0.0
C327 C 0.93496 0.73589 0.99664 0.0
C328 C 0.94173 0.75152 0.98302 0.0
N329 N 0.96408 0.77235 0.95274 0.0
C330 C 0.98157 0.78287 0.96506 0.0
C331 C 0.01402 0.79683 0.96134 0.0
C332 C 0.01673 0.79503 0.94617 0.0
C333 C 0.98601 0.78003 0.94149 0.0
N334 N 0.91438 0.76193 0.9293 0.0
C335 C 0.9415 0.77152 0.92062 0.0
C336 C 0.93197 0.77812 0.90619 0.0
C337 C 0.89669 0.77188 0.90566 0.0
C338 C 0.88667 0.76143 0.91984 0.0
N339 N 0.89495 0.7948 0.95617 0.0
C340 C 0.86923 0.85861 0.96767 0.0
C341 C 0.89388 0.85798 0.95601 0.0
C342 C 0.90641 0.82592 0.95046 0.0
C343 C 0.85701 0.82626 0.97293 0.0
C344 C 0.86973 0.79503 0.96696 0.0
N345 N 0.9397 0.70503 0.94596 0.0
C346 C 0.93885 0.64922 0.93333 0.0
C347 C 0.96631 0.63662 0.94226 0.0
C348 C 0.98118 0.6599 0.95254 0.0
C349 C 0.96762 0.69368 0.9542 0.0
C350 C 0.92611 0.6834 0.93529 0.0
H351 H 0.97919 0.71025 0.96255 0.0
H352 H 0.90447 0.69185 0.92848 0.0
H353 H 0.92607 0.8263 0.94184 0.0
H354 H 0.86005 0.77095 0.97158 0.0
C355 C 0.87233 0.69867 0.97229 0.0
C356 C 0.85143 0.7484 0.92348 0.0
C357 C 0.96958 0.77741 0.9804 0.0
C358 C 0.97438 0.77841 0.92679 0.0
H359 H 0.79484 0.7047 0.93378 0.0
H360 H 0.80723 0.67476 0.95993 0.0
H361 H 0.89629 0.69551 1.00253 0.0
H362 H 0.94742 0.74136 0.00719 0.0
H363 H 0.03378 0.80703 0.9688 0.0
H364 H 0.03799 0.80473 0.93936 0.0
H365 H 0.94848 0.78727 0.89722 0.0
H366 H 0.88038 0.77431 0.89588 0.0
H367 H 0.9038 0.88202 0.95126 0.0
H368 H 0.8386 0.82467 0.98205 0.0
H369 H 0.92633 0.63247 0.92521 0.0
H370 H 1.00303 0.65202 0.95945 0.0
C371 C 0.77456 0.03403 0.05033 0.0
C372 C 0.77879 0.99947 0.05485 0.0
C373 C 0.77798 0.99934 0.07008 0.0
C374 C 0.77165 0.03336 0.07403 0.0
N375 N 0.7683 0.05475 0.06225 0.0
Co376 Co 0.74791 0.10227 0.06314 0.0
N377 N 0.76158 0.10789 0.08429 0.0
C378 C 0.76976 0.08157 0.09361 0.0
C379 C 0.77768 0.0928 0.10769 0.0
C380 C 0.77366 0.12838 0.10729 0.0
C381 C 0.76305 0.1369 0.09295 0.0
N382 N 0.72675 0.1496 0.06425 0.0
C383 C 0.73034 0.17515 0.07465 0.0
C384 C 0.70865 0.20326 0.07139 0.0
C385 C 0.69053 0.19461 0.05871 0.0
C386 C 0.7021 0.16182 0.05489 0.0
N387 N 0.73439 0.09623 0.042 0.0
C388 C 0.70736 0.11275 0.03551 0.0
C389 C 0.69917 0.09898 0.02188 0.0
C390 C 0.72274 0.07229 0.01969 0.0
C391 C 0.74534 0.07219 0.03184 0.0
N392 N 0.70251 0.08177 0.06924 0.0
C393 C 0.63432 0.05648 0.07503 0.0
C394 C 0.65601 0.04042 0.06448 0.0
C395 C 0.68967 0.0533 0.06179 0.0
C396 C 0.64812 0.08493 0.083 0.0
C397 C 0.68224 0.09696 0.08002 0.0
N398 N 0.79247 0.12272 0.05656 0.0
C399 C 0.82239 0.16039 0.03924 0.0
C400 C 0.85508 0.14751 0.04374 0.0
C401 C 0.85572 0.12289 0.05537 0.0
C402 C 0.8241 0.11081 0.06162 0.0
C403 C 0.7917 0.14773 0.0457 0.0
H404 H 0.8251 0.09115 0.07023 0.0
H405 H 0.76715 0.15749 0.04151 0.0
H406 H 0.70481 0.04068 0.05324 0.0
H407 H 0.69183 0.11912 0.08621 0.0
C408 C 0.77211 0.0471 0.08844 0.0
C409 C 0.77343 0.04609 0.03472 0.0
C410 C 0.75033 0.17181 0.08863 0.0
C411 C 0.69293 0.14285 0.04207 0.0
H412 H 0.78171 0.97659 0.04789 0.0
H413 H 0.78164 0.97713 0.07737 0.0
H414 H 0.78558 0.07707 0.11712 0.0
H415 H 0.77698 0.14586 0.11664 0.0
H416 H 0.7054 0.227 0.07778 0.0
H417 H 0.67133 0.21044 0.05295 0.0
H418 H 0.67826 0.10696 0.0145 0.0
H419 H 0.72149 0.05383 0.01062 0.0
H420 H 0.64666 0.01869 0.05787 0.0
H421 H 0.63263 0.09797 0.09143 0.0
H422 H 0.82038 0.17997 0.03058 0.0
H423 H 0.88032 0.11216 0.05926 0.0
C424 C 0.67942 0.72195 0.82463 0.0
C425 C 0.70629 0.6982 0.82217 0.0
C426 C 0.69789 0.68025 0.80945 0.0
C427 C 0.66644 0.69393 0.80484 0.0
N428 N 0.65471 0.71963 0.81378 0.0
Co429 Co 0.60955 0.74504 0.81135 0.0
N430 N 0.60442 0.7298 0.79031 0.0
C431 C 0.62161 0.70302 0.78392 0.0
C432 C 0.61246 0.69824 0.76928 0.0
C433 C 0.58777 0.72344 0.76634 0.0
C434 C 0.58318 0.74221 0.77939 0.0
N435 N 0.56437 0.77034 0.80904 0.0
C436 C 0.54673 0.77961 0.79656 0.0
C437 C 0.51573 0.79677 0.80009 0.0
C438 C 0.51395 0.79811 0.81529 0.0
C439 C 0.54379 0.78176 0.82018 0.0
N440 N 0.61437 0.76026 0.83241 0.0
C441 C 0.58847 0.77321 0.84097 0.0
C442 C 0.59919 0.78137 0.8551 0.0
C443 C 0.63395 0.7727 0.85556 0.0
C444 C 0.64249 0.75946 0.84164 0.0
N445 N 0.6351 0.78668 0.80451 0.0
C446 C 0.66722 0.84556 0.79157 0.0
C447 C 0.64208 0.84933 0.80289 0.0
C448 C 0.62631 0.81957 0.8092 0.0
C449 C 0.67693 0.81161 0.78745 0.0
C450 C 0.66074 0.78278 0.79402 0.0
N451 N 0.58416 0.7027 0.81776 0.0
C452 C 0.58272 0.64894 0.83185 0.0
C453 C 0.55469 0.6363 0.82328 0.0
C454 C 0.54058 0.65866 0.81246 0.0
C455 C 0.5555 0.69157 0.80993 0.0
C456 C 0.59686 0.68214 0.82899 0.0
H457 H 0.54465 0.70735 0.80114 0.0
H458 H 0.61892 0.69058 0.83555 0.0
H459 H 0.60637 0.82316 0.81757 0.0
H460 H 0.66842 0.75724 0.79023 0.0
C461 C 0.64951 0.68671 0.79133 0.0
C462 C 0.67659 0.74368 0.83809 0.0
C463 C 0.55686 0.76995 0.78136 0.0
C464 C 0.55597 0.78166 0.83482 0.0
H465 H 0.72922 0.6939 0.82901 0.0
H466 H 0.71327 0.66015 0.80405 0.0
H467 H 0.62321 0.67944 0.76154 0.0
H468 H 0.57449 0.72737 0.75584 0.0
H469 H 0.49624 0.80695 0.7925 0.0
H470 H 0.49389 0.81058 0.82194 0.0
H471 H 0.58383 0.79311 0.8639 0.0
H472 H 0.65092 0.77541 0.86513 0.0
H473 H 0.63374 0.87504 0.80647 0.0
H474 H 0.69674 0.80724 0.77903 0.0
H475 H 0.5941 0.6331 0.84058 0.0
H476 H 0.51906 0.65029 0.80548 0.0
C477 C 0.78376 0.47941 0.21471 0.0
C478 C 0.79856 0.5115 0.2111 0.0
C479 C 0.7976 0.5142 0.19592 0.0
C480 C 0.78223 0.48383 0.19111 0.0
N481 N 0.77356 0.4621 0.20229 0.0
Co482 Co 0.75025 0.41594 0.20012 0.0
N483 N 0.76299 0.41286 0.1787 0.0
C484 C 0.77368 0.4397 0.17013 0.0
C485 C 0.78093 0.43005 0.15578 0.0
C486 C 0.77401 0.39499 0.15517 0.0
C487 C 0.76249 0.3852 0.16923 0.0
N488 N 0.72677 0.36979 0.19782 0.0
C489 C 0.72894 0.34575 0.18671 0.0
C490 C 0.70679 0.31772 0.18946 0.0
C491 C 0.69007 0.32464 0.20265 0.0
C492 C 0.70279 0.35644 0.20722 0.0
N493 N 0.73753 0.41928 0.22152 0.0
C494 C 0.71254 0.40044 0.22837 0.0
C495 C 0.70972 0.40817 0.24324 0.0
C496 C 0.73433 0.43363 0.24586 0.0
C497 C 0.75075 0.44017 0.23237 0.0
N498 N 0.70584 0.43953 0.19497 0.0
C499 C 0.63779 0.46722 0.19116 0.0
C500 C 0.6612 0.48156 0.20153 0.0
C501 C 0.6948 0.46747 0.20324 0.0
C502 C 0.65016 0.43985 0.18214 0.0
C503 C 0.68418 0.42657 0.18416 0.0
N504 N 0.79408 0.39241 0.2058 0.0
C505 C 0.82323 0.35255 0.22247 0.0
C506 C 0.85612 0.3657 0.2184 0.0
C507 C 0.85731 0.39112 0.20712 0.0
C508 C 0.826 0.40407 0.20094 0.0
C509 C 0.79281 0.36612 0.21609 0.0
H510 H 0.82757 0.42445 0.19268 0.0
H511 H 0.76811 0.35618 0.22 0.0
H512 H 0.7114 0.47858 0.21169 0.0
H513 H 0.69244 0.40495 0.17731 0.0
C514 C 0.78104 0.47231 0.17639 0.0
C515 C 0.77718 0.46769 0.23001 0.0
C516 C 0.7487 0.35025 0.17276 0.0
C517 C 0.69659 0.37225 0.22106 0.0
H518 H 0.80871 0.53108 0.21864 0.0
H519 H 0.80802 0.53523 0.1892 0.0
H520 H 0.79103 0.44632 0.14691 0.0
H521 H 0.77679 0.37866 0.14542 0.0
H522 H 0.70267 0.29498 0.18252 0.0
H523 H 0.67143 0.30808 0.20836 0.0
H524 H 0.69277 0.39587 0.25135 0.0
H525 H 0.7395 0.44597 0.25645 0.0
H526 H 0.65353 0.50334 0.20849 0.0
H527 H 0.63329 0.42778 0.17394 0.0
H528 H 0.82086 0.33227 0.23082 0.0
H529 H 0.88209 0.402 0.20352 0.0
C530 C 0.34123 0.30051 0.82443 0.0
C531 C 0.31477 0.32443 0.82154 0.0
C532 C 0.32415 0.34188 0.8088 0.0
C533 C 0.35572 0.32772 0.80461 0.0
N534 N 0.36663 0.30221 0.81383 0.0
Co535 Co 0.41155 0.27608 0.812 0.0
N536 N 0.41845 0.29108 0.791 0.0
C537 C 0.40223 0.31819 0.78439 0.0
C538 C 0.41258 0.32289 0.7699 0.0
C539 C 0.43707 0.29733 0.76727 0.0
C540 C 0.44037 0.27843 0.78037 0.0
N541 N 0.45621 0.24961 0.81023 0.0
C542 C 0.47449 0.23989 0.79797 0.0
C543 C 0.50474 0.22189 0.80188 0.0
C544 C 0.50542 0.2205 0.81708 0.0
C545 C 0.47571 0.23766 0.82161 0.0
N546 N 0.40526 0.2616 0.8331 0.0
C547 C 0.43043 0.24844 0.84198 0.0
C548 C 0.41885 0.24107 0.85607 0.0
C549 C 0.38426 0.25046 0.85616 0.0
C550 C 0.37669 0.26326 0.84206 0.0
N551 N 0.38552 0.23478 0.80507 0.0
C552 C 0.35147 0.17562 0.79265 0.0
C553 C 0.3732 0.17282 0.80534 0.0
C554 C 0.39034 0.20241 0.81116 0.0
C555 C 0.34703 0.20947 0.78677 0.0
C556 C 0.36322 0.2383 0.79331 0.0
N557 N 0.4374 0.31809 0.81848 0.0
C558 C 0.43813 0.37329 0.83155 0.0
C559 C 0.46691 0.38482 0.82313 0.0
C560 C 0.48202 0.36102 0.81314 0.0
C561 C 0.46704 0.32801 0.81102 0.0
C562 C 0.42397 0.33987 0.82913 0.0
H563 H 0.47867 0.31119 0.80278 0.0
H564 H 0.40114 0.33237 0.83543 0.0
H565 H 0.40776 0.19901 0.82049 0.0
H566 H 0.35825 0.26353 0.78847 0.0
C567 C 0.37383 0.33471 0.79137 0.0
C568 C 0.34301 0.27924 0.83805 0.0
C569 C 0.46604 0.25024 0.78265 0.0
C570 C 0.46288 0.23869 0.83614 0.0
H571 H 0.29151 0.32922 0.82811 0.0
H572 H 0.30938 0.36205 0.80315 0.0
H573 H 0.40267 0.34183 0.76201 0.0
H574 H 0.45101 0.2932 0.75695 0.0
H575 H 0.52458 0.21135 0.79453 0.0
H576 H 0.52478 0.20768 0.82398 0.0
H577 H 0.43348 0.22928 0.86508 0.0
H578 H 0.36675 0.24845 0.86558 0.0
H579 H 0.37749 0.14814 0.81086 0.0
H580 H 0.33189 0.21449 0.77688 0.0
H581 H 0.42552 0.39047 0.83949 0.0
H582 H 0.5049 0.36807 0.80668 0.0
C583 C 0.23987 0.54036 0.21516 0.0
C584 C 0.22546 0.50829 0.21126 0.0
C585 C 0.22659 0.50635 0.19605 0.0
C586 C 0.24168 0.53711 0.19152 0.0
N587 N 0.25002 0.55835 0.20291 0.0
Co588 Co 0.27289 0.60479 0.2012 0.0
N589 N 0.26005 0.60896 0.17984 0.0
C590 C 0.24984 0.58246 0.17099 0.0
C591 C 0.24278 0.59282 0.1567 0.0
C592 C 0.24933 0.62799 0.15646 0.0
C593 C 0.26034 0.63714 0.17066 0.0
N594 N 0.29599 0.65123 0.19937 0.0
C595 C 0.29356 0.67586 0.18851 0.0
C596 C 0.31547 0.70392 0.19152 0.0
C597 C 0.33234 0.69639 0.20461 0.0
C598 C 0.31991 0.66423 0.20888 0.0
N599 N 0.28567 0.60037 0.22254 0.0
C600 C 0.31053 0.61899 0.22958 0.0
C601 C 0.31325 0.61058 0.24439 0.0
C602 C 0.28871 0.58491 0.24676 0.0
C603 C 0.27243 0.57894 0.2332 0.0
N604 N 0.31745 0.58189 0.19574 0.0
C605 C 0.38513 0.55417 0.19094 0.0
C606 C 0.36242 0.53954 0.20152 0.0
C607 C 0.32895 0.55363 0.20371 0.0
C608 C 0.37245 0.5822 0.18239 0.0
C609 C 0.33862 0.59546 0.18488 0.0
N610 N 0.22887 0.62764 0.20713 0.0
C611 C 0.19929 0.6666 0.22406 0.0
C612 C 0.1665 0.65365 0.21973 0.0
C613 C 0.16562 0.62872 0.20825 0.0
C614 C 0.19708 0.61612 0.20209 0.0
C615 C 0.22988 0.65338 0.21767 0.0
H616 H 0.19573 0.59615 0.19364 0.0
H617 H 0.25448 0.66319 0.22174 0.0
H618 H 0.31282 0.54224 0.21227 0.0
H619 H 0.33001 0.61734 0.17827 0.0
C620 C 0.24285 0.5494 0.17691 0.0
C621 C 0.24607 0.55152 0.23056 0.0
C622 C 0.27367 0.672 0.17458 0.0
C623 C 0.32628 0.6477 0.22255 0.0
H624 H 0.21542 0.48826 0.21861 0.0
H625 H 0.21644 0.48554 0.18913 0.0
H626 H 0.23315 0.5769 0.14763 0.0
H627 H 0.24675 0.64483 0.14685 0.0
H628 H 0.3193 0.7271 0.18481 0.0
H629 H 0.35085 0.7128 0.21047 0.0
H630 H 0.33004 0.6226 0.25262 0.0
H631 H 0.28346 0.57211 0.25725 0.0
H632 H 0.37086 0.51808 0.20851 0.0
H633 H 0.38863 0.59407 0.17388 0.0
H634 H 0.20144 0.6865 0.23257 0.0
H635 H 0.14094 0.61799 0.20446 0.0
C636 C 0.67764 0.79623 0.4396 0.0
C637 C 0.70421 0.82007 0.4424 0.0
C638 C 0.69535 0.83722 0.45527 0.0
C639 C 0.66394 0.823 0.45962 0.0
N640 N 0.65267 0.79771 0.45038 0.0
Co641 Co 0.60771 0.77176 0.4524 0.0
N642 N 0.60189 0.78575 0.47356 0.0
C643 C 0.61883 0.81219 0.48031 0.0
C644 C 0.60967 0.81573 0.49501 0.0
C645 C 0.58523 0.79011 0.49761 0.0
C646 C 0.58066 0.77239 0.48429 0.0
N647 N 0.56274 0.74591 0.45426 0.0
C648 C 0.54477 0.73589 0.46655 0.0
C649 C 0.51377 0.71915 0.46268 0.0
C650 C 0.51243 0.71869 0.44747 0.0
C651 C 0.54245 0.7352 0.4429 0.0
N652 N 0.61318 0.75776 0.43121 0.0
C653 C 0.58759 0.74517 0.42241 0.0
C654 C 0.59867 0.73794 0.40823 0.0
C655 C 0.63338 0.74687 0.408 0.0
C656 C 0.6415 0.75932 0.4221 0.0
N657 N 0.63352 0.73001 0.45896 0.0
C658 C 0.66508 0.67094 0.472 0.0
C659 C 0.64052 0.66731 0.46045 0.0
C660 C 0.62499 0.69719 0.4541 0.0
C661 C 0.67468 0.7048 0.47624 0.0
C662 C 0.65882 0.73372 0.46961 0.0
N663 N 0.58201 0.81424 0.44634 0.0
C664 C 0.58059 0.86928 0.43313 0.0
C665 C 0.55231 0.88101 0.44181 0.0
C666 C 0.53791 0.85745 0.45209 0.0
C667 C 0.55298 0.82444 0.45416 0.0
C668 C 0.59486 0.83587 0.43549 0.0
H669 H 0.54187 0.80777 0.46258 0.0
H670 H 0.61726 0.8282 0.42896 0.0
H671 H 0.60535 0.69375 0.4456 0.0
H672 H 0.66634 0.75918 0.47354 0.0
C673 C 0.6467 0.82919 0.47316 0.0
C674 C 0.67537 0.77517 0.42593 0.0
C675 C 0.55448 0.7446 0.48192 0.0
C676 C 0.55498 0.73624 0.42833 0.0
H677 H 0.72726 0.82495 0.43569 0.0
H678 H 0.71044 0.85712 0.46094 0.0
H679 H 0.62036 0.83393 0.50303 0.0
H680 H 0.57221 0.78518 0.50809 0.0
H681 H 0.4939 0.70875 0.47004 0.0
H682 H 0.49247 0.70679 0.44059 0.0
H683 H 0.58359 0.72668 0.39924 0.0
H684 H 0.65056 0.7449 0.39846 0.0
H685 H 0.63236 0.64163 0.45676 0.0
H686 H 0.69406 0.70903 0.48485 0.0
H687 H 0.59271 0.88627 0.42499 0.0
H688 H 0.51543 0.86464 0.45878 0.0
C689 C 0.75603 0.48337 0.55091 0.0
C690 C 0.74073 0.51445 0.55558 0.0
C691 C 0.72765 0.50853 0.56949 0.0
C692 C 0.7358 0.47439 0.57257 0.0
N693 N 0.75375 0.45838 0.56161 0.0
Co694 Co 0.77045 0.40883 0.56182 0.0
N695 N 0.76023 0.40366 0.5835 0.0
C696 C 0.74042 0.42548 0.59173 0.0
C697 C 0.7368 0.41512 0.60623 0.0
C698 C 0.7553 0.38466 0.60729 0.0
C699 C 0.76936 0.37818 0.59331 0.0
N700 N 0.7873 0.35933 0.56219 0.0
C701 C 0.79451 0.33774 0.57385 0.0
C702 C 0.80565 0.30522 0.5689 0.0
C703 C 0.80467 0.30618 0.55369 0.0
C704 C 0.79327 0.33917 0.55018 0.0
N705 N 0.78015 0.41384 0.54006 0.0
C706 C 0.78683 0.38735 0.5306 0.0
C707 C 0.7908 0.39797 0.51613 0.0
C708 C 0.7857 0.43337 0.51637 0.0
C709 C 0.77887 0.44238 0.53103 0.0
N710 N 0.81834 0.42524 0.56627 0.0
C711 C 0.88628 0.45321 0.56997 0.0
C712 C 0.87971 0.42647 0.55969 0.0
C713 C 0.84591 0.41283 0.55809 0.0
C714 C 0.85815 0.46466 0.57881 0.0
C715 C 0.82448 0.45045 0.57676 0.0
N716 N 0.72275 0.39236 0.55689 0.0
C717 C 0.67853 0.34702 0.55699 0.0
C718 C 0.6607 0.36334 0.54522 0.0
C719 C 0.67323 0.39566 0.54028 0.0
C720 C 0.70389 0.40962 0.54624 0.0
C721 C 0.70943 0.36202 0.5627 0.0
H722 H 0.71292 0.43379 0.54165 0.0
H723 H 0.72317 0.3483 0.57139 0.0
H724 H 0.8421 0.39265 0.54994 0.0
H725 H 0.80332 0.46046 0.58345 0.0
C726 C 0.72947 0.45749 0.58601 0.0
C727 C 0.76718 0.47743 0.53549 0.0
C728 C 0.78869 0.34614 0.58963 0.0
C729 C 0.79182 0.35337 0.53588 0.0
H730 H 0.73812 0.53851 0.54933 0.0
H731 H 0.71392 0.52695 0.57653 0.0
H732 H 0.72304 0.42853 0.61508 0.0
H733 H 0.75773 0.36883 0.61721 0.0
H734 H 0.81333 0.28297 0.57558 0.0
H735 H 0.81219 0.28553 0.5461 0.0
H736 H 0.79676 0.38193 0.50654 0.0
H737 H 0.78595 0.45051 0.50679 0.0
H738 H 0.9006 0.41612 0.55283 0.0
H739 H 0.86184 0.48524 0.58692 0.0
H740 H 0.66962 0.32214 0.56132 0.0
H741 H 0.65987 0.40985 0.53153 0.0
C742 C 0.34225 0.22404 0.43812 0.0
C743 C 0.31392 0.20214 0.44072 0.0
C744 C 0.32073 0.18481 0.45377 0.0
C745 C 0.35275 0.19698 0.45841 0.0
N746 N 0.36635 0.22119 0.44919 0.0
Co747 Co 0.41288 0.24401 0.4516 0.0
N748 N 0.41626 0.23008 0.47285 0.0
C749 C 0.3973 0.20488 0.47949 0.0
C750 C 0.40554 0.20079 0.49425 0.0
C751 C 0.43148 0.22478 0.49704 0.0
C752 C 0.43765 0.24218 0.48376 0.0
N753 N 0.4594 0.2667 0.45389 0.0
C754 C 0.47692 0.27601 0.46638 0.0
C755 C 0.50898 0.29114 0.46289 0.0
C756 C 0.51153 0.29113 0.4477 0.0
C757 C 0.48106 0.27605 0.44277 0.0
N758 N 0.40976 0.25784 0.4303 0.0
C759 C 0.43668 0.2687 0.42178 0.0
C760 C 0.42699 0.27646 0.40748 0.0
C761 C 0.39182 0.26971 0.40685 0.0
C762 C 0.38201 0.25786 0.42085 0.0
N763 N 0.38983 0.28773 0.4577 0.0
C764 C 0.36344 0.3497 0.47042 0.0
C765 C 0.38859 0.35082 0.45901 0.0
C766 C 0.4014 0.31957 0.4528 0.0
C767 C 0.35052 0.31688 0.47465 0.0
C768 C 0.36388 0.28647 0.46818 0.0
N769 N 0.43604 0.19979 0.44595 0.0
C770 C 0.43621 0.14537 0.43228 0.0
C771 C 0.46402 0.13247 0.44093 0.0
C772 C 0.47834 0.15478 0.45171 0.0
C773 C 0.46412 0.18808 0.45401 0.0
C774 C 0.42282 0.17904 0.43489 0.0
H775 H 0.47525 0.20385 0.46273 0.0
H776 H 0.40112 0.18786 0.4282 0.0
H777 H 0.42155 0.32114 0.44441 0.0
H778 H 0.354 0.26181 0.47211 0.0
C779 C 0.36872 0.18976 0.47211 0.0
C780 C 0.34695 0.2442 0.42432 0.0
C781 C 0.46545 0.26829 0.48161 0.0
C782 C 0.46942 0.27565 0.42806 0.0
H783 H 0.29107 0.19855 0.43376 0.0
H784 H 0.304 0.16608 0.45933 0.0
H785 H 0.39337 0.18332 0.50219 0.0
H786 H 0.44449 0.22885 0.50758 0.0
H787 H 0.5286 0.30092 0.47052 0.0
H788 H 0.53251 0.302 0.44106 0.0
H789 H 0.44333 0.28672 0.39866 0.0
H790 H 0.37542 0.27276 0.39713 0.0
H791 H 0.39933 0.37553 0.45531 0.0
H792 H 0.33049 0.31457 0.48313 0.0
H793 H 0.42462 0.12948 0.42362 0.0
H794 H 0.4996 0.14616 0.45878 0.0
C795 C 0.28013 0.54052 0.54843 0.0
C796 C 0.29516 0.50895 0.55265 0.0
C797 C 0.29389 0.50774 0.56786 0.0
C798 C 0.27812 0.53841 0.57207 0.0
N799 N 0.26948 0.55895 0.56049 0.0
Co800 Co 0.24563 0.60507 0.56176 0.0
N801 N 0.25757 0.61021 0.58321 0.0
C802 C 0.26831 0.58428 0.59226 0.0
C803 C 0.2746 0.59517 0.60653 0.0
C804 C 0.26693 0.63011 0.60657 0.0
C805 C 0.25604 0.63856 0.59228 0.0
N806 N 0.22165 0.65123 0.56315 0.0
C807 C 0.22284 0.67614 0.57394 0.0
C808 C 0.20062 0.70374 0.57056 0.0
C809 C 0.18477 0.69563 0.55732 0.0
C810 C 0.19808 0.66362 0.55333 0.0
N811 N 0.23366 0.59964 0.54036 0.0
C812 C 0.20886 0.61774 0.53303 0.0
C813 C 0.2066 0.60863 0.51829 0.0
C814 C 0.23136 0.58304 0.51626 0.0
C815 C 0.2473 0.57779 0.52994 0.0
N816 N 0.20125 0.58155 0.56708 0.0
C817 C 0.13401 0.55255 0.57157 0.0
C818 C 0.15765 0.53768 0.56145 0.0
C819 C 0.19085 0.55249 0.55936 0.0
C820 C 0.14544 0.58154 0.57983 0.0
C821 C 0.17913 0.59537 0.57754 0.0
N822 N 0.28952 0.62848 0.55597 0.0
C823 C 0.31925 0.66712 0.53893 0.0
C824 C 0.35207 0.65516 0.54371 0.0
C825 C 0.35282 0.63085 0.55544 0.0
C826 C 0.32128 0.61788 0.56141 0.0
C827 C 0.28857 0.65363 0.54516 0.0
H828 H 0.32262 0.59838 0.57006 0.0
H829 H 0.26399 0.66275 0.54079 0.0
H830 H 0.20766 0.54093 0.55108 0.0
H831 H 0.18686 0.61784 0.58397 0.0
C832 C 0.27632 0.55125 0.58658 0.0
C833 C 0.27373 0.5506 0.53291 0.0
C834 C 0.24161 0.67289 0.58818 0.0
C835 C 0.19255 0.64653 0.53974 0.0
H836 H 0.30564 0.48873 0.54551 0.0
H837 H 0.30432 0.48746 0.57499 0.0
H838 H 0.2844 0.57977 0.61573 0.0
H839 H 0.26869 0.64723 0.61612 0.0
H840 H 0.19583 0.72694 0.57715 0.0
H841 H 0.16625 0.71151 0.5512 0.0
H842 H 0.18991 0.62013 0.50988 0.0
H843 H 0.23695 0.56976 0.5059 0.0
H844 H 0.15013 0.51544 0.55472 0.0
H845 H 0.12841 0.59365 0.58797 0.0
H846 H 0.31715 0.6865 0.53019 0.0
H847 H 0.3775 0.62086 0.55958 0.0
C848 C 0.17135 0.38463 0.27017 0.0
C849 C 0.16659 0.38521 0.28566 0.0
C850 C 0.18377 0.41402 0.2624 0.0
C851 C 0.19171 0.44515 0.27023 0.0
C852 C 0.18637 0.44625 0.28584 0.0
C853 C 0.17379 0.41635 0.29336 0.0
C854 C 0.18872 0.41159 0.24576 0.0
C855 C 0.19446 0.47886 0.29462 0.0
C856 C 0.25569 0.505 0.24987 0.0
C857 C 0.233 0.5286 0.24284 0.0
C858 C 0.24278 0.47893 0.25947 0.0
C859 C 0.20619 0.47605 0.26198 0.0
C860 C 0.18333 0.50076 0.25533 0.0
C861 C 0.19701 0.52662 0.2458 0.0
C862 C 0.26816 0.45325 0.26626 0.0
C863 C 0.14422 0.49875 0.25761 0.0
H864 H 0.16517 0.36104 0.26403 0.0
H865 H 0.17038 0.41712 0.30532 0.0
H866 H 0.17315 0.43217 0.24012 0.0
H867 H 0.21663 0.41612 0.2429 0.0
H868 H 0.18076 0.38573 0.24127 0.0
H869 H 0.18785 0.47599 0.30659 0.0
H870 H 0.22274 0.48517 0.29363 0.0
H871 H 0.17967 0.50137 0.29003 0.0
H872 H 0.28343 0.50596 0.24731 0.0
H873 H 0.17941 0.5445 0.24015 0.0
H874 H 0.26424 0.4271 0.2612 0.0
H875 H 0.26328 0.45063 0.27837 0.0
H876 H 0.29587 0.46117 0.26454 0.0
H877 H 0.13384 0.4751 0.252 0.0
H878 H 0.13046 0.52201 0.25307 0.0
H879 H 0.13796 0.49634 0.26961 0.0
C880 C 0.50573 0.75906 0.76446 0.0
C881 C 0.53336 0.7808 0.76889 0.0
C882 C 0.47932 0.7713 0.75483 0.0
C883 C 0.48055 0.80618 0.74948 0.0
C884 C 0.50942 0.82765 0.75342 0.0
C885 C 0.53529 0.81479 0.76318 0.0
C886 C 0.44903 0.74754 0.7511 0.0
C887 C 0.51204 0.86485 0.74797 0.0
C888 C 0.41917 0.83435 0.71789 0.0
C889 C 0.39217 0.85123 0.72571 0.0
C890 C 0.44811 0.81957 0.7254 0.0
C891 C 0.44999 0.82131 0.74115 0.0
C892 C 0.42249 0.83778 0.74908 0.0
C893 C 0.39413 0.8525 0.74131 0.0
C894 C 0.47689 0.80246 0.7165 0.0
C895 C 0.423 0.83994 0.76586 0.0
H896 H 0.50389 0.73299 0.76912 0.0
H897 H 0.55638 0.83175 0.7668 0.0
H898 H 0.42491 0.75737 0.75658 0.0
H899 H 0.44413 0.74748 0.73895 0.0
H900 H 0.45368 0.72024 0.75482 0.0
H901 H 0.53785 0.87676 0.7506 0.0
H902 H 0.50787 0.86598 0.73577 0.0
H903 H 0.49124 0.88087 0.75325 0.0
H904 H 0.41804 0.83334 0.70585 0.0
H905 H 0.37314 0.86481 0.74752 0.0
H906 H 0.48036 0.77496 0.72013 0.0
H907 H 0.50206 0.81614 0.71854 0.0
H908 H 0.47141 0.80277 0.70437 0.0
H909 H 0.42463 0.8133 0.77069 0.0
H910 H 0.39938 0.85314 0.77039 0.0
H911 H 0.44654 0.85449 0.76959 0.0
C912 C 0.8256 0.49209 0.24576 0.0
C913 C 0.78975 0.49029 0.24248 0.0
C914 C 0.83889 0.51773 0.25549 0.0
C915 C 0.81581 0.54241 0.26202 0.0
C916 C 0.77934 0.53969 0.2592 0.0
C917 C 0.7668 0.51382 0.24941 0.0
C918 C 0.87789 0.51956 0.25811 0.0
C919 C 0.75372 0.56535 0.26585 0.0
C920 C 0.84688 0.60148 0.29386 0.0
C921 C 0.85447 0.63275 0.28632 0.0
C922 C 0.83459 0.57175 0.28614 0.0
C923 C 0.82999 0.57313 0.2705 0.0
C924 C 0.83837 0.60439 0.26283 0.0
C925 C 0.85043 0.63363 0.2708 0.0
C926 C 0.82597 0.53902 0.29476 0.0
C927 C 0.83426 0.60711 0.24616 0.0
H928 H 0.8434 0.47427 0.2402 0.0
H929 H 0.73918 0.51299 0.24662 0.0
H930 H 0.88863 0.54325 0.25265 0.0
H931 H 0.88357 0.52175 0.27017 0.0
H932 H 0.89178 0.49631 0.25363 0.0
H933 H 0.72607 0.55757 0.26386 0.0
H934 H 0.75801 0.56774 0.27801 0.0
H935 H 0.75798 0.59157 0.2609 0.0
H936 H 0.84975 0.6005 0.30584 0.0
H937 H 0.8569 0.65734 0.26479 0.0
H938 H 0.84091 0.51653 0.29022 0.0
H939 H 0.79773 0.53282 0.2935 0.0
H940 H 0.83201 0.54166 0.30679 0.0
H941 H 0.85002 0.58655 0.24059 0.0
H942 H 0.84256 0.633 0.24182 0.0
H943 H 0.80649 0.60275 0.24305 0.0
C944 C 0.51803 0.26193 0.76628 0.0
C945 C 0.49064 0.23964 0.77052 0.0
C946 C 0.54494 0.25028 0.75677 0.0
C947 C 0.54455 0.21543 0.75138 0.0
C948 C 0.51605 0.19334 0.75518 0.0
C949 C 0.4896 0.20564 0.76478 0.0
C950 C 0.57479 0.27471 0.75317 0.0
C951 C 0.51438 0.1561 0.74969 0.0
C952 C 0.60696 0.18842 0.71995 0.0
C953 C 0.6341 0.17201 0.72786 0.0
C954 C 0.57769 0.20277 0.72739 0.0
C955 C 0.57559 0.20102 0.74313 0.0
C956 C 0.60327 0.18512 0.75115 0.0
C957 C 0.63199 0.17088 0.74346 0.0
C958 C 0.54874 0.21935 0.71841 0.0
C959 C 0.60252 0.18295 0.76792 0.0
H960 H 0.51916 0.28803 0.77095 0.0
H961 H 0.46868 0.18828 0.76825 0.0
H962 H 0.59903 0.26534 0.75869 0.0
H963 H 0.57989 0.275 0.74103 0.0
H964 H 0.56951 0.30187 0.75693 0.0
H965 H 0.48886 0.14355 0.75229 0.0
H966 H 0.51866 0.15515 0.7375 0.0
H967 H 0.53555 0.14058 0.75497 0.0
H968 H 0.60821 0.18931 0.70792 0.0
H969 H 0.65308 0.15892 0.74972 0.0
H970 H 0.5445 0.24669 0.7221 0.0
H971 H 0.52386 0.20502 0.7203 0.0
H972 H 0.55455 0.21937 0.70631 0.0
H973 H 0.60024 0.20954 0.77275 0.0
H974 H 0.62634 0.17026 0.77253 0.0
H975 H 0.57924 0.16789 0.77159 0.0
C976 C 0.19435 0.99441 0.0188 0.0
C977 C 0.23027 0.99283 0.02193 0.0
C978 C 0.1807 0.01984 0.00905 0.0
C979 C 0.20352 0.04451 1.00235 0.0
C980 C 0.24006 0.04201 1.00504 0.0
C981 C 0.25294 0.01638 0.01486 0.0
C982 C 0.14163 0.02148 1.00659 0.0
C983 C 0.26541 0.06765 0.99819 0.0
C984 C 0.17164 0.10294 0.97045 0.0
C985 C 0.16413 0.13432 0.97792 0.0
C986 C 0.18411 0.07335 0.97822 0.0
C987 C 0.18901 0.07502 0.99384 0.0
C988 C 0.1807 0.10638 1.00144 0.0
C989 C 0.16841 0.13546 0.99343 0.0
C990 C 0.19263 0.04049 0.96968 0.0
C991 C 0.18514 0.10939 0.01808 0.0
H992 H 0.17676 0.97657 0.02446 0.0
H993 H 0.28062 0.01573 0.01755 0.0
H994 H 0.13091 0.04524 0.01202 0.0
H995 H 0.13566 0.02344 0.99455 0.0
H996 H 0.12795 0.99827 0.01121 0.0
H997 H 0.29313 0.06001 1.0001 0.0
H998 H 0.26083 0.0698 0.98605 0.0
H999 H 0.26113 0.09395 1.00307 0.0
H1000 H 0.16857 0.10177 0.95848 0.0
H1001 H 0.162 0.15925 0.99938 0.0
H1002 H 0.17791 0.01804 0.97436 0.0
H1003 H 0.22093 0.03441 0.97081 0.0
H1004 H 0.18625 0.04289 0.95767 0.0
H1005 H 0.16961 0.08885 0.02378 0.0
H1006 H 0.1768 0.13532 0.02238 0.0
H1007 H 0.21301 0.10521 0.02111 0.0
C1008 C 0.13479 0.85177 0.02146 0.0
C1009 C 0.13344 0.85619 0.03696 0.0
C1010 C 0.10572 0.83956 0.01341 0.0
C1011 C 0.07415 0.83155 0.02096 0.0
C1012 C 0.07226 0.83661 0.03656 0.0
C1013 C 0.10186 0.84893 0.04437 0.0
C1014 C 0.10899 0.83486 0.99678 0.0
C1015 C 0.03913 0.82846 0.04503 0.0
C1016 C 0.99388 0.82639 0.99576 0.0
C1017 C 0.99209 0.7905 0.99278 0.0
C1018 C 0.01925 0.84 1.00555 0.0
C1019 C 0.04367 0.81716 0.01241 0.0
C1020 C 0.04097 0.78067 0.00985 0.0
C1021 C 0.01536 0.76783 1.00001 0.0
C1022 C 0.02108 0.87901 0.0079 0.0
C1023 C 0.0664 0.75533 0.01684 0.0
H1024 H 0.15873 0.85804 0.01555 0.0
H1025 H 0.10052 0.85211 0.05633 0.0
H1026 H 0.10457 0.80705 0.99382 0.0
H1027 H 0.08865 0.85048 0.991 0.0
H1028 H 0.13512 0.84285 0.99254 0.0
H1029 H 0.04136 0.83499 0.05702 0.0
H1030 H 0.01679 0.84322 0.04024 0.0
H1031 H 0.03288 0.80025 0.04395 0.0
H1032 H 0.97623 0.84395 0.98997 0.0
H1033 H 0.0145 0.74015 0.99744 0.0
H1034 H 0.04505 0.88946 1.00252 0.0
H1035 H 0.02286 0.88515 0.01993 0.0
H1036 H 0.99798 0.89273 1.00317 0.0
H1037 H 0.09288 0.75939 0.01205 0.0
H1038 H 0.05865 0.72768 0.01498 0.0
H1039 H 0.06833 0.76005 0.02899 0.0
C1040 C 0.87963 0.92119 0.97616 0.0
C1041 C 0.85715 0.89219 0.97481 0.0
C1042 C 0.86948 0.95146 0.98405 0.0
C1043 C 0.83644 0.95256 0.99126 0.0
C1044 C 0.81324 0.92394 0.98955 0.0
C1045 C 0.82354 0.89464 0.98116 0.0
C1046 C 0.895 0.98148 0.98502 0.0
C1047 C 0.77791 0.92357 0.99712 0.0
C1048 C 0.82261 1.0047 0.02684 0.0
C1049 C 0.79554 0.02796 0.02277 0.0
C1050 C 0.83689 0.98062 0.01669 0.0
C1051 C 0.82671 0.98187 1.0016 0.0
C1052 C 0.80515 1.0098 0.9968 0.0
C1053 C 0.79036 0.03282 0.00737 0.0
C1054 C 0.86153 0.95273 0.02233 0.0
C1055 C 0.79696 0.01473 0.98053 0.0
H1056 H 0.90575 0.92002 0.97148 0.0
H1057 H 0.80522 0.87326 0.97985 0.0
H1058 H 0.8817 1.00684 0.98703 0.0
H1059 H 0.91359 0.97662 0.99427 0.0
H1060 H 0.91065 0.98357 0.97464 0.0
H1061 H 0.76285 0.89938 0.99471 0.0
H1062 H 0.78146 0.92571 0.00934 0.0
H1063 H 0.76217 0.9464 0.9935 0.0
H1064 H 0.83218 1.00422 0.03814 0.0
H1065 H 0.7751 0.05447 1.00334 0.0
H1066 H 0.88722 0.95509 0.01667 0.0
H1067 H 0.85087 0.92644 0.01971 0.0
H1068 H 0.86581 0.95446 0.03452 0.0
H1069 H 0.82145 0.01377 0.97388 0.0
H1070 H 0.78341 0.03991 0.97833 0.0
H1071 H 0.77993 0.99311 0.97662 0.0
C1072 C 0.88744 0.16358 0.02035 0.0
C1073 C 0.88767 0.15929 0.03587 0.0
C1074 C 0.9167 0.17675 0.01268 0.0
C1075 C 0.9474 0.18584 0.02064 0.0
C1076 C 0.94828 0.18068 0.03626 0.0
C1077 C 0.91847 0.16744 0.04369 0.0
C1078 C 0.91449 0.1815 0.99603 0.0
C1079 C 0.98047 0.18985 0.04517 0.0
C1080 C 0.02874 0.19448 0.9962 0.0
C1081 C 0.0292 0.23043 0.99324 0.0
C1082 C 1.00357 0.17979 1.00581 0.0
C1083 C 0.97792 0.20156 0.0125 0.0
C1084 C 0.97934 0.23816 0.01002 0.0
C1085 C 1.00484 0.25211 1.00037 0.0
C1086 C 1.0032 0.14072 0.0081 0.0
C1087 C 0.95259 0.26241 0.01682 0.0
H1088 H 0.86415 0.15666 0.01412 0.0
H1089 H 0.91896 0.16438 0.05566 0.0
H1090 H 0.91799 0.20949 0.99317 0.0
H1091 H 0.93586 0.16677 0.99049 0.0
H1092 H 0.88903 0.17252 0.99143 0.0
H1093 H 0.97773 0.18273 0.05709 0.0
H1094 H 1.00373 0.17626 0.04054 0.0
H1095 H 0.98556 0.21834 0.04437 0.0
H1096 H 0.04721 0.17765 0.99047 0.0
H1097 H 1.00465 0.27981 0.99782 0.0
H1098 H 0.98023 0.12932 1.00231 0.0
H1099 H 1.0006 0.13436 0.02008 0.0
H1100 H 0.02729 0.12806 1.00372 0.0
H1101 H 0.92659 0.25752 0.01171 0.0
H1102 H 0.95945 0.29036 0.01515 0.0
H1103 H 0.95005 0.25734 0.02892 0.0
C1104 C 0.68651 0.87544 0.76808 0.0
C1105 C 0.68254 0.87634 0.7836 0.0
C1106 C 0.70169 0.90343 0.76026 0.0
C1107 C 0.71343 0.93333 0.7681 0.0
C1108 C 0.70931 0.93461 0.78377 0.0
C1109 C 0.69378 0.9062 0.79132 0.0
C1110 C 0.70501 0.90102 0.74356 0.0
C1111 C 0.72152 0.9659 0.79256 0.0
C1112 C 0.77913 0.98982 0.74682 0.0
C1113 C 0.75725 0.01545 0.74073 0.0
C1114 C 0.76555 0.96383 0.75634 0.0
C1115 C 0.7292 0.96335 0.75972 0.0
C1116 C 0.70736 0.9901 0.75397 0.0
C1117 C 0.72166 0.0158 0.74459 0.0
C1118 C 0.78984 0.93604 0.76229 0.0
C1119 C 0.66852 0.99065 0.75713 0.0
H1120 H 0.67736 0.85281 0.76195 0.0
H1121 H 0.69105 0.90709 0.80331 0.0
H1122 H 0.69055 0.92286 0.73824 0.0
H1123 H 0.7329 0.90352 0.74025 0.0
H1124 H 0.6947 0.87596 0.73911 0.0
H1125 H 0.71669 0.96287 0.80467 0.0
H1126 H 0.74997 0.97005 0.79074 0.0
H1127 H 0.70786 0.98978 0.78863 0.0
H1128 H 0.8066 0.98953 0.74377 0.0
H1129 H 0.70472 0.03555 0.73981 0.0
H1130 H 0.78318 0.91046 0.75722 0.0
H1131 H 0.78652 0.93333 0.77449 0.0
H1132 H 0.81776 0.94192 0.75986 0.0
H1133 H 0.65591 0.96766 0.75185 0.0
H1134 H 0.65571 0.01471 0.75286 0.0
H1135 H 0.66367 0.98877 0.76927 0.0
C1136 C 0.02897 0.32269 0.26686 0.0
C1137 C 0.03057 0.28678 0.26986 0.0
C1138 C 1.00346 0.33649 0.25718 0.0
C1139 C 0.97872 0.31384 0.25042 0.0
C1140 C 0.98128 0.27733 0.25296 0.0
C1141 C 1.00702 0.26428 0.2627 0.0
C1142 C 1.00177 0.37552 0.25487 0.0
C1143 C 0.95555 0.25217 0.24605 0.0
C1144 C 0.88746 0.3491 0.24194 0.0
C1145 C 0.88835 0.35376 0.22644 0.0
C1146 C 0.91672 0.3366 0.2498 0.0
C1147 C 0.94802 0.32849 0.24207 0.0
C1148 C 0.94944 0.33377 0.22646 0.0
C1149 C 0.91967 0.34642 0.21885 0.0
C1150 C 0.91395 0.33173 0.26643 0.0
C1151 C 0.98225 0.3255 0.21779 0.0
H1152 H 0.04681 0.34013 0.2726 0.0
H1153 H 1.0077 0.23661 0.26529 0.0
H1154 H 0.99956 0.38175 0.24286 0.0
H1155 H 0.97808 0.38609 0.26043 0.0
H1156 H 0.02513 0.38906 0.25945 0.0
H1157 H 0.9633 0.22448 0.2478 0.0
H1158 H 0.92926 0.25623 0.25103 0.0
H1159 H 0.95321 0.25708 0.23394 0.0
H1160 H 0.86373 0.35538 0.248 0.0
H1161 H 0.92065 0.34979 0.20689 0.0
H1162 H 0.93458 0.34714 0.27214 0.0
H1163 H 0.91827 0.30386 0.26932 0.0
H1164 H 0.88801 0.33986 0.27085 0.0
H1165 H 1.00481 0.34009 0.22246 0.0
H1166 H 0.97965 0.33215 0.20581 0.0
H1167 H 0.98838 0.29725 0.21879 0.0
C1168 C 0.24631 0.01762 0.75105 0.0
C1169 C 0.26814 1.00399 0.73994 0.0
C1170 C 0.25891 0.04228 0.76141 0.0
C1171 C 0.29356 0.05556 0.76002 0.0
C1172 C 0.31568 0.04164 0.7488 0.0
C1173 C 0.30314 0.01518 0.73937 0.0
C1174 C 0.2345 0.05403 0.77363 0.0
C1175 C 0.35239 0.05522 0.74635 0.0
C1176 C 0.30758 0.1482 0.77464 0.0
C1177 C 0.33449 0.14406 0.78527 0.0
C1178 C 0.29455 0.11993 0.76631 0.0
C1179 C 0.30606 0.08553 0.76944 0.0
C1180 C 0.3309 0.08046 0.78097 0.0
C1181 C 0.34554 0.10958 0.78832 0.0
C1182 C 0.26881 0.12744 0.75394 0.0
C1183 C 0.34287 0.04447 0.78564 0.0
H1184 H 0.21927 1.00906 0.75165 0.0
H1185 H 0.32048 1.00417 0.73104 0.0
H1186 H 0.24835 0.06703 0.78295 0.0
H1187 H 0.21484 0.07235 0.76895 0.0
H1188 H 0.21981 0.03129 0.77812 0.0
H1189 H 0.36251 0.04822 0.73516 0.0
H1190 H 0.35347 0.08407 0.74757 0.0
H1191 H 0.37018 0.04352 0.75472 0.0
H1192 H 0.29643 0.1736 0.77245 0.0
H1193 H 0.36605 0.1047 0.79633 0.0
H1194 H 0.24184 0.12238 0.75797 0.0
H1195 H 0.27366 0.11054 0.74412 0.0
H1196 H 0.27008 0.15516 0.75029 0.0
H1197 H 0.32525 0.02336 0.7817 0.0
H1198 H 0.34457 0.04295 0.79795 0.0
H1199 H 0.36962 0.0397 0.78126 0.0
C1200 C 0.01402 0.75361 0.26374 0.0
C1201 C 0.99033 0.73087 0.27068 0.0
C1202 C 0.04009 0.74089 0.25407 0.0
C1203 C 0.04283 0.70445 0.25138 0.0
C1204 C 0.01794 0.68157 0.2579 0.0
C1205 C 0.9921 0.69505 0.26751 0.0
C1206 C 0.06597 0.76628 0.24742 0.0
C1207 C 0.01979 0.64261 0.25542 0.0
C1208 C 0.10292 0.67286 0.21996 0.0
C1209 C 0.13402 0.66534 0.22768 0.0
C1210 C 0.07289 0.68524 0.22748 0.0
C1211 C 0.07383 0.69009 0.24311 0.0
C1212 C 0.1049 0.68182 0.25097 0.0
C1213 C 0.13442 0.66958 0.2432 0.0
C1214 C 0.04033 0.69368 0.21868 0.0
C1215 C 0.10715 0.68625 0.26764 0.0
H1216 H 0.0132 0.78121 0.26645 0.0
H1217 H 0.97415 0.67741 0.27309 0.0
H1218 H 0.09212 0.76215 0.25251 0.0
H1219 H 0.0687 0.76171 0.2353 0.0
H1220 H 0.0581 0.79391 0.24926 0.0
H1221 H 0.99631 0.62889 0.25981 0.0
H1222 H 0.02239 0.6367 0.24339 0.0
H1223 H 0.04332 0.63193 0.26106 0.0
H1224 H 0.1023 0.66984 0.20798 0.0
H1225 H 0.15797 0.66316 0.24935 0.0
H1226 H 0.03412 0.7219 0.21978 0.0
H1227 H 0.01765 0.67893 0.22317 0.0
H1228 H 0.0433 0.68736 0.20669 0.0
H1229 H 0.10267 0.71403 0.27064 0.0
H1230 H 0.13298 0.67807 0.27214 0.0
H1231 H 0.0864 0.67064 0.27316 0.0
C1232 C 0.7757 0.52879 0.51832 0.0
C1233 C 0.75417 0.50223 0.52388 0.0
C1234 C 0.7622 0.55457 0.50867 0.0
C1235 C 0.72624 0.5539 0.50463 0.0
C1236 C 0.70478 0.5263 0.50989 0.0
C1237 C 0.71902 0.50082 0.51941 0.0
C1238 C 0.78609 0.5833 0.50328 0.0
C1239 C 0.66634 0.52453 0.50602 0.0
C1240 C 0.68204 0.64082 0.49573 0.0
C1241 C 0.67983 0.64016 0.48014 0.0
C1242 C 0.69696 0.613 0.50375 0.0
C1243 C 0.71033 0.58357 0.49605 0.0
C1244 C 0.70793 0.5825 0.48031 0.0
C1245 C 0.69252 0.61069 0.47255 0.0
C1246 C 0.69836 0.61514 0.52051 0.0
C1247 C 0.72198 0.55175 0.47167 0.0
H1248 H 0.80283 0.52991 0.52185 0.0
H1249 H 0.70233 0.48034 0.52378 0.0
H1250 H 0.78401 0.5861 0.49103 0.0
H1251 H 0.77796 0.60855 0.50827 0.0
H1252 H 0.81392 0.57836 0.50623 0.0
H1253 H 0.65391 0.5 0.51002 0.0
H1254 H 0.65244 0.54702 0.51111 0.0
H1255 H 0.66267 0.52642 0.49382 0.0
H1256 H 0.6718 0.66318 0.50173 0.0
H1257 H 0.69112 0.61002 0.46052 0.0
H1258 H 0.72594 0.61362 0.52434 0.0
H1259 H 0.6842 0.59265 0.52546 0.0
H1260 H 0.68661 0.63969 0.52483 0.0
H1261 H 0.75038 0.54856 0.47392 0.0
H1262 H 0.71813 0.55479 0.45949 0.0
H1263 H 0.70883 0.52737 0.47533 0.0
C1264 C 0.62891 0.347 0.52183 0.0
C1265 C 0.63045 0.34651 0.53744 0.0
C1266 C 0.60035 0.3327 0.5141 0.0
C1267 C 0.57225 0.31747 0.52209 0.0
C1268 C 0.57378 0.31639 0.53785 0.0
C1269 C 0.60294 0.33073 0.54534 0.0
C1270 C 0.6002 0.33409 0.49731 0.0
C1271 C 0.54433 0.30057 0.54679 0.0
C1272 C 0.48764 0.31302 0.49964 0.0
C1273 C 0.48877 0.27882 0.49414 0.0
C1274 C 0.51346 0.32532 0.50952 0.0
C1275 C 0.54144 0.30302 0.51378 0.0
C1276 C 0.54177 0.26794 0.50867 0.0
C1277 C 0.51542 0.25628 0.49892 0.0
C1278 C 0.51185 0.36277 0.51473 0.0
C1279 C 0.57114 0.24334 0.51275 0.0
H1280 H 0.65031 0.35852 0.51561 0.0
H1281 H 0.60383 0.33035 0.55738 0.0
H1282 H 0.59769 0.30732 0.49269 0.0
H1283 H 0.57728 0.34933 0.49337 0.0
H1284 H 0.62436 0.34621 0.49274 0.0
H1285 H 0.54972 0.30105 0.55893 0.0
H1286 H 0.51969 0.31509 0.54463 0.0
H1287 H 0.53992 0.2731 0.54331 0.0
H1288 H 0.46726 0.33053 0.49575 0.0
H1289 H 0.51656 0.23 0.49442 0.0
H1290 H 0.53323 0.37796 0.50942 0.0
H1291 H 0.51581 0.3642 0.52693 0.0
H1292 H 0.48646 0.37536 0.51192 0.0
H1293 H 0.59571 0.25205 0.5073 0.0
H1294 H 0.56564 0.21604 0.50925 0.0
H1295 H 0.57575 0.24369 0.52493 0.0
C1296 C 0.32238 0.5246 0.51772 0.0
C1297 C 0.28649 0.52675 0.52089 0.0
C1298 C 0.33573 0.49826 0.50834 0.0
C1299 C 0.31265 0.47324 0.50205 0.0
C1300 C 0.27617 0.4762 0.5048 0.0
C1301 C 0.26359 0.50275 0.51425 0.0
C1302 C 0.37475 0.49617 0.50579 0.0
C1303 C 0.25056 0.45022 0.49839 0.0
C1304 C 0.34387 0.41302 0.47064 0.0
C1305 C 0.35152 0.38204 0.47837 0.0
C1306 C 0.33148 0.443 0.47815 0.0
C1307 C 0.32683 0.44218 0.4938 0.0
C1308 C 0.33518 0.41119 0.50167 0.0
C1309 C 0.34734 0.38167 0.4939 0.0
C1310 C 0.32285 0.47541 0.46932 0.0
C1311 C 0.33102 0.40907 0.51835 0.0
H1312 H 0.34015 0.5428 0.52305 0.0
H1313 H 0.23593 0.50387 0.51696 0.0
H1314 H 0.38534 0.47257 0.51137 0.0
H1315 H 0.38052 0.49362 0.49375 0.0
H1316 H 0.3887 0.51947 0.51017 0.0
H1317 H 0.22291 0.45804 0.50036 0.0
H1318 H 0.2548 0.44732 0.48625 0.0
H1319 H 0.25492 0.42421 0.50353 0.0
H1320 H 0.34681 0.4136 0.45866 0.0
H1321 H 0.35383 0.35819 0.50005 0.0
H1322 H 0.33787 0.49803 0.47367 0.0
H1323 H 0.29464 0.48174 0.47057 0.0
H1324 H 0.32881 0.47229 0.4573 0.0
H1325 H 0.34676 0.42982 0.52379 0.0
H1326 H 0.33929 0.38334 0.52287 0.0
H1327 H 0.30323 0.41358 0.52143 0.0
C1328 C 0.50606 0.75522 0.50036 0.0
C1329 C 0.53087 0.73242 0.49418 0.0
C1330 C 0.47935 0.74278 0.5098 0.0
C1331 C 0.47699 0.70652 0.51298 0.0
C1332 C 0.50288 0.68363 0.50719 0.0
C1333 C 0.52942 0.69685 0.49785 0.0
C1334 C 0.4525 0.76822 0.51568 0.0
C1335 C 0.50144 0.64484 0.51018 0.0
C1336 C 0.4152 0.67588 0.54402 0.0
C1337 C 0.38481 0.6672 0.53602 0.0
C1338 C 0.44548 0.68845 0.53673 0.0
C1339 C 0.44559 0.69224 0.52103 0.0
C1340 C 0.41523 0.68284 0.5129 0.0
C1341 C 0.3854 0.67052 0.52045 0.0
C1342 C 0.47719 0.6982 0.54583 0.0
C1343 C 0.4141 0.68603 0.49617 0.0
H1344 H 0.5066 0.7826 0.49725 0.0
H1345 H 0.5482 0.67911 0.49286 0.0
H1346 H 0.42687 0.76324 0.51026 0.0
H1347 H 0.44883 0.76452 0.52782 0.0
H1348 H 0.46005 0.79582 0.51357 0.0
H1349 H 0.5254 0.63116 0.50626 0.0
H1350 H 0.49811 0.63978 0.52224 0.0
H1351 H 0.47845 0.63341 0.50441 0.0
H1352 H 0.41507 0.67361 0.55603 0.0
H1353 H 0.36241 0.66324 0.5141 0.0
H1354 H 0.48304 0.7264 0.54437 0.0
H1355 H 0.50044 0.68345 0.5419 0.0
H1356 H 0.4734 0.69286 0.55787 0.0
H1357 H 0.41823 0.71367 0.49286 0.0
H1358 H 0.38879 0.677 0.49144 0.0
H1359 H 0.43557 0.67047 0.49113 0.0
C1360 C 0.32474 0.21933 0.40019 0.0
C1361 C 0.32002 0.24223 0.41221 0.0
C1362 C 0.3011 0.21878 0.38817 0.0
C1363 C 0.2717 0.24147 0.38817 0.0
C1364 C 0.26642 0.26404 0.40051 0.0
C1365 C 0.29066 0.26417 0.41236 0.0
C1366 C 0.30791 0.19429 0.37533 0.0
C1367 C 0.23536 0.28841 0.40109 0.0
C1368 C 0.22764 0.2653 0.35122 0.0
C1369 C 0.19823 0.24343 0.35125 0.0
C1370 C 0.25192 0.2647 0.36306 0.0
C1371 C 0.24663 0.24171 0.37526 0.0
C1372 C 0.2172 0.21908 0.37513 0.0
C1373 C 0.19353 0.2201 0.36312 0.0
C1374 C 0.28301 0.28902 0.36261 0.0
C1375 C 0.21038 0.19416 0.38781 0.0
H1376 H 0.34743 0.20226 0.40011 0.0
H1377 H 0.28698 0.28182 0.42166 0.0
H1378 H 0.28508 0.17679 0.37367 0.0
H1379 H 0.31135 0.20953 0.36493 0.0
H1380 H 0.33162 0.17797 0.3771 0.0
H1381 H 0.2344 0.30363 0.4116 0.0
H1382 H 0.23646 0.30694 0.39162 0.0
H1383 H 0.21069 0.27331 0.4 0.0
H1384 H 0.23131 0.28328 0.34203 0.0
H1385 H 0.17081 0.20309 0.36311 0.0
H1386 H 0.30767 0.27383 0.36362 0.0
H1387 H 0.28193 0.30725 0.37219 0.0
H1388 H 0.28399 0.30457 0.35218 0.0
H1389 H 0.23321 0.17658 0.38937 0.0
H1390 H 0.18667 0.17792 0.38595 0.0
H1391 H 0.20695 0.20905 0.3983 0.0
C1392 C 0.25862 0.73026 0.60001 0.0
C1393 C 0.23747 0.70035 0.59998 0.0
C1394 C 0.25681 0.75477 0.61173 0.0
C1395 C 0.23335 0.74922 0.62377 0.0
C1396 C 0.21132 0.71937 0.62354 0.0
C1397 C 0.21353 0.69547 0.61164 0.0
C1398 C 0.28057 0.78627 0.61139 0.0
C1399 C 0.186 0.71217 0.63606 0.0
C1400 C 0.25538 0.79255 0.66103 0.0
C1401 C 0.23291 0.82158 0.66115 0.0
C1402 C 0.25536 0.76861 0.6491 0.0
C1403 C 0.23266 0.77395 0.63681 0.0
C1404 C 0.20969 0.80313 0.63696 0.0
C1405 C 0.21007 0.8265 0.64911 0.0
C1406 C 0.28014 0.73788 0.64954 0.0
C1407 C 0.18521 0.8101 0.62413 0.0
H1408 H 0.27709 0.73408 0.591 0.0
H1409 H 0.19708 0.67236 0.6116 0.0
H1410 H 0.26493 0.81057 0.61257 0.0
H1411 H 0.29899 0.78524 0.62092 0.0
H1412 H 0.29602 0.78782 0.60094 0.0
H1413 H 0.16985 0.68851 0.634 0.0
H1414 H 0.20067 0.70849 0.64659 0.0
H1415 H 0.16828 0.73486 0.63765 0.0
H1416 H 0.27354 0.78901 0.67017 0.0
H1417 H 0.19305 0.84919 0.64907 0.0
H1418 H 0.29896 0.73965 0.64017 0.0
H1419 H 0.26535 0.71313 0.64817 0.0
H1420 H 0.29514 0.73661 0.66011 0.0
H1421 H 0.20059 0.81431 0.61381 0.0
H1422 H 0.1684 0.83337 0.62607 0.0
H1423 H 0.16812 0.78708 0.62221 0.0
C1424 C 0.73142 0.75512 0.41379 0.0
C1425 C 0.7029 0.77814 0.41409 0.0
C1426 C 0.75548 0.75538 0.40187 0.0
C1427 C 0.75079 0.77907 0.38986 0.0
C1428 C 0.72226 0.80283 0.39032 0.0
C1429 C 0.6988 0.80214 0.40243 0.0
C1430 C 0.7856 0.72983 0.40197 0.0
C1431 C 0.71602 0.82845 0.37784 0.0
C1432 C 0.82907 0.79878 0.36456 0.0
C1433 C 0.82323 0.7762 0.35252 0.0
C1434 C 0.80574 0.80012 0.3767 0.0
C1435 C 0.77542 0.77868 0.37677 0.0
C1436 C 0.76891 0.75661 0.36438 0.0
C1437 C 0.7929 0.7556 0.35242 0.0
C1438 C 0.81391 0.824 0.38959 0.0
C1439 C 0.73681 0.73363 0.36384 0.0
H1440 H 0.73446 0.73643 0.42276 0.0
H1441 H 0.67657 0.8198 0.40263 0.0
H1442 H 0.78333 0.71182 0.39235 0.0
H1443 H 0.81079 0.74402 0.40078 0.0
H1444 H 0.78644 0.71406 0.41234 0.0
H1445 H 0.69323 0.84577 0.38003 0.0
H1446 H 0.73959 0.84493 0.37613 0.0
H1447 H 0.7113 0.81405 0.36732 0.0
H1448 H 0.85244 0.81488 0.3646 0.0
H1449 H 0.7883 0.73823 0.3431 0.0
H1450 H 0.81716 0.80836 0.39989 0.0
H1451 H 0.79181 0.8423 0.3915 0.0
H1452 H 0.83815 0.83946 0.38773 0.0
H1453 H 0.73749 0.71467 0.37317 0.0
H1454 H 0.7348 0.71892 0.35323 0.0
H1455 H 0.71285 0.74973 0.36524 0.0
C1456 C 0.81899 0.19423 0.65148 0.0
C1457 C 0.79583 0.19962 0.66337 0.0
C1458 C 0.82041 0.21771 0.63938 0.0
C1459 C 0.79807 0.24737 0.6391 0.0
C1460 C 0.77514 0.25322 0.65128 0.0
C1461 C 0.77417 0.22924 0.66319 0.0
C1462 C 0.84514 0.21022 0.62668 0.0
C1463 C 0.75087 0.28437 0.65155 0.0
C1464 C 0.81738 0.32471 0.61321 0.0
C1465 C 0.79373 0.319 0.60153 0.0
C1466 C 0.81961 0.30136 0.62534 0.0
C1467 C 0.79757 0.27151 0.62586 0.0
C1468 C 0.77407 0.26538 0.61391 0.0
C1469 C 0.7723 0.28924 0.60198 0.0
C1470 C 0.84492 0.30914 0.63778 0.0
C1471 C 0.75008 0.23402 0.61391 0.0
H1472 H 0.83538 0.17108 0.65149 0.0
H1473 H 0.75577 0.23313 0.67222 0.0
H1474 H 0.82993 0.20547 0.61636 0.0
H1475 H 0.8622 0.23318 0.62461 0.0
H1476 H 0.86196 0.18708 0.62886 0.0
H1477 H 0.73604 0.2863 0.66215 0.0
H1478 H 0.76599 0.30884 0.64994 0.0
H1479 H 0.73189 0.28247 0.64225 0.0
H1480 H 0.8336 0.34797 0.613 0.0
H1481 H 0.7535 0.28509 0.59312 0.0
H1482 H 0.86238 0.28639 0.63968 0.0
H1483 H 0.83022 0.3137 0.64825 0.0
H1484 H 0.86131 0.3325 0.63544 0.0
H1485 H 0.76553 0.20969 0.61535 0.0
H1486 H 0.73462 0.23196 0.60349 0.0
H1487 H 0.73165 0.23575 0.62343 0.0
C1488 C 0.18843 0.29991 0.89922 0.0
C1489 C 0.19497 0.27775 0.91134 0.0
C1490 C 0.21168 0.30168 0.88706 0.0
C1491 C 0.24264 0.28118 0.88706 0.0
C1492 C 0.24987 0.25958 0.89954 0.0
C1493 C 0.22593 0.25808 0.9115 0.0
C1494 C 0.20273 0.32502 0.87407 0.0
C1495 C 0.28268 0.23763 0.90016 0.0
C1496 C 0.28739 0.25808 0.85016 0.0
C1497 C 0.31514 0.28199 0.84974 0.0
C1498 C 0.2633 0.25792 0.86207 0.0
C1499 C 0.26722 0.28204 0.87396 0.0
C1500 C 0.29497 0.30668 0.87339 0.0
C1501 C 0.31847 0.30641 0.86129 0.0
C1502 C 0.23402 0.23143 0.86209 0.0
C1503 C 0.30042 0.33276 0.88576 0.0
H1504 H 0.16459 0.31533 0.89914 0.0
H1505 H 0.23109 0.24107 0.92089 0.0
H1506 H 0.22421 0.34398 0.8721 0.0
H1507 H 0.20002 0.30906 0.86384 0.0
H1508 H 0.17799 0.33973 0.87587 0.0
H1509 H 0.28518 0.22322 0.91083 0.0
H1510 H 0.2826 0.21844 0.89091 0.0
H1511 H 0.30612 0.25443 0.89869 0.0
H1512 H 0.28502 0.23901 0.8413 0.0
H1513 H 0.34018 0.32467 0.86103 0.0
H1514 H 0.20838 0.24484 0.86327 0.0
H1515 H 0.23694 0.21367 0.87176 0.0
H1516 H 0.23362 0.21547 0.85177 0.0
H1517 H 0.27631 0.34848 0.88744 0.0
H1518 H 0.32259 0.35078 0.88347 0.0
H1519 H 0.30571 0.31875 0.89633 0.0
C1520 C 0.29945 0.69628 0.15098 0.0
C1521 C 0.27568 0.69966 0.16279 0.0
C1522 C 0.30004 0.72058 0.13919 0.0
C1523 C 0.27647 0.74926 0.13924 0.0
C1524 C 0.25298 0.75317 0.15138 0.0
C1525 C 0.25285 0.72831 0.16299 0.0
C1526 C 0.32553 0.71522 0.12657 0.0
C1527 C 0.22763 0.7834 0.15201 0.0
C1528 C 0.29711 0.82925 0.11517 0.0
C1529 C 0.2746 0.82457 0.103 0.0
C1530 C 0.29808 0.80501 0.12697 0.0
C1531 C 0.27626 0.77501 0.12657 0.0
C1532 C 0.25413 0.76977 0.11407 0.0
C1533 C 0.25356 0.79462 0.10246 0.0
C1534 C 0.32208 0.8118 0.13998 0.0
C1535 C 0.23072 0.7381 0.11305 0.0
H1536 H 0.31716 0.67412 0.15084 0.0
H1537 H 0.2345 0.73093 0.17212 0.0
H1538 H 0.31098 0.71191 0.11598 0.0
H1539 H 0.34246 0.73859 0.1253 0.0
H1540 H 0.34249 0.69196 0.12828 0.0
H1541 H 0.21174 0.78332 0.16236 0.0
H1542 H 0.2421 0.8085 0.15132 0.0
H1543 H 0.20966 0.78231 0.14233 0.0
H1544 H 0.31356 0.85233 0.11555 0.0
H1545 H 0.23626 0.79092 0.09303 0.0
H1546 H 0.34031 0.78948 0.14148 0.0
H1547 H 0.30646 0.81413 0.15034 0.0
H1548 H 0.33772 0.83605 0.13853 0.0
H1549 H 0.2466 0.7139 0.11397 0.0
H1550 H 0.21576 0.73729 0.10247 0.0
H1551 H 0.21188 0.73807 0.12245 0.0
C1552 C 0.79476 0.76646 0.91126 0.0
C1553 C 0.82465 0.74523 0.91135 0.0
C1554 C 0.77066 0.76522 0.89936 0.0
C1555 C 0.77663 0.74224 0.88722 0.0
C1556 C 0.80651 0.72021 0.88747 0.0
C1557 C 0.82997 0.72181 0.89955 0.0
C1558 C 0.73903 0.78887 0.89969 0.0
C1559 C 0.81408 0.69534 0.87484 0.0
C1560 C 0.69939 0.71842 0.86202 0.0
C1561 C 0.70387 0.74145 0.85004 0.0
C1562 C 0.72289 0.71822 0.87411 0.0
C1563 C 0.75184 0.74147 0.87421 0.0
C1564 C 0.75687 0.76418 0.86189 0.0
C1565 C 0.73278 0.76396 0.84999 0.0
C1566 C 0.71632 0.69361 0.88692 0.0
C1567 C 0.78744 0.78916 0.86141 0.0
H1568 H 0.79058 0.78446 0.9204 0.0
H1569 H 0.85299 0.70521 0.89966 0.0
H1570 H 0.73992 0.80714 0.89012 0.0
H1571 H 0.71474 0.77317 0.89858 0.0
H1572 H 0.73747 0.80437 0.91012 0.0
H1573 H 0.83808 0.67958 0.87681 0.0
H1574 H 0.79164 0.67732 0.87323 0.0
H1575 H 0.81741 0.71024 0.86435 0.0
H1576 H 0.67691 0.7011 0.86207 0.0
H1577 H 0.73614 0.78185 0.84075 0.0
H1578 H 0.71213 0.7088 0.89728 0.0
H1579 H 0.73954 0.6767 0.88874 0.0
H1580 H 0.6931 0.67668 0.88503 0.0
H1581 H 0.78567 0.80778 0.87084 0.0
H1582 H 0.78839 0.80428 0.85087 0.0
H1583 H 0.81239 0.77457 0.86267 0.0
C1584 C 0.72301 0.1964 0.11185 0.0
C1585 C 0.74764 0.19962 0.10035 0.0
C1586 C 0.72197 0.22046 0.12372 0.0
C1587 C 0.74592 0.24879 0.12407 0.0
C1588 C 0.77025 0.25261 0.11222 0.0
C1589 C 0.77087 0.22794 0.10053 0.0
C1590 C 0.69565 0.21513 0.13604 0.0
C1591 C 0.796 0.28252 0.112 0.0
C1592 C 0.72473 0.32832 0.14837 0.0
C1593 C 0.74657 0.32312 0.16072 0.0
C1594 C 0.72422 0.30445 0.13643 0.0
C1595 C 0.7457 0.2742 0.13688 0.0
C1596 C 0.76704 0.26837 0.14958 0.0
C1597 C 0.76725 0.2929 0.16132 0.0
C1598 C 0.70107 0.31192 0.1232 0.0
C1599 C 0.79001 0.23637 0.15068 0.0
H1600 H 0.70504 0.17446 0.11171 0.0
H1601 H 0.78992 0.23043 0.09166 0.0
H1602 H 0.70952 0.21126 0.14675 0.0
H1603 H 0.679 0.23873 0.13725 0.0
H1604 H 0.67845 0.1922 0.13401 0.0
H1605 H 0.8124 0.28256 0.10179 0.0
H1606 H 0.78182 0.30779 0.11271 0.0
H1607 H 0.81346 0.28086 0.12183 0.0
H1608 H 0.7085 0.35157 0.14794 0.0
H1609 H 0.78402 0.28876 0.17089 0.0
H1610 H 0.68266 0.2899 0.12139 0.0
H1611 H 0.71733 0.31431 0.11302 0.0
H1612 H 0.68567 0.33634 0.1246 0.0
H1613 H 0.77392 0.2124 0.14945 0.0
H1614 H 0.80427 0.23504 0.16144 0.0
H1615 H 0.80945 0.23641 0.14151 0.0
C1616 C 0.9895 0.93824 0.3098 0.0
C1617 C 0.97974 0.92014 0.32278 0.0
C1618 C 1.00153 0.97302 0.31031 0.0
C1619 C 1.00374 0.99068 0.32413 0.0
C1620 C 0.99377 0.97276 0.33727 0.0
C1621 C 0.98197 0.93783 0.33645 0.0
C1622 C 0.01175 0.99094 0.29599 0.0
C1623 C 0.99563 0.9905 0.35224 0.0
C1624 C 0.06425 0.07038 0.3258 0.0
C1625 C 0.04077 0.09828 0.32374 0.0
C1626 C 0.05254 0.03544 0.32628 0.0
C1627 C 0.01635 0.0279 0.32471 0.0
C1628 C 0.99241 0.05596 0.323 0.0
C1629 C 1.00486 0.09064 0.32252 0.0
C1630 C 0.07907 1.00647 0.32804 0.0
C1631 C 0.95362 0.04932 0.3214 0.0
H1632 H 0.98727 0.92537 0.29911 0.0
H1633 H 0.9749 0.92423 0.34658 0.0
H1634 H 0.99511 0.01436 0.29424 0.0
H1635 H 0.03931 1.00004 0.29666 0.0
H1636 H 1.00907 0.97351 0.28618 0.0
H1637 H 0.98666 0.97322 0.36141 0.0
H1638 H 0.02295 0.99876 0.35455 0.0
H1639 H 0.97922 0.01444 0.35219 0.0
H1640 H 0.09207 0.07575 0.32656 0.0
H1641 H 0.98634 0.11188 0.32114 0.0
H1642 H 0.07923 0.98991 0.31791 0.0
H1643 H 0.07181 0.98941 0.33752 0.0
H1644 H 0.10598 0.01662 0.3299 0.0
H1645 H 0.9486 0.03406 0.31113 0.0
H1646 H 0.93823 0.07394 0.32086 0.0
H1647 H 0.94397 0.0335 0.3309 0.0
C1648 C 0.92942 0.01134 0.69066 0.0
C1649 C 0.92528 0.04761 0.69253 0.0
C1650 C 0.96294 0.9957 0.69021 0.0
C1651 C 0.99342 0.01665 0.69167 0.0
C1652 C 0.98947 0.05332 0.69324 0.0
C1653 C 0.95567 0.06826 0.69362 0.0
C1654 C 0.96571 0.95655 0.68851 0.0
C1655 C 0.02102 0.07683 0.69479 0.0
C1656 C 0.0778 0.97469 0.70632 0.0
C1657 C 0.0977 0.96984 0.69331 0.0
C1658 C 0.04402 0.98961 0.70591 0.0
C1659 C 0.02931 1.00019 0.69215 0.0
C1660 C 0.04916 0.9954 0.67896 0.0
C1661 C 0.08297 0.98041 0.67969 0.0
C1662 C 0.02414 0.99433 0.72029 0.0
C1663 C 0.03463 1.0061 0.66404 0.0
H1664 H 0.90637 0.9949 0.68997 0.0
H1665 H 0.9531 0.09633 0.6948 0.0
H1666 H 0.98302 0.94998 0.679 0.0
H1667 H 0.97776 0.94513 0.69863 0.0
H1668 H 0.93979 0.94406 0.68672 0.0
H1669 H 0.0137 0.10489 0.69545 0.0
H1670 H 0.03582 0.06978 0.70497 0.0
H1671 H 0.03892 0.0731 0.6852 0.0
H1672 H 0.0889 0.96734 0.71696 0.0
H1673 H 0.09771 0.97655 0.66953 0.0
H1674 H 0.99865 0.98048 0.71969 0.0
H1675 H 0.01838 0.02244 0.72208 0.0
H1676 H 0.0389 0.98434 0.73005 0.0
H1677 H 1.00973 0.99205 0.66187 0.0
H1678 H 0.05314 1.00057 0.6548 0.0
H1679 H 0.02858 0.03447 0.66406 0.0
C1680 C 1.00243 0.42856 0.94121 0.0
C1681 C 0.03826 0.42066 0.93983 0.0
C1682 C 0.99024 0.46335 0.94087 0.0
C1683 C 0.01435 0.49125 0.93916 0.0
C1684 C 0.05045 0.48345 0.93745 0.0
C1685 C 0.06192 0.44841 0.93778 0.0
C1686 C 0.95152 0.47028 0.94263 0.0
C1687 C 0.07717 0.51223 0.93568 0.0
C1688 C 0.98056 0.58169 0.92761 0.0
C1689 C 0.97869 0.59934 0.94131 0.0
C1690 C 0.99202 0.54665 0.92673 0.0
C1691 C 1.00202 0.52857 0.93983 0.0
C1692 C 1.00016 0.54618 0.95366 0.0
C1693 C 0.98847 0.58108 0.95424 0.0
C1694 C 0.99352 0.52898 0.91174 0.0
C1695 C 1.01044 0.52808 0.96793 0.0
H1696 H 0.98379 0.40745 0.94258 0.0
H1697 H 0.08968 0.44284 0.9369 0.0
H1698 H 0.9468 0.48553 0.95293 0.0
H1699 H 0.94182 0.48621 0.93318 0.0
H1700 H 0.93598 0.44577 0.9432 0.0
H1701 H 0.10399 0.5019 0.93374 0.0
H1702 H 0.06993 0.52941 0.92623 0.0
H1703 H 0.07754 0.52872 0.94583 0.0
H1704 H 0.97349 0.5954 0.91751 0.0
H1705 H 0.98652 0.59393 0.96494 0.0
H1706 H 0.97696 0.50515 0.91182 0.0
H1707 H 0.02075 0.52053 0.90933 0.0
H1708 H 0.98452 0.54637 0.90261 0.0
H1709 H 0.99366 0.50478 0.9697 0.0
H1710 H 1.00799 0.54547 0.97777 0.0
H1711 H 0.03792 0.51879 0.96719 0.0
C1712 C 0.43539 0.9874 0.0891 0.0
C1713 C 0.41875 0.9842 0.07522 0.0
C1714 C 0.4702 0.99957 0.09025 0.0
C1715 C 0.48906 1.00877 0.07724 0.0
C1716 C 0.4724 1.00566 0.06322 0.0
C1717 C 0.43768 0.99342 0.06239 0.0
C1718 C 0.48684 1.00252 0.10542 0.0
C1719 C 0.49142 0.01491 0.04903 0.0
C1720 C 0.56966 0.06822 0.07868 0.0
C1721 C 0.59728 0.0442 0.07711 0.0
C1722 C 0.53445 0.05704 0.07919 0.0
C1723 C 0.52644 0.02093 0.07813 0.0
C1724 C 0.55425 0.9965 0.07706 0.0
C1725 C 0.58915 1.00838 0.07658 0.0
C1726 C 0.50574 0.08404 0.08034 0.0
C1727 C 0.5471 0.95777 0.07597 0.0
H1728 H 0.42107 0.98074 0.09911 0.0
H1729 H 0.42554 0.99047 0.05157 0.0
H1730 H 0.5105 0.98571 0.10597 0.0
H1731 H 0.49549 0.02981 0.1074 0.0
H1732 H 0.46866 0.99472 0.11448 0.0
H1733 H 0.4746 0.01181 0.03904 0.0
H1734 H 0.50073 0.04236 0.04952 0.0
H1735 H 0.51484 0.99801 0.04774 0.0
H1736 H 0.57544 0.09594 0.07896 0.0
H1737 H 0.61019 0.98948 0.07563 0.0
H1738 H 0.48773 0.07746 0.08962 0.0
H1739 H 0.49002 0.08405 0.06997 0.0
H1740 H 0.51622 0.11078 0.08216 0.0
H1741 H 0.53036 0.9492 0.08537 0.0
H1742 H 0.57156 0.94203 0.07602 0.0
H1743 H 0.53257 0.95211 0.06557 0.0
C1744 C 0.49064 0.43959 0.8112 0.0
C1745 C 0.48008 0.42175 0.82412 0.0
C1746 C 0.50265 0.47435 0.81174 0.0
C1747 C 0.50413 0.49217 0.82554 0.0
C1748 C 0.49347 0.47445 0.83863 0.0
C1749 C 0.48158 0.43957 0.83777 0.0
C1750 C 0.51357 0.49211 0.79747 0.0
C1751 C 0.49466 0.49235 0.85357 0.0
C1752 C 0.56469 0.5717 0.82734 0.0
C1753 C 0.54133 0.59961 0.82504 0.0
C1754 C 0.55287 0.53682 0.82791 0.0
C1755 C 0.51674 0.52935 0.82614 0.0
C1756 C 0.49291 0.55741 0.82419 0.0
C1757 C 0.50543 0.59205 0.82367 0.0
C1758 C 0.57927 0.50784 0.82997 0.0
C1759 C 0.45417 0.5508 0.82233 0.0
H1760 H 0.48896 0.42655 0.80053 0.0
H1761 H 0.47382 0.42612 0.84785 0.0
H1762 H 0.49706 0.51555 0.79554 0.0
H1763 H 0.54111 0.50115 0.79834 0.0
H1764 H 0.51128 0.47459 0.78767 0.0
H1765 H 0.48538 0.47514 0.86271 0.0
H1766 H 0.52185 0.50075 0.85606 0.0
H1767 H 0.47816 0.51623 0.85335 0.0
H1768 H 0.5925 0.57699 0.82821 0.0
H1769 H 0.48701 0.61329 0.8221 0.0
H1770 H 0.57998 0.49123 0.81986 0.0
H1771 H 0.57148 0.49083 0.8394 0.0
H1772 H 0.60608 0.51797 0.83208 0.0
H1773 H 0.44956 0.53543 0.81205 0.0
H1774 H 0.43884 0.57543 0.82162 0.0
H1775 H 0.44412 0.5351 0.83178 0.0
C1776 C 0.58235 0.48947 0.20325 0.0
C1777 C 0.60056 0.47999 0.19026 0.0
C1778 C 0.5475 0.50151 0.20275 0.0
C1779 C 0.5299 0.50405 0.18892 0.0
C1780 C 0.54794 0.49436 0.17576 0.0
C1781 C 0.58293 0.48251 0.17658 0.0
C1782 C 0.52943 0.51141 0.21709 0.0
C1783 C 0.53027 0.49659 0.16078 0.0
C1784 C 0.4297 0.50521 0.1904 0.0
C1785 C 0.42206 0.54108 0.18934 0.0
C1786 C 0.46446 0.49278 0.18991 0.0
C1787 C 0.4926 0.51668 0.18834 0.0
C1788 C 0.48507 0.55283 0.18693 0.0
C1789 C 0.45004 0.56454 0.18742 0.0
C1790 C 0.4711 0.45403 0.19136 0.0
C1791 C 0.51412 0.57931 0.18531 0.0
H1792 H 0.59518 0.48701 0.21394 0.0
H1793 H 0.59663 0.47564 0.16644 0.0
H1794 H 0.52035 0.53893 0.21652 0.0
H1795 H 0.50593 0.4948 0.21874 0.0
H1796 H 0.54682 0.50846 0.22691 0.0
H1797 H 0.54766 0.48785 0.1516 0.0
H1798 H 0.50628 0.48023 0.16073 0.0
H1799 H 0.522 0.5239 0.15857 0.0
H1800 H 0.4084 0.48672 0.19166 0.0
H1801 H 0.44468 0.59232 0.18678 0.0
H1802 H 0.48632 0.44877 0.20163 0.0
H1803 H 0.48701 0.44462 0.18184 0.0
H1804 H 0.44641 0.43869 0.19181 0.0
H1805 H 0.53062 0.57923 0.19547 0.0
H1806 H 0.50397 0.60621 0.18354 0.0
H1807 H 0.5313 0.57227 0.17582 0.0
C1808 C 0.51311 0.08807 0.4405 0.0
C1809 C 0.4772 0.09569 0.43925 0.0
C1810 C 0.52559 0.05341 0.44007 0.0
C1811 C 0.50169 0.02534 0.43835 0.0
C1812 C 0.46551 0.03286 0.43669 0.0
C1813 C 0.45375 0.0678 0.43714 0.0
C1814 C 0.56437 0.04678 0.44178 0.0
C1815 C 0.43903 1.00388 0.4349 0.0
C1816 C 0.53678 0.93531 0.42698 0.0
C1817 C 0.53887 0.91787 0.44072 0.0
C1818 C 0.52468 0.97011 0.42601 0.0
C1819 C 0.51431 0.98816 0.43907 0.0
C1820 C 0.51631 0.97071 0.45294 0.0
C1821 C 0.52858 0.93604 0.4536 0.0
C1822 C 0.523 0.98762 0.41099 0.0
C1823 C 0.50572 0.98881 0.46718 0.0
H1824 H 0.5316 0.10931 0.4419 0.0
H1825 H 0.42594 0.07316 0.43634 0.0
H1826 H 0.56925 0.0317 0.45211 0.0
H1827 H 0.57415 0.0308 0.43236 0.0
H1828 H 0.57974 0.07141 0.44228 0.0
H1829 H 0.41218 0.01401 0.43287 0.0
H1830 H 0.44655 0.98664 0.4255 0.0
H1831 H 0.4386 0.98751 0.44508 0.0
H1832 H 0.54429 0.92163 0.41693 0.0
H1833 H 0.53069 0.92333 0.46433 0.0
H1834 H 0.53951 0.01148 0.411 0.0
H1835 H 0.49574 0.99598 0.40861 0.0
H1836 H 0.53199 0.97016 0.40189 0.0
H1837 H 0.5223 0.01225 0.46895 0.0
H1838 H 0.50819 0.9715 0.47704 0.0
H1839 H 0.47818 0.9979 0.46638 0.0
C1840 C 0.93744 0.47656 0.58493 0.0
C1841 C 0.92205 0.4693 0.57108 0.0
C1842 C 0.97161 0.49053 0.58596 0.0
C1843 C 0.99089 0.49791 0.57283 0.0
C1844 C 0.97519 0.49125 0.55883 0.0
C1845 C 0.94122 0.47698 0.55813 0.0
C1846 C 0.98732 0.49688 0.60111 0.0
C1847 C 0.99438 0.49905 0.54453 0.0
C1848 C 0.06854 0.56134 0.5736 0.0
C1849 C 0.09741 0.53857 0.57301 0.0
C1850 C 0.03387 0.54855 0.57383 0.0
C1851 C 0.02765 0.51199 0.57363 0.0
C1852 C 0.05671 0.48888 0.57347 0.0
C1853 C 0.09107 0.50239 0.57308 0.0
C1854 C 1.00384 0.57422 0.57384 0.0
C1855 C 0.05151 0.44977 0.57342 0.0
H1856 H 0.92306 0.47054 0.595 0.0
H1857 H 0.92946 0.47206 0.54737 0.0
H1858 H 0.01134 0.48084 0.60245 0.0
H1859 H 0.99521 0.52467 0.60221 0.0
H1860 H 0.96884 0.49039 0.61025 0.0
H1861 H 0.97824 0.49333 0.53454 0.0
H1862 H 1.00221 0.52697 0.54423 0.0
H1863 H 0.01873 0.48327 0.54393 0.0
H1864 H 0.07301 0.58931 0.57337 0.0
H1865 H 0.11309 0.48451 0.57281 0.0
H1866 H 0.98588 0.56869 0.58325 0.0
H1867 H 0.98847 0.57131 0.56344 0.0
H1868 H 0.01293 0.60173 0.57469 0.0
H1869 H 0.03465 0.44189 0.5829 0.0
H1870 H 0.07669 0.4353 0.57415 0.0
H1871 H 0.03787 0.44178 0.56307 0.0
loop_
_geom_bond_atom_site_label_1
_geom_bond_atom_site_label_2
_geom_bond_distance
_geom_bond_site_symmetry_2
_ccdc_geom_bond_type
C0 C1 1.443 . S
C0 N4 1.376 . S
C0 C38 1.389 . S
C1 C0 1.443 . S
C1 C2 1.340 . S
C1 H41 0.951 . S
C2 C1 1.340 . S
C2 C3 1.439 . S
C2 H42 0.950 . S
C3 C2 1.439 . S
C3 N4 1.374 . S
C3 C37 1.395 . S
N4 C0 1.376 . S
N4 C3 1.374 . S
N4 Co5 2.008 . S
Co5 N4 2.008 . S
Co5 N6 1.995 . S
Co5 N11 2.008 . S
Co5 N16 1.995 . S
Co5 N21 2.282 . S
Co5 N27 2.282 . S
N6 Co5 1.995 . S
N6 C7 1.376 . S
N6 C10 1.383 . S
C7 N6 1.376 . S
C7 C8 1.446 . S
C7 C37 1.391 . S
C8 C7 1.446 . S
C8 C9 1.339 . S
C8 H43 0.949 . S
C9 C8 1.339 . S
C9 C10 1.439 . S
C9 H44 0.950 . S
C10 N6 1.383 . S
C10 C9 1.439 . S
C10 C39 1.392 . S
N11 Co5 2.008 . S
N11 C12 1.376 . S
N11 C15 1.374 . S
C12 N11 1.376 . S
C12 C13 1.443 1_455 S
C12 C39 1.389 . S
C13 C12 1.443 1_655 S
C13 C14 1.340 . S
C13 H45 0.951 . S
C14 C13 1.340 . S
C14 C15 1.439 1_655 S
C14 H46 0.950 . S
C15 N11 1.374 . S
C15 C14 1.439 1_455 S
C15 C40 1.395 . S
N16 Co5 1.995 . S
N16 C17 1.376 . S
N16 C20 1.383 . S
C17 N16 1.376 . S
C17 C18 1.446 . S
C17 C40 1.391 . S
C18 C17 1.446 . S
C18 C19 1.339 . S
C18 H47 0.949 . S
C19 C18 1.339 . S
C19 C20 1.439 . S
C19 H48 0.950 . S
C20 N16 1.383 . S
C20 C19 1.439 . S
C20 C38 1.392 . S
N21 Co5 2.282 . S
N21 C24 1.332 . S
N21 C26 1.332 . S
C22 C23 1.386 . S
C22 C25 1.388 . S
C23 C22 1.386 . S
C23 C24 1.382 . S
C23 H49 0.950 . S
C24 N21 1.332 . S
C24 C23 1.382 . S
C24 H35 0.952 . S
C25 C22 1.388 . S
C25 C26 1.382 . S
C25 H50 0.950 . S
C26 N21 1.332 . S
C26 C25 1.382 . S
C26 H36 0.948 . S
N27 Co5 2.282 . S
N27 C31 1.332 . S
N27 C32 1.332 . S
C28 C29 1.388 . S
C28 C32 1.382 . S
C28 H51 0.950 . S
C29 C28 1.388 . S
C29 C30 1.386 . S
C30 C29 1.386 . S
C30 C31 1.382 . S
C30 H52 0.950 . S
C31 N27 1.332 . S
C31 C30 1.382 . S
C31 H33 0.952 . S
C32 N27 1.332 . S
C32 C28 1.382 . S
C32 H34 0.948 . S
H33 C31 0.952 . S
H34 C32 0.948 . S
H35 C24 0.952 . S
H36 C26 0.948 . S
C37 C3 1.395 . S
C37 C7 1.391 . S
C38 C0 1.389 . S
C38 C20 1.392 . S
C39 C10 1.392 . S
C39 C12 1.389 . S
C40 C15 1.395 . S
C40 C17 1.391 . S
H41 C1 0.951 . S
H42 C2 0.950 . S
H43 C8 0.949 . S
H44 C9 0.950 . S
H45 C13 0.951 . S
H46 C14 0.950 . S
H47 C18 0.949 . S
H48 C19 0.950 . S
H49 C23 0.950 . S
H50 C25 0.950 . S
H51 C28 0.950 . S
H52 C30 0.950 . S
C53 C54 1.443 1_565 S
C53 N57 1.376 . S
C53 C91 1.389 . S
C54 C53 1.443 1_545 S
C54 C55 1.340 . S
C54 H94 0.951 . S
C55 C54 1.340 . S
C55 C56 1.439 1_545 S
C55 H95 0.950 . S
C56 C55 1.439 1_565 S
C56 N57 1.374 . S
C56 C90 1.395 . S
N57 C53 1.376 . S
N57 C56 1.374 . S
N57 Co58 2.008 . S
Co58 N57 2.008 . S
Co58 N59 1.995 . S
Co58 N64 2.008 . S
Co58 N69 1.995 . S
Co58 N74 2.282 . S
Co58 N80 2.282 . S
N59 Co58 1.995 . S
N59 C60 1.376 . S
N59 C63 1.383 . S
C60 N59 1.376 . S
C60 C61 1.446 . S
C60 C90 1.391 . S
C61 C60 1.446 . S
C61 C62 1.339 . S
C61 H96 0.949 . S
C62 C61 1.339 . S
C62 C63 1.439 . S
C62 H97 0.950 . S
C63 N59 1.383 . S
C63 C62 1.439 . S
C63 C92 1.392 . S
N64 Co58 2.008 . S
N64 C65 1.376 . S
N64 C68 1.374 . S
C65 N64 1.376 . S
C65 C66 1.443 . S
C65 C92 1.389 . S
C66 C65 1.443 . S
C66 C67 1.340 . S
C66 H98 0.951 . S
C67 C66 1.340 . S
C67 C68 1.439 . S
C67 H99 0.950 . S
C68 N64 1.374 . S
C68 C67 1.439 . S
C68 C93 1.395 . S
N69 Co58 1.995 . S
N69 C70 1.376 . S
N69 C73 1.383 . S
C70 N69 1.376 . S
C70 C71 1.446 . S
C70 C93 1.391 . S
C71 C70 1.446 . S
C71 C72 1.339 . S
C71 H100 0.949 . S
C72 C71 1.339 . S
C72 C73 1.439 . S
C72 H101 0.950 . S
C73 N69 1.383 . S
C73 C72 1.439 . S
C73 C91 1.392 . S
N74 Co58 2.282 . S
N74 C77 1.332 . S
N74 C79 1.332 . S
C75 C76 1.386 . S
C75 C78 1.388 . S
C76 C75 1.386 . S
C76 C77 1.382 . S
C76 H102 0.950 . S
C77 N74 1.332 . S
C77 C76 1.382 . S
C77 H88 0.952 . S
C78 C75 1.388 . S
C78 C79 1.382 . S
C78 H103 0.950 . S
C79 N74 1.332 . S
C79 C78 1.382 . S
C79 H89 0.948 . S
N80 Co58 2.282 . S
N80 C84 1.332 . S
N80 C85 1.332 . S
C81 C82 1.388 . S
C81 C85 1.382 . S
C81 H104 0.950 . S
C82 C81 1.388 . S
C82 C83 1.386 . S
C83 C82 1.386 . S
C83 C84 1.382 . S
C83 H105 0.950 . S
C84 N80 1.332 . S
C84 C83 1.382 . S
C84 H86 0.952 . S
C85 N80 1.332 . S
C85 C81 1.382 . S
C85 H87 0.948 . S
H86 C84 0.952 . S
H87 C85 0.948 . S
H88 C77 0.952 . S
H89 C79 0.948 . S
C90 C56 1.395 . S
C90 C60 1.391 . S
C91 C53 1.389 . S
C91 C73 1.392 . S
C92 C63 1.392 . S
C92 C65 1.389 . S
C93 C68 1.395 . S
C93 C70 1.391 . S
H94 C54 0.951 . S
H95 C55 0.950 . S
H96 C61 0.949 . S
H97 C62 0.950 . S
H98 C66 0.951 . S
H99 C67 0.950 . S
H100 C71 0.949 . S
H101 C72 0.950 . S
H102 C76 0.950 . S
H103 C78 0.950 . S
H104 C81 0.950 . S
H105 C83 0.950 . S
C106 C107 1.443 . S
C106 N110 1.376 . S
C106 C144 1.389 . S
C107 C106 1.443 . S
C107 C108 1.340 . S
C107 H147 0.951 . S
C108 C107 1.340 . S
C108 C109 1.439 . S
C108 H148 0.950 . S
C109 C108 1.439 . S
C109 N110 1.374 . S
C109 C143 1.395 . S
N110 C106 1.376 . S
N110 C109 1.374 . S
N110 Co111 2.008 . S
Co111 N110 2.008 . S
Co111 N112 1.995 . S
Co111 N117 2.008 . S
Co111 N122 1.995 . S
Co111 N127 2.282 . S
Co111 N133 2.282 . S
N112 Co111 1.995 . S
N112 C113 1.376 . S
N112 C116 1.383 . S
C113 N112 1.376 . S
C113 C114 1.446 . S
C113 C143 1.391 . S
C114 C113 1.446 . S
C114 C115 1.339 . S
C114 H149 0.949 . S
C115 C114 1.339 . S
C115 C116 1.439 . S
C115 H150 0.950 . S
C116 N112 1.383 . S
C116 C115 1.439 . S
C116 C145 1.392 . S
N117 Co111 2.008 . S
N117 C118 1.376 . S
N117 C121 1.374 . S
C118 N117 1.376 . S
C118 C119 1.443 1_655 S
C118 C145 1.389 . S
C119 C118 1.443 1_455 S
C119 C120 1.340 . S
C119 H151 0.951 . S
C120 C119 1.340 . S
C120 C121 1.439 1_455 S
C120 H152 0.950 . S
C121 N117 1.374 . S
C121 C120 1.439 1_655 S
C121 C146 1.395 . S
N122 Co111 1.995 . S
N122 C123 1.376 . S
N122 C126 1.383 . S
C123 N122 1.376 . S
C123 C124 1.446 . S
C123 C146 1.391 . S
C124 C123 1.446 . S
C124 C125 1.339 . S
C124 H153 0.949 . S
C125 C124 1.339 . S
C125 C126 1.439 . S
C125 H154 0.950 . S
C126 N122 1.383 . S
C126 C125 1.439 . S
C126 C144 1.392 . S
N127 Co111 2.282 . S
N127 C130 1.332 . S
N127 C132 1.332 . S
C128 C129 1.386 . S
C128 C131 1.388 . S
C129 C128 1.386 . S
C129 C130 1.382 . S
C129 H155 0.950 . S
C130 N127 1.332 . S
C130 C129 1.382 . S
C130 H141 0.952 . S
C131 C128 1.388 . S
C131 C132 1.382 . S
C131 H156 0.950 . S
C132 N127 1.332 . S
C132 C131 1.382 . S
C132 H142 0.948 . S
N133 Co111 2.282 . S
N133 C137 1.332 . S
N133 C138 1.332 . S
C134 C135 1.388 . S
C134 C138 1.382 . S
C134 H157 0.950 . S
C135 C134 1.388 . S
C135 C136 1.386 . S
C136 C135 1.386 . S
C136 C137 1.382 . S
C136 H158 0.950 . S
C137 N133 1.332 . S
C137 C136 1.382 . S
C137 H139 0.952 . S
C138 N133 1.332 . S
C138 C134 1.382 . S
C138 H140 0.948 . S
H139 C137 0.952 . S
H140 C138 0.948 . S
H141 C130 0.952 . S
H142 C132 0.948 . S
C143 C109 1.395 . S
C143 C113 1.391 . S
C144 C106 1.389 . S
C144 C126 1.392 . S
C145 C116 1.392 . S
C145 C118 1.389 . S
C146 C121 1.395 . S
C146 C123 1.391 . S
H147 C107 0.951 . S
H148 C108 0.950 . S
H149 C114 0.949 . S
H150 C115 0.950 . S
H151 C119 0.951 . S
H152 C120 0.950 . S
H153 C124 0.949 . S
H154 C125 0.950 . S
H155 C129 0.950 . S
H156 C131 0.950 . S
H157 C134 0.950 . S
H158 C136 0.950 . S
C159 C160 1.443 1_545 S
C159 N163 1.376 . S
C159 C197 1.389 . S
C160 C159 1.443 1_565 S
C160 C161 1.340 . S
C160 H200 0.951 . S
C161 C160 1.340 . S
C161 C162 1.439 1_565 S
C161 H201 0.950 . S
C162 C161 1.439 1_545 S
C162 N163 1.374 . S
C162 C196 1.395 . S
N163 C159 1.376 . S
N163 C162 1.374 . S
N163 Co164 2.008 . S
Co164 N163 2.008 . S
Co164 N165 1.995 . S
Co164 N170 2.008 . S
Co164 N175 1.995 . S
Co164 N180 2.282 . S
Co164 N186 2.282 . S
N165 Co164 1.995 . S
N165 C166 1.376 . S
N165 C169 1.383 . S
C166 N165 1.376 . S
C166 C167 1.446 . S
C166 C196 1.391 . S
C167 C166 1.446 . S
C167 C168 1.339 . S
C167 H202 0.949 . S
C168 C167 1.339 . S
C168 C169 1.439 . S
C168 H203 0.950 . S
C169 N165 1.383 . S
C169 C168 1.439 . S
C169 C198 1.392 . S
N170 Co164 2.008 . S
N170 C171 1.376 . S
N170 C174 1.374 . S
C171 N170 1.376 . S
C171 C172 1.443 . S
C171 C198 1.389 . S
C172 C171 1.443 . S
C172 C173 1.340 . S
C172 H204 0.951 . S
C173 C172 1.340 . S
C173 C174 1.439 . S
C173 H205 0.950 . S
C174 N170 1.374 . S
C174 C173 1.439 . S
C174 C199 1.395 . S
N175 Co164 1.995 . S
N175 C176 1.376 . S
N175 C179 1.383 . S
C176 N175 1.376 . S
C176 C177 1.446 . S
C176 C199 1.391 . S
C177 C176 1.446 . S
C177 C178 1.339 . S
C177 H206 0.949 . S
C178 C177 1.339 . S
C178 C179 1.439 . S
C178 H207 0.950 . S
C179 N175 1.383 . S
C179 C178 1.439 . S
C179 C197 1.392 . S
N180 Co164 2.282 . S
N180 C183 1.332 . S
N180 C185 1.332 . S
C181 C182 1.386 . S
C181 C184 1.388 . S
C182 C181 1.386 . S
C182 C183 1.382 . S
C182 H208 0.950 . S
C183 N180 1.332 . S
C183 C182 1.382 . S
C183 H194 0.952 . S
C184 C181 1.388 . S
C184 C185 1.382 . S
C184 H209 0.950 . S
C185 N180 1.332 . S
C185 C184 1.382 . S
C185 H195 0.948 . S
N186 Co164 2.282 . S
N186 C190 1.332 . S
N186 C191 1.332 . S
C187 C188 1.388 . S
C187 C191 1.382 . S
C187 H210 0.950 . S
C188 C187 1.388 . S
C188 C189 1.386 . S
C189 C188 1.386 . S
C189 C190 1.382 . S
C189 H211 0.950 . S
C190 N186 1.332 . S
C190 C189 1.382 . S
C190 H192 0.952 . S
C191 N186 1.332 . S
C191 C187 1.382 . S
C191 H193 0.948 . S
H192 C190 0.952 . S
H193 C191 0.948 . S
H194 C183 0.952 . S
H195 C185 0.948 . S
C196 C162 1.395 . S
C196 C166 1.391 . S
C197 C159 1.389 . S
C197 C179 1.392 . S
C198 C169 1.392 . S
C198 C171 1.389 . S
C199 C174 1.395 . S
C199 C176 1.391 . S
H200 C160 0.951 . S
H201 C161 0.950 . S
H202 C167 0.949 . S
H203 C168 0.950 . S
H204 C172 0.951 . S
H205 C173 0.950 . S
H206 C177 0.949 . S
H207 C178 0.950 . S
H208 C182 0.950 . S
H209 C184 0.950 . S
H210 C187 0.950 . S
H211 C189 0.950 . S
C212 C213 1.443 . S
C212 N216 1.376 . S
C212 C250 1.389 . S
C213 C212 1.443 . S
C213 C214 1.340 . S
C213 H253 0.951 . S
C214 C213 1.340 . S
C214 C215 1.439 . S
C214 H254 0.950 . S
C215 C214 1.439 . S
C215 N216 1.374 . S
C215 C249 1.395 . S
N216 C212 1.376 . S
N216 C215 1.374 . S
N216 Co217 2.008 . S
Co217 N216 2.008 . S
Co217 N218 1.995 . S
Co217 N223 2.008 . S
Co217 N228 1.995 . S
Co217 N233 2.282 . S
Co217 N239 2.282 . S
N218 Co217 1.995 . S
N218 C219 1.376 . S
N218 C222 1.383 . S
C219 N218 1.376 . S
C219 C220 1.446 . S
C219 C249 1.391 . S
C220 C219 1.446 . S
C220 C221 1.339 . S
C220 H255 0.949 . S
C221 C220 1.339 . S
C221 C222 1.439 . S
C221 H256 0.950 . S
C222 N218 1.383 . S
C222 C221 1.439 . S
C222 C251 1.392 . S
N223 Co217 2.008 . S
N223 C224 1.376 . S
N223 C227 1.374 . S
C224 N223 1.376 . S
C224 C225 1.443 1_455 S
C224 C251 1.389 . S
C225 C224 1.443 1_655 S
C225 C226 1.340 . S
C225 H257 0.951 . S
C226 C225 1.340 . S
C226 C227 1.439 1_655 S
C226 H258 0.950 . S
C227 N223 1.374 . S
C227 C226 1.439 1_455 S
C227 C252 1.395 . S
N228 Co217 1.995 . S
N228 C229 1.376 . S
N228 C232 1.383 . S
C229 N228 1.376 . S
C229 C230 1.446 . S
C229 C252 1.391 . S
C230 C229 1.446 . S
C230 C231 1.339 . S
C230 H259 0.949 . S
C231 C230 1.339 . S
C231 C232 1.439 . S
C231 H260 0.950 . S
C232 N228 1.383 . S
C232 C231 1.439 . S
C232 C250 1.392 . S
N233 Co217 2.282 . S
N233 C236 1.332 . S
N233 C238 1.332 . S
C234 C235 1.386 . S
C234 C237 1.388 . S
C235 C234 1.386 . S
C235 C236 1.382 . S
C235 H261 0.950 . S
C236 N233 1.332 . S
C236 C235 1.382 . S
C236 H247 0.952 . S
C237 C234 1.388 . S
C237 C238 1.382 . S
C237 H262 0.950 . S
C238 N233 1.332 . S
C238 C237 1.382 . S
C238 H248 0.948 . S
N239 Co217 2.282 . S
N239 C243 1.332 . S
N239 C244 1.332 . S
C240 C241 1.388 . S
C240 C244 1.382 . S
C240 H263 0.950 . S
C241 C240 1.388 . S
C241 C242 1.386 . S
C242 C241 1.386 . S
C242 C243 1.382 . S
C242 H264 0.950 . S
C243 N239 1.332 . S
C243 C242 1.382 . S
C243 H245 0.952 . S
C244 N239 1.332 . S
C244 C240 1.382 . S
C244 H246 0.948 . S
H245 C243 0.952 . S
H246 C244 0.948 . S
H247 C236 0.952 . S
H248 C238 0.948 . S
C249 C215 1.395 . S
C249 C219 1.391 . S
C250 C212 1.389 . S
C250 C232 1.392 . S
C251 C222 1.392 . S
C251 C224 1.389 . S
C252 C227 1.395 . S
C252 C229 1.391 . S
H253 C213 0.951 . S
H254 C214 0.950 . S
H255 C220 0.949 . S
H256 C221 0.950 . S
H257 C225 0.951 . S
H258 C226 0.950 . S
H259 C230 0.949 . S
H260 C231 0.950 . S
H261 C235 0.950 . S
H262 C237 0.950 . S
H263 C240 0.950 . S
H264 C242 0.950 . S
C265 C266 1.443 1_565 S
C265 N269 1.376 . S
C265 C303 1.389 . S
C266 C265 1.443 1_545 S
C266 C267 1.340 . S
C266 H306 0.951 . S
C267 C266 1.340 . S
C267 C268 1.439 1_545 S
C267 H307 0.950 . S
C268 C267 1.439 1_565 S
C268 N269 1.374 . S
C268 C302 1.395 . S
N269 C265 1.376 . S
N269 C268 1.374 . S
N269 Co270 2.008 . S
Co270 N269 2.008 . S
Co270 N271 1.995 . S
Co270 N276 2.008 . S
Co270 N281 1.995 . S
Co270 N286 2.282 . S
Co270 N292 2.282 . S
N271 Co270 1.995 . S
N271 C272 1.376 . S
N271 C275 1.383 . S
C272 N271 1.376 . S
C272 C273 1.446 . S
C272 C302 1.391 . S
C273 C272 1.446 . S
C273 C274 1.339 . S
C273 H308 0.949 . S
C274 C273 1.339 . S
C274 C275 1.439 . S
C274 H309 0.950 . S
C275 N271 1.383 . S
C275 C274 1.439 . S
C275 C304 1.392 . S
N276 Co270 2.008 . S
N276 C277 1.376 . S
N276 C280 1.374 . S
C277 N276 1.376 . S
C277 C278 1.443 . S
C277 C304 1.389 . S
C278 C277 1.443 . S
C278 C279 1.340 . S
C278 H310 0.951 . S
C279 C278 1.340 . S
C279 C280 1.439 . S
C279 H311 0.950 . S
C280 N276 1.374 . S
C280 C279 1.439 . S
C280 C305 1.395 . S
N281 Co270 1.995 . S
N281 C282 1.376 . S
N281 C285 1.383 . S
C282 N281 1.376 . S
C282 C283 1.446 . S
C282 C305 1.391 . S
C283 C282 1.446 . S
C283 C284 1.339 . S
C283 H312 0.949 . S
C284 C283 1.339 . S
C284 C285 1.439 . S
C284 H313 0.950 . S
C285 N281 1.383 . S
C285 C284 1.439 . S
C285 C303 1.392 . S
N286 Co270 2.282 . S
N286 C289 1.332 . S
N286 C291 1.332 . S
C287 C288 1.386 . S
C287 C290 1.388 . S
C288 C287 1.386 . S
C288 C289 1.382 . S
C288 H314 0.950 . S
C289 N286 1.332 . S
C289 C288 1.382 . S
C289 H300 0.952 . S
C290 C287 1.388 . S
C290 C291 1.382 . S
C290 H315 0.950 . S
C291 N286 1.332 . S
C291 C290 1.382 . S
C291 H301 0.948 . S
N292 Co270 2.282 . S
N292 C296 1.332 . S
N292 C297 1.332 . S
C293 C294 1.388 . S
C293 C297 1.382 . S
C293 H316 0.950 . S
C294 C293 1.388 . S
C294 C295 1.386 . S
C295 C294 1.386 . S
C295 C296 1.382 . S
C295 H317 0.950 . S
C296 N292 1.332 . S
C296 C295 1.382 . S
C296 H298 0.952 . S
C297 N292 1.332 . S
C297 C293 1.382 . S
C297 H299 0.948 . S
H298 C296 0.952 . S
H299 C297 0.948 . S
H300 C289 0.952 . S
H301 C291 0.948 . S
C302 C268 1.395 . S
C302 C272 1.391 . S
C303 C265 1.389 . S
C303 C285 1.392 . S
C304 C275 1.392 . S
C304 C277 1.389 . S
C305 C280 1.395 . S
C305 C282 1.391 . S
H306 C266 0.951 . S
H307 C267 0.950 . S
H308 C273 0.949 . S
H309 C274 0.950 . S
H310 C278 0.951 . S
H311 C279 0.950 . S
H312 C283 0.949 . S
H313 C284 0.950 . S
H314 C288 0.950 . S
H315 C290 0.950 . S
H316 C293 0.950 . S
H317 C295 0.950 . S
C318 C319 1.443 . S
C318 N322 1.376 . S
C318 C356 1.389 . S
C319 C318 1.443 . S
C319 C320 1.340 . S
C319 H359 0.951 . S
C320 C319 1.340 . S
C320 C321 1.439 . S
C320 H360 0.950 . S
C321 C320 1.439 . S
C321 N322 1.374 . S
C321 C355 1.395 . S
N322 C318 1.376 . S
N322 C321 1.374 . S
N322 Co323 2.008 . S
Co323 N322 2.008 . S
Co323 N324 1.995 . S
Co323 N329 2.008 . S
Co323 N334 1.995 . S
Co323 N339 2.282 . S
Co323 N345 2.282 . S
N324 Co323 1.995 . S
N324 C325 1.376 . S
N324 C328 1.383 . S
C325 N324 1.376 . S
C325 C326 1.446 . S
C325 C355 1.391 . S
C326 C325 1.446 . S
C326 C327 1.339 . S
C326 H361 0.949 . S
C327 C326 1.339 . S
C327 C328 1.439 . S
C327 H362 0.950 . S
C328 N324 1.383 . S
C328 C327 1.439 . S
C328 C357 1.392 . S
N329 Co323 2.008 . S
N329 C330 1.376 . S
N329 C333 1.374 . S
C330 N329 1.376 . S
C330 C331 1.443 1_655 S
C330 C357 1.389 . S
C331 C330 1.443 1_455 S
C331 C332 1.340 . S
C331 H363 0.951 . S
C332 C331 1.340 . S
C332 C333 1.439 1_455 S
C332 H364 0.950 . S
C333 N329 1.374 . S
C333 C332 1.439 1_655 S
C333 C358 1.395 . S
N334 Co323 1.995 . S
N334 C335 1.376 . S
N334 C338 1.383 . S
C335 N334 1.376 . S
C335 C336 1.446 . S
C335 C358 1.391 . S
C336 C335 1.446 . S
C336 C337 1.339 . S
C336 H365 0.949 . S
C337 C336 1.339 . S
C337 C338 1.439 . S
C337 H366 0.950 . S
C338 N334 1.383 . S
C338 C337 1.439 . S
C338 C356 1.392 . S
N339 Co323 2.282 . S
N339 C342 1.332 . S
N339 C344 1.332 . S
C340 C341 1.386 . S
C340 C343 1.388 . S
C341 C340 1.386 . S
C341 C342 1.382 . S
C341 H367 0.950 . S
C342 N339 1.332 . S
C342 C341 1.382 . S
C342 H353 0.952 . S
C343 C340 1.388 . S
C343 C344 1.382 . S
C343 H368 0.950 . S
C344 N339 1.332 . S
C344 C343 1.382 . S
C344 H354 0.948 . S
N345 Co323 2.282 . S
N345 C349 1.332 . S
N345 C350 1.332 . S
C346 C347 1.388 . S
C346 C350 1.382 . S
C346 H369 0.950 . S
C347 C346 1.388 . S
C347 C348 1.386 . S
C348 C347 1.386 . S
C348 C349 1.382 . S
C348 H370 0.950 . S
C349 N345 1.332 . S
C349 C348 1.382 . S
C349 H351 0.952 . S
C350 N345 1.332 . S
C350 C346 1.382 . S
C350 H352 0.948 . S
H351 C349 0.952 . S
H352 C350 0.948 . S
H353 C342 0.952 . S
H354 C344 0.948 . S
C355 C321 1.395 . S
C355 C325 1.391 . S
C356 C318 1.389 . S
C356 C338 1.392 . S
C357 C328 1.392 . S
C357 C330 1.389 . S
C358 C333 1.395 . S
C358 C335 1.391 . S
H359 C319 0.951 . S
H360 C320 0.950 . S
H361 C326 0.949 . S
H362 C327 0.950 . S
H363 C331 0.951 . S
H364 C332 0.950 . S
H365 C336 0.949 . S
H366 C337 0.950 . S
H367 C341 0.950 . S
H368 C343 0.950 . S
H369 C346 0.950 . S
H370 C348 0.950 . S
C371 C372 1.443 1_545 S
C371 N375 1.376 . S
C371 C409 1.389 . S
C372 C371 1.443 1_565 S
C372 C373 1.340 . S
C372 H412 0.951 . S
C373 C372 1.340 . S
C373 C374 1.439 1_565 S
C373 H413 0.950 . S
C374 C373 1.439 1_545 S
C374 N375 1.374 . S
C374 C408 1.395 . S
N375 C371 1.376 . S
N375 C374 1.374 . S
N375 Co376 2.008 . S
Co376 N375 2.008 . S
Co376 N377 1.995 . S
Co376 N382 2.008 . S
Co376 N387 1.995 . S
Co376 N392 2.282 . S
Co376 N398 2.282 . S
N377 Co376 1.995 . S
N377 C378 1.376 . S
N377 C381 1.383 . S
C378 N377 1.376 . S
C378 C379 1.446 . S
C378 C408 1.391 . S
C379 C378 1.446 . S
C379 C380 1.339 . S
C379 H414 0.949 . S
C380 C379 1.339 . S
C380 C381 1.439 . S
C380 H415 0.950 . S
C381 N377 1.383 . S
C381 C380 1.439 . S
C381 C410 1.392 . S
N382 Co376 2.008 . S
N382 C383 1.376 . S
N382 C386 1.374 . S
C383 N382 1.376 . S
C383 C384 1.443 . S
C383 C410 1.389 . S
C384 C383 1.443 . S
C384 C385 1.340 . S
C384 H416 0.951 . S
C385 C384 1.340 . S
C385 C386 1.439 . S
C385 H417 0.950 . S
C386 N382 1.374 . S
C386 C385 1.439 . S
C386 C411 1.395 . S
N387 Co376 1.995 . S
N387 C388 1.376 . S
N387 C391 1.383 . S
C388 N387 1.376 . S
C388 C389 1.446 . S
C388 C411 1.391 . S
C389 C388 1.446 . S
C389 C390 1.339 . S
C389 H418 0.949 . S
C390 C389 1.339 . S
C390 C391 1.439 . S
C390 H419 0.950 . S
C391 N387 1.383 . S
C391 C390 1.439 . S
C391 C409 1.392 . S
N392 Co376 2.282 . S
N392 C395 1.332 . S
N392 C397 1.332 . S
C393 C394 1.386 . S
C393 C396 1.388 . S
C394 C393 1.386 . S
C394 C395 1.382 . S
C394 H420 0.950 . S
C395 N392 1.332 . S
C395 C394 1.382 . S
C395 H406 0.952 . S
C396 C393 1.388 . S
C396 C397 1.382 . S
C396 H421 0.950 . S
C397 N392 1.332 . S
C397 C396 1.382 . S
C397 H407 0.948 . S
N398 Co376 2.282 . S
N398 C402 1.332 . S
N398 C403 1.332 . S
C399 C400 1.388 . S
C399 C403 1.382 . S
C399 H422 0.950 . S
C400 C399 1.388 . S
C400 C401 1.386 . S
C401 C400 1.386 . S
C401 C402 1.382 . S
C401 H423 0.950 . S
C402 N398 1.332 . S
C402 C401 1.382 . S
C402 H404 0.952 . S
C403 N398 1.332 . S
C403 C399 1.382 . S
C403 H405 0.948 . S
H404 C402 0.952 . S
H405 C403 0.948 . S
H406 C395 0.952 . S
H407 C397 0.948 . S
C408 C374 1.395 . S
C408 C378 1.391 . S
C409 C371 1.389 . S
C409 C391 1.392 . S
C410 C381 1.392 . S
C410 C383 1.389 . S
C411 C386 1.395 . S
C411 C388 1.391 . S
H412 C372 0.951 . S
H413 C373 0.950 . S
H414 C379 0.949 . S
H415 C380 0.950 . S
H416 C384 0.951 . S
H417 C385 0.950 . S
H418 C389 0.949 . S
H419 C390 0.950 . S
H420 C394 0.950 . S
H421 C396 0.950 . S
H422 C399 0.950 . S
H423 C401 0.950 . S
C424 C425 1.443 . S
C424 N428 1.376 . S
C424 C462 1.389 . S
C425 C424 1.443 . S
C425 C426 1.340 . S
C425 H465 0.951 . S
C426 C425 1.340 . S
C426 C427 1.439 . S
C426 H466 0.950 . S
C427 C426 1.439 . S
C427 N428 1.374 . S
C427 C461 1.395 . S
N428 C424 1.376 . S
N428 C427 1.374 . S
N428 Co429 2.008 . S
Co429 N428 2.008 . S
Co429 N430 1.995 . S
Co429 N435 2.008 . S
Co429 N440 1.995 . S
Co429 N445 2.282 . S
Co429 N451 2.282 . S
N430 Co429 1.995 . S
N430 C431 1.376 . S
N430 C434 1.383 . S
C431 N430 1.376 . S
C431 C432 1.446 . S
C431 C461 1.391 . S
C432 C431 1.446 . S
C432 C433 1.339 . S
C432 H467 0.949 . S
C433 C432 1.339 . S
C433 C434 1.439 . S
C433 H468 0.950 . S
C434 N430 1.383 . S
C434 C433 1.439 . S
C434 C463 1.392 . S
N435 Co429 2.008 . S
N435 C436 1.376 . S
N435 C439 1.374 . S
C436 N435 1.376 . S
C436 C437 1.443 . S
C436 C463 1.389 . S
C437 C436 1.443 . S
C437 C438 1.340 . S
C437 H469 0.951 . S
C438 C437 1.340 . S
C438 C439 1.439 . S
C438 H470 0.950 . S
C439 N435 1.374 . S
C439 C438 1.439 . S
C439 C464 1.395 . S
N440 Co429 1.995 . S
N440 C441 1.376 . S
N440 C444 1.383 . S
C441 N440 1.376 . S
C441 C442 1.446 . S
C441 C464 1.391 . S
C442 C441 1.446 . S
C442 C443 1.339 . S
C442 H471 0.949 . S
C443 C442 1.339 . S
C443 C444 1.439 . S
C443 H472 0.950 . S
C444 N440 1.383 . S
C444 C443 1.439 . S
C444 C462 1.392 . S
N445 Co429 2.282 . S
N445 C448 1.332 . S
N445 C450 1.332 . S
C446 C447 1.386 . S
C446 C449 1.388 . S
C447 C446 1.386 . S
C447 C448 1.382 . S
C447 H473 0.950 . S
C448 N445 1.332 . S
C448 C447 1.382 . S
C448 H459 0.952 . S
C449 C446 1.388 . S
C449 C450 1.382 . S
C449 H474 0.950 . S
C450 N445 1.332 . S
C450 C449 1.382 . S
C450 H460 0.948 . S
N451 Co429 2.282 . S
N451 C455 1.332 . S
N451 C456 1.332 . S
C452 C453 1.388 . S
C452 C456 1.382 . S
C452 H475 0.950 . S
C453 C452 1.388 . S
C453 C454 1.386 . S
C454 C453 1.386 . S
C454 C455 1.382 . S
C454 H476 0.950 . S
C455 N451 1.332 . S
C455 C454 1.382 . S
C455 H457 0.952 . S
C456 N451 1.332 . S
C456 C452 1.382 . S
C456 H458 0.948 . S
H457 C455 0.952 . S
H458 C456 0.948 . S
H459 C448 0.952 . S
H460 C450 0.948 . S
C461 C427 1.395 . S
C461 C431 1.391 . S
C462 C424 1.389 . S
C462 C444 1.392 . S
C463 C434 1.392 . S
C463 C436 1.389 . S
C464 C439 1.395 . S
C464 C441 1.391 . S
H465 C425 0.951 . S
H466 C426 0.950 . S
H467 C432 0.949 . S
H468 C433 0.950 . S
H469 C437 0.951 . S
H470 C438 0.950 . S
H471 C442 0.949 . S
H472 C443 0.950 . S
H473 C447 0.950 . S
H474 C449 0.950 . S
H475 C452 0.950 . S
H476 C454 0.950 . S
C477 C478 1.443 . S
C477 N481 1.376 . S
C477 C515 1.389 . S
C478 C477 1.443 . S
C478 C479 1.340 . S
C478 H518 0.951 . S
C479 C478 1.340 . S
C479 C480 1.439 . S
C479 H519 0.950 . S
C480 C479 1.439 . S
C480 N481 1.374 . S
C480 C514 1.395 . S
N481 C477 1.376 . S
N481 C480 1.374 . S
N481 Co482 2.008 . S
Co482 N481 2.008 . S
Co482 N483 1.995 . S
Co482 N488 2.008 . S
Co482 N493 1.995 . S
Co482 N498 2.282 . S
Co482 N504 2.282 . S
N483 Co482 1.995 . S
N483 C484 1.376 . S
N483 C487 1.383 . S
C484 N483 1.376 . S
C484 C485 1.446 . S
C484 C514 1.391 . S
C485 C484 1.446 . S
C485 C486 1.339 . S
C485 H520 0.949 . S
C486 C485 1.339 . S
C486 C487 1.439 . S
C486 H521 0.950 . S
C487 N483 1.383 . S
C487 C486 1.439 . S
C487 C516 1.392 . S
N488 Co482 2.008 . S
N488 C489 1.376 . S
N488 C492 1.374 . S
C489 N488 1.376 . S
C489 C490 1.443 . S
C489 C516 1.389 . S
C490 C489 1.443 . S
C490 C491 1.340 . S
C490 H522 0.951 . S
C491 C490 1.340 . S
C491 C492 1.439 . S
C491 H523 0.950 . S
C492 N488 1.374 . S
C492 C491 1.439 . S
C492 C517 1.395 . S
N493 Co482 1.995 . S
N493 C494 1.376 . S
N493 C497 1.383 . S
C494 N493 1.376 . S
C494 C495 1.446 . S
C494 C517 1.391 . S
C495 C494 1.446 . S
C495 C496 1.339 . S
C495 H524 0.949 . S
C496 C495 1.339 . S
C496 C497 1.439 . S
C496 H525 0.950 . S
C497 N493 1.383 . S
C497 C496 1.439 . S
C497 C515 1.392 . S
N498 Co482 2.282 . S
N498 C501 1.332 . S
N498 C503 1.332 . S
C499 C500 1.386 . S
C499 C502 1.388 . S
C500 C499 1.386 . S
C500 C501 1.382 . S
C500 H526 0.950 . S
C501 N498 1.332 . S
C501 C500 1.382 . S
C501 H512 0.952 . S
C502 C499 1.388 . S
C502 C503 1.382 . S
C502 H527 0.950 . S
C503 N498 1.332 . S
C503 C502 1.382 . S
C503 H513 0.948 . S
N504 Co482 2.282 . S
N504 C508 1.332 . S
N504 C509 1.332 . S
C505 C506 1.388 . S
C505 C509 1.382 . S
C505 H528 0.950 . S
C506 C505 1.388 . S
C506 C507 1.386 . S
C507 C506 1.386 . S
C507 C508 1.382 . S
C507 H529 0.950 . S
C508 N504 1.332 . S
C508 C507 1.382 . S
C508 H510 0.952 . S
C509 N504 1.332 . S
C509 C505 1.382 . S
C509 H511 0.948 . S
H510 C508 0.952 . S
H511 C509 0.948 . S
H512 C501 0.952 . S
H513 C503 0.948 . S
C514 C480 1.395 . S
C514 C484 1.391 . S
C515 C477 1.389 . S
C515 C497 1.392 . S
C516 C487 1.392 . S
C516 C489 1.389 . S
C517 C492 1.395 . S
C517 C494 1.391 . S
H518 C478 0.951 . S
H519 C479 0.950 . S
H520 C485 0.949 . S
H521 C486 0.950 . S
H522 C490 0.951 . S
H523 C491 0.950 . S
H524 C495 0.949 . S
H525 C496 0.950 . S
H526 C500 0.950 . S
H527 C502 0.950 . S
H528 C505 0.950 . S
H529 C507 0.950 . S
C530 C531 1.443 . S
C530 N534 1.376 . S
C530 C568 1.389 . S
C531 C530 1.443 . S
C531 C532 1.340 . S
C531 H571 0.951 . S
C532 C531 1.340 . S
C532 C533 1.439 . S
C532 H572 0.950 . S
C533 C532 1.439 . S
C533 N534 1.374 . S
C533 C567 1.395 . S
N534 C530 1.376 . S
N534 C533 1.374 . S
N534 Co535 2.008 . S
Co535 N534 2.008 . S
Co535 N536 1.995 . S
Co535 N541 2.008 . S
Co535 N546 1.995 . S
Co535 N551 2.282 . S
Co535 N557 2.282 . S
N536 Co535 1.995 . S
N536 C537 1.376 . S
N536 C540 1.383 . S
C537 N536 1.376 . S
C537 C538 1.446 . S
C537 C567 1.391 . S
C538 C537 1.446 . S
C538 C539 1.339 . S
C538 H573 0.949 . S
C539 C538 1.339 . S
C539 C540 1.439 . S
C539 H574 0.950 . S
C540 N536 1.383 . S
C540 C539 1.439 . S
C540 C569 1.392 . S
N541 Co535 2.008 . S
N541 C542 1.376 . S
N541 C545 1.374 . S
C542 N541 1.376 . S
C542 C543 1.443 . S
C542 C569 1.389 . S
C543 C542 1.443 . S
C543 C544 1.340 . S
C543 H575 0.951 . S
C544 C543 1.340 . S
C544 C545 1.439 . S
C544 H576 0.950 . S
C545 N541 1.374 . S
C545 C544 1.439 . S
C545 C570 1.395 . S
N546 Co535 1.995 . S
N546 C547 1.376 . S
N546 C550 1.383 . S
C547 N546 1.376 . S
C547 C548 1.446 . S
C547 C570 1.391 . S
C548 C547 1.446 . S
C548 C549 1.339 . S
C548 H577 0.949 . S
C549 C548 1.339 . S
C549 C550 1.439 . S
C549 H578 0.950 . S
C550 N546 1.383 . S
C550 C549 1.439 . S
C550 C568 1.392 . S
N551 Co535 2.282 . S
N551 C554 1.332 . S
N551 C556 1.332 . S
C552 C553 1.386 . S
C552 C555 1.388 . S
C553 C552 1.386 . S
C553 C554 1.382 . S
C553 H579 0.950 . S
C554 N551 1.332 . S
C554 C553 1.382 . S
C554 H565 0.952 . S
C555 C552 1.388 . S
C555 C556 1.382 . S
C555 H580 0.950 . S
C556 N551 1.332 . S
C556 C555 1.382 . S
C556 H566 0.948 . S
N557 Co535 2.282 . S
N557 C561 1.332 . S
N557 C562 1.332 . S
C558 C559 1.388 . S
C558 C562 1.382 . S
C558 H581 0.950 . S
C559 C558 1.388 . S
C559 C560 1.386 . S
C560 C559 1.386 . S
C560 C561 1.382 . S
C560 H582 0.950 . S
C561 N557 1.332 . S
C561 C560 1.382 . S
C561 H563 0.952 . S
C562 N557 1.332 . S
C562 C558 1.382 . S
C562 H564 0.948 . S
H563 C561 0.952 . S
H564 C562 0.948 . S
H565 C554 0.952 . S
H566 C556 0.948 . S
C567 C533 1.395 . S
C567 C537 1.391 . S
C568 C530 1.389 . S
C568 C550 1.392 . S
C569 C540 1.392 . S
C569 C542 1.389 . S
C570 C545 1.395 . S
C570 C547 1.391 . S
H571 C531 0.951 . S
H572 C532 0.950 . S
H573 C538 0.949 . S
H574 C539 0.950 . S
H575 C543 0.951 . S
H576 C544 0.950 . S
H577 C548 0.949 . S
H578 C549 0.950 . S
H579 C553 0.950 . S
H580 C555 0.950 . S
H581 C558 0.950 . S
H582 C560 0.950 . S
C583 C584 1.443 . S
C583 N587 1.376 . S
C583 C621 1.389 . S
C584 C583 1.443 . S
C584 C585 1.340 . S
C584 H624 0.951 . S
C585 C584 1.340 . S
C585 C586 1.439 . S
C585 H625 0.950 . S
C586 C585 1.439 . S
C586 N587 1.374 . S
C586 C620 1.395 . S
N587 C583 1.376 . S
N587 C586 1.374 . S
N587 Co588 2.008 . S
Co588 N587 2.008 . S
Co588 N589 1.995 . S
Co588 N594 2.008 . S
Co588 N599 1.995 . S
Co588 N604 2.282 . S
Co588 N610 2.282 . S
N589 Co588 1.995 . S
N589 C590 1.376 . S
N589 C593 1.383 . S
C590 N589 1.376 . S
C590 C591 1.446 . S
C590 C620 1.391 . S
C591 C590 1.446 . S
C591 C592 1.339 . S
C591 H626 0.949 . S
C592 C591 1.339 . S
C592 C593 1.439 . S
C592 H627 0.950 . S
C593 N589 1.383 . S
C593 C592 1.439 . S
C593 C622 1.392 . S
N594 Co588 2.008 . S
N594 C595 1.376 . S
N594 C598 1.374 . S
C595 N594 1.376 . S
C595 C596 1.443 . S
C595 C622 1.389 . S
C596 C595 1.443 . S
C596 C597 1.340 . S
C596 H628 0.951 . S
C597 C596 1.340 . S
C597 C598 1.439 . S
C597 H629 0.950 . S
C598 N594 1.374 . S
C598 C597 1.439 . S
C598 C623 1.395 . S
N599 Co588 1.995 . S
N599 C600 1.376 . S
N599 C603 1.383 . S
C600 N599 1.376 . S
C600 C601 1.446 . S
C600 C623 1.391 . S
C601 C600 1.446 . S
C601 C602 1.339 . S
C601 H630 0.949 . S
C602 C601 1.339 . S
C602 C603 1.439 . S
C602 H631 0.950 . S
C603 N599 1.383 . S
C603 C602 1.439 . S
C603 C621 1.392 . S
N604 Co588 2.282 . S
N604 C607 1.332 . S
N604 C609 1.332 . S
C605 C606 1.386 . S
C605 C608 1.388 . S
C606 C605 1.386 . S
C606 C607 1.382 . S
C606 H632 0.950 . S
C607 N604 1.332 . S
C607 C606 1.382 . S
C607 H618 0.952 . S
C608 C605 1.388 . S
C608 C609 1.382 . S
C608 H633 0.950 . S
C609 N604 1.332 . S
C609 C608 1.382 . S
C609 H619 0.948 . S
N610 Co588 2.282 . S
N610 C614 1.332 . S
N610 C615 1.332 . S
C611 C612 1.388 . S
C611 C615 1.382 . S
C611 H634 0.950 . S
C612 C611 1.388 . S
C612 C613 1.386 . S
C613 C612 1.386 . S
C613 C614 1.382 . S
C613 H635 0.950 . S
C614 N610 1.332 . S
C614 C613 1.382 . S
C614 H616 0.952 . S
C615 N610 1.332 . S
C615 C611 1.382 . S
C615 H617 0.948 . S
H616 C614 0.952 . S
H617 C615 0.948 . S
H618 C607 0.952 . S
H619 C609 0.948 . S
C620 C586 1.395 . S
C620 C590 1.391 . S
C621 C583 1.389 . S
C621 C603 1.392 . S
C622 C593 1.392 . S
C622 C595 1.389 . S
C623 C598 1.395 . S
C623 C600 1.391 . S
H624 C584 0.951 . S
H625 C585 0.950 . S
H626 C591 0.949 . S
H627 C592 0.950 . S
H628 C596 0.951 . S
H629 C597 0.950 . S
H630 C601 0.949 . S
H631 C602 0.950 . S
H632 C606 0.950 . S
H633 C608 0.950 . S
H634 C611 0.950 . S
H635 C613 0.950 . S
C636 C637 1.443 . S
C636 N640 1.376 . S
C636 C674 1.389 . S
C637 C636 1.443 . S
C637 C638 1.340 . S
C637 H677 0.951 . S
C638 C637 1.340 . S
C638 C639 1.439 . S
C638 H678 0.950 . S
C639 C638 1.439 . S
C639 N640 1.374 . S
C639 C673 1.395 . S
N640 C636 1.376 . S
N640 C639 1.374 . S
N640 Co641 2.008 . S
Co641 N640 2.008 . S
Co641 N642 1.995 . S
Co641 N647 2.008 . S
Co641 N652 1.995 . S
Co641 N657 2.282 . S
Co641 N663 2.282 . S
N642 Co641 1.995 . S
N642 C643 1.376 . S
N642 C646 1.383 . S
C643 N642 1.376 . S
C643 C644 1.446 . S
C643 C673 1.391 . S
C644 C643 1.446 . S
C644 C645 1.339 . S
C644 H679 0.949 . S
C645 C644 1.339 . S
C645 C646 1.439 . S
C645 H680 0.950 . S
C646 N642 1.383 . S
C646 C645 1.439 . S
C646 C675 1.392 . S
N647 Co641 2.008 . S
N647 C648 1.376 . S
N647 C651 1.374 . S
C648 N647 1.376 . S
C648 C649 1.443 . S
C648 C675 1.389 . S
C649 C648 1.443 . S
C649 C650 1.340 . S
C649 H681 0.951 . S
C650 C649 1.340 . S
C650 C651 1.439 . S
C650 H682 0.950 . S
C651 N647 1.374 . S
C651 C650 1.439 . S
C651 C676 1.395 . S
N652 Co641 1.995 . S
N652 C653 1.376 . S
N652 C656 1.383 . S
C653 N652 1.376 . S
C653 C654 1.446 . S
C653 C676 1.391 . S
C654 C653 1.446 . S
C654 C655 1.339 . S
C654 H683 0.949 . S
C655 C654 1.339 . S
C655 C656 1.439 . S
C655 H684 0.950 . S
C656 N652 1.383 . S
C656 C655 1.439 . S
C656 C674 1.392 . S
N657 Co641 2.282 . S
N657 C660 1.332 . S
N657 C662 1.332 . S
C658 C659 1.386 . S
C658 C661 1.388 . S
C659 C658 1.386 . S
C659 C660 1.382 . S
C659 H685 0.950 . S
C660 N657 1.332 . S
C660 C659 1.382 . S
C660 H671 0.952 . S
C661 C658 1.388 . S
C661 C662 1.382 . S
C661 H686 0.950 . S
C662 N657 1.332 . S
C662 C661 1.382 . S
C662 H672 0.948 . S
N663 Co641 2.282 . S
N663 C667 1.332 . S
N663 C668 1.332 . S
C664 C665 1.388 . S
C664 C668 1.382 . S
C664 H687 0.950 . S
C665 C664 1.388 . S
C665 C666 1.386 . S
C666 C665 1.386 . S
C666 C667 1.382 . S
C666 H688 0.950 . S
C667 N663 1.332 . S
C667 C666 1.382 . S
C667 H669 0.952 . S
C668 N663 1.332 . S
C668 C664 1.382 . S
C668 H670 0.948 . S
H669 C667 0.952 . S
H670 C668 0.948 . S
H671 C660 0.952 . S
H672 C662 0.948 . S
C673 C639 1.395 . S
C673 C643 1.391 . S
C674 C636 1.389 . S
C674 C656 1.392 . S
C675 C646 1.392 . S
C675 C648 1.389 . S
C676 C651 1.395 . S
C676 C653 1.391 . S
H677 C637 0.951 . S
H678 C638 0.950 . S
H679 C644 0.949 . S
H680 C645 0.950 . S
H681 C649 0.951 . S
H682 C650 0.950 . S
H683 C654 0.949 . S
H684 C655 0.950 . S
H685 C659 0.950 . S
H686 C661 0.950 . S
H687 C664 0.950 . S
H688 C666 0.950 . S
C689 C690 1.443 . S
C689 N693 1.376 . S
C689 C727 1.389 . S
C690 C689 1.443 . S
C690 C691 1.340 . S
C690 H730 0.951 . S
C691 C690 1.340 . S
C691 C692 1.439 . S
C691 H731 0.950 . S
C692 C691 1.439 . S
C692 N693 1.374 . S
C692 C726 1.395 . S
N693 C689 1.376 . S
N693 C692 1.374 . S
N693 Co694 2.008 . S
Co694 N693 2.008 . S
Co694 N695 1.995 . S
Co694 N700 2.008 . S
Co694 N705 1.995 . S
Co694 N710 2.282 . S
Co694 N716 2.282 . S
N695 Co694 1.995 . S
N695 C696 1.376 . S
N695 C699 1.383 . S
C696 N695 1.376 . S
C696 C697 1.446 . S
C696 C726 1.391 . S
C697 C696 1.446 . S
C697 C698 1.339 . S
C697 H732 0.949 . S
C698 C697 1.339 . S
C698 C699 1.439 . S
C698 H733 0.950 . S
C699 N695 1.383 . S
C699 C698 1.439 . S
C699 C728 1.392 . S
N700 Co694 2.008 . S
N700 C701 1.376 . S
N700 C704 1.374 . S
C701 N700 1.376 . S
C701 C702 1.443 . S
C701 C728 1.389 . S
C702 C701 1.443 . S
C702 C703 1.340 . S
C702 H734 0.951 . S
C703 C702 1.340 . S
C703 C704 1.439 . S
C703 H735 0.950 . S
C704 N700 1.374 . S
C704 C703 1.439 . S
C704 C729 1.395 . S
N705 Co694 1.995 . S
N705 C706 1.376 . S
N705 C709 1.383 . S
C706 N705 1.376 . S
C706 C707 1.446 . S
C706 C729 1.391 . S
C707 C706 1.446 . S
C707 C708 1.339 . S
C707 H736 0.949 . S
C708 C707 1.339 . S
C708 C709 1.439 . S
C708 H737 0.950 . S
C709 N705 1.383 . S
C709 C708 1.439 . S
C709 C727 1.392 . S
N710 Co694 2.282 . S
N710 C713 1.332 . S
N710 C715 1.332 . S
C711 C712 1.386 . S
C711 C714 1.388 . S
C712 C711 1.386 . S
C712 C713 1.382 . S
C712 H738 0.950 . S
C713 N710 1.332 . S
C713 C712 1.382 . S
C713 H724 0.952 . S
C714 C711 1.388 . S
C714 C715 1.382 . S
C714 H739 0.950 . S
C715 N710 1.332 . S
C715 C714 1.382 . S
C715 H725 0.948 . S
N716 Co694 2.282 . S
N716 C720 1.332 . S
N716 C721 1.332 . S
C717 C718 1.388 . S
C717 C721 1.382 . S
C717 H740 0.950 . S
C718 C717 1.388 . S
C718 C719 1.386 . S
C719 C718 1.386 . S
C719 C720 1.382 . S
C719 H741 0.950 . S
C720 N716 1.332 . S
C720 C719 1.382 . S
C720 H722 0.952 . S
C721 N716 1.332 . S
C721 C717 1.382 . S
C721 H723 0.948 . S
H722 C720 0.952 . S
H723 C721 0.948 . S
H724 C713 0.952 . S
H725 C715 0.948 . S
C726 C692 1.395 . S
C726 C696 1.391 . S
C727 C689 1.389 . S
C727 C709 1.392 . S
C728 C699 1.392 . S
C728 C701 1.389 . S
C729 C704 1.395 . S
C729 C706 1.391 . S
H730 C690 0.951 . S
H731 C691 0.950 . S
H732 C697 0.949 . S
H733 C698 0.950 . S
H734 C702 0.951 . S
H735 C703 0.950 . S
H736 C707 0.949 . S
H737 C708 0.950 . S
H738 C712 0.950 . S
H739 C714 0.950 . S
H740 C717 0.950 . S
H741 C719 0.950 . S
C742 C743 1.443 . S
C742 N746 1.376 . S
C742 C780 1.389 . S
C743 C742 1.443 . S
C743 C744 1.340 . S
C743 H783 0.951 . S
C744 C743 1.340 . S
C744 C745 1.439 . S
C744 H784 0.950 . S
C745 C744 1.439 . S
C745 N746 1.374 . S
C745 C779 1.395 . S
N746 C742 1.376 . S
N746 C745 1.374 . S
N746 Co747 2.008 . S
Co747 N746 2.008 . S
Co747 N748 1.995 . S
Co747 N753 2.008 . S
Co747 N758 1.995 . S
Co747 N763 2.282 . S
Co747 N769 2.282 . S
N748 Co747 1.995 . S
N748 C749 1.376 . S
N748 C752 1.383 . S
C749 N748 1.376 . S
C749 C750 1.446 . S
C749 C779 1.391 . S
C750 C749 1.446 . S
C750 C751 1.339 . S
C750 H785 0.949 . S
C751 C750 1.339 . S
C751 C752 1.439 . S
C751 H786 0.950 . S
C752 N748 1.383 . S
C752 C751 1.439 . S
C752 C781 1.392 . S
N753 Co747 2.008 . S
N753 C754 1.376 . S
N753 C757 1.374 . S
C754 N753 1.376 . S
C754 C755 1.443 . S
C754 C781 1.389 . S
C755 C754 1.443 . S
C755 C756 1.340 . S
C755 H787 0.951 . S
C756 C755 1.340 . S
C756 C757 1.439 . S
C756 H788 0.950 . S
C757 N753 1.374 . S
C757 C756 1.439 . S
C757 C782 1.395 . S
N758 Co747 1.995 . S
N758 C759 1.376 . S
N758 C762 1.383 . S
C759 N758 1.376 . S
C759 C760 1.446 . S
C759 C782 1.391 . S
C760 C759 1.446 . S
C760 C761 1.339 . S
C760 H789 0.949 . S
C761 C760 1.339 . S
C761 C762 1.439 . S
C761 H790 0.950 . S
C762 N758 1.383 . S
C762 C761 1.439 . S
C762 C780 1.392 . S
N763 Co747 2.282 . S
N763 C766 1.332 . S
N763 C768 1.332 . S
C764 C765 1.386 . S
C764 C767 1.388 . S
C765 C764 1.386 . S
C765 C766 1.382 . S
C765 H791 0.950 . S
C766 N763 1.332 . S
C766 C765 1.382 . S
C766 H777 0.952 . S
C767 C764 1.388 . S
C767 C768 1.382 . S
C767 H792 0.950 . S
C768 N763 1.332 . S
C768 C767 1.382 . S
C768 H778 0.948 . S
N769 Co747 2.282 . S
N769 C773 1.332 . S
N769 C774 1.332 . S
C770 C771 1.388 . S
C770 C774 1.382 . S
C770 H793 0.950 . S
C771 C770 1.388 . S
C771 C772 1.386 . S
C772 C771 1.386 . S
C772 C773 1.382 . S
C772 H794 0.950 . S
C773 N769 1.332 . S
C773 C772 1.382 . S
C773 H775 0.952 . S
C774 N769 1.332 . S
C774 C770 1.382 . S
C774 H776 0.948 . S
H775 C773 0.952 . S
H776 C774 0.948 . S
H777 C766 0.952 . S
H778 C768 0.948 . S
C779 C745 1.395 . S
C779 C749 1.391 . S
C780 C742 1.389 . S
C780 C762 1.392 . S
C781 C752 1.392 . S
C781 C754 1.389 . S
C782 C757 1.395 . S
C782 C759 1.391 . S
H783 C743 0.951 . S
H784 C744 0.950 . S
H785 C750 0.949 . S
H786 C751 0.950 . S
H787 C755 0.951 . S
H788 C756 0.950 . S
H789 C760 0.949 . S
H790 C761 0.950 . S
H791 C765 0.950 . S
H792 C767 0.950 . S
H793 C770 0.950 . S
H794 C772 0.950 . S
C795 C796 1.443 . S
C795 N799 1.376 . S
C795 C833 1.389 . S
C796 C795 1.443 . S
C796 C797 1.340 . S
C796 H836 0.951 . S
C797 C796 1.340 . S
C797 C798 1.439 . S
C797 H837 0.950 . S
C798 C797 1.439 . S
C798 N799 1.374 . S
C798 C832 1.395 . S
N799 C795 1.376 . S
N799 C798 1.374 . S
N799 Co800 2.008 . S
Co800 N799 2.008 . S
Co800 N801 1.995 . S
Co800 N806 2.008 . S
Co800 N811 1.995 . S
Co800 N816 2.282 . S
Co800 N822 2.282 . S
N801 Co800 1.995 . S
N801 C802 1.376 . S
N801 C805 1.383 . S
C802 N801 1.376 . S
C802 C803 1.446 . S
C802 C832 1.391 . S
C803 C802 1.446 . S
C803 C804 1.339 . S
C803 H838 0.949 . S
C804 C803 1.339 . S
C804 C805 1.439 . S
C804 H839 0.950 . S
C805 N801 1.383 . S
C805 C804 1.439 . S
C805 C834 1.392 . S
N806 Co800 2.008 . S
N806 C807 1.376 . S
N806 C810 1.374 . S
C807 N806 1.376 . S
C807 C808 1.443 . S
C807 C834 1.389 . S
C808 C807 1.443 . S
C808 C809 1.340 . S
C808 H840 0.951 . S
C809 C808 1.340 . S
C809 C810 1.439 . S
C809 H841 0.950 . S
C810 N806 1.374 . S
C810 C809 1.439 . S
C810 C835 1.395 . S
N811 Co800 1.995 . S
N811 C812 1.376 . S
N811 C815 1.383 . S
C812 N811 1.376 . S
C812 C813 1.446 . S
C812 C835 1.391 . S
C813 C812 1.446 . S
C813 C814 1.339 . S
C813 H842 0.949 . S
C814 C813 1.339 . S
C814 C815 1.439 . S
C814 H843 0.950 . S
C815 N811 1.383 . S
C815 C814 1.439 . S
C815 C833 1.392 . S
N816 Co800 2.282 . S
N816 C819 1.332 . S
N816 C821 1.332 . S
C817 C818 1.386 . S
C817 C820 1.388 . S
C818 C817 1.386 . S
C818 C819 1.382 . S
C818 H844 0.950 . S
C819 N816 1.332 . S
C819 C818 1.382 . S
C819 H830 0.952 . S
C820 C817 1.388 . S
C820 C821 1.382 . S
C820 H845 0.950 . S
C821 N816 1.332 . S
C821 C820 1.382 . S
C821 H831 0.948 . S
N822 Co800 2.282 . S
N822 C826 1.332 . S
N822 C827 1.332 . S
C823 C824 1.388 . S
C823 C827 1.382 . S
C823 H846 0.950 . S
C824 C823 1.388 . S
C824 C825 1.386 . S
C825 C824 1.386 . S
C825 C826 1.382 . S
C825 H847 0.950 . S
C826 N822 1.332 . S
C826 C825 1.382 . S
C826 H828 0.952 . S
C827 N822 1.332 . S
C827 C823 1.382 . S
C827 H829 0.948 . S
H828 C826 0.952 . S
H829 C827 0.948 . S
H830 C819 0.952 . S
H831 C821 0.948 . S
C832 C798 1.395 . S
C832 C802 1.391 . S
C833 C795 1.389 . S
C833 C815 1.392 . S
C834 C805 1.392 . S
C834 C807 1.389 . S
C835 C810 1.395 . S
C835 C812 1.391 . S
H836 C796 0.951 . S
H837 C797 0.950 . S
H838 C803 0.949 . S
H839 C804 0.950 . S
H840 C808 0.951 . S
H841 C809 0.950 . S
H842 C813 0.949 . S
H843 C814 0.950 . S
H844 C818 0.950 . S
H845 C820 0.950 . S
H846 C823 0.950 . S
H847 C825 0.950 . S
C848 C849 1.391 . S
C848 C850 1.394 . S
C848 H864 0.931 . S
C849 C848 1.391 . S
C849 C853 1.376 . S
C850 C848 1.394 . S
C850 C851 1.369 . S
C850 C854 1.531 . S
C851 C850 1.369 . S
C851 C852 1.410 . S
C851 C859 1.503 . S
C852 C851 1.410 . S
C852 C853 1.392 . S
C852 C855 1.511 . S
C853 C849 1.376 . S
C853 C852 1.392 . S
C853 H865 0.929 . S
C854 C850 1.531 . S
C854 H866 0.960 . S
C854 H867 0.962 . S
C854 H868 0.960 . S
C855 C852 1.511 . S
C855 H869 0.961 . S
C855 H870 0.961 . S
C855 H871 0.961 . S
C856 C857 1.370 . S
C856 C858 1.363 . S
C856 H872 0.931 . S
C857 C856 1.370 . S
C857 C861 1.408 . S
C858 C856 1.363 . S
C858 C859 1.370 . S
C858 C862 1.524 . S
C859 C851 1.503 . S
C859 C858 1.370 . S
C859 C860 1.403 . S
C860 C859 1.403 . S
C860 C861 1.404 . S
C860 C863 1.539 . S
C861 C857 1.408 . S
C861 C860 1.404 . S
C861 H873 0.930 . S
C862 C858 1.524 . S
C862 H874 0.956 . S
C862 H875 0.961 . S
C862 H876 0.961 . S
C863 C860 1.539 . S
C863 H877 0.958 . S
C863 H878 0.961 . S
C863 H879 0.960 . S
H864 C848 0.931 . S
H865 C853 0.929 . S
H866 C854 0.960 . S
H867 C854 0.962 . S
H868 C854 0.960 . S
H869 C855 0.961 . S
H870 C855 0.961 . S
H871 C855 0.961 . S
H872 C856 0.931 . S
H873 C861 0.930 . S
H874 C862 0.956 . S
H875 C862 0.961 . S
H876 C862 0.961 . S
H877 C863 0.958 . S
H878 C863 0.961 . S
H879 C863 0.960 . S
C880 C881 1.391 . S
C880 C882 1.394 . S
C880 H896 0.931 . S
C881 C880 1.391 . S
C881 C885 1.376 . S
C882 C880 1.394 . S
C882 C883 1.369 . S
C882 C886 1.531 . S
C883 C882 1.369 . S
C883 C884 1.410 . S
C883 C891 1.503 . S
C884 C883 1.410 . S
C884 C885 1.392 . S
C884 C887 1.511 . S
C885 C881 1.376 . S
C885 C884 1.392 . S
C885 H897 0.929 . S
C886 C882 1.531 . S
C886 H898 0.960 . S
C886 H899 0.962 . S
C886 H900 0.960 . S
C887 C884 1.511 . S
C887 H901 0.961 . S
C887 H902 0.961 . S
C887 H903 0.961 . S
C888 C889 1.370 . S
C888 C890 1.363 . S
C888 H904 0.931 . S
C889 C888 1.370 . S
C889 C893 1.408 . S
C890 C888 1.363 . S
C890 C891 1.370 . S
C890 C894 1.524 . S
C891 C883 1.503 . S
C891 C890 1.370 . S
C891 C892 1.403 . S
C892 C891 1.403 . S
C892 C893 1.404 . S
C892 C895 1.539 . S
C893 C889 1.408 . S
C893 C892 1.404 . S
C893 H905 0.930 . S
C894 C890 1.524 . S
C894 H906 0.956 . S
C894 H907 0.961 . S
C894 H908 0.961 . S
C895 C892 1.539 . S
C895 H909 0.958 . S
C895 H910 0.961 . S
C895 H911 0.960 . S
H896 C880 0.931 . S
H897 C885 0.929 . S
H898 C886 0.960 . S
H899 C886 0.962 . S
H900 C886 0.960 . S
H901 C887 0.961 . S
H902 C887 0.961 . S
H903 C887 0.961 . S
H904 C888 0.931 . S
H905 C893 0.930 . S
H906 C894 0.956 . S
H907 C894 0.961 . S
H908 C894 0.961 . S
H909 C895 0.958 . S
H910 C895 0.961 . S
H911 C895 0.960 . S
C912 C913 1.391 . S
C912 C914 1.394 . S
C912 H928 0.931 . S
C913 C912 1.391 . S
C913 C917 1.376 . S
C914 C912 1.394 . S
C914 C915 1.369 . S
C914 C918 1.531 . S
C915 C914 1.369 . S
C915 C916 1.410 . S
C915 C923 1.503 . S
C916 C915 1.410 . S
C916 C917 1.392 . S
C916 C919 1.511 . S
C917 C913 1.376 . S
C917 C916 1.392 . S
C917 H929 0.929 . S
C918 C914 1.531 . S
C918 H930 0.960 . S
C918 H931 0.962 . S
C918 H932 0.960 . S
C919 C916 1.511 . S
C919 H933 0.961 . S
C919 H934 0.961 . S
C919 H935 0.961 . S
C920 C921 1.370 . S
C920 C922 1.363 . S
C920 H936 0.931 . S
C921 C920 1.370 . S
C921 C925 1.408 . S
C922 C920 1.363 . S
C922 C923 1.370 . S
C922 C926 1.524 . S
C923 C915 1.503 . S
C923 C922 1.370 . S
C923 C924 1.403 . S
C924 C923 1.403 . S
C924 C925 1.404 . S
C924 C927 1.539 . S
C925 C921 1.408 . S
C925 C924 1.404 . S
C925 H937 0.930 . S
C926 C922 1.524 . S
C926 H938 0.956 . S
C926 H939 0.961 . S
C926 H940 0.961 . S
C927 C924 1.539 . S
C927 H941 0.958 . S
C927 H942 0.961 . S
C927 H943 0.960 . S
H928 C912 0.931 . S
H929 C917 0.929 . S
H930 C918 0.960 . S
H931 C918 0.962 . S
H932 C918 0.960 . S
H933 C919 0.961 . S
H934 C919 0.961 . S
H935 C919 0.961 . S
H936 C920 0.931 . S
H937 C925 0.930 . S
H938 C926 0.956 . S
H939 C926 0.961 . S
H940 C926 0.961 . S
H941 C927 0.958 . S
H942 C927 0.961 . S
H943 C927 0.960 . S
C944 C945 1.391 . S
C944 C946 1.394 . S
C944 H960 0.931 . S
C945 C944 1.391 . S
C945 C949 1.376 . S
C946 C944 1.394 . S
C946 C947 1.369 . S
C946 C950 1.531 . S
C947 C946 1.369 . S
C947 C948 1.410 . S
C947 C955 1.503 . S
C948 C947 1.410 . S
C948 C949 1.392 . S
C948 C951 1.511 . S
C949 C945 1.376 . S
C949 C948 1.392 . S
C949 H961 0.929 . S
C950 C946 1.531 . S
C950 H962 0.960 . S
C950 H963 0.962 . S
C950 H964 0.960 . S
C951 C948 1.511 . S
C951 H965 0.961 . S
C951 H966 0.961 . S
C951 H967 0.961 . S
C952 C953 1.370 . S
C952 C954 1.363 . S
C952 H968 0.931 . S
C953 C952 1.370 . S
C953 C957 1.408 . S
C954 C952 1.363 . S
C954 C955 1.370 . S
C954 C958 1.524 . S
C955 C947 1.503 . S
C955 C954 1.370 . S
C955 C956 1.403 . S
C956 C955 1.403 . S
C956 C957 1.404 . S
C956 C959 1.539 . S
C957 C953 1.408 . S
C957 C956 1.404 . S
C957 H969 0.930 . S
C958 C954 1.524 . S
C958 H970 0.956 . S
C958 H971 0.961 . S
C958 H972 0.961 . S
C959 C956 1.539 . S
C959 H973 0.958 . S
C959 H974 0.961 . S
C959 H975 0.960 . S
H960 C944 0.931 . S
H961 C949 0.929 . S
H962 C950 0.960 . S
H963 C950 0.962 . S
H964 C950 0.960 . S
H965 C951 0.961 . S
H966 C951 0.961 . S
H967 C951 0.961 . S
H968 C952 0.931 . S
H969 C957 0.930 . S
H970 C958 0.956 . S
H971 C958 0.961 . S
H972 C958 0.961 . S
H973 C959 0.958 . S
H974 C959 0.961 . S
H975 C959 0.960 . S
C976 C977 1.391 . S
C976 C978 1.394 . S
C976 H992 0.942 . S
C977 C976 1.391 . S
C977 C981 1.376 . S
C978 C976 1.394 . S
C978 C979 1.369 . S
C978 C982 1.531 . S
C979 C978 1.369 . S
C979 C980 1.410 . S
C979 C987 1.503 1_554 S
C980 C979 1.410 . S
C980 C981 1.392 . S
C980 C983 1.511 1_554 S
C981 C977 1.376 . S
C981 C980 1.392 . S
C981 H993 0.929 . S
C982 C978 1.531 . S
C982 H994 0.960 . S
C982 H995 0.962 . S
C982 H996 0.960 . S
C983 C980 1.511 1_556 S
C983 H997 0.961 . S
C983 H998 0.961 . S
C983 H999 0.961 1_556 S
C984 C985 1.370 . S
C984 C986 1.363 . S
C984 H1000 0.931 . S
C985 C984 1.370 . S
C985 C989 1.408 . S
C986 C984 1.363 . S
C986 C987 1.370 . S
C986 C990 1.524 . S
C987 C979 1.503 1_556 S
C987 C986 1.370 . S
C987 C988 1.403 . S
C988 C987 1.403 . S
C988 C989 1.404 . S
C988 C991 1.539 1_556 S
C989 C985 1.408 . S
C989 C988 1.404 . S
C989 H1001 0.930 . S
C990 C986 1.524 . S
C990 H1002 0.956 . S
C990 H1003 0.961 . S
C990 H1004 0.961 . S
C991 C988 1.539 1_554 S
C991 H1005 0.958 . S
C991 H1006 0.961 . S
C991 H1007 0.960 . S
H992 C976 0.942 . S
H993 C981 0.929 . S
H994 C982 0.960 . S
H995 C982 0.962 . S
H996 C982 0.960 . S
H997 C983 0.961 . S
H998 C983 0.961 . S
H999 C983 0.961 1_554 S
H1000 C984 0.931 . S
H1001 C989 0.930 . S
H1002 C990 0.956 . S
H1003 C990 0.961 . S
H1004 C990 0.961 . S
H1005 C991 0.958 . S
H1006 C991 0.961 . S
H1007 C991 0.960 . S
C1008 C1009 1.391 . S
C1008 C1010 1.394 . S
C1008 H1024 0.931 . S
C1009 C1008 1.391 . S
C1009 C1013 1.376 . S
C1010 C1008 1.394 . S
C1010 C1011 1.369 . S
C1010 C1014 1.531 . S
C1011 C1010 1.369 . S
C1011 C1012 1.410 . S
C1011 C1019 1.503 1_554 S
C1012 C1011 1.410 . S
C1012 C1013 1.392 . S
C1012 C1015 1.511 . S
C1013 C1009 1.376 . S
C1013 C1012 1.392 . S
C1013 H1025 0.929 . S
C1014 C1010 1.531 . S
C1014 H1026 0.960 . S
C1014 H1027 0.962 1_554 S
C1014 H1028 0.960 . S
C1015 C1012 1.511 . S
C1015 H1029 0.961 . S
C1015 H1030 0.961 . S
C1015 H1031 0.968 . S
C1016 C1017 1.370 . S
C1016 C1018 1.363 . S
C1016 H1032 0.931 . S
C1017 C1016 1.370 . S
C1017 C1021 1.408 . S
C1018 C1016 1.363 . S
C1018 C1019 1.370 . S
C1018 C1022 1.524 . S
C1019 C1011 1.503 1_556 S
C1019 C1018 1.370 . S
C1019 C1020 1.396 1_556 S
C1020 C1019 1.396 1_554 S
C1020 C1021 1.366 1_554 S
C1020 C1023 1.585 . S
C1021 C1017 1.408 . S
C1021 C1020 1.366 1_556 S
C1021 H1033 0.930 1_455 S
C1022 C1018 1.524 . S
C1022 H1034 0.956 . S
C1022 H1035 0.961 . S
C1022 H1036 0.961 . S
C1023 C1020 1.585 . S
C1023 H1037 0.958 . S
C1023 H1038 0.961 1_455 S
C1023 H1039 0.960 . S
H1024 C1008 0.931 . S
H1025 C1013 0.929 . S
H1026 C1014 0.960 . S
H1027 C1014 0.962 1_556 S
H1028 C1014 0.960 . S
H1029 C1015 0.961 . S
H1030 C1015 0.961 . S
H1031 C1015 0.968 . S
H1032 C1016 0.931 . S
H1033 C1021 0.930 1_655 S
H1034 C1022 0.956 . S
H1035 C1022 0.961 . S
H1036 C1022 0.961 . S
H1037 C1023 0.958 . S
H1038 C1023 0.961 1_655 S
H1039 C1023 0.960 . S
C1040 C1041 1.391 . S
C1040 C1042 1.394 . S
C1040 H1056 0.931 . S
C1041 C1040 1.391 . S
C1041 C1045 1.376 . S
C1042 C1040 1.394 . S
C1042 C1043 1.369 . S
C1042 C1046 1.531 . S
C1043 C1042 1.369 . S
C1043 C1044 1.410 . S
C1043 C1051 1.503 1_556 S
C1044 C1043 1.410 . S
C1044 C1045 1.392 . S
C1044 C1047 1.511 . S
C1045 C1041 1.376 . S
C1045 C1044 1.392 . S
C1045 H1057 0.929 . S
C1046 C1042 1.531 . S
C1046 H1058 0.960 . S
C1046 H1059 0.962 . S
C1046 H1060 0.960 . S
C1047 C1044 1.511 . S
C1047 H1061 0.961 . S
C1047 H1062 0.961 1_556 S
C1047 H1063 0.961 . S
C1048 C1049 1.370 . S
C1048 C1050 1.363 . S
C1048 H1064 0.931 . S
C1049 C1048 1.370 . S
C1049 C1053 1.408 . S
C1050 C1048 1.363 . S
C1050 C1051 1.370 . S
C1050 C1054 1.524 . S
C1051 C1043 1.503 1_554 S
C1051 C1050 1.370 . S
C1051 C1052 1.393 1_554 S
C1052 C1051 1.393 1_556 S
C1052 C1053 1.352 1_556 S
C1052 C1055 1.602 . S
C1053 C1049 1.408 . S
C1053 C1052 1.352 1_554 S
C1053 H1065 0.930 1_565 S
C1054 C1050 1.524 . S
C1054 H1066 0.956 . S
C1054 H1067 0.961 . S
C1054 H1068 0.961 . S
C1055 C1052 1.602 . S
C1055 H1069 0.959 1_565 S
C1055 H1070 0.961 . S
C1055 H1071 0.960 . S
H1056 C1040 0.931 . S
H1057 C1045 0.929 . S
H1058 C1046 0.960 . S
H1059 C1046 0.962 . S
H1060 C1046 0.960 . S
H1061 C1047 0.961 . S
H1062 C1047 0.961 1_554 S
H1063 C1047 0.961 . S
H1064 C1048 0.931 . S
H1065 C1053 0.930 1_545 S
H1066 C1054 0.956 . S
H1067 C1054 0.961 . S
H1068 C1054 0.961 . S
H1069 C1055 0.959 1_545 S
H1070 C1055 0.961 . S
H1071 C1055 0.960 . S
C1072 C1073 1.391 . S
C1072 C1074 1.394 . S
C1072 H1088 0.931 . S
C1073 C1072 1.391 . S
C1073 C1077 1.376 . S
C1074 C1072 1.394 . S
C1074 C1075 1.369 . S
C1074 C1078 1.531 1_554 S
C1075 C1074 1.369 . S
C1075 C1076 1.410 . S
C1075 C1083 1.503 1_554 S
C1076 C1075 1.410 . S
C1076 C1077 1.392 . S
C1076 C1079 1.511 . S
C1077 C1073 1.376 . S
C1077 C1076 1.392 . S
C1077 H1089 0.929 . S
C1078 C1074 1.531 1_556 S
C1078 H1090 0.960 . S
C1078 H1091 0.962 . S
C1078 H1092 0.960 1_556 S
C1079 C1076 1.511 . S
C1079 H1093 0.961 . S
C1079 H1094 0.961 . S
C1079 H1095 0.961 . S
C1080 C1081 1.370 . S
C1080 C1082 1.363 . S
C1080 H1096 0.931 . S
C1081 C1080 1.370 . S
C1081 C1085 1.408 . S
C1082 C1080 1.363 . S
C1082 C1083 1.370 . S
C1082 C1086 1.524 . S
C1083 C1075 1.503 1_556 S
C1083 C1082 1.370 . S
C1083 C1084 1.403 . S
C1084 C1083 1.403 . S
C1084 C1085 1.404 . S
C1084 C1087 1.539 1_556 S
C1085 C1081 1.408 . S
C1085 C1084 1.404 . S
C1085 H1097 0.930 . S
C1086 C1082 1.524 . S
C1086 H1098 0.956 . S
C1086 H1099 0.961 . S
C1086 H1100 0.961 . S
C1087 C1084 1.539 1_554 S
C1087 H1101 0.958 . S
C1087 H1102 0.961 . S
C1087 H1103 0.960 . S
H1088 C1072 0.931 . S
H1089 C1077 0.929 . S
H1090 C1078 0.960 . S
H1091 C1078 0.962 . S
H1092 C1078 0.960 1_554 S
H1093 C1079 0.961 . S
H1094 C1079 0.961 . S
H1095 C1079 0.961 . S
H1096 C1080 0.931 . S
H1097 C1085 0.930 . S
H1098 C1086 0.956 . S
H1099 C1086 0.961 . S
H1100 C1086 0.961 . S
H1101 C1087 0.958 . S
H1102 C1087 0.961 . S
H1103 C1087 0.960 . S
C1104 C1105 1.391 . S
C1104 C1106 1.394 . S
C1104 H1120 0.931 . S
C1105 C1104 1.391 . S
C1105 C1109 1.376 . S
C1106 C1104 1.394 . S
C1106 C1107 1.369 . S
C1106 C1110 1.531 . S
C1107 C1106 1.369 . S
C1107 C1108 1.410 . S
C1107 C1115 1.503 . S
C1108 C1107 1.410 . S
C1108 C1109 1.392 . S
C1108 C1111 1.511 . S
C1109 C1105 1.376 . S
C1109 C1108 1.392 . S
C1109 H1121 0.929 . S
C1110 C1106 1.531 . S
C1110 H1122 0.960 . S
C1110 H1123 0.962 . S
C1110 H1124 0.960 . S
C1111 C1108 1.511 . S
C1111 H1125 0.961 . S
C1111 H1126 0.961 . S
C1111 H1127 0.961 . S
C1112 C1113 1.370 . S
C1112 C1114 1.363 . S
C1112 H1128 0.931 . S
C1113 C1112 1.370 . S
C1113 C1117 1.408 . S
C1114 C1112 1.363 . S
C1114 C1115 1.370 . S
C1114 C1118 1.524 . S
C1115 C1107 1.503 . S
C1115 C1114 1.370 . S
C1115 C1116 1.403 . S
C1116 C1115 1.403 . S
C1116 C1117 1.404 . S
C1116 C1119 1.539 . S
C1117 C1113 1.408 . S
C1117 C1116 1.404 . S
C1117 H1129 0.930 . S
C1118 C1114 1.524 . S
C1118 H1130 0.956 . S
C1118 H1131 0.961 . S
C1118 H1132 0.961 . S
C1119 C1116 1.539 . S
C1119 H1133 0.958 . S
C1119 H1134 0.961 . S
C1119 H1135 0.960 . S
H1120 C1104 0.931 . S
H1121 C1109 0.929 . S
H1122 C1110 0.960 . S
H1123 C1110 0.962 . S
H1124 C1110 0.960 . S
H1125 C1111 0.961 . S
H1126 C1111 0.961 . S
H1127 C1111 0.961 . S
H1128 C1112 0.931 . S
H1129 C1117 0.930 . S
H1130 C1118 0.956 . S
H1131 C1118 0.961 . S
H1132 C1118 0.961 . S
H1133 C1119 0.958 . S
H1134 C1119 0.961 . S
H1135 C1119 0.960 . S
C1136 C1137 1.391 . S
C1136 C1138 1.394 . S
C1136 H1152 0.931 . S
C1137 C1136 1.391 . S
C1137 C1141 1.376 . S
C1138 C1136 1.394 . S
C1138 C1139 1.369 . S
C1138 C1142 1.531 . S
C1139 C1138 1.369 . S
C1139 C1140 1.410 . S
C1139 C1147 1.503 . S
C1140 C1139 1.410 . S
C1140 C1141 1.392 . S
C1140 C1143 1.511 . S
C1141 C1137 1.376 . S
C1141 C1140 1.392 . S
C1141 H1153 0.929 1_655 S
C1142 C1138 1.531 . S
C1142 H1154 0.960 . S
C1142 H1155 0.962 . S
C1142 H1156 0.960 . S
C1143 C1140 1.511 . S
C1143 H1157 0.961 . S
C1143 H1158 0.961 . S
C1143 H1159 0.961 . S
C1144 C1145 1.370 . S
C1144 C1146 1.363 . S
C1144 H1160 0.931 . S
C1145 C1144 1.370 . S
C1145 C1149 1.408 . S
C1146 C1144 1.363 . S
C1146 C1147 1.370 . S
C1146 C1150 1.524 . S
C1147 C1139 1.503 . S
C1147 C1146 1.370 . S
C1147 C1148 1.403 . S
C1148 C1147 1.403 . S
C1148 C1149 1.404 . S
C1148 C1151 1.539 . S
C1149 C1145 1.408 . S
C1149 C1148 1.404 . S
C1149 H1161 0.930 . S
C1150 C1146 1.524 . S
C1150 H1162 0.956 . S
C1150 H1163 0.961 . S
C1150 H1164 0.961 . S
C1151 C1148 1.539 . S
C1151 H1165 0.958 . S
C1151 H1166 0.961 . S
C1151 H1167 0.960 1_655 S
H1152 C1136 0.931 . S
H1153 C1141 0.929 1_455 S
H1154 C1142 0.960 . S
H1155 C1142 0.962 . S
H1156 C1142 0.960 . S
H1157 C1143 0.961 . S
H1158 C1143 0.961 . S
H1159 C1143 0.961 . S
H1160 C1144 0.931 . S
H1161 C1149 0.930 . S
H1162 C1150 0.956 . S
H1163 C1150 0.961 . S
H1164 C1150 0.961 . S
H1165 C1151 0.958 . S
H1166 C1151 0.961 . S
H1167 C1151 0.960 1_455 S
C1168 C1169 1.391 . S
C1168 C1170 1.394 . S
C1168 H1184 0.931 1_545 S
C1169 C1168 1.391 . S
C1169 C1173 1.376 . S
C1170 C1168 1.394 . S
C1170 C1171 1.369 . S
C1170 C1174 1.531 . S
C1171 C1170 1.369 . S
C1171 C1172 1.410 . S
C1171 C1179 1.503 . S
C1172 C1171 1.410 . S
C1172 C1173 1.392 . S
C1172 C1175 1.511 . S
C1173 C1169 1.376 . S
C1173 C1172 1.392 . S
C1173 H1185 0.929 . S
C1174 C1170 1.531 . S
C1174 H1186 0.960 . S
C1174 H1187 0.962 . S
C1174 H1188 0.960 1_545 S
C1175 C1172 1.511 . S
C1175 H1189 0.961 . S
C1175 H1190 0.961 . S
C1175 H1191 0.961 . S
C1176 C1177 1.370 . S
C1176 C1178 1.363 . S
C1176 H1192 0.931 . S
C1177 C1176 1.370 . S
C1177 C1181 1.408 . S
C1178 C1176 1.363 . S
C1178 C1179 1.370 . S
C1178 C1182 1.524 . S
C1179 C1171 1.503 . S
C1179 C1178 1.370 . S
C1179 C1180 1.403 . S
C1180 C1179 1.403 . S
C1180 C1181 1.404 . S
C1180 C1183 1.539 . S
C1181 C1177 1.408 . S
C1181 C1180 1.404 . S
C1181 H1193 0.930 . S
C1182 C1178 1.524 . S
C1182 H1194 0.956 . S
C1182 H1195 0.961 . S
C1182 H1196 0.961 . S
C1183 C1180 1.539 . S
C1183 H1197 0.957 . S
C1183 H1198 0.961 . S
C1183 H1199 0.960 . S
H1184 C1168 0.931 1_565 S
H1185 C1173 0.929 . S
H1186 C1174 0.960 . S
H1187 C1174 0.962 . S
H1188 C1174 0.960 1_565 S
H1189 C1175 0.961 . S
H1190 C1175 0.961 . S
H1191 C1175 0.961 . S
H1192 C1176 0.931 . S
H1193 C1181 0.930 . S
H1194 C1182 0.956 . S
H1195 C1182 0.961 . S
H1196 C1182 0.961 . S
H1197 C1183 0.957 . S
H1198 C1183 0.961 . S
H1199 C1183 0.960 . S
C1200 C1201 1.391 . S
C1200 C1202 1.394 . S
C1200 H1216 0.931 . S
C1201 C1200 1.391 . S
C1201 C1205 1.376 . S
C1202 C1200 1.394 . S
C1202 C1203 1.369 . S
C1202 C1206 1.531 . S
C1203 C1202 1.369 . S
C1203 C1204 1.410 . S
C1203 C1211 1.503 . S
C1204 C1203 1.410 . S
C1204 C1205 1.392 . S
C1204 C1207 1.511 . S
C1205 C1201 1.376 . S
C1205 C1204 1.392 . S
C1205 H1217 0.929 . S
C1206 C1202 1.531 . S
C1206 H1218 0.960 . S
C1206 H1219 0.962 . S
C1206 H1220 0.960 . S
C1207 C1204 1.511 . S
C1207 H1221 0.961 . S
C1207 H1222 0.961 . S
C1207 H1223 0.961 . S
C1208 C1209 1.370 . S
C1208 C1210 1.363 . S
C1208 H1224 0.931 . S
C1209 C1208 1.370 . S
C1209 C1213 1.408 . S
C1210 C1208 1.363 . S
C1210 C1211 1.370 . S
C1210 C1214 1.524 . S
C1211 C1203 1.503 . S
C1211 C1210 1.370 . S
C1211 C1212 1.403 . S
C1212 C1211 1.403 . S
C1212 C1213 1.404 . S
C1212 C1215 1.539 . S
C1213 C1209 1.408 . S
C1213 C1212 1.404 . S
C1213 H1225 0.930 . S
C1214 C1210 1.524 . S
C1214 H1226 0.956 . S
C1214 H1227 0.961 . S
C1214 H1228 0.961 . S
C1215 C1212 1.539 . S
C1215 H1229 0.958 . S
C1215 H1230 0.961 . S
C1215 H1231 0.960 . S
H1216 C1200 0.931 . S
H1217 C1205 0.929 . S
H1218 C1206 0.960 . S
H1219 C1206 0.962 . S
H1220 C1206 0.960 . S
H1221 C1207 0.961 . S
H1222 C1207 0.961 . S
H1223 C1207 0.961 . S
H1224 C1208 0.931 . S
H1225 C1213 0.930 . S
H1226 C1214 0.956 . S
H1227 C1214 0.961 . S
H1228 C1214 0.961 . S
H1229 C1215 0.958 . S
H1230 C1215 0.961 . S
H1231 C1215 0.960 . S
C1232 C1233 1.391 . S
C1232 C1234 1.394 . S
C1232 H1248 0.931 . S
C1233 C1232 1.391 . S
C1233 C1237 1.376 . S
C1234 C1232 1.394 . S
C1234 C1235 1.369 . S
C1234 C1238 1.531 . S
C1235 C1234 1.369 . S
C1235 C1236 1.410 . S
C1235 C1243 1.503 . S
C1236 C1235 1.410 . S
C1236 C1237 1.392 . S
C1236 C1239 1.511 . S
C1237 C1233 1.376 . S
C1237 C1236 1.392 . S
C1237 H1249 0.929 . S
C1238 C1234 1.531 . S
C1238 H1250 0.960 . S
C1238 H1251 0.962 . S
C1238 H1252 0.960 . S
C1239 C1236 1.511 . S
C1239 H1253 0.961 . S
C1239 H1254 0.961 . S
C1239 H1255 0.961 . S
C1240 C1241 1.370 . S
C1240 C1242 1.363 . S
C1240 H1256 0.931 . S
C1241 C1240 1.370 . S
C1241 C1245 1.408 . S
C1242 C1240 1.363 . S
C1242 C1243 1.370 . S
C1242 C1246 1.524 . S
C1243 C1235 1.503 . S
C1243 C1242 1.370 . S
C1243 C1244 1.403 . S
C1244 C1243 1.403 . S
C1244 C1245 1.404 . S
C1244 C1247 1.539 . S
C1245 C1241 1.408 . S
C1245 C1244 1.404 . S
C1245 H1257 0.930 . S
C1246 C1242 1.524 . S
C1246 H1258 0.956 . S
C1246 H1259 0.961 . S
C1246 H1260 0.961 . S
C1247 C1244 1.539 . S
C1247 H1261 0.958 . S
C1247 H1262 0.961 . S
C1247 H1263 0.960 . S
H1248 C1232 0.931 . S
H1249 C1237 0.929 . S
H1250 C1238 0.960 . S
H1251 C1238 0.962 . S
H1252 C1238 0.960 . S
H1253 C1239 0.961 . S
H1254 C1239 0.961 . S
H1255 C1239 0.961 . S
H1256 C1240 0.931 . S
H1257 C1245 0.930 . S
H1258 C1246 0.956 . S
H1259 C1246 0.961 . S
H1260 C1246 0.961 . S
H1261 C1247 0.958 . S
H1262 C1247 0.961 . S
H1263 C1247 0.960 . S
C1264 C1265 1.391 . S
C1264 C1266 1.394 . S
C1264 H1280 0.931 . S
C1265 C1264 1.391 . S
C1265 C1269 1.376 . S
C1266 C1264 1.394 . S
C1266 C1267 1.369 . S
C1266 C1270 1.531 . S
C1267 C1266 1.369 . S
C1267 C1268 1.410 . S
C1267 C1275 1.503 . S
C1268 C1267 1.410 . S
C1268 C1269 1.392 . S
C1268 C1271 1.511 . S
C1269 C1265 1.376 . S
C1269 C1268 1.392 . S
C1269 H1281 0.929 . S
C1270 C1266 1.531 . S
C1270 H1282 0.960 . S
C1270 H1283 0.962 . S
C1270 H1284 0.960 . S
C1271 C1268 1.511 . S
C1271 H1285 0.961 . S
C1271 H1286 0.961 . S
C1271 H1287 0.961 . S
C1272 C1273 1.370 . S
C1272 C1274 1.363 . S
C1272 H1288 0.931 . S
C1273 C1272 1.370 . S
C1273 C1277 1.408 . S
C1274 C1272 1.363 . S
C1274 C1275 1.370 . S
C1274 C1278 1.524 . S
C1275 C1267 1.503 . S
C1275 C1274 1.370 . S
C1275 C1276 1.403 . S
C1276 C1275 1.403 . S
C1276 C1277 1.404 . S
C1276 C1279 1.539 . S
C1277 C1273 1.408 . S
C1277 C1276 1.404 . S
C1277 H1289 0.930 . S
C1278 C1274 1.524 . S
C1278 H1290 0.956 . S
C1278 H1291 0.961 . S
C1278 H1292 0.961 . S
C1279 C1276 1.539 . S
C1279 H1293 0.958 . S
C1279 H1294 0.961 . S
C1279 H1295 0.960 . S
H1280 C1264 0.931 . S
H1281 C1269 0.929 . S
H1282 C1270 0.960 . S
H1283 C1270 0.962 . S
H1284 C1270 0.960 . S
H1285 C1271 0.961 . S
H1286 C1271 0.961 . S
H1287 C1271 0.961 . S
H1288 C1272 0.931 . S
H1289 C1277 0.930 . S
H1290 C1278 0.956 . S
H1291 C1278 0.961 . S
H1292 C1278 0.961 . S
H1293 C1279 0.958 . S
H1294 C1279 0.961 . S
H1295 C1279 0.960 . S
C1296 C1297 1.391 . S
C1296 C1298 1.394 . S
C1296 H1312 0.931 . S
C1297 C1296 1.391 . S
C1297 C1301 1.376 . S
C1298 C1296 1.394 . S
C1298 C1299 1.369 . S
C1298 C1302 1.531 . S
C1299 C1298 1.369 . S
C1299 C1300 1.410 . S
C1299 C1307 1.503 . S
C1300 C1299 1.410 . S
C1300 C1301 1.392 . S
C1300 C1303 1.511 . S
C1301 C1297 1.376 . S
C1301 C1300 1.392 . S
C1301 H1313 0.929 . S
C1302 C1298 1.531 . S
C1302 H1314 0.960 . S
C1302 H1315 0.962 . S
C1302 H1316 0.960 . S
C1303 C1300 1.511 . S
C1303 H1317 0.961 . S
C1303 H1318 0.961 . S
C1303 H1319 0.961 . S
C1304 C1305 1.370 . S
C1304 C1306 1.363 . S
C1304 H1320 0.931 . S
C1305 C1304 1.370 . S
C1305 C1309 1.408 . S
C1306 C1304 1.363 . S
C1306 C1307 1.370 . S
C1306 C1310 1.524 . S
C1307 C1299 1.503 . S
C1307 C1306 1.370 . S
C1307 C1308 1.403 . S
C1308 C1307 1.403 . S
C1308 C1309 1.404 . S
C1308 C1311 1.539 . S
C1309 C1305 1.408 . S
C1309 C1308 1.404 . S
C1309 H1321 0.930 . S
C1310 C1306 1.524 . S
C1310 H1322 0.956 . S
C1310 H1323 0.961 . S
C1310 H1324 0.961 . S
C1311 C1308 1.539 . S
C1311 H1325 0.958 . S
C1311 H1326 0.961 . S
C1311 H1327 0.960 . S
H1312 C1296 0.931 . S
H1313 C1301 0.929 . S
H1314 C1302 0.960 . S
H1315 C1302 0.962 . S
H1316 C1302 0.960 . S
H1317 C1303 0.961 . S
H1318 C1303 0.961 . S
H1319 C1303 0.961 . S
H1320 C1304 0.931 . S
H1321 C1309 0.930 . S
H1322 C1310 0.956 . S
H1323 C1310 0.961 . S
H1324 C1310 0.961 . S
H1325 C1311 0.958 . S
H1326 C1311 0.961 . S
H1327 C1311 0.960 . S
C1328 C1329 1.391 . S
C1328 C1330 1.394 . S
C1328 H1344 0.931 . S
C1329 C1328 1.391 . S
C1329 C1333 1.376 . S
C1330 C1328 1.394 . S
C1330 C1331 1.369 . S
C1330 C1334 1.531 . S
C1331 C1330 1.369 . S
C1331 C1332 1.410 . S
C1331 C1339 1.503 . S
C1332 C1331 1.410 . S
C1332 C1333 1.392 . S
C1332 C1335 1.511 . S
C1333 C1329 1.376 . S
C1333 C1332 1.392 . S
C1333 H1345 0.929 . S
C1334 C1330 1.531 . S
C1334 H1346 0.960 . S
C1334 H1347 0.962 . S
C1334 H1348 0.960 . S
C1335 C1332 1.511 . S
C1335 H1349 0.961 . S
C1335 H1350 0.961 . S
C1335 H1351 0.961 . S
C1336 C1337 1.370 . S
C1336 C1338 1.363 . S
C1336 H1352 0.931 . S
C1337 C1336 1.370 . S
C1337 C1341 1.408 . S
C1338 C1336 1.363 . S
C1338 C1339 1.370 . S
C1338 C1342 1.524 . S
C1339 C1331 1.503 . S
C1339 C1338 1.370 . S
C1339 C1340 1.403 . S
C1340 C1339 1.403 . S
C1340 C1341 1.404 . S
C1340 C1343 1.539 . S
C1341 C1337 1.408 . S
C1341 C1340 1.404 . S
C1341 H1353 0.930 . S
C1342 C1338 1.524 . S
C1342 H1354 0.956 . S
C1342 H1355 0.961 . S
C1342 H1356 0.961 . S
C1343 C1340 1.539 . S
C1343 H1357 0.958 . S
C1343 H1358 0.961 . S
C1343 H1359 0.960 . S
H1344 C1328 0.931 . S
H1345 C1333 0.929 . S
H1346 C1334 0.960 . S
H1347 C1334 0.962 . S
H1348 C1334 0.960 . S
H1349 C1335 0.961 . S
H1350 C1335 0.961 . S
H1351 C1335 0.961 . S
H1352 C1336 0.931 . S
H1353 C1341 0.930 . S
H1354 C1342 0.956 . S
H1355 C1342 0.961 . S
H1356 C1342 0.961 . S
H1357 C1343 0.958 . S
H1358 C1343 0.961 . S
H1359 C1343 0.960 . S
C1360 C1361 1.391 . S
C1360 C1362 1.394 . S
C1360 H1376 0.931 . S
C1361 C1360 1.391 . S
C1361 C1365 1.376 . S
C1362 C1360 1.394 . S
C1362 C1363 1.369 . S
C1362 C1366 1.531 . S
C1363 C1362 1.369 . S
C1363 C1364 1.410 . S
C1363 C1371 1.503 . S
C1364 C1363 1.410 . S
C1364 C1365 1.392 . S
C1364 C1367 1.511 . S
C1365 C1361 1.376 . S
C1365 C1364 1.392 . S
C1365 H1377 0.929 . S
C1366 C1362 1.531 . S
C1366 H1378 0.960 . S
C1366 H1379 0.962 . S
C1366 H1380 0.960 . S
C1367 C1364 1.511 . S
C1367 H1381 0.961 . S
C1367 H1382 0.961 . S
C1367 H1383 0.961 . S
C1368 C1369 1.370 . S
C1368 C1370 1.363 . S
C1368 H1384 0.931 . S
C1369 C1368 1.370 . S
C1369 C1373 1.408 . S
C1370 C1368 1.363 . S
C1370 C1371 1.370 . S
C1370 C1374 1.524 . S
C1371 C1363 1.503 . S
C1371 C1370 1.370 . S
C1371 C1372 1.403 . S
C1372 C1371 1.403 . S
C1372 C1373 1.404 . S
C1372 C1375 1.539 . S
C1373 C1369 1.408 . S
C1373 C1372 1.404 . S
C1373 H1385 0.930 . S
C1374 C1370 1.524 . S
C1374 H1386 0.956 . S
C1374 H1387 0.961 . S
C1374 H1388 0.961 . S
C1375 C1372 1.539 . S
C1375 H1389 0.958 . S
C1375 H1390 0.961 . S
C1375 H1391 0.960 . S
H1376 C1360 0.931 . S
H1377 C1365 0.929 . S
H1378 C1366 0.960 . S
H1379 C1366 0.962 . S
H1380 C1366 0.960 . S
H1381 C1367 0.961 . S
H1382 C1367 0.961 . S
H1383 C1367 0.961 . S
H1384 C1368 0.931 . S
H1385 C1373 0.930 . S
H1386 C1374 0.956 . S
H1387 C1374 0.961 . S
H1388 C1374 0.961 . S
H1389 C1375 0.958 . S
H1390 C1375 0.961 . S
H1391 C1375 0.960 . S
C1392 C1393 1.391 . S
C1392 C1394 1.394 . S
C1392 H1408 0.931 . S
C1393 C1392 1.391 . S
C1393 C1397 1.376 . S
C1394 C1392 1.394 . S
C1394 C1395 1.369 . S
C1394 C1398 1.531 . S
C1395 C1394 1.369 . S
C1395 C1396 1.410 . S
C1395 C1403 1.503 . S
C1396 C1395 1.410 . S
C1396 C1397 1.392 . S
C1396 C1399 1.511 . S
C1397 C1393 1.376 . S
C1397 C1396 1.392 . S
C1397 H1409 0.929 . S
C1398 C1394 1.531 . S
C1398 H1410 0.960 . S
C1398 H1411 0.962 . S
C1398 H1412 0.960 . S
C1399 C1396 1.511 . S
C1399 H1413 0.961 . S
C1399 H1414 0.961 . S
C1399 H1415 0.961 . S
C1400 C1401 1.370 . S
C1400 C1402 1.363 . S
C1400 H1416 0.931 . S
C1401 C1400 1.370 . S
C1401 C1405 1.408 . S
C1402 C1400 1.363 . S
C1402 C1403 1.370 . S
C1402 C1406 1.524 . S
C1403 C1395 1.503 . S
C1403 C1402 1.370 . S
C1403 C1404 1.403 . S
C1404 C1403 1.403 . S
C1404 C1405 1.404 . S
C1404 C1407 1.539 . S
C1405 C1401 1.408 . S
C1405 C1404 1.404 . S
C1405 H1417 0.930 . S
C1406 C1402 1.524 . S
C1406 H1418 0.956 . S
C1406 H1419 0.961 . S
C1406 H1420 0.961 . S
C1407 C1404 1.539 . S
C1407 H1421 0.958 . S
C1407 H1422 0.961 . S
C1407 H1423 0.960 . S
H1408 C1392 0.931 . S
H1409 C1397 0.929 . S
H1410 C1398 0.960 . S
H1411 C1398 0.962 . S
H1412 C1398 0.960 . S
H1413 C1399 0.961 . S
H1414 C1399 0.961 . S
H1415 C1399 0.961 . S
H1416 C1400 0.931 . S
H1417 C1405 0.930 . S
H1418 C1406 0.956 . S
H1419 C1406 0.961 . S
H1420 C1406 0.961 . S
H1421 C1407 0.958 . S
H1422 C1407 0.961 . S
H1423 C1407 0.960 . S
C1424 C1425 1.391 . S
C1424 C1426 1.394 . S
C1424 H1440 0.931 . S
C1425 C1424 1.391 . S
C1425 C1429 1.376 . S
C1426 C1424 1.394 . S
C1426 C1427 1.369 . S
C1426 C1430 1.531 . S
C1427 C1426 1.369 . S
C1427 C1428 1.410 . S
C1427 C1435 1.503 . S
C1428 C1427 1.410 . S
C1428 C1429 1.392 . S
C1428 C1431 1.511 . S
C1429 C1425 1.376 . S
C1429 C1428 1.392 . S
C1429 H1441 0.929 . S
C1430 C1426 1.531 . S
C1430 H1442 0.960 . S
C1430 H1443 0.962 . S
C1430 H1444 0.960 . S
C1431 C1428 1.511 . S
C1431 H1445 0.961 . S
C1431 H1446 0.961 . S
C1431 H1447 0.961 . S
C1432 C1433 1.370 . S
C1432 C1434 1.363 . S
C1432 H1448 0.931 . S
C1433 C1432 1.370 . S
C1433 C1437 1.408 . S
C1434 C1432 1.363 . S
C1434 C1435 1.370 . S
C1434 C1438 1.524 . S
C1435 C1427 1.503 . S
C1435 C1434 1.370 . S
C1435 C1436 1.403 . S
C1436 C1435 1.403 . S
C1436 C1437 1.404 . S
C1436 C1439 1.539 . S
C1437 C1433 1.408 . S
C1437 C1436 1.404 . S
C1437 H1449 0.930 . S
C1438 C1434 1.524 . S
C1438 H1450 0.956 . S
C1438 H1451 0.961 . S
C1438 H1452 0.961 . S
C1439 C1436 1.539 . S
C1439 H1453 0.958 . S
C1439 H1454 0.961 . S
C1439 H1455 0.960 . S
H1440 C1424 0.931 . S
H1441 C1429 0.929 . S
H1442 C1430 0.960 . S
H1443 C1430 0.962 . S
H1444 C1430 0.960 . S
H1445 C1431 0.961 . S
H1446 C1431 0.961 . S
H1447 C1431 0.961 . S
H1448 C1432 0.931 . S
H1449 C1437 0.930 . S
H1450 C1438 0.956 . S
H1451 C1438 0.961 . S
H1452 C1438 0.961 . S
H1453 C1439 0.958 . S
H1454 C1439 0.961 . S
H1455 C1439 0.960 . S
C1456 C1457 1.391 . S
C1456 C1458 1.394 . S
C1456 H1472 0.931 . S
C1457 C1456 1.391 . S
C1457 C1461 1.376 . S
C1458 C1456 1.394 . S
C1458 C1459 1.369 . S
C1458 C1462 1.531 . S
C1459 C1458 1.369 . S
C1459 C1460 1.410 . S
C1459 C1467 1.503 . S
C1460 C1459 1.410 . S
C1460 C1461 1.392 . S
C1460 C1463 1.511 . S
C1461 C1457 1.376 . S
C1461 C1460 1.392 . S
C1461 H1473 0.929 . S
C1462 C1458 1.531 . S
C1462 H1474 0.960 . S
C1462 H1475 0.962 . S
C1462 H1476 0.960 . S
C1463 C1460 1.511 . S
C1463 H1477 0.961 . S
C1463 H1478 0.961 . S
C1463 H1479 0.961 . S
C1464 C1465 1.370 . S
C1464 C1466 1.363 . S
C1464 H1480 0.931 . S
C1465 C1464 1.370 . S
C1465 C1469 1.408 . S
C1466 C1464 1.363 . S
C1466 C1467 1.370 . S
C1466 C1470 1.524 . S
C1467 C1459 1.503 . S
C1467 C1466 1.370 . S
C1467 C1468 1.403 . S
C1468 C1467 1.403 . S
C1468 C1469 1.404 . S
C1468 C1471 1.539 . S
C1469 C1465 1.408 . S
C1469 C1468 1.404 . S
C1469 H1481 0.930 . S
C1470 C1466 1.524 . S
C1470 H1482 0.956 . S
C1470 H1483 0.961 . S
C1470 H1484 0.961 . S
C1471 C1468 1.539 . S
C1471 H1485 0.958 . S
C1471 H1486 0.961 . S
C1471 H1487 0.960 . S
H1472 C1456 0.931 . S
H1473 C1461 0.929 . S
H1474 C1462 0.960 . S
H1475 C1462 0.962 . S
H1476 C1462 0.960 . S
H1477 C1463 0.961 . S
H1478 C1463 0.961 . S
H1479 C1463 0.961 . S
H1480 C1464 0.931 . S
H1481 C1469 0.930 . S
H1482 C1470 0.956 . S
H1483 C1470 0.961 . S
H1484 C1470 0.961 . S
H1485 C1471 0.958 . S
H1486 C1471 0.961 . S
H1487 C1471 0.960 . S
C1488 C1489 1.391 . S
C1488 C1490 1.394 . S
C1488 H1504 0.931 . S
C1489 C1488 1.391 . S
C1489 C1493 1.376 . S
C1490 C1488 1.394 . S
C1490 C1491 1.369 . S
C1490 C1494 1.531 . S
C1491 C1490 1.369 . S
C1491 C1492 1.410 . S
C1491 C1499 1.503 . S
C1492 C1491 1.410 . S
C1492 C1493 1.392 . S
C1492 C1495 1.511 . S
C1493 C1489 1.376 . S
C1493 C1492 1.392 . S
C1493 H1505 0.929 . S
C1494 C1490 1.531 . S
C1494 H1506 0.960 . S
C1494 H1507 0.962 . S
C1494 H1508 0.960 . S
C1495 C1492 1.511 . S
C1495 H1509 0.961 . S
C1495 H1510 0.961 . S
C1495 H1511 0.961 . S
C1496 C1497 1.370 . S
C1496 C1498 1.363 . S
C1496 H1512 0.931 . S
C1497 C1496 1.370 . S
C1497 C1501 1.408 . S
C1498 C1496 1.363 . S
C1498 C1499 1.370 . S
C1498 C1502 1.524 . S
C1499 C1491 1.503 . S
C1499 C1498 1.370 . S
C1499 C1500 1.403 . S
C1500 C1499 1.403 . S
C1500 C1501 1.404 . S
C1500 C1503 1.539 . S
C1501 C1497 1.408 . S
C1501 C1500 1.404 . S
C1501 H1513 0.930 . S
C1502 C1498 1.524 . S
C1502 H1514 0.956 . S
C1502 H1515 0.961 . S
C1502 H1516 0.961 . S
C1503 C1500 1.539 . S
C1503 H1517 0.958 . S
C1503 H1518 0.961 . S
C1503 H1519 0.960 . S
H1504 C1488 0.931 . S
H1505 C1493 0.929 . S
H1506 C1494 0.960 . S
H1507 C1494 0.962 . S
H1508 C1494 0.960 . S
H1509 C1495 0.961 . S
H1510 C1495 0.961 . S
H1511 C1495 0.961 . S
H1512 C1496 0.931 . S
H1513 C1501 0.930 . S
H1514 C1502 0.956 . S
H1515 C1502 0.961 . S
H1516 C1502 0.961 . S
H1517 C1503 0.958 . S
H1518 C1503 0.961 . S
H1519 C1503 0.960 . S
C1520 C1521 1.391 . S
C1520 C1522 1.394 . S
C1520 H1536 0.931 . S
C1521 C1520 1.391 . S
C1521 C1525 1.376 . S
C1522 C1520 1.394 . S
C1522 C1523 1.369 . S
C1522 C1526 1.531 . S
C1523 C1522 1.369 . S
C1523 C1524 1.410 . S
C1523 C1531 1.503 . S
C1524 C1523 1.410 . S
C1524 C1525 1.392 . S
C1524 C1527 1.511 . S
C1525 C1521 1.376 . S
C1525 C1524 1.392 . S
C1525 H1537 0.929 . S
C1526 C1522 1.531 . S
C1526 H1538 0.960 . S
C1526 H1539 0.962 . S
C1526 H1540 0.960 . S
C1527 C1524 1.511 . S
C1527 H1541 0.961 . S
C1527 H1542 0.961 . S
C1527 H1543 0.961 . S
C1528 C1529 1.370 . S
C1528 C1530 1.363 . S
C1528 H1544 0.931 . S
C1529 C1528 1.370 . S
C1529 C1533 1.408 . S
C1530 C1528 1.363 . S
C1530 C1531 1.370 . S
C1530 C1534 1.524 . S
C1531 C1523 1.503 . S
C1531 C1530 1.370 . S
C1531 C1532 1.403 . S
C1532 C1531 1.403 . S
C1532 C1533 1.404 . S
C1532 C1535 1.539 . S
C1533 C1529 1.408 . S
C1533 C1532 1.404 . S
C1533 H1545 0.930 . S
C1534 C1530 1.524 . S
C1534 H1546 0.956 . S
C1534 H1547 0.961 . S
C1534 H1548 0.961 . S
C1535 C1532 1.539 . S
C1535 H1549 0.958 . S
C1535 H1550 0.961 . S
C1535 H1551 0.960 . S
H1536 C1520 0.931 . S
H1537 C1525 0.929 . S
H1538 C1526 0.960 . S
H1539 C1526 0.962 . S
H1540 C1526 0.960 . S
H1541 C1527 0.961 . S
H1542 C1527 0.961 . S
H1543 C1527 0.961 . S
H1544 C1528 0.931 . S
H1545 C1533 0.930 . S
H1546 C1534 0.956 . S
H1547 C1534 0.961 . S
H1548 C1534 0.961 . S
H1549 C1535 0.958 . S
H1550 C1535 0.961 . S
H1551 C1535 0.960 . S
C1552 C1553 1.391 . S
C1552 C1554 1.394 . S
C1552 H1568 0.931 . S
C1553 C1552 1.391 . S
C1553 C1557 1.376 . S
C1554 C1552 1.394 . S
C1554 C1555 1.369 . S
C1554 C1558 1.531 . S
C1555 C1554 1.369 . S
C1555 C1556 1.410 . S
C1555 C1563 1.503 . S
C1556 C1555 1.410 . S
C1556 C1557 1.392 . S
C1556 C1559 1.511 . S
C1557 C1553 1.376 . S
C1557 C1556 1.392 . S
C1557 H1569 0.929 . S
C1558 C1554 1.531 . S
C1558 H1570 0.960 . S
C1558 H1571 0.962 . S
C1558 H1572 0.960 . S
C1559 C1556 1.511 . S
C1559 H1573 0.961 . S
C1559 H1574 0.961 . S
C1559 H1575 0.961 . S
C1560 C1561 1.370 . S
C1560 C1562 1.363 . S
C1560 H1576 0.931 . S
C1561 C1560 1.370 . S
C1561 C1565 1.408 . S
C1562 C1560 1.363 . S
C1562 C1563 1.370 . S
C1562 C1566 1.524 . S
C1563 C1555 1.503 . S
C1563 C1562 1.370 . S
C1563 C1564 1.403 . S
C1564 C1563 1.403 . S
C1564 C1565 1.404 . S
C1564 C1567 1.539 . S
C1565 C1561 1.408 . S
C1565 C1564 1.404 . S
C1565 H1577 0.930 . S
C1566 C1562 1.524 . S
C1566 H1578 0.956 . S
C1566 H1579 0.961 . S
C1566 H1580 0.961 . S
C1567 C1564 1.539 . S
C1567 H1581 0.958 . S
C1567 H1582 0.961 . S
C1567 H1583 0.960 . S
H1568 C1552 0.931 . S
H1569 C1557 0.929 . S
H1570 C1558 0.960 . S
H1571 C1558 0.962 . S
H1572 C1558 0.960 . S
H1573 C1559 0.961 . S
H1574 C1559 0.961 . S
H1575 C1559 0.961 . S
H1576 C1560 0.931 . S
H1577 C1565 0.930 . S
H1578 C1566 0.956 . S
H1579 C1566 0.961 . S
H1580 C1566 0.961 . S
H1581 C1567 0.958 . S
H1582 C1567 0.961 . S
H1583 C1567 0.960 . S
C1584 C1585 1.391 . S
C1584 C1586 1.394 . S
C1584 H1600 0.931 . S
C1585 C1584 1.391 . S
C1585 C1589 1.376 . S
C1586 C1584 1.394 . S
C1586 C1587 1.369 . S
C1586 C1590 1.531 . S
C1587 C1586 1.369 . S
C1587 C1588 1.410 . S
C1587 C1595 1.503 . S
C1588 C1587 1.410 . S
C1588 C1589 1.392 . S
C1588 C1591 1.511 . S
C1589 C1585 1.376 . S
C1589 C1588 1.392 . S
C1589 H1601 0.929 . S
C1590 C1586 1.531 . S
C1590 H1602 0.960 . S
C1590 H1603 0.962 . S
C1590 H1604 0.960 . S
C1591 C1588 1.511 . S
C1591 H1605 0.961 . S
C1591 H1606 0.961 . S
C1591 H1607 0.961 . S
C1592 C1593 1.370 . S
C1592 C1594 1.363 . S
C1592 H1608 0.931 . S
C1593 C1592 1.370 . S
C1593 C1597 1.408 . S
C1594 C1592 1.363 . S
C1594 C1595 1.370 . S
C1594 C1598 1.524 . S
C1595 C1587 1.503 . S
C1595 C1594 1.370 . S
C1595 C1596 1.403 . S
C1596 C1595 1.403 . S
C1596 C1597 1.404 . S
C1596 C1599 1.539 . S
C1597 C1593 1.408 . S
C1597 C1596 1.404 . S
C1597 H1609 0.930 . S
C1598 C1594 1.524 . S
C1598 H1610 0.956 . S
C1598 H1611 0.961 . S
C1598 H1612 0.961 . S
C1599 C1596 1.539 . S
C1599 H1613 0.958 . S
C1599 H1614 0.961 . S
C1599 H1615 0.960 . S
H1600 C1584 0.931 . S
H1601 C1589 0.929 . S
H1602 C1590 0.960 . S
H1603 C1590 0.962 . S
H1604 C1590 0.960 . S
H1605 C1591 0.961 . S
H1606 C1591 0.961 . S
H1607 C1591 0.961 . S
H1608 C1592 0.931 . S
H1609 C1597 0.930 . S
H1610 C1598 0.956 . S
H1611 C1598 0.961 . S
H1612 C1598 0.961 . S
H1613 C1599 0.958 . S
H1614 C1599 0.961 . S
H1615 C1599 0.960 . S
C1616 C1617 1.391 . S
C1616 C1618 1.394 . S
C1616 H1632 0.931 . S
C1617 C1616 1.391 . S
C1617 C1621 1.376 . S
C1618 C1616 1.394 . S
C1618 C1619 1.369 . S
C1618 C1622 1.531 . S
C1619 C1618 1.369 . S
C1619 C1620 1.410 1_655 S
C1619 C1627 1.500 1_665 S
C1620 C1619 1.410 1_455 S
C1620 C1621 1.392 1_455 S
C1620 C1623 1.511 . S
C1621 C1617 1.376 . S
C1621 C1620 1.392 1_655 S
C1621 H1633 0.929 1_655 S
C1622 C1618 1.531 . S
C1622 H1634 0.960 1_565 S
C1622 H1635 0.962 . S
C1622 H1636 0.960 . S
C1623 C1620 1.511 . S
C1623 H1637 0.961 . S
C1623 H1638 0.961 . S
C1623 H1639 0.961 . S
C1624 C1625 1.370 . S
C1624 C1626 1.363 . S
C1624 H1640 0.931 . S
C1625 C1624 1.370 . S
C1625 C1629 1.408 1_455 S
C1626 C1624 1.363 . S
C1626 C1627 1.378 . S
C1626 C1630 1.524 . S
C1627 C1619 1.500 1_445 S
C1627 C1626 1.378 . S
C1627 C1628 1.398 1_455 S
C1628 C1627 1.398 1_655 S
C1628 C1629 1.404 . S
C1628 C1631 1.539 . S
C1629 C1625 1.408 1_655 S
C1629 C1628 1.404 . S
C1629 H1641 0.930 . S
C1630 C1626 1.524 . S
C1630 H1642 0.956 1_545 S
C1630 H1643 0.961 1_545 S
C1630 H1644 0.961 . S
C1631 C1628 1.539 . S
C1631 H1645 0.958 . S
C1631 H1646 0.961 . S
C1631 H1647 0.960 . S
H1632 C1616 0.931 . S
H1633 C1621 0.929 1_455 S
H1634 C1622 0.960 1_545 S
H1635 C1622 0.962 . S
H1636 C1622 0.960 . S
H1637 C1623 0.961 . S
H1638 C1623 0.961 . S
H1639 C1623 0.961 . S
H1640 C1624 0.931 . S
H1641 C1629 0.930 . S
H1642 C1630 0.956 1_565 S
H1643 C1630 0.961 1_565 S
H1644 C1630 0.961 . S
H1645 C1631 0.958 . S
H1646 C1631 0.961 . S
H1647 C1631 0.960 . S
C1648 C1649 1.391 1_565 S
C1648 C1650 1.394 . S
C1648 H1664 0.931 . S
C1649 C1648 1.391 1_545 S
C1649 C1653 1.376 . S
C1650 C1648 1.394 . S
C1650 C1651 1.369 1_565 S
C1650 C1654 1.531 . S
C1651 C1650 1.369 1_545 S
C1651 C1652 1.410 . S
C1651 C1659 1.503 1_645 S
C1652 C1651 1.410 . S
C1652 C1653 1.392 . S
C1652 C1655 1.533 . S
C1653 C1649 1.376 . S
C1653 C1652 1.392 . S
C1653 H1665 0.929 . S
C1654 C1650 1.531 . S
C1654 H1666 0.960 . S
C1654 H1667 0.962 . S
C1654 H1668 0.960 . S
C1655 C1652 1.533 . S
C1655 H1669 0.971 . S
C1655 H1670 0.935 1_655 S
C1655 H1671 0.955 1_655 S
C1656 C1657 1.370 . S
C1656 C1658 1.363 . S
C1656 H1672 0.931 . S
C1657 C1656 1.370 . S
C1657 C1661 1.408 . S
C1658 C1656 1.363 . S
C1658 C1659 1.370 . S
C1658 C1662 1.521 1_565 S
C1659 C1651 1.503 1_465 S
C1659 C1658 1.370 . S
C1659 C1660 1.403 . S
C1660 C1659 1.403 . S
C1660 C1661 1.404 . S
C1660 C1663 1.539 . S
C1661 C1657 1.408 . S
C1661 C1660 1.404 . S
C1661 H1673 0.930 . S
C1662 C1658 1.521 1_545 S
C1662 H1674 0.944 1_445 S
C1662 H1675 0.977 . S
C1662 H1676 0.961 . S
C1663 C1660 1.539 . S
C1663 H1677 0.958 . S
C1663 H1678 0.961 . S
C1663 H1679 0.960 1_565 S
H1664 C1648 0.931 . S
H1665 C1653 0.929 . S
H1666 C1654 0.960 . S
H1667 C1654 0.962 . S
H1668 C1654 0.960 . S
H1669 C1655 0.971 . S
H1670 C1655 0.935 1_455 S
H1671 C1655 0.955 1_455 S
H1672 C1656 0.931 . S
H1673 C1661 0.930 . S
H1674 C1662 0.944 1_665 S
H1675 C1662 0.977 . S
H1676 C1662 0.961 . S
H1677 C1663 0.958 . S
H1678 C1663 0.961 . S
H1679 C1663 0.960 1_545 S
C1680 C1681 1.391 1_655 S
C1680 C1682 1.394 . S
C1680 H1696 0.931 . S
C1681 C1680 1.391 1_455 S
C1681 C1685 1.376 . S
C1682 C1680 1.394 . S
C1682 C1683 1.369 1_655 S
C1682 C1686 1.531 . S
C1683 C1682 1.369 1_455 S
C1683 C1684 1.410 . S
C1683 C1691 1.503 1_455 S
C1684 C1683 1.410 . S
C1684 C1685 1.392 . S
C1684 C1687 1.511 . S
C1685 C1681 1.376 . S
C1685 C1684 1.392 . S
C1685 H1697 0.929 . S
C1686 C1682 1.531 . S
C1686 H1698 0.960 . S
C1686 H1699 0.962 . S
C1686 H1700 0.960 . S
C1687 C1684 1.511 . S
C1687 H1701 0.961 . S
C1687 H1702 0.961 . S
C1687 H1703 0.961 . S
C1688 C1689 1.370 . S
C1688 C1690 1.363 . S
C1688 H1704 0.931 . S
C1689 C1688 1.370 . S
C1689 C1693 1.408 . S
C1690 C1688 1.363 . S
C1690 C1691 1.370 . S
C1690 C1694 1.524 . S
C1691 C1683 1.503 1_655 S
C1691 C1690 1.370 . S
C1691 C1692 1.403 . S
C1692 C1691 1.403 . S
C1692 C1693 1.404 . S
C1692 C1695 1.539 . S
C1693 C1689 1.408 . S
C1693 C1692 1.404 . S
C1693 H1705 0.930 . S
C1694 C1690 1.524 . S
C1694 H1706 0.956 . S
C1694 H1707 0.961 1_655 S
C1694 H1708 0.961 . S
C1695 C1692 1.539 . S
C1695 H1709 0.958 . S
C1695 H1710 0.961 1_655 S
C1695 H1711 0.960 1_655 S
H1696 C1680 0.931 . S
H1697 C1685 0.929 . S
H1698 C1686 0.960 . S
H1699 C1686 0.962 . S
H1700 C1686 0.960 . S
H1701 C1687 0.961 . S
H1702 C1687 0.961 . S
H1703 C1687 0.961 . S
H1704 C1688 0.931 . S
H1705 C1693 0.930 . S
H1706 C1694 0.956 . S
H1707 C1694 0.961 1_455 S
H1708 C1694 0.961 . S
H1709 C1695 0.958 . S
H1710 C1695 0.961 1_455 S
H1711 C1695 0.960 1_455 S
C1712 C1713 1.391 . S
C1712 C1714 1.394 . S
C1712 H1728 0.931 . S
C1713 C1712 1.391 . S
C1713 C1717 1.376 . S
C1714 C1712 1.394 . S
C1714 C1715 1.369 . S
C1714 C1718 1.531 . S
C1715 C1714 1.369 . S
C1715 C1716 1.410 . S
C1715 C1723 1.504 . S
C1716 C1715 1.410 . S
C1716 C1717 1.392 . S
C1716 C1719 1.511 1_565 S
C1717 C1713 1.376 . S
C1717 C1716 1.392 . S
C1717 H1729 0.929 . S
C1718 C1714 1.531 . S
C1718 H1730 0.960 . S
C1718 H1731 0.962 . S
C1718 H1732 0.960 . S
C1719 C1716 1.511 1_545 S
C1719 H1733 0.961 . S
C1719 H1734 0.961 . S
C1719 H1735 0.961 1_545 S
C1720 C1721 1.370 . S
C1720 C1722 1.363 . S
C1720 H1736 0.931 . S
C1721 C1720 1.370 . S
C1721 C1725 1.408 1_545 S
C1722 C1720 1.363 . S
C1722 C1723 1.368 1_545 S
C1722 C1726 1.524 . S
C1723 C1715 1.504 . S
C1723 C1722 1.368 1_565 S
C1723 C1724 1.404 . S
C1724 C1723 1.404 . S
C1724 C1725 1.404 . S
C1724 C1727 1.539 . S
C1725 C1721 1.408 1_565 S
C1725 C1724 1.404 . S
C1725 H1737 0.930 . S
C1726 C1722 1.524 . S
C1726 H1738 0.956 . S
C1726 H1739 0.961 . S
C1726 H1740 0.961 . S
C1727 C1724 1.539 . S
C1727 H1741 0.958 . S
C1727 H1742 0.961 . S
C1727 H1743 0.960 . S
H1728 C1712 0.931 . S
H1729 C1717 0.929 . S
H1730 C1718 0.960 . S
H1731 C1718 0.962 . S
H1732 C1718 0.960 . S
H1733 C1719 0.961 . S
H1734 C1719 0.961 . S
H1735 C1719 0.961 1_565 S
H1736 C1720 0.931 . S
H1737 C1725 0.930 . S
H1738 C1726 0.956 . S
H1739 C1726 0.961 . S
H1740 C1726 0.961 . S
H1741 C1727 0.958 . S
H1742 C1727 0.961 . S
H1743 C1727 0.960 . S
C1744 C1745 1.391 . S
C1744 C1746 1.394 . S
C1744 H1760 0.931 . S
C1745 C1744 1.391 . S
C1745 C1749 1.376 . S
C1746 C1744 1.394 . S
C1746 C1747 1.369 . S
C1746 C1750 1.531 . S
C1747 C1746 1.369 . S
C1747 C1748 1.410 . S
C1747 C1755 1.503 . S
C1748 C1747 1.410 . S
C1748 C1749 1.392 . S
C1748 C1751 1.511 . S
C1749 C1745 1.376 . S
C1749 C1748 1.392 . S
C1749 H1761 0.929 . S
C1750 C1746 1.531 . S
C1750 H1762 0.960 . S
C1750 H1763 0.962 . S
C1750 H1764 0.960 . S
C1751 C1748 1.511 . S
C1751 H1765 0.961 . S
C1751 H1766 0.961 . S
C1751 H1767 0.961 . S
C1752 C1753 1.370 . S
C1752 C1754 1.363 . S
C1752 H1768 0.931 . S
C1753 C1752 1.370 . S
C1753 C1757 1.408 . S
C1754 C1752 1.363 . S
C1754 C1755 1.370 . S
C1754 C1758 1.524 . S
C1755 C1747 1.503 . S
C1755 C1754 1.370 . S
C1755 C1756 1.403 . S
C1756 C1755 1.403 . S
C1756 C1757 1.404 . S
C1756 C1759 1.539 . S
C1757 C1753 1.408 . S
C1757 C1756 1.404 . S
C1757 H1769 0.930 . S
C1758 C1754 1.524 . S
C1758 H1770 0.956 . S
C1758 H1771 0.961 . S
C1758 H1772 0.961 . S
C1759 C1756 1.539 . S
C1759 H1773 0.958 . S
C1759 H1774 0.961 . S
C1759 H1775 0.960 . S
H1760 C1744 0.931 . S
H1761 C1749 0.929 . S
H1762 C1750 0.960 . S
H1763 C1750 0.962 . S
H1764 C1750 0.960 . S
H1765 C1751 0.961 . S
H1766 C1751 0.961 . S
H1767 C1751 0.961 . S
H1768 C1752 0.931 . S
H1769 C1757 0.930 . S
H1770 C1758 0.956 . S
H1771 C1758 0.961 . S
H1772 C1758 0.961 . S
H1773 C1759 0.958 . S
H1774 C1759 0.961 . S
H1775 C1759 0.960 . S
C1776 C1777 1.391 . S
C1776 C1778 1.394 . S
C1776 H1792 0.931 . S
C1777 C1776 1.391 . S
C1777 C1781 1.376 . S
C1778 C1776 1.394 . S
C1778 C1779 1.369 . S
C1778 C1782 1.531 . S
C1779 C1778 1.369 . S
C1779 C1780 1.410 . S
C1779 C1787 1.503 . S
C1780 C1779 1.410 . S
C1780 C1781 1.392 . S
C1780 C1783 1.511 . S
C1781 C1777 1.376 . S
C1781 C1780 1.392 . S
C1781 H1793 0.929 . S
C1782 C1778 1.531 . S
C1782 H1794 0.960 . S
C1782 H1795 0.962 . S
C1782 H1796 0.960 . S
C1783 C1780 1.511 . S
C1783 H1797 0.961 . S
C1783 H1798 0.961 . S
C1783 H1799 0.961 . S
C1784 C1785 1.370 . S
C1784 C1786 1.363 . S
C1784 H1800 0.931 . S
C1785 C1784 1.370 . S
C1785 C1789 1.408 . S
C1786 C1784 1.363 . S
C1786 C1787 1.370 . S
C1786 C1790 1.524 . S
C1787 C1779 1.503 . S
C1787 C1786 1.370 . S
C1787 C1788 1.403 . S
C1788 C1787 1.403 . S
C1788 C1789 1.404 . S
C1788 C1791 1.539 . S
C1789 C1785 1.408 . S
C1789 C1788 1.404 . S
C1789 H1801 0.930 . S
C1790 C1786 1.524 . S
C1790 H1802 0.956 . S
C1790 H1803 0.961 . S
C1790 H1804 0.961 . S
C1791 C1788 1.539 . S
C1791 H1805 0.958 . S
C1791 H1806 0.961 . S
C1791 H1807 0.960 . S
H1792 C1776 0.931 . S
H1793 C1781 0.929 . S
H1794 C1782 0.960 . S
H1795 C1782 0.962 . S
H1796 C1782 0.960 . S
H1797 C1783 0.961 . S
H1798 C1783 0.961 . S
H1799 C1783 0.961 . S
H1800 C1784 0.931 . S
H1801 C1789 0.930 . S
H1802 C1790 0.956 . S
H1803 C1790 0.961 . S
H1804 C1790 0.961 . S
H1805 C1791 0.958 . S
H1806 C1791 0.961 . S
H1807 C1791 0.960 . S
C1808 C1809 1.391 . S
C1808 C1810 1.394 . S
C1808 H1824 0.931 . S
C1809 C1808 1.391 . S
C1809 C1813 1.376 . S
C1810 C1808 1.394 . S
C1810 C1811 1.369 . S
C1810 C1814 1.531 . S
C1811 C1810 1.369 . S
C1811 C1812 1.410 . S
C1811 C1819 1.503 1_545 S
C1812 C1811 1.410 . S
C1812 C1813 1.392 . S
C1812 C1815 1.523 . S
C1813 C1809 1.376 . S
C1813 C1812 1.392 . S
C1813 H1825 0.929 . S
C1814 C1810 1.531 . S
C1814 H1826 0.960 . S
C1814 H1827 0.962 . S
C1814 H1828 0.960 . S
C1815 C1812 1.523 . S
C1815 H1829 0.967 . S
C1815 H1830 0.947 1_545 S
C1815 H1831 0.956 1_545 S
C1816 C1817 1.370 . S
C1816 C1818 1.363 . S
C1816 H1832 0.931 . S
C1817 C1816 1.370 . S
C1817 C1821 1.408 . S
C1818 C1816 1.363 . S
C1818 C1819 1.370 . S
C1818 C1822 1.524 . S
C1819 C1811 1.503 1_565 S
C1819 C1818 1.370 . S
C1819 C1820 1.403 . S
C1820 C1819 1.403 . S
C1820 C1821 1.404 . S
C1820 C1823 1.539 . S
C1821 C1817 1.408 . S
C1821 C1820 1.404 . S
C1821 H1833 0.930 . S
C1822 C1818 1.524 . S
C1822 H1834 0.956 1_565 S
C1822 H1835 0.955 1_565 S
C1822 H1836 0.961 . S
C1823 C1820 1.539 . S
C1823 H1837 0.958 . S
C1823 H1838 0.961 . S
C1823 H1839 0.960 . S
H1824 C1808 0.931 . S
H1825 C1813 0.929 . S
H1826 C1814 0.960 . S
H1827 C1814 0.962 . S
H1828 C1814 0.960 . S
H1829 C1815 0.967 . S
H1830 C1815 0.947 1_565 S
H1831 C1815 0.956 1_565 S
H1832 C1816 0.931 . S
H1833 C1821 0.930 . S
H1834 C1822 0.956 1_545 S
H1835 C1822 0.955 1_545 S
H1836 C1822 0.961 . S
H1837 C1823 0.958 . S
H1838 C1823 0.961 . S
H1839 C1823 0.960 . S
C1840 C1841 1.391 . S
C1840 C1842 1.394 . S
C1840 H1856 0.931 . S
C1841 C1840 1.391 . S
C1841 C1845 1.376 . S
C1842 C1840 1.394 . S
C1842 C1843 1.369 . S
C1842 C1846 1.531 . S
C1843 C1842 1.369 . S
C1843 C1844 1.410 . S
C1843 C1851 1.503 1_655 S
C1844 C1843 1.410 . S
C1844 C1845 1.392 . S
C1844 C1847 1.511 . S
C1845 C1841 1.376 . S
C1845 C1844 1.392 . S
C1845 H1857 0.929 . S
C1846 C1842 1.531 . S
C1846 H1858 0.960 1_655 S
C1846 H1859 0.962 . S
C1846 H1860 0.960 . S
C1847 C1844 1.511 . S
C1847 H1861 0.961 . S
C1847 H1862 0.961 1_655 S
C1847 H1863 0.961 . S
C1848 C1849 1.370 . S
C1848 C1850 1.363 . S
C1848 H1864 0.931 . S
C1849 C1848 1.370 . S
C1849 C1853 1.408 . S
C1850 C1848 1.363 . S
C1850 C1851 1.370 . S
C1850 C1854 1.524 1_455 S
C1851 C1843 1.503 1_455 S
C1851 C1850 1.370 . S
C1851 C1852 1.403 . S
C1852 C1851 1.403 . S
C1852 C1853 1.404 . S
C1852 C1855 1.539 . S
C1853 C1849 1.408 . S
C1853 C1852 1.404 . S
C1853 H1865 0.930 . S
C1854 C1850 1.524 1_655 S
C1854 H1866 0.956 . S
C1854 H1867 0.961 . S
C1854 H1868 0.961 1_655 S
C1855 C1852 1.539 . S
C1855 H1869 0.958 . S
C1855 H1870 0.961 . S
C1855 H1871 0.960 . S
H1856 C1840 0.931 . S
H1857 C1845 0.929 . S
H1858 C1846 0.960 1_455 S
H1859 C1846 0.962 . S
H1860 C1846 0.960 . S
H1861 C1847 0.961 . S
H1862 C1847 0.961 1_455 S
H1863 C1847 0.961 . S
H1864 C1848 0.931 . S
H1865 C1853 0.930 . S
H1866 C1854 0.956 . S
H1867 C1854 0.961 . S
H1868 C1854 0.961 1_455 S
H1869 C1855 0.958 . S
H1870 C1855 0.961 . S
H1871 C1855 0.960 . S
C849 C22 1.677 . S
C857 C621 1.740 . S
C881 C463 1.736 . S
C889 C82 1.685 . S
C913 C515 1.727 . S
C921 C128 1.695 . S
C945 C569 1.733 . S
C953 C188 1.689 . S
C977 C303 1.744 1_545 S
C985 C234 1.676 . S
C1009 C294 1.695 . S
C1017 C357 1.741 1_455 S
C1041 C340 1.696 . S
C1049 C409 1.742 1_565 S
C1073 C400 1.684 . S
C1081 C251 1.743 1_655 S
C1105 C446 1.674 . S
C1113 C197 1.740 1_565 S
C1137 C39 1.727 1_655 S
C1145 C506 1.699 . S
C1169 C91 1.726 1_545 S
C1177 C552 1.697 . S
C1201 C145 1.747 1_455 S
C1209 C612 1.676 . S
C1233 C727 1.744 . S
C1241 C658 1.687 . S
C1265 C718 1.663 . S
C1273 C781 1.744 . S
C1297 C833 1.727 . S
C1305 C764 1.694 . S
C1329 C675 1.734 . S
C1337 C824 1.687 . S
C1361 C780 2.108 . S
C1369 C38 2.113 . S
C1393 C834 2.117 . S
C1401 C92 2.112 . S
C1425 C674 2.108 . S
C1433 C144 2.106 . S
C1457 C198 2.102 . S
C1465 C728 2.103 . S
C1489 C250 2.116 . S
C1497 C568 2.114 . S
C1521 C622 2.103 . S
C1529 C304 2.103 . S
C1553 C356 2.089 . S
C1561 C462 2.102 . S
C1585 C410 2.112 . S
C1593 C516 2.105 . S
C1617 C135 2.019 . S
C1625 C29 2.019 . S
C1649 C181 2.026 . S
C1657 C75 2.021 . S
C1681 C241 1.991 . S
C1689 C347 2.006 . S
C1713 C287 2.001 . S
C1721 C393 2.009 . S
C1745 C559 2.002 . S
C1753 C453 2.012 . S
C1777 C499 2.013 . S
C1785 C605 2.016 . S
C1809 C771 1.991 . S
C1817 C665 2.007 . S
C1841 C711 2.010 . S
C1849 C817 2.013 . S
