# Generated by pormake.
# Topology ukm, (4)-cn, num edge types: 1
# Building blocks:
#     Node 0, Type 0, BuildingBlock: GALJAG_clean_sbu_0, # of connection points: 4
#     Node 1, Type 0, BuildingBlock: GALJAG_clean_sbu_0, # of connection points: 4
#     Node 2, Type 0, BuildingBlock: GALJAG_clean_sbu_0, # of connection points: 4
#     Node 3, Type 0, BuildingBlock: GALJAG_clean_sbu_0, # of connection points: 4
#     Node 4, Type 0, BuildingBlock: GALJAG_clean_sbu_0, # of connection points: 4
#     Node 5, Type 0, BuildingBlock: GALJAG_clean_sbu_0, # of connection points: 4
#     Node 6, Type 0, BuildingBlock: GALJAG_clean_sbu_0, # of connection points: 4
#     Node 7, Type 0, BuildingBlock: GALJAG_clean_sbu_0, # of connection points: 4
#     Node 8, Type 0, BuildingBlock: GALJAG_clean_sbu_0, # of connection points: 4
#     Node 9, Type 0, BuildingBlock: GALJAG_clean_sbu_0, # of connection points: 4
#     Node 10, Type 0, BuildingBlock: GALJAG_clean_sbu_0, # of connection points: 4
#     Node 11, Type 0, BuildingBlock: GALJAG_clean_sbu_0, # of connection points: 4
#     Node 12, Type 0, BuildingBlock: GALJAG_clean_sbu_0, # of connection points: 4
#     Node 13, Type 0, BuildingBlock: GALJAG_clean_sbu_0, # of connection points: 4
#     Node 14, Type 0, BuildingBlock: GALJAG_clean_sbu_0, # of connection points: 4
#     Node 15, Type 0, BuildingBlock: GALJAG_clean_sbu_0, # of connection points: 4
#     Node 16, Type 0, BuildingBlock: GALJAG_clean_sbu_0, # of connection points: 4
#     Node 17, Type 0, BuildingBlock: GALJAG_clean_sbu_0, # of connection points: 4
#     Node 18, Type 0, BuildingBlock: GALJAG_clean_sbu_0, # of connection points: 4
#     Node 19, Type 0, BuildingBlock: GALJAG_clean_sbu_0, # of connection points: 4
#     Node 20, Type 0, BuildingBlock: GALJAG_clean_sbu_0, # of connection points: 4
#     Node 21, Type 0, BuildingBlock: GALJAG_clean_sbu_0, # of connection points: 4
#     Node 22, Type 0, BuildingBlock: GALJAG_clean_sbu_0, # of connection points: 4
#     Node 23, Type 0, BuildingBlock: GALJAG_clean_sbu_0, # of connection points: 4
#     Node 24, Type 0, BuildingBlock: GALJAG_clean_sbu_0, # of connection points: 4
#     Node 25, Type 0, BuildingBlock: GALJAG_clean_sbu_0, # of connection points: 4
#     Node 26, Type 0, BuildingBlock: GALJAG_clean_sbu_0, # of connection points: 4
#     Node 27, Type 0, BuildingBlock: GALJAG_clean_sbu_0, # of connection points: 4
#     Node 28, Type 0, BuildingBlock: GALJAG_clean_sbu_0, # of connection points: 4
#     Node 29, Type 0, BuildingBlock: GALJAG_clean_sbu_0, # of connection points: 4
#     Node 30, Type 0, BuildingBlock: GALJAG_clean_sbu_0, # of connection points: 4
#     Node 31, Type 0, BuildingBlock: GALJAG_clean_sbu_0, # of connection points: 4
#     Edge 32, Type (0, 0), BuildingBlock: XUDNAN_clean_linker_2, # of connection points: 2
#     Edge 33, Type (0, 0), BuildingBlock: XUDNAN_clean_linker_2, # of connection points: 2
#     Edge 34, Type (0, 0), BuildingBlock: XUDNAN_clean_linker_2, # of connection points: 2
#     Edge 35, Type (0, 0), BuildingBlock: XUDNAN_clean_linker_2, # of connection points: 2
#     Edge 36, Type (0, 0), BuildingBlock: XUDNAN_clean_linker_2, # of connection points: 2
#     Edge 37, Type (0, 0), BuildingBlock: XUDNAN_clean_linker_2, # of connection points: 2
#     Edge 38, Type (0, 0), BuildingBlock: XUDNAN_clean_linker_2, # of connection points: 2
#     Edge 39, Type (0, 0), BuildingBlock: XUDNAN_clean_linker_2, # of connection points: 2
#     Edge 40, Type (0, 0), BuildingBlock: XUDNAN_clean_linker_2, # of connection points: 2
#     Edge 41, Type (0, 0), BuildingBlock: XUDNAN_clean_linker_2, # of connection points: 2
#     Edge 42, Type (0, 0), BuildingBlock: XUDNAN_clean_linker_2, # of connection points: 2
#     Edge 43, Type (0, 0), BuildingBlock: XUDNAN_clean_linker_2, # of connection points: 2
#     Edge 44, Type (0, 0), BuildingBlock: XUDNAN_clean_linker_2, # of connection points: 2
#     Edge 45, Type (0, 0), BuildingBlock: XUDNAN_clean_linker_2, # of connection points: 2
#     Edge 46, Type (0, 0), BuildingBlock: XUDNAN_clean_linker_2, # of connection points: 2
#     Edge 47, Type (0, 0), BuildingBlock: XUDNAN_clean_linker_2, # of connection points: 2
#     Edge 48, Type (0, 0), BuildingBlock: XUDNAN_clean_linker_2, # of connection points: 2
#     Edge 49, Type (0, 0), BuildingBlock: XUDNAN_clean_linker_2, # of connection points: 2
#     Edge 50, Type (0, 0), BuildingBlock: XUDNAN_clean_linker_2, # of connection points: 2
#     Edge 51, Type (0, 0), BuildingBlock: XUDNAN_clean_linker_2, # of connection points: 2
#     Edge 52, Type (0, 0), BuildingBlock: XUDNAN_clean_linker_2, # of connection points: 2
#     Edge 53, Type (0, 0), BuildingBlock: XUDNAN_clean_linker_2, # of connection points: 2
#     Edge 54, Type (0, 0), BuildingBlock: XUDNAN_clean_linker_2, # of connection points: 2
#     Edge 55, Type (0, 0), BuildingBlock: XUDNAN_clean_linker_2, # of connection points: 2
#     Edge 56, Type (0, 0), BuildingBlock: XUDNAN_clean_linker_2, # of connection points: 2
#     Edge 57, Type (0, 0), BuildingBlock: XUDNAN_clean_linker_2, # of connection points: 2
#     Edge 58, Type (0, 0), BuildingBlock: XUDNAN_clean_linker_2, # of connection points: 2
#     Edge 59, Type (0, 0), BuildingBlock: XUDNAN_clean_linker_2, # of connection points: 2
#     Edge 60, Type (0, 0), BuildingBlock: XUDNAN_clean_linker_2, # of connection points: 2
#     Edge 61, Type (0, 0), BuildingBlock: XUDNAN_clean_linker_2, # of connection points: 2
#     Edge 62, Type (0, 0), BuildingBlock: XUDNAN_clean_linker_2, # of connection points: 2
#     Edge 63, Type (0, 0), BuildingBlock: XUDNAN_clean_linker_2, # of connection points: 2
#     Edge 64, Type (0, 0), BuildingBlock: XUDNAN_clean_linker_2, # of connection points: 2
#     Edge 65, Type (0, 0), BuildingBlock: XUDNAN_clean_linker_2, # of connection points: 2
#     Edge 66, Type (0, 0), BuildingBlock: XUDNAN_clean_linker_2, # of connection points: 2
#     Edge 67, Type (0, 0), BuildingBlock: XUDNAN_clean_linker_2, # of connection points: 2
#     Edge 68, Type (0, 0), BuildingBlock: XUDNAN_clean_linker_2, # of connection points: 2
#     Edge 69, Type (0, 0), BuildingBlock: XUDNAN_clean_linker_2, # of connection points: 2
#     Edge 70, Type (0, 0), BuildingBlock: XUDNAN_clean_linker_2, # of connection points: 2
#     Edge 71, Type (0, 0), BuildingBlock: XUDNAN_clean_linker_2, # of connection points: 2
#     Edge 72, Type (0, 0), BuildingBlock: XUDNAN_clean_linker_2, # of connection points: 2
#     Edge 73, Type (0, 0), BuildingBlock: XUDNAN_clean_linker_2, # of connection points: 2
#     Edge 74, Type (0, 0), BuildingBlock: XUDNAN_clean_linker_2, # of connection points: 2
#     Edge 75, Type (0, 0), BuildingBlock: XUDNAN_clean_linker_2, # of connection points: 2
#     Edge 76, Type (0, 0), BuildingBlock: XUDNAN_clean_linker_2, # of connection points: 2
#     Edge 77, Type (0, 0), BuildingBlock: XUDNAN_clean_linker_2, # of connection points: 2
#     Edge 78, Type (0, 0), BuildingBlock: XUDNAN_clean_linker_2, # of connection points: 2
#     Edge 79, Type (0, 0), BuildingBlock: XUDNAN_clean_linker_2, # of connection points: 2
#     Edge 80, Type (0, 0), BuildingBlock: XUDNAN_clean_linker_2, # of connection points: 2
#     Edge 81, Type (0, 0), BuildingBlock: XUDNAN_clean_linker_2, # of connection points: 2
#     Edge 82, Type (0, 0), BuildingBlock: XUDNAN_clean_linker_2, # of connection points: 2
#     Edge 83, Type (0, 0), BuildingBlock: XUDNAN_clean_linker_2, # of connection points: 2
#     Edge 84, Type (0, 0), BuildingBlock: XUDNAN_clean_linker_2, # of connection points: 2
#     Edge 85, Type (0, 0), BuildingBlock: XUDNAN_clean_linker_2, # of connection points: 2
#     Edge 86, Type (0, 0), BuildingBlock: XUDNAN_clean_linker_2, # of connection points: 2
#     Edge 87, Type (0, 0), BuildingBlock: XUDNAN_clean_linker_2, # of connection points: 2
#     Edge 88, Type (0, 0), BuildingBlock: XUDNAN_clean_linker_2, # of connection points: 2
#     Edge 89, Type (0, 0), BuildingBlock: XUDNAN_clean_linker_2, # of connection points: 2
#     Edge 90, Type (0, 0), BuildingBlock: XUDNAN_clean_linker_2, # of connection points: 2
#     Edge 91, Type (0, 0), BuildingBlock: XUDNAN_clean_linker_2, # of connection points: 2
#     Edge 92, Type (0, 0), BuildingBlock: XUDNAN_clean_linker_2, # of connection points: 2
#     Edge 93, Type (0, 0), BuildingBlock: XUDNAN_clean_linker_2, # of connection points: 2
#     Edge 94, Type (0, 0), BuildingBlock: XUDNAN_clean_linker_2, # of connection points: 2
#     Edge 95, Type (0, 0), BuildingBlock: XUDNAN_clean_linker_2, # of connection points: 2
# Relax obj value: 0.098
# Max RMSD: 0.122
# Mean RMSD: 0.122
data_MOF--net-ukm--node1-GALJAG_clean_sbu_0--edge1-XUDNAN_clean_linker_2
_symmetry_space_group_name_H-M    P1
_symmetry_Int_Tables_number       1
_symmetry_cell_setting            triclinic
loop_
_symmetry_equiv_pos_as_xyz
'x, y, z'
_cell_length_a     25.114232
_cell_length_b     102.18399
_cell_length_c     44.893487
_cell_angle_alpha  89.990711
_cell_angle_beta   89.982382
_cell_angle_gamma 90.013832
loop_
_atom_site_label
_atom_site_type_symbol
_atom_site_fract_x
_atom_site_fract_y
_atom_site_fract_z
_atom_type_partial_charge
In0 In 0.15847 0.3181 0.27286 0.0
O1 O 0.08368 0.32936 0.28885 0.0
O2 O 0.15899 0.33403 0.30741 0.0
C3 C 0.12079 0.29485 0.25412 0.0
C4 C 0.23773 0.311 0.3095 0.0
C5 C 0.17655 0.32969 0.21993 0.0
O6 O 0.09574 0.30169 0.27301 0.0
O7 O 0.16452 0.29963 0.24569 0.0
O8 O 0.21369 0.32546 0.23618 0.0
O9 O 0.13067 0.32859 0.23103 0.0
C10 C 0.10994 0.3364 0.30671 0.0
O11 O 0.24231 0.32014 0.29071 0.0
O12 O 0.19321 0.30521 0.30954 0.0
In13 In 0.12043 0.93736 0.28931 0.0
O14 O 0.03252 0.94059 0.30088 0.0
O15 O 0.08722 0.9385 0.33651 0.0
C16 C 0.10002 0.93418 0.23106 0.0
C17 C 0.16567 0.9143 0.30449 0.0
C18 C 0.17744 0.95976 0.28696 0.0
O19 O 0.06485 0.93227 0.25075 0.0
O20 O 0.14505 0.93755 0.24088 0.0
O21 O 0.19824 0.94874 0.29191 0.0
O22 O 0.12743 0.95958 0.28444 0.0
C23 C 0.03951 0.94009 0.32867 0.0
O24 O 0.1729 0.92462 0.31929 0.0
O25 O 0.13585 0.9156 0.28216 0.0
In26 In 0.11698 0.94104 0.95502 0.0
O27 O 0.06521 0.93138 0.91901 0.0
O28 O 0.11904 0.91953 0.94382 0.0
C29 C 0.07757 0.96562 0.95 0.0
C30 C 0.21801 0.94156 0.93526 0.0
C31 C 0.10058 0.93576 0.01319 0.0
O32 O 0.04789 0.95581 0.9537 0.0
O33 O 0.1262 0.96293 0.94748 0.0
O34 O 0.14372 0.94038 0.00344 0.0
O35 O 0.06582 0.93363 0.99355 0.0
C36 C 0.08472 0.92014 0.92339 0.0
O37 O 0.2065 0.94124 0.96267 0.0
O38 O 0.17848 0.94177 0.91782 0.0
In39 In 0.14223 0.31428 0.95071 0.0
O40 O 0.05319 0.3115 0.95907 0.0
O41 O 0.08016 0.31144 0.91422 0.0
C42 C 0.1632 0.32217 0.00646 0.0
C43 C 0.17299 0.3357 0.91999 0.0
C44 C 0.19137 0.29073 0.95093 0.0
O45 O 0.11621 0.32155 0.9964 0.0
O46 O 0.1992 0.31876 0.98842 0.0
O47 O 0.21145 0.30065 0.93852 0.0
O48 O 0.14604 0.2926 0.96208 0.0
C49 C 0.04129 0.31046 0.93187 0.0
O50 O 0.16996 0.32457 0.90785 0.0
O51 O 0.16049 0.33596 0.94711 0.0
In52 In 0.9005 0.68587 0.70599 0.0
O53 O 0.81199 0.68189 0.71204 0.0
O54 O 0.84033 0.68487 0.66791 0.0
C55 C 0.91986 0.68129 0.7638 0.0
C56 C 0.95282 0.66627 0.67823 0.0
C57 C 0.92043 0.71189 0.70465 0.0
O58 O 0.87499 0.67913 0.75202 0.0
O59 O 0.95493 0.68574 0.74634 0.0
O60 O 0.95543 0.70358 0.69755 0.0
O61 O 0.87582 0.70707 0.71107 0.0
C62 C 0.80096 0.68265 0.68466 0.0
O63 O 0.94104 0.67678 0.66497 0.0
O64 O 0.93926 0.66585 0.70517 0.0
In65 In 0.87027 0.0574 0.70152 0.0
O66 O 0.8773 0.06973 0.65969 0.0
O67 O 0.79999 0.06755 0.67772 0.0
C68 C 0.83092 0.03295 0.70841 0.0
C69 C 0.97322 0.05412 0.68629 0.0
C70 C 0.8562 0.0699 0.7539 0.0
O71 O 0.83585 0.03821 0.6831 0.0
O72 O 0.84461 0.04008 0.72995 0.0
O73 O 0.90009 0.06478 0.74665 0.0
O74 O 0.82029 0.06903 0.73442 0.0
C75 C 0.82886 0.07271 0.65797 0.0
O76 O 0.95524 0.065 0.69517 0.0
O77 O 0.93982 0.04489 0.68631 0.0
In78 In 0.85471 0.06949 0.02512 0.0
O79 O 0.76666 0.06926 0.03839 0.0
O80 O 0.82267 0.06101 0.06846 0.0
C81 C 0.83819 0.07713 0.96849 0.0
C82 C 0.89784 0.08965 0.05544 0.0
C83 C 0.91195 0.04802 0.01107 0.0
O84 O 0.8005 0.0734 0.98511 0.0
O85 O 0.88333 0.07733 0.98073 0.0
O86 O 0.93267 0.05885 0.01775 0.0
O87 O 0.86176 0.04775 0.01266 0.0
C88 C 0.77475 0.06396 0.06338 0.0
O89 O 0.91144 0.07793 0.05968 0.0
O90 O 0.86287 0.09125 0.03561 0.0
In91 In 0.87585 0.68077 0.03657 0.0
O92 O 0.92535 0.69418 0.06637 0.0
O93 O 0.95287 0.67474 0.05982 0.0
C94 C 0.90579 0.67569 0.9801 0.0
C95 C 0.82602 0.66006 0.06148 0.0
C96 C 0.81259 0.70187 0.02883 0.0
O97 O 0.93903 0.67808 0.00043 0.0
O98 O 0.85789 0.67557 0.98845 0.0
O99 O 0.79668 0.69164 0.04181 0.0
O100 O 0.86055 0.70157 0.02066 0.0
C101 C 0.96069 0.68574 0.07179 0.0
O102 O 0.83562 0.67044 0.07578 0.0
O103 O 0.84127 0.66019 0.03474 0.0
In104 In 0.12265 0.81895 0.77377 0.0
O105 O 0.05836 0.83203 0.79454 0.0
O106 O 0.13954 0.83805 0.79707 0.0
C107 C 0.06501 0.79725 0.76169 0.0
C108 C 0.19659 0.81157 0.81377 0.0
C109 C 0.14067 0.82853 0.71867 0.0
O110 O 0.04499 0.80721 0.77401 0.0
O111 O 0.11407 0.79815 0.75624 0.0
O112 O 0.17296 0.82095 0.73152 0.0
O113 O 0.09997 0.83136 0.73372 0.0
C114 C 0.09162 0.84046 0.80345 0.0
O115 O 0.20853 0.81565 0.78805 0.0
O116 O 0.14723 0.81074 0.81889 0.0
In117 In 0.09292 0.43452 0.77314 0.0
O118 O 0.15639 0.42671 0.80516 0.0
O119 O 0.09544 0.41375 0.79005 0.0
C120 C 0.12876 0.45774 0.75329 0.0
C121 C 0.01265 0.44141 0.80964 0.0
C122 C 0.09468 0.42308 0.71955 0.0
O123 O 0.15699 0.4505 0.76984 0.0
O124 O 0.08305 0.45332 0.74753 0.0
O125 O 0.05175 0.42714 0.73109 0.0
O126 O 0.13584 0.42462 0.73529 0.0
C127 C 0.13684 0.41528 0.80558 0.0
O128 O 0.00504 0.43447 0.78672 0.0
O129 O 0.06038 0.44475 0.81396 0.0
In130 In 0.11676 0.43807 0.45162 0.0
O131 O 0.20108 0.44604 0.4543 0.0
O132 O 0.17082 0.44183 0.41122 0.0
C133 C 0.11488 0.4276 0.50668 0.0
C134 C 0.08731 0.41691 0.41993 0.0
C135 C 0.05857 0.46009 0.45837 0.0
O136 O 0.15661 0.42818 0.49113 0.0
O137 O 0.07396 0.43233 0.4945 0.0
O138 O 0.04078 0.45013 0.445 0.0
O139 O 0.10605 0.45908 0.46712 0.0
C140 C 0.20974 0.44568 0.42668 0.0
O141 O 0.06677 0.42802 0.41519 0.0
O142 O 0.12185 0.41667 0.44027 0.0
In143 In 0.16333 0.81598 0.44981 0.0
O144 O 0.1952 0.82209 0.40421 0.0
O145 O 0.19366 0.83637 0.43853 0.0
C146 C 0.21662 0.79313 0.45484 0.0
C147 C 0.06192 0.81178 0.4318 0.0
C148 C 0.16681 0.82681 0.50445 0.0
O149 O 0.2388 0.80362 0.44677 0.0
O150 O 0.16721 0.79406 0.45931 0.0
O151 O 0.13204 0.8299 0.48542 0.0
O152 O 0.20038 0.81848 0.4957 0.0
C153 C 0.20383 0.83381 0.41167 0.0
O154 O 0.07568 0.81139 0.45878 0.0
O155 O 0.09947 0.81395 0.41384 0.0
In156 In 0.89071 0.18996 0.20305 0.0
O157 O 0.91486 0.17925 0.16045 0.0
O158 O 0.91828 0.16875 0.20125 0.0
C159 C 0.94098 0.21332 0.19875 0.0
C160 C 0.78893 0.19182 0.18403 0.0
C161 C 0.90655 0.18311 0.26007 0.0
O162 O 0.95916 0.20299 0.18734 0.0
O163 O 0.89658 0.21199 0.21138 0.0
O164 O 0.86076 0.18325 0.24839 0.0
O165 O 0.94418 0.1863 0.24287 0.0
C166 C 0.92486 0.16859 0.17344 0.0
O167 O 0.80154 0.19306 0.21107 0.0
O168 O 0.82758 0.18993 0.16669 0.0
In169 In 0.84641 0.56769 0.22267 0.0
O170 O 0.93261 0.57395 0.22098 0.0
O171 O 0.90676 0.56076 0.18736 0.0
C172 C 0.86417 0.57586 0.27844 0.0
C173 C 0.79478 0.58478 0.18661 0.0
C174 C 0.80232 0.54445 0.23816 0.0
O175 O 0.89973 0.57061 0.26257 0.0
O176 O 0.81909 0.57704 0.26619 0.0
O177 O 0.78457 0.55531 0.24676 0.0
O178 O 0.84077 0.54519 0.22019 0.0
C179 C 0.94461 0.56736 0.19827 0.0
O180 O 0.79641 0.57269 0.18119 0.0
O181 O 0.81713 0.58804 0.21053 0.0
In182 In 0.86903 0.56537 0.54867 0.0
O183 O 0.9339 0.5731 0.58011 0.0
O184 O 0.88202 0.5867 0.55875 0.0
C185 C 0.89406 0.54041 0.53518 0.0
C186 C 0.78439 0.56346 0.58521 0.0
C187 C 0.87743 0.5744 0.4929 0.0
O188 O 0.92657 0.54788 0.54838 0.0
O189 O 0.84911 0.5454 0.53008 0.0
O190 O 0.83262 0.57294 0.50539 0.0
O191 O 0.91717 0.57135 0.50863 0.0
C192 C 0.9209 0.58494 0.57607 0.0
O193 O 0.78042 0.56764 0.55881 0.0
O194 O 0.83084 0.56018 0.59295 0.0
In195 In 0.87561 0.17765 0.53414 0.0
O196 O 0.81053 0.16479 0.55498 0.0
O197 O 0.8805 0.15553 0.53904 0.0
C198 C 0.82226 0.20056 0.53095 0.0
C199 C 0.95267 0.18181 0.57507 0.0
C200 C 0.89597 0.17374 0.47601 0.0
O201 O 0.80119 0.19014 0.54037 0.0
O202 O 0.87053 0.19949 0.52365 0.0
O203 O 0.93214 0.17504 0.49524 0.0
O204 O 0.84911 0.17421 0.48615 0.0
C205 C 0.83583 0.15424 0.55149 0.0
O206 O 0.96222 0.18019 0.54779 0.0
O207 O 0.90394 0.18156 0.58183 0.0
In208 In 0.61493 0.31344 0.79429 0.0
O209 O 0.70408 0.31095 0.80149 0.0
O210 O 0.65203 0.30514 0.83654 0.0
C211 C 0.61475 0.32299 0.73827 0.0
C212 C 0.58869 0.33469 0.82643 0.0
C213 C 0.55953 0.29107 0.78615 0.0
O214 O 0.65448 0.31716 0.74922 0.0
O215 O 0.57564 0.32409 0.75565 0.0
O216 O 0.54033 0.30086 0.79952 0.0
O217 O 0.60706 0.29244 0.77766 0.0
C218 C 0.69944 0.30652 0.82764 0.0
O219 O 0.55633 0.32537 0.82255 0.0
O220 O 0.63329 0.33328 0.81394 0.0
In221 In 0.63603 0.92786 0.78908 0.0
O222 O 0.54932 0.92653 0.80348 0.0
O223 O 0.60322 0.93608 0.83278 0.0
C224 C 0.59513 0.92751 0.73385 0.0
C225 C 0.6793 0.90617 0.81359 0.0
C226 C 0.70546 0.94711 0.7752 0.0
O227 O 0.58263 0.93597 0.75308 0.0
O228 O 0.62682 0.91875 0.7429 0.0
O229 O 0.70905 0.93569 0.76478 0.0
O230 O 0.669 0.94861 0.79424 0.0
C231 C 0.556 0.93245 0.82783 0.0
O232 O 0.69588 0.91754 0.81933 0.0
O233 O 0.64203 0.90572 0.79481 0.0
In234 In 0.60005 0.93439 0.45776 0.0
O235 O 0.68983 0.93195 0.46293 0.0
O236 O 0.66181 0.93998 0.42233 0.0
C237 C 0.59992 0.93298 0.51747 0.0
C238 C 0.55825 0.91425 0.4264 0.0
C239 C 0.53643 0.95561 0.45988 0.0
O240 O 0.61344 0.9431 0.50332 0.0
O241 O 0.58911 0.92313 0.50157 0.0
O242 O 0.52076 0.94429 0.46695 0.0
O243 O 0.58264 0.95602 0.44879 0.0
C244 C 0.70137 0.93648 0.43766 0.0
O245 O 0.55348 0.92602 0.41825 0.0
O246 O 0.58315 0.91271 0.45053 0.0
In247 In 0.64087 0.31142 0.46976 0.0
O248 O 0.56119 0.31895 0.45225 0.0
O249 O 0.5808 0.2989 0.44497 0.0
C250 C 0.63012 0.3229 0.52346 0.0
C251 C 0.69824 0.32738 0.43363 0.0
C252 C 0.6722 0.28697 0.48425 0.0
O253 O 0.5927 0.32266 0.50469 0.0
O254 O 0.6728 0.31767 0.51475 0.0
O255 O 0.69913 0.29393 0.4664 0.0
O256 O 0.6308 0.29237 0.49415 0.0
C257 C 0.54758 0.30803 0.44143 0.0
O258 O 0.66374 0.31951 0.42401 0.0
O259 O 0.70691 0.32648 0.46117 0.0
In260 In 0.39104 0.68268 0.21021 0.0
O261 O 0.31214 0.6762 0.18993 0.0
O262 O 0.33261 0.69631 0.18642 0.0
C263 C 0.37405 0.674 0.26622 0.0
C264 C 0.43825 0.66503 0.17402 0.0
C265 C 0.44834 0.7045 0.22135 0.0
O266 O 0.33663 0.67641 0.24836 0.0
O267 O 0.41999 0.67579 0.25572 0.0
O268 O 0.46857 0.69436 0.20995 0.0
O269 O 0.39901 0.70376 0.22632 0.0
C270 C 0.29916 0.68743 0.18083 0.0
O271 O 0.43007 0.67672 0.16618 0.0
O272 O 0.42409 0.66241 0.20029 0.0
In273 In 0.35972 0.06864 0.21629 0.0
O274 O 0.4503 0.06969 0.2172 0.0
O275 O 0.41302 0.06607 0.17543 0.0
C276 C 0.34148 0.07662 0.27243 0.0
C277 C 0.31196 0.08742 0.18387 0.0
C278 C 0.3342 0.04317 0.22366 0.0
O279 O 0.38709 0.07715 0.2606 0.0
O280 O 0.30512 0.07231 0.25573 0.0
O281 O 0.37983 0.04776 0.22863 0.0
O282 O 0.30101 0.05136 0.21369 0.0
C283 C 0.45596 0.06749 0.18969 0.0
O284 O 0.30519 0.07538 0.17843 0.0
O285 O 0.34249 0.08984 0.20548 0.0
In286 In 0.39431 0.06599 0.54117 0.0
O287 O 0.32127 0.07224 0.56852 0.0
O288 O 0.32937 0.05218 0.55678 0.0
C289 C 0.36267 0.07429 0.48711 0.0
C290 C 0.4526 0.08506 0.56806 0.0
C291 C 0.44561 0.04283 0.53404 0.0
O292 O 0.32972 0.07188 0.50768 0.0
O293 O 0.41082 0.07259 0.49405 0.0
O294 O 0.4336 0.04733 0.5593 0.0
O295 O 0.43501 0.05036 0.51271 0.0
C296 C 0.30281 0.06076 0.57045 0.0
O297 O 0.43372 0.07548 0.5822 0.0
O298 O 0.44405 0.08468 0.54053 0.0
In299 In 0.37913 0.68387 0.53734 0.0
O300 O 0.46748 0.68011 0.54714 0.0
O301 O 0.41856 0.68774 0.58177 0.0
C302 C 0.36862 0.67472 0.48164 0.0
C303 C 0.32347 0.66591 0.56785 0.0
C304 C 0.35911 0.70921 0.52492 0.0
O305 O 0.41381 0.67613 0.49369 0.0
O306 O 0.32947 0.67777 0.49782 0.0
O307 O 0.32396 0.70175 0.53576 0.0
O308 O 0.40414 0.70399 0.52149 0.0
C309 C 0.46406 0.68381 0.57396 0.0
O310 O 0.31578 0.67805 0.5715 0.0
O311 O 0.35816 0.663 0.54861 0.0
In312 In 0.62945 0.81332 0.29547 0.0
O313 O 0.57538 0.82274 0.331 0.0
O314 O 0.59555 0.83394 0.29288 0.0
C315 C 0.60055 0.788 0.28839 0.0
C316 C 0.71389 0.81319 0.33257 0.0
C317 C 0.64361 0.81886 0.2376 0.0
O318 O 0.56651 0.79686 0.29328 0.0
O319 O 0.64803 0.79192 0.2882 0.0
O320 O 0.68088 0.81981 0.25644 0.0
O321 O 0.59922 0.81531 0.24814 0.0
C322 C 0.57163 0.83352 0.31747 0.0
O323 O 0.71728 0.8169 0.3058 0.0
O324 O 0.66787 0.80974 0.34064 0.0
In325 In 0.64922 0.43229 0.30307 0.0
O326 O 0.558 0.43342 0.3067 0.0
O327 O 0.60432 0.4412 0.34202 0.0
C328 C 0.65603 0.42431 0.24634 0.0
C329 C 0.68469 0.41052 0.33102 0.0
C330 C 0.69691 0.45589 0.29768 0.0
O331 O 0.6127 0.42815 0.25777 0.0
O332 O 0.69563 0.42436 0.26372 0.0
O333 O 0.70181 0.44895 0.32081 0.0
O334 O 0.66898 0.45087 0.27741 0.0
C335 C 0.55851 0.43911 0.33166 0.0
O336 O 0.71177 0.42093 0.33017 0.0
O337 O 0.64006 0.41123 0.31831 0.0
In338 In 0.62334 0.4367 0.97456 0.0
O339 O 0.56409 0.42482 0.94665 0.0
O340 O 0.63748 0.41594 0.95894 0.0
C341 C 0.55995 0.45775 0.98234 0.0
C342 C 0.70304 0.44571 0.94005 0.0
C343 C 0.6412 0.42797 0.03049 0.0
O344 O 0.5419 0.44661 0.97564 0.0
O345 O 0.60997 0.45836 0.98412 0.0
O346 O 0.67786 0.42922 0.01157 0.0
O347 O 0.59558 0.43101 0.02117 0.0
C348 C 0.59379 0.41486 0.94536 0.0
O349 O 0.70401 0.44636 0.96811 0.0
O350 O 0.66095 0.44092 0.92923 0.0
In351 In 0.61306 0.80921 0.96401 0.0
O352 O 0.52316 0.8125 0.96671 0.0
O353 O 0.55642 0.8073 0.92477 0.0
C354 C 0.63244 0.81617 0.02064 0.0
C355 C 0.66206 0.82809 0.9322 0.0
C356 C 0.6396 0.78367 0.96892 0.0
O357 O 0.5859 0.81608 0.00988 0.0
O358 O 0.66889 0.81293 0.00272 0.0
O359 O 0.67172 0.79207 0.9588 0.0
O360 O 0.5943 0.7881 0.9753 0.0
C361 C 0.51512 0.80999 0.93953 0.0
O362 O 0.65575 0.81667 0.92205 0.0
O363 O 0.64402 0.82991 0.95805 0.0
In364 In 0.38141 0.18138 0.71528 0.0
O365 O 0.43332 0.17564 0.67492 0.0
O366 O 0.4115 0.16094 0.70599 0.0
C367 C 0.4083 0.20676 0.72376 0.0
C368 C 0.28295 0.18234 0.69136 0.0
C369 C 0.38647 0.17161 0.77074 0.0
O370 O 0.4427 0.19821 0.71715 0.0
O371 O 0.36131 0.20253 0.72501 0.0
O372 O 0.3493 0.16893 0.75288 0.0
O373 O 0.42179 0.17918 0.76052 0.0
C374 C 0.43553 0.1637 0.68223 0.0
O375 O 0.29141 0.18119 0.71889 0.0
O376 O 0.32443 0.18293 0.67548 0.0
In377 In 0.34053 0.56551 0.71078 0.0
O378 O 0.30893 0.57707 0.67091 0.0
O379 O 0.31922 0.58717 0.71184 0.0
C380 C 0.29273 0.54194 0.70447 0.0
C381 C 0.442 0.5638 0.69087 0.0
C382 C 0.32353 0.57001 0.76889 0.0
O383 O 0.27261 0.55237 0.69464 0.0
O384 O 0.33753 0.54334 0.71661 0.0
O385 O 0.36958 0.56983 0.75757 0.0
O386 O 0.28587 0.56806 0.75077 0.0
C387 C 0.3051 0.58772 0.68496 0.0
O388 O 0.43006 0.56363 0.71812 0.0
O389 O 0.40277 0.5648 0.67351 0.0
In390 In 0.35736 0.56554 0.0437 0.0
O391 O 0.26906 0.56521 0.05582 0.0
O392 O 0.32524 0.5672 0.09095 0.0
C393 C 0.33541 0.57034 0.98623 0.0
C394 C 0.41598 0.5864 0.06083 0.0
C395 C 0.39153 0.54045 0.04085 0.0
O396 O 0.30126 0.57189 0.0066 0.0
O397 O 0.38064 0.56654 0.99499 0.0
O398 O 0.42346 0.54999 0.041 0.0
O399 O 0.34333 0.5436 0.04329 0.0
C400 C 0.27695 0.56644 0.08343 0.0
O401 O 0.41742 0.57563 0.07462 0.0
O402 O 0.38616 0.5865 0.03828 0.0
In403 In 0.36748 0.18321 0.03907 0.0
O404 O 0.45401 0.18003 0.05272 0.0
O405 O 0.40261 0.18954 0.08351 0.0
C406 C 0.37503 0.17305 0.98439 0.0
C407 C 0.31055 0.16438 0.06625 0.0
C408 C 0.33993 0.20754 0.02124 0.0
O409 O 0.41581 0.17651 -0.00105 0.0
O410 O 0.33101 0.17472 0.99745 0.0
O411 O 0.30623 0.19981 0.0326 0.0
O412 O 0.38662 0.20313 0.02013 0.0
C413 C 0.4488 0.18537 0.07791 0.0
O414 O 0.30567 0.17628 0.07357 0.0
O415 O 0.34363 0.16216 0.04581 0.0
H416 H 0.14036 0.39391 0.42123 0.0
H417 H 0.00651 0.41327 0.37905 0.0
H418 H 0.9896 0.3933 0.34893 0.0
H419 H 0.18883 0.37929 0.35687 0.0
H420 H 0.2112 0.36462 0.37534 0.0
H421 H 0.20758 0.37975 0.39562 0.0
H422 H 0.14646 0.36872 0.43489 0.0
H423 H 0.14968 0.35354 0.41456 0.0
H424 H 0.08598 0.36077 0.42303 0.0
H425 H 0.99232 0.37131 0.32101 0.0
H426 H 0.01886 0.35067 0.29573 0.0
H427 H 0.15206 0.34685 0.35646 0.0
C428 C 0.10682 0.39392 0.40606 0.0
C429 C 0.07444 0.40507 0.40259 0.0
C430 C 0.03165 0.40477 0.38207 0.0
C431 C 0.02165 0.39346 0.36504 0.0
C432 C 0.05489 0.38263 0.36887 0.0
C433 C 0.09676 0.38286 0.38886 0.0
C434 C 0.12995 0.37059 0.38717 0.0
C435 C 0.18777 0.37376 0.3782 0.0
C436 C 0.12785 0.36295 0.41667 0.0
C437 C 0.10093 0.36342 0.36273 0.0
C438 C 0.0572 0.37034 0.35263 0.0
C439 C 0.02617 0.36577 0.32897 0.0
C440 C 0.0413 0.35404 0.31484 0.0
C441 C 0.08738 0.34723 0.32425 0.0
C442 C 0.11648 0.35185 0.34891 0.0
H443 H 0.20065 0.90719 0.35966 0.0
H444 H 0.17611 0.89244 0.27018 0.0
H445 H 0.20105 0.87025 0.28697 0.0
H446 H 0.31108 0.88391 0.38179 0.0
H447 H 0.28472 0.88242 0.41898 0.0
H448 H 0.27703 0.89754 0.39873 0.0
H449 H 0.17485 0.89645 0.40664 0.0
H450 H 0.18222 0.88139 0.42681 0.0
H451 H 0.13898 0.88207 0.39481 0.0
H452 H 0.21514 0.8494 0.31453 0.0
H453 H 0.21117 0.8314 0.35116 0.0
H454 H 0.22354 0.85957 0.4231 0.0
C455 C 0.20239 0.89936 0.34343 0.0
C456 C 0.18712 0.90149 0.3136 0.0
C457 C 0.18807 0.89097 0.29313 0.0
C458 C 0.20253 0.87837 0.30241 0.0
C459 C 0.21589 0.87647 0.33223 0.0
C460 C 0.21599 0.88669 0.35246 0.0
C461 C 0.22423 0.88178 0.38394 0.0
C462 C 0.27744 0.88671 0.3966 0.0
C463 C 0.17727 0.88565 0.40422 0.0
C464 C 0.22581 0.86717 0.37845 0.0
C465 C 0.22256 0.86433 0.3484 0.0
C466 C 0.21873 0.85149 0.33808 0.0
C467 C 0.21649 0.84133 0.35904 0.0
C468 C 0.2172 0.84411 0.38991 0.0
C469 C 0.2236 0.85716 0.39961 0.0
H470 H 0.14819 0.89924 0.91368 0.0
H471 H 0.99409 0.91544 0.89062 0.0
H472 H 0.97581 0.89601 0.85891 0.0
H473 H 0.17801 0.88753 0.84137 0.0
H474 H 0.21289 0.87325 0.85457 0.0
H475 H 0.21104 0.88783 0.87701 0.0
H476 H 0.17156 0.87452 0.92099 0.0
H477 H 0.17323 0.85989 0.89864 0.0
H478 H 0.1116 0.86513 0.9154 0.0
H479 H 0.97541 0.87431 0.83 0.0
H480 H 0.99651 0.85377 0.8028 0.0
H481 H 0.15364 0.85344 0.84273 0.0
C482 C 0.11025 0.89863 0.90227 0.0
C483 C 0.07214 0.90868 0.90482 0.0
C484 C 0.02358 0.90774 0.88899 0.0
C485 C 0.01288 0.89675 0.87107 0.0
C486 C 0.05159 0.88698 0.869 0.0
C487 C 0.09956 0.88796 0.88395 0.0
C488 C 0.1363 0.87672 0.87662 0.0
C489 C 0.18756 0.88163 0.86149 0.0
C490 C 0.14888 0.86858 0.90458 0.0
C491 C 0.10166 0.86921 0.85516 0.0
C492 C 0.05258 0.8751 0.85131 0.0
C493 C 0.01383 0.86967 0.83275 0.0
C494 C 0.026 0.85802 0.8175 0.0
C495 C 0.07677 0.85217 0.82057 0.0
C496 C 0.1147 0.85782 0.83976 0.0
H497 H 0.11962 0.38928 0.79748 0.0
H498 H 0.20343 0.41693 0.85376 0.0
H499 H 0.23223 0.39872 0.88643 0.0
H500 H 0.06897 0.36979 0.85288 0.0
H501 H 0.07699 0.35446 0.83353 0.0
H502 H 0.06912 0.36937 0.81273 0.0
H503 H 0.15752 0.3648 0.78479 0.0
H504 H 0.16564 0.34982 0.80551 0.0
H505 H 0.21764 0.36198 0.80576 0.0
H506 H 0.23846 0.37821 0.91694 0.0
H507 H 0.22714 0.35668 0.94131 0.0
H508 H 0.14525 0.34208 0.86316 0.0
C509 C 0.14493 0.39146 0.81637 0.0
C510 C 0.15928 0.40447 0.82327 0.0
C511 C 0.19231 0.407 0.84811 0.0
C512 C 0.20884 0.39673 0.86671 0.0
C513 C 0.19294 0.38401 0.85965 0.0
C514 C 0.16247 0.38133 0.83477 0.0
C515 C 0.14803 0.36696 0.83302 0.0
C516 C 0.08719 0.36504 0.83306 0.0
C517 C 0.17376 0.36051 0.80564 0.0
C518 C 0.17294 0.36206 0.86158 0.0
C519 C 0.19893 0.37203 0.87655 0.0
C520 C 0.21964 0.37024 0.90505 0.0
C521 C 0.21291 0.35802 0.91873 0.0
C522 C 0.18635 0.34774 0.90375 0.0
C523 C 0.16726 0.34969 0.87459 0.0
H524 H 0.91159 0.61065 0.56186 0.0
H525 H 0.98732 0.58433 0.62463 0.0
H526 H 0.01974 0.60338 0.65349 0.0
H527 H 0.01399 0.63774 0.56697 0.0
H528 H 0.96295 0.65007 0.56379 0.0
H529 H 0.95511 0.63454 0.5452 0.0
H530 H 0.86452 0.63114 0.5718 0.0
H531 H 0.87206 0.64658 0.59039 0.0
H532 H 0.86166 0.6319 0.6119 0.0
H533 H 0.02735 0.62474 0.68034 0.0
H534 H 0.01155 0.64656 0.7023 0.0
H535 H 0.93508 0.65916 0.62074 0.0
C536 C 0.93627 0.6089 0.58124 0.0
C537 C 0.947 0.59605 0.59111 0.0
C538 C 0.97899 0.59412 0.61664 0.0
C539 C 0.99767 0.60488 0.63307 0.0
C540 C 0.98488 0.61746 0.62323 0.0
C541 C 0.95555 0.6195 0.5976 0.0
C542 C 0.94225 0.63383 0.5934 0.0
C543 C 0.97027 0.63937 0.56569 0.0
C544 C 0.88155 0.63598 0.59181 0.0
C545 C 0.96568 0.63947 0.62164 0.0
C546 C 0.99093 0.62991 0.63833 0.0
C547 C 0.00924 0.63238 0.66709 0.0
C548 C 1.00004 0.64479 0.6794 0.0
C549 C 0.97309 0.65455 0.66291 0.0
C550 C 0.95748 0.652 0.63334 0.0
H551 H 0.88318 0.08285 0.61115 0.0
H552 H 0.73399 0.08607 0.65917 0.0
H553 H 0.71256 0.10623 0.63099 0.0
H554 H 0.91684 0.11462 0.61452 0.0
H555 H 0.94658 0.11581 0.57807 0.0
H556 H 0.94469 0.10032 0.5969 0.0
H557 H 0.89551 0.08988 0.55207 0.0
H558 H 0.89785 0.10535 0.53279 0.0
H559 H 0.83495 0.09722 0.53845 0.0
H560 H 0.71587 0.12805 0.60436 0.0
H561 H 0.74169 0.1489 0.5802 0.0
H562 H 0.8885 0.131 0.54974 0.0
C563 C 0.84511 0.08753 0.61499 0.0
C564 C 0.81009 0.0829 0.63718 0.0
C565 C 0.76106 0.08939 0.64197 0.0
C566 C 0.74864 0.10085 0.6261 0.0
C567 C 0.78535 0.10552 0.60528 0.0
C568 C 0.83221 0.0989 0.59937 0.0
C569 C 0.86773 0.10655 0.57846 0.0
C570 C 0.92212 0.1095 0.59287 0.0
C571 C 0.87438 0.09932 0.54867 0.0
C572 C 0.83493 0.11883 0.57472 0.0
C573 C 0.78713 0.11801 0.58992 0.0
C574 C 0.7526 0.12868 0.59182 0.0
C575 C 0.76765 0.14048 0.57813 0.0
C576 C 0.81693 0.14152 0.56297 0.0
C577 C 0.85024 0.13045 0.56081 0.0
H578 H 0.89945 0.16243 0.11621 0.0
H579 H 0.97783 0.14737 0.1951 0.0
H580 H 0.9906 0.12605 0.17008 0.0
H581 H 0.8248 0.13488 0.10317 0.0
H582 H 0.82744 0.13562 0.06308 0.0
H583 H 0.8339 0.15037 0.0846 0.0
H584 H 0.92409 0.15539 0.05892 0.0
H585 H 0.91777 0.14066 0.03712 0.0
H586 H 0.97632 0.14329 0.05954 0.0
H587 H 0.98613 0.10587 0.13887 0.0
H588 H 0.96035 0.08792 0.105 0.0
H589 H 0.88031 0.11583 0.04754 0.0
C590 C 0.92088 0.15476 0.12777 0.0
C591 C 0.93848 0.15653 0.15732 0.0
C592 C 0.96458 0.14618 0.1723 0.0
C593 C 0.97218 0.13408 0.15824 0.0
C594 C 0.95307 0.13251 0.12932 0.0
C595 C 0.92784 0.14256 0.11425 0.0
C596 C 0.90501 0.13788 0.08493 0.0
C597 C 0.8442 0.1398 0.08391 0.0
C598 C 0.93245 0.14471 0.05857 0.0
C599 C 0.91973 0.12354 0.08632 0.0
C600 C 0.94852 0.1207 0.11176 0.0
C601 C 0.96421 0.10799 0.11869 0.0
C602 C 0.94934 0.09786 0.09935 0.0
C603 C 0.9184 0.10052 0.0737 0.0
C604 C 0.90425 0.11355 0.06692 0.0
H605 H 0.78911 0.61111 0.19474 0.0
H606 H 0.76245 0.58071 0.12904 0.0
H607 H 0.75187 0.5976 0.09009 0.0
H608 H 0.6996 0.6369 0.15918 0.0
H609 H 0.74564 0.64967 0.16938 0.0
H610 H 0.73808 0.63549 0.19292 0.0
H611 H 0.83969 0.63132 0.18971 0.0
H612 H 0.84755 0.64531 0.16592 0.0
H613 H 0.87051 0.62949 0.15366 0.0
H614 H 0.76335 0.61717 0.05727 0.0
H615 H 0.79152 0.63786 0.03361 0.0
H616 H 0.80993 0.65558 0.12076 0.0
C617 C 0.77894 0.60803 0.17237 0.0
C618 C 0.77636 0.59463 0.16487 0.0
C619 C 0.76405 0.59094 0.13529 0.0
C620 C 0.75797 0.60047 0.11304 0.0
C621 C 0.76351 0.61362 0.12089 0.0
C622 C 0.77278 0.61741 0.15 0.0
C623 C 0.78368 0.63195 0.15215 0.0
C624 C 0.73908 0.63891 0.16943 0.0
C625 C 0.8386 0.63466 0.16617 0.0
C626 C 0.78257 0.63562 0.11953 0.0
C627 C 0.7698 0.62498 0.10187 0.0
C628 C 0.77196 0.62565 0.07088 0.0
C629 C 0.78829 0.63742 0.05765 0.0
C630 C 0.80249 0.64833 0.0754 0.0
C631 C 0.79829 0.64747 0.10666 0.0
H632 H 0.66277 0.39691 0.92343 0.0
H633 H 0.4947 0.40638 0.92814 0.0
H634 H 0.47365 0.38634 0.89918 0.0
H635 H 0.66036 0.38563 0.84822 0.0
H636 H 0.70942 0.37305 0.85448 0.0
H637 H 0.71012 0.38769 0.87677 0.0
H638 H 0.70486 0.37364 0.9248 0.0
H639 H 0.70406 0.35895 0.90264 0.0
H640 H 0.65147 0.36199 0.92908 0.0
H641 H 0.47204 0.36469 0.87053 0.0
H642 H 0.49048 0.34462 0.84109 0.0
H643 H 0.65996 0.3508 0.85297 0.0
C644 C 0.62147 0.39471 0.91859 0.0
C645 C 0.58022 0.40304 0.92822 0.0
C646 C 0.52677 0.40003 0.92097 0.0
C647 C 0.51451 0.38868 0.90465 0.0
C648 C 0.55632 0.38063 0.89547 0.0
C649 C 0.60875 0.38363 0.90193 0.0
C650 C 0.64672 0.37384 0.88839 0.0
C651 C 0.68382 0.38045 0.86561 0.0
C652 C 0.67864 0.36668 0.91268 0.0
C653 C 0.60758 0.36479 0.87336 0.0
C654 C 0.55555 0.36872 0.87793 0.0
C655 C 0.51265 0.36159 0.86665 0.0
C656 C 0.52341 0.35022 0.85007 0.0
C657 C 0.57657 0.3463 0.84463 0.0
C658 C 0.61893 0.35368 0.85652 0.0
H659 H 0.64224 0.83412 0.87421 0.0
H660 H 0.72979 0.84678 0.95212 0.0
H661 H 0.75769 0.86685 0.92558 0.0
H662 H 0.72994 0.84973 0.81552 0.0
H663 H 0.67297 0.85447 0.79363 0.0
H664 H 0.67072 0.83976 0.81576 0.0
H665 H 0.58568 0.84822 0.84218 0.0
H666 H 0.58777 0.86293 0.8203 0.0
H667 H 0.58703 0.86394 0.86039 0.0
H668 H 0.76591 0.88663 0.89371 0.0
H669 H 0.74787 0.90543 0.86074 0.0
H670 H 0.64964 0.88069 0.80463 0.0
C671 C 0.66911 0.8409 0.88509 0.0
C672 C 0.68514 0.83886 0.91482 0.0
C673 C 0.71802 0.84816 0.92912 0.0
C674 C 0.73418 0.85953 0.91418 0.0
C675 C 0.71646 0.8615 0.8851 0.0
C676 C 0.68441 0.85247 0.87071 0.0
C677 C 0.66378 0.85788 0.84147 0.0
C678 C 0.68568 0.84999 0.81503 0.0
C679 C 0.60246 0.85827 0.84109 0.0
C680 C 0.6874 0.87151 0.84228 0.0
C681 C 0.71891 0.87327 0.8672 0.0
C682 C 0.74201 0.88532 0.87387 0.0
C683 C 0.73151 0.89595 0.85503 0.0
C684 C 0.69746 0.8945 0.83013 0.0
C685 C 0.6763 0.88204 0.82333 0.0
H686 H 0.56799 0.8402 0.37621 0.0
H687 H 0.52588 0.85384 0.28796 0.0
H688 H 0.50224 0.87547 0.3087 0.0
H689 H 0.46927 0.86096 0.41986 0.0
H690 H 0.51755 0.86384 0.44882 0.0
H691 H 0.51813 0.84861 0.42852 0.0
H692 H 0.61704 0.85249 0.41465 0.0
H693 H 0.61668 0.86772 0.43458 0.0
H694 H 0.63564 0.8674 0.39585 0.0
H695 H 0.4973 0.89637 0.33715 0.0
H696 H 0.51452 0.91507 0.37063 0.0
H697 H 0.5642 0.88822 0.4401 0.0
C698 C 0.55146 0.84758 0.36157 0.0
C699 C 0.54762 0.84534 0.33064 0.0
C700 C 0.52828 0.85537 0.3118 0.0
C701 C 0.51464 0.86765 0.32341 0.0
C702 C 0.52091 0.86977 0.35388 0.0
C703 C 0.53872 0.85999 0.37276 0.0
C704 C 0.54975 0.86532 0.40365 0.0
C705 C 0.51137 0.85933 0.42657 0.0
C706 C 0.60823 0.8631 0.41268 0.0
C707 C 0.53796 0.8797 0.39878 0.0
C708 C 0.51999 0.88201 0.37017 0.0
C709 C 0.51038 0.89466 0.35978 0.0
C710 C 0.52039 0.90523 0.37892 0.0
C711 C 0.54056 0.90309 0.40795 0.0
C712 C 0.54824 0.89014 0.41813 0.0
H713 H 0.65454 0.33682 0.38266 0.0
H714 H 0.7815 0.34385 0.44605 0.0
H715 H 0.79961 0.36526 0.42227 0.0
H716 H 0.71346 0.35486 0.31759 0.0
H717 H 0.64907 0.3611 0.307 0.0
H718 H 0.6544 0.34532 0.32468 0.0
H719 H 0.58782 0.35286 0.36527 0.0
H720 H 0.58293 0.36871 0.34813 0.0
H721 H 0.60223 0.36737 0.38668 0.0
H722 H 0.79561 0.38712 0.39568 0.0
H723 H 0.76921 0.40739 0.3692 0.0
H724 H 0.64119 0.38623 0.32582 0.0
C725 C 0.68767 0.34261 0.39074 0.0
C726 C 0.71732 0.3386 0.41582 0.0
C727 C 0.75891 0.34668 0.42653 0.0
C728 C 0.7694 0.35885 0.41318 0.0
C729 C 0.73774 0.36279 0.38927 0.0
C730 C 0.69787 0.35485 0.37806 0.0
C731 C 0.66493 0.36193 0.3549 0.0
C732 C 0.67085 0.35542 0.32422 0.0
C733 C 0.60603 0.36277 0.36433 0.0
C734 C 0.6913 0.37523 0.35548 0.0
C735 C 0.73389 0.3755 0.37496 0.0
C736 C 0.76274 0.38696 0.3801 0.0
C737 C 0.74742 0.39843 0.36506 0.0
C738 C 0.70312 0.39837 0.34557 0.0
C739 C 0.67525 0.38657 0.3406 0.0
H740 H 0.44096 0.59222 0.11837 0.0
H741 H 0.44324 0.60801 0.02882 0.0
H742 H 0.46813 0.62969 0.04874 0.0
H743 H 0.37487 0.61728 0.14891 0.0
H744 H 0.40839 0.61749 0.18441 0.0
H745 H 0.40555 0.60262 0.1632 0.0
H746 H 0.50849 0.60092 0.16431 0.0
H747 H 0.51168 0.6158 0.18582 0.0
H748 H 0.54824 0.61447 0.1514 0.0
H749 H 0.47573 0.65016 0.07825 0.0
H750 H 0.46227 0.66786 0.11492 0.0
H751 H 0.45205 0.63902 0.1856 0.0
C752 C 0.44915 0.60012 0.10294 0.0
C753 C 0.44111 0.59846 0.07208 0.0
C754 C 0.44986 0.6091 0.05254 0.0
C755 C 0.46423 0.62142 0.06365 0.0
C756 C 0.4696 0.62293 0.09436 0.0
C757 C 0.46262 0.61254 0.11377 0.0
C758 C 0.46214 0.61714 0.14585 0.0
C759 C 0.40962 0.61342 0.16148 0.0
C760 C 0.51053 0.61176 0.16284 0.0
C761 C 0.46668 0.63178 0.14136 0.0
C762 C 0.47254 0.6349 0.11157 0.0
C763 C 0.47237 0.64784 0.10169 0.0
C764 C 0.46459 0.65783 0.12267 0.0
C765 C 0.45634 0.6548 0.15308 0.0
C766 C 0.45905 0.64164 0.16255 0.0
H767 H 0.30837 0.15992 0.12577 0.0
H768 H 0.25977 0.14391 0.04083 0.0
H769 H 0.23636 0.12301 0.06519 0.0
H770 H 0.37764 0.13382 0.14653 0.0
H771 H 0.36295 0.1342 0.18583 0.0
H772 H 0.3597 0.149 0.1644 0.0
H773 H 0.26207 0.15266 0.18107 0.0
H774 H 0.26518 0.13789 0.20301 0.0
H775 H 0.21356 0.13988 0.17549 0.0
H776 H 0.23569 0.10288 0.096 0.0
H777 H 0.26052 0.085 0.13037 0.0
H778 H 0.31486 0.11363 0.19487 0.0
C779 C 0.28992 0.15222 0.11278 0.0
C780 C 0.2842 0.15353 0.08174 0.0
C781 C 0.26307 0.14309 0.06483 0.0
C782 C 0.24964 0.13122 0.07849 0.0
C783 C 0.25818 0.12993 0.10902 0.0
C784 C 0.27763 0.14018 0.12605 0.0
C785 C 0.29254 0.1356 0.15703 0.0
C786 C 0.3517 0.13831 0.1638 0.0
C787 C 0.25615 0.14188 0.18054 0.0
C788 C 0.28157 0.12108 0.15415 0.0
C789 C 0.26018 0.11806 0.12664 0.0
C790 C 0.2513 0.10514 0.11787 0.0
C791 C 0.26567 0.09505 0.13747 0.0
C792 C 0.28952 0.09795 0.16522 0.0
C793 C 0.29623 0.11114 0.17387 0.0
H794 H 0.45092 0.09095 0.62734 0.0
H795 H 0.49973 0.10609 0.54137 0.0
H796 H 0.51668 0.12769 0.56403 0.0
H797 H 0.37693 0.11662 0.64713 0.0
H798 H 0.39291 0.11672 0.68627 0.0
H799 H 0.39779 0.10178 0.66546 0.0
H800 H 0.49643 0.09919 0.68132 0.0
H801 H 0.49174 0.11411 0.70258 0.0
H802 H 0.54274 0.11234 0.67461 0.0
H803 H 0.51018 0.14849 0.59339 0.0
H804 H 0.48325 0.16638 0.6274 0.0
H805 H 0.43914 0.13766 0.69413 0.0
C806 C 0.46744 0.09866 0.61359 0.0
C807 C 0.47441 0.09684 0.5827 0.0
C808 C 0.49452 0.10726 0.56518 0.0
C809 C 0.50437 0.11956 0.57787 0.0
C810 C 0.49442 0.12125 0.60817 0.0
C811 C 0.47716 0.11101 0.62592 0.0
C812 C 0.46258 0.11573 0.65681 0.0
C813 C 0.4041 0.11253 0.66432 0.0
C814 C 0.50066 0.11 0.68021 0.0
C815 C 0.47116 0.13029 0.65311 0.0
C816 C 0.49062 0.1333 0.62514 0.0
C817 C 0.49627 0.14624 0.61563 0.0
C818 C 0.48075 0.15634 0.63503 0.0
C819 C 0.45944 0.1534 0.66342 0.0
C820 C 0.45604 0.14022 0.67271 0.0
H821 H 0.31915 0.63983 0.55673 0.0
H822 H 0.27518 0.66914 0.62203 0.0
H823 H 0.25146 0.65161 0.65765 0.0
H824 H 0.21605 0.61451 0.57985 0.0
H825 H 0.26228 0.60139 0.57268 0.0
H826 H 0.26483 0.61613 0.55061 0.0
H827 H 0.36446 0.61892 0.56423 0.0
H828 H 0.36215 0.60436 0.58658 0.0
H829 H 0.38364 0.61958 0.60291 0.0
H830 H 0.25165 0.63134 0.68897 0.0
H831 H 0.26844 0.6098 0.71226 0.0
H832 H 0.30817 0.59361 0.62584 0.0
C833 C 0.30274 0.64254 0.57817 0.0
C834 C 0.29885 0.65579 0.58672 0.0
C835 C 0.2779 0.65903 0.61502 0.0
C836 C 0.26438 0.64913 0.63536 0.0
C837 C 0.27099 0.63612 0.62671 0.0
C838 C 0.28857 0.63281 0.59851 0.0
C839 C 0.29736 0.61821 0.59559 0.0
C840 C 0.25775 0.61221 0.57337 0.0
C841 C 0.35533 0.6151 0.58683 0.0
C842 C 0.28527 0.6139 0.62708 0.0
C843 C 0.26944 0.62434 0.64463 0.0
C844 C 0.2624 0.62303 0.67528 0.0
C845 C 0.27233 0.6108 0.68834 0.0
C846 C 0.28891 0.60007 0.67072 0.0
C847 C 0.2942 0.60159 0.63966 0.0
H848 H 0.49294 0.32614 0.4089 0.0
H849 H 0.49104 0.28542 0.4361 0.0
H850 H 0.40909 0.28182 0.4066 0.0
H851 H 0.34976 0.33143 0.40699 0.0
H852 H 0.35268 0.34145 0.374 0.0
H853 H 0.40838 0.34103 0.39926 0.0
H854 H 0.47058 0.33429 0.35582 0.0
H855 H 0.41509 0.33463 0.33045 0.0
H856 H 0.45468 0.32 0.33399 0.0
H857 H 0.32696 0.28278 0.3743 0.0
H858 H 0.25485 0.28782 0.3384 0.0
H859 H 0.3157 0.32734 0.32913 0.0
C860 C 0.4747 0.31653 0.40896 0.0
C861 C 0.49758 0.30608 0.42497 0.0
C862 C 0.47368 0.29355 0.42402 0.0
C863 C 0.42719 0.29143 0.40742 0.0
C864 C 0.4058 0.3019 0.39157 0.0
C865 C 0.42906 0.31417 0.39196 0.0
C866 C 0.40032 0.32354 0.37141 0.0
C867 C 0.37636 0.33504 0.38897 0.0
C868 C 0.43738 0.32839 0.34644 0.0
C869 C 0.35732 0.31462 0.35937 0.0
C870 C 0.36059 0.30223 0.37161 0.0
C871 C 0.3242 0.29242 0.36441 0.0
C872 C 0.28346 0.29535 0.34408 0.0
C873 C 0.28033 0.30789 0.33085 0.0
C874 C 0.31776 0.3176 0.33862 0.0
H875 H 0.93334 0.94399 0.31723 0.0
H876 H 0.04567 0.93691 0.3889 0.0
H877 H 0.9714 0.93604 0.42487 0.0
H878 H 0.84189 0.96454 0.3604 0.0
H879 H 0.78353 0.95797 0.34243 0.0
H880 H 0.8458 0.95872 0.32255 0.0
H881 H 0.84003 0.93382 0.31207 0.0
H882 H 0.77794 0.93299 0.33202 0.0
H883 H 0.83266 0.92261 0.3428 0.0
H884 H 0.885 0.93444 0.45241 0.0
H885 H 0.79207 0.9332 0.47018 0.0
H886 H 0.73572 0.94189 0.38096 0.0
C887 C 0.94232 0.94242 0.34055 0.0
C888 C 0.99524 0.94054 0.35031 0.0
C889 C 0.00542 0.93842 0.38097 0.0
C890 C 0.96351 0.9379 0.40156 0.0
C891 C 0.91174 0.93962 0.39116 0.0
C892 C 0.90097 0.94194 0.36144 0.0
C893 C 0.84161 0.94316 0.35603 0.0
C894 C 0.82738 0.95692 0.34469 0.0
C895 C 0.82192 0.93251 0.33446 0.0
C896 C 0.82069 0.94093 0.38727 0.0
C897 C 0.86184 0.93891 0.40718 0.0
C898 C 0.85245 0.93614 0.43711 0.0
C899 C 0.79957 0.93542 0.44696 0.0
C900 C 0.75681 0.93752 0.42697 0.0
C901 C 0.76766 0.94037 0.39679 0.0
H902 H 0.44958 0.92985 0.817 0.0
H903 H 0.56277 0.94061 0.88577 0.0
H904 H 0.48838 0.94432 0.92096 0.0
H905 H 0.3502 0.95384 0.83646 0.0
H906 H 0.29506 0.94317 0.82806 0.0
H907 H 0.35727 0.94127 0.80856 0.0
H908 H 0.36145 0.91695 0.82482 0.0
H909 H 0.29929 0.91877 0.84437 0.0
H910 H 0.35732 0.91289 0.86384 0.0
H911 H 0.40143 0.946 0.94904 0.0
H912 H 0.30838 0.94666 0.96713 0.0
H913 H 0.25258 0.93581 0.87908 0.0
C914 C 0.45872 0.93298 0.83948 0.0
C915 C 0.51184 0.9349 0.84878 0.0
C916 C 0.52226 0.9391 0.87825 0.0
C917 C 0.48032 0.94121 0.89837 0.0
C918 C 0.42833 0.93919 0.88849 0.0
C919 C 0.41741 0.93527 0.85967 0.0
C920 C 0.35811 0.93397 0.85446 0.0
C921 C 0.33905 0.94364 0.83047 0.0
C922 C 0.34319 0.9198 0.84641 0.0
C923 C 0.3373 0.93768 0.88493 0.0
C924 C 0.37839 0.94058 0.90432 0.0
C925 C 0.36893 0.94386 0.93399 0.0
C926 C 0.31604 0.94419 0.94406 0.0
C927 C 0.27344 0.94139 0.92442 0.0
C928 C 0.28437 0.93815 0.89448 0.0
H929 H 0.8049 0.30936 0.81366 0.0
H930 H 0.69837 0.29936 0.88631 0.0
H931 H 0.77507 0.2983 0.92068 0.0
H932 H 0.91697 0.28868 0.83779 0.0
H933 H 0.96595 0.30051 0.82609 0.0
H934 H 0.90312 0.29942 0.80688 0.0
H935 H 0.88668 0.32408 0.81665 0.0
H936 H 0.94913 0.32523 0.83611 0.0
H937 H 0.88841 0.33017 0.85433 0.0
H938 H 0.86222 0.30033 0.94794 0.0
H939 H 0.95443 0.30392 0.96546 0.0
H940 H 0.00405 0.31212 0.87476 0.0
C941 C 0.79782 0.3067 0.83668 0.0
C942 C 0.74575 0.30439 0.84733 0.0
C943 C 0.73801 0.30109 0.87766 0.0
C944 C 0.78129 0.30049 0.89735 0.0
C945 C 0.83202 0.30312 0.88628 0.0
C946 C 0.84056 0.30602 0.85658 0.0
C947 C 0.89871 0.30891 0.85055 0.0
C948 C 0.92259 0.29877 0.82906 0.0
C949 C 0.90613 0.32293 0.83872 0.0
C950 C 0.92138 0.30744 0.8816 0.0
C951 C 0.88231 0.30409 0.9019 0.0
C952 C 0.89328 0.30278 0.93219 0.0
C953 C 0.94566 0.3049 0.94195 0.0
C954 C 0.98631 0.30822 0.92144 0.0
C955 C 0.97387 0.30945 0.8909 0.0
H956 H 0.76811 0.68097 0.62647 0.0
H957 H 0.70954 0.68247 0.71738 0.0
H958 H 0.61709 0.68244 0.69874 0.0
H959 H 0.6713 0.70193 0.59448 0.0
H960 H 0.66477 0.69279 0.56034 0.0
H961 H 0.72651 0.69242 0.58069 0.0
H962 H 0.72204 0.6671 0.58306 0.0
H963 H 0.66039 0.66739 0.56254 0.0
H964 H 0.66357 0.6593 0.59818 0.0
H965 H 0.53185 0.68381 0.67048 0.0
H966 H 0.45808 0.68488 0.63432 0.0
H967 H 0.57097 0.68148 0.56151 0.0
C968 C 0.73578 0.68118 0.64243 0.0
C969 C 0.74588 0.68175 0.67337 0.0
C970 C 0.70264 0.682 0.69359 0.0
C971 C 0.65003 0.68201 0.68322 0.0
C972 C 0.64139 0.68161 0.65259 0.0
C973 C 0.68295 0.68104 0.63246 0.0
C974 C 0.66256 0.68074 0.60067 0.0
C975 C 0.68247 0.69268 0.58302 0.0
C976 C 0.67806 0.66787 0.58521 0.0
C977 C 0.60307 0.68146 0.6061 0.0
C978 C 0.59186 0.682 0.63623 0.0
C979 C 0.54004 0.68325 0.64684 0.0
C980 C 0.49846 0.68391 0.62613 0.0
C981 C 0.50887 0.68321 0.59517 0.0
C982 C 0.56188 0.68191 0.58507 0.0
H983 H 0.04292 0.07345 0.66944 0.0
H984 H 0.0234 0.03127 0.67279 0.0
H985 H 0.10748 0.02851 0.64507 0.0
H986 H 0.09069 0.0748 0.59608 0.0
H987 H 0.13795 0.08778 0.60241 0.0
H988 H 0.07923 0.08659 0.62526 0.0
H989 H 0.13761 0.08592 0.67281 0.0
H990 H 0.19656 0.08728 0.65012 0.0
H991 H 0.18969 0.07386 0.6759 0.0
H992 H 0.18859 0.03025 0.61359 0.0
H993 H 0.26552 0.03633 0.58246 0.0
H994 H 0.23347 0.07744 0.59911 0.0
C995 C 0.05708 0.06364 0.66497 0.0
C996 C 0.02693 0.05256 0.67343 0.0
C997 C 0.04607 0.03988 0.66663 0.0
C998 C 0.09371 0.03821 0.65087 0.0
C999 C 0.12173 0.04932 0.6421 0.0
C1000 C 0.10452 0.0618 0.64909 0.0
C1001 C 0.14085 0.07208 0.63561 0.0
C1002 C 0.11035 0.08082 0.61353 0.0
C1003 C 0.16778 0.08026 0.66007 0.0
C1004 C 0.18073 0.06342 0.61966 0.0
C1005 C 0.16886 0.05034 0.62376 0.0
C1006 C 0.19864 0.04045 0.61045 0.0
C1007 C 0.2421 0.04402 0.59268 0.0
C1008 C 0.25549 0.05735 0.5884 0.0
C1009 C 0.22428 0.06717 0.60209 0.0
H1010 H 0.48064 0.06947 0.13035 0.0
H1011 H 0.55038 0.0625 0.21732 0.0
H1012 H 0.63867 0.05956 0.19393 0.0
H1013 H 0.56158 0.0467 0.08858 0.0
H1014 H 0.56785 0.05728 0.05663 0.0
H1015 H 0.5096 0.05827 0.07996 0.0
H1016 H 0.52641 0.08303 0.0881 0.0
H1017 H 0.58446 0.08214 0.06465 0.0
H1018 H 0.59009 0.08841 0.10204 0.0
H1019 H 0.71886 0.05712 0.16117 0.0
H1020 H 0.78758 0.05754 0.12188 0.0
H1021 H 0.66688 0.06727 0.05634 0.0
C1022 C 0.51451 0.06728 0.14441 0.0
C1023 C 0.50879 0.06613 0.17561 0.0
C1024 C 0.55403 0.06343 0.19337 0.0
C1025 C 0.60422 0.06168 0.18028 0.0
C1026 C 0.60854 0.06281 0.14944 0.0
C1027 C 0.5651 0.06572 0.13175 0.0
C1028 C 0.58117 0.06708 0.09935 0.0
C1029 C 0.55339 0.05671 0.07999 0.0
C1030 C 0.56987 0.08099 0.08787 0.0
C1031 C 0.64044 0.06449 0.1016 0.0
C1032 C 0.65523 0.06188 0.13065 0.0
C1033 C 0.7078 0.05917 0.13835 0.0
C1034 C 0.74651 0.05939 0.11585 0.0
C1035 C 0.73256 0.06244 0.08609 0.0
C1036 C 0.67869 0.06489 0.0789 0.0
H1037 H 0.03387 0.66835 0.0935 0.0
H1038 H 0.99578 0.70974 0.09011 0.0
H1039 H 0.07841 0.71476 0.11779 0.0
H1040 H 0.08875 0.66869 0.16825 0.0
H1041 H 0.13952 0.6568 0.15969 0.0
H1042 H 0.07719 0.65654 0.13986 0.0
H1043 H 0.12805 0.65812 0.08974 0.0
H1044 H 0.1905 0.65845 0.10942 0.0
H1045 H 0.17406 0.67141 0.08377 0.0
H1046 H 0.16744 0.71528 0.14375 0.0
H1047 H 0.25326 0.71115 0.16912 0.0
H1048 H 0.2309 0.66937 0.15722 0.0
C1049 C 0.04282 0.67846 0.0987 0.0
C1050 C 0.00859 0.68867 0.08963 0.0
C1051 C 0.02147 0.70177 0.09694 0.0
C1052 C 0.06834 0.70472 0.11257 0.0
C1053 C 0.10151 0.69443 0.12096 0.0
C1054 C 0.08907 0.68155 0.11456 0.0
C1055 C 0.13118 0.6723 0.12632 0.0
C1056 C 0.10775 0.66304 0.14994 0.0
C1057 C 0.1575 0.66462 0.10079 0.0
C1058 C 0.16955 0.68199 0.14008 0.0
C1059 C 0.15191 0.69471 0.13662 0.0
C1060 C 0.18145 0.70536 0.1468 0.0
C1061 C 0.23016 0.70293 0.16108 0.0
C1062 C 0.24847 0.68995 0.16524 0.0
C1063 C 0.21766 0.67939 0.15456 0.0
H1064 H 0.49033 0.81016 0.88033 0.0
H1065 H 0.41924 0.80938 0.9684 0.0
H1066 H 0.3296 0.80826 0.94564 0.0
H1067 H 0.39195 0.83093 0.84735 0.0
H1068 H 0.39394 0.8228 0.81173 0.0
H1069 H 0.45212 0.82294 0.83514 0.0
H1070 H 0.45552 0.7976 0.83314 0.0
H1071 H 0.39701 0.79738 0.80993 0.0
H1072 H 0.39793 0.78827 0.84431 0.0
H1073 H 0.24791 0.80708 0.91308 0.0
H1074 H 0.17985 0.80811 0.8734 0.0
H1075 H 0.30474 0.81053 0.8068 0.0
C1076 C 0.45589 0.80971 0.89482 0.0
C1077 C 0.46154 0.80978 0.9261 0.0
C1078 C 0.41562 0.80934 0.94436 0.0
C1079 C 0.36466 0.80863 0.93165 0.0
C1080 C 0.36046 0.80848 0.90068 0.0
C1081 C 0.40482 0.80916 0.88252 0.0
C1082 C 0.38942 0.80949 0.84993 0.0
C1083 C 0.40795 0.8223 0.83518 0.0
C1084 C 0.41127 0.79747 0.83336 0.0
C1085 C 0.32941 0.80894 0.85257 0.0
C1086 C 0.31349 0.80819 0.882 0.0
C1087 C 0.2599 0.80766 0.88997 0.0
C1088 C 0.22157 0.80819 0.86728 0.0
C1089 C 0.23708 0.80938 0.83706 0.0
C1090 C 0.29173 0.80959 0.8297 0.0
H1091 H 0.72444 0.43763 0.88328 0.0
H1092 H 0.78823 0.46061 0.95625 0.0
H1093 H 0.87199 0.46371 0.92827 0.0
H1094 H 0.84045 0.42039 0.86902 0.0
H1095 H 0.83295 0.41982 0.82911 0.0
H1096 H 0.77505 0.42108 0.85254 0.0
H1097 H 0.74567 0.44207 0.82463 0.0
H1098 H 0.80332 0.44082 0.80087 0.0
H1099 H 0.79122 0.45564 0.82155 0.0
H1100 H 0.95125 0.46243 0.89508 0.0
H1101 H 0.02133 0.45692 0.85873 0.0
H1102 H 0.90724 0.43425 0.80761 0.0
C1103 C 0.75548 0.44364 0.89294 0.0
C1104 C 0.74982 0.44903 0.92173 0.0
C1105 C 0.79178 0.4565 0.9341 0.0
C1106 C 0.83939 0.45832 0.91837 0.0
C1107 C 0.84435 0.45258 0.89036 0.0
C1108 C 0.80351 0.44542 0.87767 0.0
C1109 C 0.82084 0.43928 0.8485 0.0
C1110 C 0.8171 0.42426 0.8499 0.0
C1111 C 0.78833 0.44478 0.82234 0.0
C1112 C 0.87817 0.44383 0.84717 0.0
C1113 C 0.89066 0.45162 0.87136 0.0
C1114 C 0.94181 0.45648 0.87585 0.0
C1115 C 0.98137 0.45326 0.85513 0.0
C1116 C 0.96965 0.44519 0.83034 0.0
C1117 C 0.91722 0.44053 0.82623 0.0
H1118 H 0.45444 0.43345 0.31738 0.0
H1119 H 0.5527 0.45328 0.38287 0.0
H1120 H 0.47243 0.45901 0.41164 0.0
H1121 H 0.34004 0.45609 0.32135 0.0
H1122 H 0.29184 0.44313 0.3176 0.0
H1123 H 0.35651 0.44156 0.30055 0.0
H1124 H 0.37159 0.41969 0.32856 0.0
H1125 H 0.30702 0.42118 0.3456 0.0
H1126 H 0.36538 0.41929 0.36857 0.0
H1127 H 0.38351 0.46098 0.43549 0.0
H1128 H 0.29099 0.45881 0.45334 0.0
H1129 H 0.24906 0.43806 0.37237 0.0
C1130 C 0.4589 0.43916 0.33755 0.0
C1131 C 0.50976 0.44296 0.34787 0.0
C1132 C 0.51412 0.45028 0.37454 0.0
C1133 C 0.46874 0.45363 0.39098 0.0
C1134 C 0.41924 0.44964 0.3804 0.0
C1135 C 0.4139 0.44258 0.3543 0.0
C1136 C 0.35627 0.43883 0.34893 0.0
C1137 C 0.33491 0.44529 0.32041 0.0
C1138 C 0.3497 0.42386 0.34787 0.0
C1139 C 0.33036 0.4446 0.37646 0.0
C1140 C 0.36743 0.45089 0.39416 0.0
C1141 C 0.35393 0.45626 0.42166 0.0
C1142 C 0.30134 0.45497 0.43162 0.0
C1143 C 0.26289 0.44839 0.4141 0.0
C1144 C 0.27744 0.44337 0.38593 0.0
H1145 H 0.81866 0.81729 0.31837 0.0
H1146 H 0.71404 0.80734 0.39194 0.0
H1147 H 0.79196 0.80549 0.42527 0.0
H1148 H 0.92423 0.79522 0.33804 0.0
H1149 H 0.97656 0.80626 0.32686 0.0
H1150 H 0.91252 0.80701 0.30888 0.0
H1151 H 0.90481 0.83161 0.32228 0.0
H1152 H 0.96894 0.83095 0.34014 0.0
H1153 H 0.91167 0.83665 0.36057 0.0
H1154 H 0.88125 0.80484 0.4506 0.0
H1155 H 0.97561 0.80563 0.46619 0.0
H1156 H 0.0218 0.81554 0.37579 0.0
C1157 C 0.81214 0.81478 0.34153 0.0
C1158 C 0.76036 0.81249 0.35263 0.0
C1159 C 0.75343 0.80915 0.383 0.0
C1160 C 0.7974 0.80806 0.40209 0.0
C1161 C 0.84799 0.81028 0.39039 0.0
C1162 C 0.85559 0.81358 0.36083 0.0
C1163 C 0.91409 0.81539 0.3538 0.0
C1164 C 0.93294 0.80537 0.33052 0.0
C1165 C 0.92553 0.82949 0.3436 0.0
C1166 C 0.9382 0.81266 0.38407 0.0
C1167 C 0.89942 0.80973 0.40487 0.0
C1168 C 0.912 0.80707 0.43449 0.0
C1169 C 0.96565 0.80753 0.44312 0.0
C1170 C 0.00594 0.81058 0.42217 0.0
C1171 C 0.99189 0.81307 0.39225 0.0
H1172 H 0.75253 0.1851 0.12888 0.0
H1173 H 0.69994 0.19874 0.21556 0.0
H1174 H 0.60656 0.19848 0.19794 0.0
H1175 H 0.65872 0.20324 0.08483 0.0
H1176 H 0.64925 0.19024 0.05821 0.0
H1177 H 0.71167 0.19175 0.07763 0.0
H1178 H 0.70274 0.16785 0.09635 0.0
H1179 H 0.64019 0.16628 0.07707 0.0
H1180 H 0.64379 0.16302 0.11647 0.0
H1181 H 0.51918 0.19692 0.17048 0.0
H1182 H 0.44409 0.19383 0.13558 0.0
H1183 H 0.55431 0.18054 0.06755 0.0
C1184 C 0.7214 0.18811 0.14411 0.0
C1185 C 0.73332 0.19202 0.17352 0.0
C1186 C 0.69153 0.19575 0.1929 0.0
C1187 C 0.63847 0.19562 0.1831 0.0
C1188 C 0.62806 0.19165 0.15397 0.0
C1189 C 0.66835 0.18793 0.1348 0.0
C1190 C 0.6466 0.18386 0.10477 0.0
C1191 C 0.66782 0.19281 0.0799 0.0
C1192 C 0.65907 0.16939 0.0983 0.0
C1193 C 0.58771 0.18596 0.10993 0.0
C1194 C 0.57781 0.19049 0.13842 0.0
C1195 C 0.52643 0.19334 0.14816 0.0
C1196 C 0.48409 0.19156 0.1282 0.0
C1197 C 0.49346 0.18691 0.09894 0.0
C1198 C 0.54595 0.18403 0.08984 0.0
H1199 H 0.17243 0.55963 0.07509 0.0
H1200 H 0.28306 0.57466 0.14101 0.0
H1201 H 0.20995 0.57612 0.17765 0.0
H1202 H 0.06047 0.57927 0.09563 0.0
H1203 H 0.01216 0.56647 0.08986 0.0
H1204 H 0.07316 0.56653 0.06877 0.0
H1205 H 0.09415 0.54306 0.08717 0.0
H1206 H 0.03318 0.54292 0.10834 0.0
H1207 H 0.09576 0.53974 0.12661 0.0
H1208 H 0.12518 0.57683 0.20623 0.0
H1209 H 0.03388 0.57585 0.22621 0.0
H1210 H 0.97807 0.55936 0.14275 0.0
C1211 C 0.18117 0.56322 0.09725 0.0
C1212 C 0.23324 0.56708 0.10528 0.0
C1213 C 0.24339 0.57164 0.13449 0.0
C1214 C 0.20217 0.57251 0.15541 0.0
C1215 C 0.15127 0.56865 0.14681 0.0
C1216 C 0.1406 0.56399 0.11855 0.0
C1217 C 0.08236 0.56036 0.11523 0.0
C1218 C 0.05547 0.56866 0.09093 0.0
C1219 C 0.07601 0.54564 0.10897 0.0
C1220 C 0.06186 0.56387 0.14594 0.0
C1221 C 0.10235 0.56867 0.16372 0.0
C1222 C 0.0932 0.57299 0.19265 0.0
C1223 C 0.04121 0.57241 0.20375 0.0
C1224 C 0.99909 0.56746 0.18605 0.0
C1225 C 0.00967 0.56306 0.15684 0.0
H1226 H 0.67888 0.56758 0.57239 0.0
H1227 H 0.7866 0.55748 0.64441 0.0
H1228 H 0.7106 0.55641 0.67921 0.0
H1229 H 0.59101 0.58789 0.61525 0.0
H1230 H 0.53159 0.58244 0.59646 0.0
H1231 H 0.59444 0.5824 0.57714 0.0
H1232 H 0.58286 0.55773 0.56536 0.0
H1233 H 0.51994 0.55771 0.58463 0.0
H1234 H 0.57143 0.54637 0.59541 0.0
H1235 H 0.62353 0.55694 0.7064 0.0
H1236 H 0.53042 0.55831 0.72387 0.0
H1237 H 0.47888 0.56748 0.63398 0.0
C1238 C 0.68642 0.56514 0.59548 0.0
C1239 C 0.73859 0.56263 0.60575 0.0
C1240 C 0.7469 0.55942 0.63608 0.0
C1241 C 0.70403 0.5588 0.65602 0.0
C1242 C 0.6531 0.56135 0.64522 0.0
C1243 C 0.64402 0.56439 0.61566 0.0
C1244 C 0.5853 0.5666 0.60977 0.0
C1245 C 0.575 0.58067 0.59903 0.0
C1246 C 0.56362 0.5565 0.58748 0.0
C1247 C 0.56287 0.56439 0.64068 0.0
C1248 C 0.6027 0.56142 0.66081 0.0
C1249 C 0.59194 0.5592 0.69083 0.0
C1250 C 0.539 0.56001 0.70054 0.0
C1251 C 0.49752 0.56295 0.68026 0.0
C1252 C 0.50976 0.56513 0.64995 0.0
H1253 H 0.05994 0.18191 0.56495 0.0
H1254 H 0.94205 0.18464 0.63539 0.0
H1255 H 0.01418 0.18569 0.6728 0.0
H1256 H 0.14999 0.1613 0.60358 0.0
H1257 H 0.20904 0.16897 0.58888 0.0
H1258 H 0.14832 0.16911 0.56758 0.0
H1259 H 0.15237 0.19442 0.56436 0.0
H1260 H 0.21328 0.19436 0.58555 0.0
H1261 H 0.15725 0.2039 0.59812 0.0
H1262 H 0.09878 0.18533 0.70247 0.0
H1263 H 0.19016 0.18425 0.72251 0.0
H1264 H 0.25294 0.18198 0.63257 0.0
C1265 C 0.04929 0.18286 0.58823 0.0
C1266 C 0.99546 0.18322 0.59734 0.0
C1267 C 0.98307 0.18439 0.62798 0.0
C1268 C 0.02373 0.18498 0.64935 0.0
C1269 C 0.07641 0.18445 0.63963 0.0
C1270 C 0.08929 0.18348 0.6098 0.0
C1271 C 0.14899 0.18276 0.60527 0.0
C1272 C 0.165 0.16976 0.59046 0.0
C1273 C 0.16915 0.19456 0.58726 0.0
C1274 C 0.16772 0.18336 0.63727 0.0
C1275 C 0.12521 0.18433 0.65673 0.0
C1276 C 0.13239 0.18467 0.68746 0.0
C1277 C 0.18442 0.18401 0.69861 0.0
C1278 C 0.22856 0.18307 0.67907 0.0
C1279 C 0.21996 0.18278 0.64801 0.0
H1280 H 0.91861 0.23526 0.23143 0.0
H1281 H 0.03377 0.21885 0.16975 0.0
H1282 H 0.09054 0.23839 0.17607 0.0
H1283 H 0.93583 0.26974 0.20947 0.0
H1284 H 0.92889 0.27558 0.24716 0.0
H1285 H 0.8951 0.26086 0.23566 0.0
H1286 H 0.94008 0.24818 0.27883 0.0
H1287 H 0.97446 0.26279 0.29027 0.0
H1288 H 0.01167 0.24817 0.28183 0.0
H1289 H 0.13725 0.25877 0.19149 0.0
H1290 H 0.17036 0.27923 0.21373 0.0
H1291 H 0.02563 0.28246 0.26617 0.0
C1292 C 0.95526 0.23591 0.21879 0.0
C1293 C 0.97174 0.2256 0.19993 0.0
C1294 C 0.02035 0.22668 0.18418 0.0
C1295 C 0.05284 0.23773 0.18765 0.0
C1296 C 0.03606 0.24757 0.20695 0.0
C1297 C 0.9883 0.24684 0.22212 0.0
C1298 C 0.98089 0.2585 0.24259 0.0
C1299 C 0.9323 0.26665 0.23315 0.0
C1300 C 0.97654 0.25414 0.27531 0.0
C1301 C 0.03237 0.2658 0.23688 0.0
C1302 C 0.0634 0.25934 0.21612 0.0
C1303 C 0.11319 0.26397 0.2076 0.0
C1304 C 0.13169 0.27559 0.22046 0.0
C1305 C 0.10057 0.28243 0.24169 0.0
C1306 C 0.05027 0.27744 0.25001 0.0
H1307 H 0.14275 0.98372 0.26744 0.0
H1308 H 0.28507 0.96226 0.29243 0.0
H1309 H 0.34041 0.98116 0.27773 0.0
H1310 H 0.19701 0.99898 0.20306 0.0
H1311 H 0.16311 0.01434 0.20842 0.0
H1312 H 0.13396 0.99942 0.22224 0.0
H1313 H 0.12902 0.00926 0.27537 0.0
H1314 H 0.15744 0.02428 0.26164 0.0
H1315 H 0.18847 0.01579 0.29226 0.0
H1316 H 0.38035 0.00189 0.25894 0.0
H1317 H 0.40262 0.02387 0.24008 0.0
H1318 H 0.23465 0.03196 0.22658 0.0
C1319 C 0.18551 0.98308 0.27022 0.0
C1320 C 0.20969 0.97156 0.28118 0.0
C1321 C 0.26576 0.97102 0.28419 0.0
C1322 C 0.29751 0.98168 0.2758 0.0
C1323 C 0.27254 0.99277 0.26445 0.0
C1324 C 0.21784 0.99362 0.26186 0.0
C1325 C 0.20123 0.00665 0.24863 0.0
C1326 C 0.17211 0.00472 0.21882 0.0
C1327 C 0.16703 0.01446 0.2708 0.0
C1328 C 0.25521 0.01297 0.2441 0.0
C1329 C 0.29572 0.00476 0.25335 0.0
C1330 C 0.34901 0.00841 0.25167 0.0
C1331 C 0.36124 0.0209 0.24084 0.0
C1332 C 0.32038 0.02959 0.23177 0.0
C1333 C 0.26672 0.02548 0.23308 0.0
H1334 H 0.88108 0.0224 0.00293 0.0
H1335 H 0.01542 0.04883 0.99362 0.0
H1336 H 0.06929 0.03093 0.97262 0.0
H1337 H 0.95808 0.99475 0.02624 0.0
H1338 H 0.91774 0.98293 0.00677 0.0
H1339 H 0.88859 0.99802 0.01947 0.0
H1340 H 0.85697 0.003 0.9657 0.0
H1341 H 0.8866 0.98797 0.95278 0.0
H1342 H 0.9049 0.00332 0.9358 0.0
H1343 H 0.10917 0.01041 0.95351 0.0
H1344 H 0.13591 0.98777 0.942 0.0
H1345 H 0.97717 0.97419 0.9647 0.0
C1346 C 0.92179 0.02439 0.99638 0.0
C1347 C 0.9441 0.03699 -0.00018 0.0
C1348 C 0.99761 0.03924 0.99126 0.0
C1349 C 0.02842 0.02916 0.9791 0.0
C1350 C 0.00525 0.01688 0.9758 0.0
C1351 C 0.95343 0.01438 0.98447 0.0
C1352 C 0.93946 7e-05 0.98006 0.0
C1353 C 0.92514 0.99356 0.00991 0.0
C1354 C 0.8943 0.9985 0.95722 0.0
C1355 C 0.99174 0.99493 0.96788 0.0
C1356 C 0.02881 0.00486 0.96523 0.0
C1357 C 0.0805 0.00254 0.95536 0.0
C1358 C 0.09526 0.98965 0.94882 0.0
C1359 C 0.05858 0.97924 0.95237 0.0
C1360 C 0.00584 0.98198 0.96144 0.0
H1361 H 0.24295 0.22022 0.02171 0.0
H1362 H 0.40626 0.22383 0.991 0.0
H1363 H 0.38442 0.2448 0.96695 0.0
H1364 H 0.1805 0.2343 0.95644 0.0
H1365 H 0.13015 0.24289 0.97733 0.0
H1366 H 0.15787 0.22789 0.99165 0.0
H1367 H 0.18448 0.2397 0.04052 0.0
H1368 H 0.15639 0.25469 0.02647 0.0
H1369 H 0.22475 0.25429 0.03866 0.0
H1370 H 0.34567 0.26542 0.94643 0.0
H1371 H 0.2935 0.28518 0.93398 0.0
H1372 H 0.15573 0.26847 0.97836 0.0
C1373 C 0.27403 0.22545 0.00995 0.0
C1374 C 0.32627 0.22039 0.00822 0.0
C1375 C 0.36595 0.22752 0.99269 0.0
C1376 C 0.35393 0.23942 0.9788 0.0
C1377 C 0.30204 0.2441 0.98068 0.0
C1378 C 0.26278 0.23742 0.99604 0.0
C1379 C 0.21067 0.24488 0.99545 0.0
C1380 C 0.16724 0.23702 0.97925 0.0
C1381 C 0.19306 0.24861 0.02716 0.0
C1382 C 0.22704 0.25682 0.97763 0.0
C1383 C 0.27977 0.25611 0.96907 0.0
C1384 C 0.30426 0.26609 0.95292 0.0
C1385 C 0.27431 0.27725 0.94586 0.0
C1386 C 0.22063 0.27834 0.95512 0.0
C1387 C 0.19662 0.26788 0.97081 0.0
H1388 H 0.01747 0.72436 0.70351 0.0
H1389 H 0.8484 0.73108 0.71647 0.0
H1390 H 0.8668 0.75393 0.73074 0.0
H1391 H 0.0609 0.74238 0.76499 0.0
H1392 H 0.11926 0.74912 0.74735 0.0
H1393 H 0.09297 0.73365 0.73504 0.0
H1394 H 0.08525 0.7425 0.68111 0.0
H1395 H 0.11224 0.75796 0.69317 0.0
H1396 H 0.04897 0.75742 0.67427 0.0
H1397 H 0.90373 0.77531 0.74824 0.0
H1398 H 0.95685 0.79442 0.76426 0.0
H1399 H 0.10179 0.774 0.73949 0.0
C1400 C 0.98428 0.73074 0.70863 0.0
C1401 C 0.9315 0.72597 0.70877 0.0
C1402 C 0.88916 0.73455 0.71612 0.0
C1403 C 0.89918 0.74754 0.7243 0.0
C1404 C 0.95175 0.75184 0.72486 0.0
C1405 C 0.99359 0.74377 0.71687 0.0
C1406 C 0.04653 0.75069 0.72065 0.0
C1407 C 0.08198 0.74353 0.74336 0.0
C1408 C 0.07491 0.75224 0.6905 0.0
C1409 C 0.02788 0.76378 0.73258 0.0
C1410 C 0.97306 0.76425 0.73478 0.0
C1411 C 0.94668 0.77513 0.74629 0.0
C1412 C 0.97715 0.7859 0.75548 0.0
C1413 C 0.03333 0.78569 0.75305 0.0
C1414 C 0.05885 0.77446 0.74147 0.0
H1415 H 0.71646 0.9718 0.79835 0.0
H1416 H 0.75929 0.94766 0.72254 0.0
H1417 H 0.79604 0.96705 0.69698 0.0
H1418 H 0.67587 0.99954 0.75867 0.0
H1419 H 0.70366 0.01134 0.78415 0.0
H1420 H 0.68367 0.99547 0.79751 0.0
H1421 H 0.77825 0.99144 0.81867 0.0
H1422 H 0.7983 0.00741 0.80584 0.0
H1423 H 0.83522 0.99312 0.79452 0.0
H1424 H 0.81875 0.98947 0.67745 0.0
H1425 H 0.83885 0.01288 0.66851 0.0
H1426 H 0.78689 0.02212 0.75821 0.0
C1427 C 0.73459 0.97056 0.77664 0.0
C1428 C 0.73515 0.95824 0.76242 0.0
C1429 C 0.75891 0.957 0.73394 0.0
C1430 C 0.77955 0.96797 0.71916 0.0
C1431 C 0.77694 0.98006 0.73339 0.0
C1432 C 0.75624 0.98138 0.76178 0.0
C1433 C 0.75823 0.99548 0.77208 0.0
C1434 C 0.70201 0.00076 0.77847 0.0
C1435 C 0.79469 0.99695 0.79939 0.0
C1436 C 0.78225 0.00192 0.74482 0.0
C1437 C 0.79224 0.99288 0.72262 0.0
C1438 C 0.81189 0.99662 0.69483 0.0
C1439 C 0.82275 0.00991 0.68985 0.0
C1440 C 0.81461 0.01923 0.71271 0.0
C1441 C 0.79388 0.01516 0.74044 0.0
H1442 H 0.73865 0.77241 0.96486 0.0
H1443 H 0.57489 0.76436 0.98981 0.0
H1444 H 0.60113 0.74242 0.00734 0.0
H1445 H 0.77089 0.73908 0.93979 0.0
H1446 H 0.83769 0.73983 0.95436 0.0
H1447 H 0.8052 0.75456 0.94189 0.0
H1448 H 0.82215 0.76515 0.99347 0.0
H1449 H 0.85406 0.75041 0.00623 0.0
H1450 H 0.79844 0.75705 0.0266 0.0
H1451 H 0.64585 0.72199 0.02529 0.0
H1452 H 0.70559 0.70377 0.03933 0.0
H1453 H 0.83999 0.72504 0.00249 0.0
C1454 C 0.7082 0.76593 0.97349 0.0
C1455 C 0.65473 0.77005 0.9759 0.0
C1456 C 0.61609 0.76137 0.98767 0.0
C1457 C 0.63059 0.7489 0.99775 0.0
C1458 C 0.68384 0.74524 0.99578 0.0
C1459 C 0.72199 0.75343 0.98366 0.0
C1460 C 0.7767 0.74723 0.98489 0.0
C1461 C 0.79891 0.74504 0.95336 0.0
C1462 C 0.81508 0.75545 0.00394 0.0
C1463 C 0.76337 0.73437 -6e-05 0.0
C1464 C 0.70961 0.73342 0.00604 0.0
C1465 C 0.68799 0.72256 0.02043 0.0
C1466 C 0.72221 0.7123 0.02844 0.0
C1467 C 0.7773 0.71301 0.02199 0.0
C1468 C 0.798 0.72423 0.00768 0.0
H1469 H 0.32063 0.51943 0.73347 0.0
H1470 H 0.1992 0.53623 0.67631 0.0
H1471 H 0.14647 0.5159 0.68056 0.0
H1472 H 0.30843 0.48542 0.70689 0.0
H1473 H 0.31846 0.47868 0.74358 0.0
H1474 H 0.34903 0.49403 0.73358 0.0
H1475 H 0.30435 0.50508 0.77912 0.0
H1476 H 0.27327 0.48982 0.78911 0.0
H1477 H 0.23303 0.50421 0.7833 0.0
H1478 H 0.10415 0.49464 0.69399 0.0
H1479 H 0.07519 0.4735 0.71478 0.0
H1480 H 0.22364 0.47045 0.76385 0.0
C1481 C 0.28347 0.51872 0.72135 0.0
C1482 C 0.26405 0.52934 0.70439 0.0
C1483 C 0.21484 0.52816 0.68929 0.0
C1484 C 0.18468 0.51666 0.69157 0.0
C1485 C 0.20438 0.50647 0.70901 0.0
C1486 C 0.25275 0.50734 0.72352 0.0
C1487 C 0.26335 0.49527 0.74222 0.0
C1488 C 0.31275 0.48791 0.73088 0.0
C1489 C 0.2688 0.49881 0.7754 0.0
C1490 C 0.2129 0.48757 0.73638 0.0
C1491 C 0.17966 0.4942 0.717 0.0
C1492 C 0.13001 0.48931 0.70896 0.0
C1493 C 0.11387 0.47731 0.72099 0.0
C1494 C 0.1472 0.47034 0.74092 0.0
C1495 C 0.19746 0.47554 0.74858 0.0
H1496 H 0.08834 0.48194 0.48936 0.0
H1497 H 0.95342 0.46394 0.44495 0.0
H1498 H 0.89612 0.48228 0.46121 0.0
H1499 H 0.01732 0.49364 0.55286 0.0
H1500 H 0.05432 0.50871 0.55565 0.0
H1501 H 0.0852 0.49438 0.5399 0.0
H1502 H 0.10713 0.50726 0.49168 0.0
H1503 H 0.07689 0.52166 0.50742 0.0
H1504 H 0.05437 0.5155 0.47197 0.0
H1505 H 0.85335 0.50222 0.48328 0.0
H1506 H 0.82877 0.52315 0.50687 0.0
H1507 H 0.9917 0.52821 0.53704 0.0
C1508 C 0.04685 0.48192 0.48279 0.0
C1509 C 0.02527 0.47154 0.46581 0.0
C1510 C 0.97076 0.47182 0.45783 0.0
C1511 C 0.93791 0.48216 0.46708 0.0
C1512 C 0.96026 0.49211 0.48424 0.0
C1513 C 0.01355 0.49214 0.49183 0.0
C1514 C 0.02766 0.50401 0.51046 0.0
C1515 C 0.04727 0.49994 0.54156 0.0
C1516 C 0.06894 0.51262 0.49442 0.0
C1517 C 0.97395 0.5107 0.51212 0.0
C1518 C 0.93561 0.50362 0.49697 0.0
C1519 C 0.88303 0.50784 0.49518 0.0
C1520 C 0.86945 0.51973 0.50874 0.0
C1521 C 0.90831 0.52729 0.52385 0.0
C1522 C 0.96108 0.5226 0.52583 0.0
H1523 H 0.26258 0.72185 0.52295 0.0
H1524 H 0.43051 0.7268 0.50293 0.0
H1525 H 0.4119 0.74859 0.48172 0.0
H1526 H 0.21322 0.73706 0.45695 0.0
H1527 H 0.15764 0.74489 0.47507 0.0
H1528 H 0.18402 0.72981 0.48973 0.0
H1529 H 0.19855 0.7408 0.54113 0.0
H1530 H 0.17162 0.75586 0.52672 0.0
H1531 H 0.23689 0.75568 0.5434 0.0
H1532 H 0.37518 0.76957 0.46169 0.0
H1533 H 0.32297 0.78893 0.44646 0.0
H1534 H 0.17883 0.77032 0.47897 0.0
C1535 C 0.29547 0.72759 0.51441 0.0
C1536 C 0.348 0.72266 0.51465 0.0
C1537 C 0.38995 0.73041 0.50303 0.0
C1538 C 0.37979 0.74278 0.49086 0.0
C1539 C 0.32747 0.74726 0.49046 0.0
C1540 C 0.28602 0.73996 0.5021 0.0
C1541 C 0.2334 0.74706 0.4987 0.0
C1542 C 0.19481 0.73924 0.47893 0.0
C1543 C 0.20868 0.75003 0.52931 0.0
C1544 C 0.25182 0.75945 0.48331 0.0
C1545 C 0.30621 0.75935 0.47872 0.0
C1546 C 0.33254 0.76977 0.46516 0.0
C1547 C 0.30256 0.7807 0.4565 0.0
C1548 C 0.24691 0.78109 0.46143 0.0
C1549 C 0.22128 0.77025 0.47471 0.0
H1550 H 0.72917 0.46839 0.24707 0.0
H1551 H 0.7108 0.47358 0.34239 0.0
H1552 H 0.73532 0.49694 0.33722 0.0
H1553 H 0.84578 0.49004 0.24026 0.0
H1554 H 0.82583 0.496 0.20416 0.0
H1555 H 0.80782 0.47969 0.21563 0.0
H1556 H 0.70859 0.48502 0.20561 0.0
H1557 H 0.72616 0.5014 0.19449 0.0
H1558 H 0.67835 0.49887 0.22389 0.0
H1559 H 0.75169 0.52006 0.32077 0.0
H1560 H 0.77441 0.54084 0.29568 0.0
H1561 H 0.79197 0.52028 0.21176 0.0
C1562 C 0.73105 0.47444 0.26686 0.0
C1563 C 0.71803 0.46928 0.29514 0.0
C1564 C 0.72104 0.47738 0.3206 0.0
C1565 C 0.73456 0.49065 0.31783 0.0
C1566 C 0.74612 0.49552 0.28953 0.0
C1567 C 0.74592 0.4876 0.26459 0.0
C1568 C 0.76124 0.49522 0.23689 0.0
C1569 C 0.81327 0.48992 0.22345 0.0
C1570 C 0.71587 0.49512 0.21387 0.0
C1571 C 0.76901 0.50874 0.25004 0.0
C1572 C 0.75922 0.50871 0.28037 0.0
C1573 C 0.76037 0.52016 0.29716 0.0
C1574 C 0.77287 0.53191 0.28269 0.0
C1575 C 0.78512 0.53207 0.25192 0.0
C1576 C 0.78325 0.52034 0.23539 0.0
H1577 H 0.85452 0.22315 0.50318 0.0
H1578 H 0.72185 0.20569 0.55081 0.0
H1579 H 0.66987 0.22595 0.54388 0.0
H1580 H 0.83795 0.25612 0.53148 0.0
H1581 H 0.85522 0.2638 0.49665 0.0
H1582 H 0.88275 0.24805 0.50602 0.0
H1583 H 0.84593 0.23848 0.45671 0.0
H1584 H 0.81809 0.25419 0.44724 0.0
H1585 H 0.77589 0.23993 0.44854 0.0
H1586 H 0.63234 0.24776 0.53185 0.0
H1587 H 0.6103 0.27002 0.51518 0.0
H1588 H 0.76613 0.27355 0.47397 0.0
C1589 C 0.81467 0.22364 0.51233 0.0
C1590 C 0.79219 0.21288 0.52766 0.0
C1591 C 0.7398 0.21383 0.53906 0.0
C1592 C 0.71 0.22529 0.53523 0.0
C1593 C 0.73312 0.23567 0.51983 0.0
C1594 C 0.78418 0.23499 0.50852 0.0
C1595 C 0.79903 0.24752 0.49237 0.0
C1596 C 0.84655 0.25427 0.50754 0.0
C1597 C 0.81039 0.24487 0.45925 0.0
C1598 C 0.74824 0.25534 0.49637 0.0
C1599 C 0.71095 0.24829 0.51239 0.0
C1600 C 0.66114 0.25338 0.51928 0.0
C1601 C 0.64906 0.26605 0.50969 0.0
C1602 C 0.68649 0.27351 0.49324 0.0
C1603 C 0.73669 0.26805 0.48638 0.0
H1604 H 0.5953 0.26773 0.76355 0.0
H1605 H 0.45232 0.28788 0.7927 0.0
H1606 H 0.39828 0.26872 0.77815 0.0
H1607 H 0.53862 0.25172 0.70002 0.0
H1608 H 0.57509 0.2367 0.70517 0.0
H1609 H 0.60293 0.25197 0.71784 0.0
H1610 H 0.61293 0.24249 0.77109 0.0
H1611 H 0.58559 0.22716 0.75852 0.0
H1612 H 0.5556 0.23561 0.78952 0.0
H1613 H 0.35969 0.24784 0.75933 0.0
H1614 H 0.33896 0.22567 0.74127 0.0
H1615 H 0.50711 0.21858 0.72549 0.0
C1616 C 0.55263 0.26808 0.76698 0.0
C1617 C 0.52788 0.27928 0.77921 0.0
C1618 C 0.47205 0.27937 0.78346 0.0
C1619 C 0.44103 0.26857 0.77514 0.0
C1620 C 0.46656 0.25774 0.76282 0.0
C1621 C 0.52111 0.25733 0.75905 0.0
C1622 C 0.53859 0.24435 0.7459 0.0
C1623 C 0.56538 0.24631 0.71542 0.0
C1624 C 0.57534 0.23697 0.76755 0.0
C1625 C 0.48525 0.23755 0.74277 0.0
C1626 C 0.44428 0.24552 0.75247 0.0
C1627 C 0.3914 0.24148 0.75177 0.0
C1628 C 0.38007 0.22888 0.74138 0.0
C1629 C 0.42143 0.22039 0.73198 0.0
C1630 C 0.47468 0.22486 0.73244 0.0
H1631 H 0.49937 0.03238 0.48649 0.0
H1632 H 0.42237 0.02216 0.56982 0.0
H1633 H 0.43148 0.9987 0.55755 0.0
H1634 H 0.44447 0.00728 0.44165 0.0
H1635 H 0.50453 0.004 0.42098 0.0
H1636 H 0.49294 0.02007 0.43613 0.0
H1637 H 0.58257 0.01912 0.46463 0.0
H1638 H 0.59504 0.00319 0.44897 0.0
H1639 H 0.59616 0.00543 0.4888 0.0
H1640 H 0.44112 0.97662 0.5342 0.0
H1641 H 0.46894 0.95686 0.50692 0.0
H1642 H 0.54752 0.98108 0.44076 0.0
C1643 C 0.48535 0.02517 0.50235 0.0
C1644 C 0.46022 0.02903 0.52911 0.0
C1645 C 0.44225 0.01938 0.54936 0.0
C1646 C 0.44668 0.00605 0.54242 0.0
C1647 C 0.47011 0.00257 0.51542 0.0
C1648 C 0.49068 0.01181 0.49612 0.0
C1649 C 0.51615 0.00537 0.46921 0.0
C1650 C 0.48781 0.00943 0.44029 0.0
C1651 C 0.57604 0.00846 0.46784 0.0
C1652 C 0.50624 0.99107 0.47632 0.0
C1653 C 0.47852 0.98972 0.50275 0.0
C1654 C 0.4633 0.97753 0.51364 0.0
C1655 C 0.47877 0.96637 0.49776 0.0
C1656 C 0.51019 0.96745 0.47166 0.0
C1657 C 0.52325 0.97998 0.46054 0.0
H1658 H 0.50076 0.77699 0.28224 0.0
H1659 H 0.66964 0.76824 0.27637 0.0
H1660 H 0.64882 0.74604 0.25862 0.0
H1661 H 0.45973 0.74436 0.30752 0.0
H1662 H 0.39891 0.74458 0.28622 0.0
H1663 H 0.42698 0.75968 0.29972 0.0
H1664 H 0.42769 0.76883 0.24588 0.0
H1665 H 0.40018 0.75371 0.23218 0.0
H1666 H 0.46171 0.75988 0.21698 0.0
H1667 H 0.61065 0.72533 0.23864 0.0
H1668 H 0.55663 0.70661 0.22142 0.0
H1669 H 0.41231 0.72831 0.24119 0.0
C1670 C 0.53326 0.77032 0.27761 0.0
C1671 C 0.58681 0.77434 0.2807 0.0
C1672 C 0.62829 0.76538 0.27422 0.0
C1673 C 0.61692 0.75274 0.26405 0.0
C1674 C 0.56385 0.74916 0.26063 0.0
C1675 C 0.52261 0.7576 0.26753 0.0
C1676 C 0.46909 0.75125 0.26154 0.0
C1677 C 0.43678 0.74989 0.29048 0.0
C1678 C 0.43784 0.75887 0.23773 0.0
C1679 C 0.48686 0.73801 0.24994 0.0
C1680 C 0.5417 0.73705 0.2495 0.0
C1681 C 0.56764 0.7259 0.23908 0.0
C1682 C 0.53665 0.71535 0.22921 0.0
C1683 C 0.48038 0.71601 0.23001 0.0
C1684 C 0.45529 0.72753 0.2404 0.0
H1685 H 0.59012 0.48298 0.9942 0.0
H1686 H 0.45172 0.45767 0.9881 0.0
H1687 H 0.39428 0.47593 0.00446 0.0
H1688 H 0.54981 0.50059 0.05933 0.0
H1689 H 0.57536 0.51611 0.04665 0.0
H1690 H 0.60585 0.50111 0.03425 0.0
H1691 H 0.59117 0.50788 0.97923 0.0
H1692 H 0.56119 0.52296 0.99145 0.0
H1693 H 0.5252 0.5122 0.96682 0.0
H1694 H 0.35241 0.49664 0.02257 0.0
H1695 H 0.32728 0.51905 0.03725 0.0
H1696 H 0.49266 0.53112 0.03078 0.0
C1697 C 0.54768 0.48131 0.99614 0.0
C1698 C 0.52527 0.46892 0.98991 0.0
C1699 C 0.46962 0.4671 0.99267 0.0
C1700 C 0.43674 0.47739 0.00208 0.0
C1701 C 0.46018 0.48942 0.00848 0.0
C1702 C 0.51425 0.49149 0.00533 0.0
C1703 C 0.52918 0.50544 0.01315 0.0
C1704 C 0.5673 0.50583 0.03994 0.0
C1705 C 0.55308 0.51254 0.98604 0.0
C1706 C 0.47501 0.5109 0.0212 0.0
C1707 C 0.43588 0.50145 0.01857 0.0
C1708 C 0.38265 0.50413 0.02466 0.0
C1709 C 0.36883 0.51688 0.03308 0.0
C1710 C 0.40804 0.52681 0.03518 0.0
C1711 C 0.46189 0.52371 0.02951 0.0
H1712 H 0.10078 0.33271 0.17721 0.0
H1713 H 0.27143 0.33397 0.19173 0.0
H1714 H 0.28593 0.33533 0.13741 0.0
H1715 H 0.10449 0.31144 0.1199 0.0
H1716 H 0.0508 0.3184 0.09848 0.0
H1717 H 0.05263 0.32063 0.13816 0.0
H1718 H 0.0491 0.3458 0.1315 0.0
H1719 H 0.04634 0.34367 0.09167 0.0
H1720 H 0.09737 0.3538 0.10797 0.0
H1721 H 0.28248 0.33256 0.08234 0.0
H1722 H 0.26134 0.32678 0.0303 0.0
H1723 H 0.09281 0.32698 0.05161 0.0
C1724 C 0.14109 0.33383 0.16901 0.0
C1725 C 0.18501 0.33337 0.18858 0.0
C1726 C 0.23726 0.33443 0.17705 0.0
C1727 C 0.24584 0.33522 0.14625 0.0
C1728 C 0.20172 0.335 0.12743 0.0
C1729 C 0.15028 0.33449 0.13837 0.0
C1730 C 0.11013 0.3327 0.11356 0.0
C1731 C 0.07765 0.32004 0.11779 0.0
C1732 C 0.07358 0.34471 0.11102 0.0
C1733 C 0.14714 0.33171 0.08709 0.0
C1734 C 0.19973 0.33326 0.09549 0.0
C1735 C 0.24142 0.33162 0.07537 0.0
C1736 C 0.22904 0.32825 0.04593 0.0
C1737 C 0.17545 0.3265 0.03699 0.0
C1738 C 0.13408 0.32844 0.05777 0.0
H1739 H 0.16883 0.94064 0.05906 0.0
H1740 H 0.01037 0.92607 0.03944 0.0
H1741 H 0.99318 0.92341 0.09338 0.0
H1742 H 0.19554 0.91938 0.12192 0.0
H1743 H 0.23064 0.9319 0.1423 0.0
H1744 H 0.23078 0.93208 0.10218 0.0
H1745 H 0.1938 0.95577 0.10266 0.0
H1746 H 0.19336 0.95565 0.14276 0.0
H1747 H 0.13308 0.95924 0.12259 0.0
H1748 H 0.99242 0.92328 0.14978 0.0
H1749 H 0.00894 0.92533 0.20398 0.0
H1750 H 0.16799 0.93987 0.18567 0.0
C1751 C 0.13068 0.93678 0.06607 0.0
C1752 C 0.09094 0.93353 0.04516 0.0
C1753 C 0.04139 0.92858 0.05518 0.0
C1754 C 0.03128 0.92705 0.08572 0.0
C1755 C 0.07121 0.93048 0.10581 0.0
C1756 C 0.11997 0.93519 0.09636 0.0
C1757 C 0.15574 0.9385 0.12235 0.0
C1758 C 0.20615 0.92995 0.12217 0.0
C1759 C 0.16979 0.95316 0.12259 0.0
C1760 C 0.11943 0.93497 0.14795 0.0
C1761 C 0.07083 0.93036 0.13805 0.0
C1762 C 0.03045 0.92681 0.15779 0.0
C1763 C 0.04012 0.92802 0.18847 0.0
C1764 C 0.08975 0.93271 0.19893 0.0
C1765 C 0.12976 0.93617 0.17833 0.0
H1766 H 0.84761 0.67483 0.80675 0.0
H1767 H 0.01543 0.68284 0.79272 0.0
H1768 H 0.03195 0.68003 0.84662 0.0
H1769 H 0.83553 0.69262 0.87287 0.0
H1770 H 0.78928 0.68149 0.89023 0.0
H1771 H 0.79194 0.68271 0.8503 0.0
H1772 H 0.80878 0.65773 0.84658 0.0
H1773 H 0.80626 0.65643 0.88659 0.0
H1774 H 0.86375 0.65056 0.8666 0.0
H1775 H 0.02882 0.67793 0.9024 0.0
H1776 H 0.0056 0.67759 0.95594 0.0
H1777 H 0.83976 0.67118 0.93306 0.0
C1778 C 0.88798 0.67578 0.81495 0.0
C1779 C 0.93032 0.67898 0.79565 0.0
C1780 C 0.98246 0.68035 0.80721 0.0
C1781 C 0.99226 0.67872 0.83773 0.0
C1782 C 0.94948 0.67569 0.85626 0.0
C1783 C 0.89836 0.67425 0.84531 0.0
C1784 C 0.8587 0.67194 0.8701 0.0
C1785 C 0.8164 0.68284 0.87092 0.0
C1786 C 0.83286 0.65836 0.86729 0.0
C1787 C 0.89527 0.67263 0.89679 0.0
C1788 C 0.94758 0.67462 0.88837 0.0
C1789 C 0.9881 0.67623 0.90927 0.0
C1790 C 0.97457 0.67601 0.93958 0.0
C1791 C 0.92097 0.67432 0.94856 0.0
C1792 C 0.88116 0.67237 0.92684 0.0
H1793 H 0.92656 0.07235 0.8001 0.0
H1794 H 0.76117 0.0785 0.77598 0.0
H1795 H 0.73997 0.08374 0.82832 0.0
H1796 H 0.9034 0.05615 0.86551 0.0
H1797 H 0.95783 0.06321 0.88615 0.0
H1798 H 0.9618 0.06199 0.84628 0.0
H1799 H 0.9786 0.08697 0.84246 0.0
H1800 H 0.97509 0.08825 0.88246 0.0
H1801 H 0.93231 0.09819 0.85948 0.0
H1802 H 0.73407 0.08461 0.88406 0.0
H1803 H 0.74562 0.08255 0.93865 0.0
H1804 H 0.91527 0.07692 0.92605 0.0
C1805 C 0.88622 0.07518 0.80569 0.0
C1806 C 0.84554 0.07506 0.78403 0.0
C1807 C 0.79303 0.07861 0.79224 0.0
C1808 C 0.78059 0.08161 0.8219 0.0
C1809 C 0.82128 0.08122 0.84296 0.0
C1810 C 0.87324 0.0783 0.83515 0.0
C1811 C 0.90877 0.07755 0.8623 0.0
C1812 C 0.93442 0.06392 0.86522 0.0
C1813 C 0.9512 0.08839 0.86163 0.0
C1814 C 0.8683 0.07995 0.88666 0.0
C1815 C 0.81809 0.08213 0.8751 0.0
C1816 C 0.77341 0.08326 0.8934 0.0
C1817 C 0.78024 0.08203 0.92431 0.0
C1818 C 0.83137 0.07978 0.93647 0.0
C1819 C 0.87591 0.07897 0.91738 0.0
H1820 H 0.21112 0.81916 0.67753 0.0
H1821 H 0.08324 0.8472 0.68951 0.0
H1822 H 0.08558 0.85228 0.63578 0.0
H1823 H 0.28234 0.83693 0.61586 0.0
H1824 H 0.2977 0.82181 0.59707 0.0
H1825 H 0.29291 0.8222 0.63714 0.0
H1826 H 0.2225 0.80366 0.6354 0.0
H1827 H 0.22684 0.80326 0.59546 0.0
H1828 H 0.16331 0.80583 0.61322 0.0
H1829 H 0.09221 0.85186 0.58044 0.0
H1830 H 0.10271 0.84592 0.52742 0.0
H1831 H 0.22621 0.81816 0.55132 0.0
C1832 C 0.18485 0.82668 0.66897 0.0
C1833 C 0.14729 0.83287 0.6876 0.0
C1834 C 0.11251 0.8424 0.67556 0.0
C1835 C 0.11371 0.84539 0.64512 0.0
C1836 C 0.15009 0.83881 0.62711 0.0
C1837 C 0.18531 0.82971 0.63861 0.0
C1838 C 0.21617 0.82294 0.61409 0.0
C1839 C 0.27582 0.82617 0.61617 0.0
C1840 C 0.20659 0.80805 0.61458 0.0
C1841 C 0.19118 0.82925 0.58699 0.0
C1842 C 0.1538 0.83853 0.59498 0.0
C1843 C 0.12216 0.84482 0.57386 0.0
C1844 C 0.12826 0.84136 0.54385 0.0
C1845 C 0.1655 0.83166 0.53534 0.0
C1846 C 0.19809 0.82577 0.55715 0.0
H1847 H 0.02338 0.42702 0.6746 0.0
H1848 H 0.17588 0.40924 0.69483 0.0
H1849 H 0.19078 0.40513 0.64137 0.0
H1850 H 0.99099 0.40619 0.60659 0.0
H1851 H 0.96237 0.42008 0.58772 0.0
H1852 H 0.95788 0.4188 0.6277 0.0
H1853 H 0.00177 0.44164 0.63281 0.0
H1854 H 0.00706 0.44293 0.59302 0.0
H1855 H 0.06577 0.44454 0.61582 0.0
H1856 H 0.19723 0.40681 0.58657 0.0
H1857 H 0.19339 0.41357 0.53383 0.0
H1858 H 0.03685 0.4303 0.54856 0.0
C1859 C 0.05879 0.42176 0.6678 0.0
C1860 C 0.09828 0.41832 0.6887 0.0
C1861 C 0.14503 0.41186 0.67907 0.0
C1862 C 0.15373 0.40944 0.64878 0.0
C1863 C 0.11515 0.41349 0.6285 0.0
C1864 C 0.06827 0.41938 0.63758 0.0
C1865 C 0.03669 0.42438 0.61119 0.0
C1866 C 0.98385 0.41691 0.60812 0.0
C1867 C 0.02733 0.43925 0.61336 0.0
C1868 C 0.07447 0.42101 0.58607 0.0
C1869 C 0.11902 0.41451 0.59648 0.0
C1870 C 0.16198 0.41159 0.57799 0.0
C1871 C 0.1596 0.41553 0.54815 0.0
C1872 C 0.11468 0.42236 0.5372 0.0
C1873 C 0.07122 0.42488 0.55627 0.0
H1874 H 0.83136 0.17937 0.30331 0.0
H1875 H 0.00197 0.17944 0.28784 0.0
H1876 H 0.01738 0.17495 0.34119 0.0
H1877 H 0.83543 0.19617 0.3712 0.0
H1878 H 0.78195 0.18713 0.38834 0.0
H1879 H 0.7841 0.18892 0.3485 0.0
H1880 H 0.78093 0.1637 0.34242 0.0
H1881 H 0.77876 0.16183 0.38232 0.0
H1882 H 0.82988 0.15372 0.36103 0.0
H1883 H 0.01456 0.17215 0.39635 0.0
H1884 H 0.99381 0.17178 0.45007 0.0
H1885 H 0.82502 0.1737 0.42976 0.0
C1886 C 0.87191 0.17822 0.31108 0.0
C1887 C 0.91551 0.17968 0.29152 0.0
C1888 C 0.96803 0.17832 0.30252 0.0
C1889 C 0.97717 0.17572 0.33272 0.0
C1890 C 0.93333 0.17449 0.35152 0.0
C1891 C 0.88173 0.17569 0.34117 0.0
C1892 C 0.84183 0.17486 0.36637 0.0
C1893 C 0.80892 0.18752 0.36874 0.0
C1894 C 0.80573 0.16281 0.36281 0.0
C1895 C 0.87914 0.17332 0.39259 0.0
C1896 C 0.93171 0.17297 0.38349 0.0
C1897 C 0.97355 0.17226 0.40375 0.0
C1898 C 0.96138 0.17207 0.43419 0.0
C1899 C 0.90784 0.17266 0.44399 0.0
C1900 C 0.86627 0.17309 0.42287 0.0
H1901 H 0.79956 0.57678 0.45051 0.0
H1902 H 0.96962 0.58089 0.46485 0.0
H1903 H 0.98255 0.58505 0.41131 0.0
H1904 H 0.80835 0.55899 0.38631 0.0
H1905 H 0.75225 0.56626 0.36753 0.0
H1906 H 0.75452 0.56602 0.40753 0.0
H1907 H 0.74334 0.59124 0.40881 0.0
H1908 H 0.74073 0.59154 0.36867 0.0
H1909 H 0.78891 0.60142 0.38817 0.0
H1910 H 0.9795 0.58504 0.35647 0.0
H1911 H 0.96002 0.58148 0.30323 0.0
H1912 H 0.79181 0.57795 0.3236 0.0
C1913 C 0.83923 0.57896 0.44246 0.0
C1914 C 0.88357 0.57858 0.46173 0.0
C1915 C 0.9351 0.58118 0.4504 0.0
C1916 C 0.94282 0.58362 0.42007 0.0
C1917 C 0.89855 0.58353 0.40144 0.0
C1918 C 0.84765 0.5814 0.41215 0.0
C1919 C 0.80776 0.58047 0.38694 0.0
C1920 C 0.77907 0.56714 0.3871 0.0
C1921 C 0.76783 0.59185 0.38823 0.0
C1922 C 0.8446 0.58178 0.36041 0.0
C1923 C 0.8967 0.58373 0.36933 0.0
C1924 C 0.93876 0.58386 0.34911 0.0
C1925 C 0.92738 0.58176 0.319 0.0
C1926 C 0.87443 0.57961 0.30948 0.0
C1927 C 0.83245 0.57991 0.33033 0.0
H1928 H 0.70015 0.32024 0.56923 0.0
H1929 H 0.5435 0.33534 0.54748 0.0
H1930 H 0.52762 0.34005 0.6008 0.0
H1931 H 0.66191 0.30318 0.63072 0.0
H1932 H 0.72113 0.30615 0.65237 0.0
H1933 H 0.72445 0.30642 0.6124 0.0
H1934 H 0.76371 0.32987 0.61382 0.0
H1935 H 0.76091 0.32965 0.65395 0.0
H1936 H 0.72866 0.3426 0.63352 0.0
H1937 H 0.52408 0.34014 0.65656 0.0
H1938 H 0.53247 0.33541 0.71029 0.0
H1939 H 0.69092 0.31981 0.6954 0.0
C1940 C 0.66316 0.32493 0.57556 0.0
C1941 C 0.62318 0.32754 0.55429 0.0
C1942 C 0.57478 0.33336 0.56347 0.0
C1943 C 0.56551 0.3361 0.59366 0.0
C1944 C 0.60517 0.333 0.61423 0.0
C1945 C 0.65319 0.32761 0.60552 0.0
C1946 C 0.68678 0.32377 0.6321 0.0
C1947 C 0.69925 0.30901 0.63187 0.0
C1948 C 0.73805 0.33196 0.63342 0.0
C1949 C 0.64928 0.32732 0.65716 0.0
C1950 C 0.60283 0.33287 0.64644 0.0
C1951 C 0.56063 0.33604 0.66525 0.0
C1952 C 0.56571 0.33328 0.6957 0.0
C1953 C 0.61243 0.32729 0.70694 0.0
C1954 C 0.65504 0.32454 0.68746 0.0
H1955 H 0.62089 0.9141 0.55955 0.0
H1956 H 0.55636 0.9531 0.54747 0.0
H1957 H 0.53731 0.95451 0.60126 0.0
H1958 H 0.53241 0.9035 0.62057 0.0
H1959 H 0.58494 0.89525 0.64045 0.0
H1960 H 0.58748 0.89645 0.60041 0.0
H1961 H 0.68058 0.90732 0.60367 0.0
H1962 H 0.67846 0.90604 0.64363 0.0
H1963 H 0.68917 0.92174 0.62632 0.0
H1964 H 0.52809 0.95221 0.65568 0.0
H1965 H 0.54049 0.9477 0.70906 0.0
H1966 H 0.61721 0.91083 0.6874 0.0
C1967 C 0.60214 0.92282 0.56835 0.0
C1968 C 0.58966 0.93346 0.54962 0.0
C1969 C 0.56624 0.94488 0.56168 0.0
C1970 C 0.55482 0.94572 0.59208 0.0
C1971 C 0.56777 0.93512 0.61012 0.0
C1972 C 0.59171 0.92396 0.59891 0.0
C1973 C 0.60682 0.91465 0.6238 0.0
C1974 C 0.57606 0.90169 0.62114 0.0
C1975 C 0.66734 0.9123 0.62439 0.0
C1976 C 0.58852 0.92244 0.65066 0.0
C1977 C 0.5649 0.93406 0.64211 0.0
C1978 C 0.54626 0.94312 0.66273 0.0
C1979 C 0.5534 0.94045 0.69301 0.0
C1980 C 0.57979 0.92892 0.70233 0.0
C1981 C 0.59651 0.91967 0.68088 0.0
H1982 H 0.44455 0.67347 0.43796 0.0
H1983 H 0.27608 0.66757 0.45463 0.0
H1984 H 0.26128 0.66374 0.40104 0.0
H1985 H 0.42924 0.69177 0.37453 0.0
H1986 H 0.48587 0.68528 0.35477 0.0
H1987 H 0.48521 0.68524 0.3948 0.0
H1988 H 0.5013 0.66019 0.39509 0.0
H1989 H 0.50232 0.66016 0.35493 0.0
H1990 H 0.4569 0.64961 0.3747 0.0
H1991 H 0.26232 0.6637 0.34568 0.0
H1992 H 0.27956 0.66727 0.29212 0.0
H1993 H 0.44728 0.67312 0.31111 0.0
C1994 C 0.40489 0.67097 0.4304 0.0
C1995 C 0.36151 0.67073 0.45036 0.0
C1996 C 0.30989 0.66775 0.43965 0.0
C1997 C 0.30112 0.66551 0.40928 0.0
C1998 C 0.34443 0.66621 0.38999 0.0
C1999 C 0.3954 0.66878 0.4001 0.0
C2000 C 0.43399 0.67032 0.37442 0.0
C2001 C 0.46007 0.68396 0.37466 0.0
C2002 C 0.47612 0.65941 0.37482 0.0
C2003 C 0.39634 0.66875 0.34834 0.0
C2004 C 0.34502 0.66619 0.3578 0.0
C2005 C 0.30251 0.66543 0.33792 0.0
C2006 C 0.31262 0.66752 0.3076 0.0
C2007 C 0.36475 0.67037 0.29754 0.0
C2008 C 0.40718 0.67073 0.31814 0.0
H2009 H 0.42821 0.08016 0.44083 0.0
H2010 H 0.26153 0.07601 0.46438 0.0
H2011 H 0.23664 0.0793 0.41157 0.0
H2012 H 0.40961 0.10466 0.37987 0.0
H2013 H 0.46157 0.0973 0.3578 0.0
H2014 H 0.46519 0.0968 0.39789 0.0
H2015 H 0.47377 0.07153 0.39598 0.0
H2016 H 0.46993 0.07194 0.35603 0.0
H2017 H 0.42352 0.0621 0.37695 0.0
H2018 H 0.23139 0.07981 0.3557 0.0
H2019 H 0.24591 0.0777 0.30147 0.0
H2020 H 0.41615 0.08176 0.31493 0.0
C2021 C 0.38636 0.08028 0.43502 0.0
C2022 C 0.34671 0.07788 0.45661 0.0
C2023 C 0.29245 0.07792 0.44814 0.0
C2024 C 0.27799 0.07981 0.41824 0.0
C2025 C 0.31829 0.08179 0.39732 0.0
C2026 C 0.37136 0.08217 0.40542 0.0
C2027 C 0.40737 0.08321 0.37852 0.0
C2028 C 0.43771 0.09627 0.37853 0.0
C2029 C 0.44587 0.07149 0.37678 0.0
C2030 C 0.36645 0.08278 0.35388 0.0
C2031 C 0.31524 0.08217 0.36513 0.0
C2032 C 0.27119 0.08056 0.34662 0.0
C2033 C 0.27984 0.07934 0.31589 0.0
C2034 C 0.33212 0.07967 0.30408 0.0
C2035 C 0.3757 0.08171 0.3233 0.0
H2036 H 0.56144 0.81689 0.06676 0.0
H2037 H 0.72876 0.82184 0.04553 0.0
H2038 H 0.74877 0.82516 0.09888 0.0
H2039 H 0.55579 0.84033 0.12933 0.0
H2040 H 0.51141 0.83008 0.15059 0.0
H2041 H 0.50941 0.82972 0.11047 0.0
H2042 H 0.52457 0.80463 0.11139 0.0
H2043 H 0.52679 0.80492 0.15143 0.0
H2044 H 0.58165 0.7981 0.1307 0.0
H2045 H 0.75151 0.82628 0.15465 0.0
H2046 H 0.73712 0.82438 0.20896 0.0
H2047 H 0.56842 0.81807 0.1937 0.0
C2048 C 0.60208 0.81896 0.07331 0.0
C2049 C 0.64353 0.81923 0.05211 0.0
C2050 C 0.69643 0.82165 0.0615 0.0
C2051 C 0.70814 0.82359 0.0917 0.0
C2052 C 0.66649 0.82304 0.11216 0.0
C2053 C 0.61452 0.82077 0.10338 0.0
C2054 C 0.57781 0.81956 0.12998 0.0
C2055 C 0.53615 0.83058 0.13009 0.0
C2056 C 0.55117 0.806 0.13092 0.0
C2057 C 0.61743 0.82122 0.15508 0.0
C2058 C 0.66824 0.8234 0.14435 0.0
C2059 C 0.71182 0.8247 0.16334 0.0
C2060 C 0.70329 0.8236 0.19411 0.0
C2061 C 0.65169 0.8211 0.20547 0.0
C2062 C 0.60826 0.82006 0.18565 0.0
H2063 H 0.5711 0.4286 0.07687 0.0
H2064 H 0.73442 0.41894 0.05427 0.0
H2065 H 0.75317 0.41431 0.10728 0.0
H2066 H 0.60042 0.44579 0.14113 0.0
H2067 H 0.54299 0.44041 0.16189 0.0
H2068 H 0.54039 0.44107 0.1219 0.0
H2069 H 0.51358 0.41658 0.12013 0.0
H2070 H 0.516 0.41585 0.16022 0.0
H2071 H 0.55494 0.40458 0.13832 0.0
H2072 H 0.75652 0.41304 0.16293 0.0
H2073 H 0.74486 0.41568 0.21722 0.0
H2074 H 0.57949 0.42637 0.20337 0.0
C2075 C 0.61047 0.42521 0.08299 0.0
C2076 C 0.65126 0.42403 0.06155 0.0
C2077 C 0.70257 0.41984 0.07042 0.0
C2078 C 0.71351 0.41714 0.10042 0.0
C2079 C 0.67263 0.41865 0.12114 0.0
C2080 C 0.62208 0.42255 0.1128 0.0
C2081 C 0.58656 0.42459 0.13963 0.0
C2082 C 0.56645 0.43881 0.14122 0.0
C2083 C 0.54002 0.41481 0.13956 0.0
C2084 C 0.62548 0.42162 0.16442 0.0
C2085 C 0.67468 0.41802 0.1533 0.0
C2086 C 0.71797 0.41565 0.17192 0.0
C2087 C 0.71099 0.41719 0.20269 0.0
C2088 C 0.66122 0.42117 0.21443 0.0
C2089 C 0.61778 0.42315 0.19504 0.0
H2090 H 0.45481 0.17855 0.81544 0.0
H2091 H 0.31579 0.15479 0.79624 0.0
H2092 H 0.30676 0.14962 0.84961 0.0
H2093 H 0.50529 0.15823 0.88007 0.0
H2094 H 0.52601 0.17266 0.90003 0.0
H2095 H 0.52788 0.17244 0.85988 0.0
H2096 H 0.46905 0.19326 0.85847 0.0
H2097 H 0.4667 0.19351 0.89846 0.0
H2098 H 0.40566 0.1932 0.87735 0.0
H2099 H 0.30223 0.15049 0.90446 0.0
H2100 H 0.30515 0.15655 0.95767 0.0
H2101 H 0.44898 0.17899 0.94209 0.0
C2102 C 0.42356 0.17192 0.82241 0.0
C2103 C 0.38609 0.16703 0.80181 0.0
C2104 C 0.34502 0.1586 0.81171 0.0
C2105 C 0.33971 0.15556 0.84195 0.0
C2106 C 0.37619 0.1609 0.86188 0.0
C2107 C 0.41777 0.16877 0.85254 0.0
C2108 C 0.44794 0.1744 0.87878 0.0
C2109 C 0.50518 0.16911 0.87974 0.0
C2110 C 0.44724 0.18948 0.87822 0.0
C2111 C 0.41505 0.16904 0.90426 0.0
C2112 C 0.37428 0.16113 0.89401 0.0
C2113 C 0.33483 0.15634 0.9129 0.0
C2114 C 0.33661 0.15988 0.94299 0.0
C2115 C 0.37771 0.16805 0.9538 0.0
C2116 C 0.41809 0.17242 0.93439 0.0
H2117 H 0.40494 0.56952 0.93964 0.0
H2118 H 0.23826 0.57548 0.96125 0.0
H2119 H 0.21731 0.57733 0.90757 0.0
H2120 H 0.40939 0.59199 0.87612 0.0
H2121 H 0.45416 0.58164 0.85539 0.0
H2122 H 0.45614 0.58167 0.89551 0.0
H2123 H 0.44184 0.55654 0.89586 0.0
H2124 H 0.43963 0.55644 0.85581 0.0
H2125 H 0.38502 0.5497 0.87689 0.0
H2126 H 0.21388 0.57669 0.85148 0.0
H2127 H 0.22882 0.57448 0.79723 0.0
H2128 H 0.39812 0.56959 0.81294 0.0
C2129 C 0.36412 0.57138 0.9331 0.0
C2130 C 0.32316 0.57236 0.95449 0.0
C2131 C 0.27022 0.57474 0.94513 0.0
C2132 C 0.25796 0.5758 0.91474 0.0
C2133 C 0.29924 0.57459 0.89417 0.0
C2134 C 0.35131 0.57255 0.90298 0.0
C2135 C 0.3881 0.57117 0.87651 0.0
C2136 C 0.42938 0.58228 0.87585 0.0
C2137 C 0.41521 0.55766 0.87626 0.0
C2138 C 0.34845 0.57248 0.85138 0.0
C2139 C 0.29741 0.57448 0.86197 0.0
C2140 C 0.25376 0.5753 0.8429 0.0
C2141 C 0.26258 0.574 0.81219 0.0
C2142 C 0.31462 0.57196 0.801 0.0
C2143 C 0.358 0.57132 0.82088 0.0
loop_
_geom_bond_atom_site_label_1
_geom_bond_atom_site_label_2
_geom_bond_distance
_geom_bond_site_symmetry_2
_ccdc_geom_bond_type
In0 O1 2.294 . S
In0 O2 2.326 . S
In0 O6 2.266 . S
In0 O7 2.326 . S
In0 O8 2.266 . S
In0 O9 2.326 . S
In0 O11 2.294 . S
In0 O12 2.326 . S
O1 In0 2.294 . S
O1 C10 1.240 . S
O2 In0 2.326 . S
O2 C10 1.252 . S
C3 O6 1.252 . S
C3 O7 1.260 . S
C4 O11 1.240 . S
C4 O12 1.252 . S
C5 O8 1.252 . S
C5 O9 1.260 . S
O6 In0 2.266 . S
O6 C3 1.252 . S
O7 In0 2.326 . S
O7 C3 1.260 . S
O8 In0 2.266 . S
O8 C5 1.252 . S
O9 In0 2.326 . S
O9 C5 1.260 . S
C10 O1 1.240 . S
C10 O2 1.252 . S
O11 In0 2.294 . S
O11 C4 1.240 . S
O12 In0 2.326 . S
O12 C4 1.252 . S
In13 O14 2.294 . S
In13 O15 2.326 . S
In13 O19 2.266 . S
In13 O20 2.326 . S
In13 O21 2.266 . S
In13 O22 2.326 . S
In13 O24 2.294 . S
In13 O25 2.326 . S
O14 In13 2.294 . S
O14 C23 1.240 . S
O15 In13 2.326 . S
O15 C23 1.252 . S
C16 O19 1.252 . S
C16 O20 1.260 . S
C17 O24 1.240 . S
C17 O25 1.252 . S
C18 O21 1.252 . S
C18 O22 1.260 . S
O19 In13 2.266 . S
O19 C16 1.252 . S
O20 In13 2.326 . S
O20 C16 1.260 . S
O21 In13 2.266 . S
O21 C18 1.252 . S
O22 In13 2.326 . S
O22 C18 1.260 . S
C23 O14 1.240 . S
C23 O15 1.252 . S
O24 In13 2.294 . S
O24 C17 1.240 . S
O25 In13 2.326 . S
O25 C17 1.252 . S
In26 O27 2.294 . S
In26 O28 2.326 . S
In26 O32 2.266 . S
In26 O33 2.326 . S
In26 O34 2.266 1_556 S
In26 O35 2.326 1_556 S
In26 O37 2.294 . S
In26 O38 2.326 . S
O27 In26 2.294 . S
O27 C36 1.240 . S
O28 In26 2.326 . S
O28 C36 1.252 . S
C29 O32 1.252 . S
C29 O33 1.260 . S
C30 O37 1.240 . S
C30 O38 1.252 . S
C31 O34 1.252 . S
C31 O35 1.260 . S
O32 In26 2.266 . S
O32 C29 1.252 . S
O33 In26 2.326 . S
O33 C29 1.260 . S
O34 In26 2.266 1_554 S
O34 C31 1.252 . S
O35 In26 2.326 1_554 S
O35 C31 1.260 . S
C36 O27 1.240 . S
C36 O28 1.252 . S
O37 In26 2.294 . S
O37 C30 1.240 . S
O38 In26 2.326 . S
O38 C30 1.252 . S
In39 O40 2.294 . S
In39 O41 2.326 . S
In39 O45 2.266 1_556 S
In39 O46 2.326 1_556 S
In39 O47 2.266 . S
In39 O48 2.326 . S
In39 O50 2.294 . S
In39 O51 2.326 . S
O40 In39 2.294 . S
O40 C49 1.240 . S
O41 In39 2.326 . S
O41 C49 1.252 . S
C42 O45 1.252 . S
C42 O46 1.260 . S
C43 O50 1.240 . S
C43 O51 1.252 . S
C44 O47 1.252 . S
C44 O48 1.260 . S
O45 In39 2.266 1_554 S
O45 C42 1.252 . S
O46 In39 2.326 1_554 S
O46 C42 1.260 . S
O47 In39 2.266 . S
O47 C44 1.252 . S
O48 In39 2.326 . S
O48 C44 1.260 . S
C49 O40 1.240 . S
C49 O41 1.252 . S
O50 In39 2.294 . S
O50 C43 1.240 . S
O51 In39 2.326 . S
O51 C43 1.252 . S
In52 O53 2.294 . S
In52 O54 2.326 . S
In52 O58 2.266 . S
In52 O59 2.326 . S
In52 O60 2.266 . S
In52 O61 2.326 . S
In52 O63 2.294 . S
In52 O64 2.326 . S
O53 In52 2.294 . S
O53 C62 1.240 . S
O54 In52 2.326 . S
O54 C62 1.252 . S
C55 O58 1.252 . S
C55 O59 1.260 . S
C56 O63 1.240 . S
C56 O64 1.252 . S
C57 O60 1.252 . S
C57 O61 1.260 . S
O58 In52 2.266 . S
O58 C55 1.252 . S
O59 In52 2.326 . S
O59 C55 1.260 . S
O60 In52 2.266 . S
O60 C57 1.252 . S
O61 In52 2.326 . S
O61 C57 1.260 . S
C62 O53 1.240 . S
C62 O54 1.252 . S
O63 In52 2.294 . S
O63 C56 1.240 . S
O64 In52 2.326 . S
O64 C56 1.252 . S
In65 O66 2.294 . S
In65 O67 2.326 . S
In65 O71 2.266 . S
In65 O72 2.326 . S
In65 O73 2.266 . S
In65 O74 2.326 . S
In65 O76 2.294 . S
In65 O77 2.326 . S
O66 In65 2.294 . S
O66 C75 1.240 . S
O67 In65 2.326 . S
O67 C75 1.252 . S
C68 O71 1.252 . S
C68 O72 1.260 . S
C69 O76 1.240 . S
C69 O77 1.252 . S
C70 O73 1.252 . S
C70 O74 1.260 . S
O71 In65 2.266 . S
O71 C68 1.252 . S
O72 In65 2.326 . S
O72 C68 1.260 . S
O73 In65 2.266 . S
O73 C70 1.252 . S
O74 In65 2.326 . S
O74 C70 1.260 . S
C75 O66 1.240 . S
C75 O67 1.252 . S
O76 In65 2.294 . S
O76 C69 1.240 . S
O77 In65 2.326 . S
O77 C69 1.252 . S
In78 O79 2.294 . S
In78 O80 2.326 . S
In78 O84 2.266 1_554 S
In78 O85 2.326 1_554 S
In78 O86 2.266 . S
In78 O87 2.326 . S
In78 O89 2.294 . S
In78 O90 2.326 . S
O79 In78 2.294 . S
O79 C88 1.240 . S
O80 In78 2.326 . S
O80 C88 1.252 . S
C81 O84 1.252 . S
C81 O85 1.260 . S
C82 O89 1.240 . S
C82 O90 1.252 . S
C83 O86 1.252 . S
C83 O87 1.260 . S
O84 In78 2.266 1_556 S
O84 C81 1.252 . S
O85 In78 2.326 1_556 S
O85 C81 1.260 . S
O86 In78 2.266 . S
O86 C83 1.252 . S
O87 In78 2.326 . S
O87 C83 1.260 . S
C88 O79 1.240 . S
C88 O80 1.252 . S
O89 In78 2.294 . S
O89 C82 1.240 . S
O90 In78 2.326 . S
O90 C82 1.252 . S
In91 O92 2.294 . S
In91 O93 2.326 . S
In91 O97 2.266 1_554 S
In91 O98 2.326 1_554 S
In91 O99 2.266 . S
In91 O100 2.326 . S
In91 O102 2.294 . S
In91 O103 2.326 . S
O92 In91 2.294 . S
O92 C101 1.240 . S
O93 In91 2.326 . S
O93 C101 1.252 . S
C94 O97 1.252 . S
C94 O98 1.260 . S
C95 O102 1.240 . S
C95 O103 1.252 . S
C96 O99 1.252 . S
C96 O100 1.260 . S
O97 In91 2.266 1_556 S
O97 C94 1.252 . S
O98 In91 2.326 1_556 S
O98 C94 1.260 . S
O99 In91 2.266 . S
O99 C96 1.252 . S
O100 In91 2.326 . S
O100 C96 1.260 . S
C101 O92 1.240 . S
C101 O93 1.252 . S
O102 In91 2.294 . S
O102 C95 1.240 . S
O103 In91 2.326 . S
O103 C95 1.252 . S
In104 O105 2.294 . S
In104 O106 2.326 . S
In104 O110 2.266 . S
In104 O111 2.326 . S
In104 O112 2.266 . S
In104 O113 2.326 . S
In104 O115 2.294 . S
In104 O116 2.326 . S
O105 In104 2.294 . S
O105 C114 1.240 . S
O106 In104 2.326 . S
O106 C114 1.252 . S
C107 O110 1.252 . S
C107 O111 1.260 . S
C108 O115 1.240 . S
C108 O116 1.252 . S
C109 O112 1.252 . S
C109 O113 1.260 . S
O110 In104 2.266 . S
O110 C107 1.252 . S
O111 In104 2.326 . S
O111 C107 1.260 . S
O112 In104 2.266 . S
O112 C109 1.252 . S
O113 In104 2.326 . S
O113 C109 1.260 . S
C114 O105 1.240 . S
C114 O106 1.252 . S
O115 In104 2.294 . S
O115 C108 1.240 . S
O116 In104 2.326 . S
O116 C108 1.252 . S
In117 O118 2.294 . S
In117 O119 2.326 . S
In117 O123 2.266 . S
In117 O124 2.326 . S
In117 O125 2.266 . S
In117 O126 2.326 . S
In117 O128 2.294 . S
In117 O129 2.326 . S
O118 In117 2.294 . S
O118 C127 1.240 . S
O119 In117 2.326 . S
O119 C127 1.252 . S
C120 O123 1.252 . S
C120 O124 1.260 . S
C121 O128 1.240 . S
C121 O129 1.252 . S
C122 O125 1.252 . S
C122 O126 1.260 . S
O123 In117 2.266 . S
O123 C120 1.252 . S
O124 In117 2.326 . S
O124 C120 1.260 . S
O125 In117 2.266 . S
O125 C122 1.252 . S
O126 In117 2.326 . S
O126 C122 1.260 . S
C127 O118 1.240 . S
C127 O119 1.252 . S
O128 In117 2.294 . S
O128 C121 1.240 . S
O129 In117 2.326 . S
O129 C121 1.252 . S
In130 O131 2.294 . S
In130 O132 2.326 . S
In130 O136 2.266 . S
In130 O137 2.326 . S
In130 O138 2.266 . S
In130 O139 2.326 . S
In130 O141 2.294 . S
In130 O142 2.326 . S
O131 In130 2.294 . S
O131 C140 1.240 . S
O132 In130 2.326 . S
O132 C140 1.252 . S
C133 O136 1.252 . S
C133 O137 1.260 . S
C134 O141 1.240 . S
C134 O142 1.252 . S
C135 O138 1.252 . S
C135 O139 1.260 . S
O136 In130 2.266 . S
O136 C133 1.252 . S
O137 In130 2.326 . S
O137 C133 1.260 . S
O138 In130 2.266 . S
O138 C135 1.252 . S
O139 In130 2.326 . S
O139 C135 1.260 . S
C140 O131 1.240 . S
C140 O132 1.252 . S
O141 In130 2.294 . S
O141 C134 1.240 . S
O142 In130 2.326 . S
O142 C134 1.252 . S
In143 O144 2.294 . S
In143 O145 2.326 . S
In143 O149 2.266 . S
In143 O150 2.326 . S
In143 O151 2.266 . S
In143 O152 2.326 . S
In143 O154 2.294 . S
In143 O155 2.326 . S
O144 In143 2.294 . S
O144 C153 1.240 . S
O145 In143 2.326 . S
O145 C153 1.252 . S
C146 O149 1.252 . S
C146 O150 1.260 . S
C147 O154 1.240 . S
C147 O155 1.252 . S
C148 O151 1.252 . S
C148 O152 1.260 . S
O149 In143 2.266 . S
O149 C146 1.252 . S
O150 In143 2.326 . S
O150 C146 1.260 . S
O151 In143 2.266 . S
O151 C148 1.252 . S
O152 In143 2.326 . S
O152 C148 1.260 . S
C153 O144 1.240 . S
C153 O145 1.252 . S
O154 In143 2.294 . S
O154 C147 1.240 . S
O155 In143 2.326 . S
O155 C147 1.252 . S
In156 O157 2.294 . S
In156 O158 2.326 . S
In156 O162 2.266 . S
In156 O163 2.326 . S
In156 O164 2.266 . S
In156 O165 2.326 . S
In156 O167 2.294 . S
In156 O168 2.326 . S
O157 In156 2.294 . S
O157 C166 1.240 . S
O158 In156 2.326 . S
O158 C166 1.252 . S
C159 O162 1.252 . S
C159 O163 1.260 . S
C160 O167 1.240 . S
C160 O168 1.252 . S
C161 O164 1.252 . S
C161 O165 1.260 . S
O162 In156 2.266 . S
O162 C159 1.252 . S
O163 In156 2.326 . S
O163 C159 1.260 . S
O164 In156 2.266 . S
O164 C161 1.252 . S
O165 In156 2.326 . S
O165 C161 1.260 . S
C166 O157 1.240 . S
C166 O158 1.252 . S
O167 In156 2.294 . S
O167 C160 1.240 . S
O168 In156 2.326 . S
O168 C160 1.252 . S
In169 O170 2.294 . S
In169 O171 2.326 . S
In169 O175 2.266 . S
In169 O176 2.326 . S
In169 O177 2.266 . S
In169 O178 2.326 . S
In169 O180 2.294 . S
In169 O181 2.326 . S
O170 In169 2.294 . S
O170 C179 1.240 . S
O171 In169 2.326 . S
O171 C179 1.252 . S
C172 O175 1.252 . S
C172 O176 1.260 . S
C173 O180 1.240 . S
C173 O181 1.252 . S
C174 O177 1.252 . S
C174 O178 1.260 . S
O175 In169 2.266 . S
O175 C172 1.252 . S
O176 In169 2.326 . S
O176 C172 1.260 . S
O177 In169 2.266 . S
O177 C174 1.252 . S
O178 In169 2.326 . S
O178 C174 1.260 . S
C179 O170 1.240 . S
C179 O171 1.252 . S
O180 In169 2.294 . S
O180 C173 1.240 . S
O181 In169 2.326 . S
O181 C173 1.252 . S
In182 O183 2.294 . S
In182 O184 2.326 . S
In182 O188 2.266 . S
In182 O189 2.326 . S
In182 O190 2.266 . S
In182 O191 2.326 . S
In182 O193 2.294 . S
In182 O194 2.326 . S
O183 In182 2.294 . S
O183 C192 1.240 . S
O184 In182 2.326 . S
O184 C192 1.252 . S
C185 O188 1.252 . S
C185 O189 1.260 . S
C186 O193 1.240 . S
C186 O194 1.252 . S
C187 O190 1.252 . S
C187 O191 1.260 . S
O188 In182 2.266 . S
O188 C185 1.252 . S
O189 In182 2.326 . S
O189 C185 1.260 . S
O190 In182 2.266 . S
O190 C187 1.252 . S
O191 In182 2.326 . S
O191 C187 1.260 . S
C192 O183 1.240 . S
C192 O184 1.252 . S
O193 In182 2.294 . S
O193 C186 1.240 . S
O194 In182 2.326 . S
O194 C186 1.252 . S
In195 O196 2.294 . S
In195 O197 2.326 . S
In195 O201 2.266 . S
In195 O202 2.326 . S
In195 O203 2.266 . S
In195 O204 2.326 . S
In195 O206 2.294 . S
In195 O207 2.326 . S
O196 In195 2.294 . S
O196 C205 1.240 . S
O197 In195 2.326 . S
O197 C205 1.252 . S
C198 O201 1.252 . S
C198 O202 1.260 . S
C199 O206 1.240 . S
C199 O207 1.252 . S
C200 O203 1.252 . S
C200 O204 1.260 . S
O201 In195 2.266 . S
O201 C198 1.252 . S
O202 In195 2.326 . S
O202 C198 1.260 . S
O203 In195 2.266 . S
O203 C200 1.252 . S
O204 In195 2.326 . S
O204 C200 1.260 . S
C205 O196 1.240 . S
C205 O197 1.252 . S
O206 In195 2.294 . S
O206 C199 1.240 . S
O207 In195 2.326 . S
O207 C199 1.252 . S
In208 O209 2.294 . S
In208 O210 2.326 . S
In208 O214 2.266 . S
In208 O215 2.326 . S
In208 O216 2.266 . S
In208 O217 2.326 . S
In208 O219 2.294 . S
In208 O220 2.326 . S
O209 In208 2.294 . S
O209 C218 1.240 . S
O210 In208 2.326 . S
O210 C218 1.252 . S
C211 O214 1.252 . S
C211 O215 1.260 . S
C212 O219 1.240 . S
C212 O220 1.252 . S
C213 O216 1.252 . S
C213 O217 1.260 . S
O214 In208 2.266 . S
O214 C211 1.252 . S
O215 In208 2.326 . S
O215 C211 1.260 . S
O216 In208 2.266 . S
O216 C213 1.252 . S
O217 In208 2.326 . S
O217 C213 1.260 . S
C218 O209 1.240 . S
C218 O210 1.252 . S
O219 In208 2.294 . S
O219 C212 1.240 . S
O220 In208 2.326 . S
O220 C212 1.252 . S
In221 O222 2.294 . S
In221 O223 2.326 . S
In221 O227 2.266 . S
In221 O228 2.326 . S
In221 O229 2.266 . S
In221 O230 2.326 . S
In221 O232 2.294 . S
In221 O233 2.326 . S
O222 In221 2.294 . S
O222 C231 1.240 . S
O223 In221 2.326 . S
O223 C231 1.252 . S
C224 O227 1.252 . S
C224 O228 1.260 . S
C225 O232 1.240 . S
C225 O233 1.252 . S
C226 O229 1.252 . S
C226 O230 1.260 . S
O227 In221 2.266 . S
O227 C224 1.252 . S
O228 In221 2.326 . S
O228 C224 1.260 . S
O229 In221 2.266 . S
O229 C226 1.252 . S
O230 In221 2.326 . S
O230 C226 1.260 . S
C231 O222 1.240 . S
C231 O223 1.252 . S
O232 In221 2.294 . S
O232 C225 1.240 . S
O233 In221 2.326 . S
O233 C225 1.252 . S
In234 O235 2.294 . S
In234 O236 2.326 . S
In234 O240 2.266 . S
In234 O241 2.326 . S
In234 O242 2.266 . S
In234 O243 2.326 . S
In234 O245 2.294 . S
In234 O246 2.326 . S
O235 In234 2.294 . S
O235 C244 1.240 . S
O236 In234 2.326 . S
O236 C244 1.252 . S
C237 O240 1.252 . S
C237 O241 1.260 . S
C238 O245 1.240 . S
C238 O246 1.252 . S
C239 O242 1.252 . S
C239 O243 1.260 . S
O240 In234 2.266 . S
O240 C237 1.252 . S
O241 In234 2.326 . S
O241 C237 1.260 . S
O242 In234 2.266 . S
O242 C239 1.252 . S
O243 In234 2.326 . S
O243 C239 1.260 . S
C244 O235 1.240 . S
C244 O236 1.252 . S
O245 In234 2.294 . S
O245 C238 1.240 . S
O246 In234 2.326 . S
O246 C238 1.252 . S
In247 O248 2.294 . S
In247 O249 2.326 . S
In247 O253 2.266 . S
In247 O254 2.326 . S
In247 O255 2.266 . S
In247 O256 2.326 . S
In247 O258 2.294 . S
In247 O259 2.326 . S
O248 In247 2.294 . S
O248 C257 1.240 . S
O249 In247 2.326 . S
O249 C257 1.252 . S
C250 O253 1.252 . S
C250 O254 1.260 . S
C251 O258 1.240 . S
C251 O259 1.252 . S
C252 O255 1.252 . S
C252 O256 1.260 . S
O253 In247 2.266 . S
O253 C250 1.252 . S
O254 In247 2.326 . S
O254 C250 1.260 . S
O255 In247 2.266 . S
O255 C252 1.252 . S
O256 In247 2.326 . S
O256 C252 1.260 . S
C257 O248 1.240 . S
C257 O249 1.252 . S
O258 In247 2.294 . S
O258 C251 1.240 . S
O259 In247 2.326 . S
O259 C251 1.252 . S
In260 O261 2.294 . S
In260 O262 2.326 . S
In260 O266 2.266 . S
In260 O267 2.326 . S
In260 O268 2.266 . S
In260 O269 2.326 . S
In260 O271 2.294 . S
In260 O272 2.326 . S
O261 In260 2.294 . S
O261 C270 1.240 . S
O262 In260 2.326 . S
O262 C270 1.252 . S
C263 O266 1.252 . S
C263 O267 1.260 . S
C264 O271 1.240 . S
C264 O272 1.252 . S
C265 O268 1.252 . S
C265 O269 1.260 . S
O266 In260 2.266 . S
O266 C263 1.252 . S
O267 In260 2.326 . S
O267 C263 1.260 . S
O268 In260 2.266 . S
O268 C265 1.252 . S
O269 In260 2.326 . S
O269 C265 1.260 . S
C270 O261 1.240 . S
C270 O262 1.252 . S
O271 In260 2.294 . S
O271 C264 1.240 . S
O272 In260 2.326 . S
O272 C264 1.252 . S
In273 O274 2.294 . S
In273 O275 2.326 . S
In273 O279 2.266 . S
In273 O280 2.326 . S
In273 O281 2.266 . S
In273 O282 2.326 . S
In273 O284 2.294 . S
In273 O285 2.326 . S
O274 In273 2.294 . S
O274 C283 1.240 . S
O275 In273 2.326 . S
O275 C283 1.252 . S
C276 O279 1.252 . S
C276 O280 1.260 . S
C277 O284 1.240 . S
C277 O285 1.252 . S
C278 O281 1.252 . S
C278 O282 1.260 . S
O279 In273 2.266 . S
O279 C276 1.252 . S
O280 In273 2.326 . S
O280 C276 1.260 . S
O281 In273 2.266 . S
O281 C278 1.252 . S
O282 In273 2.326 . S
O282 C278 1.260 . S
C283 O274 1.240 . S
C283 O275 1.252 . S
O284 In273 2.294 . S
O284 C277 1.240 . S
O285 In273 2.326 . S
O285 C277 1.252 . S
In286 O287 2.294 . S
In286 O288 2.326 . S
In286 O292 2.266 . S
In286 O293 2.326 . S
In286 O294 2.266 . S
In286 O295 2.326 . S
In286 O297 2.294 . S
In286 O298 2.326 . S
O287 In286 2.294 . S
O287 C296 1.240 . S
O288 In286 2.326 . S
O288 C296 1.252 . S
C289 O292 1.252 . S
C289 O293 1.260 . S
C290 O297 1.240 . S
C290 O298 1.252 . S
C291 O294 1.252 . S
C291 O295 1.260 . S
O292 In286 2.266 . S
O292 C289 1.252 . S
O293 In286 2.326 . S
O293 C289 1.260 . S
O294 In286 2.266 . S
O294 C291 1.252 . S
O295 In286 2.326 . S
O295 C291 1.260 . S
C296 O287 1.240 . S
C296 O288 1.252 . S
O297 In286 2.294 . S
O297 C290 1.240 . S
O298 In286 2.326 . S
O298 C290 1.252 . S
In299 O300 2.294 . S
In299 O301 2.326 . S
In299 O305 2.266 . S
In299 O306 2.326 . S
In299 O307 2.266 . S
In299 O308 2.326 . S
In299 O310 2.294 . S
In299 O311 2.326 . S
O300 In299 2.294 . S
O300 C309 1.240 . S
O301 In299 2.326 . S
O301 C309 1.252 . S
C302 O305 1.252 . S
C302 O306 1.260 . S
C303 O310 1.240 . S
C303 O311 1.252 . S
C304 O307 1.252 . S
C304 O308 1.260 . S
O305 In299 2.266 . S
O305 C302 1.252 . S
O306 In299 2.326 . S
O306 C302 1.260 . S
O307 In299 2.266 . S
O307 C304 1.252 . S
O308 In299 2.326 . S
O308 C304 1.260 . S
C309 O300 1.240 . S
C309 O301 1.252 . S
O310 In299 2.294 . S
O310 C303 1.240 . S
O311 In299 2.326 . S
O311 C303 1.252 . S
In312 O313 2.294 . S
In312 O314 2.326 . S
In312 O318 2.266 . S
In312 O319 2.326 . S
In312 O320 2.266 . S
In312 O321 2.326 . S
In312 O323 2.294 . S
In312 O324 2.326 . S
O313 In312 2.294 . S
O313 C322 1.240 . S
O314 In312 2.326 . S
O314 C322 1.252 . S
C315 O318 1.252 . S
C315 O319 1.260 . S
C316 O323 1.240 . S
C316 O324 1.252 . S
C317 O320 1.252 . S
C317 O321 1.260 . S
O318 In312 2.266 . S
O318 C315 1.252 . S
O319 In312 2.326 . S
O319 C315 1.260 . S
O320 In312 2.266 . S
O320 C317 1.252 . S
O321 In312 2.326 . S
O321 C317 1.260 . S
C322 O313 1.240 . S
C322 O314 1.252 . S
O323 In312 2.294 . S
O323 C316 1.240 . S
O324 In312 2.326 . S
O324 C316 1.252 . S
In325 O326 2.294 . S
In325 O327 2.326 . S
In325 O331 2.266 . S
In325 O332 2.326 . S
In325 O333 2.266 . S
In325 O334 2.326 . S
In325 O336 2.294 . S
In325 O337 2.326 . S
O326 In325 2.294 . S
O326 C335 1.240 . S
O327 In325 2.326 . S
O327 C335 1.252 . S
C328 O331 1.252 . S
C328 O332 1.260 . S
C329 O336 1.240 . S
C329 O337 1.252 . S
C330 O333 1.252 . S
C330 O334 1.260 . S
O331 In325 2.266 . S
O331 C328 1.252 . S
O332 In325 2.326 . S
O332 C328 1.260 . S
O333 In325 2.266 . S
O333 C330 1.252 . S
O334 In325 2.326 . S
O334 C330 1.260 . S
C335 O326 1.240 . S
C335 O327 1.252 . S
O336 In325 2.294 . S
O336 C329 1.240 . S
O337 In325 2.326 . S
O337 C329 1.252 . S
In338 O339 2.294 . S
In338 O340 2.326 . S
In338 O344 2.266 . S
In338 O345 2.326 . S
In338 O346 2.266 1_556 S
In338 O347 2.326 1_556 S
In338 O349 2.294 . S
In338 O350 2.326 . S
O339 In338 2.294 . S
O339 C348 1.240 . S
O340 In338 2.326 . S
O340 C348 1.252 . S
C341 O344 1.252 . S
C341 O345 1.260 . S
C342 O349 1.240 . S
C342 O350 1.252 . S
C343 O346 1.252 . S
C343 O347 1.260 . S
O344 In338 2.266 . S
O344 C341 1.252 . S
O345 In338 2.326 . S
O345 C341 1.260 . S
O346 In338 2.266 1_554 S
O346 C343 1.252 . S
O347 In338 2.326 1_554 S
O347 C343 1.260 . S
C348 O339 1.240 . S
C348 O340 1.252 . S
O349 In338 2.294 . S
O349 C342 1.240 . S
O350 In338 2.326 . S
O350 C342 1.252 . S
In351 O352 2.294 . S
In351 O353 2.326 . S
In351 O357 2.266 1_556 S
In351 O358 2.326 1_556 S
In351 O359 2.266 . S
In351 O360 2.326 . S
In351 O362 2.294 . S
In351 O363 2.326 . S
O352 In351 2.294 . S
O352 C361 1.240 . S
O353 In351 2.326 . S
O353 C361 1.252 . S
C354 O357 1.252 . S
C354 O358 1.260 . S
C355 O362 1.240 . S
C355 O363 1.252 . S
C356 O359 1.252 . S
C356 O360 1.260 . S
O357 In351 2.266 1_554 S
O357 C354 1.252 . S
O358 In351 2.326 1_554 S
O358 C354 1.260 . S
O359 In351 2.266 . S
O359 C356 1.252 . S
O360 In351 2.326 . S
O360 C356 1.260 . S
C361 O352 1.240 . S
C361 O353 1.252 . S
O362 In351 2.294 . S
O362 C355 1.240 . S
O363 In351 2.326 . S
O363 C355 1.252 . S
In364 O365 2.294 . S
In364 O366 2.326 . S
In364 O370 2.266 . S
In364 O371 2.326 . S
In364 O372 2.266 . S
In364 O373 2.326 . S
In364 O375 2.294 . S
In364 O376 2.326 . S
O365 In364 2.294 . S
O365 C374 1.240 . S
O366 In364 2.326 . S
O366 C374 1.252 . S
C367 O370 1.252 . S
C367 O371 1.260 . S
C368 O375 1.240 . S
C368 O376 1.252 . S
C369 O372 1.252 . S
C369 O373 1.260 . S
O370 In364 2.266 . S
O370 C367 1.252 . S
O371 In364 2.326 . S
O371 C367 1.260 . S
O372 In364 2.266 . S
O372 C369 1.252 . S
O373 In364 2.326 . S
O373 C369 1.260 . S
C374 O365 1.240 . S
C374 O366 1.252 . S
O375 In364 2.294 . S
O375 C368 1.240 . S
O376 In364 2.326 . S
O376 C368 1.252 . S
In377 O378 2.294 . S
In377 O379 2.326 . S
In377 O383 2.266 . S
In377 O384 2.326 . S
In377 O385 2.266 . S
In377 O386 2.326 . S
In377 O388 2.294 . S
In377 O389 2.326 . S
O378 In377 2.294 . S
O378 C387 1.240 . S
O379 In377 2.326 . S
O379 C387 1.252 . S
C380 O383 1.252 . S
C380 O384 1.260 . S
C381 O388 1.240 . S
C381 O389 1.252 . S
C382 O385 1.252 . S
C382 O386 1.260 . S
O383 In377 2.266 . S
O383 C380 1.252 . S
O384 In377 2.326 . S
O384 C380 1.260 . S
O385 In377 2.266 . S
O385 C382 1.252 . S
O386 In377 2.326 . S
O386 C382 1.260 . S
C387 O378 1.240 . S
C387 O379 1.252 . S
O388 In377 2.294 . S
O388 C381 1.240 . S
O389 In377 2.326 . S
O389 C381 1.252 . S
In390 O391 2.294 . S
In390 O392 2.326 . S
In390 O396 2.266 1_554 S
In390 O397 2.326 1_554 S
In390 O398 2.266 . S
In390 O399 2.326 . S
In390 O401 2.294 . S
In390 O402 2.326 . S
O391 In390 2.294 . S
O391 C400 1.240 . S
O392 In390 2.326 . S
O392 C400 1.252 . S
C393 O396 1.252 . S
C393 O397 1.260 . S
C394 O401 1.240 . S
C394 O402 1.252 . S
C395 O398 1.252 . S
C395 O399 1.260 . S
O396 In390 2.266 1_556 S
O396 C393 1.252 . S
O397 In390 2.326 1_556 S
O397 C393 1.260 . S
O398 In390 2.266 . S
O398 C395 1.252 . S
O399 In390 2.326 . S
O399 C395 1.260 . S
C400 O391 1.240 . S
C400 O392 1.252 . S
O401 In390 2.294 . S
O401 C394 1.240 . S
O402 In390 2.326 . S
O402 C394 1.252 . S
In403 O404 2.294 . S
In403 O405 2.326 . S
In403 O409 2.266 1_554 S
In403 O410 2.326 1_554 S
In403 O411 2.266 . S
In403 O412 2.326 . S
In403 O414 2.294 . S
In403 O415 2.326 . S
O404 In403 2.294 . S
O404 C413 1.240 . S
O405 In403 2.326 . S
O405 C413 1.252 . S
C406 O409 1.252 . S
C406 O410 1.260 . S
C407 O414 1.240 . S
C407 O415 1.252 . S
C408 O411 1.252 . S
C408 O412 1.260 . S
O409 In403 2.266 1_556 S
O409 C406 1.252 . S
O410 In403 2.326 1_556 S
O410 C406 1.260 . S
O411 In403 2.266 . S
O411 C408 1.252 . S
O412 In403 2.326 . S
O412 C408 1.260 . S
C413 O404 1.240 . S
C413 O405 1.252 . S
O414 In403 2.294 . S
O414 C407 1.240 . S
O415 In403 2.326 . S
O415 C407 1.252 . S
H416 C428 0.930 . S
H417 C430 0.930 . S
H418 C431 0.930 . S
H419 C435 0.959 . S
H420 C435 0.959 . S
H421 C435 0.961 . S
H422 C436 0.960 . S
H423 C436 0.961 . S
H424 C436 0.959 . S
H425 C439 0.929 . S
H426 C440 0.931 . S
H427 C442 0.930 . S
C428 H416 0.930 . S
C428 C429 1.399 . S
C428 C433 1.399 . S
C429 C428 1.399 . S
C429 C430 1.376 . S
C430 H417 0.930 . S
C430 C429 1.376 . S
C430 C431 1.388 . S
C431 H418 0.930 . S
C431 C430 1.388 . S
C431 C432 1.390 . S
C432 C431 1.390 . S
C432 C433 1.394 . S
C432 C438 1.465 . S
C433 C428 1.399 . S
C433 C432 1.394 . S
C433 C434 1.516 . S
C434 C433 1.516 . S
C434 C435 1.502 . S
C434 C436 1.561 . S
C434 C437 1.526 . S
C435 H419 0.959 . S
C435 H420 0.959 . S
C435 H421 0.961 . S
C435 C434 1.502 . S
C436 H422 0.960 . S
C436 H423 0.961 . S
C436 H424 0.959 . S
C436 C434 1.561 . S
C437 C434 1.526 . S
C437 C438 1.396 . S
C437 C442 1.390 . S
C438 C432 1.465 . S
C438 C437 1.396 . S
C438 C439 1.399 . S
C439 H425 0.929 . S
C439 C438 1.399 . S
C439 C440 1.385 . S
C440 H426 0.931 . S
C440 C439 1.385 . S
C440 C441 1.389 . S
C441 C440 1.389 . S
C441 C442 1.387 . S
C442 H427 0.930 . S
C442 C437 1.390 . S
C442 C441 1.387 . S
H443 C455 0.930 . S
H444 C457 0.930 . S
H445 C458 0.930 . S
H446 C462 0.959 . S
H447 C462 0.959 . S
H448 C462 0.961 . S
H449 C463 0.960 . S
H450 C463 0.961 . S
H451 C463 0.959 . S
H452 C466 0.929 . S
H453 C467 0.931 . S
H454 C469 0.930 . S
C455 H443 0.930 . S
C455 C456 1.399 . S
C455 C460 1.399 . S
C456 C455 1.399 . S
C456 C457 1.376 . S
C457 H444 0.930 . S
C457 C456 1.376 . S
C457 C458 1.388 . S
C458 H445 0.930 . S
C458 C457 1.388 . S
C458 C459 1.390 . S
C459 C458 1.390 . S
C459 C460 1.394 . S
C459 C465 1.465 . S
C460 C455 1.399 . S
C460 C459 1.394 . S
C460 C461 1.516 . S
C461 C460 1.516 . S
C461 C462 1.502 . S
C461 C463 1.561 . S
C461 C464 1.526 . S
C462 H446 0.959 . S
C462 H447 0.959 . S
C462 H448 0.961 . S
C462 C461 1.502 . S
C463 H449 0.960 . S
C463 H450 0.961 . S
C463 H451 0.959 . S
C463 C461 1.561 . S
C464 C461 1.526 . S
C464 C465 1.396 . S
C464 C469 1.390 . S
C465 C459 1.465 . S
C465 C464 1.396 . S
C465 C466 1.399 . S
C466 H452 0.929 . S
C466 C465 1.399 . S
C466 C467 1.385 . S
C467 H453 0.931 . S
C467 C466 1.385 . S
C467 C468 1.389 . S
C468 C467 1.389 . S
C468 C469 1.387 . S
C469 H454 0.930 . S
C469 C464 1.390 . S
C469 C468 1.387 . S
H470 C482 0.930 . S
H471 C484 0.930 . S
H472 C485 0.930 . S
H473 C489 0.959 . S
H474 C489 0.959 . S
H475 C489 0.961 . S
H476 C490 0.960 . S
H477 C490 0.961 . S
H478 C490 0.959 . S
H479 C493 0.929 . S
H480 C494 0.931 . S
H481 C496 0.930 . S
C482 H470 0.930 . S
C482 C483 1.399 . S
C482 C487 1.399 . S
C483 C482 1.399 . S
C483 C484 1.376 . S
C484 H471 0.930 . S
C484 C483 1.376 . S
C484 C485 1.388 . S
C485 H472 0.930 . S
C485 C484 1.388 . S
C485 C486 1.390 . S
C486 C485 1.390 . S
C486 C487 1.394 . S
C486 C492 1.465 . S
C487 C482 1.399 . S
C487 C486 1.394 . S
C487 C488 1.516 . S
C488 C487 1.516 . S
C488 C489 1.502 . S
C488 C490 1.561 . S
C488 C491 1.526 . S
C489 H473 0.959 . S
C489 H474 0.959 . S
C489 H475 0.961 . S
C489 C488 1.502 . S
C490 H476 0.960 . S
C490 H477 0.961 . S
C490 H478 0.959 . S
C490 C488 1.561 . S
C491 C488 1.526 . S
C491 C492 1.396 . S
C491 C496 1.390 . S
C492 C486 1.465 . S
C492 C491 1.396 . S
C492 C493 1.399 . S
C493 H479 0.929 . S
C493 C492 1.399 . S
C493 C494 1.385 . S
C494 H480 0.931 . S
C494 C493 1.385 . S
C494 C495 1.389 . S
C495 C494 1.389 . S
C495 C496 1.387 . S
C496 H481 0.930 . S
C496 C491 1.390 . S
C496 C495 1.387 . S
H497 C509 0.930 . S
H498 C511 0.930 . S
H499 C512 0.930 . S
H500 C516 0.959 . S
H501 C516 0.959 . S
H502 C516 0.961 . S
H503 C517 0.960 . S
H504 C517 0.961 . S
H505 C517 0.959 . S
H506 C520 0.929 . S
H507 C521 0.931 . S
H508 C523 0.930 . S
C509 H497 0.930 . S
C509 C510 1.399 . S
C509 C514 1.399 . S
C510 C509 1.399 . S
C510 C511 1.376 . S
C511 H498 0.930 . S
C511 C510 1.376 . S
C511 C512 1.388 . S
C512 H499 0.930 . S
C512 C511 1.388 . S
C512 C513 1.390 . S
C513 C512 1.390 . S
C513 C514 1.394 . S
C513 C519 1.465 . S
C514 C509 1.399 . S
C514 C513 1.394 . S
C514 C515 1.516 . S
C515 C514 1.516 . S
C515 C516 1.502 . S
C515 C517 1.561 . S
C515 C518 1.526 . S
C516 H500 0.959 . S
C516 H501 0.959 . S
C516 H502 0.961 . S
C516 C515 1.502 . S
C517 H503 0.960 . S
C517 H504 0.961 . S
C517 H505 0.959 . S
C517 C515 1.561 . S
C518 C515 1.526 . S
C518 C519 1.396 . S
C518 C523 1.390 . S
C519 C513 1.465 . S
C519 C518 1.396 . S
C519 C520 1.399 . S
C520 H506 0.929 . S
C520 C519 1.399 . S
C520 C521 1.385 . S
C521 H507 0.931 . S
C521 C520 1.385 . S
C521 C522 1.389 . S
C522 C521 1.389 . S
C522 C523 1.387 . S
C523 H508 0.930 . S
C523 C518 1.390 . S
C523 C522 1.387 . S
H524 C536 0.930 . S
H525 C538 0.930 . S
H526 C539 0.930 . S
H527 C543 0.959 1_455 S
H528 C543 0.959 . S
H529 C543 0.961 . S
H530 C544 0.960 . S
H531 C544 0.961 . S
H532 C544 0.959 . S
H533 C547 0.929 . S
H534 C548 0.931 . S
H535 C550 0.930 . S
C536 H524 0.930 . S
C536 C537 1.399 . S
C536 C541 1.399 . S
C537 C536 1.399 . S
C537 C538 1.376 . S
C538 H525 0.930 . S
C538 C537 1.376 . S
C538 C539 1.388 . S
C539 H526 0.930 . S
C539 C538 1.388 . S
C539 C540 1.390 . S
C540 C539 1.390 . S
C540 C541 1.394 . S
C540 C546 1.465 . S
C541 C536 1.399 . S
C541 C540 1.394 . S
C541 C542 1.516 . S
C542 C541 1.516 . S
C542 C543 1.502 . S
C542 C544 1.561 . S
C542 C545 1.526 . S
C543 H527 0.959 1_655 S
C543 H528 0.959 . S
C543 H529 0.961 . S
C543 C542 1.502 . S
C544 H530 0.960 . S
C544 H531 0.961 . S
C544 H532 0.959 . S
C544 C542 1.561 . S
C545 C542 1.526 . S
C545 C546 1.396 . S
C545 C550 1.390 . S
C546 C540 1.465 . S
C546 C545 1.396 . S
C546 C547 1.399 . S
C547 H533 0.929 . S
C547 C546 1.399 . S
C547 C548 1.385 . S
C548 H534 0.931 . S
C548 C547 1.385 . S
C548 C549 1.389 . S
C549 C548 1.389 . S
C549 C550 1.387 . S
C550 H535 0.930 . S
C550 C545 1.390 . S
C550 C549 1.387 . S
H551 C563 0.930 . S
H552 C565 0.930 . S
H553 C566 0.930 . S
H554 C570 0.959 . S
H555 C570 0.959 . S
H556 C570 0.961 . S
H557 C571 0.960 . S
H558 C571 0.961 . S
H559 C571 0.959 . S
H560 C574 0.929 . S
H561 C575 0.931 . S
H562 C577 0.930 . S
C563 H551 0.930 . S
C563 C564 1.399 . S
C563 C568 1.399 . S
C564 C563 1.399 . S
C564 C565 1.376 . S
C565 H552 0.930 . S
C565 C564 1.376 . S
C565 C566 1.388 . S
C566 H553 0.930 . S
C566 C565 1.388 . S
C566 C567 1.390 . S
C567 C566 1.390 . S
C567 C568 1.394 . S
C567 C573 1.465 . S
C568 C563 1.399 . S
C568 C567 1.394 . S
C568 C569 1.516 . S
C569 C568 1.516 . S
C569 C570 1.502 . S
C569 C571 1.561 . S
C569 C572 1.526 . S
C570 H554 0.959 . S
C570 H555 0.959 . S
C570 H556 0.961 . S
C570 C569 1.502 . S
C571 H557 0.960 . S
C571 H558 0.961 . S
C571 H559 0.959 . S
C571 C569 1.561 . S
C572 C569 1.526 . S
C572 C573 1.396 . S
C572 C577 1.390 . S
C573 C567 1.465 . S
C573 C572 1.396 . S
C573 C574 1.399 . S
C574 H560 0.929 . S
C574 C573 1.399 . S
C574 C575 1.385 . S
C575 H561 0.931 . S
C575 C574 1.385 . S
C575 C576 1.389 . S
C576 C575 1.389 . S
C576 C577 1.387 . S
C577 H562 0.930 . S
C577 C572 1.390 . S
C577 C576 1.387 . S
H578 C590 0.930 . S
H579 C592 0.930 . S
H580 C593 0.930 . S
H581 C597 0.959 . S
H582 C597 0.959 . S
H583 C597 0.961 . S
H584 C598 0.960 . S
H585 C598 0.961 . S
H586 C598 0.959 . S
H587 C601 0.929 . S
H588 C602 0.931 . S
H589 C604 0.930 . S
C590 H578 0.930 . S
C590 C591 1.399 . S
C590 C595 1.399 . S
C591 C590 1.399 . S
C591 C592 1.376 . S
C592 H579 0.930 . S
C592 C591 1.376 . S
C592 C593 1.388 . S
C593 H580 0.930 . S
C593 C592 1.388 . S
C593 C594 1.390 . S
C594 C593 1.390 . S
C594 C595 1.394 . S
C594 C600 1.465 . S
C595 C590 1.399 . S
C595 C594 1.394 . S
C595 C596 1.516 . S
C596 C595 1.516 . S
C596 C597 1.502 . S
C596 C598 1.561 . S
C596 C599 1.526 . S
C597 H581 0.959 . S
C597 H582 0.959 . S
C597 H583 0.961 . S
C597 C596 1.502 . S
C598 H584 0.960 . S
C598 H585 0.961 . S
C598 H586 0.959 . S
C598 C596 1.561 . S
C599 C596 1.526 . S
C599 C600 1.396 . S
C599 C604 1.390 . S
C600 C594 1.465 . S
C600 C599 1.396 . S
C600 C601 1.399 . S
C601 H587 0.929 . S
C601 C600 1.399 . S
C601 C602 1.385 . S
C602 H588 0.931 . S
C602 C601 1.385 . S
C602 C603 1.389 . S
C603 C602 1.389 . S
C603 C604 1.387 . S
C604 H589 0.930 . S
C604 C599 1.390 . S
C604 C603 1.387 . S
H605 C617 0.930 . S
H606 C619 0.930 . S
H607 C620 0.930 . S
H608 C624 0.959 . S
H609 C624 0.959 . S
H610 C624 0.961 . S
H611 C625 0.960 . S
H612 C625 0.961 . S
H613 C625 0.959 . S
H614 C628 0.929 . S
H615 C629 0.931 . S
H616 C631 0.930 . S
C617 H605 0.930 . S
C617 C618 1.399 . S
C617 C622 1.399 . S
C618 C617 1.399 . S
C618 C619 1.376 . S
C619 H606 0.930 . S
C619 C618 1.376 . S
C619 C620 1.388 . S
C620 H607 0.930 . S
C620 C619 1.388 . S
C620 C621 1.390 . S
C621 C620 1.390 . S
C621 C622 1.394 . S
C621 C627 1.465 . S
C622 C617 1.399 . S
C622 C621 1.394 . S
C622 C623 1.516 . S
C623 C622 1.516 . S
C623 C624 1.502 . S
C623 C625 1.561 . S
C623 C626 1.526 . S
C624 H608 0.959 . S
C624 H609 0.959 . S
C624 H610 0.961 . S
C624 C623 1.502 . S
C625 H611 0.960 . S
C625 H612 0.961 . S
C625 H613 0.959 . S
C625 C623 1.561 . S
C626 C623 1.526 . S
C626 C627 1.396 . S
C626 C631 1.390 . S
C627 C621 1.465 . S
C627 C626 1.396 . S
C627 C628 1.399 . S
C628 H614 0.929 . S
C628 C627 1.399 . S
C628 C629 1.385 . S
C629 H615 0.931 . S
C629 C628 1.385 . S
C629 C630 1.389 . S
C630 C629 1.389 . S
C630 C631 1.387 . S
C631 H616 0.930 . S
C631 C626 1.390 . S
C631 C630 1.387 . S
H632 C644 0.930 . S
H633 C646 0.930 . S
H634 C647 0.930 . S
H635 C651 0.959 . S
H636 C651 0.959 . S
H637 C651 0.961 . S
H638 C652 0.960 . S
H639 C652 0.961 . S
H640 C652 0.959 . S
H641 C655 0.929 . S
H642 C656 0.931 . S
H643 C658 0.930 . S
C644 H632 0.930 . S
C644 C645 1.399 . S
C644 C649 1.399 . S
C645 C644 1.399 . S
C645 C646 1.376 . S
C646 H633 0.930 . S
C646 C645 1.376 . S
C646 C647 1.388 . S
C647 H634 0.930 . S
C647 C646 1.388 . S
C647 C648 1.390 . S
C648 C647 1.390 . S
C648 C649 1.394 . S
C648 C654 1.465 . S
C649 C644 1.399 . S
C649 C648 1.394 . S
C649 C650 1.516 . S
C650 C649 1.516 . S
C650 C651 1.502 . S
C650 C652 1.561 . S
C650 C653 1.526 . S
C651 H635 0.959 . S
C651 H636 0.959 . S
C651 H637 0.961 . S
C651 C650 1.502 . S
C652 H638 0.960 . S
C652 H639 0.961 . S
C652 H640 0.959 . S
C652 C650 1.561 . S
C653 C650 1.526 . S
C653 C654 1.396 . S
C653 C658 1.390 . S
C654 C648 1.465 . S
C654 C653 1.396 . S
C654 C655 1.399 . S
C655 H641 0.929 . S
C655 C654 1.399 . S
C655 C656 1.385 . S
C656 H642 0.931 . S
C656 C655 1.385 . S
C656 C657 1.389 . S
C657 C656 1.389 . S
C657 C658 1.387 . S
C658 H643 0.930 . S
C658 C653 1.390 . S
C658 C657 1.387 . S
H659 C671 0.930 . S
H660 C673 0.930 . S
H661 C674 0.930 . S
H662 C678 0.959 . S
H663 C678 0.959 . S
H664 C678 0.961 . S
H665 C679 0.960 . S
H666 C679 0.961 . S
H667 C679 0.959 . S
H668 C682 0.929 . S
H669 C683 0.931 . S
H670 C685 0.930 . S
C671 H659 0.930 . S
C671 C672 1.399 . S
C671 C676 1.399 . S
C672 C671 1.399 . S
C672 C673 1.376 . S
C673 H660 0.930 . S
C673 C672 1.376 . S
C673 C674 1.388 . S
C674 H661 0.930 . S
C674 C673 1.388 . S
C674 C675 1.390 . S
C675 C674 1.390 . S
C675 C676 1.394 . S
C675 C681 1.465 . S
C676 C671 1.399 . S
C676 C675 1.394 . S
C676 C677 1.516 . S
C677 C676 1.516 . S
C677 C678 1.502 . S
C677 C679 1.561 . S
C677 C680 1.526 . S
C678 H662 0.959 . S
C678 H663 0.959 . S
C678 H664 0.961 . S
C678 C677 1.502 . S
C679 H665 0.960 . S
C679 H666 0.961 . S
C679 H667 0.959 . S
C679 C677 1.561 . S
C680 C677 1.526 . S
C680 C681 1.396 . S
C680 C685 1.390 . S
C681 C675 1.465 . S
C681 C680 1.396 . S
C681 C682 1.399 . S
C682 H668 0.929 . S
C682 C681 1.399 . S
C682 C683 1.385 . S
C683 H669 0.931 . S
C683 C682 1.385 . S
C683 C684 1.389 . S
C684 C683 1.389 . S
C684 C685 1.387 . S
C685 H670 0.930 . S
C685 C680 1.390 . S
C685 C684 1.387 . S
H686 C698 0.930 . S
H687 C700 0.930 . S
H688 C701 0.930 . S
H689 C705 0.959 . S
H690 C705 0.959 . S
H691 C705 0.961 . S
H692 C706 0.960 . S
H693 C706 0.961 . S
H694 C706 0.959 . S
H695 C709 0.929 . S
H696 C710 0.931 . S
H697 C712 0.930 . S
C698 H686 0.930 . S
C698 C699 1.399 . S
C698 C703 1.399 . S
C699 C698 1.399 . S
C699 C700 1.376 . S
C700 H687 0.930 . S
C700 C699 1.376 . S
C700 C701 1.388 . S
C701 H688 0.930 . S
C701 C700 1.388 . S
C701 C702 1.390 . S
C702 C701 1.390 . S
C702 C703 1.394 . S
C702 C708 1.465 . S
C703 C698 1.399 . S
C703 C702 1.394 . S
C703 C704 1.516 . S
C704 C703 1.516 . S
C704 C705 1.502 . S
C704 C706 1.561 . S
C704 C707 1.526 . S
C705 H689 0.959 . S
C705 H690 0.959 . S
C705 H691 0.961 . S
C705 C704 1.502 . S
C706 H692 0.960 . S
C706 H693 0.961 . S
C706 H694 0.959 . S
C706 C704 1.561 . S
C707 C704 1.526 . S
C707 C708 1.396 . S
C707 C712 1.390 . S
C708 C702 1.465 . S
C708 C707 1.396 . S
C708 C709 1.399 . S
C709 H695 0.929 . S
C709 C708 1.399 . S
C709 C710 1.385 . S
C710 H696 0.931 . S
C710 C709 1.385 . S
C710 C711 1.389 . S
C711 C710 1.389 . S
C711 C712 1.387 . S
C712 H697 0.930 . S
C712 C707 1.390 . S
C712 C711 1.387 . S
H713 C725 0.930 . S
H714 C727 0.930 . S
H715 C728 0.930 . S
H716 C732 0.959 . S
H717 C732 0.959 . S
H718 C732 0.961 . S
H719 C733 0.960 . S
H720 C733 0.961 . S
H721 C733 0.959 . S
H722 C736 0.929 . S
H723 C737 0.931 . S
H724 C739 0.930 . S
C725 H713 0.930 . S
C725 C726 1.399 . S
C725 C730 1.399 . S
C726 C725 1.399 . S
C726 C727 1.376 . S
C727 H714 0.930 . S
C727 C726 1.376 . S
C727 C728 1.388 . S
C728 H715 0.930 . S
C728 C727 1.388 . S
C728 C729 1.390 . S
C729 C728 1.390 . S
C729 C730 1.394 . S
C729 C735 1.465 . S
C730 C725 1.399 . S
C730 C729 1.394 . S
C730 C731 1.516 . S
C731 C730 1.516 . S
C731 C732 1.502 . S
C731 C733 1.561 . S
C731 C734 1.526 . S
C732 H716 0.959 . S
C732 H717 0.959 . S
C732 H718 0.961 . S
C732 C731 1.502 . S
C733 H719 0.960 . S
C733 H720 0.961 . S
C733 H721 0.959 . S
C733 C731 1.561 . S
C734 C731 1.526 . S
C734 C735 1.396 . S
C734 C739 1.390 . S
C735 C729 1.465 . S
C735 C734 1.396 . S
C735 C736 1.399 . S
C736 H722 0.929 . S
C736 C735 1.399 . S
C736 C737 1.385 . S
C737 H723 0.931 . S
C737 C736 1.385 . S
C737 C738 1.389 . S
C738 C737 1.389 . S
C738 C739 1.387 . S
C739 H724 0.930 . S
C739 C734 1.390 . S
C739 C738 1.387 . S
H740 C752 0.930 . S
H741 C754 0.930 . S
H742 C755 0.930 . S
H743 C759 0.959 . S
H744 C759 0.959 . S
H745 C759 0.961 . S
H746 C760 0.960 . S
H747 C760 0.961 . S
H748 C760 0.959 . S
H749 C763 0.929 . S
H750 C764 0.931 . S
H751 C766 0.930 . S
C752 H740 0.930 . S
C752 C753 1.399 . S
C752 C757 1.399 . S
C753 C752 1.399 . S
C753 C754 1.376 . S
C754 H741 0.930 . S
C754 C753 1.376 . S
C754 C755 1.388 . S
C755 H742 0.930 . S
C755 C754 1.388 . S
C755 C756 1.390 . S
C756 C755 1.390 . S
C756 C757 1.394 . S
C756 C762 1.465 . S
C757 C752 1.399 . S
C757 C756 1.394 . S
C757 C758 1.516 . S
C758 C757 1.516 . S
C758 C759 1.502 . S
C758 C760 1.561 . S
C758 C761 1.526 . S
C759 H743 0.959 . S
C759 H744 0.959 . S
C759 H745 0.961 . S
C759 C758 1.502 . S
C760 H746 0.960 . S
C760 H747 0.961 . S
C760 H748 0.959 . S
C760 C758 1.561 . S
C761 C758 1.526 . S
C761 C762 1.396 . S
C761 C766 1.390 . S
C762 C756 1.465 . S
C762 C761 1.396 . S
C762 C763 1.399 . S
C763 H749 0.929 . S
C763 C762 1.399 . S
C763 C764 1.385 . S
C764 H750 0.931 . S
C764 C763 1.385 . S
C764 C765 1.389 . S
C765 C764 1.389 . S
C765 C766 1.387 . S
C766 H751 0.930 . S
C766 C761 1.390 . S
C766 C765 1.387 . S
H767 C779 0.930 . S
H768 C781 0.930 . S
H769 C782 0.930 . S
H770 C786 0.959 . S
H771 C786 0.959 . S
H772 C786 0.961 . S
H773 C787 0.960 . S
H774 C787 0.961 . S
H775 C787 0.959 . S
H776 C790 0.929 . S
H777 C791 0.931 . S
H778 C793 0.930 . S
C779 H767 0.930 . S
C779 C780 1.399 . S
C779 C784 1.399 . S
C780 C779 1.399 . S
C780 C781 1.376 . S
C781 H768 0.930 . S
C781 C780 1.376 . S
C781 C782 1.388 . S
C782 H769 0.930 . S
C782 C781 1.388 . S
C782 C783 1.390 . S
C783 C782 1.390 . S
C783 C784 1.394 . S
C783 C789 1.465 . S
C784 C779 1.399 . S
C784 C783 1.394 . S
C784 C785 1.516 . S
C785 C784 1.516 . S
C785 C786 1.502 . S
C785 C787 1.561 . S
C785 C788 1.526 . S
C786 H770 0.959 . S
C786 H771 0.959 . S
C786 H772 0.961 . S
C786 C785 1.502 . S
C787 H773 0.960 . S
C787 H774 0.961 . S
C787 H775 0.959 . S
C787 C785 1.561 . S
C788 C785 1.526 . S
C788 C789 1.396 . S
C788 C793 1.390 . S
C789 C783 1.465 . S
C789 C788 1.396 . S
C789 C790 1.399 . S
C790 H776 0.929 . S
C790 C789 1.399 . S
C790 C791 1.385 . S
C791 H777 0.931 . S
C791 C790 1.385 . S
C791 C792 1.389 . S
C792 C791 1.389 . S
C792 C793 1.387 . S
C793 H778 0.930 . S
C793 C788 1.390 . S
C793 C792 1.387 . S
H794 C806 0.930 . S
H795 C808 0.930 . S
H796 C809 0.930 . S
H797 C813 0.959 . S
H798 C813 0.959 . S
H799 C813 0.961 . S
H800 C814 0.960 . S
H801 C814 0.961 . S
H802 C814 0.959 . S
H803 C817 0.929 . S
H804 C818 0.931 . S
H805 C820 0.930 . S
C806 H794 0.930 . S
C806 C807 1.399 . S
C806 C811 1.399 . S
C807 C806 1.399 . S
C807 C808 1.376 . S
C808 H795 0.930 . S
C808 C807 1.376 . S
C808 C809 1.388 . S
C809 H796 0.930 . S
C809 C808 1.388 . S
C809 C810 1.390 . S
C810 C809 1.390 . S
C810 C811 1.394 . S
C810 C816 1.465 . S
C811 C806 1.399 . S
C811 C810 1.394 . S
C811 C812 1.516 . S
C812 C811 1.516 . S
C812 C813 1.502 . S
C812 C814 1.561 . S
C812 C815 1.526 . S
C813 H797 0.959 . S
C813 H798 0.959 . S
C813 H799 0.961 . S
C813 C812 1.502 . S
C814 H800 0.960 . S
C814 H801 0.961 . S
C814 H802 0.959 . S
C814 C812 1.561 . S
C815 C812 1.526 . S
C815 C816 1.396 . S
C815 C820 1.390 . S
C816 C810 1.465 . S
C816 C815 1.396 . S
C816 C817 1.399 . S
C817 H803 0.929 . S
C817 C816 1.399 . S
C817 C818 1.385 . S
C818 H804 0.931 . S
C818 C817 1.385 . S
C818 C819 1.389 . S
C819 C818 1.389 . S
C819 C820 1.387 . S
C820 H805 0.930 . S
C820 C815 1.390 . S
C820 C819 1.387 . S
H821 C833 0.930 . S
H822 C835 0.930 . S
H823 C836 0.930 . S
H824 C840 0.959 . S
H825 C840 0.959 . S
H826 C840 0.961 . S
H827 C841 0.960 . S
H828 C841 0.961 . S
H829 C841 0.959 . S
H830 C844 0.929 . S
H831 C845 0.931 . S
H832 C847 0.930 . S
C833 H821 0.930 . S
C833 C834 1.399 . S
C833 C838 1.399 . S
C834 C833 1.399 . S
C834 C835 1.376 . S
C835 H822 0.930 . S
C835 C834 1.376 . S
C835 C836 1.388 . S
C836 H823 0.930 . S
C836 C835 1.388 . S
C836 C837 1.390 . S
C837 C836 1.390 . S
C837 C838 1.394 . S
C837 C843 1.465 . S
C838 C833 1.399 . S
C838 C837 1.394 . S
C838 C839 1.516 . S
C839 C838 1.516 . S
C839 C840 1.502 . S
C839 C841 1.561 . S
C839 C842 1.526 . S
C840 H824 0.959 . S
C840 H825 0.959 . S
C840 H826 0.961 . S
C840 C839 1.502 . S
C841 H827 0.960 . S
C841 H828 0.961 . S
C841 H829 0.959 . S
C841 C839 1.561 . S
C842 C839 1.526 . S
C842 C843 1.396 . S
C842 C847 1.390 . S
C843 C837 1.465 . S
C843 C842 1.396 . S
C843 C844 1.399 . S
C844 H830 0.929 . S
C844 C843 1.399 . S
C844 C845 1.385 . S
C845 H831 0.931 . S
C845 C844 1.385 . S
C845 C846 1.389 . S
C846 C845 1.389 . S
C846 C847 1.387 . S
C847 H832 0.930 . S
C847 C842 1.390 . S
C847 C846 1.387 . S
H848 C860 0.930 . S
H849 C862 0.930 . S
H850 C863 0.930 . S
H851 C867 0.959 . S
H852 C867 0.959 . S
H853 C867 0.961 . S
H854 C868 0.960 . S
H855 C868 0.961 . S
H856 C868 0.959 . S
H857 C871 0.929 . S
H858 C872 0.931 . S
H859 C874 0.930 . S
C860 H848 0.930 . S
C860 C861 1.399 . S
C860 C865 1.399 . S
C861 C860 1.399 . S
C861 C862 1.376 . S
C862 H849 0.930 . S
C862 C861 1.376 . S
C862 C863 1.388 . S
C863 H850 0.930 . S
C863 C862 1.388 . S
C863 C864 1.390 . S
C864 C863 1.390 . S
C864 C865 1.394 . S
C864 C870 1.465 . S
C865 C860 1.399 . S
C865 C864 1.394 . S
C865 C866 1.516 . S
C866 C865 1.516 . S
C866 C867 1.502 . S
C866 C868 1.561 . S
C866 C869 1.526 . S
C867 H851 0.959 . S
C867 H852 0.959 . S
C867 H853 0.961 . S
C867 C866 1.502 . S
C868 H854 0.960 . S
C868 H855 0.961 . S
C868 H856 0.959 . S
C868 C866 1.561 . S
C869 C866 1.526 . S
C869 C870 1.396 . S
C869 C874 1.390 . S
C870 C864 1.465 . S
C870 C869 1.396 . S
C870 C871 1.399 . S
C871 H857 0.929 . S
C871 C870 1.399 . S
C871 C872 1.385 . S
C872 H858 0.931 . S
C872 C871 1.385 . S
C872 C873 1.389 . S
C873 C872 1.389 . S
C873 C874 1.387 . S
C874 H859 0.930 . S
C874 C869 1.390 . S
C874 C873 1.387 . S
H875 C887 0.930 . S
H876 C889 0.930 . S
H877 C890 0.930 . S
H878 C894 0.959 . S
H879 C894 0.959 . S
H880 C894 0.961 . S
H881 C895 0.960 . S
H882 C895 0.961 . S
H883 C895 0.959 . S
H884 C898 0.929 . S
H885 C899 0.931 . S
H886 C901 0.930 . S
C887 H875 0.930 . S
C887 C888 1.399 . S
C887 C892 1.399 . S
C888 C887 1.399 . S
C888 C889 1.376 1_655 S
C889 H876 0.930 . S
C889 C888 1.376 1_455 S
C889 C890 1.388 1_455 S
C890 H877 0.930 . S
C890 C889 1.388 1_655 S
C890 C891 1.390 . S
C891 C890 1.390 . S
C891 C892 1.394 . S
C891 C897 1.465 . S
C892 C887 1.399 . S
C892 C891 1.394 . S
C892 C893 1.516 . S
C893 C892 1.516 . S
C893 C894 1.502 . S
C893 C895 1.561 . S
C893 C896 1.526 . S
C894 H878 0.959 . S
C894 H879 0.959 . S
C894 H880 0.961 . S
C894 C893 1.502 . S
C895 H881 0.960 . S
C895 H882 0.961 . S
C895 H883 0.959 . S
C895 C893 1.561 . S
C896 C893 1.526 . S
C896 C897 1.396 . S
C896 C901 1.390 . S
C897 C891 1.465 . S
C897 C896 1.396 . S
C897 C898 1.399 . S
C898 H884 0.929 . S
C898 C897 1.399 . S
C898 C899 1.385 . S
C899 H885 0.931 . S
C899 C898 1.385 . S
C899 C900 1.389 . S
C900 C899 1.389 . S
C900 C901 1.387 . S
C901 H886 0.930 . S
C901 C896 1.390 . S
C901 C900 1.387 . S
H902 C914 0.930 . S
H903 C916 0.930 . S
H904 C917 0.930 . S
H905 C921 0.959 . S
H906 C921 0.959 . S
H907 C921 0.961 . S
H908 C922 0.960 . S
H909 C922 0.961 . S
H910 C922 0.959 . S
H911 C925 0.929 . S
H912 C926 0.931 . S
H913 C928 0.930 . S
C914 H902 0.930 . S
C914 C915 1.399 . S
C914 C919 1.399 . S
C915 C914 1.399 . S
C915 C916 1.376 . S
C916 H903 0.930 . S
C916 C915 1.376 . S
C916 C917 1.388 . S
C917 H904 0.930 . S
C917 C916 1.388 . S
C917 C918 1.390 . S
C918 C917 1.390 . S
C918 C919 1.394 . S
C918 C924 1.465 . S
C919 C914 1.399 . S
C919 C918 1.394 . S
C919 C920 1.516 . S
C920 C919 1.516 . S
C920 C921 1.502 . S
C920 C922 1.561 . S
C920 C923 1.526 . S
C921 H905 0.959 . S
C921 H906 0.959 . S
C921 H907 0.961 . S
C921 C920 1.502 . S
C922 H908 0.960 . S
C922 H909 0.961 . S
C922 H910 0.959 . S
C922 C920 1.561 . S
C923 C920 1.526 . S
C923 C924 1.396 . S
C923 C928 1.390 . S
C924 C918 1.465 . S
C924 C923 1.396 . S
C924 C925 1.399 . S
C925 H911 0.929 . S
C925 C924 1.399 . S
C925 C926 1.385 . S
C926 H912 0.931 . S
C926 C925 1.385 . S
C926 C927 1.389 . S
C927 C926 1.389 . S
C927 C928 1.387 . S
C928 H913 0.930 . S
C928 C923 1.390 . S
C928 C927 1.387 . S
H929 C941 0.930 . S
H930 C943 0.930 . S
H931 C944 0.930 . S
H932 C948 0.959 . S
H933 C948 0.959 . S
H934 C948 0.961 . S
H935 C949 0.960 . S
H936 C949 0.961 . S
H937 C949 0.959 . S
H938 C952 0.929 . S
H939 C953 0.931 . S
H940 C955 0.930 . S
C941 H929 0.930 . S
C941 C942 1.399 . S
C941 C946 1.399 . S
C942 C941 1.399 . S
C942 C943 1.376 . S
C943 H930 0.930 . S
C943 C942 1.376 . S
C943 C944 1.388 . S
C944 H931 0.930 . S
C944 C943 1.388 . S
C944 C945 1.390 . S
C945 C944 1.390 . S
C945 C946 1.394 . S
C945 C951 1.465 . S
C946 C941 1.399 . S
C946 C945 1.394 . S
C946 C947 1.516 . S
C947 C946 1.516 . S
C947 C948 1.502 . S
C947 C949 1.561 . S
C947 C950 1.526 . S
C948 H932 0.959 . S
C948 H933 0.959 . S
C948 H934 0.961 . S
C948 C947 1.502 . S
C949 H935 0.960 . S
C949 H936 0.961 . S
C949 H937 0.959 . S
C949 C947 1.561 . S
C950 C947 1.526 . S
C950 C951 1.396 . S
C950 C955 1.390 . S
C951 C945 1.465 . S
C951 C950 1.396 . S
C951 C952 1.399 . S
C952 H938 0.929 . S
C952 C951 1.399 . S
C952 C953 1.385 . S
C953 H939 0.931 . S
C953 C952 1.385 . S
C953 C954 1.389 . S
C954 C953 1.389 . S
C954 C955 1.387 . S
C955 H940 0.930 . S
C955 C950 1.390 . S
C955 C954 1.387 . S
H956 C968 0.930 . S
H957 C970 0.930 . S
H958 C971 0.930 . S
H959 C975 0.959 . S
H960 C975 0.959 . S
H961 C975 0.961 . S
H962 C976 0.960 . S
H963 C976 0.961 . S
H964 C976 0.959 . S
H965 C979 0.929 . S
H966 C980 0.931 . S
H967 C982 0.930 . S
C968 H956 0.930 . S
C968 C969 1.399 . S
C968 C973 1.399 . S
C969 C968 1.399 . S
C969 C970 1.376 . S
C970 H957 0.930 . S
C970 C969 1.376 . S
C970 C971 1.388 . S
C971 H958 0.930 . S
C971 C970 1.388 . S
C971 C972 1.390 . S
C972 C971 1.390 . S
C972 C973 1.394 . S
C972 C978 1.465 . S
C973 C968 1.399 . S
C973 C972 1.394 . S
C973 C974 1.516 . S
C974 C973 1.516 . S
C974 C975 1.502 . S
C974 C976 1.561 . S
C974 C977 1.526 . S
C975 H959 0.959 . S
C975 H960 0.959 . S
C975 H961 0.961 . S
C975 C974 1.502 . S
C976 H962 0.960 . S
C976 H963 0.961 . S
C976 H964 0.959 . S
C976 C974 1.561 . S
C977 C974 1.526 . S
C977 C978 1.396 . S
C977 C982 1.390 . S
C978 C972 1.465 . S
C978 C977 1.396 . S
C978 C979 1.399 . S
C979 H965 0.929 . S
C979 C978 1.399 . S
C979 C980 1.385 . S
C980 H966 0.931 . S
C980 C979 1.385 . S
C980 C981 1.389 . S
C981 C980 1.389 . S
C981 C982 1.387 . S
C982 H967 0.930 . S
C982 C977 1.390 . S
C982 C981 1.387 . S
H983 C995 0.930 . S
H984 C997 0.930 . S
H985 C998 0.930 . S
H986 C1002 0.959 . S
H987 C1002 0.959 . S
H988 C1002 0.961 . S
H989 C1003 0.960 . S
H990 C1003 0.961 . S
H991 C1003 0.959 . S
H992 C1006 0.929 . S
H993 C1007 0.931 . S
H994 C1009 0.930 . S
C995 H983 0.930 . S
C995 C996 1.399 . S
C995 C1000 1.399 . S
C996 C995 1.399 . S
C996 C997 1.376 . S
C997 H984 0.930 . S
C997 C996 1.376 . S
C997 C998 1.388 . S
C998 H985 0.930 . S
C998 C997 1.388 . S
C998 C999 1.390 . S
C999 C998 1.390 . S
C999 C1000 1.394 . S
C999 C1005 1.465 . S
C1000 C995 1.399 . S
C1000 C999 1.394 . S
C1000 C1001 1.516 . S
C1001 C1000 1.516 . S
C1001 C1002 1.502 . S
C1001 C1003 1.561 . S
C1001 C1004 1.526 . S
C1002 H986 0.959 . S
C1002 H987 0.959 . S
C1002 H988 0.961 . S
C1002 C1001 1.502 . S
C1003 H989 0.960 . S
C1003 H990 0.961 . S
C1003 H991 0.959 . S
C1003 C1001 1.561 . S
C1004 C1001 1.526 . S
C1004 C1005 1.396 . S
C1004 C1009 1.390 . S
C1005 C999 1.465 . S
C1005 C1004 1.396 . S
C1005 C1006 1.399 . S
C1006 H992 0.929 . S
C1006 C1005 1.399 . S
C1006 C1007 1.385 . S
C1007 H993 0.931 . S
C1007 C1006 1.385 . S
C1007 C1008 1.389 . S
C1008 C1007 1.389 . S
C1008 C1009 1.387 . S
C1009 H994 0.930 . S
C1009 C1004 1.390 . S
C1009 C1008 1.387 . S
H1010 C1022 0.930 . S
H1011 C1024 0.930 . S
H1012 C1025 0.930 . S
H1013 C1029 0.959 . S
H1014 C1029 0.959 . S
H1015 C1029 0.961 . S
H1016 C1030 0.960 . S
H1017 C1030 0.961 . S
H1018 C1030 0.959 . S
H1019 C1033 0.929 . S
H1020 C1034 0.931 . S
H1021 C1036 0.930 . S
C1022 H1010 0.930 . S
C1022 C1023 1.399 . S
C1022 C1027 1.399 . S
C1023 C1022 1.399 . S
C1023 C1024 1.376 . S
C1024 H1011 0.930 . S
C1024 C1023 1.376 . S
C1024 C1025 1.388 . S
C1025 H1012 0.930 . S
C1025 C1024 1.388 . S
C1025 C1026 1.390 . S
C1026 C1025 1.390 . S
C1026 C1027 1.394 . S
C1026 C1032 1.465 . S
C1027 C1022 1.399 . S
C1027 C1026 1.394 . S
C1027 C1028 1.516 . S
C1028 C1027 1.516 . S
C1028 C1029 1.502 . S
C1028 C1030 1.561 . S
C1028 C1031 1.526 . S
C1029 H1013 0.959 . S
C1029 H1014 0.959 . S
C1029 H1015 0.961 . S
C1029 C1028 1.502 . S
C1030 H1016 0.960 . S
C1030 H1017 0.961 . S
C1030 H1018 0.959 . S
C1030 C1028 1.561 . S
C1031 C1028 1.526 . S
C1031 C1032 1.396 . S
C1031 C1036 1.390 . S
C1032 C1026 1.465 . S
C1032 C1031 1.396 . S
C1032 C1033 1.399 . S
C1033 H1019 0.929 . S
C1033 C1032 1.399 . S
C1033 C1034 1.385 . S
C1034 H1020 0.931 . S
C1034 C1033 1.385 . S
C1034 C1035 1.389 . S
C1035 C1034 1.389 . S
C1035 C1036 1.387 . S
C1036 H1021 0.930 . S
C1036 C1031 1.390 . S
C1036 C1035 1.387 . S
H1037 C1049 0.930 . S
H1038 C1051 0.930 . S
H1039 C1052 0.930 . S
H1040 C1056 0.959 . S
H1041 C1056 0.959 . S
H1042 C1056 0.961 . S
H1043 C1057 0.960 . S
H1044 C1057 0.961 . S
H1045 C1057 0.959 . S
H1046 C1060 0.929 . S
H1047 C1061 0.931 . S
H1048 C1063 0.930 . S
C1049 H1037 0.930 . S
C1049 C1050 1.399 . S
C1049 C1054 1.399 . S
C1050 C1049 1.399 . S
C1050 C1051 1.376 . S
C1051 H1038 0.930 . S
C1051 C1050 1.376 . S
C1051 C1052 1.388 . S
C1052 H1039 0.930 . S
C1052 C1051 1.388 . S
C1052 C1053 1.390 . S
C1053 C1052 1.390 . S
C1053 C1054 1.394 . S
C1053 C1059 1.465 . S
C1054 C1049 1.399 . S
C1054 C1053 1.394 . S
C1054 C1055 1.516 . S
C1055 C1054 1.516 . S
C1055 C1056 1.502 . S
C1055 C1057 1.561 . S
C1055 C1058 1.526 . S
C1056 H1040 0.959 . S
C1056 H1041 0.959 . S
C1056 H1042 0.961 . S
C1056 C1055 1.502 . S
C1057 H1043 0.960 . S
C1057 H1044 0.961 . S
C1057 H1045 0.959 . S
C1057 C1055 1.561 . S
C1058 C1055 1.526 . S
C1058 C1059 1.396 . S
C1058 C1063 1.390 . S
C1059 C1053 1.465 . S
C1059 C1058 1.396 . S
C1059 C1060 1.399 . S
C1060 H1046 0.929 . S
C1060 C1059 1.399 . S
C1060 C1061 1.385 . S
C1061 H1047 0.931 . S
C1061 C1060 1.385 . S
C1061 C1062 1.389 . S
C1062 C1061 1.389 . S
C1062 C1063 1.387 . S
C1063 H1048 0.930 . S
C1063 C1058 1.390 . S
C1063 C1062 1.387 . S
H1064 C1076 0.930 . S
H1065 C1078 0.930 . S
H1066 C1079 0.930 . S
H1067 C1083 0.959 . S
H1068 C1083 0.959 . S
H1069 C1083 0.961 . S
H1070 C1084 0.960 . S
H1071 C1084 0.961 . S
H1072 C1084 0.959 . S
H1073 C1087 0.929 . S
H1074 C1088 0.931 . S
H1075 C1090 0.930 . S
C1076 H1064 0.930 . S
C1076 C1077 1.399 . S
C1076 C1081 1.399 . S
C1077 C1076 1.399 . S
C1077 C1078 1.376 . S
C1078 H1065 0.930 . S
C1078 C1077 1.376 . S
C1078 C1079 1.388 . S
C1079 H1066 0.930 . S
C1079 C1078 1.388 . S
C1079 C1080 1.390 . S
C1080 C1079 1.390 . S
C1080 C1081 1.394 . S
C1080 C1086 1.465 . S
C1081 C1076 1.399 . S
C1081 C1080 1.394 . S
C1081 C1082 1.516 . S
C1082 C1081 1.516 . S
C1082 C1083 1.502 . S
C1082 C1084 1.561 . S
C1082 C1085 1.526 . S
C1083 H1067 0.959 . S
C1083 H1068 0.959 . S
C1083 H1069 0.961 . S
C1083 C1082 1.502 . S
C1084 H1070 0.960 . S
C1084 H1071 0.961 . S
C1084 H1072 0.959 . S
C1084 C1082 1.561 . S
C1085 C1082 1.526 . S
C1085 C1086 1.396 . S
C1085 C1090 1.390 . S
C1086 C1080 1.465 . S
C1086 C1085 1.396 . S
C1086 C1087 1.399 . S
C1087 H1073 0.929 . S
C1087 C1086 1.399 . S
C1087 C1088 1.385 . S
C1088 H1074 0.931 . S
C1088 C1087 1.385 . S
C1088 C1089 1.389 . S
C1089 C1088 1.389 . S
C1089 C1090 1.387 . S
C1090 H1075 0.930 . S
C1090 C1085 1.390 . S
C1090 C1089 1.387 . S
H1091 C1103 0.930 . S
H1092 C1105 0.930 . S
H1093 C1106 0.930 . S
H1094 C1110 0.959 . S
H1095 C1110 0.959 . S
H1096 C1110 0.961 . S
H1097 C1111 0.960 . S
H1098 C1111 0.961 . S
H1099 C1111 0.959 . S
H1100 C1114 0.929 . S
H1101 C1115 0.931 . S
H1102 C1117 0.930 . S
C1103 H1091 0.930 . S
C1103 C1104 1.399 . S
C1103 C1108 1.399 . S
C1104 C1103 1.399 . S
C1104 C1105 1.376 . S
C1105 H1092 0.930 . S
C1105 C1104 1.376 . S
C1105 C1106 1.388 . S
C1106 H1093 0.930 . S
C1106 C1105 1.388 . S
C1106 C1107 1.390 . S
C1107 C1106 1.390 . S
C1107 C1108 1.394 . S
C1107 C1113 1.465 . S
C1108 C1103 1.399 . S
C1108 C1107 1.394 . S
C1108 C1109 1.516 . S
C1109 C1108 1.516 . S
C1109 C1110 1.502 . S
C1109 C1111 1.561 . S
C1109 C1112 1.526 . S
C1110 H1094 0.959 . S
C1110 H1095 0.959 . S
C1110 H1096 0.961 . S
C1110 C1109 1.502 . S
C1111 H1097 0.960 . S
C1111 H1098 0.961 . S
C1111 H1099 0.959 . S
C1111 C1109 1.561 . S
C1112 C1109 1.526 . S
C1112 C1113 1.396 . S
C1112 C1117 1.390 . S
C1113 C1107 1.465 . S
C1113 C1112 1.396 . S
C1113 C1114 1.399 . S
C1114 H1100 0.929 . S
C1114 C1113 1.399 . S
C1114 C1115 1.385 1_655 S
C1115 H1101 0.931 . S
C1115 C1114 1.385 1_455 S
C1115 C1116 1.389 1_455 S
C1116 C1115 1.389 1_655 S
C1116 C1117 1.387 . S
C1117 H1102 0.930 . S
C1117 C1112 1.390 . S
C1117 C1116 1.387 . S
H1118 C1130 0.930 . S
H1119 C1132 0.930 . S
H1120 C1133 0.930 . S
H1121 C1137 0.959 . S
H1122 C1137 0.959 . S
H1123 C1137 0.961 . S
H1124 C1138 0.960 . S
H1125 C1138 0.961 . S
H1126 C1138 0.959 . S
H1127 C1141 0.929 . S
H1128 C1142 0.931 . S
H1129 C1144 0.930 . S
C1130 H1118 0.930 . S
C1130 C1131 1.399 . S
C1130 C1135 1.399 . S
C1131 C1130 1.399 . S
C1131 C1132 1.376 . S
C1132 H1119 0.930 . S
C1132 C1131 1.376 . S
C1132 C1133 1.388 . S
C1133 H1120 0.930 . S
C1133 C1132 1.388 . S
C1133 C1134 1.390 . S
C1134 C1133 1.390 . S
C1134 C1135 1.394 . S
C1134 C1140 1.465 . S
C1135 C1130 1.399 . S
C1135 C1134 1.394 . S
C1135 C1136 1.516 . S
C1136 C1135 1.516 . S
C1136 C1137 1.502 . S
C1136 C1138 1.561 . S
C1136 C1139 1.526 . S
C1137 H1121 0.959 . S
C1137 H1122 0.959 . S
C1137 H1123 0.961 . S
C1137 C1136 1.502 . S
C1138 H1124 0.960 . S
C1138 H1125 0.961 . S
C1138 H1126 0.959 . S
C1138 C1136 1.561 . S
C1139 C1136 1.526 . S
C1139 C1140 1.396 . S
C1139 C1144 1.390 . S
C1140 C1134 1.465 . S
C1140 C1139 1.396 . S
C1140 C1141 1.399 . S
C1141 H1127 0.929 . S
C1141 C1140 1.399 . S
C1141 C1142 1.385 . S
C1142 H1128 0.931 . S
C1142 C1141 1.385 . S
C1142 C1143 1.389 . S
C1143 C1142 1.389 . S
C1143 C1144 1.387 . S
C1144 H1129 0.930 . S
C1144 C1139 1.390 . S
C1144 C1143 1.387 . S
H1145 C1157 0.930 . S
H1146 C1159 0.930 . S
H1147 C1160 0.930 . S
H1148 C1164 0.959 . S
H1149 C1164 0.959 . S
H1150 C1164 0.961 . S
H1151 C1165 0.960 . S
H1152 C1165 0.961 . S
H1153 C1165 0.959 . S
H1154 C1168 0.929 . S
H1155 C1169 0.931 1_455 S
H1156 C1171 0.930 . S
C1157 H1145 0.930 . S
C1157 C1158 1.399 . S
C1157 C1162 1.399 . S
C1158 C1157 1.399 . S
C1158 C1159 1.376 . S
C1159 H1146 0.930 . S
C1159 C1158 1.376 . S
C1159 C1160 1.388 . S
C1160 H1147 0.930 . S
C1160 C1159 1.388 . S
C1160 C1161 1.390 . S
C1161 C1160 1.390 . S
C1161 C1162 1.394 . S
C1161 C1167 1.465 . S
C1162 C1157 1.399 . S
C1162 C1161 1.394 . S
C1162 C1163 1.516 . S
C1163 C1162 1.516 . S
C1163 C1164 1.502 . S
C1163 C1165 1.561 . S
C1163 C1166 1.526 . S
C1164 H1148 0.959 . S
C1164 H1149 0.959 . S
C1164 H1150 0.961 . S
C1164 C1163 1.502 . S
C1165 H1151 0.960 . S
C1165 H1152 0.961 . S
C1165 H1153 0.959 . S
C1165 C1163 1.561 . S
C1166 C1163 1.526 . S
C1166 C1167 1.396 . S
C1166 C1171 1.390 . S
C1167 C1161 1.465 . S
C1167 C1166 1.396 . S
C1167 C1168 1.399 . S
C1168 H1154 0.929 . S
C1168 C1167 1.399 . S
C1168 C1169 1.385 . S
C1169 H1155 0.931 1_655 S
C1169 C1168 1.385 . S
C1169 C1170 1.389 . S
C1170 C1169 1.389 . S
C1170 C1171 1.387 . S
C1171 H1156 0.930 . S
C1171 C1166 1.390 . S
C1171 C1170 1.387 . S
H1172 C1184 0.930 . S
H1173 C1186 0.930 . S
H1174 C1187 0.930 . S
H1175 C1191 0.959 . S
H1176 C1191 0.959 . S
H1177 C1191 0.961 . S
H1178 C1192 0.960 . S
H1179 C1192 0.961 . S
H1180 C1192 0.959 . S
H1181 C1195 0.929 . S
H1182 C1196 0.931 . S
H1183 C1198 0.930 . S
C1184 H1172 0.930 . S
C1184 C1185 1.399 . S
C1184 C1189 1.399 . S
C1185 C1184 1.399 . S
C1185 C1186 1.376 . S
C1186 H1173 0.930 . S
C1186 C1185 1.376 . S
C1186 C1187 1.388 . S
C1187 H1174 0.930 . S
C1187 C1186 1.388 . S
C1187 C1188 1.390 . S
C1188 C1187 1.390 . S
C1188 C1189 1.394 . S
C1188 C1194 1.465 . S
C1189 C1184 1.399 . S
C1189 C1188 1.394 . S
C1189 C1190 1.516 . S
C1190 C1189 1.516 . S
C1190 C1191 1.502 . S
C1190 C1192 1.561 . S
C1190 C1193 1.526 . S
C1191 H1175 0.959 . S
C1191 H1176 0.959 . S
C1191 H1177 0.961 . S
C1191 C1190 1.502 . S
C1192 H1178 0.960 . S
C1192 H1179 0.961 . S
C1192 H1180 0.959 . S
C1192 C1190 1.561 . S
C1193 C1190 1.526 . S
C1193 C1194 1.396 . S
C1193 C1198 1.390 . S
C1194 C1188 1.465 . S
C1194 C1193 1.396 . S
C1194 C1195 1.399 . S
C1195 H1181 0.929 . S
C1195 C1194 1.399 . S
C1195 C1196 1.385 . S
C1196 H1182 0.931 . S
C1196 C1195 1.385 . S
C1196 C1197 1.389 . S
C1197 C1196 1.389 . S
C1197 C1198 1.387 . S
C1198 H1183 0.930 . S
C1198 C1193 1.390 . S
C1198 C1197 1.387 . S
H1199 C1211 0.930 . S
H1200 C1213 0.930 . S
H1201 C1214 0.930 . S
H1202 C1218 0.959 . S
H1203 C1218 0.959 . S
H1204 C1218 0.961 . S
H1205 C1219 0.960 . S
H1206 C1219 0.961 . S
H1207 C1219 0.959 . S
H1208 C1222 0.929 . S
H1209 C1223 0.931 . S
H1210 C1225 0.930 . S
C1211 H1199 0.930 . S
C1211 C1212 1.399 . S
C1211 C1216 1.399 . S
C1212 C1211 1.399 . S
C1212 C1213 1.376 . S
C1213 H1200 0.930 . S
C1213 C1212 1.376 . S
C1213 C1214 1.388 . S
C1214 H1201 0.930 . S
C1214 C1213 1.388 . S
C1214 C1215 1.390 . S
C1215 C1214 1.390 . S
C1215 C1216 1.394 . S
C1215 C1221 1.465 . S
C1216 C1211 1.399 . S
C1216 C1215 1.394 . S
C1216 C1217 1.516 . S
C1217 C1216 1.516 . S
C1217 C1218 1.502 . S
C1217 C1219 1.561 . S
C1217 C1220 1.526 . S
C1218 H1202 0.959 . S
C1218 H1203 0.959 . S
C1218 H1204 0.961 . S
C1218 C1217 1.502 . S
C1219 H1205 0.960 . S
C1219 H1206 0.961 . S
C1219 H1207 0.959 . S
C1219 C1217 1.561 . S
C1220 C1217 1.526 . S
C1220 C1221 1.396 . S
C1220 C1225 1.390 . S
C1221 C1215 1.465 . S
C1221 C1220 1.396 . S
C1221 C1222 1.399 . S
C1222 H1208 0.929 . S
C1222 C1221 1.399 . S
C1222 C1223 1.385 . S
C1223 H1209 0.931 . S
C1223 C1222 1.385 . S
C1223 C1224 1.389 . S
C1224 C1223 1.389 . S
C1224 C1225 1.387 . S
C1225 H1210 0.930 . S
C1225 C1220 1.390 . S
C1225 C1224 1.387 . S
H1226 C1238 0.930 . S
H1227 C1240 0.930 . S
H1228 C1241 0.930 . S
H1229 C1245 0.959 . S
H1230 C1245 0.959 . S
H1231 C1245 0.961 . S
H1232 C1246 0.960 . S
H1233 C1246 0.961 . S
H1234 C1246 0.959 . S
H1235 C1249 0.929 . S
H1236 C1250 0.931 . S
H1237 C1252 0.930 . S
C1238 H1226 0.930 . S
C1238 C1239 1.399 . S
C1238 C1243 1.399 . S
C1239 C1238 1.399 . S
C1239 C1240 1.376 . S
C1240 H1227 0.930 . S
C1240 C1239 1.376 . S
C1240 C1241 1.388 . S
C1241 H1228 0.930 . S
C1241 C1240 1.388 . S
C1241 C1242 1.390 . S
C1242 C1241 1.390 . S
C1242 C1243 1.394 . S
C1242 C1248 1.465 . S
C1243 C1238 1.399 . S
C1243 C1242 1.394 . S
C1243 C1244 1.516 . S
C1244 C1243 1.516 . S
C1244 C1245 1.502 . S
C1244 C1246 1.561 . S
C1244 C1247 1.526 . S
C1245 H1229 0.959 . S
C1245 H1230 0.959 . S
C1245 H1231 0.961 . S
C1245 C1244 1.502 . S
C1246 H1232 0.960 . S
C1246 H1233 0.961 . S
C1246 H1234 0.959 . S
C1246 C1244 1.561 . S
C1247 C1244 1.526 . S
C1247 C1248 1.396 . S
C1247 C1252 1.390 . S
C1248 C1242 1.465 . S
C1248 C1247 1.396 . S
C1248 C1249 1.399 . S
C1249 H1235 0.929 . S
C1249 C1248 1.399 . S
C1249 C1250 1.385 . S
C1250 H1236 0.931 . S
C1250 C1249 1.385 . S
C1250 C1251 1.389 . S
C1251 C1250 1.389 . S
C1251 C1252 1.387 . S
C1252 H1237 0.930 . S
C1252 C1247 1.390 . S
C1252 C1251 1.387 . S
H1253 C1265 0.930 . S
H1254 C1267 0.930 . S
H1255 C1268 0.930 . S
H1256 C1272 0.959 . S
H1257 C1272 0.959 . S
H1258 C1272 0.961 . S
H1259 C1273 0.960 . S
H1260 C1273 0.961 . S
H1261 C1273 0.959 . S
H1262 C1276 0.929 . S
H1263 C1277 0.931 . S
H1264 C1279 0.930 . S
C1265 H1253 0.930 . S
C1265 C1266 1.405 . S
C1265 C1270 1.399 . S
C1266 C1265 1.405 . S
C1266 C1267 1.376 1_455 S
C1267 H1254 0.930 . S
C1267 C1266 1.376 1_655 S
C1267 C1268 1.388 1_655 S
C1268 H1255 0.930 . S
C1268 C1267 1.388 1_455 S
C1268 C1269 1.390 . S
C1269 C1268 1.390 . S
C1269 C1270 1.394 . S
C1269 C1275 1.465 . S
C1270 C1265 1.399 . S
C1270 C1269 1.394 . S
C1270 C1271 1.516 . S
C1271 C1270 1.516 . S
C1271 C1272 1.502 . S
C1271 C1273 1.561 . S
C1271 C1274 1.526 . S
C1272 H1256 0.959 . S
C1272 H1257 0.959 . S
C1272 H1258 0.961 . S
C1272 C1271 1.502 . S
C1273 H1259 0.960 . S
C1273 H1260 0.961 . S
C1273 H1261 0.959 . S
C1273 C1271 1.561 . S
C1274 C1271 1.526 . S
C1274 C1275 1.396 . S
C1274 C1279 1.390 . S
C1275 C1269 1.465 . S
C1275 C1274 1.396 . S
C1275 C1276 1.399 . S
C1276 H1262 0.929 . S
C1276 C1275 1.399 . S
C1276 C1277 1.385 . S
C1277 H1263 0.931 . S
C1277 C1276 1.385 . S
C1277 C1278 1.389 . S
C1278 C1277 1.389 . S
C1278 C1279 1.387 . S
C1279 H1264 0.930 . S
C1279 C1274 1.390 . S
C1279 C1278 1.387 . S
H1280 C1292 0.930 . S
H1281 C1294 0.934 . S
H1282 C1295 0.930 . S
H1283 C1299 0.959 . S
H1284 C1299 0.959 . S
H1285 C1299 0.961 . S
H1286 C1300 0.960 . S
H1287 C1300 0.961 . S
H1288 C1300 0.959 1_455 S
H1289 C1303 0.929 . S
H1290 C1304 0.931 . S
H1291 C1306 0.930 . S
C1292 H1280 0.930 . S
C1292 C1293 1.399 . S
C1292 C1297 1.399 . S
C1293 C1292 1.399 . S
C1293 C1294 1.376 . S
C1294 H1281 0.934 . S
C1294 C1293 1.376 . S
C1294 C1295 1.388 1_655 S
C1295 H1282 0.930 . S
C1295 C1294 1.388 1_455 S
C1295 C1296 1.390 . S
C1296 C1295 1.390 . S
C1296 C1297 1.394 1_455 S
C1296 C1302 1.465 . S
C1297 C1292 1.399 . S
C1297 C1296 1.394 1_655 S
C1297 C1298 1.516 . S
C1298 C1297 1.516 . S
C1298 C1299 1.502 . S
C1298 C1300 1.561 . S
C1298 C1301 1.526 1_655 S
C1299 H1283 0.959 . S
C1299 H1284 0.959 . S
C1299 H1285 0.961 . S
C1299 C1298 1.502 . S
C1300 H1286 0.960 . S
C1300 H1287 0.961 . S
C1300 H1288 0.959 1_655 S
C1300 C1298 1.561 . S
C1301 C1298 1.526 1_455 S
C1301 C1302 1.396 . S
C1301 C1306 1.390 . S
C1302 C1296 1.465 . S
C1302 C1301 1.396 . S
C1302 C1303 1.399 . S
C1303 H1289 0.929 . S
C1303 C1302 1.399 . S
C1303 C1304 1.385 . S
C1304 H1290 0.931 . S
C1304 C1303 1.385 . S
C1304 C1305 1.389 . S
C1305 C1304 1.389 . S
C1305 C1306 1.387 . S
C1306 H1291 0.930 . S
C1306 C1301 1.390 . S
C1306 C1305 1.387 . S
H1307 C1319 0.930 . S
H1308 C1321 0.930 . S
H1309 C1322 0.930 . S
H1310 C1326 0.959 . S
H1311 C1326 0.959 . S
H1312 C1326 0.961 . S
H1313 C1327 0.960 1_565 S
H1314 C1327 0.961 . S
H1315 C1327 0.959 1_565 S
H1316 C1330 0.929 . S
H1317 C1331 0.931 . S
H1318 C1333 0.930 . S
C1319 H1307 0.930 . S
C1319 C1320 1.399 . S
C1319 C1324 1.399 . S
C1320 C1319 1.399 . S
C1320 C1321 1.376 . S
C1321 H1308 0.930 . S
C1321 C1320 1.376 . S
C1321 C1322 1.388 . S
C1322 H1309 0.930 . S
C1322 C1321 1.388 . S
C1322 C1323 1.390 . S
C1323 C1322 1.390 . S
C1323 C1324 1.394 . S
C1323 C1329 1.465 1_565 S
C1324 C1319 1.399 . S
C1324 C1323 1.394 . S
C1324 C1325 1.516 1_565 S
C1325 C1324 1.516 1_545 S
C1325 C1326 1.502 . S
C1325 C1327 1.561 . S
C1325 C1328 1.526 . S
C1326 H1310 0.959 . S
C1326 H1311 0.959 . S
C1326 H1312 0.961 . S
C1326 C1325 1.502 . S
C1327 H1313 0.960 1_545 S
C1327 H1314 0.961 . S
C1327 H1315 0.959 1_545 S
C1327 C1325 1.561 . S
C1328 C1325 1.526 . S
C1328 C1329 1.396 . S
C1328 C1333 1.390 . S
C1329 C1323 1.465 1_545 S
C1329 C1328 1.396 . S
C1329 C1330 1.399 . S
C1330 H1316 0.929 . S
C1330 C1329 1.399 . S
C1330 C1331 1.385 . S
C1331 H1317 0.931 . S
C1331 C1330 1.385 . S
C1331 C1332 1.389 . S
C1332 C1331 1.389 . S
C1332 C1333 1.387 . S
C1333 H1318 0.930 . S
C1333 C1328 1.390 . S
C1333 C1332 1.387 . S
H1334 C1346 0.912 1_556 S
H1335 C1348 0.930 . S
H1336 C1349 0.930 . S
H1337 C1353 0.954 . S
H1338 C1353 0.955 . S
H1339 C1353 0.968 1_545 S
H1340 C1354 0.960 1_655 S
H1341 C1354 0.961 . S
H1342 C1354 0.959 . S
H1343 C1357 0.929 . S
H1344 C1358 0.931 . S
H1345 C1360 0.930 . S
C1346 H1334 0.912 1_554 S
C1346 C1347 1.421 . S
C1346 C1351 1.395 1_554 S
C1347 C1346 1.421 . S
C1347 C1348 1.376 . S
C1348 H1335 0.930 . S
C1348 C1347 1.376 . S
C1348 C1349 1.388 1_655 S
C1349 H1336 0.930 . S
C1349 C1348 1.388 1_455 S
C1349 C1350 1.390 . S
C1350 C1349 1.390 . S
C1350 C1351 1.394 1_454 S
C1350 C1356 1.465 1_545 S
C1351 C1346 1.395 1_556 S
C1351 C1350 1.394 1_656 S
C1351 C1352 1.516 . S
C1352 C1351 1.516 . S
C1352 C1353 1.504 1_545 S
C1352 C1354 1.561 1_655 S
C1352 C1355 1.526 1_645 S
C1353 H1337 0.954 . S
C1353 H1338 0.955 . S
C1353 H1339 0.968 1_565 S
C1353 C1352 1.504 1_565 S
C1354 H1340 0.960 1_455 S
C1354 H1341 0.961 . S
C1354 H1342 0.959 . S
C1354 C1352 1.561 1_455 S
C1355 C1352 1.526 1_465 S
C1355 C1356 1.396 1_556 S
C1355 C1360 1.390 . S
C1356 C1350 1.465 1_565 S
C1356 C1355 1.396 1_554 S
C1356 C1357 1.399 . S
C1357 H1343 0.929 . S
C1357 C1356 1.399 . S
C1357 C1358 1.385 . S
C1358 H1344 0.931 . S
C1358 C1357 1.385 . S
C1358 C1359 1.389 1_554 S
C1359 C1358 1.389 1_556 S
C1359 C1360 1.387 . S
C1360 H1345 0.930 . S
C1360 C1355 1.390 . S
C1360 C1359 1.387 . S
H1361 C1373 0.926 1_556 S
H1362 C1375 0.930 . S
H1363 C1376 0.930 . S
H1364 C1380 0.959 . S
H1365 C1380 0.959 . S
H1366 C1380 0.961 . S
H1367 C1381 0.960 . S
H1368 C1381 0.961 . S
H1369 C1381 0.959 . S
H1370 C1384 0.929 . S
H1371 C1385 0.931 . S
H1372 C1387 0.930 . S
C1373 H1361 0.926 1_554 S
C1373 C1374 1.403 . S
C1373 C1378 1.398 1_554 S
C1374 C1373 1.403 . S
C1374 C1375 1.376 . S
C1375 H1362 0.930 . S
C1375 C1374 1.376 . S
C1375 C1376 1.388 . S
C1376 H1363 0.930 . S
C1376 C1375 1.388 . S
C1376 C1377 1.390 . S
C1377 C1376 1.390 . S
C1377 C1378 1.394 1_554 S
C1377 C1383 1.465 . S
C1378 C1373 1.398 1_556 S
C1378 C1377 1.394 1_556 S
C1378 C1379 1.516 . S
C1379 C1378 1.516 . S
C1379 C1380 1.502 . S
C1379 C1381 1.561 . S
C1379 C1382 1.526 . S
C1380 H1364 0.959 . S
C1380 H1365 0.959 . S
C1380 H1366 0.961 . S
C1380 C1379 1.502 . S
C1381 H1367 0.960 . S
C1381 H1368 0.961 . S
C1381 H1369 0.959 . S
C1381 C1379 1.561 . S
C1382 C1379 1.526 . S
C1382 C1383 1.396 1_556 S
C1382 C1387 1.390 . S
C1383 C1377 1.465 . S
C1383 C1382 1.396 1_554 S
C1383 C1384 1.399 . S
C1384 H1370 0.929 . S
C1384 C1383 1.399 . S
C1384 C1385 1.385 . S
C1385 H1371 0.931 . S
C1385 C1384 1.385 . S
C1385 C1386 1.389 1_554 S
C1386 C1385 1.389 1_556 S
C1386 C1387 1.387 . S
C1387 H1372 0.930 . S
C1387 C1382 1.390 . S
C1387 C1386 1.387 . S
H1388 C1400 0.930 1_455 S
H1389 C1402 0.930 . S
H1390 C1403 0.930 . S
H1391 C1407 0.959 . S
H1392 C1407 0.959 . S
H1393 C1407 0.961 . S
H1394 C1408 0.960 . S
H1395 C1408 0.961 . S
H1396 C1408 0.959 . S
H1397 C1411 0.929 . S
H1398 C1412 0.931 . S
H1399 C1414 0.930 . S
C1400 H1388 0.930 1_655 S
C1400 C1401 1.399 . S
C1400 C1405 1.398 1_655 S
C1401 C1400 1.399 . S
C1401 C1402 1.376 . S
C1402 H1389 0.930 . S
C1402 C1401 1.376 . S
C1402 C1403 1.388 . S
C1403 H1390 0.930 . S
C1403 C1402 1.388 . S
C1403 C1404 1.390 . S
C1404 C1403 1.390 . S
C1404 C1405 1.391 1_655 S
C1404 C1410 1.465 . S
C1405 C1400 1.398 1_455 S
C1405 C1404 1.391 1_455 S
C1405 C1406 1.520 . S
C1406 C1405 1.520 . S
C1406 C1407 1.502 . S
C1406 C1408 1.561 . S
C1406 C1409 1.526 . S
C1407 H1391 0.959 . S
C1407 H1392 0.959 . S
C1407 H1393 0.961 . S
C1407 C1406 1.502 . S
C1408 H1394 0.960 . S
C1408 H1395 0.961 . S
C1408 H1396 0.959 . S
C1408 C1406 1.561 . S
C1409 C1406 1.526 . S
C1409 C1410 1.396 1_455 S
C1409 C1414 1.390 . S
C1410 C1404 1.465 . S
C1410 C1409 1.396 1_655 S
C1410 C1411 1.399 . S
C1411 H1397 0.929 . S
C1411 C1410 1.399 . S
C1411 C1412 1.385 . S
C1412 H1398 0.931 . S
C1412 C1411 1.385 . S
C1412 C1413 1.389 1_655 S
C1413 C1412 1.389 1_455 S
C1413 C1414 1.387 . S
C1414 H1399 0.930 . S
C1414 C1409 1.390 . S
C1414 C1413 1.387 . S
H1415 C1427 0.930 . S
H1416 C1429 0.930 . S
H1417 C1430 0.930 . S
H1418 C1434 0.959 . S
H1419 C1434 0.959 . S
H1420 C1434 0.961 . S
H1421 C1435 0.919 1_565 S
H1422 C1435 0.961 . S
H1423 C1435 0.970 . S
H1424 C1438 0.952 . S
H1425 C1439 0.931 . S
H1426 C1441 0.930 . S
C1427 H1415 0.930 . S
C1427 C1428 1.399 . S
C1427 C1432 1.399 . S
C1428 C1427 1.399 . S
C1428 C1429 1.376 . S
C1429 H1416 0.930 . S
C1429 C1428 1.376 . S
C1429 C1430 1.388 . S
C1430 H1417 0.930 . S
C1430 C1429 1.388 . S
C1430 C1431 1.390 . S
C1431 C1430 1.390 . S
C1431 C1432 1.394 . S
C1431 C1437 1.465 1_565 S
C1432 C1427 1.399 . S
C1432 C1431 1.394 . S
C1432 C1433 1.516 1_565 S
C1433 C1432 1.516 1_545 S
C1433 C1434 1.502 . S
C1433 C1435 1.561 . S
C1433 C1436 1.526 . S
C1434 H1418 0.959 . S
C1434 H1419 0.959 . S
C1434 H1420 0.961 . S
C1434 C1433 1.502 . S
C1435 H1421 0.919 1_545 S
C1435 H1422 0.961 . S
C1435 H1423 0.970 . S
C1435 C1433 1.561 . S
C1436 C1433 1.526 . S
C1436 C1437 1.396 . S
C1436 C1441 1.390 . S
C1437 C1431 1.465 1_545 S
C1437 C1436 1.396 . S
C1437 C1438 1.399 . S
C1438 H1424 0.952 . S
C1438 C1437 1.399 . S
C1438 C1439 1.385 . S
C1439 H1425 0.931 . S
C1439 C1438 1.385 . S
C1439 C1440 1.389 . S
C1440 C1439 1.389 . S
C1440 C1441 1.387 . S
C1441 H1426 0.930 . S
C1441 C1436 1.390 . S
C1441 C1440 1.387 . S
H1442 C1454 0.930 . S
H1443 C1456 0.930 . S
H1444 C1457 0.930 . S
H1445 C1461 0.959 . S
H1446 C1461 0.959 . S
H1447 C1461 0.961 . S
H1448 C1462 0.960 . S
H1449 C1462 0.961 . S
H1450 C1462 0.959 1_554 S
H1451 C1465 0.929 . S
H1452 C1466 0.931 . S
H1453 C1468 0.930 1_556 S
C1454 H1442 0.930 . S
C1454 C1455 1.399 . S
C1454 C1459 1.399 . S
C1455 C1454 1.399 . S
C1455 C1456 1.376 1_556 S
C1456 H1443 0.930 . S
C1456 C1455 1.376 1_554 S
C1456 C1457 1.388 . S
C1457 H1444 0.930 . S
C1457 C1456 1.388 . S
C1457 C1458 1.390 . S
C1458 C1457 1.390 . S
C1458 C1459 1.394 1_554 S
C1458 C1464 1.465 . S
C1459 C1454 1.399 . S
C1459 C1458 1.394 1_556 S
C1459 C1460 1.516 . S
C1460 C1459 1.516 . S
C1460 C1461 1.502 . S
C1460 C1462 1.561 . S
C1460 C1463 1.518 1_556 S
C1461 H1445 0.959 . S
C1461 H1446 0.959 . S
C1461 H1447 0.961 . S
C1461 C1460 1.502 . S
C1462 H1448 0.960 . S
C1462 H1449 0.961 . S
C1462 H1450 0.959 1_556 S
C1462 C1460 1.561 . S
C1463 C1460 1.518 1_554 S
C1463 C1464 1.402 . S
C1463 C1468 1.391 . S
C1464 C1458 1.465 . S
C1464 C1463 1.402 . S
C1464 C1465 1.399 . S
C1465 H1451 0.929 . S
C1465 C1464 1.399 . S
C1465 C1466 1.385 . S
C1466 H1452 0.931 . S
C1466 C1465 1.385 . S
C1466 C1467 1.389 . S
C1467 C1466 1.389 . S
C1467 C1468 1.387 . S
C1468 H1453 0.930 1_554 S
C1468 C1463 1.391 . S
C1468 C1467 1.387 . S
H1469 C1481 0.930 . S
H1470 C1483 0.930 . S
H1471 C1484 0.930 . S
H1472 C1488 0.959 . S
H1473 C1488 0.959 . S
H1474 C1488 0.961 . S
H1475 C1489 0.960 . S
H1476 C1489 0.961 . S
H1477 C1489 0.959 . S
H1478 C1492 0.929 . S
H1479 C1493 0.931 . S
H1480 C1495 0.930 . S
C1481 H1469 0.930 . S
C1481 C1482 1.399 . S
C1481 C1486 1.399 . S
C1482 C1481 1.399 . S
C1482 C1483 1.376 . S
C1483 H1470 0.930 . S
C1483 C1482 1.376 . S
C1483 C1484 1.388 . S
C1484 H1471 0.930 . S
C1484 C1483 1.388 . S
C1484 C1485 1.390 . S
C1485 C1484 1.390 . S
C1485 C1486 1.394 . S
C1485 C1491 1.465 . S
C1486 C1481 1.399 . S
C1486 C1485 1.394 . S
C1486 C1487 1.516 . S
C1487 C1486 1.516 . S
C1487 C1488 1.502 . S
C1487 C1489 1.561 . S
C1487 C1490 1.526 . S
C1488 H1472 0.959 . S
C1488 H1473 0.959 . S
C1488 H1474 0.961 . S
C1488 C1487 1.502 . S
C1489 H1475 0.960 . S
C1489 H1476 0.961 . S
C1489 H1477 0.959 . S
C1489 C1487 1.561 . S
C1490 C1487 1.526 . S
C1490 C1491 1.396 . S
C1490 C1495 1.390 . S
C1491 C1485 1.465 . S
C1491 C1490 1.396 . S
C1491 C1492 1.399 . S
C1492 H1478 0.929 . S
C1492 C1491 1.399 . S
C1492 C1493 1.385 . S
C1493 H1479 0.931 . S
C1493 C1492 1.385 . S
C1493 C1494 1.389 . S
C1494 C1493 1.389 . S
C1494 C1495 1.387 . S
C1495 H1480 0.930 . S
C1495 C1490 1.390 . S
C1495 C1494 1.387 . S
H1496 C1508 0.930 . S
H1497 C1510 0.930 . S
H1498 C1511 0.930 . S
H1499 C1515 0.959 . S
H1500 C1515 0.959 . S
H1501 C1515 0.961 . S
H1502 C1516 0.960 . S
H1503 C1516 0.961 . S
H1504 C1516 0.959 . S
H1505 C1519 0.929 . S
H1506 C1520 0.931 . S
H1507 C1522 0.930 . S
C1508 H1496 0.930 . S
C1508 C1509 1.399 . S
C1508 C1513 1.399 . S
C1509 C1508 1.399 . S
C1509 C1510 1.376 . S
C1510 H1497 0.930 . S
C1510 C1509 1.376 . S
C1510 C1511 1.388 1_455 S
C1511 H1498 0.930 . S
C1511 C1510 1.388 1_655 S
C1511 C1512 1.390 . S
C1512 C1511 1.390 . S
C1512 C1513 1.394 1_655 S
C1512 C1518 1.465 . S
C1513 C1508 1.399 . S
C1513 C1512 1.394 1_455 S
C1513 C1514 1.516 . S
C1514 C1513 1.516 . S
C1514 C1515 1.502 . S
C1514 C1516 1.561 1_455 S
C1514 C1517 1.526 1_455 S
C1515 H1499 0.959 . S
C1515 H1500 0.959 . S
C1515 H1501 0.961 . S
C1515 C1514 1.502 . S
C1516 H1502 0.960 . S
C1516 H1503 0.961 . S
C1516 H1504 0.959 . S
C1516 C1514 1.561 1_655 S
C1517 C1514 1.526 1_655 S
C1517 C1518 1.396 . S
C1517 C1522 1.390 . S
C1518 C1512 1.465 . S
C1518 C1517 1.396 . S
C1518 C1519 1.399 . S
C1519 H1505 0.929 . S
C1519 C1518 1.399 . S
C1519 C1520 1.385 . S
C1520 H1506 0.931 . S
C1520 C1519 1.385 . S
C1520 C1521 1.389 . S
C1521 C1520 1.389 . S
C1521 C1522 1.387 . S
C1522 H1507 0.930 . S
C1522 C1517 1.390 . S
C1522 C1521 1.387 . S
H1523 C1535 0.930 . S
H1524 C1537 0.930 . S
H1525 C1538 0.930 . S
H1526 C1542 0.959 . S
H1527 C1542 0.959 . S
H1528 C1542 0.961 . S
H1529 C1543 0.960 . S
H1530 C1543 0.961 . S
H1531 C1543 0.959 . S
H1532 C1546 0.929 . S
H1533 C1547 0.931 . S
H1534 C1549 0.930 . S
C1535 H1523 0.930 . S
C1535 C1536 1.399 . S
C1535 C1540 1.399 . S
C1536 C1535 1.399 . S
C1536 C1537 1.376 . S
C1537 H1524 0.930 . S
C1537 C1536 1.376 . S
C1537 C1538 1.388 . S
C1538 H1525 0.930 . S
C1538 C1537 1.388 . S
C1538 C1539 1.390 . S
C1539 C1538 1.390 . S
C1539 C1540 1.394 . S
C1539 C1545 1.465 . S
C1540 C1535 1.399 . S
C1540 C1539 1.394 . S
C1540 C1541 1.516 . S
C1541 C1540 1.516 . S
C1541 C1542 1.502 . S
C1541 C1543 1.561 . S
C1541 C1544 1.526 . S
C1542 H1526 0.959 . S
C1542 H1527 0.959 . S
C1542 H1528 0.961 . S
C1542 C1541 1.502 . S
C1543 H1529 0.960 . S
C1543 H1530 0.961 . S
C1543 H1531 0.959 . S
C1543 C1541 1.561 . S
C1544 C1541 1.526 . S
C1544 C1545 1.396 . S
C1544 C1549 1.390 . S
C1545 C1539 1.465 . S
C1545 C1544 1.396 . S
C1545 C1546 1.399 . S
C1546 H1532 0.929 . S
C1546 C1545 1.399 . S
C1546 C1547 1.385 . S
C1547 H1533 0.931 . S
C1547 C1546 1.385 . S
C1547 C1548 1.389 . S
C1548 C1547 1.389 . S
C1548 C1549 1.387 . S
C1549 H1534 0.930 . S
C1549 C1544 1.390 . S
C1549 C1548 1.387 . S
H1550 C1562 0.930 . S
H1551 C1564 0.930 . S
H1552 C1565 0.930 . S
H1553 C1569 0.959 . S
H1554 C1569 0.959 . S
H1555 C1569 0.961 . S
H1556 C1570 0.960 . S
H1557 C1570 0.961 . S
H1558 C1570 0.959 . S
H1559 C1573 0.929 . S
H1560 C1574 0.931 . S
H1561 C1576 0.930 . S
C1562 H1550 0.930 . S
C1562 C1563 1.399 . S
C1562 C1567 1.399 . S
C1563 C1562 1.399 . S
C1563 C1564 1.376 . S
C1564 H1551 0.930 . S
C1564 C1563 1.376 . S
C1564 C1565 1.388 . S
C1565 H1552 0.930 . S
C1565 C1564 1.388 . S
C1565 C1566 1.390 . S
C1566 C1565 1.390 . S
C1566 C1567 1.394 . S
C1566 C1572 1.465 . S
C1567 C1562 1.399 . S
C1567 C1566 1.394 . S
C1567 C1568 1.516 . S
C1568 C1567 1.516 . S
C1568 C1569 1.502 . S
C1568 C1570 1.561 . S
C1568 C1571 1.526 . S
C1569 H1553 0.959 . S
C1569 H1554 0.959 . S
C1569 H1555 0.961 . S
C1569 C1568 1.502 . S
C1570 H1556 0.960 . S
C1570 H1557 0.961 . S
C1570 H1558 0.959 . S
C1570 C1568 1.561 . S
C1571 C1568 1.526 . S
C1571 C1572 1.396 . S
C1571 C1576 1.390 . S
C1572 C1566 1.465 . S
C1572 C1571 1.396 . S
C1572 C1573 1.399 . S
C1573 H1559 0.929 . S
C1573 C1572 1.399 . S
C1573 C1574 1.385 . S
C1574 H1560 0.931 . S
C1574 C1573 1.385 . S
C1574 C1575 1.389 . S
C1575 C1574 1.389 . S
C1575 C1576 1.387 . S
C1576 H1561 0.930 . S
C1576 C1571 1.390 . S
C1576 C1575 1.387 . S
H1577 C1589 0.930 . S
H1578 C1591 0.930 . S
H1579 C1592 0.930 . S
H1580 C1596 0.959 . S
H1581 C1596 0.959 . S
H1582 C1596 0.961 . S
H1583 C1597 0.960 . S
H1584 C1597 0.961 . S
H1585 C1597 0.959 . S
H1586 C1600 0.929 . S
H1587 C1601 0.931 . S
H1588 C1603 0.930 . S
C1589 H1577 0.930 . S
C1589 C1590 1.399 . S
C1589 C1594 1.399 . S
C1590 C1589 1.399 . S
C1590 C1591 1.376 . S
C1591 H1578 0.930 . S
C1591 C1590 1.376 . S
C1591 C1592 1.388 . S
C1592 H1579 0.930 . S
C1592 C1591 1.388 . S
C1592 C1593 1.390 . S
C1593 C1592 1.390 . S
C1593 C1594 1.394 . S
C1593 C1599 1.465 . S
C1594 C1589 1.399 . S
C1594 C1593 1.394 . S
C1594 C1595 1.516 . S
C1595 C1594 1.516 . S
C1595 C1596 1.502 . S
C1595 C1597 1.561 . S
C1595 C1598 1.526 . S
C1596 H1580 0.959 . S
C1596 H1581 0.959 . S
C1596 H1582 0.961 . S
C1596 C1595 1.502 . S
C1597 H1583 0.960 . S
C1597 H1584 0.961 . S
C1597 H1585 0.959 . S
C1597 C1595 1.561 . S
C1598 C1595 1.526 . S
C1598 C1599 1.396 . S
C1598 C1603 1.390 . S
C1599 C1593 1.465 . S
C1599 C1598 1.396 . S
C1599 C1600 1.399 . S
C1600 H1586 0.929 . S
C1600 C1599 1.399 . S
C1600 C1601 1.385 . S
C1601 H1587 0.931 . S
C1601 C1600 1.385 . S
C1601 C1602 1.389 . S
C1602 C1601 1.389 . S
C1602 C1603 1.387 . S
C1603 H1588 0.930 . S
C1603 C1598 1.390 . S
C1603 C1602 1.387 . S
H1604 C1616 0.930 . S
H1605 C1618 0.930 . S
H1606 C1619 0.930 . S
H1607 C1623 0.959 . S
H1608 C1623 0.959 . S
H1609 C1623 0.961 . S
H1610 C1624 0.960 . S
H1611 C1624 0.961 . S
H1612 C1624 0.959 . S
H1613 C1627 0.929 . S
H1614 C1628 0.931 . S
H1615 C1630 0.930 . S
C1616 H1604 0.930 . S
C1616 C1617 1.399 . S
C1616 C1621 1.399 . S
C1617 C1616 1.399 . S
C1617 C1618 1.376 . S
C1618 H1605 0.930 . S
C1618 C1617 1.376 . S
C1618 C1619 1.388 . S
C1619 H1606 0.930 . S
C1619 C1618 1.388 . S
C1619 C1620 1.390 . S
C1620 C1619 1.390 . S
C1620 C1621 1.394 . S
C1620 C1626 1.465 . S
C1621 C1616 1.399 . S
C1621 C1620 1.394 . S
C1621 C1622 1.516 . S
C1622 C1621 1.516 . S
C1622 C1623 1.502 . S
C1622 C1624 1.561 . S
C1622 C1625 1.526 . S
C1623 H1607 0.959 . S
C1623 H1608 0.959 . S
C1623 H1609 0.961 . S
C1623 C1622 1.502 . S
C1624 H1610 0.960 . S
C1624 H1611 0.961 . S
C1624 H1612 0.959 . S
C1624 C1622 1.561 . S
C1625 C1622 1.526 . S
C1625 C1626 1.396 . S
C1625 C1630 1.390 . S
C1626 C1620 1.465 . S
C1626 C1625 1.396 . S
C1626 C1627 1.399 . S
C1627 H1613 0.929 . S
C1627 C1626 1.399 . S
C1627 C1628 1.385 . S
C1628 H1614 0.931 . S
C1628 C1627 1.385 . S
C1628 C1629 1.389 . S
C1629 C1628 1.389 . S
C1629 C1630 1.387 . S
C1630 H1615 0.930 . S
C1630 C1625 1.390 . S
C1630 C1629 1.387 . S
H1631 C1643 0.930 . S
H1632 C1645 0.930 . S
H1633 C1646 0.930 . S
H1634 C1650 0.959 1_565 S
H1635 C1650 0.928 1_565 S
H1636 C1650 0.961 . S
H1637 C1651 0.960 . S
H1638 C1651 0.961 . S
H1639 C1651 0.959 . S
H1640 C1654 0.929 . S
H1641 C1655 0.931 . S
H1642 C1657 0.930 . S
C1643 H1631 0.930 . S
C1643 C1644 1.399 . S
C1643 C1648 1.399 . S
C1644 C1643 1.399 . S
C1644 C1645 1.376 . S
C1645 H1632 0.930 . S
C1645 C1644 1.376 . S
C1645 C1646 1.388 . S
C1646 H1633 0.930 . S
C1646 C1645 1.388 . S
C1646 C1647 1.390 . S
C1647 C1646 1.390 . S
C1647 C1648 1.394 . S
C1647 C1653 1.465 1_545 S
C1648 C1643 1.399 . S
C1648 C1647 1.394 . S
C1648 C1649 1.516 . S
C1649 C1648 1.516 . S
C1649 C1650 1.502 . S
C1649 C1651 1.561 . S
C1649 C1652 1.526 1_545 S
C1650 H1634 0.959 1_545 S
C1650 H1635 0.928 1_545 S
C1650 H1636 0.961 . S
C1650 C1649 1.502 . S
C1651 H1637 0.960 . S
C1651 H1638 0.961 . S
C1651 H1639 0.959 . S
C1651 C1649 1.561 . S
C1652 C1649 1.526 1_565 S
C1652 C1653 1.396 . S
C1652 C1657 1.390 . S
C1653 C1647 1.465 1_565 S
C1653 C1652 1.396 . S
C1653 C1654 1.399 . S
C1654 H1640 0.929 . S
C1654 C1653 1.399 . S
C1654 C1655 1.385 . S
C1655 H1641 0.931 . S
C1655 C1654 1.385 . S
C1655 C1656 1.389 . S
C1656 C1655 1.389 . S
C1656 C1657 1.387 . S
C1657 H1642 0.930 . S
C1657 C1652 1.390 . S
C1657 C1656 1.387 . S
H1658 C1670 0.930 . S
H1659 C1672 0.930 . S
H1660 C1673 0.930 . S
H1661 C1677 0.959 . S
H1662 C1677 0.959 . S
H1663 C1677 0.961 . S
H1664 C1678 0.960 . S
H1665 C1678 0.961 . S
H1666 C1678 0.959 . S
H1667 C1681 0.929 . S
H1668 C1682 0.931 . S
H1669 C1684 0.930 . S
C1670 H1658 0.930 . S
C1670 C1671 1.399 . S
C1670 C1675 1.399 . S
C1671 C1670 1.399 . S
C1671 C1672 1.376 . S
C1672 H1659 0.930 . S
C1672 C1671 1.376 . S
C1672 C1673 1.388 . S
C1673 H1660 0.930 . S
C1673 C1672 1.388 . S
C1673 C1674 1.390 . S
C1674 C1673 1.390 . S
C1674 C1675 1.394 . S
C1674 C1680 1.465 . S
C1675 C1670 1.399 . S
C1675 C1674 1.394 . S
C1675 C1676 1.516 . S
C1676 C1675 1.516 . S
C1676 C1677 1.502 . S
C1676 C1678 1.561 . S
C1676 C1679 1.526 . S
C1677 H1661 0.959 . S
C1677 H1662 0.959 . S
C1677 H1663 0.961 . S
C1677 C1676 1.502 . S
C1678 H1664 0.960 . S
C1678 H1665 0.961 . S
C1678 H1666 0.959 . S
C1678 C1676 1.561 . S
C1679 C1676 1.526 . S
C1679 C1680 1.396 . S
C1679 C1684 1.390 . S
C1680 C1674 1.465 . S
C1680 C1679 1.396 . S
C1680 C1681 1.399 . S
C1681 H1667 0.929 . S
C1681 C1680 1.399 . S
C1681 C1682 1.385 . S
C1682 H1668 0.931 . S
C1682 C1681 1.385 . S
C1682 C1683 1.389 . S
C1683 C1682 1.389 . S
C1683 C1684 1.387 . S
C1684 H1669 0.930 . S
C1684 C1679 1.390 . S
C1684 C1683 1.387 . S
H1685 C1697 0.930 . S
H1686 C1699 0.930 . S
H1687 C1700 0.941 . S
H1688 C1704 0.959 1_554 S
H1689 C1704 0.959 . S
H1690 C1704 0.961 . S
H1691 C1705 0.960 . S
H1692 C1705 0.961 . S
H1693 C1705 0.959 . S
H1694 C1708 0.929 . S
H1695 C1709 0.931 . S
H1696 C1711 0.930 . S
C1697 H1685 0.930 . S
C1697 C1698 1.399 . S
C1697 C1702 1.399 . S
C1698 C1697 1.399 . S
C1698 C1699 1.376 . S
C1699 H1686 0.930 . S
C1699 C1698 1.376 . S
C1699 C1700 1.380 1_556 S
C1700 H1687 0.941 . S
C1700 C1699 1.380 1_554 S
C1700 C1701 1.388 1_554 S
C1701 C1700 1.388 1_556 S
C1701 C1702 1.394 . S
C1701 C1707 1.465 1_556 S
C1702 C1697 1.399 . S
C1702 C1701 1.394 . S
C1702 C1703 1.516 . S
C1703 C1702 1.516 . S
C1703 C1704 1.502 . S
C1703 C1705 1.561 . S
C1703 C1706 1.526 1_556 S
C1704 H1688 0.959 1_556 S
C1704 H1689 0.959 . S
C1704 H1690 0.961 . S
C1704 C1703 1.502 . S
C1705 H1691 0.960 . S
C1705 H1692 0.961 . S
C1705 H1693 0.959 . S
C1705 C1703 1.561 . S
C1706 C1703 1.526 1_554 S
C1706 C1707 1.396 . S
C1706 C1711 1.390 . S
C1707 C1701 1.465 1_554 S
C1707 C1706 1.396 . S
C1707 C1708 1.399 . S
C1708 H1694 0.929 . S
C1708 C1707 1.399 . S
C1708 C1709 1.385 . S
C1709 H1695 0.931 . S
C1709 C1708 1.385 . S
C1709 C1710 1.389 . S
C1710 C1709 1.389 . S
C1710 C1711 1.387 . S
C1711 H1696 0.930 . S
C1711 C1706 1.390 . S
C1711 C1710 1.387 . S
H1712 C1724 0.930 . S
H1713 C1726 0.930 . S
H1714 C1727 0.930 . S
H1715 C1731 0.959 . S
H1716 C1731 0.959 . S
H1717 C1731 0.961 . S
H1718 C1732 0.960 . S
H1719 C1732 0.961 . S
H1720 C1732 0.959 . S
H1721 C1735 0.929 . S
H1722 C1736 0.931 . S
H1723 C1738 0.930 . S
C1724 H1712 0.930 . S
C1724 C1725 1.399 . S
C1724 C1729 1.399 . S
C1725 C1724 1.399 . S
C1725 C1726 1.376 . S
C1726 H1713 0.930 . S
C1726 C1725 1.376 . S
C1726 C1727 1.388 . S
C1727 H1714 0.930 . S
C1727 C1726 1.388 . S
C1727 C1728 1.390 . S
C1728 C1727 1.390 . S
C1728 C1729 1.394 . S
C1728 C1734 1.465 . S
C1729 C1724 1.399 . S
C1729 C1728 1.394 . S
C1729 C1730 1.516 . S
C1730 C1729 1.516 . S
C1730 C1731 1.502 . S
C1730 C1732 1.561 . S
C1730 C1733 1.526 . S
C1731 H1715 0.959 . S
C1731 H1716 0.959 . S
C1731 H1717 0.961 . S
C1731 C1730 1.502 . S
C1732 H1718 0.960 . S
C1732 H1719 0.961 . S
C1732 H1720 0.959 . S
C1732 C1730 1.561 . S
C1733 C1730 1.526 . S
C1733 C1734 1.396 . S
C1733 C1738 1.390 . S
C1734 C1728 1.465 . S
C1734 C1733 1.396 . S
C1734 C1735 1.399 . S
C1735 H1721 0.929 . S
C1735 C1734 1.399 . S
C1735 C1736 1.385 . S
C1736 H1722 0.931 . S
C1736 C1735 1.385 . S
C1736 C1737 1.389 . S
C1737 C1736 1.389 . S
C1737 C1738 1.387 . S
C1738 H1723 0.930 . S
C1738 C1733 1.390 . S
C1738 C1737 1.387 . S
H1739 C1751 0.930 . S
H1740 C1753 0.930 . S
H1741 C1754 0.930 . S
H1742 C1758 0.959 . S
H1743 C1758 0.959 . S
H1744 C1758 0.961 . S
H1745 C1759 0.960 . S
H1746 C1759 0.961 . S
H1747 C1759 0.959 . S
H1748 C1762 0.929 . S
H1749 C1763 0.931 . S
H1750 C1765 0.930 . S
C1751 H1739 0.930 . S
C1751 C1752 1.399 . S
C1751 C1756 1.399 . S
C1752 C1751 1.399 . S
C1752 C1753 1.376 . S
C1753 H1740 0.930 . S
C1753 C1752 1.376 . S
C1753 C1754 1.388 . S
C1754 H1741 0.930 . S
C1754 C1753 1.388 . S
C1754 C1755 1.390 . S
C1755 C1754 1.390 . S
C1755 C1756 1.394 . S
C1755 C1761 1.465 . S
C1756 C1751 1.399 . S
C1756 C1755 1.394 . S
C1756 C1757 1.516 . S
C1757 C1756 1.516 . S
C1757 C1758 1.502 . S
C1757 C1759 1.561 . S
C1757 C1760 1.526 . S
C1758 H1742 0.959 . S
C1758 H1743 0.959 . S
C1758 H1744 0.961 . S
C1758 C1757 1.502 . S
C1759 H1745 0.960 . S
C1759 H1746 0.961 . S
C1759 H1747 0.959 . S
C1759 C1757 1.561 . S
C1760 C1757 1.526 . S
C1760 C1761 1.396 . S
C1760 C1765 1.390 . S
C1761 C1755 1.465 . S
C1761 C1760 1.396 . S
C1761 C1762 1.399 . S
C1762 H1748 0.929 . S
C1762 C1761 1.399 . S
C1762 C1763 1.385 . S
C1763 H1749 0.931 . S
C1763 C1762 1.385 . S
C1763 C1764 1.389 . S
C1764 C1763 1.389 . S
C1764 C1765 1.387 . S
C1765 H1750 0.930 . S
C1765 C1760 1.390 . S
C1765 C1764 1.387 . S
H1766 C1778 0.930 . S
H1767 C1780 0.930 . S
H1768 C1781 0.930 . S
H1769 C1785 0.959 . S
H1770 C1785 0.959 . S
H1771 C1785 0.961 . S
H1772 C1786 0.960 . S
H1773 C1786 0.961 . S
H1774 C1786 0.959 . S
H1775 C1789 0.929 . S
H1776 C1790 0.931 . S
H1777 C1792 0.930 . S
C1778 H1766 0.930 . S
C1778 C1779 1.399 . S
C1778 C1783 1.399 . S
C1779 C1778 1.399 . S
C1779 C1780 1.376 . S
C1780 H1767 0.930 . S
C1780 C1779 1.376 . S
C1780 C1781 1.388 . S
C1781 H1768 0.930 . S
C1781 C1780 1.388 . S
C1781 C1782 1.390 . S
C1782 C1781 1.390 . S
C1782 C1783 1.394 . S
C1782 C1788 1.465 . S
C1783 C1778 1.399 . S
C1783 C1782 1.394 . S
C1783 C1784 1.516 . S
C1784 C1783 1.516 . S
C1784 C1785 1.502 . S
C1784 C1786 1.561 . S
C1784 C1787 1.526 . S
C1785 H1769 0.959 . S
C1785 H1770 0.959 . S
C1785 H1771 0.961 . S
C1785 C1784 1.502 . S
C1786 H1772 0.960 . S
C1786 H1773 0.961 . S
C1786 H1774 0.959 . S
C1786 C1784 1.561 . S
C1787 C1784 1.526 . S
C1787 C1788 1.396 . S
C1787 C1792 1.390 . S
C1788 C1782 1.465 . S
C1788 C1787 1.396 . S
C1788 C1789 1.399 . S
C1789 H1775 0.929 . S
C1789 C1788 1.399 . S
C1789 C1790 1.385 . S
C1790 H1776 0.931 . S
C1790 C1789 1.385 . S
C1790 C1791 1.389 . S
C1791 C1790 1.389 . S
C1791 C1792 1.387 . S
C1792 H1777 0.930 . S
C1792 C1787 1.390 . S
C1792 C1791 1.387 . S
H1793 C1805 0.930 . S
H1794 C1807 0.930 . S
H1795 C1808 0.930 . S
H1796 C1812 0.959 . S
H1797 C1812 0.959 . S
H1798 C1812 0.961 . S
H1799 C1813 0.960 . S
H1800 C1813 0.961 . S
H1801 C1813 0.959 . S
H1802 C1816 0.929 . S
H1803 C1817 0.931 . S
H1804 C1819 0.930 . S
C1805 H1793 0.930 . S
C1805 C1806 1.399 . S
C1805 C1810 1.399 . S
C1806 C1805 1.399 . S
C1806 C1807 1.376 . S
C1807 H1794 0.930 . S
C1807 C1806 1.376 . S
C1807 C1808 1.388 . S
C1808 H1795 0.930 . S
C1808 C1807 1.388 . S
C1808 C1809 1.390 . S
C1809 C1808 1.390 . S
C1809 C1810 1.394 . S
C1809 C1815 1.465 . S
C1810 C1805 1.399 . S
C1810 C1809 1.394 . S
C1810 C1811 1.516 . S
C1811 C1810 1.516 . S
C1811 C1812 1.502 . S
C1811 C1813 1.561 . S
C1811 C1814 1.526 . S
C1812 H1796 0.959 . S
C1812 H1797 0.959 . S
C1812 H1798 0.961 . S
C1812 C1811 1.502 . S
C1813 H1799 0.960 . S
C1813 H1800 0.961 . S
C1813 H1801 0.959 . S
C1813 C1811 1.561 . S
C1814 C1811 1.526 . S
C1814 C1815 1.396 . S
C1814 C1819 1.390 . S
C1815 C1809 1.465 . S
C1815 C1814 1.396 . S
C1815 C1816 1.399 . S
C1816 H1802 0.929 . S
C1816 C1815 1.399 . S
C1816 C1817 1.385 . S
C1817 H1803 0.931 . S
C1817 C1816 1.385 . S
C1817 C1818 1.389 . S
C1818 C1817 1.389 . S
C1818 C1819 1.387 . S
C1819 H1804 0.930 . S
C1819 C1814 1.390 . S
C1819 C1818 1.387 . S
H1820 C1832 0.930 . S
H1821 C1834 0.930 . S
H1822 C1835 0.930 . S
H1823 C1839 0.959 . S
H1824 C1839 0.959 . S
H1825 C1839 0.961 . S
H1826 C1840 0.960 . S
H1827 C1840 0.961 . S
H1828 C1840 0.959 . S
H1829 C1843 0.929 . S
H1830 C1844 0.931 . S
H1831 C1846 0.930 . S
C1832 H1820 0.930 . S
C1832 C1833 1.399 . S
C1832 C1837 1.399 . S
C1833 C1832 1.399 . S
C1833 C1834 1.376 . S
C1834 H1821 0.930 . S
C1834 C1833 1.376 . S
C1834 C1835 1.388 . S
C1835 H1822 0.930 . S
C1835 C1834 1.388 . S
C1835 C1836 1.390 . S
C1836 C1835 1.390 . S
C1836 C1837 1.394 . S
C1836 C1842 1.465 . S
C1837 C1832 1.399 . S
C1837 C1836 1.394 . S
C1837 C1838 1.516 . S
C1838 C1837 1.516 . S
C1838 C1839 1.502 . S
C1838 C1840 1.561 . S
C1838 C1841 1.526 . S
C1839 H1823 0.959 . S
C1839 H1824 0.959 . S
C1839 H1825 0.961 . S
C1839 C1838 1.502 . S
C1840 H1826 0.960 . S
C1840 H1827 0.961 . S
C1840 H1828 0.959 . S
C1840 C1838 1.561 . S
C1841 C1838 1.526 . S
C1841 C1842 1.396 . S
C1841 C1846 1.390 . S
C1842 C1836 1.465 . S
C1842 C1841 1.396 . S
C1842 C1843 1.399 . S
C1843 H1829 0.929 . S
C1843 C1842 1.399 . S
C1843 C1844 1.385 . S
C1844 H1830 0.931 . S
C1844 C1843 1.385 . S
C1844 C1845 1.389 . S
C1845 C1844 1.389 . S
C1845 C1846 1.387 . S
C1846 H1831 0.930 . S
C1846 C1841 1.390 . S
C1846 C1845 1.387 . S
H1847 C1859 0.930 . S
H1848 C1861 0.930 . S
H1849 C1862 0.930 . S
H1850 C1866 0.959 . S
H1851 C1866 0.959 . S
H1852 C1866 0.961 . S
H1853 C1867 0.960 . S
H1854 C1867 0.961 . S
H1855 C1867 0.959 . S
H1856 C1870 0.929 . S
H1857 C1871 0.931 . S
H1858 C1873 0.930 . S
C1859 H1847 0.930 . S
C1859 C1860 1.399 . S
C1859 C1864 1.399 . S
C1860 C1859 1.399 . S
C1860 C1861 1.376 . S
C1861 H1848 0.930 . S
C1861 C1860 1.376 . S
C1861 C1862 1.388 . S
C1862 H1849 0.930 . S
C1862 C1861 1.388 . S
C1862 C1863 1.390 . S
C1863 C1862 1.390 . S
C1863 C1864 1.394 . S
C1863 C1869 1.465 . S
C1864 C1859 1.399 . S
C1864 C1863 1.394 . S
C1864 C1865 1.516 . S
C1865 C1864 1.516 . S
C1865 C1866 1.502 . S
C1865 C1867 1.561 . S
C1865 C1868 1.526 . S
C1866 H1850 0.959 . S
C1866 H1851 0.959 . S
C1866 H1852 0.961 . S
C1866 C1865 1.502 . S
C1867 H1853 0.960 . S
C1867 H1854 0.961 . S
C1867 H1855 0.959 . S
C1867 C1865 1.561 . S
C1868 C1865 1.526 . S
C1868 C1869 1.396 . S
C1868 C1873 1.390 . S
C1869 C1863 1.465 . S
C1869 C1868 1.396 . S
C1869 C1870 1.399 . S
C1870 H1856 0.929 . S
C1870 C1869 1.399 . S
C1870 C1871 1.385 . S
C1871 H1857 0.931 . S
C1871 C1870 1.385 . S
C1871 C1872 1.389 . S
C1872 C1871 1.389 . S
C1872 C1873 1.387 . S
C1873 H1858 0.930 . S
C1873 C1868 1.390 . S
C1873 C1872 1.387 . S
H1874 C1886 0.930 . S
H1875 C1888 0.930 . S
H1876 C1889 0.930 . S
H1877 C1893 0.959 . S
H1878 C1893 0.959 . S
H1879 C1893 0.961 . S
H1880 C1894 0.960 . S
H1881 C1894 0.961 . S
H1882 C1894 0.959 . S
H1883 C1897 0.929 . S
H1884 C1898 0.931 . S
H1885 C1900 0.930 . S
C1886 H1874 0.930 . S
C1886 C1887 1.399 . S
C1886 C1891 1.399 . S
C1887 C1886 1.399 . S
C1887 C1888 1.376 . S
C1888 H1875 0.930 . S
C1888 C1887 1.376 . S
C1888 C1889 1.388 . S
C1889 H1876 0.930 . S
C1889 C1888 1.388 . S
C1889 C1890 1.390 . S
C1890 C1889 1.390 . S
C1890 C1891 1.394 . S
C1890 C1896 1.465 . S
C1891 C1886 1.399 . S
C1891 C1890 1.394 . S
C1891 C1892 1.516 . S
C1892 C1891 1.516 . S
C1892 C1893 1.502 . S
C1892 C1894 1.561 . S
C1892 C1895 1.526 . S
C1893 H1877 0.959 . S
C1893 H1878 0.959 . S
C1893 H1879 0.961 . S
C1893 C1892 1.502 . S
C1894 H1880 0.960 . S
C1894 H1881 0.961 . S
C1894 H1882 0.959 . S
C1894 C1892 1.561 . S
C1895 C1892 1.526 . S
C1895 C1896 1.396 . S
C1895 C1900 1.390 . S
C1896 C1890 1.465 . S
C1896 C1895 1.396 . S
C1896 C1897 1.399 . S
C1897 H1883 0.929 . S
C1897 C1896 1.399 . S
C1897 C1898 1.385 . S
C1898 H1884 0.931 . S
C1898 C1897 1.385 . S
C1898 C1899 1.389 . S
C1899 C1898 1.389 . S
C1899 C1900 1.387 . S
C1900 H1885 0.930 . S
C1900 C1895 1.390 . S
C1900 C1899 1.387 . S
H1901 C1913 0.930 . S
H1902 C1915 0.930 . S
H1903 C1916 0.930 . S
H1904 C1920 0.959 . S
H1905 C1920 0.959 . S
H1906 C1920 0.961 . S
H1907 C1921 0.960 . S
H1908 C1921 0.961 . S
H1909 C1921 0.959 . S
H1910 C1924 0.929 . S
H1911 C1925 0.931 . S
H1912 C1927 0.930 . S
C1913 H1901 0.930 . S
C1913 C1914 1.399 . S
C1913 C1918 1.399 . S
C1914 C1913 1.399 . S
C1914 C1915 1.376 . S
C1915 H1902 0.930 . S
C1915 C1914 1.376 . S
C1915 C1916 1.388 . S
C1916 H1903 0.930 . S
C1916 C1915 1.388 . S
C1916 C1917 1.390 . S
C1917 C1916 1.390 . S
C1917 C1918 1.394 . S
C1917 C1923 1.465 . S
C1918 C1913 1.399 . S
C1918 C1917 1.394 . S
C1918 C1919 1.516 . S
C1919 C1918 1.516 . S
C1919 C1920 1.502 . S
C1919 C1921 1.561 . S
C1919 C1922 1.526 . S
C1920 H1904 0.959 . S
C1920 H1905 0.959 . S
C1920 H1906 0.961 . S
C1920 C1919 1.502 . S
C1921 H1907 0.960 . S
C1921 H1908 0.961 . S
C1921 H1909 0.959 . S
C1921 C1919 1.561 . S
C1922 C1919 1.526 . S
C1922 C1923 1.396 . S
C1922 C1927 1.390 . S
C1923 C1917 1.465 . S
C1923 C1922 1.396 . S
C1923 C1924 1.399 . S
C1924 H1910 0.929 . S
C1924 C1923 1.399 . S
C1924 C1925 1.385 . S
C1925 H1911 0.931 . S
C1925 C1924 1.385 . S
C1925 C1926 1.389 . S
C1926 C1925 1.389 . S
C1926 C1927 1.387 . S
C1927 H1912 0.930 . S
C1927 C1922 1.390 . S
C1927 C1926 1.387 . S
H1928 C1940 0.930 . S
H1929 C1942 0.930 . S
H1930 C1943 0.930 . S
H1931 C1947 0.959 . S
H1932 C1947 0.959 . S
H1933 C1947 0.961 . S
H1934 C1948 0.960 . S
H1935 C1948 0.961 . S
H1936 C1948 0.959 . S
H1937 C1951 0.929 . S
H1938 C1952 0.931 . S
H1939 C1954 0.930 . S
C1940 H1928 0.930 . S
C1940 C1941 1.399 . S
C1940 C1945 1.399 . S
C1941 C1940 1.399 . S
C1941 C1942 1.376 . S
C1942 H1929 0.930 . S
C1942 C1941 1.376 . S
C1942 C1943 1.388 . S
C1943 H1930 0.930 . S
C1943 C1942 1.388 . S
C1943 C1944 1.390 . S
C1944 C1943 1.390 . S
C1944 C1945 1.394 . S
C1944 C1950 1.465 . S
C1945 C1940 1.399 . S
C1945 C1944 1.394 . S
C1945 C1946 1.516 . S
C1946 C1945 1.516 . S
C1946 C1947 1.502 . S
C1946 C1948 1.561 . S
C1946 C1949 1.526 . S
C1947 H1931 0.959 . S
C1947 H1932 0.959 . S
C1947 H1933 0.961 . S
C1947 C1946 1.502 . S
C1948 H1934 0.960 . S
C1948 H1935 0.961 . S
C1948 H1936 0.959 . S
C1948 C1946 1.561 . S
C1949 C1946 1.526 . S
C1949 C1950 1.396 . S
C1949 C1954 1.390 . S
C1950 C1944 1.465 . S
C1950 C1949 1.396 . S
C1950 C1951 1.399 . S
C1951 H1937 0.929 . S
C1951 C1950 1.399 . S
C1951 C1952 1.385 . S
C1952 H1938 0.931 . S
C1952 C1951 1.385 . S
C1952 C1953 1.389 . S
C1953 C1952 1.389 . S
C1953 C1954 1.387 . S
C1954 H1939 0.930 . S
C1954 C1949 1.390 . S
C1954 C1953 1.387 . S
H1955 C1967 0.930 . S
H1956 C1969 0.930 . S
H1957 C1970 0.930 . S
H1958 C1974 0.959 . S
H1959 C1974 0.959 . S
H1960 C1974 0.961 . S
H1961 C1975 0.960 . S
H1962 C1975 0.961 . S
H1963 C1975 0.959 . S
H1964 C1978 0.929 . S
H1965 C1979 0.931 . S
H1966 C1981 0.930 . S
C1967 H1955 0.930 . S
C1967 C1968 1.399 . S
C1967 C1972 1.399 . S
C1968 C1967 1.399 . S
C1968 C1969 1.376 . S
C1969 H1956 0.930 . S
C1969 C1968 1.376 . S
C1969 C1970 1.388 . S
C1970 H1957 0.930 . S
C1970 C1969 1.388 . S
C1970 C1971 1.390 . S
C1971 C1970 1.390 . S
C1971 C1972 1.394 . S
C1971 C1977 1.465 . S
C1972 C1967 1.399 . S
C1972 C1971 1.394 . S
C1972 C1973 1.516 . S
C1973 C1972 1.516 . S
C1973 C1974 1.502 . S
C1973 C1975 1.561 . S
C1973 C1976 1.526 . S
C1974 H1958 0.959 . S
C1974 H1959 0.959 . S
C1974 H1960 0.961 . S
C1974 C1973 1.502 . S
C1975 H1961 0.960 . S
C1975 H1962 0.961 . S
C1975 H1963 0.959 . S
C1975 C1973 1.561 . S
C1976 C1973 1.526 . S
C1976 C1977 1.396 . S
C1976 C1981 1.390 . S
C1977 C1971 1.465 . S
C1977 C1976 1.396 . S
C1977 C1978 1.399 . S
C1978 H1964 0.929 . S
C1978 C1977 1.399 . S
C1978 C1979 1.385 . S
C1979 H1965 0.931 . S
C1979 C1978 1.385 . S
C1979 C1980 1.389 . S
C1980 C1979 1.389 . S
C1980 C1981 1.387 . S
C1981 H1966 0.930 . S
C1981 C1976 1.390 . S
C1981 C1980 1.387 . S
H1982 C1994 0.930 . S
H1983 C1996 0.930 . S
H1984 C1997 0.930 . S
H1985 C2001 0.959 . S
H1986 C2001 0.959 . S
H1987 C2001 0.961 . S
H1988 C2002 0.960 . S
H1989 C2002 0.961 . S
H1990 C2002 0.959 . S
H1991 C2005 0.929 . S
H1992 C2006 0.931 . S
H1993 C2008 0.930 . S
C1994 H1982 0.930 . S
C1994 C1995 1.399 . S
C1994 C1999 1.399 . S
C1995 C1994 1.399 . S
C1995 C1996 1.376 . S
C1996 H1983 0.930 . S
C1996 C1995 1.376 . S
C1996 C1997 1.388 . S
C1997 H1984 0.930 . S
C1997 C1996 1.388 . S
C1997 C1998 1.390 . S
C1998 C1997 1.390 . S
C1998 C1999 1.394 . S
C1998 C2004 1.465 . S
C1999 C1994 1.399 . S
C1999 C1998 1.394 . S
C1999 C2000 1.516 . S
C2000 C1999 1.516 . S
C2000 C2001 1.502 . S
C2000 C2002 1.561 . S
C2000 C2003 1.526 . S
C2001 H1985 0.959 . S
C2001 H1986 0.959 . S
C2001 H1987 0.961 . S
C2001 C2000 1.502 . S
C2002 H1988 0.960 . S
C2002 H1989 0.961 . S
C2002 H1990 0.959 . S
C2002 C2000 1.561 . S
C2003 C2000 1.526 . S
C2003 C2004 1.396 . S
C2003 C2008 1.390 . S
C2004 C1998 1.465 . S
C2004 C2003 1.396 . S
C2004 C2005 1.399 . S
C2005 H1991 0.929 . S
C2005 C2004 1.399 . S
C2005 C2006 1.385 . S
C2006 H1992 0.931 . S
C2006 C2005 1.385 . S
C2006 C2007 1.389 . S
C2007 C2006 1.389 . S
C2007 C2008 1.387 . S
C2008 H1993 0.930 . S
C2008 C2003 1.390 . S
C2008 C2007 1.387 . S
H2009 C2021 0.930 . S
H2010 C2023 0.930 . S
H2011 C2024 0.930 . S
H2012 C2028 0.959 . S
H2013 C2028 0.959 . S
H2014 C2028 0.961 . S
H2015 C2029 0.960 . S
H2016 C2029 0.961 . S
H2017 C2029 0.959 . S
H2018 C2032 0.929 . S
H2019 C2033 0.931 . S
H2020 C2035 0.930 . S
C2021 H2009 0.930 . S
C2021 C2022 1.399 . S
C2021 C2026 1.399 . S
C2022 C2021 1.399 . S
C2022 C2023 1.376 . S
C2023 H2010 0.930 . S
C2023 C2022 1.376 . S
C2023 C2024 1.388 . S
C2024 H2011 0.930 . S
C2024 C2023 1.388 . S
C2024 C2025 1.390 . S
C2025 C2024 1.390 . S
C2025 C2026 1.394 . S
C2025 C2031 1.465 . S
C2026 C2021 1.399 . S
C2026 C2025 1.394 . S
C2026 C2027 1.516 . S
C2027 C2026 1.516 . S
C2027 C2028 1.502 . S
C2027 C2029 1.561 . S
C2027 C2030 1.526 . S
C2028 H2012 0.959 . S
C2028 H2013 0.959 . S
C2028 H2014 0.961 . S
C2028 C2027 1.502 . S
C2029 H2015 0.960 . S
C2029 H2016 0.961 . S
C2029 H2017 0.959 . S
C2029 C2027 1.561 . S
C2030 C2027 1.526 . S
C2030 C2031 1.396 . S
C2030 C2035 1.390 . S
C2031 C2025 1.465 . S
C2031 C2030 1.396 . S
C2031 C2032 1.399 . S
C2032 H2018 0.929 . S
C2032 C2031 1.399 . S
C2032 C2033 1.385 . S
C2033 H2019 0.931 . S
C2033 C2032 1.385 . S
C2033 C2034 1.389 . S
C2034 C2033 1.389 . S
C2034 C2035 1.387 . S
C2035 H2020 0.930 . S
C2035 C2030 1.390 . S
C2035 C2034 1.387 . S
H2036 C2048 0.930 . S
H2037 C2050 0.930 . S
H2038 C2051 0.930 . S
H2039 C2055 0.959 . S
H2040 C2055 0.959 . S
H2041 C2055 0.961 . S
H2042 C2056 0.960 . S
H2043 C2056 0.961 . S
H2044 C2056 0.959 . S
H2045 C2059 0.929 . S
H2046 C2060 0.931 . S
H2047 C2062 0.930 . S
C2048 H2036 0.930 . S
C2048 C2049 1.399 . S
C2048 C2053 1.399 . S
C2049 C2048 1.399 . S
C2049 C2050 1.376 . S
C2050 H2037 0.930 . S
C2050 C2049 1.376 . S
C2050 C2051 1.388 . S
C2051 H2038 0.930 . S
C2051 C2050 1.388 . S
C2051 C2052 1.390 . S
C2052 C2051 1.390 . S
C2052 C2053 1.394 . S
C2052 C2058 1.465 . S
C2053 C2048 1.399 . S
C2053 C2052 1.394 . S
C2053 C2054 1.516 . S
C2054 C2053 1.516 . S
C2054 C2055 1.502 . S
C2054 C2056 1.561 . S
C2054 C2057 1.526 . S
C2055 H2039 0.959 . S
C2055 H2040 0.959 . S
C2055 H2041 0.961 . S
C2055 C2054 1.502 . S
C2056 H2042 0.960 . S
C2056 H2043 0.961 . S
C2056 H2044 0.959 . S
C2056 C2054 1.561 . S
C2057 C2054 1.526 . S
C2057 C2058 1.396 . S
C2057 C2062 1.390 . S
C2058 C2052 1.465 . S
C2058 C2057 1.396 . S
C2058 C2059 1.399 . S
C2059 H2045 0.929 . S
C2059 C2058 1.399 . S
C2059 C2060 1.385 . S
C2060 H2046 0.931 . S
C2060 C2059 1.385 . S
C2060 C2061 1.389 . S
C2061 C2060 1.389 . S
C2061 C2062 1.387 . S
C2062 H2047 0.930 . S
C2062 C2057 1.390 . S
C2062 C2061 1.387 . S
H2063 C2075 0.930 . S
H2064 C2077 0.930 . S
H2065 C2078 0.930 . S
H2066 C2082 0.959 . S
H2067 C2082 0.959 . S
H2068 C2082 0.961 . S
H2069 C2083 0.960 . S
H2070 C2083 0.961 . S
H2071 C2083 0.959 . S
H2072 C2086 0.929 . S
H2073 C2087 0.931 . S
H2074 C2089 0.930 . S
C2075 H2063 0.930 . S
C2075 C2076 1.399 . S
C2075 C2080 1.399 . S
C2076 C2075 1.399 . S
C2076 C2077 1.376 . S
C2077 H2064 0.930 . S
C2077 C2076 1.376 . S
C2077 C2078 1.388 . S
C2078 H2065 0.930 . S
C2078 C2077 1.388 . S
C2078 C2079 1.390 . S
C2079 C2078 1.390 . S
C2079 C2080 1.394 . S
C2079 C2085 1.465 . S
C2080 C2075 1.399 . S
C2080 C2079 1.394 . S
C2080 C2081 1.516 . S
C2081 C2080 1.516 . S
C2081 C2082 1.502 . S
C2081 C2083 1.561 . S
C2081 C2084 1.526 . S
C2082 H2066 0.959 . S
C2082 H2067 0.959 . S
C2082 H2068 0.961 . S
C2082 C2081 1.502 . S
C2083 H2069 0.960 . S
C2083 H2070 0.961 . S
C2083 H2071 0.959 . S
C2083 C2081 1.561 . S
C2084 C2081 1.526 . S
C2084 C2085 1.396 . S
C2084 C2089 1.390 . S
C2085 C2079 1.465 . S
C2085 C2084 1.396 . S
C2085 C2086 1.399 . S
C2086 H2072 0.929 . S
C2086 C2085 1.399 . S
C2086 C2087 1.385 . S
C2087 H2073 0.931 . S
C2087 C2086 1.385 . S
C2087 C2088 1.389 . S
C2088 C2087 1.389 . S
C2088 C2089 1.387 . S
C2089 H2074 0.930 . S
C2089 C2084 1.390 . S
C2089 C2088 1.387 . S
H2090 C2102 0.930 . S
H2091 C2104 0.930 . S
H2092 C2105 0.930 . S
H2093 C2109 0.959 . S
H2094 C2109 0.959 . S
H2095 C2109 0.961 . S
H2096 C2110 0.960 . S
H2097 C2110 0.961 . S
H2098 C2110 0.959 . S
H2099 C2113 0.929 . S
H2100 C2114 0.931 . S
H2101 C2116 0.930 . S
C2102 H2090 0.930 . S
C2102 C2103 1.399 . S
C2102 C2107 1.399 . S
C2103 C2102 1.399 . S
C2103 C2104 1.376 . S
C2104 H2091 0.930 . S
C2104 C2103 1.376 . S
C2104 C2105 1.388 . S
C2105 H2092 0.930 . S
C2105 C2104 1.388 . S
C2105 C2106 1.390 . S
C2106 C2105 1.390 . S
C2106 C2107 1.394 . S
C2106 C2112 1.465 . S
C2107 C2102 1.399 . S
C2107 C2106 1.394 . S
C2107 C2108 1.516 . S
C2108 C2107 1.516 . S
C2108 C2109 1.502 . S
C2108 C2110 1.561 . S
C2108 C2111 1.526 . S
C2109 H2093 0.959 . S
C2109 H2094 0.959 . S
C2109 H2095 0.961 . S
C2109 C2108 1.502 . S
C2110 H2096 0.960 . S
C2110 H2097 0.961 . S
C2110 H2098 0.959 . S
C2110 C2108 1.561 . S
C2111 C2108 1.526 . S
C2111 C2112 1.396 . S
C2111 C2116 1.390 . S
C2112 C2106 1.465 . S
C2112 C2111 1.396 . S
C2112 C2113 1.399 . S
C2113 H2099 0.929 . S
C2113 C2112 1.399 . S
C2113 C2114 1.385 . S
C2114 H2100 0.931 . S
C2114 C2113 1.385 . S
C2114 C2115 1.389 . S
C2115 C2114 1.389 . S
C2115 C2116 1.387 . S
C2116 H2101 0.930 . S
C2116 C2111 1.390 . S
C2116 C2115 1.387 . S
H2117 C2129 0.930 . S
H2118 C2131 0.930 . S
H2119 C2132 0.930 . S
H2120 C2136 0.959 . S
H2121 C2136 0.959 . S
H2122 C2136 0.961 . S
H2123 C2137 0.960 . S
H2124 C2137 0.961 . S
H2125 C2137 0.959 . S
H2126 C2140 0.929 . S
H2127 C2141 0.931 . S
H2128 C2143 0.930 . S
C2129 H2117 0.930 . S
C2129 C2130 1.399 . S
C2129 C2134 1.399 . S
C2130 C2129 1.399 . S
C2130 C2131 1.376 . S
C2131 H2118 0.930 . S
C2131 C2130 1.376 . S
C2131 C2132 1.388 . S
C2132 H2119 0.930 . S
C2132 C2131 1.388 . S
C2132 C2133 1.390 . S
C2133 C2132 1.390 . S
C2133 C2134 1.394 . S
C2133 C2139 1.465 . S
C2134 C2129 1.399 . S
C2134 C2133 1.394 . S
C2134 C2135 1.516 . S
C2135 C2134 1.516 . S
C2135 C2136 1.502 . S
C2135 C2137 1.561 . S
C2135 C2138 1.526 . S
C2136 H2120 0.959 . S
C2136 H2121 0.959 . S
C2136 H2122 0.961 . S
C2136 C2135 1.502 . S
C2137 H2123 0.960 . S
C2137 H2124 0.961 . S
C2137 H2125 0.959 . S
C2137 C2135 1.561 . S
C2138 C2135 1.526 . S
C2138 C2139 1.396 . S
C2138 C2143 1.390 . S
C2139 C2133 1.465 . S
C2139 C2138 1.396 . S
C2139 C2140 1.399 . S
C2140 H2126 0.929 . S
C2140 C2139 1.399 . S
C2140 C2141 1.385 . S
C2141 H2127 0.931 . S
C2141 C2140 1.385 . S
C2141 C2142 1.389 . S
C2142 C2141 1.389 . S
C2142 C2143 1.387 . S
C2143 H2128 0.930 . S
C2143 C2138 1.390 . S
C2143 C2142 1.387 . S
C429 C134 1.378 . S
C441 C10 1.364 . S
C456 C17 1.346 . S
C468 C153 1.333 . S
C483 C36 1.374 . S
C495 C114 1.376 . S
C510 C127 1.354 . S
C522 C43 1.374 . S
C537 C192 1.332 . S
C549 C56 1.356 . S
C564 C75 1.378 . S
C576 C205 1.350 . S
C591 C166 1.378 . S
C603 C82 1.351 . S
C618 C173 1.335 . S
C630 C95 1.367 . S
C645 C348 1.374 . S
C657 C212 1.376 . S
C672 C355 1.365 . S
C684 C225 1.344 . S
C699 C322 1.339 . S
C711 C238 1.334 . S
C726 C251 1.362 . S
C738 C329 1.340 . S
C753 C394 1.367 . S
C765 C264 1.335 . S
C780 C407 1.354 . S
C792 C277 1.333 . S
C807 C290 1.372 . S
C819 C374 1.339 . S
C834 C303 1.333 . S
C846 C387 1.355 . S
C861 C257 1.339 . S
C873 C4 1.329 . S
C888 C23 1.314 1_655 S
C900 C244 1.299 . S
C915 C231 1.327 . S
C927 C30 1.304 . S
C942 C218 1.339 . S
C954 C49 1.321 1_655 S
C969 C62 1.320 . S
C981 C309 1.338 . S
C996 C69 1.324 1_455 S
C1008 C296 1.337 . S
C1023 C283 1.314 . S
C1035 C88 1.339 . S
C1050 C101 1.316 1_455 S
C1062 C270 1.339 . S
C1077 C361 1.299 . S
C1089 C108 1.313 . S
C1104 C342 1.302 . S
C1116 C121 1.324 1_655 S
C1131 C335 1.339 . S
C1143 C140 1.322 . S
C1158 C316 1.300 . S
C1170 C147 1.306 1_655 S
C1185 C160 1.318 . S
C1197 C413 1.339 . S
C1212 C400 1.323 . S
C1224 C179 1.300 1_455 S
C1239 C186 1.332 . S
C1251 C381 1.331 . S
C1266 C199 1.334 1_455 S
C1278 C368 1.312 . S
C1293 C159 1.378 . S
C1305 C3 1.335 . S
C1320 C18 1.341 . S
C1332 C278 1.379 . S
C1347 C83 1.381 . S
C1359 C29 1.334 . S
C1374 C408 1.383 . S
C1386 C44 1.335 . S
C1401 C57 1.344 . S
C1413 C107 1.377 . S
C1428 C226 1.344 . S
C1440 C68 1.377 . S
C1455 C356 1.333 . S
C1467 C96 1.382 . S
C1482 C380 1.378 . S
C1494 C120 1.335 . S
C1509 C135 1.352 . S
C1521 C185 1.372 . S
C1536 C304 1.333 . S
C1548 C146 1.382 . S
C1563 C330 1.378 . S
C1575 C174 1.334 . S
C1590 C198 1.371 . S
C1602 C252 1.340 . S
C1617 C213 1.352 . S
C1629 C367 1.372 . S
C1644 C291 1.383 . S
C1656 C239 1.334 . S
C1671 C315 1.365 . S
C1683 C265 1.344 . S
C1698 C341 1.366 . S
C1710 C395 1.359 . S
C1725 C5 1.246 . S
C1737 C42 1.265 . S
C1752 C31 1.287 . S
C1764 C16 1.268 . S
C1779 C55 1.272 . S
C1791 C94 1.248 . S
C1806 C70 1.274 . S
C1818 C81 1.247 . S
C1833 C109 1.288 . S
C1845 C148 1.266 . S
C1860 C122 1.288 . S
C1872 C133 1.264 . S
C1887 C161 1.271 . S
C1899 C200 1.248 . S
C1914 C187 1.273 . S
C1926 C172 1.248 . S
C1941 C250 1.246 . S
C1953 C211 1.266 . S
C1968 C237 1.246 . S
C1980 C224 1.269 . S
C1995 C302 1.272 . S
C2007 C263 1.248 . S
C2022 C289 1.263 . S
C2034 C276 1.285 . S
C2049 C354 1.287 . S
C2061 C317 1.270 . S
C2076 C343 1.246 . S
C2088 C328 1.265 . S
C2103 C369 1.261 . S
C2115 C406 1.286 . S
C2130 C393 1.262 . S
C2142 C382 1.285 . S
