# Generated by pormake.
# Topology uoh, (4)-cn, num edge types: 1
# Building blocks:
#     Node 0, Type 0, BuildingBlock: NAHDIM_clean_sbu_0, # of connection points: 4
#     Node 1, Type 0, BuildingBlock: NAHDIM_clean_sbu_0, # of connection points: 4
#     Node 2, Type 0, BuildingBlock: NAHDIM_clean_sbu_0, # of connection points: 4
#     Node 3, Type 0, BuildingBlock: NAHDIM_clean_sbu_0, # of connection points: 4
#     Node 4, Type 0, BuildingBlock: NAHDIM_clean_sbu_0, # of connection points: 4
#     Node 5, Type 0, BuildingBlock: NAHDIM_clean_sbu_0, # of connection points: 4
#     Node 6, Type 0, BuildingBlock: NAHDIM_clean_sbu_0, # of connection points: 4
#     Node 7, Type 0, BuildingBlock: NAHDIM_clean_sbu_0, # of connection points: 4
#     Node 8, Type 0, BuildingBlock: NAHDIM_clean_sbu_0, # of connection points: 4
#     Node 9, Type 0, BuildingBlock: NAHDIM_clean_sbu_0, # of connection points: 4
#     Node 10, Type 0, BuildingBlock: NAHDIM_clean_sbu_0, # of connection points: 4
#     Node 11, Type 0, BuildingBlock: NAHDIM_clean_sbu_0, # of connection points: 4
#     Node 12, Type 0, BuildingBlock: NAHDIM_clean_sbu_0, # of connection points: 4
#     Node 13, Type 0, BuildingBlock: NAHDIM_clean_sbu_0, # of connection points: 4
#     Node 14, Type 0, BuildingBlock: NAHDIM_clean_sbu_0, # of connection points: 4
#     Node 15, Type 0, BuildingBlock: NAHDIM_clean_sbu_0, # of connection points: 4
#     Node 16, Type 0, BuildingBlock: NAHDIM_clean_sbu_0, # of connection points: 4
#     Node 17, Type 0, BuildingBlock: NAHDIM_clean_sbu_0, # of connection points: 4
#     Node 18, Type 0, BuildingBlock: NAHDIM_clean_sbu_0, # of connection points: 4
#     Node 19, Type 0, BuildingBlock: NAHDIM_clean_sbu_0, # of connection points: 4
#     Node 20, Type 0, BuildingBlock: NAHDIM_clean_sbu_0, # of connection points: 4
#     Node 21, Type 0, BuildingBlock: NAHDIM_clean_sbu_0, # of connection points: 4
#     Node 22, Type 0, BuildingBlock: NAHDIM_clean_sbu_0, # of connection points: 4
#     Node 23, Type 0, BuildingBlock: NAHDIM_clean_sbu_0, # of connection points: 4
#     Node 24, Type 0, BuildingBlock: NAHDIM_clean_sbu_0, # of connection points: 4
#     Node 25, Type 0, BuildingBlock: NAHDIM_clean_sbu_0, # of connection points: 4
#     Node 26, Type 0, BuildingBlock: NAHDIM_clean_sbu_0, # of connection points: 4
#     Node 27, Type 0, BuildingBlock: NAHDIM_clean_sbu_0, # of connection points: 4
#     Node 28, Type 0, BuildingBlock: NAHDIM_clean_sbu_0, # of connection points: 4
#     Node 29, Type 0, BuildingBlock: NAHDIM_clean_sbu_0, # of connection points: 4
#     Node 30, Type 0, BuildingBlock: NAHDIM_clean_sbu_0, # of connection points: 4
#     Node 31, Type 0, BuildingBlock: NAHDIM_clean_sbu_0, # of connection points: 4
#     Node 32, Type 0, BuildingBlock: NAHDIM_clean_sbu_0, # of connection points: 4
#     Node 33, Type 0, BuildingBlock: NAHDIM_clean_sbu_0, # of connection points: 4
#     Node 34, Type 0, BuildingBlock: NAHDIM_clean_sbu_0, # of connection points: 4
#     Node 35, Type 0, BuildingBlock: NAHDIM_clean_sbu_0, # of connection points: 4
#     Edge 36, Type (0, 0), BuildingBlock: XIVTED_clean_linker_0, # of connection points: 2
#     Edge 37, Type (0, 0), BuildingBlock: XIVTED_clean_linker_0, # of connection points: 2
#     Edge 38, Type (0, 0), BuildingBlock: XIVTED_clean_linker_0, # of connection points: 2
#     Edge 39, Type (0, 0), BuildingBlock: XIVTED_clean_linker_0, # of connection points: 2
#     Edge 40, Type (0, 0), BuildingBlock: XIVTED_clean_linker_0, # of connection points: 2
#     Edge 41, Type (0, 0), BuildingBlock: XIVTED_clean_linker_0, # of connection points: 2
#     Edge 42, Type (0, 0), BuildingBlock: XIVTED_clean_linker_0, # of connection points: 2
#     Edge 43, Type (0, 0), BuildingBlock: XIVTED_clean_linker_0, # of connection points: 2
#     Edge 44, Type (0, 0), BuildingBlock: XIVTED_clean_linker_0, # of connection points: 2
#     Edge 45, Type (0, 0), BuildingBlock: XIVTED_clean_linker_0, # of connection points: 2
#     Edge 46, Type (0, 0), BuildingBlock: XIVTED_clean_linker_0, # of connection points: 2
#     Edge 47, Type (0, 0), BuildingBlock: XIVTED_clean_linker_0, # of connection points: 2
#     Edge 48, Type (0, 0), BuildingBlock: XIVTED_clean_linker_0, # of connection points: 2
#     Edge 49, Type (0, 0), BuildingBlock: XIVTED_clean_linker_0, # of connection points: 2
#     Edge 50, Type (0, 0), BuildingBlock: XIVTED_clean_linker_0, # of connection points: 2
#     Edge 51, Type (0, 0), BuildingBlock: XIVTED_clean_linker_0, # of connection points: 2
#     Edge 52, Type (0, 0), BuildingBlock: XIVTED_clean_linker_0, # of connection points: 2
#     Edge 53, Type (0, 0), BuildingBlock: XIVTED_clean_linker_0, # of connection points: 2
#     Edge 54, Type (0, 0), BuildingBlock: XIVTED_clean_linker_0, # of connection points: 2
#     Edge 55, Type (0, 0), BuildingBlock: XIVTED_clean_linker_0, # of connection points: 2
#     Edge 56, Type (0, 0), BuildingBlock: XIVTED_clean_linker_0, # of connection points: 2
#     Edge 57, Type (0, 0), BuildingBlock: XIVTED_clean_linker_0, # of connection points: 2
#     Edge 58, Type (0, 0), BuildingBlock: XIVTED_clean_linker_0, # of connection points: 2
#     Edge 59, Type (0, 0), BuildingBlock: XIVTED_clean_linker_0, # of connection points: 2
#     Edge 60, Type (0, 0), BuildingBlock: XIVTED_clean_linker_0, # of connection points: 2
#     Edge 61, Type (0, 0), BuildingBlock: XIVTED_clean_linker_0, # of connection points: 2
#     Edge 62, Type (0, 0), BuildingBlock: XIVTED_clean_linker_0, # of connection points: 2
#     Edge 63, Type (0, 0), BuildingBlock: XIVTED_clean_linker_0, # of connection points: 2
#     Edge 64, Type (0, 0), BuildingBlock: XIVTED_clean_linker_0, # of connection points: 2
#     Edge 65, Type (0, 0), BuildingBlock: XIVTED_clean_linker_0, # of connection points: 2
#     Edge 66, Type (0, 0), BuildingBlock: XIVTED_clean_linker_0, # of connection points: 2
#     Edge 67, Type (0, 0), BuildingBlock: XIVTED_clean_linker_0, # of connection points: 2
#     Edge 68, Type (0, 0), BuildingBlock: XIVTED_clean_linker_0, # of connection points: 2
#     Edge 69, Type (0, 0), BuildingBlock: XIVTED_clean_linker_0, # of connection points: 2
#     Edge 70, Type (0, 0), BuildingBlock: XIVTED_clean_linker_0, # of connection points: 2
#     Edge 71, Type (0, 0), BuildingBlock: XIVTED_clean_linker_0, # of connection points: 2
#     Edge 72, Type (0, 0), BuildingBlock: XIVTED_clean_linker_0, # of connection points: 2
#     Edge 73, Type (0, 0), BuildingBlock: XIVTED_clean_linker_0, # of connection points: 2
#     Edge 74, Type (0, 0), BuildingBlock: XIVTED_clean_linker_0, # of connection points: 2
#     Edge 75, Type (0, 0), BuildingBlock: XIVTED_clean_linker_0, # of connection points: 2
#     Edge 76, Type (0, 0), BuildingBlock: XIVTED_clean_linker_0, # of connection points: 2
#     Edge 77, Type (0, 0), BuildingBlock: XIVTED_clean_linker_0, # of connection points: 2
#     Edge 78, Type (0, 0), BuildingBlock: XIVTED_clean_linker_0, # of connection points: 2
#     Edge 79, Type (0, 0), BuildingBlock: XIVTED_clean_linker_0, # of connection points: 2
#     Edge 80, Type (0, 0), BuildingBlock: XIVTED_clean_linker_0, # of connection points: 2
#     Edge 81, Type (0, 0), BuildingBlock: XIVTED_clean_linker_0, # of connection points: 2
#     Edge 82, Type (0, 0), BuildingBlock: XIVTED_clean_linker_0, # of connection points: 2
#     Edge 83, Type (0, 0), BuildingBlock: XIVTED_clean_linker_0, # of connection points: 2
#     Edge 84, Type (0, 0), BuildingBlock: XIVTED_clean_linker_0, # of connection points: 2
#     Edge 85, Type (0, 0), BuildingBlock: XIVTED_clean_linker_0, # of connection points: 2
#     Edge 86, Type (0, 0), BuildingBlock: XIVTED_clean_linker_0, # of connection points: 2
#     Edge 87, Type (0, 0), BuildingBlock: XIVTED_clean_linker_0, # of connection points: 2
#     Edge 88, Type (0, 0), BuildingBlock: XIVTED_clean_linker_0, # of connection points: 2
#     Edge 89, Type (0, 0), BuildingBlock: XIVTED_clean_linker_0, # of connection points: 2
#     Edge 90, Type (0, 0), BuildingBlock: XIVTED_clean_linker_0, # of connection points: 2
#     Edge 91, Type (0, 0), BuildingBlock: XIVTED_clean_linker_0, # of connection points: 2
#     Edge 92, Type (0, 0), BuildingBlock: XIVTED_clean_linker_0, # of connection points: 2
#     Edge 93, Type (0, 0), BuildingBlock: XIVTED_clean_linker_0, # of connection points: 2
#     Edge 94, Type (0, 0), BuildingBlock: XIVTED_clean_linker_0, # of connection points: 2
#     Edge 95, Type (0, 0), BuildingBlock: XIVTED_clean_linker_0, # of connection points: 2
#     Edge 96, Type (0, 0), BuildingBlock: XIVTED_clean_linker_0, # of connection points: 2
#     Edge 97, Type (0, 0), BuildingBlock: XIVTED_clean_linker_0, # of connection points: 2
#     Edge 98, Type (0, 0), BuildingBlock: XIVTED_clean_linker_0, # of connection points: 2
#     Edge 99, Type (0, 0), BuildingBlock: XIVTED_clean_linker_0, # of connection points: 2
#     Edge 100, Type (0, 0), BuildingBlock: XIVTED_clean_linker_0, # of connection points: 2
#     Edge 101, Type (0, 0), BuildingBlock: XIVTED_clean_linker_0, # of connection points: 2
#     Edge 102, Type (0, 0), BuildingBlock: XIVTED_clean_linker_0, # of connection points: 2
#     Edge 103, Type (0, 0), BuildingBlock: XIVTED_clean_linker_0, # of connection points: 2
#     Edge 104, Type (0, 0), BuildingBlock: XIVTED_clean_linker_0, # of connection points: 2
#     Edge 105, Type (0, 0), BuildingBlock: XIVTED_clean_linker_0, # of connection points: 2
#     Edge 106, Type (0, 0), BuildingBlock: XIVTED_clean_linker_0, # of connection points: 2
#     Edge 107, Type (0, 0), BuildingBlock: XIVTED_clean_linker_0, # of connection points: 2
# Relax obj value: 0.228
# Max RMSD: 0.254
# Mean RMSD: 0.254
data_MOF--net-uoh--node1-NAHDIM_clean_sbu_0--edge1-XIVTED_clean_linker_0
_symmetry_space_group_name_H-M    P1
_symmetry_Int_Tables_number       1
_symmetry_cell_setting            triclinic
loop_
_symmetry_equiv_pos_as_xyz
'x, y, z'
_cell_length_a     90.327656
_cell_length_b     90.245273
_cell_length_c     25.931619
_cell_angle_alpha  90.041862
_cell_angle_beta   89.965526
_cell_angle_gamma 120.02859
loop_
_atom_site_label
_atom_site_type_symbol
_atom_site_fract_x
_atom_site_fract_y
_atom_site_fract_z
_atom_type_partial_charge
C0 C 0.21718 0.16233 0.1976 0.0
O1 O 0.20601 0.14591 0.20113 0.0
O2 O 0.22845 0.1404 0.08397 0.0
Zn3 Zn 0.23705 0.14888 0.15551 0.0
O4 O 0.22748 0.13 0.20859 0.0
C5 C 0.26768 0.14851 0.14018 0.0
O6 O 0.25647 0.13325 0.12291 0.0
O7 O 0.23158 0.16706 0.17663 0.0
C8 C 0.22961 0.13494 0.25527 0.0
O9 O 0.23752 0.15141 0.26542 0.0
C10 C 0.21934 0.12466 0.07245 0.0
O11 O 0.21431 0.11312 0.1092 0.0
O12 O 0.26243 0.15839 0.15614 0.0
C13 C 0.8125 0.05361 0.14902 0.0
O14 O 0.80858 0.06055 0.11078 0.0
O15 O 0.85729 0.08581 0.08201 0.0
Zn16 Zn 0.84666 0.08468 0.15101 0.0
O17 O 0.8642 0.09088 0.20639 0.0
C18 C 0.84463 0.1149 0.12633 0.0
O19 O 0.85572 0.11688 0.09034 0.0
O20 O 0.82738 0.06142 0.16861 0.0
C21 C 0.87697 0.1059 0.20992 0.0
O22 O 0.87929 0.11726 0.17448 0.0
C23 C 0.85131 0.07457 0.04662 0.0
O24 O 0.83687 0.06023 0.05405 0.0
O25 O 0.83861 0.1018 0.15529 0.0
C26 C 0.92713 0.75089 0.21574 0.0
O27 O 0.91384 0.74538 0.24648 0.0
O28 O 0.90715 0.76228 0.07398 0.0
Zn29 Zn 0.90476 0.75498 0.14786 0.0
O30 O 0.90133 0.77054 0.1955 0.0
C31 C 0.87153 0.72439 0.13021 0.0
O32 O 0.87068 0.73266 0.0897 0.0
O33 O 0.92612 0.75543 0.17013 0.0
C34 C 0.88689 0.76963 0.19961 0.0
O35 O 0.87451 0.75963 0.16805 0.0
C36 C 0.90992 0.77689 0.05945 0.0
O37 O 0.91093 0.78804 0.09391 0.0
O38 O 0.88485 0.73126 0.15827 0.0
C39 C 0.18173 0.23912 0.35712 0.0
O40 O 0.17994 0.24111 0.40648 0.0
O41 O 0.14001 0.23396 0.40322 0.0
Zn42 Zn 0.15257 0.24468 0.33744 0.0
O43 O 0.13657 0.23391 0.27812 0.0
C44 C 0.15233 0.27544 0.36304 0.0
O45 O 0.13881 0.26456 0.38948 0.0
O46 O 0.17207 0.24055 0.32445 0.0
C47 C 0.12205 0.23284 0.27473 0.0
O48 O 0.11677 0.23889 0.31214 0.0
C49 C 0.13854 0.22098 0.42692 0.0
O50 O 0.14597 0.21272 0.4089 0.0
O51 O 0.16069 0.26994 0.3379 0.0
C52 C 0.74847 0.93386 0.27045 0.0
O53 O 0.74084 0.9211 0.23774 0.0
O54 O 0.75676 0.90874 0.40604 0.0
Zn55 Zn 0.74967 0.90826 0.33243 0.0
O56 O 0.76347 0.90308 0.28246 0.0
C57 C 0.71752 0.87729 0.35131 0.0
O58 O 0.72602 0.87544 0.38948 0.0
O59 O 0.75304 0.93122 0.31419 0.0
C60 C 0.76118 0.88808 0.27728 0.0
O61 O 0.75054 0.87591 0.30841 0.0
C62 C 0.76996 0.90828 0.42049 0.0
O63 O 0.78006 0.90734 0.38582 0.0
O64 O 0.72494 0.89048 0.32282 0.0
C65 C 0.04411 0.80784 0.35109 0.0
O66 O 0.04721 0.80991 0.40086 0.0
O67 O 0.07422 0.84629 0.41261 0.0
Zn68 Zn 0.07684 0.83918 0.34136 0.0
O69 O 0.08224 0.85744 0.28834 0.0
C70 C 0.10831 0.84077 0.37153 0.0
O71 O 0.10885 0.852 0.40485 0.0
O72 O 0.05502 0.81855 0.31973 0.0
C73 C 0.09699 0.87055 0.28343 0.0
O74 O 0.10906 0.87307 0.31639 0.0
C75 C 0.07529 0.86043 0.42468 0.0
O76 O 0.07807 0.87174 0.38858 0.0
O77 O 0.09567 0.83345 0.34091 0.0
C78 C 0.75587 0.80896 0.83376 0.0
O79 O 0.75718 0.8111 0.884 0.0
O80 O 0.75937 0.84444 0.90577 0.0
Zn81 Zn 0.75168 0.83905 0.83195 0.0
O82 O 0.76583 0.85849 0.78365 0.0
C83 C 0.72086 0.83997 0.85592 0.0
O84 O 0.73002 0.84953 0.89471 0.0
O85 O 0.75329 0.81903 0.80604 0.0
C86 C 0.76376 0.87135 0.77928 0.0
O87 O 0.75331 0.87296 0.81102 0.0
C88 C 0.77213 0.85838 0.9209 0.0
O89 O 0.78151 0.87015 0.88686 0.0
O90 O 0.72735 0.83378 0.82527 0.0
C91 C 0.17793 0.93702 0.84361 0.0
O92 O 0.17708 0.93297 0.8926 0.0
O93 O 0.13814 0.9094 0.90971 0.0
Zn94 Zn 0.14392 0.90706 0.83643 0.0
O95 O 0.12545 0.90345 0.78659 0.0
C96 C 0.15384 0.88245 0.86675 0.0
O97 O 0.15834 0.89131 0.90981 0.0
O98 O 0.1654 0.9279 0.81408 0.0
C99 C 0.11214 0.88883 0.78203 0.0
O100 O 0.10991 0.87651 0.81364 0.0
C101 C 0.1244 0.90876 0.92429 0.0
O102 O 0.11295 0.90691 0.88983 0.0
O103 O 0.14745 0.88688 0.83044 0.0
C104 C 0.05214 0.24445 0.84419 0.0
O105 O 0.05622 0.24597 0.8933 0.0
O106 O 0.08236 0.23576 0.90174 0.0
Zn107 Zn 0.08366 0.24381 0.82897 0.0
O108 O 0.08645 0.22875 0.77772 0.0
C109 C 0.10877 0.27819 0.85861 0.0
O110 O 0.10038 0.27372 0.9025 0.0
O111 O 0.06212 0.24374 0.81104 0.0
C112 C 0.10049 0.22891 0.77184 0.0
O113 O 0.11332 0.23831 0.80285 0.0
C114 C 0.08309 0.22267 0.9159 0.0
O115 O 0.08465 0.21295 0.88116 0.0
O116 O 0.10375 0.26754 0.82162 0.0
C117 C 0.81435 0.75652 0.65528 0.0
O118 O 0.81496 0.75628 0.60468 0.0
O119 O 0.84981 0.76237 0.57802 0.0
Zn120 Zn 0.84629 0.75563 0.6527 0.0
O121 O 0.8662 0.77154 0.69673 0.0
C122 C 0.84881 0.72497 0.63387 0.0
O123 O 0.85734 0.73301 0.59223 0.0
O124 O 0.82601 0.75612 0.6815 0.0
C125 C 0.87992 0.77091 0.69857 0.0
O126 O 0.88196 0.76079 0.66654 0.0
C127 C 0.86196 0.77656 0.56183 0.0
O128 O 0.87294 0.78763 0.5949 0.0
O129 O 0.84279 0.73201 0.66302 0.0
C130 C 0.25174 0.05331 0.71391 0.0
O131 O 0.259 0.06615 0.74654 0.0
O132 O 0.23931 0.07831 0.58616 0.0
Zn133 Zn 0.24914 0.07847 0.65588 0.0
O134 O 0.23647 0.08263 0.7126 0.0
C135 C 0.27899 0.11054 0.6312 0.0
O136 O 0.26842 0.11136 0.5981 0.0
O137 O 0.24707 0.05577 0.67007 0.0
C138 C 0.23666 0.09672 0.71803 0.0
O139 O 0.24473 0.10893 0.68392 0.0
C140 C 0.22503 0.07761 0.57982 0.0
O141 O 0.21561 0.07618 0.62019 0.0
O142 O 0.27373 0.09732 0.65936 0.0
C143 C 0.93345 0.18511 0.72275 0.0
O144 O 0.92079 0.17758 0.75583 0.0
O145 O 0.91019 0.15309 0.58333 0.0
Zn146 Zn 0.90917 0.15899 0.65728 0.0
O147 O 0.90516 0.13988 0.70518 0.0
C148 C 0.87685 0.15774 0.64044 0.0
O149 O 0.8755 0.14778 0.6016 0.0
O150 O 0.93134 0.17949 0.67684 0.0
C151 C 0.89091 0.12602 0.70726 0.0
O152 O 0.87875 0.12357 0.67475 0.0
C153 C 0.912 0.14061 0.56915 0.0
O154 O 0.91329 0.13078 0.60404 0.0
O155 O 0.89021 0.16416 0.66831 0.0
C156 C 0.87876 0.48952 0.49432 0.0
O157 O 0.86852 0.47318 0.48473 0.0
O158 O 0.8946 0.47377 0.38241 0.0
Zn159 Zn 0.90187 0.48007 0.45631 0.0
O160 O 0.89151 0.45976 0.50415 0.0
C161 C 0.93573 0.48703 0.43018 0.0
O162 O 0.92753 0.47672 0.39159 0.0
O163 O 0.8945 0.49624 0.48293 0.0
C164 C 0.89719 0.4495 0.50916 0.0
O165 O 0.90946 0.45102 0.4785 0.0
C166 C 0.88379 0.4588 0.36718 0.0
O167 O 0.87614 0.44647 0.4012 0.0
O168 O 0.92746 0.49083 0.46207 0.0
C169 C 0.47461 0.39363 0.51095 0.0
O170 O 0.48087 0.40689 0.54211 0.0
O171 O 0.50885 0.4184 0.3757 0.0
Zn172 Zn 0.5009 0.41829 0.44805 0.0
O173 O 0.5193 0.42263 0.49922 0.0
C174 C 0.50123 0.45017 0.4307 0.0
O175 O 0.5117 0.45194 0.39297 0.0
O176 O 0.48085 0.39548 0.46593 0.0
C177 C 0.53246 0.43729 0.50507 0.0
O178 O 0.53486 0.4498 0.47402 0.0
C179 C 0.4984 0.40984 0.34002 0.0
O180 O 0.48205 0.40045 0.35093 0.0
O181 O 0.49473 0.43666 0.45793 0.0
C182 C 0.60911 0.08631 0.49343 0.0
O183 O 0.60641 0.08323 0.44378 0.0
O184 O 0.57631 0.08827 0.4232 0.0
Zn185 Zn 0.57399 0.07865 0.49437 0.0
O186 O 0.56311 0.08793 0.54208 0.0
C187 C 0.54389 0.04775 0.47184 0.0
O188 O 0.54045 0.05878 0.44972 0.0
O189 O 0.59698 0.08467 0.52209 0.0
C190 C 0.57173 0.10055 0.57188 0.0
O191 O 0.58852 0.1085 0.57005 0.0
C192 C 0.57632 0.10212 0.41431 0.0
O193 O 0.57492 0.11077 0.4529 0.0
O194 O 0.55838 0.05321 0.49308 0.0
C195 C 0.83183 0.55128 0.69741 0.0
O196 O 0.81624 0.54248 0.71602 0.0
O197 O 0.8188 0.57126 0.7983 0.0
Zn198 Zn 0.82435 0.57667 0.72295 0.0
O199 O 0.80344 0.56544 0.67781 0.0
C200 C 0.83247 0.6112 0.74236 0.0
O201 O 0.8235 0.60401 0.78416 0.0
O202 O 0.83927 0.56752 0.69809 0.0
C203 C 0.79363 0.57155 0.67041 0.0
O204 O 0.79604 0.58493 0.69722 0.0
C205 C 0.80438 0.55974 0.81516 0.0
O206 O 0.79223 0.55023 0.78227 0.0
O207 O 0.83532 0.60211 0.71085 0.0
C208 C 0.42372 0.27813 0.66112 0.0
O209 O 0.42111 0.27512 0.71082 0.0
O210 O 0.43309 0.24904 0.7299 0.0
Zn211 Zn 0.42448 0.24618 0.65708 0.0
O212 O 0.43835 0.24116 0.60681 0.0
C213 C 0.3945 0.21419 0.68475 0.0
O214 O 0.40449 0.21427 0.72168 0.0
O215 O 0.4253 0.26757 0.63256 0.0
C216 C 0.4365 0.22632 0.60191 0.0
O217 O 0.42643 0.21418 0.63404 0.0
C218 C 0.44583 0.24771 0.74413 0.0
O219 O 0.45472 0.24484 0.70952 0.0
O220 O 0.4002 0.22669 0.65346 0.0
C221 C 0.72661 0.15719 0.63367 0.0
O222 O 0.73996 0.16274 0.60314 0.0
O223 O 0.75098 0.19009 0.77108 0.0
Zn224 Zn 0.75154 0.18297 0.69802 0.0
O225 O 0.75871 0.202 0.6464 0.0
C226 C 0.7808 0.1793 0.72296 0.0
O227 O 0.78241 0.18937 0.76176 0.0
O228 O 0.72843 0.16396 0.67788 0.0
C229 C 0.77436 0.2134 0.64194 0.0
O230 O 0.78545 0.21375 0.67537 0.0
C231 C 0.75449 0.20494 0.78567 0.0
O232 O 0.75846 0.21701 0.75119 0.0
O233 O 0.76835 0.17458 0.69195 0.0
C234 C 0.41929 0.14327 0.16344 0.0
O235 O 0.41445 0.14327 0.21124 0.0
O236 O 0.4285 0.18215 0.22851 0.0
Zn237 Zn 0.42022 0.17582 0.1556 0.0
O238 O 0.43392 0.19467 0.10502 0.0
C239 C 0.38949 0.17685 0.17907 0.0
O240 O 0.39938 0.18827 0.2133 0.0
O241 O 0.42219 0.15564 0.13386 0.0
C242 C 0.43283 0.20811 0.10104 0.0
O243 O 0.42319 0.21065 0.13368 0.0
C244 C 0.44176 0.19589 0.2423 0.0
O245 O 0.45129 0.20716 0.20727 0.0
O246 O 0.39561 0.16971 0.15077 0.0
C247 C 0.85894 0.28053 0.20205 0.0
O248 O 0.85545 0.2798 0.25149 0.0
O249 O 0.82283 0.24722 0.26935 0.0
Zn250 Zn 0.82892 0.24606 0.19535 0.0
O251 O 0.81023 0.24257 0.14634 0.0
C252 C 0.82633 0.21299 0.21154 0.0
O253 O 0.81598 0.21161 0.24923 0.0
O254 O 0.84967 0.26779 0.17336 0.0
C255 C 0.79628 0.22849 0.14187 0.0
O256 O 0.79313 0.21583 0.17329 0.0
C257 C 0.81023 0.24892 0.28288 0.0
O258 O 0.80059 0.25023 0.24737 0.0
O259 O 0.83345 0.22661 0.1848 0.0
C260 C 0.71399 0.55198 0.19759 0.0
O261 O 0.72045 0.54275 0.21513 0.0
O262 O 0.74722 0.57144 0.29871 0.0
Zn263 Zn 0.74712 0.57681 0.2234 0.0
O264 O 0.75645 0.56529 0.17796 0.0
C265 C 0.77401 0.61117 0.24228 0.0
O266 O 0.77582 0.60391 0.28385 0.0
O267 O 0.72312 0.56819 0.19904 0.0
C268 C 0.77232 0.57115 0.17061 0.0
O269 O 0.78342 0.58436 0.19777 0.0
C270 C 0.74971 0.55967 0.31579 0.0
O271 O 0.75196 0.54984 0.28308 0.0
O272 O 0.76189 0.60219 0.2112 0.0
C273 C 0.48033 0.08436 0.05297 0.0
O274 O 0.48556 0.07738 0.08759 0.0
O275 O 0.5211 0.09853 0.93369 0.0
Zn276 Zn 0.51024 0.08912 0.00213 0.0
O277 O 0.52658 0.10275 0.05819 0.0
C278 C 0.49641 0.05263 0.98106 0.0
O279 O 0.48842 0.05493 0.9423 0.0
O280 O 0.48876 0.09003 0.0114 0.0
C281 C 0.54083 0.10315 0.05972 0.0
O282 O 0.54467 0.09574 0.02255 0.0
C283 C 0.51249 0.09702 0.89336 0.0
O284 O 0.49573 0.08929 0.89626 0.0
O285 O 0.50583 0.06515 0.01026 0.0
C286 C 0.91621 0.39219 0.02775 0.0
O287 O 0.92212 0.40648 0.05416 0.0
O288 O 0.90478 0.4105 0.88143 0.0
Zn289 Zn 0.91216 0.41307 0.95565 0.0
O290 O 0.89709 0.41729 0.00348 0.0
C291 C 0.94215 0.44552 0.93215 0.0
O292 O 0.93277 0.44536 0.89319 0.0
O293 O 0.91146 0.39184 0.98141 0.0
C294 C 0.89878 0.43202 0.00993 0.0
O295 O 0.90952 0.44473 0.98053 0.0
C296 C 0.89123 0.41009 0.86606 0.0
O297 O 0.88078 0.41073 0.90009 0.0
O298 O 0.9361 0.4329 0.963 0.0
C299 C 0.60525 0.49172 0.99461 0.0
O300 O 0.59869 0.4754 0.9837 0.0
O301 O 0.57546 0.47849 0.87865 0.0
Zn302 Zn 0.57365 0.48395 0.95272 0.0
O303 O 0.5622 0.46295 -0.00261 0.0
C304 C 0.54748 0.49174 0.9255 0.0
O305 O 0.54614 0.48238 0.88505 0.0
O306 O 0.59689 0.4991 0.98285 0.0
C307 C 0.54632 0.4521 0.99506 0.0
O308 O 0.53705 0.45351 0.95849 0.0
C309 C 0.57292 0.46406 0.86299 0.0
O310 O 0.56944 0.45187 0.89663 0.0
O311 O 0.55909 0.49499 0.95858 0.0
C312 C 0.57544 0.86333 0.78442 0.0
O313 O 0.5758 0.86071 0.73471 0.0
O314 O 0.56945 0.82544 0.72366 0.0
Zn315 Zn 0.57726 0.83214 0.79688 0.0
O316 O 0.56257 0.81381 0.84775 0.0
C317 C 0.6074 0.82968 0.77685 0.0
O318 O 0.598 0.81963 0.7392 0.0
O319 O 0.57625 0.85308 0.8163 0.0
C320 C 0.56314 0.80009 0.85258 0.0
O321 O 0.5726 0.79707 0.82058 0.0
C322 C 0.55536 0.81251 0.71036 0.0
O323 O 0.54471 0.8025 0.74598 0.0
O324 O 0.60133 0.83679 0.80549 0.0
C325 C 0.14442 0.72672 0.82934 0.0
O326 O 0.14587 0.73358 0.78362 0.0
O327 O 0.19097 0.75696 0.78782 0.0
Zn328 Zn 0.17864 0.75581 0.85322 0.0
O329 O 0.19364 0.7582 0.91273 0.0
C330 C 0.16971 0.78095 0.81857 0.0
O331 O 0.16742 0.77336 0.77365 0.0
O332 O 0.15653 0.7339 0.86176 0.0
C333 C 0.20813 0.77168 0.91691 0.0
O334 O 0.2132 0.78338 0.88063 0.0
C335 C 0.1881 0.74457 0.75827 0.0
O336 O 0.17576 0.72903 0.7691 0.0
O337 O 0.17434 0.77552 0.85696 0.0
C338 C 0.27032 0.42129 0.83557 0.0
O339 O 0.26431 0.41717 0.78843 0.0
O340 O 0.24071 0.43708 0.79112 0.0
Zn341 Zn 0.24125 0.42659 0.85855 0.0
O342 O 0.23996 0.44056 0.91619 0.0
C343 C 0.21503 0.39301 0.82551 0.0
O344 O 0.22294 0.39795 0.78094 0.0
O345 O 0.2626 0.42542 0.8685 0.0
C346 C 0.23 0.44669 0.91581 0.0
O347 O 0.22041 0.44436 0.87512 0.0
C348 C 0.25344 0.44742 0.76399 0.0
O349 O 0.26904 0.45223 0.77949 0.0
O350 O 0.22073 0.40307 0.8639 0.0
C351 C 0.51161 0.91383 0.93177 0.0
O352 O 0.50211 0.91741 0.90172 0.0
O353 O 0.47974 0.89737 0.0739 0.0
Zn354 Zn 0.48435 0.906 0.0011 0.0
O355 O 0.4665 0.88969 0.95198 0.0
C356 C 0.49275 0.94052 0.02794 0.0
O357 O 0.50122 0.93854 0.06595 0.0
O358 O 0.5068 0.90907 0.97783 0.0
C359 C 0.45248 0.88958 0.94658 0.0
O360 O 0.44919 0.89928 0.97678 0.0
C361 C 0.46737 0.88291 0.08734 0.0
O362 O 0.45667 0.87261 0.05227 0.0
O363 O 0.48477 0.92838 0.99608 0.0
C364 C 0.0807 0.6065 0.92512 0.0
O365 O 0.07631 0.59426 0.8909 0.0
O366 O 0.09262 0.58476 0.06223 0.0
Zn367 Zn 0.08418 0.58278 0.98954 0.0
O368 O 0.09885 0.57942 0.93801 0.0
C369 C 0.05457 0.54999 0.01293 0.0
O370 O 0.06419 0.55004 0.05097 0.0
O371 O 0.08425 0.60425 0.9708 0.0
C372 C 0.09799 0.56501 0.93296 0.0
O373 O 0.08853 0.55262 0.96522 0.0
C374 C 0.10601 0.58447 0.07557 0.0
O375 O 0.11557 0.58295 0.04019 0.0
O376 O 0.06031 0.5628 0.98288 0.0
C377 C 0.39024 0.47655 0.93757 0.0
O378 O 0.40256 0.48422 0.90348 0.0
O379 O 0.41376 0.50934 0.07589 0.0
Zn380 Zn 0.4146 0.5033 0.00179 0.0
O381 O 0.41756 0.5218 0.9528 0.0
C382 C 0.44769 0.50614 0.01738 0.0
O383 O 0.44855 0.51567 0.05687 0.0
O384 O 0.39268 0.48223 0.98346 0.0
C385 C 0.43179 0.53558 0.94828 0.0
O386 O 0.44433 0.53846 0.97979 0.0
C387 C 0.41272 0.5222 0.09078 0.0
O388 O 0.41209 0.53256 0.05642 0.0
O389 O 0.43426 0.49921 0.98981 0.0
C390 C 0.08741 0.48918 0.42278 0.0
O391 O 0.08242 0.4964 0.38821 0.0
O392 O 0.0948 0.52162 0.56051 0.0
Zn393 Zn 0.08756 0.51491 0.48699 0.0
O394 O 0.1016 0.5337 0.43682 0.0
C395 C 0.05569 0.51448 0.50587 0.0
O396 O 0.0642 0.52466 0.54441 0.0
O397 O 0.09014 0.49481 0.46874 0.0
C398 C 0.09969 0.54666 0.43233 0.0
O399 O 0.08946 0.5485 0.46438 0.0
C400 C 0.10761 0.53566 0.57481 0.0
O401 O 0.11728 0.54697 0.54006 0.0
O402 O 0.06298 0.50857 0.4774 0.0
C403 C 0.50475 0.60276 0.43534 0.0
O404 O 0.49838 0.58928 0.40504 0.0
O405 O 0.47427 0.57886 0.5773 0.0
Zn406 Zn 0.4807 0.578 0.50361 0.0
O407 O 0.46122 0.5713 0.45423 0.0
C408 C 0.48322 0.54786 0.52481 0.0
O409 O 0.4732 0.54619 0.56376 0.0
O410 O 0.49942 0.60103 0.48151 0.0
C411 C 0.44937 0.55583 0.44942 0.0
O412 O 0.44883 0.54427 0.48129 0.0
C413 C 0.45976 0.57636 0.59183 0.0
O414 O 0.44794 0.57329 0.55727 0.0
O415 O 0.48847 0.56076 0.49526 0.0
C416 C 0.38658 0.89834 0.50406 0.0
O417 O 0.39047 0.90197 0.553 0.0
O418 O 0.41452 0.88787 0.57295 0.0
Zn419 Zn 0.41757 0.8963 0.5 0.0
O420 O 0.42277 0.88235 0.45069 0.0
C421 C 0.44957 0.92691 0.52579 0.0
O422 O 0.4504 0.91727 0.56231 0.0
O423 O 0.39624 0.89548 0.47525 0.0
C424 C 0.43756 0.88402 0.44731 0.0
O425 O 0.44944 0.89396 0.48028 0.0
C426 C 0.41587 0.87522 0.58809 0.0
O427 O 0.41926 0.86643 0.55448 0.0
O428 O 0.43671 0.9207 0.49586 0.0
C429 C 0.14817 0.4281 0.32828 0.0
O430 O 0.15037 0.42451 0.28076 0.0
O431 O 0.19205 0.43876 0.28806 0.0
Zn432 Zn 0.1799 0.42809 0.35402 0.0
O433 O 0.19513 0.44004 0.41397 0.0
C434 C 0.18365 0.39868 0.33699 0.0
O435 O 0.19801 0.41015 0.31531 0.0
O436 O 0.15887 0.4299 0.36296 0.0
C437 C 0.2111 0.4455 0.41527 0.0
O438 O 0.21871 0.4437 0.37455 0.0
C439 C 0.19231 0.45127 0.26482 0.0
O440 O 0.18398 0.45847 0.2841 0.0
O441 O 0.17365 0.40337 0.35585 0.0
C442 C 0.55951 0.72023 0.29059 0.0
O443 O 0.56193 0.7231 0.24079 0.0
O444 O 0.55747 0.75424 0.22359 0.0
Zn445 Zn 0.56487 0.7549 0.29713 0.0
O446 O 0.55293 0.7624 0.3473 0.0
C447 C 0.59797 0.78404 0.27316 0.0
O448 O 0.58962 0.78589 0.23457 0.0
O449 O 0.56024 0.73182 0.32004 0.0
C450 C 0.55704 0.77802 0.35168 0.0
O451 O 0.56804 0.78925 0.31899 0.0
C452 C 0.54602 0.75755 0.20901 0.0
O453 O 0.53765 0.76115 0.24359 0.0
O454 O 0.59008 0.77148 0.3038 0.0
C455 C 0.27148 0.85162 0.35744 0.0
O456 O 0.26866 0.8505 0.3075 0.0
O457 O 0.24114 0.81481 0.28978 0.0
Zn458 Zn 0.23806 0.82124 0.36143 0.0
O459 O 0.23076 0.80151 0.40995 0.0
C460 C 0.20544 0.8174 0.34096 0.0
O461 O 0.20329 0.80333 0.31901 0.0
O462 O 0.26002 0.84083 0.3873 0.0
C463 C 0.2416 0.79939 0.43521 0.0
O464 O 0.258 0.80999 0.42801 0.0
C465 C 0.23962 0.80041 0.2785 0.0
O466 O 0.23606 0.78903 0.315 0.0
O467 O 0.21976 0.8276 0.36153 0.0
H468 H 0.23763 0.12636 0.74746 0.0
H469 H 0.20511 0.09221 0.03267 0.0
H470 H 0.21955 0.07437 0.79664 0.0
H471 H 0.22801 0.14521 0.98724 0.0
H472 H 0.20522 0.08442 0.94246 0.0
H473 H 0.22916 0.13236 0.83088 0.0
C474 C 0.23169 0.11614 0.77553 0.0
C475 C 0.22955 0.09991 0.76535 0.0
C476 C 0.21003 0.09773 0.95218 0.0
C477 C 0.2199 0.10671 0.86097 0.0
C478 C 0.20993 0.10219 0.00368 0.0
C479 C 0.21682 0.11943 0.01765 0.0
C480 C 0.21709 0.11061 0.91442 0.0
C481 C 0.22279 0.13178 0.97835 0.0
C482 C 0.22688 0.11959 0.8232 0.0
C483 C 0.22165 0.08713 0.80305 0.0
N484 N 0.22296 0.12715 0.92863 0.0
N485 N 0.21728 0.09086 0.84938 0.0
H486 H 0.91345 0.12628 0.77816 0.0
H487 H 0.88347 0.10008 0.02306 0.0
H488 H 0.85997 0.09912 0.73701 0.0
H489 H 0.83807 0.05874 0.95399 0.0
H490 H 0.89551 0.10969 0.93777 0.0
H491 H 0.90641 0.11041 0.85899 0.0
C492 C 0.90022 0.1169 0.78602 0.0
C493 C 0.88721 0.11435 0.75142 0.0
C494 C 0.88317 0.09819 0.94093 0.0
C495 C 0.87897 0.09662 0.84481 0.0
C496 C 0.87618 0.0928 0.98985 0.0
C497 C 0.85967 0.07869 0.9956 0.0
C498 C 0.87353 0.08947 0.89722 0.0
C499 C 0.85083 0.06972 0.95125 0.0
C500 C 0.89618 0.10797 0.83251 0.0
C501 C 0.87037 0.10172 0.763 0.0
N502 N 0.85775 0.07547 0.90379 0.0
N503 N 0.86669 0.0935 0.80914 0.0
H504 H 0.90649 0.80211 0.01171 0.0
H505 H 0.90454 0.76401 0.73246 0.0
H506 H 0.91592 0.76055 0.98078 0.0
H507 H 0.88055 0.7938 0.76903 0.0
H508 H 0.9173 0.77007 0.81841 0.0
H509 H 0.90498 0.8059 0.91861 0.0
C510 C 0.9085 0.79396 0.98536 0.0
C511 C 0.911 0.78078 0.00388 0.0
C512 C 0.90951 0.77555 0.8072 0.0
C513 C 0.90946 0.78514 0.89785 0.0
C514 C 0.90229 0.77218 0.75804 0.0
C515 C 0.89111 0.77805 0.74408 0.0
C516 C 0.90554 0.78488 0.84242 0.0
C517 C 0.88881 0.78871 0.77867 0.0
C518 C 0.90763 0.79613 0.93233 0.0
C519 C 0.91364 0.77066 0.96811 0.0
N520 N 0.89573 0.79156 0.82663 0.0
N521 N 0.91266 0.77296 0.91681 0.0
H522 H 0.11096 0.22355 0.4538 0.0
H523 H 0.07725 0.21074 0.69637 0.0
H524 H 0.14592 0.20826 0.51288 0.0
H525 H 0.12974 0.22934 0.74058 0.0
H526 H 0.08335 0.20311 0.61185 0.0
H527 H 0.09852 0.21985 0.53953 0.0
C528 C 0.11576 0.21906 0.48479 0.0
C529 C 0.12946 0.21621 0.47654 0.0
C530 C 0.09348 0.20877 0.64022 0.0
C531 C 0.11534 0.21195 0.57473 0.0
C532 C 0.09001 0.21303 0.6886 0.0
C533 C 0.10315 0.22115 0.7251 0.0
C534 C 0.11021 0.21271 0.62824 0.0
C535 C 0.11933 0.22344 0.71319 0.0
C536 C 0.10856 0.21678 0.5336 0.0
C537 C 0.13529 0.21048 0.51785 0.0
N538 N 0.12249 0.21945 0.66539 0.0
N539 N 0.12845 0.20892 0.56569 0.0
H540 H 0.75507 0.91535 0.50116 0.0
H541 H 0.78605 0.87192 0.70657 0.0
H542 H 0.79187 0.89955 0.46647 0.0
H543 H 0.75566 0.89509 0.74497 0.0
H544 H 0.79147 0.8852 0.62149 0.0
H545 H 0.75787 0.91108 0.59261 0.0
C546 C 0.76386 0.91111 0.51284 0.0
C547 C 0.77306 0.90755 0.47609 0.0
C548 C 0.78385 0.88762 0.64881 0.0
C549 C 0.77626 0.90251 0.58087 0.0
C550 C 0.78076 0.88005 0.69746 0.0
C551 C 0.7701 0.88213 0.73258 0.0
C552 C 0.77607 0.89717 0.63503 0.0
C553 C 0.76378 0.89296 0.71891 0.0
C554 C 0.76551 0.90874 0.56514 0.0
C555 C 0.78443 0.90231 0.49349 0.0
N556 N 0.76661 0.89983 0.67086 0.0
N557 N 0.78552 0.8997 0.54464 0.0
H558 H 0.08571 0.85778 0.75112 0.0
H559 H 0.08546 0.89188 0.46763 0.0
H560 H 0.11379 0.91107 0.70734 0.0
H561 H 0.06556 0.83876 0.50706 0.0
H562 H 0.08969 0.89912 0.55947 0.0
H563 H 0.07191 0.85086 0.6667 0.0
C564 C 0.08876 0.86807 0.72415 0.0
C565 C 0.10121 0.88498 0.73588 0.0
C566 C 0.08417 0.88586 0.54798 0.0
C567 C 0.08556 0.87712 0.63908 0.0
C568 C 0.08172 0.88171 0.4956 0.0
C569 C 0.07546 0.86474 0.47969 0.0
C570 C 0.08026 0.87292 0.58453 0.0
C571 C 0.07072 0.85206 0.5176 0.0
C572 C 0.0809 0.8641 0.67586 0.0
C573 C 0.10449 0.89781 0.69959 0.0
N574 N 0.07339 0.85644 0.56821 0.0
N575 N 0.0969 0.89358 0.6525 0.0
H576 H 0.78392 0.9101 0.20601 0.0
H577 H 0.75757 0.83594 0.00084 0.0
H578 H 0.75361 0.85636 0.2428 0.0
H579 H 0.7929 0.88916 0.96809 0.0
H580 H 0.7591 0.84287 0.09228 0.0
H581 H 0.79067 0.90256 0.12232 0.0
C582 C 0.7789 0.89671 0.19684 0.0
C583 C 0.76793 0.88383 0.2311 0.0
C584 C 0.76671 0.85301 0.06525 0.0
C585 C 0.77544 0.8751 0.13507 0.0
C586 C 0.76581 0.84906 0.01296 0.0
C587 C 0.77491 0.86204 0.97669 0.0
C588 C 0.7766 0.8701 0.08139 0.0
C589 C 0.78554 0.87878 0.99468 0.0
C590 C 0.78276 0.89241 0.14898 0.0
C591 C 0.76196 0.86671 0.21737 0.0
N592 N 0.78589 0.88237 0.04572 0.0
N593 N 0.76556 0.86284 0.17007 0.0
H594 H 0.12846 0.89565 0.25039 0.0
H595 H 0.09374 0.89976 0.97057 0.0
H596 H 0.07498 0.86948 0.20899 0.0
H597 H 0.14647 0.91599 0.00483 0.0
H598 H 0.08709 0.89473 0.06261 0.0
H599 H 0.13548 0.90936 0.16574 0.0
C600 C 0.11816 0.893 0.22387 0.0
C601 C 0.10113 0.88116 0.23642 0.0
C602 C 0.10016 0.8996 0.04997 0.0
C603 C 0.10909 0.89673 0.13946 0.0
C604 C 0.10397 0.90252 -0.00252 0.0
C605 C 0.12063 0.90803 0.97995 0.0
C606 C 0.11311 0.9023 0.08507 0.0
C607 C 0.13339 0.91148 0.01658 0.0
C608 C 0.12218 0.90079 0.17547 0.0
C609 C 0.08832 0.87833 0.20063 0.0
N610 N 0.12934 0.90841 0.06735 0.0
N611 N 0.09257 0.8859 0.15353 0.0
H612 H 0.07426 0.23608 0.99657 0.0
H613 H 0.12629 0.21463 0.19782 0.0
H614 H 0.09439 0.20277 0.96149 0.0
H615 H 0.0956 0.23702 0.24136 0.0
H616 H 0.1128 0.208 0.11302 0.0
H617 H 0.07984 0.23449 0.08782 0.0
C618 C 0.07968 0.22826 0.00818 0.0
C619 C 0.08411 0.21974 0.97138 0.0
C620 C 0.10882 0.21413 0.14133 0.0
C621 C 0.0907 0.21802 0.07569 0.0
C622 C 0.11656 0.21797 0.18971 0.0
C623 C 0.11224 0.22663 0.22637 0.0
C624 C 0.09687 0.21922 0.12924 0.0
C625 C 0.09941 0.23046 0.21406 0.0
C626 C 0.08281 0.22732 0.06031 0.0
C627 C 0.09089 0.20964 0.98858 0.0
N628 N 0.09237 0.22698 0.16617 0.0
N629 N 0.09425 0.20928 0.0395 0.0
H630 H 0.90958 0.7923 0.2697 0.0
H631 H 0.83883 0.76011 0.4849 0.0
H632 H 0.85558 0.76228 0.23673 0.0
H633 H 0.89081 0.8003 0.51142 0.0
H634 H 0.84424 0.76305 0.39228 0.0
H635 H 0.9028 0.7982 0.35572 0.0
C636 C 0.8963 0.78723 0.28018 0.0
C637 C 0.88312 0.77649 0.24637 0.0
C638 C 0.85441 0.77142 0.41823 0.0
C639 C 0.87527 0.78297 0.34499 0.0
C640 C 0.85134 0.76968 0.47116 0.0
C641 C 0.86448 0.77979 0.50587 0.0
C642 C 0.87082 0.78314 0.3999 0.0
C643 C 0.88037 0.79215 0.48597 0.0
C644 C 0.89243 0.7906 0.32934 0.0
C645 C 0.86615 0.77044 0.26176 0.0
N646 N 0.88319 0.79328 0.43426 0.0
N647 N 0.86271 0.77348 0.31036 0.0
H648 H 0.20331 0.0895 0.55686 0.0
H649 H 0.22785 0.10378 0.25784 0.0
H650 H 0.23674 0.07406 0.48606 0.0
H651 H 0.21885 0.13833 0.34988 0.0
H652 H 0.22233 0.08561 0.33432 0.0
H653 H 0.19999 0.09999 0.47304 0.0
C654 C 0.20965 0.08797 0.5235 0.0
C655 C 0.22053 0.08115 0.52844 0.0
C656 C 0.2213 0.09703 0.33732 0.0
C657 C 0.21668 0.09297 0.43287 0.0
C658 C 0.22437 0.10732 0.29386 0.0
C659 C 0.224 0.12262 0.29805 0.0
C660 C 0.21748 0.10196 0.38459 0.0
C661 C 0.21949 0.12674 0.34543 0.0
C662 C 0.2078 0.09401 0.47584 0.0
C663 C 0.22843 0.07947 0.48395 0.0
N664 N 0.21645 0.11648 0.38699 0.0
N665 N 0.22645 0.08547 0.43796 0.0
H666 H 0.91595 0.16134 0.48756 0.0
H667 H 0.87752 0.08544 0.2868 0.0
H668 H 0.90657 0.11074 0.52476 0.0
H669 H 0.89921 0.13844 0.24285 0.0
H670 H 0.8902 0.09458 0.3723 0.0
H671 H 0.91185 0.15356 0.39651 0.0
C672 C 0.91317 0.14862 0.47649 0.0
C673 C 0.91137 0.13658 0.51379 0.0
C674 C 0.89243 0.10422 0.34369 0.0
C675 C 0.90654 0.12754 0.40963 0.0
C676 C 0.88518 0.09901 0.29488 0.0
C677 C 0.88708 0.11121 0.25795 0.0
C678 C 0.90142 0.12173 0.35584 0.0
C679 C 0.89728 0.1286 0.2703 0.0
C680 C 0.91091 0.14421 0.42445 0.0
C681 C 0.90796 0.12037 0.49725 0.0
N682 N 0.90382 0.13334 0.31853 0.0
N683 N 0.90539 0.11623 0.44637 0.0
H684 H 0.87672 0.40886 0.08036 0.0
H685 H 0.89628 0.4815 0.28701 0.0
H686 H 0.90423 0.46291 0.04582 0.0
H687 H 0.86635 0.42745 0.31995 0.0
H688 H 0.89575 0.47486 0.19563 0.0
H689 H 0.86906 0.41524 0.16441 0.0
C690 C 0.88092 0.42206 0.09008 0.0
C691 C 0.89139 0.4354 0.05629 0.0
C692 C 0.88911 0.46444 0.2227 0.0
C693 C 0.88281 0.4428 0.15279 0.0
C694 C 0.88943 0.46823 0.27497 0.0
C695 C 0.88156 0.455 0.31132 0.0
C696 C 0.88101 0.44729 0.2066 0.0
C697 C 0.87272 0.43805 0.29336 0.0
C698 C 0.87656 0.4257 0.13818 0.0
C699 C 0.89631 0.45223 0.07082 0.0
N700 N 0.87288 0.43467 0.24233 0.0
N701 N 0.8922 0.45547 0.11829 0.0
H702 H 0.51203 0.43131 0.01311 0.0
H703 H 0.47942 0.39523 0.25277 0.0
H704 H 0.56166 0.4466 0.07793 0.0
H705 H 0.53122 0.42836 0.30458 0.0
H706 H 0.48952 0.40046 0.16374 0.0
H707 H 0.49879 0.41691 0.09353 0.0
C708 C 0.52013 0.43125 0.04382 0.0
C709 C 0.538 0.44039 0.03899 0.0
C710 C 0.49869 0.40672 0.1944 0.0
C711 C 0.52292 0.42373 0.1315 0.0
C712 C 0.49293 0.40361 0.2454 0.0
C713 C 0.50445 0.41162 0.28618 0.0
C714 C 0.51609 0.41805 0.1842 0.0
C715 C 0.52183 0.4221 0.2744 0.0
C716 C 0.51253 0.42292 0.08995 0.0
C717 C 0.54783 0.43989 0.08011 0.0
N718 N 0.52708 0.4251 0.22454 0.0
N719 N 0.54017 0.43196 0.12485 0.0
H720 H 0.56724 0.12507 0.37917 0.0
H721 H 0.56809 0.0993 0.08512 0.0
H722 H 0.58477 0.09101 0.32723 0.0
H723 H 0.53717 0.11985 0.14263 0.0
H724 H 0.58137 0.10373 0.17002 0.0
H725 H 0.56312 0.13039 0.28918 0.0
C726 C 0.57048 0.11893 0.34885 0.0
C727 C 0.57606 0.10734 0.36061 0.0
C728 C 0.57186 0.10751 0.16376 0.0
C729 C 0.57147 0.11342 0.25798 0.0
C730 C 0.56432 0.10505 0.11527 0.0
C731 C 0.55125 0.10888 0.10713 0.0
C732 C 0.56633 0.11391 0.2042 0.0
C733 C 0.54699 0.11644 0.14751 0.0
C734 C 0.5681 0.12195 0.29758 0.0
C735 C 0.58016 0.09981 0.31985 0.0
N736 N 0.55436 0.11851 0.19457 0.0
N737 N 0.57764 0.10287 0.27032 0.0
H738 H 0.82657 0.5776 0.89335 0.0
H739 H 0.75268 0.54483 0.10458 0.0
H740 H 0.77423 0.53856 0.86485 0.0
H741 H 0.80481 0.58457 0.13215 0.0
H742 H 0.76137 0.53908 0.02131 0.0
H743 H 0.81981 0.57721 0.98461 0.0
C744 C 0.81369 0.56882 0.90633 0.0
C745 C 0.80088 0.55826 0.87122 0.0
C746 C 0.77096 0.54891 0.04584 0.0
C747 C 0.79304 0.5578 0.97581 0.0
C748 C 0.76602 0.55218 0.09352 0.0
C749 C 0.77799 0.56541 0.12508 0.0
C750 C 0.78798 0.55899 0.02942 0.0
C751 C 0.79511 0.57437 0.10889 0.0
C752 C 0.80984 0.5686 0.95853 0.0
C753 C 0.78446 0.54704 0.89041 0.0
N754 N 0.79954 0.57116 0.06186 0.0
N755 N 0.78097 0.54724 0.94132 0.0
H756 H 0.46672 0.23768 0.79017 0.0
H757 H 0.42765 0.23411 0.06915 0.0
H758 H 0.43201 0.25615 0.82484 0.0
H759 H 0.45408 0.20705 0.0277 0.0
H760 H 0.43526 0.24839 0.98537 0.0
H761 H 0.46812 0.23251 0.88216 0.0
C762 C 0.45962 0.24091 0.81716 0.0
C763 C 0.44899 0.24706 0.79974 0.0
C764 C 0.4396 0.23951 0.99493 0.0
C765 C 0.45051 0.24115 0.90483 0.0
C766 C 0.43531 0.23139 0.04284 0.0
C767 C 0.43995 0.21911 0.05503 0.0
C768 C 0.44859 0.23533 0.95906 0.0
C769 C 0.44998 0.21621 0.01956 0.0
C770 C 0.46039 0.23791 0.86964 0.0
C771 C 0.44015 0.25112 0.83649 0.0
N772 N 0.45378 0.22409 0.97291 0.0
N773 N 0.44096 0.24792 0.88723 0.0
H774 H 0.76817 0.23643 0.83206 0.0
H775 H 0.76876 0.19838 0.10944 0.0
H776 H 0.74455 0.18249 0.86626 0.0
H777 H 0.79906 0.25189 0.06977 0.0
H778 H 0.75444 0.19295 0.02597 0.0
H779 H 0.7743 0.24272 0.92392 0.0
C780 C 0.76404 0.2259 0.85893 0.0
C781 C 0.7561 0.20892 0.84138 0.0
C782 C 0.76406 0.20592 0.03584 0.0
C783 C 0.76309 0.21603 0.94634 0.0
C784 C 0.7722 0.20904 0.08359 0.0
C785 C 0.78537 0.22556 0.0962 0.0
C786 C 0.76912 0.2194 0.00048 0.0
C787 C 0.78918 0.2389 0.06131 0.0
C788 C 0.76758 0.2295 0.91134 0.0
C789 C 0.75094 0.19579 0.87798 0.0
N790 N 0.78126 0.23549 0.01476 0.0
N791 N 0.75469 0.19962 0.92862 0.0
H792 H 0.45812 0.24827 0.5284 0.0
H793 H 0.42798 0.17376 0.32316 0.0
H794 H 0.42888 0.19462 0.56726 0.0
H795 H 0.46354 0.22671 0.28778 0.0
H796 H 0.4311 0.18089 0.41466 0.0
H797 H 0.46351 0.24057 0.44302 0.0
C798 C 0.45308 0.23487 0.51931 0.0
C799 C 0.44275 0.22205 0.55469 0.0
C800 C 0.43841 0.19093 0.38702 0.0
C801 C 0.4487 0.21315 0.45679 0.0
C802 C 0.43659 0.18687 0.3347 0.0
C803 C 0.44531 0.19972 0.29776 0.0
C804 C 0.44885 0.20801 0.40256 0.0
C805 C 0.45646 0.21644 0.31495 0.0
C806 C 0.45616 0.23048 0.47049 0.0
C807 C 0.43673 0.20493 0.54101 0.0
N808 N 0.45771 0.22016 0.36612 0.0
N809 N 0.43954 0.20096 0.49281 0.0
H810 H 0.80739 0.23469 0.61128 0.0
H811 H 0.78051 0.24459 0.32523 0.0
H812 H 0.75511 0.21549 0.56359 0.0
H813 H 0.82976 0.25115 0.36618 0.0
H814 H 0.77238 0.24014 0.41641 0.0
H815 H 0.817 0.24733 0.52595 0.0
C816 C 0.79793 0.23338 0.58322 0.0
C817 C 0.78039 0.22377 0.59434 0.0
C818 C 0.78502 0.24273 0.40541 0.0
C819 C 0.79133 0.23811 0.49651 0.0
C820 C 0.78969 0.24531 0.35342 0.0
C821 C 0.80576 0.24801 0.33804 0.0
C822 C 0.79656 0.24301 0.4422 0.0
C823 C 0.81716 0.24887 0.37625 0.0
C824 C 0.80343 0.24053 0.53441 0.0
C825 C 0.76874 0.22261 0.55648 0.0
N826 N 0.8123 0.24627 0.42651 0.0
N827 N 0.77441 0.22952 0.50902 0.0
H828 H 0.78629 0.54482 0.60538 0.0
H829 H 0.7458 0.57796 0.39354 0.0
H830 H 0.77494 0.58534 0.63173 0.0
H831 H 0.75822 0.53823 0.36597 0.0
H832 H 0.75222 0.57771 0.48477 0.0
H833 H 0.77166 0.53895 0.52245 0.0
C834 C 0.78049 0.55232 0.59412 0.0
C835 C 0.7821 0.56579 0.62521 0.0
C836 C 0.75337 0.56891 0.45891 0.0
C837 C 0.76548 0.55924 0.52996 0.0
C838 C 0.74972 0.56905 0.40672 0.0
C839 C 0.75171 0.55826 0.37187 0.0
C840 C 0.75915 0.55796 0.47644 0.0
C841 C 0.75667 0.54689 0.39133 0.0
C842 C 0.77217 0.54898 0.54665 0.0
C843 C 0.77418 0.57495 0.60881 0.0
N844 N 0.7604 0.54718 0.44222 0.0
N845 N 0.76642 0.57166 0.56198 0.0
H846 H 0.53742 0.0884 0.58212 0.0
H847 H 0.54677 0.1166 0.87513 0.0
H848 H 0.58593 0.12169 0.65517 0.0
H849 H 0.49818 0.08903 0.79697 0.0
H850 H 0.5613 0.12162 0.79232 0.0
H851 H 0.5228 0.09151 0.65691 0.0
C852 C 0.54501 0.09655 0.61363 0.0
C853 C 0.56292 0.10456 0.61283 0.0
C854 C 0.54746 0.11466 0.79311 0.0
C855 C 0.54626 0.10804 0.69877 0.0
C856 C 0.53914 0.11176 0.84044 0.0
C857 C 0.52124 0.10214 0.84301 0.0
C858 C 0.5378 0.10772 0.74806 0.0
C859 C 0.51201 0.09637 0.7968 0.0
C860 C 0.53665 0.09834 0.65632 0.0
C861 C 0.5721 0.11513 0.65439 0.0
N862 N 0.52041 0.09903 0.75125 0.0
N863 N 0.56365 0.11635 0.69606 0.0
H864 H 0.91087 0.43009 0.5425 0.0
H865 H 0.86649 0.41446 0.81901 0.0
H866 H 0.8726 0.4436 0.58097 0.0
H867 H 0.90963 0.40777 0.78577 0.0
H868 H 0.86451 0.41953 0.72733 0.0
H869 H 0.90627 0.41607 0.62625 0.0
C870 C 0.90129 0.42986 0.56814 0.0
C871 C 0.89232 0.4383 0.55505 0.0
C872 C 0.87428 0.41676 0.74005 0.0
C873 C 0.88711 0.42241 0.65115 0.0
C874 C 0.8754 0.41383 0.7924 0.0
C875 C 0.88841 0.41095 0.81022 0.0
C876 C 0.88623 0.41678 0.70532 0.0
C877 C 0.89954 0.41017 0.77388 0.0
C878 C 0.89872 0.42191 0.61608 0.0
C879 C 0.87998 0.43747 0.58974 0.0
N880 N 0.8983 0.41324 0.72326 0.0
N881 N 0.8779 0.42987 0.63645 0.0
H882 H 0.53148 0.41434 0.57591 0.0
H883 H 0.58214 0.48696 0.78373 0.0
H884 H 0.55747 0.46836 0.54117 0.0
H885 H 0.56098 0.4331 0.81477 0.0
H886 H 0.57648 0.48049 0.69214 0.0
H887 H 0.54543 0.4209 0.66005 0.0
C888 C 0.54033 0.42757 0.58565 0.0
C889 C 0.54309 0.44085 0.55178 0.0
C890 C 0.57327 0.47009 0.71883 0.0
C891 C 0.55896 0.44845 0.64833 0.0
C892 C 0.57648 0.47378 0.77121 0.0
C893 C 0.57178 0.46052 0.80706 0.0
C894 C 0.56513 0.453 0.70216 0.0
C895 C 0.56467 0.44371 0.78854 0.0
C896 C 0.54829 0.43131 0.63376 0.0
C897 C 0.55482 0.45773 0.56625 0.0
N898 N 0.56133 0.4404 0.73742 0.0
N899 N 0.56211 0.46107 0.61377 0.0
H900 H 0.53059 0.78246 0.66744 0.0
H901 H 0.56821 0.81094 0.38285 0.0
H902 H 0.57202 0.83266 0.62749 0.0
H903 H 0.53504 0.75838 0.42829 0.0
H904 H 0.5644 0.82017 0.4679 0.0
H905 H 0.52715 0.77464 0.57599 0.0
C906 C 0.53881 0.7919 0.63942 0.0
C907 C 0.55178 0.80815 0.65515 0.0
C908 C 0.55777 0.80662 0.459 0.0
C909 C 0.54788 0.79932 0.5507 0.0
C910 C 0.55988 0.80134 0.41034 0.0
C911 C 0.55219 0.78384 0.39874 0.0
C912 C 0.54789 0.79433 0.49629 0.0
C913 C 0.54142 0.772 0.43583 0.0
C914 C 0.53686 0.78742 0.58727 0.0
C915 C 0.56202 0.8199 0.61716 0.0
N916 N 0.53976 0.77745 0.48319 0.0
N917 N 0.55993 0.81522 0.56677 0.0
H918 H 0.26005 0.79858 0.51758 0.0
H919 H 0.17742 0.72756 0.6663 0.0
H920 H 0.20969 0.7718 0.44962 0.0
H921 H 0.22064 0.76997 0.74026 0.0
H922 H 0.19227 0.73703 0.58306 0.0
H923 H 0.2486 0.78108 0.59526 0.0
C924 C 0.24667 0.78877 0.51853 0.0
C925 C 0.2357 0.78685 0.47763 0.0
C926 C 0.19858 0.74402 0.61778 0.0
C927 C 0.22264 0.76684 0.56593 0.0
C928 C 0.19017 0.73861 0.66513 0.0
C929 C 0.19776 0.74819 0.7098 0.0
C930 C 0.21474 0.75888 0.61564 0.0
C931 C 0.21428 0.76242 0.70642 0.0
C932 C 0.24016 0.77885 0.56288 0.0
C933 C 0.2185 0.77388 0.48078 0.0
N934 N 0.22219 0.76741 0.66003 0.0
N935 N 0.21243 0.76447 0.52452 0.0
H936 H 0.20009 0.45405 0.50213 0.0
H937 H 0.27439 0.45818 0.67901 0.0
H938 H 0.24302 0.45111 0.44095 0.0
H939 H 0.22526 0.44858 0.73405 0.0
H940 H 0.26672 0.46287 0.59207 0.0
H941 H 0.21313 0.45975 0.58728 0.0
C942 C 0.21238 0.4548 0.50649 0.0
C943 C 0.22031 0.45173 0.46461 0.0
C944 C 0.25776 0.45999 0.62344 0.0
C945 C 0.23525 0.45812 0.56222 0.0
C946 C 0.26214 0.45737 0.67296 0.0
C947 C 0.25031 0.45274 0.71341 0.0
C948 C 0.24156 0.45813 0.61484 0.0
C949 C 0.23463 0.45186 0.70369 0.0
C950 C 0.21981 0.45804 0.55517 0.0
C951 C 0.23637 0.45318 0.47237 0.0
N952 N 0.23067 0.4544 0.65535 0.0
N953 N 0.24321 0.45602 0.52054 0.0
H954 H 0.48962 0.89783 0.16729 0.0
H955 H 0.41608 0.8617 0.37432 0.0
H956 H 0.43798 0.85822 0.1332 0.0
H957 H 0.46954 0.89268 0.41306 0.0
H958 H 0.42414 0.857 0.28861 0.0
H959 H 0.48311 0.8933 0.25911 0.0
C960 C 0.47695 0.88804 0.17918 0.0
C961 C 0.46422 0.87859 0.14261 0.0
C962 C 0.43412 0.86456 0.31616 0.0
C963 C 0.45662 0.87343 0.2477 0.0
C964 C 0.42952 0.86725 0.36514 0.0
C965 C 0.44216 0.87791 0.40048 0.0
C966 C 0.45147 0.8728 0.30226 0.0
C967 C 0.45937 0.88456 0.38678 0.0
C968 C 0.47325 0.8854 0.23166 0.0
C969 C 0.44811 0.8659 0.16014 0.0
N970 N 0.46352 0.88218 0.33836 0.0
N971 N 0.44467 0.86389 0.21151 0.0
H972 H 0.09244 0.59274 0.15713 0.0
H973 H 0.12135 0.54653 0.3586 0.0
H974 H 0.12771 0.5752 0.11999 0.0
H975 H 0.09265 0.5713 0.39962 0.0
H976 H 0.12722 0.56031 0.27424 0.0
H977 H 0.09548 0.58832 0.24831 0.0
C978 C 0.10098 0.58813 0.16823 0.0
C979 C 0.10962 0.58406 0.13088 0.0
C980 C 0.11989 0.56297 0.30199 0.0
C981 C 0.11305 0.57881 0.2353 0.0
C982 C 0.11653 0.5551 0.35022 0.0
C983 C 0.1062 0.5575 0.38584 0.0
C984 C 0.1127 0.57314 0.28913 0.0
C985 C 0.10048 0.5689 0.37311 0.0
C986 C 0.10275 0.58565 0.22037 0.0
C987 C 0.12069 0.57835 0.1475 0.0
N988 N 0.10355 0.57606 0.32544 0.0
N989 N 0.12188 0.57562 0.1985 0.0
H990 H 0.40856 0.50105 0.17146 0.0
H991 H 0.44699 0.57628 0.37572 0.0
H992 H 0.41871 0.55207 0.13677 0.0
H993 H 0.42771 0.52327 0.41539 0.0
H994 H 0.43387 0.56734 0.29068 0.0
H995 H 0.41289 0.50845 0.26274 0.0
C996 C 0.41156 0.51378 0.18311 0.0
C997 C 0.41351 0.52604 0.1464 0.0
C998 C 0.43226 0.55765 0.31827 0.0
C999 C 0.41861 0.53466 0.25095 0.0
C1000 C 0.43974 0.56274 0.36689 0.0
C1001 C 0.4387 0.55052 0.40241 0.0
C1002 C 0.42386 0.54023 0.30491 0.0
C1003 C 0.42901 0.53315 0.38904 0.0
C1004 C 0.41397 0.51799 0.23532 0.0
C1005 C 0.41721 0.54227 0.16376 0.0
N1006 N 0.42222 0.52855 0.34103 0.0
N1007 N 0.41989 0.5462 0.21478 0.0
H1008 H 0.11846 0.58765 0.85886 0.0
H1009 H 0.09401 0.51357 0.65578 0.0
H1010 H 0.09291 0.53407 0.89931 0.0
H1011 H 0.12775 0.56692 0.62025 0.0
H1012 H 0.0961 0.52083 0.74703 0.0
H1013 H 0.12494 0.58056 0.77404 0.0
C1014 C 0.11446 0.57442 0.85023 0.0
C1015 C 0.10485 0.56139 0.88589 0.0
C1016 C 0.10324 0.53095 0.71943 0.0
C1017 C 0.11205 0.55318 0.78868 0.0
C1018 C 0.102 0.52681 0.66726 0.0
C1019 C 0.11052 0.5397 0.63032 0.0
C1020 C 0.11286 0.54814 0.73481 0.0
C1021 C 0.12086 0.5566 0.64743 0.0
C1022 C 0.11817 0.57039 0.80175 0.0
C1023 C 0.10017 0.54451 0.87281 0.0
N1024 N 0.12153 0.56038 0.69844 0.0
N1025 N 0.10356 0.54086 0.82494 0.0
H1026 H 0.40878 0.5335 0.8758 0.0
H1027 H 0.48209 0.58602 0.67262 0.0
H1028 H 0.4624 0.56206 0.91493 0.0
H1029 H 0.42838 0.56374 0.63776 0.0
H1030 H 0.47504 0.58042 0.7639 0.0
H1031 H 0.4154 0.54756 0.79179 0.0
C1032 C 0.42192 0.54295 0.86708 0.0
C1033 C 0.43511 0.54637 0.90208 0.0
C1034 C 0.46479 0.57695 0.73644 0.0
C1035 C 0.44279 0.56235 0.80572 0.0
C1036 C 0.46881 0.58011 0.68424 0.0
C1037 C 0.45578 0.57509 0.64745 0.0
C1038 C 0.44759 0.56851 0.75199 0.0
C1039 C 0.43882 0.56768 0.66478 0.0
C1040 C 0.42569 0.55097 0.81904 0.0
C1041 C 0.45185 0.55886 0.88892 0.0
N1042 N 0.43519 0.56437 0.71578 0.0
N1043 N 0.45525 0.56618 0.84144 0.0
H1044 H 0.45512 0.868 0.87779 0.0
H1045 H 0.40425 0.88713 0.66581 0.0
H1046 H 0.42569 0.89265 0.91027 0.0
H1047 H 0.42737 0.85605 0.63745 0.0
H1048 H 0.40827 0.88548 0.75811 0.0
H1049 H 0.44142 0.85949 0.79346 0.0
C1050 C 0.44555 0.87136 0.86756 0.0
C1051 C 0.44181 0.88137 0.90068 0.0
C1052 C 0.41224 0.87879 0.73185 0.0
C1053 C 0.42624 0.87185 0.80395 0.0
C1054 C 0.40998 0.87977 0.67908 0.0
C1055 C 0.41578 0.87198 0.64389 0.0
C1056 C 0.42059 0.87017 0.74956 0.0
C1057 C 0.42288 0.8624 0.66324 0.0
C1058 C 0.43772 0.8665 0.81936 0.0
C1059 C 0.42915 0.88516 0.88569 0.0
N1060 N 0.42537 0.86202 0.7148 0.0
N1061 N 0.42205 0.88067 0.83801 0.0
H1062 H 0.18678 0.46871 0.18734 0.0
H1063 H 0.20535 0.45516 0.93698 0.0
H1064 H 0.21715 0.44569 0.22729 0.0
H1065 H 0.24867 0.45442 0.00441 0.0
H1066 H 0.19821 0.46165 0.02167 0.0
H1067 H 0.19846 0.47354 0.09962 0.0
C1068 C 0.19602 0.46484 0.17775 0.0
C1069 C 0.20076 0.45647 0.21417 0.0
C1070 C 0.20959 0.46062 0.01777 0.0
C1071 C 0.21389 0.46164 0.11422 0.0
C1072 C 0.21361 0.4568 0.96934 0.0
C1073 C 0.22743 0.45392 0.96383 0.0
C1074 C 0.21949 0.46155 0.06078 0.0
C1075 C 0.23771 0.45623 0.00702 0.0
C1076 C 0.20254 0.46743 0.12757 0.0
C1077 C 0.21288 0.45186 0.20006 0.0
N1078 N 0.23335 0.4596 0.05378 0.0
N1079 N 0.21894 0.45442 0.15115 0.0
H1080 H 0.56655 0.77303 0.88459 0.0
H1081 H 0.52781 0.77084 0.16339 0.0
H1082 H 0.54288 0.8027 0.92648 0.0
H1083 H 0.55928 0.74863 0.12783 0.0
H1084 H 0.52772 0.77739 0.0719 0.0
H1085 H 0.55828 0.75875 0.96826 0.0
C1086 C 0.55938 0.77636 0.911 0.0
C1087 C 0.55567 0.7893 0.89886 0.0
C1088 C 0.53447 0.7709 0.08409 0.0
C1089 C 0.54627 0.77308 0.99481 0.0
C1090 C 0.53449 0.76712 0.13629 0.0
C1091 C 0.54379 0.75943 0.15338 0.0
C1092 C 0.54376 0.76691 0.04879 0.0
C1093 C 0.55214 0.7548 0.11648 0.0
C1094 C 0.55471 0.76823 0.95887 0.0
C1095 C 0.54623 0.79297 0.9345 0.0
N1096 N 0.55206 0.75876 0.06602 0.0
N1097 N 0.54203 0.78505 0.98111 0.0
H1098 H 0.22918 0.76872 0.23749 0.0
H1099 H 0.23543 0.80198 0.94879 0.0
H1100 H 0.25066 0.82185 0.19536 0.0
H1101 H 0.2026 0.74957 0.99631 0.0
H1102 H 0.24766 0.80878 0.03549 0.0
H1103 H 0.22593 0.76115 0.14596 0.0
C1104 C 0.23346 0.77882 0.20902 0.0
C1105 C 0.23989 0.7959 0.22397 0.0
C1106 C 0.23796 0.79574 0.02665 0.0
C1107 C 0.23624 0.78734 0.11952 0.0
C1108 C 0.23101 0.79183 0.97715 0.0
C1109 C 0.21773 0.77526 0.96568 0.0
C1110 C 0.23162 0.78298 0.06473 0.0
C1111 C 0.2126 0.76259 0.0038 0.0
C1112 C 0.23157 0.77448 0.15684 0.0
C1113 C 0.24535 0.80848 0.18548 0.0
N1114 N 0.21942 0.76676 0.05186 0.0
N1115 N 0.24324 0.80393 0.13498 0.0
H1116 H 0.19812 0.2442 0.26528 0.0
H1117 H 0.1959 0.15672 0.27869 0.0
H1118 H 0.18782 0.21629 0.40816 0.0
H1119 H 0.23138 0.19653 0.1769 0.0
H1120 H 0.19099 0.17776 0.32333 0.0
H1121 H 0.20959 0.22689 0.22928 0.0
C1122 C 0.19865 0.23467 0.28938 0.0
C1123 C 0.19201 0.23159 0.33963 0.0
C1124 C 0.19994 0.18189 0.29145 0.0
C1125 C 0.20453 0.2115 0.29835 0.0
C1126 C 0.20258 0.16988 0.26559 0.0
C1127 C 0.21393 0.17491 0.22378 0.0
C1128 C 0.2084 0.19895 0.27464 0.0
C1129 C 0.22247 0.19216 0.20887 0.0
C1130 C 0.20515 0.22481 0.26885 0.0
C1131 C 0.1929 0.21909 0.36933 0.0
N1132 N 0.21936 0.20357 0.23388 0.0
N1133 N 0.1987 0.20921 0.34783 0.0
H1134 H 0.74484 0.94519 0.17555 0.0
H1135 H 0.81185 0.04143 0.24493 0.0
H1136 H 0.76421 0.96282 0.32904 0.0
H1137 H 0.78479 0.02737 0.09996 0.0
H1138 H 0.79296 0.0127 0.27712 0.0
H1139 H 0.75748 0.97502 0.14764 0.0
C1140 C 0.75153 0.95531 0.20354 0.0
C1141 C 0.75374 0.95152 0.2545 0.0
C1142 C 0.79098 0.01587 0.23842 0.0
C1143 C 0.76825 0.98556 0.22279 0.0
C1144 C 0.80183 0.03227 0.21993 0.0
C1145 C 0.79998 0.03668 0.16952 0.0
C1146 C 0.77833 0.00362 0.20598 0.0
C1147 C 0.78664 0.02441 0.13903 0.0
C1148 C 0.75873 0.97232 0.18757 0.0
C1149 C 0.76241 0.96512 0.28919 0.0
N1150 N 0.77644 0.00829 0.15749 0.0
N1151 N 0.76952 0.98151 0.27253 0.0
H1152 H 0.93552 0.74804 0.3154 0.0
H1153 H 0.03506 0.79785 0.25131 0.0
H1154 H 0.95663 0.76095 0.16174 0.0
H1155 H 0.01482 0.78777 0.40623 0.0
H1156 H 0.00632 0.77936 0.21808 0.0
H1157 H 0.96417 0.75753 0.34913 0.0
C1158 C 0.94613 0.75263 0.28865 0.0
C1159 C 0.94375 0.75401 0.23578 0.0
C1160 C 0.00816 0.78101 0.2594 0.0
C1161 C 0.97651 0.76493 0.27411 0.0
C1162 C 0.02458 0.79158 0.27842 0.0
C1163 C 0.02728 0.79461 0.33157 0.0
C1164 C 0.99428 0.77353 0.29371 0.0
C1165 C 0.01328 0.78594 0.36491 0.0
C1166 C 0.96249 0.75806 0.30796 0.0
C1167 C 0.95792 0.75991 0.20289 0.0
N1168 N -0.00269 0.77598 0.34536 0.0
N1169 N 0.97371 0.76534 0.22267 0.0
H1170 H 0.80805 0.75486 0.75874 0.0
H1171 H 0.75214 0.79998 0.73195 0.0
H1172 H 0.79141 0.76453 0.61293 0.0
H1173 H 0.76828 0.78973 0.87778 0.0
H1174 H 0.76245 0.78291 0.68859 0.0
H1175 H 0.78972 0.76336 0.80335 0.0
C1176 C 0.80039 0.7586 0.73604 0.0
C1177 C 0.80149 0.75928 0.682 0.0
C1178 C 0.76355 0.7842 0.73014 0.0
C1179 C 0.78054 0.76915 0.73296 0.0
C1180 C 0.75767 0.79397 0.75498 0.0
C1181 C 0.75964 0.79654 0.80851 0.0
C1182 C 0.77158 0.77706 0.75895 0.0
C1183 C 0.76668 0.78824 0.83639 0.0
C1184 C 0.7899 0.76344 0.76159 0.0
C1185 C 0.79109 0.76399 0.65464 0.0
N1186 N 0.77263 0.77907 0.81116 0.0
N1187 N 0.78122 0.76898 0.68046 0.0
H1188 H 0.25426 0.0425 0.81059 0.0
H1189 H 0.18599 0.94605 0.74286 0.0
H1190 H 0.23618 0.02391 0.65678 0.0
H1191 H 0.20341 0.96381 0.89768 0.0
H1192 H 0.20817 0.97346 0.70947 0.0
H1193 H 0.23991 0.01297 0.84155 0.0
C1194 C 0.24754 0.03221 0.78314 0.0
C1195 C 0.24611 0.03569 0.7312 0.0
C1196 C 0.2073 0.97134 0.75074 0.0
C1197 C 0.22957 0.00192 0.76645 0.0
C1198 C 0.19459 0.95569 0.76986 0.0
C1199 C 0.19266 0.95277 0.8232 0.0
C1200 C 0.21806 0.98429 0.78518 0.0
C1201 C 0.20435 0.9656 0.85629 0.0
C1202 C 0.23931 0.01535 0.80089 0.0
C1203 C 0.23737 0.02185 0.69732 0.0
N1204 N 0.21641 0.98093 0.83677 0.0
N1205 N 0.22923 0.00559 0.71568 0.0
H1206 H 0.96159 0.20467 0.66334 0.0
H1207 H 0.02445 0.23739 0.9048 0.0
H1208 H 0.94427 0.19602 0.82145 0.0
H1209 H 0.04092 0.24359 0.74601 0.0
H1210 H 0.99517 0.22711 0.87536 0.0
H1211 H 0.99066 0.22375 0.69323 0.0
C1212 C 0.96387 0.20693 0.70436 0.0
C1213 C 0.95054 0.1985 0.74002 0.0
C1214 C 0.00524 0.23096 0.84701 0.0
C1215 C 0.98385 0.22023 0.77458 0.0
C1216 C 0.02197 0.23687 0.86379 0.0
C1217 C 0.03508 0.24104 0.82778 0.0
C1218 C 0.00166 0.22922 0.79392 0.0
C1219 C 0.03115 0.24023 0.77514 0.0
C1220 C 0.98049 0.21784 0.72143 0.0
C1221 C 0.95421 0.2021 0.79265 0.0
N1222 N 0.01477 0.23422 0.75982 0.0
N1223 N 0.97058 0.21252 0.80843 0.0
H1224 H 0.81806 0.51689 0.68461 0.0
H1225 H 0.89607 0.52367 0.51982 0.0
H1226 H 0.86317 0.56519 0.64956 0.0
H1227 H 0.84679 0.47777 0.53364 0.0
H1228 H 0.88531 0.53907 0.57129 0.0
H1229 H 0.82974 0.5022 0.63507 0.0
C1230 C 0.8305 0.52442 0.66677 0.0
C1231 C 0.83961 0.54232 0.67107 0.0
C1232 C 0.87687 0.52565 0.56284 0.0
C1233 C 0.85305 0.52552 0.61382 0.0
C1234 C 0.88298 0.51686 0.53342 0.0
C1235 C 0.87231 0.4994 0.52243 0.0
C1236 C 0.86003 0.51686 0.58164 0.0
C1237 C 0.85548 0.49121 0.54108 0.0
C1238 C 0.83713 0.51601 0.63823 0.0
C1239 C 0.85569 0.55137 0.64714 0.0
N1240 N 0.8499 0.49999 0.56991 0.0
N1241 N 0.86189 0.54287 0.61938 0.0
H1242 H 0.4274 0.30651 0.71182 0.0
H1243 H 0.45899 0.36355 0.45697 0.0
H1244 H 0.42651 0.2868 0.55938 0.0
H1245 H 0.4625 0.38434 0.60941 0.0
H1246 H 0.44239 0.33476 0.49243 0.0
H1247 H 0.43568 0.33442 0.67376 0.0
C1248 C 0.42873 0.30798 0.67034 0.0
C1249 C 0.42655 0.29439 0.63881 0.0
C1250 C 0.44662 0.34562 0.51809 0.0
C1251 C 0.43604 0.32622 0.59511 0.0
C1252 C 0.45609 0.36207 0.49782 0.0
C1253 C 0.46239 0.37636 0.53043 0.0
C1254 C 0.44352 0.34342 0.57141 0.0
C1255 C 0.45806 0.37367 0.58295 0.0
C1256 C 0.43347 0.32392 0.64864 0.0
C1257 C 0.42832 0.29699 0.58528 0.0
N1258 N 0.44909 0.35751 0.60196 0.0
N1259 N 0.43313 0.31263 0.56521 0.0
H1260 H 0.63896 0.09489 0.44236 0.0
H1261 H 0.69673 0.14196 0.68837 0.0
H1262 H 0.61886 0.09426 0.594 0.0
H1263 H 0.71749 0.14255 0.53785 0.0
H1264 H 0.66821 0.122 0.65604 0.0
H1265 H 0.66788 0.10976 0.47816 0.0
C1266 C 0.6406 0.0977 0.48325 0.0
C1267 C 0.62648 0.0935 0.51512 0.0
C1268 C 0.679 0.12639 0.63012 0.0
C1269 C 0.6595 0.11058 0.55622 0.0
C1270 C 0.6953 0.13781 0.64857 0.0
C1271 C 0.70949 0.14408 0.61561 0.0
C1272 C 0.67683 0.12126 0.57822 0.0
C1273 C 0.70689 0.13814 0.56452 0.0
C1274 C 0.65712 0.10622 0.50365 0.0
C1275 C 0.62937 0.0974 0.56786 0.0
N1276 N 0.69084 0.12716 0.54725 0.0
N1277 N 0.64555 0.10584 0.58663 0.0
H1278 H 0.42143 0.11878 0.22044 0.0
H1279 H 0.46534 0.09699 0.98865 0.0
H1280 H 0.4261 0.13778 0.06504 0.0
H1281 H 0.46384 0.08005 0.14522 0.0
H1282 H 0.44591 0.10719 0.01296 0.0
H1283 H 0.43196 0.09996 0.19072 0.0
C1284 C 0.42443 0.11882 0.17997 0.0
C1285 C 0.4232 0.13009 0.14534 0.0
C1286 C 0.44965 0.10106 0.04192 0.0
C1287 C 0.43525 0.10868 0.1112 0.0
C1288 C 0.46075 0.09522 0.02804 0.0
C1289 C 0.46648 0.08797 0.06521 0.0
C1290 C 0.44436 0.09978 0.09347 0.0
C1291 C 0.45992 0.08577 0.11547 0.0
C1292 C 0.43045 0.10809 0.16305 0.0
C1293 C 0.42713 0.12952 0.09328 0.0
N1294 N 0.4494 0.09191 0.12835 0.0
N1295 N 0.43316 0.11915 0.07794 0.0
H1296 H 0.91993 0.38744 0.13014 0.0
H1297 H 0.86976 0.2858 0.10192 0.0
H1298 H 0.9045 0.36053 0.98483 0.0
H1299 H 0.87782 0.31212 0.24733 0.0
H1300 H 0.88798 0.31317 0.05985 0.0
H1301 H 0.91007 0.36016 0.17423 0.0
C1302 C 0.9147 0.37583 0.10738 0.0
C1303 C 0.91277 0.37623 0.05377 0.0
C1304 C 0.88593 0.31296 0.10106 0.0
C1305 C 0.90144 0.345 0.10405 0.0
C1306 C 0.87552 0.29732 0.12518 0.0
C1307 C 0.87199 0.2967 0.17812 0.0
C1308 C 0.89282 0.32812 0.12997 0.0
C1309 C 0.88002 0.31202 0.20633 0.0
C1310 C 0.90904 0.36026 0.13264 0.0
C1311 C 0.90603 0.3608 0.02628 0.0
N1312 N 0.8899 0.32716 0.18176 0.0
N1313 N 0.90044 0.3458 0.0518 0.0
H1314 H 0.69703 0.5669 0.15317 0.0
H1315 H 0.62438 0.47859 0.03311 0.0
H1316 H 0.69287 0.51781 0.18166 0.0
H1317 H 0.62291 0.5256 0.02292 0.0
H1318 H 0.65032 0.49334 0.08458 0.0
H1319 H 0.67036 0.55249 0.10372 0.0
C1320 C 0.69045 0.5531 0.14938 0.0
C1321 C 0.69722 0.54355 0.17142 0.0
C1322 C 0.64434 0.50046 0.07115 0.0
C1323 C 0.66688 0.52705 0.11459 0.0
C1324 C 0.62955 0.49205 0.0415 0.0
C1325 C 0.62145 0.50087 0.02368 0.0
C1326 C 0.65119 0.51787 0.08298 0.0
C1327 C 0.62874 0.51831 0.03591 0.0
C1328 C 0.67526 0.54489 0.12108 0.0
C1329 C 0.68817 0.52571 0.16527 0.0
N1330 N 0.64323 0.52626 0.06481 0.0
N1331 N 0.67354 0.51807 0.13722 0.0
H1332 H 0.53504 0.90887 0.984 0.0
H1333 H 0.56517 0.88252 0.72907 0.0
H1334 H 0.52109 0.91585 0.83048 0.0
H1335 H 0.57689 0.87394 0.88375 0.0
H1336 H 0.55415 0.90029 0.76428 0.0
H1337 H 0.55554 0.9018 0.94691 0.0
C1338 C 0.53646 0.90915 0.94247 0.0
C1339 C 0.52609 0.9126 0.91024 0.0
C1340 C 0.55939 0.89473 0.79041 0.0
C1341 C 0.5494 0.90432 0.86745 0.0
C1342 C 0.56571 0.88462 0.77033 0.0
C1343 C 0.57161 0.87645 0.80364 0.0
C1344 C 0.55898 0.89664 0.8441 0.0
C1345 C 0.57215 0.87972 0.85671 0.0
C1346 C 0.54817 0.9051 0.92128 0.0
C1347 C 0.52867 0.91304 0.85675 0.0
N1348 N 0.56569 0.88937 0.87532 0.0
N1349 N 0.53987 0.90864 0.83695 0.0
H1350 H 0.08159 0.61839 0.82711 0.0
H1351 H 0.13185 0.71438 0.92447 0.0
H1352 H 0.08756 0.63365 0.98705 0.0
H1353 H 0.12387 0.70069 0.76335 0.0
H1354 H 0.11101 0.68501 0.94699 0.0
H1355 H 0.09229 0.64817 0.80194 0.0
C1356 C 0.08485 0.62794 0.85694 0.0
C1357 C 0.08405 0.62361 0.90925 0.0
C1358 C 0.11359 0.6884 0.90662 0.0
C1359 C 0.09635 0.65764 0.88077 0.0
C1360 C 0.12551 0.70518 0.89378 0.0
C1361 C 0.12977 0.70984 0.84205 0.0
C1362 C 0.10611 0.67606 0.86749 0.0
C1363 C 0.12101 0.69753 0.80375 0.0
C1364 C 0.09097 0.64494 0.84253 0.0
C1365 C 0.08829 0.63646 0.94624 0.0
N1366 N 0.1098 0.68106 0.81728 0.0
N1367 N 0.09447 0.65291 0.93126 0.0
H1368 H 0.28197 0.42055 0.93152 0.0
H1369 H 0.37865 0.46539 0.83945 0.0
H1370 H 0.29685 0.42709 0.77132 0.0
H1371 H 0.36246 0.45732 -0.00135 0.0
H1372 H 0.34892 0.44681 0.81309 0.0
H1373 H 0.31118 0.42908 0.95589 0.0
C1374 C 0.29138 0.42358 0.90141 0.0
C1375 C 0.2871 0.42342 0.84939 0.0
C1376 C 0.35192 0.4489 0.8538 0.0
C1377 C 0.32068 0.43349 0.87702 0.0
C1378 C 0.36889 0.45949 0.8689 0.0
C1379 C 0.37299 0.46318 0.92131 0.0
C1380 C 0.339 0.44202 0.89141 0.0
C1381 C 0.35986 0.45508 0.95778 0.0
C1382 C 0.30808 0.42845 0.91533 0.0
C1383 C 0.29969 0.42718 0.81191 0.0
N1384 N 0.34345 0.44507 0.94209 0.0
N1385 N 0.31604 0.43239 0.82651 0.0
H1386 H 0.0885 0.47793 0.32527 0.0
H1387 H 0.13592 0.42891 0.42342 0.0
H1388 H 0.09613 0.47044 0.48538 0.0
H1389 H 0.12984 0.43664 0.26233 0.0
H1390 H 0.11697 0.43982 0.44578 0.0
H1391 H 0.0993 0.45888 0.30071 0.0
C1392 C 0.09222 0.47211 0.35528 0.0
C1393 C 0.09168 0.476 0.40743 0.0
C1394 C 0.1196 0.43898 0.40547 0.0
C1395 C 0.10405 0.45427 0.37961 0.0
C1396 C 0.13043 0.43275 0.39267 0.0
C1397 C 0.13467 0.43214 0.34099 0.0
C1398 C 0.1131 0.44488 0.36637 0.0
C1399 C 0.12699 0.43702 0.3027 0.0
C1400 C 0.0984 0.46125 0.34121 0.0
C1401 C 0.09656 0.46801 0.44467 0.0
N1402 N 0.11676 0.44346 0.31621 0.0
N1403 N 0.10269 0.45767 0.43 0.0
H1404 H 0.51574 0.61157 0.33564 0.0
H1405 H 0.55694 0.71147 0.39218 0.0
H1406 H 0.52012 0.63323 0.48724 0.0
H1407 H 0.55152 0.69054 0.23903 0.0
H1408 H 0.5468 0.6831 0.42812 0.0
H1409 H 0.53213 0.64049 0.30029 0.0
C1410 C 0.52031 0.62239 0.3616 0.0
C1411 C 0.51637 0.61999 0.4144 0.0
C1412 C 0.54793 0.68469 0.38665 0.0
C1413 C 0.53505 0.65307 0.37416 0.0
C1414 C 0.55371 0.70091 0.36605 0.0
C1415 C 0.55487 0.70334 0.31245 0.0
C1416 C 0.54314 0.67072 0.35348 0.0
C1417 C 0.5507 0.68922 0.28057 0.0
C1418 C 0.52965 0.6389 0.34136 0.0
C1419 C 0.5227 0.63447 0.44622 0.0
N1420 N 0.54484 0.67345 0.30158 0.0
N1421 N 0.5316 0.65038 0.42553 0.0
H1422 H 0.35906 0.89559 0.55725 0.0
H1423 H 0.30114 0.87142 0.30393 0.0
H1424 H 0.37739 0.89626 0.40297 0.0
H1425 H 0.28086 0.85882 0.45859 0.0
H1426 H 0.33 0.88725 0.3398 0.0
H1427 H 0.33125 0.88863 0.52132 0.0
C1428 C 0.35731 0.8945 0.51583 0.0
C1429 C 0.37044 0.89621 0.48309 0.0
C1430 C 0.3192 0.8812 0.36585 0.0
C1431 C 0.33878 0.88833 0.44188 0.0
C1432 C 0.30272 0.87221 0.34543 0.0
C1433 C 0.28861 0.86353 0.37832 0.0
C1434 C 0.32153 0.88154 0.41948 0.0
C1435 C 0.29141 0.8651 0.4318 0.0
C1436 C 0.34145 0.8905 0.49538 0.0
C1437 C 0.36752 0.89477 0.42969 0.0
N1438 N 0.30758 0.87376 0.45072 0.0
N1439 N 0.35196 0.89078 0.41077 0.0
H1440 H 0.29367 0.17699 0.18653 0.0
H1441 H 0.36491 0.15214 0.11762 0.0
H1442 H 0.28326 0.13155 0.1019 0.0
H1443 H 0.3733 0.19227 0.22471 0.0
H1444 H 0.33549 0.14577 0.10611 0.0
H1445 H 0.32354 0.18427 0.19511 0.0
C1446 C 0.29768 0.16859 0.16951 0.0
C1447 C 0.28594 0.15361 0.14359 0.0
C1448 C 0.34375 0.15596 0.13217 0.0
C1449 C 0.32005 0.16185 0.15334 0.0
C1450 C 0.36057 0.15961 0.13876 0.0
C1451 C 0.37158 0.17273 0.1723 0.0
C1452 C 0.33791 0.16555 0.15908 0.0
C1453 C 0.36524 0.182 0.19862 0.0
C1454 C 0.31471 0.17273 0.1746 0.0
C1455 C 0.29184 0.14319 0.12238 0.0
N1456 N 0.34882 0.17825 0.19138 0.0
N1457 N 0.30848 0.14751 0.12775 0.0
H1458 H 0.84616 0.21139 0.13435 0.0
H1459 H 0.82335 0.11562 0.20044 0.0
H1460 H 0.81246 0.1816 0.25836 0.0
H1461 H 0.85683 0.14551 0.07616 0.0
H1462 H 0.81852 0.13929 0.22073 0.0
H1463 H 0.84982 0.18718 0.11172 0.0
C1464 C 0.83955 0.19977 0.15694 0.0
C1465 C 0.829 0.19855 0.19841 0.0
C1466 C 0.82687 0.14065 0.18889 0.0
C1467 C 0.8331 0.17071 0.17249 0.0
C1468 C 0.8296 0.12711 0.17717 0.0
C1469 C 0.84056 0.1286 0.1366 0.0
C1470 C 0.83516 0.1558 0.1599 0.0
C1471 C 0.8483 0.1438 0.10782 0.0
C1472 C 0.84162 0.18593 0.14389 0.0
C1473 C 0.82074 0.18314 0.22616 0.0
N1474 N 0.8455 0.15683 0.12015 0.0
N1475 N 0.82297 0.16982 0.2127 0.0
H1476 H 0.80217 0.63314 0.2982 0.0
H1477 H 0.84092 0.70551 0.07975 0.0
H1478 H 0.77628 0.62926 0.1546 0.0
H1479 H 0.86826 0.70562 0.21646 0.0
H1480 H 0.8163 0.67854 0.10831 0.0
H1481 H 0.82546 0.66099 0.27139 0.0
C1482 C 0.8013 0.6382 0.26117 0.0
C1483 C 0.78728 0.62879 0.22848 0.0
C1484 C 0.8277 0.68449 0.13198 0.0
C1485 C 0.81404 0.66069 0.19729 0.0
C1486 C 0.84177 0.69985 0.11566 0.0
C1487 C 0.8567 0.70782 0.14566 0.0
C1488 C 0.82856 0.67709 0.17872 0.0
C1489 C 0.85706 0.69994 0.19193 0.0
C1490 C 0.81466 0.6541 0.24578 0.0
C1491 C 0.78686 0.63605 0.18098 0.0
N1492 N 0.84321 0.68505 0.20701 0.0
N1493 N 0.80011 0.65154 0.16668 0.0
H1494 H 0.20166 0.38412 0.29853 0.0
H1495 H 0.13616 0.29087 0.40819 0.0
H1496 H 0.15584 0.37205 0.38348 0.0
H1497 H 0.17965 0.30166 0.31292 0.0
H1498 H 0.14389 0.32086 0.40225 0.0
H1499 H 0.19442 0.35423 0.30566 0.0
C1500 C 0.19007 0.37519 0.31864 0.0
C1501 C 0.17933 0.3806 0.34041 0.0
C1502 C 0.15176 0.31669 0.38267 0.0
C1503 C 0.171 0.34638 0.34883 0.0
C1504 C 0.14737 0.29955 0.38612 0.0
C1505 C 0.15726 0.29372 0.36094 0.0
C1506 C 0.16617 0.32813 0.3539 0.0
C1507 C 0.17165 0.30558 0.3329 0.0
C1508 C 0.18595 0.35812 0.32269 0.0
C1509 C 0.16449 0.36846 0.36604 0.0
N1510 N 0.17566 0.32223 0.33011 0.0
N1511 N 0.16078 0.35193 0.36957 0.0
H1512 H 0.61874 0.78457 0.35094 0.0
H1513 H 0.69683 0.87647 0.27295 0.0
H1514 H 0.6181 0.81351 0.21926 0.0
H1515 H 0.69796 0.84711 0.40276 0.0
H1516 H 0.66797 0.85352 0.25274 0.0
H1517 H 0.64787 0.80718 0.36999 0.0
C1518 C 0.62475 0.79564 0.32585 0.0
C1519 C 0.61594 0.79716 0.28346 0.0
C1520 C 0.67452 0.85209 0.28567 0.0
C1521 C 0.64929 0.82315 0.30527 0.0
C1522 C 0.69099 0.86522 0.29732 0.0
C1523 C 0.69983 0.86372 0.33967 0.0
C1524 C 0.66679 0.83734 0.31657 0.0
C1525 C 0.69163 0.84883 0.36978 0.0
C1526 C 0.64138 0.80857 0.33683 0.0
C1527 C 0.62439 0.81179 0.25235 0.0
N1528 N 0.67557 0.83621 0.35763 0.0
N1529 N 0.64057 0.82424 0.26398 0.0
H1530 H 0.17382 0.79933 0.2964 0.0
H1531 H 0.13864 0.85647 0.4241 0.0
H1532 H 0.20446 0.84342 0.39226 0.0
H1533 H 0.11057 0.81712 0.31085 0.0
H1534 H 0.16239 0.85096 0.41613 0.0
H1535 H 0.15006 0.80488 0.30389 0.0
C1536 C 0.17557 0.8102 0.31893 0.0
C1537 C 0.19115 0.82093 0.34376 0.0
C1538 C 0.15104 0.84353 0.39302 0.0
C1539 C 0.16398 0.82729 0.35272 0.0
C1540 C 0.13744 0.84664 0.39766 0.0
C1541 C 0.12259 0.83725 0.36808 0.0
C1542 C 0.14976 0.83089 0.35873 0.0
C1543 C 0.12178 0.82468 0.33437 0.0
C1544 C 0.162 0.81336 0.32318 0.0
C1545 C 0.19268 0.83483 0.37241 0.0
N1546 N 0.13517 0.82186 0.33066 0.0
N1547 N 0.17925 0.83758 0.37623 0.0
H1548 H 0.69885 0.82157 0.77794 0.0
H1549 H 0.6295 0.84828 0.85451 0.0
H1550 H 0.70395 0.85324 0.90926 0.0
H1551 H 0.62389 0.81562 0.72539 0.0
H1552 H 0.65692 0.85047 0.87473 0.0
H1553 H 0.67131 0.81916 0.75832 0.0
C1554 C 0.69415 0.82796 0.80282 0.0
C1555 C 0.70374 0.83764 0.84531 0.0
C1556 C 0.6497 0.84284 0.84193 0.0
C1557 C 0.67223 0.83501 0.82283 0.0
C1558 C 0.63406 0.84162 0.83026 0.0
C1559 C 0.62437 0.83174 0.78817 0.0
C1560 C 0.65574 0.83413 0.8113 0.0
C1561 C 0.63092 0.82338 0.75819 0.0
C1562 C 0.67842 0.8266 0.79151 0.0
C1563 C 0.697 0.84564 0.87613 0.0
N1564 N 0.64618 0.82475 0.77038 0.0
N1565 N 0.68168 0.84418 0.8642 0.0
H1566 H 0.15871 0.79545 0.74623 0.0
H1567 H 0.16625 0.86877 0.93712 0.0
H1568 H 0.1749 0.80031 0.90503 0.0
H1569 H 0.14676 0.862 0.78169 0.0
H1570 H 0.17003 0.84401 0.92539 0.0
H1571 H 0.15475 0.82014 0.75776 0.0
C1572 C 0.16143 0.80169 0.78351 0.0
C1573 C 0.16714 0.79579 0.82471 0.0
C1574 C 0.16492 0.84793 0.89385 0.0
C1575 C 0.16267 0.82406 0.83816 0.0
C1576 C 0.16277 0.86208 0.90052 0.0
C1577 C 0.15619 0.86747 0.86033 0.0
C1578 C 0.16049 0.83912 0.8466 0.0
C1579 C 0.15188 0.8583 0.81374 0.0
C1580 C 0.15915 0.81579 0.79007 0.0
C1581 C 0.17045 0.80439 0.87217 0.0
N1582 N 0.15413 0.84459 0.80815 0.0
N1583 N 0.16819 0.81809 0.87754 0.0
H1584 H 0.19508 0.37941 0.91132 0.0
H1585 H 0.12902 0.29143 0.77311 0.0
H1586 H 0.19932 0.36804 0.75204 0.0
H1587 H 0.1238 0.30373 0.93059 0.0
H1588 H 0.15486 0.31935 0.76473 0.0
H1589 H 0.16911 0.35161 0.91926 0.0
C1590 C 0.19057 0.37106 0.87799 0.0
C1591 C 0.19941 0.37608 0.83091 0.0
C1592 C 0.14805 0.31596 0.8011 0.0
C1593 C 0.16962 0.34419 0.83977 0.0
C1594 C 0.13328 0.30001 0.80593 0.0
C1595 C 0.12422 0.29522 0.85267 0.0
C1596 C 0.15386 0.32721 0.84332 0.0
C1597 C 0.13036 0.30688 0.89384 0.0
C1598 C 0.17571 0.35518 0.88256 0.0
C1599 C 0.19293 0.36471 0.78907 0.0
N1600 N 0.14481 0.32232 0.88822 0.0
N1601 N 0.17843 0.3493 0.79449 0.0
H1602 H 0.85961 0.70568 0.58106 0.0
H1603 H 0.82733 0.63355 0.80003 0.0
H1604 H 0.83436 0.70657 0.72153 0.0
H1605 H 0.84773 0.62913 0.65388 0.0
H1606 H 0.83216 0.66157 0.77414 0.0
H1607 H 0.8572 0.6786 0.60866 0.0
C1608 C 0.85353 0.70018 0.61761 0.0
C1609 C 0.84712 0.70839 0.64893 0.0
C1610 C 0.83566 0.65453 0.74776 0.0
C1611 C 0.84446 0.67752 0.68086 0.0
C1612 C 0.83296 0.63853 0.76261 0.0
C1613 C 0.83704 0.62892 0.72896 0.0
C1614 C 0.84248 0.66102 0.69882 0.0
C1615 C 0.84436 0.63608 0.68101 0.0
C1616 C 0.8522 0.68475 0.63337 0.0
C1617 C 0.83943 0.7007 0.69598 0.0
N1618 N 0.84676 0.65168 0.66724 0.0
N1619 N 0.83833 0.68573 0.71047 0.0
H1620 H 0.30342 0.11422 0.7009 0.0
H1621 H 0.37065 0.20977 0.61207 0.0
H1622 H 0.29409 0.14073 0.57785 0.0
H1623 H 0.37914 0.18434 0.74007 0.0
H1624 H 0.34272 0.18439 0.59821 0.0
H1625 H 0.33153 0.13948 0.71442 0.0
C1626 C 0.30731 0.12531 0.67654 0.0
C1627 C 0.29637 0.12536 0.6382 0.0
C1628 C 0.35067 0.18436 0.6294 0.0
C1629 C 0.32849 0.15434 0.65366 0.0
C1630 C 0.36662 0.19887 0.63741 0.0
C1631 C 0.37726 0.19919 0.67732 0.0
C1632 C 0.3453 0.17003 0.66145 0.0
C1633 C 0.37136 0.18468 0.70887 0.0
C1634 C 0.32334 0.13975 0.6844 0.0
C1635 C 0.30208 0.14011 0.60789 0.0
N1636 N 0.35579 0.17067 0.70019 0.0
N1637 N 0.31773 0.15401 0.61633 0.0
H1638 H 0.87505 0.17657 0.72041 0.0
H1639 H 0.78193 0.15953 0.64457 0.0
H1640 H 0.8463 0.14584 0.59007 0.0
H1641 H 0.81026 0.18904 0.77721 0.0
H1642 H 0.80509 0.15387 0.62491 0.0
H1643 H 0.8513 0.18104 0.74214 0.0
C1644 C 0.86376 0.17079 0.69626 0.0
C1645 C 0.86268 0.16084 0.65326 0.0
C1646 C 0.80621 0.16153 0.65843 0.0
C1647 C 0.83538 0.16587 0.6781 0.0
C1648 C 0.79297 0.16474 0.66976 0.0
C1649 C 0.79417 0.17482 0.71256 0.0
C1650 C 0.82078 0.16847 0.69003 0.0
C1651 C 0.80879 0.18122 0.7438 0.0
C1652 C 0.85017 0.17332 0.70879 0.0
C1653 C 0.8477 0.15363 0.62351 0.0
N1654 N 0.82154 0.17799 0.73179 0.0
N1655 N 0.83464 0.1563 0.63647 0.0
H1656 H 0.03522 0.49537 0.42603 0.0
H1657 H 0.95633 0.50716 0.5087 0.0
H1658 H 0.03613 0.52493 0.55824 0.0
H1659 H 0.95657 0.47943 0.37325 0.0
H1660 H 0.98575 0.51437 0.52664 0.0
H1661 H 0.00646 0.48964 0.40587 0.0
C1662 C 0.02936 0.50063 0.45093 0.0
C1663 C 0.0381 0.51062 0.49399 0.0
C1664 C 0.97939 0.50677 0.49287 0.0
C1665 C 0.00513 0.50415 0.47096 0.0
C1666 C 0.9626 0.50268 0.48252 0.0
C1667 C 0.95394 0.49262 0.43947 0.0
C1668 C 0.98757 0.50072 0.46003 0.0
C1669 C 0.96271 0.48718 0.40693 0.0
C1670 C 0.01293 0.49739 0.43929 0.0
C1671 C 0.02986 0.51714 0.52472 0.0
N1672 N 0.97901 0.49124 0.41801 0.0
N1673 N 0.01383 0.51377 0.51263 0.0
H1674 H 0.50267 0.54673 0.44543 0.0
H1675 H 0.4817 0.45138 0.5096 0.0
H1676 H 0.47202 0.51741 0.57511 0.0
H1677 H 0.51379 0.48124 0.38287 0.0
H1678 H 0.4778 0.47536 0.53363 0.0
H1679 H 0.50704 0.52297 0.42216 0.0
C1680 C 0.49693 0.53534 0.46922 0.0
C1681 C 0.48693 0.53406 0.51228 0.0
C1682 C 0.48568 0.47667 0.50052 0.0
C1683 C 0.49179 0.50674 0.48557 0.0
C1684 C 0.48787 0.46295 0.48665 0.0
C1685 C 0.49809 0.4643 0.44412 0.0
C1686 C 0.49375 0.49187 0.47166 0.0
C1687 C 0.50579 0.47963 0.41593 0.0
C1688 C 0.4994 0.52175 0.45581 0.0
C1689 C 0.47982 0.51897 0.5416 0.0
N1690 N 0.50348 0.49282 0.43024 0.0
N1691 N 0.48234 0.50589 0.5276 0.0
H1692 H 0.51246 0.03168 0.42586 0.0
H1693 H 0.48049 0.94331 0.57549 0.0
H1694 H 0.54474 0.02239 0.52772 0.0
H1695 H 0.45107 0.95075 0.45769 0.0
H1696 H 0.50397 0.97243 0.56025 0.0
H1697 H 0.48971 0.00212 0.43794 0.0
C1698 C 0.5148 0.0234 0.45055 0.0
C1699 C 0.53052 0.02954 0.47593 0.0
C1700 C 0.49238 0.96767 0.5377 0.0
C1701 C 0.50444 0.99568 0.4903 0.0
C1702 C 0.47894 0.95107 0.54652 0.0
C1703 C 0.46377 0.94459 0.51789 0.0
C1704 C 0.49059 0.97789 0.50018 0.0
C1705 C 0.46252 0.95521 0.4807 0.0
C1706 C 0.50179 0.00651 0.45747 0.0
C1707 C 0.53283 0.0182 0.50739 0.0
N1708 N 0.47573 0.97133 0.47302 0.0
N1709 N 0.51989 0.00184 0.51393 0.0
H1710 H 0.51131 0.04386 0.05783 0.0
H1711 H 0.47615 0.94847 0.95431 0.0
H1712 H 0.47859 0.02311 0.92456 0.0
H1713 H 0.50888 0.96946 0.08744 0.0
H1714 H 0.47629 0.97542 0.94396 0.0
H1715 H 0.50988 0.01642 0.07049 0.0
C1716 C 0.50377 0.03351 0.03126 0.0
C1717 C 0.49508 0.03582 0.98993 0.0
C1718 C 0.48342 0.97413 0.97549 0.0
C1719 C 0.49344 0.00431 0.00424 0.0
C1720 C 0.48336 0.95874 0.98143 0.0
C1721 C 0.49257 0.95671 0.02177 0.0
C1722 C 0.49276 0.98763 0.01007 0.0
C1723 C 0.50163 0.97045 0.05575 0.0
C1724 C 0.50297 0.01783 0.03854 0.0
C1725 C 0.48551 0.02193 0.95687 0.0
N1726 N 0.50152 0.98533 0.04907 0.0
N1727 N 0.48498 0.00677 0.96467 0.0
H1728 H 0.95835 0.4753 0.87671 0.0
H1729 H 0.03871 0.52 0.06749 0.0
H1730 H 0.96428 0.45055 0.0112 0.0
H1731 H 0.03221 0.54503 0.93469 0.0
H1732 H 0.01149 0.4944 0.04744 0.0
H1733 H 0.98561 0.50083 0.89668 0.0
C1734 C 0.96541 0.4752 0.91032 0.0
C1735 C 0.95901 0.46076 0.94235 0.0
C1736 C 0.01601 0.5055 0.02275 0.0
C1737 C 0.9902 0.48999 0.9656 0.0
C1738 C 0.03153 0.52014 0.03424 0.0
C1739 C 0.03776 0.53468 0.00273 0.0
C1740 C 0.00664 0.50538 0.97938 0.0
C1741 C 0.02791 0.53412 0.96009 0.0
C1742 C 0.98097 0.4898 0.92178 0.0
C1743 C 0.96871 0.46138 0.98542 0.0
N1744 N 0.01286 0.5197 0.94963 0.0
N1745 N 0.98381 0.47577 0.99582 0.0
H1746 H 0.54514 0.50944 0.00819 0.0
H1747 H 0.45106 0.48965 0.93352 0.0
H1748 H 0.51907 0.4838 0.86808 0.0
H1749 H 0.47834 0.51886 0.06784 0.0
H1750 H 0.47604 0.48761 0.90887 0.0
H1751 H 0.52121 0.51373 0.02983 0.0
C1752 C 0.53447 0.50487 0.98171 0.0
C1753 C 0.53408 0.49617 0.93635 0.0
C1754 C 0.47659 0.49449 0.94371 0.0
C1755 C 0.50657 0.50087 0.96119 0.0
C1756 C 0.46229 0.4956 0.95796 0.0
C1757 C 0.46258 0.5044 0.00294 0.0
C1758 C 0.4913 0.50217 0.97472 0.0
C1759 C 0.47753 0.51191 0.03291 0.0
C1760 C 0.52079 0.50727 0.99418 0.0
C1761 C 0.51992 0.49053 0.90352 0.0
N1762 N 0.49128 0.5106 0.01831 0.0
N1763 N 0.50669 0.49288 0.91676 0.0
loop_
_geom_bond_atom_site_label_1
_geom_bond_atom_site_label_2
_geom_bond_distance
_geom_bond_site_symmetry_2
_ccdc_geom_bond_type
C0 O1 1.160 . S
C0 O7 1.185 . S
O1 C0 1.160 . S
O2 Zn3 1.899 . S
O2 C10 1.284 . S
Zn3 O2 1.899 . S
Zn3 O4 2.032 . S
Zn3 O7 2.086 . S
Zn3 O12 1.977 . S
O4 Zn3 2.032 . S
O4 C8 1.278 . S
C5 O6 1.203 . S
C5 O12 1.267 . S
O6 C5 1.203 . S
O7 C0 1.185 . S
O7 Zn3 2.086 . S
C8 O4 1.278 . S
C8 O9 1.211 . S
O9 C8 1.211 . S
C10 O2 1.284 . S
C10 O11 1.273 . S
O11 C10 1.273 . S
O12 Zn3 1.977 . S
O12 C5 1.267 . S
C13 O14 1.160 . S
C13 O20 1.185 . S
O14 C13 1.160 . S
O15 Zn16 1.899 . S
O15 C23 1.284 . S
Zn16 O15 1.899 . S
Zn16 O17 2.032 . S
Zn16 O20 2.086 . S
Zn16 O25 1.977 . S
O17 Zn16 2.032 . S
O17 C21 1.278 . S
C18 O19 1.203 . S
C18 O25 1.267 . S
O19 C18 1.203 . S
O20 C13 1.185 . S
O20 Zn16 2.086 . S
C21 O17 1.278 . S
C21 O22 1.211 . S
O22 C21 1.211 . S
C23 O15 1.284 . S
C23 O24 1.273 . S
O24 C23 1.273 . S
O25 Zn16 1.977 . S
O25 C18 1.267 . S
C26 O27 1.160 . S
C26 O33 1.185 . S
O27 C26 1.160 . S
O28 Zn29 1.899 . S
O28 C36 1.284 . S
Zn29 O28 1.899 . S
Zn29 O30 2.032 . S
Zn29 O33 2.086 . S
Zn29 O38 1.977 . S
O30 Zn29 2.032 . S
O30 C34 1.278 . S
C31 O32 1.203 . S
C31 O38 1.267 . S
O32 C31 1.203 . S
O33 C26 1.185 . S
O33 Zn29 2.086 . S
C34 O30 1.278 . S
C34 O35 1.211 . S
O35 C34 1.211 . S
C36 O28 1.284 . S
C36 O37 1.273 . S
O37 C36 1.273 . S
O38 Zn29 1.977 . S
O38 C31 1.267 . S
C39 O40 1.160 . S
C39 O46 1.185 . S
O40 C39 1.160 . S
O41 Zn42 1.899 . S
O41 C49 1.284 . S
Zn42 O41 1.899 . S
Zn42 O43 2.032 . S
Zn42 O46 2.086 . S
Zn42 O51 1.977 . S
O43 Zn42 2.032 . S
O43 C47 1.278 . S
C44 O45 1.203 . S
C44 O51 1.267 . S
O45 C44 1.203 . S
O46 C39 1.185 . S
O46 Zn42 2.086 . S
C47 O43 1.278 . S
C47 O48 1.211 . S
O48 C47 1.211 . S
C49 O41 1.284 . S
C49 O50 1.273 . S
O50 C49 1.273 . S
O51 Zn42 1.977 . S
O51 C44 1.267 . S
C52 O53 1.160 . S
C52 O59 1.185 . S
O53 C52 1.160 . S
O54 Zn55 1.899 . S
O54 C62 1.284 . S
Zn55 O54 1.899 . S
Zn55 O56 2.032 . S
Zn55 O59 2.086 . S
Zn55 O64 1.977 . S
O56 Zn55 2.032 . S
O56 C60 1.278 . S
C57 O58 1.203 . S
C57 O64 1.267 . S
O58 C57 1.203 . S
O59 C52 1.185 . S
O59 Zn55 2.086 . S
C60 O56 1.278 . S
C60 O61 1.211 . S
O61 C60 1.211 . S
C62 O54 1.284 . S
C62 O63 1.273 . S
O63 C62 1.273 . S
O64 Zn55 1.977 . S
O64 C57 1.267 . S
C65 O66 1.160 . S
C65 O72 1.185 . S
O66 C65 1.160 . S
O67 Zn68 1.899 . S
O67 C75 1.284 . S
Zn68 O67 1.899 . S
Zn68 O69 2.032 . S
Zn68 O72 2.086 . S
Zn68 O77 1.977 . S
O69 Zn68 2.032 . S
O69 C73 1.278 . S
C70 O71 1.203 . S
C70 O77 1.267 . S
O71 C70 1.203 . S
O72 C65 1.185 . S
O72 Zn68 2.086 . S
C73 O69 1.278 . S
C73 O74 1.211 . S
O74 C73 1.211 . S
C75 O67 1.284 . S
C75 O76 1.273 . S
O76 C75 1.273 . S
O77 Zn68 1.977 . S
O77 C70 1.267 . S
C78 O79 1.160 . S
C78 O85 1.185 . S
O79 C78 1.160 . S
O80 Zn81 1.899 . S
O80 C88 1.284 . S
Zn81 O80 1.899 . S
Zn81 O82 2.032 . S
Zn81 O85 2.086 . S
Zn81 O90 1.977 . S
O82 Zn81 2.032 . S
O82 C86 1.278 . S
C83 O84 1.203 . S
C83 O90 1.267 . S
O84 C83 1.203 . S
O85 C78 1.185 . S
O85 Zn81 2.086 . S
C86 O82 1.278 . S
C86 O87 1.211 . S
O87 C86 1.211 . S
C88 O80 1.284 . S
C88 O89 1.273 . S
O89 C88 1.273 . S
O90 Zn81 1.977 . S
O90 C83 1.267 . S
C91 O92 1.160 . S
C91 O98 1.185 . S
O92 C91 1.160 . S
O93 Zn94 1.899 . S
O93 C101 1.284 . S
Zn94 O93 1.899 . S
Zn94 O95 2.032 . S
Zn94 O98 2.086 . S
Zn94 O103 1.977 . S
O95 Zn94 2.032 . S
O95 C99 1.278 . S
C96 O97 1.203 . S
C96 O103 1.267 . S
O97 C96 1.203 . S
O98 C91 1.185 . S
O98 Zn94 2.086 . S
C99 O95 1.278 . S
C99 O100 1.211 . S
O100 C99 1.211 . S
C101 O93 1.284 . S
C101 O102 1.273 . S
O102 C101 1.273 . S
O103 Zn94 1.977 . S
O103 C96 1.267 . S
C104 O105 1.160 . S
C104 O111 1.185 . S
O105 C104 1.160 . S
O106 Zn107 1.899 . S
O106 C114 1.284 . S
Zn107 O106 1.899 . S
Zn107 O108 2.032 . S
Zn107 O111 2.086 . S
Zn107 O116 1.977 . S
O108 Zn107 2.032 . S
O108 C112 1.278 . S
C109 O110 1.203 . S
C109 O116 1.267 . S
O110 C109 1.203 . S
O111 C104 1.185 . S
O111 Zn107 2.086 . S
C112 O108 1.278 . S
C112 O113 1.211 . S
O113 C112 1.211 . S
C114 O106 1.284 . S
C114 O115 1.273 . S
O115 C114 1.273 . S
O116 Zn107 1.977 . S
O116 C109 1.267 . S
C117 O118 1.160 . S
C117 O124 1.185 . S
O118 C117 1.160 . S
O119 Zn120 1.899 . S
O119 C127 1.284 . S
Zn120 O119 1.899 . S
Zn120 O121 2.032 . S
Zn120 O124 2.086 . S
Zn120 O129 1.977 . S
O121 Zn120 2.032 . S
O121 C125 1.278 . S
C122 O123 1.203 . S
C122 O129 1.267 . S
O123 C122 1.203 . S
O124 C117 1.185 . S
O124 Zn120 2.086 . S
C125 O121 1.278 . S
C125 O126 1.211 . S
O126 C125 1.211 . S
C127 O119 1.284 . S
C127 O128 1.273 . S
O128 C127 1.273 . S
O129 Zn120 1.977 . S
O129 C122 1.267 . S
C130 O131 1.160 . S
C130 O137 1.185 . S
O131 C130 1.160 . S
O132 Zn133 1.899 . S
O132 C140 1.284 . S
Zn133 O132 1.899 . S
Zn133 O134 2.032 . S
Zn133 O137 2.086 . S
Zn133 O142 1.977 . S
O134 Zn133 2.032 . S
O134 C138 1.278 . S
C135 O136 1.203 . S
C135 O142 1.267 . S
O136 C135 1.203 . S
O137 C130 1.185 . S
O137 Zn133 2.086 . S
C138 O134 1.278 . S
C138 O139 1.211 . S
O139 C138 1.211 . S
C140 O132 1.284 . S
C140 O141 1.273 . S
O141 C140 1.273 . S
O142 Zn133 1.977 . S
O142 C135 1.267 . S
C143 O144 1.160 . S
C143 O150 1.185 . S
O144 C143 1.160 . S
O145 Zn146 1.899 . S
O145 C153 1.284 . S
Zn146 O145 1.899 . S
Zn146 O147 2.032 . S
Zn146 O150 2.086 . S
Zn146 O155 1.977 . S
O147 Zn146 2.032 . S
O147 C151 1.278 . S
C148 O149 1.203 . S
C148 O155 1.267 . S
O149 C148 1.203 . S
O150 C143 1.185 . S
O150 Zn146 2.086 . S
C151 O147 1.278 . S
C151 O152 1.211 . S
O152 C151 1.211 . S
C153 O145 1.284 . S
C153 O154 1.273 . S
O154 C153 1.273 . S
O155 Zn146 1.977 . S
O155 C148 1.267 . S
C156 O157 1.160 . S
C156 O163 1.185 . S
O157 C156 1.160 . S
O158 Zn159 1.899 . S
O158 C166 1.284 . S
Zn159 O158 1.899 . S
Zn159 O160 2.032 . S
Zn159 O163 2.086 . S
Zn159 O168 1.977 . S
O160 Zn159 2.032 . S
O160 C164 1.278 . S
C161 O162 1.203 . S
C161 O168 1.267 . S
O162 C161 1.203 . S
O163 C156 1.185 . S
O163 Zn159 2.086 . S
C164 O160 1.278 . S
C164 O165 1.211 . S
O165 C164 1.211 . S
C166 O158 1.284 . S
C166 O167 1.273 . S
O167 C166 1.273 . S
O168 Zn159 1.977 . S
O168 C161 1.267 . S
C169 O170 1.160 . S
C169 O176 1.185 . S
O170 C169 1.160 . S
O171 Zn172 1.899 . S
O171 C179 1.284 . S
Zn172 O171 1.899 . S
Zn172 O173 2.032 . S
Zn172 O176 2.086 . S
Zn172 O181 1.977 . S
O173 Zn172 2.032 . S
O173 C177 1.278 . S
C174 O175 1.203 . S
C174 O181 1.267 . S
O175 C174 1.203 . S
O176 C169 1.185 . S
O176 Zn172 2.086 . S
C177 O173 1.278 . S
C177 O178 1.211 . S
O178 C177 1.211 . S
C179 O171 1.284 . S
C179 O180 1.273 . S
O180 C179 1.273 . S
O181 Zn172 1.977 . S
O181 C174 1.267 . S
C182 O183 1.160 . S
C182 O189 1.185 . S
O183 C182 1.160 . S
O184 Zn185 1.899 . S
O184 C192 1.284 . S
Zn185 O184 1.899 . S
Zn185 O186 2.032 . S
Zn185 O189 2.086 . S
Zn185 O194 1.977 . S
O186 Zn185 2.032 . S
O186 C190 1.278 . S
C187 O188 1.203 . S
C187 O194 1.267 . S
O188 C187 1.203 . S
O189 C182 1.185 . S
O189 Zn185 2.086 . S
C190 O186 1.278 . S
C190 O191 1.211 . S
O191 C190 1.211 . S
C192 O184 1.284 . S
C192 O193 1.273 . S
O193 C192 1.273 . S
O194 Zn185 1.977 . S
O194 C187 1.267 . S
C195 O196 1.160 . S
C195 O202 1.185 . S
O196 C195 1.160 . S
O197 Zn198 1.899 . S
O197 C205 1.284 . S
Zn198 O197 1.899 . S
Zn198 O199 2.032 . S
Zn198 O202 2.086 . S
Zn198 O207 1.977 . S
O199 Zn198 2.032 . S
O199 C203 1.278 . S
C200 O201 1.203 . S
C200 O207 1.267 . S
O201 C200 1.203 . S
O202 C195 1.185 . S
O202 Zn198 2.086 . S
C203 O199 1.278 . S
C203 O204 1.211 . S
O204 C203 1.211 . S
C205 O197 1.284 . S
C205 O206 1.273 . S
O206 C205 1.273 . S
O207 Zn198 1.977 . S
O207 C200 1.267 . S
C208 O209 1.160 . S
C208 O215 1.185 . S
O209 C208 1.160 . S
O210 Zn211 1.899 . S
O210 C218 1.284 . S
Zn211 O210 1.899 . S
Zn211 O212 2.032 . S
Zn211 O215 2.086 . S
Zn211 O220 1.977 . S
O212 Zn211 2.032 . S
O212 C216 1.278 . S
C213 O214 1.203 . S
C213 O220 1.267 . S
O214 C213 1.203 . S
O215 C208 1.185 . S
O215 Zn211 2.086 . S
C216 O212 1.278 . S
C216 O217 1.211 . S
O217 C216 1.211 . S
C218 O210 1.284 . S
C218 O219 1.273 . S
O219 C218 1.273 . S
O220 Zn211 1.977 . S
O220 C213 1.267 . S
C221 O222 1.160 . S
C221 O228 1.185 . S
O222 C221 1.160 . S
O223 Zn224 1.899 . S
O223 C231 1.284 . S
Zn224 O223 1.899 . S
Zn224 O225 2.032 . S
Zn224 O228 2.086 . S
Zn224 O233 1.977 . S
O225 Zn224 2.032 . S
O225 C229 1.278 . S
C226 O227 1.203 . S
C226 O233 1.267 . S
O227 C226 1.203 . S
O228 C221 1.185 . S
O228 Zn224 2.086 . S
C229 O225 1.278 . S
C229 O230 1.211 . S
O230 C229 1.211 . S
C231 O223 1.284 . S
C231 O232 1.273 . S
O232 C231 1.273 . S
O233 Zn224 1.977 . S
O233 C226 1.267 . S
C234 O235 1.160 . S
C234 O241 1.185 . S
O235 C234 1.160 . S
O236 Zn237 1.899 . S
O236 C244 1.284 . S
Zn237 O236 1.899 . S
Zn237 O238 2.032 . S
Zn237 O241 2.086 . S
Zn237 O246 1.977 . S
O238 Zn237 2.032 . S
O238 C242 1.278 . S
C239 O240 1.203 . S
C239 O246 1.267 . S
O240 C239 1.203 . S
O241 C234 1.185 . S
O241 Zn237 2.086 . S
C242 O238 1.278 . S
C242 O243 1.211 . S
O243 C242 1.211 . S
C244 O236 1.284 . S
C244 O245 1.273 . S
O245 C244 1.273 . S
O246 Zn237 1.977 . S
O246 C239 1.267 . S
C247 O248 1.160 . S
C247 O254 1.185 . S
O248 C247 1.160 . S
O249 Zn250 1.899 . S
O249 C257 1.284 . S
Zn250 O249 1.899 . S
Zn250 O251 2.032 . S
Zn250 O254 2.086 . S
Zn250 O259 1.977 . S
O251 Zn250 2.032 . S
O251 C255 1.278 . S
C252 O253 1.203 . S
C252 O259 1.267 . S
O253 C252 1.203 . S
O254 C247 1.185 . S
O254 Zn250 2.086 . S
C255 O251 1.278 . S
C255 O256 1.211 . S
O256 C255 1.211 . S
C257 O249 1.284 . S
C257 O258 1.273 . S
O258 C257 1.273 . S
O259 Zn250 1.977 . S
O259 C252 1.267 . S
C260 O261 1.160 . S
C260 O267 1.185 . S
O261 C260 1.160 . S
O262 Zn263 1.899 . S
O262 C270 1.284 . S
Zn263 O262 1.899 . S
Zn263 O264 2.032 . S
Zn263 O267 2.086 . S
Zn263 O272 1.977 . S
O264 Zn263 2.032 . S
O264 C268 1.278 . S
C265 O266 1.203 . S
C265 O272 1.267 . S
O266 C265 1.203 . S
O267 C260 1.185 . S
O267 Zn263 2.086 . S
C268 O264 1.278 . S
C268 O269 1.211 . S
O269 C268 1.211 . S
C270 O262 1.284 . S
C270 O271 1.273 . S
O271 C270 1.273 . S
O272 Zn263 1.977 . S
O272 C265 1.267 . S
C273 O274 1.160 . S
C273 O280 1.185 . S
O274 C273 1.160 . S
O275 Zn276 1.899 1_556 S
O275 C283 1.284 . S
Zn276 O275 1.899 1_554 S
Zn276 O277 2.032 . S
Zn276 O280 2.086 . S
Zn276 O285 1.977 . S
O277 Zn276 2.032 . S
O277 C281 1.278 . S
C278 O279 1.213 . S
C278 O285 1.267 . S
O279 C278 1.213 . S
O280 C273 1.185 . S
O280 Zn276 2.086 . S
C281 O277 1.278 . S
C281 O282 1.211 . S
O282 C281 1.211 . S
C283 O275 1.284 . S
C283 O284 1.273 . S
O284 C283 1.273 . S
O285 Zn276 1.977 . S
O285 C278 1.267 . S
C286 O287 1.160 . S
C286 O293 1.185 . S
O287 C286 1.160 . S
O288 Zn289 1.899 1_556 S
O288 C296 1.284 . S
Zn289 O288 1.899 1_554 S
Zn289 O290 2.032 . S
Zn289 O293 2.086 . S
Zn289 O298 1.977 . S
O290 Zn289 2.032 . S
O290 C294 1.278 . S
C291 O292 1.213 . S
C291 O298 1.267 . S
O292 C291 1.213 . S
O293 C286 1.185 . S
O293 Zn289 2.086 . S
C294 O290 1.278 . S
C294 O295 1.211 . S
O295 C294 1.211 . S
C296 O288 1.284 . S
C296 O297 1.273 . S
O297 C296 1.273 . S
O298 Zn289 1.977 . S
O298 C291 1.267 . S
C299 O300 1.160 . S
C299 O306 1.185 . S
O300 C299 1.160 . S
O301 Zn302 1.899 1_556 S
O301 C309 1.284 . S
Zn302 O301 1.899 1_554 S
Zn302 O303 2.032 . S
Zn302 O306 2.086 . S
Zn302 O311 1.977 . S
O303 Zn302 2.032 . S
O303 C307 1.278 . S
C304 O305 1.213 . S
C304 O311 1.267 . S
O305 C304 1.213 . S
O306 C299 1.185 . S
O306 Zn302 2.086 . S
C307 O303 1.278 . S
C307 O308 1.211 . S
O308 C307 1.211 . S
C309 O301 1.284 . S
C309 O310 1.273 . S
O310 C309 1.273 . S
O311 Zn302 1.977 . S
O311 C304 1.267 . S
C312 O313 1.160 . S
C312 O319 1.185 . S
O313 C312 1.160 . S
O314 Zn315 1.899 . S
O314 C322 1.284 . S
Zn315 O314 1.899 . S
Zn315 O316 2.032 . S
Zn315 O319 2.086 . S
Zn315 O324 1.977 . S
O316 Zn315 2.032 . S
O316 C320 1.278 . S
C317 O318 1.203 . S
C317 O324 1.267 . S
O318 C317 1.203 . S
O319 C312 1.185 . S
O319 Zn315 2.086 . S
C320 O316 1.278 . S
C320 O321 1.211 . S
O321 C320 1.211 . S
C322 O314 1.284 . S
C322 O323 1.273 . S
O323 C322 1.273 . S
O324 Zn315 1.977 . S
O324 C317 1.267 . S
C325 O326 1.160 . S
C325 O332 1.185 . S
O326 C325 1.160 . S
O327 Zn328 1.899 . S
O327 C335 1.284 . S
Zn328 O327 1.899 . S
Zn328 O329 2.032 . S
Zn328 O332 2.086 . S
Zn328 O337 1.977 . S
O329 Zn328 2.032 . S
O329 C333 1.278 . S
C330 O331 1.203 . S
C330 O337 1.267 . S
O331 C330 1.203 . S
O332 C325 1.185 . S
O332 Zn328 2.086 . S
C333 O329 1.278 . S
C333 O334 1.211 . S
O334 C333 1.211 . S
C335 O327 1.284 . S
C335 O336 1.273 . S
O336 C335 1.273 . S
O337 Zn328 1.977 . S
O337 C330 1.267 . S
C338 O339 1.160 . S
C338 O345 1.185 . S
O339 C338 1.160 . S
O340 Zn341 1.899 . S
O340 C348 1.284 . S
Zn341 O340 1.899 . S
Zn341 O342 2.032 . S
Zn341 O345 2.086 . S
Zn341 O350 1.977 . S
O342 Zn341 2.032 . S
O342 C346 1.278 . S
C343 O344 1.203 . S
C343 O350 1.267 . S
O344 C343 1.203 . S
O345 C338 1.185 . S
O345 Zn341 2.086 . S
C346 O342 1.278 . S
C346 O347 1.211 . S
O347 C346 1.211 . S
C348 O340 1.284 . S
C348 O349 1.273 . S
O349 C348 1.273 . S
O350 Zn341 1.977 . S
O350 C343 1.267 . S
C351 O352 1.160 . S
C351 O358 1.185 . S
O352 C351 1.160 . S
O353 Zn354 1.899 1_554 S
O353 C361 1.284 . S
Zn354 O353 1.899 1_556 S
Zn354 O355 2.032 . S
Zn354 O358 2.086 . S
Zn354 O363 1.977 . S
O355 Zn354 2.032 . S
O355 C359 1.278 . S
C356 O357 1.213 . S
C356 O363 1.267 . S
O357 C356 1.213 . S
O358 C351 1.185 . S
O358 Zn354 2.086 . S
C359 O355 1.278 . S
C359 O360 1.211 . S
O360 C359 1.211 . S
C361 O353 1.284 . S
C361 O362 1.273 . S
O362 C361 1.273 . S
O363 Zn354 1.977 . S
O363 C356 1.267 . S
C364 O365 1.160 . S
C364 O371 1.185 . S
O365 C364 1.160 . S
O366 Zn367 1.899 1_554 S
O366 C374 1.284 . S
Zn367 O366 1.899 1_556 S
Zn367 O368 2.032 . S
Zn367 O371 2.086 . S
Zn367 O376 1.977 . S
O368 Zn367 2.032 . S
O368 C372 1.278 . S
C369 O370 1.213 . S
C369 O376 1.267 . S
O370 C369 1.213 . S
O371 C364 1.185 . S
O371 Zn367 2.086 . S
C372 O368 1.278 . S
C372 O373 1.211 . S
O373 C372 1.211 . S
C374 O366 1.284 . S
C374 O375 1.273 . S
O375 C374 1.273 . S
O376 Zn367 1.977 . S
O376 C369 1.267 . S
C377 O378 1.160 . S
C377 O384 1.185 . S
O378 C377 1.160 . S
O379 Zn380 1.899 1_554 S
O379 C387 1.284 . S
Zn380 O379 1.899 1_556 S
Zn380 O381 2.032 . S
Zn380 O384 2.086 . S
Zn380 O389 1.977 . S
O381 Zn380 2.032 . S
O381 C385 1.278 . S
C382 O383 1.213 . S
C382 O389 1.267 . S
O383 C382 1.213 . S
O384 C377 1.185 . S
O384 Zn380 2.086 . S
C385 O381 1.278 . S
C385 O386 1.211 . S
O386 C385 1.211 . S
C387 O379 1.284 . S
C387 O388 1.273 . S
O388 C387 1.273 . S
O389 Zn380 1.977 . S
O389 C382 1.267 . S
C390 O391 1.160 . S
C390 O397 1.185 . S
O391 C390 1.160 . S
O392 Zn393 1.899 . S
O392 C400 1.284 . S
Zn393 O392 1.899 . S
Zn393 O394 2.032 . S
Zn393 O397 2.086 . S
Zn393 O402 1.977 . S
O394 Zn393 2.032 . S
O394 C398 1.278 . S
C395 O396 1.203 . S
C395 O402 1.267 . S
O396 C395 1.203 . S
O397 C390 1.185 . S
O397 Zn393 2.086 . S
C398 O394 1.278 . S
C398 O399 1.211 . S
O399 C398 1.211 . S
C400 O392 1.284 . S
C400 O401 1.273 . S
O401 C400 1.273 . S
O402 Zn393 1.977 . S
O402 C395 1.267 . S
C403 O404 1.160 . S
C403 O410 1.185 . S
O404 C403 1.160 . S
O405 Zn406 1.899 . S
O405 C413 1.284 . S
Zn406 O405 1.899 . S
Zn406 O407 2.032 . S
Zn406 O410 2.086 . S
Zn406 O415 1.977 . S
O407 Zn406 2.032 . S
O407 C411 1.278 . S
C408 O409 1.203 . S
C408 O415 1.267 . S
O409 C408 1.203 . S
O410 C403 1.185 . S
O410 Zn406 2.086 . S
C411 O407 1.278 . S
C411 O412 1.211 . S
O412 C411 1.211 . S
C413 O405 1.284 . S
C413 O414 1.273 . S
O414 C413 1.273 . S
O415 Zn406 1.977 . S
O415 C408 1.267 . S
C416 O417 1.160 . S
C416 O423 1.185 . S
O417 C416 1.160 . S
O418 Zn419 1.899 . S
O418 C426 1.284 . S
Zn419 O418 1.899 . S
Zn419 O420 2.032 . S
Zn419 O423 2.086 . S
Zn419 O428 1.977 . S
O420 Zn419 2.032 . S
O420 C424 1.278 . S
C421 O422 1.203 . S
C421 O428 1.267 . S
O422 C421 1.203 . S
O423 C416 1.185 . S
O423 Zn419 2.086 . S
C424 O420 1.278 . S
C424 O425 1.211 . S
O425 C424 1.211 . S
C426 O418 1.284 . S
C426 O427 1.273 . S
O427 C426 1.273 . S
O428 Zn419 1.977 . S
O428 C421 1.267 . S
C429 O430 1.160 . S
C429 O436 1.185 . S
O430 C429 1.160 . S
O431 Zn432 1.899 . S
O431 C439 1.284 . S
Zn432 O431 1.899 . S
Zn432 O433 2.032 . S
Zn432 O436 2.086 . S
Zn432 O441 1.977 . S
O433 Zn432 2.032 . S
O433 C437 1.278 . S
C434 O435 1.203 . S
C434 O441 1.267 . S
O435 C434 1.203 . S
O436 C429 1.185 . S
O436 Zn432 2.086 . S
C437 O433 1.278 . S
C437 O438 1.211 . S
O438 C437 1.211 . S
C439 O431 1.284 . S
C439 O440 1.273 . S
O440 C439 1.273 . S
O441 Zn432 1.977 . S
O441 C434 1.267 . S
C442 O443 1.160 . S
C442 O449 1.185 . S
O443 C442 1.160 . S
O444 Zn445 1.899 . S
O444 C452 1.284 . S
Zn445 O444 1.899 . S
Zn445 O446 2.032 . S
Zn445 O449 2.086 . S
Zn445 O454 1.977 . S
O446 Zn445 2.032 . S
O446 C450 1.278 . S
C447 O448 1.203 . S
C447 O454 1.267 . S
O448 C447 1.203 . S
O449 C442 1.185 . S
O449 Zn445 2.086 . S
C450 O446 1.278 . S
C450 O451 1.211 . S
O451 C450 1.211 . S
C452 O444 1.284 . S
C452 O453 1.273 . S
O453 C452 1.273 . S
O454 Zn445 1.977 . S
O454 C447 1.267 . S
C455 O456 1.160 . S
C455 O462 1.185 . S
O456 C455 1.160 . S
O457 Zn458 1.899 . S
O457 C465 1.284 . S
Zn458 O457 1.899 . S
Zn458 O459 2.032 . S
Zn458 O462 2.086 . S
Zn458 O467 1.977 . S
O459 Zn458 2.032 . S
O459 C463 1.278 . S
C460 O461 1.203 . S
C460 O467 1.267 . S
O461 C460 1.203 . S
O462 C455 1.185 . S
O462 Zn458 2.086 . S
C463 O459 1.278 . S
C463 O464 1.211 . S
O464 C463 1.211 . S
C465 O457 1.284 . S
C465 O466 1.273 . S
O466 C465 1.273 . S
O467 Zn458 1.977 . S
O467 C460 1.267 . S
H468 C474 0.930 . S
H469 C478 0.930 . S
H470 C483 0.929 . S
H471 C481 0.929 . S
H472 C476 0.926 1_556 S
H473 C482 0.929 . S
C474 H468 0.930 . S
C474 C475 1.367 . S
C474 C482 1.378 . S
C475 C474 1.367 . S
C475 C483 1.433 . S
C476 H472 0.926 1_554 S
C476 C478 1.378 . S
C476 C480 1.350 1_554 S
C477 C480 1.463 . S
C477 C482 1.350 . S
C477 N485 1.427 . S
C478 H469 0.930 . S
C478 C476 1.378 . S
C478 C479 1.367 . S
C479 C478 1.367 . S
C479 C481 1.433 . S
C480 C476 1.350 1_556 S
C480 C477 1.463 . S
C480 N484 1.427 1_556 S
C481 H471 0.929 . S
C481 C479 1.433 . S
C481 N484 1.384 . S
C482 H473 0.929 . S
C482 C474 1.378 . S
C482 C477 1.350 . S
C483 H470 0.929 . S
C483 C475 1.433 . S
C483 N485 1.384 . S
N484 C480 1.427 1_554 S
N484 C481 1.384 . S
N485 C477 1.427 . S
N485 C483 1.384 . S
H486 C492 0.930 . S
H487 C496 0.930 . S
H488 C501 0.929 . S
H489 C499 0.929 . S
H490 C494 0.929 1_556 S
H491 C500 0.929 . S
C492 H486 0.930 . S
C492 C493 1.367 . S
C492 C500 1.378 . S
C493 C492 1.367 . S
C493 C501 1.433 . S
C494 H490 0.929 1_554 S
C494 C496 1.378 . S
C494 C498 1.350 1_554 S
C495 C498 1.463 . S
C495 C500 1.350 . S
C495 N503 1.427 . S
C496 H487 0.930 . S
C496 C494 1.378 . S
C496 C497 1.367 . S
C497 C496 1.367 . S
C497 C499 1.433 . S
C498 C494 1.350 1_556 S
C498 C495 1.463 . S
C498 N502 1.427 1_556 S
C499 H489 0.929 . S
C499 C497 1.433 . S
C499 N502 1.384 . S
C500 H491 0.929 . S
C500 C492 1.378 . S
C500 C495 1.350 . S
C501 H488 0.929 . S
C501 C493 1.433 . S
C501 N503 1.384 . S
N502 C498 1.427 1_554 S
N502 C499 1.384 . S
N503 C495 1.427 . S
N503 C501 1.384 . S
H504 C510 0.930 . S
H505 C514 0.930 . S
H506 C519 0.929 . S
H507 C517 0.929 . S
H508 C512 0.929 . S
H509 C518 0.929 1_556 S
C510 H504 0.930 . S
C510 C511 1.367 . S
C510 C518 1.378 . S
C511 C510 1.367 . S
C511 C519 1.433 . S
C512 H508 0.929 . S
C512 C514 1.378 . S
C512 C516 1.350 . S
C513 C516 1.463 . S
C513 C518 1.350 1_556 S
C513 N521 1.427 1_556 S
C514 H505 0.930 . S
C514 C512 1.378 . S
C514 C515 1.367 . S
C515 C514 1.367 . S
C515 C517 1.433 . S
C516 C512 1.350 . S
C516 C513 1.463 . S
C516 N520 1.427 . S
C517 H507 0.929 . S
C517 C515 1.433 . S
C517 N520 1.384 . S
C518 H509 0.929 1_554 S
C518 C510 1.378 . S
C518 C513 1.350 1_554 S
C519 H506 0.929 . S
C519 C511 1.433 . S
C519 N521 1.384 . S
N520 C516 1.427 . S
N520 C517 1.384 . S
N521 C513 1.427 1_554 S
N521 C519 1.384 . S
H522 C528 0.930 . S
H523 C532 0.930 . S
H524 C537 0.929 . S
H525 C535 0.929 . S
H526 C530 0.929 . S
H527 C536 0.929 . S
C528 H522 0.930 . S
C528 C529 1.367 . S
C528 C536 1.378 . S
C529 C528 1.367 . S
C529 C537 1.433 . S
C530 H526 0.929 . S
C530 C532 1.378 . S
C530 C534 1.350 . S
C531 C534 1.463 . S
C531 C536 1.350 . S
C531 N539 1.427 . S
C532 H523 0.930 . S
C532 C530 1.378 . S
C532 C533 1.367 . S
C533 C532 1.367 . S
C533 C535 1.433 . S
C534 C530 1.350 . S
C534 C531 1.463 . S
C534 N538 1.427 . S
C535 H525 0.929 . S
C535 C533 1.433 . S
C535 N538 1.384 . S
C536 H527 0.929 . S
C536 C528 1.378 . S
C536 C531 1.350 . S
C537 H524 0.929 . S
C537 C529 1.433 . S
C537 N539 1.384 . S
N538 C534 1.427 . S
N538 C535 1.384 . S
N539 C531 1.427 . S
N539 C537 1.384 . S
H540 C546 0.930 . S
H541 C550 0.930 . S
H542 C555 0.929 . S
H543 C553 0.929 . S
H544 C548 0.929 . S
H545 C554 0.929 . S
C546 H540 0.930 . S
C546 C547 1.367 . S
C546 C554 1.378 . S
C547 C546 1.367 . S
C547 C555 1.433 . S
C548 H544 0.929 . S
C548 C550 1.378 . S
C548 C552 1.350 . S
C549 C552 1.463 . S
C549 C554 1.350 . S
C549 N557 1.427 . S
C550 H541 0.930 . S
C550 C548 1.378 . S
C550 C551 1.367 . S
C551 C550 1.367 . S
C551 C553 1.433 . S
C552 C548 1.350 . S
C552 C549 1.463 . S
C552 N556 1.427 . S
C553 H543 0.929 . S
C553 C551 1.433 . S
C553 N556 1.384 . S
C554 H545 0.929 . S
C554 C546 1.378 . S
C554 C549 1.350 . S
C555 H542 0.929 . S
C555 C547 1.433 . S
C555 N557 1.384 . S
N556 C552 1.427 . S
N556 C553 1.384 . S
N557 C549 1.427 . S
N557 C555 1.384 . S
H558 C564 0.930 . S
H559 C568 0.930 . S
H560 C573 0.929 . S
H561 C571 0.929 . S
H562 C566 0.929 . S
H563 C572 0.929 . S
C564 H558 0.930 . S
C564 C565 1.367 . S
C564 C572 1.378 . S
C565 C564 1.367 . S
C565 C573 1.433 . S
C566 H562 0.929 . S
C566 C568 1.378 . S
C566 C570 1.350 . S
C567 C570 1.463 . S
C567 C572 1.350 . S
C567 N575 1.427 . S
C568 H559 0.930 . S
C568 C566 1.378 . S
C568 C569 1.367 . S
C569 C568 1.367 . S
C569 C571 1.433 . S
C570 C566 1.350 . S
C570 C567 1.463 . S
C570 N574 1.427 . S
C571 H561 0.929 . S
C571 C569 1.433 . S
C571 N574 1.384 . S
C572 H563 0.929 . S
C572 C564 1.378 . S
C572 C567 1.350 . S
C573 H560 0.929 . S
C573 C565 1.433 . S
C573 N575 1.384 . S
N574 C570 1.427 . S
N574 C571 1.384 . S
N575 C567 1.427 . S
N575 C573 1.384 . S
H576 C582 0.930 . S
H577 C586 0.930 . S
H578 C591 0.929 . S
H579 C589 0.929 . S
H580 C584 0.929 1_554 S
H581 C590 0.929 . S
C582 H576 0.930 . S
C582 C583 1.367 . S
C582 C590 1.378 . S
C583 C582 1.367 . S
C583 C591 1.433 . S
C584 H580 0.929 1_556 S
C584 C586 1.378 . S
C584 C588 1.350 1_556 S
C585 C588 1.463 . S
C585 C590 1.350 . S
C585 N593 1.427 . S
C586 H577 0.930 . S
C586 C584 1.378 . S
C586 C587 1.367 . S
C587 C586 1.367 . S
C587 C589 1.433 . S
C588 C584 1.350 1_554 S
C588 C585 1.463 . S
C588 N592 1.427 1_554 S
C589 H579 0.929 . S
C589 C587 1.433 . S
C589 N592 1.384 . S
C590 H581 0.929 . S
C590 C582 1.378 . S
C590 C585 1.350 . S
C591 H578 0.929 . S
C591 C583 1.433 . S
C591 N593 1.384 . S
N592 C588 1.427 1_556 S
N592 C589 1.384 . S
N593 C585 1.427 . S
N593 C591 1.384 . S
H594 C600 0.930 . S
H595 C604 0.930 . S
H596 C609 0.929 . S
H597 C607 0.929 . S
H598 C602 0.923 1_554 S
H599 C608 0.929 . S
C600 H594 0.930 . S
C600 C601 1.367 . S
C600 C608 1.378 . S
C601 C600 1.367 . S
C601 C609 1.433 . S
C602 H598 0.923 1_556 S
C602 C604 1.378 . S
C602 C606 1.350 1_556 S
C603 C606 1.463 . S
C603 C608 1.350 . S
C603 N611 1.427 . S
C604 H595 0.930 . S
C604 C602 1.378 . S
C604 C605 1.367 . S
C605 C604 1.367 . S
C605 C607 1.433 . S
C606 C602 1.350 1_554 S
C606 C603 1.463 . S
C606 N610 1.427 1_554 S
C607 H597 0.929 . S
C607 C605 1.433 . S
C607 N610 1.384 . S
C608 H599 0.929 . S
C608 C600 1.378 . S
C608 C603 1.350 . S
C609 H596 0.929 . S
C609 C601 1.433 . S
C609 N611 1.384 . S
N610 C606 1.427 1_556 S
N610 C607 1.384 . S
N611 C603 1.427 . S
N611 C609 1.384 . S
H612 C618 0.930 . S
H613 C622 0.930 . S
H614 C627 0.929 . S
H615 C625 0.929 . S
H616 C620 0.929 . S
H617 C626 0.929 1_554 S
C618 H612 0.930 . S
C618 C619 1.367 . S
C618 C626 1.378 . S
C619 C618 1.367 . S
C619 C627 1.433 . S
C620 H616 0.929 . S
C620 C622 1.378 . S
C620 C624 1.350 . S
C621 C624 1.463 . S
C621 C626 1.350 1_554 S
C621 N629 1.427 1_554 S
C622 H613 0.930 . S
C622 C620 1.378 . S
C622 C623 1.367 . S
C623 C622 1.367 . S
C623 C625 1.433 . S
C624 C620 1.350 . S
C624 C621 1.463 . S
C624 N628 1.427 . S
C625 H615 0.929 . S
C625 C623 1.433 . S
C625 N628 1.384 . S
C626 H617 0.929 1_556 S
C626 C618 1.378 . S
C626 C621 1.350 1_556 S
C627 H614 0.929 . S
C627 C619 1.433 . S
C627 N629 1.384 . S
N628 C624 1.427 . S
N628 C625 1.384 . S
N629 C621 1.427 1_556 S
N629 C627 1.384 . S
H630 C636 0.930 . S
H631 C640 0.930 . S
H632 C645 0.929 . S
H633 C643 0.929 . S
H634 C638 0.929 . S
H635 C644 0.929 . S
C636 H630 0.930 . S
C636 C637 1.367 . S
C636 C644 1.378 . S
C637 C636 1.367 . S
C637 C645 1.433 . S
C638 H634 0.929 . S
C638 C640 1.378 . S
C638 C642 1.350 . S
C639 C642 1.463 . S
C639 C644 1.350 . S
C639 N647 1.427 . S
C640 H631 0.930 . S
C640 C638 1.378 . S
C640 C641 1.367 . S
C641 C640 1.367 . S
C641 C643 1.433 . S
C642 C638 1.350 . S
C642 C639 1.463 . S
C642 N646 1.427 . S
C643 H633 0.929 . S
C643 C641 1.433 . S
C643 N646 1.384 . S
C644 H635 0.929 . S
C644 C636 1.378 . S
C644 C639 1.350 . S
C645 H632 0.929 . S
C645 C637 1.433 . S
C645 N647 1.384 . S
N646 C642 1.427 . S
N646 C643 1.384 . S
N647 C639 1.427 . S
N647 C645 1.384 . S
H648 C654 0.930 . S
H649 C658 0.930 . S
H650 C663 0.929 . S
H651 C661 0.929 . S
H652 C656 0.929 . S
H653 C662 0.929 . S
C654 H648 0.930 . S
C654 C655 1.367 . S
C654 C662 1.378 . S
C655 C654 1.367 . S
C655 C663 1.433 . S
C656 H652 0.929 . S
C656 C658 1.378 . S
C656 C660 1.350 . S
C657 C660 1.463 . S
C657 C662 1.350 . S
C657 N665 1.427 . S
C658 H649 0.930 . S
C658 C656 1.378 . S
C658 C659 1.367 . S
C659 C658 1.367 . S
C659 C661 1.433 . S
C660 C656 1.350 . S
C660 C657 1.463 . S
C660 N664 1.427 . S
C661 H651 0.929 . S
C661 C659 1.433 . S
C661 N664 1.384 . S
C662 H653 0.929 . S
C662 C654 1.378 . S
C662 C657 1.350 . S
C663 H650 0.929 . S
C663 C655 1.433 . S
C663 N665 1.384 . S
N664 C660 1.427 . S
N664 C661 1.384 . S
N665 C657 1.427 . S
N665 C663 1.384 . S
H666 C672 0.930 . S
H667 C676 0.930 . S
H668 C681 0.929 . S
H669 C679 0.929 . S
H670 C674 0.929 . S
H671 C680 0.929 . S
C672 H666 0.930 . S
C672 C673 1.367 . S
C672 C680 1.378 . S
C673 C672 1.367 . S
C673 C681 1.433 . S
C674 H670 0.929 . S
C674 C676 1.378 . S
C674 C678 1.350 . S
C675 C678 1.463 . S
C675 C680 1.350 . S
C675 N683 1.427 . S
C676 H667 0.930 . S
C676 C674 1.378 . S
C676 C677 1.367 . S
C677 C676 1.367 . S
C677 C679 1.433 . S
C678 C674 1.350 . S
C678 C675 1.463 . S
C678 N682 1.427 . S
C679 H669 0.929 . S
C679 C677 1.433 . S
C679 N682 1.384 . S
C680 H671 0.929 . S
C680 C672 1.378 . S
C680 C675 1.350 . S
C681 H668 0.929 . S
C681 C673 1.433 . S
C681 N683 1.384 . S
N682 C678 1.427 . S
N682 C679 1.384 . S
N683 C675 1.427 . S
N683 C681 1.384 . S
H684 C690 0.930 . S
H685 C694 0.930 . S
H686 C699 0.929 . S
H687 C697 0.929 . S
H688 C692 0.929 . S
H689 C698 0.929 . S
C690 H684 0.930 . S
C690 C691 1.367 . S
C690 C698 1.378 . S
C691 C690 1.367 . S
C691 C699 1.433 . S
C692 H688 0.929 . S
C692 C694 1.378 . S
C692 C696 1.350 . S
C693 C696 1.463 . S
C693 C698 1.350 . S
C693 N701 1.427 . S
C694 H685 0.930 . S
C694 C692 1.378 . S
C694 C695 1.367 . S
C695 C694 1.367 . S
C695 C697 1.433 . S
C696 C692 1.350 . S
C696 C693 1.463 . S
C696 N700 1.427 . S
C697 H687 0.929 . S
C697 C695 1.433 . S
C697 N700 1.384 . S
C698 H689 0.929 . S
C698 C690 1.378 . S
C698 C693 1.350 . S
C699 H686 0.929 . S
C699 C691 1.433 . S
C699 N701 1.384 . S
N700 C696 1.427 . S
N700 C697 1.384 . S
N701 C693 1.427 . S
N701 C699 1.384 . S
H702 C708 0.930 . S
H703 C712 0.930 . S
H704 C717 0.929 . S
H705 C715 0.929 . S
H706 C710 0.929 . S
H707 C716 0.929 . S
C708 H702 0.930 . S
C708 C709 1.367 . S
C708 C716 1.378 . S
C709 C708 1.367 . S
C709 C717 1.433 . S
C710 H706 0.929 . S
C710 C712 1.378 . S
C710 C714 1.350 . S
C711 C714 1.463 . S
C711 C716 1.350 . S
C711 N719 1.427 . S
C712 H703 0.930 . S
C712 C710 1.378 . S
C712 C713 1.367 . S
C713 C712 1.367 . S
C713 C715 1.433 . S
C714 C710 1.350 . S
C714 C711 1.463 . S
C714 N718 1.427 . S
C715 H705 0.929 . S
C715 C713 1.433 . S
C715 N718 1.384 . S
C716 H707 0.929 . S
C716 C708 1.378 . S
C716 C711 1.350 . S
C717 H704 0.929 . S
C717 C709 1.433 . S
C717 N719 1.384 . S
N718 C714 1.427 . S
N718 C715 1.384 . S
N719 C711 1.427 . S
N719 C717 1.384 . S
H720 C726 0.930 . S
H721 C730 0.930 . S
H722 C735 0.929 . S
H723 C733 0.929 . S
H724 C728 0.929 . S
H725 C734 0.929 . S
C726 H720 0.930 . S
C726 C727 1.367 . S
C726 C734 1.378 . S
C727 C726 1.367 . S
C727 C735 1.433 . S
C728 H724 0.929 . S
C728 C730 1.378 . S
C728 C732 1.350 . S
C729 C732 1.463 . S
C729 C734 1.350 . S
C729 N737 1.427 . S
C730 H721 0.930 . S
C730 C728 1.378 . S
C730 C731 1.367 . S
C731 C730 1.367 . S
C731 C733 1.433 . S
C732 C728 1.350 . S
C732 C729 1.463 . S
C732 N736 1.427 . S
C733 H723 0.929 . S
C733 C731 1.433 . S
C733 N736 1.384 . S
C734 H725 0.929 . S
C734 C726 1.378 . S
C734 C729 1.350 . S
C735 H722 0.929 . S
C735 C727 1.433 . S
C735 N737 1.384 . S
N736 C732 1.427 . S
N736 C733 1.384 . S
N737 C729 1.427 . S
N737 C735 1.384 . S
H738 C744 0.930 . S
H739 C748 0.930 . S
H740 C753 0.929 . S
H741 C751 0.929 1_554 S
H742 C746 0.929 . S
H743 C752 0.929 . S
C744 H738 0.930 . S
C744 C745 1.367 . S
C744 C752 1.378 . S
C745 C744 1.367 . S
C745 C753 1.433 . S
C746 H742 0.929 . S
C746 C748 1.378 . S
C746 C750 1.350 . S
C747 C750 1.463 . S
C747 C752 1.350 . S
C747 N755 1.427 . S
C748 H739 0.930 . S
C748 C746 1.378 . S
C748 C749 1.367 1_556 S
C749 C748 1.367 1_554 S
C749 C751 1.433 1_554 S
C750 C746 1.350 . S
C750 C747 1.463 . S
C750 N754 1.427 . S
C751 H741 0.929 1_556 S
C751 C749 1.433 1_556 S
C751 N754 1.384 . S
C752 H743 0.929 . S
C752 C744 1.378 . S
C752 C747 1.350 . S
C753 H740 0.929 . S
C753 C745 1.433 . S
C753 N755 1.384 . S
N754 C750 1.427 . S
N754 C751 1.384 . S
N755 C747 1.427 . S
N755 C753 1.384 . S
H756 C762 0.930 . S
H757 C766 0.930 1_554 S
H758 C771 0.929 . S
H759 C769 0.929 . S
H760 C764 0.929 . S
H761 C770 0.929 . S
C762 H756 0.930 . S
C762 C763 1.367 . S
C762 C770 1.378 . S
C763 C762 1.367 . S
C763 C771 1.433 . S
C764 H760 0.929 . S
C764 C766 1.378 . S
C764 C768 1.350 . S
C765 C768 1.463 . S
C765 C770 1.350 . S
C765 N773 1.427 . S
C766 H757 0.930 1_556 S
C766 C764 1.378 . S
C766 C767 1.367 1_556 S
C767 C766 1.367 1_554 S
C767 C769 1.433 1_554 S
C768 C764 1.350 . S
C768 C765 1.463 . S
C768 N772 1.427 . S
C769 H759 0.929 . S
C769 C767 1.433 1_556 S
C769 N772 1.384 . S
C770 H761 0.929 . S
C770 C762 1.378 . S
C770 C765 1.350 . S
C771 H758 0.929 . S
C771 C763 1.433 . S
C771 N773 1.384 . S
N772 C768 1.427 . S
N772 C769 1.384 . S
N773 C765 1.427 . S
N773 C771 1.384 . S
H774 C780 0.930 . S
H775 C784 0.930 1_554 S
H776 C789 0.929 . S
H777 C787 0.929 . S
H778 C782 0.929 . S
H779 C788 0.929 . S
C780 H774 0.930 . S
C780 C781 1.367 . S
C780 C788 1.378 . S
C781 C780 1.367 . S
C781 C789 1.433 . S
C782 H778 0.929 . S
C782 C784 1.378 . S
C782 C786 1.350 . S
C783 C786 1.463 . S
C783 C788 1.350 . S
C783 N791 1.427 . S
C784 H775 0.930 1_556 S
C784 C782 1.378 . S
C784 C785 1.367 1_556 S
C785 C784 1.367 1_554 S
C785 C787 1.433 1_554 S
C786 C782 1.350 . S
C786 C783 1.463 . S
C786 N790 1.427 . S
C787 H777 0.929 . S
C787 C785 1.433 1_556 S
C787 N790 1.384 . S
C788 H779 0.929 . S
C788 C780 1.378 . S
C788 C783 1.350 . S
C789 H776 0.929 . S
C789 C781 1.433 . S
C789 N791 1.384 . S
N790 C786 1.427 . S
N790 C787 1.384 . S
N791 C783 1.427 . S
N791 C789 1.384 . S
H792 C798 0.930 . S
H793 C802 0.930 . S
H794 C807 0.929 . S
H795 C805 0.929 . S
H796 C800 0.929 . S
H797 C806 0.929 . S
C798 H792 0.930 . S
C798 C799 1.367 . S
C798 C806 1.378 . S
C799 C798 1.367 . S
C799 C807 1.433 . S
C800 H796 0.929 . S
C800 C802 1.378 . S
C800 C804 1.350 . S
C801 C804 1.463 . S
C801 C806 1.350 . S
C801 N809 1.427 . S
C802 H793 0.930 . S
C802 C800 1.378 . S
C802 C803 1.367 . S
C803 C802 1.367 . S
C803 C805 1.433 . S
C804 C800 1.350 . S
C804 C801 1.463 . S
C804 N808 1.427 . S
C805 H795 0.929 . S
C805 C803 1.433 . S
C805 N808 1.384 . S
C806 H797 0.929 . S
C806 C798 1.378 . S
C806 C801 1.350 . S
C807 H794 0.929 . S
C807 C799 1.433 . S
C807 N809 1.384 . S
N808 C804 1.427 . S
N808 C805 1.384 . S
N809 C801 1.427 . S
N809 C807 1.384 . S
H810 C816 0.930 . S
H811 C820 0.930 . S
H812 C825 0.929 . S
H813 C823 0.929 . S
H814 C818 0.929 . S
H815 C824 0.929 . S
C816 H810 0.930 . S
C816 C817 1.367 . S
C816 C824 1.378 . S
C817 C816 1.367 . S
C817 C825 1.433 . S
C818 H814 0.929 . S
C818 C820 1.378 . S
C818 C822 1.350 . S
C819 C822 1.463 . S
C819 C824 1.350 . S
C819 N827 1.427 . S
C820 H811 0.930 . S
C820 C818 1.378 . S
C820 C821 1.367 . S
C821 C820 1.367 . S
C821 C823 1.433 . S
C822 C818 1.350 . S
C822 C819 1.463 . S
C822 N826 1.427 . S
C823 H813 0.929 . S
C823 C821 1.433 . S
C823 N826 1.384 . S
C824 H815 0.929 . S
C824 C816 1.378 . S
C824 C819 1.350 . S
C825 H812 0.929 . S
C825 C817 1.433 . S
C825 N827 1.384 . S
N826 C822 1.427 . S
N826 C823 1.384 . S
N827 C819 1.427 . S
N827 C825 1.384 . S
H828 C834 0.930 . S
H829 C838 0.930 . S
H830 C843 0.929 . S
H831 C841 0.929 . S
H832 C836 0.929 . S
H833 C842 0.929 . S
C834 H828 0.930 . S
C834 C835 1.367 . S
C834 C842 1.378 . S
C835 C834 1.367 . S
C835 C843 1.433 . S
C836 H832 0.929 . S
C836 C838 1.378 . S
C836 C840 1.350 . S
C837 C840 1.463 . S
C837 C842 1.350 . S
C837 N845 1.427 . S
C838 H829 0.930 . S
C838 C836 1.378 . S
C838 C839 1.367 . S
C839 C838 1.367 . S
C839 C841 1.433 . S
C840 C836 1.350 . S
C840 C837 1.463 . S
C840 N844 1.427 . S
C841 H831 0.929 . S
C841 C839 1.433 . S
C841 N844 1.384 . S
C842 H833 0.929 . S
C842 C834 1.378 . S
C842 C837 1.350 . S
C843 H830 0.929 . S
C843 C835 1.433 . S
C843 N845 1.384 . S
N844 C840 1.427 . S
N844 C841 1.384 . S
N845 C837 1.427 . S
N845 C843 1.384 . S
H846 C852 0.930 . S
H847 C856 0.930 . S
H848 C861 0.929 . S
H849 C859 0.929 . S
H850 C854 0.929 . S
H851 C860 0.929 . S
C852 H846 0.930 . S
C852 C853 1.367 . S
C852 C860 1.378 . S
C853 C852 1.367 . S
C853 C861 1.433 . S
C854 H850 0.929 . S
C854 C856 1.378 . S
C854 C858 1.350 . S
C855 C858 1.463 . S
C855 C860 1.350 . S
C855 N863 1.427 . S
C856 H847 0.930 . S
C856 C854 1.378 . S
C856 C857 1.367 . S
C857 C856 1.367 . S
C857 C859 1.433 . S
C858 C854 1.350 . S
C858 C855 1.463 . S
C858 N862 1.427 . S
C859 H849 0.929 . S
C859 C857 1.433 . S
C859 N862 1.384 . S
C860 H851 0.929 . S
C860 C852 1.378 . S
C860 C855 1.350 . S
C861 H848 0.929 . S
C861 C853 1.433 . S
C861 N863 1.384 . S
N862 C858 1.427 . S
N862 C859 1.384 . S
N863 C855 1.427 . S
N863 C861 1.384 . S
H864 C870 0.930 . S
H865 C874 0.930 . S
H866 C879 0.929 . S
H867 C877 0.929 . S
H868 C872 0.929 . S
H869 C878 0.929 . S
C870 H864 0.930 . S
C870 C871 1.367 . S
C870 C878 1.378 . S
C871 C870 1.367 . S
C871 C879 1.433 . S
C872 H868 0.929 . S
C872 C874 1.378 . S
C872 C876 1.350 . S
C873 C876 1.463 . S
C873 C878 1.350 . S
C873 N881 1.427 . S
C874 H865 0.930 . S
C874 C872 1.378 . S
C874 C875 1.367 . S
C875 C874 1.367 . S
C875 C877 1.433 . S
C876 C872 1.350 . S
C876 C873 1.463 . S
C876 N880 1.427 . S
C877 H867 0.929 . S
C877 C875 1.433 . S
C877 N880 1.384 . S
C878 H869 0.929 . S
C878 C870 1.378 . S
C878 C873 1.350 . S
C879 H866 0.929 . S
C879 C871 1.433 . S
C879 N881 1.384 . S
N880 C876 1.427 . S
N880 C877 1.384 . S
N881 C873 1.427 . S
N881 C879 1.384 . S
H882 C888 0.930 . S
H883 C892 0.930 . S
H884 C897 0.929 . S
H885 C895 0.929 . S
H886 C890 0.929 . S
H887 C896 0.929 . S
C888 H882 0.930 . S
C888 C889 1.367 . S
C888 C896 1.378 . S
C889 C888 1.367 . S
C889 C897 1.433 . S
C890 H886 0.929 . S
C890 C892 1.378 . S
C890 C894 1.350 . S
C891 C894 1.463 . S
C891 C896 1.350 . S
C891 N899 1.427 . S
C892 H883 0.930 . S
C892 C890 1.378 . S
C892 C893 1.367 . S
C893 C892 1.367 . S
C893 C895 1.433 . S
C894 C890 1.350 . S
C894 C891 1.463 . S
C894 N898 1.427 . S
C895 H885 0.929 . S
C895 C893 1.433 . S
C895 N898 1.384 . S
C896 H887 0.929 . S
C896 C888 1.378 . S
C896 C891 1.350 . S
C897 H884 0.929 . S
C897 C889 1.433 . S
C897 N899 1.384 . S
N898 C894 1.427 . S
N898 C895 1.384 . S
N899 C891 1.427 . S
N899 C897 1.384 . S
H900 C906 0.930 . S
H901 C910 0.930 . S
H902 C915 0.929 . S
H903 C913 0.929 . S
H904 C908 0.929 . S
H905 C914 0.929 . S
C906 H900 0.930 . S
C906 C907 1.367 . S
C906 C914 1.378 . S
C907 C906 1.367 . S
C907 C915 1.433 . S
C908 H904 0.929 . S
C908 C910 1.378 . S
C908 C912 1.350 . S
C909 C912 1.463 . S
C909 C914 1.350 . S
C909 N917 1.427 . S
C910 H901 0.930 . S
C910 C908 1.378 . S
C910 C911 1.367 . S
C911 C910 1.367 . S
C911 C913 1.433 . S
C912 C908 1.350 . S
C912 C909 1.463 . S
C912 N916 1.427 . S
C913 H903 0.929 . S
C913 C911 1.433 . S
C913 N916 1.384 . S
C914 H905 0.929 . S
C914 C906 1.378 . S
C914 C909 1.350 . S
C915 H902 0.929 . S
C915 C907 1.433 . S
C915 N917 1.384 . S
N916 C912 1.427 . S
N916 C913 1.384 . S
N917 C909 1.427 . S
N917 C915 1.384 . S
H918 C924 0.930 . S
H919 C928 0.930 . S
H920 C933 0.929 . S
H921 C931 0.929 . S
H922 C926 0.929 . S
H923 C932 0.929 . S
C924 H918 0.930 . S
C924 C925 1.367 . S
C924 C932 1.378 . S
C925 C924 1.367 . S
C925 C933 1.433 . S
C926 H922 0.929 . S
C926 C928 1.378 . S
C926 C930 1.350 . S
C927 C930 1.463 . S
C927 C932 1.350 . S
C927 N935 1.427 . S
C928 H919 0.930 . S
C928 C926 1.378 . S
C928 C929 1.367 . S
C929 C928 1.367 . S
C929 C931 1.433 . S
C930 C926 1.350 . S
C930 C927 1.463 . S
C930 N934 1.427 . S
C931 H921 0.929 . S
C931 C929 1.433 . S
C931 N934 1.384 . S
C932 H923 0.929 . S
C932 C924 1.378 . S
C932 C927 1.350 . S
C933 H920 0.929 . S
C933 C925 1.433 . S
C933 N935 1.384 . S
N934 C930 1.427 . S
N934 C931 1.384 . S
N935 C927 1.427 . S
N935 C933 1.384 . S
H936 C942 0.930 . S
H937 C946 0.930 . S
H938 C951 0.929 . S
H939 C949 0.929 . S
H940 C944 0.929 . S
H941 C950 0.929 . S
C942 H936 0.930 . S
C942 C943 1.367 . S
C942 C950 1.378 . S
C943 C942 1.367 . S
C943 C951 1.433 . S
C944 H940 0.929 . S
C944 C946 1.378 . S
C944 C948 1.350 . S
C945 C948 1.463 . S
C945 C950 1.350 . S
C945 N953 1.427 . S
C946 H937 0.930 . S
C946 C944 1.378 . S
C946 C947 1.367 . S
C947 C946 1.367 . S
C947 C949 1.433 . S
C948 C944 1.350 . S
C948 C945 1.463 . S
C948 N952 1.427 . S
C949 H939 0.929 . S
C949 C947 1.433 . S
C949 N952 1.384 . S
C950 H941 0.929 . S
C950 C942 1.378 . S
C950 C945 1.350 . S
C951 H938 0.929 . S
C951 C943 1.433 . S
C951 N953 1.384 . S
N952 C948 1.427 . S
N952 C949 1.384 . S
N953 C945 1.427 . S
N953 C951 1.384 . S
H954 C960 0.930 . S
H955 C964 0.930 . S
H956 C969 0.929 . S
H957 C967 0.929 . S
H958 C962 0.929 . S
H959 C968 0.929 . S
C960 H954 0.930 . S
C960 C961 1.367 . S
C960 C968 1.378 . S
C961 C960 1.367 . S
C961 C969 1.433 . S
C962 H958 0.929 . S
C962 C964 1.378 . S
C962 C966 1.350 . S
C963 C966 1.463 . S
C963 C968 1.350 . S
C963 N971 1.427 . S
C964 H955 0.930 . S
C964 C962 1.378 . S
C964 C965 1.367 . S
C965 C964 1.367 . S
C965 C967 1.433 . S
C966 C962 1.350 . S
C966 C963 1.463 . S
C966 N970 1.427 . S
C967 H957 0.929 . S
C967 C965 1.433 . S
C967 N970 1.384 . S
C968 H959 0.929 . S
C968 C960 1.378 . S
C968 C963 1.350 . S
C969 H956 0.929 . S
C969 C961 1.433 . S
C969 N971 1.384 . S
N970 C966 1.427 . S
N970 C967 1.384 . S
N971 C963 1.427 . S
N971 C969 1.384 . S
H972 C978 0.930 . S
H973 C982 0.930 . S
H974 C987 0.929 . S
H975 C985 0.929 . S
H976 C980 0.929 . S
H977 C986 0.929 . S
C978 H972 0.930 . S
C978 C979 1.367 . S
C978 C986 1.378 . S
C979 C978 1.367 . S
C979 C987 1.433 . S
C980 H976 0.929 . S
C980 C982 1.378 . S
C980 C984 1.350 . S
C981 C984 1.463 . S
C981 C986 1.350 . S
C981 N989 1.427 . S
C982 H973 0.930 . S
C982 C980 1.378 . S
C982 C983 1.367 . S
C983 C982 1.367 . S
C983 C985 1.433 . S
C984 C980 1.350 . S
C984 C981 1.463 . S
C984 N988 1.427 . S
C985 H975 0.929 . S
C985 C983 1.433 . S
C985 N988 1.384 . S
C986 H977 0.929 . S
C986 C978 1.378 . S
C986 C981 1.350 . S
C987 H974 0.929 . S
C987 C979 1.433 . S
C987 N989 1.384 . S
N988 C984 1.427 . S
N988 C985 1.384 . S
N989 C981 1.427 . S
N989 C987 1.384 . S
H990 C996 0.930 . S
H991 C1000 0.930 . S
H992 C1005 0.929 . S
H993 C1003 0.929 . S
H994 C998 0.929 . S
H995 C1004 0.929 . S
C996 H990 0.930 . S
C996 C997 1.367 . S
C996 C1004 1.378 . S
C997 C996 1.367 . S
C997 C1005 1.433 . S
C998 H994 0.929 . S
C998 C1000 1.378 . S
C998 C1002 1.350 . S
C999 C1002 1.463 . S
C999 C1004 1.350 . S
C999 N1007 1.427 . S
C1000 H991 0.930 . S
C1000 C998 1.378 . S
C1000 C1001 1.367 . S
C1001 C1000 1.367 . S
C1001 C1003 1.433 . S
C1002 C998 1.350 . S
C1002 C999 1.463 . S
C1002 N1006 1.427 . S
C1003 H993 0.929 . S
C1003 C1001 1.433 . S
C1003 N1006 1.384 . S
C1004 H995 0.929 . S
C1004 C996 1.378 . S
C1004 C999 1.350 . S
C1005 H992 0.929 . S
C1005 C997 1.433 . S
C1005 N1007 1.384 . S
N1006 C1002 1.427 . S
N1006 C1003 1.384 . S
N1007 C999 1.427 . S
N1007 C1005 1.384 . S
H1008 C1014 0.930 . S
H1009 C1018 0.930 . S
H1010 C1023 0.929 . S
H1011 C1021 0.929 . S
H1012 C1016 0.929 . S
H1013 C1022 0.929 . S
C1014 H1008 0.930 . S
C1014 C1015 1.367 . S
C1014 C1022 1.378 . S
C1015 C1014 1.367 . S
C1015 C1023 1.433 . S
C1016 H1012 0.929 . S
C1016 C1018 1.378 . S
C1016 C1020 1.350 . S
C1017 C1020 1.463 . S
C1017 C1022 1.350 . S
C1017 N1025 1.427 . S
C1018 H1009 0.930 . S
C1018 C1016 1.378 . S
C1018 C1019 1.367 . S
C1019 C1018 1.367 . S
C1019 C1021 1.433 . S
C1020 C1016 1.350 . S
C1020 C1017 1.463 . S
C1020 N1024 1.427 . S
C1021 H1011 0.929 . S
C1021 C1019 1.433 . S
C1021 N1024 1.384 . S
C1022 H1013 0.929 . S
C1022 C1014 1.378 . S
C1022 C1017 1.350 . S
C1023 H1010 0.929 . S
C1023 C1015 1.433 . S
C1023 N1025 1.384 . S
N1024 C1020 1.427 . S
N1024 C1021 1.384 . S
N1025 C1017 1.427 . S
N1025 C1023 1.384 . S
H1026 C1032 0.930 . S
H1027 C1036 0.930 . S
H1028 C1041 0.929 . S
H1029 C1039 0.929 . S
H1030 C1034 0.929 . S
H1031 C1040 0.929 . S
C1032 H1026 0.930 . S
C1032 C1033 1.367 . S
C1032 C1040 1.378 . S
C1033 C1032 1.367 . S
C1033 C1041 1.433 . S
C1034 H1030 0.929 . S
C1034 C1036 1.378 . S
C1034 C1038 1.350 . S
C1035 C1038 1.463 . S
C1035 C1040 1.350 . S
C1035 N1043 1.427 . S
C1036 H1027 0.930 . S
C1036 C1034 1.378 . S
C1036 C1037 1.367 . S
C1037 C1036 1.367 . S
C1037 C1039 1.433 . S
C1038 C1034 1.350 . S
C1038 C1035 1.463 . S
C1038 N1042 1.427 . S
C1039 H1029 0.929 . S
C1039 C1037 1.433 . S
C1039 N1042 1.384 . S
C1040 H1031 0.929 . S
C1040 C1032 1.378 . S
C1040 C1035 1.350 . S
C1041 H1028 0.929 . S
C1041 C1033 1.433 . S
C1041 N1043 1.384 . S
N1042 C1038 1.427 . S
N1042 C1039 1.384 . S
N1043 C1035 1.427 . S
N1043 C1041 1.384 . S
H1044 C1050 0.930 . S
H1045 C1054 0.930 . S
H1046 C1059 0.929 . S
H1047 C1057 0.929 . S
H1048 C1052 0.929 . S
H1049 C1058 0.929 . S
C1050 H1044 0.930 . S
C1050 C1051 1.367 . S
C1050 C1058 1.378 . S
C1051 C1050 1.367 . S
C1051 C1059 1.433 . S
C1052 H1048 0.929 . S
C1052 C1054 1.378 . S
C1052 C1056 1.350 . S
C1053 C1056 1.463 . S
C1053 C1058 1.350 . S
C1053 N1061 1.427 . S
C1054 H1045 0.930 . S
C1054 C1052 1.378 . S
C1054 C1055 1.367 . S
C1055 C1054 1.367 . S
C1055 C1057 1.433 . S
C1056 C1052 1.350 . S
C1056 C1053 1.463 . S
C1056 N1060 1.427 . S
C1057 H1047 0.929 . S
C1057 C1055 1.433 . S
C1057 N1060 1.384 . S
C1058 H1049 0.929 . S
C1058 C1050 1.378 . S
C1058 C1053 1.350 . S
C1059 H1046 0.929 . S
C1059 C1051 1.433 . S
C1059 N1061 1.384 . S
N1060 C1056 1.427 . S
N1060 C1057 1.384 . S
N1061 C1053 1.427 . S
N1061 C1059 1.384 . S
H1062 C1068 0.930 . S
H1063 C1072 0.930 1_556 S
H1064 C1077 0.929 . S
H1065 C1075 0.920 1_556 S
H1066 C1070 0.929 . S
H1067 C1076 0.929 . S
C1068 H1062 0.930 . S
C1068 C1069 1.367 . S
C1068 C1076 1.378 . S
C1069 C1068 1.367 . S
C1069 C1077 1.433 . S
C1070 H1066 0.929 . S
C1070 C1072 1.378 . S
C1070 C1074 1.350 . S
C1071 C1074 1.463 . S
C1071 C1076 1.350 . S
C1071 N1079 1.427 . S
C1072 H1063 0.930 1_554 S
C1072 C1070 1.378 . S
C1072 C1073 1.367 1_554 S
C1073 C1072 1.367 1_556 S
C1073 C1075 1.433 1_556 S
C1074 C1070 1.350 . S
C1074 C1071 1.463 . S
C1074 N1078 1.427 . S
C1075 H1065 0.920 1_554 S
C1075 C1073 1.433 1_554 S
C1075 N1078 1.384 . S
C1076 H1067 0.929 . S
C1076 C1068 1.378 . S
C1076 C1071 1.350 . S
C1077 H1064 0.929 . S
C1077 C1069 1.433 . S
C1077 N1079 1.384 . S
N1078 C1074 1.427 . S
N1078 C1075 1.384 . S
N1079 C1071 1.427 . S
N1079 C1077 1.384 . S
H1080 C1086 0.930 1_556 S
H1081 C1090 0.930 . S
H1082 C1095 0.929 . S
H1083 C1093 0.929 . S
H1084 C1088 0.929 . S
H1085 C1094 0.929 . S
C1086 H1080 0.930 1_554 S
C1086 C1087 1.367 1_554 S
C1086 C1094 1.378 . S
C1087 C1086 1.367 1_556 S
C1087 C1095 1.433 1_556 S
C1088 H1084 0.929 . S
C1088 C1090 1.378 . S
C1088 C1092 1.350 . S
C1089 C1092 1.463 . S
C1089 C1094 1.350 . S
C1089 N1097 1.427 . S
C1090 H1081 0.930 . S
C1090 C1088 1.378 . S
C1090 C1091 1.367 . S
C1091 C1090 1.367 . S
C1091 C1093 1.433 . S
C1092 C1088 1.350 . S
C1092 C1089 1.463 . S
C1092 N1096 1.427 . S
C1093 H1083 0.929 . S
C1093 C1091 1.433 . S
C1093 N1096 1.384 . S
C1094 H1085 0.929 . S
C1094 C1086 1.378 . S
C1094 C1089 1.350 . S
C1095 H1082 0.929 . S
C1095 C1087 1.433 1_554 S
C1095 N1097 1.384 . S
N1096 C1092 1.427 . S
N1096 C1093 1.384 . S
N1097 C1089 1.427 . S
N1097 C1095 1.384 . S
H1098 C1104 0.930 . S
H1099 C1108 0.930 1_556 S
H1100 C1113 0.929 . S
H1101 C1111 0.929 . S
H1102 C1106 0.929 . S
H1103 C1112 0.929 . S
C1104 H1098 0.930 . S
C1104 C1105 1.367 . S
C1104 C1112 1.378 . S
C1105 C1104 1.367 . S
C1105 C1113 1.433 . S
C1106 H1102 0.929 . S
C1106 C1108 1.378 . S
C1106 C1110 1.350 . S
C1107 C1110 1.463 . S
C1107 C1112 1.350 . S
C1107 N1115 1.427 . S
C1108 H1099 0.930 1_554 S
C1108 C1106 1.378 . S
C1108 C1109 1.367 1_554 S
C1109 C1108 1.367 1_556 S
C1109 C1111 1.433 1_556 S
C1110 C1106 1.350 . S
C1110 C1107 1.463 . S
C1110 N1114 1.427 . S
C1111 H1101 0.929 . S
C1111 C1109 1.433 1_554 S
C1111 N1114 1.384 . S
C1112 H1103 0.929 . S
C1112 C1104 1.378 . S
C1112 C1107 1.350 . S
C1113 H1100 0.929 . S
C1113 C1105 1.433 . S
C1113 N1115 1.384 . S
N1114 C1110 1.427 . S
N1114 C1111 1.384 . S
N1115 C1107 1.427 . S
N1115 C1113 1.384 . S
H1116 C1122 0.930 . S
H1117 C1126 0.930 . S
H1118 C1131 0.929 . S
H1119 C1129 0.929 . S
H1120 C1124 0.929 . S
H1121 C1130 0.929 . S
C1122 H1116 0.930 . S
C1122 C1123 1.367 . S
C1122 C1130 1.378 . S
C1123 C1122 1.367 . S
C1123 C1131 1.433 . S
C1124 H1120 0.929 . S
C1124 C1126 1.378 . S
C1124 C1128 1.350 . S
C1125 C1128 1.463 . S
C1125 C1130 1.350 . S
C1125 N1133 1.427 . S
C1126 H1117 0.930 . S
C1126 C1124 1.378 . S
C1126 C1127 1.367 . S
C1127 C1126 1.367 . S
C1127 C1129 1.433 . S
C1128 C1124 1.350 . S
C1128 C1125 1.463 . S
C1128 N1132 1.427 . S
C1129 H1119 0.929 . S
C1129 C1127 1.433 . S
C1129 N1132 1.384 . S
C1130 H1121 0.929 . S
C1130 C1122 1.378 . S
C1130 C1125 1.350 . S
C1131 H1118 0.929 . S
C1131 C1123 1.433 . S
C1131 N1133 1.384 . S
N1132 C1128 1.427 . S
N1132 C1129 1.384 . S
N1133 C1125 1.427 . S
N1133 C1131 1.384 . S
H1134 C1140 0.930 . S
H1135 C1144 0.930 . S
H1136 C1149 0.929 . S
H1137 C1147 0.929 . S
H1138 C1142 0.929 . S
H1139 C1148 0.929 . S
C1140 H1134 0.930 . S
C1140 C1141 1.367 . S
C1140 C1148 1.378 . S
C1141 C1140 1.367 . S
C1141 C1149 1.433 . S
C1142 H1138 0.929 . S
C1142 C1144 1.378 . S
C1142 C1146 1.350 . S
C1143 C1146 1.463 1_565 S
C1143 C1148 1.350 . S
C1143 N1151 1.427 . S
C1144 H1135 0.930 . S
C1144 C1142 1.378 . S
C1144 C1145 1.367 . S
C1145 C1144 1.367 . S
C1145 C1147 1.433 . S
C1146 C1142 1.350 . S
C1146 C1143 1.463 1_545 S
C1146 N1150 1.427 . S
C1147 H1137 0.929 . S
C1147 C1145 1.433 . S
C1147 N1150 1.384 . S
C1148 H1139 0.929 . S
C1148 C1140 1.378 . S
C1148 C1143 1.350 . S
C1149 H1136 0.929 . S
C1149 C1141 1.433 . S
C1149 N1151 1.384 . S
N1150 C1146 1.427 . S
N1150 C1147 1.384 . S
N1151 C1143 1.427 . S
N1151 C1149 1.384 . S
H1152 C1158 0.930 . S
H1153 C1162 0.930 . S
H1154 C1167 0.929 . S
H1155 C1165 0.929 . S
H1156 C1160 0.929 . S
H1157 C1166 0.929 . S
C1158 H1152 0.930 . S
C1158 C1159 1.367 . S
C1158 C1166 1.378 . S
C1159 C1158 1.367 . S
C1159 C1167 1.433 . S
C1160 H1156 0.929 . S
C1160 C1162 1.378 . S
C1160 C1164 1.350 . S
C1161 C1164 1.463 1_655 S
C1161 C1166 1.350 . S
C1161 N1169 1.427 . S
C1162 H1153 0.930 . S
C1162 C1160 1.378 . S
C1162 C1163 1.367 . S
C1163 C1162 1.367 . S
C1163 C1165 1.433 . S
C1164 C1160 1.350 . S
C1164 C1161 1.463 1_455 S
C1164 N1168 1.427 . S
C1165 H1155 0.929 . S
C1165 C1163 1.433 . S
C1165 N1168 1.384 . S
C1166 H1157 0.929 . S
C1166 C1158 1.378 . S
C1166 C1161 1.350 . S
C1167 H1154 0.929 . S
C1167 C1159 1.433 . S
C1167 N1169 1.384 . S
N1168 C1164 1.427 . S
N1168 C1165 1.384 . S
N1169 C1161 1.427 . S
N1169 C1167 1.384 . S
H1170 C1176 0.930 . S
H1171 C1180 0.930 . S
H1172 C1185 0.929 . S
H1173 C1183 0.929 . S
H1174 C1178 0.929 . S
H1175 C1184 0.929 . S
C1176 H1170 0.930 . S
C1176 C1177 1.367 . S
C1176 C1184 1.378 . S
C1177 C1176 1.367 . S
C1177 C1185 1.433 . S
C1178 H1174 0.929 . S
C1178 C1180 1.378 . S
C1178 C1182 1.350 . S
C1179 C1182 1.463 . S
C1179 C1184 1.350 . S
C1179 N1187 1.427 . S
C1180 H1171 0.930 . S
C1180 C1178 1.378 . S
C1180 C1181 1.367 . S
C1181 C1180 1.367 . S
C1181 C1183 1.433 . S
C1182 C1178 1.350 . S
C1182 C1179 1.463 . S
C1182 N1186 1.427 . S
C1183 H1173 0.929 . S
C1183 C1181 1.433 . S
C1183 N1186 1.384 . S
C1184 H1175 0.929 . S
C1184 C1176 1.378 . S
C1184 C1179 1.350 . S
C1185 H1172 0.929 . S
C1185 C1177 1.433 . S
C1185 N1187 1.384 . S
N1186 C1182 1.427 . S
N1186 C1183 1.384 . S
N1187 C1179 1.427 . S
N1187 C1185 1.384 . S
H1188 C1194 0.930 . S
H1189 C1198 0.930 . S
H1190 C1203 0.929 . S
H1191 C1201 0.929 . S
H1192 C1196 0.929 . S
H1193 C1202 0.929 . S
C1194 H1188 0.930 . S
C1194 C1195 1.367 . S
C1194 C1202 1.378 . S
C1195 C1194 1.367 . S
C1195 C1203 1.433 . S
C1196 H1192 0.929 . S
C1196 C1198 1.378 . S
C1196 C1200 1.350 . S
C1197 C1200 1.463 1_545 S
C1197 C1202 1.350 . S
C1197 N1205 1.427 . S
C1198 H1189 0.930 . S
C1198 C1196 1.378 . S
C1198 C1199 1.367 . S
C1199 C1198 1.367 . S
C1199 C1201 1.433 . S
C1200 C1196 1.350 . S
C1200 C1197 1.463 1_565 S
C1200 N1204 1.427 . S
C1201 H1191 0.929 . S
C1201 C1199 1.433 . S
C1201 N1204 1.384 . S
C1202 H1193 0.929 . S
C1202 C1194 1.378 . S
C1202 C1197 1.350 . S
C1203 H1190 0.929 . S
C1203 C1195 1.433 . S
C1203 N1205 1.384 . S
N1204 C1200 1.427 . S
N1204 C1201 1.384 . S
N1205 C1197 1.427 . S
N1205 C1203 1.384 . S
H1206 C1212 0.930 . S
H1207 C1216 0.930 . S
H1208 C1221 0.929 . S
H1209 C1219 0.929 . S
H1210 C1214 0.929 . S
H1211 C1220 0.929 . S
C1212 H1206 0.930 . S
C1212 C1213 1.367 . S
C1212 C1220 1.378 . S
C1213 C1212 1.367 . S
C1213 C1221 1.433 . S
C1214 H1210 0.929 . S
C1214 C1216 1.378 . S
C1214 C1218 1.350 . S
C1215 C1218 1.463 1_655 S
C1215 C1220 1.350 . S
C1215 N1223 1.427 . S
C1216 H1207 0.930 . S
C1216 C1214 1.378 . S
C1216 C1217 1.367 . S
C1217 C1216 1.367 . S
C1217 C1219 1.433 . S
C1218 C1214 1.350 . S
C1218 C1215 1.463 1_455 S
C1218 N1222 1.427 . S
C1219 H1209 0.929 . S
C1219 C1217 1.433 . S
C1219 N1222 1.384 . S
C1220 H1211 0.929 . S
C1220 C1212 1.378 . S
C1220 C1215 1.350 . S
C1221 H1208 0.929 . S
C1221 C1213 1.433 . S
C1221 N1223 1.384 . S
N1222 C1218 1.427 . S
N1222 C1219 1.384 . S
N1223 C1215 1.427 . S
N1223 C1221 1.384 . S
H1224 C1230 0.930 . S
H1225 C1234 0.930 . S
H1226 C1239 0.929 . S
H1227 C1237 0.929 . S
H1228 C1232 0.929 . S
H1229 C1238 0.929 . S
C1230 H1224 0.930 . S
C1230 C1231 1.367 . S
C1230 C1238 1.378 . S
C1231 C1230 1.367 . S
C1231 C1239 1.433 . S
C1232 H1228 0.929 . S
C1232 C1234 1.378 . S
C1232 C1236 1.350 . S
C1233 C1236 1.463 . S
C1233 C1238 1.350 . S
C1233 N1241 1.427 . S
C1234 H1225 0.930 . S
C1234 C1232 1.378 . S
C1234 C1235 1.367 . S
C1235 C1234 1.367 . S
C1235 C1237 1.433 . S
C1236 C1232 1.350 . S
C1236 C1233 1.463 . S
C1236 N1240 1.427 . S
C1237 H1227 0.929 . S
C1237 C1235 1.433 . S
C1237 N1240 1.384 . S
C1238 H1229 0.929 . S
C1238 C1230 1.378 . S
C1238 C1233 1.350 . S
C1239 H1226 0.929 . S
C1239 C1231 1.433 . S
C1239 N1241 1.384 . S
N1240 C1236 1.427 . S
N1240 C1237 1.384 . S
N1241 C1233 1.427 . S
N1241 C1239 1.384 . S
H1242 C1248 0.930 . S
H1243 C1252 0.930 . S
H1244 C1257 0.929 . S
H1245 C1255 0.929 . S
H1246 C1250 0.929 . S
H1247 C1256 0.929 . S
C1248 H1242 0.930 . S
C1248 C1249 1.367 . S
C1248 C1256 1.378 . S
C1249 C1248 1.367 . S
C1249 C1257 1.433 . S
C1250 H1246 0.929 . S
C1250 C1252 1.378 . S
C1250 C1254 1.350 . S
C1251 C1254 1.463 . S
C1251 C1256 1.350 . S
C1251 N1259 1.427 . S
C1252 H1243 0.930 . S
C1252 C1250 1.378 . S
C1252 C1253 1.367 . S
C1253 C1252 1.367 . S
C1253 C1255 1.433 . S
C1254 C1250 1.350 . S
C1254 C1251 1.463 . S
C1254 N1258 1.427 . S
C1255 H1245 0.929 . S
C1255 C1253 1.433 . S
C1255 N1258 1.384 . S
C1256 H1247 0.929 . S
C1256 C1248 1.378 . S
C1256 C1251 1.350 . S
C1257 H1244 0.929 . S
C1257 C1249 1.433 . S
C1257 N1259 1.384 . S
N1258 C1254 1.427 . S
N1258 C1255 1.384 . S
N1259 C1251 1.427 . S
N1259 C1257 1.384 . S
H1260 C1266 0.930 . S
H1261 C1270 0.930 . S
H1262 C1275 0.929 . S
H1263 C1273 0.929 . S
H1264 C1268 0.929 . S
H1265 C1274 0.929 . S
C1266 H1260 0.930 . S
C1266 C1267 1.367 . S
C1266 C1274 1.378 . S
C1267 C1266 1.367 . S
C1267 C1275 1.433 . S
C1268 H1264 0.929 . S
C1268 C1270 1.378 . S
C1268 C1272 1.350 . S
C1269 C1272 1.463 . S
C1269 C1274 1.350 . S
C1269 N1277 1.427 . S
C1270 H1261 0.930 . S
C1270 C1268 1.378 . S
C1270 C1271 1.367 . S
C1271 C1270 1.367 . S
C1271 C1273 1.433 . S
C1272 C1268 1.350 . S
C1272 C1269 1.463 . S
C1272 N1276 1.427 . S
C1273 H1263 0.929 . S
C1273 C1271 1.433 . S
C1273 N1276 1.384 . S
C1274 H1265 0.929 . S
C1274 C1266 1.378 . S
C1274 C1269 1.350 . S
C1275 H1262 0.929 . S
C1275 C1267 1.433 . S
C1275 N1277 1.384 . S
N1276 C1272 1.427 . S
N1276 C1273 1.384 . S
N1277 C1269 1.427 . S
N1277 C1275 1.384 . S
H1278 C1284 0.930 . S
H1279 C1288 0.930 1_556 S
H1280 C1293 0.929 . S
H1281 C1291 0.929 . S
H1282 C1286 0.929 . S
H1283 C1292 0.929 . S
C1284 H1278 0.930 . S
C1284 C1285 1.367 . S
C1284 C1292 1.378 . S
C1285 C1284 1.367 . S
C1285 C1293 1.433 . S
C1286 H1282 0.929 . S
C1286 C1288 1.378 . S
C1286 C1290 1.350 . S
C1287 C1290 1.463 . S
C1287 C1292 1.350 . S
C1287 N1295 1.427 . S
C1288 H1279 0.930 1_554 S
C1288 C1286 1.378 . S
C1288 C1289 1.367 . S
C1289 C1288 1.367 . S
C1289 C1291 1.433 . S
C1290 C1286 1.350 . S
C1290 C1287 1.463 . S
C1290 N1294 1.427 . S
C1291 H1281 0.929 . S
C1291 C1289 1.433 . S
C1291 N1294 1.384 . S
C1292 H1283 0.929 . S
C1292 C1284 1.378 . S
C1292 C1287 1.350 . S
C1293 H1280 0.929 . S
C1293 C1285 1.433 . S
C1293 N1295 1.384 . S
N1294 C1290 1.427 . S
N1294 C1291 1.384 . S
N1295 C1287 1.427 . S
N1295 C1293 1.384 . S
H1296 C1302 0.930 . S
H1297 C1306 0.930 . S
H1298 C1311 0.929 1_556 S
H1299 C1309 0.929 . S
H1300 C1304 0.929 . S
H1301 C1310 0.929 . S
C1302 H1296 0.930 . S
C1302 C1303 1.367 . S
C1302 C1310 1.378 . S
C1303 C1302 1.367 . S
C1303 C1311 1.433 . S
C1304 H1300 0.929 . S
C1304 C1306 1.378 . S
C1304 C1308 1.350 . S
C1305 C1308 1.463 . S
C1305 C1310 1.350 . S
C1305 N1313 1.427 . S
C1306 H1297 0.930 . S
C1306 C1304 1.378 . S
C1306 C1307 1.367 . S
C1307 C1306 1.367 . S
C1307 C1309 1.433 . S
C1308 C1304 1.350 . S
C1308 C1305 1.463 . S
C1308 N1312 1.427 . S
C1309 H1299 0.929 . S
C1309 C1307 1.433 . S
C1309 N1312 1.384 . S
C1310 H1301 0.929 . S
C1310 C1302 1.378 . S
C1310 C1305 1.350 . S
C1311 H1298 0.929 1_554 S
C1311 C1303 1.433 . S
C1311 N1313 1.384 . S
N1312 C1308 1.427 . S
N1312 C1309 1.384 . S
N1313 C1305 1.427 . S
N1313 C1311 1.384 . S
H1314 C1320 0.930 . S
H1315 C1324 0.930 . S
H1316 C1329 0.929 . S
H1317 C1327 0.929 . S
H1318 C1322 0.929 . S
H1319 C1328 0.929 . S
C1320 H1314 0.930 . S
C1320 C1321 1.367 . S
C1320 C1328 1.378 . S
C1321 C1320 1.367 . S
C1321 C1329 1.433 . S
C1322 H1318 0.929 . S
C1322 C1324 1.378 . S
C1322 C1326 1.350 . S
C1323 C1326 1.463 . S
C1323 C1328 1.350 . S
C1323 N1331 1.427 . S
C1324 H1315 0.930 . S
C1324 C1322 1.378 . S
C1324 C1325 1.367 . S
C1325 C1324 1.367 . S
C1325 C1327 1.433 . S
C1326 C1322 1.350 . S
C1326 C1323 1.463 . S
C1326 N1330 1.427 . S
C1327 H1317 0.929 . S
C1327 C1325 1.433 . S
C1327 N1330 1.384 . S
C1328 H1319 0.929 . S
C1328 C1320 1.378 . S
C1328 C1323 1.350 . S
C1329 H1316 0.929 . S
C1329 C1321 1.433 . S
C1329 N1331 1.384 . S
N1330 C1326 1.427 . S
N1330 C1327 1.384 . S
N1331 C1323 1.427 . S
N1331 C1329 1.384 . S
H1332 C1338 0.930 . S
H1333 C1342 0.930 . S
H1334 C1347 0.929 . S
H1335 C1345 0.929 . S
H1336 C1340 0.929 . S
H1337 C1346 0.929 . S
C1338 H1332 0.930 . S
C1338 C1339 1.367 . S
C1338 C1346 1.378 . S
C1339 C1338 1.367 . S
C1339 C1347 1.433 . S
C1340 H1336 0.929 . S
C1340 C1342 1.378 . S
C1340 C1344 1.350 . S
C1341 C1344 1.463 . S
C1341 C1346 1.350 . S
C1341 N1349 1.427 . S
C1342 H1333 0.930 . S
C1342 C1340 1.378 . S
C1342 C1343 1.367 . S
C1343 C1342 1.367 . S
C1343 C1345 1.433 . S
C1344 C1340 1.350 . S
C1344 C1341 1.463 . S
C1344 N1348 1.427 . S
C1345 H1335 0.929 . S
C1345 C1343 1.433 . S
C1345 N1348 1.384 . S
C1346 H1337 0.929 . S
C1346 C1338 1.378 . S
C1346 C1341 1.350 . S
C1347 H1334 0.929 . S
C1347 C1339 1.433 . S
C1347 N1349 1.384 . S
N1348 C1344 1.427 . S
N1348 C1345 1.384 . S
N1349 C1341 1.427 . S
N1349 C1347 1.384 . S
H1350 C1356 0.930 . S
H1351 C1360 0.930 . S
H1352 C1365 0.929 . S
H1353 C1363 0.929 . S
H1354 C1358 0.929 . S
H1355 C1364 0.929 . S
C1356 H1350 0.930 . S
C1356 C1357 1.367 . S
C1356 C1364 1.378 . S
C1357 C1356 1.367 . S
C1357 C1365 1.433 . S
C1358 H1354 0.929 . S
C1358 C1360 1.378 . S
C1358 C1362 1.350 . S
C1359 C1362 1.463 . S
C1359 C1364 1.350 . S
C1359 N1367 1.427 . S
C1360 H1351 0.930 . S
C1360 C1358 1.378 . S
C1360 C1361 1.367 . S
C1361 C1360 1.367 . S
C1361 C1363 1.433 . S
C1362 C1358 1.350 . S
C1362 C1359 1.463 . S
C1362 N1366 1.427 . S
C1363 H1353 0.929 . S
C1363 C1361 1.433 . S
C1363 N1366 1.384 . S
C1364 H1355 0.929 . S
C1364 C1356 1.378 . S
C1364 C1359 1.350 . S
C1365 H1352 0.929 . S
C1365 C1357 1.433 . S
C1365 N1367 1.384 . S
N1366 C1362 1.427 . S
N1366 C1363 1.384 . S
N1367 C1359 1.427 . S
N1367 C1365 1.384 . S
H1368 C1374 0.930 . S
H1369 C1378 0.930 . S
H1370 C1383 0.929 . S
H1371 C1381 0.929 1_554 S
H1372 C1376 0.929 . S
H1373 C1382 0.929 . S
C1374 H1368 0.930 . S
C1374 C1375 1.367 . S
C1374 C1382 1.378 . S
C1375 C1374 1.367 . S
C1375 C1383 1.433 . S
C1376 H1372 0.929 . S
C1376 C1378 1.378 . S
C1376 C1380 1.350 . S
C1377 C1380 1.463 . S
C1377 C1382 1.350 . S
C1377 N1385 1.427 . S
C1378 H1369 0.930 . S
C1378 C1376 1.378 . S
C1378 C1379 1.367 . S
C1379 C1378 1.367 . S
C1379 C1381 1.433 . S
C1380 C1376 1.350 . S
C1380 C1377 1.463 . S
C1380 N1384 1.427 . S
C1381 H1371 0.929 1_556 S
C1381 C1379 1.433 . S
C1381 N1384 1.384 . S
C1382 H1373 0.929 . S
C1382 C1374 1.378 . S
C1382 C1377 1.350 . S
C1383 H1370 0.929 . S
C1383 C1375 1.433 . S
C1383 N1385 1.384 . S
N1384 C1380 1.427 . S
N1384 C1381 1.384 . S
N1385 C1377 1.427 . S
N1385 C1383 1.384 . S
H1386 C1392 0.930 . S
H1387 C1396 0.930 . S
H1388 C1401 0.929 . S
H1389 C1399 0.929 . S
H1390 C1394 0.929 . S
H1391 C1400 0.929 . S
C1392 H1386 0.930 . S
C1392 C1393 1.367 . S
C1392 C1400 1.378 . S
C1393 C1392 1.367 . S
C1393 C1401 1.433 . S
C1394 H1390 0.929 . S
C1394 C1396 1.378 . S
C1394 C1398 1.350 . S
C1395 C1398 1.463 . S
C1395 C1400 1.350 . S
C1395 N1403 1.427 . S
C1396 H1387 0.930 . S
C1396 C1394 1.378 . S
C1396 C1397 1.367 . S
C1397 C1396 1.367 . S
C1397 C1399 1.433 . S
C1398 C1394 1.350 . S
C1398 C1395 1.463 . S
C1398 N1402 1.427 . S
C1399 H1389 0.929 . S
C1399 C1397 1.433 . S
C1399 N1402 1.384 . S
C1400 H1391 0.929 . S
C1400 C1392 1.378 . S
C1400 C1395 1.350 . S
C1401 H1388 0.929 . S
C1401 C1393 1.433 . S
C1401 N1403 1.384 . S
N1402 C1398 1.427 . S
N1402 C1399 1.384 . S
N1403 C1395 1.427 . S
N1403 C1401 1.384 . S
H1404 C1410 0.930 . S
H1405 C1414 0.930 . S
H1406 C1419 0.929 . S
H1407 C1417 0.929 . S
H1408 C1412 0.929 . S
H1409 C1418 0.929 . S
C1410 H1404 0.930 . S
C1410 C1411 1.367 . S
C1410 C1418 1.378 . S
C1411 C1410 1.367 . S
C1411 C1419 1.433 . S
C1412 H1408 0.929 . S
C1412 C1414 1.378 . S
C1412 C1416 1.350 . S
C1413 C1416 1.463 . S
C1413 C1418 1.350 . S
C1413 N1421 1.427 . S
C1414 H1405 0.930 . S
C1414 C1412 1.378 . S
C1414 C1415 1.367 . S
C1415 C1414 1.367 . S
C1415 C1417 1.433 . S
C1416 C1412 1.350 . S
C1416 C1413 1.463 . S
C1416 N1420 1.427 . S
C1417 H1407 0.929 . S
C1417 C1415 1.433 . S
C1417 N1420 1.384 . S
C1418 H1409 0.929 . S
C1418 C1410 1.378 . S
C1418 C1413 1.350 . S
C1419 H1406 0.929 . S
C1419 C1411 1.433 . S
C1419 N1421 1.384 . S
N1420 C1416 1.427 . S
N1420 C1417 1.384 . S
N1421 C1413 1.427 . S
N1421 C1419 1.384 . S
H1422 C1428 0.930 . S
H1423 C1432 0.930 . S
H1424 C1437 0.929 . S
H1425 C1435 0.929 . S
H1426 C1430 0.929 . S
H1427 C1436 0.929 . S
C1428 H1422 0.930 . S
C1428 C1429 1.367 . S
C1428 C1436 1.378 . S
C1429 C1428 1.367 . S
C1429 C1437 1.433 . S
C1430 H1426 0.929 . S
C1430 C1432 1.378 . S
C1430 C1434 1.350 . S
C1431 C1434 1.463 . S
C1431 C1436 1.350 . S
C1431 N1439 1.427 . S
C1432 H1423 0.930 . S
C1432 C1430 1.378 . S
C1432 C1433 1.367 . S
C1433 C1432 1.367 . S
C1433 C1435 1.433 . S
C1434 C1430 1.350 . S
C1434 C1431 1.463 . S
C1434 N1438 1.427 . S
C1435 H1425 0.929 . S
C1435 C1433 1.433 . S
C1435 N1438 1.384 . S
C1436 H1427 0.929 . S
C1436 C1428 1.378 . S
C1436 C1431 1.350 . S
C1437 H1424 0.929 . S
C1437 C1429 1.433 . S
C1437 N1439 1.384 . S
N1438 C1434 1.427 . S
N1438 C1435 1.384 . S
N1439 C1431 1.427 . S
N1439 C1437 1.384 . S
H1440 C1446 0.930 . S
H1441 C1450 0.930 . S
H1442 C1455 0.929 . S
H1443 C1453 0.929 . S
H1444 C1448 0.929 . S
H1445 C1454 0.929 . S
C1446 H1440 0.930 . S
C1446 C1447 1.367 . S
C1446 C1454 1.378 . S
C1447 C1446 1.367 . S
C1447 C1455 1.433 . S
C1448 H1444 0.929 . S
C1448 C1450 1.378 . S
C1448 C1452 1.350 . S
C1449 C1452 1.463 . S
C1449 C1454 1.350 . S
C1449 N1457 1.427 . S
C1450 H1441 0.930 . S
C1450 C1448 1.378 . S
C1450 C1451 1.367 . S
C1451 C1450 1.367 . S
C1451 C1453 1.433 . S
C1452 C1448 1.350 . S
C1452 C1449 1.463 . S
C1452 N1456 1.427 . S
C1453 H1443 0.929 . S
C1453 C1451 1.433 . S
C1453 N1456 1.384 . S
C1454 H1445 0.929 . S
C1454 C1446 1.378 . S
C1454 C1449 1.350 . S
C1455 H1442 0.929 . S
C1455 C1447 1.433 . S
C1455 N1457 1.384 . S
N1456 C1452 1.427 . S
N1456 C1453 1.384 . S
N1457 C1449 1.427 . S
N1457 C1455 1.384 . S
H1458 C1464 0.930 . S
H1459 C1468 0.930 . S
H1460 C1473 0.929 . S
H1461 C1471 0.929 . S
H1462 C1466 0.929 . S
H1463 C1472 0.929 . S
C1464 H1458 0.930 . S
C1464 C1465 1.367 . S
C1464 C1472 1.378 . S
C1465 C1464 1.367 . S
C1465 C1473 1.433 . S
C1466 H1462 0.929 . S
C1466 C1468 1.378 . S
C1466 C1470 1.350 . S
C1467 C1470 1.463 . S
C1467 C1472 1.350 . S
C1467 N1475 1.427 . S
C1468 H1459 0.930 . S
C1468 C1466 1.378 . S
C1468 C1469 1.367 . S
C1469 C1468 1.367 . S
C1469 C1471 1.433 . S
C1470 C1466 1.350 . S
C1470 C1467 1.463 . S
C1470 N1474 1.427 . S
C1471 H1461 0.929 . S
C1471 C1469 1.433 . S
C1471 N1474 1.384 . S
C1472 H1463 0.929 . S
C1472 C1464 1.378 . S
C1472 C1467 1.350 . S
C1473 H1460 0.929 . S
C1473 C1465 1.433 . S
C1473 N1475 1.384 . S
N1474 C1470 1.427 . S
N1474 C1471 1.384 . S
N1475 C1467 1.427 . S
N1475 C1473 1.384 . S
H1476 C1482 0.930 . S
H1477 C1486 0.930 . S
H1478 C1491 0.929 . S
H1479 C1489 0.929 . S
H1480 C1484 0.929 . S
H1481 C1490 0.929 . S
C1482 H1476 0.930 . S
C1482 C1483 1.367 . S
C1482 C1490 1.378 . S
C1483 C1482 1.367 . S
C1483 C1491 1.433 . S
C1484 H1480 0.929 . S
C1484 C1486 1.378 . S
C1484 C1488 1.350 . S
C1485 C1488 1.463 . S
C1485 C1490 1.350 . S
C1485 N1493 1.427 . S
C1486 H1477 0.930 . S
C1486 C1484 1.378 . S
C1486 C1487 1.367 . S
C1487 C1486 1.367 . S
C1487 C1489 1.433 . S
C1488 C1484 1.350 . S
C1488 C1485 1.463 . S
C1488 N1492 1.427 . S
C1489 H1479 0.929 . S
C1489 C1487 1.433 . S
C1489 N1492 1.384 . S
C1490 H1481 0.929 . S
C1490 C1482 1.378 . S
C1490 C1485 1.350 . S
C1491 H1478 0.929 . S
C1491 C1483 1.433 . S
C1491 N1493 1.384 . S
N1492 C1488 1.427 . S
N1492 C1489 1.384 . S
N1493 C1485 1.427 . S
N1493 C1491 1.384 . S
H1494 C1500 0.930 . S
H1495 C1504 0.930 . S
H1496 C1509 0.929 . S
H1497 C1507 0.929 . S
H1498 C1502 0.929 . S
H1499 C1508 0.929 . S
C1500 H1494 0.930 . S
C1500 C1501 1.367 . S
C1500 C1508 1.378 . S
C1501 C1500 1.367 . S
C1501 C1509 1.433 . S
C1502 H1498 0.929 . S
C1502 C1504 1.378 . S
C1502 C1506 1.350 . S
C1503 C1506 1.463 . S
C1503 C1508 1.350 . S
C1503 N1511 1.427 . S
C1504 H1495 0.930 . S
C1504 C1502 1.378 . S
C1504 C1505 1.367 . S
C1505 C1504 1.367 . S
C1505 C1507 1.433 . S
C1506 C1502 1.350 . S
C1506 C1503 1.463 . S
C1506 N1510 1.427 . S
C1507 H1497 0.929 . S
C1507 C1505 1.433 . S
C1507 N1510 1.384 . S
C1508 H1499 0.929 . S
C1508 C1500 1.378 . S
C1508 C1503 1.350 . S
C1509 H1496 0.929 . S
C1509 C1501 1.433 . S
C1509 N1511 1.384 . S
N1510 C1506 1.427 . S
N1510 C1507 1.384 . S
N1511 C1503 1.427 . S
N1511 C1509 1.384 . S
H1512 C1518 0.930 . S
H1513 C1522 0.930 . S
H1514 C1527 0.929 . S
H1515 C1525 0.929 . S
H1516 C1520 0.929 . S
H1517 C1526 0.929 . S
C1518 H1512 0.930 . S
C1518 C1519 1.367 . S
C1518 C1526 1.378 . S
C1519 C1518 1.367 . S
C1519 C1527 1.433 . S
C1520 H1516 0.929 . S
C1520 C1522 1.378 . S
C1520 C1524 1.350 . S
C1521 C1524 1.463 . S
C1521 C1526 1.350 . S
C1521 N1529 1.427 . S
C1522 H1513 0.930 . S
C1522 C1520 1.378 . S
C1522 C1523 1.367 . S
C1523 C1522 1.367 . S
C1523 C1525 1.433 . S
C1524 C1520 1.350 . S
C1524 C1521 1.463 . S
C1524 N1528 1.427 . S
C1525 H1515 0.929 . S
C1525 C1523 1.433 . S
C1525 N1528 1.384 . S
C1526 H1517 0.929 . S
C1526 C1518 1.378 . S
C1526 C1521 1.350 . S
C1527 H1514 0.929 . S
C1527 C1519 1.433 . S
C1527 N1529 1.384 . S
N1528 C1524 1.427 . S
N1528 C1525 1.384 . S
N1529 C1521 1.427 . S
N1529 C1527 1.384 . S
H1530 C1536 0.930 . S
H1531 C1540 0.930 . S
H1532 C1545 0.929 . S
H1533 C1543 0.929 . S
H1534 C1538 0.929 . S
H1535 C1544 0.929 . S
C1536 H1530 0.930 . S
C1536 C1537 1.367 . S
C1536 C1544 1.378 . S
C1537 C1536 1.367 . S
C1537 C1545 1.433 . S
C1538 H1534 0.929 . S
C1538 C1540 1.378 . S
C1538 C1542 1.350 . S
C1539 C1542 1.463 . S
C1539 C1544 1.350 . S
C1539 N1547 1.427 . S
C1540 H1531 0.930 . S
C1540 C1538 1.378 . S
C1540 C1541 1.367 . S
C1541 C1540 1.367 . S
C1541 C1543 1.433 . S
C1542 C1538 1.350 . S
C1542 C1539 1.463 . S
C1542 N1546 1.427 . S
C1543 H1533 0.929 . S
C1543 C1541 1.433 . S
C1543 N1546 1.384 . S
C1544 H1535 0.929 . S
C1544 C1536 1.378 . S
C1544 C1539 1.350 . S
C1545 H1532 0.929 . S
C1545 C1537 1.433 . S
C1545 N1547 1.384 . S
N1546 C1542 1.427 . S
N1546 C1543 1.384 . S
N1547 C1539 1.427 . S
N1547 C1545 1.384 . S
H1548 C1554 0.930 . S
H1549 C1558 0.930 . S
H1550 C1563 0.929 . S
H1551 C1561 0.929 . S
H1552 C1556 0.929 . S
H1553 C1562 0.929 . S
C1554 H1548 0.930 . S
C1554 C1555 1.367 . S
C1554 C1562 1.378 . S
C1555 C1554 1.367 . S
C1555 C1563 1.433 . S
C1556 H1552 0.929 . S
C1556 C1558 1.378 . S
C1556 C1560 1.350 . S
C1557 C1560 1.463 . S
C1557 C1562 1.350 . S
C1557 N1565 1.427 . S
C1558 H1549 0.930 . S
C1558 C1556 1.378 . S
C1558 C1559 1.367 . S
C1559 C1558 1.367 . S
C1559 C1561 1.433 . S
C1560 C1556 1.350 . S
C1560 C1557 1.463 . S
C1560 N1564 1.427 . S
C1561 H1551 0.929 . S
C1561 C1559 1.433 . S
C1561 N1564 1.384 . S
C1562 H1553 0.929 . S
C1562 C1554 1.378 . S
C1562 C1557 1.350 . S
C1563 H1550 0.929 . S
C1563 C1555 1.433 . S
C1563 N1565 1.384 . S
N1564 C1560 1.427 . S
N1564 C1561 1.384 . S
N1565 C1557 1.427 . S
N1565 C1563 1.384 . S
H1566 C1572 0.930 . S
H1567 C1576 0.930 . S
H1568 C1581 0.929 . S
H1569 C1579 0.929 . S
H1570 C1574 0.929 . S
H1571 C1580 0.929 . S
C1572 H1566 0.930 . S
C1572 C1573 1.367 . S
C1572 C1580 1.378 . S
C1573 C1572 1.367 . S
C1573 C1581 1.433 . S
C1574 H1570 0.929 . S
C1574 C1576 1.378 . S
C1574 C1578 1.350 . S
C1575 C1578 1.463 . S
C1575 C1580 1.350 . S
C1575 N1583 1.427 . S
C1576 H1567 0.930 . S
C1576 C1574 1.378 . S
C1576 C1577 1.367 . S
C1577 C1576 1.367 . S
C1577 C1579 1.433 . S
C1578 C1574 1.350 . S
C1578 C1575 1.463 . S
C1578 N1582 1.427 . S
C1579 H1569 0.929 . S
C1579 C1577 1.433 . S
C1579 N1582 1.384 . S
C1580 H1571 0.929 . S
C1580 C1572 1.378 . S
C1580 C1575 1.350 . S
C1581 H1568 0.929 . S
C1581 C1573 1.433 . S
C1581 N1583 1.384 . S
N1582 C1578 1.427 . S
N1582 C1579 1.384 . S
N1583 C1575 1.427 . S
N1583 C1581 1.384 . S
H1584 C1590 0.930 . S
H1585 C1594 0.930 . S
H1586 C1599 0.929 . S
H1587 C1597 0.929 . S
H1588 C1592 0.929 . S
H1589 C1598 0.929 . S
C1590 H1584 0.930 . S
C1590 C1591 1.367 . S
C1590 C1598 1.378 . S
C1591 C1590 1.367 . S
C1591 C1599 1.433 . S
C1592 H1588 0.929 . S
C1592 C1594 1.378 . S
C1592 C1596 1.350 . S
C1593 C1596 1.463 . S
C1593 C1598 1.350 . S
C1593 N1601 1.427 . S
C1594 H1585 0.930 . S
C1594 C1592 1.378 . S
C1594 C1595 1.367 . S
C1595 C1594 1.367 . S
C1595 C1597 1.433 . S
C1596 C1592 1.350 . S
C1596 C1593 1.463 . S
C1596 N1600 1.427 . S
C1597 H1587 0.929 . S
C1597 C1595 1.433 . S
C1597 N1600 1.384 . S
C1598 H1589 0.929 . S
C1598 C1590 1.378 . S
C1598 C1593 1.350 . S
C1599 H1586 0.929 . S
C1599 C1591 1.433 . S
C1599 N1601 1.384 . S
N1600 C1596 1.427 . S
N1600 C1597 1.384 . S
N1601 C1593 1.427 . S
N1601 C1599 1.384 . S
H1602 C1608 0.930 . S
H1603 C1612 0.930 . S
H1604 C1617 0.929 . S
H1605 C1615 0.929 . S
H1606 C1610 0.929 . S
H1607 C1616 0.929 . S
C1608 H1602 0.930 . S
C1608 C1609 1.367 . S
C1608 C1616 1.378 . S
C1609 C1608 1.367 . S
C1609 C1617 1.433 . S
C1610 H1606 0.929 . S
C1610 C1612 1.378 . S
C1610 C1614 1.350 . S
C1611 C1614 1.463 . S
C1611 C1616 1.350 . S
C1611 N1619 1.427 . S
C1612 H1603 0.930 . S
C1612 C1610 1.378 . S
C1612 C1613 1.367 . S
C1613 C1612 1.367 . S
C1613 C1615 1.433 . S
C1614 C1610 1.350 . S
C1614 C1611 1.463 . S
C1614 N1618 1.427 . S
C1615 H1605 0.929 . S
C1615 C1613 1.433 . S
C1615 N1618 1.384 . S
C1616 H1607 0.929 . S
C1616 C1608 1.378 . S
C1616 C1611 1.350 . S
C1617 H1604 0.929 . S
C1617 C1609 1.433 . S
C1617 N1619 1.384 . S
N1618 C1614 1.427 . S
N1618 C1615 1.384 . S
N1619 C1611 1.427 . S
N1619 C1617 1.384 . S
H1620 C1626 0.930 . S
H1621 C1630 0.930 . S
H1622 C1635 0.929 . S
H1623 C1633 0.929 . S
H1624 C1628 0.929 . S
H1625 C1634 0.929 . S
C1626 H1620 0.930 . S
C1626 C1627 1.367 . S
C1626 C1634 1.378 . S
C1627 C1626 1.367 . S
C1627 C1635 1.433 . S
C1628 H1624 0.929 . S
C1628 C1630 1.378 . S
C1628 C1632 1.350 . S
C1629 C1632 1.463 . S
C1629 C1634 1.350 . S
C1629 N1637 1.427 . S
C1630 H1621 0.930 . S
C1630 C1628 1.378 . S
C1630 C1631 1.367 . S
C1631 C1630 1.367 . S
C1631 C1633 1.433 . S
C1632 C1628 1.350 . S
C1632 C1629 1.463 . S
C1632 N1636 1.427 . S
C1633 H1623 0.929 . S
C1633 C1631 1.433 . S
C1633 N1636 1.384 . S
C1634 H1625 0.929 . S
C1634 C1626 1.378 . S
C1634 C1629 1.350 . S
C1635 H1622 0.929 . S
C1635 C1627 1.433 . S
C1635 N1637 1.384 . S
N1636 C1632 1.427 . S
N1636 C1633 1.384 . S
N1637 C1629 1.427 . S
N1637 C1635 1.384 . S
H1638 C1644 0.930 . S
H1639 C1648 0.930 . S
H1640 C1653 0.929 . S
H1641 C1651 0.929 . S
H1642 C1646 0.929 . S
H1643 C1652 0.929 . S
C1644 H1638 0.930 . S
C1644 C1645 1.367 . S
C1644 C1652 1.378 . S
C1645 C1644 1.367 . S
C1645 C1653 1.433 . S
C1646 H1642 0.929 . S
C1646 C1648 1.378 . S
C1646 C1650 1.350 . S
C1647 C1650 1.463 . S
C1647 C1652 1.350 . S
C1647 N1655 1.427 . S
C1648 H1639 0.930 . S
C1648 C1646 1.378 . S
C1648 C1649 1.367 . S
C1649 C1648 1.367 . S
C1649 C1651 1.433 . S
C1650 C1646 1.350 . S
C1650 C1647 1.463 . S
C1650 N1654 1.427 . S
C1651 H1641 0.929 . S
C1651 C1649 1.433 . S
C1651 N1654 1.384 . S
C1652 H1643 0.929 . S
C1652 C1644 1.378 . S
C1652 C1647 1.350 . S
C1653 H1640 0.929 . S
C1653 C1645 1.433 . S
C1653 N1655 1.384 . S
N1654 C1650 1.427 . S
N1654 C1651 1.384 . S
N1655 C1647 1.427 . S
N1655 C1653 1.384 . S
H1656 C1662 0.930 . S
H1657 C1666 0.930 . S
H1658 C1671 0.929 . S
H1659 C1669 0.929 . S
H1660 C1664 0.929 1_455 S
H1661 C1670 0.929 1_655 S
C1662 H1656 0.930 . S
C1662 C1663 1.367 . S
C1662 C1670 1.378 . S
C1663 C1662 1.367 . S
C1663 C1671 1.433 . S
C1664 H1660 0.929 1_655 S
C1664 C1666 1.378 . S
C1664 C1668 1.350 . S
C1665 C1668 1.463 1_455 S
C1665 C1670 1.350 . S
C1665 N1673 1.427 . S
C1666 H1657 0.930 . S
C1666 C1664 1.378 . S
C1666 C1667 1.367 . S
C1667 C1666 1.367 . S
C1667 C1669 1.433 . S
C1668 C1664 1.350 . S
C1668 C1665 1.463 1_655 S
C1668 N1672 1.427 . S
C1669 H1659 0.929 . S
C1669 C1667 1.433 . S
C1669 N1672 1.384 . S
C1670 H1661 0.929 1_455 S
C1670 C1662 1.378 . S
C1670 C1665 1.350 . S
C1671 H1658 0.929 . S
C1671 C1663 1.433 . S
C1671 N1673 1.384 . S
N1672 C1668 1.427 . S
N1672 C1669 1.384 . S
N1673 C1665 1.427 . S
N1673 C1671 1.384 . S
H1674 C1680 0.930 . S
H1675 C1684 0.930 . S
H1676 C1689 0.929 . S
H1677 C1687 0.929 . S
H1678 C1682 0.929 . S
H1679 C1688 0.929 . S
C1680 H1674 0.930 . S
C1680 C1681 1.367 . S
C1680 C1688 1.378 . S
C1681 C1680 1.367 . S
C1681 C1689 1.433 . S
C1682 H1678 0.929 . S
C1682 C1684 1.378 . S
C1682 C1686 1.350 . S
C1683 C1686 1.463 . S
C1683 C1688 1.350 . S
C1683 N1691 1.427 . S
C1684 H1675 0.930 . S
C1684 C1682 1.378 . S
C1684 C1685 1.367 . S
C1685 C1684 1.367 . S
C1685 C1687 1.433 . S
C1686 C1682 1.350 . S
C1686 C1683 1.463 . S
C1686 N1690 1.427 . S
C1687 H1677 0.929 . S
C1687 C1685 1.433 . S
C1687 N1690 1.384 . S
C1688 H1679 0.929 . S
C1688 C1680 1.378 . S
C1688 C1683 1.350 . S
C1689 H1676 0.929 . S
C1689 C1681 1.433 . S
C1689 N1691 1.384 . S
N1690 C1686 1.427 . S
N1690 C1687 1.384 . S
N1691 C1683 1.427 . S
N1691 C1689 1.384 . S
H1692 C1698 0.930 . S
H1693 C1702 0.930 . S
H1694 C1707 0.929 . S
H1695 C1705 0.929 . S
H1696 C1700 0.929 . S
H1697 C1706 0.929 . S
C1698 H1692 0.930 . S
C1698 C1699 1.367 . S
C1698 C1706 1.378 . S
C1699 C1698 1.367 . S
C1699 C1707 1.433 . S
C1700 H1696 0.929 . S
C1700 C1702 1.378 . S
C1700 C1704 1.350 . S
C1701 C1704 1.463 1_545 S
C1701 C1706 1.350 . S
C1701 N1709 1.427 . S
C1702 H1693 0.930 . S
C1702 C1700 1.378 . S
C1702 C1703 1.367 . S
C1703 C1702 1.367 . S
C1703 C1705 1.433 . S
C1704 C1700 1.350 . S
C1704 C1701 1.463 1_565 S
C1704 N1708 1.427 . S
C1705 H1695 0.929 . S
C1705 C1703 1.433 . S
C1705 N1708 1.384 . S
C1706 H1697 0.929 . S
C1706 C1698 1.378 . S
C1706 C1701 1.350 . S
C1707 H1694 0.929 . S
C1707 C1699 1.433 . S
C1707 N1709 1.384 . S
N1708 C1704 1.427 . S
N1708 C1705 1.384 . S
N1709 C1701 1.427 . S
N1709 C1707 1.384 . S
H1710 C1716 0.930 . S
H1711 C1720 0.930 . S
H1712 C1725 0.929 . S
H1713 C1723 0.929 . S
H1714 C1718 0.929 . S
H1715 C1724 0.929 . S
C1716 H1710 0.930 . S
C1716 C1717 1.367 . S
C1716 C1724 1.378 . S
C1717 C1716 1.367 . S
C1717 C1725 1.433 1_554 S
C1718 H1714 0.929 . S
C1718 C1720 1.378 . S
C1718 C1722 1.350 . S
C1719 C1722 1.463 1_544 S
C1719 C1724 1.350 . S
C1719 N1727 1.427 1_554 S
C1720 H1711 0.930 . S
C1720 C1718 1.378 . S
C1720 C1721 1.367 . S
C1721 C1720 1.367 . S
C1721 C1723 1.433 1_556 S
C1722 C1718 1.350 . S
C1722 C1719 1.463 1_566 S
C1722 N1726 1.427 1_556 S
C1723 H1713 0.929 . S
C1723 C1721 1.433 1_554 S
C1723 N1726 1.384 . S
C1724 H1715 0.929 . S
C1724 C1716 1.378 . S
C1724 C1719 1.350 . S
C1725 H1712 0.929 . S
C1725 C1717 1.433 1_556 S
C1725 N1727 1.384 . S
N1726 C1722 1.427 1_554 S
N1726 C1723 1.384 . S
N1727 C1719 1.427 1_556 S
N1727 C1725 1.384 . S
H1728 C1734 0.930 . S
H1729 C1738 0.930 . S
H1730 C1743 0.929 . S
H1731 C1741 0.929 . S
H1732 C1736 0.929 . S
H1733 C1742 0.929 . S
C1734 H1728 0.930 . S
C1734 C1735 1.367 1_556 S
C1734 C1742 1.378 . S
C1735 C1734 1.367 1_554 S
C1735 C1743 1.433 . S
C1736 H1732 0.929 . S
C1736 C1738 1.378 . S
C1736 C1740 1.350 1_554 S
C1737 C1740 1.463 1_654 S
C1737 C1742 1.350 1_554 S
C1737 N1745 1.427 . S
C1738 H1729 0.930 . S
C1738 C1736 1.378 . S
C1738 C1739 1.367 1_554 S
C1739 C1738 1.367 1_556 S
C1739 C1741 1.433 . S
C1740 C1736 1.350 1_556 S
C1740 C1737 1.463 1_456 S
C1740 N1744 1.427 . S
C1741 H1731 0.929 . S
C1741 C1739 1.433 . S
C1741 N1744 1.384 . S
C1742 H1733 0.929 . S
C1742 C1734 1.378 . S
C1742 C1737 1.350 1_556 S
C1743 H1730 0.929 . S
C1743 C1735 1.433 . S
C1743 N1745 1.384 . S
N1744 C1740 1.427 . S
N1744 C1741 1.384 . S
N1745 C1737 1.427 . S
N1745 C1743 1.384 . S
H1746 C1752 0.930 . S
H1747 C1756 0.930 . S
H1748 C1761 0.929 . S
H1749 C1759 0.929 . S
H1750 C1754 0.929 . S
H1751 C1760 0.929 . S
C1752 H1746 0.930 . S
C1752 C1753 1.367 . S
C1752 C1760 1.378 . S
C1753 C1752 1.367 . S
C1753 C1761 1.433 1_554 S
C1754 H1750 0.929 . S
C1754 C1756 1.378 . S
C1754 C1758 1.350 . S
C1755 C1758 1.463 1_554 S
C1755 C1760 1.350 . S
C1755 N1763 1.427 1_554 S
C1756 H1747 0.930 . S
C1756 C1754 1.378 . S
C1756 C1757 1.367 . S
C1757 C1756 1.367 . S
C1757 C1759 1.433 1_556 S
C1758 C1754 1.350 . S
C1758 C1755 1.463 1_556 S
C1758 N1762 1.427 1_556 S
C1759 H1749 0.929 . S
C1759 C1757 1.433 1_554 S
C1759 N1762 1.384 . S
C1760 H1751 0.929 . S
C1760 C1752 1.378 . S
C1760 C1755 1.350 . S
C1761 H1748 0.929 . S
C1761 C1753 1.433 1_556 S
C1761 N1763 1.384 . S
N1762 C1758 1.427 1_554 S
N1762 C1759 1.384 . S
N1763 C1755 1.427 1_556 S
N1763 C1761 1.384 . S
C475 C138 1.035 . S
C479 C10 1.071 . S
C493 C151 1.042 . S
C497 C23 1.064 . S
C511 C36 1.073 . S
C515 C125 1.017 . S
C529 C49 1.066 . S
C533 C112 1.041 . S
C547 C62 1.066 . S
C551 C86 1.024 . S
C565 C99 1.032 . S
C569 C75 1.073 . S
C583 C60 1.037 . S
C587 C88 1.062 . S
C601 C73 1.034 . S
C605 C101 1.071 . S
C619 C114 1.063 . S
C623 C47 1.034 . S
C637 C34 1.017 . S
C641 C127 1.070 . S
C655 C140 1.066 . S
C659 C8 1.042 . S
C673 C153 1.063 . S
C677 C21 1.039 . S
C691 C294 1.032 . S
C695 C166 1.063 . S
C709 C307 1.017 . S
C713 C179 1.073 . S
C727 C192 1.066 . S
C731 C281 1.042 . S
C745 C205 1.070 . S
C749 C268 1.017 . S
C763 C218 1.072 . S
C767 C242 1.033 . S
C781 C231 1.069 . S
C785 C255 1.039 . S
C799 C216 1.039 . S
C803 C244 1.063 . S
C817 C229 1.035 . S
C821 C257 1.071 . S
C835 C203 1.018 . S
C839 C270 1.069 . S
C853 C190 1.041 . S
C857 C283 1.063 . S
C871 C164 1.030 . S
C875 C296 1.073 . S
C889 C177 1.038 . S
C893 C309 1.062 . S
C907 C322 1.075 . S
C911 C450 1.021 . S
C925 C463 1.018 . S
C929 C335 1.069 . S
C943 C437 1.020 . S
C947 C348 1.067 . S
C961 C361 1.065 . S
C965 C424 1.042 . S
C979 C374 1.065 . S
C983 C398 1.026 . S
C997 C387 1.063 . S
C1001 C411 1.039 . S
C1015 C372 1.022 . S
C1019 C400 1.067 . S
C1033 C385 1.029 . S
C1037 C413 1.064 . S
C1051 C359 1.028 . S
C1055 C426 1.064 . S
C1069 C439 1.075 . S
C1073 C346 1.022 . S
C1087 C320 1.027 . S
C1091 C452 1.074 . S
C1105 C465 1.073 . S
C1109 C333 1.031 . S
C1123 C39 1.312 . S
C1127 C0 1.305 . S
C1141 C52 1.308 . S
C1145 C13 1.312 . S
C1159 C26 1.308 . S
C1163 C65 1.312 . S
C1177 C117 1.310 . S
C1181 C78 1.310 . S
C1195 C130 1.309 . S
C1199 C91 1.311 . S
C1213 C143 1.306 . S
C1217 C104 1.301 . S
C1231 C195 1.303 . S
C1235 C156 1.312 . S
C1249 C208 1.301 . S
C1253 C169 1.305 . S
C1267 C182 1.300 . S
C1271 C221 1.309 . S
C1285 C234 1.301 . S
C1289 C273 1.304 . S
C1303 C286 1.308 . S
C1307 C247 1.312 . S
C1321 C260 1.308 . S
C1325 C299 1.301 . S
C1339 C351 1.308 . S
C1343 C312 1.300 . S
C1357 C364 1.301 . S
C1361 C325 1.310 . S
C1375 C338 1.311 . S
C1379 C377 1.308 . S
C1393 C390 1.302 . S
C1397 C429 1.310 . S
C1411 C403 1.305 . S
C1415 C442 1.312 . S
C1429 C416 1.304 . S
C1433 C455 1.301 . S
C1447 C5 1.341 . S
C1451 C239 1.341 . S
C1465 C252 1.336 . S
C1469 C18 1.336 . S
C1483 C265 1.322 . S
C1487 C31 1.322 . S
C1501 C434 1.327 . S
C1505 C44 1.327 . S
C1519 C447 1.340 . S
C1523 C57 1.340 . S
C1537 C460 1.322 . S
C1541 C70 1.322 . S
C1555 C83 1.339 . S
C1559 C317 1.339 . S
C1573 C330 1.331 . S
C1577 C96 1.331 . S
C1591 C343 1.331 . S
C1595 C109 1.331 . S
C1609 C122 1.320 . S
C1613 C200 1.320 . S
C1627 C135 1.339 . S
C1631 C213 1.339 . S
C1645 C148 1.334 . S
C1649 C226 1.334 . S
C1663 C395 1.341 . S
C1667 C161 1.341 . S
C1681 C408 1.336 . S
C1685 C174 1.336 . S
C1699 C187 1.323 . S
C1703 C421 1.323 . S
C1717 C278 1.336 . S
C1721 C356 1.336 . S
C1735 C291 1.321 . S
C1739 C369 1.321 . S
C1753 C304 1.340 . S
C1757 C382 1.340 . S
