# Generated by pormake.
# Topology vbm, (6)-cn, num edge types: 1
# Building blocks:
#     Node 0, Type 0, BuildingBlock: PAMTOO_clean_sbu_0, # of connection points: 6
#     Node 1, Type 0, BuildingBlock: PAMTOO_clean_sbu_0, # of connection points: 6
#     Node 2, Type 0, BuildingBlock: PAMTOO_clean_sbu_0, # of connection points: 6
#     Node 3, Type 0, BuildingBlock: PAMTOO_clean_sbu_0, # of connection points: 6
#     Node 4, Type 0, BuildingBlock: PAMTOO_clean_sbu_0, # of connection points: 6
#     Node 5, Type 0, BuildingBlock: PAMTOO_clean_sbu_0, # of connection points: 6
#     Node 6, Type 0, BuildingBlock: PAMTOO_clean_sbu_0, # of connection points: 6
#     Node 7, Type 0, BuildingBlock: PAMTOO_clean_sbu_0, # of connection points: 6
#     Node 8, Type 0, BuildingBlock: PAMTOO_clean_sbu_0, # of connection points: 6
#     Node 9, Type 0, BuildingBlock: PAMTOO_clean_sbu_0, # of connection points: 6
#     Node 10, Type 0, BuildingBlock: PAMTOO_clean_sbu_0, # of connection points: 6
#     Node 11, Type 0, BuildingBlock: PAMTOO_clean_sbu_0, # of connection points: 6
#     Node 12, Type 0, BuildingBlock: PAMTOO_clean_sbu_0, # of connection points: 6
#     Node 13, Type 0, BuildingBlock: PAMTOO_clean_sbu_0, # of connection points: 6
#     Node 14, Type 0, BuildingBlock: PAMTOO_clean_sbu_0, # of connection points: 6
#     Node 15, Type 0, BuildingBlock: PAMTOO_clean_sbu_0, # of connection points: 6
#     Edge 16, Type (0, 0), BuildingBlock: CIFDUS_clean_linker_0, # of connection points: 2
#     Edge 17, Type (0, 0), BuildingBlock: CIFDUS_clean_linker_0, # of connection points: 2
#     Edge 18, Type (0, 0), BuildingBlock: CIFDUS_clean_linker_0, # of connection points: 2
#     Edge 19, Type (0, 0), BuildingBlock: CIFDUS_clean_linker_0, # of connection points: 2
#     Edge 20, Type (0, 0), BuildingBlock: CIFDUS_clean_linker_0, # of connection points: 2
#     Edge 21, Type (0, 0), BuildingBlock: CIFDUS_clean_linker_0, # of connection points: 2
#     Edge 22, Type (0, 0), BuildingBlock: CIFDUS_clean_linker_0, # of connection points: 2
#     Edge 23, Type (0, 0), BuildingBlock: CIFDUS_clean_linker_0, # of connection points: 2
#     Edge 24, Type (0, 0), BuildingBlock: CIFDUS_clean_linker_0, # of connection points: 2
#     Edge 25, Type (0, 0), BuildingBlock: CIFDUS_clean_linker_0, # of connection points: 2
#     Edge 26, Type (0, 0), BuildingBlock: CIFDUS_clean_linker_0, # of connection points: 2
#     Edge 27, Type (0, 0), BuildingBlock: CIFDUS_clean_linker_0, # of connection points: 2
#     Edge 28, Type (0, 0), BuildingBlock: CIFDUS_clean_linker_0, # of connection points: 2
#     Edge 29, Type (0, 0), BuildingBlock: CIFDUS_clean_linker_0, # of connection points: 2
#     Edge 30, Type (0, 0), BuildingBlock: CIFDUS_clean_linker_0, # of connection points: 2
#     Edge 31, Type (0, 0), BuildingBlock: CIFDUS_clean_linker_0, # of connection points: 2
#     Edge 32, Type (0, 0), BuildingBlock: CIFDUS_clean_linker_0, # of connection points: 2
#     Edge 33, Type (0, 0), BuildingBlock: CIFDUS_clean_linker_0, # of connection points: 2
#     Edge 34, Type (0, 0), BuildingBlock: CIFDUS_clean_linker_0, # of connection points: 2
#     Edge 35, Type (0, 0), BuildingBlock: CIFDUS_clean_linker_0, # of connection points: 2
#     Edge 36, Type (0, 0), BuildingBlock: CIFDUS_clean_linker_0, # of connection points: 2
#     Edge 37, Type (0, 0), BuildingBlock: CIFDUS_clean_linker_0, # of connection points: 2
#     Edge 38, Type (0, 0), BuildingBlock: CIFDUS_clean_linker_0, # of connection points: 2
#     Edge 39, Type (0, 0), BuildingBlock: CIFDUS_clean_linker_0, # of connection points: 2
#     Edge 40, Type (0, 0), BuildingBlock: CIFDUS_clean_linker_0, # of connection points: 2
#     Edge 41, Type (0, 0), BuildingBlock: CIFDUS_clean_linker_0, # of connection points: 2
#     Edge 42, Type (0, 0), BuildingBlock: CIFDUS_clean_linker_0, # of connection points: 2
#     Edge 43, Type (0, 0), BuildingBlock: CIFDUS_clean_linker_0, # of connection points: 2
#     Edge 44, Type (0, 0), BuildingBlock: CIFDUS_clean_linker_0, # of connection points: 2
#     Edge 45, Type (0, 0), BuildingBlock: CIFDUS_clean_linker_0, # of connection points: 2
#     Edge 46, Type (0, 0), BuildingBlock: CIFDUS_clean_linker_0, # of connection points: 2
#     Edge 47, Type (0, 0), BuildingBlock: CIFDUS_clean_linker_0, # of connection points: 2
#     Edge 48, Type (0, 0), BuildingBlock: CIFDUS_clean_linker_0, # of connection points: 2
#     Edge 49, Type (0, 0), BuildingBlock: CIFDUS_clean_linker_0, # of connection points: 2
#     Edge 50, Type (0, 0), BuildingBlock: CIFDUS_clean_linker_0, # of connection points: 2
#     Edge 51, Type (0, 0), BuildingBlock: CIFDUS_clean_linker_0, # of connection points: 2
#     Edge 52, Type (0, 0), BuildingBlock: CIFDUS_clean_linker_0, # of connection points: 2
#     Edge 53, Type (0, 0), BuildingBlock: CIFDUS_clean_linker_0, # of connection points: 2
#     Edge 54, Type (0, 0), BuildingBlock: CIFDUS_clean_linker_0, # of connection points: 2
#     Edge 55, Type (0, 0), BuildingBlock: CIFDUS_clean_linker_0, # of connection points: 2
#     Edge 56, Type (0, 0), BuildingBlock: CIFDUS_clean_linker_0, # of connection points: 2
#     Edge 57, Type (0, 0), BuildingBlock: CIFDUS_clean_linker_0, # of connection points: 2
#     Edge 58, Type (0, 0), BuildingBlock: CIFDUS_clean_linker_0, # of connection points: 2
#     Edge 59, Type (0, 0), BuildingBlock: CIFDUS_clean_linker_0, # of connection points: 2
#     Edge 60, Type (0, 0), BuildingBlock: CIFDUS_clean_linker_0, # of connection points: 2
#     Edge 61, Type (0, 0), BuildingBlock: CIFDUS_clean_linker_0, # of connection points: 2
#     Edge 62, Type (0, 0), BuildingBlock: CIFDUS_clean_linker_0, # of connection points: 2
#     Edge 63, Type (0, 0), BuildingBlock: CIFDUS_clean_linker_0, # of connection points: 2
# Relax obj value: 0.046
# Max RMSD: 0.125
# Mean RMSD: 0.125
data_MOF--net-vbm--node1-PAMTOO_clean_sbu_0--edge1-CIFDUS_clean_linker_0
_symmetry_space_group_name_H-M    P1
_symmetry_Int_Tables_number       1
_symmetry_cell_setting            triclinic
loop_
_symmetry_equiv_pos_as_xyz
'x, y, z'
_cell_length_a     47.495146
_cell_length_b     23.729512
_cell_length_c     51.062767
_cell_angle_alpha  89.946056
_cell_angle_beta   89.99916
_cell_angle_gamma 90.073927
loop_
_atom_site_label
_atom_site_type_symbol
_atom_site_fract_x
_atom_site_fract_y
_atom_site_fract_z
_atom_type_partial_charge
Dy0 Dy 0.11355 0.1797 0.13348 0.0
Dy1 Dy 0.1408 0.05522 0.11874 0.0
C2 C 0.12347 0.14324 0.07433 0.0
O3 O 0.07751 0.12613 0.1213 0.0
O4 O 0.09592 0.03823 0.12963 0.0
O5 O 0.08748 0.25156 0.1243 0.0
O6 O 0.10941 0.24738 0.16146 0.0
O7 O 0.14351 0.06386 0.16209 0.0
O8 O 0.10624 0.12316 0.16832 0.0
O9 O 0.17487 0.11838 0.11111 0.0
O10 O 0.15967 0.18737 0.13919 0.0
O11 O 0.17089 0.98865 0.12615 0.0
O12 O 0.14232 0.98274 0.09332 0.0
C13 C 0.07434 0.07191 0.1255 0.0
O14 O 0.12633 0.18502 0.09105 0.0
O15 O 0.12234 0.09082 0.08236 0.0
C16 C 0.10317 0.33706 0.14278 0.0
C17 C 0.12019 0.45056 0.13801 0.0
C18 C 0.1345 0.40773 0.12435 0.0
C19 C 0.12606 0.35142 0.12673 0.0
C20 C 0.08895 0.37937 0.15651 0.0
C21 C 0.09736 0.4356 0.15418 0.0
C22 C 0.09418 0.27817 0.14576 0.0
C23 C 0.12351 0.08406 0.17705 0.0
C24 C 0.17919 0.16501 0.12438 0.0
C25 C 0.15521 0.89808 0.11372 0.0
C26 C 0.14126 0.7842 0.12295 0.0
C27 C 0.12668 0.8277 0.13588 0.0
C28 C 0.13358 0.88419 0.13128 0.0
C29 C 0.17016 0.85504 0.10117 0.0
C30 C 0.16329 0.79858 0.10574 0.0
C31 C 0.16138 0.9571 0.10722 0.0
H32 H 0.15198 0.41777 0.11154 0.0
H33 H 0.13731 0.31913 0.11602 0.0
H34 H 0.07137 0.36888 0.16915 0.0
H35 H 0.08618 0.46727 0.16533 0.0
H36 H 0.10986 0.8181 0.1495 0.0
H37 H 0.12179 0.91704 0.1411 0.0
H38 H 0.1868 0.86513 0.08742 0.0
H39 H 0.17468 0.76628 0.09518 0.0
Dy40 Dy 0.8731 0.88606 0.1378 0.0
Dy41 Dy 0.84297 1.01133 0.13099 0.0
C42 C 0.86507 0.94308 0.08156 0.0
O43 O 0.9085 0.9437 0.12933 0.0
O44 O 0.88882 0.03109 0.13718 0.0
O45 O 0.90042 0.8193 0.12437 0.0
O46 O 0.87934 0.81223 0.16188 0.0
O47 O 0.8378 0.98003 0.17178 0.0
O48 O 0.87998 0.93688 0.17459 0.0
O49 O 0.8097 0.94804 0.12068 0.0
O50 O 0.82723 0.87102 0.14247 0.0
O51 O 0.82848 0.08665 0.15011 0.0
O52 O 0.8209 0.07539 0.10858 0.0
C53 C 0.91077 0.99824 0.13299 0.0
O54 O 0.8623 0.89576 0.09493 0.0
O55 O 0.86432 0.99228 0.09331 0.0
C56 C 0.88959 0.72766 0.1394 0.0
C57 C 0.87982 0.61207 0.12983 0.0
C58 C 0.85891 0.65238 0.12418 0.0
C59 C 0.86378 0.70979 0.12889 0.0
C60 C 0.91039 0.68775 0.1451 0.0
C61 C 0.90559 0.63056 0.14039 0.0
C62 C 0.89541 0.78746 0.14467 0.0
C63 C 0.86007 0.96707 0.18555 0.0
C64 C 0.80676 0.89675 0.13012 0.0
C65 C 0.82531 0.16926 0.12448 0.0
C66 C 0.83419 0.28697 0.1224 0.0
C67 C 0.85593 0.2505 0.13044 0.0
C68 C 0.85154 0.19215 0.13147 0.0
C69 C 0.804 0.20517 0.1155 0.0
C70 C 0.80838 0.2634 0.11441 0.0
C71 C 0.81882 0.10917 0.12863 0.0
H72 H 0.83892 0.63965 0.11585 0.0
H73 H 0.84749 0.74017 0.12431 0.0
H74 H 0.93039 0.70082 0.15332 0.0
H75 H 0.92197 0.60072 0.1454 0.0
H76 H 0.87599 0.26716 0.13693 0.0
H77 H 0.86829 0.16513 0.13851 0.0
H78 H 0.78363 0.18828 0.11 0.0
H79 H 0.79136 0.29007 0.10768 0.0
Dy80 Dy 0.10265 0.83935 0.35892 0.0
Dy81 Dy 0.13041 0.96546 0.369 0.0
C82 C 0.11125 0.88853 0.41653 0.0
O83 O 0.06651 0.894 0.36828 0.0
O84 O 0.08508 0.98122 0.35867 0.0
O85 O 0.07318 0.77338 0.36883 0.0
O86 O 0.09937 0.76578 0.33422 0.0
O87 O 0.14255 0.93339 0.32976 0.0
O88 O 0.10079 0.89111 0.32185 0.0
O89 O 0.16538 0.90579 0.37818 0.0
O90 O 0.14881 0.8246 0.35855 0.0
O91 O 0.14373 0.04361 0.35169 0.0
O92 O 0.14987 1.02964 0.39333 0.0
C93 C 0.06346 0.94762 0.36304 0.0
O94 O 0.11415 0.84355 0.40165 0.0
O95 O 0.10989 0.93922 0.40625 0.0
C96 C 0.08563 0.68177 0.35555 0.0
C97 C 0.0933 0.5667 0.36737 0.0
C98 C 0.11362 0.60687 0.37487 0.0
C99 C 0.10978 0.66405 0.36904 0.0
C100 C 0.0654 0.64202 0.34803 0.0
C101 C 0.06917 0.58503 0.35386 0.0
C102 C 0.08085 0.7414 0.34935 0.0
C103 C 0.12305 0.91815 0.31326 0.0
C104 C 0.16895 0.85394 0.36972 0.0
C105 C 0.14493 0.1244 0.37864 0.0
C106 C 0.13604 0.24184 0.38109 0.0
C107 C 0.11523 0.20598 0.37064 0.0
C108 C 0.11963 0.14772 0.36943 0.0
C109 C 0.16508 0.15962 0.39021 0.0
C110 C 0.16068 0.21775 0.39148 0.0
C111 C 0.15217 0.06502 0.37386 0.0
H112 H 0.13231 0.5942 0.38549 0.0
H113 H 0.12556 0.69438 0.37509 0.0
H114 H 0.04665 0.65507 0.33757 0.0
H115 H 0.05335 0.55519 0.34742 0.0
H116 H 0.09611 0.22312 0.3623 0.0
H117 H 0.10379 0.12123 0.36039 0.0
H118 H 0.18472 0.14237 0.39743 0.0
H119 H 0.17689 0.244 0.40009 0.0
Dy120 Dy 0.87797 0.21616 0.36686 0.0
Dy121 Dy 0.84922 0.09127 0.37746 0.0
C122 C 0.86797 0.16911 0.42483 0.0
O123 O 0.91332 0.16118 0.37801 0.0
O124 O 0.89454 0.07543 0.36666 0.0
O125 O 0.90579 0.2847 0.37737 0.0
O126 O 0.88368 0.28602 0.34024 0.0
O127 O 0.83764 0.12211 0.33787 0.0
O128 O 0.87983 0.16264 0.33012 0.0
O129 O 0.81415 0.15223 0.38543 0.0
O130 O 0.83214 0.23235 0.36575 0.0
O131 O 0.83522 1.01331 0.3604 0.0
O132 O 0.83073 1.02647 0.4022 0.0
C133 C 0.91632 0.10805 0.37189 0.0
O134 O 0.86567 0.21377 0.40957 0.0
O135 O 0.8692 0.11817 0.41486 0.0
C136 C 0.89468 0.37385 0.35938 0.0
C137 C 0.8845 0.49075 0.36332 0.0
C138 C 0.86518 0.45161 0.37377 0.0
C139 C 0.87021 0.39353 0.37176 0.0
C140 C 0.91412 0.41263 0.34932 0.0
C141 C 0.90912 0.47045 0.35127 0.0
C142 C 0.90026 0.31331 0.35617 0.0
C143 C 0.85751 0.13576 0.32144 0.0
C144 C 0.8115 0.20438 0.37685 0.0
C145 C 0.8369 0.93229 0.38719 0.0
C146 C 0.84977 0.81625 0.39024 0.0
C147 C 0.86899 0.85447 0.37899 0.0
C148 C 0.86265 0.912 0.37754 0.0
C149 C 0.81814 0.89467 0.39922 0.0
C150 C 0.82452 0.83723 0.40082 0.0
C151 C 0.82808 0.99109 0.3828 0.0
H152 H 0.84592 0.46583 0.38298 0.0
H153 H 0.85494 0.36405 0.37959 0.0
H154 H 0.93316 0.39814 0.33978 0.0
H155 H 0.92464 0.49934 0.34339 0.0
H156 H 0.88879 0.83977 0.37101 0.0
H157 H 0.87752 0.94034 0.36824 0.0
H158 H 0.7981 0.90947 0.40666 0.0
H159 H 0.80917 0.80894 0.40941 0.0
Dy160 Dy 0.84946 0.98576 0.87892 0.0
Dy161 Dy 0.88065 0.86221 0.8671 0.0
C162 C 0.85692 0.94164 0.82254 0.0
O163 O 0.8168 0.92151 0.88996 0.0
O164 O 0.83515 0.84319 0.86902 0.0
O165 O 0.83126 0.06057 0.8621 0.0
O166 O 0.83299 0.05165 0.90426 0.0
O167 O 0.87061 0.86423 0.91023 0.0
O168 O 0.87177 0.96023 0.91546 0.0
O169 O 0.91539 0.92123 0.87573 0.0
O170 O 0.89367 1.00558 0.8663 0.0
O171 O 0.91041 0.79607 0.87611 0.0
O172 O 0.88484 0.79096 0.84104 0.0
C173 C 0.81513 0.86873 0.88208 0.0
O174 O 0.83736 0.95338 0.83964 0.0
O175 O 0.87982 0.91548 0.8303 0.0
C176 C 0.83489 0.14489 0.88667 0.0
C177 C 0.84513 0.26267 0.88608 0.0
C178 C 0.86296 0.2254 0.87245 0.0
C179 C 0.85791 0.16713 0.87275 0.0
C180 C 0.81771 0.18161 0.90102 0.0
C181 C 0.82278 0.23977 0.9008 0.0
C182 C 0.82691 0.08474 0.88465 0.0
C183 C 0.87216 0.90909 0.92538 0.0
C184 C 0.91648 0.97507 0.8701 0.0
C185 C 0.89814 0.70489 0.86092 0.0
C186 C 0.88988 0.58806 0.86951 0.0
C187 C 0.87225 0.62812 0.8816 0.0
C188 C 0.87637 0.68604 0.87736 0.0
C189 C 0.91556 0.66523 0.8487 0.0
C190 C 0.9115 0.60753 0.85291 0.0
C191 C 0.90306 0.76541 0.85603 0.0
H192 H 0.88023 0.24136 0.86074 0.0
H193 H 0.87149 0.13967 0.86147 0.0
H194 H 0.79986 0.16543 0.91191 0.0
H195 H 0.80892 0.26688 0.91194 0.0
H196 H 0.85556 0.61478 0.89466 0.0
H197 H 0.86265 0.71608 0.88694 0.0
H198 H 0.93234 0.67893 0.8358 0.0
H199 H 0.92515 0.5781 0.84287 0.0
Dy200 Dy 0.14529 0.05191 0.86959 0.0
Dy201 Dy 0.11478 0.177 0.8621 0.0
C202 C 0.13497 0.10231 0.81485 0.0
O203 O 0.17855 0.11411 0.88069 0.0
O204 O 0.16073 0.19391 0.86091 0.0
O205 O 0.15989 0.97638 0.85074 0.0
O206 O 0.16619 0.98714 0.89252 0.0
O207 O 0.12508 0.16795 0.90497 0.0
O208 O 0.12259 0.0715 0.90657 0.0
O209 O 0.07952 0.11799 0.86915 0.0
O210 O 0.10039 0.03294 0.85918 0.0
O211 O 0.08606 0.24259 0.87431 0.0
O212 O 0.10936 0.25101 0.83801 0.0
C213 C 0.18124 0.16637 0.87242 0.0
O214 O 0.15542 0.08826 0.8306 0.0
O215 O 0.1127 0.12775 0.82436 0.0
C216 C 0.16204 0.89345 0.87625 0.0
C217 C 0.15265 0.77581 0.87754 0.0
C218 C 0.13091 0.81296 0.8702 0.0
C219 C 0.13557 0.87129 0.86954 0.0
C220 C 0.18335 0.85681 0.88456 0.0
C221 C 0.17873 0.79863 0.88524 0.0
C222 C 0.1688 0.95353 0.87244 0.0
C223 C 0.12196 0.12077 0.91828 0.0
C224 C 0.07795 0.06412 0.86363 0.0
C225 C 0.09752 0.33486 0.86038 0.0
C226 C 0.10687 0.45054 0.87025 0.0
C227 C 0.12819 0.41062 0.87512 0.0
C228 C 0.12353 0.35321 0.87027 0.0
C229 C 0.07623 0.37433 0.85562 0.0
C230 C 0.08082 0.43156 0.8605 0.0
C231 C 0.09218 0.27509 0.85449 0.0
H232 H 0.11064 0.79687 0.86397 0.0
H233 H 0.11883 0.8989 0.86299 0.0
H234 H 0.20392 0.87311 0.88981 0.0
H235 H 0.19577 0.77141 0.89143 0.0
H236 H 0.14839 0.42367 0.88288 0.0
H237 H 0.14019 0.32321 0.87414 0.0
H238 H 0.05605 0.36092 0.8479 0.0
H239 H 0.06409 0.46109 0.85613 0.0
Dy240 Dy 0.8411 0.06368 0.6306 0.0
Dy241 Dy 0.87224 0.18764 0.63735 0.0
C242 C 0.85911 0.10688 0.68539 0.0
O243 O 0.80819 0.12774 0.62067 0.0
O244 O 0.82647 0.20289 0.64325 0.0
O245 O 0.82375 0.99034 0.6496 0.0
O246 O 0.82154 0.99779 0.60746 0.0
O247 O 0.86027 0.17928 0.59472 0.0
O248 O 0.86242 0.08307 0.59285 0.0
O249 O 0.9074 0.12894 0.62899 0.0
O250 O 0.88652 0.04293 0.63768 0.0
O251 O 0.89882 0.25504 0.623 0.0
O252 O 0.87971 0.26081 0.66143 0.0
C253 C 0.80565 0.17843 0.63081 0.0
O254 O 0.83679 0.09331 0.67177 0.0
O255 O 0.879 0.13712 0.67428 0.0
C256 C 0.82671 0.90649 0.62554 0.0
C257 C 0.84388 0.79266 0.62665 0.0
C258 C 0.86392 0.83644 0.62751 0.0
C259 C 0.85539 0.89284 0.62695 0.0
C260 C 0.80671 0.86317 0.62394 0.0
C261 C 0.8152 0.80673 0.62442 0.0
C262 C 0.81733 0.96533 0.62771 0.0
C263 C 0.86282 0.13235 0.58114 0.0
C264 C 0.90891 0.07438 0.63313 0.0
C265 C 0.88615 0.34553 0.63799 0.0
C266 C 0.87117 0.4591 0.62899 0.0
C267 C 0.85067 0.41616 0.62809 0.0
C268 C 0.85813 0.35988 0.63246 0.0
C269 C 0.90669 0.38788 0.63861 0.0
C270 C 0.89932 0.4441 0.63411 0.0
C271 C 0.89422 0.28681 0.64338 0.0
H272 H 0.88618 0.82709 0.62888 0.0
H273 H 0.87111 0.92582 0.62822 0.0
H274 H 0.78446 0.87299 0.62301 0.0
H275 H 0.79922 0.77414 0.62401 0.0
H276 H 0.82876 0.42608 0.62448 0.0
H277 H 0.84202 0.3276 0.63175 0.0
H278 H 0.92847 0.37749 0.64267 0.0
H279 H 0.91575 0.47577 0.63447 0.0
Dy280 Dy 0.13792 0.9941 0.62175 0.0
Dy281 Dy 0.10662 0.86957 0.62823 0.0
C282 C 0.12306 0.94664 0.67643 0.0
O283 O 0.17138 0.93137 0.61183 0.0
O284 O 0.1525 0.85295 0.6319 0.0
O285 O 0.15458 0.06773 0.64091 0.0
O286 O 0.15727 0.06055 0.59875 0.0
O287 O 0.11829 0.87901 0.58573 0.0
O288 O 0.11595 0.97526 0.58428 0.0
O289 O 0.0716 0.92925 0.62092 0.0
O290 O 0.0929 1.01382 0.63127 0.0
O291 O 0.07921 0.8033 0.61416 0.0
O292 O 0.09932 0.79593 0.65209 0.0
C293 C 0.17356 0.87945 0.62067 0.0
O294 O 0.14464 0.96062 0.66192 0.0
O295 O 0.10225 0.91809 0.66591 0.0
C296 C 0.15142 0.15162 0.61683 0.0
C297 C 0.13398 0.26523 0.6179 0.0
C298 C 0.11416 0.22131 0.6201 0.0
C299 C 0.12281 0.165 0.61955 0.0
C300 C 0.17117 0.19507 0.61388 0.0
C301 C 0.16254 0.25143 0.61434 0.0
C302 C 0.16108 0.09298 0.61906 0.0
C303 C 0.1156 0.92622 0.57241 0.0
C304 C 0.0703 0.98314 0.62659 0.0
C305 C 0.09162 0.71209 0.62847 0.0
C306 C 0.10591 0.59838 0.61912 0.0
C307 C 0.12631 0.64125 0.61678 0.0
C308 C 0.11918 0.69759 0.62135 0.0
C309 C 0.07114 0.66983 0.63051 0.0
C310 C 0.07817 0.61351 0.62583 0.0
C311 C 0.0841 0.77087 0.63428 0.0
H312 H 0.09198 0.23048 0.62253 0.0
H313 H 0.10728 0.13191 0.62185 0.0
H314 H 0.19336 0.18546 0.61192 0.0
H315 H 0.17836 0.28418 0.61285 0.0
H316 H 0.14793 0.63123 0.61194 0.0
H317 H 0.13519 0.72982 0.61961 0.0
H318 H 0.0497 0.68035 0.63586 0.0
H319 H 0.0618 0.58186 0.62736 0.0
Dy320 Dy 0.60982 0.70059 0.12607 0.0
Dy321 Dy 0.63798 0.57905 0.10525 0.0
C322 C 0.61885 0.6736 0.06527 0.0
O323 O 0.57464 0.63858 0.12965 0.0
O324 O 0.59128 0.57153 0.10076 0.0
O325 O 0.58109 0.77118 0.12266 0.0
O326 O 0.61219 0.76976 0.15359 0.0
O327 O 0.62111 0.56192 0.14501 0.0
O328 O 0.62366 0.65145 0.16169 0.0
O329 O 0.67324 0.63385 0.12001 0.0
O330 O 0.65271 0.71874 0.11112 0.0
O331 O 0.66623 0.50899 0.11164 0.0
O332 O 0.64123 0.51267 0.0762 0.0
C333 C 0.57094 0.59343 0.11504 0.0
O334 O 0.60133 0.69283 0.08306 0.0
O335 O 0.63938 0.63881 0.07129 0.0
C336 C 0.59941 0.85972 0.13733 0.0
C337 C 0.61264 0.9758 0.13098 0.0
C338 C 0.61451 0.93819 0.10968 0.0
C339 C 0.60809 0.88068 0.11285 0.0
C340 C 0.5973 0.89718 0.15847 0.0
C341 C 0.60383 0.95437 0.15538 0.0
C342 C 0.5929 0.79924 0.1417 0.0
C343 C 0.62187 0.59647 0.16497 0.0
C344 C 0.67507 0.68864 0.11636 0.0
C345 C 0.65058 0.4215 0.09363 0.0
C346 C 0.63779 0.30476 0.09824 0.0
C347 C 0.63566 0.3409 0.12004 0.0
C348 C 0.64188 0.39861 0.11775 0.0
C349 C 0.6527 0.3856 0.07189 0.0
C350 C 0.64635 0.32806 0.07412 0.0
C351 C 0.65793 0.48212 0.0907 0.0
H352 H 0.62148 0.95298 0.09069 0.0
H353 H 0.61011 0.85259 0.09624 0.0
H354 H 0.59065 0.88209 0.17753 0.0
H355 H 0.60173 0.98196 0.17214 0.0
H356 H 0.62881 0.32474 0.13883 0.0
H357 H 0.63986 0.42527 0.13486 0.0
H358 H 0.65944 0.40207 0.05311 0.0
H359 H 0.64856 0.30162 0.05697 0.0
Dy360 Dy 0.37809 0.36027 0.13 0.0
Dy361 Dy 0.348 0.48551 0.11654 0.0
C362 C 0.36604 0.39826 0.07203 0.0
O363 O 0.41255 0.42163 0.12041 0.0
O364 O 0.39095 0.50501 0.13127 0.0
O365 O 0.40707 0.29406 0.11876 0.0
O366 O 0.38415 0.28846 0.15534 0.0
O367 O 0.34606 0.47837 0.15992 0.0
O368 O 0.37837 0.40754 0.16798 0.0
O369 O 0.31382 0.42151 0.11094 0.0
O370 O 0.33213 0.34578 0.13378 0.0
O371 O 0.3167 0.551 0.12236 0.0
O372 O 0.3477 0.55868 0.09149 0.0
C373 C 0.4137 0.47554 0.12641 0.0
O374 O 0.36316 0.3563 0.08852 0.0
O375 O 0.3676 0.45048 0.08031 0.0
C376 C 0.39525 0.20271 0.13411 0.0
C377 C 0.38527 0.08627 0.12634 0.0
C378 C 0.36298 0.12532 0.12496 0.0
C379 C 0.36795 0.18304 0.12875 0.0
C380 C 0.41747 0.16405 0.13542 0.0
C381 C 0.41258 0.10651 0.13158 0.0
C382 C 0.40099 0.26291 0.13906 0.0
C383 C 0.36203 0.44898 0.17587 0.0
C384 C 0.31125 0.37157 0.12196 0.0
C385 C 0.33195 0.64336 0.11104 0.0
C386 C 0.34026 0.7599 0.12013 0.0
C387 C 0.36288 0.72178 0.12209 0.0
C388 C 0.35875 0.66406 0.11768 0.0
C389 C 0.30929 0.68102 0.10953 0.0
C390 C 0.31335 0.73864 0.11408 0.0
C391 C 0.32748 0.58344 0.10431 0.0
H392 H 0.34176 0.11136 0.12067 0.0
H393 H 0.35049 0.21226 0.1276 0.0
H394 H 0.43867 0.17835 0.13966 0.0
H395 H 0.43017 0.07772 0.13315 0.0
H396 H 0.38378 0.73657 0.12708 0.0
H397 H 0.37657 0.63575 0.11911 0.0
H398 H 0.28847 0.66598 0.10434 0.0
H399 H 0.29553 0.76677 0.11217 0.0
Dy400 Dy 0.61675 0.39359 0.3538 0.0
Dy401 Dy 0.64015 0.51852 0.37604 0.0
C402 C 0.62386 0.41789 0.41458 0.0
O403 O 0.57927 0.44405 0.36553 0.0
O404 O 0.59702 0.53345 0.36041 0.0
O405 O 0.58863 0.32251 0.35793 0.0
O406 O 0.61781 0.32591 0.32537 0.0
O407 O 0.64734 0.51933 0.33294 0.0
O408 O 0.61488 0.45319 0.31957 0.0
O409 O 0.67481 0.45647 0.38343 0.0
O410 O 0.66334 0.3898 0.35244 0.0
O411 O 0.67187 0.58414 0.37758 0.0
O412 O 0.63391 0.59124 0.40078 0.0
C413 C 0.57566 0.49855 0.36258 0.0
O414 O 0.62865 0.38119 0.39588 0.0
O415 O 0.62098 0.47188 0.4097 0.0
C416 C 0.60479 0.23542 0.34112 0.0
C417 C 0.61277 0.11817 0.34838 0.0
C418 C 0.62777 0.15751 0.36368 0.0
C419 C 0.62377 0.21567 0.36011 0.0
C420 C 0.59037 0.19649 0.32547 0.0
C421 C 0.5943 0.13858 0.32901 0.0
C422 C 0.59893 0.29605 0.33772 0.0
C423 C 0.63155 0.49642 0.3147 0.0
C424 C 0.68095 0.41165 0.3694 0.0
C425 C 0.65507 0.67622 0.38655 0.0
C426 C 0.65091 0.793 0.37565 0.0
C427 C 0.63515 0.75342 0.36116 0.0
C428 C 0.63724 0.69554 0.36654 0.0
C429 C 0.67086 0.71536 0.40092 0.0
C430 C 0.66884 0.77305 0.39556 0.0
C431 C 0.65709 0.61585 0.39325 0.0
H432 H 0.64202 0.14339 0.37888 0.0
H433 H 0.63514 0.24514 0.3724 0.0
H434 H 0.57574 0.2109 0.31062 0.0
H435 H 0.5828 0.10973 0.31654 0.0
H436 H 0.62137 0.76713 0.34551 0.0
H437 H 0.62489 0.66592 0.35518 0.0
H438 H 0.68463 0.7013 0.41653 0.0
H439 H 0.68097 0.80214 0.40738 0.0
Dy440 Dy 0.37275 0.68229 0.36234 0.0
Dy441 Dy 0.34671 0.55605 0.37751 0.0
C442 C 0.36374 0.6454 0.42092 0.0
O443 O 0.40915 0.62671 0.37173 0.0
O444 O 0.39033 0.53912 0.36359 0.0
O445 O 0.39951 0.75268 0.37241 0.0
O446 O 0.37723 0.75173 0.33538 0.0
O447 O 0.34457 0.55871 0.33402 0.0
O448 O 0.37475 0.63269 0.32513 0.0
O449 O 0.31162 0.61726 0.3839 0.0
O450 O 0.32656 0.69124 0.3582 0.0
O451 O 0.31625 0.4889 0.37297 0.0
O452 O 0.34741 0.48506 0.40385 0.0
C453 C 0.41206 0.5727 0.36678 0.0
O454 O 0.35907 0.68654 0.40432 0.0
O455 O 0.36706 0.59363 0.41263 0.0
C456 C 0.38442 0.83967 0.35513 0.0
C457 C 0.36778 0.95293 0.36066 0.0
C458 C 0.35308 0.90971 0.37377 0.0
C459 C 0.36132 0.85347 0.37098 0.0
C460 C 0.39909 0.88239 0.34203 0.0
C461 C 0.39085 0.93853 0.34472 0.0
C462 C 0.3929 0.78089 0.35135 0.0
C463 C 0.35972 0.58893 0.31771 0.0
C464 C 0.30698 0.66498 0.37157 0.0
C465 C 0.33336 0.3995 0.38517 0.0
C466 C 0.34717 0.28581 0.37617 0.0
C467 C 0.36175 0.32916 0.36307 0.0
C468 C 0.35489 0.3856 0.36754 0.0
C469 C 0.3184 0.3566 0.39788 0.0
C470 C 0.32521 0.30016 0.39341 0.0
C471 C 0.32738 0.45847 0.39154 0.0
H472 H 0.3354 0.91937 0.38637 0.0
H473 H 0.34968 0.82076 0.38112 0.0
H474 H 0.4168 0.87226 0.32951 0.0
H475 H 0.40231 0.97056 0.33399 0.0
H476 H 0.37853 0.31945 0.34944 0.0
H477 H 0.36665 0.4184 0.35759 0.0
H478 H 0.30183 0.36678 0.41166 0.0
H479 H 0.31382 0.26786 0.40404 0.0
Dy480 Dy 0.35287 0.47915 0.86709 0.0
Dy481 Dy 0.38144 0.35304 0.86038 0.0
C482 C 0.36504 0.43119 0.8129 0.0
O483 O 0.31875 0.41827 0.87791 0.0
O484 O 0.33551 0.33805 0.85788 0.0
O485 O 0.34015 0.55613 0.84829 0.0
O486 O 0.33109 0.54316 0.88956 0.0
O487 O 0.37076 0.36355 0.90317 0.0
O488 O 0.37506 0.45974 0.90415 0.0
O489 O 0.4171 0.40909 0.86939 0.0
O490 O 0.39864 0.4955 0.85807 0.0
O491 O 0.40738 0.28406 0.87383 0.0
O492 O 0.38892 0.28209 0.83498 0.0
C493 C 0.31537 0.36631 0.86949 0.0
O494 O 0.34377 0.44393 0.82787 0.0
O495 O 0.38618 0.40339 0.82317 0.0
C496 C 0.33825 0.63701 0.87505 0.0
C497 C 0.35035 0.75274 0.88022 0.0
C498 C 0.37083 0.71537 0.87051 0.0
C499 C 0.36486 0.65792 0.86803 0.0
C500 C 0.31815 0.67376 0.88559 0.0
C501 C 0.32416 0.73114 0.88824 0.0
C502 C 0.33033 0.57817 0.86984 0.0
C503 C 0.37461 0.41091 0.91619 0.0
C504 C 0.42023 0.46234 0.86334 0.0
C505 C 0.39795 0.19483 0.85525 0.0
C506 C 0.38705 0.07827 0.85784 0.0
C507 C 0.36696 0.11726 0.86692 0.0
C508 C 0.37236 0.17526 0.86556 0.0
C509 C 0.41815 0.15618 0.84666 0.0
C510 C 0.41279 0.09845 0.84795 0.0
C511 C 0.40387 0.25516 0.85236 0.0
H512 H 0.39133 0.73073 0.86452 0.0
H513 H 0.38076 0.63013 0.86 0.0
H514 H 0.29749 0.65832 0.89106 0.0
H515 H 0.30791 0.75893 0.8956 0.0
H516 H 0.34687 0.10298 0.87447 0.0
H517 H 0.35651 0.20476 0.87221 0.0
H518 H 0.43803 0.17069 0.8387 0.0
H519 H 0.42885 0.06954 0.84119 0.0
Dy520 Dy 0.63409 0.59076 0.87512 0.0
Dy521 Dy 0.61375 0.71446 0.84978 0.0
C522 C 0.62502 0.60603 0.81363 0.0
O523 O 0.66826 0.65445 0.88307 0.0
O524 O 0.65961 0.70282 0.84561 0.0
O525 O 0.66456 0.52314 0.87717 0.0
O526 O 0.62755 0.52121 0.90188 0.0
O527 O 0.62465 0.72851 0.89232 0.0
O528 O 0.61354 0.63986 0.90684 0.0
O529 O 0.57437 0.67034 0.86089 0.0
O530 O 0.59005 0.57842 0.86053 0.0
O531 O 0.5883 0.78972 0.85101 0.0
O532 O 0.61995 0.78033 0.82084 0.0
C533 C 0.67548 0.69326 0.86595 0.0
O534 O 0.64147 0.58661 0.83221 0.0
O535 O 0.60882 0.65056 0.81734 0.0
C536 C 0.64629 0.43323 0.88896 0.0
C537 C 0.63854 0.31603 0.88111 0.0
C538 C 0.63387 0.35458 0.86053 0.0
C539 C 0.63761 0.4127 0.86445 0.0
C540 C 0.65125 0.39496 0.90936 0.0
C541 C 0.64744 0.33709 0.90551 0.0
C542 C 0.64985 0.49411 0.89404 0.0
C543 C 0.61798 0.69344 0.91134 0.0
C544 C 0.56956 0.61591 0.86041 0.0
C545 C 0.61006 0.87327 0.83536 0.0
C546 C 0.62302 0.98896 0.84213 0.0
C547 C 0.62693 0.95027 0.86277 0.0
C548 C 0.6206 0.89294 0.85939 0.0
C549 C 0.60656 0.91149 0.81467 0.0
C550 C 0.613 0.96863 0.81797 0.0
C551 C 0.60159 0.81383 0.83165 0.0
H552 H 0.62675 0.33994 0.84157 0.0
H553 H 0.63352 0.4416 0.84846 0.0
H554 H 0.658 0.40991 0.9284 0.0
H555 H 0.65164 0.30876 0.92168 0.0
H556 H 0.63496 0.96429 0.88152 0.0
H557 H 0.62367 0.86412 0.87561 0.0
H558 H 0.59841 0.89724 0.79599 0.0
H559 H 0.60945 0.99716 0.80174 0.0
Dy560 Dy 0.34027 0.55605 0.62545 0.0
Dy561 Dy 0.3717 0.68046 0.63265 0.0
C562 C 0.35185 0.60545 0.6797 0.0
O563 O 0.30707 0.61881 0.61462 0.0
O564 O 0.32585 0.69866 0.63368 0.0
O565 O 0.32577 0.48098 0.64489 0.0
O566 O 0.31913 0.49059 0.60307 0.0
O567 O 0.36105 0.67211 0.58991 0.0
O568 O 0.3623 0.57544 0.58815 0.0
O569 O 0.40632 0.62125 0.62352 0.0
O570 O 0.3855 0.53688 0.6349 0.0
O571 O 0.40001 0.74694 0.6205 0.0
O572 O 0.37819 0.75272 0.65768 0.0
C573 C 0.30499 0.67152 0.62246 0.0
O574 O 0.33086 0.59352 0.66423 0.0
O575 O 0.37435 0.62943 0.66983 0.0
C576 C 0.32462 0.39722 0.61968 0.0
C577 C 0.33452 0.27963 0.61754 0.0
C578 C 0.35373 0.31583 0.63016 0.0
C579 C 0.34887 0.37401 0.63119 0.0
C580 C 0.30597 0.36162 0.60629 0.0
C581 C 0.31087 0.30352 0.60516 0.0
C582 C 0.31712 0.45715 0.62332 0.0
C583 C 0.36363 0.62485 0.5766 0.0
C584 C 0.40787 0.56726 0.6289 0.0
C585 C 0.38947 0.83826 0.63636 0.0
C586 C 0.38054 0.95478 0.62821 0.0
C587 C 0.36198 0.9146 0.61742 0.0
C588 C 0.36643 0.85678 0.62145 0.0
C589 C 0.40782 0.87803 0.64728 0.0
C590 C 0.40343 0.93562 0.64328 0.0
C591 C 0.39479 0.77795 0.64101 0.0
H592 H 0.37202 0.29905 0.64012 0.0
H593 H 0.36362 0.40058 0.64167 0.0
H594 H 0.28716 0.37861 0.59725 0.0
H595 H 0.2959 0.27721 0.59483 0.0
H596 H 0.34427 0.92779 0.60556 0.0
H597 H 0.35199 0.82658 0.61289 0.0
H598 H 0.4256 0.86451 0.659 0.0
H599 H 0.41783 0.96522 0.65231 0.0
Dy600 Dy 0.63649 0.49582 0.60971 0.0
Dy601 Dy 0.60952 0.3736 0.62957 0.0
C602 C 0.61713 0.47974 0.66846 0.0
O603 O 0.6718 0.44209 0.6255 0.0
O604 O 0.65233 0.35783 0.61435 0.0
O605 O 0.66465 0.56578 0.61673 0.0
O606 O 0.64005 0.5627 0.58105 0.0
O607 O 0.60122 0.38246 0.58635 0.0
O608 O 0.6393 0.43738 0.57571 0.0
O609 O 0.57334 0.43183 0.63243 0.0
O610 O 0.58946 0.50139 0.60447 0.0
O611 O 0.58054 0.30323 0.62672 0.0
O612 O 0.61377 0.30259 0.65571 0.0
C613 C 0.67432 0.38784 0.62074 0.0
O614 O 0.61734 0.51351 0.64823 0.0
O615 O 0.62015 0.42474 0.66578 0.0
C616 C 0.64866 0.65243 0.59952 0.0
C617 C 0.63378 0.76701 0.60666 0.0
C618 C 0.61863 0.72369 0.61931 0.0
C619 C 0.62598 0.66702 0.61576 0.0
C620 C 0.66386 0.69524 0.5869 0.0
C621 C 0.65652 0.75193 0.59041 0.0
C622 C 0.65672 0.59292 0.59575 0.0
C623 C 0.61884 0.40327 0.56894 0.0
C624 C 0.56904 0.47646 0.61775 0.0
C625 C 0.60051 0.21484 0.63786 0.0
C626 C 0.6148 0.10106 0.62763 0.0
C627 C 0.62973 0.14553 0.61562 0.0
C628 C 0.62263 0.20183 0.62067 0.0
C629 C 0.58539 0.17085 0.64964 0.0
C630 C 0.59242 0.11458 0.64459 0.0
C631 C 0.59371 0.27381 0.6445 0.0
H632 H 0.60125 0.73356 0.63224 0.0
H633 H 0.61401 0.63457 0.62575 0.0
H634 H 0.6814 0.68481 0.57424 0.0
H635 H 0.66843 0.78389 0.58006 0.0
H636 H 0.64685 0.13687 0.60222 0.0
H637 H 0.63456 0.23523 0.61135 0.0
H638 H 0.56836 0.18002 0.66309 0.0
H639 H 0.58071 0.08168 0.65449 0.0
H640 H 0.18724 0.27747 0.12555 0.0
H641 H 0.23151 0.11985 0.11753 0.0
H642 H 0.27651 0.17048 0.11582 0.0
H643 H 0.30305 0.25936 0.11801 0.0
H644 H 0.25856 0.41731 0.12305 0.0
H645 H 0.21354 0.36674 0.12427 0.0
C646 C 0.20677 0.25426 0.12342 0.0
C647 C 0.20624 0.19507 0.12204 0.0
C648 C 0.23233 0.28368 0.12188 0.0
C649 C 0.23152 0.16543 0.11872 0.0
C650 C 0.25717 0.19433 0.1178 0.0
C651 C 0.28347 0.28265 0.11935 0.0
C652 C 0.28401 0.34184 0.12079 0.0
C653 C 0.25781 0.25338 0.11959 0.0
C654 C 0.25857 0.37172 0.12195 0.0
C655 C 0.2329 0.34283 0.12276 0.0
H656 H 0.79712 0.78474 0.13734 0.0
H657 H 0.75621 0.939 0.11356 0.0
H658 H 0.71225 0.88759 0.1066 0.0
H659 H 0.68546 0.79962 0.1077 0.0
H660 H 0.72621 0.64486 0.13101 0.0
H661 H 0.77045 0.69596 0.13748 0.0
C662 C 0.77858 0.80728 0.13073 0.0
C663 C 0.77995 0.86585 0.12616 0.0
C664 C 0.75345 0.77738 0.12655 0.0
C665 C 0.75578 0.89406 0.11729 0.0
C666 C 0.73063 0.86467 0.11329 0.0
C667 C 0.70399 0.77679 0.11413 0.0
C668 C 0.70243 0.71834 0.11893 0.0
C669 C 0.72924 0.8064 0.11788 0.0
C670 C 0.72677 0.68973 0.12714 0.0
C671 C 0.75205 0.71898 0.13093 0.0
H672 H 0.29557 0.7763 0.37087 0.0
H673 H 0.25602 0.61298 0.37657 0.0
H674 H 0.20953 0.65752 0.37706 0.0
H675 H 0.18033 0.74271 0.37414 0.0
H676 H 0.22008 0.9062 0.37076 0.0
H677 H 0.26652 0.86172 0.37131 0.0
C678 C 0.27674 0.75051 0.37222 0.0
C679 C 0.27906 0.69152 0.37332 0.0
C680 C 0.25026 0.77639 0.37294 0.0
C681 C 0.25464 0.65851 0.37563 0.0
C682 C 0.22813 0.68392 0.37585 0.0
C683 C 0.19919 0.76856 0.37359 0.0
C684 C 0.19689 0.82754 0.37213 0.0
C685 C 0.22571 0.74277 0.37424 0.0
C686 C 0.22139 0.86069 0.3719 0.0
C687 C 0.2479 0.8353 0.3721 0.0
H688 H 0.80332 0.31565 0.38387 0.0
H689 H 0.75878 0.15849 0.37416 0.0
H690 H 0.71402 0.20957 0.3716 0.0
H691 H 0.68833 0.29929 0.36906 0.0
H692 H 0.73257 0.45609 0.38078 0.0
H693 H 0.77704 0.40465 0.38566 0.0
C694 C 0.78376 0.29258 0.38139 0.0
C695 C 0.78424 0.23355 0.37886 0.0
C696 C 0.75829 0.32214 0.38009 0.0
C697 C 0.75883 0.20394 0.37616 0.0
C698 C 0.73334 0.23314 0.37453 0.0
C699 C 0.70775 0.32212 0.3727 0.0
C700 C 0.70748 0.38133 0.37405 0.0
C701 C 0.73294 0.29227 0.37592 0.0
C702 C 0.73248 0.41053 0.37948 0.0
C703 C 0.7578 0.38116 0.38223 0.0
H704 H 0.72538 0.67639 0.89135 0.0
H705 H 0.67492 0.80369 0.8535 0.0
H706 H 0.71221 0.87287 0.85923 0.0
H707 H 0.76125 0.89481 0.87045 0.0
H708 H 0.81351 0.76598 0.90448 0.0
H709 H 0.7737 0.70044 0.90534 0.0
C710 C 0.7226 0.71941 0.88464 0.0
C711 C 0.6978 0.73462 0.87159 0.0
C712 C 0.74452 0.7589 0.88736 0.0
C713 C 0.6942 0.79059 0.86306 0.0
C714 C 0.71544 0.83039 0.86645 0.0
C715 C 0.76355 0.8529 0.87869 0.0
C716 C 0.78992 0.83503 0.88753 0.0
C717 C 0.74097 0.81472 0.87794 0.0
C718 C 0.79312 0.78034 0.89767 0.0
C719 C 0.77048 0.74282 0.898 0.0
H720 H 0.30612 0.25444 0.87353 0.0
H721 H 0.26337 0.4148 0.87324 0.0
H722 H 0.21782 0.36653 0.87529 0.0
H723 H 0.19041 0.27876 0.87459 0.0
H724 H 0.23331 0.11855 0.87625 0.0
H725 H 0.27881 0.16696 0.87645 0.0
C726 C 0.28682 0.27883 0.87398 0.0
C727 C 0.28799 0.338 0.87286 0.0
C728 C 0.26088 0.25089 0.87537 0.0
C729 C 0.26293 0.36918 0.87401 0.0
C730 C 0.23693 0.34163 0.87509 0.0
C731 C 0.20973 0.25445 0.87511 0.0
C732 C 0.20858 0.19521 0.87508 0.0
C733 C 0.23569 0.28251 0.87538 0.0
C734 C 0.2337 0.1642 0.87624 0.0
C735 C 0.25968 0.19183 0.87624 0.0
H736 H 0.68525 0.27902 0.60866 0.0
H737 H 0.72492 0.42969 0.63853 0.0
H738 H 0.769 0.37764 0.64461 0.0
H739 H 0.79564 0.28884 0.64231 0.0
H740 H 0.75551 0.13919 0.61179 0.0
H741 H 0.71185 0.19159 0.60552 0.0
C742 C 0.70348 0.30081 0.61649 0.0
C743 C 0.7017 0.35831 0.62322 0.0
C744 C 0.72854 0.27067 0.62003 0.0
C745 C 0.72569 0.38557 0.63316 0.0
C746 C 0.75084 0.35575 0.63673 0.0
C747 C 0.77739 0.26757 0.63427 0.0
C748 C 0.77893 0.20997 0.62757 0.0
C749 C 0.75242 0.29817 0.63041 0.0
C750 C 0.755 0.18334 0.61713 0.0
C751 C 0.73002 0.21332 0.61349 0.0
H752 H 0.1814 0.76673 0.6186 0.0
H753 H 0.22651 0.92458 0.61757 0.0
H754 H 0.27133 0.87367 0.61715 0.0
H755 H 0.29743 0.7844 0.61927 0.0
H756 H 0.25212 0.62659 0.61873 0.0
H757 H 0.20738 0.67756 0.61736 0.0
C758 C 0.20102 0.79001 0.61824 0.0
C759 C 0.20066 0.8493 0.61846 0.0
C760 C 0.22656 0.76051 0.61773 0.0
C761 C 0.22625 0.87893 0.61746 0.0
C762 C 0.25184 0.84985 0.6173 0.0
C763 C 0.27776 0.76113 0.61878 0.0
C764 C 0.27803 0.7018 0.61942 0.0
C765 C 0.25221 0.79067 0.61779 0.0
C766 C 0.25244 0.67222 0.61828 0.0
C767 C 0.22689 0.70134 0.6176 0.0
H768 H 0.08496 0.98076 0.28615 0.0
H769 H 0.16707 0.90481 0.2805 0.0
H770 H 0.17449 0.9494 0.23782 0.0
H771 H 0.15858 1.01296 0.2031 0.0
H772 H 0.07776 0.09466 0.20955 0.0
H773 H 0.06906 0.04585 0.25104 0.0
C774 C 0.10417 0.97319 0.27521 0.0
C775 C 0.12522 0.93861 0.28603 0.0
C776 C 0.10875 1.00097 0.25113 0.0
C777 C 0.15044 0.93054 0.27224 0.0
C778 C 0.15476 0.95638 0.24798 0.0
C779 C 0.13905 1.02033 0.21355 0.0
C780 C 0.11891 0.05772 0.20317 0.0
C781 C 0.13426 0.99233 0.23742 0.0
C782 C 0.09378 0.06661 0.21714 0.0
C783 C 0.08869 0.03835 0.2408 0.0
H784 H 0.89763 0.07964 0.29317 0.0
H785 H 0.812 0.13904 0.28993 0.0
H786 H 0.80509 0.09167 0.24794 0.0
H787 H 0.82258 0.03057 0.21297 0.0
H788 H 0.90742 0.96632 0.21654 0.0
H789 H 0.91529 1.01728 0.2576 0.0
C790 C 0.87771 0.08306 0.28291 0.0
C791 C 0.85549 0.11373 0.29435 0.0
C792 C 0.87354 0.0538 0.2591 0.0
C793 C 0.82949 0.11635 0.28132 0.0
C794 C 0.82546 0.0889 0.25741 0.0
C795 C 0.8428 1.02737 0.22272 0.0
C796 C 0.86431 0.99424 0.21161 0.0
C797 C 0.84718 0.05684 0.2463 0.0
C798 C 0.89036 0.99096 0.22467 0.0
C799 C 0.89495 1.02049 0.2481 0.0
H800 H 0.82055 0.05009 0.71483 0.0
H801 H 0.90745 0.10316 0.71488 0.0
H802 H 0.91526 0.0528 0.75612 0.0
H803 H 0.8972 0.99337 0.79259 0.0
H804 H 0.80963 0.9455 0.79313 0.0
H805 H 0.80243 0.99302 0.75118 0.0
C806 C 0.8412 0.051 0.72388 0.0
C807 C 0.86333 0.0807 0.71168 0.0
C808 C 0.84553 1.02201 0.74763 0.0
C809 C 0.88992 0.08121 0.72385 0.0
C810 C 0.89447 0.05199 0.74739 0.0
C811 C 0.87671 0.99261 0.78323 0.0
C812 C 0.85406 0.96505 0.79571 0.0
C813 C 0.87247 1.02191 0.75942 0.0
C814 C 0.82742 0.96584 0.78377 0.0
C815 C 0.82326 0.99332 0.75985 0.0
H816 H 0.09259 0.05342 0.78681 0.0
H817 H 0.1801 0.10094 0.78268 0.0
H818 H 0.18427 0.05612 0.73978 0.0
H819 H 0.16362 1.00117 0.7041 0.0
H820 H 0.07674 0.94865 0.70862 0.0
H821 H 0.07187 0.99656 0.75082 0.0
C822 C 0.11237 0.05474 0.77622 0.0
C823 C 0.13591 0.08127 0.78761 0.0
C824 C 0.11488 1.02699 0.7519 0.0
C825 C 0.16166 0.08131 0.77412 0.0
C826 C 0.1641 0.05537 0.74969 0.0
C827 C 0.14361 0.99987 0.71433 0.0
C828 C 0.12061 0.97109 0.70315 0.0
C829 C 0.14097 1.0275 0.73854 0.0
C830 C 0.09489 0.96998 0.7168 0.0
C831 C 0.09202 0.99778 0.74088 0.0
H832 H 0.61088 0.45308 0.26896 0.0
H833 H 0.6523 0.59966 0.30099 0.0
H834 H 0.65191 0.64463 0.25807 0.0
H835 H 0.64028 0.6424 0.21101 0.0
H836 H 0.60069 0.49416 0.17875 0.0
H837 H 0.59977 0.45037 0.22194 0.0
C838 C 0.61982 0.49484 0.26656 0.0
C839 C 0.63165 0.52267 0.28825 0.0
C840 C 0.6198 0.52048 0.24168 0.0
C841 C 0.64323 0.57683 0.28467 0.0
C842 C 0.64293 0.60283 0.2601 0.0
C843 C 0.63129 0.6007 0.2135 0.0
C844 C 0.62054 0.57176 0.19166 0.0
C845 C 0.6313 0.57509 0.23842 0.0
C846 C 0.60924 0.51741 0.19518 0.0
C847 C 0.60867 0.49223 0.21992 0.0
H848 H 0.36093 0.48261 0.29853 0.0
H849 H 0.36084 0.65711 0.27492 0.0
H850 H 0.3609 0.62898 0.22879 0.0
H851 H 0.36047 0.55466 0.19525 0.0
H852 H 0.36501 0.38031 0.21864 0.0
H853 H 0.36385 0.40823 0.26486 0.0
C854 C 0.36086 0.51434 0.28322 0.0
C855 C 0.36053 0.57179 0.28997 0.0
C856 C 0.36174 0.49783 0.25681 0.0
C857 C 0.36104 0.61266 0.27009 0.0
C858 C 0.36102 0.59659 0.24377 0.0
C859 C 0.36115 0.52285 0.21052 0.0
C860 C 0.36246 0.46554 0.2037 0.0
C861 C 0.36127 0.53933 0.23692 0.0
C862 C 0.36395 0.42467 0.22353 0.0
C863 C 0.36321 0.44063 0.2499 0.0
H864 H 0.32472 0.49089 0.7877 0.0
H865 H 0.41074 0.43509 0.77987 0.0
H866 H 0.41526 0.48853 0.73899 0.0
H867 H 0.39439 0.55117 0.70518 0.0
H868 H 0.3078 0.60282 0.71298 0.0
H869 H 0.30409 0.55213 0.7545 0.0
C870 C 0.34447 0.49007 0.77705 0.0
C871 C 0.36733 0.45879 0.78686 0.0
C872 C 0.34695 0.52107 0.75375 0.0
C873 C 0.39272 0.45837 0.77269 0.0
C874 C 0.39539 0.48932 0.74941 0.0
C875 C 0.37495 0.55213 0.71632 0.0
C876 C 0.35151 0.58143 0.70636 0.0
C877 C 0.37268 0.52116 0.73981 0.0
C878 C 0.32616 0.58106 0.72048 0.0
C879 C 0.32398 0.55176 0.74409 0.0
H880 H 0.60017 0.63631 0.76719 0.0
H881 H 0.64858 0.50363 0.80352 0.0
H882 H 0.64861 0.45071 0.7628 0.0
H883 H 0.63661 0.44299 0.71596 0.0
H884 H 0.58978 0.57712 0.67923 0.0
H885 H 0.58722 0.62757 0.7207 0.0
C886 C 0.61068 0.59582 0.76622 0.0
C887 C 0.62452 0.57456 0.78845 0.0
C888 C 0.61088 0.56538 0.74252 0.0
C889 C 0.63797 0.52172 0.78673 0.0
C890 C 0.63794 0.49104 0.76341 0.0
C891 C 0.62555 0.48286 0.71718 0.0
C892 C 0.61348 0.50617 0.69453 0.0
C893 C 0.62466 0.51255 0.74107 0.0
C894 C 0.59944 0.55829 0.69635 0.0
C895 C 0.59797 0.58733 0.72008 0.0
H896 H 0.13362 0.20573 0.95367 0.0
H897 H 0.1003 0.03665 0.94778 0.0
H898 H 0.09625 0.03109 0.99503 0.0
H899 H 0.10453 0.07057 0.03795 0.0
H900 H 0.13859 0.2382 0.04607 0.0
H901 H 0.13958 0.24826 -0.00187 0.0
C902 C 0.12522 0.16799 0.96277 0.0
C903 C 0.11758 0.12145 0.94708 0.0
C904 C 0.12315 0.16463 0.99036 0.0
C905 C 0.10672 0.07286 0.95924 0.0
C906 C 0.10431 0.06957 0.98634 0.0
C907 C 0.11214 0.10956 0.02937 0.0
C908 C 0.12178 0.15331 0.04564 0.0
C909 C 0.11292 0.11465 0.00207 0.0
C910 C 0.13108 0.20378 0.03403 0.0
C911 C 0.13175 0.2094 0.0066 0.0
H912 H 0.881 0.99161 0.96105 0.0
H913 H 0.86431 0.81332 0.95525 0.0
H914 H 0.86152 0.80684 0.00314 0.0
H915 H 0.86166 0.85356 0.0469 0.0
H916 H 0.87802 0.03262 0.05077 0.0
H917 H 0.88297 0.03663 0.00362 0.0
C918 C 0.87688 0.9511 0.97014 0.0
C919 C 0.87277 0.90311 0.95443 0.0
C920 C 0.87505 0.94781 -0.00247 0.0
C921 C 0.86764 0.85104 0.96678 0.0
C922 C 0.86592 0.84735 0.99421 0.0
C923 C 0.86645 0.89333 0.03742 0.0
C924 C 0.86919 0.94273 0.05261 0.0
C925 C 0.86925 0.89569 0.00984 0.0
C926 C 0.87548 0.99386 0.03983 0.0
C927 C 0.87841 0.99635 0.01273 0.0
H928 H 0.10201 0.97201 0.45155 0.0
H929 H 0.11941 0.79386 0.44701 0.0
H930 H 0.12141 0.78873 0.49496 0.0
H931 H 0.12007 0.83644 0.53834 0.0
H932 H 0.10318 1.01529 0.54111 0.0
H933 H 0.09921 1.01818 0.49381 0.0
C934 C 0.10615 0.93182 0.46092 0.0
C935 C 0.11067 0.88345 0.44557 0.0
C936 C 0.1075 0.92931 0.48832 0.0
C937 C 0.11583 0.83183 0.45827 0.0
C938 C 0.11706 0.82891 0.48572 0.0
C939 C 0.11538 0.87593 0.52858 0.0
C940 C 0.11212 0.92559 0.54346 0.0
C941 C 0.11321 0.87759 0.50099 0.0
C942 C 0.10603 0.97637 0.53037 0.0
C943 C 0.10369 0.97819 0.5032 0.0
H944 H 0.85813 0.22233 0.54674 0.0
H945 H 0.87557 0.04369 0.54989 0.0
H946 H 0.8797 0.0406 0.50266 0.0
H947 H 0.87705 0.0863 0.4603 0.0
H948 H 0.85925 0.26417 0.45506 0.0
H949 H 0.85688 0.26974 0.50303 0.0
C950 C 0.86297 0.18286 0.53708 0.0
C951 C 0.86632 0.13329 0.55211 0.0
C952 C 0.86526 0.18103 0.50943 0.0
C953 C 0.87261 0.08255 0.53909 0.0
C954 C 0.87506 0.08059 0.51194 0.0
C955 C 0.87273 0.12655 0.4695 0.0
C956 C 0.86823 0.17469 0.45392 0.0
C957 C 0.87118 0.1293 0.49691 0.0
C958 C 0.86284 0.22636 0.46647 0.0
C959 C 0.86139 0.22951 0.49394 0.0
H960 H 0.65598 0.70973 0.02822 0.0
H961 H 0.56901 0.66466 0.04029 0.0
H962 H 0.55987 0.67355 0.99332 0.0
H963 H 0.57801 0.68391 0.94839 0.0
H964 H 0.66394 0.73546 0.93608 0.0
H965 H 0.67211 0.7358 0.98353 0.0
C966 C 0.635 0.70267 0.02048 0.0
C967 C 0.61324 0.68583 0.03745 0.0
C968 C 0.62974 0.70935 0.9935 0.0
C969 C 0.58603 0.67754 0.02747 0.0
C970 C 0.58082 0.68251 0.00065 0.0
C971 C 0.59821 0.69707 0.95624 0.0
C972 C 0.6203 0.71003 0.939 0.0
C973 C 0.60265 0.69718 0.98343 0.0
C974 C 0.64653 0.72634 0.94914 0.0
C975 C 0.65128 0.72574 0.97622 0.0
H976 H 0.35988 0.32929 0.95219 0.0
H977 H 0.39735 0.49464 0.9451 0.0
H978 H 0.39891 0.50373 0.99234 0.0
H979 H 0.38718 0.4685 0.03553 0.0
H980 H 0.34996 0.30378 0.04451 0.0
H981 H 0.35096 0.29056 -0.00316 0.0
C982 C 0.3687 0.36688 0.96105 0.0
C983 C 0.37814 0.41145 0.94503 0.0
C984 C 0.36939 0.37227 0.98858 0.0
C985 C 0.38953 0.45994 0.95684 0.0
C986 C 0.39048 0.4653 0.98393 0.0
C987 C 0.37931 0.42956 0.02714 0.0
C988 C 0.36819 0.38752 0.04352 0.0
C989 C 0.37997 0.42235 -6e-05 0.0
C990 C 0.35856 0.33694 0.0323 0.0
C991 C 0.35907 0.32943 0.00504 0.0
H992 H 0.58402 0.43485 0.45148 0.0
H993 H 0.66601 0.36223 0.43917 0.0
H994 H 0.67133 0.34722 0.48645 0.0
H995 H 0.6544 0.36446 0.53162 0.0
H996 H 0.57077 0.42961 0.54355 0.0
H997 H 0.56399 0.43733 0.49612 0.0
C998 C 0.60275 0.41471 0.45922 0.0
C999 C 0.62469 0.39992 0.44215 0.0
C1000 C 0.60535 0.40522 0.48629 0.0
C1001 C 0.64886 0.37362 0.45212 0.0
C1002 C 0.65195 0.3654 0.4791 0.0
C1003 C 0.6345 0.37903 0.52369 0.0
C1004 C 0.6131 0.39656 0.54081 0.0
C1005 C 0.63062 0.38234 0.49642 0.0
C1006 C 0.58737 0.41542 0.53058 0.0
C1007 C 0.5836 0.42025 0.50352 0.0
H1008 H 0.35121 0.70847 0.54098 0.0
H1009 H 0.38744 0.5422 0.54793 0.0
H1010 H 0.39233 0.53633 0.50074 0.0
H1011 H 0.38373 0.5745 0.45758 0.0
H1012 H 0.34662 0.7392 0.44859 0.0
H1013 H 0.34502 0.74989 0.49642 0.0
C1014 C 0.36044 0.67134 0.53211 0.0
C1015 C 0.36861 0.62558 0.54799 0.0
C1016 C 0.36294 0.66776 0.50461 0.0
C1017 C 0.38056 0.57771 0.53622 0.0
C1018 C 0.38345 0.57426 0.50918 0.0
C1019 C 0.37535 0.61299 0.46596 0.0
C1020 C 0.36501 0.6557 0.44952 0.0
C1021 C 0.37421 0.61843 0.49321 0.0
C1022 C 0.35467 0.70556 0.46082 0.0
C1023 C 0.35366 0.71157 0.48817 0.0
H1024 H 0.9597 0.94027 0.13263 0.0
H1025 H 0.92655 0.10975 0.13179 0.0
H1026 H 0.97453 0.14732 0.12912 0.0
H1027 H 0.02553 0.13151 0.12655 0.0
H1028 H 0.0581 0.96154 0.12788 0.0
H1029 H 0.01023 0.92454 0.13069 0.0
C1030 C 0.9628 0.98553 0.13181 0.0
C1031 C 0.9395 1.02219 0.13225 0.0
C1032 C 0.99025 1.00662 0.13028 0.0
C1033 C 0.94409 0.08063 0.13148 0.0
C1034 C 0.97149 0.10207 0.12988 0.0
C1035 C 0.02222 0.08632 0.12734 0.0
C1036 C 0.0454 0.04928 0.12685 0.0
C1037 C -0.00532 0.06537 0.12915 0.0
C1038 C 0.04068 0.99094 0.12818 0.0
C1039 C 0.01332 0.96977 0.1298 0.0
H1040 H 0.93328 0.99937 0.36419 0.0
H1041 H 0.96497 0.16846 0.37521 0.0
H1042 H 0.01305 0.13455 0.37215 0.0
H1043 H 0.04655 0.05679 0.36736 0.0
H1044 H 0.0151 0.88737 0.35747 0.0
H1045 H 0.96683 0.92162 0.35891 0.0
C1046 C 0.95069 1.02876 0.3659 0.0
C1047 C 0.9454 0.08621 0.37004 0.0
C1048 C 0.97851 1.00904 0.36428 0.0
C1049 C 0.9683 0.12379 0.37219 0.0
C1050 C -0.00408 0.10457 0.37037 0.0
C1051 C 0.02913 1.0275 0.36532 0.0
C1052 C 0.03444 0.96975 0.36242 0.0
C1053 C 0.00132 0.04727 0.36653 0.0
C1054 C 0.01162 0.93216 0.35994 0.0
C1055 C 0.98395 0.95162 0.36074 0.0
H1056 H 0.02781 0.11844 0.86349 0.0
H1057 H 0.0645 0.95191 0.86204 0.0
H1058 H 0.01746 0.9101 0.86335 0.0
H1059 H 0.96644 0.92098 0.86642 0.0
H1060 H 0.92967 0.0874 0.86771 0.0
H1061 H 0.97664 0.12932 0.8649 0.0
C1062 C 0.02561 0.07294 0.86344 0.0
C1063 C 0.04967 0.0383 0.86289 0.0
C1064 C -0.00139 0.0493 0.86424 0.0
C1065 C 0.04635 0.97951 0.86249 0.0
C1066 C 0.01949 0.9556 0.86331 0.0
C1067 C 0.96861 0.96649 0.86614 0.0
C1068 C 0.94458 1.00108 0.86755 0.0
C1069 C -0.00446 0.99014 0.86447 0.0
C1070 C 0.94781 0.05987 0.86673 0.0
C1071 C 0.97464 0.08382 0.86516 0.0
H1072 H 0.95941 0.12786 0.63293 0.0
H1073 H 0.92188 0.96192 0.63246 0.0
H1074 H 0.96864 0.91941 0.6304 0.0
H1075 H 0.01986 0.92951 0.62811 0.0
H1076 H 0.05739 0.09542 0.6293 0.0
H1077 H 0.01065 0.1379 0.6317 0.0
C1078 C 0.96137 0.08234 0.63234 0.0
C1079 C 0.93712 0.04812 0.63268 0.0
C1080 C 0.98825 0.05826 0.63125 0.0
C1081 C 0.94015 0.98926 0.63221 0.0
C1082 C 0.96688 0.96493 0.63098 0.0
C1083 C 0.0179 0.97501 0.62881 0.0
C1084 C 0.04213 1.00927 0.62833 0.0
C1085 C 0.99103 0.99907 0.63036 0.0
C1086 C 0.03913 0.06808 0.6296 0.0
C1087 C 0.0124 0.09239 0.63095 0.0
H1088 H 0.46357 0.43744 0.10728 0.0
H1089 H 0.42574 0.57941 0.14663 0.0
H1090 H 0.47095 0.62839 0.14673 0.0
H1091 H 0.52126 0.6313 0.13535 0.0
H1092 H 0.55848 0.48993 0.09495 0.0
H1093 H 0.51351 0.4407 0.09555 0.0
C1094 C 0.46521 0.47897 0.11601 0.0
C1095 C 0.4413 0.50453 0.127 0.0
C1096 C 0.49118 0.50726 0.11573 0.0
C1097 C 0.44379 0.55867 0.13799 0.0
C1098 C 0.46966 0.58678 0.13807 0.0
C1099 C 0.51954 0.58974 0.12668 0.0
C1100 C 0.54327 0.56455 0.11511 0.0
C1101 C 0.49349 0.56156 0.12693 0.0
C1102 C 0.54059 0.51066 0.10388 0.0
C1103 C 0.51486 0.48225 0.10426 0.0
H1104 H 0.46103 0.63129 0.36517 0.0
H1105 H 0.42776 0.4618 0.3643 0.0
H1106 H 0.47555 0.42402 0.36244 0.0
H1107 H 0.52664 0.43922 0.36195 0.0
H1108 H 0.5596 0.60904 0.36246 0.0
H1109 H 0.51185 0.64652 0.3635 0.0
C1110 C 0.46415 0.58604 0.36461 0.0
C1111 C 0.44084 0.54944 0.36505 0.0
C1112 C 0.49159 0.56466 0.36346 0.0
C1113 C 0.44533 0.49095 0.36402 0.0
C1114 C 0.47264 0.4693 0.36298 0.0
C1115 C 0.52343 0.48445 0.36226 0.0
C1116 C 0.54671 0.52122 0.36225 0.0
C1117 C 0.49592 0.50579 0.36284 0.0
C1118 C 0.5421 0.57972 0.36247 0.0
C1119 C 0.51479 0.60124 0.36311 0.0
H1120 H 0.43832 0.57168 0.85876 0.0
H1121 H 0.46804 0.40006 0.86511 0.0
H1122 H 0.51638 0.43229 0.8642 0.0
H1123 H 0.55056 0.50834 0.86247 0.0
H1124 H 0.52202 0.68059 0.85659 0.0
H1125 H 0.47317 0.6488 0.85638 0.0
C1126 C 0.45538 0.54144 0.85986 0.0
C1127 C 0.44942 0.48368 0.86215 0.0
C1128 C 0.48348 0.56018 0.85945 0.0
C1129 C 0.47184 0.44495 0.86356 0.0
C1130 C 0.49964 0.4632 0.86299 0.0
C1131 C 0.53371 0.53901 0.86105 0.0
C1132 C 0.54001 0.59663 0.85961 0.0
C1133 C 0.50571 0.52064 0.86109 0.0
C1134 C 0.51782 0.63579 0.85781 0.0
C1135 C 0.48982 0.61773 0.85768 0.0
H1136 H 0.45559 0.61182 0.60859 0.0
H1137 H 0.42337 0.46289 0.64703 0.0
H1138 H 0.4705 0.42131 0.64648 0.0
H1139 H 0.52083 0.42849 0.63596 0.0
H1140 H 0.55256 0.57761 0.59725 0.0
H1141 H 0.50533 0.61791 0.59703 0.0
C1142 C 0.45878 0.57026 0.61693 0.0
C1143 C 0.43599 0.54068 0.62804 0.0
C1144 C 0.48578 0.54671 0.61649 0.0
C1145 C 0.44053 0.48659 0.6384 0.0
C1146 C 0.46747 0.46286 0.63813 0.0
C1147 C 0.51747 0.46982 0.62745 0.0
C1148 C 0.54027 0.50008 0.61673 0.0
C1149 C 0.49026 0.49274 0.62736 0.0
C1150 C 0.53543 0.55334 0.60559 0.0
C1151 C 0.50843 0.57649 0.60551 0.0
H1152 H 0.17555 0.69246 0.1279 0.0
H1153 H 0.088 0.74097 0.12584 0.0
H1154 H 0.0739 0.6426 0.13055 0.0
H1155 H 0.08628 0.54265 0.13401 0.0
H1156 H 0.17374 0.49362 0.13611 0.0
H1157 H 0.18796 0.59217 0.13181 0.0
C1158 C 0.15338 0.6815 0.12832 0.0
C1159 C 0.13289 0.72422 0.12658 0.0
C1160 C 0.14537 0.62468 0.13078 0.0
C1161 C 0.10425 0.70919 0.12755 0.0
C1162 C 0.09614 0.65285 0.13003 0.0
C1163 C 0.10847 0.55349 0.13382 0.0
C1164 C 0.12888 0.51063 0.13539 0.0
C1165 C 0.11651 0.61026 0.13158 0.0
C1166 C 0.15754 0.52555 0.1346 0.0
C1167 C 0.16571 0.58198 0.13232 0.0
H1168 H 0.88042 0.3492 0.1087 0.0
H1169 H 0.79611 0.36518 0.13932 0.0
H1170 H 0.80219 0.46689 0.14306 0.0
H1171 H 0.83217 0.55109 0.13965 0.0
H1172 H 0.91661 0.53519 0.10938 0.0
H1173 H 0.90991 0.43388 0.10401 0.0
C1174 C 0.86341 0.37489 0.11628 0.0
C1175 C 0.83784 0.34933 0.12367 0.0
C1176 C 0.86713 0.43349 0.11866 0.0
C1177 C 0.81589 0.38358 0.13311 0.0
C1178 C 0.81941 0.44183 0.13545 0.0
C1179 C 0.84898 0.52562 0.13154 0.0
C1180 C 0.87492 0.55085 0.1251 0.0
C1181 C 0.845 0.46724 0.12847 0.0
C1182 C 0.89658 0.51688 0.11491 0.0
C1183 C 0.89273 0.4589 0.11171 0.0
H1184 H 0.08892 0.3048 0.39023 0.0
H1185 H 0.17632 0.31908 0.368 0.0
H1186 H 0.17123 0.42075 0.3632 0.0
H1187 H 0.14144 0.50515 0.36296 0.0
H1188 H 0.0539 0.49116 0.38466 0.0
H1189 H 0.05947 0.38994 0.3915 0.0
C1190 C 0.10683 0.33015 0.38429 0.0
C1191 C 0.13296 0.30417 0.37955 0.0
C1192 C 0.1037 0.38869 0.38122 0.0
C1193 C 0.15605 0.33788 0.37218 0.0
C1194 C 0.15313 0.39608 0.36922 0.0
C1195 C 0.12367 0.48013 0.36956 0.0
C1196 C 0.09726 0.50576 0.37314 0.0
C1197 C 0.127 0.42189 0.37346 0.0
C1198 C 0.07438 0.47243 0.38136 0.0
C1199 C 0.07756 0.41455 0.3854 0.0
H1200 H 0.86407 0.55239 0.4044 0.0
H1201 H 0.89248 0.56802 0.32444 0.0
H1202 H 0.88509 0.66961 0.32602 0.0
H1203 H 0.87019 0.75412 0.34981 0.0
H1204 H 0.84133 0.73945 0.42962 0.0
H1205 H 0.84888 0.63752 0.42827 0.0
C1206 C 0.86842 0.57799 0.38727 0.0
C1207 C 0.87899 0.5525 0.3644 0.0
C1208 C 0.86404 0.63664 0.38826 0.0
C1209 C 0.88477 0.5865 0.34244 0.0
C1210 C 0.88042 0.64465 0.34327 0.0
C1211 C 0.86588 0.72875 0.36703 0.0
C1212 C 0.85534 0.7545 0.38982 0.0
C1213 C 0.87019 0.67021 0.36609 0.0
C1214 C 0.8493 0.72071 0.41177 0.0
C1215 C 0.85367 0.66242 0.41103 0.0
H1216 H 0.89443 0.32302 0.88559 0.0
H1217 H 0.80424 0.34343 0.88158 0.0
H1218 H 0.80995 0.44512 0.87719 0.0
H1219 H 0.84051 0.52851 0.87283 0.0
H1220 H 0.9307 0.50805 0.87654 0.0
H1221 H 0.92496 0.40658 0.88209 0.0
C1222 C 0.87601 0.34961 0.88361 0.0
C1223 C 0.84894 0.32516 0.88402 0.0
C1224 C 0.87941 0.40833 0.88081 0.0
C1225 C 0.82535 0.36076 0.88178 0.0
C1226 C 0.82857 0.41909 0.87906 0.0
C1227 C 0.85892 0.50201 0.87516 0.0
C1228 C 0.88601 0.52624 0.87408 0.0
C1229 C 0.8555 0.44339 0.87844 0.0
C1230 C 0.90959 0.49077 0.87683 0.0
C1231 C 0.90634 0.4326 0.88016 0.0
H1232 H 0.15396 0.51207 0.859 0.0
H1233 H 0.07055 0.52718 0.89175 0.0
H1234 H 0.0773 0.62853 0.8971 0.0
H1235 H 0.10664 0.71345 0.89191 0.0
H1236 H 0.18996 0.69797 0.85896 0.0
H1237 H 0.1837 0.59636 0.8549 0.0
C1238 C 0.13739 0.53735 0.86764 0.0
C1239 C 0.11174 0.51186 0.87483 0.0
C1240 C 0.1414 0.59573 0.87072 0.0
C1241 C 0.09037 0.54565 0.88566 0.0
C1242 C 0.09424 0.60367 0.88885 0.0
C1243 C 0.12339 0.68788 0.88375 0.0
C1244 C 0.14876 0.71354 0.87584 0.0
C1245 C 0.11959 0.62929 0.88124 0.0
C1246 C 0.17035 0.67947 0.8656 0.0
C1247 C 0.16674 0.62128 0.86309 0.0
H1248 H 0.82445 0.70118 0.59958 0.0
H1249 H 0.88304 0.74935 0.66019 0.0
H1250 H 0.89679 0.65112 0.66598 0.0
H1251 H 0.89122 0.5513 0.65488 0.0
H1252 H 0.83313 0.50258 0.59393 0.0
H1253 H 0.81963 0.60097 0.58778 0.0
C1254 C 0.84015 0.69014 0.61412 0.0
C1255 C 0.85273 0.73274 0.62936 0.0
C1256 C 0.84787 0.63337 0.61749 0.0
C1257 C 0.8733 0.71767 0.6479 0.0
C1258 C 0.88104 0.66138 0.65137 0.0
C1259 C 0.87587 0.56213 0.63999 0.0
C1260 C 0.86324 0.5193 0.62493 0.0
C1261 C 0.86841 0.61888 0.63635 0.0
C1262 C 0.84295 0.53437 0.6061 0.0
C1263 C 0.83533 0.59075 0.60243 0.0
H1264 H 0.15119 0.35584 0.58895 0.0
H1265 H 0.09706 0.30921 0.65332 0.0
H1266 H 0.0834 0.40749 0.65909 0.0
H1267 H 0.08786 0.50694 0.64684 0.0
H1268 H 0.14142 0.55407 0.58211 0.0
H1269 H 0.15478 0.45562 0.57598 0.0
C1270 C 0.13647 0.36724 0.60429 0.0
C1271 C 0.12512 0.32509 0.62062 0.0
C1272 C 0.12878 0.42401 0.60761 0.0
C1273 C 0.10582 0.34057 0.64021 0.0
C1274 C 0.09813 0.39687 0.64366 0.0
C1275 C 0.10216 0.49573 0.63114 0.0
C1276 C 0.1136 0.53812 0.615 0.0
C1277 C 0.10954 0.43895 0.62753 0.0
C1278 C 0.13256 0.52261 0.5951 0.0
C1279 C 0.14009 0.4662 0.59145 0.0
H1280 H 0.5999 0.04802 0.09058 0.0
H1281 H 0.64257 0.04152 0.16512 0.0
H1282 H 0.65367 0.14168 0.16186 0.0
H1283 H 0.6514 0.23179 0.13796 0.0
H1284 H 0.60876 0.23867 0.06342 0.0
H1285 H 0.59799 0.13822 0.06644 0.0
C1286 C 0.61184 0.06836 0.10601 0.0
C1287 C 0.62017 0.03691 0.12816 0.0
C1288 C 0.61824 0.12637 0.10403 0.0
C1289 C 0.63542 0.06451 0.14804 0.0
C1290 C 0.64193 0.12192 0.14615 0.0
C1291 C 0.63955 0.21149 0.12245 0.0
C1292 C 0.63099 0.24319 0.10047 0.0
C1293 C 0.63332 0.15344 0.12432 0.0
C1294 C 0.61599 0.21555 0.08043 0.0
C1295 C 0.60968 0.15797 0.08219 0.0
H1296 H 0.38338 0.82462 0.10152 0.0
H1297 H 0.30699 0.83432 0.14698 0.0
H1298 H 0.31367 0.9358 0.15238 0.0
H1299 H 0.34162 1.0219 0.14473 0.0
H1300 H 0.41781 1.01181 0.09892 0.0
H1301 H 0.41101 0.91058 0.09352 0.0
C1302 C 0.36833 0.8488 0.11283 0.0
C1303 C 0.34474 0.82166 0.12386 0.0
C1304 C 0.37229 0.90724 0.11586 0.0
C1305 C 0.3252 0.85405 0.13806 0.0
C1306 C 0.32906 0.91213 0.14125 0.0
C1307 C 0.35659 0.99769 0.13334 0.0
C1308 C 0.38028 1.02468 0.12237 0.0
C1309 C 0.35251 0.93925 0.1302 0.0
C1310 C 0.39962 0.99225 0.10794 0.0
C1311 C 0.39568 0.93427 0.10472 0.0
H1312 H 0.66069 0.05742 0.35851 0.0
H1313 H 0.5709 0.03904 0.34867 0.0
H1314 H 0.5748 0.93763 0.35535 0.0
H1315 H 0.60344 0.85385 0.3648 0.0
H1316 H 0.69323 0.87168 0.37471 0.0
H1317 H 0.68947 0.97319 0.3677 0.0
C1318 C 0.64195 0.03132 0.35802 0.0
C1319 C 0.61556 0.05616 0.35293 0.0
C1320 C 0.64429 0.97268 0.362 0.0
C1321 C 0.59156 1.02127 0.3521 0.0
C1322 C 0.59373 0.96314 0.35608 0.0
C1323 C 0.62225 0.87977 0.36513 0.0
C1324 C 0.64856 0.85483 0.37036 0.0
C1325 C 0.61997 0.93831 0.36101 0.0
C1326 C 0.67262 0.88956 0.3711 0.0
C1327 C 0.67052 0.94773 0.36696 0.0
H1328 H 0.4018 0.04455 0.3658 0.0
H1329 H 0.31429 0.99595 0.36185 0.0
H1330 H 0.3002 0.09445 0.36624 0.0
H1331 H 0.31278 0.19456 0.37061 0.0
H1332 H 0.40036 0.24271 0.37417 0.0
H1333 H 0.41436 0.1443 0.36965 0.0
C1334 C 0.37964 0.05548 0.36561 0.0
C1335 C 0.35916 1.01282 0.36349 0.0
C1336 C 0.37169 0.11219 0.36783 0.0
C1337 C 0.33051 1.02778 0.3638 0.0
C1338 C 0.32243 0.08416 0.36612 0.0
C1339 C 0.33492 0.18346 0.37054 0.0
C1340 C 0.35548 0.22598 0.37267 0.0
C1341 C 0.34284 0.12671 0.36814 0.0
C1342 C 0.3841 0.21095 0.37218 0.0
C1343 C 0.39213 0.15463 0.3698 0.0
H1344 H 0.37349 0.816 0.84165 0.0
H1345 H 0.3386 0.82783 0.91942 0.0
H1346 H 0.34619 0.92991 0.91923 0.0
H1347 H 0.36332 1.01573 0.89698 0.0
H1348 H 0.39765 1.00277 0.81896 0.0
H1349 H 0.39001 0.90116 0.81937 0.0
C1350 C 0.36786 0.84083 0.85869 0.0
C1351 C 0.3557 0.81438 0.88058 0.0
C1352 C 0.37217 0.89931 0.85839 0.0
C1353 C 0.34791 0.84729 0.90228 0.0
C1354 C 0.35229 0.90559 0.9022 0.0
C1355 C 0.36889 0.99067 0.88001 0.0
C1356 C 0.38122 1.01677 0.85806 0.0
C1357 C 0.36437 0.93209 0.88033 0.0
C1358 C 0.38855 0.98364 0.83628 0.0
C1359 C 0.38408 0.92555 0.83643 0.0
H1360 H 0.65269 0.24989 0.83911 0.0
H1361 H 0.61322 0.24284 0.91516 0.0
H1362 H 0.60586 0.14166 0.91027 0.0
H1363 H 0.60985 0.05495 0.88421 0.0
H1364 H 0.64906 0.06154 0.80806 0.0
H1365 H 0.6569 0.16275 0.81305 0.0
C1366 C 0.64228 0.22632 0.85453 0.0
C1367 C 0.63366 0.25423 0.87753 0.0
C1368 C 0.638 0.16783 0.85157 0.0
C1369 C 0.62049 0.2226 0.89741 0.0
C1370 C 0.61613 0.16463 0.89459 0.0
C1371 C 0.6204 0.07836 0.86881 0.0
C1372 C 0.6288 0.05041 0.84577 0.0
C1373 C 0.62483 0.13673 0.87179 0.0
C1374 C 0.64205 0.08187 0.82588 0.0
C1375 C 0.64665 0.13982 0.82876 0.0
H1376 H 0.33102 1.01361 0.62879 0.0
H1377 H 0.42053 0.03497 0.61804 0.0
H1378 H 0.41426 0.13649 0.6134 0.0
H1379 H 0.38353 0.21973 0.61301 0.0
H1380 H 0.29406 0.19854 0.62426 0.0
H1381 H 0.30012 0.09673 0.62726 0.0
C1382 C 0.34913 0.04034 0.62509 0.0
C1383 C 0.37623 1.01644 0.62396 0.0
C1384 C 0.34539 0.09893 0.62238 0.0
C1385 C 0.39946 0.05209 0.61946 0.0
C1386 C 0.39589 0.11024 0.61665 0.0
C1387 C 0.36535 0.19294 0.61625 0.0
C1388 C 0.33837 0.21716 0.61836 0.0
C1389 C 0.36899 0.13423 0.61831 0.0
C1390 C 0.31504 0.18136 0.62215 0.0
C1391 C 0.3185 0.12298 0.62408 0.0
H1392 H 0.66852 0.85871 0.61183 0.0
H1393 H 0.5807 0.81188 0.60936 0.0
H1394 H 0.5672 0.91013 0.61555 0.0
H1395 H 0.58014 1.00974 0.62132 0.0
H1396 H 0.66793 0.05671 0.62377 0.0
H1397 H 0.68146 0.95855 0.61717 0.0
C1398 C 0.64641 0.86995 0.61237 0.0
C1399 C 0.62572 0.82749 0.61021 0.0
C1400 C 0.63872 0.92683 0.61575 0.0
C1401 C 0.59717 0.84319 0.61138 0.0
C1402 C 0.58938 0.89957 0.61475 0.0
C1403 C 0.60226 0.99855 0.62061 0.0
C1404 C 0.62293 0.04096 0.62304 0.0
C1405 C 0.60996 0.94176 0.61702 0.0
C1406 C 0.65148 1.0254 0.62161 0.0
C1407 C 0.65928 0.96907 0.61801 0.0
loop_
_geom_bond_atom_site_label_1
_geom_bond_atom_site_label_2
_geom_bond_distance
_geom_bond_site_symmetry_2
_ccdc_geom_bond_type
Dy0 O3 2.307 . S
Dy0 O5 2.395 . S
Dy0 O6 2.379 . S
Dy0 O8 2.339 . S
Dy0 O10 2.298 . S
Dy0 O14 2.275 . S
Dy0 C22 2.738 . S
Dy1 O4 2.298 . S
Dy1 O7 2.275 . S
Dy1 O9 2.307 . S
Dy1 O11 2.395 1_545 S
Dy1 O12 2.379 1_545 S
Dy1 O15 2.339 . S
Dy1 C31 2.738 1_545 S
C2 O14 1.254 . S
C2 O15 1.257 . S
O3 Dy0 2.307 . S
O3 C13 1.266 . S
O4 Dy1 2.298 . S
O4 C13 1.236 . S
O5 Dy0 2.395 . S
O5 C22 1.255 . S
O6 Dy0 2.379 . S
O6 C22 1.249 . S
O7 Dy1 2.275 . S
O7 C23 1.254 . S
O8 Dy0 2.339 . S
O8 C23 1.257 . S
O9 Dy1 2.307 . S
O9 C24 1.266 . S
O10 Dy0 2.298 . S
O10 C24 1.236 . S
O11 Dy1 2.395 1_565 S
O11 C31 1.255 . S
O12 Dy1 2.379 1_565 S
O12 C31 1.249 . S
C13 O3 1.266 . S
C13 O4 1.236 . S
O14 Dy0 2.275 . S
O14 C2 1.254 . S
O15 Dy1 2.339 . S
O15 C2 1.257 . S
C16 C19 1.344 . S
C16 C20 1.328 . S
C16 C22 1.516 . S
C17 C18 1.304 . S
C17 C21 1.323 . S
C18 C17 1.304 . S
C18 C19 1.371 . S
C18 H32 0.930 . S
C19 C16 1.344 . S
C19 C18 1.371 . S
C19 H33 0.931 . S
C20 C16 1.328 . S
C20 C21 1.433 . S
C20 H34 0.931 . S
C21 C17 1.323 . S
C21 C20 1.433 . S
C21 H35 0.933 . S
C22 Dy0 2.738 . S
C22 O5 1.255 . S
C22 O6 1.249 . S
C22 C16 1.516 . S
C23 O7 1.254 . S
C23 O8 1.257 . S
C24 O9 1.266 . S
C24 O10 1.236 . S
C25 C28 1.344 . S
C25 C29 1.328 . S
C25 C31 1.516 . S
C26 C27 1.304 . S
C26 C30 1.323 . S
C27 C26 1.304 . S
C27 C28 1.371 . S
C27 H36 0.930 . S
C28 C25 1.344 . S
C28 C27 1.371 . S
C28 H37 0.931 . S
C29 C25 1.328 . S
C29 C30 1.433 . S
C29 H38 0.931 . S
C30 C26 1.323 . S
C30 C29 1.433 . S
C30 H39 0.933 . S
C31 Dy1 2.738 1_565 S
C31 O11 1.255 . S
C31 O12 1.249 . S
C31 C25 1.516 . S
H32 C18 0.930 . S
H33 C19 0.931 . S
H34 C20 0.931 . S
H35 C21 0.933 . S
H36 C27 0.930 . S
H37 C28 0.931 . S
H38 C29 0.931 . S
H39 C30 0.933 . S
Dy40 O43 2.307 . S
Dy40 O45 2.395 . S
Dy40 O46 2.379 . S
Dy40 O48 2.339 . S
Dy40 O50 2.298 . S
Dy40 O54 2.275 . S
Dy40 C62 2.738 . S
Dy41 O44 2.298 . S
Dy41 O47 2.275 . S
Dy41 O49 2.307 . S
Dy41 O51 2.395 1_565 S
Dy41 O52 2.379 1_565 S
Dy41 O55 2.339 . S
Dy41 C71 2.738 1_565 S
C42 O54 1.254 . S
C42 O55 1.257 . S
O43 Dy40 2.307 . S
O43 C53 1.266 . S
O44 Dy41 2.298 . S
O44 C53 1.236 . S
O45 Dy40 2.395 . S
O45 C62 1.255 . S
O46 Dy40 2.379 . S
O46 C62 1.249 . S
O47 Dy41 2.275 . S
O47 C63 1.254 . S
O48 Dy40 2.339 . S
O48 C63 1.257 . S
O49 Dy41 2.307 . S
O49 C64 1.266 . S
O50 Dy40 2.298 . S
O50 C64 1.236 . S
O51 Dy41 2.395 1_545 S
O51 C71 1.255 . S
O52 Dy41 2.379 1_545 S
O52 C71 1.249 . S
C53 O43 1.266 . S
C53 O44 1.236 . S
O54 Dy40 2.275 . S
O54 C42 1.254 . S
O55 Dy41 2.339 . S
O55 C42 1.257 . S
C56 C59 1.344 . S
C56 C60 1.328 . S
C56 C62 1.516 . S
C57 C58 1.304 . S
C57 C61 1.323 . S
C58 C57 1.304 . S
C58 C59 1.371 . S
C58 H72 0.930 . S
C59 C56 1.344 . S
C59 C58 1.371 . S
C59 H73 0.931 . S
C60 C56 1.328 . S
C60 C61 1.433 . S
C60 H74 0.931 . S
C61 C57 1.323 . S
C61 C60 1.433 . S
C61 H75 0.933 . S
C62 Dy40 2.738 . S
C62 O45 1.255 . S
C62 O46 1.249 . S
C62 C56 1.516 . S
C63 O47 1.254 . S
C63 O48 1.257 . S
C64 O49 1.266 . S
C64 O50 1.236 . S
C65 C68 1.344 . S
C65 C69 1.328 . S
C65 C71 1.516 . S
C66 C67 1.304 . S
C66 C70 1.323 . S
C67 C66 1.304 . S
C67 C68 1.371 . S
C67 H76 0.930 . S
C68 C65 1.344 . S
C68 C67 1.371 . S
C68 H77 0.931 . S
C69 C65 1.328 . S
C69 C70 1.433 . S
C69 H78 0.931 . S
C70 C66 1.323 . S
C70 C69 1.433 . S
C70 H79 0.933 . S
C71 Dy41 2.738 1_545 S
C71 O51 1.255 . S
C71 O52 1.249 . S
C71 C65 1.516 . S
H72 C58 0.930 . S
H73 C59 0.931 . S
H74 C60 0.931 . S
H75 C61 0.933 . S
H76 C67 0.930 . S
H77 C68 0.931 . S
H78 C69 0.931 . S
H79 C70 0.933 . S
Dy80 O83 2.307 . S
Dy80 O85 2.395 . S
Dy80 O86 2.379 . S
Dy80 O88 2.339 . S
Dy80 O90 2.298 . S
Dy80 O94 2.275 . S
Dy80 C102 2.738 . S
Dy81 O84 2.298 . S
Dy81 O87 2.275 . S
Dy81 O89 2.307 . S
Dy81 O91 2.395 1_565 S
Dy81 O92 2.379 1_565 S
Dy81 O95 2.339 . S
Dy81 C111 2.738 1_565 S
C82 O94 1.254 . S
C82 O95 1.257 . S
O83 Dy80 2.307 . S
O83 C93 1.266 . S
O84 Dy81 2.298 . S
O84 C93 1.236 . S
O85 Dy80 2.395 . S
O85 C102 1.255 . S
O86 Dy80 2.379 . S
O86 C102 1.249 . S
O87 Dy81 2.275 . S
O87 C103 1.254 . S
O88 Dy80 2.339 . S
O88 C103 1.257 . S
O89 Dy81 2.307 . S
O89 C104 1.266 . S
O90 Dy80 2.298 . S
O90 C104 1.236 . S
O91 Dy81 2.395 1_545 S
O91 C111 1.255 . S
O92 Dy81 2.379 1_545 S
O92 C111 1.249 . S
C93 O83 1.266 . S
C93 O84 1.236 . S
O94 Dy80 2.275 . S
O94 C82 1.254 . S
O95 Dy81 2.339 . S
O95 C82 1.257 . S
C96 C99 1.344 . S
C96 C100 1.328 . S
C96 C102 1.516 . S
C97 C98 1.304 . S
C97 C101 1.323 . S
C98 C97 1.304 . S
C98 C99 1.371 . S
C98 H112 0.930 . S
C99 C96 1.344 . S
C99 C98 1.371 . S
C99 H113 0.931 . S
C100 C96 1.328 . S
C100 C101 1.433 . S
C100 H114 0.931 . S
C101 C97 1.323 . S
C101 C100 1.433 . S
C101 H115 0.933 . S
C102 Dy80 2.738 . S
C102 O85 1.255 . S
C102 O86 1.249 . S
C102 C96 1.516 . S
C103 O87 1.254 . S
C103 O88 1.257 . S
C104 O89 1.266 . S
C104 O90 1.236 . S
C105 C108 1.344 . S
C105 C109 1.328 . S
C105 C111 1.516 . S
C106 C107 1.304 . S
C106 C110 1.323 . S
C107 C106 1.304 . S
C107 C108 1.371 . S
C107 H116 0.930 . S
C108 C105 1.344 . S
C108 C107 1.371 . S
C108 H117 0.931 . S
C109 C105 1.328 . S
C109 C110 1.433 . S
C109 H118 0.931 . S
C110 C106 1.323 . S
C110 C109 1.433 . S
C110 H119 0.933 . S
C111 Dy81 2.738 1_545 S
C111 O91 1.255 . S
C111 O92 1.249 . S
C111 C105 1.516 . S
H112 C98 0.930 . S
H113 C99 0.931 . S
H114 C100 0.931 . S
H115 C101 0.933 . S
H116 C107 0.930 . S
H117 C108 0.931 . S
H118 C109 0.931 . S
H119 C110 0.933 . S
Dy120 O123 2.307 . S
Dy120 O125 2.395 . S
Dy120 O126 2.379 . S
Dy120 O128 2.339 . S
Dy120 O130 2.298 . S
Dy120 O134 2.275 . S
Dy120 C142 2.738 . S
Dy121 O124 2.298 . S
Dy121 O127 2.275 . S
Dy121 O129 2.307 . S
Dy121 O131 2.395 1_545 S
Dy121 O132 2.379 1_545 S
Dy121 O135 2.339 . S
Dy121 C151 2.738 1_545 S
C122 O134 1.254 . S
C122 O135 1.257 . S
O123 Dy120 2.307 . S
O123 C133 1.266 . S
O124 Dy121 2.298 . S
O124 C133 1.236 . S
O125 Dy120 2.395 . S
O125 C142 1.255 . S
O126 Dy120 2.379 . S
O126 C142 1.249 . S
O127 Dy121 2.275 . S
O127 C143 1.254 . S
O128 Dy120 2.339 . S
O128 C143 1.257 . S
O129 Dy121 2.307 . S
O129 C144 1.266 . S
O130 Dy120 2.298 . S
O130 C144 1.236 . S
O131 Dy121 2.395 1_565 S
O131 C151 1.255 . S
O132 Dy121 2.379 1_565 S
O132 C151 1.249 . S
C133 O123 1.266 . S
C133 O124 1.236 . S
O134 Dy120 2.275 . S
O134 C122 1.254 . S
O135 Dy121 2.339 . S
O135 C122 1.257 . S
C136 C139 1.344 . S
C136 C140 1.328 . S
C136 C142 1.516 . S
C137 C138 1.304 . S
C137 C141 1.323 . S
C138 C137 1.304 . S
C138 C139 1.371 . S
C138 H152 0.930 . S
C139 C136 1.344 . S
C139 C138 1.371 . S
C139 H153 0.931 . S
C140 C136 1.328 . S
C140 C141 1.433 . S
C140 H154 0.931 . S
C141 C137 1.323 . S
C141 C140 1.433 . S
C141 H155 0.933 . S
C142 Dy120 2.738 . S
C142 O125 1.255 . S
C142 O126 1.249 . S
C142 C136 1.516 . S
C143 O127 1.254 . S
C143 O128 1.257 . S
C144 O129 1.266 . S
C144 O130 1.236 . S
C145 C148 1.344 . S
C145 C149 1.328 . S
C145 C151 1.516 . S
C146 C147 1.304 . S
C146 C150 1.323 . S
C147 C146 1.304 . S
C147 C148 1.371 . S
C147 H156 0.930 . S
C148 C145 1.344 . S
C148 C147 1.371 . S
C148 H157 0.931 . S
C149 C145 1.328 . S
C149 C150 1.433 . S
C149 H158 0.931 . S
C150 C146 1.323 . S
C150 C149 1.433 . S
C150 H159 0.933 . S
C151 Dy121 2.738 1_565 S
C151 O131 1.255 . S
C151 O132 1.249 . S
C151 C145 1.516 . S
H152 C138 0.930 . S
H153 C139 0.931 . S
H154 C140 0.931 . S
H155 C141 0.933 . S
H156 C147 0.930 . S
H157 C148 0.931 . S
H158 C149 0.931 . S
H159 C150 0.933 . S
Dy160 O163 2.307 . S
Dy160 O165 2.395 1_565 S
Dy160 O166 2.379 1_565 S
Dy160 O168 2.339 . S
Dy160 O170 2.298 . S
Dy160 O174 2.275 . S
Dy160 C182 2.738 1_565 S
Dy161 O164 2.298 . S
Dy161 O167 2.275 . S
Dy161 O169 2.307 . S
Dy161 O171 2.395 . S
Dy161 O172 2.379 . S
Dy161 O175 2.339 . S
Dy161 C191 2.738 . S
C162 O174 1.254 . S
C162 O175 1.257 . S
O163 Dy160 2.307 . S
O163 C173 1.266 . S
O164 Dy161 2.298 . S
O164 C173 1.236 . S
O165 Dy160 2.395 1_545 S
O165 C182 1.255 . S
O166 Dy160 2.379 1_545 S
O166 C182 1.249 . S
O167 Dy161 2.275 . S
O167 C183 1.254 . S
O168 Dy160 2.339 . S
O168 C183 1.257 . S
O169 Dy161 2.307 . S
O169 C184 1.266 . S
O170 Dy160 2.298 . S
O170 C184 1.236 . S
O171 Dy161 2.395 . S
O171 C191 1.255 . S
O172 Dy161 2.379 . S
O172 C191 1.249 . S
C173 O163 1.266 . S
C173 O164 1.236 . S
O174 Dy160 2.275 . S
O174 C162 1.254 . S
O175 Dy161 2.339 . S
O175 C162 1.257 . S
C176 C179 1.344 . S
C176 C180 1.328 . S
C176 C182 1.516 . S
C177 C178 1.304 . S
C177 C181 1.323 . S
C178 C177 1.304 . S
C178 C179 1.371 . S
C178 H192 0.930 . S
C179 C176 1.344 . S
C179 C178 1.371 . S
C179 H193 0.931 . S
C180 C176 1.328 . S
C180 C181 1.433 . S
C180 H194 0.931 . S
C181 C177 1.323 . S
C181 C180 1.433 . S
C181 H195 0.933 . S
C182 Dy160 2.738 1_545 S
C182 O165 1.255 . S
C182 O166 1.249 . S
C182 C176 1.516 . S
C183 O167 1.254 . S
C183 O168 1.257 . S
C184 O169 1.266 . S
C184 O170 1.236 . S
C185 C188 1.344 . S
C185 C189 1.328 . S
C185 C191 1.516 . S
C186 C187 1.304 . S
C186 C190 1.323 . S
C187 C186 1.304 . S
C187 C188 1.371 . S
C187 H196 0.930 . S
C188 C185 1.344 . S
C188 C187 1.371 . S
C188 H197 0.931 . S
C189 C185 1.328 . S
C189 C190 1.433 . S
C189 H198 0.931 . S
C190 C186 1.323 . S
C190 C189 1.433 . S
C190 H199 0.933 . S
C191 Dy161 2.738 . S
C191 O171 1.255 . S
C191 O172 1.249 . S
C191 C185 1.516 . S
H192 C178 0.930 . S
H193 C179 0.931 . S
H194 C180 0.931 . S
H195 C181 0.933 . S
H196 C187 0.930 . S
H197 C188 0.931 . S
H198 C189 0.931 . S
H199 C190 0.933 . S
Dy200 O203 2.307 . S
Dy200 O205 2.395 1_545 S
Dy200 O206 2.379 1_545 S
Dy200 O208 2.339 . S
Dy200 O210 2.298 . S
Dy200 O214 2.275 . S
Dy200 C222 2.738 1_545 S
Dy201 O204 2.298 . S
Dy201 O207 2.275 . S
Dy201 O209 2.307 . S
Dy201 O211 2.395 . S
Dy201 O212 2.379 . S
Dy201 O215 2.339 . S
Dy201 C231 2.738 . S
C202 O214 1.254 . S
C202 O215 1.257 . S
O203 Dy200 2.307 . S
O203 C213 1.266 . S
O204 Dy201 2.298 . S
O204 C213 1.236 . S
O205 Dy200 2.395 1_565 S
O205 C222 1.255 . S
O206 Dy200 2.379 1_565 S
O206 C222 1.249 . S
O207 Dy201 2.275 . S
O207 C223 1.254 . S
O208 Dy200 2.339 . S
O208 C223 1.257 . S
O209 Dy201 2.307 . S
O209 C224 1.266 . S
O210 Dy200 2.298 . S
O210 C224 1.236 . S
O211 Dy201 2.395 . S
O211 C231 1.255 . S
O212 Dy201 2.379 . S
O212 C231 1.249 . S
C213 O203 1.266 . S
C213 O204 1.236 . S
O214 Dy200 2.275 . S
O214 C202 1.254 . S
O215 Dy201 2.339 . S
O215 C202 1.257 . S
C216 C219 1.344 . S
C216 C220 1.328 . S
C216 C222 1.516 . S
C217 C218 1.304 . S
C217 C221 1.323 . S
C218 C217 1.304 . S
C218 C219 1.371 . S
C218 H232 0.930 . S
C219 C216 1.344 . S
C219 C218 1.371 . S
C219 H233 0.931 . S
C220 C216 1.328 . S
C220 C221 1.433 . S
C220 H234 0.931 . S
C221 C217 1.323 . S
C221 C220 1.433 . S
C221 H235 0.933 . S
C222 Dy200 2.738 1_565 S
C222 O205 1.255 . S
C222 O206 1.249 . S
C222 C216 1.516 . S
C223 O207 1.254 . S
C223 O208 1.257 . S
C224 O209 1.266 . S
C224 O210 1.236 . S
C225 C228 1.344 . S
C225 C229 1.328 . S
C225 C231 1.516 . S
C226 C227 1.304 . S
C226 C230 1.323 . S
C227 C226 1.304 . S
C227 C228 1.371 . S
C227 H236 0.930 . S
C228 C225 1.344 . S
C228 C227 1.371 . S
C228 H237 0.931 . S
C229 C225 1.328 . S
C229 C230 1.433 . S
C229 H238 0.931 . S
C230 C226 1.323 . S
C230 C229 1.433 . S
C230 H239 0.933 . S
C231 Dy201 2.738 . S
C231 O211 1.255 . S
C231 O212 1.249 . S
C231 C225 1.516 . S
H232 C218 0.930 . S
H233 C219 0.931 . S
H234 C220 0.931 . S
H235 C221 0.933 . S
H236 C227 0.930 . S
H237 C228 0.931 . S
H238 C229 0.931 . S
H239 C230 0.933 . S
Dy240 O243 2.307 . S
Dy240 O245 2.395 1_545 S
Dy240 O246 2.379 1_545 S
Dy240 O248 2.339 . S
Dy240 O250 2.298 . S
Dy240 O254 2.275 . S
Dy240 C262 2.738 1_545 S
Dy241 O244 2.298 . S
Dy241 O247 2.275 . S
Dy241 O249 2.307 . S
Dy241 O251 2.395 . S
Dy241 O252 2.379 . S
Dy241 O255 2.339 . S
Dy241 C271 2.738 . S
C242 O254 1.254 . S
C242 O255 1.257 . S
O243 Dy240 2.307 . S
O243 C253 1.266 . S
O244 Dy241 2.298 . S
O244 C253 1.236 . S
O245 Dy240 2.395 1_565 S
O245 C262 1.255 . S
O246 Dy240 2.379 1_565 S
O246 C262 1.249 . S
O247 Dy241 2.275 . S
O247 C263 1.254 . S
O248 Dy240 2.339 . S
O248 C263 1.257 . S
O249 Dy241 2.307 . S
O249 C264 1.266 . S
O250 Dy240 2.298 . S
O250 C264 1.236 . S
O251 Dy241 2.395 . S
O251 C271 1.255 . S
O252 Dy241 2.379 . S
O252 C271 1.249 . S
C253 O243 1.266 . S
C253 O244 1.236 . S
O254 Dy240 2.275 . S
O254 C242 1.254 . S
O255 Dy241 2.339 . S
O255 C242 1.257 . S
C256 C259 1.344 . S
C256 C260 1.328 . S
C256 C262 1.516 . S
C257 C258 1.304 . S
C257 C261 1.323 . S
C258 C257 1.304 . S
C258 C259 1.371 . S
C258 H272 0.930 . S
C259 C256 1.344 . S
C259 C258 1.371 . S
C259 H273 0.931 . S
C260 C256 1.328 . S
C260 C261 1.433 . S
C260 H274 0.931 . S
C261 C257 1.323 . S
C261 C260 1.433 . S
C261 H275 0.933 . S
C262 Dy240 2.738 1_565 S
C262 O245 1.255 . S
C262 O246 1.249 . S
C262 C256 1.516 . S
C263 O247 1.254 . S
C263 O248 1.257 . S
C264 O249 1.266 . S
C264 O250 1.236 . S
C265 C268 1.344 . S
C265 C269 1.328 . S
C265 C271 1.516 . S
C266 C267 1.304 . S
C266 C270 1.323 . S
C267 C266 1.304 . S
C267 C268 1.371 . S
C267 H276 0.930 . S
C268 C265 1.344 . S
C268 C267 1.371 . S
C268 H277 0.931 . S
C269 C265 1.328 . S
C269 C270 1.433 . S
C269 H278 0.931 . S
C270 C266 1.323 . S
C270 C269 1.433 . S
C270 H279 0.933 . S
C271 Dy241 2.738 . S
C271 O251 1.255 . S
C271 O252 1.249 . S
C271 C265 1.516 . S
H272 C258 0.930 . S
H273 C259 0.931 . S
H274 C260 0.931 . S
H275 C261 0.933 . S
H276 C267 0.930 . S
H277 C268 0.931 . S
H278 C269 0.931 . S
H279 C270 0.933 . S
Dy280 O283 2.307 . S
Dy280 O285 2.395 1_565 S
Dy280 O286 2.379 1_565 S
Dy280 O288 2.339 . S
Dy280 O290 2.298 . S
Dy280 O294 2.275 . S
Dy280 C302 2.738 1_565 S
Dy281 O284 2.298 . S
Dy281 O287 2.275 . S
Dy281 O289 2.307 . S
Dy281 O291 2.395 . S
Dy281 O292 2.379 . S
Dy281 O295 2.339 . S
Dy281 C311 2.738 . S
C282 O294 1.254 . S
C282 O295 1.257 . S
O283 Dy280 2.307 . S
O283 C293 1.266 . S
O284 Dy281 2.298 . S
O284 C293 1.236 . S
O285 Dy280 2.395 1_545 S
O285 C302 1.255 . S
O286 Dy280 2.379 1_545 S
O286 C302 1.249 . S
O287 Dy281 2.275 . S
O287 C303 1.254 . S
O288 Dy280 2.339 . S
O288 C303 1.257 . S
O289 Dy281 2.307 . S
O289 C304 1.266 . S
O290 Dy280 2.298 . S
O290 C304 1.236 . S
O291 Dy281 2.395 . S
O291 C311 1.255 . S
O292 Dy281 2.379 . S
O292 C311 1.249 . S
C293 O283 1.266 . S
C293 O284 1.236 . S
O294 Dy280 2.275 . S
O294 C282 1.254 . S
O295 Dy281 2.339 . S
O295 C282 1.257 . S
C296 C299 1.344 . S
C296 C300 1.328 . S
C296 C302 1.516 . S
C297 C298 1.304 . S
C297 C301 1.323 . S
C298 C297 1.304 . S
C298 C299 1.371 . S
C298 H312 0.930 . S
C299 C296 1.344 . S
C299 C298 1.371 . S
C299 H313 0.931 . S
C300 C296 1.328 . S
C300 C301 1.433 . S
C300 H314 0.931 . S
C301 C297 1.323 . S
C301 C300 1.433 . S
C301 H315 0.933 . S
C302 Dy280 2.738 1_545 S
C302 O285 1.255 . S
C302 O286 1.249 . S
C302 C296 1.516 . S
C303 O287 1.254 . S
C303 O288 1.257 . S
C304 O289 1.266 . S
C304 O290 1.236 . S
C305 C308 1.344 . S
C305 C309 1.328 . S
C305 C311 1.516 . S
C306 C307 1.304 . S
C306 C310 1.323 . S
C307 C306 1.304 . S
C307 C308 1.371 . S
C307 H316 0.930 . S
C308 C305 1.344 . S
C308 C307 1.371 . S
C308 H317 0.931 . S
C309 C305 1.328 . S
C309 C310 1.433 . S
C309 H318 0.931 . S
C310 C306 1.323 . S
C310 C309 1.433 . S
C310 H319 0.933 . S
C311 Dy281 2.738 . S
C311 O291 1.255 . S
C311 O292 1.249 . S
C311 C305 1.516 . S
H312 C298 0.930 . S
H313 C299 0.931 . S
H314 C300 0.931 . S
H315 C301 0.933 . S
H316 C307 0.930 . S
H317 C308 0.931 . S
H318 C309 0.931 . S
H319 C310 0.933 . S
Dy320 O323 2.307 . S
Dy320 O325 2.395 . S
Dy320 O326 2.379 . S
Dy320 O328 2.339 . S
Dy320 O330 2.298 . S
Dy320 O334 2.275 . S
Dy320 C342 2.738 . S
Dy321 O324 2.298 . S
Dy321 O327 2.275 . S
Dy321 O329 2.307 . S
Dy321 O331 2.395 . S
Dy321 O332 2.379 . S
Dy321 O335 2.339 . S
Dy321 C351 2.738 . S
C322 O334 1.254 . S
C322 O335 1.257 . S
O323 Dy320 2.307 . S
O323 C333 1.266 . S
O324 Dy321 2.298 . S
O324 C333 1.236 . S
O325 Dy320 2.395 . S
O325 C342 1.255 . S
O326 Dy320 2.379 . S
O326 C342 1.249 . S
O327 Dy321 2.275 . S
O327 C343 1.254 . S
O328 Dy320 2.339 . S
O328 C343 1.257 . S
O329 Dy321 2.307 . S
O329 C344 1.266 . S
O330 Dy320 2.298 . S
O330 C344 1.236 . S
O331 Dy321 2.395 . S
O331 C351 1.255 . S
O332 Dy321 2.379 . S
O332 C351 1.249 . S
C333 O323 1.266 . S
C333 O324 1.236 . S
O334 Dy320 2.275 . S
O334 C322 1.254 . S
O335 Dy321 2.339 . S
O335 C322 1.257 . S
C336 C339 1.344 . S
C336 C340 1.328 . S
C336 C342 1.516 . S
C337 C338 1.304 . S
C337 C341 1.323 . S
C338 C337 1.304 . S
C338 C339 1.371 . S
C338 H352 0.930 . S
C339 C336 1.344 . S
C339 C338 1.371 . S
C339 H353 0.931 . S
C340 C336 1.328 . S
C340 C341 1.433 . S
C340 H354 0.931 . S
C341 C337 1.323 . S
C341 C340 1.433 . S
C341 H355 0.933 . S
C342 Dy320 2.738 . S
C342 O325 1.255 . S
C342 O326 1.249 . S
C342 C336 1.516 . S
C343 O327 1.254 . S
C343 O328 1.257 . S
C344 O329 1.266 . S
C344 O330 1.236 . S
C345 C348 1.344 . S
C345 C349 1.328 . S
C345 C351 1.516 . S
C346 C347 1.304 . S
C346 C350 1.323 . S
C347 C346 1.304 . S
C347 C348 1.371 . S
C347 H356 0.930 . S
C348 C345 1.344 . S
C348 C347 1.371 . S
C348 H357 0.931 . S
C349 C345 1.328 . S
C349 C350 1.433 . S
C349 H358 0.931 . S
C350 C346 1.323 . S
C350 C349 1.433 . S
C350 H359 0.933 . S
C351 Dy321 2.738 . S
C351 O331 1.255 . S
C351 O332 1.249 . S
C351 C345 1.516 . S
H352 C338 0.930 . S
H353 C339 0.931 . S
H354 C340 0.931 . S
H355 C341 0.933 . S
H356 C347 0.930 . S
H357 C348 0.931 . S
H358 C349 0.931 . S
H359 C350 0.933 . S
Dy360 O363 2.307 . S
Dy360 O365 2.395 . S
Dy360 O366 2.379 . S
Dy360 O368 2.339 . S
Dy360 O370 2.298 . S
Dy360 O374 2.275 . S
Dy360 C382 2.738 . S
Dy361 O364 2.298 . S
Dy361 O367 2.275 . S
Dy361 O369 2.307 . S
Dy361 O371 2.395 . S
Dy361 O372 2.379 . S
Dy361 O375 2.339 . S
Dy361 C391 2.738 . S
C362 O374 1.254 . S
C362 O375 1.257 . S
O363 Dy360 2.307 . S
O363 C373 1.266 . S
O364 Dy361 2.298 . S
O364 C373 1.236 . S
O365 Dy360 2.395 . S
O365 C382 1.255 . S
O366 Dy360 2.379 . S
O366 C382 1.249 . S
O367 Dy361 2.275 . S
O367 C383 1.254 . S
O368 Dy360 2.339 . S
O368 C383 1.257 . S
O369 Dy361 2.307 . S
O369 C384 1.266 . S
O370 Dy360 2.298 . S
O370 C384 1.236 . S
O371 Dy361 2.395 . S
O371 C391 1.255 . S
O372 Dy361 2.379 . S
O372 C391 1.249 . S
C373 O363 1.266 . S
C373 O364 1.236 . S
O374 Dy360 2.275 . S
O374 C362 1.254 . S
O375 Dy361 2.339 . S
O375 C362 1.257 . S
C376 C379 1.344 . S
C376 C380 1.328 . S
C376 C382 1.516 . S
C377 C378 1.304 . S
C377 C381 1.323 . S
C378 C377 1.304 . S
C378 C379 1.371 . S
C378 H392 0.930 . S
C379 C376 1.344 . S
C379 C378 1.371 . S
C379 H393 0.931 . S
C380 C376 1.328 . S
C380 C381 1.433 . S
C380 H394 0.931 . S
C381 C377 1.323 . S
C381 C380 1.433 . S
C381 H395 0.933 . S
C382 Dy360 2.738 . S
C382 O365 1.255 . S
C382 O366 1.249 . S
C382 C376 1.516 . S
C383 O367 1.254 . S
C383 O368 1.257 . S
C384 O369 1.266 . S
C384 O370 1.236 . S
C385 C388 1.344 . S
C385 C389 1.328 . S
C385 C391 1.516 . S
C386 C387 1.304 . S
C386 C390 1.323 . S
C387 C386 1.304 . S
C387 C388 1.371 . S
C387 H396 0.930 . S
C388 C385 1.344 . S
C388 C387 1.371 . S
C388 H397 0.931 . S
C389 C385 1.328 . S
C389 C390 1.433 . S
C389 H398 0.931 . S
C390 C386 1.323 . S
C390 C389 1.433 . S
C390 H399 0.933 . S
C391 Dy361 2.738 . S
C391 O371 1.255 . S
C391 O372 1.249 . S
C391 C385 1.516 . S
H392 C378 0.930 . S
H393 C379 0.931 . S
H394 C380 0.931 . S
H395 C381 0.933 . S
H396 C387 0.930 . S
H397 C388 0.931 . S
H398 C389 0.931 . S
H399 C390 0.933 . S
Dy400 O403 2.307 . S
Dy400 O405 2.395 . S
Dy400 O406 2.379 . S
Dy400 O408 2.339 . S
Dy400 O410 2.298 . S
Dy400 O414 2.275 . S
Dy400 C422 2.738 . S
Dy401 O404 2.298 . S
Dy401 O407 2.275 . S
Dy401 O409 2.307 . S
Dy401 O411 2.395 . S
Dy401 O412 2.379 . S
Dy401 O415 2.339 . S
Dy401 C431 2.738 . S
C402 O414 1.254 . S
C402 O415 1.257 . S
O403 Dy400 2.307 . S
O403 C413 1.266 . S
O404 Dy401 2.298 . S
O404 C413 1.236 . S
O405 Dy400 2.395 . S
O405 C422 1.255 . S
O406 Dy400 2.379 . S
O406 C422 1.249 . S
O407 Dy401 2.275 . S
O407 C423 1.254 . S
O408 Dy400 2.339 . S
O408 C423 1.257 . S
O409 Dy401 2.307 . S
O409 C424 1.266 . S
O410 Dy400 2.298 . S
O410 C424 1.236 . S
O411 Dy401 2.395 . S
O411 C431 1.255 . S
O412 Dy401 2.379 . S
O412 C431 1.249 . S
C413 O403 1.266 . S
C413 O404 1.236 . S
O414 Dy400 2.275 . S
O414 C402 1.254 . S
O415 Dy401 2.339 . S
O415 C402 1.257 . S
C416 C419 1.344 . S
C416 C420 1.328 . S
C416 C422 1.516 . S
C417 C418 1.304 . S
C417 C421 1.323 . S
C418 C417 1.304 . S
C418 C419 1.371 . S
C418 H432 0.930 . S
C419 C416 1.344 . S
C419 C418 1.371 . S
C419 H433 0.931 . S
C420 C416 1.328 . S
C420 C421 1.433 . S
C420 H434 0.931 . S
C421 C417 1.323 . S
C421 C420 1.433 . S
C421 H435 0.933 . S
C422 Dy400 2.738 . S
C422 O405 1.255 . S
C422 O406 1.249 . S
C422 C416 1.516 . S
C423 O407 1.254 . S
C423 O408 1.257 . S
C424 O409 1.266 . S
C424 O410 1.236 . S
C425 C428 1.344 . S
C425 C429 1.328 . S
C425 C431 1.516 . S
C426 C427 1.304 . S
C426 C430 1.323 . S
C427 C426 1.304 . S
C427 C428 1.371 . S
C427 H436 0.930 . S
C428 C425 1.344 . S
C428 C427 1.371 . S
C428 H437 0.931 . S
C429 C425 1.328 . S
C429 C430 1.433 . S
C429 H438 0.931 . S
C430 C426 1.323 . S
C430 C429 1.433 . S
C430 H439 0.933 . S
C431 Dy401 2.738 . S
C431 O411 1.255 . S
C431 O412 1.249 . S
C431 C425 1.516 . S
H432 C418 0.930 . S
H433 C419 0.931 . S
H434 C420 0.931 . S
H435 C421 0.933 . S
H436 C427 0.930 . S
H437 C428 0.931 . S
H438 C429 0.931 . S
H439 C430 0.933 . S
Dy440 O443 2.307 . S
Dy440 O445 2.395 . S
Dy440 O446 2.379 . S
Dy440 O448 2.339 . S
Dy440 O450 2.298 . S
Dy440 O454 2.275 . S
Dy440 C462 2.738 . S
Dy441 O444 2.298 . S
Dy441 O447 2.275 . S
Dy441 O449 2.307 . S
Dy441 O451 2.395 . S
Dy441 O452 2.379 . S
Dy441 O455 2.339 . S
Dy441 C471 2.738 . S
C442 O454 1.254 . S
C442 O455 1.257 . S
O443 Dy440 2.307 . S
O443 C453 1.266 . S
O444 Dy441 2.298 . S
O444 C453 1.236 . S
O445 Dy440 2.395 . S
O445 C462 1.255 . S
O446 Dy440 2.379 . S
O446 C462 1.249 . S
O447 Dy441 2.275 . S
O447 C463 1.254 . S
O448 Dy440 2.339 . S
O448 C463 1.257 . S
O449 Dy441 2.307 . S
O449 C464 1.266 . S
O450 Dy440 2.298 . S
O450 C464 1.236 . S
O451 Dy441 2.395 . S
O451 C471 1.255 . S
O452 Dy441 2.379 . S
O452 C471 1.249 . S
C453 O443 1.266 . S
C453 O444 1.236 . S
O454 Dy440 2.275 . S
O454 C442 1.254 . S
O455 Dy441 2.339 . S
O455 C442 1.257 . S
C456 C459 1.344 . S
C456 C460 1.328 . S
C456 C462 1.516 . S
C457 C458 1.304 . S
C457 C461 1.323 . S
C458 C457 1.304 . S
C458 C459 1.371 . S
C458 H472 0.930 . S
C459 C456 1.344 . S
C459 C458 1.371 . S
C459 H473 0.931 . S
C460 C456 1.328 . S
C460 C461 1.433 . S
C460 H474 0.931 . S
C461 C457 1.323 . S
C461 C460 1.433 . S
C461 H475 0.933 . S
C462 Dy440 2.738 . S
C462 O445 1.255 . S
C462 O446 1.249 . S
C462 C456 1.516 . S
C463 O447 1.254 . S
C463 O448 1.257 . S
C464 O449 1.266 . S
C464 O450 1.236 . S
C465 C468 1.344 . S
C465 C469 1.328 . S
C465 C471 1.516 . S
C466 C467 1.304 . S
C466 C470 1.323 . S
C467 C466 1.304 . S
C467 C468 1.371 . S
C467 H476 0.930 . S
C468 C465 1.344 . S
C468 C467 1.371 . S
C468 H477 0.931 . S
C469 C465 1.328 . S
C469 C470 1.433 . S
C469 H478 0.931 . S
C470 C466 1.323 . S
C470 C469 1.433 . S
C470 H479 0.933 . S
C471 Dy441 2.738 . S
C471 O451 1.255 . S
C471 O452 1.249 . S
C471 C465 1.516 . S
H472 C458 0.930 . S
H473 C459 0.931 . S
H474 C460 0.931 . S
H475 C461 0.933 . S
H476 C467 0.930 . S
H477 C468 0.931 . S
H478 C469 0.931 . S
H479 C470 0.933 . S
Dy480 O483 2.307 . S
Dy480 O485 2.395 . S
Dy480 O486 2.379 . S
Dy480 O488 2.339 . S
Dy480 O490 2.298 . S
Dy480 O494 2.275 . S
Dy480 C502 2.738 . S
Dy481 O484 2.298 . S
Dy481 O487 2.275 . S
Dy481 O489 2.307 . S
Dy481 O491 2.395 . S
Dy481 O492 2.379 . S
Dy481 O495 2.339 . S
Dy481 C511 2.738 . S
C482 O494 1.254 . S
C482 O495 1.257 . S
O483 Dy480 2.307 . S
O483 C493 1.266 . S
O484 Dy481 2.298 . S
O484 C493 1.236 . S
O485 Dy480 2.395 . S
O485 C502 1.255 . S
O486 Dy480 2.379 . S
O486 C502 1.249 . S
O487 Dy481 2.275 . S
O487 C503 1.254 . S
O488 Dy480 2.339 . S
O488 C503 1.257 . S
O489 Dy481 2.307 . S
O489 C504 1.266 . S
O490 Dy480 2.298 . S
O490 C504 1.236 . S
O491 Dy481 2.395 . S
O491 C511 1.255 . S
O492 Dy481 2.379 . S
O492 C511 1.249 . S
C493 O483 1.266 . S
C493 O484 1.236 . S
O494 Dy480 2.275 . S
O494 C482 1.254 . S
O495 Dy481 2.339 . S
O495 C482 1.257 . S
C496 C499 1.344 . S
C496 C500 1.328 . S
C496 C502 1.516 . S
C497 C498 1.304 . S
C497 C501 1.323 . S
C498 C497 1.304 . S
C498 C499 1.371 . S
C498 H512 0.930 . S
C499 C496 1.344 . S
C499 C498 1.371 . S
C499 H513 0.931 . S
C500 C496 1.328 . S
C500 C501 1.433 . S
C500 H514 0.931 . S
C501 C497 1.323 . S
C501 C500 1.433 . S
C501 H515 0.933 . S
C502 Dy480 2.738 . S
C502 O485 1.255 . S
C502 O486 1.249 . S
C502 C496 1.516 . S
C503 O487 1.254 . S
C503 O488 1.257 . S
C504 O489 1.266 . S
C504 O490 1.236 . S
C505 C508 1.344 . S
C505 C509 1.328 . S
C505 C511 1.516 . S
C506 C507 1.304 . S
C506 C510 1.323 . S
C507 C506 1.304 . S
C507 C508 1.371 . S
C507 H516 0.930 . S
C508 C505 1.344 . S
C508 C507 1.371 . S
C508 H517 0.931 . S
C509 C505 1.328 . S
C509 C510 1.433 . S
C509 H518 0.931 . S
C510 C506 1.323 . S
C510 C509 1.433 . S
C510 H519 0.933 . S
C511 Dy481 2.738 . S
C511 O491 1.255 . S
C511 O492 1.249 . S
C511 C505 1.516 . S
H512 C498 0.930 . S
H513 C499 0.931 . S
H514 C500 0.931 . S
H515 C501 0.933 . S
H516 C507 0.930 . S
H517 C508 0.931 . S
H518 C509 0.931 . S
H519 C510 0.933 . S
Dy520 O523 2.307 . S
Dy520 O525 2.395 . S
Dy520 O526 2.379 . S
Dy520 O528 2.339 . S
Dy520 O530 2.298 . S
Dy520 O534 2.275 . S
Dy520 C542 2.738 . S
Dy521 O524 2.298 . S
Dy521 O527 2.275 . S
Dy521 O529 2.307 . S
Dy521 O531 2.395 . S
Dy521 O532 2.379 . S
Dy521 O535 2.339 . S
Dy521 C551 2.738 . S
C522 O534 1.254 . S
C522 O535 1.257 . S
O523 Dy520 2.307 . S
O523 C533 1.266 . S
O524 Dy521 2.298 . S
O524 C533 1.236 . S
O525 Dy520 2.395 . S
O525 C542 1.255 . S
O526 Dy520 2.379 . S
O526 C542 1.249 . S
O527 Dy521 2.275 . S
O527 C543 1.254 . S
O528 Dy520 2.339 . S
O528 C543 1.257 . S
O529 Dy521 2.307 . S
O529 C544 1.266 . S
O530 Dy520 2.298 . S
O530 C544 1.236 . S
O531 Dy521 2.395 . S
O531 C551 1.255 . S
O532 Dy521 2.379 . S
O532 C551 1.249 . S
C533 O523 1.266 . S
C533 O524 1.236 . S
O534 Dy520 2.275 . S
O534 C522 1.254 . S
O535 Dy521 2.339 . S
O535 C522 1.257 . S
C536 C539 1.344 . S
C536 C540 1.328 . S
C536 C542 1.516 . S
C537 C538 1.304 . S
C537 C541 1.323 . S
C538 C537 1.304 . S
C538 C539 1.371 . S
C538 H552 0.930 . S
C539 C536 1.344 . S
C539 C538 1.371 . S
C539 H553 0.931 . S
C540 C536 1.328 . S
C540 C541 1.433 . S
C540 H554 0.931 . S
C541 C537 1.323 . S
C541 C540 1.433 . S
C541 H555 0.933 . S
C542 Dy520 2.738 . S
C542 O525 1.255 . S
C542 O526 1.249 . S
C542 C536 1.516 . S
C543 O527 1.254 . S
C543 O528 1.257 . S
C544 O529 1.266 . S
C544 O530 1.236 . S
C545 C548 1.344 . S
C545 C549 1.328 . S
C545 C551 1.516 . S
C546 C547 1.304 . S
C546 C550 1.323 . S
C547 C546 1.304 . S
C547 C548 1.371 . S
C547 H556 0.930 . S
C548 C545 1.344 . S
C548 C547 1.371 . S
C548 H557 0.931 . S
C549 C545 1.328 . S
C549 C550 1.433 . S
C549 H558 0.931 . S
C550 C546 1.323 . S
C550 C549 1.433 . S
C550 H559 0.933 . S
C551 Dy521 2.738 . S
C551 O531 1.255 . S
C551 O532 1.249 . S
C551 C545 1.516 . S
H552 C538 0.930 . S
H553 C539 0.931 . S
H554 C540 0.931 . S
H555 C541 0.933 . S
H556 C547 0.930 . S
H557 C548 0.931 . S
H558 C549 0.931 . S
H559 C550 0.933 . S
Dy560 O563 2.307 . S
Dy560 O565 2.395 . S
Dy560 O566 2.379 . S
Dy560 O568 2.339 . S
Dy560 O570 2.298 . S
Dy560 O574 2.275 . S
Dy560 C582 2.738 . S
Dy561 O564 2.298 . S
Dy561 O567 2.275 . S
Dy561 O569 2.307 . S
Dy561 O571 2.395 . S
Dy561 O572 2.379 . S
Dy561 O575 2.339 . S
Dy561 C591 2.738 . S
C562 O574 1.254 . S
C562 O575 1.257 . S
O563 Dy560 2.307 . S
O563 C573 1.266 . S
O564 Dy561 2.298 . S
O564 C573 1.236 . S
O565 Dy560 2.395 . S
O565 C582 1.255 . S
O566 Dy560 2.379 . S
O566 C582 1.249 . S
O567 Dy561 2.275 . S
O567 C583 1.254 . S
O568 Dy560 2.339 . S
O568 C583 1.257 . S
O569 Dy561 2.307 . S
O569 C584 1.266 . S
O570 Dy560 2.298 . S
O570 C584 1.236 . S
O571 Dy561 2.395 . S
O571 C591 1.255 . S
O572 Dy561 2.379 . S
O572 C591 1.249 . S
C573 O563 1.266 . S
C573 O564 1.236 . S
O574 Dy560 2.275 . S
O574 C562 1.254 . S
O575 Dy561 2.339 . S
O575 C562 1.257 . S
C576 C579 1.344 . S
C576 C580 1.328 . S
C576 C582 1.516 . S
C577 C578 1.304 . S
C577 C581 1.323 . S
C578 C577 1.304 . S
C578 C579 1.371 . S
C578 H592 0.930 . S
C579 C576 1.344 . S
C579 C578 1.371 . S
C579 H593 0.931 . S
C580 C576 1.328 . S
C580 C581 1.433 . S
C580 H594 0.931 . S
C581 C577 1.323 . S
C581 C580 1.433 . S
C581 H595 0.933 . S
C582 Dy560 2.738 . S
C582 O565 1.255 . S
C582 O566 1.249 . S
C582 C576 1.516 . S
C583 O567 1.254 . S
C583 O568 1.257 . S
C584 O569 1.266 . S
C584 O570 1.236 . S
C585 C588 1.344 . S
C585 C589 1.328 . S
C585 C591 1.516 . S
C586 C587 1.304 . S
C586 C590 1.323 . S
C587 C586 1.304 . S
C587 C588 1.371 . S
C587 H596 0.930 . S
C588 C585 1.344 . S
C588 C587 1.371 . S
C588 H597 0.931 . S
C589 C585 1.328 . S
C589 C590 1.433 . S
C589 H598 0.931 . S
C590 C586 1.323 . S
C590 C589 1.433 . S
C590 H599 0.933 . S
C591 Dy561 2.738 . S
C591 O571 1.255 . S
C591 O572 1.249 . S
C591 C585 1.516 . S
H592 C578 0.930 . S
H593 C579 0.931 . S
H594 C580 0.931 . S
H595 C581 0.933 . S
H596 C587 0.930 . S
H597 C588 0.931 . S
H598 C589 0.931 . S
H599 C590 0.933 . S
Dy600 O603 2.307 . S
Dy600 O605 2.395 . S
Dy600 O606 2.379 . S
Dy600 O608 2.339 . S
Dy600 O610 2.298 . S
Dy600 O614 2.275 . S
Dy600 C622 2.738 . S
Dy601 O604 2.298 . S
Dy601 O607 2.275 . S
Dy601 O609 2.307 . S
Dy601 O611 2.395 . S
Dy601 O612 2.379 . S
Dy601 O615 2.339 . S
Dy601 C631 2.738 . S
C602 O614 1.254 . S
C602 O615 1.257 . S
O603 Dy600 2.307 . S
O603 C613 1.266 . S
O604 Dy601 2.298 . S
O604 C613 1.236 . S
O605 Dy600 2.395 . S
O605 C622 1.255 . S
O606 Dy600 2.379 . S
O606 C622 1.249 . S
O607 Dy601 2.275 . S
O607 C623 1.254 . S
O608 Dy600 2.339 . S
O608 C623 1.257 . S
O609 Dy601 2.307 . S
O609 C624 1.266 . S
O610 Dy600 2.298 . S
O610 C624 1.236 . S
O611 Dy601 2.395 . S
O611 C631 1.255 . S
O612 Dy601 2.379 . S
O612 C631 1.249 . S
C613 O603 1.266 . S
C613 O604 1.236 . S
O614 Dy600 2.275 . S
O614 C602 1.254 . S
O615 Dy601 2.339 . S
O615 C602 1.257 . S
C616 C619 1.344 . S
C616 C620 1.328 . S
C616 C622 1.516 . S
C617 C618 1.304 . S
C617 C621 1.323 . S
C618 C617 1.304 . S
C618 C619 1.371 . S
C618 H632 0.930 . S
C619 C616 1.344 . S
C619 C618 1.371 . S
C619 H633 0.931 . S
C620 C616 1.328 . S
C620 C621 1.433 . S
C620 H634 0.931 . S
C621 C617 1.323 . S
C621 C620 1.433 . S
C621 H635 0.933 . S
C622 Dy600 2.738 . S
C622 O605 1.255 . S
C622 O606 1.249 . S
C622 C616 1.516 . S
C623 O607 1.254 . S
C623 O608 1.257 . S
C624 O609 1.266 . S
C624 O610 1.236 . S
C625 C628 1.344 . S
C625 C629 1.328 . S
C625 C631 1.516 . S
C626 C627 1.304 . S
C626 C630 1.323 . S
C627 C626 1.304 . S
C627 C628 1.371 . S
C627 H636 0.930 . S
C628 C625 1.344 . S
C628 C627 1.371 . S
C628 H637 0.931 . S
C629 C625 1.328 . S
C629 C630 1.433 . S
C629 H638 0.931 . S
C630 C626 1.323 . S
C630 C629 1.433 . S
C630 H639 0.933 . S
C631 Dy601 2.738 . S
C631 O611 1.255 . S
C631 O612 1.249 . S
C631 C625 1.516 . S
H632 C618 0.930 . S
H633 C619 0.931 . S
H634 C620 0.931 . S
H635 C621 0.933 . S
H636 C627 0.930 . S
H637 C628 0.931 . S
H638 C629 0.931 . S
H639 C630 0.933 . S
H640 C646 0.930 . S
H641 C649 0.930 . S
H642 C650 0.930 . S
H643 C651 0.930 . S
H644 C654 0.930 . S
H645 C655 0.930 . S
C646 H640 0.930 . S
C646 C647 1.355 . S
C646 C648 1.415 . S
C647 C646 1.355 . S
C647 C649 1.419 . S
C648 C646 1.415 . S
C648 C653 1.425 . S
C648 C655 1.409 . S
C649 H641 0.930 . S
C649 C647 1.419 . S
C649 C650 1.362 . S
C650 H642 0.930 . S
C650 C649 1.362 . S
C650 C653 1.409 . S
C651 H643 0.930 . S
C651 C652 1.355 . S
C651 C653 1.415 . S
C652 C651 1.355 . S
C652 C654 1.419 . S
C653 C648 1.425 . S
C653 C650 1.409 . S
C653 C651 1.415 . S
C654 H644 0.930 . S
C654 C652 1.419 . S
C654 C655 1.362 . S
C655 H645 0.930 . S
C655 C648 1.409 . S
C655 C654 1.362 . S
H656 C662 0.930 . S
H657 C665 0.930 . S
H658 C666 0.930 . S
H659 C667 0.930 . S
H660 C670 0.930 . S
H661 C671 0.930 . S
C662 H656 0.930 . S
C662 C663 1.355 . S
C662 C664 1.415 . S
C663 C662 1.355 . S
C663 C665 1.419 . S
C664 C662 1.415 . S
C664 C669 1.425 . S
C664 C671 1.409 . S
C665 H657 0.930 . S
C665 C663 1.419 . S
C665 C666 1.362 . S
C666 H658 0.930 . S
C666 C665 1.362 . S
C666 C669 1.409 . S
C667 H659 0.930 . S
C667 C668 1.355 . S
C667 C669 1.415 . S
C668 C667 1.355 . S
C668 C670 1.419 . S
C669 C664 1.425 . S
C669 C666 1.409 . S
C669 C667 1.415 . S
C670 H660 0.930 . S
C670 C668 1.419 . S
C670 C671 1.362 . S
C671 H661 0.930 . S
C671 C664 1.409 . S
C671 C670 1.362 . S
H672 C678 0.930 . S
H673 C681 0.930 . S
H674 C682 0.930 . S
H675 C683 0.930 . S
H676 C686 0.930 . S
H677 C687 0.930 . S
C678 H672 0.930 . S
C678 C679 1.355 . S
C678 C680 1.415 . S
C679 C678 1.355 . S
C679 C681 1.419 . S
C680 C678 1.415 . S
C680 C685 1.425 . S
C680 C687 1.409 . S
C681 H673 0.930 . S
C681 C679 1.419 . S
C681 C682 1.362 . S
C682 H674 0.930 . S
C682 C681 1.362 . S
C682 C685 1.409 . S
C683 H675 0.930 . S
C683 C684 1.355 . S
C683 C685 1.415 . S
C684 C683 1.355 . S
C684 C686 1.419 . S
C685 C680 1.425 . S
C685 C682 1.409 . S
C685 C683 1.415 . S
C686 H676 0.930 . S
C686 C684 1.419 . S
C686 C687 1.362 . S
C687 H677 0.930 . S
C687 C680 1.409 . S
C687 C686 1.362 . S
H688 C694 0.930 . S
H689 C697 0.930 . S
H690 C698 0.930 . S
H691 C699 0.930 . S
H692 C702 0.930 . S
H693 C703 0.930 . S
C694 H688 0.930 . S
C694 C695 1.355 . S
C694 C696 1.415 . S
C695 C694 1.355 . S
C695 C697 1.419 . S
C696 C694 1.415 . S
C696 C701 1.425 . S
C696 C703 1.409 . S
C697 H689 0.930 . S
C697 C695 1.419 . S
C697 C698 1.362 . S
C698 H690 0.930 . S
C698 C697 1.362 . S
C698 C701 1.409 . S
C699 H691 0.930 . S
C699 C700 1.355 . S
C699 C701 1.415 . S
C700 C699 1.355 . S
C700 C702 1.419 . S
C701 C696 1.425 . S
C701 C698 1.409 . S
C701 C699 1.415 . S
C702 H692 0.930 . S
C702 C700 1.419 . S
C702 C703 1.362 . S
C703 H693 0.930 . S
C703 C696 1.409 . S
C703 C702 1.362 . S
H704 C710 0.930 . S
H705 C713 0.930 . S
H706 C714 0.930 . S
H707 C715 0.930 . S
H708 C718 0.930 . S
H709 C719 0.930 . S
C710 H704 0.930 . S
C710 C711 1.355 . S
C710 C712 1.415 . S
C711 C710 1.355 . S
C711 C713 1.419 . S
C712 C710 1.415 . S
C712 C717 1.425 . S
C712 C719 1.409 . S
C713 H705 0.930 . S
C713 C711 1.419 . S
C713 C714 1.362 . S
C714 H706 0.930 . S
C714 C713 1.362 . S
C714 C717 1.409 . S
C715 H707 0.930 . S
C715 C716 1.355 . S
C715 C717 1.415 . S
C716 C715 1.355 . S
C716 C718 1.419 . S
C717 C712 1.425 . S
C717 C714 1.409 . S
C717 C715 1.415 . S
C718 H708 0.930 . S
C718 C716 1.419 . S
C718 C719 1.362 . S
C719 H709 0.930 . S
C719 C712 1.409 . S
C719 C718 1.362 . S
H720 C726 0.930 . S
H721 C729 0.930 . S
H722 C730 0.930 . S
H723 C731 0.930 . S
H724 C734 0.930 . S
H725 C735 0.930 . S
C726 H720 0.930 . S
C726 C727 1.355 . S
C726 C728 1.415 . S
C727 C726 1.355 . S
C727 C729 1.419 . S
C728 C726 1.415 . S
C728 C733 1.425 . S
C728 C735 1.409 . S
C729 H721 0.930 . S
C729 C727 1.419 . S
C729 C730 1.362 . S
C730 H722 0.930 . S
C730 C729 1.362 . S
C730 C733 1.409 . S
C731 H723 0.930 . S
C731 C732 1.355 . S
C731 C733 1.415 . S
C732 C731 1.355 . S
C732 C734 1.419 . S
C733 C728 1.425 . S
C733 C730 1.409 . S
C733 C731 1.415 . S
C734 H724 0.930 . S
C734 C732 1.419 . S
C734 C735 1.362 . S
C735 H725 0.930 . S
C735 C728 1.409 . S
C735 C734 1.362 . S
H736 C742 0.930 . S
H737 C745 0.930 . S
H738 C746 0.930 . S
H739 C747 0.930 . S
H740 C750 0.930 . S
H741 C751 0.930 . S
C742 H736 0.930 . S
C742 C743 1.355 . S
C742 C744 1.415 . S
C743 C742 1.355 . S
C743 C745 1.419 . S
C744 C742 1.415 . S
C744 C749 1.425 . S
C744 C751 1.409 . S
C745 H737 0.930 . S
C745 C743 1.419 . S
C745 C746 1.362 . S
C746 H738 0.930 . S
C746 C745 1.362 . S
C746 C749 1.409 . S
C747 H739 0.930 . S
C747 C748 1.355 . S
C747 C749 1.415 . S
C748 C747 1.355 . S
C748 C750 1.419 . S
C749 C744 1.425 . S
C749 C746 1.409 . S
C749 C747 1.415 . S
C750 H740 0.930 . S
C750 C748 1.419 . S
C750 C751 1.362 . S
C751 H741 0.930 . S
C751 C744 1.409 . S
C751 C750 1.362 . S
H752 C758 0.930 . S
H753 C761 0.930 . S
H754 C762 0.930 . S
H755 C763 0.930 . S
H756 C766 0.930 . S
H757 C767 0.930 . S
C758 H752 0.930 . S
C758 C759 1.355 . S
C758 C760 1.415 . S
C759 C758 1.355 . S
C759 C761 1.419 . S
C760 C758 1.415 . S
C760 C765 1.425 . S
C760 C767 1.409 . S
C761 H753 0.930 . S
C761 C759 1.419 . S
C761 C762 1.362 . S
C762 H754 0.930 . S
C762 C761 1.362 . S
C762 C765 1.409 . S
C763 H755 0.930 . S
C763 C764 1.355 . S
C763 C765 1.415 . S
C764 C763 1.355 . S
C764 C766 1.419 . S
C765 C760 1.425 . S
C765 C762 1.409 . S
C765 C763 1.415 . S
C766 H756 0.930 . S
C766 C764 1.419 . S
C766 C767 1.362 . S
C767 H757 0.930 . S
C767 C760 1.409 . S
C767 C766 1.362 . S
H768 C774 0.930 . S
H769 C777 0.930 . S
H770 C778 0.930 . S
H771 C779 0.930 . S
H772 C782 0.930 . S
H773 C783 0.930 . S
C774 H768 0.930 . S
C774 C775 1.355 . S
C774 C776 1.415 . S
C775 C774 1.355 . S
C775 C777 1.419 . S
C776 C774 1.415 . S
C776 C781 1.425 1_565 S
C776 C783 1.409 . S
C777 H769 0.930 . S
C777 C775 1.419 . S
C777 C778 1.362 1_565 S
C778 H770 0.930 . S
C778 C777 1.362 1_545 S
C778 C781 1.409 . S
C779 H771 0.930 . S
C779 C780 1.355 . S
C779 C781 1.415 . S
C780 C779 1.355 . S
C780 C782 1.419 . S
C781 C776 1.425 1_545 S
C781 C778 1.409 . S
C781 C779 1.415 . S
C782 H772 0.930 . S
C782 C780 1.419 . S
C782 C783 1.362 1_545 S
C783 H773 0.930 . S
C783 C776 1.409 . S
C783 C782 1.362 1_565 S
H784 C790 0.930 . S
H785 C793 0.930 . S
H786 C794 0.930 . S
H787 C795 0.930 . S
H788 C798 0.930 . S
H789 C799 0.930 . S
C790 H784 0.930 . S
C790 C791 1.355 . S
C790 C792 1.405 1_545 S
C791 C790 1.355 . S
C791 C793 1.419 . S
C792 C790 1.405 1_565 S
C792 C797 1.425 1_565 S
C792 C799 1.420 . S
C793 H785 0.930 . S
C793 C791 1.419 . S
C793 C794 1.362 . S
C794 H786 0.930 . S
C794 C793 1.362 . S
C794 C797 1.420 . S
C795 H787 0.930 . S
C795 C796 1.355 . S
C795 C797 1.405 1_565 S
C796 C795 1.355 . S
C796 C798 1.419 . S
C797 C792 1.425 1_545 S
C797 C794 1.420 . S
C797 C795 1.405 1_545 S
C798 H788 0.930 . S
C798 C796 1.419 . S
C798 C799 1.362 . S
C799 H789 0.930 . S
C799 C792 1.420 . S
C799 C798 1.362 . S
H800 C806 0.930 . S
H801 C809 0.930 . S
H802 C810 0.930 . S
H803 C811 0.930 . S
H804 C814 0.930 . S
H805 C815 0.930 . S
C806 H800 0.930 . S
C806 C807 1.355 . S
C806 C808 1.415 . S
C807 C806 1.355 . S
C807 C809 1.419 . S
C808 C806 1.415 . S
C808 C813 1.425 1_545 S
C808 C815 1.409 1_545 S
C809 H801 0.930 . S
C809 C807 1.419 . S
C809 C810 1.362 . S
C810 H802 0.930 . S
C810 C809 1.362 . S
C810 C813 1.409 1_545 S
C811 H803 0.930 . S
C811 C812 1.355 . S
C811 C813 1.415 . S
C812 C811 1.355 . S
C812 C814 1.419 . S
C813 C808 1.425 1_565 S
C813 C810 1.409 1_565 S
C813 C811 1.415 . S
C814 H804 0.930 . S
C814 C812 1.419 . S
C814 C815 1.362 . S
C815 H805 0.930 . S
C815 C808 1.409 1_565 S
C815 C814 1.362 . S
H816 C822 0.930 . S
H817 C825 0.930 . S
H818 C826 0.930 . S
H819 C827 0.930 . S
H820 C830 0.930 . S
H821 C831 0.930 . S
C822 H816 0.930 . S
C822 C823 1.355 . S
C822 C824 1.415 . S
C823 C822 1.355 . S
C823 C825 1.419 . S
C824 C822 1.415 . S
C824 C829 1.425 1_545 S
C824 C831 1.409 . S
C825 H817 0.930 . S
C825 C823 1.419 . S
C825 C826 1.362 1_545 S
C826 H818 0.930 . S
C826 C825 1.362 1_565 S
C826 C829 1.409 . S
C827 H819 0.930 . S
C827 C828 1.355 . S
C827 C829 1.415 . S
C828 C827 1.355 . S
C828 C830 1.419 . S
C829 C824 1.425 1_565 S
C829 C826 1.409 . S
C829 C827 1.415 . S
C830 H820 0.930 . S
C830 C828 1.419 . S
C830 C831 1.362 1_565 S
C831 H821 0.930 . S
C831 C824 1.409 . S
C831 C830 1.362 1_545 S
H832 C838 0.930 . S
H833 C841 0.930 . S
H834 C842 0.930 . S
H835 C843 0.930 . S
H836 C846 0.930 . S
H837 C847 0.930 . S
C838 H832 0.930 . S
C838 C839 1.355 . S
C838 C840 1.415 . S
C839 C838 1.355 . S
C839 C841 1.419 . S
C840 C838 1.415 . S
C840 C845 1.425 . S
C840 C847 1.409 . S
C841 H833 0.930 . S
C841 C839 1.419 . S
C841 C842 1.362 . S
C842 H834 0.930 . S
C842 C841 1.362 . S
C842 C845 1.409 . S
C843 H835 0.930 . S
C843 C844 1.355 . S
C843 C845 1.415 . S
C844 C843 1.355 . S
C844 C846 1.419 . S
C845 C840 1.425 . S
C845 C842 1.409 . S
C845 C843 1.415 . S
C846 H836 0.930 . S
C846 C844 1.419 . S
C846 C847 1.362 . S
C847 H837 0.930 . S
C847 C840 1.409 . S
C847 C846 1.362 . S
H848 C854 0.930 . S
H849 C857 0.930 . S
H850 C858 0.930 . S
H851 C859 0.930 . S
H852 C862 0.930 . S
H853 C863 0.930 . S
C854 H848 0.930 . S
C854 C855 1.355 . S
C854 C856 1.415 . S
C855 C854 1.355 . S
C855 C857 1.419 . S
C856 C854 1.415 . S
C856 C861 1.425 . S
C856 C863 1.409 . S
C857 H849 0.930 . S
C857 C855 1.419 . S
C857 C858 1.362 . S
C858 H850 0.930 . S
C858 C857 1.362 . S
C858 C861 1.409 . S
C859 H851 0.930 . S
C859 C860 1.355 . S
C859 C861 1.415 . S
C860 C859 1.355 . S
C860 C862 1.419 . S
C861 C856 1.425 . S
C861 C858 1.409 . S
C861 C859 1.415 . S
C862 H852 0.930 . S
C862 C860 1.419 . S
C862 C863 1.362 . S
C863 H853 0.930 . S
C863 C856 1.409 . S
C863 C862 1.362 . S
H864 C870 0.930 . S
H865 C873 0.930 . S
H866 C874 0.930 . S
H867 C875 0.930 . S
H868 C878 0.930 . S
H869 C879 0.930 . S
C870 H864 0.930 . S
C870 C871 1.355 . S
C870 C872 1.415 . S
C871 C870 1.355 . S
C871 C873 1.419 . S
C872 C870 1.415 . S
C872 C877 1.425 . S
C872 C879 1.409 . S
C873 H865 0.930 . S
C873 C871 1.419 . S
C873 C874 1.362 . S
C874 H866 0.930 . S
C874 C873 1.362 . S
C874 C877 1.409 . S
C875 H867 0.930 . S
C875 C876 1.355 . S
C875 C877 1.415 . S
C876 C875 1.355 . S
C876 C878 1.419 . S
C877 C872 1.425 . S
C877 C874 1.409 . S
C877 C875 1.415 . S
C878 H868 0.930 . S
C878 C876 1.419 . S
C878 C879 1.362 . S
C879 H869 0.930 . S
C879 C872 1.409 . S
C879 C878 1.362 . S
H880 C886 0.930 . S
H881 C889 0.930 . S
H882 C890 0.930 . S
H883 C891 0.930 . S
H884 C894 0.930 . S
H885 C895 0.930 . S
C886 H880 0.930 . S
C886 C887 1.355 . S
C886 C888 1.415 . S
C887 C886 1.355 . S
C887 C889 1.419 . S
C888 C886 1.415 . S
C888 C893 1.425 . S
C888 C895 1.409 . S
C889 H881 0.930 . S
C889 C887 1.419 . S
C889 C890 1.362 . S
C890 H882 0.930 . S
C890 C889 1.362 . S
C890 C893 1.409 . S
C891 H883 0.930 . S
C891 C892 1.355 . S
C891 C893 1.415 . S
C892 C891 1.355 . S
C892 C894 1.419 . S
C893 C888 1.425 . S
C893 C890 1.409 . S
C893 C891 1.415 . S
C894 H884 0.930 . S
C894 C892 1.419 . S
C894 C895 1.362 . S
C895 H885 0.930 . S
C895 C888 1.409 . S
C895 C894 1.362 . S
H896 C902 0.930 . S
H897 C905 0.930 . S
H898 C906 0.930 . S
H899 C907 0.930 . S
H900 C910 0.930 . S
H901 C911 0.930 . S
C902 H896 0.930 . S
C902 C903 1.355 . S
C902 C904 1.415 . S
C903 C902 1.355 . S
C903 C905 1.419 . S
C904 C902 1.415 . S
C904 C909 1.425 1_556 S
C904 C911 1.409 1_556 S
C905 H897 0.930 . S
C905 C903 1.419 . S
C905 C906 1.362 . S
C906 H898 0.930 . S
C906 C905 1.362 . S
C906 C909 1.409 1_556 S
C907 H899 0.930 . S
C907 C908 1.355 . S
C907 C909 1.415 . S
C908 C907 1.355 . S
C908 C910 1.419 . S
C909 C904 1.425 1_554 S
C909 C906 1.409 1_554 S
C909 C907 1.415 . S
C910 H900 0.930 . S
C910 C908 1.419 . S
C910 C911 1.362 . S
C911 H901 0.930 . S
C911 C904 1.409 1_554 S
C911 C910 1.362 . S
H912 C918 0.930 . S
H913 C921 0.930 . S
H914 C922 0.930 . S
H915 C923 0.930 . S
H916 C926 0.930 . S
H917 C927 0.930 . S
C918 H912 0.930 . S
C918 C919 1.355 . S
C918 C920 1.415 . S
C919 C918 1.355 . S
C919 C921 1.419 . S
C920 C918 1.415 . S
C920 C925 1.425 1_556 S
C920 C927 1.409 1_556 S
C921 H913 0.930 . S
C921 C919 1.419 . S
C921 C922 1.362 . S
C922 H914 0.930 . S
C922 C921 1.362 . S
C922 C925 1.409 1_556 S
C923 H915 0.930 . S
C923 C924 1.355 . S
C923 C925 1.415 . S
C924 C923 1.355 . S
C924 C926 1.419 . S
C925 C920 1.425 1_554 S
C925 C922 1.409 1_554 S
C925 C923 1.415 . S
C926 H916 0.930 . S
C926 C924 1.419 . S
C926 C927 1.362 . S
C927 H917 0.930 . S
C927 C920 1.409 1_554 S
C927 C926 1.362 . S
H928 C934 0.930 . S
H929 C937 0.930 . S
H930 C938 0.930 . S
H931 C939 0.930 . S
H932 C942 0.930 . S
H933 C943 0.930 . S
C934 H928 0.930 . S
C934 C935 1.355 . S
C934 C936 1.415 . S
C935 C934 1.355 . S
C935 C937 1.419 . S
C936 C934 1.415 . S
C936 C941 1.425 . S
C936 C943 1.409 . S
C937 H929 0.930 . S
C937 C935 1.419 . S
C937 C938 1.362 . S
C938 H930 0.930 . S
C938 C937 1.362 . S
C938 C941 1.409 . S
C939 H931 0.930 . S
C939 C940 1.355 . S
C939 C941 1.415 . S
C940 C939 1.355 . S
C940 C942 1.419 . S
C941 C936 1.425 . S
C941 C938 1.409 . S
C941 C939 1.415 . S
C942 H932 0.930 . S
C942 C940 1.419 . S
C942 C943 1.362 . S
C943 H933 0.930 . S
C943 C936 1.409 . S
C943 C942 1.362 . S
H944 C950 0.930 . S
H945 C953 0.930 . S
H946 C954 0.930 . S
H947 C955 0.930 . S
H948 C958 0.930 . S
H949 C959 0.930 . S
C950 H944 0.930 . S
C950 C951 1.355 . S
C950 C952 1.415 . S
C951 C950 1.355 . S
C951 C953 1.419 . S
C952 C950 1.415 . S
C952 C957 1.425 . S
C952 C959 1.409 . S
C953 H945 0.930 . S
C953 C951 1.419 . S
C953 C954 1.362 . S
C954 H946 0.930 . S
C954 C953 1.362 . S
C954 C957 1.409 . S
C955 H947 0.930 . S
C955 C956 1.355 . S
C955 C957 1.415 . S
C956 C955 1.355 . S
C956 C958 1.419 . S
C957 C952 1.425 . S
C957 C954 1.409 . S
C957 C955 1.415 . S
C958 H948 0.930 . S
C958 C956 1.419 . S
C958 C959 1.362 . S
C959 H949 0.930 . S
C959 C952 1.409 . S
C959 C958 1.362 . S
H960 C966 0.930 . S
H961 C969 0.930 . S
H962 C970 0.930 . S
H963 C971 0.930 . S
H964 C974 0.930 . S
H965 C975 0.930 . S
C966 H960 0.930 . S
C966 C967 1.355 . S
C966 C968 1.415 . S
C967 C966 1.355 . S
C967 C969 1.419 . S
C968 C966 1.415 . S
C968 C973 1.425 1_554 S
C968 C975 1.409 1_554 S
C969 H961 0.930 . S
C969 C967 1.419 . S
C969 C970 1.362 . S
C970 H962 0.930 . S
C970 C969 1.362 . S
C970 C973 1.409 1_554 S
C971 H963 0.930 . S
C971 C972 1.355 . S
C971 C973 1.415 . S
C972 C971 1.355 . S
C972 C974 1.419 . S
C973 C968 1.425 1_556 S
C973 C970 1.409 1_556 S
C973 C971 1.415 . S
C974 H964 0.930 . S
C974 C972 1.419 . S
C974 C975 1.362 . S
C975 H965 0.930 . S
C975 C968 1.409 1_556 S
C975 C974 1.362 . S
H976 C982 0.930 . S
H977 C985 0.930 . S
H978 C986 0.930 . S
H979 C987 0.930 . S
H980 C990 0.930 . S
H981 C991 0.930 . S
C982 H976 0.930 . S
C982 C983 1.355 . S
C982 C984 1.415 . S
C983 C982 1.355 . S
C983 C985 1.419 . S
C984 C982 1.415 . S
C984 C989 1.425 1_556 S
C984 C991 1.409 1_556 S
C985 H977 0.930 . S
C985 C983 1.419 . S
C985 C986 1.362 . S
C986 H978 0.930 . S
C986 C985 1.362 . S
C986 C989 1.409 1_556 S
C987 H979 0.930 . S
C987 C988 1.355 . S
C987 C989 1.415 . S
C988 C987 1.355 . S
C988 C990 1.419 . S
C989 C984 1.425 1_554 S
C989 C986 1.409 1_554 S
C989 C987 1.415 . S
C990 H980 0.930 . S
C990 C988 1.419 . S
C990 C991 1.362 . S
C991 H981 0.930 . S
C991 C984 1.409 1_554 S
C991 C990 1.362 . S
H992 C998 0.930 . S
H993 C1001 0.930 . S
H994 C1002 0.930 . S
H995 C1003 0.930 . S
H996 C1006 0.930 . S
H997 C1007 0.930 . S
C998 H992 0.930 . S
C998 C999 1.355 . S
C998 C1000 1.415 . S
C999 C998 1.355 . S
C999 C1001 1.419 . S
C1000 C998 1.415 . S
C1000 C1005 1.425 . S
C1000 C1007 1.409 . S
C1001 H993 0.930 . S
C1001 C999 1.419 . S
C1001 C1002 1.362 . S
C1002 H994 0.930 . S
C1002 C1001 1.362 . S
C1002 C1005 1.409 . S
C1003 H995 0.930 . S
C1003 C1004 1.355 . S
C1003 C1005 1.415 . S
C1004 C1003 1.355 . S
C1004 C1006 1.419 . S
C1005 C1000 1.425 . S
C1005 C1002 1.409 . S
C1005 C1003 1.415 . S
C1006 H996 0.930 . S
C1006 C1004 1.419 . S
C1006 C1007 1.362 . S
C1007 H997 0.930 . S
C1007 C1000 1.409 . S
C1007 C1006 1.362 . S
H1008 C1014 0.930 . S
H1009 C1017 0.930 . S
H1010 C1018 0.930 . S
H1011 C1019 0.930 . S
H1012 C1022 0.930 . S
H1013 C1023 0.930 . S
C1014 H1008 0.930 . S
C1014 C1015 1.355 . S
C1014 C1016 1.415 . S
C1015 C1014 1.355 . S
C1015 C1017 1.419 . S
C1016 C1014 1.415 . S
C1016 C1021 1.425 . S
C1016 C1023 1.409 . S
C1017 H1009 0.930 . S
C1017 C1015 1.419 . S
C1017 C1018 1.362 . S
C1018 H1010 0.930 . S
C1018 C1017 1.362 . S
C1018 C1021 1.409 . S
C1019 H1011 0.930 . S
C1019 C1020 1.355 . S
C1019 C1021 1.415 . S
C1020 C1019 1.355 . S
C1020 C1022 1.419 . S
C1021 C1016 1.425 . S
C1021 C1018 1.409 . S
C1021 C1019 1.415 . S
C1022 H1012 0.930 . S
C1022 C1020 1.419 . S
C1022 C1023 1.362 . S
C1023 H1013 0.930 . S
C1023 C1016 1.409 . S
C1023 C1022 1.362 . S
H1024 C1030 0.930 . S
H1025 C1033 0.930 . S
H1026 C1034 0.930 . S
H1027 C1035 0.930 . S
H1028 C1038 0.930 . S
H1029 C1039 0.930 . S
C1030 H1024 0.930 . S
C1030 C1031 1.355 . S
C1030 C1032 1.415 . S
C1031 C1030 1.355 . S
C1031 C1033 1.419 1_565 S
C1032 C1030 1.415 . S
C1032 C1037 1.425 1_665 S
C1032 C1039 1.409 1_655 S
C1033 H1025 0.930 . S
C1033 C1031 1.419 1_545 S
C1033 C1034 1.362 . S
C1034 H1026 0.930 . S
C1034 C1033 1.362 . S
C1034 C1037 1.409 1_655 S
C1035 H1027 0.930 . S
C1035 C1036 1.355 . S
C1035 C1037 1.415 . S
C1036 C1035 1.355 . S
C1036 C1038 1.419 1_545 S
C1037 C1032 1.425 1_445 S
C1037 C1034 1.409 1_455 S
C1037 C1035 1.415 . S
C1038 H1028 0.930 . S
C1038 C1036 1.419 1_565 S
C1038 C1039 1.362 . S
C1039 H1029 0.930 . S
C1039 C1032 1.409 1_455 S
C1039 C1038 1.362 . S
H1040 C1046 0.930 . S
H1041 C1049 0.930 . S
H1042 C1050 0.930 1_455 S
H1043 C1051 0.930 . S
H1044 C1054 0.930 . S
H1045 C1055 0.930 1_655 S
C1046 H1040 0.930 . S
C1046 C1047 1.355 1_565 S
C1046 C1048 1.415 . S
C1047 C1046 1.355 1_545 S
C1047 C1049 1.419 . S
C1048 C1046 1.415 . S
C1048 C1053 1.425 1_665 S
C1048 C1055 1.409 1_655 S
C1049 H1041 0.930 . S
C1049 C1047 1.419 . S
C1049 C1050 1.362 . S
C1050 H1042 0.930 1_655 S
C1050 C1049 1.362 . S
C1050 C1053 1.409 1_655 S
C1051 H1043 0.930 . S
C1051 C1052 1.355 1_545 S
C1051 C1053 1.415 . S
C1052 C1051 1.355 1_565 S
C1052 C1054 1.419 . S
C1053 C1048 1.425 1_445 S
C1053 C1050 1.409 1_455 S
C1053 C1051 1.415 . S
C1054 H1044 0.930 . S
C1054 C1052 1.419 . S
C1054 C1055 1.362 . S
C1055 H1045 0.930 1_455 S
C1055 C1048 1.409 1_455 S
C1055 C1054 1.362 . S
H1056 C1062 0.930 . S
H1057 C1065 0.930 . S
H1058 C1066 0.930 . S
H1059 C1067 0.930 . S
H1060 C1070 0.930 . S
H1061 C1071 0.930 . S
C1062 H1056 0.930 . S
C1062 C1063 1.355 . S
C1062 C1064 1.415 . S
C1063 C1062 1.355 . S
C1063 C1065 1.419 1_545 S
C1064 C1062 1.415 . S
C1064 C1069 1.425 1_445 S
C1064 C1071 1.409 1_455 S
C1065 H1057 0.930 . S
C1065 C1063 1.419 1_565 S
C1065 C1066 1.362 . S
C1066 H1058 0.930 . S
C1066 C1065 1.362 . S
C1066 C1069 1.409 1_455 S
C1067 H1059 0.930 . S
C1067 C1068 1.355 . S
C1067 C1069 1.415 . S
C1068 C1067 1.355 . S
C1068 C1070 1.419 1_565 S
C1069 C1064 1.425 1_665 S
C1069 C1066 1.409 1_655 S
C1069 C1067 1.415 . S
C1070 H1060 0.930 . S
C1070 C1068 1.419 1_545 S
C1070 C1071 1.362 . S
C1071 H1061 0.930 . S
C1071 C1064 1.409 1_655 S
C1071 C1070 1.362 . S
H1072 C1078 0.930 . S
H1073 C1081 0.930 . S
H1074 C1082 0.930 . S
H1075 C1083 0.930 . S
H1076 C1086 0.930 . S
H1077 C1087 0.930 . S
C1078 H1072 0.930 . S
C1078 C1079 1.355 . S
C1078 C1080 1.415 . S
C1079 C1078 1.355 . S
C1079 C1081 1.419 1_545 S
C1080 C1078 1.415 . S
C1080 C1085 1.425 1_645 S
C1080 C1087 1.409 1_655 S
C1081 H1073 0.930 . S
C1081 C1079 1.419 1_565 S
C1081 C1082 1.362 . S
C1082 H1074 0.930 . S
C1082 C1081 1.362 . S
C1082 C1085 1.409 1_655 S
C1083 H1075 0.930 . S
C1083 C1084 1.355 . S
C1083 C1085 1.415 . S
C1084 C1083 1.355 . S
C1084 C1086 1.419 1_565 S
C1085 C1080 1.425 1_465 S
C1085 C1082 1.409 1_455 S
C1085 C1083 1.415 . S
C1086 H1076 0.930 . S
C1086 C1084 1.419 1_545 S
C1086 C1087 1.362 . S
C1087 H1077 0.930 . S
C1087 C1080 1.409 1_455 S
C1087 C1086 1.362 . S
H1088 C1094 0.930 . S
H1089 C1097 0.930 . S
H1090 C1098 0.930 . S
H1091 C1099 0.930 . S
H1092 C1102 0.930 . S
H1093 C1103 0.930 . S
C1094 H1088 0.930 . S
C1094 C1095 1.355 . S
C1094 C1096 1.415 . S
C1095 C1094 1.355 . S
C1095 C1097 1.419 . S
C1096 C1094 1.415 . S
C1096 C1101 1.425 . S
C1096 C1103 1.409 . S
C1097 H1089 0.930 . S
C1097 C1095 1.419 . S
C1097 C1098 1.362 . S
C1098 H1090 0.930 . S
C1098 C1097 1.362 . S
C1098 C1101 1.409 . S
C1099 H1091 0.930 . S
C1099 C1100 1.355 . S
C1099 C1101 1.415 . S
C1100 C1099 1.355 . S
C1100 C1102 1.419 . S
C1101 C1096 1.425 . S
C1101 C1098 1.409 . S
C1101 C1099 1.415 . S
C1102 H1092 0.930 . S
C1102 C1100 1.419 . S
C1102 C1103 1.362 . S
C1103 H1093 0.930 . S
C1103 C1096 1.409 . S
C1103 C1102 1.362 . S
H1104 C1110 0.930 . S
H1105 C1113 0.930 . S
H1106 C1114 0.930 . S
H1107 C1115 0.930 . S
H1108 C1118 0.930 . S
H1109 C1119 0.930 . S
C1110 H1104 0.930 . S
C1110 C1111 1.355 . S
C1110 C1112 1.415 . S
C1111 C1110 1.355 . S
C1111 C1113 1.419 . S
C1112 C1110 1.415 . S
C1112 C1117 1.425 . S
C1112 C1119 1.409 . S
C1113 H1105 0.930 . S
C1113 C1111 1.419 . S
C1113 C1114 1.362 . S
C1114 H1106 0.930 . S
C1114 C1113 1.362 . S
C1114 C1117 1.409 . S
C1115 H1107 0.930 . S
C1115 C1116 1.355 . S
C1115 C1117 1.415 . S
C1116 C1115 1.355 . S
C1116 C1118 1.419 . S
C1117 C1112 1.425 . S
C1117 C1114 1.409 . S
C1117 C1115 1.415 . S
C1118 H1108 0.930 . S
C1118 C1116 1.419 . S
C1118 C1119 1.362 . S
C1119 H1109 0.930 . S
C1119 C1112 1.409 . S
C1119 C1118 1.362 . S
H1120 C1126 0.930 . S
H1121 C1129 0.930 . S
H1122 C1130 0.930 . S
H1123 C1131 0.930 . S
H1124 C1134 0.930 . S
H1125 C1135 0.930 . S
C1126 H1120 0.930 . S
C1126 C1127 1.355 . S
C1126 C1128 1.415 . S
C1127 C1126 1.355 . S
C1127 C1129 1.419 . S
C1128 C1126 1.415 . S
C1128 C1133 1.425 . S
C1128 C1135 1.409 . S
C1129 H1121 0.930 . S
C1129 C1127 1.419 . S
C1129 C1130 1.362 . S
C1130 H1122 0.930 . S
C1130 C1129 1.362 . S
C1130 C1133 1.409 . S
C1131 H1123 0.930 . S
C1131 C1132 1.355 . S
C1131 C1133 1.415 . S
C1132 C1131 1.355 . S
C1132 C1134 1.419 . S
C1133 C1128 1.425 . S
C1133 C1130 1.409 . S
C1133 C1131 1.415 . S
C1134 H1124 0.930 . S
C1134 C1132 1.419 . S
C1134 C1135 1.362 . S
C1135 H1125 0.930 . S
C1135 C1128 1.409 . S
C1135 C1134 1.362 . S
H1136 C1142 0.930 . S
H1137 C1145 0.930 . S
H1138 C1146 0.930 . S
H1139 C1147 0.930 . S
H1140 C1150 0.930 . S
H1141 C1151 0.930 . S
C1142 H1136 0.930 . S
C1142 C1143 1.355 . S
C1142 C1144 1.415 . S
C1143 C1142 1.355 . S
C1143 C1145 1.419 . S
C1144 C1142 1.415 . S
C1144 C1149 1.425 . S
C1144 C1151 1.409 . S
C1145 H1137 0.930 . S
C1145 C1143 1.419 . S
C1145 C1146 1.362 . S
C1146 H1138 0.930 . S
C1146 C1145 1.362 . S
C1146 C1149 1.409 . S
C1147 H1139 0.930 . S
C1147 C1148 1.355 . S
C1147 C1149 1.415 . S
C1148 C1147 1.355 . S
C1148 C1150 1.419 . S
C1149 C1144 1.425 . S
C1149 C1146 1.409 . S
C1149 C1147 1.415 . S
C1150 H1140 0.930 . S
C1150 C1148 1.419 . S
C1150 C1151 1.362 . S
C1151 H1141 0.930 . S
C1151 C1144 1.409 . S
C1151 C1150 1.362 . S
H1152 C1158 0.930 . S
H1153 C1161 0.930 . S
H1154 C1162 0.930 . S
H1155 C1163 0.930 . S
H1156 C1166 0.930 . S
H1157 C1167 0.930 . S
C1158 H1152 0.930 . S
C1158 C1159 1.355 . S
C1158 C1160 1.415 . S
C1159 C1158 1.355 . S
C1159 C1161 1.419 . S
C1160 C1158 1.415 . S
C1160 C1165 1.425 . S
C1160 C1167 1.409 . S
C1161 H1153 0.930 . S
C1161 C1159 1.419 . S
C1161 C1162 1.362 . S
C1162 H1154 0.930 . S
C1162 C1161 1.362 . S
C1162 C1165 1.409 . S
C1163 H1155 0.930 . S
C1163 C1164 1.355 . S
C1163 C1165 1.415 . S
C1164 C1163 1.355 . S
C1164 C1166 1.419 . S
C1165 C1160 1.425 . S
C1165 C1162 1.409 . S
C1165 C1163 1.415 . S
C1166 H1156 0.930 . S
C1166 C1164 1.419 . S
C1166 C1167 1.362 . S
C1167 H1157 0.930 . S
C1167 C1160 1.409 . S
C1167 C1166 1.362 . S
H1168 C1174 0.930 . S
H1169 C1177 0.930 . S
H1170 C1178 0.930 . S
H1171 C1179 0.930 . S
H1172 C1182 0.930 . S
H1173 C1183 0.930 . S
C1174 H1168 0.930 . S
C1174 C1175 1.355 . S
C1174 C1176 1.415 . S
C1175 C1174 1.355 . S
C1175 C1177 1.419 . S
C1176 C1174 1.415 . S
C1176 C1181 1.425 . S
C1176 C1183 1.409 . S
C1177 H1169 0.930 . S
C1177 C1175 1.419 . S
C1177 C1178 1.362 . S
C1178 H1170 0.930 . S
C1178 C1177 1.362 . S
C1178 C1181 1.409 . S
C1179 H1171 0.930 . S
C1179 C1180 1.355 . S
C1179 C1181 1.415 . S
C1180 C1179 1.355 . S
C1180 C1182 1.419 . S
C1181 C1176 1.425 . S
C1181 C1178 1.409 . S
C1181 C1179 1.415 . S
C1182 H1172 0.930 . S
C1182 C1180 1.419 . S
C1182 C1183 1.362 . S
C1183 H1173 0.930 . S
C1183 C1176 1.409 . S
C1183 C1182 1.362 . S
H1184 C1190 0.930 . S
H1185 C1193 0.930 . S
H1186 C1194 0.930 . S
H1187 C1195 0.930 . S
H1188 C1198 0.930 . S
H1189 C1199 0.930 . S
C1190 H1184 0.930 . S
C1190 C1191 1.355 . S
C1190 C1192 1.415 . S
C1191 C1190 1.355 . S
C1191 C1193 1.419 . S
C1192 C1190 1.415 . S
C1192 C1197 1.425 . S
C1192 C1199 1.409 . S
C1193 H1185 0.930 . S
C1193 C1191 1.419 . S
C1193 C1194 1.362 . S
C1194 H1186 0.930 . S
C1194 C1193 1.362 . S
C1194 C1197 1.409 . S
C1195 H1187 0.930 . S
C1195 C1196 1.355 . S
C1195 C1197 1.415 . S
C1196 C1195 1.355 . S
C1196 C1198 1.419 . S
C1197 C1192 1.425 . S
C1197 C1194 1.409 . S
C1197 C1195 1.415 . S
C1198 H1188 0.930 . S
C1198 C1196 1.419 . S
C1198 C1199 1.362 . S
C1199 H1189 0.930 . S
C1199 C1192 1.409 . S
C1199 C1198 1.362 . S
H1200 C1206 0.930 . S
H1201 C1209 0.930 . S
H1202 C1210 0.930 . S
H1203 C1211 0.930 . S
H1204 C1214 0.930 . S
H1205 C1215 0.930 . S
C1206 H1200 0.930 . S
C1206 C1207 1.355 . S
C1206 C1208 1.415 . S
C1207 C1206 1.355 . S
C1207 C1209 1.419 . S
C1208 C1206 1.415 . S
C1208 C1213 1.425 . S
C1208 C1215 1.409 . S
C1209 H1201 0.930 . S
C1209 C1207 1.419 . S
C1209 C1210 1.362 . S
C1210 H1202 0.930 . S
C1210 C1209 1.362 . S
C1210 C1213 1.409 . S
C1211 H1203 0.930 . S
C1211 C1212 1.355 . S
C1211 C1213 1.415 . S
C1212 C1211 1.355 . S
C1212 C1214 1.419 . S
C1213 C1208 1.425 . S
C1213 C1210 1.409 . S
C1213 C1211 1.415 . S
C1214 H1204 0.930 . S
C1214 C1212 1.419 . S
C1214 C1215 1.362 . S
C1215 H1205 0.930 . S
C1215 C1208 1.409 . S
C1215 C1214 1.362 . S
H1216 C1222 0.930 . S
H1217 C1225 0.930 . S
H1218 C1226 0.930 . S
H1219 C1227 0.930 . S
H1220 C1230 0.930 . S
H1221 C1231 0.930 . S
C1222 H1216 0.930 . S
C1222 C1223 1.355 . S
C1222 C1224 1.415 . S
C1223 C1222 1.355 . S
C1223 C1225 1.419 . S
C1224 C1222 1.415 . S
C1224 C1229 1.425 . S
C1224 C1231 1.409 . S
C1225 H1217 0.930 . S
C1225 C1223 1.419 . S
C1225 C1226 1.362 . S
C1226 H1218 0.930 . S
C1226 C1225 1.362 . S
C1226 C1229 1.409 . S
C1227 H1219 0.930 . S
C1227 C1228 1.355 . S
C1227 C1229 1.415 . S
C1228 C1227 1.355 . S
C1228 C1230 1.419 . S
C1229 C1224 1.425 . S
C1229 C1226 1.409 . S
C1229 C1227 1.415 . S
C1230 H1220 0.930 . S
C1230 C1228 1.419 . S
C1230 C1231 1.362 . S
C1231 H1221 0.930 . S
C1231 C1224 1.409 . S
C1231 C1230 1.362 . S
H1232 C1238 0.930 . S
H1233 C1241 0.930 . S
H1234 C1242 0.930 . S
H1235 C1243 0.930 . S
H1236 C1246 0.930 . S
H1237 C1247 0.930 . S
C1238 H1232 0.930 . S
C1238 C1239 1.355 . S
C1238 C1240 1.415 . S
C1239 C1238 1.355 . S
C1239 C1241 1.419 . S
C1240 C1238 1.415 . S
C1240 C1245 1.425 . S
C1240 C1247 1.409 . S
C1241 H1233 0.930 . S
C1241 C1239 1.419 . S
C1241 C1242 1.362 . S
C1242 H1234 0.930 . S
C1242 C1241 1.362 . S
C1242 C1245 1.409 . S
C1243 H1235 0.930 . S
C1243 C1244 1.355 . S
C1243 C1245 1.415 . S
C1244 C1243 1.355 . S
C1244 C1246 1.419 . S
C1245 C1240 1.425 . S
C1245 C1242 1.409 . S
C1245 C1243 1.415 . S
C1246 H1236 0.930 . S
C1246 C1244 1.419 . S
C1246 C1247 1.362 . S
C1247 H1237 0.930 . S
C1247 C1240 1.409 . S
C1247 C1246 1.362 . S
H1248 C1254 0.930 . S
H1249 C1257 0.930 . S
H1250 C1258 0.930 . S
H1251 C1259 0.930 . S
H1252 C1262 0.930 . S
H1253 C1263 0.930 . S
C1254 H1248 0.930 . S
C1254 C1255 1.355 . S
C1254 C1256 1.415 . S
C1255 C1254 1.355 . S
C1255 C1257 1.419 . S
C1256 C1254 1.415 . S
C1256 C1261 1.425 . S
C1256 C1263 1.409 . S
C1257 H1249 0.930 . S
C1257 C1255 1.419 . S
C1257 C1258 1.362 . S
C1258 H1250 0.930 . S
C1258 C1257 1.362 . S
C1258 C1261 1.409 . S
C1259 H1251 0.930 . S
C1259 C1260 1.355 . S
C1259 C1261 1.415 . S
C1260 C1259 1.355 . S
C1260 C1262 1.419 . S
C1261 C1256 1.425 . S
C1261 C1258 1.409 . S
C1261 C1259 1.415 . S
C1262 H1252 0.930 . S
C1262 C1260 1.419 . S
C1262 C1263 1.362 . S
C1263 H1253 0.930 . S
C1263 C1256 1.409 . S
C1263 C1262 1.362 . S
H1264 C1270 0.930 . S
H1265 C1273 0.930 . S
H1266 C1274 0.930 . S
H1267 C1275 0.930 . S
H1268 C1278 0.930 . S
H1269 C1279 0.930 . S
C1270 H1264 0.930 . S
C1270 C1271 1.355 . S
C1270 C1272 1.415 . S
C1271 C1270 1.355 . S
C1271 C1273 1.419 . S
C1272 C1270 1.415 . S
C1272 C1277 1.425 . S
C1272 C1279 1.409 . S
C1273 H1265 0.930 . S
C1273 C1271 1.419 . S
C1273 C1274 1.362 . S
C1274 H1266 0.930 . S
C1274 C1273 1.362 . S
C1274 C1277 1.409 . S
C1275 H1267 0.930 . S
C1275 C1276 1.355 . S
C1275 C1277 1.415 . S
C1276 C1275 1.355 . S
C1276 C1278 1.419 . S
C1277 C1272 1.425 . S
C1277 C1274 1.409 . S
C1277 C1275 1.415 . S
C1278 H1268 0.930 . S
C1278 C1276 1.419 . S
C1278 C1279 1.362 . S
C1279 H1269 0.930 . S
C1279 C1272 1.409 . S
C1279 C1278 1.362 . S
H1280 C1286 0.930 . S
H1281 C1289 0.930 1_565 S
H1282 C1290 0.930 . S
H1283 C1291 0.930 . S
H1284 C1294 0.930 . S
H1285 C1295 0.930 . S
C1286 H1280 0.930 . S
C1286 C1287 1.355 1_545 S
C1286 C1288 1.415 . S
C1287 C1286 1.355 1_565 S
C1287 C1289 1.419 1_565 S
C1288 C1286 1.415 . S
C1288 C1293 1.425 . S
C1288 C1295 1.409 . S
C1289 H1281 0.930 1_545 S
C1289 C1287 1.419 1_545 S
C1289 C1290 1.362 . S
C1290 H1282 0.930 . S
C1290 C1289 1.362 . S
C1290 C1293 1.409 . S
C1291 H1283 0.930 . S
C1291 C1292 1.355 . S
C1291 C1293 1.415 . S
C1292 C1291 1.355 . S
C1292 C1294 1.419 . S
C1293 C1288 1.425 . S
C1293 C1290 1.409 . S
C1293 C1291 1.415 . S
C1294 H1284 0.930 . S
C1294 C1292 1.419 . S
C1294 C1295 1.362 . S
C1295 H1285 0.930 . S
C1295 C1288 1.409 . S
C1295 C1294 1.362 . S
H1296 C1302 0.930 . S
H1297 C1305 0.930 . S
H1298 C1306 0.930 . S
H1299 C1307 0.930 . S
H1300 C1310 0.930 1_545 S
H1301 C1311 0.930 . S
C1302 H1296 0.930 . S
C1302 C1303 1.355 . S
C1302 C1304 1.415 . S
C1303 C1302 1.355 . S
C1303 C1305 1.419 . S
C1304 C1302 1.415 . S
C1304 C1309 1.425 . S
C1304 C1311 1.409 . S
C1305 H1297 0.930 . S
C1305 C1303 1.419 . S
C1305 C1306 1.362 . S
C1306 H1298 0.930 . S
C1306 C1305 1.362 . S
C1306 C1309 1.409 . S
C1307 H1299 0.930 . S
C1307 C1308 1.355 1_565 S
C1307 C1309 1.415 . S
C1308 C1307 1.355 1_545 S
C1308 C1310 1.419 1_545 S
C1309 C1304 1.425 . S
C1309 C1306 1.409 . S
C1309 C1307 1.415 . S
C1310 H1300 0.930 1_565 S
C1310 C1308 1.419 1_565 S
C1310 C1311 1.362 . S
C1311 H1301 0.930 . S
C1311 C1304 1.409 . S
C1311 C1310 1.362 . S
H1312 C1318 0.930 . S
H1313 C1321 0.930 1_545 S
H1314 C1322 0.930 . S
H1315 C1323 0.930 . S
H1316 C1326 0.930 . S
H1317 C1327 0.930 . S
C1318 H1312 0.930 . S
C1318 C1319 1.355 1_565 S
C1318 C1320 1.415 . S
C1319 C1318 1.355 1_545 S
C1319 C1321 1.419 1_545 S
C1320 C1318 1.415 . S
C1320 C1325 1.425 . S
C1320 C1327 1.409 . S
C1321 H1313 0.930 1_565 S
C1321 C1319 1.419 1_565 S
C1321 C1322 1.362 . S
C1322 H1314 0.930 . S
C1322 C1321 1.362 . S
C1322 C1325 1.409 . S
C1323 H1315 0.930 . S
C1323 C1324 1.355 . S
C1323 C1325 1.415 . S
C1324 C1323 1.355 . S
C1324 C1326 1.419 . S
C1325 C1320 1.425 . S
C1325 C1322 1.409 . S
C1325 C1323 1.415 . S
C1326 H1316 0.930 . S
C1326 C1324 1.419 . S
C1326 C1327 1.362 . S
C1327 H1317 0.930 . S
C1327 C1320 1.409 . S
C1327 C1326 1.362 . S
H1328 C1334 0.930 . S
H1329 C1337 0.930 1_565 S
H1330 C1338 0.930 . S
H1331 C1339 0.930 . S
H1332 C1342 0.930 . S
H1333 C1343 0.930 . S
C1334 H1328 0.930 . S
C1334 C1335 1.355 1_545 S
C1334 C1336 1.415 . S
C1335 C1334 1.355 1_565 S
C1335 C1337 1.419 1_565 S
C1336 C1334 1.415 . S
C1336 C1341 1.425 . S
C1336 C1343 1.409 . S
C1337 H1329 0.930 1_545 S
C1337 C1335 1.419 1_545 S
C1337 C1338 1.362 . S
C1338 H1330 0.930 . S
C1338 C1337 1.362 . S
C1338 C1341 1.409 . S
C1339 H1331 0.930 . S
C1339 C1340 1.355 . S
C1339 C1341 1.415 . S
C1340 C1339 1.355 . S
C1340 C1342 1.419 . S
C1341 C1336 1.425 . S
C1341 C1338 1.409 . S
C1341 C1339 1.415 . S
C1342 H1332 0.930 . S
C1342 C1340 1.419 . S
C1342 C1343 1.362 . S
C1343 H1333 0.930 . S
C1343 C1336 1.409 . S
C1343 C1342 1.362 . S
H1344 C1350 0.930 . S
H1345 C1353 0.930 . S
H1346 C1354 0.930 . S
H1347 C1355 0.930 . S
H1348 C1358 0.930 1_545 S
H1349 C1359 0.930 . S
C1350 H1344 0.930 . S
C1350 C1351 1.355 . S
C1350 C1352 1.415 . S
C1351 C1350 1.355 . S
C1351 C1353 1.419 . S
C1352 C1350 1.415 . S
C1352 C1357 1.425 . S
C1352 C1359 1.409 . S
C1353 H1345 0.930 . S
C1353 C1351 1.419 . S
C1353 C1354 1.362 . S
C1354 H1346 0.930 . S
C1354 C1353 1.362 . S
C1354 C1357 1.409 . S
C1355 H1347 0.930 . S
C1355 C1356 1.355 1_565 S
C1355 C1357 1.415 . S
C1356 C1355 1.355 1_545 S
C1356 C1358 1.419 1_545 S
C1357 C1352 1.425 . S
C1357 C1354 1.409 . S
C1357 C1355 1.415 . S
C1358 H1348 0.930 1_565 S
C1358 C1356 1.419 1_565 S
C1358 C1359 1.362 . S
C1359 H1349 0.930 . S
C1359 C1352 1.409 . S
C1359 C1358 1.362 . S
H1360 C1366 0.930 . S
H1361 C1369 0.930 . S
H1362 C1370 0.930 . S
H1363 C1371 0.930 . S
H1364 C1374 0.930 1_565 S
H1365 C1375 0.930 . S
C1366 H1360 0.930 . S
C1366 C1367 1.355 . S
C1366 C1368 1.415 . S
C1367 C1366 1.355 . S
C1367 C1369 1.419 . S
C1368 C1366 1.415 . S
C1368 C1373 1.425 . S
C1368 C1375 1.409 . S
C1369 H1361 0.930 . S
C1369 C1367 1.419 . S
C1369 C1370 1.362 . S
C1370 H1362 0.930 . S
C1370 C1369 1.362 . S
C1370 C1373 1.409 . S
C1371 H1363 0.930 . S
C1371 C1372 1.355 1_545 S
C1371 C1373 1.415 . S
C1372 C1371 1.355 1_565 S
C1372 C1374 1.419 1_565 S
C1373 C1368 1.425 . S
C1373 C1370 1.409 . S
C1373 C1371 1.415 . S
C1374 H1364 0.930 1_545 S
C1374 C1372 1.419 1_545 S
C1374 C1375 1.362 . S
C1375 H1365 0.930 . S
C1375 C1368 1.409 . S
C1375 C1374 1.362 . S
H1376 C1382 0.930 . S
H1377 C1385 0.930 1_565 S
H1378 C1386 0.930 . S
H1379 C1387 0.930 . S
H1380 C1390 0.930 . S
H1381 C1391 0.930 . S
C1382 H1376 0.930 . S
C1382 C1383 1.355 1_545 S
C1382 C1384 1.415 . S
C1383 C1382 1.355 1_565 S
C1383 C1385 1.419 1_565 S
C1384 C1382 1.415 . S
C1384 C1389 1.425 . S
C1384 C1391 1.409 . S
C1385 H1377 0.930 1_545 S
C1385 C1383 1.419 1_545 S
C1385 C1386 1.362 . S
C1386 H1378 0.930 . S
C1386 C1385 1.362 . S
C1386 C1389 1.409 . S
C1387 H1379 0.930 . S
C1387 C1388 1.355 . S
C1387 C1389 1.415 . S
C1388 C1387 1.355 . S
C1388 C1390 1.419 . S
C1389 C1384 1.425 . S
C1389 C1386 1.409 . S
C1389 C1387 1.415 . S
C1390 H1380 0.930 . S
C1390 C1388 1.419 . S
C1390 C1391 1.362 . S
C1391 H1381 0.930 . S
C1391 C1384 1.409 . S
C1391 C1390 1.362 . S
H1392 C1398 0.930 . S
H1393 C1401 0.930 . S
H1394 C1402 0.930 . S
H1395 C1403 0.930 . S
H1396 C1406 0.930 1_545 S
H1397 C1407 0.930 . S
C1398 H1392 0.930 . S
C1398 C1399 1.355 . S
C1398 C1400 1.415 . S
C1399 C1398 1.355 . S
C1399 C1401 1.419 . S
C1400 C1398 1.415 . S
C1400 C1405 1.425 . S
C1400 C1407 1.409 . S
C1401 H1393 0.930 . S
C1401 C1399 1.419 . S
C1401 C1402 1.362 . S
C1402 H1394 0.930 . S
C1402 C1401 1.362 . S
C1402 C1405 1.409 . S
C1403 H1395 0.930 . S
C1403 C1404 1.355 1_565 S
C1403 C1405 1.415 . S
C1404 C1403 1.355 1_545 S
C1404 C1406 1.419 1_545 S
C1405 C1400 1.425 . S
C1405 C1402 1.409 . S
C1405 C1403 1.415 . S
C1406 H1396 0.930 1_565 S
C1406 C1404 1.419 1_565 S
C1406 C1407 1.362 . S
C1407 H1397 0.930 . S
C1407 C1400 1.409 . S
C1407 C1406 1.362 . S
C647 C24 1.574 . S
C652 C384 1.574 . S
C663 C64 1.563 . S
C668 C344 1.548 . S
C679 C464 1.570 . S
C684 C104 1.577 . S
C695 C144 1.549 . S
C700 C424 1.565 . S
C711 C533 1.550 . S
C716 C173 1.548 . S
C727 C493 1.560 . S
C732 C213 1.576 . S
C743 C613 1.572 . S
C748 C253 1.576 . S
C759 C293 1.548 . S
C764 C573 1.564 . S
C775 C103 1.705 . S
C780 C23 1.697 . S
C791 C143 1.703 . S
C796 C63 1.696 . S
C807 C242 1.696 . S
C812 C162 1.704 . S
C823 C202 1.704 . S
C828 C282 1.699 . S
C839 C423 1.704 . S
C844 C343 1.700 . S
C855 C463 1.696 . S
C860 C383 1.704 . S
C871 C482 1.698 . S
C876 C562 1.705 . S
C887 C522 1.700 . S
C892 C602 1.704 . S
C903 C223 1.534 . S
C908 C2 1.566 . S
C919 C183 1.582 . S
C924 C42 1.518 . S
C935 C82 1.580 . S
C940 C303 1.520 . S
C951 C263 1.514 . S
C956 C122 1.586 . S
C967 C322 1.574 . S
C972 C543 1.526 . S
C983 C503 1.526 . S
C988 C362 1.574 . S
C999 C402 1.586 . S
C1004 C623 1.514 . S
C1015 C583 1.515 . S
C1020 C442 1.585 . S
C1031 C53 1.580 . S
C1036 C13 1.574 . S
C1047 C133 1.539 . S
C1052 C93 1.545 . S
C1063 C224 1.572 . S
C1068 C184 1.580 . S
C1079 C264 1.578 . S
C1084 C304 1.578 . S
C1095 C373 1.579 . S
C1100 C333 1.568 . S
C1111 C453 1.558 . S
C1116 C413 1.574 . S
C1127 C504 1.551 . S
C1132 C544 1.540 . S
C1143 C584 1.577 . S
C1148 C624 1.562 . S
C1159 C26 1.396 . S
C1164 C17 1.396 . S
C1175 C66 1.403 . S
C1180 C57 1.403 . S
C1191 C106 1.398 . S
C1196 C97 1.398 . S
C1207 C137 1.412 . S
C1212 C146 1.412 . S
C1223 C177 1.411 . S
C1228 C186 1.411 . S
C1239 C226 1.395 . S
C1244 C217 1.395 . S
C1255 C257 1.396 . S
C1260 C266 1.396 . S
C1271 C297 1.389 . S
C1276 C306 1.389 . S
C1287 C337 1.403 . S
C1292 C346 1.403 . S
C1303 C386 1.396 . S
C1308 C377 1.396 . S
C1319 C417 1.412 . S
C1324 C426 1.412 . S
C1335 C457 1.395 . S
C1340 C466 1.395 . S
C1351 C497 1.409 . S
C1356 C506 1.409 . S
C1367 C537 1.411 . S
C1372 C546 1.411 . S
C1383 C586 1.407 . S
C1388 C577 1.407 . S
C1399 C617 1.391 . S
C1404 C626 1.391 . S
