# Generated by pormake.
# Topology tzs, (4)-cn, num edge types: 1
# Building blocks:
#     Node 0, Type 0, BuildingBlock: AZAVOO_clean_sbu_0, # of connection points: 4
#     Node 1, Type 0, BuildingBlock: AZAVOO_clean_sbu_0, # of connection points: 4
#     Node 2, Type 0, BuildingBlock: AZAVOO_clean_sbu_0, # of connection points: 4
#     Node 3, Type 0, BuildingBlock: AZAVOO_clean_sbu_0, # of connection points: 4
#     Node 4, Type 0, BuildingBlock: AZAVOO_clean_sbu_0, # of connection points: 4
#     Node 5, Type 0, BuildingBlock: AZAVOO_clean_sbu_0, # of connection points: 4
#     Node 6, Type 0, BuildingBlock: AZAVOO_clean_sbu_0, # of connection points: 4
#     Node 7, Type 0, BuildingBlock: AZAVOO_clean_sbu_0, # of connection points: 4
#     Node 8, Type 0, BuildingBlock: AZAVOO_clean_sbu_0, # of connection points: 4
#     Node 9, Type 0, BuildingBlock: AZAVOO_clean_sbu_0, # of connection points: 4
#     Node 10, Type 0, BuildingBlock: AZAVOO_clean_sbu_0, # of connection points: 4
#     Node 11, Type 0, BuildingBlock: AZAVOO_clean_sbu_0, # of connection points: 4
#     Node 12, Type 0, BuildingBlock: AZAVOO_clean_sbu_0, # of connection points: 4
#     Node 13, Type 0, BuildingBlock: AZAVOO_clean_sbu_0, # of connection points: 4
#     Node 14, Type 0, BuildingBlock: AZAVOO_clean_sbu_0, # of connection points: 4
#     Node 15, Type 0, BuildingBlock: AZAVOO_clean_sbu_0, # of connection points: 4
#     Edge 16, Type (0, 0), BuildingBlock: EYOCIG_clean_linker_4, # of connection points: 2
#     Edge 17, Type (0, 0), BuildingBlock: EYOCIG_clean_linker_4, # of connection points: 2
#     Edge 18, Type (0, 0), BuildingBlock: EYOCIG_clean_linker_4, # of connection points: 2
#     Edge 19, Type (0, 0), BuildingBlock: EYOCIG_clean_linker_4, # of connection points: 2
#     Edge 20, Type (0, 0), BuildingBlock: EYOCIG_clean_linker_4, # of connection points: 2
#     Edge 21, Type (0, 0), BuildingBlock: EYOCIG_clean_linker_4, # of connection points: 2
#     Edge 22, Type (0, 0), BuildingBlock: EYOCIG_clean_linker_4, # of connection points: 2
#     Edge 23, Type (0, 0), BuildingBlock: EYOCIG_clean_linker_4, # of connection points: 2
#     Edge 24, Type (0, 0), BuildingBlock: EYOCIG_clean_linker_4, # of connection points: 2
#     Edge 25, Type (0, 0), BuildingBlock: EYOCIG_clean_linker_4, # of connection points: 2
#     Edge 26, Type (0, 0), BuildingBlock: EYOCIG_clean_linker_4, # of connection points: 2
#     Edge 27, Type (0, 0), BuildingBlock: EYOCIG_clean_linker_4, # of connection points: 2
#     Edge 28, Type (0, 0), BuildingBlock: EYOCIG_clean_linker_4, # of connection points: 2
#     Edge 29, Type (0, 0), BuildingBlock: EYOCIG_clean_linker_4, # of connection points: 2
#     Edge 30, Type (0, 0), BuildingBlock: EYOCIG_clean_linker_4, # of connection points: 2
#     Edge 31, Type (0, 0), BuildingBlock: EYOCIG_clean_linker_4, # of connection points: 2
#     Edge 32, Type (0, 0), BuildingBlock: EYOCIG_clean_linker_4, # of connection points: 2
#     Edge 33, Type (0, 0), BuildingBlock: EYOCIG_clean_linker_4, # of connection points: 2
#     Edge 34, Type (0, 0), BuildingBlock: EYOCIG_clean_linker_4, # of connection points: 2
#     Edge 35, Type (0, 0), BuildingBlock: EYOCIG_clean_linker_4, # of connection points: 2
#     Edge 36, Type (0, 0), BuildingBlock: EYOCIG_clean_linker_4, # of connection points: 2
#     Edge 37, Type (0, 0), BuildingBlock: EYOCIG_clean_linker_4, # of connection points: 2
#     Edge 38, Type (0, 0), BuildingBlock: EYOCIG_clean_linker_4, # of connection points: 2
#     Edge 39, Type (0, 0), BuildingBlock: EYOCIG_clean_linker_4, # of connection points: 2
#     Edge 40, Type (0, 0), BuildingBlock: EYOCIG_clean_linker_4, # of connection points: 2
#     Edge 41, Type (0, 0), BuildingBlock: EYOCIG_clean_linker_4, # of connection points: 2
#     Edge 42, Type (0, 0), BuildingBlock: EYOCIG_clean_linker_4, # of connection points: 2
#     Edge 43, Type (0, 0), BuildingBlock: EYOCIG_clean_linker_4, # of connection points: 2
#     Edge 44, Type (0, 0), BuildingBlock: EYOCIG_clean_linker_4, # of connection points: 2
#     Edge 45, Type (0, 0), BuildingBlock: EYOCIG_clean_linker_4, # of connection points: 2
#     Edge 46, Type (0, 0), BuildingBlock: EYOCIG_clean_linker_4, # of connection points: 2
#     Edge 47, Type (0, 0), BuildingBlock: EYOCIG_clean_linker_4, # of connection points: 2
# Relax obj value: 0.112
# Max RMSD: 0.120
# Mean RMSD: 0.120
data_MOF--net-tzs--node1-AZAVOO_clean_sbu_0--edge1-EYOCIG_clean_linker_4
_symmetry_space_group_name_H-M    P1
_symmetry_Int_Tables_number       1
_symmetry_cell_setting            triclinic
loop_
_symmetry_equiv_pos_as_xyz
'x, y, z'
_cell_length_a     39.039756
_cell_length_b     39.108005
_cell_length_c     33.242331
_cell_angle_alpha  89.972933
_cell_angle_beta   90.001229
_cell_angle_gamma 90.102787
loop_
_atom_site_label
_atom_site_type_symbol
_atom_site_fract_x
_atom_site_fract_y
_atom_site_fract_z
_atom_type_partial_charge
Mg0 Mg 0.13257 0.33954 0.15946 0.0
O1 O 0.07818 0.32879 0.1828 0.0
O2 O 0.06239 0.278 0.15889 0.0
Mg3 Mg 0.10432 0.26037 0.1144 0.0
C4 C 0.0568 0.30429 0.18051 0.0
C5 C 0.15137 0.40744 0.19131 0.0
O6 O 0.16554 0.40594 0.15558 0.0
O7 O 0.15613 0.29936 0.20047 0.0
O8 O 0.14338 0.25206 0.16531 0.0
O9 O 0.11361 0.36699 0.10561 0.0
O10 O 0.12688 0.31199 0.10565 0.0
C11 C 0.15902 0.26736 0.19385 0.0
C12 C 0.11735 0.33873 0.08599 0.0
O13 O 0.13611 0.38147 0.2054 0.0
Mg14 Mg 0.62824 0.13114 0.15866 0.0
O15 O 0.63965 0.07712 0.18258 0.0
O16 O 0.69092 0.06212 0.15924 0.0
Mg17 Mg 0.70843 0.10411 0.11472 0.0
C18 C 0.66451 0.05618 0.18064 0.0
C19 C 0.56059 0.1519 0.19093 0.0
O20 O 0.56315 0.16776 0.15628 0.0
O21 O 0.66782 0.1557 0.19987 0.0
O22 O 0.71568 0.14353 0.16542 0.0
O23 O 0.60152 0.11146 0.10462 0.0
O24 O 0.65644 0.12556 0.10525 0.0
C25 C 0.6999 0.15908 0.1936 0.0
C26 C 0.62997 0.11554 0.08532 0.0
O27 O 0.58562 0.13458 0.20402 0.0
Mg28 Mg 0.83618 0.62764 0.15849 0.0
O29 O 0.89042 0.63817 0.18255 0.0
O30 O 0.90664 0.68887 0.15867 0.0
Mg31 Mg 0.86514 0.70679 0.11379 0.0
C32 C 0.91194 0.66257 0.18041 0.0
C33 C 0.81607 0.55992 0.19018 0.0
O34 O 0.80167 0.56185 0.1546 0.0
O35 O 0.8123 0.6679 0.19915 0.0
O36 O 0.82562 0.7152 0.16423 0.0
O37 O 0.85564 0.60015 0.10494 0.0
O38 O 0.84261 0.65521 0.10478 0.0
C39 C 0.80962 0.69993 0.19252 0.0
C40 C 0.85229 0.62846 0.08528 0.0
O41 O 0.83191 0.58555 0.20425 0.0
Mg42 Mg 0.34047 0.83571 0.15868 0.0
O43 O 0.32959 0.88991 0.18233 0.0
O44 O 0.27841 0.90526 0.15904 0.0
Mg45 Mg 0.26043 0.86328 0.11483 0.0
C46 C 0.30492 0.91105 0.18033 0.0
C47 C 0.40817 0.81488 0.19067 0.0
O48 O 0.40554 0.79908 0.156 0.0
O49 O 0.30078 0.81166 0.20019 0.0
O50 O 0.25293 0.82412 0.16582 0.0
O51 O 0.36727 0.85503 0.10451 0.0
O52 O 0.31223 0.84141 0.1053 0.0
C53 C 0.26865 0.80855 0.19406 0.0
C54 C 0.33875 0.85122 0.08529 0.0
O55 O 0.38314 0.83211 0.20391 0.0
Mg56 Mg 0.13253 0.6274 0.31204 0.0
O57 O 0.07838 0.63825 0.28818 0.0
O58 O 0.06238 0.68877 0.31251 0.0
Mg59 Mg 0.10404 0.70621 0.35757 0.0
C60 C 0.05696 0.66262 0.29055 0.0
C61 C 0.15135 0.55977 0.27955 0.0
O62 O 0.16515 0.56089 0.3155 0.0
O63 O 0.15672 0.66795 0.27191 0.0
O64 O 0.14373 0.71497 0.30736 0.0
O65 O 0.11287 0.59952 0.36534 0.0
O66 O 0.12632 0.65452 0.36603 0.0
C67 C 0.15967 0.69989 0.27895 0.0
C68 C 0.11646 0.62766 0.38527 0.0
O69 O 0.13636 0.5859 0.26559 0.0
Mg70 Mg 0.34001 0.1317 0.31195 0.0
O71 O 0.32937 0.07755 0.28789 0.0
O72 O 0.27853 0.06143 0.31164 0.0
Mg73 Mg 0.26069 0.10275 0.3567 0.0
C74 C 0.30487 0.05612 0.28993 0.0
C75 C 0.40777 0.15232 0.27943 0.0
O76 O 0.40611 0.16693 0.31489 0.0
O77 O 0.2996 0.15558 0.27143 0.0
O78 O 0.25227 0.14236 0.30647 0.0
O79 O 0.36749 0.11239 0.36568 0.0
O80 O 0.31233 0.12533 0.3656 0.0
C81 C 0.26755 0.15835 0.27819 0.0
C82 C 0.3391 0.11583 0.38526 0.0
O83 O 0.38212 0.13605 0.266 0.0
Mg84 Mg 0.83624 0.33999 0.31178 0.0
O85 O 0.89038 0.32882 0.28808 0.0
O86 O 0.90593 0.27807 0.3122 0.0
Mg87 Mg 0.86406 0.26078 0.35709 0.0
C88 C 0.91161 0.30426 0.29039 0.0
C89 C 0.81703 0.40755 0.27875 0.0
O90 O 0.80267 0.40634 0.31439 0.0
O91 O 0.81191 0.29975 0.27139 0.0
O92 O 0.82446 0.25249 0.30669 0.0
O93 O 0.85587 0.36753 0.36533 0.0
O94 O 0.84213 0.31261 0.36571 0.0
C95 C 0.80872 0.2678 0.27827 0.0
C96 C 0.85207 0.33934 0.38513 0.0
O97 O 0.8327 0.38162 0.26535 0.0
Mg98 Mg 0.62882 0.83553 0.31168 0.0
O99 O 0.6399 0.88974 0.28805 0.0
O100 O 0.69085 0.90533 0.31195 0.0
Mg101 Mg 0.70836 0.86354 0.35664 0.0
C102 C 0.66455 0.91098 0.29027 0.0
C103 C 0.56107 0.81539 0.27892 0.0
O104 O 0.56268 0.80055 0.31426 0.0
O105 O 0.66905 0.81163 0.2709 0.0
O106 O 0.71651 0.82431 0.30594 0.0
O107 O 0.60146 0.85471 0.36556 0.0
O108 O 0.65651 0.84136 0.36543 0.0
C109 C 0.7011 0.80864 0.27752 0.0
C110 C 0.62981 0.85098 0.38513 0.0
O111 O 0.58673 0.83175 0.26565 0.0
Mg112 Mg 0.84003 0.63147 0.81158 0.0
O113 O 0.8288 0.57741 0.78777 0.0
O114 O 0.77814 0.56162 0.8123 0.0
Mg115 Mg 0.76115 0.60322 0.85753 0.0
C116 C 0.80422 0.55612 0.79021 0.0
C117 C 0.90763 0.65029 0.77896 0.0
O118 O 0.90643 0.66416 0.81485 0.0
O119 O 0.79945 0.65568 0.77162 0.0
O120 O 0.75239 0.64287 0.80737 0.0
O121 O 0.86806 0.61191 0.86478 0.0
O122 O 0.81304 0.62547 0.86575 0.0
C123 C 0.7675 0.65872 0.77885 0.0
C124 C 0.83999 0.61568 0.88489 0.0
O125 O 0.88147 0.63523 0.765 0.0
Mg126 Mg 0.33617 0.83965 0.81152 0.0
O127 O 0.39031 0.82829 0.78776 0.0
O128 O 0.40555 0.77738 0.81171 0.0
Mg129 Mg 0.36364 0.76026 0.85662 0.0
C130 C 0.41137 0.80358 0.78995 0.0
C131 C 0.31617 0.90702 0.77863 0.0
O132 O 0.30115 0.90522 0.81387 0.0
O133 O 0.31178 0.79962 0.77093 0.0
O134 O 0.32413 0.75223 0.8061 0.0
O135 O 0.35573 0.86699 0.86521 0.0
O136 O 0.34182 0.81211 0.86533 0.0
C137 C 0.3085 0.76766 0.77768 0.0
C138 C 0.35169 0.83878 0.88492 0.0
O139 O 0.33265 0.88153 0.76539 0.0
Mg140 Mg 0.12865 0.33561 0.81241 0.0
O141 O 0.13986 0.38958 0.78813 0.0
O142 O 0.19098 0.40514 0.81153 0.0
Mg143 Mg 0.2085 0.36353 0.8565 0.0
C144 C 0.16458 0.41076 0.79 0.0
C145 C 0.06089 0.31512 0.78064 0.0
O146 O 0.06325 0.29992 0.8157 0.0
O147 O 0.16846 0.31105 0.77164 0.0
O148 O 0.21612 0.32373 0.80633 0.0
O149 O 0.10165 0.35542 0.86615 0.0
O150 O 0.15661 0.34166 0.86592 0.0
C151 C 0.2005 0.30786 0.77822 0.0
C152 C 0.13003 0.3516 0.88564 0.0
O153 O 0.08622 0.33175 0.76695 0.0
Mg154 Mg 0.63248 0.12715 0.81164 0.0
O155 O 0.57833 0.13829 0.78768 0.0
O156 O 0.563 0.18929 0.81126 0.0
Mg157 Mg 0.60483 0.20675 0.85605 0.0
C158 C 0.55724 0.16299 0.78967 0.0
C159 C 0.65303 0.05969 0.77942 0.0
O160 O 0.66836 0.06195 0.81444 0.0
O161 O 0.65685 0.16702 0.77072 0.0
O162 O 0.64434 0.21455 0.80547 0.0
O163 O 0.6129 0.10007 0.86551 0.0
O164 O 0.62672 0.15498 0.86523 0.0
C165 C 0.66003 0.19902 0.7772 0.0
C166 C 0.61686 0.12838 0.885 0.0
O167 O 0.63619 0.0849 0.76604 0.0
Mg168 Mg 0.84069 0.33604 0.65908 0.0
O169 O 0.82915 0.39011 0.68266 0.0
O170 O 0.77826 0.40528 0.65837 0.0
Mg171 Mg 0.76128 0.36332 0.61352 0.0
C172 C 0.80441 0.41114 0.68024 0.0
C173 C 0.90803 0.31618 0.69254 0.0
O174 O 0.9065 0.30119 0.6573 0.0
O175 O 0.80042 0.3116 0.69944 0.0
O176 O 0.75309 0.3238 0.66399 0.0
O177 O 0.86829 0.35562 0.60551 0.0
O178 O 0.81333 0.34171 0.60511 0.0
C179 C 0.76845 0.30822 0.69249 0.0
C180 C 0.84009 0.35166 0.58567 0.0
O181 O 0.88239 0.3326 0.70554 0.0
Mg182 Mg 0.63218 0.83949 0.65911 0.0
O183 O 0.57781 0.82823 0.68237 0.0
O184 O 0.56256 0.77723 0.65853 0.0
Mg185 Mg 0.60476 0.75989 0.61423 0.0
C186 C 0.55667 0.8035 0.68009 0.0
C187 C 0.65265 0.90689 0.69175 0.0
O188 O 0.66819 0.90472 0.65686 0.0
O189 O 0.65604 0.7996 0.70031 0.0
O190 O 0.64376 0.75208 0.66534 0.0
O191 O 0.61314 0.86665 0.60506 0.0
O192 O 0.62673 0.81174 0.6054 0.0
C193 C 0.6592 0.7676 0.69385 0.0
C194 C 0.61707 0.83834 0.58558 0.0
O195 O 0.63563 0.88165 0.70489 0.0
Mg196 Mg 0.12798 0.63081 0.65907 0.0
O197 O 0.13963 0.57675 0.68265 0.0
O198 O 0.19058 0.5619 0.65826 0.0
Mg199 Mg 0.20746 0.60401 0.6135 0.0
C200 C 0.16447 0.55585 0.68016 0.0
C201 C 0.06051 0.64996 0.69151 0.0
O202 O 0.06233 0.66472 0.65613 0.0
O203 O 0.16805 0.65533 0.69955 0.0
O204 O 0.21545 0.64335 0.66415 0.0
O205 O 0.10043 0.61116 0.60557 0.0
O206 O 0.15533 0.62536 0.60511 0.0
C207 C 0.20002 0.6588 0.69267 0.0
C208 C 0.12859 0.61527 0.58572 0.0
O209 O 0.0862 0.63404 0.70523 0.0
Mg210 Mg 0.33624 0.12736 0.65904 0.0
O211 O 0.39057 0.13853 0.68243 0.0
O212 O 0.40586 0.18959 0.65878 0.0
Mg213 Mg 0.36367 0.20711 0.61454 0.0
C214 C 0.41174 0.16324 0.68022 0.0
C215 C 0.31573 0.05989 0.69115 0.0
O216 O 0.30007 0.06242 0.65636 0.0
O217 O 0.31222 0.16703 0.70034 0.0
O218 O 0.32447 0.21466 0.6655 0.0
O219 O 0.35545 0.10039 0.60504 0.0
O220 O 0.34174 0.15528 0.60544 0.0
C221 C 0.30897 0.19903 0.69391 0.0
C222 C 0.35151 0.12873 0.58561 0.0
O223 O 0.3328 0.085 0.70454 0.0
C224 C 0.22927 0.20502 0.24341 0.0
C225 C 0.24851 0.18428 0.25767 0.0
C226 C 0.20528 0.22913 0.22944 0.0
C227 C 0.18472 0.2484 0.21488 0.0
C228 C 0.76173 0.22985 0.24329 0.0
C229 C 0.78263 0.24894 0.25762 0.0
C230 C 0.73756 0.20585 0.22926 0.0
C231 C 0.71844 0.18508 0.21472 0.0
C232 C 0.7632 0.73824 0.22778 0.0
C233 C 0.78382 0.71899 0.21329 0.0
C234 C 0.7392 0.76226 0.24196 0.0
C235 C 0.72001 0.78287 0.25655 0.0
C236 C 0.23076 0.76215 0.23013 0.0
C237 C 0.24996 0.78275 0.21539 0.0
C238 C 0.20657 0.73819 0.24425 0.0
C239 C 0.18571 0.719 0.25851 0.0
C240 C 0.70541 0.72967 0.72998 0.0
C241 C 0.68488 0.74885 0.71522 0.0
C242 C 0.72929 0.70553 0.74415 0.0
C243 C 0.74843 0.6847 0.75841 0.0
C244 C 0.23781 0.70564 0.72806 0.0
C245 C 0.21876 0.68479 0.71357 0.0
C246 C 0.26179 0.72974 0.74222 0.0
C247 C 0.28256 0.74887 0.75674 0.0
C248 C 0.23824 0.26079 0.74343 0.0
C249 C 0.21916 0.2817 0.75762 0.0
C250 C 0.26228 0.2367 0.72953 0.0
C251 C 0.28302 0.21761 0.71502 0.0
C252 C 0.70667 0.237 0.74165 0.0
C253 C 0.68596 0.21779 0.75617 0.0
C254 C 0.7306 0.26121 0.72757 0.0
C255 C 0.74965 0.28213 0.71319 0.0
C256 C 0.1265 0.34706 0.96487 0.0
C257 C 0.12917 0.34891 0.92876 0.0
C258 C 0.12207 0.34256 0.00679 0.0
C259 C 0.12013 0.33974 0.04288 0.0
C260 C 0.62195 0.12471 0.96419 0.0
C261 C 0.61985 0.12745 0.9281 0.0
C262 C 0.62656 0.12023 0.00609 0.0
C263 C 0.62927 0.11833 0.0422 0.0
C264 C 0.84435 0.62023 0.96407 0.0
C265 C 0.8415 0.61834 0.92798 0.0
C266 C 0.84859 0.62473 0.00601 0.0
C267 C 0.85007 0.62751 0.04214 0.0
C268 C 0.34201 0.84689 0.00603 0.0
C269 C 0.33931 0.84862 0.04215 0.0
C270 C 0.34662 0.84258 0.96411 0.0
C271 C 0.34872 0.83988 0.92801 0.0
C272 C 0.12462 0.61939 0.50649 0.0
C273 C 0.12739 0.61772 0.5426 0.0
C274 C 0.12032 0.62366 0.46452 0.0
C275 C 0.11875 0.6264 0.4284 0.0
C276 C 0.34692 0.12511 0.5064 0.0
C277 C 0.34878 0.12792 0.5425 0.0
C278 C 0.34261 0.12051 0.46448 0.0
C279 C 0.34 0.11857 0.42837 0.0
C280 C 0.84813 0.34313 0.46442 0.0
C281 C 0.84972 0.34043 0.42828 0.0
C282 C 0.84392 0.34743 0.50641 0.0
C283 C 0.84124 0.34916 0.54254 0.0
C284 C 0.62181 0.84193 0.50634 0.0
C285 C 0.61988 0.8392 0.54245 0.0
C286 C 0.62623 0.84639 0.46439 0.0
C287 C 0.62891 0.84827 0.42827 0.0
C288 C 0.14913 0.50023 0.24338 0.0
C289 C 0.14954 0.52794 0.25881 0.0
C290 C 0.14914 0.46726 0.22684 0.0
C291 C 0.14957 0.43946 0.21163 0.0
C292 C 0.50048 0.15089 0.22636 0.0
C293 C 0.52831 0.15079 0.211 0.0
C294 C 0.46751 0.15101 0.24318 0.0
C295 C 0.43979 0.15105 0.25882 0.0
C296 C 0.81815 0.49986 0.22531 0.0
C297 C 0.81772 0.5277 0.21015 0.0
C298 C 0.81846 0.46691 0.242 0.0
C299 C 0.81845 0.43928 0.2577 0.0
C300 C 0.50142 0.8165 0.24249 0.0
C301 C 0.52912 0.8166 0.25815 0.0
C302 C 0.46842 0.81634 0.22572 0.0
C303 C 0.44055 0.81619 0.21049 0.0
C304 C 0.8065 0.49902 0.74671 0.0
C305 C 0.80564 0.5251 0.76645 0.0
C306 C 0.80653 0.46844 0.72341 0.0
C307 C 0.80572 0.44227 0.70381 0.0
C308 C 0.49922 0.80574 0.72315 0.0
C309 C 0.52546 0.80488 0.7036 0.0
C310 C 0.4686 0.80576 0.74646 0.0
C311 C 0.44246 0.80494 0.7662 0.0
C312 C 0.162 0.46797 0.74667 0.0
C313 C 0.16293 0.44182 0.76631 0.0
C314 C 0.16222 0.49853 0.72333 0.0
C315 C 0.16327 0.52465 0.70364 0.0
C316 C 0.46929 0.16075 0.72306 0.0
C317 C 0.443 0.16171 0.70362 0.0
C318 C 0.49998 0.16067 0.74625 0.0
C319 C 0.52615 0.1615 0.76594 0.0
C320 C 0.65165 -0.00028 0.74402 0.0
C321 C 0.65172 0.02751 0.75933 0.0
C322 C 0.65153 0.96675 0.72739 0.0
C323 C 0.65146 0.939 0.71201 0.0
C324 C 0.96739 0.64793 0.74313 0.0
C325 C 0.93957 0.6484 0.7584 0.0
C326 C 0.00048 0.64785 0.72678 0.0
C327 C 0.02837 0.6482 0.71168 0.0
C328 C 0.31731 -0.00032 0.72597 0.0
C329 C 0.31713 0.02756 0.71089 0.0
C330 C 0.31745 0.96668 0.74253 0.0
C331 C 0.31748 0.93897 0.75803 0.0
C332 C 0.00059 0.317 0.7458 0.0
C333 C 0.02851 0.31666 0.76089 0.0
C334 C 0.96757 0.31733 0.72915 0.0
C335 C 0.93989 0.31746 0.71347 0.0
C336 C 0.30769 -0.00095 0.24646 0.0
C337 C 0.30667 0.02515 0.26615 0.0
C338 C 0.30769 0.96843 0.22327 0.0
C339 C 0.30666 0.9422 0.20381 0.0
C340 C 0.96889 0.30682 0.24707 0.0
C341 C 0.94272 0.30583 0.26673 0.0
C342 C -0.0005 0.30687 0.22377 0.0
C343 C 0.02569 0.30591 0.20415 0.0
C344 C 0.66213 0.96824 0.24703 0.0
C345 C 0.66302 0.94207 0.26664 0.0
C346 C 0.66214 -0.00113 0.22381 0.0
C347 C 0.66302 0.02505 0.20422 0.0
C348 C -0.00028 0.65981 0.24718 0.0
C349 C 0.02587 0.66089 0.26686 0.0
C350 C 0.96912 0.65974 0.22387 0.0
C351 C 0.94297 0.66075 0.20419 0.0
loop_
_geom_bond_atom_site_label_1
_geom_bond_atom_site_label_2
_geom_bond_distance
_geom_bond_site_symmetry_2
_ccdc_geom_bond_type
Mg0 O1 2.028 . S
Mg0 O7 1.986 . S
Mg0 O9 2.114 . S
Mg0 O10 2.251 . S
Mg0 O13 2.010 . S
O1 Mg0 2.028 . S
O1 C4 1.250 . S
O2 Mg3 2.028 . S
O2 C4 1.248 . S
Mg3 O2 2.028 . S
Mg3 O8 2.032 . S
Mg3 O10 2.079 . S
C4 O1 1.250 . S
C4 O2 1.248 . S
C5 O6 1.264 . S
C5 O13 1.249 . S
O6 C5 1.264 . S
O7 Mg0 1.986 . S
O7 C11 1.246 . S
O8 Mg3 2.032 . S
O8 C11 1.259 . S
O9 Mg0 2.114 . S
O9 C12 1.252 . S
O10 Mg0 2.251 . S
O10 Mg3 2.079 . S
O10 C12 1.273 . S
C11 O7 1.246 . S
C11 O8 1.259 . S
C12 O9 1.252 . S
C12 O10 1.273 . S
O13 Mg0 2.010 . S
O13 C5 1.249 . S
Mg14 O15 2.028 . S
Mg14 O21 1.986 . S
Mg14 O23 2.114 . S
Mg14 O24 2.251 . S
Mg14 O27 2.010 . S
O15 Mg14 2.028 . S
O15 C18 1.250 . S
O16 Mg17 2.028 . S
O16 C18 1.248 . S
Mg17 O16 2.028 . S
Mg17 O22 2.032 . S
Mg17 O24 2.079 . S
C18 O15 1.250 . S
C18 O16 1.248 . S
C19 O20 1.264 . S
C19 O27 1.249 . S
O20 C19 1.264 . S
O21 Mg14 1.986 . S
O21 C25 1.246 . S
O22 Mg17 2.032 . S
O22 C25 1.259 . S
O23 Mg14 2.114 . S
O23 C26 1.252 . S
O24 Mg14 2.251 . S
O24 Mg17 2.079 . S
O24 C26 1.273 . S
C25 O21 1.246 . S
C25 O22 1.259 . S
C26 O23 1.252 . S
C26 O24 1.273 . S
O27 Mg14 2.010 . S
O27 C19 1.249 . S
Mg28 O29 2.028 . S
Mg28 O35 1.986 . S
Mg28 O37 2.114 . S
Mg28 O38 2.251 . S
Mg28 O41 2.010 . S
O29 Mg28 2.028 . S
O29 C32 1.250 . S
O30 Mg31 2.028 . S
O30 C32 1.248 . S
Mg31 O30 2.028 . S
Mg31 O36 2.032 . S
Mg31 O38 2.079 . S
C32 O29 1.250 . S
C32 O30 1.248 . S
C33 O34 1.264 . S
C33 O41 1.249 . S
O34 C33 1.264 . S
O35 Mg28 1.986 . S
O35 C39 1.246 . S
O36 Mg31 2.032 . S
O36 C39 1.259 . S
O37 Mg28 2.114 . S
O37 C40 1.252 . S
O38 Mg28 2.251 . S
O38 Mg31 2.079 . S
O38 C40 1.273 . S
C39 O35 1.246 . S
C39 O36 1.259 . S
C40 O37 1.252 . S
C40 O38 1.273 . S
O41 Mg28 2.010 . S
O41 C33 1.249 . S
Mg42 O43 2.028 . S
Mg42 O49 1.986 . S
Mg42 O51 2.114 . S
Mg42 O52 2.251 . S
Mg42 O55 2.010 . S
O43 Mg42 2.028 . S
O43 C46 1.250 . S
O44 Mg45 2.028 . S
O44 C46 1.248 . S
Mg45 O44 2.028 . S
Mg45 O50 2.032 . S
Mg45 O52 2.079 . S
C46 O43 1.250 . S
C46 O44 1.248 . S
C47 O48 1.264 . S
C47 O55 1.249 . S
O48 C47 1.264 . S
O49 Mg42 1.986 . S
O49 C53 1.246 . S
O50 Mg45 2.032 . S
O50 C53 1.259 . S
O51 Mg42 2.114 . S
O51 C54 1.252 . S
O52 Mg42 2.251 . S
O52 Mg45 2.079 . S
O52 C54 1.273 . S
C53 O49 1.246 . S
C53 O50 1.259 . S
C54 O51 1.252 . S
C54 O52 1.273 . S
O55 Mg42 2.010 . S
O55 C47 1.249 . S
Mg56 O57 2.028 . S
Mg56 O63 1.986 . S
Mg56 O65 2.114 . S
Mg56 O66 2.251 . S
Mg56 O69 2.010 . S
O57 Mg56 2.028 . S
O57 C60 1.250 . S
O58 Mg59 2.028 . S
O58 C60 1.248 . S
Mg59 O58 2.028 . S
Mg59 O64 2.032 . S
Mg59 O66 2.079 . S
C60 O57 1.250 . S
C60 O58 1.248 . S
C61 O62 1.264 . S
C61 O69 1.249 . S
O62 C61 1.264 . S
O63 Mg56 1.986 . S
O63 C67 1.246 . S
O64 Mg59 2.032 . S
O64 C67 1.259 . S
O65 Mg56 2.114 . S
O65 C68 1.252 . S
O66 Mg56 2.251 . S
O66 Mg59 2.079 . S
O66 C68 1.273 . S
C67 O63 1.246 . S
C67 O64 1.259 . S
C68 O65 1.252 . S
C68 O66 1.273 . S
O69 Mg56 2.010 . S
O69 C61 1.249 . S
Mg70 O71 2.028 . S
Mg70 O77 1.986 . S
Mg70 O79 2.114 . S
Mg70 O80 2.251 . S
Mg70 O83 2.010 . S
O71 Mg70 2.028 . S
O71 C74 1.250 . S
O72 Mg73 2.028 . S
O72 C74 1.248 . S
Mg73 O72 2.028 . S
Mg73 O78 2.032 . S
Mg73 O80 2.079 . S
C74 O71 1.250 . S
C74 O72 1.248 . S
C75 O76 1.264 . S
C75 O83 1.249 . S
O76 C75 1.264 . S
O77 Mg70 1.986 . S
O77 C81 1.246 . S
O78 Mg73 2.032 . S
O78 C81 1.259 . S
O79 Mg70 2.114 . S
O79 C82 1.252 . S
O80 Mg70 2.251 . S
O80 Mg73 2.079 . S
O80 C82 1.273 . S
C81 O77 1.246 . S
C81 O78 1.259 . S
C82 O79 1.252 . S
C82 O80 1.273 . S
O83 Mg70 2.010 . S
O83 C75 1.249 . S
Mg84 O85 2.028 . S
Mg84 O91 1.986 . S
Mg84 O93 2.114 . S
Mg84 O94 2.251 . S
Mg84 O97 2.010 . S
O85 Mg84 2.028 . S
O85 C88 1.250 . S
O86 Mg87 2.028 . S
O86 C88 1.248 . S
Mg87 O86 2.028 . S
Mg87 O92 2.032 . S
Mg87 O94 2.079 . S
C88 O85 1.250 . S
C88 O86 1.248 . S
C89 O90 1.264 . S
C89 O97 1.249 . S
O90 C89 1.264 . S
O91 Mg84 1.986 . S
O91 C95 1.246 . S
O92 Mg87 2.032 . S
O92 C95 1.259 . S
O93 Mg84 2.114 . S
O93 C96 1.252 . S
O94 Mg84 2.251 . S
O94 Mg87 2.079 . S
O94 C96 1.273 . S
C95 O91 1.246 . S
C95 O92 1.259 . S
C96 O93 1.252 . S
C96 O94 1.273 . S
O97 Mg84 2.010 . S
O97 C89 1.249 . S
Mg98 O99 2.028 . S
Mg98 O105 1.986 . S
Mg98 O107 2.114 . S
Mg98 O108 2.251 . S
Mg98 O111 2.010 . S
O99 Mg98 2.028 . S
O99 C102 1.250 . S
O100 Mg101 2.028 . S
O100 C102 1.248 . S
Mg101 O100 2.028 . S
Mg101 O106 2.032 . S
Mg101 O108 2.079 . S
C102 O99 1.250 . S
C102 O100 1.248 . S
C103 O104 1.264 . S
C103 O111 1.249 . S
O104 C103 1.264 . S
O105 Mg98 1.986 . S
O105 C109 1.246 . S
O106 Mg101 2.032 . S
O106 C109 1.259 . S
O107 Mg98 2.114 . S
O107 C110 1.252 . S
O108 Mg98 2.251 . S
O108 Mg101 2.079 . S
O108 C110 1.273 . S
C109 O105 1.246 . S
C109 O106 1.259 . S
C110 O107 1.252 . S
C110 O108 1.273 . S
O111 Mg98 2.010 . S
O111 C103 1.249 . S
Mg112 O113 2.028 . S
Mg112 O119 1.986 . S
Mg112 O121 2.114 . S
Mg112 O122 2.251 . S
Mg112 O125 2.010 . S
O113 Mg112 2.028 . S
O113 C116 1.250 . S
O114 Mg115 2.028 . S
O114 C116 1.248 . S
Mg115 O114 2.028 . S
Mg115 O120 2.032 . S
Mg115 O122 2.079 . S
C116 O113 1.250 . S
C116 O114 1.248 . S
C117 O118 1.264 . S
C117 O125 1.249 . S
O118 C117 1.264 . S
O119 Mg112 1.986 . S
O119 C123 1.246 . S
O120 Mg115 2.032 . S
O120 C123 1.259 . S
O121 Mg112 2.114 . S
O121 C124 1.252 . S
O122 Mg112 2.251 . S
O122 Mg115 2.079 . S
O122 C124 1.273 . S
C123 O119 1.246 . S
C123 O120 1.259 . S
C124 O121 1.252 . S
C124 O122 1.273 . S
O125 Mg112 2.010 . S
O125 C117 1.249 . S
Mg126 O127 2.028 . S
Mg126 O133 1.986 . S
Mg126 O135 2.114 . S
Mg126 O136 2.251 . S
Mg126 O139 2.010 . S
O127 Mg126 2.028 . S
O127 C130 1.250 . S
O128 Mg129 2.028 . S
O128 C130 1.248 . S
Mg129 O128 2.028 . S
Mg129 O134 2.032 . S
Mg129 O136 2.079 . S
C130 O127 1.250 . S
C130 O128 1.248 . S
C131 O132 1.264 . S
C131 O139 1.249 . S
O132 C131 1.264 . S
O133 Mg126 1.986 . S
O133 C137 1.246 . S
O134 Mg129 2.032 . S
O134 C137 1.259 . S
O135 Mg126 2.114 . S
O135 C138 1.252 . S
O136 Mg126 2.251 . S
O136 Mg129 2.079 . S
O136 C138 1.273 . S
C137 O133 1.246 . S
C137 O134 1.259 . S
C138 O135 1.252 . S
C138 O136 1.273 . S
O139 Mg126 2.010 . S
O139 C131 1.249 . S
Mg140 O141 2.028 . S
Mg140 O147 1.986 . S
Mg140 O149 2.114 . S
Mg140 O150 2.251 . S
Mg140 O153 2.010 . S
O141 Mg140 2.028 . S
O141 C144 1.250 . S
O142 Mg143 2.028 . S
O142 C144 1.248 . S
Mg143 O142 2.028 . S
Mg143 O148 2.032 . S
Mg143 O150 2.079 . S
C144 O141 1.250 . S
C144 O142 1.248 . S
C145 O146 1.264 . S
C145 O153 1.249 . S
O146 C145 1.264 . S
O147 Mg140 1.986 . S
O147 C151 1.246 . S
O148 Mg143 2.032 . S
O148 C151 1.259 . S
O149 Mg140 2.114 . S
O149 C152 1.252 . S
O150 Mg140 2.251 . S
O150 Mg143 2.079 . S
O150 C152 1.273 . S
C151 O147 1.246 . S
C151 O148 1.259 . S
C152 O149 1.252 . S
C152 O150 1.273 . S
O153 Mg140 2.010 . S
O153 C145 1.249 . S
Mg154 O155 2.028 . S
Mg154 O161 1.986 . S
Mg154 O163 2.114 . S
Mg154 O164 2.251 . S
Mg154 O167 2.010 . S
O155 Mg154 2.028 . S
O155 C158 1.250 . S
O156 Mg157 2.028 . S
O156 C158 1.248 . S
Mg157 O156 2.028 . S
Mg157 O162 2.032 . S
Mg157 O164 2.079 . S
C158 O155 1.250 . S
C158 O156 1.248 . S
C159 O160 1.264 . S
C159 O167 1.249 . S
O160 C159 1.264 . S
O161 Mg154 1.986 . S
O161 C165 1.246 . S
O162 Mg157 2.032 . S
O162 C165 1.259 . S
O163 Mg154 2.114 . S
O163 C166 1.252 . S
O164 Mg154 2.251 . S
O164 Mg157 2.079 . S
O164 C166 1.273 . S
C165 O161 1.246 . S
C165 O162 1.259 . S
C166 O163 1.252 . S
C166 O164 1.273 . S
O167 Mg154 2.010 . S
O167 C159 1.249 . S
Mg168 O169 2.028 . S
Mg168 O175 1.986 . S
Mg168 O177 2.114 . S
Mg168 O178 2.251 . S
Mg168 O181 2.010 . S
O169 Mg168 2.028 . S
O169 C172 1.250 . S
O170 Mg171 2.028 . S
O170 C172 1.248 . S
Mg171 O170 2.028 . S
Mg171 O176 2.032 . S
Mg171 O178 2.079 . S
C172 O169 1.250 . S
C172 O170 1.248 . S
C173 O174 1.264 . S
C173 O181 1.249 . S
O174 C173 1.264 . S
O175 Mg168 1.986 . S
O175 C179 1.246 . S
O176 Mg171 2.032 . S
O176 C179 1.259 . S
O177 Mg168 2.114 . S
O177 C180 1.252 . S
O178 Mg168 2.251 . S
O178 Mg171 2.079 . S
O178 C180 1.273 . S
C179 O175 1.246 . S
C179 O176 1.259 . S
C180 O177 1.252 . S
C180 O178 1.273 . S
O181 Mg168 2.010 . S
O181 C173 1.249 . S
Mg182 O183 2.028 . S
Mg182 O189 1.986 . S
Mg182 O191 2.114 . S
Mg182 O192 2.251 . S
Mg182 O195 2.010 . S
O183 Mg182 2.028 . S
O183 C186 1.250 . S
O184 Mg185 2.028 . S
O184 C186 1.248 . S
Mg185 O184 2.028 . S
Mg185 O190 2.032 . S
Mg185 O192 2.079 . S
C186 O183 1.250 . S
C186 O184 1.248 . S
C187 O188 1.264 . S
C187 O195 1.249 . S
O188 C187 1.264 . S
O189 Mg182 1.986 . S
O189 C193 1.246 . S
O190 Mg185 2.032 . S
O190 C193 1.259 . S
O191 Mg182 2.114 . S
O191 C194 1.252 . S
O192 Mg182 2.251 . S
O192 Mg185 2.079 . S
O192 C194 1.273 . S
C193 O189 1.246 . S
C193 O190 1.259 . S
C194 O191 1.252 . S
C194 O192 1.273 . S
O195 Mg182 2.010 . S
O195 C187 1.249 . S
Mg196 O197 2.028 . S
Mg196 O203 1.986 . S
Mg196 O205 2.114 . S
Mg196 O206 2.251 . S
Mg196 O209 2.010 . S
O197 Mg196 2.028 . S
O197 C200 1.250 . S
O198 Mg199 2.028 . S
O198 C200 1.248 . S
Mg199 O198 2.028 . S
Mg199 O204 2.032 . S
Mg199 O206 2.079 . S
C200 O197 1.250 . S
C200 O198 1.248 . S
C201 O202 1.264 . S
C201 O209 1.249 . S
O202 C201 1.264 . S
O203 Mg196 1.986 . S
O203 C207 1.246 . S
O204 Mg199 2.032 . S
O204 C207 1.259 . S
O205 Mg196 2.114 . S
O205 C208 1.252 . S
O206 Mg196 2.251 . S
O206 Mg199 2.079 . S
O206 C208 1.273 . S
C207 O203 1.246 . S
C207 O204 1.259 . S
C208 O205 1.252 . S
C208 O206 1.273 . S
O209 Mg196 2.010 . S
O209 C201 1.249 . S
Mg210 O211 2.028 . S
Mg210 O217 1.986 . S
Mg210 O219 2.114 . S
Mg210 O220 2.251 . S
Mg210 O223 2.010 . S
O211 Mg210 2.028 . S
O211 C214 1.250 . S
O212 Mg213 2.028 . S
O212 C214 1.248 . S
Mg213 O212 2.028 . S
Mg213 O218 2.032 . S
Mg213 O220 2.079 . S
C214 O211 1.250 . S
C214 O212 1.248 . S
C215 O216 1.264 . S
C215 O223 1.249 . S
O216 C215 1.264 . S
O217 Mg210 1.986 . S
O217 C221 1.246 . S
O218 Mg213 2.032 . S
O218 C221 1.259 . S
O219 Mg210 2.114 . S
O219 C222 1.252 . S
O220 Mg210 2.251 . S
O220 Mg213 2.079 . S
O220 C222 1.273 . S
C221 O217 1.246 . S
C221 O218 1.259 . S
C222 O219 1.252 . S
C222 O220 1.273 . S
O223 Mg210 2.010 . S
O223 C215 1.249 . S
C224 C225 1.170 . S
C224 C226 1.380 . S
C225 C224 1.170 . S
C226 C224 1.380 . S
C226 C227 1.170 . S
C227 C226 1.170 . S
C228 C229 1.170 . S
C228 C230 1.380 . S
C229 C228 1.170 . S
C230 C228 1.380 . S
C230 C231 1.170 . S
C231 C230 1.170 . S
C232 C233 1.170 . S
C232 C234 1.380 . S
C233 C232 1.170 . S
C234 C232 1.380 . S
C234 C235 1.170 . S
C235 C234 1.170 . S
C236 C237 1.170 . S
C236 C238 1.380 . S
C237 C236 1.170 . S
C238 C236 1.380 . S
C238 C239 1.170 . S
C239 C238 1.170 . S
C240 C241 1.170 . S
C240 C242 1.380 . S
C241 C240 1.170 . S
C242 C240 1.380 . S
C242 C243 1.170 . S
C243 C242 1.170 . S
C244 C245 1.170 . S
C244 C246 1.380 . S
C245 C244 1.170 . S
C246 C244 1.380 . S
C246 C247 1.170 . S
C247 C246 1.170 . S
C248 C249 1.170 . S
C248 C250 1.380 . S
C249 C248 1.170 . S
C250 C248 1.380 . S
C250 C251 1.170 . S
C251 C250 1.170 . S
C252 C253 1.170 . S
C252 C254 1.380 . S
C253 C252 1.170 . S
C254 C252 1.380 . S
C254 C255 1.170 . S
C255 C254 1.170 . S
C256 C257 1.170 . S
C256 C258 1.380 1_556 S
C257 C256 1.170 . S
C258 C256 1.380 1_554 S
C258 C259 1.170 . S
C259 C258 1.170 . S
C260 C261 1.170 . S
C260 C262 1.380 1_556 S
C261 C260 1.170 . S
C262 C260 1.380 1_554 S
C262 C263 1.170 . S
C263 C262 1.170 . S
C264 C265 1.170 . S
C264 C266 1.380 1_556 S
C265 C264 1.170 . S
C266 C264 1.380 1_554 S
C266 C267 1.170 . S
C267 C266 1.170 . S
C268 C269 1.170 . S
C268 C270 1.380 1_554 S
C269 C268 1.170 . S
C270 C268 1.380 1_556 S
C270 C271 1.170 . S
C271 C270 1.170 . S
C272 C273 1.170 . S
C272 C274 1.380 . S
C273 C272 1.170 . S
C274 C272 1.380 . S
C274 C275 1.170 . S
C275 C274 1.170 . S
C276 C277 1.170 . S
C276 C278 1.380 . S
C277 C276 1.170 . S
C278 C276 1.380 . S
C278 C279 1.170 . S
C279 C278 1.170 . S
C280 C281 1.170 . S
C280 C282 1.380 . S
C281 C280 1.170 . S
C282 C280 1.380 . S
C282 C283 1.170 . S
C283 C282 1.170 . S
C284 C285 1.170 . S
C284 C286 1.380 . S
C285 C284 1.170 . S
C286 C284 1.380 . S
C286 C287 1.170 . S
C287 C286 1.170 . S
C288 C289 1.170 . S
C288 C290 1.380 . S
C289 C288 1.170 . S
C290 C288 1.380 . S
C290 C291 1.170 . S
C291 C290 1.170 . S
C292 C293 1.170 . S
C292 C294 1.380 . S
C293 C292 1.170 . S
C294 C292 1.380 . S
C294 C295 1.170 . S
C295 C294 1.170 . S
C296 C297 1.170 . S
C296 C298 1.380 . S
C297 C296 1.170 . S
C298 C296 1.380 . S
C298 C299 1.170 . S
C299 C298 1.170 . S
C300 C301 1.170 . S
C300 C302 1.380 . S
C301 C300 1.170 . S
C302 C300 1.380 . S
C302 C303 1.170 . S
C303 C302 1.170 . S
C304 C305 1.170 . S
C304 C306 1.380 . S
C305 C304 1.170 . S
C306 C304 1.380 . S
C306 C307 1.170 . S
C307 C306 1.170 . S
C308 C309 1.170 . S
C308 C310 1.380 . S
C309 C308 1.170 . S
C310 C308 1.380 . S
C310 C311 1.170 . S
C311 C310 1.170 . S
C312 C313 1.170 . S
C312 C314 1.380 . S
C313 C312 1.170 . S
C314 C312 1.380 . S
C314 C315 1.170 . S
C315 C314 1.170 . S
C316 C317 1.170 . S
C316 C318 1.380 . S
C317 C316 1.170 . S
C318 C316 1.380 . S
C318 C319 1.170 . S
C319 C318 1.170 . S
C320 C321 1.170 . S
C320 C322 1.380 1_545 S
C321 C320 1.170 . S
C322 C320 1.380 1_565 S
C322 C323 1.170 . S
C323 C322 1.170 . S
C324 C325 1.170 . S
C324 C326 1.380 1_655 S
C325 C324 1.170 . S
C326 C324 1.380 1_455 S
C326 C327 1.170 . S
C327 C326 1.170 . S
C328 C329 1.170 . S
C328 C330 1.380 1_545 S
C329 C328 1.170 . S
C330 C328 1.380 1_565 S
C330 C331 1.170 . S
C331 C330 1.170 . S
C332 C333 1.170 . S
C332 C334 1.380 1_455 S
C333 C332 1.170 . S
C334 C332 1.380 1_655 S
C334 C335 1.170 . S
C335 C334 1.170 . S
C336 C337 1.170 . S
C336 C338 1.380 1_545 S
C337 C336 1.170 . S
C338 C336 1.380 1_565 S
C338 C339 1.170 . S
C339 C338 1.170 . S
C340 C341 1.170 . S
C340 C342 1.380 1_655 S
C341 C340 1.170 . S
C342 C340 1.380 1_455 S
C342 C343 1.170 . S
C343 C342 1.170 . S
C344 C345 1.170 . S
C344 C346 1.380 1_565 S
C345 C344 1.170 . S
C346 C344 1.380 1_545 S
C346 C347 1.170 . S
C347 C346 1.170 . S
C348 C349 1.170 . S
C348 C350 1.380 1_455 S
C349 C348 1.170 . S
C350 C348 1.380 1_655 S
C350 C351 1.170 . S
C351 C350 1.170 . S
C225 C81 1.252 . S
C227 C11 1.264 . S
C229 C95 1.278 . S
C231 C25 1.279 . S
C233 C39 1.249 . S
C235 C109 1.255 . S
C237 C53 1.275 . S
C239 C67 1.261 . S
C241 C193 1.272 . S
C243 C123 1.258 . S
C245 C207 1.278 . S
C247 C137 1.279 . S
C249 C151 1.264 . S
C251 C221 1.277 . S
C253 C165 1.280 . S
C255 C179 1.276 . S
C257 C152 1.549 . S
C259 C12 1.536 . S
C261 C166 1.533 . S
C263 C26 1.550 . S
C265 C124 1.529 . S
C267 C40 1.548 . S
C269 C54 1.549 . S
C271 C138 1.530 . S
C273 C208 1.531 . S
C275 C68 1.538 . S
C277 C222 1.535 . S
C279 C82 1.549 . S
C281 C96 1.536 . S
C283 C180 1.533 . S
C285 C194 1.535 . S
C287 C110 1.549 . S
C289 C61 1.156 . S
C291 C5 1.154 . S
C293 C19 1.070 . S
C295 C75 1.078 . S
C297 C33 1.118 . S
C299 C89 1.134 . S
C301 C103 1.092 . S
C303 C47 1.078 . S
C305 C116 1.632 . S
C307 C172 1.628 . S
C309 C186 1.627 . S
C311 C130 1.631 . S
C313 C144 1.630 . S
C315 C200 1.627 . S
C317 C214 1.630 . S
C319 C158 1.636 . S
C321 C159 1.069 . S
C323 C187 1.071 . S
C325 C117 1.156 . S
C327 C201 1.152 . S
C329 C215 1.076 . S
C331 C131 1.089 . S
C333 C145 1.094 . S
C335 C173 1.111 . S
C337 C74 1.639 . S
C339 C46 1.635 . S
C341 C88 1.636 . S
C343 C4 1.639 . S
C345 C102 1.630 . S
C347 C18 1.627 . S
C349 C60 1.638 . S
C351 C32 1.639 . S
