# Generated by pormake.
# Topology unv, (4)-cn, num edge types: 1
# Building blocks:
#     Node 0, Type 0, BuildingBlock: ICAMEG_clean_sbu_1, # of connection points: 4
#     Node 1, Type 0, BuildingBlock: ICAMEG_clean_sbu_1, # of connection points: 4
#     Node 2, Type 0, BuildingBlock: ICAMEG_clean_sbu_1, # of connection points: 4
#     Node 3, Type 0, BuildingBlock: ICAMEG_clean_sbu_1, # of connection points: 4
#     Node 4, Type 0, BuildingBlock: ICAMEG_clean_sbu_1, # of connection points: 4
#     Node 5, Type 0, BuildingBlock: ICAMEG_clean_sbu_1, # of connection points: 4
#     Node 6, Type 0, BuildingBlock: ICAMEG_clean_sbu_1, # of connection points: 4
#     Node 7, Type 0, BuildingBlock: ICAMEG_clean_sbu_1, # of connection points: 4
#     Node 8, Type 0, BuildingBlock: ICAMEG_clean_sbu_1, # of connection points: 4
#     Node 9, Type 0, BuildingBlock: ICAMEG_clean_sbu_1, # of connection points: 4
#     Node 10, Type 0, BuildingBlock: ICAMEG_clean_sbu_1, # of connection points: 4
#     Node 11, Type 0, BuildingBlock: ICAMEG_clean_sbu_1, # of connection points: 4
#     Node 12, Type 0, BuildingBlock: ICAMEG_clean_sbu_1, # of connection points: 4
#     Node 13, Type 0, BuildingBlock: ICAMEG_clean_sbu_1, # of connection points: 4
#     Node 14, Type 0, BuildingBlock: ICAMEG_clean_sbu_1, # of connection points: 4
#     Node 15, Type 0, BuildingBlock: ICAMEG_clean_sbu_1, # of connection points: 4
#     Node 16, Type 0, BuildingBlock: ICAMEG_clean_sbu_1, # of connection points: 4
#     Node 17, Type 0, BuildingBlock: ICAMEG_clean_sbu_1, # of connection points: 4
#     Node 18, Type 0, BuildingBlock: ICAMEG_clean_sbu_1, # of connection points: 4
#     Node 19, Type 0, BuildingBlock: ICAMEG_clean_sbu_1, # of connection points: 4
#     Node 20, Type 0, BuildingBlock: ICAMEG_clean_sbu_1, # of connection points: 4
#     Node 21, Type 0, BuildingBlock: ICAMEG_clean_sbu_1, # of connection points: 4
#     Node 22, Type 0, BuildingBlock: ICAMEG_clean_sbu_1, # of connection points: 4
#     Node 23, Type 0, BuildingBlock: ICAMEG_clean_sbu_1, # of connection points: 4
#     Edge 24, Type (0, 0), BuildingBlock: KIFKEQ_clean_linker_1, # of connection points: 2
#     Edge 25, Type (0, 0), BuildingBlock: KIFKEQ_clean_linker_1, # of connection points: 2
#     Edge 26, Type (0, 0), BuildingBlock: KIFKEQ_clean_linker_1, # of connection points: 2
#     Edge 27, Type (0, 0), BuildingBlock: KIFKEQ_clean_linker_1, # of connection points: 2
#     Edge 28, Type (0, 0), BuildingBlock: KIFKEQ_clean_linker_1, # of connection points: 2
#     Edge 29, Type (0, 0), BuildingBlock: KIFKEQ_clean_linker_1, # of connection points: 2
#     Edge 30, Type (0, 0), BuildingBlock: KIFKEQ_clean_linker_1, # of connection points: 2
#     Edge 31, Type (0, 0), BuildingBlock: KIFKEQ_clean_linker_1, # of connection points: 2
#     Edge 32, Type (0, 0), BuildingBlock: KIFKEQ_clean_linker_1, # of connection points: 2
#     Edge 33, Type (0, 0), BuildingBlock: KIFKEQ_clean_linker_1, # of connection points: 2
#     Edge 34, Type (0, 0), BuildingBlock: KIFKEQ_clean_linker_1, # of connection points: 2
#     Edge 35, Type (0, 0), BuildingBlock: KIFKEQ_clean_linker_1, # of connection points: 2
#     Edge 36, Type (0, 0), BuildingBlock: KIFKEQ_clean_linker_1, # of connection points: 2
#     Edge 37, Type (0, 0), BuildingBlock: KIFKEQ_clean_linker_1, # of connection points: 2
#     Edge 38, Type (0, 0), BuildingBlock: KIFKEQ_clean_linker_1, # of connection points: 2
#     Edge 39, Type (0, 0), BuildingBlock: KIFKEQ_clean_linker_1, # of connection points: 2
#     Edge 40, Type (0, 0), BuildingBlock: KIFKEQ_clean_linker_1, # of connection points: 2
#     Edge 41, Type (0, 0), BuildingBlock: KIFKEQ_clean_linker_1, # of connection points: 2
#     Edge 42, Type (0, 0), BuildingBlock: KIFKEQ_clean_linker_1, # of connection points: 2
#     Edge 43, Type (0, 0), BuildingBlock: KIFKEQ_clean_linker_1, # of connection points: 2
#     Edge 44, Type (0, 0), BuildingBlock: KIFKEQ_clean_linker_1, # of connection points: 2
#     Edge 45, Type (0, 0), BuildingBlock: KIFKEQ_clean_linker_1, # of connection points: 2
#     Edge 46, Type (0, 0), BuildingBlock: KIFKEQ_clean_linker_1, # of connection points: 2
#     Edge 47, Type (0, 0), BuildingBlock: KIFKEQ_clean_linker_1, # of connection points: 2
#     Edge 48, Type (0, 0), BuildingBlock: KIFKEQ_clean_linker_1, # of connection points: 2
#     Edge 49, Type (0, 0), BuildingBlock: KIFKEQ_clean_linker_1, # of connection points: 2
#     Edge 50, Type (0, 0), BuildingBlock: KIFKEQ_clean_linker_1, # of connection points: 2
#     Edge 51, Type (0, 0), BuildingBlock: KIFKEQ_clean_linker_1, # of connection points: 2
#     Edge 52, Type (0, 0), BuildingBlock: KIFKEQ_clean_linker_1, # of connection points: 2
#     Edge 53, Type (0, 0), BuildingBlock: KIFKEQ_clean_linker_1, # of connection points: 2
#     Edge 54, Type (0, 0), BuildingBlock: KIFKEQ_clean_linker_1, # of connection points: 2
#     Edge 55, Type (0, 0), BuildingBlock: KIFKEQ_clean_linker_1, # of connection points: 2
#     Edge 56, Type (0, 0), BuildingBlock: KIFKEQ_clean_linker_1, # of connection points: 2
#     Edge 57, Type (0, 0), BuildingBlock: KIFKEQ_clean_linker_1, # of connection points: 2
#     Edge 58, Type (0, 0), BuildingBlock: KIFKEQ_clean_linker_1, # of connection points: 2
#     Edge 59, Type (0, 0), BuildingBlock: KIFKEQ_clean_linker_1, # of connection points: 2
#     Edge 60, Type (0, 0), BuildingBlock: KIFKEQ_clean_linker_1, # of connection points: 2
#     Edge 61, Type (0, 0), BuildingBlock: KIFKEQ_clean_linker_1, # of connection points: 2
#     Edge 62, Type (0, 0), BuildingBlock: KIFKEQ_clean_linker_1, # of connection points: 2
#     Edge 63, Type (0, 0), BuildingBlock: KIFKEQ_clean_linker_1, # of connection points: 2
#     Edge 64, Type (0, 0), BuildingBlock: KIFKEQ_clean_linker_1, # of connection points: 2
#     Edge 65, Type (0, 0), BuildingBlock: KIFKEQ_clean_linker_1, # of connection points: 2
#     Edge 66, Type (0, 0), BuildingBlock: KIFKEQ_clean_linker_1, # of connection points: 2
#     Edge 67, Type (0, 0), BuildingBlock: KIFKEQ_clean_linker_1, # of connection points: 2
#     Edge 68, Type (0, 0), BuildingBlock: KIFKEQ_clean_linker_1, # of connection points: 2
#     Edge 69, Type (0, 0), BuildingBlock: KIFKEQ_clean_linker_1, # of connection points: 2
#     Edge 70, Type (0, 0), BuildingBlock: KIFKEQ_clean_linker_1, # of connection points: 2
#     Edge 71, Type (0, 0), BuildingBlock: KIFKEQ_clean_linker_1, # of connection points: 2
# Relax obj value: 0.193
# Max RMSD: 0.147
# Mean RMSD: 0.124
data_MOF--net-unv--node1-ICAMEG_clean_sbu_1--edge1-KIFKEQ_clean_linker_1
_symmetry_space_group_name_H-M    P1
_symmetry_Int_Tables_number       1
_symmetry_cell_setting            triclinic
loop_
_symmetry_equiv_pos_as_xyz
'x, y, z'
_cell_length_a     53.349659
_cell_length_b     53.351541
_cell_length_c     53.341896
_cell_angle_alpha  89.980873
_cell_angle_beta   89.982789
_cell_angle_gamma 89.982915
loop_
_atom_site_label
_atom_site_type_symbol
_atom_site_fract_x
_atom_site_fract_y
_atom_site_fract_z
_atom_type_partial_charge
Co0 Co 0.98336 0.06877 0.36888 0.0
Co1 Co 0.94884 0.10898 0.40594 0.0
O2 O 0.96244 0.09835 0.37359 0.0
C3 C 0.94335 0.05581 0.33194 0.0
O4 O 0.92646 0.0564 0.34984 0.0
C5 C 0.97815 0.15233 0.38865 0.0
O6 O 0.99614 0.13624 0.38384 0.0
O7 O 0.98198 0.10516 0.42282 0.0
O8 O 0.00139 0.07502 0.4009 0.0
H9 H 0.9348 0.10377 0.49895 0.0
H10 H 0.9798 0.10641 0.32818 0.0
O11 O 0.96608 0.06153 0.33647 0.0
H12 H 0.06937 0.10316 0.35075 0.0
H13 H 0.03525 0.00854 0.31798 0.0
H14 H 0.0008 0.02737 0.40169 0.0
H15 H 0.03876 0.07591 0.37214 0.0
H16 H 0.0096 0.04638 0.32485 0.0
O17 O 0.95738 0.14464 0.39761 0.0
H18 H 0.95172 0.09006 0.45815 0.0
H19 H 0.91702 0.15197 0.42207 0.0
H20 H 0.02655 0.98944 0.39569 0.0
H21 H 0.00981 0.13386 0.30616 0.0
H22 H 0.04397 0.97982 0.35359 0.0
H23 H 0.05495 0.13239 0.31749 0.0
O24 O 0.95879 0.04757 0.38723 0.0
H25 H 0.8903 0.13762 0.33793 0.0
H26 H 0.89698 0.09213 0.41815 0.0
H27 H 0.8558 0.09587 0.39748 0.0
H28 H 0.85227 0.11881 0.35711 0.0
H29 H 0.93116 0.13325 0.35915 0.0
H30 H 0.89988 0.16648 0.46251 0.0
H31 H 0.90867 0.14225 0.5013 0.0
O32 O 0.94034 0.07355 0.4149 0.0
C33 C -2e-05 0.08978 0.41959 0.0
C34 C 0.93075 0.11444 0.48217 0.0
C35 C 0.91118 0.14965 0.46172 0.0
N36 N 0.93514 0.12006 0.43774 0.0
C37 C 0.94021 0.10672 0.459 0.0
C38 C 0.92097 0.14137 0.43888 0.0
C39 C 0.91611 0.13604 0.48347 0.0
C40 C 0.99945 0.10549 0.33303 0.0
N41 N 0.00753 0.08951 0.35134 0.0
C42 C 0.01634 0.12115 0.32057 0.0
C43 C 0.04165 0.12035 0.32696 0.0
C44 C 0.04976 0.10396 0.34564 0.0
C45 C 0.03233 0.08861 0.35772 0.0
C46 C 0.02783 0.01257 0.33643 0.0
C47 C 0.00846 0.02341 0.38335 0.0
C48 C 0.01326 0.03395 0.34043 0.0
N49 N 0.00391 0.03921 0.36371 0.0
C50 C 0.02297 0.00186 0.38005 0.0
C51 C 0.03271 0.99646 0.35642 0.0
C52 C 0.94434 0.05174 0.40585 0.0
C53 C 0.89159 0.12764 0.35555 0.0
C54 C 0.89561 0.10206 0.40054 0.0
C55 C 0.87223 0.10417 0.38895 0.0
C56 C 0.87026 0.11705 0.36631 0.0
N57 N 0.91642 0.11258 0.38992 0.0
C58 C 0.91466 0.12517 0.36769 0.0
Co59 Co 0.00251 0.42257 0.3661 0.0
Co60 Co 0.04117 0.38142 0.39791 0.0
O61 O 0.02453 0.39337 0.36742 0.0
C62 C 0.03942 0.4394 0.32755 0.0
O63 O 0.05756 0.43741 0.34406 0.0
C64 C 0.01092 0.33813 0.38197 0.0
O65 O 0.99241 0.35403 0.37886 0.0
O66 O 0.00973 0.38391 0.41806 0.0
O67 O 0.98704 0.41351 0.39872 0.0
H68 H 0.06376 0.3826 0.48935 0.0
H69 H 0.00439 0.38785 0.32282 0.0
O70 O 0.01718 0.43271 0.33312 0.0
H71 H 0.91653 0.38643 0.35156 0.0
H72 H 0.94511 0.48411 0.32329 0.0
H73 H 0.98606 0.46092 0.40286 0.0
H74 H 0.9477 0.41326 0.37263 0.0
H75 H 0.97248 0.44693 0.32566 0.0
O76 O 0.03235 0.346 0.38901 0.0
H77 H 0.04287 0.39782 0.45102 0.0
H78 H 0.07506 0.3384 0.40895 0.0
H79 H 0.95865 0.49812 0.40137 0.0
H80 H 0.97377 0.36089 0.30105 0.0
H81 H 0.93795 0.50993 0.36137 0.0
H82 H 0.9295 0.36001 0.31548 0.0
O83 O 0.02764 0.44345 0.38412 0.0
H84 H 0.0933 0.35667 0.32347 0.0
H85 H 0.09374 0.39867 0.40581 0.0
H86 H 0.13279 0.39654 0.38113 0.0
H87 H 0.13274 0.37536 0.33966 0.0
H88 H 0.05462 0.35941 0.34869 0.0
H89 H 0.09615 0.32239 0.44688 0.0
H90 H 0.09063 0.34461 0.48743 0.0
O91 O 0.05001 0.41647 0.40762 0.0
C92 C 0.99073 0.39834 0.41676 0.0
C93 C 0.06639 0.37281 0.47178 0.0
C94 C 0.08455 0.339 0.44795 0.0
N95 N 0.05796 0.36916 0.42774 0.0
C96 C 0.05468 0.38139 0.44999 0.0
C97 C 0.07253 0.34812 0.42655 0.0
C98 C 0.08144 0.35148 0.47069 0.0
C99 C 0.9851 0.38774 0.32904 0.0
N100 N 0.97782 0.40218 0.34889 0.0
C101 C 0.96787 0.37237 0.31671 0.0
C102 C 0.94305 0.37186 0.32484 0.0
C103 C 0.93576 0.38666 0.34509 0.0
C104 C 0.95351 0.40177 0.35699 0.0
C105 C 0.95398 0.47912 0.34084 0.0
C106 C 0.977 0.46585 0.38542 0.0
C107 C 0.96954 0.45811 0.34229 0.0
N108 N 0.9807 0.45163 0.36443 0.0
C109 C 0.96155 0.48697 0.38467 0.0
C110 C 0.94997 0.4936 0.36222 0.0
C111 C 0.04421 0.43863 0.40071 0.0
C112 C 0.09358 0.36589 0.34154 0.0
C113 C 0.09355 0.3895 0.38774 0.0
C114 C 0.11573 0.3883 0.37388 0.0
C115 C 0.11569 0.37641 0.35062 0.0
N116 N 0.07196 0.37906 0.37874 0.0
C117 C 0.07176 0.36742 0.35593 0.0
Co118 Co 0.98893 0.92907 0.14526 0.0
Co119 Co 0.94809 0.89062 0.11271 0.0
O120 O 0.965 0.90153 0.14339 0.0
C121 C 0.95021 0.94623 0.18158 0.0
O122 O 0.93279 0.94173 0.1648 0.0
C123 C 0.97683 0.84652 0.12917 0.0
O124 O 0.9955 0.86207 0.133 0.0
O125 O 0.97958 0.89254 0.09255 0.0
O126 O 0.00553 0.91795 0.11379 0.0
H127 H 0.92513 0.89426 0.02141 0.0
H128 H 0.98195 0.89544 0.18889 0.0
O129 O 0.97307 0.94113 0.17694 0.0
H130 H 0.07122 0.88776 0.16614 0.0
H131 H 0.04788 0.98777 0.18983 0.0
H132 H 0.01024 0.96497 0.10855 0.0
H133 H 0.04335 0.91625 0.1427 0.0
H134 H 0.01816 0.95249 0.18679 0.0
O135 O 0.95589 0.85479 0.12116 0.0
H136 H 0.94655 0.90817 0.05994 0.0
H137 H 0.91314 0.84869 0.10097 0.0
H138 H 0.04006 0.00023 0.1107 0.0
H139 H 0.0092 0.86689 0.21301 0.0
H140 H 0.05909 0.01184 0.15157 0.0
H141 H 0.05416 0.86284 0.2016 0.0
O142 O 0.96626 0.95129 0.12552 0.0
H143 H 0.89514 0.8664 0.18678 0.0
H144 H 0.89612 0.90967 0.10507 0.0
H145 H 0.85701 0.90846 0.12972 0.0
H146 H 0.85635 0.88666 0.17087 0.0
H147 H 0.9339 0.86824 0.1616 0.0
H148 H 0.89151 0.83399 0.06284 0.0
H149 H 0.89737 0.8569 0.02272 0.0
O150 O 0.94044 0.9261 0.1036 0.0
C151 C 0.00027 0.90424 0.09499 0.0
C152 C 0.92235 0.88417 0.0388 0.0
C153 C 0.90351 0.85032 0.06204 0.0
N154 N 0.93093 0.87938 0.08271 0.0
C155 C 0.93437 0.892 0.06069 0.0
C156 C 0.91585 0.8587 0.08356 0.0
C157 C 0.90681 0.86319 0.03954 0.0
C158 C 0.00155 0.89393 0.18396 0.0
N159 N 0.01106 0.90749 0.16441 0.0
C160 C 0.01686 0.87767 0.19762 0.0
C161 C 0.04208 0.87538 0.19119 0.0
C162 C 0.05166 0.88934 0.17128 0.0
C163 C 0.03577 0.90538 0.15801 0.0
C164 C 0.03975 0.98286 0.17191 0.0
C165 C 0.01857 0.96981 0.12637 0.0
C166 C 0.02286 0.96295 0.17008 0.0
N167 N 0.01261 0.95657 0.14748 0.0
C168 C 0.03538 0.98984 0.12749 0.0
C169 C 0.04603 0.99635 0.15043 0.0
C170 C 0.94861 0.94774 0.10973 0.0
C171 C 0.89518 0.87589 0.16884 0.0
C172 C 0.896 0.9002 0.12299 0.0
C173 C 0.87378 0.89954 0.13684 0.0
C174 C 0.87343 0.88729 0.15992 0.0
N175 N 0.91722 0.8889 0.13184 0.0
C176 C 0.91704 0.87691 0.15447 0.0
Co177 Co 0.99647 0.57648 0.14414 0.0
Co178 Co 0.03864 0.61716 0.11626 0.0
O179 O 0.01978 0.60466 0.14519 0.0
C180 C 0.03279 0.55813 0.18227 0.0
O181 O 0.0512 0.56371 0.1669 0.0
C182 C 0.0079 0.66036 0.13174 0.0
O183 O 0.98919 0.64455 0.13391 0.0
O184 O 0.00868 0.61554 0.09379 0.0
O185 O 0.98211 0.58857 0.11206 0.0
H186 H 0.06828 0.61732 0.02683 0.0
H187 H 0.99923 0.60792 0.18981 0.0
O188 O 0.01022 0.56326 0.17642 0.0
H189 H 0.91206 0.61564 0.16004 0.0
H190 H 0.93555 0.51491 0.18168 0.0
H191 H 0.97881 0.54174 0.1045 0.0
H192 H 0.9423 0.58887 0.13755 0.0
H193 H 0.96469 0.55079 0.18234 0.0
O194 O 0.02952 0.65248 0.12533 0.0
H195 H 0.04446 0.60155 0.0632 0.0
H196 H 0.0734 0.6602 0.10856 0.0
H197 H 0.94966 0.50591 0.10295 0.0
H198 H 0.96953 0.63475 0.21302 0.0
H199 H 0.92779 0.49228 0.14175 0.0
H200 H 0.92562 0.63879 0.19809 0.0
O201 O 0.02093 0.55562 0.12512 0.0
H202 H 0.08534 0.63946 0.19493 0.0
H203 H 0.09156 0.59969 0.11172 0.0
H204 H 0.12869 0.60075 0.13924 0.0
H205 H 0.12572 0.6208 0.18117 0.0
H206 H 0.04861 0.63778 0.16688 0.0
H207 H 0.09738 0.67674 0.07263 0.0
H208 H 0.09497 0.65519 0.03143 0.0
O209 O 0.04782 0.58225 0.10648 0.0
C210 C 0.9882 0.6032 0.09423 0.0
C211 C 0.06954 0.62683 0.04471 0.0
C212 C 0.08585 0.6602 0.0704 0.0
N213 N 0.05768 0.62984 0.08801 0.0
C214 C 0.05615 0.61795 0.06538 0.0
C215 C 0.07219 0.65079 0.09066 0.0
C216 C 0.08449 0.64809 0.04729 0.0
C217 C 0.98008 0.60941 0.18335 0.0
N218 N 0.97248 0.59676 0.16243 0.0
C219 C 0.96338 0.6247 0.1965 0.0
C220 C 0.93875 0.62699 0.18809 0.0
C221 C 0.93114 0.61402 0.16674 0.0
C222 C 0.94836 0.59893 0.15405 0.0
C223 C 0.94493 0.5207 0.16464 0.0
C224 C 0.96926 0.53601 0.12143 0.0
C225 C 0.96149 0.54097 0.16491 0.0
N226 N 0.97331 0.54846 0.14344 0.0
C227 C 0.95282 0.51567 0.12045 0.0
C228 C 0.94058 0.50801 0.14223 0.0
C229 C 0.03964 0.56021 0.11091 0.0
C230 C 0.08688 0.63072 0.17669 0.0
C231 C 0.0901 0.60836 0.12997 0.0
C232 C 0.1112 0.60896 0.14545 0.0
C233 C 0.10952 0.62022 0.16896 0.0
N234 N 0.06798 0.61875 0.13766 0.0
C235 C 0.06617 0.62979 0.1607 0.0
Co236 Co 0.36892 0.98299 0.0703 0.0
Co237 Co 0.40642 0.94864 0.11025 0.0
O238 O 0.37392 0.96199 0.09977 0.0
C239 C 0.3325 0.94253 0.0574 0.0
O240 O 0.35061 0.92588 0.05805 0.0
C241 C 0.38904 0.97772 0.15371 0.0
O242 O 0.38403 0.99569 0.13767 0.0
O243 O 0.42301 0.98192 0.10643 0.0
O244 O 0.40072 0.00136 0.07658 0.0
H245 H 0.4995 0.93534 0.10465 0.0
H246 H 0.32834 0.97874 0.10801 0.0
O247 O 0.33672 0.96534 0.06305 0.0
H248 H 0.3498 0.0686 0.10516 0.0
H249 H 0.31724 0.03452 0.01042 0.0
H250 H 0.40141 0.00104 0.02891 0.0
H251 H 0.37151 0.03839 0.07772 0.0
H252 H 0.32452 0.00878 0.04814 0.0
O253 O 0.39815 0.95703 0.14597 0.0
H254 H 0.45853 0.95198 0.09114 0.0
H255 H 0.42296 0.91686 0.15312 0.0
H256 H 0.39501 0.02689 0.99111 0.0
H257 H 0.306 0.00835 0.13564 0.0
H258 H 0.35267 0.04382 0.98166 0.0
H259 H 0.31677 0.05362 0.13438 0.0
O260 O 0.38751 0.95877 0.04894 0.0
H261 H 0.339 0.88948 0.139 0.0
H262 H 0.41898 0.89692 0.09322 0.0
H263 H 0.39865 0.85557 0.09692 0.0
H264 H 0.3584 0.85165 0.12001 0.0
H265 H 0.35988 0.93052 0.13467 0.0
H266 H 0.46359 0.9 0.16744 0.0
H267 H 0.50221 0.90915 0.14307 0.0
O268 O 0.41531 0.9403 0.07476 0.0
C269 C 0.41952 1e-05 0.09121 0.0
C270 C 0.4828 0.93114 0.11537 0.0
C271 C 0.46264 0.91133 0.15063 0.0
N272 N 0.43836 0.93517 0.12118 0.0
C273 C 0.45953 0.94044 0.10777 0.0
C274 C 0.4397 0.92096 0.14246 0.0
C275 C 0.4843 0.91647 0.13695 0.0
C276 C 0.33294 0.99845 0.10718 0.0
N277 N 0.35112 0.00684 0.09121 0.0
C278 C 0.32031 0.01511 0.12295 0.0
C279 C 0.32639 0.04051 0.12225 0.0
C280 C 0.34493 0.04892 0.10588 0.0
C281 C 0.3572 0.03171 0.09042 0.0
C282 C 0.33579 0.02732 0.01437 0.0
C283 C 0.38297 0.00849 0.02503 0.0
C284 C 0.34002 0.0127 0.03568 0.0
N285 N 0.36343 0.00363 0.04086 0.0
C286 C 0.37944 0.02305 0.00355 0.0
C287 C 0.35568 0.03252 0.99825 0.0
C288 C 0.40622 0.94441 0.05299 0.0
C289 C 0.35657 0.89094 0.12896 0.0
C290 C 0.40142 0.89538 0.10322 0.0
C291 C 0.39003 0.87191 0.1053 0.0
C292 C 0.36745 0.86972 0.11827 0.0
N293 N 0.39068 0.91608 0.11384 0.0
C294 C 0.36851 0.9141 0.12651 0.0
Co295 Co 0.63281 0.52291 0.07248 0.0
Co296 Co 0.59729 0.56017 0.11195 0.0
O297 O 0.62897 0.54498 0.10131 0.0
C298 C 0.66849 0.56328 0.05765 0.0
O299 O 0.65078 0.58007 0.06089 0.0
C300 C 0.61271 0.52852 0.15433 0.0
O301 O 0.61742 0.51128 0.13745 0.0
O302 O 0.57819 0.52841 0.10687 0.0
O303 O 0.60143 0.50473 0.081 0.0
H304 H 0.50559 0.58088 0.10578 0.0
H305 H 0.67466 0.5289 0.10843 0.0
O306 O 0.66455 0.54033 0.06291 0.0
H307 H 0.65427 0.43875 0.10955 0.0
H308 H 0.68182 0.46932 0.01215 0.0
H309 H 0.59844 0.50299 0.03362 0.0
H310 H 0.63133 0.46773 0.08176 0.0
H311 H 0.67626 0.49646 0.04915 0.0
O312 O 0.60447 0.54991 0.14751 0.0
H313 H 0.54534 0.56161 0.09213 0.0
H314 H 0.5826 0.59149 0.15578 0.0
H315 H 0.60312 0.47572 0.99658 0.0
H316 H 0.69825 0.50055 0.13637 0.0
H317 H 0.64506 0.4587 0.98563 0.0
H318 H 0.688 0.45515 0.13712 0.0
O319 O 0.61333 0.54637 0.05097 0.0
H320 H 0.66828 0.61336 0.14356 0.0
H321 H 0.58885 0.61311 0.0963 0.0
H322 H 0.61201 0.65277 0.10162 0.0
H323 H 0.652 0.65306 0.12547 0.0
H324 H 0.64461 0.57409 0.13761 0.0
H325 H 0.5432 0.61093 0.17026 0.0
H326 H 0.50436 0.60576 0.14513 0.0
O327 O 0.58954 0.57009 0.07662 0.0
C328 C 0.58179 0.50861 0.09398 0.0
C329 C 0.52241 0.58336 0.11685 0.0
C330 C 0.54351 0.60019 0.15306 0.0
N331 N 0.5663 0.57562 0.12301 0.0
C332 C 0.54499 0.57256 0.10916 0.0
C333 C 0.56575 0.5891 0.14479 0.0
C334 C 0.52172 0.59728 0.13894 0.0
C335 C 0.67026 0.50912 0.1085 0.0
N336 N 0.65166 0.49997 0.09348 0.0
C337 C 0.68361 0.49318 0.12442 0.0
C338 C 0.67783 0.46771 0.12485 0.0
C339 C 0.65889 0.4585 0.10941 0.0
C340 C 0.64591 0.47501 0.09376 0.0
C341 C 0.66344 0.47657 0.01676 0.0
C342 C 0.61671 0.49551 0.02908 0.0
C343 C 0.66018 0.49199 0.03766 0.0
N344 N 0.637 0.50114 0.04366 0.0
C345 C 0.61927 0.48014 0.00804 0.0
C346 C 0.64281 0.47062 0.00189 0.0
C347 C 0.59693 0.56339 0.05484 0.0
C348 C 0.65085 0.61348 0.1332 0.0
C349 C 0.60629 0.61308 0.10662 0.0
C350 C 0.61929 0.6356 0.10962 0.0
C351 C 0.64172 0.63575 0.12301 0.0
N352 N 0.61532 0.59135 0.11676 0.0
C353 C 0.63733 0.59133 0.12984 0.0
Co354 Co 0.36617 0.99873 0.42308 0.0
Co355 Co 0.3963 0.04026 0.38333 0.0
O356 O 0.36654 0.02213 0.39494 0.0
C357 C 0.32838 0.03553 0.44145 0.0
O358 O 0.34448 0.05374 0.43761 0.0
C359 C 0.38158 0.00983 0.33968 0.0
O360 O 0.37855 0.9912 0.35546 0.0
O361 O 0.41803 0.00977 0.38566 0.0
O362 O 0.39822 0.98367 0.41197 0.0
H363 H 0.48634 0.06774 0.38599 0.0
H364 H 0.32161 0.00264 0.39021 0.0
O365 O 0.33379 0.01311 0.4353 0.0
H366 H 0.34958 0.91481 0.38322 0.0
H367 H 0.32539 0.93852 0.48331 0.0
H368 H 0.40432 0.98001 0.45896 0.0
H369 H 0.3719 0.94445 0.41078 0.0
H370 H 0.32649 0.96779 0.44753 0.0
O371 O 0.38814 0.03134 0.34773 0.0
H372 H 0.44894 0.04483 0.40063 0.0
H373 H 0.40619 0.07476 0.3405 0.0
H374 H 0.40412 0.95071 0.49472 0.0
H375 H 0.29859 0.97356 0.36258 0.0
H376 H 0.36444 0.92973 0.50711 0.0
H377 H 0.31262 0.92932 0.3589 0.0
O378 O 0.38517 0.02266 0.44458 0.0
H379 H 0.31953 0.08885 0.35849 0.0
H380 H 0.40156 0.09306 0.40085 0.0
H381 H 0.37502 0.13087 0.39886 0.0
H382 H 0.3337 0.12891 0.3775 0.0
H383 H 0.3466 0.05143 0.36112 0.0
H384 H 0.44318 0.09784 0.32508 0.0
H385 H 0.4836 0.09447 0.34795 0.0
O386 O 0.40517 0.04918 0.41853 0.0
C387 C 0.41668 0.98931 0.39797 0.0
C388 C 0.46882 0.06942 0.37591 0.0
C389 C 0.44461 0.08628 0.3417 0.0
N390 N 0.42537 0.0586 0.37153 0.0
C391 C 0.44756 0.05655 0.38415 0.0
C392 C 0.42374 0.07313 0.35048 0.0
C393 C 0.46727 0.08439 0.35455 0.0
C394 C 0.32766 0.98335 0.38888 0.0
N395 N 0.34798 0.97522 0.40217 0.0
C396 C 0.31463 0.967 0.37313 0.0
C397 C 0.32253 0.94219 0.37105 0.0
C398 C 0.34327 0.93404 0.38468 0.0
C399 C 0.35587 0.95092 0.40021 0.0
C400 C 0.34281 0.94751 0.47807 0.0
C401 C 0.38701 0.97085 0.46414 0.0
C402 C 0.34353 0.96415 0.45786 0.0
N403 N 0.36549 0.97547 0.45105 0.0
C404 C 0.387 0.95433 0.48445 0.0
C405 C 0.36472 0.94258 0.49141 0.0
C406 C 0.39995 0.04103 0.44042 0.0
C407 C 0.33752 0.08995 0.3678 0.0
C408 C 0.38356 0.09204 0.39163 0.0
C409 C 0.36864 0.11352 0.3905 0.0
C410 C 0.34547 0.11242 0.3785 0.0
N411 N 0.37567 0.0701 0.38104 0.0
C412 C 0.35296 0.06885 0.36928 0.0
Co413 Co 0.63514 0.48799 0.42184 0.0
Co414 Co 0.6039 0.45018 0.37945 0.0
O415 O 0.63409 0.46708 0.39185 0.0
C416 C 0.67425 0.4509 0.43671 0.0
O417 O 0.65828 0.43258 0.43289 0.0
C418 C 0.61845 0.4833 0.33782 0.0
O419 O 0.62141 0.5008 0.35485 0.0
O420 O 0.58285 0.48081 0.38377 0.0
O421 O 0.60229 0.50329 0.41344 0.0
H422 H 0.51321 0.42476 0.38051 0.0
H423 H 0.67839 0.48813 0.38706 0.0
O424 O 0.6683 0.47343 0.43148 0.0
H425 H 0.64823 0.57549 0.38891 0.0
H426 H 0.67696 0.54373 0.4855 0.0
H427 H 0.59819 0.50212 0.46091 0.0
H428 H 0.62772 0.54301 0.41463 0.0
H429 H 0.67503 0.51788 0.44723 0.0
O430 O 0.61205 0.46123 0.3444 0.0
H431 H 0.55107 0.44604 0.39634 0.0
H432 H 0.59334 0.4183 0.33484 0.0
H433 H 0.59924 0.52799 0.49921 0.0
H434 H 0.69961 0.52008 0.36119 0.0
H435 H 0.63884 0.549 0.51173 0.0
H436 H 0.68446 0.5641 0.36196 0.0
O437 O 0.61769 0.46174 0.44171 0.0
H438 H 0.67943 0.40169 0.3509 0.0
H439 H 0.59784 0.39658 0.39409 0.0
H440 H 0.62362 0.35846 0.38955 0.0
H441 H 0.6647 0.36086 0.36777 0.0
H442 H 0.65314 0.4394 0.35604 0.0
H443 H 0.55588 0.3969 0.3182 0.0
H444 H 0.51548 0.39997 0.34116 0.0
O445 O 0.59491 0.43923 0.4142 0.0
C446 C 0.58405 0.49952 0.39856 0.0
C447 C 0.53073 0.42319 0.3704 0.0
C448 C 0.55467 0.40758 0.33541 0.0
N449 N 0.57444 0.43316 0.36669 0.0
C450 C 0.55225 0.43511 0.37933 0.0
C451 C 0.5758 0.41976 0.3449 0.0
C452 C 0.53201 0.40931 0.3483 0.0
C453 C 0.67187 0.5073 0.38766 0.0
N454 N 0.65193 0.51372 0.40241 0.0
C455 C 0.68388 0.52529 0.37291 0.0
C456 C 0.67535 0.54998 0.37332 0.0
C457 C 0.65501 0.55638 0.38842 0.0
C458 C 0.64344 0.53789 0.40291 0.0
C459 C 0.65958 0.53471 0.48021 0.0
C460 C 0.61546 0.51133 0.46615 0.0
C461 C 0.65838 0.52001 0.45859 0.0
N462 N 0.63646 0.50866 0.45174 0.0
C463 C 0.61595 0.5259 0.48789 0.0
C464 C 0.63819 0.53766 0.49492 0.0
C465 C 0.60184 0.44461 0.43647 0.0
C466 C 0.66154 0.40039 0.36038 0.0
C467 C 0.61575 0.39779 0.38467 0.0
C468 C 0.63023 0.37613 0.38211 0.0
C469 C 0.65327 0.37749 0.36987 0.0
N470 N 0.62394 0.42016 0.37523 0.0
C471 C 0.64654 0.42166 0.36327 0.0
Co472 Co 0.07077 0.3695 0.98491 0.0
Co473 Co 0.1089 0.40515 0.94643 0.0
O474 O 0.09876 0.37341 0.96176 0.0
C475 C 0.05474 0.33375 0.94503 0.0
O476 O 0.0569 0.35155 0.92817 0.0
C477 C 0.1529 0.38899 0.9754 0.0
O478 O 0.13712 0.3843 0.99368 0.0
O479 O 0.10566 0.42383 0.97871 0.0
O480 O 0.07997 0.40083 0.00282 0.0
H481 H 0.10244 0.49717 0.92727 0.0
H482 H 0.1066 0.32776 0.9774 0.0
O483 O 0.06067 0.3378 0.96779 0.0
H484 H 0.11091 0.34772 0.06756 0.0
H485 H 0.01263 0.3203 0.04072 0.0
H486 H 0.03272 0.4038 0.00651 0.0
H487 H 0.08203 0.37072 0.03972 0.0
H488 H 0.04848 0.32595 0.01208 0.0
O489 O 0.14484 0.39751 0.95457 0.0
H490 H 0.08946 0.45727 0.9467 0.0
H491 H 0.15115 0.4199 0.91299 0.0
H492 H 0.99684 0.39904 0.03529 0.0
H493 H 0.13559 0.3041 0.00459 0.0
H494 H 0.98659 0.35704 0.05259 0.0
H495 H 0.13795 0.31412 0.05 0.0
O496 O 0.04829 0.38908 0.96236 0.0
H497 H 0.13677 0.3345 0.89071 0.0
H498 H 0.09063 0.41452 0.89448 0.0
H499 H 0.09355 0.39181 0.85431 0.0
H500 H 0.11681 0.35153 0.85225 0.0
H501 H 0.13322 0.35773 0.93054 0.0
H502 H 0.16493 0.45944 0.89335 0.0
H503 H 0.14044 0.49842 0.90037 0.0
O504 O 0.07327 0.41336 0.93848 0.0
C505 C 0.09326 0.42023 0.99883 0.0
C506 C 0.11322 0.4803 0.924 0.0
C507 C 0.14831 0.45913 0.90499 0.0
N508 N 0.11942 0.43626 0.93082 0.0
C509 C 0.10592 0.45764 0.93489 0.0
C510 C 0.14045 0.43681 0.9162 0.0
C511 C 0.13456 0.48099 0.90893 0.0
C512 C 0.10738 0.33207 0.99719 0.0
N513 N 0.09265 0.3506 0.00697 0.0
C514 C 0.12389 0.31867 0.01247 0.0
C515 C 0.12523 0.32433 0.03794 0.0
C516 C 0.11008 0.3432 0.0478 0.0
C517 C 0.09382 0.35622 0.03194 0.0
C518 C 0.01694 0.33871 0.03335 0.0
C519 C 0.02848 0.3855 0.0141 0.0
C520 C 0.03719 0.34201 0.01708 0.0
N521 N 0.04281 0.36523 0.00778 0.0
C522 C 0.0081 0.3829 0.03032 0.0
C523 C 0.00234 0.35933 0.04 0.0
C524 C 0.05169 0.40592 0.94566 0.0
C525 C 0.12665 0.35207 0.89136 0.0
C526 C 0.10072 0.39696 0.89374 0.0
C527 C 0.10235 0.38422 0.87094 0.0
C528 C 0.11542 0.36162 0.86979 0.0
N529 N 0.11187 0.38752 0.91479 0.0
C530 C 0.12465 0.36534 0.91384 0.0
Co531 Co 0.07094 0.6322 0.5299 0.0
Co532 Co 0.11302 0.59567 0.56287 0.0
O533 O 0.10143 0.62786 0.54954 0.0
C534 C 0.05815 0.66887 0.57027 0.0
O535 O 0.05953 0.65103 0.58717 0.0
C536 C 0.15426 0.61281 0.53064 0.0
O537 O 0.13692 0.61746 0.51383 0.0
O538 O 0.10739 0.57831 0.53027 0.0
O539 O 0.07688 0.6003 0.51155 0.0
H540 H 0.10928 0.50285 0.57844 0.0
H541 H 0.10809 0.6734 0.53192 0.0
O542 O 0.06386 0.66452 0.54749 0.0
H543 H 0.10138 0.65092 0.4425 0.0
H544 H 0.00768 0.68223 0.48083 0.0
H545 H 0.0293 0.59882 0.51432 0.0
H546 H 0.07574 0.62912 0.47422 0.0
H547 H 0.04679 0.67589 0.50464 0.0
O548 O 0.14809 0.60404 0.55201 0.0
H549 H 0.09433 0.54332 0.56179 0.0
H550 H 0.15791 0.58022 0.59227 0.0
H551 H 0.99012 0.60428 0.49041 0.0
H552 H 0.13393 0.69583 0.50079 0.0
H553 H 0.97909 0.64624 0.47348 0.0
H554 H 0.13072 0.68454 0.45573 0.0
O555 O 0.05116 0.61358 0.55533 0.0
H556 H 0.14492 0.66445 0.61874 0.0
H557 H 0.09926 0.58414 0.6158 0.0
H558 H 0.10541 0.60532 0.65643 0.0
H559 H 0.12845 0.64573 0.65808 0.0
H560 H 0.13815 0.64273 0.57847 0.0
H561 H 0.17368 0.5401 0.60908 0.0
H562 H 0.14923 0.50107 0.60228 0.0
O563 O 0.07813 0.58665 0.57358 0.0
C564 C 0.09155 0.58152 0.51268 0.0
C565 C 0.12004 0.51974 0.58163 0.0
C566 C 0.15621 0.54065 0.59879 0.0
N567 N 0.12509 0.56413 0.57631 0.0
C568 C 0.11162 0.54273 0.57233 0.0
C569 C 0.14721 0.56329 0.5892 0.0
C570 C 0.14248 0.51876 0.59497 0.0
C571 C 0.10641 0.66857 0.51231 0.0
N572 N 0.09036 0.65006 0.50488 0.0
C573 C 0.12116 0.68126 0.49478 0.0
C574 C 0.11938 0.67489 0.46951 0.0
C575 C 0.10293 0.65601 0.46208 0.0
C576 C 0.0885 0.6437 0.48013 0.0
C577 C 0.01232 0.66384 0.48804 0.0
C578 C 0.02473 0.61709 0.50685 0.0
C579 C 0.03442 0.66014 0.50157 0.0
N580 N 0.04045 0.63694 0.51065 0.0
C581 C 0.00248 0.62009 0.49339 0.0
C582 C 0.99629 0.64364 0.48392 0.0
C583 C 0.05611 0.59545 0.57015 0.0
C584 C 0.1349 0.64681 0.61827 0.0
C585 C 0.10921 0.60178 0.61635 0.0
C586 C 0.11269 0.61365 0.63942 0.0
C587 C 0.12563 0.63632 0.64033 0.0
N588 N 0.11845 0.61214 0.59481 0.0
C589 C 0.13108 0.6344 0.59554 0.0
Co590 Co 0.92792 0.85154 0.52516 0.0
Co591 Co 0.88586 0.88427 0.56202 0.0
O592 O 0.8982 0.85346 0.54633 0.0
C593 C 0.94181 0.81413 0.56413 0.0
O594 O 0.93702 0.83083 0.58156 0.0
C595 C 0.84424 0.86732 0.53019 0.0
O596 O 0.86127 0.86388 0.51277 0.0
O597 O 0.88972 0.90389 0.53043 0.0
O598 O 0.91941 0.8838 0.50851 0.0
H599 H 0.88667 0.97601 0.58335 0.0
H600 H 0.89321 0.80829 0.52719 0.0
O601 O 0.93763 0.81909 0.54115 0.0
H602 H 0.89421 0.83474 0.4386 0.0
H603 H 0.99113 0.80709 0.47092 0.0
H604 H 0.96689 0.88775 0.50902 0.0
H605 H 0.92018 0.85663 0.46995 0.0
H606 H 0.95304 0.81029 0.49694 0.0
O607 O 0.85073 0.8753 0.55177 0.0
H608 H 0.90251 0.93729 0.56363 0.0
H609 H 0.8415 0.89605 0.59385 0.0
H610 H 0.00501 0.88543 0.48294 0.0
H611 H 0.86709 0.78573 0.49641 0.0
H612 H 0.01735 0.84487 0.4637 0.0
H613 H 0.86742 0.79901 0.45177 0.0
O614 O 0.94799 0.87001 0.55046 0.0
H615 H 0.85859 0.81081 0.6143 0.0
H616 H 0.90106 0.8929 0.6151 0.0
H617 H 0.89725 0.86885 0.65442 0.0
H618 H 0.87583 0.82752 0.65418 0.0
H619 H 0.863 0.8354 0.57536 0.0
H620 H 0.82486 0.93435 0.61373 0.0
H621 H 0.84757 0.97468 0.60861 0.0
O622 O 0.92075 0.89397 0.57212 0.0
C623 C 0.90443 0.9021 0.51169 0.0
C624 C 0.87667 0.95853 0.58581 0.0
C625 C 0.84196 0.93516 0.60283 0.0
N626 N 0.8731 0.9144 0.57784 0.0
C627 C 0.8856 0.93654 0.57478 0.0
C628 C 0.85145 0.91354 0.59151 0.0
C629 C 0.85471 0.95778 0.59996 0.0
C630 C 0.89363 0.81399 0.50775 0.0
N631 N 0.90827 0.83366 0.50036 0.0
C632 C 0.87873 0.80123 0.49043 0.0
C633 C 0.8789 0.80872 0.46539 0.0
C634 C 0.89391 0.82877 0.45799 0.0
C635 C 0.90854 0.84113 0.47584 0.0
C636 C 0.98591 0.82488 0.47915 0.0
C637 C 0.97204 0.87007 0.50056 0.0
C638 C 0.96439 0.8268 0.49394 0.0
N639 N 0.95763 0.84924 0.5043 0.0
C640 C 0.99369 0.86886 0.48588 0.0
C641 C 0.00062 0.84609 0.47511 0.0
C642 C 0.94296 0.88668 0.56687 0.0
C643 C 0.8679 0.82883 0.61465 0.0
C644 C 0.89179 0.87489 0.61483 0.0
C645 C 0.88964 0.86138 0.63717 0.0
C646 C 0.87761 0.8382 0.63702 0.0
N647 N 0.88214 0.8656 0.59299 0.0
C648 C 0.87038 0.84286 0.59269 0.0
Co649 Co 0.42107 0.63638 0.48657 0.0
Co650 Co 0.37815 0.60522 0.44927 0.0
O651 O 0.39086 0.63541 0.46597 0.0
C652 C 0.43612 0.67535 0.44936 0.0
O653 O 0.43236 0.65933 0.43107 0.0
C654 C 0.33692 0.62006 0.48275 0.0
O655 O 0.35413 0.62301 0.50007 0.0
O656 O 0.38271 0.58422 0.4799 0.0
O657 O 0.41271 0.60356 0.50201 0.0
H658 H 0.37855 0.51446 0.42408 0.0
H659 H 0.38647 0.67976 0.48703 0.0
O660 O 0.4307 0.66951 0.47188 0.0
H661 H 0.38913 0.64969 0.57442 0.0
H662 H 0.48549 0.67801 0.54157 0.0
H663 H 0.46014 0.59929 0.50032 0.0
H664 H 0.41441 0.62904 0.54168 0.0
H665 H 0.44692 0.67619 0.51616 0.0
O666 O 0.34326 0.61354 0.46064 0.0
H667 H 0.39476 0.55231 0.44509 0.0
H668 H 0.33318 0.59478 0.41785 0.0
H669 H 0.49872 0.60022 0.52575 0.0
H670 H 0.36103 0.70112 0.51924 0.0
H671 H 0.51163 0.6398 0.54658 0.0
H672 H 0.36221 0.68602 0.56328 0.0
O673 O 0.44056 0.61882 0.46014 0.0
H674 H 0.34941 0.68074 0.40086 0.0
H675 H 0.39221 0.59897 0.39553 0.0
H676 H 0.38737 0.62466 0.35737 0.0
H677 H 0.36577 0.66584 0.35989 0.0
H678 H 0.35485 0.65453 0.4386 0.0
H679 H 0.31617 0.55734 0.39672 0.0
H680 H 0.33897 0.51684 0.39968 0.0
O681 O 0.41274 0.59605 0.43798 0.0
C682 C 0.39773 0.58537 0.49844 0.0
C683 C 0.3685 0.53202 0.42255 0.0
C684 C 0.33347 0.55608 0.40723 0.0
N685 N 0.36509 0.57578 0.43244 0.0
C686 C 0.37765 0.55353 0.43433 0.0
C687 C 0.34318 0.5772 0.41925 0.0
C688 C 0.34628 0.53336 0.40889 0.0
C689 C 0.38725 0.67326 0.50621 0.0
N690 N 0.40197 0.65327 0.51249 0.0
C691 C 0.37274 0.68535 0.52434 0.0
C692 C 0.37338 0.67684 0.54904 0.0
C693 C 0.38847 0.65645 0.5553 0.0
C694 C 0.4027 0.6448 0.53667 0.0
C695 C 0.48004 0.66064 0.53263 0.0
C696 C 0.46554 0.61655 0.50946 0.0
C697 C 0.45824 0.65951 0.51817 0.0
N698 N 0.45118 0.63761 0.50692 0.0
C699 C 0.48745 0.61698 0.52378 0.0
C700 C 0.49469 0.6392 0.53544 0.0
C701 C 0.43508 0.60294 0.4431 0.0
C702 C 0.3588 0.66281 0.39951 0.0
C703 C 0.38288 0.61692 0.39679 0.0
C704 C 0.38014 0.63135 0.37511 0.0
C705 C 0.36801 0.65445 0.37654 0.0
N706 N 0.37371 0.62521 0.41923 0.0
C707 C 0.36186 0.64786 0.4208 0.0
Co708 Co 0.48486 0.57864 0.85093 0.0
Co709 Co 0.44784 0.62272 0.88077 0.0
O710 O 0.46465 0.60912 0.85104 0.0
C711 C 0.44777 0.56354 0.81201 0.0
O712 O 0.42947 0.5684 0.82776 0.0
C713 C 0.48173 0.66328 0.86501 0.0
O714 O 0.49896 0.64588 0.86265 0.0
O715 O 0.47829 0.61842 0.90204 0.0
O716 O 0.50005 0.58747 0.88378 0.0
H717 H 0.42211 0.62495 0.97139 0.0
H718 H 0.48626 0.61228 0.8068 0.0
O719 O 0.47038 0.56851 0.81785 0.0
H720 H 0.57326 0.60909 0.83788 0.0
H721 H 0.53933 0.5126 0.8111 0.0
H722 H 0.49775 0.54016 0.88894 0.0
H723 H 0.53995 0.58473 0.85873 0.0
H724 H 0.51444 0.55155 0.81191 0.0
O725 O 0.45955 0.65728 0.87161 0.0
H726 H 0.44324 0.60757 0.9341 0.0
H727 H 0.4167 0.66818 0.88983 0.0
H728 H 0.52265 0.50121 0.88902 0.0
H729 H 0.51905 0.63678 0.78523 0.0
H730 H 0.54365 0.48719 0.84989 0.0
H731 H 0.56289 0.63534 0.80083 0.0
O732 O 0.45797 0.55987 0.86858 0.0
H733 H 0.40021 0.64983 0.80418 0.0
H734 H 0.39395 0.60928 0.88704 0.0
H735 H 0.35603 0.61373 0.86096 0.0
H736 H 0.35902 0.63419 0.81923 0.0
H737 H 0.4377 0.64481 0.8308 0.0
H738 H 0.39546 0.68636 0.92668 0.0
H739 H 0.39801 0.66463 0.9678 0.0
O740 O 0.4362 0.58846 0.89081 0.0
C741 C 0.49656 0.60303 0.90152 0.0
C742 C 0.42076 0.63453 0.95355 0.0
C743 C 0.40583 0.66901 0.92847 0.0
N744 N 0.43094 0.63668 0.90977 0.0
C745 C 0.4326 0.62472 0.93235 0.0
C746 C 0.41792 0.65865 0.90768 0.0
C747 C 0.40727 0.65681 0.95153 0.0
C748 C 0.50535 0.61138 0.81353 0.0
N749 N 0.51121 0.59702 0.83392 0.0
C750 C 0.52381 0.62537 0.80132 0.0
C751 C 0.5484 0.62458 0.8101 0.0
C752 C 0.55423 0.60987 0.8309 0.0
C753 C 0.53528 0.59616 0.84266 0.0
C754 C 0.53032 0.51855 0.82828 0.0
C755 C 0.50697 0.53428 0.87188 0.0
C756 C 0.51616 0.54056 0.82885 0.0
N757 N 0.50482 0.54824 0.85051 0.0
C758 C 0.52098 0.51216 0.87202 0.0
C759 C 0.53274 0.5043 0.85005 0.0
C760 C 0.44099 0.56593 0.88432 0.0
C761 C 0.39866 0.64094 0.82236 0.0
C762 C 0.39541 0.61812 0.86886 0.0
C763 C 0.37387 0.62064 0.85421 0.0
C764 C 0.37556 0.63213 0.8308 0.0
N765 N 0.41798 0.62689 0.86048 0.0
C766 C 0.4198 0.63812 0.83753 0.0
Co767 Co 0.52543 0.92945 0.85226 0.0
Co768 Co 0.56232 0.88723 0.88473 0.0
O769 O 0.54643 0.89961 0.85404 0.0
C770 C 0.56401 0.94303 0.81427 0.0
O771 O 0.58165 0.93855 0.83085 0.0
C772 C 0.53011 0.84577 0.86817 0.0
O773 O 0.51275 0.86289 0.86492 0.0
O774 O 0.53092 0.89123 0.90459 0.0
O775 O 0.50908 0.92116 0.88474 0.0
H776 H 0.58436 0.88796 0.97631 0.0
H777 H 0.52674 0.89455 0.80911 0.0
O778 O 0.5411 0.9389 0.81958 0.0
H779 H 0.43848 0.89628 0.83654 0.0
H780 H 0.47115 0.99287 0.80817 0.0
H781 H 0.50992 0.96864 0.88852 0.0
H782 H 0.47024 0.92211 0.85798 0.0
H783 H 0.49695 0.95463 0.81122 0.0
O784 O 0.55183 0.85216 0.87587 0.0
H785 H 0.5644 0.90387 0.93774 0.0
H786 H 0.59406 0.84275 0.89626 0.0
H787 H 0.48407 0.00691 0.88636 0.0
H788 H 0.49554 0.86857 0.78699 0.0
H789 H 0.46448 0.01925 0.84595 0.0
H790 H 0.45106 0.86927 0.80077 0.0
O791 O 0.55107 0.94941 0.8704 0.0
H792 H 0.61387 0.85967 0.81086 0.0
H793 H 0.61552 0.90221 0.89291 0.0
H794 H 0.65463 0.8982 0.86855 0.0
H795 H 0.65396 0.87675 0.82723 0.0
H796 H 0.57516 0.86428 0.83576 0.0
H797 H 0.61417 0.82603 0.93442 0.0
H798 H 0.60945 0.84876 0.97479 0.0
O799 O 0.57263 0.92207 0.89433 0.0
C800 C 0.51228 0.9061 0.90298 0.0
C801 C 0.58665 0.87795 0.95881 0.0
C802 C 0.60335 0.84318 0.93531 0.0
N803 N 0.57832 0.87442 0.91474 0.0
C804 C 0.57548 0.88693 0.9369 0.0
C805 C 0.5919 0.85271 0.91378 0.0
C806 C 0.6007 0.85594 0.95795 0.0
C807 C 0.50737 0.89514 0.81503 0.0
N808 N 0.5003 0.9099 0.83473 0.0
C809 C 0.48981 0.88031 0.80252 0.0
C810 C 0.46487 0.88068 0.81028 0.0
C811 C 0.45779 0.89582 0.83036 0.0
C812 C 0.47588 0.91037 0.84246 0.0
C813 C 0.47953 0.98765 0.8259 0.0
C814 C 0.50132 0.97379 0.87091 0.0
C815 C 0.49419 0.96604 0.82773 0.0
N816 N 0.50475 0.95928 0.85009 0.0
C817 C 0.48676 0.99552 0.86979 0.0
C818 C 0.4758 0.00245 0.8471 0.0
C819 C 0.5675 0.94431 0.88702 0.0
C820 C 0.61442 0.869 0.82886 0.0
C821 C 0.61507 0.89293 0.87491 0.0
C822 C 0.63728 0.89066 0.86122 0.0
C823 C 0.6369 0.87861 0.83805 0.0
N824 N 0.59312 0.88337 0.8658 0.0
C825 C 0.59258 0.87159 0.84308 0.0
Co826 Co 0.48527 0.42169 0.63603 0.0
Co827 Co 0.44848 0.37912 0.6038 0.0
O828 O 0.46459 0.39158 0.63441 0.0
C829 C 0.44709 0.43705 0.67388 0.0
O830 O 0.42926 0.43335 0.65733 0.0
C831 C 0.48189 0.3379 0.61881 0.0
O832 O 0.49904 0.35518 0.62231 0.0
O833 O 0.47944 0.38399 0.58338 0.0
O834 O 0.50158 0.41338 0.60362 0.0
H835 H 0.42488 0.38037 0.51261 0.0
H836 H 0.48437 0.38695 0.67931 0.0
O837 O 0.46971 0.43129 0.66879 0.0
H838 H 0.57257 0.38934 0.6517 0.0
H839 H 0.53919 0.48579 0.67953 0.0
H840 H 0.50028 0.46083 0.59949 0.0
H841 H 0.54052 0.41481 0.63022 0.0
H842 H 0.51374 0.44731 0.67681 0.0
O843 O 0.45987 0.34419 0.61196 0.0
H844 H 0.44515 0.39627 0.55099 0.0
H845 H 0.41745 0.33414 0.59234 0.0
H846 H 0.52578 0.49933 0.60132 0.0
H847 H 0.51586 0.36131 0.70148 0.0
H848 H 0.54543 0.51204 0.64157 0.0
H849 H 0.5603 0.36235 0.68762 0.0
O850 O 0.45944 0.44138 0.61778 0.0
H851 H 0.39886 0.34933 0.67813 0.0
H852 H 0.39482 0.39307 0.59676 0.0
H853 H 0.35624 0.38778 0.6217 0.0
H854 H 0.3581 0.36571 0.66267 0.0
H855 H 0.43703 0.35523 0.65266 0.0
H856 H 0.39706 0.31742 0.55435 0.0
H857 H 0.40062 0.34066 0.51415 0.0
O858 O 0.43725 0.41377 0.59479 0.0
C859 C 0.49815 0.39873 0.58512 0.0
C860 C 0.42309 0.37013 0.53004 0.0
C861 C 0.40751 0.33478 0.55346 0.0
N862 N 0.43223 0.36631 0.57393 0.0
C863 C 0.43444 0.3791 0.55185 0.0
C864 C 0.41912 0.34432 0.57489 0.0
C865 C 0.40951 0.34784 0.53091 0.0
C866 C 0.50372 0.38767 0.67335 0.0
N867 N 0.51062 0.40243 0.65359 0.0
C868 C 0.52145 0.37304 0.6859 0.0
C869 C 0.54637 0.37361 0.67809 0.0
C870 C 0.55327 0.38873 0.65792 0.0
C871 C 0.53503 0.40308 0.6458 0.0
C872 C 0.53077 0.48042 0.66187 0.0
C873 C 0.50891 0.46614 0.61703 0.0
C874 C 0.51631 0.45867 0.66022 0.0
N875 N 0.50571 0.45171 0.63796 0.0
C876 C 0.52327 0.488 0.61797 0.0
C877 C 0.53427 0.49514 0.64056 0.0
C878 C 0.44252 0.43607 0.60172 0.0
C879 C 0.39779 0.35893 0.66028 0.0
C880 C 0.3958 0.38354 0.61462 0.0
C881 C 0.37388 0.38055 0.62863 0.0
C882 C 0.37494 0.36815 0.65161 0.0
N883 N 0.41812 0.37436 0.62321 0.0
C884 C 0.41933 0.36225 0.64575 0.0
Co885 Co 0.52688 0.07338 0.63231 0.0
Co886 Co 0.56287 0.11366 0.59639 0.0
O887 O 0.54821 0.10273 0.62822 0.0
C888 C 0.56728 0.05866 0.66823 0.0
O889 O 0.5841 0.06058 0.65037 0.0
C890 C 0.53045 0.15534 0.61203 0.0
O891 O 0.51357 0.13809 0.61673 0.0
O892 O 0.53104 0.10795 0.5776 0.0
O893 O 0.50842 0.08119 0.60089 0.0
H894 H 0.58276 0.10801 0.50446 0.0
H895 H 0.53197 0.10988 0.6738 0.0
O896 O 0.54451 0.06457 0.66417 0.0
H897 H 0.44176 0.1082 0.65374 0.0
H898 H 0.47506 0.01192 0.68183 0.0
H899 H 0.50797 0.03378 0.59823 0.0
H900 H 0.47145 0.08104 0.63096 0.0
H901 H 0.50113 0.04963 0.67597 0.0
O902 O 0.55195 0.14899 0.6037 0.0
H903 H 0.56415 0.09394 0.54439 0.0
H904 H 0.59317 0.15811 0.58143 0.0
H905 H 0.48176 0.99602 0.60321 0.0
H906 H 0.50292 0.13721 0.69723 0.0
H907 H 0.46513 0.98487 0.64526 0.0
H908 H 0.45747 0.13656 0.68715 0.0
O909 O 0.55087 0.05241 0.61291 0.0
H910 H 0.61611 0.14638 0.66685 0.0
H911 H 0.61604 0.09911 0.58742 0.0
H912 H 0.65581 0.10527 0.61017 0.0
H913 H 0.65601 0.12912 0.65016 0.0
H914 H 0.57673 0.13959 0.64358 0.0
H915 H 0.61192 0.17301 0.54185 0.0
H916 H 0.60684 0.14783 0.50302 0.0
O917 O 0.57345 0.07854 0.5885 0.0
C918 C 0.51169 0.09442 0.5813 0.0
C919 C 0.58519 0.1191 0.52127 0.0
C920 C 0.60152 0.1556 0.54225 0.0
N921 N 0.57778 0.12506 0.56525 0.0
C922 C 0.57477 0.11118 0.54395 0.0
C923 C 0.59082 0.1471 0.56459 0.0
C924 C 0.59867 0.14146 0.52047 0.0
C925 C 0.51218 0.10934 0.66947 0.0
N926 N 0.5034 0.09389 0.65104 0.0
C927 C 0.49584 0.12492 0.68273 0.0
C928 C 0.47035 0.12457 0.67705 0.0
C929 C 0.46152 0.10868 0.65829 0.0
C930 C 0.47843 0.0934 0.64539 0.0
C931 C 0.48214 0.01661 0.6634 0.0
C932 C 0.50064 0.02915 0.61655 0.0
C933 C 0.49696 0.03792 0.65997 0.0
N934 N 0.50589 0.04402 0.63673 0.0
C935 C 0.48588 0.00771 0.61927 0.0
C936 C 0.47658 0.00145 0.64287 0.0
C937 C 0.56752 0.05665 0.59621 0.0
C938 C 0.61628 0.13601 0.64941 0.0
C939 C 0.61597 0.10942 0.60486 0.0
C940 C 0.63855 0.1129 0.61763 0.0
C941 C 0.63865 0.1263 0.64005 0.0
N942 N 0.59412 0.1191 0.61411 0.0
C943 C 0.59405 0.13218 0.63612 0.0
Co944 Co 0.85308 0.48713 0.57695 0.0
Co945 Co 0.87887 0.44684 0.62093 0.0
O946 O 0.85058 0.46544 0.60636 0.0
C947 C 0.81468 0.45052 0.56012 0.0
O948 O 0.8271 0.43233 0.57109 0.0
C949 C 0.86277 0.48068 0.66148 0.0
O950 O 0.86105 0.49812 0.64422 0.0
O951 O 0.902 0.47617 0.61819 0.0
O952 O 0.88488 0.50166 0.58954 0.0
H953 H 0.96777 0.41614 0.62626 0.0
H954 H 0.80612 0.48686 0.60639 0.0
O955 O 0.82144 0.47324 0.56265 0.0
H956 H 0.83707 0.57385 0.61065 0.0
H957 H 0.81961 0.54506 0.51031 0.0
H958 H 0.89451 0.50178 0.54293 0.0
H959 H 0.86015 0.54184 0.58655 0.0
H960 H 0.81675 0.51822 0.54786 0.0
O961 O 0.869 0.45843 0.65536 0.0
H962 H 0.93243 0.43958 0.60783 0.0
H963 H 0.88436 0.41445 0.66611 0.0
H964 H 0.89825 0.52863 0.50546 0.0
H965 H 0.78231 0.51834 0.63056 0.0
H966 H 0.86061 0.55048 0.4889 0.0
H967 H 0.79785 0.56217 0.63286 0.0
O968 O 0.87202 0.46104 0.55838 0.0
H969 H 0.79882 0.40301 0.64414 0.0
H970 H 0.88273 0.39295 0.60664 0.0
H971 H 0.85448 0.35645 0.60931 0.0
H972 H 0.8122 0.36135 0.62822 0.0
H973 H 0.82761 0.43906 0.6409 0.0
H974 H 0.91923 0.3909 0.68532 0.0
H975 H 0.96127 0.39157 0.6653 0.0
O976 O 0.88963 0.4353 0.58687 0.0
C977 C 0.90221 0.49602 0.6049 0.0
C978 C 0.94951 0.4156 0.6351 0.0
C979 C 0.92228 0.40147 0.66826 0.0
N980 N 0.90631 0.42813 0.63571 0.0
C981 C 0.92941 0.42875 0.62468 0.0
C982 C 0.90262 0.41486 0.65732 0.0
C983 C 0.94586 0.40185 0.65702 0.0
C984 C 0.81284 0.50596 0.60714 0.0
N985 N 0.83441 0.51254 0.59502 0.0
C986 C 0.79935 0.52367 0.62092 0.0
C987 C 0.80809 0.54825 0.62222 0.0
C988 C 0.83011 0.55482 0.60978 0.0
C989 C 0.84313 0.5366 0.59621 0.0
C990 C 0.83616 0.53569 0.51738 0.0
C991 C 0.87808 0.51138 0.53594 0.0
C992 C 0.83465 0.52045 0.53862 0.0
N993 N 0.8555 0.50864 0.54771 0.0
C994 C 0.8803 0.52649 0.51467 0.0
C995 C 0.85917 0.53873 0.50538 0.0
C996 C 0.88552 0.44223 0.56434 0.0
C997 C 0.81722 0.40062 0.63592 0.0
C998 C 0.86433 0.39524 0.61481 0.0
C999 C 0.84844 0.3745 0.61632 0.0
C1000 C 0.82473 0.37726 0.62695 0.0
N1001 N 0.85685 0.41807 0.62371 0.0
C1002 C 0.83362 0.42094 0.63412 0.0
Co1003 Co 0.1451 0.99936 0.57813 0.0
Co1004 Co 0.11544 0.03931 0.61963 0.0
O1005 O 0.14511 0.02164 0.60712 0.0
C1006 C 0.18404 0.03568 0.56144 0.0
O1007 O 0.16823 0.05411 0.56547 0.0
C1008 C 0.13174 0.00893 0.66272 0.0
O1009 O 0.13402 0.99025 0.64687 0.0
O1010 O 0.09431 0.00848 0.61787 0.0
O1011 O 0.11234 0.98477 0.58822 0.0
H1012 H 0.02472 0.06466 0.62051 0.0
H1013 H 0.18936 0.00046 0.61161 0.0
O1014 O 0.17807 0.01322 0.56693 0.0
H1015 H 0.15855 0.91338 0.61476 0.0
H1016 H 0.18488 0.94041 0.51604 0.0
H1017 H 0.10695 0.98347 0.54095 0.0
H1018 H 0.13751 0.94482 0.58818 0.0
H1019 H 0.18415 0.96817 0.553 0.0
O1020 O 0.12494 0.03045 0.6549 0.0
H1021 H 0.06202 0.04247 0.60454 0.0
H1022 H 0.10649 0.07386 0.6626 0.0
H1023 H 0.10678 0.9557 0.504 0.0
H1024 H 0.21112 0.96955 0.63828 0.0
H1025 H 0.14596 0.93394 0.49133 0.0
H1026 H 0.19566 0.92568 0.64003 0.0
O1027 O 0.12725 0.02479 0.55747 0.0
H1028 H 0.19205 0.08923 0.64209 0.0
H1029 H 0.10874 0.09199 0.60215 0.0
H1030 H 0.13468 0.13023 0.6033 0.0
H1031 H 0.17664 0.12901 0.62343 0.0
H1032 H 0.16557 0.05136 0.64034 0.0
H1033 H 0.06963 0.09623 0.67934 0.0
H1034 H 0.0284 0.09177 0.65818 0.0
O1035 O 0.10516 0.04822 0.58474 0.0
C1036 C 0.09475 0.98923 0.60372 0.0
C1037 C 0.0426 0.06684 0.62983 0.0
C1038 C 0.0678 0.08453 0.66287 0.0
N1039 N 0.08645 0.0571 0.63246 0.0
C1040 C 0.0638 0.0544 0.62082 0.0
C1041 C 0.0886 0.07179 0.65333 0.0
C1042 C 0.04467 0.08202 0.65099 0.0
C1043 C 0.18268 0.98134 0.6121 0.0
N1044 N 0.16227 0.97443 0.59829 0.0
C1045 C 0.19501 0.96395 0.62731 0.0
C1046 C 0.1863 0.93935 0.62831 0.0
C1047 C 0.16547 0.93244 0.61415 0.0
C1048 C 0.1536 0.95034 0.59918 0.0
C1049 C 0.16768 0.94974 0.52141 0.0
C1050 C 0.12403 0.97395 0.53564 0.0
C1051 C 0.16716 0.96552 0.54229 0.0
N1052 N 0.14548 0.97727 0.54924 0.0
C1053 C 0.12384 0.9583 0.51466 0.0
C1054 C 0.14583 0.94611 0.50755 0.0
C1055 C 0.11138 0.04199 0.56249 0.0
C1056 C 0.17377 0.09001 0.63333 0.0
C1057 C 0.12701 0.09129 0.61087 0.0
C1058 C 0.14159 0.11302 0.61151 0.0
C1059 C 0.16513 0.11232 0.62283 0.0
N1060 N 0.13559 0.06951 0.62129 0.0
C1061 C 0.15867 0.06866 0.63236 0.0
Co1062 Co 0.85125 0.52673 0.92794 0.0
Co1063 Co 0.88472 0.56168 0.88494 0.0
O1064 O 0.85362 0.54674 0.89747 0.0
C1065 C 0.81325 0.56569 0.94071 0.0
O1066 O 0.83013 0.58326 0.93725 0.0
C1067 C 0.86765 0.52915 0.84391 0.0
O1068 O 0.86416 0.51203 0.86122 0.0
O1069 O 0.90374 0.52986 0.88961 0.0
O1070 O 0.88378 0.50994 0.92077 0.0
H1071 H 0.97681 0.58144 0.88559 0.0
H1072 H 0.8087 0.52707 0.89229 0.0
O1073 O 0.81846 0.54282 0.93627 0.0
H1074 H 0.83563 0.43879 0.89745 0.0
H1075 H 0.80578 0.47486 0.9924 0.0
H1076 H 0.88672 0.51244 0.9683 0.0
H1077 H 0.85681 0.47131 0.92254 0.0
H1078 H 0.80964 0.4993 0.95334 0.0
O1079 O 0.87569 0.55081 0.85004 0.0
H1080 H 0.93771 0.56274 0.90172 0.0
H1081 H 0.89716 0.59233 0.83994 0.0
H1082 H 0.88374 0.48795 0.00741 0.0
H1083 H 0.78683 0.49511 0.86702 0.0
H1084 H 0.84304 0.46896 0.01969 0.0
H1085 H 0.80036 0.45062 0.86945 0.0
O1086 O 0.86924 0.5529 0.94732 0.0
H1087 H 0.81222 0.61453 0.85623 0.0
H1088 H 0.89419 0.61493 0.89895 0.0
H1089 H 0.87082 0.65455 0.89414 0.0
H1090 H 0.82955 0.65451 0.87259 0.0
H1091 H 0.83613 0.5753 0.86163 0.0
H1092 H 0.93585 0.61119 0.823 0.0
H1093 H 0.97602 0.60588 0.84594 0.0
O1094 O 0.89449 0.57241 0.91963 0.0
C1095 C 0.90194 0.51205 0.90543 0.0
C1096 C 0.9594 0.58399 0.87548 0.0
C1097 C 0.93642 0.60065 0.84033 0.0
N1098 N 0.91515 0.5767 0.87194 0.0
C1099 C 0.9372 0.57353 0.88458 0.0
C1100 C 0.91459 0.58991 0.84999 0.0
C1101 C 0.95895 0.59767 0.85322 0.0
C1102 C 0.8145 0.50771 0.89363 0.0
N1103 N 0.83392 0.50105 0.90894 0.0
C1104 C 0.80213 0.48971 0.8792 0.0
C1105 C 0.80976 0.46476 0.88055 0.0
C1106 C 0.82956 0.45811 0.89624 0.0
C1107 C 0.84152 0.47662 0.91036 0.0
C1108 C 0.82363 0.48297 0.98722 0.0
C1109 C 0.86899 0.50408 0.97342 0.0
C1110 C 0.82593 0.49686 0.96514 0.0
N1111 N 0.84845 0.50708 0.95842 0.0
C1112 C 0.8674 0.4903 0.99563 0.0
C1113 C 0.84455 0.47967 0.00252 0.0
C1114 C 0.88656 0.56848 0.9419 0.0
C1115 C 0.83021 0.6148 0.86559 0.0
C1116 C 0.8762 0.61476 0.88963 0.0
C1117 C 0.86308 0.63725 0.88691 0.0
C1118 C 0.83994 0.63722 0.8748 0.0
N1119 N 0.86658 0.59286 0.88046 0.0
C1120 C 0.84387 0.59266 0.86863 0.0
Co1121 Co 0.14598 0.98811 0.93183 0.0
Co1122 Co 0.11315 0.94834 0.89259 0.0
O1123 O 0.14395 0.96481 0.90374 0.0
C1124 C 0.18246 0.94913 0.94788 0.0
O1125 O 0.16556 0.93182 0.94336 0.0
C1126 C 0.12979 0.97743 0.84878 0.0
O1127 O 0.13366 0.99597 0.86448 0.0
O1128 O 0.09337 0.98009 0.89477 0.0
O1129 O 0.11438 0.00476 0.92152 0.0
H1130 H 0.02164 0.92633 0.89611 0.0
H1131 H 0.18962 0.98225 0.89797 0.0
O1132 O 0.17781 0.97207 0.94319 0.0
H1133 H 0.16558 0.0713 0.89175 0.0
H1134 H 0.19104 0.04597 0.99123 0.0
H1135 H 0.10965 0.00838 0.96876 0.0
H1136 H 0.14251 0.04263 0.91974 0.0
H1137 H 0.18765 0.01704 0.95533 0.0
O1138 O 0.12171 0.95645 0.85687 0.0
H1139 H 0.06045 0.94708 0.91027 0.0
H1140 H 0.10094 0.91415 0.85014 0.0
H1141 H 0.11215 0.03738 0.00466 0.0
H1142 H 0.21334 0.01032 0.86987 0.0
H1143 H 0.15308 0.05639 0.01611 0.0
H1144 H 0.20129 0.05518 0.86657 0.0
O1145 O 0.12645 0.96501 0.95368 0.0
H1146 H 0.18676 0.895 0.86793 0.0
H1147 H 0.10481 0.89611 0.91068 0.0
H1148 H 0.12904 0.85678 0.90899 0.0
H1149 H 0.17032 0.85605 0.88744 0.0
H1150 H 0.16198 0.93398 0.87026 0.0
H1151 H 0.06253 0.8932 0.83519 0.0
H1152 H 0.02254 0.89916 0.8583 0.0
O1153 O 0.10396 0.94023 0.928 0.0
C1154 C 0.09571 0.00026 0.90739 0.0
C1155 C 0.03897 0.92352 0.88592 0.0
C1156 C 0.06191 0.90495 0.85171 0.0
N1157 N 0.08295 0.93167 0.88115 0.0
C1158 C 0.06101 0.93516 0.8939 0.0
C1159 C 0.08358 0.9169 0.86023 0.0
C1160 C 0.03948 0.9083 0.86469 0.0
C1161 C 0.18443 0.00181 0.89681 0.0
N1162 N 0.16479 0.01082 0.91056 0.0
C1163 C 0.19786 0.01759 0.88079 0.0
C1164 C 0.19106 0.04274 0.87893 0.0
C1165 C 0.17102 0.0518 0.89303 0.0
C1166 C 0.158 0.03547 0.90882 0.0
C1167 C 0.17309 0.03785 0.98639 0.0
C1168 C 0.1275 0.0167 0.97352 0.0
C1169 C 0.17107 0.02142 0.96612 0.0
N1170 N 0.14844 0.01118 0.95984 0.0
C1171 C 0.12881 0.03305 0.99392 0.0
C1172 C 0.15178 0.04369 0.00034 0.0
C1173 C 0.11031 0.94776 0.9498 0.0
C1174 C 0.16878 0.89506 0.87732 0.0
C1175 C 0.12279 0.89596 0.90136 0.0
C1176 C 0.1364 0.87362 0.9004 0.0
C1177 C 0.15955 0.87322 0.8883 0.0
N1178 N 0.13193 0.91729 0.89049 0.0
C1179 C 0.15463 0.91706 0.87862 0.0
Co1180 Co 0.5764 0.85326 0.48654 0.0
Co1181 Co 0.62154 0.87983 0.44812 0.0
O1182 O 0.60659 0.8512 0.46589 0.0
C1183 C 0.5607 0.81477 0.44953 0.0
O1184 O 0.57134 0.82767 0.43148 0.0
C1185 C 0.6616 0.86338 0.48245 0.0
O1186 O 0.64418 0.86172 0.49974 0.0
O1187 O 0.61821 0.90236 0.47785 0.0
O1188 O 0.58791 0.88531 0.50141 0.0
H1189 H 0.62761 0.96932 0.4193 0.0
H1190 H 0.60662 0.80682 0.4875 0.0
O1191 O 0.56315 0.8213 0.47233 0.0
H1192 H 0.60731 0.83815 0.57447 0.0
H1193 H 0.50836 0.81884 0.54225 0.0
H1194 H 0.54112 0.89411 0.49974 0.0
H1195 H 0.58397 0.8607 0.54153 0.0
H1196 H 0.54691 0.81656 0.51682 0.0
O1197 O 0.65571 0.86968 0.46015 0.0
H1198 H 0.60867 0.93355 0.44166 0.0
H1199 H 0.66734 0.88588 0.41672 0.0
H1200 H 0.50264 0.89728 0.52519 0.0
H1201 H 0.63007 0.78353 0.51991 0.0
H1202 H 0.48601 0.85945 0.54664 0.0
H1203 H 0.63056 0.79926 0.56373 0.0
O1204 O 0.55846 0.87182 0.45975 0.0
H1205 H 0.64547 0.8006 0.4032 0.0
H1206 H 0.60839 0.88479 0.394 0.0
H1207 H 0.61174 0.85724 0.35702 0.0
H1208 H 0.63045 0.81484 0.36149 0.0
H1209 H 0.64155 0.82869 0.43974 0.0
H1210 H 0.68707 0.92118 0.39426 0.0
H1211 H 0.66711 0.96323 0.39538 0.0
O1212 O 0.58777 0.8909 0.43605 0.0
C1213 C 0.60375 0.90253 0.49688 0.0
C1214 C 0.63643 0.95106 0.41857 0.0
C1215 C 0.66982 0.92405 0.40455 0.0
N1216 N 0.63673 0.90761 0.43025 0.0
C1217 C 0.62573 0.93072 0.43111 0.0
C1218 C 0.65858 0.90415 0.41733 0.0
C1219 C 0.65861 0.94764 0.40518 0.0
C1220 C 0.60659 0.81362 0.50659 0.0
N1221 N 0.59388 0.835 0.51265 0.0
C1222 C 0.61996 0.80042 0.52483 0.0
C1223 C 0.62026 0.80928 0.54941 0.0
C1224 C 0.60723 0.83111 0.55545 0.0
C1225 C 0.59409 0.84382 0.53671 0.0
C1226 C 0.51546 0.83547 0.53306 0.0
C1227 C 0.5341 0.87761 0.50918 0.0
C1228 C 0.53727 0.83429 0.51861 0.0
N1229 N 0.54639 0.85524 0.507 0.0
C1230 C 0.51226 0.8795 0.5235 0.0
C1231 C 0.50293 0.85826 0.53551 0.0
C1232 C 0.56503 0.8861 0.44173 0.0
C1233 C 0.63734 0.81906 0.401 0.0
C1234 C 0.61646 0.86632 0.39611 0.0
C1235 C 0.61837 0.85083 0.37509 0.0
C1236 C 0.62888 0.82705 0.37761 0.0
N1237 N 0.62487 0.85837 0.41897 0.0
C1238 C 0.63516 0.83507 0.4216 0.0
Co1239 Co 0.57767 0.14574 0.0006 0.0
Co1240 Co 0.61909 0.1161 0.04066 0.0
O1241 O 0.60653 0.14579 0.02306 0.0
C1242 C 0.56037 0.1845 0.03685 0.0
O1243 O 0.56404 0.16863 0.05531 0.0
C1244 C 0.66225 0.13284 0.01067 0.0
O1245 O 0.64649 0.13518 0.99192 0.0
O1246 O 0.61765 0.09513 0.0097 0.0
O1247 O 0.58797 0.11307 0.98597 0.0
H1248 H 0.62026 0.02526 0.06554 0.0
H1249 H 0.61096 0.19013 0.00201 0.0
O1250 O 0.56627 0.17862 0.01448 0.0
H1251 H 0.6147 0.1596 0.91484 0.0
H1252 H 0.51575 0.18543 0.9414 0.0
H1253 H 0.54074 0.10748 0.98439 0.0
H1254 H 0.58805 0.13835 0.94608 0.0
H1255 H 0.55255 0.18477 0.96937 0.0
O1256 O 0.65435 0.12583 0.0321 0.0
H1257 H 0.60425 0.06259 0.04344 0.0
H1258 H 0.66187 0.10719 0.07545 0.0
H1259 H 0.50395 0.10724 0.95639 0.0
H1260 H 0.6377 0.21209 0.97131 0.0
H1261 H 0.49124 0.14642 0.93467 0.0
H1262 H 0.63975 0.19677 0.92739 0.0
O1263 O 0.55694 0.12772 0.02587 0.0
H1264 H 0.64078 0.19256 0.09114 0.0
H1265 H 0.6013 0.10902 0.09319 0.0
H1266 H 0.60206 0.13475 0.13159 0.0
H1267 H 0.62196 0.17683 0.13072 0.0
H1268 H 0.63943 0.16628 0.05311 0.0
H1269 H 0.67865 0.07029 0.09774 0.0
H1270 H 0.65773 0.02898 0.09292 0.0
O1271 O 0.5842 0.1056 0.04929 0.0
C1272 C 0.60357 0.09557 0.99039 0.0
C1273 C 0.62947 0.04317 0.06787 0.0
C1274 C 0.66227 0.06844 0.08592 0.0
N1275 N 0.63195 0.08708 0.05838 0.0
C1276 C 0.62044 0.0644 0.05548 0.0
C1277 C 0.65271 0.08926 0.07323 0.0
C1278 C 0.65051 0.04527 0.08321 0.0
C1279 C 0.61158 0.18351 0.98287 0.0
N1280 N 0.59789 0.16305 0.97583 0.0
C1281 C 0.62682 0.19595 0.9656 0.0
C1282 C 0.62799 0.18732 0.94097 0.0
C1283 C 0.61396 0.16646 0.93392 0.0
C1284 C 0.59894 0.15446 0.95171 0.0
C1285 C 0.52114 0.16822 0.95072 0.0
C1286 C 0.53542 0.12457 0.97488 0.0
C1287 C 0.54193 0.16775 0.96662 0.0
N1288 N 0.54891 0.14605 0.97834 0.0
C1289 C 0.51453 0.12433 0.95911 0.0
C1290 C 0.5074 0.14633 0.94695 0.0
C1291 C 0.56196 0.11178 0.043 0.0
C1292 C 0.63212 0.17423 0.09177 0.0
C1293 C 0.60992 0.12734 0.09265 0.0
C1294 C 0.61034 0.1418 0.11446 0.0
C1295 C 0.62153 0.16541 0.11397 0.0
N1296 N 0.62043 0.1361 0.07098 0.0
C1297 C 0.63137 0.15924 0.07032 0.0
Co1298 Co 0.42236 0.366 0.99671 0.0
Co1299 Co 0.38255 0.39645 0.03794 0.0
O1300 O 0.39402 0.36661 0.01986 0.0
C1301 C 0.43974 0.32813 0.03384 0.0
O1302 O 0.4354 0.34423 0.05194 0.0
C1303 C 0.33898 0.3822 0.00715 0.0
O1304 O 0.35483 0.37906 0.98859 0.0
O1305 O 0.38535 0.41817 0.00748 0.0
O1306 O 0.41166 0.39815 0.98152 0.0
H1307 H 0.38587 0.48644 0.06553 0.0
H1308 H 0.38909 0.32171 0.00035 0.0
O1309 O 0.43419 0.33355 0.01126 0.0
H1310 H 0.38309 0.34972 0.91243 0.0
H1311 H 0.48276 0.32465 0.93708 0.0
H1312 H 0.45876 0.40381 0.97832 0.0
H1313 H 0.41057 0.37182 0.94231 0.0
H1314 H 0.44671 0.32608 0.966 0.0
O1315 O 0.34697 0.38865 0.02872 0.0
H1316 H 0.40032 0.44891 0.04269 0.0
H1317 H 0.33955 0.40672 0.07211 0.0
H1318 H 0.49479 0.40326 0.94936 0.0
H1319 H 0.36153 0.29892 0.97103 0.0
H1320 H 0.50701 0.36346 0.92851 0.0
H1321 H 0.35835 0.31297 0.92675 0.0
O1322 O 0.44382 0.38479 0.02083 0.0
H1323 H 0.35658 0.31987 0.08623 0.0
H1324 H 0.39966 0.40149 0.09091 0.0
H1325 H 0.39709 0.37492 0.12867 0.0
H1326 H 0.37537 0.3338 0.12648 0.0
H1327 H 0.35979 0.34696 0.04886 0.0
H1328 H 0.32431 0.44385 0.0951 0.0
H1329 H 0.3476 0.48404 0.09195 0.0
O1330 O 0.41776 0.40496 0.0472 0.0
C1331 C 0.39777 0.41672 0.98709 0.0
C1332 C 0.37561 0.46901 0.06711 0.0
C1333 C 0.34104 0.44512 0.08368 0.0
N1334 N 0.37089 0.42562 0.05621 0.0
C1335 C 0.38374 0.44769 0.05428 0.0
C1336 C 0.34972 0.42418 0.07057 0.0
C1337 C 0.35412 0.46766 0.08191 0.0
C1338 C 0.38797 0.32778 0.98104 0.0
N1339 N 0.4015 0.34798 0.97302 0.0
C1340 C 0.37226 0.31487 0.96456 0.0
C1341 C 0.37046 0.32278 0.93972 0.0
C1342 C 0.38433 0.34341 0.93168 0.0
C1343 C 0.39982 0.35588 0.9487 0.0
C1344 C 0.47759 0.34211 0.94601 0.0
C1345 C 0.46386 0.38645 0.96921 0.0
C1346 C 0.45723 0.34303 0.96245 0.0
N1347 N 0.45052 0.36505 0.9737 0.0
C1348 C 0.48433 0.38624 0.95288 0.0
C1349 C 0.49119 0.3639 0.94121 0.0
C1350 C 0.43965 0.39954 0.03922 0.0
C1351 C 0.36605 0.33777 0.08743 0.0
C1352 C 0.39028 0.38358 0.08979 0.0
C1353 C 0.38882 0.36864 0.11125 0.0
C1354 C 0.37662 0.34559 0.11001 0.0
N1355 N 0.37981 0.37581 0.06774 0.0
C1356 C 0.36786 0.35321 0.06636 0.0
Co1357 Co 0.9327 0.14553 0.98473 0.0
Co1358 Co 0.89106 0.11094 0.94947 0.0
O1359 O 0.90284 0.14251 0.96389 0.0
C1360 C 0.94542 0.18317 0.94544 0.0
O1361 O 0.94253 0.16595 0.9281 0.0
C1362 C 0.84806 0.12905 0.97889 0.0
O1363 O 0.86408 0.13303 0.99713 0.0
O1364 O 0.89404 0.09321 0.98226 0.0
O1365 O 0.92542 0.11317 0.00181 0.0
H1366 H 0.89259 0.01814 0.93352 0.0
H1367 H 0.89654 0.18765 0.98272 0.0
O1368 O 0.94101 0.17815 0.96837 0.0
H1369 H 0.89944 0.16211 0.07153 0.0
H1370 H 0.99486 0.1926 0.03788 0.0
H1371 H 0.97305 0.1108 0.00081 0.0
H1372 H 0.9257 0.14072 0.04006 0.0
H1373 H 0.95671 0.18788 0.01222 0.0
O1374 O 0.85571 0.12038 0.95798 0.0
H1375 H 0.90777 0.05795 0.95144 0.0
H1376 H 0.84779 0.09729 0.91691 0.0
H1377 H 0.01127 0.11463 0.02653 0.0
H1378 H 0.87012 0.20971 0.01362 0.0
H1379 H 0.02239 0.15577 0.04527 0.0
H1380 H 0.87141 0.19689 0.05837 0.0
O1381 O 0.95313 0.12736 0.9594 0.0
H1382 H 0.86559 0.18148 0.89247 0.0
H1383 H 0.90775 0.09935 0.89738 0.0
H1384 H 0.90519 0.12121 0.85672 0.0
H1385 H 0.88394 0.16256 0.85408 0.0
H1386 H 0.86876 0.15904 0.9328 0.0
H1387 H 0.83182 0.05787 0.89877 0.0
H1388 H 0.85434 0.01794 0.90696 0.0
O1389 O 0.92613 0.10076 0.94089 0.0
C1390 C 0.90977 0.09524 0.00014 0.0
C1391 C 0.88267 0.03542 0.92972 0.0
C1392 C 0.84854 0.05772 0.91025 0.0
N1393 N 0.87884 0.07994 0.93499 0.0
C1394 C 0.89123 0.05804 0.93974 0.0
C1395 C 0.85765 0.07997 0.92059 0.0
C1396 C 0.86119 0.03533 0.91485 0.0
C1397 C 0.89738 0.18214 0.0022 0.0
N1398 N 0.91271 0.163 0.00959 0.0
C1399 C 0.8823 0.19462 0.01959 0.0
C1400 C 0.88301 0.1874 0.04469 0.0
C1401 C 0.89872 0.16787 0.05209 0.0
C1402 C 0.9135 0.15579 0.03417 0.0
C1403 C 0.99018 0.17456 0.02988 0.0
C1404 C 0.97767 0.12872 0.00905 0.0
C1405 C 0.96862 0.17178 0.0153 0.0
N1406 N 0.96253 0.14902 0.00523 0.0
C1407 C 0.99938 0.1308 0.02353 0.0
C1408 C 0.00562 0.15389 0.03402 0.0
C1409 C 0.94823 0.1091 0.94475 0.0
C1410 C 0.87484 0.16344 0.89337 0.0
C1411 C 0.89854 0.11737 0.8964 0.0
C1412 C 0.8971 0.12964 0.87331 0.0
C1413 C 0.88516 0.15283 0.87184 0.0
N1414 N 0.88829 0.12786 0.91741 0.0
C1415 C 0.87661 0.15062 0.91613 0.0
H1416 H 0.06736 0.06811 0.56383 0.0
H1417 H 0.12593 0.04395 0.51334 0.0
H1418 H 0.04312 0.08344 0.52855 0.0
H1419 H 0.10229 0.06057 0.47802 0.0
H1420 H 0.03801 0.05567 0.42167 0.0
H1421 H 0.06699 0.04827 0.45557 0.0
H1422 H 0.03668 0.11193 0.4956 0.0
H1423 H 0.0065 0.11861 0.46188 0.0
C1424 C 0.07533 0.06656 0.54522 0.0
C1425 C 0.0984 0.05441 0.54136 0.0
C1426 C 0.06148 0.07558 0.52492 0.0
C1427 C 0.07053 0.07303 0.50028 0.0
C1428 C 0.09437 0.06227 0.49664 0.0
C1429 C 0.10803 0.05286 0.51691 0.0
C1430 C 0.03756 0.0683 0.43755 0.0
C1431 C 0.01964 0.08759 0.43911 0.0
C1432 C 0.05447 0.06418 0.45701 0.0
C1433 C 0.05426 0.07943 0.47849 0.0
C1434 C 0.03711 0.0995 0.47956 0.0
C1435 C 0.0199 0.10346 0.46014 0.0
H1436 H 0.99078 0.37039 0.46028 0.0
H1437 H 0.94938 0.42799 0.42098 0.0
H1438 H 0.96259 0.37492 0.49614 0.0
H1439 H 0.9224 0.43328 0.45673 0.0
H1440 H 0.86774 0.43447 0.51729 0.0
H1441 H 0.89038 0.41747 0.48153 0.0
H1442 H 0.95476 0.40384 0.52892 0.0
H1443 H 0.93137 0.41944 0.56494 0.0
C1444 C 0.97561 0.38384 0.45918 0.0
C1445 C 0.97249 0.39889 0.43774 0.0
C1446 C 0.95955 0.38657 0.47981 0.0
C1447 C 0.94015 0.40449 0.47946 0.0
C1448 C 0.93669 0.4189 0.45766 0.0
C1449 C 0.95247 0.41602 0.4371 0.0
C1450 C 0.88657 0.42739 0.52009 0.0
C1451 C 0.89796 0.42861 0.54376 0.0
C1452 C 0.89965 0.41779 0.49958 0.0
C1453 C 0.92469 0.40983 0.50212 0.0
C1454 C 0.9355 0.40964 0.5262 0.0
C1455 C 0.92216 0.41873 0.54687 0.0
H1456 H 0.99134 0.8954 0.04528 0.0
H1457 H 0.05067 0.91225 0.09768 0.0
H1458 H 0.0201 0.90235 0.01052 0.0
H1459 H 0.07975 0.91801 0.0631 0.0
H1460 H 0.11104 0.96448 0.9982 0.0
H1461 H 0.08628 0.94954 0.0332 0.0
H1462 H 0.05562 0.89074 0.98663 0.0
H1463 H 0.07971 0.90644 0.95115 0.0
C1464 C 0.0107 0.8999 0.0494 0.0
C1465 C 0.01863 0.90364 0.07422 0.0
C1466 C 0.02727 0.90381 0.02944 0.0
C1467 C 0.05223 0.91117 0.03393 0.0
C1468 C 0.06052 0.91308 0.05888 0.0
C1469 C 0.04388 0.90958 0.07875 0.0
C1470 C 0.09926 0.94819 0.99542 0.0
C1471 C 0.0973 0.93679 0.97176 0.0
C1472 C 0.08512 0.93946 0.01563 0.0
C1473 C 0.06886 0.91887 0.01284 0.0
C1474 C 0.06761 0.90687 0.9894 0.0
C1475 C 0.08157 0.91579 0.96907 0.0
H1476 H 0.94378 0.57869 0.08839 0.0
H1477 H 0.99358 0.63022 0.05046 0.0
H1478 H 0.91812 0.57596 0.05137 0.0
H1479 H 0.96689 0.62831 0.01326 0.0
H1480 H 0.86704 0.57989 0.98769 0.0
H1481 H 0.88951 0.59495 0.02441 0.0
H1482 H 0.95767 0.59942 0.98072 0.0
H1483 H 0.93477 0.5857 0.94373 0.0
C1484 C 0.94904 0.5899 0.0723 0.0
C1485 C 0.97098 0.60452 0.07243 0.0
C1486 C 0.93405 0.58852 0.05099 0.0
C1487 C 0.94031 0.60193 0.02918 0.0
C1488 C 0.96166 0.61745 0.02959 0.0
C1489 C 0.97688 0.61869 0.05099 0.0
C1490 C 0.88673 0.58456 0.98586 0.0
C1491 C 0.89923 0.58126 0.96294 0.0
C1492 C 0.89968 0.59305 0.00694 0.0
C1493 C 0.9256 0.59787 0.00577 0.0
C1494 C 0.93773 0.59607 0.98239 0.0
C1495 C 0.92462 0.58804 0.96115 0.0
H1496 H 0.46185 0.00671 0.1199 0.0
H1497 H 0.42121 0.03814 0.05719 0.0
H1498 H 0.49543 0.03701 0.11306 0.0
H1499 H 0.45499 0.06722 0.04961 0.0
H1500 H 0.51278 0.12621 0.04495 0.0
H1501 H 0.47753 0.10252 0.06167 0.0
H1502 H 0.52818 0.04342 0.08441 0.0
H1503 H 0.56338 0.06769 0.06899 0.0
C1504 C 0.45999 0.02013 0.10476 0.0
C1505 C 0.43889 0.0198 0.089 0.0
C1506 C 0.47933 0.0374 0.10071 0.0
C1507 C 0.47812 0.05453 0.08064 0.0
C1508 C 0.45655 0.0547 0.06551 0.0
C1509 C 0.43716 0.03773 0.06974 0.0
C1510 C 0.51638 0.1083 0.05384 0.0
C1511 C 0.54085 0.09871 0.05535 0.0
C1512 C 0.49615 0.09462 0.06332 0.0
C1513 C 0.49986 0.0708 0.0741 0.0
C1514 C 0.52451 0.06177 0.07655 0.0
C1515 C 0.54476 0.07564 0.06748 0.0
H1516 H 0.53174 0.51533 0.10294 0.0
H1517 H 0.58591 0.4594 0.08069 0.0
H1518 H 0.49788 0.48652 0.09283 0.0
H1519 H 0.55218 0.43017 0.07169 0.0
H1520 H 0.48797 0.40171 0.02232 0.0
H1521 H 0.52237 0.42588 0.03955 0.0
H1522 H 0.47522 0.44934 0.10117 0.0
H1523 H 0.44038 0.42595 0.08329 0.0
C1524 C 0.53645 0.49666 0.09653 0.0
C1525 C 0.56151 0.48979 0.09231 0.0
C1526 C 0.517 0.48004 0.0908 0.0
C1527 C 0.52223 0.45607 0.08106 0.0
C1528 C 0.5474 0.44869 0.0785 0.0
C1529 C 0.56679 0.4654 0.08386 0.0
C1530 C 0.48497 0.41178 0.03969 0.0
C1531 C 0.46133 0.41199 0.0513 0.0
C1532 C 0.50481 0.42556 0.04972 0.0
C1533 C 0.50164 0.43967 0.07179 0.0
C1534 C 0.47825 0.43907 0.08393 0.0
C1535 C 0.45829 0.4255 0.07374 0.0
H1536 H 0.51954 0.86705 0.42928 0.0
H1537 H 0.56517 0.93348 0.42253 0.0
H1538 H 0.48406 0.8895 0.41142 0.0
H1539 H 0.5293 0.95661 0.40626 0.0
H1540 H 0.42049 0.945 0.42298 0.0
H1541 H 0.45679 0.91878 0.42778 0.0
H1542 H 0.49811 0.966 0.3764 0.0
H1543 H 0.46157 0.99343 0.37256 0.0
C1544 C 0.52195 0.88647 0.42382 0.0
C1545 C 0.54492 0.89867 0.42759 0.0
C1546 C 0.50159 0.89943 0.41375 0.0
C1547 C 0.50351 0.92512 0.40796 0.0
C1548 C 0.52704 0.93685 0.41031 0.0
C1549 C 0.54762 0.92365 0.4198 0.0
C1550 C 0.43714 0.94982 0.41241 0.0
C1551 C 0.43809 0.97159 0.39758 0.0
C1552 C 0.45807 0.93447 0.41497 0.0
C1553 C 0.48057 0.94012 0.40247 0.0
C1554 C 0.48123 0.96124 0.38661 0.0
C1555 C 0.46022 0.97688 0.38425 0.0
H1556 H 0.43537 0.55707 0.42031 0.0
H1557 H 0.4822 0.62127 0.43572 0.0
H1558 H 0.47168 0.53421 0.40486 0.0
H1559 H 0.51831 0.59896 0.41903 0.0
H1560 H 0.57922 0.53996 0.42936 0.0
H1561 H 0.54323 0.56666 0.43495 0.0
H1562 H 0.50453 0.52743 0.37553 0.0
H1563 H 0.54062 0.49963 0.37059 0.0
C1564 C 0.45331 0.56653 0.41979 0.0
C1565 C 0.45604 0.59077 0.4297 0.0
C1566 C 0.47416 0.55346 0.41076 0.0
C1567 C 0.49809 0.56454 0.41109 0.0
C1568 C 0.50034 0.58955 0.41918 0.0
C1569 C 0.47961 0.60241 0.42863 0.0
C1570 C 0.56321 0.53704 0.41724 0.0
C1571 C 0.56282 0.51743 0.39964 0.0
C1572 C 0.54252 0.55264 0.4203 0.0
C1573 C 0.52087 0.54934 0.40566 0.0
C1574 C 0.52076 0.53032 0.38735 0.0
C1575 C 0.54151 0.51448 0.38441 0.0
H1576 H 0.0821 0.41547 0.04849 0.0
H1577 H 0.10183 0.47041 0.99235 0.0
H1578 H 0.07364 0.44879 0.07832 0.0
H1579 H 0.09229 0.5039 0.02187 0.0
H1580 H 0.08326 0.56056 0.08364 0.0
H1581 H 0.10123 0.52633 0.05935 0.0
H1582 H 0.0408 0.47792 0.08327 0.0
H1583 H 0.02344 0.51169 0.10822 0.0
C1584 C 0.08486 0.43468 0.04257 0.0
C1585 C 0.09237 0.44028 0.01795 0.0
C1586 C 0.07981 0.45383 0.05965 0.0
C1587 C 0.08176 0.47909 0.05241 0.0
C1588 C 0.09072 0.48468 0.02821 0.0
C1589 C 0.09614 0.46546 0.0112 0.0
C1590 C 0.074 0.5425 0.08399 0.0
C1591 C 0.05183 0.53893 0.09786 0.0
C1592 C 0.08424 0.52291 0.06992 0.0
C1593 C 0.07247 0.49934 0.06923 0.0
C1594 C 0.05069 0.49564 0.08366 0.0
C1595 C 0.04059 0.51512 0.09789 0.0
H1596 H 0.0448 0.48806 0.38679 0.0
H1597 H 0.07093 0.43741 0.4444 0.0
H1598 H 0.06082 0.52344 0.41072 0.0
H1599 H 0.08574 0.47271 0.46885 0.0
H1600 H 0.12079 0.53972 0.50509 0.0
H1601 H 0.11388 0.50614 0.47484 0.0
H1602 H 0.04858 0.54513 0.44678 0.0
H1603 H 0.05612 0.57894 0.4759 0.0
C1604 C 0.05403 0.48445 0.40451 0.0
C1605 C 0.0563 0.45991 0.41379 0.0
C1606 C 0.0631 0.50476 0.41834 0.0
C1607 C 0.07428 0.50105 0.44197 0.0
C1608 C 0.07752 0.47638 0.45067 0.0
C1609 C 0.06881 0.45606 0.43667 0.0
C1610 C 0.10518 0.54125 0.49219 0.0
C1611 C 0.08894 0.56199 0.49309 0.0
C1612 C 0.10111 0.52191 0.47494 0.0
C1613 C 0.08056 0.52276 0.45838 0.0
C1614 C 0.06484 0.5439 0.45884 0.0
C1615 C 0.06907 0.5633 0.47582 0.0
H1616 H 0.93587 0.90666 0.47156 0.0
H1617 H 0.87552 0.94478 0.51003 0.0
H1618 H 0.94129 0.94244 0.44432 0.0
H1619 H 0.88029 0.98046 0.48179 0.0
H1620 H 0.92261 0.05038 0.45228 0.0
H1621 H 0.90912 0.01366 0.47554 0.0
H1622 H 0.92555 0.967 0.41135 0.0
H1623 H 0.94016 0.00366 0.38845 0.0
C1624 C 0.92338 0.9225 0.47395 0.0
C1625 C 0.90539 0.92286 0.49323 0.0
C1626 C 0.92637 0.94304 0.45807 0.0
C1627 C 0.91128 0.96447 0.4608 0.0
C1628 C 0.89253 0.96445 0.47939 0.0
C1629 C 0.88967 0.94391 0.49549 0.0
C1630 C 0.9231 0.03234 0.443 0.0
C1631 C 0.93285 0.02993 0.41862 0.0
C1632 C 0.91516 0.01123 0.45632 0.0
C1633 C 0.91648 0.98724 0.44548 0.0
C1634 C 0.92484 0.98508 0.42054 0.0
C1635 C 0.93309 0.00614 0.40733 0.0
H1636 H 0.42897 0.58047 0.53854 0.0
H1637 H 0.36975 0.54194 0.49881 0.0
H1638 H 0.43485 0.54442 0.56513 0.0
H1639 H 0.37499 0.5058 0.5265 0.0
H1640 H 0.43573 0.48334 0.6199 0.0
H1641 H 0.4192 0.51953 0.5976 0.0
H1642 H 0.40431 0.47289 0.53301 0.0
H1643 H 0.41963 0.4365 0.55586 0.0
C1644 C 0.41682 0.56446 0.53573 0.0
C1645 C 0.39899 0.56412 0.51631 0.0
C1646 C 0.42005 0.54374 0.55126 0.0
C1647 C 0.40537 0.5221 0.5481 0.0
C1648 C 0.38686 0.52203 0.52928 0.0
C1649 C 0.38374 0.5428 0.5135 0.0
C1650 C 0.42855 0.48077 0.60108 0.0
C1651 C 0.42936 0.45715 0.58949 0.0
C1652 C 0.41919 0.50154 0.58821 0.0
C1653 C 0.4109 0.49931 0.56326 0.0
C1654 C 0.41036 0.47536 0.55222 0.0
C1655 C 0.41931 0.45447 0.56529 0.0
H1656 H 0.55153 0.58713 0.05232 0.0
H1657 H 0.61543 0.5661 0.00722 0.0
H1658 H 0.52941 0.60059 0.01479 0.0
H1659 H 0.59388 0.58077 0.9698 0.0
H1660 H 0.49739 0.63287 0.94364 0.0
H1661 H 0.52433 0.62827 0.98038 0.0
H1662 H 0.56118 0.56524 0.94519 0.0
H1663 H 0.53536 0.57047 0.90845 0.0
C1664 C 0.56108 0.5859 0.03445 0.0
C1665 C 0.58504 0.57509 0.03269 0.0
C1666 C 0.54844 0.59381 0.01289 0.0
C1667 C 0.55966 0.59144 0.98912 0.0
C1668 C 0.58434 0.58222 0.98767 0.0
C1669 C 0.59678 0.57392 0.00914 0.0
C1670 C 0.51153 0.6183 0.94364 0.0
C1671 C 0.51408 0.602 0.92308 0.0
C1672 C 0.52687 0.61554 0.96479 0.0
C1673 C 0.54496 0.59634 0.96587 0.0
C1674 C 0.54787 0.58056 0.94497 0.0
C1675 C 0.53279 0.58344 0.92386 0.0
H1676 H 0.38901 0.94088 0.00478 0.0
H1677 H 0.45264 0.92264 0.05152 0.0
H1678 H 0.41206 0.92682 0.968 0.0
H1679 H 0.47604 0.90967 0.0147 0.0
H1680 H 0.51051 0.87676 0.94536 0.0
H1681 H 0.48227 0.88122 0.98108 0.0
H1682 H 0.44523 0.94297 0.94386 0.0
H1683 H 0.4725 0.93788 0.90803 0.0
C1684 C 0.40788 0.93377 0.00724 0.0
C1685 C 0.41907 0.93319 0.03108 0.0
C1686 C 0.42117 0.92583 0.98611 0.0
C1687 C 0.44609 0.91744 0.98826 0.0
C1688 C 0.45683 0.91576 0.01228 0.0
C1689 C 0.44343 0.92339 0.03345 0.0
C1690 C 0.49608 0.89103 0.94468 0.0
C1691 C 0.49393 0.90704 0.92384 0.0
C1692 C 0.47998 0.8937 0.96524 0.0
C1693 C 0.46149 0.91254 0.96548 0.0
C1694 C 0.4589 0.92797 0.94427 0.0
C1695 C 0.47479 0.92518 0.92371 0.0
H1696 H 0.49939 0.37069 0.54178 0.0
H1697 H 0.5381 0.43028 0.58078 0.0
H1698 H 0.52739 0.37622 0.50596 0.0
H1699 H 0.56496 0.4365 0.54497 0.0
H1700 H 0.61988 0.43846 0.48392 0.0
H1701 H 0.59771 0.42169 0.52009 0.0
H1702 H 0.53366 0.40543 0.47316 0.0
H1703 H 0.55641 0.42095 0.43683 0.0
C1704 C 0.51393 0.38483 0.54282 0.0
C1705 C 0.51634 0.40012 0.56415 0.0
C1706 C 0.52988 0.38812 0.52221 0.0
C1707 C 0.54846 0.40687 0.52245 0.0
C1708 C 0.55128 0.42154 0.54415 0.0
C1709 C 0.53559 0.41811 0.56473 0.0
C1710 C 0.60121 0.43092 0.48129 0.0
C1711 C 0.58975 0.43138 0.4576 0.0
C1712 C 0.58842 0.42143 0.50205 0.0
C1713 C 0.56364 0.41266 0.49973 0.0
C1714 C 0.55274 0.41182 0.47572 0.0
C1715 C 0.56574 0.4209 0.45485 0.0
H1716 H 0.51747 0.1038 0.53119 0.0
H1717 H 0.46282 0.08018 0.58609 0.0
H1718 H 0.48811 0.09386 0.49773 0.0
H1719 H 0.43303 0.07138 0.55282 0.0
H1720 H 0.40312 0.02332 0.48839 0.0
H1721 H 0.42808 0.0399 0.52254 0.0
H1722 H 0.45048 0.10238 0.47598 0.0
H1723 H 0.42631 0.08512 0.44136 0.0
C1724 C 0.49896 0.0971 0.53615 0.0
C1725 C 0.4926 0.09249 0.56129 0.0
C1726 C 0.48203 0.09147 0.51695 0.0
C1727 C 0.45824 0.08146 0.5225 0.0
C1728 C 0.4514 0.07841 0.54777 0.0
C1729 C 0.46843 0.08365 0.5669 0.0
C1730 C 0.41312 0.04074 0.48547 0.0
C1731 C 0.41279 0.05277 0.46205 0.0
C1732 C 0.42737 0.05039 0.50518 0.0
C1733 C 0.44141 0.07252 0.50209 0.0
C1734 C 0.44029 0.08508 0.47893 0.0
C1735 C 0.42626 0.07526 0.45911 0.0
H1736 H 0.01043 0.61555 0.5811 0.0
H1737 H 0.05345 0.54725 0.58744 0.0
H1738 H 0.97331 0.59361 0.59594 0.0
H1739 H 0.01605 0.52492 0.60109 0.0
H1740 H 0.94555 0.49069 0.63255 0.0
H1741 H 0.98314 0.51682 0.6304 0.0
H1742 H 0.94635 0.56489 0.5765 0.0
H1743 H 0.90895 0.53972 0.57932 0.0
C1744 C 0.01198 0.59586 0.58583 0.0
C1745 C 0.03475 0.58303 0.58271 0.0
C1746 C 0.99067 0.58322 0.59422 0.0
C1747 C 0.99148 0.55733 0.5992 0.0
C1748 C 0.01469 0.54487 0.59759 0.0
C1749 C 0.03615 0.55764 0.5896 0.0
C1750 C 0.94539 0.50712 0.62061 0.0
C1751 C 0.92421 0.51297 0.60603 0.0
C1752 C 0.967 0.522 0.61925 0.0
C1753 C 0.96787 0.54299 0.60325 0.0
C1754 C 0.94634 0.54922 0.58941 0.0
C1755 C 0.92483 0.53453 0.59086 0.0
H1756 H 0.98979 0.86786 0.57463 0.0
H1757 H 0.9445 0.93382 0.58697 0.0
H1758 H 0.0266 0.89028 0.58948 0.0
H1759 H 0.98154 0.95674 0.60061 0.0
H1760 H 0.08876 0.94717 0.57535 0.0
H1761 H 0.05209 0.92107 0.57157 0.0
H1762 H 0.01494 0.96433 0.62918 0.0
H1763 H 0.05172 0.99147 0.63228 0.0
C1764 C 0.98769 0.88714 0.58066 0.0
C1765 C 0.96434 0.89919 0.57927 0.0
C1766 C 0.00883 0.90007 0.58904 0.0
C1767 C 0.00723 0.92553 0.59574 0.0
C1768 C 0.98353 0.93713 0.59577 0.0
C1769 C 0.96226 0.92402 0.5878 0.0
C1770 C 0.07295 0.9511 0.58747 0.0
C1771 C 0.07322 0.97164 0.604 0.0
C1772 C 0.05186 0.93587 0.58546 0.0
C1773 C 0.03043 0.94047 0.60009 0.0
C1774 C 0.03098 0.96042 0.61737 0.0
C1775 C 0.05214 0.97588 0.61928 0.0
H1776 H 0.00287 0.39019 0.94734 0.0
H1777 H 0.04992 0.45006 0.91968 0.0
H1778 H 0.96585 0.41285 0.93325 0.0
H1779 H 0.01299 0.47326 0.9068 0.0
H1780 H 0.94294 0.50663 0.87462 0.0
H1781 H 0.97819 0.478 0.88008 0.0
H1782 H 0.94313 0.44782 0.94667 0.0
H1783 H 0.90767 0.47532 0.94057 0.0
C1784 C 0.00533 0.40817 0.93821 0.0
C1785 C 0.02935 0.41843 0.93492 0.0
C1786 C 0.98408 0.42126 0.93025 0.0
C1787 C 0.98631 0.44512 0.91918 0.0
C1788 C 0.01045 0.45486 0.91497 0.0
C1789 C 0.0317 0.4416 0.92257 0.0
C1790 C 0.94263 0.49361 0.89021 0.0
C1791 C 0.9225 0.49343 0.90722 0.0
C1792 C 0.96293 0.47729 0.89345 0.0
C1793 C 0.96367 0.46062 0.91391 0.0
C1794 C 0.94315 0.46001 0.93044 0.0
C1795 C 0.9228 0.47605 0.92705 0.0
H1796 H 0.05218 0.99975 0.87963 0.0
H1797 H 0.09255 0.04327 0.93481 0.0
H1798 H 0.01686 0.02868 0.88296 0.0
H1799 H 0.0572 0.07109 0.93902 0.0
H1800 H 0.99597 0.12626 0.9374 0.0
H1801 H 0.03199 0.10257 0.92242 0.0
H1802 H 0.98469 0.0376 0.91178 0.0
H1803 H 0.9486 0.0617 0.92542 0.0
C1804 C 0.05362 0.01553 0.89232 0.0
C1805 C 0.07517 0.01899 0.90708 0.0
C1806 C 0.0333 0.03203 0.89438 0.0
C1807 C 0.034 0.05221 0.9114 0.0
C1808 C 0.05598 0.05611 0.92539 0.0
C1809 C 0.0763 0.03988 0.92314 0.0
C1810 C 0.99324 0.10703 0.93148 0.0
C1811 C 0.96948 0.09578 0.93291 0.0
C1812 C 0.01392 0.09336 0.92302 0.0
C1813 C 0.01144 0.06796 0.91627 0.0
C1814 C 0.98739 0.05714 0.91654 0.0
C1815 C 0.96664 0.07095 0.92458 0.0
H1816 H 0.58878 0.05387 0.54962 0.0
H1817 H 0.57357 0.00987 0.61589 0.0
H1818 H 0.60224 0.01623 0.52764 0.0
H1819 H 0.58832 0.97243 0.59444 0.0
H1820 H 0.63322 0.94495 0.49464 0.0
H1821 H 0.63022 0.98218 0.52119 0.0
H1822 H 0.57088 0.94683 0.56362 0.0
H1823 H 0.57457 0.90973 0.53818 0.0
C1824 C 0.5889 0.03625 0.55969 0.0
C1825 C 0.57962 0.03474 0.58431 0.0
C1826 C 0.5968 0.01463 0.54713 0.0
C1827 C 0.59598 0.99112 0.55907 0.0
C1828 C 0.58851 0.99006 0.58437 0.0
C1829 C 0.58017 0.01155 0.59674 0.0
C1830 C 0.61986 0.94502 0.50994 0.0
C1831 C 0.60408 0.92433 0.51413 0.0
C1832 C 0.61802 0.96644 0.52506 0.0
C1833 C 0.60028 0.96763 0.54459 0.0
C1834 C 0.58513 0.94657 0.54916 0.0
C1835 C 0.58709 0.92523 0.53428 0.0
H1836 H 0.57546 0.08969 0.94814 0.0
H1837 H 0.63239 0.0527 0.99247 0.0
H1838 H 0.57202 0.05318 0.92178 0.0
H1839 H 0.62965 0.01609 0.96507 0.0
H1840 H 0.5753 0.9912 0.86832 0.0
H1841 H 0.5901 0.02794 0.89091 0.0
H1842 H 0.60131 0.98259 0.95718 0.0
H1843 H 0.58775 0.94565 0.93409 0.0
C1844 C 0.58766 0.07393 0.95203 0.0
C1845 C 0.60408 0.07416 0.97265 0.0
C1846 C 0.58584 0.05294 0.93664 0.0
C1847 C 0.60058 0.03157 0.94117 0.0
C1848 C 0.61777 0.03209 0.9612 0.0
C1849 C 0.61947 0.05315 0.97682 0.0
C1850 C 0.58136 0.98903 0.88759 0.0
C1851 C 0.58 0.96562 0.89955 0.0
C1852 C 0.58971 0.01012 0.90062 0.0
C1853 C 0.59639 0.00843 0.92609 0.0
C1854 C 0.59649 0.98467 0.93757 0.0
C1855 C 0.58856 0.96345 0.92437 0.0
H1856 H 0.4295 0.52009 0.8651 0.0
H1857 H 0.42154 0.56545 0.93163 0.0
H1858 H 0.41215 0.48427 0.8874 0.0
H1859 H 0.40569 0.52932 0.95452 0.0
H1860 H 0.37197 0.46139 0.99074 0.0
H1861 H 0.3759 0.49792 0.96335 0.0
H1862 H 0.42847 0.45711 0.91702 0.0
H1863 H 0.42362 0.42076 0.94324 0.0
C1864 C 0.42391 0.52239 0.8845 0.0
C1865 C 0.42721 0.54542 0.89675 0.0
C1866 C 0.41411 0.50183 0.89737 0.0
C1867 C 0.40804 0.50363 0.92301 0.0
C1868 C 0.40995 0.52716 0.93479 0.0
C1869 C 0.41921 0.5479 0.92171 0.0
C1870 C 0.38396 0.46014 0.97441 0.0
C1871 C 0.39759 0.43814 0.96937 0.0
C1872 C 0.38637 0.48115 0.95879 0.0
C1873 C 0.40259 0.48063 0.93793 0.0
C1874 C 0.41541 0.45826 0.93251 0.0
C1875 C 0.41281 0.43732 0.94785 0.0
H1876 H 0.94468 0.09 0.03711 0.0
H1877 H 0.87836 0.05482 0.00661 0.0
H1878 H 0.95033 0.05521 0.06546 0.0
H1879 H 0.88331 0.02027 0.03619 0.0
H1880 H 0.95108 0.99686 0.12422 0.0
H1881 H 0.9371 0.03348 0.10086 0.0
H1882 H 0.90922 0.9852 0.04203 0.0
H1883 H 0.9219 0.94871 0.06603 0.0
C1884 C 0.93096 0.07505 0.03674 0.0
C1885 C 0.91118 0.07516 0.01932 0.0
C1886 C 0.93409 0.05508 0.0533 0.0
C1887 C 0.91732 0.03476 0.05322 0.0
C1888 C 0.89688 0.03535 0.03651 0.0
C1889 C 0.89392 0.05526 0.01965 0.0
C1890 C 0.94165 0.99409 0.10645 0.0
C1891 C 0.9379 0.96987 0.09686 0.0
C1892 C 0.93376 0.01511 0.09294 0.0
C1893 C 0.92235 0.01243 0.06928 0.0
C1894 C 0.91766 0.98811 0.06025 0.0
C1895 C 0.92515 0.9671 0.07396 0.0
H1896 H 0.94671 0.19107 0.40042 0.0
H1897 H 0.01912 0.175 0.36778 0.0
H1898 H 0.95471 0.2358 0.39616 0.0
H1899 H 0.02688 0.21979 0.36304 0.0
H1900 H 0.04395 0.29996 0.39076 0.0
H1901 H 0.03564 0.25514 0.39001 0.0
H1902 H 0.95959 0.26958 0.36617 0.0
H1903 H 0.96775 0.31456 0.36742 0.0
C1904 C 0.96423 0.19707 0.39209 0.0
C1905 C 0.98236 0.17946 0.38463 0.0
C1906 C 0.96875 0.22274 0.3895 0.0
C1907 C 0.99148 0.23141 0.37932 0.0
C1908 C 0.00935 0.21376 0.3713 0.0
C1909 C 0.00484 0.18808 0.37393 0.0
C1910 C 0.02551 0.29361 0.38515 0.0
C1911 C 0.00646 0.31087 0.37933 0.0
C1912 C 0.02078 0.26786 0.38458 0.0
C1913 C 0.99691 0.25874 0.37813 0.0
C1914 C 0.97807 0.27599 0.3716 0.0
C1915 C 0.98279 0.30177 0.37218 0.0
H1916 H 0.96478 0.68384 0.14667 0.0
H1917 H 0.04113 0.69853 0.12387 0.0
H1918 H 0.9569 0.72882 0.14913 0.0
H1919 H 0.03308 0.74335 0.12573 0.0
H1920 H 0.94462 0.80847 0.11726 0.0
H1921 H 0.95211 0.76356 0.12054 0.0
H1922 H 0.02474 0.778 0.15333 0.0
H1923 H 0.01752 0.82294 0.14949 0.0
C1924 C 0.9799 0.69665 0.14226 0.0
C1925 C 0.00354 0.68758 0.13495 0.0
C1926 C 0.97534 0.72243 0.14354 0.0
C1927 C 0.99431 0.73973 0.13751 0.0
C1928 C 0.01813 0.73061 0.13082 0.0
C1929 C 0.0227 0.70486 0.12961 0.0
C1930 C 0.96212 0.80207 0.12534 0.0
C1931 C 0.98056 0.81929 0.1329 0.0
C1932 C 0.96636 0.77629 0.12736 0.0
C1933 C 0.98909 0.76713 0.1371 0.0
C1934 C 0.00721 0.7844 0.14535 0.0
C1935 C 0.00301 0.81018 0.14324 0.0
H1936 H 0.40115 0.94629 0.19237 0.0
H1937 H 0.36793 0.01848 0.17651 0.0
H1938 H 0.39685 0.95414 0.23713 0.0
H1939 H 0.36316 0.02609 0.22133 0.0
H1940 H 0.39042 0.04307 0.30168 0.0
H1941 H 0.38999 0.03493 0.2568 0.0
H1942 H 0.36671 0.95863 0.27083 0.0
H1943 H 0.36765 0.96662 0.31584 0.0
C1944 C 0.39269 0.96373 0.19842 0.0
C1945 C 0.38506 0.98184 0.18086 0.0
C1946 C 0.39008 0.96817 0.22411 0.0
C1947 C 0.37972 0.99078 0.23285 0.0
C1948 C 0.37156 0.00864 0.21525 0.0
C1949 C 0.3742 0.00422 0.18955 0.0
C1950 C 0.38501 0.0246 0.29522 0.0
C1951 C 0.37924 0.00544 0.31237 0.0
C1952 C 0.38463 0.01997 0.26945 0.0
C1953 C 0.37842 0.99609 0.26019 0.0
C1954 C 0.37196 0.97713 0.27734 0.0
C1955 C 0.37236 0.98175 0.30314 0.0
H1956 H 0.63312 0.48627 0.17475 0.0
H1957 H 0.60007 0.55746 0.19482 0.0
H1958 H 0.63705 0.47559 0.21896 0.0
H1959 H 0.60353 0.54652 0.23908 0.0
H1960 H 0.60935 0.45299 0.29751 0.0
H1961 H 0.60975 0.46443 0.25333 0.0
H1962 H 0.63318 0.53945 0.27285 0.0
H1963 H 0.63228 0.52816 0.31715 0.0
C1964 C 0.62668 0.49965 0.18859 0.0
C1965 C 0.61613 0.52266 0.18124 0.0
C1966 C 0.62884 0.49347 0.21395 0.0
C1967 C 0.62047 0.51012 0.23259 0.0
C1968 C 0.61042 0.53337 0.22523 0.0
C1969 C 0.6083 0.53959 0.19985 0.0
C1970 C 0.61478 0.47188 0.2924 0.0
C1971 C 0.62065 0.48969 0.31089 0.0
C1972 C 0.61512 0.47841 0.26703 0.0
C1973 C 0.62141 0.5029 0.25952 0.0
C1974 C 0.62787 0.52054 0.278 0.0
C1975 C 0.6275 0.51401 0.3034 0.0
H1976 H 0.30096 0.39115 0.0403 0.0
H1977 H 0.31519 0.3685 0.9638 0.0
H1978 H 0.25612 0.39073 0.03212 0.0
H1979 H 0.27018 0.36756 0.95579 0.0
H1980 H 0.19129 0.4013 0.94368 0.0
H1981 H 0.23615 0.39735 0.95132 0.0
H1982 H 0.22092 0.36367 0.02342 0.0
H1983 H 0.17607 0.36813 0.01604 0.0
C1984 C 0.29452 0.38578 0.02181 0.0
C1985 C 0.31169 0.38001 0.00266 0.0
C1986 C 0.26876 0.38541 0.01715 0.0
C1987 C 0.25952 0.37918 0.99327 0.0
C1988 C 0.27668 0.3728 0.97429 0.0
C1989 C 0.30248 0.3732 0.97893 0.0
C1990 C 0.1975 0.39293 0.96111 0.0
C1991 C 0.1801 0.38523 0.97933 0.0
C1992 C 0.22324 0.39051 0.96542 0.0
C1993 C 0.23215 0.38028 0.98803 0.0
C1994 C 0.2147 0.37201 0.00598 0.0
C1995 C 0.18898 0.37448 0.0017 0.0
H1996 H 0.17364 0.63355 0.48798 0.0
H1997 H 0.1954 0.60089 0.55888 0.0
H1998 H 0.21764 0.63808 0.47655 0.0
H1999 H 0.23938 0.60495 0.54721 0.0
H2000 H 0.31676 0.63418 0.52774 0.0
H2001 H 0.27262 0.63498 0.53958 0.0
H2002 H 0.25223 0.61118 0.4649 0.0
H2003 H 0.29626 0.61086 0.45291 0.0
C2004 C 0.18781 0.62734 0.50115 0.0
C2005 C 0.181 0.61672 0.52429 0.0
C2006 C 0.21304 0.62985 0.49453 0.0
C2007 C 0.23206 0.62177 0.51089 0.0
C2008 C 0.22524 0.61165 0.53428 0.0
C2009 C 0.2 0.60918 0.54092 0.0
C2010 C 0.30285 0.62931 0.51378 0.0
C2011 C 0.31006 0.62234 0.48941 0.0
C2012 C 0.27754 0.62963 0.52062 0.0
C2013 C 0.25887 0.623 0.50325 0.0
C2014 C 0.26608 0.61667 0.47868 0.0
C2015 C 0.29136 0.61636 0.47184 0.0
H2016 H 0.68105 0.84912 0.52776 0.0
H2017 H 0.70268 0.87062 0.45268 0.0
H2018 H 0.72512 0.84699 0.5398 0.0
H2019 H 0.74657 0.86909 0.46485 0.0
H2020 H 0.82448 0.84625 0.48794 0.0
H2021 H 0.78043 0.842 0.47677 0.0
H2022 H 0.75927 0.8756 0.54738 0.0
H2023 H 0.80334 0.87926 0.55883 0.0
C2024 C 0.69519 0.85329 0.51379 0.0
C2025 C 0.68832 0.86014 0.48928 0.0
C2026 C 0.72046 0.85222 0.52074 0.0
C2027 C 0.73943 0.858 0.50335 0.0
C2028 C 0.73252 0.8642 0.47867 0.0
C2029 C 0.70729 0.86521 0.47171 0.0
C2030 C 0.81043 0.85258 0.50117 0.0
C2031 C 0.81744 0.86327 0.5242 0.0
C2032 C 0.78515 0.85025 0.4947 0.0
C2033 C 0.76626 0.85863 0.51107 0.0
C2034 C 0.77328 0.86868 0.53443 0.0
C2035 C 0.79858 0.87092 0.54094 0.0
H2036 H 0.48722 0.82617 0.8483 0.0
H2037 H 0.55889 0.80479 0.87943 0.0
H2038 H 0.47575 0.78215 0.84445 0.0
H2039 H 0.54717 0.76076 0.87613 0.0
H2040 H 0.52663 0.68275 0.84965 0.0
H2041 H 0.53869 0.72678 0.84746 0.0
H2042 H 0.46454 0.74826 0.87201 0.0
H2043 H 0.45231 0.70436 0.87364 0.0
C2044 C 0.50055 0.81208 0.85429 0.0
C2045 C 0.52391 0.819 0.86433 0.0
C2046 C 0.49392 0.78683 0.85219 0.0
C2047 C 0.51044 0.76788 0.86015 0.0
C2048 C 0.53408 0.77482 0.86956 0.0
C2049 C 0.54076 0.80009 0.87158 0.0
C2050 C 0.51284 0.69688 0.85439 0.0
C2051 C 0.48854 0.69002 0.86194 0.0
C2052 C 0.51981 0.72213 0.85326 0.0
C2053 C 0.50265 0.74109 0.85969 0.0
C2054 C 0.47816 0.7342 0.86663 0.0
C2055 C 0.47117 0.70898 0.86769 0.0
H2056 H 0.52689 0.31788 0.63308 0.0
H2057 H 0.45238 0.29716 0.60896 0.0
H2058 H 0.53895 0.27379 0.63369 0.0
H2059 H 0.46459 0.25319 0.60912 0.0
H2060 H 0.48764 0.17481 0.63222 0.0
H2061 H 0.47609 0.21877 0.63638 0.0
H2062 H 0.54693 0.24047 0.60364 0.0
H2063 H 0.55873 0.19646 0.59992 0.0
C2064 C 0.51305 0.30393 0.62799 0.0
C2065 C 0.48869 0.31107 0.62088 0.0
C2066 C 0.52002 0.27866 0.62819 0.0
C2067 C 0.50279 0.25995 0.62133 0.0
C2068 C 0.47826 0.26708 0.61479 0.0
C2069 C 0.47129 0.29233 0.61459 0.0
C2070 C 0.50082 0.18895 0.62599 0.0
C2071 C 0.52405 0.18211 0.61559 0.0
C2072 C 0.49413 0.21416 0.62828 0.0
C2073 C 0.51051 0.23317 0.62021 0.0
C2074 C 0.53398 0.22633 0.6103 0.0
C2075 C 0.54069 0.20109 0.60803 0.0
H2076 H 0.8789 0.55755 0.80268 0.0
H2077 H 0.84722 0.48631 0.82468 0.0
H2078 H 0.87503 0.54572 0.75875 0.0
H2079 H 0.84278 0.47472 0.78072 0.0
H2080 H 0.87091 0.45095 0.70246 0.0
H2081 H 0.86963 0.4631 0.74641 0.0
H2082 H 0.84594 0.53761 0.72518 0.0
H2083 H 0.84781 0.52562 0.68111 0.0
C2084 C 0.87081 0.53949 0.79814 0.0
C2085 C 0.86357 0.5228 0.8172 0.0
C2086 C 0.86845 0.53275 0.77292 0.0
C2087 C 0.85868 0.5092 0.76616 0.0
C2088 C 0.85078 0.49282 0.78525 0.0
C2089 C 0.85322 0.49952 0.81046 0.0
C2090 C 0.86519 0.46986 0.70715 0.0
C2091 C 0.85964 0.48736 0.68825 0.0
C2092 C 0.86434 0.47681 0.7324 0.0
C2093 C 0.8578 0.50139 0.73937 0.0
C2094 C 0.85147 0.51865 0.72047 0.0
C2095 C 0.85239 0.51172 0.6952 0.0
H2096 H 0.14739 0.966 0.68608 0.0
H2097 H 0.12374 0.04205 0.70095 0.0
H2098 H 0.15013 0.95811 0.73105 0.0
H2099 H 0.12589 0.03399 0.74577 0.0
H2100 H 0.11825 0.94528 0.81059 0.0
H2101 H 0.12151 0.95294 0.76572 0.0
H2102 H 0.1536 0.02584 0.78044 0.0
H2103 H 0.14976 0.01842 0.82537 0.0
C2104 C 0.14286 0.98106 0.69892 0.0
C2105 C 0.1352 0.00461 0.68992 0.0
C2106 C 0.1443 0.97649 0.7247 0.0
C2107 C 0.13809 0.99536 0.74205 0.0
C2108 C 0.13111 0.01911 0.73298 0.0
C2109 C 0.12973 0.0237 0.70724 0.0
C2110 C 0.12617 0.96287 0.80427 0.0
C2111 C 0.13354 0.98132 0.82156 0.0
C2112 C 0.12819 0.96721 0.77851 0.0
C2113 C 0.13773 0.99006 0.76944 0.0
C2114 C 0.14578 0.0082 0.78678 0.0
C2115 C 0.14368 0.0039 0.81254 0.0
H2116 H 0.80953 0.11836 0.94691 0.0
H2117 H 0.82521 0.14924 0.02015 0.0
H2118 H 0.76481 0.12235 0.95478 0.0
H2119 H 0.78036 0.1538 0.02779 0.0
H2120 H 0.68573 0.14897 0.968 0.0
H2121 H 0.7307 0.15154 0.96019 0.0
H2122 H 0.74521 0.12653 0.03587 0.0
H2123 H 0.70037 0.12454 0.04386 0.0
C2124 C 0.80345 0.1263 0.96458 0.0
C2125 C 0.82095 0.13328 0.98299 0.0
C2126 C 0.77776 0.12875 0.96903 0.0
C2127 C 0.76895 0.13833 0.99196 0.0
C2128 C 0.7865 0.14599 0.01009 0.0
C2129 C 0.81221 0.14348 0.00566 0.0
C2130 C 0.69852 0.14424 0.98304 0.0
C2131 C 0.68945 0.13637 0.00649 0.0
C2132 C 0.72431 0.1456 0.97852 0.0
C2133 C 0.74159 0.13907 0.99734 0.0
C2134 C 0.73247 0.13197 0.02103 0.0
C2135 C 0.70671 0.13068 0.02557 0.0
H2136 H 0.98166 0.95557 0.22047 0.0
H2137 H 0.90591 0.96931 0.19504 0.0
H2138 H 0.97523 0.98413 0.25522 0.0
H2139 H 0.89949 0.99804 0.23054 0.0
H2140 H 0.97043 0.05988 0.28915 0.0
H2141 H 0.96792 0.03302 0.25243 0.0
H2142 H 0.90176 0.99751 0.28246 0.0
H2143 H 0.90422 0.02453 0.31968 0.0
C2144 C 0.9635 0.96446 0.22241 0.0
C2145 C 0.94442 0.96044 0.2047 0.0
C2146 C 0.95989 0.9809 0.24231 0.0
C2147 C 0.93706 0.99362 0.24518 0.0
C2148 C 0.91731 0.98852 0.22854 0.0
C2149 C 0.921 0.97208 0.20832 0.0
C2150 C 0.95499 0.04676 0.28776 0.0
C2151 C 0.93777 0.04402 0.30751 0.0
C2152 C 0.95361 0.03136 0.26676 0.0
C2153 C 0.93495 0.01293 0.26495 0.0
C2154 C 0.91635 0.01158 0.28354 0.0
C2155 C 0.91775 0.02706 0.30475 0.0
H2156 H 0.00822 0.44096 0.28735 0.0
H2157 H 0.07866 0.47026 0.31457 0.0
H2158 H 0.00954 0.47008 0.25237 0.0
H2159 H 0.07984 0.49974 0.27928 0.0
H2160 H 0.07632 0.53438 0.19675 0.0
H2161 H 0.08114 0.50402 0.231 0.0
H2162 H 0.00422 0.51664 0.25278 0.0
H2163 H 0.99933 0.54662 0.21894 0.0
C2164 C 0.02421 0.45337 0.28567 0.0
C2165 C 0.04317 0.45352 0.30395 0.0
C2166 C 0.02487 0.47018 0.2657 0.0
C2167 C 0.04449 0.48757 0.26345 0.0
C2168 C 0.06444 0.48658 0.28064 0.0
C2169 C 0.06377 0.46968 0.30078 0.0
C2170 C 0.06058 0.53092 0.20911 0.0
C2171 C 0.03734 0.54269 0.2049 0.0
C2172 C 0.06335 0.51353 0.22866 0.0
C2173 C 0.04289 0.50758 0.24417 0.0
C2174 C 0.02014 0.52037 0.24072 0.0
C2175 C 0.0174 0.53769 0.22139 0.0
H2176 H 0.19567 0.90474 0.97091 0.0
H2177 H 0.22182 0.98013 0.95659 0.0
H2178 H 0.23122 0.89812 0.99954 0.0
H2179 H 0.25661 0.97352 0.98508 0.0
H2180 H 0.3209 0.90339 0.02589 0.0
H2181 H 0.28384 0.9006 0.99868 0.0
H2182 H 0.25276 0.9661 0.03449 0.0
H2183 H 0.28931 0.96892 0.06156 0.0
C2184 C 0.20914 0.91969 0.97351 0.0
C2185 C 0.20569 0.94309 0.96178 0.0
C2186 C 0.22939 0.91589 0.98989 0.0
C2187 C 0.24621 0.93551 0.99481 0.0
C2188 C 0.24356 0.95828 0.98194 0.0
C2189 C 0.22363 0.962 0.96556 0.0
C2190 C 0.30577 0.91668 0.02846 0.0
C2191 C 0.30818 0.93663 0.04555 0.0
C2192 C 0.28465 0.91509 0.01287 0.0
C2193 C 0.26583 0.93344 0.01426 0.0
C2194 C 0.26728 0.95198 0.03284 0.0
C2195 C 0.28818 0.95354 0.04835 0.0
H2196 H 0.71049 0.53489 0.05371 0.0
H2197 H 0.67856 0.6053 0.02934 0.0
H2198 H 0.74449 0.53993 0.02385 0.0
H2199 H 0.7132 0.61037 0.99934 0.0
H2200 H 0.80074 0.60779 0.96787 0.0
H2201 H 0.76565 0.6117 0.9975 0.0
H2202 H 0.73814 0.53933 0.97424 0.0
H2203 H 0.77262 0.5354 0.94474 0.0
C2204 C 0.71096 0.5517 0.04231 0.0
C2205 C 0.69158 0.5695 0.04362 0.0
C2206 C 0.73041 0.55452 0.02517 0.0
C2207 C 0.73108 0.57526 0.00902 0.0
C2208 C 0.71293 0.59415 0.01157 0.0
C2209 C 0.69321 0.59126 0.02876 0.0
C2210 C 0.78679 0.59306 0.96861 0.0
C2211 C 0.78966 0.5711 0.95426 0.0
C2212 C 0.76681 0.5953 0.9856 0.0
C2213 C 0.74963 0.57557 0.98843 0.0
C2214 C 0.75146 0.55459 0.97269 0.0
C2215 C 0.77118 0.5524 0.95576 0.0
H2216 H 0.28949 0.00332 0.44792 0.0
H2217 H 0.31552 0.07695 0.46947 0.0
H2218 H 0.25548 0.00646 0.47798 0.0
H2219 H 0.28111 0.08 0.49989 0.0
H2220 H 0.19793 0.07743 0.53445 0.0
H2221 H 0.2326 0.08044 0.50434 0.0
H2222 H 0.25675 0.00602 0.52501 0.0
H2223 H 0.22246 0.00291 0.55477 0.0
C2224 C 0.2878 0.02034 0.45887 0.0
C2225 C 0.30545 0.03975 0.45652 0.0
C2226 C 0.26837 0.02205 0.47622 0.0
C2227 C 0.26601 0.04323 0.49167 0.0
C2228 C 0.2826 0.06341 0.48828 0.0
C2229 C 0.30223 0.06167 0.47085 0.0
C2230 C 0.21096 0.06194 0.53289 0.0
C2231 C 0.20723 0.0398 0.54674 0.0
C2232 C 0.23074 0.06366 0.51564 0.0
C2233 C 0.24698 0.04323 0.51195 0.0
C2234 C 0.24414 0.02182 0.527 0.0
C2235 C 0.22455 0.02012 0.54417 0.0
H2236 H 0.81691 0.46718 0.5128 0.0
H2237 H 0.77222 0.42142 0.56223 0.0
H2238 H 0.78586 0.46254 0.47985 0.0
H2239 H 0.73993 0.41785 0.52955 0.0
H2240 H 0.71155 0.48443 0.44524 0.0
H2241 H 0.74652 0.48048 0.47359 0.0
H2242 H 0.72607 0.40353 0.48874 0.0
H2243 H 0.68991 0.40793 0.46076 0.0
C2244 C 0.80029 0.45609 0.51653 0.0
C2245 C 0.79663 0.44498 0.54006 0.0
C2246 C 0.78242 0.45352 0.49771 0.0
C2247 C 0.76004 0.44034 0.50217 0.0
C2248 C 0.75697 0.42806 0.5254 0.0
C2249 C 0.7753 0.4302 0.54418 0.0
C2250 C 0.71456 0.46652 0.45432 0.0
C2251 C 0.69779 0.44654 0.45079 0.0
C2252 C 0.73486 0.46416 0.47053 0.0
C2253 C 0.73927 0.44163 0.48351 0.0
C2254 C 0.72308 0.42124 0.47927 0.0
C2255 C 0.70252 0.42366 0.46303 0.0
H2256 H 0.02582 0.32236 0.90376 0.0
H2257 H 0.05356 0.29163 0.97346 0.0
H2258 H 0.99765 0.28613 0.8993 0.0
H2259 H 0.02551 0.25607 0.96901 0.0
H2260 H 0.94783 0.22424 0.97529 0.0
H2261 H 0.97531 0.26021 0.97055 0.0
H2262 H 0.9992 0.23311 0.8982 0.0
H2263 H 0.9716 0.19649 0.90293 0.0
C2264 C 0.02635 0.30768 0.91777 0.0
C2265 C 0.04161 0.31005 0.93917 0.0
C2266 C 0.01023 0.28704 0.91521 0.0
C2267 C 0.00917 0.26871 0.93408 0.0
C2268 C 0.02571 0.27024 0.95445 0.0
C2269 C 0.0418 0.2906 0.95693 0.0
C2270 C 0.95856 0.22603 0.95813 0.0
C2271 C 0.95786 0.20727 0.93967 0.0
C2272 C 0.97432 0.24663 0.95548 0.0
C2273 C 0.98964 0.24908 0.93424 0.0
C2274 C 0.98757 0.23149 0.91477 0.0
C2275 C 0.97178 0.21063 0.91749 0.0
H2276 H 0.02707 0.6798 0.60999 0.0
H2277 H 0.0589 0.71147 0.54251 0.0
H2278 H 0.99782 0.71528 0.61261 0.0
H2279 H 0.02979 0.74642 0.54515 0.0
H2280 H 0.95101 0.77487 0.53308 0.0
H2281 H 0.98091 0.74112 0.53919 0.0
H2282 H 0.99558 0.76703 0.61438 0.0
H2283 H 0.96554 0.80146 0.60827 0.0
C2284 C 0.02834 0.69463 0.59618 0.0
C2285 C 0.04501 0.69265 0.57581 0.0
C2286 C 0.01156 0.71484 0.59766 0.0
C2287 C 0.01128 0.73317 0.57877 0.0
C2288 C 0.02935 0.73223 0.55968 0.0
C2289 C 0.04607 0.71225 0.55825 0.0
C2290 C 0.96029 0.77333 0.55108 0.0
C2291 C 0.95616 0.79112 0.57006 0.0
C2292 C 0.9775 0.75403 0.55451 0.0
C2293 C 0.99088 0.75188 0.57704 0.0
C2294 C 0.98556 0.76847 0.59678 0.0
C2295 C 0.96834 0.78806 0.59328 0.0
H2296 H 0.51311 0.81764 0.4652 0.0
H2297 H 0.56302 0.77186 0.42108 0.0
H2298 H 0.48 0.78677 0.46044 0.0
H2299 H 0.53012 0.7398 0.41734 0.0
H2300 H 0.44444 0.71291 0.48269 0.0
H2301 H 0.47316 0.74762 0.47884 0.0
H2302 H 0.48935 0.72626 0.40235 0.0
H2303 H 0.46095 0.69042 0.40663 0.0
C2304 C 0.5169 0.80084 0.45442 0.0
C2305 C 0.5406 0.79682 0.44381 0.0
C2306 C 0.49799 0.78306 0.45179 0.0
C2307 C 0.5025 0.76046 0.43902 0.0
C2308 C 0.52594 0.75702 0.42723 0.0
C2309 C 0.54483 0.77522 0.42945 0.0
C2310 C 0.45382 0.71568 0.46489 0.0
C2311 C 0.45044 0.69875 0.44501 0.0
C2312 C 0.47025 0.73581 0.46259 0.0
C2313 C 0.48364 0.73988 0.44023 0.0
C2314 C 0.47956 0.72353 0.41992 0.0
C2315 C 0.46308 0.70316 0.42228 0.0
H2316 H 0.48042 0.5542 0.77403 0.0
H2317 H 0.40539 0.53696 0.79934 0.0
H2318 H 0.47687 0.52244 0.74163 0.0
H2319 H 0.4019 0.50492 0.76652 0.0
H2320 H 0.40584 0.46601 0.68495 0.0
H2321 H 0.40283 0.49793 0.71793 0.0
H2322 H 0.47515 0.47525 0.74623 0.0
H2323 H 0.47823 0.4436 0.71365 0.0
C2324 C 0.463 0.54389 0.77247 0.0
C2325 C 0.44331 0.5479 0.78951 0.0
C2326 C 0.46104 0.52556 0.75399 0.0
C2327 C 0.43934 0.51082 0.75197 0.0
C2328 C 0.4189 0.51594 0.76779 0.0
C2329 C 0.42089 0.53433 0.78649 0.0
C2330 C 0.4208 0.46746 0.69859 0.0
C2331 C 0.44243 0.45249 0.69647 0.0
C2332 C 0.41909 0.48578 0.71739 0.0
C2333 C 0.43903 0.48943 0.73421 0.0
C2334 C 0.45977 0.47326 0.73311 0.0
C2335 C 0.46144 0.45501 0.71452 0.0
H2336 H 0.53276 0.95062 0.77486 0.0
H2337 H 0.60763 0.96736 0.80099 0.0
H2338 H 0.53812 0.98001 0.74053 0.0
H2339 H 0.61297 0.9969 0.766 0.0
H2340 H 0.60743 0.0279 0.67862 0.0
H2341 H 0.61081 0.99856 0.714 0.0
H2342 H 0.54296 0.02915 0.74566 0.0
H2343 H 0.53958 0.05835 0.71086 0.0
C2344 C 0.55054 0.96026 0.77307 0.0
C2345 C 0.56962 0.95694 0.79093 0.0
C2346 C 0.55355 0.97716 0.75343 0.0
C2347 C 0.57574 0.99104 0.75101 0.0
C2348 C 0.59563 0.98646 0.76763 0.0
C2349 C 0.59257 0.96954 0.78756 0.0
C2350 C 0.59367 0.02882 0.69352 0.0
C2351 C 0.57302 0.04516 0.69176 0.0
C2352 C 0.59559 0.012 0.71367 0.0
C2353 C 0.57684 0.01133 0.73215 0.0
C2354 C 0.55739 0.02901 0.73135 0.0
C2355 C 0.55553 0.04577 0.71145 0.0
H2356 H 0.4666 0.31534 0.07603 0.0
H2357 H 0.44731 0.28932 0.00176 0.0
H2358 H 0.49711 0.28111 0.07989 0.0
H2359 H 0.47747 0.2555 0.0057 0.0
H2360 H 0.5546 0.22317 0.00422 0.0
H2361 H 0.52457 0.25728 0.00666 0.0
H2362 H 0.50179 0.23249 0.08026 0.0
H2363 H 0.53216 0.198 0.07793 0.0
C2364 C 0.46848 0.30209 0.06077 0.0
C2365 C 0.45478 0.30527 0.03845 0.0
C2366 C 0.48597 0.28256 0.06298 0.0
C2367 C 0.49004 0.26604 0.04286 0.0
C2368 C 0.47518 0.26834 0.02126 0.0
C2369 C 0.45778 0.28767 0.01908 0.0
C2370 C 0.54348 0.22509 0.02112 0.0
C2371 C 0.54553 0.20763 0.04074 0.0
C2372 C 0.52616 0.24457 0.02243 0.0
C2373 C 0.51045 0.24716 0.0434 0.0
C2374 C 0.51361 0.23082 0.06383 0.0
C2375 C 0.53101 0.21114 0.0625 0.0
loop_
_geom_bond_atom_site_label_1
_geom_bond_atom_site_label_2
_geom_bond_distance
_geom_bond_site_symmetry_2
_ccdc_geom_bond_type
Co0 O2 2.162 . S
Co0 O8 2.074 . S
Co0 O11 2.093 . S
Co0 O24 2.097 1_455 S
Co0 N41 2.151 . S
Co0 N49 2.214 . S
Co1 O2 2.141 1_655 S
Co1 O7 2.058 1_655 S
Co1 O17 2.057 . S
Co1 O32 2.037 . S
Co1 N36 2.145 . S
Co1 N57 2.257 . S
O2 Co0 2.162 . S
O2 Co1 2.141 1_455 S
C3 O4 1.278 . S
C3 O11 1.224 1_655 S
O4 C3 1.278 . S
C5 O6 1.237 1_655 S
C5 O17 1.238 . S
O6 C5 1.237 1_455 S
O7 Co1 2.058 1_455 S
O7 C33 1.269 . S
O8 Co0 2.074 . S
O8 C33 1.257 . S
H9 C34 0.930 . S
H10 C40 0.930 . S
O11 Co0 2.093 . S
O11 C3 1.224 1_455 S
H12 C44 0.929 . S
H13 C46 0.930 . S
H14 C47 0.932 1_545 S
H15 C45 0.929 . S
H16 C48 0.937 . S
O17 Co1 2.057 . S
O17 C5 1.238 . S
H18 C37 0.929 . S
H19 C38 0.929 . S
H20 C50 0.931 . S
H21 C42 0.929 . S
H22 C51 0.930 . S
H23 C43 0.931 . S
O24 Co0 2.097 1_655 S
O24 C52 1.214 . S
H25 C53 0.929 . S
H26 C54 0.929 . S
H27 C55 0.930 . S
H28 C56 0.929 . S
H29 C58 0.930 . S
H30 C35 0.930 . S
H31 C39 0.930 . S
O32 Co1 2.037 . S
O32 C52 1.234 . S
C33 O7 1.269 . S
C33 O8 1.257 . S
C34 H9 0.930 . S
C34 C37 1.388 . S
C34 C39 1.418 . S
C35 H30 0.930 . S
C35 C38 1.404 . S
C35 C39 1.353 . S
N36 Co1 2.145 . S
N36 C37 1.397 . S
N36 C38 1.334 . S
C37 H18 0.929 . S
C37 C34 1.388 . S
C37 N36 1.397 . S
C38 H19 0.929 . S
C38 C35 1.404 . S
C38 N36 1.334 . S
C39 H31 0.930 . S
C39 C34 1.418 . S
C39 C35 1.353 . S
C40 H10 0.930 . S
C40 N41 1.330 . S
C40 C42 1.446 . S
N41 Co0 2.151 . S
N41 C40 1.330 . S
N41 C45 1.418 . S
C42 H21 0.929 . S
C42 C40 1.446 . S
C42 C43 1.332 . S
C43 H23 0.931 . S
C43 C42 1.332 . S
C43 C44 1.267 . S
C44 H12 0.929 . S
C44 C43 1.267 . S
C44 C45 1.251 . S
C45 H15 0.929 . S
C45 N41 1.418 . S
C45 C44 1.251 . S
C46 H13 0.930 . S
C46 C48 1.388 1_565 S
C46 C51 1.261 . S
C47 H14 0.932 1_565 S
C47 N49 1.327 1_565 S
C47 C50 1.353 . S
C48 H16 0.937 . S
C48 C46 1.388 1_545 S
C48 N49 1.271 . S
N49 Co0 2.214 . S
N49 C47 1.327 1_545 S
N49 C48 1.271 . S
C50 H20 0.931 . S
C50 C47 1.353 . S
C50 C51 1.312 . S
C51 H22 0.930 . S
C51 C46 1.261 . S
C51 C50 1.312 . S
C52 O24 1.214 . S
C52 O32 1.234 . S
C53 H25 0.929 . S
C53 C56 1.391 . S
C53 C58 1.391 . S
C54 H26 0.929 . S
C54 C55 1.390 . S
C54 N57 1.391 . S
C55 H27 0.930 . S
C55 C54 1.390 . S
C55 C56 1.392 . S
C56 H28 0.929 . S
C56 C53 1.391 . S
C56 C55 1.392 . S
N57 Co1 2.257 . S
N57 C54 1.391 . S
N57 C58 1.388 . S
C58 H29 0.930 . S
C58 C53 1.391 . S
C58 N57 1.388 . S
Co59 O61 2.162 . S
Co59 O67 2.074 . S
Co59 O70 2.093 . S
Co59 O83 2.097 1_655 S
Co59 N100 2.151 . S
Co59 N108 2.214 . S
Co60 O61 2.141 1_455 S
Co60 O66 2.058 1_455 S
Co60 O76 2.057 . S
Co60 O91 2.037 . S
Co60 N95 2.145 . S
Co60 N116 2.257 . S
O61 Co59 2.162 . S
O61 Co60 2.141 1_655 S
C62 O63 1.278 . S
C62 O70 1.224 1_455 S
O63 C62 1.278 . S
C64 O65 1.245 1_455 S
C64 O76 1.232 . S
O65 C64 1.245 1_655 S
O66 Co60 2.058 1_655 S
O66 C92 1.269 . S
O67 Co59 2.074 . S
O67 C92 1.257 . S
H68 C93 0.930 . S
H69 C99 0.930 . S
O70 Co59 2.093 . S
O70 C62 1.224 1_655 S
H71 C103 0.929 . S
H72 C105 0.930 . S
H73 C106 0.930 . S
H74 C104 0.929 . S
H75 C107 0.928 . S
O76 Co60 2.057 . S
O76 C64 1.232 . S
H77 C96 0.929 . S
H78 C97 0.929 . S
H79 C109 0.931 . S
H80 C101 0.929 . S
H81 C110 0.930 . S
H82 C102 0.931 . S
O83 Co59 2.097 1_455 S
O83 C111 1.214 . S
H84 C112 0.929 . S
H85 C113 0.929 . S
H86 C114 0.930 . S
H87 C115 0.929 . S
H88 C117 0.930 . S
H89 C94 0.930 . S
H90 C98 0.930 . S
O91 Co60 2.037 . S
O91 C111 1.234 . S
C92 O66 1.269 . S
C92 O67 1.257 . S
C93 H68 0.930 . S
C93 C96 1.388 . S
C93 C98 1.418 . S
C94 H89 0.930 . S
C94 C97 1.404 . S
C94 C98 1.353 . S
N95 Co60 2.145 . S
N95 C96 1.397 . S
N95 C97 1.334 . S
C96 H77 0.929 . S
C96 C93 1.388 . S
C96 N95 1.397 . S
C97 H78 0.929 . S
C97 C94 1.404 . S
C97 N95 1.334 . S
C98 H90 0.930 . S
C98 C93 1.418 . S
C98 C94 1.353 . S
C99 H69 0.930 . S
C99 N100 1.330 . S
C99 C101 1.446 . S
N100 Co59 2.151 . S
N100 C99 1.330 . S
N100 C104 1.418 . S
C101 H80 0.929 . S
C101 C99 1.446 . S
C101 C102 1.332 . S
C102 H82 0.931 . S
C102 C101 1.332 . S
C102 C103 1.267 . S
C103 H71 0.929 . S
C103 C102 1.267 . S
C103 C104 1.251 . S
C104 H74 0.929 . S
C104 N100 1.418 . S
C104 C103 1.251 . S
C105 H72 0.930 . S
C105 C107 1.406 . S
C105 C110 1.261 . S
C106 H73 0.930 . S
C106 N108 1.325 . S
C106 C109 1.357 . S
C107 H75 0.928 . S
C107 C105 1.406 . S
C107 N108 1.261 . S
N108 Co59 2.214 . S
N108 C106 1.325 . S
N108 C107 1.261 . S
C109 H79 0.931 . S
C109 C106 1.357 . S
C109 C110 1.312 . S
C110 H81 0.930 . S
C110 C105 1.261 . S
C110 C109 1.312 . S
C111 O83 1.214 . S
C111 O91 1.234 . S
C112 H84 0.929 . S
C112 C115 1.391 . S
C112 C117 1.391 . S
C113 H85 0.929 . S
C113 C114 1.390 . S
C113 N116 1.391 . S
C114 H86 0.930 . S
C114 C113 1.390 . S
C114 C115 1.392 . S
C115 H87 0.929 . S
C115 C112 1.391 . S
C115 C114 1.392 . S
N116 Co60 2.257 . S
N116 C113 1.391 . S
N116 C117 1.388 . S
C117 H88 0.930 . S
C117 C112 1.391 . S
C117 N116 1.388 . S
Co118 O120 2.143 . S
Co118 O126 2.074 . S
Co118 O129 2.093 . S
Co118 O142 2.097 1_455 S
Co118 N159 2.151 . S
Co118 N167 2.214 . S
Co119 O120 2.160 1_655 S
Co119 O125 2.058 1_655 S
Co119 O135 2.057 . S
Co119 O150 2.037 . S
Co119 N154 2.145 . S
Co119 N175 2.257 . S
O120 Co118 2.143 . S
O120 Co119 2.160 1_455 S
C121 O122 1.278 . S
C121 O129 1.224 1_655 S
O122 C121 1.278 . S
C123 O124 1.245 1_655 S
C123 O135 1.232 . S
O124 C123 1.245 1_455 S
O125 Co119 2.058 1_455 S
O125 C151 1.269 . S
O126 Co118 2.074 . S
O126 C151 1.257 . S
H127 C152 0.930 . S
H128 C158 0.930 . S
O129 Co118 2.093 . S
O129 C121 1.224 1_455 S
H130 C162 0.929 . S
H131 C164 0.930 . S
H132 C165 0.930 . S
H133 C163 0.929 . S
H134 C166 0.928 . S
O135 Co119 2.057 . S
O135 C123 1.232 . S
H136 C155 0.929 . S
H137 C156 0.929 . S
H138 C168 0.931 . S
H139 C160 0.929 . S
H140 C169 0.930 . S
H141 C161 0.931 . S
O142 Co118 2.097 1_655 S
O142 C170 1.214 . S
H143 C171 0.929 . S
H144 C172 0.929 . S
H145 C173 0.930 . S
H146 C174 0.929 . S
H147 C176 0.930 . S
H148 C153 0.930 . S
H149 C157 0.930 . S
O150 Co119 2.037 . S
O150 C170 1.234 . S
C151 O125 1.269 . S
C151 O126 1.257 . S
C152 H127 0.930 . S
C152 C155 1.388 . S
C152 C157 1.418 . S
C153 H148 0.930 . S
C153 C156 1.404 . S
C153 C157 1.353 . S
N154 Co119 2.145 . S
N154 C155 1.397 . S
N154 C156 1.334 . S
C155 H136 0.929 . S
C155 C152 1.388 . S
C155 N154 1.397 . S
C156 H137 0.929 . S
C156 C153 1.404 . S
C156 N154 1.334 . S
C157 H149 0.930 . S
C157 C152 1.418 . S
C157 C153 1.353 . S
C158 H128 0.930 . S
C158 N159 1.330 . S
C158 C160 1.446 . S
N159 Co118 2.151 . S
N159 C158 1.330 . S
N159 C163 1.418 . S
C160 H139 0.929 . S
C160 C158 1.446 . S
C160 C161 1.332 . S
C161 H141 0.931 . S
C161 C160 1.332 . S
C161 C162 1.267 . S
C162 H130 0.929 . S
C162 C161 1.267 . S
C162 C163 1.251 . S
C163 H133 0.929 . S
C163 N159 1.418 . S
C163 C162 1.251 . S
C164 H131 0.930 . S
C164 C166 1.406 1_545 S
C164 C169 1.261 . S
C165 H132 0.930 . S
C165 N167 1.325 . S
C165 C168 1.357 1_565 S
C166 H134 0.928 . S
C166 C164 1.406 1_565 S
C166 N167 1.261 . S
N167 Co118 2.214 . S
N167 C165 1.325 . S
N167 C166 1.261 . S
C168 H138 0.931 . S
C168 C165 1.357 1_545 S
C168 C169 1.312 . S
C169 H140 0.930 . S
C169 C164 1.261 . S
C169 C168 1.312 . S
C170 O142 1.214 . S
C170 O150 1.234 . S
C171 H143 0.929 . S
C171 C174 1.391 . S
C171 C176 1.391 . S
C172 H144 0.929 . S
C172 C173 1.390 . S
C172 N175 1.391 . S
C173 H145 0.930 . S
C173 C172 1.390 . S
C173 C174 1.392 . S
C174 H146 0.929 . S
C174 C171 1.391 . S
C174 C173 1.392 . S
N175 Co119 2.257 . S
N175 C172 1.391 . S
N175 C176 1.388 . S
C176 H147 0.930 . S
C176 C171 1.391 . S
C176 N175 1.388 . S
Co177 O179 2.143 . S
Co177 O185 2.074 . S
Co177 O188 2.093 . S
Co177 O201 2.097 1_655 S
Co177 N218 2.151 . S
Co177 N226 2.214 . S
Co178 O179 2.160 1_455 S
Co178 O184 2.058 1_455 S
Co178 O194 2.057 . S
Co178 O209 2.037 . S
Co178 N213 2.145 . S
Co178 N234 2.257 . S
O179 Co177 2.143 . S
O179 Co178 2.160 1_655 S
C180 O181 1.278 . S
C180 O188 1.224 1_455 S
O181 C180 1.278 . S
C182 O183 1.245 1_455 S
C182 O194 1.232 . S
O183 C182 1.245 1_655 S
O184 Co178 2.058 1_655 S
O184 C210 1.269 . S
O185 Co177 2.074 . S
O185 C210 1.257 . S
H186 C211 0.930 . S
H187 C217 0.930 . S
O188 Co177 2.093 . S
O188 C180 1.224 1_655 S
H189 C221 0.929 . S
H190 C223 0.930 . S
H191 C224 0.930 . S
H192 C222 0.929 . S
H193 C225 0.928 . S
O194 Co178 2.057 . S
O194 C182 1.232 . S
H195 C214 0.929 . S
H196 C215 0.929 . S
H197 C227 0.931 . S
H198 C219 0.929 . S
H199 C228 0.930 . S
H200 C220 0.931 . S
O201 Co177 2.097 1_455 S
O201 C229 1.214 . S
H202 C230 0.929 . S
H203 C231 0.929 . S
H204 C232 0.930 . S
H205 C233 0.929 . S
H206 C235 0.930 . S
H207 C212 0.930 . S
H208 C216 0.930 . S
O209 Co178 2.037 . S
O209 C229 1.234 . S
C210 O184 1.269 . S
C210 O185 1.257 . S
C211 H186 0.930 . S
C211 C214 1.388 . S
C211 C216 1.418 . S
C212 H207 0.930 . S
C212 C215 1.404 . S
C212 C216 1.353 . S
N213 Co178 2.145 . S
N213 C214 1.397 . S
N213 C215 1.334 . S
C214 H195 0.929 . S
C214 C211 1.388 . S
C214 N213 1.397 . S
C215 H196 0.929 . S
C215 C212 1.404 . S
C215 N213 1.334 . S
C216 H208 0.930 . S
C216 C211 1.418 . S
C216 C212 1.353 . S
C217 H187 0.930 . S
C217 N218 1.330 . S
C217 C219 1.446 . S
N218 Co177 2.151 . S
N218 C217 1.330 . S
N218 C222 1.418 . S
C219 H198 0.929 . S
C219 C217 1.446 . S
C219 C220 1.332 . S
C220 H200 0.931 . S
C220 C219 1.332 . S
C220 C221 1.267 . S
C221 H189 0.929 . S
C221 C220 1.267 . S
C221 C222 1.251 . S
C222 H192 0.929 . S
C222 N218 1.418 . S
C222 C221 1.251 . S
C223 H190 0.930 . S
C223 C225 1.406 . S
C223 C228 1.261 . S
C224 H191 0.930 . S
C224 N226 1.325 . S
C224 C227 1.357 . S
C225 H193 0.928 . S
C225 C223 1.406 . S
C225 N226 1.261 . S
N226 Co177 2.214 . S
N226 C224 1.325 . S
N226 C225 1.261 . S
C227 H197 0.931 . S
C227 C224 1.357 . S
C227 C228 1.312 . S
C228 H199 0.930 . S
C228 C223 1.261 . S
C228 C227 1.312 . S
C229 O201 1.214 . S
C229 O209 1.234 . S
C230 H202 0.929 . S
C230 C233 1.391 . S
C230 C235 1.391 . S
C231 H203 0.929 . S
C231 C232 1.390 . S
C231 N234 1.391 . S
C232 H204 0.930 . S
C232 C231 1.390 . S
C232 C233 1.392 . S
C233 H205 0.929 . S
C233 C230 1.391 . S
C233 C232 1.392 . S
N234 Co178 2.257 . S
N234 C231 1.391 . S
N234 C235 1.388 . S
C235 H206 0.930 . S
C235 C230 1.391 . S
C235 N234 1.388 . S
Co236 O238 2.162 . S
Co236 O244 2.074 . S
Co236 O247 2.093 . S
Co236 O260 2.097 1_545 S
Co236 N277 2.151 . S
Co236 N285 2.214 . S
Co237 O238 2.141 1_565 S
Co237 O243 2.058 1_565 S
Co237 O253 2.057 . S
Co237 O268 2.037 . S
Co237 N272 2.145 . S
Co237 N293 2.257 . S
O238 Co236 2.162 . S
O238 Co237 2.141 1_545 S
C239 O240 1.278 . S
C239 O247 1.224 1_565 S
O240 C239 1.278 . S
C241 O242 1.237 1_565 S
C241 O253 1.238 . S
O242 C241 1.237 1_545 S
O243 Co237 2.058 1_545 S
O243 C269 1.269 . S
O244 Co236 2.074 . S
O244 C269 1.257 . S
H245 C270 0.930 . S
H246 C276 0.930 . S
O247 Co236 2.093 . S
O247 C239 1.224 1_545 S
H248 C280 0.929 . S
H249 C282 0.930 . S
H250 C283 0.932 1_554 S
H251 C281 0.929 . S
H252 C284 0.937 . S
O253 Co237 2.057 . S
O253 C241 1.238 . S
H254 C273 0.929 . S
H255 C274 0.929 . S
H256 C286 0.931 . S
H257 C278 0.929 . S
H258 C287 0.930 . S
H259 C279 0.931 . S
O260 Co236 2.097 1_565 S
O260 C288 1.214 . S
H261 C289 0.929 . S
H262 C290 0.929 . S
H263 C291 0.930 . S
H264 C292 0.929 . S
H265 C294 0.930 . S
H266 C271 0.930 . S
H267 C275 0.930 . S
O268 Co237 2.037 . S
O268 C288 1.234 . S
C269 O243 1.269 . S
C269 O244 1.257 . S
C270 H245 0.930 . S
C270 C273 1.388 . S
C270 C275 1.418 . S
C271 H266 0.930 . S
C271 C274 1.404 . S
C271 C275 1.353 . S
N272 Co237 2.145 . S
N272 C273 1.397 . S
N272 C274 1.334 . S
C273 H254 0.929 . S
C273 C270 1.388 . S
C273 N272 1.397 . S
C274 H255 0.929 . S
C274 C271 1.404 . S
C274 N272 1.334 . S
C275 H267 0.930 . S
C275 C270 1.418 . S
C275 C271 1.353 . S
C276 H246 0.930 . S
C276 N277 1.330 . S
C276 C278 1.446 . S
N277 Co236 2.151 . S
N277 C276 1.330 . S
N277 C281 1.418 . S
C278 H257 0.929 . S
C278 C276 1.446 . S
C278 C279 1.332 . S
C279 H259 0.931 . S
C279 C278 1.332 . S
C279 C280 1.267 . S
C280 H248 0.929 . S
C280 C279 1.267 . S
C280 C281 1.251 . S
C281 H251 0.929 . S
C281 N277 1.418 . S
C281 C280 1.251 . S
C282 H249 0.930 . S
C282 C284 1.388 1_556 S
C282 C287 1.261 . S
C283 H250 0.932 1_556 S
C283 N285 1.327 1_556 S
C283 C286 1.353 . S
C284 H252 0.937 . S
C284 C282 1.388 1_554 S
C284 N285 1.271 . S
N285 Co236 2.214 . S
N285 C283 1.327 1_554 S
N285 C284 1.271 . S
C286 H256 0.931 . S
C286 C283 1.353 . S
C286 C287 1.312 . S
C287 H258 0.930 . S
C287 C282 1.261 . S
C287 C286 1.312 . S
C288 O260 1.214 . S
C288 O268 1.234 . S
C289 H261 0.929 . S
C289 C292 1.391 . S
C289 C294 1.391 . S
C290 H262 0.929 . S
C290 C291 1.390 . S
C290 N293 1.391 . S
C291 H263 0.930 . S
C291 C290 1.390 . S
C291 C292 1.392 . S
C292 H264 0.929 . S
C292 C289 1.391 . S
C292 C291 1.392 . S
N293 Co237 2.257 . S
N293 C290 1.391 . S
N293 C294 1.388 . S
C294 H265 0.930 . S
C294 C289 1.391 . S
C294 N293 1.388 . S
Co295 O297 2.143 . S
Co295 O303 2.074 . S
Co295 O306 2.093 . S
Co295 O319 2.097 . S
Co295 N336 2.151 . S
Co295 N344 2.214 . S
Co296 O297 2.160 . S
Co296 O302 2.058 . S
Co296 O312 2.057 . S
Co296 O327 2.037 . S
Co296 N331 2.145 . S
Co296 N352 2.257 . S
O297 Co295 2.143 . S
O297 Co296 2.160 . S
C298 O299 1.278 . S
C298 O306 1.224 . S
O299 C298 1.278 . S
C300 O301 1.245 . S
C300 O312 1.232 . S
O301 C300 1.245 . S
O302 Co296 2.058 . S
O302 C328 1.269 . S
O303 Co295 2.074 . S
O303 C328 1.257 . S
H304 C329 0.930 . S
H305 C335 0.930 . S
O306 Co295 2.093 . S
O306 C298 1.224 . S
H307 C339 0.929 . S
H308 C341 0.930 . S
H309 C342 0.930 . S
H310 C340 0.929 . S
H311 C343 0.938 . S
O312 Co296 2.057 . S
O312 C300 1.232 . S
H313 C332 0.929 . S
H314 C333 0.929 . S
H315 C345 0.931 . S
H316 C337 0.929 . S
H317 C346 0.930 . S
H318 C338 0.931 . S
O319 Co295 2.097 . S
O319 C347 1.214 . S
H320 C348 0.929 . S
H321 C349 0.929 . S
H322 C350 0.930 . S
H323 C351 0.929 . S
H324 C353 0.930 . S
H325 C330 0.930 . S
H326 C334 0.930 . S
O327 Co296 2.037 . S
O327 C347 1.234 . S
C328 O302 1.269 . S
C328 O303 1.257 . S
C329 H304 0.930 . S
C329 C332 1.388 . S
C329 C334 1.418 . S
C330 H325 0.930 . S
C330 C333 1.404 . S
C330 C334 1.353 . S
N331 Co296 2.145 . S
N331 C332 1.397 . S
N331 C333 1.334 . S
C332 H313 0.929 . S
C332 C329 1.388 . S
C332 N331 1.397 . S
C333 H314 0.929 . S
C333 C330 1.404 . S
C333 N331 1.334 . S
C334 H326 0.930 . S
C334 C329 1.418 . S
C334 C330 1.353 . S
C335 H305 0.930 . S
C335 N336 1.330 . S
C335 C337 1.446 . S
N336 Co295 2.151 . S
N336 C335 1.330 . S
N336 C340 1.418 . S
C337 H316 0.929 . S
C337 C335 1.446 . S
C337 C338 1.332 . S
C338 H318 0.931 . S
C338 C337 1.332 . S
C338 C339 1.267 . S
C339 H307 0.929 . S
C339 C338 1.267 . S
C339 C340 1.251 . S
C340 H310 0.929 . S
C340 N336 1.418 . S
C340 C339 1.251 . S
C341 H308 0.930 . S
C341 C343 1.383 1_556 S
C341 C346 1.261 . S
C342 H309 0.930 . S
C342 N344 1.325 . S
C342 C345 1.357 1_554 S
C343 H311 0.938 . S
C343 C341 1.383 1_554 S
C343 N344 1.275 . S
N344 Co295 2.214 . S
N344 C342 1.325 . S
N344 C343 1.275 . S
C345 H315 0.931 . S
C345 C342 1.357 1_556 S
C345 C346 1.312 . S
C346 H317 0.930 . S
C346 C341 1.261 . S
C346 C345 1.312 . S
C347 O319 1.214 . S
C347 O327 1.234 . S
C348 H320 0.929 . S
C348 C351 1.391 . S
C348 C353 1.391 . S
C349 H321 0.929 . S
C349 C350 1.390 . S
C349 N352 1.391 . S
C350 H322 0.930 . S
C350 C349 1.390 . S
C350 C351 1.392 . S
C351 H323 0.929 . S
C351 C348 1.391 . S
C351 C350 1.392 . S
N352 Co296 2.257 . S
N352 C349 1.391 . S
N352 C353 1.388 . S
C353 H324 0.930 . S
C353 C348 1.391 . S
C353 N352 1.388 . S
Co354 O356 2.162 . S
Co354 O362 2.074 . S
Co354 O365 2.093 . S
Co354 O378 2.097 1_565 S
Co354 N395 2.151 . S
Co354 N403 2.214 . S
Co355 O356 2.141 1_545 S
Co355 O361 2.058 1_545 S
Co355 O371 2.057 . S
Co355 O386 2.037 . S
Co355 N390 2.145 . S
Co355 N411 2.257 . S
O356 Co354 2.162 . S
O356 Co355 2.141 1_565 S
C357 O358 1.278 . S
C357 O365 1.224 1_545 S
O358 C357 1.278 . S
C359 O360 1.245 1_545 S
C359 O371 1.232 . S
O360 C359 1.245 1_565 S
O361 Co355 2.058 1_565 S
O361 C387 1.269 . S
O362 Co354 2.074 . S
O362 C387 1.257 . S
H363 C388 0.930 . S
H364 C394 0.930 . S
O365 Co354 2.093 . S
O365 C357 1.224 1_565 S
H366 C398 0.929 . S
H367 C400 0.930 . S
H368 C401 0.930 . S
H369 C399 0.929 . S
H370 C402 0.928 . S
O371 Co355 2.057 . S
O371 C359 1.232 . S
H372 C391 0.929 . S
H373 C392 0.929 . S
H374 C404 0.931 . S
H375 C396 0.929 . S
H376 C405 0.930 . S
H377 C397 0.931 . S
O378 Co354 2.097 1_545 S
O378 C406 1.214 . S
H379 C407 0.929 . S
H380 C408 0.929 . S
H381 C409 0.930 . S
H382 C410 0.929 . S
H383 C412 0.930 . S
H384 C389 0.930 . S
H385 C393 0.930 . S
O386 Co355 2.037 . S
O386 C406 1.234 . S
C387 O361 1.269 . S
C387 O362 1.257 . S
C388 H363 0.930 . S
C388 C391 1.388 . S
C388 C393 1.418 . S
C389 H384 0.930 . S
C389 C392 1.404 . S
C389 C393 1.353 . S
N390 Co355 2.145 . S
N390 C391 1.397 . S
N390 C392 1.334 . S
C391 H372 0.929 . S
C391 C388 1.388 . S
C391 N390 1.397 . S
C392 H373 0.929 . S
C392 C389 1.404 . S
C392 N390 1.334 . S
C393 H385 0.930 . S
C393 C388 1.418 . S
C393 C389 1.353 . S
C394 H364 0.930 . S
C394 N395 1.330 . S
C394 C396 1.446 . S
N395 Co354 2.151 . S
N395 C394 1.330 . S
N395 C399 1.418 . S
C396 H375 0.929 . S
C396 C394 1.446 . S
C396 C397 1.332 . S
C397 H377 0.931 . S
C397 C396 1.332 . S
C397 C398 1.267 . S
C398 H366 0.929 . S
C398 C397 1.267 . S
C398 C399 1.251 . S
C399 H369 0.929 . S
C399 N395 1.418 . S
C399 C398 1.251 . S
C400 H367 0.930 . S
C400 C402 1.406 . S
C400 C405 1.261 . S
C401 H368 0.930 . S
C401 N403 1.325 . S
C401 C404 1.357 . S
C402 H370 0.928 . S
C402 C400 1.406 . S
C402 N403 1.261 . S
N403 Co354 2.214 . S
N403 C401 1.325 . S
N403 C402 1.261 . S
C404 H374 0.931 . S
C404 C401 1.357 . S
C404 C405 1.312 . S
C405 H376 0.930 . S
C405 C400 1.261 . S
C405 C404 1.312 . S
C406 O378 1.214 . S
C406 O386 1.234 . S
C407 H379 0.929 . S
C407 C410 1.391 . S
C407 C412 1.391 . S
C408 H380 0.929 . S
C408 C409 1.390 . S
C408 N411 1.391 . S
C409 H381 0.930 . S
C409 C408 1.390 . S
C409 C410 1.392 . S
C410 H382 0.929 . S
C410 C407 1.391 . S
C410 C409 1.392 . S
N411 Co355 2.257 . S
N411 C408 1.391 . S
N411 C412 1.388 . S
C412 H383 0.930 . S
C412 C407 1.391 . S
C412 N411 1.388 . S
Co413 O415 2.143 . S
Co413 O421 2.074 . S
Co413 O424 2.093 . S
Co413 O437 2.097 . S
Co413 N454 2.151 . S
Co413 N462 2.214 . S
Co414 O415 2.160 . S
Co414 O420 2.058 . S
Co414 O430 2.057 . S
Co414 O445 2.037 . S
Co414 N449 2.145 . S
Co414 N470 2.257 . S
O415 Co413 2.143 . S
O415 Co414 2.160 . S
C416 O417 1.278 . S
C416 O424 1.224 . S
O417 C416 1.278 . S
C418 O419 1.245 . S
C418 O430 1.232 . S
O419 C418 1.245 . S
O420 Co414 2.058 . S
O420 C446 1.269 . S
O421 Co413 2.074 . S
O421 C446 1.257 . S
H422 C447 0.930 . S
H423 C453 0.930 . S
O424 Co413 2.093 . S
O424 C416 1.224 . S
H425 C457 0.929 . S
H426 C459 0.930 . S
H427 C460 0.930 . S
H428 C458 0.929 . S
H429 C461 0.928 . S
O430 Co414 2.057 . S
O430 C418 1.232 . S
H431 C450 0.929 . S
H432 C451 0.929 . S
H433 C463 0.931 . S
H434 C455 0.929 . S
H435 C464 0.930 . S
H436 C456 0.931 . S
O437 Co413 2.097 . S
O437 C465 1.214 . S
H438 C466 0.929 . S
H439 C467 0.929 . S
H440 C468 0.930 . S
H441 C469 0.929 . S
H442 C471 0.930 . S
H443 C448 0.930 . S
H444 C452 0.930 . S
O445 Co414 2.037 . S
O445 C465 1.234 . S
C446 O420 1.269 . S
C446 O421 1.257 . S
C447 H422 0.930 . S
C447 C450 1.388 . S
C447 C452 1.418 . S
C448 H443 0.930 . S
C448 C451 1.404 . S
C448 C452 1.353 . S
N449 Co414 2.145 . S
N449 C450 1.397 . S
N449 C451 1.334 . S
C450 H431 0.929 . S
C450 C447 1.388 . S
C450 N449 1.397 . S
C451 H432 0.929 . S
C451 C448 1.404 . S
C451 N449 1.334 . S
C452 H444 0.930 . S
C452 C447 1.418 . S
C452 C448 1.353 . S
C453 H423 0.930 . S
C453 N454 1.330 . S
C453 C455 1.446 . S
N454 Co413 2.151 . S
N454 C453 1.330 . S
N454 C458 1.418 . S
C455 H434 0.929 . S
C455 C453 1.446 . S
C455 C456 1.332 . S
C456 H436 0.931 . S
C456 C455 1.332 . S
C456 C457 1.267 . S
C457 H425 0.929 . S
C457 C456 1.267 . S
C457 C458 1.251 . S
C458 H428 0.929 . S
C458 N454 1.418 . S
C458 C457 1.251 . S
C459 H426 0.930 . S
C459 C461 1.406 . S
C459 C464 1.261 . S
C460 H427 0.930 . S
C460 N462 1.325 . S
C460 C463 1.357 . S
C461 H429 0.928 . S
C461 C459 1.406 . S
C461 N462 1.261 . S
N462 Co413 2.214 . S
N462 C460 1.325 . S
N462 C461 1.261 . S
C463 H433 0.931 . S
C463 C460 1.357 . S
C463 C464 1.312 . S
C464 H435 0.930 . S
C464 C459 1.261 . S
C464 C463 1.312 . S
C465 O437 1.214 . S
C465 O445 1.234 . S
C466 H438 0.929 . S
C466 C469 1.391 . S
C466 C471 1.391 . S
C467 H439 0.929 . S
C467 C468 1.390 . S
C467 N470 1.391 . S
C468 H440 0.930 . S
C468 C467 1.390 . S
C468 C469 1.392 . S
C469 H441 0.929 . S
C469 C466 1.391 . S
C469 C468 1.392 . S
N470 Co414 2.257 . S
N470 C467 1.391 . S
N470 C471 1.388 . S
C471 H442 0.930 . S
C471 C466 1.391 . S
C471 N470 1.388 . S
Co472 O474 2.162 . S
Co472 O480 2.074 . S
Co472 O483 2.093 . S
Co472 O496 2.097 1_554 S
Co472 N513 2.151 . S
Co472 N521 2.214 . S
Co473 O474 2.141 1_556 S
Co473 O479 2.058 1_556 S
Co473 O489 2.057 . S
Co473 O504 2.037 . S
Co473 N508 2.145 . S
Co473 N529 2.257 . S
O474 Co472 2.162 . S
O474 Co473 2.141 1_554 S
C475 O476 1.278 . S
C475 O483 1.224 1_556 S
O476 C475 1.278 . S
C477 O478 1.237 1_556 S
C477 O489 1.238 . S
O478 C477 1.237 1_554 S
O479 Co473 2.058 1_554 S
O479 C505 1.269 . S
O480 Co472 2.074 . S
O480 C505 1.257 . S
H481 C506 0.930 . S
H482 C512 0.930 . S
O483 Co472 2.093 . S
O483 C475 1.224 1_554 S
H484 C516 0.929 . S
H485 C518 0.930 . S
H486 C519 0.932 1_455 S
H487 C517 0.929 . S
H488 C520 0.937 . S
O489 Co473 2.057 . S
O489 C477 1.238 . S
H490 C509 0.929 . S
H491 C510 0.929 . S
H492 C522 0.931 . S
H493 C514 0.929 . S
H494 C523 0.930 . S
H495 C515 0.931 . S
O496 Co472 2.097 1_556 S
O496 C524 1.214 . S
H497 C525 0.929 . S
H498 C526 0.929 . S
H499 C527 0.930 . S
H500 C528 0.929 . S
H501 C530 0.930 . S
H502 C507 0.930 . S
H503 C511 0.930 . S
O504 Co473 2.037 . S
O504 C524 1.234 . S
C505 O479 1.269 . S
C505 O480 1.257 . S
C506 H481 0.930 . S
C506 C509 1.388 . S
C506 C511 1.418 . S
C507 H502 0.930 . S
C507 C510 1.404 . S
C507 C511 1.353 . S
N508 Co473 2.145 . S
N508 C509 1.397 . S
N508 C510 1.334 . S
C509 H490 0.929 . S
C509 C506 1.388 . S
C509 N508 1.397 . S
C510 H491 0.929 . S
C510 C507 1.404 . S
C510 N508 1.334 . S
C511 H503 0.930 . S
C511 C506 1.418 . S
C511 C507 1.353 . S
C512 H482 0.930 . S
C512 N513 1.330 . S
C512 C514 1.446 . S
N513 Co472 2.151 . S
N513 C512 1.330 . S
N513 C517 1.418 . S
C514 H493 0.929 . S
C514 C512 1.446 . S
C514 C515 1.332 . S
C515 H495 0.931 . S
C515 C514 1.332 . S
C515 C516 1.267 . S
C516 H484 0.929 . S
C516 C515 1.267 . S
C516 C517 1.251 . S
C517 H487 0.929 . S
C517 N513 1.418 . S
C517 C516 1.251 . S
C518 H485 0.930 . S
C518 C520 1.388 1_655 S
C518 C523 1.261 . S
C519 H486 0.932 1_655 S
C519 N521 1.327 1_655 S
C519 C522 1.353 . S
C520 H488 0.937 . S
C520 C518 1.388 1_455 S
C520 N521 1.271 . S
N521 Co472 2.214 . S
N521 C519 1.327 1_455 S
N521 C520 1.271 . S
C522 H492 0.931 . S
C522 C519 1.353 . S
C522 C523 1.312 . S
C523 H494 0.930 . S
C523 C518 1.261 . S
C523 C522 1.312 . S
C524 O496 1.214 . S
C524 O504 1.234 . S
C525 H497 0.929 . S
C525 C528 1.391 . S
C525 C530 1.391 . S
C526 H498 0.929 . S
C526 C527 1.390 . S
C526 N529 1.391 . S
C527 H499 0.930 . S
C527 C526 1.390 . S
C527 C528 1.392 . S
C528 H500 0.929 . S
C528 C525 1.391 . S
C528 C527 1.392 . S
N529 Co473 2.257 . S
N529 C526 1.391 . S
N529 C530 1.388 . S
C530 H501 0.930 . S
C530 C525 1.391 . S
C530 N529 1.388 . S
Co531 O533 2.143 . S
Co531 O539 2.074 . S
Co531 O542 2.093 . S
Co531 O555 2.097 . S
Co531 N572 2.151 . S
Co531 N580 2.214 . S
Co532 O533 2.160 . S
Co532 O538 2.058 . S
Co532 O548 2.057 . S
Co532 O563 2.037 . S
Co532 N567 2.145 . S
Co532 N588 2.257 . S
O533 Co531 2.143 . S
O533 Co532 2.160 . S
C534 O535 1.278 . S
C534 O542 1.224 . S
O535 C534 1.278 . S
C536 O537 1.245 . S
C536 O548 1.232 . S
O537 C536 1.245 . S
O538 Co532 2.058 . S
O538 C564 1.269 . S
O539 Co531 2.074 . S
O539 C564 1.257 . S
H540 C565 0.930 . S
H541 C571 0.930 . S
O542 Co531 2.093 . S
O542 C534 1.224 . S
H543 C575 0.929 . S
H544 C577 0.930 . S
H545 C578 0.930 . S
H546 C576 0.929 . S
H547 C579 0.938 . S
O548 Co532 2.057 . S
O548 C536 1.232 . S
H549 C568 0.929 . S
H550 C569 0.929 . S
H551 C581 0.931 . S
H552 C573 0.929 . S
H553 C582 0.930 . S
H554 C574 0.931 . S
O555 Co531 2.097 . S
O555 C583 1.214 . S
H556 C584 0.929 . S
H557 C585 0.929 . S
H558 C586 0.930 . S
H559 C587 0.929 . S
H560 C589 0.930 . S
H561 C566 0.930 . S
H562 C570 0.930 . S
O563 Co532 2.037 . S
O563 C583 1.234 . S
C564 O538 1.269 . S
C564 O539 1.257 . S
C565 H540 0.930 . S
C565 C568 1.388 . S
C565 C570 1.418 . S
C566 H561 0.930 . S
C566 C569 1.404 . S
C566 C570 1.353 . S
N567 Co532 2.145 . S
N567 C568 1.397 . S
N567 C569 1.334 . S
C568 H549 0.929 . S
C568 C565 1.388 . S
C568 N567 1.397 . S
C569 H550 0.929 . S
C569 C566 1.404 . S
C569 N567 1.334 . S
C570 H562 0.930 . S
C570 C565 1.418 . S
C570 C566 1.353 . S
C571 H541 0.930 . S
C571 N572 1.330 . S
C571 C573 1.446 . S
N572 Co531 2.151 . S
N572 C571 1.330 . S
N572 C576 1.418 . S
C573 H552 0.929 . S
C573 C571 1.446 . S
C573 C574 1.332 . S
C574 H554 0.931 . S
C574 C573 1.332 . S
C574 C575 1.267 . S
C575 H543 0.929 . S
C575 C574 1.267 . S
C575 C576 1.251 . S
C576 H546 0.929 . S
C576 N572 1.418 . S
C576 C575 1.251 . S
C577 H544 0.930 . S
C577 C579 1.383 1_655 S
C577 C582 1.261 . S
C578 H545 0.930 . S
C578 N580 1.325 . S
C578 C581 1.357 1_455 S
C579 H547 0.938 . S
C579 C577 1.383 1_455 S
C579 N580 1.275 . S
N580 Co531 2.214 . S
N580 C578 1.325 . S
N580 C579 1.275 . S
C581 H551 0.931 . S
C581 C578 1.357 1_655 S
C581 C582 1.312 . S
C582 H553 0.930 . S
C582 C577 1.261 . S
C582 C581 1.312 . S
C583 O555 1.214 . S
C583 O563 1.234 . S
C584 H556 0.929 . S
C584 C587 1.391 . S
C584 C589 1.391 . S
C585 H557 0.929 . S
C585 C586 1.390 . S
C585 N588 1.391 . S
C586 H558 0.930 . S
C586 C585 1.390 . S
C586 C587 1.392 . S
C587 H559 0.929 . S
C587 C584 1.391 . S
C587 C586 1.392 . S
N588 Co532 2.257 . S
N588 C585 1.391 . S
N588 C589 1.388 . S
C589 H560 0.930 . S
C589 C584 1.391 . S
C589 N588 1.388 . S
Co590 O592 2.143 . S
Co590 O598 2.074 . S
Co590 O601 2.093 . S
Co590 O614 2.097 . S
Co590 N631 2.151 . S
Co590 N639 2.214 . S
Co591 O592 2.160 . S
Co591 O597 2.058 . S
Co591 O607 2.057 . S
Co591 O622 2.037 . S
Co591 N626 2.145 . S
Co591 N647 2.257 . S
O592 Co590 2.143 . S
O592 Co591 2.160 . S
C593 O594 1.278 . S
C593 O601 1.224 . S
O594 C593 1.278 . S
C595 O596 1.245 . S
C595 O607 1.232 . S
O596 C595 1.245 . S
O597 Co591 2.058 . S
O597 C623 1.269 . S
O598 Co590 2.074 . S
O598 C623 1.257 . S
H599 C624 0.930 . S
H600 C630 0.930 . S
O601 Co590 2.093 . S
O601 C593 1.224 . S
H602 C634 0.929 . S
H603 C636 0.930 . S
H604 C637 0.930 . S
H605 C635 0.929 . S
H606 C638 0.928 . S
O607 Co591 2.057 . S
O607 C595 1.232 . S
H608 C627 0.929 . S
H609 C628 0.929 . S
H610 C640 0.931 . S
H611 C632 0.929 . S
H612 C641 0.930 . S
H613 C633 0.931 . S
O614 Co590 2.097 . S
O614 C642 1.214 . S
H615 C643 0.929 . S
H616 C644 0.929 . S
H617 C645 0.930 . S
H618 C646 0.929 . S
H619 C648 0.930 . S
H620 C625 0.930 . S
H621 C629 0.930 . S
O622 Co591 2.037 . S
O622 C642 1.234 . S
C623 O597 1.269 . S
C623 O598 1.257 . S
C624 H599 0.930 . S
C624 C627 1.388 . S
C624 C629 1.418 . S
C625 H620 0.930 . S
C625 C628 1.404 . S
C625 C629 1.353 . S
N626 Co591 2.145 . S
N626 C627 1.397 . S
N626 C628 1.334 . S
C627 H608 0.929 . S
C627 C624 1.388 . S
C627 N626 1.397 . S
C628 H609 0.929 . S
C628 C625 1.404 . S
C628 N626 1.334 . S
C629 H621 0.930 . S
C629 C624 1.418 . S
C629 C625 1.353 . S
C630 H600 0.930 . S
C630 N631 1.330 . S
C630 C632 1.446 . S
N631 Co590 2.151 . S
N631 C630 1.330 . S
N631 C635 1.418 . S
C632 H611 0.929 . S
C632 C630 1.446 . S
C632 C633 1.332 . S
C633 H613 0.931 . S
C633 C632 1.332 . S
C633 C634 1.267 . S
C634 H602 0.929 . S
C634 C633 1.267 . S
C634 C635 1.251 . S
C635 H605 0.929 . S
C635 N631 1.418 . S
C635 C634 1.251 . S
C636 H603 0.930 . S
C636 C638 1.406 1_455 S
C636 C641 1.261 . S
C637 H604 0.930 . S
C637 N639 1.325 . S
C637 C640 1.357 1_655 S
C638 H606 0.928 . S
C638 C636 1.406 1_655 S
C638 N639 1.261 . S
N639 Co590 2.214 . S
N639 C637 1.325 . S
N639 C638 1.261 . S
C640 H610 0.931 . S
C640 C637 1.357 1_455 S
C640 C641 1.312 . S
C641 H612 0.930 . S
C641 C636 1.261 . S
C641 C640 1.312 . S
C642 O614 1.214 . S
C642 O622 1.234 . S
C643 H615 0.929 . S
C643 C646 1.391 . S
C643 C648 1.391 . S
C644 H616 0.929 . S
C644 C645 1.390 . S
C644 N647 1.391 . S
C645 H617 0.930 . S
C645 C644 1.390 . S
C645 C646 1.392 . S
C646 H618 0.929 . S
C646 C643 1.391 . S
C646 C645 1.392 . S
N647 Co591 2.257 . S
N647 C644 1.391 . S
N647 C648 1.388 . S
C648 H619 0.930 . S
C648 C643 1.391 . S
C648 N647 1.388 . S
Co649 O651 2.143 . S
Co649 O657 2.074 . S
Co649 O660 2.093 . S
Co649 O673 2.097 . S
Co649 N690 2.151 . S
Co649 N698 2.214 . S
Co650 O651 2.160 . S
Co650 O656 2.058 . S
Co650 O666 2.057 . S
Co650 O681 2.037 . S
Co650 N685 2.145 . S
Co650 N706 2.257 . S
O651 Co649 2.143 . S
O651 Co650 2.160 . S
C652 O653 1.278 . S
C652 O660 1.224 . S
O653 C652 1.278 . S
C654 O655 1.245 . S
C654 O666 1.232 . S
O655 C654 1.245 . S
O656 Co650 2.058 . S
O656 C682 1.269 . S
O657 Co649 2.074 . S
O657 C682 1.257 . S
H658 C683 0.930 . S
H659 C689 0.930 . S
O660 Co649 2.093 . S
O660 C652 1.224 . S
H661 C693 0.929 . S
H662 C695 0.930 . S
H663 C696 0.930 . S
H664 C694 0.929 . S
H665 C697 0.928 . S
O666 Co650 2.057 . S
O666 C654 1.232 . S
H667 C686 0.929 . S
H668 C687 0.929 . S
H669 C699 0.931 . S
H670 C691 0.929 . S
H671 C700 0.930 . S
H672 C692 0.931 . S
O673 Co649 2.097 . S
O673 C701 1.214 . S
H674 C702 0.929 . S
H675 C703 0.929 . S
H676 C704 0.930 . S
H677 C705 0.929 . S
H678 C707 0.930 . S
H679 C684 0.930 . S
H680 C688 0.930 . S
O681 Co650 2.037 . S
O681 C701 1.234 . S
C682 O656 1.269 . S
C682 O657 1.257 . S
C683 H658 0.930 . S
C683 C686 1.388 . S
C683 C688 1.418 . S
C684 H679 0.930 . S
C684 C687 1.404 . S
C684 C688 1.353 . S
N685 Co650 2.145 . S
N685 C686 1.397 . S
N685 C687 1.334 . S
C686 H667 0.929 . S
C686 C683 1.388 . S
C686 N685 1.397 . S
C687 H668 0.929 . S
C687 C684 1.404 . S
C687 N685 1.334 . S
C688 H680 0.930 . S
C688 C683 1.418 . S
C688 C684 1.353 . S
C689 H659 0.930 . S
C689 N690 1.330 . S
C689 C691 1.446 . S
N690 Co649 2.151 . S
N690 C689 1.330 . S
N690 C694 1.418 . S
C691 H670 0.929 . S
C691 C689 1.446 . S
C691 C692 1.332 . S
C692 H672 0.931 . S
C692 C691 1.332 . S
C692 C693 1.267 . S
C693 H661 0.929 . S
C693 C692 1.267 . S
C693 C694 1.251 . S
C694 H664 0.929 . S
C694 N690 1.418 . S
C694 C693 1.251 . S
C695 H662 0.930 . S
C695 C697 1.406 . S
C695 C700 1.261 . S
C696 H663 0.930 . S
C696 N698 1.325 . S
C696 C699 1.357 . S
C697 H665 0.928 . S
C697 C695 1.406 . S
C697 N698 1.261 . S
N698 Co649 2.214 . S
N698 C696 1.325 . S
N698 C697 1.261 . S
C699 H669 0.931 . S
C699 C696 1.357 . S
C699 C700 1.312 . S
C700 H671 0.930 . S
C700 C695 1.261 . S
C700 C699 1.312 . S
C701 O673 1.214 . S
C701 O681 1.234 . S
C702 H674 0.929 . S
C702 C705 1.391 . S
C702 C707 1.391 . S
C703 H675 0.929 . S
C703 C704 1.390 . S
C703 N706 1.391 . S
C704 H676 0.930 . S
C704 C703 1.390 . S
C704 C705 1.392 . S
C705 H677 0.929 . S
C705 C702 1.391 . S
C705 C704 1.392 . S
N706 Co650 2.257 . S
N706 C703 1.391 . S
N706 C707 1.388 . S
C707 H678 0.930 . S
C707 C702 1.391 . S
C707 N706 1.388 . S
Co708 O710 2.143 . S
Co708 O716 2.074 . S
Co708 O719 2.093 . S
Co708 O732 2.097 . S
Co708 N749 2.151 . S
Co708 N757 2.214 . S
Co709 O710 2.160 . S
Co709 O715 2.058 . S
Co709 O725 2.057 . S
Co709 O740 2.037 . S
Co709 N744 2.145 . S
Co709 N765 2.257 . S
O710 Co708 2.143 . S
O710 Co709 2.160 . S
C711 O712 1.278 . S
C711 O719 1.224 . S
O712 C711 1.278 . S
C713 O714 1.245 . S
C713 O725 1.232 . S
O714 C713 1.245 . S
O715 Co709 2.058 . S
O715 C741 1.269 . S
O716 Co708 2.074 . S
O716 C741 1.257 . S
H717 C742 0.930 . S
H718 C748 0.930 . S
O719 Co708 2.093 . S
O719 C711 1.224 . S
H720 C752 0.929 . S
H721 C754 0.930 . S
H722 C755 0.930 . S
H723 C753 0.929 . S
H724 C756 0.928 . S
O725 Co709 2.057 . S
O725 C713 1.232 . S
H726 C745 0.929 . S
H727 C746 0.929 . S
H728 C758 0.931 . S
H729 C750 0.929 . S
H730 C759 0.930 . S
H731 C751 0.931 . S
O732 Co708 2.097 . S
O732 C760 1.214 . S
H733 C761 0.929 . S
H734 C762 0.929 . S
H735 C763 0.930 . S
H736 C764 0.929 . S
H737 C766 0.930 . S
H738 C743 0.930 . S
H739 C747 0.930 . S
O740 Co709 2.037 . S
O740 C760 1.234 . S
C741 O715 1.269 . S
C741 O716 1.257 . S
C742 H717 0.930 . S
C742 C745 1.388 . S
C742 C747 1.418 . S
C743 H738 0.930 . S
C743 C746 1.404 . S
C743 C747 1.353 . S
N744 Co709 2.145 . S
N744 C745 1.397 . S
N744 C746 1.334 . S
C745 H726 0.929 . S
C745 C742 1.388 . S
C745 N744 1.397 . S
C746 H727 0.929 . S
C746 C743 1.404 . S
C746 N744 1.334 . S
C747 H739 0.930 . S
C747 C742 1.418 . S
C747 C743 1.353 . S
C748 H718 0.930 . S
C748 N749 1.330 . S
C748 C750 1.446 . S
N749 Co708 2.151 . S
N749 C748 1.330 . S
N749 C753 1.418 . S
C750 H729 0.929 . S
C750 C748 1.446 . S
C750 C751 1.332 . S
C751 H731 0.931 . S
C751 C750 1.332 . S
C751 C752 1.267 . S
C752 H720 0.929 . S
C752 C751 1.267 . S
C752 C753 1.251 . S
C753 H723 0.929 . S
C753 N749 1.418 . S
C753 C752 1.251 . S
C754 H721 0.930 . S
C754 C756 1.406 . S
C754 C759 1.261 . S
C755 H722 0.930 . S
C755 N757 1.325 . S
C755 C758 1.357 . S
C756 H724 0.928 . S
C756 C754 1.406 . S
C756 N757 1.261 . S
N757 Co708 2.214 . S
N757 C755 1.325 . S
N757 C756 1.261 . S
C758 H728 0.931 . S
C758 C755 1.357 . S
C758 C759 1.312 . S
C759 H730 0.930 . S
C759 C754 1.261 . S
C759 C758 1.312 . S
C760 O732 1.214 . S
C760 O740 1.234 . S
C761 H733 0.929 . S
C761 C764 1.391 . S
C761 C766 1.391 . S
C762 H734 0.929 . S
C762 C763 1.390 . S
C762 N765 1.391 . S
C763 H735 0.930 . S
C763 C762 1.390 . S
C763 C764 1.392 . S
C764 H736 0.929 . S
C764 C761 1.391 . S
C764 C763 1.392 . S
N765 Co709 2.257 . S
N765 C762 1.391 . S
N765 C766 1.388 . S
C766 H737 0.930 . S
C766 C761 1.391 . S
C766 N765 1.388 . S
Co767 O769 2.143 . S
Co767 O775 2.074 . S
Co767 O778 2.093 . S
Co767 O791 2.097 . S
Co767 N808 2.151 . S
Co767 N816 2.214 . S
Co768 O769 2.160 . S
Co768 O774 2.058 . S
Co768 O784 2.057 . S
Co768 O799 2.037 . S
Co768 N803 2.145 . S
Co768 N824 2.257 . S
O769 Co767 2.143 . S
O769 Co768 2.160 . S
C770 O771 1.278 . S
C770 O778 1.224 . S
O771 C770 1.278 . S
C772 O773 1.245 . S
C772 O784 1.232 . S
O773 C772 1.245 . S
O774 Co768 2.058 . S
O774 C800 1.269 . S
O775 Co767 2.074 . S
O775 C800 1.257 . S
H776 C801 0.930 . S
H777 C807 0.930 . S
O778 Co767 2.093 . S
O778 C770 1.224 . S
H779 C811 0.929 . S
H780 C813 0.930 . S
H781 C814 0.930 . S
H782 C812 0.929 . S
H783 C815 0.928 . S
O784 Co768 2.057 . S
O784 C772 1.232 . S
H785 C804 0.929 . S
H786 C805 0.929 . S
H787 C817 0.931 . S
H788 C809 0.929 . S
H789 C818 0.930 . S
H790 C810 0.931 . S
O791 Co767 2.097 . S
O791 C819 1.214 . S
H792 C820 0.929 . S
H793 C821 0.929 . S
H794 C822 0.930 . S
H795 C823 0.929 . S
H796 C825 0.930 . S
H797 C802 0.930 . S
H798 C806 0.930 . S
O799 Co768 2.037 . S
O799 C819 1.234 . S
C800 O774 1.269 . S
C800 O775 1.257 . S
C801 H776 0.930 . S
C801 C804 1.388 . S
C801 C806 1.418 . S
C802 H797 0.930 . S
C802 C805 1.404 . S
C802 C806 1.353 . S
N803 Co768 2.145 . S
N803 C804 1.397 . S
N803 C805 1.334 . S
C804 H785 0.929 . S
C804 C801 1.388 . S
C804 N803 1.397 . S
C805 H786 0.929 . S
C805 C802 1.404 . S
C805 N803 1.334 . S
C806 H798 0.930 . S
C806 C801 1.418 . S
C806 C802 1.353 . S
C807 H777 0.930 . S
C807 N808 1.330 . S
C807 C809 1.446 . S
N808 Co767 2.151 . S
N808 C807 1.330 . S
N808 C812 1.418 . S
C809 H788 0.929 . S
C809 C807 1.446 . S
C809 C810 1.332 . S
C810 H790 0.931 . S
C810 C809 1.332 . S
C810 C811 1.267 . S
C811 H779 0.929 . S
C811 C810 1.267 . S
C811 C812 1.251 . S
C812 H782 0.929 . S
C812 N808 1.418 . S
C812 C811 1.251 . S
C813 H780 0.930 . S
C813 C815 1.406 1_545 S
C813 C818 1.261 . S
C814 H781 0.930 . S
C814 N816 1.325 . S
C814 C817 1.357 1_565 S
C815 H783 0.928 . S
C815 C813 1.406 1_565 S
C815 N816 1.261 . S
N816 Co767 2.214 . S
N816 C814 1.325 . S
N816 C815 1.261 . S
C817 H787 0.931 . S
C817 C814 1.357 1_545 S
C817 C818 1.312 . S
C818 H789 0.930 . S
C818 C813 1.261 . S
C818 C817 1.312 . S
C819 O791 1.214 . S
C819 O799 1.234 . S
C820 H792 0.929 . S
C820 C823 1.391 . S
C820 C825 1.391 . S
C821 H793 0.929 . S
C821 C822 1.390 . S
C821 N824 1.391 . S
C822 H794 0.930 . S
C822 C821 1.390 . S
C822 C823 1.392 . S
C823 H795 0.929 . S
C823 C820 1.391 . S
C823 C822 1.392 . S
N824 Co768 2.257 . S
N824 C821 1.391 . S
N824 C825 1.388 . S
C825 H796 0.930 . S
C825 C820 1.391 . S
C825 N824 1.388 . S
Co826 O828 2.143 . S
Co826 O834 2.074 . S
Co826 O837 2.093 . S
Co826 O850 2.097 . S
Co826 N867 2.151 . S
Co826 N875 2.214 . S
Co827 O828 2.160 . S
Co827 O833 2.058 . S
Co827 O843 2.057 . S
Co827 O858 2.037 . S
Co827 N862 2.145 . S
Co827 N883 2.257 . S
O828 Co826 2.143 . S
O828 Co827 2.160 . S
C829 O830 1.278 . S
C829 O837 1.224 . S
O830 C829 1.278 . S
C831 O832 1.245 . S
C831 O843 1.232 . S
O832 C831 1.245 . S
O833 Co827 2.058 . S
O833 C859 1.269 . S
O834 Co826 2.074 . S
O834 C859 1.257 . S
H835 C860 0.930 . S
H836 C866 0.930 . S
O837 Co826 2.093 . S
O837 C829 1.224 . S
H838 C870 0.929 . S
H839 C872 0.930 . S
H840 C873 0.930 . S
H841 C871 0.929 . S
H842 C874 0.928 . S
O843 Co827 2.057 . S
O843 C831 1.232 . S
H844 C863 0.929 . S
H845 C864 0.929 . S
H846 C876 0.931 . S
H847 C868 0.929 . S
H848 C877 0.930 . S
H849 C869 0.931 . S
O850 Co826 2.097 . S
O850 C878 1.214 . S
H851 C879 0.929 . S
H852 C880 0.929 . S
H853 C881 0.930 . S
H854 C882 0.929 . S
H855 C884 0.930 . S
H856 C861 0.930 . S
H857 C865 0.930 . S
O858 Co827 2.037 . S
O858 C878 1.234 . S
C859 O833 1.269 . S
C859 O834 1.257 . S
C860 H835 0.930 . S
C860 C863 1.388 . S
C860 C865 1.418 . S
C861 H856 0.930 . S
C861 C864 1.404 . S
C861 C865 1.353 . S
N862 Co827 2.145 . S
N862 C863 1.397 . S
N862 C864 1.334 . S
C863 H844 0.929 . S
C863 C860 1.388 . S
C863 N862 1.397 . S
C864 H845 0.929 . S
C864 C861 1.404 . S
C864 N862 1.334 . S
C865 H857 0.930 . S
C865 C860 1.418 . S
C865 C861 1.353 . S
C866 H836 0.930 . S
C866 N867 1.330 . S
C866 C868 1.446 . S
N867 Co826 2.151 . S
N867 C866 1.330 . S
N867 C871 1.418 . S
C868 H847 0.929 . S
C868 C866 1.446 . S
C868 C869 1.332 . S
C869 H849 0.931 . S
C869 C868 1.332 . S
C869 C870 1.267 . S
C870 H838 0.929 . S
C870 C869 1.267 . S
C870 C871 1.251 . S
C871 H841 0.929 . S
C871 N867 1.418 . S
C871 C870 1.251 . S
C872 H839 0.930 . S
C872 C874 1.406 . S
C872 C877 1.261 . S
C873 H840 0.930 . S
C873 N875 1.325 . S
C873 C876 1.357 . S
C874 H842 0.928 . S
C874 C872 1.406 . S
C874 N875 1.261 . S
N875 Co826 2.214 . S
N875 C873 1.325 . S
N875 C874 1.261 . S
C876 H846 0.931 . S
C876 C873 1.357 . S
C876 C877 1.312 . S
C877 H848 0.930 . S
C877 C872 1.261 . S
C877 C876 1.312 . S
C878 O850 1.214 . S
C878 O858 1.234 . S
C879 H851 0.929 . S
C879 C882 1.391 . S
C879 C884 1.391 . S
C880 H852 0.929 . S
C880 C881 1.390 . S
C880 N883 1.391 . S
C881 H853 0.930 . S
C881 C880 1.390 . S
C881 C882 1.392 . S
C882 H854 0.929 . S
C882 C879 1.391 . S
C882 C881 1.392 . S
N883 Co827 2.257 . S
N883 C880 1.391 . S
N883 C884 1.388 . S
C884 H855 0.930 . S
C884 C879 1.391 . S
C884 N883 1.388 . S
Co885 O887 2.143 . S
Co885 O893 2.074 . S
Co885 O896 2.093 . S
Co885 O909 2.097 . S
Co885 N926 2.151 . S
Co885 N934 2.214 . S
Co886 O887 2.160 . S
Co886 O892 2.058 . S
Co886 O902 2.057 . S
Co886 O917 2.037 . S
Co886 N921 2.145 . S
Co886 N942 2.257 . S
O887 Co885 2.143 . S
O887 Co886 2.160 . S
C888 O889 1.278 . S
C888 O896 1.224 . S
O889 C888 1.278 . S
C890 O891 1.245 . S
C890 O902 1.232 . S
O891 C890 1.245 . S
O892 Co886 2.058 . S
O892 C918 1.269 . S
O893 Co885 2.074 . S
O893 C918 1.257 . S
H894 C919 0.930 . S
H895 C925 0.930 . S
O896 Co885 2.093 . S
O896 C888 1.224 . S
H897 C929 0.929 . S
H898 C931 0.930 . S
H899 C932 0.930 . S
H900 C930 0.929 . S
H901 C933 0.938 . S
O902 Co886 2.057 . S
O902 C890 1.232 . S
H903 C922 0.929 . S
H904 C923 0.929 . S
H905 C935 0.931 . S
H906 C927 0.929 . S
H907 C936 0.930 . S
H908 C928 0.931 . S
O909 Co885 2.097 . S
O909 C937 1.214 . S
H910 C938 0.929 . S
H911 C939 0.929 . S
H912 C940 0.930 . S
H913 C941 0.929 . S
H914 C943 0.930 . S
H915 C920 0.930 . S
H916 C924 0.930 . S
O917 Co886 2.037 . S
O917 C937 1.234 . S
C918 O892 1.269 . S
C918 O893 1.257 . S
C919 H894 0.930 . S
C919 C922 1.388 . S
C919 C924 1.418 . S
C920 H915 0.930 . S
C920 C923 1.404 . S
C920 C924 1.353 . S
N921 Co886 2.145 . S
N921 C922 1.397 . S
N921 C923 1.334 . S
C922 H903 0.929 . S
C922 C919 1.388 . S
C922 N921 1.397 . S
C923 H904 0.929 . S
C923 C920 1.404 . S
C923 N921 1.334 . S
C924 H916 0.930 . S
C924 C919 1.418 . S
C924 C920 1.353 . S
C925 H895 0.930 . S
C925 N926 1.330 . S
C925 C927 1.446 . S
N926 Co885 2.151 . S
N926 C925 1.330 . S
N926 C930 1.418 . S
C927 H906 0.929 . S
C927 C925 1.446 . S
C927 C928 1.332 . S
C928 H908 0.931 . S
C928 C927 1.332 . S
C928 C929 1.267 . S
C929 H897 0.929 . S
C929 C928 1.267 . S
C929 C930 1.251 . S
C930 H900 0.929 . S
C930 N926 1.418 . S
C930 C929 1.251 . S
C931 H898 0.930 . S
C931 C933 1.383 1_565 S
C931 C936 1.261 . S
C932 H899 0.930 . S
C932 N934 1.325 . S
C932 C935 1.357 1_545 S
C933 H901 0.938 . S
C933 C931 1.383 1_545 S
C933 N934 1.275 . S
N934 Co885 2.214 . S
N934 C932 1.325 . S
N934 C933 1.275 . S
C935 H905 0.931 . S
C935 C932 1.357 1_565 S
C935 C936 1.312 . S
C936 H907 0.930 . S
C936 C931 1.261 . S
C936 C935 1.312 . S
C937 O909 1.214 . S
C937 O917 1.234 . S
C938 H910 0.929 . S
C938 C941 1.391 . S
C938 C943 1.391 . S
C939 H911 0.929 . S
C939 C940 1.390 . S
C939 N942 1.391 . S
C940 H912 0.930 . S
C940 C939 1.390 . S
C940 C941 1.392 . S
C941 H913 0.929 . S
C941 C938 1.391 . S
C941 C940 1.392 . S
N942 Co886 2.257 . S
N942 C939 1.391 . S
N942 C943 1.388 . S
C943 H914 0.930 . S
C943 C938 1.391 . S
C943 N942 1.388 . S
Co944 O946 2.143 . S
Co944 O952 2.074 . S
Co944 O955 2.093 . S
Co944 O968 2.097 . S
Co944 N985 2.151 . S
Co944 N993 2.214 . S
Co945 O946 2.160 . S
Co945 O951 2.058 . S
Co945 O961 2.057 . S
Co945 O976 2.037 . S
Co945 N980 2.145 . S
Co945 N1001 2.257 . S
O946 Co944 2.143 . S
O946 Co945 2.160 . S
C947 O948 1.278 . S
C947 O955 1.224 . S
O948 C947 1.278 . S
C949 O950 1.245 . S
C949 O961 1.232 . S
O950 C949 1.245 . S
O951 Co945 2.058 . S
O951 C977 1.269 . S
O952 Co944 2.074 . S
O952 C977 1.257 . S
H953 C978 0.930 . S
H954 C984 0.930 . S
O955 Co944 2.093 . S
O955 C947 1.224 . S
H956 C988 0.929 . S
H957 C990 0.930 . S
H958 C991 0.930 . S
H959 C989 0.929 . S
H960 C992 0.928 . S
O961 Co945 2.057 . S
O961 C949 1.232 . S
H962 C981 0.929 . S
H963 C982 0.929 . S
H964 C994 0.931 . S
H965 C986 0.929 . S
H966 C995 0.930 . S
H967 C987 0.931 . S
O968 Co944 2.097 . S
O968 C996 1.214 . S
H969 C997 0.929 . S
H970 C998 0.929 . S
H971 C999 0.930 . S
H972 C1000 0.929 . S
H973 C1002 0.930 . S
H974 C979 0.930 . S
H975 C983 0.930 . S
O976 Co945 2.037 . S
O976 C996 1.234 . S
C977 O951 1.269 . S
C977 O952 1.257 . S
C978 H953 0.930 . S
C978 C981 1.388 . S
C978 C983 1.418 . S
C979 H974 0.930 . S
C979 C982 1.404 . S
C979 C983 1.353 . S
N980 Co945 2.145 . S
N980 C981 1.397 . S
N980 C982 1.334 . S
C981 H962 0.929 . S
C981 C978 1.388 . S
C981 N980 1.397 . S
C982 H963 0.929 . S
C982 C979 1.404 . S
C982 N980 1.334 . S
C983 H975 0.930 . S
C983 C978 1.418 . S
C983 C979 1.353 . S
C984 H954 0.930 . S
C984 N985 1.330 . S
C984 C986 1.446 . S
N985 Co944 2.151 . S
N985 C984 1.330 . S
N985 C989 1.418 . S
C986 H965 0.929 . S
C986 C984 1.446 . S
C986 C987 1.332 . S
C987 H967 0.931 . S
C987 C986 1.332 . S
C987 C988 1.267 . S
C988 H956 0.929 . S
C988 C987 1.267 . S
C988 C989 1.251 . S
C989 H959 0.929 . S
C989 N985 1.418 . S
C989 C988 1.251 . S
C990 H957 0.930 . S
C990 C992 1.406 . S
C990 C995 1.261 . S
C991 H958 0.930 . S
C991 N993 1.325 . S
C991 C994 1.357 . S
C992 H960 0.928 . S
C992 C990 1.406 . S
C992 N993 1.261 . S
N993 Co944 2.214 . S
N993 C991 1.325 . S
N993 C992 1.261 . S
C994 H964 0.931 . S
C994 C991 1.357 . S
C994 C995 1.312 . S
C995 H966 0.930 . S
C995 C990 1.261 . S
C995 C994 1.312 . S
C996 O968 1.214 . S
C996 O976 1.234 . S
C997 H969 0.929 . S
C997 C1000 1.391 . S
C997 C1002 1.391 . S
C998 H970 0.929 . S
C998 C999 1.390 . S
C998 N1001 1.391 . S
C999 H971 0.930 . S
C999 C998 1.390 . S
C999 C1000 1.392 . S
C1000 H972 0.929 . S
C1000 C997 1.391 . S
C1000 C999 1.392 . S
N1001 Co945 2.257 . S
N1001 C998 1.391 . S
N1001 C1002 1.388 . S
C1002 H973 0.930 . S
C1002 C997 1.391 . S
C1002 N1001 1.388 . S
Co1003 O1005 2.143 . S
Co1003 O1011 2.074 . S
Co1003 O1014 2.093 . S
Co1003 O1027 2.097 1_565 S
Co1003 N1044 2.151 . S
Co1003 N1052 2.214 . S
Co1004 O1005 2.160 1_545 S
Co1004 O1010 2.058 1_545 S
Co1004 O1020 2.057 . S
Co1004 O1035 2.037 . S
Co1004 N1039 2.145 . S
Co1004 N1060 2.257 . S
O1005 Co1003 2.143 . S
O1005 Co1004 2.160 1_565 S
C1006 O1007 1.278 . S
C1006 O1014 1.224 1_545 S
O1007 C1006 1.278 . S
C1008 O1009 1.245 1_545 S
C1008 O1020 1.232 . S
O1009 C1008 1.245 1_565 S
O1010 Co1004 2.058 1_565 S
O1010 C1036 1.269 . S
O1011 Co1003 2.074 . S
O1011 C1036 1.257 . S
H1012 C1037 0.930 . S
H1013 C1043 0.930 . S
O1014 Co1003 2.093 . S
O1014 C1006 1.224 1_565 S
H1015 C1047 0.929 . S
H1016 C1049 0.930 . S
H1017 C1050 0.930 . S
H1018 C1048 0.929 . S
H1019 C1051 0.928 . S
O1020 Co1004 2.057 . S
O1020 C1008 1.232 . S
H1021 C1040 0.929 . S
H1022 C1041 0.929 . S
H1023 C1053 0.931 . S
H1024 C1045 0.929 . S
H1025 C1054 0.930 . S
H1026 C1046 0.931 . S
O1027 Co1003 2.097 1_545 S
O1027 C1055 1.214 . S
H1028 C1056 0.929 . S
H1029 C1057 0.929 . S
H1030 C1058 0.930 . S
H1031 C1059 0.929 . S
H1032 C1061 0.930 . S
H1033 C1038 0.930 . S
H1034 C1042 0.930 . S
O1035 Co1004 2.037 . S
O1035 C1055 1.234 . S
C1036 O1010 1.269 . S
C1036 O1011 1.257 . S
C1037 H1012 0.930 . S
C1037 C1040 1.388 . S
C1037 C1042 1.418 . S
C1038 H1033 0.930 . S
C1038 C1041 1.404 . S
C1038 C1042 1.353 . S
N1039 Co1004 2.145 . S
N1039 C1040 1.397 . S
N1039 C1041 1.334 . S
C1040 H1021 0.929 . S
C1040 C1037 1.388 . S
C1040 N1039 1.397 . S
C1041 H1022 0.929 . S
C1041 C1038 1.404 . S
C1041 N1039 1.334 . S
C1042 H1034 0.930 . S
C1042 C1037 1.418 . S
C1042 C1038 1.353 . S
C1043 H1013 0.930 . S
C1043 N1044 1.330 . S
C1043 C1045 1.446 . S
N1044 Co1003 2.151 . S
N1044 C1043 1.330 . S
N1044 C1048 1.418 . S
C1045 H1024 0.929 . S
C1045 C1043 1.446 . S
C1045 C1046 1.332 . S
C1046 H1026 0.931 . S
C1046 C1045 1.332 . S
C1046 C1047 1.267 . S
C1047 H1015 0.929 . S
C1047 C1046 1.267 . S
C1047 C1048 1.251 . S
C1048 H1018 0.929 . S
C1048 N1044 1.418 . S
C1048 C1047 1.251 . S
C1049 H1016 0.930 . S
C1049 C1051 1.406 . S
C1049 C1054 1.261 . S
C1050 H1017 0.930 . S
C1050 N1052 1.325 . S
C1050 C1053 1.357 . S
C1051 H1019 0.928 . S
C1051 C1049 1.406 . S
C1051 N1052 1.261 . S
N1052 Co1003 2.214 . S
N1052 C1050 1.325 . S
N1052 C1051 1.261 . S
C1053 H1023 0.931 . S
C1053 C1050 1.357 . S
C1053 C1054 1.312 . S
C1054 H1025 0.930 . S
C1054 C1049 1.261 . S
C1054 C1053 1.312 . S
C1055 O1027 1.214 . S
C1055 O1035 1.234 . S
C1056 H1028 0.929 . S
C1056 C1059 1.391 . S
C1056 C1061 1.391 . S
C1057 H1029 0.929 . S
C1057 C1058 1.390 . S
C1057 N1060 1.391 . S
C1058 H1030 0.930 . S
C1058 C1057 1.390 . S
C1058 C1059 1.392 . S
C1059 H1031 0.929 . S
C1059 C1056 1.391 . S
C1059 C1058 1.392 . S
N1060 Co1004 2.257 . S
N1060 C1057 1.391 . S
N1060 C1061 1.388 . S
C1061 H1032 0.930 . S
C1061 C1056 1.391 . S
C1061 N1060 1.388 . S
Co1062 O1064 2.143 . S
Co1062 O1070 2.074 . S
Co1062 O1073 2.093 . S
Co1062 O1086 2.097 . S
Co1062 N1103 2.151 . S
Co1062 N1111 2.214 . S
Co1063 O1064 2.160 . S
Co1063 O1069 2.058 . S
Co1063 O1079 2.057 . S
Co1063 O1094 2.037 . S
Co1063 N1098 2.145 . S
Co1063 N1119 2.257 . S
O1064 Co1062 2.143 . S
O1064 Co1063 2.160 . S
C1065 O1066 1.278 . S
C1065 O1073 1.224 . S
O1066 C1065 1.278 . S
C1067 O1068 1.245 . S
C1067 O1079 1.232 . S
O1068 C1067 1.245 . S
O1069 Co1063 2.058 . S
O1069 C1095 1.269 . S
O1070 Co1062 2.074 . S
O1070 C1095 1.257 . S
H1071 C1096 0.930 . S
H1072 C1102 0.930 . S
O1073 Co1062 2.093 . S
O1073 C1065 1.224 . S
H1074 C1106 0.929 . S
H1075 C1108 0.930 . S
H1076 C1109 0.930 . S
H1077 C1107 0.929 . S
H1078 C1110 0.928 . S
O1079 Co1063 2.057 . S
O1079 C1067 1.232 . S
H1080 C1099 0.929 . S
H1081 C1100 0.929 . S
H1082 C1112 0.931 . S
H1083 C1104 0.929 . S
H1084 C1113 0.930 . S
H1085 C1105 0.931 . S
O1086 Co1062 2.097 . S
O1086 C1114 1.214 . S
H1087 C1115 0.929 . S
H1088 C1116 0.929 . S
H1089 C1117 0.930 . S
H1090 C1118 0.929 . S
H1091 C1120 0.930 . S
H1092 C1097 0.930 . S
H1093 C1101 0.930 . S
O1094 Co1063 2.037 . S
O1094 C1114 1.234 . S
C1095 O1069 1.269 . S
C1095 O1070 1.257 . S
C1096 H1071 0.930 . S
C1096 C1099 1.388 . S
C1096 C1101 1.418 . S
C1097 H1092 0.930 . S
C1097 C1100 1.404 . S
C1097 C1101 1.353 . S
N1098 Co1063 2.145 . S
N1098 C1099 1.397 . S
N1098 C1100 1.334 . S
C1099 H1080 0.929 . S
C1099 C1096 1.388 . S
C1099 N1098 1.397 . S
C1100 H1081 0.929 . S
C1100 C1097 1.404 . S
C1100 N1098 1.334 . S
C1101 H1093 0.930 . S
C1101 C1096 1.418 . S
C1101 C1097 1.353 . S
C1102 H1072 0.930 . S
C1102 N1103 1.330 . S
C1102 C1104 1.446 . S
N1103 Co1062 2.151 . S
N1103 C1102 1.330 . S
N1103 C1107 1.418 . S
C1104 H1083 0.929 . S
C1104 C1102 1.446 . S
C1104 C1105 1.332 . S
C1105 H1085 0.931 . S
C1105 C1104 1.332 . S
C1105 C1106 1.267 . S
C1106 H1074 0.929 . S
C1106 C1105 1.267 . S
C1106 C1107 1.251 . S
C1107 H1077 0.929 . S
C1107 N1103 1.418 . S
C1107 C1106 1.251 . S
C1108 H1075 0.930 . S
C1108 C1110 1.406 1_554 S
C1108 C1113 1.261 . S
C1109 H1076 0.930 . S
C1109 N1111 1.325 . S
C1109 C1112 1.357 1_556 S
C1110 H1078 0.928 . S
C1110 C1108 1.406 1_556 S
C1110 N1111 1.261 . S
N1111 Co1062 2.214 . S
N1111 C1109 1.325 . S
N1111 C1110 1.261 . S
C1112 H1082 0.931 . S
C1112 C1109 1.357 1_554 S
C1112 C1113 1.312 . S
C1113 H1084 0.930 . S
C1113 C1108 1.261 . S
C1113 C1112 1.312 . S
C1114 O1086 1.214 . S
C1114 O1094 1.234 . S
C1115 H1087 0.929 . S
C1115 C1118 1.391 . S
C1115 C1120 1.391 . S
C1116 H1088 0.929 . S
C1116 C1117 1.390 . S
C1116 N1119 1.391 . S
C1117 H1089 0.930 . S
C1117 C1116 1.390 . S
C1117 C1118 1.392 . S
C1118 H1090 0.929 . S
C1118 C1115 1.391 . S
C1118 C1117 1.392 . S
N1119 Co1063 2.257 . S
N1119 C1116 1.391 . S
N1119 C1120 1.388 . S
C1120 H1091 0.930 . S
C1120 C1115 1.391 . S
C1120 N1119 1.388 . S
Co1121 O1123 2.143 . S
Co1121 O1129 2.074 . S
Co1121 O1132 2.093 . S
Co1121 O1145 2.097 1_545 S
Co1121 N1162 2.151 . S
Co1121 N1170 2.214 . S
Co1122 O1123 2.160 1_565 S
Co1122 O1128 2.058 1_565 S
Co1122 O1138 2.057 . S
Co1122 O1153 2.037 . S
Co1122 N1157 2.145 . S
Co1122 N1178 2.257 . S
O1123 Co1121 2.143 . S
O1123 Co1122 2.160 1_545 S
C1124 O1125 1.278 . S
C1124 O1132 1.224 1_565 S
O1125 C1124 1.278 . S
C1126 O1127 1.245 1_565 S
C1126 O1138 1.232 . S
O1127 C1126 1.245 1_545 S
O1128 Co1122 2.058 1_545 S
O1128 C1154 1.269 . S
O1129 Co1121 2.074 . S
O1129 C1154 1.257 . S
H1130 C1155 0.930 . S
H1131 C1161 0.930 . S
O1132 Co1121 2.093 . S
O1132 C1124 1.224 1_545 S
H1133 C1165 0.929 . S
H1134 C1167 0.930 . S
H1135 C1168 0.930 . S
H1136 C1166 0.929 . S
H1137 C1169 0.928 . S
O1138 Co1122 2.057 . S
O1138 C1126 1.232 . S
H1139 C1158 0.929 . S
H1140 C1159 0.929 . S
H1141 C1171 0.931 . S
H1142 C1163 0.929 . S
H1143 C1172 0.930 . S
H1144 C1164 0.931 . S
O1145 Co1121 2.097 1_565 S
O1145 C1173 1.214 . S
H1146 C1174 0.929 . S
H1147 C1175 0.929 . S
H1148 C1176 0.930 . S
H1149 C1177 0.929 . S
H1150 C1179 0.930 . S
H1151 C1156 0.930 . S
H1152 C1160 0.930 . S
O1153 Co1122 2.037 . S
O1153 C1173 1.234 . S
C1154 O1128 1.269 . S
C1154 O1129 1.257 . S
C1155 H1130 0.930 . S
C1155 C1158 1.388 . S
C1155 C1160 1.418 . S
C1156 H1151 0.930 . S
C1156 C1159 1.404 . S
C1156 C1160 1.353 . S
N1157 Co1122 2.145 . S
N1157 C1158 1.397 . S
N1157 C1159 1.334 . S
C1158 H1139 0.929 . S
C1158 C1155 1.388 . S
C1158 N1157 1.397 . S
C1159 H1140 0.929 . S
C1159 C1156 1.404 . S
C1159 N1157 1.334 . S
C1160 H1152 0.930 . S
C1160 C1155 1.418 . S
C1160 C1156 1.353 . S
C1161 H1131 0.930 . S
C1161 N1162 1.330 . S
C1161 C1163 1.446 . S
N1162 Co1121 2.151 . S
N1162 C1161 1.330 . S
N1162 C1166 1.418 . S
C1163 H1142 0.929 . S
C1163 C1161 1.446 . S
C1163 C1164 1.332 . S
C1164 H1144 0.931 . S
C1164 C1163 1.332 . S
C1164 C1165 1.267 . S
C1165 H1133 0.929 . S
C1165 C1164 1.267 . S
C1165 C1166 1.251 . S
C1166 H1136 0.929 . S
C1166 N1162 1.418 . S
C1166 C1165 1.251 . S
C1167 H1134 0.930 . S
C1167 C1169 1.406 1_554 S
C1167 C1172 1.261 . S
C1168 H1135 0.930 . S
C1168 N1170 1.325 . S
C1168 C1171 1.357 1_556 S
C1169 H1137 0.928 . S
C1169 C1167 1.406 1_556 S
C1169 N1170 1.261 . S
N1170 Co1121 2.214 . S
N1170 C1168 1.325 . S
N1170 C1169 1.261 . S
C1171 H1141 0.931 . S
C1171 C1168 1.357 1_554 S
C1171 C1172 1.312 . S
C1172 H1143 0.930 . S
C1172 C1167 1.261 . S
C1172 C1171 1.312 . S
C1173 O1145 1.214 . S
C1173 O1153 1.234 . S
C1174 H1146 0.929 . S
C1174 C1177 1.391 . S
C1174 C1179 1.391 . S
C1175 H1147 0.929 . S
C1175 C1176 1.390 . S
C1175 N1178 1.391 . S
C1176 H1148 0.930 . S
C1176 C1175 1.390 . S
C1176 C1177 1.392 . S
C1177 H1149 0.929 . S
C1177 C1174 1.391 . S
C1177 C1176 1.392 . S
N1178 Co1122 2.257 . S
N1178 C1175 1.391 . S
N1178 C1179 1.388 . S
C1179 H1150 0.930 . S
C1179 C1174 1.391 . S
C1179 N1178 1.388 . S
Co1180 O1182 2.143 . S
Co1180 O1188 2.074 . S
Co1180 O1191 2.093 . S
Co1180 O1204 2.097 . S
Co1180 N1221 2.151 . S
Co1180 N1229 2.214 . S
Co1181 O1182 2.160 . S
Co1181 O1187 2.058 . S
Co1181 O1197 2.057 . S
Co1181 O1212 2.037 . S
Co1181 N1216 2.145 . S
Co1181 N1237 2.257 . S
O1182 Co1180 2.143 . S
O1182 Co1181 2.160 . S
C1183 O1184 1.278 . S
C1183 O1191 1.224 . S
O1184 C1183 1.278 . S
C1185 O1186 1.245 . S
C1185 O1197 1.232 . S
O1186 C1185 1.245 . S
O1187 Co1181 2.058 . S
O1187 C1213 1.269 . S
O1188 Co1180 2.074 . S
O1188 C1213 1.257 . S
H1189 C1214 0.930 . S
H1190 C1220 0.930 . S
O1191 Co1180 2.093 . S
O1191 C1183 1.224 . S
H1192 C1224 0.929 . S
H1193 C1226 0.930 . S
H1194 C1227 0.930 . S
H1195 C1225 0.929 . S
H1196 C1228 0.928 . S
O1197 Co1181 2.057 . S
O1197 C1185 1.232 . S
H1198 C1217 0.929 . S
H1199 C1218 0.929 . S
H1200 C1230 0.931 . S
H1201 C1222 0.929 . S
H1202 C1231 0.930 . S
H1203 C1223 0.931 . S
O1204 Co1180 2.097 . S
O1204 C1232 1.214 . S
H1205 C1233 0.929 . S
H1206 C1234 0.929 . S
H1207 C1235 0.930 . S
H1208 C1236 0.929 . S
H1209 C1238 0.930 . S
H1210 C1215 0.930 . S
H1211 C1219 0.930 . S
O1212 Co1181 2.037 . S
O1212 C1232 1.234 . S
C1213 O1187 1.269 . S
C1213 O1188 1.257 . S
C1214 H1189 0.930 . S
C1214 C1217 1.388 . S
C1214 C1219 1.418 . S
C1215 H1210 0.930 . S
C1215 C1218 1.404 . S
C1215 C1219 1.353 . S
N1216 Co1181 2.145 . S
N1216 C1217 1.397 . S
N1216 C1218 1.334 . S
C1217 H1198 0.929 . S
C1217 C1214 1.388 . S
C1217 N1216 1.397 . S
C1218 H1199 0.929 . S
C1218 C1215 1.404 . S
C1218 N1216 1.334 . S
C1219 H1211 0.930 . S
C1219 C1214 1.418 . S
C1219 C1215 1.353 . S
C1220 H1190 0.930 . S
C1220 N1221 1.330 . S
C1220 C1222 1.446 . S
N1221 Co1180 2.151 . S
N1221 C1220 1.330 . S
N1221 C1225 1.418 . S
C1222 H1201 0.929 . S
C1222 C1220 1.446 . S
C1222 C1223 1.332 . S
C1223 H1203 0.931 . S
C1223 C1222 1.332 . S
C1223 C1224 1.267 . S
C1224 H1192 0.929 . S
C1224 C1223 1.267 . S
C1224 C1225 1.251 . S
C1225 H1195 0.929 . S
C1225 N1221 1.418 . S
C1225 C1224 1.251 . S
C1226 H1193 0.930 . S
C1226 C1228 1.406 . S
C1226 C1231 1.261 . S
C1227 H1194 0.930 . S
C1227 N1229 1.325 . S
C1227 C1230 1.357 . S
C1228 H1196 0.928 . S
C1228 C1226 1.406 . S
C1228 N1229 1.261 . S
N1229 Co1180 2.214 . S
N1229 C1227 1.325 . S
N1229 C1228 1.261 . S
C1230 H1200 0.931 . S
C1230 C1227 1.357 . S
C1230 C1231 1.312 . S
C1231 H1202 0.930 . S
C1231 C1226 1.261 . S
C1231 C1230 1.312 . S
C1232 O1204 1.214 . S
C1232 O1212 1.234 . S
C1233 H1205 0.929 . S
C1233 C1236 1.391 . S
C1233 C1238 1.391 . S
C1234 H1206 0.929 . S
C1234 C1235 1.390 . S
C1234 N1237 1.391 . S
C1235 H1207 0.930 . S
C1235 C1234 1.390 . S
C1235 C1236 1.392 . S
C1236 H1208 0.929 . S
C1236 C1233 1.391 . S
C1236 C1235 1.392 . S
N1237 Co1181 2.257 . S
N1237 C1234 1.391 . S
N1237 C1238 1.388 . S
C1238 H1209 0.930 . S
C1238 C1233 1.391 . S
C1238 N1237 1.388 . S
Co1239 O1241 2.143 . S
Co1239 O1247 2.074 . S
Co1239 O1250 2.093 . S
Co1239 O1263 2.097 1_556 S
Co1239 N1280 2.151 . S
Co1239 N1288 2.214 . S
Co1240 O1241 2.160 1_554 S
Co1240 O1246 2.058 1_554 S
Co1240 O1256 2.057 . S
Co1240 O1271 2.037 . S
Co1240 N1275 2.145 . S
Co1240 N1296 2.257 . S
O1241 Co1239 2.143 . S
O1241 Co1240 2.160 1_556 S
C1242 O1243 1.278 . S
C1242 O1250 1.224 1_554 S
O1243 C1242 1.278 . S
C1244 O1245 1.245 1_554 S
C1244 O1256 1.232 . S
O1245 C1244 1.245 1_556 S
O1246 Co1240 2.058 1_556 S
O1246 C1272 1.269 . S
O1247 Co1239 2.074 . S
O1247 C1272 1.257 . S
H1248 C1273 0.930 . S
H1249 C1279 0.930 . S
O1250 Co1239 2.093 . S
O1250 C1242 1.224 1_556 S
H1251 C1283 0.929 . S
H1252 C1285 0.930 . S
H1253 C1286 0.930 . S
H1254 C1284 0.929 . S
H1255 C1287 0.928 . S
O1256 Co1240 2.057 . S
O1256 C1244 1.232 . S
H1257 C1276 0.929 . S
H1258 C1277 0.929 . S
H1259 C1289 0.931 . S
H1260 C1281 0.929 . S
H1261 C1290 0.930 . S
H1262 C1282 0.931 . S
O1263 Co1239 2.097 1_554 S
O1263 C1291 1.214 . S
H1264 C1292 0.929 . S
H1265 C1293 0.929 . S
H1266 C1294 0.930 . S
H1267 C1295 0.929 . S
H1268 C1297 0.930 . S
H1269 C1274 0.930 . S
H1270 C1278 0.930 . S
O1271 Co1240 2.037 . S
O1271 C1291 1.234 . S
C1272 O1246 1.269 . S
C1272 O1247 1.257 . S
C1273 H1248 0.930 . S
C1273 C1276 1.388 . S
C1273 C1278 1.418 . S
C1274 H1269 0.930 . S
C1274 C1277 1.404 . S
C1274 C1278 1.353 . S
N1275 Co1240 2.145 . S
N1275 C1276 1.397 . S
N1275 C1277 1.334 . S
C1276 H1257 0.929 . S
C1276 C1273 1.388 . S
C1276 N1275 1.397 . S
C1277 H1258 0.929 . S
C1277 C1274 1.404 . S
C1277 N1275 1.334 . S
C1278 H1270 0.930 . S
C1278 C1273 1.418 . S
C1278 C1274 1.353 . S
C1279 H1249 0.930 . S
C1279 N1280 1.330 . S
C1279 C1281 1.446 . S
N1280 Co1239 2.151 . S
N1280 C1279 1.330 . S
N1280 C1284 1.418 . S
C1281 H1260 0.929 . S
C1281 C1279 1.446 . S
C1281 C1282 1.332 . S
C1282 H1262 0.931 . S
C1282 C1281 1.332 . S
C1282 C1283 1.267 . S
C1283 H1251 0.929 . S
C1283 C1282 1.267 . S
C1283 C1284 1.251 . S
C1284 H1254 0.929 . S
C1284 N1280 1.418 . S
C1284 C1283 1.251 . S
C1285 H1252 0.930 . S
C1285 C1287 1.406 . S
C1285 C1290 1.261 . S
C1286 H1253 0.930 . S
C1286 N1288 1.325 . S
C1286 C1289 1.357 . S
C1287 H1255 0.928 . S
C1287 C1285 1.406 . S
C1287 N1288 1.261 . S
N1288 Co1239 2.214 . S
N1288 C1286 1.325 . S
N1288 C1287 1.261 . S
C1289 H1259 0.931 . S
C1289 C1286 1.357 . S
C1289 C1290 1.312 . S
C1290 H1261 0.930 . S
C1290 C1285 1.261 . S
C1290 C1289 1.312 . S
C1291 O1263 1.214 . S
C1291 O1271 1.234 . S
C1292 H1264 0.929 . S
C1292 C1295 1.391 . S
C1292 C1297 1.391 . S
C1293 H1265 0.929 . S
C1293 C1294 1.390 . S
C1293 N1296 1.391 . S
C1294 H1266 0.930 . S
C1294 C1293 1.390 . S
C1294 C1295 1.392 . S
C1295 H1267 0.929 . S
C1295 C1292 1.391 . S
C1295 C1294 1.392 . S
N1296 Co1240 2.257 . S
N1296 C1293 1.391 . S
N1296 C1297 1.388 . S
C1297 H1268 0.930 . S
C1297 C1292 1.391 . S
C1297 N1296 1.388 . S
Co1298 O1300 2.162 . S
Co1298 O1306 2.074 . S
Co1298 O1309 2.093 . S
Co1298 O1322 2.097 1_556 S
Co1298 N1339 2.151 . S
Co1298 N1347 2.214 . S
Co1299 O1300 2.141 1_554 S
Co1299 O1305 2.058 1_554 S
Co1299 O1315 2.057 . S
Co1299 O1330 2.037 . S
Co1299 N1334 2.145 . S
Co1299 N1355 2.257 . S
O1300 Co1298 2.162 . S
O1300 Co1299 2.141 1_556 S
C1301 O1302 1.278 . S
C1301 O1309 1.224 1_554 S
O1302 C1301 1.278 . S
C1303 O1304 1.245 1_554 S
C1303 O1315 1.232 . S
O1304 C1303 1.245 1_556 S
O1305 Co1299 2.058 1_556 S
O1305 C1331 1.269 . S
O1306 Co1298 2.074 . S
O1306 C1331 1.257 . S
H1307 C1332 0.930 . S
H1308 C1338 0.930 . S
O1309 Co1298 2.093 . S
O1309 C1301 1.224 1_556 S
H1310 C1342 0.929 . S
H1311 C1344 0.930 . S
H1312 C1345 0.930 . S
H1313 C1343 0.929 . S
H1314 C1346 0.928 . S
O1315 Co1299 2.057 . S
O1315 C1303 1.232 . S
H1316 C1335 0.929 . S
H1317 C1336 0.929 . S
H1318 C1348 0.931 . S
H1319 C1340 0.929 . S
H1320 C1349 0.930 . S
H1321 C1341 0.931 . S
O1322 Co1298 2.097 1_554 S
O1322 C1350 1.214 . S
H1323 C1351 0.929 . S
H1324 C1352 0.929 . S
H1325 C1353 0.930 . S
H1326 C1354 0.929 . S
H1327 C1356 0.930 . S
H1328 C1333 0.930 . S
H1329 C1337 0.930 . S
O1330 Co1299 2.037 . S
O1330 C1350 1.234 . S
C1331 O1305 1.269 . S
C1331 O1306 1.257 . S
C1332 H1307 0.930 . S
C1332 C1335 1.388 . S
C1332 C1337 1.418 . S
C1333 H1328 0.930 . S
C1333 C1336 1.404 . S
C1333 C1337 1.353 . S
N1334 Co1299 2.145 . S
N1334 C1335 1.397 . S
N1334 C1336 1.334 . S
C1335 H1316 0.929 . S
C1335 C1332 1.388 . S
C1335 N1334 1.397 . S
C1336 H1317 0.929 . S
C1336 C1333 1.404 . S
C1336 N1334 1.334 . S
C1337 H1329 0.930 . S
C1337 C1332 1.418 . S
C1337 C1333 1.353 . S
C1338 H1308 0.930 . S
C1338 N1339 1.330 . S
C1338 C1340 1.446 . S
N1339 Co1298 2.151 . S
N1339 C1338 1.330 . S
N1339 C1343 1.418 . S
C1340 H1319 0.929 . S
C1340 C1338 1.446 . S
C1340 C1341 1.332 . S
C1341 H1321 0.931 . S
C1341 C1340 1.332 . S
C1341 C1342 1.267 . S
C1342 H1310 0.929 . S
C1342 C1341 1.267 . S
C1342 C1343 1.251 . S
C1343 H1313 0.929 . S
C1343 N1339 1.418 . S
C1343 C1342 1.251 . S
C1344 H1311 0.930 . S
C1344 C1346 1.406 . S
C1344 C1349 1.261 . S
C1345 H1312 0.930 . S
C1345 N1347 1.325 . S
C1345 C1348 1.357 . S
C1346 H1314 0.928 . S
C1346 C1344 1.406 . S
C1346 N1347 1.261 . S
N1347 Co1298 2.214 . S
N1347 C1345 1.325 . S
N1347 C1346 1.261 . S
C1348 H1318 0.931 . S
C1348 C1345 1.357 . S
C1348 C1349 1.312 . S
C1349 H1320 0.930 . S
C1349 C1344 1.261 . S
C1349 C1348 1.312 . S
C1350 O1322 1.214 . S
C1350 O1330 1.234 . S
C1351 H1323 0.929 . S
C1351 C1354 1.391 . S
C1351 C1356 1.391 . S
C1352 H1324 0.929 . S
C1352 C1353 1.390 . S
C1352 N1355 1.391 . S
C1353 H1325 0.930 . S
C1353 C1352 1.390 . S
C1353 C1354 1.392 . S
C1354 H1326 0.929 . S
C1354 C1351 1.391 . S
C1354 C1353 1.392 . S
N1355 Co1299 2.257 . S
N1355 C1352 1.391 . S
N1355 C1356 1.388 . S
C1356 H1327 0.930 . S
C1356 C1351 1.391 . S
C1356 N1355 1.388 . S
Co1357 O1359 2.143 . S
Co1357 O1365 2.074 . S
Co1357 O1368 2.093 . S
Co1357 O1381 2.097 1_554 S
Co1357 N1398 2.151 . S
Co1357 N1406 2.214 . S
Co1358 O1359 2.160 1_556 S
Co1358 O1364 2.058 1_556 S
Co1358 O1374 2.057 . S
Co1358 O1389 2.037 . S
Co1358 N1393 2.145 . S
Co1358 N1414 2.257 . S
O1359 Co1357 2.143 . S
O1359 Co1358 2.160 1_554 S
C1360 O1361 1.278 . S
C1360 O1368 1.224 1_556 S
O1361 C1360 1.278 . S
C1362 O1363 1.245 1_556 S
C1362 O1374 1.232 . S
O1363 C1362 1.245 1_554 S
O1364 Co1358 2.058 1_554 S
O1364 C1390 1.269 . S
O1365 Co1357 2.074 . S
O1365 C1390 1.257 . S
H1366 C1391 0.930 . S
H1367 C1397 0.930 . S
O1368 Co1357 2.093 . S
O1368 C1360 1.224 1_554 S
H1369 C1401 0.929 . S
H1370 C1403 0.930 . S
H1371 C1404 0.930 . S
H1372 C1402 0.929 . S
H1373 C1405 0.928 . S
O1374 Co1358 2.057 . S
O1374 C1362 1.232 . S
H1375 C1394 0.929 . S
H1376 C1395 0.929 . S
H1377 C1407 0.931 . S
H1378 C1399 0.929 . S
H1379 C1408 0.930 . S
H1380 C1400 0.931 . S
O1381 Co1357 2.097 1_556 S
O1381 C1409 1.214 . S
H1382 C1410 0.929 . S
H1383 C1411 0.929 . S
H1384 C1412 0.930 . S
H1385 C1413 0.929 . S
H1386 C1415 0.930 . S
H1387 C1392 0.930 . S
H1388 C1396 0.930 . S
O1389 Co1358 2.037 . S
O1389 C1409 1.234 . S
C1390 O1364 1.269 . S
C1390 O1365 1.257 . S
C1391 H1366 0.930 . S
C1391 C1394 1.388 . S
C1391 C1396 1.418 . S
C1392 H1387 0.930 . S
C1392 C1395 1.404 . S
C1392 C1396 1.353 . S
N1393 Co1358 2.145 . S
N1393 C1394 1.397 . S
N1393 C1395 1.334 . S
C1394 H1375 0.929 . S
C1394 C1391 1.388 . S
C1394 N1393 1.397 . S
C1395 H1376 0.929 . S
C1395 C1392 1.404 . S
C1395 N1393 1.334 . S
C1396 H1388 0.930 . S
C1396 C1391 1.418 . S
C1396 C1392 1.353 . S
C1397 H1367 0.930 . S
C1397 N1398 1.330 . S
C1397 C1399 1.446 . S
N1398 Co1357 2.151 . S
N1398 C1397 1.330 . S
N1398 C1402 1.418 . S
C1399 H1378 0.929 . S
C1399 C1397 1.446 . S
C1399 C1400 1.332 . S
C1400 H1380 0.931 . S
C1400 C1399 1.332 . S
C1400 C1401 1.267 . S
C1401 H1369 0.929 . S
C1401 C1400 1.267 . S
C1401 C1402 1.251 . S
C1402 H1372 0.929 . S
C1402 N1398 1.418 . S
C1402 C1401 1.251 . S
C1403 H1370 0.930 . S
C1403 C1405 1.406 1_455 S
C1403 C1408 1.261 . S
C1404 H1371 0.930 . S
C1404 N1406 1.325 . S
C1404 C1407 1.357 1_655 S
C1405 H1373 0.928 . S
C1405 C1403 1.406 1_655 S
C1405 N1406 1.261 . S
N1406 Co1357 2.214 . S
N1406 C1404 1.325 . S
N1406 C1405 1.261 . S
C1407 H1377 0.931 . S
C1407 C1404 1.357 1_455 S
C1407 C1408 1.312 . S
C1408 H1379 0.930 . S
C1408 C1403 1.261 . S
C1408 C1407 1.312 . S
C1409 O1381 1.214 . S
C1409 O1389 1.234 . S
C1410 H1382 0.929 . S
C1410 C1413 1.391 . S
C1410 C1415 1.391 . S
C1411 H1383 0.929 . S
C1411 C1412 1.390 . S
C1411 N1414 1.391 . S
C1412 H1384 0.930 . S
C1412 C1411 1.390 . S
C1412 C1413 1.392 . S
C1413 H1385 0.929 . S
C1413 C1410 1.391 . S
C1413 C1412 1.392 . S
N1414 Co1358 2.257 . S
N1414 C1411 1.391 . S
N1414 C1415 1.388 . S
C1415 H1386 0.930 . S
C1415 C1410 1.391 . S
C1415 N1414 1.388 . S
H1416 C1424 0.950 . S
H1417 C1429 0.947 1_565 S
H1418 C1426 0.950 . S
H1419 C1428 0.950 . S
H1420 C1430 0.950 . S
H1421 C1432 0.950 . S
H1422 C1434 0.950 . S
H1423 C1435 0.950 . S
C1424 H1416 0.950 . S
C1424 C1425 1.386 . S
C1424 C1426 1.391 . S
C1425 C1424 1.386 . S
C1425 C1429 1.393 . S
C1426 H1418 0.950 . S
C1426 C1424 1.391 . S
C1426 C1427 1.400 . S
C1427 C1426 1.400 . S
C1427 C1428 1.398 . S
C1427 C1433 1.491 . S
C1428 H1419 0.950 . S
C1428 C1427 1.398 . S
C1428 C1429 1.391 . S
C1429 H1417 0.947 1_545 S
C1429 C1425 1.393 . S
C1429 C1428 1.391 . S
C1430 H1420 0.950 . S
C1430 C1431 1.386 . S
C1430 C1432 1.391 . S
C1431 C1430 1.386 . S
C1431 C1435 1.393 . S
C1432 H1421 0.950 . S
C1432 C1430 1.391 . S
C1432 C1433 1.400 . S
C1433 C1427 1.491 . S
C1433 C1432 1.400 . S
C1433 C1434 1.398 . S
C1434 H1422 0.950 . S
C1434 C1433 1.398 . S
C1434 C1435 1.391 . S
C1435 H1423 0.950 . S
C1435 C1431 1.393 . S
C1435 C1434 1.391 . S
H1436 C1444 0.950 . S
H1437 C1449 0.950 . S
H1438 C1446 0.950 . S
H1439 C1448 0.950 . S
H1440 C1450 0.950 . S
H1441 C1452 0.950 . S
H1442 C1454 0.950 . S
H1443 C1455 0.950 . S
C1444 H1436 0.950 . S
C1444 C1445 1.386 . S
C1444 C1446 1.391 . S
C1445 C1444 1.386 . S
C1445 C1449 1.393 . S
C1446 H1438 0.950 . S
C1446 C1444 1.391 . S
C1446 C1447 1.400 . S
C1447 C1446 1.400 . S
C1447 C1448 1.398 . S
C1447 C1453 1.491 . S
C1448 H1439 0.950 . S
C1448 C1447 1.398 . S
C1448 C1449 1.391 . S
C1449 H1437 0.950 . S
C1449 C1445 1.393 . S
C1449 C1448 1.391 . S
C1450 H1440 0.950 . S
C1450 C1451 1.386 . S
C1450 C1452 1.391 . S
C1451 C1450 1.386 . S
C1451 C1455 1.393 . S
C1452 H1441 0.950 . S
C1452 C1450 1.391 . S
C1452 C1453 1.400 . S
C1453 C1447 1.491 . S
C1453 C1452 1.400 . S
C1453 C1454 1.398 . S
C1454 H1442 0.950 . S
C1454 C1453 1.398 . S
C1454 C1455 1.391 . S
C1455 H1443 0.950 . S
C1455 C1451 1.393 . S
C1455 C1454 1.391 . S
H1456 C1464 0.950 . S
H1457 C1469 0.950 . S
H1458 C1466 0.950 . S
H1459 C1468 0.950 . S
H1460 C1470 0.950 . S
H1461 C1472 0.950 . S
H1462 C1474 0.950 . S
H1463 C1475 0.950 . S
C1464 H1456 0.950 . S
C1464 C1465 1.386 . S
C1464 C1466 1.391 . S
C1465 C1464 1.386 . S
C1465 C1469 1.393 . S
C1466 H1458 0.950 . S
C1466 C1464 1.391 . S
C1466 C1467 1.400 . S
C1467 C1466 1.400 . S
C1467 C1468 1.398 . S
C1467 C1473 1.491 . S
C1468 H1459 0.950 . S
C1468 C1467 1.398 . S
C1468 C1469 1.391 . S
C1469 H1457 0.950 . S
C1469 C1465 1.393 . S
C1469 C1468 1.391 . S
C1470 H1460 0.950 . S
C1470 C1471 1.386 . S
C1470 C1472 1.391 1_556 S
C1471 C1470 1.386 . S
C1471 C1475 1.393 . S
C1472 H1461 0.950 . S
C1472 C1470 1.391 1_554 S
C1472 C1473 1.400 . S
C1473 C1467 1.491 . S
C1473 C1472 1.400 . S
C1473 C1474 1.398 1_554 S
C1474 H1462 0.950 . S
C1474 C1473 1.398 1_556 S
C1474 C1475 1.391 . S
C1475 H1463 0.950 . S
C1475 C1471 1.393 . S
C1475 C1474 1.391 . S
H1476 C1484 0.950 . S
H1477 C1489 0.950 . S
H1478 C1486 0.950 . S
H1479 C1488 0.950 . S
H1480 C1490 0.950 . S
H1481 C1492 0.950 . S
H1482 C1494 0.969 . S
H1483 C1495 0.950 . S
C1484 H1476 0.950 . S
C1484 C1485 1.386 . S
C1484 C1486 1.391 . S
C1485 C1484 1.386 . S
C1485 C1489 1.393 . S
C1486 H1478 0.950 . S
C1486 C1484 1.391 . S
C1486 C1487 1.400 . S
C1487 C1486 1.400 . S
C1487 C1488 1.398 . S
C1487 C1493 1.491 . S
C1488 H1479 0.950 . S
C1488 C1487 1.398 . S
C1488 C1489 1.391 . S
C1489 H1477 0.950 . S
C1489 C1485 1.393 . S
C1489 C1488 1.391 . S
C1490 H1480 0.950 . S
C1490 C1491 1.386 . S
C1490 C1492 1.391 . S
C1491 C1490 1.386 . S
C1491 C1495 1.393 . S
C1492 H1481 0.950 . S
C1492 C1490 1.391 . S
C1492 C1493 1.400 1_556 S
C1493 C1487 1.491 . S
C1493 C1492 1.400 1_554 S
C1493 C1494 1.410 . S
C1494 H1482 0.969 . S
C1494 C1493 1.410 . S
C1494 C1495 1.361 1_554 S
C1495 H1483 0.950 . S
C1495 C1491 1.393 . S
C1495 C1494 1.361 1_556 S
H1496 C1504 0.950 . S
H1497 C1509 0.950 . S
H1498 C1506 0.950 . S
H1499 C1508 0.950 . S
H1500 C1510 0.931 1_556 S
H1501 C1512 0.950 . S
H1502 C1514 0.950 . S
H1503 C1515 0.950 . S
C1504 H1496 0.950 . S
C1504 C1505 1.386 . S
C1504 C1506 1.391 . S
C1505 C1504 1.386 . S
C1505 C1509 1.393 . S
C1506 H1498 0.950 . S
C1506 C1504 1.391 . S
C1506 C1507 1.400 . S
C1507 C1506 1.400 . S
C1507 C1508 1.398 . S
C1507 C1513 1.491 . S
C1508 H1499 0.950 . S
C1508 C1507 1.398 . S
C1508 C1509 1.391 . S
C1509 H1497 0.950 . S
C1509 C1505 1.393 . S
C1509 C1508 1.391 . S
C1510 H1500 0.931 1_554 S
C1510 C1511 1.386 . S
C1510 C1512 1.391 . S
C1511 C1510 1.386 . S
C1511 C1515 1.393 . S
C1512 H1501 0.950 . S
C1512 C1510 1.391 . S
C1512 C1513 1.400 . S
C1513 C1507 1.491 . S
C1513 C1512 1.400 . S
C1513 C1514 1.398 . S
C1514 H1502 0.950 . S
C1514 C1513 1.398 . S
C1514 C1515 1.391 . S
C1515 H1503 0.950 . S
C1515 C1511 1.393 . S
C1515 C1514 1.391 . S
H1516 C1524 0.950 . S
H1517 C1529 0.950 . S
H1518 C1526 0.950 . S
H1519 C1528 0.950 . S
H1520 C1530 0.950 . S
H1521 C1532 0.950 . S
H1522 C1534 0.950 . S
H1523 C1535 0.950 . S
C1524 H1516 0.950 . S
C1524 C1525 1.386 . S
C1524 C1526 1.391 . S
C1525 C1524 1.386 . S
C1525 C1529 1.393 . S
C1526 H1518 0.950 . S
C1526 C1524 1.391 . S
C1526 C1527 1.400 . S
C1527 C1526 1.400 . S
C1527 C1528 1.398 . S
C1527 C1533 1.491 . S
C1528 H1519 0.950 . S
C1528 C1527 1.398 . S
C1528 C1529 1.391 . S
C1529 H1517 0.950 . S
C1529 C1525 1.393 . S
C1529 C1528 1.391 . S
C1530 H1520 0.950 . S
C1530 C1531 1.386 . S
C1530 C1532 1.391 . S
C1531 C1530 1.386 . S
C1531 C1535 1.393 . S
C1532 H1521 0.950 . S
C1532 C1530 1.391 . S
C1532 C1533 1.400 . S
C1533 C1527 1.491 . S
C1533 C1532 1.400 . S
C1533 C1534 1.398 . S
C1534 H1522 0.950 . S
C1534 C1533 1.398 . S
C1534 C1535 1.391 . S
C1535 H1523 0.950 . S
C1535 C1531 1.393 . S
C1535 C1534 1.391 . S
H1536 C1544 0.950 . S
H1537 C1549 0.950 . S
H1538 C1546 0.950 . S
H1539 C1548 0.950 . S
H1540 C1550 0.950 . S
H1541 C1552 0.950 . S
H1542 C1554 0.950 . S
H1543 C1555 0.950 . S
C1544 H1536 0.950 . S
C1544 C1545 1.386 . S
C1544 C1546 1.391 . S
C1545 C1544 1.386 . S
C1545 C1549 1.393 . S
C1546 H1538 0.950 . S
C1546 C1544 1.391 . S
C1546 C1547 1.400 . S
C1547 C1546 1.400 . S
C1547 C1548 1.398 . S
C1547 C1553 1.491 . S
C1548 H1539 0.950 . S
C1548 C1547 1.398 . S
C1548 C1549 1.391 . S
C1549 H1537 0.950 . S
C1549 C1545 1.393 . S
C1549 C1548 1.391 . S
C1550 H1540 0.950 . S
C1550 C1551 1.386 . S
C1550 C1552 1.391 . S
C1551 C1550 1.386 . S
C1551 C1555 1.393 . S
C1552 H1541 0.950 . S
C1552 C1550 1.391 . S
C1552 C1553 1.400 . S
C1553 C1547 1.491 . S
C1553 C1552 1.400 . S
C1553 C1554 1.398 . S
C1554 H1542 0.950 . S
C1554 C1553 1.398 . S
C1554 C1555 1.391 . S
C1555 H1543 0.950 . S
C1555 C1551 1.393 . S
C1555 C1554 1.391 . S
H1556 C1564 0.950 . S
H1557 C1569 0.950 . S
H1558 C1566 0.950 . S
H1559 C1568 0.950 . S
H1560 C1570 0.950 . S
H1561 C1572 0.950 . S
H1562 C1574 0.950 . S
H1563 C1575 0.950 . S
C1564 H1556 0.950 . S
C1564 C1565 1.386 . S
C1564 C1566 1.391 . S
C1565 C1564 1.386 . S
C1565 C1569 1.393 . S
C1566 H1558 0.950 . S
C1566 C1564 1.391 . S
C1566 C1567 1.400 . S
C1567 C1566 1.400 . S
C1567 C1568 1.398 . S
C1567 C1573 1.491 . S
C1568 H1559 0.950 . S
C1568 C1567 1.398 . S
C1568 C1569 1.391 . S
C1569 H1557 0.950 . S
C1569 C1565 1.393 . S
C1569 C1568 1.391 . S
C1570 H1560 0.950 . S
C1570 C1571 1.386 . S
C1570 C1572 1.391 . S
C1571 C1570 1.386 . S
C1571 C1575 1.393 . S
C1572 H1561 0.950 . S
C1572 C1570 1.391 . S
C1572 C1573 1.400 . S
C1573 C1567 1.491 . S
C1573 C1572 1.400 . S
C1573 C1574 1.398 . S
C1574 H1562 0.950 . S
C1574 C1573 1.398 . S
C1574 C1575 1.391 . S
C1575 H1563 0.950 . S
C1575 C1571 1.393 . S
C1575 C1574 1.391 . S
H1576 C1584 0.950 . S
H1577 C1589 0.950 . S
H1578 C1586 0.950 . S
H1579 C1588 0.950 . S
H1580 C1590 0.950 1_655 S
H1581 C1592 0.950 . S
H1582 C1594 0.950 . S
H1583 C1595 0.950 . S
C1584 H1576 0.950 . S
C1584 C1585 1.386 . S
C1584 C1586 1.391 . S
C1585 C1584 1.386 . S
C1585 C1589 1.393 . S
C1586 H1578 0.950 . S
C1586 C1584 1.391 . S
C1586 C1587 1.400 . S
C1587 C1586 1.400 . S
C1587 C1588 1.398 . S
C1587 C1593 1.491 . S
C1588 H1579 0.950 . S
C1588 C1587 1.398 . S
C1588 C1589 1.391 . S
C1589 H1577 0.950 . S
C1589 C1585 1.393 . S
C1589 C1588 1.391 . S
C1590 H1580 0.950 1_455 S
C1590 C1591 1.386 . S
C1590 C1592 1.391 . S
C1591 C1590 1.386 . S
C1591 C1595 1.393 . S
C1592 H1581 0.950 . S
C1592 C1590 1.391 . S
C1592 C1593 1.400 . S
C1593 C1587 1.491 . S
C1593 C1592 1.400 . S
C1593 C1594 1.398 . S
C1594 H1582 0.950 . S
C1594 C1593 1.398 . S
C1594 C1595 1.391 . S
C1595 H1583 0.950 . S
C1595 C1591 1.393 . S
C1595 C1594 1.391 . S
H1596 C1604 0.939 1_655 S
H1597 C1609 0.950 . S
H1598 C1606 0.950 . S
H1599 C1608 0.950 . S
H1600 C1610 0.950 . S
H1601 C1612 0.950 . S
H1602 C1614 0.950 . S
H1603 C1615 0.950 . S
C1604 H1596 0.939 1_455 S
C1604 C1605 1.386 . S
C1604 C1606 1.391 . S
C1605 C1604 1.386 . S
C1605 C1609 1.393 . S
C1606 H1598 0.950 . S
C1606 C1604 1.391 . S
C1606 C1607 1.400 . S
C1607 C1606 1.400 . S
C1607 C1608 1.398 . S
C1607 C1613 1.491 . S
C1608 H1599 0.950 . S
C1608 C1607 1.398 . S
C1608 C1609 1.391 . S
C1609 H1597 0.950 . S
C1609 C1605 1.393 . S
C1609 C1608 1.391 . S
C1610 H1600 0.950 . S
C1610 C1611 1.386 . S
C1610 C1612 1.391 . S
C1611 C1610 1.386 . S
C1611 C1615 1.393 . S
C1612 H1601 0.950 . S
C1612 C1610 1.391 . S
C1612 C1613 1.400 . S
C1613 C1607 1.491 . S
C1613 C1612 1.400 . S
C1613 C1614 1.398 . S
C1614 H1602 0.950 . S
C1614 C1613 1.398 . S
C1614 C1615 1.391 . S
C1615 H1603 0.950 . S
C1615 C1611 1.393 . S
C1615 C1614 1.391 . S
H1616 C1624 0.950 . S
H1617 C1629 0.950 . S
H1618 C1626 0.950 . S
H1619 C1628 0.950 . S
H1620 C1630 0.950 . S
H1621 C1632 0.950 . S
H1622 C1634 0.950 . S
H1623 C1635 0.950 . S
C1624 H1616 0.950 . S
C1624 C1625 1.386 . S
C1624 C1626 1.391 . S
C1625 C1624 1.386 . S
C1625 C1629 1.393 . S
C1626 H1618 0.950 . S
C1626 C1624 1.391 . S
C1626 C1627 1.400 . S
C1627 C1626 1.400 . S
C1627 C1628 1.398 . S
C1627 C1633 1.491 . S
C1628 H1619 0.950 . S
C1628 C1627 1.398 . S
C1628 C1629 1.391 . S
C1629 H1617 0.950 . S
C1629 C1625 1.393 . S
C1629 C1628 1.391 . S
C1630 H1620 0.950 . S
C1630 C1631 1.386 . S
C1630 C1632 1.391 . S
C1631 C1630 1.386 . S
C1631 C1635 1.393 . S
C1632 H1621 0.950 . S
C1632 C1630 1.391 . S
C1632 C1633 1.400 1_545 S
C1633 C1627 1.491 . S
C1633 C1632 1.400 1_565 S
C1633 C1634 1.398 . S
C1634 H1622 0.950 . S
C1634 C1633 1.398 . S
C1634 C1635 1.391 1_565 S
C1635 H1623 0.950 . S
C1635 C1631 1.393 . S
C1635 C1634 1.391 1_545 S
H1636 C1644 0.950 . S
H1637 C1649 0.950 . S
H1638 C1646 0.950 . S
H1639 C1648 0.950 . S
H1640 C1650 0.950 . S
H1641 C1652 0.950 . S
H1642 C1654 0.950 . S
H1643 C1655 0.950 . S
C1644 H1636 0.950 . S
C1644 C1645 1.386 . S
C1644 C1646 1.391 . S
C1645 C1644 1.386 . S
C1645 C1649 1.393 . S
C1646 H1638 0.950 . S
C1646 C1644 1.391 . S
C1646 C1647 1.400 . S
C1647 C1646 1.400 . S
C1647 C1648 1.398 . S
C1647 C1653 1.491 . S
C1648 H1639 0.950 . S
C1648 C1647 1.398 . S
C1648 C1649 1.391 . S
C1649 H1637 0.950 . S
C1649 C1645 1.393 . S
C1649 C1648 1.391 . S
C1650 H1640 0.950 . S
C1650 C1651 1.386 . S
C1650 C1652 1.391 . S
C1651 C1650 1.386 . S
C1651 C1655 1.393 . S
C1652 H1641 0.950 . S
C1652 C1650 1.391 . S
C1652 C1653 1.400 . S
C1653 C1647 1.491 . S
C1653 C1652 1.400 . S
C1653 C1654 1.398 . S
C1654 H1642 0.950 . S
C1654 C1653 1.398 . S
C1654 C1655 1.391 . S
C1655 H1643 0.950 . S
C1655 C1651 1.393 . S
C1655 C1654 1.391 . S
H1656 C1664 0.950 . S
H1657 C1669 0.950 . S
H1658 C1666 0.950 . S
H1659 C1668 0.944 1_556 S
H1660 C1670 0.950 . S
H1661 C1672 0.950 . S
H1662 C1674 0.950 . S
H1663 C1675 0.950 . S
C1664 H1656 0.950 . S
C1664 C1665 1.386 . S
C1664 C1666 1.391 1_554 S
C1665 C1664 1.386 . S
C1665 C1669 1.393 . S
C1666 H1658 0.950 . S
C1666 C1664 1.391 1_556 S
C1666 C1667 1.400 . S
C1667 C1666 1.400 . S
C1667 C1668 1.398 1_556 S
C1667 C1673 1.491 . S
C1668 H1659 0.944 1_554 S
C1668 C1667 1.398 1_554 S
C1668 C1669 1.391 . S
C1669 H1657 0.950 . S
C1669 C1665 1.393 . S
C1669 C1668 1.391 . S
C1670 H1660 0.950 . S
C1670 C1671 1.386 . S
C1670 C1672 1.391 . S
C1671 C1670 1.386 . S
C1671 C1675 1.393 . S
C1672 H1661 0.950 . S
C1672 C1670 1.391 . S
C1672 C1673 1.400 . S
C1673 C1667 1.491 . S
C1673 C1672 1.400 . S
C1673 C1674 1.398 . S
C1674 H1662 0.950 . S
C1674 C1673 1.398 . S
C1674 C1675 1.391 . S
C1675 H1663 0.950 . S
C1675 C1671 1.393 . S
C1675 C1674 1.391 . S
H1676 C1684 0.946 1_556 S
H1677 C1689 0.950 . S
H1678 C1686 0.950 . S
H1679 C1688 0.950 . S
H1680 C1690 0.950 . S
H1681 C1692 0.950 . S
H1682 C1694 0.950 . S
H1683 C1695 0.950 . S
C1684 H1676 0.946 1_554 S
C1684 C1685 1.404 . S
C1684 C1686 1.376 1_554 S
C1685 C1684 1.404 . S
C1685 C1689 1.393 . S
C1686 H1678 0.950 . S
C1686 C1684 1.376 1_556 S
C1686 C1687 1.400 . S
C1687 C1686 1.400 . S
C1687 C1688 1.398 1_556 S
C1687 C1693 1.491 . S
C1688 H1679 0.950 . S
C1688 C1687 1.398 1_554 S
C1688 C1689 1.391 . S
C1689 H1677 0.950 . S
C1689 C1685 1.393 . S
C1689 C1688 1.391 . S
C1690 H1680 0.950 . S
C1690 C1691 1.386 . S
C1690 C1692 1.391 . S
C1691 C1690 1.386 . S
C1691 C1695 1.393 . S
C1692 H1681 0.950 . S
C1692 C1690 1.391 . S
C1692 C1693 1.400 . S
C1693 C1687 1.491 . S
C1693 C1692 1.400 . S
C1693 C1694 1.398 . S
C1694 H1682 0.950 . S
C1694 C1693 1.398 . S
C1694 C1695 1.391 . S
C1695 H1683 0.950 . S
C1695 C1691 1.393 . S
C1695 C1694 1.391 . S
H1696 C1704 0.950 . S
H1697 C1709 0.950 . S
H1698 C1706 0.950 . S
H1699 C1708 0.950 . S
H1700 C1710 0.950 . S
H1701 C1712 0.950 . S
H1702 C1714 0.950 . S
H1703 C1715 0.950 . S
C1704 H1696 0.950 . S
C1704 C1705 1.386 . S
C1704 C1706 1.391 . S
C1705 C1704 1.386 . S
C1705 C1709 1.393 . S
C1706 H1698 0.950 . S
C1706 C1704 1.391 . S
C1706 C1707 1.400 . S
C1707 C1706 1.400 . S
C1707 C1708 1.398 . S
C1707 C1713 1.491 . S
C1708 H1699 0.950 . S
C1708 C1707 1.398 . S
C1708 C1709 1.391 . S
C1709 H1697 0.950 . S
C1709 C1705 1.393 . S
C1709 C1708 1.391 . S
C1710 H1700 0.950 . S
C1710 C1711 1.386 . S
C1710 C1712 1.391 . S
C1711 C1710 1.386 . S
C1711 C1715 1.393 . S
C1712 H1701 0.950 . S
C1712 C1710 1.391 . S
C1712 C1713 1.400 . S
C1713 C1707 1.491 . S
C1713 C1712 1.400 . S
C1713 C1714 1.398 . S
C1714 H1702 0.950 . S
C1714 C1713 1.398 . S
C1714 C1715 1.391 . S
C1715 H1703 0.950 . S
C1715 C1711 1.393 . S
C1715 C1714 1.391 . S
H1716 C1724 0.950 . S
H1717 C1729 0.950 . S
H1718 C1726 0.950 . S
H1719 C1728 0.950 . S
H1720 C1730 0.950 . S
H1721 C1732 0.950 . S
H1722 C1734 0.950 . S
H1723 C1735 0.950 . S
C1724 H1716 0.950 . S
C1724 C1725 1.386 . S
C1724 C1726 1.391 . S
C1725 C1724 1.386 . S
C1725 C1729 1.393 . S
C1726 H1718 0.950 . S
C1726 C1724 1.391 . S
C1726 C1727 1.400 . S
C1727 C1726 1.400 . S
C1727 C1728 1.398 . S
C1727 C1733 1.491 . S
C1728 H1719 0.950 . S
C1728 C1727 1.398 . S
C1728 C1729 1.391 . S
C1729 H1717 0.950 . S
C1729 C1725 1.393 . S
C1729 C1728 1.391 . S
C1730 H1720 0.950 . S
C1730 C1731 1.386 . S
C1730 C1732 1.391 . S
C1731 C1730 1.386 . S
C1731 C1735 1.393 . S
C1732 H1721 0.950 . S
C1732 C1730 1.391 . S
C1732 C1733 1.400 . S
C1733 C1727 1.491 . S
C1733 C1732 1.400 . S
C1733 C1734 1.398 . S
C1734 H1722 0.950 . S
C1734 C1733 1.398 . S
C1734 C1735 1.391 . S
C1735 H1723 0.950 . S
C1735 C1731 1.393 . S
C1735 C1734 1.391 . S
H1736 C1744 0.950 . S
H1737 C1749 0.950 . S
H1738 C1746 0.950 . S
H1739 C1748 0.950 . S
H1740 C1750 0.950 . S
H1741 C1752 0.950 . S
H1742 C1754 0.950 . S
H1743 C1755 0.950 . S
C1744 H1736 0.950 . S
C1744 C1745 1.386 . S
C1744 C1746 1.391 1_455 S
C1745 C1744 1.386 . S
C1745 C1749 1.393 . S
C1746 H1738 0.950 . S
C1746 C1744 1.391 1_655 S
C1746 C1747 1.400 . S
C1747 C1746 1.400 . S
C1747 C1748 1.398 1_655 S
C1747 C1753 1.491 . S
C1748 H1739 0.950 . S
C1748 C1747 1.398 1_455 S
C1748 C1749 1.391 . S
C1749 H1737 0.950 . S
C1749 C1745 1.393 . S
C1749 C1748 1.391 . S
C1750 H1740 0.950 . S
C1750 C1751 1.386 . S
C1750 C1752 1.391 . S
C1751 C1750 1.386 . S
C1751 C1755 1.393 . S
C1752 H1741 0.950 . S
C1752 C1750 1.391 . S
C1752 C1753 1.400 . S
C1753 C1747 1.491 . S
C1753 C1752 1.400 . S
C1753 C1754 1.398 . S
C1754 H1742 0.950 . S
C1754 C1753 1.398 . S
C1754 C1755 1.391 . S
C1755 H1743 0.950 . S
C1755 C1751 1.393 . S
C1755 C1754 1.391 . S
H1756 C1764 0.950 . S
H1757 C1769 0.950 . S
H1758 C1766 0.950 . S
H1759 C1768 0.950 . S
H1760 C1770 0.950 . S
H1761 C1772 0.950 . S
H1762 C1774 0.950 . S
H1763 C1775 0.950 . S
C1764 H1756 0.950 . S
C1764 C1765 1.386 . S
C1764 C1766 1.391 1_655 S
C1765 C1764 1.386 . S
C1765 C1769 1.393 . S
C1766 H1758 0.950 . S
C1766 C1764 1.391 1_455 S
C1766 C1767 1.400 . S
C1767 C1766 1.400 . S
C1767 C1768 1.398 1_455 S
C1767 C1773 1.491 . S
C1768 H1759 0.950 . S
C1768 C1767 1.398 1_655 S
C1768 C1769 1.391 . S
C1769 H1757 0.950 . S
C1769 C1765 1.393 . S
C1769 C1768 1.391 . S
C1770 H1760 0.950 . S
C1770 C1771 1.386 . S
C1770 C1772 1.391 . S
C1771 C1770 1.386 . S
C1771 C1775 1.393 . S
C1772 H1761 0.950 . S
C1772 C1770 1.391 . S
C1772 C1773 1.400 . S
C1773 C1767 1.491 . S
C1773 C1772 1.400 . S
C1773 C1774 1.398 . S
C1774 H1762 0.950 . S
C1774 C1773 1.398 . S
C1774 C1775 1.391 . S
C1775 H1763 0.950 . S
C1775 C1771 1.393 . S
C1775 C1774 1.391 . S
H1776 C1784 0.950 . S
H1777 C1789 0.950 . S
H1778 C1786 0.950 . S
H1779 C1788 0.950 . S
H1780 C1790 0.950 . S
H1781 C1792 0.950 . S
H1782 C1794 0.950 . S
H1783 C1795 0.950 . S
C1784 H1776 0.950 . S
C1784 C1785 1.386 . S
C1784 C1786 1.391 1_455 S
C1785 C1784 1.386 . S
C1785 C1789 1.393 . S
C1786 H1778 0.950 . S
C1786 C1784 1.391 1_655 S
C1786 C1787 1.400 . S
C1787 C1786 1.400 . S
C1787 C1788 1.398 1_655 S
C1787 C1793 1.491 . S
C1788 H1779 0.950 . S
C1788 C1787 1.398 1_455 S
C1788 C1789 1.391 . S
C1789 H1777 0.950 . S
C1789 C1785 1.393 . S
C1789 C1788 1.391 . S
C1790 H1780 0.950 . S
C1790 C1791 1.386 . S
C1790 C1792 1.391 . S
C1791 C1790 1.386 . S
C1791 C1795 1.393 . S
C1792 H1781 0.950 . S
C1792 C1790 1.391 . S
C1792 C1793 1.400 . S
C1793 C1787 1.491 . S
C1793 C1792 1.400 . S
C1793 C1794 1.398 . S
C1794 H1782 0.950 . S
C1794 C1793 1.398 . S
C1794 C1795 1.391 . S
C1795 H1783 0.950 . S
C1795 C1791 1.393 . S
C1795 C1794 1.391 . S
H1796 C1804 0.950 . S
H1797 C1809 0.950 . S
H1798 C1806 0.950 . S
H1799 C1808 0.950 . S
H1800 C1810 0.950 . S
H1801 C1812 0.950 . S
H1802 C1814 0.950 . S
H1803 C1815 0.950 . S
C1804 H1796 0.950 . S
C1804 C1805 1.386 . S
C1804 C1806 1.391 . S
C1805 C1804 1.386 . S
C1805 C1809 1.393 . S
C1806 H1798 0.950 . S
C1806 C1804 1.391 . S
C1806 C1807 1.400 . S
C1807 C1806 1.400 . S
C1807 C1808 1.398 . S
C1807 C1813 1.491 . S
C1808 H1799 0.950 . S
C1808 C1807 1.398 . S
C1808 C1809 1.391 . S
C1809 H1797 0.950 . S
C1809 C1805 1.393 . S
C1809 C1808 1.391 . S
C1810 H1800 0.950 . S
C1810 C1811 1.386 . S
C1810 C1812 1.391 1_655 S
C1811 C1810 1.386 . S
C1811 C1815 1.393 . S
C1812 H1801 0.950 . S
C1812 C1810 1.391 1_455 S
C1812 C1813 1.400 . S
C1813 C1807 1.491 . S
C1813 C1812 1.400 . S
C1813 C1814 1.398 1_455 S
C1814 H1802 0.950 . S
C1814 C1813 1.398 1_655 S
C1814 C1815 1.391 . S
C1815 H1803 0.950 . S
C1815 C1811 1.393 . S
C1815 C1814 1.391 . S
H1816 C1824 0.950 . S
H1817 C1829 0.950 . S
H1818 C1826 0.950 1_565 S
H1819 C1828 0.965 . S
H1820 C1830 0.950 . S
H1821 C1832 0.950 . S
H1822 C1834 0.950 . S
H1823 C1835 0.950 . S
C1824 H1816 0.950 . S
C1824 C1825 1.386 . S
C1824 C1826 1.391 . S
C1825 C1824 1.386 . S
C1825 C1829 1.393 . S
C1826 H1818 0.950 1_545 S
C1826 C1824 1.391 . S
C1826 C1827 1.400 1_545 S
C1827 C1826 1.400 1_565 S
C1827 C1828 1.412 . S
C1827 C1833 1.491 . S
C1828 H1819 0.965 . S
C1828 C1827 1.412 . S
C1828 C1829 1.363 1_565 S
C1829 H1817 0.950 . S
C1829 C1825 1.393 . S
C1829 C1828 1.363 1_545 S
C1830 H1820 0.950 . S
C1830 C1831 1.386 . S
C1830 C1832 1.391 . S
C1831 C1830 1.386 . S
C1831 C1835 1.393 . S
C1832 H1821 0.950 . S
C1832 C1830 1.391 . S
C1832 C1833 1.400 . S
C1833 C1827 1.491 . S
C1833 C1832 1.400 . S
C1833 C1834 1.398 . S
C1834 H1822 0.950 . S
C1834 C1833 1.398 . S
C1834 C1835 1.391 . S
C1835 H1823 0.950 . S
C1835 C1831 1.393 . S
C1835 C1834 1.391 . S
H1836 C1844 0.950 . S
H1837 C1849 0.950 . S
H1838 C1846 0.950 . S
H1839 C1848 0.950 . S
H1840 C1850 0.950 . S
H1841 C1852 0.938 1_545 S
H1842 C1854 0.935 1_545 S
H1843 C1855 0.950 . S
C1844 H1836 0.950 . S
C1844 C1845 1.386 . S
C1844 C1846 1.391 . S
C1845 C1844 1.386 . S
C1845 C1849 1.393 . S
C1846 H1838 0.950 . S
C1846 C1844 1.391 . S
C1846 C1847 1.400 . S
C1847 C1846 1.400 . S
C1847 C1848 1.398 . S
C1847 C1853 1.491 . S
C1848 H1839 0.950 . S
C1848 C1847 1.398 . S
C1848 C1849 1.391 . S
C1849 H1837 0.950 . S
C1849 C1845 1.393 . S
C1849 C1848 1.391 . S
C1850 H1840 0.950 . S
C1850 C1851 1.386 . S
C1850 C1852 1.391 . S
C1851 C1850 1.386 . S
C1851 C1855 1.393 . S
C1852 H1841 0.938 1_565 S
C1852 C1850 1.391 . S
C1852 C1853 1.400 1_565 S
C1853 C1847 1.491 . S
C1853 C1852 1.400 1_545 S
C1853 C1854 1.387 1_545 S
C1854 H1842 0.935 1_565 S
C1854 C1853 1.387 1_565 S
C1854 C1855 1.418 . S
C1855 H1843 0.950 . S
C1855 C1851 1.393 . S
C1855 C1854 1.418 . S
H1856 C1864 0.950 . S
H1857 C1869 0.950 . S
H1858 C1866 0.950 . S
H1859 C1868 0.950 . S
H1860 C1870 0.950 . S
H1861 C1872 0.950 . S
H1862 C1874 0.950 . S
H1863 C1875 0.950 . S
C1864 H1856 0.950 . S
C1864 C1865 1.386 . S
C1864 C1866 1.391 . S
C1865 C1864 1.386 . S
C1865 C1869 1.393 . S
C1866 H1858 0.950 . S
C1866 C1864 1.391 . S
C1866 C1867 1.400 . S
C1867 C1866 1.400 . S
C1867 C1868 1.398 . S
C1867 C1873 1.491 . S
C1868 H1859 0.950 . S
C1868 C1867 1.398 . S
C1868 C1869 1.391 . S
C1869 H1857 0.950 . S
C1869 C1865 1.393 . S
C1869 C1868 1.391 . S
C1870 H1860 0.950 . S
C1870 C1871 1.386 . S
C1870 C1872 1.391 . S
C1871 C1870 1.386 . S
C1871 C1875 1.393 . S
C1872 H1861 0.950 . S
C1872 C1870 1.391 . S
C1872 C1873 1.400 . S
C1873 C1867 1.491 . S
C1873 C1872 1.400 . S
C1873 C1874 1.398 . S
C1874 H1862 0.950 . S
C1874 C1873 1.398 . S
C1874 C1875 1.391 . S
C1875 H1863 0.950 . S
C1875 C1871 1.393 . S
C1875 C1874 1.391 . S
H1876 C1884 0.950 . S
H1877 C1889 0.950 . S
H1878 C1886 0.950 . S
H1879 C1888 0.950 . S
H1880 C1890 0.950 . S
H1881 C1892 0.950 . S
H1882 C1894 0.950 . S
H1883 C1895 0.916 1_455 S
C1884 H1876 0.950 . S
C1884 C1885 1.386 . S
C1884 C1886 1.391 . S
C1885 C1884 1.386 . S
C1885 C1889 1.393 . S
C1886 H1878 0.950 . S
C1886 C1884 1.391 . S
C1886 C1887 1.400 . S
C1887 C1886 1.400 . S
C1887 C1888 1.398 . S
C1887 C1893 1.491 . S
C1888 H1879 0.950 . S
C1888 C1887 1.398 . S
C1888 C1889 1.391 . S
C1889 H1877 0.950 . S
C1889 C1885 1.393 . S
C1889 C1888 1.391 . S
C1890 H1880 0.950 . S
C1890 C1891 1.386 . S
C1890 C1892 1.391 . S
C1891 C1890 1.386 . S
C1891 C1895 1.393 . S
C1892 H1881 0.950 . S
C1892 C1890 1.391 . S
C1892 C1893 1.400 1_565 S
C1893 C1887 1.491 . S
C1893 C1892 1.400 1_545 S
C1893 C1894 1.398 . S
C1894 H1882 0.950 . S
C1894 C1893 1.398 . S
C1894 C1895 1.391 1_545 S
C1895 H1883 0.916 1_655 S
C1895 C1891 1.393 . S
C1895 C1894 1.391 1_565 S
H1896 C1904 0.950 . S
H1897 C1909 0.950 . S
H1898 C1906 0.950 . S
H1899 C1908 0.950 . S
H1900 C1910 0.950 . S
H1901 C1912 0.950 . S
H1902 C1914 0.950 . S
H1903 C1915 0.950 . S
C1904 H1896 0.950 . S
C1904 C1905 1.396 . S
C1904 C1906 1.391 . S
C1905 C1904 1.396 . S
C1905 C1909 1.382 1_655 S
C1906 H1898 0.950 . S
C1906 C1904 1.391 . S
C1906 C1907 1.400 1_655 S
C1907 C1906 1.400 1_455 S
C1907 C1908 1.398 . S
C1907 C1913 1.491 . S
C1908 H1899 0.950 . S
C1908 C1907 1.398 . S
C1908 C1909 1.391 . S
C1909 H1897 0.950 . S
C1909 C1905 1.382 1_455 S
C1909 C1908 1.391 . S
C1910 H1900 0.950 . S
C1910 C1911 1.386 . S
C1910 C1912 1.391 . S
C1911 C1910 1.386 . S
C1911 C1915 1.393 1_455 S
C1912 H1901 0.950 . S
C1912 C1910 1.391 . S
C1912 C1913 1.400 . S
C1913 C1907 1.491 . S
C1913 C1912 1.400 . S
C1913 C1914 1.398 1_455 S
C1914 H1902 0.950 . S
C1914 C1913 1.398 1_655 S
C1914 C1915 1.391 . S
C1915 H1903 0.950 . S
C1915 C1911 1.393 1_655 S
C1915 C1914 1.391 . S
H1916 C1924 0.946 1_655 S
H1917 C1929 0.950 . S
H1918 C1926 0.953 . S
H1919 C1928 0.950 . S
H1920 C1930 0.953 . S
H1921 C1932 0.950 . S
H1922 C1934 0.950 . S
H1923 C1935 0.950 . S
C1924 H1916 0.946 1_455 S
C1924 C1925 1.393 . S
C1924 C1926 1.389 1_455 S
C1925 C1924 1.393 . S
C1925 C1929 1.393 . S
C1926 H1918 0.953 . S
C1926 C1924 1.389 1_655 S
C1926 C1927 1.399 1_655 S
C1927 C1926 1.399 1_455 S
C1927 C1928 1.398 . S
C1927 C1933 1.490 1_455 S
C1928 H1919 0.950 . S
C1928 C1927 1.398 . S
C1928 C1929 1.391 . S
C1929 H1917 0.950 . S
C1929 C1925 1.393 . S
C1929 C1928 1.391 . S
C1930 H1920 0.953 . S
C1930 C1931 1.381 1_455 S
C1930 C1932 1.394 . S
C1931 C1930 1.381 1_655 S
C1931 C1935 1.393 . S
C1932 H1921 0.950 . S
C1932 C1930 1.394 . S
C1932 C1933 1.400 1_455 S
C1933 C1927 1.490 1_655 S
C1933 C1932 1.400 1_655 S
C1933 C1934 1.399 . S
C1934 H1922 0.950 . S
C1934 C1933 1.399 . S
C1934 C1935 1.391 . S
C1935 H1923 0.950 . S
C1935 C1931 1.393 . S
C1935 C1934 1.391 . S
H1936 C1944 0.950 . S
H1937 C1949 0.950 . S
H1938 C1946 0.950 . S
H1939 C1948 0.950 . S
H1940 C1950 0.950 . S
H1941 C1952 0.950 . S
H1942 C1954 0.950 . S
H1943 C1955 0.950 . S
C1944 H1936 0.950 . S
C1944 C1945 1.386 . S
C1944 C1946 1.391 . S
C1945 C1944 1.386 . S
C1945 C1949 1.393 1_565 S
C1946 H1938 0.950 . S
C1946 C1944 1.391 . S
C1946 C1947 1.378 1_565 S
C1947 C1946 1.378 1_545 S
C1947 C1948 1.420 . S
C1947 C1953 1.492 . S
C1948 H1939 0.950 . S
C1948 C1947 1.420 . S
C1948 C1949 1.391 . S
C1949 H1937 0.950 . S
C1949 C1945 1.393 1_545 S
C1949 C1948 1.391 . S
C1950 H1940 0.950 . S
C1950 C1951 1.386 . S
C1950 C1952 1.391 . S
C1951 C1950 1.386 . S
C1951 C1955 1.393 1_545 S
C1952 H1941 0.950 . S
C1952 C1950 1.391 . S
C1952 C1953 1.400 . S
C1953 C1947 1.492 . S
C1953 C1952 1.400 . S
C1953 C1954 1.398 1_545 S
C1954 H1942 0.950 . S
C1954 C1953 1.398 1_565 S
C1954 C1955 1.391 . S
C1955 H1943 0.950 . S
C1955 C1951 1.393 1_565 S
C1955 C1954 1.391 . S
H1956 C1964 0.950 . S
H1957 C1969 0.950 . S
H1958 C1966 0.950 . S
H1959 C1968 0.950 . S
H1960 C1970 0.950 . S
H1961 C1972 0.950 . S
H1962 C1974 0.950 . S
H1963 C1975 0.950 . S
C1964 H1956 0.950 . S
C1964 C1965 1.386 . S
C1964 C1966 1.391 . S
C1965 C1964 1.386 . S
C1965 C1969 1.393 . S
C1966 H1958 0.950 . S
C1966 C1964 1.391 . S
C1966 C1967 1.400 . S
C1967 C1966 1.400 . S
C1967 C1968 1.398 . S
C1967 C1973 1.491 . S
C1968 H1959 0.950 . S
C1968 C1967 1.398 . S
C1968 C1969 1.391 . S
C1969 H1957 0.950 . S
C1969 C1965 1.393 . S
C1969 C1968 1.391 . S
C1970 H1960 0.950 . S
C1970 C1971 1.386 . S
C1970 C1972 1.391 . S
C1971 C1970 1.386 . S
C1971 C1975 1.393 . S
C1972 H1961 0.950 . S
C1972 C1970 1.391 . S
C1972 C1973 1.400 . S
C1973 C1967 1.491 . S
C1973 C1972 1.400 . S
C1973 C1974 1.398 . S
C1974 H1962 0.950 . S
C1974 C1973 1.398 . S
C1974 C1975 1.391 . S
C1975 H1963 0.950 . S
C1975 C1971 1.393 . S
C1975 C1974 1.391 . S
H1976 C1984 0.950 . S
H1977 C1989 0.950 . S
H1978 C1986 0.950 . S
H1979 C1988 0.950 . S
H1980 C1990 0.950 . S
H1981 C1992 0.950 . S
H1982 C1994 0.950 . S
H1983 C1995 0.950 . S
C1984 H1976 0.950 . S
C1984 C1985 1.386 . S
C1984 C1986 1.391 . S
C1985 C1984 1.386 . S
C1985 C1989 1.393 1_554 S
C1986 H1978 0.950 . S
C1986 C1984 1.391 . S
C1986 C1987 1.400 . S
C1987 C1986 1.400 . S
C1987 C1988 1.398 1_554 S
C1987 C1993 1.492 . S
C1988 H1979 0.950 . S
C1988 C1987 1.398 1_556 S
C1988 C1989 1.391 . S
C1989 H1977 0.950 . S
C1989 C1985 1.393 1_556 S
C1989 C1988 1.391 . S
C1990 H1980 0.950 . S
C1990 C1991 1.386 . S
C1990 C1992 1.391 . S
C1991 C1990 1.386 . S
C1991 C1995 1.393 1_556 S
C1992 H1981 0.950 . S
C1992 C1990 1.391 . S
C1992 C1993 1.382 1_556 S
C1993 C1987 1.492 . S
C1993 C1992 1.382 1_554 S
C1993 C1994 1.416 . S
C1994 H1982 0.950 . S
C1994 C1993 1.416 . S
C1994 C1995 1.391 . S
C1995 H1983 0.950 . S
C1995 C1991 1.393 1_554 S
C1995 C1994 1.391 . S
H1996 C2004 0.950 . S
H1997 C2009 0.950 . S
H1998 C2006 0.950 . S
H1999 C2008 0.950 . S
H2000 C2010 0.950 . S
H2001 C2012 0.950 . S
H2002 C2014 0.950 . S
H2003 C2015 0.950 . S
C2004 H1996 0.950 . S
C2004 C2005 1.386 . S
C2004 C2006 1.391 . S
C2005 C2004 1.386 . S
C2005 C2009 1.393 . S
C2006 H1998 0.950 . S
C2006 C2004 1.391 . S
C2006 C2007 1.400 . S
C2007 C2006 1.400 . S
C2007 C2008 1.398 . S
C2007 C2013 1.491 . S
C2008 H1999 0.950 . S
C2008 C2007 1.398 . S
C2008 C2009 1.391 . S
C2009 H1997 0.950 . S
C2009 C2005 1.393 . S
C2009 C2008 1.391 . S
C2010 H2000 0.950 . S
C2010 C2011 1.386 . S
C2010 C2012 1.391 . S
C2011 C2010 1.386 . S
C2011 C2015 1.393 . S
C2012 H2001 0.950 . S
C2012 C2010 1.391 . S
C2012 C2013 1.400 . S
C2013 C2007 1.491 . S
C2013 C2012 1.400 . S
C2013 C2014 1.398 . S
C2014 H2002 0.950 . S
C2014 C2013 1.398 . S
C2014 C2015 1.391 . S
C2015 H2003 0.950 . S
C2015 C2011 1.393 . S
C2015 C2014 1.391 . S
H2016 C2024 0.950 . S
H2017 C2029 0.950 . S
H2018 C2026 0.950 . S
H2019 C2028 0.950 . S
H2020 C2030 0.950 . S
H2021 C2032 0.950 . S
H2022 C2034 0.950 . S
H2023 C2035 0.950 . S
C2024 H2016 0.950 . S
C2024 C2025 1.386 . S
C2024 C2026 1.391 . S
C2025 C2024 1.386 . S
C2025 C2029 1.393 . S
C2026 H2018 0.950 . S
C2026 C2024 1.391 . S
C2026 C2027 1.400 . S
C2027 C2026 1.400 . S
C2027 C2028 1.398 . S
C2027 C2033 1.491 . S
C2028 H2019 0.950 . S
C2028 C2027 1.398 . S
C2028 C2029 1.391 . S
C2029 H2017 0.950 . S
C2029 C2025 1.393 . S
C2029 C2028 1.391 . S
C2030 H2020 0.950 . S
C2030 C2031 1.386 . S
C2030 C2032 1.391 . S
C2031 C2030 1.386 . S
C2031 C2035 1.393 . S
C2032 H2021 0.950 . S
C2032 C2030 1.391 . S
C2032 C2033 1.400 . S
C2033 C2027 1.491 . S
C2033 C2032 1.400 . S
C2033 C2034 1.398 . S
C2034 H2022 0.950 . S
C2034 C2033 1.398 . S
C2034 C2035 1.391 . S
C2035 H2023 0.950 . S
C2035 C2031 1.393 . S
C2035 C2034 1.391 . S
H2036 C2044 0.950 . S
H2037 C2049 0.950 . S
H2038 C2046 0.950 . S
H2039 C2048 0.950 . S
H2040 C2050 0.950 . S
H2041 C2052 0.950 . S
H2042 C2054 0.950 . S
H2043 C2055 0.950 . S
C2044 H2036 0.950 . S
C2044 C2045 1.386 . S
C2044 C2046 1.391 . S
C2045 C2044 1.386 . S
C2045 C2049 1.393 . S
C2046 H2038 0.950 . S
C2046 C2044 1.391 . S
C2046 C2047 1.400 . S
C2047 C2046 1.400 . S
C2047 C2048 1.398 . S
C2047 C2053 1.491 . S
C2048 H2039 0.950 . S
C2048 C2047 1.398 . S
C2048 C2049 1.391 . S
C2049 H2037 0.950 . S
C2049 C2045 1.393 . S
C2049 C2048 1.391 . S
C2050 H2040 0.950 . S
C2050 C2051 1.386 . S
C2050 C2052 1.391 . S
C2051 C2050 1.386 . S
C2051 C2055 1.393 . S
C2052 H2041 0.950 . S
C2052 C2050 1.391 . S
C2052 C2053 1.400 . S
C2053 C2047 1.491 . S
C2053 C2052 1.400 . S
C2053 C2054 1.398 . S
C2054 H2042 0.950 . S
C2054 C2053 1.398 . S
C2054 C2055 1.391 . S
C2055 H2043 0.950 . S
C2055 C2051 1.393 . S
C2055 C2054 1.391 . S
H2056 C2064 0.950 . S
H2057 C2069 0.950 . S
H2058 C2066 0.950 . S
H2059 C2068 0.950 . S
H2060 C2070 0.950 . S
H2061 C2072 0.950 . S
H2062 C2074 0.950 . S
H2063 C2075 0.950 . S
C2064 H2056 0.950 . S
C2064 C2065 1.386 . S
C2064 C2066 1.391 . S
C2065 C2064 1.386 . S
C2065 C2069 1.393 . S
C2066 H2058 0.950 . S
C2066 C2064 1.391 . S
C2066 C2067 1.400 . S
C2067 C2066 1.400 . S
C2067 C2068 1.398 . S
C2067 C2073 1.491 . S
C2068 H2059 0.950 . S
C2068 C2067 1.398 . S
C2068 C2069 1.391 . S
C2069 H2057 0.950 . S
C2069 C2065 1.393 . S
C2069 C2068 1.391 . S
C2070 H2060 0.950 . S
C2070 C2071 1.386 . S
C2070 C2072 1.391 . S
C2071 C2070 1.386 . S
C2071 C2075 1.393 . S
C2072 H2061 0.950 . S
C2072 C2070 1.391 . S
C2072 C2073 1.400 . S
C2073 C2067 1.491 . S
C2073 C2072 1.400 . S
C2073 C2074 1.398 . S
C2074 H2062 0.950 . S
C2074 C2073 1.398 . S
C2074 C2075 1.391 . S
C2075 H2063 0.950 . S
C2075 C2071 1.393 . S
C2075 C2074 1.391 . S
H2076 C2084 0.950 . S
H2077 C2089 0.950 . S
H2078 C2086 0.950 . S
H2079 C2088 0.950 . S
H2080 C2090 0.950 . S
H2081 C2092 0.950 . S
H2082 C2094 0.950 . S
H2083 C2095 0.950 . S
C2084 H2076 0.950 . S
C2084 C2085 1.386 . S
C2084 C2086 1.391 . S
C2085 C2084 1.386 . S
C2085 C2089 1.393 . S
C2086 H2078 0.950 . S
C2086 C2084 1.391 . S
C2086 C2087 1.400 . S
C2087 C2086 1.400 . S
C2087 C2088 1.398 . S
C2087 C2093 1.491 . S
C2088 H2079 0.950 . S
C2088 C2087 1.398 . S
C2088 C2089 1.391 . S
C2089 H2077 0.950 . S
C2089 C2085 1.393 . S
C2089 C2088 1.391 . S
C2090 H2080 0.950 . S
C2090 C2091 1.386 . S
C2090 C2092 1.391 . S
C2091 C2090 1.386 . S
C2091 C2095 1.393 . S
C2092 H2081 0.950 . S
C2092 C2090 1.391 . S
C2092 C2093 1.400 . S
C2093 C2087 1.491 . S
C2093 C2092 1.400 . S
C2093 C2094 1.398 . S
C2094 H2082 0.950 . S
C2094 C2093 1.398 . S
C2094 C2095 1.391 . S
C2095 H2083 0.950 . S
C2095 C2091 1.393 . S
C2095 C2094 1.391 . S
H2096 C2104 0.950 . S
H2097 C2109 0.953 . S
H2098 C2106 0.950 . S
H2099 C2108 0.950 1_565 S
H2100 C2110 0.950 . S
H2101 C2112 0.950 . S
H2102 C2114 0.953 . S
H2103 C2115 0.948 1_545 S
C2104 H2096 0.950 . S
C2104 C2105 1.386 . S
C2104 C2106 1.391 . S
C2105 C2104 1.386 . S
C2105 C2109 1.393 . S
C2106 H2098 0.950 . S
C2106 C2104 1.391 . S
C2106 C2107 1.400 . S
C2107 C2106 1.400 . S
C2107 C2108 1.398 . S
C2107 C2113 1.490 1_545 S
C2108 H2099 0.950 1_545 S
C2108 C2107 1.398 . S
C2108 C2109 1.391 . S
C2109 H2097 0.953 . S
C2109 C2105 1.393 . S
C2109 C2108 1.391 . S
C2110 H2100 0.950 . S
C2110 C2111 1.386 . S
C2110 C2112 1.391 . S
C2111 C2110 1.386 . S
C2111 C2115 1.393 . S
C2112 H2101 0.950 . S
C2112 C2110 1.391 . S
C2112 C2113 1.401 . S
C2113 C2107 1.490 1_565 S
C2113 C2112 1.401 . S
C2113 C2114 1.397 1_565 S
C2114 H2102 0.953 . S
C2114 C2113 1.397 1_545 S
C2114 C2115 1.390 1_545 S
C2115 H2103 0.948 1_565 S
C2115 C2111 1.393 . S
C2115 C2114 1.390 1_565 S
H2116 C2124 0.950 . S
H2117 C2129 0.950 . S
H2118 C2126 0.950 . S
H2119 C2128 0.950 . S
H2120 C2130 0.950 . S
H2121 C2132 0.950 . S
H2122 C2134 0.950 . S
H2123 C2135 0.950 . S
C2124 H2116 0.950 . S
C2124 C2125 1.386 1_554 S
C2124 C2126 1.391 . S
C2125 C2124 1.386 1_556 S
C2125 C2129 1.393 . S
C2126 H2118 0.950 . S
C2126 C2124 1.391 . S
C2126 C2127 1.416 . S
C2127 C2126 1.416 . S
C2127 C2128 1.383 1_554 S
C2127 C2133 1.492 . S
C2128 H2119 0.950 . S
C2128 C2127 1.383 1_556 S
C2128 C2129 1.391 . S
C2129 H2117 0.950 . S
C2129 C2125 1.393 . S
C2129 C2128 1.391 . S
C2130 H2120 0.950 . S
C2130 C2131 1.386 1_556 S
C2130 C2132 1.391 . S
C2131 C2130 1.386 1_554 S
C2131 C2135 1.393 . S
C2132 H2121 0.950 . S
C2132 C2130 1.391 . S
C2132 C2133 1.400 1_556 S
C2133 C2127 1.492 . S
C2133 C2132 1.400 1_554 S
C2133 C2134 1.398 . S
C2134 H2122 0.950 . S
C2134 C2133 1.398 . S
C2134 C2135 1.391 . S
C2135 H2123 0.950 . S
C2135 C2131 1.393 . S
C2135 C2134 1.391 . S
H2136 C2144 0.950 . S
H2137 C2149 0.950 . S
H2138 C2146 0.950 . S
H2139 C2148 0.950 1_545 S
H2140 C2150 0.950 . S
H2141 C2152 0.950 . S
H2142 C2154 0.950 1_565 S
H2143 C2155 0.950 . S
C2144 H2136 0.950 . S
C2144 C2145 1.386 . S
C2144 C2146 1.391 . S
C2145 C2144 1.386 . S
C2145 C2149 1.393 . S
C2146 H2138 0.950 . S
C2146 C2144 1.391 . S
C2146 C2147 1.400 . S
C2147 C2146 1.400 . S
C2147 C2148 1.398 . S
C2147 C2153 1.491 1_565 S
C2148 H2139 0.950 1_565 S
C2148 C2147 1.398 . S
C2148 C2149 1.391 . S
C2149 H2137 0.950 . S
C2149 C2145 1.393 . S
C2149 C2148 1.391 . S
C2150 H2140 0.950 . S
C2150 C2151 1.386 . S
C2150 C2152 1.391 . S
C2151 C2150 1.386 . S
C2151 C2155 1.393 . S
C2152 H2141 0.950 . S
C2152 C2150 1.391 . S
C2152 C2153 1.400 . S
C2153 C2147 1.491 1_545 S
C2153 C2152 1.400 . S
C2153 C2154 1.398 . S
C2154 H2142 0.950 1_545 S
C2154 C2153 1.398 . S
C2154 C2155 1.391 . S
C2155 H2143 0.950 . S
C2155 C2151 1.393 . S
C2155 C2154 1.391 . S
H2156 C2164 0.950 . S
H2157 C2169 0.950 . S
H2158 C2166 0.950 . S
H2159 C2168 0.950 . S
H2160 C2170 0.950 . S
H2161 C2172 0.950 . S
H2162 C2174 0.950 . S
H2163 C2175 0.950 . S
C2164 H2156 0.950 . S
C2164 C2165 1.386 1_655 S
C2164 C2166 1.391 . S
C2165 C2164 1.386 1_455 S
C2165 C2169 1.393 . S
C2166 H2158 0.950 . S
C2166 C2164 1.391 . S
C2166 C2167 1.400 1_655 S
C2167 C2166 1.400 1_455 S
C2167 C2168 1.398 . S
C2167 C2173 1.491 . S
C2168 H2159 0.950 . S
C2168 C2167 1.398 . S
C2168 C2169 1.391 . S
C2169 H2157 0.950 . S
C2169 C2165 1.393 . S
C2169 C2168 1.391 . S
C2170 H2160 0.950 . S
C2170 C2171 1.386 . S
C2170 C2172 1.391 . S
C2171 C2170 1.386 . S
C2171 C2175 1.393 1_455 S
C2172 H2161 0.950 . S
C2172 C2170 1.391 . S
C2172 C2173 1.400 . S
C2173 C2167 1.491 . S
C2173 C2172 1.400 . S
C2173 C2174 1.398 1_455 S
C2174 H2162 0.950 . S
C2174 C2173 1.398 1_655 S
C2174 C2175 1.391 . S
C2175 H2163 0.950 . S
C2175 C2171 1.393 1_655 S
C2175 C2174 1.391 . S
H2176 C2184 0.950 . S
H2177 C2189 0.950 . S
H2178 C2186 0.950 1_554 S
H2179 C2188 0.950 . S
H2180 C2190 0.950 . S
H2181 C2192 0.950 1_556 S
H2182 C2194 0.950 . S
H2183 C2195 0.950 . S
C2184 H2176 0.950 . S
C2184 C2185 1.386 . S
C2184 C2186 1.391 . S
C2185 C2184 1.386 . S
C2185 C2189 1.393 1_565 S
C2186 H2178 0.950 1_556 S
C2186 C2184 1.391 . S
C2186 C2187 1.400 . S
C2187 C2186 1.400 . S
C2187 C2188 1.398 1_565 S
C2187 C2193 1.491 1_556 S
C2188 H2179 0.950 . S
C2188 C2187 1.398 1_545 S
C2188 C2189 1.391 . S
C2189 H2177 0.950 . S
C2189 C2185 1.393 1_545 S
C2189 C2188 1.391 . S
C2190 H2180 0.950 . S
C2190 C2191 1.386 1_545 S
C2190 C2192 1.391 . S
C2191 C2190 1.386 1_565 S
C2191 C2195 1.393 . S
C2192 H2181 0.950 1_554 S
C2192 C2190 1.391 . S
C2192 C2193 1.400 1_545 S
C2193 C2187 1.491 1_554 S
C2193 C2192 1.400 1_565 S
C2193 C2194 1.398 . S
C2194 H2182 0.950 . S
C2194 C2193 1.398 . S
C2194 C2195 1.391 . S
C2195 H2183 0.950 . S
C2195 C2191 1.393 . S
C2195 C2194 1.391 . S
H2196 C2204 0.950 . S
H2197 C2209 0.950 . S
H2198 C2206 0.950 . S
H2199 C2208 0.950 1_556 S
H2200 C2210 0.950 . S
H2201 C2212 0.950 . S
H2202 C2214 0.950 1_554 S
H2203 C2215 0.950 . S
C2204 H2196 0.950 . S
C2204 C2205 1.386 . S
C2204 C2206 1.391 . S
C2205 C2204 1.386 . S
C2205 C2209 1.393 . S
C2206 H2198 0.950 . S
C2206 C2204 1.391 . S
C2206 C2207 1.400 . S
C2207 C2206 1.400 . S
C2207 C2208 1.398 . S
C2207 C2213 1.491 1_554 S
C2208 H2199 0.950 1_554 S
C2208 C2207 1.398 . S
C2208 C2209 1.391 . S
C2209 H2197 0.950 . S
C2209 C2205 1.393 . S
C2209 C2208 1.391 . S
C2210 H2200 0.950 . S
C2210 C2211 1.386 . S
C2210 C2212 1.391 . S
C2211 C2210 1.386 . S
C2211 C2215 1.393 . S
C2212 H2201 0.950 . S
C2212 C2210 1.391 . S
C2212 C2213 1.400 . S
C2213 C2207 1.491 1_556 S
C2213 C2212 1.400 . S
C2213 C2214 1.398 . S
C2214 H2202 0.950 1_556 S
C2214 C2213 1.398 . S
C2214 C2215 1.391 . S
C2215 H2203 0.950 . S
C2215 C2211 1.393 . S
C2215 C2214 1.391 . S
H2216 C2224 0.950 . S
H2217 C2229 0.950 . S
H2218 C2226 0.950 . S
H2219 C2228 0.950 . S
H2220 C2230 0.950 . S
H2221 C2232 0.950 . S
H2222 C2234 0.950 . S
H2223 C2235 0.950 . S
C2224 H2216 0.950 . S
C2224 C2225 1.386 1_565 S
C2224 C2226 1.391 . S
C2225 C2224 1.386 1_545 S
C2225 C2229 1.393 . S
C2226 H2218 0.950 . S
C2226 C2224 1.391 . S
C2226 C2227 1.400 1_565 S
C2227 C2226 1.400 1_545 S
C2227 C2228 1.398 . S
C2227 C2233 1.491 . S
C2228 H2219 0.950 . S
C2228 C2227 1.398 . S
C2228 C2229 1.391 . S
C2229 H2217 0.950 . S
C2229 C2225 1.393 . S
C2229 C2228 1.391 . S
C2230 H2220 0.950 . S
C2230 C2231 1.386 . S
C2230 C2232 1.391 . S
C2231 C2230 1.386 . S
C2231 C2235 1.393 1_545 S
C2232 H2221 0.950 . S
C2232 C2230 1.391 . S
C2232 C2233 1.400 . S
C2233 C2227 1.491 . S
C2233 C2232 1.400 . S
C2233 C2234 1.398 1_545 S
C2234 H2222 0.950 . S
C2234 C2233 1.398 1_565 S
C2234 C2235 1.391 . S
C2235 H2223 0.950 . S
C2235 C2231 1.393 1_565 S
C2235 C2234 1.391 . S
H2236 C2244 0.950 . S
H2237 C2249 0.950 . S
H2238 C2246 0.950 . S
H2239 C2248 0.950 . S
H2240 C2250 0.950 . S
H2241 C2252 0.950 . S
H2242 C2254 0.950 . S
H2243 C2255 0.950 . S
C2244 H2236 0.950 . S
C2244 C2245 1.386 . S
C2244 C2246 1.391 . S
C2245 C2244 1.386 . S
C2245 C2249 1.393 . S
C2246 H2238 0.950 . S
C2246 C2244 1.391 . S
C2246 C2247 1.400 . S
C2247 C2246 1.400 . S
C2247 C2248 1.398 . S
C2247 C2253 1.491 . S
C2248 H2239 0.950 . S
C2248 C2247 1.398 . S
C2248 C2249 1.391 . S
C2249 H2237 0.950 . S
C2249 C2245 1.393 . S
C2249 C2248 1.391 . S
C2250 H2240 0.950 . S
C2250 C2251 1.386 . S
C2250 C2252 1.391 . S
C2251 C2250 1.386 . S
C2251 C2255 1.393 . S
C2252 H2241 0.950 . S
C2252 C2250 1.391 . S
C2252 C2253 1.400 . S
C2253 C2247 1.491 . S
C2253 C2252 1.400 . S
C2253 C2254 1.398 . S
C2254 H2242 0.950 . S
C2254 C2253 1.398 . S
C2254 C2255 1.391 . S
C2255 H2243 0.950 . S
C2255 C2251 1.393 . S
C2255 C2254 1.391 . S
H2256 C2264 0.950 . S
H2257 C2269 0.950 . S
H2258 C2266 0.950 1_655 S
H2259 C2268 0.950 . S
H2260 C2270 0.950 . S
H2261 C2272 0.950 1_455 S
H2262 C2274 0.950 . S
H2263 C2275 0.950 . S
C2264 H2256 0.950 . S
C2264 C2265 1.386 . S
C2264 C2266 1.391 . S
C2265 C2264 1.386 . S
C2265 C2269 1.393 1_556 S
C2266 H2258 0.950 1_455 S
C2266 C2264 1.391 . S
C2266 C2267 1.400 . S
C2267 C2266 1.400 . S
C2267 C2268 1.398 1_556 S
C2267 C2273 1.491 1_455 S
C2268 H2259 0.950 . S
C2268 C2267 1.398 1_554 S
C2268 C2269 1.391 . S
C2269 H2257 0.950 . S
C2269 C2265 1.393 1_554 S
C2269 C2268 1.391 . S
C2270 H2260 0.950 . S
C2270 C2271 1.386 1_554 S
C2270 C2272 1.391 . S
C2271 C2270 1.386 1_556 S
C2271 C2275 1.393 . S
C2272 H2261 0.950 1_655 S
C2272 C2270 1.391 . S
C2272 C2273 1.400 1_554 S
C2273 C2267 1.491 1_655 S
C2273 C2272 1.400 1_556 S
C2273 C2274 1.398 . S
C2274 H2262 0.950 . S
C2274 C2273 1.398 . S
C2274 C2275 1.391 . S
C2275 H2263 0.950 . S
C2275 C2271 1.393 . S
C2275 C2274 1.391 . S
H2276 C2284 0.950 . S
H2277 C2289 0.950 . S
H2278 C2286 0.950 1_655 S
H2279 C2288 0.950 . S
H2280 C2290 0.950 . S
H2281 C2292 0.950 1_455 S
H2282 C2294 0.950 . S
H2283 C2295 0.950 . S
C2284 H2276 0.950 . S
C2284 C2285 1.386 . S
C2284 C2286 1.391 . S
C2285 C2284 1.386 . S
C2285 C2289 1.393 . S
C2286 H2278 0.950 1_455 S
C2286 C2284 1.391 . S
C2286 C2287 1.400 . S
C2287 C2286 1.400 . S
C2287 C2288 1.398 . S
C2287 C2293 1.491 1_455 S
C2288 H2279 0.950 . S
C2288 C2287 1.398 . S
C2288 C2289 1.391 . S
C2289 H2277 0.950 . S
C2289 C2285 1.393 . S
C2289 C2288 1.391 . S
C2290 H2280 0.950 . S
C2290 C2291 1.386 . S
C2290 C2292 1.391 . S
C2291 C2290 1.386 . S
C2291 C2295 1.393 . S
C2292 H2281 0.950 1_655 S
C2292 C2290 1.391 . S
C2292 C2293 1.400 . S
C2293 C2287 1.491 1_655 S
C2293 C2292 1.400 . S
C2293 C2294 1.398 . S
C2294 H2282 0.950 . S
C2294 C2293 1.398 . S
C2294 C2295 1.391 . S
C2295 H2283 0.950 . S
C2295 C2291 1.393 . S
C2295 C2294 1.391 . S
H2296 C2304 0.950 . S
H2297 C2309 0.950 . S
H2298 C2306 0.950 . S
H2299 C2308 0.950 . S
H2300 C2310 0.950 . S
H2301 C2312 0.950 . S
H2302 C2314 0.950 . S
H2303 C2315 0.950 . S
C2304 H2296 0.950 . S
C2304 C2305 1.386 . S
C2304 C2306 1.391 . S
C2305 C2304 1.386 . S
C2305 C2309 1.393 . S
C2306 H2298 0.950 . S
C2306 C2304 1.391 . S
C2306 C2307 1.400 . S
C2307 C2306 1.400 . S
C2307 C2308 1.398 . S
C2307 C2313 1.491 . S
C2308 H2299 0.950 . S
C2308 C2307 1.398 . S
C2308 C2309 1.391 . S
C2309 H2297 0.950 . S
C2309 C2305 1.393 . S
C2309 C2308 1.391 . S
C2310 H2300 0.950 . S
C2310 C2311 1.386 . S
C2310 C2312 1.391 . S
C2311 C2310 1.386 . S
C2311 C2315 1.393 . S
C2312 H2301 0.950 . S
C2312 C2310 1.391 . S
C2312 C2313 1.400 . S
C2313 C2307 1.491 . S
C2313 C2312 1.400 . S
C2313 C2314 1.398 . S
C2314 H2302 0.950 . S
C2314 C2313 1.398 . S
C2314 C2315 1.391 . S
C2315 H2303 0.950 . S
C2315 C2311 1.393 . S
C2315 C2314 1.391 . S
H2316 C2324 0.950 . S
H2317 C2329 0.950 . S
H2318 C2326 0.950 . S
H2319 C2328 0.950 . S
H2320 C2330 0.950 . S
H2321 C2332 0.950 . S
H2322 C2334 0.950 . S
H2323 C2335 0.950 . S
C2324 H2316 0.950 . S
C2324 C2325 1.386 . S
C2324 C2326 1.391 . S
C2325 C2324 1.386 . S
C2325 C2329 1.393 . S
C2326 H2318 0.950 . S
C2326 C2324 1.391 . S
C2326 C2327 1.400 . S
C2327 C2326 1.400 . S
C2327 C2328 1.398 . S
C2327 C2333 1.491 . S
C2328 H2319 0.950 . S
C2328 C2327 1.398 . S
C2328 C2329 1.391 . S
C2329 H2317 0.950 . S
C2329 C2325 1.393 . S
C2329 C2328 1.391 . S
C2330 H2320 0.950 . S
C2330 C2331 1.386 . S
C2330 C2332 1.391 . S
C2331 C2330 1.386 . S
C2331 C2335 1.393 . S
C2332 H2321 0.950 . S
C2332 C2330 1.391 . S
C2332 C2333 1.400 . S
C2333 C2327 1.491 . S
C2333 C2332 1.400 . S
C2333 C2334 1.398 . S
C2334 H2322 0.950 . S
C2334 C2333 1.398 . S
C2334 C2335 1.391 . S
C2335 H2323 0.950 . S
C2335 C2331 1.393 . S
C2335 C2334 1.391 . S
H2336 C2344 0.950 . S
H2337 C2349 0.950 . S
H2338 C2346 0.950 1_545 S
H2339 C2348 0.950 . S
H2340 C2350 0.950 . S
H2341 C2352 0.950 1_565 S
H2342 C2354 0.950 . S
H2343 C2355 0.950 . S
C2344 H2336 0.950 . S
C2344 C2345 1.386 . S
C2344 C2346 1.391 . S
C2345 C2344 1.386 . S
C2345 C2349 1.393 . S
C2346 H2338 0.950 1_565 S
C2346 C2344 1.391 . S
C2346 C2347 1.400 . S
C2347 C2346 1.400 . S
C2347 C2348 1.398 . S
C2347 C2353 1.491 1_565 S
C2348 H2339 0.950 . S
C2348 C2347 1.398 . S
C2348 C2349 1.391 . S
C2349 H2337 0.950 . S
C2349 C2345 1.393 . S
C2349 C2348 1.391 . S
C2350 H2340 0.950 . S
C2350 C2351 1.386 . S
C2350 C2352 1.391 . S
C2351 C2350 1.386 . S
C2351 C2355 1.393 . S
C2352 H2341 0.950 1_545 S
C2352 C2350 1.391 . S
C2352 C2353 1.400 . S
C2353 C2347 1.491 1_545 S
C2353 C2352 1.400 . S
C2353 C2354 1.398 . S
C2354 H2342 0.950 . S
C2354 C2353 1.398 . S
C2354 C2355 1.391 . S
C2355 H2343 0.950 . S
C2355 C2351 1.393 . S
C2355 C2354 1.391 . S
H2356 C2364 0.950 . S
H2357 C2369 0.950 . S
H2358 C2366 0.950 . S
H2359 C2368 0.950 . S
H2360 C2370 0.950 . S
H2361 C2372 0.950 . S
H2362 C2374 0.950 . S
H2363 C2375 0.950 . S
C2364 H2356 0.950 . S
C2364 C2365 1.386 . S
C2364 C2366 1.391 . S
C2365 C2364 1.386 . S
C2365 C2369 1.393 1_554 S
C2366 H2358 0.950 . S
C2366 C2364 1.391 . S
C2366 C2367 1.400 . S
C2367 C2366 1.400 . S
C2367 C2368 1.398 1_554 S
C2367 C2373 1.491 . S
C2368 H2359 0.950 . S
C2368 C2367 1.398 1_556 S
C2368 C2369 1.391 . S
C2369 H2357 0.950 . S
C2369 C2365 1.393 1_556 S
C2369 C2368 1.391 . S
C2370 H2360 0.950 . S
C2370 C2371 1.386 1_556 S
C2370 C2372 1.391 . S
C2371 C2370 1.386 1_554 S
C2371 C2375 1.393 . S
C2372 H2361 0.950 . S
C2372 C2370 1.391 . S
C2372 C2373 1.400 1_556 S
C2373 C2367 1.491 . S
C2373 C2372 1.400 1_554 S
C2373 C2374 1.398 . S
C2374 H2362 0.950 . S
C2374 C2373 1.398 . S
C2374 C2375 1.391 . S
C2375 H2363 0.950 . S
C2375 C2371 1.393 . S
C2375 C2374 1.391 . S
C1425 C1055 0.663 . S
C1431 C33 0.651 . S
C1445 C92 0.688 . S
C1451 C996 0.716 . S
C1465 C151 0.888 . S
C1471 C1173 0.912 . S
C1485 C210 0.948 . S
C1491 C1114 0.917 . S
C1505 C269 0.652 . S
C1511 C1291 0.665 . S
C1525 C328 0.920 . S
C1531 C1350 0.939 . S
C1545 C1232 0.688 . S
C1551 C387 0.688 . S
C1565 C701 0.927 . S
C1571 C446 0.933 . S
C1585 C505 0.659 . S
C1591 C229 0.660 . S
C1605 C111 0.927 . S
C1611 C564 0.933 . S
C1625 C623 1.165 . S
C1631 C52 1.158 . S
C1645 C682 0.939 . S
C1651 C878 0.932 . S
C1665 C347 1.144 . S
C1671 C741 1.177 . S
C1685 C288 1.155 . S
C1691 C800 1.166 . S
C1705 C859 0.937 . S
C1711 C465 0.937 . S
C1725 C918 0.920 . S
C1731 C406 0.939 . S
C1745 C583 1.133 . S
C1751 C977 1.177 . S
C1765 C642 0.902 . S
C1771 C1036 0.936 . S
C1785 C524 1.157 . S
C1791 C1095 1.164 . S
C1805 C1154 0.895 . S
C1811 C1409 0.911 . S
C1825 C937 1.149 . S
C1831 C1213 1.177 . S
C1845 C1272 0.948 . S
C1851 C819 0.920 . S
C1865 C760 0.698 . S
C1871 C1331 0.707 . S
C1885 C1390 0.909 . S
C1891 C170 0.904 . S
C1905 C5 1.787 . S
C1911 C64 1.780 . S
C1925 C182 1.658 . S
C1931 C123 1.670 . S
C1945 C241 1.789 . S
C1951 C359 1.784 . S
C1965 C300 2.084 . S
C1971 C418 2.066 . S
C1985 C1303 1.772 . S
C1991 C477 1.794 . S
C2005 C536 2.084 . S
C2011 C654 2.058 . S
C2025 C1185 1.972 . S
C2031 C595 1.984 . S
C2045 C772 1.995 . S
C2051 C713 1.972 . S
C2065 C831 2.056 . S
C2071 C890 2.071 . S
C2085 C1067 1.989 . S
C2091 C949 1.976 . S
C2105 C1008 1.656 . S
C2111 C1126 1.670 . S
C2125 C1362 1.665 . S
C2131 C1244 1.648 . S
C2145 C121 1.228 . S
C2151 C3 1.230 . S
C2165 C62 1.530 . S
C2171 C180 1.524 . S
C2185 C1124 1.234 . S
C2191 C239 1.240 . S
C2205 C298 1.466 . S
C2211 C1065 1.462 . S
C2225 C357 1.530 . S
C2231 C1006 1.521 . S
C2245 C947 1.785 . S
C2251 C416 1.791 . S
C2265 C475 1.247 . S
C2271 C1360 1.244 . S
C2285 C534 1.491 . S
C2291 C593 1.487 . S
C2305 C1183 1.783 . S
C2311 C652 1.789 . S
C2325 C711 1.768 . S
C2331 C829 1.774 . S
C2345 C770 1.465 . S
C2351 C888 1.469 . S
C2365 C1301 1.558 . S
C2371 C1242 1.551 . S
