# Generated by pormake.
# Topology fcu, (12)-cn, num edge types: 1
# Building blocks:
#     Node 0, Type 0, BuildingBlock: FANWIC_clean_sbu_0, # of connection points: 12
#     Node 1, Type 0, BuildingBlock: FANWIC_clean_sbu_0, # of connection points: 12
#     Node 2, Type 0, BuildingBlock: FANWIC_clean_sbu_0, # of connection points: 12
#     Node 3, Type 0, BuildingBlock: FANWIC_clean_sbu_0, # of connection points: 12
#     Edge 4, Type (0, 0), BuildingBlock: KIFKEQ_clean_linker_1, # of connection points: 2
#     Edge 5, Type (0, 0), BuildingBlock: KIFKEQ_clean_linker_1, # of connection points: 2
#     Edge 6, Type (0, 0), BuildingBlock: KIFKEQ_clean_linker_1, # of connection points: 2
#     Edge 7, Type (0, 0), BuildingBlock: KIFKEQ_clean_linker_1, # of connection points: 2
#     Edge 8, Type (0, 0), BuildingBlock: KIFKEQ_clean_linker_1, # of connection points: 2
#     Edge 9, Type (0, 0), BuildingBlock: KIFKEQ_clean_linker_1, # of connection points: 2
#     Edge 10, Type (0, 0), BuildingBlock: KIFKEQ_clean_linker_1, # of connection points: 2
#     Edge 11, Type (0, 0), BuildingBlock: KIFKEQ_clean_linker_1, # of connection points: 2
#     Edge 12, Type (0, 0), BuildingBlock: KIFKEQ_clean_linker_1, # of connection points: 2
#     Edge 13, Type (0, 0), BuildingBlock: KIFKEQ_clean_linker_1, # of connection points: 2
#     Edge 14, Type (0, 0), BuildingBlock: KIFKEQ_clean_linker_1, # of connection points: 2
#     Edge 15, Type (0, 0), BuildingBlock: KIFKEQ_clean_linker_1, # of connection points: 2
#     Edge 16, Type (0, 0), BuildingBlock: KIFKEQ_clean_linker_1, # of connection points: 2
#     Edge 17, Type (0, 0), BuildingBlock: KIFKEQ_clean_linker_1, # of connection points: 2
#     Edge 18, Type (0, 0), BuildingBlock: KIFKEQ_clean_linker_1, # of connection points: 2
#     Edge 19, Type (0, 0), BuildingBlock: KIFKEQ_clean_linker_1, # of connection points: 2
#     Edge 20, Type (0, 0), BuildingBlock: KIFKEQ_clean_linker_1, # of connection points: 2
#     Edge 21, Type (0, 0), BuildingBlock: KIFKEQ_clean_linker_1, # of connection points: 2
#     Edge 22, Type (0, 0), BuildingBlock: KIFKEQ_clean_linker_1, # of connection points: 2
#     Edge 23, Type (0, 0), BuildingBlock: KIFKEQ_clean_linker_1, # of connection points: 2
#     Edge 24, Type (0, 0), BuildingBlock: KIFKEQ_clean_linker_1, # of connection points: 2
#     Edge 25, Type (0, 0), BuildingBlock: KIFKEQ_clean_linker_1, # of connection points: 2
#     Edge 26, Type (0, 0), BuildingBlock: KIFKEQ_clean_linker_1, # of connection points: 2
#     Edge 27, Type (0, 0), BuildingBlock: KIFKEQ_clean_linker_1, # of connection points: 2
# Relax obj value: 0.218
# Max RMSD: 0.293
# Mean RMSD: 0.293
data_MOF--net-fcu--node1-FANWIC_clean_sbu_0--edge1-KIFKEQ_clean_linker_1
_symmetry_space_group_name_H-M    P1
_symmetry_Int_Tables_number       1
_symmetry_cell_setting            triclinic
loop_
_symmetry_equiv_pos_as_xyz
'x, y, z'
_cell_length_a     24.480822
_cell_length_b     25.711689
_cell_length_c     25.002725
_cell_angle_alpha  91.855474
_cell_angle_beta   89.217519
_cell_angle_gamma 89.03187
loop_
_atom_site_label
_atom_site_type_symbol
_atom_site_fract_x
_atom_site_fract_y
_atom_site_fract_z
_atom_type_partial_charge
Zn0 Zn 0.96175 0.00071 0.92623 0.0
Zn1 Zn 0.91938 0.95618 0.04404 0.0
Zn2 Zn 0.97448 0.0841 0.02933 0.0
Zn3 Zn 0.86197 0.03936 0.99339 0.0
O4 O 0.93884 0.01819 0.00275 0.0
C5 C 0.02443 0.08383 0.13424 0.0
O6 O 0.06691 0.06356 0.10798 0.0
N7 N 0.01483 0.94273 0.9208 0.0
N8 N 0.05876 0.93702 0.95089 0.0
N9 N 0.05923 0.8717 0.89026 0.0
C10 C 0.01525 0.90289 0.88422 0.0
C11 C 0.08543 0.8937 0.93198 0.0
N12 N 0.97936 0.92059 0.07668 0.0
C13 C 0.05089 0.90278 0.12128 0.0
N14 N 0.02064 0.85931 0.12234 0.0
C15 C 0.97564 0.87227 0.09522 0.0
N16 N 0.02579 0.9405 0.09373 0.0
H17 H 0.92784 0.80803 0.06756 0.0
C18 C 0.92365 0.84211 0.09578 0.0
H19 H 0.88833 0.86666 0.08441 0.0
H20 H 0.91574 0.82711 0.13623 0.0
N21 N 0.04731 0.08465 -0.00108 0.0
C22 C 0.08259 0.12399 0.00148 0.0
C23 C 0.11997 0.06294 0.95383 0.0
N24 N 0.07033 0.04646 0.96923 0.0
N25 N 0.12858 0.11163 0.9735 0.0
C26 C 0.07048 0.17552 0.02895 0.0
H27 H 0.0684 0.20604 -0.00138 0.0
H28 H 0.03122 0.17481 0.05159 0.0
H29 H 0.10411 0.18547 0.05658 0.0
O30 O 0.82581 0.00183 0.93274 0.0
O31 O 0.8976 -0.01774 0.88104 0.0
C32 C 0.84627 -0.01634 0.88893 0.0
O33 O 0.8822 0.90803 0.99246 0.0
O34 O 0.8563 0.1136 0.97626 0.0
O35 O 0.93224 0.14943 0.00632 0.0
O36 O 0.99203 0.06475 0.89292 0.0
O37 O 0.81611 0.03126 0.05976 0.0
O38 O 0.86502 0.97376 0.10296 0.0
O39 O 0.97986 0.09072 0.10964 0.0
C40 C 0.90541 0.86918 0.96857 0.0
O41 O 0.95741 0.85953 0.97658 0.0
C42 C 0.88556 0.15319 0.98461 0.0
C43 C 0.00642 0.06177 0.84393 0.0
O44 O 0.00067 0.01775 0.81677 0.0
C45 C 0.8237 0.00409 0.10066 0.0
H46 H 0.96896 0.92676 0.8168 0.0
H47 H 0.93161 0.88968 0.86374 0.0
H48 H 0.98006 0.85766 0.81863 0.0
C49 C 0.97172 0.89346 0.84351 0.0
Zn50 Zn 0.94314 0.49353 0.44229 0.0
Zn51 Zn 0.92775 0.44966 0.56367 0.0
Zn52 Zn 0.96933 0.57828 0.5376 0.0
Zn53 Zn 0.85297 0.52777 0.52764 0.0
O54 O 0.93211 0.51204 0.51996 0.0
C55 C 0.03315 0.58004 0.63548 0.0
O56 O 0.07265 0.56004 0.60482 0.0
N57 N 0.00076 0.44122 0.43129 0.0
N58 N 0.0421 0.43242 0.46376 0.0
N59 N 0.04466 0.37064 0.39908 0.0
C60 C 0.00277 0.40413 0.39206 0.0
C61 C 0.06859 0.38954 0.44374 0.0
N62 N 0.9962 0.41551 0.57706 0.0
C63 C 0.07525 0.40637 0.61147 0.0
N64 N 0.05219 0.359 0.61456 0.0
C65 C 0.00239 0.36641 0.59321 0.0
N66 N 0.04106 0.44089 0.58925 0.0
H67 H 0.9567 0.30053 0.56654 0.0
C68 C 0.95537 0.33029 0.59969 0.0
H69 H 0.9159 0.35192 0.59915 0.0
H70 H 0.95782 0.30977 0.63795 0.0
N71 N 0.03615 0.57897 0.49631 0.0
C72 C 0.07566 0.61445 0.49945 0.0
C73 C 0.10034 0.55739 0.44036 0.0
N74 N 0.05122 0.54335 0.45927 0.0
N75 N 0.11677 0.60161 0.46511 0.0
C76 C 0.07261 0.66279 0.53442 0.0
H77 H 0.08109 0.69719 0.51013 0.0
H78 H 0.0318 0.66733 0.55405 0.0
H79 H 0.10452 0.6607 0.56541 0.0
O80 O 0.80838 0.49317 0.46887 0.0
O81 O 0.87395 0.46606 0.41219 0.0
C82 C 0.82368 0.47016 0.42514 0.0
O83 O 0.87531 0.40466 0.52532 0.0
O84 O 0.83987 0.60395 0.52343 0.0
O85 O 0.92134 0.6409 0.52051 0.0
O86 O 0.96145 0.55681 0.40038 0.0
O87 O 0.82329 0.51001 0.6009 0.0
O88 O 0.89328 0.46688 0.63445 0.0
O89 O 0.98591 0.58661 0.61603 0.0
C90 C 0.88601 0.36973 0.48968 0.0
O91 O 0.93699 0.35763 0.47751 0.0
C92 C 0.86935 0.64388 0.51967 0.0
C93 C 0.94147 0.56378 0.35451 0.0
O94 O 0.90576 0.53081 0.33535 0.0
C95 C 0.84667 0.48873 0.63994 0.0
H96 H 0.94722 0.43739 0.33663 0.0
H97 H 0.92555 0.37753 0.36509 0.0
H98 H 0.97812 0.37596 0.31397 0.0
C99 C 0.96114 0.39853 0.34915 0.0
Zn100 Zn 0.4436 -0.01737 0.43002 0.0
Zn101 Zn 0.42542 0.93949 0.55197 0.0
Zn102 Zn 0.46142 0.07052 0.53041 0.0
Zn103 Zn 0.35071 0.01439 0.50881 0.0
O104 O 0.4301 0.00159 0.50761 0.0
C105 C 0.45864 0.08825 0.64501 0.0
O106 O 0.40567 0.09245 0.63805 0.0
N107 N 0.50462 0.93369 0.4216 0.0
N108 N 0.54673 0.93019 0.45425 0.0
N109 N 0.55391 0.86467 0.39381 0.0
C110 C 0.5091 0.89403 0.38517 0.0
C111 C 0.57647 0.88814 0.43685 0.0
N112 N 0.49396 0.91132 0.57462 0.0
C113 C 0.57325 0.90445 0.60888 0.0
N114 N 0.54916 0.8584 0.61759 0.0
C115 C 0.49929 0.86449 0.59643 0.0
N116 N 0.53953 0.93707 0.58315 0.0
H117 H 0.45628 0.79403 0.58015 0.0
C118 C 0.45205 0.82946 0.60651 0.0
H119 H 0.41261 0.8494 0.59876 0.0
H120 H 0.45198 0.81689 0.64856 0.0
N121 N 0.52346 0.08355 0.48545 0.0
C122 C 0.54908 0.1292 0.48432 0.0
C123 C 0.58425 0.07982 0.42304 0.0
N124 N 0.5457 0.05209 0.44782 0.0
N125 N 0.58744 0.12823 0.44528 0.0
C126 C 0.53673 0.17416 0.52236 0.0
H127 H 0.51397 0.20465 0.50099 0.0
H128 H 0.51138 0.16188 0.55665 0.0
H129 H 0.57525 0.19126 0.53712 0.0
O130 O 0.31032 0.97449 0.45197 0.0
O131 O 0.37776 0.95224 0.3957 0.0
C132 C 0.32732 0.95327 0.40806 0.0
O133 O 0.3852 0.88703 0.50811 0.0
O134 O 0.33449 0.08776 0.49469 0.0
O135 O 0.40712 0.13135 0.52105 0.0
O136 O 0.45788 0.04692 0.38954 0.0
O137 O 0.31721 0.0028 0.58133 0.0
O138 O 0.38115 0.95498 0.61842 0.0
O139 O 0.48899 0.07369 0.60559 0.0
C140 C 0.40725 0.84905 0.48177 0.0
O141 O 0.46038 0.84199 0.48277 0.0
C142 C 0.35853 0.13043 0.50342 0.0
C143 C 0.4487 0.04999 0.33994 0.0
O144 O 0.42652 0.01067 0.31403 0.0
C145 C 0.336 0.97994 0.6217 0.0
H146 H 0.45237 0.91699 0.32551 0.0
H147 H 0.43132 0.86333 0.36463 0.0
H148 H 0.48284 0.85333 0.31305 0.0
C149 C 0.46669 0.88113 0.34447 0.0
Zn150 Zn 0.46036 0.50444 0.93294 0.0
Zn151 Zn 0.42355 0.45111 0.04896 0.0
Zn152 Zn 0.47387 0.58096 0.0393 0.0
Zn153 Zn 0.36096 0.53603 0.00528 0.0
O154 O 0.43879 0.51604 0.01083 0.0
C155 C 0.52886 0.57565 0.14054 0.0
O156 O 0.56909 0.55549 0.11094 0.0
N157 N 0.51249 0.44596 0.92118 0.0
N158 N 0.55828 0.43793 0.94789 0.0
N159 N 0.55322 0.37536 0.88451 0.0
C160 C 0.5096 0.40783 0.88291 0.0
C161 C 0.58268 0.39492 0.92535 0.0
N162 N 0.4855 0.41841 0.08158 0.0
C163 C 0.55482 0.40489 0.13093 0.0
N164 N 0.52897 0.35894 0.12777 0.0
C165 C 0.48491 0.36922 0.09816 0.0
N166 N 0.52835 0.44153 0.10302 0.0
H167 H 0.4434 0.30215 0.06734 0.0
C168 C 0.43538 0.33549 0.09579 0.0
H169 H 0.39887 0.3578 0.08344 0.0
H170 H 0.4266 0.31922 0.13549 0.0
N171 N 0.54538 0.58356 0.00683 0.0
C172 C 0.57894 0.62428 0.00804 0.0
C173 C 0.61885 0.5631 0.96284 0.0
N174 N 0.56994 0.54518 0.97857 0.0
N175 N 0.62539 0.61264 0.98067 0.0
C176 C 0.56486 0.67603 0.03412 0.0
H177 H 0.55429 0.70386 0.00271 0.0
H178 H 0.52956 0.67288 0.06206 0.0
H179 H 0.60066 0.69134 0.05594 0.0
O180 O 0.32385 0.4992 0.9443 0.0
O181 O 0.39467 0.48971 0.88885 0.0
C182 C 0.3438 0.48669 0.89837 0.0
O183 O 0.38913 0.40284 0.99538 0.0
O184 O 0.35354 0.61094 0.99063 0.0
O185 O 0.43003 0.64636 0.02006 0.0
O186 O 0.49078 0.57023 0.90311 0.0
O187 O 0.318 0.52498 0.07337 0.0
O188 O 0.3687 0.4635 0.10849 0.0
O189 O 0.4828 0.58425 0.11926 0.0
C190 C 0.4132 0.36483 0.97083 0.0
O191 O 0.46532 0.35589 0.97889 0.0
C192 C 0.38275 0.65046 -0.0003 0.0
C193 C 0.50686 0.56767 0.8546 0.0
O194 O 0.5021 0.52376 0.82697 0.0
C195 C 0.32752 0.49422 0.11109 0.0
H196 H 0.46 0.43516 0.81944 0.0
H197 H 0.4241 0.39833 0.86788 0.0
H198 H 0.46777 0.36565 0.819 0.0
C199 C 0.46292 0.40108 0.84515 0.0
H200 H 0.12048 0.10578 0.18426 0.0
H201 H 0.94532 0.1243 0.20212 0.0
H202 H 0.13297 0.16779 0.25903 0.0
H203 H 0.95786 0.18611 0.27646 0.0
H204 H 0.99127 0.28391 0.42151 0.0
H205 H 0.99177 0.2025 0.36788 0.0
H206 H 0.11548 0.26422 0.26372 0.0
H207 H 0.11432 0.34557 0.3181 0.0
C208 C 0.08463 0.12199 0.20497 0.0
C209 C 0.03187 0.11076 0.18675 0.0
C210 C 0.09186 0.15778 0.24753 0.0
C211 C 0.04647 0.18234 0.27312 0.0
C212 C 0.99372 0.16771 0.25775 0.0
C213 C 0.9865 0.13239 0.21496 0.0
C214 C 0.01903 0.27932 0.38763 0.0
C215 C 0.05238 0.32046 0.3732 0.0
C216 C 0.01942 0.23298 0.357 0.0
C217 C 0.05334 0.22708 0.31133 0.0
C218 C 0.08928 0.26735 0.29897 0.0
C219 C 0.08862 0.31384 0.32969 0.0
H220 H 0.83328 0.96466 0.20085 0.0
H221 H 0.72308 0.05112 0.10181 0.0
H222 H 0.76916 0.9761 0.27625 0.0
H223 H 0.65865 0.0611 0.17637 0.0
H224 H 0.62471 -0.01717 0.39539 0.0
H225 H 0.67792 0.95671 0.31443 0.0
H226 H 0.65938 0.11292 0.25741 0.0
H227 H 0.60605 0.13754 0.33624 0.0
C228 C 0.79514 -0.01445 0.19498 0.0
C229 C 0.78373 0.00782 0.14562 0.0
C230 C 0.75819 -0.00834 0.23804 0.0
C231 C 0.70904 0.01992 0.23244 0.0
C232 C 0.69665 0.04 0.18231 0.0
C233 C 0.73363 0.03427 0.13954 0.0
C234 C 0.63197 0.01102 0.36513 0.0
C235 C 0.61284 0.06242 0.3729 0.0
C236 C 0.66249 -0.00365 0.31903 0.0
C237 C 0.67329 0.03289 0.27962 0.0
C238 C 0.65169 0.08361 0.28661 0.0
C239 C 0.62169 0.09803 0.33244 0.0
H240 H 0.0269 0.75901 0.09129 0.0
H241 H 0.02243 0.86265 0.23007 0.0
H242 H 0.01736 0.68426 0.14882 0.0
H243 H 0.01217 0.78841 0.28812 0.0
H244 H 0.0197 0.63584 0.37839 0.0
H245 H 0.05118 0.70573 0.32202 0.0
H246 H 0.9372 0.65795 0.20023 0.0
H247 H 0.90641 0.58825 0.25569 0.0
C248 C 0.02517 0.76531 0.13433 0.0
C249 C 0.02557 0.8159 0.15663 0.0
C250 C 0.01935 0.72291 0.16718 0.0
C251 C 0.01332 0.73062 0.22292 0.0
C252 C 0.01718 0.78123 0.2454 0.0
C253 C 0.02307 0.82363 0.21239 0.0
C254 C 0.00145 0.64035 0.33955 0.0
C255 C 0.96038 0.60668 0.32153 0.0
C256 C 0.01952 0.68027 0.30734 0.0
C257 C 0.99702 0.68697 0.25654 0.0
C258 C 0.95618 0.65312 0.23868 0.0
C259 C 0.93811 0.61346 0.27075 0.0
H260 H 0.34878 0.90599 0.31026 0.0
H261 H 0.21598 0.96314 0.41308 0.0
H262 H 0.28537 0.89407 0.23688 0.0
H263 H 0.15259 0.95048 0.33973 0.0
H264 H 0.06988 -0.01257 0.18501 0.0
H265 H 0.13862 -0.00454 0.25449 0.0
H266 H 0.20555 0.84423 0.20624 0.0
H267 H 0.13767 0.83722 0.13562 0.0
C268 C 0.30594 0.91508 0.31758 0.0
C269 C 0.28759 0.93618 0.36739 0.0
C270 C 0.26965 0.90826 0.27545 0.0
C271 C 0.21433 0.92247 0.28229 0.0
C272 C 0.19535 0.94049 0.33297 0.0
C273 C 0.23158 0.94714 0.37516 0.0
C274 C 0.10037 0.95675 0.18829 0.0
C275 C 0.09858 0.91169 0.15539 0.0
C276 C 0.139 0.96081 0.22864 0.0
C277 C 0.17661 0.9199 0.23653 0.0
C278 C 0.17693 0.87624 0.20125 0.0
C279 C 0.13818 0.87219 0.16096 0.0
H280 H 0.11147 0.85354 0.79647 0.0
H281 H 0.02847 0.7794 0.92535 0.0
H282 H 0.11519 0.77074 0.74479 0.0
H283 H 0.03083 0.69631 0.87375 0.0
H284 H 0.96215 0.61122 0.71559 0.0
H285 H 0.97946 0.67455 0.78779 0.0
H286 H 0.1501 0.67569 0.74194 0.0
H287 H 0.13299 0.6118 0.66985 0.0
C288 C 0.09547 0.81887 0.81403 0.0
C289 C 0.06991 0.82199 0.86442 0.0
C290 C 0.09761 0.77162 0.78481 0.0
C291 C 0.07327 0.7271 0.80535 0.0
C292 C 0.04984 0.73 0.85702 0.0
C293 C 0.04853 0.77714 0.88648 0.0
C294 C 0.00366 0.62379 0.72191 0.0
C295 C 0.04602 0.60717 0.68661 0.0
C296 C 0.01362 0.6599 0.76339 0.0
C297 C 0.06601 0.68048 0.76995 0.0
C298 C 0.10925 0.66077 0.73734 0.0
C299 C 0.09944 0.624 0.69631 0.0
H300 H 0.08755 0.00053 0.87126 0.0
H301 H 0.23294 0.0585 0.94553 0.0
H302 H 0.14043 0.97177 0.79271 0.0
H303 H 0.28642 0.03083 0.86626 0.0
H304 H 0.23306 0.01924 0.63968 0.0
H305 H 0.18325 0.02772 0.72434 0.0
H306 H 0.31891 0.95659 0.80497 0.0
H307 H 0.36941 0.94829 0.71988 0.0
C308 C 0.1307 0.00723 0.87085 0.0
C309 C 0.15509 0.03506 0.91297 0.0
C310 C 0.16115 -0.00926 0.82582 0.0
C311 C 0.2172 0.00074 0.8226 0.0
C312 C 0.24302 0.02334 0.86727 0.0
C313 C 0.21219 0.04006 0.91228 0.0
C314 C 0.25229 0.0051 0.6753 0.0
C315 C 0.30525 -0.01681 0.67303 0.0
C316 C 0.22353 0.00955 0.72375 0.0
C317 C 0.24711 -0.00757 0.77113 0.0
C318 C 0.2999 0.97018 0.76901 0.0
C319 C 0.32863 0.96534 0.72031 0.0
H320 H 0.06035 0.2577 0.58714 0.0
H321 H 0.07149 0.36668 0.72087 0.0
H322 H 0.06426 0.18571 0.64776 0.0
H323 H 0.07973 0.2951 0.78172 0.0
H324 H 0.98948 0.16463 0.86926 0.0
H325 H 0.01674 0.23787 0.81644 0.0
H326 H 0.10811 0.1328 0.70853 0.0
H327 H 0.07773 0.05947 0.7598 0.0
C328 C 0.06617 0.26595 0.62937 0.0
C329 C 0.06657 0.31746 0.64918 0.0
C330 C 0.06866 0.22481 0.66432 0.0
C331 C 0.07201 0.23443 0.71997 0.0
C332 C 0.07624 0.28616 0.7393 0.0
C333 C 0.07267 0.32727 0.70434 0.0
C334 C 0.01593 0.15746 0.8346 0.0
C335 C 0.03027 0.10653 0.81761 0.0
C336 C 0.03211 0.19947 0.80447 0.0
C337 C 0.06393 0.19131 0.75742 0.0
C338 C 0.08221 0.14046 0.74345 0.0
C339 C 0.06499 0.09844 0.77288 0.0
H340 H 0.66898 0.85003 0.61995 0.0
H341 H 0.58875 -0.00268 0.65973 0.0
H342 H 0.73979 0.86964 0.68518 0.0
H343 H 0.6599 0.01741 0.7243 0.0
H344 H 0.73487 -0.0106 0.88826 0.0
H345 H 0.67541 0.97435 0.81233 0.0
H346 H 0.81528 0.93046 0.71283 0.0
H347 H 0.87515 0.94557 0.78873 0.0
C348 C 0.66744 0.88716 0.64165 0.0
C349 C 0.62307 0.92173 0.63593 0.0
C350 C 0.70789 0.89841 0.67885 0.0
C351 C 0.70439 0.94442 0.71062 0.0
C352 C 0.66273 0.98111 0.7011 0.0
C353 C 0.62249 0.96995 0.66374 0.0
C354 C 0.75305 0.97619 0.85038 0.0
C355 C 0.80983 0.96884 0.8446 0.0
C356 C 0.71903 0.96812 0.80676 0.0
C357 C 0.74098 0.95221 0.75656 0.0
C358 C 0.79743 0.94294 0.7511 0.0
C359 C 0.8316 0.95141 0.79467 0.0
H360 H 0.43657 0.26123 0.95809 0.0
H361 H 0.3132 0.37812 0.92693 0.0
H362 H 0.36965 0.19327 0.94281 0.0
H363 H 0.24665 0.31003 0.91102 0.0
H364 H 0.14394 0.16053 0.88126 0.0
H365 H 0.22035 0.21813 0.85976 0.0
H366 H 0.28719 0.19341 0.01615 0.0
H367 H 0.21027 0.13754 0.03749 0.0
C368 C 0.39596 0.27232 0.94558 0.0
C369 C 0.37957 0.32485 0.94482 0.0
C370 C 0.35772 0.23345 0.937 0.0
C371 C 0.30313 0.24681 0.92669 0.0
C372 C 0.2886 0.29895 0.91894 0.0
C373 C 0.32659 0.33784 0.92831 0.0
C374 C 0.17528 0.16788 0.91059 0.0
C375 C 0.17207 0.14559 0.96097 0.0
C376 C 0.2188 0.20009 0.8983 0.0
C377 C 0.25988 0.20903 0.93596 0.0
C378 C 0.25656 0.18602 0.98608 0.0
C379 C 0.2126 0.1549 -0.00135 0.0
H380 H 0.36829 0.7342 0.06888 0.0
H381 H 0.33782 0.67916 0.90751 0.0
H382 H 0.30454 0.80785 0.05708 0.0
H383 H 0.27513 0.75197 0.89533 0.0
H384 H 0.11583 0.85675 0.02872 0.0
H385 H 0.20173 0.81043 0.04741 0.0
H386 H 0.26312 0.84612 0.89015 0.0
H387 H 0.17718 0.89066 0.87156 0.0
C388 C 0.34963 0.73913 0.03029 0.0
C389 C 0.35811 0.70155 0.98885 0.0
C390 C 0.31272 0.78077 0.02374 0.0
C391 C 0.28467 0.78573 0.97533 0.0
C392 C 0.2965 0.74989 0.93287 0.0
C393 C 0.33244 0.70811 0.93973 0.0
C394 C 0.14855 0.85591 -0.0009 0.0
C395 C 0.14019 0.87672 0.94868 0.0
C396 C 0.19771 0.82958 0.00968 0.0
C397 C 0.23897 0.82398 0.96989 0.0
C398 C 0.23188 0.84898 0.92126 0.0
C399 C 0.18284 0.87469 0.91067 0.0
H400 H 0.62262 0.36466 0.02168 0.0
H401 H 0.66734 0.3829 0.85608 0.0
H402 H 0.70964 0.31847 0.03587 0.0
H403 H 0.75481 0.33949 0.87027 0.0
H404 H 0.87541 0.24062 0.04977 0.0
H405 H 0.81054 0.31324 0.03768 0.0
H406 H 0.77186 0.249 0.88108 0.0
H407 H 0.83618 0.17779 0.89329 0.0
C408 C 0.65187 0.3601 0.98887 0.0
C409 C 0.63826 0.37621 0.93763 0.0
C410 C 0.70179 0.33399 0.99692 0.0
C411 C 0.7389 0.32438 0.95389 0.0
C412 C 0.72674 0.34497 0.90393 0.0
C413 C 0.67676 0.37 0.89579 0.0
C414 C 0.85455 0.24356 0.01202 0.0
C415 C 0.86091 0.20399 0.97223 0.0
C416 C 0.81686 0.2846 0.00538 0.0
C417 C 0.78563 0.28689 0.95857 0.0
C418 C 0.79551 0.24916 0.91738 0.0
C419 C 0.83244 0.20819 0.92426 0.0
H420 H 0.9297 0.76607 0.9529 0.0
H421 H 0.80318 0.88201 0.92912 0.0
H422 H 0.86313 0.69751 0.93956 0.0
H423 H 0.73701 0.81322 0.915 0.0
H424 H 0.63628 0.66127 0.88782 0.0
H425 H 0.71055 0.7202 0.86337 0.0
H426 H 0.78374 0.69737 0.01733 0.0
H427 H 0.70879 0.6403 0.04169 0.0
C428 C 0.88834 0.77688 0.94249 0.0
C429 C 0.8711 0.82924 0.94345 0.0
C430 C 0.85036 0.73765 0.9349 0.0
C431 C 0.79516 0.75051 0.92721 0.0
C432 C 0.77947 0.80259 0.92092 0.0
C433 C 0.81725 0.84186 0.92931 0.0
C434 C 0.66849 0.66938 0.91599 0.0
C435 C 0.66761 0.64737 0.96656 0.0
C436 C 0.71081 0.70232 0.90201 0.0
C437 C 0.75304 0.71214 0.93816 0.0
C438 C 0.75212 0.68932 0.98845 0.0
C439 C 0.70932 0.65752 0.00272 0.0
H440 H 0.59204 0.50654 0.87398 0.0
H441 H 0.73068 0.55483 0.96574 0.0
H442 H 0.6515 0.48015 0.79949 0.0
H443 H 0.79157 0.5267 0.89186 0.0
H444 H 0.86181 0.55709 0.72238 0.0
H445 H 0.81097 0.56307 0.80717 0.0
H446 H 0.72078 0.42611 0.75993 0.0
H447 H 0.77045 0.42209 0.67413 0.0
C448 C 0.63533 0.5108 0.87844 0.0
C449 C 0.6563 0.53523 0.92434 0.0
C450 C 0.66979 0.49517 0.83589 0.0
C451 C 0.72643 0.50256 0.83903 0.0
C452 C 0.74797 0.52209 0.88739 0.0
C453 C 0.71316 0.53827 0.92968 0.0
C454 C 0.83131 0.52824 0.73065 0.0
C455 C 0.81924 0.48953 0.69223 0.0
C456 C 0.80259 0.53117 0.77931 0.0
C457 C 0.76164 0.49506 0.79043 0.0
C458 C 0.7514 0.45498 0.75237 0.0
C459 C 0.77979 0.45248 0.70346 0.0
H460 H 0.17592 0.35928 0.61753 0.0
H461 H 0.07737 0.48831 0.68066 0.0
H462 H 0.2445 0.37715 0.6863 0.0
H463 H 0.14595 0.50736 0.74764 0.0
H464 H 0.37184 0.46513 0.79364 0.0
H465 H 0.31109 0.44659 0.71942 0.0
H466 H 0.17247 0.45621 0.8281 0.0
H467 H 0.23311 0.47432 0.90274 0.0
C468 C 0.16993 0.39236 0.64508 0.0
C469 C 0.12198 0.42293 0.64373 0.0
C470 C 0.20885 0.40251 0.68432 0.0
C471 C 0.19988 0.44308 0.72268 0.0
C472 C 0.15339 0.47536 0.71906 0.0
C473 C 0.11478 0.46529 0.67996 0.0
C474 C 0.32855 0.46245 0.80203 0.0
C475 C 0.30734 0.47127 0.85423 0.0
C476 C 0.29383 0.45194 0.75939 0.0
C477 C 0.23723 0.45063 0.76803 0.0
C478 C 0.21604 0.45795 0.82032 0.0
C479 C 0.25076 0.46805 0.86305 0.0
H480 H 0.20803 0.52974 0.43343 0.0
H481 H 0.05836 0.52626 0.34456 0.0
H482 H 0.25993 0.50573 0.35227 0.0
H483 H 0.11013 0.50124 0.26291 0.0
H484 H 0.2324 0.55025 0.1282 0.0
H485 H 0.17377 0.55284 0.20783 0.0
H486 H 0.27928 0.43983 0.2807 0.0
H487 H 0.33841 0.43752 0.20129 0.0
C488 C 0.18623 0.52301 0.39652 0.0
C489 C 0.12951 0.53121 0.39469 0.0
C490 C 0.21584 0.50876 0.35013 0.0
C491 C 0.18922 0.50247 0.30095 0.0
C492 C 0.13184 0.50677 0.30006 0.0
C493 C 0.10217 0.52063 0.34675 0.0
C494 C 0.24299 0.52569 0.16102 0.0
C495 C 0.29045 0.49409 0.1585 0.0
C496 C 0.20903 0.52677 0.20646 0.0
C497 C 0.22184 0.49645 0.25053 0.0
C498 C 0.26855 0.46391 0.24753 0.0
C499 C 0.3024 0.46262 0.20199 0.0
H500 H 0.56044 0.4879 0.20054 0.0
H501 H 0.64478 0.34566 0.15061 0.0
H502 H 0.62503 0.5006 0.27327 0.0
H503 H 0.70718 0.35596 0.22516 0.0
H504 H 0.84365 0.42158 0.32823 0.0
H505 H 0.78033 0.40678 0.25632 0.0
H506 H 0.64737 0.46442 0.35847 0.0
H507 H 0.71173 0.48101 0.43068 0.0
C508 C 0.59354 0.46 0.20458 0.0
C509 C 0.59816 0.41624 0.16982 0.0
C510 C 0.62969 0.46644 0.24699 0.0
C511 C 0.67092 0.42892 0.25558 0.0
C512 C 0.67623 0.38582 0.21964 0.0
C513 C 0.64041 0.37975 0.17705 0.0
C514 C 0.8009 0.43056 0.3359 0.0
C515 C 0.78299 0.45304 0.38524 0.0
C516 C 0.7644 0.42188 0.29445 0.0
C517 C 0.70879 0.435 0.30126 0.0
C518 C 0.69021 0.455 0.3515 0.0
C519 C 0.72696 0.46394 0.3931 0.0
H520 H 0.30205 0.86137 0.45199 0.0
H521 H 0.43207 0.7464 0.46074 0.0
H522 H 0.23823 0.79363 0.4286 0.0
H523 H 0.36685 0.67781 0.43988 0.0
H524 H 0.20318 0.61093 0.52791 0.0
H525 H 0.28369 0.66409 0.51198 0.0
H526 H 0.21633 0.71104 0.36181 0.0
H527 H 0.13638 0.65629 0.37766 0.0
C528 C 0.31751 0.82192 0.44675 0.0
C529 C 0.37211 0.80927 0.45769 0.0
C530 C 0.28091 0.7831 0.43336 0.0
C531 C 0.29794 0.73083 0.43247 0.0
C532 C 0.35322 0.71812 0.43997 0.0
C533 C 0.39036 0.7573 0.45186 0.0
C534 C 0.20651 0.63212 0.49129 0.0
C535 C 0.16438 0.63075 0.4542 0.0
C536 C 0.25248 0.66165 0.48172 0.0
C537 C 0.25611 0.69085 0.43536 0.0
C538 C 0.21443 0.68819 0.39742 0.0
C539 C 0.16889 0.65768 0.4066 0.0
H540 H 0.17448 0.41974 0.44612 0.0
H541 H 0.06577 0.30031 0.49693 0.0
H542 H 0.25369 0.36416 0.46738 0.0
H543 H 0.14423 0.24498 0.51817 0.0
H544 H 0.27627 0.14237 0.43425 0.0
H545 H 0.21032 0.21369 0.43168 0.0
H546 H 0.30018 0.29951 0.55158 0.0
H547 H 0.36726 0.2268 0.55479 0.0
C548 C 0.16777 0.38245 0.46381 0.0
C549 C 0.11461 0.36368 0.46968 0.0
C550 C 0.21285 0.35084 0.47596 0.0
C551 C 0.20474 0.30032 0.49385 0.0
C552 C 0.15134 0.28377 0.50419 0.0
C553 C 0.10661 0.31521 0.49206 0.0
C554 C 0.28264 0.1766 0.45971 0.0
C555 C 0.32649 0.17869 0.49532 0.0
C556 C 0.24474 0.2173 0.45831 0.0
C557 C 0.24971 0.26129 0.4923 0.0
C558 C 0.29552 0.26557 0.52534 0.0
C559 C 0.33386 0.22428 0.52691 0.0
H560 H 0.86852 0.71236 0.43868 0.0
H561 H 0.804 0.68673 0.59673 0.0
H562 H 0.80213 0.78349 0.42851 0.0
H563 H 0.73935 0.75915 0.58816 0.0
H564 H 0.57829 0.81231 0.50861 0.0
H565 H 0.65817 0.76357 0.53749 0.0
H566 H 0.76307 0.86752 0.45238 0.0
H567 H 0.68234 0.91477 0.42209 0.0
C568 C 0.84155 0.72353 0.47197 0.0
C569 C 0.84091 0.69443 0.51833 0.0
C570 C 0.80354 0.76424 0.46636 0.0
C571 C 0.76474 0.77652 0.50729 0.0
C572 C 0.76772 0.74998 0.55544 0.0
C573 C 0.80501 0.70892 0.5606 0.0
C574 C 0.6186 0.82542 0.49755 0.0
C575 C 0.62456 0.86738 0.46387 0.0
C576 C 0.66448 0.7977 0.51407 0.0
C577 C 0.71727 0.81152 0.49712 0.0
C578 C 0.72307 0.85555 0.46572 0.0
C579 C 0.67698 0.88305 0.44894 0.0
H580 H 0.573 0.22924 0.42285 0.0
H581 H 0.69504 0.11004 0.44717 0.0
H582 H 0.64498 0.29373 0.41342 0.0
H583 H 0.76698 0.17366 0.43894 0.0
H584 H 0.8917 0.28954 0.41476 0.0
H585 H 0.81656 0.23476 0.38544 0.0
H586 H 0.70347 0.33125 0.48069 0.0
H587 H 0.77761 0.38604 0.50887 0.0
C588 C 0.61537 0.21718 0.42603 0.0
C589 C 0.6291 0.16551 0.43671 0.0
C590 C 0.65641 0.25363 0.42026 0.0
C591 C 0.71159 0.23875 0.42561 0.0
C592 C 0.72502 0.18626 0.43367 0.0
C593 C 0.68405 0.14998 0.4391 0.0
C594 C 0.85066 0.2994 0.42866 0.0
C595 C 0.84075 0.34098 0.4654 0.0
C596 C 0.80768 0.2682 0.41177 0.0
C597 C 0.75433 0.27825 0.43148 0.0
C598 C 0.74398 0.32255 0.46452 0.0
C599 C 0.78676 0.35358 0.48132 0.0
H600 H 0.53111 0.28383 0.92731 0.0
H601 H 0.58482 0.35485 0.7828 0.0
H602 H 0.51744 0.20124 0.87746 0.0
H603 H 0.57315 0.27223 0.73272 0.0
H604 H 0.56591 0.11315 0.65806 0.0
H605 H 0.60215 0.17481 0.72412 0.0
H606 H 0.44492 0.18432 0.80439 0.0
H607 H 0.40816 0.12314 0.73797 0.0
C608 C 0.54157 0.28093 0.88512 0.0
C609 C 0.55863 0.32504 0.8584 0.0
C610 C 0.53372 0.23402 0.85667 0.0
C611 C 0.5441 0.23044 0.80127 0.0
C612 C 0.56539 0.27372 0.77551 0.0
C613 C 0.57214 0.32084 0.80386 0.0
C614 C 0.53935 0.1272 0.69059 0.0
C615 C 0.48378 0.11397 0.69222 0.0
C616 C 0.56018 0.16267 0.72826 0.0
C617 C 0.52619 0.18474 0.76886 0.0
C618 C 0.4721 0.16774 0.77354 0.0
C619 C 0.45099 0.13284 0.7354 0.0
H620 H 0.5688 0.87139 0.72322 0.0
H621 H 0.55954 0.75666 0.59458 0.0
H622 H 0.57662 0.80227 0.7879 0.0
H623 H 0.56444 0.68735 0.65845 0.0
H624 H 0.5819 0.56604 0.77391 0.0
H625 H 0.61145 0.63905 0.72178 0.0
H626 H 0.51325 0.74372 0.82397 0.0
H627 H 0.48638 0.67071 0.8778 0.0
C628 C 0.57001 0.8312 0.70886 0.0
C629 C 0.56411 0.81884 0.65418 0.0
C630 C 0.57369 0.79164 0.74579 0.0
C631 C 0.57067 0.7391 0.72862 0.0
C632 C 0.56784 0.72715 0.67334 0.0
C633 C 0.56469 0.76666 0.6366 0.0
C634 C 0.56749 0.60487 0.78569 0.0
C635 C 0.53083 0.61279 0.82892 0.0
C636 C 0.58427 0.64669 0.75577 0.0
C637 C 0.56365 0.69717 0.76767 0.0
C638 C 0.5302 0.7055 0.8136 0.0
C639 C 0.51434 0.66365 0.84428 0.0
H640 H 0.62869 0.60005 0.1807 0.0
H641 H 0.45578 0.61024 0.2176 0.0
H642 H 0.64636 0.66211 0.25419 0.0
H643 H 0.47368 0.67165 0.29135 0.0
H644 H 0.6132 0.84311 0.30481 0.0
H645 H 0.61697 0.75942 0.25466 0.0
H646 H 0.52265 0.68985 0.38007 0.0
H647 H 0.52047 0.77348 0.4301 0.0
C648 C 0.59464 0.61418 0.20552 0.0
C649 C 0.54068 0.60109 0.19281 0.0
C650 C 0.60484 0.64985 0.24741 0.0
C651 C 0.56136 0.67209 0.27789 0.0
C652 C 0.50801 0.65496 0.26856 0.0
C653 C 0.49772 0.61997 0.22619 0.0
C654 C 0.59514 0.80924 0.32209 0.0
C655 C 0.5663 0.81408 0.3707 0.0
C656 C 0.59727 0.76149 0.29375 0.0
C657 C 0.56983 0.71827 0.31348 0.0
C658 C 0.54392 0.72258 0.36391 0.0
C659 C 0.54254 0.77016 0.39244 0.0
H660 H 0.45003 0.06268 0.23229 0.0
H661 H 0.48628 0.14148 0.3826 0.0
H662 H 0.47974 0.13796 0.18447 0.0
H663 H 0.51905 0.21587 0.33467 0.0
H664 H 0.49983 0.36107 0.23121 0.0
H665 H 0.48628 0.2854 0.28597 0.0
H666 H 0.5551 0.18616 0.15805 0.0
H667 H 0.565 0.26242 0.10272 0.0
C668 C 0.46479 0.09597 0.25511 0.0
C669 C 0.46598 0.09611 0.31116 0.0
C670 C 0.48269 0.13892 0.22765 0.0
C671 C 0.50259 0.18286 0.25562 0.0
C672 C 0.50361 0.18294 0.31182 0.0
C673 C 0.48521 0.14011 0.33931 0.0
C674 C 0.51318 0.32301 0.21586 0.0
C675 C 0.53336 0.31674 0.16337 0.0
C676 C 0.50561 0.27966 0.24698 0.0
C677 C 0.51879 0.22944 0.22612 0.0
C678 C 0.54308 0.22406 0.1748 0.0
C679 C 0.54955 0.26742 0.14339 0.0
loop_
_geom_bond_atom_site_label_1
_geom_bond_atom_site_label_2
_geom_bond_distance
_geom_bond_site_symmetry_2
_ccdc_geom_bond_type
Zn0 O4 1.993 . S
Zn0 N7 2.004 1_545 S
Zn0 O31 2.064 1_545 S
Zn0 O36 1.963 . S
Zn1 O4 1.970 1_564 S
Zn1 N12 2.004 . S
Zn1 O33 1.963 1_554 S
Zn1 O38 2.064 . S
Zn2 O4 1.971 1_554 S
Zn2 N21 2.004 1_655 S
Zn2 O35 2.064 . S
Zn2 O39 1.963 . S
Zn3 O4 1.913 . S
Zn3 O30 1.941 . S
Zn3 O34 1.941 1_556 S
Zn3 O37 1.941 1_556 S
O4 Zn0 1.993 . S
O4 Zn1 1.970 1_546 S
O4 Zn2 1.971 1_556 S
O4 Zn3 1.913 . S
C5 O6 1.237 1_655 S
C5 O39 1.268 . S
O6 C5 1.237 1_455 S
N7 Zn0 2.004 1_565 S
N7 N8 1.383 1_655 S
N7 C10 1.306 1_655 S
N8 N7 1.383 1_455 S
N8 C11 1.302 . S
N9 C10 1.368 . S
N9 C11 1.379 . S
C10 N7 1.306 1_455 S
C10 N9 1.368 . S
C10 C49 1.481 1_455 S
C11 N8 1.302 . S
C11 N9 1.379 . S
N12 Zn1 2.004 . S
N12 C15 1.306 1_655 S
N12 N16 1.383 1_655 S
C13 N14 1.379 . S
C13 N16 1.302 . S
N14 C13 1.379 . S
N14 C15 1.368 . S
C15 N12 1.306 1_455 S
C15 N14 1.368 . S
C15 C18 1.481 1_455 S
N16 N12 1.383 1_455 S
N16 C13 1.302 . S
H17 C18 0.969 . S
C18 C15 1.481 1_655 S
C18 H17 0.969 . S
C18 H19 0.970 . S
C18 H20 0.971 . S
H19 C18 0.970 . S
H20 C18 0.971 . S
N21 Zn2 2.004 1_455 S
N21 C22 1.306 . S
N21 N24 1.384 1_554 S
C22 N21 1.306 . S
C22 N25 1.368 1_554 S
C22 C26 1.481 . S
C23 N24 1.302 . S
C23 N25 1.379 . S
N24 N21 1.384 1_556 S
N24 C23 1.302 . S
N25 C22 1.368 1_556 S
N25 C23 1.379 . S
C26 C22 1.481 . S
C26 H27 0.971 . S
C26 H28 0.970 . S
C26 H29 0.969 . S
H27 C26 0.971 . S
H28 C26 0.970 . S
H29 C26 0.969 . S
O30 Zn3 1.941 . S
O30 C32 1.277 1_545 S
O31 Zn0 2.064 1_565 S
O31 C32 1.233 . S
C32 O30 1.277 1_565 S
C32 O31 1.233 . S
O33 Zn1 1.963 1_556 S
O33 C40 1.268 . S
O34 Zn3 1.941 1_554 S
O34 C42 1.277 1_554 S
O35 Zn2 2.064 . S
O35 C42 1.231 1_554 S
O36 Zn0 1.963 . S
O36 C43 1.268 . S
O37 Zn3 1.941 1_554 S
O37 C45 1.277 1_545 S
O38 Zn1 2.064 . S
O38 C45 1.233 . S
O39 Zn2 1.963 . S
O39 C5 1.268 . S
C40 O33 1.268 . S
C40 O41 1.237 1_556 S
O41 C40 1.237 1_554 S
C42 O34 1.277 1_556 S
C42 O35 1.231 1_556 S
C43 O36 1.268 . S
C43 O44 1.237 . S
O44 C43 1.237 . S
C45 O37 1.277 1_565 S
C45 O38 1.233 . S
H46 C49 0.970 . S
H47 C49 0.971 . S
H48 C49 0.969 1_455 S
C49 C10 1.481 1_655 S
C49 H46 0.970 . S
C49 H47 0.971 . S
C49 H48 0.969 1_655 S
Zn50 O54 1.978 . S
Zn50 N57 2.004 . S
Zn50 O81 2.064 . S
Zn50 O86 1.963 . S
Zn51 O54 1.978 . S
Zn51 N62 2.004 . S
Zn51 O83 1.963 . S
Zn51 O88 2.064 . S
Zn52 O54 1.978 . S
Zn52 N71 2.004 1_655 S
Zn52 O85 2.064 . S
Zn52 O89 1.963 . S
Zn53 O54 1.913 . S
Zn53 O80 1.941 . S
Zn53 O84 1.941 . S
Zn53 O87 1.941 . S
O54 Zn50 1.978 . S
O54 Zn51 1.978 . S
O54 Zn52 1.978 . S
O54 Zn53 1.913 . S
C55 O56 1.237 1_655 S
C55 O89 1.268 . S
O56 C55 1.237 1_455 S
N57 Zn50 2.004 . S
N57 N58 1.383 1_655 S
N57 C60 1.306 1_655 S
N58 N57 1.383 1_455 S
N58 C61 1.302 . S
N59 C60 1.368 . S
N59 C61 1.379 . S
C60 N57 1.306 1_455 S
C60 N59 1.368 . S
C60 C99 1.481 1_455 S
C61 N58 1.302 . S
C61 N59 1.379 . S
N62 Zn51 2.004 . S
N62 C65 1.306 1_655 S
N62 N66 1.383 1_655 S
C63 N64 1.379 . S
C63 N66 1.302 . S
N64 C63 1.379 . S
N64 C65 1.368 . S
C65 N62 1.306 1_455 S
C65 N64 1.368 . S
C65 C68 1.481 1_455 S
N66 N62 1.383 1_455 S
N66 C63 1.302 . S
H67 C68 0.969 . S
C68 C65 1.481 1_655 S
C68 H67 0.969 . S
C68 H69 0.970 . S
C68 H70 0.971 . S
H69 C68 0.970 . S
H70 C68 0.971 . S
N71 Zn52 2.004 1_455 S
N71 C72 1.306 . S
N71 N74 1.383 . S
C72 N71 1.306 . S
C72 N75 1.368 . S
C72 C76 1.481 . S
C73 N74 1.302 . S
C73 N75 1.379 . S
N74 N71 1.383 . S
N74 C73 1.302 . S
N75 C72 1.368 . S
N75 C73 1.379 . S
C76 C72 1.481 . S
C76 H77 0.971 . S
C76 H78 0.970 . S
C76 H79 0.969 . S
H77 C76 0.971 . S
H78 C76 0.970 . S
H79 C76 0.969 . S
O80 Zn53 1.941 . S
O80 C82 1.277 . S
O81 Zn50 2.064 . S
O81 C82 1.233 . S
C82 O80 1.277 . S
C82 O81 1.233 . S
O83 Zn51 1.963 . S
O83 C90 1.268 . S
O84 Zn53 1.941 . S
O84 C92 1.277 . S
O85 Zn52 2.064 . S
O85 C92 1.233 . S
O86 Zn50 1.963 . S
O86 C93 1.268 . S
O87 Zn53 1.941 . S
O87 C95 1.277 . S
O88 Zn51 2.064 . S
O88 C95 1.233 . S
O89 Zn52 1.963 . S
O89 C55 1.268 . S
C90 O83 1.268 . S
C90 O91 1.237 . S
O91 C90 1.237 . S
C92 O84 1.277 . S
C92 O85 1.233 . S
C93 O86 1.268 . S
C93 O94 1.237 . S
O94 C93 1.237 . S
C95 O87 1.277 . S
C95 O88 1.233 . S
H96 C99 0.970 . S
H97 C99 0.971 . S
H98 C99 0.969 1_455 S
C99 C60 1.481 1_655 S
C99 H96 0.970 . S
C99 H97 0.971 . S
C99 H98 0.969 1_655 S
Zn100 O104 1.978 . S
Zn100 N107 2.004 1_545 S
Zn100 O131 2.064 1_545 S
Zn100 O136 1.963 . S
Zn101 O104 1.978 1_565 S
Zn101 N112 2.004 . S
Zn101 O133 1.963 . S
Zn101 O138 2.064 . S
Zn102 O104 1.978 . S
Zn102 N121 2.004 . S
Zn102 O135 2.064 . S
Zn102 O139 1.963 . S
Zn103 O104 1.913 . S
Zn103 O130 1.941 . S
Zn103 O134 1.941 . S
Zn103 O137 1.941 . S
O104 Zn100 1.978 . S
O104 Zn101 1.978 1_545 S
O104 Zn102 1.978 . S
O104 Zn103 1.913 . S
C105 O106 1.237 . S
C105 O139 1.268 . S
O106 C105 1.237 . S
N107 Zn100 2.004 1_565 S
N107 N108 1.383 . S
N107 C110 1.306 . S
N108 N107 1.383 . S
N108 C111 1.302 . S
N109 C110 1.368 . S
N109 C111 1.379 . S
C110 N107 1.306 . S
C110 N109 1.368 . S
C110 C149 1.481 . S
C111 N108 1.302 . S
C111 N109 1.379 . S
N112 Zn101 2.004 . S
N112 C115 1.306 . S
N112 N116 1.383 . S
C113 N114 1.379 . S
C113 N116 1.302 . S
N114 C113 1.379 . S
N114 C115 1.368 . S
C115 N112 1.306 . S
C115 N114 1.368 . S
C115 C118 1.481 . S
N116 N112 1.383 . S
N116 C113 1.302 . S
H117 C118 0.969 . S
C118 C115 1.481 . S
C118 H117 0.969 . S
C118 H119 0.970 . S
C118 H120 0.971 . S
H119 C118 0.970 . S
H120 C118 0.971 . S
N121 Zn102 2.004 . S
N121 C122 1.306 . S
N121 N124 1.383 . S
C122 N121 1.306 . S
C122 N125 1.368 . S
C122 C126 1.481 . S
C123 N124 1.302 . S
C123 N125 1.379 . S
N124 N121 1.383 . S
N124 C123 1.302 . S
N125 C122 1.368 . S
N125 C123 1.379 . S
C126 C122 1.481 . S
C126 H127 0.971 . S
C126 H128 0.970 . S
C126 H129 0.969 . S
H127 C126 0.971 . S
H128 C126 0.970 . S
H129 C126 0.969 . S
O130 Zn103 1.941 . S
O130 C132 1.277 1_545 S
O131 Zn100 2.064 1_565 S
O131 C132 1.233 . S
C132 O130 1.277 1_565 S
C132 O131 1.233 . S
O133 Zn101 1.963 . S
O133 C140 1.268 . S
O134 Zn103 1.941 . S
O134 C142 1.277 . S
O135 Zn102 2.064 . S
O135 C142 1.233 . S
O136 Zn100 1.963 . S
O136 C143 1.268 . S
O137 Zn103 1.941 . S
O137 C145 1.277 1_545 S
O138 Zn101 2.064 . S
O138 C145 1.233 . S
O139 Zn102 1.963 . S
O139 C105 1.268 . S
C140 O133 1.268 . S
C140 O141 1.237 . S
O141 C140 1.237 . S
C142 O134 1.277 . S
C142 O135 1.233 . S
C143 O136 1.268 . S
C143 O144 1.237 . S
O144 C143 1.237 . S
C145 O137 1.277 1_565 S
C145 O138 1.233 . S
H146 C149 0.970 . S
H147 C149 0.971 . S
H148 C149 0.969 . S
C149 C110 1.481 . S
C149 H146 0.970 . S
C149 H147 0.971 . S
C149 H148 0.969 . S
Zn150 O154 1.993 . S
Zn150 N157 2.004 . S
Zn150 O181 2.064 . S
Zn150 O186 1.963 . S
Zn151 O154 1.970 1_554 S
Zn151 N162 2.004 . S
Zn151 O183 1.963 1_554 S
Zn151 O188 2.064 . S
Zn152 O154 1.971 1_554 S
Zn152 N171 2.004 . S
Zn152 O185 2.064 . S
Zn152 O189 1.963 . S
Zn153 O154 1.913 . S
Zn153 O180 1.941 . S
Zn153 O184 1.941 1_556 S
Zn153 O187 1.941 1_556 S
O154 Zn150 1.993 . S
O154 Zn151 1.970 1_556 S
O154 Zn152 1.971 1_556 S
O154 Zn153 1.913 . S
C155 O156 1.237 . S
C155 O189 1.268 . S
O156 C155 1.237 . S
N157 Zn150 2.004 . S
N157 N158 1.383 . S
N157 C160 1.306 . S
N158 N157 1.383 . S
N158 C161 1.302 . S
N159 C160 1.368 . S
N159 C161 1.379 . S
C160 N157 1.306 . S
C160 N159 1.368 . S
C160 C199 1.481 . S
C161 N158 1.302 . S
C161 N159 1.379 . S
N162 Zn151 2.004 . S
N162 C165 1.306 . S
N162 N166 1.383 . S
C163 N164 1.379 . S
C163 N166 1.302 . S
N164 C163 1.379 . S
N164 C165 1.368 . S
C165 N162 1.306 . S
C165 N164 1.368 . S
C165 C168 1.481 . S
N166 N162 1.383 . S
N166 C163 1.302 . S
H167 C168 0.969 . S
C168 C165 1.481 . S
C168 H167 0.969 . S
C168 H169 0.970 . S
C168 H170 0.971 . S
H169 C168 0.970 . S
H170 C168 0.971 . S
N171 Zn152 2.004 . S
N171 C172 1.306 . S
N171 N174 1.384 1_554 S
C172 N171 1.306 . S
C172 N175 1.368 1_554 S
C172 C176 1.481 . S
C173 N174 1.302 . S
C173 N175 1.379 . S
N174 N171 1.384 1_556 S
N174 C173 1.302 . S
N175 C172 1.368 1_556 S
N175 C173 1.379 . S
C176 C172 1.481 . S
C176 H177 0.971 . S
C176 H178 0.970 . S
C176 H179 0.969 . S
H177 C176 0.971 . S
H178 C176 0.970 . S
H179 C176 0.969 . S
O180 Zn153 1.941 . S
O180 C182 1.277 . S
O181 Zn150 2.064 . S
O181 C182 1.233 . S
C182 O180 1.277 . S
C182 O181 1.233 . S
O183 Zn151 1.963 1_556 S
O183 C190 1.268 . S
O184 Zn153 1.941 1_554 S
O184 C192 1.277 1_554 S
O185 Zn152 2.064 . S
O185 C192 1.231 1_554 S
O186 Zn150 1.963 . S
O186 C193 1.268 . S
O187 Zn153 1.941 1_554 S
O187 C195 1.277 . S
O188 Zn151 2.064 . S
O188 C195 1.233 . S
O189 Zn152 1.963 . S
O189 C155 1.268 . S
C190 O183 1.268 . S
C190 O191 1.237 1_556 S
O191 C190 1.237 1_554 S
C192 O184 1.277 1_556 S
C192 O185 1.231 1_556 S
C193 O186 1.268 . S
C193 O194 1.237 . S
O194 C193 1.237 . S
C195 O187 1.277 . S
C195 O188 1.233 . S
H196 C199 0.970 . S
H197 C199 0.971 . S
H198 C199 0.969 . S
C199 C160 1.481 . S
C199 H196 0.970 . S
C199 H197 0.971 . S
C199 H198 0.969 . S
H200 C208 0.950 . S
H201 C213 0.950 . S
H202 C210 0.950 . S
H203 C212 0.950 . S
H204 C214 0.950 1_655 S
H205 C216 0.955 . S
H206 C218 0.950 . S
H207 C219 0.950 . S
C208 H200 0.950 . S
C208 C209 1.386 1_455 S
C208 C210 1.391 . S
C209 C208 1.386 1_655 S
C209 C213 1.393 . S
C210 H202 0.950 . S
C210 C208 1.391 . S
C210 C211 1.400 . S
C211 C210 1.400 . S
C211 C212 1.398 1_455 S
C211 C217 1.491 . S
C212 H203 0.950 . S
C212 C211 1.398 1_655 S
C212 C213 1.391 . S
C213 H201 0.950 . S
C213 C209 1.393 . S
C213 C212 1.391 . S
C214 H204 0.950 1_455 S
C214 C215 1.386 . S
C214 C216 1.390 1_455 S
C215 C214 1.386 . S
C215 C219 1.393 . S
C216 H205 0.955 . S
C216 C214 1.390 1_655 S
C216 C217 1.396 1_655 S
C217 C211 1.491 . S
C217 C216 1.396 1_455 S
C217 C218 1.398 . S
C218 H206 0.950 . S
C218 C217 1.398 . S
C218 C219 1.391 . S
C219 H207 0.950 . S
C219 C215 1.393 . S
C219 C218 1.391 . S
H220 C228 0.950 . S
H221 C233 0.950 . S
H222 C230 0.950 . S
H223 C232 0.950 . S
H224 C234 0.957 . S
H225 C236 0.950 . S
H226 C238 0.950 . S
H227 C239 0.950 . S
C228 H220 0.950 . S
C228 C229 1.386 . S
C228 C230 1.391 . S
C229 C228 1.386 . S
C229 C233 1.393 1_545 S
C230 H222 0.950 . S
C230 C228 1.391 . S
C230 C231 1.400 . S
C231 C230 1.400 . S
C231 C232 1.398 1_545 S
C231 C237 1.491 . S
C232 H223 0.950 . S
C232 C231 1.398 1_565 S
C232 C233 1.391 . S
C233 H221 0.950 . S
C233 C229 1.393 1_565 S
C233 C232 1.391 . S
C234 H224 0.957 . S
C234 C235 1.377 1_565 S
C234 C236 1.393 . S
C235 C234 1.377 1_545 S
C235 C239 1.393 . S
C236 H225 0.950 . S
C236 C234 1.393 . S
C236 C237 1.400 1_565 S
C237 C231 1.491 . S
C237 C236 1.400 1_545 S
C237 C238 1.398 . S
C238 H226 0.950 . S
C238 C237 1.398 . S
C238 C239 1.391 . S
C239 H227 0.950 . S
C239 C235 1.393 . S
C239 C238 1.391 . S
H240 C248 0.950 . S
H241 C253 0.950 . S
H242 C250 0.950 . S
H243 C252 0.950 . S
H244 C254 0.950 . S
H245 C256 0.950 . S
H246 C258 0.950 . S
H247 C259 0.949 1_655 S
C248 H240 0.950 . S
C248 C249 1.386 . S
C248 C250 1.391 . S
C249 C248 1.386 . S
C249 C253 1.393 . S
C250 H242 0.950 . S
C250 C248 1.391 . S
C250 C251 1.400 . S
C251 C250 1.400 . S
C251 C252 1.398 . S
C251 C257 1.491 . S
C252 H243 0.950 . S
C252 C251 1.398 . S
C252 C253 1.391 . S
C253 H241 0.950 . S
C253 C249 1.393 . S
C253 C252 1.391 . S
C254 H244 0.950 . S
C254 C255 1.386 . S
C254 C256 1.391 . S
C255 C254 1.386 . S
C255 C259 1.393 . S
C256 H245 0.950 . S
C256 C254 1.391 . S
C256 C257 1.400 . S
C257 C251 1.491 . S
C257 C256 1.400 . S
C257 C258 1.398 . S
C258 H246 0.950 . S
C258 C257 1.398 . S
C258 C259 1.391 . S
C259 H247 0.949 1_455 S
C259 C255 1.393 . S
C259 C258 1.391 . S
H260 C268 0.950 . S
H261 C273 0.950 . S
H262 C270 0.950 . S
H263 C272 0.950 . S
H264 C274 0.950 1_545 S
H265 C276 0.950 . S
H266 C278 0.950 . S
H267 C279 0.950 . S
C268 H260 0.950 . S
C268 C269 1.386 . S
C268 C270 1.391 . S
C269 C268 1.386 . S
C269 C273 1.393 . S
C270 H262 0.950 . S
C270 C268 1.391 . S
C270 C271 1.400 . S
C271 C270 1.400 . S
C271 C272 1.398 . S
C271 C277 1.491 . S
C272 H263 0.950 . S
C272 C271 1.398 . S
C272 C273 1.391 . S
C273 H261 0.950 . S
C273 C269 1.393 . S
C273 C272 1.391 . S
C274 H264 0.950 1_565 S
C274 C275 1.386 . S
C274 C276 1.391 . S
C275 C274 1.386 . S
C275 C279 1.393 . S
C276 H265 0.950 . S
C276 C274 1.391 . S
C276 C277 1.400 . S
C277 C271 1.491 . S
C277 C276 1.400 . S
C277 C278 1.398 . S
C278 H266 0.950 . S
C278 C277 1.398 . S
C278 C279 1.391 . S
C279 H267 0.950 . S
C279 C275 1.393 . S
C279 C278 1.391 . S
H280 C288 0.950 . S
H281 C293 0.950 . S
H282 C290 0.950 . S
H283 C292 0.950 . S
H284 C294 0.950 . S
H285 C296 0.950 . S
H286 C298 0.950 . S
H287 C299 0.950 . S
C288 H280 0.950 . S
C288 C289 1.386 . S
C288 C290 1.391 . S
C289 C288 1.386 . S
C289 C293 1.393 1_455 S
C290 H282 0.950 . S
C290 C288 1.391 . S
C290 C291 1.400 . S
C291 C290 1.400 . S
C291 C292 1.398 1_455 S
C291 C297 1.491 . S
C292 H283 0.950 . S
C292 C291 1.398 1_655 S
C292 C293 1.391 . S
C293 H281 0.950 . S
C293 C289 1.393 1_655 S
C293 C292 1.391 . S
C294 H284 0.950 . S
C294 C295 1.386 . S
C294 C296 1.391 . S
C295 C294 1.386 . S
C295 C299 1.393 1_655 S
C296 H285 0.950 . S
C296 C294 1.391 . S
C296 C297 1.400 1_655 S
C297 C291 1.491 . S
C297 C296 1.400 1_455 S
C297 C298 1.398 . S
C298 H286 0.950 . S
C298 C297 1.398 . S
C298 C299 1.391 . S
C299 H287 0.950 . S
C299 C295 1.393 1_455 S
C299 C298 1.391 . S
H300 C308 0.950 . S
H301 C313 0.950 . S
H302 C310 0.950 1_565 S
H303 C312 0.950 . S
H304 C314 0.950 . S
H305 C316 0.950 . S
H306 C318 0.950 . S
H307 C319 0.950 . S
C308 H300 0.950 . S
C308 C309 1.386 . S
C308 C310 1.391 . S
C309 C308 1.386 . S
C309 C313 1.393 . S
C310 H302 0.950 1_545 S
C310 C308 1.391 . S
C310 C311 1.400 . S
C311 C310 1.400 . S
C311 C312 1.398 . S
C311 C317 1.491 . S
C312 H303 0.950 . S
C312 C311 1.398 . S
C312 C313 1.391 . S
C313 H301 0.950 . S
C313 C309 1.393 . S
C313 C312 1.391 . S
C314 H304 0.950 . S
C314 C315 1.386 . S
C314 C316 1.391 . S
C315 C314 1.386 . S
C315 C319 1.393 1_545 S
C316 H305 0.950 . S
C316 C314 1.391 . S
C316 C317 1.400 . S
C317 C311 1.491 . S
C317 C316 1.400 . S
C317 C318 1.398 1_545 S
C318 H306 0.950 . S
C318 C317 1.398 1_565 S
C318 C319 1.391 . S
C319 H307 0.950 . S
C319 C315 1.393 1_565 S
C319 C318 1.391 . S
H320 C328 0.950 . S
H321 C333 0.950 . S
H322 C330 0.950 . S
H323 C332 0.950 . S
H324 C334 0.950 . S
H325 C336 0.950 1_655 S
H326 C338 0.950 . S
H327 C339 0.950 . S
C328 H320 0.950 . S
C328 C329 1.386 . S
C328 C330 1.391 . S
C329 C328 1.386 . S
C329 C333 1.393 . S
C330 H322 0.950 . S
C330 C328 1.391 . S
C330 C331 1.400 . S
C331 C330 1.400 . S
C331 C332 1.398 . S
C331 C337 1.491 . S
C332 H323 0.950 . S
C332 C331 1.398 . S
C332 C333 1.391 . S
C333 H321 0.950 . S
C333 C329 1.393 . S
C333 C332 1.391 . S
C334 H324 0.950 . S
C334 C335 1.386 1_655 S
C334 C336 1.391 1_655 S
C335 C334 1.386 1_455 S
C335 C339 1.393 . S
C336 H325 0.950 1_455 S
C336 C334 1.391 1_455 S
C336 C337 1.400 . S
C337 C331 1.491 . S
C337 C336 1.400 . S
C337 C338 1.398 . S
C338 H326 0.950 . S
C338 C337 1.398 . S
C338 C339 1.391 . S
C339 H327 0.950 . S
C339 C335 1.393 . S
C339 C338 1.391 . S
H340 C348 0.950 . S
H341 C353 0.950 . S
H342 C350 0.950 . S
H343 C352 0.950 . S
H344 C354 0.950 . S
H345 C356 0.950 . S
H346 C358 0.950 . S
H347 C359 0.950 . S
C348 H340 0.950 . S
C348 C349 1.386 . S
C348 C350 1.391 . S
C349 C348 1.386 . S
C349 C353 1.393 1_565 S
C350 H342 0.950 . S
C350 C348 1.391 . S
C350 C351 1.400 . S
C351 C350 1.400 . S
C351 C352 1.398 1_565 S
C351 C357 1.491 . S
C352 H343 0.950 . S
C352 C351 1.398 1_545 S
C352 C353 1.391 . S
C353 H341 0.950 . S
C353 C349 1.393 1_545 S
C353 C352 1.391 . S
C354 H344 0.950 . S
C354 C355 1.386 1_545 S
C354 C356 1.391 . S
C355 C354 1.386 1_565 S
C355 C359 1.393 . S
C356 H345 0.950 . S
C356 C354 1.391 . S
C356 C357 1.400 1_545 S
C357 C351 1.491 . S
C357 C356 1.400 1_565 S
C357 C358 1.398 . S
C358 H346 0.950 . S
C358 C357 1.398 . S
C358 C359 1.391 . S
C359 H347 0.950 . S
C359 C355 1.393 . S
C359 C358 1.391 . S
H360 C368 0.950 . S
H361 C373 0.950 . S
H362 C370 0.950 . S
H363 C372 0.950 . S
H364 C374 0.950 . S
H365 C376 0.950 . S
H366 C378 0.950 1_554 S
H367 C379 0.950 1_554 S
C368 H360 0.950 . S
C368 C369 1.386 1_554 S
C368 C370 1.391 . S
C369 C368 1.386 1_556 S
C369 C373 1.393 . S
C370 H362 0.950 . S
C370 C368 1.391 . S
C370 C371 1.400 1_554 S
C371 C370 1.400 1_556 S
C371 C372 1.398 . S
C371 C377 1.491 . S
C372 H363 0.950 . S
C372 C371 1.398 . S
C372 C373 1.391 . S
C373 H361 0.950 . S
C373 C369 1.393 . S
C373 C372 1.391 . S
C374 H364 0.950 . S
C374 C375 1.386 . S
C374 C376 1.391 . S
C375 C374 1.386 . S
C375 C379 1.393 . S
C376 H365 0.950 . S
C376 C374 1.391 . S
C376 C377 1.400 . S
C377 C371 1.491 . S
C377 C376 1.400 . S
C377 C378 1.398 . S
C378 H366 0.950 1_556 S
C378 C377 1.398 . S
C378 C379 1.391 . S
C379 H367 0.950 1_556 S
C379 C375 1.393 . S
C379 C378 1.391 . S
H380 C388 0.950 . S
H381 C393 0.950 . S
H382 C390 0.950 . S
H383 C392 0.950 . S
H384 C394 0.950 . S
H385 C396 0.950 . S
H386 C398 0.950 . S
H387 C399 0.950 . S
C388 H380 0.950 . S
C388 C389 1.386 . S
C388 C390 1.391 . S
C389 C388 1.386 . S
C389 C393 1.393 . S
C390 H382 0.950 . S
C390 C388 1.391 . S
C390 C391 1.400 . S
C391 C390 1.400 . S
C391 C392 1.398 . S
C391 C397 1.491 . S
C392 H383 0.950 . S
C392 C391 1.398 . S
C392 C393 1.391 . S
C393 H381 0.950 . S
C393 C389 1.393 . S
C393 C392 1.391 . S
C394 H384 0.950 . S
C394 C395 1.386 . S
C394 C396 1.391 . S
C395 C394 1.386 . S
C395 C399 1.393 . S
C396 H385 0.950 . S
C396 C394 1.391 . S
C396 C397 1.400 . S
C397 C391 1.491 . S
C397 C396 1.400 . S
C397 C398 1.398 . S
C398 H386 0.950 . S
C398 C397 1.398 . S
C398 C399 1.391 . S
C399 H387 0.950 . S
C399 C395 1.393 . S
C399 C398 1.391 . S
H400 C408 0.950 . S
H401 C413 0.950 1_554 S
H402 C410 0.950 . S
H403 C412 0.954 . S
H404 C414 0.950 . S
H405 C416 0.950 . S
H406 C418 0.950 . S
H407 C419 0.950 . S
C408 H400 0.950 . S
C408 C409 1.386 . S
C408 C410 1.391 . S
C409 C408 1.386 . S
C409 C413 1.393 . S
C410 H402 0.950 . S
C410 C408 1.391 . S
C410 C411 1.400 . S
C411 C410 1.400 . S
C411 C412 1.395 1_556 S
C411 C417 1.491 . S
C412 H403 0.954 . S
C412 C411 1.395 1_554 S
C412 C413 1.390 1_554 S
C413 H401 0.950 1_556 S
C413 C409 1.393 . S
C413 C412 1.390 1_556 S
C414 H404 0.950 . S
C414 C415 1.386 1_554 S
C414 C416 1.391 . S
C415 C414 1.386 1_556 S
C415 C419 1.393 . S
C416 H405 0.950 . S
C416 C414 1.391 . S
C416 C417 1.400 1_554 S
C417 C411 1.491 . S
C417 C416 1.400 1_556 S
C417 C418 1.398 . S
C418 H406 0.950 . S
C418 C417 1.398 . S
C418 C419 1.391 . S
C419 H407 0.950 . S
C419 C415 1.393 . S
C419 C418 1.391 . S
H420 C428 0.950 . S
H421 C433 0.950 . S
H422 C430 0.950 . S
H423 C432 0.950 . S
H424 C434 0.950 . S
H425 C436 0.950 . S
H426 C438 0.950 . S
H427 C439 0.950 . S
C428 H420 0.950 . S
C428 C429 1.386 . S
C428 C430 1.391 . S
C429 C428 1.386 . S
C429 C433 1.393 . S
C430 H422 0.950 . S
C430 C428 1.391 . S
C430 C431 1.400 . S
C431 C430 1.400 . S
C431 C432 1.398 . S
C431 C437 1.491 . S
C432 H423 0.950 . S
C432 C431 1.398 . S
C432 C433 1.391 . S
C433 H421 0.950 . S
C433 C429 1.393 . S
C433 C432 1.391 . S
C434 H424 0.950 . S
C434 C435 1.386 . S
C434 C436 1.391 . S
C435 C434 1.386 . S
C435 C439 1.393 . S
C436 H425 0.950 . S
C436 C434 1.391 . S
C436 C437 1.400 . S
C437 C431 1.491 . S
C437 C436 1.400 . S
C437 C438 1.398 . S
C438 H426 0.950 . S
C438 C437 1.398 . S
C438 C439 1.391 . S
C439 H427 0.950 . S
C439 C435 1.393 . S
C439 C438 1.391 . S
H440 C448 0.950 . S
H441 C453 0.950 . S
H442 C450 0.950 . S
H443 C452 0.950 . S
H444 C454 0.950 . S
H445 C456 0.950 . S
H446 C458 0.950 . S
H447 C459 0.950 . S
C448 H440 0.950 . S
C448 C449 1.386 . S
C448 C450 1.391 . S
C449 C448 1.386 . S
C449 C453 1.393 . S
C450 H442 0.950 . S
C450 C448 1.391 . S
C450 C451 1.400 . S
C451 C450 1.400 . S
C451 C452 1.398 . S
C451 C457 1.491 . S
C452 H443 0.950 . S
C452 C451 1.398 . S
C452 C453 1.391 . S
C453 H441 0.950 . S
C453 C449 1.393 . S
C453 C452 1.391 . S
C454 H444 0.950 . S
C454 C455 1.386 . S
C454 C456 1.391 . S
C455 C454 1.386 . S
C455 C459 1.393 . S
C456 H445 0.950 . S
C456 C454 1.391 . S
C456 C457 1.400 . S
C457 C451 1.491 . S
C457 C456 1.400 . S
C457 C458 1.398 . S
C458 H446 0.950 . S
C458 C457 1.398 . S
C458 C459 1.391 . S
C459 H447 0.950 . S
C459 C455 1.393 . S
C459 C458 1.391 . S
H460 C468 0.950 . S
H461 C473 0.950 . S
H462 C470 0.950 . S
H463 C472 0.950 . S
H464 C474 0.950 . S
H465 C476 0.950 . S
H466 C478 0.950 . S
H467 C479 0.950 . S
C468 H460 0.950 . S
C468 C469 1.386 . S
C468 C470 1.391 . S
C469 C468 1.386 . S
C469 C473 1.393 . S
C470 H462 0.950 . S
C470 C468 1.391 . S
C470 C471 1.400 . S
C471 C470 1.400 . S
C471 C472 1.398 . S
C471 C477 1.491 . S
C472 H463 0.950 . S
C472 C471 1.398 . S
C472 C473 1.391 . S
C473 H461 0.950 . S
C473 C469 1.393 . S
C473 C472 1.391 . S
C474 H464 0.950 . S
C474 C475 1.386 . S
C474 C476 1.391 . S
C475 C474 1.386 . S
C475 C479 1.393 . S
C476 H465 0.950 . S
C476 C474 1.391 . S
C476 C477 1.400 . S
C477 C471 1.491 . S
C477 C476 1.400 . S
C477 C478 1.398 . S
C478 H466 0.950 . S
C478 C477 1.398 . S
C478 C479 1.391 . S
C479 H467 0.950 . S
C479 C475 1.393 . S
C479 C478 1.391 . S
H480 C488 0.950 . S
H481 C493 0.950 . S
H482 C490 0.950 . S
H483 C492 0.950 . S
H484 C494 0.950 . S
H485 C496 0.950 . S
H486 C498 0.950 . S
H487 C499 0.950 . S
C488 H480 0.950 . S
C488 C489 1.386 . S
C488 C490 1.391 . S
C489 C488 1.386 . S
C489 C493 1.393 . S
C490 H482 0.950 . S
C490 C488 1.391 . S
C490 C491 1.400 . S
C491 C490 1.400 . S
C491 C492 1.398 . S
C491 C497 1.491 . S
C492 H483 0.950 . S
C492 C491 1.398 . S
C492 C493 1.391 . S
C493 H481 0.950 . S
C493 C489 1.393 . S
C493 C492 1.391 . S
C494 H484 0.950 . S
C494 C495 1.386 . S
C494 C496 1.391 . S
C495 C494 1.386 . S
C495 C499 1.393 . S
C496 H485 0.950 . S
C496 C494 1.391 . S
C496 C497 1.400 . S
C497 C491 1.491 . S
C497 C496 1.400 . S
C497 C498 1.398 . S
C498 H486 0.950 . S
C498 C497 1.398 . S
C498 C499 1.391 . S
C499 H487 0.950 . S
C499 C495 1.393 . S
C499 C498 1.391 . S
H500 C508 0.950 . S
H501 C513 0.950 . S
H502 C510 0.950 . S
H503 C512 0.950 . S
H504 C514 0.950 . S
H505 C516 0.950 . S
H506 C518 0.950 . S
H507 C519 0.950 . S
C508 H500 0.950 . S
C508 C509 1.386 . S
C508 C510 1.391 . S
C509 C508 1.386 . S
C509 C513 1.393 . S
C510 H502 0.950 . S
C510 C508 1.391 . S
C510 C511 1.400 . S
C511 C510 1.400 . S
C511 C512 1.398 . S
C511 C517 1.491 . S
C512 H503 0.950 . S
C512 C511 1.398 . S
C512 C513 1.391 . S
C513 H501 0.950 . S
C513 C509 1.393 . S
C513 C512 1.391 . S
C514 H504 0.950 . S
C514 C515 1.386 . S
C514 C516 1.391 . S
C515 C514 1.386 . S
C515 C519 1.393 . S
C516 H505 0.950 . S
C516 C514 1.391 . S
C516 C517 1.400 . S
C517 C511 1.491 . S
C517 C516 1.400 . S
C517 C518 1.398 . S
C518 H506 0.950 . S
C518 C517 1.398 . S
C518 C519 1.391 . S
C519 H507 0.950 . S
C519 C515 1.393 . S
C519 C518 1.391 . S
H520 C528 0.950 . S
H521 C533 0.950 . S
H522 C530 0.950 . S
H523 C532 0.950 . S
H524 C534 0.950 . S
H525 C536 0.950 . S
H526 C538 0.950 . S
H527 C539 0.950 . S
C528 H520 0.950 . S
C528 C529 1.386 . S
C528 C530 1.391 . S
C529 C528 1.386 . S
C529 C533 1.393 . S
C530 H522 0.950 . S
C530 C528 1.391 . S
C530 C531 1.400 . S
C531 C530 1.400 . S
C531 C532 1.398 . S
C531 C537 1.491 . S
C532 H523 0.950 . S
C532 C531 1.398 . S
C532 C533 1.391 . S
C533 H521 0.950 . S
C533 C529 1.393 . S
C533 C532 1.391 . S
C534 H524 0.950 . S
C534 C535 1.386 . S
C534 C536 1.391 . S
C535 C534 1.386 . S
C535 C539 1.393 . S
C536 H525 0.950 . S
C536 C534 1.391 . S
C536 C537 1.400 . S
C537 C531 1.491 . S
C537 C536 1.400 . S
C537 C538 1.398 . S
C538 H526 0.950 . S
C538 C537 1.398 . S
C538 C539 1.391 . S
C539 H527 0.950 . S
C539 C535 1.393 . S
C539 C538 1.391 . S
H540 C548 0.950 . S
H541 C553 0.950 . S
H542 C550 0.950 . S
H543 C552 0.950 . S
H544 C554 0.950 . S
H545 C556 0.950 . S
H546 C558 0.950 . S
H547 C559 0.950 . S
C548 H540 0.950 . S
C548 C549 1.386 . S
C548 C550 1.391 . S
C549 C548 1.386 . S
C549 C553 1.393 . S
C550 H542 0.950 . S
C550 C548 1.391 . S
C550 C551 1.400 . S
C551 C550 1.400 . S
C551 C552 1.398 . S
C551 C557 1.491 . S
C552 H543 0.950 . S
C552 C551 1.398 . S
C552 C553 1.391 . S
C553 H541 0.950 . S
C553 C549 1.393 . S
C553 C552 1.391 . S
C554 H544 0.950 . S
C554 C555 1.386 . S
C554 C556 1.391 . S
C555 C554 1.386 . S
C555 C559 1.393 . S
C556 H545 0.950 . S
C556 C554 1.391 . S
C556 C557 1.400 . S
C557 C551 1.491 . S
C557 C556 1.400 . S
C557 C558 1.398 . S
C558 H546 0.950 . S
C558 C557 1.398 . S
C558 C559 1.391 . S
C559 H547 0.950 . S
C559 C555 1.393 . S
C559 C558 1.391 . S
H560 C568 0.950 . S
H561 C573 0.950 . S
H562 C570 0.950 . S
H563 C572 0.950 . S
H564 C574 0.950 . S
H565 C576 0.950 . S
H566 C578 0.950 . S
H567 C579 0.950 . S
C568 H560 0.950 . S
C568 C569 1.386 . S
C568 C570 1.391 . S
C569 C568 1.386 . S
C569 C573 1.393 . S
C570 H562 0.950 . S
C570 C568 1.391 . S
C570 C571 1.400 . S
C571 C570 1.400 . S
C571 C572 1.398 . S
C571 C577 1.491 . S
C572 H563 0.950 . S
C572 C571 1.398 . S
C572 C573 1.391 . S
C573 H561 0.950 . S
C573 C569 1.393 . S
C573 C572 1.391 . S
C574 H564 0.950 . S
C574 C575 1.386 . S
C574 C576 1.391 . S
C575 C574 1.386 . S
C575 C579 1.393 . S
C576 H565 0.950 . S
C576 C574 1.391 . S
C576 C577 1.400 . S
C577 C571 1.491 . S
C577 C576 1.400 . S
C577 C578 1.398 . S
C578 H566 0.950 . S
C578 C577 1.398 . S
C578 C579 1.391 . S
C579 H567 0.950 . S
C579 C575 1.393 . S
C579 C578 1.391 . S
H580 C588 0.950 . S
H581 C593 0.950 . S
H582 C590 0.950 . S
H583 C592 0.950 . S
H584 C594 0.950 . S
H585 C596 0.950 . S
H586 C598 0.950 . S
H587 C599 0.950 . S
C588 H580 0.950 . S
C588 C589 1.386 . S
C588 C590 1.391 . S
C589 C588 1.386 . S
C589 C593 1.393 . S
C590 H582 0.950 . S
C590 C588 1.391 . S
C590 C591 1.400 . S
C591 C590 1.400 . S
C591 C592 1.398 . S
C591 C597 1.491 . S
C592 H583 0.950 . S
C592 C591 1.398 . S
C592 C593 1.391 . S
C593 H581 0.950 . S
C593 C589 1.393 . S
C593 C592 1.391 . S
C594 H584 0.950 . S
C594 C595 1.386 . S
C594 C596 1.391 . S
C595 C594 1.386 . S
C595 C599 1.393 . S
C596 H585 0.950 . S
C596 C594 1.391 . S
C596 C597 1.400 . S
C597 C591 1.491 . S
C597 C596 1.400 . S
C597 C598 1.398 . S
C598 H586 0.950 . S
C598 C597 1.398 . S
C598 C599 1.391 . S
C599 H587 0.950 . S
C599 C595 1.393 . S
C599 C598 1.391 . S
H600 C608 0.950 . S
H601 C613 0.950 . S
H602 C610 0.950 . S
H603 C612 0.950 . S
H604 C614 0.950 . S
H605 C616 0.950 . S
H606 C618 0.950 . S
H607 C619 0.950 . S
C608 H600 0.950 . S
C608 C609 1.386 . S
C608 C610 1.391 . S
C609 C608 1.386 . S
C609 C613 1.393 . S
C610 H602 0.950 . S
C610 C608 1.391 . S
C610 C611 1.400 . S
C611 C610 1.400 . S
C611 C612 1.398 . S
C611 C617 1.491 . S
C612 H603 0.950 . S
C612 C611 1.398 . S
C612 C613 1.391 . S
C613 H601 0.950 . S
C613 C609 1.393 . S
C613 C612 1.391 . S
C614 H604 0.950 . S
C614 C615 1.386 . S
C614 C616 1.391 . S
C615 C614 1.386 . S
C615 C619 1.393 . S
C616 H605 0.950 . S
C616 C614 1.391 . S
C616 C617 1.400 . S
C617 C611 1.491 . S
C617 C616 1.400 . S
C617 C618 1.398 . S
C618 H606 0.950 . S
C618 C617 1.398 . S
C618 C619 1.391 . S
C619 H607 0.950 . S
C619 C615 1.393 . S
C619 C618 1.391 . S
H620 C628 0.950 . S
H621 C633 0.950 . S
H622 C630 0.950 . S
H623 C632 0.950 . S
H624 C634 0.950 . S
H625 C636 0.950 . S
H626 C638 0.950 . S
H627 C639 0.950 . S
C628 H620 0.950 . S
C628 C629 1.386 . S
C628 C630 1.391 . S
C629 C628 1.386 . S
C629 C633 1.393 . S
C630 H622 0.950 . S
C630 C628 1.391 . S
C630 C631 1.400 . S
C631 C630 1.400 . S
C631 C632 1.398 . S
C631 C637 1.491 . S
C632 H623 0.950 . S
C632 C631 1.398 . S
C632 C633 1.391 . S
C633 H621 0.950 . S
C633 C629 1.393 . S
C633 C632 1.391 . S
C634 H624 0.950 . S
C634 C635 1.386 . S
C634 C636 1.391 . S
C635 C634 1.386 . S
C635 C639 1.393 . S
C636 H625 0.950 . S
C636 C634 1.391 . S
C636 C637 1.400 . S
C637 C631 1.491 . S
C637 C636 1.400 . S
C637 C638 1.398 . S
C638 H626 0.950 . S
C638 C637 1.398 . S
C638 C639 1.391 . S
C639 H627 0.950 . S
C639 C635 1.393 . S
C639 C638 1.391 . S
H640 C648 0.950 . S
H641 C653 0.950 . S
H642 C650 0.950 . S
H643 C652 0.950 . S
H644 C654 0.950 . S
H645 C656 0.950 . S
H646 C658 0.950 . S
H647 C659 0.950 . S
C648 H640 0.950 . S
C648 C649 1.386 . S
C648 C650 1.391 . S
C649 C648 1.386 . S
C649 C653 1.393 . S
C650 H642 0.950 . S
C650 C648 1.391 . S
C650 C651 1.400 . S
C651 C650 1.400 . S
C651 C652 1.398 . S
C651 C657 1.491 . S
C652 H643 0.950 . S
C652 C651 1.398 . S
C652 C653 1.391 . S
C653 H641 0.950 . S
C653 C649 1.393 . S
C653 C652 1.391 . S
C654 H644 0.950 . S
C654 C655 1.386 . S
C654 C656 1.391 . S
C655 C654 1.386 . S
C655 C659 1.393 . S
C656 H645 0.950 . S
C656 C654 1.391 . S
C656 C657 1.400 . S
C657 C651 1.491 . S
C657 C656 1.400 . S
C657 C658 1.398 . S
C658 H646 0.950 . S
C658 C657 1.398 . S
C658 C659 1.391 . S
C659 H647 0.950 . S
C659 C655 1.393 . S
C659 C658 1.391 . S
H660 C668 0.950 . S
H661 C673 0.950 . S
H662 C670 0.950 . S
H663 C672 0.950 . S
H664 C674 0.950 . S
H665 C676 0.950 . S
H666 C678 0.950 . S
H667 C679 0.950 . S
C668 H660 0.950 . S
C668 C669 1.386 . S
C668 C670 1.391 . S
C669 C668 1.386 . S
C669 C673 1.393 . S
C670 H662 0.950 . S
C670 C668 1.391 . S
C670 C671 1.400 . S
C671 C670 1.400 . S
C671 C672 1.398 . S
C671 C677 1.491 . S
C672 H663 0.950 . S
C672 C671 1.398 . S
C672 C673 1.391 . S
C673 H661 0.950 . S
C673 C669 1.393 . S
C673 C672 1.391 . S
C674 H664 0.950 . S
C674 C675 1.386 . S
C674 C676 1.391 . S
C675 C674 1.386 . S
C675 C679 1.393 . S
C676 H665 0.950 . S
C676 C674 1.391 . S
C676 C677 1.400 . S
C677 C671 1.491 . S
C677 C676 1.400 . S
C677 C678 1.398 . S
C678 H666 0.950 . S
C678 C677 1.398 . S
C678 C679 1.391 . S
C679 H667 0.950 . S
C679 C675 1.393 . S
C679 C678 1.391 . S
C209 C5 1.089 . S
C215 N59 1.276 . S
C229 C45 1.675 1_545 S
C235 C123 1.635 . S
C249 N14 1.561 . S
C255 C93 1.679 1_455 S
C269 C132 1.302 . S
C275 C13 1.213 . S
C289 N9 1.263 . S
C295 C55 1.074 . S
C309 C23 1.617 . S
C315 C145 1.673 1_545 S
C329 N64 1.564 . S
C335 C43 1.674 1_455 S
C349 C113 1.218 . S
C355 C32 1.306 . S
C369 C190 0.835 . S
C375 N25 0.906 . S
C389 C192 1.869 . S
C395 C11 1.915 . S
C409 C161 1.893 . S
C415 C42 1.851 . S
C429 C40 0.832 . S
C435 N175 0.909 . S
C449 C173 1.618 . S
C455 C95 1.676 . S
C469 C63 1.207 . S
C475 C182 1.287 . S
C489 C73 1.634 . S
C495 C195 1.672 . S
C509 C163 1.180 . S
C515 C82 1.271 . S
C529 C140 0.893 . S
C535 N75 0.880 . S
C549 C61 1.919 . S
C555 C142 1.870 . S
C569 C92 1.859 . S
C575 C111 1.913 . S
C589 N125 0.893 . S
C595 C90 0.879 . S
C609 N159 1.266 . S
C615 C105 1.133 . S
C629 N114 1.532 . S
C635 C193 1.691 . S
C649 C155 1.091 . S
C655 N109 1.254 . S
C669 C143 1.679 . S
C675 N164 1.554 . S
