# Generated by pormake.
# Topology whk, (6)-cn, num edge types: 1
# Building blocks:
#     Node 0, Type 0, BuildingBlock: UKALOJ_clean_sbu_0, # of connection points: 6
#     Node 1, Type 0, BuildingBlock: UKALOJ_clean_sbu_0, # of connection points: 6
#     Node 2, Type 0, BuildingBlock: UKALOJ_clean_sbu_0, # of connection points: 6
#     Node 3, Type 0, BuildingBlock: UKALOJ_clean_sbu_0, # of connection points: 6
#     Node 4, Type 0, BuildingBlock: UKALOJ_clean_sbu_0, # of connection points: 6
#     Node 5, Type 0, BuildingBlock: UKALOJ_clean_sbu_0, # of connection points: 6
#     Node 6, Type 0, BuildingBlock: UKALOJ_clean_sbu_0, # of connection points: 6
#     Node 7, Type 0, BuildingBlock: UKALOJ_clean_sbu_0, # of connection points: 6
#     Node 8, Type 0, BuildingBlock: UKALOJ_clean_sbu_0, # of connection points: 6
#     Node 9, Type 0, BuildingBlock: UKALOJ_clean_sbu_0, # of connection points: 6
#     Node 10, Type 0, BuildingBlock: UKALOJ_clean_sbu_0, # of connection points: 6
#     Node 11, Type 0, BuildingBlock: UKALOJ_clean_sbu_0, # of connection points: 6
#     Node 12, Type 0, BuildingBlock: UKALOJ_clean_sbu_0, # of connection points: 6
#     Node 13, Type 0, BuildingBlock: UKALOJ_clean_sbu_0, # of connection points: 6
#     Node 14, Type 0, BuildingBlock: UKALOJ_clean_sbu_0, # of connection points: 6
#     Node 15, Type 0, BuildingBlock: UKALOJ_clean_sbu_0, # of connection points: 6
#     Edge 16, Type (0, 0), BuildingBlock: KIFKEQ_clean_linker_1, # of connection points: 2
#     Edge 17, Type (0, 0), BuildingBlock: KIFKEQ_clean_linker_1, # of connection points: 2
#     Edge 18, Type (0, 0), BuildingBlock: KIFKEQ_clean_linker_1, # of connection points: 2
#     Edge 19, Type (0, 0), BuildingBlock: KIFKEQ_clean_linker_1, # of connection points: 2
#     Edge 20, Type (0, 0), BuildingBlock: KIFKEQ_clean_linker_1, # of connection points: 2
#     Edge 21, Type (0, 0), BuildingBlock: KIFKEQ_clean_linker_1, # of connection points: 2
#     Edge 22, Type (0, 0), BuildingBlock: KIFKEQ_clean_linker_1, # of connection points: 2
#     Edge 23, Type (0, 0), BuildingBlock: KIFKEQ_clean_linker_1, # of connection points: 2
#     Edge 24, Type (0, 0), BuildingBlock: KIFKEQ_clean_linker_1, # of connection points: 2
#     Edge 25, Type (0, 0), BuildingBlock: KIFKEQ_clean_linker_1, # of connection points: 2
#     Edge 26, Type (0, 0), BuildingBlock: KIFKEQ_clean_linker_1, # of connection points: 2
#     Edge 27, Type (0, 0), BuildingBlock: KIFKEQ_clean_linker_1, # of connection points: 2
#     Edge 28, Type (0, 0), BuildingBlock: KIFKEQ_clean_linker_1, # of connection points: 2
#     Edge 29, Type (0, 0), BuildingBlock: KIFKEQ_clean_linker_1, # of connection points: 2
#     Edge 30, Type (0, 0), BuildingBlock: KIFKEQ_clean_linker_1, # of connection points: 2
#     Edge 31, Type (0, 0), BuildingBlock: KIFKEQ_clean_linker_1, # of connection points: 2
#     Edge 32, Type (0, 0), BuildingBlock: KIFKEQ_clean_linker_1, # of connection points: 2
#     Edge 33, Type (0, 0), BuildingBlock: KIFKEQ_clean_linker_1, # of connection points: 2
#     Edge 34, Type (0, 0), BuildingBlock: KIFKEQ_clean_linker_1, # of connection points: 2
#     Edge 35, Type (0, 0), BuildingBlock: KIFKEQ_clean_linker_1, # of connection points: 2
#     Edge 36, Type (0, 0), BuildingBlock: KIFKEQ_clean_linker_1, # of connection points: 2
#     Edge 37, Type (0, 0), BuildingBlock: KIFKEQ_clean_linker_1, # of connection points: 2
#     Edge 38, Type (0, 0), BuildingBlock: KIFKEQ_clean_linker_1, # of connection points: 2
#     Edge 39, Type (0, 0), BuildingBlock: KIFKEQ_clean_linker_1, # of connection points: 2
#     Edge 40, Type (0, 0), BuildingBlock: KIFKEQ_clean_linker_1, # of connection points: 2
#     Edge 41, Type (0, 0), BuildingBlock: KIFKEQ_clean_linker_1, # of connection points: 2
#     Edge 42, Type (0, 0), BuildingBlock: KIFKEQ_clean_linker_1, # of connection points: 2
#     Edge 43, Type (0, 0), BuildingBlock: KIFKEQ_clean_linker_1, # of connection points: 2
#     Edge 44, Type (0, 0), BuildingBlock: KIFKEQ_clean_linker_1, # of connection points: 2
#     Edge 45, Type (0, 0), BuildingBlock: KIFKEQ_clean_linker_1, # of connection points: 2
#     Edge 46, Type (0, 0), BuildingBlock: KIFKEQ_clean_linker_1, # of connection points: 2
#     Edge 47, Type (0, 0), BuildingBlock: KIFKEQ_clean_linker_1, # of connection points: 2
#     Edge 48, Type (0, 0), BuildingBlock: KIFKEQ_clean_linker_1, # of connection points: 2
#     Edge 49, Type (0, 0), BuildingBlock: KIFKEQ_clean_linker_1, # of connection points: 2
#     Edge 50, Type (0, 0), BuildingBlock: KIFKEQ_clean_linker_1, # of connection points: 2
#     Edge 51, Type (0, 0), BuildingBlock: KIFKEQ_clean_linker_1, # of connection points: 2
#     Edge 52, Type (0, 0), BuildingBlock: KIFKEQ_clean_linker_1, # of connection points: 2
#     Edge 53, Type (0, 0), BuildingBlock: KIFKEQ_clean_linker_1, # of connection points: 2
#     Edge 54, Type (0, 0), BuildingBlock: KIFKEQ_clean_linker_1, # of connection points: 2
#     Edge 55, Type (0, 0), BuildingBlock: KIFKEQ_clean_linker_1, # of connection points: 2
#     Edge 56, Type (0, 0), BuildingBlock: KIFKEQ_clean_linker_1, # of connection points: 2
#     Edge 57, Type (0, 0), BuildingBlock: KIFKEQ_clean_linker_1, # of connection points: 2
#     Edge 58, Type (0, 0), BuildingBlock: KIFKEQ_clean_linker_1, # of connection points: 2
#     Edge 59, Type (0, 0), BuildingBlock: KIFKEQ_clean_linker_1, # of connection points: 2
#     Edge 60, Type (0, 0), BuildingBlock: KIFKEQ_clean_linker_1, # of connection points: 2
#     Edge 61, Type (0, 0), BuildingBlock: KIFKEQ_clean_linker_1, # of connection points: 2
#     Edge 62, Type (0, 0), BuildingBlock: KIFKEQ_clean_linker_1, # of connection points: 2
#     Edge 63, Type (0, 0), BuildingBlock: KIFKEQ_clean_linker_1, # of connection points: 2
# Relax obj value: 0.436
# Max RMSD: 0.275
# Mean RMSD: 0.275
data_MOF--net-whk--node1-UKALOJ_clean_sbu_0--edge1-KIFKEQ_clean_linker_1
_symmetry_space_group_name_H-M    P1
_symmetry_Int_Tables_number       1
_symmetry_cell_setting            triclinic
loop_
_symmetry_equiv_pos_as_xyz
'x, y, z'
_cell_length_a     38.665548
_cell_length_b     38.667945
_cell_length_c     54.064263
_cell_angle_alpha  90.00046
_cell_angle_beta   90.005244
_cell_angle_gamma 89.999831
loop_
_atom_site_label
_atom_site_type_symbol
_atom_site_fract_x
_atom_site_fract_y
_atom_site_fract_z
_atom_type_partial_charge
Zn0 Zn 0.55147 0.19558 0.37449 0.0
O1 O 0.56007 0.17429 0.33949 0.0
C2 C 0.5001 0.13854 0.38504 0.0
Zn3 Zn 0.57413 0.14902 0.39273 0.0
C4 C 0.57386 0.14464 0.33712 0.0
O5 O 0.58252 0.12773 0.35641 0.0
C6 C 0.55174 0.20184 0.42969 0.0
O7 O 0.62164 0.17446 0.39 0.0
O8 O 0.60027 0.22089 0.37254 0.0
N9 N 0.59972 0.10805 0.40884 0.0
C10 C 0.62081 0.10769 0.42875 0.0
C11 C 0.6215 0.0569 0.41344 0.0
N12 N 0.6003 0.07646 0.3993 0.0
N13 N 0.63451 0.07603 0.43204 0.0
C14 C 0.50188 0.25765 0.36778 0.0
C15 C 0.52212 0.28312 0.33598 0.0
N16 N 0.52806 0.23801 0.35915 0.0
N17 N 0.54045 0.25376 0.33927 0.0
N18 N 0.49791 0.28617 0.35375 0.0
H19 H 0.47971 0.22072 0.39356 0.0
H20 H 0.45212 0.25665 0.38554 0.0
H21 H 0.48793 0.26285 0.40595 0.0
C22 C 0.47917 0.24863 0.38936 0.0
C23 C 0.62962 0.13848 0.44447 0.0
H24 H 0.65621 0.13614 0.45203 0.0
H25 H 0.61145 0.1395 0.46031 0.0
H26 H 0.62781 0.16296 0.43407 0.0
O27 O 0.56473 0.17168 0.42853 0.0
O28 O 0.54364 0.21709 0.40977 0.0
C29 C 0.62617 0.20424 0.38078 0.0
O30 O 0.50368 0.16865 0.3759 0.0
O31 O 0.52612 0.12336 0.39452 0.0
Zn32 Zn 0.34937 0.57562 0.39202 0.0
O33 O 0.32485 0.6234 0.38742 0.0
C34 C 0.2972 0.55423 0.43004 0.0
Zn35 Zn 0.30241 0.55205 0.37512 0.0
C36 C 0.2941 0.62714 0.37981 0.0
O37 O 0.27642 0.60068 0.37395 0.0
C38 C 0.3595 0.50107 0.38544 0.0
O39 O 0.32296 0.56131 0.33972 0.0
O40 O 0.37095 0.58178 0.35595 0.0
N41 N 0.25975 0.52848 0.36017 0.0
C42 C 0.24055 0.50196 0.3688 0.0
C43 C 0.21432 0.52233 0.33735 0.0
N44 N 0.24352 0.54095 0.34052 0.0
N45 N 0.21183 0.49785 0.35498 0.0
C46 C 0.39159 0.62842 0.42275 0.0
C47 C 0.44347 0.61036 0.4195 0.0
N48 N 0.39088 0.60024 0.40801 0.0
N49 N 0.42318 0.58908 0.40599 0.0
N50 N 0.42421 0.63548 0.42987 0.0
H51 H 0.35507 0.66954 0.41858 0.0
H52 H 0.36482 0.65914 0.45018 0.0
H53 H 0.33722 0.6312 0.43246 0.0
C54 C 0.36033 0.64794 0.43156 0.0
C55 C 0.25031 0.47898 0.39006 0.0
H56 H 0.27825 0.47998 0.39409 0.0
H57 H 0.24274 0.45188 0.386 0.0
H58 H 0.23616 0.48713 0.40683 0.0
O59 O 0.32964 0.50441 0.37587 0.0
O60 O 0.37412 0.52723 0.39514 0.0
C61 C 0.35311 0.57389 0.33693 0.0
O62 O 0.32649 0.56892 0.42806 0.0
O63 O 0.2821 0.54372 0.41062 0.0
Zn64 Zn 0.94553 0.30239 0.37434 0.0
O65 O 0.93751 0.32395 0.33921 0.0
C66 C 0.99759 0.35782 0.38547 0.0
Zn67 Zn 0.92245 0.34923 0.39187 0.0
C68 C 0.92469 0.35404 0.33668 0.0
O69 O 0.9163 0.37135 0.35584 0.0
C70 C 0.94313 0.29609 0.42917 0.0
O71 O 0.87419 0.32588 0.38766 0.0
O72 O 0.89592 0.27819 0.37232 0.0
N73 N 0.89892 0.3911 0.40831 0.0
C74 C 0.8715 0.39221 0.42376 0.0
C75 C 0.88919 0.44402 0.41922 0.0
N76 N 0.90987 0.42336 0.40552 0.0
N77 N 0.8647 0.42501 0.43054 0.0
C78 C 0.9962 0.2416 0.36609 0.0
C79 C 0.96977 0.21071 0.33947 0.0
N80 N 0.96759 0.25913 0.35926 0.0
N81 N 0.95132 0.23998 0.3426 0.0
N82 N 0.998 0.2111 0.35405 0.0
H83 H 0.03732 0.27701 0.3732 0.0
H84 H 0.04357 0.23589 0.38754 0.0
H85 H 0.01268 0.26619 0.40005 0.0
C86 C 0.02387 0.25561 0.38284 0.0
C87 C 0.85233 0.36135 0.4336 0.0
H88 H 0.86764 0.33735 0.43233 0.0
H89 H 0.82809 0.35802 0.42291 0.0
H90 H 0.84505 0.36555 0.45323 0.0
O91 O 0.9291 0.32574 0.42758 0.0
O92 O 0.95287 0.28094 0.4096 0.0
C93 C 0.86976 0.29576 0.37903 0.0
O94 O 0.99409 0.32791 0.37598 0.0
O95 O 0.97141 0.37286 0.3948 0.0
Zn96 Zn 0.14903 0.92271 0.39154 0.0
O97 O 0.17362 0.87502 0.38776 0.0
C98 C 0.20165 0.94521 0.42864 0.0
Zn99 Zn 0.19523 0.9468 0.37376 0.0
C100 C 0.20373 0.87129 0.37899 0.0
O101 O 0.22062 0.89769 0.37191 0.0
C102 C 0.13877 0.99769 0.38475 0.0
O103 O 0.17351 0.93864 0.33858 0.0
O104 O 0.12745 0.91519 0.35569 0.0
N105 N 0.23785 0.96967 0.3585 0.0
C106 C 0.25489 0.99862 0.36521 0.0
C107 C 0.2861 0.97263 0.33856 0.0
N108 N 0.25717 0.95368 0.34181 0.0
N109 N 0.28527 0.00092 0.35307 0.0
C110 C 0.10701 0.87019 0.42273 0.0
C111 C 0.05466 0.88462 0.41602 0.0
N112 N 0.1076 0.89785 0.40749 0.0
N113 N 0.07503 0.90674 0.40331 0.0
N114 N 0.07411 0.86111 0.42808 0.0
H115 H 0.16116 0.8705 0.43353 0.0
H116 H 0.14518 0.83008 0.42225 0.0
H117 H 0.13361 0.84464 0.45276 0.0
C118 C 0.13855 0.85315 0.43349 0.0
C119 C 0.24054 0.02605 0.38201 0.0
H120 H 0.21881 0.03912 0.37245 0.0
H121 H 0.25998 0.04608 0.38661 0.0
H122 H 0.2303 0.0147 0.39926 0.0
O123 O 0.16883 0.99463 0.37545 0.0
O124 O 0.12398 0.97128 0.39401 0.0
C125 C 0.14395 0.92455 0.33643 0.0
O126 O 0.17215 0.93078 0.42728 0.0
O127 O 0.21664 0.95463 0.40893 0.0
Zn128 Zn 0.05023 0.80281 0.12851 0.0
O129 O 0.05888 0.8259 0.16308 0.0
C130 C -0.00019 0.85939 0.11642 0.0
Zn131 Zn 0.07446 0.84804 0.10957 0.0
C132 C 0.07293 0.85556 0.16456 0.0
O133 O 0.08207 0.87137 0.14493 0.0
C134 C 0.05223 0.79359 0.07374 0.0
O135 O 0.12192 0.8233 0.11421 0.0
O136 O 0.09898 0.77688 0.1308 0.0
N137 N 0.09906 0.88844 0.09218 0.0
C138 C 0.12701 0.88829 0.07722 0.0
C139 C 0.10937 0.94041 0.07945 0.0
N140 N 0.08815 0.92089 0.09356 0.0
N141 N 0.13418 0.92053 0.0693 0.0
C142 C -6e-05 0.74156 0.13638 0.0
C143 C 0.02082 0.7161 0.16798 0.0
N144 N 0.02646 0.7611 0.14464 0.0
N145 N 0.03923 0.74534 0.1644 0.0
N146 N 0.99614 0.71313 0.15053 0.0
H147 H 0.97836 0.7781 0.10997 0.0
H148 H 0.94954 0.74407 0.11978 0.0
H149 H 0.98386 0.73498 0.09871 0.0
C150 C 0.97672 0.75055 0.11507 0.0
C151 C 0.14617 0.8565 0.06901 0.0
H152 H 0.12915 0.83356 0.06867 0.0
H153 H 0.16779 0.85155 0.08204 0.0
H154 H 0.1573 0.86012 0.05028 0.0
O155 O 0.06667 0.82313 0.07432 0.0
O156 O 0.04225 0.78004 0.09385 0.0
C157 C 0.12547 0.79347 0.12351 0.0
O158 O 0.0028 0.82992 0.12663 0.0
O159 O 0.02615 0.87328 0.10642 0.0
Zn160 Zn 0.69505 0.05212 0.12748 0.0
O161 O 0.6735 0.06053 0.16247 0.0
C162 C 0.639 3e-05 0.11647 0.0
Zn163 Zn 0.6482 0.07463 0.1096 0.0
C164 C 0.64342 0.07332 0.16497 0.0
O165 O 0.62605 0.08147 0.14576 0.0
C166 C 0.70159 0.05376 0.07245 0.0
O167 O 0.67238 0.12273 0.11363 0.0
O168 O 0.71989 0.10124 0.12944 0.0
N169 N 0.60684 0.09884 0.09297 0.0
C170 C 0.60644 0.12608 0.07733 0.0
C171 C 0.55416 0.10998 0.0821 0.0
N172 N 0.57428 0.08888 0.09591 0.0
N173 N 0.57384 0.13376 0.07059 0.0
C174 C 0.75766 0.00327 0.13429 0.0
C175 C 0.78308 0.02411 0.16592 0.0
N176 N 0.73776 0.0293 0.14285 0.0
N177 N 0.75349 0.04206 0.16263 0.0
N178 N 0.78629 -0.00023 0.14826 0.0
H179 H 0.7211 0.98132 0.10809 0.0
H180 H 0.75599 0.95309 0.11728 0.0
H181 H 0.76394 0.98801 0.09646 0.0
C182 C 0.74881 0.9802 0.11287 0.0
C183 C 0.63779 0.14425 0.06729 0.0
H184 H 0.66147 0.12853 0.06888 0.0
H185 H 0.64154 0.16879 0.07754 0.0
H186 H 0.63382 0.15095 0.04753 0.0
O187 O 0.67161 0.06712 0.07382 0.0
O188 O 0.71663 0.04459 0.09223 0.0
C189 C 0.70244 0.12729 0.12238 0.0
O190 O 0.66877 0.00392 0.1261 0.0
O191 O 0.62387 0.02594 0.10683 0.0
Zn192 Zn 0.42159 0.64927 0.10981 0.0
O193 O 0.37383 0.67384 0.11406 0.0
C194 C 0.44416 0.70177 0.0724 0.0
Zn195 Zn 0.44515 0.69605 0.12714 0.0
C196 C 0.36996 0.70436 0.12205 0.0
O197 O 0.39633 0.72187 0.12835 0.0
C198 C 0.49623 0.63913 0.1166 0.0
O199 O 0.43578 0.67505 0.16234 0.0
O200 O 0.41482 0.62749 0.14579 0.0
N201 N 0.46827 0.73871 0.14231 0.0
C202 C 0.49749 0.75538 0.13572 0.0
C203 C 0.47142 0.78719 0.16195 0.0
N204 N 0.45222 0.75841 0.15874 0.0
N205 N 0.49992 0.78591 0.14766 0.0
C206 C 0.36875 0.60795 0.07831 0.0
C207 C 0.38307 0.55542 0.08429 0.0
N208 N 0.39633 0.60807 0.09367 0.0
N209 N 0.40513 0.57538 0.0974 0.0
N210 N 0.35967 0.57524 0.07241 0.0
H211 H 0.36897 0.66251 0.06846 0.0
H212 H 0.32848 0.64595 0.07908 0.0
H213 H 0.34368 0.6355 0.04851 0.0
C214 C 0.35179 0.63981 0.06795 0.0
C215 C 0.52504 0.74053 0.11924 0.0
H216 H 0.53732 0.71839 0.12884 0.0
H217 H 0.54567 0.75953 0.11505 0.0
H218 H 0.51392 0.73079 0.10177 0.0
O219 O 0.49284 0.66905 0.12611 0.0
O220 O 0.47009 0.62435 0.10696 0.0
C221 C 0.42287 0.64501 0.16493 0.0
O222 O 0.42927 0.67254 0.07401 0.0
O223 O 0.45394 0.71686 0.09197 0.0
Zn224 Zn 0.80152 0.44648 0.12738 0.0
O225 O 0.82231 0.43775 0.16263 0.0
C226 C 0.85772 0.49832 0.11763 0.0
Zn227 Zn 0.84832 0.42361 0.10954 0.0
C228 C 0.85203 0.42411 0.16507 0.0
O229 O 0.86911 0.41559 0.14585 0.0
C230 C 0.79612 0.44616 0.07227 0.0
O231 O 0.82411 0.37555 0.11182 0.0
O232 O 0.77722 0.39688 0.12866 0.0
N233 N 0.89051 0.39949 0.09391 0.0
C234 C 0.89236 0.37878 0.07386 0.0
C235 C 0.94255 0.37958 0.09015 0.0
N236 N 0.92175 0.39986 0.10405 0.0
N237 N 0.92463 0.36627 0.07105 0.0
C238 C 0.74073 0.49721 0.13564 0.0
C239 C 0.70925 0.47026 0.16163 0.0
N240 N 0.75804 0.46839 0.1423 0.0
N241 N 0.73853 0.45178 0.15856 0.0
N242 N 0.71 0.49882 0.14739 0.0
H243 H 0.77639 0.53839 0.12946 0.0
H244 H 0.73562 0.54508 0.11469 0.0
H245 H 0.76617 0.51441 0.1022 0.0
C246 C 0.75519 0.52522 0.11939 0.0
C247 C 0.86242 0.36912 0.0576 0.0
H248 H 0.86597 0.34283 0.04977 0.0
H249 H 0.86112 0.38768 0.04198 0.0
H250 H 0.83763 0.36975 0.06772 0.0
O251 O 0.82593 0.43242 0.07367 0.0
O252 O 0.78062 0.45467 0.092 0.0
C253 C 0.79414 0.37097 0.12068 0.0
O254 O 0.82739 0.49493 0.12647 0.0
O255 O 0.87285 0.47221 0.10823 0.0
Zn256 Zn 0.44554 0.80299 0.62645 0.0
O257 O 0.43689 0.82438 0.66151 0.0
C258 C 0.49793 0.85851 0.6157 0.0
Zn259 Zn 0.42302 0.85012 0.60898 0.0
C260 C 0.42492 0.85481 0.66406 0.0
O261 O 0.41715 0.87246 0.64492 0.0
C262 C 0.44404 0.797 0.57174 0.0
O263 O 0.37467 0.82685 0.61345 0.0
O264 O 0.39603 0.77842 0.62784 0.0
N265 N 0.39931 0.8918 0.59234 0.0
C266 C 0.37145 0.89257 0.57726 0.0
C267 C 0.38974 0.94435 0.58048 0.0
N268 N 0.41063 0.92405 0.59431 0.0
N269 N 0.36473 0.92515 0.56991 0.0
C270 C 0.49665 0.74269 0.63512 0.0
C271 C 0.46991 0.71126 0.66124 0.0
N272 N 0.46766 0.75982 0.64164 0.0
N273 N 0.45119 0.74034 0.658 0.0
N274 N 0.49851 0.71211 0.64705 0.0
H275 H 0.53762 0.77854 0.62872 0.0
H276 H 0.54454 0.73768 0.61417 0.0
H277 H 0.51364 0.76786 0.60152 0.0
C278 C 0.52456 0.75715 0.61878 0.0
C279 C 0.3518 0.86143 0.56836 0.0
H280 H 0.32916 0.85725 0.5806 0.0
H281 H 0.34199 0.86558 0.54931 0.0
H282 H 0.36789 0.83786 0.56844 0.0
O283 O 0.42958 0.82644 0.57333 0.0
O284 O 0.45374 0.78184 0.59131 0.0
C285 C 0.37001 0.79646 0.62151 0.0
O286 O 0.4939 0.82878 0.62536 0.0
O287 O 0.47213 0.87367 0.60591 0.0
Zn288 Zn 0.64914 0.42393 0.60887 0.0
O289 O 0.67343 0.37592 0.61198 0.0
C290 C 0.70254 0.4466 0.57202 0.0
Zn291 Zn 0.69575 0.44746 0.62652 0.0
C292 C 0.70368 0.37204 0.62051 0.0
O293 O 0.72083 0.39831 0.62749 0.0
C294 C 0.63988 0.49909 0.61639 0.0
O295 O 0.67376 0.43752 0.66129 0.0
O296 O 0.62642 0.41624 0.64449 0.0
N297 N 0.73845 0.46958 0.64241 0.0
C298 C 0.75565 0.4987 0.63629 0.0
C299 C 0.78659 0.47167 0.66256 0.0
N300 N 0.75761 0.45294 0.65888 0.0
N301 N 0.78596 0.50047 0.64856 0.0
C302 C 0.59824 0.36833 0.58788 0.0
C303 C 0.57109 0.39765 0.56084 0.0
N304 N 0.60795 0.40166 0.59066 0.0
N305 N 0.59067 0.41983 0.57399 0.0
N306 N 0.57553 0.36502 0.569 0.0
H307 H 0.61373 0.34932 0.62358 0.0
H308 H 0.58907 0.31896 0.60512 0.0
H309 H 0.63346 0.32775 0.59758 0.0
C310 C 0.60918 0.33943 0.60459 0.0
C311 C 0.7416 0.52672 0.61986 0.0
H312 H 0.71931 0.53909 0.62922 0.0
H313 H 0.76094 0.54721 0.61617 0.0
H314 H 0.73233 0.51605 0.60211 0.0
O315 O 0.66975 0.49558 0.62589 0.0
O316 O 0.62511 0.47303 0.60669 0.0
C317 C 0.6438 0.42431 0.66371 0.0
O318 O 0.67337 0.43153 0.57348 0.0
O319 O 0.7173 0.45664 0.59166 0.0
Zn320 Zn 0.07384 0.65166 0.60746 0.0
O321 O 0.1212 0.67818 0.60715 0.0
C322 C 0.04962 0.70469 0.57209 0.0
Zn323 Zn 0.05125 0.69688 0.62726 0.0
C324 C 0.1259 0.70685 0.61804 0.0
O325 O 0.10061 0.72131 0.62897 0.0
C326 C -0.0004 0.64076 0.61749 0.0
O327 O 0.06009 0.67406 0.66165 0.0
O328 O 0.08583 0.63027 0.64316 0.0
N329 N 0.02888 0.73944 0.64333 0.0
C330 C 0.00339 0.76 0.63472 0.0
C331 C 0.02341 0.78389 0.66721 0.0
N332 N 0.04115 0.75422 0.66363 0.0
N333 N -0.00024 0.78815 0.64918 0.0
C334 C 0.12941 0.6006 0.58751 0.0
C335 C 0.10156 0.57453 0.55916 0.0
N336 N 0.09612 0.6108 0.58921 0.0
N337 N 0.0788 0.59419 0.57174 0.0
N338 N 0.13363 0.57822 0.56857 0.0
H339 H 0.14635 0.61772 0.6235 0.0
H340 H 0.17618 0.58933 0.60745 0.0
H341 H 0.1716 0.6334 0.59794 0.0
C342 C 0.15739 0.61081 0.60524 0.0
C343 C 0.98106 0.75223 0.61267 0.0
H344 H 0.97953 0.7242 0.60897 0.0
H345 H 0.95455 0.76246 0.61558 0.0
H346 H 0.99194 0.76506 0.59609 0.0
O347 O 0.00285 0.67116 0.62614 0.0
O348 O 0.02572 0.62578 0.60806 0.0
C349 C 0.07603 0.64538 0.66294 0.0
O350 O 0.06175 0.67415 0.57224 0.0
O351 O 0.04331 0.71947 0.59251 0.0
Zn352 Zn 0.84703 0.07637 0.61224 0.0
O353 O 0.82239 0.12383 0.61629 0.0
C354 C 0.79355 0.0539 0.5758 0.0
Zn355 Zn 0.80128 0.05223 0.63064 0.0
C356 C 0.79252 0.12767 0.62543 0.0
O357 O 0.77576 0.10134 0.63281 0.0
C358 C 0.85794 0.00162 0.6191 0.0
O359 O 0.82347 0.06031 0.66553 0.0
O360 O 0.86929 0.08397 0.64816 0.0
N361 N 0.75874 0.02891 0.64593 0.0
C362 C 0.74153 0.00026 0.63875 0.0
C363 C 0.71023 0.02577 0.66556 0.0
N364 N 0.73935 0.04459 0.66273 0.0
N365 N 0.71096 0.99791 0.65063 0.0
C366 C 0.88802 0.12852 0.57995 0.0
C367 C 0.94008 0.11086 0.5827 0.0
N368 N 0.88793 0.10086 0.59522 0.0
N369 N 0.92035 0.08995 0.59691 0.0
N370 N 0.92036 0.13549 0.57216 0.0
H371 H 0.83341 0.13059 0.57093 0.0
H372 H 0.85125 0.16941 0.58411 0.0
H373 H 0.8603 0.15837 0.55252 0.0
C374 C 0.85638 0.14756 0.57132 0.0
C375 C 0.75569 0.97324 0.62151 0.0
H376 H 0.77925 0.96183 0.62978 0.0
H377 H 0.73713 0.95185 0.6184 0.0
H378 H 0.76285 0.98467 0.60349 0.0
O379 O 0.82801 0.00441 0.62867 0.0
O380 O 0.8722 0.02811 0.6096 0.0
C381 C 0.85302 0.07447 0.66754 0.0
O382 O 0.82314 0.06823 0.57658 0.0
O383 O 0.77936 0.04468 0.59584 0.0
Zn384 Zn 0.94935 0.19549 0.87471 0.0
O385 O 0.94053 0.17173 0.84066 0.0
C386 C 0.0011 0.14008 0.88522 0.0
Zn387 Zn 0.92652 0.15079 0.89499 0.0
C388 C 0.92463 0.143 0.83961 0.0
O389 O 0.91473 0.12827 0.85952 0.0
C390 C 0.95112 0.20495 0.92964 0.0
O391 O 0.87899 0.17673 0.8949 0.0
O392 O 0.89968 0.21949 0.87278 0.0
N393 N 0.90459 0.11029 0.9139 0.0
C394 C 0.87141 0.09976 0.91572 0.0
C395 C 0.89948 0.0749 0.94451 0.0
N396 N 0.92205 0.09444 0.93166 0.0
N397 N 0.86739 0.07791 0.93501 0.0
C398 C -0.00019 0.25567 0.86422 0.0
C399 C 0.97258 0.28569 0.83751 0.0
N400 N 0.97104 0.23788 0.85808 0.0
N401 N 0.95428 0.25647 0.84135 0.0
N402 N 0.00122 0.28579 0.85169 0.0
H403 H 0.04045 0.21997 0.87224 0.0
H404 H 0.04811 0.26218 0.88443 0.0
H405 H 0.01709 0.23394 0.89898 0.0
C406 C 0.02781 0.24252 0.88106 0.0
C407 C 0.84339 0.10906 0.89776 0.0
H408 H 0.85444 0.11545 0.87941 0.0
H409 H 0.82482 0.08732 0.8959 0.0
H410 H 0.82895 0.13177 0.90463 0.0
O411 O 0.93832 0.17466 0.92988 0.0
O412 O 0.95762 0.21911 0.90903 0.0
C413 C 0.87432 0.20516 0.8837 0.0
O414 O 0.99782 0.17028 0.87624 0.0
O415 O 0.97496 0.12526 0.89478 0.0
Zn416 Zn 0.35126 0.92237 0.89117 0.0
O417 O 0.3279 0.87416 0.88625 0.0
C418 C 0.29753 0.94259 0.92814 0.0
Zn419 Zn 0.30454 0.94545 0.87346 0.0
C420 C 0.29788 0.86972 0.87742 0.0
O421 O 0.28024 0.89592 0.87089 0.0
C422 C 0.35989 0.99748 0.88539 0.0
O423 O 0.32658 0.93793 0.83854 0.0
O424 O 0.374 0.91685 0.85527 0.0
N425 N 0.26159 0.96797 0.85822 0.0
C426 C 0.24433 0.99673 0.86506 0.0
C427 C 0.21328 0.97072 0.83833 0.0
N428 N 0.24235 0.95195 0.84149 0.0
N429 N 0.2139 0.9989 0.85296 0.0
C430 C 0.3932 0.87062 0.92311 0.0
C431 C 0.44521 0.88814 0.91953 0.0
N432 N 0.39267 0.89831 0.90788 0.0
N433 N 0.42506 0.90915 0.90568 0.0
N434 N 0.42575 0.86353 0.93034 0.0
H435 H 0.35861 0.82757 0.92132 0.0
H436 H 0.36559 0.84371 0.95194 0.0
H437 H 0.3381 0.86705 0.93101 0.0
C438 C 0.36193 0.8515 0.93235 0.0
C439 C 0.25854 0.02415 0.88193 0.0
H440 H 0.28 0.03758 0.87233 0.0
H441 H 0.23896 0.04394 0.88674 0.0
H442 H 0.26908 0.01273 0.89907 0.0
O443 O 0.33019 0.99383 0.8756 0.0
O444 O 0.37495 0.97134 0.89478 0.0
C445 C 0.35681 0.92543 0.83608 0.0
O446 O 0.32717 0.92853 0.92671 0.0
O447 O 0.28262 0.95246 0.90852 0.0
Zn448 Zn 0.57757 0.34813 0.89102 0.0
O449 O 0.62576 0.32476 0.88683 0.0
C450 C 0.55617 0.29543 0.92846 0.0
Zn451 Zn 0.5546 0.30111 0.87366 0.0
C452 C 0.63025 0.29435 0.87877 0.0
O453 O 0.60416 0.27644 0.87239 0.0
C454 C 0.50264 0.35698 0.88414 0.0
O455 O 0.56333 0.3221 0.83846 0.0
O456 O 0.58368 0.37003 0.85491 0.0
N457 N 0.53235 0.25777 0.85878 0.0
C458 C 0.50336 0.24081 0.86553 0.0
C459 C 0.52996 0.20884 0.83966 0.0
N460 N 0.54874 0.23795 0.8426 0.0
N461 N 0.50141 0.21002 0.8539 0.0
C462 C 0.62881 0.3912 0.92266 0.0
C463 C 0.60995 0.44276 0.91926 0.0
N464 N 0.6011 0.39006 0.90747 0.0
N465 N 0.58943 0.42217 0.90538 0.0
N466 N 0.63507 0.42389 0.93 0.0
H467 H 0.67122 0.35604 0.91937 0.0
H468 H 0.65864 0.36473 0.95069 0.0
H469 H 0.63267 0.33667 0.93183 0.0
C470 C 0.64869 0.3603 0.9317 0.0
C471 C 0.4755 0.25565 0.88174 0.0
H472 H 0.46187 0.27619 0.87129 0.0
H473 H 0.45597 0.23609 0.88709 0.0
H474 H 0.48646 0.26757 0.89856 0.0
O475 O 0.5062 0.32709 0.87463 0.0
O476 O 0.52869 0.37184 0.89381 0.0
C477 C 0.5757 0.35236 0.83581 0.0
O478 O 0.57082 0.32478 0.92685 0.0
O479 O 0.54639 0.28031 0.9089 0.0
Zn480 Zn 0.1983 0.55083 0.87098 0.0
O481 O 0.17599 0.55799 0.83616 0.0
C482 C 0.14114 0.49986 0.88227 0.0
Zn483 Zn 0.15264 0.57377 0.89008 0.0
C484 C 0.14713 0.57349 0.83442 0.0
O485 O 0.13166 0.58366 0.85395 0.0
C486 C 0.20567 0.55134 0.92622 0.0
O487 O 0.17884 0.62081 0.88795 0.0
O488 O 0.22341 0.59987 0.86794 0.0
N489 N 0.11214 0.59961 0.90646 0.0
C490 C 0.11204 0.6199 0.92678 0.0
C491 C 0.06154 0.62255 0.91107 0.0
N492 N 0.08074 0.60138 0.89669 0.0
N493 N 0.08067 0.63432 0.9301 0.0
C494 C 0.26062 0.50156 0.86514 0.0
C495 C 0.28503 0.51938 0.83219 0.0
N496 N 0.24056 0.5269 0.85574 0.0
N497 N 0.25565 0.5378 0.83517 0.0
N498 N 0.2888 0.49666 0.85089 0.0
H499 H 0.22419 0.47957 0.89126 0.0
H500 H 0.26228 0.45384 0.88573 0.0
H501 H 0.26494 0.49232 0.90411 0.0
C502 C 0.25229 0.4806 0.88776 0.0
C503 C 0.14302 0.62748 0.94268 0.0
H504 H 0.14089 0.65342 0.95131 0.0
H505 H 0.14442 0.60797 0.9577 0.0
H506 H 0.16733 0.62651 0.93201 0.0
O507 O 0.17498 0.56304 0.92568 0.0
O508 O 0.2207 0.54453 0.90599 0.0
C509 C 0.20774 0.62556 0.87745 0.0
O510 O 0.17153 0.50287 0.87346 0.0
O511 O 0.12611 0.52628 0.89128 0.0
H512 H 0.60226 0.08206 0.32419 0.0
H513 H 0.56034 0.17607 0.29303 0.0
H514 H 0.61526 0.06114 0.28257 0.0
H515 H 0.5741 0.15568 0.25174 0.0
H516 H 0.67548 0.0602 0.20888 0.0
H517 H 0.65573 0.07443 0.25024 0.0
H518 H 0.56035 0.11447 0.21996 0.0
H519 H 0.58064 0.10101 0.17825 0.0
C520 C 0.59574 0.09821 0.3085 0.0
C521 C 0.58044 0.1308 0.31198 0.0
C522 C 0.60332 0.0863 0.28464 0.0
C523 C 0.59582 0.10676 0.26376 0.0
C524 C 0.57978 0.13898 0.2673 0.0
C525 C 0.57215 0.15081 0.29107 0.0
C526 C 0.65016 0.07183 0.21097 0.0
C527 C 0.62975 0.07972 0.19018 0.0
C528 C 0.6387 0.07974 0.23479 0.0
C529 C 0.60646 0.09567 0.2385 0.0
C530 C 0.58555 0.10265 0.21775 0.0
C531 C 0.59708 0.09479 0.19384 0.0
H532 H 0.43606 0.67681 0.20896 0.0
H533 H 0.3948 0.58242 0.17792 0.0
H534 H 0.42197 0.65656 0.25028 0.0
H535 H 0.38139 0.56174 0.21951 0.0
H536 H 0.41589 0.60113 0.32358 0.0
H537 H 0.43608 0.61475 0.28192 0.0
H538 H 0.34027 0.57574 0.25167 0.0
H539 H 0.32049 0.56141 0.29308 0.0
C540 C 0.42433 0.65153 0.21095 0.0
C541 C 0.41633 0.63134 0.19009 0.0
C542 C 0.41649 0.6398 0.23472 0.0
C543 C 0.4005 0.60754 0.23824 0.0
C544 C 0.3933 0.58692 0.21741 0.0
C545 C 0.40112 0.5987 0.19359 0.0
C546 C 0.39929 0.59518 0.30802 0.0
C547 C 0.36651 0.58037 0.31169 0.0
C548 C 0.41078 0.60314 0.28414 0.0
C549 C 0.38973 0.59648 0.26344 0.0
C550 C 0.35735 0.58081 0.26713 0.0
C551 C 0.3459 0.57283 0.29094 0.0
H552 H 0.93795 0.32227 0.29265 0.0
H553 H 0.89674 0.4167 0.32366 0.0
H554 H 0.92326 0.34217 0.25138 0.0
H555 H 0.88279 0.43709 0.28208 0.0
H556 H 0.82043 0.43678 0.20926 0.0
H557 H 0.8412 0.42286 0.25048 0.0
H558 H 0.93616 0.38329 0.21925 0.0
H559 H 0.91492 0.39646 0.17776 0.0
C560 C 0.92616 0.34753 0.29066 0.0
C561 C 0.91828 0.36778 0.31152 0.0
C562 C 0.91796 0.35906 0.26691 0.0
C563 C 0.90174 0.3912 0.26337 0.0
C564 C 0.89482 0.41197 0.28418 0.0
C565 C 0.90297 0.40038 0.308 0.0
C566 C 0.84585 0.4253 0.21113 0.0
C567 C 0.86591 0.41749 0.19017 0.0
C568 C 0.85788 0.41756 0.23484 0.0
C569 C 0.89034 0.40192 0.23822 0.0
C570 C 0.91082 0.39491 0.21728 0.0
C571 C 0.89872 0.40259 0.19351 0.0
H572 H 0.15428 0.96245 0.2947 0.0
H573 H 0.10182 0.87182 0.32221 0.0
H574 H 0.1333 0.95023 0.25316 0.0
H575 H 0.08285 0.85786 0.28053 0.0
H576 H 0.03432 0.84829 0.20618 0.0
H577 H 0.04761 0.86912 0.24757 0.0
H578 H 0.14225 0.91479 0.21986 0.0
H579 H 0.12725 0.89605 0.17825 0.0
C580 C 0.13834 0.93978 0.29175 0.0
C581 C 0.12965 0.91805 0.31159 0.0
C582 C 0.12651 0.93254 0.26789 0.0
C583 C 0.10651 0.90281 0.26317 0.0
C584 C 0.09753 0.88137 0.28328 0.0
C585 C 0.1086 0.88917 0.30724 0.0
C586 C 0.0577 0.86323 0.20901 0.0
C587 C 0.07981 0.87056 0.18912 0.0
C588 C 0.06557 0.87492 0.23279 0.0
C589 C 0.09633 0.89335 0.23739 0.0
C590 C 0.11804 0.90126 0.2172 0.0
C591 C 0.10962 0.89036 0.19328 0.0
H592 H 0.41936 0.89722 0.82301 0.0
H593 H 0.32579 0.94058 0.79214 0.0
H594 H 0.43996 0.88419 0.78131 0.0
H595 H 0.34588 0.92683 0.75078 0.0
H596 H 0.43758 0.82261 0.70799 0.0
H597 H 0.42474 0.84332 0.74937 0.0
H598 H 0.38749 0.93968 0.71888 0.0
H599 H 0.39957 0.91852 0.67719 0.0
C600 C 0.40329 0.90415 0.80737 0.0
C601 C 0.37084 0.9197 0.81094 0.0
C602 C 0.415 0.89654 0.78348 0.0
C603 C 0.39449 0.90432 0.76269 0.0
C604 C 0.36256 0.92089 0.7663 0.0
C605 C 0.35091 0.92852 0.7901 0.0
C606 C 0.42686 0.84834 0.71005 0.0
C607 C 0.4193 0.8688 0.68924 0.0
C608 C 0.41978 0.86033 0.73386 0.0
C609 C 0.40503 0.89315 0.73748 0.0
C610 C 0.39843 0.91408 0.7167 0.0
C611 C 0.40547 0.90202 0.69282 0.0
H612 H 0.60128 0.4159 0.82252 0.0
H613 H 0.56349 0.31978 0.79193 0.0
H614 H 0.61372 0.43674 0.78082 0.0
H615 H 0.57671 0.34018 0.75052 0.0
H616 H 0.67511 0.43859 0.7077 0.0
H617 H 0.65537 0.42404 0.749 0.0
H618 H 0.56163 0.38077 0.71839 0.0
H619 H 0.5819 0.3946 0.67673 0.0
C620 C 0.59553 0.39927 0.80693 0.0
C621 C 0.58161 0.36611 0.81059 0.0
C622 C 0.60279 0.41114 0.78304 0.0
C623 C 0.59635 0.39008 0.7623 0.0
C624 C 0.58157 0.35729 0.76599 0.0
C625 C 0.57425 0.34548 0.78982 0.0
C626 C 0.65016 0.42617 0.70971 0.0
C627 C 0.63018 0.41753 0.68885 0.0
C628 C 0.6387 0.41807 0.73348 0.0
C629 C 0.60692 0.4012 0.73706 0.0
C630 C 0.58646 0.39338 0.71625 0.0
C631 C 0.59798 0.40145 0.69239 0.0
H632 H 0.03774 0.652 0.7047 0.0
H633 H 0.13119 0.60557 0.67646 0.0
H634 H 0.05129 0.63096 0.74595 0.0
H635 H 0.14629 0.5864 0.71802 0.0
H636 H 0.1568 0.53628 0.79233 0.0
H637 H 0.13641 0.54976 0.75087 0.0
H638 H 0.08679 0.64203 0.77909 0.0
H639 H 0.10537 0.62699 0.82072 0.0
C640 C 0.06133 0.63734 0.70742 0.0
C641 C 0.0835 0.63046 0.68746 0.0
C642 C 0.06931 0.62552 0.73114 0.0
C643 C 0.10017 0.60726 0.73562 0.0
C644 C 0.12201 0.59983 0.7154 0.0
C645 C 0.11354 0.61097 0.69153 0.0
C646 C 0.14116 0.55922 0.78962 0.0
C647 C 0.13266 0.58063 0.80969 0.0
C648 C 0.1297 0.56717 0.76579 0.0
C649 C 0.11014 0.59724 0.76134 0.0
C650 C 0.10121 0.61832 0.78166 0.0
C651 C 0.11201 0.60987 0.80559 0.0
H652 H 0.84106 0.03743 0.70943 0.0
H653 H 0.89695 0.12594 0.68181 0.0
H654 H 0.86153 0.04959 0.7511 0.0
H655 H 0.91566 0.13974 0.72363 0.0
H656 H 0.96393 0.14756 0.79823 0.0
H657 H 0.95016 0.12698 0.7569 0.0
H658 H 0.85318 0.08608 0.7842 0.0
H659 H 0.86846 0.10471 0.82587 0.0
C660 C 0.8577 0.0596 0.71236 0.0
C661 C 0.86743 0.08077 0.69243 0.0
C662 C 0.86922 0.06681 0.73631 0.0
C663 C 0.8901 0.09589 0.74103 0.0
C664 C 0.90021 0.11672 0.72086 0.0
C665 C 0.88934 0.109 0.69682 0.0
C666 C 0.93988 0.13374 0.79536 0.0
C667 C 0.91719 0.12777 0.81517 0.0
C668 C 0.93176 0.12221 0.77159 0.0
C669 C 0.90024 0.10522 0.76687 0.0
C670 C 0.87793 0.09855 0.78698 0.0
C671 C 0.88653 0.10936 0.81092 0.0
H672 H 0.4426 0.16009 0.3601 0.0
H673 H 0.48196 0.07567 0.40435 0.0
H674 H 0.38929 0.12789 0.35294 0.0
H675 H 0.42857 0.04354 0.39711 0.0
H676 H 0.32215 0.0384 0.3205 0.0
H677 H 0.37351 0.07365 0.32952 0.0
H678 H 0.36535 0.0464 0.40681 0.0
H679 H 0.3144 0.01112 0.39755 0.0
C680 C 0.43978 0.13481 0.3685 0.0
C681 C 0.46658 0.12038 0.38276 0.0
C682 C 0.40934 0.11631 0.36423 0.0
C683 C 0.4049 0.08316 0.37433 0.0
C684 C 0.43121 0.06916 0.38922 0.0
C685 C 0.46181 0.08752 0.39332 0.0
C686 C 0.33136 0.04038 0.33937 0.0
C687 C 0.31422 0.02285 0.35843 0.0
C688 C 0.3605 0.06054 0.34458 0.0
C689 C 0.37328 0.06288 0.3689 0.0
C690 C 0.35615 0.04501 0.38791 0.0
C691 C 0.32691 0.02516 0.3827 0.0
H692 H 0.33712 0.4415 0.36339 0.0
H693 H 0.42459 0.48573 0.40188 0.0
H694 H 0.37012 0.38873 0.3561 0.0
H695 H 0.45763 0.43315 0.39428 0.0
H696 H 0.4554 0.31915 0.32212 0.0
H697 H 0.42045 0.37078 0.33087 0.0
H698 H 0.45988 0.37223 0.40567 0.0
H699 H 0.49536 0.3217 0.39648 0.0
C700 C 0.36328 0.43989 0.37047 0.0
C701 C 0.37824 0.46786 0.38321 0.0
C702 C 0.38227 0.40976 0.36608 0.0
C703 C 0.41655 0.40687 0.37444 0.0
C704 C 0.43117 0.43446 0.38778 0.0
C705 C 0.41224 0.46463 0.3921 0.0
C706 C 0.45633 0.33067 0.34037 0.0
C707 C 0.47724 0.31616 0.35882 0.0
C708 C 0.43626 0.35993 0.34547 0.0
C709 C 0.4372 0.3754 0.36905 0.0
C710 C 0.4586 0.361 0.38734 0.0
C711 C 0.4785 0.33178 0.38223 0.0
H712 H 0.05642 0.33651 0.36179 0.0
H713 H 0.01402 0.4215 0.40396 0.0
H714 H 0.1093 0.36949 0.35501 0.0
H715 H 0.06656 0.45466 0.39672 0.0
H716 H 0.17848 0.45641 0.32282 0.0
H717 H 0.12725 0.4208 0.33133 0.0
H718 H 0.12744 0.45659 0.40707 0.0
H719 H 0.1774 0.4929 0.39811 0.0
C720 C 0.05849 0.36205 0.36985 0.0
C721 C 0.03099 0.37632 0.38349 0.0
C722 C 0.08867 0.38109 0.36572 0.0
C723 C 0.09206 0.41476 0.37518 0.0
C724 C 0.06492 0.42866 0.38937 0.0
C725 C 0.03474 0.40966 0.39347 0.0
C726 C 0.16743 0.45638 0.34123 0.0
C727 C 0.18225 0.47654 0.35998 0.0
C728 C 0.13839 0.43591 0.34619 0.0
C729 C 0.12346 0.43564 0.36996 0.0
C730 C 0.13823 0.45622 0.38859 0.0
C731 C 0.16718 0.47657 0.3836 0.0
H732 H 0.1583 0.05514 0.35892 0.0
H733 H 0.07649 0.01521 0.40533 0.0
H734 H 0.12513 0.10786 0.35217 0.0
H735 H 0.04321 0.06799 0.39836 0.0
H736 H 0.03476 0.17413 0.32112 0.0
H737 H 0.07047 0.123 0.3298 0.0
H738 H 0.0447 0.13109 0.40737 0.0
H739 H 0.00886 0.18176 0.39841 0.0
C740 C 0.13344 0.05774 0.36794 0.0
C741 C 0.12006 0.03095 0.38271 0.0
C742 C 0.11431 0.08784 0.36385 0.0
C743 C 0.0815 0.09194 0.37458 0.0
C744 C 0.06854 0.06564 0.38996 0.0
C745 C 0.08757 0.03539 0.39391 0.0
C746 C 0.03711 0.16492 0.33996 0.0
C747 C 0.01988 0.18202 0.35919 0.0
C748 C 0.05754 0.1359 0.345 0.0
C749 C 0.06054 0.12321 0.36931 0.0
C750 C 0.04283 0.14021 0.38847 0.0
C751 C 0.02267 0.16931 0.38343 0.0
H752 H 0.93971 0.83778 0.13801 0.0
H753 H 0.98558 0.92477 0.09998 0.0
H754 H 0.8875 0.87157 0.14535 0.0
H755 H 0.93353 0.95866 0.10764 0.0
H756 H 0.81895 0.95681 0.17972 0.0
H757 H 0.8704 0.92165 0.17086 0.0
H758 H 0.87268 0.96235 0.09641 0.0
H759 H 0.82232 0.99806 0.10575 0.0
C760 C 0.93857 0.86402 0.13104 0.0
C761 C 0.96685 0.87861 0.11843 0.0
C762 C 0.90876 0.88346 0.13546 0.0
C763 C 0.90651 0.91787 0.12729 0.0
C764 C 0.93436 0.93212 0.11402 0.0
C765 C 0.96422 0.9127 0.10965 0.0
C766 C 0.83065 0.95802 0.16154 0.0
C767 C 0.81641 0.97929 0.14321 0.0
C768 C 0.8598 0.93782 0.15636 0.0
C769 C 0.87539 0.93899 0.13283 0.0
C770 C 0.86134 0.96088 0.1147 0.0
C771 C 0.83224 0.98091 0.11989 0.0
H772 H 0.53681 0.82304 0.18045 0.0
H773 H 0.51177 0.81414 0.10308 0.0
H774 H 0.57271 0.87398 0.17153 0.0
H775 H 0.54771 0.86466 0.09392 0.0
H776 H 0.65997 0.94277 0.14199 0.0
H777 H 0.62766 0.88945 0.1489 0.0
H778 H 0.54478 0.92798 0.10299 0.0
H779 H 0.57702 0.98136 0.09602 0.0
C780 C 0.53944 0.83189 0.16154 0.0
C781 C 0.52232 0.81454 0.14237 0.0
C782 C 0.55997 0.86079 0.15638 0.0
C783 C 0.56313 0.87315 0.13199 0.0
C784 C 0.54571 0.85579 0.11287 0.0
C785 C 0.52548 0.82678 0.11803 0.0
C786 C 0.63502 0.93976 0.13314 0.0
C787 C 0.62101 0.96638 0.1185 0.0
C788 C 0.61644 0.90931 0.13726 0.0
C789 C 0.58364 0.90467 0.12663 0.0
C790 C 0.57012 0.93076 0.11131 0.0
C791 C 0.58855 0.96136 0.10737 0.0
H792 H 0.5147 0.57757 0.09533 0.0
H793 H 0.55296 0.65832 0.14339 0.0
H794 H 0.56766 0.54458 0.10232 0.0
H795 H 0.60587 0.62543 0.15016 0.0
H796 H 0.67226 0.53454 0.18046 0.0
H797 H 0.62112 0.57023 0.17181 0.0
H798 H 0.63096 0.54693 0.09395 0.0
H799 H 0.68165 0.51109 0.10287 0.0
C800 C 0.53455 0.58848 0.10713 0.0
C801 C 0.52959 0.62059 0.11877 0.0
C802 C 0.56491 0.56962 0.11108 0.0
C803 C 0.59081 0.58236 0.12691 0.0
C804 C 0.58618 0.61479 0.13811 0.0
C805 C 0.55597 0.63375 0.13402 0.0
C806 C 0.66345 0.53745 0.16156 0.0
C807 C 0.68105 0.52089 0.14226 0.0
C808 C 0.63442 0.55787 0.15655 0.0
C809 C 0.62219 0.56153 0.13216 0.0
C810 C 0.63971 0.54454 0.11291 0.0
C811 C 0.66883 0.52439 0.11793 0.0
H812 H 0.95349 0.68018 0.18212 0.0
H813 H 0.99411 0.67723 0.10797 0.0
H814 H 0.91865 0.62847 0.17336 0.0
H815 H 0.95853 0.62689 0.09866 0.0
H816 H 0.92254 0.51423 0.10106 0.0
H817 H 0.9557 0.56647 0.10924 0.0
H818 H 0.86875 0.60979 0.14872 0.0
H819 H 0.83578 0.55714 0.14106 0.0
C820 C 0.95456 0.66858 0.16391 0.0
C821 C 0.97559 0.68302 0.14551 0.0
C822 C 0.93453 0.63927 0.15878 0.0
C823 C 0.93559 0.62374 0.13522 0.0
C824 C 0.95714 0.6381 0.11699 0.0
C825 C 0.97707 0.66727 0.12215 0.0
C826 C 0.91034 0.535 0.11128 0.0
C827 C 0.87646 0.53149 0.12034 0.0
C828 C 0.92934 0.56502 0.11592 0.0
C829 C 0.91491 0.59227 0.12972 0.0
C830 C 0.88077 0.58907 0.13834 0.0
C831 C 0.86175 0.55903 0.13369 0.0
H832 H 0.67248 0.96117 0.68272 0.0
H833 H 0.68335 0.98725 0.60565 0.0
H834 H 0.62169 0.92556 0.67289 0.0
H835 H 0.63313 0.95144 0.59557 0.0
H836 H 0.55423 0.8384 0.64263 0.0
H837 H 0.607 0.87111 0.65037 0.0
H838 H 0.5699 0.95299 0.60297 0.0
H839 H 0.51716 0.92016 0.59498 0.0
C840 C 0.66406 0.95889 0.66368 0.0
C841 C 0.68198 0.97616 0.64486 0.0
C842 C 0.63525 0.93848 0.658 0.0
C843 C 0.6236 0.93553 0.63341 0.0
C844 C 0.64142 0.95326 0.61466 0.0
C845 C 0.67029 0.97342 0.62035 0.0
C846 C 0.5575 0.86313 0.63353 0.0
C847 C 0.53146 0.87665 0.61814 0.0
C848 C 0.58761 0.88201 0.63819 0.0
C849 C 0.59247 0.9147 0.62744 0.0
C850 C 0.56698 0.92774 0.6114 0.0
C851 C 0.53674 0.90897 0.60686 0.0
H852 H 0.57834 0.51741 0.59515 0.0
H853 H 0.65899 0.55586 0.64321 0.0
H854 H 0.54515 0.57017 0.60219 0.0
H855 H 0.62589 0.60867 0.65002 0.0
H856 H 0.53465 0.67486 0.68019 0.0
H857 H 0.57075 0.62397 0.67162 0.0
H858 H 0.54705 0.63317 0.59378 0.0
H859 H 0.51077 0.68353 0.60263 0.0
C860 C 0.58919 0.53727 0.60696 0.0
C861 C 0.62132 0.53242 0.6186 0.0
C862 C 0.57021 0.56753 0.61094 0.0
C863 C 0.58286 0.59346 0.62677 0.0
C864 C 0.61531 0.58894 0.63797 0.0
C865 C 0.63441 0.55881 0.63386 0.0
C866 C 0.53755 0.66595 0.66132 0.0
C867 C 0.52074 0.68327 0.64199 0.0
C868 C 0.55822 0.63708 0.65635 0.0
C869 C 0.56188 0.62474 0.63199 0.0
C870 C 0.54466 0.642 0.61272 0.0
C871 C 0.52425 0.67094 0.6177 0.0
H872 H 0.94247 0.6609 0.64355 0.0
H873 H 0.98191 0.57805 0.59786 0.0
H874 H 0.88963 0.62786 0.6508 0.0
H875 H 0.92908 0.54512 0.60518 0.0
H876 H 0.81527 0.51201 0.60434 0.0
H877 H 0.866 0.54785 0.59566 0.0
H878 H 0.874 0.57278 0.67336 0.0
H879 H 0.8228 0.53695 0.6818 0.0
C880 C 0.93976 0.63579 0.63487 0.0
C881 C 0.96642 0.62207 0.62013 0.0
C882 C 0.90961 0.6168 0.63919 0.0
C883 C 0.90533 0.58388 0.62866 0.0
C884 C 0.93157 0.57055 0.61341 0.0
C885 C 0.96186 0.58938 0.60926 0.0
C886 C 0.82772 0.52561 0.61942 0.0
C887 C 0.81501 0.52249 0.64363 0.0
C888 C 0.85683 0.5458 0.61454 0.0
C889 C 0.87385 0.56321 0.63382 0.0
C890 C 0.86109 0.56002 0.6581 0.0
C891 C 0.83205 0.53953 0.66298 0.0
H892 H 0.92248 0.987 0.60128 0.0
H893 H 0.83785 0.9422 0.64255 0.0
H894 H 0.95689 0.93531 0.60878 0.0
H895 H 0.87204 0.89019 0.64954 0.0
H896 H 0.99647 0.82441 0.60673 0.0
H897 H 0.96046 0.87472 0.59813 0.0
H898 H 0.92306 0.87273 0.67347 0.0
H899 H 0.95841 0.8212 0.68158 0.0
C900 C 0.911 0.96593 0.61163 0.0
C901 C 0.87736 0.96875 0.62126 0.0
C902 C 0.93072 0.93625 0.61589 0.0
C903 C 0.91727 0.90869 0.62988 0.0
C904 C 0.88334 0.91118 0.63902 0.0
C905 C 0.8636 0.94086 0.63475 0.0
C906 C 0.98001 0.83437 0.62125 0.0
C907 C 0.97935 0.81852 0.64461 0.0
C908 C 0.95979 0.86348 0.61648 0.0
C909 C 0.93868 0.87762 0.63506 0.0
C910 C 0.93856 0.86208 0.65863 0.0
C911 C 0.95891 0.83288 0.66338 0.0
H912 H 0.01892 0.07769 0.90537 0.0
H913 H 0.05799 0.15958 0.85866 0.0
H914 H 0.07149 0.0444 0.89786 0.0
H915 H 0.11061 0.12637 0.85138 0.0
H916 H 0.18477 0.0097 0.89739 0.0
H917 H 0.13435 0.04575 0.90653 0.0
H918 H 0.12602 0.07191 0.82904 0.0
H919 H 0.17699 0.03604 0.82018 0.0
C920 C 0.03887 0.08877 0.89375 0.0
C921 C 0.03426 0.12131 0.88264 0.0
C922 C 0.06902 0.06974 0.8895 0.0
C923 C 0.09508 0.08272 0.87393 0.0
C924 C 0.09078 0.11553 0.86322 0.0
C925 C 0.06075 0.13468 0.8676 0.0
C926 C 0.17234 0.02365 0.88246 0.0
C927 C 0.18495 0.02092 0.85819 0.0
C928 C 0.14337 0.04394 0.8876 0.0
C929 C 0.12634 0.06179 0.86852 0.0
C930 C 0.13894 0.05887 0.84418 0.0
C931 C 0.16786 0.03834 0.83904 0.0
H932 H 0.34028 0.05459 0.85914 0.0
H933 H 0.42131 0.01595 0.9068 0.0
H934 H 0.3733 0.10741 0.85231 0.0
H935 H 0.45444 0.06875 0.89973 0.0
H936 H 0.46456 0.17271 0.82119 0.0
H937 H 0.42822 0.12216 0.83026 0.0
H938 H 0.45311 0.13188 0.90788 0.0
H939 H 0.48961 0.18192 0.89854 0.0
C940 C 0.3649 0.05752 0.86844 0.0
C941 C 0.37814 0.03103 0.88355 0.0
C942 C 0.38396 0.08767 0.86431 0.0
C943 C 0.41655 0.0921 0.87532 0.0
C944 C 0.42928 0.06616 0.89111 0.0
C945 C 0.41034 0.03588 0.89511 0.0
C946 C 0.46187 0.16399 0.84013 0.0
C947 C 0.47908 0.18135 0.85925 0.0
C948 C 0.44106 0.13531 0.84538 0.0
C949 C 0.43765 0.12322 0.86983 0.0
C950 C 0.45528 0.14052 0.88889 0.0
C951 C 0.47584 0.16926 0.88362 0.0
H952 H 0.44374 0.33549 0.86061 0.0
H953 H 0.48678 0.42147 0.9014 0.0
H954 H 0.39128 0.36876 0.85305 0.0
H955 H 0.43475 0.45498 0.89328 0.0
H956 H 0.32204 0.45398 0.81948 0.0
H957 H 0.37338 0.41884 0.82853 0.0
H958 H 0.37424 0.45845 0.90331 0.0
H959 H 0.32426 0.49436 0.89374 0.0
C960 C 0.44191 0.36133 0.8682 0.0
C961 C 0.46945 0.37575 0.88171 0.0
C962 C 0.41198 0.38055 0.8636 0.0
C963 C 0.40891 0.4146 0.8724 0.0
C964 C 0.4361 0.42869 0.88644 0.0
C965 C 0.466 0.40948 0.89105 0.0
C966 C 0.3334 0.45497 0.83777 0.0
C967 C 0.31883 0.47605 0.8561 0.0
C968 C 0.3625 0.43474 0.84307 0.0
C969 C 0.3777 0.43559 0.86674 0.0
C970 C 0.36327 0.45721 0.88489 0.0
C971 C 0.33431 0.47736 0.87957 0.0
H972 H 0.16163 0.44187 0.85738 0.0
H973 H 0.07799 0.48292 0.90158 0.0
H974 H 0.12839 0.38914 0.85029 0.0
H975 H 0.04483 0.43017 0.89441 0.0
H976 H 0.03834 0.32224 0.8186 0.0
H977 H 0.07392 0.37361 0.82708 0.0
H978 H 0.04655 0.36723 0.90443 0.0
H979 H 0.01098 0.3163 0.89571 0.0
C980 C 0.13631 0.43953 0.86579 0.0
C981 C 0.12242 0.46663 0.88003 0.0
C982 C 0.11719 0.40944 0.86154 0.0
C983 C 0.08395 0.40566 0.87165 0.0
C984 C 0.07048 0.43229 0.8865 0.0
C985 C 0.08945 0.46252 0.89056 0.0
C986 C 0.04027 0.33192 0.83735 0.0
C987 C 0.02267 0.31526 0.8566 0.0
C988 C 0.06064 0.36105 0.84226 0.0
C989 C 0.06313 0.37427 0.86646 0.0
C990 C 0.04504 0.35771 0.88562 0.0
C991 C 0.02499 0.3285 0.88071 0.0
H992 H 0.68485 0.17544 0.39932 0.0
H993 H 0.64785 0.26436 0.35866 0.0
H994 H 0.74359 0.19717 0.39658 0.0
H995 H 0.70716 0.28588 0.35554 0.0
H996 H 0.80976 0.33162 0.38402 0.0
H997 H 0.75107 0.30953 0.38297 0.0
H998 H 0.79009 0.20725 0.3669 0.0
H999 H 0.84936 0.22931 0.36872 0.0
C1000 C 0.68926 0.1996 0.38967 0.0
C1001 C 0.66163 0.21827 0.37925 0.0
C1002 C 0.72304 0.21187 0.38792 0.0
C1003 C 0.73007 0.2431 0.37571 0.0
C1004 C 0.70249 0.26183 0.36524 0.0
C1005 C 0.66855 0.24953 0.367 0.0
C1006 C 0.80593 0.30436 0.38037 0.0
C1007 C 0.83425 0.28206 0.37686 0.0
C1008 C 0.7722 0.29181 0.37945 0.0
C1009 C 0.76592 0.25666 0.37491 0.0
C1010 C 0.79418 0.23443 0.37076 0.0
C1011 C 0.82807 0.24704 0.37167 0.0
H1012 H 0.32901 0.68453 0.36619 0.0
H1013 H 0.22798 0.64885 0.38834 0.0
H1014 H 0.30752 0.74339 0.36343 0.0
H1015 H 0.2067 0.70818 0.38767 0.0
H1016 H 0.16846 0.81348 0.36702 0.0
H1017 H 0.18997 0.75461 0.36471 0.0
H1018 H 0.29183 0.7908 0.38578 0.0
H1019 H 0.27041 0.85012 0.38599 0.0
C1020 C 0.30214 0.6895 0.37066 0.0
C1021 C 0.28005 0.66231 0.37743 0.0
C1022 C 0.28984 0.72334 0.36936 0.0
C1023 C 0.25534 0.73101 0.37553 0.0
C1024 C 0.23323 0.70349 0.38225 0.0
C1025 C 0.24536 0.66942 0.38282 0.0
C1026 C 0.19555 0.80872 0.37088 0.0
C1027 C 0.21788 0.83616 0.37665 0.0
C1028 C 0.20788 0.77488 0.36984 0.0
C1029 C 0.24267 0.76748 0.37531 0.0
C1030 C 0.26504 0.79526 0.38095 0.0
C1031 C 0.25284 0.82933 0.38125 0.0
H1032 H 0.31278 0.66877 0.1351 0.0
H1033 H 0.3479 0.77064 0.1145 0.0
H1034 H 0.25382 0.68984 0.13824 0.0
H1035 H 0.28842 0.79156 0.11555 0.0
H1036 H 0.18289 0.8286 0.13649 0.0
H1037 H 0.24187 0.80732 0.13875 0.0
H1038 H 0.20632 0.70588 0.11615 0.0
H1039 H 0.14689 0.72702 0.11601 0.0
C1040 C 0.30766 0.69574 0.13104 0.0
C1041 C 0.33472 0.71818 0.12459 0.0
C1042 C 0.27376 0.7078 0.13257 0.0
C1043 C 0.26589 0.74244 0.12695 0.0
C1044 C 0.29327 0.7649 0.12055 0.0
C1045 C 0.32742 0.75298 0.11975 0.0
C1046 C 0.18782 0.80162 0.13234 0.0
C1047 C 0.16054 0.77933 0.12614 0.0
C1048 C 0.22172 0.78944 0.13332 0.0
C1049 C 0.22933 0.75486 0.12736 0.0
C1050 C 0.20169 0.73249 0.12135 0.0
C1051 C 0.16756 0.74453 0.12111 0.0
H1052 H 0.82341 0.31224 0.10256 0.0
H1053 H 0.73352 0.34931 0.14207 0.0
H1054 H 0.8016 0.2535 0.10508 0.0
H1055 H 0.71192 0.29001 0.14498 0.0
H1056 H 0.66674 0.18728 0.11664 0.0
H1057 H 0.68885 0.24596 0.11752 0.0
H1058 H 0.79086 0.20706 0.13462 0.0
H1059 H 0.76879 0.14779 0.13296 0.0
C1060 C 0.79902 0.30785 0.11191 0.0
C1061 C 0.78011 0.33549 0.12208 0.0
C1062 C 0.78669 0.27406 0.11353 0.0
C1063 C 0.75517 0.26705 0.12536 0.0
C1064 C 0.7362 0.29466 0.13557 0.0
C1065 C 0.74855 0.32859 0.13393 0.0
C1066 C 0.69395 0.19112 0.12045 0.0
C1067 C 0.71616 0.16283 0.12433 0.0
C1068 C 0.70652 0.22486 0.12128 0.0
C1069 C 0.7416 0.23118 0.12609 0.0
C1070 C 0.76375 0.20295 0.13055 0.0
C1071 C 0.75112 0.16906 0.12973 0.0
H1072 H 0.18046 0.69084 0.58839 0.0
H1073 H 0.15058 0.75746 0.64889 0.0
H1074 H 0.23983 0.71119 0.59175 0.0
H1075 H 0.21015 0.77874 0.65167 0.0
H1076 H 0.31081 0.83398 0.62365 0.0
H1077 H 0.2515 0.81281 0.62393 0.0
H1078 H 0.28897 0.70762 0.62373 0.0
H1079 H 0.34875 0.72886 0.62352 0.0
C1080 C 0.18663 0.70957 0.60259 0.0
C1081 C 0.16098 0.72196 0.61875 0.0
C1082 C 0.22063 0.72125 0.60445 0.0
C1083 C 0.22964 0.74607 0.62222 0.0
C1084 C 0.20383 0.75945 0.63786 0.0
C1085 C 0.16978 0.7474 0.6362 0.0
C1086 C 0.30646 0.80631 0.62377 0.0
C1087 C 0.3344 0.78301 0.62334 0.0
C1088 C 0.27249 0.79425 0.62412 0.0
C1089 C 0.26571 0.75865 0.62377 0.0
C1090 C 0.2936 0.73526 0.62382 0.0
C1091 C 0.32771 0.74735 0.62382 0.0
H1092 H 0.82846 0.18582 0.63531 0.0
H1093 H 0.72541 0.14873 0.62011 0.0
H1094 H 0.80734 0.24488 0.63654 0.0
H1095 H 0.70424 0.2082 0.61944 0.0
H1096 H 0.66949 0.3162 0.63771 0.0
H1097 H 0.69053 0.25721 0.64139 0.0
H1098 H 0.78947 0.28954 0.61179 0.0
H1099 H 0.76865 0.34905 0.60983 0.0
C1100 C 0.80119 0.19049 0.6321 0.0
C1101 C 0.77848 0.16288 0.62762 0.0
C1102 C 0.78909 0.22442 0.63252 0.0
C1103 C 0.75408 0.2317 0.62777 0.0
C1104 C 0.73126 0.20379 0.6236 0.0
C1105 C 0.7433 0.16965 0.62385 0.0
C1106 C 0.69578 0.31053 0.63208 0.0
C1107 C 0.71749 0.3369 0.62336 0.0
C1108 C 0.70783 0.27666 0.63402 0.0
C1109 C 0.74169 0.2682 0.6267 0.0
C1110 C 0.76346 0.29494 0.61809 0.0
C1111 C 0.75159 0.32905 0.61677 0.0
H1112 H 0.81945 0.18943 0.91312 0.0
H1113 H 0.84983 0.25505 0.85219 0.0
H1114 H 0.76006 0.20946 0.9092 0.0
H1115 H 0.79021 0.27603 0.84883 0.0
H1116 H 0.68945 0.33173 0.87633 0.0
H1117 H 0.74873 0.3105 0.87621 0.0
H1118 H 0.71114 0.20535 0.87701 0.0
H1119 H 0.65137 0.22666 0.87706 0.0
C1120 C 0.81339 0.20786 0.89871 0.0
C1121 C 0.83919 0.22008 0.88261 0.0
C1122 C 0.77937 0.21935 0.89651 0.0
C1123 C 0.7705 0.24381 0.87846 0.0
C1124 C 0.79643 0.257 0.86285 0.0
C1125 C 0.83051 0.24514 0.86485 0.0
C1126 C 0.69377 0.30405 0.87636 0.0
C1127 C 0.66581 0.28079 0.87694 0.0
C1128 C 0.72772 0.29196 0.87609 0.0
C1129 C 0.73445 0.25636 0.87668 0.0
C1130 C 0.70654 0.23299 0.87673 0.0
C1131 C 0.67244 0.24512 0.87665 0.0
H1132 H 0.23147 0.84904 0.86721 0.0
H1133 H 0.33431 0.80986 0.88122 0.0
H1134 H 0.20984 0.78965 0.86477 0.0
H1135 H 0.31266 0.751 0.87945 0.0
H1136 H 0.26713 0.64784 0.85444 0.0
H1137 H 0.28842 0.70734 0.8516 0.0
H1138 H 0.20095 0.74264 0.89443 0.0
H1139 H 0.17953 0.68383 0.897 0.0
C1140 C 0.24942 0.82782 0.86972 0.0
C1141 C 0.28445 0.83415 0.87477 0.0
C1142 C 0.23706 0.79385 0.86843 0.0
C1143 C 0.25956 0.76565 0.87204 0.0
C1144 C 0.29474 0.77209 0.87636 0.0
C1145 C 0.30703 0.80591 0.8777 0.0
C1146 C 0.25252 0.66835 0.86323 0.0
C1147 C 0.22171 0.66108 0.87596 0.0
C1148 C 0.26468 0.70238 0.86162 0.0
C1149 C 0.2462 0.7297 0.87266 0.0
C1150 C 0.21543 0.72231 0.88533 0.0
C1151 C 0.20335 0.68846 0.88698 0.0
H1152 H 0.70011 0.05364 0.42659 0.0
H1153 H 0.62133 0.07576 0.48055 0.0
H1154 H 0.74208 0.04299 0.46007 0.0
H1155 H 0.6626 0.06523 0.51395 0.0
H1156 H 0.80861 0.08082 0.52984 0.0
H1157 H 0.77108 0.08042 0.49324 0.0
H1158 H 0.69692 0.01761 0.53254 0.0
H1159 H 0.73378 0.01817 0.56885 0.0
C1160 C 0.69178 0.05546 0.44567 0.0
C1161 C 0.65771 0.06522 0.45125 0.0
C1162 C 0.7157 0.04976 0.46474 0.0
C1163 C 0.70562 0.05323 0.48963 0.0
C1164 C 0.67109 0.0619 0.49501 0.0
C1165 C 0.64747 0.06797 0.47601 0.0
C1166 C 0.78459 0.06643 0.53046 0.0
C1167 C 0.77405 0.0499 0.55236 0.0
C1168 C 0.76317 0.06611 0.5095 0.0
C1169 C 0.73086 0.04933 0.51016 0.0
C1170 C 0.72137 0.03123 0.5316 0.0
C1171 C 0.74264 0.0315 0.55241 0.0
H1172 H 0.49245 0.74924 0.55918 0.0
H1173 H 0.40348 0.80349 0.53061 0.0
H1174 H 0.49441 0.7137 0.52214 0.0
H1175 H 0.40391 0.76656 0.49407 0.0
H1176 H 0.45468 0.62452 0.47368 0.0
H1177 H 0.46409 0.66717 0.50621 0.0
H1178 H 0.42833 0.74792 0.45697 0.0
H1179 H 0.41735 0.70433 0.42509 0.0
C1180 C 0.47339 0.75366 0.54485 0.0
C1181 C 0.44768 0.77897 0.54781 0.0
C1182 C 0.47429 0.73304 0.52366 0.0
C1183 C 0.44896 0.73664 0.50515 0.0
C1184 C 0.42414 0.76314 0.50769 0.0
C1185 C 0.42372 0.7843 0.52871 0.0
C1186 C 0.4496 0.65153 0.46984 0.0
C1187 C 0.43531 0.66137 0.44713 0.0
C1188 C 0.45503 0.67612 0.48838 0.0
C1189 C 0.4468 0.71123 0.4844 0.0
C1190 C 0.43428 0.72115 0.46099 0.0
C1191 C 0.42834 0.69639 0.44262 0.0
H1192 H 0.79583 0.41923 0.42568 0.0
H1193 H 0.87607 0.45531 0.47438 0.0
H1194 H 0.75233 0.4308 0.45749 0.0
H1195 H 0.83344 0.46527 0.5069 0.0
H1196 H 0.75123 0.49443 0.55983 0.0
H1197 H 0.78723 0.496 0.52298 0.0
H1198 H 0.73319 0.40654 0.49438 0.0
H1199 H 0.69591 0.40647 0.53069 0.0
C1200 C 0.80389 0.43007 0.44323 0.0
C1201 C 0.83899 0.43657 0.44777 0.0
C1202 C 0.77917 0.43634 0.46157 0.0
C1203 C 0.78919 0.44864 0.48502 0.0
C1204 C 0.82442 0.45637 0.48905 0.0
C1205 C 0.84898 0.45063 0.47052 0.0
C1206 C 0.74665 0.47552 0.54542 0.0
C1207 C 0.72088 0.45021 0.54818 0.0
C1208 C 0.76753 0.47619 0.52435 0.0
C1209 C 0.76371 0.45105 0.50573 0.0
C1210 C 0.7368 0.42664 0.50807 0.0
C1211 C 0.71542 0.42644 0.52897 0.0
H1212 H 0.03962 0.77383 0.56751 0.0
H1213 H 0.05122 0.68074 0.52411 0.0
H1214 H 0.03836 0.8081 0.53027 0.0
H1215 H 0.04879 0.71532 0.48621 0.0
H1216 H 0.09621 0.79469 0.43092 0.0
H1217 H 0.08426 0.75407 0.46422 0.0
H1218 H 0.00925 0.82544 0.49451 0.0
H1219 H 0.02363 0.86708 0.46213 0.0
C1220 C 0.04097 0.7605 0.54992 0.0
C1221 C 0.04545 0.72446 0.54882 0.0
C1222 C 0.04005 0.78027 0.5284 0.0
C1223 C 0.0433 0.76463 0.50505 0.0
C1224 C 0.04662 0.72835 0.50387 0.0
C1225 C 0.04786 0.70847 0.52556 0.0
C1226 C 0.07743 0.80172 0.44486 0.0
C1227 C 0.06208 0.83464 0.44472 0.0
C1228 C 0.07001 0.77815 0.46372 0.0
C1229 C 0.04637 0.78671 0.48253 0.0
C1230 C 0.02846 0.81838 0.48085 0.0
C1231 C 0.03635 0.84213 0.46218 0.0
H1232 H 0.24902 0.9902 0.9408 0.0
H1233 H 0.30366 0.90114 0.96884 0.0
H1234 H 0.21283 0.99098 0.97754 0.0
H1235 H 0.26608 0.90036 0.00503 0.0
H1236 H 0.20296 0.9126 0.07394 0.0
H1237 H 0.24674 0.9237 0.04221 0.0
H1238 H 0.16636 0.96025 0.99296 0.0
H1239 H 0.12352 0.95075 0.02535 0.0
C1240 C 0.25337 0.97086 0.95495 0.0
C1241 C 0.27902 0.9455 0.95193 0.0
C1242 C 0.23237 0.97106 0.97595 0.0
C1243 C 0.2359 0.94536 0.99421 0.0
C1244 C 0.26269 0.92086 0.99161 0.0
C1245 C 0.28423 0.92114 0.9708 0.0
C1246 C 0.19512 0.92366 0.05641 0.0
C1247 C 0.16016 0.9309 0.05188 0.0
C1248 C 0.22 0.92971 0.03814 0.0
C1249 C 0.21027 0.94261 0.01478 0.0
C1250 C 0.17518 0.95091 0.01074 0.0
C1251 C 0.15048 0.94539 0.0292 0.0
H1252 H 0.54326 0.12294 0.02677 0.0
H1253 H 0.58157 0.20247 0.07517 0.0
H1254 H 0.5346 0.16557 0.99408 0.0
H1255 H 0.57137 0.24604 0.04316 0.0
H1256 H 0.59679 0.30143 0.96964 0.0
H1257 H 0.59599 0.26438 0.00612 0.0
H1258 H 0.50503 0.21243 0.97794 0.0
H1259 H 0.50733 0.24809 0.94096 0.0
C1260 C 0.5487 0.1499 0.03054 0.0
C1261 C 0.56299 0.15966 0.05326 0.0
C1262 C 0.54373 0.17448 0.0119 0.0
C1263 C 0.55246 0.2095 0.01579 0.0
C1264 C 0.56504 0.21934 0.0392 0.0
C1265 C 0.57053 0.19459 0.05765 0.0
C1266 C 0.57636 0.28242 0.97151 0.0
C1267 C 0.55235 0.2774 0.95239 0.0
C1268 C 0.57574 0.26118 0.99249 0.0
C1269 C 0.55066 0.2349 0.99499 0.0
C1270 C 0.52534 0.23159 0.97645 0.0
C1271 C 0.52643 0.25229 0.95531 0.0
H1272 H 0.18112 0.55381 0.97405 0.0
H1273 H 0.27486 0.54224 0.93139 0.0
H1274 H 0.21516 0.55188 0.01222 0.0
H1275 H 0.30863 0.54155 0.9689 0.0
H1276 H 0.3664 0.52579 0.03764 0.0
H1277 H 0.32554 0.51235 0.00457 0.0
H1278 H 0.2535 0.5866 0.035 0.0
H1279 H 0.29329 0.59754 0.06899 0.0
C1280 C 0.2089 0.55065 0.97283 0.0
C1281 C 0.2252 0.54801 0.94968 0.0
C1282 C 0.22848 0.5497 0.99468 0.0
C1283 C 0.26479 0.54644 0.99379 0.0
C1284 C 0.28077 0.54317 0.97055 0.0
C1285 C 0.26129 0.54379 0.94888 0.0
C1286 C 0.34147 0.53856 0.03746 0.0
C1287 C 0.33357 0.56376 0.05523 0.0
C1288 C 0.31817 0.53123 0.01838 0.0
C1289 C 0.28653 0.54919 0.01654 0.0
C1290 C 0.27757 0.57233 0.03558 0.0
C1291 C 0.30068 0.57918 0.05486 0.0
H1292 H 0.92413 0.37838 0.02234 0.0
H1293 H 0.95148 0.30251 0.07722 0.0
H1294 H 0.93698 0.33702 0.98945 0.0
H1295 H 0.96464 0.26052 0.04427 0.0
H1296 H 0.92844 0.18974 0.97664 0.0
H1297 H 0.92874 0.22839 0.01254 0.0
H1298 H 0.98496 0.30466 0.97028 0.0
H1299 H 0.98439 0.26657 0.93455 0.0
C1300 C 0.93356 0.3529 0.0272 0.0
C1301 C 0.93693 0.34342 0.05209 0.0
C1302 C 0.94103 0.32924 0.00848 0.0
C1303 C 0.95184 0.29546 0.01427 0.0
C1304 C 0.95619 0.28629 0.03927 0.0
C1305 C 0.94903 0.31025 0.05805 0.0
C1306 C 0.94143 0.21448 0.9752 0.0
C1307 C 0.95593 0.22524 0.95264 0.0
C1308 C 0.94171 0.23656 0.99578 0.0
C1309 C 0.95648 0.26976 0.99411 0.0
C1310 C 0.97285 0.27951 0.97201 0.0
C1311 C 0.97258 0.25756 0.95154 0.0
H1312 H 0.37569 0.95485 0.5258 0.0
H1313 H 0.29586 0.91904 0.57494 0.0
H1314 H 0.33286 0.96422 0.49335 0.0
H1315 H 0.25214 0.93 0.54315 0.0
H1316 H 0.25041 0.993 0.44059 0.0
H1317 H 0.28658 0.99478 0.47732 0.0
H1318 H 0.23263 0.90555 0.50637 0.0
H1319 H 0.19512 0.90531 0.47014 0.0
C1320 C 0.34865 0.95009 0.52977 0.0
C1321 C 0.33885 0.93627 0.55264 0.0
C1322 C 0.32396 0.95549 0.51127 0.0
C1323 C 0.28878 0.94769 0.51543 0.0
C1324 C 0.27894 0.9356 0.53898 0.0
C1325 C 0.30379 0.92968 0.5573 0.0
C1326 C 0.24588 0.97419 0.45507 0.0
C1327 C 0.22005 0.94891 0.45246 0.0
C1328 C 0.26688 0.97497 0.47608 0.0
C1329 C 0.26315 0.94995 0.49479 0.0
C1330 C 0.23618 0.92555 0.4926 0.0
C1331 C 0.21466 0.92525 0.47175 0.0
H1332 H 0.51459 0.35309 0.5465 0.0
H1333 H 0.61588 0.30952 0.55842 0.0
H1334 H 0.50241 0.30792 0.51595 0.0
H1335 H 0.60371 0.26435 0.52849 0.0
H1336 H 0.56795 0.17916 0.47668 0.0
H1337 H 0.56813 0.21341 0.51485 0.0
H1338 H 0.52838 0.30116 0.47446 0.0
H1339 H 0.52892 0.26768 0.43672 0.0
C1340 C 0.53376 0.33321 0.54319 0.0
C1341 C 0.56588 0.33456 0.55526 0.0
C1342 C 0.52691 0.30746 0.52567 0.0
C1343 C 0.55216 0.28258 0.51976 0.0
C1344 C 0.58347 0.28269 0.53292 0.0
C1345 C 0.59036 0.30853 0.55032 0.0
C1346 C 0.55888 0.20562 0.47605 0.0
C1347 C 0.54835 0.22056 0.45355 0.0
C1348 C 0.55895 0.22521 0.4979 0.0
C1349 C 0.54804 0.25995 0.49771 0.0
C1350 C 0.53625 0.27431 0.47541 0.0
C1351 C 0.5366 0.25498 0.45365 0.0
H1352 H 0.31863 0.57767 0.47571 0.0
H1353 H 0.23415 0.52566 0.43898 0.0
H1354 H 0.28512 0.57804 0.51422 0.0
H1355 H 0.20119 0.52599 0.47685 0.0
H1356 H 0.14898 0.51652 0.5484 0.0
H1357 H 0.19525 0.50471 0.51864 0.0
H1358 H 0.23304 0.60906 0.52785 0.0
H1359 H 0.18712 0.62048 0.5574 0.0
C1360 C 0.29327 0.56577 0.47591 0.0
C1361 C 0.27921 0.55145 0.45421 0.0
C1362 C 0.27405 0.56606 0.49794 0.0
C1363 C 0.24051 0.55184 0.4987 0.0
C1364 C 0.22717 0.53647 0.47719 0.0
C1365 C 0.24616 0.53639 0.4553 0.0
C1366 C 0.16795 0.53642 0.54458 0.0
C1367 C 0.16481 0.56913 0.55556 0.0
C1368 C 0.19427 0.52983 0.52746 0.0
C1369 C 0.21773 0.55605 0.5207 0.0
C1370 C 0.21586 0.58809 0.5329 0.0
C1371 C 0.18959 0.5946 0.55004 0.0
H1372 H 0.91315 0.20445 0.576 0.0
H1373 H 0.95017 0.12356 0.52822 0.0
H1374 H 0.92441 0.24739 0.54373 0.0
H1375 H 0.95977 0.16556 0.49527 0.0
H1376 H 0.99005 0.24687 0.44196 0.0
H1377 H 0.99064 0.21125 0.47899 0.0
H1378 H 0.90118 0.26638 0.50652 0.0
H1379 H 0.90219 0.30337 0.47004 0.0
C1380 C 0.92402 0.19611 0.55853 0.0
C1381 C 0.93092 0.16098 0.5544 0.0
C1382 C 0.93014 0.22051 0.53993 0.0
C1383 C 0.94275 0.21014 0.51663 0.0
C1384 C 0.95068 0.17488 0.51299 0.0
C1385 C 0.94511 0.15066 0.53177 0.0
C1386 C 0.97092 0.25176 0.45617 0.0
C1387 C 0.94597 0.27779 0.45308 0.0
C1388 C 0.97101 0.23107 0.47735 0.0
C1389 C 0.94559 0.23531 0.49574 0.0
C1390 C 0.92148 0.26243 0.49303 0.0
C1391 C 0.92189 0.28365 0.47204 0.0
H1392 H 0.85333 0.01663 0.95626 0.0
H1393 H 0.81266 0.1192 0.94505 0.0
H1394 H 0.80693 0.0047 0.9859 0.0
H1395 H 0.76655 0.10762 0.97443 0.0
H1396 H 0.68049 0.07499 0.02614 0.0
H1397 H 0.71492 0.07529 0.98802 0.0
H1398 H 0.79974 0.02762 0.02729 0.0
H1399 H 0.76593 0.02745 0.06479 0.0
C1400 C 0.8338 0.03617 0.95957 0.0
C1401 C 0.83627 0.06854 0.948 0.0
C1402 C 0.80739 0.02952 0.97661 0.0
C1403 C 0.78313 0.05532 0.98268 0.0
C1404 C 0.78437 0.08696 0.96992 0.0
C1405 C 0.81075 0.09355 0.95287 0.0
C1406 C 0.70627 0.06403 0.02645 0.0
C1407 C 0.7203 0.05096 0.04856 0.0
C1408 C 0.72602 0.06429 0.00465 0.0
C1409 C 0.76004 0.05125 0.00453 0.0
C1410 C 0.77343 0.03715 0.02647 0.0
C1411 C 0.75393 0.03715 0.04813 0.0
H1412 H 0.41866 0.79471 0.92566 0.0
H1413 H 0.45594 0.87449 0.97429 0.0
H1414 H 0.42913 0.75116 0.95764 0.0
H1415 H 0.46489 0.83184 0.00692 0.0
H1416 H 0.49275 0.74948 0.05998 0.0
H1417 H 0.49489 0.7852 0.02303 0.0
H1418 H 0.40451 0.73251 0.99463 0.0
H1419 H 0.40386 0.69542 0.03108 0.0
C1420 C 0.4295 0.80267 0.94323 0.0
C1421 C 0.43664 0.83766 0.9477 0.0
C1422 C 0.43516 0.77791 0.96166 0.0
C1423 C 0.44755 0.78781 0.98511 0.0
C1424 C 0.45591 0.8229 0.98907 0.0
C1425 C 0.45076 0.84749 0.97047 0.0
C1426 C 0.47376 0.74512 0.04559 0.0
C1427 C 0.44803 0.71978 0.04845 0.0
C1428 C 0.47475 0.76586 0.02446 0.0
C1429 C 0.44952 0.76236 0.00588 0.0
C1430 C 0.42467 0.73586 0.00831 0.0
C1431 C 0.42414 0.71459 0.02928 0.0
H1432 H 0.80324 0.40643 0.03078 0.0
H1433 H 0.74686 0.49348 0.06018 0.0
H1434 H 0.7663 0.40641 0.99439 0.0
H1435 H 0.711 0.49493 0.02323 0.0
H1436 H 0.62305 0.45364 0.97397 0.0
H1437 H 0.6653 0.46389 0.00669 0.0
H1438 H 0.74719 0.43066 0.95753 0.0
H1439 H 0.70408 0.41877 0.9255 0.0
C1440 C 0.78366 0.42627 0.02908 0.0
C1441 C 0.77789 0.44983 0.04837 0.0
C1442 C 0.76239 0.42638 0.00813 0.0
C1443 C 0.73521 0.45048 0.0058 0.0
C1444 C 0.73096 0.47538 0.02454 0.0
C1445 C 0.75177 0.4748 0.04567 0.0
C1446 C 0.65021 0.44926 0.97021 0.0
C1447 C 0.66054 0.43542 0.94746 0.0
C1448 C 0.67456 0.45519 0.98886 0.0
C1449 C 0.70991 0.44791 0.98497 0.0
C1450 C 0.72025 0.43585 0.96151 0.0
C1451 C 0.69575 0.42938 0.94305 0.0
H1452 H 0.0242 0.72961 0.0681 0.0
H1453 H 0.07518 0.81075 0.02698 0.0
H1454 H 0.02504 0.69279 0.032 0.0
H1455 H 0.07705 0.77286 0.99059 0.0
H1456 H 0.05398 0.69842 0.92501 0.0
H1457 H 0.04211 0.73993 0.95854 0.0
H1458 H 0.07315 0.66298 0.01212 0.0
H1459 H 0.08436 0.62205 0.97874 0.0
C1460 C 0.03505 0.73995 0.05124 0.0
C1461 C 0.04954 0.77328 0.05053 0.0
C1462 C 0.03584 0.71857 0.03053 0.0
C1463 C 0.05151 0.7297 0.00853 0.0
C1464 C 0.06462 0.76363 0.00729 0.0
C1465 C 0.06368 0.78525 0.02814 0.0
C1466 C 0.05758 0.69052 0.94405 0.0
C1467 C 0.07005 0.6573 0.94951 0.0
C1468 C 0.05118 0.71422 0.96315 0.0
C1469 C 0.0567 0.70474 0.98797 0.0
C1470 C 0.06821 0.67102 0.99325 0.0
C1471 C 0.07479 0.64761 0.97423 0.0
loop_
_geom_bond_atom_site_label_1
_geom_bond_atom_site_label_2
_geom_bond_distance
_geom_bond_site_symmetry_2
_ccdc_geom_bond_type
Zn0 O1 2.055 . S
Zn0 O8 2.046 . S
Zn0 N16 2.036 . S
Zn0 O28 2.053 . S
Zn0 O30 2.066 . S
O1 Zn0 2.055 . S
O1 C4 1.259 . S
C2 O30 1.256 . S
C2 O31 1.244 . S
Zn3 O5 2.046 . S
Zn3 O7 2.055 . S
Zn3 N9 2.036 . S
Zn3 O27 2.066 . S
Zn3 O31 2.053 . S
C4 O1 1.259 . S
C4 O5 1.254 . S
O5 Zn3 2.046 . S
O5 C4 1.254 . S
C6 O27 1.256 . S
C6 O28 1.244 . S
O7 Zn3 2.055 . S
O7 C29 1.259 . S
O8 Zn0 2.046 . S
O8 C29 1.254 . S
N9 Zn3 2.036 . S
N9 C10 1.298 . S
N9 N12 1.398 . S
C10 N9 1.298 . S
C10 N13 1.367 . S
C10 C23 1.481 . S
C11 N12 1.299 . S
C11 N13 1.379 . S
N12 N9 1.398 . S
N12 C11 1.299 . S
N13 C10 1.367 . S
N13 C11 1.379 . S
C14 N16 1.298 . S
C14 N18 1.367 . S
C14 C22 1.481 . S
C15 N17 1.299 . S
C15 N18 1.379 . S
N16 Zn0 2.036 . S
N16 C14 1.298 . S
N16 N17 1.398 . S
N17 C15 1.299 . S
N17 N16 1.398 . S
N18 C14 1.367 . S
N18 C15 1.379 . S
H19 C22 0.980 . S
H20 C22 0.981 . S
H21 C22 0.981 . S
C22 C14 1.481 . S
C22 H19 0.980 . S
C22 H20 0.981 . S
C22 H21 0.981 . S
C23 C10 1.481 . S
C23 H24 0.980 . S
C23 H25 0.981 . S
C23 H26 0.981 . S
H24 C23 0.980 . S
H25 C23 0.981 . S
H26 C23 0.981 . S
O27 Zn3 2.066 . S
O27 C6 1.256 . S
O28 Zn0 2.053 . S
O28 C6 1.244 . S
C29 O7 1.259 . S
C29 O8 1.254 . S
O30 Zn0 2.066 . S
O30 C2 1.256 . S
O31 C2 1.244 . S
O31 Zn3 2.053 . S
Zn32 O33 2.055 . S
Zn32 O40 2.046 . S
Zn32 N48 2.036 . S
Zn32 O60 2.053 . S
Zn32 O62 2.066 . S
O33 Zn32 2.055 . S
O33 C36 1.259 . S
C34 O62 1.256 . S
C34 O63 1.244 . S
Zn35 O37 2.046 . S
Zn35 O39 2.055 . S
Zn35 N41 2.036 . S
Zn35 O59 2.066 . S
Zn35 O63 2.053 . S
C36 O33 1.259 . S
C36 O37 1.254 . S
O37 Zn35 2.046 . S
O37 C36 1.254 . S
C38 O59 1.256 . S
C38 O60 1.244 . S
O39 Zn35 2.055 . S
O39 C61 1.259 . S
O40 Zn32 2.046 . S
O40 C61 1.254 . S
N41 Zn35 2.036 . S
N41 C42 1.298 . S
N41 N44 1.398 . S
C42 N41 1.298 . S
C42 N45 1.367 . S
C42 C55 1.481 . S
C43 N44 1.299 . S
C43 N45 1.379 . S
N44 N41 1.398 . S
N44 C43 1.299 . S
N45 C42 1.367 . S
N45 C43 1.379 . S
C46 N48 1.298 . S
C46 N50 1.367 . S
C46 C54 1.481 . S
C47 N49 1.299 . S
C47 N50 1.379 . S
N48 Zn32 2.036 . S
N48 C46 1.298 . S
N48 N49 1.398 . S
N49 C47 1.299 . S
N49 N48 1.398 . S
N50 C46 1.367 . S
N50 C47 1.379 . S
H51 C54 0.980 . S
H52 C54 0.981 . S
H53 C54 0.981 . S
C54 C46 1.481 . S
C54 H51 0.980 . S
C54 H52 0.981 . S
C54 H53 0.981 . S
C55 C42 1.481 . S
C55 H56 0.980 . S
C55 H57 0.981 . S
C55 H58 0.981 . S
H56 C55 0.980 . S
H57 C55 0.981 . S
H58 C55 0.981 . S
O59 Zn35 2.066 . S
O59 C38 1.256 . S
O60 Zn32 2.053 . S
O60 C38 1.244 . S
C61 O39 1.259 . S
C61 O40 1.254 . S
O62 Zn32 2.066 . S
O62 C34 1.256 . S
O63 C34 1.244 . S
O63 Zn35 2.053 . S
Zn64 O65 2.055 . S
Zn64 O72 2.046 . S
Zn64 N80 2.036 . S
Zn64 O92 2.053 . S
Zn64 O94 2.066 . S
O65 Zn64 2.055 . S
O65 C68 1.259 . S
C66 O94 1.256 . S
C66 O95 1.244 . S
Zn67 O69 2.046 . S
Zn67 O71 2.055 . S
Zn67 N73 2.036 . S
Zn67 O91 2.066 . S
Zn67 O95 2.053 . S
C68 O65 1.259 . S
C68 O69 1.254 . S
O69 Zn67 2.046 . S
O69 C68 1.254 . S
C70 O91 1.256 . S
C70 O92 1.244 . S
O71 Zn67 2.055 . S
O71 C93 1.259 . S
O72 Zn64 2.046 . S
O72 C93 1.254 . S
N73 Zn67 2.036 . S
N73 C74 1.298 . S
N73 N76 1.398 . S
C74 N73 1.298 . S
C74 N77 1.367 . S
C74 C87 1.481 . S
C75 N76 1.299 . S
C75 N77 1.379 . S
N76 N73 1.398 . S
N76 C75 1.299 . S
N77 C74 1.367 . S
N77 C75 1.379 . S
C78 N80 1.298 . S
C78 N82 1.367 1_655 S
C78 C86 1.482 . S
C79 N81 1.299 . S
C79 N82 1.379 1_655 S
N80 Zn64 2.036 . S
N80 C78 1.298 . S
N80 N81 1.398 . S
N81 C79 1.299 . S
N81 N80 1.398 . S
N82 C78 1.367 1_455 S
N82 C79 1.379 1_455 S
H83 C86 0.984 . S
H84 C86 0.980 1_455 S
H85 C86 0.977 1_455 S
C86 C78 1.482 . S
C86 H83 0.984 . S
C86 H84 0.980 1_655 S
C86 H85 0.977 1_655 S
C87 C74 1.481 . S
C87 H88 0.980 . S
C87 H89 0.981 . S
C87 H90 0.981 . S
H88 C87 0.980 . S
H89 C87 0.981 . S
H90 C87 0.981 . S
O91 Zn67 2.066 . S
O91 C70 1.256 . S
O92 Zn64 2.053 . S
O92 C70 1.244 . S
C93 O71 1.259 . S
C93 O72 1.254 . S
O94 Zn64 2.066 . S
O94 C66 1.256 . S
O95 C66 1.244 . S
O95 Zn67 2.053 . S
Zn96 O97 2.055 . S
Zn96 O104 2.046 . S
Zn96 N112 2.036 . S
Zn96 O124 2.053 . S
Zn96 O126 2.066 . S
O97 Zn96 2.055 . S
O97 C100 1.259 . S
C98 O126 1.256 . S
C98 O127 1.244 . S
Zn99 O101 2.046 . S
Zn99 O103 2.055 . S
Zn99 N105 2.036 . S
Zn99 O123 2.066 . S
Zn99 O127 2.053 . S
C100 O97 1.259 . S
C100 O101 1.254 . S
O101 Zn99 2.046 . S
O101 C100 1.254 . S
C102 O123 1.256 . S
C102 O124 1.244 . S
O103 Zn99 2.055 . S
O103 C125 1.259 . S
O104 Zn96 2.046 . S
O104 C125 1.254 . S
N105 Zn99 2.036 . S
N105 C106 1.298 . S
N105 N108 1.398 . S
C106 N105 1.298 . S
C106 N109 1.367 1_565 S
C106 C119 1.482 . S
C107 N108 1.299 . S
C107 N109 1.379 1_565 S
N108 N105 1.398 . S
N108 C107 1.299 . S
N109 C106 1.367 1_545 S
N109 C107 1.379 1_545 S
C110 N112 1.298 . S
C110 N114 1.367 . S
C110 C118 1.481 . S
C111 N113 1.299 . S
C111 N114 1.379 . S
N112 Zn96 2.036 . S
N112 C110 1.298 . S
N112 N113 1.398 . S
N113 C111 1.299 . S
N113 N112 1.398 . S
N114 C110 1.367 . S
N114 C111 1.379 . S
H115 C118 0.980 . S
H116 C118 0.981 . S
H117 C118 0.981 . S
C118 C110 1.481 . S
C118 H115 0.980 . S
C118 H116 0.981 . S
C118 H117 0.981 . S
C119 C106 1.482 . S
C119 H120 0.984 . S
C119 H121 0.980 1_565 S
C119 H122 0.977 1_565 S
H120 C119 0.984 . S
H121 C119 0.980 1_545 S
H122 C119 0.977 1_545 S
O123 Zn99 2.066 . S
O123 C102 1.256 . S
O124 Zn96 2.053 . S
O124 C102 1.244 . S
C125 O103 1.259 . S
C125 O104 1.254 . S
O126 Zn96 2.066 . S
O126 C98 1.256 . S
O127 C98 1.244 . S
O127 Zn99 2.053 . S
Zn128 O129 2.055 . S
Zn128 O136 2.046 . S
Zn128 N144 2.036 . S
Zn128 O156 2.053 . S
Zn128 O158 2.066 . S
O129 Zn128 2.055 . S
O129 C132 1.259 . S
C130 O158 1.256 . S
C130 O159 1.244 . S
Zn131 O133 2.046 . S
Zn131 O135 2.055 . S
Zn131 N137 2.036 . S
Zn131 O155 2.066 . S
Zn131 O159 2.053 . S
C132 O129 1.259 . S
C132 O133 1.254 . S
O133 Zn131 2.046 . S
O133 C132 1.254 . S
C134 O155 1.256 . S
C134 O156 1.244 . S
O135 Zn131 2.055 . S
O135 C157 1.259 . S
O136 Zn128 2.046 . S
O136 C157 1.254 . S
N137 Zn131 2.036 . S
N137 C138 1.298 . S
N137 N140 1.398 . S
C138 N137 1.298 . S
C138 N141 1.367 . S
C138 C151 1.481 . S
C139 N140 1.299 . S
C139 N141 1.379 . S
N140 N137 1.398 . S
N140 C139 1.299 . S
N141 C138 1.367 . S
N141 C139 1.379 . S
C142 N144 1.298 . S
C142 N146 1.367 1_455 S
C142 C150 1.482 . S
C143 N145 1.299 . S
C143 N146 1.379 1_455 S
N144 Zn128 2.036 . S
N144 C142 1.298 . S
N144 N145 1.398 . S
N145 C143 1.299 . S
N145 N144 1.398 . S
N146 C142 1.367 1_655 S
N146 C143 1.379 1_655 S
H147 C150 0.984 . S
H148 C150 0.980 1_655 S
H149 C150 0.977 1_655 S
C150 C142 1.482 . S
C150 H147 0.984 . S
C150 H148 0.980 1_455 S
C150 H149 0.977 1_455 S
C151 C138 1.481 . S
C151 H152 0.980 . S
C151 H153 0.981 . S
C151 H154 0.981 . S
H152 C151 0.980 . S
H153 C151 0.981 . S
H154 C151 0.981 . S
O155 Zn131 2.066 . S
O155 C134 1.256 . S
O156 Zn128 2.053 . S
O156 C134 1.244 . S
C157 O135 1.259 . S
C157 O136 1.254 . S
O158 Zn128 2.066 . S
O158 C130 1.256 . S
O159 C130 1.244 . S
O159 Zn131 2.053 . S
Zn160 O161 2.055 . S
Zn160 O168 2.046 . S
Zn160 N176 2.036 . S
Zn160 O188 2.053 . S
Zn160 O190 2.066 . S
O161 Zn160 2.055 . S
O161 C164 1.259 . S
C162 O190 1.256 . S
C162 O191 1.244 . S
Zn163 O165 2.046 . S
Zn163 O167 2.055 . S
Zn163 N169 2.036 . S
Zn163 O187 2.066 . S
Zn163 O191 2.053 . S
C164 O161 1.259 . S
C164 O165 1.254 . S
O165 Zn163 2.046 . S
O165 C164 1.254 . S
C166 O187 1.256 . S
C166 O188 1.244 . S
O167 Zn163 2.055 . S
O167 C189 1.259 . S
O168 Zn160 2.046 . S
O168 C189 1.254 . S
N169 Zn163 2.036 . S
N169 C170 1.298 . S
N169 N172 1.398 . S
C170 N169 1.298 . S
C170 N173 1.367 . S
C170 C183 1.481 . S
C171 N172 1.299 . S
C171 N173 1.379 . S
N172 N169 1.398 . S
N172 C171 1.299 . S
N173 C170 1.367 . S
N173 C171 1.379 . S
C174 N176 1.298 . S
C174 N178 1.367 1_545 S
C174 C182 1.482 . S
C175 N177 1.299 . S
C175 N178 1.379 1_545 S
N176 Zn160 2.036 . S
N176 C174 1.298 . S
N176 N177 1.398 . S
N177 C175 1.299 . S
N177 N176 1.398 . S
N178 C174 1.367 1_565 S
N178 C175 1.379 1_565 S
H179 C182 0.984 . S
H180 C182 0.980 1_565 S
H181 C182 0.977 1_565 S
C182 C174 1.482 . S
C182 H179 0.984 . S
C182 H180 0.980 1_545 S
C182 H181 0.977 1_545 S
C183 C170 1.481 . S
C183 H184 0.980 . S
C183 H185 0.981 . S
C183 H186 0.981 . S
H184 C183 0.980 . S
H185 C183 0.981 . S
H186 C183 0.981 . S
O187 Zn163 2.066 . S
O187 C166 1.256 . S
O188 Zn160 2.053 . S
O188 C166 1.244 . S
C189 O167 1.259 . S
C189 O168 1.254 . S
O190 Zn160 2.066 . S
O190 C162 1.256 . S
O191 C162 1.244 . S
O191 Zn163 2.053 . S
Zn192 O193 2.055 . S
Zn192 O200 2.046 . S
Zn192 N208 2.036 . S
Zn192 O220 2.053 . S
Zn192 O222 2.066 . S
O193 Zn192 2.055 . S
O193 C196 1.259 . S
C194 O222 1.256 . S
C194 O223 1.244 . S
Zn195 O197 2.046 . S
Zn195 O199 2.055 . S
Zn195 N201 2.036 . S
Zn195 O219 2.066 . S
Zn195 O223 2.053 . S
C196 O193 1.259 . S
C196 O197 1.254 . S
O197 Zn195 2.046 . S
O197 C196 1.254 . S
C198 O219 1.256 . S
C198 O220 1.244 . S
O199 Zn195 2.055 . S
O199 C221 1.259 . S
O200 Zn192 2.046 . S
O200 C221 1.254 . S
N201 Zn195 2.036 . S
N201 C202 1.298 . S
N201 N204 1.398 . S
C202 N201 1.298 . S
C202 N205 1.367 . S
C202 C215 1.481 . S
C203 N204 1.299 . S
C203 N205 1.379 . S
N204 N201 1.398 . S
N204 C203 1.299 . S
N205 C202 1.367 . S
N205 C203 1.379 . S
C206 N208 1.298 . S
C206 N210 1.367 . S
C206 C214 1.481 . S
C207 N209 1.299 . S
C207 N210 1.379 . S
N208 Zn192 2.036 . S
N208 C206 1.298 . S
N208 N209 1.398 . S
N209 C207 1.299 . S
N209 N208 1.398 . S
N210 C206 1.367 . S
N210 C207 1.379 . S
H211 C214 0.980 . S
H212 C214 0.981 . S
H213 C214 0.981 . S
C214 C206 1.481 . S
C214 H211 0.980 . S
C214 H212 0.981 . S
C214 H213 0.981 . S
C215 C202 1.481 . S
C215 H216 0.980 . S
C215 H217 0.981 . S
C215 H218 0.981 . S
H216 C215 0.980 . S
H217 C215 0.981 . S
H218 C215 0.981 . S
O219 Zn195 2.066 . S
O219 C198 1.256 . S
O220 Zn192 2.053 . S
O220 C198 1.244 . S
C221 O199 1.259 . S
C221 O200 1.254 . S
O222 Zn192 2.066 . S
O222 C194 1.256 . S
O223 C194 1.244 . S
O223 Zn195 2.053 . S
Zn224 O225 2.055 . S
Zn224 O232 2.046 . S
Zn224 N240 2.036 . S
Zn224 O252 2.053 . S
Zn224 O254 2.066 . S
O225 Zn224 2.055 . S
O225 C228 1.259 . S
C226 O254 1.256 . S
C226 O255 1.244 . S
Zn227 O229 2.046 . S
Zn227 O231 2.055 . S
Zn227 N233 2.036 . S
Zn227 O251 2.066 . S
Zn227 O255 2.053 . S
C228 O225 1.259 . S
C228 O229 1.254 . S
O229 Zn227 2.046 . S
O229 C228 1.254 . S
C230 O251 1.256 . S
C230 O252 1.244 . S
O231 Zn227 2.055 . S
O231 C253 1.259 . S
O232 Zn224 2.046 . S
O232 C253 1.254 . S
N233 Zn227 2.036 . S
N233 C234 1.298 . S
N233 N236 1.398 . S
C234 N233 1.298 . S
C234 N237 1.367 . S
C234 C247 1.481 . S
C235 N236 1.299 . S
C235 N237 1.379 . S
N236 N233 1.398 . S
N236 C235 1.299 . S
N237 C234 1.367 . S
N237 C235 1.379 . S
C238 N240 1.298 . S
C238 N242 1.367 . S
C238 C246 1.481 . S
C239 N241 1.299 . S
C239 N242 1.379 . S
N240 Zn224 2.036 . S
N240 C238 1.298 . S
N240 N241 1.398 . S
N241 C239 1.299 . S
N241 N240 1.398 . S
N242 C238 1.367 . S
N242 C239 1.379 . S
H243 C246 0.980 . S
H244 C246 0.981 . S
H245 C246 0.981 . S
C246 C238 1.481 . S
C246 H243 0.980 . S
C246 H244 0.981 . S
C246 H245 0.981 . S
C247 C234 1.481 . S
C247 H248 0.980 . S
C247 H249 0.981 . S
C247 H250 0.981 . S
H248 C247 0.980 . S
H249 C247 0.981 . S
H250 C247 0.981 . S
O251 Zn227 2.066 . S
O251 C230 1.256 . S
O252 Zn224 2.053 . S
O252 C230 1.244 . S
C253 O231 1.259 . S
C253 O232 1.254 . S
O254 Zn224 2.066 . S
O254 C226 1.256 . S
O255 C226 1.244 . S
O255 Zn227 2.053 . S
Zn256 O257 2.055 . S
Zn256 O264 2.046 . S
Zn256 N272 2.036 . S
Zn256 O284 2.053 . S
Zn256 O286 2.066 . S
O257 Zn256 2.055 . S
O257 C260 1.259 . S
C258 O286 1.256 . S
C258 O287 1.244 . S
Zn259 O261 2.046 . S
Zn259 O263 2.055 . S
Zn259 N265 2.036 . S
Zn259 O283 2.066 . S
Zn259 O287 2.053 . S
C260 O257 1.259 . S
C260 O261 1.254 . S
O261 Zn259 2.046 . S
O261 C260 1.254 . S
C262 O283 1.256 . S
C262 O284 1.244 . S
O263 Zn259 2.055 . S
O263 C285 1.259 . S
O264 Zn256 2.046 . S
O264 C285 1.254 . S
N265 Zn259 2.036 . S
N265 C266 1.298 . S
N265 N268 1.398 . S
C266 N265 1.298 . S
C266 N269 1.367 . S
C266 C279 1.481 . S
C267 N268 1.299 . S
C267 N269 1.379 . S
N268 N265 1.398 . S
N268 C267 1.299 . S
N269 C266 1.367 . S
N269 C267 1.379 . S
C270 N272 1.298 . S
C270 N274 1.367 . S
C270 C278 1.481 . S
C271 N273 1.299 . S
C271 N274 1.379 . S
N272 Zn256 2.036 . S
N272 C270 1.298 . S
N272 N273 1.398 . S
N273 C271 1.299 . S
N273 N272 1.398 . S
N274 C270 1.367 . S
N274 C271 1.379 . S
H275 C278 0.980 . S
H276 C278 0.981 . S
H277 C278 0.981 . S
C278 C270 1.481 . S
C278 H275 0.980 . S
C278 H276 0.981 . S
C278 H277 0.981 . S
C279 C266 1.481 . S
C279 H280 0.980 . S
C279 H281 0.981 . S
C279 H282 0.981 . S
H280 C279 0.980 . S
H281 C279 0.981 . S
H282 C279 0.981 . S
O283 Zn259 2.066 . S
O283 C262 1.256 . S
O284 Zn256 2.053 . S
O284 C262 1.244 . S
C285 O263 1.259 . S
C285 O264 1.254 . S
O286 Zn256 2.066 . S
O286 C258 1.256 . S
O287 C258 1.244 . S
O287 Zn259 2.053 . S
Zn288 O289 2.055 . S
Zn288 O296 2.046 . S
Zn288 N304 2.036 . S
Zn288 O316 2.053 . S
Zn288 O318 2.066 . S
O289 Zn288 2.055 . S
O289 C292 1.259 . S
C290 O318 1.256 . S
C290 O319 1.244 . S
Zn291 O293 2.046 . S
Zn291 O295 2.055 . S
Zn291 N297 2.036 . S
Zn291 O315 2.066 . S
Zn291 O319 2.053 . S
C292 O289 1.259 . S
C292 O293 1.254 . S
O293 Zn291 2.046 . S
O293 C292 1.254 . S
C294 O315 1.256 . S
C294 O316 1.244 . S
O295 Zn291 2.055 . S
O295 C317 1.259 . S
O296 Zn288 2.046 . S
O296 C317 1.254 . S
N297 Zn291 2.036 . S
N297 C298 1.298 . S
N297 N300 1.398 . S
C298 N297 1.298 . S
C298 N301 1.367 . S
C298 C311 1.481 . S
C299 N300 1.299 . S
C299 N301 1.379 . S
N300 N297 1.398 . S
N300 C299 1.299 . S
N301 C298 1.367 . S
N301 C299 1.379 . S
C302 N304 1.298 . S
C302 N306 1.367 . S
C302 C310 1.481 . S
C303 N305 1.299 . S
C303 N306 1.379 . S
N304 Zn288 2.036 . S
N304 C302 1.298 . S
N304 N305 1.398 . S
N305 C303 1.299 . S
N305 N304 1.398 . S
N306 C302 1.367 . S
N306 C303 1.379 . S
H307 C310 0.980 . S
H308 C310 0.981 . S
H309 C310 0.981 . S
C310 C302 1.481 . S
C310 H307 0.980 . S
C310 H308 0.981 . S
C310 H309 0.981 . S
C311 C298 1.481 . S
C311 H312 0.980 . S
C311 H313 0.981 . S
C311 H314 0.981 . S
H312 C311 0.980 . S
H313 C311 0.981 . S
H314 C311 0.981 . S
O315 Zn291 2.066 . S
O315 C294 1.256 . S
O316 Zn288 2.053 . S
O316 C294 1.244 . S
C317 O295 1.259 . S
C317 O296 1.254 . S
O318 Zn288 2.066 . S
O318 C290 1.256 . S
O319 C290 1.244 . S
O319 Zn291 2.053 . S
Zn320 O321 2.055 . S
Zn320 O328 2.046 . S
Zn320 N336 2.036 . S
Zn320 O348 2.053 . S
Zn320 O350 2.066 . S
O321 Zn320 2.055 . S
O321 C324 1.259 . S
C322 O350 1.256 . S
C322 O351 1.244 . S
Zn323 O325 2.046 . S
Zn323 O327 2.055 . S
Zn323 N329 2.036 . S
Zn323 O347 2.066 . S
Zn323 O351 2.053 . S
C324 O321 1.259 . S
C324 O325 1.254 . S
O325 Zn323 2.046 . S
O325 C324 1.254 . S
C326 O347 1.256 . S
C326 O348 1.244 . S
O327 Zn323 2.055 . S
O327 C349 1.259 . S
O328 Zn320 2.046 . S
O328 C349 1.254 . S
N329 Zn323 2.036 . S
N329 C330 1.298 . S
N329 N332 1.398 . S
C330 N329 1.298 . S
C330 N333 1.367 1_455 S
C330 C343 1.482 . S
C331 N332 1.299 . S
C331 N333 1.379 1_455 S
N332 N329 1.398 . S
N332 C331 1.299 . S
N333 C330 1.367 1_655 S
N333 C331 1.379 1_655 S
C334 N336 1.298 . S
C334 N338 1.367 . S
C334 C342 1.481 . S
C335 N337 1.299 . S
C335 N338 1.379 . S
N336 Zn320 2.036 . S
N336 C334 1.298 . S
N336 N337 1.398 . S
N337 C335 1.299 . S
N337 N336 1.398 . S
N338 C334 1.367 . S
N338 C335 1.379 . S
H339 C342 0.980 . S
H340 C342 0.981 . S
H341 C342 0.981 . S
C342 C334 1.481 . S
C342 H339 0.980 . S
C342 H340 0.981 . S
C342 H341 0.981 . S
C343 C330 1.482 . S
C343 H344 0.984 . S
C343 H345 0.980 1_455 S
C343 H346 0.977 1_455 S
H344 C343 0.984 . S
H345 C343 0.980 1_655 S
H346 C343 0.977 1_655 S
O347 Zn323 2.066 . S
O347 C326 1.256 . S
O348 Zn320 2.053 . S
O348 C326 1.244 . S
C349 O327 1.259 . S
C349 O328 1.254 . S
O350 Zn320 2.066 . S
O350 C322 1.256 . S
O351 C322 1.244 . S
O351 Zn323 2.053 . S
Zn352 O353 2.055 . S
Zn352 O360 2.046 . S
Zn352 N368 2.036 . S
Zn352 O380 2.053 . S
Zn352 O382 2.066 . S
O353 Zn352 2.055 . S
O353 C356 1.259 . S
C354 O382 1.256 . S
C354 O383 1.244 . S
Zn355 O357 2.046 . S
Zn355 O359 2.055 . S
Zn355 N361 2.036 . S
Zn355 O379 2.066 . S
Zn355 O383 2.053 . S
C356 O353 1.259 . S
C356 O357 1.254 . S
O357 Zn355 2.046 . S
O357 C356 1.254 . S
C358 O379 1.256 . S
C358 O380 1.244 . S
O359 Zn355 2.055 . S
O359 C381 1.259 . S
O360 Zn352 2.046 . S
O360 C381 1.254 . S
N361 Zn355 2.036 . S
N361 C362 1.298 . S
N361 N364 1.398 . S
C362 N361 1.298 . S
C362 N365 1.367 1_545 S
C362 C375 1.482 . S
C363 N364 1.299 . S
C363 N365 1.379 1_545 S
N364 N361 1.398 . S
N364 C363 1.299 . S
N365 C362 1.367 1_565 S
N365 C363 1.379 1_565 S
C366 N368 1.298 . S
C366 N370 1.367 . S
C366 C374 1.481 . S
C367 N369 1.299 . S
C367 N370 1.379 . S
N368 Zn352 2.036 . S
N368 C366 1.298 . S
N368 N369 1.398 . S
N369 C367 1.299 . S
N369 N368 1.398 . S
N370 C366 1.367 . S
N370 C367 1.379 . S
H371 C374 0.980 . S
H372 C374 0.981 . S
H373 C374 0.981 . S
C374 C366 1.481 . S
C374 H371 0.980 . S
C374 H372 0.981 . S
C374 H373 0.981 . S
C375 C362 1.482 . S
C375 H376 0.984 . S
C375 H377 0.980 1_545 S
C375 H378 0.977 1_545 S
H376 C375 0.984 . S
H377 C375 0.980 1_565 S
H378 C375 0.977 1_565 S
O379 Zn355 2.066 . S
O379 C358 1.256 . S
O380 Zn352 2.053 . S
O380 C358 1.244 . S
C381 O359 1.259 . S
C381 O360 1.254 . S
O382 Zn352 2.066 . S
O382 C354 1.256 . S
O383 C354 1.244 . S
O383 Zn355 2.053 . S
Zn384 O385 2.055 . S
Zn384 O392 2.046 . S
Zn384 N400 2.036 . S
Zn384 O412 2.053 . S
Zn384 O414 2.066 . S
O385 Zn384 2.055 . S
O385 C388 1.259 . S
C386 O414 1.256 . S
C386 O415 1.244 . S
Zn387 O389 2.046 . S
Zn387 O391 2.055 . S
Zn387 N393 2.036 . S
Zn387 O411 2.066 . S
Zn387 O415 2.053 . S
C388 O385 1.259 . S
C388 O389 1.254 . S
O389 Zn387 2.046 . S
O389 C388 1.254 . S
C390 O411 1.256 . S
C390 O412 1.244 . S
O391 Zn387 2.055 . S
O391 C413 1.259 . S
O392 Zn384 2.046 . S
O392 C413 1.254 . S
N393 Zn387 2.036 . S
N393 C394 1.298 . S
N393 N396 1.398 . S
C394 N393 1.298 . S
C394 N397 1.367 . S
C394 C407 1.481 . S
C395 N396 1.299 . S
C395 N397 1.379 . S
N396 N393 1.398 . S
N396 C395 1.299 . S
N397 C394 1.367 . S
N397 C395 1.379 . S
C398 N400 1.298 . S
C398 N402 1.367 1_655 S
C398 C406 1.482 . S
C399 N401 1.299 . S
C399 N402 1.379 1_655 S
N400 Zn384 2.036 . S
N400 C398 1.298 . S
N400 N401 1.398 . S
N401 C399 1.299 . S
N401 N400 1.398 . S
N402 C398 1.367 1_455 S
N402 C399 1.379 1_455 S
H403 C406 0.984 . S
H404 C406 0.980 1_455 S
H405 C406 0.977 1_455 S
C406 C398 1.482 . S
C406 H403 0.984 . S
C406 H404 0.980 1_655 S
C406 H405 0.977 1_655 S
C407 C394 1.481 . S
C407 H408 0.980 . S
C407 H409 0.981 . S
C407 H410 0.981 . S
H408 C407 0.980 . S
H409 C407 0.981 . S
H410 C407 0.981 . S
O411 Zn387 2.066 . S
O411 C390 1.256 . S
O412 Zn384 2.053 . S
O412 C390 1.244 . S
C413 O391 1.259 . S
C413 O392 1.254 . S
O414 Zn384 2.066 . S
O414 C386 1.256 . S
O415 C386 1.244 . S
O415 Zn387 2.053 . S
Zn416 O417 2.055 . S
Zn416 O424 2.046 . S
Zn416 N432 2.036 . S
Zn416 O444 2.053 . S
Zn416 O446 2.066 . S
O417 Zn416 2.055 . S
O417 C420 1.259 . S
C418 O446 1.256 . S
C418 O447 1.244 . S
Zn419 O421 2.046 . S
Zn419 O423 2.055 . S
Zn419 N425 2.036 . S
Zn419 O443 2.066 . S
Zn419 O447 2.053 . S
C420 O417 1.259 . S
C420 O421 1.254 . S
O421 Zn419 2.046 . S
O421 C420 1.254 . S
C422 O443 1.256 . S
C422 O444 1.244 . S
O423 Zn419 2.055 . S
O423 C445 1.259 . S
O424 Zn416 2.046 . S
O424 C445 1.254 . S
N425 Zn419 2.036 . S
N425 C426 1.298 . S
N425 N428 1.398 . S
C426 N425 1.298 . S
C426 N429 1.367 1_565 S
C426 C439 1.482 . S
C427 N428 1.299 . S
C427 N429 1.379 1_565 S
N428 N425 1.398 . S
N428 C427 1.299 . S
N429 C426 1.367 1_545 S
N429 C427 1.379 1_545 S
C430 N432 1.298 . S
C430 N434 1.367 . S
C430 C438 1.481 . S
C431 N433 1.299 . S
C431 N434 1.379 . S
N432 Zn416 2.036 . S
N432 C430 1.298 . S
N432 N433 1.398 . S
N433 C431 1.299 . S
N433 N432 1.398 . S
N434 C430 1.367 . S
N434 C431 1.379 . S
H435 C438 0.980 . S
H436 C438 0.981 . S
H437 C438 0.981 . S
C438 C430 1.481 . S
C438 H435 0.980 . S
C438 H436 0.981 . S
C438 H437 0.981 . S
C439 C426 1.482 . S
C439 H440 0.984 . S
C439 H441 0.980 1_565 S
C439 H442 0.977 1_565 S
H440 C439 0.984 . S
H441 C439 0.980 1_545 S
H442 C439 0.977 1_545 S
O443 Zn419 2.066 . S
O443 C422 1.256 . S
O444 Zn416 2.053 . S
O444 C422 1.244 . S
C445 O423 1.259 . S
C445 O424 1.254 . S
O446 Zn416 2.066 . S
O446 C418 1.256 . S
O447 C418 1.244 . S
O447 Zn419 2.053 . S
Zn448 O449 2.055 . S
Zn448 O456 2.046 . S
Zn448 N464 2.036 . S
Zn448 O476 2.053 . S
Zn448 O478 2.066 . S
O449 Zn448 2.055 . S
O449 C452 1.259 . S
C450 O478 1.256 . S
C450 O479 1.244 . S
Zn451 O453 2.046 . S
Zn451 O455 2.055 . S
Zn451 N457 2.036 . S
Zn451 O475 2.066 . S
Zn451 O479 2.053 . S
C452 O449 1.259 . S
C452 O453 1.254 . S
O453 Zn451 2.046 . S
O453 C452 1.254 . S
C454 O475 1.256 . S
C454 O476 1.244 . S
O455 Zn451 2.055 . S
O455 C477 1.259 . S
O456 Zn448 2.046 . S
O456 C477 1.254 . S
N457 Zn451 2.036 . S
N457 C458 1.298 . S
N457 N460 1.398 . S
C458 N457 1.298 . S
C458 N461 1.367 . S
C458 C471 1.481 . S
C459 N460 1.299 . S
C459 N461 1.379 . S
N460 N457 1.398 . S
N460 C459 1.299 . S
N461 C458 1.367 . S
N461 C459 1.379 . S
C462 N464 1.298 . S
C462 N466 1.367 . S
C462 C470 1.481 . S
C463 N465 1.299 . S
C463 N466 1.379 . S
N464 Zn448 2.036 . S
N464 C462 1.298 . S
N464 N465 1.398 . S
N465 C463 1.299 . S
N465 N464 1.398 . S
N466 C462 1.367 . S
N466 C463 1.379 . S
H467 C470 0.980 . S
H468 C470 0.981 . S
H469 C470 0.981 . S
C470 C462 1.481 . S
C470 H467 0.980 . S
C470 H468 0.981 . S
C470 H469 0.981 . S
C471 C458 1.481 . S
C471 H472 0.980 . S
C471 H473 0.981 . S
C471 H474 0.981 . S
H472 C471 0.980 . S
H473 C471 0.981 . S
H474 C471 0.981 . S
O475 Zn451 2.066 . S
O475 C454 1.256 . S
O476 Zn448 2.053 . S
O476 C454 1.244 . S
C477 O455 1.259 . S
C477 O456 1.254 . S
O478 Zn448 2.066 . S
O478 C450 1.256 . S
O479 C450 1.244 . S
O479 Zn451 2.053 . S
Zn480 O481 2.055 . S
Zn480 O488 2.046 . S
Zn480 N496 2.036 . S
Zn480 O508 2.053 . S
Zn480 O510 2.066 . S
O481 Zn480 2.055 . S
O481 C484 1.259 . S
C482 O510 1.256 . S
C482 O511 1.244 . S
Zn483 O485 2.046 . S
Zn483 O487 2.055 . S
Zn483 N489 2.036 . S
Zn483 O507 2.066 . S
Zn483 O511 2.053 . S
C484 O481 1.259 . S
C484 O485 1.254 . S
O485 Zn483 2.046 . S
O485 C484 1.254 . S
C486 O507 1.256 . S
C486 O508 1.244 . S
O487 Zn483 2.055 . S
O487 C509 1.259 . S
O488 Zn480 2.046 . S
O488 C509 1.254 . S
N489 Zn483 2.036 . S
N489 C490 1.298 . S
N489 N492 1.398 . S
C490 N489 1.298 . S
C490 N493 1.367 . S
C490 C503 1.481 . S
C491 N492 1.299 . S
C491 N493 1.379 . S
N492 N489 1.398 . S
N492 C491 1.299 . S
N493 C490 1.367 . S
N493 C491 1.379 . S
C494 N496 1.298 . S
C494 N498 1.367 . S
C494 C502 1.481 . S
C495 N497 1.299 . S
C495 N498 1.379 . S
N496 Zn480 2.036 . S
N496 C494 1.298 . S
N496 N497 1.398 . S
N497 C495 1.299 . S
N497 N496 1.398 . S
N498 C494 1.367 . S
N498 C495 1.379 . S
H499 C502 0.980 . S
H500 C502 0.981 . S
H501 C502 0.981 . S
C502 C494 1.481 . S
C502 H499 0.980 . S
C502 H500 0.981 . S
C502 H501 0.981 . S
C503 C490 1.481 . S
C503 H504 0.980 . S
C503 H505 0.981 . S
C503 H506 0.981 . S
H504 C503 0.980 . S
H505 C503 0.981 . S
H506 C503 0.981 . S
O507 Zn483 2.066 . S
O507 C486 1.256 . S
O508 Zn480 2.053 . S
O508 C486 1.244 . S
C509 O487 1.259 . S
C509 O488 1.254 . S
O510 Zn480 2.066 . S
O510 C482 1.256 . S
O511 C482 1.244 . S
O511 Zn483 2.053 . S
H512 C520 0.950 . S
H513 C525 0.950 . S
H514 C522 0.950 . S
H515 C524 0.950 . S
H516 C526 0.950 . S
H517 C528 0.950 . S
H518 C530 0.950 . S
H519 C531 0.950 . S
C520 H512 0.950 . S
C520 C521 1.386 . S
C520 C522 1.391 . S
C521 C520 1.386 . S
C521 C525 1.393 . S
C522 H514 0.950 . S
C522 C520 1.391 . S
C522 C523 1.400 . S
C523 C522 1.400 . S
C523 C524 1.398 . S
C523 C529 1.491 . S
C524 H515 0.950 . S
C524 C523 1.398 . S
C524 C525 1.391 . S
C525 H513 0.950 . S
C525 C521 1.393 . S
C525 C524 1.391 . S
C526 H516 0.950 . S
C526 C527 1.386 . S
C526 C528 1.391 . S
C527 C526 1.386 . S
C527 C531 1.393 . S
C528 H517 0.950 . S
C528 C526 1.391 . S
C528 C529 1.400 . S
C529 C523 1.491 . S
C529 C528 1.400 . S
C529 C530 1.398 . S
C530 H518 0.950 . S
C530 C529 1.398 . S
C530 C531 1.391 . S
C531 H519 0.950 . S
C531 C527 1.393 . S
C531 C530 1.391 . S
H532 C540 0.950 . S
H533 C545 0.950 . S
H534 C542 0.950 . S
H535 C544 0.950 . S
H536 C546 0.950 . S
H537 C548 0.950 . S
H538 C550 0.950 . S
H539 C551 0.950 . S
C540 H532 0.950 . S
C540 C541 1.386 . S
C540 C542 1.391 . S
C541 C540 1.386 . S
C541 C545 1.393 . S
C542 H534 0.950 . S
C542 C540 1.391 . S
C542 C543 1.400 . S
C543 C542 1.400 . S
C543 C544 1.398 . S
C543 C549 1.491 . S
C544 H535 0.950 . S
C544 C543 1.398 . S
C544 C545 1.391 . S
C545 H533 0.950 . S
C545 C541 1.393 . S
C545 C544 1.391 . S
C546 H536 0.950 . S
C546 C547 1.386 . S
C546 C548 1.391 . S
C547 C546 1.386 . S
C547 C551 1.393 . S
C548 H537 0.950 . S
C548 C546 1.391 . S
C548 C549 1.400 . S
C549 C543 1.491 . S
C549 C548 1.400 . S
C549 C550 1.398 . S
C550 H538 0.950 . S
C550 C549 1.398 . S
C550 C551 1.391 . S
C551 H539 0.950 . S
C551 C547 1.393 . S
C551 C550 1.391 . S
H552 C560 0.950 . S
H553 C565 0.950 . S
H554 C562 0.950 . S
H555 C564 0.950 . S
H556 C566 0.950 . S
H557 C568 0.950 . S
H558 C570 0.950 . S
H559 C571 0.950 . S
C560 H552 0.950 . S
C560 C561 1.386 . S
C560 C562 1.391 . S
C561 C560 1.386 . S
C561 C565 1.393 . S
C562 H554 0.950 . S
C562 C560 1.391 . S
C562 C563 1.400 . S
C563 C562 1.400 . S
C563 C564 1.398 . S
C563 C569 1.491 . S
C564 H555 0.950 . S
C564 C563 1.398 . S
C564 C565 1.391 . S
C565 H553 0.950 . S
C565 C561 1.393 . S
C565 C564 1.391 . S
C566 H556 0.950 . S
C566 C567 1.386 . S
C566 C568 1.391 . S
C567 C566 1.386 . S
C567 C571 1.393 . S
C568 H557 0.950 . S
C568 C566 1.391 . S
C568 C569 1.400 . S
C569 C563 1.491 . S
C569 C568 1.400 . S
C569 C570 1.398 . S
C570 H558 0.950 . S
C570 C569 1.398 . S
C570 C571 1.391 . S
C571 H559 0.950 . S
C571 C567 1.393 . S
C571 C570 1.391 . S
H572 C580 0.950 . S
H573 C585 0.950 . S
H574 C582 0.950 . S
H575 C584 0.950 . S
H576 C586 0.950 . S
H577 C588 0.950 . S
H578 C590 0.950 . S
H579 C591 0.950 . S
C580 H572 0.950 . S
C580 C581 1.386 . S
C580 C582 1.391 . S
C581 C580 1.386 . S
C581 C585 1.393 . S
C582 H574 0.950 . S
C582 C580 1.391 . S
C582 C583 1.400 . S
C583 C582 1.400 . S
C583 C584 1.398 . S
C583 C589 1.491 . S
C584 H575 0.950 . S
C584 C583 1.398 . S
C584 C585 1.391 . S
C585 H573 0.950 . S
C585 C581 1.393 . S
C585 C584 1.391 . S
C586 H576 0.950 . S
C586 C587 1.386 . S
C586 C588 1.391 . S
C587 C586 1.386 . S
C587 C591 1.393 . S
C588 H577 0.950 . S
C588 C586 1.391 . S
C588 C589 1.400 . S
C589 C583 1.491 . S
C589 C588 1.400 . S
C589 C590 1.398 . S
C590 H578 0.950 . S
C590 C589 1.398 . S
C590 C591 1.391 . S
C591 H579 0.950 . S
C591 C587 1.393 . S
C591 C590 1.391 . S
H592 C600 0.950 . S
H593 C605 0.950 . S
H594 C602 0.950 . S
H595 C604 0.950 . S
H596 C606 0.950 . S
H597 C608 0.950 . S
H598 C610 0.950 . S
H599 C611 0.950 . S
C600 H592 0.950 . S
C600 C601 1.386 . S
C600 C602 1.391 . S
C601 C600 1.386 . S
C601 C605 1.393 . S
C602 H594 0.950 . S
C602 C600 1.391 . S
C602 C603 1.400 . S
C603 C602 1.400 . S
C603 C604 1.398 . S
C603 C609 1.491 . S
C604 H595 0.950 . S
C604 C603 1.398 . S
C604 C605 1.391 . S
C605 H593 0.950 . S
C605 C601 1.393 . S
C605 C604 1.391 . S
C606 H596 0.950 . S
C606 C607 1.386 . S
C606 C608 1.391 . S
C607 C606 1.386 . S
C607 C611 1.393 . S
C608 H597 0.950 . S
C608 C606 1.391 . S
C608 C609 1.400 . S
C609 C603 1.491 . S
C609 C608 1.400 . S
C609 C610 1.398 . S
C610 H598 0.950 . S
C610 C609 1.398 . S
C610 C611 1.391 . S
C611 H599 0.950 . S
C611 C607 1.393 . S
C611 C610 1.391 . S
H612 C620 0.950 . S
H613 C625 0.950 . S
H614 C622 0.950 . S
H615 C624 0.950 . S
H616 C626 0.950 . S
H617 C628 0.950 . S
H618 C630 0.950 . S
H619 C631 0.950 . S
C620 H612 0.950 . S
C620 C621 1.386 . S
C620 C622 1.391 . S
C621 C620 1.386 . S
C621 C625 1.393 . S
C622 H614 0.950 . S
C622 C620 1.391 . S
C622 C623 1.400 . S
C623 C622 1.400 . S
C623 C624 1.398 . S
C623 C629 1.491 . S
C624 H615 0.950 . S
C624 C623 1.398 . S
C624 C625 1.391 . S
C625 H613 0.950 . S
C625 C621 1.393 . S
C625 C624 1.391 . S
C626 H616 0.950 . S
C626 C627 1.386 . S
C626 C628 1.391 . S
C627 C626 1.386 . S
C627 C631 1.393 . S
C628 H617 0.950 . S
C628 C626 1.391 . S
C628 C629 1.400 . S
C629 C623 1.491 . S
C629 C628 1.400 . S
C629 C630 1.398 . S
C630 H618 0.950 . S
C630 C629 1.398 . S
C630 C631 1.391 . S
C631 H619 0.950 . S
C631 C627 1.393 . S
C631 C630 1.391 . S
H632 C640 0.950 . S
H633 C645 0.950 . S
H634 C642 0.950 . S
H635 C644 0.950 . S
H636 C646 0.950 . S
H637 C648 0.950 . S
H638 C650 0.950 . S
H639 C651 0.950 . S
C640 H632 0.950 . S
C640 C641 1.386 . S
C640 C642 1.391 . S
C641 C640 1.386 . S
C641 C645 1.393 . S
C642 H634 0.950 . S
C642 C640 1.391 . S
C642 C643 1.400 . S
C643 C642 1.400 . S
C643 C644 1.398 . S
C643 C649 1.491 . S
C644 H635 0.950 . S
C644 C643 1.398 . S
C644 C645 1.391 . S
C645 H633 0.950 . S
C645 C641 1.393 . S
C645 C644 1.391 . S
C646 H636 0.950 . S
C646 C647 1.386 . S
C646 C648 1.391 . S
C647 C646 1.386 . S
C647 C651 1.393 . S
C648 H637 0.950 . S
C648 C646 1.391 . S
C648 C649 1.400 . S
C649 C643 1.491 . S
C649 C648 1.400 . S
C649 C650 1.398 . S
C650 H638 0.950 . S
C650 C649 1.398 . S
C650 C651 1.391 . S
C651 H639 0.950 . S
C651 C647 1.393 . S
C651 C650 1.391 . S
H652 C660 0.950 . S
H653 C665 0.950 . S
H654 C662 0.950 . S
H655 C664 0.950 . S
H656 C666 0.950 . S
H657 C668 0.950 . S
H658 C670 0.950 . S
H659 C671 0.950 . S
C660 H652 0.950 . S
C660 C661 1.386 . S
C660 C662 1.391 . S
C661 C660 1.386 . S
C661 C665 1.393 . S
C662 H654 0.950 . S
C662 C660 1.391 . S
C662 C663 1.400 . S
C663 C662 1.400 . S
C663 C664 1.398 . S
C663 C669 1.491 . S
C664 H655 0.950 . S
C664 C663 1.398 . S
C664 C665 1.391 . S
C665 H653 0.950 . S
C665 C661 1.393 . S
C665 C664 1.391 . S
C666 H656 0.950 . S
C666 C667 1.386 . S
C666 C668 1.391 . S
C667 C666 1.386 . S
C667 C671 1.393 . S
C668 H657 0.950 . S
C668 C666 1.391 . S
C668 C669 1.400 . S
C669 C663 1.491 . S
C669 C668 1.400 . S
C669 C670 1.398 . S
C670 H658 0.950 . S
C670 C669 1.398 . S
C670 C671 1.391 . S
C671 H659 0.950 . S
C671 C667 1.393 . S
C671 C670 1.391 . S
H672 C680 0.950 . S
H673 C685 0.950 . S
H674 C682 0.950 . S
H675 C684 0.950 . S
H676 C686 0.950 . S
H677 C688 0.950 . S
H678 C690 0.950 . S
H679 C691 0.950 . S
C680 H672 0.950 . S
C680 C681 1.386 . S
C680 C682 1.391 . S
C681 C680 1.386 . S
C681 C685 1.393 . S
C682 H674 0.950 . S
C682 C680 1.391 . S
C682 C683 1.400 . S
C683 C682 1.400 . S
C683 C684 1.398 . S
C683 C689 1.491 . S
C684 H675 0.950 . S
C684 C683 1.398 . S
C684 C685 1.391 . S
C685 H673 0.950 . S
C685 C681 1.393 . S
C685 C684 1.391 . S
C686 H676 0.950 . S
C686 C687 1.386 . S
C686 C688 1.391 . S
C687 C686 1.386 . S
C687 C691 1.393 . S
C688 H677 0.950 . S
C688 C686 1.391 . S
C688 C689 1.400 . S
C689 C683 1.491 . S
C689 C688 1.400 . S
C689 C690 1.398 . S
C690 H678 0.950 . S
C690 C689 1.398 . S
C690 C691 1.391 . S
C691 H679 0.950 . S
C691 C687 1.393 . S
C691 C690 1.391 . S
H692 C700 0.950 . S
H693 C705 0.950 . S
H694 C702 0.950 . S
H695 C704 0.950 . S
H696 C706 0.950 . S
H697 C708 0.950 . S
H698 C710 0.950 . S
H699 C711 0.950 . S
C700 H692 0.950 . S
C700 C701 1.386 . S
C700 C702 1.391 . S
C701 C700 1.386 . S
C701 C705 1.393 . S
C702 H694 0.950 . S
C702 C700 1.391 . S
C702 C703 1.400 . S
C703 C702 1.400 . S
C703 C704 1.398 . S
C703 C709 1.491 . S
C704 H695 0.950 . S
C704 C703 1.398 . S
C704 C705 1.391 . S
C705 H693 0.950 . S
C705 C701 1.393 . S
C705 C704 1.391 . S
C706 H696 0.950 . S
C706 C707 1.386 . S
C706 C708 1.391 . S
C707 C706 1.386 . S
C707 C711 1.393 . S
C708 H697 0.950 . S
C708 C706 1.391 . S
C708 C709 1.400 . S
C709 C703 1.491 . S
C709 C708 1.400 . S
C709 C710 1.398 . S
C710 H698 0.950 . S
C710 C709 1.398 . S
C710 C711 1.391 . S
C711 H699 0.950 . S
C711 C707 1.393 . S
C711 C710 1.391 . S
H712 C720 0.950 . S
H713 C725 0.950 1_655 S
H714 C722 0.950 . S
H715 C724 0.950 . S
H716 C726 0.950 . S
H717 C728 0.950 . S
H718 C730 0.950 . S
H719 C731 0.950 . S
C720 H712 0.950 . S
C720 C721 1.386 . S
C720 C722 1.391 . S
C721 C720 1.386 . S
C721 C725 1.393 . S
C722 H714 0.950 . S
C722 C720 1.391 . S
C722 C723 1.400 . S
C723 C722 1.400 . S
C723 C724 1.398 . S
C723 C729 1.491 . S
C724 H715 0.950 . S
C724 C723 1.398 . S
C724 C725 1.391 . S
C725 H713 0.950 1_455 S
C725 C721 1.393 . S
C725 C724 1.391 . S
C726 H716 0.950 . S
C726 C727 1.386 . S
C726 C728 1.391 . S
C727 C726 1.386 . S
C727 C731 1.393 . S
C728 H717 0.950 . S
C728 C726 1.391 . S
C728 C729 1.400 . S
C729 C723 1.491 . S
C729 C728 1.400 . S
C729 C730 1.398 . S
C730 H718 0.950 . S
C730 C729 1.398 . S
C730 C731 1.391 . S
C731 H719 0.950 . S
C731 C727 1.393 . S
C731 C730 1.391 . S
H732 C740 0.950 . S
H733 C745 0.950 . S
H734 C742 0.950 . S
H735 C744 0.950 . S
H736 C746 0.950 . S
H737 C748 0.950 . S
H738 C750 0.950 . S
H739 C751 0.950 . S
C740 H732 0.950 . S
C740 C741 1.386 . S
C740 C742 1.391 . S
C741 C740 1.386 . S
C741 C745 1.393 . S
C742 H734 0.950 . S
C742 C740 1.391 . S
C742 C743 1.400 . S
C743 C742 1.400 . S
C743 C744 1.398 . S
C743 C749 1.491 . S
C744 H735 0.950 . S
C744 C743 1.398 . S
C744 C745 1.391 . S
C745 H733 0.950 . S
C745 C741 1.393 . S
C745 C744 1.391 . S
C746 H736 0.950 . S
C746 C747 1.386 . S
C746 C748 1.391 . S
C747 C746 1.386 . S
C747 C751 1.393 . S
C748 H737 0.950 . S
C748 C746 1.391 . S
C748 C749 1.400 . S
C749 C743 1.491 . S
C749 C748 1.400 . S
C749 C750 1.398 . S
C750 H738 0.950 . S
C750 C749 1.398 . S
C750 C751 1.391 . S
C751 H739 0.950 . S
C751 C747 1.393 . S
C751 C750 1.391 . S
H752 C760 0.950 . S
H753 C765 0.950 1_455 S
H754 C762 0.950 . S
H755 C764 0.950 . S
H756 C766 0.950 . S
H757 C768 0.950 . S
H758 C770 0.950 . S
H759 C771 0.950 . S
C760 H752 0.950 . S
C760 C761 1.386 . S
C760 C762 1.391 . S
C761 C760 1.386 . S
C761 C765 1.393 . S
C762 H754 0.950 . S
C762 C760 1.391 . S
C762 C763 1.400 . S
C763 C762 1.400 . S
C763 C764 1.398 . S
C763 C769 1.491 . S
C764 H755 0.950 . S
C764 C763 1.398 . S
C764 C765 1.391 . S
C765 H753 0.950 1_655 S
C765 C761 1.393 . S
C765 C764 1.391 . S
C766 H756 0.950 . S
C766 C767 1.386 . S
C766 C768 1.391 . S
C767 C766 1.386 . S
C767 C771 1.393 . S
C768 H757 0.950 . S
C768 C766 1.391 . S
C768 C769 1.400 . S
C769 C763 1.491 . S
C769 C768 1.400 . S
C769 C770 1.398 . S
C770 H758 0.950 . S
C770 C769 1.398 . S
C770 C771 1.391 . S
C771 H759 0.950 . S
C771 C767 1.393 . S
C771 C770 1.391 . S
H772 C780 0.950 . S
H773 C785 0.950 . S
H774 C782 0.950 . S
H775 C784 0.950 . S
H776 C786 0.950 . S
H777 C788 0.950 . S
H778 C790 0.950 . S
H779 C791 0.950 1_545 S
C780 H772 0.950 . S
C780 C781 1.386 . S
C780 C782 1.391 . S
C781 C780 1.386 . S
C781 C785 1.393 . S
C782 H774 0.950 . S
C782 C780 1.391 . S
C782 C783 1.400 . S
C783 C782 1.400 . S
C783 C784 1.398 . S
C783 C789 1.491 . S
C784 H775 0.950 . S
C784 C783 1.398 . S
C784 C785 1.391 . S
C785 H773 0.950 . S
C785 C781 1.393 . S
C785 C784 1.391 . S
C786 H776 0.950 . S
C786 C787 1.386 . S
C786 C788 1.391 . S
C787 C786 1.386 . S
C787 C791 1.393 . S
C788 H777 0.950 . S
C788 C786 1.391 . S
C788 C789 1.400 . S
C789 C783 1.491 . S
C789 C788 1.400 . S
C789 C790 1.398 . S
C790 H778 0.950 . S
C790 C789 1.398 . S
C790 C791 1.391 . S
C791 H779 0.950 1_565 S
C791 C787 1.393 . S
C791 C790 1.391 . S
H792 C800 0.950 . S
H793 C805 0.950 . S
H794 C802 0.950 . S
H795 C804 0.950 . S
H796 C806 0.950 . S
H797 C808 0.950 . S
H798 C810 0.950 . S
H799 C811 0.950 . S
C800 H792 0.950 . S
C800 C801 1.386 . S
C800 C802 1.391 . S
C801 C800 1.386 . S
C801 C805 1.393 . S
C802 H794 0.950 . S
C802 C800 1.391 . S
C802 C803 1.400 . S
C803 C802 1.400 . S
C803 C804 1.398 . S
C803 C809 1.491 . S
C804 H795 0.950 . S
C804 C803 1.398 . S
C804 C805 1.391 . S
C805 H793 0.950 . S
C805 C801 1.393 . S
C805 C804 1.391 . S
C806 H796 0.950 . S
C806 C807 1.386 . S
C806 C808 1.391 . S
C807 C806 1.386 . S
C807 C811 1.393 . S
C808 H797 0.950 . S
C808 C806 1.391 . S
C808 C809 1.400 . S
C809 C803 1.491 . S
C809 C808 1.400 . S
C809 C810 1.398 . S
C810 H798 0.950 . S
C810 C809 1.398 . S
C810 C811 1.391 . S
C811 H799 0.950 . S
C811 C807 1.393 . S
C811 C810 1.391 . S
H812 C820 0.950 . S
H813 C825 0.950 . S
H814 C822 0.950 . S
H815 C824 0.950 . S
H816 C826 0.950 . S
H817 C828 0.950 . S
H818 C830 0.950 . S
H819 C831 0.950 . S
C820 H812 0.950 . S
C820 C821 1.386 . S
C820 C822 1.391 . S
C821 C820 1.386 . S
C821 C825 1.393 . S
C822 H814 0.950 . S
C822 C820 1.391 . S
C822 C823 1.400 . S
C823 C822 1.400 . S
C823 C824 1.398 . S
C823 C829 1.491 . S
C824 H815 0.950 . S
C824 C823 1.398 . S
C824 C825 1.391 . S
C825 H813 0.950 . S
C825 C821 1.393 . S
C825 C824 1.391 . S
C826 H816 0.950 . S
C826 C827 1.386 . S
C826 C828 1.391 . S
C827 C826 1.386 . S
C827 C831 1.393 . S
C828 H817 0.950 . S
C828 C826 1.391 . S
C828 C829 1.400 . S
C829 C823 1.491 . S
C829 C828 1.400 . S
C829 C830 1.398 . S
C830 H818 0.950 . S
C830 C829 1.398 . S
C830 C831 1.391 . S
C831 H819 0.950 . S
C831 C827 1.393 . S
C831 C830 1.391 . S
H832 C840 0.950 . S
H833 C845 0.950 . S
H834 C842 0.950 . S
H835 C844 0.950 . S
H836 C846 0.950 . S
H837 C848 0.950 . S
H838 C850 0.950 . S
H839 C851 0.950 . S
C840 H832 0.950 . S
C840 C841 1.386 . S
C840 C842 1.391 . S
C841 C840 1.386 . S
C841 C845 1.393 . S
C842 H834 0.950 . S
C842 C840 1.391 . S
C842 C843 1.400 . S
C843 C842 1.400 . S
C843 C844 1.398 . S
C843 C849 1.491 . S
C844 H835 0.950 . S
C844 C843 1.398 . S
C844 C845 1.391 . S
C845 H833 0.950 . S
C845 C841 1.393 . S
C845 C844 1.391 . S
C846 H836 0.950 . S
C846 C847 1.386 . S
C846 C848 1.391 . S
C847 C846 1.386 . S
C847 C851 1.393 . S
C848 H837 0.950 . S
C848 C846 1.391 . S
C848 C849 1.400 . S
C849 C843 1.491 . S
C849 C848 1.400 . S
C849 C850 1.398 . S
C850 H838 0.950 . S
C850 C849 1.398 . S
C850 C851 1.391 . S
C851 H839 0.950 . S
C851 C847 1.393 . S
C851 C850 1.391 . S
H852 C860 0.950 . S
H853 C865 0.950 . S
H854 C862 0.950 . S
H855 C864 0.950 . S
H856 C866 0.950 . S
H857 C868 0.950 . S
H858 C870 0.950 . S
H859 C871 0.950 . S
C860 H852 0.950 . S
C860 C861 1.386 . S
C860 C862 1.391 . S
C861 C860 1.386 . S
C861 C865 1.393 . S
C862 H854 0.950 . S
C862 C860 1.391 . S
C862 C863 1.400 . S
C863 C862 1.400 . S
C863 C864 1.398 . S
C863 C869 1.491 . S
C864 H855 0.950 . S
C864 C863 1.398 . S
C864 C865 1.391 . S
C865 H853 0.950 . S
C865 C861 1.393 . S
C865 C864 1.391 . S
C866 H856 0.950 . S
C866 C867 1.386 . S
C866 C868 1.391 . S
C867 C866 1.386 . S
C867 C871 1.393 . S
C868 H857 0.950 . S
C868 C866 1.391 . S
C868 C869 1.400 . S
C869 C863 1.491 . S
C869 C868 1.400 . S
C869 C870 1.398 . S
C870 H858 0.950 . S
C870 C869 1.398 . S
C870 C871 1.391 . S
C871 H859 0.950 . S
C871 C867 1.393 . S
C871 C870 1.391 . S
H872 C880 0.950 . S
H873 C885 0.950 . S
H874 C882 0.950 . S
H875 C884 0.950 . S
H876 C886 0.950 . S
H877 C888 0.950 . S
H878 C890 0.950 . S
H879 C891 0.950 . S
C880 H872 0.950 . S
C880 C881 1.386 . S
C880 C882 1.391 . S
C881 C880 1.386 . S
C881 C885 1.393 . S
C882 H874 0.950 . S
C882 C880 1.391 . S
C882 C883 1.400 . S
C883 C882 1.400 . S
C883 C884 1.398 . S
C883 C889 1.491 . S
C884 H875 0.950 . S
C884 C883 1.398 . S
C884 C885 1.391 . S
C885 H873 0.950 . S
C885 C881 1.393 . S
C885 C884 1.391 . S
C886 H876 0.950 . S
C886 C887 1.386 . S
C886 C888 1.391 . S
C887 C886 1.386 . S
C887 C891 1.393 . S
C888 H877 0.950 . S
C888 C886 1.391 . S
C888 C889 1.400 . S
C889 C883 1.491 . S
C889 C888 1.400 . S
C889 C890 1.398 . S
C890 H878 0.950 . S
C890 C889 1.398 . S
C890 C891 1.391 . S
C891 H879 0.950 . S
C891 C887 1.393 . S
C891 C890 1.391 . S
H892 C900 0.950 1_545 S
H893 C905 0.950 . S
H894 C902 0.950 . S
H895 C904 0.950 . S
H896 C906 0.950 . S
H897 C908 0.950 . S
H898 C910 0.950 . S
H899 C911 0.950 . S
C900 H892 0.950 1_565 S
C900 C901 1.386 . S
C900 C902 1.391 . S
C901 C900 1.386 . S
C901 C905 1.393 . S
C902 H894 0.950 . S
C902 C900 1.391 . S
C902 C903 1.400 . S
C903 C902 1.400 . S
C903 C904 1.398 . S
C903 C909 1.491 . S
C904 H895 0.950 . S
C904 C903 1.398 . S
C904 C905 1.391 . S
C905 H893 0.950 . S
C905 C901 1.393 . S
C905 C904 1.391 . S
C906 H896 0.950 . S
C906 C907 1.386 . S
C906 C908 1.391 . S
C907 C906 1.386 . S
C907 C911 1.393 . S
C908 H897 0.950 . S
C908 C906 1.391 . S
C908 C909 1.400 . S
C909 C903 1.491 . S
C909 C908 1.400 . S
C909 C910 1.398 . S
C910 H898 0.950 . S
C910 C909 1.398 . S
C910 C911 1.391 . S
C911 H899 0.950 . S
C911 C907 1.393 . S
C911 C910 1.391 . S
H912 C920 0.950 . S
H913 C925 0.950 . S
H914 C922 0.950 . S
H915 C924 0.950 . S
H916 C926 0.950 . S
H917 C928 0.950 . S
H918 C930 0.950 . S
H919 C931 0.950 . S
C920 H912 0.950 . S
C920 C921 1.386 . S
C920 C922 1.391 . S
C921 C920 1.386 . S
C921 C925 1.393 . S
C922 H914 0.950 . S
C922 C920 1.391 . S
C922 C923 1.400 . S
C923 C922 1.400 . S
C923 C924 1.398 . S
C923 C929 1.491 . S
C924 H915 0.950 . S
C924 C923 1.398 . S
C924 C925 1.391 . S
C925 H913 0.950 . S
C925 C921 1.393 . S
C925 C924 1.391 . S
C926 H916 0.950 . S
C926 C927 1.386 . S
C926 C928 1.391 . S
C927 C926 1.386 . S
C927 C931 1.393 . S
C928 H917 0.950 . S
C928 C926 1.391 . S
C928 C929 1.400 . S
C929 C923 1.491 . S
C929 C928 1.400 . S
C929 C930 1.398 . S
C930 H918 0.950 . S
C930 C929 1.398 . S
C930 C931 1.391 . S
C931 H919 0.950 . S
C931 C927 1.393 . S
C931 C930 1.391 . S
H932 C940 0.950 . S
H933 C945 0.950 . S
H934 C942 0.950 . S
H935 C944 0.950 . S
H936 C946 0.950 . S
H937 C948 0.950 . S
H938 C950 0.950 . S
H939 C951 0.950 . S
C940 H932 0.950 . S
C940 C941 1.386 . S
C940 C942 1.391 . S
C941 C940 1.386 . S
C941 C945 1.393 . S
C942 H934 0.950 . S
C942 C940 1.391 . S
C942 C943 1.400 . S
C943 C942 1.400 . S
C943 C944 1.398 . S
C943 C949 1.491 . S
C944 H935 0.950 . S
C944 C943 1.398 . S
C944 C945 1.391 . S
C945 H933 0.950 . S
C945 C941 1.393 . S
C945 C944 1.391 . S
C946 H936 0.950 . S
C946 C947 1.386 . S
C946 C948 1.391 . S
C947 C946 1.386 . S
C947 C951 1.393 . S
C948 H937 0.950 . S
C948 C946 1.391 . S
C948 C949 1.400 . S
C949 C943 1.491 . S
C949 C948 1.400 . S
C949 C950 1.398 . S
C950 H938 0.950 . S
C950 C949 1.398 . S
C950 C951 1.391 . S
C951 H939 0.950 . S
C951 C947 1.393 . S
C951 C950 1.391 . S
H952 C960 0.950 . S
H953 C965 0.950 . S
H954 C962 0.950 . S
H955 C964 0.950 . S
H956 C966 0.950 . S
H957 C968 0.950 . S
H958 C970 0.950 . S
H959 C971 0.950 . S
C960 H952 0.950 . S
C960 C961 1.386 . S
C960 C962 1.391 . S
C961 C960 1.386 . S
C961 C965 1.393 . S
C962 H954 0.950 . S
C962 C960 1.391 . S
C962 C963 1.400 . S
C963 C962 1.400 . S
C963 C964 1.398 . S
C963 C969 1.491 . S
C964 H955 0.950 . S
C964 C963 1.398 . S
C964 C965 1.391 . S
C965 H953 0.950 . S
C965 C961 1.393 . S
C965 C964 1.391 . S
C966 H956 0.950 . S
C966 C967 1.386 . S
C966 C968 1.391 . S
C967 C966 1.386 . S
C967 C971 1.393 . S
C968 H957 0.950 . S
C968 C966 1.391 . S
C968 C969 1.400 . S
C969 C963 1.491 . S
C969 C968 1.400 . S
C969 C970 1.398 . S
C970 H958 0.950 . S
C970 C969 1.398 . S
C970 C971 1.391 . S
C971 H959 0.950 . S
C971 C967 1.393 . S
C971 C970 1.391 . S
H972 C980 0.950 . S
H973 C985 0.950 . S
H974 C982 0.950 . S
H975 C984 0.950 . S
H976 C986 0.950 . S
H977 C988 0.950 . S
H978 C990 0.950 . S
H979 C991 0.950 . S
C980 H972 0.950 . S
C980 C981 1.386 . S
C980 C982 1.391 . S
C981 C980 1.386 . S
C981 C985 1.393 . S
C982 H974 0.950 . S
C982 C980 1.391 . S
C982 C983 1.400 . S
C983 C982 1.400 . S
C983 C984 1.398 . S
C983 C989 1.491 . S
C984 H975 0.950 . S
C984 C983 1.398 . S
C984 C985 1.391 . S
C985 H973 0.950 . S
C985 C981 1.393 . S
C985 C984 1.391 . S
C986 H976 0.950 . S
C986 C987 1.386 . S
C986 C988 1.391 . S
C987 C986 1.386 . S
C987 C991 1.393 . S
C988 H977 0.950 . S
C988 C986 1.391 . S
C988 C989 1.400 . S
C989 C983 1.491 . S
C989 C988 1.400 . S
C989 C990 1.398 . S
C990 H978 0.950 . S
C990 C989 1.398 . S
C990 C991 1.391 . S
C991 H979 0.950 . S
C991 C987 1.393 . S
C991 C990 1.391 . S
H992 C1000 0.950 . S
H993 C1005 0.950 . S
H994 C1002 0.950 . S
H995 C1004 0.950 . S
H996 C1006 0.950 . S
H997 C1008 0.950 . S
H998 C1010 0.950 . S
H999 C1011 0.950 . S
C1000 H992 0.950 . S
C1000 C1001 1.386 . S
C1000 C1002 1.391 . S
C1001 C1000 1.386 . S
C1001 C1005 1.393 . S
C1002 H994 0.950 . S
C1002 C1000 1.391 . S
C1002 C1003 1.400 . S
C1003 C1002 1.400 . S
C1003 C1004 1.398 . S
C1003 C1009 1.491 . S
C1004 H995 0.950 . S
C1004 C1003 1.398 . S
C1004 C1005 1.391 . S
C1005 H993 0.950 . S
C1005 C1001 1.393 . S
C1005 C1004 1.391 . S
C1006 H996 0.950 . S
C1006 C1007 1.386 . S
C1006 C1008 1.391 . S
C1007 C1006 1.386 . S
C1007 C1011 1.393 . S
C1008 H997 0.950 . S
C1008 C1006 1.391 . S
C1008 C1009 1.400 . S
C1009 C1003 1.491 . S
C1009 C1008 1.400 . S
C1009 C1010 1.398 . S
C1010 H998 0.950 . S
C1010 C1009 1.398 . S
C1010 C1011 1.391 . S
C1011 H999 0.950 . S
C1011 C1007 1.393 . S
C1011 C1010 1.391 . S
H1012 C1020 0.950 . S
H1013 C1025 0.950 . S
H1014 C1022 0.950 . S
H1015 C1024 0.950 . S
H1016 C1026 0.950 . S
H1017 C1028 0.950 . S
H1018 C1030 0.950 . S
H1019 C1031 0.950 . S
C1020 H1012 0.950 . S
C1020 C1021 1.386 . S
C1020 C1022 1.391 . S
C1021 C1020 1.386 . S
C1021 C1025 1.393 . S
C1022 H1014 0.950 . S
C1022 C1020 1.391 . S
C1022 C1023 1.400 . S
C1023 C1022 1.400 . S
C1023 C1024 1.398 . S
C1023 C1029 1.491 . S
C1024 H1015 0.950 . S
C1024 C1023 1.398 . S
C1024 C1025 1.391 . S
C1025 H1013 0.950 . S
C1025 C1021 1.393 . S
C1025 C1024 1.391 . S
C1026 H1016 0.950 . S
C1026 C1027 1.386 . S
C1026 C1028 1.391 . S
C1027 C1026 1.386 . S
C1027 C1031 1.393 . S
C1028 H1017 0.950 . S
C1028 C1026 1.391 . S
C1028 C1029 1.400 . S
C1029 C1023 1.491 . S
C1029 C1028 1.400 . S
C1029 C1030 1.398 . S
C1030 H1018 0.950 . S
C1030 C1029 1.398 . S
C1030 C1031 1.391 . S
C1031 H1019 0.950 . S
C1031 C1027 1.393 . S
C1031 C1030 1.391 . S
H1032 C1040 0.950 . S
H1033 C1045 0.950 . S
H1034 C1042 0.950 . S
H1035 C1044 0.950 . S
H1036 C1046 0.950 . S
H1037 C1048 0.950 . S
H1038 C1050 0.950 . S
H1039 C1051 0.950 . S
C1040 H1032 0.950 . S
C1040 C1041 1.386 . S
C1040 C1042 1.391 . S
C1041 C1040 1.386 . S
C1041 C1045 1.393 . S
C1042 H1034 0.950 . S
C1042 C1040 1.391 . S
C1042 C1043 1.400 . S
C1043 C1042 1.400 . S
C1043 C1044 1.398 . S
C1043 C1049 1.491 . S
C1044 H1035 0.950 . S
C1044 C1043 1.398 . S
C1044 C1045 1.391 . S
C1045 H1033 0.950 . S
C1045 C1041 1.393 . S
C1045 C1044 1.391 . S
C1046 H1036 0.950 . S
C1046 C1047 1.386 . S
C1046 C1048 1.391 . S
C1047 C1046 1.386 . S
C1047 C1051 1.393 . S
C1048 H1037 0.950 . S
C1048 C1046 1.391 . S
C1048 C1049 1.400 . S
C1049 C1043 1.491 . S
C1049 C1048 1.400 . S
C1049 C1050 1.398 . S
C1050 H1038 0.950 . S
C1050 C1049 1.398 . S
C1050 C1051 1.391 . S
C1051 H1039 0.950 . S
C1051 C1047 1.393 . S
C1051 C1050 1.391 . S
H1052 C1060 0.950 . S
H1053 C1065 0.950 . S
H1054 C1062 0.950 . S
H1055 C1064 0.950 . S
H1056 C1066 0.950 . S
H1057 C1068 0.950 . S
H1058 C1070 0.950 . S
H1059 C1071 0.950 . S
C1060 H1052 0.950 . S
C1060 C1061 1.386 . S
C1060 C1062 1.391 . S
C1061 C1060 1.386 . S
C1061 C1065 1.393 . S
C1062 H1054 0.950 . S
C1062 C1060 1.391 . S
C1062 C1063 1.400 . S
C1063 C1062 1.400 . S
C1063 C1064 1.398 . S
C1063 C1069 1.491 . S
C1064 H1055 0.950 . S
C1064 C1063 1.398 . S
C1064 C1065 1.391 . S
C1065 H1053 0.950 . S
C1065 C1061 1.393 . S
C1065 C1064 1.391 . S
C1066 H1056 0.950 . S
C1066 C1067 1.386 . S
C1066 C1068 1.391 . S
C1067 C1066 1.386 . S
C1067 C1071 1.393 . S
C1068 H1057 0.950 . S
C1068 C1066 1.391 . S
C1068 C1069 1.400 . S
C1069 C1063 1.491 . S
C1069 C1068 1.400 . S
C1069 C1070 1.398 . S
C1070 H1058 0.950 . S
C1070 C1069 1.398 . S
C1070 C1071 1.391 . S
C1071 H1059 0.950 . S
C1071 C1067 1.393 . S
C1071 C1070 1.391 . S
H1072 C1080 0.950 . S
H1073 C1085 0.950 . S
H1074 C1082 0.950 . S
H1075 C1084 0.950 . S
H1076 C1086 0.950 . S
H1077 C1088 0.950 . S
H1078 C1090 0.950 . S
H1079 C1091 0.950 . S
C1080 H1072 0.950 . S
C1080 C1081 1.386 . S
C1080 C1082 1.391 . S
C1081 C1080 1.386 . S
C1081 C1085 1.393 . S
C1082 H1074 0.950 . S
C1082 C1080 1.391 . S
C1082 C1083 1.400 . S
C1083 C1082 1.400 . S
C1083 C1084 1.398 . S
C1083 C1089 1.491 . S
C1084 H1075 0.950 . S
C1084 C1083 1.398 . S
C1084 C1085 1.391 . S
C1085 H1073 0.950 . S
C1085 C1081 1.393 . S
C1085 C1084 1.391 . S
C1086 H1076 0.950 . S
C1086 C1087 1.386 . S
C1086 C1088 1.391 . S
C1087 C1086 1.386 . S
C1087 C1091 1.393 . S
C1088 H1077 0.950 . S
C1088 C1086 1.391 . S
C1088 C1089 1.400 . S
C1089 C1083 1.491 . S
C1089 C1088 1.400 . S
C1089 C1090 1.398 . S
C1090 H1078 0.950 . S
C1090 C1089 1.398 . S
C1090 C1091 1.391 . S
C1091 H1079 0.950 . S
C1091 C1087 1.393 . S
C1091 C1090 1.391 . S
H1092 C1100 0.950 . S
H1093 C1105 0.950 . S
H1094 C1102 0.950 . S
H1095 C1104 0.950 . S
H1096 C1106 0.950 . S
H1097 C1108 0.950 . S
H1098 C1110 0.950 . S
H1099 C1111 0.950 . S
C1100 H1092 0.950 . S
C1100 C1101 1.386 . S
C1100 C1102 1.391 . S
C1101 C1100 1.386 . S
C1101 C1105 1.393 . S
C1102 H1094 0.950 . S
C1102 C1100 1.391 . S
C1102 C1103 1.400 . S
C1103 C1102 1.400 . S
C1103 C1104 1.398 . S
C1103 C1109 1.491 . S
C1104 H1095 0.950 . S
C1104 C1103 1.398 . S
C1104 C1105 1.391 . S
C1105 H1093 0.950 . S
C1105 C1101 1.393 . S
C1105 C1104 1.391 . S
C1106 H1096 0.950 . S
C1106 C1107 1.386 . S
C1106 C1108 1.391 . S
C1107 C1106 1.386 . S
C1107 C1111 1.393 . S
C1108 H1097 0.950 . S
C1108 C1106 1.391 . S
C1108 C1109 1.400 . S
C1109 C1103 1.491 . S
C1109 C1108 1.400 . S
C1109 C1110 1.398 . S
C1110 H1098 0.950 . S
C1110 C1109 1.398 . S
C1110 C1111 1.391 . S
C1111 H1099 0.950 . S
C1111 C1107 1.393 . S
C1111 C1110 1.391 . S
H1112 C1120 0.950 . S
H1113 C1125 0.950 . S
H1114 C1122 0.950 . S
H1115 C1124 0.950 . S
H1116 C1126 0.950 . S
H1117 C1128 0.950 . S
H1118 C1130 0.950 . S
H1119 C1131 0.950 . S
C1120 H1112 0.950 . S
C1120 C1121 1.386 . S
C1120 C1122 1.391 . S
C1121 C1120 1.386 . S
C1121 C1125 1.393 . S
C1122 H1114 0.950 . S
C1122 C1120 1.391 . S
C1122 C1123 1.400 . S
C1123 C1122 1.400 . S
C1123 C1124 1.398 . S
C1123 C1129 1.491 . S
C1124 H1115 0.950 . S
C1124 C1123 1.398 . S
C1124 C1125 1.391 . S
C1125 H1113 0.950 . S
C1125 C1121 1.393 . S
C1125 C1124 1.391 . S
C1126 H1116 0.950 . S
C1126 C1127 1.386 . S
C1126 C1128 1.391 . S
C1127 C1126 1.386 . S
C1127 C1131 1.393 . S
C1128 H1117 0.950 . S
C1128 C1126 1.391 . S
C1128 C1129 1.400 . S
C1129 C1123 1.491 . S
C1129 C1128 1.400 . S
C1129 C1130 1.398 . S
C1130 H1118 0.950 . S
C1130 C1129 1.398 . S
C1130 C1131 1.391 . S
C1131 H1119 0.950 . S
C1131 C1127 1.393 . S
C1131 C1130 1.391 . S
H1132 C1140 0.950 . S
H1133 C1145 0.950 . S
H1134 C1142 0.950 . S
H1135 C1144 0.950 . S
H1136 C1146 0.950 . S
H1137 C1148 0.950 . S
H1138 C1150 0.950 . S
H1139 C1151 0.950 . S
C1140 H1132 0.950 . S
C1140 C1141 1.386 . S
C1140 C1142 1.391 . S
C1141 C1140 1.386 . S
C1141 C1145 1.393 . S
C1142 H1134 0.950 . S
C1142 C1140 1.391 . S
C1142 C1143 1.400 . S
C1143 C1142 1.400 . S
C1143 C1144 1.398 . S
C1143 C1149 1.491 . S
C1144 H1135 0.950 . S
C1144 C1143 1.398 . S
C1144 C1145 1.391 . S
C1145 H1133 0.950 . S
C1145 C1141 1.393 . S
C1145 C1144 1.391 . S
C1146 H1136 0.950 . S
C1146 C1147 1.386 . S
C1146 C1148 1.391 . S
C1147 C1146 1.386 . S
C1147 C1151 1.393 . S
C1148 H1137 0.950 . S
C1148 C1146 1.391 . S
C1148 C1149 1.400 . S
C1149 C1143 1.491 . S
C1149 C1148 1.400 . S
C1149 C1150 1.398 . S
C1150 H1138 0.950 . S
C1150 C1149 1.398 . S
C1150 C1151 1.391 . S
C1151 H1139 0.950 . S
C1151 C1147 1.393 . S
C1151 C1150 1.391 . S
H1152 C1160 0.950 . S
H1153 C1165 0.950 . S
H1154 C1162 0.950 . S
H1155 C1164 0.950 . S
H1156 C1166 0.950 . S
H1157 C1168 0.950 . S
H1158 C1170 0.950 . S
H1159 C1171 0.950 . S
C1160 H1152 0.950 . S
C1160 C1161 1.386 . S
C1160 C1162 1.391 . S
C1161 C1160 1.386 . S
C1161 C1165 1.393 . S
C1162 H1154 0.950 . S
C1162 C1160 1.391 . S
C1162 C1163 1.400 . S
C1163 C1162 1.400 . S
C1163 C1164 1.398 . S
C1163 C1169 1.491 . S
C1164 H1155 0.950 . S
C1164 C1163 1.398 . S
C1164 C1165 1.391 . S
C1165 H1153 0.950 . S
C1165 C1161 1.393 . S
C1165 C1164 1.391 . S
C1166 H1156 0.950 . S
C1166 C1167 1.386 . S
C1166 C1168 1.391 . S
C1167 C1166 1.386 . S
C1167 C1171 1.393 . S
C1168 H1157 0.950 . S
C1168 C1166 1.391 . S
C1168 C1169 1.400 . S
C1169 C1163 1.491 . S
C1169 C1168 1.400 . S
C1169 C1170 1.398 . S
C1170 H1158 0.950 . S
C1170 C1169 1.398 . S
C1170 C1171 1.391 . S
C1171 H1159 0.950 . S
C1171 C1167 1.393 . S
C1171 C1170 1.391 . S
H1172 C1180 0.950 . S
H1173 C1185 0.950 . S
H1174 C1182 0.950 . S
H1175 C1184 0.950 . S
H1176 C1186 0.950 . S
H1177 C1188 0.950 . S
H1178 C1190 0.950 . S
H1179 C1191 0.950 . S
C1180 H1172 0.950 . S
C1180 C1181 1.386 . S
C1180 C1182 1.391 . S
C1181 C1180 1.386 . S
C1181 C1185 1.393 . S
C1182 H1174 0.950 . S
C1182 C1180 1.391 . S
C1182 C1183 1.400 . S
C1183 C1182 1.400 . S
C1183 C1184 1.398 . S
C1183 C1189 1.491 . S
C1184 H1175 0.950 . S
C1184 C1183 1.398 . S
C1184 C1185 1.391 . S
C1185 H1173 0.950 . S
C1185 C1181 1.393 . S
C1185 C1184 1.391 . S
C1186 H1176 0.950 . S
C1186 C1187 1.386 . S
C1186 C1188 1.391 . S
C1187 C1186 1.386 . S
C1187 C1191 1.393 . S
C1188 H1177 0.950 . S
C1188 C1186 1.391 . S
C1188 C1189 1.400 . S
C1189 C1183 1.491 . S
C1189 C1188 1.400 . S
C1189 C1190 1.398 . S
C1190 H1178 0.950 . S
C1190 C1189 1.398 . S
C1190 C1191 1.391 . S
C1191 H1179 0.950 . S
C1191 C1187 1.393 . S
C1191 C1190 1.391 . S
H1192 C1200 0.950 . S
H1193 C1205 0.950 . S
H1194 C1202 0.950 . S
H1195 C1204 0.950 . S
H1196 C1206 0.950 . S
H1197 C1208 0.950 . S
H1198 C1210 0.950 . S
H1199 C1211 0.950 . S
C1200 H1192 0.950 . S
C1200 C1201 1.386 . S
C1200 C1202 1.391 . S
C1201 C1200 1.386 . S
C1201 C1205 1.393 . S
C1202 H1194 0.950 . S
C1202 C1200 1.391 . S
C1202 C1203 1.400 . S
C1203 C1202 1.400 . S
C1203 C1204 1.398 . S
C1203 C1209 1.491 . S
C1204 H1195 0.950 . S
C1204 C1203 1.398 . S
C1204 C1205 1.391 . S
C1205 H1193 0.950 . S
C1205 C1201 1.393 . S
C1205 C1204 1.391 . S
C1206 H1196 0.950 . S
C1206 C1207 1.386 . S
C1206 C1208 1.391 . S
C1207 C1206 1.386 . S
C1207 C1211 1.393 . S
C1208 H1197 0.950 . S
C1208 C1206 1.391 . S
C1208 C1209 1.400 . S
C1209 C1203 1.491 . S
C1209 C1208 1.400 . S
C1209 C1210 1.398 . S
C1210 H1198 0.950 . S
C1210 C1209 1.398 . S
C1210 C1211 1.391 . S
C1211 H1199 0.950 . S
C1211 C1207 1.393 . S
C1211 C1210 1.391 . S
H1212 C1220 0.950 . S
H1213 C1225 0.950 . S
H1214 C1222 0.950 . S
H1215 C1224 0.950 . S
H1216 C1226 0.950 . S
H1217 C1228 0.950 . S
H1218 C1230 0.950 . S
H1219 C1231 0.950 . S
C1220 H1212 0.950 . S
C1220 C1221 1.386 . S
C1220 C1222 1.391 . S
C1221 C1220 1.386 . S
C1221 C1225 1.393 . S
C1222 H1214 0.950 . S
C1222 C1220 1.391 . S
C1222 C1223 1.400 . S
C1223 C1222 1.400 . S
C1223 C1224 1.398 . S
C1223 C1229 1.491 . S
C1224 H1215 0.950 . S
C1224 C1223 1.398 . S
C1224 C1225 1.391 . S
C1225 H1213 0.950 . S
C1225 C1221 1.393 . S
C1225 C1224 1.391 . S
C1226 H1216 0.950 . S
C1226 C1227 1.386 . S
C1226 C1228 1.391 . S
C1227 C1226 1.386 . S
C1227 C1231 1.393 . S
C1228 H1217 0.950 . S
C1228 C1226 1.391 . S
C1228 C1229 1.400 . S
C1229 C1223 1.491 . S
C1229 C1228 1.400 . S
C1229 C1230 1.398 . S
C1230 H1218 0.950 . S
C1230 C1229 1.398 . S
C1230 C1231 1.391 . S
C1231 H1219 0.950 . S
C1231 C1227 1.393 . S
C1231 C1230 1.391 . S
H1232 C1240 0.950 . S
H1233 C1245 0.950 . S
H1234 C1242 0.950 . S
H1235 C1244 0.950 . S
H1236 C1246 0.950 . S
H1237 C1248 0.950 . S
H1238 C1250 0.950 1_556 S
H1239 C1251 0.950 . S
C1240 H1232 0.950 . S
C1240 C1241 1.386 . S
C1240 C1242 1.391 . S
C1241 C1240 1.386 . S
C1241 C1245 1.393 . S
C1242 H1234 0.950 . S
C1242 C1240 1.391 . S
C1242 C1243 1.400 . S
C1243 C1242 1.400 . S
C1243 C1244 1.398 . S
C1243 C1249 1.491 1_556 S
C1244 H1235 0.950 . S
C1244 C1243 1.398 . S
C1244 C1245 1.391 . S
C1245 H1233 0.950 . S
C1245 C1241 1.393 . S
C1245 C1244 1.391 . S
C1246 H1236 0.950 . S
C1246 C1247 1.386 . S
C1246 C1248 1.391 . S
C1247 C1246 1.386 . S
C1247 C1251 1.393 . S
C1248 H1237 0.950 . S
C1248 C1246 1.391 . S
C1248 C1249 1.400 . S
C1249 C1243 1.491 1_554 S
C1249 C1248 1.400 . S
C1249 C1250 1.398 . S
C1250 H1238 0.950 1_554 S
C1250 C1249 1.398 . S
C1250 C1251 1.391 . S
C1251 H1239 0.950 . S
C1251 C1247 1.393 . S
C1251 C1250 1.391 . S
H1252 C1260 0.950 . S
H1253 C1265 0.950 . S
H1254 C1262 0.950 1_556 S
H1255 C1264 0.950 . S
H1256 C1266 0.950 . S
H1257 C1268 0.950 . S
H1258 C1270 0.950 . S
H1259 C1271 0.950 . S
C1260 H1252 0.950 . S
C1260 C1261 1.386 . S
C1260 C1262 1.391 . S
C1261 C1260 1.386 . S
C1261 C1265 1.393 . S
C1262 H1254 0.950 1_554 S
C1262 C1260 1.391 . S
C1262 C1263 1.400 . S
C1263 C1262 1.400 . S
C1263 C1264 1.398 . S
C1263 C1269 1.491 1_554 S
C1264 H1255 0.950 . S
C1264 C1263 1.398 . S
C1264 C1265 1.391 . S
C1265 H1253 0.950 . S
C1265 C1261 1.393 . S
C1265 C1264 1.391 . S
C1266 H1256 0.950 . S
C1266 C1267 1.386 . S
C1266 C1268 1.391 . S
C1267 C1266 1.386 . S
C1267 C1271 1.393 . S
C1268 H1257 0.950 . S
C1268 C1266 1.391 . S
C1268 C1269 1.400 . S
C1269 C1263 1.491 1_556 S
C1269 C1268 1.400 . S
C1269 C1270 1.398 . S
C1270 H1258 0.950 . S
C1270 C1269 1.398 . S
C1270 C1271 1.391 . S
C1271 H1259 0.950 . S
C1271 C1267 1.393 . S
C1271 C1270 1.391 . S
H1272 C1280 0.950 . S
H1273 C1285 0.950 . S
H1274 C1282 0.950 . S
H1275 C1284 0.950 . S
H1276 C1286 0.950 . S
H1277 C1288 0.950 1_556 S
H1278 C1290 0.950 . S
H1279 C1291 0.950 . S
C1280 H1272 0.950 . S
C1280 C1281 1.386 . S
C1280 C1282 1.391 . S
C1281 C1280 1.386 . S
C1281 C1285 1.393 . S
C1282 H1274 0.950 . S
C1282 C1280 1.391 . S
C1282 C1283 1.400 . S
C1283 C1282 1.400 . S
C1283 C1284 1.398 . S
C1283 C1289 1.491 1_556 S
C1284 H1275 0.950 . S
C1284 C1283 1.398 . S
C1284 C1285 1.391 . S
C1285 H1273 0.950 . S
C1285 C1281 1.393 . S
C1285 C1284 1.391 . S
C1286 H1276 0.950 . S
C1286 C1287 1.386 . S
C1286 C1288 1.391 . S
C1287 C1286 1.386 . S
C1287 C1291 1.393 . S
C1288 H1277 0.950 1_554 S
C1288 C1286 1.391 . S
C1288 C1289 1.400 . S
C1289 C1283 1.491 1_554 S
C1289 C1288 1.400 . S
C1289 C1290 1.398 . S
C1290 H1278 0.950 . S
C1290 C1289 1.398 . S
C1290 C1291 1.391 . S
C1291 H1279 0.950 . S
C1291 C1287 1.393 . S
C1291 C1290 1.391 . S
H1292 C1300 0.950 . S
H1293 C1305 0.950 . S
H1294 C1302 0.950 1_556 S
H1295 C1304 0.950 . S
H1296 C1306 0.950 . S
H1297 C1308 0.950 . S
H1298 C1310 0.950 . S
H1299 C1311 0.950 . S
C1300 H1292 0.950 . S
C1300 C1301 1.386 . S
C1300 C1302 1.391 . S
C1301 C1300 1.386 . S
C1301 C1305 1.393 . S
C1302 H1294 0.950 1_554 S
C1302 C1300 1.391 . S
C1302 C1303 1.400 . S
C1303 C1302 1.400 . S
C1303 C1304 1.398 . S
C1303 C1309 1.491 1_554 S
C1304 H1295 0.950 . S
C1304 C1303 1.398 . S
C1304 C1305 1.391 . S
C1305 H1293 0.950 . S
C1305 C1301 1.393 . S
C1305 C1304 1.391 . S
C1306 H1296 0.950 . S
C1306 C1307 1.386 . S
C1306 C1308 1.391 . S
C1307 C1306 1.386 . S
C1307 C1311 1.393 . S
C1308 H1297 0.950 . S
C1308 C1306 1.391 . S
C1308 C1309 1.400 . S
C1309 C1303 1.491 1_556 S
C1309 C1308 1.400 . S
C1309 C1310 1.398 . S
C1310 H1298 0.950 . S
C1310 C1309 1.398 . S
C1310 C1311 1.391 . S
C1311 H1299 0.950 . S
C1311 C1307 1.393 . S
C1311 C1310 1.391 . S
H1312 C1320 0.950 . S
H1313 C1325 0.950 . S
H1314 C1322 0.950 . S
H1315 C1324 0.950 . S
H1316 C1326 0.950 . S
H1317 C1328 0.950 . S
H1318 C1330 0.950 . S
H1319 C1331 0.950 . S
C1320 H1312 0.950 . S
C1320 C1321 1.386 . S
C1320 C1322 1.391 . S
C1321 C1320 1.386 . S
C1321 C1325 1.393 . S
C1322 H1314 0.950 . S
C1322 C1320 1.391 . S
C1322 C1323 1.400 . S
C1323 C1322 1.400 . S
C1323 C1324 1.398 . S
C1323 C1329 1.491 . S
C1324 H1315 0.950 . S
C1324 C1323 1.398 . S
C1324 C1325 1.391 . S
C1325 H1313 0.950 . S
C1325 C1321 1.393 . S
C1325 C1324 1.391 . S
C1326 H1316 0.950 . S
C1326 C1327 1.386 . S
C1326 C1328 1.391 . S
C1327 C1326 1.386 . S
C1327 C1331 1.393 . S
C1328 H1317 0.950 . S
C1328 C1326 1.391 . S
C1328 C1329 1.400 . S
C1329 C1323 1.491 . S
C1329 C1328 1.400 . S
C1329 C1330 1.398 . S
C1330 H1318 0.950 . S
C1330 C1329 1.398 . S
C1330 C1331 1.391 . S
C1331 H1319 0.950 . S
C1331 C1327 1.393 . S
C1331 C1330 1.391 . S
H1332 C1340 0.950 . S
H1333 C1345 0.950 . S
H1334 C1342 0.950 . S
H1335 C1344 0.950 . S
H1336 C1346 0.950 . S
H1337 C1348 0.950 . S
H1338 C1350 0.950 . S
H1339 C1351 0.950 . S
C1340 H1332 0.950 . S
C1340 C1341 1.386 . S
C1340 C1342 1.391 . S
C1341 C1340 1.386 . S
C1341 C1345 1.393 . S
C1342 H1334 0.950 . S
C1342 C1340 1.391 . S
C1342 C1343 1.400 . S
C1343 C1342 1.400 . S
C1343 C1344 1.398 . S
C1343 C1349 1.491 . S
C1344 H1335 0.950 . S
C1344 C1343 1.398 . S
C1344 C1345 1.391 . S
C1345 H1333 0.950 . S
C1345 C1341 1.393 . S
C1345 C1344 1.391 . S
C1346 H1336 0.950 . S
C1346 C1347 1.386 . S
C1346 C1348 1.391 . S
C1347 C1346 1.386 . S
C1347 C1351 1.393 . S
C1348 H1337 0.950 . S
C1348 C1346 1.391 . S
C1348 C1349 1.400 . S
C1349 C1343 1.491 . S
C1349 C1348 1.400 . S
C1349 C1350 1.398 . S
C1350 H1338 0.950 . S
C1350 C1349 1.398 . S
C1350 C1351 1.391 . S
C1351 H1339 0.950 . S
C1351 C1347 1.393 . S
C1351 C1350 1.391 . S
H1352 C1360 0.950 . S
H1353 C1365 0.950 . S
H1354 C1362 0.950 . S
H1355 C1364 0.950 . S
H1356 C1366 0.950 . S
H1357 C1368 0.950 . S
H1358 C1370 0.950 . S
H1359 C1371 0.950 . S
C1360 H1352 0.950 . S
C1360 C1361 1.386 . S
C1360 C1362 1.391 . S
C1361 C1360 1.386 . S
C1361 C1365 1.393 . S
C1362 H1354 0.950 . S
C1362 C1360 1.391 . S
C1362 C1363 1.400 . S
C1363 C1362 1.400 . S
C1363 C1364 1.398 . S
C1363 C1369 1.491 . S
C1364 H1355 0.950 . S
C1364 C1363 1.398 . S
C1364 C1365 1.391 . S
C1365 H1353 0.950 . S
C1365 C1361 1.393 . S
C1365 C1364 1.391 . S
C1366 H1356 0.950 . S
C1366 C1367 1.386 . S
C1366 C1368 1.391 . S
C1367 C1366 1.386 . S
C1367 C1371 1.393 . S
C1368 H1357 0.950 . S
C1368 C1366 1.391 . S
C1368 C1369 1.400 . S
C1369 C1363 1.491 . S
C1369 C1368 1.400 . S
C1369 C1370 1.398 . S
C1370 H1358 0.950 . S
C1370 C1369 1.398 . S
C1370 C1371 1.391 . S
C1371 H1359 0.950 . S
C1371 C1367 1.393 . S
C1371 C1370 1.391 . S
H1372 C1380 0.950 . S
H1373 C1385 0.950 . S
H1374 C1382 0.950 . S
H1375 C1384 0.950 . S
H1376 C1386 0.950 . S
H1377 C1388 0.950 . S
H1378 C1390 0.950 . S
H1379 C1391 0.950 . S
C1380 H1372 0.950 . S
C1380 C1381 1.386 . S
C1380 C1382 1.391 . S
C1381 C1380 1.386 . S
C1381 C1385 1.393 . S
C1382 H1374 0.950 . S
C1382 C1380 1.391 . S
C1382 C1383 1.400 . S
C1383 C1382 1.400 . S
C1383 C1384 1.398 . S
C1383 C1389 1.491 . S
C1384 H1375 0.950 . S
C1384 C1383 1.398 . S
C1384 C1385 1.391 . S
C1385 H1373 0.950 . S
C1385 C1381 1.393 . S
C1385 C1384 1.391 . S
C1386 H1376 0.950 . S
C1386 C1387 1.386 . S
C1386 C1388 1.391 . S
C1387 C1386 1.386 . S
C1387 C1391 1.393 . S
C1388 H1377 0.950 . S
C1388 C1386 1.391 . S
C1388 C1389 1.400 . S
C1389 C1383 1.491 . S
C1389 C1388 1.400 . S
C1389 C1390 1.398 . S
C1390 H1378 0.950 . S
C1390 C1389 1.398 . S
C1390 C1391 1.391 . S
C1391 H1379 0.950 . S
C1391 C1387 1.393 . S
C1391 C1390 1.391 . S
H1392 C1400 0.950 . S
H1393 C1405 0.950 . S
H1394 C1402 0.950 . S
H1395 C1404 0.950 . S
H1396 C1406 0.950 . S
H1397 C1408 0.950 . S
H1398 C1410 0.950 . S
H1399 C1411 0.950 . S
C1400 H1392 0.950 . S
C1400 C1401 1.386 . S
C1400 C1402 1.391 . S
C1401 C1400 1.386 . S
C1401 C1405 1.393 . S
C1402 H1394 0.950 . S
C1402 C1400 1.391 . S
C1402 C1403 1.400 . S
C1403 C1402 1.400 . S
C1403 C1404 1.398 . S
C1403 C1409 1.491 1_556 S
C1404 H1395 0.950 . S
C1404 C1403 1.398 . S
C1404 C1405 1.391 . S
C1405 H1393 0.950 . S
C1405 C1401 1.393 . S
C1405 C1404 1.391 . S
C1406 H1396 0.950 . S
C1406 C1407 1.386 . S
C1406 C1408 1.391 . S
C1407 C1406 1.386 . S
C1407 C1411 1.393 . S
C1408 H1397 0.950 . S
C1408 C1406 1.391 . S
C1408 C1409 1.400 . S
C1409 C1403 1.491 1_554 S
C1409 C1408 1.400 . S
C1409 C1410 1.398 . S
C1410 H1398 0.950 . S
C1410 C1409 1.398 . S
C1410 C1411 1.391 . S
C1411 H1399 0.950 . S
C1411 C1407 1.393 . S
C1411 C1410 1.391 . S
H1412 C1420 0.950 . S
H1413 C1425 0.950 . S
H1414 C1422 0.950 . S
H1415 C1424 0.950 1_554 S
H1416 C1426 0.950 . S
H1417 C1428 0.950 . S
H1418 C1430 0.950 . S
H1419 C1431 0.950 . S
C1420 H1412 0.950 . S
C1420 C1421 1.386 . S
C1420 C1422 1.391 . S
C1421 C1420 1.386 . S
C1421 C1425 1.393 . S
C1422 H1414 0.950 . S
C1422 C1420 1.391 . S
C1422 C1423 1.400 . S
C1423 C1422 1.400 . S
C1423 C1424 1.398 . S
C1423 C1429 1.491 1_556 S
C1424 H1415 0.950 1_556 S
C1424 C1423 1.398 . S
C1424 C1425 1.391 . S
C1425 H1413 0.950 . S
C1425 C1421 1.393 . S
C1425 C1424 1.391 . S
C1426 H1416 0.950 . S
C1426 C1427 1.386 . S
C1426 C1428 1.391 . S
C1427 C1426 1.386 . S
C1427 C1431 1.393 . S
C1428 H1417 0.950 . S
C1428 C1426 1.391 . S
C1428 C1429 1.400 . S
C1429 C1423 1.491 1_554 S
C1429 C1428 1.400 . S
C1429 C1430 1.398 . S
C1430 H1418 0.950 . S
C1430 C1429 1.398 . S
C1430 C1431 1.391 . S
C1431 H1419 0.950 . S
C1431 C1427 1.393 . S
C1431 C1430 1.391 . S
H1432 C1440 0.950 . S
H1433 C1445 0.950 . S
H1434 C1442 0.950 . S
H1435 C1444 0.950 . S
H1436 C1446 0.950 . S
H1437 C1448 0.950 1_554 S
H1438 C1450 0.950 . S
H1439 C1451 0.950 . S
C1440 H1432 0.950 . S
C1440 C1441 1.386 . S
C1440 C1442 1.391 . S
C1441 C1440 1.386 . S
C1441 C1445 1.393 . S
C1442 H1434 0.950 . S
C1442 C1440 1.391 . S
C1442 C1443 1.400 . S
C1443 C1442 1.400 . S
C1443 C1444 1.398 . S
C1443 C1449 1.491 1_554 S
C1444 H1435 0.950 . S
C1444 C1443 1.398 . S
C1444 C1445 1.391 . S
C1445 H1433 0.950 . S
C1445 C1441 1.393 . S
C1445 C1444 1.391 . S
C1446 H1436 0.950 . S
C1446 C1447 1.386 . S
C1446 C1448 1.391 . S
C1447 C1446 1.386 . S
C1447 C1451 1.393 . S
C1448 H1437 0.950 1_556 S
C1448 C1446 1.391 . S
C1448 C1449 1.400 . S
C1449 C1443 1.491 1_556 S
C1449 C1448 1.400 . S
C1449 C1450 1.398 . S
C1450 H1438 0.950 . S
C1450 C1449 1.398 . S
C1450 C1451 1.391 . S
C1451 H1439 0.950 . S
C1451 C1447 1.393 . S
C1451 C1450 1.391 . S
H1452 C1460 0.950 . S
H1453 C1465 0.950 . S
H1454 C1462 0.950 . S
H1455 C1464 0.950 . S
H1456 C1466 0.950 . S
H1457 C1468 0.950 . S
H1458 C1470 0.950 1_554 S
H1459 C1471 0.950 . S
C1460 H1452 0.950 . S
C1460 C1461 1.386 . S
C1460 C1462 1.391 . S
C1461 C1460 1.386 . S
C1461 C1465 1.393 . S
C1462 H1454 0.950 . S
C1462 C1460 1.391 . S
C1462 C1463 1.400 . S
C1463 C1462 1.400 . S
C1463 C1464 1.398 . S
C1463 C1469 1.491 1_554 S
C1464 H1455 0.950 . S
C1464 C1463 1.398 . S
C1464 C1465 1.391 . S
C1465 H1453 0.950 . S
C1465 C1461 1.393 . S
C1465 C1464 1.391 . S
C1466 H1456 0.950 . S
C1466 C1467 1.386 . S
C1466 C1468 1.391 . S
C1467 C1466 1.386 . S
C1467 C1471 1.393 . S
C1468 H1457 0.950 . S
C1468 C1466 1.391 . S
C1468 C1469 1.400 . S
C1469 C1463 1.491 1_556 S
C1469 C1468 1.400 . S
C1469 C1470 1.398 . S
C1470 H1458 0.950 1_556 S
C1470 C1469 1.398 . S
C1470 C1471 1.391 . S
C1471 H1459 0.950 . S
C1471 C1467 1.393 . S
C1471 C1470 1.391 . S
C521 C4 1.604 . S
C527 C164 1.603 . S
C541 C221 1.602 . S
C547 C61 1.592 . S
C561 C68 1.589 . S
C567 C228 1.611 . S
C581 C125 1.594 . S
C587 C132 1.610 . S
C601 C445 1.598 . S
C607 C260 1.595 . S
C621 C477 1.593 . S
C627 C317 1.600 . S
C641 C349 1.610 . S
C647 C484 1.594 . S
C661 C381 1.611 . S
C667 C388 1.594 . S
C681 C2 1.945 . S
C687 N109 1.712 . S
C701 C38 1.946 . S
C707 N18 1.716 . S
C721 C66 1.945 1_455 S
C727 N45 1.701 . S
C741 C102 1.945 1_545 S
C747 N82 1.710 . S
C761 C130 1.945 1_655 S
C767 N178 1.701 . S
C781 N205 1.738 . S
C787 C162 1.956 1_565 S
C801 C198 1.955 . S
C807 N242 1.718 . S
C821 N146 1.733 . S
C827 C226 1.952 . S
C841 N365 1.701 . S
C847 C258 1.945 . S
C861 C294 1.946 . S
C867 N274 1.715 . S
C881 C326 1.950 1_655 S
C887 N301 1.705 . S
C901 C358 1.947 1_565 S
C907 N333 1.701 . S
C921 C386 1.945 1_455 S
C927 N429 1.710 . S
C941 C422 1.957 1_545 S
C947 N461 1.728 . S
C961 C454 1.958 . S
C967 N498 1.736 . S
C981 C482 1.955 . S
C987 N402 1.737 . S
C1001 C29 1.022 . S
C1007 C93 1.024 . S
C1021 C36 1.019 . S
C1027 C100 1.021 . S
C1041 C196 1.005 . S
C1047 C157 1.008 . S
C1061 C253 1.029 . S
C1067 C189 1.029 . S
C1081 C324 1.029 . S
C1087 C285 1.028 . S
C1101 C356 1.020 . S
C1107 C292 1.017 . S
C1121 C413 1.025 . S
C1127 C452 1.023 . S
C1141 C420 1.023 . S
C1147 C509 1.025 . S
C1161 N13 1.242 . S
C1167 C354 1.251 . S
C1181 C262 1.251 . S
C1187 N50 1.238 . S
C1201 N77 1.226 . S
C1207 C290 1.251 . S
C1221 C322 1.252 . S
C1227 N114 1.242 . S
C1241 C418 1.252 . S
C1247 N141 1.243 . S
C1261 N173 1.245 . S
C1267 C450 1.251 . S
C1281 C486 1.251 . S
C1287 N210 1.236 . S
C1301 N237 1.241 . S
C1307 C390 1.252 . S
C1321 N269 1.242 . S
C1327 C98 1.251 . S
C1341 N306 1.226 . S
C1347 C6 1.251 . S
C1361 C34 1.251 . S
C1367 N338 1.241 . S
C1381 N370 1.245 . S
C1387 C70 1.251 . S
C1401 N397 1.230 . S
C1407 C166 1.252 . S
C1421 N434 1.236 . S
C1427 C194 1.252 . S
C1441 C230 1.252 . S
C1447 N466 1.242 . S
C1461 C134 1.251 . S
C1467 N493 1.231 . S
