# Generated by pormake.
# Topology wgb, (5)-cn, num edge types: 1
# Building blocks:
#     Node 0, Type 0, BuildingBlock: XOMCOT_clean_sbu_0, # of connection points: 5
#     Node 1, Type 0, BuildingBlock: XOMCOT_clean_sbu_0, # of connection points: 5
#     Node 2, Type 0, BuildingBlock: XOMCOT_clean_sbu_0, # of connection points: 5
#     Node 3, Type 0, BuildingBlock: XOMCOT_clean_sbu_0, # of connection points: 5
#     Node 4, Type 0, BuildingBlock: XOMCOT_clean_sbu_0, # of connection points: 5
#     Node 5, Type 0, BuildingBlock: XOMCOT_clean_sbu_0, # of connection points: 5
#     Node 6, Type 0, BuildingBlock: XOMCOT_clean_sbu_0, # of connection points: 5
#     Node 7, Type 0, BuildingBlock: XOMCOT_clean_sbu_0, # of connection points: 5
#     Node 8, Type 0, BuildingBlock: XOMCOT_clean_sbu_0, # of connection points: 5
#     Node 9, Type 0, BuildingBlock: XOMCOT_clean_sbu_0, # of connection points: 5
#     Node 10, Type 0, BuildingBlock: XOMCOT_clean_sbu_0, # of connection points: 5
#     Node 11, Type 0, BuildingBlock: XOMCOT_clean_sbu_0, # of connection points: 5
#     Node 12, Type 0, BuildingBlock: XOMCOT_clean_sbu_0, # of connection points: 5
#     Node 13, Type 0, BuildingBlock: XOMCOT_clean_sbu_0, # of connection points: 5
#     Node 14, Type 0, BuildingBlock: XOMCOT_clean_sbu_0, # of connection points: 5
#     Node 15, Type 0, BuildingBlock: XOMCOT_clean_sbu_0, # of connection points: 5
#     Edge 16, Type (0, 0), BuildingBlock: ZUJKAS_clean_linker_0, # of connection points: 2
#     Edge 17, Type (0, 0), BuildingBlock: ZUJKAS_clean_linker_0, # of connection points: 2
#     Edge 18, Type (0, 0), BuildingBlock: ZUJKAS_clean_linker_0, # of connection points: 2
#     Edge 19, Type (0, 0), BuildingBlock: ZUJKAS_clean_linker_0, # of connection points: 2
#     Edge 20, Type (0, 0), BuildingBlock: ZUJKAS_clean_linker_0, # of connection points: 2
#     Edge 21, Type (0, 0), BuildingBlock: ZUJKAS_clean_linker_0, # of connection points: 2
#     Edge 22, Type (0, 0), BuildingBlock: ZUJKAS_clean_linker_0, # of connection points: 2
#     Edge 23, Type (0, 0), BuildingBlock: ZUJKAS_clean_linker_0, # of connection points: 2
#     Edge 24, Type (0, 0), BuildingBlock: ZUJKAS_clean_linker_0, # of connection points: 2
#     Edge 25, Type (0, 0), BuildingBlock: ZUJKAS_clean_linker_0, # of connection points: 2
#     Edge 26, Type (0, 0), BuildingBlock: ZUJKAS_clean_linker_0, # of connection points: 2
#     Edge 27, Type (0, 0), BuildingBlock: ZUJKAS_clean_linker_0, # of connection points: 2
#     Edge 28, Type (0, 0), BuildingBlock: ZUJKAS_clean_linker_0, # of connection points: 2
#     Edge 29, Type (0, 0), BuildingBlock: ZUJKAS_clean_linker_0, # of connection points: 2
#     Edge 30, Type (0, 0), BuildingBlock: ZUJKAS_clean_linker_0, # of connection points: 2
#     Edge 31, Type (0, 0), BuildingBlock: ZUJKAS_clean_linker_0, # of connection points: 2
#     Edge 32, Type (0, 0), BuildingBlock: ZUJKAS_clean_linker_0, # of connection points: 2
#     Edge 33, Type (0, 0), BuildingBlock: ZUJKAS_clean_linker_0, # of connection points: 2
#     Edge 34, Type (0, 0), BuildingBlock: ZUJKAS_clean_linker_0, # of connection points: 2
#     Edge 35, Type (0, 0), BuildingBlock: ZUJKAS_clean_linker_0, # of connection points: 2
#     Edge 36, Type (0, 0), BuildingBlock: ZUJKAS_clean_linker_0, # of connection points: 2
#     Edge 37, Type (0, 0), BuildingBlock: ZUJKAS_clean_linker_0, # of connection points: 2
#     Edge 38, Type (0, 0), BuildingBlock: ZUJKAS_clean_linker_0, # of connection points: 2
#     Edge 39, Type (0, 0), BuildingBlock: ZUJKAS_clean_linker_0, # of connection points: 2
#     Edge 40, Type (0, 0), BuildingBlock: ZUJKAS_clean_linker_0, # of connection points: 2
#     Edge 41, Type (0, 0), BuildingBlock: ZUJKAS_clean_linker_0, # of connection points: 2
#     Edge 42, Type (0, 0), BuildingBlock: ZUJKAS_clean_linker_0, # of connection points: 2
#     Edge 43, Type (0, 0), BuildingBlock: ZUJKAS_clean_linker_0, # of connection points: 2
#     Edge 44, Type (0, 0), BuildingBlock: ZUJKAS_clean_linker_0, # of connection points: 2
#     Edge 45, Type (0, 0), BuildingBlock: ZUJKAS_clean_linker_0, # of connection points: 2
#     Edge 46, Type (0, 0), BuildingBlock: ZUJKAS_clean_linker_0, # of connection points: 2
#     Edge 47, Type (0, 0), BuildingBlock: ZUJKAS_clean_linker_0, # of connection points: 2
#     Edge 48, Type (0, 0), BuildingBlock: ZUJKAS_clean_linker_0, # of connection points: 2
#     Edge 49, Type (0, 0), BuildingBlock: ZUJKAS_clean_linker_0, # of connection points: 2
#     Edge 50, Type (0, 0), BuildingBlock: ZUJKAS_clean_linker_0, # of connection points: 2
#     Edge 51, Type (0, 0), BuildingBlock: ZUJKAS_clean_linker_0, # of connection points: 2
#     Edge 52, Type (0, 0), BuildingBlock: ZUJKAS_clean_linker_0, # of connection points: 2
#     Edge 53, Type (0, 0), BuildingBlock: ZUJKAS_clean_linker_0, # of connection points: 2
#     Edge 54, Type (0, 0), BuildingBlock: ZUJKAS_clean_linker_0, # of connection points: 2
#     Edge 55, Type (0, 0), BuildingBlock: ZUJKAS_clean_linker_0, # of connection points: 2
# Relax obj value: 0.092
# Max RMSD: 0.117
# Mean RMSD: 0.117
data_MOF--net-wgb--node1-XOMCOT_clean_sbu_0--edge1-ZUJKAS_clean_linker_0
_symmetry_space_group_name_H-M    P1
_symmetry_Int_Tables_number       1
_symmetry_cell_setting            triclinic
loop_
_symmetry_equiv_pos_as_xyz
'x, y, z'
_cell_length_a     72.553629
_cell_length_b     72.659701
_cell_length_c     34.788296
_cell_angle_alpha  89.95179
_cell_angle_beta   90.003964
_cell_angle_gamma 90.02801
loop_
_atom_site_label
_atom_site_type_symbol
_atom_site_fract_x
_atom_site_fract_y
_atom_site_fract_z
_atom_type_partial_charge
Co0 Co 0.34055 0.10375 0.17926 0.0
C1 C 0.33418 0.14454 0.17306 0.0
C2 C 0.32755 0.13355 0.22847 0.0
C3 C 0.32548 0.15232 0.22975 0.0
N4 N 0.33266 0.12853 0.19274 0.0
N5 N 0.32966 0.1593 0.19488 0.0
H6 H 0.33915 0.14558 0.14404 0.0
H7 H 0.32622 0.12424 0.25258 0.0
C8 C 0.30295 0.09854 0.21323 0.0
O9 O 0.2966 0.11152 0.1905 0.0
N10 N 0.34869 0.07914 0.16755 0.0
C11 C 0.35623 0.07321 0.1345 0.0
C12 C 0.36129 0.05507 0.1391 0.0
C13 C 0.34933 0.0647 0.19186 0.0
N14 N 0.35697 0.0497 0.17522 0.0
C15 C 0.33164 0.11478 0.10186 0.0
C16 C 0.30238 0.09098 0.09143 0.0
C17 C 0.30685 0.10325 0.06166 0.0
C18 C 0.32197 0.11502 0.06708 0.0
C19 C 0.31248 0.09118 0.12571 0.0
N20 N 0.32623 0.10376 0.13157 0.0
H21 H 0.34388 0.1231 0.10431 0.0
H22 H 0.30934 0.08097 0.14728 0.0
H23 H 0.35828 0.0816 0.10917 0.0
H24 H 0.34444 0.0653 0.2212 0.0
O25 O 0.36382 0.11342 0.16032 0.0
O26 O 0.35822 0.10492 0.22039 0.0
O27 O 0.31969 0.09327 0.21063 0.0
C28 C 0.36981 0.11148 0.19542 0.0
H29 H 0.32206 0.16023 0.2551 0.0
H30 H 0.36817 0.04672 0.11775 0.0
H31 H 0.29112 0.0813 0.08846 0.0
H32 H 0.32662 0.12405 0.04428 0.0
Co33 Co 0.10394 0.66476 0.83752 0.0
C34 C 0.14492 0.67042 0.84362 0.0
C35 C 0.13404 0.67695 0.78805 0.0
C36 C 0.15289 0.67855 0.78657 0.0
N37 N 0.1289 0.67219 0.82399 0.0
N38 N 0.15971 0.67442 0.82151 0.0
H39 H 0.14606 0.66511 0.87242 0.0
H40 H 0.12474 0.67841 0.76394 0.0
C41 C 0.09932 0.7019 0.80161 0.0
O42 O 0.1121 0.70828 0.82484 0.0
N43 N 0.07913 0.65705 0.84912 0.0
C44 C 0.07289 0.64996 0.88239 0.0
C45 C 0.05466 0.64513 0.87762 0.0
C46 C 0.06479 0.65638 0.82454 0.0
N47 N 0.04955 0.64915 0.84118 0.0
C48 C 0.11494 0.67501 0.91409 0.0
C49 C 0.09057 0.70389 0.92295 0.0
C50 C 0.10285 0.69993 0.95301 0.0
C51 C 0.11498 0.68507 0.94833 0.0
C52 C 0.09101 0.69344 0.88916 0.0
N53 N 0.1038 0.67983 0.88412 0.0
H54 H 0.12349 0.66295 0.91234 0.0
H55 H 0.08076 0.69612 0.86737 0.0
H56 H 0.08112 0.64808 0.90801 0.0
H57 H 0.06562 0.66096 0.79501 0.0
O58 O 0.11327 0.64188 0.85867 0.0
O59 O 0.10526 0.64632 0.79788 0.0
O60 O 0.09388 0.68523 0.80445 0.0
C61 C 0.1116 0.63523 0.82408 0.0
H62 H 0.16096 0.68209 0.76146 0.0
H63 H 0.04607 0.63864 0.89912 0.0
H64 H 0.08036 0.71467 0.92585 0.0
H65 H 0.12445 0.68114 0.97094 0.0
Co66 Co 0.66829 0.90369 0.17592 0.0
C67 C 0.67084 0.86318 0.16722 0.0
C68 C 0.67942 0.8724 0.22307 0.0
C69 C 0.68041 0.85354 0.2222 0.0
N70 N 0.67353 0.87842 0.18862 0.0
N71 N 0.67494 0.8477 0.18716 0.0
H72 H 0.66547 0.86342 0.13821 0.0
H73 H 0.68241 0.8811 0.24748 0.0
C74 C 0.69997 0.92547 0.21015 0.0
O75 O 0.69907 0.93784 0.18267 0.0
N76 N 0.66276 0.92929 0.1646 0.0
C77 C 0.66137 0.93804 0.13049 0.0
C78 C 0.65715 0.95624 0.13704 0.0
C79 C 0.65898 0.94226 0.19127 0.0
N80 N 0.65569 0.95887 0.17527 0.0
C81 C 0.67503 0.89905 0.0952 0.0
C82 C 0.71305 0.89861 0.09809 0.0
C83 C 0.7044 0.89758 0.06203 0.0
C84 C 0.68508 0.89752 0.06109 0.0
C85 C 0.70243 0.90014 0.13162 0.0
N86 N 0.68363 0.90126 0.12983 0.0
H87 H 0.66018 0.89906 0.09348 0.0
H88 H 0.7095 0.90006 0.15884 0.0
H89 H 0.66314 0.93197 0.10255 0.0
H90 H 0.65917 0.93965 0.2219 0.0
O91 O 0.64455 0.89644 0.15495 0.0
O92 O 0.64966 0.90404 0.21558 0.0
O93 O 0.68959 0.91128 0.20959 0.0
C94 C 0.63802 0.8987 0.18948 0.0
H95 H 0.6848 0.84482 0.2457 0.0
H96 H 0.65508 0.96667 0.11524 0.0
H97 H 0.72792 0.89796 0.10051 0.0
H98 H 0.67768 0.89669 0.03412 0.0
Co99 Co 0.90538 0.34228 0.83732 0.0
C100 C 0.86434 0.33769 0.84223 0.0
C101 C 0.8755 0.32788 0.78914 0.0
C102 C 0.85667 0.32608 0.78774 0.0
N103 N 0.88047 0.3346 0.8238 0.0
N104 N 0.84966 0.33228 0.82113 0.0
H105 H 0.86311 0.34448 0.8696 0.0
H106 H 0.88484 0.32526 0.76557 0.0
C107 C 0.91105 0.30486 0.80297 0.0
O108 O 0.89874 0.29817 0.82692 0.0
N109 N 0.93009 0.35024 0.84899 0.0
C110 C 0.93623 0.3576 0.88205 0.0
C111 C 0.95445 0.36245 0.87727 0.0
C112 C 0.94447 0.35078 0.82451 0.0
N113 N 0.95964 0.35818 0.84102 0.0
C114 C 0.89377 0.33157 0.91336 0.0
C115 C 0.91933 0.30385 0.92376 0.0
C116 C 0.90633 0.30709 0.95284 0.0
C117 C 0.89364 0.32141 0.94748 0.0
C118 C 0.91892 0.31435 0.89 0.0
N119 N 0.90557 0.32734 0.88413 0.0
H120 H 0.88482 0.34331 0.91122 0.0
H121 H 0.92951 0.3121 0.8687 0.0
H122 H 0.92794 0.35961 0.90755 0.0
H123 H 0.94371 0.34595 0.79516 0.0
O124 O 0.8958 0.36512 0.85805 0.0
O125 O 0.90405 0.36059 0.79741 0.0
O126 O 0.91575 0.32179 0.80475 0.0
C127 C 0.89764 0.37172 0.82343 0.0
H128 H 0.8487 0.32143 0.7633 0.0
H129 H 0.963 0.3691 0.89861 0.0
H130 H 0.9297 0.29324 0.92688 0.0
H131 H 0.88398 0.3251 0.96992 0.0
Co132 Co 0.3415 0.40507 0.09141 0.0
C133 C 0.33791 0.36472 0.10275 0.0
C134 C 0.33233 0.37306 0.04464 0.0
C135 C 0.33118 0.3542 0.04666 0.0
N136 N 0.33652 0.37962 0.07973 0.0
N137 N 0.33472 0.34896 0.08315 0.0
H138 H 0.34176 0.36534 0.13278 0.0
H139 H 0.33065 0.3814 0.01912 0.0
C140 C 0.30967 0.42625 0.05665 0.0
O141 O 0.31011 0.4384 0.08458 0.0
N142 N 0.34681 0.43085 0.10175 0.0
C143 C 0.34871 0.43966 0.13564 0.0
C144 C 0.35328 0.45773 0.12867 0.0
C145 C 0.35052 0.44373 0.07473 0.0
N146 N 0.35444 0.46031 0.09034 0.0
C147 C 0.3349 0.40092 0.17233 0.0
C148 C 0.29689 0.39968 0.1695 0.0
C149 C 0.30557 0.39884 0.20554 0.0
C150 C 0.32489 0.39922 0.20648 0.0
C151 C 0.30747 0.40135 0.13594 0.0
N152 N 0.32624 0.40283 0.13768 0.0
H153 H 0.34975 0.40115 0.17398 0.0
H154 H 0.3004 0.40104 0.10873 0.0
H155 H 0.34711 0.43369 0.16374 0.0
H156 H 0.35049 0.44089 0.0442 0.0
O157 O 0.36541 0.3982 0.11229 0.0
O158 O 0.35991 0.4054 0.05155 0.0
O159 O 0.32019 0.41218 0.05743 0.0
C160 C 0.37172 0.40032 0.07751 0.0
H161 H 0.32802 0.34504 0.02305 0.0
H162 H 0.35542 0.46819 0.15035 0.0
H163 H 0.28204 0.3987 0.16712 0.0
H164 H 0.33231 0.39856 0.23345 0.0
Co165 Co 0.40574 0.66748 0.92295 0.0
C166 C 0.36542 0.67212 0.9118 0.0
C167 C 0.37402 0.67763 0.96973 0.0
C168 C 0.35521 0.67954 0.96771 0.0
N169 N 0.3804 0.67309 0.93472 0.0
N170 N 0.34976 0.67611 0.93128 0.0
H171 H 0.36602 0.66846 0.88171 0.0
H172 H 0.38242 0.67894 0.99525 0.0
C173 C 0.42762 0.69887 0.95799 0.0
O174 O 0.44 0.69816 0.93048 0.0
N175 N 0.4314 0.66157 0.9125 0.0
C176 C 0.44005 0.6592 0.87854 0.0
C177 C 0.45804 0.6542 0.88535 0.0
C178 C 0.44428 0.65769 0.93943 0.0
N179 N 0.46072 0.65323 0.92366 0.0
C180 C 0.40175 0.67414 0.84198 0.0
C181 C 0.40198 0.71212 0.84443 0.0
C182 C 0.40116 0.70342 0.80844 0.0
C183 C 0.40068 0.68413 0.80771 0.0
C184 C 0.40309 0.70156 0.87814 0.0
N185 N 0.40389 0.68276 0.87659 0.0
H186 H 0.40129 0.65931 0.84047 0.0
H187 H 0.40302 0.70867 0.90527 0.0
H188 H 0.434 0.66069 0.85048 0.0
H189 H 0.44153 0.65795 0.96999 0.0
O190 O 0.39823 0.64375 0.9022 0.0
O191 O 0.40559 0.64908 0.96288 0.0
O192 O 0.41334 0.68861 0.95687 0.0
C193 C 0.40016 0.63741 0.93701 0.0
H194 H 0.34624 0.68261 0.99168 0.0
H195 H 0.46836 0.6516 0.86358 0.0
H196 H 0.40201 0.72698 0.84663 0.0
H197 H 0.39937 0.67674 0.78083 0.0
Co198 Co 0.66925 0.60293 0.08601 0.0
C199 C 0.67263 0.64343 0.09353 0.0
C200 C 0.68216 0.63356 0.03886 0.0
C201 C 0.6835 0.65241 0.03912 0.0
N202 N 0.67545 0.62795 0.07296 0.0
N203 N 0.67742 0.65865 0.07339 0.0
H204 H 0.66662 0.64354 0.12199 0.0
H205 H 0.68542 0.62461 0.01501 0.0
C206 C 0.70088 0.58027 0.05386 0.0
O207 O 0.6995 0.56802 0.0815 0.0
N208 N 0.6627 0.57762 0.09767 0.0
C209 C 0.65779 0.57 0.1315 0.0
C210 C 0.65267 0.55202 0.12528 0.0
C211 C 0.66001 0.56424 0.07129 0.0
N212 N 0.65411 0.54834 0.08737 0.0
C213 C 0.67557 0.60735 0.16702 0.0
C214 C 0.71362 0.60711 0.16503 0.0
C215 C 0.70479 0.60802 0.20089 0.0
C216 C 0.68547 0.60851 0.2014 0.0
C217 C 0.70315 0.60592 0.13124 0.0
N218 N 0.68432 0.60506 0.13258 0.0
H219 H 0.66073 0.60808 0.1683 0.0
H220 H 0.71036 0.60598 0.1042 0.0
H221 H 0.65724 0.5769 0.15883 0.0
H222 H 0.66244 0.56622 0.04089 0.0
O223 O 0.64561 0.61106 0.10592 0.0
O224 O 0.65099 0.60291 0.04568 0.0
O225 O 0.69062 0.59453 0.05344 0.0
C226 C 0.6393 0.60875 0.07122 0.0
H227 H 0.68851 0.66083 0.01567 0.0
H228 H 0.64768 0.54261 0.14703 0.0
H229 H 0.72851 0.60711 0.16301 0.0
H230 H 0.678 0.60997 0.22817 0.0
Co231 Co 0.60364 0.34072 0.9213 0.0
C232 C 0.64386 0.33669 0.90927 0.0
C233 C 0.63499 0.32498 0.9629 0.0
C234 C 0.65374 0.32275 0.95982 0.0
N235 N 0.6288 0.33358 0.93112 0.0
N236 N 0.65931 0.33012 0.92616 0.0
H237 H 0.6435 0.34363 0.88175 0.0
H238 H 0.62656 0.32093 0.9871 0.0
C239 C 0.58008 0.31084 0.95819 0.0
O240 O 0.56578 0.31443 0.93635 0.0
N241 N 0.57829 0.34821 0.9123 0.0
C242 C 0.56912 0.34976 0.87873 0.0
C243 C 0.55147 0.3557 0.88613 0.0
C244 C 0.56613 0.35357 0.93953 0.0
N245 N 0.54957 0.35803 0.92439 0.0
C246 C 0.6077 0.3349 0.84003 0.0
C247 C 0.60306 0.29718 0.84032 0.0
C248 C 0.6058 0.30609 0.80497 0.0
C249 C 0.60839 0.32523 0.80531 0.0
C250 C 0.60259 0.30735 0.87441 0.0
N251 N 0.60417 0.32611 0.87399 0.0
H252 H 0.60967 0.34962 0.83937 0.0
H253 H 0.60125 0.29983 0.90087 0.0
H254 H 0.57452 0.34671 0.85063 0.0
H255 H 0.56932 0.3539 0.9699 0.0
O256 O 0.61197 0.36438 0.90172 0.0
O257 O 0.6053 0.35834 0.96251 0.0
O258 O 0.59537 0.3193 0.95383 0.0
C259 C 0.61079 0.3702 0.93702 0.0
H260 H 0.66267 0.31666 0.98127 0.0
H261 H 0.54074 0.35766 0.86492 0.0
H262 H 0.60112 0.28242 0.84181 0.0
H263 H 0.61111 0.33273 0.77901 0.0
Co264 Co 0.8391 0.6047 0.67735 0.0
C265 C 0.83575 0.64508 0.6674 0.0
C266 C 0.82579 0.6359 0.72234 0.0
C267 C 0.82393 0.65469 0.72045 0.0
N268 N 0.83303 0.62989 0.68901 0.0
N269 N 0.8302 0.66045 0.68597 0.0
H270 H 0.84167 0.64487 0.63884 0.0
H271 H 0.82249 0.62728 0.74671 0.0
C272 C 0.80726 0.58233 0.70945 0.0
O273 O 0.80884 0.56989 0.68228 0.0
N274 N 0.84544 0.57921 0.66695 0.0
C275 C 0.84832 0.57063 0.63309 0.0
C276 C 0.85268 0.55251 0.64011 0.0
C277 C 0.84855 0.56623 0.69403 0.0
N278 N 0.85277 0.54975 0.67843 0.0
C279 C 0.83364 0.6089 0.59596 0.0
C280 C 0.79558 0.60884 0.59643 0.0
C281 C 0.80472 0.60992 0.56092 0.0
C282 C 0.82406 0.61024 0.56118 0.0
C283 C 0.80572 0.6075 0.6306 0.0
N284 N 0.82455 0.60663 0.63004 0.0
H285 H 0.8485 0.60923 0.59527 0.0
H286 H 0.79825 0.6076 0.65734 0.0
H287 H 0.84755 0.5768 0.60502 0.0
H288 H 0.84722 0.56874 0.72457 0.0
O289 O 0.86312 0.6124 0.65837 0.0
O290 O 0.85683 0.6049 0.71861 0.0
O291 O 0.81737 0.59672 0.70938 0.0
C292 C 0.86891 0.61042 0.69357 0.0
H293 H 0.81887 0.66351 0.74318 0.0
H294 H 0.85582 0.54223 0.61858 0.0
H295 H 0.78068 0.60934 0.59794 0.0
H296 H 0.83182 0.61118 0.53468 0.0
Co297 Co 0.60469 0.16676 0.3356 0.0
C298 C 0.64566 0.17289 0.34047 0.0
C299 C 0.63436 0.17902 0.28511 0.0
C300 C 0.65315 0.18107 0.28322 0.0
N301 N 0.62952 0.17427 0.32119 0.0
N302 N 0.6603 0.1772 0.31807 0.0
H303 H 0.64689 0.16821 0.36965 0.0
H304 H 0.6249 0.18018 0.2612 0.0
C305 C 0.59978 0.204 0.3005 0.0
O306 O 0.61274 0.2103 0.32339 0.0
N307 N 0.58002 0.15899 0.34801 0.0
C308 C 0.57403 0.15169 0.38127 0.0
C309 C 0.55577 0.14687 0.37693 0.0
C310 C 0.56552 0.15845 0.32385 0.0
N311 N 0.55042 0.15111 0.34075 0.0
C312 C 0.61621 0.1768 0.41205 0.0
C313 C 0.59167 0.20545 0.4219 0.0
C314 C 0.60424 0.2016 0.45151 0.0
C315 C 0.61646 0.18684 0.44632 0.0
C316 C 0.592 0.19512 0.38799 0.0
N317 N 0.60488 0.18165 0.38241 0.0
H318 H 0.62476 0.16474 0.40999 0.0
H319 H 0.58157 0.19775 0.36655 0.0
H320 H 0.58245 0.14965 0.40658 0.0
H321 H 0.56616 0.16322 0.29443 0.0
O322 O 0.61424 0.14378 0.35592 0.0
O323 O 0.60559 0.14851 0.2956 0.0
O324 O 0.59435 0.18733 0.30327 0.0
C325 C 0.61211 0.13727 0.32131 0.0
H326 H 0.66095 0.1843 0.25759 0.0
H327 H 0.54732 0.14024 0.39848 0.0
H328 H 0.58132 0.21607 0.42518 0.0
H329 H 0.62616 0.18295 0.46852 0.0
Co330 Co 0.1707 0.40179 0.68148 0.0
C331 C 0.17421 0.36148 0.67117 0.0
C332 C 0.18448 0.37052 0.7259 0.0
C333 C 0.18625 0.35172 0.72392 0.0
N334 N 0.17712 0.37663 0.69275 0.0
N335 N 0.17977 0.34605 0.68958 0.0
H336 H 0.16806 0.36175 0.64283 0.0
H337 H 0.18781 0.37905 0.75034 0.0
C338 C 0.20243 0.42426 0.71371 0.0
O339 O 0.20169 0.43597 0.68495 0.0
N340 N 0.16394 0.42719 0.67133 0.0
C341 C 0.15801 0.43489 0.63826 0.0
C342 C 0.15273 0.45274 0.64544 0.0
C343 C 0.16178 0.44041 0.69826 0.0
N344 N 0.15513 0.45619 0.68316 0.0
C345 C 0.17648 0.39845 0.60007 0.0
C346 C 0.21453 0.3987 0.60105 0.0
C347 C 0.20548 0.39816 0.56538 0.0
C348 C 0.18616 0.39767 0.56538 0.0
C349 C 0.20427 0.3995 0.63517 0.0
N350 N 0.18544 0.40037 0.63437 0.0
H351 H 0.16164 0.3976 0.59918 0.0
H352 H 0.21163 0.39912 0.66204 0.0
H353 H 0.15688 0.42811 0.61088 0.0
H354 H 0.16456 0.43832 0.72853 0.0
O355 O 0.14687 0.39379 0.66198 0.0
O356 O 0.15285 0.40119 0.72241 0.0
O357 O 0.19206 0.41006 0.7142 0.0
C358 C 0.14093 0.39565 0.6971 0.0
H359 H 0.19129 0.34284 0.7466 0.0
H360 H 0.14741 0.46239 0.62448 0.0
H361 H 0.22943 0.39868 0.60269 0.0
H362 H 0.17852 0.39646 0.53876 0.0
Co363 Co 0.40413 0.8393 0.33357 0.0
C364 C 0.36364 0.83593 0.34408 0.0
C365 C 0.37259 0.82687 0.28836 0.0
C366 C 0.35377 0.82506 0.29035 0.0
N367 N 0.37878 0.83348 0.3221 0.0
N368 N 0.34814 0.83076 0.32532 0.0
H369 H 0.36396 0.84141 0.37299 0.0
H370 H 0.3811 0.82403 0.26359 0.0
C371 C 0.42623 0.8077 0.30001 0.0
O372 O 0.43852 0.80878 0.32765 0.0
N373 N 0.42979 0.8454 0.34378 0.0
C374 C 0.43867 0.84721 0.37767 0.0
C375 C 0.45677 0.85176 0.37068 0.0
C376 C 0.44262 0.84928 0.31675 0.0
N377 N 0.45925 0.85303 0.33238 0.0
C378 C 0.40009 0.83323 0.41477 0.0
C379 C 0.40011 0.79524 0.41329 0.0
C380 C 0.39907 0.80413 0.44906 0.0
C381 C 0.39879 0.82344 0.4493 0.0
C382 C 0.4014 0.80559 0.37936 0.0
N383 N 0.40229 0.82439 0.38043 0.0
H384 H 0.39987 0.84807 0.41591 0.0
H385 H 0.40127 0.79831 0.35241 0.0
H386 H 0.43274 0.84552 0.40579 0.0
H387 H 0.43991 0.84889 0.28616 0.0
O388 O 0.39661 0.86315 0.35356 0.0
O389 O 0.40385 0.85737 0.29297 0.0
O390 O 0.41189 0.8179 0.30047 0.0
C391 C 0.39845 0.86922 0.31853 0.0
H392 H 0.34483 0.82048 0.26734 0.0
H393 H 0.46724 0.85423 0.39224 0.0
H394 H 0.3996 0.78037 0.4114 0.0
H395 H 0.39793 0.83102 0.47601 0.0
Co396 Co 0.83896 0.90552 0.58583 0.0
C397 C 0.83533 0.86518 0.59528 0.0
C398 C 0.82479 0.87459 0.541 0.0
C399 C 0.82287 0.85579 0.54268 0.0
N400 N 0.83243 0.88045 0.57406 0.0
N401 N 0.82952 0.84989 0.57674 0.0
H402 H 0.8416 0.86526 0.62351 0.0
H403 H 0.82129 0.8833 0.51689 0.0
C404 C 0.8073 0.92833 0.55401 0.0
O405 O 0.80931 0.94101 0.58056 0.0
N406 N 0.84583 0.93086 0.59643 0.0
C407 C 0.85068 0.93868 0.63007 0.0
C408 C 0.85609 0.95653 0.6233 0.0
C409 C 0.84882 0.94399 0.5696 0.0
N410 N 0.85488 0.95992 0.58524 0.0
C411 C 0.83362 0.90126 0.66723 0.0
C412 C 0.79557 0.9019 0.66728 0.0
C413 C 0.80482 0.90061 0.70263 0.0
C414 C 0.82413 0.89999 0.70211 0.0
C415 C 0.80563 0.90321 0.63298 0.0
N416 N 0.82448 0.90377 0.63329 0.0
H417 H 0.84847 0.90041 0.66771 0.0
H418 H 0.79807 0.90339 0.60637 0.0
H419 H 0.85096 0.932 0.65768 0.0
H420 H 0.84647 0.94184 0.53923 0.0
O421 O 0.86285 0.89738 0.60456 0.0
O422 O 0.85662 0.90515 0.54443 0.0
O423 O 0.81724 0.91384 0.55415 0.0
C424 C 0.86864 0.89941 0.56938 0.0
H425 H 0.81755 0.84706 0.52004 0.0
H426 H 0.86111 0.96603 0.64482 0.0
H427 H 0.78066 0.90207 0.66603 0.0
H428 H 0.83191 0.8983 0.72844 0.0
Co429 Co 0.9062 0.16755 0.42196 0.0
C430 C 0.8658 0.17122 0.41014 0.0
C431 C 0.87432 0.17846 0.46734 0.0
C432 C 0.85545 0.17965 0.46538 0.0
N433 N 0.88078 0.1732 0.43279 0.0
N434 N 0.8501 0.17506 0.42951 0.0
H435 H 0.86633 0.16647 0.38068 0.0
H436 H 0.88273 0.18083 0.49253 0.0
C437 C 0.92816 0.19846 0.45897 0.0
O438 O 0.94233 0.19592 0.43614 0.0
N439 N 0.93193 0.16156 0.4124 0.0
C440 C 0.94147 0.16156 0.37908 0.0
C441 C 0.95945 0.1567 0.38655 0.0
C442 C 0.94425 0.15634 0.43947 0.0
N443 N 0.9612 0.15349 0.42455 0.0
C444 C 0.90235 0.1738 0.34085 0.0
C445 C 0.90407 0.21176 0.34251 0.0
C446 C 0.9029 0.20292 0.30675 0.0
C447 C 0.90166 0.18366 0.30637 0.0
C448 C 0.9047 0.20136 0.37638 0.0
N449 N 0.90471 0.18255 0.37526 0.0
H450 H 0.90158 0.15898 0.33963 0.0
H451 H 0.90499 0.20868 0.40324 0.0
H452 H 0.93613 0.16498 0.35111 0.0
H453 H 0.94102 0.15543 0.46978 0.0
O454 O 0.899 0.14374 0.40147 0.0
O455 O 0.90566 0.14939 0.4624 0.0
O456 O 0.91338 0.1891 0.4552 0.0
C457 C 0.90057 0.13758 0.43647 0.0
H458 H 0.84635 0.18354 0.48865 0.0
H459 H 0.97038 0.15558 0.36551 0.0
H460 H 0.90479 0.22662 0.34443 0.0
H461 H 0.90015 0.1762 0.27962 0.0
Co462 Co 0.16741 0.10067 0.5921 0.0
C463 C 0.17095 0.14108 0.60184 0.0
C464 C 0.18125 0.13177 0.54731 0.0
C465 C 0.18329 0.15053 0.54913 0.0
N466 N 0.17368 0.12584 0.58042 0.0
N467 N 0.17681 0.15638 0.58334 0.0
H468 H 0.16485 0.14095 0.63023 0.0
H469 H 0.18476 0.1231 0.52314 0.0
C470 C 0.19836 0.07805 0.55679 0.0
O471 O 0.19614 0.06441 0.58112 0.0
N472 N 0.16085 0.0752 0.60245 0.0
C473 C 0.1586 0.06641 0.63631 0.0
C474 C 0.15355 0.04847 0.62925 0.0
C475 C 0.15669 0.06252 0.57537 0.0
N476 N 0.15243 0.04601 0.5909 0.0
C477 C 0.17398 0.10452 0.67318 0.0
C478 C 0.21201 0.10381 0.67042 0.0
C479 C 0.20338 0.10493 0.70644 0.0
C480 C 0.18406 0.10557 0.70738 0.0
C481 C 0.2014 0.10274 0.63689 0.0
N482 N 0.18257 0.10223 0.63856 0.0
H483 H 0.15914 0.10505 0.67475 0.0
H484 H 0.20853 0.10276 0.60976 0.0
H485 H 0.16026 0.07232 0.66444 0.0
H486 H 0.15736 0.06525 0.54482 0.0
O487 O 0.14378 0.10855 0.61251 0.0
O488 O 0.14918 0.1012 0.55181 0.0
O489 O 0.18875 0.09271 0.55911 0.0
C490 C 0.1375 0.10668 0.57766 0.0
H491 H 0.18865 0.15928 0.52653 0.0
H492 H 0.15068 0.03812 0.65082 0.0
H493 H 0.22689 0.10408 0.66799 0.0
H494 H 0.17668 0.10653 0.73435 0.0
Co495 Co 0.10203 0.83936 0.42202 0.0
C496 C 0.14257 0.83613 0.41284 0.0
C497 C 0.13308 0.82502 0.46657 0.0
C498 C 0.15191 0.82316 0.46495 0.0
N499 N 0.12722 0.83299 0.43381 0.0
N500 N 0.15787 0.83016 0.43125 0.0
H501 H 0.14253 0.84264 0.38486 0.0
H502 H 0.12435 0.82114 0.49042 0.0
C503 C 0.07876 0.80932 0.45954 0.0
O504 O 0.06423 0.81287 0.43834 0.0
N505 N 0.07658 0.84606 0.41109 0.0
C506 C 0.06754 0.84607 0.37719 0.0
C507 C 0.04971 0.85183 0.3832 0.0
C508 C 0.0641 0.85209 0.43709 0.0
N509 N 0.04752 0.85555 0.42089 0.0
C510 C 0.1072 0.83308 0.34116 0.0
C511 C 0.10315 0.79528 0.34231 0.0
C512 C 0.1057 0.80407 0.3068 0.0
C513 C 0.10807 0.82323 0.30667 0.0
C514 C 0.10241 0.80563 0.37617 0.0
N515 N 0.10364 0.82442 0.37528 0.0
H516 H 0.10874 0.84784 0.34012 0.0
H517 H 0.1011 0.79826 0.40284 0.0
H518 H 0.0731 0.84196 0.34983 0.0
H519 H 0.06705 0.85358 0.46741 0.0
O520 O 0.11007 0.86303 0.40211 0.0
O521 O 0.10256 0.85739 0.46264 0.0
O522 O 0.09393 0.81791 0.45471 0.0
C523 C 0.10817 0.86915 0.43704 0.0
H524 H 0.1606 0.81758 0.4874 0.0
H525 H 0.03905 0.85267 0.36152 0.0
H526 H 0.10195 0.78045 0.34406 0.0
H527 H 0.11013 0.83067 0.28003 0.0
H528 H 0.31481 0.0858 0.28233 0.0
H529 H 0.29622 0.07805 0.33829 0.0
H530 H 0.24664 0.0873 0.27241 0.0
H531 H 0.26536 0.09631 0.21687 0.0
H532 H 0.24297 0.10337 0.33531 0.0
H533 H 0.26901 0.03455 0.37282 0.0
H534 H 0.28795 0.05032 0.37128 0.0
H535 H 0.27497 0.04561 0.3281 0.0
C536 C 0.29994 0.08587 0.27956 0.0
C537 C 0.29151 0.09162 0.24522 0.0
C538 C 0.28928 0.08125 0.31157 0.0
C539 C 0.26995 0.08164 0.30959 0.0
C540 C 0.26151 0.0868 0.27476 0.0
H541 H 0.2042 0.04822 0.51077 0.0
H542 H 0.22111 0.04785 0.44957 0.0
C543 C 0.2722 0.09192 0.243 0.0
C544 C 0.25868 0.07859 0.34484 0.0
H545 H 0.25479 0.05164 0.42504 0.0
C546 C 0.24539 0.09186 0.35451 0.0
C547 C 0.26142 0.06341 0.36984 0.0
C548 C 0.27397 0.04759 0.35967 0.0
C549 C 0.23538 0.09079 0.3889 0.0
C550 C 0.2394 0.07659 0.41554 0.0
C551 C 0.25205 0.06283 0.40519 0.0
C552 C 0.23073 0.076 0.45427 0.0
C553 C 0.22043 0.10486 0.3959 0.0
C554 C 0.23123 0.09159 0.47812 0.0
C555 C 0.22129 0.09193 0.51242 0.0
C556 C 0.21127 0.07642 0.52434 0.0
C557 C 0.21195 0.06029 0.5022 0.0
C558 C 0.22152 0.06012 0.46722 0.0
H559 H 0.21475 0.11017 0.36838 0.0
H560 H 0.20892 0.09901 0.41303 0.0
H561 H 0.22632 0.11675 0.41168 0.0
H562 H 0.23885 0.10374 0.46962 0.0
H563 H 0.22108 0.10447 0.52925 0.0
H564 H 0.1052 0.78527 0.48178 0.0
H565 H 0.10524 0.76568 0.53887 0.0
H566 H 0.05073 0.78505 0.56792 0.0
H567 H 0.05025 0.80373 0.50925 0.0
H568 H 0.10543 0.776 0.60821 0.0
H569 H 0.04347 0.7324 0.59087 0.0
H570 H 0.05233 0.74642 0.55231 0.0
H571 H 0.03791 0.75641 0.58895 0.0
C572 C 0.09305 0.78493 0.49988 0.0
C573 C 0.07766 0.79583 0.49107 0.0
C574 C 0.09309 0.77381 0.53261 0.0
C575 C 0.07793 0.77369 0.55777 0.0
C576 C 0.06239 0.7844 0.54856 0.0
H577 H 0.09838 0.73942 0.79585 0.0
H578 H 0.09106 0.7577 0.73866 0.0
C579 C 0.06214 0.79515 0.51512 0.0
C580 C 0.07921 0.76358 0.59494 0.0
H581 H 0.05723 0.7327 0.65319 0.0
C582 C 0.09492 0.76643 0.61782 0.0
C583 C 0.06559 0.75099 0.6076 0.0
C584 C 0.04898 0.74622 0.58344 0.0
C585 C 0.09756 0.75692 0.65248 0.0
C586 C 0.08361 0.74488 0.66592 0.0
C587 C 0.0678 0.74212 0.64325 0.0
C588 C 0.08572 0.73415 0.70213 0.0
C589 C 0.11566 0.75939 0.67334 0.0
C590 C 0.08388 0.71491 0.70152 0.0
C591 C 0.08742 0.70451 0.7345 0.0
C592 C 0.09315 0.71313 0.76863 0.0
C593 C 0.09423 0.73242 0.76977 0.0
C594 C 0.09022 0.74285 0.73699 0.0
H595 H 0.12665 0.76442 0.65373 0.0
H596 H 0.11393 0.76977 0.69641 0.0
H597 H 0.12037 0.74629 0.68651 0.0
H598 H 0.08033 0.70784 0.67513 0.0
H599 H 0.0865 0.68965 0.73271 0.0
H600 H 0.79335 0.96062 0.5251 0.0
H601 H 0.77377 0.96432 0.46782 0.0
H602 H 0.77189 0.9054 0.45405 0.0
H603 H 0.79137 0.90159 0.51069 0.0
H604 H 0.78357 0.94815 0.38975 0.0
H605 H 0.71668 0.92416 0.44905 0.0
H606 H 0.73494 0.9332 0.47896 0.0
H607 H 0.73627 0.91009 0.46091 0.0
C608 C 0.7885 0.94847 0.51017 0.0
C609 C 0.79391 0.93081 0.52234 0.0
C610 C 0.77743 0.95061 0.4774 0.0
C611 C 0.77135 0.93512 0.45689 0.0
C612 C 0.77633 0.91751 0.46966 0.0
H613 H 0.71171 0.89951 0.26101 0.0
H614 H 0.7294 0.90415 0.31978 0.0
C615 C 0.78752 0.91537 0.50196 0.0
C616 C 0.76052 0.93706 0.42103 0.0
H617 H 0.71928 0.92528 0.38091 0.0
C618 C 0.7694 0.94346 0.38777 0.0
C619 C 0.74211 0.93085 0.4187 0.0
C620 C 0.73183 0.92431 0.45383 0.0
C621 C 0.76063 0.94289 0.35171 0.0
C622 C 0.74239 0.93607 0.34915 0.0
C623 C 0.7333 0.93041 0.38281 0.0
C624 C 0.7328 0.93349 0.31178 0.0
C625 C 0.7713 0.94868 0.31648 0.0
C626 C 0.72903 0.94842 0.28729 0.0
C627 C 0.719 0.94576 0.25327 0.0
C628 C 0.71236 0.92818 0.24352 0.0
C629 C 0.7165 0.91325 0.26776 0.0
C630 C 0.72661 0.91588 0.30144 0.0
H631 H 0.78633 0.94958 0.32222 0.0
H632 H 0.76899 0.9389 0.29245 0.0
H633 H 0.7665 0.96247 0.3071 0.0
H634 H 0.73337 0.96219 0.29498 0.0
H635 H 0.71587 0.95757 0.2354 0.0
H636 H 0.9218 0.31727 0.73268 0.0
H637 H 0.92744 0.29909 0.67499 0.0
H638 H 0.92061 0.24913 0.7407 0.0
H639 H 0.91373 0.26739 0.79814 0.0
H640 H 0.95097 0.27541 0.65091 0.0
H641 H 0.88345 0.24007 0.66006 0.0
H642 H 0.88962 0.25862 0.69181 0.0
H643 H 0.89759 0.23555 0.7012 0.0
C644 C 0.92163 0.3024 0.73492 0.0
C645 C 0.91709 0.29372 0.76979 0.0
C646 C 0.92487 0.292 0.70187 0.0
C647 C 0.92395 0.2727 0.7031 0.0
C648 C 0.9207 0.26399 0.7386 0.0
H649 H 0.95762 0.20533 0.50541 0.0
H650 H 0.95777 0.2236 0.56456 0.0
C651 C 0.91696 0.27442 0.7715 0.0
C652 C 0.92566 0.26191 0.66691 0.0
H653 H 0.90392 0.2296 0.61206 0.0
C654 C 0.94064 0.26544 0.64234 0.0
C655 C 0.91201 0.24912 0.65525 0.0
C656 C 0.89468 0.24575 0.67825 0.0
C657 C 0.94229 0.25668 0.60647 0.0
C658 C 0.929 0.24339 0.59552 0.0
C659 C 0.91417 0.23972 0.62035 0.0
C660 C 0.92971 0.2334 0.55816 0.0
C661 C 0.95787 0.26235 0.58026 0.0
C662 C 0.91385 0.23248 0.53501 0.0
C663 C 0.91358 0.22156 0.50204 0.0
C664 C 0.9293 0.21168 0.49095 0.0
C665 C 0.94543 0.21312 0.51304 0.0
C666 C 0.94554 0.22365 0.54675 0.0
H667 H 0.96284 0.27644 0.58703 0.0
H668 H 0.96963 0.25278 0.58429 0.0
H669 H 0.95363 0.26198 0.54961 0.0
H670 H 0.90146 0.23988 0.54299 0.0
H671 H 0.90096 0.22062 0.48547 0.0
H672 H 0.30438 0.4028 0.9965 0.0
H673 H 0.28681 0.40815 0.93796 0.0
H674 H 0.27045 0.46152 0.97979 0.0
H675 H 0.28809 0.45628 0.03907 0.0
H676 H 0.24137 0.44073 0.94752 0.0
H677 H 0.30146 0.44282 0.84967 0.0
H678 H 0.30143 0.4228 0.87993 0.0
H679 H 0.30362 0.44527 0.90116 0.0
C680 C 0.29707 0.41571 0.99346 0.0
C681 C 0.29776 0.42916 0.02251 0.0
C682 C 0.28713 0.41878 0.95975 0.0
C683 C 0.2777 0.4354 0.95411 0.0
C684 C 0.27783 0.44868 0.98342 0.0
H685 H 0.22608 0.45341 0.72628 0.0
H686 H 0.24437 0.4595 0.78444 0.0
C687 C 0.28785 0.44563 0.01732 0.0
C688 C 0.26731 0.43842 0.9179 0.0
H689 H 0.27201 0.4367 0.82023 0.0
C690 C 0.24809 0.4402 0.91969 0.0
C691 C 0.27611 0.43805 0.88157 0.0
C692 C 0.29682 0.43733 0.87788 0.0
C693 C 0.23734 0.44034 0.88612 0.0
C694 C 0.24605 0.43844 0.84993 0.0
C695 C 0.26535 0.43794 0.84801 0.0
C696 C 0.23529 0.43502 0.81439 0.0
C697 C 0.21669 0.44202 0.88969 0.0
C698 C 0.22458 0.41904 0.81165 0.0
C699 C 0.2143 0.41547 0.77865 0.0
C700 C 0.21451 0.42778 0.74738 0.0
C701 C 0.2256 0.44364 0.74978 0.0
C702 C 0.236 0.44718 0.783 0.0
H703 H 0.21271 0.44889 0.91698 0.0
H704 H 0.21079 0.44988 0.86522 0.0
H705 H 0.21048 0.42806 0.88967 0.0
H706 H 0.22415 0.40926 0.83518 0.0
H707 H 0.20601 0.4031 0.77799 0.0
H708 H 0.40232 0.8007 0.24133 0.0
H709 H 0.40749 0.78218 0.18413 0.0
H710 H 0.46176 0.76798 0.22487 0.0
H711 H 0.45671 0.78666 0.28278 0.0
H712 H 0.43693 0.78722 0.12911 0.0
H713 H 0.4367 0.71778 0.19718 0.0
H714 H 0.42713 0.73771 0.22086 0.0
H715 H 0.45164 0.73502 0.21745 0.0
C716 C 0.41535 0.79361 0.23845 0.0
C717 C 0.4291 0.79522 0.26678 0.0
C718 C 0.41829 0.78304 0.20558 0.0
C719 C 0.43498 0.77371 0.20025 0.0
C720 C 0.44871 0.77497 0.22861 0.0
H721 H 0.45723 0.72122 0.97496 0.0
H722 H 0.46183 0.73975 0.03325 0.0
C723 C 0.44579 0.78564 0.26167 0.0
C724 C 0.43779 0.76294 0.16452 0.0
H725 H 0.439 0.719 0.12985 0.0
C726 C 0.43768 0.77231 0.12919 0.0
C727 C 0.43866 0.74351 0.16484 0.0
C728 C 0.43845 0.73279 0.202 0.0
C729 C 0.43777 0.76274 0.09411 0.0
C730 C 0.4381 0.74329 0.09444 0.0
C731 C 0.43885 0.73393 0.12976 0.0
C732 C 0.43564 0.73239 0.05877 0.0
C733 C 0.43657 0.77342 0.05699 0.0
C734 C 0.41945 0.72215 0.05387 0.0
C735 C 0.41676 0.71167 0.02077 0.0
C736 C 0.43028 0.71107 0.99177 0.0
C737 C 0.44649 0.72147 0.99658 0.0
C738 C 0.44915 0.73205 0.02985 0.0
H739 H 0.43394 0.7883 0.06191 0.0
H740 H 0.44975 0.77204 0.04105 0.0
H741 H 0.42542 0.76781 0.03854 0.0
H742 H 0.40882 0.72228 0.07576 0.0
H743 H 0.4041 0.70388 0.0182 0.0
H744 H 0.71561 0.5479 0.02715 0.0
H745 H 0.73495 0.54376 0.96964 0.0
H746 H 0.73469 0.60239 0.95068 0.0
H747 H 0.71546 0.60664 0.00751 0.0
H748 H 0.72434 0.55829 0.89006 0.0
H749 H 0.79055 0.58523 0.94698 0.0
H750 H 0.77266 0.57605 0.97768 0.0
H751 H 0.77056 0.59884 0.95816 0.0
C752 C 0.71993 0.5599 0.01098 0.0
C753 C 0.71401 0.57759 0.02179 0.0
C754 C 0.73085 0.5575 0.9781 0.0
C755 C 0.73627 0.57279 0.95611 0.0
C756 C 0.73075 0.59045 0.96744 0.0
H757 H 0.79367 0.60827 0.75807 0.0
H758 H 0.77606 0.60343 0.81687 0.0
C759 C 0.7197 0.59283 0.99986 0.0
C760 C 0.74709 0.57057 0.92032 0.0
H761 H 0.78777 0.58322 0.87893 0.0
C762 C 0.73834 0.56341 0.8876 0.0
C763 C 0.76528 0.57733 0.91737 0.0
C764 C 0.77543 0.58467 0.95195 0.0
C765 C 0.74698 0.56379 0.8514 0.0
C766 C 0.76495 0.57124 0.84818 0.0
C767 C 0.77396 0.57761 0.88135 0.0
C768 C 0.77426 0.57386 0.81053 0.0
C769 C 0.73647 0.55715 0.81666 0.0
C770 C 0.77882 0.55886 0.78689 0.0
C771 C 0.78882 0.56163 0.75286 0.0
C772 C 0.79461 0.5794 0.74229 0.0
C773 C 0.78955 0.59439 0.76552 0.0
C774 C 0.77949 0.59164 0.7992 0.0
H775 H 0.72153 0.55549 0.82277 0.0
H776 H 0.73813 0.56686 0.79224 0.0
H777 H 0.74199 0.54358 0.80764 0.0
H778 H 0.7752 0.54498 0.79536 0.0
H779 H 0.79268 0.54979 0.73576 0.0
H780 H 0.58643 0.1919 0.23196 0.0
H781 H 0.58007 0.21017 0.17461 0.0
H782 H 0.59141 0.25992 0.23809 0.0
H783 H 0.59892 0.24154 0.29505 0.0
H784 H 0.5571 0.23533 0.15303 0.0
H785 H 0.62696 0.26617 0.15285 0.0
H786 H 0.62053 0.2481 0.18565 0.0
H787 H 0.61435 0.27165 0.19561 0.0
C788 C 0.58743 0.20675 0.2338 0.0
C789 C 0.59341 0.21531 0.26781 0.0
C790 C 0.58378 0.2172 0.20096 0.0
C791 C 0.58575 0.23642 0.20161 0.0
C792 C 0.59045 0.24507 0.2364 0.0
H793 H 0.55138 0.30599 0.0077 0.0
H794 H 0.55142 0.28752 0.06668 0.0
C795 C 0.59458 0.23459 0.26904 0.0
C796 C 0.58368 0.24716 0.16543 0.0
H797 H 0.60589 0.27776 0.10715 0.0
C798 C 0.5678 0.24457 0.1429 0.0
C799 C 0.59778 0.25897 0.15177 0.0
C800 C 0.61593 0.26125 0.17251 0.0
C801 C 0.56567 0.25334 0.10713 0.0
C802 C 0.57949 0.26565 0.09419 0.0
C803 C 0.59524 0.26838 0.11698 0.0
C804 C 0.57838 0.27556 0.05677 0.0
C805 C 0.54896 0.24875 0.08313 0.0
C806 C 0.59354 0.27522 0.03162 0.0
C807 C 0.59375 0.28621 0.99872 0.0
C808 C 0.57862 0.29741 0.98974 0.0
C809 C 0.56307 0.29716 0.01373 0.0
C810 C 0.56306 0.28654 0.04735 0.0
H811 H 0.54318 0.23509 0.09092 0.0
H812 H 0.5381 0.25919 0.08837 0.0
H813 H 0.55231 0.24871 0.05198 0.0
H814 H 0.60551 0.26686 0.03807 0.0
H815 H 0.60592 0.28622 0.98065 0.0
H816 H 0.34516 0.31865 0.04378 0.0
H817 H 0.34472 0.28678 0.06646 0.0
H818 H 0.32545 0.30493 0.17731 0.0
H819 H 0.32579 0.33701 0.15467 0.0
H820 H 0.36355 0.27185 0.1398 0.0
H821 H 0.28714 0.26478 0.13249 0.0
H822 H 0.29947 0.28166 0.10428 0.0
H823 H 0.29668 0.28499 0.15498 0.0
C824 C 0.34077 0.31588 0.07295 0.0
C825 C 0.33536 0.33033 0.09737 0.0
C826 C 0.34064 0.29768 0.08591 0.0
C827 C 0.33493 0.29354 0.12339 0.0
C828 C 0.32982 0.3079 0.14818 0.0
H829 H 0.31239 0.18778 0.23057 0.0
H830 H 0.31455 0.22036 0.21483 0.0
C831 C 0.33011 0.32618 0.13532 0.0
C832 C 0.33405 0.27411 0.13607 0.0
H833 H 0.30398 0.23883 0.15236 0.0
C834 C 0.35055 0.2646 0.14274 0.0
C835 C 0.31706 0.26479 0.1399 0.0
C836 C 0.29901 0.27445 0.13243 0.0
C837 C 0.35052 0.24594 0.15339 0.0
C838 C 0.33352 0.23642 0.15628 0.0
C839 C 0.317 0.24607 0.15 0.0
C840 C 0.3325 0.21649 0.16586 0.0
C841 C 0.36868 0.23673 0.16215 0.0
C842 C 0.34165 0.20335 0.14326 0.0
C843 C 0.3407 0.18463 0.15256 0.0
C844 C 0.33035 0.17858 0.18443 0.0
C845 C 0.32082 0.19181 0.20635 0.0
C846 C 0.32191 0.21052 0.1972 0.0
H847 H 0.37943 0.24694 0.17006 0.0
H848 H 0.36728 0.22666 0.18599 0.0
H849 H 0.37353 0.2293 0.1362 0.0
H850 H 0.34951 0.20755 0.11829 0.0
H851 H 0.34829 0.17501 0.13496 0.0
H852 H 0.18838 0.66519 0.77554 0.0
H853 H 0.22098 0.66413 0.79304 0.0
H854 H 0.20729 0.68063 0.90865 0.0
H855 H 0.17456 0.68139 0.89137 0.0
H856 H 0.24323 0.69111 0.81722 0.0
H857 H 0.23986 0.63699 0.92928 0.0
H858 H 0.2209 0.64166 0.89718 0.0
H859 H 0.22461 0.65584 0.93889 0.0
C860 C 0.1923 0.66858 0.8047 0.0
C861 C 0.17889 0.67336 0.83212 0.0
C862 C 0.21095 0.66791 0.8147 0.0
C863 C 0.2166 0.67202 0.85231 0.0
C864 C 0.20324 0.6769 0.87972 0.0
H865 H 0.32029 0.6937 0.96235 0.0
H866 H 0.28831 0.69206 0.94119 0.0
C867 C 0.18455 0.6774 0.86982 0.0
C868 C 0.23651 0.67188 0.86232 0.0
H869 H 0.26788 0.65424 0.92573 0.0
C870 C 0.24863 0.6829 0.84071 0.0
C871 C 0.24361 0.66109 0.89285 0.0
C872 C 0.2316 0.64808 0.91563 0.0
C873 C 0.2675 0.68379 0.84948 0.0
C874 C 0.27441 0.67342 0.88062 0.0
C875 C 0.26244 0.66222 0.90193 0.0
C876 C 0.29396 0.67456 0.89243 0.0
C877 C 0.27994 0.6961 0.82611 0.0
C878 C 0.30772 0.66528 0.87184 0.0
C879 C 0.3261 0.66597 0.88414 0.0
C880 C 0.331 0.67599 0.91724 0.0
C881 C 0.31709 0.68554 0.93724 0.0
C882 C 0.29877 0.68473 0.92508 0.0
H883 H 0.27218 0.70436 0.80465 0.0
H884 H 0.28759 0.70559 0.84539 0.0
H885 H 0.29026 0.68757 0.81072 0.0
H886 H 0.30419 0.65728 0.84662 0.0
H887 H 0.33633 0.65831 0.86819 0.0
H888 H 0.67629 0.83486 0.11384 0.0
H889 H 0.67456 0.80266 0.09328 0.0
H890 H 0.66911 0.78555 0.21145 0.0
H891 H 0.67007 0.81753 0.23203 0.0
H892 H 0.69823 0.7746 0.11256 0.0
H893 H 0.62746 0.7575 0.16077 0.0
H894 H 0.63567 0.78089 0.15713 0.0
H895 H 0.64146 0.76705 0.19831 0.0
C896 C 0.6744 0.82427 0.13538 0.0
C897 C 0.67336 0.82884 0.17461 0.0
C898 C 0.67351 0.80587 0.12361 0.0
C899 C 0.67144 0.79172 0.1508 0.0
C900 C 0.67033 0.79624 0.18989 0.0
H901 H 0.67694 0.67225 0.14623 0.0
H902 H 0.67513 0.70471 0.16509 0.0
C903 C 0.67116 0.81458 0.20165 0.0
C904 C 0.67143 0.77216 0.13868 0.0
H905 H 0.6468 0.73213 0.14406 0.0
C906 C 0.68692 0.76535 0.11913 0.0
C907 C 0.65668 0.7601 0.14745 0.0
C908 C 0.6393 0.76678 0.16674 0.0
C909 C 0.68822 0.74673 0.10883 0.0
C910 C 0.67357 0.73466 0.11799 0.0
C911 C 0.65805 0.74143 0.13735 0.0
C912 C 0.674 0.71502 0.1068 0.0
C913 C 0.70542 0.74001 0.08889 0.0
C914 C 0.67356 0.71012 0.06789 0.0
C915 C 0.67445 0.69166 0.05705 0.0
C916 C 0.67581 0.67767 0.08493 0.0
C917 C 0.67581 0.68263 0.12403 0.0
C918 C 0.67486 0.70116 0.13486 0.0
H919 H 0.71696 0.74998 0.09155 0.0
H920 H 0.70989 0.72656 0.10087 0.0
H921 H 0.70246 0.73805 0.05787 0.0
H922 H 0.67252 0.72062 0.04585 0.0
H923 H 0.67394 0.6884 0.02675 0.0
H924 H 0.82229 0.30961 0.79822 0.0
H925 H 0.7896 0.31185 0.81427 0.0
H926 H 0.80052 0.36028 0.88218 0.0
H927 H 0.83335 0.35797 0.8665 0.0
H928 H 0.77842 0.33672 0.91959 0.0
H929 H 0.75151 0.34687 0.77234 0.0
H930 H 0.76535 0.32651 0.77602 0.0
H931 H 0.77571 0.34873 0.7837 0.0
C932 C 0.8177 0.32085 0.81622 0.0
C933 C 0.8304 0.33366 0.83093 0.0
C934 C 0.79899 0.32217 0.82525 0.0
C935 C 0.79252 0.33647 0.84872 0.0
C936 C 0.80519 0.34919 0.86379 0.0
H937 H 0.67432 0.35706 0.88199 0.0
H938 H 0.70677 0.35997 0.86304 0.0
C939 C 0.82396 0.3478 0.85499 0.0
C940 C 0.77267 0.3376 0.85888 0.0
H941 H 0.72937 0.33804 0.82023 0.0
C942 C 0.76771 0.3372 0.89786 0.0
C943 C 0.75867 0.33858 0.83057 0.0
C944 C 0.76307 0.3404 0.78835 0.0
C945 C 0.74915 0.33702 0.90926 0.0
C946 C 0.73517 0.33677 0.88088 0.0
C947 C 0.7401 0.33793 0.84195 0.0
C948 C 0.7154 0.33479 0.89107 0.0
C949 C 0.74474 0.33717 0.95166 0.0
C950 C 0.70939 0.31944 0.9121 0.0
C951 C 0.69094 0.31779 0.92297 0.0
C952 C 0.67804 0.33135 0.91261 0.0
C953 C 0.68392 0.34637 0.89024 0.0
C954 C 0.70246 0.34808 0.87958 0.0
H955 H 0.75623 0.34314 0.96871 0.0
H956 H 0.73202 0.34516 0.95763 0.0
H957 H 0.74259 0.32282 0.96167 0.0
H958 H 0.719 0.30872 0.92025 0.0
H959 H 0.68676 0.30587 0.93947 0.0
H960 H 0.85588 0.83477 0.62219 0.0
H961 H 0.85884 0.80222 0.63996 0.0
H962 H 0.80885 0.78995 0.57792 0.0
H963 H 0.806 0.82229 0.55974 0.0
H964 H 0.8367 0.77963 0.68035 0.0
H965 H 0.84378 0.75274 0.53245 0.0
H966 H 0.84545 0.77696 0.54343 0.0
H967 H 0.82324 0.76619 0.53796 0.0
C968 C 0.84549 0.82513 0.61255 0.0
C969 C 0.83081 0.83103 0.58925 0.0
C970 C 0.84724 0.80654 0.62253 0.0
C971 C 0.83432 0.79357 0.60942 0.0
C972 C 0.81932 0.79958 0.58728 0.0
H973 H 0.80678 0.68802 0.70349 0.0
H974 H 0.80939 0.7203 0.68479 0.0
C975 C 0.81766 0.81808 0.57705 0.0
C976 C 0.83614 0.77382 0.61966 0.0
H977 H 0.83614 0.73059 0.58118 0.0
C978 C 0.83678 0.76891 0.65866 0.0
C979 C 0.83665 0.75983 0.59135 0.0
C980 C 0.83745 0.76419 0.54897 0.0
C981 C 0.8371 0.75039 0.67014 0.0
C982 C 0.83626 0.7364 0.64187 0.0
C983 C 0.83647 0.7413 0.60285 0.0
C984 C 0.83455 0.71666 0.65224 0.0
C985 C 0.83838 0.74603 0.71248 0.0
C986 C 0.84734 0.70369 0.63869 0.0
C987 C 0.84573 0.68512 0.64898 0.0
C988 C 0.8313 0.67925 0.67304 0.0
C989 C 0.81825 0.6922 0.68561 0.0
C990 C 0.81977 0.71067 0.67508 0.0
H991 H 0.84489 0.75749 0.72869 0.0
H992 H 0.82429 0.74402 0.72418 0.0
H993 H 0.84644 0.73328 0.71763 0.0
H994 H 0.85875 0.70798 0.62071 0.0
H995 H 0.85602 0.67546 0.63902 0.0
H996 H 0.83771 0.18231 0.35751 0.0
H997 H 0.80541 0.1827 0.33616 0.0
H998 H 0.78809 0.16536 0.44913 0.0
H999 H 0.82011 0.16523 0.47056 0.0
H1000 H 0.77851 0.15606 0.33348 0.0
H1001 H 0.75774 0.21144 0.43392 0.0
H1002 H 0.78156 0.20577 0.42496 0.0
H1003 H 0.76811 0.19225 0.45808 0.0
C1004 C 0.82698 0.17849 0.37761 0.0
C1005 C 0.83139 0.17403 0.41585 0.0
C1006 C 0.80856 0.17876 0.36547 0.0
C1007 C 0.7943 0.17453 0.39136 0.0
C1008 C 0.79879 0.16926 0.42901 0.0
H1009 H 0.67642 0.15863 0.37748 0.0
H1010 H 0.70914 0.15814 0.39408 0.0
C1011 C 0.81711 0.16915 0.4412 0.0
C1012 C 0.7747 0.17561 0.37932 0.0
H1013 H 0.73335 0.1951 0.40294 0.0
C1014 C 0.76867 0.16471 0.34844 0.0
C1015 C 0.76188 0.187 0.39874 0.0
C1016 C 0.76767 0.19992 0.4305 0.0
C1017 C 0.75006 0.16453 0.33724 0.0
C1018 C 0.73724 0.17549 0.35743 0.0
C1019 C 0.74326 0.18658 0.38785 0.0
C1020 C 0.71748 0.17575 0.34712 0.0
C1021 C 0.74405 0.15243 0.30435 0.0
C1022 C 0.7114 0.18601 0.3155 0.0
C1023 C 0.69267 0.18658 0.30619 0.0
C1024 C 0.67963 0.17679 0.32823 0.0
C1025 C 0.68589 0.16654 0.36006 0.0
C1026 C 0.70463 0.1661 0.36948 0.0
H1027 H 0.7554 0.14352 0.29373 0.0
H1028 H 0.73234 0.14359 0.31345 0.0
H1029 H 0.73916 0.16118 0.28024 0.0
H1030 H 0.72115 0.19371 0.2982 0.0
H1031 H 0.68844 0.19488 0.28194 0.0
H1032 H 0.15337 0.33137 0.64358 0.0
H1033 H 0.14988 0.29883 0.62607 0.0
H1034 H 0.19945 0.28581 0.6889 0.0
H1035 H 0.20282 0.31812 0.70678 0.0
H1036 H 0.17177 0.27559 0.58639 0.0
H1037 H 0.1635 0.24952 0.73476 0.0
H1038 H 0.16232 0.27371 0.72316 0.0
H1039 H 0.18431 0.26259 0.72936 0.0
C1040 C 0.16356 0.32156 0.65341 0.0
C1041 C 0.17826 0.32724 0.6769 0.0
C1042 C 0.1615 0.30298 0.64359 0.0
C1043 C 0.17413 0.28981 0.65706 0.0
C1044 C 0.18918 0.2956 0.67928 0.0
H1045 H 0.20071 0.18364 0.56629 0.0
H1046 H 0.19831 0.21601 0.58425 0.0
C1047 C 0.19115 0.31409 0.68933 0.0
C1048 C 0.17194 0.27006 0.64721 0.0
H1049 H 0.17101 0.22701 0.68672 0.0
C1050 C 0.17139 0.26498 0.60833 0.0
C1051 C 0.17103 0.25621 0.67584 0.0
C1052 C 0.17011 0.26079 0.7181 0.0
C1053 C 0.17083 0.24641 0.59728 0.0
C1054 C 0.1713 0.23254 0.6259 0.0
C1055 C 0.17096 0.23763 0.66479 0.0
C1056 C 0.17287 0.21274 0.61603 0.0
C1057 C 0.16972 0.24186 0.55502 0.0
C1058 C 0.15984 0.19994 0.62943 0.0
C1059 C 0.16132 0.18131 0.61954 0.0
C1060 C 0.17586 0.17522 0.59606 0.0
C1061 C 0.18915 0.18799 0.58371 0.0
C1062 C 0.18775 0.20651 0.59382 0.0
H1063 H 0.16345 0.25333 0.53839 0.0
H1064 H 0.18383 0.23962 0.5437 0.0
H1065 H 0.16151 0.22919 0.54999 0.0
H1066 H 0.14834 0.20441 0.64695 0.0
H1067 H 0.15084 0.17179 0.62932 0.0
H1068 H 0.32039 0.80773 0.3066 0.0
H1069 H 0.28803 0.81038 0.32493 0.0
H1070 H 0.30061 0.85881 0.39161 0.0
H1071 H 0.33323 0.85601 0.37368 0.0
H1072 H 0.2774 0.83618 0.4295 0.0
H1073 H 0.25139 0.84657 0.28172 0.0
H1074 H 0.26461 0.82582 0.28568 0.0
H1075 H 0.27559 0.84775 0.29343 0.0
C1076 C 0.31626 0.819 0.32502 0.0
C1077 C 0.32932 0.83178 0.33837 0.0
C1078 C 0.29773 0.82056 0.33532 0.0
C1079 C 0.29178 0.8351 0.35874 0.0
C1080 C 0.30487 0.84758 0.37317 0.0
H1081 H 0.17329 0.8568 0.38686 0.0
H1082 H 0.20599 0.85979 0.36979 0.0
C1083 C 0.3235 0.84593 0.3631 0.0
C1084 C 0.27195 0.83691 0.36868 0.0
H1085 H 0.22886 0.83805 0.32909 0.0
C1086 C 0.2668 0.83679 0.40756 0.0
C1087 C 0.25809 0.83813 0.34009 0.0
C1088 C 0.2627 0.83979 0.29793 0.0
C1089 C 0.24818 0.837 0.41857 0.0
C1090 C 0.23431 0.83686 0.38989 0.0
C1091 C 0.23946 0.83785 0.35107 0.0
C1092 C 0.21444 0.83502 0.39956 0.0
C1093 C 0.24357 0.83743 0.46086 0.0
C1094 C 0.20825 0.81985 0.42097 0.0
C1095 C 0.18967 0.81817 0.43078 0.0
C1096 C 0.1768 0.83146 0.41892 0.0
C1097 C 0.18287 0.8463 0.39626 0.0
C1098 C 0.20155 0.84807 0.38669 0.0
H1099 H 0.25498 0.84355 0.47791 0.0
H1100 H 0.2308 0.84542 0.46638 0.0
H1101 H 0.24145 0.82315 0.47127 0.0
H1102 H 0.2178 0.80927 0.43011 0.0
H1103 H 0.18535 0.80638 0.44755 0.0
H1104 H 0.29735 0.1332 0.01781 0.0
H1105 H 0.27989 0.1337 0.95768 0.0
H1106 H 0.27443 0.07467 0.96214 0.0
H1107 H 0.29215 0.07396 0.02193 0.0
H1108 H 0.28776 0.11581 0.8872 0.0
H1109 H 0.22091 0.09287 0.94855 0.0
H1110 H 0.2396 0.10126 0.97803 0.0
H1111 H 0.24016 0.0782 0.95944 0.0
C1112 C 0.29258 0.12028 1.00592 0.0
C1113 C 0.29614 0.10354 0.02497 0.0
C1114 C 0.28251 0.12061 0.9716 0.0
C1115 C 0.27564 0.10426 0.95567 0.0
C1116 C 0.27927 0.0875 0.97432 0.0
H1117 H 0.23499 0.08581 0.72339 0.0
H1118 H 0.25275 0.0862 0.78313 0.0
C1119 C 0.28939 0.08714 0.0086 0.0
C1120 C 0.26492 0.10472 0.91923 0.0
H1121 H 0.22273 0.09491 0.8806 0.0
C1122 C 0.27354 0.11127 0.88575 0.0
C1123 C 0.2463 0.09899 0.91746 0.0
C1124 C 0.23609 0.09258 0.95281 0.0
C1125 C 0.26412 0.11195 0.85043 0.0
C1126 C 0.24564 0.10577 0.84846 0.0
C1127 C 0.23694 0.09951 0.88208 0.0
C1128 C 0.23506 0.1058 0.81185 0.0
C1129 C 0.27393 0.11955 0.81563 0.0
C1130 C 0.21904 0.11649 0.80825 0.0
C1131 C 0.20888 0.11638 0.77402 0.0
C1132 C 0.21443 0.10543 0.74269 0.0
C1133 C 0.23047 0.09467 0.74655 0.0
C1134 C 0.24064 0.09484 0.78075 0.0
H1135 H 0.28626 0.12775 0.82375 0.0
H1136 H 0.27856 0.10797 0.79724 0.0
H1137 H 0.26457 0.12836 0.79833 0.0
H1138 H 0.21446 0.12504 0.83189 0.0
H1139 H 0.19676 0.12502 0.77204 0.0
H1140 H 0.08321 0.77534 0.28676 0.0
H1141 H 0.08311 0.75779 0.22678 0.0
H1142 H 0.12755 0.79129 0.1834 0.0
H1143 H 0.12809 0.80861 0.24372 0.0
H1144 H 0.07727 0.77057 0.15158 0.0
H1145 H 0.14634 0.7385 0.16692 0.0
H1146 H 0.13453 0.74931 0.2066 0.0
H1147 H 0.14613 0.76314 0.17125 0.0
C1148 C 0.09315 0.77883 0.2647 0.0
C1149 C 0.10574 0.79334 0.27024 0.0
C1150 C 0.09297 0.76887 0.2303 0.0
C1151 C 0.10546 0.77307 0.20076 0.0
C1152 C 0.11797 0.78761 0.20602 0.0
H1153 H 0.09857 0.73725 0.96146 0.0
H1154 H 0.09879 0.75514 0.02105 0.0
C1155 C 0.11813 0.79762 0.2404 0.0
C1156 C 0.10514 0.76243 0.16426 0.0
H1157 H 0.13103 0.73412 0.10743 0.0
C1158 C 0.08902 0.7626 0.1419 0.0
C1159 C 0.1204 0.75186 0.15189 0.0
C1160 C 0.13779 0.7505 0.17551 0.0
C1161 C 0.08782 0.75265 0.10733 0.0
C1162 C 0.10323 0.74241 0.09453 0.0
C1163 C 0.11928 0.74209 0.1171 0.0
C1164 C 0.10286 0.7316 0.05824 0.0
C1165 C 0.06993 0.75287 0.0852 0.0
C1166 C 0.10536 0.71246 0.05921 0.0
C1167 C 0.10521 0.70218 0.0252 0.0
C1168 C 0.10269 0.71085 0.98936 0.0
C1169 C 0.10024 0.73007 0.98852 0.0
C1170 C 0.10038 0.74033 0.02259 0.0
H1171 H 0.05823 0.75758 0.10329 0.0
H1172 H 0.07123 0.76247 0.06053 0.0
H1173 H 0.06667 0.73899 0.07372 0.0
H1174 H 0.10729 0.70542 0.08638 0.0
H1175 H 0.10687 0.6874 0.0271 0.0
H1176 H 0.73645 0.91591 0.04432 0.0
H1177 H 0.75349 0.91558 0.98358 0.0
H1178 H 0.71421 0.87726 0.93633 0.0
H1179 H 0.69723 0.87729 0.99701 0.0
H1180 H 0.76973 0.88591 0.94296 0.0
H1181 H 0.71453 0.91933 0.85718 0.0
H1182 H 0.71456 0.91935 0.90907 0.0
H1183 H 0.70739 0.89919 0.88319 0.0
C1184 C 0.73152 0.90724 0.0212 0.0
C1185 C 0.71533 0.89674 0.02563 0.0
C1186 C 0.74124 0.90715 0.98638 0.0
C1187 C 0.73495 0.89666 0.95513 0.0
C1188 C 0.71909 0.88581 0.95971 0.0
H1189 H 0.77277 0.88187 0.71891 0.0
H1190 H 0.75614 0.88055 0.78013 0.0
C1191 C 0.70938 0.88586 0.99449 0.0
C1192 C 0.74502 0.89702 0.91783 0.0
H1193 H 0.74043 0.9083 0.82285 0.0
C1194 C 0.76335 0.89086 0.91672 0.0
C1195 C 0.73668 0.90342 0.88354 0.0
C1196 C 0.71726 0.91086 0.88316 0.0
C1197 C 0.77346 0.89066 0.8822 0.0
C1198 C 0.76516 0.89718 0.84793 0.0
C1199 C 0.7468 0.90328 0.84905 0.0
C1200 C 0.77534 0.89799 0.81073 0.0
C1201 C 0.79282 0.88307 0.88264 0.0
C1202 C 0.79152 0.90848 0.80727 0.0
C1203 C 0.80103 0.9093 0.7723 0.0
C1204 C 0.79451 0.89977 0.73978 0.0
C1205 C 0.77813 0.8895 0.74318 0.0
C1206 C 0.76864 0.88866 0.77825 0.0
H1207 H 0.79517 0.87394 0.90781 0.0
H1208 H 0.79579 0.8752 0.85601 0.0
H1209 H 0.80276 0.89465 0.8845 0.0
H1210 H 0.79671 0.91623 0.83155 0.0
H1211 H 0.81338 0.91764 0.77059 0.0
H1212 H 0.9203 0.19412 0.23926 0.0
H1213 H 0.92101 0.21174 0.1794 0.0
H1214 H 0.88711 0.25367 0.23108 0.0
H1215 H 0.8861 0.23602 0.291 0.0
H1216 H 0.89172 0.22318 0.13249 0.0
H1217 H 0.93128 0.28282 0.1886 0.0
H1218 H 0.92979 0.26119 0.21398 0.0
H1219 H 0.91095 0.27722 0.21569 0.0
C1220 C 0.91283 0.207 0.23788 0.0
C1221 C 0.90316 0.21364 0.27012 0.0
C1222 C 0.91335 0.21711 0.20365 0.0
C1223 C 0.90434 0.23414 0.2009 0.0
C1224 C 0.8945 0.24074 0.23279 0.0
H1225 H 0.87639 0.29408 0.9924 0.0
H1226 H 0.87607 0.27631 0.05214 0.0
C1227 C 0.89395 0.23063 0.26707 0.0
C1228 C 0.90501 0.2448 0.16443 0.0
H1229 H 0.91904 0.28571 0.12561 0.0
C1230 C 0.89772 0.23684 0.13095 0.0
C1231 C 0.91306 0.26253 0.16236 0.0
C1232 C 0.92188 0.27143 0.19695 0.0
C1233 C 0.89797 0.24625 0.09562 0.0
C1234 C 0.90553 0.26418 0.09379 0.0
C1235 C 0.91311 0.27202 0.12712 0.0
C1236 C 0.90575 0.27502 0.05753 0.0
C1237 C 0.89039 0.23678 0.06041 0.0
C1238 C 0.92253 0.28056 0.04109 0.0
C1239 C 0.92277 0.29085 0.00703 0.0
C1240 C 0.90619 0.29597 0.9889 0.0
C1241 C 0.8894 0.2905 1.0057 0.0
C1242 C 0.88919 0.28018 0.03966 0.0
H1243 H 0.88946 0.22164 0.06446 0.0
H1244 H 0.87631 0.24204 0.05451 0.0
H1245 H 0.89909 0.23966 0.03484 0.0
H1246 H 0.93547 0.27685 0.05455 0.0
H1247 H 0.93593 0.29504 0.99526 0.0
H1248 H 0.23755 0.37963 0.54818 0.0
H1249 H 0.25459 0.37967 0.48735 0.0
H1250 H 0.21398 0.41586 0.43766 0.0
H1251 H 0.19717 0.41633 0.49851 0.0
H1252 H 0.24261 0.3686 0.41396 0.0
H1253 H 0.26242 0.44236 0.41393 0.0
H1254 H 0.25397 0.43078 0.45635 0.0
H1255 H 0.23815 0.4384 0.41988 0.0
C1256 C 0.23235 0.3878 0.52449 0.0
C1257 C 0.21598 0.39803 0.52841 0.0
C1258 C 0.24205 0.3877 0.48962 0.0
C1259 C 0.23571 0.39797 0.45805 0.0
C1260 C 0.21933 0.40808 0.46177 0.0
H1261 H 0.27333 0.41665 0.22355 0.0
H1262 H 0.25609 0.41552 0.28399 0.0
C1263 C 0.20961 0.40816 0.49653 0.0
C1264 C 0.24599 0.39783 0.42098 0.0
H1265 H 0.26798 0.42573 0.3564 0.0
C1266 C 0.24825 0.38107 0.40146 0.0
C1267 C 0.25331 0.41412 0.40459 0.0
C1268 C 0.25202 0.43242 0.42488 0.0
C1269 C 0.25727 0.38021 0.36569 0.0
C1270 C 0.26457 0.3965 0.34927 0.0
C1271 C 0.26234 0.41325 0.36886 0.0
C1272 C 0.27469 0.3965 0.31199 0.0
C1273 C 0.2585 0.36191 0.34537 0.0
C1274 C 0.29094 0.38622 0.30751 0.0
C1275 C 0.30076 0.38673 0.27287 0.0
C1276 C 0.29465 0.39765 0.24191 0.0
C1277 C 0.27832 0.40788 0.24648 0.0
C1278 C 0.26851 0.40736 0.28116 0.0
H1279 H 0.24801 0.35204 0.35616 0.0
H1280 H 0.25666 0.36357 0.31387 0.0
H1281 H 0.27231 0.35583 0.35056 0.0
H1282 H 0.29619 0.37799 0.33104 0.0
H1283 H 0.31316 0.37853 0.27038 0.0
H1284 H 0.41776 0.77246 0.46766 0.0
H1285 H 0.41717 0.75546 0.52839 0.0
H1286 H 0.37896 0.79493 0.57523 0.0
H1287 H 0.37892 0.81162 0.51424 0.0
H1288 H 0.42735 0.76736 0.60042 0.0
H1289 H 0.35376 0.74663 0.60123 0.0
H1290 H 0.36504 0.75546 0.5588 0.0
H1291 H 0.35726 0.77094 0.5957 0.0
C1292 C 0.40896 0.77737 0.4906 0.0
C1293 C 0.39834 0.79343 0.48581 0.0
C1294 C 0.40875 0.76769 0.52547 0.0
C1295 C 0.39784 0.77374 0.55632 0.0
C1296 C 0.38723 0.78976 0.55169 0.0
H1297 H 0.38244 0.73553 0.79269 0.0
H1298 H 0.38207 0.753 0.73236 0.0
C1299 C 0.38741 0.79944 0.51685 0.0
C1300 C 0.39808 0.76367 0.59371 0.0
H1301 H 0.37064 0.74131 0.6587 0.0
C1302 C 0.41495 0.76159 0.61305 0.0
C1303 C 0.3819 0.75619 0.61036 0.0
C1304 C 0.36349 0.75724 0.59034 0.0
C1305 C 0.41606 0.75248 0.64868 0.0
C1306 C 0.3999 0.74496 0.66526 0.0
C1307 C 0.38301 0.74711 0.64606 0.0
C1308 C 0.40032 0.73447 0.70209 0.0
C1309 C 0.43449 0.75129 0.66862 0.0
C1310 C 0.41055 0.71814 0.70512 0.0
C1311 C 0.41085 0.70817 0.73957 0.0
C1312 C 0.40084 0.71423 0.77185 0.0
C1313 C 0.39051 0.73057 0.76866 0.0
C1314 C 0.39018 0.74052 0.73409 0.0
H1315 H 0.4443 0.76181 0.65766 0.0
H1316 H 0.43297 0.7531 0.70016 0.0
H1317 H 0.44059 0.73752 0.66332 0.0
H1318 H 0.41824 0.71301 0.6807 0.0
H1319 H 0.41909 0.69576 0.74099 0.0
H1320 H 0.73688 0.6268 0.21669 0.0
H1321 H 0.7543 0.62722 0.27708 0.0
H1322 H 0.71416 0.59112 0.32877 0.0
H1323 H 0.69696 0.59024 0.26842 0.0
H1324 H 0.74245 0.6386 0.35087 0.0
H1325 H 0.76313 0.5651 0.35145 0.0
H1326 H 0.75446 0.57648 0.30899 0.0
H1327 H 0.73881 0.56877 0.34568 0.0
C1328 C 0.73187 0.61877 0.24075 0.0
C1329 C 0.71551 0.60844 0.23755 0.0
C1330 C 0.74179 0.61912 0.27534 0.0
C1331 C 0.73569 0.60901 0.30734 0.0
C1332 C 0.71932 0.59879 0.30433 0.0
H1333 H 0.77316 0.59122 0.54162 0.0
H1334 H 0.75638 0.59192 0.48066 0.0
C1335 C 0.70938 0.59848 0.26986 0.0
C1336 C 0.74618 0.6094 0.34413 0.0
H1337 H 0.76862 0.58194 0.40878 0.0
C1338 C 0.74828 0.62624 0.36343 0.0
C1339 C 0.75374 0.59326 0.36058 0.0
C1340 C 0.7526 0.57489 0.3405 0.0
C1341 C 0.75734 0.6273 0.39914 0.0
C1342 C 0.76484 0.61113 0.41569 0.0
C1343 C 0.76283 0.59432 0.39622 0.0
C1344 C 0.7748 0.6113 0.45317 0.0
C1345 C 0.75833 0.64565 0.41932 0.0
C1346 C 0.79082 0.6219 0.45811 0.0
C1347 C 0.80038 0.62166 0.4931 0.0
C1348 C 0.79423 0.61068 0.52395 0.0
C1349 C 0.77817 0.60006 0.51883 0.0
C1350 C 0.76862 0.60033 0.48383 0.0
H1351 H 0.74775 0.65538 0.40836 0.0
H1352 H 0.75645 0.64403 0.45082 0.0
H1353 H 0.77208 0.65188 0.41419 0.0
H1354 H 0.79609 0.63022 0.43471 0.0
H1355 H 0.81257 0.63015 0.49598 0.0
H1356 H 0.59225 0.31664 0.73449 0.0
H1357 H 0.5923 0.29912 0.67446 0.0
H1358 H 0.61916 0.25389 0.73172 0.0
H1359 H 0.6198 0.27146 0.79161 0.0
H1360 H 0.62561 0.28172 0.6359 0.0
H1361 H 0.57053 0.23257 0.67927 0.0
H1362 H 0.57327 0.25483 0.70169 0.0
H1363 H 0.5889 0.2365 0.7131 0.0
C1364 C 0.59841 0.30307 0.73434 0.0
C1365 C 0.60598 0.2955 0.76815 0.0
C1366 C 0.5983 0.29304 0.7 0.0
C1367 C 0.60556 0.27516 0.6988 0.0
C1368 C 0.61326 0.26758 0.73222 0.0
H1369 H 0.61026 0.18947 0.52546 0.0
H1370 H 0.61125 0.20766 0.58436 0.0
C1371 C 0.61351 0.27764 0.76651 0.0
C1372 C 0.60518 0.26446 0.66252 0.0
H1373 H 0.585 0.22733 0.61956 0.0
C1374 C 0.61671 0.26985 0.63218 0.0
C1375 C 0.59363 0.24895 0.65797 0.0
C1376 C 0.58075 0.24284 0.68955 0.0
C1377 C 0.61724 0.25993 0.59751 0.0
C1378 C 0.60551 0.24449 0.59269 0.0
C1379 C 0.59396 0.23915 0.62316 0.0
C1380 C 0.60511 0.23358 0.55647 0.0
C1381 C 0.63077 0.26578 0.56689 0.0
C1382 C 0.60111 0.24199 0.52108 0.0
C1383 C 0.60084 0.23166 0.48714 0.0
C1384 C 0.60431 0.21259 0.48783 0.0
C1385 C 0.60792 0.20415 0.52351 0.0
C1386 C 0.60832 0.21453 0.55738 0.0
H1387 H 0.64225 0.27402 0.57915 0.0
H1388 H 0.63668 0.25368 0.5518 0.0
H1389 H 0.62356 0.27448 0.54542 0.0
H1390 H 0.59812 0.25657 0.51967 0.0
H1391 H 0.59813 0.2387 0.46028 0.0
H1392 H 0.35933 0.04161 0.2517 0.0
H1393 H 0.36627 0.01171 0.28053 0.0
H1394 H 0.3701 0.98754 0.16777 0.0
H1395 H 0.36274 0.01717 0.13859 0.0
H1396 H 0.34699 0.97611 0.26892 0.0
H1397 H 0.42025 0.9755 0.22257 0.0
H1398 H 0.40673 0.99634 0.22475 0.0
H1399 H 0.40382 0.98063 0.18539 0.0
C1400 C 0.36142 0.02995 0.2329 0.0
C1401 C 0.36058 0.03196 0.19263 0.0
C1402 C 0.36548 0.01286 0.24952 0.0
C1403 C 0.36894 0.9975 0.22626 0.0
C1404 C 0.36779 0.99932 0.18621 0.0
H1405 H 0.39913 0.88409 0.24676 0.0
H1406 H 0.39173 0.91554 0.22776 0.0
C1407 C 0.36363 0.01634 0.16957 0.0
C1408 C 0.37383 0.97951 0.24361 0.0
H1409 H 0.40833 0.94766 0.24807 0.0
C1410 C 0.36044 0.96991 0.26475 0.0
C1411 C 0.39139 0.97153 0.23809 0.0
C1412 C 0.40647 0.98155 0.21675 0.0
C1413 C 0.36392 0.95216 0.2792 0.0
C1414 C 0.38141 0.94402 0.27305 0.0
C1415 C 0.39492 0.95388 0.25273 0.0
C1416 C 0.38571 0.92491 0.28544 0.0
C1417 C 0.3486 0.942 0.2995 0.0
C1418 C 0.38497 0.91969 0.32433 0.0
C1419 C 0.38912 0.90159 0.33532 0.0
C1420 C 0.39426 0.88847 0.30762 0.0
C1421 C 0.39522 0.89384 0.26884 0.0
C1422 C 0.391 0.91184 0.2579 0.0
H1423 H 0.33492 0.94829 0.29374 0.0
H1424 H 0.34818 0.92734 0.29055 0.0
H1425 H 0.35104 0.94246 0.33097 0.0
H1426 H 0.38132 0.92963 0.34621 0.0
H1427 H 0.38835 0.89789 0.36544 0.0
H1428 H 0.88317 0.60969 0.7659 0.0
H1429 H 0.91461 0.61664 0.78596 0.0
H1430 H 0.92986 0.62674 0.66797 0.0
H1431 H 0.89813 0.62018 0.64767 0.0
H1432 H 0.9466 0.59956 0.76704 0.0
H1433 H 0.94906 0.67272 0.72065 0.0
H1434 H 0.92781 0.65986 0.7231 0.0
H1435 H 0.94326 0.6567 0.68327 0.0
C1436 C 0.89316 0.61345 0.74415 0.0
C1437 C 0.88813 0.61446 0.70518 0.0
C1438 C 0.91117 0.61741 0.75569 0.0
C1439 C 0.92457 0.62247 0.72859 0.0
C1440 C 0.91967 0.62327 0.68953 0.0
H1441 H 0.04173 0.64649 0.76462 0.0
H1442 H 0.01178 0.64002 0.73542 0.0
C1443 C 0.90157 0.6194 0.67793 0.0
C1444 C 0.94369 0.62644 0.7416 0.0
H1445 H 0.97655 0.66014 0.74612 0.0
C1446 C 0.95314 0.6128 0.76238 0.0
C1447 C 0.95226 0.64372 0.73546 0.0
C1448 C 0.94256 0.65917 0.71471 0.0
C1449 C 0.9708 0.616 0.77744 0.0
C1450 C 0.97921 0.63335 0.77186 0.0
C1451 C 0.97002 0.64686 0.75032 0.0
C1452 C 0.99726 0.63788 0.78948 0.0
C1453 C 0.98037 0.6008 0.79924 0.0
C1454 C 0.99894 0.63916 0.82953 0.0
C1455 C 0.01599 0.64305 0.84639 0.0
C1456 C 0.0318 0.64572 0.82355 0.0
C1457 C 0.02994 0.64471 0.78326 0.0
C1458 C 0.01282 0.64091 0.76643 0.0
H1459 H 0.974 0.58716 0.79359 0.0
H1460 H 0.9952 0.60017 0.79149 0.0
H1461 H 0.97938 0.6036 0.83053 0.0
H1462 H 0.98701 0.63716 0.84781 0.0
H1463 H 0.0167 0.64408 0.87736 0.0
H1464 H 0.63871 0.96326 0.24419 0.0
H1465 H 0.63164 0.99243 0.2764 0.0
H1466 H 0.6566 0.02227 0.18272 0.0
H1467 H 0.66397 0.99325 0.15073 0.0
H1468 H 0.66699 0.03429 0.25982 0.0
H1469 H 0.59116 0.02911 0.23739 0.0
H1470 H 0.60241 0.00962 0.25905 0.0
H1471 H 0.60741 0.01559 0.2101 0.0
C1472 C 0.64283 0.97602 0.23063 0.0
C1473 C 0.65179 0.97594 0.19475 0.0
C1474 C 0.63867 0.99267 0.24893 0.0
C1475 C 0.64346 0.00947 0.23173 0.0
C1476 C 0.65273 0.00942 0.19637 0.0
H1477 H 0.60727 0.12039 0.25227 0.0
H1478 H 0.61506 0.08883 0.23478 0.0
C1479 C 0.65679 0.99284 0.17799 0.0
C1480 C 0.63858 0.02722 0.24998 0.0
H1481 H 0.60215 0.05549 0.2692 0.0
C1482 C 0.65282 0.03889 0.26228 0.0
C1483 C 0.62008 0.03317 0.25279 0.0
C1484 C 0.60432 0.02134 0.23896 0.0
C1485 C 0.64906 0.05654 0.27679 0.0
C1486 C 0.63056 0.06256 0.27922 0.0
C1487 C 0.61631 0.05075 0.26752 0.0
C1488 C 0.62578 0.08159 0.2908 0.0
C1489 C 0.6649 0.06888 0.288 0.0
C1490 C 0.62911 0.08795 0.32827 0.0
C1491 C 0.62465 0.10607 0.33843 0.0
C1492 C 0.61678 0.11806 0.31124 0.0
C1493 C 0.61335 0.11154 0.27388 0.0
C1494 C 0.61776 0.09348 0.26382 0.0
H1495 H 0.67838 0.06334 0.27826 0.0
H1496 H 0.66303 0.08286 0.27568 0.0
H1497 H 0.6653 0.07022 0.31976 0.0
H1498 H 0.63508 0.0789 0.34964 0.0
H1499 H 0.62738 0.11068 0.36747 0.0
H1500 H 0.11195 0.38576 0.65062 0.0
H1501 H 0.07994 0.37988 0.6702 0.0
H1502 H 0.09464 0.39032 0.78831 0.0
H1503 H 0.12633 0.39652 0.76905 0.0
H1504 H 0.06565 0.35393 0.72048 0.0
H1505 H 0.05077 0.42414 0.77364 0.0
H1506 H 0.07064 0.41899 0.74435 0.0
H1507 H 0.07104 0.41452 0.79526 0.0
C1508 C 0.1083 0.38687 0.68072 0.0
C1509 C 0.12163 0.39176 0.70824 0.0
C1510 C 0.09003 0.3835 0.69186 0.0
C1511 C 0.08481 0.38503 0.73062 0.0
C1512 C 0.09821 0.38954 0.75812 0.0
H1513 H 0.99246 0.36337 0.87722 0.0
H1514 H 0.02224 0.36979 0.8475 0.0
C1515 C 0.11638 0.39297 0.74705 0.0
C1516 C 0.06551 0.38155 0.74285 0.0
H1517 H 0.02993 0.4004 0.79368 0.0
C1518 C 0.05773 0.36416 0.73602 0.0
C1519 C 0.05516 0.39495 0.763 0.0
C1520 C 0.06225 0.41426 0.76916 0.0
C1521 C 0.04018 0.35956 0.75028 0.0
C1522 C 0.03018 0.37274 0.77165 0.0
C1523 C 0.03773 0.39027 0.77756 0.0
C1524 C 0.01206 0.36846 0.78918 0.0
C1525 C 0.0327 0.34045 0.7436 0.0
C1526 C 0.99643 0.36571 0.76618 0.0
C1527 C 0.97927 0.36223 0.78309 0.0
C1528 C 0.97741 0.36143 0.82339 0.0
C1529 C 0.99321 0.36412 0.84622 0.0
C1530 C 0.01031 0.36769 0.82927 0.0
H1531 H 0.04333 0.33099 0.73189 0.0
H1532 H 0.02725 0.33459 0.77082 0.0
H1533 H 0.02113 0.34116 0.72279 0.0
H1534 H 0.99746 0.36652 0.73516 0.0
H1535 H 0.96746 0.36054 0.76448 0.0
H1536 H 0.40544 0.62091 1.00629 0.0
H1537 H 0.39694 0.58976 0.02551 0.0
H1538 H 0.37608 0.57913 0.91159 0.0
H1539 H 0.38483 0.61041 0.89184 0.0
H1540 H 0.36165 0.57507 0.02529 0.0
H1541 H 0.4086 0.53399 0.93253 0.0
H1542 H 0.41192 0.5583 0.94073 0.0
H1543 H 0.39437 0.55054 0.90816 0.0
C1544 C 0.39919 0.61193 0.98513 0.0
C1545 C 0.39582 0.61813 0.94749 0.0
C1546 C 0.39432 0.59411 0.99621 0.0
C1547 C 0.38601 0.58205 0.96995 0.0
C1548 C 0.38277 0.58809 0.93216 0.0
H1549 H 0.34542 0.46999 0.01701 0.0
H1550 H 0.35228 0.49923 0.98483 0.0
C1551 C 0.38771 0.60598 0.92096 0.0
C1552 C 0.38005 0.56353 0.98316 0.0
H1553 H 0.38814 0.51745 0.97253 0.0
C1554 C 0.36739 0.56248 0.0136 0.0
C1555 C 0.38745 0.54709 0.96772 0.0
C1556 C 0.40145 0.54742 0.93567 0.0
C1557 C 0.36219 0.5455 0.02952 0.0
C1558 C 0.37003 0.52912 0.01496 0.0
C1559 C 0.3822 0.53006 0.98366 0.0
C1560 C 0.36651 0.51107 0.03351 0.0
C1561 C 0.34841 0.54523 0.06201 0.0
C1562 C 0.37258 0.50791 0.07121 0.0
C1563 C 0.36882 0.49122 0.08955 0.0
C1564 C 0.3589 0.47726 0.07061 0.0
C1565 C 0.3532 0.48033 0.03242 0.0
C1566 C 0.35703 0.49707 0.014 0.0
H1567 H 0.34023 0.55815 0.06314 0.0
H1568 H 0.33881 0.5334 0.05914 0.0
H1569 H 0.35586 0.54379 0.0897 0.0
H1570 H 0.38022 0.51841 0.08652 0.0
H1571 H 0.37381 0.48926 0.11857 0.0
H1572 H 0.6126 0.62477 0.1158 0.0
H1573 H 0.58067 0.63177 0.09742 0.0
H1574 H 0.59046 0.60885 0.98499 0.0
H1575 H 0.62222 0.60181 1.00303 0.0
H1576 H 0.56875 0.65428 0.03365 0.0
H1577 H 0.54306 0.58259 0.02243 0.0
H1578 H 0.56384 0.58852 0.04821 0.0
H1579 H 0.56411 0.58676 0.99668 0.0
C1580 C 0.60789 0.62112 0.08726 0.0
C1581 C 0.61991 0.61269 0.0609 0.0
C1582 C 0.58968 0.62515 0.07681 0.0
C1583 C 0.58314 0.6206 0.04003 0.0
C1584 C 0.59513 0.61218 0.01374 0.0
H1585 H 0.48887 0.63265 0.89568 0.0
H1586 H 0.51787 0.62536 0.92754 0.0
C1587 C 0.61331 0.60826 0.02405 0.0
C1588 C 0.56402 0.62516 0.02833 0.0
H1589 H 0.52433 0.60593 0.99416 0.0
C1590 C 0.55891 0.64374 0.0255 0.0
C1591 C 0.55125 0.61136 0.01773 0.0
C1592 C 0.55573 0.59117 0.02171 0.0
C1593 C 0.54166 0.64892 0.01057 0.0
C1594 C 0.52907 0.6351 0.99894 0.0
C1595 C 0.534 0.61651 1.00297 0.0
C1596 C 0.51119 0.63959 0.98031 0.0
C1597 C 0.53741 0.66912 1.00574 0.0
C1598 C 0.49763 0.64986 0.99952 0.0
C1599 C 0.48101 0.65425 0.98114 0.0
C1600 C 0.47759 0.64835 0.94325 0.0
C1601 C 0.4911 0.63774 0.92451 0.0
C1602 C 0.50767 0.63341 0.94283 0.0
H1603 H 0.55002 0.67776 0.00783 0.0
H1604 H 0.53072 0.67178 0.97757 0.0
H1605 H 0.52778 0.67351 0.02872 0.0
H1606 H 0.49989 0.65448 0.02873 0.0
H1607 H 0.471 0.6625 0.99641 0.0
H1608 H 0.64689 0.54289 0.01116 0.0
H1609 H 0.63947 0.51372 0.97972 0.0
H1610 H 0.64394 0.48554 0.0883 0.0
H1611 H 0.65193 0.51437 0.11989 0.0
H1612 H 0.66215 0.47748 0.98503 0.0
H1613 H 0.59037 0.47439 0.04075 0.0
H1614 H 0.60296 0.49575 0.0361 0.0
H1615 H 0.60805 0.48028 0.0749 0.0
C1616 C 0.64652 0.53052 0.02842 0.0
C1617 C 0.64992 0.53115 0.06831 0.0
C1618 C 0.64219 0.51386 0.01034 0.0
C1619 C 0.641 0.49757 0.03181 0.0
C1620 C 0.64459 0.49804 0.07136 0.0
H1621 H 0.61226 0.38436 0.00928 0.0
H1622 H 0.61978 0.41576 0.02839 0.0
C1623 C 0.64905 0.51462 0.08941 0.0
C1624 C 0.63591 0.47997 0.01326 0.0
H1625 H 0.60193 0.44753 0.01084 0.0
C1626 C 0.64893 0.47096 0.9902 0.0
C1627 C 0.61866 0.4716 0.02024 0.0
C1628 C 0.60409 0.481 0.04412 0.0
C1629 C 0.64543 0.45333 0.9752 0.0
C1630 C 0.62828 0.44475 0.98287 0.0
C1631 C 0.61508 0.45409 1.00501 0.0
C1632 C 0.6241 0.42565 0.97039 0.0
C1633 C 0.66041 0.44373 0.95281 0.0
C1634 C 0.62394 0.42074 0.93133 0.0
C1635 C 0.61975 0.40267 0.92027 0.0
C1636 C 0.61546 0.3893 0.9481 0.0
C1637 C 0.6155 0.39432 0.9871 0.0
C1638 C 0.61978 0.41229 0.9981 0.0
H1639 H 0.67408 0.4503 0.95721 0.0
H1640 H 0.66139 0.42901 0.96118 0.0
H1641 H 0.65712 0.44439 0.92169 0.0
H1642 H 0.62684 0.43091 0.90938 0.0
H1643 H 0.61971 0.39923 0.88998 0.0
H1644 H 0.39919 0.38589 0.12282 0.0
H1645 H 0.43082 0.3783 0.10325 0.0
H1646 H 0.41961 0.39898 0.98939 0.0
H1647 H 0.38813 0.40632 0.00843 0.0
H1648 H 0.43531 0.36415 0.98972 0.0
H1649 H 0.47503 0.41232 0.08243 0.0
H1650 H 0.45884 0.39762 0.10674 0.0
H1651 H 0.4506 0.4149 0.07408 0.0
C1652 C 0.40356 0.38897 0.09375 0.0
C1653 C 0.39117 0.39668 0.06716 0.0
C1654 C 0.42165 0.38471 0.08267 0.0
C1655 C 0.42762 0.38824 0.04494 0.0
C1656 C 0.41531 0.39617 0.01864 0.0
H1657 H 0.52099 0.37805 0.89668 0.0
H1658 H 0.49185 0.3846 0.92891 0.0
C1659 C 0.3973 0.40036 0.02961 0.0
C1660 C 0.44633 0.38289 0.03178 0.0
H1661 H 0.49221 0.39239 0.04249 0.0
C1662 C 0.44775 0.37028 1.00139 0.0
C1663 C 0.46255 0.39081 0.04722 0.0
C1664 C 0.46179 0.40477 0.07923 0.0
C1665 C 0.46489 0.36561 0.98553 0.0
C1666 C 0.48104 0.37394 1.00011 0.0
C1667 C 0.47976 0.38609 0.03134 0.0
C1668 C 0.49922 0.37081 0.98182 0.0
C1669 C 0.46558 0.35185 0.95309 0.0
C1670 C 0.51322 0.36131 1.00131 0.0
C1671 C 0.52992 0.35742 0.98282 0.0
C1672 C 0.53293 0.36307 0.94458 0.0
C1673 C 0.51904 0.37315 0.92577 0.0
C1674 C 0.50238 0.37697 0.9442 0.0
H1675 H 0.45281 0.34344 0.95162 0.0
H1676 H 0.46707 0.35931 0.92541 0.0
H1677 H 0.47758 0.34249 0.95631 0.0
H1678 H 0.51102 0.35647 0.03042 0.0
H1679 H 0.54021 0.3495 0.99809 0.0
H1680 H 0.90495 0.39001 0.75685 0.0
H1681 H 0.89689 0.42168 0.74028 0.0
H1682 H 0.8712 0.42863 0.85105 0.0
H1683 H 0.87931 0.39682 0.86808 0.0
H1684 H 0.84959 0.44036 0.78347 0.0
H1685 H 0.9203 0.46956 0.78692 0.0
H1686 H 0.91806 0.44851 0.76016 0.0
H1687 H 0.9142 0.44841 0.81117 0.0
C1688 C 0.89763 0.39827 0.77779 0.0
C1689 C 0.8928 0.39095 0.81383 0.0
C1690 C 0.89313 0.41639 0.76833 0.0
C1691 C 0.88366 0.42753 0.79462 0.0
C1692 C 0.87864 0.42025 0.83051 0.0
H1693 H 0.86701 0.54533 0.75004 0.0
H1694 H 0.87339 0.51614 0.78289 0.0
C1695 C 0.88329 0.40212 0.84018 0.0
C1696 C 0.8786 0.44658 0.7838 0.0
H1697 H 0.89717 0.48772 0.75634 0.0
C1698 C 0.85994 0.45081 0.77798 0.0
C1699 C 0.89214 0.4602 0.77709 0.0
C1700 C 0.9123 0.45657 0.78445 0.0
C1701 C 0.85454 0.46811 0.7639 0.0
C1702 C 0.86817 0.4814 0.7552 0.0
C1703 C 0.88675 0.47745 0.76274 0.0
C1704 C 0.86355 0.49909 0.73627 0.0
C1705 C 0.8343 0.47195 0.75804 0.0
C1706 C 0.85604 0.49914 0.69912 0.0
C1707 C 0.85241 0.51574 0.68033 0.0
C1708 C 0.85625 0.53266 0.69826 0.0
C1709 C 0.8637 0.53256 0.73561 0.0
C1710 C 0.86743 0.51591 0.75434 0.0
H1711 H 0.82556 0.46264 0.77565 0.0
H1712 H 0.83093 0.48643 0.76544 0.0
H1713 H 0.83076 0.46971 0.72737 0.0
H1714 H 0.85322 0.48631 0.6844 0.0
H1715 H 0.8465 0.51531 0.65179 0.0
H1716 H 0.51776 0.14597 0.37755 0.0
H1717 H 0.48791 0.13927 0.34843 0.0
H1718 H 0.51222 0.14242 0.23563 0.0
H1719 H 0.54229 0.14867 0.26435 0.0
H1720 H 0.47704 0.16269 0.24755 0.0
H1721 H 0.47477 0.08942 0.29326 0.0
H1722 H 0.48037 0.10568 0.33042 0.0
H1723 H 0.49597 0.10244 0.29093 0.0
C1724 C 0.5169 0.14506 0.34658 0.0
C1725 C 0.5326 0.14776 0.32346 0.0
C1726 C 0.49977 0.1413 0.32998 0.0
C1727 C 0.49793 0.14017 0.28993 0.0
C1728 C 0.51339 0.14322 0.26663 0.0
H1729 H 0.39858 0.12222 0.14926 0.0
H1730 H 0.43024 0.12937 0.16926 0.0
C1731 C 0.53058 0.14689 0.28319 0.0
C1732 C 0.47983 0.13574 0.27257 0.0
H1733 H 0.4473 0.10192 0.26733 0.0
C1734 C 0.47055 0.14937 0.25152 0.0
C1735 C 0.47149 0.11835 0.27781 0.0
C1736 C 0.48118 0.10303 0.29905 0.0
C1737 C 0.45276 0.14628 0.23682 0.0
C1738 C 0.44426 0.12895 0.24267 0.0
C1739 C 0.4538 0.1152 0.26293 0.0
C1740 C 0.42513 0.12501 0.22992 0.0
C1741 C 0.44295 0.1618 0.21652 0.0
C1742 C 0.41186 0.11984 0.2572 0.0
C1743 C 0.39392 0.11557 0.24584 0.0
C1744 C 0.38882 0.11637 0.20689 0.0
C1745 C 0.40208 0.1216 0.1795 0.0
C1746 C 0.42013 0.12578 0.19092 0.0
H1747 H 0.44949 0.17533 0.22249 0.0
H1748 H 0.44347 0.15943 0.18504 0.0
H1749 H 0.42825 0.16246 0.22529 0.0
H1750 H 0.4154 0.11912 0.28743 0.0
H1751 H 0.38404 0.11162 0.26769 0.0
H1752 H 0.12843 0.48075 0.66549 0.0
H1753 H 0.12236 0.51017 0.69713 0.0
H1754 H 0.1662 0.49948 0.77775 0.0
H1755 H 0.17249 0.46999 0.74589 0.0
H1756 H 0.11439 0.51692 0.78041 0.0
H1757 H 0.17791 0.55084 0.72455 0.0
H1758 H 0.1683 0.5305 0.70241 0.0
H1759 H 0.18029 0.5287 0.74732 0.0
C1760 C 0.13683 0.48467 0.68985 0.0
C1761 C 0.15103 0.47311 0.70302 0.0
C1762 C 0.13326 0.50141 0.70806 0.0
C1763 C 0.14392 0.50701 0.73956 0.0
C1764 C 0.1579 0.49541 0.75331 0.0
H1765 H 0.12166 0.60756 0.87347 0.0
H1766 H 0.13016 0.57582 0.85674 0.0
C1767 C 0.1614 0.47855 0.73526 0.0
C1768 C 0.14057 0.52527 0.75708 0.0
H1769 H 0.15769 0.56901 0.76127 0.0
C1770 C 0.12394 0.52827 0.77673 0.0
C1771 C 0.15302 0.54003 0.75186 0.0
C1772 C 0.17087 0.53753 0.73024 0.0
C1773 C 0.11931 0.54579 0.79078 0.0
C1774 C 0.13161 0.56061 0.7849 0.0
C1775 C 0.14838 0.55754 0.76588 0.0
C1776 C 0.12664 0.57969 0.79553 0.0
C1777 C 0.10102 0.54858 0.81053 0.0
C1778 C 0.12198 0.59229 0.76661 0.0
C1779 C 0.11704 0.6103 0.77602 0.0
C1780 C 0.11683 0.61609 0.81457 0.0
C1781 C 0.12168 0.60348 0.84354 0.0
C1782 C 0.1265 0.58537 0.83407 0.0
H1783 H 0.09231 0.53601 0.80977 0.0
H1784 H 0.1034 0.55241 0.84101 0.0
H1785 H 0.09339 0.56006 0.79672 0.0
H1786 H 0.12204 0.58813 0.7367 0.0
H1787 H 0.11344 0.61969 0.75302 0.0
H1788 H 0.61102 0.88471 0.1427 0.0
H1789 H 0.57893 0.87784 0.15992 0.0
H1790 H 0.58896 0.89721 0.27517 0.0
H1791 H 0.62088 0.90419 0.25823 0.0
H1792 H 0.56656 0.85365 0.21831 0.0
H1793 H 0.54183 0.92481 0.24355 0.0
H1794 H 0.56276 0.91985 0.21741 0.0
H1795 H 0.56262 0.9193 0.26909 0.0
C1796 C 0.60633 0.88765 0.17161 0.0
C1797 C 0.61847 0.89505 0.19907 0.0
C1798 C 0.58802 0.8837 0.1814 0.0
C1799 C 0.58149 0.88727 0.21866 0.0
C1800 C 0.59359 0.89469 0.24604 0.0
H1801 H 0.49383 0.84508 0.35615 0.0
H1802 H 0.52273 0.85315 0.32414 0.0
C1803 C 0.61187 0.89857 0.23635 0.0
C1804 C 0.56231 0.88246 0.22971 0.0
H1805 H 0.52286 0.90047 0.26789 0.0
C1806 C 0.55692 0.86391 0.2287 0.0
C1807 C 0.54969 0.89588 0.24292 0.0
C1808 C 0.55441 0.91611 0.24301 0.0
C1809 C 0.53954 0.85834 0.24218 0.0
C1810 C 0.52729 0.87165 0.25715 0.0
C1811 C 0.53234 0.89029 0.25662 0.0
C1812 C 0.50964 0.86635 0.27556 0.0
C1813 C 0.53443 0.83822 0.24083 0.0
C1814 C 0.4927 0.87125 0.25897 0.0
C1815 C 0.47611 0.86662 0.27722 0.0
C1816 C 0.47623 0.85729 0.31269 0.0
C1817 C 0.49327 0.85243 0.32911 0.0
C1818 C 0.50979 0.85689 0.3107 0.0
H1819 H 0.54351 0.83037 0.22105 0.0
H1820 H 0.5358 0.83223 0.27004 0.0
H1821 H 0.51989 0.83648 0.23151 0.0
H1822 H 0.49233 0.87866 0.23195 0.0
H1823 H 0.46323 0.87069 0.26406 0.0
H1824 H 0.89139 0.10903 0.38852 0.0
H1825 H 0.8843 0.07718 0.40681 0.0
H1826 H 0.89302 0.09089 0.52605 0.0
H1827 H 0.9005 0.12246 0.50802 0.0
H1828 H 0.90983 0.05875 0.50625 0.0
H1829 H 0.83701 0.05872 0.45624 0.0
H1830 H 0.85377 0.06453 0.42022 0.0
H1831 H 0.85035 0.07958 0.46055 0.0
C1832 C 0.89179 0.10522 0.41862 0.0
C1833 C 0.89645 0.11827 0.44683 0.0
C1834 C 0.88762 0.08706 0.42905 0.0
C1835 C 0.88784 0.08172 0.46788 0.0
C1836 C 0.8927 0.0947 0.49594 0.0
H1837 H 0.85715 0.9941 0.6166 0.0
H1838 H 0.86592 0.02257 0.58439 0.0
C1839 C 0.89696 0.11277 0.48556 0.0
C1840 C 0.88326 0.06262 0.47976 0.0
H1841 H 0.8483 0.03106 0.483 0.0
C1842 C 0.89641 0.05267 0.50091 0.0
C1843 C 0.86574 0.05467 0.47278 0.0
C1844 C 0.85082 0.06494 0.4515 0.0
C1845 C 0.89239 0.03519 0.51592 0.0
C1846 C 0.87479 0.02748 0.50968 0.0
C1847 C 0.86181 0.03707 0.48753 0.0
C1848 C 0.86924 0.01008 0.52849 0.0
C1849 C 0.90685 0.02517 0.539 0.0
C1850 C 0.86804 0.99366 0.50752 0.0
C1851 C 0.86326 0.97719 0.52598 0.0
C1852 C 0.85945 0.97691 0.56572 0.0
C1853 C 0.86034 0.99359 0.58627 0.0
C1854 C 0.86523 0.00995 0.56786 0.0
H1855 H 0.9207 0.03152 0.5358 0.0
H1856 H 0.903 0.02548 0.56987 0.0
H1857 H 0.90761 0.01052 0.53005 0.0
H1858 H 0.87109 0.99354 0.47704 0.0
H1859 H 0.86289 0.96469 0.50917 0.0
H1860 H 0.11064 0.122 0.62298 0.0
H1861 H 0.07877 0.12925 0.60458 0.0
H1862 H 0.08893 0.10792 0.49092 0.0
H1863 H 0.1206 0.1006 0.50898 0.0
H1864 H 0.06716 0.15273 0.54376 0.0
H1865 H 0.04115 0.08162 0.52419 0.0
H1866 H 0.06196 0.08675 0.55062 0.0
H1867 H 0.06227 0.08609 0.49895 0.0
C1868 C 0.10601 0.11873 0.59418 0.0
C1869 C 0.11811 0.11069 0.56746 0.0
C1870 C 0.08783 0.1229 0.58372 0.0
C1871 C 0.08142 0.11887 0.54657 0.0
C1872 C 0.09348 0.11081 0.51996 0.0
H1873 H 0.99614 0.16248 0.40458 0.0
H1874 H 0.02445 0.15432 0.43846 0.0
C1875 C 0.11163 0.10675 0.53028 0.0
C1876 C 0.06242 0.1238 0.53472 0.0
H1877 H 0.02305 0.10574 0.49627 0.0
C1878 C 0.05742 0.14245 0.53384 0.0
C1879 C 0.04964 0.11035 0.52223 0.0
C1880 C 0.05392 0.09006 0.52435 0.0
C1881 C 0.0403 0.14807 0.51908 0.0
C1882 C 0.02797 0.13469 0.5045 0.0
C1883 C 0.0326 0.11599 0.5071 0.0
C1884 C 0.01065 0.13989 0.48465 0.0
C1885 C 0.03561 0.1683 0.51885 0.0
C1886 C 0.99348 0.13417 0.49895 0.0
C1887 C 0.97722 0.13873 0.47944 0.0
C1888 C 0.97788 0.14889 0.445 0.0
C1889 C 0.99514 0.15449 0.43074 0.0
C1890 C 0.01133 0.15002 0.45034 0.0
H1891 H 0.04391 0.17604 0.54027 0.0
H1892 H 0.03864 0.17408 0.48999 0.0
H1893 H 0.02076 0.17051 0.52501 0.0
H1894 H 0.99268 0.12619 0.52521 0.0
H1895 H 0.96418 0.13404 0.49094 0.0
H1896 H 0.12508 0.89566 0.39332 0.0
H1897 H 0.13275 0.92728 0.41265 0.0
H1898 H 0.10824 0.91764 0.52375 0.0
H1899 H 0.1006 0.88617 0.50485 0.0
H1900 H 0.09796 0.95231 0.48413 0.0
H1901 H 0.17355 0.93999 0.49563 0.0
H1902 H 0.16217 0.93281 0.45213 0.0
H1903 H 0.15699 0.92143 0.49658 0.0
C1904 C 0.12128 0.90033 0.4218 0.0
C1905 C 0.11231 0.88842 0.44764 0.0
C1906 C 0.12571 0.91834 0.43281 0.0
C1907 C 0.12115 0.9247 0.46969 0.0
C1908 C 0.11188 0.91296 0.49518 0.0
H1909 H 0.15753 0.01119 0.61683 0.0
H1910 H 0.14976 0.98262 0.58377 0.0
C1911 C 0.10758 0.89497 0.48435 0.0
C1912 C 0.12624 0.94348 0.48237 0.0
H1913 H 0.1628 0.96953 0.51173 0.0
C1914 C 0.11213 0.9562 0.48979 0.0
C1915 C 0.14474 0.94836 0.49001 0.0
C1916 C 0.16031 0.93497 0.48347 0.0
C1917 C 0.11602 0.97362 0.50529 0.0
C1918 C 0.13452 0.97844 0.51332 0.0
C1919 C 0.14865 0.96582 0.50531 0.0
C1920 C 0.13937 0.99599 0.5326 0.0
C1921 C 0.10028 0.98647 0.51434 0.0
C1922 C 0.13626 0.01301 0.51465 0.0
C1923 C 0.14059 0.02944 0.53364 0.0
C1924 C 0.14812 0.02913 0.57093 0.0
C1925 C 0.15144 0.012 0.58849 0.0
C1926 C 0.14716 0.99562 0.56949 0.0
H1927 H 0.08672 0.97937 0.51313 0.0
H1928 H 0.10201 0.9926 0.54334 0.0
H1929 H 0.10012 0.99785 0.49306 0.0
H1930 H 0.13048 0.01358 0.48596 0.0
H1931 H 0.13777 0.04236 0.51933 0.0
H1932 H 0.01862 0.87373 0.38934 0.0
H1933 H 0.9892 0.88094 0.41988 0.0
H1934 H 0.0084 0.85696 0.52594 0.0
H1935 H 0.03785 0.84942 0.49542 0.0
H1936 H 0.96494 0.85444 0.45372 0.0
H1937 H 0.98727 0.90777 0.55861 0.0
H1938 H 1.00109 0.90141 0.51752 0.0
H1939 H 1.00003 0.88655 0.55869 0.0
C1940 C 0.01664 0.86996 0.41914 0.0
C1941 C 0.03064 0.86093 0.43983 0.0
C1942 C 0.99983 0.87419 0.43662 0.0
C1943 C 0.99667 0.86963 0.47524 0.0
C1944 C 0.01067 0.86089 0.49627 0.0
H1945 H 0.89651 0.88508 0.61361 0.0
H1946 H 0.92784 0.87704 0.59277 0.0
C1947 C 0.02752 0.85661 0.47877 0.0
C1948 C 0.97834 0.8732 0.49258 0.0
H1949 H 0.95591 0.89907 0.55993 0.0
C1950 C 0.96296 0.86417 0.477 0.0
C1951 C 0.97584 0.88576 0.5232 0.0
C1952 C 0.99187 0.89607 0.54045 0.0
C1953 C 0.94512 0.86747 0.49092 0.0
C1954 C 0.94252 0.88047 0.5207 0.0
C1955 C 0.95794 0.88916 0.53702 0.0
C1956 C 0.9238 0.88579 0.5339 0.0
C1957 C 0.92922 0.85691 0.47373 0.0
C1958 C 0.9113 0.89371 0.50795 0.0
C1959 C 0.89348 0.89825 0.51969 0.0
C1960 C 0.88779 0.89511 0.55777 0.0
C1961 C 0.90047 0.88761 0.58405 0.0
C1962 C 0.91835 0.88302 0.57221 0.0
H1963 H 0.93392 0.84395 0.45992 0.0
H1964 H 0.91875 0.85348 0.49589 0.0
H1965 H 0.92251 0.86547 0.45131 0.0
H1966 H 0.91534 0.89635 0.47847 0.0
H1967 H 0.88412 0.90416 0.49879 0.0
loop_
_geom_bond_atom_site_label_1
_geom_bond_atom_site_label_2
_geom_bond_distance
_geom_bond_site_symmetry_2
_ccdc_geom_bond_type
Co0 N4 2.148 . S
Co0 N10 2.128 . S
Co0 N20 2.194 . S
Co0 O25 2.351 . S
Co0 O26 2.155 . S
Co0 O27 2.096 . S
C1 N4 1.301 . S
C1 N5 1.328 . S
C1 H6 0.930 . S
C2 C3 1.333 . S
C2 N4 1.317 . S
C2 H7 0.930 . S
C3 C2 1.333 . S
C3 N5 1.350 . S
C3 H29 0.931 . S
N4 Co0 2.148 . S
N4 C1 1.301 . S
N4 C2 1.317 . S
N5 C1 1.328 . S
N5 C3 1.350 . S
H6 C1 0.930 . S
H7 C2 0.930 . S
C8 O9 1.224 . S
C8 O27 1.247 . S
O9 C8 1.224 . S
N10 Co0 2.128 . S
N10 C11 1.355 . S
N10 C13 1.311 . S
C11 N10 1.355 . S
C11 C12 1.363 . S
C11 H23 0.929 . S
C12 C11 1.363 . S
C12 N14 1.375 . S
C12 H30 0.931 . S
C13 N10 1.311 . S
C13 N14 1.347 . S
C13 H24 0.929 . S
N14 C12 1.375 . S
N14 C13 1.347 . S
C15 C18 1.365 . S
C15 N20 1.328 . S
C15 H21 0.929 . S
C16 C17 1.362 . S
C16 C19 1.378 . S
C16 H31 0.929 . S
C17 C16 1.362 . S
C17 C18 1.366 . S
C18 C15 1.365 . S
C18 C17 1.366 . S
C18 H32 0.930 . S
C19 C16 1.378 . S
C19 N20 1.315 . S
C19 H22 0.930 . S
N20 Co0 2.194 . S
N20 C15 1.328 . S
N20 C19 1.315 . S
H21 C15 0.929 . S
H22 C19 0.930 . S
H23 C11 0.929 . S
H24 C13 0.929 . S
O25 Co0 2.351 . S
O25 C28 1.244 . S
O26 Co0 2.155 . S
O26 C28 1.240 . S
O27 Co0 2.096 . S
O27 C8 1.247 . S
C28 O25 1.244 . S
C28 O26 1.240 . S
H29 C3 0.931 . S
H30 C12 0.931 . S
H31 C16 0.929 . S
H32 C18 0.930 . S
Co33 N37 2.148 . S
Co33 N43 2.128 . S
Co33 N53 2.194 . S
Co33 O58 2.351 . S
Co33 O59 2.155 . S
Co33 O60 2.096 . S
C34 N37 1.301 . S
C34 N38 1.328 . S
C34 H39 0.930 . S
C35 C36 1.333 . S
C35 N37 1.317 . S
C35 H40 0.930 . S
C36 C35 1.333 . S
C36 N38 1.350 . S
C36 H62 0.931 . S
N37 Co33 2.148 . S
N37 C34 1.301 . S
N37 C35 1.317 . S
N38 C34 1.328 . S
N38 C36 1.350 . S
H39 C34 0.930 . S
H40 C35 0.930 . S
C41 O42 1.224 . S
C41 O60 1.247 . S
O42 C41 1.224 . S
N43 Co33 2.128 . S
N43 C44 1.355 . S
N43 C46 1.311 . S
C44 N43 1.355 . S
C44 C45 1.363 . S
C44 H56 0.929 . S
C45 C44 1.363 . S
C45 N47 1.375 . S
C45 H63 0.931 . S
C46 N43 1.311 . S
C46 N47 1.347 . S
C46 H57 0.929 . S
N47 C45 1.375 . S
N47 C46 1.347 . S
C48 C51 1.365 . S
C48 N53 1.328 . S
C48 H54 0.929 . S
C49 C50 1.362 . S
C49 C52 1.378 . S
C49 H64 0.929 . S
C50 C49 1.362 . S
C50 C51 1.366 . S
C51 C48 1.365 . S
C51 C50 1.366 . S
C51 H65 0.930 . S
C52 C49 1.378 . S
C52 N53 1.315 . S
C52 H55 0.930 . S
N53 Co33 2.194 . S
N53 C48 1.328 . S
N53 C52 1.315 . S
H54 C48 0.929 . S
H55 C52 0.930 . S
H56 C44 0.929 . S
H57 C46 0.929 . S
O58 Co33 2.351 . S
O58 C61 1.244 . S
O59 Co33 2.155 . S
O59 C61 1.240 . S
O60 Co33 2.096 . S
O60 C41 1.247 . S
C61 O58 1.244 . S
C61 O59 1.240 . S
H62 C36 0.931 . S
H63 C45 0.931 . S
H64 C49 0.929 . S
H65 C51 0.930 . S
Co66 N70 2.148 . S
Co66 N76 2.128 . S
Co66 N86 2.194 . S
Co66 O91 2.351 . S
Co66 O92 2.155 . S
Co66 O93 2.096 . S
C67 N70 1.301 . S
C67 N71 1.328 . S
C67 H72 0.930 . S
C68 C69 1.333 . S
C68 N70 1.317 . S
C68 H73 0.930 . S
C69 C68 1.333 . S
C69 N71 1.350 . S
C69 H95 0.931 . S
N70 Co66 2.148 . S
N70 C67 1.301 . S
N70 C68 1.317 . S
N71 C67 1.328 . S
N71 C69 1.350 . S
H72 C67 0.930 . S
H73 C68 0.930 . S
C74 O75 1.224 . S
C74 O93 1.247 . S
O75 C74 1.224 . S
N76 Co66 2.128 . S
N76 C77 1.355 . S
N76 C79 1.311 . S
C77 N76 1.355 . S
C77 C78 1.363 . S
C77 H89 0.929 . S
C78 C77 1.363 . S
C78 N80 1.375 . S
C78 H96 0.931 . S
C79 N76 1.311 . S
C79 N80 1.347 . S
C79 H90 0.929 . S
N80 C78 1.375 . S
N80 C79 1.347 . S
C81 C84 1.365 . S
C81 N86 1.328 . S
C81 H87 0.929 . S
C82 C83 1.362 . S
C82 C85 1.378 . S
C82 H97 0.929 . S
C83 C82 1.362 . S
C83 C84 1.366 . S
C84 C81 1.365 . S
C84 C83 1.366 . S
C84 H98 0.930 . S
C85 C82 1.378 . S
C85 N86 1.315 . S
C85 H88 0.930 . S
N86 Co66 2.194 . S
N86 C81 1.328 . S
N86 C85 1.315 . S
H87 C81 0.929 . S
H88 C85 0.930 . S
H89 C77 0.929 . S
H90 C79 0.929 . S
O91 Co66 2.351 . S
O91 C94 1.244 . S
O92 Co66 2.155 . S
O92 C94 1.240 . S
O93 Co66 2.096 . S
O93 C74 1.247 . S
C94 O91 1.244 . S
C94 O92 1.240 . S
H95 C69 0.931 . S
H96 C78 0.931 . S
H97 C82 0.929 . S
H98 C84 0.930 . S
Co99 N103 2.148 . S
Co99 N109 2.128 . S
Co99 N119 2.194 . S
Co99 O124 2.351 . S
Co99 O125 2.155 . S
Co99 O126 2.096 . S
C100 N103 1.301 . S
C100 N104 1.328 . S
C100 H105 0.930 . S
C101 C102 1.333 . S
C101 N103 1.317 . S
C101 H106 0.930 . S
C102 C101 1.333 . S
C102 N104 1.350 . S
C102 H128 0.931 . S
N103 Co99 2.148 . S
N103 C100 1.301 . S
N103 C101 1.317 . S
N104 C100 1.328 . S
N104 C102 1.350 . S
H105 C100 0.930 . S
H106 C101 0.930 . S
C107 O108 1.224 . S
C107 O126 1.247 . S
O108 C107 1.224 . S
N109 Co99 2.128 . S
N109 C110 1.355 . S
N109 C112 1.311 . S
C110 N109 1.355 . S
C110 C111 1.363 . S
C110 H122 0.929 . S
C111 C110 1.363 . S
C111 N113 1.375 . S
C111 H129 0.931 . S
C112 N109 1.311 . S
C112 N113 1.347 . S
C112 H123 0.929 . S
N113 C111 1.375 . S
N113 C112 1.347 . S
C114 C117 1.365 . S
C114 N119 1.328 . S
C114 H120 0.929 . S
C115 C116 1.362 . S
C115 C118 1.378 . S
C115 H130 0.929 . S
C116 C115 1.362 . S
C116 C117 1.366 . S
C117 C114 1.365 . S
C117 C116 1.366 . S
C117 H131 0.930 . S
C118 C115 1.378 . S
C118 N119 1.315 . S
C118 H121 0.930 . S
N119 Co99 2.194 . S
N119 C114 1.328 . S
N119 C118 1.315 . S
H120 C114 0.929 . S
H121 C118 0.930 . S
H122 C110 0.929 . S
H123 C112 0.929 . S
O124 Co99 2.351 . S
O124 C127 1.244 . S
O125 Co99 2.155 . S
O125 C127 1.240 . S
O126 Co99 2.096 . S
O126 C107 1.247 . S
C127 O124 1.244 . S
C127 O125 1.240 . S
H128 C102 0.931 . S
H129 C111 0.931 . S
H130 C115 0.929 . S
H131 C117 0.930 . S
Co132 N136 2.148 . S
Co132 N142 2.128 . S
Co132 N152 2.194 . S
Co132 O157 2.351 . S
Co132 O158 2.155 . S
Co132 O159 2.096 . S
C133 N136 1.301 . S
C133 N137 1.328 . S
C133 H138 0.930 . S
C134 C135 1.333 . S
C134 N136 1.317 . S
C134 H139 0.930 . S
C135 C134 1.333 . S
C135 N137 1.350 . S
C135 H161 0.931 . S
N136 Co132 2.148 . S
N136 C133 1.301 . S
N136 C134 1.317 . S
N137 C133 1.328 . S
N137 C135 1.350 . S
H138 C133 0.930 . S
H139 C134 0.930 . S
C140 O141 1.224 . S
C140 O159 1.247 . S
O141 C140 1.224 . S
N142 Co132 2.128 . S
N142 C143 1.355 . S
N142 C145 1.311 . S
C143 N142 1.355 . S
C143 C144 1.363 . S
C143 H155 0.929 . S
C144 C143 1.363 . S
C144 N146 1.375 . S
C144 H162 0.931 . S
C145 N142 1.311 . S
C145 N146 1.347 . S
C145 H156 0.929 . S
N146 C144 1.375 . S
N146 C145 1.347 . S
C147 C150 1.365 . S
C147 N152 1.328 . S
C147 H153 0.929 . S
C148 C149 1.362 . S
C148 C151 1.378 . S
C148 H163 0.929 . S
C149 C148 1.362 . S
C149 C150 1.366 . S
C150 C147 1.365 . S
C150 C149 1.366 . S
C150 H164 0.930 . S
C151 C148 1.378 . S
C151 N152 1.315 . S
C151 H154 0.930 . S
N152 Co132 2.194 . S
N152 C147 1.328 . S
N152 C151 1.315 . S
H153 C147 0.929 . S
H154 C151 0.930 . S
H155 C143 0.929 . S
H156 C145 0.929 . S
O157 Co132 2.351 . S
O157 C160 1.244 . S
O158 Co132 2.155 . S
O158 C160 1.240 . S
O159 Co132 2.096 . S
O159 C140 1.247 . S
C160 O157 1.244 . S
C160 O158 1.240 . S
H161 C135 0.931 . S
H162 C144 0.931 . S
H163 C148 0.929 . S
H164 C150 0.930 . S
Co165 N169 2.148 . S
Co165 N175 2.128 . S
Co165 N185 2.194 . S
Co165 O190 2.351 . S
Co165 O191 2.155 . S
Co165 O192 2.096 . S
C166 N169 1.301 . S
C166 N170 1.328 . S
C166 H171 0.930 . S
C167 C168 1.333 . S
C167 N169 1.317 . S
C167 H172 0.930 . S
C168 C167 1.333 . S
C168 N170 1.350 . S
C168 H194 0.931 . S
N169 Co165 2.148 . S
N169 C166 1.301 . S
N169 C167 1.317 . S
N170 C166 1.328 . S
N170 C168 1.350 . S
H171 C166 0.930 . S
H172 C167 0.930 . S
C173 O174 1.224 . S
C173 O192 1.247 . S
O174 C173 1.224 . S
N175 Co165 2.128 . S
N175 C176 1.355 . S
N175 C178 1.311 . S
C176 N175 1.355 . S
C176 C177 1.363 . S
C176 H188 0.929 . S
C177 C176 1.363 . S
C177 N179 1.375 . S
C177 H195 0.931 . S
C178 N175 1.311 . S
C178 N179 1.347 . S
C178 H189 0.929 . S
N179 C177 1.375 . S
N179 C178 1.347 . S
C180 C183 1.365 . S
C180 N185 1.328 . S
C180 H186 0.929 . S
C181 C182 1.362 . S
C181 C184 1.378 . S
C181 H196 0.929 . S
C182 C181 1.362 . S
C182 C183 1.366 . S
C183 C180 1.365 . S
C183 C182 1.366 . S
C183 H197 0.930 . S
C184 C181 1.378 . S
C184 N185 1.315 . S
C184 H187 0.930 . S
N185 Co165 2.194 . S
N185 C180 1.328 . S
N185 C184 1.315 . S
H186 C180 0.929 . S
H187 C184 0.930 . S
H188 C176 0.929 . S
H189 C178 0.929 . S
O190 Co165 2.351 . S
O190 C193 1.244 . S
O191 Co165 2.155 . S
O191 C193 1.240 . S
O192 Co165 2.096 . S
O192 C173 1.247 . S
C193 O190 1.244 . S
C193 O191 1.240 . S
H194 C168 0.931 . S
H195 C177 0.931 . S
H196 C181 0.929 . S
H197 C183 0.930 . S
Co198 N202 2.148 . S
Co198 N208 2.128 . S
Co198 N218 2.194 . S
Co198 O223 2.351 . S
Co198 O224 2.155 . S
Co198 O225 2.096 . S
C199 N202 1.301 . S
C199 N203 1.328 . S
C199 H204 0.930 . S
C200 C201 1.333 . S
C200 N202 1.317 . S
C200 H205 0.930 . S
C201 C200 1.333 . S
C201 N203 1.350 . S
C201 H227 0.931 . S
N202 Co198 2.148 . S
N202 C199 1.301 . S
N202 C200 1.317 . S
N203 C199 1.328 . S
N203 C201 1.350 . S
H204 C199 0.930 . S
H205 C200 0.930 . S
C206 O207 1.224 . S
C206 O225 1.247 . S
O207 C206 1.224 . S
N208 Co198 2.128 . S
N208 C209 1.355 . S
N208 C211 1.311 . S
C209 N208 1.355 . S
C209 C210 1.363 . S
C209 H221 0.929 . S
C210 C209 1.363 . S
C210 N212 1.375 . S
C210 H228 0.931 . S
C211 N208 1.311 . S
C211 N212 1.347 . S
C211 H222 0.929 . S
N212 C210 1.375 . S
N212 C211 1.347 . S
C213 C216 1.365 . S
C213 N218 1.328 . S
C213 H219 0.929 . S
C214 C215 1.362 . S
C214 C217 1.378 . S
C214 H229 0.929 . S
C215 C214 1.362 . S
C215 C216 1.366 . S
C216 C213 1.365 . S
C216 C215 1.366 . S
C216 H230 0.930 . S
C217 C214 1.378 . S
C217 N218 1.315 . S
C217 H220 0.930 . S
N218 Co198 2.194 . S
N218 C213 1.328 . S
N218 C217 1.315 . S
H219 C213 0.929 . S
H220 C217 0.930 . S
H221 C209 0.929 . S
H222 C211 0.929 . S
O223 Co198 2.351 . S
O223 C226 1.244 . S
O224 Co198 2.155 . S
O224 C226 1.240 . S
O225 Co198 2.096 . S
O225 C206 1.247 . S
C226 O223 1.244 . S
C226 O224 1.240 . S
H227 C201 0.931 . S
H228 C210 0.931 . S
H229 C214 0.929 . S
H230 C216 0.930 . S
Co231 N235 2.148 . S
Co231 N241 2.128 . S
Co231 N251 2.194 . S
Co231 O256 2.351 . S
Co231 O257 2.155 . S
Co231 O258 2.096 . S
C232 N235 1.301 . S
C232 N236 1.328 . S
C232 H237 0.930 . S
C233 C234 1.333 . S
C233 N235 1.317 . S
C233 H238 0.930 . S
C234 C233 1.333 . S
C234 N236 1.350 . S
C234 H260 0.931 . S
N235 Co231 2.148 . S
N235 C232 1.301 . S
N235 C233 1.317 . S
N236 C232 1.328 . S
N236 C234 1.350 . S
H237 C232 0.930 . S
H238 C233 0.930 . S
C239 O240 1.224 . S
C239 O258 1.247 . S
O240 C239 1.224 . S
N241 Co231 2.128 . S
N241 C242 1.355 . S
N241 C244 1.311 . S
C242 N241 1.355 . S
C242 C243 1.363 . S
C242 H254 0.929 . S
C243 C242 1.363 . S
C243 N245 1.375 . S
C243 H261 0.931 . S
C244 N241 1.311 . S
C244 N245 1.347 . S
C244 H255 0.929 . S
N245 C243 1.375 . S
N245 C244 1.347 . S
C246 C249 1.365 . S
C246 N251 1.328 . S
C246 H252 0.929 . S
C247 C248 1.362 . S
C247 C250 1.378 . S
C247 H262 0.929 . S
C248 C247 1.362 . S
C248 C249 1.366 . S
C249 C246 1.365 . S
C249 C248 1.366 . S
C249 H263 0.930 . S
C250 C247 1.378 . S
C250 N251 1.315 . S
C250 H253 0.930 . S
N251 Co231 2.194 . S
N251 C246 1.328 . S
N251 C250 1.315 . S
H252 C246 0.929 . S
H253 C250 0.930 . S
H254 C242 0.929 . S
H255 C244 0.929 . S
O256 Co231 2.351 . S
O256 C259 1.244 . S
O257 Co231 2.155 . S
O257 C259 1.240 . S
O258 Co231 2.096 . S
O258 C239 1.247 . S
C259 O256 1.244 . S
C259 O257 1.240 . S
H260 C234 0.931 . S
H261 C243 0.931 . S
H262 C247 0.929 . S
H263 C249 0.930 . S
Co264 N268 2.148 . S
Co264 N274 2.128 . S
Co264 N284 2.194 . S
Co264 O289 2.351 . S
Co264 O290 2.155 . S
Co264 O291 2.096 . S
C265 N268 1.301 . S
C265 N269 1.328 . S
C265 H270 0.930 . S
C266 C267 1.333 . S
C266 N268 1.317 . S
C266 H271 0.930 . S
C267 C266 1.333 . S
C267 N269 1.350 . S
C267 H293 0.931 . S
N268 Co264 2.148 . S
N268 C265 1.301 . S
N268 C266 1.317 . S
N269 C265 1.328 . S
N269 C267 1.350 . S
H270 C265 0.930 . S
H271 C266 0.930 . S
C272 O273 1.224 . S
C272 O291 1.247 . S
O273 C272 1.224 . S
N274 Co264 2.128 . S
N274 C275 1.355 . S
N274 C277 1.311 . S
C275 N274 1.355 . S
C275 C276 1.363 . S
C275 H287 0.929 . S
C276 C275 1.363 . S
C276 N278 1.375 . S
C276 H294 0.931 . S
C277 N274 1.311 . S
C277 N278 1.347 . S
C277 H288 0.929 . S
N278 C276 1.375 . S
N278 C277 1.347 . S
C279 C282 1.365 . S
C279 N284 1.328 . S
C279 H285 0.929 . S
C280 C281 1.362 . S
C280 C283 1.378 . S
C280 H295 0.929 . S
C281 C280 1.362 . S
C281 C282 1.366 . S
C282 C279 1.365 . S
C282 C281 1.366 . S
C282 H296 0.930 . S
C283 C280 1.378 . S
C283 N284 1.315 . S
C283 H286 0.930 . S
N284 Co264 2.194 . S
N284 C279 1.328 . S
N284 C283 1.315 . S
H285 C279 0.929 . S
H286 C283 0.930 . S
H287 C275 0.929 . S
H288 C277 0.929 . S
O289 Co264 2.351 . S
O289 C292 1.244 . S
O290 Co264 2.155 . S
O290 C292 1.240 . S
O291 Co264 2.096 . S
O291 C272 1.247 . S
C292 O289 1.244 . S
C292 O290 1.240 . S
H293 C267 0.931 . S
H294 C276 0.931 . S
H295 C280 0.929 . S
H296 C282 0.930 . S
Co297 N301 2.148 . S
Co297 N307 2.128 . S
Co297 N317 2.194 . S
Co297 O322 2.351 . S
Co297 O323 2.155 . S
Co297 O324 2.096 . S
C298 N301 1.301 . S
C298 N302 1.328 . S
C298 H303 0.930 . S
C299 C300 1.333 . S
C299 N301 1.317 . S
C299 H304 0.930 . S
C300 C299 1.333 . S
C300 N302 1.350 . S
C300 H326 0.931 . S
N301 Co297 2.148 . S
N301 C298 1.301 . S
N301 C299 1.317 . S
N302 C298 1.328 . S
N302 C300 1.350 . S
H303 C298 0.930 . S
H304 C299 0.930 . S
C305 O306 1.224 . S
C305 O324 1.247 . S
O306 C305 1.224 . S
N307 Co297 2.128 . S
N307 C308 1.355 . S
N307 C310 1.311 . S
C308 N307 1.355 . S
C308 C309 1.363 . S
C308 H320 0.929 . S
C309 C308 1.363 . S
C309 N311 1.375 . S
C309 H327 0.931 . S
C310 N307 1.311 . S
C310 N311 1.347 . S
C310 H321 0.929 . S
N311 C309 1.375 . S
N311 C310 1.347 . S
C312 C315 1.365 . S
C312 N317 1.328 . S
C312 H318 0.929 . S
C313 C314 1.362 . S
C313 C316 1.378 . S
C313 H328 0.929 . S
C314 C313 1.362 . S
C314 C315 1.366 . S
C315 C312 1.365 . S
C315 C314 1.366 . S
C315 H329 0.930 . S
C316 C313 1.378 . S
C316 N317 1.315 . S
C316 H319 0.930 . S
N317 Co297 2.194 . S
N317 C312 1.328 . S
N317 C316 1.315 . S
H318 C312 0.929 . S
H319 C316 0.930 . S
H320 C308 0.929 . S
H321 C310 0.929 . S
O322 Co297 2.351 . S
O322 C325 1.244 . S
O323 Co297 2.155 . S
O323 C325 1.240 . S
O324 Co297 2.096 . S
O324 C305 1.247 . S
C325 O322 1.244 . S
C325 O323 1.240 . S
H326 C300 0.931 . S
H327 C309 0.931 . S
H328 C313 0.929 . S
H329 C315 0.930 . S
Co330 N334 2.148 . S
Co330 N340 2.128 . S
Co330 N350 2.194 . S
Co330 O355 2.351 . S
Co330 O356 2.155 . S
Co330 O357 2.096 . S
C331 N334 1.301 . S
C331 N335 1.328 . S
C331 H336 0.930 . S
C332 C333 1.333 . S
C332 N334 1.317 . S
C332 H337 0.930 . S
C333 C332 1.333 . S
C333 N335 1.350 . S
C333 H359 0.931 . S
N334 Co330 2.148 . S
N334 C331 1.301 . S
N334 C332 1.317 . S
N335 C331 1.328 . S
N335 C333 1.350 . S
H336 C331 0.930 . S
H337 C332 0.930 . S
C338 O339 1.224 . S
C338 O357 1.247 . S
O339 C338 1.224 . S
N340 Co330 2.128 . S
N340 C341 1.355 . S
N340 C343 1.311 . S
C341 N340 1.355 . S
C341 C342 1.363 . S
C341 H353 0.929 . S
C342 C341 1.363 . S
C342 N344 1.375 . S
C342 H360 0.931 . S
C343 N340 1.311 . S
C343 N344 1.347 . S
C343 H354 0.929 . S
N344 C342 1.375 . S
N344 C343 1.347 . S
C345 C348 1.365 . S
C345 N350 1.328 . S
C345 H351 0.929 . S
C346 C347 1.362 . S
C346 C349 1.378 . S
C346 H361 0.929 . S
C347 C346 1.362 . S
C347 C348 1.366 . S
C348 C345 1.365 . S
C348 C347 1.366 . S
C348 H362 0.930 . S
C349 C346 1.378 . S
C349 N350 1.315 . S
C349 H352 0.930 . S
N350 Co330 2.194 . S
N350 C345 1.328 . S
N350 C349 1.315 . S
H351 C345 0.929 . S
H352 C349 0.930 . S
H353 C341 0.929 . S
H354 C343 0.929 . S
O355 Co330 2.351 . S
O355 C358 1.244 . S
O356 Co330 2.155 . S
O356 C358 1.240 . S
O357 Co330 2.096 . S
O357 C338 1.247 . S
C358 O355 1.244 . S
C358 O356 1.240 . S
H359 C333 0.931 . S
H360 C342 0.931 . S
H361 C346 0.929 . S
H362 C348 0.930 . S
Co363 N367 2.148 . S
Co363 N373 2.128 . S
Co363 N383 2.194 . S
Co363 O388 2.351 . S
Co363 O389 2.155 . S
Co363 O390 2.096 . S
C364 N367 1.301 . S
C364 N368 1.328 . S
C364 H369 0.930 . S
C365 C366 1.333 . S
C365 N367 1.317 . S
C365 H370 0.930 . S
C366 C365 1.333 . S
C366 N368 1.350 . S
C366 H392 0.931 . S
N367 Co363 2.148 . S
N367 C364 1.301 . S
N367 C365 1.317 . S
N368 C364 1.328 . S
N368 C366 1.350 . S
H369 C364 0.930 . S
H370 C365 0.930 . S
C371 O372 1.224 . S
C371 O390 1.247 . S
O372 C371 1.224 . S
N373 Co363 2.128 . S
N373 C374 1.355 . S
N373 C376 1.311 . S
C374 N373 1.355 . S
C374 C375 1.363 . S
C374 H386 0.929 . S
C375 C374 1.363 . S
C375 N377 1.375 . S
C375 H393 0.931 . S
C376 N373 1.311 . S
C376 N377 1.347 . S
C376 H387 0.929 . S
N377 C375 1.375 . S
N377 C376 1.347 . S
C378 C381 1.365 . S
C378 N383 1.328 . S
C378 H384 0.929 . S
C379 C380 1.362 . S
C379 C382 1.378 . S
C379 H394 0.929 . S
C380 C379 1.362 . S
C380 C381 1.366 . S
C381 C378 1.365 . S
C381 C380 1.366 . S
C381 H395 0.930 . S
C382 C379 1.378 . S
C382 N383 1.315 . S
C382 H385 0.930 . S
N383 Co363 2.194 . S
N383 C378 1.328 . S
N383 C382 1.315 . S
H384 C378 0.929 . S
H385 C382 0.930 . S
H386 C374 0.929 . S
H387 C376 0.929 . S
O388 Co363 2.351 . S
O388 C391 1.244 . S
O389 Co363 2.155 . S
O389 C391 1.240 . S
O390 Co363 2.096 . S
O390 C371 1.247 . S
C391 O388 1.244 . S
C391 O389 1.240 . S
H392 C366 0.931 . S
H393 C375 0.931 . S
H394 C379 0.929 . S
H395 C381 0.930 . S
Co396 N400 2.148 . S
Co396 N406 2.128 . S
Co396 N416 2.194 . S
Co396 O421 2.351 . S
Co396 O422 2.155 . S
Co396 O423 2.096 . S
C397 N400 1.301 . S
C397 N401 1.328 . S
C397 H402 0.930 . S
C398 C399 1.333 . S
C398 N400 1.317 . S
C398 H403 0.930 . S
C399 C398 1.333 . S
C399 N401 1.350 . S
C399 H425 0.931 . S
N400 Co396 2.148 . S
N400 C397 1.301 . S
N400 C398 1.317 . S
N401 C397 1.328 . S
N401 C399 1.350 . S
H402 C397 0.930 . S
H403 C398 0.930 . S
C404 O405 1.224 . S
C404 O423 1.247 . S
O405 C404 1.224 . S
N406 Co396 2.128 . S
N406 C407 1.355 . S
N406 C409 1.311 . S
C407 N406 1.355 . S
C407 C408 1.363 . S
C407 H419 0.929 . S
C408 C407 1.363 . S
C408 N410 1.375 . S
C408 H426 0.931 . S
C409 N406 1.311 . S
C409 N410 1.347 . S
C409 H420 0.929 . S
N410 C408 1.375 . S
N410 C409 1.347 . S
C411 C414 1.365 . S
C411 N416 1.328 . S
C411 H417 0.929 . S
C412 C413 1.362 . S
C412 C415 1.378 . S
C412 H427 0.929 . S
C413 C412 1.362 . S
C413 C414 1.366 . S
C414 C411 1.365 . S
C414 C413 1.366 . S
C414 H428 0.930 . S
C415 C412 1.378 . S
C415 N416 1.315 . S
C415 H418 0.930 . S
N416 Co396 2.194 . S
N416 C411 1.328 . S
N416 C415 1.315 . S
H417 C411 0.929 . S
H418 C415 0.930 . S
H419 C407 0.929 . S
H420 C409 0.929 . S
O421 Co396 2.351 . S
O421 C424 1.244 . S
O422 Co396 2.155 . S
O422 C424 1.240 . S
O423 Co396 2.096 . S
O423 C404 1.247 . S
C424 O421 1.244 . S
C424 O422 1.240 . S
H425 C399 0.931 . S
H426 C408 0.931 . S
H427 C412 0.929 . S
H428 C414 0.930 . S
Co429 N433 2.148 . S
Co429 N439 2.128 . S
Co429 N449 2.194 . S
Co429 O454 2.351 . S
Co429 O455 2.155 . S
Co429 O456 2.096 . S
C430 N433 1.301 . S
C430 N434 1.328 . S
C430 H435 0.930 . S
C431 C432 1.333 . S
C431 N433 1.317 . S
C431 H436 0.930 . S
C432 C431 1.333 . S
C432 N434 1.350 . S
C432 H458 0.931 . S
N433 Co429 2.148 . S
N433 C430 1.301 . S
N433 C431 1.317 . S
N434 C430 1.328 . S
N434 C432 1.350 . S
H435 C430 0.930 . S
H436 C431 0.930 . S
C437 O438 1.224 . S
C437 O456 1.247 . S
O438 C437 1.224 . S
N439 Co429 2.128 . S
N439 C440 1.355 . S
N439 C442 1.311 . S
C440 N439 1.355 . S
C440 C441 1.363 . S
C440 H452 0.929 . S
C441 C440 1.363 . S
C441 N443 1.375 . S
C441 H459 0.931 . S
C442 N439 1.311 . S
C442 N443 1.347 . S
C442 H453 0.929 . S
N443 C441 1.375 . S
N443 C442 1.347 . S
C444 C447 1.365 . S
C444 N449 1.328 . S
C444 H450 0.929 . S
C445 C446 1.362 . S
C445 C448 1.378 . S
C445 H460 0.929 . S
C446 C445 1.362 . S
C446 C447 1.366 . S
C447 C444 1.365 . S
C447 C446 1.366 . S
C447 H461 0.930 . S
C448 C445 1.378 . S
C448 N449 1.315 . S
C448 H451 0.930 . S
N449 Co429 2.194 . S
N449 C444 1.328 . S
N449 C448 1.315 . S
H450 C444 0.929 . S
H451 C448 0.930 . S
H452 C440 0.929 . S
H453 C442 0.929 . S
O454 Co429 2.351 . S
O454 C457 1.244 . S
O455 Co429 2.155 . S
O455 C457 1.240 . S
O456 Co429 2.096 . S
O456 C437 1.247 . S
C457 O454 1.244 . S
C457 O455 1.240 . S
H458 C432 0.931 . S
H459 C441 0.931 . S
H460 C445 0.929 . S
H461 C447 0.930 . S
Co462 N466 2.148 . S
Co462 N472 2.128 . S
Co462 N482 2.194 . S
Co462 O487 2.351 . S
Co462 O488 2.155 . S
Co462 O489 2.096 . S
C463 N466 1.301 . S
C463 N467 1.328 . S
C463 H468 0.930 . S
C464 C465 1.333 . S
C464 N466 1.317 . S
C464 H469 0.930 . S
C465 C464 1.333 . S
C465 N467 1.350 . S
C465 H491 0.931 . S
N466 Co462 2.148 . S
N466 C463 1.301 . S
N466 C464 1.317 . S
N467 C463 1.328 . S
N467 C465 1.350 . S
H468 C463 0.930 . S
H469 C464 0.930 . S
C470 O471 1.224 . S
C470 O489 1.247 . S
O471 C470 1.224 . S
N472 Co462 2.128 . S
N472 C473 1.355 . S
N472 C475 1.311 . S
C473 N472 1.355 . S
C473 C474 1.363 . S
C473 H485 0.929 . S
C474 C473 1.363 . S
C474 N476 1.375 . S
C474 H492 0.931 . S
C475 N472 1.311 . S
C475 N476 1.347 . S
C475 H486 0.929 . S
N476 C474 1.375 . S
N476 C475 1.347 . S
C477 C480 1.365 . S
C477 N482 1.328 . S
C477 H483 0.929 . S
C478 C479 1.362 . S
C478 C481 1.378 . S
C478 H493 0.929 . S
C479 C478 1.362 . S
C479 C480 1.366 . S
C480 C477 1.365 . S
C480 C479 1.366 . S
C480 H494 0.930 . S
C481 C478 1.378 . S
C481 N482 1.315 . S
C481 H484 0.930 . S
N482 Co462 2.194 . S
N482 C477 1.328 . S
N482 C481 1.315 . S
H483 C477 0.929 . S
H484 C481 0.930 . S
H485 C473 0.929 . S
H486 C475 0.929 . S
O487 Co462 2.351 . S
O487 C490 1.244 . S
O488 Co462 2.155 . S
O488 C490 1.240 . S
O489 Co462 2.096 . S
O489 C470 1.247 . S
C490 O487 1.244 . S
C490 O488 1.240 . S
H491 C465 0.931 . S
H492 C474 0.931 . S
H493 C478 0.929 . S
H494 C480 0.930 . S
Co495 N499 2.148 . S
Co495 N505 2.128 . S
Co495 N515 2.194 . S
Co495 O520 2.351 . S
Co495 O521 2.155 . S
Co495 O522 2.096 . S
C496 N499 1.301 . S
C496 N500 1.328 . S
C496 H501 0.930 . S
C497 C498 1.333 . S
C497 N499 1.317 . S
C497 H502 0.930 . S
C498 C497 1.333 . S
C498 N500 1.350 . S
C498 H524 0.931 . S
N499 Co495 2.148 . S
N499 C496 1.301 . S
N499 C497 1.317 . S
N500 C496 1.328 . S
N500 C498 1.350 . S
H501 C496 0.930 . S
H502 C497 0.930 . S
C503 O504 1.224 . S
C503 O522 1.247 . S
O504 C503 1.224 . S
N505 Co495 2.128 . S
N505 C506 1.355 . S
N505 C508 1.311 . S
C506 N505 1.355 . S
C506 C507 1.363 . S
C506 H518 0.929 . S
C507 C506 1.363 . S
C507 N509 1.375 . S
C507 H525 0.931 . S
C508 N505 1.311 . S
C508 N509 1.347 . S
C508 H519 0.929 . S
N509 C507 1.375 . S
N509 C508 1.347 . S
C510 C513 1.365 . S
C510 N515 1.328 . S
C510 H516 0.929 . S
C511 C512 1.362 . S
C511 C514 1.378 . S
C511 H526 0.929 . S
C512 C511 1.362 . S
C512 C513 1.366 . S
C513 C510 1.365 . S
C513 C512 1.366 . S
C513 H527 0.930 . S
C514 C511 1.378 . S
C514 N515 1.315 . S
C514 H517 0.930 . S
N515 Co495 2.194 . S
N515 C510 1.328 . S
N515 C514 1.315 . S
H516 C510 0.929 . S
H517 C514 0.930 . S
H518 C506 0.929 . S
H519 C508 0.929 . S
O520 Co495 2.351 . S
O520 C523 1.244 . S
O521 Co495 2.155 . S
O521 C523 1.240 . S
O522 Co495 2.096 . S
O522 C503 1.247 . S
C523 O520 1.244 . S
C523 O521 1.240 . S
H524 C498 0.931 . S
H525 C507 0.931 . S
H526 C511 0.929 . S
H527 C513 0.930 . S
H528 C536 0.929 . S
H529 C538 0.930 . S
H530 C540 0.930 . S
H531 C543 0.929 . S
H532 C546 0.930 . S
H533 C548 0.960 . S
H534 C548 0.960 . S
H535 C548 0.960 . S
C536 H528 0.929 . S
C536 C537 1.377 . S
C536 C538 1.384 . S
C537 C536 1.377 . S
C537 C543 1.390 . S
C538 H529 0.930 . S
C538 C536 1.384 . S
C538 C539 1.372 . S
C539 C538 1.372 . S
C539 C540 1.400 . S
C539 C544 1.490 . S
C540 H530 0.930 . S
C540 C539 1.400 . S
C540 C543 1.386 . S
H541 C557 0.930 . S
H542 C558 0.931 . S
C543 H531 0.929 . S
C543 C537 1.390 . S
C543 C540 1.386 . S
C544 C539 1.490 . S
C544 C546 1.395 . S
C544 C547 1.403 . S
H545 C551 0.930 . S
C546 H532 0.930 . S
C546 C544 1.395 . S
C546 C549 1.403 . S
C547 C544 1.403 . S
C547 C548 1.524 . S
C547 C551 1.400 . S
C548 H533 0.960 . S
C548 H534 0.960 . S
C548 H535 0.960 . S
C548 C547 1.524 . S
C549 C546 1.403 . S
C549 C550 1.392 . S
C549 C553 1.495 . S
C550 C549 1.392 . S
C550 C551 1.385 . S
C550 C552 1.478 . S
C551 H545 0.930 . S
C551 C547 1.400 . S
C551 C550 1.385 . S
C552 C550 1.478 . S
C552 C554 1.381 . S
C552 C558 1.383 . S
C553 C549 1.495 . S
C553 H559 0.959 . S
C553 H560 0.961 . S
C553 H561 0.960 . S
C554 C552 1.381 . S
C554 C555 1.394 . S
C554 H562 0.930 . S
C555 C554 1.394 . S
C555 C556 1.383 . S
C555 H563 0.929 . S
C556 C555 1.383 . S
C556 C557 1.377 . S
C557 H541 0.930 . S
C557 C556 1.377 . S
C557 C558 1.379 . S
C558 H542 0.931 . S
C558 C552 1.383 . S
C558 C557 1.379 . S
H559 C553 0.959 . S
H560 C553 0.961 . S
H561 C553 0.960 . S
H562 C554 0.930 . S
H563 C555 0.929 . S
H564 C572 0.929 . S
H565 C574 0.930 . S
H566 C576 0.930 . S
H567 C579 0.929 . S
H568 C582 0.930 . S
H569 C584 0.960 . S
H570 C584 0.960 . S
H571 C584 0.960 . S
C572 H564 0.929 . S
C572 C573 1.377 . S
C572 C574 1.384 . S
C573 C572 1.377 . S
C573 C579 1.390 . S
C574 H565 0.930 . S
C574 C572 1.384 . S
C574 C575 1.372 . S
C575 C574 1.372 . S
C575 C576 1.400 . S
C575 C580 1.490 . S
C576 H566 0.930 . S
C576 C575 1.400 . S
C576 C579 1.386 . S
H577 C593 0.930 . S
H578 C594 0.931 . S
C579 H567 0.929 . S
C579 C573 1.390 . S
C579 C576 1.386 . S
C580 C575 1.490 . S
C580 C582 1.395 . S
C580 C583 1.403 . S
H581 C587 0.930 . S
C582 H568 0.930 . S
C582 C580 1.395 . S
C582 C585 1.403 . S
C583 C580 1.403 . S
C583 C584 1.524 . S
C583 C587 1.400 . S
C584 H569 0.960 . S
C584 H570 0.960 . S
C584 H571 0.960 . S
C584 C583 1.524 . S
C585 C582 1.403 . S
C585 C586 1.392 . S
C585 C589 1.495 . S
C586 C585 1.392 . S
C586 C587 1.385 . S
C586 C588 1.478 . S
C587 H581 0.930 . S
C587 C583 1.400 . S
C587 C586 1.385 . S
C588 C586 1.478 . S
C588 C590 1.381 . S
C588 C594 1.383 . S
C589 C585 1.495 . S
C589 H595 0.959 . S
C589 H596 0.961 . S
C589 H597 0.960 . S
C590 C588 1.381 . S
C590 C591 1.394 . S
C590 H598 0.930 . S
C591 C590 1.394 . S
C591 C592 1.383 . S
C591 H599 0.929 . S
C592 C591 1.383 . S
C592 C593 1.377 . S
C593 H577 0.930 . S
C593 C592 1.377 . S
C593 C594 1.379 . S
C594 H578 0.931 . S
C594 C588 1.383 . S
C594 C593 1.379 . S
H595 C589 0.959 . S
H596 C589 0.961 . S
H597 C589 0.960 . S
H598 C590 0.930 . S
H599 C591 0.929 . S
H600 C608 0.929 . S
H601 C610 0.930 . S
H602 C612 0.930 . S
H603 C615 0.929 . S
H604 C618 0.930 . S
H605 C620 0.960 . S
H606 C620 0.960 . S
H607 C620 0.960 . S
C608 H600 0.929 . S
C608 C609 1.377 . S
C608 C610 1.384 . S
C609 C608 1.377 . S
C609 C615 1.390 . S
C610 H601 0.930 . S
C610 C608 1.384 . S
C610 C611 1.372 . S
C611 C610 1.372 . S
C611 C612 1.400 . S
C611 C616 1.490 . S
C612 H602 0.930 . S
C612 C611 1.400 . S
C612 C615 1.386 . S
H613 C629 0.930 . S
H614 C630 0.931 . S
C615 H603 0.929 . S
C615 C609 1.390 . S
C615 C612 1.386 . S
C616 C611 1.490 . S
C616 C618 1.395 . S
C616 C619 1.403 . S
H617 C623 0.930 . S
C618 H604 0.930 . S
C618 C616 1.395 . S
C618 C621 1.403 . S
C619 C616 1.403 . S
C619 C620 1.524 . S
C619 C623 1.400 . S
C620 H605 0.960 . S
C620 H606 0.960 . S
C620 H607 0.960 . S
C620 C619 1.524 . S
C621 C618 1.403 . S
C621 C622 1.392 . S
C621 C625 1.495 . S
C622 C621 1.392 . S
C622 C623 1.385 . S
C622 C624 1.478 . S
C623 H617 0.930 . S
C623 C619 1.400 . S
C623 C622 1.385 . S
C624 C622 1.478 . S
C624 C626 1.381 . S
C624 C630 1.383 . S
C625 C621 1.495 . S
C625 H631 0.959 . S
C625 H632 0.961 . S
C625 H633 0.960 . S
C626 C624 1.381 . S
C626 C627 1.394 . S
C626 H634 0.930 . S
C627 C626 1.394 . S
C627 C628 1.383 . S
C627 H635 0.929 . S
C628 C627 1.383 . S
C628 C629 1.377 . S
C629 H613 0.930 . S
C629 C628 1.377 . S
C629 C630 1.379 . S
C630 H614 0.931 . S
C630 C624 1.383 . S
C630 C629 1.379 . S
H631 C625 0.959 . S
H632 C625 0.961 . S
H633 C625 0.960 . S
H634 C626 0.930 . S
H635 C627 0.929 . S
H636 C644 0.929 . S
H637 C646 0.930 . S
H638 C648 0.930 . S
H639 C651 0.929 . S
H640 C654 0.930 . S
H641 C656 0.960 . S
H642 C656 0.960 . S
H643 C656 0.960 . S
C644 H636 0.929 . S
C644 C645 1.377 . S
C644 C646 1.384 . S
C645 C644 1.377 . S
C645 C651 1.390 . S
C646 H637 0.930 . S
C646 C644 1.384 . S
C646 C647 1.372 . S
C647 C646 1.372 . S
C647 C648 1.400 . S
C647 C652 1.490 . S
C648 H638 0.930 . S
C648 C647 1.400 . S
C648 C651 1.386 . S
H649 C665 0.930 . S
H650 C666 0.931 . S
C651 H639 0.929 . S
C651 C645 1.390 . S
C651 C648 1.386 . S
C652 C647 1.490 . S
C652 C654 1.395 . S
C652 C655 1.403 . S
H653 C659 0.930 . S
C654 H640 0.930 . S
C654 C652 1.395 . S
C654 C657 1.403 . S
C655 C652 1.403 . S
C655 C656 1.524 . S
C655 C659 1.400 . S
C656 H641 0.960 . S
C656 H642 0.960 . S
C656 H643 0.960 . S
C656 C655 1.524 . S
C657 C654 1.403 . S
C657 C658 1.392 . S
C657 C661 1.495 . S
C658 C657 1.392 . S
C658 C659 1.385 . S
C658 C660 1.478 . S
C659 H653 0.930 . S
C659 C655 1.400 . S
C659 C658 1.385 . S
C660 C658 1.478 . S
C660 C662 1.381 . S
C660 C666 1.383 . S
C661 C657 1.495 . S
C661 H667 0.959 . S
C661 H668 0.961 . S
C661 H669 0.960 . S
C662 C660 1.381 . S
C662 C663 1.394 . S
C662 H670 0.930 . S
C663 C662 1.394 . S
C663 C664 1.383 . S
C663 H671 0.929 . S
C664 C663 1.383 . S
C664 C665 1.377 . S
C665 H649 0.930 . S
C665 C664 1.377 . S
C665 C666 1.379 . S
C666 H650 0.931 . S
C666 C660 1.383 . S
C666 C665 1.379 . S
H667 C661 0.959 . S
H668 C661 0.961 . S
H669 C661 0.960 . S
H670 C662 0.930 . S
H671 C663 0.929 . S
H672 C680 0.929 1_554 S
H673 C682 0.930 . S
H674 C684 0.930 . S
H675 C687 0.929 . S
H676 C690 0.930 . S
H677 C692 0.960 . S
H678 C692 0.960 . S
H679 C692 0.960 . S
C680 H672 0.929 1_556 S
C680 C681 1.377 1_556 S
C680 C682 1.384 . S
C681 C680 1.377 1_554 S
C681 C687 1.390 1_554 S
C682 H673 0.930 . S
C682 C680 1.384 . S
C682 C683 1.372 . S
C683 C682 1.372 . S
C683 C684 1.400 . S
C683 C688 1.490 . S
C684 H674 0.930 . S
C684 C683 1.400 . S
C684 C687 1.386 . S
H685 C701 0.930 . S
H686 C702 0.931 . S
C687 H675 0.929 . S
C687 C681 1.390 1_556 S
C687 C684 1.386 . S
C688 C683 1.490 . S
C688 C690 1.395 . S
C688 C691 1.403 . S
H689 C695 0.930 . S
C690 H676 0.930 . S
C690 C688 1.395 . S
C690 C693 1.403 . S
C691 C688 1.403 . S
C691 C692 1.524 . S
C691 C695 1.400 . S
C692 H677 0.960 . S
C692 H678 0.960 . S
C692 H679 0.960 . S
C692 C691 1.524 . S
C693 C690 1.403 . S
C693 C694 1.392 . S
C693 C697 1.495 . S
C694 C693 1.392 . S
C694 C695 1.385 . S
C694 C696 1.478 . S
C695 H689 0.930 . S
C695 C691 1.400 . S
C695 C694 1.385 . S
C696 C694 1.478 . S
C696 C698 1.381 . S
C696 C702 1.383 . S
C697 C693 1.495 . S
C697 H703 0.959 . S
C697 H704 0.961 . S
C697 H705 0.960 . S
C698 C696 1.381 . S
C698 C699 1.394 . S
C698 H706 0.930 . S
C699 C698 1.394 . S
C699 C700 1.383 . S
C699 H707 0.929 . S
C700 C699 1.383 . S
C700 C701 1.377 . S
C701 H685 0.930 . S
C701 C700 1.377 . S
C701 C702 1.379 . S
C702 H686 0.931 . S
C702 C696 1.383 . S
C702 C701 1.379 . S
H703 C697 0.959 . S
H704 C697 0.961 . S
H705 C697 0.960 . S
H706 C698 0.930 . S
H707 C699 0.929 . S
H708 C716 0.929 . S
H709 C718 0.930 . S
H710 C720 0.930 . S
H711 C723 0.929 . S
H712 C726 0.930 . S
H713 C728 0.960 . S
H714 C728 0.960 . S
H715 C728 0.960 . S
C716 H708 0.929 . S
C716 C717 1.377 . S
C716 C718 1.384 . S
C717 C716 1.377 . S
C717 C723 1.390 . S
C718 H709 0.930 . S
C718 C716 1.384 . S
C718 C719 1.372 . S
C719 C718 1.372 . S
C719 C720 1.400 . S
C719 C724 1.490 . S
C720 H710 0.930 . S
C720 C719 1.400 . S
C720 C723 1.386 . S
H721 C737 0.931 . S
H722 C738 0.931 . S
C723 H711 0.929 . S
C723 C717 1.390 . S
C723 C720 1.386 . S
C724 C719 1.490 . S
C724 C726 1.395 . S
C724 C727 1.403 . S
H725 C731 0.930 . S
C726 H712 0.930 . S
C726 C724 1.395 . S
C726 C729 1.403 . S
C727 C724 1.403 . S
C727 C728 1.524 . S
C727 C731 1.400 . S
C728 H713 0.960 . S
C728 H714 0.960 . S
C728 H715 0.960 . S
C728 C727 1.524 . S
C729 C726 1.403 . S
C729 C730 1.392 . S
C729 C733 1.495 . S
C730 C729 1.392 . S
C730 C731 1.385 . S
C730 C732 1.478 . S
C731 H725 0.930 . S
C731 C727 1.400 . S
C731 C730 1.385 . S
C732 C730 1.478 . S
C732 C734 1.381 . S
C732 C738 1.383 . S
C733 C729 1.495 . S
C733 H739 0.959 . S
C733 H740 0.961 . S
C733 H741 0.960 . S
C734 C732 1.381 . S
C734 C735 1.394 . S
C734 H742 0.930 . S
C735 C734 1.394 . S
C735 C736 1.383 1_554 S
C735 H743 0.929 1_554 S
C736 C735 1.383 1_556 S
C736 C737 1.377 1_556 S
C737 H721 0.931 . S
C737 C736 1.377 1_554 S
C737 C738 1.379 . S
C738 H722 0.931 . S
C738 C732 1.383 . S
C738 C737 1.379 . S
H739 C733 0.959 . S
H740 C733 0.961 . S
H741 C733 0.960 . S
H742 C734 0.930 . S
H743 C735 0.929 1_556 S
H744 C752 0.929 . S
H745 C754 0.930 . S
H746 C756 0.930 . S
H747 C759 0.929 1_554 S
H748 C762 0.930 . S
H749 C764 0.960 . S
H750 C764 0.960 . S
H751 C764 0.960 . S
C752 H744 0.929 . S
C752 C753 1.377 1_556 S
C752 C754 1.384 . S
C753 C752 1.377 1_554 S
C753 C759 1.390 1_554 S
C754 H745 0.930 . S
C754 C752 1.384 . S
C754 C755 1.372 . S
C755 C754 1.372 . S
C755 C756 1.400 . S
C755 C760 1.490 . S
C756 H746 0.930 . S
C756 C755 1.400 . S
C756 C759 1.386 . S
H757 C773 0.930 . S
H758 C774 0.931 . S
C759 H747 0.929 1_556 S
C759 C753 1.390 1_556 S
C759 C756 1.386 . S
C760 C755 1.490 . S
C760 C762 1.395 . S
C760 C763 1.403 . S
H761 C767 0.930 . S
C762 H748 0.930 . S
C762 C760 1.395 . S
C762 C765 1.403 . S
C763 C760 1.403 . S
C763 C764 1.524 . S
C763 C767 1.400 . S
C764 H749 0.960 . S
C764 H750 0.960 . S
C764 H751 0.960 . S
C764 C763 1.524 . S
C765 C762 1.403 . S
C765 C766 1.392 . S
C765 C769 1.495 . S
C766 C765 1.392 . S
C766 C767 1.385 . S
C766 C768 1.478 . S
C767 H761 0.930 . S
C767 C763 1.400 . S
C767 C766 1.385 . S
C768 C766 1.478 . S
C768 C770 1.381 . S
C768 C774 1.383 . S
C769 C765 1.495 . S
C769 H775 0.959 . S
C769 H776 0.961 . S
C769 H777 0.960 . S
C770 C768 1.381 . S
C770 C771 1.394 . S
C770 H778 0.930 . S
C771 C770 1.394 . S
C771 C772 1.383 . S
C771 H779 0.929 . S
C772 C771 1.383 . S
C772 C773 1.377 . S
C773 H757 0.930 . S
C773 C772 1.377 . S
C773 C774 1.379 . S
C774 H758 0.931 . S
C774 C768 1.383 . S
C774 C773 1.379 . S
H775 C769 0.959 . S
H776 C769 0.961 . S
H777 C769 0.960 . S
H778 C770 0.930 . S
H779 C771 0.929 . S
H780 C788 0.929 . S
H781 C790 0.930 . S
H782 C792 0.930 . S
H783 C795 0.929 . S
H784 C798 0.930 . S
H785 C800 0.960 . S
H786 C800 0.960 . S
H787 C800 0.960 . S
C788 H780 0.929 . S
C788 C789 1.377 . S
C788 C790 1.384 . S
C789 C788 1.377 . S
C789 C795 1.390 . S
C790 H781 0.930 . S
C790 C788 1.384 . S
C790 C791 1.372 . S
C791 C790 1.372 . S
C791 C792 1.400 . S
C791 C796 1.490 . S
C792 H782 0.930 . S
C792 C791 1.400 . S
C792 C795 1.386 . S
H793 C809 0.930 . S
H794 C810 0.931 . S
C795 H783 0.929 . S
C795 C789 1.390 . S
C795 C792 1.386 . S
C796 C791 1.490 . S
C796 C798 1.395 . S
C796 C799 1.403 . S
H797 C803 0.930 . S
C798 H784 0.930 . S
C798 C796 1.395 . S
C798 C801 1.403 . S
C799 C796 1.403 . S
C799 C800 1.524 . S
C799 C803 1.400 . S
C800 H785 0.960 . S
C800 H786 0.960 . S
C800 H787 0.960 . S
C800 C799 1.524 . S
C801 C798 1.403 . S
C801 C802 1.392 . S
C801 C805 1.495 . S
C802 C801 1.392 . S
C802 C803 1.385 . S
C802 C804 1.478 . S
C803 H797 0.930 . S
C803 C799 1.400 . S
C803 C802 1.385 . S
C804 C802 1.478 . S
C804 C806 1.381 . S
C804 C810 1.383 . S
C805 C801 1.495 . S
C805 H811 0.959 . S
C805 H812 0.961 . S
C805 H813 0.960 . S
C806 C804 1.381 . S
C806 C807 1.394 1_554 S
C806 H814 0.930 . S
C807 C806 1.394 1_556 S
C807 C808 1.383 . S
C807 H815 0.929 . S
C808 C807 1.383 . S
C808 C809 1.377 1_556 S
C809 H793 0.930 . S
C809 C808 1.377 1_554 S
C809 C810 1.379 . S
C810 H794 0.931 . S
C810 C804 1.383 . S
C810 C809 1.379 . S
H811 C805 0.959 . S
H812 C805 0.961 . S
H813 C805 0.960 . S
H814 C806 0.930 . S
H815 C807 0.929 . S
H816 C824 0.929 . S
H817 C826 0.930 . S
H818 C828 0.930 . S
H819 C831 0.929 . S
H820 C834 0.930 . S
H821 C836 0.960 . S
H822 C836 0.960 . S
H823 C836 0.960 . S
C824 H816 0.929 . S
C824 C825 1.377 . S
C824 C826 1.384 . S
C825 C824 1.377 . S
C825 C831 1.390 . S
C826 H817 0.930 . S
C826 C824 1.384 . S
C826 C827 1.372 . S
C827 C826 1.372 . S
C827 C828 1.400 . S
C827 C832 1.490 . S
C828 H818 0.930 . S
C828 C827 1.400 . S
C828 C831 1.386 . S
H829 C845 0.930 . S
H830 C846 0.931 . S
C831 H819 0.929 . S
C831 C825 1.390 . S
C831 C828 1.386 . S
C832 C827 1.490 . S
C832 C834 1.395 . S
C832 C835 1.403 . S
H833 C839 0.930 . S
C834 H820 0.930 . S
C834 C832 1.395 . S
C834 C837 1.403 . S
C835 C832 1.403 . S
C835 C836 1.524 . S
C835 C839 1.400 . S
C836 H821 0.960 . S
C836 H822 0.960 . S
C836 H823 0.960 . S
C836 C835 1.524 . S
C837 C834 1.403 . S
C837 C838 1.392 . S
C837 C841 1.495 . S
C838 C837 1.392 . S
C838 C839 1.385 . S
C838 C840 1.478 . S
C839 H833 0.930 . S
C839 C835 1.400 . S
C839 C838 1.385 . S
C840 C838 1.478 . S
C840 C842 1.381 . S
C840 C846 1.383 . S
C841 C837 1.495 . S
C841 H847 0.959 . S
C841 H848 0.961 . S
C841 H849 0.960 . S
C842 C840 1.381 . S
C842 C843 1.394 . S
C842 H850 0.930 . S
C843 C842 1.394 . S
C843 C844 1.383 . S
C843 H851 0.929 . S
C844 C843 1.383 . S
C844 C845 1.377 . S
C845 H829 0.930 . S
C845 C844 1.377 . S
C845 C846 1.379 . S
C846 H830 0.931 . S
C846 C840 1.383 . S
C846 C845 1.379 . S
H847 C841 0.959 . S
H848 C841 0.961 . S
H849 C841 0.960 . S
H850 C842 0.930 . S
H851 C843 0.929 . S
H852 C860 0.929 . S
H853 C862 0.930 . S
H854 C864 0.930 . S
H855 C867 0.929 . S
H856 C870 0.930 . S
H857 C872 0.960 . S
H858 C872 0.960 . S
H859 C872 0.960 . S
C860 H852 0.929 . S
C860 C861 1.377 . S
C860 C862 1.384 . S
C861 C860 1.377 . S
C861 C867 1.390 . S
C862 H853 0.930 . S
C862 C860 1.384 . S
C862 C863 1.372 . S
C863 C862 1.372 . S
C863 C864 1.400 . S
C863 C868 1.490 . S
C864 H854 0.930 . S
C864 C863 1.400 . S
C864 C867 1.386 . S
H865 C881 0.930 . S
H866 C882 0.931 . S
C867 H855 0.929 . S
C867 C861 1.390 . S
C867 C864 1.386 . S
C868 C863 1.490 . S
C868 C870 1.395 . S
C868 C871 1.403 . S
H869 C875 0.930 . S
C870 H856 0.930 . S
C870 C868 1.395 . S
C870 C873 1.403 . S
C871 C868 1.403 . S
C871 C872 1.524 . S
C871 C875 1.400 . S
C872 H857 0.960 . S
C872 H858 0.960 . S
C872 H859 0.960 . S
C872 C871 1.524 . S
C873 C870 1.403 . S
C873 C874 1.392 . S
C873 C877 1.495 . S
C874 C873 1.392 . S
C874 C875 1.385 . S
C874 C876 1.478 . S
C875 H869 0.930 . S
C875 C871 1.400 . S
C875 C874 1.385 . S
C876 C874 1.478 . S
C876 C878 1.381 . S
C876 C882 1.383 . S
C877 C873 1.495 . S
C877 H883 0.959 . S
C877 H884 0.961 . S
C877 H885 0.960 . S
C878 C876 1.381 . S
C878 C879 1.394 . S
C878 H886 0.930 . S
C879 C878 1.394 . S
C879 C880 1.383 . S
C879 H887 0.929 . S
C880 C879 1.383 . S
C880 C881 1.377 . S
C881 H865 0.930 . S
C881 C880 1.377 . S
C881 C882 1.379 . S
C882 H866 0.931 . S
C882 C876 1.383 . S
C882 C881 1.379 . S
H883 C877 0.959 . S
H884 C877 0.961 . S
H885 C877 0.960 . S
H886 C878 0.930 . S
H887 C879 0.929 . S
H888 C896 0.929 . S
H889 C898 0.930 . S
H890 C900 0.930 . S
H891 C903 0.929 . S
H892 C906 0.930 . S
H893 C908 0.960 . S
H894 C908 0.960 . S
H895 C908 0.960 . S
C896 H888 0.929 . S
C896 C897 1.377 . S
C896 C898 1.384 . S
C897 C896 1.377 . S
C897 C903 1.390 . S
C898 H889 0.930 . S
C898 C896 1.384 . S
C898 C899 1.372 . S
C899 C898 1.372 . S
C899 C900 1.400 . S
C899 C904 1.490 . S
C900 H890 0.930 . S
C900 C899 1.400 . S
C900 C903 1.386 . S
H901 C917 0.930 . S
H902 C918 0.931 . S
C903 H891 0.929 . S
C903 C897 1.390 . S
C903 C900 1.386 . S
C904 C899 1.490 . S
C904 C906 1.395 . S
C904 C907 1.403 . S
H905 C911 0.930 . S
C906 H892 0.930 . S
C906 C904 1.395 . S
C906 C909 1.403 . S
C907 C904 1.403 . S
C907 C908 1.524 . S
C907 C911 1.400 . S
C908 H893 0.960 . S
C908 H894 0.960 . S
C908 H895 0.960 . S
C908 C907 1.524 . S
C909 C906 1.403 . S
C909 C910 1.392 . S
C909 C913 1.495 . S
C910 C909 1.392 . S
C910 C911 1.385 . S
C910 C912 1.478 . S
C911 H905 0.930 . S
C911 C907 1.400 . S
C911 C910 1.385 . S
C912 C910 1.478 . S
C912 C914 1.381 . S
C912 C918 1.383 . S
C913 C909 1.495 . S
C913 H919 0.959 . S
C913 H920 0.961 . S
C913 H921 0.960 . S
C914 C912 1.381 . S
C914 C915 1.394 . S
C914 H922 0.930 . S
C915 C914 1.394 . S
C915 C916 1.383 . S
C915 H923 0.929 . S
C916 C915 1.383 . S
C916 C917 1.377 . S
C917 H901 0.930 . S
C917 C916 1.377 . S
C917 C918 1.379 . S
C918 H902 0.931 . S
C918 C912 1.383 . S
C918 C917 1.379 . S
H919 C913 0.959 . S
H920 C913 0.961 . S
H921 C913 0.960 . S
H922 C914 0.930 . S
H923 C915 0.929 . S
H924 C932 0.929 . S
H925 C934 0.930 . S
H926 C936 0.930 . S
H927 C939 0.929 . S
H928 C942 0.930 . S
H929 C944 0.960 . S
H930 C944 0.960 . S
H931 C944 0.960 . S
C932 H924 0.929 . S
C932 C933 1.377 . S
C932 C934 1.384 . S
C933 C932 1.377 . S
C933 C939 1.390 . S
C934 H925 0.930 . S
C934 C932 1.384 . S
C934 C935 1.372 . S
C935 C934 1.372 . S
C935 C936 1.400 . S
C935 C940 1.490 . S
C936 H926 0.930 . S
C936 C935 1.400 . S
C936 C939 1.386 . S
H937 C953 0.930 . S
H938 C954 0.931 . S
C939 H927 0.929 . S
C939 C933 1.390 . S
C939 C936 1.386 . S
C940 C935 1.490 . S
C940 C942 1.395 . S
C940 C943 1.403 . S
H941 C947 0.930 . S
C942 H928 0.930 . S
C942 C940 1.395 . S
C942 C945 1.403 . S
C943 C940 1.403 . S
C943 C944 1.524 . S
C943 C947 1.400 . S
C944 H929 0.960 . S
C944 H930 0.960 . S
C944 H931 0.960 . S
C944 C943 1.524 . S
C945 C942 1.403 . S
C945 C946 1.392 . S
C945 C949 1.495 . S
C946 C945 1.392 . S
C946 C947 1.385 . S
C946 C948 1.478 . S
C947 H941 0.930 . S
C947 C943 1.400 . S
C947 C946 1.385 . S
C948 C946 1.478 . S
C948 C950 1.381 . S
C948 C954 1.383 . S
C949 C945 1.495 . S
C949 H955 0.959 . S
C949 H956 0.961 . S
C949 H957 0.960 . S
C950 C948 1.381 . S
C950 C951 1.394 . S
C950 H958 0.930 . S
C951 C950 1.394 . S
C951 C952 1.383 . S
C951 H959 0.929 . S
C952 C951 1.383 . S
C952 C953 1.377 . S
C953 H937 0.930 . S
C953 C952 1.377 . S
C953 C954 1.379 . S
C954 H938 0.931 . S
C954 C948 1.383 . S
C954 C953 1.379 . S
H955 C949 0.959 . S
H956 C949 0.961 . S
H957 C949 0.960 . S
H958 C950 0.930 . S
H959 C951 0.929 . S
H960 C968 0.929 . S
H961 C970 0.930 . S
H962 C972 0.930 . S
H963 C975 0.929 . S
H964 C978 0.930 . S
H965 C980 0.960 . S
H966 C980 0.960 . S
H967 C980 0.960 . S
C968 H960 0.929 . S
C968 C969 1.377 . S
C968 C970 1.384 . S
C969 C968 1.377 . S
C969 C975 1.390 . S
C970 H961 0.930 . S
C970 C968 1.384 . S
C970 C971 1.372 . S
C971 C970 1.372 . S
C971 C972 1.400 . S
C971 C976 1.490 . S
C972 H962 0.930 . S
C972 C971 1.400 . S
C972 C975 1.386 . S
H973 C989 0.930 . S
H974 C990 0.931 . S
C975 H963 0.929 . S
C975 C969 1.390 . S
C975 C972 1.386 . S
C976 C971 1.490 . S
C976 C978 1.395 . S
C976 C979 1.403 . S
H977 C983 0.930 . S
C978 H964 0.930 . S
C978 C976 1.395 . S
C978 C981 1.403 . S
C979 C976 1.403 . S
C979 C980 1.524 . S
C979 C983 1.400 . S
C980 H965 0.960 . S
C980 H966 0.960 . S
C980 H967 0.960 . S
C980 C979 1.524 . S
C981 C978 1.403 . S
C981 C982 1.392 . S
C981 C985 1.495 . S
C982 C981 1.392 . S
C982 C983 1.385 . S
C982 C984 1.478 . S
C983 H977 0.930 . S
C983 C979 1.400 . S
C983 C982 1.385 . S
C984 C982 1.478 . S
C984 C986 1.381 . S
C984 C990 1.383 . S
C985 C981 1.495 . S
C985 H991 0.959 . S
C985 H992 0.961 . S
C985 H993 0.960 . S
C986 C984 1.381 . S
C986 C987 1.394 . S
C986 H994 0.930 . S
C987 C986 1.394 . S
C987 C988 1.383 . S
C987 H995 0.929 . S
C988 C987 1.383 . S
C988 C989 1.377 . S
C989 H973 0.930 . S
C989 C988 1.377 . S
C989 C990 1.379 . S
C990 H974 0.931 . S
C990 C984 1.383 . S
C990 C989 1.379 . S
H991 C985 0.959 . S
H992 C985 0.961 . S
H993 C985 0.960 . S
H994 C986 0.930 . S
H995 C987 0.929 . S
H996 C1004 0.929 . S
H997 C1006 0.930 . S
H998 C1008 0.930 . S
H999 C1011 0.929 . S
H1000 C1014 0.930 . S
H1001 C1016 0.960 . S
H1002 C1016 0.960 . S
H1003 C1016 0.960 . S
C1004 H996 0.929 . S
C1004 C1005 1.377 . S
C1004 C1006 1.384 . S
C1005 C1004 1.377 . S
C1005 C1011 1.390 . S
C1006 H997 0.930 . S
C1006 C1004 1.384 . S
C1006 C1007 1.372 . S
C1007 C1006 1.372 . S
C1007 C1008 1.400 . S
C1007 C1012 1.490 . S
C1008 H998 0.930 . S
C1008 C1007 1.400 . S
C1008 C1011 1.386 . S
H1009 C1025 0.930 . S
H1010 C1026 0.931 . S
C1011 H999 0.929 . S
C1011 C1005 1.390 . S
C1011 C1008 1.386 . S
C1012 C1007 1.490 . S
C1012 C1014 1.395 . S
C1012 C1015 1.403 . S
H1013 C1019 0.930 . S
C1014 H1000 0.930 . S
C1014 C1012 1.395 . S
C1014 C1017 1.403 . S
C1015 C1012 1.403 . S
C1015 C1016 1.524 . S
C1015 C1019 1.400 . S
C1016 H1001 0.960 . S
C1016 H1002 0.960 . S
C1016 H1003 0.960 . S
C1016 C1015 1.524 . S
C1017 C1014 1.403 . S
C1017 C1018 1.392 . S
C1017 C1021 1.495 . S
C1018 C1017 1.392 . S
C1018 C1019 1.385 . S
C1018 C1020 1.478 . S
C1019 H1013 0.930 . S
C1019 C1015 1.400 . S
C1019 C1018 1.385 . S
C1020 C1018 1.478 . S
C1020 C1022 1.381 . S
C1020 C1026 1.383 . S
C1021 C1017 1.495 . S
C1021 H1027 0.959 . S
C1021 H1028 0.961 . S
C1021 H1029 0.960 . S
C1022 C1020 1.381 . S
C1022 C1023 1.394 . S
C1022 H1030 0.930 . S
C1023 C1022 1.394 . S
C1023 C1024 1.383 . S
C1023 H1031 0.929 . S
C1024 C1023 1.383 . S
C1024 C1025 1.377 . S
C1025 H1009 0.930 . S
C1025 C1024 1.377 . S
C1025 C1026 1.379 . S
C1026 H1010 0.931 . S
C1026 C1020 1.383 . S
C1026 C1025 1.379 . S
H1027 C1021 0.959 . S
H1028 C1021 0.961 . S
H1029 C1021 0.960 . S
H1030 C1022 0.930 . S
H1031 C1023 0.929 . S
H1032 C1040 0.929 . S
H1033 C1042 0.930 . S
H1034 C1044 0.930 . S
H1035 C1047 0.929 . S
H1036 C1050 0.930 . S
H1037 C1052 0.960 . S
H1038 C1052 0.960 . S
H1039 C1052 0.960 . S
C1040 H1032 0.929 . S
C1040 C1041 1.377 . S
C1040 C1042 1.384 . S
C1041 C1040 1.377 . S
C1041 C1047 1.390 . S
C1042 H1033 0.930 . S
C1042 C1040 1.384 . S
C1042 C1043 1.372 . S
C1043 C1042 1.372 . S
C1043 C1044 1.400 . S
C1043 C1048 1.490 . S
C1044 H1034 0.930 . S
C1044 C1043 1.400 . S
C1044 C1047 1.386 . S
H1045 C1061 0.930 . S
H1046 C1062 0.931 . S
C1047 H1035 0.929 . S
C1047 C1041 1.390 . S
C1047 C1044 1.386 . S
C1048 C1043 1.490 . S
C1048 C1050 1.395 . S
C1048 C1051 1.403 . S
H1049 C1055 0.930 . S
C1050 H1036 0.930 . S
C1050 C1048 1.395 . S
C1050 C1053 1.403 . S
C1051 C1048 1.403 . S
C1051 C1052 1.524 . S
C1051 C1055 1.400 . S
C1052 H1037 0.960 . S
C1052 H1038 0.960 . S
C1052 H1039 0.960 . S
C1052 C1051 1.524 . S
C1053 C1050 1.403 . S
C1053 C1054 1.392 . S
C1053 C1057 1.495 . S
C1054 C1053 1.392 . S
C1054 C1055 1.385 . S
C1054 C1056 1.478 . S
C1055 H1049 0.930 . S
C1055 C1051 1.400 . S
C1055 C1054 1.385 . S
C1056 C1054 1.478 . S
C1056 C1058 1.381 . S
C1056 C1062 1.383 . S
C1057 C1053 1.495 . S
C1057 H1063 0.959 . S
C1057 H1064 0.961 . S
C1057 H1065 0.960 . S
C1058 C1056 1.381 . S
C1058 C1059 1.394 . S
C1058 H1066 0.930 . S
C1059 C1058 1.394 . S
C1059 C1060 1.383 . S
C1059 H1067 0.929 . S
C1060 C1059 1.383 . S
C1060 C1061 1.377 . S
C1061 H1045 0.930 . S
C1061 C1060 1.377 . S
C1061 C1062 1.379 . S
C1062 H1046 0.931 . S
C1062 C1056 1.383 . S
C1062 C1061 1.379 . S
H1063 C1057 0.959 . S
H1064 C1057 0.961 . S
H1065 C1057 0.960 . S
H1066 C1058 0.930 . S
H1067 C1059 0.929 . S
H1068 C1076 0.929 . S
H1069 C1078 0.930 . S
H1070 C1080 0.930 . S
H1071 C1083 0.929 . S
H1072 C1086 0.930 . S
H1073 C1088 0.960 . S
H1074 C1088 0.960 . S
H1075 C1088 0.960 . S
C1076 H1068 0.929 . S
C1076 C1077 1.377 . S
C1076 C1078 1.384 . S
C1077 C1076 1.377 . S
C1077 C1083 1.390 . S
C1078 H1069 0.930 . S
C1078 C1076 1.384 . S
C1078 C1079 1.372 . S
C1079 C1078 1.372 . S
C1079 C1080 1.400 . S
C1079 C1084 1.490 . S
C1080 H1070 0.930 . S
C1080 C1079 1.400 . S
C1080 C1083 1.386 . S
H1081 C1097 0.930 . S
H1082 C1098 0.931 . S
C1083 H1071 0.929 . S
C1083 C1077 1.390 . S
C1083 C1080 1.386 . S
C1084 C1079 1.490 . S
C1084 C1086 1.395 . S
C1084 C1087 1.403 . S
H1085 C1091 0.930 . S
C1086 H1072 0.930 . S
C1086 C1084 1.395 . S
C1086 C1089 1.403 . S
C1087 C1084 1.403 . S
C1087 C1088 1.524 . S
C1087 C1091 1.400 . S
C1088 H1073 0.960 . S
C1088 H1074 0.960 . S
C1088 H1075 0.960 . S
C1088 C1087 1.524 . S
C1089 C1086 1.403 . S
C1089 C1090 1.392 . S
C1089 C1093 1.495 . S
C1090 C1089 1.392 . S
C1090 C1091 1.385 . S
C1090 C1092 1.478 . S
C1091 H1085 0.930 . S
C1091 C1087 1.400 . S
C1091 C1090 1.385 . S
C1092 C1090 1.478 . S
C1092 C1094 1.381 . S
C1092 C1098 1.383 . S
C1093 C1089 1.495 . S
C1093 H1099 0.959 . S
C1093 H1100 0.961 . S
C1093 H1101 0.960 . S
C1094 C1092 1.381 . S
C1094 C1095 1.394 . S
C1094 H1102 0.930 . S
C1095 C1094 1.394 . S
C1095 C1096 1.383 . S
C1095 H1103 0.929 . S
C1096 C1095 1.383 . S
C1096 C1097 1.377 . S
C1097 H1081 0.930 . S
C1097 C1096 1.377 . S
C1097 C1098 1.379 . S
C1098 H1082 0.931 . S
C1098 C1092 1.383 . S
C1098 C1097 1.379 . S
H1099 C1093 0.959 . S
H1100 C1093 0.961 . S
H1101 C1093 0.960 . S
H1102 C1094 0.930 . S
H1103 C1095 0.929 . S
H1104 C1112 0.929 1_554 S
H1105 C1114 0.930 . S
H1106 C1116 0.930 . S
H1107 C1119 0.929 1_554 S
H1108 C1122 0.930 . S
H1109 C1124 0.960 . S
H1110 C1124 0.960 . S
H1111 C1124 0.960 . S
C1112 H1104 0.929 1_556 S
C1112 C1113 1.377 1_556 S
C1112 C1114 1.384 . S
C1113 C1112 1.377 1_554 S
C1113 C1119 1.390 1_554 S
C1114 H1105 0.930 . S
C1114 C1112 1.384 . S
C1114 C1115 1.372 . S
C1115 C1114 1.372 . S
C1115 C1116 1.400 . S
C1115 C1120 1.490 . S
C1116 H1106 0.930 . S
C1116 C1115 1.400 . S
C1116 C1119 1.386 . S
H1117 C1133 0.930 . S
H1118 C1134 0.931 . S
C1119 H1107 0.929 1_556 S
C1119 C1113 1.390 1_556 S
C1119 C1116 1.386 . S
C1120 C1115 1.490 . S
C1120 C1122 1.395 . S
C1120 C1123 1.403 . S
H1121 C1127 0.930 . S
C1122 H1108 0.930 . S
C1122 C1120 1.395 . S
C1122 C1125 1.403 . S
C1123 C1120 1.403 . S
C1123 C1124 1.524 . S
C1123 C1127 1.400 . S
C1124 H1109 0.960 . S
C1124 H1110 0.960 . S
C1124 H1111 0.960 . S
C1124 C1123 1.524 . S
C1125 C1122 1.403 . S
C1125 C1126 1.392 . S
C1125 C1129 1.495 . S
C1126 C1125 1.392 . S
C1126 C1127 1.385 . S
C1126 C1128 1.478 . S
C1127 H1121 0.930 . S
C1127 C1123 1.400 . S
C1127 C1126 1.385 . S
C1128 C1126 1.478 . S
C1128 C1130 1.381 . S
C1128 C1134 1.383 . S
C1129 C1125 1.495 . S
C1129 H1135 0.959 . S
C1129 H1136 0.961 . S
C1129 H1137 0.960 . S
C1130 C1128 1.381 . S
C1130 C1131 1.394 . S
C1130 H1138 0.930 . S
C1131 C1130 1.394 . S
C1131 C1132 1.383 . S
C1131 H1139 0.929 . S
C1132 C1131 1.383 . S
C1132 C1133 1.377 . S
C1133 H1117 0.930 . S
C1133 C1132 1.377 . S
C1133 C1134 1.379 . S
C1134 H1118 0.931 . S
C1134 C1128 1.383 . S
C1134 C1133 1.379 . S
H1135 C1129 0.959 . S
H1136 C1129 0.961 . S
H1137 C1129 0.960 . S
H1138 C1130 0.930 . S
H1139 C1131 0.929 . S
H1140 C1148 0.929 . S
H1141 C1150 0.930 . S
H1142 C1152 0.930 . S
H1143 C1155 0.929 . S
H1144 C1158 0.930 . S
H1145 C1160 0.960 . S
H1146 C1160 0.960 . S
H1147 C1160 0.960 . S
C1148 H1140 0.929 . S
C1148 C1149 1.377 . S
C1148 C1150 1.384 . S
C1149 C1148 1.377 . S
C1149 C1155 1.390 . S
C1150 H1141 0.930 . S
C1150 C1148 1.384 . S
C1150 C1151 1.372 . S
C1151 C1150 1.372 . S
C1151 C1152 1.400 . S
C1151 C1156 1.490 . S
C1152 H1142 0.930 . S
C1152 C1151 1.400 . S
C1152 C1155 1.386 . S
H1153 C1169 0.930 . S
H1154 C1170 0.931 . S
C1155 H1143 0.929 . S
C1155 C1149 1.390 . S
C1155 C1152 1.386 . S
C1156 C1151 1.490 . S
C1156 C1158 1.395 . S
C1156 C1159 1.403 . S
H1157 C1163 0.930 . S
C1158 H1144 0.930 . S
C1158 C1156 1.395 . S
C1158 C1161 1.403 . S
C1159 C1156 1.403 . S
C1159 C1160 1.524 . S
C1159 C1163 1.400 . S
C1160 H1145 0.960 . S
C1160 H1146 0.960 . S
C1160 H1147 0.960 . S
C1160 C1159 1.524 . S
C1161 C1158 1.403 . S
C1161 C1162 1.392 . S
C1161 C1165 1.495 . S
C1162 C1161 1.392 . S
C1162 C1163 1.385 . S
C1162 C1164 1.478 . S
C1163 H1157 0.930 . S
C1163 C1159 1.400 . S
C1163 C1162 1.385 . S
C1164 C1162 1.478 . S
C1164 C1166 1.381 . S
C1164 C1170 1.383 . S
C1165 C1161 1.495 . S
C1165 H1171 0.959 . S
C1165 H1172 0.961 . S
C1165 H1173 0.960 . S
C1166 C1164 1.381 . S
C1166 C1167 1.394 . S
C1166 H1174 0.930 . S
C1167 C1166 1.394 . S
C1167 C1168 1.383 1_554 S
C1167 H1175 0.929 . S
C1168 C1167 1.383 1_556 S
C1168 C1169 1.377 . S
C1169 H1153 0.930 . S
C1169 C1168 1.377 . S
C1169 C1170 1.379 1_556 S
C1170 H1154 0.931 . S
C1170 C1164 1.383 . S
C1170 C1169 1.379 1_554 S
H1171 C1165 0.959 . S
H1172 C1165 0.961 . S
H1173 C1165 0.960 . S
H1174 C1166 0.930 . S
H1175 C1167 0.929 . S
H1176 C1184 0.929 . S
H1177 C1186 0.930 . S
H1178 C1188 0.930 . S
H1179 C1191 0.929 . S
H1180 C1194 0.930 . S
H1181 C1196 0.960 . S
H1182 C1196 0.960 . S
H1183 C1196 0.960 . S
C1184 H1176 0.929 . S
C1184 C1185 1.377 . S
C1184 C1186 1.384 1_554 S
C1185 C1184 1.377 . S
C1185 C1191 1.390 1_554 S
C1186 H1177 0.930 . S
C1186 C1184 1.384 1_556 S
C1186 C1187 1.372 . S
C1187 C1186 1.372 . S
C1187 C1188 1.400 . S
C1187 C1192 1.490 . S
C1188 H1178 0.930 . S
C1188 C1187 1.400 . S
C1188 C1191 1.386 . S
H1189 C1205 0.930 . S
H1190 C1206 0.931 . S
C1191 H1179 0.929 . S
C1191 C1185 1.390 1_556 S
C1191 C1188 1.386 . S
C1192 C1187 1.490 . S
C1192 C1194 1.395 . S
C1192 C1195 1.403 . S
H1193 C1199 0.930 . S
C1194 H1180 0.930 . S
C1194 C1192 1.395 . S
C1194 C1197 1.403 . S
C1195 C1192 1.403 . S
C1195 C1196 1.524 . S
C1195 C1199 1.400 . S
C1196 H1181 0.960 . S
C1196 H1182 0.960 . S
C1196 H1183 0.960 . S
C1196 C1195 1.524 . S
C1197 C1194 1.403 . S
C1197 C1198 1.392 . S
C1197 C1201 1.495 . S
C1198 C1197 1.392 . S
C1198 C1199 1.385 . S
C1198 C1200 1.478 . S
C1199 H1193 0.930 . S
C1199 C1195 1.400 . S
C1199 C1198 1.385 . S
C1200 C1198 1.478 . S
C1200 C1202 1.381 . S
C1200 C1206 1.383 . S
C1201 C1197 1.495 . S
C1201 H1207 0.959 . S
C1201 H1208 0.961 . S
C1201 H1209 0.960 . S
C1202 C1200 1.381 . S
C1202 C1203 1.394 . S
C1202 H1210 0.930 . S
C1203 C1202 1.394 . S
C1203 C1204 1.383 . S
C1203 H1211 0.929 . S
C1204 C1203 1.383 . S
C1204 C1205 1.377 . S
C1205 H1189 0.930 . S
C1205 C1204 1.377 . S
C1205 C1206 1.379 . S
C1206 H1190 0.931 . S
C1206 C1200 1.383 . S
C1206 C1205 1.379 . S
H1207 C1201 0.959 . S
H1208 C1201 0.961 . S
H1209 C1201 0.960 . S
H1210 C1202 0.930 . S
H1211 C1203 0.929 . S
H1212 C1220 0.929 . S
H1213 C1222 0.930 . S
H1214 C1224 0.930 . S
H1215 C1227 0.929 . S
H1216 C1230 0.930 . S
H1217 C1232 0.960 . S
H1218 C1232 0.960 . S
H1219 C1232 0.960 . S
C1220 H1212 0.929 . S
C1220 C1221 1.377 . S
C1220 C1222 1.384 . S
C1221 C1220 1.377 . S
C1221 C1227 1.390 . S
C1222 H1213 0.930 . S
C1222 C1220 1.384 . S
C1222 C1223 1.372 . S
C1223 C1222 1.372 . S
C1223 C1224 1.400 . S
C1223 C1228 1.490 . S
C1224 H1214 0.930 . S
C1224 C1223 1.400 . S
C1224 C1227 1.386 . S
H1225 C1241 0.930 . S
H1226 C1242 0.931 . S
C1227 H1215 0.929 . S
C1227 C1221 1.390 . S
C1227 C1224 1.386 . S
C1228 C1223 1.490 . S
C1228 C1230 1.395 . S
C1228 C1231 1.403 . S
H1229 C1235 0.930 . S
C1230 H1216 0.930 . S
C1230 C1228 1.395 . S
C1230 C1233 1.403 . S
C1231 C1228 1.403 . S
C1231 C1232 1.524 . S
C1231 C1235 1.400 . S
C1232 H1217 0.960 . S
C1232 H1218 0.960 . S
C1232 H1219 0.960 . S
C1232 C1231 1.524 . S
C1233 C1230 1.403 . S
C1233 C1234 1.392 . S
C1233 C1237 1.495 . S
C1234 C1233 1.392 . S
C1234 C1235 1.385 . S
C1234 C1236 1.478 . S
C1235 H1229 0.930 . S
C1235 C1231 1.400 . S
C1235 C1234 1.385 . S
C1236 C1234 1.478 . S
C1236 C1238 1.381 . S
C1236 C1242 1.383 . S
C1237 C1233 1.495 . S
C1237 H1243 0.959 . S
C1237 H1244 0.961 . S
C1237 H1245 0.960 . S
C1238 C1236 1.381 . S
C1238 C1239 1.394 1_554 S
C1238 H1246 0.930 . S
C1239 C1238 1.394 1_556 S
C1239 C1240 1.383 . S
C1239 H1247 0.929 . S
C1240 C1239 1.383 . S
C1240 C1241 1.377 1_556 S
C1241 H1225 0.930 . S
C1241 C1240 1.377 1_554 S
C1241 C1242 1.379 . S
C1242 H1226 0.931 . S
C1242 C1236 1.383 . S
C1242 C1241 1.379 . S
H1243 C1237 0.959 . S
H1244 C1237 0.961 . S
H1245 C1237 0.960 . S
H1246 C1238 0.930 . S
H1247 C1239 0.929 . S
H1248 C1256 0.929 . S
H1249 C1258 0.930 . S
H1250 C1260 0.930 . S
H1251 C1263 0.929 . S
H1252 C1266 0.930 . S
H1253 C1268 0.960 . S
H1254 C1268 0.960 . S
H1255 C1268 0.960 . S
C1256 H1248 0.929 . S
C1256 C1257 1.377 . S
C1256 C1258 1.384 . S
C1257 C1256 1.377 . S
C1257 C1263 1.390 . S
C1258 H1249 0.930 . S
C1258 C1256 1.384 . S
C1258 C1259 1.372 . S
C1259 C1258 1.372 . S
C1259 C1260 1.400 . S
C1259 C1264 1.490 . S
C1260 H1250 0.930 . S
C1260 C1259 1.400 . S
C1260 C1263 1.386 . S
H1261 C1277 0.930 . S
H1262 C1278 0.931 . S
C1263 H1251 0.929 . S
C1263 C1257 1.390 . S
C1263 C1260 1.386 . S
C1264 C1259 1.490 . S
C1264 C1266 1.395 . S
C1264 C1267 1.403 . S
H1265 C1271 0.930 . S
C1266 H1252 0.930 . S
C1266 C1264 1.395 . S
C1266 C1269 1.403 . S
C1267 C1264 1.403 . S
C1267 C1268 1.524 . S
C1267 C1271 1.400 . S
C1268 H1253 0.960 . S
C1268 H1254 0.960 . S
C1268 H1255 0.960 . S
C1268 C1267 1.524 . S
C1269 C1266 1.403 . S
C1269 C1270 1.392 . S
C1269 C1273 1.495 . S
C1270 C1269 1.392 . S
C1270 C1271 1.385 . S
C1270 C1272 1.478 . S
C1271 H1265 0.930 . S
C1271 C1267 1.400 . S
C1271 C1270 1.385 . S
C1272 C1270 1.478 . S
C1272 C1274 1.381 . S
C1272 C1278 1.383 . S
C1273 C1269 1.495 . S
C1273 H1279 0.959 . S
C1273 H1280 0.961 . S
C1273 H1281 0.960 . S
C1274 C1272 1.381 . S
C1274 C1275 1.394 . S
C1274 H1282 0.930 . S
C1275 C1274 1.394 . S
C1275 C1276 1.383 . S
C1275 H1283 0.929 . S
C1276 C1275 1.383 . S
C1276 C1277 1.377 . S
C1277 H1261 0.930 . S
C1277 C1276 1.377 . S
C1277 C1278 1.379 . S
C1278 H1262 0.931 . S
C1278 C1272 1.383 . S
C1278 C1277 1.379 . S
H1279 C1273 0.959 . S
H1280 C1273 0.961 . S
H1281 C1273 0.960 . S
H1282 C1274 0.930 . S
H1283 C1275 0.929 . S
H1284 C1292 0.929 . S
H1285 C1294 0.930 . S
H1286 C1296 0.930 . S
H1287 C1299 0.929 . S
H1288 C1302 0.930 . S
H1289 C1304 0.960 . S
H1290 C1304 0.960 . S
H1291 C1304 0.960 . S
C1292 H1284 0.929 . S
C1292 C1293 1.377 . S
C1292 C1294 1.384 . S
C1293 C1292 1.377 . S
C1293 C1299 1.390 . S
C1294 H1285 0.930 . S
C1294 C1292 1.384 . S
C1294 C1295 1.372 . S
C1295 C1294 1.372 . S
C1295 C1296 1.400 . S
C1295 C1300 1.490 . S
C1296 H1286 0.930 . S
C1296 C1295 1.400 . S
C1296 C1299 1.386 . S
H1297 C1313 0.930 . S
H1298 C1314 0.931 . S
C1299 H1287 0.929 . S
C1299 C1293 1.390 . S
C1299 C1296 1.386 . S
C1300 C1295 1.490 . S
C1300 C1302 1.395 . S
C1300 C1303 1.403 . S
H1301 C1307 0.930 . S
C1302 H1288 0.930 . S
C1302 C1300 1.395 . S
C1302 C1305 1.403 . S
C1303 C1300 1.403 . S
C1303 C1304 1.524 . S
C1303 C1307 1.400 . S
C1304 H1289 0.960 . S
C1304 H1290 0.960 . S
C1304 H1291 0.960 . S
C1304 C1303 1.524 . S
C1305 C1302 1.403 . S
C1305 C1306 1.392 . S
C1305 C1309 1.495 . S
C1306 C1305 1.392 . S
C1306 C1307 1.385 . S
C1306 C1308 1.478 . S
C1307 H1301 0.930 . S
C1307 C1303 1.400 . S
C1307 C1306 1.385 . S
C1308 C1306 1.478 . S
C1308 C1310 1.381 . S
C1308 C1314 1.383 . S
C1309 C1305 1.495 . S
C1309 H1315 0.959 . S
C1309 H1316 0.961 . S
C1309 H1317 0.960 . S
C1310 C1308 1.381 . S
C1310 C1311 1.394 . S
C1310 H1318 0.930 . S
C1311 C1310 1.394 . S
C1311 C1312 1.383 . S
C1311 H1319 0.929 . S
C1312 C1311 1.383 . S
C1312 C1313 1.377 . S
C1313 H1297 0.930 . S
C1313 C1312 1.377 . S
C1313 C1314 1.379 . S
C1314 H1298 0.931 . S
C1314 C1308 1.383 . S
C1314 C1313 1.379 . S
H1315 C1309 0.959 . S
H1316 C1309 0.961 . S
H1317 C1309 0.960 . S
H1318 C1310 0.930 . S
H1319 C1311 0.929 . S
H1320 C1328 0.929 . S
H1321 C1330 0.930 . S
H1322 C1332 0.930 . S
H1323 C1335 0.929 . S
H1324 C1338 0.930 . S
H1325 C1340 0.960 . S
H1326 C1340 0.960 . S
H1327 C1340 0.960 . S
C1328 H1320 0.929 . S
C1328 C1329 1.377 . S
C1328 C1330 1.384 . S
C1329 C1328 1.377 . S
C1329 C1335 1.390 . S
C1330 H1321 0.930 . S
C1330 C1328 1.384 . S
C1330 C1331 1.372 . S
C1331 C1330 1.372 . S
C1331 C1332 1.400 . S
C1331 C1336 1.490 . S
C1332 H1322 0.930 . S
C1332 C1331 1.400 . S
C1332 C1335 1.386 . S
H1333 C1349 0.930 . S
H1334 C1350 0.931 . S
C1335 H1323 0.929 . S
C1335 C1329 1.390 . S
C1335 C1332 1.386 . S
C1336 C1331 1.490 . S
C1336 C1338 1.395 . S
C1336 C1339 1.403 . S
H1337 C1343 0.930 . S
C1338 H1324 0.930 . S
C1338 C1336 1.395 . S
C1338 C1341 1.403 . S
C1339 C1336 1.403 . S
C1339 C1340 1.524 . S
C1339 C1343 1.400 . S
C1340 H1325 0.960 . S
C1340 H1326 0.960 . S
C1340 H1327 0.960 . S
C1340 C1339 1.524 . S
C1341 C1338 1.403 . S
C1341 C1342 1.392 . S
C1341 C1345 1.495 . S
C1342 C1341 1.392 . S
C1342 C1343 1.385 . S
C1342 C1344 1.478 . S
C1343 H1337 0.930 . S
C1343 C1339 1.400 . S
C1343 C1342 1.385 . S
C1344 C1342 1.478 . S
C1344 C1346 1.381 . S
C1344 C1350 1.383 . S
C1345 C1341 1.495 . S
C1345 H1351 0.959 . S
C1345 H1352 0.961 . S
C1345 H1353 0.960 . S
C1346 C1344 1.381 . S
C1346 C1347 1.394 . S
C1346 H1354 0.930 . S
C1347 C1346 1.394 . S
C1347 C1348 1.383 . S
C1347 H1355 0.929 . S
C1348 C1347 1.383 . S
C1348 C1349 1.377 . S
C1349 H1333 0.930 . S
C1349 C1348 1.377 . S
C1349 C1350 1.379 . S
C1350 H1334 0.931 . S
C1350 C1344 1.383 . S
C1350 C1349 1.379 . S
H1351 C1345 0.959 . S
H1352 C1345 0.961 . S
H1353 C1345 0.960 . S
H1354 C1346 0.930 . S
H1355 C1347 0.929 . S
H1356 C1364 0.929 . S
H1357 C1366 0.930 . S
H1358 C1368 0.930 . S
H1359 C1371 0.929 . S
H1360 C1374 0.930 . S
H1361 C1376 0.960 . S
H1362 C1376 0.960 . S
H1363 C1376 0.960 . S
C1364 H1356 0.929 . S
C1364 C1365 1.377 . S
C1364 C1366 1.384 . S
C1365 C1364 1.377 . S
C1365 C1371 1.390 . S
C1366 H1357 0.930 . S
C1366 C1364 1.384 . S
C1366 C1367 1.372 . S
C1367 C1366 1.372 . S
C1367 C1368 1.400 . S
C1367 C1372 1.490 . S
C1368 H1358 0.930 . S
C1368 C1367 1.400 . S
C1368 C1371 1.386 . S
H1369 C1385 0.930 . S
H1370 C1386 0.931 . S
C1371 H1359 0.929 . S
C1371 C1365 1.390 . S
C1371 C1368 1.386 . S
C1372 C1367 1.490 . S
C1372 C1374 1.395 . S
C1372 C1375 1.403 . S
H1373 C1379 0.930 . S
C1374 H1360 0.930 . S
C1374 C1372 1.395 . S
C1374 C1377 1.403 . S
C1375 C1372 1.403 . S
C1375 C1376 1.524 . S
C1375 C1379 1.400 . S
C1376 H1361 0.960 . S
C1376 H1362 0.960 . S
C1376 H1363 0.960 . S
C1376 C1375 1.524 . S
C1377 C1374 1.403 . S
C1377 C1378 1.392 . S
C1377 C1381 1.495 . S
C1378 C1377 1.392 . S
C1378 C1379 1.385 . S
C1378 C1380 1.478 . S
C1379 H1373 0.930 . S
C1379 C1375 1.400 . S
C1379 C1378 1.385 . S
C1380 C1378 1.478 . S
C1380 C1382 1.381 . S
C1380 C1386 1.383 . S
C1381 C1377 1.495 . S
C1381 H1387 0.959 . S
C1381 H1388 0.961 . S
C1381 H1389 0.960 . S
C1382 C1380 1.381 . S
C1382 C1383 1.394 . S
C1382 H1390 0.930 . S
C1383 C1382 1.394 . S
C1383 C1384 1.383 . S
C1383 H1391 0.929 . S
C1384 C1383 1.383 . S
C1384 C1385 1.377 . S
C1385 H1369 0.930 . S
C1385 C1384 1.377 . S
C1385 C1386 1.379 . S
C1386 H1370 0.931 . S
C1386 C1380 1.383 . S
C1386 C1385 1.379 . S
H1387 C1381 0.959 . S
H1388 C1381 0.961 . S
H1389 C1381 0.960 . S
H1390 C1382 0.930 . S
H1391 C1383 0.929 . S
H1392 C1400 0.929 . S
H1393 C1402 0.930 . S
H1394 C1404 0.930 . S
H1395 C1407 0.929 . S
H1396 C1410 0.930 . S
H1397 C1412 0.960 . S
H1398 C1412 0.960 . S
H1399 C1412 0.960 . S
C1400 H1392 0.929 . S
C1400 C1401 1.377 . S
C1400 C1402 1.384 . S
C1401 C1400 1.377 . S
C1401 C1407 1.390 . S
C1402 H1393 0.930 . S
C1402 C1400 1.384 . S
C1402 C1403 1.372 1_545 S
C1403 C1402 1.372 1_565 S
C1403 C1404 1.400 . S
C1403 C1408 1.490 . S
C1404 H1394 0.930 . S
C1404 C1403 1.400 . S
C1404 C1407 1.386 1_565 S
H1405 C1421 0.930 . S
H1406 C1422 0.931 . S
C1407 H1395 0.929 . S
C1407 C1401 1.390 . S
C1407 C1404 1.386 1_545 S
C1408 C1403 1.490 . S
C1408 C1410 1.395 . S
C1408 C1411 1.403 . S
H1409 C1415 0.930 . S
C1410 H1396 0.930 . S
C1410 C1408 1.395 . S
C1410 C1413 1.403 . S
C1411 C1408 1.403 . S
C1411 C1412 1.524 . S
C1411 C1415 1.400 . S
C1412 H1397 0.960 . S
C1412 H1398 0.960 . S
C1412 H1399 0.960 . S
C1412 C1411 1.524 . S
C1413 C1410 1.403 . S
C1413 C1414 1.392 . S
C1413 C1417 1.495 . S
C1414 C1413 1.392 . S
C1414 C1415 1.385 . S
C1414 C1416 1.478 . S
C1415 H1409 0.930 . S
C1415 C1411 1.400 . S
C1415 C1414 1.385 . S
C1416 C1414 1.478 . S
C1416 C1418 1.381 . S
C1416 C1422 1.383 . S
C1417 C1413 1.495 . S
C1417 H1423 0.959 . S
C1417 H1424 0.961 . S
C1417 H1425 0.960 . S
C1418 C1416 1.381 . S
C1418 C1419 1.394 . S
C1418 H1426 0.930 . S
C1419 C1418 1.394 . S
C1419 C1420 1.383 . S
C1419 H1427 0.929 . S
C1420 C1419 1.383 . S
C1420 C1421 1.377 . S
C1421 H1405 0.930 . S
C1421 C1420 1.377 . S
C1421 C1422 1.379 . S
C1422 H1406 0.931 . S
C1422 C1416 1.383 . S
C1422 C1421 1.379 . S
H1423 C1417 0.959 . S
H1424 C1417 0.961 . S
H1425 C1417 0.960 . S
H1426 C1418 0.930 . S
H1427 C1419 0.929 . S
H1428 C1436 0.929 . S
H1429 C1438 0.930 . S
H1430 C1440 0.930 . S
H1431 C1443 0.929 . S
H1432 C1446 0.930 . S
H1433 C1448 0.960 . S
H1434 C1448 0.960 . S
H1435 C1448 0.960 . S
C1436 H1428 0.929 . S
C1436 C1437 1.377 . S
C1436 C1438 1.384 . S
C1437 C1436 1.377 . S
C1437 C1443 1.390 . S
C1438 H1429 0.930 . S
C1438 C1436 1.384 . S
C1438 C1439 1.372 . S
C1439 C1438 1.372 . S
C1439 C1440 1.400 . S
C1439 C1444 1.490 . S
C1440 H1430 0.930 . S
C1440 C1439 1.400 . S
C1440 C1443 1.386 . S
H1441 C1457 0.930 . S
H1442 C1458 0.927 1_655 S
C1443 H1431 0.929 . S
C1443 C1437 1.390 . S
C1443 C1440 1.386 . S
C1444 C1439 1.490 . S
C1444 C1446 1.395 . S
C1444 C1447 1.403 . S
H1445 C1451 0.930 . S
C1446 H1432 0.930 . S
C1446 C1444 1.395 . S
C1446 C1449 1.403 . S
C1447 C1444 1.403 . S
C1447 C1448 1.524 . S
C1447 C1451 1.400 . S
C1448 H1433 0.960 . S
C1448 H1434 0.960 . S
C1448 H1435 0.960 . S
C1448 C1447 1.524 . S
C1449 C1446 1.403 . S
C1449 C1450 1.392 . S
C1449 C1453 1.495 . S
C1450 C1449 1.392 . S
C1450 C1451 1.385 . S
C1450 C1452 1.478 . S
C1451 H1445 0.930 . S
C1451 C1447 1.400 . S
C1451 C1450 1.385 . S
C1452 C1450 1.478 . S
C1452 C1454 1.381 . S
C1452 C1458 1.383 1_655 S
C1453 C1449 1.495 . S
C1453 H1459 0.959 . S
C1453 H1460 0.961 . S
C1453 H1461 0.960 . S
C1454 C1452 1.381 . S
C1454 C1455 1.394 1_655 S
C1454 H1462 0.930 . S
C1455 C1454 1.394 1_455 S
C1455 C1456 1.383 . S
C1455 H1463 0.929 . S
C1456 C1455 1.383 . S
C1456 C1457 1.377 . S
C1457 H1441 0.930 . S
C1457 C1456 1.377 . S
C1457 C1458 1.379 . S
C1458 H1442 0.927 1_455 S
C1458 C1452 1.383 1_455 S
C1458 C1457 1.379 . S
H1459 C1453 0.959 . S
H1460 C1453 0.961 . S
H1461 C1453 0.960 . S
H1462 C1454 0.930 . S
H1463 C1455 0.929 . S
H1464 C1472 0.929 . S
H1465 C1474 0.930 . S
H1466 C1476 0.930 . S
H1467 C1479 0.929 . S
H1468 C1482 0.930 . S
H1469 C1484 0.960 . S
H1470 C1484 0.960 . S
H1471 C1484 0.960 . S
C1472 H1464 0.929 . S
C1472 C1473 1.377 . S
C1472 C1474 1.384 . S
C1473 C1472 1.377 . S
C1473 C1479 1.390 . S
C1474 H1465 0.930 . S
C1474 C1472 1.384 . S
C1474 C1475 1.372 1_565 S
C1475 C1474 1.372 1_545 S
C1475 C1476 1.400 . S
C1475 C1480 1.490 . S
C1476 H1466 0.930 . S
C1476 C1475 1.400 . S
C1476 C1479 1.386 1_545 S
H1477 C1493 0.930 . S
H1478 C1494 0.931 . S
C1479 H1467 0.929 . S
C1479 C1473 1.390 . S
C1479 C1476 1.386 1_565 S
C1480 C1475 1.490 . S
C1480 C1482 1.395 . S
C1480 C1483 1.403 . S
H1481 C1487 0.930 . S
C1482 H1468 0.930 . S
C1482 C1480 1.395 . S
C1482 C1485 1.403 . S
C1483 C1480 1.403 . S
C1483 C1484 1.524 . S
C1483 C1487 1.400 . S
C1484 H1469 0.960 . S
C1484 H1470 0.960 . S
C1484 H1471 0.960 . S
C1484 C1483 1.524 . S
C1485 C1482 1.403 . S
C1485 C1486 1.392 . S
C1485 C1489 1.495 . S
C1486 C1485 1.392 . S
C1486 C1487 1.385 . S
C1486 C1488 1.478 . S
C1487 H1481 0.930 . S
C1487 C1483 1.400 . S
C1487 C1486 1.385 . S
C1488 C1486 1.478 . S
C1488 C1490 1.381 . S
C1488 C1494 1.383 . S
C1489 C1485 1.495 . S
C1489 H1495 0.959 . S
C1489 H1496 0.961 . S
C1489 H1497 0.960 . S
C1490 C1488 1.381 . S
C1490 C1491 1.394 . S
C1490 H1498 0.930 . S
C1491 C1490 1.394 . S
C1491 C1492 1.383 . S
C1491 H1499 0.929 . S
C1492 C1491 1.383 . S
C1492 C1493 1.377 . S
C1493 H1477 0.930 . S
C1493 C1492 1.377 . S
C1493 C1494 1.379 . S
C1494 H1478 0.931 . S
C1494 C1488 1.383 . S
C1494 C1493 1.379 . S
H1495 C1489 0.959 . S
H1496 C1489 0.961 . S
H1497 C1489 0.960 . S
H1498 C1490 0.930 . S
H1499 C1491 0.929 . S
H1500 C1508 0.929 . S
H1501 C1510 0.930 . S
H1502 C1512 0.930 . S
H1503 C1515 0.929 . S
H1504 C1518 0.930 . S
H1505 C1520 0.960 . S
H1506 C1520 0.960 . S
H1507 C1520 0.960 . S
C1508 H1500 0.929 . S
C1508 C1509 1.377 . S
C1508 C1510 1.384 . S
C1509 C1508 1.377 . S
C1509 C1515 1.390 . S
C1510 H1501 0.930 . S
C1510 C1508 1.384 . S
C1510 C1511 1.372 . S
C1511 C1510 1.372 . S
C1511 C1512 1.400 . S
C1511 C1516 1.490 . S
C1512 H1502 0.930 . S
C1512 C1511 1.400 . S
C1512 C1515 1.386 . S
H1513 C1529 0.930 . S
H1514 C1530 0.931 . S
C1515 H1503 0.929 . S
C1515 C1509 1.390 . S
C1515 C1512 1.386 . S
C1516 C1511 1.490 . S
C1516 C1518 1.395 . S
C1516 C1519 1.403 . S
H1517 C1523 0.930 . S
C1518 H1504 0.930 . S
C1518 C1516 1.395 . S
C1518 C1521 1.403 . S
C1519 C1516 1.403 . S
C1519 C1520 1.524 . S
C1519 C1523 1.400 . S
C1520 H1505 0.960 . S
C1520 H1506 0.960 . S
C1520 H1507 0.960 . S
C1520 C1519 1.524 . S
C1521 C1518 1.403 . S
C1521 C1522 1.392 . S
C1521 C1525 1.495 . S
C1522 C1521 1.392 . S
C1522 C1523 1.385 . S
C1522 C1524 1.478 . S
C1523 H1517 0.930 . S
C1523 C1519 1.400 . S
C1523 C1522 1.385 . S
C1524 C1522 1.478 . S
C1524 C1526 1.381 1_455 S
C1524 C1530 1.383 . S
C1525 C1521 1.495 . S
C1525 H1531 0.959 . S
C1525 H1532 0.961 . S
C1525 H1533 0.960 . S
C1526 C1524 1.381 1_655 S
C1526 C1527 1.394 . S
C1526 H1534 0.930 . S
C1527 C1526 1.394 . S
C1527 C1528 1.383 . S
C1527 H1535 0.929 . S
C1528 C1527 1.383 . S
C1528 C1529 1.377 . S
C1529 H1513 0.930 . S
C1529 C1528 1.377 . S
C1529 C1530 1.379 1_655 S
C1530 H1514 0.931 . S
C1530 C1524 1.383 . S
C1530 C1529 1.379 1_455 S
H1531 C1525 0.959 . S
H1532 C1525 0.961 . S
H1533 C1525 0.960 . S
H1534 C1526 0.930 . S
H1535 C1527 0.929 . S
H1536 C1544 0.929 . S
H1537 C1546 0.930 . S
H1538 C1548 0.930 . S
H1539 C1551 0.929 . S
H1540 C1554 0.930 . S
H1541 C1556 0.960 . S
H1542 C1556 0.960 . S
H1543 C1556 0.960 . S
C1544 H1536 0.929 . S
C1544 C1545 1.377 . S
C1544 C1546 1.384 . S
C1545 C1544 1.377 . S
C1545 C1551 1.390 . S
C1546 H1537 0.930 . S
C1546 C1544 1.384 . S
C1546 C1547 1.372 . S
C1547 C1546 1.372 . S
C1547 C1548 1.400 . S
C1547 C1552 1.490 . S
C1548 H1538 0.930 . S
C1548 C1547 1.400 . S
C1548 C1551 1.386 . S
H1549 C1565 0.930 . S
H1550 C1566 0.931 . S
C1551 H1539 0.929 . S
C1551 C1545 1.390 . S
C1551 C1548 1.386 . S
C1552 C1547 1.490 . S
C1552 C1554 1.395 1_556 S
C1552 C1555 1.403 . S
H1553 C1559 0.930 . S
C1554 H1540 0.930 . S
C1554 C1552 1.395 1_554 S
C1554 C1557 1.403 . S
C1555 C1552 1.403 . S
C1555 C1556 1.524 . S
C1555 C1559 1.400 . S
C1556 H1541 0.960 . S
C1556 H1542 0.960 . S
C1556 H1543 0.960 . S
C1556 C1555 1.524 . S
C1557 C1554 1.403 . S
C1557 C1558 1.392 . S
C1557 C1561 1.495 . S
C1558 C1557 1.392 . S
C1558 C1559 1.385 1_554 S
C1558 C1560 1.478 . S
C1559 H1553 0.930 . S
C1559 C1555 1.400 . S
C1559 C1558 1.385 1_556 S
C1560 C1558 1.478 . S
C1560 C1562 1.381 . S
C1560 C1566 1.383 . S
C1561 C1557 1.495 . S
C1561 H1567 0.959 . S
C1561 H1568 0.961 . S
C1561 H1569 0.960 . S
C1562 C1560 1.381 . S
C1562 C1563 1.394 . S
C1562 H1570 0.930 . S
C1563 C1562 1.394 . S
C1563 C1564 1.383 . S
C1563 H1571 0.929 . S
C1564 C1563 1.383 . S
C1564 C1565 1.377 . S
C1565 H1549 0.930 . S
C1565 C1564 1.377 . S
C1565 C1566 1.379 . S
C1566 H1550 0.931 . S
C1566 C1560 1.383 . S
C1566 C1565 1.379 . S
H1567 C1561 0.959 . S
H1568 C1561 0.961 . S
H1569 C1561 0.960 . S
H1570 C1562 0.930 . S
H1571 C1563 0.929 . S
H1572 C1580 0.929 . S
H1573 C1582 0.930 . S
H1574 C1584 0.930 . S
H1575 C1587 0.929 . S
H1576 C1590 0.930 . S
H1577 C1592 0.960 . S
H1578 C1592 0.960 . S
H1579 C1592 0.960 . S
C1580 H1572 0.929 . S
C1580 C1581 1.377 . S
C1580 C1582 1.384 . S
C1581 C1580 1.377 . S
C1581 C1587 1.390 . S
C1582 H1573 0.930 . S
C1582 C1580 1.384 . S
C1582 C1583 1.372 . S
C1583 C1582 1.372 . S
C1583 C1584 1.400 . S
C1583 C1588 1.490 . S
C1584 H1574 0.930 . S
C1584 C1583 1.400 . S
C1584 C1587 1.386 . S
H1585 C1601 0.930 . S
H1586 C1602 0.931 . S
C1587 H1575 0.929 . S
C1587 C1581 1.390 . S
C1587 C1584 1.386 . S
C1588 C1583 1.490 . S
C1588 C1590 1.395 . S
C1588 C1591 1.403 . S
H1589 C1595 0.930 . S
C1590 H1576 0.930 . S
C1590 C1588 1.395 . S
C1590 C1593 1.403 1_554 S
C1591 C1588 1.403 . S
C1591 C1592 1.524 . S
C1591 C1595 1.400 . S
C1592 H1577 0.960 . S
C1592 H1578 0.960 . S
C1592 H1579 0.960 . S
C1592 C1591 1.524 . S
C1593 C1590 1.403 1_556 S
C1593 C1594 1.392 . S
C1593 C1597 1.495 . S
C1594 C1593 1.392 . S
C1594 C1595 1.385 1_556 S
C1594 C1596 1.478 . S
C1595 H1589 0.930 . S
C1595 C1591 1.400 . S
C1595 C1594 1.385 1_554 S
C1596 C1594 1.478 . S
C1596 C1598 1.396 . S
C1596 C1602 1.383 . S
C1597 C1593 1.495 . S
C1597 H1603 0.959 . S
C1597 H1604 0.961 . S
C1597 H1605 0.960 . S
C1598 C1596 1.396 . S
C1598 C1599 1.404 . S
C1598 H1606 0.906 1_556 S
C1599 C1598 1.404 . S
C1599 C1600 1.383 . S
C1599 H1607 0.937 . S
C1600 C1599 1.383 . S
C1600 C1601 1.377 . S
C1601 H1585 0.930 . S
C1601 C1600 1.377 . S
C1601 C1602 1.379 . S
C1602 H1586 0.931 . S
C1602 C1596 1.383 . S
C1602 C1601 1.379 . S
H1603 C1597 0.959 . S
H1604 C1597 0.961 . S
H1605 C1597 0.960 . S
H1606 C1598 0.906 1_554 S
H1607 C1599 0.937 . S
H1608 C1616 0.929 . S
H1609 C1618 0.930 1_556 S
H1610 C1620 0.930 . S
H1611 C1623 0.929 . S
H1612 C1626 0.930 . S
H1613 C1628 0.960 . S
H1614 C1628 0.960 . S
H1615 C1628 0.960 . S
C1616 H1608 0.929 . S
C1616 C1617 1.377 . S
C1616 C1618 1.384 . S
C1617 C1616 1.377 . S
C1617 C1623 1.390 . S
C1618 H1609 0.930 1_554 S
C1618 C1616 1.384 . S
C1618 C1619 1.372 . S
C1619 C1618 1.372 . S
C1619 C1620 1.400 . S
C1619 C1624 1.490 . S
C1620 H1610 0.930 . S
C1620 C1619 1.400 . S
C1620 C1623 1.386 . S
H1621 C1637 0.930 . S
H1622 C1638 0.931 . S
C1623 H1611 0.929 . S
C1623 C1617 1.390 . S
C1623 C1620 1.386 . S
C1624 C1619 1.490 . S
C1624 C1626 1.395 1_554 S
C1624 C1627 1.403 . S
H1625 C1631 0.930 . S
C1626 H1612 0.930 . S
C1626 C1624 1.395 1_556 S
C1626 C1629 1.403 . S
C1627 C1624 1.403 . S
C1627 C1628 1.524 . S
C1627 C1631 1.400 . S
C1628 H1613 0.960 . S
C1628 H1614 0.960 . S
C1628 H1615 0.960 . S
C1628 C1627 1.524 . S
C1629 C1626 1.403 . S
C1629 C1630 1.392 . S
C1629 C1633 1.495 . S
C1630 C1629 1.392 . S
C1630 C1631 1.385 1_556 S
C1630 C1632 1.478 . S
C1631 H1625 0.930 . S
C1631 C1627 1.400 . S
C1631 C1630 1.385 1_554 S
C1632 C1630 1.478 . S
C1632 C1634 1.381 . S
C1632 C1638 1.383 . S
C1633 C1629 1.495 . S
C1633 H1639 0.959 . S
C1633 H1640 0.961 . S
C1633 H1641 0.960 . S
C1634 C1632 1.381 . S
C1634 C1635 1.394 . S
C1634 H1642 0.930 . S
C1635 C1634 1.394 . S
C1635 C1636 1.383 . S
C1635 H1643 0.929 . S
C1636 C1635 1.383 . S
C1636 C1637 1.377 . S
C1637 H1621 0.930 . S
C1637 C1636 1.377 . S
C1637 C1638 1.379 . S
C1638 H1622 0.931 . S
C1638 C1632 1.383 . S
C1638 C1637 1.379 . S
H1639 C1633 0.959 . S
H1640 C1633 0.961 . S
H1641 C1633 0.960 . S
H1642 C1634 0.930 . S
H1643 C1635 0.929 . S
H1644 C1652 0.929 . S
H1645 C1654 0.930 . S
H1646 C1656 0.930 . S
H1647 C1659 0.929 . S
H1648 C1662 0.930 . S
H1649 C1664 0.960 . S
H1650 C1664 0.960 . S
H1651 C1664 0.960 . S
C1652 H1644 0.929 . S
C1652 C1653 1.377 . S
C1652 C1654 1.384 . S
C1653 C1652 1.377 . S
C1653 C1659 1.390 . S
C1654 H1645 0.930 . S
C1654 C1652 1.384 . S
C1654 C1655 1.372 . S
C1655 C1654 1.372 . S
C1655 C1656 1.400 . S
C1655 C1660 1.490 . S
C1656 H1646 0.930 . S
C1656 C1655 1.400 . S
C1656 C1659 1.386 . S
H1657 C1673 0.930 . S
H1658 C1674 0.931 . S
C1659 H1647 0.929 . S
C1659 C1653 1.390 . S
C1659 C1656 1.386 . S
C1660 C1655 1.490 . S
C1660 C1662 1.395 1_554 S
C1660 C1663 1.403 . S
H1661 C1667 0.930 . S
C1662 H1648 0.930 . S
C1662 C1660 1.395 1_556 S
C1662 C1665 1.403 . S
C1663 C1660 1.403 . S
C1663 C1664 1.524 . S
C1663 C1667 1.400 . S
C1664 H1649 0.960 . S
C1664 H1650 0.960 . S
C1664 H1651 0.960 . S
C1664 C1663 1.524 . S
C1665 C1662 1.403 . S
C1665 C1666 1.392 . S
C1665 C1669 1.495 . S
C1666 C1665 1.392 . S
C1666 C1667 1.385 1_556 S
C1666 C1668 1.478 . S
C1667 H1661 0.930 . S
C1667 C1663 1.400 . S
C1667 C1666 1.385 1_554 S
C1668 C1666 1.478 . S
C1668 C1670 1.381 . S
C1668 C1674 1.383 . S
C1669 C1665 1.495 . S
C1669 H1675 0.959 . S
C1669 H1676 0.961 . S
C1669 H1677 0.960 . S
C1670 C1668 1.381 . S
C1670 C1671 1.394 . S
C1670 H1678 0.930 . S
C1671 C1670 1.394 . S
C1671 C1672 1.383 . S
C1671 H1679 0.929 . S
C1672 C1671 1.383 . S
C1672 C1673 1.377 . S
C1673 H1657 0.930 . S
C1673 C1672 1.377 . S
C1673 C1674 1.379 . S
C1674 H1658 0.931 . S
C1674 C1668 1.383 . S
C1674 C1673 1.379 . S
H1675 C1669 0.959 . S
H1676 C1669 0.961 . S
H1677 C1669 0.960 . S
H1678 C1670 0.930 . S
H1679 C1671 0.929 . S
H1680 C1688 0.929 . S
H1681 C1690 0.930 . S
H1682 C1692 0.930 . S
H1683 C1695 0.929 . S
H1684 C1698 0.930 . S
H1685 C1700 0.960 . S
H1686 C1700 0.960 . S
H1687 C1700 0.960 . S
C1688 H1680 0.929 . S
C1688 C1689 1.377 . S
C1688 C1690 1.384 . S
C1689 C1688 1.377 . S
C1689 C1695 1.390 . S
C1690 H1681 0.930 . S
C1690 C1688 1.384 . S
C1690 C1691 1.372 . S
C1691 C1690 1.372 . S
C1691 C1692 1.400 . S
C1691 C1696 1.490 . S
C1692 H1682 0.930 . S
C1692 C1691 1.400 . S
C1692 C1695 1.386 . S
H1693 C1709 0.930 . S
H1694 C1710 0.931 . S
C1695 H1683 0.929 . S
C1695 C1689 1.390 . S
C1695 C1692 1.386 . S
C1696 C1691 1.490 . S
C1696 C1698 1.395 . S
C1696 C1699 1.403 . S
H1697 C1703 0.930 . S
C1698 H1684 0.930 . S
C1698 C1696 1.395 . S
C1698 C1701 1.403 . S
C1699 C1696 1.403 . S
C1699 C1700 1.524 . S
C1699 C1703 1.400 . S
C1700 H1685 0.960 . S
C1700 H1686 0.960 . S
C1700 H1687 0.960 . S
C1700 C1699 1.524 . S
C1701 C1698 1.403 . S
C1701 C1702 1.392 . S
C1701 C1705 1.495 . S
C1702 C1701 1.392 . S
C1702 C1703 1.385 . S
C1702 C1704 1.478 . S
C1703 H1697 0.930 . S
C1703 C1699 1.400 . S
C1703 C1702 1.385 . S
C1704 C1702 1.478 . S
C1704 C1706 1.381 . S
C1704 C1710 1.383 . S
C1705 C1701 1.495 . S
C1705 H1711 0.959 . S
C1705 H1712 0.961 . S
C1705 H1713 0.960 . S
C1706 C1704 1.381 . S
C1706 C1707 1.394 . S
C1706 H1714 0.930 . S
C1707 C1706 1.394 . S
C1707 C1708 1.383 . S
C1707 H1715 0.929 . S
C1708 C1707 1.383 . S
C1708 C1709 1.377 . S
C1709 H1693 0.930 . S
C1709 C1708 1.377 . S
C1709 C1710 1.379 . S
C1710 H1694 0.931 . S
C1710 C1704 1.383 . S
C1710 C1709 1.379 . S
H1711 C1705 0.959 . S
H1712 C1705 0.961 . S
H1713 C1705 0.960 . S
H1714 C1706 0.930 . S
H1715 C1707 0.929 . S
H1716 C1724 0.929 . S
H1717 C1726 0.930 . S
H1718 C1728 0.930 . S
H1719 C1731 0.929 . S
H1720 C1734 0.930 . S
H1721 C1736 0.960 . S
H1722 C1736 0.960 . S
H1723 C1736 0.960 . S
C1724 H1716 0.929 . S
C1724 C1725 1.377 . S
C1724 C1726 1.384 . S
C1725 C1724 1.377 . S
C1725 C1731 1.390 . S
C1726 H1717 0.930 . S
C1726 C1724 1.384 . S
C1726 C1727 1.372 . S
C1727 C1726 1.372 . S
C1727 C1728 1.400 . S
C1727 C1732 1.490 . S
C1728 H1718 0.930 . S
C1728 C1727 1.400 . S
C1728 C1731 1.386 . S
H1729 C1745 0.930 . S
H1730 C1746 0.931 . S
C1731 H1719 0.929 . S
C1731 C1725 1.390 . S
C1731 C1728 1.386 . S
C1732 C1727 1.490 . S
C1732 C1734 1.395 . S
C1732 C1735 1.403 . S
H1733 C1739 0.930 . S
C1734 H1720 0.930 . S
C1734 C1732 1.395 . S
C1734 C1737 1.403 . S
C1735 C1732 1.403 . S
C1735 C1736 1.524 . S
C1735 C1739 1.400 . S
C1736 H1721 0.960 . S
C1736 H1722 0.960 . S
C1736 H1723 0.960 . S
C1736 C1735 1.524 . S
C1737 C1734 1.403 . S
C1737 C1738 1.392 . S
C1737 C1741 1.495 . S
C1738 C1737 1.392 . S
C1738 C1739 1.385 . S
C1738 C1740 1.478 . S
C1739 H1733 0.930 . S
C1739 C1735 1.400 . S
C1739 C1738 1.385 . S
C1740 C1738 1.478 . S
C1740 C1742 1.381 . S
C1740 C1746 1.383 . S
C1741 C1737 1.495 . S
C1741 H1747 0.959 . S
C1741 H1748 0.961 . S
C1741 H1749 0.960 . S
C1742 C1740 1.381 . S
C1742 C1743 1.394 . S
C1742 H1750 0.930 . S
C1743 C1742 1.394 . S
C1743 C1744 1.383 . S
C1743 H1751 0.929 . S
C1744 C1743 1.383 . S
C1744 C1745 1.377 . S
C1745 H1729 0.930 . S
C1745 C1744 1.377 . S
C1745 C1746 1.379 . S
C1746 H1730 0.931 . S
C1746 C1740 1.383 . S
C1746 C1745 1.379 . S
H1747 C1741 0.959 . S
H1748 C1741 0.961 . S
H1749 C1741 0.960 . S
H1750 C1742 0.930 . S
H1751 C1743 0.929 . S
H1752 C1760 0.929 . S
H1753 C1762 0.930 . S
H1754 C1764 0.930 . S
H1755 C1767 0.929 . S
H1756 C1770 0.930 . S
H1757 C1772 0.960 . S
H1758 C1772 0.960 . S
H1759 C1772 0.960 . S
C1760 H1752 0.929 . S
C1760 C1761 1.377 . S
C1760 C1762 1.384 . S
C1761 C1760 1.377 . S
C1761 C1767 1.390 . S
C1762 H1753 0.930 . S
C1762 C1760 1.384 . S
C1762 C1763 1.372 . S
C1763 C1762 1.372 . S
C1763 C1764 1.400 . S
C1763 C1768 1.490 . S
C1764 H1754 0.930 . S
C1764 C1763 1.400 . S
C1764 C1767 1.386 . S
H1765 C1781 0.930 . S
H1766 C1782 0.931 . S
C1767 H1755 0.929 . S
C1767 C1761 1.390 . S
C1767 C1764 1.386 . S
C1768 C1763 1.490 . S
C1768 C1770 1.395 . S
C1768 C1771 1.403 . S
H1769 C1775 0.930 . S
C1770 H1756 0.930 . S
C1770 C1768 1.395 . S
C1770 C1773 1.403 . S
C1771 C1768 1.403 . S
C1771 C1772 1.524 . S
C1771 C1775 1.400 . S
C1772 H1757 0.960 . S
C1772 H1758 0.960 . S
C1772 H1759 0.960 . S
C1772 C1771 1.524 . S
C1773 C1770 1.403 . S
C1773 C1774 1.392 . S
C1773 C1777 1.495 . S
C1774 C1773 1.392 . S
C1774 C1775 1.385 . S
C1774 C1776 1.478 . S
C1775 H1769 0.930 . S
C1775 C1771 1.400 . S
C1775 C1774 1.385 . S
C1776 C1774 1.478 . S
C1776 C1778 1.381 . S
C1776 C1782 1.383 . S
C1777 C1773 1.495 . S
C1777 H1783 0.959 . S
C1777 H1784 0.961 . S
C1777 H1785 0.960 . S
C1778 C1776 1.381 . S
C1778 C1779 1.394 . S
C1778 H1786 0.930 . S
C1779 C1778 1.394 . S
C1779 C1780 1.383 . S
C1779 H1787 0.929 . S
C1780 C1779 1.383 . S
C1780 C1781 1.377 . S
C1781 H1765 0.930 . S
C1781 C1780 1.377 . S
C1781 C1782 1.379 . S
C1782 H1766 0.931 . S
C1782 C1776 1.383 . S
C1782 C1781 1.379 . S
H1783 C1777 0.959 . S
H1784 C1777 0.961 . S
H1785 C1777 0.960 . S
H1786 C1778 0.930 . S
H1787 C1779 0.929 . S
H1788 C1796 0.929 . S
H1789 C1798 0.930 . S
H1790 C1800 0.930 . S
H1791 C1803 0.929 . S
H1792 C1806 0.930 . S
H1793 C1808 0.960 . S
H1794 C1808 0.960 . S
H1795 C1808 0.960 . S
C1796 H1788 0.929 . S
C1796 C1797 1.377 . S
C1796 C1798 1.384 . S
C1797 C1796 1.377 . S
C1797 C1803 1.390 . S
C1798 H1789 0.930 . S
C1798 C1796 1.384 . S
C1798 C1799 1.372 . S
C1799 C1798 1.372 . S
C1799 C1800 1.400 . S
C1799 C1804 1.490 . S
C1800 H1790 0.930 . S
C1800 C1799 1.400 . S
C1800 C1803 1.386 . S
H1801 C1817 0.930 . S
H1802 C1818 0.931 . S
C1803 H1791 0.929 . S
C1803 C1797 1.390 . S
C1803 C1800 1.386 . S
C1804 C1799 1.490 . S
C1804 C1806 1.395 . S
C1804 C1807 1.403 . S
H1805 C1811 0.930 . S
C1806 H1792 0.930 . S
C1806 C1804 1.395 . S
C1806 C1809 1.403 . S
C1807 C1804 1.403 . S
C1807 C1808 1.524 . S
C1807 C1811 1.400 . S
C1808 H1793 0.960 . S
C1808 H1794 0.960 . S
C1808 H1795 0.960 . S
C1808 C1807 1.524 . S
C1809 C1806 1.403 . S
C1809 C1810 1.392 . S
C1809 C1813 1.495 . S
C1810 C1809 1.392 . S
C1810 C1811 1.385 . S
C1810 C1812 1.478 . S
C1811 H1805 0.930 . S
C1811 C1807 1.400 . S
C1811 C1810 1.385 . S
C1812 C1810 1.478 . S
C1812 C1814 1.381 . S
C1812 C1818 1.383 . S
C1813 C1809 1.495 . S
C1813 H1819 0.959 . S
C1813 H1820 0.961 . S
C1813 H1821 0.960 . S
C1814 C1812 1.381 . S
C1814 C1815 1.394 . S
C1814 H1822 0.930 . S
C1815 C1814 1.394 . S
C1815 C1816 1.383 . S
C1815 H1823 0.929 . S
C1816 C1815 1.383 . S
C1816 C1817 1.377 . S
C1817 H1801 0.930 . S
C1817 C1816 1.377 . S
C1817 C1818 1.379 . S
C1818 H1802 0.931 . S
C1818 C1812 1.383 . S
C1818 C1817 1.379 . S
H1819 C1813 0.959 . S
H1820 C1813 0.961 . S
H1821 C1813 0.960 . S
H1822 C1814 0.930 . S
H1823 C1815 0.929 . S
H1824 C1832 0.929 . S
H1825 C1834 0.930 . S
H1826 C1836 0.930 . S
H1827 C1839 0.929 . S
H1828 C1842 0.930 . S
H1829 C1844 0.960 . S
H1830 C1844 0.960 . S
H1831 C1844 0.960 . S
C1832 H1824 0.929 . S
C1832 C1833 1.377 . S
C1832 C1834 1.384 . S
C1833 C1832 1.377 . S
C1833 C1839 1.390 . S
C1834 H1825 0.930 . S
C1834 C1832 1.384 . S
C1834 C1835 1.372 . S
C1835 C1834 1.372 . S
C1835 C1836 1.400 . S
C1835 C1840 1.490 . S
C1836 H1826 0.930 . S
C1836 C1835 1.400 . S
C1836 C1839 1.386 . S
H1837 C1853 0.930 . S
H1838 C1854 0.931 . S
C1839 H1827 0.929 . S
C1839 C1833 1.390 . S
C1839 C1836 1.386 . S
C1840 C1835 1.490 . S
C1840 C1842 1.395 . S
C1840 C1843 1.403 . S
H1841 C1847 0.930 . S
C1842 H1828 0.930 . S
C1842 C1840 1.395 . S
C1842 C1845 1.403 . S
C1843 C1840 1.403 . S
C1843 C1844 1.524 . S
C1843 C1847 1.400 . S
C1844 H1829 0.960 . S
C1844 H1830 0.960 . S
C1844 H1831 0.960 . S
C1844 C1843 1.524 . S
C1845 C1842 1.403 . S
C1845 C1846 1.392 . S
C1845 C1849 1.495 . S
C1846 C1845 1.392 . S
C1846 C1847 1.385 . S
C1846 C1848 1.478 . S
C1847 H1841 0.930 . S
C1847 C1843 1.400 . S
C1847 C1846 1.385 . S
C1848 C1846 1.478 . S
C1848 C1850 1.381 1_545 S
C1848 C1854 1.383 . S
C1849 C1845 1.495 . S
C1849 H1855 0.959 . S
C1849 H1856 0.961 . S
C1849 H1857 0.960 . S
C1850 C1848 1.381 1_565 S
C1850 C1851 1.394 . S
C1850 H1858 0.930 . S
C1851 C1850 1.394 . S
C1851 C1852 1.383 . S
C1851 H1859 0.929 . S
C1852 C1851 1.383 . S
C1852 C1853 1.377 . S
C1853 H1837 0.930 . S
C1853 C1852 1.377 . S
C1853 C1854 1.379 1_565 S
C1854 H1838 0.931 . S
C1854 C1848 1.383 . S
C1854 C1853 1.379 1_545 S
H1855 C1849 0.959 . S
H1856 C1849 0.961 . S
H1857 C1849 0.960 . S
H1858 C1850 0.930 . S
H1859 C1851 0.929 . S
H1860 C1868 0.929 . S
H1861 C1870 0.930 . S
H1862 C1872 0.930 . S
H1863 C1875 0.929 . S
H1864 C1878 0.930 . S
H1865 C1880 0.960 . S
H1866 C1880 0.960 . S
H1867 C1880 0.960 . S
C1868 H1860 0.929 . S
C1868 C1869 1.377 . S
C1868 C1870 1.384 . S
C1869 C1868 1.377 . S
C1869 C1875 1.390 . S
C1870 H1861 0.930 . S
C1870 C1868 1.384 . S
C1870 C1871 1.372 . S
C1871 C1870 1.372 . S
C1871 C1872 1.400 . S
C1871 C1876 1.490 . S
C1872 H1862 0.930 . S
C1872 C1871 1.400 . S
C1872 C1875 1.386 . S
H1873 C1889 0.930 . S
H1874 C1890 0.931 . S
C1875 H1863 0.929 . S
C1875 C1869 1.390 . S
C1875 C1872 1.386 . S
C1876 C1871 1.490 . S
C1876 C1878 1.395 . S
C1876 C1879 1.403 . S
H1877 C1883 0.930 . S
C1878 H1864 0.930 . S
C1878 C1876 1.395 . S
C1878 C1881 1.403 . S
C1879 C1876 1.403 . S
C1879 C1880 1.524 . S
C1879 C1883 1.400 . S
C1880 H1865 0.960 . S
C1880 H1866 0.960 . S
C1880 H1867 0.960 . S
C1880 C1879 1.524 . S
C1881 C1878 1.403 . S
C1881 C1882 1.392 . S
C1881 C1885 1.495 . S
C1882 C1881 1.392 . S
C1882 C1883 1.385 . S
C1882 C1884 1.478 . S
C1883 H1877 0.930 . S
C1883 C1879 1.400 . S
C1883 C1882 1.385 . S
C1884 C1882 1.478 . S
C1884 C1886 1.381 1_455 S
C1884 C1890 1.383 . S
C1885 C1881 1.495 . S
C1885 H1891 0.959 . S
C1885 H1892 0.961 . S
C1885 H1893 0.960 . S
C1886 C1884 1.381 1_655 S
C1886 C1887 1.394 . S
C1886 H1894 0.930 . S
C1887 C1886 1.394 . S
C1887 C1888 1.383 . S
C1887 H1895 0.929 . S
C1888 C1887 1.383 . S
C1888 C1889 1.377 . S
C1889 H1873 0.930 . S
C1889 C1888 1.377 . S
C1889 C1890 1.379 1_655 S
C1890 H1874 0.931 . S
C1890 C1884 1.383 . S
C1890 C1889 1.379 1_455 S
H1891 C1885 0.959 . S
H1892 C1885 0.961 . S
H1893 C1885 0.960 . S
H1894 C1886 0.930 . S
H1895 C1887 0.929 . S
H1896 C1904 0.929 . S
H1897 C1906 0.930 . S
H1898 C1908 0.930 . S
H1899 C1911 0.929 . S
H1900 C1914 0.930 . S
H1901 C1916 0.960 . S
H1902 C1916 0.960 . S
H1903 C1916 0.960 . S
C1904 H1896 0.929 . S
C1904 C1905 1.377 . S
C1904 C1906 1.384 . S
C1905 C1904 1.377 . S
C1905 C1911 1.390 . S
C1906 H1897 0.930 . S
C1906 C1904 1.384 . S
C1906 C1907 1.372 . S
C1907 C1906 1.372 . S
C1907 C1908 1.400 . S
C1907 C1912 1.490 . S
C1908 H1898 0.930 . S
C1908 C1907 1.400 . S
C1908 C1911 1.386 . S
H1909 C1925 0.930 . S
H1910 C1926 0.931 . S
C1911 H1899 0.929 . S
C1911 C1905 1.390 . S
C1911 C1908 1.386 . S
C1912 C1907 1.490 . S
C1912 C1914 1.395 . S
C1912 C1915 1.403 . S
H1913 C1919 0.930 . S
C1914 H1900 0.930 . S
C1914 C1912 1.395 . S
C1914 C1917 1.403 . S
C1915 C1912 1.403 . S
C1915 C1916 1.524 . S
C1915 C1919 1.400 . S
C1916 H1901 0.960 . S
C1916 H1902 0.960 . S
C1916 H1903 0.960 . S
C1916 C1915 1.524 . S
C1917 C1914 1.403 . S
C1917 C1918 1.392 . S
C1917 C1921 1.495 . S
C1918 C1917 1.392 . S
C1918 C1919 1.385 . S
C1918 C1920 1.478 . S
C1919 H1913 0.930 . S
C1919 C1915 1.400 . S
C1919 C1918 1.385 . S
C1920 C1918 1.478 . S
C1920 C1922 1.381 1_565 S
C1920 C1926 1.383 . S
C1921 C1917 1.495 . S
C1921 H1927 0.959 . S
C1921 H1928 0.961 . S
C1921 H1929 0.960 . S
C1922 C1920 1.381 1_545 S
C1922 C1923 1.394 . S
C1922 H1930 0.930 . S
C1923 C1922 1.394 . S
C1923 C1924 1.383 . S
C1923 H1931 0.929 . S
C1924 C1923 1.383 . S
C1924 C1925 1.377 . S
C1925 H1909 0.930 . S
C1925 C1924 1.377 . S
C1925 C1926 1.379 1_545 S
C1926 H1910 0.931 . S
C1926 C1920 1.383 . S
C1926 C1925 1.379 1_565 S
H1927 C1921 0.959 . S
H1928 C1921 0.961 . S
H1929 C1921 0.960 . S
H1930 C1922 0.930 . S
H1931 C1923 0.929 . S
H1932 C1940 0.929 . S
H1933 C1942 0.930 . S
H1934 C1944 0.930 . S
H1935 C1947 0.929 . S
H1936 C1950 0.930 . S
H1937 C1952 0.960 . S
H1938 C1952 0.960 . S
H1939 C1952 0.960 . S
C1940 H1932 0.929 . S
C1940 C1941 1.377 . S
C1940 C1942 1.384 1_455 S
C1941 C1940 1.377 . S
C1941 C1947 1.390 . S
C1942 H1933 0.930 . S
C1942 C1940 1.384 1_655 S
C1942 C1943 1.372 . S
C1943 C1942 1.372 . S
C1943 C1944 1.400 . S
C1943 C1948 1.490 . S
C1944 H1934 0.930 . S
C1944 C1943 1.400 . S
C1944 C1947 1.386 1_655 S
H1945 C1961 0.930 . S
H1946 C1962 0.931 . S
C1947 H1935 0.929 . S
C1947 C1941 1.390 . S
C1947 C1944 1.386 1_455 S
C1948 C1943 1.490 . S
C1948 C1950 1.395 . S
C1948 C1951 1.403 . S
H1949 C1955 0.930 . S
C1950 H1936 0.930 . S
C1950 C1948 1.395 . S
C1950 C1953 1.403 . S
C1951 C1948 1.403 . S
C1951 C1952 1.524 . S
C1951 C1955 1.400 . S
C1952 H1937 0.960 . S
C1952 H1938 0.960 . S
C1952 H1939 0.960 . S
C1952 C1951 1.524 . S
C1953 C1950 1.403 . S
C1953 C1954 1.392 . S
C1953 C1957 1.495 . S
C1954 C1953 1.392 . S
C1954 C1955 1.385 . S
C1954 C1956 1.478 . S
C1955 H1949 0.930 . S
C1955 C1951 1.400 . S
C1955 C1954 1.385 . S
C1956 C1954 1.478 . S
C1956 C1958 1.381 . S
C1956 C1962 1.383 . S
C1957 C1953 1.495 . S
C1957 H1963 0.959 . S
C1957 H1964 0.961 . S
C1957 H1965 0.960 . S
C1958 C1956 1.381 . S
C1958 C1959 1.394 . S
C1958 H1966 0.930 . S
C1959 C1958 1.394 . S
C1959 C1960 1.383 . S
C1959 H1967 0.929 . S
C1960 C1959 1.383 . S
C1960 C1961 1.377 . S
C1961 H1945 0.930 . S
C1961 C1960 1.377 . S
C1961 C1962 1.379 . S
C1962 H1946 0.931 . S
C1962 C1956 1.383 . S
C1962 C1961 1.379 . S
H1963 C1957 0.959 . S
H1964 C1957 0.961 . S
H1965 C1957 0.960 . S
H1966 C1958 0.930 . S
H1967 C1959 0.929 . S
C537 C8 0.744 . S
C556 C470 0.738 . S
C573 C503 0.744 . S
C592 C41 0.736 . S
C609 C404 0.745 . S
C628 C74 0.746 . S
C645 C107 0.742 . S
C664 C437 0.745 . S
C681 C140 0.743 . S
C700 C338 0.745 . S
C717 C371 0.743 . S
C736 C173 0.740 . S
C753 C206 0.745 . S
C772 C272 0.745 . S
C789 C305 0.742 . S
C808 C239 0.747 . S
C825 N137 1.291 . S
C844 N5 1.298 . S
C861 N38 1.299 . S
C880 N170 1.308 . S
C897 N71 1.299 . S
C916 N203 1.277 . S
C933 N104 1.291 . S
C952 N236 1.272 . S
C969 N401 1.293 . S
C988 N269 1.286 . S
C1005 N434 1.292 . S
C1024 N302 1.278 . S
C1041 N335 1.295 . S
C1060 N467 1.277 . S
C1077 N368 1.291 . S
C1096 N500 1.272 . S
C1113 C17 1.592 . S
C1132 C479 1.578 . S
C1149 C512 1.593 . S
C1168 C50 1.603 . S
C1185 C83 1.598 . S
C1204 C413 1.596 . S
C1221 C446 1.597 . S
C1240 C116 1.582 . S
C1257 C347 1.594 . S
C1276 C149 1.577 . S
C1293 C380 1.593 . S
C1312 C182 1.603 . S
C1329 C215 1.593 . S
C1348 C281 1.577 . S
C1365 C248 1.598 . S
C1384 C314 1.577 . S
C1401 N14 1.560 . S
C1420 C391 1.613 . S
C1437 C292 1.609 . S
C1456 N47 1.555 . S
C1473 N80 1.559 . S
C1492 C325 1.617 . S
C1509 C358 1.607 . S
C1528 N113 1.575 . S
C1545 C193 1.609 . S
C1564 N146 1.555 . S
C1581 C226 1.610 . S
C1600 N179 1.579 . S
C1617 N212 1.559 . S
C1636 C259 1.617 . S
C1653 C160 1.610 . S
C1672 N245 1.566 . S
C1689 C127 1.605 . S
C1708 N278 1.584 . S
C1725 N311 1.562 . S
C1744 C28 1.608 . S
C1761 N344 1.561 . S
C1780 C61 1.613 . S
C1797 C94 1.607 . S
C1816 N377 1.577 . S
C1833 C457 1.610 . S
C1852 N410 1.541 . S
C1869 C490 1.609 . S
C1888 N443 1.586 . S
C1905 C523 1.609 . S
C1924 N476 1.541 . S
C1941 N509 1.559 . S
C1960 C424 1.592 . S
