# Generated by pormake.
# Topology sxb, (6)-cn, num edge types: 1
# Building blocks:
#     Node 0, Type 0, BuildingBlock: UKALOJ_clean_sbu_0, # of connection points: 6
#     Node 1, Type 0, BuildingBlock: UKALOJ_clean_sbu_0, # of connection points: 6
#     Node 2, Type 0, BuildingBlock: UKALOJ_clean_sbu_0, # of connection points: 6
#     Node 3, Type 0, BuildingBlock: UKALOJ_clean_sbu_0, # of connection points: 6
#     Edge 4, Type (0, 0), BuildingBlock: FUNLAD_clean_linker_1, # of connection points: 2
#     Edge 5, Type (0, 0), BuildingBlock: FUNLAD_clean_linker_1, # of connection points: 2
#     Edge 6, Type (0, 0), BuildingBlock: FUNLAD_clean_linker_1, # of connection points: 2
#     Edge 7, Type (0, 0), BuildingBlock: FUNLAD_clean_linker_1, # of connection points: 2
#     Edge 8, Type (0, 0), BuildingBlock: FUNLAD_clean_linker_1, # of connection points: 2
#     Edge 9, Type (0, 0), BuildingBlock: FUNLAD_clean_linker_1, # of connection points: 2
#     Edge 10, Type (0, 0), BuildingBlock: FUNLAD_clean_linker_1, # of connection points: 2
#     Edge 11, Type (0, 0), BuildingBlock: FUNLAD_clean_linker_1, # of connection points: 2
#     Edge 12, Type (0, 0), BuildingBlock: FUNLAD_clean_linker_1, # of connection points: 2
#     Edge 13, Type (0, 0), BuildingBlock: FUNLAD_clean_linker_1, # of connection points: 2
#     Edge 14, Type (0, 0), BuildingBlock: FUNLAD_clean_linker_1, # of connection points: 2
#     Edge 15, Type (0, 0), BuildingBlock: FUNLAD_clean_linker_1, # of connection points: 2
# Relax obj value: 0.094
# Max RMSD: 0.145
# Mean RMSD: 0.145
data_MOF--net-sxb--node1-UKALOJ_clean_sbu_0--edge1-FUNLAD_clean_linker_1
_symmetry_space_group_name_H-M    P1
_symmetry_Int_Tables_number       1
_symmetry_cell_setting            triclinic
loop_
_symmetry_equiv_pos_as_xyz
'x, y, z'
_cell_length_a     15.035687
_cell_length_b     27.743443
_cell_length_c     41.522875
_cell_angle_alpha  98.291234
_cell_angle_beta   88.889206
_cell_angle_gamma 90.082828
loop_
_atom_site_label
_atom_site_type_symbol
_atom_site_fract_x
_atom_site_fract_y
_atom_site_fract_z
_atom_type_partial_charge
Zn0 Zn 0.96858 0.03914 0.06529 0.0
O1 O 0.01963 0.97033 0.07305 0.0
C2 C 0.14495 0.06511 0.04488 0.0
Zn3 Zn -0.01449 0.01752 1.01156 0.0
C4 C 0.0457 0.93969 0.04899 0.0
O5 O 0.03731 0.94957 1.02023 0.0
C6 C 0.91013 0.1173 0.02778 0.0
O7 O 0.85763 0.98763 1.00667 0.0
O8 O 0.84057 0.01 0.05936 0.0
N9 N 0.01269 0.99875 0.96277 0.0
C10 C 0.9712 0.00757 0.93564 0.0
C11 C 0.08909 0.96737 0.92048 0.0
N12 N 0.08573 0.97373 0.95322 0.0
N13 N 0.01864 0.98856 0.90869 0.0
C14 C -0.0214 0.04915 0.14137 0.0
C15 C 0.85487 0.08438 0.15516 0.0
N16 N 0.93968 0.05824 0.11384 0.0
N17 N 0.86324 0.08048 0.12256 0.0
N18 N 0.92669 0.06553 0.16759 0.0
H19 H 0.04267 0.98089 0.1428 0.0
H20 H 0.10034 0.03207 0.16411 0.0
H21 H 0.10379 0.0213 0.12019 0.0
C22 C 0.0615 0.01943 0.14211 0.0
C23 C 0.88257 0.03233 0.93589 0.0
H24 H 0.84547 0.03082 0.95896 0.0
H25 H 0.84192 0.01505 0.91536 0.0
H26 H 0.89293 0.07124 0.93342 0.0
O27 O 0.93444 0.08621 1.00373 0.0
O28 O 0.91825 0.10742 0.05654 0.0
C29 C 0.8092 0.99121 0.03224 0.0
O30 O 0.09651 0.06834 0.07046 0.0
O31 O 0.11354 0.04699 1.01758 0.0
Zn32 Zn 0.97094 0.03371 0.56538 0.0
O33 O 0.84126 0.05994 0.5752 0.0
C34 C 0.89889 0.94184 0.53028 0.0
Zn35 Zn 0.96018 0.03717 0.51217 0.0
C36 C 0.7953 0.06788 0.55121 0.0
O37 O 0.8299 0.06234 0.52274 0.0
C38 C 0.13569 1.00259 0.52613 0.0
O39 O 0.00848 0.1098 0.51919 0.0
O40 O 0.02033 0.10598 0.57143 0.0
N41 N 0.9405 0.03942 0.46372 0.0
C42 C -0.00964 0.05532 0.43998 0.0
C43 C 0.87134 0.02568 0.41827 0.0
N44 N 0.86654 0.02111 0.45011 0.0
N45 N 0.94858 0.04697 0.41124 0.0
C46 C 0.9411 0.02217 0.63896 0.0
C47 C 0.07106 0.03808 0.65706 0.0
N48 N -0.00696 0.0311 0.61361 0.0
N49 N 0.07374 0.04083 0.62498 0.0
N50 N -0.01152 0.02646 0.66654 0.0
H51 H 0.82845 0.99177 0.61168 0.0
H52 H 0.80407 0.04261 0.64276 0.0
H53 H 0.82657 0.98375 0.65414 0.0
C54 C 0.84455 0.00901 0.63663 0.0
C55 C 0.08016 0.07853 0.44458 0.0
H56 H 0.0776 0.11575 0.43779 0.0
H57 H 0.12927 0.05728 0.42799 0.0
H58 H 0.10267 0.08078 0.46992 0.0
O59 O 0.08995 0.01126 0.50231 0.0
O60 O 0.10107 0.00785 0.55457 0.0
C61 C 0.03017 0.12947 0.54752 0.0
O62 O 0.92051 0.96152 0.55864 0.0
O63 O 0.91104 0.96482 0.50623 0.0
Zn64 Zn 0.51907 0.55259 0.06485 0.0
O65 O 0.5701 0.48276 0.06965 0.0
C66 C 0.68537 0.57082 0.0293 0.0
Zn67 Zn 0.51005 0.52957 1.01123 0.0
C68 C 0.58084 0.45036 0.04499 0.0
O69 O 0.55956 0.45961 1.01703 0.0
C70 C 0.44753 0.63167 0.03123 0.0
O71 O 0.37931 0.50645 1.01817 0.0
O72 O 0.38796 0.52927 0.07101 0.0
N73 N 0.50443 0.50795 0.96207 0.0
C74 C 0.45079 0.52032 0.93891 0.0
C75 C 0.55297 0.47479 0.91485 0.0
N76 N 0.5674 0.47931 0.94704 0.0
N77 N 0.48032 0.50039 0.90904 0.0
C78 C 0.50845 0.55249 0.1399 0.0
C79 C 0.57043 0.61987 0.15783 0.0
N80 N 0.53057 0.57433 0.11387 0.0
N81 N 0.56899 0.61623 0.12511 0.0
N82 N 0.53289 0.5802 0.16768 0.0
H83 H 0.4535 0.48628 0.11318 0.0
H84 H 0.4001 0.50785 0.15183 0.0
H85 H 0.50702 0.47938 0.15078 0.0
C86 C 0.46482 0.50361 0.13841 0.0
C87 C 0.3712 0.55297 0.94543 0.0
H88 H 0.34516 0.55323 0.97056 0.0
H89 H 0.31773 0.5408 0.92809 0.0
H90 H 0.39047 0.59058 0.94209 0.0
O91 O 0.46138 0.59988 1.00642 0.0
O92 O 0.46763 0.62224 0.05928 0.0
C93 C 0.34341 0.51172 0.04644 0.0
O94 O 0.64995 0.57589 0.05761 0.0
O95 O 0.64058 0.55304 1.0049 0.0
Zn96 Zn 0.42175 0.55044 0.56676 0.0
O97 O 0.29228 0.57726 0.56481 0.0
C98 C 0.35957 0.45551 0.53347 0.0
Zn99 Zn 0.43388 0.54719 0.51285 0.0
C100 C 0.25832 0.58289 0.53784 0.0
O101 O 0.30403 0.57386 0.51172 0.0
C102 C 0.59751 0.51498 0.54168 0.0
O103 O 0.4842 0.61912 0.51787 0.0
O104 O 0.47518 0.62214 0.57099 0.0
N105 N 0.44061 0.54082 0.46321 0.0
C106 C 0.49623 0.55857 0.4419 0.0
C107 C 0.39416 0.51951 0.41442 0.0
N108 N 0.37756 0.51639 0.44601 0.0
N109 N 0.46825 0.54592 0.41114 0.0
C110 C 0.42965 0.52771 0.6382 0.0
C111 C 0.37674 0.59315 0.66474 0.0
N112 N 0.40956 0.55739 0.61634 0.0
N113 N 0.37653 0.59798 0.63293 0.0
N114 N 0.40978 0.5493 0.6687 0.0
H115 H 0.42361 0.45081 0.63869 0.0
H116 H 0.53286 0.47632 0.64295 0.0
H117 H 0.48169 0.46776 0.60355 0.0
C118 C 0.4693 0.47782 0.62998 0.0
C119 C 0.57718 0.5886 0.45113 0.0
H120 H 0.56122 0.62755 0.45081 0.0
H121 H 0.63207 0.57834 0.43322 0.0
H122 H 0.59969 0.58385 0.4757 0.0
O123 O 0.56378 0.52086 0.51468 0.0
O124 O 0.55155 0.52354 0.56782 0.0
C125 C 0.49676 0.64194 0.54622 0.0
O126 O 0.36871 0.47911 0.56179 0.0
O127 O 0.38281 0.47494 0.50873 0.0
H128 H 0.38517 0.68319 1.0027 0.0
C129 C 0.40105 0.67721 0.02726 0.0
H130 H 0.38203 0.70177 0.07744 0.0
H131 H 0.26726 0.89142 1.00325 0.0
H132 H 0.42255 0.89473 0.98726 0.0
H133 H 0.52857 0.83255 0.99973 0.0
H134 H 0.47935 0.76619 0.02783 0.0
C135 C 0.37047 0.70865 0.05275 0.0
C136 C 0.30922 0.74918 0.04802 0.0
C137 C 0.33921 0.78807 0.03187 0.0
C138 C 0.27844 0.82463 0.02546 0.0
C139 C 0.31016 0.86258 1.0088 0.0
C140 C 0.39938 0.86506 0.99954 0.0
C141 C 0.45905 0.83007 1.00657 0.0
C142 C 0.42975 0.79198 0.02254 0.0
H143 H 0.10524 0.89032 0.07986 0.0
C144 C 0.09274 0.89515 0.05482 0.0
H145 H 0.11715 0.86861 1.00524 0.0
H146 H 0.23044 0.68063 0.08055 0.0
H147 H 0.07626 0.67879 0.0983 0.0
H148 H 0.97087 0.74211 0.08717 0.0
H149 H 0.01916 0.80768 0.05826 0.0
C150 C 0.1266 0.86299 0.03032 0.0
C151 C 0.18847 0.82342 0.03637 0.0
C152 C 0.15881 0.78497 0.05304 0.0
C153 C 0.21942 0.74805 0.05907 0.0
C154 C 0.18778 0.70992 0.07557 0.0
C155 C 0.09926 0.70833 0.08586 0.0
C156 C 0.03995 0.744 0.07961 0.0
C157 C 0.06878 0.78169 0.06318 0.0
H158 H 0.63535 0.3967 0.07371 0.0
C159 C 0.62098 0.40322 0.04913 0.0
H160 H 0.6342 0.37645 0.99899 0.0
H161 H 0.96649 0.24569 0.02249 0.0
H162 H 0.03756 0.30918 0.99678 0.0
H163 H 0.95213 0.38032 0.98519 0.0
H164 H 0.79536 0.38871 0.99962 0.0
C165 C 0.64424 0.36959 0.02377 0.0
C166 C 0.69341 0.32477 0.02875 0.0
C167 C 0.78459 0.31986 1.01949 0.0
C168 C 0.83345 0.27831 0.02559 0.0
C169 C 0.92541 0.27557 1.01746 0.0
C170 C 0.96724 0.31194 1.00286 0.0
C171 C 0.91916 0.352 0.99634 0.0
C172 C 0.82909 0.35631 1.00472 0.0
H173 H 0.86045 0.1696 0.99695 0.0
C174 C 0.86938 0.16356 0.02199 0.0
H175 H 0.84575 0.19069 0.07158 0.0
H176 H 0.51742 0.32042 0.04629 0.0
H177 H 0.44543 0.25634 0.07122 0.0
H178 H 0.53058 0.18505 0.08278 0.0
H179 H 0.68786 0.17721 0.06927 0.0
C180 C 0.84014 0.19716 0.0465 0.0
C181 C 0.7904 0.24121 0.04029 0.0
C182 C 0.69902 0.24604 0.04937 0.0
C183 C 0.65022 0.28754 0.04322 0.0
C184 C 0.55818 0.29032 0.0512 0.0
C185 C 0.51589 0.25366 0.06537 0.0
C186 C 0.56381 0.21355 0.0719 0.0
C187 C 0.65424 0.20958 0.06406 0.0
H188 H 0.08422 0.19423 0.57786 0.0
C189 C 0.07012 0.17844 0.55297 0.0
H190 H 0.0847 0.18634 0.50329 0.0
H191 H 0.13983 0.41314 0.57835 0.0
H192 H -0.01785 0.41095 0.59124 0.0
H193 H 0.89617 0.33513 0.5779 0.0
H194 H 0.96773 0.26092 0.55184 0.0
C195 C 0.09414 0.20261 0.5284 0.0
C196 C 0.14402 0.24927 0.53474 0.0
C197 C 0.10106 0.29238 0.54986 0.0
C198 C 0.15032 0.33631 0.557 0.0
C199 C 0.10581 0.37874 0.57233 0.0
C200 C 0.01517 0.37803 0.57983 0.0
C201 C 0.96678 0.33536 0.57231 0.0
C202 C 0.00881 0.29294 0.55749 0.0
H203 H 0.30954 0.38887 0.50401 0.0
C204 C 0.31916 0.40661 0.5288 0.0
H205 H 0.2974 0.40239 0.57872 0.0
H206 H 0.24619 0.17315 0.50536 0.0
H207 H 0.40384 0.17532 0.49227 0.0
H208 H 0.48991 0.25111 0.50552 0.0
H209 H 0.41857 0.32535 0.53159 0.0
C210 C 0.2911 0.38439 0.55384 0.0
C211 C 0.24182 0.3374 0.54816 0.0
C212 C 0.28495 0.29415 0.53327 0.0
C213 C 0.23571 0.25019 0.52623 0.0
C214 C 0.28026 0.20759 0.5112 0.0
C215 C 0.37082 0.20829 0.50358 0.0
C216 C 0.41926 0.25097 0.51103 0.0
C217 C 0.3773 0.29344 0.52581 0.0
H218 H 0.83596 0.87948 0.50036 0.0
C219 C 0.85238 0.89461 0.52516 0.0
H220 H 0.83347 0.88884 0.57496 0.0
H221 H 0.46737 0.7783 0.55272 0.0
H222 H 0.42055 0.85606 0.58249 0.0
H223 H 0.52775 0.92322 0.59495 0.0
H224 H 0.68221 0.91309 0.57768 0.0
C225 C 0.82172 0.87269 0.54997 0.0
C226 C 0.75917 0.83076 0.54414 0.0
C227 C 0.66929 0.83703 0.55498 0.0
C228 C 0.60766 0.79807 0.5482 0.0
C229 C 0.51762 0.80604 0.55818 0.0
C230 C 0.48968 0.85064 0.5751 0.0
C231 C 0.55002 0.88846 0.58211 0.0
C232 C 0.63867 0.88206 0.57207 0.0
H233 H 0.55829 0.70535 0.57557 0.0
C234 C 0.54336 0.68919 0.55083 0.0
H235 H 0.56278 0.69358 0.50088 0.0
H236 H 0.92856 0.80472 0.52329 0.0
H237 H -0.02443 0.72688 0.49364 0.0
H238 H 0.86762 0.66042 0.47988 0.0
H239 H 0.71258 0.67106 0.49612 0.0
C240 C 0.5744 0.71037 0.52572 0.0
C241 C 0.63637 0.75263 0.53104 0.0
C242 C 0.72602 0.74657 0.51986 0.0
C243 C 0.78789 0.78531 0.52703 0.0
C244 C 0.8782 0.77713 0.5175 0.0
C245 C 0.90622 0.73251 0.50064 0.0
C246 C 0.84546 0.6951 0.49289 0.0
C247 C 0.75642 0.7018 0.50232 0.0
H248 H 0.26649 0.0875 0.07168 0.0
C249 C 0.241 0.07253 0.048 0.0
H250 H 0.27225 0.03323 1.00156 0.0
H251 H 0.68712 0.07894 0.02501 0.0
H252 H 0.65517 0.14602 0.99566 0.0
H253 H 0.50067 0.16573 0.98333 0.0
H254 H 0.3772 0.11774 1.00002 0.0
C255 C 0.29663 0.0504 0.02491 0.0
C256 C 0.38882 0.03931 0.03279 0.0
C257 C 0.45965 0.06733 0.02255 0.0
C258 C 0.54837 0.05567 0.02943 0.0
C259 C 0.61829 0.08515 1.01972 0.0
C260 C 0.60088 0.12405 1.00298 0.0
C261 C 0.51391 0.13517 0.99607 0.0
C262 C 0.44377 0.10736 1.00576 0.0
H263 H 0.68725 0.96992 1.00541 0.0
C264 C 0.71317 0.98337 0.0293 0.0
H265 H 0.68236 0.01869 0.07692 0.0
H266 H 0.26662 0.97754 0.05547 0.0
H267 H 0.29853 0.91086 0.08522 0.0
H268 H 0.45321 0.89009 0.09654 0.0
H269 H 0.57691 0.93695 0.07879 0.0
C270 C 0.65774 1.00352 0.05316 0.0
C271 C 0.56535 0.01533 0.04596 0.0
C272 C 0.49445 0.98757 0.05646 0.0
C273 C 0.40568 0.99949 0.04981 0.0
C274 C 0.33557 0.97086 0.06032 0.0
C275 C 0.35294 0.93224 0.07734 0.0
C276 C 0.44001 0.92052 0.08368 0.0
C277 C 0.51029 0.94766 0.07335 0.0
H278 H 0.2601 0.99527 0.49722 0.0
C279 C 0.232 0.99577 0.5216 0.0
H280 H 0.25807 1.00485 0.57191 0.0
H281 H 0.66522 0.97789 0.50601 0.0
H282 H 0.62611 0.8933 0.48953 0.0
H283 H 0.47307 0.86442 0.49746 0.0
H284 H 0.35856 0.92003 0.52251 0.0
C285 C 0.28565 1.00138 0.54728 0.0
C286 C 0.37826 0.01761 0.54329 0.0
C287 C 0.4439 0.98459 0.52868 0.0
C288 C 0.53165 1.00137 0.52392 0.0
C289 C 0.59688 0.96745 0.50979 0.0
C290 C 0.5754 0.91869 0.50021 0.0
C291 C 0.48925 0.90243 0.50468 0.0
C292 C 0.42413 0.93475 0.51898 0.0
H293 H 0.67056 0.07489 0.57999 0.0
C294 C 0.69881 0.07401 0.55559 0.0
H295 H 0.67333 0.06359 0.50522 0.0
H296 H 0.26584 0.09088 0.57091 0.0
H297 H 0.30433 0.17575 0.58651 0.0
H298 H 0.45708 0.20476 0.57818 0.0
H299 H 0.57201 0.14896 0.55375 0.0
C300 C 0.6455 0.0674 0.52982 0.0
C301 C 0.5529 0.05112 0.53377 0.0
C302 C 0.4871 0.08422 0.54816 0.0
C303 C 0.39943 0.06741 0.55302 0.0
C304 C 0.33406 0.10139 0.56696 0.0
C305 C 0.35519 0.15031 0.57604 0.0
C306 C 0.44118 0.16664 0.57134 0.0
C307 C 0.50654 0.13421 0.5574 0.0
H308 H 0.80895 0.56989 1.00033 0.0
C309 C 0.78145 0.57667 0.025 0.0
H310 H 0.80895 0.58219 0.07504 0.0
H311 H 0.12117 0.43066 0.0451 0.0
H312 H 0.00892 0.38311 0.06917 0.0
H313 H 0.85776 0.41587 0.08166 0.0
H314 H 0.8184 0.49651 0.07076 0.0
C315 C 0.83584 0.57854 0.05031 0.0
C316 C 0.92821 0.56084 0.04459 0.0
C317 C 0.94993 0.5137 0.05157 0.0
C318 C 0.03664 0.49467 0.04428 0.0
C319 C 0.05654 0.44716 0.05076 0.0
C320 C -0.00736 0.41939 0.06441 0.0
C321 C 0.90755 0.43784 0.07145 0.0
C322 C 0.88594 0.48431 0.06508 0.0
H323 H 0.21893 0.51304 0.07495 0.0
C324 C 0.24709 0.50651 0.05037 0.0
H325 H 0.2212 0.502 1.00024 0.0
H326 H 0.90719 0.65249 0.02863 0.0
H327 H 0.01885 0.69951 1.00379 0.0
H328 H 0.1705 0.66711 0.99191 0.0
H329 H 0.21072 0.58723 1.00398 0.0
C330 C 0.19358 0.50541 0.02485 0.0
C331 C 0.10106 0.523 0.03027 0.0
C332 C 0.07919 0.57001 0.02309 0.0
C333 C -0.00765 0.58895 0.03024 0.0
C334 C 0.97198 0.63609 0.02316 0.0
C335 C 0.03553 0.66355 1.00906 0.0
C336 C 0.12088 0.6453 1.00235 0.0
C337 C 0.14301 0.59926 1.00939 0.0
H338 H 0.1365 0.59722 0.51251 0.0
C339 C 0.16252 0.59043 0.53571 0.0
H340 H 0.13202 0.56681 0.58087 0.0
H341 H 0.72001 0.61026 0.54844 0.0
H342 H 0.75159 0.69047 0.57753 0.0
H343 H 0.90484 0.71411 0.59302 0.0
H344 H 0.02716 0.65676 0.58058 0.0
C345 C 0.10705 0.57702 0.55841 0.0
C346 C 0.01512 0.5631 0.54966 0.0
C347 C 0.94532 0.5972 0.55678 0.0
C348 C 0.85755 0.58374 0.54745 0.0
C349 C 0.7882 0.61832 0.55513 0.0
C350 C 0.80541 0.66461 0.57173 0.0
C351 C 0.89169 0.67791 0.58047 0.0
C352 C 0.9612 0.64474 0.57313 0.0
H353 H 0.71902 0.49983 0.56692 0.0
C354 C 0.69332 0.50767 0.54392 0.0
H355 H 0.72417 0.53398 0.49967 0.0
H356 H 0.13523 0.48847 0.5333 0.0
H357 H 0.10363 0.40812 0.50446 0.0
H358 H 0.95073 0.3849 0.48818 0.0
H359 H 0.82874 0.44262 0.49994 0.0
C360 C 0.74896 0.52253 0.52179 0.0
C361 C 0.84069 0.53623 0.53098 0.0
C362 C 0.91043 0.50206 0.52398 0.0
C363 C -0.0019 0.51543 0.53348 0.0
C364 C 0.06721 0.48056 0.52633 0.0
C365 C 0.04997 0.43418 0.50988 0.0
C366 C 0.96389 0.42112 0.50071 0.0
C367 C 0.89457 0.45451 0.50763 0.0
H368 H 0.04132 0.07709 0.37798 0.0
C369 C -0.02082 0.05755 0.37988 0.0
H370 H 0.87221 0.02223 0.35408 0.0
H371 H -0.02084 0.16045 0.24444 0.0
H372 H 0.93207 0.22851 0.28464 0.0
H373 H 0.89818 0.21672 0.34135 0.0
H374 H 0.91153 0.13704 0.35829 0.0
C375 C 0.93263 0.04341 0.35283 0.0
C376 C 0.96382 0.05251 0.32002 0.0
C377 C 0.9564 0.09956 0.31071 0.0
C378 C -0.02526 0.10628 0.27789 0.0
C379 C 0.9656 0.15339 0.26902 0.0
C380 C 0.9387 0.19272 0.29184 0.0
C381 C 0.91971 0.18609 0.32378 0.0
C382 C 0.92798 0.14013 0.33322 0.0
H383 H 0.87431 0.04125 0.21163 0.0
C384 C 0.93228 0.05638 0.20062 0.0
H385 H 0.05662 0.09059 0.20969 0.0
H386 H -0.00637 0.95889 0.33063 0.0
H387 H 0.04358 0.8914 0.29051 0.0
H388 H 0.07468 0.90323 0.2336 0.0
H389 H 0.05595 0.98267 0.21645 0.0
C390 C 0.00171 0.07116 0.21929 0.0
C391 C -0.00129 0.06588 0.25444 0.0
C392 C 0.01107 0.01951 0.26415 0.0
C393 C -0.00662 0.01278 0.29696 0.0
C394 C 0.00549 0.96593 0.30595 0.0
C395 C 0.03439 0.92694 0.28319 0.0
C396 C 0.05189 0.93359 0.25115 0.0
C397 C 0.04051 0.97927 0.24159 0.0
H398 H 0.04049 0.96098 0.8575 0.0
C399 C 0.00488 0.98826 0.87438 0.0
H400 H 0.93014 0.05325 0.878 0.0
H401 H 0.0633 0.10921 0.7438 0.0
H402 H 0.10992 0.17825 0.78235 0.0
H403 H 0.09093 0.1779 0.84144 0.0
H404 H 0.02453 0.10895 0.86233 0.0
C405 C 0.95967 0.02302 0.86208 0.0
C406 C 0.96208 0.02524 0.82633 0.0
C407 C 0.00161 0.06597 0.81459 0.0
C408 C 0.01462 0.0657 0.78054 0.0
C409 C 0.05354 0.10703 0.76944 0.0
C410 C 0.08032 0.14701 0.79129 0.0
C411 C 0.06947 0.14685 0.82454 0.0
C412 C 0.03091 0.10692 0.8362 0.0
H413 H 0.8876 0.02232 0.7049 0.0
C414 C 0.95846 0.023 0.69935 0.0
H415 H 0.08776 0.02387 0.71809 0.0
H416 H 0.86542 0.94684 0.84013 0.0
H417 H 0.82012 0.87729 0.8016 0.0
H418 H 0.85511 0.87335 0.74298 0.0
H419 H 0.93349 0.9393 0.72245 0.0
C420 C 0.01691 0.02201 0.72338 0.0
C421 C -0.01034 0.02446 0.75826 0.0
C422 C 0.94634 0.98469 0.76987 0.0
C423 C 0.93034 0.98575 0.80389 0.0
C424 C 0.88291 0.9468 0.81473 0.0
C425 C 0.85592 0.90687 0.79285 0.0
C426 C 0.87532 0.90474 0.75984 0.0
C427 C 0.92007 0.94304 0.74834 0.0
H428 H 0.55864 0.58602 0.38259 0.0
C429 C 0.50388 0.56026 0.38147 0.0
H430 H 0.41511 0.51713 0.3507 0.0
H431 H 0.47962 0.67528 0.25154 0.0
H432 H 0.39219 0.72968 0.29082 0.0
H433 H 0.35291 0.7071 0.34463 0.0
H434 H 0.40094 0.63004 0.35951 0.0
C435 C 0.46846 0.54374 0.35249 0.0
C436 C 0.5007 0.56007 0.32181 0.0
C437 C 0.47288 0.60555 0.31369 0.0
C438 C 0.49525 0.61848 0.2826 0.0
C439 C 0.465 0.66367 0.27484 0.0
C440 C 0.41459 0.69525 0.29715 0.0
C441 C 0.3925 0.68254 0.32745 0.0
C442 C 0.42075 0.6382 0.33571 0.0
H443 H 0.48338 0.53773 0.20464 0.0
C444 C 0.52204 0.56946 0.20044 0.0
H445 H 0.59664 0.62945 0.22256 0.0
H446 H 0.56917 0.47184 0.33074 0.0
H447 H 0.66192 0.41875 0.29235 0.0
H448 H 0.70489 0.4423 0.23913 0.0
H449 H 0.65469 0.51876 0.22382 0.0
C450 C 0.55918 0.59702 0.22597 0.0
C451 C 0.5447 0.58571 0.25967 0.0
C452 C 0.57686 0.54148 0.26856 0.0
C453 C 0.55375 0.52838 0.29951 0.0
C454 C 0.58492 0.48354 0.30753 0.0
C455 C 0.63842 0.45282 0.28578 0.0
C456 C 0.6625 0.46605 0.25579 0.0
C457 C 0.63259 0.50988 0.2472 0.0
H458 H 0.44974 0.49408 0.69827 0.0
C459 C 0.42332 0.53065 0.69887 0.0
H460 H 0.38334 0.59518 0.7291 0.0
H461 H 0.34902 0.44253 0.83648 0.0
H462 H 0.21548 0.41445 0.80761 0.0
H463 H 0.17736 0.44406 0.75634 0.0
H464 H 0.27287 0.50168 0.73349 0.0
C465 C 0.40679 0.55794 0.7278 0.0
C466 C 0.42861 0.54014 0.75877 0.0
C467 C 0.37141 0.50701 0.77197 0.0
C468 C 0.39247 0.49068 0.80186 0.0
C469 C 0.33527 0.45681 0.81419 0.0
C470 C 0.25859 0.44028 0.7978 0.0
C471 C 0.2372 0.45689 0.7689 0.0
C472 C 0.29268 0.48987 0.75602 0.0
H473 H 0.39291 0.53357 0.8768 0.0
C474 C 0.44933 0.50945 0.87783 0.0
H475 H 0.55156 0.46928 0.8505 0.0
H476 H 0.55227 0.60355 0.73993 0.0
H477 H 0.685 0.63225 0.76902 0.0
H478 H 0.72084 0.60461 0.82114 0.0
H479 H 0.62431 0.54808 0.84447 0.0
C480 C 0.49266 0.49174 0.85002 0.0
C481 C 0.47007 0.50803 0.81861 0.0
C482 C 0.52738 0.54102 0.80531 0.0
C483 C 0.50644 0.55722 0.77541 0.0
C484 C 0.56475 0.59026 0.76268 0.0
C485 C 0.64122 0.607 0.77911 0.0
C486 C 0.66143 0.59141 0.80843 0.0
C487 C 0.60545 0.55886 0.82152 0.0
loop_
_geom_bond_atom_site_label_1
_geom_bond_atom_site_label_2
_geom_bond_distance
_geom_bond_site_symmetry_2
_ccdc_geom_bond_type
Zn0 O1 2.055 1_645 S
Zn0 O8 2.046 1_545 S
Zn0 N16 2.036 . S
Zn0 O28 2.053 . S
Zn0 O30 2.066 1_655 S
O1 Zn0 2.055 1_465 S
O1 C4 1.259 . S
C2 O30 1.256 . S
C2 O31 1.244 1_554 S
Zn3 O5 2.047 1_545 S
Zn3 O7 2.048 1_445 S
Zn3 N9 2.040 1_545 S
Zn3 O27 2.065 1_455 S
Zn3 O31 2.059 . S
C4 O1 1.259 . S
C4 O5 1.254 1_554 S
O5 Zn3 2.047 1_565 S
O5 C4 1.254 1_556 S
C6 O27 1.256 1_554 S
C6 O28 1.244 . S
O7 Zn3 2.048 1_665 S
O7 C29 1.259 1_556 S
O8 Zn0 2.046 1_565 S
O8 C29 1.254 . S
N9 Zn3 2.040 1_565 S
N9 C10 1.290 1_465 S
N9 N12 1.399 . S
C10 N9 1.290 1_645 S
C10 N13 1.367 1_655 S
C10 C23 1.481 . S
C11 N12 1.299 1_545 S
C11 N13 1.379 . S
N12 N9 1.399 . S
N12 C11 1.299 1_565 S
N13 C10 1.367 1_455 S
N13 C11 1.379 . S
C14 N16 1.298 1_455 S
C14 N18 1.367 . S
C14 C22 1.481 1_545 S
C15 N17 1.299 . S
C15 N18 1.379 1_655 S
N16 Zn0 2.036 . S
N16 C14 1.298 1_655 S
N16 N17 1.398 . S
N17 C15 1.299 . S
N17 N16 1.398 . S
N18 C14 1.367 . S
N18 C15 1.379 1_455 S
H19 C22 0.980 . S
H20 C22 0.981 . S
H21 C22 0.981 . S
C22 C14 1.481 1_565 S
C22 H19 0.980 . S
C22 H20 0.981 . S
C22 H21 0.981 . S
C23 C10 1.481 . S
C23 H24 0.980 . S
C23 H25 0.981 . S
C23 H26 0.981 . S
H24 C23 0.980 . S
H25 C23 0.981 . S
H26 C23 0.981 . S
O27 Zn3 2.065 1_655 S
O27 C6 1.256 1_556 S
O28 Zn0 2.053 . S
O28 C6 1.244 . S
C29 O7 1.259 1_554 S
C29 O8 1.254 . S
O30 Zn0 2.066 1_455 S
O30 C2 1.256 . S
O31 C2 1.244 1_556 S
O31 Zn3 2.059 . S
Zn32 O33 2.048 1_455 S
Zn32 O40 2.047 . S
Zn32 N48 2.037 . S
Zn32 O60 2.059 . S
Zn32 O62 2.065 1_445 S
O33 Zn32 2.048 1_655 S
O33 C36 1.259 . S
C34 O62 1.256 . S
C34 O63 1.244 . S
Zn35 O37 2.046 . S
Zn35 O39 2.055 1_655 S
Zn35 N41 2.036 . S
Zn35 O59 2.066 1_655 S
Zn35 O63 2.053 1_545 S
C36 O33 1.259 . S
C36 O37 1.254 . S
O37 Zn35 2.046 . S
O37 C36 1.254 . S
C38 O59 1.256 . S
C38 O60 1.244 . S
O39 Zn35 2.055 1_455 S
O39 C61 1.259 . S
O40 Zn32 2.047 . S
O40 C61 1.254 . S
N41 Zn35 2.036 . S
N41 C42 1.298 1_655 S
N41 N44 1.398 . S
C42 N41 1.298 1_455 S
C42 N45 1.367 . S
C42 C55 1.481 . S
C43 N44 1.299 1_565 S
C43 N45 1.379 1_665 S
N44 N41 1.398 . S
N44 C43 1.299 1_545 S
N45 C42 1.367 . S
N45 C43 1.379 1_445 S
C46 N48 1.298 1_655 S
C46 N50 1.367 1_655 S
C46 C54 1.481 . S
C47 N49 1.299 . S
C47 N50 1.379 . S
N48 Zn32 2.037 . S
N48 C46 1.298 1_455 S
N48 N49 1.398 . S
N49 C47 1.299 . S
N49 N48 1.398 . S
N50 C46 1.367 1_455 S
N50 C47 1.379 . S
H51 C54 0.980 . S
H52 C54 0.981 . S
H53 C54 0.981 . S
C54 C46 1.481 . S
C54 H51 0.980 . S
C54 H52 0.981 . S
C54 H53 0.981 . S
C55 C42 1.481 . S
C55 H56 0.980 . S
C55 H57 0.981 . S
C55 H58 0.981 . S
H56 C55 0.980 . S
H57 C55 0.981 . S
H58 C55 0.981 . S
O59 Zn35 2.066 1_455 S
O59 C38 1.256 . S
O60 Zn32 2.059 . S
O60 C38 1.244 . S
C61 O39 1.259 . S
C61 O40 1.254 . S
O62 Zn32 2.065 1_665 S
O62 C34 1.256 . S
O63 C34 1.244 . S
O63 Zn35 2.053 1_565 S
Zn64 O65 2.055 . S
Zn64 O72 2.046 . S
Zn64 N80 2.036 . S
Zn64 O92 2.053 . S
Zn64 O94 2.066 . S
O65 Zn64 2.055 . S
O65 C68 1.259 . S
C66 O94 1.256 . S
C66 O95 1.244 1_554 S
Zn67 O69 2.046 . S
Zn67 O71 2.055 . S
Zn67 N73 2.036 . S
Zn67 O91 2.066 . S
Zn67 O95 2.053 . S
C68 O65 1.259 . S
C68 O69 1.254 1_554 S
O69 Zn67 2.046 . S
O69 C68 1.254 1_556 S
C70 O91 1.256 1_554 S
C70 O92 1.244 . S
O71 Zn67 2.055 . S
O71 C93 1.259 1_556 S
O72 Zn64 2.046 . S
O72 C93 1.254 . S
N73 Zn67 2.036 . S
N73 C74 1.298 . S
N73 N76 1.398 . S
C74 N73 1.298 . S
C74 N77 1.367 . S
C74 C87 1.481 . S
C75 N76 1.299 . S
C75 N77 1.379 . S
N76 N73 1.398 . S
N76 C75 1.299 . S
N77 C74 1.367 . S
N77 C75 1.379 . S
C78 N80 1.298 . S
C78 N82 1.367 . S
C78 C86 1.481 . S
C79 N81 1.299 . S
C79 N82 1.379 . S
N80 Zn64 2.036 . S
N80 C78 1.298 . S
N80 N81 1.398 . S
N81 C79 1.299 . S
N81 N80 1.398 . S
N82 C78 1.367 . S
N82 C79 1.379 . S
H83 C86 0.980 . S
H84 C86 0.981 . S
H85 C86 0.981 . S
C86 C78 1.481 . S
C86 H83 0.980 . S
C86 H84 0.981 . S
C86 H85 0.981 . S
C87 C74 1.481 . S
C87 H88 0.980 . S
C87 H89 0.981 . S
C87 H90 0.981 . S
H88 C87 0.980 . S
H89 C87 0.981 . S
H90 C87 0.981 . S
O91 Zn67 2.066 . S
O91 C70 1.256 1_556 S
O92 Zn64 2.053 . S
O92 C70 1.244 . S
C93 O71 1.259 1_554 S
C93 O72 1.254 . S
O94 Zn64 2.066 . S
O94 C66 1.256 . S
O95 C66 1.244 1_556 S
O95 Zn67 2.053 . S
Zn96 O97 2.055 . S
Zn96 O104 2.046 . S
Zn96 N112 2.036 . S
Zn96 O124 2.053 . S
Zn96 O126 2.066 . S
O97 Zn96 2.055 . S
O97 C100 1.259 . S
C98 O126 1.256 . S
C98 O127 1.244 . S
Zn99 O101 2.046 . S
Zn99 O103 2.055 . S
Zn99 N105 2.036 . S
Zn99 O123 2.066 . S
Zn99 O127 2.053 . S
C100 O97 1.259 . S
C100 O101 1.254 . S
O101 Zn99 2.046 . S
O101 C100 1.254 . S
C102 O123 1.256 . S
C102 O124 1.244 . S
O103 Zn99 2.055 . S
O103 C125 1.259 . S
O104 Zn96 2.046 . S
O104 C125 1.254 . S
N105 Zn99 2.036 . S
N105 C106 1.298 . S
N105 N108 1.398 . S
C106 N105 1.298 . S
C106 N109 1.367 . S
C106 C119 1.481 . S
C107 N108 1.299 . S
C107 N109 1.379 . S
N108 N105 1.398 . S
N108 C107 1.299 . S
N109 C106 1.367 . S
N109 C107 1.379 . S
C110 N112 1.298 . S
C110 N114 1.367 . S
C110 C118 1.481 . S
C111 N113 1.299 . S
C111 N114 1.379 . S
N112 Zn96 2.036 . S
N112 C110 1.298 . S
N112 N113 1.398 . S
N113 C111 1.299 . S
N113 N112 1.398 . S
N114 C110 1.367 . S
N114 C111 1.379 . S
H115 C118 0.980 . S
H116 C118 0.981 . S
H117 C118 0.981 . S
C118 C110 1.481 . S
C118 H115 0.980 . S
C118 H116 0.981 . S
C118 H117 0.981 . S
C119 C106 1.481 . S
C119 H120 0.980 . S
C119 H121 0.981 . S
C119 H122 0.981 . S
H120 C119 0.980 . S
H121 C119 0.981 . S
H122 C119 0.981 . S
O123 Zn99 2.066 . S
O123 C102 1.256 . S
O124 Zn96 2.053 . S
O124 C102 1.244 . S
C125 O103 1.259 . S
C125 O104 1.254 . S
O126 Zn96 2.066 . S
O126 C98 1.256 . S
O127 C98 1.244 . S
O127 Zn99 2.053 . S
H128 C129 0.951 . S
C129 H128 0.951 . S
C129 C135 1.265 . S
H130 C135 0.950 . S
H131 C139 0.949 . S
H132 C140 0.950 . S
H133 C141 0.951 . S
H134 C142 0.951 . S
C135 C129 1.265 . S
C135 H130 0.950 . S
C135 C136 1.478 . S
C136 C135 1.478 . S
C136 C137 1.397 1_554 S
C136 C153 1.394 . S
C137 C136 1.397 1_556 S
C137 C138 1.438 . S
C137 C142 1.429 . S
C138 C137 1.438 . S
C138 C139 1.428 . S
C138 C151 1.394 1_556 S
C139 H131 0.949 . S
C139 C138 1.428 . S
C139 C140 1.345 . S
C140 H132 0.950 . S
C140 C139 1.345 . S
C140 C141 1.424 . S
C141 H133 0.951 . S
C141 C140 1.424 . S
C141 C142 1.347 . S
C142 H134 0.951 . S
C142 C137 1.429 . S
C142 C141 1.347 . S
H143 C144 0.951 . S
C144 H143 0.951 . S
C144 C150 1.265 . S
H145 C150 0.950 . S
H146 C154 0.949 . S
H147 C155 0.950 . S
H148 C156 0.951 . S
H149 C157 0.951 . S
C150 C144 1.265 . S
C150 H145 0.950 . S
C150 C151 1.478 . S
C151 C138 1.394 1_554 S
C151 C150 1.478 . S
C151 C152 1.397 . S
C152 C151 1.397 . S
C152 C153 1.438 . S
C152 C157 1.429 . S
C153 C136 1.394 . S
C153 C152 1.438 . S
C153 C154 1.428 . S
C154 H146 0.949 . S
C154 C153 1.428 . S
C154 C155 1.345 . S
C155 H147 0.950 . S
C155 C154 1.345 . S
C155 C156 1.424 . S
C156 H148 0.951 . S
C156 C155 1.424 . S
C156 C157 1.347 . S
C157 H149 0.951 . S
C157 C152 1.429 . S
C157 C156 1.347 . S
H158 C159 0.951 . S
C159 H158 0.951 . S
C159 C165 1.265 . S
H160 C165 0.956 . S
H161 C169 0.949 . S
H162 C170 0.950 . S
H163 C171 0.951 . S
H164 C172 0.951 . S
C165 C159 1.265 . S
C165 H160 0.956 . S
C165 C166 1.478 . S
C166 C165 1.478 . S
C166 C167 1.397 1_554 S
C166 C183 1.394 . S
C167 C166 1.397 1_556 S
C167 C168 1.438 . S
C167 C172 1.429 . S
C168 C167 1.438 . S
C168 C169 1.428 . S
C168 C181 1.394 1_556 S
C169 H161 0.949 . S
C169 C168 1.428 . S
C169 C170 1.345 . S
C170 H162 0.950 . S
C170 C169 1.345 . S
C170 C171 1.424 . S
C171 H163 0.951 . S
C171 C170 1.424 . S
C171 C172 1.347 . S
C172 H164 0.951 . S
C172 C167 1.429 . S
C172 C171 1.347 . S
H173 C174 0.951 . S
C174 H173 0.951 . S
C174 C180 1.265 . S
H175 C180 0.950 . S
H176 C184 0.949 . S
H177 C185 0.950 . S
H178 C186 0.951 . S
H179 C187 0.951 . S
C180 C174 1.265 . S
C180 H175 0.950 . S
C180 C181 1.478 . S
C181 C168 1.394 1_554 S
C181 C180 1.478 . S
C181 C182 1.397 . S
C182 C181 1.397 . S
C182 C183 1.438 . S
C182 C187 1.429 . S
C183 C166 1.394 . S
C183 C182 1.438 . S
C183 C184 1.428 . S
C184 H176 0.949 . S
C184 C183 1.428 . S
C184 C185 1.345 . S
C185 H177 0.950 . S
C185 C184 1.345 . S
C185 C186 1.424 . S
C186 H178 0.951 . S
C186 C185 1.424 . S
C186 C187 1.347 . S
C187 H179 0.951 . S
C187 C182 1.429 . S
C187 C186 1.347 . S
H188 C189 0.951 . S
C189 H188 0.951 . S
C189 C195 1.265 . S
H190 C195 0.950 . S
H191 C199 0.949 . S
H192 C200 0.950 . S
H193 C201 0.951 . S
H194 C202 0.951 . S
C195 C189 1.265 . S
C195 H190 0.950 . S
C195 C196 1.478 . S
C196 C195 1.478 . S
C196 C197 1.397 . S
C196 C213 1.394 . S
C197 C196 1.397 . S
C197 C198 1.438 . S
C197 C202 1.429 . S
C198 C197 1.438 . S
C198 C199 1.428 . S
C198 C211 1.394 . S
C199 H191 0.949 . S
C199 C198 1.428 . S
C199 C200 1.345 . S
C200 H192 0.950 . S
C200 C199 1.345 . S
C200 C201 1.424 . S
C201 H193 0.951 . S
C201 C200 1.424 . S
C201 C202 1.347 . S
C202 H194 0.951 . S
C202 C197 1.429 . S
C202 C201 1.347 . S
H203 C204 0.951 . S
C204 H203 0.951 . S
C204 C210 1.265 . S
H205 C210 0.950 . S
H206 C214 0.949 . S
H207 C215 0.950 . S
H208 C216 0.951 . S
H209 C217 0.951 . S
C210 C204 1.265 . S
C210 H205 0.950 . S
C210 C211 1.478 . S
C211 C198 1.394 . S
C211 C210 1.478 . S
C211 C212 1.397 . S
C212 C211 1.397 . S
C212 C213 1.438 . S
C212 C217 1.429 . S
C213 C196 1.394 . S
C213 C212 1.438 . S
C213 C214 1.428 . S
C214 H206 0.949 . S
C214 C213 1.428 . S
C214 C215 1.345 . S
C215 H207 0.950 . S
C215 C214 1.345 . S
C215 C216 1.424 . S
C216 H208 0.951 . S
C216 C215 1.424 . S
C216 C217 1.347 . S
C217 H209 0.951 . S
C217 C212 1.429 . S
C217 C216 1.347 . S
H218 C219 0.951 . S
C219 H218 0.951 . S
C219 C225 1.265 . S
H220 C225 0.950 . S
H221 C229 0.949 . S
H222 C230 0.950 . S
H223 C231 0.951 . S
H224 C232 0.951 . S
C225 C219 1.265 . S
C225 H220 0.950 . S
C225 C226 1.478 . S
C226 C225 1.478 . S
C226 C227 1.397 . S
C226 C243 1.394 . S
C227 C226 1.397 . S
C227 C228 1.438 . S
C227 C232 1.429 . S
C228 C227 1.438 . S
C228 C229 1.428 . S
C228 C241 1.394 . S
C229 H221 0.949 . S
C229 C228 1.428 . S
C229 C230 1.345 . S
C230 H222 0.950 . S
C230 C229 1.345 . S
C230 C231 1.424 . S
C231 H223 0.951 . S
C231 C230 1.424 . S
C231 C232 1.347 . S
C232 H224 0.951 . S
C232 C227 1.429 . S
C232 C231 1.347 . S
H233 C234 0.951 . S
C234 H233 0.951 . S
C234 C240 1.265 . S
H235 C240 0.950 . S
H236 C244 0.949 . S
H237 C245 0.950 . S
H238 C246 0.951 . S
H239 C247 0.951 . S
C240 C234 1.265 . S
C240 H235 0.950 . S
C240 C241 1.478 . S
C241 C228 1.394 . S
C241 C240 1.478 . S
C241 C242 1.397 . S
C242 C241 1.397 . S
C242 C243 1.438 . S
C242 C247 1.429 . S
C243 C226 1.394 . S
C243 C242 1.438 . S
C243 C244 1.428 . S
C244 H236 0.949 . S
C244 C243 1.428 . S
C244 C245 1.345 . S
C245 H237 0.950 . S
C245 C244 1.345 . S
C245 C246 1.424 . S
C246 H238 0.951 . S
C246 C245 1.424 . S
C246 C247 1.347 . S
C247 H239 0.951 . S
C247 C242 1.429 . S
C247 C246 1.347 . S
H248 C249 0.951 . S
C249 H248 0.951 . S
C249 C255 1.265 . S
H250 C255 0.950 1_565 S
H251 C259 0.949 . S
H252 C260 0.950 . S
H253 C261 0.952 1_565 S
H254 C262 0.951 . S
C255 C249 1.265 . S
C255 H250 0.950 1_545 S
C255 C256 1.478 . S
C256 C255 1.478 . S
C256 C257 1.397 1_554 S
C256 C273 1.394 . S
C257 C256 1.397 1_556 S
C257 C258 1.438 . S
C257 C262 1.429 . S
C258 C257 1.438 . S
C258 C259 1.428 . S
C258 C271 1.394 1_556 S
C259 H251 0.949 . S
C259 C258 1.428 . S
C259 C260 1.345 . S
C260 H252 0.950 . S
C260 C259 1.345 . S
C260 C261 1.424 . S
C261 H253 0.952 1_545 S
C261 C260 1.424 . S
C261 C262 1.347 . S
C262 H254 0.951 . S
C262 C257 1.429 . S
C262 C261 1.347 . S
H263 C264 0.951 1_556 S
C264 H263 0.951 1_554 S
C264 C270 1.265 1_565 S
H265 C270 0.950 . S
H266 C274 0.949 . S
H267 C275 0.950 . S
H268 C276 0.951 . S
H269 C277 0.951 . S
C270 C264 1.265 1_545 S
C270 H265 0.950 . S
C270 C271 1.478 . S
C271 C258 1.394 1_554 S
C271 C270 1.478 . S
C271 C272 1.397 . S
C272 C271 1.397 . S
C272 C273 1.438 . S
C272 C277 1.429 . S
C273 C256 1.394 . S
C273 C272 1.438 . S
C273 C274 1.428 . S
C274 H266 0.949 . S
C274 C273 1.428 . S
C274 C275 1.345 . S
C275 H267 0.950 . S
C275 C274 1.345 . S
C275 C276 1.424 . S
C276 H268 0.951 . S
C276 C275 1.424 . S
C276 C277 1.347 . S
C277 H269 0.951 . S
C277 C272 1.429 . S
C277 C276 1.347 . S
H278 C279 0.951 . S
C279 H278 0.951 . S
C279 C285 1.265 . S
H280 C285 0.950 . S
H281 C289 0.949 . S
H282 C290 0.950 . S
H283 C291 0.951 . S
H284 C292 0.951 . S
C285 C279 1.265 . S
C285 H280 0.950 . S
C285 C286 1.478 . S
C286 C285 1.478 . S
C286 C287 1.397 . S
C286 C303 1.394 . S
C287 C286 1.397 . S
C287 C288 1.438 . S
C287 C292 1.429 1_545 S
C288 C287 1.438 . S
C288 C289 1.428 1_545 S
C288 C301 1.394 . S
C289 H281 0.949 . S
C289 C288 1.428 1_565 S
C289 C290 1.345 . S
C290 H282 0.950 . S
C290 C289 1.345 . S
C290 C291 1.424 . S
C291 H283 0.951 . S
C291 C290 1.424 . S
C291 C292 1.347 . S
C292 H284 0.951 . S
C292 C287 1.429 1_565 S
C292 C291 1.347 . S
H293 C294 0.951 . S
C294 H293 0.951 . S
C294 C300 1.265 . S
H295 C300 0.950 . S
H296 C304 0.949 . S
H297 C305 0.950 . S
H298 C306 0.951 . S
H299 C307 0.951 . S
C300 C294 1.265 . S
C300 H295 0.950 . S
C300 C301 1.478 . S
C301 C288 1.394 . S
C301 C300 1.478 . S
C301 C302 1.397 . S
C302 C301 1.397 . S
C302 C303 1.438 . S
C302 C307 1.429 . S
C303 C286 1.394 . S
C303 C302 1.438 . S
C303 C304 1.428 . S
C304 H296 0.949 . S
C304 C303 1.428 . S
C304 C305 1.345 . S
C305 H297 0.950 . S
C305 C304 1.345 . S
C305 C306 1.424 . S
C306 H298 0.951 . S
C306 C305 1.424 . S
C306 C307 1.347 . S
C307 H299 0.951 . S
C307 C302 1.429 . S
C307 C306 1.347 . S
H308 C309 0.958 . S
C309 H308 0.958 . S
C309 C315 1.265 . S
H310 C315 0.950 . S
H311 C319 0.949 . S
H312 C320 0.950 . S
H313 C321 0.951 . S
H314 C322 0.951 . S
C315 C309 1.265 . S
C315 H310 0.950 . S
C315 C316 1.478 . S
C316 C315 1.478 . S
C316 C317 1.397 . S
C316 C333 1.394 . S
C317 C316 1.397 . S
C317 C318 1.438 1_655 S
C317 C322 1.429 . S
C318 C317 1.438 1_455 S
C318 C319 1.428 . S
C318 C331 1.394 . S
C319 H311 0.949 . S
C319 C318 1.428 . S
C319 C320 1.345 . S
C320 H312 0.950 . S
C320 C319 1.345 . S
C320 C321 1.424 1_455 S
C321 H313 0.951 . S
C321 C320 1.424 1_655 S
C321 C322 1.347 . S
C322 H314 0.951 . S
C322 C317 1.429 . S
C322 C321 1.347 . S
H323 C324 0.951 . S
C324 H323 0.951 . S
C324 C330 1.272 . S
H325 C330 0.939 1_556 S
H326 C334 0.949 . S
H327 C335 0.950 . S
H328 C336 0.951 . S
H329 C337 0.951 . S
C330 C324 1.272 . S
C330 H325 0.939 1_554 S
C330 C331 1.481 . S
C331 C318 1.394 . S
C331 C330 1.481 . S
C331 C332 1.397 1_554 S
C332 C331 1.397 1_556 S
C332 C333 1.438 1_456 S
C332 C337 1.429 . S
C333 C316 1.394 . S
C333 C332 1.438 1_654 S
C333 C334 1.428 1_554 S
C334 H326 0.949 . S
C334 C333 1.428 1_556 S
C334 C335 1.345 . S
C335 H327 0.950 . S
C335 C334 1.345 . S
C335 C336 1.424 1_655 S
C336 H328 0.951 . S
C336 C335 1.424 1_455 S
C336 C337 1.347 . S
C337 H329 0.951 . S
C337 C332 1.429 . S
C337 C336 1.347 . S
H338 C339 0.951 . S
C339 H338 0.951 . S
C339 C345 1.265 . S
H340 C345 0.950 . S
H341 C349 0.949 . S
H342 C350 0.950 . S
H343 C351 0.953 . S
H344 C352 0.951 . S
C345 C339 1.265 . S
C345 H340 0.950 . S
C345 C346 1.478 . S
C346 C345 1.478 . S
C346 C347 1.397 . S
C346 C363 1.394 . S
C347 C346 1.397 . S
C347 C348 1.438 1_455 S
C347 C352 1.429 . S
C348 C347 1.438 1_655 S
C348 C349 1.428 . S
C348 C361 1.394 . S
C349 H341 0.949 . S
C349 C348 1.428 . S
C349 C350 1.345 . S
C350 H342 0.950 . S
C350 C349 1.345 . S
C350 C351 1.417 1_655 S
C351 H343 0.953 . S
C351 C350 1.417 1_455 S
C351 C352 1.352 . S
C352 H344 0.951 . S
C352 C347 1.429 . S
C352 C351 1.352 . S
H353 C354 0.951 . S
C354 H353 0.951 . S
C354 C360 1.265 . S
H355 C360 0.950 . S
H356 C364 0.949 . S
H357 C365 0.950 . S
H358 C366 0.951 . S
H359 C367 0.951 . S
C360 C354 1.265 . S
C360 H355 0.950 . S
C360 C361 1.478 . S
C361 C348 1.394 . S
C361 C360 1.478 . S
C361 C362 1.397 . S
C362 C361 1.397 . S
C362 C363 1.438 1_655 S
C362 C367 1.429 . S
C363 C346 1.394 . S
C363 C362 1.438 1_455 S
C363 C364 1.428 . S
C364 H356 0.949 . S
C364 C363 1.428 . S
C364 C365 1.345 . S
C365 H357 0.950 . S
C365 C364 1.345 . S
C365 C366 1.424 1_455 S
C366 H358 0.951 . S
C366 C365 1.424 1_655 S
C366 C367 1.347 . S
C367 H359 0.951 . S
C367 C362 1.429 . S
C367 C366 1.347 . S
H368 C369 0.951 . S
C369 H368 0.951 . S
C369 C375 1.265 . S
H370 C375 0.950 1_655 S
H371 C379 0.949 . S
H372 C380 0.950 . S
H373 C381 0.951 . S
H374 C382 0.951 . S
C375 C369 1.265 . S
C375 H370 0.950 1_455 S
C375 C376 1.478 . S
C376 C375 1.478 . S
C376 C377 1.397 . S
C376 C393 1.394 1_545 S
C377 C376 1.397 . S
C377 C378 1.438 . S
C377 C382 1.429 1_455 S
C378 C377 1.438 . S
C378 C379 1.428 . S
C378 C391 1.394 . S
C379 H371 0.949 . S
C379 C378 1.428 . S
C379 C380 1.345 1_455 S
C380 H372 0.950 . S
C380 C379 1.345 1_655 S
C380 C381 1.424 . S
C381 H373 0.951 . S
C381 C380 1.424 . S
C381 C382 1.347 . S
C382 H374 0.951 . S
C382 C377 1.429 1_655 S
C382 C381 1.347 . S
H383 C384 0.951 1_655 S
C384 H383 0.951 1_455 S
C384 C390 1.265 . S
H385 C390 0.950 . S
H386 C394 0.949 . S
H387 C395 0.950 . S
H388 C396 0.951 . S
H389 C397 0.951 . S
C390 C384 1.265 . S
C390 H385 0.950 . S
C390 C391 1.478 . S
C391 C378 1.394 . S
C391 C390 1.478 . S
C391 C392 1.397 1_545 S
C392 C391 1.397 1_565 S
C392 C393 1.438 . S
C392 C397 1.429 . S
C393 C376 1.394 1_565 S
C393 C392 1.438 . S
C393 C394 1.428 . S
C394 H386 0.949 . S
C394 C393 1.428 . S
C394 C395 1.345 . S
C395 H387 0.950 . S
C395 C394 1.345 . S
C395 C396 1.424 . S
C396 H388 0.951 . S
C396 C395 1.424 . S
C396 C397 1.347 . S
C397 H389 0.951 . S
C397 C392 1.429 . S
C397 C396 1.347 . S
H398 C399 0.949 1_455 S
C399 H398 0.949 1_655 S
C399 C405 1.266 . S
H400 C405 0.950 . S
H401 C409 0.949 . S
H402 C410 0.950 . S
H403 C411 0.951 . S
H404 C412 0.951 . S
C405 C399 1.266 . S
C405 H400 0.950 . S
C405 C406 1.478 . S
C406 C405 1.478 . S
C406 C407 1.397 . S
C406 C423 1.394 1_645 S
C407 C406 1.397 . S
C407 C408 1.438 . S
C407 C412 1.429 . S
C408 C407 1.438 . S
C408 C409 1.428 . S
C408 C421 1.394 1_655 S
C409 H401 0.949 . S
C409 C408 1.428 . S
C409 C410 1.345 . S
C410 H402 0.950 . S
C410 C409 1.345 . S
C410 C411 1.424 . S
C411 H403 0.951 . S
C411 C410 1.424 . S
C411 C412 1.347 . S
C412 H404 0.951 . S
C412 C407 1.429 . S
C412 C411 1.347 . S
H413 C414 0.951 . S
C414 H413 0.951 . S
C414 C420 1.265 1_655 S
H415 C420 0.950 . S
H416 C424 0.949 . S
H417 C425 0.950 . S
H418 C426 0.951 . S
H419 C427 0.951 . S
C420 C414 1.265 1_455 S
C420 H415 0.950 . S
C420 C421 1.478 . S
C421 C408 1.394 1_455 S
C421 C420 1.478 . S
C421 C422 1.397 1_545 S
C422 C421 1.397 1_565 S
C422 C423 1.438 . S
C422 C427 1.429 . S
C423 C406 1.394 1_465 S
C423 C422 1.438 . S
C423 C424 1.428 . S
C424 H416 0.949 . S
C424 C423 1.428 . S
C424 C425 1.345 . S
C425 H417 0.950 . S
C425 C424 1.345 . S
C425 C426 1.424 . S
C426 H418 0.951 . S
C426 C425 1.424 . S
C426 C427 1.347 . S
C427 H419 0.951 . S
C427 C422 1.429 . S
C427 C426 1.347 . S
H428 C429 0.951 . S
C429 H428 0.951 . S
C429 C435 1.265 . S
H430 C435 0.950 . S
H431 C439 0.949 . S
H432 C440 0.950 . S
H433 C441 0.951 . S
H434 C442 0.951 . S
C435 C429 1.265 . S
C435 H430 0.950 . S
C435 C436 1.478 . S
C436 C435 1.478 . S
C436 C437 1.397 . S
C436 C453 1.394 . S
C437 C436 1.397 . S
C437 C438 1.438 . S
C437 C442 1.429 . S
C438 C437 1.438 . S
C438 C439 1.428 . S
C438 C451 1.394 . S
C439 H431 0.949 . S
C439 C438 1.428 . S
C439 C440 1.345 . S
C440 H432 0.950 . S
C440 C439 1.345 . S
C440 C441 1.424 . S
C441 H433 0.951 . S
C441 C440 1.424 . S
C441 C442 1.347 . S
C442 H434 0.951 . S
C442 C437 1.429 . S
C442 C441 1.347 . S
H443 C444 0.951 . S
C444 H443 0.951 . S
C444 C450 1.265 . S
H445 C450 0.950 . S
H446 C454 0.949 . S
H447 C455 0.950 . S
H448 C456 0.951 . S
H449 C457 0.951 . S
C450 C444 1.265 . S
C450 H445 0.950 . S
C450 C451 1.478 . S
C451 C438 1.394 . S
C451 C450 1.478 . S
C451 C452 1.397 . S
C452 C451 1.397 . S
C452 C453 1.438 . S
C452 C457 1.429 . S
C453 C436 1.394 . S
C453 C452 1.438 . S
C453 C454 1.428 . S
C454 H446 0.949 . S
C454 C453 1.428 . S
C454 C455 1.345 . S
C455 H447 0.950 . S
C455 C454 1.345 . S
C455 C456 1.424 . S
C456 H448 0.951 . S
C456 C455 1.424 . S
C456 C457 1.347 . S
C457 H449 0.951 . S
C457 C452 1.429 . S
C457 C456 1.347 . S
H458 C459 0.951 . S
C459 H458 0.951 . S
C459 C465 1.265 . S
H460 C465 0.950 . S
H461 C469 0.949 . S
H462 C470 0.950 . S
H463 C471 0.951 . S
H464 C472 0.951 . S
C465 C459 1.265 . S
C465 H460 0.950 . S
C465 C466 1.478 . S
C466 C465 1.478 . S
C466 C467 1.397 . S
C466 C483 1.394 . S
C467 C466 1.397 . S
C467 C468 1.438 . S
C467 C472 1.429 . S
C468 C467 1.438 . S
C468 C469 1.428 . S
C468 C481 1.394 . S
C469 H461 0.949 . S
C469 C468 1.428 . S
C469 C470 1.345 . S
C470 H462 0.950 . S
C470 C469 1.345 . S
C470 C471 1.424 . S
C471 H463 0.951 . S
C471 C470 1.424 . S
C471 C472 1.347 . S
C472 H464 0.951 . S
C472 C467 1.429 . S
C472 C471 1.347 . S
H473 C474 0.951 . S
C474 H473 0.951 . S
C474 C480 1.265 . S
H475 C480 0.950 . S
H476 C484 0.949 . S
H477 C485 0.950 . S
H478 C486 0.951 . S
H479 C487 0.951 . S
C480 C474 1.265 . S
C480 H475 0.950 . S
C480 C481 1.478 . S
C481 C468 1.394 . S
C481 C480 1.478 . S
C481 C482 1.397 . S
C482 C481 1.397 . S
C482 C483 1.438 . S
C482 C487 1.429 . S
C483 C466 1.394 . S
C483 C482 1.438 . S
C483 C484 1.428 . S
C484 H476 0.949 . S
C484 C483 1.428 . S
C484 C485 1.345 . S
C485 H477 0.950 . S
C485 C484 1.345 . S
C485 C486 1.424 . S
C486 H478 0.951 . S
C486 C485 1.424 . S
C486 C487 1.347 . S
C487 H479 0.951 . S
C487 C482 1.429 . S
C487 C486 1.347 . S
C129 C70 1.531 . S
C144 C4 1.547 . S
C159 C68 1.547 . S
C174 C6 1.531 . S
C189 C61 1.547 . S
C204 C98 1.531 . S
C219 C34 1.532 . S
C234 C125 1.547 . S
C249 C2 0.922 . S
C264 C29 0.913 . S
C279 C38 0.876 . S
C294 C36 0.890 . S
C309 C66 0.857 . S
C324 C93 0.861 . S
C339 C100 0.861 . S
C354 C102 0.847 . S
C369 N45 1.510 . S
C384 N18 1.423 . S
C399 N13 1.409 1_655 S
C414 N50 1.479 1_655 S
C429 N109 1.510 . S
C444 N82 1.423 . S
C459 N114 1.423 . S
C474 N77 1.487 . S
