# Generated by pormake.
# Topology kag, (6)-cn, num edge types: 1
# Building blocks:
#     Node 0, Type 0, BuildingBlock: LEVNOQ01_clean_sbu_1, # of connection points: 6
#     Node 1, Type 0, BuildingBlock: LEVNOQ01_clean_sbu_1, # of connection points: 6
#     Node 2, Type 0, BuildingBlock: LEVNOQ01_clean_sbu_1, # of connection points: 6
#     Edge 3, Type (0, 0), BuildingBlock: MIFKUJ_clean_linker_0, # of connection points: 2
#     Edge 4, Type (0, 0), BuildingBlock: MIFKUJ_clean_linker_0, # of connection points: 2
#     Edge 5, Type (0, 0), BuildingBlock: MIFKUJ_clean_linker_0, # of connection points: 2
#     Edge 6, Type (0, 0), BuildingBlock: MIFKUJ_clean_linker_0, # of connection points: 2
#     Edge 7, Type (0, 0), BuildingBlock: MIFKUJ_clean_linker_0, # of connection points: 2
#     Edge 8, Type (0, 0), BuildingBlock: MIFKUJ_clean_linker_0, # of connection points: 2
#     Edge 9, Type (0, 0), BuildingBlock: MIFKUJ_clean_linker_0, # of connection points: 2
#     Edge 10, Type (0, 0), BuildingBlock: MIFKUJ_clean_linker_0, # of connection points: 2
#     Edge 11, Type (0, 0), BuildingBlock: MIFKUJ_clean_linker_0, # of connection points: 2
# Relax obj value: 0.108
# Max RMSD: 0.157
# Mean RMSD: 0.150
data_MOF--net-kag--node1-LEVNOQ01_clean_sbu_1--edge1-MIFKUJ_clean_linker_0
_symmetry_space_group_name_H-M    P1
_symmetry_Int_Tables_number       1
_symmetry_cell_setting            triclinic
loop_
_symmetry_equiv_pos_as_xyz
'x, y, z'
_cell_length_a     39.736258
_cell_length_b     39.155856
_cell_length_c     20.121118
_cell_angle_alpha  90.636014
_cell_angle_beta   101.57615
_cell_angle_gamma 119.3329
loop_
_atom_site_label
_atom_site_type_symbol
_atom_site_fract_x
_atom_site_fract_y
_atom_site_fract_z
_atom_type_partial_charge
O0 O 0.98201 0.40398 0.00705 0.0
Mg1 Mg 0.97164 0.44861 0.96506 0.0
O2 O 0.98016 0.44178 0.08257 0.0
Mg3 Mg 0.02434 0.50182 0.04396 0.0
O4 O 0.01182 0.48973 0.92043 0.0
O5 O 0.95801 0.43335 0.86432 0.0
O6 O 0.06952 0.56521 0.02454 0.0
O7 O 0.06742 0.47838 0.04218 0.0
Mg8 Mg 0.10157 0.54161 0.16944 0.0
O9 O 0.04217 0.51893 0.15898 0.0
O10 O 0.11918 0.59204 0.11794 0.0
O11 O 0.11326 0.49692 0.13914 0.0
O12 O 0.08516 0.54353 0.25991 0.0
C13 C 0.94247 0.49926 0.01462 0.0
C14 C 0.97431 0.408 0.06308 0.0
C15 C -0.01014 0.46606 0.86395 0.0
C16 C 0.1017 0.59461 0.05962 0.0
C17 C 0.09624 0.47694 0.08036 0.0
C18 C 0.04906 0.52751 0.22418 0.0
O19 O 0.93003 0.46459 0.98684 0.0
O20 O 0.97939 0.52232 0.03936 0.0
O21 O 0.55718 0.91942 0.94961 0.0
Mg22 Mg 0.50493 0.91792 0.89613 0.0
O23 O 0.55535 0.95339 0.03533 0.0
Mg24 Mg 0.52812 0.99254 0.99603 0.0
O25 O 0.51398 0.97254 0.88215 0.0
O26 O 0.49809 0.9276 0.79533 0.0
O27 O 0.50183 0.03176 0.96413 0.0
O28 O 0.5885 0.03898 0.96499 0.0
Mg29 Mg 0.57709 0.04916 0.06949 0.0
O30 O 0.53713 0.01012 0.11803 0.0
O31 O 0.55896 0.08495 0.00869 0.0
O32 O 0.62706 0.04386 0.06063 0.0
O33 O 0.58863 0.06973 0.16712 0.0
C34 C 0.44236 0.90777 0.97473 0.0
C35 C 0.56717 0.93163 0.01272 0.0
C36 C 0.50609 0.96248 0.81711 0.0
C37 C 0.5236 0.0691 0.97274 0.0
C38 C 0.62336 0.04968 -0.00094 0.0
C39 C 0.55825 0.03666 0.17169 0.0
O40 O 0.45318 0.89181 0.93458 0.0
O41 O 0.46506 0.94339 0.00379 0.0
O42 O 0.41963 0.42892 0.95176 0.0
Mg43 Mg 0.46211 0.48861 0.94801 0.0
O44 O 0.45184 0.46341 0.04976 0.0
Mg45 Mg 0.51485 0.48638 0.0191 0.0
O46 O 0.5033 0.49532 0.89762 0.0
O47 O 0.44873 0.49898 0.85247 0.0
O48 O 0.5788 0.51045 0.00205 0.0
O49 O 0.49458 0.42087 0.98098 0.0
Mg50 Mg 0.56039 0.45182 0.1163 0.0
O51 O 0.53439 0.4835 0.13417 0.0
O52 O 0.61022 0.48902 0.07916 0.0
O53 O 0.52003 0.39607 0.06115 0.0
O54 O 0.56327 0.46236 0.2172 0.0
C55 C 0.50845 0.56145 0.04766 0.0
C56 C 0.41891 0.43733 0.01155 0.0
C57 C 0.48079 0.50001 0.84591 0.0
C58 C 0.60997 0.50952 0.03096 0.0
C59 C 0.49761 0.39196 0.00366 0.0
C60 C 0.54535 0.48193 0.19881 0.0
O61 O 0.47307 0.53894 0.01361 0.0
O62 O 0.53344 0.54984 0.05245 0.0
H63 H 0.97445 0.41442 0.75705 0.0
H64 H 0.98083 0.42785 0.64114 0.0
H65 H 0.03405 0.55265 0.70437 0.0
H66 H 0.02788 0.53921 0.82193 0.0
H67 H 0.96959 0.52434 0.59421 0.0
H68 H 0.08954 0.52155 0.65172 0.0
H69 H 0.13641 0.49863 0.69689 0.0
H70 H 0.0645 0.39137 0.55748 0.0
H71 H 0.01692 0.41344 0.51196 0.0
H72 H 0.04163 0.58107 0.29468 0.0
H73 H 0.01485 0.56858 0.3961 0.0
H74 H 0.96198 0.44318 0.33983 0.0
H75 H -0.01108 0.45589 0.23773 0.0
H76 H 0.02608 0.47371 0.4476 0.0
H77 H 0.90432 0.478 0.39472 0.0
H78 H 0.86011 0.50409 0.35184 0.0
H79 H 0.94076 0.61383 0.48111 0.0
H80 H 0.98541 0.58814 0.52566 0.0
C81 C -0.01181 0.44483 0.74661 0.0
C82 C 0.00028 0.4758 0.79797 0.0
C83 C -0.00795 0.45246 0.68046 0.0
C84 C 0.00787 0.4912 0.66427 0.0
C85 C 0.02176 0.52254 0.71613 0.0
C86 C 0.0184 0.5149 0.78304 0.0
C87 C 0.00573 0.49774 0.59179 0.0
C88 C 0.98254 0.51396 0.56219 0.0
C89 C 0.02169 0.48314 0.55001 0.0
C90 C 0.0494 0.46899 0.57898 0.0
C91 C 0.08342 0.49284 0.63131 0.0
C92 C 0.11021 0.48007 0.65679 0.0
C93 C 0.10338 0.44352 0.63022 0.0
C94 C 0.06973 0.41965 0.5781 0.0
C95 C 0.04285 0.4323 0.5524 0.0
C96 C 0.02211 0.55079 0.30176 0.0
C97 C 0.01768 0.51941 0.25957 0.0
C98 C 0.00668 0.54362 0.35975 0.0
C99 C -0.01286 0.50499 0.37629 0.0
C100 C 0.9772 0.47324 0.32805 0.0
C101 C -0.00756 0.48046 0.26959 0.0
C102 C -0.01097 0.4994 0.44928 0.0
C103 C 0.01272 0.48373 0.4793 0.0
C104 C 0.97411 0.51511 0.49139 0.0
C105 C 0.94835 0.53131 0.46285 0.0
C106 C 0.91284 0.50785 0.41342 0.0
C107 C 0.8876 0.52252 0.38904 0.0
C108 C 0.89764 0.5607 0.41322 0.0
C109 C 0.933 0.58428 0.46226 0.0
C110 C 0.95821 0.56962 0.48734 0.0
H111 H 0.87798 0.57193 0.39416 0.0
H112 H 0.12422 0.43373 0.64989 0.0
H113 H 0.60856 0.07383 0.29433 0.0
H114 H 0.59404 0.06757 0.40652 0.0
H115 H 0.47248 0.9786 0.31662 0.0
H116 H 0.48695 0.98476 0.20231 0.0
H117 H 0.47992 0.03698 0.41234 0.0
H118 H 0.52845 0.94858 0.40302 0.0
H119 H 0.5721 0.92317 0.38464 0.0
H120 H 0.66848 0.01438 0.53667 0.0
H121 H 0.62557 0.04076 0.55525 0.0
H122 H 0.4436 0.94606 0.71443 0.0
H123 H 0.44779 0.97427 0.60709 0.0
H124 H 0.5692 0.06396 0.69657 0.0
H125 H 0.56475 0.03568 0.80491 0.0
H126 H 0.56028 0.00784 0.60006 0.0
H127 H 0.50469 0.09185 0.61291 0.0
H128 H 0.45515 0.10865 0.63394 0.0
H129 H 0.36497 0.01525 0.47819 0.0
H130 H 0.41389 -0.00229 0.4565 0.0
C131 C 0.57866 0.0528 0.29803 0.0
C132 C 0.54878 0.02991 0.23936 0.0
C133 C 0.57048 0.0492 0.36239 0.0
C134 C 0.53225 0.02267 0.36985 0.0
C135 C 0.50219 -0.00064 0.31166 0.0
C136 C 0.51051 0.00268 0.24668 0.0
C137 C 0.52452 0.02005 0.43907 0.0
C138 C 0.49707 0.03014 0.45341 0.0
C139 C 0.54743 0.01178 0.49262 0.0
C140 C 0.57389 -0.00303 0.47986 0.0
C141 C 0.55911 0.96358 0.43186 0.0
C142 C 0.58367 0.94889 0.42161 0.0
C143 C 0.62306 0.96719 0.45934 0.0
C144 C 0.63798 0.00027 0.50737 0.0
C145 C 0.61354 0.01511 0.51778 0.0
C146 C 0.47044 0.9731 0.71215 0.0
C147 C 0.50409 0.9885 0.76684 0.0
C148 C 0.47276 0.98937 0.65091 0.0
C149 C 0.50897 0.02085 0.64357 0.0
C150 C 0.54099 0.0396 0.70136 0.0
C151 C 0.53848 0.02352 0.76315 0.0
C152 C 0.51635 0.02567 0.57418 0.0
C153 C 0.54356 0.01544 0.55946 0.0
C154 C 0.49247 0.0328 0.5205 0.0
C155 C 0.46297 0.04335 0.53331 0.0
C156 C 0.47424 0.07473 0.58343 0.0
C157 C 0.44628 0.08444 0.59536 0.0
C158 C 0.40693 0.063 0.55748 0.0
C159 C 0.39548 0.03187 0.50744 0.0
C160 C 0.42334 0.0221 0.49517 0.0
H161 H 0.38532 0.07054 0.56684 0.0
H162 H 0.64198 0.95568 0.45148 0.0
H163 H 0.43296 0.49765 0.72703 0.0
H164 H 0.4473 0.50753 0.61496 0.0
H165 H 0.56486 0.52642 0.69721 0.0
H166 H 0.55068 0.51643 0.81144 0.0
H167 H 0.56087 0.58156 0.60341 0.0
H168 H 0.50404 0.44279 0.61233 0.0
H169 H 0.45601 0.37636 0.63362 0.0
H170 H 0.36224 0.37913 0.48873 0.0
H171 H 0.4097 0.4458 0.46706 0.0
H172 H 0.60218 0.52579 0.31036 0.0
H173 H 0.59287 0.54687 0.41566 0.0
H174 H 0.4714 0.51031 0.31607 0.0
H175 H 0.48082 0.48854 0.20947 0.0
H176 H 0.47567 0.4696 0.41811 0.0
H177 H 0.53909 0.60815 0.39962 0.0
H178 H 0.59114 0.67232 0.37767 0.0
H179 H 0.6775 0.6681 0.53895 0.0
H180 H 0.62608 0.60382 0.56165 0.0
C181 C 0.46204 0.50406 0.7219 0.0
C182 C 0.4907 0.50615 0.77835 0.0
C183 C 0.47012 0.50972 0.65756 0.0
C184 C 0.50704 0.51763 0.64785 0.0
C185 C 0.5362 0.52047 0.70398 0.0
C186 C 0.52798 0.51448 0.76891 0.0
C187 C 0.51374 0.52097 0.57791 0.0
C188 C 0.54264 0.55708 0.56278 0.0
C189 C 0.48917 0.48926 0.52493 0.0
C190 C 0.46033 0.44948 0.53871 0.0
C191 C 0.47309 0.42942 0.58558 0.0
C192 C 0.446 0.39167 0.59755 0.0
C193 C 0.40607 0.37359 0.56272 0.0
C194 C 0.39317 0.39321 0.51576 0.0
C195 C 0.42015 0.43096 0.50355 0.0
C196 C 0.57387 0.52354 0.31025 0.0
C197 C 0.54191 0.50483 0.2527 0.0
C198 C 0.5687 0.53607 0.37039 0.0
C199 C 0.53138 0.53005 0.37413 0.0
C200 C 0.50048 0.5152 0.31426 0.0
C201 C 0.5058 0.50281 0.25347 0.0
C202 C 0.52283 0.53037 0.44253 0.0
C203 C 0.49355 0.4946 0.45794 0.0
C204 C 0.54762 0.56223 0.49559 0.0
C205 C 0.57867 0.60103 0.48218 0.0
C206 C 0.56922 0.62079 0.43018 0.0
C207 C 0.59861 0.65724 0.41769 0.0
C208 C 0.6376 0.67426 0.45686 0.0
C209 C 0.64727 0.65492 0.50872 0.0
C210 C 0.61797 0.61854 0.52157 0.0
H211 H 0.66031 0.70244 0.44705 0.0
H212 H 0.38516 0.34434 0.57197 0.0
H213 H 0.1127 0.42337 0.14013 0.0
H214 H 0.15568 0.40085 0.1089 0.0
H215 H 0.1638 0.46275 0.93138 0.0
H216 H 0.11835 0.48285 0.96004 0.0
H217 H 0.1815 0.40587 0.9116 0.0
H218 H 0.22659 0.5141 0.0712 0.0
H219 H 0.22243 0.55112 0.16606 0.0
H220 H 0.23859 0.47478 0.30442 0.0
H221 H 0.242 0.43672 0.20976 0.0
H222 H 0.38777 0.4772 0.94408 0.0
H223 H 0.32502 0.47402 0.94457 0.0
H224 H 0.30434 0.39189 0.09359 0.0
H225 H 0.36819 0.39535 0.09356 0.0
H226 H 0.29197 0.45801 0.1203 0.0
H227 H 0.2571 0.35911 0.92394 0.0
H228 H 0.27037 0.34452 0.81551 0.0
H229 H 0.24988 0.43459 0.73024 0.0
H230 H 0.23686 0.44997 0.83827 0.0
C231 C 0.1224 0.43072 0.09302 0.0
C232 C 0.11318 0.45543 0.05319 0.0
C233 C 0.14677 0.41778 0.07497 0.0
C234 C 0.16401 0.43128 0.01912 0.0
C235 C 0.15111 0.45221 0.97492 0.0
C236 C 0.12545 0.46397 0.99166 0.0
C237 C 0.20126 0.43153 0.01714 0.0
C238 C 0.20551 0.41691 0.95726 0.0
C239 C 0.23368 0.44837 0.07521 0.0
C240 C 0.23429 0.47242 0.13344 0.0
C241 C 0.22926 0.50521 0.1219 0.0
C242 C 0.22692 0.52631 0.17552 0.0
C243 C 0.23019 0.51527 0.24123 0.0
C244 C 0.23604 0.48326 0.25345 0.0
C245 C 0.23821 0.46191 0.19984 0.0
C246 C 0.36988 0.45857 0.97722 0.0
C247 C 0.38246 0.43639 0.01869 0.0
C248 C 0.33398 0.45658 0.97703 0.0
C249 C 0.30969 0.43204 0.01786 0.0
C250 C 0.32265 0.41064 0.06112 0.0
C251 C 0.35896 0.41271 0.06142 0.0
C252 C 0.27133 0.42987 0.01639 0.0
C253 C 0.26739 0.44548 0.07538 0.0
C254 C 0.24076 0.41694 0.95559 0.0
C255 C 0.24595 0.40563 0.88925 0.0
C256 C 0.25529 0.3757 0.88199 0.0
C257 C 0.26285 0.36735 0.82063 0.0
C258 C 0.26097 0.38861 0.76604 0.0
C259 C 0.25123 0.41807 0.77249 0.0
C260 C 0.24363 0.42652 0.8337 0.0
H261 H 0.26705 0.38226 0.71875 0.0
H262 H 0.22823 0.53155 0.28269 0.0
H263 H 0.6315 0.12006 0.97406 0.0
H264 H 0.69382 0.18134 0.9872 0.0
H265 H 0.75578 0.11588 0.99475 0.0
H266 H 0.6932 0.05449 0.98981 0.0
H267 H 0.79081 0.16576 0.09391 0.0
H268 H 0.74821 0.18297 0.85995 0.0
H269 H 0.70397 0.18712 0.75904 0.0
H270 H 0.70162 0.27907 0.87271 0.0
H271 H 0.74563 0.27534 0.97429 0.0
H272 H 0.97081 0.33694 0.05801 0.0
H273 H 0.91212 0.27353 0.06014 0.0
H274 H 0.85581 0.33434 0.12343 0.0
H275 H 0.91484 0.39792 0.12291 0.0
H276 H 0.81915 0.28881 0.9919 0.0
H277 H 0.86296 0.27241 0.22279 0.0
H278 H 0.90831 0.26939 0.32301 0.0
H279 H 0.91005 0.17673 0.21027 0.0
H280 H 0.86491 0.17938 0.10921 0.0
C281 C 0.65824 0.11867 0.976 0.0
C282 C 0.65771 0.0827 0.98074 0.0
C283 C 0.69412 0.15393 0.98309 0.0
C284 C 0.73004 0.15376 0.99171 0.0
C285 C 0.72871 0.1171 0.98905 0.0
C286 C 0.69295 0.08192 0.98526 0.0
C287 C 0.76888 0.19133 0.014 0.0
C288 C 0.79716 0.19229 0.07006 0.0
C289 C 0.77696 0.22686 0.98575 0.0
C290 C 0.74995 0.2286 0.92487 0.0
C291 C 0.738 0.20384 0.86355 0.0
C292 C 0.71305 0.2062 0.80618 0.0
C293 C 0.69992 0.23326 0.80952 0.0
C294 C 0.71178 0.2581 0.87017 0.0
C295 C 0.73679 0.25594 0.92758 0.0
C296 C 0.94665 0.33674 0.0755 0.0
C297 C 0.94702 0.37221 0.08919 0.0
C298 C 0.91314 0.30051 0.0767 0.0
C299 C 0.87949 0.29935 0.09094 0.0
C300 C 0.88152 0.33473 0.1121 0.0
C301 C 0.91535 0.37103 0.11212 0.0
C302 C 0.84059 0.2625 0.07019 0.0
C303 C 0.81249 0.26189 0.01472 0.0
C304 C 0.83288 0.22729 0.09825 0.0
C305 C 0.86091 0.2264 0.15824 0.0
C306 C 0.87338 0.25171 0.21913 0.0
C307 C 0.89892 0.24995 0.27618 0.0
C308 C 0.91215 0.22297 0.27295 0.0
C309 C 0.89982 0.19765 0.21268 0.0
C310 C 0.87421 0.19922 0.15555 0.0
H311 H 0.93187 0.22162 0.3172 0.0
H312 H 0.6806 0.23503 0.76507 0.0
H313 H 0.52871 0.88859 0.10346 0.0
H314 H 0.53193 0.832 0.14395 0.0
H315 H 0.63766 0.86759 0.06932 0.0
H316 H 0.63144 0.92207 0.02179 0.0
H317 H 0.58912 0.8009 0.01406 0.0
H318 H 0.62673 0.85254 0.25183 0.0
H319 H 0.62303 0.88327 0.35583 0.0
H320 H 0.50403 0.78793 0.33853 0.0
H321 H 0.50675 0.75692 0.23403 0.0
H322 H 0.58431 0.62301 0.08466 0.0
H323 H 0.6056 0.69272 0.11038 0.0
H324 H 0.4843 0.66231 0.09761 0.0
H325 H 0.46243 0.59229 0.07006 0.0
H326 H 0.54884 0.72734 0.20947 0.0
H327 H 0.50656 0.68439 0.96601 0.0
H328 H 0.50548 0.65328 0.85781 0.0
H329 H 0.6305 0.73363 0.88501 0.0
H330 H 0.63245 0.76475 0.9942 0.0
C331 C 0.55365 0.88529 0.09843 0.0
C332 C 0.5798 0.90944 0.05952 0.0
C333 C 0.5557 0.85287 0.12214 0.0
C334 C 0.58508 0.8451 0.10998 0.0
C335 C 0.61439 0.87254 0.07879 0.0
C336 C 0.61119 0.90392 0.05219 0.0
C337 C 0.58018 0.80508 0.11574 0.0
C338 C 0.58173 0.78562 0.05818 0.0
C339 C 0.56848 0.78388 0.17157 0.0
C340 C 0.56695 0.80247 0.23484 0.0
C341 C 0.5997 0.83823 0.26997 0.0
C342 C 0.59778 0.85569 0.32908 0.0
C343 C 0.56333 0.83757 0.35375 0.0
C344 C 0.53072 0.80192 0.31944 0.0
C345 C 0.53248 0.78436 0.26035 0.0
C346 C 0.5622 0.631 0.08871 0.0
C347 C 0.52162 0.6023 0.07457 0.0
C348 C 0.57446 0.67081 0.10348 0.0
C349 C 0.54645 0.68242 0.10554 0.0
C350 C 0.50627 0.65369 0.09639 0.0
C351 C 0.49384 0.61384 0.0803 0.0
C352 C 0.55848 0.72459 0.10874 0.0
C353 C 0.55773 0.74379 0.16709 0.0
C354 C 0.57067 0.74571 0.05367 0.0
C355 C 0.5698 0.72638 0.98894 0.0
C356 C 0.53395 0.69499 0.94953 0.0
C357 C 0.53314 0.67746 0.88787 0.0
C358 C 0.56794 0.69134 0.86472 0.0
C359 C 0.60361 0.7228 0.90317 0.0
C360 C 0.60459 0.74036 0.96498 0.0
H361 H 0.56723 0.67782 0.81685 0.0
H362 H 0.5619 0.85113 0.39949 0.0
H363 H 0.9432 0.54876 0.11231 0.0
H364 H 0.89406 0.57005 0.1091 0.0
H365 H 0.83155 0.50531 0.90748 0.0
H366 H 0.87941 0.48275 0.91163 0.0
H367 H 0.83802 0.58193 0.92492 0.0
H368 H 0.80259 0.46282 0.02341 0.0
H369 H 0.8052 0.41583 0.10136 0.0
H370 H 0.80447 0.48512 0.2672 0.0
H371 H 0.80583 0.53459 0.19191 0.0
H372 H 0.62884 0.50211 0.91077 0.0
H373 H 0.69671 0.52493 0.89892 0.0
H374 H 0.74359 0.59217 0.09931 0.0
H375 H 0.67609 0.56912 0.11135 0.0
H376 H 0.75138 0.52498 0.08675 0.0
H377 H 0.77658 0.63949 0.9744 0.0
H378 H 0.76193 0.67604 0.88499 0.0
H379 H 0.76546 0.60163 0.73141 0.0
H380 H 0.77954 0.56422 0.81973 0.0
C381 C 0.919 0.5393 0.06738 0.0
C382 C 0.91443 0.5136 0.01275 0.0
C383 C 0.89125 0.55164 0.06538 0.0
C384 C 0.85938 0.53924 0.00795 0.0
C385 C 0.85611 0.5153 0.95198 0.0
C386 C 0.88306 0.50204 0.95482 0.0
C387 C 0.82691 0.54733 0.00885 0.0
C388 C 0.81909 0.56971 0.96045 0.0
C389 C 0.80228 0.53107 0.0551 0.0
C390 C 0.80568 0.50329 0.10219 0.0
C391 C 0.80486 0.46911 0.07712 0.0
C392 C 0.80567 0.44195 0.121 0.0
C393 C 0.806 0.44793 0.18972 0.0
C394 C 0.80566 0.48116 0.21466 0.0
C395 C 0.80602 0.50898 0.17151 0.0
C396 C 0.65377 0.52348 0.95042 0.0
C397 C 0.64769 0.53386 0.01202 0.0
C398 C 0.69247 0.53657 0.94367 0.0
C399 C 0.72505 0.56005 -0.00152 0.0
C400 C 0.71883 0.57425 0.05642 0.0
C401 C 0.68034 0.56103 0.06329 0.0
C402 C 0.7627 0.56016 0.00381 0.0
C403 C 0.77115 0.53856 0.05286 0.0
C404 C 0.78691 0.57609 0.95694 0.0
C405 C 0.77883 0.59882 0.90375 0.0
C406 C 0.77391 0.63068 0.92151 0.0
C407 C 0.76578 0.65162 0.87101 0.0
C408 C 0.76268 0.64111 0.80254 0.0
C409 C 0.76785 0.60973 0.78447 0.0
C410 C 0.77598 0.58869 0.83476 0.0
H411 H 0.75632 0.65732 0.76352 0.0
H412 H 0.80591 0.42653 0.22339 0.0
H413 H 0.13873 0.66614 0.13474 0.0
H414 H 0.18157 0.72963 0.10029 0.0
H415 H 0.14888 0.67417 0.8933 0.0
H416 H 0.10511 0.61007 0.9277 0.0
H417 H 0.22757 0.70341 0.96116 0.0
H418 H 0.1369 0.75116 0.91845 0.0
H419 H 0.08658 0.76625 0.94114 0.0
H420 H 0.16968 0.84554 0.11997 0.0
H421 H 0.2204 0.83056 0.099 0.0
H422 H 0.3807 0.8615 0.8707 0.0
H423 H 0.3116 0.81905 0.87332 0.0
H424 H 0.33888 0.86116 0.08702 0.0
H425 H 0.4091 0.90521 0.08428 0.0
H426 H 0.25817 0.84192 0.00358 0.0
H427 H 0.3404 0.78412 0.06574 0.0
H428 H 0.3919 0.76793 0.05504 0.0
H429 H 0.32447 0.70567 0.85453 0.0
H430 H 0.27275 0.72195 0.86381 0.0
C431 C 0.13971 0.66769 0.08137 0.0
C432 C 0.11953 0.63322 0.03409 0.0
C433 C 0.16377 0.70412 0.06157 0.0
C434 C 0.16847 0.70659 0.99435 0.0
C435 C 0.14539 0.6728 0.94541 0.0
C436 C 0.12065 0.63625 0.96508 0.0
C437 C 0.20425 0.74089 0.9812 0.0
C438 C 0.23369 0.7336 0.96843 0.0
C439 C 0.21293 0.78035 0.99442 0.0
C440 C 0.18246 0.7895 0.00732 0.0
C441 C 0.1444 0.77156 0.96297 0.0
C442 C 0.1158 0.78017 0.97545 0.0
C443 C 0.1249 0.80678 0.03202 0.0
C444 C 0.16267 0.82493 0.07615 0.0
C445 C 0.19139 0.81644 0.0639 0.0
C446 C 0.37204 0.86216 0.91825 0.0
C447 C 0.40035 0.88575 0.97788 0.0
C448 C 0.33244 0.83824 0.91935 0.0
C449 C 0.32031 0.83672 0.98041 0.0
C450 C 0.34782 0.86215 0.03932 0.0
C451 C 0.38781 0.88688 0.03795 0.0
C452 C 0.28089 0.80392 0.98387 0.0
C453 C 0.25134 0.81157 0.99511 0.0
C454 C 0.27201 0.76447 0.97122 0.0
C455 C 0.30297 0.75461 0.96516 0.0
C456 C 0.33675 0.76728 0.01912 0.0
C457 C 0.36592 0.75802 0.01339 0.0
C458 C 0.36151 0.73588 0.95406 0.0
C459 C 0.32786 0.72288 0.90041 0.0
C460 C 0.29859 0.73207 0.9059 0.0
H461 H 0.38412 0.72871 0.94973 0.0
H462 H 0.10272 0.81339 0.04161 0.0
H463 H 0.54205 0.37199 0.9494 0.0
H464 H 0.52393 0.30668 0.90122 0.0
H465 H 0.40198 0.26377 0.9092 0.0
H466 H 0.42105 0.33005 0.9609 0.0
H467 H 0.42783 0.22124 0.97281 0.0
H468 H 0.43056 0.26009 0.75017 0.0
H469 H 0.45622 0.30503 0.665 0.0
H470 H 0.56479 0.30184 0.71479 0.0
H471 H 0.54015 0.2574 0.80082 0.0
H472 H 0.44556 0.0488 0.93064 0.0
H473 H 0.41956 0.09296 0.89644 0.0
H474 H 0.53919 0.18956 0.91776 0.0
H475 H 0.56528 0.14593 0.95233 0.0
H476 H 0.48647 0.18905 0.8035 0.0
H477 H 0.49637 0.17664 0.04675 0.0
H478 H 0.48027 0.14115 0.14659 0.0
H479 H 0.35669 0.10231 0.06818 0.0
H480 H 0.37206 0.13721 0.9673 0.0
C481 C 0.51108 0.34895 0.9384 0.0
C482 C 0.48282 0.35575 0.95807 0.0
C483 C 0.50056 0.31158 0.91015 0.0
C484 C 0.46132 0.28021 0.89999 0.0
C485 C 0.43231 0.28762 0.91572 0.0
C486 C 0.44306 0.32534 0.94481 0.0
C487 C 0.45342 0.23935 0.88556 0.0
C488 C 0.43913 0.21346 0.93388 0.0
C489 C 0.46883 0.22941 0.83556 0.0
C490 C 0.48329 0.25511 0.78187 0.0
C491 C 0.45989 0.26892 0.74296 0.0
C492 C 0.47431 0.29439 0.69456 0.0
C493 C 0.51208 0.30622 0.68442 0.0
C494 C 0.53547 0.29252 0.72249 0.0
C495 C 0.52122 0.26706 0.77091 0.0
C496 C 0.46621 0.07932 0.92691 0.0
C497 C 0.50746 0.0941 0.94469 0.0
C498 C 0.45131 0.10443 0.90747 0.0
C499 C 0.47748 0.14445 0.9048 0.0
C500 C 0.51851 0.15869 0.91923 0.0
C501 C 0.53339 0.13382 0.93943 0.0
C502 C 0.4632 0.17284 0.89305 0.0
C503 C 0.47319 0.19599 0.83982 0.0
C504 C 0.44467 0.18082 0.93932 0.0
C505 C 0.43525 0.15887 -0.00115 0.0
C506 C 0.4657 0.16007 0.05031 0.0
C507 C 0.45673 0.14019 0.10721 0.0
C508 C 0.41746 0.11932 0.11355 0.0
C509 C 0.38708 0.11834 0.06303 0.0
C510 C 0.39589 0.13813 0.00596 0.0
H511 H 0.41059 0.10405 0.15774 0.0
H512 H 0.52323 0.32604 0.64711 0.0
loop_
_geom_bond_atom_site_label_1
_geom_bond_atom_site_label_2
_geom_bond_distance
_geom_bond_site_symmetry_2
_ccdc_geom_bond_type
O0 Mg1 1.990 . S
O0 C14 1.253 . S
Mg1 O0 1.990 . S
Mg1 O4 2.180 1_655 S
Mg1 O5 2.117 . S
Mg1 O19 2.030 . S
O2 Mg3 2.072 1_655 S
O2 C14 1.260 1_554 S
Mg3 O2 2.072 1_455 S
Mg3 O4 2.099 1_554 S
Mg3 O6 2.079 . S
Mg3 O7 2.072 1_554 S
Mg3 O9 2.099 . S
Mg3 O20 2.079 1_455 S
O4 Mg1 2.180 1_455 S
O4 Mg3 2.099 1_556 S
O4 C15 1.279 . S
O5 Mg1 2.117 . S
O5 C15 1.250 1_655 S
O6 Mg3 2.079 . S
O6 C16 1.264 . S
O7 Mg3 2.072 1_556 S
O7 C17 1.260 1_556 S
Mg8 O9 2.180 . S
Mg8 O10 2.030 . S
Mg8 O11 1.990 . S
Mg8 O12 2.117 . S
O9 Mg3 2.099 . S
O9 Mg8 2.180 . S
O9 C18 1.279 . S
O10 Mg8 2.030 . S
O10 C16 1.248 . S
O11 Mg8 1.990 . S
O11 C17 1.253 . S
O12 Mg8 2.117 . S
O12 C18 1.250 . S
C13 O19 1.248 . S
C13 O20 1.264 1_556 S
C14 O0 1.253 . S
C14 O2 1.260 1_556 S
C15 O4 1.279 . S
C15 O5 1.250 1_455 S
C16 O6 1.264 . S
C16 O10 1.248 . S
C17 O7 1.260 1_554 S
C17 O11 1.253 . S
C18 O9 1.279 . S
C18 O12 1.250 . S
O19 Mg1 2.030 . S
O19 C13 1.248 . S
O20 Mg3 2.079 1_655 S
O20 C13 1.264 1_554 S
O21 Mg22 1.990 . S
O21 C35 1.253 1_556 S
Mg22 O21 1.990 . S
Mg22 O25 2.180 . S
Mg22 O26 2.117 . S
Mg22 O40 2.030 . S
O23 Mg24 2.072 1_565 S
O23 C35 1.260 . S
Mg24 O23 2.072 1_545 S
Mg24 O25 2.099 1_544 S
Mg24 O27 2.079 1_554 S
Mg24 O28 2.072 . S
Mg24 O30 2.099 . S
Mg24 O41 2.079 1_545 S
O25 Mg22 2.180 . S
O25 Mg24 2.099 1_566 S
O25 C36 1.279 . S
O26 Mg22 2.117 . S
O26 C36 1.250 . S
O27 Mg24 2.079 1_556 S
O27 C37 1.264 1_556 S
O28 Mg24 2.072 . S
O28 C38 1.260 . S
Mg29 O30 2.180 . S
Mg29 O31 2.030 . S
Mg29 O32 1.990 . S
Mg29 O33 2.117 . S
O30 Mg24 2.099 . S
O30 Mg29 2.180 . S
O30 C39 1.279 . S
O31 Mg29 2.030 . S
O31 C37 1.248 . S
O32 Mg29 1.990 . S
O32 C38 1.253 . S
O33 Mg29 2.117 . S
O33 C39 1.250 . S
C34 O40 1.248 . S
C34 O41 1.264 1_556 S
C35 O21 1.253 1_554 S
C35 O23 1.260 . S
C36 O25 1.279 . S
C36 O26 1.250 . S
C37 O27 1.264 1_554 S
C37 O31 1.248 . S
C38 O28 1.260 . S
C38 O32 1.253 . S
C39 O30 1.279 . S
C39 O33 1.250 . S
O40 Mg22 2.030 . S
O40 C34 1.248 . S
O41 Mg24 2.079 1_565 S
O41 C34 1.264 1_554 S
O42 Mg43 1.990 . S
O42 C56 1.253 . S
Mg43 O42 1.990 . S
Mg43 O46 2.180 . S
Mg43 O47 2.117 . S
Mg43 O61 2.030 . S
O44 Mg45 2.072 . S
O44 C56 1.260 1_554 S
Mg45 O44 2.072 . S
Mg45 O46 2.099 1_554 S
Mg45 O48 2.079 . S
Mg45 O49 2.072 1_554 S
Mg45 O51 2.099 . S
Mg45 O62 2.079 . S
O46 Mg43 2.180 . S
O46 Mg45 2.099 1_556 S
O46 C57 1.279 . S
O47 Mg43 2.117 . S
O47 C57 1.250 . S
O48 Mg45 2.079 . S
O48 C58 1.264 . S
O49 Mg45 2.072 1_556 S
O49 C59 1.260 1_556 S
Mg50 O51 2.180 . S
Mg50 O52 2.030 . S
Mg50 O53 1.990 . S
Mg50 O54 2.117 . S
O51 Mg45 2.099 . S
O51 Mg50 2.180 . S
O51 C60 1.279 . S
O52 Mg50 2.030 . S
O52 C58 1.248 . S
O53 Mg50 1.990 . S
O53 C59 1.253 . S
O54 Mg50 2.117 . S
O54 C60 1.250 . S
C55 O61 1.248 1_554 S
C55 O62 1.264 . S
C56 O42 1.253 . S
C56 O44 1.260 1_556 S
C57 O46 1.279 . S
C57 O47 1.250 . S
C58 O48 1.264 . S
C58 O52 1.248 . S
C59 O49 1.260 1_554 S
C59 O53 1.253 . S
C60 O51 1.279 . S
C60 O54 1.250 . S
O61 Mg43 2.030 . S
O61 C55 1.248 1_556 S
O62 Mg45 2.079 . S
O62 C55 1.264 . S
H63 C81 0.951 . S
H64 C83 0.951 . S
H65 C85 0.950 . S
H66 C86 0.950 . S
H67 C88 0.950 . S
H68 C91 0.950 . S
H69 C92 0.950 . S
H70 C94 0.950 . S
H71 C95 0.950 . S
H72 C96 0.951 . S
H73 C98 0.951 . S
H74 C100 0.950 . S
H75 C101 0.950 . S
H76 C103 0.950 . S
H77 C106 0.950 . S
H78 C107 0.950 . S
H79 C109 0.950 . S
H80 C110 0.950 1_455 S
C81 H63 0.951 . S
C81 C82 1.366 . S
C81 C83 1.388 . S
C82 C81 1.366 . S
C82 C86 1.385 . S
C83 H64 0.951 . S
C83 C81 1.388 . S
C83 C84 1.366 . S
C84 C83 1.366 . S
C84 C85 1.414 . S
C84 C87 1.499 . S
C85 H65 0.950 . S
C85 C84 1.414 . S
C85 C86 1.374 . S
C86 H66 0.950 . S
C86 C82 1.385 . S
C86 C85 1.374 . S
C87 C84 1.499 . S
C87 C88 1.373 . S
C87 C89 1.389 . S
C88 H67 0.950 . S
C88 C87 1.373 . S
C88 C104 1.377 . S
C89 C87 1.389 . S
C89 C90 1.524 . S
C89 C103 1.377 . S
C90 C89 1.524 . S
C90 C91 1.397 . S
C90 C95 1.363 . S
C91 H68 0.950 . S
C91 C90 1.397 . S
C91 C92 1.334 . S
C92 H69 0.950 . S
C92 C91 1.334 . S
C92 C93 1.287 . S
C93 C92 1.287 . S
C93 C94 1.524 . S
C93 H112 0.913 . S
C94 H70 0.950 . S
C94 C93 1.524 . S
C94 C95 1.415 . S
C95 H71 0.950 . S
C95 C90 1.363 . S
C95 C94 1.415 . S
C96 H72 0.951 . S
C96 C97 1.366 . S
C96 C98 1.388 . S
C97 C96 1.366 . S
C97 C101 1.385 . S
C98 H73 0.951 . S
C98 C96 1.388 . S
C98 C99 1.366 . S
C99 C98 1.366 . S
C99 C100 1.414 . S
C99 C102 1.499 . S
C100 H74 0.950 . S
C100 C99 1.414 . S
C100 C101 1.374 . S
C101 H75 0.950 . S
C101 C97 1.385 . S
C101 C100 1.374 . S
C102 C99 1.499 . S
C102 C103 1.373 . S
C102 C104 1.389 . S
C103 H76 0.950 . S
C103 C89 1.377 . S
C103 C102 1.373 . S
C104 C88 1.377 . S
C104 C102 1.389 . S
C104 C105 1.524 1_455 S
C105 C104 1.524 1_655 S
C105 C106 1.397 . S
C105 C110 1.363 . S
C106 H77 0.950 . S
C106 C105 1.397 . S
C106 C107 1.334 . S
C107 H78 0.950 . S
C107 C106 1.334 . S
C107 C108 1.287 . S
C108 C107 1.287 . S
C108 C109 1.524 . S
C108 H111 0.999 . S
C109 H79 0.950 . S
C109 C108 1.524 . S
C109 C110 1.415 . S
C110 H80 0.950 1_655 S
C110 C105 1.363 . S
C110 C109 1.415 . S
H111 C108 0.999 . S
H112 C93 0.913 . S
H113 C131 0.951 . S
H114 C133 0.951 . S
H115 C135 0.950 . S
H116 C136 0.950 . S
H117 C138 0.950 . S
H118 C141 0.950 . S
H119 C142 0.950 . S
H120 C144 0.950 . S
H121 C145 0.950 . S
H122 C146 0.951 . S
H123 C148 0.951 . S
H124 C150 0.950 . S
H125 C151 0.950 . S
H126 C153 0.950 . S
H127 C156 0.950 . S
H128 C157 0.950 . S
H129 C159 0.950 . S
H130 C160 0.950 . S
C131 H113 0.951 . S
C131 C132 1.366 . S
C131 C133 1.388 . S
C132 C131 1.366 . S
C132 C136 1.385 1_545 S
C133 H114 0.951 . S
C133 C131 1.388 . S
C133 C134 1.366 . S
C134 C133 1.366 . S
C134 C135 1.414 1_545 S
C134 C137 1.499 . S
C135 H115 0.950 . S
C135 C134 1.414 1_565 S
C135 C136 1.374 . S
C136 H116 0.950 . S
C136 C132 1.385 1_565 S
C136 C135 1.374 . S
C137 C134 1.499 . S
C137 C138 1.373 . S
C137 C139 1.389 . S
C138 H117 0.950 . S
C138 C137 1.373 . S
C138 C154 1.377 . S
C139 C137 1.389 . S
C139 C140 1.516 1_545 S
C139 C153 1.377 . S
C140 C139 1.516 1_565 S
C140 C141 1.409 . S
C140 C145 1.360 1_565 S
C141 H118 0.950 . S
C141 C140 1.409 . S
C141 C142 1.334 . S
C142 H119 0.950 . S
C142 C141 1.334 . S
C142 C143 1.287 . S
C143 C142 1.287 . S
C143 C144 1.524 1_565 S
C143 H162 0.913 . S
C144 H120 0.950 . S
C144 C143 1.524 1_545 S
C144 C145 1.415 . S
C145 H121 0.950 . S
C145 C140 1.360 1_545 S
C145 C144 1.415 . S
C146 H122 0.951 . S
C146 C147 1.366 1_565 S
C146 C148 1.388 . S
C147 C146 1.366 1_545 S
C147 C151 1.385 . S
C148 H123 0.951 . S
C148 C146 1.388 . S
C148 C149 1.366 1_565 S
C149 C148 1.366 1_545 S
C149 C150 1.414 . S
C149 C152 1.499 . S
C150 H124 0.950 . S
C150 C149 1.414 . S
C150 C151 1.374 . S
C151 H125 0.950 . S
C151 C147 1.385 . S
C151 C150 1.374 . S
C152 C149 1.499 . S
C152 C153 1.373 . S
C152 C154 1.389 . S
C153 H126 0.950 . S
C153 C139 1.377 . S
C153 C152 1.373 . S
C154 C138 1.377 . S
C154 C152 1.389 . S
C154 C155 1.524 . S
C155 C154 1.524 . S
C155 C156 1.397 . S
C155 C160 1.363 1_545 S
C156 H127 0.950 . S
C156 C155 1.397 . S
C156 C157 1.334 . S
C157 H128 0.950 . S
C157 C156 1.334 . S
C157 C158 1.287 . S
C158 C157 1.287 . S
C158 C159 1.524 1_545 S
C158 H161 0.999 . S
C159 H129 0.950 . S
C159 C158 1.524 1_565 S
C159 C160 1.415 . S
C160 H130 0.950 . S
C160 C155 1.363 1_565 S
C160 C159 1.415 . S
H161 C158 0.999 . S
H162 C143 0.913 . S
H163 C181 0.951 . S
H164 C183 0.951 . S
H165 C185 0.950 . S
H166 C186 0.950 . S
H167 C188 0.950 . S
H168 C191 0.950 . S
H169 C192 0.950 . S
H170 C194 0.950 . S
H171 C195 0.950 . S
H172 C196 0.951 . S
H173 C198 0.951 . S
H174 C200 0.950 . S
H175 C201 0.950 . S
H176 C203 0.950 . S
H177 C206 0.950 . S
H178 C207 0.950 . S
H179 C209 0.950 . S
H180 C210 0.950 . S
C181 H163 0.951 . S
C181 C182 1.366 . S
C181 C183 1.388 . S
C182 C181 1.366 . S
C182 C186 1.385 . S
C183 H164 0.951 . S
C183 C181 1.388 . S
C183 C184 1.366 . S
C184 C183 1.366 . S
C184 C185 1.414 . S
C184 C187 1.499 . S
C185 H165 0.950 . S
C185 C184 1.414 . S
C185 C186 1.374 . S
C186 H166 0.950 . S
C186 C182 1.385 . S
C186 C185 1.374 . S
C187 C184 1.499 . S
C187 C188 1.373 . S
C187 C189 1.389 . S
C188 H167 0.950 . S
C188 C187 1.373 . S
C188 C204 1.377 . S
C189 C187 1.389 . S
C189 C190 1.524 . S
C189 C203 1.377 . S
C190 C189 1.524 . S
C190 C191 1.397 . S
C190 C195 1.363 . S
C191 H168 0.950 . S
C191 C190 1.397 . S
C191 C192 1.334 . S
C192 H169 0.950 . S
C192 C191 1.334 . S
C192 C193 1.287 . S
C193 C192 1.287 . S
C193 C194 1.524 . S
C193 H212 0.913 . S
C194 H170 0.950 . S
C194 C193 1.524 . S
C194 C195 1.415 . S
C195 H171 0.950 . S
C195 C190 1.363 . S
C195 C194 1.415 . S
C196 H172 0.951 . S
C196 C197 1.366 . S
C196 C198 1.388 . S
C197 C196 1.366 . S
C197 C201 1.385 . S
C198 H173 0.951 . S
C198 C196 1.388 . S
C198 C199 1.366 . S
C199 C198 1.366 . S
C199 C200 1.414 . S
C199 C202 1.499 . S
C200 H174 0.950 . S
C200 C199 1.414 . S
C200 C201 1.374 . S
C201 H175 0.950 . S
C201 C197 1.385 . S
C201 C200 1.374 . S
C202 C199 1.499 . S
C202 C203 1.373 . S
C202 C204 1.389 . S
C203 H176 0.950 . S
C203 C189 1.377 . S
C203 C202 1.373 . S
C204 C188 1.377 . S
C204 C202 1.389 . S
C204 C205 1.524 . S
C205 C204 1.524 . S
C205 C206 1.397 . S
C205 C210 1.363 . S
C206 H177 0.950 . S
C206 C205 1.397 . S
C206 C207 1.334 . S
C207 H178 0.950 . S
C207 C206 1.334 . S
C207 C208 1.287 . S
C208 C207 1.287 . S
C208 C209 1.524 . S
C208 H211 0.999 . S
C209 H179 0.950 . S
C209 C208 1.524 . S
C209 C210 1.415 . S
C210 H180 0.950 . S
C210 C205 1.363 . S
C210 C209 1.415 . S
H211 C208 0.999 . S
H212 C193 0.913 . S
H213 C231 0.951 . S
H214 C233 0.951 . S
H215 C235 0.950 . S
H216 C236 0.950 . S
H217 C238 0.950 . S
H218 C241 0.950 . S
H219 C242 0.950 . S
H220 C244 0.950 . S
H221 C245 0.950 . S
H222 C246 0.951 . S
H223 C248 0.951 . S
H224 C250 0.950 . S
H225 C251 0.950 . S
H226 C253 0.950 . S
H227 C256 0.950 . S
H228 C257 0.950 . S
H229 C259 0.950 . S
H230 C260 0.950 . S
C231 H213 0.951 . S
C231 C232 1.366 . S
C231 C233 1.388 . S
C232 C231 1.366 . S
C232 C236 1.385 1_554 S
C233 H214 0.951 . S
C233 C231 1.388 . S
C233 C234 1.366 . S
C234 C233 1.366 . S
C234 C235 1.414 1_554 S
C234 C237 1.499 . S
C235 H215 0.950 . S
C235 C234 1.414 1_556 S
C235 C236 1.374 . S
C236 H216 0.950 . S
C236 C232 1.385 1_556 S
C236 C235 1.374 . S
C237 C234 1.499 . S
C237 C238 1.373 1_554 S
C237 C239 1.389 . S
C238 H217 0.950 . S
C238 C237 1.373 1_556 S
C238 C254 1.377 . S
C239 C237 1.389 . S
C239 C240 1.524 . S
C239 C253 1.377 . S
C240 C239 1.524 . S
C240 C241 1.397 . S
C240 C245 1.363 . S
C241 H218 0.950 . S
C241 C240 1.397 . S
C241 C242 1.334 . S
C242 H219 0.950 . S
C242 C241 1.334 . S
C242 C243 1.287 . S
C243 C242 1.287 . S
C243 C244 1.524 . S
C243 H262 0.913 . S
C244 H220 0.950 . S
C244 C243 1.524 . S
C244 C245 1.415 . S
C245 H221 0.950 . S
C245 C240 1.363 . S
C245 C244 1.415 . S
C246 H222 0.951 . S
C246 C247 1.366 1_556 S
C246 C248 1.388 . S
C247 C246 1.366 1_554 S
C247 C251 1.385 . S
C248 H223 0.951 . S
C248 C246 1.388 . S
C248 C249 1.366 1_556 S
C249 C248 1.366 1_554 S
C249 C250 1.414 . S
C249 C252 1.499 . S
C250 H224 0.950 . S
C250 C249 1.414 . S
C250 C251 1.374 . S
C251 H225 0.950 . S
C251 C247 1.385 . S
C251 C250 1.374 . S
C252 C249 1.499 . S
C252 C253 1.373 . S
C252 C254 1.389 1_554 S
C253 H226 0.950 . S
C253 C239 1.377 . S
C253 C252 1.373 . S
C254 C238 1.377 . S
C254 C252 1.389 1_556 S
C254 C255 1.524 . S
C255 C254 1.524 . S
C255 C256 1.397 . S
C255 C260 1.363 . S
C256 H227 0.950 . S
C256 C255 1.397 . S
C256 C257 1.334 . S
C257 H228 0.950 . S
C257 C256 1.334 . S
C257 C258 1.287 . S
C258 C257 1.287 . S
C258 C259 1.524 . S
C258 H261 0.999 . S
C259 H229 0.950 . S
C259 C258 1.524 . S
C259 C260 1.415 . S
C260 H230 0.950 . S
C260 C255 1.363 . S
C260 C259 1.415 . S
H261 C258 0.999 . S
H262 C243 0.913 . S
H263 C281 0.951 . S
H264 C283 0.951 . S
H265 C285 0.950 1_556 S
H266 C286 0.951 . S
H267 C288 0.950 . S
H268 C291 0.950 . S
H269 C292 0.950 . S
H270 C294 0.950 . S
H271 C295 0.950 . S
H272 C296 0.956 . S
H273 C298 0.951 . S
H274 C300 0.950 . S
H275 C301 0.950 . S
H276 C303 0.950 . S
H277 C306 0.950 . S
H278 C307 0.950 . S
H279 C309 0.950 . S
H280 C310 0.950 . S
C281 H263 0.951 . S
C281 C282 1.366 . S
C281 C283 1.388 . S
C282 C281 1.366 . S
C282 C286 1.385 . S
C283 H264 0.951 . S
C283 C281 1.388 . S
C283 C284 1.366 . S
C284 C283 1.366 . S
C284 C285 1.414 . S
C284 C287 1.499 . S
C285 H265 0.950 1_554 S
C285 C284 1.414 . S
C285 C286 1.374 . S
C286 H266 0.951 . S
C286 C282 1.385 . S
C286 C285 1.374 . S
C287 C284 1.499 . S
C287 C288 1.373 . S
C287 C289 1.389 1_554 S
C288 H267 0.950 . S
C288 C287 1.373 . S
C288 C304 1.377 . S
C289 C287 1.389 1_556 S
C289 C290 1.524 . S
C289 C303 1.377 . S
C290 C289 1.524 . S
C290 C291 1.397 . S
C290 C295 1.363 . S
C291 H268 0.950 . S
C291 C290 1.397 . S
C291 C292 1.334 . S
C292 H269 0.950 . S
C292 C291 1.334 . S
C292 C293 1.287 . S
C293 C292 1.287 . S
C293 C294 1.524 . S
C293 H312 0.913 . S
C294 H270 0.950 . S
C294 C293 1.524 . S
C294 C295 1.415 . S
C295 H271 0.950 . S
C295 C290 1.363 . S
C295 C294 1.415 . S
C296 H272 0.956 . S
C296 C297 1.366 . S
C296 C298 1.388 . S
C297 C296 1.366 . S
C297 C301 1.385 . S
C298 H273 0.951 . S
C298 C296 1.388 . S
C298 C299 1.366 . S
C299 C298 1.366 . S
C299 C300 1.414 . S
C299 C302 1.499 . S
C300 H274 0.950 . S
C300 C299 1.414 . S
C300 C301 1.374 . S
C301 H275 0.950 . S
C301 C297 1.385 . S
C301 C300 1.374 . S
C302 C299 1.499 . S
C302 C303 1.373 1_554 S
C302 C304 1.389 . S
C303 H276 0.950 . S
C303 C289 1.377 . S
C303 C302 1.373 1_556 S
C304 C288 1.377 . S
C304 C302 1.389 . S
C304 C305 1.524 . S
C305 C304 1.524 . S
C305 C306 1.397 . S
C305 C310 1.363 . S
C306 H277 0.950 . S
C306 C305 1.397 . S
C306 C307 1.334 . S
C307 H278 0.950 . S
C307 C306 1.334 . S
C307 C308 1.287 . S
C308 C307 1.287 . S
C308 C309 1.524 . S
C308 H311 0.999 . S
C309 H279 0.950 . S
C309 C308 1.524 . S
C309 C310 1.415 . S
C310 H280 0.950 . S
C310 C305 1.363 . S
C310 C309 1.415 . S
H311 C308 0.999 . S
H312 C293 0.913 . S
H313 C331 0.951 . S
H314 C333 0.951 . S
H315 C335 0.950 . S
H316 C336 0.950 . S
H317 C338 0.950 . S
H318 C341 0.950 . S
H319 C342 0.950 . S
H320 C344 0.950 . S
H321 C345 0.950 . S
H322 C346 0.951 . S
H323 C348 0.951 . S
H324 C350 0.950 . S
H325 C351 0.950 . S
H326 C353 0.950 . S
H327 C356 0.950 . S
H328 C357 0.950 . S
H329 C359 0.950 . S
H330 C360 0.950 . S
C331 H313 0.951 . S
C331 C332 1.366 . S
C331 C333 1.388 . S
C332 C331 1.366 . S
C332 C336 1.385 . S
C333 H314 0.951 . S
C333 C331 1.388 . S
C333 C334 1.366 . S
C334 C333 1.366 . S
C334 C335 1.414 . S
C334 C337 1.499 . S
C335 H315 0.950 . S
C335 C334 1.414 . S
C335 C336 1.374 . S
C336 H316 0.950 . S
C336 C332 1.385 . S
C336 C335 1.374 . S
C337 C334 1.499 . S
C337 C338 1.373 1_554 S
C337 C339 1.389 . S
C338 H317 0.950 . S
C338 C337 1.373 1_556 S
C338 C354 1.377 . S
C339 C337 1.389 . S
C339 C340 1.524 . S
C339 C353 1.377 . S
C340 C339 1.524 . S
C340 C341 1.397 . S
C340 C345 1.363 . S
C341 H318 0.950 . S
C341 C340 1.397 . S
C341 C342 1.334 . S
C342 H319 0.950 . S
C342 C341 1.334 . S
C342 C343 1.287 . S
C343 C342 1.287 . S
C343 C344 1.524 . S
C343 H362 0.913 . S
C344 H320 0.950 . S
C344 C343 1.524 . S
C344 C345 1.415 . S
C345 H321 0.950 . S
C345 C340 1.363 . S
C345 C344 1.415 . S
C346 H322 0.951 . S
C346 C347 1.366 . S
C346 C348 1.388 . S
C347 C346 1.366 . S
C347 C351 1.385 . S
C348 H323 0.951 . S
C348 C346 1.388 . S
C348 C349 1.366 . S
C349 C348 1.366 . S
C349 C350 1.414 . S
C349 C352 1.499 . S
C350 H324 0.950 . S
C350 C349 1.414 . S
C350 C351 1.374 . S
C351 H325 0.950 . S
C351 C347 1.385 . S
C351 C350 1.374 . S
C352 C349 1.499 . S
C352 C353 1.373 . S
C352 C354 1.389 1_554 S
C353 H326 0.950 . S
C353 C339 1.377 . S
C353 C352 1.373 . S
C354 C338 1.377 . S
C354 C352 1.389 1_556 S
C354 C355 1.524 . S
C355 C354 1.524 . S
C355 C356 1.397 . S
C355 C360 1.363 . S
C356 H327 0.950 . S
C356 C355 1.397 . S
C356 C357 1.334 . S
C357 H328 0.950 . S
C357 C356 1.334 . S
C357 C358 1.287 . S
C358 C357 1.287 . S
C358 C359 1.524 . S
C358 H361 0.999 . S
C359 H329 0.950 . S
C359 C358 1.524 . S
C359 C360 1.415 . S
C360 H330 0.950 . S
C360 C355 1.363 . S
C360 C359 1.415 . S
H361 C358 0.999 . S
H362 C343 0.913 . S
H363 C381 0.951 . S
H364 C383 0.951 . S
H365 C385 0.950 . S
H366 C386 0.950 . S
H367 C388 0.950 . S
H368 C391 0.950 . S
H369 C392 0.950 . S
H370 C394 0.950 . S
H371 C395 0.950 . S
H372 C396 0.951 . S
H373 C398 0.951 . S
H374 C400 0.950 . S
H375 C401 0.950 . S
H376 C403 0.950 . S
H377 C406 0.950 . S
H378 C407 0.950 . S
H379 C409 0.950 . S
H380 C410 0.950 . S
C381 H363 0.951 . S
C381 C382 1.366 . S
C381 C383 1.388 . S
C382 C381 1.366 . S
C382 C386 1.385 1_554 S
C383 H364 0.951 . S
C383 C381 1.388 . S
C383 C384 1.366 . S
C384 C383 1.366 . S
C384 C385 1.414 1_554 S
C384 C387 1.499 . S
C385 H365 0.950 . S
C385 C384 1.414 1_556 S
C385 C386 1.374 . S
C386 H366 0.950 . S
C386 C382 1.385 1_556 S
C386 C385 1.374 . S
C387 C384 1.499 . S
C387 C388 1.373 1_554 S
C387 C389 1.389 . S
C388 H367 0.950 . S
C388 C387 1.373 1_556 S
C388 C404 1.377 . S
C389 C387 1.389 . S
C389 C390 1.524 . S
C389 C403 1.377 . S
C390 C389 1.524 . S
C390 C391 1.397 . S
C390 C395 1.363 . S
C391 H368 0.950 . S
C391 C390 1.397 . S
C391 C392 1.334 . S
C392 H369 0.950 . S
C392 C391 1.334 . S
C392 C393 1.287 . S
C393 C392 1.287 . S
C393 C394 1.524 . S
C393 H412 0.913 . S
C394 H370 0.950 . S
C394 C393 1.524 . S
C394 C395 1.415 . S
C395 H371 0.950 . S
C395 C390 1.363 . S
C395 C394 1.415 . S
C396 H372 0.951 . S
C396 C397 1.366 1_556 S
C396 C398 1.388 . S
C397 C396 1.366 1_554 S
C397 C401 1.385 . S
C398 H373 0.951 . S
C398 C396 1.388 . S
C398 C399 1.366 1_556 S
C399 C398 1.366 1_554 S
C399 C400 1.414 . S
C399 C402 1.499 . S
C400 H374 0.950 . S
C400 C399 1.414 . S
C400 C401 1.374 . S
C401 H375 0.950 . S
C401 C397 1.385 . S
C401 C400 1.374 . S
C402 C399 1.499 . S
C402 C403 1.373 . S
C402 C404 1.389 1_554 S
C403 H376 0.950 . S
C403 C389 1.377 . S
C403 C402 1.373 . S
C404 C388 1.377 . S
C404 C402 1.389 1_556 S
C404 C405 1.524 . S
C405 C404 1.524 . S
C405 C406 1.397 . S
C405 C410 1.363 . S
C406 H377 0.950 . S
C406 C405 1.397 . S
C406 C407 1.334 . S
C407 H378 0.950 . S
C407 C406 1.334 . S
C407 C408 1.287 . S
C408 C407 1.287 . S
C408 C409 1.524 . S
C408 H411 0.999 . S
C409 H379 0.950 . S
C409 C408 1.524 . S
C409 C410 1.415 . S
C410 H380 0.950 . S
C410 C405 1.363 . S
C410 C409 1.415 . S
H411 C408 0.999 . S
H412 C393 0.913 . S
H413 C431 0.951 . S
H414 C433 0.951 . S
H415 C435 0.950 . S
H416 C436 0.950 . S
H417 C438 0.950 . S
H418 C441 0.950 . S
H419 C442 0.950 . S
H420 C444 0.950 . S
H421 C445 0.950 . S
H422 C446 0.951 . S
H423 C448 0.951 . S
H424 C450 0.950 . S
H425 C451 0.950 . S
H426 C453 0.950 . S
H427 C456 0.950 . S
H428 C457 0.950 . S
H429 C459 0.950 . S
H430 C460 0.950 . S
C431 H413 0.951 . S
C431 C432 1.366 . S
C431 C433 1.388 . S
C432 C431 1.366 . S
C432 C436 1.385 1_554 S
C433 H414 0.951 . S
C433 C431 1.388 . S
C433 C434 1.366 . S
C434 C433 1.366 . S
C434 C435 1.414 1_554 S
C434 C437 1.499 . S
C435 H415 0.950 . S
C435 C434 1.414 1_556 S
C435 C436 1.374 . S
C436 H416 0.950 . S
C436 C432 1.385 1_556 S
C436 C435 1.374 . S
C437 C434 1.499 . S
C437 C438 1.373 1_554 S
C437 C439 1.389 . S
C438 H417 0.950 . S
C438 C437 1.373 1_556 S
C438 C454 1.377 . S
C439 C437 1.389 . S
C439 C440 1.524 . S
C439 C453 1.377 . S
C440 C439 1.524 . S
C440 C441 1.397 1_554 S
C440 C445 1.363 . S
C441 H418 0.950 . S
C441 C440 1.397 1_556 S
C441 C442 1.334 . S
C442 H419 0.950 . S
C442 C441 1.334 . S
C442 C443 1.287 1_556 S
C443 C442 1.287 1_554 S
C443 C444 1.524 . S
C443 H462 0.913 . S
C444 H420 0.950 . S
C444 C443 1.524 . S
C444 C445 1.415 . S
C445 H421 0.950 . S
C445 C440 1.363 . S
C445 C444 1.415 . S
C446 H422 0.951 . S
C446 C447 1.366 1_556 S
C446 C448 1.388 . S
C447 C446 1.366 1_554 S
C447 C451 1.385 . S
C448 H423 0.951 . S
C448 C446 1.388 . S
C448 C449 1.366 1_556 S
C449 C448 1.366 1_554 S
C449 C450 1.414 . S
C449 C452 1.499 . S
C450 H424 0.950 . S
C450 C449 1.414 . S
C450 C451 1.374 . S
C451 H425 0.950 . S
C451 C447 1.385 . S
C451 C450 1.374 . S
C452 C449 1.499 . S
C452 C453 1.373 . S
C452 C454 1.389 1_554 S
C453 H426 0.950 . S
C453 C439 1.377 . S
C453 C452 1.373 . S
C454 C438 1.377 . S
C454 C452 1.389 1_556 S
C454 C455 1.524 . S
C455 C454 1.524 . S
C455 C456 1.397 1_556 S
C455 C460 1.363 . S
C456 H427 0.950 . S
C456 C455 1.397 1_554 S
C456 C457 1.334 . S
C457 H428 0.950 . S
C457 C456 1.334 . S
C457 C458 1.287 1_554 S
C458 C457 1.287 1_556 S
C458 C459 1.524 . S
C458 H461 0.999 . S
C459 H429 0.950 . S
C459 C458 1.524 . S
C459 C460 1.415 . S
C460 H430 0.950 . S
C460 C455 1.363 . S
C460 C459 1.415 . S
H461 C458 0.999 . S
H462 C443 0.913 . S
H463 C481 0.951 1_554 S
H464 C483 0.951 1_554 S
H465 C485 0.950 . S
H466 C486 0.950 . S
H467 C488 0.950 . S
H468 C491 0.950 . S
H469 C492 0.950 . S
H470 C494 0.950 . S
H471 C495 0.950 . S
H472 C496 0.951 . S
H473 C498 0.951 . S
H474 C500 0.950 . S
H475 C501 0.950 . S
H476 C503 0.950 . S
H477 C506 0.950 . S
H478 C507 0.950 . S
H479 C509 0.950 . S
H480 C510 0.950 . S
C481 H463 0.951 1_556 S
C481 C482 1.366 . S
C481 C483 1.388 . S
C482 C481 1.366 . S
C482 C486 1.385 . S
C483 H464 0.951 1_556 S
C483 C481 1.388 . S
C483 C484 1.366 . S
C484 C483 1.366 . S
C484 C485 1.414 . S
C484 C487 1.499 . S
C485 H465 0.950 . S
C485 C484 1.414 . S
C485 C486 1.374 . S
C486 H466 0.950 . S
C486 C482 1.385 . S
C486 C485 1.374 . S
C487 C484 1.499 . S
C487 C488 1.373 1_556 S
C487 C489 1.389 . S
C488 H467 0.950 . S
C488 C487 1.373 1_554 S
C488 C504 1.377 . S
C489 C487 1.389 . S
C489 C490 1.524 . S
C489 C503 1.377 . S
C490 C489 1.524 . S
C490 C491 1.397 . S
C490 C495 1.363 . S
C491 H468 0.950 . S
C491 C490 1.397 . S
C491 C492 1.334 . S
C492 H469 0.950 . S
C492 C491 1.334 . S
C492 C493 1.287 . S
C493 C492 1.287 . S
C493 C494 1.524 . S
C493 H512 0.913 . S
C494 H470 0.950 . S
C494 C493 1.524 . S
C494 C495 1.415 . S
C495 H471 0.950 . S
C495 C490 1.363 . S
C495 C494 1.415 . S
C496 H472 0.951 . S
C496 C497 1.366 . S
C496 C498 1.388 . S
C497 C496 1.366 . S
C497 C501 1.385 1_556 S
C498 H473 0.951 . S
C498 C496 1.388 . S
C498 C499 1.366 1_556 S
C499 C498 1.366 1_554 S
C499 C500 1.413 . S
C499 C502 1.499 . S
C500 H474 0.950 . S
C500 C499 1.413 . S
C500 C501 1.374 . S
C501 H475 0.950 . S
C501 C497 1.385 1_554 S
C501 C500 1.374 . S
C502 C499 1.499 . S
C502 C503 1.373 1_554 S
C502 C504 1.389 . S
C503 H476 0.950 . S
C503 C489 1.377 . S
C503 C502 1.373 1_556 S
C504 C488 1.377 . S
C504 C502 1.389 . S
C504 C505 1.524 . S
C505 C504 1.524 . S
C505 C506 1.397 . S
C505 C510 1.363 . S
C506 H477 0.950 . S
C506 C505 1.397 . S
C506 C507 1.334 . S
C507 H478 0.950 . S
C507 C506 1.334 . S
C507 C508 1.287 . S
C508 C507 1.287 . S
C508 C509 1.524 . S
C508 H511 0.999 . S
C509 H479 0.950 . S
C509 C508 1.524 . S
C509 C510 1.415 . S
C510 H480 0.950 . S
C510 C505 1.363 . S
C510 C509 1.415 . S
H511 C508 0.999 . S
H512 C493 0.913 . S
C82 C15 1.292 . S
C97 C18 1.292 . S
C132 C39 1.277 . S
C147 C36 1.277 1_545 S
C182 C57 1.277 . S
C197 C60 1.277 . S
C232 C17 1.093 . S
C247 C56 1.093 1_554 S
C282 C38 1.093 . S
C297 C14 1.091 1_554 S
C332 C35 1.067 . S
C347 C55 1.073 . S
C382 C13 1.049 1_554 S
C397 C58 1.049 . S
C432 C16 1.049 . S
C447 C34 1.050 1_554 S
C482 C59 1.067 1_556 S
C497 C37 1.073 1_556 S
