# Generated by pormake.
# Topology bcs, (6)-cn, num edge types: 1
# Building blocks:
#     Node 0, Type 0, BuildingBlock: BETFAJ_clean_sbu_0, # of connection points: 6
#     Node 1, Type 0, BuildingBlock: BETFAJ_clean_sbu_0, # of connection points: 6
#     Node 2, Type 0, BuildingBlock: BETFAJ_clean_sbu_0, # of connection points: 6
#     Node 3, Type 0, BuildingBlock: BETFAJ_clean_sbu_0, # of connection points: 6
#     Node 4, Type 0, BuildingBlock: BETFAJ_clean_sbu_0, # of connection points: 6
#     Node 5, Type 0, BuildingBlock: BETFAJ_clean_sbu_0, # of connection points: 6
#     Node 6, Type 0, BuildingBlock: BETFAJ_clean_sbu_0, # of connection points: 6
#     Node 7, Type 0, BuildingBlock: BETFAJ_clean_sbu_0, # of connection points: 6
#     Node 8, Type 0, BuildingBlock: BETFAJ_clean_sbu_0, # of connection points: 6
#     Node 9, Type 0, BuildingBlock: BETFAJ_clean_sbu_0, # of connection points: 6
#     Node 10, Type 0, BuildingBlock: BETFAJ_clean_sbu_0, # of connection points: 6
#     Node 11, Type 0, BuildingBlock: BETFAJ_clean_sbu_0, # of connection points: 6
#     Node 12, Type 0, BuildingBlock: BETFAJ_clean_sbu_0, # of connection points: 6
#     Node 13, Type 0, BuildingBlock: BETFAJ_clean_sbu_0, # of connection points: 6
#     Node 14, Type 0, BuildingBlock: BETFAJ_clean_sbu_0, # of connection points: 6
#     Node 15, Type 0, BuildingBlock: BETFAJ_clean_sbu_0, # of connection points: 6
#     Edge 16, Type (0, 0), BuildingBlock: XIVTED_clean_linker_0, # of connection points: 2
#     Edge 17, Type (0, 0), BuildingBlock: XIVTED_clean_linker_0, # of connection points: 2
#     Edge 18, Type (0, 0), BuildingBlock: XIVTED_clean_linker_0, # of connection points: 2
#     Edge 19, Type (0, 0), BuildingBlock: XIVTED_clean_linker_0, # of connection points: 2
#     Edge 20, Type (0, 0), BuildingBlock: XIVTED_clean_linker_0, # of connection points: 2
#     Edge 21, Type (0, 0), BuildingBlock: XIVTED_clean_linker_0, # of connection points: 2
#     Edge 22, Type (0, 0), BuildingBlock: XIVTED_clean_linker_0, # of connection points: 2
#     Edge 23, Type (0, 0), BuildingBlock: XIVTED_clean_linker_0, # of connection points: 2
#     Edge 24, Type (0, 0), BuildingBlock: XIVTED_clean_linker_0, # of connection points: 2
#     Edge 25, Type (0, 0), BuildingBlock: XIVTED_clean_linker_0, # of connection points: 2
#     Edge 26, Type (0, 0), BuildingBlock: XIVTED_clean_linker_0, # of connection points: 2
#     Edge 27, Type (0, 0), BuildingBlock: XIVTED_clean_linker_0, # of connection points: 2
#     Edge 28, Type (0, 0), BuildingBlock: XIVTED_clean_linker_0, # of connection points: 2
#     Edge 29, Type (0, 0), BuildingBlock: XIVTED_clean_linker_0, # of connection points: 2
#     Edge 30, Type (0, 0), BuildingBlock: XIVTED_clean_linker_0, # of connection points: 2
#     Edge 31, Type (0, 0), BuildingBlock: XIVTED_clean_linker_0, # of connection points: 2
#     Edge 32, Type (0, 0), BuildingBlock: XIVTED_clean_linker_0, # of connection points: 2
#     Edge 33, Type (0, 0), BuildingBlock: XIVTED_clean_linker_0, # of connection points: 2
#     Edge 34, Type (0, 0), BuildingBlock: XIVTED_clean_linker_0, # of connection points: 2
#     Edge 35, Type (0, 0), BuildingBlock: XIVTED_clean_linker_0, # of connection points: 2
#     Edge 36, Type (0, 0), BuildingBlock: XIVTED_clean_linker_0, # of connection points: 2
#     Edge 37, Type (0, 0), BuildingBlock: XIVTED_clean_linker_0, # of connection points: 2
#     Edge 38, Type (0, 0), BuildingBlock: XIVTED_clean_linker_0, # of connection points: 2
#     Edge 39, Type (0, 0), BuildingBlock: XIVTED_clean_linker_0, # of connection points: 2
#     Edge 40, Type (0, 0), BuildingBlock: XIVTED_clean_linker_0, # of connection points: 2
#     Edge 41, Type (0, 0), BuildingBlock: XIVTED_clean_linker_0, # of connection points: 2
#     Edge 42, Type (0, 0), BuildingBlock: XIVTED_clean_linker_0, # of connection points: 2
#     Edge 43, Type (0, 0), BuildingBlock: XIVTED_clean_linker_0, # of connection points: 2
#     Edge 44, Type (0, 0), BuildingBlock: XIVTED_clean_linker_0, # of connection points: 2
#     Edge 45, Type (0, 0), BuildingBlock: XIVTED_clean_linker_0, # of connection points: 2
#     Edge 46, Type (0, 0), BuildingBlock: XIVTED_clean_linker_0, # of connection points: 2
#     Edge 47, Type (0, 0), BuildingBlock: XIVTED_clean_linker_0, # of connection points: 2
#     Edge 48, Type (0, 0), BuildingBlock: XIVTED_clean_linker_0, # of connection points: 2
#     Edge 49, Type (0, 0), BuildingBlock: XIVTED_clean_linker_0, # of connection points: 2
#     Edge 50, Type (0, 0), BuildingBlock: XIVTED_clean_linker_0, # of connection points: 2
#     Edge 51, Type (0, 0), BuildingBlock: XIVTED_clean_linker_0, # of connection points: 2
#     Edge 52, Type (0, 0), BuildingBlock: XIVTED_clean_linker_0, # of connection points: 2
#     Edge 53, Type (0, 0), BuildingBlock: XIVTED_clean_linker_0, # of connection points: 2
#     Edge 54, Type (0, 0), BuildingBlock: XIVTED_clean_linker_0, # of connection points: 2
#     Edge 55, Type (0, 0), BuildingBlock: XIVTED_clean_linker_0, # of connection points: 2
#     Edge 56, Type (0, 0), BuildingBlock: XIVTED_clean_linker_0, # of connection points: 2
#     Edge 57, Type (0, 0), BuildingBlock: XIVTED_clean_linker_0, # of connection points: 2
#     Edge 58, Type (0, 0), BuildingBlock: XIVTED_clean_linker_0, # of connection points: 2
#     Edge 59, Type (0, 0), BuildingBlock: XIVTED_clean_linker_0, # of connection points: 2
#     Edge 60, Type (0, 0), BuildingBlock: XIVTED_clean_linker_0, # of connection points: 2
#     Edge 61, Type (0, 0), BuildingBlock: XIVTED_clean_linker_0, # of connection points: 2
#     Edge 62, Type (0, 0), BuildingBlock: XIVTED_clean_linker_0, # of connection points: 2
#     Edge 63, Type (0, 0), BuildingBlock: XIVTED_clean_linker_0, # of connection points: 2
# Relax obj value: 0.175
# Max RMSD: 0.242
# Mean RMSD: 0.203
data_MOF--net-bcs--node1-BETFAJ_clean_sbu_0--edge1-XIVTED_clean_linker_0
_symmetry_space_group_name_H-M    P1
_symmetry_Int_Tables_number       1
_symmetry_cell_setting            triclinic
loop_
_symmetry_equiv_pos_as_xyz
'x, y, z'
_cell_length_a     44.364478
_cell_length_b     43.745714
_cell_length_c     40.490562
_cell_angle_alpha  71.936975
_cell_angle_beta   113.66143
_cell_angle_gamma 121.43621
loop_
_atom_site_label
_atom_site_type_symbol
_atom_site_fract_x
_atom_site_fract_y
_atom_site_fract_z
_atom_type_partial_charge
Sm0 Sm 1.03953 0.98223 0.99064 0.0
Sm1 Sm 0.0414 0.03832 0.02343 0.0
C2 C 0.05253 0.95439 0.95131 0.0
C3 C 0.06653 0.92974 0.9531 0.0
C4 C 0.09436 0.92494 0.98347 0.0
C5 C 0.10979 0.90426 0.98278 0.0
C6 C 0.09762 0.88801 0.95174 0.0
C7 C 0.06896 0.89213 0.92187 0.0
C8 C 0.05363 0.91278 0.92259 0.0
C9 C 1.00736 0.94487 0.0473 0.0
C10 C 0.10718 0.0174 0.06275 0.0
C11 C 1.03184 0.08274 0.04571 0.0
C12 C 1.00587 0.09042 0.05182 0.0
C13 C 0.98491 0.06765 0.07603 0.0
C14 C 0.96373 0.07804 0.08394 0.0
C15 C 0.96335 0.11145 0.06796 0.0
C16 C 0.98342 0.13346 0.04287 0.0
C17 C 1.00446 0.1231 0.03501 0.0
C18 C 0.08288 0.06636 0.97522 0.0
C19 C 0.96613 0.99081 0.96375 0.0
O20 O 0.07671 0.98452 0.96542 0.0
O21 O 1.02042 0.94015 0.95691 0.0
O22 O 1.02056 0.97849 0.03701 0.0
O23 O 1.01268 0.92996 0.02837 0.0
O24 O 0.09698 0.00401 0.03275 0.0
O25 O 0.08675 0.02719 0.06913 0.0
O26 O 1.04041 0.05742 0.06769 0.0
O27 O 1.02984 0.08481 1.01201 0.0
O28 O 0.05031 0.04063 0.9706 0.0
O29 O 0.09455 0.0776 1.00615 0.0
O30 O 0.97999 0.00663 0.99303 0.0
O31 O 0.98649 0.98489 0.95261 0.0
H32 H 0.10469 0.93778 1.00735 0.0
H33 H 0.13145 0.90126 1.00643 0.0
H34 H 0.05923 0.8805 0.89733 0.0
H35 H 1.03235 0.91637 0.89881 0.0
H36 H 0.98556 0.04231 0.08949 0.0
H37 H 0.94871 0.06053 0.10349 0.0
H38 H 0.98321 0.159 0.02953 0.0
H39 H 1.02044 0.14117 0.01633 0.0
Sm40 Sm 0.32003 0.73095 0.28306 0.0
Sm41 Sm 0.26561 0.75695 0.25335 0.0
C42 C 0.36312 0.6996 0.32044 0.0
C43 C 0.3562 0.66213 0.32492 0.0
C44 C 0.3843 0.65532 0.32663 0.0
C45 C 0.37745 0.62003 0.32832 0.0
C46 C 0.34231 0.59088 0.32835 0.0
C47 C 0.31408 0.5978 0.32649 0.0
C48 C 0.32089 0.63324 0.32445 0.0
C49 C 0.27403 0.71135 0.21523 0.0
C50 C 0.24098 0.68258 0.30139 0.0
C51 C 0.22266 0.78827 0.21506 0.0
C52 C 0.2288 0.82563 0.20952 0.0
C53 C 0.21869 0.84216 0.17415 0.0
C54 C 0.22504 0.87787 0.16822 0.0
C55 C 0.24144 0.89759 0.19764 0.0
C56 C 0.25203 0.88118 0.23307 0.0
C57 C 0.24609 0.84552 0.23897 0.0
C58 C 0.31261 0.77789 0.3207 0.0
C59 C 0.34345 0.80448 0.23346 0.0
O60 O 0.34559 0.70549 0.33526 0.0
O61 O 0.36289 0.71671 0.28768 0.0
O62 O 0.26367 0.70945 0.24076 0.0
O63 O 0.30931 0.72271 0.22513 0.0
O64 O 0.27694 0.69342 0.31479 0.0
O65 O 0.22775 0.69912 0.27057 0.0
O66 O 0.24111 0.78302 0.20088 0.0
O67 O 0.22208 0.77066 0.24758 0.0
O68 O 0.32238 0.77904 0.29505 0.0
O69 O 0.27728 0.76613 0.31122 0.0
O70 O 0.30741 0.79277 0.22042 0.0
O71 O 0.35753 0.78906 0.26475 0.0
H72 H 0.41154 0.67733 0.32657 0.0
H73 H 0.40004 0.61549 0.33062 0.0
H74 H 0.28685 0.57586 0.32661 0.0
H75 H 0.29855 0.63806 0.32237 0.0
H76 H 0.20564 0.82734 0.15112 0.0
H77 H 0.21588 0.88963 0.14065 0.0
H78 H 0.2646 0.89582 0.25613 0.0
H79 H 0.2548 0.83351 0.26654 0.0
Sm80 Sm 0.53709 0.00231 0.54538 0.0
Sm81 Sm 0.55079 0.00883 0.47782 0.0
C82 C 0.53538 0.01681 0.60312 0.0
C83 C 0.5142 0.0284 0.61176 0.0
C84 C 0.52762 0.04077 0.64524 0.0
C85 C 0.50893 0.05385 0.65322 0.0
C86 C 0.47651 0.05478 0.62775 0.0
C87 C 0.46287 0.04188 0.59431 0.0
C88 C 0.4817 0.02889 0.5863 0.0
C89 C 0.48202 0.94972 0.50307 0.0
C90 C 0.49978 0.05259 0.46666 0.0
C91 C 0.55277 0.995 0.41989 0.0
C92 C 0.57413 0.98369 0.41121 0.0
C93 C 0.56149 0.97254 0.37725 0.0
C94 C 0.58054 0.95999 0.36911 0.0
C95 C 0.61252 0.95841 0.39492 0.0
C96 C 0.62533 0.97002 0.42889 0.0
C97 C 0.60616 0.98249 0.43703 0.0
C98 C 0.60578 0.06099 0.52083 0.0
C99 C 0.58845 0.95877 0.55644 0.0
O100 O 0.55631 0.04086 0.58268 0.0
O101 O 0.51779 0.98419 0.59402 0.0
O102 O 0.49841 0.98277 0.4922 0.0
O103 O 0.49337 0.94299 0.53826 0.0
O104 O 0.5082 0.04279 0.5035 0.0
O105 O 0.51199 0.0407 0.44985 0.0
O106 O 0.53171 0.9707 0.44013 0.0
O107 O 0.57034 0.02747 0.42931 0.0
O108 O 0.58933 0.02785 0.53104 0.0
O109 O 0.59435 0.06828 0.48572 0.0
O110 O 0.5799 0.9685 0.51958 0.0
O111 O 0.57616 0.9706 0.57327 0.0
H112 H 0.55277 0.04064 0.66507 0.0
H113 H 0.51979 0.06316 0.67938 0.0
H114 H 0.43816 0.04259 0.57407 0.0
H115 H 0.47123 0.01969 0.56015 0.0
H116 H 0.5367 0.97326 0.35714 0.0
H117 H 0.57034 0.95168 0.34255 0.0
H118 H 0.64968 0.96875 0.44939 0.0
H119 H 0.61604 0.99079 0.46353 0.0
Sm120 Sm 0.29816 0.22461 0.76473 0.0
Sm121 Sm 0.27855 0.28367 0.74623 0.0
C122 C 0.30779 0.16971 0.76484 0.0
C123 C 0.32241 0.15983 0.7454 0.0
C124 C 0.34705 0.18635 0.72594 0.0
C125 C 0.36107 0.17637 0.70798 0.0
C126 C 0.35055 0.13971 0.70921 0.0
C127 C 0.32516 0.11325 0.72811 0.0
C128 C 0.3112 0.12328 0.74606 0.0
C129 C 0.34098 0.27357 0.8143 0.0
C130 C 0.33629 0.29661 0.70788 0.0
C131 C 0.26807 0.33814 0.74561 0.0
C132 C 0.24881 0.34594 0.76137 0.0
C133 C 0.2589 0.38196 0.76168 0.0
C134 C 0.24237 0.39017 0.77831 0.0
C135 C 0.2155 0.36239 0.79494 0.0
C136 C 0.20521 0.3262 0.79427 0.0
C137 C 0.22188 0.31802 0.77767 0.0
C138 C 0.23516 0.234 0.69731 0.0
C139 C 0.242 0.21251 0.80492 0.0
O140 O 0.27744 0.17264 0.746 0.0
O141 O 0.33179 0.19515 0.7857 0.0
O142 O 0.33214 0.28146 0.78013 0.0
O143 O 0.32749 0.23883 0.82346 0.0
O144 O 0.32679 0.26173 0.71905 0.0
O145 O 0.324 0.31293 0.71789 0.0
O146 O 0.29582 0.3324 0.76871 0.0
O147 O 0.24752 0.31588 0.72113 0.0
O148 O 0.24442 0.22661 0.73151 0.0
O149 O 0.24895 0.26872 0.68771 0.0
O150 O 0.24805 0.24617 0.79046 0.0
O151 O 0.25656 0.19673 0.79745 0.0
H152 H 0.35564 0.21471 0.72489 0.0
H153 H 0.38018 0.19733 0.69322 0.0
H154 H 0.31684 0.08484 0.7299 0.0
H155 H 0.29198 0.10251 0.76082 0.0
H156 H 0.2798 0.40376 0.7493 0.0
H157 H 0.25044 0.41827 0.77793 0.0
H158 H 0.18482 0.30428 0.80715 0.0
H159 H 0.21407 0.29002 0.77789 0.0
Sm160 Sm 0.08188 0.00935 0.53529 0.0
Sm161 Sm 1.00667 0.99766 0.48219 0.0
C162 C 0.14374 0.03148 0.58925 0.0
C163 C 0.15942 0.02007 0.62713 0.0
C164 C 0.19643 0.04139 0.64505 0.0
C165 C 0.21428 0.02713 0.67796 0.0
C166 C 0.19526 0.99122 0.69271 0.0
C167 C 0.15688 0.97183 0.67684 0.0
C168 C 0.13909 0.98617 0.64407 0.0
C169 C 0.0443 0.94947 0.49922 0.0
C170 C 1.0067 0.95861 0.56477 0.0
C171 C 0.94534 0.97552 0.42772 0.0
C172 C 0.93075 0.98693 0.38947 0.0
C173 C 0.89524 0.96416 0.36973 0.0
C174 C 0.87754 0.97782 0.33622 0.0
C175 C 0.89504 0.01457 0.32275 0.0
C176 C 0.93258 0.03565 0.34043 0.0
C177 C 0.95029 0.02189 0.37372 0.0
C178 C 0.0441 0.05724 0.51871 0.0
C179 C 0.08187 0.04906 0.45289 0.0
O180 O 0.11731 0.03978 0.58265 0.0
O181 O 0.13721 0.01241 0.56557 0.0
O182 O 1.03139 0.96019 0.51313 0.0
O183 O 0.07976 0.97005 0.50515 0.0
O184 O 0.04335 0.97829 0.57379 0.0
O185 O 0.98659 0.95827 0.53032 0.0
O186 O 0.97134 0.96626 0.4355 0.0
O187 O 0.95176 0.99519 0.45078 0.0
O188 O 0.05702 0.04672 0.50458 0.0
O189 O 1.00858 0.03671 0.51245 0.0
O190 O 0.04527 0.02912 0.44376 0.0
O191 O 0.10184 0.04931 0.48737 0.0
H192 H 0.21221 0.06795 0.63234 0.0
H193 H 0.24371 0.04284 0.68992 0.0
H194 H 0.14137 0.94406 0.68734 0.0
H195 H 0.11028 0.96968 0.63057 0.0
H196 H 0.88019 0.93675 0.38142 0.0
H197 H 0.84893 0.96072 0.32281 0.0
H198 H 0.9471 0.06404 0.33098 0.0
H199 H 0.97807 0.03949 0.38855 0.0
Sm200 Sm 0.28062 0.73219 0.81444 0.0
Sm201 Sm 0.2923 0.75484 0.73772 0.0
C202 C 0.27518 0.73216 0.87731 0.0
C203 C 0.25577 0.74499 0.88762 0.0
C204 C 0.26835 0.75394 0.92271 0.0
C205 C 0.2506 0.76721 0.93221 0.0
C206 C 0.21994 0.77175 0.90671 0.0
C207 C 0.20748 0.76268 0.87153 0.0
C208 C 0.22524 0.74949 0.86209 0.0
C209 C 0.22736 0.68596 0.76425 0.0
C210 C 0.25488 0.79205 0.7528 0.0
C211 C 0.30006 0.75262 0.6771 0.0
C212 C 0.31375 0.7318 0.66962 0.0
C213 C 0.30193 0.72284 0.63467 0.0
C214 C 0.31502 0.70301 0.62783 0.0
C215 C 0.34005 0.69159 0.65592 0.0
C216 C 0.35127 0.70021 0.69103 0.0
C217 C 0.33844 0.7202 0.69773 0.0
C218 C 0.34486 0.8015 0.78766 0.0
C219 C 0.31829 0.69628 0.79854 0.0
O220 O 0.30257 0.75728 0.86456 0.0
O221 O 0.25422 0.7046 0.8588 0.0
O222 O 0.24232 0.72003 0.75771 0.0
O223 O 0.2386 0.67535 0.79864 0.0
O224 O 0.26352 0.77764 0.787 0.0
O225 O 0.25851 0.78399 0.72617 0.0
O226 O 0.26852 0.73384 0.68461 0.0
O227 O 0.32466 0.77737 0.69861 0.0
O228 O 0.33051 0.7674 0.79436 0.0
O229 O 0.33353 0.81187 0.75319 0.0
O230 O 0.30485 0.70696 0.76428 0.0
O231 O 0.31793 0.70654 0.82568 0.0
H232 H 0.29197 0.75078 0.94272 0.0
H233 H 0.26072 0.77364 0.9596 0.0
H234 H 0.18439 0.76642 0.85103 0.0
H235 H 0.2153 0.74305 0.83472 0.0
H236 H 0.28283 0.73142 0.6126 0.0
H237 H 0.30606 0.69727 0.60036 0.0
H238 H 0.36996 0.69144 0.7135 0.0
H239 H 0.34804 0.72677 0.72494 0.0
Sm240 Sm 0.552 0.96364 0.02377 0.0
Sm241 Sm 0.53765 0.02764 0.01744 0.0
C242 C 0.55779 0.91068 1.01232 0.0
C243 C 0.58098 0.90513 0.99932 0.0
C244 C 0.5644 0.87652 0.97921 0.0
C245 C 0.58575 0.86995 0.96726 0.0
C246 C 0.62426 0.89184 0.9753 0.0
C247 C 0.64073 0.92096 0.995 0.0
C248 C 0.61926 0.92759 1.00685 0.0
C249 C 0.60251 0.01116 0.07387 0.0
C250 C 0.58529 0.03844 0.96935 0.0
C251 C 0.53101 0.08047 0.028 0.0
C252 C 0.50728 0.08666 0.03969 0.0
C253 C 0.52378 0.10875 0.067 0.0
C254 C 0.50236 0.11631 0.07778 0.0
C255 C 0.46391 0.10208 0.0613 0.0
C256 C 0.44735 0.07965 0.03413 0.0
C257 C 0.4688 0.07192 0.02349 0.0
C258 C 0.48684 0.97896 0.9682 0.0
C259 C 0.50469 0.95327 0.07228 0.0
O260 O 0.53694 0.92505 0.98806 0.0
O261 O 0.57276 0.92278 0.04374 0.0
O262 O 0.58862 0.01971 0.04073 0.0
O263 O 0.59194 0.97664 0.08116 0.0
O264 O 0.57209 0.00293 0.975 0.0
O265 O 0.58165 0.05568 0.98797 0.0
O266 O 0.55108 0.06562 0.05297 0.0
O267 O 0.51739 0.06895 0.99645 0.0
O268 O 0.50109 0.97136 1.00138 0.0
O269 O 0.49751 0.01349 0.96002 0.0
O270 O 0.51771 0.98875 0.06627 0.0
O271 O 0.50848 0.93584 0.05397 0.0
H272 H 0.53485 0.85909 0.97286 0.0
H273 H 0.572 0.84777 0.95154 0.0
H274 H 0.6703 0.93819 1.00193 0.0
H275 H 0.63262 0.95 0.02218 0.0
H276 H 0.55342 0.12054 0.07976 0.0
H277 H 0.51607 0.13403 0.09844 0.0
H278 H 0.41775 0.06793 0.02121 0.0
H279 H 0.45529 0.05462 1.00247 0.0
Sm280 Sm 0.27541 0.23281 0.22836 0.0
Sm281 Sm 0.31317 0.2797 0.29286 0.0
C282 C 0.26492 0.20904 0.17 0.0
C283 C 0.28595 0.19998 0.15767 0.0
C284 C 0.32287 0.20789 0.17717 0.0
C285 C 0.34205 0.19727 0.16651 0.0
C286 C 0.32454 0.17829 0.13629 0.0
C287 C 0.28754 0.17071 0.11672 0.0
C288 C 0.26845 0.18147 0.12735 0.0
C289 C 0.22982 0.202 0.27325 0.0
C290 C 0.3409 0.2125 0.30679 0.0
C291 C 0.32475 0.30498 0.35082 0.0
C292 C 0.30401 0.31332 0.36453 0.0
C293 C 0.26524 0.29745 0.35219 0.0
C294 C 0.24605 0.30687 0.36431 0.0
C295 C 0.26526 0.33256 0.3888 0.0
C296 C 0.30417 0.34846 0.40092 0.0
C297 C 0.32329 0.33889 0.3889 0.0
C298 C 0.35689 0.3114 0.24575 0.0
C299 C 0.24751 0.29959 0.21464 0.0
O300 O 0.27779 0.24327 0.17189 0.0
O301 O 0.25387 0.18771 0.19802 0.0
O302 O 0.26056 0.23013 0.27643 0.0
O303 O 0.22139 0.18963 0.24382 0.0
O304 O 0.31876 0.20768 0.2718 0.0
O305 O 0.34219 0.23795 0.32088 0.0
O306 O 0.31358 0.27084 0.35017 0.0
O307 O 0.33364 0.32567 0.32165 0.0
O308 O 0.32721 0.28245 0.24456 0.0
O309 O 0.36519 0.32492 0.27436 0.0
O310 O 0.26896 0.30385 0.24989 0.0
O311 O 0.24688 0.27481 0.20024 0.0
H312 H 0.3367 0.2219 0.20088 0.0
H313 H 0.37062 0.20401 0.18194 0.0
H314 H 0.27299 0.1557 0.09368 0.0
H315 H 0.23981 0.1748 0.11224 0.0
H316 H 0.24984 0.27808 0.33288 0.0
H317 H 0.21617 0.29449 0.35395 0.0
H318 H 0.31988 0.36804 0.42003 0.0
H319 H 0.35324 0.35166 0.3985 0.0
Sm320 Sm 0.57752 0.50525 0.03657 0.0
Sm321 Sm 0.50862 0.51043 0.98365 0.0
C322 C 0.6333 0.51021 0.09606 0.0
C323 C 0.63769 0.48927 0.132 0.0
C324 C 0.60668 0.46401 0.14402 0.0
C325 C 0.61005 0.43946 0.1751 0.0
C326 C 0.64449 0.43988 0.19433 0.0
C327 C 0.6761 0.46771 0.18428 0.0
C328 C 0.67264 0.49218 0.15313 0.0
C329 C 0.53179 0.45157 0.99243 0.0
C330 C 0.49957 0.46428 0.062 0.0
C331 C 0.45177 0.50102 0.92467 0.0
C332 C 0.44475 0.51555 0.88616 0.0
C333 C 0.41551 0.49308 0.86035 0.0
C334 C 0.40313 0.50813 0.82497 0.0
C335 C 0.41908 0.54592 0.81572 0.0
C336 C 0.45237 0.56736 0.84005 0.0
C337 C 0.46503 0.55223 0.87515 0.0
C338 C 0.55459 0.56504 0.02705 0.0
C339 C 0.58623 0.55254 0.95834 0.0
O340 O 0.61355 0.52684 0.08881 0.0
O341 O 0.6255 0.49424 0.06906 0.0
O342 O 0.52208 0.46405 1.00833 0.0
O343 O 0.56771 0.46634 1.00094 0.0
O344 O 0.53531 0.4737 0.07092 0.0
O345 O 0.4817 0.47389 0.02896 0.0
O346 O 0.46957 0.48182 0.93558 0.0
O347 O 0.46226 0.52262 0.94778 0.0
O348 O 0.56415 0.55155 1.01212 0.0
O349 O 0.51867 0.55177 0.01673 0.0
O350 O 0.54965 0.53928 0.94819 0.0
O351 O 0.6046 0.54638 0.99258 0.0
H352 H 0.57955 0.46179 0.12835 0.0
H353 H 0.58536 0.4184 0.18239 0.0
H354 H 0.70301 0.46851 0.19833 0.0
H355 H 0.69685 0.5118 0.1443 0.0
H356 H 0.40049 0.46434 0.86824 0.0
H357 H 0.37841 0.49064 0.8064 0.0
H358 H 0.46617 0.59649 0.83404 0.0
H359 H 0.48869 0.56973 0.89448 0.0
Sm360 Sm 0.78753 0.22834 0.31 0.0
Sm361 Sm 0.78796 0.25424 0.22888 0.0
C362 C 0.78705 0.2289 0.37482 0.0
C363 C 0.77256 0.24726 0.38518 0.0
C364 C 0.79337 0.26647 0.41532 0.0
C365 C 0.78096 0.28626 0.4233 0.0
C366 C 0.7475 0.28735 0.40117 0.0
C367 C 0.72657 0.26761 0.37129 0.0
C368 C 0.73898 0.24799 0.36333 0.0
C369 C 0.73555 0.17868 0.26282 0.0
C370 C 0.74466 0.27686 0.25448 0.0
C371 C 0.78837 0.25695 0.16289 0.0
C372 C 0.80078 0.23919 0.14909 0.0
C373 C 0.79652 0.20403 0.16398 0.0
C374 C 0.81224 0.18903 0.15386 0.0
C375 C 0.83262 0.2089 0.12871 0.0
C376 C 0.83578 0.24366 0.11305 0.0
C377 C 0.82009 0.25865 0.12322 0.0
C378 C 0.83952 0.3039 0.27612 0.0
C379 C 0.8267 0.2013 0.2837 0.0
O380 O 0.81609 0.25013 0.36317 0.0
O381 O 0.76242 0.20239 0.35533 0.0
O382 O 0.74499 0.21211 0.25622 0.0
O383 O 0.75158 0.16985 0.29646 0.0
O384 O 0.7631 0.2682 0.28752 0.0
O385 O 0.74491 0.26987 0.22516 0.0
O386 O 0.75906 0.23602 0.17417 0.0
O387 O 0.81461 0.28105 0.18456 0.0
O388 O 0.83077 0.27058 0.28273 0.0
O389 O 0.82236 0.3124 0.24287 0.0
O390 O 0.81141 0.21348 0.25064 0.0
O391 O 0.8261 0.20732 0.31341 0.0
H392 H 0.81958 0.26673 0.43227 0.0
H393 H 0.79807 0.30145 0.44625 0.0
H394 H 0.70044 0.26725 0.35391 0.0
H395 H 0.72244 0.23379 0.33964 0.0
H396 H 0.78197 0.18849 0.18424 0.0
H397 H 0.80957 0.1624 0.16678 0.0
H398 H 0.85076 0.25949 0.09317 0.0
H399 H 0.82381 0.28583 0.11151 0.0
Sm400 Sm 0.05395 0.46708 0.52873 0.0
Sm401 Sm 1.03092 0.52819 0.50781 0.0
C402 C 0.06953 0.41557 0.53026 0.0
C403 C 0.08928 0.40836 0.51411 0.0
C404 C 0.1037 0.43224 0.48572 0.0
C405 C 0.12244 0.42468 0.47093 0.0
C406 C 0.12689 0.393 0.48417 0.0
C407 C 0.11242 0.36933 0.51274 0.0
C408 C 0.09385 0.37697 0.52752 0.0
C409 C 0.09084 0.51567 0.57766 0.0
C410 C 0.08942 0.53943 0.47217 0.0
C411 C 1.01545 0.57998 0.50565 0.0
C412 C 0.99595 0.58808 0.52123 0.0
C413 C 0.98037 0.56439 0.549 0.0
C414 C 0.96181 0.57284 0.56314 0.0
C415 C 0.95872 0.60523 0.54983 0.0
C416 C 0.97436 0.6287 0.52189 0.0
C417 C 0.99274 0.62018 0.50778 0.0
C418 C 0.99383 0.47929 0.45905 0.0
C419 C 0.99573 0.45594 0.56468 0.0
O420 O 1.03936 0.41782 0.50859 0.0
O421 O 0.08987 0.43971 0.55287 0.0
O422 O 0.08272 0.52365 0.54353 0.0
O423 O 0.08137 0.48139 0.5871 0.0
O424 O 0.08145 0.50515 0.48421 0.0
O425 O 0.07688 0.55647 0.48086 0.0
O426 O 0.04554 0.5777 0.52754 0.0
O427 O 0.99495 0.55549 0.48343 0.0
O428 O 1.00203 0.47156 0.49319 0.0
O429 O 1.00339 0.51358 0.44948 0.0
O430 O 1.00368 0.49025 0.55262 0.0
O431 O 1.00808 0.43885 0.55576 0.0
H432 H 0.10034 0.45658 0.47493 0.0
H433 H 0.13291 0.44334 0.44875 0.0
H434 H 0.11582 0.34503 0.52405 0.0
H435 H 0.08306 0.35831 0.54954 0.0
H436 H 0.98267 0.53949 0.55978 0.0
H437 H 0.9504 0.55431 0.58483 0.0
H438 H 0.97201 0.65354 0.51054 0.0
H439 H 1.00443 0.63871 0.48622 0.0
Sm440 Sm 0.80471 0.72509 0.26979 0.0
Sm441 Sm 0.79126 0.78716 0.25948 0.0
C442 C 0.80904 0.66906 0.2639 0.0
C443 C 0.83171 0.66037 0.25411 0.0
C444 C 0.82329 0.62415 0.2578 0.0
C445 C 0.84357 0.61494 0.24736 0.0
C446 C 0.87258 0.64192 0.23303 0.0
C447 C 0.8811 0.67835 0.22962 0.0
C448 C 0.86077 0.68754 0.24016 0.0
C449 C 0.85466 0.77231 0.32072 0.0
C450 C 0.84442 0.79872 0.21536 0.0
C451 C 0.78964 0.84395 0.26772 0.0
C452 C 0.77155 0.85324 0.28347 0.0
C453 C 0.74472 0.82633 0.30035 0.0
C454 C 0.7282 0.83588 0.31577 0.0
C455 C 0.73835 0.87245 0.31446 0.0
C456 C 0.76546 0.89925 0.29763 0.0
C457 C 0.78195 0.88966 0.28229 0.0
C458 C 0.74164 0.74098 0.20761 0.0
C459 C 0.7499 0.71252 0.31206 0.0
O460 O 0.79037 0.68441 0.23739 0.0
O461 O 0.82396 0.68305 0.29418 0.0
O462 O 0.84341 0.78104 0.28699 0.0
O463 O 0.8399 0.73745 0.32879 0.0
O464 O 0.83407 0.76358 0.22508 0.0
O465 O 0.83427 0.81525 0.228 0.0
O466 O 0.81235 0.83123 0.29092 0.0
O467 O 0.76898 0.82689 0.2391 0.0
O468 O 0.75282 0.73149 0.24124 0.0
O469 O 0.75525 0.77591 0.2005 0.0
O470 O 0.762 0.74806 0.30428 0.0
O471 O 0.75897 0.69616 0.29795 0.0
H472 H 0.80072 0.60293 0.26835 0.0
H473 H 0.83599 0.58663 0.24975 0.0
H474 H 0.90352 0.69969 0.21896 0.0
H475 H 0.86749 0.71569 0.2372 0.0
H476 H 0.73668 0.79807 0.30165 0.0
H477 H 0.70772 0.81467 0.32894 0.0
H478 H 0.77348 0.9276 0.29573 0.0
H479 H 0.80278 0.9107 0.26941 0.0
Sm480 Sm 0.81489 0.24088 0.77981 0.0
Sm481 Sm 0.76222 0.26884 0.7521 0.0
C482 C 0.8552 0.20646 0.81569 0.0
C483 C 0.84553 0.168 0.82191 0.0
C484 C 0.81136 0.1413 0.82751 0.0
C485 C 0.80203 0.10473 0.83208 0.0
C486 C 0.82648 0.0944 0.83048 0.0
C487 C 0.86026 0.1213 0.82403 0.0
C488 C 0.86968 0.15776 0.81982 0.0
C489 C 0.76787 0.22318 0.71165 0.0
C490 C 0.73728 0.19445 0.80054 0.0
C491 C 0.72224 0.30337 0.71469 0.0
C492 C 0.73201 0.34201 0.70853 0.0
C493 C 0.7251 0.35936 0.67289 0.0
C494 C 0.735 0.39615 0.66654 0.0
C495 C 0.7518 0.41623 0.69575 0.0
C496 C 0.75933 0.399 0.73145 0.0
C497 C 0.74981 0.36225 0.7378 0.0
C498 C 0.80918 0.28688 0.82006 0.0
C499 C 0.84183 0.31606 0.73386 0.0
O500 O 0.84161 0.21613 0.83167 0.0
O501 O 0.85305 0.22149 0.78206 0.0
O502 O 0.75804 0.22088 0.73778 0.0
O503 O 0.80315 0.23479 0.72089 0.0
O504 O 0.77309 0.20485 0.81249 0.0
O505 O 0.72327 0.21129 0.77043 0.0
O506 O 0.7371 0.29441 0.69954 0.0
O507 O 0.72243 0.28702 0.74775 0.0
O508 O 0.81885 0.28872 0.794 0.0
O509 O 0.77406 0.27633 0.81059 0.0
O510 O 0.80609 0.30656 0.72107 0.0
O511 O 0.85455 0.29822 0.7638 0.0
H512 H 0.79193 0.14865 0.8285 0.0
H513 H 0.77596 0.08457 0.83719 0.0
H514 H 0.88011 0.11423 0.82355 0.0
H515 H 0.89593 0.17799 0.8151 0.0
H516 H 0.71175 0.34436 0.64996 0.0
H517 H 0.72813 0.40855 0.63872 0.0
H518 H 0.77213 0.41385 0.75439 0.0
H519 H 0.75616 0.34971 0.76563 0.0
Sm520 Sm 0.77604 0.73264 0.72985 0.0
Sm521 Sm 0.81624 0.78077 0.79258 0.0
C522 C 0.76287 0.70486 0.67297 0.0
C523 C 0.78326 0.69544 0.65995 0.0
C524 C 0.82195 0.71036 0.67303 0.0
C525 C 0.84083 0.69969 0.66194 0.0
C526 C 0.82138 0.6737 0.63773 0.0
C527 C 0.78255 0.65881 0.62481 0.0
C528 C 0.76372 0.6696 0.63583 0.0
C529 C 0.73262 0.70299 0.77682 0.0
C530 C 0.84254 0.71281 0.80724 0.0
C531 C 0.82991 0.80752 0.8503 0.0
C532 C 0.80908 0.81449 0.86516 0.0
C533 C 0.77032 0.79629 0.85481 0.0
C534 C 0.75077 0.80446 0.86771 0.0
C535 C 0.76963 0.83119 0.89096 0.0
C536 C 0.80852 0.84939 0.90115 0.0
C537 C 0.82804 0.84105 0.88837 0.0
C538 C 0.86035 0.8102 0.74643 0.0
C539 C 0.74931 0.8004 0.71526 0.0
O540 O 0.77428 0.7393 0.67244 0.0
O541 O 0.75444 0.68526 0.70267 0.0
O542 O 0.76326 0.73104 0.77893 0.0
O543 O 0.72281 0.69025 0.74719 0.0
O544 O 0.81976 0.70766 0.77253 0.0
O545 O 0.84448 0.73864 0.82119 0.0
O546 O 0.82054 0.7736 0.85081 0.0
O547 O 0.83601 0.82749 0.81985 0.0
O548 O 0.82948 0.78228 0.74379 0.0
O549 O 0.86966 0.82303 0.77583 0.0
O550 O 0.77211 0.80548 0.75001 0.0
O551 O 0.74755 0.7747 0.70121 0.0
H552 H 0.83751 0.72991 0.69216 0.0
H553 H 0.87065 0.71132 0.6729 0.0
H554 H 0.76667 0.63904 0.6059 0.0
H555 H 0.73382 0.65754 0.62572 0.0
H556 H 0.75516 0.77612 0.83638 0.0
H557 H 0.72084 0.79034 0.85888 0.0
H558 H 0.8239 0.86988 0.91924 0.0
H559 H 0.85797 0.85557 0.89639 0.0
Sm560 Sm 0.5498 0.47323 0.49862 0.0
Sm561 Sm 0.54044 0.53129 0.52532 0.0
C562 C 0.56526 0.43932 0.46862 0.0
C563 C 0.59218 0.43706 0.45796 0.0
C564 C 0.62759 0.44326 0.48184 0.0
C565 C 0.64967 0.43375 0.47437 0.0
C566 C 0.63678 0.41785 0.4429 0.0
C567 C 0.60214 0.41361 0.41814 0.0
C568 C 0.58012 0.42309 0.42565 0.0
C569 C 0.50983 0.43921 0.54988 0.0
C570 C 0.61759 0.5256 0.56056 0.0
C571 C 0.52451 0.56341 0.55702 0.0
C572 C 0.49758 0.56328 0.57005 0.0
C573 C 0.46768 0.56959 0.54544 0.0
C574 C 0.44689 0.57668 0.55778 0.0
C575 C 0.4555 0.5777 0.59501 0.0
C576 C 0.48406 0.56927 0.61974 0.0
C577 C 0.50493 0.56231 0.60738 0.0
C578 C 0.58007 0.56577 0.47385 0.0
C579 C 0.47286 0.47907 0.46297 0.0
O580 O 0.5517 0.46206 0.44928 0.0
O581 O 0.5696 0.43474 0.50351 0.0
O582 O 0.52403 0.47218 0.53733 0.0
O583 O 0.51781 0.42278 0.53538 0.0
O584 O 0.60776 0.50739 0.53419 0.0
O585 O 0.59482 0.5329 0.56638 0.0
O586 O 0.54052 0.5425 0.57553 0.0
O587 O 0.51858 0.56777 0.52179 0.0
O588 O 0.56633 0.53267 0.48636 0.0
O589 O 0.5718 0.58185 0.48848 0.0
O590 O 0.48254 0.49706 0.4895 0.0
O591 O 0.49572 0.47186 0.45721 0.0
H592 H 0.6376 0.45402 0.50701 0.0
H593 H 0.67645 0.438 0.49372 0.0
H594 H 0.59105 0.40114 0.39384 0.0
H595 H 0.55275 0.41768 0.40704 0.0
H596 H 0.46135 0.57081 0.51644 0.0
H597 H 0.42537 0.58332 0.53785 0.0
H598 H 0.49106 0.56911 0.64865 0.0
H599 H 0.52792 0.55776 0.62698 0.0
Sm600 Sm 0.04135 0.50559 0.04562 0.0
Sm601 Sm 0.0498 0.5075 0.97611 0.0
C602 C 0.04661 0.52418 0.10455 0.0
C603 C 1.02849 0.53658 0.11677 0.0
C604 C 0.99971 0.54447 0.09229 0.0
C605 C 0.98315 0.55685 0.10448 0.0
C606 C 0.99516 0.56135 0.14128 0.0
C607 C 1.02405 0.55336 0.16559 0.0
C608 C 0.0406 0.54106 0.15336 0.0
C609 C 0.98288 0.45248 1.00579 0.0
C610 C 1.00188 0.55394 0.96653 0.0
C611 C 0.04614 0.48902 0.91791 0.0
C612 C 0.0651 0.47552 0.9083 0.0
C613 C 0.09598 0.4717 0.93373 0.0
C614 C 0.11296 0.45746 0.92461 0.0
C615 C 0.09916 0.44678 0.88998 0.0
C616 C 0.06826 0.45087 0.86462 0.0
C617 C 0.05134 0.46511 0.87377 0.0
C618 C 0.10827 0.56017 0.01674 0.0
C619 C 0.0889 0.45885 0.05511 0.0
O620 O 0.06423 0.54703 0.08096 0.0
O621 O 1.02775 0.49082 0.09719 0.0
O622 O 1.00003 0.48501 0.99398 0.0
O623 O 0.99529 0.44653 0.04097 0.0
O624 O 1.01208 0.54572 1.00358 0.0
O625 O 1.01211 0.5404 0.94928 0.0
O626 O 1.02665 0.46652 0.94013 0.0
O627 O 0.06531 0.52227 0.92564 0.0
O628 O 0.09097 0.52748 0.02784 0.0
O629 O 0.0957 0.56678 0.98164 0.0
O630 O 0.07867 0.46705 0.01807 0.0
O631 O 0.07886 0.47255 0.07236 0.0
H632 H 0.99013 0.54107 0.06388 0.0
H633 H 0.96069 0.56247 0.08525 0.0
H634 H 1.03421 0.55706 0.19397 0.0
H635 H 0.06297 0.53522 0.17245 0.0
H636 H 0.10671 0.47946 0.96064 0.0
H637 H 0.13651 0.4543 0.94479 0.0
H638 H 0.05737 0.44338 0.83756 0.0
H639 H 1.02743 0.46787 0.85394 0.0
H640 H 0.25113 0.16346 0.86421 0.0
H641 H 0.05773 0.08021 0.90016 0.0
H642 H 0.17883 0.21263 0.80298 0.0
H643 H 0.15731 0.09581 0.98903 0.0
H644 H 0.09587 0.1168 0.85805 0.0
H645 H 0.21173 0.12699 0.90452 0.0
C646 C 0.22692 0.16659 0.85918 0.0
C647 C 0.21852 0.19143 0.83019 0.0
C648 C 0.10924 0.11196 0.88676 0.0
C649 C 0.17241 0.14861 0.87582 0.0
C650 C 0.0875 0.09081 0.91072 0.0
C651 C 0.10433 0.08482 0.94821 0.0
C652 C 0.14801 0.12626 0.90019 0.0
C653 C 0.14313 0.0997 0.96039 0.0
C654 C 0.20446 0.14573 0.88225 0.0
C655 C 0.18663 0.19413 0.82513 0.0
N656 N 0.16352 0.11928 0.93655 0.0
N657 N 0.16451 0.17271 0.84739 0.0
H658 H 0.17017 0.03508 0.04998 0.0
H659 H 0.219 0.92223 0.23313 0.0
H660 H 0.12377 0.00675 0.13681 0.0
H661 H 0.2671 0.9543 0.14672 0.0
H662 H 0.20261 0.97182 0.20885 0.0
H663 H 0.22251 0.02572 0.09365 0.0
C664 C 0.17145 0.02747 0.07848 0.0
C665 C 0.14224 0.02039 0.08985 0.0
C666 C 0.21778 0.96878 0.19579 0.0
C667 C 0.20126 0.00856 0.13975 0.0
C668 C 0.22732 0.94055 0.20979 0.0
C669 C 0.24315 0.93351 0.19101 0.0
C670 C 0.22368 0.9895 0.16261 0.0
C671 C 0.25367 0.95818 0.16117 0.0
C672 C 0.20138 0.02226 0.10347 0.0
C673 C 0.14553 0.01168 0.12703 0.0
N674 N 0.24288 0.98457 0.14729 0.0
N675 N 0.17403 0.00489 0.15063 0.0
H676 H 0.46314 0.96112 0.42963 0.0
H677 H 0.29953 0.77305 0.38299 0.0
H678 H 0.44012 0.87685 0.51962 0.0
H679 H 0.38356 0.8297 0.32789 0.0
H680 H 0.34126 0.81278 0.43101 0.0
H681 H 0.42289 0.91582 0.38784 0.0
C682 C 0.44954 0.93304 0.4406 0.0
C683 C 0.4554 0.9225 0.47812 0.0
C684 C 0.35048 0.81599 0.40855 0.0
C685 C 0.40873 0.87096 0.43042 0.0
C686 C 0.32684 0.79358 0.38126 0.0
C687 C 0.33822 0.79842 0.35153 0.0
C688 C 0.38499 0.84377 0.4052 0.0
C689 C 0.37378 0.8252 0.35037 0.0
C690 C 0.42672 0.90732 0.41675 0.0
C691 C 0.4365 0.88587 0.49082 0.0
N692 N 0.39572 0.84736 0.37654 0.0
N693 N 0.41364 0.86118 0.46686 0.0
H694 H 0.31689 0.0828 0.67052 0.0
H695 H 0.5075 0.11591 0.6585 0.0
H696 H 0.42279 0.17228 0.71034 0.0
H697 H 0.40211 0.02739 0.61579 0.0
H698 H 0.47608 0.13851 0.67484 0.0
H699 H 0.3467 0.06354 0.64737 0.0
C700 C 0.34638 0.09845 0.67428 0.0
C701 C 0.36743 0.12914 0.6925 0.0
C702 C 0.45974 0.11422 0.66177 0.0
C703 C 0.40161 0.10736 0.66599 0.0
C704 C 0.47771 0.1012 0.65263 0.0
C705 C 0.45739 0.06955 0.63609 0.0
C706 C 0.42114 0.09539 0.65448 0.0
C707 C 0.41878 0.05197 0.6284 0.0
C708 C 0.36334 0.08754 0.66093 0.0
C709 C 0.40541 0.1487 0.69614 0.0
N710 N 0.40189 0.065 0.6379 0.0
N711 N 0.42129 0.13735 0.68321 0.0
H712 H 0.17919 0.93792 0.75017 0.0
H713 H 0.26599 0.84871 0.69872 0.0
H714 H 0.25712 0.99644 0.68777 0.0
H715 H 0.22608 0.8041 0.79276 0.0
H716 H 0.26071 0.90284 0.69386 0.0
H717 H 0.19772 0.88974 0.76983 0.0
C718 C 0.20107 0.94121 0.74165 0.0
C719 C 0.21586 0.97071 0.71652 0.0
C720 C 0.25317 0.8812 0.71561 0.0
C721 C 0.23635 0.91574 0.738 0.0
C722 C 0.2555 0.85007 0.71793 0.0
C723 C 0.24613 0.82188 0.74595 0.0
C724 C 0.24091 0.88385 0.74119 0.0
C725 C 0.23344 0.82528 0.77066 0.0
C726 C 0.21143 0.91365 0.75264 0.0
C727 C 0.24458 0.97403 0.70682 0.0
N728 N 0.23098 0.85572 0.7676 0.0
N729 N 0.25317 0.94634 0.71678 0.0
H730 H 0.37393 0.78712 0.86145 0.0
H731 H 0.46181 0.99255 0.89438 0.0
H732 H 0.36593 0.87337 0.77626 0.0
H733 H 0.46216 0.90585 0.98176 0.0
H734 H 0.42777 0.94908 0.85065 0.0
H735 H 0.408 0.83004 0.90617 0.0
C736 C 0.37937 0.81506 0.85221 0.0
C737 C 0.36695 0.82671 0.81521 0.0
C738 C 0.4352 0.93947 0.87939 0.0
C739 C 0.40593 0.87586 0.86589 0.0
C740 C 0.45455 0.96431 0.90433 0.0
C741 C 0.46484 0.95275 0.94166 0.0
C742 C 0.42612 0.90279 0.89186 0.0
C743 C 0.45484 0.91586 0.95314 0.0
C744 C 0.39878 0.83952 0.87767 0.0
C745 C 0.37501 0.86324 0.80455 0.0
N746 N 0.43612 0.89217 0.92833 0.0
N747 N 0.39391 0.88645 0.82973 0.0
H748 H 0.40794 0.11967 0.01706 0.0
H749 H 0.37313 0.15098 0.18073 0.0
H750 H 0.46886 0.10575 0.12987 0.0
H751 H 0.32154 0.17714 0.06743 0.0
H752 H 0.40601 0.13132 0.16268 0.0
H753 H 0.37295 0.1369 0.03511 0.0
C754 C 0.41375 0.11993 0.04566 0.0
C755 C 0.44146 0.11131 0.07198 0.0
C756 C 0.38751 0.14137 0.14176 0.0
C757 C 0.40171 0.13137 0.09282 0.0
C758 C 0.36886 0.15285 0.15204 0.0
C759 C 0.34458 0.16597 0.1256 0.0
C760 C 0.38186 0.14286 0.1047 0.0
C761 C 0.33963 0.1669 0.08882 0.0
C762 C 0.39393 0.13003 0.05593 0.0
C763 C 0.4481 0.11262 0.1086 0.0
N764 N 0.35811 0.15556 0.07949 0.0
N765 N 0.4284 0.12246 0.11791 0.0
H766 H 0.05594 0.05068 0.3777 0.0
H767 H 0.24805 0.21381 0.34387 0.0
H768 H 0.15325 0.10307 0.46385 0.0
H769 H 0.15982 0.14646 0.26225 0.0
H770 H 0.21103 0.17834 0.38663 0.0
H771 H 0.09073 0.0898 0.33356 0.0
C772 C 0.08447 0.07042 0.3874 0.0
C773 C 0.10154 0.07319 0.42478 0.0
C774 C 0.19967 0.17143 0.35928 0.0
C775 C 0.14169 0.11851 0.37415 0.0
C776 C 0.2208 0.19189 0.33478 0.0
C777 C 0.20719 0.18324 0.29931 0.0
C778 C 0.1644 0.14214 0.34827 0.0
C779 C 0.1716 0.15418 0.28929 0.0
C780 C 0.10441 0.09276 0.36215 0.0
C781 C 0.13876 0.09951 0.43547 0.0
N782 N 0.15159 0.13479 0.31347 0.0
N783 N 0.15738 0.12097 0.41047 0.0
H784 H 0.90171 0.24488 0.11981 0.0
H785 H 0.89462 0.0727 0.07912 0.0
H786 H 0.80774 0.13916 0.11834 0.0
H787 H 0.98696 0.17949 0.08062 0.0
H788 H 0.86252 0.09552 0.09475 0.0
H789 H 0.93316 0.22067 0.10586 0.0
C790 C 0.88749 0.2166 0.11624 0.0
C791 C 0.85182 0.19415 0.11999 0.0
C792 C 0.88981 0.11392 0.09163 0.0
C793 C 0.88812 0.16593 0.10449 0.0
C794 C 0.90822 0.10087 0.08289 0.0
C795 C 0.94344 0.12425 0.07821 0.0
C796 C 0.90681 0.15059 0.09589 0.0
C797 C 0.95957 0.16057 0.0832 0.0
C798 C 0.90563 0.20269 0.10853 0.0
C799 C 0.83529 0.15747 0.11593 0.0
N800 N 0.94116 0.17256 0.09169 0.0
N801 N 0.85352 0.14453 0.10832 0.0
H802 H 0.14037 0.52548 0.46667 0.0
H803 H 0.16942 0.66622 0.28889 0.0
H804 H 0.08951 0.59672 0.42037 0.0
H805 H 0.25593 0.63828 0.36373 0.0
H806 H 0.13158 0.62892 0.3299 0.0
H807 H 0.17597 0.55658 0.42277 0.0
C808 C 0.1367 0.54763 0.44725 0.0
C809 C 0.11211 0.55872 0.4471 0.0
C810 C 0.15874 0.63077 0.33714 0.0
C811 C 0.15198 0.59363 0.3968 0.0
C812 C 0.18028 0.65179 0.31367 0.0
C813 C 0.21606 0.65564 0.32315 0.0
C814 C 0.17286 0.6131 0.37006 0.0
C815 C 0.2286 0.63626 0.3556 0.0
C816 C 0.15701 0.56531 0.42236 0.0
C817 C 0.10843 0.5876 0.42156 0.0
N818 N 0.20701 0.61582 0.37808 0.0
N819 N 0.12799 0.60393 0.3972 0.0
H820 H 0.6129 0.91898 0.53396 0.0
H821 H 0.73447 0.84944 0.73552 0.0
H822 H 0.62223 0.9408 0.63469 0.0
H823 H 0.70587 0.80895 0.63784 0.0
H824 H 0.69877 0.88405 0.70065 0.0
H825 H 0.64793 0.88363 0.56871 0.0
C826 C 0.62189 0.91699 0.56332 0.0
C827 C 0.61238 0.93492 0.57936 0.0
C828 C 0.69988 0.86782 0.68613 0.0
C829 C 0.65672 0.89113 0.62302 0.0
C830 C 0.72113 0.8472 0.70679 0.0
C831 C 0.72526 0.82407 0.69172 0.0
C832 C 0.6809 0.86778 0.64774 0.0
C833 C 0.70529 0.82497 0.65305 0.0
C834 C 0.64271 0.89592 0.58391 0.0
C835 C 0.62706 0.92888 0.61876 0.0
N836 N 0.68542 0.84549 0.63374 0.0
N837 N 0.64742 0.90883 0.63783 0.0
H838 H 0.54136 0.44118 0.93445 0.0
H839 H 0.34974 0.26518 0.88661 0.0
H840 H 0.46115 0.40133 0.99115 0.0
H841 H 0.39547 0.34194 0.80156 0.0
H842 H 0.39665 0.30842 0.93018 0.0
H843 H 0.49457 0.3984 0.88999 0.0
C844 C 0.51408 0.42317 0.93775 0.0
C845 C 0.5051 0.42465 0.96655 0.0
C846 C 0.39636 0.31577 0.90197 0.0
C847 C 0.45188 0.37561 0.91631 0.0
C848 C 0.3697 0.29113 0.87714 0.0
C849 C 0.36866 0.30005 0.84044 0.0
C850 C 0.4229 0.34921 0.89026 0.0
C851 C 0.39518 0.33409 0.8296 0.0
C852 C 0.48739 0.39904 0.91229 0.0
C853 C 0.4692 0.40101 0.96936 0.0
N854 N 0.4215 0.35731 0.85447 0.0
N855 N 0.44405 0.37725 0.94482 0.0
H856 H 0.90448 0.84278 0.30619 0.0
H857 H 0.9814 0.88948 0.50669 0.0
H858 H 0.87259 0.76063 0.39488 0.0
H859 H 0.05098 0.94522 0.43605 0.0
H860 H 0.93678 0.84547 0.46365 0.0
H861 H 0.95375 0.88467 0.35046 0.0
C862 C 0.90782 0.83358 0.33495 0.0
C863 C 0.88443 0.79814 0.34691 0.0
C864 C 0.96199 0.86704 0.45772 0.0
C865 C 0.94032 0.846 0.39751 0.0
C866 C 0.9875 0.89211 0.48228 0.0
C867 C 1.02016 0.9207 0.47514 0.0
C868 C 0.96851 0.87111 0.42508 0.0
C869 C 1.02643 0.92318 0.44284 0.0
C870 C 0.93606 0.85741 0.36015 0.0
C871 C 0.89005 0.78765 0.38449 0.0
N872 N 1.00056 0.89898 0.41869 0.0
N873 N 0.9171 0.81154 0.4084 0.0
H874 H 0.48655 0.62126 0.64787 0.0
H875 H 0.30462 0.63967 0.61007 0.0
H876 H 0.38234 0.56414 0.57031 0.0
H877 H 0.41045 0.69796 0.68512 0.0
H878 H 0.33117 0.60911 0.59739 0.0
H879 H 0.45741 0.64582 0.66493 0.0
C880 C 0.45738 0.61338 0.63474 0.0
C881 C 0.43697 0.59048 0.60752 0.0
C882 C 0.3485 0.62849 0.61674 0.0
C883 C 0.40345 0.61944 0.62651 0.0
C884 C 0.33343 0.64617 0.62384 0.0
C885 C 0.35527 0.67168 0.64862 0.0
C886 C 0.38576 0.63632 0.6345 0.0
C887 C 0.39227 0.6783 0.66613 0.0
C888 C 0.4408 0.62776 0.64431 0.0
C889 C 0.39938 0.58203 0.59106 0.0
N890 N 0.40629 0.66088 0.65864 0.0
N891 N 0.38391 0.59661 0.60069 0.0
H892 H 0.57334 0.01958 0.90531 0.0
H893 H 0.7605 0.17657 0.87329 0.0
H894 H 0.64466 0.10476 0.97364 0.0
H895 H 0.66197 0.15154 0.78128 0.0
H896 H 0.72224 0.13665 0.91356 0.0
H897 H 0.60948 0.05567 0.86174 0.0
C898 C 0.59665 0.04578 0.91111 0.0
C899 C 0.6062 0.05943 0.9429 0.0
C900 C 0.70914 0.13972 0.8845 0.0
C901 C 0.64751 0.0998 0.8942 0.0
C902 C 0.73084 0.16222 0.86148 0.0
C903 C 0.71425 0.16742 0.82393 0.0
C904 C 0.67072 0.12164 0.86983 0.0
C905 C 0.67568 0.14834 0.81014 0.0
C906 C 0.61696 0.06624 0.8863 0.0
C907 C 0.63639 0.09349 0.94928 0.0
N908 N 0.65502 0.12601 0.8332 0.0
N909 N 0.65634 0.11239 0.9253 0.0
H910 H 0.11124 0.41718 0.03268 0.0
H911 H 0.23244 0.34836 0.2347 0.0
H912 H 0.12362 0.44229 0.13305 0.0
H913 H 0.20501 0.30836 0.13709 0.0
H914 H 0.19716 0.38329 0.19944 0.0
H915 H 0.14593 0.38153 0.06769 0.0
C916 C 0.12084 0.41583 0.06201 0.0
C917 C 0.11238 0.43474 0.07795 0.0
C918 C 0.19845 0.36709 0.18505 0.0
C919 C 0.15607 0.39066 0.12177 0.0
C920 C 0.21941 0.3463 0.20591 0.0
C921 C 0.22368 0.32326 0.19092 0.0
C922 C 0.17992 0.36719 0.14661 0.0
C923 C 0.20422 0.32433 0.15217 0.0
C924 C 0.14144 0.39462 0.08272 0.0
C925 C 0.12769 0.42955 0.11728 0.0
N926 N 0.18452 0.34495 0.13268 0.0
N927 N 0.14773 0.40926 0.13647 0.0
H928 H 0.55947 0.56274 0.88343 0.0
H929 H 0.75566 0.71194 0.84946 0.0
H930 H 0.6613 0.59704 0.97097 0.0
H931 H 0.66079 0.65164 0.76635 0.0
H932 H 0.72016 0.67687 0.89374 0.0
H933 H 0.59461 0.6013 0.83976 0.0
C934 C 0.58919 0.57838 0.89358 0.0
C935 C 0.60728 0.57623 0.93117 0.0
C936 C 0.70707 0.67148 0.86574 0.0
C937 C 0.64797 0.62119 0.88089 0.0
C938 C 0.72728 0.69174 0.84038 0.0
C939 C 0.71126 0.68489 0.80399 0.0
C940 C 0.67032 0.64442 0.85463 0.0
C941 C 0.67439 0.65794 0.79403 0.0
C942 C 0.60931 0.60044 0.86853 0.0
C943 C 0.646 0.59743 0.94237 0.0
N944 N 0.6553 0.6389 0.819 0.0
N945 N 0.66491 0.61898 0.91749 0.0
H946 H 0.76184 0.3201 0.30118 0.0
H947 H 0.59885 0.37042 0.18058 0.0
H948 H 0.68131 0.27574 0.20239 0.0
H949 H 0.69559 0.43515 0.25979 0.0
H950 H 0.61691 0.32219 0.20358 0.0
H951 H 0.72845 0.35137 0.29765 0.0
C952 C 0.7368 0.31663 0.27892 0.0
C953 C 0.72441 0.29576 0.25168 0.0
C954 C 0.63362 0.34653 0.21662 0.0
C955 C 0.68532 0.33016 0.24857 0.0
C956 C 0.62307 0.37393 0.20391 0.0
C957 C 0.64648 0.40723 0.21767 0.0
C958 C 0.6677 0.3527 0.2431 0.0
C959 C 0.67741 0.41018 0.24786 0.0
C960 C 0.71755 0.33411 0.27726 0.0
C961 C 0.69198 0.29215 0.22351 0.0
N962 N 0.68773 0.38353 0.25904 0.0
N963 N 0.67346 0.30933 0.22262 0.0
H964 H 0.96782 0.40571 0.47358 0.0
H965 H 0.85527 0.37439 0.2663 0.0
H966 H 0.97149 0.49243 0.38531 0.0
H967 H 0.87967 0.29245 0.34671 0.0
H968 H 0.89405 0.41693 0.31103 0.0
H969 H 0.9318 0.36242 0.42909 0.0
C970 C 0.96125 0.41562 0.44486 0.0
C971 C 0.97271 0.45266 0.43303 0.0
C972 C 0.89101 0.38967 0.31895 0.0
C973 C 0.93122 0.40349 0.38224 0.0
C974 C 0.86886 0.36536 0.29342 0.0
C975 C 0.86401 0.32978 0.30297 0.0
C976 C 0.90827 0.37827 0.35445 0.0
C977 C 0.88229 0.31953 0.33847 0.0
C978 C 0.94071 0.39096 0.41953 0.0
C979 C 0.96316 0.46409 0.39558 0.0
N980 N 0.90347 0.34363 0.36308 0.0
N981 N 0.94282 0.4396 0.37154 0.0
H982 H 0.60658 0.63688 0.44742 0.0
H983 H 0.72115 0.63906 0.33434 0.0
H984 H 0.60866 0.54078 0.44321 0.0
H985 H 0.72076 0.73407 0.34461 0.0
H986 H 0.67981 0.60247 0.37262 0.0
H987 H 0.64712 0.67173 0.40876 0.0
C988 C 0.61545 0.62293 0.43825 0.0
C989 C 0.60388 0.5856 0.44874 0.0
C990 C 0.68874 0.63129 0.36655 0.0
C991 C 0.65121 0.62609 0.40383 0.0
C992 C 0.71247 0.65239 0.34459 0.0
C993 C 0.72478 0.69005 0.33594 0.0
C994 C 0.67681 0.64766 0.38023 0.0
C995 C 0.71228 0.70533 0.35031 0.0
C996 C 0.63881 0.64305 0.41607 0.0
C997 C 0.6166 0.56938 0.4358 0.0
N998 N 0.68913 0.6842 0.37154 0.0
N999 N 0.63954 0.58968 0.41411 0.0
H1000 H 0.79497 0.28144 0.88189 0.0
H1001 H 0.96051 0.46352 0.93256 0.0
H1002 H 0.88235 0.33278 0.8316 0.0
H1003 H 0.94183 0.37937 0.02349 0.0
H1004 H 0.91921 0.41812 0.89116 0.0
H1005 H 0.83779 0.31817 0.93219 0.0
C1006 C 0.82324 0.30006 0.88175 0.0
C1007 C 0.83522 0.30461 0.85254 0.0
C1008 C 0.92418 0.40968 0.9202 0.0
C1009 C 0.88327 0.34634 0.90888 0.0
C1010 C 0.94757 0.43544 0.94384 0.0
C1011 C 0.95506 0.42497 0.98147 0.0
C1012 C 0.90725 0.3733 0.93418 0.0
C1013 C 0.93695 0.38831 0.99457 0.0
C1014 C 0.84749 0.32068 0.91037 0.0
C1015 C 0.87203 0.32874 0.85352 0.0
N1016 N 0.91349 0.36348 0.97077 0.0
N1017 N 0.89461 0.34935 0.88091 0.0
H1018 H 0.87282 0.87187 0.19207 0.0
H1019 H 0.97986 0.87257 0.07138 0.0
H1020 H 0.8727 0.77623 0.18273 0.0
H1021 H 0.98413 0.96921 0.0838 0.0
H1022 H 0.94117 0.83733 0.1122 0.0
H1023 H 0.91315 0.90766 0.15288 0.0
C1024 C 0.88116 0.85823 0.18181 0.0
C1025 C 0.86899 0.82066 0.19096 0.0
C1026 C 0.9506 0.86623 0.10622 0.0
C1027 C 0.9158 0.86212 0.14555 0.0
C1028 C 0.97286 0.8865 0.08287 0.0
C1029 C 0.98553 0.92408 0.07408 0.0
C1030 C 0.94048 0.8834 0.12109 0.0
C1031 C 0.97525 0.94039 0.08985 0.0
C1032 C 0.90437 0.87887 0.15936 0.0
C1033 C 0.88111 0.80496 0.1766 0.0
N1034 N 0.95334 0.92002 0.1124 0.0
N1035 N 0.90366 0.82564 0.15473 0.0
H1036 H 0.802 0.04612 0.88693 0.0
H1037 H 0.93188 0.97565 0.89329 0.0
H1038 H 0.83618 0.05602 0.79676 0.0
H1039 H 0.91183 0.98437 0.98504 0.0
H1040 H 0.8734 0.97617 0.85429 0.0
H1041 H 0.81502 0.99475 0.91592 0.0
C1042 C 0.81086 0.03662 0.87252 0.0
C1043 C 0.81982 0.05635 0.84028 0.0
C1044 C 0.88131 0.97694 0.88316 0.0
C1045 C 0.83601 0.99867 0.87386 0.0
C1046 C 0.91478 0.97683 0.9054 0.0
C1047 C 0.9275 0.98189 0.942 0.0
C1048 C 0.86093 0.98257 0.89772 0.0
C1049 C 0.90379 0.98214 0.95653 0.0
C1050 C 0.81851 0.00736 0.88921 0.0
C1051 C 0.83059 0.04244 0.82253 0.0
N1052 N 0.87202 0.98342 0.93417 0.0
N1053 N 0.8396 0.01511 0.84012 0.0
H1054 H 0.78181 0.23361 0.64831 0.0
H1055 H 0.62464 0.04725 0.59409 0.0
H1056 H 0.69647 0.1715 0.70186 0.0
H1057 H 0.64465 0.13489 0.50632 0.0
H1058 H 0.66191 0.09096 0.63745 0.0
H1059 H 0.74111 0.19713 0.59765 0.0
C1060 C 0.75436 0.21262 0.6491 0.0
C1061 C 0.74239 0.20515 0.67922 0.0
C1062 C 0.65805 0.10056 0.60868 0.0
C1063 C 0.69676 0.16351 0.62247 0.0
C1064 C 0.63699 0.07575 0.58393 0.0
C1065 C 0.63109 0.08764 0.54657 0.0
C1066 C 0.67435 0.13745 0.59612 0.0
C1067 C 0.64834 0.12482 0.53496 0.0
C1068 C 0.73129 0.19209 0.62029 0.0
C1069 C 0.70667 0.17793 0.67912 0.0
N1070 N 0.6696 0.14867 0.55983 0.0
N1071 N 0.68531 0.15751 0.65145 0.0
H1072 H 0.68718 0.98577 0.40891 0.0
H1073 H 0.66503 0.84003 0.30959 0.0
H1074 H 0.58243 0.89903 0.36164 0.0
H1075 H 0.77001 0.92838 0.35371 0.0
H1076 H 0.63489 0.85897 0.33236 0.0
H1077 H 0.71867 0.963 0.39258 0.0
C1078 C 0.67086 0.96178 0.39534 0.0
C1079 C 0.63215 0.94438 0.38638 0.0
C1080 C 0.66454 0.87415 0.3372 0.0
C1081 C 0.66785 0.91836 0.36743 0.0
C1082 C 0.6818 0.86319 0.32442 0.0
C1083 C 0.72007 0.88271 0.32968 0.0
C1084 C 0.68567 0.90489 0.35534 0.0
C1085 C 0.74034 0.91286 0.3486 0.0
C1086 C 0.6888 0.94889 0.38588 0.0
C1087 C 0.61228 0.9136 0.3685 0.0
N1088 N 0.72286 0.9231 0.36066 0.0
N1089 N 0.63036 0.90163 0.35954 0.0
H1090 H 0.85705 0.2002 0.23786 0.0
H1091 H 0.82782 0.00073 0.32341 0.0
H1092 H 0.81954 0.14096 0.33246 0.0
H1093 H 0.9116 0.07244 0.2688 0.0
H1094 H 0.8067 0.04604 0.30662 0.0
H1095 H 0.86409 0.14933 0.23437 0.0
C1096 C 0.85093 0.1767 0.25823 0.0
C1097 C 0.83832 0.17481 0.2859 0.0
C1098 C 0.82916 0.05149 0.29759 0.0
C1099 C 0.8446 0.11649 0.28099 0.0
C1100 C 0.84092 0.02534 0.30655 0.0
C1101 C 0.87263 0.03337 0.29874 0.0
C1102 C 0.84907 0.08564 0.2806 0.0
C1103 C 0.88794 0.06576 0.27652 0.0
C1104 C 0.85452 0.1477 0.25592 0.0
C1105 C 0.83015 0.14374 0.31127 0.0
N1106 N 0.8767 0.09134 0.26905 0.0
N1107 N 0.83319 0.1156 0.30804 0.0
H1108 H 0.69674 0.19052 0.19209 0.0
H1109 H 0.62952 0.99526 0.14696 0.0
H1110 H 0.72733 0.11094 0.27001 0.0
H1111 H 0.6241 0.08371 0.06384 0.0
H1112 H 0.66192 0.03608 0.1931 0.0
H1113 H 0.66588 0.15048 0.14524 0.0
C1114 C 0.69701 0.16465 0.19926 0.0
C1115 C 0.71485 0.15412 0.23479 0.0
C1116 C 0.65376 0.04662 0.16477 0.0
C1117 C 0.67924 0.10802 0.1817 0.0
C1118 C 0.6353 0.02334 0.13843 0.0
C1119 C 0.62395 0.03613 0.1016 0.0
C1120 C 0.66065 0.0829 0.15422 0.0
C1121 C 0.63215 0.07274 0.09201 0.0
C1122 C 0.67941 0.14182 0.17257 0.0
C1123 C 0.71383 0.12007 0.24291 0.0
N1124 N 0.6498 0.09483 0.1182 0.0
N1125 N 0.69631 0.09822 0.21658 0.0
H1126 H 0.7087 0.78452 0.91466 0.0
H1127 H 0.68391 0.93977 0.94922 0.0
H1128 H 0.78295 0.89813 0.89789 0.0
H1129 H 0.61672 0.82561 0.97482 0.0
H1130 H 0.7203 0.92552 0.92977 0.0
H1131 H 0.67399 0.7995 0.93552 0.0
C1132 C 0.71763 0.81265 0.91521 0.0
C1133 C 0.74875 0.84008 0.90437 0.0
C1134 C 0.6976 0.90361 0.93967 0.0
C1135 C 0.7092 0.85749 0.92859 0.0
C1136 C 0.6769 0.91173 0.95097 0.0
C1137 C 0.64702 0.88387 0.96358 0.0
C1138 C 0.68837 0.86736 0.94092 0.0
C1139 C 0.63901 0.84802 0.96471 0.0
C1140 C 0.69791 0.82119 0.92735 0.0
C1141 C 0.75935 0.87605 0.90629 0.0
N1142 N 0.65948 0.84085 0.9535 0.0
N1143 N 0.73955 0.88371 0.91804 0.0
H1144 H 1.03314 0.95764 0.63986 0.0
H1145 H 0.84093 0.7971 0.67598 0.0
H1146 H 0.93501 0.90517 0.55441 0.0
H1147 H 0.93056 0.86519 0.75641 0.0
H1148 H 0.87743 0.83144 0.63261 0.0
H1149 H 0.99861 0.91955 0.68438 0.0
C1150 C 1.00447 0.93809 0.63039 0.0
C1151 C 0.98711 0.935 0.59308 0.0
C1152 C 0.8892 0.83875 0.65983 0.0
C1153 C 0.94723 0.89084 0.64418 0.0
C1154 C 0.86836 0.81895 0.68467 0.0
C1155 C 0.88253 0.82818 0.71998 0.0
C1156 C 0.92472 0.8679 0.67036 0.0
C1157 C 0.91834 0.85706 0.72951 0.0
C1158 C 0.98468 0.91633 0.65586 0.0
C1159 C 0.94973 0.90895 0.58271 0.0
N1160 N 0.93804 0.87576 0.70502 0.0
N1161 N 0.93123 0.88804 0.60793 0.0
H1162 H 0.14555 0.74969 0.8886 0.0
H1163 H 0.17152 0.90557 0.97673 0.0
H1164 H 0.25168 0.82718 0.94689 0.0
H1165 H 0.06527 0.82577 0.92138 0.0
H1166 H 0.20114 0.8754 0.96894 0.0
H1167 H 0.11557 0.77585 0.90235 0.0
C1168 C 0.16258 0.77225 0.90425 0.0
C1169 C 0.20126 0.78636 0.91641 0.0
C1170 C 0.17132 0.86436 0.95866 0.0
C1171 C 0.16699 0.81636 0.93255 0.0
C1172 C 0.15432 0.88144 0.96334 0.0
C1173 C 0.11577 0.86834 0.94957 0.0
C1174 C 0.1497 0.83393 0.94 0.0
C1175 C 0.09509 0.83725 0.93194 0.0
C1176 C 0.14541 0.78706 0.91229 0.0
C1177 C 0.22179 0.81521 0.93719 0.0
N1178 N 0.11231 0.82125 0.92754 0.0
N1179 N 0.20444 0.82936 0.94441 0.0
H1180 H 0.99478 0.39761 0.61521 0.0
H1181 H 0.82784 0.36211 0.67286 0.0
H1182 H 0.94609 0.47067 0.57196 0.0
H1183 H 0.91228 0.33003 0.7446 0.0
H1184 H 0.86663 0.39893 0.63209 0.0
H1185 H 0.95919 0.36735 0.65883 0.0
C1186 C 0.97643 0.40712 0.61477 0.0
C1187 C 0.97331 0.43662 0.59003 0.0
C1188 C 0.87671 0.38414 0.65704 0.0
C1189 C 0.93268 0.40226 0.63968 0.0
C1190 C 0.85469 0.36321 0.68029 0.0
C1191 C 0.86676 0.3428 0.712 0.0
C1192 C 0.91054 0.38395 0.66537 0.0
C1193 C 0.90179 0.34522 0.72038 0.0
C1194 C 0.95643 0.3901 0.63984 0.0
C1195 C 0.94939 0.4481 0.5908 0.0
N1196 N 0.92221 0.36498 0.69691 0.0
N1197 N 0.92968 0.43068 0.61511 0.0
H1198 H 0.4752 0.09239 0.48896 0.0
H1199 H 0.35635 0.16391 0.2867 0.0
H1200 H 0.46687 0.07112 0.38839 0.0
H1201 H 0.38315 0.20313 0.38456 0.0
H1202 H 0.39161 0.12894 0.32187 0.0
H1203 H 0.44059 0.12811 0.454 0.0
C1204 C 0.46651 0.09458 0.45959 0.0
C1205 C 0.47614 0.07668 0.44366 0.0
C1206 C 0.39019 0.14496 0.33636 0.0
C1207 C 0.43238 0.12093 0.39976 0.0
C1208 C 0.36921 0.16579 0.31553 0.0
C1209 C 0.36474 0.18869 0.33056 0.0
C1210 C 0.40853 0.14454 0.37488 0.0
C1211 C 0.38406 0.18733 0.36938 0.0
C1212 C 0.44594 0.11587 0.43888 0.0
C1213 C 0.46189 0.08299 0.40424 0.0
N1214 N 0.4037 0.16662 0.38885 0.0
N1215 N 0.44179 0.10326 0.38504 0.0
H1216 H 0.62959 0.59177 0.05184 0.0
H1217 H 0.69743 0.7556 0.14102 0.0
H1218 H 0.541 0.60176 0.05959 0.0
H1219 H 0.71876 0.6685 0.21325 0.0
H1220 H 0.64961 0.71309 0.09667 0.0
H1221 H 0.67358 0.63384 0.09699 0.0
C1222 C 0.61932 0.60272 0.06305 0.0
C1223 C 0.58135 0.59253 0.0525 0.0
C1224 C 0.66482 0.70349 0.12233 0.0
C1225 C 0.63193 0.64191 0.10288 0.0
C1226 C 0.69216 0.72762 0.14752 0.0
C1227 C 0.71231 0.71561 0.18081 0.0
C1228 C 0.65842 0.66743 0.13006 0.0
C1229 C 0.70415 0.67898 0.18786 0.0
C1230 C 0.64449 0.62677 0.08868 0.0
C1231 C 0.56992 0.60854 0.06725 0.0
N1232 N 0.67826 0.65629 0.16245 0.0
N1233 N 0.59518 0.63272 0.09156 0.0
H1234 H 0.18534 0.16419 0.71377 0.0
H1235 H 1.03268 0.06227 0.57856 0.0
H1236 H 0.21779 0.24272 0.62321 0.0
H1237 H 0.11102 0.1141 0.51734 0.0
H1238 H 0.07753 0.1045 0.62389 0.0
H1239 H 0.13552 0.12114 0.67105 0.0
C1240 C 0.18196 0.17237 0.68489 0.0
C1241 C 0.20565 0.20717 0.67199 0.0
C1242 C 0.08484 0.10659 0.60051 0.0
C1243 C 0.14857 0.15813 0.62294 0.0
C1244 C 0.05907 0.08285 0.57443 0.0
C1245 C 0.06818 0.08479 0.54418 0.0
C1246 C 0.11966 0.13272 0.59591 0.0
C1247 C 0.10293 0.11171 0.54031 0.0
C1248 C 0.15326 0.14792 0.6605 0.0
C1249 C 0.20004 0.21626 0.63429 0.0
N1250 N 0.12726 0.1347 0.56569 0.0
N1251 N 0.17236 0.1918 0.61116 0.0
H1252 H 0.75264 0.298 0.46739 0.0
H1253 H 0.64567 0.41942 0.37877 0.0
H1254 H 0.7125 0.32684 0.35197 0.0
H1255 H 0.67556 0.38231 0.49363 0.0
H1256 H 0.67505 0.39003 0.36918 0.0
H1257 H 0.72966 0.33307 0.47826 0.0
C1258 C 0.73936 0.31194 0.4443 0.0
C1259 C 0.73456 0.3093 0.40862 0.0
C1260 C 0.67538 0.38847 0.39653 0.0
C1261 C 0.70788 0.3494 0.42093 0.0
C1262 C 0.65849 0.4052 0.40203 0.0
C1263 C 0.65785 0.40325 0.43706 0.0
C1264 C 0.69184 0.36952 0.42624 0.0
C1265 C 0.67561 0.38492 0.46618 0.0
C1266 C 0.72604 0.33182 0.45055 0.0
C1267 C 0.71658 0.32765 0.37988 0.0
N1268 N 0.69164 0.36863 0.46009 0.0
N1269 N 0.70393 0.34679 0.38664 0.0
H1270 H 0.51391 0.97349 0.1343 0.0
H1271 H 0.32272 0.81765 0.15988 0.0
H1272 H 0.44545 0.88673 0.06782 0.0
H1273 H 0.41775 0.85004 0.25457 0.0
H1274 H 0.36319 0.85545 0.12114 0.0
H1275 H 0.47477 0.93934 0.1752 0.0
C1276 C 0.49068 0.94727 0.12842 0.0
C1277 C 0.48278 0.93267 0.09789 0.0
C1278 C 0.375 0.85447 0.1504 0.0
C1279 C 0.43793 0.8945 0.14348 0.0
C1280 C 0.35202 0.83325 0.17249 0.0
C1281 C 0.36708 0.83076 0.21042 0.0
C1282 C 0.41308 0.87388 0.16636 0.0
C1283 C 0.40524 0.85122 0.22539 0.0
C1284 C 0.46858 0.92793 0.15168 0.0
C1285 C 0.45253 0.89868 0.0913 0.0
N1286 N 0.42711 0.87217 0.20322 0.0
N1287 N 0.43083 0.88086 0.11373 0.0
H1288 H 0.98019 0.59626 0.98888 0.0
H1289 H 0.85595 0.66252 0.78745 0.0
H1290 H 0.96616 0.56968 0.88861 0.0
H1291 H 0.88677 0.70546 0.88433 0.0
H1292 H 0.89138 0.62771 0.8226 0.0
H1293 H 0.94537 0.63179 0.95393 0.0
C1294 C 0.97018 0.59724 0.95959 0.0
C1295 C 0.97826 0.57796 0.94368 0.0
C1296 C 0.89081 0.64453 0.83686 0.0
C1297 C 0.93433 0.62189 0.89989 0.0
C1298 C 0.86975 0.66525 0.81606 0.0
C1299 C 0.86636 0.68908 0.83087 0.0
C1300 C 0.91033 0.64527 0.87508 0.0
C1301 C 0.88681 0.68884 0.86939 0.0
C1302 C 0.94951 0.61839 0.9389 0.0
C1303 C 0.96243 0.58272 0.90438 0.0
N1304 N 0.90655 0.66824 0.88884 0.0
N1305 N 0.94228 0.60293 0.88521 0.0
H1306 H 0.50988 0.41049 0.11578 0.0
H1307 H 0.37692 0.38188 0.218 0.0
H1308 H 0.44063 0.46393 0.06974 0.0
H1309 H 0.37946 0.28849 0.2071 0.0
H1310 H 0.41036 0.41789 0.17251 0.0
H1311 H 0.4731 0.37097 0.15838 0.0
C1312 C 0.48716 0.41414 0.11476 0.0
C1313 C 0.47847 0.44075 0.08905 0.0
C1314 C 0.40347 0.38949 0.17991 0.0
C1315 C 0.43662 0.39587 0.13823 0.0
C1316 C 0.38438 0.36888 0.20588 0.0
C1317 C 0.37497 0.33196 0.21615 0.0
C1318 C 0.41468 0.3736 0.16483 0.0
C1319 C 0.38568 0.31669 0.19965 0.0
C1320 C 0.46601 0.39134 0.1389 0.0
C1321 C 0.44839 0.44384 0.08894 0.0
N1322 N 0.40544 0.33766 0.17524 0.0
N1323 N 0.429 0.42214 0.11336 0.0
H1324 H 0.44002 0.61239 0.77251 0.0
H1325 H 0.27993 0.62403 0.80258 0.0
H1326 H 0.34399 0.51946 0.79848 0.0
H1327 H 0.38655 0.71366 0.80036 0.0
H1328 H 0.29685 0.5855 0.7884 0.0
H1329 H 0.4111 0.65038 0.76269 0.0
C1330 C 0.4124 0.59971 0.77495 0.0
C1331 C 0.39578 0.56312 0.7892 0.0
C1332 C 0.3168 0.61346 0.79159 0.0
C1333 C 0.36286 0.60609 0.77815 0.0
C1334 C 0.30755 0.63503 0.80071 0.0
C1335 C 0.33268 0.67135 0.80431 0.0
C1336 C 0.35124 0.62864 0.78559 0.0
C1337 C 0.36721 0.68525 0.79937 0.0
C1338 C 0.39613 0.62148 0.76978 0.0
C1339 C 0.359 0.54782 0.78943 0.0
N1340 N 0.37557 0.66382 0.79025 0.0
N1341 N 0.3443 0.56962 0.7855 0.0
H1342 H 0.11751 0.5894 0.56388 0.0
H1343 H 0.20403 0.61369 0.77501 0.0
H1344 H 0.10703 0.50112 0.65118 0.0
H1345 H 0.19937 0.70143 0.69048 0.0
H1346 H 0.16967 0.57262 0.72924 0.0
H1347 H 0.1489 0.6316 0.60887 0.0
C1348 C 0.12166 0.57893 0.59248 0.0
C1349 C 0.10963 0.54177 0.60389 0.0
C1350 C 0.176 0.60081 0.72056 0.0
C1351 C 0.14566 0.58968 0.65532 0.0
C1352 C 0.1956 0.62429 0.74674 0.0
C1353 C 0.20478 0.66105 0.73644 0.0
C1354 C 0.16553 0.61413 0.68367 0.0
C1355 C 0.19319 0.67331 0.69944 0.0
C1356 C 0.13957 0.60298 0.6181 0.0
C1357 C 0.11595 0.52958 0.64122 0.0
N1358 N 0.17429 0.64991 0.67427 0.0
N1359 N 0.13359 0.55346 0.66556 0.0
H1360 H 0.36265 0.3692 0.68154 0.0
H1361 H 0.48357 0.3685 0.57791 0.0
H1362 H 0.36896 0.27442 0.68048 0.0
H1363 H 0.48018 0.46519 0.57788 0.0
H1364 H 0.44213 0.33459 0.61576 0.0
H1365 H 0.40506 0.40481 0.64428 0.0
C1366 C 0.37282 0.3557 0.6735 0.0
C1367 C 0.36188 0.31841 0.68444 0.0
C1368 C 0.45037 0.3632 0.6077 0.0
C1369 C 0.41108 0.35966 0.64136 0.0
C1370 C 0.47423 0.38277 0.58599 0.0
C1371 C 0.48567 0.41997 0.57458 0.0
C1372 C 0.43731 0.38061 0.61842 0.0
C1373 C 0.47235 0.43666 0.58608 0.0
C1374 C 0.39721 0.37625 0.65216 0.0
C1375 C 0.37635 0.30289 0.67294 0.0
N1376 N 0.44888 0.4169 0.60725 0.0
N1377 N 0.40002 0.32347 0.6522 0.0
H1378 H 0.20038 0.66646 0.20067 0.0
H1379 H 0.14784 0.63413 1.00128 0.0
H1380 H 0.29038 0.72044 0.15358 0.0
H1381 H 0.13059 0.54684 0.08971 0.0
H1382 H 0.1892 0.67738 0.04656 0.0
H1383 H 0.16013 0.63415 0.14747 0.0
C1384 C 0.21145 0.67195 0.17883 0.0
C1385 C 0.24875 0.69549 0.18156 0.0
C1386 C 0.17617 0.64867 0.05558 0.0
C1387 C 0.20297 0.65952 0.12091 0.0
C1388 C 0.15283 0.62415 0.03002 0.0
C1389 C 0.13554 0.58704 0.04191 0.0
C1390 C 0.18099 0.63558 0.09269 0.0
C1391 C 0.14296 0.57527 0.07936 0.0
C1392 C 0.18856 0.65362 0.14866 0.0
C1393 C 0.26179 0.70192 0.1525 0.0
N1394 N 0.16465 0.5995 0.10342 0.0
N1395 N 0.23886 0.68373 0.12319 0.0
H1396 H 0.78209 0.47171 0.64584 0.0
H1397 H 0.64082 0.53081 0.63322 0.0
H1398 H 0.73172 0.44542 0.72893 0.0
H1399 H 0.67952 0.54237 0.54581 0.0
H1400 H 0.69636 0.52688 0.67701 0.0
H1401 H 0.76929 0.52365 0.62056 0.0
C1402 C 0.7693 0.47753 0.65937 0.0
C1403 C 0.75652 0.45351 0.68852 0.0
C1404 C 0.69331 0.53149 0.64823 0.0
C1405 C 0.74086 0.51196 0.6593 0.0
C1406 C 0.66161 0.53375 0.62325 0.0
C1407 C 0.65499 0.53519 0.58607 0.0
C1408 C 0.71796 0.53032 0.63564 0.0
C1409 C 0.68301 0.53968 0.57446 0.0
C1410 C 0.76204 0.50719 0.64501 0.0
C1411 C 0.74118 0.46281 0.70581 0.0
N1412 N 0.71291 0.5362 0.59919 0.0
N1413 N 0.73266 0.49069 0.69022 0.0
H1414 H 0.89763 0.59144 0.26744 0.0
H1415 H 0.9753 0.61582 0.10875 0.0
H1416 H 0.894 0.6691 0.17109 0.0
H1417 H 0.97522 0.53618 0.20382 0.0
H1418 H 0.9468 0.63687 0.13156 0.0
H1419 H 0.92807 0.5723 0.2453 0.0
C1420 C 0.90326 0.60445 0.24159 0.0
C1421 C 0.89313 0.63176 0.22096 0.0
C1422 C 0.95307 0.61482 0.14744 0.0
C1423 C 0.92813 0.61017 0.19553 0.0
C1424 C 0.9691 0.60266 0.13432 0.0
C1425 C 0.97763 0.57425 0.15446 0.0
C1426 C 0.94548 0.59837 0.18086 0.0
C1427 C 0.96953 0.55848 0.18767 0.0
C1428 C 0.92075 0.59361 0.22902 0.0
C1429 C 0.90164 0.64815 0.18798 0.0
N1430 N 0.95387 0.57074 0.19981 0.0
N1431 N 0.91853 0.63698 0.17618 0.0
H1432 H 0.97911 0.67158 0.56481 0.0
H1433 H 0.80192 0.60552 0.62746 0.0
H1434 H 0.89436 0.5609 0.56922 0.0
H1435 H 0.88688 0.71599 0.62083 0.0
H1436 H 0.83541 0.58808 0.60732 0.0
H1437 H 0.94603 0.68765 0.58673 0.0
C1438 C 0.95344 0.65062 0.57025 0.0
C1439 C 0.93943 0.61483 0.56484 0.0
C1440 C 0.84674 0.61612 0.61034 0.0
C1441 C 0.90137 0.6331 0.59043 0.0
C1442 C 0.82751 0.62617 0.62164 0.0
C1443 C 0.84153 0.66237 0.62588 0.0
C1444 C 0.88024 0.64242 0.60309 0.0
C1445 C 0.87517 0.68773 0.61846 0.0
C1446 C 0.93462 0.65981 0.58298 0.0
C1447 C 0.90639 0.58877 0.57319 0.0
N1448 N 0.89324 0.6773 0.6074 0.0
N1449 N 0.88842 0.59844 0.5854 0.0
H1450 H 0.45009 0.47326 0.39054 0.0
H1451 H 0.30899 0.53385 0.37526 0.0
H1452 H 0.41075 0.46334 0.47679 0.0
H1453 H 0.36382 0.56273 0.29524 0.0
H1454 H 0.32025 0.48106 0.3996 0.0
H1455 H 0.39504 0.47764 0.34604 0.0
C1456 C 0.42926 0.47078 0.40012 0.0
C1457 C 0.43562 0.46972 0.43717 0.0
C1458 C 0.3288 0.49829 0.37595 0.0
C1459 C 0.37318 0.47503 0.38677 0.0
C1460 C 0.32223 0.5284 0.36195 0.0
C1461 C 0.33707 0.55351 0.33431 0.0
C1462 C 0.35102 0.494 0.36268 0.0
C1463 C 0.35344 0.54477 0.3177 0.0
C1464 C 0.39783 0.47326 0.37473 0.0
C1465 C 0.40751 0.46577 0.44826 0.0
N1466 N 0.36101 0.51629 0.33285 0.0
N1467 N 0.37788 0.46947 0.42312 0.0
H1468 H 0.14244 0.3306 0.79111 0.0
H1469 H 0.17318 0.47031 0.90448 0.0
H1470 H 0.24938 0.41459 0.83914 0.0
H1471 H 0.06582 0.38908 0.85293 0.0
H1472 H 0.20201 0.44684 0.88524 0.0
H1473 H 0.11422 0.34819 0.81805 0.0
C1474 C 0.16001 0.35251 0.80763 0.0
C1475 C 0.19824 0.37137 0.81268 0.0
C1476 C 0.17215 0.43404 0.87826 0.0
C1477 C 0.16619 0.39186 0.84324 0.0
C1478 C 0.1557 0.44731 0.88941 0.0
C1479 C 0.11706 0.43176 0.88006 0.0
C1480 C 0.14978 0.40502 0.85763 0.0
C1481 C 0.09571 0.40225 0.86017 0.0
C1482 C 0.14389 0.36267 0.82283 0.0
C1483 C 0.21969 0.39976 0.83404 0.0
N1484 N 0.11236 0.38992 0.84949 0.0
N1485 N 0.20334 0.40924 0.84842 0.0
H1486 H 0.28309 0.39982 0.40001 0.0
H1487 H 0.1084 0.32713 0.46953 0.0
H1488 H 0.20077 0.2882 0.40733 0.0
H1489 H 0.18981 0.43911 0.46269 0.0
H1490 H 0.14167 0.31288 0.44588 0.0
H1491 H 0.24937 0.41515 0.42217 0.0
C1492 C 0.25802 0.37847 0.4064 0.0
C1493 C 0.24483 0.34258 0.40178 0.0
C1494 C 0.1523 0.3406 0.44948 0.0
C1495 C 0.20584 0.36011 0.42692 0.0
C1496 C 0.13338 0.34876 0.4632 0.0
C1497 C 0.14637 0.38438 0.46839 0.0
C1498 C 0.18464 0.36821 0.44081 0.0
C1499 C 0.17854 0.41132 0.45891 0.0
C1500 C 0.23866 0.38732 0.41887 0.0
C1501 C 0.21182 0.31627 0.40999 0.0
N1502 N 0.19662 0.40267 0.44574 0.0
N1503 N 0.19359 0.32554 0.42219 0.0
loop_
_geom_bond_atom_site_label_1
_geom_bond_atom_site_label_2
_geom_bond_distance
_geom_bond_site_symmetry_2
_ccdc_geom_bond_type
Sm0 C2 2.846 . S
Sm0 O20 2.543 1_655 S
Sm0 O21 2.450 . S
Sm0 O22 2.681 1_556 S
Sm0 O23 2.445 1_556 S
Sm0 O24 2.396 1_656 S
Sm0 O28 2.386 1_665 S
Sm0 O31 2.408 . S
Sm1 C11 2.846 . S
Sm1 O22 2.386 1_445 S
Sm1 O25 2.408 . S
Sm1 O26 2.543 1_455 S
Sm1 O27 2.450 . S
Sm1 O28 2.681 1_554 S
Sm1 O29 2.453 1_554 S
Sm1 O30 2.396 1_454 S
C2 Sm0 2.846 . S
C2 C3 1.506 1_655 S
C2 O20 1.261 1_655 S
C2 O21 1.242 . S
C3 C2 1.506 1_455 S
C3 C4 1.358 . S
C3 C8 1.382 1_455 S
C4 C3 1.358 . S
C4 C5 1.385 . S
C4 H32 0.930 . S
C5 C4 1.385 . S
C5 C6 1.395 . S
C5 H33 0.929 . S
C6 C5 1.395 . S
C6 C7 1.335 1_455 S
C7 C6 1.335 1_655 S
C7 C8 1.398 . S
C7 H34 0.930 . S
C8 C3 1.382 1_655 S
C8 C7 1.398 . S
C8 H35 0.929 . S
C9 O22 1.271 . S
C9 O23 1.271 . S
C10 O24 1.252 . S
C10 O25 1.272 1_565 S
C11 Sm1 2.846 . S
C11 C12 1.506 1_455 S
C11 O26 1.261 1_455 S
C11 O27 1.242 . S
C12 C11 1.506 1_655 S
C12 C13 1.358 . S
C12 C17 1.382 1_655 S
C13 C12 1.358 . S
C13 C14 1.385 . S
C13 H36 0.930 . S
C14 C13 1.385 . S
C14 C15 1.395 . S
C14 H37 0.929 . S
C15 C14 1.395 . S
C15 C16 1.335 1_655 S
C16 C15 1.335 1_455 S
C16 C17 1.398 . S
C16 H38 0.930 . S
C17 C12 1.382 1_455 S
C17 C16 1.398 . S
C17 H39 0.929 . S
C18 O28 1.271 . S
C18 O29 1.262 . S
C19 O30 1.252 . S
C19 O31 1.272 1_545 S
O20 Sm0 2.543 1_455 S
O20 C2 1.261 1_455 S
O21 Sm0 2.450 . S
O21 C2 1.242 . S
O22 Sm0 2.681 1_554 S
O22 Sm1 2.386 1_665 S
O22 C9 1.271 . S
O23 Sm0 2.445 1_554 S
O23 C9 1.271 . S
O24 Sm0 2.396 1_454 S
O24 C10 1.252 . S
O25 Sm1 2.408 . S
O25 C10 1.272 1_545 S
O26 Sm1 2.543 1_655 S
O26 C11 1.261 1_655 S
O27 Sm1 2.450 . S
O27 C11 1.242 . S
O28 Sm0 2.386 1_445 S
O28 Sm1 2.681 1_556 S
O28 C18 1.271 . S
O29 Sm1 2.453 1_556 S
O29 C18 1.262 . S
O30 Sm1 2.396 1_656 S
O30 C19 1.252 . S
O31 Sm0 2.408 . S
O31 C19 1.272 1_565 S
H32 C4 0.930 . S
H33 C5 0.929 . S
H34 C7 0.930 . S
H35 C8 0.929 . S
H36 C13 0.930 . S
H37 C14 0.929 . S
H38 C16 0.930 . S
H39 C17 0.929 . S
Sm40 C42 2.846 . S
Sm40 O60 2.543 . S
Sm40 O61 2.450 . S
Sm40 O62 2.681 . S
Sm40 O63 2.464 . S
Sm40 O64 2.396 . S
Sm40 O68 2.386 . S
Sm40 O71 2.408 . S
Sm41 C51 2.846 . S
Sm41 O62 2.386 . S
Sm41 O65 2.408 . S
Sm41 O66 2.543 . S
Sm41 O67 2.450 . S
Sm41 O68 2.681 . S
Sm41 O69 2.464 . S
Sm41 O70 2.396 . S
C42 Sm40 2.846 . S
C42 C43 1.506 . S
C42 O60 1.261 . S
C42 O61 1.242 . S
C43 C42 1.506 . S
C43 C44 1.358 . S
C43 C48 1.382 . S
C44 C43 1.358 . S
C44 C45 1.385 . S
C44 H72 0.930 . S
C45 C44 1.385 . S
C45 C46 1.395 . S
C45 H73 0.929 . S
C46 C45 1.395 . S
C46 C47 1.335 . S
C47 C46 1.335 . S
C47 C48 1.398 . S
C47 H74 0.930 . S
C48 C43 1.382 . S
C48 C47 1.398 . S
C48 H75 0.929 . S
C49 O62 1.271 . S
C49 O63 1.251 . S
C50 O64 1.252 . S
C50 O65 1.272 . S
C51 Sm41 2.846 . S
C51 C52 1.506 . S
C51 O66 1.261 . S
C51 O67 1.242 . S
C52 C51 1.506 . S
C52 C53 1.358 . S
C52 C57 1.382 . S
C53 C52 1.358 . S
C53 C54 1.385 . S
C53 H76 0.930 . S
C54 C53 1.385 . S
C54 C55 1.395 . S
C54 H77 0.929 . S
C55 C54 1.395 . S
C55 C56 1.335 . S
C56 C55 1.335 . S
C56 C57 1.398 . S
C56 H78 0.930 . S
C57 C52 1.382 . S
C57 C56 1.398 . S
C57 H79 0.929 . S
C58 O68 1.271 . S
C58 O69 1.251 . S
C59 O70 1.252 . S
C59 O71 1.272 . S
O60 Sm40 2.543 . S
O60 C42 1.261 . S
O61 Sm40 2.450 . S
O61 C42 1.242 . S
O62 Sm40 2.681 . S
O62 Sm41 2.386 . S
O62 C49 1.271 . S
O63 Sm40 2.464 . S
O63 C49 1.251 . S
O64 Sm40 2.396 . S
O64 C50 1.252 . S
O65 Sm41 2.408 . S
O65 C50 1.272 . S
O66 Sm41 2.543 . S
O66 C51 1.261 . S
O67 Sm41 2.450 . S
O67 C51 1.242 . S
O68 Sm40 2.386 . S
O68 Sm41 2.681 . S
O68 C58 1.271 . S
O69 Sm41 2.464 . S
O69 C58 1.251 . S
O70 Sm41 2.396 . S
O70 C59 1.252 . S
O71 Sm40 2.408 . S
O71 C59 1.272 . S
H72 C44 0.930 . S
H73 C45 0.929 . S
H74 C47 0.930 . S
H75 C48 0.929 . S
H76 C53 0.930 . S
H77 C54 0.929 . S
H78 C56 0.930 . S
H79 C57 0.929 . S
Sm80 C82 2.846 1_565 S
Sm80 O100 2.543 1_565 S
Sm80 O101 2.450 . S
Sm80 O102 2.681 . S
Sm80 O103 2.464 . S
Sm80 O104 2.396 1_565 S
Sm80 O108 2.386 1_565 S
Sm80 O111 2.408 . S
Sm81 C91 2.846 1_545 S
Sm81 O102 2.386 1_545 S
Sm81 O105 2.408 . S
Sm81 O106 2.543 1_545 S
Sm81 O107 2.450 . S
Sm81 O108 2.681 . S
Sm81 O109 2.464 . S
Sm81 O110 2.396 1_545 S
C82 Sm80 2.846 1_545 S
C82 C83 1.506 . S
C82 O100 1.261 . S
C82 O101 1.242 1_545 S
C83 C82 1.506 . S
C83 C84 1.358 . S
C83 C88 1.382 1_545 S
C84 C83 1.358 . S
C84 C85 1.385 . S
C84 H112 0.930 . S
C85 C84 1.385 . S
C85 C86 1.395 . S
C85 H113 0.929 . S
C86 C85 1.395 . S
C86 C87 1.334 . S
C87 C86 1.334 . S
C87 C88 1.399 1_545 S
C87 H114 0.930 1_545 S
C88 C83 1.382 1_565 S
C88 C87 1.399 1_565 S
C88 H115 0.929 . S
C89 O102 1.271 . S
C89 O103 1.251 . S
C90 O104 1.252 . S
C90 O105 1.272 . S
C91 Sm81 2.846 1_565 S
C91 C92 1.506 . S
C91 O106 1.261 . S
C91 O107 1.242 1_565 S
C92 C91 1.506 . S
C92 C93 1.358 . S
C92 C97 1.382 1_565 S
C93 C92 1.358 . S
C93 C94 1.385 . S
C93 H116 0.930 . S
C94 C93 1.385 . S
C94 C95 1.395 . S
C94 H117 0.929 . S
C95 C94 1.395 . S
C95 C96 1.314 1_565 S
C96 C95 1.314 1_545 S
C96 C97 1.416 . S
C96 H118 0.933 . S
C97 C92 1.382 1_545 S
C97 C96 1.416 . S
C97 H119 0.929 . S
C98 O108 1.271 . S
C98 O109 1.251 . S
C99 O110 1.252 . S
C99 O111 1.272 . S
O100 Sm80 2.543 1_545 S
O100 C82 1.261 . S
O101 Sm80 2.450 . S
O101 C82 1.242 1_565 S
O102 Sm80 2.681 . S
O102 Sm81 2.386 1_565 S
O102 C89 1.271 . S
O103 Sm80 2.464 . S
O103 C89 1.251 . S
O104 Sm80 2.396 1_545 S
O104 C90 1.252 . S
O105 Sm81 2.408 . S
O105 C90 1.272 . S
O106 Sm81 2.543 1_565 S
O106 C91 1.261 . S
O107 Sm81 2.450 . S
O107 C91 1.242 1_545 S
O108 Sm80 2.386 1_545 S
O108 Sm81 2.681 . S
O108 C98 1.271 . S
O109 Sm81 2.464 . S
O109 C98 1.251 . S
O110 Sm81 2.396 1_565 S
O110 C99 1.252 . S
O111 Sm80 2.408 . S
O111 C99 1.272 . S
H112 C84 0.930 . S
H113 C85 0.929 . S
H114 C87 0.930 1_565 S
H115 C88 0.929 . S
H116 C93 0.930 . S
H117 C94 0.929 . S
H118 C96 0.933 . S
H119 C97 0.929 . S
Sm120 C122 2.846 . S
Sm120 O140 2.543 . S
Sm120 O141 2.450 . S
Sm120 O142 2.681 . S
Sm120 O143 2.464 . S
Sm120 O144 2.396 . S
Sm120 O148 2.386 . S
Sm120 O151 2.408 . S
Sm121 C131 2.846 . S
Sm121 O142 2.386 . S
Sm121 O145 2.408 . S
Sm121 O146 2.543 . S
Sm121 O147 2.450 . S
Sm121 O148 2.681 . S
Sm121 O149 2.464 . S
Sm121 O150 2.396 . S
C122 Sm120 2.846 . S
C122 C123 1.506 . S
C122 O140 1.261 . S
C122 O141 1.242 . S
C123 C122 1.506 . S
C123 C124 1.358 . S
C123 C128 1.382 . S
C124 C123 1.358 . S
C124 C125 1.385 . S
C124 H152 0.930 . S
C125 C124 1.385 . S
C125 C126 1.395 . S
C125 H153 0.929 . S
C126 C125 1.395 . S
C126 C127 1.335 . S
C127 C126 1.335 . S
C127 C128 1.398 . S
C127 H154 0.930 . S
C128 C123 1.382 . S
C128 C127 1.398 . S
C128 H155 0.929 . S
C129 O142 1.271 . S
C129 O143 1.251 . S
C130 O144 1.252 . S
C130 O145 1.272 . S
C131 Sm121 2.846 . S
C131 C132 1.506 . S
C131 O146 1.261 . S
C131 O147 1.242 . S
C132 C131 1.506 . S
C132 C133 1.358 . S
C132 C137 1.382 . S
C133 C132 1.358 . S
C133 C134 1.385 . S
C133 H156 0.930 . S
C134 C133 1.385 . S
C134 C135 1.395 . S
C134 H157 0.929 . S
C135 C134 1.395 . S
C135 C136 1.335 . S
C136 C135 1.335 . S
C136 C137 1.398 . S
C136 H158 0.930 . S
C137 C132 1.382 . S
C137 C136 1.398 . S
C137 H159 0.929 . S
C138 O148 1.271 . S
C138 O149 1.251 . S
C139 O150 1.252 . S
C139 O151 1.272 . S
O140 Sm120 2.543 . S
O140 C122 1.261 . S
O141 Sm120 2.450 . S
O141 C122 1.242 . S
O142 Sm120 2.681 . S
O142 Sm121 2.386 . S
O142 C129 1.271 . S
O143 Sm120 2.464 . S
O143 C129 1.251 . S
O144 Sm120 2.396 . S
O144 C130 1.252 . S
O145 Sm121 2.408 . S
O145 C130 1.272 . S
O146 Sm121 2.543 . S
O146 C131 1.261 . S
O147 Sm121 2.450 . S
O147 C131 1.242 . S
O148 Sm120 2.386 . S
O148 Sm121 2.681 . S
O148 C138 1.271 . S
O149 Sm121 2.464 . S
O149 C138 1.251 . S
O150 Sm121 2.396 . S
O150 C139 1.252 . S
O151 Sm120 2.408 . S
O151 C139 1.272 . S
H152 C124 0.930 . S
H153 C125 0.929 . S
H154 C127 0.930 . S
H155 C128 0.929 . S
H156 C133 0.930 . S
H157 C134 0.929 . S
H158 C136 0.930 . S
H159 C137 0.929 . S
Sm160 C162 2.846 . S
Sm160 O180 2.543 . S
Sm160 O181 2.450 . S
Sm160 O182 2.681 1_455 S
Sm160 O183 2.464 1_455 S
Sm160 O184 2.396 1_455 S
Sm160 O188 2.386 1_565 S
Sm160 O191 2.408 1_565 S
Sm161 C171 2.846 . S
Sm161 O182 2.386 1_545 S
Sm161 O185 2.408 1_545 S
Sm161 O186 2.543 . S
Sm161 O187 2.450 . S
Sm161 O188 2.681 1_655 S
Sm161 O189 2.464 1_655 S
Sm161 O190 2.396 1_655 S
C162 Sm160 2.846 . S
C162 C163 1.506 . S
C162 O180 1.261 . S
C162 O181 1.242 . S
C163 C162 1.506 . S
C163 C164 1.358 . S
C163 C168 1.382 . S
C164 C163 1.358 . S
C164 C165 1.385 . S
C164 H192 0.930 . S
C165 C164 1.385 . S
C165 C166 1.395 . S
C165 H193 0.929 . S
C166 C165 1.395 . S
C166 C167 1.335 . S
C167 C166 1.335 . S
C167 C168 1.398 . S
C167 H194 0.930 . S
C168 C163 1.382 . S
C168 C167 1.398 . S
C168 H195 0.929 . S
C169 O182 1.271 . S
C169 O183 1.251 . S
C170 O184 1.252 . S
C170 O185 1.272 . S
C171 Sm161 2.846 . S
C171 C172 1.506 . S
C171 O186 1.261 . S
C171 O187 1.242 . S
C172 C171 1.506 . S
C172 C173 1.358 . S
C172 C177 1.382 . S
C173 C172 1.358 . S
C173 C174 1.385 . S
C173 H196 0.930 . S
C174 C173 1.385 . S
C174 C175 1.395 . S
C174 H197 0.929 . S
C175 C174 1.395 . S
C175 C176 1.335 . S
C176 C175 1.335 . S
C176 C177 1.398 . S
C176 H198 0.930 . S
C177 C172 1.382 . S
C177 C176 1.398 . S
C177 H199 0.929 . S
C178 O188 1.271 . S
C178 O189 1.251 . S
C179 O190 1.252 . S
C179 O191 1.272 . S
O180 Sm160 2.543 . S
O180 C162 1.261 . S
O181 Sm160 2.450 . S
O181 C162 1.242 . S
O182 Sm160 2.681 1_655 S
O182 Sm161 2.386 1_565 S
O182 C169 1.271 . S
O183 Sm160 2.464 1_655 S
O183 C169 1.251 . S
O184 Sm160 2.396 1_655 S
O184 C170 1.252 . S
O185 Sm161 2.408 1_565 S
O185 C170 1.272 . S
O186 Sm161 2.543 . S
O186 C171 1.261 . S
O187 Sm161 2.450 . S
O187 C171 1.242 . S
O188 Sm160 2.386 1_545 S
O188 Sm161 2.681 1_455 S
O188 C178 1.271 . S
O189 Sm161 2.464 1_455 S
O189 C178 1.251 . S
O190 Sm161 2.396 1_455 S
O190 C179 1.252 . S
O191 Sm160 2.408 1_545 S
O191 C179 1.272 . S
H192 C164 0.930 . S
H193 C165 0.929 . S
H194 C167 0.930 . S
H195 C168 0.929 . S
H196 C173 0.930 . S
H197 C174 0.929 . S
H198 C176 0.930 . S
H199 C177 0.929 . S
Sm200 C202 2.846 . S
Sm200 O220 2.543 . S
Sm200 O221 2.450 . S
Sm200 O222 2.681 . S
Sm200 O223 2.464 . S
Sm200 O224 2.396 . S
Sm200 O228 2.386 . S
Sm200 O231 2.408 . S
Sm201 C211 2.846 . S
Sm201 O222 2.386 . S
Sm201 O225 2.408 . S
Sm201 O226 2.543 . S
Sm201 O227 2.450 . S
Sm201 O228 2.681 . S
Sm201 O229 2.464 . S
Sm201 O230 2.396 . S
C202 Sm200 2.846 . S
C202 C203 1.506 . S
C202 O220 1.261 . S
C202 O221 1.242 . S
C203 C202 1.506 . S
C203 C204 1.358 . S
C203 C208 1.382 . S
C204 C203 1.358 . S
C204 C205 1.385 . S
C204 H232 0.930 . S
C205 C204 1.385 . S
C205 C206 1.395 . S
C205 H233 0.929 . S
C206 C205 1.395 . S
C206 C207 1.335 . S
C207 C206 1.335 . S
C207 C208 1.398 . S
C207 H234 0.930 . S
C208 C203 1.382 . S
C208 C207 1.398 . S
C208 H235 0.929 . S
C209 O222 1.271 . S
C209 O223 1.251 . S
C210 O224 1.252 . S
C210 O225 1.272 . S
C211 Sm201 2.846 . S
C211 C212 1.506 . S
C211 O226 1.261 . S
C211 O227 1.242 . S
C212 C211 1.506 . S
C212 C213 1.358 . S
C212 C217 1.382 . S
C213 C212 1.358 . S
C213 C214 1.385 . S
C213 H236 0.930 . S
C214 C213 1.385 . S
C214 C215 1.395 . S
C214 H237 0.929 . S
C215 C214 1.395 . S
C215 C216 1.335 . S
C216 C215 1.335 . S
C216 C217 1.398 . S
C216 H238 0.930 . S
C217 C212 1.382 . S
C217 C216 1.398 . S
C217 H239 0.929 . S
C218 O228 1.271 . S
C218 O229 1.251 . S
C219 O230 1.252 . S
C219 O231 1.272 . S
O220 Sm200 2.543 . S
O220 C202 1.261 . S
O221 Sm200 2.450 . S
O221 C202 1.242 . S
O222 Sm200 2.681 . S
O222 Sm201 2.386 . S
O222 C209 1.271 . S
O223 Sm200 2.464 . S
O223 C209 1.251 . S
O224 Sm200 2.396 . S
O224 C210 1.252 . S
O225 Sm201 2.408 . S
O225 C210 1.272 . S
O226 Sm201 2.543 . S
O226 C211 1.261 . S
O227 Sm201 2.450 . S
O227 C211 1.242 . S
O228 Sm200 2.386 . S
O228 Sm201 2.681 . S
O228 C218 1.271 . S
O229 Sm201 2.464 . S
O229 C218 1.251 . S
O230 Sm201 2.396 . S
O230 C219 1.252 . S
O231 Sm200 2.408 . S
O231 C219 1.272 . S
H232 C204 0.930 . S
H233 C205 0.929 . S
H234 C207 0.930 . S
H235 C208 0.929 . S
H236 C213 0.930 . S
H237 C214 0.929 . S
H238 C216 0.930 . S
H239 C217 0.929 . S
Sm240 C242 2.846 1_554 S
Sm240 O260 2.543 1_554 S
Sm240 O261 2.450 . S
Sm240 O262 2.681 1_565 S
Sm240 O263 2.464 1_565 S
Sm240 O264 2.396 1_564 S
Sm240 O268 2.386 1_554 S
Sm240 O271 2.408 . S
Sm241 C251 2.846 1_556 S
Sm241 O262 2.386 1_556 S
Sm241 O265 2.408 . S
Sm241 O266 2.543 1_556 S
Sm241 O267 2.450 . S
Sm241 O268 2.681 1_545 S
Sm241 O269 2.464 1_545 S
Sm241 O270 2.396 1_546 S
C242 Sm240 2.846 1_556 S
C242 C243 1.506 . S
C242 O260 1.261 . S
C242 O261 1.242 1_556 S
C243 C242 1.506 . S
C243 C244 1.358 . S
C243 C248 1.382 . S
C244 C243 1.358 . S
C244 C245 1.385 . S
C244 H272 0.930 . S
C245 C244 1.385 . S
C245 C246 1.395 . S
C245 H273 0.929 . S
C246 C245 1.395 . S
C246 C247 1.335 . S
C247 C246 1.335 . S
C247 C248 1.398 . S
C247 H274 0.930 . S
C248 C243 1.382 . S
C248 C247 1.398 . S
C248 H275 0.929 1_556 S
C249 O262 1.271 . S
C249 O263 1.251 . S
C250 O264 1.252 . S
C250 O265 1.272 . S
C251 Sm241 2.846 1_554 S
C251 C252 1.506 . S
C251 O266 1.261 . S
C251 O267 1.242 1_554 S
C252 C251 1.506 . S
C252 C253 1.358 . S
C252 C257 1.382 . S
C253 C252 1.358 . S
C253 C254 1.385 . S
C253 H276 0.930 . S
C254 C253 1.385 . S
C254 C255 1.395 . S
C254 H277 0.929 . S
C255 C254 1.395 . S
C255 C256 1.335 . S
C256 C255 1.335 . S
C256 C257 1.398 . S
C256 H278 0.930 . S
C257 C252 1.382 . S
C257 C256 1.398 . S
C257 H279 0.929 1_554 S
C258 O268 1.271 . S
C258 O269 1.251 . S
C259 O270 1.252 . S
C259 O271 1.272 . S
O260 Sm240 2.543 1_556 S
O260 C242 1.261 . S
O261 Sm240 2.450 . S
O261 C242 1.242 1_554 S
O262 Sm240 2.681 1_545 S
O262 Sm241 2.386 1_554 S
O262 C249 1.271 . S
O263 Sm240 2.464 1_545 S
O263 C249 1.251 . S
O264 Sm240 2.396 1_546 S
O264 C250 1.252 . S
O265 Sm241 2.408 . S
O265 C250 1.272 . S
O266 Sm241 2.543 1_554 S
O266 C251 1.261 . S
O267 Sm241 2.450 . S
O267 C251 1.242 1_556 S
O268 Sm240 2.386 1_556 S
O268 Sm241 2.681 1_565 S
O268 C258 1.271 . S
O269 Sm241 2.464 1_565 S
O269 C258 1.251 . S
O270 Sm241 2.396 1_564 S
O270 C259 1.252 . S
O271 Sm240 2.408 . S
O271 C259 1.272 . S
H272 C244 0.930 . S
H273 C245 0.929 . S
H274 C247 0.930 . S
H275 C248 0.929 1_554 S
H276 C253 0.930 . S
H277 C254 0.929 . S
H278 C256 0.930 . S
H279 C257 0.929 1_556 S
Sm280 C282 2.846 . S
Sm280 O300 2.543 . S
Sm280 O301 2.450 . S
Sm280 O302 2.681 . S
Sm280 O303 2.464 . S
Sm280 O304 2.396 . S
Sm280 O308 2.386 . S
Sm280 O311 2.408 . S
Sm281 C291 2.846 . S
Sm281 O302 2.386 . S
Sm281 O305 2.408 . S
Sm281 O306 2.543 . S
Sm281 O307 2.450 . S
Sm281 O308 2.681 . S
Sm281 O309 2.464 . S
Sm281 O310 2.396 . S
C282 Sm280 2.846 . S
C282 C283 1.506 . S
C282 O300 1.261 . S
C282 O301 1.242 . S
C283 C282 1.506 . S
C283 C284 1.358 . S
C283 C288 1.382 . S
C284 C283 1.358 . S
C284 C285 1.385 . S
C284 H312 0.930 . S
C285 C284 1.385 . S
C285 C286 1.395 . S
C285 H313 0.929 . S
C286 C285 1.395 . S
C286 C287 1.335 . S
C287 C286 1.335 . S
C287 C288 1.398 . S
C287 H314 0.930 . S
C288 C283 1.382 . S
C288 C287 1.398 . S
C288 H315 0.929 . S
C289 O302 1.271 . S
C289 O303 1.251 . S
C290 O304 1.252 . S
C290 O305 1.272 . S
C291 Sm281 2.846 . S
C291 C292 1.506 . S
C291 O306 1.261 . S
C291 O307 1.242 . S
C292 C291 1.506 . S
C292 C293 1.358 . S
C292 C297 1.382 . S
C293 C292 1.358 . S
C293 C294 1.385 . S
C293 H316 0.930 . S
C294 C293 1.385 . S
C294 C295 1.395 . S
C294 H317 0.929 . S
C295 C294 1.395 . S
C295 C296 1.335 . S
C296 C295 1.335 . S
C296 C297 1.398 . S
C296 H318 0.930 . S
C297 C292 1.382 . S
C297 C296 1.398 . S
C297 H319 0.929 . S
C298 O308 1.271 . S
C298 O309 1.251 . S
C299 O310 1.252 . S
C299 O311 1.272 . S
O300 Sm280 2.543 . S
O300 C282 1.261 . S
O301 Sm280 2.450 . S
O301 C282 1.242 . S
O302 Sm280 2.681 . S
O302 Sm281 2.386 . S
O302 C289 1.271 . S
O303 Sm280 2.464 . S
O303 C289 1.251 . S
O304 Sm280 2.396 . S
O304 C290 1.252 . S
O305 Sm281 2.408 . S
O305 C290 1.272 . S
O306 Sm281 2.543 . S
O306 C291 1.261 . S
O307 Sm281 2.450 . S
O307 C291 1.242 . S
O308 Sm280 2.386 . S
O308 Sm281 2.681 . S
O308 C298 1.271 . S
O309 Sm281 2.464 . S
O309 C298 1.251 . S
O310 Sm281 2.396 . S
O310 C299 1.252 . S
O311 Sm280 2.408 . S
O311 C299 1.272 . S
H312 C284 0.930 . S
H313 C285 0.929 . S
H314 C287 0.930 . S
H315 C288 0.929 . S
H316 C293 0.930 . S
H317 C294 0.929 . S
H318 C296 0.930 . S
H319 C297 0.929 . S
Sm320 C322 2.846 . S
Sm320 O340 2.543 . S
Sm320 O341 2.450 . S
Sm320 O342 2.681 1_554 S
Sm320 O343 2.464 1_554 S
Sm320 O344 2.396 . S
Sm320 O348 2.386 . S
Sm320 O351 2.408 1_554 S
Sm321 C331 2.846 . S
Sm321 O342 2.386 . S
Sm321 O345 2.408 1_556 S
Sm321 O346 2.543 . S
Sm321 O347 2.450 . S
Sm321 O348 2.681 1_556 S
Sm321 O349 2.464 1_556 S
Sm321 O350 2.396 . S
C322 Sm320 2.846 . S
C322 C323 1.506 . S
C322 O340 1.261 . S
C322 O341 1.242 . S
C323 C322 1.506 . S
C323 C324 1.358 . S
C323 C328 1.382 . S
C324 C323 1.358 . S
C324 C325 1.385 . S
C324 H352 0.930 . S
C325 C324 1.385 . S
C325 C326 1.395 . S
C325 H353 0.929 . S
C326 C325 1.395 . S
C326 C327 1.335 . S
C327 C326 1.335 . S
C327 C328 1.398 . S
C327 H354 0.930 . S
C328 C323 1.382 . S
C328 C327 1.398 . S
C328 H355 0.929 . S
C329 O342 1.271 . S
C329 O343 1.251 . S
C330 O344 1.252 . S
C330 O345 1.272 . S
C331 Sm321 2.846 . S
C331 C332 1.506 . S
C331 O346 1.261 . S
C331 O347 1.242 . S
C332 C331 1.506 . S
C332 C333 1.358 . S
C332 C337 1.382 . S
C333 C332 1.358 . S
C333 C334 1.385 . S
C333 H356 0.930 . S
C334 C333 1.385 . S
C334 C335 1.395 . S
C334 H357 0.929 . S
C335 C334 1.395 . S
C335 C336 1.335 . S
C336 C335 1.335 . S
C336 C337 1.398 . S
C336 H358 0.930 . S
C337 C332 1.382 . S
C337 C336 1.398 . S
C337 H359 0.929 . S
C338 O348 1.271 . S
C338 O349 1.251 . S
C339 O350 1.252 . S
C339 O351 1.272 . S
O340 Sm320 2.543 . S
O340 C322 1.261 . S
O341 Sm320 2.450 . S
O341 C322 1.242 . S
O342 Sm320 2.681 1_556 S
O342 Sm321 2.386 . S
O342 C329 1.271 . S
O343 Sm320 2.464 1_556 S
O343 C329 1.251 . S
O344 Sm320 2.396 . S
O344 C330 1.252 . S
O345 Sm321 2.408 1_554 S
O345 C330 1.272 . S
O346 Sm321 2.543 . S
O346 C331 1.261 . S
O347 Sm321 2.450 . S
O347 C331 1.242 . S
O348 Sm320 2.386 . S
O348 Sm321 2.681 1_554 S
O348 C338 1.271 . S
O349 Sm321 2.464 1_554 S
O349 C338 1.251 . S
O350 Sm321 2.396 . S
O350 C339 1.252 . S
O351 Sm320 2.408 1_556 S
O351 C339 1.272 . S
H352 C324 0.930 . S
H353 C325 0.929 . S
H354 C327 0.930 . S
H355 C328 0.929 . S
H356 C333 0.930 . S
H357 C334 0.929 . S
H358 C336 0.930 . S
H359 C337 0.929 . S
Sm360 C362 2.846 . S
Sm360 O380 2.543 . S
Sm360 O381 2.450 . S
Sm360 O382 2.681 . S
Sm360 O383 2.464 . S
Sm360 O384 2.396 . S
Sm360 O388 2.386 . S
Sm360 O391 2.408 . S
Sm361 C371 2.846 . S
Sm361 O382 2.386 . S
Sm361 O385 2.408 . S
Sm361 O386 2.543 . S
Sm361 O387 2.450 . S
Sm361 O388 2.681 . S
Sm361 O389 2.464 . S
Sm361 O390 2.396 . S
C362 Sm360 2.846 . S
C362 C363 1.506 . S
C362 O380 1.261 . S
C362 O381 1.242 . S
C363 C362 1.506 . S
C363 C364 1.358 . S
C363 C368 1.382 . S
C364 C363 1.358 . S
C364 C365 1.385 . S
C364 H392 0.930 . S
C365 C364 1.385 . S
C365 C366 1.395 . S
C365 H393 0.929 . S
C366 C365 1.395 . S
C366 C367 1.335 . S
C367 C366 1.335 . S
C367 C368 1.398 . S
C367 H394 0.930 . S
C368 C363 1.382 . S
C368 C367 1.398 . S
C368 H395 0.929 . S
C369 O382 1.271 . S
C369 O383 1.251 . S
C370 O384 1.252 . S
C370 O385 1.272 . S
C371 Sm361 2.846 . S
C371 C372 1.506 . S
C371 O386 1.261 . S
C371 O387 1.242 . S
C372 C371 1.506 . S
C372 C373 1.358 . S
C372 C377 1.382 . S
C373 C372 1.358 . S
C373 C374 1.385 . S
C373 H396 0.930 . S
C374 C373 1.385 . S
C374 C375 1.395 . S
C374 H397 0.929 . S
C375 C374 1.395 . S
C375 C376 1.335 . S
C376 C375 1.335 . S
C376 C377 1.398 . S
C376 H398 0.930 . S
C377 C372 1.382 . S
C377 C376 1.398 . S
C377 H399 0.929 . S
C378 O388 1.271 . S
C378 O389 1.251 . S
C379 O390 1.252 . S
C379 O391 1.272 . S
O380 Sm360 2.543 . S
O380 C362 1.261 . S
O381 Sm360 2.450 . S
O381 C362 1.242 . S
O382 Sm360 2.681 . S
O382 Sm361 2.386 . S
O382 C369 1.271 . S
O383 Sm360 2.464 . S
O383 C369 1.251 . S
O384 Sm360 2.396 . S
O384 C370 1.252 . S
O385 Sm361 2.408 . S
O385 C370 1.272 . S
O386 Sm361 2.543 . S
O386 C371 1.261 . S
O387 Sm361 2.450 . S
O387 C371 1.242 . S
O388 Sm360 2.386 . S
O388 Sm361 2.681 . S
O388 C378 1.271 . S
O389 Sm361 2.464 . S
O389 C378 1.251 . S
O390 Sm361 2.396 . S
O390 C379 1.252 . S
O391 Sm360 2.408 . S
O391 C379 1.272 . S
H392 C364 0.930 . S
H393 C365 0.929 . S
H394 C367 0.930 . S
H395 C368 0.929 . S
H396 C373 0.930 . S
H397 C374 0.929 . S
H398 C376 0.930 . S
H399 C377 0.929 . S
Sm400 C402 2.846 . S
Sm400 O420 2.543 . S
Sm400 O421 2.450 . S
Sm400 O422 2.681 . S
Sm400 O423 2.464 . S
Sm400 O424 2.396 . S
Sm400 O428 2.386 1_455 S
Sm400 O431 2.408 1_455 S
Sm401 C411 2.846 . S
Sm401 O422 2.386 1_655 S
Sm401 O425 2.408 1_655 S
Sm401 O426 2.543 . S
Sm401 O427 2.450 . S
Sm401 O428 2.681 . S
Sm401 O429 2.464 . S
Sm401 O430 2.396 . S
C402 Sm400 2.846 . S
C402 C403 1.506 . S
C402 O420 1.261 . S
C402 O421 1.242 . S
C403 C402 1.506 . S
C403 C404 1.358 . S
C403 C408 1.382 . S
C404 C403 1.358 . S
C404 C405 1.385 . S
C404 H432 0.930 . S
C405 C404 1.385 . S
C405 C406 1.395 . S
C405 H433 0.929 . S
C406 C405 1.395 . S
C406 C407 1.335 . S
C407 C406 1.335 . S
C407 C408 1.398 . S
C407 H434 0.930 . S
C408 C403 1.382 . S
C408 C407 1.398 . S
C408 H435 0.929 . S
C409 O422 1.271 . S
C409 O423 1.251 . S
C410 O424 1.252 . S
C410 O425 1.272 . S
C411 Sm401 2.846 . S
C411 C412 1.506 . S
C411 O426 1.261 . S
C411 O427 1.242 . S
C412 C411 1.506 . S
C412 C413 1.358 . S
C412 C417 1.382 . S
C413 C412 1.358 . S
C413 C414 1.385 . S
C413 H436 0.930 . S
C414 C413 1.385 . S
C414 C415 1.395 . S
C414 H437 0.929 . S
C415 C414 1.395 . S
C415 C416 1.335 . S
C416 C415 1.335 . S
C416 C417 1.398 . S
C416 H438 0.930 . S
C417 C412 1.382 . S
C417 C416 1.398 . S
C417 H439 0.929 . S
C418 O428 1.271 . S
C418 O429 1.251 . S
C419 O430 1.252 . S
C419 O431 1.272 . S
O420 Sm400 2.543 . S
O420 C402 1.261 . S
O421 Sm400 2.450 . S
O421 C402 1.242 . S
O422 Sm400 2.681 . S
O422 Sm401 2.386 1_455 S
O422 C409 1.271 . S
O423 Sm400 2.464 . S
O423 C409 1.251 . S
O424 Sm400 2.396 . S
O424 C410 1.252 . S
O425 Sm401 2.408 1_455 S
O425 C410 1.272 . S
O426 Sm401 2.543 . S
O426 C411 1.261 . S
O427 Sm401 2.450 . S
O427 C411 1.242 . S
O428 Sm400 2.386 1_655 S
O428 Sm401 2.681 . S
O428 C418 1.271 . S
O429 Sm401 2.464 . S
O429 C418 1.251 . S
O430 Sm401 2.396 . S
O430 C419 1.252 . S
O431 Sm400 2.408 1_655 S
O431 C419 1.272 . S
H432 C404 0.930 . S
H433 C405 0.929 . S
H434 C407 0.930 . S
H435 C408 0.929 . S
H436 C413 0.930 . S
H437 C414 0.929 . S
H438 C416 0.930 . S
H439 C417 0.929 . S
Sm440 C442 2.846 . S
Sm440 O460 2.543 . S
Sm440 O461 2.450 . S
Sm440 O462 2.681 . S
Sm440 O463 2.464 . S
Sm440 O464 2.396 . S
Sm440 O468 2.386 . S
Sm440 O471 2.408 . S
Sm441 C451 2.846 . S
Sm441 O462 2.386 . S
Sm441 O465 2.408 . S
Sm441 O466 2.543 . S
Sm441 O467 2.450 . S
Sm441 O468 2.681 . S
Sm441 O469 2.464 . S
Sm441 O470 2.396 . S
C442 Sm440 2.846 . S
C442 C443 1.506 . S
C442 O460 1.261 . S
C442 O461 1.242 . S
C443 C442 1.506 . S
C443 C444 1.358 . S
C443 C448 1.382 . S
C444 C443 1.358 . S
C444 C445 1.385 . S
C444 H472 0.930 . S
C445 C444 1.385 . S
C445 C446 1.395 . S
C445 H473 0.929 . S
C446 C445 1.395 . S
C446 C447 1.335 . S
C447 C446 1.335 . S
C447 C448 1.398 . S
C447 H474 0.930 . S
C448 C443 1.382 . S
C448 C447 1.398 . S
C448 H475 0.929 . S
C449 O462 1.271 . S
C449 O463 1.251 . S
C450 O464 1.252 . S
C450 O465 1.272 . S
C451 Sm441 2.846 . S
C451 C452 1.506 . S
C451 O466 1.261 . S
C451 O467 1.242 . S
C452 C451 1.506 . S
C452 C453 1.358 . S
C452 C457 1.382 . S
C453 C452 1.358 . S
C453 C454 1.385 . S
C453 H476 0.930 . S
C454 C453 1.385 . S
C454 C455 1.395 . S
C454 H477 0.929 . S
C455 C454 1.395 . S
C455 C456 1.335 . S
C456 C455 1.335 . S
C456 C457 1.398 . S
C456 H478 0.930 . S
C457 C452 1.382 . S
C457 C456 1.398 . S
C457 H479 0.929 . S
C458 O468 1.271 . S
C458 O469 1.251 . S
C459 O470 1.252 . S
C459 O471 1.272 . S
O460 Sm440 2.543 . S
O460 C442 1.261 . S
O461 Sm440 2.450 . S
O461 C442 1.242 . S
O462 Sm440 2.681 . S
O462 Sm441 2.386 . S
O462 C449 1.271 . S
O463 Sm440 2.464 . S
O463 C449 1.251 . S
O464 Sm440 2.396 . S
O464 C450 1.252 . S
O465 Sm441 2.408 . S
O465 C450 1.272 . S
O466 Sm441 2.543 . S
O466 C451 1.261 . S
O467 Sm441 2.450 . S
O467 C451 1.242 . S
O468 Sm440 2.386 . S
O468 Sm441 2.681 . S
O468 C458 1.271 . S
O469 Sm441 2.464 . S
O469 C458 1.251 . S
O470 Sm441 2.396 . S
O470 C459 1.252 . S
O471 Sm440 2.408 . S
O471 C459 1.272 . S
H472 C444 0.930 . S
H473 C445 0.929 . S
H474 C447 0.930 . S
H475 C448 0.929 . S
H476 C453 0.930 . S
H477 C454 0.929 . S
H478 C456 0.930 . S
H479 C457 0.929 . S
Sm480 C482 2.846 . S
Sm480 O500 2.543 . S
Sm480 O501 2.450 . S
Sm480 O502 2.681 . S
Sm480 O503 2.464 . S
Sm480 O504 2.396 . S
Sm480 O508 2.386 . S
Sm480 O511 2.408 . S
Sm481 C491 2.846 . S
Sm481 O502 2.386 . S
Sm481 O505 2.408 . S
Sm481 O506 2.543 . S
Sm481 O507 2.450 . S
Sm481 O508 2.681 . S
Sm481 O509 2.464 . S
Sm481 O510 2.396 . S
C482 Sm480 2.846 . S
C482 C483 1.506 . S
C482 O500 1.261 . S
C482 O501 1.242 . S
C483 C482 1.506 . S
C483 C484 1.358 . S
C483 C488 1.382 . S
C484 C483 1.358 . S
C484 C485 1.385 . S
C484 H512 0.930 . S
C485 C484 1.385 . S
C485 C486 1.395 . S
C485 H513 0.929 . S
C486 C485 1.395 . S
C486 C487 1.335 . S
C487 C486 1.335 . S
C487 C488 1.398 . S
C487 H514 0.930 . S
C488 C483 1.382 . S
C488 C487 1.398 . S
C488 H515 0.929 . S
C489 O502 1.271 . S
C489 O503 1.251 . S
C490 O504 1.252 . S
C490 O505 1.272 . S
C491 Sm481 2.846 . S
C491 C492 1.506 . S
C491 O506 1.261 . S
C491 O507 1.242 . S
C492 C491 1.506 . S
C492 C493 1.358 . S
C492 C497 1.382 . S
C493 C492 1.358 . S
C493 C494 1.385 . S
C493 H516 0.930 . S
C494 C493 1.385 . S
C494 C495 1.395 . S
C494 H517 0.929 . S
C495 C494 1.395 . S
C495 C496 1.335 . S
C496 C495 1.335 . S
C496 C497 1.398 . S
C496 H518 0.930 . S
C497 C492 1.382 . S
C497 C496 1.398 . S
C497 H519 0.929 . S
C498 O508 1.271 . S
C498 O509 1.251 . S
C499 O510 1.252 . S
C499 O511 1.272 . S
O500 Sm480 2.543 . S
O500 C482 1.261 . S
O501 Sm480 2.450 . S
O501 C482 1.242 . S
O502 Sm480 2.681 . S
O502 Sm481 2.386 . S
O502 C489 1.271 . S
O503 Sm480 2.464 . S
O503 C489 1.251 . S
O504 Sm480 2.396 . S
O504 C490 1.252 . S
O505 Sm481 2.408 . S
O505 C490 1.272 . S
O506 Sm481 2.543 . S
O506 C491 1.261 . S
O507 Sm481 2.450 . S
O507 C491 1.242 . S
O508 Sm480 2.386 . S
O508 Sm481 2.681 . S
O508 C498 1.271 . S
O509 Sm481 2.464 . S
O509 C498 1.251 . S
O510 Sm481 2.396 . S
O510 C499 1.252 . S
O511 Sm480 2.408 . S
O511 C499 1.272 . S
H512 C484 0.930 . S
H513 C485 0.929 . S
H514 C487 0.930 . S
H515 C488 0.929 . S
H516 C493 0.930 . S
H517 C494 0.929 . S
H518 C496 0.930 . S
H519 C497 0.929 . S
Sm520 C522 2.846 . S
Sm520 O540 2.543 . S
Sm520 O541 2.450 . S
Sm520 O542 2.681 . S
Sm520 O543 2.464 . S
Sm520 O544 2.396 . S
Sm520 O548 2.386 . S
Sm520 O551 2.408 . S
Sm521 C531 2.846 . S
Sm521 O542 2.386 . S
Sm521 O545 2.408 . S
Sm521 O546 2.543 . S
Sm521 O547 2.450 . S
Sm521 O548 2.681 . S
Sm521 O549 2.464 . S
Sm521 O550 2.396 . S
C522 Sm520 2.846 . S
C522 C523 1.506 . S
C522 O540 1.261 . S
C522 O541 1.242 . S
C523 C522 1.506 . S
C523 C524 1.358 . S
C523 C528 1.382 . S
C524 C523 1.358 . S
C524 C525 1.385 . S
C524 H552 0.930 . S
C525 C524 1.385 . S
C525 C526 1.395 . S
C525 H553 0.929 . S
C526 C525 1.395 . S
C526 C527 1.335 . S
C527 C526 1.335 . S
C527 C528 1.398 . S
C527 H554 0.930 . S
C528 C523 1.382 . S
C528 C527 1.398 . S
C528 H555 0.929 . S
C529 O542 1.271 . S
C529 O543 1.251 . S
C530 O544 1.252 . S
C530 O545 1.272 . S
C531 Sm521 2.846 . S
C531 C532 1.506 . S
C531 O546 1.261 . S
C531 O547 1.242 . S
C532 C531 1.506 . S
C532 C533 1.358 . S
C532 C537 1.382 . S
C533 C532 1.358 . S
C533 C534 1.385 . S
C533 H556 0.930 . S
C534 C533 1.385 . S
C534 C535 1.395 . S
C534 H557 0.929 . S
C535 C534 1.395 . S
C535 C536 1.335 . S
C536 C535 1.335 . S
C536 C537 1.398 . S
C536 H558 0.930 . S
C537 C532 1.382 . S
C537 C536 1.398 . S
C537 H559 0.929 . S
C538 O548 1.271 . S
C538 O549 1.251 . S
C539 O550 1.252 . S
C539 O551 1.272 . S
O540 Sm520 2.543 . S
O540 C522 1.261 . S
O541 Sm520 2.450 . S
O541 C522 1.242 . S
O542 Sm520 2.681 . S
O542 Sm521 2.386 . S
O542 C529 1.271 . S
O543 Sm520 2.464 . S
O543 C529 1.251 . S
O544 Sm520 2.396 . S
O544 C530 1.252 . S
O545 Sm521 2.408 . S
O545 C530 1.272 . S
O546 Sm521 2.543 . S
O546 C531 1.261 . S
O547 Sm521 2.450 . S
O547 C531 1.242 . S
O548 Sm520 2.386 . S
O548 Sm521 2.681 . S
O548 C538 1.271 . S
O549 Sm521 2.464 . S
O549 C538 1.251 . S
O550 Sm521 2.396 . S
O550 C539 1.252 . S
O551 Sm520 2.408 . S
O551 C539 1.272 . S
H552 C524 0.930 . S
H553 C525 0.929 . S
H554 C527 0.930 . S
H555 C528 0.929 . S
H556 C533 0.930 . S
H557 C534 0.929 . S
H558 C536 0.930 . S
H559 C537 0.929 . S
Sm560 C562 2.846 . S
Sm560 O580 2.543 . S
Sm560 O581 2.450 . S
Sm560 O582 2.681 . S
Sm560 O583 2.464 . S
Sm560 O584 2.396 . S
Sm560 O588 2.386 . S
Sm560 O591 2.408 . S
Sm561 C571 2.846 . S
Sm561 O582 2.386 . S
Sm561 O585 2.408 . S
Sm561 O586 2.543 . S
Sm561 O587 2.450 . S
Sm561 O588 2.681 . S
Sm561 O589 2.464 . S
Sm561 O590 2.396 . S
C562 Sm560 2.846 . S
C562 C563 1.506 . S
C562 O580 1.261 . S
C562 O581 1.242 . S
C563 C562 1.506 . S
C563 C564 1.358 . S
C563 C568 1.382 . S
C564 C563 1.358 . S
C564 C565 1.385 . S
C564 H592 0.930 . S
C565 C564 1.385 . S
C565 C566 1.395 . S
C565 H593 0.929 . S
C566 C565 1.395 . S
C566 C567 1.335 . S
C567 C566 1.335 . S
C567 C568 1.398 . S
C567 H594 0.930 . S
C568 C563 1.382 . S
C568 C567 1.398 . S
C568 H595 0.929 . S
C569 O582 1.271 . S
C569 O583 1.251 . S
C570 O584 1.252 . S
C570 O585 1.272 . S
C571 Sm561 2.846 . S
C571 C572 1.506 . S
C571 O586 1.261 . S
C571 O587 1.242 . S
C572 C571 1.506 . S
C572 C573 1.358 . S
C572 C577 1.382 . S
C573 C572 1.358 . S
C573 C574 1.385 . S
C573 H596 0.930 . S
C574 C573 1.385 . S
C574 C575 1.395 . S
C574 H597 0.929 . S
C575 C574 1.395 . S
C575 C576 1.335 . S
C576 C575 1.335 . S
C576 C577 1.398 . S
C576 H598 0.930 . S
C577 C572 1.382 . S
C577 C576 1.398 . S
C577 H599 0.929 . S
C578 O588 1.271 . S
C578 O589 1.251 . S
C579 O590 1.252 . S
C579 O591 1.272 . S
O580 Sm560 2.543 . S
O580 C562 1.261 . S
O581 Sm560 2.450 . S
O581 C562 1.242 . S
O582 Sm560 2.681 . S
O582 Sm561 2.386 . S
O582 C569 1.271 . S
O583 Sm560 2.464 . S
O583 C569 1.251 . S
O584 Sm560 2.396 . S
O584 C570 1.252 . S
O585 Sm561 2.408 . S
O585 C570 1.272 . S
O586 Sm561 2.543 . S
O586 C571 1.261 . S
O587 Sm561 2.450 . S
O587 C571 1.242 . S
O588 Sm560 2.386 . S
O588 Sm561 2.681 . S
O588 C578 1.271 . S
O589 Sm561 2.464 . S
O589 C578 1.251 . S
O590 Sm561 2.396 . S
O590 C579 1.252 . S
O591 Sm560 2.408 . S
O591 C579 1.272 . S
H592 C564 0.930 . S
H593 C565 0.929 . S
H594 C567 0.930 . S
H595 C568 0.929 . S
H596 C573 0.930 . S
H597 C574 0.929 . S
H598 C576 0.930 . S
H599 C577 0.929 . S
Sm600 C602 2.846 . S
Sm600 O620 2.543 . S
Sm600 O621 2.450 . S
Sm600 O622 2.681 1_554 S
Sm600 O623 2.464 1_554 S
Sm600 O624 2.396 1_554 S
Sm600 O628 2.386 1_655 S
Sm600 O631 2.408 1_655 S
Sm601 C611 2.846 . S
Sm601 O622 2.386 1_455 S
Sm601 O625 2.409 1_455 S
Sm601 O626 2.543 . S
Sm601 O627 2.450 . S
Sm601 O628 2.681 1_556 S
Sm601 O629 2.464 1_556 S
Sm601 O630 2.396 1_556 S
C602 Sm600 2.846 . S
C602 C603 1.506 . S
C602 O620 1.261 . S
C602 O621 1.242 . S
C603 C602 1.506 . S
C603 C604 1.358 . S
C603 C608 1.382 . S
C604 C603 1.358 . S
C604 C605 1.385 . S
C604 H632 0.930 . S
C605 C604 1.385 . S
C605 C606 1.395 . S
C605 H633 0.929 . S
C606 C605 1.395 . S
C606 C607 1.335 . S
C607 C606 1.335 . S
C607 C608 1.398 . S
C607 H634 0.930 . S
C608 C603 1.382 . S
C608 C607 1.398 . S
C608 H635 0.929 . S
C609 O622 1.271 . S
C609 O623 1.251 . S
C610 O624 1.252 . S
C610 O625 1.271 . S
C611 Sm601 2.846 . S
C611 C612 1.506 . S
C611 O626 1.261 . S
C611 O627 1.242 . S
C612 C611 1.506 . S
C612 C613 1.358 . S
C612 C617 1.382 . S
C613 C612 1.358 . S
C613 C614 1.385 . S
C613 H636 0.930 . S
C614 C613 1.385 . S
C614 C615 1.395 . S
C614 H637 0.929 . S
C615 C614 1.395 . S
C615 C616 1.335 . S
C616 C615 1.335 . S
C616 C617 1.398 . S
C616 H638 0.930 . S
C617 C612 1.382 . S
C617 C616 1.398 . S
C617 H639 0.929 . S
C618 O628 1.271 . S
C618 O629 1.251 . S
C619 O630 1.252 . S
C619 O631 1.272 . S
O620 Sm600 2.543 . S
O620 C602 1.261 . S
O621 Sm600 2.450 . S
O621 C602 1.242 . S
O622 Sm600 2.681 1_556 S
O622 Sm601 2.386 1_655 S
O622 C609 1.271 . S
O623 Sm600 2.464 1_556 S
O623 C609 1.251 . S
O624 Sm600 2.396 1_556 S
O624 C610 1.252 . S
O625 Sm601 2.409 1_655 S
O625 C610 1.271 . S
O626 Sm601 2.543 . S
O626 C611 1.261 . S
O627 Sm601 2.450 . S
O627 C611 1.242 . S
O628 Sm600 2.386 1_455 S
O628 Sm601 2.681 1_554 S
O628 C618 1.271 . S
O629 Sm601 2.464 1_554 S
O629 C618 1.251 . S
O630 Sm601 2.396 1_554 S
O630 C619 1.252 . S
O631 Sm600 2.408 1_455 S
O631 C619 1.272 . S
H632 C604 0.930 . S
H633 C605 0.929 . S
H634 C607 0.930 . S
H635 C608 0.929 . S
H636 C613 0.930 . S
H637 C614 0.929 . S
H638 C616 0.930 . S
H639 C617 0.929 . S
H640 C646 0.930 . S
H641 C650 0.930 . S
H642 C655 0.929 . S
H643 C653 0.929 . S
H644 C648 0.929 . S
H645 C654 0.929 . S
C646 H640 0.930 . S
C646 C647 1.367 . S
C646 C654 1.378 . S
C647 C646 1.367 . S
C647 C655 1.433 . S
C648 H644 0.929 . S
C648 C650 1.378 . S
C648 C652 1.350 . S
C649 C652 1.463 . S
C649 C654 1.350 . S
C649 N657 1.427 . S
C650 H641 0.930 . S
C650 C648 1.378 . S
C650 C651 1.367 . S
C651 C650 1.367 . S
C651 C653 1.433 . S
C652 C648 1.350 . S
C652 C649 1.463 . S
C652 N656 1.427 . S
C653 H643 0.929 . S
C653 C651 1.433 . S
C653 N656 1.384 . S
C654 H645 0.929 . S
C654 C646 1.378 . S
C654 C649 1.350 . S
C655 H642 0.929 . S
C655 C647 1.433 . S
C655 N657 1.384 . S
N656 C652 1.427 . S
N656 C653 1.384 . S
N657 C649 1.427 . S
N657 C655 1.384 . S
H658 C664 0.930 1_556 S
H659 C668 0.930 . S
H660 C673 0.929 . S
H661 C671 0.929 . S
H662 C666 0.929 . S
H663 C672 0.929 . S
C664 H658 0.930 1_554 S
C664 C665 1.367 . S
C664 C672 1.378 . S
C665 C664 1.367 . S
C665 C673 1.433 . S
C666 H662 0.929 . S
C666 C668 1.378 . S
C666 C670 1.350 . S
C667 C670 1.463 . S
C667 C672 1.350 . S
C667 N675 1.427 . S
C668 H659 0.930 . S
C668 C666 1.378 . S
C668 C669 1.367 . S
C669 C668 1.367 . S
C669 C671 1.433 . S
C670 C666 1.350 . S
C670 C667 1.463 . S
C670 N674 1.427 . S
C671 H661 0.929 . S
C671 C669 1.433 . S
C671 N674 1.384 . S
C672 H663 0.929 . S
C672 C664 1.378 . S
C672 C667 1.350 . S
C673 H660 0.929 . S
C673 C665 1.433 . S
C673 N675 1.384 . S
N674 C670 1.427 . S
N674 C671 1.384 . S
N675 C667 1.427 . S
N675 C673 1.384 . S
H676 C682 0.930 . S
H677 C686 0.930 . S
H678 C691 0.929 . S
H679 C689 0.929 . S
H680 C684 0.929 . S
H681 C690 0.929 . S
C682 H676 0.930 . S
C682 C683 1.367 . S
C682 C690 1.378 . S
C683 C682 1.367 . S
C683 C691 1.433 . S
C684 H680 0.929 . S
C684 C686 1.378 . S
C684 C688 1.350 . S
C685 C688 1.463 . S
C685 C690 1.350 . S
C685 N693 1.427 . S
C686 H677 0.930 . S
C686 C684 1.378 . S
C686 C687 1.367 . S
C687 C686 1.367 . S
C687 C689 1.433 . S
C688 C684 1.350 . S
C688 C685 1.463 . S
C688 N692 1.427 . S
C689 H679 0.929 . S
C689 C687 1.433 . S
C689 N692 1.384 . S
C690 H681 0.929 . S
C690 C682 1.378 . S
C690 C685 1.350 . S
C691 H678 0.929 . S
C691 C683 1.433 . S
C691 N693 1.384 . S
N692 C688 1.427 . S
N692 C689 1.384 . S
N693 C685 1.427 . S
N693 C691 1.384 . S
H694 C700 0.930 . S
H695 C704 0.930 . S
H696 C709 0.929 . S
H697 C707 0.929 . S
H698 C702 0.929 . S
H699 C708 0.929 . S
C700 H694 0.930 . S
C700 C701 1.367 . S
C700 C708 1.378 . S
C701 C700 1.367 . S
C701 C709 1.433 . S
C702 H698 0.929 . S
C702 C704 1.378 . S
C702 C706 1.350 . S
C703 C706 1.463 . S
C703 C708 1.350 . S
C703 N711 1.427 . S
C704 H695 0.930 . S
C704 C702 1.378 . S
C704 C705 1.367 . S
C705 C704 1.367 . S
C705 C707 1.433 . S
C706 C702 1.350 . S
C706 C703 1.463 . S
C706 N710 1.427 . S
C707 H697 0.929 . S
C707 C705 1.433 . S
C707 N710 1.384 . S
C708 H699 0.929 . S
C708 C700 1.378 . S
C708 C703 1.350 . S
C709 H696 0.929 . S
C709 C701 1.433 . S
C709 N711 1.384 . S
N710 C706 1.427 . S
N710 C707 1.384 . S
N711 C703 1.427 . S
N711 C709 1.384 . S
H712 C718 0.930 . S
H713 C722 0.930 . S
H714 C727 0.929 . S
H715 C725 0.929 . S
H716 C720 0.929 . S
H717 C726 0.929 . S
C718 H712 0.930 . S
C718 C719 1.367 . S
C718 C726 1.378 . S
C719 C718 1.367 . S
C719 C727 1.433 . S
C720 H716 0.929 . S
C720 C722 1.378 . S
C720 C724 1.350 . S
C721 C724 1.463 . S
C721 C726 1.350 . S
C721 N729 1.427 . S
C722 H713 0.930 . S
C722 C720 1.378 . S
C722 C723 1.367 . S
C723 C722 1.367 . S
C723 C725 1.433 . S
C724 C720 1.350 . S
C724 C721 1.463 . S
C724 N728 1.427 . S
C725 H715 0.929 . S
C725 C723 1.433 . S
C725 N728 1.384 . S
C726 H717 0.929 . S
C726 C718 1.378 . S
C726 C721 1.350 . S
C727 H714 0.929 . S
C727 C719 1.433 . S
C727 N729 1.384 . S
N728 C724 1.427 . S
N728 C725 1.384 . S
N729 C721 1.427 . S
N729 C727 1.384 . S
H730 C736 0.930 . S
H731 C740 0.930 . S
H732 C745 0.929 . S
H733 C743 0.929 . S
H734 C738 0.929 . S
H735 C744 0.929 . S
C736 H730 0.930 . S
C736 C737 1.367 . S
C736 C744 1.378 . S
C737 C736 1.367 . S
C737 C745 1.433 . S
C738 H734 0.929 . S
C738 C740 1.378 . S
C738 C742 1.350 . S
C739 C742 1.463 . S
C739 C744 1.350 . S
C739 N747 1.427 . S
C740 H731 0.930 . S
C740 C738 1.378 . S
C740 C741 1.367 . S
C741 C740 1.367 . S
C741 C743 1.433 . S
C742 C738 1.350 . S
C742 C739 1.463 . S
C742 N746 1.427 . S
C743 H733 0.929 . S
C743 C741 1.433 . S
C743 N746 1.384 . S
C744 H735 0.929 . S
C744 C736 1.378 . S
C744 C739 1.350 . S
C745 H732 0.929 . S
C745 C737 1.433 . S
C745 N747 1.384 . S
N746 C742 1.427 . S
N746 C743 1.384 . S
N747 C739 1.427 . S
N747 C745 1.384 . S
H748 C754 0.930 . S
H749 C758 0.930 . S
H750 C763 0.929 . S
H751 C761 0.929 . S
H752 C756 0.929 . S
H753 C762 0.929 . S
C754 H748 0.930 . S
C754 C755 1.367 . S
C754 C762 1.378 . S
C755 C754 1.367 . S
C755 C763 1.433 . S
C756 H752 0.929 . S
C756 C758 1.378 . S
C756 C760 1.350 . S
C757 C760 1.463 . S
C757 C762 1.350 . S
C757 N765 1.427 . S
C758 H749 0.930 . S
C758 C756 1.378 . S
C758 C759 1.367 . S
C759 C758 1.367 . S
C759 C761 1.433 . S
C760 C756 1.350 . S
C760 C757 1.463 . S
C760 N764 1.427 . S
C761 H751 0.929 . S
C761 C759 1.433 . S
C761 N764 1.384 . S
C762 H753 0.929 . S
C762 C754 1.378 . S
C762 C757 1.350 . S
C763 H750 0.929 . S
C763 C755 1.433 . S
C763 N765 1.384 . S
N764 C760 1.427 . S
N764 C761 1.384 . S
N765 C757 1.427 . S
N765 C763 1.384 . S
H766 C772 0.930 . S
H767 C776 0.930 . S
H768 C781 0.929 . S
H769 C779 0.929 . S
H770 C774 0.929 . S
H771 C780 0.929 . S
C772 H766 0.930 . S
C772 C773 1.367 . S
C772 C780 1.378 . S
C773 C772 1.367 . S
C773 C781 1.433 . S
C774 H770 0.929 . S
C774 C776 1.378 . S
C774 C778 1.350 . S
C775 C778 1.463 . S
C775 C780 1.350 . S
C775 N783 1.427 . S
C776 H767 0.930 . S
C776 C774 1.378 . S
C776 C777 1.367 . S
C777 C776 1.367 . S
C777 C779 1.433 . S
C778 C774 1.350 . S
C778 C775 1.463 . S
C778 N782 1.427 . S
C779 H769 0.929 . S
C779 C777 1.433 . S
C779 N782 1.384 . S
C780 H771 0.929 . S
C780 C772 1.378 . S
C780 C775 1.350 . S
C781 H768 0.929 . S
C781 C773 1.433 . S
C781 N783 1.384 . S
N782 C778 1.427 . S
N782 C779 1.384 . S
N783 C775 1.427 . S
N783 C781 1.384 . S
H784 C790 0.930 . S
H785 C794 0.930 . S
H786 C799 0.929 . S
H787 C797 0.929 1_455 S
H788 C792 0.929 . S
H789 C798 0.929 . S
C790 H784 0.930 . S
C790 C791 1.367 . S
C790 C798 1.378 . S
C791 C790 1.367 . S
C791 C799 1.433 . S
C792 H788 0.929 . S
C792 C794 1.378 . S
C792 C796 1.350 . S
C793 C796 1.463 . S
C793 C798 1.350 . S
C793 N801 1.427 . S
C794 H785 0.930 . S
C794 C792 1.378 . S
C794 C795 1.367 . S
C795 C794 1.367 . S
C795 C797 1.433 . S
C796 C792 1.350 . S
C796 C793 1.463 . S
C796 N800 1.427 . S
C797 H787 0.929 1_655 S
C797 C795 1.433 . S
C797 N800 1.384 . S
C798 H789 0.929 . S
C798 C790 1.378 . S
C798 C793 1.350 . S
C799 H786 0.929 . S
C799 C791 1.433 . S
C799 N801 1.384 . S
N800 C796 1.427 . S
N800 C797 1.384 . S
N801 C793 1.427 . S
N801 C799 1.384 . S
H802 C808 0.930 . S
H803 C812 0.930 . S
H804 C817 0.929 . S
H805 C815 0.929 . S
H806 C810 0.929 . S
H807 C816 0.929 . S
C808 H802 0.930 . S
C808 C809 1.367 . S
C808 C816 1.378 . S
C809 C808 1.367 . S
C809 C817 1.433 . S
C810 H806 0.929 . S
C810 C812 1.378 . S
C810 C814 1.350 . S
C811 C814 1.463 . S
C811 C816 1.350 . S
C811 N819 1.427 . S
C812 H803 0.930 . S
C812 C810 1.378 . S
C812 C813 1.367 . S
C813 C812 1.367 . S
C813 C815 1.433 . S
C814 C810 1.350 . S
C814 C811 1.463 . S
C814 N818 1.427 . S
C815 H805 0.929 . S
C815 C813 1.433 . S
C815 N818 1.384 . S
C816 H807 0.929 . S
C816 C808 1.378 . S
C816 C811 1.350 . S
C817 H804 0.929 . S
C817 C809 1.433 . S
C817 N819 1.384 . S
N818 C814 1.427 . S
N818 C815 1.384 . S
N819 C811 1.427 . S
N819 C817 1.384 . S
H820 C826 0.930 . S
H821 C830 0.930 . S
H822 C835 0.929 . S
H823 C833 0.929 . S
H824 C828 0.929 . S
H825 C834 0.929 . S
C826 H820 0.930 . S
C826 C827 1.367 . S
C826 C834 1.378 . S
C827 C826 1.367 . S
C827 C835 1.433 . S
C828 H824 0.929 . S
C828 C830 1.378 . S
C828 C832 1.350 . S
C829 C832 1.463 . S
C829 C834 1.350 . S
C829 N837 1.427 . S
C830 H821 0.930 . S
C830 C828 1.378 . S
C830 C831 1.367 . S
C831 C830 1.367 . S
C831 C833 1.433 . S
C832 C828 1.350 . S
C832 C829 1.463 . S
C832 N836 1.427 . S
C833 H823 0.929 . S
C833 C831 1.433 . S
C833 N836 1.384 . S
C834 H825 0.929 . S
C834 C826 1.378 . S
C834 C829 1.350 . S
C835 H822 0.929 . S
C835 C827 1.433 . S
C835 N837 1.384 . S
N836 C832 1.427 . S
N836 C833 1.384 . S
N837 C829 1.427 . S
N837 C835 1.384 . S
H838 C844 0.930 . S
H839 C848 0.930 . S
H840 C853 0.929 . S
H841 C851 0.929 . S
H842 C846 0.929 . S
H843 C852 0.929 . S
C844 H838 0.930 . S
C844 C845 1.367 . S
C844 C852 1.378 . S
C845 C844 1.367 . S
C845 C853 1.433 . S
C846 H842 0.929 . S
C846 C848 1.378 . S
C846 C850 1.350 . S
C847 C850 1.463 . S
C847 C852 1.350 . S
C847 N855 1.427 . S
C848 H839 0.930 . S
C848 C846 1.378 . S
C848 C849 1.367 . S
C849 C848 1.367 . S
C849 C851 1.433 . S
C850 C846 1.350 . S
C850 C847 1.463 . S
C850 N854 1.427 . S
C851 H841 0.929 . S
C851 C849 1.433 . S
C851 N854 1.384 . S
C852 H843 0.929 . S
C852 C844 1.378 . S
C852 C847 1.350 . S
C853 H840 0.929 . S
C853 C845 1.433 . S
C853 N855 1.384 . S
N854 C850 1.427 . S
N854 C851 1.384 . S
N855 C847 1.427 . S
N855 C853 1.384 . S
H856 C862 0.930 . S
H857 C866 0.930 . S
H858 C871 0.929 . S
H859 C869 0.929 . S
H860 C864 0.929 . S
H861 C870 0.929 . S
C862 H856 0.930 . S
C862 C863 1.367 . S
C862 C870 1.378 . S
C863 C862 1.367 . S
C863 C871 1.433 . S
C864 H860 0.929 . S
C864 C866 1.378 . S
C864 C868 1.350 . S
C865 C868 1.463 . S
C865 C870 1.350 . S
C865 N873 1.427 . S
C866 H857 0.930 . S
C866 C864 1.378 . S
C866 C867 1.367 . S
C867 C866 1.367 . S
C867 C869 1.433 . S
C868 C864 1.350 . S
C868 C865 1.463 . S
C868 N872 1.427 . S
C869 H859 0.929 . S
C869 C867 1.433 . S
C869 N872 1.384 . S
C870 H861 0.929 . S
C870 C862 1.378 . S
C870 C865 1.350 . S
C871 H858 0.929 . S
C871 C863 1.433 . S
C871 N873 1.384 . S
N872 C868 1.427 . S
N872 C869 1.384 . S
N873 C865 1.427 . S
N873 C871 1.384 . S
H874 C880 0.930 . S
H875 C884 0.930 . S
H876 C889 0.929 . S
H877 C887 0.929 . S
H878 C882 0.929 . S
H879 C888 0.929 . S
C880 H874 0.930 . S
C880 C881 1.367 . S
C880 C888 1.378 . S
C881 C880 1.367 . S
C881 C889 1.433 . S
C882 H878 0.929 . S
C882 C884 1.378 . S
C882 C886 1.350 . S
C883 C886 1.463 . S
C883 C888 1.350 . S
C883 N891 1.427 . S
C884 H875 0.930 . S
C884 C882 1.378 . S
C884 C885 1.367 . S
C885 C884 1.367 . S
C885 C887 1.433 . S
C886 C882 1.350 . S
C886 C883 1.463 . S
C886 N890 1.427 . S
C887 H877 0.929 . S
C887 C885 1.433 . S
C887 N890 1.384 . S
C888 H879 0.929 . S
C888 C880 1.378 . S
C888 C883 1.350 . S
C889 H876 0.929 . S
C889 C881 1.433 . S
C889 N891 1.384 . S
N890 C886 1.427 . S
N890 C887 1.384 . S
N891 C883 1.427 . S
N891 C889 1.384 . S
H892 C898 0.930 . S
H893 C902 0.930 . S
H894 C907 0.929 . S
H895 C905 0.929 . S
H896 C900 0.929 . S
H897 C906 0.929 . S
C898 H892 0.930 . S
C898 C899 1.367 . S
C898 C906 1.378 . S
C899 C898 1.367 . S
C899 C907 1.433 . S
C900 H896 0.929 . S
C900 C902 1.378 . S
C900 C904 1.350 . S
C901 C904 1.463 . S
C901 C906 1.350 . S
C901 N909 1.427 . S
C902 H893 0.930 . S
C902 C900 1.378 . S
C902 C903 1.367 . S
C903 C902 1.367 . S
C903 C905 1.433 . S
C904 C900 1.350 . S
C904 C901 1.463 . S
C904 N908 1.427 . S
C905 H895 0.929 . S
C905 C903 1.433 . S
C905 N908 1.384 . S
C906 H897 0.929 . S
C906 C898 1.378 . S
C906 C901 1.350 . S
C907 H894 0.929 . S
C907 C899 1.433 . S
C907 N909 1.384 . S
N908 C904 1.427 . S
N908 C905 1.384 . S
N909 C901 1.427 . S
N909 C907 1.384 . S
H910 C916 0.930 . S
H911 C920 0.930 . S
H912 C925 0.929 . S
H913 C923 0.929 . S
H914 C918 0.929 . S
H915 C924 0.929 . S
C916 H910 0.930 . S
C916 C917 1.367 . S
C916 C924 1.378 . S
C917 C916 1.367 . S
C917 C925 1.433 . S
C918 H914 0.929 . S
C918 C920 1.378 . S
C918 C922 1.350 . S
C919 C922 1.463 . S
C919 C924 1.350 . S
C919 N927 1.427 . S
C920 H911 0.930 . S
C920 C918 1.378 . S
C920 C921 1.367 . S
C921 C920 1.367 . S
C921 C923 1.433 . S
C922 C918 1.350 . S
C922 C919 1.463 . S
C922 N926 1.427 . S
C923 H913 0.929 . S
C923 C921 1.433 . S
C923 N926 1.384 . S
C924 H915 0.929 . S
C924 C916 1.378 . S
C924 C919 1.350 . S
C925 H912 0.929 . S
C925 C917 1.433 . S
C925 N927 1.384 . S
N926 C922 1.427 . S
N926 C923 1.384 . S
N927 C919 1.427 . S
N927 C925 1.384 . S
H928 C934 0.930 . S
H929 C938 0.930 . S
H930 C943 0.929 . S
H931 C941 0.929 . S
H932 C936 0.929 . S
H933 C942 0.929 . S
C934 H928 0.930 . S
C934 C935 1.367 . S
C934 C942 1.378 . S
C935 C934 1.367 . S
C935 C943 1.433 . S
C936 H932 0.929 . S
C936 C938 1.378 . S
C936 C940 1.350 . S
C937 C940 1.463 . S
C937 C942 1.350 . S
C937 N945 1.427 . S
C938 H929 0.930 . S
C938 C936 1.378 . S
C938 C939 1.367 . S
C939 C938 1.367 . S
C939 C941 1.433 . S
C940 C936 1.350 . S
C940 C937 1.463 . S
C940 N944 1.427 . S
C941 H931 0.929 . S
C941 C939 1.433 . S
C941 N944 1.384 . S
C942 H933 0.929 . S
C942 C934 1.378 . S
C942 C937 1.350 . S
C943 H930 0.929 . S
C943 C935 1.433 . S
C943 N945 1.384 . S
N944 C940 1.427 . S
N944 C941 1.384 . S
N945 C937 1.427 . S
N945 C943 1.384 . S
H946 C952 0.930 . S
H947 C956 0.930 . S
H948 C961 0.929 . S
H949 C959 0.929 . S
H950 C954 0.929 . S
H951 C960 0.929 . S
C952 H946 0.930 . S
C952 C953 1.367 . S
C952 C960 1.378 . S
C953 C952 1.367 . S
C953 C961 1.433 . S
C954 H950 0.929 . S
C954 C956 1.378 . S
C954 C958 1.350 . S
C955 C958 1.463 . S
C955 C960 1.350 . S
C955 N963 1.427 . S
C956 H947 0.930 . S
C956 C954 1.378 . S
C956 C957 1.367 . S
C957 C956 1.367 . S
C957 C959 1.433 . S
C958 C954 1.350 . S
C958 C955 1.463 . S
C958 N962 1.427 . S
C959 H949 0.929 . S
C959 C957 1.433 . S
C959 N962 1.384 . S
C960 H951 0.929 . S
C960 C952 1.378 . S
C960 C955 1.350 . S
C961 H948 0.929 . S
C961 C953 1.433 . S
C961 N963 1.384 . S
N962 C958 1.427 . S
N962 C959 1.384 . S
N963 C955 1.427 . S
N963 C961 1.384 . S
H964 C970 0.930 . S
H965 C974 0.930 . S
H966 C979 0.929 . S
H967 C977 0.929 . S
H968 C972 0.929 . S
H969 C978 0.929 . S
C970 H964 0.930 . S
C970 C971 1.367 . S
C970 C978 1.378 . S
C971 C970 1.367 . S
C971 C979 1.433 . S
C972 H968 0.929 . S
C972 C974 1.378 . S
C972 C976 1.350 . S
C973 C976 1.463 . S
C973 C978 1.350 . S
C973 N981 1.427 . S
C974 H965 0.930 . S
C974 C972 1.378 . S
C974 C975 1.367 . S
C975 C974 1.367 . S
C975 C977 1.433 . S
C976 C972 1.350 . S
C976 C973 1.463 . S
C976 N980 1.427 . S
C977 H967 0.929 . S
C977 C975 1.433 . S
C977 N980 1.384 . S
C978 H969 0.929 . S
C978 C970 1.378 . S
C978 C973 1.350 . S
C979 H966 0.929 . S
C979 C971 1.433 . S
C979 N981 1.384 . S
N980 C976 1.427 . S
N980 C977 1.384 . S
N981 C973 1.427 . S
N981 C979 1.384 . S
H982 C988 0.930 . S
H983 C992 0.930 . S
H984 C997 0.929 . S
H985 C995 0.929 . S
H986 C990 0.929 . S
H987 C996 0.929 . S
C988 H982 0.930 . S
C988 C989 1.367 . S
C988 C996 1.378 . S
C989 C988 1.367 . S
C989 C997 1.433 . S
C990 H986 0.929 . S
C990 C992 1.378 . S
C990 C994 1.350 . S
C991 C994 1.463 . S
C991 C996 1.350 . S
C991 N999 1.427 . S
C992 H983 0.930 . S
C992 C990 1.378 . S
C992 C993 1.367 . S
C993 C992 1.367 . S
C993 C995 1.433 . S
C994 C990 1.350 . S
C994 C991 1.463 . S
C994 N998 1.427 . S
C995 H985 0.929 . S
C995 C993 1.433 . S
C995 N998 1.384 . S
C996 H987 0.929 . S
C996 C988 1.378 . S
C996 C991 1.350 . S
C997 H984 0.929 . S
C997 C989 1.433 . S
C997 N999 1.384 . S
N998 C994 1.427 . S
N998 C995 1.384 . S
N999 C991 1.427 . S
N999 C997 1.384 . S
H1000 C1006 0.930 . S
H1001 C1010 0.930 . S
H1002 C1015 0.929 . S
H1003 C1013 0.929 . S
H1004 C1008 0.929 . S
H1005 C1014 0.929 . S
C1006 H1000 0.930 . S
C1006 C1007 1.367 . S
C1006 C1014 1.378 . S
C1007 C1006 1.367 . S
C1007 C1015 1.433 . S
C1008 H1004 0.929 . S
C1008 C1010 1.378 . S
C1008 C1012 1.350 . S
C1009 C1012 1.463 . S
C1009 C1014 1.350 . S
C1009 N1017 1.427 . S
C1010 H1001 0.930 . S
C1010 C1008 1.378 . S
C1010 C1011 1.367 . S
C1011 C1010 1.367 . S
C1011 C1013 1.433 . S
C1012 C1008 1.350 . S
C1012 C1009 1.463 . S
C1012 N1016 1.427 . S
C1013 H1003 0.929 . S
C1013 C1011 1.433 . S
C1013 N1016 1.384 . S
C1014 H1005 0.929 . S
C1014 C1006 1.378 . S
C1014 C1009 1.350 . S
C1015 H1002 0.929 . S
C1015 C1007 1.433 . S
C1015 N1017 1.384 . S
N1016 C1012 1.427 . S
N1016 C1013 1.384 . S
N1017 C1009 1.427 . S
N1017 C1015 1.384 . S
H1018 C1024 0.930 . S
H1019 C1028 0.930 . S
H1020 C1033 0.929 . S
H1021 C1031 0.929 . S
H1022 C1026 0.929 . S
H1023 C1032 0.929 . S
C1024 H1018 0.930 . S
C1024 C1025 1.367 . S
C1024 C1032 1.378 . S
C1025 C1024 1.367 . S
C1025 C1033 1.433 . S
C1026 H1022 0.929 . S
C1026 C1028 1.378 . S
C1026 C1030 1.350 . S
C1027 C1030 1.463 . S
C1027 C1032 1.350 . S
C1027 N1035 1.427 . S
C1028 H1019 0.930 . S
C1028 C1026 1.378 . S
C1028 C1029 1.367 . S
C1029 C1028 1.367 . S
C1029 C1031 1.433 . S
C1030 C1026 1.350 . S
C1030 C1027 1.463 . S
C1030 N1034 1.427 . S
C1031 H1021 0.929 . S
C1031 C1029 1.433 . S
C1031 N1034 1.384 . S
C1032 H1023 0.929 . S
C1032 C1024 1.378 . S
C1032 C1027 1.350 . S
C1033 H1020 0.929 . S
C1033 C1025 1.433 . S
C1033 N1035 1.384 . S
N1034 C1030 1.427 . S
N1034 C1031 1.384 . S
N1035 C1027 1.427 . S
N1035 C1033 1.384 . S
H1036 C1042 0.930 . S
H1037 C1046 0.930 1_565 S
H1038 C1051 0.929 . S
H1039 C1049 0.929 . S
H1040 C1044 0.929 . S
H1041 C1050 0.929 . S
C1042 H1036 0.930 . S
C1042 C1043 1.367 . S
C1042 C1050 1.378 . S
C1043 C1042 1.367 . S
C1043 C1051 1.433 . S
C1044 H1040 0.929 . S
C1044 C1046 1.378 . S
C1044 C1048 1.350 . S
C1045 C1048 1.463 . S
C1045 C1050 1.350 . S
C1045 N1053 1.427 . S
C1046 H1037 0.930 1_545 S
C1046 C1044 1.378 . S
C1046 C1047 1.367 . S
C1047 C1046 1.367 . S
C1047 C1049 1.433 . S
C1048 C1044 1.350 . S
C1048 C1045 1.463 . S
C1048 N1052 1.427 . S
C1049 H1039 0.929 . S
C1049 C1047 1.433 . S
C1049 N1052 1.384 . S
C1050 H1041 0.929 . S
C1050 C1042 1.378 . S
C1050 C1045 1.350 . S
C1051 H1038 0.929 . S
C1051 C1043 1.433 . S
C1051 N1053 1.384 . S
N1052 C1048 1.427 . S
N1052 C1049 1.384 . S
N1053 C1045 1.427 . S
N1053 C1051 1.384 . S
H1054 C1060 0.930 . S
H1055 C1064 0.930 . S
H1056 C1069 0.929 . S
H1057 C1067 0.929 . S
H1058 C1062 0.929 . S
H1059 C1068 0.929 . S
C1060 H1054 0.930 . S
C1060 C1061 1.367 . S
C1060 C1068 1.378 . S
C1061 C1060 1.367 . S
C1061 C1069 1.433 . S
C1062 H1058 0.929 . S
C1062 C1064 1.378 . S
C1062 C1066 1.350 . S
C1063 C1066 1.463 . S
C1063 C1068 1.350 . S
C1063 N1071 1.427 . S
C1064 H1055 0.930 . S
C1064 C1062 1.378 . S
C1064 C1065 1.367 . S
C1065 C1064 1.367 . S
C1065 C1067 1.433 . S
C1066 C1062 1.350 . S
C1066 C1063 1.463 . S
C1066 N1070 1.427 . S
C1067 H1057 0.929 . S
C1067 C1065 1.433 . S
C1067 N1070 1.384 . S
C1068 H1059 0.929 . S
C1068 C1060 1.378 . S
C1068 C1063 1.350 . S
C1069 H1056 0.929 . S
C1069 C1061 1.433 . S
C1069 N1071 1.384 . S
N1070 C1066 1.427 . S
N1070 C1067 1.384 . S
N1071 C1063 1.427 . S
N1071 C1069 1.384 . S
H1072 C1078 0.930 . S
H1073 C1082 0.930 . S
H1074 C1087 0.929 . S
H1075 C1085 0.929 . S
H1076 C1080 0.929 . S
H1077 C1086 0.929 . S
C1078 H1072 0.930 . S
C1078 C1079 1.367 . S
C1078 C1086 1.378 . S
C1079 C1078 1.367 . S
C1079 C1087 1.433 . S
C1080 H1076 0.929 . S
C1080 C1082 1.378 . S
C1080 C1084 1.350 . S
C1081 C1084 1.463 . S
C1081 C1086 1.350 . S
C1081 N1089 1.427 . S
C1082 H1073 0.930 . S
C1082 C1080 1.378 . S
C1082 C1083 1.367 . S
C1083 C1082 1.367 . S
C1083 C1085 1.433 . S
C1084 C1080 1.350 . S
C1084 C1081 1.463 . S
C1084 N1088 1.427 . S
C1085 H1075 0.929 . S
C1085 C1083 1.433 . S
C1085 N1088 1.384 . S
C1086 H1077 0.929 . S
C1086 C1078 1.378 . S
C1086 C1081 1.350 . S
C1087 H1074 0.929 . S
C1087 C1079 1.433 . S
C1087 N1089 1.384 . S
N1088 C1084 1.427 . S
N1088 C1085 1.384 . S
N1089 C1081 1.427 . S
N1089 C1087 1.384 . S
H1090 C1096 0.930 . S
H1091 C1100 0.930 . S
H1092 C1105 0.929 . S
H1093 C1103 0.929 . S
H1094 C1098 0.929 . S
H1095 C1104 0.929 . S
C1096 H1090 0.930 . S
C1096 C1097 1.367 . S
C1096 C1104 1.378 . S
C1097 C1096 1.367 . S
C1097 C1105 1.433 . S
C1098 H1094 0.929 . S
C1098 C1100 1.378 . S
C1098 C1102 1.350 . S
C1099 C1102 1.463 . S
C1099 C1104 1.350 . S
C1099 N1107 1.427 . S
C1100 H1091 0.930 . S
C1100 C1098 1.378 . S
C1100 C1101 1.367 . S
C1101 C1100 1.367 . S
C1101 C1103 1.433 . S
C1102 C1098 1.350 . S
C1102 C1099 1.463 . S
C1102 N1106 1.427 . S
C1103 H1093 0.929 . S
C1103 C1101 1.433 . S
C1103 N1106 1.384 . S
C1104 H1095 0.929 . S
C1104 C1096 1.378 . S
C1104 C1099 1.350 . S
C1105 H1092 0.929 . S
C1105 C1097 1.433 . S
C1105 N1107 1.384 . S
N1106 C1102 1.427 . S
N1106 C1103 1.384 . S
N1107 C1099 1.427 . S
N1107 C1105 1.384 . S
H1108 C1114 0.930 . S
H1109 C1118 0.930 . S
H1110 C1123 0.929 . S
H1111 C1121 0.929 . S
H1112 C1116 0.929 . S
H1113 C1122 0.929 . S
C1114 H1108 0.930 . S
C1114 C1115 1.367 . S
C1114 C1122 1.378 . S
C1115 C1114 1.367 . S
C1115 C1123 1.433 . S
C1116 H1112 0.929 . S
C1116 C1118 1.378 . S
C1116 C1120 1.350 . S
C1117 C1120 1.463 . S
C1117 C1122 1.350 . S
C1117 N1125 1.427 . S
C1118 H1109 0.930 . S
C1118 C1116 1.378 . S
C1118 C1119 1.367 . S
C1119 C1118 1.367 . S
C1119 C1121 1.433 . S
C1120 C1116 1.350 . S
C1120 C1117 1.463 . S
C1120 N1124 1.427 . S
C1121 H1111 0.929 . S
C1121 C1119 1.433 . S
C1121 N1124 1.384 . S
C1122 H1113 0.929 . S
C1122 C1114 1.378 . S
C1122 C1117 1.350 . S
C1123 H1110 0.929 . S
C1123 C1115 1.433 . S
C1123 N1125 1.384 . S
N1124 C1120 1.427 . S
N1124 C1121 1.384 . S
N1125 C1117 1.427 . S
N1125 C1123 1.384 . S
H1126 C1132 0.930 . S
H1127 C1136 0.930 . S
H1128 C1141 0.929 . S
H1129 C1139 0.929 . S
H1130 C1134 0.929 . S
H1131 C1140 0.929 . S
C1132 H1126 0.930 . S
C1132 C1133 1.367 . S
C1132 C1140 1.378 . S
C1133 C1132 1.367 . S
C1133 C1141 1.433 . S
C1134 H1130 0.929 . S
C1134 C1136 1.378 . S
C1134 C1138 1.350 . S
C1135 C1138 1.463 . S
C1135 C1140 1.350 . S
C1135 N1143 1.427 . S
C1136 H1127 0.930 . S
C1136 C1134 1.378 . S
C1136 C1137 1.367 . S
C1137 C1136 1.367 . S
C1137 C1139 1.433 . S
C1138 C1134 1.350 . S
C1138 C1135 1.463 . S
C1138 N1142 1.427 . S
C1139 H1129 0.929 . S
C1139 C1137 1.433 . S
C1139 N1142 1.384 . S
C1140 H1131 0.929 . S
C1140 C1132 1.378 . S
C1140 C1135 1.350 . S
C1141 H1128 0.929 . S
C1141 C1133 1.433 . S
C1141 N1143 1.384 . S
N1142 C1138 1.427 . S
N1142 C1139 1.384 . S
N1143 C1135 1.427 . S
N1143 C1141 1.384 . S
H1144 C1150 0.930 . S
H1145 C1154 0.930 . S
H1146 C1159 0.929 . S
H1147 C1157 0.929 . S
H1148 C1152 0.929 . S
H1149 C1158 0.929 . S
C1150 H1144 0.930 . S
C1150 C1151 1.367 . S
C1150 C1158 1.378 . S
C1151 C1150 1.367 . S
C1151 C1159 1.433 . S
C1152 H1148 0.929 . S
C1152 C1154 1.378 . S
C1152 C1156 1.350 . S
C1153 C1156 1.463 . S
C1153 C1158 1.350 . S
C1153 N1161 1.427 . S
C1154 H1145 0.930 . S
C1154 C1152 1.378 . S
C1154 C1155 1.367 . S
C1155 C1154 1.367 . S
C1155 C1157 1.433 . S
C1156 C1152 1.350 . S
C1156 C1153 1.463 . S
C1156 N1160 1.427 . S
C1157 H1147 0.929 . S
C1157 C1155 1.433 . S
C1157 N1160 1.384 . S
C1158 H1149 0.929 . S
C1158 C1150 1.378 . S
C1158 C1153 1.350 . S
C1159 H1146 0.929 . S
C1159 C1151 1.433 . S
C1159 N1161 1.384 . S
N1160 C1156 1.427 . S
N1160 C1157 1.384 . S
N1161 C1153 1.427 . S
N1161 C1159 1.384 . S
H1162 C1168 0.930 . S
H1163 C1172 0.930 . S
H1164 C1177 0.929 . S
H1165 C1175 0.929 . S
H1166 C1170 0.929 . S
H1167 C1176 0.929 . S
C1168 H1162 0.930 . S
C1168 C1169 1.367 . S
C1168 C1176 1.378 . S
C1169 C1168 1.367 . S
C1169 C1177 1.433 . S
C1170 H1166 0.929 . S
C1170 C1172 1.378 . S
C1170 C1174 1.350 . S
C1171 C1174 1.463 . S
C1171 C1176 1.350 . S
C1171 N1179 1.427 . S
C1172 H1163 0.930 . S
C1172 C1170 1.378 . S
C1172 C1173 1.367 . S
C1173 C1172 1.367 . S
C1173 C1175 1.433 . S
C1174 C1170 1.350 . S
C1174 C1171 1.463 . S
C1174 N1178 1.427 . S
C1175 H1165 0.929 . S
C1175 C1173 1.433 . S
C1175 N1178 1.384 . S
C1176 H1167 0.929 . S
C1176 C1168 1.378 . S
C1176 C1171 1.350 . S
C1177 H1164 0.929 . S
C1177 C1169 1.433 . S
C1177 N1179 1.384 . S
N1178 C1174 1.427 . S
N1178 C1175 1.384 . S
N1179 C1171 1.427 . S
N1179 C1177 1.384 . S
H1180 C1186 0.930 . S
H1181 C1190 0.930 . S
H1182 C1195 0.929 . S
H1183 C1193 0.929 . S
H1184 C1188 0.929 . S
H1185 C1194 0.929 . S
C1186 H1180 0.930 . S
C1186 C1187 1.367 . S
C1186 C1194 1.378 . S
C1187 C1186 1.367 . S
C1187 C1195 1.433 . S
C1188 H1184 0.929 . S
C1188 C1190 1.378 . S
C1188 C1192 1.350 . S
C1189 C1192 1.463 . S
C1189 C1194 1.350 . S
C1189 N1197 1.427 . S
C1190 H1181 0.930 . S
C1190 C1188 1.378 . S
C1190 C1191 1.367 . S
C1191 C1190 1.367 . S
C1191 C1193 1.433 . S
C1192 C1188 1.350 . S
C1192 C1189 1.463 . S
C1192 N1196 1.427 . S
C1193 H1183 0.929 . S
C1193 C1191 1.433 . S
C1193 N1196 1.384 . S
C1194 H1185 0.929 . S
C1194 C1186 1.378 . S
C1194 C1189 1.350 . S
C1195 H1182 0.929 . S
C1195 C1187 1.433 . S
C1195 N1197 1.384 . S
N1196 C1192 1.427 . S
N1196 C1193 1.384 . S
N1197 C1189 1.427 . S
N1197 C1195 1.384 . S
H1198 C1204 0.930 . S
H1199 C1208 0.930 . S
H1200 C1213 0.929 . S
H1201 C1211 0.929 . S
H1202 C1206 0.929 . S
H1203 C1212 0.929 . S
C1204 H1198 0.930 . S
C1204 C1205 1.367 . S
C1204 C1212 1.378 . S
C1205 C1204 1.367 . S
C1205 C1213 1.433 . S
C1206 H1202 0.929 . S
C1206 C1208 1.378 . S
C1206 C1210 1.350 . S
C1207 C1210 1.463 . S
C1207 C1212 1.350 . S
C1207 N1215 1.427 . S
C1208 H1199 0.930 . S
C1208 C1206 1.378 . S
C1208 C1209 1.367 . S
C1209 C1208 1.367 . S
C1209 C1211 1.433 . S
C1210 C1206 1.350 . S
C1210 C1207 1.463 . S
C1210 N1214 1.427 . S
C1211 H1201 0.929 . S
C1211 C1209 1.433 . S
C1211 N1214 1.384 . S
C1212 H1203 0.929 . S
C1212 C1204 1.378 . S
C1212 C1207 1.350 . S
C1213 H1200 0.929 . S
C1213 C1205 1.433 . S
C1213 N1215 1.384 . S
N1214 C1210 1.427 . S
N1214 C1211 1.384 . S
N1215 C1207 1.427 . S
N1215 C1213 1.384 . S
H1216 C1222 0.930 . S
H1217 C1226 0.930 . S
H1218 C1231 0.929 . S
H1219 C1229 0.929 . S
H1220 C1224 0.929 . S
H1221 C1230 0.929 . S
C1222 H1216 0.930 . S
C1222 C1223 1.367 . S
C1222 C1230 1.378 . S
C1223 C1222 1.367 . S
C1223 C1231 1.433 . S
C1224 H1220 0.929 . S
C1224 C1226 1.378 . S
C1224 C1228 1.350 . S
C1225 C1228 1.463 . S
C1225 C1230 1.350 . S
C1225 N1233 1.427 . S
C1226 H1217 0.930 . S
C1226 C1224 1.378 . S
C1226 C1227 1.367 . S
C1227 C1226 1.367 . S
C1227 C1229 1.433 . S
C1228 C1224 1.350 . S
C1228 C1225 1.463 . S
C1228 N1232 1.427 . S
C1229 H1219 0.929 . S
C1229 C1227 1.433 . S
C1229 N1232 1.384 . S
C1230 H1221 0.929 . S
C1230 C1222 1.378 . S
C1230 C1225 1.350 . S
C1231 H1218 0.929 . S
C1231 C1223 1.433 . S
C1231 N1233 1.384 . S
N1232 C1228 1.427 . S
N1232 C1229 1.384 . S
N1233 C1225 1.427 . S
N1233 C1231 1.384 . S
H1234 C1240 0.930 . S
H1235 C1244 0.930 . S
H1236 C1249 0.929 . S
H1237 C1247 0.929 . S
H1238 C1242 0.929 . S
H1239 C1248 0.929 . S
C1240 H1234 0.930 . S
C1240 C1241 1.367 . S
C1240 C1248 1.378 . S
C1241 C1240 1.367 . S
C1241 C1249 1.433 . S
C1242 H1238 0.929 . S
C1242 C1244 1.378 . S
C1242 C1246 1.350 . S
C1243 C1246 1.463 . S
C1243 C1248 1.350 . S
C1243 N1251 1.427 . S
C1244 H1235 0.930 . S
C1244 C1242 1.378 . S
C1244 C1245 1.367 . S
C1245 C1244 1.367 . S
C1245 C1247 1.433 . S
C1246 C1242 1.350 . S
C1246 C1243 1.463 . S
C1246 N1250 1.427 . S
C1247 H1237 0.929 . S
C1247 C1245 1.433 . S
C1247 N1250 1.384 . S
C1248 H1239 0.929 . S
C1248 C1240 1.378 . S
C1248 C1243 1.350 . S
C1249 H1236 0.929 . S
C1249 C1241 1.433 . S
C1249 N1251 1.384 . S
N1250 C1246 1.427 . S
N1250 C1247 1.384 . S
N1251 C1243 1.427 . S
N1251 C1249 1.384 . S
H1252 C1258 0.930 . S
H1253 C1262 0.930 . S
H1254 C1267 0.929 . S
H1255 C1265 0.929 . S
H1256 C1260 0.929 . S
H1257 C1266 0.929 . S
C1258 H1252 0.930 . S
C1258 C1259 1.367 . S
C1258 C1266 1.378 . S
C1259 C1258 1.367 . S
C1259 C1267 1.433 . S
C1260 H1256 0.929 . S
C1260 C1262 1.378 . S
C1260 C1264 1.350 . S
C1261 C1264 1.463 . S
C1261 C1266 1.350 . S
C1261 N1269 1.427 . S
C1262 H1253 0.930 . S
C1262 C1260 1.378 . S
C1262 C1263 1.367 . S
C1263 C1262 1.367 . S
C1263 C1265 1.433 . S
C1264 C1260 1.350 . S
C1264 C1261 1.463 . S
C1264 N1268 1.427 . S
C1265 H1255 0.929 . S
C1265 C1263 1.433 . S
C1265 N1268 1.384 . S
C1266 H1257 0.929 . S
C1266 C1258 1.378 . S
C1266 C1261 1.350 . S
C1267 H1254 0.929 . S
C1267 C1259 1.433 . S
C1267 N1269 1.384 . S
N1268 C1264 1.427 . S
N1268 C1265 1.384 . S
N1269 C1261 1.427 . S
N1269 C1267 1.384 . S
H1270 C1276 0.930 . S
H1271 C1280 0.930 . S
H1272 C1285 0.929 . S
H1273 C1283 0.929 . S
H1274 C1278 0.929 . S
H1275 C1284 0.929 . S
C1276 H1270 0.930 . S
C1276 C1277 1.367 . S
C1276 C1284 1.378 . S
C1277 C1276 1.367 . S
C1277 C1285 1.433 . S
C1278 H1274 0.929 . S
C1278 C1280 1.378 . S
C1278 C1282 1.350 . S
C1279 C1282 1.463 . S
C1279 C1284 1.350 . S
C1279 N1287 1.427 . S
C1280 H1271 0.930 . S
C1280 C1278 1.378 . S
C1280 C1281 1.367 . S
C1281 C1280 1.367 . S
C1281 C1283 1.433 . S
C1282 C1278 1.350 . S
C1282 C1279 1.463 . S
C1282 N1286 1.427 . S
C1283 H1273 0.929 . S
C1283 C1281 1.433 . S
C1283 N1286 1.384 . S
C1284 H1275 0.929 . S
C1284 C1276 1.378 . S
C1284 C1279 1.350 . S
C1285 H1272 0.929 . S
C1285 C1277 1.433 . S
C1285 N1287 1.384 . S
N1286 C1282 1.427 . S
N1286 C1283 1.384 . S
N1287 C1279 1.427 . S
N1287 C1285 1.384 . S
H1288 C1294 0.930 . S
H1289 C1298 0.930 . S
H1290 C1303 0.929 . S
H1291 C1301 0.929 . S
H1292 C1296 0.929 . S
H1293 C1302 0.929 . S
C1294 H1288 0.930 . S
C1294 C1295 1.367 . S
C1294 C1302 1.378 . S
C1295 C1294 1.367 . S
C1295 C1303 1.433 . S
C1296 H1292 0.929 . S
C1296 C1298 1.378 . S
C1296 C1300 1.350 . S
C1297 C1300 1.463 . S
C1297 C1302 1.350 . S
C1297 N1305 1.427 . S
C1298 H1289 0.930 . S
C1298 C1296 1.378 . S
C1298 C1299 1.367 . S
C1299 C1298 1.367 . S
C1299 C1301 1.433 . S
C1300 C1296 1.350 . S
C1300 C1297 1.463 . S
C1300 N1304 1.427 . S
C1301 H1291 0.929 . S
C1301 C1299 1.433 . S
C1301 N1304 1.384 . S
C1302 H1293 0.929 . S
C1302 C1294 1.378 . S
C1302 C1297 1.350 . S
C1303 H1290 0.929 . S
C1303 C1295 1.433 . S
C1303 N1305 1.384 . S
N1304 C1300 1.427 . S
N1304 C1301 1.384 . S
N1305 C1297 1.427 . S
N1305 C1303 1.384 . S
H1306 C1312 0.930 . S
H1307 C1316 0.930 . S
H1308 C1321 0.929 . S
H1309 C1319 0.929 . S
H1310 C1314 0.929 . S
H1311 C1320 0.929 . S
C1312 H1306 0.930 . S
C1312 C1313 1.367 . S
C1312 C1320 1.378 . S
C1313 C1312 1.367 . S
C1313 C1321 1.433 . S
C1314 H1310 0.929 . S
C1314 C1316 1.378 . S
C1314 C1318 1.350 . S
C1315 C1318 1.463 . S
C1315 C1320 1.350 . S
C1315 N1323 1.427 . S
C1316 H1307 0.930 . S
C1316 C1314 1.378 . S
C1316 C1317 1.367 . S
C1317 C1316 1.367 . S
C1317 C1319 1.433 . S
C1318 C1314 1.350 . S
C1318 C1315 1.463 . S
C1318 N1322 1.427 . S
C1319 H1309 0.929 . S
C1319 C1317 1.433 . S
C1319 N1322 1.384 . S
C1320 H1311 0.929 . S
C1320 C1312 1.378 . S
C1320 C1315 1.350 . S
C1321 H1308 0.929 . S
C1321 C1313 1.433 . S
C1321 N1323 1.384 . S
N1322 C1318 1.427 . S
N1322 C1319 1.384 . S
N1323 C1315 1.427 . S
N1323 C1321 1.384 . S
H1324 C1330 0.930 . S
H1325 C1334 0.930 . S
H1326 C1339 0.929 . S
H1327 C1337 0.929 . S
H1328 C1332 0.929 . S
H1329 C1338 0.929 . S
C1330 H1324 0.930 . S
C1330 C1331 1.367 . S
C1330 C1338 1.378 . S
C1331 C1330 1.367 . S
C1331 C1339 1.433 . S
C1332 H1328 0.929 . S
C1332 C1334 1.378 . S
C1332 C1336 1.350 . S
C1333 C1336 1.463 . S
C1333 C1338 1.350 . S
C1333 N1341 1.427 . S
C1334 H1325 0.930 . S
C1334 C1332 1.378 . S
C1334 C1335 1.367 . S
C1335 C1334 1.367 . S
C1335 C1337 1.433 . S
C1336 C1332 1.350 . S
C1336 C1333 1.463 . S
C1336 N1340 1.427 . S
C1337 H1327 0.929 . S
C1337 C1335 1.433 . S
C1337 N1340 1.384 . S
C1338 H1329 0.929 . S
C1338 C1330 1.378 . S
C1338 C1333 1.350 . S
C1339 H1326 0.929 . S
C1339 C1331 1.433 . S
C1339 N1341 1.384 . S
N1340 C1336 1.427 . S
N1340 C1337 1.384 . S
N1341 C1333 1.427 . S
N1341 C1339 1.384 . S
H1342 C1348 0.930 . S
H1343 C1352 0.930 . S
H1344 C1357 0.929 . S
H1345 C1355 0.929 . S
H1346 C1350 0.929 . S
H1347 C1356 0.929 . S
C1348 H1342 0.930 . S
C1348 C1349 1.367 . S
C1348 C1356 1.378 . S
C1349 C1348 1.367 . S
C1349 C1357 1.433 . S
C1350 H1346 0.929 . S
C1350 C1352 1.378 . S
C1350 C1354 1.350 . S
C1351 C1354 1.463 . S
C1351 C1356 1.350 . S
C1351 N1359 1.427 . S
C1352 H1343 0.930 . S
C1352 C1350 1.378 . S
C1352 C1353 1.367 . S
C1353 C1352 1.367 . S
C1353 C1355 1.433 . S
C1354 C1350 1.350 . S
C1354 C1351 1.463 . S
C1354 N1358 1.427 . S
C1355 H1345 0.929 . S
C1355 C1353 1.433 . S
C1355 N1358 1.384 . S
C1356 H1347 0.929 . S
C1356 C1348 1.378 . S
C1356 C1351 1.350 . S
C1357 H1344 0.929 . S
C1357 C1349 1.433 . S
C1357 N1359 1.384 . S
N1358 C1354 1.427 . S
N1358 C1355 1.384 . S
N1359 C1351 1.427 . S
N1359 C1357 1.384 . S
H1360 C1366 0.930 . S
H1361 C1370 0.930 . S
H1362 C1375 0.929 . S
H1363 C1373 0.929 . S
H1364 C1368 0.929 . S
H1365 C1374 0.929 . S
C1366 H1360 0.930 . S
C1366 C1367 1.367 . S
C1366 C1374 1.378 . S
C1367 C1366 1.367 . S
C1367 C1375 1.433 . S
C1368 H1364 0.929 . S
C1368 C1370 1.378 . S
C1368 C1372 1.350 . S
C1369 C1372 1.463 . S
C1369 C1374 1.350 . S
C1369 N1377 1.427 . S
C1370 H1361 0.930 . S
C1370 C1368 1.378 . S
C1370 C1371 1.367 . S
C1371 C1370 1.367 . S
C1371 C1373 1.433 . S
C1372 C1368 1.350 . S
C1372 C1369 1.463 . S
C1372 N1376 1.427 . S
C1373 H1363 0.929 . S
C1373 C1371 1.433 . S
C1373 N1376 1.384 . S
C1374 H1365 0.929 . S
C1374 C1366 1.378 . S
C1374 C1369 1.350 . S
C1375 H1362 0.929 . S
C1375 C1367 1.433 . S
C1375 N1377 1.384 . S
N1376 C1372 1.427 . S
N1376 C1373 1.384 . S
N1377 C1369 1.427 . S
N1377 C1375 1.384 . S
H1378 C1384 0.930 . S
H1379 C1388 0.930 . S
H1380 C1393 0.929 . S
H1381 C1391 0.929 . S
H1382 C1386 0.929 . S
H1383 C1392 0.929 . S
C1384 H1378 0.930 . S
C1384 C1385 1.367 . S
C1384 C1392 1.378 . S
C1385 C1384 1.367 . S
C1385 C1393 1.433 . S
C1386 H1382 0.929 . S
C1386 C1388 1.378 . S
C1386 C1390 1.350 . S
C1387 C1390 1.463 . S
C1387 C1392 1.350 . S
C1387 N1395 1.427 . S
C1388 H1379 0.930 . S
C1388 C1386 1.378 . S
C1388 C1389 1.367 . S
C1389 C1388 1.367 . S
C1389 C1391 1.433 . S
C1390 C1386 1.350 . S
C1390 C1387 1.463 . S
C1390 N1394 1.427 . S
C1391 H1381 0.929 . S
C1391 C1389 1.433 . S
C1391 N1394 1.384 . S
C1392 H1383 0.929 . S
C1392 C1384 1.378 . S
C1392 C1387 1.350 . S
C1393 H1380 0.929 . S
C1393 C1385 1.433 . S
C1393 N1395 1.384 . S
N1394 C1390 1.427 . S
N1394 C1391 1.384 . S
N1395 C1387 1.427 . S
N1395 C1393 1.384 . S
H1396 C1402 0.930 . S
H1397 C1406 0.930 . S
H1398 C1411 0.929 . S
H1399 C1409 0.929 . S
H1400 C1404 0.929 . S
H1401 C1410 0.929 . S
C1402 H1396 0.930 . S
C1402 C1403 1.367 . S
C1402 C1410 1.378 . S
C1403 C1402 1.367 . S
C1403 C1411 1.433 . S
C1404 H1400 0.929 . S
C1404 C1406 1.378 . S
C1404 C1408 1.350 . S
C1405 C1408 1.463 . S
C1405 C1410 1.350 . S
C1405 N1413 1.427 . S
C1406 H1397 0.930 . S
C1406 C1404 1.378 . S
C1406 C1407 1.367 . S
C1407 C1406 1.367 . S
C1407 C1409 1.433 . S
C1408 C1404 1.350 . S
C1408 C1405 1.463 . S
C1408 N1412 1.427 . S
C1409 H1399 0.929 . S
C1409 C1407 1.433 . S
C1409 N1412 1.384 . S
C1410 H1401 0.929 . S
C1410 C1402 1.378 . S
C1410 C1405 1.350 . S
C1411 H1398 0.929 . S
C1411 C1403 1.433 . S
C1411 N1413 1.384 . S
N1412 C1408 1.427 . S
N1412 C1409 1.384 . S
N1413 C1405 1.427 . S
N1413 C1411 1.384 . S
H1414 C1420 0.930 . S
H1415 C1424 0.930 . S
H1416 C1429 0.929 . S
H1417 C1427 0.929 . S
H1418 C1422 0.929 . S
H1419 C1428 0.929 . S
C1420 H1414 0.930 . S
C1420 C1421 1.367 . S
C1420 C1428 1.378 . S
C1421 C1420 1.367 . S
C1421 C1429 1.433 . S
C1422 H1418 0.929 . S
C1422 C1424 1.378 . S
C1422 C1426 1.350 . S
C1423 C1426 1.463 . S
C1423 C1428 1.350 . S
C1423 N1431 1.427 . S
C1424 H1415 0.930 . S
C1424 C1422 1.378 . S
C1424 C1425 1.367 . S
C1425 C1424 1.367 . S
C1425 C1427 1.433 . S
C1426 C1422 1.350 . S
C1426 C1423 1.463 . S
C1426 N1430 1.427 . S
C1427 H1417 0.929 . S
C1427 C1425 1.433 . S
C1427 N1430 1.384 . S
C1428 H1419 0.929 . S
C1428 C1420 1.378 . S
C1428 C1423 1.350 . S
C1429 H1416 0.929 . S
C1429 C1421 1.433 . S
C1429 N1431 1.384 . S
N1430 C1426 1.427 . S
N1430 C1427 1.384 . S
N1431 C1423 1.427 . S
N1431 C1429 1.384 . S
H1432 C1438 0.930 . S
H1433 C1442 0.930 . S
H1434 C1447 0.929 . S
H1435 C1445 0.929 . S
H1436 C1440 0.929 . S
H1437 C1446 0.929 . S
C1438 H1432 0.930 . S
C1438 C1439 1.367 . S
C1438 C1446 1.378 . S
C1439 C1438 1.367 . S
C1439 C1447 1.433 . S
C1440 H1436 0.929 . S
C1440 C1442 1.378 . S
C1440 C1444 1.350 . S
C1441 C1444 1.463 . S
C1441 C1446 1.350 . S
C1441 N1449 1.427 . S
C1442 H1433 0.930 . S
C1442 C1440 1.378 . S
C1442 C1443 1.367 . S
C1443 C1442 1.367 . S
C1443 C1445 1.433 . S
C1444 C1440 1.350 . S
C1444 C1441 1.463 . S
C1444 N1448 1.427 . S
C1445 H1435 0.929 . S
C1445 C1443 1.433 . S
C1445 N1448 1.384 . S
C1446 H1437 0.929 . S
C1446 C1438 1.378 . S
C1446 C1441 1.350 . S
C1447 H1434 0.929 . S
C1447 C1439 1.433 . S
C1447 N1449 1.384 . S
N1448 C1444 1.427 . S
N1448 C1445 1.384 . S
N1449 C1441 1.427 . S
N1449 C1447 1.384 . S
H1450 C1456 0.930 . S
H1451 C1460 0.930 . S
H1452 C1465 0.929 . S
H1453 C1463 0.929 . S
H1454 C1458 0.929 . S
H1455 C1464 0.929 . S
C1456 H1450 0.930 . S
C1456 C1457 1.367 . S
C1456 C1464 1.378 . S
C1457 C1456 1.367 . S
C1457 C1465 1.433 . S
C1458 H1454 0.929 . S
C1458 C1460 1.378 . S
C1458 C1462 1.350 . S
C1459 C1462 1.463 . S
C1459 C1464 1.350 . S
C1459 N1467 1.427 . S
C1460 H1451 0.930 . S
C1460 C1458 1.378 . S
C1460 C1461 1.367 . S
C1461 C1460 1.367 . S
C1461 C1463 1.433 . S
C1462 C1458 1.350 . S
C1462 C1459 1.463 . S
C1462 N1466 1.427 . S
C1463 H1453 0.929 . S
C1463 C1461 1.433 . S
C1463 N1466 1.384 . S
C1464 H1455 0.929 . S
C1464 C1456 1.378 . S
C1464 C1459 1.350 . S
C1465 H1452 0.929 . S
C1465 C1457 1.433 . S
C1465 N1467 1.384 . S
N1466 C1462 1.427 . S
N1466 C1463 1.384 . S
N1467 C1459 1.427 . S
N1467 C1465 1.384 . S
H1468 C1474 0.930 . S
H1469 C1478 0.930 . S
H1470 C1483 0.929 . S
H1471 C1481 0.929 . S
H1472 C1476 0.929 . S
H1473 C1482 0.929 . S
C1474 H1468 0.930 . S
C1474 C1475 1.367 . S
C1474 C1482 1.378 . S
C1475 C1474 1.367 . S
C1475 C1483 1.433 . S
C1476 H1472 0.929 . S
C1476 C1478 1.378 . S
C1476 C1480 1.350 . S
C1477 C1480 1.463 . S
C1477 C1482 1.350 . S
C1477 N1485 1.427 . S
C1478 H1469 0.930 . S
C1478 C1476 1.378 . S
C1478 C1479 1.367 . S
C1479 C1478 1.367 . S
C1479 C1481 1.433 . S
C1480 C1476 1.350 . S
C1480 C1477 1.463 . S
C1480 N1484 1.427 . S
C1481 H1471 0.929 . S
C1481 C1479 1.433 . S
C1481 N1484 1.384 . S
C1482 H1473 0.929 . S
C1482 C1474 1.378 . S
C1482 C1477 1.350 . S
C1483 H1470 0.929 . S
C1483 C1475 1.433 . S
C1483 N1485 1.384 . S
N1484 C1480 1.427 . S
N1484 C1481 1.384 . S
N1485 C1477 1.427 . S
N1485 C1483 1.384 . S
H1486 C1492 0.930 . S
H1487 C1496 0.930 . S
H1488 C1501 0.929 . S
H1489 C1499 0.929 . S
H1490 C1494 0.929 . S
H1491 C1500 0.929 . S
C1492 H1486 0.930 . S
C1492 C1493 1.367 . S
C1492 C1500 1.378 . S
C1493 C1492 1.367 . S
C1493 C1501 1.433 . S
C1494 H1490 0.929 . S
C1494 C1496 1.378 . S
C1494 C1498 1.350 . S
C1495 C1498 1.463 . S
C1495 C1500 1.350 . S
C1495 N1503 1.427 . S
C1496 H1487 0.930 . S
C1496 C1494 1.378 . S
C1496 C1497 1.367 . S
C1497 C1496 1.367 . S
C1497 C1499 1.433 . S
C1498 C1494 1.350 . S
C1498 C1495 1.463 . S
C1498 N1502 1.427 . S
C1499 H1489 0.929 . S
C1499 C1497 1.433 . S
C1499 N1502 1.384 . S
C1500 H1491 0.929 . S
C1500 C1492 1.378 . S
C1500 C1495 1.350 . S
C1501 H1488 0.929 . S
C1501 C1493 1.433 . S
C1501 N1503 1.384 . S
N1502 C1498 1.427 . S
N1502 C1499 1.384 . S
N1503 C1495 1.427 . S
N1503 C1501 1.384 . S
C647 C139 1.825 . S
C651 C18 1.833 . S
C665 C10 1.178 . S
C669 C55 1.139 . S
C683 C89 0.864 . S
C687 C58 0.862 . S
C701 C126 1.564 . S
C705 C86 1.567 . S
C719 C166 1.240 . S
C723 C210 1.253 . S
C737 C218 0.899 . S
C741 C258 0.896 . S
C755 C255 1.280 . S
C759 C286 1.258 . S
C773 C179 1.863 . S
C777 C289 1.902 . S
C791 C375 1.260 . S
C795 C15 1.242 . S
C809 C410 1.737 . S
C813 C50 1.708 . S
C827 C99 3.892 . S
C831 C539 3.874 . S
C845 C329 0.844 . S
C849 C129 0.866 . S
C863 C449 0.865 . S
C867 C169 0.847 . S
C881 C575 1.252 . S
C885 C215 1.257 . S
C899 C250 1.738 . S
C903 C490 1.710 . S
C917 C619 3.889 . S
C921 C299 3.877 . S
C935 C339 1.867 . S
C939 C529 1.904 . S
C953 C370 1.251 . S
C957 C326 1.232 . S
C971 C418 0.905 . S
C975 C378 0.904 . S
C989 C578 1.830 . S
C993 C459 1.821 . S
C1007 C498 0.855 . S
C1011 C609 0.868 . S
C1025 C450 1.821 . S
C1029 C9 1.830 . S
C1043 C486 1.148 . S
C1047 C19 1.182 . S
C1061 C489 0.852 . S
C1065 C98 0.869 . S
C1079 C95 1.577 . S
C1083 C455 1.575 . S
C1097 C379 1.237 . S
C1101 C175 1.221 . S
C1115 C369 0.905 . S
C1119 C249 0.895 . S
C1133 C535 1.251 . S
C1137 C246 1.278 . S
C1151 C170 1.868 . S
C1155 C538 1.905 . S
C1169 C206 1.257 . S
C1173 C6 1.242 . S
C1187 C419 1.730 . S
C1191 C499 1.709 . S
C1205 C90 3.890 . S
C1209 C290 3.877 . S
C1223 C338 0.863 . S
C1227 C458 0.857 . S
C1241 C138 0.869 . S
C1245 C178 0.838 . S
C1259 C366 1.255 . S
C1263 C566 1.248 . S
C1277 C259 1.739 . S
C1281 C59 1.715 . S
C1295 C610 3.892 . S
C1299 C530 3.874 . S
C1313 C330 1.866 . S
C1317 C298 1.903 . S
C1331 C335 1.233 . S
C1335 C219 1.252 . S
C1349 C409 0.906 . S
C1353 C209 0.902 . S
C1367 C130 1.824 . S
C1371 C569 1.832 . S
C1385 C49 0.857 . S
C1389 C618 0.857 . S
C1403 C495 1.154 . S
C1407 C570 1.179 . S
C1421 C446 1.562 . S
C1425 C606 1.565 . S
C1439 C415 1.279 . S
C1443 C526 1.263 . S
C1457 C579 1.175 . S
C1461 C46 1.156 . S
C1475 C135 1.573 . S
C1479 C615 1.576 . S
C1493 C295 1.263 . S
C1497 C406 1.278 . S
