# Generated by pormake.
# Topology bcs, (6)-cn, num edge types: 1
# Building blocks:
#     Node 0, Type 0, BuildingBlock: KUMJIN_clean_sbu_0, # of connection points: 6
#     Node 1, Type 0, BuildingBlock: KUMJIN_clean_sbu_0, # of connection points: 6
#     Node 2, Type 0, BuildingBlock: KUMJIN_clean_sbu_0, # of connection points: 6
#     Node 3, Type 0, BuildingBlock: KUMJIN_clean_sbu_0, # of connection points: 6
#     Node 4, Type 0, BuildingBlock: KUMJIN_clean_sbu_0, # of connection points: 6
#     Node 5, Type 0, BuildingBlock: KUMJIN_clean_sbu_0, # of connection points: 6
#     Node 6, Type 0, BuildingBlock: KUMJIN_clean_sbu_0, # of connection points: 6
#     Node 7, Type 0, BuildingBlock: KUMJIN_clean_sbu_0, # of connection points: 6
#     Node 8, Type 0, BuildingBlock: KUMJIN_clean_sbu_0, # of connection points: 6
#     Node 9, Type 0, BuildingBlock: KUMJIN_clean_sbu_0, # of connection points: 6
#     Node 10, Type 0, BuildingBlock: KUMJIN_clean_sbu_0, # of connection points: 6
#     Node 11, Type 0, BuildingBlock: KUMJIN_clean_sbu_0, # of connection points: 6
#     Node 12, Type 0, BuildingBlock: KUMJIN_clean_sbu_0, # of connection points: 6
#     Node 13, Type 0, BuildingBlock: KUMJIN_clean_sbu_0, # of connection points: 6
#     Node 14, Type 0, BuildingBlock: KUMJIN_clean_sbu_0, # of connection points: 6
#     Node 15, Type 0, BuildingBlock: KUMJIN_clean_sbu_0, # of connection points: 6
#     Edge 16, Type (0, 0), BuildingBlock: UVAHIK_clean_linker_0, # of connection points: 2
#     Edge 17, Type (0, 0), BuildingBlock: UVAHIK_clean_linker_0, # of connection points: 2
#     Edge 18, Type (0, 0), BuildingBlock: UVAHIK_clean_linker_0, # of connection points: 2
#     Edge 19, Type (0, 0), BuildingBlock: UVAHIK_clean_linker_0, # of connection points: 2
#     Edge 20, Type (0, 0), BuildingBlock: UVAHIK_clean_linker_0, # of connection points: 2
#     Edge 21, Type (0, 0), BuildingBlock: UVAHIK_clean_linker_0, # of connection points: 2
#     Edge 22, Type (0, 0), BuildingBlock: UVAHIK_clean_linker_0, # of connection points: 2
#     Edge 23, Type (0, 0), BuildingBlock: UVAHIK_clean_linker_0, # of connection points: 2
#     Edge 24, Type (0, 0), BuildingBlock: UVAHIK_clean_linker_0, # of connection points: 2
#     Edge 25, Type (0, 0), BuildingBlock: UVAHIK_clean_linker_0, # of connection points: 2
#     Edge 26, Type (0, 0), BuildingBlock: UVAHIK_clean_linker_0, # of connection points: 2
#     Edge 27, Type (0, 0), BuildingBlock: UVAHIK_clean_linker_0, # of connection points: 2
#     Edge 28, Type (0, 0), BuildingBlock: UVAHIK_clean_linker_0, # of connection points: 2
#     Edge 29, Type (0, 0), BuildingBlock: UVAHIK_clean_linker_0, # of connection points: 2
#     Edge 30, Type (0, 0), BuildingBlock: UVAHIK_clean_linker_0, # of connection points: 2
#     Edge 31, Type (0, 0), BuildingBlock: UVAHIK_clean_linker_0, # of connection points: 2
#     Edge 32, Type (0, 0), BuildingBlock: UVAHIK_clean_linker_0, # of connection points: 2
#     Edge 33, Type (0, 0), BuildingBlock: UVAHIK_clean_linker_0, # of connection points: 2
#     Edge 34, Type (0, 0), BuildingBlock: UVAHIK_clean_linker_0, # of connection points: 2
#     Edge 35, Type (0, 0), BuildingBlock: UVAHIK_clean_linker_0, # of connection points: 2
#     Edge 36, Type (0, 0), BuildingBlock: UVAHIK_clean_linker_0, # of connection points: 2
#     Edge 37, Type (0, 0), BuildingBlock: UVAHIK_clean_linker_0, # of connection points: 2
#     Edge 38, Type (0, 0), BuildingBlock: UVAHIK_clean_linker_0, # of connection points: 2
#     Edge 39, Type (0, 0), BuildingBlock: UVAHIK_clean_linker_0, # of connection points: 2
#     Edge 40, Type (0, 0), BuildingBlock: UVAHIK_clean_linker_0, # of connection points: 2
#     Edge 41, Type (0, 0), BuildingBlock: UVAHIK_clean_linker_0, # of connection points: 2
#     Edge 42, Type (0, 0), BuildingBlock: UVAHIK_clean_linker_0, # of connection points: 2
#     Edge 43, Type (0, 0), BuildingBlock: UVAHIK_clean_linker_0, # of connection points: 2
#     Edge 44, Type (0, 0), BuildingBlock: UVAHIK_clean_linker_0, # of connection points: 2
#     Edge 45, Type (0, 0), BuildingBlock: UVAHIK_clean_linker_0, # of connection points: 2
#     Edge 46, Type (0, 0), BuildingBlock: UVAHIK_clean_linker_0, # of connection points: 2
#     Edge 47, Type (0, 0), BuildingBlock: UVAHIK_clean_linker_0, # of connection points: 2
#     Edge 48, Type (0, 0), BuildingBlock: UVAHIK_clean_linker_0, # of connection points: 2
#     Edge 49, Type (0, 0), BuildingBlock: UVAHIK_clean_linker_0, # of connection points: 2
#     Edge 50, Type (0, 0), BuildingBlock: UVAHIK_clean_linker_0, # of connection points: 2
#     Edge 51, Type (0, 0), BuildingBlock: UVAHIK_clean_linker_0, # of connection points: 2
#     Edge 52, Type (0, 0), BuildingBlock: UVAHIK_clean_linker_0, # of connection points: 2
#     Edge 53, Type (0, 0), BuildingBlock: UVAHIK_clean_linker_0, # of connection points: 2
#     Edge 54, Type (0, 0), BuildingBlock: UVAHIK_clean_linker_0, # of connection points: 2
#     Edge 55, Type (0, 0), BuildingBlock: UVAHIK_clean_linker_0, # of connection points: 2
#     Edge 56, Type (0, 0), BuildingBlock: UVAHIK_clean_linker_0, # of connection points: 2
#     Edge 57, Type (0, 0), BuildingBlock: UVAHIK_clean_linker_0, # of connection points: 2
#     Edge 58, Type (0, 0), BuildingBlock: UVAHIK_clean_linker_0, # of connection points: 2
#     Edge 59, Type (0, 0), BuildingBlock: UVAHIK_clean_linker_0, # of connection points: 2
#     Edge 60, Type (0, 0), BuildingBlock: UVAHIK_clean_linker_0, # of connection points: 2
#     Edge 61, Type (0, 0), BuildingBlock: UVAHIK_clean_linker_0, # of connection points: 2
#     Edge 62, Type (0, 0), BuildingBlock: UVAHIK_clean_linker_0, # of connection points: 2
#     Edge 63, Type (0, 0), BuildingBlock: UVAHIK_clean_linker_0, # of connection points: 2
# Relax obj value: 0.093
# Max RMSD: 0.248
# Mean RMSD: 0.188
data_MOF--net-bcs--node1-KUMJIN_clean_sbu_0--edge1-UVAHIK_clean_linker_0
_symmetry_space_group_name_H-M    P1
_symmetry_Int_Tables_number       1
_symmetry_cell_setting            triclinic
loop_
_symmetry_equiv_pos_as_xyz
'x, y, z'
_cell_length_a     48.749086
_cell_length_b     49.164215
_cell_length_c     56.175756
_cell_angle_alpha  72.288535
_cell_angle_beta   106.29781
_cell_angle_gamma 117.66794
loop_
_atom_site_label
_atom_site_type_symbol
_atom_site_fract_x
_atom_site_fract_y
_atom_site_fract_z
_atom_type_partial_charge
Eu0 Eu 1.02407 0.96723 0.98114 0.0
C1 C 0.12704 0.05936 0.05286 0.0
C2 C 0.13423 0.02552 0.09332 0.0
C3 C 0.17737 0.07531 0.08095 0.0
C4 C 0.11541 0.03153 0.06995 0.0
C5 C 0.15782 0.08205 0.0585 0.0
C6 C 0.16557 0.04706 0.09835 0.0
C7 C 0.14605 0.11798 0.02132 0.0
N8 N 0.10723 0.06547 0.03181 0.0
C9 C 0.11563 0.09482 0.0168 0.0
C10 C 0.16745 0.11138 0.04203 0.0
Eu11 Eu 0.05628 0.02521 0.02455 0.0
N12 N 0.08491 0.01148 0.06459 0.0
C13 C 0.0711 0.98623 0.08269 0.0
C14 C 0.12062 0.9987 0.11133 0.0
C15 C 0.08878 0.97926 0.10614 0.0
H16 H 0.099 0.09998 0.00086 0.0
H17 H 0.07784 0.9588 0.12015 0.0
H18 H 0.18051 0.04261 0.11603 0.0
H19 H 0.15291 0.1409 0.0089 0.0
H20 H 0.04655 0.97089 0.07907 0.0
H21 H 1.01729 0.04196 0.8869 0.0
H22 H 0.13424 0.99331 0.12952 0.0
H23 H 0.9721 0.89456 0.00083 0.0
H24 H 0.04307 0.02438 0.92897 0.0
H25 H 0.91581 0.86038 0.98965 0.0
H26 H 0.20121 0.09228 0.08548 0.0
H27 H 0.96018 0.01382 0.87387 0.0
H28 H 0.9091 0.96918 0.88412 0.0
H29 H 0.1909 0.12945 0.04568 0.0
H30 H 0.88111 0.92018 0.91258 0.0
N31 N 1.00091 0.98672 0.94044 0.0
C32 C 1.01812 0.01176 0.92385 0.0
C33 C 0.97129 0.00603 0.89258 0.0
C34 C 0.95394 0.97974 0.90925 0.0
C35 C 1.00357 0.02188 0.89981 0.0
C36 C 0.96971 0.97029 0.93324 0.0
H37 H 0.88349 0.87914 0.95183 0.0
N38 N 0.97065 0.93293 0.97096 0.0
C39 C 0.92612 0.88364 0.97827 0.0
C40 C 0.95395 0.94278 0.94922 0.0
C41 C 0.95783 0.90301 0.98461 0.0
C42 C 0.90795 0.89436 0.95695 0.0
C43 C 0.92203 0.92386 0.94168 0.0
O44 O 1.02786 0.92464 0.98083 0.0
O45 O 0.05694 0.98443 0.01508 0.0
O46 O 0.09477 0.03908 0.00266 0.0
O47 O 0.06822 0.01003 0.97035 0.0
O48 O 0.03725 0.93637 0.01745 0.0
O49 O 0.04993 0.96762 0.95478 0.0
O50 O 0.04497 0.06366 0.02409 0.0
O51 O 1.02383 0.0079 0.99056 0.0
O52 O 0.98686 0.95429 0.00414 0.0
O53 O 1.01614 0.9798 0.03812 0.0
O54 O 0.04236 0.05558 0.98805 0.0
O55 O 1.02984 0.02091 0.05216 0.0
C56 C 0.05666 0.9589 0.02902 0.0
C57 C 0.03041 0.92047 0.94058 0.0
C58 C 0.03854 0.89929 0.91012 0.0
C59 C 0.05032 0.9142 0.93103 0.0
C60 C 1.00665 0.89047 0.89928 0.0
C61 C 0.99872 0.91122 0.92937 0.0
C62 C 0.98694 0.89632 0.90891 0.0
C63 C 0.09285 0.03199 0.98114 0.0
C64 C 0.04278 0.9376 0.96151 0.0
C65 C 0.90573 0.9342 0.91856 0.0
C66 C 0.92168 0.96206 0.90232 0.0
C67 C 1.02344 0.03302 0.97639 0.0
C68 C 0.04153 0.06763 0.06408 0.0
C69 C 1.01949 0.07297 0.07169 0.0
C70 C 1.02882 0.08931 0.09143 0.0
C71 C 0.06054 0.10043 0.10308 0.0
C72 C 0.0729 0.07896 0.07612 0.0
C73 C 0.08232 0.0953 0.09543 0.0
C74 C 0.99028 0.95969 0.0267 0.0
C75 C 0.03165 0.04941 0.04424 0.0
H76 H 0.07489 0.92141 0.93947 0.0
H77 H 0.99681 0.87864 0.88346 0.0
H78 H 0.983 0.91556 0.93635 0.0
H79 H 0.96242 0.8893 0.90045 0.0
H80 H 0.99514 0.06397 0.0626 0.0
H81 H 0.06865 0.11351 0.11795 0.0
H82 H 0.09012 0.07509 0.07066 0.0
H83 H 0.10663 0.10403 0.10454 0.0
Eu84 Eu 0.31349 0.71661 0.25839 0.0
C85 C 0.20373 0.73924 0.27005 0.0
C86 C 0.16798 0.74623 0.23118 0.0
C87 C 0.14837 0.72185 0.27114 0.0
C88 C 0.19833 0.74917 0.24397 0.0
C89 C 0.17901 0.72703 0.28398 0.0
C90 C 0.14284 0.73133 0.24475 0.0
C91 C 0.21738 0.73119 0.32223 0.0
N92 N 0.23367 0.74481 0.28202 0.0
C93 C 0.24101 0.74298 0.30765 0.0
C94 C 0.18612 0.72228 0.31042 0.0
Eu95 Eu 0.27194 0.76492 0.25547 0.0
N96 N 0.22326 0.76452 0.23147 0.0
C97 C 0.21996 0.78007 0.20682 0.0
C98 C 0.16407 0.75982 0.20538 0.0
C99 C 0.19029 0.77736 0.19329 0.0
H100 H 0.26498 0.75035 0.3172 0.0
H101 H 0.18769 0.78889 0.17356 0.0
H102 H 0.11931 0.72845 0.23518 0.0
H103 H 0.22331 0.72892 0.3426 0.0
H104 H 0.23999 0.79378 0.19722 0.0
H105 H 0.40891 0.71831 0.33806 0.0
H106 H 0.14114 0.75805 0.1949 0.0
H107 H 0.31462 0.72479 0.19669 0.0
H108 H 0.35369 0.70475 0.31677 0.0
H109 H 0.3532 0.74579 0.16825 0.0
H110 H 0.12904 0.71191 0.28152 0.0
H111 H 0.45184 0.74694 0.31259 0.0
H112 H 0.46811 0.7693 0.26956 0.0
H113 H 0.16786 0.71311 0.32179 0.0
H114 H 0.45287 0.77678 0.22318 0.0
N115 N 0.36557 0.72656 0.2799 0.0
C116 C 0.37238 0.71716 0.30558 0.0
C117 C 0.42772 0.74118 0.30323 0.0
C118 C 0.42036 0.74868 0.27679 0.0
C119 C 0.40355 0.72491 0.31766 0.0
C120 C 0.38859 0.74075 0.26555 0.0
H121 H 0.41004 0.76736 0.18526 0.0
N122 N 0.34903 0.73531 0.22966 0.0
C123 C 0.36111 0.74597 0.18826 0.0
C124 C 0.38003 0.74515 0.23956 0.0
C125 C 0.33926 0.73416 0.20453 0.0
C126 C 0.39317 0.75818 0.19791 0.0
C127 C 0.403 0.75731 0.22394 0.0
O128 O 0.29347 0.67881 0.23761 0.0
O129 O 0.27209 0.71704 0.26827 0.0
O130 O 0.30057 0.75538 0.29388 0.0
O131 O 0.34173 0.75374 0.28241 0.0
O132 O 0.29268 0.68921 0.29455 0.0
O133 O 0.31256 0.6704 0.27755 0.0
O134 O 0.31327 0.80749 0.26364 0.0
O135 O 0.30927 0.76216 0.24231 0.0
O136 O 0.27798 0.7159 0.22225 0.0
O137 O 0.2438 0.73599 0.22489 0.0
O138 O 0.28993 0.79243 0.21823 0.0
O139 O 0.26705 0.804 0.26181 0.0
C140 C 0.26946 0.69701 0.28897 0.0
C141 C 0.26646 0.62974 0.26308 0.0
C142 C 0.24148 0.57516 0.28453 0.0
C143 C 0.26833 0.60144 0.2767 0.0
C144 C 0.21243 0.57731 0.27785 0.0
C145 C 0.23733 0.63167 0.25699 0.0
C146 C 0.21042 0.60541 0.26402 0.0
C147 C 0.33002 0.75911 0.29816 0.0
C148 C 0.29557 0.65782 0.25803 0.0
C149 C 0.43487 0.76697 0.23489 0.0
C150 C 0.44354 0.7627 0.2613 0.0
C151 C 0.31059 0.78163 0.22128 0.0
C152 C 0.3073 0.85493 0.2514 0.0
C153 C 0.28685 0.86548 0.23219 0.0
C154 C 0.2961 0.89759 0.22126 0.0
C155 C 0.32666 0.91895 0.22915 0.0
C156 C 0.33767 0.87656 0.25909 0.0
C157 C 0.34734 0.90838 0.24785 0.0
C158 C 0.2521 0.72088 0.21418 0.0
C159 C 0.29704 0.82181 0.26441 0.0
H160 H 0.2911 0.60051 0.28243 0.0
H161 H 0.19145 0.55746 0.28371 0.0
H162 H 0.23548 0.65361 0.24741 0.0
H163 H 0.18808 0.6071 0.25931 0.0
H164 H 0.26365 0.84866 0.22585 0.0
H165 H 0.33439 0.94385 0.22127 0.0
H166 H 0.3538 0.86884 0.27394 0.0
H167 H 0.37076 0.92496 0.25395 0.0
Eu168 Eu 0.5087 0.9961 0.51647 0.0
C169 C 0.57614 0.09222 0.44071 0.0
C170 C 0.53418 0.08551 0.40439 0.0
C171 C 0.57437 0.13766 0.40816 0.0
C172 C 0.54856 0.07282 0.42779 0.0
C173 C 0.58975 0.12479 0.43054 0.0
C174 C 0.54672 0.11805 0.39507 0.0
C175 C 0.63549 0.12898 0.4627 0.0
N176 N 0.59128 0.07897 0.46169 0.0
C177 C 0.62149 0.09658 0.47163 0.0
C178 C 0.61931 0.14327 0.44234 0.0
Eu179 Eu 0.56499 0.02354 0.47543 0.0
N180 N 0.53692 0.04136 0.43711 0.0
C181 C 0.5123 0.02126 0.42326 0.0
C182 C 0.50793 0.06504 0.39078 0.0
C183 C 0.49722 0.03275 0.40011 0.0
H184 H 0.63486 0.08561 0.48668 0.0
H185 H 0.47741 0.01668 0.38943 0.0
H186 H 0.53566 0.12819 0.37738 0.0
H187 H 0.65899 0.14283 0.47122 0.0
H188 H 0.5043 0.9963 0.42982 0.0
H189 H 0.597 0.00418 0.60206 0.0
H190 H 0.49621 0.07389 0.37282 0.0
H191 H 0.43991 0.93297 0.50451 0.0
H192 H 0.56975 0.0241 0.56164 0.0
H193 H 0.41692 0.87577 0.51987 0.0
H194 H 0.58435 0.16262 0.40028 0.0
H195 H 0.57854 0.94706 0.61903 0.0
H196 H 0.53958 0.89253 0.61466 0.0
H197 H 0.63048 0.16831 0.4351 0.0
H198 H 0.49149 0.85756 0.59162 0.0
N199 N 0.53708 0.97883 0.55482 0.0
C200 C 0.56181 0.99916 0.56842 0.0
C201 C 0.56659 0.9557 0.6011 0.0
C202 C 0.54037 0.93501 0.58765 0.0
C203 C 0.57713 0.98794 0.59156 0.0
C204 C 0.5257 0.94742 0.56429 0.0
H205 H 0.4457 0.85106 0.55639 0.0
N206 N 0.48331 0.94057 0.53005 0.0
C207 C 0.44009 0.89 0.52864 0.0
C208 C 0.49849 0.9277 0.55126 0.0
C209 C 0.45349 0.92245 0.51976 0.0
C210 C 0.4564 0.87617 0.54925 0.0
C211 C 0.48548 0.8951 0.56134 0.0
O212 O 0.4645 0.98439 0.52777 0.0
O213 O 0.5199 0.02745 0.47755 0.0
O214 O 0.58752 0.05261 0.50573 0.0
O215 O 0.54336 0.04573 0.51884 0.0
O216 O 0.478 0.01843 0.48618 0.0
O217 O 0.50729 0.01932 0.54364 0.0
O218 O 0.60853 0.03533 0.46279 0.0
O219 O 0.55385 0.99216 0.51436 0.0
O220 O 0.48584 0.96853 0.4854 0.0
O221 O 0.52983 0.97386 0.47307 0.0
O222 O 0.59596 0.00159 0.5059 0.0
O223 O 0.56551 0.99876 0.44916 0.0
C224 C 0.49572 0.03522 0.46909 0.0
C225 C 0.46659 0.99059 0.56863 0.0
C226 C 0.44914 0.99674 0.60304 0.0
C227 C 0.46062 0.0092 0.57971 0.0
C228 C 0.44368 0.96532 0.61468 0.0
C229 C 0.46125 0.95959 0.58106 0.0
C230 C 0.44985 0.94709 0.6039 0.0
C231 C 0.57322 0.06146 0.51664 0.0
C232 C 0.47724 0.00318 0.54373 0.0
C233 C 0.50101 0.88255 0.58381 0.0
C234 C 0.52831 0.90247 0.59699 0.0
C235 C 0.57803 0.98438 0.52282 0.0
C236 C 0.60371 0.02669 0.42209 0.0
C237 C 0.61107 0.00831 0.41195 0.0
C238 C 0.61839 0.01862 0.38718 0.0
C239 C 0.61833 0.04764 0.37294 0.0
C240 C 0.60423 0.05561 0.40747 0.0
C241 C 0.61143 0.06594 0.38306 0.0
C242 C 0.49977 0.95914 0.4747 0.0
C243 C 0.59521 0.0154 0.44773 0.0
H244 H 0.46503 0.03325 0.5702 0.0
H245 H 0.4341 0.95448 0.63206 0.0
H246 H 0.46541 0.94482 0.57293 0.0
H247 H 0.44542 0.92299 0.61319 0.0
H248 H 0.61063 0.9859 0.42316 0.0
H249 H 0.62405 0.0565 0.35402 0.0
H250 H 0.59916 0.0703 0.41489 0.0
H251 H 0.61169 0.08828 0.37192 0.0
Eu252 Eu 0.31836 0.22511 0.77189 0.0
C253 C 0.25194 0.30435 0.68832 0.0
C254 C 0.29456 0.35316 0.67401 0.0
C255 C 0.2463 0.33244 0.64466 0.0
C256 C 0.28197 0.32694 0.69317 0.0
C257 C 0.23346 0.3071 0.66416 0.0
C258 C 0.27682 0.35543 0.64958 0.0
C259 C 0.19035 0.26083 0.68089 0.0
N260 N 0.2403 0.2803 0.7076 0.0
C261 C 0.2096 0.25922 0.70454 0.0
C262 C 0.20243 0.28467 0.66052 0.0
Eu263 Eu 0.27484 0.27753 0.74659 0.0
N264 N 0.29838 0.32396 0.71698 0.0
C265 C 0.32665 0.34754 0.72339 0.0
C266 C 0.32429 0.37659 0.68013 0.0
C267 C 0.34019 0.37398 0.70504 0.0
H268 H 0.20027 0.24058 0.72019 0.0
H269 H 0.36296 0.39223 0.7101 0.0
H270 H 0.28623 0.3752 0.63452 0.0
H271 H 0.16624 0.24366 0.67839 0.0
H272 H 0.33931 0.34573 0.7425 0.0
H273 H 0.23387 0.10742 0.80709 0.0
H274 H 0.33486 0.39704 0.66594 0.0
H275 H 0.39181 0.26532 0.79864 0.0
H276 H 0.25553 0.15567 0.77534 0.0
H277 H 0.42642 0.26227 0.84016 0.0
H278 H 0.2326 0.33482 0.62589 0.0
H279 H 0.263 0.10195 0.85083 0.0
H280 H 0.31143 0.12431 0.88218 0.0
H281 H 0.18746 0.28592 0.64223 0.0
H282 H 0.3638 0.16641 0.8912 0.0
N283 N 0.2962 0.1777 0.80094 0.0
C284 C 0.26855 0.15358 0.79432 0.0
C285 C 0.27266 0.12318 0.83695 0.0
C286 C 0.30175 0.14736 0.84325 0.0
C287 C 0.25617 0.12616 0.81227 0.0
C288 C 0.31317 0.17458 0.82451 0.0
H289 H 0.40701 0.21776 0.87558 0.0
N290 N 0.35316 0.22345 0.81077 0.0
C291 C 0.40282 0.24417 0.83748 0.0
C292 C 0.34253 0.19824 0.82961 0.0
C293 C 0.38325 0.2458 0.81401 0.0
C294 C 0.39176 0.21904 0.85744 0.0
C295 C 0.36143 0.19543 0.85356 0.0
O296 O 0.35602 0.22628 0.75723 0.0
O297 O 0.31203 0.26513 0.74345 0.0
O298 O 0.26235 0.2477 0.71846 0.0
O299 O 0.2735 0.20524 0.74381 0.0
O300 O 0.35753 0.26919 0.75467 0.0
O301 O 0.31111 0.18628 0.75588 0.0
O302 O 0.23733 0.2792 0.75955 0.0
O303 O 0.28037 0.23672 0.77447 0.0
O304 O 0.32858 0.25371 0.80091 0.0
O305 O 0.32068 0.29675 0.77348 0.0
O306 O 0.23518 0.23378 0.76331 0.0
O307 O 0.28438 0.31519 0.76486 0.0
C308 C 0.33973 0.28232 0.73954 0.0
C309 C 0.35624 0.17755 0.75946 0.0
C310 C 0.37522 0.1447 0.74908 0.0
C311 C 0.3584 0.16379 0.74167 0.0
C312 C 0.38998 0.14019 0.77455 0.0
C313 C 0.37067 0.17194 0.78469 0.0
C314 C 0.38748 0.15347 0.79211 0.0
C315 C 0.26116 0.21925 0.7223 0.0
C316 C 0.33987 0.19855 0.7516 0.0
C317 C 0.34974 0.16889 0.8726 0.0
C318 C 0.31994 0.14491 0.86747 0.0
C319 C 0.25244 0.21969 0.77771 0.0
C320 C 0.24272 0.32985 0.75879 0.0
C321 C 0.23376 0.33832 0.77636 0.0
C322 C 0.22309 0.36247 0.76845 0.0
C323 C 0.2211 0.37748 0.74273 0.0
C324 C 0.24034 0.34518 0.73329 0.0
C325 C 0.22954 0.36878 0.72534 0.0
C326 C 0.33122 0.2829 0.7959 0.0
C327 C 0.25521 0.30562 0.76705 0.0
H328 H 0.34686 0.16784 0.72225 0.0
H329 H 0.40397 0.12671 0.781 0.0
H330 H 0.36933 0.18221 0.79859 0.0
H331 H 0.39891 0.14963 0.81158 0.0
H332 H 0.2357 0.32664 0.79612 0.0
H333 H 0.21267 0.39581 0.73597 0.0
H334 H 0.24698 0.339 0.71954 0.0
H335 H 0.22778 0.38048 0.7056 0.0
Eu336 Eu 0.08109 0.98107 0.50701 0.0
C337 C 0.96525 0.98287 0.53239 0.0
C338 C 0.92002 0.97626 0.49897 0.0
C339 C 0.91276 0.9597 0.54296 0.0
C340 C 0.95278 0.98595 0.50683 0.0
C341 C 0.9454 0.97069 0.55067 0.0
C342 C 0.90008 0.96238 0.51716 0.0
C343 C 0.99156 0.98367 0.5828 0.0
N344 N 0.9969 0.9937 0.53935 0.0
C345 C 1.01025 0.99512 0.5641 0.0
C346 C 0.95897 0.97104 0.57612 0.0
Eu347 Eu 1.02727 0.01548 0.50644 0.0
N348 N 0.97271 1.00025 0.48967 0.0
C349 C 0.96132 0.00733 0.46441 0.0
C350 C 0.90829 0.98188 0.47309 0.0
C351 C 0.92909 0.99785 0.45578 0.0
H352 H 0.03538 0.0051 0.56969 0.0
H353 H 0.92033 0.00315 0.43574 0.0
H354 H 0.87489 0.95458 0.51144 0.0
H355 H 1.00232 0.98455 0.60239 0.0
H356 H 0.97678 0.02019 0.4506 0.0
H357 H 0.17179 0.07274 0.45277 0.0
H358 H 0.88333 0.97489 0.46634 0.0
H359 H 0.04757 0.90337 0.50701 0.0
H360 H 0.14098 0.04828 0.48759 0.0
H361 H 0.03752 0.86869 0.47901 0.0
H362 H 0.89717 0.94989 0.55677 0.0
H363 H 0.16048 0.04369 0.41963 0.0
H364 H 0.13033 0.99341 0.40358 0.0
H365 H 0.94456 0.96229 0.59066 0.0
H366 H 0.09348 0.93765 0.4107 0.0
N367 N 0.11227 0.00571 0.4744 0.0
C368 C 0.1359 0.03518 0.47342 0.0
C369 C 0.14703 0.03272 0.43502 0.0
C370 C 0.12398 0.00192 0.43691 0.0
C371 C 0.15352 0.04915 0.45371 0.0
C372 C 0.10721 0.98874 0.45737 0.0
H373 H 0.05919 0.89078 0.43905 0.0
N374 N 0.07346 0.94526 0.48268 0.0
C375 C 0.05131 0.89367 0.47377 0.0
C376 C 0.08691 0.95748 0.46154 0.0
C377 C 0.05705 0.91352 0.4896 0.0
C378 C 0.06348 0.90623 0.45119 0.0
C379 C 0.08217 0.9384 0.44511 0.0
O380 O 0.09537 0.95446 0.54345 0.0
O381 O 0.04743 0.9811 0.52709 0.0
O382 O 0.06704 0.01853 0.53907 0.0
O383 O 0.105 0.02916 0.51754 0.0
O384 O 0.04582 0.93766 0.52855 0.0
O385 O 0.13063 0.99086 0.52207 0.0
O386 O 0.05276 0.0661 0.49342 0.0
O387 O 0.0654 0.01958 0.48925 0.0
O388 O 0.03613 0.96031 0.47967 0.0
O389 O 0.99867 0.97411 0.48654 0.0
O390 O 1.02983 0.03112 0.4646 0.0
O391 O 1.02388 0.04953 0.52171 0.0
C392 C 0.03294 0.95189 0.53446 0.0
C393 C 0.14177 0.98742 0.56604 0.0
C394 C 0.19121 0.01417 0.59239 0.0
C395 C 0.17443 0.99774 0.57253 0.0
C396 C 0.17476 0.02095 0.60512 0.0
C397 C 0.12571 0.99325 0.57978 0.0
C398 C 0.14219 0.01025 0.59897 0.0
C399 C 0.09604 0.03502 0.53476 0.0
C400 C 0.12505 0.9725 0.54393 0.0
C401 C 0.09712 0.95183 0.42371 0.0
C402 C 0.11807 0.98357 0.41965 0.0
C403 C 0.05491 0.02753 0.46616 0.0
C404 C 1.02835 0.09699 0.4935 0.0
C405 C 0.99722 0.08706 0.48105 0.0
C406 C 0.98561 0.10902 0.46591 0.0
C407 C 1.00514 0.14122 0.46377 0.0
C408 C 0.04771 0.12909 0.4915 0.0
C409 C 0.03601 0.15116 0.47676 0.0
C410 C 1.00718 0.95835 0.47657 0.0
C411 C 0.0412 0.07392 0.50704 0.0
H412 H 0.1865 0.99206 0.56251 0.0
H413 H 0.18699 0.03398 0.62017 0.0
H414 H 0.10053 0.98551 0.57519 0.0
H415 H 0.12967 0.01527 0.60904 0.0
H416 H 0.98234 0.06226 0.48243 0.0
H417 H 0.99651 0.15857 0.45208 0.0
H418 H 0.07191 0.13702 0.501 0.0
H419 H 0.051 0.17597 0.47509 0.0
Eu420 Eu 0.25511 0.7629 0.75292 0.0
C421 C 0.36529 0.84705 0.69026 0.0
C422 C 0.34449 0.87397 0.6511 0.0
C423 C 0.3988 0.89945 0.67057 0.0
C424 C 0.34034 0.84792 0.67148 0.0
C425 C 0.39506 0.87245 0.68973 0.0
C426 C 0.37358 0.90016 0.65115 0.0
C427 C 0.4159 0.84118 0.72531 0.0
N428 N 0.36086 0.82043 0.70822 0.0
C429 C 0.38597 0.81651 0.72483 0.0
C430 C 0.42038 0.8695 0.70794 0.0
Eu431 Eu 0.309 0.78017 0.70767 0.0
N432 N 0.31255 0.82232 0.67223 0.0
C433 C 0.28853 0.8203 0.65223 0.0
C434 C 0.31956 0.87252 0.63099 0.0
C435 C 0.29163 0.84534 0.63138 0.0
H436 H 0.38262 0.79471 0.7384 0.0
H437 H 0.27235 0.84375 0.61574 0.0
H438 H 0.37699 0.92069 0.63597 0.0
H439 H 0.43547 0.83832 0.73906 0.0
H440 H 0.26677 0.79952 0.65229 0.0
H441 H 0.29638 0.83347 0.82461 0.0
H442 H 0.32184 0.89195 0.61491 0.0
H443 H 0.22083 0.68416 0.7607 0.0
H444 H 0.2803 0.82263 0.7815 0.0
H445 H 0.20856 0.6375 0.79489 0.0
H446 H 0.42135 0.91944 0.67024 0.0
H447 H 0.29313 0.79004 0.86189 0.0
H448 H 0.27576 0.7321 0.87896 0.0
H449 H 0.44363 0.88853 0.7082 0.0
H450 H 0.25055 0.67862 0.87077 0.0
N451 N 0.27147 0.77437 0.79414 0.0
C452 C 0.27991 0.80377 0.79764 0.0
C453 C 0.28689 0.78537 0.84299 0.0
C454 C 0.27541 0.75482 0.83928 0.0
C455 C 0.28871 0.80992 0.82203 0.0
C456 C 0.26776 0.75004 0.81427 0.0
H457 H 0.22533 0.64317 0.83958 0.0
N458 N 0.24563 0.71664 0.78529 0.0
C459 C 0.22153 0.66061 0.79937 0.0
C460 C 0.25403 0.72015 0.80969 0.0
C461 C 0.2288 0.68733 0.77992 0.0
C462 C 0.23105 0.66389 0.82455 0.0
C463 C 0.24713 0.69392 0.82999 0.0
O464 O 0.20417 0.73626 0.74602 0.0
O465 O 0.27338 0.79056 0.71648 0.0
O466 O 0.33405 0.81315 0.7352 0.0
O467 O 0.30584 0.78952 0.76954 0.0
O468 O 0.26368 0.81383 0.73612 0.0
O469 O 0.22306 0.78315 0.7522 0.0
O470 O 0.33138 0.75215 0.70389 0.0
O471 O 0.28501 0.74834 0.74067 0.0
O472 O 0.23525 0.72804 0.72704 0.0
O473 O 0.25691 0.76078 0.69183 0.0
O474 O 0.32861 0.75058 0.74113 0.0
O475 O 0.29461 0.75886 0.67468 0.0
C476 C 0.27413 0.81654 0.71655 0.0
C477 C 0.17952 0.74525 0.77216 0.0
C478 C 0.15927 0.7556 0.80237 0.0
C479 C 0.17504 0.76635 0.78148 0.0
C480 C 0.14764 0.72343 0.81349 0.0
C481 C 0.16735 0.7132 0.7837 0.0
C482 C 0.15159 0.70249 0.80416 0.0
C483 C 0.33063 0.81011 0.75861 0.0
C484 C 0.19836 0.75674 0.75159 0.0
C485 C 0.25553 0.69848 0.85496 0.0
C486 C 0.26993 0.72891 0.85962 0.0
C487 C 0.30545 0.73833 0.75323 0.0
C488 C 0.33567 0.75697 0.66175 0.0
C489 C 0.34117 0.73424 0.65569 0.0
C490 C 0.35892 0.74292 0.63642 0.0
C491 C 0.37139 0.7745 0.62381 0.0
C492 C 0.34862 0.78826 0.64883 0.0
C493 C 0.36633 0.79694 0.63005 0.0
C494 C 0.23592 0.73427 0.70257 0.0
C495 C 0.31631 0.74842 0.68122 0.0
H496 H 0.18446 0.79113 0.77291 0.0
H497 H 0.13502 0.71432 0.82928 0.0
H498 H 0.17025 0.69628 0.77714 0.0
H499 H 0.14245 0.67779 0.8129 0.0
H500 H 0.33132 0.71 0.66556 0.0
H501 H 0.38549 0.78198 0.60925 0.0
H502 H 0.34496 0.80608 0.65314 0.0
H503 H 0.37618 0.8212 0.62027 0.0
Eu504 Eu 0.54815 0.96581 0.00785 0.0
C505 C 0.50315 0.06646 0.93419 0.0
C506 C 0.55179 0.11269 0.92873 0.0
C507 C 0.50704 0.10501 0.8946 0.0
C508 C 0.53403 0.08394 0.94353 0.0
C509 C 0.48902 0.07721 0.9099 0.0
C510 C 0.53841 0.12269 0.90398 0.0
C511 C 0.43962 0.03384 0.91863 0.0
N512 N 0.48635 0.03985 0.94948 0.0
C513 C 0.45474 0.02408 0.94254 0.0
C514 C 0.45694 0.06023 0.90206 0.0
Eu515 Eu 0.51346 0.02421 0.98932 0.0
N516 N 0.54609 0.07379 0.96763 0.0
C517 C 0.57494 0.09247 0.97874 0.0
C518 C 0.58211 0.131 0.93954 0.0
C519 C 0.5935 0.12109 0.96479 0.0
H520 H 0.44142 0.00344 0.95525 0.0
H521 H 0.61667 0.13539 0.9735 0.0
H522 H 0.55182 0.14451 0.89223 0.0
H523 H 0.41469 0.0209 0.91296 0.0
H524 H 0.58429 0.08515 -0.00186 0.0
H525 H 0.44666 0.85519 0.02988 0.0
H526 H 0.59654 0.15317 0.92879 0.0
H527 H 0.62219 0.98579 0.03811 0.0
H528 H 0.47785 0.90385 0.00273 0.0
H529 H 0.65112 0.97121 0.08025 0.0
H530 H 0.49672 0.11348 0.87576 0.0
H531 H 0.46877 0.84075 0.07477 0.0
H532 H 0.51515 0.85204 0.10996 0.0
H533 H 0.44519 0.06775 0.88356 0.0
H534 H 0.57103 0.88379 0.1238 0.0
N535 N 0.51706 0.91753 0.03206 0.0
C536 C 0.48792 0.89787 0.02222 0.0
C537 C 0.48261 0.86219 0.06292 0.0
C538 C 0.51331 0.88132 0.07239 0.0
C539 C 0.4701 0.8702 0.03758 0.0
C540 C 0.53024 0.90907 0.0562 0.0
H541 H 0.62217 0.92793 0.11265 0.0
N542 N 0.57749 0.95212 0.04722 0.0
C543 C 0.62587 0.95874 0.07603 0.0
C544 C 0.56149 0.92701 0.06407 0.0
C545 C 0.60949 0.96692 0.05224 0.0
C546 C 0.60942 0.93438 0.0943 0.0
C547 C 0.57692 0.91764 0.08823 0.0
O548 O 0.58489 0.96524 0.99297 0.0
O549 O 0.54791 0.01061 0.98237 0.0
O550 O 0.50048 0.00154 0.95581 0.0
O551 O 0.50533 0.9547 0.97679 0.0
O552 O 0.59125 0.00945 0.99598 0.0
O553 O 0.53844 0.928 0.98974 0.0
O554 O 0.47414 0.02685 -0.00122 0.0
O555 O 0.51362 0.97947 0.01505 0.0
O556 O 0.56581 0.99078 0.04003 0.0
O557 O 0.55464 0.0351 0.02193 0.0
O558 O 0.4702 0.98012 -0.00029 0.0
O559 O 0.52185 0.05669 0.01248 0.0
C560 C 0.57683 0.02637 0.98134 0.0
C561 C 0.581 0.91517 0.99424 0.0
C562 C 0.60719 0.88827 0.98483 0.0
C563 C 0.59371 0.91027 0.97702 0.0
C564 C 0.60815 0.87191 0.01026 0.0
C565 C 0.58172 0.89794 0.0192 0.0
C566 C 0.59537 0.87662 0.02717 0.0
C567 C 0.49675 0.97294 0.95631 0.0
C568 C 0.56725 0.93834 0.98628 0.0
C569 C 0.55971 0.89113 0.10502 0.0
C570 C 0.52791 0.87302 0.09712 0.0
C571 C 0.48453 0.96366 0.01537 0.0
C572 C 0.48344 0.07623 0.00505 0.0
C573 C 0.46792 0.07882 0.0215 0.0
C574 C 0.46136 0.10534 0.01662 0.0
C575 C 0.47005 0.12877 0.99489 0.0
C576 C 0.49164 0.0999 0.98346 0.0
C577 C 0.48489 0.12593 0.97841 0.0
C578 C 0.56849 0.01875 0.04005 0.0
C579 C 0.49215 0.04955 0.01095 0.0
H580 H 0.59266 0.92323 0.95761 0.0
H581 H 0.61908 0.85557 0.01727 0.0
H582 H 0.57174 0.90094 0.03257 0.0
H583 H 0.59613 0.86371 0.04658 0.0
H584 H 0.46167 0.06069 0.03829 0.0
H585 H 0.46507 0.14923 0.9905 0.0
H586 H 0.50356 0.09843 0.97065 0.0
H587 H 0.49137 0.1441 0.96172 0.0
Eu588 Eu 0.27582 0.23157 0.22412 0.0
C589 C 0.36542 0.29882 0.2981 0.0
C590 C 0.36125 0.25652 0.33503 0.0
C591 C 0.41206 0.29953 0.3291 0.0
C592 C 0.34739 0.27024 0.3119 0.0
C593 C 0.39787 0.31414 0.30702 0.0
C594 C 0.39377 0.27084 0.34313 0.0
C595 C 0.3991 0.35951 0.2742 0.0
N596 N 0.35083 0.31296 0.27737 0.0
C597 C 0.36684 0.34373 0.26648 0.0
C598 C 0.41483 0.34444 0.29426 0.0
Eu599 Eu 0.29587 0.28343 0.26534 0.0
N600 N 0.31596 0.25687 0.30369 0.0
C601 C 0.29686 0.23121 0.31861 0.0
C602 C 0.34192 0.22917 0.34966 0.0
C603 C 0.30951 0.21675 0.34158 0.0
H604 H 0.35476 0.35624 0.2516 0.0
H605 H 0.29423 0.19611 0.35309 0.0
H606 H 0.40486 0.26034 0.36059 0.0
H607 H 0.4117 0.38349 0.26494 0.0
H608 H 0.27178 0.22196 0.31312 0.0
H609 H 0.28077 0.32031 0.13695 0.0
H610 H 0.35168 0.21792 0.36747 0.0
H611 H 0.21471 0.15989 0.2372 0.0
H612 H 0.30189 0.29311 0.17684 0.0
H613 H 0.15761 0.13501 0.22379 0.0
H614 H 0.43697 0.31084 0.33604 0.0
H615 H 0.22342 0.30043 0.12219 0.0
H616 H 0.16947 0.25968 0.12872 0.0
H617 H 0.43974 0.35693 0.30052 0.0
H618 H 0.13584 0.20999 0.15308 0.0
N619 N 0.25712 0.2594 0.18587 0.0
C620 C 0.27688 0.28475 0.17121 0.0
C621 C 0.23261 0.2886 0.13997 0.0
C622 C 0.21255 0.26161 0.15437 0.0
C623 C 0.26496 0.29995 0.14827 0.0
C624 C 0.22568 0.24711 0.17748 0.0
H625 H 0.13117 0.16338 0.18842 0.0
N626 N 0.22051 0.20392 0.21191 0.0
C627 C 0.17103 0.15882 0.21471 0.0
C628 C 0.20676 0.21894 0.19118 0.0
C629 C 0.20343 0.17333 0.22253 0.0
C630 C 0.15622 0.1749 0.19475 0.0
C631 C 0.1742 0.20487 0.18214 0.0
O632 O 0.26645 0.18957 0.21179 0.0
O633 O 0.30452 0.24147 0.26318 0.0
O634 O 0.32375 0.31045 0.23317 0.0
O635 O 0.32445 0.27001 0.22093 0.0
O636 O 0.30025 0.20232 0.25395 0.0
O637 O 0.30275 0.23378 0.19759 0.0
O638 O 0.30384 0.32486 0.27781 0.0
O639 O 0.26727 0.27374 0.22622 0.0
O640 O 0.24889 0.20381 0.25652 0.0
O641 O 0.24787 0.24364 0.26947 0.0
O642 O 0.27175 0.31293 0.23558 0.0
O643 O 0.26764 0.28011 0.2913 0.0
C644 C 0.31432 0.21867 0.27142 0.0
C645 C 0.2775 0.1959 0.17147 0.0
C646 C 0.28745 0.17949 0.13866 0.0
C647 C 0.29716 0.18904 0.16215 0.0
C648 C 0.25763 0.17701 0.12486 0.0
C649 C 0.24821 0.19358 0.15708 0.0
C650 C 0.2384 0.18421 0.13394 0.0
C651 C 0.3359 0.29977 0.22189 0.0
C652 C 0.28721 0.20414 0.19666 0.0
C653 C 0.16083 0.22031 0.16008 0.0
C654 C 0.17998 0.24854 0.14615 0.0
C655 C 0.25752 0.2966 0.21812 0.0
C656 C 0.29078 0.3177 0.31755 0.0
C657 C 0.27042 0.32483 0.32569 0.0
C658 C 0.27892 0.3343 0.34902 0.0
C659 C 0.30772 0.33583 0.36426 0.0
C660 C 0.31942 0.31952 0.3331 0.0
C661 C 0.32774 0.32844 0.35635 0.0
C662 C 0.23696 0.21393 0.26845 0.0
C663 C 0.28247 0.30972 0.2924 0.0
H664 H 0.31993 0.19121 0.17322 0.0
H665 H 0.24875 0.16895 0.10716 0.0
H666 H 0.23269 0.19852 0.1639 0.0
H667 H 0.21557 0.18212 0.12309 0.0
H668 H 0.24835 0.32368 0.31366 0.0
H669 H 0.31453 0.34227 0.38251 0.0
H670 H 0.33545 0.31432 0.32719 0.0
H671 H 0.34984 0.32972 0.36828 0.0
Eu672 Eu 0.54656 0.49961 0.98156 0.0
C673 C 0.51631 0.54676 0.05815 0.0
C674 C 0.47226 0.50514 0.07756 0.0
C675 C 0.51277 0.54426 0.10115 0.0
C676 C 0.48896 0.51964 0.05703 0.0
C677 C 0.52823 0.55974 0.08004 0.0
C678 C 0.48473 0.51709 0.09986 0.0
C679 C 0.56735 0.60438 0.05741 0.0
N680 N 0.52992 0.56177 0.03709 0.0
C681 C 0.55417 0.59094 0.03597 0.0
C682 C 0.55457 0.58852 0.07966 0.0
Eu683 Eu 0.50724 0.53677 0.00196 0.0
N684 N 0.47761 0.5086 0.03525 0.0
C685 C 0.44873 0.48437 0.03213 0.0
C686 C 0.44304 0.47969 0.07475 0.0
C687 C 0.43105 0.46956 0.05179 0.0
H688 H 0.56408 0.60323 0.01877 0.0
H689 H 0.40827 0.45022 0.04926 0.0
H690 H 0.47247 0.50599 0.11596 0.0
H691 H 0.58727 0.62697 0.05674 0.0
H692 H 0.43931 0.47627 0.0145 0.0
H693 H 0.64637 0.58346 0.93417 0.0
H694 H 0.42936 0.46806 0.08999 0.0
H695 H 0.48931 0.43211 0.96631 0.0
H696 H 0.61397 0.5605 0.96773 0.0
H697 H 0.46821 0.40513 0.93046 0.0
H698 H 0.5217 0.5537 0.11822 0.0
H699 H 0.62727 0.56183 0.89525 0.0
H700 H 0.58577 0.52102 0.87105 0.0
H701 H 0.56457 0.59916 0.09615 0.0
H702 H 0.53707 0.47264 0.86995 0.0
N703 N 0.5771 0.52535 0.94863 0.0
C704 C 0.60541 0.55052 0.95104 0.0
C705 C 0.61307 0.55134 0.91012 0.0
C706 C 0.58435 0.52517 0.90797 0.0
C707 C 0.62389 0.56368 0.93199 0.0
C708 C 0.56702 0.51213 0.92807 0.0
H709 H 0.49321 0.42912 0.89209 0.0
N710 N 0.52553 0.47154 0.94827 0.0
C711 C 0.48842 0.4275 0.92941 0.0
C712 C 0.54014 0.48458 0.92772 0.0
C713 C 0.50056 0.44284 0.94975 0.0
C714 C 0.50254 0.44116 0.90776 0.0
C715 C 0.52908 0.46978 0.90688 0.0
O716 O 0.55631 0.45864 0.00191 0.0
O717 O 0.5213 0.49757 0.0098 0.0
O718 O 0.55139 0.53738 0.02898 0.0
O719 O 0.58066 0.54074 0.00101 0.0
O720 O 0.51349 0.45478 0.00437 0.0
O721 O 0.59458 0.50494 0.9972 0.0
O722 O 0.49843 0.57889 0.98727 0.0
O723 O 0.53185 0.53845 0.97361 0.0
O724 O 0.50297 0.49908 0.95362 0.0
O725 O 0.47286 0.49767 0.98022 0.0
O726 O 0.53832 0.5815 0.97728 0.0
O727 O 0.45959 0.53301 0.98599 0.0
C728 C 0.507 0.46842 0.01693 0.0
C729 C 0.59848 0.47029 0.03562 0.0
C730 C 0.63496 0.4557 0.07047 0.0
C731 C 0.62196 0.45916 0.04464 0.0
C732 C 0.62442 0.46373 0.08712 0.0
C733 C 0.58769 0.47757 0.05251 0.0
C734 C 0.60072 0.47444 0.07813 0.0
C735 C 0.57849 0.54597 0.02206 0.0
C736 C 0.58613 0.47554 0.00851 0.0
C737 C 0.54529 0.48356 0.8862 0.0
C738 C 0.57299 0.51112 0.8868 0.0
C739 C 0.54459 0.5674 0.96498 0.0
C740 C 0.44943 0.57182 0.99346 0.0
C741 C 0.42284 0.57553 0.97816 0.0
C742 C 0.40546 0.58533 0.98716 0.0
C743 C 0.4144 0.5905 0.01198 0.0
C744 C 0.45825 0.57724 0.0182 0.0
C745 C 0.44057 0.58616 0.0275 0.0
C746 C 0.47563 0.49165 0.95969 0.0
C747 C 0.46798 0.56305 0.98305 0.0
H748 H 0.63012 0.45326 0.03162 0.0
H749 H 0.63381 0.46077 0.10718 0.0
H750 H 0.56935 0.48581 0.04582 0.0
H751 H 0.59227 0.48007 0.09107 0.0
H752 H 0.41651 0.57216 0.95881 0.0
H753 H 0.40145 0.59836 0.01915 0.0
H754 H 0.47902 0.57518 0.03017 0.0
H755 H 0.4476 0.5904 0.04657 0.0
Eu756 Eu 0.7364 0.2019 0.28742 0.0
C757 C 0.82841 0.30495 0.2131 0.0
C758 C 0.79505 0.30762 0.17224 0.0
C759 C 0.84129 0.35414 0.1821 0.0
C760 C 0.80187 0.29066 0.19664 0.0
C761 C 0.84908 0.33654 0.20567 0.0
C762 C 0.81429 0.33968 0.16538 0.0
C763 C 0.88587 0.32945 0.24344 0.0
N764 N 0.8357 0.28701 0.23533 0.0
C765 C 0.86476 0.29814 0.24973 0.0
C766 C 0.87773 0.34895 0.22156 0.0
Eu767 Eu 0.79867 0.23444 0.2456 0.0
N768 N 0.78393 0.25961 0.20385 0.0
C769 C 0.76018 0.24361 0.18677 0.0
C770 C 0.76975 0.29163 0.15516 0.0
C771 C 0.75258 0.25938 0.16233 0.0
H772 H 0.8711 0.28294 0.26658 0.0
H773 H 0.73334 0.24664 0.14909 0.0
H774 H 0.8091 0.3532 0.14688 0.0
H775 H 0.90844 0.33847 0.2554 0.0
H776 H 0.74654 0.21872 0.19186 0.0
H777 H 0.79784 0.187 0.38507 0.0
H778 H 0.76379 0.30378 0.13622 0.0
H779 H 0.6639 0.15431 0.26489 0.0
H780 H 0.78599 0.21615 0.34237 0.0
H781 H 0.6269 0.0983 0.2742 0.0
H782 H 0.85663 0.37856 0.17619 0.0
H783 H 0.7676 0.12958 0.39641 0.0
H784 H 0.72331 0.08045 0.38395 0.0
H785 H 0.89425 0.37311 0.21654 0.0
H786 H 0.67734 0.05591 0.35317 0.0
N787 N 0.7495 0.17571 0.32916 0.0
C788 C 0.7724 0.19117 0.34691 0.0
C789 C 0.76216 0.14229 0.37758 0.0
C790 C 0.73763 0.12684 0.35977 0.0
C791 C 0.77922 0.1747 0.37127 0.0
C792 C 0.73146 0.14454 0.33556 0.0
H793 H 0.64059 0.06251 0.31236 0.0
N794 N 0.69861 0.14941 0.29651 0.0
C795 C 0.64905 0.10705 0.2867 0.0
C796 C 0.70541 0.13083 0.31849 0.0
C797 C 0.66997 0.13863 0.28146 0.0
C798 C 0.65689 0.08692 0.30823 0.0
C799 C 0.68491 0.09895 0.32489 0.0
O800 O 0.69442 0.20923 0.2844 0.0
O801 O 0.75623 0.23454 0.25322 0.0
O802 O 0.8092 0.27214 0.26619 0.0
O803 O 0.77965 0.24408 0.29935 0.0
O804 O 0.70792 0.21506 0.2497 0.0
O805 O 0.73507 0.22772 0.3123 0.0
O806 O 0.84091 0.22804 0.24747 0.0
O807 O 0.77908 0.20207 0.27995 0.0
O808 O 0.7267 0.16379 0.26784 0.0
O809 O 0.7555 0.19202 0.2343 0.0
O810 O 0.82745 0.22162 0.28316 0.0
O811 O 0.79921 0.20743 0.22125 0.0
C812 C 0.73156 0.23435 0.23835 0.0
C813 C 0.68556 0.21212 0.32274 0.0
C814 C 0.65704 0.22228 0.3463 0.0
C815 C 0.6758 0.23257 0.32747 0.0
C816 C 0.64817 0.19115 0.36013 0.0
C817 C 0.67643 0.18129 0.33687 0.0
C818 C 0.65783 0.17091 0.35542 0.0
C819 C 0.80122 0.26952 0.28776 0.0
C820 C 0.70588 0.22325 0.30356 0.0
C821 C 0.69234 0.0806 0.34814 0.0
C822 C 0.71855 0.09458 0.36565 0.0
C823 C 0.8039 0.2026 0.2947 0.0
C824 C 0.84778 0.22473 0.20842 0.0
C825 C 0.85526 0.20433 0.20094 0.0
C826 C 0.87186 0.2154 0.18049 0.0
C827 C 0.88112 0.24707 0.16804 0.0
C828 C 0.85749 0.25617 0.19563 0.0
C829 C 0.87406 0.26724 0.17564 0.0
C830 C 0.73422 0.1666 0.24609 0.0
C831 C 0.82886 0.21319 0.22877 0.0
H832 H 0.68321 0.25653 0.31678 0.0
H833 H 0.63336 0.18224 0.3744 0.0
H834 H 0.68372 0.16526 0.33362 0.0
H835 H 0.65085 0.14704 0.36619 0.0
H836 H 0.84769 0.17993 0.2106 0.0
H837 H 0.89422 0.25638 0.15254 0.0
H838 H 0.85219 0.27221 0.20099 0.0
H839 H 0.88142 0.29159 0.16594 0.0
Eu840 Eu 0.04472 0.46677 0.50837 0.0
C841 C 0.9941 0.56269 0.43218 0.0
C842 C 0.04071 0.60892 0.42104 0.0
C843 C 0.99225 0.59677 0.3906 0.0
C844 C 1.02549 0.5816 0.43842 0.0
C845 C 0.97691 0.57036 0.4084 0.0
C846 C 1.02412 0.61601 0.39691 0.0
C847 C 0.93023 0.52664 0.4223 0.0
N848 N 0.97999 0.53751 0.44985 0.0
C849 C 0.94827 0.52008 0.44564 0.0
C850 C 0.94467 0.55168 0.40347 0.0
Eu851 Eu 1.01218 0.52666 0.48843 0.0
N852 N 0.04071 0.57419 0.46197 0.0
C853 C 0.07048 0.59443 0.47002 0.0
C854 C 0.07189 0.62873 0.4287 0.0
C855 C 0.08666 0.62169 0.45344 0.0
H856 H 0.93707 0.50052 0.46008 0.0
H857 H 0.11056 0.63717 0.45974 0.0
H858 H 0.0355 0.63672 0.38322 0.0
H859 H 0.90524 0.51234 0.41883 0.0
H860 H 0.08229 0.58933 0.48899 0.0
H861 H 0.946 0.35587 0.53568 0.0
H862 H 0.08446 0.64988 0.41591 0.0
H863 H 0.11938 0.49319 0.5379 0.0
H864 H 0.97475 0.40392 0.50682 0.0
H865 H 0.15027 0.48161 0.57976 0.0
H866 H 0.97952 0.60291 0.37213 0.0
H867 H 0.97117 0.34319 0.57987 0.0
H868 H 1.01934 0.35655 0.6133 0.0
H869 H 0.93064 0.55677 0.38542 0.0
H870 H 0.075 0.39063 0.62527 0.0
N871 N 1.0158 0.419 0.53435 0.0
C872 C 0.98622 0.39875 0.52593 0.0
C873 C 0.98399 0.36437 0.56723 0.0
C874 C 1.01495 0.38429 0.57533 0.0
C875 C 0.96975 0.3714 0.54229 0.0
C876 C 0.03051 0.41164 0.55814 0.0
H877 H 0.12412 0.43705 0.61278 0.0
N878 N 0.07622 0.45596 0.54741 0.0
C879 C 0.12536 0.46716 0.57586 0.0
C880 C 0.06174 0.4307 0.56487 0.0
C881 C 0.10786 0.47357 0.55217 0.0
C882 C 0.1105 0.44204 0.59446 0.0
C883 C 0.0784 0.42315 0.58898 0.0
O884 O 0.08128 0.46326 0.49557 0.0
O885 O 0.04467 0.51076 0.48098 0.0
O886 O 0.9957 0.50052 0.45677 0.0
O887 O 0.99957 0.45368 0.47946 0.0
O888 O 0.08784 0.50911 0.49539 0.0
O889 O 0.03288 0.43063 0.48763 0.0
O890 O 0.97645 0.53155 0.50129 0.0
O891 O 1.01217 0.48261 0.51553 0.0
O892 O 0.06033 0.49266 0.54005 0.0
O893 O 0.05783 0.53984 0.5167 0.0
O894 O 0.96911 0.48433 0.5019 0.0
O895 O 1.02534 0.56242 0.50996 0.0
C896 C 0.07364 0.52565 0.47976 0.0
C897 C 0.07209 0.41293 0.49189 0.0
C898 C 0.09677 0.38632 0.4802 0.0
C899 C 0.08822 0.41155 0.47527 0.0
C900 C 0.08938 0.36291 0.50218 0.0
C901 C 0.0653 0.38942 0.51378 0.0
C902 C 0.07396 0.3646 0.51886 0.0
C903 C 0.9885 0.47046 0.45925 0.0
C904 C 0.06196 0.43859 0.48603 0.0
C905 C 0.06269 0.39668 0.60656 0.0
C906 C 0.031 0.37728 0.59975 0.0
C907 C 0.98335 0.46759 0.5171 0.0
C908 C 0.98793 0.58243 0.50559 0.0
C909 C 0.97231 0.58479 0.52211 0.0
C910 C 0.96564 0.61122 0.51741 0.0
C911 C 0.97436 0.63481 0.49577 0.0
C912 C 0.99604 0.6062 0.48404 0.0
C913 C 0.98924 0.63218 0.47919 0.0
C914 C 0.06831 0.52293 0.53716 0.0
C915 C 0.99649 0.55567 0.51128 0.0
H916 H 0.09348 0.42965 0.4583 0.0
H917 H 0.09585 0.3434 0.5066 0.0
H918 H 0.05312 0.39013 0.52684 0.0
H919 H 0.06857 0.3465 0.53577 0.0
H920 H 0.96603 0.56652 0.53883 0.0
H921 H 0.96934 0.65523 0.49152 0.0
H922 H 1.00789 0.60483 0.47108 0.0
H923 H 0.99567 0.65046 0.46254 0.0
Eu924 Eu 0.79149 0.7245 0.25736 0.0
C925 C 0.74891 0.82259 0.17363 0.0
C926 C 0.79687 0.86874 0.1656 0.0
C927 C 0.75204 0.85631 0.1317 0.0
C928 C 0.77955 0.84162 0.18208 0.0
C929 C 0.73454 0.83004 0.1485 0.0
C930 C 0.78318 0.87561 0.14023 0.0
C931 C 0.68602 0.78646 0.15904 0.0
N932 N 0.73267 0.79757 0.19039 0.0
C933 C 0.70129 0.78017 0.1838 0.0
C934 C 0.70281 0.8113 0.14121 0.0
Eu935 Eu 0.76042 0.78714 0.23155 0.0
N936 N 0.79205 0.83424 0.20668 0.0
C937 C 0.82102 0.85417 0.21649 0.0
C938 C 0.82722 0.8884 0.17524 0.0
C939 C 0.83917 0.88129 0.20089 0.0
H940 H 0.68831 0.76083 0.19752 0.0
H941 H 0.86242 0.8966 0.20864 0.0
H942 H 0.79624 0.89614 0.12721 0.0
H943 H 0.66134 0.77217 0.15372 0.0
H944 H 0.83065 0.84888 0.23622 0.0
H945 H 0.69016 0.61533 0.28255 0.0
H946 H 0.84136 0.90937 0.16319 0.0
H947 H 0.86479 0.74996 0.28923 0.0
H948 H 0.72108 0.66265 0.2542 0.0
H949 H 0.89364 0.73812 0.33208 0.0
H950 H 0.74152 0.86226 0.11223 0.0
H951 H 0.71282 0.60279 0.32761 0.0
H952 H 0.75946 0.61578 0.36246 0.0
H953 H 0.69091 0.81621 0.12206 0.0
H954 H 0.81497 0.64907 0.37593 0.0
N955 N 0.76069 0.67753 0.28296 0.0
C956 C 0.73138 0.65754 0.27375 0.0
C957 C 0.72655 0.62366 0.31522 0.0
C958 C 0.75731 0.64321 0.32415 0.0
C959 C 0.71371 0.63062 0.2898 0.0
C960 C 0.77406 0.67019 0.30727 0.0
H961 H 0.86536 0.69442 0.3646 0.0
N962 N 0.82073 0.7137 0.29766 0.0
C963 C 0.86871 0.72415 0.32753 0.0
C964 C 0.80512 0.68888 0.31486 0.0
C965 C 0.85236 0.73074 0.30329 0.0
C966 C 0.85265 0.69952 0.34585 0.0
C967 C 0.82054 0.68123 0.33953 0.0
O968 O 0.82793 0.71903 0.24607 0.0
O969 O 0.79403 0.7689 0.23058 0.0
O970 O 0.74777 0.75949 0.20136 0.0
O971 O 0.74805 0.7122 0.22686 0.0
O972 O 0.83621 0.76529 0.24518 0.0
O973 O 0.77933 0.68791 0.23691 0.0
O974 O 0.72299 0.79268 0.24117 0.0
O975 O 0.75804 0.74297 0.2589 0.0
O976 O 0.80547 0.75217 0.28772 0.0
O977 O 0.80278 0.79917 0.26324 0.0
O978 O 0.7157 0.7464 0.24311 0.0
O979 O 0.77131 0.8241 0.25116 0.0
C980 C 0.82292 0.7828 0.22978 0.0
C981 C 0.8171 0.66786 0.24301 0.0
C982 C 0.8344 0.63452 0.2315 0.0
C983 C 0.82706 0.66083 0.22514 0.0
C984 C 0.83204 0.61589 0.2561 0.0
C985 C 0.81505 0.64882 0.26732 0.0
C986 C 0.82255 0.62306 0.27379 0.0
C987 C 0.74112 0.72933 0.20476 0.0
C988 C 0.80836 0.69465 0.23621 0.0
C989 C 0.80364 0.65517 0.3568 0.0
C990 C 0.77205 0.63621 0.34913 0.0
C991 C 0.72894 0.72915 0.25908 0.0
C992 C 0.73312 0.8442 0.24257 0.0
C993 C 0.72578 0.85433 0.26005 0.0
C994 C 0.71818 0.88058 0.25217 0.0
C995 C 0.71757 0.89597 0.22652 0.0
C996 C 0.73236 0.86012 0.2172 0.0
C997 C 0.72454 0.88576 0.20925 0.0
C998 C 0.8117 0.7822 0.28468 0.0
C999 C 0.742 0.81741 0.25079 0.0
H1000 H 0.82851 0.67541 0.20627 0.0
H1001 H 0.83792 0.59586 0.2618 0.0
H1002 H 0.80755 0.65382 0.28128 0.0
H1003 H 0.82095 0.60853 0.29264 0.0
H1004 H 0.72656 0.84222 0.27973 0.0
H1005 H 0.71135 0.91582 0.21969 0.0
H1006 H 0.73785 0.85274 0.20354 0.0
H1007 H 0.72392 0.89783 0.1896 0.0
Eu1008 Eu 0.79753 0.23384 0.74757 0.0
C1009 C 0.70212 0.25596 0.78242 0.0
C1010 C 0.65273 0.21837 0.76457 0.0
C1011 C 0.65565 0.23466 0.80214 0.0
C1012 C 0.68485 0.23864 0.76382 0.0
C1013 C 0.68758 0.25423 0.80172 0.0
C1014 C 0.63825 0.21681 0.78357 0.0
C1015 C 0.73678 0.29237 0.8185 0.0
N1016 N 0.73315 0.27422 0.78194 0.0
C1017 C 0.75007 0.29344 0.79903 0.0
C1018 C 0.70546 0.27243 0.82002 0.0
Eu1019 Eu 0.75376 0.27814 0.74654 0.0
N1020 N 0.69983 0.23974 0.74619 0.0
C1021 C 0.68423 0.21836 0.73067 0.0
C1022 C 0.63632 0.19908 0.74691 0.0
C1023 C 0.65233 0.19868 0.7302 0.0
H1024 H 0.77422 0.30973 0.79806 0.0
H1025 H 0.64038 0.18239 0.71749 0.0
H1026 H 0.61372 0.20137 0.78437 0.0
H1027 H 0.75073 0.30715 0.83221 0.0
H1028 H 0.69601 0.21455 0.7194 0.0
H1029 H 0.91202 0.32816 0.77698 0.0
H1030 H 0.61176 0.18326 0.74691 0.0
H1031 H 0.77729 0.20232 0.69613 0.0
H1032 H 0.8558 0.29822 0.7733 0.0
H1033 H 0.80127 0.2027 0.66324 0.0
H1034 H 0.64423 0.23304 0.81683 0.0
H1035 H 0.94137 0.324 0.74995 0.0
H1036 H 0.93989 0.30382 0.71379 0.0
H1037 H 0.69516 0.27169 0.83511 0.0
H1038 H 0.90932 0.27198 0.68142 0.0
N1039 N 0.8523 0.27048 0.74876 0.0
C1040 C 0.86789 0.29271 0.76352 0.0
C1041 C 0.91653 0.30902 0.7494 0.0
C1042 C 0.90018 0.28925 0.73211 0.0
C1043 C 0.90013 0.31124 0.7648 0.0
C1044 C 0.8677 0.27014 0.73214 0.0
H1045 H 0.85777 0.23514 0.66206 0.0
N1046 N 0.81916 0.23606 0.71333 0.0
C1047 C 0.81543 0.21715 0.67715 0.0
C1048 C 0.8505 0.25281 0.71363 0.0
C1049 C 0.80189 0.21733 0.69592 0.0
C1050 C 0.84728 0.23536 0.6766 0.0
C1051 C 0.86532 0.25324 0.69508 0.0
O1052 O 0.76961 0.18754 0.73922 0.0
O1053 O 0.75324 0.23088 0.75535 0.0
O1054 O 0.78817 0.27586 0.78395 0.0
O1055 O 0.81746 0.24812 0.78577 0.0
O1056 O 0.77583 0.20545 0.78299 0.0
O1057 O 0.81464 0.19691 0.76442 0.0
O1058 O 0.77755 0.32532 0.75352 0.0
O1059 O 0.79796 0.28079 0.73922 0.0
O1060 O 0.76477 0.23823 0.70947 0.0
O1061 O 0.73457 0.26469 0.70827 0.0
O1062 O 0.77799 0.30849 0.71224 0.0
O1063 O 0.73174 0.31117 0.72934 0.0
C1064 C 0.75134 0.21145 0.7765 0.0
C1065 C 0.77321 0.14576 0.77247 0.0
C1066 C 0.77722 0.10078 0.80453 0.0
C1067 C 0.79118 0.12973 0.78827 0.0
C1068 C 0.74483 0.0881 0.80483 0.0
C1069 C 0.74083 0.13276 0.77315 0.0
C1070 C 0.72683 0.10413 0.78928 0.0
C1071 C 0.80965 0.26448 0.79562 0.0
C1072 C 0.78842 0.17559 0.75507 0.0
C1073 C 0.89764 0.27139 0.6955 0.0
C1074 C 0.91506 0.28933 0.71402 0.0
C1075 C 0.80171 0.30131 0.71881 0.0
C1076 C 0.7681 0.36476 0.72052 0.0
C1077 C 0.74756 0.37902 0.70735 0.0
C1078 C 0.75836 0.4087 0.69118 0.0
C1079 C 0.7902 0.42402 0.68843 0.0
C1080 C 0.79982 0.38036 0.71735 0.0
C1081 C 0.81071 0.40982 0.70139 0.0
C1082 C 0.74299 0.24926 0.69802 0.0
C1083 C 0.75629 0.3343 0.73819 0.0
H1084 H 0.81621 0.14017 0.7881 0.0
H1085 H 0.73334 0.06573 0.81694 0.0
H1086 H 0.72623 0.14459 0.76124 0.0
H1087 H 0.70191 0.09427 0.78964 0.0
H1088 H 0.72303 0.36667 0.70949 0.0
H1089 H 0.79932 0.44703 0.67635 0.0
H1090 H 0.81629 0.36996 0.72725 0.0
H1091 H 0.83517 0.42174 0.69913 0.0
Eu1092 Eu 0.76809 0.72483 0.72559 0.0
C1093 C 0.86211 0.78993 0.79756 0.0
C1094 C 0.85476 0.74824 0.83515 0.0
C1095 C 0.90735 0.78694 0.82886 0.0
C1096 C 0.84235 0.76284 0.81169 0.0
C1097 C 0.89481 0.80263 0.80642 0.0
C1098 C 0.88736 0.75993 0.84328 0.0
C1099 C 0.90005 0.84813 0.77276 0.0
N1100 N 0.84923 0.80534 0.77648 0.0
C1101 C 0.86752 0.83507 0.76512 0.0
C1102 C 0.91385 0.83157 0.79321 0.0
Eu1103 Eu 0.7936 0.78011 0.76472 0.0
N1104 N 0.81087 0.75187 0.80342 0.0
C1105 C 0.79052 0.72803 0.81852 0.0
C1106 C 0.834 0.72261 0.84999 0.0
C1107 C 0.80172 0.71276 0.84178 0.0
H1108 H 0.85708 0.84894 0.75005 0.0
H1109 H 0.78542 0.69355 0.85345 0.0
H1110 H 0.89729 0.74865 0.86098 0.0
H1111 H 0.91438 0.87124 0.76315 0.0
H1112 H 0.76562 0.72095 0.81297 0.0
H1113 H 0.7709 0.81058 0.63678 0.0
H1114 H 0.84262 0.71075 0.86805 0.0
H1115 H 0.70772 0.65382 0.74092 0.0
H1116 H 0.79296 0.78457 0.67697 0.0
H1117 H 0.65035 0.6283 0.72849 0.0
H1118 H 0.93241 0.79621 0.83575 0.0
H1119 H 0.71334 0.79072 0.62321 0.0
H1120 H 0.65966 0.75041 0.63119 0.0
H1121 H 0.93902 0.84202 0.79939 0.0
H1122 H 0.62676 0.70136 0.65673 0.0
N1123 N 0.74853 0.7515 0.6871 0.0
C1124 C 0.76788 0.77614 0.6717 0.0
C1125 C 0.72295 0.77938 0.64106 0.0
C1126 C 0.70329 0.75298 0.65621 0.0
C1127 C 0.75543 0.7907 0.64867 0.0
C1128 C 0.71697 0.73911 0.67935 0.0
H1129 H 0.62307 0.65561 0.69285 0.0
N1130 N 0.71275 0.69682 0.7144 0.0
C1131 C 0.66351 0.65182 0.71875 0.0
C1132 C 0.69849 0.71128 0.69365 0.0
C1133 C 0.69602 0.66658 0.72591 0.0
C1134 C 0.64821 0.66732 0.69864 0.0
C1135 C 0.66579 0.69696 0.6853 0.0
O1136 O 0.75755 0.68258 0.71294 0.0
O1137 O 0.79839 0.73533 0.76399 0.0
O1138 O 0.82028 0.80466 0.73181 0.0
O1139 O 0.81712 0.76141 0.72117 0.0
O1140 O 0.78983 0.69373 0.75622 0.0
O1141 O 0.79577 0.72595 0.70027 0.0
O1142 O 0.80782 0.82213 0.77929 0.0
O1143 O 0.76334 0.76985 0.72619 0.0
O1144 O 0.74044 0.70089 0.75796 0.0
O1145 O 0.74411 0.7442 0.76894 0.0
O1146 O 0.7721 0.81143 0.73424 0.0
O1147 O 0.76543 0.78139 0.78821 0.0
C1148 C 0.80629 0.71123 0.77274 0.0
C1149 C 0.77146 0.6888 0.67368 0.0
C1150 C 0.78377 0.67254 0.64218 0.0
C1151 C 0.79187 0.68154 0.6657 0.0
C1152 C 0.7552 0.6715 0.62669 0.0
C1153 C 0.74324 0.68774 0.65777 0.0
C1154 C 0.73526 0.6792 0.6344 0.0
C1155 C 0.83026 0.79165 0.72081 0.0
C1156 C 0.7795 0.69653 0.6989 0.0
C1157 C 0.65186 0.71186 0.66322 0.0
C1158 C 0.67059 0.73973 0.64864 0.0
C1159 C 0.75554 0.79406 0.71761 0.0
C1160 C 0.79195 0.8138 0.81825 0.0
C1161 C 0.77178 0.82024 0.82725 0.0
C1162 C 0.77738 0.82237 0.85278 0.0
C1163 C 0.80353 0.81825 0.86908 0.0
C1164 C 0.81817 0.81028 0.83479 0.0
C1165 C 0.82386 0.81248 0.86006 0.0
C1166 C 0.73025 0.71412 0.76857 0.0
C1167 C 0.7846 0.80951 0.79195 0.0
H1168 H 0.81363 0.6822 0.67801 0.0
H1169 H 0.74842 0.66504 0.60842 0.0
H1170 H 0.72728 0.69323 0.66349 0.0
H1171 H 0.71342 0.6784 0.62222 0.0
H1172 H 0.75142 0.82289 0.81459 0.0
H1173 H 0.80841 0.81984 0.88877 0.0
H1174 H 0.83417 0.80574 0.82825 0.0
H1175 H 0.84406 0.80958 0.87273 0.0
Eu1176 Eu 0.48328 0.46094 0.45846 0.0
C1177 C 0.56051 0.52753 0.54351 0.0
C1178 C 0.53778 0.51297 0.58115 0.0
C1179 C 0.59389 0.52975 0.58492 0.0
C1180 C 0.53448 0.51673 0.5547 0.0
C1181 C 0.59065 0.5348 0.55849 0.0
C1182 C 0.56748 0.51877 0.59624 0.0
C1183 C 0.61244 0.55273 0.52011 0.0
N1184 N 0.55658 0.532 0.51792 0.0
C1185 C 0.58213 0.54502 0.5061 0.0
C1186 C 0.61672 0.54745 0.54644 0.0
Eu1187 Eu 0.5048 0.52173 0.49521 0.0
N1188 N 0.5062 0.51176 0.53959 0.0
C1189 C 0.48111 0.50668 0.54942 0.0
C1190 C 0.51136 0.50474 0.59154 0.0
C1191 C 0.48299 0.50213 0.57552 0.0
H1192 H 0.57959 0.54979 0.48587 0.0
H1193 H 0.46271 0.49708 0.5832 0.0
H1194 H 0.5704 0.5157 0.61659 0.0
H1195 H 0.63248 0.56283 0.51056 0.0
H1196 H 0.45942 0.50573 0.53697 0.0
H1197 H 0.46428 0.53399 0.36588 0.0
H1198 H 0.51293 0.50163 0.61174 0.0
H1199 H 0.43806 0.38616 0.48168 0.0
H1200 H 0.49305 0.5208 0.40789 0.0
H1201 H 0.38505 0.34542 0.47091 0.0
H1202 H 0.61678 0.53479 0.59671 0.0
H1203 H 0.41043 0.4966 0.3521 0.0
H1204 H 0.36556 0.44427 0.36149 0.0
H1205 H 0.64024 0.55354 0.55724 0.0
H1206 H 0.34331 0.39393 0.39077 0.0
N1207 N 0.45581 0.47672 0.41866 0.0
C1208 C 0.46954 0.50438 0.40251 0.0
C1209 C 0.42293 0.49076 0.37077 0.0
C1210 C 0.4092 0.46218 0.38715 0.0
C1211 C 0.45329 0.51192 0.37848 0.0
C1212 C 0.42643 0.45574 0.41129 0.0
H1213 H 0.35022 0.35683 0.43149 0.0
N1214 N 0.43212 0.42116 0.44994 0.0
C1215 C 0.39274 0.36845 0.45869 0.0
C1216 C 0.414 0.42729 0.42763 0.0
C1217 C 0.4226 0.39164 0.46481 0.0
C1218 C 0.37315 0.37499 0.43645 0.0
C1219 C 0.384 0.40441 0.42029 0.0
O1220 O 0.49267 0.4209 0.45977 0.0
O1221 O 0.51746 0.48657 0.48873 0.0
O1222 O 0.52803 0.54508 0.46024 0.0
O1223 O 0.52622 0.50375 0.44679 0.0
O1224 O 0.50244 0.4377 0.49627 0.0
O1225 O 0.50846 0.46256 0.43101 0.0
O1226 O 0.53092 0.57275 0.48885 0.0
O1227 O 0.47574 0.50157 0.46073 0.0
O1228 O 0.45069 0.44031 0.48762 0.0
O1229 O 0.47416 0.47462 0.51621 0.0
O1230 O 0.45353 0.51144 0.48203 0.0
O1231 O 0.48399 0.55184 0.49728 0.0
C1232 C 0.51988 0.46306 0.50488 0.0
C1233 C 0.49562 0.41456 0.42051 0.0
C1234 C 0.50628 0.38602 0.39777 0.0
C1235 C 0.51574 0.40341 0.4168 0.0
C1236 C 0.47624 0.37951 0.38298 0.0
C1237 C 0.46596 0.40789 0.40531 0.0
C1238 C 0.45628 0.39034 0.3868 0.0
C1239 C 0.5372 0.53384 0.44682 0.0
C1240 C 0.50593 0.4339 0.43963 0.0
C1241 C 0.3664 0.41109 0.39662 0.0
C1242 C 0.37909 0.43978 0.37998 0.0
C1243 C 0.45002 0.50071 0.46264 0.0
C1244 C 0.52127 0.59365 0.51727 0.0
C1245 C 0.50021 0.5992 0.52604 0.0
C1246 C 0.50998 0.61246 0.54767 0.0
C1247 C 0.54127 0.62056 0.56009 0.0
C1248 C 0.55239 0.60206 0.53016 0.0
C1249 C 0.56222 0.61544 0.55134 0.0
C1250 C 0.45312 0.44827 0.50889 0.0
C1251 C 0.51016 0.57693 0.49606 0.0
H1252 H 0.53886 0.40882 0.42827 0.0
H1253 H 0.46803 0.36579 0.36854 0.0
H1254 H 0.45034 0.41641 0.40759 0.0
H1255 H 0.43326 0.38524 0.37526 0.0
H1256 H 0.47606 0.59237 0.51649 0.0
H1257 H 0.5497 0.63121 0.57649 0.0
H1258 H 0.56915 0.59792 0.52416 0.0
H1259 H 0.5862 0.62172 0.56114 0.0
Eu1260 Eu 1.00565 0.49307 0.01873 0.0
C1261 C 0.06763 0.58293 0.93739 0.0
C1262 C 1.02328 0.57437 0.90301 0.0
C1263 C 0.06417 0.62692 0.90383 0.0
C1264 C 0.03904 0.56286 0.92617 0.0
C1265 C 0.08087 0.61507 0.92587 0.0
C1266 C 0.03551 0.60659 0.89235 0.0
C1267 C 0.12848 0.62054 0.95599 0.0
N1268 N 0.08384 0.5706 0.95811 0.0
C1269 C 0.1147 0.58847 0.9663 0.0
C1270 C 0.11125 0.63406 0.93601 0.0
Eu1271 Eu 0.05774 0.51593 0.97487 0.0
N1272 N 1.0277 0.53178 0.93686 0.0
C1273 C 1.00204 0.51077 0.92445 0.0
C1274 C 0.99598 0.55307 0.89098 0.0
C1275 C 0.98559 0.52108 0.90158 0.0
H1276 H 0.12878 0.57793 0.9809 0.0
H1277 H 0.96498 0.5043 0.89208 0.0
H1278 H 1.0234 0.61588 0.87486 0.0
H1279 H 0.15257 0.63467 0.96317 0.0
H1280 H 0.99422 0.48599 0.93189 0.0
H1281 H 0.0975 0.50264 0.10207 0.0
H1282 H 0.98319 0.56099 0.87324 0.0
H1283 H 0.93445 0.43126 0.01162 0.0
H1284 H 0.06867 0.52183 0.06241 0.0
H1285 H 0.91047 0.37433 0.02848 0.0
H1286 H 0.07383 0.65158 0.89494 0.0
H1287 H 0.0791 0.44571 0.11997 0.0
H1288 H 0.03892 0.39105 0.11736 0.0
H1289 H 0.12218 0.65883 0.92773 0.0
H1290 H 0.98863 0.35594 0.09661 0.0
N1291 N 0.03519 0.47634 0.05667 0.0
C1292 C 0.06075 0.49697 0.06948 0.0
C1293 C 0.06648 0.45403 0.10232 0.0
C1294 C 0.03929 0.43309 0.08987 0.0
C1295 C 0.07697 0.48616 0.09225 0.0
C1296 C 1.02373 0.44511 0.06685 0.0
H1297 H 0.94054 0.34948 0.06361 0.0
N1298 N 0.97919 0.43818 0.03472 0.0
C1299 C 0.9345 0.38828 0.03595 0.0
C1300 C 0.99521 0.42539 0.05527 0.0
C1301 C 0.94838 0.4205 0.02619 0.0
C1302 C 0.95155 0.37436 0.05576 0.0
C1303 C 0.98185 0.39308 0.06626 0.0
O1304 O 0.96433 0.48286 0.03401 0.0
O1305 O 1.01429 0.52158 0.97855 0.0
O1306 O 0.08412 0.54712 0.00363 0.0
O1307 O 0.04296 0.54209 0.01995 0.0
O1308 O 0.97363 0.51392 0.98844 0.0
O1309 O 1.00757 0.52238 0.04229 0.0
O1310 O 0.09891 0.52586 0.95957 0.0
O1311 O 0.04932 0.48764 0.01514 0.0
O1312 O 0.97953 0.46252 0.98959 0.0
O1313 O 1.02103 0.46644 0.97452 0.0
O1314 O 0.09002 0.49548 0.00513 0.0
O1315 O 0.0555 0.48629 0.95152 0.0
C1316 C 0.99019 0.52946 0.97044 0.0
C1317 C 0.97311 0.49908 0.07233 0.0
C1318 C 0.958 0.5115 0.10465 0.0
C1319 C 0.96229 0.51726 0.07939 0.0
C1320 C 0.96439 0.48709 0.12247 0.0
C1321 C 0.9791 0.47488 0.09056 0.0
C1322 C 0.97475 0.46896 0.11544 0.0
C1323 C 0.07236 0.55669 0.01627 0.0
C1324 C 0.97865 0.50586 0.04613 0.0
C1325 C 0.99838 0.38074 0.08813 0.0
C1326 C 1.02695 0.40073 0.09999 0.0
C1327 C 0.07347 0.47982 0.02312 0.0
C1328 C 0.08986 0.509 0.92152 0.0
C1329 C 0.10046 0.49041 0.91486 0.0
C1330 C 0.10453 0.49547 0.88969 0.0
C1331 C 0.09811 0.51962 0.87147 0.0
C1332 C 0.08387 0.53299 0.90297 0.0
C1333 C 0.08799 0.53823 0.87812 0.0
C1334 C 0.99154 0.45214 0.9779 0.0
C1335 C 0.08443 0.50267 0.94763 0.0
H1336 H 0.95775 0.53609 0.06539 0.0
H1337 H 0.96096 0.48168 0.14189 0.0
H1338 H 0.98711 0.46054 0.08558 0.0
H1339 H 0.97941 0.45017 0.12936 0.0
H1340 H 0.10498 0.47173 0.92913 0.0
H1341 H 0.10134 0.52443 0.85207 0.0
H1342 H 0.076 0.54765 0.90766 0.0
H1343 H 0.08331 0.55682 0.86392 0.0
C1344 C 0.26119 0.19845 0.82406 0.0
C1345 C 0.24222 0.19568 0.80019 0.0
C1346 C 0.24964 0.1779 0.84586 0.0
C1347 C 0.17851 0.13982 0.87002 0.0
H1348 H 0.21358 0.0867 0.92252 0.0
C1349 C 0.13331 0.08316 0.96351 0.0
C1350 C 0.1193 0.05037 0.9672 0.0
C1351 C 0.15426 0.1009 0.94641 0.0
C1352 C 0.20383 0.10165 0.908 0.0
H1353 H 0.19639 0.17014 0.78012 0.0
H1354 H 0.17575 0.13452 0.81848 0.0
H1355 H 0.23793 0.11618 0.8842 0.0
H1356 H 0.11746 0.0101 0.95744 0.0
H1357 H 0.15443 0.04129 0.92749 0.0
H1358 H 0.14474 0.12588 0.8936 0.0
C1359 C 0.19983 0.15195 0.82016 0.0
C1360 C 0.2176 0.11832 0.88624 0.0
C1361 C 0.21155 0.17221 0.79835 0.0
C1362 C 0.12805 0.03544 0.95483 0.0
C1363 C 0.1493 0.05318 0.93791 0.0
C1364 C 0.16522 0.12376 0.89186 0.0
C1365 C 0.21866 0.15503 0.84404 0.0
C1366 C 0.2047 0.13717 0.86704 0.0
C1367 C 0.16158 0.08603 0.9329 0.0
C1368 C 0.17764 0.10447 0.91094 0.0
H1369 H 0.2845 0.21709 0.82602 0.0
H1370 H 0.2643 0.18094 0.86418 0.0
H1371 H 0.16847 0.15454 0.8555 0.0
H1372 H 0.12636 0.0952 0.97226 0.0
H1373 H 0.16342 0.12626 0.94268 0.0
C1374 C 0.07625 0.92945 0.06892 0.0
C1375 C 0.08237 0.95569 0.04895 0.0
C1376 C 0.10082 0.92605 0.08771 0.0
C1377 C 0.18438 0.94656 0.10001 0.0
H1378 H 0.17706 0.93064 0.17043 0.0
C1379 C 0.28311 0.93262 0.181 0.0
C1380 C 0.27344 0.90855 0.20215 0.0
C1381 C 0.26128 0.94185 0.16262 0.0
C1382 C 0.17936 0.93476 0.15088 0.0
H1383 H 0.1187 0.99749 0.03143 0.0
H1384 H 0.16183 0.99143 0.06427 0.0
H1385 H 0.13531 0.93843 0.13712 0.0
H1386 H 0.23344 0.87627 0.2211 0.0
H1387 H 0.19536 0.89108 0.18859 0.0
H1388 H 0.22761 0.94144 0.11358 0.0
C1389 C 0.13805 0.97397 0.06573 0.0
C1390 C 0.15552 0.93933 0.13187 0.0
C1391 C 0.11344 0.97759 0.04715 0.0
C1392 C 0.24163 0.89443 0.20479 0.0
C1393 C 0.21982 0.90335 0.18632 0.0
C1394 C 0.20801 0.94146 0.11904 0.0
C1395 C 0.13186 0.9484 0.08631 0.0
C1396 C 0.15772 0.94495 0.10632 0.0
C1397 C 0.22931 0.92703 0.16493 0.0
C1398 C 0.20558 0.9351 0.14471 0.0
H1399 H 0.05244 0.91197 0.07023 0.0
H1400 H 0.09563 0.90588 0.10325 0.0
H1401 H 0.18642 0.9507 0.08038 0.0
H1402 H 0.30742 0.94387 0.17834 0.0
H1403 H 0.26946 0.96047 0.14655 0.0
C1404 C 0.45046 0.92711 0.4493 0.0
C1405 C 0.48096 0.93218 0.46227 0.0
C1406 C 0.4343 0.90391 0.43483 0.0
C1407 C 0.3991 0.84643 0.41179 0.0
H1408 H 0.44866 0.83247 0.37733 0.0
C1409 C 0.33801 0.76253 0.3429 0.0
C1410 C 0.35036 0.77157 0.32061 0.0
C1411 C 0.35535 0.77752 0.36313 0.0
C1412 C 0.43438 0.83624 0.38659 0.0
H1413 H 0.51786 0.91596 0.47186 0.0
H1414 H 0.48911 0.8743 0.4479 0.0
H1415 H 0.47484 0.86805 0.40649 0.0
H1416 H 0.39079 0.80227 0.30209 0.0
H1417 H 0.42064 0.82986 0.33681 0.0
H1418 H 0.35861 0.81672 0.3904 0.0
C1419 C 0.47804 0.88901 0.44777 0.0
C1420 C 0.44946 0.8563 0.40377 0.0
C1421 C 0.49444 0.91268 0.4617 0.0
C1422 C 0.38091 0.79486 0.31922 0.0
C1423 C 0.398 0.81053 0.33922 0.0
C1424 C 0.38402 0.82694 0.39422 0.0
C1425 C 0.44808 0.88484 0.43354 0.0
C1426 C 0.43202 0.8619 0.41646 0.0
C1427 C 0.38509 0.8026 0.36122 0.0
C1428 C 0.40142 0.82172 0.38121 0.0
H1429 H 0.43973 0.94209 0.44932 0.0
H1430 H 0.41153 0.90187 0.42388 0.0
H1431 H 0.3848 0.8496 0.42148 0.0
H1432 H 0.3146 0.74428 0.34448 0.0
H1433 H 0.34499 0.76992 0.38001 0.0
C1434 C 0.37963 0.10017 0.73924 0.0
C1435 C 0.37801 0.12954 0.73079 0.0
C1436 C 0.38511 0.08691 0.72324 0.0
C1437 C 0.41397 0.10685 0.66201 0.0
H1438 H 0.38628 0.01667 0.67567 0.0
C1439 C 0.42994 0.03769 0.60114 0.0
C1440 C 0.44224 0.01557 0.61543 0.0
C1441 C 0.4212 0.05309 0.61318 0.0
C1442 C 0.39415 0.04191 0.67157 0.0
H1443 H 0.37965 0.16718 0.69794 0.0
H1444 H 0.38743 0.14326 0.66958 0.0
H1445 H 0.37005 0.03936 0.69907 0.0
H1446 H 0.45667 0.9942 0.65394 0.0
H1447 H 0.44037 0.01988 0.67449 0.0
H1448 H 0.43718 0.10874 0.63372 0.0
C1449 C 0.38563 0.13093 0.68904 0.0
C1450 C 0.38512 0.05511 0.68522 0.0
C1451 C 0.38063 0.14452 0.70528 0.0
C1452 C 0.4464 0.01019 0.64208 0.0
C1453 C 0.4372 0.02508 0.65398 0.0
C1454 C 0.42239 0.09347 0.64789 0.0
C1455 C 0.3884 0.10204 0.69785 0.0
C1456 C 0.39552 0.0879 0.68122 0.0
C1457 C 0.42414 0.04643 0.63974 0.0
C1458 C 0.41312 0.06087 0.65291 0.0
H1459 H 0.37698 0.0873 0.75848 0.0
H1460 H 0.38753 0.06499 0.73122 0.0
H1461 H 0.42288 0.13214 0.65836 0.0
H1462 H 0.42609 0.04241 0.58064 0.0
H1463 H 0.41116 0.06942 0.60167 0.0
C1464 C 0.23513 0.01369 0.6281 0.0
C1465 C 0.22476 0.02013 0.6019 0.0
C1466 C 0.26286 0.00954 0.63737 0.0
C1467 C 0.29682 0.97256 0.61558 0.0
H1468 H 0.32908 0.96032 0.68752 0.0
C1469 C 0.31537 0.87049 0.70565 0.0
C1470 C 0.28625 0.84647 0.6988 0.0
C1471 C 0.32469 0.90057 0.69041 0.0
C1472 C 0.32116 0.96386 0.66723 0.0
H1473 H 0.2382 0.03303 0.56499 0.0
H1474 H 0.28661 0.02528 0.58123 0.0
H1475 H 0.32043 0.00736 0.66613 0.0
H1476 H 0.24302 0.83521 0.67196 0.0
H1477 H 0.25875 0.88773 0.64541 0.0
H1478 H 0.2957 0.9281 0.61705 0.0
C1479 C 0.27286 0.02265 0.59459 0.0
C1480 C 0.31605 0.99084 0.65497 0.0
C1481 C 0.24501 0.02687 0.58529 0.0
C1482 C 0.26614 0.85309 0.67695 0.0
C1483 C 0.27529 0.88313 0.66176 0.0
C1484 C 0.30223 0.94579 0.62776 0.0
C1485 C 0.28074 0.01149 0.62062 0.0
C1486 C 0.30081 0.99382 0.62965 0.0
C1487 C 0.30461 0.90727 0.66837 0.0
C1488 C 0.31161 0.93989 0.65413 0.0
H1489 H 0.22031 0.00844 0.64154 0.0
H1490 H 0.26794 0.00103 0.65755 0.0
H1491 H 0.28558 0.97414 0.59593 0.0
H1492 H 0.33079 0.86632 0.72293 0.0
H1493 H 0.3472 0.91875 0.69616 0.0
C1494 C 0.38344 0.83008 0.78464 0.0
C1495 C 0.3552 0.83291 0.77311 0.0
C1496 C 0.40535 0.85016 0.80069 0.0
C1497 C 0.42695 0.92318 0.8214 0.0
H1498 H 0.44779 0.87676 0.88786 0.0
C1499 C 0.46365 0.97016 0.91319 0.0
C1500 C 0.48512 0.96133 0.93259 0.0
C1501 C 0.45259 0.95814 0.8911 0.0
C1502 C 0.44284 0.89031 0.86932 0.0
H1503 H 0.32804 0.85946 0.76747 0.0
H1504 H 0.36597 0.89433 0.79569 0.0
H1505 H 0.4218 0.85002 0.85265 0.0
H1506 H 0.51384 0.93518 0.94323 0.0
H1507 H 0.4953 0.91492 0.90484 0.0
H1508 H 0.44746 0.96338 0.83833 0.0
C1509 C 0.37149 0.87696 0.7924 0.0
C1510 C 0.42799 0.87494 0.84913 0.0
C1511 C 0.34963 0.8568 0.77657 0.0
C1512 C 0.49647 0.94157 0.92904 0.0
C1513 C 0.48591 0.93001 0.90695 0.0
C1514 C 0.44208 0.93868 0.84162 0.0
C1515 C 0.39918 0.87331 0.80511 0.0
C1516 C 0.41934 0.89106 0.82513 0.0
C1517 C 0.4633 0.93753 0.88797 0.0
C1518 C 0.44963 0.92221 0.86589 0.0
H1519 H 0.38798 0.81169 0.78202 0.0
H1520 H 0.42663 0.84703 0.81022 0.0
H1521 H 0.42061 0.93611 0.80297 0.0
H1522 H 0.45474 0.98553 0.91535 0.0
H1523 H 0.43496 0.96419 0.87689 0.0
C1524 C 0.41704 0.08553 0.04092 0.0
C1525 C 0.44563 0.1092 0.03387 0.0
C1526 C 0.40065 0.09085 0.05474 0.0
C1527 C 0.40916 0.14152 0.09602 0.0
H1528 H 0.32113 0.12233 0.06948 0.0
C1529 C 0.32695 0.15681 0.14469 0.0
C1530 C 0.30769 0.17158 0.12849 0.0
C1531 C 0.34444 0.14802 0.13481 0.0
C1532 C 0.34569 0.1278 0.07715 0.0
H1533 H 0.4801 0.15641 0.03679 0.0
H1534 H 0.4519 0.16544 0.06123 0.0
H1535 H 0.35041 0.10805 0.05013 0.0
H1536 H 0.29331 0.18987 0.08898 0.0
H1537 H 0.32285 0.17372 0.07199 0.0
H1538 H 0.4044 0.16149 0.12294 0.0
C1539 C 0.44197 0.14287 0.05597 0.0
C1540 C 0.3624 0.11935 0.06621 0.0
C1541 C 0.45806 0.13776 0.04185 0.0
C1542 C 0.30703 0.17779 0.10217 0.0
C1543 C 0.32411 0.16862 0.09233 0.0
C1544 C 0.39229 0.14954 0.10723 0.0
C1545 C 0.41277 0.11973 0.0622 0.0
C1546 C 0.39446 0.12648 0.07526 0.0
C1547 C 0.34285 0.15342 0.10848 0.0
C1548 C 0.36046 0.14322 0.09768 0.0
H1549 H 0.40679 0.06337 0.03494 0.0
H1550 H 0.37831 0.07245 0.05939 0.0
H1551 H 0.43378 0.1472 0.10354 0.0
H1552 H 0.32792 0.15123 0.16501 0.0
H1553 H 0.35858 0.13624 0.14777 0.0
C1554 C 0.06383 0.02977 0.42409 0.0
C1555 C 0.07313 0.04289 0.44548 0.0
C1556 C 0.07892 0.04651 0.40298 0.0
C1557 C 0.12888 0.12789 0.37355 0.0
H1558 H 0.14551 0.08588 0.33459 0.0
C1559 C 0.19013 0.19897 0.28731 0.0
C1560 C 0.21245 0.19087 0.28364 0.0
C1561 C 0.16931 0.17873 0.3042 0.0
C1562 C 0.14132 0.09807 0.34537 0.0
H1563 H 0.10365 0.08399 0.46151 0.0
H1564 H 0.13091 0.11293 0.42526 0.0
H1565 H 0.11843 0.05533 0.37073 0.0
H1566 H 0.23018 0.15508 0.29407 0.0
H1567 H 0.19502 0.12036 0.32453 0.0
H1568 H 0.15347 0.17076 0.34955 0.0
C1569 C 0.11202 0.08991 0.4244 0.0
C1570 C 0.12532 0.08044 0.36591 0.0
C1571 C 0.09686 0.07321 0.44536 0.0
C1572 C 0.21293 0.1617 0.29643 0.0
C1573 C 0.19264 0.14176 0.31384 0.0
C1574 C 0.14531 0.14552 0.35338 0.0
C1575 C 0.10318 0.07688 0.40285 0.0
C1576 C 0.11912 0.09519 0.38038 0.0
C1577 C 0.17099 0.15032 0.31839 0.0
C1578 C 0.15189 0.13095 0.33901 0.0
H1579 H 0.04471 0.00675 0.42363 0.0
H1580 H 0.07106 0.03596 0.38659 0.0
H1581 H 0.12401 0.14008 0.38386 0.0
H1582 H 0.1891 0.22123 0.27741 0.0
H1583 H 0.15237 0.18577 0.3065 0.0
C1584 C 0.87511 0.19543 0.14572 0.0
C1585 C 0.88006 0.19473 0.17175 0.0
C1586 C 0.88664 0.17974 0.13682 0.0
C1587 C 0.92097 0.12063 0.15663 0.0
H1588 H 0.95801 0.16631 0.09571 0.0
C1589 C 1.00724 0.09202 0.12602 0.0
C1590 C 1.00612 0.0953 0.10002 0.0
C1591 C 0.98834 0.1006 0.13425 0.0
C1592 C 0.94736 0.15293 0.11251 0.0
H1593 H 0.89994 0.17592 0.20895 0.0
H1594 H 0.92055 0.14874 0.19346 0.0
H1595 H 0.93177 0.18748 0.1113 0.0
H1596 H 0.98333 0.10926 0.06233 0.0
H1597 H 0.95008 0.12407 0.07669 0.0
H1598 H 0.93738 0.08644 0.15805 0.0
C1599 C 0.90738 0.16114 0.17987 0.0
C1600 C 0.93222 0.16509 0.1215 0.0
C1601 C 0.89557 0.17671 0.18881 0.0
C1602 C 0.98472 0.10633 0.08248 0.0
C1603 C 0.9659 0.11512 0.09072 0.0
C1604 C 0.93626 0.10851 0.14766 0.0
C1605 C 0.90372 0.16306 0.15366 0.0
C1606 C 0.91889 0.14923 0.14376 0.0
C1607 C 0.96782 0.11283 0.11672 0.0
C1608 C 0.94983 0.12459 0.12554 0.0
H1609 H 0.86284 0.20875 0.13211 0.0
H1610 H 0.88253 0.18111 0.1166 0.0
H1611 H 0.91066 0.10747 0.1736 0.0
H1612 H 1.02319 0.08325 0.14007 0.0
H1613 H 0.99068 0.09868 0.15437 0.0
C1614 C 0.12054 0.56813 0.46185 0.0
C1615 C 0.08816 0.54924 0.45794 0.0
C1616 C 0.13624 0.58732 0.44142 0.0
C1617 C 0.1315 0.59434 0.37302 0.0
H1618 H 0.20288 0.67361 0.38009 0.0
C1619 C 0.21311 0.67189 0.29583 0.0
C1620 C 0.24543 0.68395 0.30549 0.0
C1621 C 0.19087 0.65671 0.31236 0.0
C1622 C 0.18309 0.65145 0.3778 0.0
H1623 H 0.04675 0.5356 0.42932 0.0
H1624 H 0.07415 0.56956 0.39336 0.0
H1625 H 0.1691 0.64644 0.41233 0.0
H1626 H 0.27979 0.68783 0.33983 0.0
H1627 H 0.24144 0.66266 0.36847 0.0
H1628 H 0.14597 0.59938 0.33853 0.0
C1629 C 0.08744 0.56952 0.41237 0.0
C1630 C 0.16366 0.63581 0.39635 0.0
C1631 C 0.07162 0.55033 0.43298 0.0
C1632 C 0.25504 0.67973 0.33185 0.0
C1633 C 0.23301 0.66525 0.34826 0.0
C1634 C 0.15095 0.61012 0.35434 0.0
C1635 C 0.12012 0.58799 0.41631 0.0
C1636 C 0.13806 0.60658 0.39465 0.0
C1637 C 0.20059 0.65366 0.33882 0.0
C1638 C 0.17753 0.63848 0.35686 0.0
H1639 H 0.13397 0.56744 0.48084 0.0
H1640 H 0.1614 0.60067 0.44536 0.0
H1641 H 0.11217 0.57183 0.37106 0.0
H1642 H 0.2051 0.67386 0.27559 0.0
H1643 H 0.16612 0.64795 0.30443 0.0
C1644 C 0.57639 0.92856 0.55124 0.0
C1645 C 0.5899 0.96214 0.5466 0.0
C1646 C 0.59204 0.90938 0.56906 0.0
C1647 C 0.67488 0.91416 0.61137 0.0
H1648 H 0.63103 0.82484 0.63471 0.0
C1649 C 0.74833 0.83802 0.67892 0.0
C1650 C 0.73464 0.80701 0.69356 0.0
C1651 C 0.73057 0.8549 0.66129 0.0
C1652 C 0.64442 0.84977 0.62879 0.0
H1653 H 0.63378 0.99975 0.55779 0.0
H1654 H 0.6598 0.96794 0.58796 0.0
H1655 H 0.60237 0.85555 0.60622 0.0
H1656 H 0.68829 0.77212 0.70047 0.0
H1657 H 0.6578 0.80014 0.66986 0.0
H1658 H 0.71681 0.90867 0.6338 0.0
C1659 C 0.63648 0.95555 0.57836 0.0
C1660 C 0.6274 0.86801 0.61174 0.0
C1661 C 0.62082 0.97451 0.56077 0.0
C1662 C 0.70106 0.79476 0.68928 0.0
C1663 C 0.68309 0.81163 0.67141 0.0
C1664 C 0.69186 0.89596 0.6282 0.0
C1665 C 0.62318 0.92197 0.58328 0.0
C1666 C 0.64174 0.90124 0.60218 0.0
C1667 C 0.697 0.84287 0.65677 0.0
C1668 C 0.67763 0.8628 0.63786 0.0
H1669 H 0.55369 0.91674 0.54043 0.0
H1670 H 0.57965 0.88421 0.57095 0.0
H1671 H 0.68851 0.93899 0.60537 0.0
H1672 H 0.7737 0.8501 0.68162 0.0
H1673 H 0.7439 0.87816 0.65134 0.0
C1674 C 0.44585 0.47726 0.91863 0.0
C1675 C 0.4479 0.47112 0.94496 0.0
C1676 C 0.4249 0.45416 0.90493 0.0
C1677 C 0.37072 0.4028 0.8797 0.0
H1678 H 0.39189 0.33099 0.90222 0.0
C1679 C 0.35704 0.33393 0.80942 0.0
C1680 C 0.34517 0.30109 0.8161 0.0
C1681 C 0.36536 0.35153 0.82757 0.0
C1682 C 0.38516 0.35049 0.8959 0.0
H1683 H 0.42907 0.43686 0.97769 0.0
H1684 H 0.39264 0.3958 0.95363 0.0
H1685 H 0.40975 0.36789 0.93002 0.0
H1686 H 0.33422 0.26088 0.84728 0.0
H1687 H 0.34865 0.29189 0.87931 0.0
H1688 H 0.3466 0.38596 0.84549 0.0
C1689 C 0.40688 0.4187 0.94362 0.0
C1690 C 0.39533 0.37156 0.91183 0.0
C1691 C 0.42739 0.44219 0.95729 0.0
C1692 C 0.34337 0.28621 0.84164 0.0
C1693 C 0.35151 0.30394 0.85992 0.0
C1694 C 0.36024 0.38161 0.86395 0.0
C1695 C 0.40614 0.4243 0.91744 0.0
C1696 C 0.38921 0.39852 0.90341 0.0
C1697 C 0.36172 0.33674 0.85287 0.0
C1698 C 0.36851 0.35598 0.87141 0.0
H1699 H 0.46184 0.49928 0.90887 0.0
H1700 H 0.42507 0.45893 0.88482 0.0
H1701 H 0.36548 0.42327 0.87292 0.0
H1702 H 0.35917 0.34611 0.78994 0.0
H1703 H 0.37426 0.37682 0.82165 0.0
C1704 C 0.83795 0.83018 0.30342 0.0
C1705 C 0.82989 0.79806 0.30623 0.0
C1706 C 0.85461 0.8452 0.32374 0.0
C1707 C 0.9097 0.84161 0.38231 0.0
H1708 H 0.88354 0.89696 0.39767 0.0
C1709 C 0.97833 0.90622 0.4647 0.0
C1710 C 0.98284 0.93754 0.46009 0.0
C1711 C 0.95706 0.887 0.44784 0.0
C1712 C 0.89135 0.88184 0.39349 0.0
H1713 H 0.83249 0.75647 0.33294 0.0
H1714 H 0.86253 0.78311 0.36822 0.0
H1715 H 0.85168 0.86762 0.36423 0.0
H1716 H 0.969 0.97362 0.43464 0.0
H1717 H 0.93214 0.9404 0.40484 0.0
H1718 H 0.94995 0.85658 0.41077 0.0
C1719 C 0.8559 0.79651 0.35017 0.0
C1720 C 0.87303 0.86497 0.37441 0.0
C1721 C 0.83884 0.78133 0.32991 0.0
C1722 C 0.96537 0.94931 0.43875 0.0
C1723 C 0.94429 0.93023 0.42172 0.0
C1724 C 0.92823 0.85874 0.40119 0.0
C1725 C 0.86384 0.82856 0.34727 0.0
C1726 C 0.8822 0.84493 0.3685 0.0
C1727 C 0.94016 0.89892 0.4259 0.0
C1728 C 0.91943 0.8793 0.40686 0.0
H1729 H 0.83143 0.84386 0.28552 0.0
H1730 H 0.86072 0.87002 0.32093 0.0
H1731 H 0.91745 0.82656 0.37792 0.0
H1732 H 0.99125 0.89661 0.48134 0.0
H1733 H 0.954 0.86286 0.45196 0.0
C1734 C 0.48834 0.61145 0.58382 0.0
C1735 C 0.48803 0.61804 0.55757 0.0
C1736 C 0.47003 0.61928 0.59347 0.0
C1737 C 0.40325 0.64293 0.57564 0.0
H1738 H 0.44379 0.68076 0.63471 0.0
C1739 C 0.36192 0.72007 0.60347 0.0
C1740 C 0.36532 0.7199 0.62922 0.0
C1741 C 0.37261 0.70243 0.59611 0.0
C1742 C 0.43181 0.66972 0.6185 0.0
H1743 H 0.46733 0.63722 0.52087 0.0
H1744 H 0.43547 0.65114 0.53767 0.0
H1745 H 0.47063 0.66031 0.61897 0.0
H1746 H 0.38124 0.69981 0.66749 0.0
H1747 H 0.39979 0.6686 0.65467 0.0
H1748 H 0.36471 0.65309 0.57488 0.0
C1749 C 0.44967 0.63957 0.55084 0.0
C1750 C 0.44727 0.65799 0.6094 0.0
C1751 C 0.46797 0.63161 0.54116 0.0
C1752 C 0.37819 0.70033 0.64753 0.0
C1753 C 0.38913 0.68275 0.64014 0.0
C1754 C 0.38779 0.65472 0.58473 0.0
C1755 C 0.45087 0.63401 0.57717 0.0
C1756 C 0.4334 0.64476 0.58765 0.0
C1757 C 0.38713 0.68416 0.61429 0.0
C1758 C 0.40204 0.66867 0.60609 0.0
H1759 H 0.50303 0.60042 0.59699 0.0
H1760 H 0.47106 0.61396 0.6138 0.0
H1761 H 0.39157 0.63243 0.55913 0.0
H1762 H 0.3519 0.73477 0.58892 0.0
H1763 H 0.37084 0.70436 0.57606 0.0
C1764 C 0.62248 0.0712 0.96294 0.0
C1765 C 0.59062 0.05052 0.95936 0.0
C1766 C 0.63731 0.09154 0.94228 0.0
C1767 C 0.62352 0.12366 0.87198 0.0
H1768 H 0.71022 0.1377 0.8789 0.0
C1769 C 0.69773 0.17728 0.78887 0.0
C1770 C 0.72864 0.19973 0.79414 0.0
C1771 C 0.67841 0.16161 0.80769 0.0
C1772 C 0.68611 0.13434 0.87666 0.0
H1773 H 0.54939 0.03468 0.93101 0.0
H1774 H 0.57528 0.06964 0.89481 0.0
H1775 H 0.68166 0.10596 0.91381 0.0
H1776 H 0.76438 0.21969 0.82432 0.0
H1777 H 0.73107 0.19387 0.85669 0.0
H1778 H 0.62824 0.15151 0.83417 0.0
C1779 C 0.58875 0.07096 0.91368 0.0
C1780 C 0.66963 0.11617 0.89686 0.0
C1781 C 0.5738 0.05081 0.9345 0.0
C1782 C 0.74007 0.20488 0.81896 0.0
C1783 C 0.72106 0.18931 0.83774 0.0
C1784 C 0.64004 0.14166 0.85154 0.0
C1785 C 0.62099 0.09124 0.9172 0.0
C1786 C 0.63814 0.11071 0.89508 0.0
C1787 C 0.6901 0.16702 0.83255 0.0
C1788 C 0.67169 0.14748 0.85374 0.0
H1789 H 0.6361 0.07142 0.98185 0.0
H1790 H 0.66183 0.10726 0.94607 0.0
H1791 H 0.59944 0.12032 0.86977 0.0
H1792 H 0.68903 0.1706 0.77063 0.0
H1793 H 0.65497 0.14398 0.80316 0.0
C1794 C 0.07326 0.42521 0.05288 0.0
C1795 C 0.08645 0.45881 0.04717 0.0
C1796 C 0.08969 0.4068 0.0707 0.0
C1797 C 0.1739 0.41377 0.11129 0.0
H1798 H 0.13158 0.32461 0.13622 0.0
C1799 C 0.24978 0.34023 0.17931 0.0
C1800 C 0.23656 0.30914 0.19393 0.0
C1801 C 0.23153 0.35659 0.16166 0.0
C1802 C 0.14457 0.34951 0.12985 0.0
H1803 H 0.13062 0.49729 0.05637 0.0
H1804 H 0.15797 0.46677 0.08661 0.0
H1805 H 0.10185 0.35423 0.10786 0.0
H1806 H 0.19053 0.27352 0.20094 0.0
H1807 H 0.15925 0.30064 0.1704 0.0
H1808 H 0.2165 0.40933 0.13318 0.0
C1809 C 0.13431 0.45379 0.07788 0.0
C1810 C 0.1269 0.36711 0.11287 0.0
C1811 C 0.11789 0.472 0.06026 0.0
C1812 C 0.20295 0.29628 0.18972 0.0
C1813 C 0.18451 0.31261 0.17189 0.0
C1814 C 0.19153 0.3962 0.12809 0.0
C1815 C 0.12132 0.4202 0.08386 0.0
C1816 C 0.14065 0.40024 0.10274 0.0
C1817 C 0.19791 0.34389 0.1572 0.0
C1818 C 0.17788 0.36314 0.13831 0.0
H1819 H 0.05016 0.41276 0.0429 0.0
H1820 H 0.07746 0.38154 0.07344 0.0
H1821 H 0.18713 0.43858 0.10482 0.0
H1822 H 0.27511 0.35277 0.18204 0.0
H1823 H 0.2445 0.37997 0.1517 0.0
C1824 C 0.54699 0.57119 0.92029 0.0
C1825 C 0.56028 0.58299 0.94263 0.0
C1826 C 0.56206 0.5859 0.89909 0.0
C1827 C 0.64119 0.63389 0.88358 0.0
H1828 H 0.59879 0.64456 0.81402 0.0
C1829 C 0.70205 0.66535 0.79846 0.0
C1830 C 0.70431 0.69457 0.78317 0.0
C1831 C 0.68122 0.64976 0.81593 0.0
C1832 C 0.61076 0.6414 0.83339 0.0
H1833 H 0.59787 0.62072 0.95986 0.0
H1834 H 0.62482 0.6462 0.92296 0.0
H1835 H 0.5687 0.62384 0.84886 0.0
H1836 H 0.68534 0.72945 0.77272 0.0
H1837 H 0.64807 0.70155 0.80255 0.0
H1838 H 0.6831 0.65097 0.86814 0.0
C1839 C 0.60308 0.6253 0.92192 0.0
C1840 C 0.59364 0.62961 0.85328 0.0
C1841 C 0.58775 0.6108 0.943 0.0
C1842 C 0.684 0.70692 0.78436 0.0
C1843 C 0.66267 0.69098 0.80133 0.0
C1844 C 0.65809 0.64489 0.86375 0.0
C1845 C 0.59072 0.61264 0.89991 0.0
C1846 C 0.60873 0.62588 0.87862 0.0
C1847 C 0.66181 0.6628 0.81781 0.0
C1848 C 0.64308 0.64888 0.83851 0.0
H1849 H 0.52521 0.55035 0.91932 0.0
H1850 H 0.55198 0.57552 0.88247 0.0
H1851 H 0.65354 0.63128 0.90284 0.0
H1852 H 0.7177 0.65554 0.79805 0.0
H1853 H 0.6809 0.62801 0.8285 0.0
C1854 C 0.70575 0.2562 0.19736 0.0
C1855 C 0.72999 0.26097 0.21824 0.0
C1856 C 0.70408 0.28177 0.17846 0.0
C1857 C 0.71782 0.33979 0.13556 0.0
H1858 H 0.71378 0.40475 0.15808 0.0
C1859 C 0.65005 0.41219 0.07553 0.0
C1860 C 0.65757 0.44129 0.0806 0.0
C1861 C 0.66809 0.39543 0.08881 0.0
C1862 C 0.7158 0.38747 0.15131 0.0
H1863 H 0.76982 0.29587 0.23714 0.0
H1864 H 0.76681 0.34059 0.20422 0.0
H1865 H 0.72703 0.36425 0.1891 0.0
H1866 H 0.69136 0.47734 0.10139 0.0
H1867 H 0.72368 0.4485 0.12414 0.0
H1868 H 0.70596 0.36267 0.09774 0.0
C1869 C 0.74972 0.31716 0.20203 0.0
C1870 C 0.72319 0.3641 0.16918 0.0
C1871 C 0.75157 0.29161 0.22073 0.0
C1872 C 0.68491 0.45465 0.09752 0.0
C1873 C 0.70328 0.4381 0.11054 0.0
C1874 C 0.71082 0.36345 0.11761 0.0
C1875 C 0.72612 0.31243 0.18065 0.0
C1876 C 0.72313 0.33948 0.1615 0.0
C1877 C 0.6942 0.40765 0.10722 0.0
C1878 C 0.70851 0.38686 0.12535 0.0
H1879 H 0.68847 0.23272 0.1955 0.0
H1880 H 0.68521 0.27764 0.1624 0.0
H1881 H 0.71817 0.32125 0.12923 0.0
H1882 H 0.62895 0.40138 0.06262 0.0
H1883 H 0.66011 0.37195 0.08592 0.0
C1884 C 0.95807 0.47142 0.41507 0.0
C1885 C 0.96614 0.45433 0.43889 0.0
C1886 C 0.93686 0.45581 0.39594 0.0
C1887 C 0.8744 0.37871 0.38611 0.0
H1888 H 0.89727 0.40305 0.31954 0.0
C1889 C 0.84949 0.31481 0.30132 0.0
C1890 C 0.81709 0.29668 0.30003 0.0
C1891 C 0.86469 0.33899 0.31475 0.0
C1892 C 0.89052 0.39609 0.33801 0.0
H1893 H 0.95842 0.40751 0.46121 0.0
H1894 H 0.92179 0.38052 0.42798 0.0
H1895 H 0.92964 0.43575 0.35088 0.0
H1896 H 0.77475 0.29033 0.31067 0.0
H1897 H 0.8012 0.33272 0.33405 0.0
H1898 H 0.83637 0.33828 0.37395 0.0
C1899 C 0.93142 0.40591 0.42418 0.0
C1900 C 0.90885 0.41494 0.35583 0.0
C1901 C 0.95266 0.42143 0.44317 0.0
C1902 C 0.79989 0.30377 0.31166 0.0
C1903 C 0.815 0.32803 0.32499 0.0
C1904 C 0.85611 0.35993 0.36836 0.0
C1905 C 0.92327 0.42289 0.4004 0.0
C1906 C 0.90145 0.40587 0.38028 0.0
C1907 C 0.84769 0.34546 0.32715 0.0
C1908 C 0.86446 0.36795 0.34436 0.0
H1909 H 0.96835 0.49683 0.4111 0.0
H1910 H 0.93096 0.46944 0.37775 0.0
H1911 H 0.86795 0.37142 0.40474 0.0
H1912 H 0.8634 0.3093 0.29317 0.0
H1913 H 0.88999 0.35154 0.31648 0.0
C1914 C 0.57664 0.5442 0.42131 0.0
C1915 C 0.5617 0.55581 0.43125 0.0
C1916 C 0.59909 0.56448 0.40589 0.0
C1917 C 0.6558 0.6147 0.38229 0.0
H1918 H 0.6292 0.67106 0.32611 0.0
C1919 C 0.73022 0.70553 0.30518 0.0
C1920 C 0.71387 0.70602 0.28023 0.0
C1921 C 0.7143 0.68676 0.32549 0.0
C1922 C 0.63687 0.6554 0.34172 0.0
H1923 H 0.55936 0.59793 0.43354 0.0
H1924 H 0.59852 0.63351 0.40614 0.0
H1925 H 0.59763 0.64077 0.35971 0.0
H1926 H 0.66855 0.68767 0.25666 0.0
H1927 H 0.64056 0.65486 0.29219 0.0
H1928 H 0.69475 0.62898 0.3638 0.0
C1929 C 0.59267 0.60861 0.41036 0.0
C1930 C 0.61907 0.63842 0.36107 0.0
C1931 C 0.57031 0.58828 0.42601 0.0
C1932 C 0.68158 0.6873 0.27579 0.0
C1933 C 0.66564 0.66877 0.29604 0.0
C1934 C 0.6738 0.63194 0.36298 0.0
C1935 C 0.60696 0.59679 0.39996 0.0
C1936 C 0.62805 0.6175 0.38129 0.0
C1937 C 0.68174 0.66889 0.32105 0.0
C1938 C 0.66406 0.65191 0.3423 0.0
H1939 H 0.57082 0.51933 0.42519 0.0
H1940 H 0.60947 0.55472 0.39788 0.0
H1941 H 0.66326 0.59881 0.3978 0.0
H1942 H 0.75498 0.72045 0.30905 0.0
H1943 H 0.72713 0.68732 0.34464 0.0
C1944 C 0.85863 0.27854 0.82853 0.0
C1945 C 0.82652 0.27198 0.82084 0.0
C1946 C 0.87544 0.29168 0.85 0.0
C1947 C 0.87083 0.34099 0.88486 0.0
H1948 H 0.939 0.32592 0.93347 0.0
C1949 C 0.93815 0.41321 0.96229 0.0
C1950 C 0.97099 0.42468 0.96597 0.0
C1951 C 0.91919 0.38951 0.94853 0.0
C1952 C 0.92008 0.33048 0.91995 0.0
H1953 H 0.78616 0.26917 0.83209 0.0
H1954 H 0.81494 0.29175 0.86904 0.0
H1955 H 0.9089 0.29301 0.9019 0.0
H1956 H 1.00962 0.41913 0.95906 0.0
H1957 H 0.97676 0.37875 0.93455 0.0
H1958 H 0.88236 0.37896 0.90202 0.0
C1959 C 0.82759 0.28836 0.85791 0.0
C1960 C 0.9029 0.31163 0.90191 0.0
C1961 C 0.81107 0.27563 0.83651 0.0
C1962 C 0.98438 0.41104 0.95647 0.0
C1963 C 0.96549 0.38756 0.94259 0.0
C1964 C 0.88802 0.35985 0.90271 0.0
C1965 C 0.86019 0.29791 0.86425 0.0
C1966 C 0.87813 0.31678 0.88414 0.0
C1967 C 0.93269 0.37697 0.93796 0.0
C1968 C 0.91298 0.35501 0.92041 0.0
H1969 H 0.87117 0.27524 0.81729 0.0
H1970 H 0.90056 0.29854 0.85457 0.0
H1971 H 0.85231 0.34601 0.87108 0.0
H1972 H 0.92704 0.42329 0.96917 0.0
H1973 H 0.89395 0.38155 0.94565 0.0
C1974 C 0.86876 0.82485 0.21051 0.0
C1975 C 0.83664 0.80506 0.2077 0.0
C1976 C 0.88268 0.84351 0.18919 0.0
C1977 C 0.86769 0.87866 0.12248 0.0
H1978 H 0.93881 0.86686 0.1168 0.0
C1979 C 0.95532 0.9569 0.05257 0.0
C1980 C 0.96439 0.94141 0.04107 0.0
C1981 C 0.93474 0.93978 0.07 0.0
C1982 C 0.91879 0.8701 0.11807 0.0
H1983 H 0.79427 0.78803 0.18053 0.0
H1984 H 0.81822 0.82136 0.14347 0.0
H1985 H 0.9145 0.84027 0.15482 0.0
H1986 H 0.95873 0.89628 0.03785 0.0
H1987 H 0.92271 0.8661 0.06858 0.0
H1988 H 0.87247 0.90902 0.08579 0.0
C1989 C 0.83244 0.82295 0.1621 0.0
C1990 C 0.90523 0.85531 0.13989 0.0
C1991 C 0.8187 0.80402 0.18335 0.0
C1992 C 0.9515 0.90858 0.04615 0.0
C1993 C 0.93123 0.89143 0.06386 0.0
C1994 C 0.88162 0.89392 0.10075 0.0
C1995 C 0.8646 0.84245 0.16485 0.0
C1996 C 0.87963 0.85948 0.14224 0.0
C1997 C 0.92347 0.90699 0.07642 0.0
C1998 C 0.90718 0.88959 0.09839 0.0
H1999 H 0.88312 0.82548 0.22913 0.0
H2000 H 0.90763 0.85837 0.19163 0.0
H2001 H 0.84785 0.88204 0.12399 0.0
H2002 H 0.96511 0.9823 0.04881 0.0
H2003 H 0.92925 0.95224 0.07962 0.0
C2004 C 0.82216 0.0857 0.81342 0.0
C2005 C 0.7969 0.08464 0.82161 0.0
C2006 C 0.84326 0.07428 0.83034 0.0
C2007 C 0.87189 0.05819 0.89906 0.0
H2008 H 0.92064 0.02889 0.87756 0.0
C2009 C 0.96565 0.01325 0.96298 0.0
C2010 C 0.9959 0.03503 0.95826 0.0
C2011 C 0.93927 0.01585 0.94648 0.0
C2012 C 0.90702 0.03687 0.88374 0.0
H2013 H 0.77277 0.06871 0.85365 0.0
H2014 H 0.80854 0.04711 0.88281 0.0
H2015 H 0.87555 0.03581 0.84852 0.0
H2016 H 1.02266 0.07745 0.93376 0.0
H2017 H 0.97607 0.08152 0.90419 0.0
H2018 H 0.90325 0.05838 0.93455 0.0
C2019 C 0.81278 0.05793 0.86352 0.0
C2020 C 0.88137 0.04107 0.86714 0.0
C2021 C 0.79196 0.06989 0.84668 0.0
C2022 C 0.99948 0.06006 0.93732 0.0
C2023 C 0.97304 0.06233 0.92053 0.0
C2024 C 0.89713 0.05331 0.9158 0.0
C2025 C 0.83925 0.0609 0.85576 0.0
C2026 C 0.86392 0.0525 0.87438 0.0
C2027 C 0.94288 0.04022 0.9251 0.0
C2028 C 0.91513 0.04324 0.90802 0.0
H2029 H 0.82621 0.09617 0.79406 0.0
H2030 H 0.86344 0.07728 0.82363 0.0
H2031 H 0.85946 0.06755 0.90521 0.0
H2032 H 0.96233 0.99443 0.97954 0.0
H2033 H 0.91608 0.99882 0.95035 0.0
C2034 C 0.69482 0.23857 0.66434 0.0
C2035 C 0.72614 0.24226 0.67266 0.0
C2036 C 0.67756 0.22668 0.64243 0.0
C2037 C 0.68494 0.20615 0.58621 0.0
H2038 H 0.60402 0.13763 0.59674 0.0
C2039 C 0.62398 0.10154 0.53489 0.0
C2040 C 0.59111 0.08931 0.52836 0.0
C2041 C 0.63999 0.12587 0.54834 0.0
C2042 C 0.62634 0.15702 0.59325 0.0
H2043 H 0.76485 0.24059 0.6624 0.0
H2044 H 0.73501 0.21898 0.62526 0.0
H2045 H 0.63231 0.17172 0.62713 0.0
H2046 H 0.54949 0.09432 0.52942 0.0
H2047 H 0.57736 0.1365 0.55271 0.0
H2048 H 0.67936 0.19033 0.55281 0.0
C2049 C 0.72341 0.22478 0.63559 0.0
C2050 C 0.64252 0.1767 0.61064 0.0
C2051 C 0.74047 0.23653 0.65738 0.0
C2052 C 0.5748 0.10284 0.5345 0.0
C2053 C 0.59073 0.12702 0.54788 0.0
C2054 C 0.6688 0.18629 0.56887 0.0
C2055 C 0.69144 0.21866 0.62828 0.0
C2056 C 0.67232 0.20111 0.60765 0.0
C2057 C 0.62339 0.13832 0.55549 0.0
C2058 C 0.63957 0.16118 0.57246 0.0
H2059 H 0.68317 0.24338 0.67534 0.0
H2060 H 0.65311 0.22289 0.637 0.0
H2061 H 0.70764 0.22504 0.58311 0.0
H2062 H 0.63718 0.09151 0.53057 0.0
H2063 H 0.66519 0.13396 0.55412 0.0
C2064 C 0.647 0.98569 0.38984 0.0
C2065 C 0.62636 0.99977 0.37588 0.0
C2066 C 0.65677 0.9708 0.37821 0.0
C2067 C 0.66424 0.96988 0.31434 0.0
H2068 H 0.67795 0.89475 0.34843 0.0
C2069 C 0.72328 0.92494 0.26897 0.0
C2070 C 0.71088 0.89247 0.27014 0.0
C2071 C 0.71409 0.9368 0.2836 0.0
C2072 C 0.67407 0.91562 0.33856 0.0
H2073 H 0.59851 0.0076 0.33902 0.0
H2074 H 0.61519 0.98165 0.31894 0.0
H2075 H 0.65842 0.91671 0.37027 0.0
H2076 H 0.67985 0.84696 0.28853 0.0
H2077 H 0.66351 0.86768 0.31406 0.0
H2078 H 0.67912 0.96862 0.2825 0.0
C2079 C 0.62457 0.98271 0.33871 0.0
C2080 C 0.66316 0.92844 0.3512 0.0
C2081 C 0.61487 0.99754 0.35028 0.0
C2082 C 0.68998 0.87207 0.28724 0.0
C2083 C 0.68061 0.884 0.30188 0.0
C2084 C 0.67511 0.95714 0.30177 0.0
C2085 C 0.6461 0.96958 0.35233 0.0
C2086 C 0.65798 0.95572 0.33922 0.0
C2087 C 0.69204 0.91663 0.29985 0.0
C2088 C 0.6803 0.92987 0.31365 0.0
H2089 H 0.65655 0.9872 0.40951 0.0
H2090 H 0.67353 0.9612 0.38931 0.0
H2091 H 0.66103 0.99113 0.30454 0.0
H2092 H 0.73992 0.94133 0.25641 0.0
H2093 H 0.72416 0.96197 0.28198 0.0
C2094 C 0.83018 0.18472 0.33675 0.0
C2095 C 0.80607 0.17745 0.31609 0.0
C2096 C 0.83379 0.16081 0.35652 0.0
C2097 C 0.83191 0.08666 0.36744 0.0
H2098 H 0.85398 0.09721 0.43696 0.0
C2099 C 0.94905 0.10874 0.42509 0.0
C2100 C 0.95364 0.09817 0.45138 0.0
C2101 C 0.91883 0.10003 0.41126 0.0
C2102 C 0.84692 0.0928 0.41792 0.0
H2103 H 0.76813 0.13992 0.29863 0.0
H2104 H 0.77529 0.09767 0.33315 0.0
H2105 H 0.81919 0.11931 0.40656 0.0
H2106 H 0.9309 0.06874 0.48388 0.0
H2107 H 0.87735 0.05475 0.45963 0.0
H2108 H 0.86288 0.06368 0.37808 0.0
C2109 C 0.79028 0.12188 0.33451 0.0
C2110 C 0.82713 0.1056 0.40053 0.0
C2111 C 0.78623 0.14594 0.31491 0.0
C2112 C 0.92767 0.07741 0.46357 0.0
C2113 C 0.89724 0.06919 0.44976 0.0
C2114 C 0.85196 0.07412 0.3848 0.0
C2115 C 0.81398 0.12924 0.35551 0.0
C2116 C 0.82167 0.10478 0.37482 0.0
C2117 C 0.89262 0.08099 0.42356 0.0
C2118 C 0.86164 0.07951 0.40959 0.0
H2119 H 0.84613 0.20889 0.33759 0.0
H2120 H 0.85291 0.16697 0.37218 0.0
H2121 H 0.82787 0.08569 0.34768 0.0
H2122 H 0.96886 0.12431 0.41532 0.0
H2123 H 0.91593 0.10995 0.39114 0.0
C2124 C 0.68413 0.12974 0.22592 0.0
C2125 C 0.71675 0.14055 0.23291 0.0
C2126 C 0.66818 0.10954 0.20897 0.0
C2127 C 0.68447 0.09375 0.15629 0.0
H2128 H 0.59725 0.03385 0.15248 0.0
C2129 C 0.61644 0.03132 0.07258 0.0
C2130 C 0.58687 0.03174 0.06252 0.0
C2131 C 0.63275 0.04088 0.09534 0.0
C2132 C 0.62162 0.05056 0.15338 0.0
H2133 H 0.75838 0.13777 0.22935 0.0
H2134 H 0.73042 0.10153 0.20024 0.0
H2135 H 0.62521 0.0537 0.19138 0.0
H2136 H 0.55112 0.04295 0.06758 0.0
H2137 H 0.57987 0.0601 0.10756 0.0
H2138 H 0.68074 0.09091 0.11822 0.0
C2139 C 0.71714 0.10902 0.20739 0.0
C2140 C 0.63761 0.06186 0.17558 0.0
C2141 C 0.7331 0.12953 0.22409 0.0
C2142 C 0.57402 0.04259 0.07509 0.0
C2143 C 0.59021 0.05194 0.09801 0.0
C2144 C 0.66858 0.08225 0.13424 0.0
C2145 C 0.68472 0.09987 0.19884 0.0
C2146 C 0.66901 0.08409 0.17705 0.0
C2147 C 0.61959 0.05092 0.10838 0.0
C2148 C 0.63688 0.0611 0.13243 0.0
H2149 H 0.67131 0.1388 0.23187 0.0
H2150 H 0.64332 0.10341 0.20246 0.0
H2151 H 0.70843 0.11136 0.15656 0.0
H2152 H 0.62702 0.02379 0.06278 0.0
H2153 H 0.65544 0.04005 0.10292 0.0
C2154 C 0.75004 0.85531 0.85212 0.0
C2155 C 0.75605 0.82842 0.86286 0.0
C2156 C 0.7324 0.86238 0.86334 0.0
C2157 C 0.70482 0.84194 0.925 0.0
H2158 H 0.65293 0.8863 0.88626 0.0
C2159 C 0.61775 0.85165 0.96927 0.0
C2160 C 0.62053 0.88212 0.96704 0.0
C2161 C 0.63294 0.84602 0.9548 0.0
C2162 C 0.66749 0.87406 0.89729 0.0
H2163 H 0.74705 0.78702 0.89288 0.0
H2164 H 0.71511 0.79823 0.9117 0.0
H2165 H 0.68116 0.87377 0.86431 0.0
H2166 H 0.64037 0.93028 0.94652 0.0
H2167 H 0.66621 0.92009 0.92059 0.0
H2168 H 0.69033 0.84141 0.95783 0.0
C2169 C 0.725 0.8148 0.89531 0.0
C2170 C 0.68382 0.86694 0.88476 0.0
C2171 C 0.74307 0.80811 0.88439 0.0
C2172 C 0.63754 0.90651 0.94874 0.0
C2173 C 0.65245 0.90073 0.93393 0.0
C2174 C 0.68813 0.84856 0.93739 0.0
C2175 C 0.71996 0.84242 0.88536 0.0
C2176 C 0.70262 0.85056 0.89843 0.0
C2177 C 0.65093 0.87054 0.9373 0.0
C2178 C 0.66916 0.86454 0.92372 0.0
H2179 H 0.75998 0.87147 0.8356 0.0
H2180 H 0.72943 0.884 0.85516 0.0
H2181 H 0.7197 0.83024 0.93644 0.0
H2182 H 0.6041 0.83202 0.98251 0.0
H2183 H 0.63084 0.82239 0.95746 0.0
C2184 C 0.98013 0.91992 0.54713 0.0
C2185 C 1.01257 0.9366 0.5537 0.0
C2186 C 0.96116 0.90449 0.56597 0.0
C2187 C 0.96502 0.87398 0.63539 0.0
H2188 H 0.88497 0.87883 0.62354 0.0
C2189 C 0.86093 0.84265 0.6939 0.0
C2190 C 0.85551 0.81134 0.70549 0.0
C2191 C 0.88172 0.85945 0.67642 0.0
C2192 C 0.90745 0.87763 0.6272 0.0
H2193 H 0.05119 0.9486 0.58463 0.0
H2194 H 1.01836 0.9224 0.61749 0.0
H2195 H 0.91689 0.90329 0.58996 0.0
H2196 H 0.86866 0.77359 0.70899 0.0
H2197 H 0.90493 0.80285 0.67885 0.0
H2198 H 0.95548 0.84817 0.67258 0.0
C2199 C 1.00727 0.9211 0.59801 0.0
C2200 C 0.92557 0.89129 0.60787 0.0
C2201 C 1.02609 0.93648 0.57922 0.0
C2202 C 0.87229 0.79767 0.70028 0.0
C2203 C 0.8932 0.81447 0.68309 0.0
C2204 C 0.94685 0.86019 0.65463 0.0
C2205 C 0.97454 0.90513 0.59164 0.0
C2206 C 0.95464 0.88974 0.61178 0.0
C2207 C 0.89768 0.8453 0.67059 0.0
C2208 C 0.91786 0.86181 0.65073 0.0
H2209 H 0.96949 0.91912 0.52749 0.0
H2210 H 0.9361 0.89197 0.56046 0.0
H2211 H 0.98706 0.87192 0.63895 0.0
H2212 H 0.84813 0.85367 0.69747 0.0
H2213 H 0.88499 0.88331 0.6672 0.0
C2214 C 0.15863 0.77436 0.83908 0.0
C2215 C 0.15438 0.77732 0.81272 0.0
C2216 C 0.15074 0.79214 0.84908 0.0
C2217 C 0.09833 0.83242 0.83262 0.0
H2218 H 0.14559 0.86494 0.89349 0.0
C2219 C 0.05728 0.89922 0.87291 0.0
C2220 C 0.05872 0.89243 0.8993 0.0
C2221 C 0.07263 0.88911 0.86215 0.0
C2222 C 0.13194 0.85578 0.8766 0.0
H2223 H 0.13962 0.80228 0.77622 0.0
H2224 H 0.12602 0.83357 0.79365 0.0
H2225 H 0.16595 0.84061 0.87478 0.0
H2226 H 0.07849 0.87074 0.93517 0.0
H2227 H 0.10506 0.85258 0.91642 0.0
H2228 H 0.06395 0.8467 0.83466 0.0
C2229 C 0.13516 0.81717 0.8066 0.0
C2230 C 0.14367 0.84188 0.86583 0.0
C2231 C 0.14325 0.79948 0.79659 0.0
C2232 C 0.07713 0.8765 0.91478 0.0
C2233 C 0.09235 0.86611 0.90398 0.0
C2234 C 0.08655 0.84615 0.84342 0.0
C2235 C 0.13827 0.81332 0.833 0.0
C2236 C 0.12693 0.82987 0.84375 0.0
C2237 C 0.08968 0.87164 0.87745 0.0
C2238 C 0.10309 0.85796 0.86563 0.0
H2239 H 0.16751 0.75777 0.85206 0.0
H2240 H 0.1533 0.78836 0.86946 0.0
H2241 H 0.08445 0.82289 0.81593 0.0
H2242 H 0.04366 0.91187 0.86049 0.0
H2243 H 0.07069 0.89463 0.84172 0.0
C2244 C 0.93741 0.42376 0.53547 0.0
C2245 C 0.96938 0.44404 0.53918 0.0
C2246 C 0.92194 0.40486 0.55609 0.0
C2247 C 0.93287 0.37676 0.62705 0.0
H2248 H 0.84721 0.36776 0.61631 0.0
C2249 C 0.85577 0.33325 0.70685 0.0
C2250 C 0.82449 0.31156 0.70149 0.0
C2251 C 0.87582 0.34668 0.68865 0.0
C2252 C 0.87099 0.36971 0.61964 0.0
H2253 H 1.01041 0.46019 0.5676 0.0
H2254 H 0.98327 0.42777 0.60383 0.0
H2255 H 0.87747 0.39572 0.58208 0.0
H2256 H 0.78905 0.29077 0.67148 0.0
H2257 H 0.82351 0.3128 0.64024 0.0
H2258 H 0.92611 0.35138 0.66523 0.0
C2259 C 0.97018 0.42576 0.58491 0.0
C2260 C 0.88845 0.38569 0.59984 0.0
C2261 C 0.98585 0.4444 0.56412 0.0
C2262 C 0.81344 0.30506 0.67706 0.0
C2263 C 0.83319 0.31843 0.65889 0.0
C2264 C 0.91536 0.36097 0.64709 0.0
C2265 C 0.93769 0.40634 0.58121 0.0
C2266 C 0.91958 0.38924 0.60299 0.0
C2267 C 0.86457 0.3398 0.66424 0.0
C2268 C 0.88404 0.35697 0.64351 0.0
H2269 H 0.92413 0.42298 0.51646 0.0
H2270 H 0.89727 0.38958 0.55221 0.0
H2271 H 0.95664 0.37876 0.63034 0.0
H2272 H 0.86433 0.34098 0.72465 0.0
H2273 H 0.89959 0.3637 0.69324 0.0
C2274 C 0.45275 0.04359 0.4308 0.0
C2275 C 0.48349 0.05672 0.44501 0.0
C2276 C 0.43659 0.06187 0.41293 0.0
C2277 C 0.44374 0.14861 0.37904 0.0
H2278 H 0.35475 0.10595 0.35636 0.0
C2279 C 0.36855 0.21924 0.30066 0.0
C2280 C 0.33495 0.20614 0.29586 0.0
C2281 C 0.38685 0.20296 0.31881 0.0
C2282 C 0.37954 0.11919 0.36214 0.0
H2283 H 0.51874 0.10257 0.45098 0.0
H2284 H 0.4919 0.13397 0.42001 0.0
H2285 H 0.38386 0.07673 0.38525 0.0
H2286 H 0.29625 0.16228 0.3071 0.0
H2287 H 0.32659 0.13517 0.33796 0.0
H2288 H 0.43913 0.1912 0.35583 0.0
C2289 C 0.4801 0.10876 0.42206 0.0
C2290 C 0.39701 0.10166 0.37923 0.0
C2291 C 0.49626 0.09027 0.44014 0.0
C2292 C 0.32156 0.17494 0.31025 0.0
C2293 C 0.33966 0.15866 0.32821 0.0
C2294 C 0.42622 0.16618 0.36175 0.0
C2295 C 0.44915 0.09541 0.40779 0.0
C2296 C 0.43003 0.11536 0.38862 0.0
C2297 C 0.37328 0.17156 0.33324 0.0
C2298 C 0.39314 0.15237 0.35244 0.0
H2299 H 0.44035 0.01828 0.43397 0.0
H2300 H 0.41348 0.04897 0.4033 0.0
H2301 H 0.46863 0.1616 0.38472 0.0
H2302 H 0.38112 0.24212 0.28967 0.0
H2303 H 0.41214 0.21508 0.32076 0.0
C2304 C 0.62872 0.59329 0.02657 0.0
C2305 C 0.60671 0.56454 0.03768 0.0
C2306 C 0.65112 0.61443 0.04172 0.0
C2307 C 0.69104 0.62237 0.10636 0.0
H2308 H 0.67479 0.69602 0.09419 0.0
C2309 C 0.71398 0.68107 0.18686 0.0
C2310 C 0.72679 0.71392 0.18282 0.0
C2311 C 0.70414 0.66619 0.16661 0.0
C2312 C 0.68021 0.67601 0.09758 0.0
H2313 H 0.59152 0.53435 0.07291 0.0
H2314 H 0.63161 0.57038 0.09945 0.0
H2315 H 0.65231 0.66338 0.06237 0.0
H2316 H 0.73819 0.75698 0.15423 0.0
H2317 H 0.72102 0.73076 0.11862 0.0
H2318 H 0.7182 0.63426 0.14174 0.0
C2319 C 0.63151 0.5768 0.07919 0.0
C2320 C 0.66742 0.65743 0.07934 0.0
C2321 C 0.60869 0.55618 0.06407 0.0
C2322 C 0.72835 0.73159 0.15792 0.0
C2323 C 0.71861 0.71661 0.13754 0.0
C2324 C 0.70409 0.64108 0.12441 0.0
C2325 C 0.65219 0.60648 0.06809 0.0
C2326 C 0.67182 0.62987 0.08407 0.0
C2327 C 0.70706 0.68375 0.1418 0.0
C2328 C 0.69769 0.66733 0.12071 0.0
H2329 H 0.62712 0.60032 0.00616 0.0
H2330 H 0.66679 0.63733 0.03284 0.0
H2331 H 0.69477 0.60124 0.11029 0.0
H2332 H 0.71204 0.66673 0.20576 0.0
H2333 H 0.69435 0.6408 0.17046 0.0
C2334 C 0.24105 0.17154 0.70409 0.0
C2335 C 0.24695 0.20316 0.70076 0.0
C2336 C 0.22923 0.15708 0.68329 0.0
C2337 C 0.1856 0.16479 0.61841 0.0
H2338 H 0.2089 0.10085 0.61472 0.0
C2339 C 0.10516 0.06904 0.56333 0.0
C2340 C 0.11756 0.05952 0.54924 0.0
C2341 C 0.12492 0.09063 0.57852 0.0
C2342 C 0.20265 0.1191 0.61526 0.0
H2343 H 0.2458 0.24462 0.67288 0.0
H2344 H 0.22567 0.21958 0.63681 0.0
H2345 H 0.23681 0.13086 0.64836 0.0
H2346 H 0.16031 0.06544 0.53955 0.0
H2347 H 0.19533 0.10346 0.56669 0.0
H2348 H 0.15133 0.15292 0.58554 0.0
C2349 C 0.22951 0.20572 0.65548 0.0
C2350 C 0.21825 0.13592 0.63469 0.0
C2351 C 0.24101 0.22006 0.67624 0.0
C2352 C 0.15021 0.07258 0.55016 0.0
C2353 C 0.17017 0.0941 0.56573 0.0
C2354 C 0.17018 0.14813 0.59901 0.0
C2355 C 0.22334 0.17404 0.65876 0.0
C2356 C 0.20931 0.15838 0.63682 0.0
C2357 C 0.15758 0.10319 0.58007 0.0
C2358 C 0.17789 0.1245 0.59771 0.0
H2359 H 0.24546 0.15791 0.72275 0.0
H2360 H 0.2242 0.13247 0.68651 0.0
H2361 H 0.17794 0.18173 0.61957 0.0
H2362 H 0.08009 0.05954 0.56292 0.0
H2363 H 0.11458 0.09682 0.58966 0.0
C2364 C 0.63553 0.26355 0.33159 0.0
C2365 C 0.64629 0.24352 0.35152 0.0
C2366 C 0.6234 0.28179 0.3365 0.0
C2367 C 0.62021 0.31367 0.38735 0.0
H2368 H 0.54312 0.31543 0.34455 0.0
C2369 C 0.54332 0.35927 0.41293 0.0
C2370 C 0.52724 0.37451 0.39294 0.0
C2371 C 0.56033 0.3457 0.40793 0.0
C2372 C 0.56492 0.31569 0.3565 0.0
H2373 H 0.65384 0.22804 0.3924 0.0
H2374 H 0.63242 0.2595 0.40089 0.0
H2375 H 0.56839 0.288 0.33547 0.0
H2376 H 0.51809 0.38915 0.35211 0.0
H2377 H 0.54804 0.36615 0.34342 0.0
H2378 H 0.61664 0.34133 0.40844 0.0
C2379 C 0.63343 0.26121 0.38145 0.0
C2380 C 0.57943 0.29987 0.35127 0.0
C2381 C 0.64542 0.24289 0.37653 0.0
C2382 C 0.5297 0.37704 0.36793 0.0
C2383 C 0.5468 0.3637 0.36295 0.0
C2384 C 0.60575 0.32965 0.39254 0.0
C2385 C 0.62187 0.2806 0.36148 0.0
C2386 C 0.6072 0.29854 0.36666 0.0
C2387 C 0.56182 0.34724 0.38282 0.0
C2388 C 0.57783 0.33082 0.37721 0.0
H2389 H 0.63564 0.26449 0.3121 0.0
H2390 H 0.61504 0.29673 0.32068 0.0
H2391 H 0.64177 0.31341 0.39945 0.0
H2392 H 0.54172 0.35675 0.43239 0.0
H2393 H 0.57136 0.33303 0.42374 0.0
C2394 C 0.43788 0.92085 0.03381 0.0
C2395 C 0.47009 0.94045 0.03744 0.0
C2396 C 0.4227 0.90119 0.05445 0.0
C2397 C 0.43481 0.86548 0.12339 0.0
H2398 H 0.35224 0.86134 0.11908 0.0
C2399 C 0.36403 0.80833 0.20839 0.0
C2400 C 0.33125 0.79244 0.20234 0.0
C2401 C 0.38261 0.82445 0.18908 0.0
C2402 C 0.37505 0.86174 0.12057 0.0
H2403 H 0.51162 0.95516 0.06579 0.0
H2404 H 0.48513 0.92067 0.10203 0.0
H2405 H 0.38135 0.89256 0.08438 0.0
H2406 H 0.29224 0.78114 0.17156 0.0
H2407 H 0.32434 0.80794 0.13813 0.0
H2408 H 0.42827 0.83462 0.15991 0.0
C2409 C 0.47166 0.92004 0.0831 0.0
C2410 C 0.39186 0.87977 0.10054 0.0
C2411 C 0.4869 0.9398 0.06233 0.0
C2412 C 0.31752 0.79265 0.17678 0.0
C2413 C 0.33596 0.80842 0.1576 0.0
C2414 C 0.41787 0.8473 0.14356 0.0
C2415 C 0.43916 0.90085 0.07947 0.0
C2416 C 0.42187 0.88176 0.10145 0.0
C2417 C 0.36871 0.82528 0.16333 0.0
C2418 C 0.38756 0.84493 0.14232 0.0
H2419 H 0.42426 0.92098 0.01489 0.0
H2420 H 0.39784 0.88642 0.05075 0.0
H2421 H 0.45777 0.86629 0.12478 0.0
H2422 H 0.37508 0.8094 0.22792 0.0
H2423 H 0.40766 0.83732 0.19429 0.0
C2424 C 0.94565 0.53694 0.93327 0.0
C2425 C 0.97718 0.55023 0.94618 0.0
C2426 C 0.92932 0.55503 0.91533 0.0
C2427 C 0.93723 0.64135 0.87863 0.0
H2428 H 0.84737 0.59951 0.85945 0.0
C2429 C 0.86124 0.71131 0.80028 0.0
C2430 C 0.8277 0.69893 0.79672 0.0
C2431 C 0.87969 0.69512 0.81836 0.0
C2432 C 0.87242 0.61252 0.86421 0.0
H2433 H 1.01376 0.59639 0.94972 0.0
H2434 H 0.98659 0.62739 0.91862 0.0
H2435 H 0.87661 0.57043 0.8884 0.0
H2436 H 0.78915 0.65628 0.81013 0.0
H2437 H 0.8198 0.62935 0.84082 0.0
H2438 H 0.93277 0.68358 0.85434 0.0
C2439 C 0.97422 0.60212 0.92177 0.0
C2440 C 0.88996 0.59505 0.88135 0.0
C2441 C 0.99056 0.58382 0.93994 0.0
C2442 C 0.81449 0.66844 0.81224 0.0
C2443 C 0.83274 0.65224 0.83013 0.0
C2444 C 0.91964 0.65884 0.8613 0.0
C2445 C 0.94251 0.58861 0.90879 0.0
C2446 C 0.9233 0.60847 0.88953 0.0
C2447 C 0.8663 0.66447 0.83398 0.0
C2448 C 0.88625 0.64534 0.85322 0.0
H2449 H 0.93281 0.51168 0.93755 0.0
H2450 H 0.90559 0.54199 0.90677 0.0
H2451 H 0.96236 0.65411 0.88331 0.0
H2452 H 0.87359 0.73353 0.78842 0.0
H2453 H 0.9049 0.70668 0.81934 0.0
C2454 C 0.50741 0.46247 0.06275 0.0
C2455 C 0.49267 0.45191 0.03993 0.0
C2456 C 0.49391 0.44637 0.08467 0.0
C2457 C 0.46553 0.39791 0.13075 0.0
H2458 H 0.37685 0.37815 0.1217 0.0
C2459 C 0.3816 0.31225 0.20255 0.0
C2460 C 0.36076 0.32203 0.2067 0.0
C2461 C 0.40158 0.33093 0.18474 0.0
C2462 C 0.40167 0.38379 0.12452 0.0
H2463 H 0.45398 0.41509 0.02239 0.0
H2464 H 0.4295 0.3875 0.06051 0.0
H2465 H 0.40384 0.40259 0.08506 0.0
H2466 H 0.34523 0.35947 0.19631 0.0
H2467 H 0.37977 0.39193 0.1646 0.0
H2468 H 0.46291 0.37805 0.17023 0.0
C2469 C 0.4513 0.40836 0.06141 0.0
C2470 C 0.41704 0.39745 0.10354 0.0
C2471 C 0.46519 0.42411 0.03964 0.0
C2472 C 0.36128 0.35152 0.19361 0.0
C2473 C 0.38082 0.36994 0.17538 0.0
C2474 C 0.44995 0.3836 0.15171 0.0
C2475 C 0.46527 0.41964 0.08403 0.0
C2476 C 0.4491 0.40465 0.10641 0.0
C2477 C 0.40062 0.35944 0.17042 0.0
C2478 C 0.41789 0.37647 0.14876 0.0
H2479 H 0.52906 0.48345 0.06359 0.0
H2480 H 0.50516 0.45562 0.10181 0.0
H2481 H 0.49024 0.40315 0.13347 0.0
H2482 H 0.38165 0.28959 0.21243 0.0
H2483 H 0.41649 0.32225 0.18116 0.0
C2484 C 0.35761 0.57312 0.95395 0.0
C2485 C 0.38063 0.59372 0.96937 0.0
C2486 C 0.33894 0.58377 0.93309 0.0
C2487 C 0.32206 0.65404 0.89865 0.0
H2488 H 0.32226 0.62884 0.83968 0.0
C2489 C 0.32413 0.73309 0.79959 0.0
C2490 C 0.30607 0.71912 0.77879 0.0
C2491 C 0.32651 0.71453 0.82373 0.0
C2492 C 0.32143 0.63578 0.85592 0.0
H2493 H 0.40081 0.64067 0.97646 0.0
H2494 H 0.36914 0.65966 0.93974 0.0
H2495 H 0.33528 0.6007 0.88164 0.0
H2496 H 0.279 0.67527 0.766 0.0
H2497 H 0.28294 0.64246 0.80837 0.0
H2498 H 0.31074 0.69076 0.87277 0.0
C2499 C 0.36472 0.63512 0.94384 0.0
C2500 C 0.32873 0.61949 0.88008 0.0
C2501 C 0.383 0.62431 0.9649 0.0
C2502 C 0.29205 0.68639 0.78209 0.0
C2503 C 0.29458 0.66773 0.80622 0.0
C2504 C 0.31526 0.67065 0.87447 0.0
C2505 C 0.34347 0.61537 0.92704 0.0
C2506 C 0.32992 0.62892 0.90176 0.0
C2507 C 0.31165 0.68164 0.82734 0.0
C2508 C 0.31546 0.66206 0.85286 0.0
H2509 H 0.35523 0.54929 0.95727 0.0
H2510 H 0.3222 0.56773 0.92092 0.0
H2511 H 0.32226 0.66164 0.91491 0.0
H2512 H 0.33682 0.75826 0.79724 0.0
H2513 H 0.34075 0.72597 0.83945 0.0
C2514 C 0.09195 0.52292 0.58281 0.0
C2515 C 0.09033 0.53907 0.55744 0.0
C2516 C 0.11083 0.53931 0.60211 0.0
C2517 C 0.17683 0.61321 0.6145 0.0
H2518 H 0.13159 0.60927 0.6632 0.0
C2519 C 0.21765 0.71566 0.66197 0.0
C2520 C 0.21699 0.70928 0.68796 0.0
C2521 C 0.20342 0.69137 0.64877 0.0
C2522 C 0.14473 0.61024 0.65006 0.0
H2523 H 0.1085 0.58428 0.53213 0.0
H2524 H 0.14155 0.61266 0.56563 0.0
H2525 H 0.10671 0.5709 0.6359 0.0
H2526 H 0.19941 0.67257 0.72018 0.0
H2527 H 0.17468 0.63012 0.69708 0.0
H2528 H 0.21451 0.65298 0.62805 0.0
C2529 C 0.12817 0.58753 0.57069 0.0
C2530 C 0.13056 0.58824 0.63455 0.0
C2531 C 0.10899 0.57135 0.55154 0.0
C2532 C 0.2005 0.67828 0.70021 0.0
C2533 C 0.1863 0.65393 0.68699 0.0
C2534 C 0.19104 0.63505 0.63006 0.0
C2535 C 0.12878 0.57181 0.59614 0.0
C2536 C 0.14611 0.59029 0.61606 0.0
C2537 C 0.18826 0.66019 0.66128 0.0
C2538 C 0.17469 0.63448 0.64733 0.0
H2539 H 0.07778 0.49795 0.58777 0.0
H2540 H 0.11103 0.52677 0.62166 0.0
H2541 H 0.18935 0.61498 0.60053 0.0
H2542 H 0.22977 0.73932 0.65188 0.0
H2543 H 0.20452 0.697 0.62876 0.0
C2544 C 0.32677 0.29508 0.69266 0.0
C2545 C 0.34797 0.30221 0.71497 0.0
C2546 C 0.33538 0.31166 0.66913 0.0
C2547 C 0.40387 0.35334 0.63833 0.0
H2548 H 0.34803 0.38031 0.58238 0.0
C2549 C 0.43171 0.39679 0.53776 0.0
C2550 C 0.43161 0.42634 0.52644 0.0
C2551 C 0.41723 0.3792 0.559 0.0
C2552 C 0.36378 0.37282 0.59785 0.0
H2553 H 0.3952 0.33141 0.73041 0.0
H2554 H 0.41066 0.36072 0.68883 0.0
H2555 H 0.33335 0.35832 0.62459 0.0
H2556 H 0.41435 0.45976 0.52626 0.0
H2557 H 0.38914 0.42923 0.56342 0.0
H2558 H 0.43454 0.36827 0.61179 0.0
C2559 C 0.38709 0.34255 0.68972 0.0
C2560 C 0.35541 0.36027 0.62191 0.0
C2561 C 0.37829 0.32598 0.71339 0.0
C2562 C 0.41485 0.43706 0.53508 0.0
C2563 C 0.40028 0.4195 0.55616 0.0
C2564 C 0.41219 0.36579 0.61428 0.0
C2565 C 0.36572 0.33526 0.66741 0.0
C2566 C 0.37541 0.35044 0.64234 0.0
C2567 C 0.40241 0.39101 0.56891 0.0
C2568 C 0.39222 0.37562 0.59382 0.0
H2569 H 0.30384 0.27602 0.69319 0.0
H2570 H 0.31868 0.30507 0.65226 0.0
H2571 H 0.41947 0.34551 0.65371 0.0
H2572 H 0.44478 0.38837 0.53131 0.0
H2573 H 0.4188 0.35706 0.56835 0.0
C2574 C 0.21922 0.72711 0.17119 0.0
C2575 C 0.23228 0.70909 0.19119 0.0
C2576 C 0.20395 0.71687 0.14829 0.0
C2577 C 0.19721 0.6602 0.1129 0.0
H2578 H 0.1221 0.67101 0.07488 0.0
C2579 C 0.08018 0.59374 0.04219 0.0
C2580 C 0.09312 0.58338 0.02914 0.0
C2581 C 0.09945 0.61576 0.05729 0.0
C2582 C 0.14296 0.66758 0.08533 0.0
H2583 H 0.23885 0.66596 0.20326 0.0
H2584 H 0.21096 0.64732 0.1645 0.0
H2585 H 0.1501 0.69466 0.11178 0.0
H2586 H 0.13672 0.58967 0.02075 0.0
H2587 H 0.17033 0.62955 0.04583 0.0
H2588 H 0.18893 0.63109 0.08801 0.0
C2589 C 0.21338 0.66991 0.16574 0.0
C2590 C 0.1593 0.68159 0.10634 0.0
C2591 C 0.22899 0.68036 0.18823 0.0
C2592 C 0.12585 0.59712 0.03036 0.0
C2593 C 0.14519 0.61974 0.04512 0.0
C2594 C 0.18058 0.6457 0.0923 0.0
C2595 C 0.20131 0.68831 0.14519 0.0
C2596 C 0.18608 0.6772 0.12089 0.0
C2597 C 0.13229 0.62861 0.05948 0.0
C2598 C 0.15267 0.64838 0.07864 0.0
H2599 H 0.22209 0.7497 0.17274 0.0
H2600 H 0.19511 0.73177 0.13284 0.0
H2601 H 0.21836 0.65716 0.12309 0.0
H2602 H 0.05507 0.58393 0.04166 0.0
H2603 H 0.08841 0.62138 0.06824 0.0
C2604 C 0.73795 0.43825 0.65104 0.0
C2605 C 0.73603 0.42288 0.67648 0.0
C2606 C 0.71512 0.44876 0.63639 0.0
C2607 C 0.63246 0.42801 0.63039 0.0
H2608 H 0.65036 0.5047 0.57911 0.0
C2609 C 0.53536 0.45127 0.55163 0.0
C2610 C 0.54375 0.4639 0.52744 0.0
C2611 C 0.55837 0.45042 0.57298 0.0
C2612 C 0.64496 0.4832 0.59335 0.0
H2613 H 0.70973 0.40834 0.70692 0.0
H2614 H 0.6693 0.42599 0.68098 0.0
H2615 H 0.69295 0.49723 0.61159 0.0
H2616 H 0.58133 0.48281 0.50587 0.0
H2617 H 0.62148 0.48066 0.54291 0.0
H2618 H 0.58482 0.4132 0.61143 0.0
C2619 C 0.68846 0.42971 0.67247 0.0
C2620 C 0.66932 0.479 0.61195 0.0
C2621 C 0.71149 0.41947 0.68722 0.0
C2622 C 0.57483 0.47415 0.52457 0.0
C2623 C 0.5977 0.47297 0.54576 0.0
C2624 C 0.60811 0.43213 0.61168 0.0
C2625 C 0.68978 0.44392 0.6468 0.0
C2626 C 0.66345 0.45094 0.63013 0.0
C2627 C 0.58983 0.46138 0.57023 0.0
C2628 C 0.61433 0.4593 0.59245 0.0
H2629 H 0.75626 0.44091 0.64206 0.0
H2630 H 0.71646 0.45924 0.61654 0.0
H2631 H 0.62734 0.40603 0.64409 0.0
H2632 H 0.51117 0.44243 0.554 0.0
H2633 H 0.55157 0.44128 0.59157 0.0
C2634 C 0.83244 0.59443 0.21108 0.0
C2635 C 0.84456 0.62598 0.21302 0.0
C2636 C 0.84387 0.58554 0.19578 0.0
C2637 C 0.91432 0.61063 0.16793 0.0
H2638 H 0.85981 0.54351 0.13154 0.0
C2639 C 0.96095 0.54046 0.13604 0.0
C2640 C 0.94683 0.53039 0.11289 0.0
C2641 C 0.94892 0.55548 0.14526 0.0
C2642 C 0.8754 0.56253 0.14133 0.0
H2643 H 0.87779 0.67305 0.19964 0.0
H2644 H 0.89782 0.65757 0.1728 0.0
H2645 H 0.8371 0.56344 0.15225 0.0
H2646 H 0.90923 0.52909 0.08101 0.0
H2647 H 0.88813 0.55541 0.09709 0.0
H2648 H 0.95264 0.60949 0.15723 0.0
C2649 C 0.87952 0.63963 0.18335 0.0
C2650 C 0.86237 0.57377 0.15347 0.0
C2651 C 0.86782 0.64858 0.19854 0.0
C2652 C 0.9208 0.53664 0.09884 0.0
C2653 C 0.90852 0.55145 0.1082 0.0
C2654 C 0.92736 0.59923 0.15594 0.0
C2655 C 0.86794 0.60789 0.18198 0.0
C2656 C 0.88165 0.59771 0.16724 0.0
C2657 C 0.92221 0.56078 0.13171 0.0
C2658 C 0.90814 0.57472 0.14273 0.0
H2659 H 0.81431 0.57639 0.22176 0.0
H2660 H 0.83449 0.56088 0.19547 0.0
H2661 H 0.92999 0.62889 0.17846 0.0
H2662 H 0.9812 0.53631 0.14729 0.0
H2663 H 0.96 0.562 0.1635 0.0
C2664 C 0.92113 0.59118 0.5416 0.0
C2665 C 0.94979 0.61483 0.53473 0.0
C2666 C 0.90469 0.59628 0.55555 0.0
C2667 C 0.9003 0.66199 0.573 0.0
H2668 H 0.8457 0.59413 0.61806 0.0
C2669 C 0.83695 0.68355 0.63445 0.0
C2670 C 0.80468 0.66414 0.63353 0.0
C2671 C 0.85588 0.67682 0.62435 0.0
C2672 C 0.86079 0.61334 0.60547 0.0
H2673 H 0.98451 0.6617 0.53832 0.0
H2674 H 0.95687 0.67017 0.56343 0.0
H2675 H 0.87665 0.58357 0.59745 0.0
H2676 H 0.76735 0.62174 0.62221 0.0
H2677 H 0.80038 0.60979 0.60498 0.0
H2678 H 0.88468 0.69175 0.5814 0.0
C2679 C 0.94617 0.64808 0.55729 0.0
C2680 C 0.87849 0.60727 0.59349 0.0
C2681 C 0.96227 0.64315 0.54304 0.0
C2682 C 0.79207 0.6373 0.62305 0.0
C2683 C 0.81105 0.63033 0.61332 0.0
C2684 C 0.88295 0.66809 0.58524 0.0
C2685 C 0.91673 0.62504 0.56332 0.0
C2686 C 0.89842 0.63147 0.57689 0.0
C2687 C 0.84312 0.65023 0.61348 0.0
C2688 C 0.86278 0.64383 0.6015 0.0
H2689 H 0.91078 0.56921 0.5353 0.0
H2690 H 0.88203 0.57798 0.55945 0.0
H2691 H 0.91465 0.68125 0.55998 0.0
H2692 H 0.84737 0.70446 0.64227 0.0
H2693 H 0.88054 0.69252 0.62496 0.0
C2694 C 0.39345 0.46573 0.45266 0.0
C2695 C 0.42034 0.49194 0.44498 0.0
C2696 C 0.36399 0.46042 0.43741 0.0
C2697 C 0.3177 0.49828 0.40331 0.0
H2698 H 0.28385 0.45878 0.34511 0.0
C2699 C 0.2647 0.5358 0.29808 0.0
C2700 C 0.24499 0.5471 0.30201 0.0
C2701 C 0.27426 0.51472 0.31736 0.0
C2702 C 0.29266 0.46948 0.36152 0.0
H2703 H 0.43763 0.53426 0.41672 0.0
H2704 H 0.38617 0.52494 0.38994 0.0
H2705 H 0.32596 0.44905 0.37714 0.0
H2706 H 0.21715 0.54271 0.32818 0.0
H2707 H 0.23369 0.50564 0.36184 0.0
H2708 H 0.28632 0.5206 0.38715 0.0
C2709 C 0.38807 0.50793 0.40717 0.0
C2710 C 0.3167 0.46387 0.37979 0.0
C2711 C 0.4174 0.51313 0.42231 0.0
C2712 C 0.23241 0.53445 0.32461 0.0
C2713 C 0.24202 0.51336 0.34394 0.0
C2714 C 0.29365 0.5038 0.38519 0.0
C2715 C 0.3612 0.48175 0.41473 0.0
C2716 C 0.33033 0.47948 0.40008 0.0
C2717 C 0.26434 0.50461 0.34099 0.0
C2718 C 0.28206 0.49083 0.36338 0.0
H2719 H 0.39512 0.44981 0.47065 0.0
H2720 H 0.34335 0.44045 0.44372 0.0
H2721 H 0.32813 0.51067 0.41881 0.0
H2722 H 0.27434 0.54482 0.28068 0.0
H2723 H 0.29158 0.50862 0.31445 0.0
C2724 C 0.19281 0.35067 0.80295 0.0
C2725 C 0.21402 0.37257 0.7865 0.0
C2726 C 0.18174 0.36078 0.81771 0.0
C2727 C 0.14639 0.39083 0.83128 0.0
H2728 H 0.20145 0.4619 0.86326 0.0
C2729 C 0.10092 0.46483 0.8594 0.0
C2730 C 0.11552 0.47605 0.88203 0.0
C2731 C 0.11261 0.44892 0.85086 0.0
C2732 C 0.18575 0.44181 0.8547 0.0
H2733 H 0.2413 0.42217 0.77362 0.0
H2734 H 0.22238 0.43972 0.79941 0.0
H2735 H 0.22353 0.44037 0.84342 0.0
H2736 H 0.15359 0.47865 0.91369 0.0
H2737 H 0.1742 0.45093 0.89871 0.0
H2738 H 0.10854 0.39265 0.84215 0.0
C2739 C 0.21412 0.41475 0.80091 0.0
C2740 C 0.1984 0.42963 0.8431 0.0
C2741 C 0.22483 0.40469 0.78597 0.0
C2742 C 0.1417 0.4702 0.89625 0.0
C2743 C 0.15366 0.45456 0.88754 0.0
C2744 C 0.13371 0.40322 0.84266 0.0
C2745 C 0.19202 0.39301 0.81668 0.0
C2746 C 0.17886 0.40422 0.83095 0.0
C2747 C 0.13945 0.44398 0.86458 0.0
C2748 C 0.15316 0.42913 0.85426 0.0
H2749 H 0.18391 0.32578 0.80369 0.0
H2750 H 0.16492 0.34337 0.8298 0.0
H2751 H 0.13059 0.37142 0.82197 0.0
H2752 H 0.08056 0.4687 0.84807 0.0
H2753 H 0.10118 0.44139 0.83302 0.0
C2754 C 0.22662 0.32124 0.35943 0.0
C2755 C 0.25802 0.34237 0.3579 0.0
C2756 C 0.20802 0.32749 0.37027 0.0
C2757 C 0.20121 0.39053 0.38843 0.0
H2758 H 0.1535 0.32206 0.43747 0.0
C2759 C 0.14058 0.40875 0.45476 0.0
C2760 C 0.11307 0.38376 0.46265 0.0
C2761 C 0.15741 0.40493 0.44032 0.0
C2762 C 0.1661 0.34141 0.4235 0.0
H2763 H 0.29392 0.38746 0.3651 0.0
H2764 H 0.2616 0.39833 0.38412 0.0
H2765 H 0.18336 0.31329 0.41475 0.0
H2766 H 0.08073 0.33578 0.46035 0.0
H2767 H 0.10903 0.32941 0.43448 0.0
H2768 H 0.18367 0.41861 0.39695 0.0
C2769 C 0.25134 0.37687 0.37708 0.0
C2770 C 0.18339 0.33632 0.41048 0.0
C2771 C 0.26998 0.37049 0.36645 0.0
C2772 C 0.1021 0.35534 0.45489 0.0
C2773 C 0.11858 0.35165 0.44018 0.0
C2774 C 0.18355 0.39555 0.40125 0.0
C2775 C 0.22027 0.35519 0.37957 0.0
C2776 C 0.20121 0.36077 0.39279 0.0
C2777 C 0.14691 0.37611 0.43311 0.0
C2778 C 0.16568 0.37104 0.41903 0.0
H2779 H 0.21676 0.29939 0.35302 0.0
H2780 H 0.18406 0.31045 0.37159 0.0
H2781 H 0.21455 0.40988 0.37483 0.0
H2782 H 0.14973 0.43088 0.46059 0.0
H2783 H 0.17919 0.4243 0.43555 0.0
loop_
_geom_bond_atom_site_label_1
_geom_bond_atom_site_label_2
_geom_bond_distance
_geom_bond_site_symmetry_2
_ccdc_geom_bond_type
Eu0 N31 2.657 . S
Eu0 N38 2.609 . S
Eu0 O44 2.558 . S
Eu0 O45 2.612 1_656 S
Eu0 O47 2.339 1_665 S
Eu0 O48 2.563 1_656 S
Eu0 O49 2.390 1_655 S
Eu0 O51 2.380 1_565 S
Eu0 O52 2.432 1_556 S
Eu0 C64 2.848 . S
C1 C4 1.429 . S
C1 C5 1.411 . S
C1 N8 1.377 . S
C2 C4 1.420 . S
C2 C6 1.423 . S
C2 C14 1.392 1_545 S
C3 C5 1.420 . S
C3 C6 1.351 . S
C3 H26 0.931 . S
C4 C1 1.429 . S
C4 C2 1.420 . S
C4 N12 1.362 . S
C5 C1 1.411 . S
C5 C3 1.420 . S
C5 C10 1.395 . S
C6 C2 1.423 . S
C6 C3 1.351 . S
C6 H18 0.930 . S
C7 C9 1.400 . S
C7 C10 1.386 . S
C7 H19 0.930 . S
N8 C1 1.377 . S
N8 C9 1.321 . S
N8 Eu11 2.609 . S
C9 C7 1.400 . S
C9 N8 1.321 . S
C9 H16 0.930 . S
C10 C5 1.395 . S
C10 C7 1.386 . S
C10 H29 0.930 . S
Eu11 N8 2.609 . S
Eu11 N12 2.657 . S
Eu11 O45 2.380 1_545 S
Eu11 O46 2.432 1_554 S
Eu11 O50 2.558 . S
Eu11 O51 2.612 1_454 S
Eu11 O53 2.339 1_445 S
Eu11 O54 2.563 1_454 S
Eu11 O55 2.410 1_455 S
Eu11 C75 2.848 . S
N12 C4 1.362 . S
N12 Eu11 2.657 . S
N12 C13 1.334 1_545 S
C13 N12 1.334 1_565 S
C13 C15 1.413 . S
C13 H20 0.929 . S
C14 C2 1.392 1_565 S
C14 C15 1.367 . S
C14 H22 0.930 . S
C15 C13 1.413 . S
C15 C14 1.367 . S
C15 H17 0.930 . S
H16 C9 0.930 . S
H17 C15 0.930 . S
H18 C6 0.930 . S
H19 C7 0.930 . S
H20 C13 0.929 . S
H21 C35 0.930 . S
H22 C14 0.930 . S
H23 C41 0.930 . S
H24 C32 0.929 . S
H25 C39 0.930 . S
H26 C3 0.931 . S
H27 C33 0.930 . S
H28 C66 0.930 . S
H29 C10 0.930 . S
H30 C65 0.931 . S
N31 Eu0 2.657 . S
N31 C32 1.334 1_565 S
N31 C36 1.362 . S
C32 H24 0.929 . S
C32 N31 1.334 1_545 S
C32 C35 1.413 . S
C33 H27 0.930 . S
C33 C34 1.392 1_545 S
C33 C35 1.367 . S
C34 C33 1.392 1_565 S
C34 C36 1.420 . S
C34 C66 1.423 . S
C35 H21 0.930 . S
C35 C32 1.413 . S
C35 C33 1.367 . S
C36 N31 1.362 . S
C36 C34 1.420 . S
C36 C40 1.429 . S
H37 C42 0.930 . S
N38 Eu0 2.609 . S
N38 C40 1.377 . S
N38 C41 1.321 . S
C39 H25 0.930 . S
C39 C41 1.400 . S
C39 C42 1.386 . S
C40 C36 1.429 . S
C40 N38 1.377 . S
C40 C43 1.411 . S
C41 H23 0.930 . S
C41 N38 1.321 . S
C41 C39 1.400 . S
C42 H37 0.930 . S
C42 C39 1.386 . S
C42 C43 1.395 . S
C43 C40 1.411 . S
C43 C42 1.395 . S
C43 C65 1.420 . S
O44 Eu0 2.558 . S
O44 C64 1.257 . S
O45 Eu0 2.612 1_454 S
O45 Eu11 2.380 1_565 S
O45 C56 1.276 . S
O46 Eu11 2.432 1_556 S
O46 C63 1.264 . S
O47 Eu0 2.339 1_445 S
O47 C63 1.254 . S
O48 Eu0 2.563 1_454 S
O48 C56 1.235 . S
O49 Eu0 2.390 1_455 S
O49 C64 1.249 1_455 S
O50 Eu11 2.558 . S
O50 C75 1.257 . S
O51 Eu0 2.380 1_545 S
O51 Eu11 2.612 1_656 S
O51 C67 1.276 . S
O52 Eu0 2.432 1_554 S
O52 C74 1.264 . S
O53 Eu11 2.339 1_665 S
O53 C74 1.254 . S
O54 Eu11 2.563 1_656 S
O54 C67 1.235 . S
O55 Eu11 2.410 1_655 S
O55 C75 1.249 1_655 S
C56 O45 1.276 . S
C56 O48 1.235 . S
C57 C59 1.393 1_655 S
C57 C61 1.395 . S
C57 C64 1.492 . S
C58 C59 1.392 . S
C58 C60 1.386 . S
C59 C57 1.393 1_455 S
C59 C58 1.392 . S
C59 H76 0.930 . S
C60 C58 1.386 . S
C60 C62 1.395 1_455 S
C60 H77 0.930 . S
C61 C57 1.395 . S
C61 C62 1.379 . S
C61 H78 0.930 . S
C62 C60 1.395 1_655 S
C62 C61 1.379 . S
C62 H79 0.930 . S
C63 O46 1.264 . S
C63 O47 1.254 . S
C64 Eu0 2.848 . S
C64 O44 1.257 . S
C64 O49 1.249 1_655 S
C64 C57 1.492 . S
C65 H30 0.931 . S
C65 C43 1.420 . S
C65 C66 1.351 . S
C66 H28 0.930 . S
C66 C34 1.423 . S
C66 C65 1.351 . S
C67 O51 1.276 . S
C67 O54 1.235 . S
C68 C69 1.393 1_455 S
C68 C72 1.395 . S
C68 C75 1.492 . S
C69 C68 1.393 1_655 S
C69 C70 1.392 . S
C69 H80 0.930 . S
C70 C69 1.392 . S
C70 C71 1.386 . S
C71 C70 1.386 . S
C71 C73 1.395 1_655 S
C71 H81 0.930 . S
C72 C68 1.395 . S
C72 C73 1.379 . S
C72 H82 0.930 . S
C73 C71 1.395 1_455 S
C73 C72 1.379 . S
C73 H83 0.930 . S
C74 O52 1.264 . S
C74 O53 1.254 . S
C75 Eu11 2.848 . S
C75 O50 1.257 . S
C75 O55 1.249 1_455 S
C75 C68 1.492 . S
H76 C59 0.930 . S
H77 C60 0.930 . S
H78 C61 0.930 . S
H79 C62 0.930 . S
H80 C69 0.930 . S
H81 C71 0.930 . S
H82 C72 0.930 . S
H83 C73 0.930 . S
Eu84 N115 2.657 . S
Eu84 N122 2.609 . S
Eu84 O128 2.558 . S
Eu84 O129 2.612 . S
Eu84 O131 2.339 . S
Eu84 O132 2.563 . S
Eu84 O133 2.419 . S
Eu84 O135 2.380 . S
Eu84 O136 2.432 . S
Eu84 C148 2.848 . S
C85 C88 1.429 . S
C85 C89 1.411 . S
C85 N92 1.377 . S
C86 C88 1.420 . S
C86 C90 1.423 . S
C86 C98 1.392 . S
C87 C89 1.420 . S
C87 C90 1.351 . S
C87 H110 0.931 . S
C88 C85 1.429 . S
C88 C86 1.420 . S
C88 N96 1.362 . S
C89 C85 1.411 . S
C89 C87 1.420 . S
C89 C94 1.395 . S
C90 C86 1.423 . S
C90 C87 1.351 . S
C90 H102 0.930 . S
C91 C93 1.400 . S
C91 C94 1.386 . S
C91 H103 0.930 . S
N92 C85 1.377 . S
N92 C93 1.321 . S
N92 Eu95 2.609 . S
C93 C91 1.400 . S
C93 N92 1.321 . S
C93 H100 0.930 . S
C94 C89 1.395 . S
C94 C91 1.386 . S
C94 H113 0.930 . S
Eu95 N92 2.609 . S
Eu95 N96 2.657 . S
Eu95 O129 2.380 . S
Eu95 O130 2.432 . S
Eu95 O134 2.558 . S
Eu95 O135 2.612 . S
Eu95 O137 2.339 . S
Eu95 O138 2.563 . S
Eu95 O139 2.419 . S
Eu95 C159 2.848 . S
N96 C88 1.362 . S
N96 Eu95 2.657 . S
N96 C97 1.334 . S
C97 N96 1.334 . S
C97 C99 1.413 . S
C97 H104 0.929 . S
C98 C86 1.392 . S
C98 C99 1.367 . S
C98 H106 0.930 . S
C99 C97 1.413 . S
C99 C98 1.367 . S
C99 H101 0.930 . S
H100 C93 0.930 . S
H101 C99 0.930 . S
H102 C90 0.930 . S
H103 C91 0.930 . S
H104 C97 0.929 . S
H105 C119 0.930 . S
H106 C98 0.930 . S
H107 C125 0.930 . S
H108 C116 0.929 . S
H109 C123 0.930 . S
H110 C87 0.931 . S
H111 C117 0.930 . S
H112 C150 0.930 . S
H113 C94 0.930 . S
H114 C149 0.931 . S
N115 Eu84 2.657 . S
N115 C116 1.334 . S
N115 C120 1.362 . S
C116 H108 0.929 . S
C116 N115 1.334 . S
C116 C119 1.413 . S
C117 H111 0.930 . S
C117 C118 1.392 . S
C117 C119 1.367 . S
C118 C117 1.392 . S
C118 C120 1.420 . S
C118 C150 1.423 . S
C119 H105 0.930 . S
C119 C116 1.413 . S
C119 C117 1.367 . S
C120 N115 1.362 . S
C120 C118 1.420 . S
C120 C124 1.429 . S
H121 C126 0.930 . S
N122 Eu84 2.609 . S
N122 C124 1.377 . S
N122 C125 1.321 . S
C123 H109 0.930 . S
C123 C125 1.400 . S
C123 C126 1.386 . S
C124 C120 1.429 . S
C124 N122 1.377 . S
C124 C127 1.411 . S
C125 H107 0.930 . S
C125 N122 1.321 . S
C125 C123 1.400 . S
C126 H121 0.930 . S
C126 C123 1.386 . S
C126 C127 1.395 . S
C127 C124 1.411 . S
C127 C126 1.395 . S
C127 C149 1.420 . S
O128 Eu84 2.558 . S
O128 C148 1.257 . S
O129 Eu84 2.612 . S
O129 Eu95 2.380 . S
O129 C140 1.276 . S
O130 Eu95 2.432 . S
O130 C147 1.264 . S
O131 Eu84 2.339 . S
O131 C147 1.254 . S
O132 Eu84 2.563 . S
O132 C140 1.235 . S
O133 Eu84 2.419 . S
O133 C148 1.249 . S
O134 Eu95 2.558 . S
O134 C159 1.257 . S
O135 Eu84 2.380 . S
O135 Eu95 2.612 . S
O135 C151 1.276 . S
O136 Eu84 2.432 . S
O136 C158 1.264 . S
O137 Eu95 2.339 . S
O137 C158 1.254 . S
O138 Eu95 2.563 . S
O138 C151 1.235 . S
O139 Eu95 2.419 . S
O139 C159 1.249 . S
C140 O129 1.276 . S
C140 O132 1.235 . S
C141 C143 1.393 . S
C141 C145 1.395 . S
C141 C148 1.492 . S
C142 C143 1.392 . S
C142 C144 1.386 . S
C143 C141 1.393 . S
C143 C142 1.392 . S
C143 H160 0.930 . S
C144 C142 1.386 . S
C144 C146 1.395 . S
C144 H161 0.930 . S
C145 C141 1.395 . S
C145 C146 1.379 . S
C145 H162 0.930 . S
C146 C144 1.395 . S
C146 C145 1.379 . S
C146 H163 0.930 . S
C147 O130 1.264 . S
C147 O131 1.254 . S
C148 Eu84 2.848 . S
C148 O128 1.257 . S
C148 O133 1.249 . S
C148 C141 1.492 . S
C149 H114 0.931 . S
C149 C127 1.420 . S
C149 C150 1.351 . S
C150 H112 0.930 . S
C150 C118 1.423 . S
C150 C149 1.351 . S
C151 O135 1.276 . S
C151 O138 1.235 . S
C152 C153 1.393 . S
C152 C156 1.395 . S
C152 C159 1.492 . S
C153 C152 1.393 . S
C153 C154 1.392 . S
C153 H164 0.930 . S
C154 C153 1.392 . S
C154 C155 1.386 . S
C155 C154 1.386 . S
C155 C157 1.395 . S
C155 H165 0.930 . S
C156 C152 1.395 . S
C156 C157 1.379 . S
C156 H166 0.930 . S
C157 C155 1.395 . S
C157 C156 1.379 . S
C157 H167 0.930 . S
C158 O136 1.264 . S
C158 O137 1.254 . S
C159 Eu95 2.848 . S
C159 O134 1.257 . S
C159 O139 1.249 . S
C159 C152 1.492 . S
H160 C143 0.930 . S
H161 C144 0.930 . S
H162 C145 0.930 . S
H163 C146 0.930 . S
H164 C153 0.930 . S
H165 C155 0.930 . S
H166 C156 0.930 . S
H167 C157 0.930 . S
Eu168 N199 2.657 . S
Eu168 N206 2.609 . S
Eu168 O212 2.558 . S
Eu168 O213 2.612 1_565 S
Eu168 O215 2.339 1_565 S
Eu168 O216 2.563 1_565 S
Eu168 O217 2.419 1_565 S
Eu168 O219 2.380 . S
Eu168 O220 2.432 . S
Eu168 C232 2.848 . S
C169 C172 1.429 . S
C169 C173 1.411 . S
C169 N176 1.377 . S
C170 C172 1.420 . S
C170 C174 1.423 . S
C170 C182 1.392 . S
C171 C173 1.420 . S
C171 C174 1.351 . S
C171 H194 0.931 . S
C172 C169 1.429 . S
C172 C170 1.420 . S
C172 N180 1.362 . S
C173 C169 1.411 . S
C173 C171 1.420 . S
C173 C178 1.395 . S
C174 C170 1.423 . S
C174 C171 1.351 . S
C174 H186 0.930 . S
C175 C177 1.400 . S
C175 C178 1.386 . S
C175 H187 0.930 . S
N176 C169 1.377 . S
N176 C177 1.321 . S
N176 Eu179 2.609 . S
C177 C175 1.400 . S
C177 N176 1.321 . S
C177 H184 0.930 . S
C178 C173 1.395 . S
C178 C175 1.386 . S
C178 H197 0.930 . S
Eu179 N176 2.609 . S
Eu179 N180 2.657 . S
Eu179 O213 2.380 . S
Eu179 O214 2.432 . S
Eu179 O218 2.558 . S
Eu179 O219 2.612 1_545 S
Eu179 O221 2.339 1_545 S
Eu179 O222 2.563 1_545 S
Eu179 O223 2.417 1_545 S
Eu179 C243 2.848 . S
N180 C172 1.362 . S
N180 Eu179 2.657 . S
N180 C181 1.334 . S
C181 N180 1.334 . S
C181 C183 1.413 . S
C181 H188 0.929 . S
C182 C170 1.392 . S
C182 C183 1.367 . S
C182 H190 0.930 . S
C183 C181 1.413 . S
C183 C182 1.367 . S
C183 H185 0.930 . S
H184 C177 0.930 . S
H185 C183 0.930 . S
H186 C174 0.930 . S
H187 C175 0.930 . S
H188 C181 0.929 . S
H189 C203 0.930 . S
H190 C182 0.930 . S
H191 C209 0.930 . S
H192 C200 0.929 . S
H193 C207 0.930 . S
H194 C171 0.931 . S
H195 C201 0.930 . S
H196 C234 0.930 . S
H197 C178 0.930 . S
H198 C233 0.931 . S
N199 Eu168 2.657 . S
N199 C200 1.334 . S
N199 C204 1.362 . S
C200 H192 0.929 . S
C200 N199 1.334 . S
C200 C203 1.413 . S
C201 H195 0.930 . S
C201 C202 1.392 . S
C201 C203 1.367 . S
C202 C201 1.392 . S
C202 C204 1.420 . S
C202 C234 1.423 . S
C203 H189 0.930 . S
C203 C200 1.413 . S
C203 C201 1.367 . S
C204 N199 1.362 . S
C204 C202 1.420 . S
C204 C208 1.429 . S
H205 C210 0.930 . S
N206 Eu168 2.609 . S
N206 C208 1.377 . S
N206 C209 1.321 . S
C207 H193 0.930 . S
C207 C209 1.400 . S
C207 C210 1.386 . S
C208 C204 1.429 . S
C208 N206 1.377 . S
C208 C211 1.411 . S
C209 H191 0.930 . S
C209 N206 1.321 . S
C209 C207 1.400 . S
C210 H205 0.930 . S
C210 C207 1.386 . S
C210 C211 1.395 . S
C211 C208 1.411 . S
C211 C210 1.395 . S
C211 C233 1.420 . S
O212 Eu168 2.558 . S
O212 C232 1.257 . S
O213 Eu168 2.612 1_545 S
O213 Eu179 2.380 . S
O213 C224 1.276 . S
O214 Eu179 2.432 . S
O214 C231 1.264 . S
O215 Eu168 2.339 1_545 S
O215 C231 1.254 . S
O216 Eu168 2.563 1_545 S
O216 C224 1.235 . S
O217 Eu168 2.419 1_545 S
O217 C232 1.249 1_545 S
O218 Eu179 2.558 . S
O218 C243 1.257 . S
O219 Eu168 2.380 . S
O219 Eu179 2.612 1_565 S
O219 C235 1.276 . S
O220 Eu168 2.432 . S
O220 C242 1.264 . S
O221 Eu179 2.339 1_565 S
O221 C242 1.254 . S
O222 Eu179 2.563 1_565 S
O222 C235 1.235 . S
O223 Eu179 2.417 1_565 S
O223 C243 1.249 1_565 S
C224 O213 1.276 . S
C224 O216 1.235 . S
C225 C227 1.393 1_565 S
C225 C229 1.395 . S
C225 C232 1.492 . S
C226 C227 1.392 . S
C226 C228 1.386 . S
C227 C225 1.393 1_545 S
C227 C226 1.392 . S
C227 H244 0.930 . S
C228 C226 1.386 . S
C228 C230 1.395 1_545 S
C228 H245 0.930 . S
C229 C225 1.395 . S
C229 C230 1.379 . S
C229 H246 0.930 . S
C230 C228 1.395 1_565 S
C230 C229 1.379 . S
C230 H247 0.930 . S
C231 O214 1.264 . S
C231 O215 1.254 . S
C232 Eu168 2.848 . S
C232 O212 1.257 . S
C232 O217 1.249 1_565 S
C232 C225 1.492 . S
C233 H198 0.931 . S
C233 C211 1.420 . S
C233 C234 1.351 . S
C234 H196 0.930 . S
C234 C202 1.423 . S
C234 C233 1.351 . S
C235 O219 1.276 . S
C235 O222 1.235 . S
C236 C237 1.393 1_545 S
C236 C240 1.395 . S
C236 C243 1.492 . S
C237 C236 1.393 1_565 S
C237 C238 1.392 . S
C237 H248 0.930 . S
C238 C237 1.392 . S
C238 C239 1.386 . S
C239 C238 1.386 . S
C239 C241 1.395 1_565 S
C239 H249 0.930 . S
C240 C236 1.395 . S
C240 C241 1.379 . S
C240 H250 0.930 . S
C241 C239 1.395 1_545 S
C241 C240 1.379 . S
C241 H251 0.930 . S
C242 O220 1.264 . S
C242 O221 1.254 . S
C243 Eu179 2.848 . S
C243 O218 1.257 . S
C243 O223 1.249 1_545 S
C243 C236 1.492 . S
H244 C227 0.930 . S
H245 C228 0.930 . S
H246 C229 0.930 . S
H247 C230 0.930 . S
H248 C237 0.930 . S
H249 C239 0.930 . S
H250 C240 0.930 . S
H251 C241 0.930 . S
Eu252 N283 2.657 . S
Eu252 N290 2.609 . S
Eu252 O296 2.558 . S
Eu252 O297 2.612 . S
Eu252 O299 2.339 . S
Eu252 O300 2.563 . S
Eu252 O301 2.419 . S
Eu252 O303 2.380 . S
Eu252 O304 2.432 . S
Eu252 C316 2.848 . S
C253 C256 1.429 . S
C253 C257 1.411 . S
C253 N260 1.377 . S
C254 C256 1.420 . S
C254 C258 1.423 . S
C254 C266 1.392 . S
C255 C257 1.420 . S
C255 C258 1.351 . S
C255 H278 0.931 . S
C256 C253 1.429 . S
C256 C254 1.420 . S
C256 N264 1.362 . S
C257 C253 1.411 . S
C257 C255 1.420 . S
C257 C262 1.395 . S
C258 C254 1.423 . S
C258 C255 1.351 . S
C258 H270 0.930 . S
C259 C261 1.400 . S
C259 C262 1.386 . S
C259 H271 0.930 . S
N260 C253 1.377 . S
N260 C261 1.321 . S
N260 Eu263 2.609 . S
C261 C259 1.400 . S
C261 N260 1.321 . S
C261 H268 0.930 . S
C262 C257 1.395 . S
C262 C259 1.386 . S
C262 H281 0.930 . S
Eu263 N260 2.609 . S
Eu263 N264 2.657 . S
Eu263 O297 2.380 . S
Eu263 O298 2.432 . S
Eu263 O302 2.558 . S
Eu263 O303 2.612 . S
Eu263 O305 2.339 . S
Eu263 O306 2.563 . S
Eu263 O307 2.419 . S
Eu263 C327 2.848 . S
N264 C256 1.362 . S
N264 Eu263 2.657 . S
N264 C265 1.334 . S
C265 N264 1.334 . S
C265 C267 1.413 . S
C265 H272 0.929 . S
C266 C254 1.392 . S
C266 C267 1.367 . S
C266 H274 0.930 . S
C267 C265 1.413 . S
C267 C266 1.367 . S
C267 H269 0.930 . S
H268 C261 0.930 . S
H269 C267 0.930 . S
H270 C258 0.930 . S
H271 C259 0.930 . S
H272 C265 0.929 . S
H273 C287 0.930 . S
H274 C266 0.930 . S
H275 C293 0.930 . S
H276 C284 0.929 . S
H277 C291 0.930 . S
H278 C255 0.931 . S
H279 C285 0.930 . S
H280 C318 0.930 . S
H281 C262 0.930 . S
H282 C317 0.931 . S
N283 Eu252 2.657 . S
N283 C284 1.334 . S
N283 C288 1.362 . S
C284 H276 0.929 . S
C284 N283 1.334 . S
C284 C287 1.413 . S
C285 H279 0.930 . S
C285 C286 1.392 . S
C285 C287 1.367 . S
C286 C285 1.392 . S
C286 C288 1.420 . S
C286 C318 1.423 . S
C287 H273 0.930 . S
C287 C284 1.413 . S
C287 C285 1.367 . S
C288 N283 1.362 . S
C288 C286 1.420 . S
C288 C292 1.429 . S
H289 C294 0.930 . S
N290 Eu252 2.609 . S
N290 C292 1.377 . S
N290 C293 1.321 . S
C291 H277 0.930 . S
C291 C293 1.400 . S
C291 C294 1.386 . S
C292 C288 1.429 . S
C292 N290 1.377 . S
C292 C295 1.411 . S
C293 H275 0.930 . S
C293 N290 1.321 . S
C293 C291 1.400 . S
C294 H289 0.930 . S
C294 C291 1.386 . S
C294 C295 1.395 . S
C295 C292 1.411 . S
C295 C294 1.395 . S
C295 C317 1.420 . S
O296 Eu252 2.558 . S
O296 C316 1.257 . S
O297 Eu252 2.612 . S
O297 Eu263 2.380 . S
O297 C308 1.276 . S
O298 Eu263 2.432 . S
O298 C315 1.264 . S
O299 Eu252 2.339 . S
O299 C315 1.254 . S
O300 Eu252 2.563 . S
O300 C308 1.235 . S
O301 Eu252 2.419 . S
O301 C316 1.249 . S
O302 Eu263 2.558 . S
O302 C327 1.257 . S
O303 Eu252 2.380 . S
O303 Eu263 2.612 . S
O303 C319 1.276 . S
O304 Eu252 2.432 . S
O304 C326 1.264 . S
O305 Eu263 2.339 . S
O305 C326 1.254 . S
O306 Eu263 2.563 . S
O306 C319 1.235 . S
O307 Eu263 2.419 . S
O307 C327 1.249 . S
C308 O297 1.276 . S
C308 O300 1.235 . S
C309 C311 1.393 . S
C309 C313 1.395 . S
C309 C316 1.492 . S
C310 C311 1.392 . S
C310 C312 1.386 . S
C311 C309 1.393 . S
C311 C310 1.392 . S
C311 H328 0.930 . S
C312 C310 1.386 . S
C312 C314 1.395 . S
C312 H329 0.930 . S
C313 C309 1.395 . S
C313 C314 1.379 . S
C313 H330 0.930 . S
C314 C312 1.395 . S
C314 C313 1.379 . S
C314 H331 0.930 . S
C315 O298 1.264 . S
C315 O299 1.254 . S
C316 Eu252 2.848 . S
C316 O296 1.257 . S
C316 O301 1.249 . S
C316 C309 1.492 . S
C317 H282 0.931 . S
C317 C295 1.420 . S
C317 C318 1.351 . S
C318 H280 0.930 . S
C318 C286 1.423 . S
C318 C317 1.351 . S
C319 O303 1.276 . S
C319 O306 1.235 . S
C320 C321 1.393 . S
C320 C324 1.395 . S
C320 C327 1.492 . S
C321 C320 1.393 . S
C321 C322 1.392 . S
C321 H332 0.930 . S
C322 C321 1.392 . S
C322 C323 1.386 . S
C323 C322 1.386 . S
C323 C325 1.395 . S
C323 H333 0.930 . S
C324 C320 1.395 . S
C324 C325 1.379 . S
C324 H334 0.930 . S
C325 C323 1.395 . S
C325 C324 1.379 . S
C325 H335 0.930 . S
C326 O304 1.264 . S
C326 O305 1.254 . S
C327 Eu263 2.848 . S
C327 O302 1.257 . S
C327 O307 1.249 . S
C327 C320 1.492 . S
H328 C311 0.930 . S
H329 C312 0.930 . S
H330 C313 0.930 . S
H331 C314 0.930 . S
H332 C321 0.930 . S
H333 C323 0.930 . S
H334 C324 0.930 . S
H335 C325 0.930 . S
Eu336 N367 2.657 1_565 S
Eu336 N374 2.609 . S
Eu336 O380 2.558 . S
Eu336 O381 2.612 1_455 S
Eu336 O383 2.339 1_565 S
Eu336 O384 2.563 1_455 S
Eu336 O385 2.419 . S
Eu336 O387 2.380 1_565 S
Eu336 O388 2.432 1_455 S
Eu336 C400 2.848 . S
C337 C340 1.429 1_545 S
C337 C341 1.411 . S
C337 N344 1.377 . S
C338 C340 1.420 . S
C338 C342 1.423 . S
C338 C350 1.392 . S
C339 C341 1.420 . S
C339 C342 1.351 1_545 S
C339 H362 0.931 . S
C340 C337 1.429 1_565 S
C340 C338 1.420 . S
C340 N348 1.362 . S
C341 C337 1.411 . S
C341 C339 1.420 . S
C341 C346 1.395 . S
C342 C338 1.423 . S
C342 C339 1.351 1_565 S
C342 H354 0.930 . S
C343 C345 1.400 . S
C343 C346 1.386 . S
C343 H355 0.930 . S
N344 C337 1.377 . S
N344 C345 1.321 . S
N344 Eu347 2.609 . S
C345 C343 1.400 . S
C345 N344 1.321 . S
C345 H352 0.955 . S
C346 C341 1.395 . S
C346 C343 1.386 . S
C346 H365 0.930 . S
Eu347 N344 2.609 . S
Eu347 N348 2.657 1_545 S
Eu347 O381 2.380 1_545 S
Eu347 O382 2.432 1_655 S
Eu347 O386 2.558 . S
Eu347 O387 2.612 1_655 S
Eu347 O389 2.339 1_545 S
Eu347 O390 2.563 1_655 S
Eu347 O391 2.419 . S
Eu347 C411 2.848 . S
N348 C340 1.362 . S
N348 Eu347 2.657 1_565 S
N348 C349 1.334 . S
C349 N348 1.334 . S
C349 C351 1.413 . S
C349 H356 0.929 . S
C350 C338 1.392 . S
C350 C351 1.367 . S
C350 H358 0.930 . S
C351 C349 1.413 . S
C351 C350 1.367 . S
C351 H353 0.930 . S
H352 C345 0.955 . S
H353 C351 0.930 . S
H354 C342 0.930 . S
H355 C343 0.930 . S
H356 C349 0.929 . S
H357 C371 0.930 . S
H358 C350 0.930 . S
H359 C377 0.930 . S
H360 C368 0.929 . S
H361 C375 0.930 . S
H362 C339 0.931 . S
H363 C369 0.930 . S
H364 C402 0.930 . S
H365 C346 0.930 . S
H366 C401 0.931 . S
N367 Eu336 2.657 1_545 S
N367 C368 1.334 . S
N367 C372 1.362 . S
C368 H360 0.929 . S
C368 N367 1.334 . S
C368 C371 1.413 . S
C369 H363 0.930 . S
C369 C370 1.392 . S
C369 C371 1.367 . S
C370 C369 1.392 . S
C370 C372 1.420 . S
C370 C402 1.423 . S
C371 H357 0.930 . S
C371 C368 1.413 . S
C371 C369 1.367 . S
C372 N367 1.362 . S
C372 C370 1.420 . S
C372 C376 1.429 1_545 S
H373 C378 0.930 . S
N374 Eu336 2.609 . S
N374 C376 1.377 . S
N374 C377 1.321 . S
C375 H361 0.930 . S
C375 C377 1.400 . S
C375 C378 1.386 . S
C376 C372 1.429 1_565 S
C376 N374 1.377 . S
C376 C379 1.411 . S
C377 H359 0.930 . S
C377 N374 1.321 . S
C377 C375 1.400 . S
C378 H373 0.930 . S
C378 C375 1.386 . S
C378 C379 1.395 . S
C379 C376 1.411 . S
C379 C378 1.395 . S
C379 C401 1.420 . S
O380 Eu336 2.558 . S
O380 C400 1.257 . S
O381 Eu336 2.612 1_655 S
O381 Eu347 2.380 1_565 S
O381 C392 1.276 . S
O382 Eu347 2.432 1_455 S
O382 C399 1.264 . S
O383 Eu336 2.339 1_545 S
O383 C399 1.254 . S
O384 Eu336 2.563 1_655 S
O384 C392 1.235 . S
O385 Eu336 2.419 . S
O385 C400 1.249 . S
O386 Eu347 2.558 . S
O386 C411 1.257 . S
O387 Eu336 2.380 1_545 S
O387 Eu347 2.612 1_455 S
O387 C403 1.276 . S
O388 Eu336 2.432 1_655 S
O388 C410 1.264 . S
O389 Eu347 2.339 1_565 S
O389 C410 1.254 . S
O390 Eu347 2.563 1_455 S
O390 C403 1.235 . S
O391 Eu347 2.419 . S
O391 C411 1.249 . S
C392 O381 1.276 . S
C392 O384 1.235 . S
C393 C395 1.393 . S
C393 C397 1.395 . S
C393 C400 1.492 . S
C394 C395 1.392 . S
C394 C396 1.386 . S
C395 C393 1.393 . S
C395 C394 1.392 . S
C395 H412 0.930 . S
C396 C394 1.386 . S
C396 C398 1.395 . S
C396 H413 0.930 . S
C397 C393 1.395 . S
C397 C398 1.379 . S
C397 H414 0.930 . S
C398 C396 1.395 . S
C398 C397 1.379 . S
C398 H415 0.930 . S
C399 O382 1.264 . S
C399 O383 1.254 . S
C400 Eu336 2.848 . S
C400 O380 1.257 . S
C400 O385 1.249 . S
C400 C393 1.492 . S
C401 H366 0.931 . S
C401 C379 1.420 . S
C401 C402 1.351 1_565 S
C402 H364 0.930 . S
C402 C370 1.423 . S
C402 C401 1.351 1_545 S
C403 O387 1.276 . S
C403 O390 1.235 . S
C404 C405 1.393 . S
C404 C408 1.395 . S
C404 C411 1.492 . S
C405 C404 1.393 . S
C405 C406 1.392 . S
C405 H416 0.930 . S
C406 C405 1.392 . S
C406 C407 1.386 . S
C407 C406 1.386 . S
C407 C409 1.395 . S
C407 H417 0.930 . S
C408 C404 1.395 . S
C408 C409 1.379 . S
C408 H418 0.930 . S
C409 C407 1.395 . S
C409 C408 1.379 . S
C409 H419 0.930 . S
C410 O388 1.264 . S
C410 O389 1.254 . S
C411 Eu347 2.848 . S
C411 O386 1.257 . S
C411 O391 1.249 . S
C411 C404 1.492 . S
H412 C395 0.930 . S
H413 C396 0.930 . S
H414 C397 0.930 . S
H415 C398 0.930 . S
H416 C405 0.930 . S
H417 C407 0.930 . S
H418 C408 0.930 . S
H419 C409 0.930 . S
Eu420 N451 2.657 . S
Eu420 N458 2.609 . S
Eu420 O464 2.558 . S
Eu420 O465 2.612 . S
Eu420 O467 2.339 . S
Eu420 O468 2.563 . S
Eu420 O469 2.419 . S
Eu420 O471 2.380 . S
Eu420 O472 2.432 . S
Eu420 C484 2.848 . S
C421 C424 1.429 . S
C421 C425 1.411 . S
C421 N428 1.377 . S
C422 C424 1.420 . S
C422 C426 1.423 . S
C422 C434 1.392 . S
C423 C425 1.420 . S
C423 C426 1.351 . S
C423 H446 0.931 . S
C424 C421 1.429 . S
C424 C422 1.420 . S
C424 N432 1.362 . S
C425 C421 1.411 . S
C425 C423 1.420 . S
C425 C430 1.395 . S
C426 C422 1.423 . S
C426 C423 1.351 . S
C426 H438 0.930 . S
C427 C429 1.400 . S
C427 C430 1.386 . S
C427 H439 0.930 . S
N428 C421 1.377 . S
N428 C429 1.321 . S
N428 Eu431 2.609 . S
C429 C427 1.400 . S
C429 N428 1.321 . S
C429 H436 0.930 . S
C430 C425 1.395 . S
C430 C427 1.386 . S
C430 H449 0.930 . S
Eu431 N428 2.609 . S
Eu431 N432 2.657 . S
Eu431 O465 2.380 . S
Eu431 O466 2.432 . S
Eu431 O470 2.558 . S
Eu431 O471 2.612 . S
Eu431 O473 2.339 . S
Eu431 O474 2.563 . S
Eu431 O475 2.419 . S
Eu431 C495 2.848 . S
N432 C424 1.362 . S
N432 Eu431 2.657 . S
N432 C433 1.334 . S
C433 N432 1.334 . S
C433 C435 1.413 . S
C433 H440 0.929 . S
C434 C422 1.392 . S
C434 C435 1.367 . S
C434 H442 0.930 . S
C435 C433 1.413 . S
C435 C434 1.367 . S
C435 H437 0.930 . S
H436 C429 0.930 . S
H437 C435 0.930 . S
H438 C426 0.930 . S
H439 C427 0.930 . S
H440 C433 0.929 . S
H441 C455 0.930 . S
H442 C434 0.930 . S
H443 C461 0.930 . S
H444 C452 0.929 . S
H445 C459 0.930 . S
H446 C423 0.931 . S
H447 C453 0.930 . S
H448 C486 0.930 . S
H449 C430 0.930 . S
H450 C485 0.931 . S
N451 Eu420 2.657 . S
N451 C452 1.334 . S
N451 C456 1.362 . S
C452 H444 0.929 . S
C452 N451 1.334 . S
C452 C455 1.413 . S
C453 H447 0.930 . S
C453 C454 1.392 . S
C453 C455 1.367 . S
C454 C453 1.392 . S
C454 C456 1.420 . S
C454 C486 1.423 . S
C455 H441 0.930 . S
C455 C452 1.413 . S
C455 C453 1.367 . S
C456 N451 1.362 . S
C456 C454 1.420 . S
C456 C460 1.429 . S
H457 C462 0.930 . S
N458 Eu420 2.609 . S
N458 C460 1.377 . S
N458 C461 1.321 . S
C459 H445 0.930 . S
C459 C461 1.400 . S
C459 C462 1.386 . S
C460 C456 1.429 . S
C460 N458 1.377 . S
C460 C463 1.411 . S
C461 H443 0.930 . S
C461 N458 1.321 . S
C461 C459 1.400 . S
C462 H457 0.930 . S
C462 C459 1.386 . S
C462 C463 1.395 . S
C463 C460 1.411 . S
C463 C462 1.395 . S
C463 C485 1.420 . S
O464 Eu420 2.558 . S
O464 C484 1.257 . S
O465 Eu420 2.612 . S
O465 Eu431 2.380 . S
O465 C476 1.276 . S
O466 Eu431 2.432 . S
O466 C483 1.264 . S
O467 Eu420 2.339 . S
O467 C483 1.254 . S
O468 Eu420 2.563 . S
O468 C476 1.235 . S
O469 Eu420 2.419 . S
O469 C484 1.249 . S
O470 Eu431 2.558 . S
O470 C495 1.257 . S
O471 Eu420 2.380 . S
O471 Eu431 2.612 . S
O471 C487 1.276 . S
O472 Eu420 2.432 . S
O472 C494 1.264 . S
O473 Eu431 2.339 . S
O473 C494 1.254 . S
O474 Eu431 2.563 . S
O474 C487 1.235 . S
O475 Eu431 2.419 . S
O475 C495 1.249 . S
C476 O465 1.276 . S
C476 O468 1.235 . S
C477 C479 1.393 . S
C477 C481 1.395 . S
C477 C484 1.492 . S
C478 C479 1.392 . S
C478 C480 1.386 . S
C479 C477 1.393 . S
C479 C478 1.392 . S
C479 H496 0.930 . S
C480 C478 1.386 . S
C480 C482 1.395 . S
C480 H497 0.930 . S
C481 C477 1.395 . S
C481 C482 1.379 . S
C481 H498 0.930 . S
C482 C480 1.395 . S
C482 C481 1.379 . S
C482 H499 0.930 . S
C483 O466 1.264 . S
C483 O467 1.254 . S
C484 Eu420 2.848 . S
C484 O464 1.257 . S
C484 O469 1.249 . S
C484 C477 1.492 . S
C485 H450 0.931 . S
C485 C463 1.420 . S
C485 C486 1.351 . S
C486 H448 0.930 . S
C486 C454 1.423 . S
C486 C485 1.351 . S
C487 O471 1.276 . S
C487 O474 1.235 . S
C488 C489 1.393 . S
C488 C492 1.395 . S
C488 C495 1.492 . S
C489 C488 1.393 . S
C489 C490 1.392 . S
C489 H500 0.930 . S
C490 C489 1.392 . S
C490 C491 1.386 . S
C491 C490 1.386 . S
C491 C493 1.395 . S
C491 H501 0.930 . S
C492 C488 1.395 . S
C492 C493 1.379 . S
C492 H502 0.930 . S
C493 C491 1.395 . S
C493 C492 1.379 . S
C493 H503 0.930 . S
C494 O472 1.264 . S
C494 O473 1.254 . S
C495 Eu431 2.848 . S
C495 O470 1.257 . S
C495 O475 1.249 . S
C495 C488 1.492 . S
H496 C479 0.930 . S
H497 C480 0.930 . S
H498 C481 0.930 . S
H499 C482 0.930 . S
H500 C489 0.930 . S
H501 C491 0.930 . S
H502 C492 0.930 . S
H503 C493 0.930 . S
Eu504 N535 2.657 . S
Eu504 N542 2.609 . S
Eu504 O548 2.558 . S
Eu504 O549 2.612 1_564 S
Eu504 O551 2.339 1_554 S
Eu504 O552 2.563 1_564 S
Eu504 O553 2.419 1_554 S
Eu504 O555 2.380 . S
Eu504 O556 2.432 1_565 S
Eu504 C568 2.848 1_554 S
C505 C508 1.429 . S
C505 C509 1.411 . S
C505 N512 1.377 . S
C506 C508 1.420 . S
C506 C510 1.423 . S
C506 C518 1.392 . S
C507 C509 1.420 . S
C507 C510 1.351 . S
C507 H530 0.931 . S
C508 C505 1.429 . S
C508 C506 1.420 . S
C508 N516 1.362 . S
C509 C505 1.411 . S
C509 C507 1.420 . S
C509 C514 1.395 . S
C510 C506 1.423 . S
C510 C507 1.351 . S
C510 H522 0.930 . S
C511 C513 1.400 . S
C511 C514 1.386 . S
C511 H523 0.930 . S
N512 C505 1.377 . S
N512 C513 1.321 . S
N512 Eu515 2.609 . S
C513 C511 1.400 . S
C513 N512 1.321 . S
C513 H520 0.930 . S
C514 C509 1.395 . S
C514 C511 1.386 . S
C514 H533 0.930 . S
Eu515 N512 2.609 . S
Eu515 N516 2.657 . S
Eu515 O549 2.380 . S
Eu515 O550 2.432 1_545 S
Eu515 O554 2.558 . S
Eu515 O555 2.612 1_546 S
Eu515 O557 2.339 1_556 S
Eu515 O558 2.563 1_546 S
Eu515 O559 2.419 1_556 S
Eu515 C579 2.848 1_556 S
N516 C508 1.362 . S
N516 Eu515 2.657 . S
N516 C517 1.334 . S
C517 N516 1.334 . S
C517 C519 1.413 . S
C517 H524 0.945 . S
C518 C506 1.392 . S
C518 C519 1.367 . S
C518 H526 0.930 . S
C519 C517 1.413 . S
C519 C518 1.367 . S
C519 H521 0.930 . S
H520 C513 0.930 . S
H521 C519 0.930 . S
H522 C510 0.930 . S
H523 C511 0.930 . S
H524 C517 0.945 . S
H525 C539 0.930 . S
H526 C518 0.930 . S
H527 C545 0.930 . S
H528 C536 0.929 . S
H529 C543 0.930 . S
H530 C507 0.931 . S
H531 C537 0.930 . S
H532 C570 0.930 . S
H533 C514 0.930 . S
H534 C569 0.931 . S
N535 Eu504 2.657 . S
N535 C536 1.334 . S
N535 C540 1.362 . S
C536 H528 0.929 . S
C536 N535 1.334 . S
C536 C539 1.413 . S
C537 H531 0.930 . S
C537 C538 1.392 . S
C537 C539 1.367 . S
C538 C537 1.392 . S
C538 C540 1.420 . S
C538 C570 1.423 . S
C539 H525 0.930 . S
C539 C536 1.413 . S
C539 C537 1.367 . S
C540 N535 1.362 . S
C540 C538 1.420 . S
C540 C544 1.429 . S
H541 C546 0.930 . S
N542 Eu504 2.609 . S
N542 C544 1.377 . S
N542 C545 1.321 . S
C543 H529 0.930 . S
C543 C545 1.400 . S
C543 C546 1.386 . S
C544 C540 1.429 . S
C544 N542 1.377 . S
C544 C547 1.411 . S
C545 H527 0.930 . S
C545 N542 1.321 . S
C545 C543 1.400 . S
C546 H541 0.930 . S
C546 C543 1.386 . S
C546 C547 1.395 . S
C547 C544 1.411 . S
C547 C546 1.395 . S
C547 C569 1.420 . S
O548 Eu504 2.558 . S
O548 C568 1.257 1_554 S
O549 Eu504 2.612 1_546 S
O549 Eu515 2.380 . S
O549 C560 1.276 . S
O550 Eu515 2.432 1_565 S
O550 C567 1.264 . S
O551 Eu504 2.339 1_556 S
O551 C567 1.254 . S
O552 Eu504 2.563 1_546 S
O552 C560 1.235 . S
O553 Eu504 2.419 1_556 S
O553 C568 1.249 . S
O554 Eu515 2.558 . S
O554 C579 1.257 1_556 S
O555 Eu504 2.380 . S
O555 Eu515 2.612 1_564 S
O555 C571 1.276 . S
O556 Eu504 2.432 1_545 S
O556 C578 1.264 . S
O557 Eu515 2.339 1_554 S
O557 C578 1.254 . S
O558 Eu515 2.563 1_564 S
O558 C571 1.235 . S
O559 Eu515 2.419 1_554 S
O559 C579 1.249 . S
C560 O549 1.276 . S
C560 O552 1.235 . S
C561 C563 1.393 . S
C561 C565 1.395 1_556 S
C561 C568 1.492 . S
C562 C563 1.392 . S
C562 C564 1.386 . S
C563 C561 1.393 . S
C563 C562 1.392 . S
C563 H580 0.930 . S
C564 C562 1.386 . S
C564 C566 1.395 . S
C564 H581 0.930 . S
C565 C561 1.395 1_554 S
C565 C566 1.379 1_554 S
C565 H582 0.930 . S
C566 C564 1.395 . S
C566 C565 1.379 1_556 S
C566 H583 0.930 1_556 S
C567 O550 1.264 . S
C567 O551 1.254 . S
C568 Eu504 2.848 1_556 S
C568 O548 1.257 1_556 S
C568 O553 1.249 . S
C568 C561 1.492 . S
C569 H534 0.931 . S
C569 C547 1.420 . S
C569 C570 1.351 . S
C570 H532 0.930 . S
C570 C538 1.423 . S
C570 C569 1.351 . S
C571 O555 1.276 . S
C571 O558 1.235 . S
C572 C573 1.393 . S
C572 C576 1.395 1_554 S
C572 C579 1.492 . S
C573 C572 1.393 . S
C573 C574 1.392 . S
C573 H584 0.930 . S
C574 C573 1.392 . S
C574 C575 1.386 . S
C575 C574 1.386 . S
C575 C577 1.395 . S
C575 H585 0.930 . S
C576 C572 1.395 1_556 S
C576 C577 1.379 1_556 S
C576 H586 0.930 . S
C577 C575 1.395 . S
C577 C576 1.379 1_554 S
C577 H587 0.930 1_554 S
C578 O556 1.264 . S
C578 O557 1.254 . S
C579 Eu515 2.848 1_554 S
C579 O554 1.257 1_554 S
C579 O559 1.249 . S
C579 C572 1.492 . S
H580 C563 0.930 . S
H581 C564 0.930 . S
H582 C565 0.930 . S
H583 C566 0.930 1_554 S
H584 C573 0.930 . S
H585 C575 0.930 . S
H586 C576 0.930 . S
H587 C577 0.930 1_556 S
Eu588 N619 2.657 . S
Eu588 N626 2.609 . S
Eu588 O632 2.558 . S
Eu588 O633 2.612 . S
Eu588 O635 2.339 . S
Eu588 O636 2.563 . S
Eu588 O637 2.419 . S
Eu588 O639 2.380 . S
Eu588 O640 2.432 . S
Eu588 C652 2.848 . S
C589 C592 1.429 . S
C589 C593 1.411 . S
C589 N596 1.377 . S
C590 C592 1.420 . S
C590 C594 1.423 . S
C590 C602 1.392 . S
C591 C593 1.420 . S
C591 C594 1.351 . S
C591 H614 0.931 . S
C592 C589 1.429 . S
C592 C590 1.420 . S
C592 N600 1.362 . S
C593 C589 1.411 . S
C593 C591 1.420 . S
C593 C598 1.395 . S
C594 C590 1.423 . S
C594 C591 1.351 . S
C594 H606 0.930 . S
C595 C597 1.400 . S
C595 C598 1.386 . S
C595 H607 0.930 . S
N596 C589 1.377 . S
N596 C597 1.321 . S
N596 Eu599 2.609 . S
C597 C595 1.400 . S
C597 N596 1.321 . S
C597 H604 0.930 . S
C598 C593 1.395 . S
C598 C595 1.386 . S
C598 H617 0.930 . S
Eu599 N596 2.609 . S
Eu599 N600 2.657 . S
Eu599 O633 2.380 . S
Eu599 O634 2.432 . S
Eu599 O638 2.558 . S
Eu599 O639 2.612 . S
Eu599 O641 2.339 . S
Eu599 O642 2.563 . S
Eu599 O643 2.419 . S
Eu599 C663 2.848 . S
N600 C592 1.362 . S
N600 Eu599 2.657 . S
N600 C601 1.334 . S
C601 N600 1.334 . S
C601 C603 1.413 . S
C601 H608 0.929 . S
C602 C590 1.392 . S
C602 C603 1.367 . S
C602 H610 0.930 . S
C603 C601 1.413 . S
C603 C602 1.367 . S
C603 H605 0.930 . S
H604 C597 0.930 . S
H605 C603 0.930 . S
H606 C594 0.930 . S
H607 C595 0.930 . S
H608 C601 0.929 . S
H609 C623 0.930 . S
H610 C602 0.930 . S
H611 C629 0.930 . S
H612 C620 0.929 . S
H613 C627 0.930 . S
H614 C591 0.931 . S
H615 C621 0.930 . S
H616 C654 0.930 . S
H617 C598 0.930 . S
H618 C653 0.931 . S
N619 Eu588 2.657 . S
N619 C620 1.334 . S
N619 C624 1.362 . S
C620 H612 0.929 . S
C620 N619 1.334 . S
C620 C623 1.413 . S
C621 H615 0.930 . S
C621 C622 1.392 . S
C621 C623 1.367 . S
C622 C621 1.392 . S
C622 C624 1.420 . S
C622 C654 1.423 . S
C623 H609 0.930 . S
C623 C620 1.413 . S
C623 C621 1.367 . S
C624 N619 1.362 . S
C624 C622 1.420 . S
C624 C628 1.429 . S
H625 C630 0.930 . S
N626 Eu588 2.609 . S
N626 C628 1.377 . S
N626 C629 1.321 . S
C627 H613 0.930 . S
C627 C629 1.400 . S
C627 C630 1.386 . S
C628 C624 1.429 . S
C628 N626 1.377 . S
C628 C631 1.411 . S
C629 H611 0.930 . S
C629 N626 1.321 . S
C629 C627 1.400 . S
C630 H625 0.930 . S
C630 C627 1.386 . S
C630 C631 1.395 . S
C631 C628 1.411 . S
C631 C630 1.395 . S
C631 C653 1.420 . S
O632 Eu588 2.558 . S
O632 C652 1.257 . S
O633 Eu588 2.612 . S
O633 Eu599 2.380 . S
O633 C644 1.276 . S
O634 Eu599 2.432 . S
O634 C651 1.264 . S
O635 Eu588 2.339 . S
O635 C651 1.254 . S
O636 Eu588 2.563 . S
O636 C644 1.235 . S
O637 Eu588 2.419 . S
O637 C652 1.249 . S
O638 Eu599 2.558 . S
O638 C663 1.257 . S
O639 Eu588 2.380 . S
O639 Eu599 2.612 . S
O639 C655 1.276 . S
O640 Eu588 2.432 . S
O640 C662 1.264 . S
O641 Eu599 2.339 . S
O641 C662 1.254 . S
O642 Eu599 2.563 . S
O642 C655 1.235 . S
O643 Eu599 2.419 . S
O643 C663 1.249 . S
C644 O633 1.276 . S
C644 O636 1.235 . S
C645 C647 1.393 . S
C645 C649 1.395 . S
C645 C652 1.492 . S
C646 C647 1.392 . S
C646 C648 1.386 . S
C647 C645 1.393 . S
C647 C646 1.392 . S
C647 H664 0.930 . S
C648 C646 1.386 . S
C648 C650 1.395 . S
C648 H665 0.930 . S
C649 C645 1.395 . S
C649 C650 1.379 . S
C649 H666 0.930 . S
C650 C648 1.395 . S
C650 C649 1.379 . S
C650 H667 0.930 . S
C651 O634 1.264 . S
C651 O635 1.254 . S
C652 Eu588 2.848 . S
C652 O632 1.257 . S
C652 O637 1.249 . S
C652 C645 1.492 . S
C653 H618 0.931 . S
C653 C631 1.420 . S
C653 C654 1.351 . S
C654 H616 0.930 . S
C654 C622 1.423 . S
C654 C653 1.351 . S
C655 O639 1.276 . S
C655 O642 1.235 . S
C656 C657 1.393 . S
C656 C660 1.395 . S
C656 C663 1.492 . S
C657 C656 1.393 . S
C657 C658 1.392 . S
C657 H668 0.930 . S
C658 C657 1.392 . S
C658 C659 1.386 . S
C659 C658 1.386 . S
C659 C661 1.395 . S
C659 H669 0.930 . S
C660 C656 1.395 . S
C660 C661 1.379 . S
C660 H670 0.930 . S
C661 C659 1.395 . S
C661 C660 1.379 . S
C661 H671 0.930 . S
C662 O640 1.264 . S
C662 O641 1.254 . S
C663 Eu599 2.848 . S
C663 O638 1.257 . S
C663 O643 1.249 . S
C663 C656 1.492 . S
H664 C647 0.930 . S
H665 C648 0.930 . S
H666 C649 0.930 . S
H667 C650 0.930 . S
H668 C657 0.930 . S
H669 C659 0.930 . S
H670 C660 0.930 . S
H671 C661 0.930 . S
Eu672 N703 2.657 1_554 S
Eu672 N710 2.609 1_554 S
Eu672 O716 2.558 . S
Eu672 O717 2.612 . S
Eu672 O719 2.339 . S
Eu672 O720 2.563 . S
Eu672 O721 2.419 . S
Eu672 O723 2.380 1_554 S
Eu672 O724 2.432 1_554 S
Eu672 C736 2.848 . S
C673 C676 1.429 . S
C673 C677 1.411 . S
C673 N680 1.377 . S
C674 C676 1.420 . S
C674 C678 1.423 . S
C674 C686 1.392 . S
C675 C677 1.420 . S
C675 C678 1.351 . S
C675 H698 0.931 . S
C676 C673 1.429 . S
C676 C674 1.420 . S
C676 N684 1.362 . S
C677 C673 1.411 . S
C677 C675 1.420 . S
C677 C682 1.395 . S
C678 C674 1.423 . S
C678 C675 1.351 . S
C678 H690 0.930 . S
C679 C681 1.400 . S
C679 C682 1.386 . S
C679 H691 0.930 . S
N680 C673 1.377 . S
N680 C681 1.321 . S
N680 Eu683 2.609 1_554 S
C681 C679 1.400 . S
C681 N680 1.321 . S
C681 H688 0.930 . S
C682 C677 1.395 . S
C682 C679 1.386 . S
C682 H701 0.930 . S
Eu683 N680 2.609 1_556 S
Eu683 N684 2.657 1_556 S
Eu683 O717 2.380 1_556 S
Eu683 O718 2.432 1_556 S
Eu683 O722 2.558 . S
Eu683 O723 2.612 . S
Eu683 O725 2.339 . S
Eu683 O726 2.563 . S
Eu683 O727 2.419 . S
Eu683 C747 2.848 . S
N684 C676 1.362 . S
N684 Eu683 2.657 1_554 S
N684 C685 1.334 1_554 S
C685 N684 1.334 1_556 S
C685 C687 1.413 1_556 S
C685 H692 0.929 . S
C686 C674 1.392 . S
C686 C687 1.367 . S
C686 H694 0.930 . S
C687 C685 1.413 1_554 S
C687 C686 1.367 . S
C687 H689 0.930 . S
H688 C681 0.930 . S
H689 C687 0.930 . S
H690 C678 0.930 . S
H691 C679 0.930 . S
H692 C685 0.929 . S
H693 C707 0.936 . S
H694 C686 0.930 . S
H695 C713 0.930 . S
H696 C704 0.929 . S
H697 C711 0.930 . S
H698 C675 0.931 . S
H699 C705 0.930 . S
H700 C738 0.930 . S
H701 C682 0.930 . S
H702 C737 0.931 . S
N703 Eu672 2.657 1_556 S
N703 C704 1.334 1_556 S
N703 C708 1.362 . S
C704 H696 0.929 . S
C704 N703 1.334 1_554 S
C704 C707 1.413 1_554 S
C705 H699 0.930 . S
C705 C706 1.392 . S
C705 C707 1.367 . S
C706 C705 1.392 . S
C706 C708 1.420 . S
C706 C738 1.423 . S
C707 H693 0.936 . S
C707 C704 1.413 1_556 S
C707 C705 1.367 . S
C708 N703 1.362 . S
C708 C706 1.420 . S
C708 C712 1.429 . S
H709 C714 0.930 . S
N710 Eu672 2.609 1_556 S
N710 C712 1.377 . S
N710 C713 1.321 . S
C711 H697 0.930 . S
C711 C713 1.400 . S
C711 C714 1.386 . S
C712 C708 1.429 . S
C712 N710 1.377 . S
C712 C715 1.411 . S
C713 H695 0.930 . S
C713 N710 1.321 . S
C713 C711 1.400 . S
C714 H709 0.930 . S
C714 C711 1.386 . S
C714 C715 1.395 . S
C715 C712 1.411 . S
C715 C714 1.395 . S
C715 C737 1.420 . S
O716 Eu672 2.558 . S
O716 C736 1.257 . S
O717 Eu672 2.612 . S
O717 Eu683 2.380 1_554 S
O717 C728 1.276 . S
O718 Eu683 2.432 1_554 S
O718 C735 1.264 . S
O719 Eu672 2.339 . S
O719 C735 1.254 . S
O720 Eu672 2.563 . S
O720 C728 1.235 . S
O721 Eu672 2.419 . S
O721 C736 1.249 . S
O722 Eu683 2.558 . S
O722 C747 1.257 . S
O723 Eu672 2.380 1_556 S
O723 Eu683 2.612 . S
O723 C739 1.276 . S
O724 Eu672 2.432 1_556 S
O724 C746 1.264 . S
O725 Eu683 2.339 . S
O725 C746 1.254 . S
O726 Eu683 2.563 . S
O726 C739 1.235 . S
O727 Eu683 2.419 . S
O727 C747 1.249 . S
C728 O717 1.276 . S
C728 O720 1.235 . S
C729 C731 1.393 . S
C729 C733 1.395 . S
C729 C736 1.492 . S
C730 C731 1.392 . S
C730 C732 1.386 . S
C731 C729 1.393 . S
C731 C730 1.392 . S
C731 H748 0.930 . S
C732 C730 1.386 . S
C732 C734 1.395 . S
C732 H749 0.930 . S
C733 C729 1.395 . S
C733 C734 1.379 . S
C733 H750 0.930 . S
C734 C732 1.395 . S
C734 C733 1.379 . S
C734 H751 0.930 . S
C735 O718 1.264 . S
C735 O719 1.254 . S
C736 Eu672 2.848 . S
C736 O716 1.257 . S
C736 O721 1.249 . S
C736 C729 1.492 . S
C737 H702 0.931 . S
C737 C715 1.420 . S
C737 C738 1.351 . S
C738 H700 0.930 . S
C738 C706 1.423 . S
C738 C737 1.351 . S
C739 O723 1.276 . S
C739 O726 1.235 . S
C740 C741 1.393 . S
C740 C744 1.395 . S
C740 C747 1.492 . S
C741 C740 1.393 . S
C741 C742 1.392 . S
C741 H752 0.930 . S
C742 C741 1.392 . S
C742 C743 1.386 . S
C743 C742 1.386 . S
C743 C745 1.395 . S
C743 H753 0.930 . S
C744 C740 1.395 . S
C744 C745 1.379 . S
C744 H754 0.930 . S
C745 C743 1.395 . S
C745 C744 1.379 . S
C745 H755 0.930 . S
C746 O724 1.264 . S
C746 O725 1.254 . S
C747 Eu683 2.848 . S
C747 O722 1.257 . S
C747 O727 1.249 . S
C747 C740 1.492 . S
H748 C731 0.930 . S
H749 C732 0.930 . S
H750 C733 0.930 . S
H751 C734 0.930 . S
H752 C741 0.930 . S
H753 C743 0.930 . S
H754 C744 0.930 . S
H755 C745 0.930 . S
Eu756 N787 2.657 . S
Eu756 N794 2.609 . S
Eu756 O800 2.558 . S
Eu756 O801 2.612 . S
Eu756 O803 2.339 . S
Eu756 O804 2.563 . S
Eu756 O805 2.419 . S
Eu756 O807 2.380 . S
Eu756 O808 2.432 . S
Eu756 C820 2.848 . S
C757 C760 1.429 . S
C757 C761 1.411 . S
C757 N764 1.377 . S
C758 C760 1.420 . S
C758 C762 1.423 . S
C758 C770 1.392 . S
C759 C761 1.420 . S
C759 C762 1.351 . S
C759 H782 0.931 . S
C760 C757 1.429 . S
C760 C758 1.420 . S
C760 N768 1.362 . S
C761 C757 1.411 . S
C761 C759 1.420 . S
C761 C766 1.395 . S
C762 C758 1.423 . S
C762 C759 1.351 . S
C762 H774 0.930 . S
C763 C765 1.400 . S
C763 C766 1.386 . S
C763 H775 0.930 . S
N764 C757 1.377 . S
N764 C765 1.321 . S
N764 Eu767 2.609 . S
C765 C763 1.400 . S
C765 N764 1.321 . S
C765 H772 0.930 . S
C766 C761 1.395 . S
C766 C763 1.386 . S
C766 H785 0.930 . S
Eu767 N764 2.609 . S
Eu767 N768 2.657 . S
Eu767 O801 2.380 . S
Eu767 O802 2.432 . S
Eu767 O806 2.558 . S
Eu767 O807 2.612 . S
Eu767 O809 2.339 . S
Eu767 O810 2.563 . S
Eu767 O811 2.419 . S
Eu767 C831 2.848 . S
N768 C760 1.362 . S
N768 Eu767 2.657 . S
N768 C769 1.334 . S
C769 N768 1.334 . S
C769 C771 1.413 . S
C769 H776 0.929 . S
C770 C758 1.392 . S
C770 C771 1.367 . S
C770 H778 0.930 . S
C771 C769 1.413 . S
C771 C770 1.367 . S
C771 H773 0.930 . S
H772 C765 0.930 . S
H773 C771 0.930 . S
H774 C762 0.930 . S
H775 C763 0.930 . S
H776 C769 0.929 . S
H777 C791 0.930 . S
H778 C770 0.930 . S
H779 C797 0.930 . S
H780 C788 0.929 . S
H781 C795 0.930 . S
H782 C759 0.931 . S
H783 C789 0.930 . S
H784 C822 0.930 . S
H785 C766 0.930 . S
H786 C821 0.931 . S
N787 Eu756 2.657 . S
N787 C788 1.334 . S
N787 C792 1.362 . S
C788 H780 0.929 . S
C788 N787 1.334 . S
C788 C791 1.413 . S
C789 H783 0.930 . S
C789 C790 1.392 . S
C789 C791 1.367 . S
C790 C789 1.392 . S
C790 C792 1.420 . S
C790 C822 1.423 . S
C791 H777 0.930 . S
C791 C788 1.413 . S
C791 C789 1.367 . S
C792 N787 1.362 . S
C792 C790 1.420 . S
C792 C796 1.429 . S
H793 C798 0.930 . S
N794 Eu756 2.609 . S
N794 C796 1.377 . S
N794 C797 1.321 . S
C795 H781 0.930 . S
C795 C797 1.400 . S
C795 C798 1.386 . S
C796 C792 1.429 . S
C796 N794 1.377 . S
C796 C799 1.411 . S
C797 H779 0.930 . S
C797 N794 1.321 . S
C797 C795 1.400 . S
C798 H793 0.930 . S
C798 C795 1.386 . S
C798 C799 1.395 . S
C799 C796 1.411 . S
C799 C798 1.395 . S
C799 C821 1.420 . S
O800 Eu756 2.558 . S
O800 C820 1.257 . S
O801 Eu756 2.612 . S
O801 Eu767 2.380 . S
O801 C812 1.276 . S
O802 Eu767 2.432 . S
O802 C819 1.264 . S
O803 Eu756 2.339 . S
O803 C819 1.254 . S
O804 Eu756 2.563 . S
O804 C812 1.235 . S
O805 Eu756 2.419 . S
O805 C820 1.249 . S
O806 Eu767 2.558 . S
O806 C831 1.257 . S
O807 Eu756 2.380 . S
O807 Eu767 2.612 . S
O807 C823 1.276 . S
O808 Eu756 2.432 . S
O808 C830 1.264 . S
O809 Eu767 2.339 . S
O809 C830 1.254 . S
O810 Eu767 2.563 . S
O810 C823 1.235 . S
O811 Eu767 2.419 . S
O811 C831 1.249 . S
C812 O801 1.276 . S
C812 O804 1.235 . S
C813 C815 1.393 . S
C813 C817 1.395 . S
C813 C820 1.492 . S
C814 C815 1.392 . S
C814 C816 1.386 . S
C815 C813 1.393 . S
C815 C814 1.392 . S
C815 H832 0.930 . S
C816 C814 1.386 . S
C816 C818 1.395 . S
C816 H833 0.930 . S
C817 C813 1.395 . S
C817 C818 1.379 . S
C817 H834 0.930 . S
C818 C816 1.395 . S
C818 C817 1.379 . S
C818 H835 0.930 . S
C819 O802 1.264 . S
C819 O803 1.254 . S
C820 Eu756 2.848 . S
C820 O800 1.257 . S
C820 O805 1.249 . S
C820 C813 1.492 . S
C821 H786 0.931 . S
C821 C799 1.420 . S
C821 C822 1.351 . S
C822 H784 0.930 . S
C822 C790 1.423 . S
C822 C821 1.351 . S
C823 O807 1.276 . S
C823 O810 1.235 . S
C824 C825 1.393 . S
C824 C828 1.395 . S
C824 C831 1.492 . S
C825 C824 1.393 . S
C825 C826 1.392 . S
C825 H836 0.930 . S
C826 C825 1.392 . S
C826 C827 1.386 . S
C827 C826 1.386 . S
C827 C829 1.395 . S
C827 H837 0.930 . S
C828 C824 1.395 . S
C828 C829 1.379 . S
C828 H838 0.930 . S
C829 C827 1.395 . S
C829 C828 1.379 . S
C829 H839 0.930 . S
C830 O808 1.264 . S
C830 O809 1.254 . S
C831 Eu767 2.848 . S
C831 O806 1.257 . S
C831 O811 1.249 . S
C831 C824 1.492 . S
H832 C815 0.930 . S
H833 C816 0.930 . S
H834 C817 0.930 . S
H835 C818 0.930 . S
H836 C825 0.930 . S
H837 C827 0.930 . S
H838 C828 0.930 . S
H839 C829 0.930 . S
Eu840 N871 2.657 1_455 S
Eu840 N878 2.609 . S
Eu840 O884 2.558 . S
Eu840 O885 2.612 . S
Eu840 O887 2.339 1_455 S
Eu840 O888 2.563 . S
Eu840 O889 2.419 . S
Eu840 O891 2.380 1_455 S
Eu840 O892 2.432 . S
Eu840 C904 2.848 . S
C841 C844 1.429 1_655 S
C841 C845 1.411 . S
C841 N848 1.377 . S
C842 C844 1.420 . S
C842 C846 1.423 . S
C842 C854 1.392 . S
C843 C845 1.420 . S
C843 C846 1.351 1_655 S
C843 H866 0.931 . S
C844 C841 1.429 1_455 S
C844 C842 1.420 . S
C844 N852 1.362 . S
C845 C841 1.411 . S
C845 C843 1.420 . S
C845 C850 1.395 . S
C846 C842 1.423 . S
C846 C843 1.351 1_455 S
C846 H858 0.930 . S
C847 C849 1.400 . S
C847 C850 1.386 . S
C847 H859 0.930 . S
N848 C841 1.377 . S
N848 C849 1.321 . S
N848 Eu851 2.609 . S
C849 C847 1.400 . S
C849 N848 1.321 . S
C849 H856 0.930 . S
C850 C845 1.395 . S
C850 C847 1.386 . S
C850 H869 0.930 . S
Eu851 N848 2.609 . S
Eu851 N852 2.657 1_655 S
Eu851 O885 2.380 1_655 S
Eu851 O886 2.432 . S
Eu851 O890 2.558 . S
Eu851 O891 2.612 . S
Eu851 O893 2.339 1_655 S
Eu851 O894 2.563 . S
Eu851 O895 2.419 . S
Eu851 C915 2.848 . S
N852 C844 1.362 . S
N852 Eu851 2.657 1_455 S
N852 C853 1.334 . S
C853 N852 1.334 . S
C853 C855 1.413 . S
C853 H860 0.929 . S
C854 C842 1.392 . S
C854 C855 1.367 . S
C854 H862 0.930 . S
C855 C853 1.413 . S
C855 C854 1.367 . S
C855 H857 0.930 . S
H856 C849 0.930 . S
H857 C855 0.930 . S
H858 C846 0.930 . S
H859 C847 0.930 . S
H860 C853 0.929 . S
H861 C875 0.930 . S
H862 C854 0.930 . S
H863 C881 0.930 . S
H864 C872 0.929 . S
H865 C879 0.930 . S
H866 C843 0.931 . S
H867 C873 0.930 . S
H868 C906 0.930 . S
H869 C850 0.930 . S
H870 C905 0.931 . S
N871 Eu840 2.657 1_655 S
N871 C872 1.334 . S
N871 C876 1.362 . S
C872 H864 0.929 . S
C872 N871 1.334 . S
C872 C875 1.413 . S
C873 H867 0.930 . S
C873 C874 1.392 . S
C873 C875 1.367 . S
C874 C873 1.392 . S
C874 C876 1.420 . S
C874 C906 1.423 . S
C875 H861 0.930 . S
C875 C872 1.413 . S
C875 C873 1.367 . S
C876 N871 1.362 . S
C876 C874 1.420 . S
C876 C880 1.429 1_655 S
H877 C882 0.930 . S
N878 Eu840 2.609 . S
N878 C880 1.377 . S
N878 C881 1.321 . S
C879 H865 0.930 . S
C879 C881 1.400 . S
C879 C882 1.386 . S
C880 C876 1.429 1_455 S
C880 N878 1.377 . S
C880 C883 1.411 . S
C881 H863 0.930 . S
C881 N878 1.321 . S
C881 C879 1.400 . S
C882 H877 0.930 . S
C882 C879 1.386 . S
C882 C883 1.395 . S
C883 C880 1.411 . S
C883 C882 1.395 . S
C883 C905 1.420 . S
O884 Eu840 2.558 . S
O884 C904 1.257 . S
O885 Eu840 2.612 . S
O885 Eu851 2.380 1_455 S
O885 C896 1.276 . S
O886 Eu851 2.432 . S
O886 C903 1.264 . S
O887 Eu840 2.339 1_655 S
O887 C903 1.254 . S
O888 Eu840 2.563 . S
O888 C896 1.235 . S
O889 Eu840 2.419 . S
O889 C904 1.249 . S
O890 Eu851 2.558 . S
O890 C915 1.257 . S
O891 Eu840 2.380 1_655 S
O891 Eu851 2.612 . S
O891 C907 1.276 . S
O892 Eu840 2.432 . S
O892 C914 1.264 . S
O893 Eu851 2.339 1_455 S
O893 C914 1.254 . S
O894 Eu851 2.563 . S
O894 C907 1.235 . S
O895 Eu851 2.419 . S
O895 C915 1.249 . S
C896 O885 1.276 . S
C896 O888 1.235 . S
C897 C899 1.393 . S
C897 C901 1.395 . S
C897 C904 1.492 . S
C898 C899 1.392 . S
C898 C900 1.386 . S
C899 C897 1.393 . S
C899 C898 1.392 . S
C899 H916 0.930 . S
C900 C898 1.386 . S
C900 C902 1.395 . S
C900 H917 0.930 . S
C901 C897 1.395 . S
C901 C902 1.379 . S
C901 H918 0.930 . S
C902 C900 1.395 . S
C902 C901 1.379 . S
C902 H919 0.930 . S
C903 O886 1.264 . S
C903 O887 1.254 . S
C904 Eu840 2.848 . S
C904 O884 1.257 . S
C904 O889 1.249 . S
C904 C897 1.492 . S
C905 H870 0.931 . S
C905 C883 1.420 . S
C905 C906 1.351 1_455 S
C906 H868 0.930 . S
C906 C874 1.423 . S
C906 C905 1.351 1_655 S
C907 O891 1.276 . S
C907 O894 1.235 . S
C908 C909 1.393 . S
C908 C912 1.395 . S
C908 C915 1.492 . S
C909 C908 1.393 . S
C909 C910 1.392 . S
C909 H920 0.930 . S
C910 C909 1.392 . S
C910 C911 1.386 . S
C911 C910 1.386 . S
C911 C913 1.395 . S
C911 H921 0.930 . S
C912 C908 1.395 . S
C912 C913 1.379 . S
C912 H922 0.930 . S
C913 C911 1.395 . S
C913 C912 1.379 . S
C913 H923 0.930 . S
C914 O892 1.264 . S
C914 O893 1.254 . S
C915 Eu851 2.848 . S
C915 O890 1.257 . S
C915 O895 1.249 . S
C915 C908 1.492 . S
H916 C899 0.930 . S
H917 C900 0.930 . S
H918 C901 0.930 . S
H919 C902 0.930 . S
H920 C909 0.930 . S
H921 C911 0.930 . S
H922 C912 0.930 . S
H923 C913 0.930 . S
Eu924 N955 2.657 . S
Eu924 N962 2.609 . S
Eu924 O968 2.558 . S
Eu924 O969 2.612 . S
Eu924 O971 2.339 . S
Eu924 O972 2.563 . S
Eu924 O973 2.419 . S
Eu924 O975 2.380 . S
Eu924 O976 2.432 . S
Eu924 C988 2.848 . S
C925 C928 1.429 . S
C925 C929 1.411 . S
C925 N932 1.377 . S
C926 C928 1.420 . S
C926 C930 1.423 . S
C926 C938 1.392 . S
C927 C929 1.420 . S
C927 C930 1.351 . S
C927 H950 0.931 . S
C928 C925 1.429 . S
C928 C926 1.420 . S
C928 N936 1.362 . S
C929 C925 1.411 . S
C929 C927 1.420 . S
C929 C934 1.395 . S
C930 C926 1.423 . S
C930 C927 1.351 . S
C930 H942 0.930 . S
C931 C933 1.400 . S
C931 C934 1.386 . S
C931 H943 0.930 . S
N932 C925 1.377 . S
N932 C933 1.321 . S
N932 Eu935 2.609 . S
C933 C931 1.400 . S
C933 N932 1.321 . S
C933 H940 0.930 . S
C934 C929 1.395 . S
C934 C931 1.386 . S
C934 H953 0.930 . S
Eu935 N932 2.609 . S
Eu935 N936 2.657 . S
Eu935 O969 2.380 . S
Eu935 O970 2.432 . S
Eu935 O974 2.558 . S
Eu935 O975 2.612 . S
Eu935 O977 2.339 . S
Eu935 O978 2.563 . S
Eu935 O979 2.419 . S
Eu935 C999 2.848 . S
N936 C928 1.362 . S
N936 Eu935 2.657 . S
N936 C937 1.334 . S
C937 N936 1.334 . S
C937 C939 1.413 . S
C937 H944 0.929 . S
C938 C926 1.392 . S
C938 C939 1.367 . S
C938 H946 0.930 . S
C939 C937 1.413 . S
C939 C938 1.367 . S
C939 H941 0.930 . S
H940 C933 0.930 . S
H941 C939 0.930 . S
H942 C930 0.930 . S
H943 C931 0.930 . S
H944 C937 0.929 . S
H945 C959 0.930 . S
H946 C938 0.930 . S
H947 C965 0.930 . S
H948 C956 0.929 . S
H949 C963 0.930 . S
H950 C927 0.931 . S
H951 C957 0.930 . S
H952 C990 0.930 . S
H953 C934 0.930 . S
H954 C989 0.931 . S
N955 Eu924 2.657 . S
N955 C956 1.334 . S
N955 C960 1.362 . S
C956 H948 0.929 . S
C956 N955 1.334 . S
C956 C959 1.413 . S
C957 H951 0.930 . S
C957 C958 1.392 . S
C957 C959 1.367 . S
C958 C957 1.392 . S
C958 C960 1.420 . S
C958 C990 1.423 . S
C959 H945 0.930 . S
C959 C956 1.413 . S
C959 C957 1.367 . S
C960 N955 1.362 . S
C960 C958 1.420 . S
C960 C964 1.429 . S
H961 C966 0.930 . S
N962 Eu924 2.609 . S
N962 C964 1.377 . S
N962 C965 1.321 . S
C963 H949 0.930 . S
C963 C965 1.400 . S
C963 C966 1.386 . S
C964 C960 1.429 . S
C964 N962 1.377 . S
C964 C967 1.411 . S
C965 H947 0.930 . S
C965 N962 1.321 . S
C965 C963 1.400 . S
C966 H961 0.930 . S
C966 C963 1.386 . S
C966 C967 1.395 . S
C967 C964 1.411 . S
C967 C966 1.395 . S
C967 C989 1.420 . S
O968 Eu924 2.558 . S
O968 C988 1.257 . S
O969 Eu924 2.612 . S
O969 Eu935 2.380 . S
O969 C980 1.276 . S
O970 Eu935 2.432 . S
O970 C987 1.264 . S
O971 Eu924 2.339 . S
O971 C987 1.254 . S
O972 Eu924 2.563 . S
O972 C980 1.235 . S
O973 Eu924 2.419 . S
O973 C988 1.249 . S
O974 Eu935 2.558 . S
O974 C999 1.257 . S
O975 Eu924 2.380 . S
O975 Eu935 2.612 . S
O975 C991 1.276 . S
O976 Eu924 2.432 . S
O976 C998 1.264 . S
O977 Eu935 2.339 . S
O977 C998 1.254 . S
O978 Eu935 2.563 . S
O978 C991 1.235 . S
O979 Eu935 2.419 . S
O979 C999 1.249 . S
C980 O969 1.276 . S
C980 O972 1.235 . S
C981 C983 1.393 . S
C981 C985 1.395 . S
C981 C988 1.492 . S
C982 C983 1.392 . S
C982 C984 1.386 . S
C983 C981 1.393 . S
C983 C982 1.392 . S
C983 H1000 0.930 . S
C984 C982 1.386 . S
C984 C986 1.395 . S
C984 H1001 0.930 . S
C985 C981 1.395 . S
C985 C986 1.379 . S
C985 H1002 0.930 . S
C986 C984 1.395 . S
C986 C985 1.379 . S
C986 H1003 0.930 . S
C987 O970 1.264 . S
C987 O971 1.254 . S
C988 Eu924 2.848 . S
C988 O968 1.257 . S
C988 O973 1.249 . S
C988 C981 1.492 . S
C989 H954 0.931 . S
C989 C967 1.420 . S
C989 C990 1.351 . S
C990 H952 0.930 . S
C990 C958 1.423 . S
C990 C989 1.351 . S
C991 O975 1.276 . S
C991 O978 1.235 . S
C992 C993 1.393 . S
C992 C996 1.395 . S
C992 C999 1.492 . S
C993 C992 1.393 . S
C993 C994 1.392 . S
C993 H1004 0.930 . S
C994 C993 1.392 . S
C994 C995 1.386 . S
C995 C994 1.386 . S
C995 C997 1.395 . S
C995 H1005 0.930 . S
C996 C992 1.395 . S
C996 C997 1.379 . S
C996 H1006 0.930 . S
C997 C995 1.395 . S
C997 C996 1.379 . S
C997 H1007 0.930 . S
C998 O976 1.264 . S
C998 O977 1.254 . S
C999 Eu935 2.848 . S
C999 O974 1.257 . S
C999 O979 1.249 . S
C999 C992 1.492 . S
H1000 C983 0.930 . S
H1001 C984 0.930 . S
H1002 C985 0.930 . S
H1003 C986 0.930 . S
H1004 C993 0.930 . S
H1005 C995 0.930 . S
H1006 C996 0.930 . S
H1007 C997 0.930 . S
Eu1008 N1039 2.657 . S
Eu1008 N1046 2.609 . S
Eu1008 O1052 2.558 . S
Eu1008 O1053 2.612 . S
Eu1008 O1055 2.339 . S
Eu1008 O1056 2.563 . S
Eu1008 O1057 2.419 . S
Eu1008 O1059 2.380 . S
Eu1008 O1060 2.432 . S
Eu1008 C1072 2.848 . S
C1009 C1012 1.429 . S
C1009 C1013 1.411 . S
C1009 N1016 1.377 . S
C1010 C1012 1.420 . S
C1010 C1014 1.423 . S
C1010 C1022 1.392 . S
C1011 C1013 1.420 . S
C1011 C1014 1.351 . S
C1011 H1034 0.931 . S
C1012 C1009 1.429 . S
C1012 C1010 1.420 . S
C1012 N1020 1.362 . S
C1013 C1009 1.411 . S
C1013 C1011 1.420 . S
C1013 C1018 1.395 . S
C1014 C1010 1.423 . S
C1014 C1011 1.351 . S
C1014 H1026 0.930 . S
C1015 C1017 1.400 . S
C1015 C1018 1.386 . S
C1015 H1027 0.930 . S
N1016 C1009 1.377 . S
N1016 C1017 1.321 . S
N1016 Eu1019 2.609 . S
C1017 C1015 1.400 . S
C1017 N1016 1.321 . S
C1017 H1024 0.930 . S
C1018 C1013 1.395 . S
C1018 C1015 1.386 . S
C1018 H1037 0.930 . S
Eu1019 N1016 2.609 . S
Eu1019 N1020 2.657 . S
Eu1019 O1053 2.380 . S
Eu1019 O1054 2.432 . S
Eu1019 O1058 2.558 . S
Eu1019 O1059 2.612 . S
Eu1019 O1061 2.339 . S
Eu1019 O1062 2.563 . S
Eu1019 O1063 2.419 . S
Eu1019 C1083 2.848 . S
N1020 C1012 1.362 . S
N1020 Eu1019 2.657 . S
N1020 C1021 1.334 . S
C1021 N1020 1.334 . S
C1021 C1023 1.413 . S
C1021 H1028 0.929 . S
C1022 C1010 1.392 . S
C1022 C1023 1.367 . S
C1022 H1030 0.930 . S
C1023 C1021 1.413 . S
C1023 C1022 1.367 . S
C1023 H1025 0.930 . S
H1024 C1017 0.930 . S
H1025 C1023 0.930 . S
H1026 C1014 0.930 . S
H1027 C1015 0.930 . S
H1028 C1021 0.929 . S
H1029 C1043 0.930 . S
H1030 C1022 0.930 . S
H1031 C1049 0.930 . S
H1032 C1040 0.929 . S
H1033 C1047 0.930 . S
H1034 C1011 0.931 . S
H1035 C1041 0.930 . S
H1036 C1074 0.930 . S
H1037 C1018 0.930 . S
H1038 C1073 0.931 . S
N1039 Eu1008 2.657 . S
N1039 C1040 1.334 . S
N1039 C1044 1.362 . S
C1040 H1032 0.929 . S
C1040 N1039 1.334 . S
C1040 C1043 1.413 . S
C1041 H1035 0.930 . S
C1041 C1042 1.392 . S
C1041 C1043 1.367 . S
C1042 C1041 1.392 . S
C1042 C1044 1.420 . S
C1042 C1074 1.423 . S
C1043 H1029 0.930 . S
C1043 C1040 1.413 . S
C1043 C1041 1.367 . S
C1044 N1039 1.362 . S
C1044 C1042 1.420 . S
C1044 C1048 1.429 . S
H1045 C1050 0.930 . S
N1046 Eu1008 2.609 . S
N1046 C1048 1.377 . S
N1046 C1049 1.321 . S
C1047 H1033 0.930 . S
C1047 C1049 1.400 . S
C1047 C1050 1.386 . S
C1048 C1044 1.429 . S
C1048 N1046 1.377 . S
C1048 C1051 1.411 . S
C1049 H1031 0.930 . S
C1049 N1046 1.321 . S
C1049 C1047 1.400 . S
C1050 H1045 0.930 . S
C1050 C1047 1.386 . S
C1050 C1051 1.395 . S
C1051 C1048 1.411 . S
C1051 C1050 1.395 . S
C1051 C1073 1.420 . S
O1052 Eu1008 2.558 . S
O1052 C1072 1.257 . S
O1053 Eu1008 2.612 . S
O1053 Eu1019 2.380 . S
O1053 C1064 1.276 . S
O1054 Eu1019 2.432 . S
O1054 C1071 1.264 . S
O1055 Eu1008 2.339 . S
O1055 C1071 1.254 . S
O1056 Eu1008 2.563 . S
O1056 C1064 1.235 . S
O1057 Eu1008 2.419 . S
O1057 C1072 1.249 . S
O1058 Eu1019 2.558 . S
O1058 C1083 1.257 . S
O1059 Eu1008 2.380 . S
O1059 Eu1019 2.612 . S
O1059 C1075 1.276 . S
O1060 Eu1008 2.432 . S
O1060 C1082 1.264 . S
O1061 Eu1019 2.339 . S
O1061 C1082 1.254 . S
O1062 Eu1019 2.563 . S
O1062 C1075 1.235 . S
O1063 Eu1019 2.419 . S
O1063 C1083 1.249 . S
C1064 O1053 1.276 . S
C1064 O1056 1.235 . S
C1065 C1067 1.393 . S
C1065 C1069 1.395 . S
C1065 C1072 1.492 . S
C1066 C1067 1.392 . S
C1066 C1068 1.386 . S
C1067 C1065 1.393 . S
C1067 C1066 1.392 . S
C1067 H1084 0.930 . S
C1068 C1066 1.386 . S
C1068 C1070 1.395 . S
C1068 H1085 0.930 . S
C1069 C1065 1.395 . S
C1069 C1070 1.379 . S
C1069 H1086 0.930 . S
C1070 C1068 1.395 . S
C1070 C1069 1.379 . S
C1070 H1087 0.930 . S
C1071 O1054 1.264 . S
C1071 O1055 1.254 . S
C1072 Eu1008 2.848 . S
C1072 O1052 1.257 . S
C1072 O1057 1.249 . S
C1072 C1065 1.492 . S
C1073 H1038 0.931 . S
C1073 C1051 1.420 . S
C1073 C1074 1.351 . S
C1074 H1036 0.930 . S
C1074 C1042 1.423 . S
C1074 C1073 1.351 . S
C1075 O1059 1.276 . S
C1075 O1062 1.235 . S
C1076 C1077 1.393 . S
C1076 C1080 1.395 . S
C1076 C1083 1.492 . S
C1077 C1076 1.393 . S
C1077 C1078 1.392 . S
C1077 H1088 0.930 . S
C1078 C1077 1.392 . S
C1078 C1079 1.386 . S
C1079 C1078 1.386 . S
C1079 C1081 1.395 . S
C1079 H1089 0.930 . S
C1080 C1076 1.395 . S
C1080 C1081 1.379 . S
C1080 H1090 0.930 . S
C1081 C1079 1.395 . S
C1081 C1080 1.379 . S
C1081 H1091 0.930 . S
C1082 O1060 1.264 . S
C1082 O1061 1.254 . S
C1083 Eu1019 2.848 . S
C1083 O1058 1.257 . S
C1083 O1063 1.249 . S
C1083 C1076 1.492 . S
H1084 C1067 0.930 . S
H1085 C1068 0.930 . S
H1086 C1069 0.930 . S
H1087 C1070 0.930 . S
H1088 C1077 0.930 . S
H1089 C1079 0.930 . S
H1090 C1080 0.930 . S
H1091 C1081 0.930 . S
Eu1092 N1123 2.657 . S
Eu1092 N1130 2.609 . S
Eu1092 O1136 2.558 . S
Eu1092 O1137 2.612 . S
Eu1092 O1139 2.339 . S
Eu1092 O1140 2.563 . S
Eu1092 O1141 2.419 . S
Eu1092 O1143 2.380 . S
Eu1092 O1144 2.432 . S
Eu1092 C1156 2.848 . S
C1093 C1096 1.429 . S
C1093 C1097 1.411 . S
C1093 N1100 1.377 . S
C1094 C1096 1.420 . S
C1094 C1098 1.423 . S
C1094 C1106 1.392 . S
C1095 C1097 1.420 . S
C1095 C1098 1.351 . S
C1095 H1118 0.931 . S
C1096 C1093 1.429 . S
C1096 C1094 1.420 . S
C1096 N1104 1.362 . S
C1097 C1093 1.411 . S
C1097 C1095 1.420 . S
C1097 C1102 1.395 . S
C1098 C1094 1.423 . S
C1098 C1095 1.351 . S
C1098 H1110 0.930 . S
C1099 C1101 1.400 . S
C1099 C1102 1.386 . S
C1099 H1111 0.930 . S
N1100 C1093 1.377 . S
N1100 C1101 1.321 . S
N1100 Eu1103 2.609 . S
C1101 C1099 1.400 . S
C1101 N1100 1.321 . S
C1101 H1108 0.930 . S
C1102 C1097 1.395 . S
C1102 C1099 1.386 . S
C1102 H1121 0.930 . S
Eu1103 N1100 2.609 . S
Eu1103 N1104 2.657 . S
Eu1103 O1137 2.380 . S
Eu1103 O1138 2.432 . S
Eu1103 O1142 2.558 . S
Eu1103 O1143 2.612 . S
Eu1103 O1145 2.339 . S
Eu1103 O1146 2.563 . S
Eu1103 O1147 2.419 . S
Eu1103 C1167 2.848 . S
N1104 C1096 1.362 . S
N1104 Eu1103 2.657 . S
N1104 C1105 1.334 . S
C1105 N1104 1.334 . S
C1105 C1107 1.413 . S
C1105 H1112 0.929 . S
C1106 C1094 1.392 . S
C1106 C1107 1.367 . S
C1106 H1114 0.930 . S
C1107 C1105 1.413 . S
C1107 C1106 1.367 . S
C1107 H1109 0.930 . S
H1108 C1101 0.930 . S
H1109 C1107 0.930 . S
H1110 C1098 0.930 . S
H1111 C1099 0.930 . S
H1112 C1105 0.929 . S
H1113 C1127 0.930 . S
H1114 C1106 0.930 . S
H1115 C1133 0.930 . S
H1116 C1124 0.929 . S
H1117 C1131 0.930 . S
H1118 C1095 0.931 . S
H1119 C1125 0.930 . S
H1120 C1158 0.930 . S
H1121 C1102 0.930 . S
H1122 C1157 0.931 . S
N1123 Eu1092 2.657 . S
N1123 C1124 1.334 . S
N1123 C1128 1.362 . S
C1124 H1116 0.929 . S
C1124 N1123 1.334 . S
C1124 C1127 1.413 . S
C1125 H1119 0.930 . S
C1125 C1126 1.392 . S
C1125 C1127 1.367 . S
C1126 C1125 1.392 . S
C1126 C1128 1.420 . S
C1126 C1158 1.423 . S
C1127 H1113 0.930 . S
C1127 C1124 1.413 . S
C1127 C1125 1.367 . S
C1128 N1123 1.362 . S
C1128 C1126 1.420 . S
C1128 C1132 1.429 . S
H1129 C1134 0.930 . S
N1130 Eu1092 2.609 . S
N1130 C1132 1.377 . S
N1130 C1133 1.321 . S
C1131 H1117 0.930 . S
C1131 C1133 1.400 . S
C1131 C1134 1.386 . S
C1132 C1128 1.429 . S
C1132 N1130 1.377 . S
C1132 C1135 1.411 . S
C1133 H1115 0.930 . S
C1133 N1130 1.321 . S
C1133 C1131 1.400 . S
C1134 H1129 0.930 . S
C1134 C1131 1.386 . S
C1134 C1135 1.395 . S
C1135 C1132 1.411 . S
C1135 C1134 1.395 . S
C1135 C1157 1.420 . S
O1136 Eu1092 2.558 . S
O1136 C1156 1.257 . S
O1137 Eu1092 2.612 . S
O1137 Eu1103 2.380 . S
O1137 C1148 1.276 . S
O1138 Eu1103 2.432 . S
O1138 C1155 1.264 . S
O1139 Eu1092 2.339 . S
O1139 C1155 1.254 . S
O1140 Eu1092 2.563 . S
O1140 C1148 1.235 . S
O1141 Eu1092 2.419 . S
O1141 C1156 1.249 . S
O1142 Eu1103 2.558 . S
O1142 C1167 1.257 . S
O1143 Eu1092 2.380 . S
O1143 Eu1103 2.612 . S
O1143 C1159 1.276 . S
O1144 Eu1092 2.432 . S
O1144 C1166 1.264 . S
O1145 Eu1103 2.339 . S
O1145 C1166 1.254 . S
O1146 Eu1103 2.563 . S
O1146 C1159 1.235 . S
O1147 Eu1103 2.419 . S
O1147 C1167 1.249 . S
C1148 O1137 1.276 . S
C1148 O1140 1.235 . S
C1149 C1151 1.393 . S
C1149 C1153 1.395 . S
C1149 C1156 1.492 . S
C1150 C1151 1.392 . S
C1150 C1152 1.386 . S
C1151 C1149 1.393 . S
C1151 C1150 1.392 . S
C1151 H1168 0.930 . S
C1152 C1150 1.386 . S
C1152 C1154 1.395 . S
C1152 H1169 0.930 . S
C1153 C1149 1.395 . S
C1153 C1154 1.379 . S
C1153 H1170 0.930 . S
C1154 C1152 1.395 . S
C1154 C1153 1.379 . S
C1154 H1171 0.930 . S
C1155 O1138 1.264 . S
C1155 O1139 1.254 . S
C1156 Eu1092 2.848 . S
C1156 O1136 1.257 . S
C1156 O1141 1.249 . S
C1156 C1149 1.492 . S
C1157 H1122 0.931 . S
C1157 C1135 1.420 . S
C1157 C1158 1.351 . S
C1158 H1120 0.930 . S
C1158 C1126 1.423 . S
C1158 C1157 1.351 . S
C1159 O1143 1.276 . S
C1159 O1146 1.235 . S
C1160 C1161 1.393 . S
C1160 C1164 1.395 . S
C1160 C1167 1.492 . S
C1161 C1160 1.393 . S
C1161 C1162 1.392 . S
C1161 H1172 0.930 . S
C1162 C1161 1.392 . S
C1162 C1163 1.386 . S
C1163 C1162 1.386 . S
C1163 C1165 1.395 . S
C1163 H1173 0.930 . S
C1164 C1160 1.395 . S
C1164 C1165 1.379 . S
C1164 H1174 0.930 . S
C1165 C1163 1.395 . S
C1165 C1164 1.379 . S
C1165 H1175 0.930 . S
C1166 O1144 1.264 . S
C1166 O1145 1.254 . S
C1167 Eu1103 2.848 . S
C1167 O1142 1.257 . S
C1167 O1147 1.249 . S
C1167 C1160 1.492 . S
H1168 C1151 0.930 . S
H1169 C1152 0.930 . S
H1170 C1153 0.930 . S
H1171 C1154 0.930 . S
H1172 C1161 0.930 . S
H1173 C1163 0.930 . S
H1174 C1164 0.930 . S
H1175 C1165 0.930 . S
Eu1176 N1207 2.657 . S
Eu1176 N1214 2.609 . S
Eu1176 O1220 2.558 . S
Eu1176 O1221 2.612 . S
Eu1176 O1223 2.339 . S
Eu1176 O1224 2.563 . S
Eu1176 O1225 2.419 . S
Eu1176 O1227 2.380 . S
Eu1176 O1228 2.432 . S
Eu1176 C1240 2.848 . S
C1177 C1180 1.429 . S
C1177 C1181 1.411 . S
C1177 N1184 1.377 . S
C1178 C1180 1.420 . S
C1178 C1182 1.423 . S
C1178 C1190 1.392 . S
C1179 C1181 1.420 . S
C1179 C1182 1.351 . S
C1179 H1202 0.931 . S
C1180 C1177 1.429 . S
C1180 C1178 1.420 . S
C1180 N1188 1.362 . S
C1181 C1177 1.411 . S
C1181 C1179 1.420 . S
C1181 C1186 1.395 . S
C1182 C1178 1.423 . S
C1182 C1179 1.351 . S
C1182 H1194 0.930 . S
C1183 C1185 1.400 . S
C1183 C1186 1.386 . S
C1183 H1195 0.930 . S
N1184 C1177 1.377 . S
N1184 C1185 1.321 . S
N1184 Eu1187 2.609 . S
C1185 C1183 1.400 . S
C1185 N1184 1.321 . S
C1185 H1192 0.930 . S
C1186 C1181 1.395 . S
C1186 C1183 1.386 . S
C1186 H1205 0.930 . S
Eu1187 N1184 2.609 . S
Eu1187 N1188 2.657 . S
Eu1187 O1221 2.380 . S
Eu1187 O1222 2.432 . S
Eu1187 O1226 2.558 . S
Eu1187 O1227 2.612 . S
Eu1187 O1229 2.339 . S
Eu1187 O1230 2.563 . S
Eu1187 O1231 2.419 . S
Eu1187 C1251 2.848 . S
N1188 C1180 1.362 . S
N1188 Eu1187 2.657 . S
N1188 C1189 1.334 . S
C1189 N1188 1.334 . S
C1189 C1191 1.413 . S
C1189 H1196 0.929 . S
C1190 C1178 1.392 . S
C1190 C1191 1.367 . S
C1190 H1198 0.930 . S
C1191 C1189 1.413 . S
C1191 C1190 1.367 . S
C1191 H1193 0.930 . S
H1192 C1185 0.930 . S
H1193 C1191 0.930 . S
H1194 C1182 0.930 . S
H1195 C1183 0.930 . S
H1196 C1189 0.929 . S
H1197 C1211 0.930 . S
H1198 C1190 0.930 . S
H1199 C1217 0.930 . S
H1200 C1208 0.929 . S
H1201 C1215 0.930 . S
H1202 C1179 0.931 . S
H1203 C1209 0.930 . S
H1204 C1242 0.930 . S
H1205 C1186 0.930 . S
H1206 C1241 0.931 . S
N1207 Eu1176 2.657 . S
N1207 C1208 1.334 . S
N1207 C1212 1.362 . S
C1208 H1200 0.929 . S
C1208 N1207 1.334 . S
C1208 C1211 1.413 . S
C1209 H1203 0.930 . S
C1209 C1210 1.392 . S
C1209 C1211 1.367 . S
C1210 C1209 1.392 . S
C1210 C1212 1.420 . S
C1210 C1242 1.423 . S
C1211 H1197 0.930 . S
C1211 C1208 1.413 . S
C1211 C1209 1.367 . S
C1212 N1207 1.362 . S
C1212 C1210 1.420 . S
C1212 C1216 1.429 . S
H1213 C1218 0.930 . S
N1214 Eu1176 2.609 . S
N1214 C1216 1.377 . S
N1214 C1217 1.321 . S
C1215 H1201 0.930 . S
C1215 C1217 1.400 . S
C1215 C1218 1.386 . S
C1216 C1212 1.429 . S
C1216 N1214 1.377 . S
C1216 C1219 1.411 . S
C1217 H1199 0.930 . S
C1217 N1214 1.321 . S
C1217 C1215 1.400 . S
C1218 H1213 0.930 . S
C1218 C1215 1.386 . S
C1218 C1219 1.395 . S
C1219 C1216 1.411 . S
C1219 C1218 1.395 . S
C1219 C1241 1.420 . S
O1220 Eu1176 2.558 . S
O1220 C1240 1.257 . S
O1221 Eu1176 2.612 . S
O1221 Eu1187 2.380 . S
O1221 C1232 1.276 . S
O1222 Eu1187 2.432 . S
O1222 C1239 1.264 . S
O1223 Eu1176 2.339 . S
O1223 C1239 1.254 . S
O1224 Eu1176 2.563 . S
O1224 C1232 1.235 . S
O1225 Eu1176 2.419 . S
O1225 C1240 1.249 . S
O1226 Eu1187 2.558 . S
O1226 C1251 1.257 . S
O1227 Eu1176 2.380 . S
O1227 Eu1187 2.612 . S
O1227 C1243 1.276 . S
O1228 Eu1176 2.432 . S
O1228 C1250 1.264 . S
O1229 Eu1187 2.339 . S
O1229 C1250 1.254 . S
O1230 Eu1187 2.563 . S
O1230 C1243 1.235 . S
O1231 Eu1187 2.419 . S
O1231 C1251 1.249 . S
C1232 O1221 1.276 . S
C1232 O1224 1.235 . S
C1233 C1235 1.393 . S
C1233 C1237 1.395 . S
C1233 C1240 1.492 . S
C1234 C1235 1.392 . S
C1234 C1236 1.386 . S
C1235 C1233 1.393 . S
C1235 C1234 1.392 . S
C1235 H1252 0.930 . S
C1236 C1234 1.386 . S
C1236 C1238 1.395 . S
C1236 H1253 0.930 . S
C1237 C1233 1.395 . S
C1237 C1238 1.379 . S
C1237 H1254 0.930 . S
C1238 C1236 1.395 . S
C1238 C1237 1.379 . S
C1238 H1255 0.930 . S
C1239 O1222 1.264 . S
C1239 O1223 1.254 . S
C1240 Eu1176 2.848 . S
C1240 O1220 1.257 . S
C1240 O1225 1.249 . S
C1240 C1233 1.492 . S
C1241 H1206 0.931 . S
C1241 C1219 1.420 . S
C1241 C1242 1.351 . S
C1242 H1204 0.930 . S
C1242 C1210 1.423 . S
C1242 C1241 1.351 . S
C1243 O1227 1.276 . S
C1243 O1230 1.235 . S
C1244 C1245 1.393 . S
C1244 C1248 1.395 . S
C1244 C1251 1.492 . S
C1245 C1244 1.393 . S
C1245 C1246 1.392 . S
C1245 H1256 0.930 . S
C1246 C1245 1.392 . S
C1246 C1247 1.386 . S
C1247 C1246 1.386 . S
C1247 C1249 1.395 . S
C1247 H1257 0.930 . S
C1248 C1244 1.395 . S
C1248 C1249 1.379 . S
C1248 H1258 0.930 . S
C1249 C1247 1.395 . S
C1249 C1248 1.379 . S
C1249 H1259 0.930 . S
C1250 O1228 1.264 . S
C1250 O1229 1.254 . S
C1251 Eu1187 2.848 . S
C1251 O1226 1.257 . S
C1251 O1231 1.249 . S
C1251 C1244 1.492 . S
H1252 C1235 0.930 . S
H1253 C1236 0.930 . S
H1254 C1237 0.930 . S
H1255 C1238 0.930 . S
H1256 C1245 0.930 . S
H1257 C1247 0.930 . S
H1258 C1248 0.930 . S
H1259 C1249 0.930 . S
Eu1260 N1291 2.657 . S
Eu1260 N1298 2.609 . S
Eu1260 O1304 2.558 . S
Eu1260 O1305 2.612 1_554 S
Eu1260 O1307 2.339 1_655 S
Eu1260 O1308 2.563 1_554 S
Eu1260 O1309 2.419 . S
Eu1260 O1311 2.380 1_655 S
Eu1260 O1312 2.432 1_554 S
Eu1260 C1324 2.848 . S
C1261 C1264 1.429 . S
C1261 C1265 1.411 . S
C1261 N1268 1.377 . S
C1262 C1264 1.420 . S
C1262 C1266 1.423 . S
C1262 C1274 1.392 1_455 S
C1263 C1265 1.420 . S
C1263 C1266 1.351 . S
C1263 H1286 0.931 . S
C1264 C1261 1.429 . S
C1264 C1262 1.420 . S
C1264 N1272 1.362 . S
C1265 C1261 1.411 . S
C1265 C1263 1.420 . S
C1265 C1270 1.395 . S
C1266 C1262 1.423 . S
C1266 C1263 1.351 . S
C1266 H1278 0.930 . S
C1267 C1269 1.400 . S
C1267 C1270 1.386 . S
C1267 H1279 0.930 . S
N1268 C1261 1.377 . S
N1268 C1269 1.321 . S
N1268 Eu1271 2.609 . S
C1269 C1267 1.400 . S
C1269 N1268 1.321 . S
C1269 H1276 0.930 . S
C1270 C1265 1.395 . S
C1270 C1267 1.386 . S
C1270 H1289 0.930 . S
Eu1271 N1268 2.609 . S
Eu1271 N1272 2.657 . S
Eu1271 O1305 2.380 1_455 S
Eu1271 O1306 2.432 1_556 S
Eu1271 O1310 2.558 . S
Eu1271 O1311 2.612 1_556 S
Eu1271 O1313 2.339 1_455 S
Eu1271 O1314 2.563 1_556 S
Eu1271 O1315 2.419 . S
Eu1271 C1335 2.848 . S
N1272 C1264 1.362 . S
N1272 Eu1271 2.657 . S
N1272 C1273 1.334 1_455 S
C1273 N1272 1.334 1_655 S
C1273 C1275 1.413 . S
C1273 H1280 0.929 . S
C1274 C1262 1.392 1_655 S
C1274 C1275 1.367 . S
C1274 H1282 0.930 . S
C1275 C1273 1.413 . S
C1275 C1274 1.367 . S
C1275 H1277 0.930 . S
H1276 C1269 0.930 . S
H1277 C1275 0.930 . S
H1278 C1266 0.930 . S
H1279 C1267 0.930 . S
H1280 C1273 0.929 . S
H1281 C1295 0.930 . S
H1282 C1274 0.930 . S
H1283 C1301 0.930 . S
H1284 C1292 0.929 . S
H1285 C1299 0.930 . S
H1286 C1263 0.931 . S
H1287 C1293 0.930 . S
H1288 C1326 0.930 . S
H1289 C1270 0.930 . S
H1290 C1325 0.931 . S
N1291 Eu1260 2.657 . S
N1291 C1292 1.334 1_655 S
N1291 C1296 1.362 . S
C1292 H1284 0.929 . S
C1292 N1291 1.334 1_455 S
C1292 C1295 1.413 . S
C1293 H1287 0.930 . S
C1293 C1294 1.392 1_455 S
C1293 C1295 1.367 . S
C1294 C1293 1.392 1_655 S
C1294 C1296 1.420 . S
C1294 C1326 1.423 . S
C1295 H1281 0.930 . S
C1295 C1292 1.413 . S
C1295 C1293 1.367 . S
C1296 N1291 1.362 . S
C1296 C1294 1.420 . S
C1296 C1300 1.429 . S
H1297 C1302 0.930 . S
N1298 Eu1260 2.609 . S
N1298 C1300 1.377 . S
N1298 C1301 1.321 . S
C1299 H1285 0.930 . S
C1299 C1301 1.400 . S
C1299 C1302 1.386 . S
C1300 C1296 1.429 . S
C1300 N1298 1.377 . S
C1300 C1303 1.411 . S
C1301 H1283 0.930 . S
C1301 N1298 1.321 . S
C1301 C1299 1.400 . S
C1302 H1297 0.930 . S
C1302 C1299 1.386 . S
C1302 C1303 1.395 . S
C1303 C1300 1.411 . S
C1303 C1302 1.395 . S
C1303 C1325 1.420 . S
O1304 Eu1260 2.558 . S
O1304 C1324 1.257 . S
O1305 Eu1260 2.612 1_556 S
O1305 Eu1271 2.380 1_655 S
O1305 C1316 1.276 . S
O1306 Eu1271 2.432 1_554 S
O1306 C1323 1.264 . S
O1307 Eu1260 2.339 1_455 S
O1307 C1323 1.254 . S
O1308 Eu1260 2.563 1_556 S
O1308 C1316 1.235 . S
O1309 Eu1260 2.419 . S
O1309 C1324 1.249 . S
O1310 Eu1271 2.558 . S
O1310 C1335 1.257 . S
O1311 Eu1260 2.380 1_455 S
O1311 Eu1271 2.612 1_554 S
O1311 C1327 1.276 . S
O1312 Eu1260 2.432 1_556 S
O1312 C1334 1.264 . S
O1313 Eu1271 2.339 1_655 S
O1313 C1334 1.254 . S
O1314 Eu1271 2.563 1_554 S
O1314 C1327 1.235 . S
O1315 Eu1271 2.419 . S
O1315 C1335 1.249 . S
C1316 O1305 1.276 . S
C1316 O1308 1.235 . S
C1317 C1319 1.393 . S
C1317 C1321 1.395 . S
C1317 C1324 1.492 . S
C1318 C1319 1.392 . S
C1318 C1320 1.386 . S
C1319 C1317 1.393 . S
C1319 C1318 1.392 . S
C1319 H1336 0.930 . S
C1320 C1318 1.386 . S
C1320 C1322 1.395 . S
C1320 H1337 0.930 . S
C1321 C1317 1.395 . S
C1321 C1322 1.379 . S
C1321 H1338 0.930 . S
C1322 C1320 1.395 . S
C1322 C1321 1.379 . S
C1322 H1339 0.930 . S
C1323 O1306 1.264 . S
C1323 O1307 1.254 . S
C1324 Eu1260 2.848 . S
C1324 O1304 1.257 . S
C1324 O1309 1.249 . S
C1324 C1317 1.492 . S
C1325 H1290 0.931 . S
C1325 C1303 1.420 . S
C1325 C1326 1.351 . S
C1326 H1288 0.930 . S
C1326 C1294 1.423 . S
C1326 C1325 1.351 . S
C1327 O1311 1.276 . S
C1327 O1314 1.235 . S
C1328 C1329 1.393 . S
C1328 C1332 1.395 . S
C1328 C1335 1.492 . S
C1329 C1328 1.393 . S
C1329 C1330 1.392 . S
C1329 H1340 0.930 . S
C1330 C1329 1.392 . S
C1330 C1331 1.386 . S
C1331 C1330 1.386 . S
C1331 C1333 1.395 . S
C1331 H1341 0.930 . S
C1332 C1328 1.395 . S
C1332 C1333 1.379 . S
C1332 H1342 0.930 . S
C1333 C1331 1.395 . S
C1333 C1332 1.379 . S
C1333 H1343 0.930 . S
C1334 O1312 1.264 . S
C1334 O1313 1.254 . S
C1335 Eu1271 2.848 . S
C1335 O1310 1.257 . S
C1335 O1315 1.249 . S
C1335 C1328 1.492 . S
H1336 C1319 0.930 . S
H1337 C1320 0.930 . S
H1338 C1321 0.930 . S
H1339 C1322 0.930 . S
H1340 C1329 0.930 . S
H1341 C1331 0.930 . S
H1342 C1332 0.930 . S
H1343 C1333 0.930 . S
C1344 C1345 1.349 . S
C1344 C1346 1.327 . S
C1344 H1369 0.950 . S
C1345 C1344 1.349 . S
C1345 C1361 1.349 . S
C1346 C1344 1.327 . S
C1346 C1365 1.429 . S
C1346 H1370 0.950 . S
C1347 C1364 1.574 . S
C1347 C1366 1.368 . S
C1347 H1371 0.949 . S
H1348 C1352 0.949 . S
C1349 C1350 1.349 . S
C1349 C1351 1.327 . S
C1349 H1372 0.950 . S
C1350 C1349 1.349 . S
C1350 C1362 1.349 . S
C1351 C1349 1.327 . S
C1351 C1367 1.429 . S
C1351 H1373 0.950 . S
C1352 H1348 0.949 . S
C1352 C1360 1.574 . S
C1352 C1368 1.368 . S
H1353 C1361 0.950 . S
H1354 C1359 0.950 . S
H1355 C1360 0.949 . S
H1356 C1362 0.950 . S
H1357 C1363 0.950 . S
H1358 C1364 0.949 . S
C1359 H1354 0.950 . S
C1359 C1361 1.327 . S
C1359 C1365 1.429 . S
C1360 C1352 1.574 . S
C1360 H1355 0.949 . S
C1360 C1366 1.368 . S
C1361 C1345 1.349 . S
C1361 H1353 0.950 . S
C1361 C1359 1.327 . S
C1362 C1350 1.349 . S
C1362 H1356 0.950 . S
C1362 C1363 1.327 . S
C1363 H1357 0.950 . S
C1363 C1362 1.327 . S
C1363 C1367 1.429 . S
C1364 C1347 1.574 . S
C1364 H1358 0.949 . S
C1364 C1368 1.368 . S
C1365 C1346 1.429 . S
C1365 C1359 1.429 . S
C1365 C1366 1.523 . S
C1366 C1347 1.368 . S
C1366 C1360 1.368 . S
C1366 C1365 1.523 . S
C1367 C1351 1.429 . S
C1367 C1363 1.429 . S
C1367 C1368 1.523 . S
C1368 C1352 1.368 . S
C1368 C1364 1.368 . S
C1368 C1367 1.523 . S
H1369 C1344 0.950 . S
H1370 C1346 0.950 . S
H1371 C1347 0.949 . S
H1372 C1349 0.950 . S
H1373 C1351 0.950 . S
C1374 C1375 1.349 . S
C1374 C1376 1.327 . S
C1374 H1399 0.950 . S
C1375 C1374 1.349 . S
C1375 C1391 1.349 . S
C1376 C1374 1.327 . S
C1376 C1395 1.429 . S
C1376 H1400 0.950 . S
C1377 C1394 1.574 . S
C1377 C1396 1.368 . S
C1377 H1401 0.949 . S
H1378 C1382 0.949 . S
C1379 C1380 1.349 . S
C1379 C1381 1.327 . S
C1379 H1402 0.950 . S
C1380 C1379 1.349 . S
C1380 C1392 1.349 . S
C1381 C1379 1.327 . S
C1381 C1397 1.429 . S
C1381 H1403 0.950 . S
C1382 H1378 0.949 . S
C1382 C1390 1.574 . S
C1382 C1398 1.368 . S
H1383 C1391 0.950 . S
H1384 C1389 0.950 . S
H1385 C1390 0.949 . S
H1386 C1392 0.950 . S
H1387 C1393 0.950 . S
H1388 C1394 0.949 . S
C1389 H1384 0.950 . S
C1389 C1391 1.327 . S
C1389 C1395 1.429 . S
C1390 C1382 1.574 . S
C1390 H1385 0.949 . S
C1390 C1396 1.368 . S
C1391 C1375 1.349 . S
C1391 H1383 0.950 . S
C1391 C1389 1.327 . S
C1392 C1380 1.349 . S
C1392 H1386 0.950 . S
C1392 C1393 1.327 . S
C1393 H1387 0.950 . S
C1393 C1392 1.327 . S
C1393 C1397 1.429 . S
C1394 C1377 1.574 . S
C1394 H1388 0.949 . S
C1394 C1398 1.368 . S
C1395 C1376 1.429 . S
C1395 C1389 1.429 . S
C1395 C1396 1.523 . S
C1396 C1377 1.368 . S
C1396 C1390 1.368 . S
C1396 C1395 1.523 . S
C1397 C1381 1.429 . S
C1397 C1393 1.429 . S
C1397 C1398 1.523 . S
C1398 C1382 1.368 . S
C1398 C1394 1.368 . S
C1398 C1397 1.523 . S
H1399 C1374 0.950 . S
H1400 C1376 0.950 . S
H1401 C1377 0.949 . S
H1402 C1379 0.950 . S
H1403 C1381 0.950 . S
C1404 C1405 1.349 . S
C1404 C1406 1.327 . S
C1404 H1429 0.950 . S
C1405 C1404 1.349 . S
C1405 C1421 1.349 . S
C1406 C1404 1.327 . S
C1406 C1425 1.429 . S
C1406 H1430 0.950 . S
C1407 C1424 1.574 . S
C1407 C1426 1.368 . S
C1407 H1431 0.949 . S
H1408 C1412 0.949 . S
C1409 C1410 1.349 . S
C1409 C1411 1.327 . S
C1409 H1432 0.950 . S
C1410 C1409 1.349 . S
C1410 C1422 1.349 . S
C1411 C1409 1.327 . S
C1411 C1427 1.429 . S
C1411 H1433 0.950 . S
C1412 H1408 0.949 . S
C1412 C1420 1.574 . S
C1412 C1428 1.368 . S
H1413 C1421 0.950 . S
H1414 C1419 0.950 . S
H1415 C1420 0.949 . S
H1416 C1422 0.950 . S
H1417 C1423 0.950 . S
H1418 C1424 0.949 . S
C1419 H1414 0.950 . S
C1419 C1421 1.327 . S
C1419 C1425 1.429 . S
C1420 C1412 1.574 . S
C1420 H1415 0.949 . S
C1420 C1426 1.368 . S
C1421 C1405 1.349 . S
C1421 H1413 0.950 . S
C1421 C1419 1.327 . S
C1422 C1410 1.349 . S
C1422 H1416 0.950 . S
C1422 C1423 1.327 . S
C1423 H1417 0.950 . S
C1423 C1422 1.327 . S
C1423 C1427 1.429 . S
C1424 C1407 1.574 . S
C1424 H1418 0.949 . S
C1424 C1428 1.368 . S
C1425 C1406 1.429 . S
C1425 C1419 1.429 . S
C1425 C1426 1.523 . S
C1426 C1407 1.368 . S
C1426 C1420 1.368 . S
C1426 C1425 1.523 . S
C1427 C1411 1.429 . S
C1427 C1423 1.429 . S
C1427 C1428 1.523 . S
C1428 C1412 1.368 . S
C1428 C1424 1.368 . S
C1428 C1427 1.523 . S
H1429 C1404 0.950 . S
H1430 C1406 0.950 . S
H1431 C1407 0.949 . S
H1432 C1409 0.950 . S
H1433 C1411 0.950 . S
C1434 C1435 1.349 . S
C1434 C1436 1.327 . S
C1434 H1459 0.950 . S
C1435 C1434 1.349 . S
C1435 C1451 1.349 . S
C1436 C1434 1.327 . S
C1436 C1455 1.429 . S
C1436 H1460 0.950 . S
C1437 C1454 1.574 . S
C1437 C1456 1.368 . S
C1437 H1461 0.949 . S
H1438 C1442 0.949 . S
C1439 C1440 1.349 . S
C1439 C1441 1.327 . S
C1439 H1462 0.950 . S
C1440 C1439 1.349 . S
C1440 C1452 1.349 . S
C1441 C1439 1.327 . S
C1441 C1457 1.429 . S
C1441 H1463 0.950 . S
C1442 H1438 0.949 . S
C1442 C1450 1.574 . S
C1442 C1458 1.368 . S
H1443 C1451 0.950 . S
H1444 C1449 0.950 . S
H1445 C1450 0.949 . S
H1446 C1452 0.950 . S
H1447 C1453 0.950 . S
H1448 C1454 0.949 . S
C1449 H1444 0.950 . S
C1449 C1451 1.327 . S
C1449 C1455 1.429 . S
C1450 C1442 1.574 . S
C1450 H1445 0.949 . S
C1450 C1456 1.368 . S
C1451 C1435 1.349 . S
C1451 H1443 0.950 . S
C1451 C1449 1.327 . S
C1452 C1440 1.349 . S
C1452 H1446 0.950 . S
C1452 C1453 1.327 . S
C1453 H1447 0.950 . S
C1453 C1452 1.327 . S
C1453 C1457 1.429 . S
C1454 C1437 1.574 . S
C1454 H1448 0.949 . S
C1454 C1458 1.368 . S
C1455 C1436 1.429 . S
C1455 C1449 1.429 . S
C1455 C1456 1.523 . S
C1456 C1437 1.368 . S
C1456 C1450 1.368 . S
C1456 C1455 1.523 . S
C1457 C1441 1.429 . S
C1457 C1453 1.429 . S
C1457 C1458 1.523 . S
C1458 C1442 1.368 . S
C1458 C1454 1.368 . S
C1458 C1457 1.523 . S
H1459 C1434 0.950 . S
H1460 C1436 0.950 . S
H1461 C1437 0.949 . S
H1462 C1439 0.950 . S
H1463 C1441 0.950 . S
C1464 C1465 1.349 . S
C1464 C1466 1.327 . S
C1464 H1489 0.950 . S
C1465 C1464 1.349 . S
C1465 C1481 1.349 . S
C1466 C1464 1.327 . S
C1466 C1485 1.429 . S
C1466 H1490 0.950 . S
C1467 C1484 1.574 . S
C1467 C1486 1.368 . S
C1467 H1491 0.949 . S
H1468 C1472 0.949 . S
C1469 C1470 1.349 . S
C1469 C1471 1.327 . S
C1469 H1492 0.950 . S
C1470 C1469 1.349 . S
C1470 C1482 1.349 . S
C1471 C1469 1.327 . S
C1471 C1487 1.429 . S
C1471 H1493 0.950 . S
C1472 H1468 0.949 . S
C1472 C1480 1.574 . S
C1472 C1488 1.368 . S
H1473 C1481 0.950 . S
H1474 C1479 0.950 . S
H1475 C1480 0.949 . S
H1476 C1482 0.950 . S
H1477 C1483 0.950 . S
H1478 C1484 0.949 . S
C1479 H1474 0.950 . S
C1479 C1481 1.327 . S
C1479 C1485 1.429 . S
C1480 C1472 1.574 . S
C1480 H1475 0.949 . S
C1480 C1486 1.368 . S
C1481 C1465 1.349 . S
C1481 H1473 0.950 . S
C1481 C1479 1.327 . S
C1482 C1470 1.349 . S
C1482 H1476 0.950 . S
C1482 C1483 1.327 . S
C1483 H1477 0.950 . S
C1483 C1482 1.327 . S
C1483 C1487 1.429 . S
C1484 C1467 1.574 . S
C1484 H1478 0.949 . S
C1484 C1488 1.368 . S
C1485 C1466 1.429 . S
C1485 C1479 1.429 . S
C1485 C1486 1.523 . S
C1486 C1467 1.368 . S
C1486 C1480 1.368 . S
C1486 C1485 1.523 . S
C1487 C1471 1.429 . S
C1487 C1483 1.429 . S
C1487 C1488 1.523 . S
C1488 C1472 1.368 . S
C1488 C1484 1.368 . S
C1488 C1487 1.523 . S
H1489 C1464 0.950 . S
H1490 C1466 0.950 . S
H1491 C1467 0.949 . S
H1492 C1469 0.950 . S
H1493 C1471 0.950 . S
C1494 C1495 1.349 . S
C1494 C1496 1.327 . S
C1494 H1519 0.950 . S
C1495 C1494 1.349 . S
C1495 C1511 1.349 . S
C1496 C1494 1.327 . S
C1496 C1515 1.429 . S
C1496 H1520 0.950 . S
C1497 C1514 1.574 . S
C1497 C1516 1.368 . S
C1497 H1521 0.949 . S
H1498 C1502 0.949 . S
C1499 C1500 1.349 . S
C1499 C1501 1.327 . S
C1499 H1522 0.950 . S
C1500 C1499 1.349 . S
C1500 C1512 1.349 . S
C1501 C1499 1.327 . S
C1501 C1517 1.429 . S
C1501 H1523 0.950 . S
C1502 H1498 0.949 . S
C1502 C1510 1.574 . S
C1502 C1518 1.368 . S
H1503 C1511 0.950 . S
H1504 C1509 0.950 . S
H1505 C1510 0.949 . S
H1506 C1512 0.950 . S
H1507 C1513 0.950 . S
H1508 C1514 0.949 . S
C1509 H1504 0.950 . S
C1509 C1511 1.327 . S
C1509 C1515 1.429 . S
C1510 C1502 1.574 . S
C1510 H1505 0.949 . S
C1510 C1516 1.368 . S
C1511 C1495 1.349 . S
C1511 H1503 0.950 . S
C1511 C1509 1.327 . S
C1512 C1500 1.349 . S
C1512 H1506 0.950 . S
C1512 C1513 1.327 . S
C1513 H1507 0.950 . S
C1513 C1512 1.327 . S
C1513 C1517 1.429 . S
C1514 C1497 1.574 . S
C1514 H1508 0.949 . S
C1514 C1518 1.368 . S
C1515 C1496 1.429 . S
C1515 C1509 1.429 . S
C1515 C1516 1.523 . S
C1516 C1497 1.368 . S
C1516 C1510 1.368 . S
C1516 C1515 1.523 . S
C1517 C1501 1.429 . S
C1517 C1513 1.429 . S
C1517 C1518 1.523 . S
C1518 C1502 1.368 . S
C1518 C1514 1.368 . S
C1518 C1517 1.523 . S
H1519 C1494 0.950 . S
H1520 C1496 0.950 . S
H1521 C1497 0.949 . S
H1522 C1499 0.950 . S
H1523 C1501 0.950 . S
C1524 C1525 1.349 . S
C1524 C1526 1.327 . S
C1524 H1549 0.950 . S
C1525 C1524 1.349 . S
C1525 C1541 1.349 . S
C1526 C1524 1.327 . S
C1526 C1545 1.429 . S
C1526 H1550 0.950 . S
C1527 C1544 1.574 . S
C1527 C1546 1.368 . S
C1527 H1551 0.949 . S
H1528 C1532 0.949 . S
C1529 C1530 1.349 . S
C1529 C1531 1.327 . S
C1529 H1552 0.950 . S
C1530 C1529 1.349 . S
C1530 C1542 1.349 . S
C1531 C1529 1.327 . S
C1531 C1547 1.429 . S
C1531 H1553 0.950 . S
C1532 H1528 0.949 . S
C1532 C1540 1.574 . S
C1532 C1548 1.368 . S
H1533 C1541 0.950 . S
H1534 C1539 0.950 . S
H1535 C1540 0.949 . S
H1536 C1542 0.950 . S
H1537 C1543 0.950 . S
H1538 C1544 0.949 . S
C1539 H1534 0.950 . S
C1539 C1541 1.327 . S
C1539 C1545 1.429 . S
C1540 C1532 1.574 . S
C1540 H1535 0.949 . S
C1540 C1546 1.368 . S
C1541 C1525 1.349 . S
C1541 H1533 0.950 . S
C1541 C1539 1.327 . S
C1542 C1530 1.349 . S
C1542 H1536 0.950 . S
C1542 C1543 1.327 . S
C1543 H1537 0.950 . S
C1543 C1542 1.327 . S
C1543 C1547 1.429 . S
C1544 C1527 1.574 . S
C1544 H1538 0.949 . S
C1544 C1548 1.368 . S
C1545 C1526 1.429 . S
C1545 C1539 1.429 . S
C1545 C1546 1.523 . S
C1546 C1527 1.368 . S
C1546 C1540 1.368 . S
C1546 C1545 1.523 . S
C1547 C1531 1.429 . S
C1547 C1543 1.429 . S
C1547 C1548 1.523 . S
C1548 C1532 1.368 . S
C1548 C1544 1.368 . S
C1548 C1547 1.523 . S
H1549 C1524 0.950 . S
H1550 C1526 0.950 . S
H1551 C1527 0.949 . S
H1552 C1529 0.950 . S
H1553 C1531 0.950 . S
C1554 C1555 1.349 . S
C1554 C1556 1.327 . S
C1554 H1579 0.950 . S
C1555 C1554 1.349 . S
C1555 C1571 1.349 . S
C1556 C1554 1.327 . S
C1556 C1575 1.429 . S
C1556 H1580 0.950 . S
C1557 C1574 1.574 . S
C1557 C1576 1.368 . S
C1557 H1581 0.949 . S
H1558 C1562 0.949 . S
C1559 C1560 1.349 . S
C1559 C1561 1.327 . S
C1559 H1582 0.950 . S
C1560 C1559 1.349 . S
C1560 C1572 1.349 . S
C1561 C1559 1.327 . S
C1561 C1577 1.429 . S
C1561 H1583 0.950 . S
C1562 H1558 0.949 . S
C1562 C1570 1.574 . S
C1562 C1578 1.368 . S
H1563 C1571 0.950 . S
H1564 C1569 0.950 . S
H1565 C1570 0.949 . S
H1566 C1572 0.950 . S
H1567 C1573 0.950 . S
H1568 C1574 0.949 . S
C1569 H1564 0.950 . S
C1569 C1571 1.327 . S
C1569 C1575 1.429 . S
C1570 C1562 1.574 . S
C1570 H1565 0.949 . S
C1570 C1576 1.368 . S
C1571 C1555 1.349 . S
C1571 H1563 0.950 . S
C1571 C1569 1.327 . S
C1572 C1560 1.349 . S
C1572 H1566 0.950 . S
C1572 C1573 1.327 . S
C1573 H1567 0.950 . S
C1573 C1572 1.327 . S
C1573 C1577 1.429 . S
C1574 C1557 1.574 . S
C1574 H1568 0.949 . S
C1574 C1578 1.368 . S
C1575 C1556 1.429 . S
C1575 C1569 1.429 . S
C1575 C1576 1.523 . S
C1576 C1557 1.368 . S
C1576 C1570 1.368 . S
C1576 C1575 1.523 . S
C1577 C1561 1.429 . S
C1577 C1573 1.429 . S
C1577 C1578 1.523 . S
C1578 C1562 1.368 . S
C1578 C1574 1.368 . S
C1578 C1577 1.523 . S
H1579 C1554 0.950 . S
H1580 C1556 0.950 . S
H1581 C1557 0.949 . S
H1582 C1559 0.950 . S
H1583 C1561 0.950 . S
C1584 C1585 1.349 . S
C1584 C1586 1.327 . S
C1584 H1609 0.950 . S
C1585 C1584 1.349 . S
C1585 C1601 1.349 . S
C1586 C1584 1.327 . S
C1586 C1605 1.429 . S
C1586 H1610 0.950 . S
C1587 C1604 1.574 . S
C1587 C1606 1.368 . S
C1587 H1611 0.949 . S
H1588 C1592 0.949 . S
C1589 C1590 1.349 . S
C1589 C1591 1.327 . S
C1589 H1612 0.950 . S
C1590 C1589 1.349 . S
C1590 C1602 1.349 . S
C1591 C1589 1.327 . S
C1591 C1607 1.429 . S
C1591 H1613 0.950 . S
C1592 H1588 0.949 . S
C1592 C1600 1.574 . S
C1592 C1608 1.368 . S
H1593 C1601 0.950 . S
H1594 C1599 0.950 . S
H1595 C1600 0.949 . S
H1596 C1602 0.950 . S
H1597 C1603 0.950 . S
H1598 C1604 0.949 . S
C1599 H1594 0.950 . S
C1599 C1601 1.327 . S
C1599 C1605 1.429 . S
C1600 C1592 1.574 . S
C1600 H1595 0.949 . S
C1600 C1606 1.368 . S
C1601 C1585 1.349 . S
C1601 H1593 0.950 . S
C1601 C1599 1.327 . S
C1602 C1590 1.349 . S
C1602 H1596 0.950 . S
C1602 C1603 1.327 . S
C1603 H1597 0.950 . S
C1603 C1602 1.327 . S
C1603 C1607 1.429 . S
C1604 C1587 1.574 . S
C1604 H1598 0.949 . S
C1604 C1608 1.368 . S
C1605 C1586 1.429 . S
C1605 C1599 1.429 . S
C1605 C1606 1.523 . S
C1606 C1587 1.368 . S
C1606 C1600 1.368 . S
C1606 C1605 1.523 . S
C1607 C1591 1.429 . S
C1607 C1603 1.429 . S
C1607 C1608 1.523 . S
C1608 C1592 1.368 . S
C1608 C1604 1.368 . S
C1608 C1607 1.523 . S
H1609 C1584 0.950 . S
H1610 C1586 0.950 . S
H1611 C1587 0.949 . S
H1612 C1589 0.950 . S
H1613 C1591 0.950 . S
C1614 C1615 1.349 . S
C1614 C1616 1.327 . S
C1614 H1639 0.950 . S
C1615 C1614 1.349 . S
C1615 C1631 1.349 . S
C1616 C1614 1.327 . S
C1616 C1635 1.429 . S
C1616 H1640 0.950 . S
C1617 C1634 1.574 . S
C1617 C1636 1.368 . S
C1617 H1641 0.949 . S
H1618 C1622 0.949 . S
C1619 C1620 1.349 . S
C1619 C1621 1.327 . S
C1619 H1642 0.950 . S
C1620 C1619 1.349 . S
C1620 C1632 1.349 . S
C1621 C1619 1.327 . S
C1621 C1637 1.429 . S
C1621 H1643 0.950 . S
C1622 H1618 0.949 . S
C1622 C1630 1.574 . S
C1622 C1638 1.368 . S
H1623 C1631 0.950 . S
H1624 C1629 0.950 . S
H1625 C1630 0.949 . S
H1626 C1632 0.950 . S
H1627 C1633 0.950 . S
H1628 C1634 0.949 . S
C1629 H1624 0.950 . S
C1629 C1631 1.327 . S
C1629 C1635 1.429 . S
C1630 C1622 1.574 . S
C1630 H1625 0.949 . S
C1630 C1636 1.368 . S
C1631 C1615 1.349 . S
C1631 H1623 0.950 . S
C1631 C1629 1.327 . S
C1632 C1620 1.349 . S
C1632 H1626 0.950 . S
C1632 C1633 1.327 . S
C1633 H1627 0.950 . S
C1633 C1632 1.327 . S
C1633 C1637 1.429 . S
C1634 C1617 1.574 . S
C1634 H1628 0.949 . S
C1634 C1638 1.368 . S
C1635 C1616 1.429 . S
C1635 C1629 1.429 . S
C1635 C1636 1.523 . S
C1636 C1617 1.368 . S
C1636 C1630 1.368 . S
C1636 C1635 1.523 . S
C1637 C1621 1.429 . S
C1637 C1633 1.429 . S
C1637 C1638 1.523 . S
C1638 C1622 1.368 . S
C1638 C1634 1.368 . S
C1638 C1637 1.523 . S
H1639 C1614 0.950 . S
H1640 C1616 0.950 . S
H1641 C1617 0.949 . S
H1642 C1619 0.950 . S
H1643 C1621 0.950 . S
C1644 C1645 1.349 . S
C1644 C1646 1.327 . S
C1644 H1669 0.950 . S
C1645 C1644 1.349 . S
C1645 C1661 1.349 . S
C1646 C1644 1.327 . S
C1646 C1665 1.429 . S
C1646 H1670 0.950 . S
C1647 C1664 1.574 . S
C1647 C1666 1.368 . S
C1647 H1671 0.949 . S
H1648 C1652 0.949 . S
C1649 C1650 1.349 . S
C1649 C1651 1.327 . S
C1649 H1672 0.950 . S
C1650 C1649 1.349 . S
C1650 C1662 1.349 . S
C1651 C1649 1.327 . S
C1651 C1667 1.429 . S
C1651 H1673 0.950 . S
C1652 H1648 0.949 . S
C1652 C1660 1.574 . S
C1652 C1668 1.368 . S
H1653 C1661 0.950 . S
H1654 C1659 0.950 . S
H1655 C1660 0.949 . S
H1656 C1662 0.950 . S
H1657 C1663 0.950 . S
H1658 C1664 0.949 . S
C1659 H1654 0.950 . S
C1659 C1661 1.327 . S
C1659 C1665 1.429 . S
C1660 C1652 1.574 . S
C1660 H1655 0.949 . S
C1660 C1666 1.368 . S
C1661 C1645 1.349 . S
C1661 H1653 0.950 . S
C1661 C1659 1.327 . S
C1662 C1650 1.349 . S
C1662 H1656 0.950 . S
C1662 C1663 1.327 . S
C1663 H1657 0.950 . S
C1663 C1662 1.327 . S
C1663 C1667 1.429 . S
C1664 C1647 1.574 . S
C1664 H1658 0.949 . S
C1664 C1668 1.368 . S
C1665 C1646 1.429 . S
C1665 C1659 1.429 . S
C1665 C1666 1.523 . S
C1666 C1647 1.368 . S
C1666 C1660 1.368 . S
C1666 C1665 1.523 . S
C1667 C1651 1.429 . S
C1667 C1663 1.429 . S
C1667 C1668 1.523 . S
C1668 C1652 1.368 . S
C1668 C1664 1.368 . S
C1668 C1667 1.523 . S
H1669 C1644 0.950 . S
H1670 C1646 0.950 . S
H1671 C1647 0.949 . S
H1672 C1649 0.950 . S
H1673 C1651 0.950 . S
C1674 C1675 1.349 . S
C1674 C1676 1.327 . S
C1674 H1699 0.950 . S
C1675 C1674 1.349 . S
C1675 C1691 1.349 . S
C1676 C1674 1.327 . S
C1676 C1695 1.429 . S
C1676 H1700 0.950 . S
C1677 C1694 1.574 . S
C1677 C1696 1.368 . S
C1677 H1701 0.949 . S
H1678 C1682 0.949 . S
C1679 C1680 1.349 . S
C1679 C1681 1.327 . S
C1679 H1702 0.950 . S
C1680 C1679 1.349 . S
C1680 C1692 1.349 . S
C1681 C1679 1.327 . S
C1681 C1697 1.429 . S
C1681 H1703 0.950 . S
C1682 H1678 0.949 . S
C1682 C1690 1.574 . S
C1682 C1698 1.368 . S
H1683 C1691 0.950 . S
H1684 C1689 0.950 . S
H1685 C1690 0.949 . S
H1686 C1692 0.950 . S
H1687 C1693 0.950 . S
H1688 C1694 0.949 . S
C1689 H1684 0.950 . S
C1689 C1691 1.327 . S
C1689 C1695 1.429 . S
C1690 C1682 1.574 . S
C1690 H1685 0.949 . S
C1690 C1696 1.368 . S
C1691 C1675 1.349 . S
C1691 H1683 0.950 . S
C1691 C1689 1.327 . S
C1692 C1680 1.349 . S
C1692 H1686 0.950 . S
C1692 C1693 1.327 . S
C1693 H1687 0.950 . S
C1693 C1692 1.327 . S
C1693 C1697 1.429 . S
C1694 C1677 1.574 . S
C1694 H1688 0.949 . S
C1694 C1698 1.368 . S
C1695 C1676 1.429 . S
C1695 C1689 1.429 . S
C1695 C1696 1.523 . S
C1696 C1677 1.368 . S
C1696 C1690 1.368 . S
C1696 C1695 1.523 . S
C1697 C1681 1.429 . S
C1697 C1693 1.429 . S
C1697 C1698 1.523 . S
C1698 C1682 1.368 . S
C1698 C1694 1.368 . S
C1698 C1697 1.523 . S
H1699 C1674 0.950 . S
H1700 C1676 0.950 . S
H1701 C1677 0.949 . S
H1702 C1679 0.950 . S
H1703 C1681 0.950 . S
C1704 C1705 1.349 . S
C1704 C1706 1.327 . S
C1704 H1729 0.950 . S
C1705 C1704 1.349 . S
C1705 C1721 1.349 . S
C1706 C1704 1.327 . S
C1706 C1725 1.429 . S
C1706 H1730 0.950 . S
C1707 C1724 1.574 . S
C1707 C1726 1.368 . S
C1707 H1731 0.949 . S
H1708 C1712 0.949 . S
C1709 C1710 1.349 . S
C1709 C1711 1.327 . S
C1709 H1732 0.950 . S
C1710 C1709 1.349 . S
C1710 C1722 1.349 . S
C1711 C1709 1.327 . S
C1711 C1727 1.429 . S
C1711 H1733 0.950 . S
C1712 H1708 0.949 . S
C1712 C1720 1.574 . S
C1712 C1728 1.368 . S
H1713 C1721 0.950 . S
H1714 C1719 0.950 . S
H1715 C1720 0.949 . S
H1716 C1722 0.950 . S
H1717 C1723 0.950 . S
H1718 C1724 0.949 . S
C1719 H1714 0.950 . S
C1719 C1721 1.327 . S
C1719 C1725 1.429 . S
C1720 C1712 1.574 . S
C1720 H1715 0.949 . S
C1720 C1726 1.368 . S
C1721 C1705 1.349 . S
C1721 H1713 0.950 . S
C1721 C1719 1.327 . S
C1722 C1710 1.349 . S
C1722 H1716 0.950 . S
C1722 C1723 1.327 . S
C1723 H1717 0.950 . S
C1723 C1722 1.327 . S
C1723 C1727 1.429 . S
C1724 C1707 1.574 . S
C1724 H1718 0.949 . S
C1724 C1728 1.368 . S
C1725 C1706 1.429 . S
C1725 C1719 1.429 . S
C1725 C1726 1.523 . S
C1726 C1707 1.368 . S
C1726 C1720 1.368 . S
C1726 C1725 1.523 . S
C1727 C1711 1.429 . S
C1727 C1723 1.429 . S
C1727 C1728 1.523 . S
C1728 C1712 1.368 . S
C1728 C1724 1.368 . S
C1728 C1727 1.523 . S
H1729 C1704 0.950 . S
H1730 C1706 0.950 . S
H1731 C1707 0.949 . S
H1732 C1709 0.950 . S
H1733 C1711 0.950 . S
C1734 C1735 1.349 . S
C1734 C1736 1.327 . S
C1734 H1759 0.950 . S
C1735 C1734 1.349 . S
C1735 C1751 1.349 . S
C1736 C1734 1.327 . S
C1736 C1755 1.429 . S
C1736 H1760 0.950 . S
C1737 C1754 1.574 . S
C1737 C1756 1.368 . S
C1737 H1761 0.949 . S
H1738 C1742 0.949 . S
C1739 C1740 1.349 . S
C1739 C1741 1.327 . S
C1739 H1762 0.950 . S
C1740 C1739 1.349 . S
C1740 C1752 1.349 . S
C1741 C1739 1.327 . S
C1741 C1757 1.429 . S
C1741 H1763 0.950 . S
C1742 H1738 0.949 . S
C1742 C1750 1.574 . S
C1742 C1758 1.368 . S
H1743 C1751 0.950 . S
H1744 C1749 0.950 . S
H1745 C1750 0.949 . S
H1746 C1752 0.950 . S
H1747 C1753 0.950 . S
H1748 C1754 0.949 . S
C1749 H1744 0.950 . S
C1749 C1751 1.327 . S
C1749 C1755 1.429 . S
C1750 C1742 1.574 . S
C1750 H1745 0.949 . S
C1750 C1756 1.368 . S
C1751 C1735 1.349 . S
C1751 H1743 0.950 . S
C1751 C1749 1.327 . S
C1752 C1740 1.349 . S
C1752 H1746 0.950 . S
C1752 C1753 1.327 . S
C1753 H1747 0.950 . S
C1753 C1752 1.327 . S
C1753 C1757 1.429 . S
C1754 C1737 1.574 . S
C1754 H1748 0.949 . S
C1754 C1758 1.368 . S
C1755 C1736 1.429 . S
C1755 C1749 1.429 . S
C1755 C1756 1.523 . S
C1756 C1737 1.368 . S
C1756 C1750 1.368 . S
C1756 C1755 1.523 . S
C1757 C1741 1.429 . S
C1757 C1753 1.429 . S
C1757 C1758 1.523 . S
C1758 C1742 1.368 . S
C1758 C1754 1.368 . S
C1758 C1757 1.523 . S
H1759 C1734 0.950 . S
H1760 C1736 0.950 . S
H1761 C1737 0.949 . S
H1762 C1739 0.950 . S
H1763 C1741 0.950 . S
C1764 C1765 1.349 . S
C1764 C1766 1.327 . S
C1764 H1789 0.950 . S
C1765 C1764 1.349 . S
C1765 C1781 1.349 . S
C1766 C1764 1.327 . S
C1766 C1785 1.429 . S
C1766 H1790 0.950 . S
C1767 C1784 1.574 . S
C1767 C1786 1.368 . S
C1767 H1791 0.949 . S
H1768 C1772 0.949 . S
C1769 C1770 1.349 . S
C1769 C1771 1.327 . S
C1769 H1792 0.950 . S
C1770 C1769 1.349 . S
C1770 C1782 1.349 . S
C1771 C1769 1.327 . S
C1771 C1787 1.429 . S
C1771 H1793 0.950 . S
C1772 H1768 0.949 . S
C1772 C1780 1.574 . S
C1772 C1788 1.368 . S
H1773 C1781 0.950 . S
H1774 C1779 0.950 . S
H1775 C1780 0.949 . S
H1776 C1782 0.950 . S
H1777 C1783 0.950 . S
H1778 C1784 0.949 . S
C1779 H1774 0.950 . S
C1779 C1781 1.327 . S
C1779 C1785 1.429 . S
C1780 C1772 1.574 . S
C1780 H1775 0.949 . S
C1780 C1786 1.368 . S
C1781 C1765 1.349 . S
C1781 H1773 0.950 . S
C1781 C1779 1.327 . S
C1782 C1770 1.349 . S
C1782 H1776 0.950 . S
C1782 C1783 1.327 . S
C1783 H1777 0.950 . S
C1783 C1782 1.327 . S
C1783 C1787 1.429 . S
C1784 C1767 1.574 . S
C1784 H1778 0.949 . S
C1784 C1788 1.368 . S
C1785 C1766 1.429 . S
C1785 C1779 1.429 . S
C1785 C1786 1.523 . S
C1786 C1767 1.368 . S
C1786 C1780 1.368 . S
C1786 C1785 1.523 . S
C1787 C1771 1.429 . S
C1787 C1783 1.429 . S
C1787 C1788 1.523 . S
C1788 C1772 1.368 . S
C1788 C1784 1.368 . S
C1788 C1787 1.523 . S
H1789 C1764 0.950 . S
H1790 C1766 0.950 . S
H1791 C1767 0.949 . S
H1792 C1769 0.950 . S
H1793 C1771 0.950 . S
C1794 C1795 1.349 . S
C1794 C1796 1.327 . S
C1794 H1819 0.950 . S
C1795 C1794 1.349 . S
C1795 C1811 1.349 . S
C1796 C1794 1.327 . S
C1796 C1815 1.429 . S
C1796 H1820 0.950 . S
C1797 C1814 1.574 . S
C1797 C1816 1.368 . S
C1797 H1821 0.949 . S
H1798 C1802 0.949 . S
C1799 C1800 1.349 . S
C1799 C1801 1.327 . S
C1799 H1822 0.950 . S
C1800 C1799 1.349 . S
C1800 C1812 1.349 . S
C1801 C1799 1.327 . S
C1801 C1817 1.429 . S
C1801 H1823 0.950 . S
C1802 H1798 0.949 . S
C1802 C1810 1.574 . S
C1802 C1818 1.368 . S
H1803 C1811 0.950 . S
H1804 C1809 0.950 . S
H1805 C1810 0.949 . S
H1806 C1812 0.950 . S
H1807 C1813 0.950 . S
H1808 C1814 0.949 . S
C1809 H1804 0.950 . S
C1809 C1811 1.327 . S
C1809 C1815 1.429 . S
C1810 C1802 1.574 . S
C1810 H1805 0.949 . S
C1810 C1816 1.368 . S
C1811 C1795 1.349 . S
C1811 H1803 0.950 . S
C1811 C1809 1.327 . S
C1812 C1800 1.349 . S
C1812 H1806 0.950 . S
C1812 C1813 1.327 . S
C1813 H1807 0.950 . S
C1813 C1812 1.327 . S
C1813 C1817 1.429 . S
C1814 C1797 1.574 . S
C1814 H1808 0.949 . S
C1814 C1818 1.368 . S
C1815 C1796 1.429 . S
C1815 C1809 1.429 . S
C1815 C1816 1.523 . S
C1816 C1797 1.368 . S
C1816 C1810 1.368 . S
C1816 C1815 1.523 . S
C1817 C1801 1.429 . S
C1817 C1813 1.429 . S
C1817 C1818 1.523 . S
C1818 C1802 1.368 . S
C1818 C1814 1.368 . S
C1818 C1817 1.523 . S
H1819 C1794 0.950 . S
H1820 C1796 0.950 . S
H1821 C1797 0.949 . S
H1822 C1799 0.950 . S
H1823 C1801 0.950 . S
C1824 C1825 1.349 . S
C1824 C1826 1.327 . S
C1824 H1849 0.950 . S
C1825 C1824 1.349 . S
C1825 C1841 1.349 . S
C1826 C1824 1.327 . S
C1826 C1845 1.429 . S
C1826 H1850 0.950 . S
C1827 C1844 1.574 . S
C1827 C1846 1.368 . S
C1827 H1851 0.949 . S
H1828 C1832 0.949 . S
C1829 C1830 1.349 . S
C1829 C1831 1.327 . S
C1829 H1852 0.950 . S
C1830 C1829 1.349 . S
C1830 C1842 1.349 . S
C1831 C1829 1.327 . S
C1831 C1847 1.429 . S
C1831 H1853 0.950 . S
C1832 H1828 0.949 . S
C1832 C1840 1.574 . S
C1832 C1848 1.368 . S
H1833 C1841 0.950 . S
H1834 C1839 0.950 . S
H1835 C1840 0.949 . S
H1836 C1842 0.950 . S
H1837 C1843 0.950 . S
H1838 C1844 0.949 . S
C1839 H1834 0.950 . S
C1839 C1841 1.327 . S
C1839 C1845 1.429 . S
C1840 C1832 1.574 . S
C1840 H1835 0.949 . S
C1840 C1846 1.368 . S
C1841 C1825 1.349 . S
C1841 H1833 0.950 . S
C1841 C1839 1.327 . S
C1842 C1830 1.349 . S
C1842 H1836 0.950 . S
C1842 C1843 1.327 . S
C1843 H1837 0.950 . S
C1843 C1842 1.327 . S
C1843 C1847 1.429 . S
C1844 C1827 1.574 . S
C1844 H1838 0.949 . S
C1844 C1848 1.368 . S
C1845 C1826 1.429 . S
C1845 C1839 1.429 . S
C1845 C1846 1.523 . S
C1846 C1827 1.368 . S
C1846 C1840 1.368 . S
C1846 C1845 1.523 . S
C1847 C1831 1.429 . S
C1847 C1843 1.429 . S
C1847 C1848 1.523 . S
C1848 C1832 1.368 . S
C1848 C1844 1.368 . S
C1848 C1847 1.523 . S
H1849 C1824 0.950 . S
H1850 C1826 0.950 . S
H1851 C1827 0.949 . S
H1852 C1829 0.950 . S
H1853 C1831 0.950 . S
C1854 C1855 1.349 . S
C1854 C1856 1.327 . S
C1854 H1879 0.950 . S
C1855 C1854 1.349 . S
C1855 C1871 1.349 . S
C1856 C1854 1.327 . S
C1856 C1875 1.429 . S
C1856 H1880 0.950 . S
C1857 C1874 1.574 . S
C1857 C1876 1.368 . S
C1857 H1881 0.949 . S
H1858 C1862 0.949 . S
C1859 C1860 1.349 . S
C1859 C1861 1.327 . S
C1859 H1882 0.950 . S
C1860 C1859 1.349 . S
C1860 C1872 1.349 . S
C1861 C1859 1.327 . S
C1861 C1877 1.429 . S
C1861 H1883 0.950 . S
C1862 H1858 0.949 . S
C1862 C1870 1.574 . S
C1862 C1878 1.368 . S
H1863 C1871 0.950 . S
H1864 C1869 0.950 . S
H1865 C1870 0.949 . S
H1866 C1872 0.950 . S
H1867 C1873 0.950 . S
H1868 C1874 0.949 . S
C1869 H1864 0.950 . S
C1869 C1871 1.327 . S
C1869 C1875 1.429 . S
C1870 C1862 1.574 . S
C1870 H1865 0.949 . S
C1870 C1876 1.368 . S
C1871 C1855 1.349 . S
C1871 H1863 0.950 . S
C1871 C1869 1.327 . S
C1872 C1860 1.349 . S
C1872 H1866 0.950 . S
C1872 C1873 1.327 . S
C1873 H1867 0.950 . S
C1873 C1872 1.327 . S
C1873 C1877 1.429 . S
C1874 C1857 1.574 . S
C1874 H1868 0.949 . S
C1874 C1878 1.368 . S
C1875 C1856 1.429 . S
C1875 C1869 1.429 . S
C1875 C1876 1.523 . S
C1876 C1857 1.368 . S
C1876 C1870 1.368 . S
C1876 C1875 1.523 . S
C1877 C1861 1.429 . S
C1877 C1873 1.429 . S
C1877 C1878 1.523 . S
C1878 C1862 1.368 . S
C1878 C1874 1.368 . S
C1878 C1877 1.523 . S
H1879 C1854 0.950 . S
H1880 C1856 0.950 . S
H1881 C1857 0.949 . S
H1882 C1859 0.950 . S
H1883 C1861 0.950 . S
C1884 C1885 1.349 . S
C1884 C1886 1.327 . S
C1884 H1909 0.950 . S
C1885 C1884 1.349 . S
C1885 C1901 1.349 . S
C1886 C1884 1.327 . S
C1886 C1905 1.429 . S
C1886 H1910 0.950 . S
C1887 C1904 1.574 . S
C1887 C1906 1.368 . S
C1887 H1911 0.949 . S
H1888 C1892 0.949 . S
C1889 C1890 1.349 . S
C1889 C1891 1.327 . S
C1889 H1912 0.950 . S
C1890 C1889 1.349 . S
C1890 C1902 1.349 . S
C1891 C1889 1.327 . S
C1891 C1907 1.429 . S
C1891 H1913 0.950 . S
C1892 H1888 0.949 . S
C1892 C1900 1.574 . S
C1892 C1908 1.368 . S
H1893 C1901 0.950 . S
H1894 C1899 0.950 . S
H1895 C1900 0.949 . S
H1896 C1902 0.950 . S
H1897 C1903 0.950 . S
H1898 C1904 0.949 . S
C1899 H1894 0.950 . S
C1899 C1901 1.327 . S
C1899 C1905 1.429 . S
C1900 C1892 1.574 . S
C1900 H1895 0.949 . S
C1900 C1906 1.368 . S
C1901 C1885 1.349 . S
C1901 H1893 0.950 . S
C1901 C1899 1.327 . S
C1902 C1890 1.349 . S
C1902 H1896 0.950 . S
C1902 C1903 1.327 . S
C1903 H1897 0.950 . S
C1903 C1902 1.327 . S
C1903 C1907 1.429 . S
C1904 C1887 1.574 . S
C1904 H1898 0.949 . S
C1904 C1908 1.368 . S
C1905 C1886 1.429 . S
C1905 C1899 1.429 . S
C1905 C1906 1.523 . S
C1906 C1887 1.368 . S
C1906 C1900 1.368 . S
C1906 C1905 1.523 . S
C1907 C1891 1.429 . S
C1907 C1903 1.429 . S
C1907 C1908 1.523 . S
C1908 C1892 1.368 . S
C1908 C1904 1.368 . S
C1908 C1907 1.523 . S
H1909 C1884 0.950 . S
H1910 C1886 0.950 . S
H1911 C1887 0.949 . S
H1912 C1889 0.950 . S
H1913 C1891 0.950 . S
C1914 C1915 1.349 . S
C1914 C1916 1.327 . S
C1914 H1939 0.950 . S
C1915 C1914 1.349 . S
C1915 C1931 1.349 . S
C1916 C1914 1.327 . S
C1916 C1935 1.429 . S
C1916 H1940 0.950 . S
C1917 C1934 1.574 . S
C1917 C1936 1.368 . S
C1917 H1941 0.949 . S
H1918 C1922 0.949 . S
C1919 C1920 1.349 . S
C1919 C1921 1.327 . S
C1919 H1942 0.950 . S
C1920 C1919 1.349 . S
C1920 C1932 1.349 . S
C1921 C1919 1.327 . S
C1921 C1937 1.429 . S
C1921 H1943 0.950 . S
C1922 H1918 0.949 . S
C1922 C1930 1.574 . S
C1922 C1938 1.368 . S
H1923 C1931 0.950 . S
H1924 C1929 0.950 . S
H1925 C1930 0.949 . S
H1926 C1932 0.950 . S
H1927 C1933 0.950 . S
H1928 C1934 0.949 . S
C1929 H1924 0.950 . S
C1929 C1931 1.327 . S
C1929 C1935 1.429 . S
C1930 C1922 1.574 . S
C1930 H1925 0.949 . S
C1930 C1936 1.368 . S
C1931 C1915 1.349 . S
C1931 H1923 0.950 . S
C1931 C1929 1.327 . S
C1932 C1920 1.349 . S
C1932 H1926 0.950 . S
C1932 C1933 1.327 . S
C1933 H1927 0.950 . S
C1933 C1932 1.327 . S
C1933 C1937 1.429 . S
C1934 C1917 1.574 . S
C1934 H1928 0.949 . S
C1934 C1938 1.368 . S
C1935 C1916 1.429 . S
C1935 C1929 1.429 . S
C1935 C1936 1.523 . S
C1936 C1917 1.368 . S
C1936 C1930 1.368 . S
C1936 C1935 1.523 . S
C1937 C1921 1.429 . S
C1937 C1933 1.429 . S
C1937 C1938 1.523 . S
C1938 C1922 1.368 . S
C1938 C1934 1.368 . S
C1938 C1937 1.523 . S
H1939 C1914 0.950 . S
H1940 C1916 0.950 . S
H1941 C1917 0.949 . S
H1942 C1919 0.950 . S
H1943 C1921 0.950 . S
C1944 C1945 1.349 . S
C1944 C1946 1.327 . S
C1944 H1969 0.950 . S
C1945 C1944 1.349 . S
C1945 C1961 1.349 . S
C1946 C1944 1.327 . S
C1946 C1965 1.429 . S
C1946 H1970 0.950 . S
C1947 C1964 1.574 . S
C1947 C1966 1.368 . S
C1947 H1971 0.949 . S
H1948 C1952 0.949 . S
C1949 C1950 1.349 . S
C1949 C1951 1.327 . S
C1949 H1972 0.950 . S
C1950 C1949 1.349 . S
C1950 C1962 1.349 . S
C1951 C1949 1.327 . S
C1951 C1967 1.429 . S
C1951 H1973 0.950 . S
C1952 H1948 0.949 . S
C1952 C1960 1.574 . S
C1952 C1968 1.368 . S
H1953 C1961 0.950 . S
H1954 C1959 0.950 . S
H1955 C1960 0.949 . S
H1956 C1962 0.950 . S
H1957 C1963 0.950 . S
H1958 C1964 0.949 . S
C1959 H1954 0.950 . S
C1959 C1961 1.327 . S
C1959 C1965 1.429 . S
C1960 C1952 1.574 . S
C1960 H1955 0.949 . S
C1960 C1966 1.368 . S
C1961 C1945 1.349 . S
C1961 H1953 0.950 . S
C1961 C1959 1.327 . S
C1962 C1950 1.349 . S
C1962 H1956 0.950 . S
C1962 C1963 1.327 . S
C1963 H1957 0.950 . S
C1963 C1962 1.327 . S
C1963 C1967 1.429 . S
C1964 C1947 1.574 . S
C1964 H1958 0.949 . S
C1964 C1968 1.368 . S
C1965 C1946 1.429 . S
C1965 C1959 1.429 . S
C1965 C1966 1.523 . S
C1966 C1947 1.368 . S
C1966 C1960 1.368 . S
C1966 C1965 1.523 . S
C1967 C1951 1.429 . S
C1967 C1963 1.429 . S
C1967 C1968 1.523 . S
C1968 C1952 1.368 . S
C1968 C1964 1.368 . S
C1968 C1967 1.523 . S
H1969 C1944 0.950 . S
H1970 C1946 0.950 . S
H1971 C1947 0.949 . S
H1972 C1949 0.950 . S
H1973 C1951 0.950 . S
C1974 C1975 1.349 . S
C1974 C1976 1.327 . S
C1974 H1999 0.950 . S
C1975 C1974 1.349 . S
C1975 C1991 1.349 . S
C1976 C1974 1.327 . S
C1976 C1995 1.429 . S
C1976 H2000 0.950 . S
C1977 C1994 1.574 . S
C1977 C1996 1.368 . S
C1977 H2001 0.949 . S
H1978 C1982 0.949 . S
C1979 C1980 1.349 . S
C1979 C1981 1.327 . S
C1979 H2002 0.950 . S
C1980 C1979 1.349 . S
C1980 C1992 1.349 . S
C1981 C1979 1.327 . S
C1981 C1997 1.429 . S
C1981 H2003 0.950 . S
C1982 H1978 0.949 . S
C1982 C1990 1.574 . S
C1982 C1998 1.368 . S
H1983 C1991 0.950 . S
H1984 C1989 0.950 . S
H1985 C1990 0.949 . S
H1986 C1992 0.950 . S
H1987 C1993 0.950 . S
H1988 C1994 0.949 . S
C1989 H1984 0.950 . S
C1989 C1991 1.327 . S
C1989 C1995 1.429 . S
C1990 C1982 1.574 . S
C1990 H1985 0.949 . S
C1990 C1996 1.368 . S
C1991 C1975 1.349 . S
C1991 H1983 0.950 . S
C1991 C1989 1.327 . S
C1992 C1980 1.349 . S
C1992 H1986 0.950 . S
C1992 C1993 1.327 . S
C1993 H1987 0.950 . S
C1993 C1992 1.327 . S
C1993 C1997 1.429 . S
C1994 C1977 1.574 . S
C1994 H1988 0.949 . S
C1994 C1998 1.368 . S
C1995 C1976 1.429 . S
C1995 C1989 1.429 . S
C1995 C1996 1.523 . S
C1996 C1977 1.368 . S
C1996 C1990 1.368 . S
C1996 C1995 1.523 . S
C1997 C1981 1.429 . S
C1997 C1993 1.429 . S
C1997 C1998 1.523 . S
C1998 C1982 1.368 . S
C1998 C1994 1.368 . S
C1998 C1997 1.523 . S
H1999 C1974 0.950 . S
H2000 C1976 0.950 . S
H2001 C1977 0.949 . S
H2002 C1979 0.950 . S
H2003 C1981 0.950 . S
C2004 C2005 1.349 . S
C2004 C2006 1.327 . S
C2004 H2029 0.950 . S
C2005 C2004 1.349 . S
C2005 C2021 1.349 . S
C2006 C2004 1.327 . S
C2006 C2025 1.429 . S
C2006 H2030 0.950 . S
C2007 C2024 1.574 . S
C2007 C2026 1.368 . S
C2007 H2031 0.949 . S
H2008 C2012 0.949 . S
C2009 C2010 1.349 . S
C2009 C2011 1.327 . S
C2009 H2032 0.941 1_556 S
C2010 C2009 1.349 . S
C2010 C2022 1.349 . S
C2011 C2009 1.327 . S
C2011 C2027 1.429 . S
C2011 H2033 0.950 . S
C2012 H2008 0.949 . S
C2012 C2020 1.574 . S
C2012 C2028 1.368 . S
H2013 C2021 0.950 . S
H2014 C2019 0.950 . S
H2015 C2020 0.949 . S
H2016 C2022 0.950 . S
H2017 C2023 0.950 . S
H2018 C2024 0.949 . S
C2019 H2014 0.950 . S
C2019 C2021 1.327 . S
C2019 C2025 1.429 . S
C2020 C2012 1.574 . S
C2020 H2015 0.949 . S
C2020 C2026 1.368 . S
C2021 C2005 1.349 . S
C2021 H2013 0.950 . S
C2021 C2019 1.327 . S
C2022 C2010 1.349 . S
C2022 H2016 0.950 . S
C2022 C2023 1.327 . S
C2023 H2017 0.950 . S
C2023 C2022 1.327 . S
C2023 C2027 1.429 . S
C2024 C2007 1.574 . S
C2024 H2018 0.949 . S
C2024 C2028 1.368 . S
C2025 C2006 1.429 . S
C2025 C2019 1.429 . S
C2025 C2026 1.523 . S
C2026 C2007 1.368 . S
C2026 C2020 1.368 . S
C2026 C2025 1.523 . S
C2027 C2011 1.429 . S
C2027 C2023 1.429 . S
C2027 C2028 1.523 . S
C2028 C2012 1.368 . S
C2028 C2024 1.368 . S
C2028 C2027 1.523 . S
H2029 C2004 0.950 . S
H2030 C2006 0.950 . S
H2031 C2007 0.949 . S
H2032 C2009 0.941 1_554 S
H2033 C2011 0.950 . S
C2034 C2035 1.349 . S
C2034 C2036 1.327 . S
C2034 H2059 0.950 . S
C2035 C2034 1.349 . S
C2035 C2051 1.349 . S
C2036 C2034 1.327 . S
C2036 C2055 1.429 . S
C2036 H2060 0.950 . S
C2037 C2054 1.574 . S
C2037 C2056 1.368 . S
C2037 H2061 0.949 . S
H2038 C2042 0.949 . S
C2039 C2040 1.349 . S
C2039 C2041 1.327 . S
C2039 H2062 0.950 . S
C2040 C2039 1.349 . S
C2040 C2052 1.349 . S
C2041 C2039 1.327 . S
C2041 C2057 1.429 . S
C2041 H2063 0.950 . S
C2042 H2038 0.949 . S
C2042 C2050 1.574 . S
C2042 C2058 1.368 . S
H2043 C2051 0.950 . S
H2044 C2049 0.950 . S
H2045 C2050 0.949 . S
H2046 C2052 0.950 . S
H2047 C2053 0.950 . S
H2048 C2054 0.949 . S
C2049 H2044 0.950 . S
C2049 C2051 1.327 . S
C2049 C2055 1.429 . S
C2050 C2042 1.574 . S
C2050 H2045 0.949 . S
C2050 C2056 1.368 . S
C2051 C2035 1.349 . S
C2051 H2043 0.950 . S
C2051 C2049 1.327 . S
C2052 C2040 1.349 . S
C2052 H2046 0.950 . S
C2052 C2053 1.327 . S
C2053 H2047 0.950 . S
C2053 C2052 1.327 . S
C2053 C2057 1.429 . S
C2054 C2037 1.574 . S
C2054 H2048 0.949 . S
C2054 C2058 1.368 . S
C2055 C2036 1.429 . S
C2055 C2049 1.429 . S
C2055 C2056 1.523 . S
C2056 C2037 1.368 . S
C2056 C2050 1.368 . S
C2056 C2055 1.523 . S
C2057 C2041 1.429 . S
C2057 C2053 1.429 . S
C2057 C2058 1.523 . S
C2058 C2042 1.368 . S
C2058 C2054 1.368 . S
C2058 C2057 1.523 . S
H2059 C2034 0.950 . S
H2060 C2036 0.950 . S
H2061 C2037 0.949 . S
H2062 C2039 0.950 . S
H2063 C2041 0.950 . S
C2064 C2065 1.349 . S
C2064 C2066 1.327 . S
C2064 H2089 0.950 . S
C2065 C2064 1.349 . S
C2065 C2081 1.349 . S
C2066 C2064 1.327 . S
C2066 C2085 1.429 . S
C2066 H2090 0.950 . S
C2067 C2084 1.574 . S
C2067 C2086 1.368 . S
C2067 H2091 0.949 . S
H2068 C2072 0.949 . S
C2069 C2070 1.349 . S
C2069 C2071 1.327 . S
C2069 H2092 0.950 . S
C2070 C2069 1.349 . S
C2070 C2082 1.349 . S
C2071 C2069 1.327 . S
C2071 C2087 1.429 . S
C2071 H2093 0.950 . S
C2072 H2068 0.949 . S
C2072 C2080 1.574 . S
C2072 C2088 1.368 . S
H2073 C2081 0.950 . S
H2074 C2079 0.950 . S
H2075 C2080 0.949 . S
H2076 C2082 0.950 . S
H2077 C2083 0.950 . S
H2078 C2084 0.949 . S
C2079 H2074 0.950 . S
C2079 C2081 1.327 . S
C2079 C2085 1.429 . S
C2080 C2072 1.574 . S
C2080 H2075 0.949 . S
C2080 C2086 1.368 . S
C2081 C2065 1.349 . S
C2081 H2073 0.950 . S
C2081 C2079 1.327 . S
C2082 C2070 1.349 . S
C2082 H2076 0.950 . S
C2082 C2083 1.327 . S
C2083 H2077 0.950 . S
C2083 C2082 1.327 . S
C2083 C2087 1.429 . S
C2084 C2067 1.574 . S
C2084 H2078 0.949 . S
C2084 C2088 1.368 . S
C2085 C2066 1.429 . S
C2085 C2079 1.429 . S
C2085 C2086 1.523 . S
C2086 C2067 1.368 . S
C2086 C2080 1.368 . S
C2086 C2085 1.523 . S
C2087 C2071 1.429 . S
C2087 C2083 1.429 . S
C2087 C2088 1.523 . S
C2088 C2072 1.368 . S
C2088 C2084 1.368 . S
C2088 C2087 1.523 . S
H2089 C2064 0.950 . S
H2090 C2066 0.950 . S
H2091 C2067 0.949 . S
H2092 C2069 0.950 . S
H2093 C2071 0.950 . S
C2094 C2095 1.349 . S
C2094 C2096 1.327 . S
C2094 H2119 0.950 . S
C2095 C2094 1.349 . S
C2095 C2111 1.349 . S
C2096 C2094 1.327 . S
C2096 C2115 1.429 . S
C2096 H2120 0.950 . S
C2097 C2114 1.574 . S
C2097 C2116 1.368 . S
C2097 H2121 0.949 . S
H2098 C2102 0.949 . S
C2099 C2100 1.349 . S
C2099 C2101 1.327 . S
C2099 H2122 0.950 . S
C2100 C2099 1.349 . S
C2100 C2112 1.349 . S
C2101 C2099 1.327 . S
C2101 C2117 1.429 . S
C2101 H2123 0.950 . S
C2102 H2098 0.949 . S
C2102 C2110 1.574 . S
C2102 C2118 1.368 . S
H2103 C2111 0.950 . S
H2104 C2109 0.950 . S
H2105 C2110 0.949 . S
H2106 C2112 0.950 . S
H2107 C2113 0.950 . S
H2108 C2114 0.949 . S
C2109 H2104 0.950 . S
C2109 C2111 1.327 . S
C2109 C2115 1.429 . S
C2110 C2102 1.574 . S
C2110 H2105 0.949 . S
C2110 C2116 1.368 . S
C2111 C2095 1.349 . S
C2111 H2103 0.950 . S
C2111 C2109 1.327 . S
C2112 C2100 1.349 . S
C2112 H2106 0.950 . S
C2112 C2113 1.327 . S
C2113 H2107 0.950 . S
C2113 C2112 1.327 . S
C2113 C2117 1.429 . S
C2114 C2097 1.574 . S
C2114 H2108 0.949 . S
C2114 C2118 1.368 . S
C2115 C2096 1.429 . S
C2115 C2109 1.429 . S
C2115 C2116 1.523 . S
C2116 C2097 1.368 . S
C2116 C2110 1.368 . S
C2116 C2115 1.523 . S
C2117 C2101 1.429 . S
C2117 C2113 1.429 . S
C2117 C2118 1.523 . S
C2118 C2102 1.368 . S
C2118 C2114 1.368 . S
C2118 C2117 1.523 . S
H2119 C2094 0.950 . S
H2120 C2096 0.950 . S
H2121 C2097 0.949 . S
H2122 C2099 0.950 . S
H2123 C2101 0.950 . S
C2124 C2125 1.349 . S
C2124 C2126 1.327 . S
C2124 H2149 0.950 . S
C2125 C2124 1.349 . S
C2125 C2141 1.349 . S
C2126 C2124 1.327 . S
C2126 C2145 1.429 . S
C2126 H2150 0.950 . S
C2127 C2144 1.574 . S
C2127 C2146 1.368 . S
C2127 H2151 0.949 . S
H2128 C2132 0.949 . S
C2129 C2130 1.349 . S
C2129 C2131 1.327 . S
C2129 H2152 0.950 . S
C2130 C2129 1.349 . S
C2130 C2142 1.349 . S
C2131 C2129 1.327 . S
C2131 C2147 1.429 . S
C2131 H2153 0.950 . S
C2132 H2128 0.949 . S
C2132 C2140 1.574 . S
C2132 C2148 1.368 . S
H2133 C2141 0.950 . S
H2134 C2139 0.950 . S
H2135 C2140 0.949 . S
H2136 C2142 0.950 . S
H2137 C2143 0.950 . S
H2138 C2144 0.949 . S
C2139 H2134 0.950 . S
C2139 C2141 1.327 . S
C2139 C2145 1.429 . S
C2140 C2132 1.574 . S
C2140 H2135 0.949 . S
C2140 C2146 1.368 . S
C2141 C2125 1.349 . S
C2141 H2133 0.950 . S
C2141 C2139 1.327 . S
C2142 C2130 1.349 . S
C2142 H2136 0.950 . S
C2142 C2143 1.327 . S
C2143 H2137 0.950 . S
C2143 C2142 1.327 . S
C2143 C2147 1.429 . S
C2144 C2127 1.574 . S
C2144 H2138 0.949 . S
C2144 C2148 1.368 . S
C2145 C2126 1.429 . S
C2145 C2139 1.429 . S
C2145 C2146 1.523 . S
C2146 C2127 1.368 . S
C2146 C2140 1.368 . S
C2146 C2145 1.523 . S
C2147 C2131 1.429 . S
C2147 C2143 1.429 . S
C2147 C2148 1.523 . S
C2148 C2132 1.368 . S
C2148 C2144 1.368 . S
C2148 C2147 1.523 . S
H2149 C2124 0.950 . S
H2150 C2126 0.950 . S
H2151 C2127 0.949 . S
H2152 C2129 0.950 . S
H2153 C2131 0.950 . S
C2154 C2155 1.349 . S
C2154 C2156 1.327 . S
C2154 H2179 0.950 . S
C2155 C2154 1.349 . S
C2155 C2171 1.349 . S
C2156 C2154 1.327 . S
C2156 C2175 1.429 . S
C2156 H2180 0.950 . S
C2157 C2174 1.574 . S
C2157 C2176 1.368 . S
C2157 H2181 0.949 . S
H2158 C2162 0.949 . S
C2159 C2160 1.349 . S
C2159 C2161 1.327 . S
C2159 H2182 0.950 . S
C2160 C2159 1.349 . S
C2160 C2172 1.349 . S
C2161 C2159 1.327 . S
C2161 C2177 1.429 . S
C2161 H2183 0.950 . S
C2162 H2158 0.949 . S
C2162 C2170 1.574 . S
C2162 C2178 1.368 . S
H2163 C2171 0.950 . S
H2164 C2169 0.950 . S
H2165 C2170 0.949 . S
H2166 C2172 0.950 . S
H2167 C2173 0.950 . S
H2168 C2174 0.949 . S
C2169 H2164 0.950 . S
C2169 C2171 1.327 . S
C2169 C2175 1.429 . S
C2170 C2162 1.574 . S
C2170 H2165 0.949 . S
C2170 C2176 1.368 . S
C2171 C2155 1.349 . S
C2171 H2163 0.950 . S
C2171 C2169 1.327 . S
C2172 C2160 1.349 . S
C2172 H2166 0.950 . S
C2172 C2173 1.327 . S
C2173 H2167 0.950 . S
C2173 C2172 1.327 . S
C2173 C2177 1.429 . S
C2174 C2157 1.574 . S
C2174 H2168 0.949 . S
C2174 C2178 1.368 . S
C2175 C2156 1.429 . S
C2175 C2169 1.429 . S
C2175 C2176 1.523 . S
C2176 C2157 1.368 . S
C2176 C2170 1.368 . S
C2176 C2175 1.523 . S
C2177 C2161 1.429 . S
C2177 C2173 1.429 . S
C2177 C2178 1.523 . S
C2178 C2162 1.368 . S
C2178 C2174 1.368 . S
C2178 C2177 1.523 . S
H2179 C2154 0.950 . S
H2180 C2156 0.950 . S
H2181 C2157 0.949 . S
H2182 C2159 0.950 . S
H2183 C2161 0.950 . S
C2184 C2185 1.349 . S
C2184 C2186 1.327 . S
C2184 H2209 0.950 . S
C2185 C2184 1.349 . S
C2185 C2201 1.349 . S
C2186 C2184 1.327 . S
C2186 C2205 1.429 . S
C2186 H2210 0.950 . S
C2187 C2204 1.574 . S
C2187 C2206 1.368 . S
C2187 H2211 0.949 . S
H2188 C2192 0.949 . S
C2189 C2190 1.349 . S
C2189 C2191 1.327 . S
C2189 H2212 0.950 . S
C2190 C2189 1.349 . S
C2190 C2202 1.349 . S
C2191 C2189 1.327 . S
C2191 C2207 1.429 . S
C2191 H2213 0.950 . S
C2192 H2188 0.949 . S
C2192 C2200 1.574 . S
C2192 C2208 1.368 . S
H2193 C2201 0.950 . S
H2194 C2199 0.950 . S
H2195 C2200 0.949 . S
H2196 C2202 0.950 . S
H2197 C2203 0.950 . S
H2198 C2204 0.949 . S
C2199 H2194 0.950 . S
C2199 C2201 1.327 . S
C2199 C2205 1.429 . S
C2200 C2192 1.574 . S
C2200 H2195 0.949 . S
C2200 C2206 1.368 . S
C2201 C2185 1.349 . S
C2201 H2193 0.950 . S
C2201 C2199 1.327 . S
C2202 C2190 1.349 . S
C2202 H2196 0.950 . S
C2202 C2203 1.327 . S
C2203 H2197 0.950 . S
C2203 C2202 1.327 . S
C2203 C2207 1.429 . S
C2204 C2187 1.574 . S
C2204 H2198 0.949 . S
C2204 C2208 1.368 . S
C2205 C2186 1.429 . S
C2205 C2199 1.429 . S
C2205 C2206 1.523 . S
C2206 C2187 1.368 . S
C2206 C2200 1.368 . S
C2206 C2205 1.523 . S
C2207 C2191 1.429 . S
C2207 C2203 1.429 . S
C2207 C2208 1.523 . S
C2208 C2192 1.368 . S
C2208 C2204 1.368 . S
C2208 C2207 1.523 . S
H2209 C2184 0.950 . S
H2210 C2186 0.950 . S
H2211 C2187 0.949 . S
H2212 C2189 0.950 . S
H2213 C2191 0.950 . S
C2214 C2215 1.349 . S
C2214 C2216 1.327 . S
C2214 H2239 0.950 . S
C2215 C2214 1.349 . S
C2215 C2231 1.349 . S
C2216 C2214 1.327 . S
C2216 C2235 1.429 . S
C2216 H2240 0.950 . S
C2217 C2234 1.574 . S
C2217 C2236 1.368 . S
C2217 H2241 0.949 . S
H2218 C2222 0.949 . S
C2219 C2220 1.349 . S
C2219 C2221 1.327 . S
C2219 H2242 0.950 . S
C2220 C2219 1.349 . S
C2220 C2232 1.349 . S
C2221 C2219 1.327 . S
C2221 C2237 1.429 . S
C2221 H2243 0.950 . S
C2222 H2218 0.949 . S
C2222 C2230 1.574 . S
C2222 C2238 1.368 . S
H2223 C2231 0.950 . S
H2224 C2229 0.950 . S
H2225 C2230 0.949 . S
H2226 C2232 0.950 . S
H2227 C2233 0.950 . S
H2228 C2234 0.949 . S
C2229 H2224 0.950 . S
C2229 C2231 1.327 . S
C2229 C2235 1.429 . S
C2230 C2222 1.574 . S
C2230 H2225 0.949 . S
C2230 C2236 1.368 . S
C2231 C2215 1.349 . S
C2231 H2223 0.950 . S
C2231 C2229 1.327 . S
C2232 C2220 1.349 . S
C2232 H2226 0.950 . S
C2232 C2233 1.327 . S
C2233 H2227 0.950 . S
C2233 C2232 1.327 . S
C2233 C2237 1.429 . S
C2234 C2217 1.574 . S
C2234 H2228 0.949 . S
C2234 C2238 1.368 . S
C2235 C2216 1.429 . S
C2235 C2229 1.429 . S
C2235 C2236 1.523 . S
C2236 C2217 1.368 . S
C2236 C2230 1.368 . S
C2236 C2235 1.523 . S
C2237 C2221 1.429 . S
C2237 C2233 1.429 . S
C2237 C2238 1.523 . S
C2238 C2222 1.368 . S
C2238 C2234 1.368 . S
C2238 C2237 1.523 . S
H2239 C2214 0.950 . S
H2240 C2216 0.950 . S
H2241 C2217 0.949 . S
H2242 C2219 0.950 . S
H2243 C2221 0.950 . S
C2244 C2245 1.349 . S
C2244 C2246 1.327 . S
C2244 H2269 0.950 . S
C2245 C2244 1.349 . S
C2245 C2261 1.349 . S
C2246 C2244 1.327 . S
C2246 C2265 1.429 . S
C2246 H2270 0.950 . S
C2247 C2264 1.574 . S
C2247 C2266 1.368 . S
C2247 H2271 0.949 . S
H2248 C2252 0.949 . S
C2249 C2250 1.349 . S
C2249 C2251 1.327 . S
C2249 H2272 0.950 . S
C2250 C2249 1.349 . S
C2250 C2262 1.349 . S
C2251 C2249 1.327 . S
C2251 C2267 1.429 . S
C2251 H2273 0.950 . S
C2252 H2248 0.949 . S
C2252 C2260 1.574 . S
C2252 C2268 1.368 . S
H2253 C2261 0.950 . S
H2254 C2259 0.950 . S
H2255 C2260 0.949 . S
H2256 C2262 0.950 . S
H2257 C2263 0.950 . S
H2258 C2264 0.949 . S
C2259 H2254 0.950 . S
C2259 C2261 1.327 . S
C2259 C2265 1.429 . S
C2260 C2252 1.574 . S
C2260 H2255 0.949 . S
C2260 C2266 1.368 . S
C2261 C2245 1.349 . S
C2261 H2253 0.950 . S
C2261 C2259 1.327 . S
C2262 C2250 1.349 . S
C2262 H2256 0.950 . S
C2262 C2263 1.327 . S
C2263 H2257 0.950 . S
C2263 C2262 1.327 . S
C2263 C2267 1.429 . S
C2264 C2247 1.574 . S
C2264 H2258 0.949 . S
C2264 C2268 1.368 . S
C2265 C2246 1.429 . S
C2265 C2259 1.429 . S
C2265 C2266 1.523 . S
C2266 C2247 1.368 . S
C2266 C2260 1.368 . S
C2266 C2265 1.523 . S
C2267 C2251 1.429 . S
C2267 C2263 1.429 . S
C2267 C2268 1.523 . S
C2268 C2252 1.368 . S
C2268 C2264 1.368 . S
C2268 C2267 1.523 . S
H2269 C2244 0.950 . S
H2270 C2246 0.950 . S
H2271 C2247 0.949 . S
H2272 C2249 0.950 . S
H2273 C2251 0.950 . S
C2274 C2275 1.349 . S
C2274 C2276 1.327 . S
C2274 H2299 0.950 . S
C2275 C2274 1.349 . S
C2275 C2291 1.349 . S
C2276 C2274 1.327 . S
C2276 C2295 1.429 . S
C2276 H2300 0.950 . S
C2277 C2294 1.574 . S
C2277 C2296 1.368 . S
C2277 H2301 0.949 . S
H2278 C2282 0.949 . S
C2279 C2280 1.349 . S
C2279 C2281 1.327 . S
C2279 H2302 0.950 . S
C2280 C2279 1.349 . S
C2280 C2292 1.349 . S
C2281 C2279 1.327 . S
C2281 C2297 1.429 . S
C2281 H2303 0.950 . S
C2282 H2278 0.949 . S
C2282 C2290 1.574 . S
C2282 C2298 1.368 . S
H2283 C2291 0.950 . S
H2284 C2289 0.950 . S
H2285 C2290 0.949 . S
H2286 C2292 0.950 . S
H2287 C2293 0.950 . S
H2288 C2294 0.949 . S
C2289 H2284 0.950 . S
C2289 C2291 1.327 . S
C2289 C2295 1.429 . S
C2290 C2282 1.574 . S
C2290 H2285 0.949 . S
C2290 C2296 1.368 . S
C2291 C2275 1.349 . S
C2291 H2283 0.950 . S
C2291 C2289 1.327 . S
C2292 C2280 1.349 . S
C2292 H2286 0.950 . S
C2292 C2293 1.327 . S
C2293 H2287 0.950 . S
C2293 C2292 1.327 . S
C2293 C2297 1.429 . S
C2294 C2277 1.574 . S
C2294 H2288 0.949 . S
C2294 C2298 1.368 . S
C2295 C2276 1.429 . S
C2295 C2289 1.429 . S
C2295 C2296 1.523 . S
C2296 C2277 1.368 . S
C2296 C2290 1.368 . S
C2296 C2295 1.523 . S
C2297 C2281 1.429 . S
C2297 C2293 1.429 . S
C2297 C2298 1.523 . S
C2298 C2282 1.368 . S
C2298 C2294 1.368 . S
C2298 C2297 1.523 . S
H2299 C2274 0.950 . S
H2300 C2276 0.950 . S
H2301 C2277 0.949 . S
H2302 C2279 0.950 . S
H2303 C2281 0.950 . S
C2304 C2305 1.349 . S
C2304 C2306 1.327 . S
C2304 H2329 0.950 . S
C2305 C2304 1.349 . S
C2305 C2321 1.349 . S
C2306 C2304 1.327 . S
C2306 C2325 1.429 . S
C2306 H2330 0.950 . S
C2307 C2324 1.574 . S
C2307 C2326 1.368 . S
C2307 H2331 0.949 . S
H2308 C2312 0.949 . S
C2309 C2310 1.349 . S
C2309 C2311 1.327 . S
C2309 H2332 0.950 . S
C2310 C2309 1.349 . S
C2310 C2322 1.349 . S
C2311 C2309 1.327 . S
C2311 C2327 1.429 . S
C2311 H2333 0.950 . S
C2312 H2308 0.949 . S
C2312 C2320 1.574 . S
C2312 C2328 1.368 . S
H2313 C2321 0.950 . S
H2314 C2319 0.950 . S
H2315 C2320 0.949 . S
H2316 C2322 0.950 . S
H2317 C2323 0.950 . S
H2318 C2324 0.949 . S
C2319 H2314 0.950 . S
C2319 C2321 1.327 . S
C2319 C2325 1.429 . S
C2320 C2312 1.574 . S
C2320 H2315 0.949 . S
C2320 C2326 1.368 . S
C2321 C2305 1.349 . S
C2321 H2313 0.950 . S
C2321 C2319 1.327 . S
C2322 C2310 1.349 . S
C2322 H2316 0.950 . S
C2322 C2323 1.327 . S
C2323 H2317 0.950 . S
C2323 C2322 1.327 . S
C2323 C2327 1.429 . S
C2324 C2307 1.574 . S
C2324 H2318 0.949 . S
C2324 C2328 1.368 . S
C2325 C2306 1.429 . S
C2325 C2319 1.429 . S
C2325 C2326 1.523 . S
C2326 C2307 1.368 . S
C2326 C2320 1.368 . S
C2326 C2325 1.523 . S
C2327 C2311 1.429 . S
C2327 C2323 1.429 . S
C2327 C2328 1.523 . S
C2328 C2312 1.368 . S
C2328 C2324 1.368 . S
C2328 C2327 1.523 . S
H2329 C2304 0.950 . S
H2330 C2306 0.950 . S
H2331 C2307 0.949 . S
H2332 C2309 0.950 . S
H2333 C2311 0.950 . S
C2334 C2335 1.349 . S
C2334 C2336 1.327 . S
C2334 H2359 0.950 . S
C2335 C2334 1.349 . S
C2335 C2351 1.349 . S
C2336 C2334 1.327 . S
C2336 C2355 1.429 . S
C2336 H2360 0.950 . S
C2337 C2354 1.574 . S
C2337 C2356 1.368 . S
C2337 H2361 0.949 . S
H2338 C2342 0.949 . S
C2339 C2340 1.349 . S
C2339 C2341 1.327 . S
C2339 H2362 0.950 . S
C2340 C2339 1.349 . S
C2340 C2352 1.349 . S
C2341 C2339 1.327 . S
C2341 C2357 1.429 . S
C2341 H2363 0.950 . S
C2342 H2338 0.949 . S
C2342 C2350 1.574 . S
C2342 C2358 1.368 . S
H2343 C2351 0.950 . S
H2344 C2349 0.950 . S
H2345 C2350 0.949 . S
H2346 C2352 0.950 . S
H2347 C2353 0.950 . S
H2348 C2354 0.949 . S
C2349 H2344 0.950 . S
C2349 C2351 1.327 . S
C2349 C2355 1.429 . S
C2350 C2342 1.574 . S
C2350 H2345 0.949 . S
C2350 C2356 1.368 . S
C2351 C2335 1.349 . S
C2351 H2343 0.950 . S
C2351 C2349 1.327 . S
C2352 C2340 1.349 . S
C2352 H2346 0.950 . S
C2352 C2353 1.327 . S
C2353 H2347 0.950 . S
C2353 C2352 1.327 . S
C2353 C2357 1.429 . S
C2354 C2337 1.574 . S
C2354 H2348 0.949 . S
C2354 C2358 1.368 . S
C2355 C2336 1.429 . S
C2355 C2349 1.429 . S
C2355 C2356 1.523 . S
C2356 C2337 1.368 . S
C2356 C2350 1.368 . S
C2356 C2355 1.523 . S
C2357 C2341 1.429 . S
C2357 C2353 1.429 . S
C2357 C2358 1.523 . S
C2358 C2342 1.368 . S
C2358 C2354 1.368 . S
C2358 C2357 1.523 . S
H2359 C2334 0.950 . S
H2360 C2336 0.950 . S
H2361 C2337 0.949 . S
H2362 C2339 0.950 . S
H2363 C2341 0.950 . S
C2364 C2365 1.349 . S
C2364 C2366 1.327 . S
C2364 H2389 0.950 . S
C2365 C2364 1.349 . S
C2365 C2381 1.349 . S
C2366 C2364 1.327 . S
C2366 C2385 1.429 . S
C2366 H2390 0.950 . S
C2367 C2384 1.574 . S
C2367 C2386 1.368 . S
C2367 H2391 0.949 . S
H2368 C2372 0.949 . S
C2369 C2370 1.349 . S
C2369 C2371 1.327 . S
C2369 H2392 0.950 . S
C2370 C2369 1.349 . S
C2370 C2382 1.349 . S
C2371 C2369 1.327 . S
C2371 C2387 1.429 . S
C2371 H2393 0.950 . S
C2372 H2368 0.949 . S
C2372 C2380 1.574 . S
C2372 C2388 1.368 . S
H2373 C2381 0.950 . S
H2374 C2379 0.950 . S
H2375 C2380 0.949 . S
H2376 C2382 0.950 . S
H2377 C2383 0.950 . S
H2378 C2384 0.949 . S
C2379 H2374 0.950 . S
C2379 C2381 1.327 . S
C2379 C2385 1.429 . S
C2380 C2372 1.574 . S
C2380 H2375 0.949 . S
C2380 C2386 1.368 . S
C2381 C2365 1.349 . S
C2381 H2373 0.950 . S
C2381 C2379 1.327 . S
C2382 C2370 1.349 . S
C2382 H2376 0.950 . S
C2382 C2383 1.327 . S
C2383 H2377 0.950 . S
C2383 C2382 1.327 . S
C2383 C2387 1.429 . S
C2384 C2367 1.574 . S
C2384 H2378 0.949 . S
C2384 C2388 1.368 . S
C2385 C2366 1.429 . S
C2385 C2379 1.429 . S
C2385 C2386 1.523 . S
C2386 C2367 1.368 . S
C2386 C2380 1.368 . S
C2386 C2385 1.523 . S
C2387 C2371 1.429 . S
C2387 C2383 1.429 . S
C2387 C2388 1.523 . S
C2388 C2372 1.368 . S
C2388 C2384 1.368 . S
C2388 C2387 1.523 . S
H2389 C2364 0.950 . S
H2390 C2366 0.950 . S
H2391 C2367 0.949 . S
H2392 C2369 0.950 . S
H2393 C2371 0.950 . S
C2394 C2395 1.349 . S
C2394 C2396 1.327 . S
C2394 H2419 0.950 . S
C2395 C2394 1.349 . S
C2395 C2411 1.349 . S
C2396 C2394 1.327 . S
C2396 C2415 1.429 . S
C2396 H2420 0.950 . S
C2397 C2414 1.574 . S
C2397 C2416 1.368 . S
C2397 H2421 0.949 . S
H2398 C2402 0.949 . S
C2399 C2400 1.349 . S
C2399 C2401 1.327 . S
C2399 H2422 0.950 . S
C2400 C2399 1.349 . S
C2400 C2412 1.349 . S
C2401 C2399 1.327 . S
C2401 C2417 1.429 . S
C2401 H2423 0.950 . S
C2402 H2398 0.949 . S
C2402 C2410 1.574 . S
C2402 C2418 1.368 . S
H2403 C2411 0.950 . S
H2404 C2409 0.950 . S
H2405 C2410 0.949 . S
H2406 C2412 0.950 . S
H2407 C2413 0.950 . S
H2408 C2414 0.949 . S
C2409 H2404 0.950 . S
C2409 C2411 1.327 . S
C2409 C2415 1.429 . S
C2410 C2402 1.574 . S
C2410 H2405 0.949 . S
C2410 C2416 1.368 . S
C2411 C2395 1.349 . S
C2411 H2403 0.950 . S
C2411 C2409 1.327 . S
C2412 C2400 1.349 . S
C2412 H2406 0.950 . S
C2412 C2413 1.327 . S
C2413 H2407 0.950 . S
C2413 C2412 1.327 . S
C2413 C2417 1.429 . S
C2414 C2397 1.574 . S
C2414 H2408 0.949 . S
C2414 C2418 1.368 . S
C2415 C2396 1.429 . S
C2415 C2409 1.429 . S
C2415 C2416 1.523 . S
C2416 C2397 1.368 . S
C2416 C2410 1.368 . S
C2416 C2415 1.523 . S
C2417 C2401 1.429 . S
C2417 C2413 1.429 . S
C2417 C2418 1.523 . S
C2418 C2402 1.368 . S
C2418 C2414 1.368 . S
C2418 C2417 1.523 . S
H2419 C2394 0.950 . S
H2420 C2396 0.950 . S
H2421 C2397 0.949 . S
H2422 C2399 0.950 . S
H2423 C2401 0.950 . S
C2424 C2425 1.349 . S
C2424 C2426 1.327 . S
C2424 H2449 0.950 . S
C2425 C2424 1.349 . S
C2425 C2441 1.349 . S
C2426 C2424 1.327 . S
C2426 C2445 1.429 . S
C2426 H2450 0.950 . S
C2427 C2444 1.574 . S
C2427 C2446 1.368 . S
C2427 H2451 0.949 . S
H2428 C2432 0.949 . S
C2429 C2430 1.349 . S
C2429 C2431 1.327 . S
C2429 H2452 0.950 . S
C2430 C2429 1.349 . S
C2430 C2442 1.349 . S
C2431 C2429 1.327 . S
C2431 C2447 1.429 . S
C2431 H2453 0.950 . S
C2432 H2428 0.949 . S
C2432 C2440 1.574 . S
C2432 C2448 1.368 . S
H2433 C2441 0.950 . S
H2434 C2439 0.950 . S
H2435 C2440 0.949 . S
H2436 C2442 0.950 . S
H2437 C2443 0.950 . S
H2438 C2444 0.949 . S
C2439 H2434 0.950 . S
C2439 C2441 1.327 . S
C2439 C2445 1.429 . S
C2440 C2432 1.574 . S
C2440 H2435 0.949 . S
C2440 C2446 1.368 . S
C2441 C2425 1.349 . S
C2441 H2433 0.950 . S
C2441 C2439 1.327 . S
C2442 C2430 1.349 . S
C2442 H2436 0.950 . S
C2442 C2443 1.327 . S
C2443 H2437 0.950 . S
C2443 C2442 1.327 . S
C2443 C2447 1.429 . S
C2444 C2427 1.574 . S
C2444 H2438 0.949 . S
C2444 C2448 1.368 . S
C2445 C2426 1.429 . S
C2445 C2439 1.429 . S
C2445 C2446 1.523 . S
C2446 C2427 1.368 . S
C2446 C2440 1.368 . S
C2446 C2445 1.523 . S
C2447 C2431 1.429 . S
C2447 C2443 1.429 . S
C2447 C2448 1.523 . S
C2448 C2432 1.368 . S
C2448 C2444 1.368 . S
C2448 C2447 1.523 . S
H2449 C2424 0.950 . S
H2450 C2426 0.950 . S
H2451 C2427 0.949 . S
H2452 C2429 0.950 . S
H2453 C2431 0.950 . S
C2454 C2455 1.349 . S
C2454 C2456 1.327 . S
C2454 H2479 0.950 . S
C2455 C2454 1.349 . S
C2455 C2471 1.349 . S
C2456 C2454 1.327 . S
C2456 C2475 1.429 . S
C2456 H2480 0.950 . S
C2457 C2474 1.574 . S
C2457 C2476 1.368 . S
C2457 H2481 0.949 . S
H2458 C2462 0.949 . S
C2459 C2460 1.349 . S
C2459 C2461 1.327 . S
C2459 H2482 0.950 . S
C2460 C2459 1.349 . S
C2460 C2472 1.349 . S
C2461 C2459 1.327 . S
C2461 C2477 1.429 . S
C2461 H2483 0.950 . S
C2462 H2458 0.949 . S
C2462 C2470 1.574 . S
C2462 C2478 1.368 . S
H2463 C2471 0.950 . S
H2464 C2469 0.950 . S
H2465 C2470 0.949 . S
H2466 C2472 0.950 . S
H2467 C2473 0.950 . S
H2468 C2474 0.949 . S
C2469 H2464 0.950 . S
C2469 C2471 1.327 . S
C2469 C2475 1.429 . S
C2470 C2462 1.574 . S
C2470 H2465 0.949 . S
C2470 C2476 1.368 . S
C2471 C2455 1.349 . S
C2471 H2463 0.950 . S
C2471 C2469 1.327 . S
C2472 C2460 1.349 . S
C2472 H2466 0.950 . S
C2472 C2473 1.327 . S
C2473 H2467 0.950 . S
C2473 C2472 1.327 . S
C2473 C2477 1.429 . S
C2474 C2457 1.574 . S
C2474 H2468 0.949 . S
C2474 C2478 1.368 . S
C2475 C2456 1.429 . S
C2475 C2469 1.429 . S
C2475 C2476 1.523 . S
C2476 C2457 1.368 . S
C2476 C2470 1.368 . S
C2476 C2475 1.523 . S
C2477 C2461 1.429 . S
C2477 C2473 1.429 . S
C2477 C2478 1.523 . S
C2478 C2462 1.368 . S
C2478 C2474 1.368 . S
C2478 C2477 1.523 . S
H2479 C2454 0.950 . S
H2480 C2456 0.950 . S
H2481 C2457 0.949 . S
H2482 C2459 0.950 . S
H2483 C2461 0.950 . S
C2484 C2485 1.349 . S
C2484 C2486 1.327 . S
C2484 H2509 0.950 . S
C2485 C2484 1.349 . S
C2485 C2501 1.349 . S
C2486 C2484 1.327 . S
C2486 C2505 1.429 . S
C2486 H2510 0.950 . S
C2487 C2504 1.574 . S
C2487 C2506 1.368 . S
C2487 H2511 0.949 . S
H2488 C2492 0.949 . S
C2489 C2490 1.349 . S
C2489 C2491 1.327 . S
C2489 H2512 0.950 . S
C2490 C2489 1.349 . S
C2490 C2502 1.349 . S
C2491 C2489 1.327 . S
C2491 C2507 1.429 . S
C2491 H2513 0.950 . S
C2492 H2488 0.949 . S
C2492 C2500 1.574 . S
C2492 C2508 1.368 . S
H2493 C2501 0.950 . S
H2494 C2499 0.950 . S
H2495 C2500 0.949 . S
H2496 C2502 0.950 . S
H2497 C2503 0.950 . S
H2498 C2504 0.949 . S
C2499 H2494 0.950 . S
C2499 C2501 1.327 . S
C2499 C2505 1.429 . S
C2500 C2492 1.574 . S
C2500 H2495 0.949 . S
C2500 C2506 1.368 . S
C2501 C2485 1.349 . S
C2501 H2493 0.950 . S
C2501 C2499 1.327 . S
C2502 C2490 1.349 . S
C2502 H2496 0.950 . S
C2502 C2503 1.327 . S
C2503 H2497 0.950 . S
C2503 C2502 1.327 . S
C2503 C2507 1.429 . S
C2504 C2487 1.574 . S
C2504 H2498 0.949 . S
C2504 C2508 1.368 . S
C2505 C2486 1.429 . S
C2505 C2499 1.429 . S
C2505 C2506 1.523 . S
C2506 C2487 1.368 . S
C2506 C2500 1.368 . S
C2506 C2505 1.523 . S
C2507 C2491 1.429 . S
C2507 C2503 1.429 . S
C2507 C2508 1.523 . S
C2508 C2492 1.368 . S
C2508 C2504 1.368 . S
C2508 C2507 1.523 . S
H2509 C2484 0.950 . S
H2510 C2486 0.950 . S
H2511 C2487 0.949 . S
H2512 C2489 0.950 . S
H2513 C2491 0.950 . S
C2514 C2515 1.349 . S
C2514 C2516 1.327 . S
C2514 H2539 0.950 . S
C2515 C2514 1.349 . S
C2515 C2531 1.349 . S
C2516 C2514 1.327 . S
C2516 C2535 1.429 . S
C2516 H2540 0.950 . S
C2517 C2534 1.574 . S
C2517 C2536 1.368 . S
C2517 H2541 0.949 . S
H2518 C2522 0.949 . S
C2519 C2520 1.349 . S
C2519 C2521 1.327 . S
C2519 H2542 0.950 . S
C2520 C2519 1.349 . S
C2520 C2532 1.349 . S
C2521 C2519 1.327 . S
C2521 C2537 1.429 . S
C2521 H2543 0.950 . S
C2522 H2518 0.949 . S
C2522 C2530 1.574 . S
C2522 C2538 1.368 . S
H2523 C2531 0.950 . S
H2524 C2529 0.950 . S
H2525 C2530 0.949 . S
H2526 C2532 0.950 . S
H2527 C2533 0.950 . S
H2528 C2534 0.949 . S
C2529 H2524 0.950 . S
C2529 C2531 1.327 . S
C2529 C2535 1.429 . S
C2530 C2522 1.574 . S
C2530 H2525 0.949 . S
C2530 C2536 1.368 . S
C2531 C2515 1.349 . S
C2531 H2523 0.950 . S
C2531 C2529 1.327 . S
C2532 C2520 1.349 . S
C2532 H2526 0.950 . S
C2532 C2533 1.327 . S
C2533 H2527 0.950 . S
C2533 C2532 1.327 . S
C2533 C2537 1.429 . S
C2534 C2517 1.574 . S
C2534 H2528 0.949 . S
C2534 C2538 1.368 . S
C2535 C2516 1.429 . S
C2535 C2529 1.429 . S
C2535 C2536 1.523 . S
C2536 C2517 1.368 . S
C2536 C2530 1.368 . S
C2536 C2535 1.523 . S
C2537 C2521 1.429 . S
C2537 C2533 1.429 . S
C2537 C2538 1.523 . S
C2538 C2522 1.368 . S
C2538 C2534 1.368 . S
C2538 C2537 1.523 . S
H2539 C2514 0.950 . S
H2540 C2516 0.950 . S
H2541 C2517 0.949 . S
H2542 C2519 0.950 . S
H2543 C2521 0.950 . S
C2544 C2545 1.349 . S
C2544 C2546 1.327 . S
C2544 H2569 0.950 . S
C2545 C2544 1.349 . S
C2545 C2561 1.349 . S
C2546 C2544 1.327 . S
C2546 C2565 1.429 . S
C2546 H2570 0.950 . S
C2547 C2564 1.574 . S
C2547 C2566 1.368 . S
C2547 H2571 0.949 . S
H2548 C2552 0.949 . S
C2549 C2550 1.349 . S
C2549 C2551 1.327 . S
C2549 H2572 0.950 . S
C2550 C2549 1.349 . S
C2550 C2562 1.349 . S
C2551 C2549 1.327 . S
C2551 C2567 1.429 . S
C2551 H2573 0.950 . S
C2552 H2548 0.949 . S
C2552 C2560 1.574 . S
C2552 C2568 1.368 . S
H2553 C2561 0.950 . S
H2554 C2559 0.950 . S
H2555 C2560 0.949 . S
H2556 C2562 0.950 . S
H2557 C2563 0.950 . S
H2558 C2564 0.949 . S
C2559 H2554 0.950 . S
C2559 C2561 1.327 . S
C2559 C2565 1.429 . S
C2560 C2552 1.574 . S
C2560 H2555 0.949 . S
C2560 C2566 1.368 . S
C2561 C2545 1.349 . S
C2561 H2553 0.950 . S
C2561 C2559 1.327 . S
C2562 C2550 1.349 . S
C2562 H2556 0.950 . S
C2562 C2563 1.327 . S
C2563 H2557 0.950 . S
C2563 C2562 1.327 . S
C2563 C2567 1.429 . S
C2564 C2547 1.574 . S
C2564 H2558 0.949 . S
C2564 C2568 1.368 . S
C2565 C2546 1.429 . S
C2565 C2559 1.429 . S
C2565 C2566 1.523 . S
C2566 C2547 1.368 . S
C2566 C2560 1.368 . S
C2566 C2565 1.523 . S
C2567 C2551 1.429 . S
C2567 C2563 1.429 . S
C2567 C2568 1.523 . S
C2568 C2552 1.368 . S
C2568 C2564 1.368 . S
C2568 C2567 1.523 . S
H2569 C2544 0.950 . S
H2570 C2546 0.950 . S
H2571 C2547 0.949 . S
H2572 C2549 0.950 . S
H2573 C2551 0.950 . S
C2574 C2575 1.349 . S
C2574 C2576 1.327 . S
C2574 H2599 0.950 . S
C2575 C2574 1.349 . S
C2575 C2591 1.349 . S
C2576 C2574 1.327 . S
C2576 C2595 1.429 . S
C2576 H2600 0.950 . S
C2577 C2594 1.574 . S
C2577 C2596 1.368 . S
C2577 H2601 0.949 . S
H2578 C2582 0.949 . S
C2579 C2580 1.349 . S
C2579 C2581 1.327 . S
C2579 H2602 0.950 . S
C2580 C2579 1.349 . S
C2580 C2592 1.349 . S
C2581 C2579 1.327 . S
C2581 C2597 1.429 . S
C2581 H2603 0.950 . S
C2582 H2578 0.949 . S
C2582 C2590 1.574 . S
C2582 C2598 1.368 . S
H2583 C2591 0.950 . S
H2584 C2589 0.950 . S
H2585 C2590 0.949 . S
H2586 C2592 0.950 . S
H2587 C2593 0.950 . S
H2588 C2594 0.949 . S
C2589 H2584 0.950 . S
C2589 C2591 1.327 . S
C2589 C2595 1.429 . S
C2590 C2582 1.574 . S
C2590 H2585 0.949 . S
C2590 C2596 1.368 . S
C2591 C2575 1.349 . S
C2591 H2583 0.950 . S
C2591 C2589 1.327 . S
C2592 C2580 1.349 . S
C2592 H2586 0.950 . S
C2592 C2593 1.327 . S
C2593 H2587 0.950 . S
C2593 C2592 1.327 . S
C2593 C2597 1.429 . S
C2594 C2577 1.574 . S
C2594 H2588 0.949 . S
C2594 C2598 1.368 . S
C2595 C2576 1.429 . S
C2595 C2589 1.429 . S
C2595 C2596 1.523 . S
C2596 C2577 1.368 . S
C2596 C2590 1.368 . S
C2596 C2595 1.523 . S
C2597 C2581 1.429 . S
C2597 C2593 1.429 . S
C2597 C2598 1.523 . S
C2598 C2582 1.368 . S
C2598 C2594 1.368 . S
C2598 C2597 1.523 . S
H2599 C2574 0.950 . S
H2600 C2576 0.950 . S
H2601 C2577 0.949 . S
H2602 C2579 0.950 . S
H2603 C2581 0.950 . S
C2604 C2605 1.349 . S
C2604 C2606 1.327 . S
C2604 H2629 0.950 . S
C2605 C2604 1.349 . S
C2605 C2621 1.349 . S
C2606 C2604 1.327 . S
C2606 C2625 1.429 . S
C2606 H2630 0.950 . S
C2607 C2624 1.574 . S
C2607 C2626 1.368 . S
C2607 H2631 0.949 . S
H2608 C2612 0.949 . S
C2609 C2610 1.349 . S
C2609 C2611 1.327 . S
C2609 H2632 0.950 . S
C2610 C2609 1.349 . S
C2610 C2622 1.349 . S
C2611 C2609 1.327 . S
C2611 C2627 1.429 . S
C2611 H2633 0.950 . S
C2612 H2608 0.949 . S
C2612 C2620 1.574 . S
C2612 C2628 1.368 . S
H2613 C2621 0.950 . S
H2614 C2619 0.950 . S
H2615 C2620 0.949 . S
H2616 C2622 0.950 . S
H2617 C2623 0.950 . S
H2618 C2624 0.949 . S
C2619 H2614 0.950 . S
C2619 C2621 1.327 . S
C2619 C2625 1.429 . S
C2620 C2612 1.574 . S
C2620 H2615 0.949 . S
C2620 C2626 1.368 . S
C2621 C2605 1.349 . S
C2621 H2613 0.950 . S
C2621 C2619 1.327 . S
C2622 C2610 1.349 . S
C2622 H2616 0.950 . S
C2622 C2623 1.327 . S
C2623 H2617 0.950 . S
C2623 C2622 1.327 . S
C2623 C2627 1.429 . S
C2624 C2607 1.574 . S
C2624 H2618 0.949 . S
C2624 C2628 1.368 . S
C2625 C2606 1.429 . S
C2625 C2619 1.429 . S
C2625 C2626 1.523 . S
C2626 C2607 1.368 . S
C2626 C2620 1.368 . S
C2626 C2625 1.523 . S
C2627 C2611 1.429 . S
C2627 C2623 1.429 . S
C2627 C2628 1.523 . S
C2628 C2612 1.368 . S
C2628 C2624 1.368 . S
C2628 C2627 1.523 . S
H2629 C2604 0.950 . S
H2630 C2606 0.950 . S
H2631 C2607 0.949 . S
H2632 C2609 0.950 . S
H2633 C2611 0.950 . S
C2634 C2635 1.349 . S
C2634 C2636 1.327 . S
C2634 H2659 0.950 . S
C2635 C2634 1.349 . S
C2635 C2651 1.349 . S
C2636 C2634 1.327 . S
C2636 C2655 1.429 . S
C2636 H2660 0.950 . S
C2637 C2654 1.574 . S
C2637 C2656 1.368 . S
C2637 H2661 0.949 . S
H2638 C2642 0.949 . S
C2639 C2640 1.349 . S
C2639 C2641 1.327 . S
C2639 H2662 0.950 . S
C2640 C2639 1.349 . S
C2640 C2652 1.349 . S
C2641 C2639 1.327 . S
C2641 C2657 1.429 . S
C2641 H2663 0.950 . S
C2642 H2638 0.949 . S
C2642 C2650 1.574 . S
C2642 C2658 1.368 . S
H2643 C2651 0.950 . S
H2644 C2649 0.950 . S
H2645 C2650 0.949 . S
H2646 C2652 0.950 . S
H2647 C2653 0.950 . S
H2648 C2654 0.949 . S
C2649 H2644 0.950 . S
C2649 C2651 1.327 . S
C2649 C2655 1.429 . S
C2650 C2642 1.574 . S
C2650 H2645 0.949 . S
C2650 C2656 1.368 . S
C2651 C2635 1.349 . S
C2651 H2643 0.950 . S
C2651 C2649 1.327 . S
C2652 C2640 1.349 . S
C2652 H2646 0.950 . S
C2652 C2653 1.327 . S
C2653 H2647 0.950 . S
C2653 C2652 1.327 . S
C2653 C2657 1.429 . S
C2654 C2637 1.574 . S
C2654 H2648 0.949 . S
C2654 C2658 1.368 . S
C2655 C2636 1.429 . S
C2655 C2649 1.429 . S
C2655 C2656 1.523 . S
C2656 C2637 1.368 . S
C2656 C2650 1.368 . S
C2656 C2655 1.523 . S
C2657 C2641 1.429 . S
C2657 C2653 1.429 . S
C2657 C2658 1.523 . S
C2658 C2642 1.368 . S
C2658 C2654 1.368 . S
C2658 C2657 1.523 . S
H2659 C2634 0.950 . S
H2660 C2636 0.950 . S
H2661 C2637 0.949 . S
H2662 C2639 0.950 . S
H2663 C2641 0.950 . S
C2664 C2665 1.349 . S
C2664 C2666 1.327 . S
C2664 H2689 0.950 . S
C2665 C2664 1.349 . S
C2665 C2681 1.349 . S
C2666 C2664 1.327 . S
C2666 C2685 1.429 . S
C2666 H2690 0.950 . S
C2667 C2684 1.574 . S
C2667 C2686 1.368 . S
C2667 H2691 0.949 . S
H2668 C2672 0.949 . S
C2669 C2670 1.349 . S
C2669 C2671 1.327 . S
C2669 H2692 0.950 . S
C2670 C2669 1.349 . S
C2670 C2682 1.349 . S
C2671 C2669 1.327 . S
C2671 C2687 1.429 . S
C2671 H2693 0.950 . S
C2672 H2668 0.949 . S
C2672 C2680 1.574 . S
C2672 C2688 1.368 . S
H2673 C2681 0.950 . S
H2674 C2679 0.950 . S
H2675 C2680 0.949 . S
H2676 C2682 0.950 . S
H2677 C2683 0.950 . S
H2678 C2684 0.949 . S
C2679 H2674 0.950 . S
C2679 C2681 1.327 . S
C2679 C2685 1.429 . S
C2680 C2672 1.574 . S
C2680 H2675 0.949 . S
C2680 C2686 1.368 . S
C2681 C2665 1.349 . S
C2681 H2673 0.950 . S
C2681 C2679 1.327 . S
C2682 C2670 1.349 . S
C2682 H2676 0.950 . S
C2682 C2683 1.327 . S
C2683 H2677 0.950 . S
C2683 C2682 1.327 . S
C2683 C2687 1.429 . S
C2684 C2667 1.574 . S
C2684 H2678 0.949 . S
C2684 C2688 1.368 . S
C2685 C2666 1.429 . S
C2685 C2679 1.429 . S
C2685 C2686 1.523 . S
C2686 C2667 1.368 . S
C2686 C2680 1.368 . S
C2686 C2685 1.523 . S
C2687 C2671 1.429 . S
C2687 C2683 1.429 . S
C2687 C2688 1.523 . S
C2688 C2672 1.368 . S
C2688 C2684 1.368 . S
C2688 C2687 1.523 . S
H2689 C2664 0.950 . S
H2690 C2666 0.950 . S
H2691 C2667 0.949 . S
H2692 C2669 0.950 . S
H2693 C2671 0.950 . S
C2694 C2695 1.349 . S
C2694 C2696 1.327 . S
C2694 H2719 0.950 . S
C2695 C2694 1.349 . S
C2695 C2711 1.349 . S
C2696 C2694 1.327 . S
C2696 C2715 1.429 . S
C2696 H2720 0.950 . S
C2697 C2714 1.574 . S
C2697 C2716 1.368 . S
C2697 H2721 0.949 . S
H2698 C2702 0.949 . S
C2699 C2700 1.349 . S
C2699 C2701 1.327 . S
C2699 H2722 0.950 . S
C2700 C2699 1.349 . S
C2700 C2712 1.349 . S
C2701 C2699 1.327 . S
C2701 C2717 1.429 . S
C2701 H2723 0.950 . S
C2702 H2698 0.949 . S
C2702 C2710 1.574 . S
C2702 C2718 1.368 . S
H2703 C2711 0.950 . S
H2704 C2709 0.950 . S
H2705 C2710 0.949 . S
H2706 C2712 0.950 . S
H2707 C2713 0.950 . S
H2708 C2714 0.949 . S
C2709 H2704 0.950 . S
C2709 C2711 1.327 . S
C2709 C2715 1.429 . S
C2710 C2702 1.574 . S
C2710 H2705 0.949 . S
C2710 C2716 1.368 . S
C2711 C2695 1.349 . S
C2711 H2703 0.950 . S
C2711 C2709 1.327 . S
C2712 C2700 1.349 . S
C2712 H2706 0.950 . S
C2712 C2713 1.327 . S
C2713 H2707 0.950 . S
C2713 C2712 1.327 . S
C2713 C2717 1.429 . S
C2714 C2697 1.574 . S
C2714 H2708 0.949 . S
C2714 C2718 1.368 . S
C2715 C2696 1.429 . S
C2715 C2709 1.429 . S
C2715 C2716 1.523 . S
C2716 C2697 1.368 . S
C2716 C2710 1.368 . S
C2716 C2715 1.523 . S
C2717 C2701 1.429 . S
C2717 C2713 1.429 . S
C2717 C2718 1.523 . S
C2718 C2702 1.368 . S
C2718 C2714 1.368 . S
C2718 C2717 1.523 . S
H2719 C2694 0.950 . S
H2720 C2696 0.950 . S
H2721 C2697 0.949 . S
H2722 C2699 0.950 . S
H2723 C2701 0.950 . S
C2724 C2725 1.349 . S
C2724 C2726 1.327 . S
C2724 H2749 0.950 . S
C2725 C2724 1.349 . S
C2725 C2741 1.349 . S
C2726 C2724 1.327 . S
C2726 C2745 1.429 . S
C2726 H2750 0.950 . S
C2727 C2744 1.574 . S
C2727 C2746 1.368 . S
C2727 H2751 0.949 . S
H2728 C2732 0.949 . S
C2729 C2730 1.349 . S
C2729 C2731 1.327 . S
C2729 H2752 0.950 . S
C2730 C2729 1.349 . S
C2730 C2742 1.349 . S
C2731 C2729 1.327 . S
C2731 C2747 1.429 . S
C2731 H2753 0.950 . S
C2732 H2728 0.949 . S
C2732 C2740 1.574 . S
C2732 C2748 1.368 . S
H2733 C2741 0.950 . S
H2734 C2739 0.950 . S
H2735 C2740 0.949 . S
H2736 C2742 0.950 . S
H2737 C2743 0.950 . S
H2738 C2744 0.949 . S
C2739 H2734 0.950 . S
C2739 C2741 1.327 . S
C2739 C2745 1.429 . S
C2740 C2732 1.574 . S
C2740 H2735 0.949 . S
C2740 C2746 1.368 . S
C2741 C2725 1.349 . S
C2741 H2733 0.950 . S
C2741 C2739 1.327 . S
C2742 C2730 1.349 . S
C2742 H2736 0.950 . S
C2742 C2743 1.327 . S
C2743 H2737 0.950 . S
C2743 C2742 1.327 . S
C2743 C2747 1.429 . S
C2744 C2727 1.574 . S
C2744 H2738 0.949 . S
C2744 C2748 1.368 . S
C2745 C2726 1.429 . S
C2745 C2739 1.429 . S
C2745 C2746 1.523 . S
C2746 C2727 1.368 . S
C2746 C2740 1.368 . S
C2746 C2745 1.523 . S
C2747 C2731 1.429 . S
C2747 C2743 1.429 . S
C2747 C2748 1.523 . S
C2748 C2732 1.368 . S
C2748 C2744 1.368 . S
C2748 C2747 1.523 . S
H2749 C2724 0.950 . S
H2750 C2726 0.950 . S
H2751 C2727 0.949 . S
H2752 C2729 0.950 . S
H2753 C2731 0.950 . S
C2754 C2755 1.349 . S
C2754 C2756 1.327 . S
C2754 H2779 0.950 . S
C2755 C2754 1.349 . S
C2755 C2771 1.349 . S
C2756 C2754 1.327 . S
C2756 C2775 1.429 . S
C2756 H2780 0.950 . S
C2757 C2774 1.574 . S
C2757 C2776 1.368 . S
C2757 H2781 0.949 . S
H2758 C2762 0.949 . S
C2759 C2760 1.349 . S
C2759 C2761 1.327 . S
C2759 H2782 0.950 . S
C2760 C2759 1.349 . S
C2760 C2772 1.349 . S
C2761 C2759 1.327 . S
C2761 C2777 1.429 . S
C2761 H2783 0.950 . S
C2762 H2758 0.949 . S
C2762 C2770 1.574 . S
C2762 C2778 1.368 . S
H2763 C2771 0.950 . S
H2764 C2769 0.950 . S
H2765 C2770 0.949 . S
H2766 C2772 0.950 . S
H2767 C2773 0.950 . S
H2768 C2774 0.949 . S
C2769 H2764 0.950 . S
C2769 C2771 1.327 . S
C2769 C2775 1.429 . S
C2770 C2762 1.574 . S
C2770 H2765 0.949 . S
C2770 C2776 1.368 . S
C2771 C2755 1.349 . S
C2771 H2763 0.950 . S
C2771 C2769 1.327 . S
C2772 C2760 1.349 . S
C2772 H2766 0.950 . S
C2772 C2773 1.327 . S
C2773 H2767 0.950 . S
C2773 C2772 1.327 . S
C2773 C2777 1.429 . S
C2774 C2757 1.574 . S
C2774 H2768 0.949 . S
C2774 C2778 1.368 . S
C2775 C2756 1.429 . S
C2775 C2769 1.429 . S
C2775 C2776 1.523 . S
C2776 C2757 1.368 . S
C2776 C2770 1.368 . S
C2776 C2775 1.523 . S
C2777 C2761 1.429 . S
C2777 C2773 1.429 . S
C2777 C2778 1.523 . S
C2778 C2762 1.368 . S
C2778 C2774 1.368 . S
C2778 C2777 1.523 . S
H2779 C2754 0.950 . S
H2780 C2756 0.950 . S
H2781 C2757 0.949 . S
H2782 C2759 0.950 . S
H2783 C2761 0.950 . S
C1345 C319 1.161 . S
C1350 C63 1.144 . S
C1375 C56 0.749 . S
C1380 C154 0.749 . S
C1405 C242 1.031 . S
C1410 C147 1.058 . S
C1435 C310 1.546 . S
C1440 C226 1.583 . S
C1465 C394 0.755 . S
C1470 C476 0.759 . S
C1495 C483 1.028 . S
C1500 C567 1.058 . S
C1525 C574 1.502 . S
C1530 C646 1.552 . S
C1555 C403 1.181 . S
C1560 C662 1.154 . S
C1585 C826 1.540 . S
C1590 C70 1.541 . S
C1615 C896 1.195 . S
C1620 C140 1.233 . S
C1645 C235 3.247 . S
C1650 C1159 3.246 . S
C1675 C746 1.004 . S
C1680 C326 1.009 . S
C1705 C998 1.008 . S
C1710 C410 1.003 . S
C1735 C1246 1.541 . S
C1740 C490 1.540 . S
C1765 C560 1.195 . S
C1770 C1064 1.233 . S
C1795 C1327 3.247 . S
C1800 C655 3.246 . S
C1825 C739 1.181 . S
C1830 C1166 1.154 . S
C1855 C812 0.759 . S
C1860 C730 0.755 . S
C1885 C903 1.058 . S
C1890 C819 1.028 . S
C1915 C1239 1.144 . S
C1920 C991 1.161 . S
C1945 C1071 1.058 . S
C1950 C1334 1.031 . S
C1975 C980 1.161 . S
C1980 C74 1.144 . S
C2005 C1066 0.749 . S
C2010 C67 0.749 . S
C2035 C1082 1.058 . S
C2040 C231 1.031 . S
C2065 C238 1.583 . S
C2070 C994 1.546 . S
C2095 C823 0.759 . S
C2100 C406 0.755 . S
C2125 C830 1.028 . S
C2130 C578 1.058 . S
C2155 C1162 1.552 . S
C2160 C562 1.502 . S
C2185 C392 1.181 . S
C2190 C1155 1.154 . S
C2215 C478 1.540 . S
C2220 C58 1.541 . S
C2245 C907 1.195 . S
C2250 C1075 1.233 . S
C2275 C224 3.247 . S
C2280 C644 3.246 . S
C2305 C735 1.003 . S
C2310 C987 1.008 . S
C2335 C315 1.008 . S
C2340 C399 1.003 . S
C2365 C814 1.540 . S
C2370 C1234 1.541 . S
C2395 C571 1.195 . S
C2400 C151 1.233 . S
C2425 C1316 3.247 . S
C2430 C1148 3.246 . S
C2455 C728 1.182 . S
C2460 C651 1.155 . S
C2485 C742 0.755 . S
C2490 C487 0.759 . S
C2515 C914 1.058 . S
C2520 C494 1.028 . S
C2545 C308 1.161 . S
C2550 C1250 1.144 . S
C2575 C158 1.058 . S
C2580 C1323 1.031 . S
C2605 C1078 0.749 . S
C2610 C1232 0.749 . S
C2635 C982 1.546 . S
C2640 C1318 1.583 . S
C2665 C910 1.502 . S
C2670 C1150 1.552 . S
C2695 C1243 0.749 . S
C2700 C142 0.749 . S
C2725 C322 1.546 . S
C2730 C1330 1.583 . S
C2755 C658 1.552 . S
C2760 C898 1.502 . S
