# Generated by pormake.
# Topology uma, (4)-cn, num edge types: 1
# Building blocks:
#     Node 0, Type 0, BuildingBlock: QUQFOY_clean_sbu_1, # of connection points: 4
#     Node 1, Type 0, BuildingBlock: QUQFOY_clean_sbu_1, # of connection points: 4
#     Node 2, Type 0, BuildingBlock: QUQFOY_clean_sbu_1, # of connection points: 4
#     Node 3, Type 0, BuildingBlock: QUQFOY_clean_sbu_1, # of connection points: 4
#     Node 4, Type 0, BuildingBlock: QUQFOY_clean_sbu_1, # of connection points: 4
#     Node 5, Type 0, BuildingBlock: QUQFOY_clean_sbu_1, # of connection points: 4
#     Node 6, Type 0, BuildingBlock: QUQFOY_clean_sbu_1, # of connection points: 4
#     Node 7, Type 0, BuildingBlock: QUQFOY_clean_sbu_1, # of connection points: 4
#     Node 8, Type 0, BuildingBlock: QUQFOY_clean_sbu_1, # of connection points: 4
#     Node 9, Type 0, BuildingBlock: QUQFOY_clean_sbu_1, # of connection points: 4
#     Node 10, Type 0, BuildingBlock: QUQFOY_clean_sbu_1, # of connection points: 4
#     Node 11, Type 0, BuildingBlock: QUQFOY_clean_sbu_1, # of connection points: 4
#     Node 12, Type 0, BuildingBlock: QUQFOY_clean_sbu_1, # of connection points: 4
#     Node 13, Type 0, BuildingBlock: QUQFOY_clean_sbu_1, # of connection points: 4
#     Node 14, Type 0, BuildingBlock: QUQFOY_clean_sbu_1, # of connection points: 4
#     Node 15, Type 0, BuildingBlock: QUQFOY_clean_sbu_1, # of connection points: 4
#     Node 16, Type 0, BuildingBlock: QUQFOY_clean_sbu_1, # of connection points: 4
#     Node 17, Type 0, BuildingBlock: QUQFOY_clean_sbu_1, # of connection points: 4
#     Node 18, Type 0, BuildingBlock: QUQFOY_clean_sbu_1, # of connection points: 4
#     Node 19, Type 0, BuildingBlock: QUQFOY_clean_sbu_1, # of connection points: 4
#     Node 20, Type 0, BuildingBlock: QUQFOY_clean_sbu_1, # of connection points: 4
#     Node 21, Type 0, BuildingBlock: QUQFOY_clean_sbu_1, # of connection points: 4
#     Node 22, Type 0, BuildingBlock: QUQFOY_clean_sbu_1, # of connection points: 4
#     Node 23, Type 0, BuildingBlock: QUQFOY_clean_sbu_1, # of connection points: 4
#     Node 24, Type 0, BuildingBlock: QUQFOY_clean_sbu_1, # of connection points: 4
#     Node 25, Type 0, BuildingBlock: QUQFOY_clean_sbu_1, # of connection points: 4
#     Node 26, Type 0, BuildingBlock: QUQFOY_clean_sbu_1, # of connection points: 4
#     Node 27, Type 0, BuildingBlock: QUQFOY_clean_sbu_1, # of connection points: 4
#     Node 28, Type 0, BuildingBlock: QUQFOY_clean_sbu_1, # of connection points: 4
#     Node 29, Type 0, BuildingBlock: QUQFOY_clean_sbu_1, # of connection points: 4
#     Node 30, Type 0, BuildingBlock: QUQFOY_clean_sbu_1, # of connection points: 4
#     Node 31, Type 0, BuildingBlock: QUQFOY_clean_sbu_1, # of connection points: 4
#     Node 32, Type 0, BuildingBlock: QUQFOY_clean_sbu_1, # of connection points: 4
#     Node 33, Type 0, BuildingBlock: QUQFOY_clean_sbu_1, # of connection points: 4
#     Node 34, Type 0, BuildingBlock: QUQFOY_clean_sbu_1, # of connection points: 4
#     Node 35, Type 0, BuildingBlock: QUQFOY_clean_sbu_1, # of connection points: 4
#     Edge 36, Type (0, 0), None
#     Edge 37, Type (0, 0), None
#     Edge 38, Type (0, 0), None
#     Edge 39, Type (0, 0), None
#     Edge 40, Type (0, 0), None
#     Edge 41, Type (0, 0), None
#     Edge 42, Type (0, 0), None
#     Edge 43, Type (0, 0), None
#     Edge 44, Type (0, 0), None
#     Edge 45, Type (0, 0), None
#     Edge 46, Type (0, 0), None
#     Edge 47, Type (0, 0), None
#     Edge 48, Type (0, 0), None
#     Edge 49, Type (0, 0), None
#     Edge 50, Type (0, 0), None
#     Edge 51, Type (0, 0), None
#     Edge 52, Type (0, 0), None
#     Edge 53, Type (0, 0), None
#     Edge 54, Type (0, 0), None
#     Edge 55, Type (0, 0), None
#     Edge 56, Type (0, 0), None
#     Edge 57, Type (0, 0), None
#     Edge 58, Type (0, 0), None
#     Edge 59, Type (0, 0), None
#     Edge 60, Type (0, 0), None
#     Edge 61, Type (0, 0), None
#     Edge 62, Type (0, 0), None
#     Edge 63, Type (0, 0), None
#     Edge 64, Type (0, 0), None
#     Edge 65, Type (0, 0), None
#     Edge 66, Type (0, 0), None
#     Edge 67, Type (0, 0), None
#     Edge 68, Type (0, 0), None
#     Edge 69, Type (0, 0), None
#     Edge 70, Type (0, 0), None
#     Edge 71, Type (0, 0), None
#     Edge 72, Type (0, 0), None
#     Edge 73, Type (0, 0), None
#     Edge 74, Type (0, 0), None
#     Edge 75, Type (0, 0), None
#     Edge 76, Type (0, 0), None
#     Edge 77, Type (0, 0), None
#     Edge 78, Type (0, 0), None
#     Edge 79, Type (0, 0), None
#     Edge 80, Type (0, 0), None
#     Edge 81, Type (0, 0), None
#     Edge 82, Type (0, 0), None
#     Edge 83, Type (0, 0), None
#     Edge 84, Type (0, 0), None
#     Edge 85, Type (0, 0), None
#     Edge 86, Type (0, 0), None
#     Edge 87, Type (0, 0), None
#     Edge 88, Type (0, 0), None
#     Edge 89, Type (0, 0), None
#     Edge 90, Type (0, 0), None
#     Edge 91, Type (0, 0), None
#     Edge 92, Type (0, 0), None
#     Edge 93, Type (0, 0), None
#     Edge 94, Type (0, 0), None
#     Edge 95, Type (0, 0), None
#     Edge 96, Type (0, 0), None
#     Edge 97, Type (0, 0), None
#     Edge 98, Type (0, 0), None
#     Edge 99, Type (0, 0), None
#     Edge 100, Type (0, 0), None
#     Edge 101, Type (0, 0), None
#     Edge 102, Type (0, 0), None
#     Edge 103, Type (0, 0), None
#     Edge 104, Type (0, 0), None
#     Edge 105, Type (0, 0), None
#     Edge 106, Type (0, 0), None
#     Edge 107, Type (0, 0), None
# Relax obj value: 0.079
# Max RMSD: 0.198
# Mean RMSD: 0.197
data_MOF--net-uma--node1-QUQFOY_clean_sbu_1--edge1-none
_symmetry_space_group_name_H-M    P1
_symmetry_Int_Tables_number       1
_symmetry_cell_setting            triclinic
loop_
_symmetry_equiv_pos_as_xyz
'x, y, z'
_cell_length_a     46.874767
_cell_length_b     46.87548
_cell_length_c     14.362906
_cell_angle_alpha  90.000041
_cell_angle_beta   90.003191
_cell_angle_gamma 119.98602
loop_
_atom_site_label
_atom_site_type_symbol
_atom_site_fract_x
_atom_site_fract_y
_atom_site_fract_z
_atom_type_partial_charge
O0 O 0.02105 0.25441 1.08859 0.0
Cd1 Cd 0.01011 0.23624 0.21942 0.0
Cd2 Cd 0.00354 0.29616 0.22764 0.0
O3 O 0.03523 0.30661 1.1144 0.0
O4 O 0.02682 0.20489 0.21902 0.0
O5 O 0.04795 0.24936 0.30816 0.0
C6 C 0.04981 0.2248 0.27437 0.0
C7 C -0.00821 0.33311 0.31532 0.0
C8 C 0.03271 0.28366 1.06028 0.0
C9 C -0.05366 0.22415 0.19324 0.0
O10 O -0.03939 0.25535 0.19271 0.0
O11 O -0.03962 0.20891 0.22436 0.0
O12 O -0.01191 0.33017 0.22643 0.0
O13 O 0.00496 0.31763 0.3541 0.0
O14 O 0.62808 0.74314 1.08864 0.0
Cd15 Cd 0.64627 0.75037 0.21946 0.0
Cd16 Cd 0.58634 0.68389 0.22767 0.0
O17 O 0.57588 0.70514 1.11443 0.0
O18 O 0.67764 0.79841 0.21902 0.0
O19 O 0.63319 0.77513 0.3082 0.0
C20 C 0.65775 0.80152 0.27439 0.0
C21 C 0.5494 0.6352 0.31533 0.0
C22 C 0.59883 0.72555 1.06032 0.0
C23 C 0.65836 0.69869 0.19324 0.0
O24 O 0.62716 0.68177 0.19272 0.0
O25 O 0.6736 0.72796 0.22437 0.0
O26 O 0.55234 0.63444 0.22644 0.0
O27 O 0.56487 0.66384 0.35412 0.0
O28 O 0.13938 0.86149 1.08856 0.0
Cd29 Cd 0.13214 0.87246 0.21937 0.0
Cd30 Cd 0.19863 0.879 0.22764 0.0
O31 O 0.17738 0.84729 1.11442 0.0
O32 O 0.08409 0.85578 0.21894 0.0
O33 O 0.10741 0.83464 0.30814 0.0
C34 C 0.08101 0.8328 0.27432 0.0
C35 C 0.24732 0.89074 0.31531 0.0
C36 C 0.15697 0.84983 1.06028 0.0
C37 C 0.18381 0.93621 0.19316 0.0
O38 O 0.20074 0.92193 0.19266 0.0
O39 O 0.15454 0.92219 0.22426 0.0
O40 O 0.24808 0.89443 0.22642 0.0
O41 O 0.21868 0.87759 0.3541 0.0
O42 O 0.23091 0.04456 0.26489 0.0
Cd43 Cd 0.21273 0.03362 1.13406 0.0
Cd44 Cd 0.27265 0.02705 1.12585 0.0
O45 O 0.2831 0.05875 0.23909 0.0
O46 O 0.18138 0.05033 1.13444 0.0
O47 O 0.22585 0.07145 1.04532 0.0
C48 C 0.20129 0.07331 1.0791 0.0
C49 C 0.3096 0.0153 1.03818 0.0
C50 C 0.26015 0.05622 0.29321 0.0
C51 C 0.20064 -0.03014 1.16025 0.0
O52 O 0.23184 -0.01587 1.16079 0.0
O53 O 0.1854 -0.01611 1.12912 0.0
O54 O 0.30667 0.0116 1.12707 0.0
O55 O 0.29412 0.02846 0.9994 0.0
O56 O 0.83798 0.16289 0.26489 0.0
Cd57 Cd 0.84894 0.15565 1.13409 0.0
Cd58 Cd 0.85549 0.22213 1.12583 0.0
O59 O 0.82377 0.20089 0.23903 0.0
O60 O 0.83227 0.1076 1.13454 0.0
O61 O 0.81112 0.13091 1.04533 0.0
C62 C 0.80928 0.10451 1.07915 0.0
C63 C 0.86722 0.27083 1.03816 0.0
C64 C 0.82631 0.18048 0.29317 0.0
C65 C 0.9127 0.20732 1.16033 0.0
O66 O 0.89841 0.22424 1.16083 0.0
O67 O 0.89868 0.17805 1.12921 0.0
O68 O 0.87092 0.27159 1.12705 0.0
O69 O 0.85407 0.24219 0.99937 0.0
O70 O 0.71963 0.65159 0.26487 0.0
Cd71 Cd 0.72686 0.66978 1.13406 0.0
Cd72 Cd 0.66038 0.60986 1.12583 0.0
O73 O 0.68163 0.5994 0.23905 0.0
O74 O 0.77491 0.70115 1.13452 0.0
O75 O 0.75162 0.65671 1.04531 0.0
C76 C 0.77802 0.68127 1.07913 0.0
C77 C 0.61169 0.57292 1.03815 0.0
C78 C 0.70205 0.62234 0.29317 0.0
C79 C 0.67518 0.68187 1.16031 0.0
O80 O 0.65826 0.65067 1.16082 0.0
O81 O 0.70445 0.69711 1.12918 0.0
O82 O 0.61093 0.57585 1.12704 0.0
O83 O 0.64033 0.5884 0.99937 0.0
O84 O 0.83801 0.65167 0.26491 0.0
Cd85 Cd 0.84895 0.66985 1.13408 0.0
Cd86 Cd 0.85552 0.60993 1.12585 0.0
O87 O 0.82382 0.59947 0.23908 0.0
O88 O 0.83224 0.7012 1.13448 0.0
O89 O 0.81112 0.65673 1.04533 0.0
C90 C 0.80926 0.68129 1.07913 0.0
C91 C 0.86727 0.57297 1.03817 0.0
C92 C 0.82635 0.62242 0.29321 0.0
C93 C 0.91272 0.68194 1.16026 0.0
O94 O 0.89844 0.65074 1.16079 0.0
O95 O 0.89868 0.69718 1.12915 0.0
O96 O 0.87097 0.57591 1.12706 0.0
O97 O 0.85411 0.58846 0.99939 0.0
O98 O 0.23098 0.16293 0.26485 0.0
Cd99 Cd 0.21278 0.1557 1.13404 0.0
Cd100 Cd 0.27271 0.22219 1.12582 0.0
O101 O 0.28317 0.20094 0.23905 0.0
O102 O 0.18141 0.10766 1.13449 0.0
O103 O 0.22587 0.13095 1.04528 0.0
C104 C 0.2013 0.10456 1.07911 0.0
C105 C 0.30966 0.27088 1.03816 0.0
C106 C 0.26023 0.18052 0.29317 0.0
C107 C 0.2007 0.20738 1.16026 0.0
O108 O 0.2319 0.2243 1.16078 0.0
O109 O 0.18546 0.17812 1.12914 0.0
O110 O 0.30672 0.27164 1.12705 0.0
O111 O 0.29418 0.24224 0.99937 0.0
O112 O 0.71969 0.04459 0.26493 0.0
Cd113 Cd 0.72693 0.03362 1.13413 0.0
Cd114 Cd 0.66044 0.02708 1.12585 0.0
O115 O 0.68169 0.05879 0.23906 0.0
O116 O 0.77497 0.0503 1.13456 0.0
O117 O 0.75165 0.07144 1.04534 0.0
C118 C 0.77805 0.07328 1.07917 0.0
C119 C 0.61174 0.01534 1.03818 0.0
C120 C 0.7021 0.05626 0.2932 0.0
C121 C 0.67525 -0.03013 1.16034 0.0
O122 O 0.65833 -0.01585 1.16084 0.0
O123 O 0.70452 -0.01611 1.12923 0.0
O124 O 0.61099 0.01165 1.12707 0.0
O125 O 0.64038 0.02849 0.99939 0.0
O126 O 0.62816 0.86152 1.08859 0.0
Cd127 Cd 0.64633 0.87246 0.21943 0.0
Cd128 Cd 0.58641 0.87903 0.22764 0.0
O129 O 0.57596 0.84734 1.11439 0.0
O130 O 0.67768 0.85575 0.21904 0.0
O131 O 0.63321 0.83463 0.30817 0.0
C132 C 0.65777 0.83277 0.27438 0.0
C133 C 0.54946 0.89078 0.31531 0.0
C134 C 0.59891 0.84986 1.06027 0.0
C135 C 0.65842 0.93622 0.19325 0.0
O136 O 0.62722 0.92195 0.19271 0.0
O137 O 0.67366 0.92219 0.22438 0.0
O138 O 0.55239 0.89448 0.22643 0.0
O139 O 0.56494 0.87762 0.35409 0.0
O140 O 0.02108 0.74319 1.08859 0.0
Cd141 Cd 0.01012 0.75043 0.2194 0.0
Cd142 Cd 0.00357 0.68394 0.22766 0.0
O143 O 0.03528 0.70519 1.11445 0.0
O144 O 0.02679 0.79848 0.21894 0.0
O145 O 0.04794 0.77516 0.30816 0.0
C146 C 0.04977 0.80156 0.27432 0.0
C147 C -0.00816 0.63525 0.31533 0.0
C148 C 0.03275 0.7256 1.06031 0.0
C149 C -0.05364 0.69876 0.19317 0.0
O150 O -0.03935 0.68184 0.19267 0.0
O151 O -0.03962 0.72803 0.22429 0.0
O152 O -0.01186 0.63449 0.22644 0.0
O153 O 0.00499 0.66389 0.35412 0.0
O154 O 0.13942 0.25449 1.08861 0.0
Cd155 Cd 0.13219 0.23629 0.21942 0.0
Cd156 Cd 0.19868 0.29622 0.22766 0.0
O157 O 0.17743 0.30668 1.11444 0.0
O158 O 0.08415 0.20492 0.21897 0.0
O159 O 0.10745 0.24938 0.30819 0.0
C160 C 0.08105 0.22481 0.27435 0.0
C161 C 0.24737 0.33316 0.31534 0.0
C162 C 0.15701 0.28374 1.06031 0.0
C163 C 0.18387 0.22421 0.19319 0.0
O164 O 0.20079 0.25541 0.19268 0.0
O165 O 0.15461 0.20897 0.22432 0.0
O166 O 0.24813 0.33023 0.22645 0.0
O167 O 0.21873 0.31769 0.35412 0.0
O168 O 0.68773 0.58776 0.42192 0.0
Cd169 Cd 0.67677 0.56956 0.55273 0.0
Cd170 Cd 0.6702 0.62949 0.56098 0.0
O171 O 0.70191 0.63995 0.44776 0.0
O172 O 0.69348 0.53821 0.55231 0.0
O173 O 0.7146 0.58267 0.64149 0.0
C174 C 0.71646 0.55811 0.60768 0.0
C175 C 0.65845 0.66644 0.64866 0.0
C176 C 0.69939 0.61701 0.39365 0.0
C177 C 0.61301 0.55748 0.52652 0.0
O178 O 0.62728 0.58868 0.52602 0.0
O179 O 0.62704 0.54224 0.55763 0.0
O180 O 0.65475 0.66351 0.55977 0.0
O181 O 0.67161 0.65096 0.68744 0.0
O182 O 0.29474 0.07648 0.42197 0.0
Cd183 Cd 0.31294 0.08371 0.55277 0.0
Cd184 Cd 0.25301 0.01722 0.561 0.0
O185 O 0.24254 0.03847 0.44779 0.0
O186 O 0.34432 0.13176 0.5523 0.0
O187 O 0.29988 0.10847 0.64153 0.0
C188 C 0.32444 0.13487 0.6077 0.0
C189 C 0.21607 -0.03147 0.64867 0.0
C190 C 0.26548 0.0589 0.39369 0.0
C191 C 0.32503 0.03203 0.52652 0.0
O192 O 0.29383 0.01511 0.52603 0.0
O193 O 0.34027 0.0613 0.55764 0.0
O194 O 0.21901 -0.03223 0.55978 0.0
O195 O 0.23155 -0.00284 0.68745 0.0
O196 O 0.80604 0.19481 0.42189 0.0
Cd197 Cd 0.7988 0.2058 0.55267 0.0
Cd198 Cd 0.8653 0.21234 0.56096 0.0
O199 O 0.84405 0.18062 0.44777 0.0
O200 O 0.75076 0.18912 0.55222 0.0
O201 O 0.77407 0.16798 0.64146 0.0
C202 C 0.74766 0.16614 0.60763 0.0
C203 C 0.91399 0.22408 0.64864 0.0
C204 C 0.82362 0.18313 0.39364 0.0
C205 C 0.85048 0.26954 0.52643 0.0
O206 O 0.8674 0.25526 0.52596 0.0
O207 O 0.82121 0.25553 0.55753 0.0
O208 O 0.91475 0.22777 0.55975 0.0
O209 O 0.88535 0.21093 0.68742 0.0
O210 O 0.89758 0.37789 0.5982 0.0
Cd211 Cd 0.87941 0.36696 0.46736 0.0
Cd212 Cd -0.06067 0.36037 0.45917 0.0
O213 O -0.05022 0.39206 0.57243 0.0
O214 O 0.84807 0.38367 0.46775 0.0
O215 O 0.89254 0.4048 0.37864 0.0
C216 C 0.86798 0.40666 0.41242 0.0
C217 C -0.02373 0.34862 0.3715 0.0
C218 C 0.92683 0.38954 0.62654 0.0
C219 C 0.86731 0.30319 0.49353 0.0
O220 O 0.89851 0.31746 0.49407 0.0
O221 O 0.85207 0.31723 0.4624 0.0
O222 O -0.02666 0.34492 0.46039 0.0
O223 O -0.0392 0.36179 0.33272 0.0
O224 O 0.50465 0.49624 0.59821 0.0
Cd225 Cd 0.5156 0.489 0.4674 0.0
Cd226 Cd 0.52216 0.55549 0.45916 0.0
O227 O 0.49045 0.53425 0.57238 0.0
O228 O 0.49892 0.44095 0.46785 0.0
O229 O 0.47777 0.46426 0.37865 0.0
C230 C 0.47593 0.43785 0.41248 0.0
C231 C 0.5339 0.60418 0.3715 0.0
C232 C 0.49298 0.51383 0.62651 0.0
C233 C 0.57936 0.54066 0.49361 0.0
O234 O 0.56508 0.55759 0.49412 0.0
O235 O 0.56534 0.51139 0.4625 0.0
O236 O 0.5376 0.60494 0.46039 0.0
O237 O 0.52074 0.57554 0.33271 0.0
O238 O 0.38629 -0.01509 0.59819 0.0
Cd239 Cd 0.39352 0.0031 0.46737 0.0
Cd240 Cd 0.32703 0.94318 0.45915 0.0
O241 O 0.34828 0.93272 0.57239 0.0
O242 O 0.44157 0.03447 0.46783 0.0
O243 O 0.41828 -0.00998 0.37863 0.0
C244 C 0.44467 0.01458 0.41245 0.0
C245 C 0.27834 0.90625 0.37149 0.0
C246 C 0.3687 -0.04433 0.62651 0.0
C247 C 0.34185 0.0152 0.49359 0.0
O248 O 0.32493 -0.016 0.49411 0.0
O249 O 0.37111 0.03044 0.46247 0.0
O250 O 0.27758 0.90918 0.46038 0.0
O251 O 0.30698 0.92171 0.3327 0.0
O252 O 0.50468 -0.01501 0.59821 0.0
Cd253 Cd 0.51562 0.00317 0.46738 0.0
Cd254 Cd 0.5222 0.94324 0.45916 0.0
O255 O 0.49051 0.9328 0.57242 0.0
O256 O 0.4989 0.03451 0.46779 0.0
O257 O 0.47777 -0.00996 0.37865 0.0
C258 C 0.47592 0.0146 0.41245 0.0
C259 C 0.53396 0.9063 0.37149 0.0
C260 C 0.49303 -0.04426 0.62653 0.0
C261 C 0.57939 0.01526 0.49353 0.0
O262 O 0.56512 -0.01594 0.49407 0.0
O263 O 0.56535 0.0305 0.46242 0.0
O264 O 0.53766 0.90923 0.46038 0.0
O265 O 0.52078 0.92177 0.33271 0.0
O266 O 0.89766 0.49628 0.59817 0.0
Cd267 Cd 0.87947 0.48905 0.46735 0.0
Cd268 Cd -0.06061 0.55554 0.45915 0.0
O269 O -0.05015 0.5343 0.5724 0.0
O270 O 0.8481 0.441 0.4678 0.0
O271 O 0.89256 0.4643 0.37861 0.0
C272 C 0.86799 0.4379 0.41243 0.0
C273 C -0.02368 0.60423 0.3715 0.0
C274 C 0.9269 0.51388 0.6265 0.0
C275 C 0.86737 0.54072 0.49354 0.0
O276 O 0.89857 0.55764 0.49407 0.0
O277 O 0.85213 0.51146 0.46242 0.0
O278 O -0.02661 0.60499 0.46039 0.0
O279 O -0.03914 0.57559 0.3327 0.0
O280 O 0.38634 0.37792 0.59825 0.0
Cd281 Cd 0.39358 0.36696 0.46744 0.0
Cd282 Cd 0.32708 0.36041 0.45918 0.0
O283 O 0.34833 0.39211 0.57241 0.0
O284 O 0.44163 0.38364 0.46787 0.0
O285 O 0.4183 0.40478 0.37867 0.0
C286 C 0.4447 0.40662 0.4125 0.0
C287 C 0.27839 0.34866 0.37151 0.0
C288 C 0.36874 0.38958 0.62654 0.0
C289 C 0.34191 0.3032 0.49362 0.0
O290 O 0.32498 0.31748 0.49413 0.0
O291 O 0.37118 0.31723 0.46252 0.0
O292 O 0.27763 0.34497 0.4604 0.0
O293 O 0.30703 0.36183 0.33273 0.0
O294 O 0.29481 0.19484 0.42193 0.0
Cd295 Cd 0.31301 0.2058 0.55274 0.0
Cd296 Cd 0.25307 0.21237 0.56097 0.0
O297 O 0.24262 0.18066 0.44775 0.0
O298 O 0.34436 0.18909 0.55233 0.0
O299 O 0.2999 0.16797 0.64151 0.0
C300 C 0.32445 0.16611 0.60769 0.0
C301 C 0.21613 0.22412 0.64865 0.0
C302 C 0.26556 0.18317 0.39364 0.0
C303 C 0.32509 0.26956 0.52653 0.0
O304 O 0.29389 0.25528 0.52602 0.0
O305 O 0.34033 0.25553 0.55765 0.0
O306 O 0.21906 0.22782 0.55976 0.0
O307 O 0.23161 0.21096 0.68743 0.0
O308 O 0.68776 0.07653 0.42192 0.0
Cd309 Cd 0.67678 0.08377 0.5527 0.0
Cd310 Cd 0.67024 0.01727 0.56098 0.0
O311 O 0.70196 0.03852 0.44781 0.0
O312 O 0.69345 0.13182 0.55222 0.0
O313 O 0.7146 0.10851 0.64149 0.0
C314 C 0.71643 0.13491 0.60762 0.0
C315 C 0.6585 -0.03142 0.64866 0.0
C316 C 0.69944 0.05894 0.39367 0.0
C317 C 0.61303 0.03209 0.52644 0.0
O318 O 0.62732 0.01517 0.52597 0.0
O319 O 0.62705 0.06136 0.55755 0.0
O320 O 0.65481 -0.03218 0.55976 0.0
O321 O 0.67165 -0.00279 0.68744 0.0
O322 O 0.80609 0.58783 0.42195 0.0
Cd323 Cd 0.79885 0.56962 0.55273 0.0
Cd324 Cd 0.86535 0.62956 0.561 0.0
O325 O 0.84409 0.64003 0.4478 0.0
O326 O 0.75081 0.53825 0.55226 0.0
O327 O 0.7741 0.58269 0.64152 0.0
C328 C 0.74771 0.55813 0.60766 0.0
C329 C 0.91404 0.66649 0.64868 0.0
C330 C 0.82367 0.61709 0.39368 0.0
C331 C 0.85054 0.55754 0.52647 0.0
O332 O 0.86746 0.58874 0.52599 0.0
O333 O 0.82127 0.5423 0.55759 0.0
O334 O 0.9148 0.66356 0.55978 0.0
O335 O 0.8854 0.65102 0.68746 0.0
O336 O 0.35438 0.92109 0.75528 0.0
Cd337 Cd 0.34344 0.90291 0.8861 0.0
Cd338 Cd 0.33686 -0.03716 0.89433 0.0
O339 O 0.36856 -0.02671 0.78109 0.0
O340 O 0.36016 0.87156 0.88569 0.0
O341 O 0.38128 0.91603 0.97484 0.0
C342 C 0.38314 0.89147 0.94104 0.0
C343 C 0.3251 -0.00022 0.982 0.0
C344 C 0.36605 0.95034 0.72699 0.0
C345 C 0.27968 0.89082 0.85994 0.0
O346 O 0.29395 0.92202 0.85941 0.0
O347 O 0.29371 0.87558 0.89104 0.0
O348 O 0.3214 -0.00316 0.89311 0.0
O349 O 0.33828 -0.01569 1.02078 0.0
O350 O -0.0386 0.4098 0.75532 0.0
Cd351 Cd -0.0204 0.41703 0.88614 0.0
Cd352 Cd 0.91967 0.35054 0.89435 0.0
O353 O 0.90921 0.37179 0.78111 0.0
O354 O 0.01096 0.46508 0.88568 0.0
O355 O -0.03348 0.44179 0.97488 0.0
C356 C -0.00892 0.46819 0.94106 0.0
C357 C 0.88273 0.30185 0.982 0.0
C358 C -0.06785 0.39221 0.72702 0.0
C359 C -0.00831 0.36536 0.85993 0.0
O360 O -0.03951 0.34844 0.85941 0.0
O361 O 0.00693 0.39463 0.89104 0.0
O362 O 0.88567 0.30108 0.89311 0.0
O363 O 0.8982 0.33048 1.02079 0.0
O364 O 0.47272 0.52816 0.75525 0.0
Cd365 Cd 0.46548 0.53912 0.88605 0.0
Cd366 Cd 0.53198 0.54567 0.89431 0.0
O367 O 0.51073 0.51396 0.7811 0.0
O368 O 0.41743 0.52244 0.88561 0.0
O369 O 0.44075 0.5013 0.97481 0.0
C370 C 0.41434 0.49946 0.94099 0.0
C371 C 0.58067 0.55742 0.98198 0.0
C372 C 0.4903 0.51648 0.72698 0.0
C373 C 0.51715 0.60288 0.85985 0.0
O374 O 0.53407 0.58859 0.85935 0.0
O375 O 0.48788 0.58886 0.89095 0.0
O376 O 0.58143 0.56111 0.89309 0.0
O377 O 0.55203 0.54426 1.02077 0.0
O378 O 0.56425 0.71124 0.93155 0.0
Cd379 Cd 0.54606 0.70028 0.80073 0.0
Cd380 Cd 0.60599 0.69371 0.79251 0.0
O381 O 0.61645 0.72541 0.90574 0.0
O382 O 0.51471 0.717 0.80113 0.0
O383 O 0.55917 0.73811 0.71198 0.0
C384 C 0.53461 0.73998 0.74577 0.0
C385 C 0.64293 0.68195 0.70484 0.0
C386 C 0.5935 0.7229 0.95984 0.0
C387 C 0.53397 0.63652 0.82694 0.0
O388 O 0.56517 0.65079 0.82746 0.0
O389 O 0.51873 0.65055 0.79581 0.0
O390 O 0.64 0.67825 0.79373 0.0
O391 O 0.62745 0.69512 0.66606 0.0
O392 O 0.1713 0.82956 0.93156 0.0
Cd393 Cd 0.18228 0.82232 0.80077 0.0
Cd394 Cd 0.18883 0.88882 0.7925 0.0
O395 O 0.15711 0.86757 0.90568 0.0
O396 O 0.1656 0.77427 0.80124 0.0
O397 O 0.14446 0.79757 0.712 0.0
C398 C 0.14262 0.77117 0.74585 0.0
C399 C 0.20058 0.93751 0.70483 0.0
C400 C 0.15962 0.84714 0.95981 0.0
C401 C 0.24603 0.87399 0.82702 0.0
O402 O 0.23175 0.89091 0.8275 0.0
O403 O 0.23201 0.84472 0.79591 0.0
O404 O 0.20426 0.93827 0.79372 0.0
O405 O 0.18741 0.90887 0.66604 0.0
O406 O 0.05297 0.31824 0.93153 0.0
Cd407 Cd 0.0602 0.33645 0.80074 0.0
Cd408 Cd -0.0063 0.27652 0.79249 0.0
O409 O 0.01496 0.26605 0.90569 0.0
O410 O 0.10824 0.36782 0.80121 0.0
O411 O 0.08496 0.32338 0.71197 0.0
C412 C 0.11135 0.34795 0.74581 0.0
C413 C -0.05499 0.23959 0.70481 0.0
C414 C 0.03538 0.28899 0.9598 0.0
C415 C 0.00852 0.34854 0.827 0.0
O416 O -0.0084 0.31733 0.82748 0.0
O417 O 0.03778 0.36378 0.79587 0.0
O418 O -0.05575 0.24252 0.7937 0.0
O419 O -0.02635 0.25506 0.66603 0.0
O420 O 0.17133 0.31832 0.93156 0.0
Cd421 Cd 0.18229 0.33652 0.80075 0.0
Cd422 Cd 0.18886 0.27658 0.7925 0.0
O423 O 0.15716 0.26613 0.90572 0.0
O424 O 0.16558 0.36787 0.80117 0.0
O425 O 0.14446 0.3234 0.71199 0.0
C426 C 0.1426 0.34796 0.74581 0.0
C427 C 0.20062 0.23964 0.70483 0.0
C428 C 0.15967 0.28907 0.95984 0.0
C429 C 0.24605 0.3486 0.82695 0.0
O430 O 0.23178 0.3174 0.82746 0.0
O431 O 0.23202 0.36384 0.79584 0.0
O432 O 0.20432 0.24257 0.79372 0.0
O433 O 0.18745 0.25512 0.66604 0.0
O434 O 0.56433 0.8296 0.93151 0.0
Cd435 Cd 0.54612 0.82237 0.80071 0.0
Cd436 Cd 0.60606 0.88887 0.79248 0.0
O437 O 0.61652 0.86761 0.90569 0.0
O438 O 0.51475 0.77433 0.80118 0.0
O439 O 0.55919 0.79761 0.71194 0.0
C440 C 0.53463 0.77122 0.74579 0.0
C441 C 0.64299 0.93756 0.70482 0.0
C442 C 0.59358 0.84719 0.95979 0.0
C443 C 0.53404 0.87405 0.82695 0.0
O444 O 0.56524 0.89097 0.82745 0.0
O445 O 0.51879 0.84479 0.79583 0.0
O446 O 0.64006 0.93832 0.79371 0.0
O447 O 0.62752 0.90892 0.66603 0.0
O448 O 0.05302 0.71127 0.9316 0.0
Cd449 Cd 0.06026 0.70029 0.80081 0.0
Cd450 Cd -0.00624 0.69374 0.79252 0.0
O451 O 0.01501 0.72546 0.90571 0.0
O452 O 0.1083 0.71696 0.80127 0.0
O453 O 0.08498 0.7381 0.71202 0.0
C454 C 0.11139 0.73994 0.74587 0.0
C455 C -0.05494 0.68199 0.70484 0.0
C456 C 0.03543 0.72294 0.95984 0.0
C457 C 0.00858 0.63654 0.82704 0.0
O458 O -0.00834 0.65082 0.82751 0.0
O459 O 0.03785 0.65055 0.79594 0.0
O460 O -0.0557 0.6783 0.79374 0.0
O461 O -0.0263 0.69515 0.66606 0.0
O462 O -0.03853 0.52818 0.75528 0.0
Cd463 Cd -0.02034 0.53913 0.88611 0.0
Cd464 Cd 0.91973 0.54571 0.89433 0.0
O465 O 0.90928 0.51401 0.78108 0.0
O466 O 0.011 0.52241 0.8857 0.0
O467 O -0.03346 0.50129 0.97485 0.0
C468 C -0.00891 0.49943 0.94105 0.0
C469 C 0.88279 0.55747 0.98199 0.0
C470 C -0.06778 0.51653 0.72698 0.0
C471 C -0.00825 0.60289 0.85995 0.0
O472 O -0.03945 0.58862 0.85941 0.0
O473 O 0.00699 0.58885 0.89107 0.0
O474 O 0.88572 0.56117 0.8931 0.0
O475 O 0.89826 0.54429 1.02078 0.0
O476 O 0.35442 0.40985 0.75528 0.0
Cd477 Cd 0.34345 0.41709 0.88607 0.0
Cd478 Cd 0.3369 0.35059 0.89434 0.0
O479 O 0.36861 0.37184 0.78113 0.0
O480 O 0.36013 0.46514 0.88561 0.0
O481 O 0.38128 0.44183 0.97484 0.0
C482 C 0.38311 0.46823 0.94099 0.0
C483 C 0.32515 0.3019 0.982 0.0
C484 C 0.36609 0.39226 0.72701 0.0
C485 C 0.2797 0.36542 0.85986 0.0
O486 O 0.29398 0.34849 0.85936 0.0
O487 O 0.29372 0.39469 0.89097 0.0
O488 O 0.32146 0.30114 0.89311 0.0
O489 O 0.33832 0.33054 1.02079 0.0
O490 O 0.47277 0.92117 0.75529 0.0
Cd491 Cd 0.46553 0.90297 0.8861 0.0
Cd492 Cd 0.53203 -0.0371 0.89434 0.0
O493 O 0.51078 -0.02664 0.78112 0.0
O494 O 0.41749 0.8716 0.88563 0.0
O495 O 0.44078 0.91605 0.97486 0.0
C496 C 0.41439 0.89149 0.94102 0.0
C497 C 0.58073 -0.00017 0.98201 0.0
C498 C 0.49036 0.95042 0.72701 0.0
C499 C 0.51721 0.89088 0.85988 0.0
O500 O 0.53414 0.92208 0.85938 0.0
O501 O 0.48795 0.87564 0.891 0.0
O502 O 0.58149 -0.0031 0.89312 0.0
O503 O 0.55209 -0.01563 1.02079 0.0
loop_
_geom_bond_atom_site_label_1
_geom_bond_atom_site_label_2
_geom_bond_distance
_geom_bond_site_symmetry_2
_ccdc_geom_bond_type
O0 Cd1 2.223 . S
O0 C8 1.315 . S
Cd1 O0 2.223 . S
Cd1 O4 2.297 . S
Cd1 O5 2.439 1_556 S
Cd1 O11 2.240 1_556 S
Cd2 O3 2.240 . S
Cd2 O10 2.223 . S
Cd2 O12 2.297 1_556 S
Cd2 O13 2.439 1_556 S
O3 Cd2 2.240 . S
O3 C8 1.279 . S
O4 Cd1 2.297 . S
O4 C6 1.247 1_556 S
O5 Cd1 2.439 1_554 S
O5 C6 1.208 . S
C6 O4 1.247 1_554 S
C6 O5 1.208 . S
C7 O12 1.247 . S
C7 O13 1.208 . S
C8 O0 1.315 . S
C8 O3 1.279 . S
C9 O10 1.315 . S
C9 O11 1.279 1_556 S
O10 Cd2 2.223 . S
O10 C9 1.315 . S
O11 Cd1 2.240 1_554 S
O11 C9 1.279 1_554 S
O12 Cd2 2.297 1_554 S
O12 C7 1.247 . S
O13 Cd2 2.439 1_554 S
O13 C7 1.208 . S
O14 Cd15 2.223 . S
O14 C22 1.315 . S
Cd15 O14 2.223 . S
Cd15 O18 2.297 . S
Cd15 O19 2.439 1_556 S
Cd15 O25 2.240 1_556 S
Cd16 O17 2.240 . S
Cd16 O24 2.223 . S
Cd16 O26 2.297 1_556 S
Cd16 O27 2.439 1_556 S
O17 Cd16 2.240 . S
O17 C22 1.279 . S
O18 Cd15 2.297 . S
O18 C20 1.247 1_556 S
O19 Cd15 2.439 1_554 S
O19 C20 1.208 . S
C20 O18 1.247 1_554 S
C20 O19 1.208 . S
C21 O26 1.247 . S
C21 O27 1.208 . S
C22 O14 1.315 . S
C22 O17 1.279 . S
C23 O24 1.315 . S
C23 O25 1.279 1_556 S
O24 Cd16 2.223 . S
O24 C23 1.315 . S
O25 Cd15 2.240 1_554 S
O25 C23 1.279 1_554 S
O26 Cd16 2.297 1_554 S
O26 C21 1.247 . S
O27 Cd16 2.439 1_554 S
O27 C21 1.208 . S
O28 Cd29 2.223 . S
O28 C36 1.315 . S
Cd29 O28 2.223 . S
Cd29 O32 2.297 . S
Cd29 O33 2.439 1_556 S
Cd29 O39 2.240 1_556 S
Cd30 O31 2.240 . S
Cd30 O38 2.223 . S
Cd30 O40 2.297 1_556 S
Cd30 O41 2.439 1_556 S
O31 Cd30 2.240 . S
O31 C36 1.279 . S
O32 Cd29 2.297 . S
O32 C34 1.247 1_556 S
O33 Cd29 2.439 1_554 S
O33 C34 1.208 . S
C34 O32 1.247 1_554 S
C34 O33 1.208 . S
C35 O40 1.247 . S
C35 O41 1.208 . S
C36 O28 1.315 . S
C36 O31 1.279 . S
C37 O38 1.315 . S
C37 O39 1.279 1_556 S
O38 Cd30 2.223 . S
O38 C37 1.315 . S
O39 Cd29 2.240 1_554 S
O39 C37 1.279 1_554 S
O40 Cd30 2.297 1_554 S
O40 C35 1.247 . S
O41 Cd30 2.439 1_554 S
O41 C35 1.208 . S
O42 Cd43 2.223 . S
O42 C50 1.315 . S
Cd43 O42 2.223 . S
Cd43 O46 2.297 . S
Cd43 O47 2.439 1_554 S
Cd43 O53 2.240 1_554 S
Cd44 O45 2.240 . S
Cd44 O52 2.223 . S
Cd44 O54 2.297 1_554 S
Cd44 O55 2.439 1_554 S
O45 Cd44 2.240 . S
O45 C50 1.279 . S
O46 Cd43 2.297 . S
O46 C48 1.247 1_554 S
O47 Cd43 2.439 1_556 S
O47 C48 1.208 . S
C48 O46 1.247 1_556 S
C48 O47 1.208 . S
C49 O54 1.247 . S
C49 O55 1.208 . S
C50 O42 1.315 . S
C50 O45 1.279 . S
C51 O52 1.315 . S
C51 O53 1.279 1_554 S
O52 Cd44 2.223 . S
O52 C51 1.315 . S
O53 Cd43 2.240 1_556 S
O53 C51 1.279 1_556 S
O54 Cd44 2.297 1_556 S
O54 C49 1.247 . S
O55 Cd44 2.439 1_556 S
O55 C49 1.208 . S
O56 Cd57 2.223 . S
O56 C64 1.315 . S
Cd57 O56 2.223 . S
Cd57 O60 2.297 . S
Cd57 O61 2.439 1_554 S
Cd57 O67 2.240 1_554 S
Cd58 O59 2.240 . S
Cd58 O66 2.223 . S
Cd58 O68 2.297 1_554 S
Cd58 O69 2.439 1_554 S
O59 Cd58 2.240 . S
O59 C64 1.279 . S
O60 Cd57 2.297 . S
O60 C62 1.247 1_554 S
O61 Cd57 2.439 1_556 S
O61 C62 1.208 . S
C62 O60 1.247 1_556 S
C62 O61 1.208 . S
C63 O68 1.247 . S
C63 O69 1.208 . S
C64 O56 1.315 . S
C64 O59 1.279 . S
C65 O66 1.315 . S
C65 O67 1.279 1_554 S
O66 Cd58 2.223 . S
O66 C65 1.315 . S
O67 Cd57 2.240 1_556 S
O67 C65 1.279 1_556 S
O68 Cd58 2.297 1_556 S
O68 C63 1.247 . S
O69 Cd58 2.439 1_556 S
O69 C63 1.208 . S
O70 Cd71 2.223 . S
O70 C78 1.315 . S
Cd71 O70 2.223 . S
Cd71 O74 2.297 . S
Cd71 O75 2.439 1_554 S
Cd71 O81 2.240 1_554 S
Cd72 O73 2.240 . S
Cd72 O80 2.223 . S
Cd72 O82 2.297 1_554 S
Cd72 O83 2.439 1_554 S
O73 Cd72 2.240 . S
O73 C78 1.279 . S
O74 Cd71 2.297 . S
O74 C76 1.247 1_554 S
O75 Cd71 2.439 1_556 S
O75 C76 1.208 . S
C76 O74 1.247 1_556 S
C76 O75 1.208 . S
C77 O82 1.247 . S
C77 O83 1.208 . S
C78 O70 1.315 . S
C78 O73 1.279 . S
C79 O80 1.315 . S
C79 O81 1.279 1_554 S
O80 Cd72 2.223 . S
O80 C79 1.315 . S
O81 Cd71 2.240 1_556 S
O81 C79 1.279 1_556 S
O82 Cd72 2.297 1_556 S
O82 C77 1.247 . S
O83 Cd72 2.439 1_556 S
O83 C77 1.208 . S
O84 Cd85 2.223 . S
O84 C92 1.315 . S
Cd85 O84 2.223 . S
Cd85 O88 2.297 . S
Cd85 O89 2.439 1_554 S
Cd85 O95 2.240 1_554 S
Cd86 O87 2.240 . S
Cd86 O94 2.223 . S
Cd86 O96 2.297 1_554 S
Cd86 O97 2.439 1_554 S
O87 Cd86 2.240 . S
O87 C92 1.279 . S
O88 Cd85 2.297 . S
O88 C90 1.247 1_554 S
O89 Cd85 2.439 1_556 S
O89 C90 1.208 . S
C90 O88 1.247 1_556 S
C90 O89 1.208 . S
C91 O96 1.247 . S
C91 O97 1.208 . S
C92 O84 1.315 . S
C92 O87 1.279 . S
C93 O94 1.315 . S
C93 O95 1.279 1_554 S
O94 Cd86 2.223 . S
O94 C93 1.315 . S
O95 Cd85 2.240 1_556 S
O95 C93 1.279 1_556 S
O96 Cd86 2.297 1_556 S
O96 C91 1.247 . S
O97 Cd86 2.439 1_556 S
O97 C91 1.208 . S
O98 Cd99 2.223 . S
O98 C106 1.315 . S
Cd99 O98 2.223 . S
Cd99 O102 2.297 . S
Cd99 O103 2.439 1_554 S
Cd99 O109 2.240 1_554 S
Cd100 O101 2.240 . S
Cd100 O108 2.223 . S
Cd100 O110 2.297 1_554 S
Cd100 O111 2.439 1_554 S
O101 Cd100 2.240 . S
O101 C106 1.279 . S
O102 Cd99 2.297 . S
O102 C104 1.247 1_554 S
O103 Cd99 2.439 1_556 S
O103 C104 1.208 . S
C104 O102 1.247 1_556 S
C104 O103 1.208 . S
C105 O110 1.247 . S
C105 O111 1.208 . S
C106 O98 1.315 . S
C106 O101 1.279 . S
C107 O108 1.315 . S
C107 O109 1.279 1_554 S
O108 Cd100 2.223 . S
O108 C107 1.315 . S
O109 Cd99 2.240 1_556 S
O109 C107 1.279 1_556 S
O110 Cd100 2.297 1_556 S
O110 C105 1.247 . S
O111 Cd100 2.439 1_556 S
O111 C105 1.208 . S
O112 Cd113 2.223 . S
O112 C120 1.315 . S
Cd113 O112 2.223 . S
Cd113 O116 2.297 . S
Cd113 O117 2.439 1_554 S
Cd113 O123 2.240 1_554 S
Cd114 O115 2.240 . S
Cd114 O122 2.223 . S
Cd114 O124 2.297 1_554 S
Cd114 O125 2.439 1_554 S
O115 Cd114 2.240 . S
O115 C120 1.279 . S
O116 Cd113 2.297 . S
O116 C118 1.247 1_554 S
O117 Cd113 2.439 1_556 S
O117 C118 1.208 . S
C118 O116 1.247 1_556 S
C118 O117 1.208 . S
C119 O124 1.247 . S
C119 O125 1.208 . S
C120 O112 1.315 . S
C120 O115 1.279 . S
C121 O122 1.315 . S
C121 O123 1.279 1_554 S
O122 Cd114 2.223 . S
O122 C121 1.315 . S
O123 Cd113 2.240 1_556 S
O123 C121 1.279 1_556 S
O124 Cd114 2.297 1_556 S
O124 C119 1.247 . S
O125 Cd114 2.439 1_556 S
O125 C119 1.208 . S
O126 Cd127 2.223 . S
O126 C134 1.315 . S
Cd127 O126 2.223 . S
Cd127 O130 2.297 . S
Cd127 O131 2.439 1_556 S
Cd127 O137 2.240 1_556 S
Cd128 O129 2.240 . S
Cd128 O136 2.223 . S
Cd128 O138 2.297 1_556 S
Cd128 O139 2.439 1_556 S
O129 Cd128 2.240 . S
O129 C134 1.279 . S
O130 Cd127 2.297 . S
O130 C132 1.247 1_556 S
O131 Cd127 2.439 1_554 S
O131 C132 1.208 . S
C132 O130 1.247 1_554 S
C132 O131 1.208 . S
C133 O138 1.247 . S
C133 O139 1.208 . S
C134 O126 1.315 . S
C134 O129 1.279 . S
C135 O136 1.315 . S
C135 O137 1.279 1_556 S
O136 Cd128 2.223 . S
O136 C135 1.315 . S
O137 Cd127 2.240 1_554 S
O137 C135 1.279 1_554 S
O138 Cd128 2.297 1_554 S
O138 C133 1.247 . S
O139 Cd128 2.439 1_554 S
O139 C133 1.208 . S
O140 Cd141 2.223 . S
O140 C148 1.315 . S
Cd141 O140 2.223 . S
Cd141 O144 2.297 . S
Cd141 O145 2.439 1_556 S
Cd141 O151 2.240 1_556 S
Cd142 O143 2.240 . S
Cd142 O150 2.223 . S
Cd142 O152 2.297 1_556 S
Cd142 O153 2.439 1_556 S
O143 Cd142 2.240 . S
O143 C148 1.279 . S
O144 Cd141 2.297 . S
O144 C146 1.247 1_556 S
O145 Cd141 2.439 1_554 S
O145 C146 1.208 . S
C146 O144 1.247 1_554 S
C146 O145 1.208 . S
C147 O152 1.247 . S
C147 O153 1.208 . S
C148 O140 1.315 . S
C148 O143 1.279 . S
C149 O150 1.315 . S
C149 O151 1.279 1_556 S
O150 Cd142 2.223 . S
O150 C149 1.315 . S
O151 Cd141 2.240 1_554 S
O151 C149 1.279 1_554 S
O152 Cd142 2.297 1_554 S
O152 C147 1.247 . S
O153 Cd142 2.439 1_554 S
O153 C147 1.208 . S
O154 Cd155 2.223 . S
O154 C162 1.315 . S
Cd155 O154 2.223 . S
Cd155 O158 2.297 . S
Cd155 O159 2.439 1_556 S
Cd155 O165 2.240 1_556 S
Cd156 O157 2.240 . S
Cd156 O164 2.223 . S
Cd156 O166 2.297 1_556 S
Cd156 O167 2.439 1_556 S
O157 Cd156 2.240 . S
O157 C162 1.279 . S
O158 Cd155 2.297 . S
O158 C160 1.247 1_556 S
O159 Cd155 2.439 1_554 S
O159 C160 1.208 . S
C160 O158 1.247 1_554 S
C160 O159 1.208 . S
C161 O166 1.247 . S
C161 O167 1.208 . S
C162 O154 1.315 . S
C162 O157 1.279 . S
C163 O164 1.315 . S
C163 O165 1.279 1_556 S
O164 Cd156 2.223 . S
O164 C163 1.315 . S
O165 Cd155 2.240 1_554 S
O165 C163 1.279 1_554 S
O166 Cd156 2.297 1_554 S
O166 C161 1.247 . S
O167 Cd156 2.439 1_554 S
O167 C161 1.208 . S
O168 Cd169 2.223 . S
O168 C176 1.315 . S
Cd169 O168 2.223 . S
Cd169 O172 2.297 . S
Cd169 O173 2.439 . S
Cd169 O179 2.240 . S
Cd170 O171 2.240 . S
Cd170 O178 2.223 . S
Cd170 O180 2.297 . S
Cd170 O181 2.439 . S
O171 Cd170 2.240 . S
O171 C176 1.279 . S
O172 Cd169 2.297 . S
O172 C174 1.247 . S
O173 Cd169 2.439 . S
O173 C174 1.208 . S
C174 O172 1.247 . S
C174 O173 1.208 . S
C175 O180 1.247 . S
C175 O181 1.208 . S
C176 O168 1.315 . S
C176 O171 1.279 . S
C177 O178 1.315 . S
C177 O179 1.279 . S
O178 Cd170 2.223 . S
O178 C177 1.315 . S
O179 Cd169 2.240 . S
O179 C177 1.279 . S
O180 Cd170 2.297 . S
O180 C175 1.247 . S
O181 Cd170 2.439 . S
O181 C175 1.208 . S
O182 Cd183 2.223 . S
O182 C190 1.315 . S
Cd183 O182 2.223 . S
Cd183 O186 2.297 . S
Cd183 O187 2.439 . S
Cd183 O193 2.240 . S
Cd184 O185 2.240 . S
Cd184 O192 2.218 1_545 S
Cd184 O194 2.297 1_545 S
Cd184 O195 2.439 . S
O185 Cd184 2.240 . S
O185 C190 1.279 . S
O186 Cd183 2.297 . S
O186 C188 1.247 . S
O187 Cd183 2.439 . S
O187 C188 1.208 . S
C188 O186 1.247 . S
C188 O187 1.208 . S
C189 O194 1.247 . S
C189 O195 1.208 1_565 S
C190 O182 1.315 . S
C190 O185 1.279 . S
C191 O192 1.311 1_545 S
C191 O193 1.279 . S
O192 Cd184 2.218 1_565 S
O192 C191 1.311 1_565 S
O193 Cd183 2.240 . S
O193 C191 1.279 . S
O194 Cd184 2.297 1_565 S
O194 C189 1.247 . S
O195 Cd184 2.439 . S
O195 C189 1.208 1_545 S
O196 Cd197 2.223 . S
O196 C204 1.315 . S
Cd197 O196 2.223 . S
Cd197 O200 2.297 . S
Cd197 O201 2.439 . S
Cd197 O207 2.240 . S
Cd198 O199 2.240 . S
Cd198 O206 2.227 1_655 S
Cd198 O208 2.297 1_655 S
Cd198 O209 2.439 . S
O199 Cd198 2.240 . S
O199 C204 1.279 . S
O200 Cd197 2.297 . S
O200 C202 1.247 . S
O201 Cd197 2.439 . S
O201 C202 1.208 . S
C202 O200 1.247 . S
C202 O201 1.208 . S
C203 O208 1.247 . S
C203 O209 1.208 1_455 S
C204 O196 1.315 . S
C204 O199 1.279 . S
C205 O206 1.307 1_655 S
C205 O207 1.279 . S
O206 Cd198 2.227 1_455 S
O206 C205 1.307 1_455 S
O207 Cd197 2.240 . S
O207 C205 1.279 . S
O208 Cd198 2.297 1_455 S
O208 C203 1.247 . S
O209 Cd198 2.439 . S
O209 C203 1.208 1_655 S
O210 Cd211 2.223 . S
O210 C218 1.315 1_655 S
Cd211 O210 2.223 . S
Cd211 O214 2.297 . S
Cd211 O215 2.439 1_655 S
Cd211 O221 2.240 . S
Cd212 O213 2.240 . S
Cd212 O220 2.223 . S
Cd212 O222 2.297 . S
Cd212 O223 2.439 . S
O213 Cd212 2.240 . S
O213 C218 1.279 . S
O214 Cd211 2.297 . S
O214 C216 1.247 1_655 S
O215 Cd211 2.439 1_455 S
O215 C216 1.208 . S
C216 O214 1.247 1_455 S
C216 O215 1.208 . S
C217 O222 1.247 . S
C217 O223 1.208 . S
C218 O210 1.315 1_455 S
C218 O213 1.279 . S
C219 O220 1.315 1_655 S
C219 O221 1.279 . S
O220 Cd212 2.223 . S
O220 C219 1.315 1_455 S
O221 Cd211 2.240 . S
O221 C219 1.279 . S
O222 Cd212 2.297 . S
O222 C217 1.247 . S
O223 Cd212 2.439 . S
O223 C217 1.208 . S
O224 Cd225 2.223 . S
O224 C232 1.315 . S
Cd225 O224 2.223 . S
Cd225 O228 2.297 . S
Cd225 O229 2.439 . S
Cd225 O235 2.240 . S
Cd226 O227 2.240 . S
Cd226 O234 2.223 . S
Cd226 O236 2.297 . S
Cd226 O237 2.439 . S
O227 Cd226 2.240 . S
O227 C232 1.279 . S
O228 Cd225 2.297 . S
O228 C230 1.247 . S
O229 Cd225 2.439 . S
O229 C230 1.208 . S
C230 O228 1.247 . S
C230 O229 1.208 . S
C231 O236 1.247 . S
C231 O237 1.208 . S
C232 O224 1.315 . S
C232 O227 1.279 . S
C233 O234 1.315 . S
C233 O235 1.279 . S
O234 Cd226 2.223 . S
O234 C233 1.315 . S
O235 Cd225 2.240 . S
O235 C233 1.279 . S
O236 Cd226 2.297 . S
O236 C231 1.247 . S
O237 Cd226 2.439 . S
O237 C231 1.208 . S
O238 Cd239 2.223 . S
O238 C246 1.315 1_545 S
Cd239 O238 2.223 . S
Cd239 O242 2.297 . S
Cd239 O243 2.439 1_545 S
Cd239 O249 2.240 . S
Cd240 O241 2.240 . S
Cd240 O248 2.223 . S
Cd240 O250 2.297 . S
Cd240 O251 2.439 . S
O241 Cd240 2.240 . S
O241 C246 1.279 . S
O242 Cd239 2.297 . S
O242 C244 1.247 1_545 S
O243 Cd239 2.439 1_565 S
O243 C244 1.208 . S
C244 O242 1.247 1_565 S
C244 O243 1.208 . S
C245 O250 1.247 . S
C245 O251 1.208 . S
C246 O238 1.315 1_565 S
C246 O241 1.279 . S
C247 O248 1.315 1_545 S
C247 O249 1.279 . S
O248 Cd240 2.223 . S
O248 C247 1.315 1_565 S
O249 Cd239 2.240 . S
O249 C247 1.279 . S
O250 Cd240 2.297 . S
O250 C245 1.247 . S
O251 Cd240 2.439 . S
O251 C245 1.208 . S
O252 Cd253 2.223 . S
O252 C260 1.315 1_545 S
Cd253 O252 2.223 . S
Cd253 O256 2.297 . S
Cd253 O257 2.439 1_545 S
Cd253 O263 2.240 . S
Cd254 O255 2.240 . S
Cd254 O262 2.223 . S
Cd254 O264 2.297 . S
Cd254 O265 2.439 . S
O255 Cd254 2.240 . S
O255 C260 1.279 . S
O256 Cd253 2.297 . S
O256 C258 1.247 1_545 S
O257 Cd253 2.439 1_565 S
O257 C258 1.208 . S
C258 O256 1.247 1_565 S
C258 O257 1.208 . S
C259 O264 1.247 . S
C259 O265 1.208 . S
C260 O252 1.315 1_565 S
C260 O255 1.279 . S
C261 O262 1.315 1_545 S
C261 O263 1.279 . S
O262 Cd254 2.223 . S
O262 C261 1.315 1_565 S
O263 Cd253 2.240 . S
O263 C261 1.279 . S
O264 Cd254 2.297 . S
O264 C259 1.247 . S
O265 Cd254 2.439 . S
O265 C259 1.208 . S
O266 Cd267 2.223 . S
O266 C274 1.315 1_655 S
Cd267 O266 2.223 . S
Cd267 O270 2.297 . S
Cd267 O271 2.439 1_655 S
Cd267 O277 2.240 . S
Cd268 O269 2.240 . S
Cd268 O276 2.223 . S
Cd268 O278 2.297 . S
Cd268 O279 2.439 . S
O269 Cd268 2.240 . S
O269 C274 1.279 . S
O270 Cd267 2.297 . S
O270 C272 1.247 1_655 S
O271 Cd267 2.439 1_455 S
O271 C272 1.208 . S
C272 O270 1.247 1_455 S
C272 O271 1.208 . S
C273 O278 1.247 . S
C273 O279 1.208 . S
C274 O266 1.315 1_455 S
C274 O269 1.279 . S
C275 O276 1.315 1_655 S
C275 O277 1.279 . S
O276 Cd268 2.223 . S
O276 C275 1.315 1_455 S
O277 Cd267 2.240 . S
O277 C275 1.279 . S
O278 Cd268 2.297 . S
O278 C273 1.247 . S
O279 Cd268 2.439 . S
O279 C273 1.208 . S
O280 Cd281 2.223 . S
O280 C288 1.315 . S
Cd281 O280 2.223 . S
Cd281 O284 2.297 . S
Cd281 O285 2.439 . S
Cd281 O291 2.240 . S
Cd282 O283 2.240 . S
Cd282 O290 2.223 . S
Cd282 O292 2.297 . S
Cd282 O293 2.439 . S
O283 Cd282 2.240 . S
O283 C288 1.279 . S
O284 Cd281 2.297 . S
O284 C286 1.247 . S
O285 Cd281 2.439 . S
O285 C286 1.208 . S
C286 O284 1.247 . S
C286 O285 1.208 . S
C287 O292 1.247 . S
C287 O293 1.208 . S
C288 O280 1.315 . S
C288 O283 1.279 . S
C289 O290 1.315 . S
C289 O291 1.279 . S
O290 Cd282 2.223 . S
O290 C289 1.315 . S
O291 Cd281 2.240 . S
O291 C289 1.279 . S
O292 Cd282 2.297 . S
O292 C287 1.247 . S
O293 Cd282 2.439 . S
O293 C287 1.208 . S
O294 Cd295 2.223 . S
O294 C302 1.315 . S
Cd295 O294 2.223 . S
Cd295 O298 2.297 . S
Cd295 O299 2.439 . S
Cd295 O305 2.240 . S
Cd296 O297 2.240 . S
Cd296 O304 2.223 . S
Cd296 O306 2.297 . S
Cd296 O307 2.439 . S
O297 Cd296 2.240 . S
O297 C302 1.279 . S
O298 Cd295 2.297 . S
O298 C300 1.247 . S
O299 Cd295 2.439 . S
O299 C300 1.208 . S
C300 O298 1.247 . S
C300 O299 1.208 . S
C301 O306 1.247 . S
C301 O307 1.208 . S
C302 O294 1.315 . S
C302 O297 1.279 . S
C303 O304 1.315 . S
C303 O305 1.279 . S
O304 Cd296 2.223 . S
O304 C303 1.315 . S
O305 Cd295 2.240 . S
O305 C303 1.279 . S
O306 Cd296 2.297 . S
O306 C301 1.247 . S
O307 Cd296 2.439 . S
O307 C301 1.208 . S
O308 Cd309 2.223 . S
O308 C316 1.315 . S
Cd309 O308 2.223 . S
Cd309 O312 2.297 . S
Cd309 O313 2.439 . S
Cd309 O319 2.240 . S
Cd310 O311 2.240 . S
Cd310 O318 2.225 1_545 S
Cd310 O320 2.297 1_545 S
Cd310 O321 2.439 . S
O311 Cd310 2.240 . S
O311 C316 1.279 . S
O312 Cd309 2.297 . S
O312 C314 1.247 . S
O313 Cd309 2.439 . S
O313 C314 1.208 . S
C314 O312 1.247 . S
C314 O313 1.208 . S
C315 O320 1.247 . S
C315 O321 1.208 1_565 S
C316 O308 1.315 . S
C316 O311 1.279 . S
C317 O318 1.310 1_545 S
C317 O319 1.279 . S
O318 Cd310 2.225 1_565 S
O318 C317 1.310 1_565 S
O319 Cd309 2.240 . S
O319 C317 1.279 . S
O320 Cd310 2.297 1_565 S
O320 C315 1.247 . S
O321 Cd310 2.439 . S
O321 C315 1.208 1_545 S
O322 Cd323 2.223 . S
O322 C330 1.315 . S
Cd323 O322 2.223 . S
Cd323 O326 2.297 . S
Cd323 O327 2.439 . S
Cd323 O333 2.240 . S
Cd324 O325 2.240 . S
Cd324 O332 2.216 1_655 S
Cd324 O334 2.297 1_655 S
Cd324 O335 2.439 . S
O325 Cd324 2.240 . S
O325 C330 1.279 . S
O326 Cd323 2.297 . S
O326 C328 1.247 . S
O327 Cd323 2.439 . S
O327 C328 1.208 . S
C328 O326 1.247 . S
C328 O327 1.208 . S
C329 O334 1.247 . S
C329 O335 1.208 1_455 S
C330 O322 1.315 . S
C330 O325 1.279 . S
C331 O332 1.309 1_655 S
C331 O333 1.279 . S
O332 Cd324 2.216 1_455 S
O332 C331 1.309 1_455 S
O333 Cd323 2.240 . S
O333 C331 1.279 . S
O334 Cd324 2.297 1_455 S
O334 C329 1.247 . S
O335 Cd324 2.439 . S
O335 C329 1.208 1_655 S
O336 Cd337 2.223 . S
O336 C344 1.315 1_565 S
Cd337 O336 2.223 . S
Cd337 O340 2.297 . S
Cd337 O341 2.439 1_565 S
Cd337 O347 2.240 . S
Cd338 O339 2.240 . S
Cd338 O346 2.223 . S
Cd338 O348 2.297 . S
Cd338 O349 2.439 . S
O339 Cd338 2.240 . S
O339 C344 1.279 . S
O340 Cd337 2.297 . S
O340 C342 1.247 1_565 S
O341 Cd337 2.439 1_545 S
O341 C342 1.208 . S
C342 O340 1.247 1_545 S
C342 O341 1.208 . S
C343 O348 1.247 . S
C343 O349 1.208 . S
C344 O336 1.315 1_545 S
C344 O339 1.279 . S
C345 O346 1.315 1_565 S
C345 O347 1.279 . S
O346 Cd338 2.223 . S
O346 C345 1.315 1_545 S
O347 Cd337 2.240 . S
O347 C345 1.279 . S
O348 Cd338 2.297 . S
O348 C343 1.247 . S
O349 Cd338 2.439 . S
O349 C343 1.208 . S
O350 Cd351 2.223 . S
O350 C358 1.315 1_455 S
Cd351 O350 2.223 . S
Cd351 O354 2.297 . S
Cd351 O355 2.439 1_455 S
Cd351 O361 2.240 . S
Cd352 O353 2.240 . S
Cd352 O360 2.223 . S
Cd352 O362 2.297 . S
Cd352 O363 2.439 . S
O353 Cd352 2.240 . S
O353 C358 1.279 . S
O354 Cd351 2.297 . S
O354 C356 1.247 1_455 S
O355 Cd351 2.439 1_655 S
O355 C356 1.208 . S
C356 O354 1.247 1_655 S
C356 O355 1.208 . S
C357 O362 1.247 . S
C357 O363 1.208 . S
C358 O350 1.315 1_655 S
C358 O353 1.279 . S
C359 O360 1.315 1_455 S
C359 O361 1.279 . S
O360 Cd352 2.223 . S
O360 C359 1.315 1_655 S
O361 Cd351 2.240 . S
O361 C359 1.279 . S
O362 Cd352 2.297 . S
O362 C357 1.247 . S
O363 Cd352 2.439 . S
O363 C357 1.208 . S
O364 Cd365 2.223 . S
O364 C372 1.315 . S
Cd365 O364 2.223 . S
Cd365 O368 2.297 . S
Cd365 O369 2.439 . S
Cd365 O375 2.240 . S
Cd366 O367 2.240 . S
Cd366 O374 2.223 . S
Cd366 O376 2.297 . S
Cd366 O377 2.439 . S
O367 Cd366 2.240 . S
O367 C372 1.279 . S
O368 Cd365 2.297 . S
O368 C370 1.247 . S
O369 Cd365 2.439 . S
O369 C370 1.208 . S
C370 O368 1.247 . S
C370 O369 1.208 . S
C371 O376 1.247 . S
C371 O377 1.208 . S
C372 O364 1.315 . S
C372 O367 1.279 . S
C373 O374 1.315 . S
C373 O375 1.279 . S
O374 Cd366 2.223 . S
O374 C373 1.315 . S
O375 Cd365 2.240 . S
O375 C373 1.279 . S
O376 Cd366 2.297 . S
O376 C371 1.247 . S
O377 Cd366 2.439 . S
O377 C371 1.208 . S
O378 Cd379 2.223 . S
O378 C386 1.315 . S
Cd379 O378 2.223 . S
Cd379 O382 2.297 . S
Cd379 O383 2.439 . S
Cd379 O389 2.240 . S
Cd380 O381 2.240 . S
Cd380 O388 2.223 . S
Cd380 O390 2.297 . S
Cd380 O391 2.439 . S
O381 Cd380 2.240 . S
O381 C386 1.279 . S
O382 Cd379 2.297 . S
O382 C384 1.247 . S
O383 Cd379 2.439 . S
O383 C384 1.208 . S
C384 O382 1.247 . S
C384 O383 1.208 . S
C385 O390 1.247 . S
C385 O391 1.208 . S
C386 O378 1.315 . S
C386 O381 1.279 . S
C387 O388 1.315 . S
C387 O389 1.279 . S
O388 Cd380 2.223 . S
O388 C387 1.315 . S
O389 Cd379 2.240 . S
O389 C387 1.279 . S
O390 Cd380 2.297 . S
O390 C385 1.247 . S
O391 Cd380 2.439 . S
O391 C385 1.208 . S
O392 Cd393 2.223 . S
O392 C400 1.315 . S
Cd393 O392 2.223 . S
Cd393 O396 2.297 . S
Cd393 O397 2.439 . S
Cd393 O403 2.240 . S
Cd394 O395 2.240 . S
Cd394 O402 2.227 1_565 S
Cd394 O404 2.297 1_565 S
Cd394 O405 2.439 . S
O395 Cd394 2.240 . S
O395 C400 1.279 . S
O396 Cd393 2.297 . S
O396 C398 1.247 . S
O397 Cd393 2.439 . S
O397 C398 1.208 . S
C398 O396 1.247 . S
C398 O397 1.208 . S
C399 O404 1.247 . S
C399 O405 1.208 1_545 S
C400 O392 1.315 . S
C400 O395 1.279 . S
C401 O402 1.307 1_565 S
C401 O403 1.279 . S
O402 Cd394 2.227 1_545 S
O402 C401 1.307 1_545 S
O403 Cd393 2.240 . S
O403 C401 1.279 . S
O404 Cd394 2.297 1_545 S
O404 C399 1.247 . S
O405 Cd394 2.439 . S
O405 C399 1.208 1_565 S
O406 Cd407 2.223 . S
O406 C414 1.315 . S
Cd407 O406 2.223 . S
Cd407 O410 2.297 . S
Cd407 O411 2.439 . S
Cd407 O417 2.240 . S
Cd408 O409 2.240 . S
Cd408 O416 2.218 1_455 S
Cd408 O418 2.297 1_455 S
Cd408 O419 2.439 . S
O409 Cd408 2.240 . S
O409 C414 1.279 . S
O410 Cd407 2.297 . S
O410 C412 1.247 . S
O411 Cd407 2.439 . S
O411 C412 1.208 . S
C412 O410 1.247 . S
C412 O411 1.208 . S
C413 O418 1.247 . S
C413 O419 1.208 1_655 S
C414 O406 1.315 . S
C414 O409 1.279 . S
C415 O416 1.311 1_455 S
C415 O417 1.279 . S
O416 Cd408 2.218 1_655 S
O416 C415 1.311 1_655 S
O417 Cd407 2.240 . S
O417 C415 1.279 . S
O418 Cd408 2.297 1_655 S
O418 C413 1.247 . S
O419 Cd408 2.439 . S
O419 C413 1.208 1_455 S
O420 Cd421 2.223 . S
O420 C428 1.315 . S
Cd421 O420 2.223 . S
Cd421 O424 2.297 . S
Cd421 O425 2.439 . S
Cd421 O431 2.240 . S
Cd422 O423 2.240 . S
Cd422 O430 2.223 . S
Cd422 O432 2.297 . S
Cd422 O433 2.439 . S
O423 Cd422 2.240 . S
O423 C428 1.279 . S
O424 Cd421 2.297 . S
O424 C426 1.247 . S
O425 Cd421 2.439 . S
O425 C426 1.208 . S
C426 O424 1.247 . S
C426 O425 1.208 . S
C427 O432 1.247 . S
C427 O433 1.208 . S
C428 O420 1.315 . S
C428 O423 1.279 . S
C429 O430 1.315 . S
C429 O431 1.279 . S
O430 Cd422 2.223 . S
O430 C429 1.315 . S
O431 Cd421 2.240 . S
O431 C429 1.279 . S
O432 Cd422 2.297 . S
O432 C427 1.247 . S
O433 Cd422 2.439 . S
O433 C427 1.208 . S
O434 Cd435 2.223 . S
O434 C442 1.315 . S
Cd435 O434 2.223 . S
Cd435 O438 2.297 . S
Cd435 O439 2.439 . S
Cd435 O445 2.240 . S
Cd436 O437 2.240 . S
Cd436 O444 2.216 1_565 S
Cd436 O446 2.297 1_565 S
Cd436 O447 2.439 . S
O437 Cd436 2.240 . S
O437 C442 1.279 . S
O438 Cd435 2.297 . S
O438 C440 1.247 . S
O439 Cd435 2.439 . S
O439 C440 1.208 . S
C440 O438 1.247 . S
C440 O439 1.208 . S
C441 O446 1.247 . S
C441 O447 1.208 1_545 S
C442 O434 1.315 . S
C442 O437 1.279 . S
C443 O444 1.309 1_565 S
C443 O445 1.279 . S
O444 Cd436 2.216 1_545 S
O444 C443 1.309 1_545 S
O445 Cd435 2.240 . S
O445 C443 1.279 . S
O446 Cd436 2.297 1_545 S
O446 C441 1.247 . S
O447 Cd436 2.439 . S
O447 C441 1.208 1_565 S
O448 Cd449 2.223 . S
O448 C456 1.315 . S
Cd449 O448 2.223 . S
Cd449 O452 2.297 . S
Cd449 O453 2.439 . S
Cd449 O459 2.240 . S
Cd450 O451 2.240 . S
Cd450 O458 2.225 1_455 S
Cd450 O460 2.297 1_455 S
Cd450 O461 2.439 . S
O451 Cd450 2.240 . S
O451 C456 1.279 . S
O452 Cd449 2.297 . S
O452 C454 1.247 . S
O453 Cd449 2.439 . S
O453 C454 1.208 . S
C454 O452 1.247 . S
C454 O453 1.208 . S
C455 O460 1.247 . S
C455 O461 1.208 1_655 S
C456 O448 1.315 . S
C456 O451 1.279 . S
C457 O458 1.310 1_455 S
C457 O459 1.279 . S
O458 Cd450 2.225 1_655 S
O458 C457 1.310 1_655 S
O459 Cd449 2.240 . S
O459 C457 1.279 . S
O460 Cd450 2.297 1_655 S
O460 C455 1.247 . S
O461 Cd450 2.439 . S
O461 C455 1.208 1_455 S
O462 Cd463 2.223 . S
O462 C470 1.315 1_455 S
Cd463 O462 2.223 . S
Cd463 O466 2.297 . S
Cd463 O467 2.439 1_455 S
Cd463 O473 2.240 . S
Cd464 O465 2.240 . S
Cd464 O472 2.223 . S
Cd464 O474 2.297 . S
Cd464 O475 2.439 . S
O465 Cd464 2.240 . S
O465 C470 1.279 . S
O466 Cd463 2.297 . S
O466 C468 1.247 1_455 S
O467 Cd463 2.439 1_655 S
O467 C468 1.208 . S
C468 O466 1.247 1_655 S
C468 O467 1.208 . S
C469 O474 1.247 . S
C469 O475 1.208 . S
C470 O462 1.315 1_655 S
C470 O465 1.279 . S
C471 O472 1.315 1_455 S
C471 O473 1.279 . S
O472 Cd464 2.223 . S
O472 C471 1.315 1_655 S
O473 Cd463 2.240 . S
O473 C471 1.279 . S
O474 Cd464 2.297 . S
O474 C469 1.247 . S
O475 Cd464 2.439 . S
O475 C469 1.208 . S
O476 Cd477 2.223 . S
O476 C484 1.315 . S
Cd477 O476 2.223 . S
Cd477 O480 2.297 . S
Cd477 O481 2.439 . S
Cd477 O487 2.240 . S
Cd478 O479 2.240 . S
Cd478 O486 2.223 . S
Cd478 O488 2.297 . S
Cd478 O489 2.439 . S
O479 Cd478 2.240 . S
O479 C484 1.279 . S
O480 Cd477 2.297 . S
O480 C482 1.247 . S
O481 Cd477 2.439 . S
O481 C482 1.208 . S
C482 O480 1.247 . S
C482 O481 1.208 . S
C483 O488 1.247 . S
C483 O489 1.208 . S
C484 O476 1.315 . S
C484 O479 1.279 . S
C485 O486 1.315 . S
C485 O487 1.279 . S
O486 Cd478 2.223 . S
O486 C485 1.315 . S
O487 Cd477 2.240 . S
O487 C485 1.279 . S
O488 Cd478 2.297 . S
O488 C483 1.247 . S
O489 Cd478 2.439 . S
O489 C483 1.208 . S
O490 Cd491 2.223 . S
O490 C498 1.315 1_565 S
Cd491 O490 2.223 . S
Cd491 O494 2.297 . S
Cd491 O495 2.439 1_565 S
Cd491 O501 2.240 . S
Cd492 O493 2.240 . S
Cd492 O500 2.223 . S
Cd492 O502 2.297 . S
Cd492 O503 2.439 . S
O493 Cd492 2.240 . S
O493 C498 1.279 . S
O494 Cd491 2.297 . S
O494 C496 1.247 1_565 S
O495 Cd491 2.439 1_545 S
O495 C496 1.208 . S
C496 O494 1.247 1_545 S
C496 O495 1.208 . S
C497 O502 1.247 . S
C497 O503 1.208 . S
C498 O490 1.315 1_545 S
C498 O493 1.279 . S
C499 O500 1.315 1_565 S
C499 O501 1.279 . S
O500 Cd492 2.223 . S
O500 C499 1.315 1_545 S
O501 Cd491 2.240 . S
O501 C499 1.279 . S
O502 Cd492 2.297 . S
O502 C497 1.247 . S
O503 Cd492 2.439 . S
O503 C497 1.208 . S
C65 C9 0.845 1_654 S
C79 C23 0.846 1_554 S
C51 C37 0.845 1_544 S
C149 C93 0.846 1_456 S
C107 C163 0.845 1_554 S
C135 C121 0.845 1_566 S
C177 C233 0.894 . S
C247 C191 0.894 . S
C205 C219 0.894 . S
C261 C317 0.894 . S
C331 C275 0.895 . S
C289 C303 0.894 . S
C401 C345 0.894 . S
C359 C415 0.895 . S
C387 C373 0.894 . S
C485 C429 0.894 . S
C443 C499 0.895 . S
C457 C471 0.894 . S
C160 C6 1.320 . S
C20 C132 1.320 . S
C146 C34 1.320 . S
C104 C48 1.320 . S
C62 C118 1.320 . S
C90 C76 1.320 . S
C174 C328 1.332 . S
C300 C188 1.332 . S
C314 C202 1.332 . S
C216 C272 1.322 . S
C230 C286 1.322 . S
C244 C258 1.322 . S
C496 C342 1.322 . S
C356 C468 1.322 . S
C370 C482 1.322 . S
C440 C384 1.331 . S
C454 C398 1.332 . S
C426 C412 1.331 . S
C217 C7 1.676 . S
C231 C21 1.675 . S
C35 C245 1.676 . S
C49 C343 1.676 . S
C63 C357 1.676 . S
C77 C371 1.675 . S
C91 C469 1.676 . S
C105 C483 1.675 . S
C119 C497 1.675 . S
C133 C259 1.676 . S
C273 C147 1.676 . S
C287 C161 1.675 . S
C385 C175 1.765 . S
C189 C399 1.765 1_565 S
C413 C203 1.764 1_655 S
C301 C427 1.765 . S
C441 C315 1.765 1_545 S
C455 C329 1.764 1_655 S
C8 C414 1.804 . S
C22 C386 1.804 . S
C36 C400 1.803 . S
C50 C190 1.804 . S
C204 C64 1.803 . S
C176 C78 1.804 . S
C330 C92 1.804 . S
C302 C106 1.804 . S
C316 C120 1.803 . S
C442 C134 1.804 . S
C456 C148 1.803 . S
C428 C162 1.804 . S
C218 C358 1.709 1_455 S
C372 C232 1.708 . S
C344 C246 1.709 1_545 S
C260 C498 1.709 1_565 S
C470 C274 1.709 1_655 S
C288 C484 1.708 . S
