# Generated by pormake.
# Topology uma, (4)-cn, num edge types: 1
# Building blocks:
#     Node 0, Type 0, BuildingBlock: ESEHIV_clean_sbu_0, # of connection points: 4
#     Node 1, Type 0, BuildingBlock: ESEHIV_clean_sbu_0, # of connection points: 4
#     Node 2, Type 0, BuildingBlock: ESEHIV_clean_sbu_0, # of connection points: 4
#     Node 3, Type 0, BuildingBlock: ESEHIV_clean_sbu_0, # of connection points: 4
#     Node 4, Type 0, BuildingBlock: ESEHIV_clean_sbu_0, # of connection points: 4
#     Node 5, Type 0, BuildingBlock: ESEHIV_clean_sbu_0, # of connection points: 4
#     Node 6, Type 0, BuildingBlock: ESEHIV_clean_sbu_0, # of connection points: 4
#     Node 7, Type 0, BuildingBlock: ESEHIV_clean_sbu_0, # of connection points: 4
#     Node 8, Type 0, BuildingBlock: ESEHIV_clean_sbu_0, # of connection points: 4
#     Node 9, Type 0, BuildingBlock: ESEHIV_clean_sbu_0, # of connection points: 4
#     Node 10, Type 0, BuildingBlock: ESEHIV_clean_sbu_0, # of connection points: 4
#     Node 11, Type 0, BuildingBlock: ESEHIV_clean_sbu_0, # of connection points: 4
#     Node 12, Type 0, BuildingBlock: ESEHIV_clean_sbu_0, # of connection points: 4
#     Node 13, Type 0, BuildingBlock: ESEHIV_clean_sbu_0, # of connection points: 4
#     Node 14, Type 0, BuildingBlock: ESEHIV_clean_sbu_0, # of connection points: 4
#     Node 15, Type 0, BuildingBlock: ESEHIV_clean_sbu_0, # of connection points: 4
#     Node 16, Type 0, BuildingBlock: ESEHIV_clean_sbu_0, # of connection points: 4
#     Node 17, Type 0, BuildingBlock: ESEHIV_clean_sbu_0, # of connection points: 4
#     Node 18, Type 0, BuildingBlock: ESEHIV_clean_sbu_0, # of connection points: 4
#     Node 19, Type 0, BuildingBlock: ESEHIV_clean_sbu_0, # of connection points: 4
#     Node 20, Type 0, BuildingBlock: ESEHIV_clean_sbu_0, # of connection points: 4
#     Node 21, Type 0, BuildingBlock: ESEHIV_clean_sbu_0, # of connection points: 4
#     Node 22, Type 0, BuildingBlock: ESEHIV_clean_sbu_0, # of connection points: 4
#     Node 23, Type 0, BuildingBlock: ESEHIV_clean_sbu_0, # of connection points: 4
#     Node 24, Type 0, BuildingBlock: ESEHIV_clean_sbu_0, # of connection points: 4
#     Node 25, Type 0, BuildingBlock: ESEHIV_clean_sbu_0, # of connection points: 4
#     Node 26, Type 0, BuildingBlock: ESEHIV_clean_sbu_0, # of connection points: 4
#     Node 27, Type 0, BuildingBlock: ESEHIV_clean_sbu_0, # of connection points: 4
#     Node 28, Type 0, BuildingBlock: ESEHIV_clean_sbu_0, # of connection points: 4
#     Node 29, Type 0, BuildingBlock: ESEHIV_clean_sbu_0, # of connection points: 4
#     Node 30, Type 0, BuildingBlock: ESEHIV_clean_sbu_0, # of connection points: 4
#     Node 31, Type 0, BuildingBlock: ESEHIV_clean_sbu_0, # of connection points: 4
#     Node 32, Type 0, BuildingBlock: ESEHIV_clean_sbu_0, # of connection points: 4
#     Node 33, Type 0, BuildingBlock: ESEHIV_clean_sbu_0, # of connection points: 4
#     Node 34, Type 0, BuildingBlock: ESEHIV_clean_sbu_0, # of connection points: 4
#     Node 35, Type 0, BuildingBlock: ESEHIV_clean_sbu_0, # of connection points: 4
#     Edge 36, Type (0, 0), BuildingBlock: AJUNOK_clean_linker_0, # of connection points: 2
#     Edge 37, Type (0, 0), BuildingBlock: AJUNOK_clean_linker_0, # of connection points: 2
#     Edge 38, Type (0, 0), BuildingBlock: AJUNOK_clean_linker_0, # of connection points: 2
#     Edge 39, Type (0, 0), BuildingBlock: AJUNOK_clean_linker_0, # of connection points: 2
#     Edge 40, Type (0, 0), BuildingBlock: AJUNOK_clean_linker_0, # of connection points: 2
#     Edge 41, Type (0, 0), BuildingBlock: AJUNOK_clean_linker_0, # of connection points: 2
#     Edge 42, Type (0, 0), BuildingBlock: AJUNOK_clean_linker_0, # of connection points: 2
#     Edge 43, Type (0, 0), BuildingBlock: AJUNOK_clean_linker_0, # of connection points: 2
#     Edge 44, Type (0, 0), BuildingBlock: AJUNOK_clean_linker_0, # of connection points: 2
#     Edge 45, Type (0, 0), BuildingBlock: AJUNOK_clean_linker_0, # of connection points: 2
#     Edge 46, Type (0, 0), BuildingBlock: AJUNOK_clean_linker_0, # of connection points: 2
#     Edge 47, Type (0, 0), BuildingBlock: AJUNOK_clean_linker_0, # of connection points: 2
#     Edge 48, Type (0, 0), BuildingBlock: AJUNOK_clean_linker_0, # of connection points: 2
#     Edge 49, Type (0, 0), BuildingBlock: AJUNOK_clean_linker_0, # of connection points: 2
#     Edge 50, Type (0, 0), BuildingBlock: AJUNOK_clean_linker_0, # of connection points: 2
#     Edge 51, Type (0, 0), BuildingBlock: AJUNOK_clean_linker_0, # of connection points: 2
#     Edge 52, Type (0, 0), BuildingBlock: AJUNOK_clean_linker_0, # of connection points: 2
#     Edge 53, Type (0, 0), BuildingBlock: AJUNOK_clean_linker_0, # of connection points: 2
#     Edge 54, Type (0, 0), BuildingBlock: AJUNOK_clean_linker_0, # of connection points: 2
#     Edge 55, Type (0, 0), BuildingBlock: AJUNOK_clean_linker_0, # of connection points: 2
#     Edge 56, Type (0, 0), BuildingBlock: AJUNOK_clean_linker_0, # of connection points: 2
#     Edge 57, Type (0, 0), BuildingBlock: AJUNOK_clean_linker_0, # of connection points: 2
#     Edge 58, Type (0, 0), BuildingBlock: AJUNOK_clean_linker_0, # of connection points: 2
#     Edge 59, Type (0, 0), BuildingBlock: AJUNOK_clean_linker_0, # of connection points: 2
#     Edge 60, Type (0, 0), BuildingBlock: AJUNOK_clean_linker_0, # of connection points: 2
#     Edge 61, Type (0, 0), BuildingBlock: AJUNOK_clean_linker_0, # of connection points: 2
#     Edge 62, Type (0, 0), BuildingBlock: AJUNOK_clean_linker_0, # of connection points: 2
#     Edge 63, Type (0, 0), BuildingBlock: AJUNOK_clean_linker_0, # of connection points: 2
#     Edge 64, Type (0, 0), BuildingBlock: AJUNOK_clean_linker_0, # of connection points: 2
#     Edge 65, Type (0, 0), BuildingBlock: AJUNOK_clean_linker_0, # of connection points: 2
#     Edge 66, Type (0, 0), BuildingBlock: AJUNOK_clean_linker_0, # of connection points: 2
#     Edge 67, Type (0, 0), BuildingBlock: AJUNOK_clean_linker_0, # of connection points: 2
#     Edge 68, Type (0, 0), BuildingBlock: AJUNOK_clean_linker_0, # of connection points: 2
#     Edge 69, Type (0, 0), BuildingBlock: AJUNOK_clean_linker_0, # of connection points: 2
#     Edge 70, Type (0, 0), BuildingBlock: AJUNOK_clean_linker_0, # of connection points: 2
#     Edge 71, Type (0, 0), BuildingBlock: AJUNOK_clean_linker_0, # of connection points: 2
#     Edge 72, Type (0, 0), BuildingBlock: AJUNOK_clean_linker_0, # of connection points: 2
#     Edge 73, Type (0, 0), BuildingBlock: AJUNOK_clean_linker_0, # of connection points: 2
#     Edge 74, Type (0, 0), BuildingBlock: AJUNOK_clean_linker_0, # of connection points: 2
#     Edge 75, Type (0, 0), BuildingBlock: AJUNOK_clean_linker_0, # of connection points: 2
#     Edge 76, Type (0, 0), BuildingBlock: AJUNOK_clean_linker_0, # of connection points: 2
#     Edge 77, Type (0, 0), BuildingBlock: AJUNOK_clean_linker_0, # of connection points: 2
#     Edge 78, Type (0, 0), BuildingBlock: AJUNOK_clean_linker_0, # of connection points: 2
#     Edge 79, Type (0, 0), BuildingBlock: AJUNOK_clean_linker_0, # of connection points: 2
#     Edge 80, Type (0, 0), BuildingBlock: AJUNOK_clean_linker_0, # of connection points: 2
#     Edge 81, Type (0, 0), BuildingBlock: AJUNOK_clean_linker_0, # of connection points: 2
#     Edge 82, Type (0, 0), BuildingBlock: AJUNOK_clean_linker_0, # of connection points: 2
#     Edge 83, Type (0, 0), BuildingBlock: AJUNOK_clean_linker_0, # of connection points: 2
#     Edge 84, Type (0, 0), BuildingBlock: AJUNOK_clean_linker_0, # of connection points: 2
#     Edge 85, Type (0, 0), BuildingBlock: AJUNOK_clean_linker_0, # of connection points: 2
#     Edge 86, Type (0, 0), BuildingBlock: AJUNOK_clean_linker_0, # of connection points: 2
#     Edge 87, Type (0, 0), BuildingBlock: AJUNOK_clean_linker_0, # of connection points: 2
#     Edge 88, Type (0, 0), BuildingBlock: AJUNOK_clean_linker_0, # of connection points: 2
#     Edge 89, Type (0, 0), BuildingBlock: AJUNOK_clean_linker_0, # of connection points: 2
#     Edge 90, Type (0, 0), BuildingBlock: AJUNOK_clean_linker_0, # of connection points: 2
#     Edge 91, Type (0, 0), BuildingBlock: AJUNOK_clean_linker_0, # of connection points: 2
#     Edge 92, Type (0, 0), BuildingBlock: AJUNOK_clean_linker_0, # of connection points: 2
#     Edge 93, Type (0, 0), BuildingBlock: AJUNOK_clean_linker_0, # of connection points: 2
#     Edge 94, Type (0, 0), BuildingBlock: AJUNOK_clean_linker_0, # of connection points: 2
#     Edge 95, Type (0, 0), BuildingBlock: AJUNOK_clean_linker_0, # of connection points: 2
#     Edge 96, Type (0, 0), BuildingBlock: AJUNOK_clean_linker_0, # of connection points: 2
#     Edge 97, Type (0, 0), BuildingBlock: AJUNOK_clean_linker_0, # of connection points: 2
#     Edge 98, Type (0, 0), BuildingBlock: AJUNOK_clean_linker_0, # of connection points: 2
#     Edge 99, Type (0, 0), BuildingBlock: AJUNOK_clean_linker_0, # of connection points: 2
#     Edge 100, Type (0, 0), BuildingBlock: AJUNOK_clean_linker_0, # of connection points: 2
#     Edge 101, Type (0, 0), BuildingBlock: AJUNOK_clean_linker_0, # of connection points: 2
#     Edge 102, Type (0, 0), BuildingBlock: AJUNOK_clean_linker_0, # of connection points: 2
#     Edge 103, Type (0, 0), BuildingBlock: AJUNOK_clean_linker_0, # of connection points: 2
#     Edge 104, Type (0, 0), BuildingBlock: AJUNOK_clean_linker_0, # of connection points: 2
#     Edge 105, Type (0, 0), BuildingBlock: AJUNOK_clean_linker_0, # of connection points: 2
#     Edge 106, Type (0, 0), BuildingBlock: AJUNOK_clean_linker_0, # of connection points: 2
#     Edge 107, Type (0, 0), BuildingBlock: AJUNOK_clean_linker_0, # of connection points: 2
# Relax obj value: 0.131
# Max RMSD: 0.145
# Mean RMSD: 0.131
data_MOF--net-uma--node1-ESEHIV_clean_sbu_0--edge1-AJUNOK_clean_linker_0
_symmetry_space_group_name_H-M    P1
_symmetry_Int_Tables_number       1
_symmetry_cell_setting            triclinic
loop_
_symmetry_equiv_pos_as_xyz
'x, y, z'
_cell_length_a     72.202081
_cell_length_b     72.163423
_cell_length_c     27.020439
_cell_angle_alpha  89.826812
_cell_angle_beta   90.001508
_cell_angle_gamma 120.04147
loop_
_atom_site_label
_atom_site_type_symbol
_atom_site_fract_x
_atom_site_fract_y
_atom_site_fract_z
_atom_type_partial_charge
Cu0 Cu 0.13134 0.40535 0.02695 0.0
N1 N 0.11264 0.41443 1.00232 0.0
N2 N 0.07903 0.40899 0.9987 0.0
C3 C 0.09157 0.40048 1.00847 0.0
C4 C 0.09298 0.42952 0.98582 0.0
C5 C 0.11373 0.43285 0.98804 0.0
O6 O 0.12288 0.40253 0.09669 0.0
C7 C 0.12945 0.38765 0.93938 0.0
O8 O 0.13968 0.40841 0.9315 0.0
H9 H 0.08577 0.3847 0.0241 0.0
H10 H 0.12843 0.44789 0.98285 0.0
N11 N 0.16184 0.42107 0.02345 0.0
N12 N 0.19519 0.42544 0.02561 0.0
C13 C 0.17385 0.41157 0.02952 0.0
C14 C 0.17612 0.44186 1.01552 0.0
C15 C 0.19659 0.4446 1.01703 0.0
C16 C 0.12652 0.42076 0.11254 0.0
O17 O 0.13798 0.43776 0.08492 0.0
H18 H 0.1669 0.39459 0.0364 0.0
H19 H 0.17202 0.4542 1.0096 0.0
O20 O 0.1237 0.38099 0.98383 0.0
H21 H 0.08861 0.4415 0.97736 0.0
H22 H 0.21131 0.45975 1.01352 0.0
Cu23 Cu 0.6662 0.74894 0.03166 0.0
N24 N 0.69083 0.7476 0.05104 0.0
N25 N 0.70921 0.73085 0.07001 0.0
C26 C 0.69091 0.73138 0.07637 0.0
C27 C 0.72138 0.74761 0.04016 0.0
C28 C 0.71012 0.75792 0.02874 0.0
O29 O 0.64221 0.72404 0.06491 0.0
C30 C 0.67699 0.76471 0.93341 0.0
O31 O 0.68672 0.78309 0.95677 0.0
H32 H 0.67724 0.71902 0.09579 0.0
H33 H 0.71477 0.77061 1.00178 0.0
N34 N 0.66693 0.77467 0.05309 0.0
N35 N 0.66253 0.80366 0.05901 0.0
C36 C 0.65846 0.78601 0.03219 0.0
C37 C 0.67644 0.78544 0.09462 0.0
C38 C 0.67382 0.80307 0.09833 0.0
C39 C 0.63866 0.70486 0.06095 0.0
O40 O 0.64847 0.70049 0.02586 0.0
H41 H 0.65002 0.78163 0.99731 0.0
H42 H 0.68476 0.78075 0.12062 0.0
O43 O 0.66601 0.74756 0.95862 0.0
H44 H 0.73639 0.75086 0.02374 0.0
H45 H 0.67969 0.81449 0.12833 0.0
Cu46 Cu 0.31875 0.93116 0.02032 0.0
N47 N 0.34646 0.95072 0.99637 0.0
N48 N 0.37666 0.98279 0.99588 0.0
C49 C 0.35704 0.97061 1.01568 0.0
C50 C 0.37858 0.97007 0.9621 0.0
C51 C 0.35993 0.95021 0.96263 0.0
O52 O 0.32533 0.93647 0.0918 0.0
C53 C 0.30289 0.94004 0.93843 0.0
O54 O 0.31353 0.93101 0.92156 0.0
H55 H 0.3503 0.97612 0.04392 0.0
H56 H 0.35653 0.93648 0.9402 0.0
N57 N 0.30666 0.90125 1.00612 0.0
N58 N 0.28245 0.86601 0.99563 0.0
C59 C 0.28571 0.88559 1.0092 0.0
C60 C 0.31694 0.89111 0.99057 0.0
C61 C 0.30224 0.86962 0.98435 0.0
C62 C 0.34136 0.93428 0.10372 0.0
O63 O 0.34786 0.92507 0.07171 0.0
H64 H 0.27305 0.88855 0.02051 0.0
H65 H 0.334 0.89878 0.98437 0.0
O66 O 0.30131 0.94117 0.98542 0.0
H67 H 0.39253 0.97463 0.93924 0.0
H68 H 0.30602 0.8575 0.97316 0.0
Cu69 Cu 0.42675 0.12631 0.02618 0.0
N70 N 0.43333 0.10543 0.04862 0.0
N71 N 0.42723 0.07164 0.04879 0.0
C72 C 0.42363 0.08616 0.02611 0.0
C73 C 0.43948 0.08201 0.08833 0.0
C74 C 0.44336 0.10296 0.08799 0.0
O75 O 0.42573 0.12027 0.95416 0.0
C76 C 0.40677 0.1247 0.11319 0.0
O77 O 0.42715 0.13397 0.12454 0.0
H78 H 0.41292 0.08246 0.99497 0.0
H79 H 0.452 0.11508 0.11564 0.0
N80 N 0.44586 0.15619 0.03577 0.0
N81 N 0.45653 0.1914 0.04284 0.0
C82 C 0.4402 0.1715 0.03216 0.0
C83 C 0.46662 0.16684 0.0488 0.0
C84 C 0.47322 0.18842 0.05296 0.0
C85 C 0.44331 0.12159 0.93941 0.0
O86 O 0.45967 0.12994 0.96986 0.0
H87 H 0.42417 0.16797 0.02291 0.0
H88 H 0.47627 0.15946 0.05508 0.0
O89 O 0.40159 0.1197 0.06764 0.0
H90 H 0.44476 0.07485 0.11612 0.0
H91 H 0.48923 0.20095 0.06213 0.0
Cu92 Cu 0.93139 0.31336 0.03097 0.0
N93 N 0.95356 0.34093 0.04977 0.0
N94 N 0.98851 0.36641 0.04702 0.0
C95 C 0.97231 0.34911 0.02495 0.0
C96 C 0.97938 0.36973 0.0872 0.0
C97 C 0.95788 0.35388 0.0891 0.0
O98 O 0.93473 0.31724 0.95904 0.0
C99 C 0.93623 0.29556 0.11394 0.0
O100 O 0.9279 0.30708 0.12916 0.0
H101 H 0.97412 0.34176 0.99191 0.0
H102 H 0.9467 0.3513 0.11859 0.0
N103 N 0.90177 0.30203 0.04635 0.0
N104 N 0.86686 0.27663 0.05479 0.0
C105 C 0.88673 0.28108 0.04071 0.0
C106 C 0.891 0.31124 0.0647 0.0
C107 C 0.86959 0.29573 0.06959 0.0
C108 C 0.93017 0.33153 0.94577 0.0
O109 O 0.92158 0.3383 0.9788 0.0
H110 H 0.89038 0.26937 0.02579 0.0
H111 H 0.89819 0.328 0.07406 0.0
O112 O 0.93914 0.29484 0.06737 0.0
H113 H 0.98789 0.38188 0.11491 0.0
H114 H 0.85704 0.29831 0.08375 0.0
Cu115 Cu 0.76228 0.64289 0.02007 0.0
N116 N 0.7409 0.642 0.06181 0.0
N117 N 0.72514 0.66047 0.0878 0.0
C118 C 0.73207 0.65399 0.0487 0.0
C119 C 0.72972 0.65216 0.12763 0.0
C120 C 0.73939 0.64077 0.11156 0.0
O121 O 0.74978 0.63921 0.95247 0.0
C122 C 0.79192 0.67027 0.08623 0.0
O123 O 0.78838 0.65174 0.10336 0.0
H124 H 0.73355 0.66044 1.01174 0.0
H125 H 0.74712 0.63446 0.1349 0.0
N126 N 0.77274 0.62342 0.02969 0.0
N127 N 0.79643 0.61156 0.03427 0.0
C128 C 0.79305 0.62775 0.02045 0.0
C129 C 0.76292 0.60376 0.05009 0.0
C130 C 0.77737 0.59647 0.05297 0.0
C131 C 0.72981 0.62528 0.94768 0.0
O132 O 0.71938 0.61357 0.98625 0.0
H133 H 0.80529 0.64277 1.00482 0.0
H134 H 0.74658 0.59555 0.06337 0.0
O135 O 0.78494 0.67086 0.04292 0.0
H136 H 0.72783 0.6555 0.16574 0.0
H137 H 0.77424 0.58149 0.06953 0.0
Cu138 Cu 0.94114 0.63846 0.02138 0.0
N139 N 0.96276 0.63291 0.04438 0.0
N140 N 0.99666 0.6392 0.04592 0.0
C141 C 0.9826 0.64383 0.02437 0.0
C142 C 0.98518 0.62464 0.08135 0.0
C143 C 0.96425 0.62074 0.08026 0.0
O144 O 0.94635 0.63881 0.95017 0.0
C145 C 0.9438 0.65998 0.10431 0.0
O146 O 0.93593 0.64004 0.11884 0.0
H147 H 0.9868 0.65551 0.99499 0.0
H148 H 0.95125 0.61007 0.10433 0.0
N149 N 0.91131 0.61965 0.03268 0.0
N150 N 0.87611 0.60939 0.03716 0.0
C151 C 0.89609 0.62516 0.02468 0.0
C152 C 0.90059 0.5997 0.05143 0.0
C153 C 0.87904 0.59338 0.05426 0.0
C154 C 0.94519 0.62114 0.93776 0.0
O155 O 0.93765 0.60539 0.97009 0.0
H156 H 0.89969 0.64058 1.00997 0.0
H157 H 0.90795 0.59055 0.06315 0.0
O158 O 0.94751 0.66418 0.05808 0.0
H159 H 0.9914 0.61729 0.10625 0.0
H160 H 0.86663 0.57835 0.06933 0.0
Cu161 Cu 0.42484 0.306 0.02467 0.0
N162 N 0.42627 0.32889 0.0611 0.0
N163 N 0.40739 0.34446 0.0846 0.0
C164 C 0.412 0.33487 0.04779 0.0
C165 C 0.4198 0.34521 0.1228 0.0
C166 C 0.43129 0.33537 0.10841 0.0
O167 O 0.42711 0.31684 0.9556 0.0
C168 C 0.40106 0.28044 0.10037 0.0
O169 O 0.42085 0.28823 0.11542 0.0
H170 H 0.4033 0.33003 1.01321 0.0
H171 H 0.44057 0.33112 0.13245 0.0
N172 N 0.44458 0.29593 0.03372 0.0
N173 N 0.45598 0.27195 0.04098 0.0
C174 C 0.43943 0.2751 0.02981 0.0
C175 C 0.4653 0.30642 0.04705 0.0
C176 C 0.47234 0.29179 0.05139 0.0
C177 C 0.4424 0.3362 0.94886 0.0
O178 O 0.4558 0.34575 0.98546 0.0
H179 H 0.42353 0.26235 0.02047 0.0
H180 H 0.47459 0.32347 0.05366 0.0
O181 O 0.39803 0.28395 0.05524 0.0
H182 H 0.419 0.35049 0.1598 0.0
H183 H 0.48841 0.29562 0.06107 0.0
Cu184 Cu 0.74895 0.13084 0.03788 0.0
N185 N 0.72093 0.10966 0.05743 0.0
N186 N 0.69327 0.0757 0.0564 0.0
C187 C 0.71155 0.09046 0.03436 0.0
C188 C 0.69109 0.08594 0.09584 0.0
C189 C 0.7081 0.10692 0.09628 0.0
O190 O 0.74591 0.12539 0.96659 0.0
C191 C 0.7658 0.12777 0.12434 0.0
O192 O 0.75487 0.13718 0.13611 0.0
H193 H 0.71887 0.08692 1.0036 0.0
H194 H 0.71137 0.11883 0.12432 0.0
N195 N 0.76036 0.16082 0.04817 0.0
N196 N 0.78583 0.19581 0.05457 0.0
C197 C 0.78137 0.17571 0.04263 0.0
C198 C 0.7511 0.17191 0.06408 0.0
C199 C 0.76664 0.19335 0.06776 0.0
C200 C 0.73056 0.12779 0.95049 0.0
O201 O 0.72328 0.13734 0.97941 0.0
H202 H 0.79313 0.17174 0.02964 0.0
H203 H 0.7343 0.16488 0.07309 0.0
O204 O 0.76669 0.12359 0.07866 0.0
H205 H 0.67849 0.07863 0.12325 0.0
H206 H 0.76402 0.20609 0.0803 0.0
Cu207 Cu 0.66017 0.93495 0.03161 0.0
N208 N 0.65021 0.95341 1.00913 0.0
N209 N 0.65285 0.98591 1.007 0.0
C210 C 0.65975 0.97347 0.02782 0.0
C211 C 0.63827 0.97319 0.97307 0.0
C212 C 0.63662 0.9531 0.97451 0.0
O213 O 0.66236 0.94242 0.10187 0.0
C214 C 0.67805 0.93752 0.94394 0.0
O215 O 0.6573 0.92653 0.93662 0.0
H216 H 0.6722 0.9791 0.05557 0.0
H217 H 0.62662 0.93953 0.95128 0.0
N218 N 0.64498 0.90435 0.02725 0.0
N219 N 0.64116 0.87114 0.02897 0.0
C220 C 0.65486 0.8926 0.03143 0.0
C221 C 0.62413 0.88978 0.02197 0.0
C222 C 0.62173 0.86944 0.02327 0.0
C223 C 0.64382 0.93827 0.11682 0.0
O224 O 0.62729 0.92687 0.0881 0.0
H225 H 0.67197 0.89983 0.03629 0.0
H226 H 0.61147 0.89358 1.01844 0.0
O227 O 0.6847 0.94349 0.98818 0.0
H228 H 0.62947 0.97801 0.9489 0.0
H229 H 0.6066 0.85462 0.02194 0.0
Cu230 Cu 0.14048 0.74128 1.01428 0.0
N231 N 0.12033 0.71293 0.99463 0.0
N232 N 0.08676 0.68452 0.99579 0.0
C233 C 0.10092 0.70324 1.01698 0.0
C234 C 0.09761 0.68238 0.95752 0.0
C235 C 0.11834 0.69987 0.95698 0.0
O236 O 0.135 0.73692 0.08567 0.0
C237 C 0.13566 0.75658 0.92741 0.0
O238 O 0.14675 0.74724 0.91628 0.0
H239 H 0.09685 0.71054 0.04681 0.0
H240 H 0.13061 0.70323 0.92973 0.0
N241 N 0.17074 0.75487 1.00345 0.0
N242 N 0.20499 0.782 0.99504 0.0
C243 C 0.18458 0.77629 1.0076 0.0
C244 C 0.18292 0.74672 0.98815 0.0
C245 C 0.20388 0.76326 0.98318 0.0
C246 C 0.13881 0.72222 0.10009 0.0
O247 O 0.14974 0.71682 0.07046 0.0
H248 H 0.17961 0.78758 1.01837 0.0
H249 H 0.17697 0.72996 0.98064 0.0
O250 O 0.13126 0.75735 0.97305 0.0
H251 H 0.0909 0.6694 0.93109 0.0
H252 H 0.21729 0.76149 0.97199 0.0
Cu253 Cu 0.31931 0.40491 0.03043 0.0
N254 N 0.3221 0.38118 0.05041 0.0
N255 N 0.33806 0.36229 0.07143 0.0
C256 C 0.34072 0.38102 0.05399 0.0
C257 C 0.3168 0.35002 0.07937 0.0
C258 C 0.30704 0.3617 0.06652 0.0
O259 O 0.34309 0.42926 0.0654 0.0
C260 C 0.32446 0.39669 0.92706 0.0
O261 O 0.33766 0.39048 0.94306 0.0
H262 H 0.35605 0.39416 0.04323 0.0
H263 H 0.29017 0.35645 0.06934 0.0
N264 N 0.29328 0.40281 0.05332 0.0
N265 N 0.26373 0.40615 0.05841 0.0
C266 C 0.28046 0.40884 0.02979 0.0
C267 C 0.28434 0.39608 0.09821 0.0
C268 C 0.26628 0.39803 0.10137 0.0
C269 C 0.3631 0.43587 0.06116 0.0
O270 O 0.37015 0.43097 0.02134 0.0
H271 H 0.28335 0.41492 0.99229 0.0
H272 H 0.29071 0.39045 0.12705 0.0
O273 O 0.31748 0.4053 0.95753 0.0
H274 H 0.30888 0.33392 0.09429 0.0
H275 H 0.25608 0.39419 0.13359 0.0
Cu276 Cu 0.8087 0.74955 0.33159 0.0
N277 N 0.78771 0.75574 0.30745 0.0
N278 N 0.75351 0.7486 0.30492 0.0
C279 C 0.76692 0.74123 0.31594 0.0
C280 C 0.76649 0.76872 0.28787 0.0
C281 C 0.78759 0.77312 0.28959 0.0
O282 O 0.80094 0.74685 0.40232 0.0
C283 C 0.80586 0.7307 0.24427 0.0
O284 O 0.81218 0.75072 0.23298 0.0
H285 H 0.76187 0.72582 0.33296 0.0
H286 H 0.80175 0.78817 0.2807 0.0
N287 N 0.83887 0.76833 0.32409 0.0
N288 N 0.87392 0.77801 0.31759 0.0
C289 C 0.85371 0.762 0.3276 0.0
C290 C 0.85016 0.78919 0.31186 0.0
C291 C 0.87161 0.79517 0.30802 0.0
C292 C 0.80122 0.76381 0.41758 0.0
O293 O 0.80992 0.78085 0.38899 0.0
H294 H 0.84964 0.74572 0.33601 0.0
H295 H 0.8433 0.79931 0.30562 0.0
O296 O 0.80321 0.7252 0.29005 0.0
H297 H 0.76128 0.77965 0.27561 0.0
H298 H 0.88453 0.81107 0.29915 0.0
Cu299 Cu 0.32326 0.08347 0.36464 0.0
N300 N 0.31612 0.05478 0.3518 0.0
N301 N 0.32325 0.02762 0.35629 0.0
C302 C 0.32688 0.04648 0.37548 0.0
C303 C 0.30905 1.02362 0.31944 0.0
C304 C 0.30482 0.0404 0.31648 0.0
O305 O 0.32542 0.083 0.43745 0.0
C306 C 0.34379 0.09703 0.27508 0.0
O307 O 0.32357 0.0853 0.26265 0.0
H308 H 0.33769 0.05465 0.40573 0.0
H309 H 0.29513 0.04245 0.28888 0.0
N310 N 0.30435 0.09407 0.34894 0.0
N311 N 0.29277 0.11787 0.33956 0.0
C312 C 0.30902 0.11473 0.35417 0.0
C313 C 0.28452 0.08385 0.32972 0.0
C314 C 0.27741 0.09836 0.32391 0.0
C315 C 0.30728 0.07041 0.4578 0.0
O316 O 0.29013 0.063 0.4299 0.0
H317 H 0.32408 0.12723 0.36874 0.0
H318 H 0.27591 0.06706 0.32004 0.0
O319 O 0.34838 0.09971 0.32138 0.0
H320 H 0.303 1.01011 0.29454 0.0
H321 H 0.26221 0.09481 0.30811 0.0
Cu322 Cu 0.98695 0.25847 0.35036 0.0
N323 N 1.01455 0.28004 0.32864 0.0
N324 N 0.04235 0.314 0.32985 0.0
C325 C 1.02425 0.29912 0.35238 0.0
C326 C 0.04405 0.30399 0.28935 0.0
C327 C 1.02697 0.28304 0.28878 0.0
O328 O 0.99193 0.26328 0.42174 0.0
C329 C 0.96848 0.26164 0.26693 0.0
O330 O 0.97933 0.25235 0.25347 0.0
H331 H 1.0174 0.3024 0.38448 0.0
H332 H 1.02346 0.27125 0.26027 0.0
N333 N 0.97491 0.22839 0.33862 0.0
N334 N 0.94893 0.19348 0.33247 0.0
C335 C 0.95388 0.21366 0.3454 0.0
C336 C 0.98366 0.21712 0.32083 0.0
C337 C 0.96783 0.19576 0.31727 0.0
C338 C 1.00787 0.26103 0.43384 0.0
O339 O 1.01484 0.25236 0.40151 0.0
H340 H 0.94248 0.21779 0.36007 0.0
H341 H 1.00029 0.22394 0.31053 0.0
O342 O 0.96851 0.26602 0.31288 0.0
H343 H 0.05647 0.3114 0.26156 0.0
H344 H 0.97007 0.18295 0.3035 0.0
Cu345 Cu 0.08793 0.45896 0.36471 0.0
N346 N 0.09375 0.43737 0.38676 0.0
N347 N 0.08754 0.40345 0.38585 0.0
C348 C 0.08239 0.41758 0.36686 0.0
C349 C 0.10287 0.41479 0.41973 0.0
C350 C 0.10673 0.43575 0.42012 0.0
O351 O 0.08639 0.45276 0.29392 0.0
C352 C 0.06681 0.45551 0.44914 0.0
O353 O 0.08682 0.46356 0.46302 0.0
H354 H 0.07016 0.41352 0.33905 0.0
H355 H 0.11807 0.44872 0.44316 0.0
N356 N 0.1067 0.48902 0.37447 0.0
N357 N 0.1168 0.52427 0.37867 0.0
C358 C 0.10093 0.50413 0.36749 0.0
C359 C 0.12697 0.49998 0.39092 0.0
C360 C 0.13317 0.52153 0.3936 0.0
C361 C 0.10387 0.45378 0.28032 0.0
O362 O 0.12037 0.46283 0.31031 0.0
H363 H 0.08504 0.5002 0.35584 0.0
H364 H 0.13652 0.49282 0.40083 0.0
O365 O 0.0625 0.45223 0.40295 0.0
H366 H 0.11089 0.40852 0.44224 0.0
H367 H 0.14866 0.53423 0.40557 0.0
Cu368 Cu 0.6083 0.64266 0.33697 0.0
N369 N 0.62888 0.6715 0.35083 0.0
N370 N 0.66236 0.70006 0.34753 0.0
C371 C 0.64839 0.68051 0.32921 0.0
C372 C 0.65097 0.70352 0.38242 0.0
C373 C 0.63038 0.68594 0.38437 0.0
O374 O 0.61161 0.64326 0.26423 0.0
C375 C 0.61336 0.62898 0.42781 0.0
O376 O 0.60477 0.64087 0.4375 0.0
H377 H 0.65242 0.67239 0.30129 0.0
H378 H 0.61786 0.68347 0.41007 0.0
N379 N 0.57862 0.6315 0.35038 0.0
N380 N 0.54366 0.60643 0.35888 0.0
C381 C 0.56351 0.61056 0.34554 0.0
C382 C 0.56795 0.64104 0.36735 0.0
C383 C 0.5465 0.62572 0.3723 0.0
C384 C 0.60548 0.65539 0.24389 0.0
O385 O 0.59556 0.66251 0.27203 0.0
H386 H 0.5671 0.59863 0.33183 0.0
H387 H 0.57525 0.65789 0.37588 0.0
O388 O 0.61663 0.62652 0.38218 0.0
H389 H 0.65727 0.71714 0.40696 0.0
H390 H 0.534 0.62856 0.38566 0.0
Cu391 Cu 0.41744 0.97407 0.36406 0.0
N392 N 0.39107 0.96933 0.39093 0.0
N393 N 0.36555 0.9786 0.39747 0.0
C394 C 0.38595 0.98484 0.38463 0.0
C395 C 0.35734 0.95806 0.41252 0.0
C396 C 0.37311 0.9524 0.40864 0.0
O397 O 0.41154 0.97635 0.29356 0.0
C398 C 0.43583 0.99215 0.44989 0.0
O399 O 0.42238 0.97196 0.46027 0.0
H400 H 0.39675 1.00005 0.36736 0.0
H401 H 0.37117 0.93675 0.41548 0.0
N402 N 0.42843 0.95486 0.37047 0.0
N403 N 0.45362 0.94486 0.37629 0.0
C404 C 0.44964 0.96116 0.36838 0.0
C405 C 0.41859 0.93369 0.37952 0.0
C406 C 0.43394 0.92753 0.38293 0.0
C407 C 0.39426 0.95967 0.2795 0.0
O408 O 0.38536 0.943 0.30917 0.0
H409 H 0.46202 0.97761 0.36232 0.0
H410 H 0.40149 0.92345 0.38368 0.0
O411 O 0.43749 0.99823 0.40463 0.0
H412 H 0.34095 0.94766 0.42409 0.0
H413 H 0.43071 0.91136 0.38928 0.0
Cu414 Cu 0.60122 0.97668 0.36143 0.0
N415 N 0.62266 0.97096 0.38513 0.0
N416 N 0.65666 0.97734 0.38548 0.0
C417 C 0.64299 0.9836 0.36895 0.0
C418 C 0.64441 0.95998 0.41402 0.0
C419 C 0.62343 0.95602 0.41363 0.0
O420 O 0.60875 0.97879 0.29114 0.0
C421 C 0.60312 0.99674 0.44591 0.0
O422 O 0.59391 0.97639 0.45799 0.0
H423 H 0.64759 0.99708 0.34434 0.0
H424 H 0.60974 0.94293 0.43168 0.0
N425 N 0.571 0.95758 0.37009 0.0
N426 N 0.5356 0.94668 0.37696 0.0
C427 C 0.55565 0.9633 0.36786 0.0
C428 C 0.5602 0.93652 0.38054 0.0
C429 C 0.53859 0.9298 0.38449 0.0
C430 C 0.60791 0.96139 0.27761 0.0
O431 O 0.59791 0.94451 0.30643 0.0
H432 H 0.55921 0.97951 0.36061 0.0
H433 H 0.56749 0.92668 0.38503 0.0
O434 O 0.60766 1.00182 0.40029 0.0
H435 H 0.64996 0.9503 0.43232 0.0
H436 H 0.52604 0.91353 0.39159 0.0
Cu437 Cu 0.09084 0.64341 0.35273 0.0
N438 N 0.09544 0.6701 0.37667 0.0
N439 N 0.08706 0.69637 0.37574 0.0
C440 C 0.08095 0.67591 0.36391 0.0
C441 C 0.10654 0.70392 0.39678 0.0
C442 C 0.11166 0.68769 0.39743 0.0
O443 O 0.09133 0.64936 0.28171 0.0
C444 C 0.06828 0.62456 0.4342 0.0
O445 O 0.08811 0.63662 0.4493 0.0
H446 H 0.06672 0.66551 0.34296 0.0
H447 H 0.12655 0.68904 0.40968 0.0
N448 N 0.10915 0.63182 0.36537 0.0
N449 N 0.11827 0.60606 0.37342 0.0
C450 C 0.10282 0.6107 0.36063 0.0
C451 C 0.12939 0.64092 0.38199 0.0
C452 C 0.13499 0.6252 0.38704 0.0
C453 C 0.10896 0.66623 0.27038 0.0
O454 O 0.12447 0.67409 0.30307 0.0
H455 H 0.08681 0.59887 0.34946 0.0
H456 H 0.13931 0.65775 0.39043 0.0
O457 O 0.06456 0.62392 0.38771 0.0
H458 H 0.11659 0.72014 0.40977 0.0
H459 H 0.15031 0.62775 0.39971 0.0
Cu460 Cu 0.42502 0.4616 0.33909 0.0
N461 N 0.39637 0.4414 0.35568 0.0
N462 N 0.36731 0.40833 0.35539 0.0
C463 C 0.3867 0.42162 0.33539 0.0
C464 C 0.36452 0.42035 0.38966 0.0
C465 C 0.38244 0.44073 0.38975 0.0
O466 O 0.42314 0.45865 0.26608 0.0
C467 C 0.43939 0.45532 0.4281 0.0
O468 O 0.4277 0.46386 0.44044 0.0
H469 H 0.39429 0.41675 0.30784 0.0
H470 H 0.38534 0.4538 0.41402 0.0
N471 N 0.43687 0.49128 0.35329 0.0
N472 N 0.46248 0.52607 0.36097 0.0
C473 C 0.45788 0.50609 0.34765 0.0
C474 C 0.42779 0.50229 0.3708 0.0
C475 C 0.44343 0.52365 0.37527 0.0
C476 C 0.41027 0.46445 0.24855 0.0
O477 O 0.40315 0.47358 0.27917 0.0
H478 H 0.4695 0.5022 0.33322 0.0
H479 H 0.411 0.49532 0.37982 0.0
O480 O 0.44143 0.45267 0.38181 0.0
H481 H 0.35066 0.41479 0.41344 0.0
H482 H 0.44099 0.53638 0.38874 0.0
Cu483 Cu 0.31816 0.26245 0.34106 0.0
N484 N 0.31274 0.28373 0.3149 0.0
N485 N 0.31989 0.31791 0.3107 0.0
C486 C 0.32347 0.30359 0.33461 0.0
C487 C 0.3065 0.30673 0.27338 0.0
C488 C 0.30196 0.28558 0.27625 0.0
O489 O 0.3187 0.2696 0.41189 0.0
C490 C 0.33861 0.26327 0.25678 0.0
O491 O 0.31868 0.25597 0.24323 0.0
H492 H 0.33453 0.30766 0.36516 0.0
H493 H 0.29206 0.27276 0.25112 0.0
N494 N 0.2994 0.23234 0.33332 0.0
N495 N 0.28959 0.19716 0.33148 0.0
C496 C 0.30527 0.21741 0.34214 0.0
C497 C 0.27931 0.22114 0.31586 0.0
C498 C 0.27327 0.19961 0.31469 0.0
C499 C 0.30107 0.26873 0.42395 0.0
O500 O 0.28509 0.25987 0.39248 0.0
H501 H 0.32091 0.22142 0.35594 0.0
H502 H 0.26989 0.22814 0.30369 0.0
O503 O 0.34336 0.26761 0.30268 0.0
H504 H 0.30057 0.31338 0.2458 0.0
H505 H 0.2582 0.18687 0.30081 0.0
Cu506 Cu 0.80262 0.07468 0.35674 0.0
N507 N 0.78097 0.04761 0.33282 0.0
N508 N 0.74653 1.02075 0.33128 0.0
C509 C 0.76209 0.03701 0.35749 0.0
C510 C 0.75596 1.02114 0.28777 0.0
C511 C 0.77716 0.03762 0.28883 0.0
O512 O 0.79815 0.06789 0.42771 0.0
C513 C 0.79923 0.09526 0.27751 0.0
O514 O 0.80927 0.08552 0.2612 0.0
H515 H 0.75928 0.04235 0.39263 0.0
H516 H 0.78842 0.04273 0.25844 0.0
N517 N 0.83264 0.08695 0.34226 0.0
N518 N 0.86753 0.11272 0.33405 0.0
C519 C 0.84763 0.10788 0.34927 0.0
C520 C 0.84349 0.07824 0.32173 0.0
C521 C 0.86483 0.09392 0.31702 0.0
C522 C 0.80267 0.05316 0.43663 0.0
O523 O 0.81281 0.04897 0.402 0.0
H524 H 0.84393 0.11931 0.3656 0.0
H525 H 0.83636 0.06171 0.31036 0.0
O526 O 0.79473 0.09383 0.32374 0.0
H527 H 0.74788 1.01085 0.25658 0.0
H528 H 0.87735 0.09168 0.30119 0.0
Cu529 Cu 0.98911 0.74613 0.34188 0.0
N530 N 1.01623 0.75077 0.32128 0.0
N531 N 0.04194 0.7416 0.32325 0.0
C532 C 1.023 0.73803 0.3415 0.0
C533 C 0.04763 0.75776 0.29036 0.0
C534 C 1.0317 0.76331 0.28897 0.0
O535 O 0.99418 0.74635 0.41326 0.0
C536 C 0.97136 0.72475 0.25861 0.0
O537 O 0.98328 0.74485 0.24509 0.0
H538 H 1.01402 0.72642 0.37002 0.0
H539 H 1.03136 0.77536 0.26569 0.0
N540 N 0.97829 0.76513 0.32796 0.0
N541 N 0.95386 0.77592 0.31785 0.0
C542 C 0.95737 0.75979 0.33164 0.0
C543 C 0.98841 0.78548 0.31152 0.0
C544 C 0.97356 0.79216 0.30566 0.0
C545 C 1.00929 0.76503 0.42508 0.0
O546 O 1.01552 0.78039 0.39199 0.0
H547 H 0.94484 0.7441 0.34333 0.0
H548 H 1.0054 0.79485 0.30421 0.0
O549 O 0.97033 0.72028 0.30482 0.0
H550 H 0.06202 0.76476 0.26802 0.0
H551 H 0.97723 0.80799 0.29402 0.0
Cu552 Cu 0.47888 0.07747 0.68032 0.0
N553 N 0.45782 0.07805 0.63996 0.0
N554 N 0.42414 0.06266 0.61146 0.0
C555 C 0.43846 0.06007 0.63782 0.0
C556 C 0.43471 0.08327 0.59627 0.0
C557 C 0.45568 0.09274 0.61347 0.0
O558 O 0.46941 0.07932 0.74862 0.0
C559 C 0.48101 0.05339 0.60756 0.0
O560 O 0.49236 0.07309 0.59086 0.0
H561 H 0.4347 0.0454 0.65703 0.0
H562 H 0.46808 0.10926 0.6087 0.0
N563 N 0.50876 0.09743 0.67228 0.0
N564 N 0.54437 0.1094 0.66879 0.0
C565 C 0.5246 0.09268 0.67913 0.0
C566 C 0.51889 0.11791 0.65681 0.0
C567 C 0.54069 0.12527 0.65457 0.0
C568 C 0.46327 0.09309 0.75502 0.0
O569 O 0.46517 0.10573 0.71801 0.0
H570 H 0.52159 0.07709 0.69114 0.0
H571 H 0.51097 0.12673 0.64676 0.0
O572 O 0.47511 0.05072 0.6531 0.0
H573 H 0.4277 0.091 0.57523 0.0
H574 H 0.55276 0.14095 0.64174 0.0
Cu575 Cu 0.97912 0.40427 0.68492 0.0
N576 N 0.97363 0.37706 0.66264 0.0
N577 N 0.98127 0.35033 0.65953 0.0
C578 C 0.98393 0.36777 0.68412 0.0
C579 C 0.96852 0.34839 0.62088 0.0
C580 C 0.96382 0.36485 0.62287 0.0
O581 O 0.97778 0.39892 0.75641 0.0
C582 C 1.00144 0.42352 0.60315 0.0
O583 O 0.98146 0.41214 0.58872 0.0
H584 H 0.99435 0.37452 0.71582 0.0
H585 H 0.95474 0.36818 0.59601 0.0
N586 N 0.96081 0.41577 0.67041 0.0
N587 N 0.95121 0.44101 0.65921 0.0
C588 C 0.96673 0.43683 0.67417 0.0
C589 C 0.94071 0.40625 0.65275 0.0
C590 C 0.93475 0.42161 0.64617 0.0
C591 C 0.95878 0.38429 0.76785 0.0
O592 O 0.94394 0.37769 0.73355 0.0
H593 H 0.98242 0.44898 0.68654 0.0
H594 H 0.93107 0.38934 0.64486 0.0
O595 O 1.00549 0.42332 0.64928 0.0
H596 H 0.96333 0.33625 0.59251 0.0
H597 H 0.91928 0.41854 0.63329 0.0
Cu598 Cu 0.65861 0.59076 0.6783 0.0
N599 N 0.6862 0.6108 0.6551 0.0
N600 N 0.71386 0.64458 0.65124 0.0
C601 C 0.69596 0.63052 0.67545 0.0
C602 C 0.71559 0.63326 0.61352 0.0
C603 C 0.69848 0.61236 0.61599 0.0
O604 O 0.66407 0.59702 0.75013 0.0
C605 C 0.64127 0.59478 0.59172 0.0
O606 O 0.65083 0.58409 0.57891 0.0
H607 H 0.6892 0.63486 0.70598 0.0
H608 H 0.69478 0.59967 0.58983 0.0
N609 N 0.64647 0.56065 0.66826 0.0
N610 N 0.62088 0.52564 0.66253 0.0
C611 C 0.62538 0.54586 0.67351 0.0
C612 C 0.65567 0.54939 0.6532 0.0
C613 C 0.64005 0.52799 0.64957 0.0
C614 C 0.68007 0.59527 0.76486 0.0
O615 O 0.68758 0.58635 0.73462 0.0
H616 H 0.61348 0.55007 0.68382 0.0
H617 H 0.67251 0.55627 0.64493 0.0
O618 O 0.64118 0.59908 0.6378 0.0
H619 H 0.72796 0.63969 0.58545 0.0
H620 H 0.6427 0.51511 0.63839 0.0
Cu621 Cu 0.74843 0.7869 0.67438 0.0
N622 N 0.75542 0.76661 0.69918 0.0
N623 N 0.75267 0.73414 0.69891 0.0
C624 C 0.74595 0.74688 0.67891 0.0
C625 C 0.76677 0.74622 0.7343 0.0
C626 C 0.76861 0.76636 0.73409 0.0
O627 O 0.75128 0.78274 0.60315 0.0
C628 C 0.72195 0.778 0.75256 0.0
O629 O 0.74094 0.78555 0.77258 0.0
H630 H 0.73402 0.74191 0.65004 0.0
H631 H 0.77879 0.77974 0.75762 0.0
N632 N 0.76571 0.81662 0.69048 0.0
N633 N 0.77551 0.8516 0.7001 0.0
C634 C 0.76 0.83186 0.68503 0.0
C635 C 0.7855 0.82708 0.70984 0.0
C636 C 0.7915 0.84843 0.71582 0.0
C637 C 0.76961 0.78476 0.59346 0.0
O638 O 0.78453 0.793 0.62758 0.0
H639 H 0.7445 0.82832 0.6713 0.0
H640 H 0.79493 0.81973 0.71909 0.0
O641 O 0.72041 0.7773 0.70532 0.0
H642 H 0.77528 0.74096 0.75822 0.0
H643 H 0.80669 0.86073 0.73033 0.0
Cu644 Cu 0.27663 0.97521 0.66297 0.0
N645 N 0.30067 0.9777 0.62863 0.0
N646 N 0.33545 0.99612 0.60605 0.0
C647 C 0.32115 0.99044 0.64361 0.0
C648 C 0.32347 0.98609 0.56595 0.0
C649 C 0.30217 0.97489 0.57987 0.0
O650 O 0.27689 1.00122 0.63836 0.0
C651 C 0.27192 0.96913 0.77259 0.0
O652 O 0.25232 0.96581 0.77006 0.0
H653 H 0.32528 0.99702 0.68054 0.0
H654 H 0.2887 0.96719 0.55501 0.0
N655 N 0.25012 0.95038 0.64397 0.0
N656 N 0.2169 0.92092 0.64237 0.0
C657 C 0.23384 0.93463 0.67101 0.0
C658 C 0.24303 0.94634 0.597 0.0
C659 C 0.22294 0.9284 0.59585 0.0
C660 C 0.29403 1.01954 0.63763 0.0
O661 O 0.30976 1.02275 0.66722 0.0
H662 H 0.23438 0.93322 0.71072 0.0
H663 H 0.25164 0.95622 0.56559 0.0
O664 O 0.28333 0.97414 0.73334 0.0
H665 H 0.32936 0.98834 0.52831 0.0
H666 H 0.21318 0.92177 0.56314 0.0
Cu667 Cu 0.08496 0.30882 0.68657 0.0
N668 N 0.05717 0.30203 0.70803 0.0
N669 N 1.02913 0.30775 0.70704 0.0
C670 C 0.04861 0.31337 0.68846 0.0
C671 C 1.0253 0.29234 0.74075 0.0
C672 C 0.04255 0.28872 0.74109 0.0
O673 O 0.07975 0.30892 0.61537 0.0
C674 C 0.10075 0.32886 0.77176 0.0
O675 O 0.08955 0.30839 0.7828 0.0
H676 H 0.05692 0.32599 0.66145 0.0
H677 H 0.04433 0.27744 0.76413 0.0
N678 N 0.09803 0.29167 0.69777 0.0
N679 N 0.12494 0.28427 0.7064 0.0
C680 C 0.1194 0.29905 0.69339 0.0
C681 C 0.08971 0.27136 0.71368 0.0
C682 C 0.10612 0.26676 0.71881 0.0
C683 C 0.06417 0.2905 0.60331 0.0
O684 O 0.05781 0.2747 0.63525 0.0
H685 H 0.1308 0.31526 0.6822 0.0
H686 H 0.07295 0.26069 0.72161 0.0
O687 O 0.10231 0.33431 0.72608 0.0
H688 H 1.01104 0.28419 0.76338 0.0
H689 H 0.10421 0.25156 0.73056 0.0
Cu690 Cu 0.27413 0.31996 0.68082 0.0
N691 N 0.29457 0.3136 0.70675 0.0
N692 N 0.32827 0.31938 0.70738 0.0
C693 C 0.31449 0.32488 0.68791 0.0
C694 C 0.31632 0.3035 0.73983 0.0
C695 C 0.29549 0.30002 0.73961 0.0
O696 O 0.27895 0.31732 0.60961 0.0
C697 C 0.27856 0.3495 0.75379 0.0
O698 O 0.26209 0.3323 0.77223 0.0
H699 H 0.31848 0.33656 0.6587 0.0
H700 H 0.28212 0.28839 0.7614 0.0
N701 N 0.2443 0.30213 0.69643 0.0
N702 N 0.20897 0.29082 0.70678 0.0
C703 C 0.22843 0.30707 0.69203 0.0
C704 C 0.23438 0.28193 0.71371 0.0
C705 C 0.21284 0.27496 0.71992 0.0
C706 C 0.27874 0.29986 0.59922 0.0
O707 O 0.2722 0.28481 0.63318 0.0
H708 H 0.2312 0.32246 0.67906 0.0
H709 H 0.24224 0.27279 0.72104 0.0
O710 O 0.28515 0.34856 0.71036 0.0
H711 H 0.3222 0.29514 0.76243 0.0
H712 H 0.20089 0.25915 0.7323 0.0
Cu713 Cu 0.75606 0.97573 0.68818 0.0
N714 N 0.76533 1.00414 0.70787 0.0
N715 N 0.76072 0.03288 0.70428 0.0
C716 C 0.75136 1.01131 0.70253 0.0
C717 C 0.78169 0.03961 0.71202 0.0
C718 C 0.78451 1.0219 0.71366 0.0
O719 O 0.75364 0.98013 0.61765 0.0
C720 C 0.73666 0.96198 0.77579 0.0
O721 O 0.7572 0.97248 0.78615 0.0
H722 H 0.73474 1.0008 0.69296 0.0
H723 H 0.7996 1.02214 0.71543 0.0
N724 N 0.77256 0.96183 0.69772 0.0
N725 N 0.77976 0.93466 0.70309 0.0
C726 C 0.76525 0.94062 0.69035 0.0
C727 C 0.7924 0.96954 0.71599 0.0
C728 C 0.79684 0.95298 0.7193 0.0
C729 C 0.77227 0.99158 0.59884 0.0
O730 O 0.7889 0.9943 0.62444 0.0
H731 H 0.74921 0.92965 0.67759 0.0
H732 H 0.80281 0.98598 0.72696 0.0
O733 O 0.73109 0.96005 0.73028 0.0
H734 H 0.79431 0.05611 0.71488 0.0
H735 H 0.8116 0.95438 0.73283 0.0
Cu736 Cu 0.08618 0.786 0.67418 0.0
N737 N 0.05765 0.76691 0.69547 0.0
N738 N 1.02872 0.73362 0.69657 0.0
C739 C 0.04678 0.74769 0.67258 0.0
C740 C 1.02815 0.74436 0.73689 0.0
C741 C 0.04591 0.7649 0.73603 0.0
O742 O 0.0806 0.7813 0.60279 0.0
C743 C 0.10121 0.78142 0.76045 0.0
O744 O 0.09207 0.79285 0.7694 0.0
H745 H 0.05301 0.74351 0.64076 0.0
H746 H 0.05049 0.77687 0.7646 0.0
N747 N 0.10193 0.81649 0.68332 0.0
N748 N 0.13138 0.84964 0.68434 0.0
C749 C 0.12293 0.82882 0.671 0.0
C750 C 0.09682 0.83012 0.70501 0.0
C751 C 0.1148 0.85044 0.7055 0.0
C752 C 0.06827 0.78867 0.59128 0.0
O753 O 0.06475 0.79964 0.625 0.0
H754 H 0.13202 0.82242 0.65354 0.0
H755 H 0.08122 0.82558 0.72 0.0
O756 O 0.10194 0.77621 0.71542 0.0
H757 H 1.01623 0.73761 0.76593 0.0
H758 H 0.11542 0.86472 0.71981 0.0
Cu759 Cu 0.98247 0.58783 0.67348 0.0
N760 N 0.97655 0.60931 0.65116 0.0
N761 N 0.98278 0.64324 0.64947 0.0
C762 C 0.98787 0.62931 0.67004 0.0
C763 C 0.96748 0.63149 0.61585 0.0
C764 C 0.96364 0.61056 0.61701 0.0
O765 O 0.9841 0.59375 0.74454 0.0
C766 C 1.00287 0.5902 0.58856 0.0
O767 O 0.98264 0.58147 0.5761 0.0
H768 H 1.00012 0.63368 0.69794 0.0
H769 H 0.95245 0.59738 0.59425 0.0
N770 N 0.96334 0.55788 0.66347 0.0
N771 N 0.95259 0.52262 0.65624 0.0
C772 C 0.96881 0.54244 0.66809 0.0
C773 C 0.94282 0.54738 0.64863 0.0
C774 C 0.93617 0.52579 0.64433 0.0
C775 C 0.96669 0.59276 0.75873 0.0
O776 O 0.95031 0.58455 0.7283 0.0
H777 H 0.98464 0.54581 0.67876 0.0
H778 H 0.93337 0.55489 0.64102 0.0
O779 O 1.00771 0.59438 0.63434 0.0
H780 H 0.95951 0.63748 0.59228 0.0
H781 H 0.92032 0.51338 0.63366 0.0
Cu782 Cu 0.4748 0.40832 0.67882 0.0
N783 N 0.453 0.38158 0.6559 0.0
N784 N 0.4179 0.3569 0.6555 0.0
C785 C 0.43307 0.37675 0.66891 0.0
C786 C 0.42887 0.34852 0.6334 0.0
C787 C 0.45061 0.36386 0.6335 0.0
O788 O 0.46862 0.40247 0.75075 0.0
C789 C 0.47183 0.42553 0.5918 0.0
O790 O 0.48017 0.41356 0.58046 0.0
H791 H 0.43003 0.38756 0.69047 0.0
H792 H 0.46361 0.36193 0.61975 0.0
N793 N 0.50471 0.4194 0.66835 0.0
N794 N 0.53982 0.4447 0.66267 0.0
C795 C 0.51967 0.44042 0.67356 0.0
C796 C 0.51576 0.40998 0.65337 0.0
C797 C 0.53725 0.42544 0.64974 0.0
C798 C 0.46881 0.38543 0.76418 0.0
O799 O 0.47609 0.37679 0.73257 0.0
H800 H 0.51562 0.45244 0.68376 0.0
H801 H 0.50871 0.39312 0.64516 0.0
O802 O 0.46813 0.42696 0.63778 0.0
H803 H 0.42178 0.33248 0.61862 0.0
H804 H 0.55003 0.42263 0.63858 0.0
Cu805 Cu 0.66102 0.08104 0.68516 0.0
N806 N 0.68792 0.08577 0.66191 0.0
N807 N 0.71474 0.07813 0.65968 0.0
C808 C 0.69636 0.07441 0.68183 0.0
C809 C 0.71791 0.09254 0.62364 0.0
C810 C 0.70143 0.09724 0.62516 0.0
O811 O 0.66526 0.08019 0.7565 0.0
C812 C 0.64154 0.06013 0.60246 0.0
O813 O 0.654 0.08008 0.5884 0.0
H814 H 0.68885 0.06337 0.71229 0.0
H815 H 0.69917 0.10771 0.60027 0.0
N816 N 0.65062 0.10038 0.67405 0.0
N817 N 0.62605 0.1111 0.66889 0.0
C818 C 0.62977 0.09487 0.6798 0.0
C819 C 0.66047 0.12084 0.65845 0.0
C820 C 0.64546 0.12744 0.65521 0.0
C821 C 0.68222 0.09724 0.76994 0.0
O822 O 0.69202 0.11291 0.73783 0.0
H823 H 0.61752 0.07914 0.69197 0.0
H824 H 0.6773 0.13021 0.64935 0.0
O825 O 0.64109 0.05563 0.64846 0.0
H826 H 0.73063 0.09867 0.5965 0.0
H827 H 0.6486 0.14296 0.64235 0.0
C828 C 1.02447 0.39942 0.0396 0.0
C829 C 1.01111 0.37713 0.03349 0.0
C830 C 0.04639 0.40994 0.0263 0.0
C831 C 0.05601 0.39859 1.00714 0.0
H832 H 1.01789 0.40881 0.05453 0.0
H833 H 0.05597 0.42702 0.03215 0.0
S834 S 1.02813 0.34012 0.98265 0.0
N835 N 1.00947 0.34417 1.00672 0.0
N836 N 0.04994 0.36389 0.98032 0.0
C837 C 0.04269 0.3764 0.99996 0.0
C838 C 1.0205 0.36571 1.01352 0.0
C839 C 0.72836 0.69433 0.12 0.0
C840 C 0.71926 0.67699 0.08659 0.0
C841 C 0.72482 0.71182 0.11505 0.0
C842 C 0.71177 0.71239 0.07712 0.0
H843 H 0.73901 0.6948 0.14883 0.0
H844 H 0.73259 0.72513 0.14045 0.0
S845 S 0.68308 0.67062 0.98244 0.0
N846 N 0.69583 0.6613 1.01582 0.0
N847 N 0.68913 0.69392 1.00704 0.0
C848 C 0.70208 0.69493 0.04466 0.0
C849 C 0.70581 0.67731 0.04929 0.0
C850 C 0.40683 0.03316 0.07205 0.0
C851 C 0.41724 0.04917 0.03588 0.0
C852 C 0.39418 1.01144 0.05879 0.0
C853 C 0.39172 1.00481 1.00893 0.0
H854 H 0.40764 0.03756 0.11059 0.0
H855 H 0.38587 0.99974 0.08772 0.0
S856 S 0.41704 0.04036 0.90056 0.0
N857 N 0.42525 0.05676 0.94839 0.0
N858 N 0.4017 1.01611 0.92364 0.0
C859 C 0.40288 1.02058 0.97271 0.0
C860 C 0.41553 0.04268 0.98614 0.0
C861 C 0.0483 0.6635 0.97191 0.0
C862 C 0.06424 0.67138 1.00872 0.0
C863 C 1.02633 0.65274 0.9843 0.0
C864 C 1.0193 0.64886 0.03401 0.0
H865 H 0.05286 0.66641 0.93327 0.0
H866 H 1.01471 0.64757 0.95469 0.0
S867 S 0.05452 0.66534 0.14437 0.0
N868 N 0.07128 0.67403 0.09707 0.0
N869 N 1.03028 0.65345 0.1201 0.0
C870 C 1.03507 0.65604 0.07106 0.0
C871 C 0.05741 0.66738 0.05849 0.0
C872 C 0.39211 0.36807 0.0999 0.0
C873 C 0.38943 0.34817 0.08552 0.0
C874 C 0.37516 0.37243 0.09614 0.0
C875 C 0.35476 0.35693 0.07866 0.0
H876 H 0.4076 0.38055 0.11259 0.0
H877 H 0.37802 0.38809 0.10676 0.0
S878 S 0.33908 0.30169 0.04014 0.0
N879 N 0.36448 0.31241 0.05598 0.0
N880 N 0.33283 0.32054 0.04895 0.0
C881 C 0.35172 0.3367 0.06608 0.0
C882 C 0.36898 0.33236 0.06943 0.0
C883 C 0.66467 1.01532 0.06828 0.0
C884 C 0.66067 1.00829 1.01867 0.0
C885 C 0.67435 0.03721 0.08057 0.0
C886 C 0.68089 0.05312 0.04371 0.0
H887 H 0.66058 1.00376 0.09787 0.0
H888 H 0.67756 0.04178 0.1191 0.0
S889 S 0.67347 0.04342 0.90837 0.0
N890 N 0.6634 1.01921 0.93263 0.0
N891 N 0.68176 0.06018 0.95553 0.0
C892 C 0.67651 0.0463 0.99406 0.0
C893 C 0.66635 1.02398 0.9816 0.0
C894 C 0.71858 0.71472 0.30843 0.0
C895 C 0.73045 0.73717 0.31327 0.0
C896 C 0.69656 0.70292 0.31924 0.0
C897 C 0.68513 0.71289 0.33569 0.0
H898 H 0.72643 0.70609 0.29623 0.0
H899 H 0.68857 0.6857 0.31561 0.0
S900 S 0.70845 0.77145 0.35388 0.0
N901 N 0.72894 0.76897 0.33571 0.0
N902 N 0.68756 0.74697 0.35476 0.0
C903 C 0.69672 0.73542 0.34012 0.0
C904 C 0.71927 0.74748 0.32908 0.0
C905 C 0.33325 0.98093 0.37394 0.0
C906 C 0.35461 0.99081 0.39065 0.0
C907 C 0.32314 0.99295 0.36309 0.0
C908 C 0.33378 1.01541 0.36911 0.0
H909 H 0.32444 0.96381 0.3679 0.0
H910 H 0.30681 0.98455 0.34984 0.0
S911 S 0.38964 0.04892 0.4144 0.0
N912 N 0.38567 1.02434 0.41489 0.0
N913 N 0.36716 0.04684 0.39383 0.0
C914 C 0.35503 1.02538 0.38688 0.0
C915 C 0.36528 1.01314 0.39773 0.0
C916 C 0.06235 0.35287 0.30839 0.0
C917 C 0.05539 0.33639 0.34398 0.0
C918 C 0.07317 0.37466 0.32225 0.0
C919 C 0.07797 0.381 0.37221 0.0
H920 H 0.05871 0.34886 0.26968 0.0
H921 H 0.07769 0.38671 0.29362 0.0
S922 S 0.06447 0.34423 0.4795 0.0
N923 N 0.0549 0.32811 0.43133 0.0
N924 N 0.07544 0.36881 0.45705 0.0
C925 C 0.07177 0.36471 0.40792 0.0
C926 C 0.06043 0.34253 0.39392 0.0
C927 C 0.6861 0.99458 0.3234 0.0
C928 C 0.67916 0.98678 0.37188 0.0
C929 C 0.70793 1.0049 0.30989 0.0
C930 C 0.72394 1.0083 0.34448 0.0
H931 H 0.67452 0.99275 0.29557 0.0
H932 H 0.71238 1.01088 0.27245 0.0
S933 S 0.71448 0.99032 0.47558 0.0
N934 N 0.69029 0.98261 0.45398 0.0
N935 N 0.73113 1.00218 0.42894 0.0
C936 C 0.71722 1.00027 0.3928 0.0
C937 C 0.69494 0.98945 0.40635 0.0
C938 C 0.07574 0.74052 0.33659 0.0
C939 C 0.05316 0.7301 0.33609 0.0
C940 C 0.08674 0.72966 0.3505 0.0
C941 C 0.07567 0.70781 0.36413 0.0
H942 H 0.085 0.75729 0.32669 0.0
H943 H 0.10405 0.73836 0.34972 0.0
S944 S 1.01656 0.67292 0.36875 0.0
N945 N 1.02027 0.69624 0.34937 0.0
N946 N 0.04071 0.6764 0.37732 0.0
C947 C 0.05313 0.69727 0.36398 0.0
C948 C 0.04197 0.70823 0.34957 0.0
C949 C 0.35124 0.37819 0.2953 0.0
C950 C 0.3537 0.38569 0.34445 0.0
C951 C 0.33937 0.35613 0.28411 0.0
C952 C 0.32985 0.3406 0.32174 0.0
H953 H 0.35874 0.38951 0.26526 0.0
H954 H 0.33832 0.35114 0.24597 0.0
S955 S 0.33097 0.35153 0.45619 0.0
N956 N 0.34503 0.37551 0.43081 0.0
N957 N 0.32306 0.33434 0.40992 0.0
C958 C 0.33186 0.34788 0.37084 0.0
C959 C 0.34364 0.37031 0.38216 0.0
C960 C 0.36492 0.03099 0.63711 0.0
C961 C 0.35783 1.01289 0.60636 0.0
C962 C 0.3864 0.04772 0.63686 0.0
C963 C 0.40175 0.04689 0.60645 0.0
H964 H 0.35376 0.03239 0.66133 0.0
H965 H 0.3912 0.06117 0.66153 0.0
S966 S 0.39224 1.003 0.52095 0.0
N967 N 0.36846 0.99527 0.54529 0.0
N968 N 0.40877 0.02644 0.54606 0.0
C969 C 0.39508 0.02893 0.57599 0.0
C970 C 0.37317 1.01205 0.57556 0.0
C971 C 0.9939 0.33272 0.71949 0.0
C972 C 0.99195 0.3382 0.6703 0.0
C973 C 1.00536 0.32212 0.73111 0.0
C974 C 1.01591 0.31707 0.69421 0.0
H975 H 0.98653 0.33676 0.74929 0.0
H976 H 1.00657 0.31849 0.76947 0.0
S977 S 1.01574 0.32775 0.55962 0.0
N978 N 1.00132 0.33729 0.58442 0.0
N979 N 1.02322 0.31811 0.60613 0.0
C980 C 1.01397 0.32236 0.64488 0.0
C981 C 1.00191 0.33268 0.63297 0.0
C982 C 0.74015 0.69643 0.72298 0.0
C983 C 0.7453 0.71202 0.68594 0.0
C984 C 0.73063 0.67452 0.71115 0.0
C985 C 0.7263 0.66732 0.66172 0.0
H986 H 0.74263 0.7011 0.76153 0.0
H987 H 0.72617 0.66301 0.74102 0.0
S988 S 0.73829 0.70185 0.55066 0.0
N989 N 0.74637 0.71875 0.59751 0.0
N990 N 0.72889 0.67782 0.57542 0.0
C991 C 0.73228 0.68285 0.62423 0.0
C992 C 0.74163 0.70509 0.6363 0.0
C993 C 0.38263 0.32534 0.67916 0.0
C994 C 0.39511 0.34713 0.66581 0.0
C995 C 0.36093 0.31637 0.69351 0.0
C996 C 0.35084 0.32881 0.69489 0.0
H997 H 0.38979 0.31527 0.67951 0.0
H998 H 0.35195 0.29954 0.70306 0.0
S999 S 0.37634 0.38659 0.66266 0.0
N1000 N 0.39523 0.38054 0.65282 0.0
N1001 N 0.35548 0.3643 0.6827 0.0
C1002 C 0.36323 0.35059 0.6816 0.0
C1003 C 0.38503 0.35956 0.66632 0.0
C1004 C 0.72817 0.03641 0.70549 0.0
C1005 C 0.75011 0.04526 0.69463 0.0
C1006 C 0.71696 0.04717 0.694 0.0
C1007 C 0.727 0.06752 0.67108 0.0
H1008 H 0.71943 1.02087 0.72311 0.0
H1009 H 0.70006 0.03912 0.70257 0.0
S1010 S 0.78441 0.09822 0.63495 0.0
N1011 N 0.78148 0.07583 0.65885 0.0
N1012 N 0.76072 0.09636 0.63912 0.0
C1013 C 0.74906 0.07677 0.66047 0.0
C1014 C 0.76051 0.06567 0.67195 0.0
C1015 C 1.009 0.6952 0.72194 0.0
C1016 C 1.01527 0.71101 0.68487 0.0
C1017 C 0.99805 0.67318 0.7102 0.0
C1018 C 0.99252 0.66593 0.66099 0.0
H1019 H 1.01329 0.69991 0.76011 0.0
H1020 H 0.99404 0.66167 0.73991 0.0
S1021 S 1.00415 0.70077 0.55055 0.0
N1022 N 1.01426 0.71775 0.5971 0.0
N1023 N 0.99373 0.67662 0.57521 0.0
C1024 C 0.99806 0.68158 0.62384 0.0
C1025 C 1.00943 0.70399 0.63572 0.0
C1026 C 0.22645 0.39908 0.07078 0.0
C1027 C 0.24662 0.41086 0.04745 0.0
C1028 C 0.20989 0.4038 0.06313 0.0
C1029 C 0.21253 0.42065 0.03185 0.0
H1030 H 0.22331 0.38596 0.09535 0.0
H1031 H 0.19497 0.39432 0.08279 0.0
S1032 S 0.26183 0.45614 0.96005 0.0
N1033 N 0.268 0.44016 0.9908 0.0
N1034 N 0.23692 0.44863 0.97552 0.0
C1035 C 0.23249 0.43239 1.00754 0.0
C1036 C 0.24942 0.42756 1.01538 0.0
C1037 C 0.66972 0.84118 0.06843 0.0
C1038 C 0.65705 0.82036 0.04891 0.0
C1039 C 0.66454 0.85746 0.06147 0.0
C1040 C 0.64634 0.85399 0.03449 0.0
H1041 H 0.68398 0.84512 0.0894 0.0
H1042 H 0.67481 0.87286 0.07831 0.0
S1043 S 0.60802 0.80271 0.97337 0.0
N1044 N 0.62537 0.79744 1.00045 0.0
N1045 N 0.61607 0.828 0.98596 0.0
C1046 C 0.63367 0.83336 1.01384 0.0
C1047 C 0.63893 0.81667 0.02119 0.0
C1048 C 0.22725 0.81917 0.02908 0.0
C1049 C 0.2239 0.80347 0.99345 0.0
C1050 C 0.24606 0.83966 0.02913 0.0
C1051 C 0.26242 0.84545 0.99352 0.0
H1052 H 0.21549 0.81541 0.05794 0.0
H1053 H 0.24806 0.85085 0.05809 0.0
S1054 S 0.26004 0.81162 0.88749 0.0
N1055 N 0.23776 0.79632 0.91848 0.0
N1056 N 0.27258 0.83431 0.91844 0.0
C1057 C 0.25877 0.8302 0.95656 0.0
C1058 C 0.23973 0.80943 0.95656 0.0
C1059 C 0.44349 0.23497 1.00917 0.0
C1060 C 0.45599 0.25168 0.0425 0.0
C1061 C 0.44359 0.21538 1.00967 0.0
C1062 C 0.4562 0.21151 0.04351 0.0
H1063 H 0.4338 0.23717 0.98183 0.0
H1064 H 0.43398 0.2033 0.98268 0.0
S1065 S 0.48959 0.24874 0.14299 0.0
N1066 N 0.47985 0.262 0.11328 0.0
N1067 N 0.48005 0.2256 0.11416 0.0
C1068 C 0.46828 0.22785 0.07791 0.0
C1069 C 0.46817 0.24775 0.07742 0.0
C1070 C 0.82717 0.25516 0.04433 0.0
C1071 C 0.84683 0.25609 0.05399 0.0
C1072 C 0.80755 0.23557 0.0442 0.0
C1073 C 0.80646 0.21579 0.05385 0.0
H1074 H 0.82693 0.26974 0.03628 0.0
H1075 H 0.79307 0.23594 0.036 0.0
S1076 S 0.85302 0.20934 0.08585 0.0
N1077 N 0.86366 0.23531 0.07621 0.0
N1078 N 0.82709 0.1988 0.07627 0.0
C1079 C 0.826 0.2165 0.06412 0.0
C1080 C 0.84602 0.23648 0.06412 0.0
C1081 C 0.85571 0.62904 0.04207 0.0
C1082 C 0.85608 0.60985 0.03454 0.0
C1083 C 0.83636 0.6296 0.04119 0.0
C1084 C 0.8164 0.61099 0.03277 0.0
H1085 H 0.87045 0.64372 0.04981 0.0
H1086 H 0.83701 0.64466 0.04833 0.0
S1087 S 0.80864 0.55721 1.00439 0.0
N1088 N 0.83463 0.57215 1.01385 0.0
N1089 N 0.79868 0.57319 1.01242 0.0
C1090 C 0.81664 0.59187 0.0237 0.0
C1091 C 0.8363 0.5913 0.02453 0.0
C1092 C 0.89746 0.76436 0.35039 0.0
C1093 C 0.8937 0.777 0.31627 0.0
C1094 C 0.91689 0.76387 0.35047 0.0
C1095 C 0.93353 0.77593 0.3163 0.0
H1096 H 0.88546 0.7551 0.37801 0.0
H1097 H 0.91904 0.75427 0.37823 0.0
S1098 S 0.93054 0.80914 0.21446 0.0
N1099 N 0.9077 0.80025 0.24439 0.0
N1100 N 0.94363 0.7992 0.24411 0.0
C1101 C 0.92958 0.788 0.2809 0.0
C1102 C 0.9099 0.78856 0.28098 0.0
C1103 C 0.30958 0.177 0.32727 0.0
C1104 C 0.29037 0.17728 0.33536 0.0
C1105 C 0.31038 0.15776 0.32935 0.0
C1106 C 0.29199 0.13778 0.33956 0.0
H1107 H 0.32409 0.19174 0.3182 0.0
H1108 H 0.32545 0.15848 0.3218 0.0
S1109 S 0.23832 0.12989 0.37029 0.0
N1110 N 0.25294 0.15578 0.35863 0.0
N1111 N 0.25441 0.12006 0.36235 0.0
C1112 C 0.27286 0.13797 0.34925 0.0
C1113 C 0.27206 0.15751 0.3472 0.0
C1114 C 0.90737 0.13412 0.34233 0.0
C1115 C 0.88759 0.13331 0.33518 0.0
C1116 C 0.92706 0.15365 0.34193 0.0
C1117 C 0.92818 0.17357 0.33421 0.0
H1118 H 0.90766 0.11945 0.34867 0.0
H1119 H 0.94159 0.15311 0.34807 0.0
S1120 S 0.8813 0.1805 0.30963 0.0
N1121 N 0.87066 0.15443 0.3178 0.0
N1122 N 0.90736 0.19086 0.31673 0.0
C1123 C 0.90852 0.17302 0.32669 0.0
C1124 C 0.88841 0.15306 0.32724 0.0
C1125 C 0.12886 0.56115 0.41051 0.0
C1126 C 0.11647 0.54444 0.37707 0.0
C1127 C 0.12924 0.58094 0.40922 0.0
C1128 C 0.11723 0.58522 0.37442 0.0
H1129 H 0.13829 0.55889 0.43847 0.0
H1130 H 0.13892 0.59295 0.43625 0.0
S1131 S 0.08331 0.54769 0.27585 0.0
N1132 N 0.09261 0.53418 0.30629 0.0
N1133 N 0.0933 0.57106 0.30387 0.0
C1134 C 0.10486 0.56872 0.34048 0.0
C1135 C 0.10448 0.54851 0.3418 0.0
C1136 C 0.50397 0.58518 0.34904 0.0
C1137 C 0.52357 0.58598 0.35879 0.0
C1138 C 0.48428 0.56569 0.34957 0.0
C1139 C 0.48311 0.54594 0.35985 0.0
H1140 H 0.50383 0.59976 0.34041 0.0
H1141 H 0.46982 0.56611 0.34133 0.0
S1142 S 0.52939 0.53917 0.39242 0.0
N1143 N 0.5402 0.56511 0.38202 0.0
N1144 N 0.50346 0.52876 0.38292 0.0
C1145 C 0.50255 0.54651 0.3702 0.0
C1146 C 0.52263 0.56638 0.3697 0.0
C1147 C 0.49156 0.95975 0.34695 0.0
C1148 C 0.47438 0.94575 0.37796 0.0
C1149 C 0.51148 0.96023 0.34716 0.0
C1150 C 0.51528 0.94673 0.37845 0.0
H1151 H 0.48945 0.97016 0.32148 0.0
H1152 H 0.52385 0.97095 0.3218 0.0
S1153 S 0.47687 0.90939 0.4721 0.0
N1154 N 0.46359 0.91956 0.4443 0.0
N1155 N 0.50052 0.92049 0.4449 0.0
C1156 C 0.49848 0.93324 0.41084 0.0
C1157 C 0.47826 0.93273 0.41054 0.0
C1158 C 0.58619 0.09202 0.65881 0.0
C1159 C 0.60562 0.11079 0.67024 0.0
C1160 C 0.56635 0.09159 0.65886 0.0
C1161 C 0.5649 0.10991 0.67036 0.0
H1162 H 0.58635 0.07759 0.64877 0.0
H1163 H 0.55207 0.07686 0.64881 0.0
S1164 S 0.61048 0.1624 0.70909 0.0
N1165 N 0.6216 0.14769 0.69749 0.0
N1166 N 0.58472 0.1469 0.69761 0.0
C1167 C 0.58412 0.1286 0.68317 0.0
C1168 C 0.60429 0.12903 0.68311 0.0
C1169 C 0.96379 0.47793 0.69216 0.0
C1170 C 0.95203 0.46172 0.65709 0.0
C1171 C 0.96415 0.49778 0.69141 0.0
C1172 C 0.95274 0.5024 0.65564 0.0
H1173 H 0.97246 0.47512 0.72111 0.0
H1174 H 0.97309 0.50944 0.71977 0.0
S1175 S 0.922 0.46687 0.55121 0.0
N1176 N 0.93045 0.45285 0.58252 0.0
N1177 N 0.93103 0.48963 0.58139 0.0
C1178 C 0.94152 0.48661 0.61948 0.0
C1179 C 0.9412 0.46649 0.62013 0.0
C1180 C 0.59607 0.48907 0.62926 0.0
C1181 C 0.60018 0.50571 0.66272 0.0
C1182 C 0.57646 0.46946 0.62935 0.0
C1183 C 0.55981 0.46534 0.66288 0.0
H1184 H 0.60807 0.49125 0.60226 0.0
H1185 H 0.57429 0.45747 0.6024 0.0
S1186 S 0.56272 0.50275 0.76092 0.0
N1187 N 0.58597 0.51607 0.73211 0.0
N1188 N 0.54942 0.47952 0.73229 0.0
C1189 C 0.56372 0.48177 0.6968 0.0
C1190 C 0.58373 0.50179 0.69671 0.0
C1191 C 0.78832 0.90764 0.73772 0.0
C1192 C 0.7776 0.91333 0.70239 0.0
C1193 C 0.78724 0.88754 0.73705 0.0
C1194 C 0.77541 0.87189 0.70095 0.0
H1195 H 0.7976 0.91881 0.7666 0.0
H1196 H 0.79576 0.88423 0.76546 0.0
S1197 S 0.74516 0.87884 0.59816 0.0
N1198 N 0.75513 0.90154 0.6291 0.0
N1199 N 0.75317 0.86403 0.62774 0.0
C1200 C 0.76452 0.87729 0.66539 0.0
C1201 C 0.76559 0.89784 0.66613 0.0
C1202 C 0.16477 0.86775 0.63354 0.0
C1203 C 0.15327 0.86723 0.67621 0.0
C1204 C 0.18555 0.88497 0.62366 0.0
C1205 C 0.19618 0.90254 0.65617 0.0
H1206 H 0.15743 0.85497 0.60672 0.0
H1207 H 0.19336 0.88453 0.58985 0.0
S1208 S 0.1739 0.90857 0.77498 0.0
N1209 N 0.15479 0.88558 0.75277 0.0
N1210 N 0.19353 0.91778 0.73403 0.0
C1211 C 0.18514 0.90196 0.69974 0.0
C1212 C 0.16383 0.88445 0.70968 0.0
C1213 C 0.18256 0.30053 0.67225 0.0
C1214 C 0.18832 0.29012 0.70841 0.0
C1215 C 0.16209 0.29887 0.6721 0.0
C1216 C 0.14635 0.28668 0.70802 0.0
H1217 H 0.19377 0.30962 0.64309 0.0
H1218 H 0.15839 0.30679 0.64288 0.0
S1219 S 0.15433 0.25909 0.81525 0.0
N1220 N 0.17705 0.26912 0.78424 0.0
N1221 N 0.13909 0.26594 0.7837 0.0
C1222 C 0.15225 0.27693 0.74535 0.0
C1223 C 0.17301 0.27865 0.74561 0.0
C1224 C 0.11651 0.43021 0.24441 0.0
C1225 C 0.10507 0.44125 0.23831 0.0
C1226 C 0.12158 0.42136 0.20392 0.0
C1227 C 0.11553 0.42341 0.15586 0.0
H1228 H 0.12242 0.42923 0.28062 0.0
H1229 H 0.13161 0.41434 0.20983 0.0
S1230 S 0.08375 0.44893 0.12053 0.0
N1231 N 0.0863 0.45196 0.18116 0.0
N1232 N 0.09615 0.43581 0.10479 0.0
C1233 C 0.10292 0.43316 0.14975 0.0
C1234 C 0.09753 0.44191 0.19106 0.0
C1235 C 0.60455 0.67839 0.17522 0.0
C1236 C 0.61198 0.66479 0.19287 0.0
C1237 C 0.61259 0.69055 0.1317 0.0
C1238 C 0.62814 0.68942 0.10282 0.0
H1239 H 0.5929 0.6804 0.19622 0.0
H1240 H 0.60691 0.70135 0.12123 0.0
S1241 S 0.65233 0.65551 0.13009 0.0
N1242 N 0.63546 0.65046 0.17634 0.0
N1243 N 0.65009 0.67273 0.09375 0.0
C1244 C 0.63498 0.67506 0.11837 0.0
C1245 C 0.62703 0.6629 0.16343 0.0
C1246 C 0.37723 0.95137 0.14515 0.0
C1247 C 0.35513 0.94452 0.14804 0.0
C1248 C 0.39057 0.95838 0.1871 0.0
C1249 C 0.38232 0.95871 0.23382 0.0
H1250 H 0.38422 0.95061 0.11027 0.0
H1251 H 0.40705 0.96218 0.18345 0.0
S1252 S 0.32639 0.94476 0.26131 0.0
N1253 N 0.32628 0.94055 0.20119 0.0
N1254 N 0.35112 0.95324 0.28019 0.0
C1255 C 0.36061 0.95315 0.23685 0.0
C1256 C 0.34709 0.94626 0.19396 0.0
C1257 C 0.46044 0.1042 0.89181 0.0
C1258 C 0.44545 0.11143 0.89304 0.0
C1259 C 0.46504 0.09669 0.84803 0.0
C1260 C 0.45512 0.09642 0.80318 0.0
H1261 H 0.46914 0.10477 0.92497 0.0
H1262 H 0.4773 0.09223 0.84882 0.0
S1263 S 0.41301 0.11123 0.7867 0.0
N1264 N 0.41931 0.11579 0.84594 0.0
N1265 N 0.42819 0.10225 0.76347 0.0
C1266 C 0.4393 0.10253 0.80432 0.0
C1267 C 0.43437 0.10983 0.84918 0.0
C1268 C 0.95745 0.3501 0.87757 0.0
C1269 C 0.93707 0.34339 0.89804 0.0
C1270 C 0.96524 0.36451 0.83705 0.0
C1271 C 0.95285 0.37256 0.81575 0.0
H1272 H 0.96763 0.34464 0.89367 0.0
H1273 H 0.98074 0.36888 0.8215 0.0
S1274 S 0.89852 0.35983 0.85546 0.0
N1275 N 0.90482 0.34593 0.89357 0.0
N1276 N 0.91928 0.37265 0.81819 0.0
C1277 C 0.93252 0.36587 0.83598 0.0
C1278 C 0.92469 0.3514 0.87685 0.0
C1279 C 0.72714 0.62002 0.85514 0.0
C1280 C 0.71789 0.62113 0.89989 0.0
C1281 C 0.71477 0.61222 0.81179 0.0
C1282 C 0.69267 0.60552 0.81087 0.0
H1283 H 0.74377 0.62414 0.85412 0.0
H1284 H 0.7226 0.61106 0.77873 0.0
S1285 S 0.66146 0.60791 0.91699 0.0
N1286 N 0.68565 0.61658 0.93979 0.0
N1287 N 0.66271 0.6025 0.85811 0.0
C1288 C 0.68358 0.60787 0.85461 0.0
C1289 C 0.69608 0.61546 0.89908 0.0
C1290 C 0.94756 0.62106 0.84532 0.0
C1291 C 0.95465 0.61845 0.89166 0.0
C1292 C 0.95255 0.61358 0.80224 0.0
C1293 C 0.96508 0.60354 0.80387 0.0
H1294 H 0.93698 0.62762 0.84267 0.0
H1295 H 0.94591 0.61501 0.76744 0.0
S1296 S 0.9899 0.59564 0.91574 0.0
N1297 N 0.97639 0.60694 0.93646 0.0
N1298 N 0.98622 0.5935 0.8552 0.0
C1299 C 0.97363 0.60239 0.8495 0.0
C1300 C 0.96824 0.60965 0.89349 0.0
C1301 C 0.44225 0.3386 0.85532 0.0
C1302 C 0.44588 0.34857 0.90168 0.0
C1303 C 0.44896 0.35078 0.81124 0.0
C1304 C 0.45919 0.37342 0.81133 0.0
H1305 H 0.43521 0.32139 0.85316 0.0
H1306 H 0.44657 0.34233 0.77664 0.0
S1307 S 0.47019 0.40717 0.92253 0.0
N1308 N 0.45892 0.3825 0.94461 0.0
N1309 N 0.471 0.40504 0.86182 0.0
C1310 C 0.46167 0.38347 0.85711 0.0
C1311 C 0.45519 0.37114 0.90214 0.0
C1312 C 0.69601 0.11095 0.90405 0.0
C1313 C 0.71782 0.11666 0.90579 0.0
C1314 C 0.68367 0.1025 0.86113 0.0
C1315 C 0.69272 0.09956 0.81821 0.0
H1316 H 0.68847 0.11362 0.93577 0.0
H1317 H 0.66743 0.0996 0.8606 0.0
S1318 S 0.74809 0.10946 0.80428 0.0
N1319 N 0.74714 0.11663 0.86185 0.0
N1320 N 0.72412 0.10126 0.78067 0.0
C1321 C 0.71405 0.10395 0.82015 0.0
C1322 C 0.72656 0.1123 0.86411 0.0
C1323 C 0.62897 0.96028 0.14989 0.0
C1324 C 0.64049 0.9495 0.15859 0.0
C1325 C 0.61994 0.966 0.18894 0.0
C1326 C 0.62172 0.96064 0.23791 0.0
H1327 H 0.62584 0.9632 0.11227 0.0
H1328 H 0.61019 0.97312 0.1804 0.0
S1329 S 0.65235 0.9348 0.28082 0.0
N1330 N 0.65507 0.93586 0.22 0.0
N1331 N 0.63763 0.94584 0.29342 0.0
C1332 C 0.63444 0.95119 0.24724 0.0
C1333 C 0.64398 0.94582 0.20757 0.0
C1334 C 0.12026 0.70159 0.23078 0.0
C1335 C 0.11175 0.67929 0.2256 0.0
C1336 C 0.12763 0.71549 0.18966 0.0
C1337 C 0.12728 0.7076 0.14212 0.0
H1338 H 0.12202 0.70844 0.26731 0.0
H1339 H 0.13486 0.73257 0.19557 0.0
S1340 S 0.1046 0.65036 0.10809 0.0
N1341 N 0.10157 0.64987 0.16877 0.0
N1342 N 0.11603 0.67581 0.09161 0.0
C1343 C 0.11777 0.6852 0.13623 0.0
C1344 C 0.1098 0.67107 0.17792 0.0
C1345 C 0.3833 0.46224 0.18671 0.0
C1346 C 0.40048 0.45875 0.1978 0.0
C1347 C 0.37195 0.45554 0.14199 0.0
C1348 C 0.37737 0.44534 0.1053 0.0
H1349 H 0.37796 0.4697 0.2135 0.0
H1350 H 0.3585 0.45805 0.13656 0.0
S1351 S 0.42172 0.43327 0.11361 0.0
N1352 N 0.42273 0.44489 0.16693 0.0
N1353 N 0.40183 0.43278 0.08222 0.0
C1354 C 0.39506 0.44245 0.11473 0.0
C1355 C 0.40645 0.449 0.16099 0.0
C1356 C 0.76887 0.77938 0.50106 0.0
C1357 C 0.77398 0.77553 0.54866 0.0
C1358 C 0.77675 0.77422 0.45871 0.0
C1359 C 0.78954 0.7645 0.46229 0.0
H1360 H 0.75991 0.78763 0.49651 0.0
H1361 H 0.77348 0.77862 0.42274 0.0
S1362 S 0.80492 0.74839 0.5783 0.0
N1363 N 0.7911 0.7597 0.59683 0.0
N1364 N 0.80509 0.7494 0.51719 0.0
C1365 C 0.79333 0.75907 0.50947 0.0
C1366 C 0.78579 0.76478 0.55262 0.0
C1367 C 0.28415 0.0462 0.52629 0.0
C1368 C 0.30491 0.06057 0.50816 0.0
C1369 C 0.28078 0.03373 0.56908 0.0
C1370 C 0.29799 0.0352 0.59657 0.0
H1371 H 0.27016 0.04385 0.5062 0.0
H1372 H 0.26449 1.0224 0.57991 0.0
S1373 S 0.35567 0.07132 0.56745 0.0
N1374 N 0.343 0.07612 0.52281 0.0
N1375 N 0.33683 0.05325 0.60369 0.0
C1376 C 0.3189 0.05033 0.58042 0.0
C1377 C 0.32232 0.06285 0.53628 0.0
C1378 C 0.05817 0.29023 0.51181 0.0
C1379 C 0.05014 0.28708 0.56016 0.0
C1380 C 0.04418 0.28246 0.47114 0.0
C1381 C 1.02171 0.27185 0.47719 0.0
H1382 H 0.07523 0.29752 0.50553 0.0
H1383 H 0.05104 0.28431 0.43454 0.0
S1384 S 0.99281 0.26134 0.5962 0.0
N1385 N 1.01833 0.27342 0.61192 0.0
N1386 N 0.9923 0.26004 0.53513 0.0
C1387 C 1.01358 0.26989 0.52508 0.0
C1388 C 1.02775 0.27717 0.56663 0.0
C1389 C 0.28345 0.28698 0.4655 0.0
C1390 C 0.29854 0.2799 0.46782 0.0
C1391 C 0.27835 0.29528 0.50711 0.0
C1392 C 0.28797 0.29664 0.553 0.0
H1393 H 0.27498 0.28556 0.43136 0.0
H1394 H 0.2659 0.29941 0.50398 0.0
S1395 S 0.33011 0.28271 0.57849 0.0
N1396 N 0.32446 0.27691 0.5193 0.0
N1397 N 0.31453 0.29192 0.59778 0.0
C1398 C 0.3039 0.29077 0.55537 0.0
C1399 C 0.30934 0.28262 0.51275 0.0
C1400 C 0.79331 1.00775 0.52296 0.0
C1401 C 0.77663 1.00512 0.55412 0.0
C1402 C 0.80169 1.02365 0.48651 0.0
C1403 C 0.79396 0.03796 0.47935 0.0
H1404 H 0.80042 0.99772 0.52772 0.0
H1405 H 0.81461 1.02477 0.46391 0.0
S1406 S 0.75063 0.03834 0.5525 0.0
N1407 N 0.75279 1.01842 0.57664 0.0
N1408 N 0.7684 0.04835 0.50719 0.0
C1409 C 0.77711 0.03551 0.51015 0.0
C1410 C 0.76845 1.01907 0.54758 0.0
C1411 C 0.04543 0.76216 0.52493 0.0
C1412 C 0.05489 0.78282 0.54574 0.0
C1413 C 1.02958 0.75572 0.4877 0.0
C1414 C 1.02269 0.76974 0.47025 0.0
H1415 H 0.0499 0.75078 0.53828 0.0
H1416 H 1.02312 0.73995 0.47161 0.0
S1417 S 0.04279 0.82557 0.51181 0.0
N1418 N 0.05645 0.81726 0.54489 0.0
N1419 N 1.0268 0.80515 0.47648 0.0
C1420 C 1.03217 0.79036 0.49074 0.0
C1421 C 0.04822 0.7969 0.52794 0.0
C1422 C 0.1109 0.35076 0.90294 0.0
C1423 C 0.12358 0.37295 0.89626 0.0
C1424 C 0.10406 0.33683 0.8624 0.0
C1425 C 0.10948 0.34443 0.81323 0.0
H1426 H 0.1059 0.34406 0.93971 0.0
H1427 H 0.09406 0.31988 0.86995 0.0
S1428 S 0.14344 0.4011 0.77536 0.0
N1429 N 0.14221 0.40192 0.83625 0.0
N1430 N 0.12905 0.37557 0.76046 0.0
C1431 C 0.12254 0.36653 0.80596 0.0
C1432 C 0.12965 0.38079 0.84731 0.0
C1433 C 0.68809 0.7828 0.85078 0.0
C1434 C 0.6822 0.76444 0.88007 0.0
C1435 C 0.69856 0.78587 0.80503 0.0
C1436 C 0.70356 0.7707 0.78672 0.0
H1437 H 0.68592 0.79563 0.8649 0.0
H1438 H 0.70449 0.80107 0.78612 0.0
S1439 S 0.69015 0.71912 0.84636 0.0
N1440 N 0.68064 0.73006 0.88497 0.0
N1441 N 0.70062 0.73605 0.79953 0.0
C1442 C 0.69637 0.75159 0.8137 0.0
C1443 C 0.68554 0.74836 0.86015 0.0
C1444 C 0.30795 0.95947 0.85893 0.0
C1445 C 0.2954 0.95029 0.90161 0.0
C1446 C 0.3006 0.96645 0.81897 0.0
C1447 C 0.28014 0.96438 0.81919 0.0
H1448 H 0.32353 0.96079 0.8557 0.0
H1449 H 0.31089 0.97282 0.78682 0.0
S1450 S 0.24143 0.94279 0.92384 0.0
N1451 N 0.26203 0.94073 0.9433 0.0
N1452 N 0.24788 0.95358 0.86796 0.0
C1453 C 0.26773 0.95612 0.86276 0.0
C1454 C 0.27543 0.94918 0.90396 0.0
C1455 C 0.36876 0.10593 0.14582 0.0
C1456 C 0.39079 0.11909 0.15429 0.0
C1457 C 0.35389 0.09929 0.18499 0.0
C1458 C 0.36027 0.10543 0.23464 0.0
H1459 H 0.36295 0.10033 0.1088 0.0
H1460 H 0.33716 0.0889 0.17609 0.0
S1461 S 0.41596 0.14095 0.27685 0.0
N1462 N 0.41815 0.13897 0.21655 0.0
N1463 N 0.39019 0.12625 0.28939 0.0
C1464 C 0.38217 0.11898 0.24352 0.0
C1465 C 0.39737 0.12585 0.20366 0.0
C1466 C 0.95029 0.28188 0.23956 0.0
C1467 C 0.95858 0.26851 0.22785 0.0
C1468 C 0.94277 0.29008 0.20243 0.0
C1469 C 0.94326 0.28536 0.15186 0.0
H1470 H 0.95006 0.2865 0.27757 0.0
H1471 H 0.93694 0.30064 0.2137 0.0
S1472 S 0.96172 0.24965 0.10152 0.0
N1473 N 0.96549 0.24973 0.16178 0.0
N1474 N 0.95159 0.26543 0.09249 0.0
C1475 C 0.95087 0.27149 0.13969 0.0
C1476 C 0.95844 0.263 0.17751 0.0
C1477 C 0.80687 0.69896 0.20999 0.0
C1478 C 0.80242 0.7156 0.20341 0.0
C1479 C 0.80477 0.68537 0.17067 0.0
C1480 C 0.79778 0.6876 0.12323 0.0
H1481 H 0.81223 0.69653 0.24562 0.0
H1482 H 0.80818 0.67262 0.17805 0.0
S1483 S 0.78371 0.72866 0.08717 0.0
N1484 N 0.79079 0.73377 0.14586 0.0
N1485 N 0.78637 0.70792 0.0725 0.0
C1486 C 0.79348 0.70437 0.1161 0.0
C1487 C 0.79584 0.71837 0.15605 0.0
C1488 C 0.95509 0.6866 0.23071 0.0
C1489 C 0.96202 0.70809 0.21947 0.0
C1490 C 0.94886 0.67124 0.19315 0.0
C1491 C 0.94934 0.67669 0.14267 0.0
H1492 H 0.95514 0.68169 0.26861 0.0
H1493 H 0.94415 0.65501 0.20397 0.0
S1494 S 0.96395 0.73035 0.0938 0.0
N1495 N 0.96724 0.73373 0.15421 0.0
N1496 N 0.95579 0.70483 0.084 0.0
C1497 C 0.95542 0.69794 0.13104 0.0
C1498 C 0.96165 0.7136 0.16931 0.0
C1499 C 0.35003 0.26884 0.16778 0.0
C1500 C 0.35453 0.2666 0.21768 0.0
C1501 C 0.36448 0.27202 0.1294 0.0
C1502 C 0.38406 0.27303 0.13918 0.0
H1503 H 0.33535 0.26861 0.15821 0.0
H1504 H 0.36056 0.27437 0.09211 0.0
S1505 S 0.40235 0.26541 0.26268 0.0
N1506 N 0.37918 0.26391 0.27407 0.0
N1507 N 0.40624 0.26947 0.20248 0.0
C1508 C 0.38828 0.26977 0.18873 0.0
C1509 C 0.37362 0.26676 0.22781 0.0
C1510 C 0.79653 0.10488 0.18989 0.0
C1511 C 0.79182 0.10541 0.24047 0.0
C1512 C 0.7884 0.11241 0.15275 0.0
C1513 C 0.77531 0.121 0.16445 0.0
H1514 H 0.8063 0.09816 0.17839 0.0
H1515 H 0.79223 0.11124 0.11454 0.0
S1516 S 0.75897 0.12718 0.29137 0.0
N1517 N 0.77379 0.11597 0.30028 0.0
N1518 N 0.7586 0.13038 0.23093 0.0
C1519 C 0.77096 0.12227 0.21506 0.0
C1520 C 0.77919 0.11444 0.25291 0.0
C1521 C 0.72871 0.9581 0.86669 0.0
C1522 C 0.72108 0.95452 0.81747 0.0
C1523 C 0.71482 0.95255 0.90734 0.0
C1524 C 0.69265 0.94307 0.90061 0.0
H1525 H 0.74568 0.96552 0.87419 0.0
H1526 H 0.72154 0.95579 0.94426 0.0
S1527 S 0.66433 0.93 0.77933 0.0
N1528 N 0.68983 0.9407 0.76451 0.0
N1529 N 0.6636 0.93014 0.84036 0.0
C1530 C 0.68473 0.93913 0.85151 0.0
C1531 C 0.69894 0.94487 0.81015 0.0
C1532 C 0.12477 0.76828 0.79627 0.0
C1533 C 0.10972 0.77492 0.80317 0.0
C1534 C 0.13336 0.76294 0.83686 0.0
C1535 C 0.12718 0.76386 0.88609 0.0
H1536 H 0.13012 0.76742 0.75935 0.0
H1537 H 0.14491 0.7579 0.82933 0.0
S1538 S 0.08752 0.77937 0.92424 0.0
N1539 N 0.08848 0.78154 0.86336 0.0
N1540 N 0.10469 0.77151 0.939 0.0
C1541 C 0.11208 0.77038 0.89348 0.0
C1542 C 0.10333 0.77586 0.85224 0.0
C1543 C 0.31338 0.37238 0.79745 0.0
C1544 C 0.292 0.36692 0.78912 0.0
C1545 C 0.32431 0.38332 0.84068 0.0
C1546 C 0.31444 0.38956 0.87695 0.0
H1547 H 0.32114 0.36662 0.77252 0.0
H1548 H 0.34026 0.38591 0.84689 0.0
S1549 S 0.25945 0.38137 0.86912 0.0
N1550 N 0.26198 0.37011 0.8184 0.0
N1551 N 0.28254 0.3912 0.89835 0.0
C1552 C 0.29365 0.38572 0.86678 0.0
C1553 C 0.28243 0.37424 0.8233 0.0
C1554 C 0.05528 0.44786 0.53786 0.0
C1555 C 0.05005 0.44895 0.48793 0.0
C1556 C 0.03975 0.4405 0.57544 0.0
C1557 C 1.01835 0.434 0.56468 0.0
H1558 H 0.07145 0.45216 0.54808 0.0
H1559 H 0.04445 0.43924 0.61281 0.0
S1560 S 0.99676 0.43617 0.44092 0.0
N1561 N 1.02227 0.44449 0.43058 0.0
N1562 N 0.99308 0.431 0.50079 0.0
C1563 C 1.01309 0.43598 0.51521 0.0
C1564 C 1.02891 0.44333 0.47697 0.0
C1565 C 0.6353 0.5987 0.50132 0.0
C1566 C 0.6328 0.60283 0.55138 0.0
C1567 C 0.62886 0.60692 0.46177 0.0
C1568 C 0.6195 0.61963 0.4702 0.0
H1569 H 0.64263 0.58921 0.49223 0.0
H1570 H 0.63143 0.60341 0.42429 0.0
S1571 S 0.60854 0.63467 0.59425 0.0
N1572 N 0.61978 0.62014 0.60683 0.0
N1573 N 0.6075 0.63548 0.53331 0.0
C1574 C 0.61651 0.62358 0.52019 0.0
C1575 C 0.62318 0.61523 0.56044 0.0
C1576 C 0.47758 0.04094 0.51999 0.0
C1577 C 0.471 0.03607 0.56996 0.0
C1578 C 0.46626 0.02677 0.48142 0.0
C1579 C 0.44804 1.00691 0.49112 0.0
H1580 H 0.49128 0.05624 0.51009 0.0
H1581 H 0.47176 0.03151 0.44374 0.0
S1582 S 0.42456 0.98572 0.61552 0.0
N1583 N 0.44534 1.00957 0.62685 0.0
N1584 N 0.42436 0.98259 0.55501 0.0
C1585 C 0.44175 1.00138 0.54113 0.0
C1586 C 0.45316 1.01599 0.58035 0.0
C1587 C 0.6252 0.03455 0.47538 0.0
C1588 C 0.61067 1.01299 0.48598 0.0
C1589 C 0.63459 0.0496 0.51341 0.0
C1590 C 0.62994 0.04374 0.56376 0.0
H1591 H 0.62991 0.0398 0.43754 0.0
H1592 H 0.64608 0.0659 0.50297 0.0
S1593 S 0.59115 0.98973 0.61133 0.0
N1594 N 0.59064 0.98682 0.55068 0.0
N1595 N 0.6086 1.01517 0.62184 0.0
C1596 C 0.61479 1.02243 0.57487 0.0
C1597 C 0.60508 1.00707 0.5361 0.0
C1598 C 0.04114 0.60924 0.56028 0.0
C1599 C 1.01932 0.59691 0.54881 0.0
C1600 C 0.05671 0.61749 0.52287 0.0
C1601 C 0.05118 0.61388 0.47222 0.0
H1602 H 0.04627 0.61304 0.59841 0.0
H1603 H 0.07325 0.62726 0.53406 0.0
S1604 S 0.99638 0.58105 0.42218 0.0
N1605 N 0.99304 0.58019 0.48274 0.0
N1606 N 1.02239 0.596 0.41285 0.0
C1607 C 1.0295 0.60095 0.46019 0.0
C1608 C 1.01359 0.5924 0.49832 0.0
C1609 C 0.44284 0.44894 0.51862 0.0
C1610 C 0.44886 0.44854 0.46889 0.0
C1611 C 0.45078 0.44225 0.55832 0.0
C1612 C 0.4652 0.43486 0.55031 0.0
H1613 H 0.4315 0.45414 0.52721 0.0
H1614 H 0.44512 0.44237 0.59538 0.0
S1615 S 0.48755 0.4322 0.42784 0.0
N1616 N 0.47108 0.44113 0.4146 0.0
N1617 N 0.48624 0.42881 0.48845 0.0
C1618 C 0.47189 0.43499 0.50087 0.0
C1619 C 0.46368 0.44172 0.46046 0.0
loop_
_geom_bond_atom_site_label_1
_geom_bond_atom_site_label_2
_geom_bond_distance
_geom_bond_site_symmetry_2
_ccdc_geom_bond_type
Cu0 N1 1.999 . S
Cu0 O6 1.974 . S
Cu0 N11 1.985 . S
Cu0 O20 1.959 1_554 S
N1 Cu0 1.999 . S
N1 C3 1.263 . S
N1 C5 1.389 1_554 S
N2 C3 1.358 . S
N2 C4 1.400 1_554 S
C3 N1 1.263 . S
C3 N2 1.358 . S
C3 H9 0.930 . S
C4 N2 1.400 1_556 S
C4 C5 1.351 . S
C4 H21 0.930 . S
C5 N1 1.389 1_556 S
C5 C4 1.351 . S
C5 H10 0.930 . S
O6 Cu0 1.974 . S
O6 C16 1.282 . S
C7 O8 1.261 . S
C7 O20 1.251 . S
O8 C7 1.261 . S
H9 C3 0.930 . S
H10 C5 0.930 . S
N11 Cu0 1.985 . S
N11 C13 1.335 1_554 S
N11 C14 1.390 . S
N12 C13 1.341 1_554 S
N12 C15 1.349 . S
C13 N11 1.335 1_556 S
C13 N12 1.341 1_556 S
C13 H18 0.930 . S
C14 N11 1.390 . S
C14 C15 1.346 . S
C14 H19 0.930 . S
C15 N12 1.349 . S
C15 C14 1.346 . S
C15 H22 0.929 . S
C16 O6 1.282 . S
C16 O17 1.216 . S
O17 C16 1.216 . S
H18 C13 0.930 . S
H19 C14 0.930 . S
O20 Cu0 1.959 1_556 S
O20 C7 1.251 . S
H21 C4 0.930 . S
H22 C15 0.929 . S
Cu23 N24 1.999 . S
Cu23 O29 1.974 . S
Cu23 N34 1.985 . S
Cu23 O43 1.959 1_554 S
N24 Cu23 1.999 . S
N24 C26 1.263 . S
N24 C28 1.389 1_554 S
N25 C26 1.358 . S
N25 C27 1.400 1_554 S
C26 N24 1.263 . S
C26 N25 1.358 . S
C26 H32 0.930 . S
C27 N25 1.400 1_556 S
C27 C28 1.351 . S
C27 H44 0.930 . S
C28 N24 1.389 1_556 S
C28 C27 1.351 . S
C28 H33 0.930 . S
O29 Cu23 1.974 . S
O29 C39 1.282 . S
C30 O31 1.261 . S
C30 O43 1.251 . S
O31 C30 1.261 . S
H32 C26 0.930 . S
H33 C28 0.930 . S
N34 Cu23 1.985 . S
N34 C36 1.335 1_554 S
N34 C37 1.390 . S
N35 C36 1.341 1_554 S
N35 C38 1.349 . S
C36 N34 1.335 1_556 S
C36 N35 1.341 1_556 S
C36 H41 0.930 . S
C37 N34 1.390 . S
C37 C38 1.346 . S
C37 H42 0.930 . S
C38 N35 1.349 . S
C38 C37 1.346 . S
C38 H45 0.929 . S
C39 O29 1.282 . S
C39 O40 1.216 . S
O40 C39 1.216 . S
H41 C36 0.930 . S
H42 C37 0.930 . S
O43 Cu23 1.959 1_556 S
O43 C30 1.251 . S
H44 C27 0.930 . S
H45 C38 0.929 . S
Cu46 N47 1.999 . S
Cu46 O52 1.974 . S
Cu46 N57 1.985 . S
Cu46 O66 1.959 1_554 S
N47 Cu46 1.999 . S
N47 C49 1.263 . S
N47 C51 1.389 1_554 S
N48 C49 1.358 . S
N48 C50 1.400 1_554 S
C49 N47 1.263 . S
C49 N48 1.358 . S
C49 H55 0.930 . S
C50 N48 1.400 1_556 S
C50 C51 1.351 . S
C50 H67 0.930 . S
C51 N47 1.389 1_556 S
C51 C50 1.351 . S
C51 H56 0.930 . S
O52 Cu46 1.974 . S
O52 C62 1.282 . S
C53 O54 1.261 . S
C53 O66 1.251 . S
O54 C53 1.261 . S
H55 C49 0.930 . S
H56 C51 0.930 . S
N57 Cu46 1.985 . S
N57 C59 1.335 1_554 S
N57 C60 1.390 . S
N58 C59 1.341 1_554 S
N58 C61 1.349 . S
C59 N57 1.335 1_556 S
C59 N58 1.341 1_556 S
C59 H64 0.930 . S
C60 N57 1.390 . S
C60 C61 1.346 . S
C60 H65 0.930 . S
C61 N58 1.349 . S
C61 C60 1.346 . S
C61 H68 0.929 . S
C62 O52 1.282 . S
C62 O63 1.216 . S
O63 C62 1.216 . S
H64 C59 0.930 . S
H65 C60 0.930 . S
O66 Cu46 1.959 1_556 S
O66 C53 1.251 . S
H67 C50 0.930 . S
H68 C61 0.929 . S
Cu69 N70 1.999 . S
Cu69 O75 1.974 . S
Cu69 N80 1.985 . S
Cu69 O89 1.959 1_556 S
N70 Cu69 1.999 . S
N70 C72 1.263 . S
N70 C74 1.389 1_556 S
N71 C72 1.358 . S
N71 C73 1.400 1_556 S
C72 N70 1.263 . S
C72 N71 1.358 . S
C72 H78 0.930 . S
C73 N71 1.400 1_554 S
C73 C74 1.351 . S
C73 H90 0.930 . S
C74 N70 1.389 1_554 S
C74 C73 1.351 . S
C74 H79 0.930 . S
O75 Cu69 1.974 . S
O75 C85 1.282 . S
C76 O77 1.261 . S
C76 O89 1.251 . S
O77 C76 1.261 . S
H78 C72 0.930 . S
H79 C74 0.930 . S
N80 Cu69 1.985 . S
N80 C82 1.335 1_556 S
N80 C83 1.390 . S
N81 C82 1.341 1_556 S
N81 C84 1.349 . S
C82 N80 1.335 1_554 S
C82 N81 1.341 1_554 S
C82 H87 0.930 . S
C83 N80 1.390 . S
C83 C84 1.346 . S
C83 H88 0.930 . S
C84 N81 1.349 . S
C84 C83 1.346 . S
C84 H91 0.929 . S
C85 O75 1.282 . S
C85 O86 1.216 . S
O86 C85 1.216 . S
H87 C82 0.930 . S
H88 C83 0.930 . S
O89 Cu69 1.959 1_554 S
O89 C76 1.251 . S
H90 C73 0.930 . S
H91 C84 0.929 . S
Cu92 N93 1.999 . S
Cu92 O98 1.974 . S
Cu92 N103 1.985 . S
Cu92 O112 1.959 1_556 S
N93 Cu92 1.999 . S
N93 C95 1.263 . S
N93 C97 1.389 1_556 S
N94 C95 1.358 . S
N94 C96 1.400 1_556 S
C95 N93 1.263 . S
C95 N94 1.358 . S
C95 H101 0.930 . S
C96 N94 1.400 1_554 S
C96 C97 1.351 . S
C96 H113 0.930 . S
C97 N93 1.389 1_554 S
C97 C96 1.351 . S
C97 H102 0.930 . S
O98 Cu92 1.974 . S
O98 C108 1.282 . S
C99 O100 1.261 . S
C99 O112 1.251 . S
O100 C99 1.261 . S
H101 C95 0.930 . S
H102 C97 0.930 . S
N103 Cu92 1.985 . S
N103 C105 1.335 1_556 S
N103 C106 1.390 . S
N104 C105 1.341 1_556 S
N104 C107 1.349 . S
C105 N103 1.335 1_554 S
C105 N104 1.341 1_554 S
C105 H110 0.930 . S
C106 N103 1.390 . S
C106 C107 1.346 . S
C106 H111 0.930 . S
C107 N104 1.349 . S
C107 C106 1.346 . S
C107 H114 0.929 . S
C108 O98 1.282 . S
C108 O109 1.216 . S
O109 C108 1.216 . S
H110 C105 0.930 . S
H111 C106 0.930 . S
O112 Cu92 1.959 1_554 S
O112 C99 1.251 . S
H113 C96 0.930 . S
H114 C107 0.929 . S
Cu115 N116 1.999 . S
Cu115 O121 1.974 . S
Cu115 N126 1.985 . S
Cu115 O135 1.959 1_556 S
N116 Cu115 1.999 . S
N116 C118 1.263 . S
N116 C120 1.389 1_556 S
N117 C118 1.358 . S
N117 C119 1.400 1_556 S
C118 N116 1.263 . S
C118 N117 1.358 . S
C118 H124 0.930 . S
C119 N117 1.400 1_554 S
C119 C120 1.351 . S
C119 H136 0.930 . S
C120 N116 1.389 1_554 S
C120 C119 1.351 . S
C120 H125 0.930 . S
O121 Cu115 1.974 . S
O121 C131 1.282 . S
C122 O123 1.261 . S
C122 O135 1.251 . S
O123 C122 1.261 . S
H124 C118 0.930 . S
H125 C120 0.930 . S
N126 Cu115 1.985 . S
N126 C128 1.335 1_556 S
N126 C129 1.390 . S
N127 C128 1.341 1_556 S
N127 C130 1.349 . S
C128 N126 1.335 1_554 S
C128 N127 1.341 1_554 S
C128 H133 0.930 . S
C129 N126 1.390 . S
C129 C130 1.346 . S
C129 H134 0.930 . S
C130 N127 1.349 . S
C130 C129 1.346 . S
C130 H137 0.929 . S
C131 O121 1.282 . S
C131 O132 1.216 . S
O132 C131 1.216 . S
H133 C128 0.930 . S
H134 C129 0.930 . S
O135 Cu115 1.959 1_554 S
O135 C122 1.251 . S
H136 C119 0.930 . S
H137 C130 0.929 . S
Cu138 N139 1.999 . S
Cu138 O144 1.974 . S
Cu138 N149 1.985 . S
Cu138 O158 1.959 1_556 S
N139 Cu138 1.999 . S
N139 C141 1.263 . S
N139 C143 1.389 1_556 S
N140 C141 1.358 . S
N140 C142 1.400 1_556 S
C141 N139 1.263 . S
C141 N140 1.358 . S
C141 H147 0.930 . S
C142 N140 1.400 1_554 S
C142 C143 1.351 . S
C142 H159 0.930 . S
C143 N139 1.389 1_554 S
C143 C142 1.351 . S
C143 H148 0.930 . S
O144 Cu138 1.974 . S
O144 C154 1.282 . S
C145 O146 1.261 . S
C145 O158 1.251 . S
O146 C145 1.261 . S
H147 C141 0.930 . S
H148 C143 0.930 . S
N149 Cu138 1.985 . S
N149 C151 1.335 1_556 S
N149 C152 1.390 . S
N150 C151 1.341 1_556 S
N150 C153 1.349 . S
C151 N149 1.335 1_554 S
C151 N150 1.341 1_554 S
C151 H156 0.930 . S
C152 N149 1.390 . S
C152 C153 1.346 . S
C152 H157 0.930 . S
C153 N150 1.349 . S
C153 C152 1.346 . S
C153 H160 0.929 . S
C154 O144 1.282 . S
C154 O155 1.216 . S
O155 C154 1.216 . S
H156 C151 0.930 . S
H157 C152 0.930 . S
O158 Cu138 1.959 1_554 S
O158 C145 1.251 . S
H159 C142 0.930 . S
H160 C153 0.929 . S
Cu161 N162 1.999 . S
Cu161 O167 1.974 . S
Cu161 N172 1.985 . S
Cu161 O181 1.959 1_556 S
N162 Cu161 1.999 . S
N162 C164 1.263 . S
N162 C166 1.389 1_556 S
N163 C164 1.358 . S
N163 C165 1.400 1_556 S
C164 N162 1.263 . S
C164 N163 1.358 . S
C164 H170 0.930 . S
C165 N163 1.400 1_554 S
C165 C166 1.351 . S
C165 H182 0.930 . S
C166 N162 1.389 1_554 S
C166 C165 1.351 . S
C166 H171 0.930 . S
O167 Cu161 1.974 . S
O167 C177 1.282 . S
C168 O169 1.261 . S
C168 O181 1.251 . S
O169 C168 1.261 . S
H170 C164 0.930 . S
H171 C166 0.930 . S
N172 Cu161 1.985 . S
N172 C174 1.335 1_556 S
N172 C175 1.390 . S
N173 C174 1.341 1_556 S
N173 C176 1.349 . S
C174 N172 1.335 1_554 S
C174 N173 1.341 1_554 S
C174 H179 0.930 . S
C175 N172 1.390 . S
C175 C176 1.346 . S
C175 H180 0.930 . S
C176 N173 1.349 . S
C176 C175 1.346 . S
C176 H183 0.929 . S
C177 O167 1.282 . S
C177 O178 1.216 . S
O178 C177 1.216 . S
H179 C174 0.930 . S
H180 C175 0.930 . S
O181 Cu161 1.959 1_554 S
O181 C168 1.251 . S
H182 C165 0.930 . S
H183 C176 0.929 . S
Cu184 N185 1.999 . S
Cu184 O190 1.974 . S
Cu184 N195 1.985 . S
Cu184 O204 1.959 1_556 S
N185 Cu184 1.999 . S
N185 C187 1.263 . S
N185 C189 1.389 1_556 S
N186 C187 1.358 . S
N186 C188 1.400 1_556 S
C187 N185 1.263 . S
C187 N186 1.358 . S
C187 H193 0.930 . S
C188 N186 1.400 1_554 S
C188 C189 1.351 . S
C188 H205 0.930 . S
C189 N185 1.389 1_554 S
C189 C188 1.351 . S
C189 H194 0.930 . S
O190 Cu184 1.974 . S
O190 C200 1.282 . S
C191 O192 1.261 . S
C191 O204 1.251 . S
O192 C191 1.261 . S
H193 C187 0.930 . S
H194 C189 0.930 . S
N195 Cu184 1.985 . S
N195 C197 1.335 1_556 S
N195 C198 1.390 . S
N196 C197 1.341 1_556 S
N196 C199 1.349 . S
C197 N195 1.335 1_554 S
C197 N196 1.341 1_554 S
C197 H202 0.930 . S
C198 N195 1.390 . S
C198 C199 1.346 . S
C198 H203 0.930 . S
C199 N196 1.349 . S
C199 C198 1.346 . S
C199 H206 0.929 . S
C200 O190 1.282 . S
C200 O201 1.216 . S
O201 C200 1.216 . S
H202 C197 0.930 . S
H203 C198 0.930 . S
O204 Cu184 1.959 1_554 S
O204 C191 1.251 . S
H205 C188 0.930 . S
H206 C199 0.929 . S
Cu207 N208 1.999 . S
Cu207 O213 1.974 . S
Cu207 N218 1.985 . S
Cu207 O227 1.959 1_554 S
N208 Cu207 1.999 . S
N208 C210 1.263 . S
N208 C212 1.389 1_554 S
N209 C210 1.358 . S
N209 C211 1.400 1_554 S
C210 N208 1.263 . S
C210 N209 1.358 . S
C210 H216 0.930 . S
C211 N209 1.400 1_556 S
C211 C212 1.351 . S
C211 H228 0.930 . S
C212 N208 1.389 1_556 S
C212 C211 1.351 . S
C212 H217 0.930 . S
O213 Cu207 1.974 . S
O213 C223 1.282 . S
C214 O215 1.261 . S
C214 O227 1.251 . S
O215 C214 1.261 . S
H216 C210 0.930 . S
H217 C212 0.930 . S
N218 Cu207 1.985 . S
N218 C220 1.335 1_554 S
N218 C221 1.390 . S
N219 C220 1.341 1_554 S
N219 C222 1.349 . S
C220 N218 1.335 1_556 S
C220 N219 1.341 1_556 S
C220 H225 0.930 . S
C221 N218 1.390 . S
C221 C222 1.346 . S
C221 H226 0.930 . S
C222 N219 1.349 . S
C222 C221 1.346 . S
C222 H229 0.929 . S
C223 O213 1.282 . S
C223 O224 1.216 . S
O224 C223 1.216 . S
H225 C220 0.930 . S
H226 C221 0.930 . S
O227 Cu207 1.959 1_556 S
O227 C214 1.251 . S
H228 C211 0.930 . S
H229 C222 0.929 . S
Cu230 N231 1.999 . S
Cu230 O236 1.974 . S
Cu230 N241 1.985 . S
Cu230 O250 1.959 1_554 S
N231 Cu230 1.999 . S
N231 C233 1.263 . S
N231 C235 1.389 1_554 S
N232 C233 1.358 . S
N232 C234 1.400 1_554 S
C233 N231 1.263 . S
C233 N232 1.358 . S
C233 H239 0.930 . S
C234 N232 1.400 1_556 S
C234 C235 1.351 . S
C234 H251 0.930 . S
C235 N231 1.389 1_556 S
C235 C234 1.351 . S
C235 H240 0.930 . S
O236 Cu230 1.974 . S
O236 C246 1.282 . S
C237 O238 1.261 . S
C237 O250 1.251 . S
O238 C237 1.261 . S
H239 C233 0.930 . S
H240 C235 0.930 . S
N241 Cu230 1.985 . S
N241 C243 1.335 1_554 S
N241 C244 1.390 . S
N242 C243 1.341 1_554 S
N242 C245 1.349 . S
C243 N241 1.335 1_556 S
C243 N242 1.341 1_556 S
C243 H248 0.930 . S
C244 N241 1.390 . S
C244 C245 1.346 . S
C244 H249 0.930 . S
C245 N242 1.349 . S
C245 C244 1.346 . S
C245 H252 0.929 . S
C246 O236 1.282 . S
C246 O247 1.216 . S
O247 C246 1.216 . S
H248 C243 0.930 . S
H249 C244 0.930 . S
O250 Cu230 1.959 1_556 S
O250 C237 1.251 . S
H251 C234 0.930 . S
H252 C245 0.929 . S
Cu253 N254 1.999 . S
Cu253 O259 1.974 . S
Cu253 N264 1.985 . S
Cu253 O273 1.959 1_554 S
N254 Cu253 1.999 . S
N254 C256 1.263 . S
N254 C258 1.389 1_554 S
N255 C256 1.358 . S
N255 C257 1.400 1_554 S
C256 N254 1.263 . S
C256 N255 1.358 . S
C256 H262 0.930 . S
C257 N255 1.400 1_556 S
C257 C258 1.351 . S
C257 H274 0.930 . S
C258 N254 1.389 1_556 S
C258 C257 1.351 . S
C258 H263 0.930 . S
O259 Cu253 1.974 . S
O259 C269 1.282 . S
C260 O261 1.261 . S
C260 O273 1.251 . S
O261 C260 1.261 . S
H262 C256 0.930 . S
H263 C258 0.930 . S
N264 Cu253 1.985 . S
N264 C266 1.335 1_554 S
N264 C267 1.390 . S
N265 C266 1.341 1_554 S
N265 C268 1.349 . S
C266 N264 1.335 1_556 S
C266 N265 1.341 1_556 S
C266 H271 0.930 . S
C267 N264 1.390 . S
C267 C268 1.346 . S
C267 H272 0.930 . S
C268 N265 1.349 . S
C268 C267 1.346 . S
C268 H275 0.929 . S
C269 O259 1.282 . S
C269 O270 1.216 . S
O270 C269 1.216 . S
H271 C266 0.930 . S
H272 C267 0.930 . S
O273 Cu253 1.959 1_556 S
O273 C260 1.251 . S
H274 C257 0.930 . S
H275 C268 0.929 . S
Cu276 N277 1.999 . S
Cu276 O282 1.974 . S
Cu276 N287 1.985 . S
Cu276 O296 1.959 . S
N277 Cu276 1.999 . S
N277 C279 1.263 . S
N277 C281 1.389 . S
N278 C279 1.358 . S
N278 C280 1.400 . S
C279 N277 1.263 . S
C279 N278 1.358 . S
C279 H285 0.930 . S
C280 N278 1.400 . S
C280 C281 1.351 . S
C280 H297 0.930 . S
C281 N277 1.389 . S
C281 C280 1.351 . S
C281 H286 0.930 . S
O282 Cu276 1.974 . S
O282 C292 1.282 . S
C283 O284 1.261 . S
C283 O296 1.251 . S
O284 C283 1.261 . S
H285 C279 0.930 . S
H286 C281 0.930 . S
N287 Cu276 1.985 . S
N287 C289 1.335 . S
N287 C290 1.390 . S
N288 C289 1.345 . S
N288 C291 1.336 . S
C289 N287 1.335 . S
C289 N288 1.345 . S
C289 H294 0.930 . S
C290 N287 1.390 . S
C290 C291 1.346 . S
C290 H295 0.930 . S
C291 N288 1.336 . S
C291 C290 1.346 . S
C291 H298 0.929 . S
C292 O282 1.282 . S
C292 O293 1.216 . S
O293 C292 1.216 . S
H294 C289 0.930 . S
H295 C290 0.930 . S
O296 Cu276 1.959 . S
O296 C283 1.251 . S
H297 C280 0.930 . S
H298 C291 0.929 . S
Cu299 N300 1.999 . S
Cu299 O305 1.974 . S
Cu299 N310 1.985 . S
Cu299 O319 1.959 . S
N300 Cu299 1.999 . S
N300 C302 1.263 . S
N300 C304 1.389 . S
N301 C302 1.358 . S
N301 C303 1.400 . S
C302 N300 1.263 . S
C302 N301 1.358 . S
C302 H308 0.930 . S
C303 N301 1.400 . S
C303 C304 1.351 . S
C303 H320 0.930 . S
C304 N300 1.389 . S
C304 C303 1.351 . S
C304 H309 0.930 . S
O305 Cu299 1.974 . S
O305 C315 1.282 . S
C306 O307 1.261 . S
C306 O319 1.251 . S
O307 C306 1.261 . S
H308 C302 0.930 . S
H309 C304 0.930 . S
N310 Cu299 1.985 . S
N310 C312 1.335 . S
N310 C313 1.390 . S
N311 C312 1.345 . S
N311 C314 1.336 . S
C312 N310 1.335 . S
C312 N311 1.345 . S
C312 H317 0.930 . S
C313 N310 1.390 . S
C313 C314 1.346 . S
C313 H318 0.930 . S
C314 N311 1.336 . S
C314 C313 1.346 . S
C314 H321 0.929 . S
C315 O305 1.282 . S
C315 O316 1.216 . S
O316 C315 1.216 . S
H317 C312 0.930 . S
H318 C313 0.930 . S
O319 Cu299 1.959 . S
O319 C306 1.251 . S
H320 C303 0.930 . S
H321 C314 0.929 . S
Cu322 N323 1.999 . S
Cu322 O328 1.974 . S
Cu322 N333 1.985 . S
Cu322 O342 1.959 . S
N323 Cu322 1.999 . S
N323 C325 1.263 . S
N323 C327 1.389 . S
N324 C325 1.358 . S
N324 C326 1.400 . S
C325 N323 1.263 . S
C325 N324 1.358 . S
C325 H331 0.930 . S
C326 N324 1.400 . S
C326 C327 1.351 . S
C326 H343 0.930 . S
C327 N323 1.389 . S
C327 C326 1.351 . S
C327 H332 0.930 . S
O328 Cu322 1.974 . S
O328 C338 1.282 . S
C329 O330 1.261 . S
C329 O342 1.251 . S
O330 C329 1.261 . S
H331 C325 0.930 . S
H332 C327 0.930 . S
N333 Cu322 1.985 . S
N333 C335 1.335 . S
N333 C336 1.390 . S
N334 C335 1.345 . S
N334 C337 1.336 . S
C335 N333 1.335 . S
C335 N334 1.345 . S
C335 H340 0.930 . S
C336 N333 1.390 . S
C336 C337 1.346 . S
C336 H341 0.930 . S
C337 N334 1.336 . S
C337 C336 1.346 . S
C337 H344 0.929 . S
C338 O328 1.282 . S
C338 O339 1.216 . S
O339 C338 1.216 . S
H340 C335 0.930 . S
H341 C336 0.930 . S
O342 Cu322 1.959 . S
O342 C329 1.251 . S
H343 C326 0.930 . S
H344 C337 0.929 . S
Cu345 N346 1.999 . S
Cu345 O351 1.974 . S
Cu345 N356 1.985 . S
Cu345 O365 1.959 . S
N346 Cu345 1.999 . S
N346 C348 1.263 . S
N346 C350 1.389 . S
N347 C348 1.358 . S
N347 C349 1.400 . S
C348 N346 1.263 . S
C348 N347 1.358 . S
C348 H354 0.930 . S
C349 N347 1.400 . S
C349 C350 1.351 . S
C349 H366 0.930 . S
C350 N346 1.389 . S
C350 C349 1.351 . S
C350 H355 0.930 . S
O351 Cu345 1.974 . S
O351 C361 1.282 . S
C352 O353 1.261 . S
C352 O365 1.251 . S
O353 C352 1.261 . S
H354 C348 0.930 . S
H355 C350 0.930 . S
N356 Cu345 1.985 . S
N356 C358 1.335 . S
N356 C359 1.390 . S
N357 C358 1.345 . S
N357 C360 1.336 . S
C358 N356 1.335 . S
C358 N357 1.345 . S
C358 H363 0.930 . S
C359 N356 1.390 . S
C359 C360 1.346 . S
C359 H364 0.930 . S
C360 N357 1.336 . S
C360 C359 1.346 . S
C360 H367 0.929 . S
C361 O351 1.282 . S
C361 O362 1.216 . S
O362 C361 1.216 . S
H363 C358 0.930 . S
H364 C359 0.930 . S
O365 Cu345 1.959 . S
O365 C352 1.251 . S
H366 C349 0.930 . S
H367 C360 0.929 . S
Cu368 N369 1.999 . S
Cu368 O374 1.974 . S
Cu368 N379 1.985 . S
Cu368 O388 1.959 . S
N369 Cu368 1.999 . S
N369 C371 1.263 . S
N369 C373 1.389 . S
N370 C371 1.358 . S
N370 C372 1.400 . S
C371 N369 1.263 . S
C371 N370 1.358 . S
C371 H377 0.930 . S
C372 N370 1.400 . S
C372 C373 1.351 . S
C372 H389 0.930 . S
C373 N369 1.389 . S
C373 C372 1.351 . S
C373 H378 0.930 . S
O374 Cu368 1.974 . S
O374 C384 1.282 . S
C375 O376 1.261 . S
C375 O388 1.251 . S
O376 C375 1.261 . S
H377 C371 0.930 . S
H378 C373 0.930 . S
N379 Cu368 1.985 . S
N379 C381 1.335 . S
N379 C382 1.390 . S
N380 C381 1.345 . S
N380 C383 1.336 . S
C381 N379 1.335 . S
C381 N380 1.345 . S
C381 H386 0.930 . S
C382 N379 1.390 . S
C382 C383 1.346 . S
C382 H387 0.930 . S
C383 N380 1.336 . S
C383 C382 1.346 . S
C383 H390 0.929 . S
C384 O374 1.282 . S
C384 O385 1.216 . S
O385 C384 1.216 . S
H386 C381 0.930 . S
H387 C382 0.930 . S
O388 Cu368 1.959 . S
O388 C375 1.251 . S
H389 C372 0.930 . S
H390 C383 0.929 . S
Cu391 N392 1.999 . S
Cu391 O397 1.974 . S
Cu391 N402 1.985 . S
Cu391 O411 1.959 . S
N392 Cu391 1.999 . S
N392 C394 1.263 . S
N392 C396 1.389 . S
N393 C394 1.358 . S
N393 C395 1.400 . S
C394 N392 1.263 . S
C394 N393 1.358 . S
C394 H400 0.930 . S
C395 N393 1.400 . S
C395 C396 1.351 . S
C395 H412 0.930 . S
C396 N392 1.389 . S
C396 C395 1.351 . S
C396 H401 0.930 . S
O397 Cu391 1.974 . S
O397 C407 1.282 . S
C398 O399 1.261 . S
C398 O411 1.251 . S
O399 C398 1.261 . S
H400 C394 0.930 . S
H401 C396 0.930 . S
N402 Cu391 1.985 . S
N402 C404 1.335 . S
N402 C405 1.390 . S
N403 C404 1.345 . S
N403 C406 1.336 . S
C404 N402 1.335 . S
C404 N403 1.345 . S
C404 H409 0.930 . S
C405 N402 1.390 . S
C405 C406 1.346 . S
C405 H410 0.930 . S
C406 N403 1.336 . S
C406 C405 1.346 . S
C406 H413 0.929 . S
C407 O397 1.282 . S
C407 O408 1.216 . S
O408 C407 1.216 . S
H409 C404 0.930 . S
H410 C405 0.930 . S
O411 Cu391 1.959 . S
O411 C398 1.251 . S
H412 C395 0.930 . S
H413 C406 0.929 . S
Cu414 N415 1.999 . S
Cu414 O420 1.974 . S
Cu414 N425 1.985 . S
Cu414 O434 1.959 . S
N415 Cu414 1.999 . S
N415 C417 1.263 . S
N415 C419 1.389 . S
N416 C417 1.358 . S
N416 C418 1.400 . S
C417 N415 1.263 . S
C417 N416 1.358 . S
C417 H423 0.930 . S
C418 N416 1.400 . S
C418 C419 1.351 . S
C418 H435 0.930 . S
C419 N415 1.389 . S
C419 C418 1.351 . S
C419 H424 0.930 . S
O420 Cu414 1.974 . S
O420 C430 1.282 . S
C421 O422 1.261 . S
C421 O434 1.251 . S
O422 C421 1.261 . S
H423 C417 0.930 . S
H424 C419 0.930 . S
N425 Cu414 1.985 . S
N425 C427 1.335 . S
N425 C428 1.390 . S
N426 C427 1.345 . S
N426 C429 1.336 . S
C427 N425 1.335 . S
C427 N426 1.345 . S
C427 H432 0.930 . S
C428 N425 1.390 . S
C428 C429 1.346 . S
C428 H433 0.930 . S
C429 N426 1.336 . S
C429 C428 1.346 . S
C429 H436 0.929 . S
C430 O420 1.282 . S
C430 O431 1.216 . S
O431 C430 1.216 . S
H432 C427 0.930 . S
H433 C428 0.930 . S
O434 Cu414 1.959 . S
O434 C421 1.251 . S
H435 C418 0.930 . S
H436 C429 0.929 . S
Cu437 N438 1.999 . S
Cu437 O443 1.974 . S
Cu437 N448 1.985 . S
Cu437 O457 1.959 . S
N438 Cu437 1.999 . S
N438 C440 1.263 . S
N438 C442 1.389 . S
N439 C440 1.358 . S
N439 C441 1.400 . S
C440 N438 1.263 . S
C440 N439 1.358 . S
C440 H446 0.930 . S
C441 N439 1.400 . S
C441 C442 1.351 . S
C441 H458 0.930 . S
C442 N438 1.389 . S
C442 C441 1.351 . S
C442 H447 0.930 . S
O443 Cu437 1.974 . S
O443 C453 1.282 . S
C444 O445 1.261 . S
C444 O457 1.251 . S
O445 C444 1.261 . S
H446 C440 0.930 . S
H447 C442 0.930 . S
N448 Cu437 1.985 . S
N448 C450 1.335 . S
N448 C451 1.390 . S
N449 C450 1.345 . S
N449 C452 1.336 . S
C450 N448 1.335 . S
C450 N449 1.345 . S
C450 H455 0.930 . S
C451 N448 1.390 . S
C451 C452 1.346 . S
C451 H456 0.930 . S
C452 N449 1.336 . S
C452 C451 1.346 . S
C452 H459 0.929 . S
C453 O443 1.282 . S
C453 O454 1.216 . S
O454 C453 1.216 . S
H455 C450 0.930 . S
H456 C451 0.930 . S
O457 Cu437 1.959 . S
O457 C444 1.251 . S
H458 C441 0.930 . S
H459 C452 0.929 . S
Cu460 N461 1.999 . S
Cu460 O466 1.974 . S
Cu460 N471 1.985 . S
Cu460 O480 1.959 . S
N461 Cu460 1.999 . S
N461 C463 1.263 . S
N461 C465 1.389 . S
N462 C463 1.358 . S
N462 C464 1.400 . S
C463 N461 1.263 . S
C463 N462 1.358 . S
C463 H469 0.930 . S
C464 N462 1.400 . S
C464 C465 1.351 . S
C464 H481 0.930 . S
C465 N461 1.389 . S
C465 C464 1.351 . S
C465 H470 0.930 . S
O466 Cu460 1.974 . S
O466 C476 1.282 . S
C467 O468 1.261 . S
C467 O480 1.251 . S
O468 C467 1.261 . S
H469 C463 0.930 . S
H470 C465 0.930 . S
N471 Cu460 1.985 . S
N471 C473 1.335 . S
N471 C474 1.390 . S
N472 C473 1.345 . S
N472 C475 1.336 . S
C473 N471 1.335 . S
C473 N472 1.345 . S
C473 H478 0.930 . S
C474 N471 1.390 . S
C474 C475 1.346 . S
C474 H479 0.930 . S
C475 N472 1.336 . S
C475 C474 1.346 . S
C475 H482 0.929 . S
C476 O466 1.282 . S
C476 O477 1.216 . S
O477 C476 1.216 . S
H478 C473 0.930 . S
H479 C474 0.930 . S
O480 Cu460 1.959 . S
O480 C467 1.251 . S
H481 C464 0.930 . S
H482 C475 0.929 . S
Cu483 N484 1.999 . S
Cu483 O489 1.974 . S
Cu483 N494 1.985 . S
Cu483 O503 1.959 . S
N484 Cu483 1.999 . S
N484 C486 1.263 . S
N484 C488 1.389 . S
N485 C486 1.358 . S
N485 C487 1.400 . S
C486 N484 1.263 . S
C486 N485 1.358 . S
C486 H492 0.930 . S
C487 N485 1.400 . S
C487 C488 1.351 . S
C487 H504 0.930 . S
C488 N484 1.389 . S
C488 C487 1.351 . S
C488 H493 0.930 . S
O489 Cu483 1.974 . S
O489 C499 1.282 . S
C490 O491 1.261 . S
C490 O503 1.251 . S
O491 C490 1.261 . S
H492 C486 0.930 . S
H493 C488 0.930 . S
N494 Cu483 1.985 . S
N494 C496 1.335 . S
N494 C497 1.390 . S
N495 C496 1.345 . S
N495 C498 1.336 . S
C496 N494 1.335 . S
C496 N495 1.345 . S
C496 H501 0.930 . S
C497 N494 1.390 . S
C497 C498 1.346 . S
C497 H502 0.930 . S
C498 N495 1.336 . S
C498 C497 1.346 . S
C498 H505 0.929 . S
C499 O489 1.282 . S
C499 O500 1.216 . S
O500 C499 1.216 . S
H501 C496 0.930 . S
H502 C497 0.930 . S
O503 Cu483 1.959 . S
O503 C490 1.251 . S
H504 C487 0.930 . S
H505 C498 0.929 . S
Cu506 N507 1.999 . S
Cu506 O512 1.974 . S
Cu506 N517 1.985 . S
Cu506 O526 1.959 . S
N507 Cu506 1.999 . S
N507 C509 1.263 . S
N507 C511 1.389 . S
N508 C509 1.358 . S
N508 C510 1.400 . S
C509 N507 1.263 . S
C509 N508 1.358 . S
C509 H515 0.930 . S
C510 N508 1.400 . S
C510 C511 1.351 . S
C510 H527 0.930 . S
C511 N507 1.389 . S
C511 C510 1.351 . S
C511 H516 0.930 . S
O512 Cu506 1.974 . S
O512 C522 1.282 . S
C513 O514 1.261 . S
C513 O526 1.251 . S
O514 C513 1.261 . S
H515 C509 0.930 . S
H516 C511 0.930 . S
N517 Cu506 1.985 . S
N517 C519 1.335 . S
N517 C520 1.390 . S
N518 C519 1.345 . S
N518 C521 1.336 . S
C519 N517 1.335 . S
C519 N518 1.345 . S
C519 H524 0.930 . S
C520 N517 1.390 . S
C520 C521 1.346 . S
C520 H525 0.930 . S
C521 N518 1.336 . S
C521 C520 1.346 . S
C521 H528 0.929 . S
C522 O512 1.282 . S
C522 O523 1.216 . S
O523 C522 1.216 . S
H524 C519 0.930 . S
H525 C520 0.930 . S
O526 Cu506 1.959 . S
O526 C513 1.251 . S
H527 C510 0.930 . S
H528 C521 0.929 . S
Cu529 N530 1.999 . S
Cu529 O535 1.974 . S
Cu529 N540 1.985 . S
Cu529 O549 1.959 . S
N530 Cu529 1.999 . S
N530 C532 1.263 . S
N530 C534 1.389 . S
N531 C532 1.358 . S
N531 C533 1.400 . S
C532 N530 1.263 . S
C532 N531 1.358 . S
C532 H538 0.930 . S
C533 N531 1.400 . S
C533 C534 1.351 . S
C533 H550 0.930 . S
C534 N530 1.389 . S
C534 C533 1.351 . S
C534 H539 0.930 . S
O535 Cu529 1.974 . S
O535 C545 1.282 . S
C536 O537 1.261 . S
C536 O549 1.251 . S
O537 C536 1.261 . S
H538 C532 0.930 . S
H539 C534 0.930 . S
N540 Cu529 1.985 . S
N540 C542 1.335 . S
N540 C543 1.390 . S
N541 C542 1.345 . S
N541 C544 1.336 . S
C542 N540 1.335 . S
C542 N541 1.345 . S
C542 H547 0.930 . S
C543 N540 1.390 . S
C543 C544 1.346 . S
C543 H548 0.930 . S
C544 N541 1.336 . S
C544 C543 1.346 . S
C544 H551 0.929 . S
C545 O535 1.282 . S
C545 O546 1.216 . S
O546 C545 1.216 . S
H547 C542 0.930 . S
H548 C543 0.930 . S
O549 Cu529 1.959 . S
O549 C536 1.251 . S
H550 C533 0.930 . S
H551 C544 0.929 . S
Cu552 N553 1.999 . S
Cu552 O558 1.974 . S
Cu552 N563 1.985 . S
Cu552 O572 1.959 . S
N553 Cu552 1.999 . S
N553 C555 1.263 . S
N553 C557 1.389 . S
N554 C555 1.358 . S
N554 C556 1.400 . S
C555 N553 1.263 . S
C555 N554 1.358 . S
C555 H561 0.930 . S
C556 N554 1.400 . S
C556 C557 1.351 . S
C556 H573 0.930 . S
C557 N553 1.389 . S
C557 C556 1.351 . S
C557 H562 0.930 . S
O558 Cu552 1.974 . S
O558 C568 1.282 . S
C559 O560 1.261 . S
C559 O572 1.251 . S
O560 C559 1.261 . S
H561 C555 0.930 . S
H562 C557 0.930 . S
N563 Cu552 1.985 . S
N563 C565 1.335 . S
N563 C566 1.390 . S
N564 C565 1.345 . S
N564 C567 1.336 . S
C565 N563 1.335 . S
C565 N564 1.345 . S
C565 H570 0.930 . S
C566 N563 1.390 . S
C566 C567 1.346 . S
C566 H571 0.930 . S
C567 N564 1.336 . S
C567 C566 1.346 . S
C567 H574 0.929 . S
C568 O558 1.282 . S
C568 O569 1.216 . S
O569 C568 1.216 . S
H570 C565 0.930 . S
H571 C566 0.930 . S
O572 Cu552 1.959 . S
O572 C559 1.251 . S
H573 C556 0.930 . S
H574 C567 0.929 . S
Cu575 N576 1.999 . S
Cu575 O581 1.974 . S
Cu575 N586 1.985 . S
Cu575 O595 1.959 . S
N576 Cu575 1.999 . S
N576 C578 1.263 . S
N576 C580 1.389 . S
N577 C578 1.358 . S
N577 C579 1.400 . S
C578 N576 1.263 . S
C578 N577 1.358 . S
C578 H584 0.930 . S
C579 N577 1.400 . S
C579 C580 1.351 . S
C579 H596 0.930 . S
C580 N576 1.389 . S
C580 C579 1.351 . S
C580 H585 0.930 . S
O581 Cu575 1.974 . S
O581 C591 1.282 . S
C582 O583 1.261 . S
C582 O595 1.251 . S
O583 C582 1.261 . S
H584 C578 0.930 . S
H585 C580 0.930 . S
N586 Cu575 1.985 . S
N586 C588 1.335 . S
N586 C589 1.390 . S
N587 C588 1.345 . S
N587 C590 1.336 . S
C588 N586 1.335 . S
C588 N587 1.345 . S
C588 H593 0.930 . S
C589 N586 1.390 . S
C589 C590 1.346 . S
C589 H594 0.930 . S
C590 N587 1.336 . S
C590 C589 1.346 . S
C590 H597 0.929 . S
C591 O581 1.282 . S
C591 O592 1.216 . S
O592 C591 1.216 . S
H593 C588 0.930 . S
H594 C589 0.930 . S
O595 Cu575 1.959 . S
O595 C582 1.251 . S
H596 C579 0.930 . S
H597 C590 0.929 . S
Cu598 N599 1.999 . S
Cu598 O604 1.974 . S
Cu598 N609 1.985 . S
Cu598 O618 1.959 . S
N599 Cu598 1.999 . S
N599 C601 1.263 . S
N599 C603 1.389 . S
N600 C601 1.358 . S
N600 C602 1.400 . S
C601 N599 1.263 . S
C601 N600 1.358 . S
C601 H607 0.930 . S
C602 N600 1.400 . S
C602 C603 1.351 . S
C602 H619 0.930 . S
C603 N599 1.389 . S
C603 C602 1.351 . S
C603 H608 0.930 . S
O604 Cu598 1.974 . S
O604 C614 1.282 . S
C605 O606 1.261 . S
C605 O618 1.251 . S
O606 C605 1.261 . S
H607 C601 0.930 . S
H608 C603 0.930 . S
N609 Cu598 1.985 . S
N609 C611 1.335 . S
N609 C612 1.390 . S
N610 C611 1.345 . S
N610 C613 1.336 . S
C611 N609 1.335 . S
C611 N610 1.345 . S
C611 H616 0.930 . S
C612 N609 1.390 . S
C612 C613 1.346 . S
C612 H617 0.930 . S
C613 N610 1.336 . S
C613 C612 1.346 . S
C613 H620 0.929 . S
C614 O604 1.282 . S
C614 O615 1.216 . S
O615 C614 1.216 . S
H616 C611 0.930 . S
H617 C612 0.930 . S
O618 Cu598 1.959 . S
O618 C605 1.251 . S
H619 C602 0.930 . S
H620 C613 0.929 . S
Cu621 N622 1.999 . S
Cu621 O627 1.974 . S
Cu621 N632 1.985 . S
Cu621 O641 1.959 . S
N622 Cu621 1.999 . S
N622 C624 1.263 . S
N622 C626 1.389 . S
N623 C624 1.358 . S
N623 C625 1.400 . S
C624 N622 1.263 . S
C624 N623 1.358 . S
C624 H630 0.930 . S
C625 N623 1.400 . S
C625 C626 1.351 . S
C625 H642 0.930 . S
C626 N622 1.389 . S
C626 C625 1.351 . S
C626 H631 0.930 . S
O627 Cu621 1.974 . S
O627 C637 1.282 . S
C628 O629 1.261 . S
C628 O641 1.251 . S
O629 C628 1.261 . S
H630 C624 0.930 . S
H631 C626 0.930 . S
N632 Cu621 1.985 . S
N632 C634 1.335 . S
N632 C635 1.390 . S
N633 C634 1.345 . S
N633 C636 1.336 . S
C634 N632 1.335 . S
C634 N633 1.345 . S
C634 H639 0.930 . S
C635 N632 1.390 . S
C635 C636 1.346 . S
C635 H640 0.930 . S
C636 N633 1.336 . S
C636 C635 1.346 . S
C636 H643 0.929 . S
C637 O627 1.282 . S
C637 O638 1.216 . S
O638 C637 1.216 . S
H639 C634 0.930 . S
H640 C635 0.930 . S
O641 Cu621 1.959 . S
O641 C628 1.251 . S
H642 C625 0.930 . S
H643 C636 0.929 . S
Cu644 N645 1.999 . S
Cu644 O650 1.974 . S
Cu644 N655 1.985 . S
Cu644 O664 1.959 . S
N645 Cu644 1.999 . S
N645 C647 1.263 . S
N645 C649 1.389 . S
N646 C647 1.358 . S
N646 C648 1.400 . S
C647 N645 1.263 . S
C647 N646 1.358 . S
C647 H653 0.930 . S
C648 N646 1.400 . S
C648 C649 1.351 . S
C648 H665 0.930 . S
C649 N645 1.389 . S
C649 C648 1.351 . S
C649 H654 0.930 . S
O650 Cu644 1.974 . S
O650 C660 1.282 . S
C651 O652 1.261 . S
C651 O664 1.251 . S
O652 C651 1.261 . S
H653 C647 0.930 . S
H654 C649 0.930 . S
N655 Cu644 1.985 . S
N655 C657 1.335 . S
N655 C658 1.390 . S
N656 C657 1.345 . S
N656 C659 1.336 . S
C657 N655 1.335 . S
C657 N656 1.345 . S
C657 H662 0.930 . S
C658 N655 1.390 . S
C658 C659 1.346 . S
C658 H663 0.930 . S
C659 N656 1.336 . S
C659 C658 1.346 . S
C659 H666 0.929 . S
C660 O650 1.282 . S
C660 O661 1.216 . S
O661 C660 1.216 . S
H662 C657 0.930 . S
H663 C658 0.930 . S
O664 Cu644 1.959 . S
O664 C651 1.251 . S
H665 C648 0.930 . S
H666 C659 0.929 . S
Cu667 N668 1.999 . S
Cu667 O673 1.974 . S
Cu667 N678 1.985 . S
Cu667 O687 1.959 . S
N668 Cu667 1.999 . S
N668 C670 1.263 . S
N668 C672 1.389 . S
N669 C670 1.358 . S
N669 C671 1.400 . S
C670 N668 1.263 . S
C670 N669 1.358 . S
C670 H676 0.930 . S
C671 N669 1.400 . S
C671 C672 1.351 . S
C671 H688 0.930 . S
C672 N668 1.389 . S
C672 C671 1.351 . S
C672 H677 0.930 . S
O673 Cu667 1.974 . S
O673 C683 1.282 . S
C674 O675 1.261 . S
C674 O687 1.251 . S
O675 C674 1.261 . S
H676 C670 0.930 . S
H677 C672 0.930 . S
N678 Cu667 1.985 . S
N678 C680 1.335 . S
N678 C681 1.390 . S
N679 C680 1.345 . S
N679 C682 1.336 . S
C680 N678 1.335 . S
C680 N679 1.345 . S
C680 H685 0.930 . S
C681 N678 1.390 . S
C681 C682 1.346 . S
C681 H686 0.930 . S
C682 N679 1.336 . S
C682 C681 1.346 . S
C682 H689 0.929 . S
C683 O673 1.282 . S
C683 O684 1.216 . S
O684 C683 1.216 . S
H685 C680 0.930 . S
H686 C681 0.930 . S
O687 Cu667 1.959 . S
O687 C674 1.251 . S
H688 C671 0.930 . S
H689 C682 0.929 . S
Cu690 N691 1.999 . S
Cu690 O696 1.974 . S
Cu690 N701 1.985 . S
Cu690 O710 1.959 . S
N691 Cu690 1.999 . S
N691 C693 1.263 . S
N691 C695 1.389 . S
N692 C693 1.358 . S
N692 C694 1.400 . S
C693 N691 1.263 . S
C693 N692 1.358 . S
C693 H699 0.930 . S
C694 N692 1.400 . S
C694 C695 1.351 . S
C694 H711 0.930 . S
C695 N691 1.389 . S
C695 C694 1.351 . S
C695 H700 0.930 . S
O696 Cu690 1.974 . S
O696 C706 1.282 . S
C697 O698 1.261 . S
C697 O710 1.251 . S
O698 C697 1.261 . S
H699 C693 0.930 . S
H700 C695 0.930 . S
N701 Cu690 1.985 . S
N701 C703 1.335 . S
N701 C704 1.390 . S
N702 C703 1.345 . S
N702 C705 1.336 . S
C703 N701 1.335 . S
C703 N702 1.345 . S
C703 H708 0.930 . S
C704 N701 1.390 . S
C704 C705 1.346 . S
C704 H709 0.930 . S
C705 N702 1.336 . S
C705 C704 1.346 . S
C705 H712 0.929 . S
C706 O696 1.282 . S
C706 O707 1.216 . S
O707 C706 1.216 . S
H708 C703 0.930 . S
H709 C704 0.930 . S
O710 Cu690 1.959 . S
O710 C697 1.251 . S
H711 C694 0.930 . S
H712 C705 0.929 . S
Cu713 N714 1.999 . S
Cu713 O719 1.974 . S
Cu713 N724 1.985 . S
Cu713 O733 1.959 . S
N714 Cu713 1.999 . S
N714 C716 1.263 . S
N714 C718 1.389 . S
N715 C716 1.358 . S
N715 C717 1.400 . S
C716 N714 1.263 . S
C716 N715 1.358 . S
C716 H722 0.930 . S
C717 N715 1.400 . S
C717 C718 1.351 . S
C717 H734 0.930 . S
C718 N714 1.389 . S
C718 C717 1.351 . S
C718 H723 0.930 . S
O719 Cu713 1.974 . S
O719 C729 1.282 . S
C720 O721 1.261 . S
C720 O733 1.251 . S
O721 C720 1.261 . S
H722 C716 0.930 . S
H723 C718 0.930 . S
N724 Cu713 1.985 . S
N724 C726 1.335 . S
N724 C727 1.390 . S
N725 C726 1.345 . S
N725 C728 1.336 . S
C726 N724 1.335 . S
C726 N725 1.345 . S
C726 H731 0.930 . S
C727 N724 1.390 . S
C727 C728 1.346 . S
C727 H732 0.930 . S
C728 N725 1.336 . S
C728 C727 1.346 . S
C728 H735 0.929 . S
C729 O719 1.282 . S
C729 O730 1.216 . S
O730 C729 1.216 . S
H731 C726 0.930 . S
H732 C727 0.930 . S
O733 Cu713 1.959 . S
O733 C720 1.251 . S
H734 C717 0.930 . S
H735 C728 0.929 . S
Cu736 N737 1.999 . S
Cu736 O742 1.974 . S
Cu736 N747 1.985 . S
Cu736 O756 1.959 . S
N737 Cu736 1.999 . S
N737 C739 1.263 . S
N737 C741 1.389 . S
N738 C739 1.358 . S
N738 C740 1.400 . S
C739 N737 1.263 . S
C739 N738 1.358 . S
C739 H745 0.930 . S
C740 N738 1.400 . S
C740 C741 1.351 . S
C740 H757 0.930 . S
C741 N737 1.389 . S
C741 C740 1.351 . S
C741 H746 0.930 . S
O742 Cu736 1.974 . S
O742 C752 1.282 . S
C743 O744 1.261 . S
C743 O756 1.251 . S
O744 C743 1.261 . S
H745 C739 0.930 . S
H746 C741 0.930 . S
N747 Cu736 1.985 . S
N747 C749 1.335 . S
N747 C750 1.390 . S
N748 C749 1.345 . S
N748 C751 1.336 . S
C749 N747 1.335 . S
C749 N748 1.345 . S
C749 H754 0.930 . S
C750 N747 1.390 . S
C750 C751 1.346 . S
C750 H755 0.930 . S
C751 N748 1.336 . S
C751 C750 1.346 . S
C751 H758 0.929 . S
C752 O742 1.282 . S
C752 O753 1.216 . S
O753 C752 1.216 . S
H754 C749 0.930 . S
H755 C750 0.930 . S
O756 Cu736 1.959 . S
O756 C743 1.251 . S
H757 C740 0.930 . S
H758 C751 0.929 . S
Cu759 N760 1.999 . S
Cu759 O765 1.974 . S
Cu759 N770 1.985 . S
Cu759 O779 1.959 . S
N760 Cu759 1.999 . S
N760 C762 1.263 . S
N760 C764 1.389 . S
N761 C762 1.358 . S
N761 C763 1.400 . S
C762 N760 1.263 . S
C762 N761 1.358 . S
C762 H768 0.930 . S
C763 N761 1.400 . S
C763 C764 1.351 . S
C763 H780 0.930 . S
C764 N760 1.389 . S
C764 C763 1.351 . S
C764 H769 0.930 . S
O765 Cu759 1.974 . S
O765 C775 1.282 . S
C766 O767 1.261 . S
C766 O779 1.251 . S
O767 C766 1.261 . S
H768 C762 0.930 . S
H769 C764 0.930 . S
N770 Cu759 1.985 . S
N770 C772 1.335 . S
N770 C773 1.390 . S
N771 C772 1.345 . S
N771 C774 1.336 . S
C772 N770 1.335 . S
C772 N771 1.345 . S
C772 H777 0.930 . S
C773 N770 1.390 . S
C773 C774 1.346 . S
C773 H778 0.930 . S
C774 N771 1.336 . S
C774 C773 1.346 . S
C774 H781 0.929 . S
C775 O765 1.282 . S
C775 O776 1.216 . S
O776 C775 1.216 . S
H777 C772 0.930 . S
H778 C773 0.930 . S
O779 Cu759 1.959 . S
O779 C766 1.251 . S
H780 C763 0.930 . S
H781 C774 0.929 . S
Cu782 N783 1.999 . S
Cu782 O788 1.974 . S
Cu782 N793 1.985 . S
Cu782 O802 1.959 . S
N783 Cu782 1.999 . S
N783 C785 1.263 . S
N783 C787 1.389 . S
N784 C785 1.358 . S
N784 C786 1.400 . S
C785 N783 1.263 . S
C785 N784 1.358 . S
C785 H791 0.930 . S
C786 N784 1.400 . S
C786 C787 1.351 . S
C786 H803 0.930 . S
C787 N783 1.389 . S
C787 C786 1.351 . S
C787 H792 0.930 . S
O788 Cu782 1.974 . S
O788 C798 1.282 . S
C789 O790 1.261 . S
C789 O802 1.251 . S
O790 C789 1.261 . S
H791 C785 0.930 . S
H792 C787 0.930 . S
N793 Cu782 1.985 . S
N793 C795 1.335 . S
N793 C796 1.390 . S
N794 C795 1.345 . S
N794 C797 1.336 . S
C795 N793 1.335 . S
C795 N794 1.345 . S
C795 H800 0.930 . S
C796 N793 1.390 . S
C796 C797 1.346 . S
C796 H801 0.930 . S
C797 N794 1.336 . S
C797 C796 1.346 . S
C797 H804 0.929 . S
C798 O788 1.282 . S
C798 O799 1.216 . S
O799 C798 1.216 . S
H800 C795 0.930 . S
H801 C796 0.930 . S
O802 Cu782 1.959 . S
O802 C789 1.251 . S
H803 C786 0.930 . S
H804 C797 0.929 . S
Cu805 N806 1.999 . S
Cu805 O811 1.974 . S
Cu805 N816 1.985 . S
Cu805 O825 1.959 . S
N806 Cu805 1.999 . S
N806 C808 1.263 . S
N806 C810 1.389 . S
N807 C808 1.358 . S
N807 C809 1.400 . S
C808 N806 1.263 . S
C808 N807 1.358 . S
C808 H814 0.930 . S
C809 N807 1.400 . S
C809 C810 1.351 . S
C809 H826 0.930 . S
C810 N806 1.389 . S
C810 C809 1.351 . S
C810 H815 0.930 . S
O811 Cu805 1.974 . S
O811 C821 1.282 . S
C812 O813 1.261 . S
C812 O825 1.251 . S
O813 C812 1.261 . S
H814 C808 0.930 . S
H815 C810 0.930 . S
N816 Cu805 1.985 . S
N816 C818 1.335 . S
N816 C819 1.390 . S
N817 C818 1.345 . S
N817 C820 1.336 . S
C818 N816 1.335 . S
C818 N817 1.345 . S
C818 H823 0.930 . S
C819 N816 1.390 . S
C819 C820 1.346 . S
C819 H824 0.930 . S
C820 N817 1.336 . S
C820 C819 1.346 . S
C820 H827 0.929 . S
C821 O811 1.282 . S
C821 O822 1.216 . S
O822 C821 1.216 . S
H823 C818 0.930 . S
H824 C819 0.930 . S
O825 Cu805 1.959 . S
O825 C812 1.251 . S
H826 C809 0.930 . S
H827 C820 0.929 . S
C828 C829 1.369 . S
C828 C830 1.419 1_655 S
C828 H832 0.930 . S
C829 C828 1.369 . S
C829 C838 1.429 1_556 S
C830 C828 1.419 1_455 S
C830 C831 1.363 1_556 S
C830 H833 0.929 . S
C831 C830 1.363 1_554 S
C831 C837 1.428 . S
H832 C828 0.930 . S
H833 C830 0.929 . S
S834 N835 1.613 . S
S834 N836 1.610 1_655 S
N835 S834 1.613 . S
N835 C838 1.350 . S
N836 S834 1.610 1_455 S
N836 C837 1.351 . S
C837 C831 1.428 . S
C837 N836 1.351 . S
C837 C838 1.434 1_455 S
C838 C829 1.429 1_554 S
C838 N835 1.350 . S
C838 C837 1.434 1_655 S
C839 C840 1.369 1_554 S
C839 C841 1.419 . S
C839 H843 0.930 . S
C840 C839 1.369 1_556 S
C840 C849 1.429 . S
C841 C839 1.419 . S
C841 C842 1.363 . S
C841 H844 0.929 . S
C842 C841 1.363 . S
C842 C848 1.428 1_554 S
H843 C839 0.930 . S
H844 C841 0.929 . S
S845 N846 1.613 . S
S845 N847 1.610 . S
N846 S845 1.613 . S
N846 C849 1.350 . S
N847 S845 1.610 . S
N847 C848 1.351 . S
C848 C842 1.428 1_556 S
C848 N847 1.351 . S
C848 C849 1.434 . S
C849 C840 1.429 . S
C849 N846 1.350 . S
C849 C848 1.434 . S
C850 C851 1.369 1_554 S
C850 C852 1.419 1_545 S
C850 H854 0.930 . S
C851 C850 1.369 1_556 S
C851 C860 1.429 . S
C852 C850 1.419 1_565 S
C852 C853 1.363 . S
C852 H855 0.929 . S
C853 C852 1.363 . S
C853 C859 1.428 1_554 S
H854 C850 0.930 . S
H855 C852 0.929 . S
S856 N857 1.613 1_565 S
S856 N858 1.610 . S
N857 S856 1.613 1_545 S
N857 C860 1.350 . S
N858 S856 1.610 . S
N858 C859 1.351 . S
C859 C853 1.428 1_556 S
C859 N858 1.351 . S
C859 C860 1.434 1_565 S
C860 C851 1.429 . S
C860 N857 1.350 . S
C860 C859 1.434 1_545 S
C861 C862 1.369 1_556 S
C861 C863 1.419 1_455 S
C861 H865 0.930 . S
C862 C861 1.369 1_554 S
C862 C871 1.429 . S
C863 C861 1.419 1_655 S
C863 C864 1.363 . S
C863 H866 0.929 . S
C864 C863 1.363 . S
C864 C870 1.428 1_556 S
H865 C861 0.930 . S
H866 C863 0.929 . S
S867 N868 1.613 1_655 S
S867 N869 1.610 . S
N868 S867 1.613 1_455 S
N868 C871 1.350 . S
N869 S867 1.610 . S
N869 C870 1.351 . S
C870 C864 1.428 1_554 S
C870 N869 1.351 . S
C870 C871 1.434 1_655 S
C871 C862 1.429 . S
C871 N868 1.350 . S
C871 C870 1.434 1_455 S
C872 C873 1.369 1_554 S
C872 C874 1.419 . S
C872 H876 0.930 . S
C873 C872 1.369 1_556 S
C873 C882 1.429 . S
C874 C872 1.419 . S
C874 C875 1.363 . S
C874 H877 0.929 . S
C875 C874 1.363 . S
C875 C881 1.428 1_554 S
H876 C872 0.930 . S
H877 C874 0.929 . S
S878 N879 1.613 . S
S878 N880 1.610 . S
N879 S878 1.613 . S
N879 C882 1.350 . S
N880 S878 1.610 . S
N880 C881 1.351 . S
C881 C875 1.428 1_556 S
C881 N880 1.351 . S
C881 C882 1.434 . S
C882 C873 1.429 . S
C882 N879 1.350 . S
C882 C881 1.434 . S
C883 C884 1.369 . S
C883 C885 1.419 1_565 S
C883 H887 0.930 . S
C884 C883 1.369 . S
C884 C893 1.429 1_554 S
C885 C883 1.419 1_545 S
C885 C886 1.363 1_554 S
C885 H888 0.929 . S
C886 C885 1.363 1_556 S
C886 C892 1.428 . S
H887 C883 0.930 . S
H888 C885 0.929 . S
S889 N890 1.613 . S
S889 N891 1.610 1_565 S
N890 S889 1.613 . S
N890 C893 1.350 . S
N891 S889 1.610 1_545 S
N891 C892 1.351 . S
C892 C886 1.428 . S
C892 N891 1.351 . S
C892 C893 1.434 1_545 S
C893 C884 1.429 1_556 S
C893 N890 1.350 . S
C893 C892 1.434 1_565 S
C894 C895 1.369 . S
C894 C896 1.419 . S
C894 H898 0.930 . S
C895 C894 1.369 . S
C895 C904 1.429 . S
C896 C894 1.419 . S
C896 C897 1.363 . S
C896 H899 0.929 . S
C897 C896 1.363 . S
C897 C903 1.428 . S
H898 C894 0.930 . S
H899 C896 0.929 . S
S900 N901 1.613 . S
S900 N902 1.610 . S
N901 S900 1.613 . S
N901 C904 1.350 . S
N902 S900 1.610 . S
N902 C903 1.351 . S
C903 C897 1.428 . S
C903 N902 1.351 . S
C903 C904 1.434 . S
C904 C895 1.429 . S
C904 N901 1.350 . S
C904 C903 1.434 . S
C905 C906 1.369 . S
C905 C907 1.419 . S
C905 H909 0.930 . S
C906 C905 1.369 . S
C906 C915 1.429 . S
C907 C905 1.419 . S
C907 C908 1.363 . S
C907 H910 0.929 . S
C908 C907 1.363 . S
C908 C914 1.428 1_565 S
H909 C905 0.930 . S
H910 C907 0.929 . S
S911 N912 1.613 . S
S911 N913 1.610 . S
N912 S911 1.613 . S
N912 C915 1.350 1_545 S
N913 S911 1.610 . S
N913 C914 1.351 . S
C914 C908 1.428 1_545 S
C914 N913 1.351 . S
C914 C915 1.434 1_545 S
C915 C906 1.429 . S
C915 N912 1.350 1_565 S
C915 C914 1.434 1_565 S
C916 C917 1.369 . S
C916 C918 1.419 . S
C916 H920 0.930 1_455 S
C917 C916 1.369 . S
C917 C926 1.429 . S
C918 C916 1.419 . S
C918 C919 1.363 . S
C918 H921 0.929 . S
C919 C918 1.363 . S
C919 C925 1.428 . S
H920 C916 0.930 1_655 S
H921 C918 0.929 . S
S922 N923 1.613 . S
S922 N924 1.610 . S
N923 S922 1.613 . S
N923 C926 1.350 . S
N924 S922 1.610 . S
N924 C925 1.351 . S
C925 C919 1.428 . S
C925 N924 1.351 . S
C925 C926 1.434 . S
C926 C917 1.429 . S
C926 N923 1.350 . S
C926 C925 1.434 . S
C927 C928 1.369 . S
C927 C929 1.419 . S
C927 H931 0.930 . S
C928 C927 1.369 . S
C928 C937 1.429 . S
C929 C927 1.419 . S
C929 C930 1.392 . S
C929 H932 0.899 1_565 S
C930 C929 1.392 . S
C930 C936 1.428 . S
H931 C927 0.930 . S
H932 C929 0.899 1_545 S
S933 N934 1.613 . S
S933 N935 1.610 . S
N934 S933 1.613 . S
N934 C937 1.350 . S
N935 S933 1.610 . S
N935 C936 1.351 . S
C936 C930 1.428 . S
C936 N935 1.351 . S
C936 C937 1.434 . S
C937 C928 1.429 . S
C937 N934 1.350 . S
C937 C936 1.434 . S
C938 C939 1.369 . S
C938 C940 1.419 . S
C938 H942 0.930 . S
C939 C938 1.369 . S
C939 C948 1.429 1_455 S
C940 C938 1.419 . S
C940 C941 1.363 . S
C940 H943 0.929 . S
C941 C940 1.363 . S
C941 C947 1.428 . S
H942 C938 0.930 . S
H943 C940 0.929 . S
S944 N945 1.613 . S
S944 N946 1.610 . S
N945 S944 1.613 . S
N945 C948 1.350 . S
N946 S944 1.610 . S
N946 C947 1.351 1_655 S
C947 C941 1.428 . S
C947 N946 1.351 1_455 S
C947 C948 1.434 1_455 S
C948 C939 1.429 1_655 S
C948 N945 1.350 . S
C948 C947 1.434 1_655 S
C949 C950 1.369 . S
C949 C951 1.419 . S
C949 H953 0.930 . S
C950 C949 1.369 . S
C950 C959 1.429 . S
C951 C949 1.419 . S
C951 C952 1.363 . S
C951 H954 0.929 . S
C952 C951 1.363 . S
C952 C958 1.428 . S
H953 C949 0.930 . S
H954 C951 0.929 . S
S955 N956 1.613 . S
S955 N957 1.610 . S
N956 S955 1.613 . S
N956 C959 1.350 . S
N957 S955 1.610 . S
N957 C958 1.351 . S
C958 C952 1.428 . S
C958 N957 1.351 . S
C958 C959 1.434 . S
C959 C950 1.429 . S
C959 N956 1.350 . S
C959 C958 1.434 . S
C960 C961 1.369 . S
C960 C962 1.419 . S
C960 H964 0.930 . S
C961 C960 1.369 . S
C961 C970 1.429 . S
C962 C960 1.419 . S
C962 C963 1.363 . S
C962 H965 0.929 . S
C963 C962 1.363 . S
C963 C969 1.428 . S
H964 C960 0.930 . S
H965 C962 0.929 . S
S966 N967 1.613 . S
S966 N968 1.610 1_565 S
N967 S966 1.613 . S
N967 C970 1.350 1_565 S
N968 S966 1.610 1_545 S
N968 C969 1.351 . S
C969 C963 1.428 . S
C969 N968 1.351 . S
C969 C970 1.434 . S
C970 C961 1.429 . S
C970 N967 1.350 1_545 S
C970 C969 1.434 . S
C971 C972 1.369 . S
C971 C973 1.419 . S
C971 H975 0.930 . S
C972 C971 1.369 . S
C972 C981 1.429 . S
C973 C971 1.419 . S
C973 C974 1.363 . S
C973 H976 0.929 1_655 S
C974 C973 1.363 . S
C974 C980 1.428 . S
H975 C971 0.930 . S
H976 C973 0.929 1_455 S
S977 N978 1.613 . S
S977 N979 1.610 . S
N978 S977 1.613 . S
N978 C981 1.350 . S
N979 S977 1.610 . S
N979 C980 1.351 . S
C980 C974 1.428 . S
C980 N979 1.351 . S
C980 C981 1.434 . S
C981 C972 1.429 . S
C981 N978 1.350 . S
C981 C980 1.434 . S
C982 C983 1.369 . S
C982 C984 1.419 . S
C982 H986 0.930 . S
C983 C982 1.369 . S
C983 C992 1.429 . S
C984 C982 1.419 . S
C984 C985 1.363 . S
C984 H987 0.929 . S
C985 C984 1.363 . S
C985 C991 1.428 . S
H986 C982 0.930 . S
H987 C984 0.929 . S
S988 N989 1.613 . S
S988 N990 1.610 . S
N989 S988 1.613 . S
N989 C992 1.350 . S
N990 S988 1.610 . S
N990 C991 1.351 . S
C991 C985 1.428 . S
C991 N990 1.351 . S
C991 C992 1.434 . S
C992 C983 1.429 . S
C992 N989 1.350 . S
C992 C991 1.434 . S
C993 C994 1.369 . S
C993 C995 1.419 . S
C993 H997 0.930 . S
C994 C993 1.369 . S
C994 C1003 1.429 . S
C995 C993 1.419 . S
C995 C996 1.363 . S
C995 H998 0.929 . S
C996 C995 1.363 . S
C996 C1002 1.428 . S
H997 C993 0.930 . S
H998 C995 0.929 . S
S999 N1000 1.613 . S
S999 N1001 1.610 . S
N1000 S999 1.613 . S
N1000 C1003 1.350 . S
N1001 S999 1.610 . S
N1001 C1002 1.351 . S
C1002 C996 1.428 . S
C1002 N1001 1.351 . S
C1002 C1003 1.434 . S
C1003 C994 1.429 . S
C1003 N1000 1.350 . S
C1003 C1002 1.434 . S
C1004 C1005 1.371 1_565 S
C1004 C1006 1.393 1_565 S
C1004 H1008 0.955 . S
C1005 C1004 1.371 1_545 S
C1005 C1014 1.429 . S
C1006 C1004 1.393 1_545 S
C1006 C1007 1.363 . S
C1006 H1009 0.929 . S
C1007 C1006 1.363 . S
C1007 C1013 1.428 . S
H1008 C1004 0.955 . S
H1009 C1006 0.929 . S
S1010 N1011 1.613 . S
S1010 N1012 1.610 . S
N1011 S1010 1.613 . S
N1011 C1014 1.350 . S
N1012 S1010 1.610 . S
N1012 C1013 1.351 . S
C1013 C1007 1.428 . S
C1013 N1012 1.351 . S
C1013 C1014 1.434 . S
C1014 C1005 1.429 . S
C1014 N1011 1.350 . S
C1014 C1013 1.434 . S
C1015 C1016 1.369 . S
C1015 C1017 1.419 . S
C1015 H1019 0.930 . S
C1016 C1015 1.369 . S
C1016 C1025 1.393 1_655 S
C1017 C1015 1.419 . S
C1017 C1018 1.363 . S
C1017 H1020 0.929 . S
C1018 C1017 1.363 . S
C1018 C1024 1.428 . S
H1019 C1015 0.930 . S
H1020 C1017 0.929 . S
S1021 N1022 1.613 . S
S1021 N1023 1.631 . S
N1022 S1021 1.613 . S
N1022 C1025 1.389 . S
N1023 S1021 1.631 . S
N1023 C1024 1.322 1_455 S
C1024 C1018 1.428 . S
C1024 N1023 1.322 1_655 S
C1024 C1025 1.435 1_655 S
C1025 C1016 1.393 1_455 S
C1025 N1022 1.389 . S
C1025 C1024 1.435 1_455 S
C1026 C1027 1.369 1_554 S
C1026 C1028 1.419 . S
C1026 H1030 0.930 . S
C1027 C1026 1.369 1_556 S
C1027 C1036 1.429 . S
C1028 C1026 1.419 . S
C1028 C1029 1.363 1_554 S
C1028 H1031 0.929 . S
C1029 C1028 1.363 1_556 S
C1029 C1035 1.428 . S
H1030 C1026 0.930 . S
H1031 C1028 0.929 . S
S1032 N1033 1.613 . S
S1032 N1034 1.610 . S
N1033 S1032 1.613 . S
N1033 C1036 1.350 . S
N1034 S1032 1.610 . S
N1034 C1035 1.351 . S
C1035 C1029 1.428 . S
C1035 N1034 1.351 . S
C1035 C1036 1.434 . S
C1036 C1027 1.429 . S
C1036 N1033 1.350 . S
C1036 C1035 1.434 . S
C1037 C1038 1.369 1_554 S
C1037 C1039 1.419 . S
C1037 H1041 0.930 . S
C1038 C1037 1.369 1_556 S
C1038 C1047 1.429 . S
C1039 C1037 1.419 . S
C1039 C1040 1.363 1_554 S
C1039 H1042 0.929 . S
C1040 C1039 1.363 1_556 S
C1040 C1046 1.428 . S
H1041 C1037 0.930 . S
H1042 C1039 0.929 . S
S1043 N1044 1.613 . S
S1043 N1045 1.610 . S
N1044 S1043 1.613 . S
N1044 C1047 1.350 . S
N1045 S1043 1.610 . S
N1045 C1046 1.351 . S
C1046 C1040 1.428 . S
C1046 N1045 1.351 . S
C1046 C1047 1.434 . S
C1047 C1038 1.429 . S
C1047 N1044 1.350 . S
C1047 C1046 1.434 . S
C1048 C1049 1.369 1_554 S
C1048 C1050 1.419 . S
C1048 H1052 0.930 . S
C1049 C1048 1.369 1_556 S
C1049 C1058 1.429 . S
C1050 C1048 1.419 . S
C1050 C1051 1.363 1_554 S
C1050 H1053 0.929 . S
C1051 C1050 1.363 1_556 S
C1051 C1057 1.428 . S
H1052 C1048 0.930 . S
H1053 C1050 0.929 . S
S1054 N1055 1.613 . S
S1054 N1056 1.610 . S
N1055 S1054 1.613 . S
N1055 C1058 1.350 . S
N1056 S1054 1.610 . S
N1056 C1057 1.351 . S
C1057 C1051 1.428 . S
C1057 N1056 1.351 . S
C1057 C1058 1.434 . S
C1058 C1049 1.429 . S
C1058 N1055 1.350 . S
C1058 C1057 1.434 . S
C1059 C1060 1.369 1_556 S
C1059 C1061 1.419 . S
C1059 H1063 0.930 . S
C1060 C1059 1.369 1_554 S
C1060 C1069 1.429 . S
C1061 C1059 1.419 . S
C1061 C1062 1.363 1_556 S
C1061 H1064 0.929 . S
C1062 C1061 1.363 1_554 S
C1062 C1068 1.428 . S
H1063 C1059 0.930 . S
H1064 C1061 0.929 . S
S1065 N1066 1.613 . S
S1065 N1067 1.610 . S
N1066 S1065 1.613 . S
N1066 C1069 1.350 . S
N1067 S1065 1.610 . S
N1067 C1068 1.351 . S
C1068 C1062 1.428 . S
C1068 N1067 1.351 . S
C1068 C1069 1.434 . S
C1069 C1060 1.429 . S
C1069 N1066 1.350 . S
C1069 C1068 1.434 . S
C1070 C1071 1.369 1_556 S
C1070 C1072 1.419 . S
C1070 H1074 0.930 . S
C1071 C1070 1.369 1_554 S
C1071 C1080 1.429 . S
C1072 C1070 1.419 . S
C1072 C1073 1.363 1_556 S
C1072 H1075 0.929 . S
C1073 C1072 1.363 1_554 S
C1073 C1079 1.428 . S
H1074 C1070 0.930 . S
H1075 C1072 0.929 . S
S1076 N1077 1.613 . S
S1076 N1078 1.610 . S
N1077 S1076 1.613 . S
N1077 C1080 1.350 . S
N1078 S1076 1.610 . S
N1078 C1079 1.351 . S
C1079 C1073 1.428 . S
C1079 N1078 1.351 . S
C1079 C1080 1.434 . S
C1080 C1071 1.429 . S
C1080 N1077 1.350 . S
C1080 C1079 1.434 . S
C1081 C1082 1.369 . S
C1081 C1083 1.419 . S
C1081 H1085 0.930 . S
C1082 C1081 1.369 . S
C1082 C1091 1.429 1_554 S
C1083 C1081 1.419 . S
C1083 C1084 1.363 . S
C1083 H1086 0.929 . S
C1084 C1083 1.363 . S
C1084 C1090 1.428 1_554 S
H1085 C1081 0.930 . S
H1086 C1083 0.929 . S
S1087 N1088 1.613 . S
S1087 N1089 1.610 . S
N1088 S1087 1.613 . S
N1088 C1091 1.350 . S
N1089 S1087 1.610 . S
N1089 C1090 1.351 . S
C1090 C1084 1.428 1_556 S
C1090 N1089 1.351 . S
C1090 C1091 1.434 . S
C1091 C1082 1.429 1_556 S
C1091 N1088 1.350 . S
C1091 C1090 1.434 . S
C1092 C1093 1.369 . S
C1092 C1094 1.419 . S
C1092 H1096 0.930 . S
C1093 C1092 1.369 . S
C1093 C1102 1.429 . S
C1094 C1092 1.419 . S
C1094 C1095 1.363 . S
C1094 H1097 0.929 . S
C1095 C1094 1.363 . S
C1095 C1101 1.428 . S
H1096 C1092 0.930 . S
H1097 C1094 0.929 . S
S1098 N1099 1.613 . S
S1098 N1100 1.610 . S
N1099 S1098 1.613 . S
N1099 C1102 1.350 . S
N1100 S1098 1.610 . S
N1100 C1101 1.351 . S
C1101 C1095 1.428 . S
C1101 N1100 1.351 . S
C1101 C1102 1.434 . S
C1102 C1093 1.429 . S
C1102 N1099 1.350 . S
C1102 C1101 1.434 . S
C1103 C1104 1.369 . S
C1103 C1105 1.419 . S
C1103 H1107 0.930 . S
C1104 C1103 1.369 . S
C1104 C1113 1.429 . S
C1105 C1103 1.419 . S
C1105 C1106 1.363 . S
C1105 H1108 0.929 . S
C1106 C1105 1.363 . S
C1106 C1112 1.428 . S
H1107 C1103 0.930 . S
H1108 C1105 0.929 . S
S1109 N1110 1.613 . S
S1109 N1111 1.610 . S
N1110 S1109 1.613 . S
N1110 C1113 1.350 . S
N1111 S1109 1.610 . S
N1111 C1112 1.351 . S
C1112 C1106 1.428 . S
C1112 N1111 1.351 . S
C1112 C1113 1.434 . S
C1113 C1104 1.429 . S
C1113 N1110 1.350 . S
C1113 C1112 1.434 . S
C1114 C1115 1.369 . S
C1114 C1116 1.419 . S
C1114 H1118 0.930 . S
C1115 C1114 1.369 . S
C1115 C1124 1.429 . S
C1116 C1114 1.419 . S
C1116 C1117 1.363 . S
C1116 H1119 0.929 . S
C1117 C1116 1.363 . S
C1117 C1123 1.428 . S
H1118 C1114 0.930 . S
H1119 C1116 0.929 . S
S1120 N1121 1.613 . S
S1120 N1122 1.610 . S
N1121 S1120 1.613 . S
N1121 C1124 1.350 . S
N1122 S1120 1.610 . S
N1122 C1123 1.351 . S
C1123 C1117 1.428 . S
C1123 N1122 1.351 . S
C1123 C1124 1.434 . S
C1124 C1115 1.429 . S
C1124 N1121 1.350 . S
C1124 C1123 1.434 . S
C1125 C1126 1.369 . S
C1125 C1127 1.419 . S
C1125 H1129 0.930 . S
C1126 C1125 1.369 . S
C1126 C1135 1.429 . S
C1127 C1125 1.419 . S
C1127 C1128 1.363 . S
C1127 H1130 0.929 . S
C1128 C1127 1.363 . S
C1128 C1134 1.428 . S
H1129 C1125 0.930 . S
H1130 C1127 0.929 . S
S1131 N1132 1.613 . S
S1131 N1133 1.610 . S
N1132 S1131 1.613 . S
N1132 C1135 1.350 . S
N1133 S1131 1.610 . S
N1133 C1134 1.351 . S
C1134 C1128 1.428 . S
C1134 N1133 1.351 . S
C1134 C1135 1.434 . S
C1135 C1126 1.429 . S
C1135 N1132 1.350 . S
C1135 C1134 1.434 . S
C1136 C1137 1.369 . S
C1136 C1138 1.419 . S
C1136 H1140 0.930 . S
C1137 C1136 1.369 . S
C1137 C1146 1.429 . S
C1138 C1136 1.419 . S
C1138 C1139 1.363 . S
C1138 H1141 0.929 . S
C1139 C1138 1.363 . S
C1139 C1145 1.428 . S
H1140 C1136 0.930 . S
H1141 C1138 0.929 . S
S1142 N1143 1.613 . S
S1142 N1144 1.610 . S
N1143 S1142 1.613 . S
N1143 C1146 1.350 . S
N1144 S1142 1.610 . S
N1144 C1145 1.351 . S
C1145 C1139 1.428 . S
C1145 N1144 1.351 . S
C1145 C1146 1.434 . S
C1146 C1137 1.429 . S
C1146 N1143 1.350 . S
C1146 C1145 1.434 . S
C1147 C1148 1.369 . S
C1147 C1149 1.419 . S
C1147 H1151 0.930 . S
C1148 C1147 1.369 . S
C1148 C1157 1.429 . S
C1149 C1147 1.419 . S
C1149 C1150 1.363 . S
C1149 H1152 0.929 . S
C1150 C1149 1.363 . S
C1150 C1156 1.428 . S
H1151 C1147 0.930 . S
H1152 C1149 0.929 . S
S1153 N1154 1.613 . S
S1153 N1155 1.610 . S
N1154 S1153 1.613 . S
N1154 C1157 1.350 . S
N1155 S1153 1.610 . S
N1155 C1156 1.351 . S
C1156 C1150 1.428 . S
C1156 N1155 1.351 . S
C1156 C1157 1.434 . S
C1157 C1148 1.429 . S
C1157 N1154 1.350 . S
C1157 C1156 1.434 . S
C1158 C1159 1.369 . S
C1158 C1160 1.419 . S
C1158 H1162 0.930 . S
C1159 C1158 1.369 . S
C1159 C1168 1.429 . S
C1160 C1158 1.419 . S
C1160 C1161 1.363 . S
C1160 H1163 0.929 . S
C1161 C1160 1.363 . S
C1161 C1167 1.428 . S
H1162 C1158 0.930 . S
H1163 C1160 0.929 . S
S1164 N1165 1.613 . S
S1164 N1166 1.610 . S
N1165 S1164 1.613 . S
N1165 C1168 1.350 . S
N1166 S1164 1.610 . S
N1166 C1167 1.351 . S
C1167 C1161 1.428 . S
C1167 N1166 1.351 . S
C1167 C1168 1.434 . S
C1168 C1159 1.429 . S
C1168 N1165 1.350 . S
C1168 C1167 1.434 . S
C1169 C1170 1.369 . S
C1169 C1171 1.419 . S
C1169 H1173 0.930 . S
C1170 C1169 1.369 . S
C1170 C1179 1.429 . S
C1171 C1169 1.419 . S
C1171 C1172 1.363 . S
C1171 H1174 0.929 . S
C1172 C1171 1.363 . S
C1172 C1178 1.428 . S
H1173 C1169 0.930 . S
H1174 C1171 0.929 . S
S1175 N1176 1.613 . S
S1175 N1177 1.610 . S
N1176 S1175 1.613 . S
N1176 C1179 1.350 . S
N1177 S1175 1.610 . S
N1177 C1178 1.351 . S
C1178 C1172 1.428 . S
C1178 N1177 1.351 . S
C1178 C1179 1.434 . S
C1179 C1170 1.429 . S
C1179 N1176 1.350 . S
C1179 C1178 1.434 . S
C1180 C1181 1.369 . S
C1180 C1182 1.419 . S
C1180 H1184 0.930 . S
C1181 C1180 1.369 . S
C1181 C1190 1.429 . S
C1182 C1180 1.419 . S
C1182 C1183 1.363 . S
C1182 H1185 0.929 . S
C1183 C1182 1.363 . S
C1183 C1189 1.428 . S
H1184 C1180 0.930 . S
H1185 C1182 0.929 . S
S1186 N1187 1.613 . S
S1186 N1188 1.610 . S
N1187 S1186 1.613 . S
N1187 C1190 1.350 . S
N1188 S1186 1.610 . S
N1188 C1189 1.351 . S
C1189 C1183 1.428 . S
C1189 N1188 1.351 . S
C1189 C1190 1.434 . S
C1190 C1181 1.429 . S
C1190 N1187 1.350 . S
C1190 C1189 1.434 . S
C1191 C1192 1.369 . S
C1191 C1193 1.419 . S
C1191 H1195 0.930 . S
C1192 C1191 1.369 . S
C1192 C1201 1.429 . S
C1193 C1191 1.419 . S
C1193 C1194 1.363 . S
C1193 H1196 0.929 . S
C1194 C1193 1.363 . S
C1194 C1200 1.428 . S
H1195 C1191 0.930 . S
H1196 C1193 0.929 . S
S1197 N1198 1.613 . S
S1197 N1199 1.610 . S
N1198 S1197 1.613 . S
N1198 C1201 1.350 . S
N1199 S1197 1.610 . S
N1199 C1200 1.351 . S
C1200 C1194 1.428 . S
C1200 N1199 1.351 . S
C1200 C1201 1.434 . S
C1201 C1192 1.429 . S
C1201 N1198 1.350 . S
C1201 C1200 1.434 . S
C1202 C1203 1.369 . S
C1202 C1204 1.419 . S
C1202 H1206 0.930 . S
C1203 C1202 1.369 . S
C1203 C1212 1.429 . S
C1204 C1202 1.419 . S
C1204 C1205 1.363 . S
C1204 H1207 0.929 . S
C1205 C1204 1.363 . S
C1205 C1211 1.428 . S
H1206 C1202 0.930 . S
H1207 C1204 0.929 . S
S1208 N1209 1.613 . S
S1208 N1210 1.610 . S
N1209 S1208 1.613 . S
N1209 C1212 1.350 . S
N1210 S1208 1.610 . S
N1210 C1211 1.351 . S
C1211 C1205 1.428 . S
C1211 N1210 1.351 . S
C1211 C1212 1.434 . S
C1212 C1203 1.429 . S
C1212 N1209 1.350 . S
C1212 C1211 1.434 . S
C1213 C1214 1.369 . S
C1213 C1215 1.419 . S
C1213 H1217 0.930 . S
C1214 C1213 1.369 . S
C1214 C1223 1.429 . S
C1215 C1213 1.419 . S
C1215 C1216 1.363 . S
C1215 H1218 0.929 . S
C1216 C1215 1.363 . S
C1216 C1222 1.428 . S
H1217 C1213 0.930 . S
H1218 C1215 0.929 . S
S1219 N1220 1.613 . S
S1219 N1221 1.610 . S
N1220 S1219 1.613 . S
N1220 C1223 1.350 . S
N1221 S1219 1.610 . S
N1221 C1222 1.351 . S
C1222 C1216 1.428 . S
C1222 N1221 1.351 . S
C1222 C1223 1.434 . S
C1223 C1214 1.429 . S
C1223 N1220 1.350 . S
C1223 C1222 1.434 . S
C1224 C1225 1.369 . S
C1224 C1226 1.419 . S
C1224 H1228 0.930 . S
C1225 C1224 1.369 . S
C1225 C1234 1.429 . S
C1226 C1224 1.419 . S
C1226 C1227 1.363 . S
C1226 H1229 0.929 . S
C1227 C1226 1.363 . S
C1227 C1233 1.428 . S
H1228 C1224 0.930 . S
H1229 C1226 0.929 . S
S1230 N1231 1.613 . S
S1230 N1232 1.610 . S
N1231 S1230 1.613 . S
N1231 C1234 1.350 . S
N1232 S1230 1.610 . S
N1232 C1233 1.351 . S
C1233 C1227 1.428 . S
C1233 N1232 1.351 . S
C1233 C1234 1.434 . S
C1234 C1225 1.429 . S
C1234 N1231 1.350 . S
C1234 C1233 1.434 . S
C1235 C1236 1.369 . S
C1235 C1237 1.419 . S
C1235 H1239 0.930 . S
C1236 C1235 1.369 . S
C1236 C1245 1.429 . S
C1237 C1235 1.419 . S
C1237 C1238 1.363 . S
C1237 H1240 0.929 . S
C1238 C1237 1.363 . S
C1238 C1244 1.428 . S
H1239 C1235 0.930 . S
H1240 C1237 0.929 . S
S1241 N1242 1.613 . S
S1241 N1243 1.610 . S
N1242 S1241 1.613 . S
N1242 C1245 1.350 . S
N1243 S1241 1.610 . S
N1243 C1244 1.351 . S
C1244 C1238 1.428 . S
C1244 N1243 1.351 . S
C1244 C1245 1.434 . S
C1245 C1236 1.429 . S
C1245 N1242 1.350 . S
C1245 C1244 1.434 . S
C1246 C1247 1.369 . S
C1246 C1248 1.419 . S
C1246 H1250 0.930 . S
C1247 C1246 1.369 . S
C1247 C1256 1.429 . S
C1248 C1246 1.419 . S
C1248 C1249 1.363 . S
C1248 H1251 0.929 . S
C1249 C1248 1.363 . S
C1249 C1255 1.428 . S
H1250 C1246 0.930 . S
H1251 C1248 0.929 . S
S1252 N1253 1.613 . S
S1252 N1254 1.610 . S
N1253 S1252 1.613 . S
N1253 C1256 1.350 . S
N1254 S1252 1.610 . S
N1254 C1255 1.351 . S
C1255 C1249 1.428 . S
C1255 N1254 1.351 . S
C1255 C1256 1.434 . S
C1256 C1247 1.429 . S
C1256 N1253 1.350 . S
C1256 C1255 1.434 . S
C1257 C1258 1.369 . S
C1257 C1259 1.419 . S
C1257 H1261 0.930 . S
C1258 C1257 1.369 . S
C1258 C1267 1.429 . S
C1259 C1257 1.419 . S
C1259 C1260 1.363 . S
C1259 H1262 0.929 . S
C1260 C1259 1.363 . S
C1260 C1266 1.428 . S
H1261 C1257 0.930 . S
H1262 C1259 0.929 . S
S1263 N1264 1.613 . S
S1263 N1265 1.610 . S
N1264 S1263 1.613 . S
N1264 C1267 1.350 . S
N1265 S1263 1.610 . S
N1265 C1266 1.351 . S
C1266 C1260 1.428 . S
C1266 N1265 1.351 . S
C1266 C1267 1.434 . S
C1267 C1258 1.429 . S
C1267 N1264 1.350 . S
C1267 C1266 1.434 . S
C1268 C1269 1.369 . S
C1268 C1270 1.419 . S
C1268 H1272 0.930 . S
C1269 C1268 1.369 . S
C1269 C1278 1.429 . S
C1270 C1268 1.419 . S
C1270 C1271 1.363 . S
C1270 H1273 0.929 . S
C1271 C1270 1.363 . S
C1271 C1277 1.428 . S
H1272 C1268 0.930 . S
H1273 C1270 0.929 . S
S1274 N1275 1.613 . S
S1274 N1276 1.610 . S
N1275 S1274 1.613 . S
N1275 C1278 1.350 . S
N1276 S1274 1.610 . S
N1276 C1277 1.351 . S
C1277 C1271 1.428 . S
C1277 N1276 1.351 . S
C1277 C1278 1.434 . S
C1278 C1269 1.429 . S
C1278 N1275 1.350 . S
C1278 C1277 1.434 . S
C1279 C1280 1.369 . S
C1279 C1281 1.419 . S
C1279 H1283 0.930 . S
C1280 C1279 1.369 . S
C1280 C1289 1.429 . S
C1281 C1279 1.419 . S
C1281 C1282 1.363 . S
C1281 H1284 0.929 . S
C1282 C1281 1.363 . S
C1282 C1288 1.428 . S
H1283 C1279 0.930 . S
H1284 C1281 0.929 . S
S1285 N1286 1.613 . S
S1285 N1287 1.610 . S
N1286 S1285 1.613 . S
N1286 C1289 1.350 . S
N1287 S1285 1.610 . S
N1287 C1288 1.351 . S
C1288 C1282 1.428 . S
C1288 N1287 1.351 . S
C1288 C1289 1.434 . S
C1289 C1280 1.429 . S
C1289 N1286 1.350 . S
C1289 C1288 1.434 . S
C1290 C1291 1.369 . S
C1290 C1292 1.419 . S
C1290 H1294 0.930 . S
C1291 C1290 1.369 . S
C1291 C1300 1.429 . S
C1292 C1290 1.419 . S
C1292 C1293 1.363 . S
C1292 H1295 0.929 . S
C1293 C1292 1.363 . S
C1293 C1299 1.428 . S
H1294 C1290 0.930 . S
H1295 C1292 0.929 . S
S1296 N1297 1.613 . S
S1296 N1298 1.610 . S
N1297 S1296 1.613 . S
N1297 C1300 1.350 . S
N1298 S1296 1.610 . S
N1298 C1299 1.351 . S
C1299 C1293 1.428 . S
C1299 N1298 1.351 . S
C1299 C1300 1.434 . S
C1300 C1291 1.429 . S
C1300 N1297 1.350 . S
C1300 C1299 1.434 . S
C1301 C1302 1.369 . S
C1301 C1303 1.419 . S
C1301 H1305 0.930 . S
C1302 C1301 1.369 . S
C1302 C1311 1.429 . S
C1303 C1301 1.419 . S
C1303 C1304 1.363 . S
C1303 H1306 0.929 . S
C1304 C1303 1.363 . S
C1304 C1310 1.428 . S
H1305 C1301 0.930 . S
H1306 C1303 0.929 . S
S1307 N1308 1.613 . S
S1307 N1309 1.610 . S
N1308 S1307 1.613 . S
N1308 C1311 1.350 . S
N1309 S1307 1.610 . S
N1309 C1310 1.351 . S
C1310 C1304 1.428 . S
C1310 N1309 1.351 . S
C1310 C1311 1.434 . S
C1311 C1302 1.429 . S
C1311 N1308 1.350 . S
C1311 C1310 1.434 . S
C1312 C1313 1.369 . S
C1312 C1314 1.419 . S
C1312 H1316 0.930 . S
C1313 C1312 1.369 . S
C1313 C1322 1.429 . S
C1314 C1312 1.419 . S
C1314 C1315 1.363 . S
C1314 H1317 0.929 . S
C1315 C1314 1.363 . S
C1315 C1321 1.428 . S
H1316 C1312 0.930 . S
H1317 C1314 0.929 . S
S1318 N1319 1.613 . S
S1318 N1320 1.610 . S
N1319 S1318 1.613 . S
N1319 C1322 1.350 . S
N1320 S1318 1.610 . S
N1320 C1321 1.351 . S
C1321 C1315 1.428 . S
C1321 N1320 1.351 . S
C1321 C1322 1.434 . S
C1322 C1313 1.429 . S
C1322 N1319 1.350 . S
C1322 C1321 1.434 . S
C1323 C1324 1.369 . S
C1323 C1325 1.419 . S
C1323 H1327 0.930 . S
C1324 C1323 1.369 . S
C1324 C1333 1.429 . S
C1325 C1323 1.419 . S
C1325 C1326 1.363 . S
C1325 H1328 0.929 . S
C1326 C1325 1.363 . S
C1326 C1332 1.428 . S
H1327 C1323 0.930 . S
H1328 C1325 0.929 . S
S1329 N1330 1.613 . S
S1329 N1331 1.610 . S
N1330 S1329 1.613 . S
N1330 C1333 1.350 . S
N1331 S1329 1.610 . S
N1331 C1332 1.351 . S
C1332 C1326 1.428 . S
C1332 N1331 1.351 . S
C1332 C1333 1.434 . S
C1333 C1324 1.429 . S
C1333 N1330 1.350 . S
C1333 C1332 1.434 . S
C1334 C1335 1.369 . S
C1334 C1336 1.419 . S
C1334 H1338 0.930 . S
C1335 C1334 1.369 . S
C1335 C1344 1.429 . S
C1336 C1334 1.419 . S
C1336 C1337 1.363 . S
C1336 H1339 0.929 . S
C1337 C1336 1.363 . S
C1337 C1343 1.428 . S
H1338 C1334 0.930 . S
H1339 C1336 0.929 . S
S1340 N1341 1.613 . S
S1340 N1342 1.610 . S
N1341 S1340 1.613 . S
N1341 C1344 1.350 . S
N1342 S1340 1.610 . S
N1342 C1343 1.351 . S
C1343 C1337 1.428 . S
C1343 N1342 1.351 . S
C1343 C1344 1.434 . S
C1344 C1335 1.429 . S
C1344 N1341 1.350 . S
C1344 C1343 1.434 . S
C1345 C1346 1.369 . S
C1345 C1347 1.419 . S
C1345 H1349 0.930 . S
C1346 C1345 1.369 . S
C1346 C1355 1.429 . S
C1347 C1345 1.419 . S
C1347 C1348 1.363 . S
C1347 H1350 0.929 . S
C1348 C1347 1.363 . S
C1348 C1354 1.428 . S
H1349 C1345 0.930 . S
H1350 C1347 0.929 . S
S1351 N1352 1.613 . S
S1351 N1353 1.610 . S
N1352 S1351 1.613 . S
N1352 C1355 1.350 . S
N1353 S1351 1.610 . S
N1353 C1354 1.351 . S
C1354 C1348 1.428 . S
C1354 N1353 1.351 . S
C1354 C1355 1.434 . S
C1355 C1346 1.429 . S
C1355 N1352 1.350 . S
C1355 C1354 1.434 . S
C1356 C1357 1.369 . S
C1356 C1358 1.419 . S
C1356 H1360 0.930 . S
C1357 C1356 1.369 . S
C1357 C1366 1.429 . S
C1358 C1356 1.419 . S
C1358 C1359 1.363 . S
C1358 H1361 0.929 . S
C1359 C1358 1.363 . S
C1359 C1365 1.428 . S
H1360 C1356 0.930 . S
H1361 C1358 0.929 . S
S1362 N1363 1.613 . S
S1362 N1364 1.610 . S
N1363 S1362 1.613 . S
N1363 C1366 1.350 . S
N1364 S1362 1.610 . S
N1364 C1365 1.351 . S
C1365 C1359 1.428 . S
C1365 N1364 1.351 . S
C1365 C1366 1.434 . S
C1366 C1357 1.429 . S
C1366 N1363 1.350 . S
C1366 C1365 1.434 . S
C1367 C1368 1.369 1_565 S
C1367 C1369 1.419 . S
C1367 H1371 0.930 . S
C1368 C1367 1.369 1_545 S
C1368 C1377 1.429 . S
C1369 C1367 1.419 . S
C1369 C1370 1.363 . S
C1369 H1372 0.929 . S
C1370 C1369 1.363 . S
C1370 C1376 1.428 1_565 S
H1371 C1367 0.930 . S
H1372 C1369 0.929 . S
S1373 N1374 1.613 . S
S1373 N1375 1.610 . S
N1374 S1373 1.613 . S
N1374 C1377 1.350 . S
N1375 S1373 1.610 . S
N1375 C1376 1.351 . S
C1376 C1370 1.428 1_545 S
C1376 N1375 1.351 . S
C1376 C1377 1.434 . S
C1377 C1368 1.429 . S
C1377 N1374 1.350 . S
C1377 C1376 1.434 . S
C1378 C1379 1.369 . S
C1378 C1380 1.419 . S
C1378 H1382 0.930 . S
C1379 C1378 1.369 . S
C1379 C1388 1.429 1_455 S
C1380 C1378 1.419 . S
C1380 C1381 1.363 1_455 S
C1380 H1383 0.929 . S
C1381 C1380 1.363 1_655 S
C1381 C1387 1.428 . S
H1382 C1378 0.930 . S
H1383 C1380 0.929 . S
S1384 N1385 1.613 . S
S1384 N1386 1.610 . S
N1385 S1384 1.613 . S
N1385 C1388 1.350 . S
N1386 S1384 1.610 . S
N1386 C1387 1.351 . S
C1387 C1381 1.428 . S
C1387 N1386 1.351 . S
C1387 C1388 1.434 . S
C1388 C1379 1.429 1_655 S
C1388 N1385 1.350 . S
C1388 C1387 1.434 . S
C1389 C1390 1.369 . S
C1389 C1391 1.419 . S
C1389 H1393 0.930 . S
C1390 C1389 1.369 . S
C1390 C1399 1.429 . S
C1391 C1389 1.419 . S
C1391 C1392 1.363 . S
C1391 H1394 0.929 . S
C1392 C1391 1.363 . S
C1392 C1398 1.428 . S
H1393 C1389 0.930 . S
H1394 C1391 0.929 . S
S1395 N1396 1.613 . S
S1395 N1397 1.610 . S
N1396 S1395 1.613 . S
N1396 C1399 1.350 . S
N1397 S1395 1.610 . S
N1397 C1398 1.351 . S
C1398 C1392 1.428 . S
C1398 N1397 1.351 . S
C1398 C1399 1.434 . S
C1399 C1390 1.429 . S
C1399 N1396 1.350 . S
C1399 C1398 1.434 . S
C1400 C1401 1.369 . S
C1400 C1402 1.419 . S
C1400 H1404 0.930 . S
C1401 C1400 1.369 . S
C1401 C1410 1.429 1_565 S
C1402 C1400 1.419 . S
C1402 C1403 1.363 1_565 S
C1402 H1405 0.929 . S
C1403 C1402 1.363 1_545 S
C1403 C1409 1.428 . S
H1404 C1400 0.930 . S
H1405 C1402 0.929 . S
S1406 N1407 1.613 . S
S1406 N1408 1.610 . S
N1407 S1406 1.613 . S
N1407 C1410 1.350 . S
N1408 S1406 1.610 . S
N1408 C1409 1.351 . S
C1409 C1403 1.428 . S
C1409 N1408 1.351 . S
C1409 C1410 1.434 . S
C1410 C1401 1.429 1_545 S
C1410 N1407 1.350 . S
C1410 C1409 1.434 . S
C1411 C1412 1.369 1_655 S
C1411 C1413 1.418 . S
C1411 H1415 0.939 . S
C1412 C1411 1.369 1_455 S
C1412 C1421 1.429 . S
C1413 C1411 1.418 . S
C1413 C1414 1.363 . S
C1413 H1416 0.929 . S
C1414 C1413 1.363 . S
C1414 C1420 1.428 1_655 S
H1415 C1411 0.939 . S
H1416 C1413 0.929 . S
S1417 N1418 1.613 . S
S1417 N1419 1.612 . S
N1418 S1417 1.613 . S
N1418 C1421 1.350 . S
N1419 S1417 1.612 . S
N1419 C1420 1.369 . S
C1420 C1414 1.428 1_455 S
C1420 N1419 1.369 . S
C1420 C1421 1.433 . S
C1421 C1412 1.429 . S
C1421 N1418 1.350 . S
C1421 C1420 1.433 . S
C1422 C1423 1.369 . S
C1422 C1424 1.419 . S
C1422 H1426 0.930 . S
C1423 C1422 1.369 . S
C1423 C1432 1.429 . S
C1424 C1422 1.419 . S
C1424 C1425 1.363 . S
C1424 H1427 0.929 . S
C1425 C1424 1.363 . S
C1425 C1431 1.428 . S
H1426 C1422 0.930 . S
H1427 C1424 0.929 . S
S1428 N1429 1.613 . S
S1428 N1430 1.610 . S
N1429 S1428 1.613 . S
N1429 C1432 1.350 . S
N1430 S1428 1.610 . S
N1430 C1431 1.351 . S
C1431 C1425 1.428 . S
C1431 N1430 1.351 . S
C1431 C1432 1.434 . S
C1432 C1423 1.429 . S
C1432 N1429 1.350 . S
C1432 C1431 1.434 . S
C1433 C1434 1.369 . S
C1433 C1435 1.419 . S
C1433 H1437 0.930 . S
C1434 C1433 1.369 . S
C1434 C1443 1.429 . S
C1435 C1433 1.419 . S
C1435 C1436 1.363 . S
C1435 H1438 0.929 . S
C1436 C1435 1.363 . S
C1436 C1442 1.428 . S
H1437 C1433 0.930 . S
H1438 C1435 0.929 . S
S1439 N1440 1.613 . S
S1439 N1441 1.610 . S
N1440 S1439 1.613 . S
N1440 C1443 1.350 . S
N1441 S1439 1.610 . S
N1441 C1442 1.351 . S
C1442 C1436 1.428 . S
C1442 N1441 1.351 . S
C1442 C1443 1.434 . S
C1443 C1434 1.429 . S
C1443 N1440 1.350 . S
C1443 C1442 1.434 . S
C1444 C1445 1.369 . S
C1444 C1446 1.419 . S
C1444 H1448 0.930 . S
C1445 C1444 1.369 . S
C1445 C1454 1.429 . S
C1446 C1444 1.419 . S
C1446 C1447 1.363 . S
C1446 H1449 0.929 . S
C1447 C1446 1.363 . S
C1447 C1453 1.428 . S
H1448 C1444 0.930 . S
H1449 C1446 0.929 . S
S1450 N1451 1.613 . S
S1450 N1452 1.610 . S
N1451 S1450 1.613 . S
N1451 C1454 1.350 . S
N1452 S1450 1.610 . S
N1452 C1453 1.351 . S
C1453 C1447 1.428 . S
C1453 N1452 1.351 . S
C1453 C1454 1.434 . S
C1454 C1445 1.429 . S
C1454 N1451 1.350 . S
C1454 C1453 1.434 . S
C1455 C1456 1.369 . S
C1455 C1457 1.419 . S
C1455 H1459 0.930 . S
C1456 C1455 1.369 . S
C1456 C1465 1.429 . S
C1457 C1455 1.419 . S
C1457 C1458 1.363 . S
C1457 H1460 0.929 . S
C1458 C1457 1.363 . S
C1458 C1464 1.428 . S
H1459 C1455 0.930 . S
H1460 C1457 0.929 . S
S1461 N1462 1.613 . S
S1461 N1463 1.610 . S
N1462 S1461 1.613 . S
N1462 C1465 1.350 . S
N1463 S1461 1.610 . S
N1463 C1464 1.351 . S
C1464 C1458 1.428 . S
C1464 N1463 1.351 . S
C1464 C1465 1.434 . S
C1465 C1456 1.429 . S
C1465 N1462 1.350 . S
C1465 C1464 1.434 . S
C1466 C1467 1.369 . S
C1466 C1468 1.419 . S
C1466 H1470 0.930 . S
C1467 C1466 1.369 . S
C1467 C1476 1.429 . S
C1468 C1466 1.419 . S
C1468 C1469 1.363 . S
C1468 H1471 0.929 . S
C1469 C1468 1.363 . S
C1469 C1475 1.428 . S
H1470 C1466 0.930 . S
H1471 C1468 0.929 . S
S1472 N1473 1.613 . S
S1472 N1474 1.610 . S
N1473 S1472 1.613 . S
N1473 C1476 1.350 . S
N1474 S1472 1.610 . S
N1474 C1475 1.351 . S
C1475 C1469 1.428 . S
C1475 N1474 1.351 . S
C1475 C1476 1.434 . S
C1476 C1467 1.429 . S
C1476 N1473 1.350 . S
C1476 C1475 1.434 . S
C1477 C1478 1.369 . S
C1477 C1479 1.419 . S
C1477 H1481 0.930 . S
C1478 C1477 1.369 . S
C1478 C1487 1.429 . S
C1479 C1477 1.419 . S
C1479 C1480 1.363 . S
C1479 H1482 0.929 . S
C1480 C1479 1.363 . S
C1480 C1486 1.428 . S
H1481 C1477 0.930 . S
H1482 C1479 0.929 . S
S1483 N1484 1.613 . S
S1483 N1485 1.610 . S
N1484 S1483 1.613 . S
N1484 C1487 1.350 . S
N1485 S1483 1.610 . S
N1485 C1486 1.351 . S
C1486 C1480 1.428 . S
C1486 N1485 1.351 . S
C1486 C1487 1.434 . S
C1487 C1478 1.429 . S
C1487 N1484 1.350 . S
C1487 C1486 1.434 . S
C1488 C1489 1.369 . S
C1488 C1490 1.419 . S
C1488 H1492 0.930 . S
C1489 C1488 1.369 . S
C1489 C1498 1.429 . S
C1490 C1488 1.419 . S
C1490 C1491 1.363 . S
C1490 H1493 0.929 . S
C1491 C1490 1.363 . S
C1491 C1497 1.428 . S
H1492 C1488 0.930 . S
H1493 C1490 0.929 . S
S1494 N1495 1.613 . S
S1494 N1496 1.610 . S
N1495 S1494 1.613 . S
N1495 C1498 1.350 . S
N1496 S1494 1.610 . S
N1496 C1497 1.351 . S
C1497 C1491 1.428 . S
C1497 N1496 1.351 . S
C1497 C1498 1.434 . S
C1498 C1489 1.429 . S
C1498 N1495 1.350 . S
C1498 C1497 1.434 . S
C1499 C1500 1.369 . S
C1499 C1501 1.419 . S
C1499 H1503 0.930 . S
C1500 C1499 1.369 . S
C1500 C1509 1.429 . S
C1501 C1499 1.419 . S
C1501 C1502 1.363 . S
C1501 H1504 0.929 . S
C1502 C1501 1.363 . S
C1502 C1508 1.428 . S
H1503 C1499 0.930 . S
H1504 C1501 0.929 . S
S1505 N1506 1.613 . S
S1505 N1507 1.610 . S
N1506 S1505 1.613 . S
N1506 C1509 1.350 . S
N1507 S1505 1.610 . S
N1507 C1508 1.351 . S
C1508 C1502 1.428 . S
C1508 N1507 1.351 . S
C1508 C1509 1.434 . S
C1509 C1500 1.429 . S
C1509 N1506 1.350 . S
C1509 C1508 1.434 . S
C1510 C1511 1.369 . S
C1510 C1512 1.419 . S
C1510 H1514 0.930 . S
C1511 C1510 1.369 . S
C1511 C1520 1.429 . S
C1512 C1510 1.419 . S
C1512 C1513 1.363 . S
C1512 H1515 0.929 . S
C1513 C1512 1.363 . S
C1513 C1519 1.428 . S
H1514 C1510 0.930 . S
H1515 C1512 0.929 . S
S1516 N1517 1.613 . S
S1516 N1518 1.610 . S
N1517 S1516 1.613 . S
N1517 C1520 1.350 . S
N1518 S1516 1.610 . S
N1518 C1519 1.351 . S
C1519 C1513 1.428 . S
C1519 N1518 1.351 . S
C1519 C1520 1.434 . S
C1520 C1511 1.429 . S
C1520 N1517 1.350 . S
C1520 C1519 1.434 . S
C1521 C1522 1.369 . S
C1521 C1523 1.419 . S
C1521 H1525 0.930 . S
C1522 C1521 1.369 . S
C1522 C1531 1.429 . S
C1523 C1521 1.419 . S
C1523 C1524 1.363 . S
C1523 H1526 0.929 . S
C1524 C1523 1.363 . S
C1524 C1530 1.428 . S
H1525 C1521 0.930 . S
H1526 C1523 0.929 . S
S1527 N1528 1.613 . S
S1527 N1529 1.610 . S
N1528 S1527 1.613 . S
N1528 C1531 1.350 . S
N1529 S1527 1.610 . S
N1529 C1530 1.351 . S
C1530 C1524 1.428 . S
C1530 N1529 1.351 . S
C1530 C1531 1.434 . S
C1531 C1522 1.429 . S
C1531 N1528 1.350 . S
C1531 C1530 1.434 . S
C1532 C1533 1.369 . S
C1532 C1534 1.419 . S
C1532 H1536 0.930 . S
C1533 C1532 1.369 . S
C1533 C1542 1.429 . S
C1534 C1532 1.419 . S
C1534 C1535 1.363 . S
C1534 H1537 0.929 . S
C1535 C1534 1.363 . S
C1535 C1541 1.428 . S
H1536 C1532 0.930 . S
H1537 C1534 0.929 . S
S1538 N1539 1.613 . S
S1538 N1540 1.610 . S
N1539 S1538 1.613 . S
N1539 C1542 1.350 . S
N1540 S1538 1.610 . S
N1540 C1541 1.351 . S
C1541 C1535 1.428 . S
C1541 N1540 1.351 . S
C1541 C1542 1.434 . S
C1542 C1533 1.429 . S
C1542 N1539 1.350 . S
C1542 C1541 1.434 . S
C1543 C1544 1.369 . S
C1543 C1545 1.419 . S
C1543 H1547 0.930 . S
C1544 C1543 1.369 . S
C1544 C1553 1.429 . S
C1545 C1543 1.419 . S
C1545 C1546 1.363 . S
C1545 H1548 0.929 . S
C1546 C1545 1.363 . S
C1546 C1552 1.428 . S
H1547 C1543 0.930 . S
H1548 C1545 0.929 . S
S1549 N1550 1.613 . S
S1549 N1551 1.610 . S
N1550 S1549 1.613 . S
N1550 C1553 1.350 . S
N1551 S1549 1.610 . S
N1551 C1552 1.351 . S
C1552 C1546 1.428 . S
C1552 N1551 1.351 . S
C1552 C1553 1.434 . S
C1553 C1544 1.429 . S
C1553 N1550 1.350 . S
C1553 C1552 1.434 . S
C1554 C1555 1.369 . S
C1554 C1556 1.419 1_455 S
C1554 H1558 0.930 . S
C1555 C1554 1.369 . S
C1555 C1564 1.429 . S
C1556 C1554 1.419 1_655 S
C1556 C1557 1.363 . S
C1556 H1559 0.929 . S
C1557 C1556 1.363 . S
C1557 C1563 1.428 . S
H1558 C1554 0.930 . S
H1559 C1556 0.929 . S
S1560 N1561 1.613 1_655 S
S1560 N1562 1.610 . S
N1561 S1560 1.613 1_455 S
N1561 C1564 1.350 . S
N1562 S1560 1.610 . S
N1562 C1563 1.351 . S
C1563 C1557 1.428 . S
C1563 N1562 1.351 . S
C1563 C1564 1.434 1_655 S
C1564 C1555 1.429 . S
C1564 N1561 1.350 . S
C1564 C1563 1.434 1_455 S
C1565 C1566 1.369 . S
C1565 C1567 1.419 . S
C1565 H1569 0.930 . S
C1566 C1565 1.369 . S
C1566 C1575 1.429 . S
C1567 C1565 1.419 . S
C1567 C1568 1.363 . S
C1567 H1570 0.929 . S
C1568 C1567 1.363 . S
C1568 C1574 1.428 . S
H1569 C1565 0.930 . S
H1570 C1567 0.929 . S
S1571 N1572 1.613 . S
S1571 N1573 1.610 . S
N1572 S1571 1.613 . S
N1572 C1575 1.350 . S
N1573 S1571 1.610 . S
N1573 C1574 1.351 . S
C1574 C1568 1.428 . S
C1574 N1573 1.351 . S
C1574 C1575 1.434 . S
C1575 C1566 1.429 . S
C1575 N1572 1.350 . S
C1575 C1574 1.434 . S
C1576 C1577 1.369 . S
C1576 C1578 1.419 1_545 S
C1576 H1580 0.930 . S
C1577 C1576 1.369 . S
C1577 C1586 1.429 . S
C1578 C1576 1.419 1_565 S
C1578 C1579 1.363 . S
C1578 H1581 0.929 . S
C1579 C1578 1.363 . S
C1579 C1585 1.428 . S
H1580 C1576 0.930 . S
H1581 C1578 0.929 . S
S1582 N1583 1.613 1_565 S
S1582 N1584 1.610 . S
N1583 S1582 1.613 1_545 S
N1583 C1586 1.350 . S
N1584 S1582 1.610 . S
N1584 C1585 1.351 . S
C1585 C1579 1.428 . S
C1585 N1584 1.351 . S
C1585 C1586 1.434 1_565 S
C1586 C1577 1.429 . S
C1586 N1583 1.350 . S
C1586 C1585 1.434 1_545 S
C1587 C1588 1.369 . S
C1587 C1589 1.419 1_565 S
C1587 H1591 0.930 . S
C1588 C1587 1.369 . S
C1588 C1597 1.429 . S
C1589 C1587 1.419 1_545 S
C1589 C1590 1.363 . S
C1589 H1592 0.929 . S
C1590 C1589 1.363 . S
C1590 C1596 1.428 . S
H1591 C1587 0.930 . S
H1592 C1589 0.929 . S
S1593 N1594 1.613 . S
S1593 N1595 1.610 1_565 S
N1594 S1593 1.613 . S
N1594 C1597 1.350 . S
N1595 S1593 1.610 1_545 S
N1595 C1596 1.351 . S
C1596 C1590 1.428 . S
C1596 N1595 1.351 . S
C1596 C1597 1.434 1_545 S
C1597 C1588 1.429 . S
C1597 N1594 1.350 . S
C1597 C1596 1.434 1_565 S
C1598 C1599 1.369 . S
C1598 C1600 1.419 1_655 S
C1598 H1602 0.930 . S
C1599 C1598 1.369 . S
C1599 C1608 1.429 . S
C1600 C1598 1.419 1_455 S
C1600 C1601 1.363 . S
C1600 H1603 0.929 . S
C1601 C1600 1.363 . S
C1601 C1607 1.428 . S
H1602 C1598 0.930 . S
H1603 C1600 0.929 . S
S1604 N1605 1.613 . S
S1604 N1606 1.610 1_655 S
N1605 S1604 1.613 . S
N1605 C1608 1.350 . S
N1606 S1604 1.610 1_455 S
N1606 C1607 1.351 . S
C1607 C1601 1.428 . S
C1607 N1606 1.351 . S
C1607 C1608 1.434 1_455 S
C1608 C1599 1.429 . S
C1608 N1605 1.350 . S
C1608 C1607 1.434 1_655 S
C1609 C1610 1.369 . S
C1609 C1611 1.419 . S
C1609 H1613 0.930 . S
C1610 C1609 1.369 . S
C1610 C1619 1.429 . S
C1611 C1609 1.419 . S
C1611 C1612 1.363 . S
C1611 H1614 0.929 . S
C1612 C1611 1.363 . S
C1612 C1618 1.428 . S
H1613 C1609 0.930 . S
H1614 C1611 0.929 . S
S1615 N1616 1.613 . S
S1615 N1617 1.610 . S
N1616 S1615 1.613 . S
N1616 C1619 1.350 . S
N1617 S1615 1.610 . S
N1617 C1618 1.351 . S
C1618 C1612 1.428 . S
C1618 N1617 1.351 . S
C1618 C1619 1.434 . S
C1619 C1610 1.429 . S
C1619 N1616 1.350 . S
C1619 C1618 1.434 . S
C829 N94 1.243 . S
C831 N2 1.248 . S
C840 N117 1.246 . S
C842 N25 1.245 . S
C851 N71 1.251 . S
C853 N48 1.247 . S
C862 N232 1.258 . S
C864 N140 1.253 . S
C873 N163 1.249 . S
C875 N255 1.245 . S
C884 N209 1.243 . S
C886 N186 1.250 . S
C895 N278 1.221 . S
C897 N370 1.216 . S
C906 N393 1.204 . S
C908 N301 1.208 1_565 S
C917 N324 1.219 1_455 S
C919 N347 1.214 . S
C928 N416 1.215 . S
C930 N508 1.218 1_565 S
C939 N531 1.207 1_455 S
C941 N439 1.206 . S
C950 N462 1.215 . S
C952 N485 1.218 . S
C961 N646 1.208 1_545 S
C963 N554 1.210 . S
C972 N577 1.217 . S
C974 N669 1.218 1_655 S
C983 N623 1.213 . S
C985 N600 1.209 . S
C994 N784 1.205 . S
C996 N692 1.208 . S
C1005 N715 1.219 1_545 S
C1007 N807 1.217 . S
C1016 N738 1.210 1_655 S
C1018 N761 1.206 . S
C1027 N265 1.634 1_556 S
C1029 N12 1.634 1_556 S
C1038 N35 1.634 1_556 S
C1040 N219 1.634 1_556 S
C1049 N242 1.633 1_556 S
C1051 N58 1.633 1_556 S
C1060 N173 1.635 1_554 S
C1062 N81 1.634 1_554 S
C1071 N104 1.636 1_554 S
C1073 N196 1.635 1_554 S
C1082 N150 1.631 1_554 S
C1084 N127 1.632 1_554 S
C1093 N288 1.706 . S
C1095 N541 1.706 . S
C1104 N495 1.703 . S
C1106 N311 1.704 . S
C1115 N518 1.709 . S
C1117 N334 1.708 . S
C1126 N357 1.678 . S
C1128 N449 1.679 . S
C1137 N380 1.683 . S
C1139 N472 1.682 . S
C1148 N403 1.683 . S
C1150 N426 1.683 . S
C1159 N817 1.677 . S
C1161 N564 1.678 . S
C1170 N587 1.682 . S
C1172 N771 1.681 . S
C1181 N610 1.679 . S
C1183 N794 1.680 . S
C1192 N725 1.705 . S
C1194 N633 1.705 . S
C1203 N748 1.709 . S
C1205 N656 1.708 . S
C1214 N702 1.706 . S
C1216 N679 1.707 . S
C1225 C361 1.886 . S
C1227 C16 1.885 . S
C1236 C384 1.886 . S
C1238 C39 1.886 . S
C1247 C62 1.887 . S
C1249 C407 1.883 . S
C1258 C85 1.887 . S
C1260 C568 1.883 . S
C1269 C108 1.888 . S
C1271 C591 1.884 . S
C1280 C131 1.888 . S
C1282 C614 1.883 . S
C1291 C154 1.888 . S
C1293 C775 1.883 . S
C1302 C177 1.888 . S
C1304 C798 1.884 . S
C1313 C200 1.888 . S
C1315 C821 1.884 . S
C1324 C223 1.887 . S
C1326 C430 1.883 . S
C1335 C453 1.885 . S
C1337 C246 1.885 . S
C1346 C476 1.886 . S
C1348 C269 1.886 . S
C1357 C637 2.154 . S
C1359 C292 2.154 . S
C1368 C315 2.153 . S
C1370 C660 2.154 . S
C1379 C683 2.154 . S
C1381 C338 2.154 . S
C1390 C499 2.154 . S
C1392 C706 2.154 . S
C1401 C729 2.153 . S
C1403 C522 2.153 . S
C1412 C752 2.154 . S
C1414 C545 2.154 . S
C1423 C7 2.025 . S
C1425 C674 2.031 . S
C1434 C30 2.018 . S
C1436 C628 2.037 . S
C1445 C53 2.020 . S
C1447 C651 2.037 . S
C1456 C76 2.024 . S
C1458 C306 2.030 . S
C1467 C329 2.035 . S
C1469 C99 2.020 . S
C1478 C283 2.036 . S
C1480 C122 2.021 . S
C1489 C536 2.036 . S
C1491 C145 2.021 . S
C1500 C490 2.032 . S
C1502 C168 2.026 . S
C1511 C513 2.028 . S
C1513 C191 2.024 . S
C1522 C720 2.028 . S
C1524 C214 2.023 . S
C1533 C743 2.032 . S
C1535 C237 2.020 . S
C1544 C697 2.036 . S
C1546 C260 2.023 . S
C1555 C352 1.791 . S
C1557 C582 1.798 . S
C1566 C605 1.794 . S
C1568 C375 1.796 . S
C1577 C559 1.793 . S
C1579 C398 1.801 . S
C1588 C421 1.801 . S
C1590 C812 1.793 . S
C1599 C766 1.798 . S
C1601 C444 1.799 . S
C1610 C467 1.796 . S
C1612 C789 1.801 . S
