# Generated by pormake.
# Topology can, (4)-cn, num edge types: 1
# Building blocks:
#     Node 0, Type 0, BuildingBlock: ICAMEG_clean_sbu_1, # of connection points: 4
#     Node 1, Type 0, BuildingBlock: ICAMEG_clean_sbu_1, # of connection points: 4
#     Node 2, Type 0, BuildingBlock: ICAMEG_clean_sbu_1, # of connection points: 4
#     Node 3, Type 0, BuildingBlock: ICAMEG_clean_sbu_1, # of connection points: 4
#     Node 4, Type 0, BuildingBlock: ICAMEG_clean_sbu_1, # of connection points: 4
#     Node 5, Type 0, BuildingBlock: ICAMEG_clean_sbu_1, # of connection points: 4
#     Node 6, Type 0, BuildingBlock: ICAMEG_clean_sbu_1, # of connection points: 4
#     Node 7, Type 0, BuildingBlock: ICAMEG_clean_sbu_1, # of connection points: 4
#     Node 8, Type 0, BuildingBlock: ICAMEG_clean_sbu_1, # of connection points: 4
#     Node 9, Type 0, BuildingBlock: ICAMEG_clean_sbu_1, # of connection points: 4
#     Node 10, Type 0, BuildingBlock: ICAMEG_clean_sbu_1, # of connection points: 4
#     Node 11, Type 0, BuildingBlock: ICAMEG_clean_sbu_1, # of connection points: 4
#     Edge 12, Type (0, 0), BuildingBlock: XIVTED_clean_linker_0, # of connection points: 2
#     Edge 13, Type (0, 0), BuildingBlock: XIVTED_clean_linker_0, # of connection points: 2
#     Edge 14, Type (0, 0), BuildingBlock: XIVTED_clean_linker_0, # of connection points: 2
#     Edge 15, Type (0, 0), BuildingBlock: XIVTED_clean_linker_0, # of connection points: 2
#     Edge 16, Type (0, 0), BuildingBlock: XIVTED_clean_linker_0, # of connection points: 2
#     Edge 17, Type (0, 0), BuildingBlock: XIVTED_clean_linker_0, # of connection points: 2
#     Edge 18, Type (0, 0), BuildingBlock: XIVTED_clean_linker_0, # of connection points: 2
#     Edge 19, Type (0, 0), BuildingBlock: XIVTED_clean_linker_0, # of connection points: 2
#     Edge 20, Type (0, 0), BuildingBlock: XIVTED_clean_linker_0, # of connection points: 2
#     Edge 21, Type (0, 0), BuildingBlock: XIVTED_clean_linker_0, # of connection points: 2
#     Edge 22, Type (0, 0), BuildingBlock: XIVTED_clean_linker_0, # of connection points: 2
#     Edge 23, Type (0, 0), BuildingBlock: XIVTED_clean_linker_0, # of connection points: 2
#     Edge 24, Type (0, 0), BuildingBlock: XIVTED_clean_linker_0, # of connection points: 2
#     Edge 25, Type (0, 0), BuildingBlock: XIVTED_clean_linker_0, # of connection points: 2
#     Edge 26, Type (0, 0), BuildingBlock: XIVTED_clean_linker_0, # of connection points: 2
#     Edge 27, Type (0, 0), BuildingBlock: XIVTED_clean_linker_0, # of connection points: 2
#     Edge 28, Type (0, 0), BuildingBlock: XIVTED_clean_linker_0, # of connection points: 2
#     Edge 29, Type (0, 0), BuildingBlock: XIVTED_clean_linker_0, # of connection points: 2
#     Edge 30, Type (0, 0), BuildingBlock: XIVTED_clean_linker_0, # of connection points: 2
#     Edge 31, Type (0, 0), BuildingBlock: XIVTED_clean_linker_0, # of connection points: 2
#     Edge 32, Type (0, 0), BuildingBlock: XIVTED_clean_linker_0, # of connection points: 2
#     Edge 33, Type (0, 0), BuildingBlock: XIVTED_clean_linker_0, # of connection points: 2
#     Edge 34, Type (0, 0), BuildingBlock: XIVTED_clean_linker_0, # of connection points: 2
#     Edge 35, Type (0, 0), BuildingBlock: XIVTED_clean_linker_0, # of connection points: 2
# Relax obj value: 0.056
# Max RMSD: 0.076
# Mean RMSD: 0.076
data_MOF--net-can--node1-ICAMEG_clean_sbu_1--edge1-XIVTED_clean_linker_0
_symmetry_space_group_name_H-M    P1
_symmetry_Int_Tables_number       1
_symmetry_cell_setting            triclinic
loop_
_symmetry_equiv_pos_as_xyz
'x, y, z'
_cell_length_a     56.985982
_cell_length_b     56.976424
_cell_length_c     30.532617
_cell_angle_alpha  89.993467
_cell_angle_beta   90.005816
_cell_angle_gamma 120.01069
loop_
_atom_site_label
_atom_site_type_symbol
_atom_site_fract_x
_atom_site_fract_y
_atom_site_fract_z
_atom_type_partial_charge
Co0 Co 0.02074 0.37618 0.2514 0.0
Co1 Co 0.08516 0.41879 0.21255 0.0
O2 O 0.06009 0.39114 0.254 0.0
C3 C 0.03342 0.39254 0.34395 0.0
O4 O 0.05434 0.41521 0.33029 0.0
C5 C 0.10755 0.3812 0.22987 0.0
O6 O 0.08554 0.36436 0.25124 0.0
O7 O 0.06427 0.39539 0.16212 0.0
O8 O 0.02151 0.37775 0.18595 0.0
H9 H 0.10839 0.47764 0.07874 0.0
H10 H 0.0404 0.34599 0.30458 0.0
O11 O 0.01843 0.37424 0.31669 0.0
H12 H 0.98326 0.28212 0.18963 0.0
H13 H 0.92395 0.31405 0.29705 0.0
H14 H 0.98473 0.38951 0.20024 0.0
H15 H 0.98956 0.32813 0.19326 0.0
H16 H 0.97334 0.33219 0.29891 0.0
O17 O 0.10965 0.40241 0.2119 0.0
H18 H 0.07781 0.44375 0.13239 0.0
H19 H 0.1454 0.4515 0.20353 0.0
H20 H 0.93544 0.37184 0.19704 0.0
H21 H 0.0343 0.29998 0.3026 0.0
H22 H 0.90469 0.33384 0.2457 0.0
H23 H 0.00566 0.26773 0.24465 0.0
O24 O 0.02604 0.41321 0.25454 0.0
H25 H 0.13054 0.43871 0.36038 0.0
H26 H 0.10734 0.47713 0.23409 0.0
H27 H 0.13209 0.50657 0.29648 0.0
H28 H 0.144 0.48744 0.36016 0.0
H29 H 0.10545 0.40992 0.29778 0.0
H30 H 0.1767 0.4853 0.15045 0.0
H31 H 0.15823 0.49866 0.0876 0.0
O32 O 0.06249 0.43694 0.2118 0.0
C33 C 0.03873 0.383 0.15546 0.0
C34 C 0.11669 0.47204 0.10606 0.0
C35 C 0.15502 0.47631 0.14627 0.0
N36 N 0.10979 0.44577 0.17121 0.0
C37 C 0.09947 0.45292 0.13661 0.0
C38 C 0.13719 0.4571 0.17616 0.0
C39 C 0.14465 0.48381 0.11103 0.0
C40 C 0.02779 0.33202 0.27943 0.0
N41 N 0.01559 0.33986 0.24884 0.0
C42 C 0.02446 0.30602 0.27839 0.0
C43 C 0.00842 0.28795 0.24585 0.0
C44 C 0.99589 0.29603 0.21492 0.0
C45 C 0.9997 0.3222 0.21696 0.0
C46 C 0.93713 0.33057 0.27561 0.0
C47 C 0.97146 0.37286 0.22132 0.0
C48 C 0.96512 0.34096 0.27657 0.0
N49 N 0.98188 0.36174 0.24944 0.0
C50 C 0.94358 0.36299 0.21945 0.0
C51 C 0.92634 0.34168 0.24679 0.0
C52 C 0.04239 0.43463 0.23387 0.0
C53 C 0.12569 0.44735 0.33264 0.0
C54 C 0.11243 0.46859 0.26161 0.0
C55 C 0.12648 0.4854 0.29687 0.0
C56 C 0.13317 0.47466 0.33256 0.0
N57 N 0.10535 0.44183 0.26169 0.0
C58 C 0.11166 0.43115 0.29679 0.0
Co59 Co 0.64882 0.01837 0.74936 0.0
Co60 Co 0.66846 0.08288 0.71389 0.0
O61 O 0.67159 0.0578 0.7541 0.0
C62 C 0.64151 0.02904 0.84133 0.0
O63 O 0.6388 0.04933 0.82728 0.0
C64 C 0.72907 0.10501 0.71711 0.0
O65 O 0.72618 0.081 0.70976 0.0
O66 O 0.67292 0.06384 0.66224 0.0
O67 O 0.65029 0.02042 0.68418 0.0
H68 H 0.63401 0.10781 0.58053 0.0
H69 H 0.69816 0.04191 0.80442 0.0
O70 O 0.64649 0.01499 0.81454 0.0
H71 H 0.71157 0.98676 0.69357 0.0
H72 H 0.61768 0.92184 0.79235 0.0
H73 H 0.60224 0.98132 0.69367 0.0
H74 H 0.66962 0.98928 0.69447 0.0
H75 H 0.64665 0.97153 0.79678 0.0
O76 O 0.70853 0.10827 0.7176 0.0
H77 H 0.63764 0.07658 0.63237 0.0
H78 H 0.69408 0.14319 0.70923 0.0
H79 H 0.57293 0.93173 0.68785 0.0
H80 H 0.74037 0.0398 0.80497 0.0
H81 H 0.58058 0.90163 0.73745 0.0
H82 H 0.74729 0.01211 0.74918 0.0
O83 O 0.61539 0.02117 0.7493 0.0
H84 H 0.69142 0.12499 0.86376 0.0
H85 H 0.63049 0.10293 0.73683 0.0
H86 H 0.62402 0.12514 0.80123 0.0
H87 H 0.65469 0.13642 0.86529 0.0
H88 H 0.69685 0.10235 0.79895 0.0
H89 H 0.69122 0.17513 0.65803 0.0
H90 H 0.66093 0.15748 0.59322 0.0
O91 O 0.62806 0.0591 0.71059 0.0
C92 C 0.66167 0.03841 0.65455 0.0
C93 C 0.64722 0.11575 0.60871 0.0
C94 C 0.67936 0.15353 0.65217 0.0
N95 N 0.66592 0.10801 0.67393 0.0
C96 C 0.64931 0.09816 0.63824 0.0
C97 C 0.68096 0.13533 0.68098 0.0
C98 C 0.66235 0.14361 0.61583 0.0
C99 C 0.70096 0.02967 0.78025 0.0
N100 N 0.68143 0.01568 0.74955 0.0
C101 C 0.72493 0.02861 0.78063 0.0
C102 C 0.72882 0.0131 0.74928 0.0
C103 C 0.70879 0.99889 0.71805 0.0
C104 C 0.68511 1.00046 0.71864 0.0
C105 C 0.61419 0.93474 0.77049 0.0
C106 C 0.60579 0.96835 0.71517 0.0
C107 C 0.63049 0.96289 0.77291 0.0
N108 N 0.62627 0.97929 0.74527 0.0
C109 C 0.58909 0.94029 0.71181 0.0
C110 C 0.59338 0.92341 0.73968 0.0
C111 C 0.61 0.03758 0.7294 0.0
C112 C 0.67792 0.12019 0.83605 0.0
C113 C 0.64369 0.10745 0.76472 0.0
C114 C 0.64005 0.12019 0.80102 0.0
C115 C 0.65729 0.12655 0.83692 0.0
N116 N 0.66391 0.10117 0.76412 0.0
C117 C 0.68095 0.10745 0.79917 0.0
Co118 Co 0.63338 0.64959 0.25056 0.0
Co119 Co 0.58884 0.66834 0.21136 0.0
O120 O 0.61711 0.67284 0.25296 0.0
C121 C 0.61746 0.64574 0.34344 0.0
O122 O 0.59426 0.64284 0.33012 0.0
C123 C 0.62604 0.72902 0.21772 0.0
O124 O 0.64736 0.72605 0.22142 0.0
O125 O 0.61323 0.673 0.16136 0.0
O126 O 0.63143 0.64831 0.18491 0.0
H127 H 0.5317 0.63158 0.07599 0.0
H128 H 0.66152 0.70069 0.30101 0.0
O129 O 0.63589 0.64987 0.31589 0.0
H130 H 0.72674 0.70848 0.18776 0.0
H131 H 0.69852 0.61869 0.29625 0.0
H132 H 0.62164 0.60045 0.2002 0.0
H133 H 0.68169 0.66742 0.19271 0.0
H134 H 0.67873 0.64854 0.2977 0.0
O135 O 0.60252 0.70841 0.2126 0.0
H136 H 0.56628 0.63674 0.12971 0.0
H137 H 0.55233 0.69169 0.2038 0.0
H138 H 0.64096 0.57021 0.1974 0.0
H139 H 0.70653 0.74201 0.29763 0.0
H140 H 0.67968 0.57925 0.24569 0.0
H141 H 0.73945 0.74612 0.24058 0.0
O142 O 0.59687 0.61686 0.25477 0.0
H143 H 0.56622 0.69208 0.35789 0.0
H144 H 0.5313 0.62827 0.23373 0.0
H145 H 0.50149 0.62151 0.29668 0.0
H146 H 0.51888 0.65361 0.3593 0.0
H147 H 0.59549 0.69787 0.29458 0.0
H148 H 0.51775 0.68728 0.1507 0.0
H149 H 0.50716 0.65697 0.08631 0.0
O150 O 0.5732 0.62792 0.20906 0.0
C151 C 0.62609 0.66033 0.15453 0.0
C152 C 0.53609 0.64481 0.10395 0.0
C153 C 0.52829 0.6761 0.14585 0.0
N154 N 0.56127 0.66443 0.16994 0.0
C155 C 0.55562 0.64778 0.13453 0.0
C156 C 0.54796 0.67858 0.17574 0.0
C157 C 0.52235 0.65908 0.10974 0.0
C158 C 0.67584 0.70226 0.27634 0.0
N159 N 0.66899 0.68169 0.2471 0.0
C160 C 0.70125 0.72573 0.27448 0.0
C161 C 0.71969 0.72804 0.24241 0.0
C162 C 0.71256 0.70695 0.21273 0.0
C163 C 0.68697 0.68379 0.21556 0.0
C164 C 0.68169 0.61457 0.27498 0.0
C165 C 0.6386 0.60461 0.22111 0.0
C166 C 0.67037 0.63137 0.27571 0.0
N167 N 0.64919 0.62635 0.24881 0.0
C168 C 0.64941 0.58738 0.21946 0.0
C169 C 0.67111 0.59245 0.2466 0.0
C170 C 0.57567 0.61082 0.23266 0.0
C171 C 0.55838 0.67801 0.33074 0.0
C172 C 0.5391 0.64225 0.26093 0.0
C173 C 0.52208 0.63837 0.29644 0.0
C174 C 0.53184 0.65639 0.33154 0.0
N175 N 0.56512 0.66352 0.26036 0.0
C176 C 0.57482 0.68127 0.29468 0.0
Co177 Co 0.99088 0.63061 0.74683 0.0
Co178 Co 0.92416 0.59177 0.71285 0.0
O179 O 0.95208 0.61858 0.75217 0.0
C180 C 0.97916 0.61366 0.83955 0.0
O181 O 0.95668 0.59217 0.82681 0.0
C182 C 0.90773 0.63413 0.73025 0.0
O183 O 0.93018 0.64928 0.75199 0.0
O184 O 0.94533 0.61243 0.66011 0.0
O185 O 0.98855 0.63033 0.68186 0.0
H186 H 0.89182 0.52887 0.58348 0.0
H187 H 0.97544 0.66237 0.80492 0.0
O188 O 0.99466 0.63126 0.81183 0.0
H189 H 0.03338 0.72648 0.69083 0.0
H190 H 0.08946 0.6862 0.7879 0.0
H191 H 0.02307 0.61489 0.69033 0.0
H192 H 0.02362 0.67919 0.6905 0.0
H193 H 0.04084 0.67141 0.79341 0.0
O194 O 0.90358 0.61227 0.71184 0.0
H195 H 0.92583 0.56209 0.63438 0.0
H196 H 0.86377 0.56519 0.70677 0.0
H197 H 0.07154 0.62922 0.68347 0.0
H198 H 0.98505 0.70964 0.80693 0.0
H199 H 0.10511 0.66512 0.7325 0.0
H200 H 0.0141 0.74203 0.74945 0.0
O201 O 0.98304 0.59248 0.74646 0.0
H202 H 0.88463 0.58085 0.86434 0.0
H203 H 0.89448 0.53327 0.73718 0.0
H204 H 0.86923 0.50702 0.80186 0.0
H205 H 0.86399 0.53079 0.86604 0.0
H206 H 0.91012 0.6063 0.7995 0.0
H207 H 0.82915 0.53222 0.6564 0.0
H208 H 0.84309 0.51372 0.59434 0.0
O209 O 0.94267 0.56961 0.7129 0.0
C210 C 0.97077 0.62472 0.65228 0.0
C211 C 0.88549 0.53672 0.61048 0.0
C212 C 0.85032 0.53863 0.65135 0.0
N213 N 0.89681 0.56545 0.67368 0.0
C214 C 0.90464 0.55548 0.63948 0.0
C215 C 0.87004 0.55738 0.67968 0.0
C216 C 0.85815 0.52825 0.61656 0.0
C217 C 0.98826 0.67639 0.77997 0.0
N218 N 0.99877 0.66793 0.74744 0.0
C219 C 0.99355 0.70311 0.78119 0.0
C220 C 0.00982 0.72126 0.74891 0.0
C221 C 0.0206 0.71253 0.71596 0.0
C222 C 0.01485 0.68566 0.71577 0.0
C223 C 0.07504 0.67057 0.76629 0.0
C224 C 0.03758 0.63064 0.7116 0.0
C225 C 0.04747 0.66208 0.7693 0.0
N226 N 0.02916 0.64245 0.74198 0.0
C227 C 0.06499 0.63862 0.70764 0.0
C228 C 0.08381 0.65874 0.73519 0.0
C229 C 0.96394 0.57098 0.7294 0.0
C230 C 0.88657 0.57022 0.83644 0.0
C231 C 0.89243 0.54384 0.76491 0.0
C232 C 0.87801 0.52882 0.80147 0.0
C233 C 0.87507 0.54215 0.83744 0.0
N234 N 0.90351 0.57138 0.76392 0.0
C235 C 0.90083 0.58456 0.79928 0.0
Co236 Co 0.36068 0.98894 0.24797 0.0
Co237 Co 0.3391 0.92353 0.21255 0.0
O238 O 0.3365 0.94947 0.25185 0.0
C239 C 0.367 0.97692 0.33969 0.0
O240 O 0.36825 0.95585 0.32538 0.0
C241 C 0.27862 0.90295 0.22057 0.0
O242 O 0.28278 0.92679 0.23287 0.0
O243 O 0.33823 0.94404 0.15993 0.0
O244 O 0.35922 0.9873 0.18289 0.0
H245 H 0.3761 0.89737 0.08392 0.0
H246 H 0.31218 0.96815 0.30479 0.0
O247 O 0.36314 0.99186 0.31313 0.0
H248 H 0.30068 0.02414 0.19313 0.0
H249 H 0.39517 0.08584 0.29277 0.0
H250 H 0.40784 0.02517 0.19261 0.0
H251 H 0.34113 0.01899 0.19273 0.0
H252 H 0.36475 0.03633 0.29642 0.0
O253 O 0.29851 0.89971 0.21032 0.0
H254 H 0.37246 0.9291 0.13464 0.0
H255 H 0.3111 0.86305 0.20654 0.0
H256 H 0.43859 0.07458 0.18759 0.0
H257 H 0.27159 0.97311 0.30683 0.0
H258 H 0.43235 0.10527 0.23794 0.0
H259 H 0.2656 1.00118 0.25058 0.0
O260 O 0.39345 0.98496 0.24762 0.0
H261 H 0.30852 0.88086 0.36118 0.0
H262 H 0.37275 0.89933 0.24029 0.0
H263 H 0.37484 0.87531 0.30594 0.0
H264 H 0.34247 0.86582 0.36697 0.0
H265 H 0.30748 0.90523 0.29526 0.0
H266 H 0.31389 0.83064 0.15636 0.0
H267 H 0.34665 0.84775 0.09462 0.0
O268 O 0.37964 0.94521 0.21399 0.0
C269 C 0.34905 0.96949 0.15278 0.0
C270 C 0.36178 0.88966 0.11075 0.0
C271 C 0.32683 0.85221 0.15136 0.0
N272 N 0.34165 0.89796 0.1736 0.0
C273 C 0.35966 0.90753 0.13962 0.0
C274 C 0.32527 0.87068 0.17957 0.0
C275 C 0.34523 0.86183 0.11674 0.0
C276 C 0.30983 0.98061 0.28046 0.0
N277 N 0.32897 0.99321 0.24864 0.0
C278 C 0.28675 0.98325 0.28166 0.0
C279 C 0.28338 0.99896 0.25005 0.0
C280 C 0.30303 0.01181 0.21776 0.0
C281 C 0.32583 0.00869 0.21756 0.0
C282 C 0.39806 0.07268 0.27059 0.0
C283 C 0.40489 0.03841 0.21444 0.0
C284 C 0.38093 0.04463 0.27255 0.0
N285 N 0.38439 0.02789 0.24452 0.0
C286 C 0.42241 0.06636 0.21153 0.0
C287 C 0.41891 0.08357 0.23981 0.0
C288 C 0.39813 0.96728 0.23069 0.0
C289 C 0.32269 0.8848 0.33476 0.0
C290 C 0.35878 0.89552 0.26679 0.0
C291 C 0.35996 0.88177 0.30384 0.0
C292 C 0.34177 0.87642 0.33803 0.0
N293 N 0.34 0.90369 0.26374 0.0
C294 C 0.3221 0.89848 0.29718 0.0
Co295 Co 0.37989 0.36008 0.74737 0.0
Co296 Co 0.42052 0.33443 0.71291 0.0
O297 O 0.39263 0.3338 0.75162 0.0
C298 C 0.39665 0.36461 0.83991 0.0
O299 O 0.41848 0.36449 0.82653 0.0
C300 C 0.37855 0.27449 0.72356 0.0
O301 O 0.36094 0.27988 0.74176 0.0
O302 O 0.40037 0.33535 0.65983 0.0
O303 O 0.38068 0.35894 0.68224 0.0
H304 H 0.48517 0.36869 0.58585 0.0
H305 H 0.34879 0.31161 0.80323 0.0
O306 O 0.37876 0.36221 0.81255 0.0
H307 H 0.28455 0.3057 0.68961 0.0
H308 H 0.32215 0.40037 0.79022 0.0
H309 H 0.39474 0.40847 0.6925 0.0
H310 H 0.33143 0.34406 0.6907 0.0
H311 H 0.33806 0.36736 0.79445 0.0
O312 O 0.40128 0.29361 0.70983 0.0
H313 H 0.45056 0.36739 0.63587 0.0
H314 H 0.44931 0.30271 0.70706 0.0
H315 H 0.37929 0.4418 0.68692 0.0
H316 H 0.30194 0.27308 0.80381 0.0
H317 H 0.34274 0.43786 0.73603 0.0
H318 H 0.26949 0.26989 0.74656 0.0
O319 O 0.41772 0.39117 0.74824 0.0
H320 H 0.42916 0.30219 0.86243 0.0
H321 H 0.47844 0.36468 0.74114 0.0
H322 H 0.50346 0.36489 0.80703 0.0
H323 H 0.47882 0.33337 0.86826 0.0
H324 H 0.4049 0.303 0.79633 0.0
H325 H 0.48369 0.30314 0.65755 0.0
H326 H 0.50196 0.33638 0.59653 0.0
O327 O 0.44171 0.37498 0.71487 0.0
C328 C 0.38733 0.34779 0.65231 0.0
C329 C 0.47742 0.35415 0.61238 0.0
C330 C 0.47655 0.31733 0.65257 0.0
N331 N 0.44799 0.33509 0.67447 0.0
C332 C 0.45786 0.35336 0.64087 0.0
C333 C 0.45701 0.31712 0.68041 0.0
C334 C 0.48681 0.336 0.61836 0.0
C335 C 0.33473 0.31047 0.77843 0.0
N336 N 0.3429 0.33001 0.74686 0.0
C337 C 0.30825 0.28856 0.77882 0.0
C338 C 0.29007 0.28676 0.74666 0.0
C339 C 0.29852 0.30681 0.71465 0.0
C340 C 0.32516 0.32842 0.71527 0.0
C341 C 0.33805 0.40227 0.76858 0.0
C342 C 0.37872 0.40653 0.7138 0.0
C343 C 0.34718 0.38367 0.77088 0.0
N344 N 0.36718 0.38587 0.74352 0.0
C345 C 0.3701 0.4255 0.71057 0.0
C346 C 0.34961 0.4233 0.73816 0.0
C347 C 0.43965 0.39434 0.73175 0.0
C348 C 0.44016 0.31591 0.83587 0.0
C349 C 0.46752 0.35102 0.76764 0.0
C350 C 0.48183 0.35115 0.80486 0.0
C351 C 0.468 0.33345 0.83917 0.0
N352 N 0.44021 0.33367 0.76448 0.0
C353 C 0.42653 0.31633 0.79811 0.0
Co354 Co 0.63059 0.9885 0.25048 0.0
Co355 Co 0.58699 0.92417 0.28755 0.0
O356 O 0.61468 0.94908 0.2464 0.0
C357 C 0.61324 0.97712 0.1581 0.0
O358 O 0.59033 0.95651 0.17171 0.0
C359 C 0.62547 0.90208 0.2816 0.0
O360 O 0.64683 0.92638 0.2851 0.0
O361 O 0.6112 0.94371 0.3382 0.0
O362 O 0.62992 0.9869 0.31579 0.0
H363 H 0.52958 0.90022 0.42315 0.0
H364 H 0.65757 0.96576 0.19646 0.0
O365 O 0.63186 0.99154 0.18528 0.0
H366 H 0.72522 0.02263 0.3073 0.0
H367 H 0.69444 0.08523 0.20642 0.0
H368 H 0.61972 0.0251 0.30492 0.0
H369 H 0.68018 0.01882 0.30571 0.0
H370 H 0.67481 0.03564 0.20286 0.0
O371 O 0.6017 0.89879 0.28378 0.0
H372 H 0.56371 0.93107 0.37003 0.0
H373 H 0.5522 0.8639 0.29339 0.0
H374 H 0.63891 0.07458 0.30984 0.0
H375 H 0.70249 0.9692 0.19657 0.0
H376 H 0.67654 0.10501 0.26033 0.0
H377 H 0.73665 0.99775 0.25237 0.0
O378 O 0.59394 0.98473 0.24977 0.0
H379 H 0.56601 0.88075 0.13866 0.0
H380 H 0.52866 0.90386 0.26641 0.0
H381 H 0.49919 0.88105 0.20304 0.0
H382 H 0.51782 0.86924 0.13856 0.0
H383 H 0.59488 0.90401 0.20246 0.0
H384 H 0.51814 0.83234 0.34586 0.0
H385 H 0.50654 0.85047 0.41122 0.0
O386 O 0.57023 0.94782 0.29136 0.0
C387 C 0.62452 0.96921 0.34555 0.0
C388 C 0.53442 0.89208 0.39475 0.0
C389 C 0.52803 0.85398 0.35141 0.0
N390 N 0.55988 0.89933 0.32853 0.0
C391 C 0.55369 0.90945 0.36451 0.0
C392 C 0.54742 0.87196 0.32188 0.0
C393 C 0.52152 0.86417 0.38806 0.0
C394 C 0.67242 0.97838 0.22062 0.0
N395 N 0.66629 0.99211 0.25096 0.0
C396 C 0.69778 0.98018 0.22062 0.0
C397 C 0.71692 0.99618 0.25198 0.0
C398 C 0.71051 0.01012 0.28283 0.0
C399 C 0.68494 0.00782 0.28186 0.0
C400 C 0.67809 0.07219 0.22823 0.0
C401 C 0.63621 0.03822 0.28346 0.0
C402 C 0.66686 0.04409 0.22632 0.0
N403 N 0.64629 0.02751 0.2539 0.0
C404 C 0.64694 0.06622 0.28631 0.0
C405 C 0.66804 0.08327 0.2585 0.0
C406 C 0.5727 0.96854 0.27109 0.0
C407 C 0.55765 0.88578 0.16655 0.0
C408 C 0.53701 0.89911 0.23834 0.0
C409 C 0.52018 0.88602 0.20262 0.0
C410 C 0.53063 0.87936 0.16649 0.0
N411 N 0.56352 0.90542 0.23815 0.0
C412 C 0.57387 0.89886 0.20287 0.0
Co413 Co 0.64672 0.63032 0.75212 0.0
Co414 Co 0.67434 0.59093 0.78434 0.0
O415 O 0.6734 0.61823 0.74601 0.0
C416 C 0.64165 0.61431 0.65888 0.0
O417 O 0.64246 0.59263 0.67105 0.0
C418 C 0.73321 0.63344 0.76784 0.0
O419 O 0.726 0.64886 0.74674 0.0
O420 O 0.67381 0.61103 0.83779 0.0
O421 O 0.64871 0.62939 0.81712 0.0
H422 H 0.64341 0.52662 0.9119 0.0
H423 H 0.69402 0.66257 0.69443 0.0
O424 O 0.64369 0.63165 0.68711 0.0
H425 H 0.70027 0.72558 0.81055 0.0
H426 H 0.60401 0.68651 0.71338 0.0
H427 H 0.59878 0.61419 0.80877 0.0
H428 H 0.66264 0.67834 0.80984 0.0
H429 H 0.63777 0.67167 0.70698 0.0
O430 O 0.71542 0.61133 0.78556 0.0
H431 H 0.64282 0.56044 0.86216 0.0
H432 H 0.708 0.56414 0.78902 0.0
H433 H 0.56471 0.62855 0.8165 0.0
H434 H 0.73178 0.70981 0.69345 0.0
H435 H 0.5672 0.66496 0.76857 0.0
H436 H 0.73516 0.74164 0.75196 0.0
O437 O 0.61634 0.59225 0.75169 0.0
H438 H 0.70322 0.58167 0.63213 0.0
H439 H 0.64546 0.53271 0.75827 0.0
H440 H 0.64452 0.50718 0.69264 0.0
H441 H 0.67368 0.53165 0.62897 0.0
H442 H 0.70311 0.60639 0.6979 0.0
H443 H 0.70946 0.53057 0.83822 0.0
H444 H 0.67692 0.51148 0.90006 0.0
O445 O 0.63365 0.56885 0.78402 0.0
C446 C 0.66079 0.62336 0.84629 0.0
C447 C 0.65764 0.53473 0.88498 0.0
C448 C 0.69475 0.53699 0.84368 0.0
N449 N 0.67521 0.56412 0.82254 0.0
C450 C 0.65735 0.55383 0.85664 0.0
C451 C 0.69388 0.55606 0.81602 0.0
C452 C 0.67647 0.52627 0.87835 0.0
C453 C 0.69523 0.67635 0.71983 0.0
N454 N 0.67624 0.66761 0.75233 0.0
C455 C 0.71672 0.70305 0.71918 0.0
C456 C 0.71862 0.72089 0.75205 0.0
C457 C 0.69909 0.71188 0.78498 0.0
C458 C 0.67791 0.68503 0.78457 0.0
C459 C 0.60274 0.67067 0.73452 0.0
C460 C 0.60009 0.63016 0.78798 0.0
C461 C 0.62178 0.66215 0.731 0.0
N462 N 0.62037 0.64223 0.75772 0.0
C463 C 0.5807 0.63816 0.79243 0.0
C464 C 0.5821 0.65857 0.7655 0.0
C465 C 0.61382 0.57052 0.76797 0.0
C466 C 0.69057 0.57074 0.65979 0.0
C467 C 0.65813 0.54358 0.73076 0.0
C468 C 0.65757 0.52897 0.69366 0.0
C469 C 0.67395 0.5427 0.65798 0.0
N470 N 0.67464 0.57109 0.73254 0.0
C471 C 0.69061 0.58466 0.69747 0.0
Co472 Co 0.02284 0.64778 0.24755 0.0
Co473 Co 0.08563 0.66541 0.28691 0.0
O474 O 0.06232 0.6702 0.24496 0.0
C475 C 0.03452 0.64317 0.15488 0.0
O476 O 0.05439 0.6396 0.16833 0.0
C477 C 0.10948 0.72595 0.2836 0.0
O478 O 0.08546 0.72323 0.29011 0.0
O479 O 0.06639 0.6712 0.3366 0.0
O480 O 0.02349 0.6467 0.31309 0.0
H481 H 0.1055 0.6292 0.42344 0.0
H482 H 0.04764 0.69916 0.19775 0.0
O483 O 0.02061 0.64795 0.18228 0.0
H484 H 0.99034 0.70851 0.30945 0.0
H485 H 0.92721 0.61877 0.20187 0.0
H486 H 0.98471 0.59911 0.29824 0.0
H487 H 0.99272 0.66656 0.30439 0.0
H488 H 0.97697 0.64774 0.20028 0.0
O489 O 0.11246 0.70523 0.28337 0.0
H490 H 0.0763 0.63441 0.36932 0.0
H491 H 0.14541 0.68832 0.29464 0.0
H492 H 0.93502 0.56977 0.30121 0.0
H493 H 0.04567 0.74142 0.20137 0.0
H494 H 0.90592 0.57953 0.25275 0.0
H495 H 0.01691 0.7463 0.25762 0.0
O496 O 0.02589 0.61463 0.24379 0.0
H497 H 0.13157 0.6862 0.14001 0.0
H498 H 0.10186 0.62417 0.26662 0.0
H499 H 0.12425 0.61584 0.20435 0.0
H500 H 0.13936 0.64704 0.1405 0.0
H501 H 0.1087 0.69355 0.20266 0.0
H502 H 0.17536 0.68382 0.34811 0.0
H503 H 0.15542 0.65401 0.413 0.0
O504 O 0.06009 0.62511 0.29047 0.0
C505 C 0.04085 0.65886 0.34338 0.0
C506 C 0.11443 0.64219 0.39524 0.0
C507 C 0.15364 0.67288 0.35299 0.0
N508 N 0.10911 0.66152 0.32872 0.0
C509 C 0.09799 0.64518 0.36443 0.0
C510 C 0.13658 0.67539 0.32288 0.0
C511 C 0.14243 0.65614 0.38938 0.0
C512 C 0.03493 0.70109 0.22208 0.0
N513 N 0.02027 0.68042 0.25073 0.0
C514 C 0.03396 0.72508 0.22408 0.0
C515 C 0.01784 0.72782 0.25568 0.0
C516 C 1.00295 0.70663 0.2848 0.0
C517 C 1.00444 0.68295 0.28186 0.0
C518 C 0.93967 0.61435 0.22321 0.0
C519 C 0.97216 0.60358 0.27727 0.0
C520 C 0.96785 0.63064 0.22239 0.0
N521 N 0.9837 0.62523 0.2494 0.0
C522 C 0.94405 0.58686 0.279 0.0
C523 C 0.92774 0.59233 0.25178 0.0
C524 C 0.04067 0.60825 0.26628 0.0
C525 C 0.12514 0.67251 0.16769 0.0
C526 C 0.10821 0.63775 0.23886 0.0
C527 C 0.12097 0.63298 0.20375 0.0
C528 C 0.12947 0.6505 0.16796 0.0
N529 N 0.104 0.65937 0.23836 0.0
C530 C 0.11229 0.67664 0.20337 0.0
Co531 Co 0.37829 0.01766 0.74876 0.0
Co532 Co 0.42208 0.08255 0.78359 0.0
O533 O 0.39417 0.05697 0.74353 0.0
C534 C 0.39583 0.02822 0.65657 0.0
O535 O 0.41877 0.04877 0.67021 0.0
C536 C 0.38266 0.10347 0.78162 0.0
O537 O 0.36223 0.07952 0.79176 0.0
O538 O 0.39865 0.06343 0.83529 0.0
O539 O 0.37902 0.01998 0.81387 0.0
H540 H 0.48142 0.10923 0.91718 0.0
H541 H 0.35148 0.0402 0.6938 0.0
O542 O 0.37706 0.01404 0.68367 0.0
H543 H 0.28371 0.98427 0.80515 0.0
H544 H 0.31437 0.92054 0.70694 0.0
H545 H 0.38906 0.98158 0.80474 0.0
H546 H 0.32864 0.98781 0.80397 0.0
H547 H 0.33408 0.9701 0.70197 0.0
O548 O 0.40661 0.10724 0.77906 0.0
H549 H 0.44694 0.07729 0.86553 0.0
H550 H 0.45569 0.14296 0.78756 0.0
H551 H 0.36979 0.93213 0.81109 0.0
H552 H 0.3067 0.03707 0.69355 0.0
H553 H 0.33217 0.90125 0.76193 0.0
H554 H 0.27248 0.00898 0.74959 0.0
O555 O 0.41491 0.02137 0.74868 0.0
H556 H 0.4408 0.12386 0.63314 0.0
H557 H 0.48031 0.10349 0.76109 0.0
H558 H 0.50894 0.12574 0.69666 0.0
H559 H 0.48922 0.13616 0.63207 0.0
H560 H 0.4128 0.10121 0.69802 0.0
H561 H 0.49011 0.17559 0.83855 0.0
H562 H 0.50327 0.15877 0.90382 0.0
O563 O 0.43938 0.0594 0.78761 0.0
C564 C 0.38505 0.038 0.84324 0.0
C565 C 0.47592 0.1168 0.88879 0.0
C566 C 0.48076 0.15405 0.8447 0.0
N567 N 0.44942 0.10822 0.82342 0.0
C568 C 0.45645 0.09881 0.85937 0.0
C569 C 0.4612 0.13547 0.816 0.0
C570 C 0.48814 0.1446 0.8813 0.0
C571 C 0.33661 0.02779 0.71808 0.0
N572 N 0.34263 0.01414 0.74876 0.0
C573 C 0.31133 0.02616 0.71787 0.0
C574 C 0.29215 0.01042 0.74935 0.0
C575 C 0.29844 0.99657 0.78056 0.0
C576 C 0.32395 0.99871 0.7798 0.0
C577 C 0.33072 0.93378 0.7286 0.0
C578 C 0.37258 0.96826 0.78343 0.0
C579 C 0.34199 0.96186 0.72588 0.0
N580 N 0.36256 0.97869 0.75328 0.0
C581 C 0.3618 0.94028 0.78709 0.0
C582 C 0.34071 0.92297 0.75947 0.0
C583 C 0.43649 0.03809 0.76879 0.0
C584 C 0.44964 0.11944 0.66108 0.0
C585 C 0.47149 0.10765 0.73299 0.0
C586 C 0.48785 0.12042 0.69666 0.0
C587 C 0.47679 0.1263 0.66047 0.0
N588 N 0.44486 0.1009 0.73333 0.0
C589 C 0.43391 0.10669 0.698 0.0
Co590 Co 0.36542 0.37787 0.24734 0.0
Co591 Co 0.34232 0.41931 0.2863 0.0
O592 O 0.34052 0.39222 0.24442 0.0
C593 C 0.36914 0.39415 0.15461 0.0
O594 O 0.37056 0.41672 0.16801 0.0
C595 C 0.28262 0.38167 0.26656 0.0
O596 O 0.28824 0.36548 0.24421 0.0
O597 O 0.33948 0.39548 0.33626 0.0
O598 O 0.3659 0.37926 0.31283 0.0
H599 H 0.37593 0.47684 0.42179 0.0
H600 H 0.31582 0.34717 0.19378 0.0
O601 O 0.36607 0.37603 0.18205 0.0
H602 H 0.30992 0.28346 0.30838 0.0
H603 H 0.40188 0.31718 0.20217 0.0
H604 H 0.41476 0.39196 0.29905 0.0
H605 H 0.34916 0.32977 0.30512 0.0
H606 H 0.36994 0.33448 0.19994 0.0
O607 O 0.3014 0.40255 0.2858 0.0
H608 H 0.37362 0.44368 0.36755 0.0
H609 H 0.31412 0.45139 0.29527 0.0
H610 H 0.44705 0.37513 0.30262 0.0
H611 H 0.27636 0.30087 0.19542 0.0
H612 H 0.44071 0.33747 0.25392 0.0
H613 H 0.27317 0.26869 0.25318 0.0
O614 O 0.39672 0.4152 0.24459 0.0
H615 H 0.31847 0.44055 0.13811 0.0
H616 H 0.37821 0.47798 0.26673 0.0
H617 H 0.38338 0.50804 0.20503 0.0
H618 H 0.35328 0.48941 0.14019 0.0
H619 H 0.31428 0.41115 0.20003 0.0
H620 H 0.31564 0.48446 0.34894 0.0
H621 H 0.34679 0.49747 0.41266 0.0
O622 O 0.38315 0.43781 0.28828 0.0
C623 C 0.35317 0.38367 0.3431 0.0
C624 C 0.36233 0.47139 0.3941 0.0
C625 C 0.32846 0.47564 0.35325 0.0
N626 N 0.34389 0.44572 0.32813 0.0
C627 C 0.36098 0.45268 0.36321 0.0
C628 C 0.32764 0.45683 0.32303 0.0
C629 C 0.34595 0.48294 0.38898 0.0
C630 C 0.31463 0.33325 0.21888 0.0
N631 N 0.33465 0.34129 0.24956 0.0
C632 C 0.29222 0.30707 0.21971 0.0
C633 C 0.29042 0.28904 0.25215 0.0
C634 C 0.311 0.29733 0.28318 0.0
C635 C 0.3331 0.32367 0.28134 0.0
C636 C 0.40482 0.33355 0.22362 0.0
C637 C 0.41177 0.37546 0.27795 0.0
C638 C 0.38683 0.34347 0.22246 0.0
N639 N 0.39036 0.36406 0.2496 0.0
C640 C 0.43016 0.36606 0.28003 0.0
C641 C 0.4266 0.34495 0.25267 0.0
C642 C 0.40129 0.43621 0.26605 0.0
C643 C 0.33153 0.44897 0.16637 0.0
C644 C 0.36497 0.46965 0.23871 0.0
C645 C 0.36801 0.48681 0.20384 0.0
C646 C 0.35112 0.47636 0.16749 0.0
N647 N 0.34553 0.44281 0.23762 0.0
C648 C 0.32907 0.43241 0.20185 0.0
Co649 Co 0.98858 0.36087 0.75123 0.0
Co650 Co 0.92241 0.3362 0.78544 0.0
O651 O 0.94946 0.33502 0.74693 0.0
C652 C 0.97654 0.36538 0.6586 0.0
O653 O 0.95473 0.36558 0.67184 0.0
C654 C 0.90433 0.27619 0.77691 0.0
O655 O 0.92807 0.28142 0.76216 0.0
O656 O 0.94323 0.33681 0.83868 0.0
O657 O 0.98656 0.35985 0.81633 0.0
H658 H 0.89263 0.37131 0.91211 0.0
H659 H 0.97058 0.31219 0.69563 0.0
O660 O 0.9919 0.36285 0.68608 0.0
H661 H 0.02825 0.30548 0.80962 0.0
H662 H 0.0865 0.39985 0.70866 0.0
H663 H 0.02257 0.40919 0.80593 0.0
H664 H 0.02041 0.34427 0.80823 0.0
H665 H 0.03745 0.36733 0.7044 0.0
O666 O 0.90031 0.29543 0.78838 0.0
H667 H 0.92574 0.36935 0.86242 0.0
H668 H 0.86186 0.3054 0.79077 0.0
H669 H 0.07149 0.44203 0.81153 0.0
H670 H 0.97825 0.27324 0.69534 0.0
H671 H 0.10382 0.43747 0.76265 0.0
H672 H 0.00716 0.26965 0.75278 0.0
O673 O 0.98242 0.39231 0.75005 0.0
H674 H 0.88138 0.30369 0.63621 0.0
H675 H 0.89568 0.36724 0.75635 0.0
H676 H 0.87127 0.36767 0.69005 0.0
H677 H 0.86387 0.33563 0.6294 0.0
H678 H 0.90608 0.3043 0.70274 0.0
H679 H 0.82811 0.3065 0.83994 0.0
H680 H 0.84342 0.33971 0.90102 0.0
O681 O 0.9423 0.37678 0.7834 0.0
C682 C 0.9687 0.34893 0.84624 0.0
C683 C 0.88571 0.35679 0.88556 0.0
C684 C 0.84949 0.32038 0.8451 0.0
N685 N 0.89576 0.33736 0.82363 0.0
C686 C 0.90435 0.35562 0.85726 0.0
C687 C 0.86872 0.31979 0.81746 0.0
C688 C 0.8581 0.33903 0.87934 0.0
C689 C 0.98339 0.31089 0.72049 0.0
N690 N 0.99494 0.33044 0.752 0.0
C691 C 0.98756 0.28873 0.72027 0.0
C692 C 1.00375 0.2867 0.75255 0.0
C693 C 0.01555 0.30678 0.78449 0.0
C694 C 0.0109 0.32863 0.7837 0.0
C695 C 0.07262 0.40202 0.7302 0.0
C696 C 0.03653 0.40698 0.78473 0.0
C697 C 0.04482 0.3837 0.72788 0.0
N698 N 0.02718 0.38625 0.75512 0.0
C699 C 0.0642 0.42568 0.78797 0.0
C700 C 0.08233 0.42312 0.7605 0.0
C701 C 0.96388 0.39589 0.76643 0.0
C702 C 0.88438 0.31768 0.66249 0.0
C703 C 0.89275 0.35339 0.73005 0.0
C704 C 0.87879 0.35363 0.69262 0.0
C705 C 0.87461 0.33564 0.65864 0.0
N706 N 0.90224 0.33568 0.7337 0.0
C707 C 0.89822 0.318 0.70044 0.0
H708 H 0.98566 0.3551 0.12896 0.0
H709 H 0.0213 0.37139 0.87378 0.0
H710 H 0.06734 0.39353 0.07822 0.0
H711 H 0.93931 0.3327 0.9233 0.0
H712 H 0.03811 0.37756 0.94836 0.0
H713 H 0.96829 0.34477 0.0544 0.0
C714 C 1.00003 0.36125 0.10222 0.0
C715 C 0.02813 0.37528 0.11013 0.0
C716 C 0.01643 0.3676 0.94303 0.0
C717 C 0.00811 0.36353 0.02418 0.0
C718 C 0.00671 0.36399 0.90027 0.0
C719 C 0.97871 0.35143 0.89193 0.0
C720 C 0.99816 0.35875 0.97817 0.0
C721 C 0.96102 0.34243 0.92798 0.0
C722 C 0.99 0.35533 0.05953 0.0
C723 C 0.04557 0.38267 0.07389 0.0
N724 N 0.97105 0.34637 0.96951 0.0
N725 N 0.03527 0.3768 0.03255 0.0
H726 H 0.6546 0.02199 0.37235 0.0
H727 H 0.64193 0.98612 0.62717 0.0
H728 H 0.61425 0.94008 0.42243 0.0
H729 H 0.67701 0.06786 0.57756 0.0
H730 H 0.63545 0.96931 0.5525 0.0
H731 H 0.66645 0.03907 0.44673 0.0
C732 C 0.64834 0.00748 0.3989 0.0
C733 C 0.63326 0.97941 0.39084 0.0
C734 C 0.64471 0.99093 0.55784 0.0
C735 C 0.64685 0.99916 0.47673 0.0
C736 C 0.64853 1.00066 0.60064 0.0
C737 C 0.66001 0.02858 0.60895 0.0
C738 C 0.65236 0.00913 0.5227 0.0
C739 C 0.6681 0.04623 0.5729 0.0
C740 C 0.65514 0.01736 0.44152 0.0
C741 C 0.62586 0.96183 0.4269 0.0
N742 N 0.66398 0.03618 0.53137 0.0
N743 N 0.63263 0.972 0.46826 0.0
H744 H 0.61507 0.6785 0.07799 0.0
H745 H 0.67922 0.61148 0.92228 0.0
H746 H 0.65455 0.63589 0.12704 0.0
H747 H 0.63689 0.65179 0.87552 0.0
H748 H 0.67297 0.62244 0.99756 0.0
H749 H 0.62565 0.67128 0.00341 0.0
C750 C 0.62613 0.66782 0.0732 0.0
C751 C 0.63384 0.65778 0.10905 0.0
C752 C 0.66521 0.62899 0.97069 0.0
C753 C 0.64592 0.64925 0.02344 0.0
C754 C 0.66882 0.62278 0.92769 0.0
C755 C 0.65862 0.6307 0.89227 0.0
C756 C 0.65133 0.64323 0.97834 0.0
C757 C 0.6452 0.64521 0.90149 0.0
C758 C 0.63212 0.66362 0.03052 0.0
C759 C 0.64811 0.64399 0.10056 0.0
N760 N 0.64192 0.65091 0.94344 0.0
N761 N 0.65358 0.64006 0.05872 0.0
H762 H 0.98791 0.63593 0.36967 0.0
H763 H 0.02345 0.65346 0.62476 0.0
H764 H 0.06959 0.67649 0.4206 0.0
H765 H 0.94141 0.61331 0.57531 0.0
H766 H 0.04034 0.66407 0.55029 0.0
H767 H 0.97055 0.62968 0.44416 0.0
C768 C 1.00229 0.64374 0.39644 0.0
C769 C 0.03037 0.65676 0.38861 0.0
C770 C 0.01864 0.65308 0.55559 0.0
C771 C 0.01037 0.64942 0.47448 0.0
C772 C 0.00886 0.64699 0.59831 0.0
C773 C 0.98082 0.6324 0.60664 0.0
C774 C 1.00038 0.64448 0.52046 0.0
C775 C 0.96315 0.62461 0.57063 0.0
C776 C 0.99226 0.64009 0.43909 0.0
C777 C 0.04783 0.66636 0.42488 0.0
N778 N 0.97323 0.63063 0.5291 0.0
N779 N 0.03753 0.66237 0.46618 0.0
H780 H 0.35393 0.98557 0.87081 0.0
H781 H 0.3701 0.02205 0.12553 0.0
H782 H 0.39718 0.06767 0.91993 0.0
H783 H 0.33352 0.94022 0.07572 0.0
H784 H 0.37656 0.03894 0.05082 0.0
H785 H 0.34281 0.96891 0.9454 0.0
C786 C 0.36098 1.00022 0.89721 0.0
C787 C 0.37666 0.0282 0.88879 0.0
C788 C 0.36699 0.01729 0.05617 0.0
C789 C 0.36393 0.00891 0.975 0.0
C790 C 0.36321 0.00752 0.09896 0.0
C791 C 0.35125 0.97953 0.1072 0.0
C792 C 0.3588 0.99906 0.02102 0.0
C793 C 0.34281 0.9619 0.07113 0.0
C794 C 0.35461 0.99057 0.93997 0.0
C795 C 0.38507 0.04597 0.92469 0.0
N796 N 0.34685 0.97198 0.02965 0.0
N797 N 0.37869 0.03601 0.96624 0.0
H798 H 0.379 0.35646 0.36971 0.0
H799 H 0.35731 0.37039 0.62476 0.0
H800 H 0.3338 0.39289 0.42013 0.0
H801 H 0.40068 0.33179 0.57524 0.0
H802 H 0.34705 0.37696 0.55012 0.0
H803 H 0.38549 0.3456 0.44422 0.0
C804 C 0.37024 0.36205 0.39636 0.0
C805 C 0.35578 0.37568 0.38838 0.0
C806 C 0.35868 0.36691 0.55547 0.0
C807 C 0.36342 0.36332 0.4743 0.0
C808 C 0.36458 0.36308 0.59826 0.0
C809 C 0.37994 0.35044 0.60661 0.0
C810 C 0.36827 0.35823 0.52032 0.0
C811 C 0.38875 0.34157 0.57056 0.0
C812 C 0.37402 0.35582 0.43903 0.0
C813 C 0.34503 0.38236 0.42453 0.0
N814 N 0.38289 0.34575 0.52901 0.0
N815 N 0.34918 0.37622 0.46586 0.0
H816 H 0.03018 0.64367 0.87226 0.0
H817 H 0.98553 0.63107 0.12067 0.0
H818 H 0.94702 0.59241 0.91225 0.0
H819 H 0.06489 0.6459 0.08341 0.0
H820 H 0.9717 0.62296 0.04382 0.0
H821 H 0.04389 0.65063 0.94915 0.0
C822 C 0.01479 0.63391 0.89727 0.0
C823 C 0.98739 0.61746 0.88596 0.0
C824 C 0.99211 0.62797 0.05254 0.0
C825 C 1.00298 0.62559 0.97383 0.0
C826 C 1.00012 0.63281 0.09628 0.0
C827 C 0.02645 0.63925 0.10836 0.0
C828 C 0.01072 0.63009 0.02056 0.0
C829 C 0.0444 0.64096 0.07545 0.0
C830 C 0.02267 0.6378 0.94106 0.0
C831 C 0.96834 0.60516 0.91964 0.0
N832 N 0.03626 0.6366 0.03291 0.0
N833 N 0.97648 0.60969 0.9622 0.0
H834 H 0.38444 0.02685 0.37496 0.0
H835 H 0.36127 0.97861 0.62196 0.0
H836 H 0.36015 0.94442 0.41035 0.0
H837 H 0.42149 0.06007 0.58536 0.0
H838 H 0.35483 0.96579 0.54457 0.0
H839 H 0.39236 0.03953 0.45231 0.0
C840 C 0.38066 0.01139 0.39906 0.0
C841 C 0.37157 0.98451 0.38634 0.0
C842 C 0.36949 0.98642 0.55356 0.0
C843 C 0.3804 0.9989 0.47466 0.0
C844 C 0.37307 0.99382 0.59759 0.0
C845 C 0.39192 0.02047 0.60996 0.0
C846 C 0.38444 0.00594 0.52165 0.0
C847 C 0.40682 0.0393 0.57713 0.0
C848 C 0.38536 0.0187 0.44307 0.0
C849 C 0.36723 0.96536 0.41885 0.0
N850 N 0.40258 0.03174 0.53432 0.0
N851 N 0.37145 0.97289 0.46169 0.0
H852 H 0.4207 0.35627 0.91138 0.0
H853 H 0.36253 0.41952 0.08327 0.0
H854 H 0.36476 0.38306 0.87435 0.0
H855 H 0.38473 0.36001 0.11992 0.0
H856 H 0.36964 0.41261 0.00609 0.0
H857 H 0.41419 0.36381 0.98853 0.0
C858 C 0.40713 0.36377 0.91949 0.0
C859 C 0.39315 0.36892 0.88655 0.0
C860 C 0.37288 0.40107 0.03115 0.0
C861 C 0.38594 0.3779 0.97418 0.0
C862 C 0.36891 0.40505 0.07507 0.0
C863 C 0.37291 0.39021 0.10792 0.0
C864 C 0.38144 0.38257 0.02026 0.0
C865 C 0.38118 0.3717 0.09558 0.0
C866 C 0.40336 0.36798 0.96339 0.0
C867 C 0.37576 0.37861 0.89878 0.0
N868 N 0.38535 0.36853 0.05274 0.0
N869 N 0.37277 0.38295 0.94161 0.0
H870 H 0.94413 0.35663 0.58701 0.0
H871 H 0.06539 0.41851 0.41495 0.0
H872 H 0.02684 0.38349 0.62432 0.0
H873 H 0.98381 0.35828 0.37894 0.0
H874 H 0.0514 0.41219 0.49212 0.0
H875 H 0.95815 0.3635 0.50982 0.0
C876 C 0.9652 0.36402 0.57895 0.0
C877 C 0.98433 0.36937 0.61197 0.0
C878 C 0.03665 0.40036 0.46721 0.0
C879 C 1.00047 0.37758 0.52433 0.0
C880 C 0.04458 0.40399 0.42329 0.0
C881 C 0.02577 0.38879 0.39064 0.0
C882 C 0.00962 0.38184 0.47826 0.0
C883 C 0.99903 0.37024 0.40316 0.0
C884 C 0.97315 0.36783 0.53504 0.0
C885 C 0.01139 0.37889 0.59982 0.0
N886 N 0.9917 0.36742 0.44598 0.0
N887 N 0.0187 0.38286 0.55697 0.0
H888 H 0.62639 0.97947 0.87629 0.0
H889 H 0.64704 0.02695 0.12359 0.0
H890 H 0.64675 0.06078 0.9122 0.0
H891 H 0.58851 0.94495 0.08669 0.0
H892 H 0.65351 0.0398 0.04623 0.0
H893 H 0.61872 0.96649 0.95362 0.0
C894 C 0.62938 0.99462 0.90049 0.0
C895 C 0.63726 0.02127 0.88794 0.0
C896 C 0.63923 0.01903 0.05513 0.0
C897 C 0.62874 0.00656 0.97618 0.0
C898 C 0.63563 0.01162 0.09916 0.0
C899 C 0.61723 0.98482 0.11145 0.0
C900 C 0.62477 0.99939 0.02313 0.0
C901 C 0.60282 0.96584 0.07852 0.0
C902 C 0.62482 0.98713 0.94448 0.0
C903 C 0.64061 0.04002 0.92056 0.0
N904 N 0.60709 0.97344 0.0357 0.0
N905 N 0.63657 0.03236 0.96335 0.0
H906 H 0.65365 0.63265 0.3777 0.0
H907 H 0.62177 0.64544 0.62646 0.0
H908 H 0.59043 0.64942 0.41504 0.0
H909 H 0.65242 0.59323 0.58587 0.0
H910 H 0.61561 0.65312 0.54958 0.0
H911 H 0.65915 0.62435 0.45457 0.0
C912 C 0.64106 0.63479 0.40211 0.0
C913 C 0.62157 0.6418 0.39002 0.0
C914 C 0.62361 0.63993 0.55755 0.0
C915 C 0.62789 0.63242 0.47789 0.0
C916 C 0.62726 0.63563 0.60133 0.0
C917 C 0.63765 0.61867 0.61248 0.0
C918 C 0.63089 0.62764 0.52463 0.0
C919 C 0.64426 0.60636 0.57864 0.0
C920 C 0.64409 0.62985 0.44587 0.0
C921 C 0.60565 0.64402 0.42298 0.0
N922 N 0.64099 0.61128 0.53611 0.0
N923 N 0.60929 0.63953 0.46554 0.0
H924 H 0.02519 0.57629 0.19346 0.0
H925 H 0.02225 0.44887 0.30344 0.0
H926 H 0.04802 0.57803 0.32865 0.0
H927 H 0.05494 0.47495 0.17362 0.0
H928 H 0.01935 0.49018 0.31176 0.0
H929 H 0.02367 0.53269 0.18439 0.0
C930 C 0.02935 0.56723 0.22142 0.0
C931 C 0.03661 0.58064 0.26194 0.0
C932 C 0.02694 0.48667 0.28139 0.0
C933 C 0.03466 0.53095 0.25181 0.0
C934 C 0.02845 0.4631 0.27646 0.0
C935 C 0.03881 0.45851 0.23772 0.0
C936 C 0.03517 0.50539 0.24693 0.0
C937 C 0.04688 0.47778 0.20402 0.0
C938 C 0.02872 0.54256 0.21608 0.0
C939 C 0.04229 0.56828 0.29691 0.0
N940 N 0.0447 0.50034 0.20925 0.0
N941 N 0.04101 0.54399 0.29115 0.0
H942 H 0.48764 0.07207 0.79994 0.0
H943 H 0.56392 0.99387 0.76365 0.0
H944 H 0.44001 0.99489 0.73513 0.0
H945 H 0.59177 0.07085 0.69905 0.0
H946 H 0.51941 0.99042 0.77437 0.0
H947 H 0.52818 0.06881 0.78766 0.0
C948 C 0.48555 0.05434 0.78336 0.0
C949 C 0.46032 0.03406 0.76747 0.0
C950 C 0.53539 0.00787 0.75763 0.0
C951 C 0.50673 0.02994 0.755 0.0
C952 C 0.56073 0.00993 0.75149 0.0
C953 C 0.58194 0.03299 0.73121 0.0
C954 C 0.53161 0.02929 0.74436 0.0
C955 C 0.57645 0.05302 0.71583 0.0
C956 C 0.50874 0.05254 0.77655 0.0
C957 C 0.45905 0.01119 0.74738 0.0
N958 N 0.55205 0.05097 0.72355 0.0
N959 N 0.48202 0.00972 0.74163 0.0
H960 H 0.53857 0.58146 0.1694 0.0
H961 H 0.42778 0.47591 0.32769 0.0
H962 H 0.55859 0.57801 0.3046 0.0
H963 H 0.43653 0.45193 0.19742 0.0
H964 H 0.47218 0.51729 0.31982 0.0
H965 H 0.49714 0.5373 0.17825 0.0
C966 C 0.53434 0.57126 0.20079 0.0
C967 C 0.55209 0.58319 0.23622 0.0
C968 C 0.46439 0.50278 0.29322 0.0
C969 C 0.50455 0.53336 0.24683 0.0
C970 C 0.43911 0.47929 0.2976 0.0
C971 C 0.4286 0.46043 0.26325 0.0
C972 C 0.47876 0.50777 0.25376 0.0
C973 C 0.44405 0.46582 0.22485 0.0
C974 C 0.5108 0.54615 0.20578 0.0
C975 C 0.54559 0.56927 0.27634 0.0
N976 N 0.46819 0.4892 0.22087 0.0
N977 N 0.52209 0.54524 0.28079 0.0
H978 H 0.92392 0.51901 0.71132 0.0
H979 H 0.00803 0.44429 0.74016 0.0
H980 H 0.0078 0.5652 0.75106 0.0
H981 H 0.9255 0.40987 0.78559 0.0
H982 H 0.00973 0.48796 0.72978 0.0
H983 H 0.92543 0.47737 0.72168 0.0
C984 C 0.9427 0.52051 0.72213 0.0
C985 C 0.9656 0.54577 0.73119 0.0
C986 C 0.99134 0.47072 0.74205 0.0
C987 C 0.96753 0.49795 0.74202 0.0
C988 C 0.9903 0.44582 0.74797 0.0
C989 C 0.96642 0.42311 0.76317 0.0
C990 C 0.96817 0.47268 0.75038 0.0
C991 C 0.94419 0.42648 0.77305 0.0
C992 C 0.94349 0.49667 0.72804 0.0
C993 C 0.98953 0.5462 0.7442 0.0
N994 N 0.94549 0.45062 0.7659 0.0
N995 N 0.98991 0.52262 0.74913 0.0
H996 H 0.44557 0.01301 0.256 0.0
H997 H 0.52255 0.93582 0.3067 0.0
H998 H 0.41447 0.93074 0.2113 0.0
H999 H 0.56788 0.01 0.23297 0.0
H1000 H 0.4815 0.93816 0.29474 0.0
H1001 H 0.49019 0.01673 0.2671 0.0
C1002 C 0.44803 0.99579 0.24842 0.0
C1003 C 0.42595 0.97131 0.23345 0.0
C1004 C 0.50054 0.954 0.28157 0.0
C1005 C 0.47644 0.97539 0.24709 0.0
C1006 C 0.52403 0.95272 0.28821 0.0
C1007 C 0.54874 0.97236 0.26976 0.0
C1008 C 0.50174 0.97548 0.25755 0.0
C1009 C 0.54926 0.9942 0.24725 0.0
C1010 C 0.47344 0.99801 0.25471 0.0
C1011 C 0.43051 0.94979 0.2238 0.0
N1012 N 0.52602 0.99519 0.24168 0.0
N1013 N 0.45505 0.95217 0.23157 0.0
H1014 H 0.56427 0.56546 0.74809 0.0
H1015 H 0.49161 0.4075 0.71121 0.0
H1016 H 0.60155 0.51816 0.78323 0.0
H1017 H 0.44496 0.44316 0.75829 0.0
H1018 H 0.53297 0.45063 0.7225 0.0
H1019 H 0.52081 0.52316 0.73911 0.0
C1020 C 0.5634 0.54629 0.75397 0.0
C1021 C 0.58684 0.54546 0.76585 0.0
C1022 C 0.51366 0.44897 0.73037 0.0
C1023 C 0.5374 0.49724 0.75474 0.0
C1024 C 0.48994 0.42432 0.72393 0.0
C1025 C 0.46462 0.42137 0.73464 0.0
C1026 C 0.51221 0.47122 0.74657 0.0
C1027 C 0.464 0.44435 0.75004 0.0
C1028 C 0.5386 0.52224 0.7489 0.0
C1029 C 0.58431 0.51996 0.77339 0.0
N1030 N 0.48748 0.46839 0.75542 0.0
N1031 N 0.56019 0.49693 0.76709 0.0
H1032 H 0.14796 0.39514 0.16936 0.0
H1033 H 0.25517 0.39385 0.32785 0.0
H1034 H 0.12304 0.3617 0.29896 0.0
H1035 H 0.24847 0.36356 0.19631 0.0
H1036 H 0.21102 0.39135 0.31862 0.0
H1037 H 0.18974 0.39287 0.17843 0.0
C1038 C 0.15121 0.38717 0.19954 0.0
C1039 C 0.13192 0.37831 0.23327 0.0
C1040 C 0.21923 0.38508 0.29201 0.0
C1041 C 0.17984 0.37661 0.24434 0.0
C1042 C 0.24432 0.38652 0.29721 0.0
C1043 C 0.25529 0.37861 0.26297 0.0
C1044 C 0.20556 0.37665 0.25177 0.0
C1045 C 0.24054 0.36949 0.22373 0.0
C1046 C 0.17495 0.38587 0.20464 0.0
C1047 C 0.13723 0.36838 0.27192 0.0
N1048 N 0.21662 0.36915 0.21893 0.0
N1049 N 0.16088 0.36818 0.2767 0.0
H1050 H 0.89974 0.23099 0.73496 0.0
H1051 H 0.73865 0.15233 0.75422 0.0
H1052 H 0.85404 0.25799 0.81156 0.0
H1053 H 0.78065 0.1121 0.70598 0.0
H1054 H 0.78174 0.19165 0.77247 0.0
H1055 H 0.85779 0.18755 0.72262 0.0
C1056 C 0.88105 0.2277 0.7497 0.0
C1057 C 0.88044 0.24838 0.77397 0.0
C1058 C 0.78172 0.17428 0.75804 0.0
C1059 C 0.83245 0.19896 0.75948 0.0
C1060 C 0.75698 0.15173 0.74727 0.0
C1061 C 0.75589 0.12877 0.72819 0.0
C1062 C 0.80594 0.17435 0.74941 0.0
C1063 C 0.78052 0.12935 0.72057 0.0
C1064 C 0.85711 0.20294 0.74249 0.0
C1065 C 0.85558 0.24293 0.79215 0.0
N1066 N 0.80461 0.15189 0.7309 0.0
N1067 N 0.8327 0.21898 0.7842 0.0
H1068 H 0.58706 0.74221 0.2017 0.0
H1069 H 0.67152 0.89696 0.2812 0.0
H1070 H 0.6699 0.7775 0.24568 0.0
H1071 H 0.58518 0.85179 0.25861 0.0
H1072 H 0.67374 0.85587 0.26317 0.0
H1073 H 0.58866 0.78482 0.21571 0.0
C1074 C 0.60571 0.75897 0.21422 0.0
C1075 C 0.6283 0.75605 0.22284 0.0
C1076 C 0.65438 0.85511 0.26231 0.0
C1077 C 0.63026 0.80549 0.23938 0.0
C1078 C 0.65309 0.87852 0.27259 0.0
C1079 C 0.62811 0.8779 0.27176 0.0
C1080 C 0.63056 0.83111 0.25068 0.0
C1081 C 0.6049 0.85341 0.26018 0.0
C1082 C 0.6066 0.78343 0.22234 0.0
C1083 C 0.65197 0.7788 0.23861 0.0
N1084 N 0.60675 0.83122 0.25011 0.0
N1085 N 0.65231 0.80257 0.24662 0.0
H1086 H 0.89449 0.65442 0.80102 0.0
H1087 H 0.76719 0.65481 0.69779 0.0
H1088 H 0.86798 0.62406 0.67028 0.0
H1089 H 0.76258 0.62262 0.82734 0.0
H1090 H 0.81147 0.65793 0.68758 0.0
H1091 H 0.85313 0.65716 0.8113 0.0
C1092 C 0.88027 0.64891 0.77416 0.0
C1093 C 0.8847 0.63913 0.73462 0.0
C1094 C 0.80085 0.65054 0.71839 0.0
C1095 C 0.83774 0.64256 0.74608 0.0
C1096 C 0.77576 0.64896 0.72442 0.0
C1097 C 0.76129 0.63857 0.76359 0.0
C1098 C 0.81188 0.64244 0.75222 0.0
C1099 C 0.77313 0.63081 0.79672 0.0
C1100 C 0.85665 0.65027 0.78022 0.0
C1101 C 0.86534 0.63177 0.70119 0.0
N1102 N 0.79785 0.63308 0.79044 0.0
N1103 N 0.84277 0.63382 0.70753 0.0
H1104 H 0.2322 0.89759 0.25922 0.0
H1105 H 0.15849 0.73604 0.25279 0.0
H1106 H 0.26283 0.85187 0.19167 0.0
H1107 H 0.1152 0.77714 0.29003 0.0
H1108 H 0.19764 0.77936 0.23436 0.0
H1109 H 0.18961 0.85502 0.27314 0.0
C1110 C 0.22991 0.87874 0.24683 0.0
C1111 C 0.25134 0.87837 0.22459 0.0
C1112 C 0.17963 0.77906 0.24646 0.0
C1113 C 0.20291 0.8297 0.24096 0.0
C1114 C 0.15719 0.75422 0.25731 0.0
C1115 C 0.1334 0.75282 0.27323 0.0
C1116 C 0.17868 0.80305 0.25179 0.0
C1117 C 0.1331 0.77723 0.27793 0.0
C1118 C 0.20563 0.85446 0.25494 0.0
C1119 C 0.24716 0.85328 0.20944 0.0
N1120 N 0.15547 0.8014 0.26748 0.0
N1121 N 0.22365 0.83009 0.21822 0.0
H1122 H 0.40828 0.25572 0.68198 0.0
H1123 H 0.3384 0.11002 0.79853 0.0
H1124 H 0.34028 0.2298 0.76961 0.0
H1125 H 0.41768 0.14975 0.73874 0.0
H1126 H 0.334 0.14985 0.78029 0.0
H1127 H 0.40652 0.21264 0.693 0.0
C1128 C 0.39277 0.24087 0.70331 0.0
C1129 C 0.37462 0.24665 0.7253 0.0
C1130 C 0.35226 0.14967 0.77116 0.0
C1131 C 0.37261 0.1969 0.73841 0.0
C1132 C 0.35478 0.12697 0.78149 0.0
C1133 C 0.37853 0.12657 0.77052 0.0
C1134 C 0.37348 0.17182 0.74912 0.0
C1135 C 0.39909 0.14911 0.74836 0.0
C1136 C 0.39184 0.21621 0.70972 0.0
C1137 C 0.35475 0.22629 0.75208 0.0
N1138 N 0.39604 0.17064 0.73844 0.0
N1139 N 0.35441 0.20237 0.75822 0.0
loop_
_geom_bond_atom_site_label_1
_geom_bond_atom_site_label_2
_geom_bond_distance
_geom_bond_site_symmetry_2
_ccdc_geom_bond_type
Co0 O2 2.143 . S
Co0 O8 2.074 . S
Co0 O11 2.093 1_455 S
Co0 O24 2.097 . S
Co0 N41 2.151 1_455 S
Co0 N49 2.214 1_455 S
Co1 O2 2.160 . S
Co1 O7 2.058 . S
Co1 O17 2.057 . S
Co1 O32 2.037 . S
Co1 N36 2.145 . S
Co1 N57 2.257 . S
O2 Co0 2.143 . S
O2 Co1 2.160 . S
C3 O4 1.278 . S
C3 O11 1.224 1_455 S
O4 C3 1.278 . S
C5 O6 1.245 . S
C5 O17 1.232 . S
O6 C5 1.245 . S
O7 Co1 2.058 . S
O7 C33 1.269 . S
O8 Co0 2.074 . S
O8 C33 1.257 . S
H9 C34 0.930 . S
H10 C40 0.930 1_455 S
O11 Co0 2.093 1_655 S
O11 C3 1.224 1_655 S
H12 C44 0.929 . S
H13 C46 0.930 . S
H14 C47 0.930 . S
H15 C45 0.929 . S
H16 C48 0.928 . S
O17 Co1 2.057 . S
O17 C5 1.232 . S
H18 C37 0.929 . S
H19 C38 0.929 . S
H20 C50 0.931 . S
H21 C42 0.929 . S
H22 C51 0.930 . S
H23 C43 0.931 . S
O24 Co0 2.097 . S
O24 C52 1.214 . S
H25 C53 0.929 . S
H26 C54 0.929 . S
H27 C55 0.930 . S
H28 C56 0.929 . S
H29 C58 0.930 . S
H30 C35 0.930 . S
H31 C39 0.930 . S
O32 Co1 2.037 . S
O32 C52 1.234 . S
C33 O7 1.269 . S
C33 O8 1.257 . S
C34 H9 0.930 . S
C34 C37 1.388 . S
C34 C39 1.418 . S
C35 H30 0.930 . S
C35 C38 1.404 . S
C35 C39 1.353 . S
N36 Co1 2.145 . S
N36 C37 1.397 . S
N36 C38 1.334 . S
C37 H18 0.929 . S
C37 C34 1.388 . S
C37 N36 1.397 . S
C38 H19 0.929 . S
C38 C35 1.404 . S
C38 N36 1.334 . S
C39 H31 0.930 . S
C39 C34 1.418 . S
C39 C35 1.353 . S
C40 H10 0.930 1_655 S
C40 N41 1.330 . S
C40 C42 1.446 . S
N41 Co0 2.151 1_655 S
N41 C40 1.330 . S
N41 C45 1.418 . S
C42 H21 0.929 . S
C42 C40 1.446 . S
C42 C43 1.332 . S
C43 H23 0.931 . S
C43 C42 1.332 . S
C43 C44 1.267 . S
C44 H12 0.929 . S
C44 C43 1.267 . S
C44 C45 1.251 . S
C45 H15 0.929 . S
C45 N41 1.418 . S
C45 C44 1.251 . S
C46 H13 0.930 . S
C46 C48 1.406 . S
C46 C51 1.261 . S
C47 H14 0.930 . S
C47 N49 1.325 . S
C47 C50 1.357 . S
C48 H16 0.928 . S
C48 C46 1.406 . S
C48 N49 1.261 . S
N49 Co0 2.214 1_655 S
N49 C47 1.325 . S
N49 C48 1.261 . S
C50 H20 0.931 . S
C50 C47 1.357 . S
C50 C51 1.312 . S
C51 H22 0.930 . S
C51 C46 1.261 . S
C51 C50 1.312 . S
C52 O24 1.214 . S
C52 O32 1.234 . S
C53 H25 0.929 . S
C53 C56 1.391 . S
C53 C58 1.391 . S
C54 H26 0.929 . S
C54 C55 1.390 . S
C54 N57 1.391 . S
C55 H27 0.930 . S
C55 C54 1.390 . S
C55 C56 1.392 . S
C56 H28 0.929 . S
C56 C53 1.391 . S
C56 C55 1.392 . S
N57 Co1 2.257 . S
N57 C54 1.391 . S
N57 C58 1.388 . S
C58 H29 0.930 . S
C58 C53 1.391 . S
C58 N57 1.388 . S
Co59 O61 2.143 . S
Co59 O67 2.074 . S
Co59 O70 2.093 1_545 S
Co59 O83 2.097 . S
Co59 N100 2.151 1_545 S
Co59 N108 2.214 1_545 S
Co60 O61 2.160 . S
Co60 O66 2.058 . S
Co60 O76 2.057 . S
Co60 O91 2.037 . S
Co60 N95 2.145 . S
Co60 N116 2.257 . S
O61 Co59 2.143 . S
O61 Co60 2.160 . S
C62 O63 1.278 . S
C62 O70 1.224 1_545 S
O63 C62 1.278 . S
C64 O65 1.245 . S
C64 O76 1.232 . S
O65 C64 1.245 . S
O66 Co60 2.058 . S
O66 C92 1.269 . S
O67 Co59 2.074 . S
O67 C92 1.257 . S
H68 C93 0.930 . S
H69 C99 0.930 1_545 S
O70 Co59 2.093 1_565 S
O70 C62 1.224 1_565 S
H71 C103 0.929 . S
H72 C105 0.930 . S
H73 C106 0.930 . S
H74 C104 0.929 . S
H75 C107 0.928 . S
O76 Co60 2.057 . S
O76 C64 1.232 . S
H77 C96 0.929 . S
H78 C97 0.929 . S
H79 C109 0.931 . S
H80 C101 0.929 . S
H81 C110 0.930 . S
H82 C102 0.931 . S
O83 Co59 2.097 . S
O83 C111 1.214 . S
H84 C112 0.929 . S
H85 C113 0.929 . S
H86 C114 0.930 . S
H87 C115 0.929 . S
H88 C117 0.930 . S
H89 C94 0.930 . S
H90 C98 0.930 . S
O91 Co60 2.037 . S
O91 C111 1.234 . S
C92 O66 1.269 . S
C92 O67 1.257 . S
C93 H68 0.930 . S
C93 C96 1.388 . S
C93 C98 1.418 . S
C94 H89 0.930 . S
C94 C97 1.404 . S
C94 C98 1.353 . S
N95 Co60 2.145 . S
N95 C96 1.397 . S
N95 C97 1.334 . S
C96 H77 0.929 . S
C96 C93 1.388 . S
C96 N95 1.397 . S
C97 H78 0.929 . S
C97 C94 1.404 . S
C97 N95 1.334 . S
C98 H90 0.930 . S
C98 C93 1.418 . S
C98 C94 1.353 . S
C99 H69 0.930 1_565 S
C99 N100 1.330 . S
C99 C101 1.446 . S
N100 Co59 2.151 1_565 S
N100 C99 1.330 . S
N100 C104 1.418 . S
C101 H80 0.929 . S
C101 C99 1.446 . S
C101 C102 1.332 . S
C102 H82 0.931 . S
C102 C101 1.332 . S
C102 C103 1.267 . S
C103 H71 0.929 . S
C103 C102 1.267 . S
C103 C104 1.251 . S
C104 H74 0.929 . S
C104 N100 1.418 . S
C104 C103 1.251 . S
C105 H72 0.930 . S
C105 C107 1.406 . S
C105 C110 1.261 . S
C106 H73 0.930 . S
C106 N108 1.325 . S
C106 C109 1.357 . S
C107 H75 0.928 . S
C107 C105 1.406 . S
C107 N108 1.261 . S
N108 Co59 2.214 1_565 S
N108 C106 1.325 . S
N108 C107 1.261 . S
C109 H79 0.931 . S
C109 C106 1.357 . S
C109 C110 1.312 . S
C110 H81 0.930 . S
C110 C105 1.261 . S
C110 C109 1.312 . S
C111 O83 1.214 . S
C111 O91 1.234 . S
C112 H84 0.929 . S
C112 C115 1.391 . S
C112 C117 1.391 . S
C113 H85 0.929 . S
C113 C114 1.390 . S
C113 N116 1.391 . S
C114 H86 0.930 . S
C114 C113 1.390 . S
C114 C115 1.392 . S
C115 H87 0.929 . S
C115 C112 1.391 . S
C115 C114 1.392 . S
N116 Co60 2.257 . S
N116 C113 1.391 . S
N116 C117 1.388 . S
C117 H88 0.930 . S
C117 C112 1.391 . S
C117 N116 1.388 . S
Co118 O120 2.143 . S
Co118 O126 2.074 . S
Co118 O129 2.093 . S
Co118 O142 2.097 . S
Co118 N159 2.151 . S
Co118 N167 2.214 . S
Co119 O120 2.160 . S
Co119 O125 2.058 . S
Co119 O135 2.057 . S
Co119 O150 2.037 . S
Co119 N154 2.145 . S
Co119 N175 2.257 . S
O120 Co118 2.143 . S
O120 Co119 2.160 . S
C121 O122 1.278 . S
C121 O129 1.224 . S
O122 C121 1.278 . S
C123 O124 1.245 . S
C123 O135 1.232 . S
O124 C123 1.245 . S
O125 Co119 2.058 . S
O125 C151 1.269 . S
O126 Co118 2.074 . S
O126 C151 1.257 . S
H127 C152 0.930 . S
H128 C158 0.930 . S
O129 Co118 2.093 . S
O129 C121 1.224 . S
H130 C162 0.929 . S
H131 C164 0.930 . S
H132 C165 0.930 . S
H133 C163 0.929 . S
H134 C166 0.928 . S
O135 Co119 2.057 . S
O135 C123 1.232 . S
H136 C155 0.929 . S
H137 C156 0.929 . S
H138 C168 0.931 . S
H139 C160 0.929 . S
H140 C169 0.930 . S
H141 C161 0.931 . S
O142 Co118 2.097 . S
O142 C170 1.214 . S
H143 C171 0.929 . S
H144 C172 0.929 . S
H145 C173 0.930 . S
H146 C174 0.929 . S
H147 C176 0.930 . S
H148 C153 0.930 . S
H149 C157 0.930 . S
O150 Co119 2.037 . S
O150 C170 1.234 . S
C151 O125 1.269 . S
C151 O126 1.257 . S
C152 H127 0.930 . S
C152 C155 1.388 . S
C152 C157 1.418 . S
C153 H148 0.930 . S
C153 C156 1.404 . S
C153 C157 1.353 . S
N154 Co119 2.145 . S
N154 C155 1.397 . S
N154 C156 1.334 . S
C155 H136 0.929 . S
C155 C152 1.388 . S
C155 N154 1.397 . S
C156 H137 0.929 . S
C156 C153 1.404 . S
C156 N154 1.334 . S
C157 H149 0.930 . S
C157 C152 1.418 . S
C157 C153 1.353 . S
C158 H128 0.930 . S
C158 N159 1.330 . S
C158 C160 1.446 . S
N159 Co118 2.151 . S
N159 C158 1.330 . S
N159 C163 1.418 . S
C160 H139 0.929 . S
C160 C158 1.446 . S
C160 C161 1.332 . S
C161 H141 0.931 . S
C161 C160 1.332 . S
C161 C162 1.267 . S
C162 H130 0.929 . S
C162 C161 1.267 . S
C162 C163 1.251 . S
C163 H133 0.929 . S
C163 N159 1.418 . S
C163 C162 1.251 . S
C164 H131 0.930 . S
C164 C166 1.406 . S
C164 C169 1.261 . S
C165 H132 0.930 . S
C165 N167 1.325 . S
C165 C168 1.357 . S
C166 H134 0.928 . S
C166 C164 1.406 . S
C166 N167 1.261 . S
N167 Co118 2.214 . S
N167 C165 1.325 . S
N167 C166 1.261 . S
C168 H138 0.931 . S
C168 C165 1.357 . S
C168 C169 1.312 . S
C169 H140 0.930 . S
C169 C164 1.261 . S
C169 C168 1.312 . S
C170 O142 1.214 . S
C170 O150 1.234 . S
C171 H143 0.929 . S
C171 C174 1.391 . S
C171 C176 1.391 . S
C172 H144 0.929 . S
C172 C173 1.390 . S
C172 N175 1.391 . S
C173 H145 0.930 . S
C173 C172 1.390 . S
C173 C174 1.392 . S
C174 H146 0.929 . S
C174 C171 1.391 . S
C174 C173 1.392 . S
N175 Co119 2.257 . S
N175 C172 1.391 . S
N175 C176 1.388 . S
C176 H147 0.930 . S
C176 C171 1.391 . S
C176 N175 1.388 . S
Co177 O179 2.143 . S
Co177 O185 2.074 . S
Co177 O188 2.093 1_655 S
Co177 O201 2.097 . S
Co177 N218 2.151 1_655 S
Co177 N226 2.214 1_655 S
Co178 O179 2.160 . S
Co178 O184 2.058 . S
Co178 O194 2.057 . S
Co178 O209 2.037 . S
Co178 N213 2.145 . S
Co178 N234 2.257 . S
O179 Co177 2.143 . S
O179 Co178 2.160 . S
C180 O181 1.278 . S
C180 O188 1.224 1_655 S
O181 C180 1.278 . S
C182 O183 1.245 . S
C182 O194 1.232 . S
O183 C182 1.245 . S
O184 Co178 2.058 . S
O184 C210 1.269 . S
O185 Co177 2.074 . S
O185 C210 1.257 . S
H186 C211 0.930 . S
H187 C217 0.930 1_655 S
O188 Co177 2.093 1_455 S
O188 C180 1.224 1_455 S
H189 C221 0.929 . S
H190 C223 0.930 . S
H191 C224 0.930 . S
H192 C222 0.929 . S
H193 C225 0.928 . S
O194 Co178 2.057 . S
O194 C182 1.232 . S
H195 C214 0.929 . S
H196 C215 0.929 . S
H197 C227 0.931 . S
H198 C219 0.929 . S
H199 C228 0.930 . S
H200 C220 0.931 . S
O201 Co177 2.097 . S
O201 C229 1.214 . S
H202 C230 0.929 . S
H203 C231 0.929 . S
H204 C232 0.930 . S
H205 C233 0.929 . S
H206 C235 0.930 . S
H207 C212 0.930 . S
H208 C216 0.930 . S
O209 Co178 2.037 . S
O209 C229 1.234 . S
C210 O184 1.269 . S
C210 O185 1.257 . S
C211 H186 0.930 . S
C211 C214 1.388 . S
C211 C216 1.418 . S
C212 H207 0.930 . S
C212 C215 1.404 . S
C212 C216 1.353 . S
N213 Co178 2.145 . S
N213 C214 1.397 . S
N213 C215 1.334 . S
C214 H195 0.929 . S
C214 C211 1.388 . S
C214 N213 1.397 . S
C215 H196 0.929 . S
C215 C212 1.404 . S
C215 N213 1.334 . S
C216 H208 0.930 . S
C216 C211 1.418 . S
C216 C212 1.353 . S
C217 H187 0.930 1_455 S
C217 N218 1.330 . S
C217 C219 1.446 . S
N218 Co177 2.151 1_455 S
N218 C217 1.330 . S
N218 C222 1.418 . S
C219 H198 0.929 . S
C219 C217 1.446 . S
C219 C220 1.332 . S
C220 H200 0.931 . S
C220 C219 1.332 . S
C220 C221 1.267 . S
C221 H189 0.929 . S
C221 C220 1.267 . S
C221 C222 1.251 . S
C222 H192 0.929 . S
C222 N218 1.418 . S
C222 C221 1.251 . S
C223 H190 0.930 . S
C223 C225 1.406 . S
C223 C228 1.261 . S
C224 H191 0.930 . S
C224 N226 1.325 . S
C224 C227 1.357 . S
C225 H193 0.928 . S
C225 C223 1.406 . S
C225 N226 1.261 . S
N226 Co177 2.214 1_455 S
N226 C224 1.325 . S
N226 C225 1.261 . S
C227 H197 0.931 . S
C227 C224 1.357 . S
C227 C228 1.312 . S
C228 H199 0.930 . S
C228 C223 1.261 . S
C228 C227 1.312 . S
C229 O201 1.214 . S
C229 O209 1.234 . S
C230 H202 0.929 . S
C230 C233 1.391 . S
C230 C235 1.391 . S
C231 H203 0.929 . S
C231 C232 1.390 . S
C231 N234 1.391 . S
C232 H204 0.930 . S
C232 C231 1.390 . S
C232 C233 1.392 . S
C233 H205 0.929 . S
C233 C230 1.391 . S
C233 C232 1.392 . S
N234 Co178 2.257 . S
N234 C231 1.391 . S
N234 C235 1.388 . S
C235 H206 0.930 . S
C235 C230 1.391 . S
C235 N234 1.388 . S
Co236 O238 2.143 . S
Co236 O244 2.074 . S
Co236 O247 2.093 1_565 S
Co236 O260 2.097 . S
Co236 N277 2.151 1_565 S
Co236 N285 2.214 1_565 S
Co237 O238 2.160 . S
Co237 O243 2.058 . S
Co237 O253 2.057 . S
Co237 O268 2.037 . S
Co237 N272 2.145 . S
Co237 N293 2.257 . S
O238 Co236 2.143 . S
O238 Co237 2.160 . S
C239 O240 1.278 . S
C239 O247 1.224 1_565 S
O240 C239 1.278 . S
C241 O242 1.245 . S
C241 O253 1.232 . S
O242 C241 1.245 . S
O243 Co237 2.058 . S
O243 C269 1.269 . S
O244 Co236 2.074 . S
O244 C269 1.257 . S
H245 C270 0.930 . S
H246 C276 0.930 1_565 S
O247 Co236 2.093 1_545 S
O247 C239 1.224 1_545 S
H248 C280 0.929 . S
H249 C282 0.930 . S
H250 C283 0.930 . S
H251 C281 0.929 . S
H252 C284 0.928 . S
O253 Co237 2.057 . S
O253 C241 1.232 . S
H254 C273 0.929 . S
H255 C274 0.929 . S
H256 C286 0.931 . S
H257 C278 0.929 . S
H258 C287 0.930 . S
H259 C279 0.931 . S
O260 Co236 2.097 . S
O260 C288 1.214 . S
H261 C289 0.929 . S
H262 C290 0.929 . S
H263 C291 0.930 . S
H264 C292 0.929 . S
H265 C294 0.930 . S
H266 C271 0.930 . S
H267 C275 0.930 . S
O268 Co237 2.037 . S
O268 C288 1.234 . S
C269 O243 1.269 . S
C269 O244 1.257 . S
C270 H245 0.930 . S
C270 C273 1.388 . S
C270 C275 1.418 . S
C271 H266 0.930 . S
C271 C274 1.404 . S
C271 C275 1.353 . S
N272 Co237 2.145 . S
N272 C273 1.397 . S
N272 C274 1.334 . S
C273 H254 0.929 . S
C273 C270 1.388 . S
C273 N272 1.397 . S
C274 H255 0.929 . S
C274 C271 1.404 . S
C274 N272 1.334 . S
C275 H267 0.930 . S
C275 C270 1.418 . S
C275 C271 1.353 . S
C276 H246 0.930 1_545 S
C276 N277 1.330 . S
C276 C278 1.446 . S
N277 Co236 2.151 1_545 S
N277 C276 1.330 . S
N277 C281 1.418 . S
C278 H257 0.929 . S
C278 C276 1.446 . S
C278 C279 1.332 . S
C279 H259 0.931 . S
C279 C278 1.332 . S
C279 C280 1.267 . S
C280 H248 0.929 . S
C280 C279 1.267 . S
C280 C281 1.251 . S
C281 H251 0.929 . S
C281 N277 1.418 . S
C281 C280 1.251 . S
C282 H249 0.930 . S
C282 C284 1.406 . S
C282 C287 1.261 . S
C283 H250 0.930 . S
C283 N285 1.325 . S
C283 C286 1.357 . S
C284 H252 0.928 . S
C284 C282 1.406 . S
C284 N285 1.261 . S
N285 Co236 2.214 1_545 S
N285 C283 1.325 . S
N285 C284 1.261 . S
C286 H256 0.931 . S
C286 C283 1.357 . S
C286 C287 1.312 . S
C287 H258 0.930 . S
C287 C282 1.261 . S
C287 C286 1.312 . S
C288 O260 1.214 . S
C288 O268 1.234 . S
C289 H261 0.929 . S
C289 C292 1.391 . S
C289 C294 1.391 . S
C290 H262 0.929 . S
C290 C291 1.390 . S
C290 N293 1.391 . S
C291 H263 0.930 . S
C291 C290 1.390 . S
C291 C292 1.392 . S
C292 H264 0.929 . S
C292 C289 1.391 . S
C292 C291 1.392 . S
N293 Co237 2.257 . S
N293 C290 1.391 . S
N293 C294 1.388 . S
C294 H265 0.930 . S
C294 C289 1.391 . S
C294 N293 1.388 . S
Co295 O297 2.143 . S
Co295 O303 2.074 . S
Co295 O306 2.093 . S
Co295 O319 2.097 . S
Co295 N336 2.151 . S
Co295 N344 2.214 . S
Co296 O297 2.160 . S
Co296 O302 2.058 . S
Co296 O312 2.057 . S
Co296 O327 2.037 . S
Co296 N331 2.145 . S
Co296 N352 2.257 . S
O297 Co295 2.143 . S
O297 Co296 2.160 . S
C298 O299 1.278 . S
C298 O306 1.224 . S
O299 C298 1.278 . S
C300 O301 1.245 . S
C300 O312 1.232 . S
O301 C300 1.245 . S
O302 Co296 2.058 . S
O302 C328 1.269 . S
O303 Co295 2.074 . S
O303 C328 1.257 . S
H304 C329 0.930 . S
H305 C335 0.930 . S
O306 Co295 2.093 . S
O306 C298 1.224 . S
H307 C339 0.929 . S
H308 C341 0.930 . S
H309 C342 0.930 . S
H310 C340 0.929 . S
H311 C343 0.928 . S
O312 Co296 2.057 . S
O312 C300 1.232 . S
H313 C332 0.929 . S
H314 C333 0.929 . S
H315 C345 0.931 . S
H316 C337 0.929 . S
H317 C346 0.930 . S
H318 C338 0.931 . S
O319 Co295 2.097 . S
O319 C347 1.214 . S
H320 C348 0.929 . S
H321 C349 0.929 . S
H322 C350 0.930 . S
H323 C351 0.929 . S
H324 C353 0.930 . S
H325 C330 0.930 . S
H326 C334 0.930 . S
O327 Co296 2.037 . S
O327 C347 1.234 . S
C328 O302 1.269 . S
C328 O303 1.257 . S
C329 H304 0.930 . S
C329 C332 1.388 . S
C329 C334 1.418 . S
C330 H325 0.930 . S
C330 C333 1.404 . S
C330 C334 1.353 . S
N331 Co296 2.145 . S
N331 C332 1.397 . S
N331 C333 1.334 . S
C332 H313 0.929 . S
C332 C329 1.388 . S
C332 N331 1.397 . S
C333 H314 0.929 . S
C333 C330 1.404 . S
C333 N331 1.334 . S
C334 H326 0.930 . S
C334 C329 1.418 . S
C334 C330 1.353 . S
C335 H305 0.930 . S
C335 N336 1.330 . S
C335 C337 1.446 . S
N336 Co295 2.151 . S
N336 C335 1.330 . S
N336 C340 1.418 . S
C337 H316 0.929 . S
C337 C335 1.446 . S
C337 C338 1.332 . S
C338 H318 0.931 . S
C338 C337 1.332 . S
C338 C339 1.267 . S
C339 H307 0.929 . S
C339 C338 1.267 . S
C339 C340 1.251 . S
C340 H310 0.929 . S
C340 N336 1.418 . S
C340 C339 1.251 . S
C341 H308 0.930 . S
C341 C343 1.406 . S
C341 C346 1.261 . S
C342 H309 0.930 . S
C342 N344 1.325 . S
C342 C345 1.357 . S
C343 H311 0.928 . S
C343 C341 1.406 . S
C343 N344 1.261 . S
N344 Co295 2.214 . S
N344 C342 1.325 . S
N344 C343 1.261 . S
C345 H315 0.931 . S
C345 C342 1.357 . S
C345 C346 1.312 . S
C346 H317 0.930 . S
C346 C341 1.261 . S
C346 C345 1.312 . S
C347 O319 1.214 . S
C347 O327 1.234 . S
C348 H320 0.929 . S
C348 C351 1.391 . S
C348 C353 1.391 . S
C349 H321 0.929 . S
C349 C350 1.390 . S
C349 N352 1.391 . S
C350 H322 0.930 . S
C350 C349 1.390 . S
C350 C351 1.392 . S
C351 H323 0.929 . S
C351 C348 1.391 . S
C351 C350 1.392 . S
N352 Co296 2.257 . S
N352 C349 1.391 . S
N352 C353 1.388 . S
C353 H324 0.930 . S
C353 C348 1.391 . S
C353 N352 1.388 . S
Co354 O356 2.143 . S
Co354 O362 2.074 . S
Co354 O365 2.093 1_565 S
Co354 O378 2.097 . S
Co354 N395 2.151 1_565 S
Co354 N403 2.214 1_565 S
Co355 O356 2.160 . S
Co355 O361 2.058 . S
Co355 O371 2.057 . S
Co355 O386 2.037 . S
Co355 N390 2.145 . S
Co355 N411 2.257 . S
O356 Co354 2.143 . S
O356 Co355 2.160 . S
C357 O358 1.278 . S
C357 O365 1.224 1_565 S
O358 C357 1.278 . S
C359 O360 1.245 . S
C359 O371 1.232 . S
O360 C359 1.245 . S
O361 Co355 2.058 . S
O361 C387 1.269 . S
O362 Co354 2.074 . S
O362 C387 1.257 . S
H363 C388 0.930 . S
H364 C394 0.930 1_565 S
O365 Co354 2.093 1_545 S
O365 C357 1.224 1_545 S
H366 C398 0.929 . S
H367 C400 0.930 . S
H368 C401 0.930 . S
H369 C399 0.929 . S
H370 C402 0.928 . S
O371 Co355 2.057 . S
O371 C359 1.232 . S
H372 C391 0.929 . S
H373 C392 0.929 . S
H374 C404 0.931 . S
H375 C396 0.929 . S
H376 C405 0.930 . S
H377 C397 0.931 . S
O378 Co354 2.097 . S
O378 C406 1.214 . S
H379 C407 0.929 . S
H380 C408 0.929 . S
H381 C409 0.930 . S
H382 C410 0.929 . S
H383 C412 0.930 . S
H384 C389 0.930 . S
H385 C393 0.930 . S
O386 Co355 2.037 . S
O386 C406 1.234 . S
C387 O361 1.269 . S
C387 O362 1.257 . S
C388 H363 0.930 . S
C388 C391 1.388 . S
C388 C393 1.418 . S
C389 H384 0.930 . S
C389 C392 1.404 . S
C389 C393 1.353 . S
N390 Co355 2.145 . S
N390 C391 1.397 . S
N390 C392 1.334 . S
C391 H372 0.929 . S
C391 C388 1.388 . S
C391 N390 1.397 . S
C392 H373 0.929 . S
C392 C389 1.404 . S
C392 N390 1.334 . S
C393 H385 0.930 . S
C393 C388 1.418 . S
C393 C389 1.353 . S
C394 H364 0.930 1_545 S
C394 N395 1.330 . S
C394 C396 1.446 . S
N395 Co354 2.151 1_545 S
N395 C394 1.330 . S
N395 C399 1.418 . S
C396 H375 0.929 . S
C396 C394 1.446 . S
C396 C397 1.332 . S
C397 H377 0.931 . S
C397 C396 1.332 . S
C397 C398 1.267 . S
C398 H366 0.929 . S
C398 C397 1.267 . S
C398 C399 1.251 . S
C399 H369 0.929 . S
C399 N395 1.418 . S
C399 C398 1.251 . S
C400 H367 0.930 . S
C400 C402 1.406 . S
C400 C405 1.261 . S
C401 H368 0.930 . S
C401 N403 1.325 . S
C401 C404 1.357 . S
C402 H370 0.928 . S
C402 C400 1.406 . S
C402 N403 1.261 . S
N403 Co354 2.214 1_545 S
N403 C401 1.325 . S
N403 C402 1.261 . S
C404 H374 0.931 . S
C404 C401 1.357 . S
C404 C405 1.312 . S
C405 H376 0.930 . S
C405 C400 1.261 . S
C405 C404 1.312 . S
C406 O378 1.214 . S
C406 O386 1.234 . S
C407 H379 0.929 . S
C407 C410 1.391 . S
C407 C412 1.391 . S
C408 H380 0.929 . S
C408 C409 1.390 . S
C408 N411 1.391 . S
C409 H381 0.930 . S
C409 C408 1.390 . S
C409 C410 1.392 . S
C410 H382 0.929 . S
C410 C407 1.391 . S
C410 C409 1.392 . S
N411 Co355 2.257 . S
N411 C408 1.391 . S
N411 C412 1.388 . S
C412 H383 0.930 . S
C412 C407 1.391 . S
C412 N411 1.388 . S
Co413 O415 2.143 . S
Co413 O421 2.074 . S
Co413 O424 2.093 . S
Co413 O437 2.097 . S
Co413 N454 2.151 . S
Co413 N462 2.214 . S
Co414 O415 2.160 . S
Co414 O420 2.058 . S
Co414 O430 2.057 . S
Co414 O445 2.037 . S
Co414 N449 2.145 . S
Co414 N470 2.257 . S
O415 Co413 2.143 . S
O415 Co414 2.160 . S
C416 O417 1.278 . S
C416 O424 1.224 . S
O417 C416 1.278 . S
C418 O419 1.245 . S
C418 O430 1.232 . S
O419 C418 1.245 . S
O420 Co414 2.058 . S
O420 C446 1.269 . S
O421 Co413 2.074 . S
O421 C446 1.257 . S
H422 C447 0.930 . S
H423 C453 0.930 . S
O424 Co413 2.093 . S
O424 C416 1.224 . S
H425 C457 0.929 . S
H426 C459 0.930 . S
H427 C460 0.930 . S
H428 C458 0.929 . S
H429 C461 0.928 . S
O430 Co414 2.057 . S
O430 C418 1.232 . S
H431 C450 0.929 . S
H432 C451 0.929 . S
H433 C463 0.931 . S
H434 C455 0.929 . S
H435 C464 0.930 . S
H436 C456 0.931 . S
O437 Co413 2.097 . S
O437 C465 1.214 . S
H438 C466 0.929 . S
H439 C467 0.929 . S
H440 C468 0.930 . S
H441 C469 0.929 . S
H442 C471 0.930 . S
H443 C448 0.930 . S
H444 C452 0.930 . S
O445 Co414 2.037 . S
O445 C465 1.234 . S
C446 O420 1.269 . S
C446 O421 1.257 . S
C447 H422 0.930 . S
C447 C450 1.388 . S
C447 C452 1.418 . S
C448 H443 0.930 . S
C448 C451 1.404 . S
C448 C452 1.353 . S
N449 Co414 2.145 . S
N449 C450 1.397 . S
N449 C451 1.334 . S
C450 H431 0.929 . S
C450 C447 1.388 . S
C450 N449 1.397 . S
C451 H432 0.929 . S
C451 C448 1.404 . S
C451 N449 1.334 . S
C452 H444 0.930 . S
C452 C447 1.418 . S
C452 C448 1.353 . S
C453 H423 0.930 . S
C453 N454 1.330 . S
C453 C455 1.446 . S
N454 Co413 2.151 . S
N454 C453 1.330 . S
N454 C458 1.418 . S
C455 H434 0.929 . S
C455 C453 1.446 . S
C455 C456 1.332 . S
C456 H436 0.931 . S
C456 C455 1.332 . S
C456 C457 1.267 . S
C457 H425 0.929 . S
C457 C456 1.267 . S
C457 C458 1.251 . S
C458 H428 0.929 . S
C458 N454 1.418 . S
C458 C457 1.251 . S
C459 H426 0.930 . S
C459 C461 1.406 . S
C459 C464 1.261 . S
C460 H427 0.930 . S
C460 N462 1.325 . S
C460 C463 1.357 . S
C461 H429 0.928 . S
C461 C459 1.406 . S
C461 N462 1.261 . S
N462 Co413 2.214 . S
N462 C460 1.325 . S
N462 C461 1.261 . S
C463 H433 0.931 . S
C463 C460 1.357 . S
C463 C464 1.312 . S
C464 H435 0.930 . S
C464 C459 1.261 . S
C464 C463 1.312 . S
C465 O437 1.214 . S
C465 O445 1.234 . S
C466 H438 0.929 . S
C466 C469 1.391 . S
C466 C471 1.391 . S
C467 H439 0.929 . S
C467 C468 1.390 . S
C467 N470 1.391 . S
C468 H440 0.930 . S
C468 C467 1.390 . S
C468 C469 1.392 . S
C469 H441 0.929 . S
C469 C466 1.391 . S
C469 C468 1.392 . S
N470 Co414 2.257 . S
N470 C467 1.391 . S
N470 C471 1.388 . S
C471 H442 0.930 . S
C471 C466 1.391 . S
C471 N470 1.388 . S
Co472 O474 2.143 . S
Co472 O480 2.074 . S
Co472 O483 2.093 1_455 S
Co472 O496 2.097 . S
Co472 N513 2.151 1_455 S
Co472 N521 2.214 1_455 S
Co473 O474 2.160 . S
Co473 O479 2.058 . S
Co473 O489 2.057 . S
Co473 O504 2.037 . S
Co473 N508 2.145 . S
Co473 N529 2.257 . S
O474 Co472 2.143 . S
O474 Co473 2.160 . S
C475 O476 1.278 . S
C475 O483 1.224 1_455 S
O476 C475 1.278 . S
C477 O478 1.245 . S
C477 O489 1.232 . S
O478 C477 1.245 . S
O479 Co473 2.058 . S
O479 C505 1.269 . S
O480 Co472 2.074 . S
O480 C505 1.257 . S
H481 C506 0.930 . S
H482 C512 0.930 1_455 S
O483 Co472 2.093 1_655 S
O483 C475 1.224 1_655 S
H484 C516 0.929 . S
H485 C518 0.930 . S
H486 C519 0.930 . S
H487 C517 0.929 . S
H488 C520 0.928 . S
O489 Co473 2.057 . S
O489 C477 1.232 . S
H490 C509 0.929 . S
H491 C510 0.929 . S
H492 C522 0.931 . S
H493 C514 0.929 . S
H494 C523 0.930 . S
H495 C515 0.931 . S
O496 Co472 2.097 . S
O496 C524 1.214 . S
H497 C525 0.929 . S
H498 C526 0.929 . S
H499 C527 0.930 . S
H500 C528 0.929 . S
H501 C530 0.930 . S
H502 C507 0.930 . S
H503 C511 0.930 . S
O504 Co473 2.037 . S
O504 C524 1.234 . S
C505 O479 1.269 . S
C505 O480 1.257 . S
C506 H481 0.930 . S
C506 C509 1.388 . S
C506 C511 1.418 . S
C507 H502 0.930 . S
C507 C510 1.404 . S
C507 C511 1.353 . S
N508 Co473 2.145 . S
N508 C509 1.397 . S
N508 C510 1.334 . S
C509 H490 0.929 . S
C509 C506 1.388 . S
C509 N508 1.397 . S
C510 H491 0.929 . S
C510 C507 1.404 . S
C510 N508 1.334 . S
C511 H503 0.930 . S
C511 C506 1.418 . S
C511 C507 1.353 . S
C512 H482 0.930 1_655 S
C512 N513 1.330 . S
C512 C514 1.446 . S
N513 Co472 2.151 1_655 S
N513 C512 1.330 . S
N513 C517 1.418 . S
C514 H493 0.929 . S
C514 C512 1.446 . S
C514 C515 1.332 . S
C515 H495 0.931 . S
C515 C514 1.332 . S
C515 C516 1.267 . S
C516 H484 0.929 . S
C516 C515 1.267 . S
C516 C517 1.251 . S
C517 H487 0.929 . S
C517 N513 1.418 . S
C517 C516 1.251 . S
C518 H485 0.930 . S
C518 C520 1.406 . S
C518 C523 1.261 . S
C519 H486 0.930 . S
C519 N521 1.325 . S
C519 C522 1.357 . S
C520 H488 0.928 . S
C520 C518 1.406 . S
C520 N521 1.261 . S
N521 Co472 2.214 1_655 S
N521 C519 1.325 . S
N521 C520 1.261 . S
C522 H492 0.931 . S
C522 C519 1.357 . S
C522 C523 1.312 . S
C523 H494 0.930 . S
C523 C518 1.261 . S
C523 C522 1.312 . S
C524 O496 1.214 . S
C524 O504 1.234 . S
C525 H497 0.929 . S
C525 C528 1.391 . S
C525 C530 1.391 . S
C526 H498 0.929 . S
C526 C527 1.390 . S
C526 N529 1.391 . S
C527 H499 0.930 . S
C527 C526 1.390 . S
C527 C528 1.392 . S
C528 H500 0.929 . S
C528 C525 1.391 . S
C528 C527 1.392 . S
N529 Co473 2.257 . S
N529 C526 1.391 . S
N529 C530 1.388 . S
C530 H501 0.930 . S
C530 C525 1.391 . S
C530 N529 1.388 . S
Co531 O533 2.143 . S
Co531 O539 2.074 . S
Co531 O542 2.093 1_545 S
Co531 O555 2.097 . S
Co531 N572 2.151 1_545 S
Co531 N580 2.214 1_545 S
Co532 O533 2.160 . S
Co532 O538 2.058 . S
Co532 O548 2.057 . S
Co532 O563 2.037 . S
Co532 N567 2.145 . S
Co532 N588 2.257 . S
O533 Co531 2.143 . S
O533 Co532 2.160 . S
C534 O535 1.278 . S
C534 O542 1.224 1_545 S
O535 C534 1.278 . S
C536 O537 1.245 . S
C536 O548 1.232 . S
O537 C536 1.245 . S
O538 Co532 2.058 . S
O538 C564 1.269 . S
O539 Co531 2.074 . S
O539 C564 1.257 . S
H540 C565 0.930 . S
H541 C571 0.930 1_545 S
O542 Co531 2.093 1_565 S
O542 C534 1.224 1_565 S
H543 C575 0.929 . S
H544 C577 0.930 . S
H545 C578 0.930 . S
H546 C576 0.929 . S
H547 C579 0.928 . S
O548 Co532 2.057 . S
O548 C536 1.232 . S
H549 C568 0.929 . S
H550 C569 0.929 . S
H551 C581 0.931 . S
H552 C573 0.929 . S
H553 C582 0.930 . S
H554 C574 0.931 . S
O555 Co531 2.097 . S
O555 C583 1.214 . S
H556 C584 0.929 . S
H557 C585 0.929 . S
H558 C586 0.930 . S
H559 C587 0.929 . S
H560 C589 0.930 . S
H561 C566 0.930 . S
H562 C570 0.930 . S
O563 Co532 2.037 . S
O563 C583 1.234 . S
C564 O538 1.269 . S
C564 O539 1.257 . S
C565 H540 0.930 . S
C565 C568 1.388 . S
C565 C570 1.418 . S
C566 H561 0.930 . S
C566 C569 1.404 . S
C566 C570 1.353 . S
N567 Co532 2.145 . S
N567 C568 1.397 . S
N567 C569 1.334 . S
C568 H549 0.929 . S
C568 C565 1.388 . S
C568 N567 1.397 . S
C569 H550 0.929 . S
C569 C566 1.404 . S
C569 N567 1.334 . S
C570 H562 0.930 . S
C570 C565 1.418 . S
C570 C566 1.353 . S
C571 H541 0.930 1_565 S
C571 N572 1.330 . S
C571 C573 1.446 . S
N572 Co531 2.151 1_565 S
N572 C571 1.330 . S
N572 C576 1.418 . S
C573 H552 0.929 . S
C573 C571 1.446 . S
C573 C574 1.332 . S
C574 H554 0.931 . S
C574 C573 1.332 . S
C574 C575 1.267 . S
C575 H543 0.929 . S
C575 C574 1.267 . S
C575 C576 1.251 . S
C576 H546 0.929 . S
C576 N572 1.418 . S
C576 C575 1.251 . S
C577 H544 0.930 . S
C577 C579 1.406 . S
C577 C582 1.261 . S
C578 H545 0.930 . S
C578 N580 1.325 . S
C578 C581 1.357 . S
C579 H547 0.928 . S
C579 C577 1.406 . S
C579 N580 1.261 . S
N580 Co531 2.214 1_565 S
N580 C578 1.325 . S
N580 C579 1.261 . S
C581 H551 0.931 . S
C581 C578 1.357 . S
C581 C582 1.312 . S
C582 H553 0.930 . S
C582 C577 1.261 . S
C582 C581 1.312 . S
C583 O555 1.214 . S
C583 O563 1.234 . S
C584 H556 0.929 . S
C584 C587 1.391 . S
C584 C589 1.391 . S
C585 H557 0.929 . S
C585 C586 1.390 . S
C585 N588 1.391 . S
C586 H558 0.930 . S
C586 C585 1.390 . S
C586 C587 1.392 . S
C587 H559 0.929 . S
C587 C584 1.391 . S
C587 C586 1.392 . S
N588 Co532 2.257 . S
N588 C585 1.391 . S
N588 C589 1.388 . S
C589 H560 0.930 . S
C589 C584 1.391 . S
C589 N588 1.388 . S
Co590 O592 2.143 . S
Co590 O598 2.074 . S
Co590 O601 2.093 . S
Co590 O614 2.097 . S
Co590 N631 2.151 . S
Co590 N639 2.214 . S
Co591 O592 2.160 . S
Co591 O597 2.058 . S
Co591 O607 2.057 . S
Co591 O622 2.037 . S
Co591 N626 2.145 . S
Co591 N647 2.257 . S
O592 Co590 2.143 . S
O592 Co591 2.160 . S
C593 O594 1.278 . S
C593 O601 1.224 . S
O594 C593 1.278 . S
C595 O596 1.245 . S
C595 O607 1.232 . S
O596 C595 1.245 . S
O597 Co591 2.058 . S
O597 C623 1.269 . S
O598 Co590 2.074 . S
O598 C623 1.257 . S
H599 C624 0.930 . S
H600 C630 0.930 . S
O601 Co590 2.093 . S
O601 C593 1.224 . S
H602 C634 0.929 . S
H603 C636 0.930 . S
H604 C637 0.930 . S
H605 C635 0.929 . S
H606 C638 0.928 . S
O607 Co591 2.057 . S
O607 C595 1.232 . S
H608 C627 0.929 . S
H609 C628 0.929 . S
H610 C640 0.931 . S
H611 C632 0.929 . S
H612 C641 0.930 . S
H613 C633 0.931 . S
O614 Co590 2.097 . S
O614 C642 1.214 . S
H615 C643 0.929 . S
H616 C644 0.929 . S
H617 C645 0.930 . S
H618 C646 0.929 . S
H619 C648 0.930 . S
H620 C625 0.930 . S
H621 C629 0.930 . S
O622 Co591 2.037 . S
O622 C642 1.234 . S
C623 O597 1.269 . S
C623 O598 1.257 . S
C624 H599 0.930 . S
C624 C627 1.388 . S
C624 C629 1.418 . S
C625 H620 0.930 . S
C625 C628 1.404 . S
C625 C629 1.353 . S
N626 Co591 2.145 . S
N626 C627 1.397 . S
N626 C628 1.334 . S
C627 H608 0.929 . S
C627 C624 1.388 . S
C627 N626 1.397 . S
C628 H609 0.929 . S
C628 C625 1.404 . S
C628 N626 1.334 . S
C629 H621 0.930 . S
C629 C624 1.418 . S
C629 C625 1.353 . S
C630 H600 0.930 . S
C630 N631 1.330 . S
C630 C632 1.446 . S
N631 Co590 2.151 . S
N631 C630 1.330 . S
N631 C635 1.418 . S
C632 H611 0.929 . S
C632 C630 1.446 . S
C632 C633 1.332 . S
C633 H613 0.931 . S
C633 C632 1.332 . S
C633 C634 1.267 . S
C634 H602 0.929 . S
C634 C633 1.267 . S
C634 C635 1.251 . S
C635 H605 0.929 . S
C635 N631 1.418 . S
C635 C634 1.251 . S
C636 H603 0.930 . S
C636 C638 1.406 . S
C636 C641 1.261 . S
C637 H604 0.930 . S
C637 N639 1.325 . S
C637 C640 1.357 . S
C638 H606 0.928 . S
C638 C636 1.406 . S
C638 N639 1.261 . S
N639 Co590 2.214 . S
N639 C637 1.325 . S
N639 C638 1.261 . S
C640 H610 0.931 . S
C640 C637 1.357 . S
C640 C641 1.312 . S
C641 H612 0.930 . S
C641 C636 1.261 . S
C641 C640 1.312 . S
C642 O614 1.214 . S
C642 O622 1.234 . S
C643 H615 0.929 . S
C643 C646 1.391 . S
C643 C648 1.391 . S
C644 H616 0.929 . S
C644 C645 1.390 . S
C644 N647 1.391 . S
C645 H617 0.930 . S
C645 C644 1.390 . S
C645 C646 1.392 . S
C646 H618 0.929 . S
C646 C643 1.391 . S
C646 C645 1.392 . S
N647 Co591 2.257 . S
N647 C644 1.391 . S
N647 C648 1.388 . S
C648 H619 0.930 . S
C648 C643 1.391 . S
C648 N647 1.388 . S
Co649 O651 2.143 . S
Co649 O657 2.074 . S
Co649 O660 2.093 1_655 S
Co649 O673 2.097 . S
Co649 N690 2.151 1_655 S
Co649 N698 2.214 1_655 S
Co650 O651 2.160 . S
Co650 O656 2.058 . S
Co650 O666 2.057 . S
Co650 O681 2.037 . S
Co650 N685 2.145 . S
Co650 N706 2.257 . S
O651 Co649 2.143 . S
O651 Co650 2.160 . S
C652 O653 1.278 . S
C652 O660 1.224 1_655 S
O653 C652 1.278 . S
C654 O655 1.245 . S
C654 O666 1.232 . S
O655 C654 1.245 . S
O656 Co650 2.058 . S
O656 C682 1.269 . S
O657 Co649 2.074 . S
O657 C682 1.257 . S
H658 C683 0.930 . S
H659 C689 0.930 1_655 S
O660 Co649 2.093 1_455 S
O660 C652 1.224 1_455 S
H661 C693 0.929 . S
H662 C695 0.930 . S
H663 C696 0.930 . S
H664 C694 0.929 . S
H665 C697 0.928 . S
O666 Co650 2.057 . S
O666 C654 1.232 . S
H667 C686 0.929 . S
H668 C687 0.929 . S
H669 C699 0.931 . S
H670 C691 0.929 . S
H671 C700 0.930 . S
H672 C692 0.931 . S
O673 Co649 2.097 . S
O673 C701 1.214 . S
H674 C702 0.929 . S
H675 C703 0.929 . S
H676 C704 0.930 . S
H677 C705 0.929 . S
H678 C707 0.930 . S
H679 C684 0.930 . S
H680 C688 0.930 . S
O681 Co650 2.037 . S
O681 C701 1.234 . S
C682 O656 1.269 . S
C682 O657 1.257 . S
C683 H658 0.930 . S
C683 C686 1.388 . S
C683 C688 1.418 . S
C684 H679 0.930 . S
C684 C687 1.404 . S
C684 C688 1.353 . S
N685 Co650 2.145 . S
N685 C686 1.397 . S
N685 C687 1.334 . S
C686 H667 0.929 . S
C686 C683 1.388 . S
C686 N685 1.397 . S
C687 H668 0.929 . S
C687 C684 1.404 . S
C687 N685 1.334 . S
C688 H680 0.930 . S
C688 C683 1.418 . S
C688 C684 1.353 . S
C689 H659 0.930 1_455 S
C689 N690 1.330 . S
C689 C691 1.446 . S
N690 Co649 2.151 1_455 S
N690 C689 1.330 . S
N690 C694 1.418 . S
C691 H670 0.929 . S
C691 C689 1.446 . S
C691 C692 1.332 . S
C692 H672 0.931 . S
C692 C691 1.332 . S
C692 C693 1.267 . S
C693 H661 0.929 . S
C693 C692 1.267 . S
C693 C694 1.251 . S
C694 H664 0.929 . S
C694 N690 1.418 . S
C694 C693 1.251 . S
C695 H662 0.930 . S
C695 C697 1.406 . S
C695 C700 1.261 . S
C696 H663 0.930 . S
C696 N698 1.325 . S
C696 C699 1.357 . S
C697 H665 0.928 . S
C697 C695 1.406 . S
C697 N698 1.261 . S
N698 Co649 2.214 1_455 S
N698 C696 1.325 . S
N698 C697 1.261 . S
C699 H669 0.931 . S
C699 C696 1.357 . S
C699 C700 1.312 . S
C700 H671 0.930 . S
C700 C695 1.261 . S
C700 C699 1.312 . S
C701 O673 1.214 . S
C701 O681 1.234 . S
C702 H674 0.929 . S
C702 C705 1.391 . S
C702 C707 1.391 . S
C703 H675 0.929 . S
C703 C704 1.390 . S
C703 N706 1.391 . S
C704 H676 0.930 . S
C704 C703 1.390 . S
C704 C705 1.392 . S
C705 H677 0.929 . S
C705 C702 1.391 . S
C705 C704 1.392 . S
N706 Co650 2.257 . S
N706 C703 1.391 . S
N706 C707 1.388 . S
C707 H678 0.930 . S
C707 C702 1.391 . S
C707 N706 1.388 . S
H708 C714 0.930 . S
H709 C718 0.930 . S
H710 C723 0.929 . S
H711 C721 0.929 . S
H712 C716 0.929 . S
H713 C722 0.929 . S
C714 H708 0.930 . S
C714 C715 1.367 1_655 S
C714 C722 1.378 . S
C715 C714 1.367 1_455 S
C715 C723 1.433 . S
C716 H712 0.929 . S
C716 C718 1.378 . S
C716 C720 1.350 1_455 S
C717 C720 1.463 1_454 S
C717 C722 1.350 1_455 S
C717 N725 1.427 . S
C718 H709 0.930 . S
C718 C716 1.378 . S
C718 C719 1.367 1_455 S
C719 C718 1.367 1_655 S
C719 C721 1.433 . S
C720 C716 1.350 1_655 S
C720 C717 1.463 1_656 S
C720 N724 1.427 . S
C721 H711 0.929 . S
C721 C719 1.433 . S
C721 N724 1.384 . S
C722 H713 0.929 . S
C722 C714 1.378 . S
C722 C717 1.350 1_655 S
C723 H710 0.929 . S
C723 C715 1.433 . S
C723 N725 1.384 . S
N724 C720 1.427 . S
N724 C721 1.384 . S
N725 C717 1.427 . S
N725 C723 1.384 . S
H726 C732 0.930 . S
H727 C736 0.930 . S
H728 C741 0.929 . S
H729 C739 0.929 . S
H730 C734 0.929 . S
H731 C740 0.929 . S
C732 H726 0.930 . S
C732 C733 1.367 1_545 S
C732 C740 1.378 . S
C733 C732 1.367 1_565 S
C733 C741 1.433 . S
C734 H730 0.929 . S
C734 C736 1.378 . S
C734 C738 1.350 1_565 S
C735 C738 1.463 1_565 S
C735 C740 1.350 1_565 S
C735 N743 1.427 . S
C736 H727 0.930 . S
C736 C734 1.378 . S
C736 C737 1.367 1_565 S
C737 C736 1.367 1_545 S
C737 C739 1.433 . S
C738 C734 1.350 1_545 S
C738 C735 1.463 1_545 S
C738 N742 1.427 . S
C739 H729 0.929 . S
C739 C737 1.433 . S
C739 N742 1.384 . S
C740 H731 0.929 . S
C740 C732 1.378 . S
C740 C735 1.350 1_545 S
C741 H728 0.929 . S
C741 C733 1.433 . S
C741 N743 1.384 . S
N742 C738 1.427 . S
N742 C739 1.384 . S
N743 C735 1.427 . S
N743 C741 1.384 . S
H744 C750 0.930 . S
H745 C754 0.930 . S
H746 C759 0.929 . S
H747 C757 0.929 . S
H748 C752 0.929 . S
H749 C758 0.929 . S
C750 H744 0.930 . S
C750 C751 1.367 . S
C750 C758 1.378 . S
C751 C750 1.367 . S
C751 C759 1.433 . S
C752 H748 0.929 . S
C752 C754 1.378 . S
C752 C756 1.350 . S
C753 C756 1.463 1_554 S
C753 C758 1.350 . S
C753 N761 1.427 . S
C754 H745 0.930 . S
C754 C752 1.378 . S
C754 C755 1.367 . S
C755 C754 1.367 . S
C755 C757 1.433 . S
C756 C752 1.350 . S
C756 C753 1.463 1_556 S
C756 N760 1.427 . S
C757 H747 0.929 . S
C757 C755 1.433 . S
C757 N760 1.384 . S
C758 H749 0.929 . S
C758 C750 1.378 . S
C758 C753 1.350 . S
C759 H746 0.929 . S
C759 C751 1.433 . S
C759 N761 1.384 . S
N760 C756 1.427 . S
N760 C757 1.384 . S
N761 C753 1.427 . S
N761 C759 1.384 . S
H762 C768 0.930 . S
H763 C772 0.930 . S
H764 C777 0.929 . S
H765 C775 0.929 . S
H766 C770 0.935 1_455 S
H767 C776 0.935 1_655 S
C768 H762 0.930 . S
C768 C769 1.367 . S
C768 C776 1.378 . S
C769 C768 1.367 . S
C769 C777 1.433 . S
C770 H766 0.935 1_655 S
C770 C772 1.378 . S
C770 C774 1.350 . S
C771 C774 1.463 1_455 S
C771 C776 1.350 . S
C771 N779 1.427 . S
C772 H763 0.930 . S
C772 C770 1.378 . S
C772 C773 1.367 . S
C773 C772 1.367 . S
C773 C775 1.433 . S
C774 C770 1.350 . S
C774 C771 1.463 1_655 S
C774 N778 1.427 . S
C775 H765 0.929 . S
C775 C773 1.433 . S
C775 N778 1.384 . S
C776 H767 0.935 1_455 S
C776 C768 1.378 . S
C776 C771 1.350 . S
C777 H764 0.929 . S
C777 C769 1.433 . S
C777 N779 1.384 . S
N778 C774 1.427 . S
N778 C775 1.384 . S
N779 C771 1.427 . S
N779 C777 1.384 . S
H780 C786 0.930 . S
H781 C790 0.930 . S
H782 C795 0.929 . S
H783 C793 0.929 . S
H784 C788 0.929 . S
H785 C794 0.929 . S
C786 H780 0.930 . S
C786 C787 1.367 1_565 S
C786 C794 1.378 . S
C787 C786 1.367 1_545 S
C787 C795 1.433 . S
C788 H784 0.929 . S
C788 C790 1.378 . S
C788 C792 1.350 1_545 S
C789 C792 1.463 1_546 S
C789 C794 1.350 1_545 S
C789 N797 1.427 . S
C790 H781 0.930 . S
C790 C788 1.378 . S
C790 C791 1.367 1_545 S
C791 C790 1.367 1_565 S
C791 C793 1.433 . S
C792 C788 1.350 1_565 S
C792 C789 1.463 1_564 S
C792 N796 1.427 . S
C793 H783 0.929 . S
C793 C791 1.433 . S
C793 N796 1.384 . S
C794 H785 0.929 . S
C794 C786 1.378 . S
C794 C789 1.350 1_565 S
C795 H782 0.929 . S
C795 C787 1.433 . S
C795 N797 1.384 . S
N796 C792 1.427 . S
N796 C793 1.384 . S
N797 C789 1.427 . S
N797 C795 1.384 . S
H798 C804 0.930 . S
H799 C808 0.930 . S
H800 C813 0.929 . S
H801 C811 0.929 . S
H802 C806 0.929 . S
H803 C812 0.929 . S
C804 H798 0.930 . S
C804 C805 1.367 . S
C804 C812 1.378 . S
C805 C804 1.367 . S
C805 C813 1.433 . S
C806 H802 0.929 . S
C806 C808 1.378 . S
C806 C810 1.350 . S
C807 C810 1.463 . S
C807 C812 1.350 . S
C807 N815 1.427 . S
C808 H799 0.930 . S
C808 C806 1.378 . S
C808 C809 1.367 . S
C809 C808 1.367 . S
C809 C811 1.433 . S
C810 C806 1.350 . S
C810 C807 1.463 . S
C810 N814 1.427 . S
C811 H801 0.929 . S
C811 C809 1.433 . S
C811 N814 1.384 . S
C812 H803 0.929 . S
C812 C804 1.378 . S
C812 C807 1.350 . S
C813 H800 0.929 . S
C813 C805 1.433 . S
C813 N815 1.384 . S
N814 C810 1.427 . S
N814 C811 1.384 . S
N815 C807 1.427 . S
N815 C813 1.384 . S
H816 C822 0.930 . S
H817 C826 0.930 . S
H818 C831 0.929 . S
H819 C829 0.929 . S
H820 C824 0.929 . S
H821 C830 0.929 . S
C822 H816 0.930 . S
C822 C823 1.367 1_455 S
C822 C830 1.378 . S
C823 C822 1.367 1_655 S
C823 C831 1.433 . S
C824 H820 0.929 . S
C824 C826 1.378 . S
C824 C828 1.350 1_655 S
C825 C828 1.463 1_656 S
C825 C830 1.350 1_655 S
C825 N833 1.427 . S
C826 H817 0.930 . S
C826 C824 1.378 . S
C826 C827 1.367 1_655 S
C827 C826 1.367 1_455 S
C827 C829 1.433 . S
C828 C824 1.350 1_455 S
C828 C825 1.463 1_454 S
C828 N832 1.427 . S
C829 H819 0.929 . S
C829 C827 1.433 . S
C829 N832 1.384 . S
C830 H821 0.929 . S
C830 C822 1.378 . S
C830 C825 1.350 1_455 S
C831 H818 0.929 . S
C831 C823 1.433 . S
C831 N833 1.384 . S
N832 C828 1.427 . S
N832 C829 1.384 . S
N833 C825 1.427 . S
N833 C831 1.384 . S
H834 C840 0.930 . S
H835 C844 0.930 . S
H836 C849 0.929 . S
H837 C847 0.929 . S
H838 C842 0.929 . S
H839 C848 0.929 . S
C840 H834 0.930 . S
C840 C841 1.367 1_545 S
C840 C848 1.378 . S
C841 C840 1.367 1_565 S
C841 C849 1.433 . S
C842 H838 0.929 . S
C842 C844 1.378 . S
C842 C846 1.350 1_565 S
C843 C846 1.463 1_565 S
C843 C848 1.350 1_565 S
C843 N851 1.427 . S
C844 H835 0.930 . S
C844 C842 1.378 . S
C844 C845 1.367 1_565 S
C845 C844 1.367 1_545 S
C845 C847 1.433 . S
C846 C842 1.350 1_545 S
C846 C843 1.463 1_545 S
C846 N850 1.427 . S
C847 H837 0.929 . S
C847 C845 1.433 . S
C847 N850 1.384 . S
C848 H839 0.929 . S
C848 C840 1.378 . S
C848 C843 1.350 1_545 S
C849 H836 0.929 . S
C849 C841 1.433 . S
C849 N851 1.384 . S
N850 C846 1.427 . S
N850 C847 1.384 . S
N851 C843 1.427 . S
N851 C849 1.384 . S
H852 C858 0.930 . S
H853 C862 0.930 . S
H854 C867 0.929 . S
H855 C865 0.929 . S
H856 C860 0.929 . S
H857 C866 0.929 . S
C858 H852 0.930 . S
C858 C859 1.367 . S
C858 C866 1.378 . S
C859 C858 1.367 . S
C859 C867 1.433 . S
C860 H856 0.929 . S
C860 C862 1.378 . S
C860 C864 1.350 . S
C861 C864 1.463 1_556 S
C861 C866 1.350 . S
C861 N869 1.427 . S
C862 H853 0.930 . S
C862 C860 1.378 . S
C862 C863 1.367 . S
C863 C862 1.367 . S
C863 C865 1.433 . S
C864 C860 1.350 . S
C864 C861 1.463 1_554 S
C864 N868 1.427 . S
C865 H855 0.929 . S
C865 C863 1.433 . S
C865 N868 1.384 . S
C866 H857 0.929 . S
C866 C858 1.378 . S
C866 C861 1.350 . S
C867 H854 0.929 . S
C867 C859 1.433 . S
C867 N869 1.384 . S
N868 C864 1.427 . S
N868 C865 1.384 . S
N869 C861 1.427 . S
N869 C867 1.384 . S
H870 C876 0.930 . S
H871 C880 0.930 . S
H872 C885 0.929 . S
H873 C883 0.929 . S
H874 C878 0.929 . S
H875 C884 0.929 . S
C876 H870 0.930 . S
C876 C877 1.367 . S
C876 C884 1.378 . S
C877 C876 1.367 . S
C877 C885 1.433 1_655 S
C878 H874 0.929 . S
C878 C880 1.378 . S
C878 C882 1.350 . S
C879 C882 1.463 1_655 S
C879 C884 1.350 . S
C879 N887 1.427 1_655 S
C880 H871 0.930 . S
C880 C878 1.378 . S
C880 C881 1.367 . S
C881 C880 1.367 . S
C881 C883 1.433 1_455 S
C882 C878 1.350 . S
C882 C879 1.463 1_455 S
C882 N886 1.427 1_455 S
C883 H873 0.929 . S
C883 C881 1.433 1_655 S
C883 N886 1.384 . S
C884 H875 0.929 . S
C884 C876 1.378 . S
C884 C879 1.350 . S
C885 H872 0.929 . S
C885 C877 1.433 1_455 S
C885 N887 1.384 . S
N886 C882 1.427 1_655 S
N886 C883 1.384 . S
N887 C879 1.427 1_455 S
N887 C885 1.384 . S
H888 C894 0.930 . S
H889 C898 0.930 . S
H890 C903 0.929 . S
H891 C901 0.929 . S
H892 C896 0.929 . S
H893 C902 0.929 . S
C894 H888 0.930 . S
C894 C895 1.367 1_565 S
C894 C902 1.378 . S
C895 C894 1.367 1_545 S
C895 C903 1.433 . S
C896 H892 0.929 . S
C896 C898 1.378 . S
C896 C900 1.350 1_545 S
C897 C900 1.463 1_546 S
C897 C902 1.350 1_545 S
C897 N905 1.427 . S
C898 H889 0.930 . S
C898 C896 1.378 . S
C898 C899 1.367 1_545 S
C899 C898 1.367 1_565 S
C899 C901 1.433 . S
C900 C896 1.350 1_565 S
C900 C897 1.463 1_564 S
C900 N904 1.427 . S
C901 H891 0.929 . S
C901 C899 1.433 . S
C901 N904 1.384 . S
C902 H893 0.929 . S
C902 C894 1.378 . S
C902 C897 1.350 1_565 S
C903 H890 0.929 . S
C903 C895 1.433 . S
C903 N905 1.384 . S
N904 C900 1.427 . S
N904 C901 1.384 . S
N905 C897 1.427 . S
N905 C903 1.384 . S
H906 C912 0.930 . S
H907 C916 0.930 . S
H908 C921 0.929 . S
H909 C919 0.929 . S
H910 C914 0.929 . S
H911 C920 0.929 . S
C912 H906 0.930 . S
C912 C913 1.367 . S
C912 C920 1.378 . S
C913 C912 1.367 . S
C913 C921 1.433 . S
C914 H910 0.929 . S
C914 C916 1.378 . S
C914 C918 1.350 . S
C915 C918 1.463 . S
C915 C920 1.350 . S
C915 N923 1.427 . S
C916 H907 0.930 . S
C916 C914 1.378 . S
C916 C917 1.367 . S
C917 C916 1.367 . S
C917 C919 1.433 . S
C918 C914 1.350 . S
C918 C915 1.463 . S
C918 N922 1.427 . S
C919 H909 0.929 . S
C919 C917 1.433 . S
C919 N922 1.384 . S
C920 H911 0.929 . S
C920 C912 1.378 . S
C920 C915 1.350 . S
C921 H908 0.929 . S
C921 C913 1.433 . S
C921 N923 1.384 . S
N922 C918 1.427 . S
N922 C919 1.384 . S
N923 C915 1.427 . S
N923 C921 1.384 . S
H924 C930 0.930 . S
H925 C934 0.930 . S
H926 C939 0.929 . S
H927 C937 0.929 . S
H928 C932 0.929 . S
H929 C938 0.929 . S
C930 H924 0.930 . S
C930 C931 1.367 . S
C930 C938 1.378 . S
C931 C930 1.367 . S
C931 C939 1.433 . S
C932 H928 0.929 . S
C932 C934 1.378 . S
C932 C936 1.350 . S
C933 C936 1.463 . S
C933 C938 1.350 . S
C933 N941 1.427 . S
C934 H925 0.930 . S
C934 C932 1.378 . S
C934 C935 1.367 . S
C935 C934 1.367 . S
C935 C937 1.433 . S
C936 C932 1.350 . S
C936 C933 1.463 . S
C936 N940 1.427 . S
C937 H927 0.929 . S
C937 C935 1.433 . S
C937 N940 1.384 . S
C938 H929 0.929 . S
C938 C930 1.378 . S
C938 C933 1.350 . S
C939 H926 0.929 . S
C939 C931 1.433 . S
C939 N941 1.384 . S
N940 C936 1.427 . S
N940 C937 1.384 . S
N941 C933 1.427 . S
N941 C939 1.384 . S
H942 C948 0.930 . S
H943 C952 0.930 1_565 S
H944 C957 0.929 1_565 S
H945 C955 0.929 . S
H946 C950 0.929 1_565 S
H947 C956 0.929 . S
C948 H942 0.930 . S
C948 C949 1.367 . S
C948 C956 1.378 . S
C949 C948 1.367 . S
C949 C957 1.433 . S
C950 H946 0.929 1_545 S
C950 C952 1.378 . S
C950 C954 1.350 . S
C951 C954 1.463 . S
C951 C956 1.350 . S
C951 N959 1.427 . S
C952 H943 0.930 1_545 S
C952 C950 1.378 . S
C952 C953 1.367 . S
C953 C952 1.367 . S
C953 C955 1.433 . S
C954 C950 1.350 . S
C954 C951 1.463 . S
C954 N958 1.427 . S
C955 H945 0.929 . S
C955 C953 1.433 . S
C955 N958 1.384 . S
C956 H947 0.929 . S
C956 C948 1.378 . S
C956 C951 1.350 . S
C957 H944 0.929 1_545 S
C957 C949 1.433 . S
C957 N959 1.384 . S
N958 C954 1.427 . S
N958 C955 1.384 . S
N959 C951 1.427 . S
N959 C957 1.384 . S
H960 C966 0.930 . S
H961 C970 0.930 . S
H962 C975 0.929 . S
H963 C973 0.929 . S
H964 C968 0.929 . S
H965 C974 0.929 . S
C966 H960 0.930 . S
C966 C967 1.367 . S
C966 C974 1.378 . S
C967 C966 1.367 . S
C967 C975 1.433 . S
C968 H964 0.929 . S
C968 C970 1.378 . S
C968 C972 1.350 . S
C969 C972 1.463 . S
C969 C974 1.350 . S
C969 N977 1.427 . S
C970 H961 0.930 . S
C970 C968 1.378 . S
C970 C971 1.367 . S
C971 C970 1.367 . S
C971 C973 1.433 . S
C972 C968 1.350 . S
C972 C969 1.463 . S
C972 N976 1.427 . S
C973 H963 0.929 . S
C973 C971 1.433 . S
C973 N976 1.384 . S
C974 H965 0.929 . S
C974 C966 1.378 . S
C974 C969 1.350 . S
C975 H962 0.929 . S
C975 C967 1.433 . S
C975 N977 1.384 . S
N976 C972 1.427 . S
N976 C973 1.384 . S
N977 C969 1.427 . S
N977 C975 1.384 . S
H978 C984 0.930 . S
H979 C988 0.930 1_455 S
H980 C993 0.929 1_455 S
H981 C991 0.929 . S
H982 C986 0.929 1_455 S
H983 C992 0.929 . S
C984 H978 0.930 . S
C984 C985 1.367 . S
C984 C992 1.378 . S
C985 C984 1.367 . S
C985 C993 1.433 . S
C986 H982 0.929 1_655 S
C986 C988 1.378 . S
C986 C990 1.350 . S
C987 C990 1.463 . S
C987 C992 1.350 . S
C987 N995 1.427 . S
C988 H979 0.930 1_655 S
C988 C986 1.378 . S
C988 C989 1.367 . S
C989 C988 1.367 . S
C989 C991 1.433 . S
C990 C986 1.350 . S
C990 C987 1.463 . S
C990 N994 1.427 . S
C991 H981 0.929 . S
C991 C989 1.433 . S
C991 N994 1.384 . S
C992 H983 0.929 . S
C992 C984 1.378 . S
C992 C987 1.350 . S
C993 H980 0.929 1_655 S
C993 C985 1.433 . S
C993 N995 1.384 . S
N994 C990 1.427 . S
N994 C991 1.384 . S
N995 C987 1.427 . S
N995 C993 1.384 . S
H996 C1002 0.930 1_545 S
H997 C1006 0.930 . S
H998 C1011 0.929 . S
H999 C1009 0.929 1_545 S
H1000 C1004 0.929 . S
H1001 C1010 0.929 1_545 S
C1002 H996 0.930 1_565 S
C1002 C1003 1.367 . S
C1002 C1010 1.378 . S
C1003 C1002 1.367 . S
C1003 C1011 1.433 . S
C1004 H1000 0.929 . S
C1004 C1006 1.378 . S
C1004 C1008 1.350 . S
C1005 C1008 1.463 . S
C1005 C1010 1.350 . S
C1005 N1013 1.427 . S
C1006 H997 0.930 . S
C1006 C1004 1.378 . S
C1006 C1007 1.367 . S
C1007 C1006 1.367 . S
C1007 C1009 1.433 . S
C1008 C1004 1.350 . S
C1008 C1005 1.463 . S
C1008 N1012 1.427 . S
C1009 H999 0.929 1_565 S
C1009 C1007 1.433 . S
C1009 N1012 1.384 . S
C1010 H1001 0.929 1_565 S
C1010 C1002 1.378 . S
C1010 C1005 1.350 . S
C1011 H998 0.929 . S
C1011 C1003 1.433 . S
C1011 N1013 1.384 . S
N1012 C1008 1.427 . S
N1012 C1009 1.384 . S
N1013 C1005 1.427 . S
N1013 C1011 1.384 . S
H1014 C1020 0.930 . S
H1015 C1024 0.930 . S
H1016 C1029 0.929 . S
H1017 C1027 0.929 . S
H1018 C1022 0.929 . S
H1019 C1028 0.929 . S
C1020 H1014 0.930 . S
C1020 C1021 1.367 . S
C1020 C1028 1.378 . S
C1021 C1020 1.367 . S
C1021 C1029 1.433 . S
C1022 H1018 0.929 . S
C1022 C1024 1.378 . S
C1022 C1026 1.350 . S
C1023 C1026 1.463 . S
C1023 C1028 1.350 . S
C1023 N1031 1.427 . S
C1024 H1015 0.930 . S
C1024 C1022 1.378 . S
C1024 C1025 1.367 . S
C1025 C1024 1.367 . S
C1025 C1027 1.433 . S
C1026 C1022 1.350 . S
C1026 C1023 1.463 . S
C1026 N1030 1.427 . S
C1027 H1017 0.929 . S
C1027 C1025 1.433 . S
C1027 N1030 1.384 . S
C1028 H1019 0.929 . S
C1028 C1020 1.378 . S
C1028 C1023 1.350 . S
C1029 H1016 0.929 . S
C1029 C1021 1.433 . S
C1029 N1031 1.384 . S
N1030 C1026 1.427 . S
N1030 C1027 1.384 . S
N1031 C1023 1.427 . S
N1031 C1029 1.384 . S
H1032 C1038 0.930 . S
H1033 C1042 0.930 . S
H1034 C1047 0.929 . S
H1035 C1045 0.929 . S
H1036 C1040 0.929 . S
H1037 C1046 0.929 . S
C1038 H1032 0.930 . S
C1038 C1039 1.367 . S
C1038 C1046 1.378 . S
C1039 C1038 1.367 . S
C1039 C1047 1.433 . S
C1040 H1036 0.929 . S
C1040 C1042 1.378 . S
C1040 C1044 1.350 . S
C1041 C1044 1.463 . S
C1041 C1046 1.350 . S
C1041 N1049 1.427 . S
C1042 H1033 0.930 . S
C1042 C1040 1.378 . S
C1042 C1043 1.367 . S
C1043 C1042 1.367 . S
C1043 C1045 1.433 . S
C1044 C1040 1.350 . S
C1044 C1041 1.463 . S
C1044 N1048 1.427 . S
C1045 H1035 0.929 . S
C1045 C1043 1.433 . S
C1045 N1048 1.384 . S
C1046 H1037 0.929 . S
C1046 C1038 1.378 . S
C1046 C1041 1.350 . S
C1047 H1034 0.929 . S
C1047 C1039 1.433 . S
C1047 N1049 1.384 . S
N1048 C1044 1.427 . S
N1048 C1045 1.384 . S
N1049 C1041 1.427 . S
N1049 C1047 1.384 . S
H1050 C1056 0.930 . S
H1051 C1060 0.930 . S
H1052 C1065 0.929 . S
H1053 C1063 0.929 . S
H1054 C1058 0.929 . S
H1055 C1064 0.929 . S
C1056 H1050 0.930 . S
C1056 C1057 1.367 . S
C1056 C1064 1.378 . S
C1057 C1056 1.367 . S
C1057 C1065 1.433 . S
C1058 H1054 0.929 . S
C1058 C1060 1.378 . S
C1058 C1062 1.350 . S
C1059 C1062 1.463 . S
C1059 C1064 1.350 . S
C1059 N1067 1.427 . S
C1060 H1051 0.930 . S
C1060 C1058 1.378 . S
C1060 C1061 1.367 . S
C1061 C1060 1.367 . S
C1061 C1063 1.433 . S
C1062 C1058 1.350 . S
C1062 C1059 1.463 . S
C1062 N1066 1.427 . S
C1063 H1053 0.929 . S
C1063 C1061 1.433 . S
C1063 N1066 1.384 . S
C1064 H1055 0.929 . S
C1064 C1056 1.378 . S
C1064 C1059 1.350 . S
C1065 H1052 0.929 . S
C1065 C1057 1.433 . S
C1065 N1067 1.384 . S
N1066 C1062 1.427 . S
N1066 C1063 1.384 . S
N1067 C1059 1.427 . S
N1067 C1065 1.384 . S
H1068 C1074 0.930 . S
H1069 C1078 0.930 . S
H1070 C1083 0.929 . S
H1071 C1081 0.929 . S
H1072 C1076 0.929 . S
H1073 C1082 0.929 . S
C1074 H1068 0.930 . S
C1074 C1075 1.367 . S
C1074 C1082 1.378 . S
C1075 C1074 1.367 . S
C1075 C1083 1.433 . S
C1076 H1072 0.929 . S
C1076 C1078 1.378 . S
C1076 C1080 1.350 . S
C1077 C1080 1.463 . S
C1077 C1082 1.350 . S
C1077 N1085 1.427 . S
C1078 H1069 0.930 . S
C1078 C1076 1.378 . S
C1078 C1079 1.367 . S
C1079 C1078 1.367 . S
C1079 C1081 1.433 . S
C1080 C1076 1.350 . S
C1080 C1077 1.463 . S
C1080 N1084 1.427 . S
C1081 H1071 0.929 . S
C1081 C1079 1.433 . S
C1081 N1084 1.384 . S
C1082 H1073 0.929 . S
C1082 C1074 1.378 . S
C1082 C1077 1.350 . S
C1083 H1070 0.929 . S
C1083 C1075 1.433 . S
C1083 N1085 1.384 . S
N1084 C1080 1.427 . S
N1084 C1081 1.384 . S
N1085 C1077 1.427 . S
N1085 C1083 1.384 . S
H1086 C1092 0.930 . S
H1087 C1096 0.930 . S
H1088 C1101 0.929 . S
H1089 C1099 0.929 . S
H1090 C1094 0.929 . S
H1091 C1100 0.929 . S
C1092 H1086 0.930 . S
C1092 C1093 1.367 . S
C1092 C1100 1.378 . S
C1093 C1092 1.367 . S
C1093 C1101 1.433 . S
C1094 H1090 0.929 . S
C1094 C1096 1.378 . S
C1094 C1098 1.350 . S
C1095 C1098 1.463 . S
C1095 C1100 1.350 . S
C1095 N1103 1.427 . S
C1096 H1087 0.930 . S
C1096 C1094 1.378 . S
C1096 C1097 1.367 . S
C1097 C1096 1.367 . S
C1097 C1099 1.433 . S
C1098 C1094 1.350 . S
C1098 C1095 1.463 . S
C1098 N1102 1.427 . S
C1099 H1089 0.929 . S
C1099 C1097 1.433 . S
C1099 N1102 1.384 . S
C1100 H1091 0.929 . S
C1100 C1092 1.378 . S
C1100 C1095 1.350 . S
C1101 H1088 0.929 . S
C1101 C1093 1.433 . S
C1101 N1103 1.384 . S
N1102 C1098 1.427 . S
N1102 C1099 1.384 . S
N1103 C1095 1.427 . S
N1103 C1101 1.384 . S
H1104 C1110 0.930 . S
H1105 C1114 0.930 . S
H1106 C1119 0.929 . S
H1107 C1117 0.929 . S
H1108 C1112 0.929 . S
H1109 C1118 0.929 . S
C1110 H1104 0.930 . S
C1110 C1111 1.367 . S
C1110 C1118 1.378 . S
C1111 C1110 1.367 . S
C1111 C1119 1.433 . S
C1112 H1108 0.929 . S
C1112 C1114 1.378 . S
C1112 C1116 1.350 . S
C1113 C1116 1.463 . S
C1113 C1118 1.350 . S
C1113 N1121 1.427 . S
C1114 H1105 0.930 . S
C1114 C1112 1.378 . S
C1114 C1115 1.367 . S
C1115 C1114 1.367 . S
C1115 C1117 1.433 . S
C1116 C1112 1.350 . S
C1116 C1113 1.463 . S
C1116 N1120 1.427 . S
C1117 H1107 0.929 . S
C1117 C1115 1.433 . S
C1117 N1120 1.384 . S
C1118 H1109 0.929 . S
C1118 C1110 1.378 . S
C1118 C1113 1.350 . S
C1119 H1106 0.929 . S
C1119 C1111 1.433 . S
C1119 N1121 1.384 . S
N1120 C1116 1.427 . S
N1120 C1117 1.384 . S
N1121 C1113 1.427 . S
N1121 C1119 1.384 . S
H1122 C1128 0.930 . S
H1123 C1132 0.930 . S
H1124 C1137 0.929 . S
H1125 C1135 0.929 . S
H1126 C1130 0.929 . S
H1127 C1136 0.929 . S
C1128 H1122 0.930 . S
C1128 C1129 1.367 . S
C1128 C1136 1.378 . S
C1129 C1128 1.367 . S
C1129 C1137 1.433 . S
C1130 H1126 0.929 . S
C1130 C1132 1.378 . S
C1130 C1134 1.350 . S
C1131 C1134 1.463 . S
C1131 C1136 1.350 . S
C1131 N1139 1.427 . S
C1132 H1123 0.930 . S
C1132 C1130 1.378 . S
C1132 C1133 1.367 . S
C1133 C1132 1.367 . S
C1133 C1135 1.433 . S
C1134 C1130 1.350 . S
C1134 C1131 1.463 . S
C1134 N1138 1.427 . S
C1135 H1125 0.929 . S
C1135 C1133 1.433 . S
C1135 N1138 1.384 . S
C1136 H1127 0.929 . S
C1136 C1128 1.378 . S
C1136 C1131 1.350 . S
C1137 H1124 0.929 . S
C1137 C1129 1.433 . S
C1137 N1139 1.384 . S
N1138 C1134 1.427 . S
N1138 C1135 1.384 . S
N1139 C1131 1.427 . S
N1139 C1137 1.384 . S
C715 C33 1.713 . S
C719 C682 1.712 . S
C733 C387 1.712 . S
C737 C92 1.713 . S
C751 C151 1.709 . S
C755 C446 1.712 . S
C769 C505 1.710 . S
C773 C210 1.713 . S
C787 C564 1.711 . S
C791 C269 1.713 . S
C805 C623 1.713 . S
C809 C328 1.712 . S
C823 C180 1.088 . S
C827 C475 1.082 . S
C841 C239 1.087 . S
C845 C534 1.083 . S
C859 C298 1.088 . S
C863 C593 1.077 . S
C877 C652 1.084 . S
C881 C3 1.079 . S
C895 C62 1.087 . S
C899 C357 1.083 . S
C913 C121 1.085 . S
C917 C416 1.085 . S
C931 C524 1.829 . S
C935 C52 1.830 . S
C949 C583 1.832 . S
C953 C111 1.835 . S
C967 C170 1.834 . S
C971 C642 1.835 . S
C985 C229 1.829 . S
C989 C701 1.832 . S
C1003 C288 1.833 . S
C1007 C406 1.829 . S
C1021 C465 1.835 . S
C1025 C347 1.832 . S
C1039 C5 1.768 . S
C1043 C595 1.770 . S
C1057 C654 1.770 . S
C1061 C64 1.767 . S
C1075 C123 1.767 . S
C1079 C359 1.771 . S
C1093 C182 1.767 . S
C1097 C418 1.769 . S
C1111 C241 1.770 . S
C1115 C477 1.767 . S
C1129 C300 1.767 . S
C1133 C536 1.770 . S
