# Generated by pormake.
# Topology lcy-a, (4)-cn, num edge types: 1
# Building blocks:
#     Node 0, Type 0, BuildingBlock: CEKHIL_clean_sbu_0, # of connection points: 4
#     Node 1, Type 0, BuildingBlock: CEKHIL_clean_sbu_0, # of connection points: 4
#     Node 2, Type 0, BuildingBlock: CEKHIL_clean_sbu_0, # of connection points: 4
#     Node 3, Type 0, BuildingBlock: CEKHIL_clean_sbu_0, # of connection points: 4
#     Node 4, Type 0, BuildingBlock: CEKHIL_clean_sbu_0, # of connection points: 4
#     Node 5, Type 0, BuildingBlock: CEKHIL_clean_sbu_0, # of connection points: 4
#     Node 6, Type 0, BuildingBlock: CEKHIL_clean_sbu_0, # of connection points: 4
#     Node 7, Type 0, BuildingBlock: CEKHIL_clean_sbu_0, # of connection points: 4
#     Node 8, Type 0, BuildingBlock: CEKHIL_clean_sbu_0, # of connection points: 4
#     Node 9, Type 0, BuildingBlock: CEKHIL_clean_sbu_0, # of connection points: 4
#     Node 10, Type 0, BuildingBlock: CEKHIL_clean_sbu_0, # of connection points: 4
#     Node 11, Type 0, BuildingBlock: CEKHIL_clean_sbu_0, # of connection points: 4
#     Node 12, Type 0, BuildingBlock: CEKHIL_clean_sbu_0, # of connection points: 4
#     Node 13, Type 0, BuildingBlock: CEKHIL_clean_sbu_0, # of connection points: 4
#     Node 14, Type 0, BuildingBlock: CEKHIL_clean_sbu_0, # of connection points: 4
#     Node 15, Type 0, BuildingBlock: CEKHIL_clean_sbu_0, # of connection points: 4
#     Node 16, Type 0, BuildingBlock: CEKHIL_clean_sbu_0, # of connection points: 4
#     Node 17, Type 0, BuildingBlock: CEKHIL_clean_sbu_0, # of connection points: 4
#     Node 18, Type 0, BuildingBlock: CEKHIL_clean_sbu_0, # of connection points: 4
#     Node 19, Type 0, BuildingBlock: CEKHIL_clean_sbu_0, # of connection points: 4
#     Node 20, Type 0, BuildingBlock: CEKHIL_clean_sbu_0, # of connection points: 4
#     Node 21, Type 0, BuildingBlock: CEKHIL_clean_sbu_0, # of connection points: 4
#     Node 22, Type 0, BuildingBlock: CEKHIL_clean_sbu_0, # of connection points: 4
#     Node 23, Type 0, BuildingBlock: CEKHIL_clean_sbu_0, # of connection points: 4
#     Edge 24, Type (0, 0), BuildingBlock: UVAHIK_clean_linker_0, # of connection points: 2
#     Edge 25, Type (0, 0), BuildingBlock: UVAHIK_clean_linker_0, # of connection points: 2
#     Edge 26, Type (0, 0), BuildingBlock: UVAHIK_clean_linker_0, # of connection points: 2
#     Edge 27, Type (0, 0), BuildingBlock: UVAHIK_clean_linker_0, # of connection points: 2
#     Edge 28, Type (0, 0), BuildingBlock: UVAHIK_clean_linker_0, # of connection points: 2
#     Edge 29, Type (0, 0), BuildingBlock: UVAHIK_clean_linker_0, # of connection points: 2
#     Edge 30, Type (0, 0), BuildingBlock: UVAHIK_clean_linker_0, # of connection points: 2
#     Edge 31, Type (0, 0), BuildingBlock: UVAHIK_clean_linker_0, # of connection points: 2
#     Edge 32, Type (0, 0), BuildingBlock: UVAHIK_clean_linker_0, # of connection points: 2
#     Edge 33, Type (0, 0), BuildingBlock: UVAHIK_clean_linker_0, # of connection points: 2
#     Edge 34, Type (0, 0), BuildingBlock: UVAHIK_clean_linker_0, # of connection points: 2
#     Edge 35, Type (0, 0), BuildingBlock: UVAHIK_clean_linker_0, # of connection points: 2
#     Edge 36, Type (0, 0), BuildingBlock: UVAHIK_clean_linker_0, # of connection points: 2
#     Edge 37, Type (0, 0), BuildingBlock: UVAHIK_clean_linker_0, # of connection points: 2
#     Edge 38, Type (0, 0), BuildingBlock: UVAHIK_clean_linker_0, # of connection points: 2
#     Edge 39, Type (0, 0), BuildingBlock: UVAHIK_clean_linker_0, # of connection points: 2
#     Edge 40, Type (0, 0), BuildingBlock: UVAHIK_clean_linker_0, # of connection points: 2
#     Edge 41, Type (0, 0), BuildingBlock: UVAHIK_clean_linker_0, # of connection points: 2
#     Edge 42, Type (0, 0), BuildingBlock: UVAHIK_clean_linker_0, # of connection points: 2
#     Edge 43, Type (0, 0), BuildingBlock: UVAHIK_clean_linker_0, # of connection points: 2
#     Edge 44, Type (0, 0), BuildingBlock: UVAHIK_clean_linker_0, # of connection points: 2
#     Edge 45, Type (0, 0), BuildingBlock: UVAHIK_clean_linker_0, # of connection points: 2
#     Edge 46, Type (0, 0), BuildingBlock: UVAHIK_clean_linker_0, # of connection points: 2
#     Edge 47, Type (0, 0), BuildingBlock: UVAHIK_clean_linker_0, # of connection points: 2
#     Edge 48, Type (0, 0), BuildingBlock: UVAHIK_clean_linker_0, # of connection points: 2
#     Edge 49, Type (0, 0), BuildingBlock: UVAHIK_clean_linker_0, # of connection points: 2
#     Edge 50, Type (0, 0), BuildingBlock: UVAHIK_clean_linker_0, # of connection points: 2
#     Edge 51, Type (0, 0), BuildingBlock: UVAHIK_clean_linker_0, # of connection points: 2
#     Edge 52, Type (0, 0), BuildingBlock: UVAHIK_clean_linker_0, # of connection points: 2
#     Edge 53, Type (0, 0), BuildingBlock: UVAHIK_clean_linker_0, # of connection points: 2
#     Edge 54, Type (0, 0), BuildingBlock: UVAHIK_clean_linker_0, # of connection points: 2
#     Edge 55, Type (0, 0), BuildingBlock: UVAHIK_clean_linker_0, # of connection points: 2
#     Edge 56, Type (0, 0), BuildingBlock: UVAHIK_clean_linker_0, # of connection points: 2
#     Edge 57, Type (0, 0), BuildingBlock: UVAHIK_clean_linker_0, # of connection points: 2
#     Edge 58, Type (0, 0), BuildingBlock: UVAHIK_clean_linker_0, # of connection points: 2
#     Edge 59, Type (0, 0), BuildingBlock: UVAHIK_clean_linker_0, # of connection points: 2
#     Edge 60, Type (0, 0), BuildingBlock: UVAHIK_clean_linker_0, # of connection points: 2
#     Edge 61, Type (0, 0), BuildingBlock: UVAHIK_clean_linker_0, # of connection points: 2
#     Edge 62, Type (0, 0), BuildingBlock: UVAHIK_clean_linker_0, # of connection points: 2
#     Edge 63, Type (0, 0), BuildingBlock: UVAHIK_clean_linker_0, # of connection points: 2
#     Edge 64, Type (0, 0), BuildingBlock: UVAHIK_clean_linker_0, # of connection points: 2
#     Edge 65, Type (0, 0), BuildingBlock: UVAHIK_clean_linker_0, # of connection points: 2
#     Edge 66, Type (0, 0), BuildingBlock: UVAHIK_clean_linker_0, # of connection points: 2
#     Edge 67, Type (0, 0), BuildingBlock: UVAHIK_clean_linker_0, # of connection points: 2
#     Edge 68, Type (0, 0), BuildingBlock: UVAHIK_clean_linker_0, # of connection points: 2
#     Edge 69, Type (0, 0), BuildingBlock: UVAHIK_clean_linker_0, # of connection points: 2
#     Edge 70, Type (0, 0), BuildingBlock: UVAHIK_clean_linker_0, # of connection points: 2
#     Edge 71, Type (0, 0), BuildingBlock: UVAHIK_clean_linker_0, # of connection points: 2
# Relax obj value: 0.424
# Max RMSD: 0.177
# Mean RMSD: 0.177
data_MOF--net-lcy-a--node1-CEKHIL_clean_sbu_0--edge1-UVAHIK_clean_linker_0
_symmetry_space_group_name_H-M    P1
_symmetry_Int_Tables_number       1
_symmetry_cell_setting            triclinic
loop_
_symmetry_equiv_pos_as_xyz
'x, y, z'
_cell_length_a     71.664234
_cell_length_b     71.588749
_cell_length_c     71.608626
_cell_angle_alpha  90.029914
_cell_angle_beta   89.968955
_cell_angle_gamma 90.026608
loop_
_atom_site_label
_atom_site_type_symbol
_atom_site_fract_x
_atom_site_fract_y
_atom_site_fract_z
_atom_type_partial_charge
Co0 Co 0.21032 0.26338 0.40988 0.0
O1 O 0.20634 0.25473 0.43493 0.0
O2 O 0.18826 0.27501 0.42006 0.0
C3 C 0.21608 0.23512 0.39743 0.0
O4 O 0.20948 0.27509 0.38398 0.0
Co5 Co 0.24825 0.25825 0.38971 0.0
O6 O 0.2341 0.26561 0.36705 0.0
C7 C 0.24415 0.28735 0.41878 0.0
C8 C 0.19172 0.26543 0.4351 0.0
C9 C 0.2184 0.27384 0.36842 0.0
O10 O 0.22648 0.28425 0.41967 0.0
O11 O 0.25529 0.27766 0.40867 0.0
O12 O 0.19896 0.24069 0.39957 0.0
O13 O 0.22881 0.24604 0.40395 0.0
Co14 Co 0.98675 0.97409 0.66281 0.0
O15 O 0.9951 0.96742 0.68743 0.0
O16 O 0.97446 0.95153 0.67064 0.0
C17 C 0.0147 0.98034 0.64997 0.0
O18 O 0.97543 0.97575 0.63682 0.0
Co19 Co 0.99233 0.01382 0.64665 0.0
O20 O 0.98538 0.00188 0.62259 0.0
C21 C 0.96329 0.00743 0.67511 0.0
C22 C 0.984 0.95313 0.686 0.0
C23 C 0.97731 0.98602 0.62219 0.0
O24 O 0.96613 0.9897 0.67406 0.0
O25 O 0.97318 0.01942 0.66628 0.0
O26 O 0.00899 0.96316 0.65146 0.0
O27 O 0.00453 0.99266 0.65833 0.0
Co28 Co 0.27369 0.72106 0.90928 0.0
O29 O 0.27981 0.7302 0.93373 0.0
O30 O 0.29868 0.71355 0.91567 0.0
C31 C 0.26109 0.74769 0.89836 0.0
O32 O 0.27279 0.70999 0.88307 0.0
Co33 Co 0.23293 0.7189 0.89512 0.0
O34 O 0.24519 0.71756 0.87028 0.0
C35 C 0.24719 0.68978 0.92065 0.0
C36 C 0.29596 0.72232 0.93135 0.0
C37 C 0.26193 0.71175 0.86888 0.0
O38 O 0.26346 0.69735 0.92046 0.0
O39 O 0.23305 0.6966 0.9121 0.0
O40 O 0.27908 0.74543 0.89821 0.0
O41 O 0.25163 0.73474 0.9066 0.0
Co42 Co 0.51105 0.02567 0.16492 0.0
O43 O 0.50115 0.03262 0.1888 0.0
O44 O 0.52011 0.05016 0.17167 0.0
C45 C 0.48423 0.01507 0.15243 0.0
O46 O 0.52356 0.02334 0.13946 0.0
Co47 Co 0.51056 0.98417 0.15229 0.0
O48 O 0.51783 0.99479 0.12771 0.0
C49 C 0.53759 0.99651 0.18074 0.0
C50 C 0.51046 0.04806 0.18693 0.0
C51 C 0.52415 0.01136 0.12604 0.0
O52 O 0.53305 0.01362 0.17762 0.0
O53 O 0.52916 0.98265 0.1732 0.0
O54 O 0.48784 0.03287 0.15243 0.0
O55 O 0.49584 0.0048 0.1616 0.0
Co56 Co 0.71951 0.2365 0.58671 0.0
O57 O 0.7146 0.2469 0.56248 0.0
O58 O 0.69675 0.22608 0.57691 0.0
C59 C 0.72676 0.26341 0.60123 0.0
O60 O 0.71947 0.22316 0.6118 0.0
Co61 Co 0.75854 0.23899 0.60517 0.0
O62 O 0.74474 0.23184 0.62818 0.0
C63 C 0.75212 0.21235 0.57429 0.0
C64 C 0.69977 0.23646 0.56232 0.0
C65 C 0.72882 0.22397 0.62712 0.0
O66 O 0.73452 0.21588 0.57476 0.0
O67 O 0.76407 0.22104 0.58436 0.0
O68 O 0.70937 0.25865 0.59914 0.0
O69 O 0.73879 0.25283 0.59301 0.0
Co70 Co 0.01181 0.46601 0.83651 0.0
O71 O 0.00209 0.46005 0.81221 0.0
O72 O 0.02354 0.44362 0.82727 0.0
C73 C 0.9842 0.47209 0.85026 0.0
O74 O 0.02459 0.46706 0.86196 0.0
Co75 Co 0.00715 0.50496 0.85469 0.0
O76 O 0.01201 0.49086 0.87808 0.0
C77 C 0.03574 0.49939 0.8254 0.0
C78 C 0.01318 0.44571 0.81251 0.0
C79 C 0.02127 0.47571 0.87737 0.0
O80 O 0.03188 0.48185 0.82468 0.0
O81 O 0.02706 0.51099 0.8359 0.0
O82 O 0.98994 0.45495 0.84859 0.0
O83 O 0.9944 0.48458 0.8422 0.0
Co84 Co 0.79277 0.76242 0.09635 0.0
O85 O 0.79715 0.75022 0.07294 0.0
O86 O 0.8159 0.77127 0.08581 0.0
C87 C 0.78441 0.73676 0.11232 0.0
O88 O 0.79321 0.77732 0.12059 0.0
Co89 Co 0.75296 0.76296 0.11331 0.0
O90 O 0.76575 0.77373 0.13537 0.0
C91 C 0.76132 0.78581 0.08025 0.0
C92 C 0.81229 0.76013 0.07191 0.0
C93 C 0.78254 0.77963 0.13488 0.0
O94 O 0.77881 0.7828 0.08284 0.0
O95 O 0.74859 0.7778 0.08992 0.0
O96 O 0.80199 0.74055 0.11002 0.0
O97 O 0.7728 0.74737 0.10356 0.0
Co98 Co 0.47983 0.53572 0.34756 0.0
O99 O 0.48871 0.54258 0.3232 0.0
O100 O 0.47258 0.56105 0.34212 0.0
C101 C 0.50638 0.52234 0.35775 0.0
O102 O 0.46903 0.53412 0.37382 0.0
Co103 Co 0.47757 0.49457 0.36092 0.0
O104 O 0.47665 0.50628 0.38607 0.0
C105 C 0.44848 0.5096 0.33571 0.0
C106 C 0.48108 0.55876 0.32624 0.0
C107 C 0.47084 0.523 0.38781 0.0
O108 O 0.45593 0.52595 0.33628 0.0
O109 O 0.45537 0.49528 0.3439 0.0
O110 O 0.50445 0.54039 0.35848 0.0
O111 O 0.49315 0.51341 0.34941 0.0
Co112 Co 0.39743 0.21427 0.27131 0.0
O113 O 0.42118 0.20912 0.25998 0.0
O114 O 0.40741 0.19143 0.28136 0.0
C115 C 0.38229 0.22165 0.24481 0.0
O116 O 0.3728 0.21429 0.28544 0.0
Co117 Co 0.37933 0.25353 0.26957 0.0
O118 O 0.35661 0.24008 0.27803 0.0
C119 C 0.4108 0.24676 0.29529 0.0
C120 C 0.42157 0.19424 0.27034 0.0
C121 C 0.35767 0.22393 0.28543 0.0
O122 O 0.41018 0.22918 0.29157 0.0
O123 O 0.40056 0.25884 0.28699 0.0
O124 O 0.38418 0.20423 0.24954 0.0
O125 O 0.39078 0.23364 0.25523 0.0
Co126 Co 0.02831 0.15598 0.51528 0.0
O127 O 0.03405 0.18098 0.50735 0.0
O128 O 0.0513 0.164 0.52665 0.0
C129 C 0.02079 0.14467 0.48693 0.0
O130 O 0.02762 0.12966 0.52597 0.0
Co131 Co 0.98886 0.13888 0.51104 0.0
O132 O 0.00198 0.11488 0.51563 0.0
C133 C 0.99639 0.16532 0.54185 0.0
C134 C 0.04889 0.17961 0.51769 0.0
C135 C 0.01788 0.11475 0.52357 0.0
O136 O 0.01371 0.16605 0.53714 0.0
O137 O 0.98413 0.15606 0.5327 0.0
O138 O 0.03818 0.14566 0.49198 0.0
O139 O 0.00887 0.15194 0.49833 0.0
Co140 Co 0.08456 0.77689 0.75224 0.0
O141 O 0.06098 0.78478 0.74208 0.0
O142 O 0.07582 0.79846 0.76558 0.0
C143 C 0.09928 0.77246 0.72484 0.0
O144 O 0.10904 0.77386 0.76616 0.0
Co145 Co 0.1016 0.73782 0.74532 0.0
O146 O 0.12488 0.74903 0.75552 0.0
C147 C 0.07014 0.74208 0.77173 0.0
C148 C 0.06143 0.79797 0.75457 0.0
C149 C 0.12394 0.76392 0.76524 0.0
O150 O 0.07123 0.75996 0.7703 0.0
O151 O 0.08017 0.73086 0.76205 0.0
O152 O 0.0981 0.78916 0.7319 0.0
O153 O 0.09037 0.75953 0.73367 0.0
Co154 Co 0.45913 0.84398 0.01529 0.0
O155 O 0.4555 0.81959 0.00487 0.0
O156 O 0.43397 0.8358 0.02017 0.0
C157 C 0.4736 0.85646 0.99044 0.0
O158 O 0.45751 0.86976 0.02731 0.0
Co159 Co 0.49882 0.85965 0.0221 0.0
O160 O 0.48542 0.88374 0.02465 0.0
C161 C 0.48367 0.83094 0.04742 0.0
C162 C 0.43867 0.82052 0.01153 0.0
C163 C 0.46803 0.88431 0.02833 0.0
O164 O 0.46775 0.83211 0.03926 0.0
O165 O 0.49812 0.84004 0.04212 0.0
O166 O 0.45548 0.85572 0.99092 0.0
O167 O 0.4822 0.84829 0.004 0.0
Co168 Co 0.90711 0.28078 0.73009 0.0
O169 O 0.93203 0.28598 0.7384 0.0
O170 O 0.91628 0.30299 0.71788 0.0
C171 C 0.89441 0.27526 0.75832 0.0
O172 O 0.881 0.28027 0.71881 0.0
Co173 Co 0.8891 0.24186 0.73613 0.0
O174 O 0.86566 0.25571 0.73095 0.0
C175 C 0.9171 0.24687 0.7063 0.0
C176 C 0.93151 0.30039 0.72741 0.0
C177 C 0.86586 0.27114 0.72206 0.0
O178 O 0.91736 0.26458 0.70941 0.0
O179 O 0.90763 0.23535 0.71617 0.0
O180 O 0.89648 0.29231 0.75247 0.0
O181 O 0.9019 0.26253 0.74798 0.0
Co182 Co 0.96358 0.65531 0.96425 0.0
O183 O 0.96015 0.6815 0.96882 0.0
O184 O 0.93836 0.66231 0.95805 0.0
C185 C 0.9782 0.64925 0.99138 0.0
O186 O 0.96157 0.62749 0.95844 0.0
Co187 Co 0.0027 0.63706 0.96184 0.0
O188 O 0.98859 0.61354 0.96592 0.0
C189 C 0.98805 0.65884 0.92983 0.0
C190 C 0.94307 0.67906 0.96332 0.0
C191 C 0.97138 0.61276 0.9616 0.0
O192 O 0.97224 0.66094 0.9381 0.0
O193 O 0.00205 0.65058 0.93728 0.0
O194 O 0.96008 0.64983 0.99081 0.0
O195 O 0.98669 0.65353 0.97608 0.0
Co196 Co 0.59469 0.70983 0.20794 0.0
O197 O 0.57219 0.71053 0.22262 0.0
O198 O 0.58453 0.68506 0.21 0.0
C199 C 0.61196 0.72811 0.22679 0.0
O200 O 0.61794 0.7031 0.19298 0.0
Co201 Co 0.61159 0.74566 0.19022 0.0
O202 O 0.63279 0.72924 0.18378 0.0
C203 C 0.57809 0.72854 0.17362 0.0
C204 C 0.57127 0.69262 0.21983 0.0
C205 C 0.63181 0.71155 0.18533 0.0
O206 O 0.57942 0.71443 0.18467 0.0
O207 O 0.58883 0.74278 0.17436 0.0
O208 O 0.61006 0.71043 0.23053 0.0
O209 O 0.60225 0.73429 0.21295 0.0
Co210 Co 0.52831 0.33564 0.48267 0.0
O211 O 0.5353 0.31083 0.49018 0.0
O212 O 0.55165 0.32902 0.47117 0.0
C213 C 0.52018 0.34656 0.51099 0.0
O214 O 0.52643 0.36214 0.47252 0.0
Co215 Co 0.48794 0.35051 0.48701 0.0
O216 O 0.49957 0.37519 0.48201 0.0
C217 C 0.4969 0.32492 0.45598 0.0
C218 C 0.55006 0.31317 0.47989 0.0
C219 C 0.51568 0.37638 0.47455 0.0
O220 O 0.51424 0.3252 0.46059 0.0
O221 O 0.48412 0.33325 0.4653 0.0
O222 O 0.53765 0.34606 0.50609 0.0
O223 O 0.50868 0.33859 0.49962 0.0
Co224 Co 0.26527 0.41338 0.22404 0.0
O225 O 0.25647 0.43765 0.21687 0.0
O226 O 0.27608 0.4202 0.20036 0.0
C227 C 0.23752 0.40143 0.23258 0.0
O228 O 0.27679 0.38752 0.22627 0.0
Co229 Co 0.262 0.39893 0.26464 0.0
O230 O 0.2674 0.37426 0.25308 0.0
C231 C 0.2899 0.42786 0.25534 0.0
C232 C 0.26667 0.43564 0.202 0.0
C233 C 0.27491 0.37321 0.23698 0.0
O234 O 0.28666 0.42544 0.23783 0.0
O235 O 0.28059 0.41961 0.26819 0.0
O236 O 0.24235 0.40154 0.21509 0.0
O237 O 0.24867 0.40998 0.24386 0.0
Co238 Co 0.76995 0.09705 0.78305 0.0
O239 O 0.76332 0.07192 0.78993 0.0
O240 O 0.77922 0.09174 0.80771 0.0
C241 C 0.74184 0.10567 0.77194 0.0
O242 O 0.77887 0.12398 0.78147 0.0
Co243 Co 0.76841 0.11147 0.74229 0.0
O244 O 0.76999 0.13651 0.75415 0.0
C245 C 0.79989 0.08759 0.75441 0.0
C246 C 0.77173 0.07534 0.80564 0.0
C247 C 0.77639 0.1381 0.77066 0.0
O248 O 0.79379 0.08762 0.77132 0.0
O249 O 0.79133 0.09546 0.74083 0.0
O250 O 0.74512 0.10624 0.78977 0.0
O251 O 0.75486 0.09848 0.76178 0.0
Co252 Co 0.15091 0.51123 0.03419 0.0
O253 O 0.17277 0.4977 0.04169 0.0
O254 O 0.16077 0.52199 0.05676 0.0
C255 C 0.13283 0.48632 0.02773 0.0
O256 O 0.12832 0.52815 0.03135 0.0
Co257 Co 0.13591 0.50836 0.9937 0.0
O258 O 0.11416 0.52207 0.00403 0.0
C259 C 0.16963 0.53057 0.00121 0.0
C260 C 0.17377 0.50937 0.05555 0.0
C261 C 0.11465 0.53016 0.0199 0.0
O262 O 0.16693 0.5286 0.01886 0.0
O263 O 0.15967 0.52232 0.98887 0.0
O264 O 0.13444 0.49214 0.04485 0.0
O265 O 0.14343 0.49447 0.01566 0.0
Co266 Co 0.73807 0.91564 0.27737 0.0
O267 O 0.74529 0.93944 0.2874 0.0
O268 O 0.72755 0.91862 0.30196 0.0
C269 C 0.76625 0.90695 0.26649 0.0
O270 O 0.72836 0.88947 0.27201 0.0
Co271 Co 0.74087 0.90722 0.23495 0.0
O272 O 0.73647 0.88099 0.24291 0.0
C273 C 0.71064 0.93138 0.249 0.0
C274 C 0.73573 0.93484 0.30212 0.0
C275 C 0.72984 0.87715 0.25899 0.0
O276 O 0.71518 0.92728 0.26589 0.0
O277 O 0.72007 0.92599 0.23478 0.0
O278 O 0.76223 0.90481 0.28407 0.0
O279 O 0.75407 0.91604 0.25682 0.0
Co280 Co 0.33995 0.47377 0.53405 0.0
O281 O 0.31495 0.4822 0.53861 0.0
O282 O 0.33089 0.46319 0.55711 0.0
C283 C 0.35207 0.50172 0.52631 0.0
O284 O 0.36617 0.46278 0.5345 0.0
Co285 Co 0.35838 0.47697 0.49502 0.0
O286 O 0.38176 0.4737 0.50955 0.0
C287 C 0.33136 0.44663 0.50236 0.0
C288 C 0.3156 0.47242 0.55387 0.0
C289 C 0.38142 0.46577 0.52547 0.0
O290 O 0.33012 0.45169 0.51957 0.0
O291 O 0.34113 0.45541 0.49022 0.0
O292 O 0.35019 0.49714 0.54377 0.0
O293 O 0.34494 0.4902 0.5144 0.0
Co294 Co 0.21787 0.5951 0.70321 0.0
O295 O 0.22633 0.56967 0.70265 0.0
O296 O 0.21307 0.58445 0.67891 0.0
C297 C 0.2435 0.60685 0.717 0.0
O298 O 0.20816 0.62146 0.69823 0.0
Co299 Co 0.21205 0.61665 0.74027 0.0
O300 O 0.21452 0.63869 0.72365 0.0
C301 C 0.18378 0.58926 0.72784 0.0
C302 C 0.22059 0.56926 0.68547 0.0
C303 C 0.21031 0.63732 0.70644 0.0
O304 O 0.19272 0.58646 0.71252 0.0
O305 O 0.18943 0.60015 0.74084 0.0
O306 O 0.24328 0.60425 0.69904 0.0
O307 O 0.22898 0.60112 0.726 0.0
Co308 Co 0.66639 0.96921 0.9694 0.0
O309 O 0.69102 0.97947 0.96566 0.0
O310 O 0.67343 0.96659 0.94366 0.0
C311 C 0.65473 0.99298 0.98648 0.0
O312 O 0.64039 0.95795 0.96719 0.0
Co313 Co 0.64989 0.95973 0.0083 0.0
O314 O 0.62579 0.96146 0.99471 0.0
C315 C 0.67681 0.93383 0.9904 0.0
C316 C 0.68892 0.97482 0.94823 0.0
C317 C 0.62551 0.95835 0.97721 0.0
O318 O 0.67758 0.94408 0.97565 0.0
O319 O 0.6672 0.938 0.0049 0.0
O320 O 0.65527 0.99417 0.96837 0.0
O321 O 0.66267 0.97844 0.99356 0.0
Co322 Co 0.84096 0.0168 0.47204 0.0
O323 O 0.81577 0.00772 0.47004 0.0
O324 O 0.83122 0.02263 0.44771 0.0
C325 C 0.85323 0.99098 0.48502 0.0
O326 O 0.86704 0.02749 0.46842 0.0
Co327 Co 0.86104 0.02141 0.51011 0.0
O328 O 0.88387 0.02276 0.49442 0.0
C329 C 0.83349 0.04969 0.49793 0.0
C330 C 0.81597 0.01443 0.45319 0.0
C331 C 0.88268 0.02724 0.47724 0.0
O332 O 0.83153 0.04136 0.48212 0.0
O333 O 0.84381 0.04345 0.51113 0.0
O334 O 0.85096 0.99184 0.46702 0.0
O335 O 0.84658 0.00481 0.49445 0.0
C336 C 0.07892 0.19305 0.5294 0.0
C337 C 0.0629 0.1947 0.51825 0.0
C338 C 0.09334 0.20611 0.52792 0.0
C339 C 0.10712 0.25116 0.50516 0.0
H340 H 0.15346 0.22463 0.4966 0.0
C341 C 0.16035 0.27115 0.4492 0.0
C342 C 0.17897 0.26547 0.45124 0.0
C343 C 0.14745 0.26776 0.46343 0.0
C344 C 0.14086 0.2325 0.49939 0.0
H345 H 0.04873 0.21206 0.49789 0.0
H346 H 0.07399 0.23445 0.49488 0.0
H347 H 0.12778 0.20869 0.51146 0.0
H348 H 0.19924 0.25381 0.47043 0.0
H349 H 0.17685 0.24832 0.49544 0.0
H350 H 0.12009 0.27469 0.49194 0.0
C351 C 0.07542 0.2233 0.50499 0.0
C352 C 0.12604 0.2233 0.50797 0.0
C353 C 0.06099 0.21032 0.50656 0.0
C354 C 0.18486 0.25799 0.46836 0.0
C355 C 0.17204 0.25482 0.48267 0.0
C356 C 0.122 0.2604 0.49651 0.0
C357 C 0.09205 0.22098 0.51515 0.0
C358 C 0.10875 0.23224 0.51024 0.0
C359 C 0.15302 0.2588 0.48001 0.0
C360 C 0.13878 0.2509 0.49285 0.0
H361 H 0.08066 0.18128 0.53875 0.0
H362 H 0.10583 0.20412 0.53619 0.0
H363 H 0.09407 0.25854 0.50705 0.0
H364 H 0.15547 0.27704 0.43615 0.0
H365 H 0.1329 0.2709 0.46084 0.0
C366 C 0.97672 0.92069 0.69633 0.0
C367 C 0.98337 0.93863 0.70057 0.0
C368 C 0.97915 0.90606 0.70898 0.0
C369 C 0.01277 0.89344 0.74512 0.0
H370 H 0.98472 0.84712 0.74492 0.0
C371 C 0.04758 0.82641 0.76927 0.0
C372 C 0.04671 0.81232 0.75564 0.0
C373 C 0.03508 0.84136 0.76881 0.0
C374 C 0.99262 0.86002 0.74526 0.0
H375 H 0.99587 0.95591 0.72204 0.0
H376 H -0.00043 0.93052 0.74441 0.0
H377 H 0.97031 0.87566 0.73299 0.0
H378 H 0.03123 0.80201 0.73175 0.0
H379 H 0.00972 0.82828 0.73067 0.0
H380 H 0.03533 0.87779 0.75653 0.0
C381 C 0.9931 0.92754 0.73108 0.0
C382 C 0.9844 0.87635 0.73839 0.0
C383 C 0.99095 0.9421 0.7183 0.0
C384 C 0.03234 0.81276 0.74234 0.0
C385 C 0.01987 0.82773 0.74185 0.0
C386 C 0.0209 0.87721 0.75206 0.0
C387 C 0.98807 0.90917 0.72621 0.0
C388 C 0.99471 0.89306 0.73748 0.0
C389 C 0.02154 0.84252 0.75468 0.0
C390 C 0.01122 0.86016 0.75146 0.0
H391 H 0.97073 0.91765 0.68278 0.0
H392 H 0.97523 0.89212 0.70463 0.0
H393 H 0.02129 0.90592 0.74444 0.0
H394 H 0.05835 0.82629 0.77988 0.0
H395 H 0.03653 0.85241 0.77904 0.0
C396 C 0.32818 0.71548 0.94287 0.0
C397 C 0.3109 0.72439 0.94533 0.0
C398 C 0.34311 0.71958 0.95472 0.0
C399 C 0.35653 0.74627 0.99769 0.0
H400 H 0.40019 0.75836 0.9681 0.0
C401 C 0.40672 0.80664 0.01412 0.0
C402 C 0.4256 0.80479 0.00924 0.0
C403 C 0.39417 0.79215 0.01045 0.0
C404 C 0.38833 0.7547 0.97674 0.0
H405 H 0.29525 0.74346 0.96291 0.0
H406 H 0.32132 0.75108 0.98311 0.0
H407 H 0.37528 0.74025 0.95427 0.0
H408 H 0.44646 0.7859 -0.002 0.0
H409 H 0.42458 0.76065 0.99167 0.0
H410 H 0.36933 0.76185 0.01982 0.0
C411 C 0.32339 0.7407 0.97231 0.0
C412 C 0.37401 0.74423 0.96881 0.0
C413 C 0.30845 0.73647 0.96058 0.0
C414 C 0.43191 0.78785 0.00161 0.0
C415 C 0.4194 0.77337 -0.00199 0.0
C416 C 0.37086 0.75688 0.00561 0.0
C417 C 0.34107 0.73282 0.96912 0.0
C418 C 0.35765 0.74043 0.97895 0.0
C419 C 0.40032 0.77557 0.00189 0.0
C420 C 0.38663 0.7617 0.99499 0.0
H421 H 0.33038 0.70587 0.93139 0.0
H422 H 0.35645 0.71297 0.95213 0.0
H423 H 0.34425 0.74327 0.00599 0.0
H424 H 0.40151 0.8195 0.02015 0.0
H425 H 0.37952 0.79434 0.01343 0.0
C426 C 0.51316 0.08144 0.19689 0.0
C427 C 0.50933 0.06274 0.2013 0.0
C428 C 0.50923 0.09558 0.20979 0.0
C429 C 0.47615 0.1035 0.24775 0.0
H430 H 0.5 0.15205 0.25012 0.0
C431 C 0.43748 0.16483 0.28042 0.0
C432 C 0.43697 0.18066 0.26887 0.0
C433 C 0.45077 0.15088 0.27742 0.0
C434 C 0.49323 0.13853 0.24967 0.0
H435 H 0.50025 0.04388 0.22318 0.0
H436 H 0.49388 0.06844 0.24583 0.0
H437 H 0.5161 0.12602 0.23494 0.0
H438 H 0.45073 0.19495 0.24597 0.0
H439 H 0.47349 0.17045 0.24038 0.0
H440 H 0.45296 0.11601 0.26153 0.0
C441 C 0.4993 0.07231 0.23225 0.0
C442 C 0.50244 0.12364 0.24097 0.0
C443 C 0.50297 0.05825 0.21929 0.0
C444 C 0.45069 0.18284 0.25503 0.0
C445 C 0.46388 0.16885 0.25195 0.0
C446 C 0.46699 0.11831 0.25639 0.0
C447 C 0.50161 0.09118 0.22737 0.0
C448 C 0.49371 0.10612 0.2394 0.0
C449 C 0.4637 0.15244 0.26271 0.0
C450 C 0.47513 0.13615 0.25691 0.0
H451 H 0.51814 0.08525 0.18312 0.0
H452 H 0.51105 0.10997 0.20551 0.0
H453 H 0.46884 0.09031 0.24656 0.0
H454 H 0.42723 0.16291 0.29138 0.0
H455 H 0.45047 0.13855 0.28617 0.0
C456 C 0.66838 0.2301 0.54855 0.0
C457 C 0.68656 0.2371 0.54657 0.0
C458 C 0.65513 0.23309 0.53457 0.0
C459 C 0.6455 0.2682 0.499 0.0
H460 H 0.60137 0.23797 0.49079 0.0
C461 C 0.58086 0.30182 0.46805 0.0
C462 C 0.565 0.29902 0.47924 0.0
C463 C 0.59623 0.28996 0.46966 0.0
C464 C 0.61367 0.24652 0.49282 0.0
H465 H 0.70572 0.25107 0.52774 0.0
H466 H 0.68274 0.25593 0.50316 0.0
H467 H 0.62859 0.22424 0.50608 0.0
H468 H 0.55213 0.28074 0.49967 0.0
H469 H 0.57906 0.2604 0.50286 0.0
H470 H 0.63044 0.29072 0.48676 0.0
C471 C 0.67851 0.24863 0.51572 0.0
C472 C 0.62924 0.23867 0.5016 0.0
C473 C 0.69168 0.24584 0.52979 0.0
C474 C 0.56423 0.28334 0.49098 0.0
C475 C 0.57964 0.27155 0.49267 0.0
C476 C 0.63002 0.276 0.49024 0.0
C477 C 0.6599 0.24298 0.51826 0.0
C478 C 0.64504 0.24967 0.50546 0.0
C479 C 0.59608 0.27516 0.48257 0.0
C480 C 0.61365 0.26549 0.48774 0.0
H481 H 0.66408 0.22321 0.56132 0.0
H482 H 0.6409 0.22869 0.5371 0.0
H483 H 0.6573 0.2772 0.50192 0.0
H484 H 0.58172 0.31364 0.45865 0.0
H485 H 0.60858 0.29289 0.46143 0.0
C486 C 0.9646 0.3087 0.73403 0.0
C487 C 0.94704 0.31387 0.72707 0.0
C488 C 0.97838 0.32215 0.73697 0.0
C489 C 0.98965 0.37297 0.73174 0.0
H490 H 0.00742 0.36687 0.78249 0.0
C491 C 0.00033 0.43356 0.78249 0.0
C492 C 0.01312 0.43185 0.79724 0.0
C493 C -0.00162 0.41925 0.7694 0.0
C494 C 0.00309 0.36872 0.76812 0.0
H495 H 0.93058 0.33681 0.71626 0.0
H496 H 0.95432 0.36047 0.72207 0.0
H497 H 0.99282 0.34086 0.7668 0.0
H498 H 0.03503 0.41459 0.80895 0.0
H499 H 0.03176 0.38963 0.78594 0.0
H500 H -0.00092 0.40132 0.73367 0.0
C501 C 0.95768 0.346 0.72493 0.0
C502 C 0.99467 0.35372 0.75905 0.0
C503 C 0.94399 0.33247 0.72172 0.0
C504 C 0.02486 0.41617 0.79788 0.0
C505 C 0.02297 0.40187 0.78472 0.0
C506 C -0.0019 0.38805 0.74086 0.0
C507 C 0.97474 0.3411 0.73336 0.0
C508 C 0.98719 0.35584 0.74103 0.0
C509 C 0.00922 0.40295 0.77074 0.0
C510 C 0.00423 0.38627 0.75944 0.0
H511 H 0.96743 0.29436 0.73794 0.0
H512 H 0.99153 0.31783 0.74302 0.0
H513 H 0.98434 0.37496 0.71773 0.0
H514 H 0.99118 0.44556 0.78153 0.0
H515 H 0.98752 0.4205 0.75896 0.0
C516 C 0.84048 0.77016 0.05383 0.0
C517 C 0.8247 0.75867 0.05556 0.0
C518 C 0.85265 0.76795 0.03873 0.0
C519 C 0.85825 0.74355 0.99287 0.0
H520 H 0.90974 0.73935 0.00878 0.0
C521 C 0.9101 0.69031 0.96408 0.0
C522 C 0.92927 0.69422 0.96497 0.0
C523 C 0.8971 0.70375 0.96963 0.0
C524 C 0.89554 0.74091 0.00384 0.0
H525 H 0.8088 0.73643 0.04248 0.0
H526 H 0.8302 0.73218 0.01659 0.0
H527 H 0.88702 0.7531 0.02963 0.0
H528 H 0.94984 0.71585 0.97019 0.0
H529 H 0.92713 0.73936 0.97965 0.0
H530 H 0.86676 0.73016 0.96748 0.0
C531 C 0.83309 0.74317 0.02658 0.0
C532 C 0.88246 0.74883 0.01585 0.0
C533 C 0.82091 0.74545 0.04158 0.0
C534 C 0.93514 0.71234 0.9697 0.0
C535 C 0.92215 0.7258 0.97513 0.0
C536 C 0.87136 0.73552 0.98086 0.0
C537 C 0.84929 0.75414 0.02515 0.0
C538 C 0.86354 0.74956 0.01082 0.0
C539 C 0.90308 0.72133 0.97605 0.0
C540 C 0.89001 0.73348 0.98653 0.0
H541 H 0.84361 0.78064 0.06429 0.0
H542 H 0.86491 0.77677 0.0379 0.0
H543 H 0.84382 0.74428 0.98844 0.0
H544 H 0.90518 0.67649 0.96037 0.0
H545 H 0.88252 0.69982 0.97026 0.0
C546 C 0.54253 0.68945 0.23943 0.0
C547 C 0.55593 0.6813 0.22763 0.0
C548 C 0.52873 0.67845 0.24774 0.0
C549 C 0.50621 0.63177 0.24612 0.0
H550 H 0.50365 0.63729 0.29993 0.0
C551 C 0.49189 0.57093 0.29547 0.0
C552 C 0.48278 0.57405 0.31255 0.0
C553 C 0.49532 0.5857 0.28327 0.0
C554 C 0.50377 0.63579 0.28488 0.0
H555 H 0.56488 0.65547 0.21458 0.0
H556 H 0.54096 0.63628 0.2292 0.0
H557 H 0.51991 0.66065 0.28145 0.0
H558 H 0.46912 0.59488 0.32978 0.0
H559 H 0.4751 0.62079 0.30837 0.0
H560 H 0.49071 0.60645 0.24968 0.0
C561 C 0.54098 0.65116 0.23193 0.0
C562 C 0.51313 0.6492 0.27428 0.0
C563 C 0.55482 0.66213 0.2237 0.0
C564 C 0.47631 0.59209 0.31677 0.0
C565 C 0.47977 0.60692 0.30455 0.0
C566 C 0.4968 0.61838 0.25672 0.0
C567 C 0.528 0.65914 0.24431 0.0
C568 C 0.51505 0.64695 0.25488 0.0
C569 C 0.48971 0.60395 0.28787 0.0
C570 C 0.49611 0.61988 0.27629 0.0
H571 H 0.54296 0.70424 0.2426 0.0
H572 H 0.51881 0.68499 0.25711 0.0
H573 H 0.50717 0.62989 0.23114 0.0
H574 H 0.49696 0.55716 0.29178 0.0
H575 H 0.50322 0.58295 0.27067 0.0
C576 C 0.27007 0.44471 0.16856 0.0
C577 C 0.2664 0.44979 0.18712 0.0
C578 C 0.26622 0.45717 0.15406 0.0
C579 C 0.23293 0.4948 0.14575 0.0
H580 H 0.25354 0.49272 0.09574 0.0
C581 C 0.19051 0.52143 0.08375 0.0
C582 C 0.1891 0.50831 0.06924 0.0
C583 C 0.20441 0.51966 0.0973 0.0
C584 C 0.24771 0.49354 0.10967 0.0
H585 H 0.25806 0.47244 0.20537 0.0
H586 H 0.25199 0.49445 0.18014 0.0
H587 H 0.27148 0.48018 0.12191 0.0
H588 H 0.20165 0.48362 0.05695 0.0
H589 H 0.22553 0.48025 0.08079 0.0
H590 H 0.20886 0.50727 0.13355 0.0
C591 C 0.2571 0.48064 0.17666 0.0
C592 C 0.25796 0.48636 0.12464 0.0
C593 C 0.26061 0.46808 0.19111 0.0
C594 C 0.20232 0.49388 0.06805 0.0
C595 C 0.21616 0.49208 0.0816 0.0
C596 C 0.22276 0.50201 0.13085 0.0
C597 C 0.25889 0.475 0.15793 0.0
C598 C 0.25034 0.48623 0.14275 0.0
C599 C 0.21711 0.5047 0.09661 0.0
C600 C 0.22969 0.50078 0.11255 0.0
H601 H 0.27463 0.43069 0.16514 0.0
H602 H 0.26768 0.45226 0.13983 0.0
H603 H 0.22644 0.49473 0.1594 0.0
H604 H 0.18066 0.53284 0.08487 0.0
H605 H 0.20493 0.52972 0.10859 0.0
C606 C 0.69775 0.98058 0.91514 0.0
C607 C 0.70296 0.97971 0.93398 0.0
C608 C 0.71031 0.98696 0.90171 0.0
C609 C 0.75325 0.01559 0.89746 0.0
H610 H 0.74567 0.00313 0.8454 0.0
C611 C 0.76993 0.06771 0.83944 0.0
C612 C 0.77156 0.06164 0.82092 0.0
C613 C 0.76686 0.05485 0.85376 0.0
C614 C 0.7485 0.00661 0.85982 0.0
H615 H 0.72568 0.98374 0.9535 0.0
H616 H 0.74804 0.99404 0.9299 0.0
H617 H 0.73108 0.98436 0.8692 0.0
H618 H 0.77306 0.03747 0.80285 0.0
H619 H 0.76912 0.01482 0.82793 0.0
H620 H 0.77141 0.0373 0.88812 0.0
C621 C 0.73402 0.99049 0.92552 0.0
C622 C 0.73971 0.99598 0.87357 0.0
C623 C 0.72127 0.98447 0.93906 0.0
C624 C 0.77151 0.04245 0.81706 0.0
C625 C 0.76908 0.02951 0.83146 0.0
C626 C 0.76251 0.0259 0.88372 0.0
C627 C 0.72858 0.99223 0.9067 0.0
C628 C 0.74113 0.00093 0.89252 0.0
C629 C 0.76589 0.03554 0.84993 0.0
C630 C 0.7595 0.02218 0.86464 0.0
H631 H 0.68368 0.97712 0.91083 0.0
H632 H 0.70531 0.98847 0.88753 0.0
H633 H 0.75485 0.01988 0.91187 0.0
H634 H 0.76986 0.08249 0.84273 0.0
H635 H 0.76421 0.06026 0.86762 0.0
C636 C 0.74482 0.96416 0.31855 0.0
C637 C 0.73497 0.94721 0.31858 0.0
C638 C 0.74604 0.9749 0.33475 0.0
C639 C 0.74433 -0.00206 0.36992 0.0
H640 H 0.75927 0.9672 0.41186 0.0
C641 C 0.80078 0.01859 0.42209 0.0
C642 C 0.79995 0.01194 0.44051 0.0
C643 C 0.78667 0.0142 0.4094 0.0
C644 C 0.75469 0.97609 0.40052 0.0
H645 H 0.71745 0.92889 0.33515 0.0
H646 H 0.71946 0.94777 0.36351 0.0
H647 H 0.74484 0.95271 0.38492 0.0
H648 H 0.78305 0.99668 0.4605 0.0
H649 H 0.75841 0.98897 0.43828 0.0
H650 H 0.75539 0.02117 0.38521 0.0
C651 C 0.72652 0.95259 0.35103 0.0
C652 C 0.74636 0.96776 0.38502 0.0
C653 C 0.72535 0.94179 0.33479 0.0
C654 C 0.78418 0.00182 0.44632 0.0
C655 C 0.77007 0.9974 0.43362 0.0
C656 C 0.75275 0.00628 0.38542 0.0
C657 C 0.73737 0.96896 0.35133 0.0
C658 C 0.74185 0.97846 0.36921 0.0
C659 C 0.77146 0.00305 0.41488 0.0
C660 C 0.75873 0.9953 0.40053 0.0
H661 H 0.75228 0.96878 0.30623 0.0
H662 H 0.75472 0.98729 0.3345 0.0
H663 H 0.74063 0.00662 0.35811 0.0
H664 H 0.8127 0.02653 0.41724 0.0
H665 H 0.78828 0.0186 0.39502 0.0
C666 C 0.21979 0.55302 0.65452 0.0
C667 C 0.22351 0.55255 0.67375 0.0
C668 C 0.22488 0.538 0.64313 0.0
C669 C 0.26084 0.50231 0.64169 0.0
H670 H 0.23591 0.48771 0.59592 0.0
C671 C 0.30181 0.46441 0.58501 0.0
C672 C 0.3002 0.47316 0.56753 0.0
C673 C 0.28857 0.46776 0.59896 0.0
C674 C 0.24301 0.49157 0.6087 0.0
H675 H 0.23409 0.53545 0.69641 0.0
H676 H 0.24289 0.50925 0.67654 0.0
H677 H 0.21906 0.50608 0.61925 0.0
H678 H 0.28268 0.49095 0.55041 0.0
H679 H 0.25997 0.49714 0.57472 0.0
H680 H 0.2851 0.48894 0.63082 0.0
C681 C 0.23634 0.52132 0.67021 0.0
C682 C 0.23337 0.50207 0.62204 0.0
C683 C 0.23128 0.53633 0.68157 0.0
C684 C 0.28441 0.48414 0.56381 0.0
C685 C 0.27124 0.48754 0.57773 0.0
C686 C 0.27049 0.49192 0.62835 0.0
C687 C 0.23375 0.52224 0.65079 0.0
C688 C 0.24242 0.50812 0.63836 0.0
C689 C 0.27353 0.47997 0.59569 0.0
C690 C 0.26194 0.48705 0.61137 0.0
H691 H 0.21373 0.5653 0.64812 0.0
H692 H 0.22286 0.53922 0.62819 0.0
H693 H 0.26831 0.5069 0.65401 0.0
H694 H 0.31373 0.45569 0.5882 0.0
H695 H 0.29055 0.46144 0.61256 0.0
C696 C 0.32769 0.4198 0.4804 0.0
C697 C 0.32149 0.42953 0.49628 0.0
C698 C 0.3187 0.40352 0.47462 0.0
C699 C 0.27434 0.37963 0.4744 0.0
H700 H 0.30405 0.33596 0.46249 0.0
C701 C 0.24182 0.31183 0.44391 0.0
C702 C 0.25215 0.30298 0.42974 0.0
C703 C 0.24966 0.32647 0.45424 0.0
C704 C 0.29555 0.34808 0.46558 0.0
H705 H 0.3009 0.42988 0.5185 0.0
H706 H 0.28482 0.40148 0.508 0.0
H707 H 0.31893 0.36319 0.47647 0.0
H708 H 0.27869 0.30285 0.4151 0.0
H709 H 0.29206 0.32849 0.43264 0.0
H710 H 0.2511 0.3649 0.46272 0.0
C711 C 0.29678 0.40649 0.50021 0.0
C712 C 0.30407 0.3636 0.47368 0.0
C713 C 0.306 0.42266 0.50622 0.0
C714 C 0.27039 0.30918 0.42604 0.0
C715 C 0.27813 0.32385 0.43623 0.0
C716 C 0.26582 0.36415 0.46605 0.0
C717 C 0.30315 0.39674 0.48443 0.0
C718 C 0.29362 0.37964 0.47783 0.0
C719 C 0.26795 0.33262 0.45054 0.0
C720 C 0.27643 0.34834 0.46116 0.0
H721 H 0.33964 0.42464 0.4725 0.0
H722 H 0.32377 0.39634 0.4623 0.0
H723 H 0.26602 0.39191 0.4774 0.0
H724 H 0.22775 0.30735 0.44715 0.0
H725 H 0.24148 0.33282 0.46526 0.0
C726 C 0.94198 0.03316 0.68521 0.0
C727 C 0.94768 0.01444 0.68675 0.0
C728 C 0.92719 0.03995 0.69586 0.0
C729 C 0.88551 0.02488 0.72225 0.0
H730 H 0.88615 0.07678 0.73783 0.0
C731 C 0.82421 0.06308 0.76068 0.0
C732 C 0.81791 0.07848 0.75026 0.0
C733 C 0.84101 0.0542 0.75598 0.0
C734 C 0.88586 0.06222 0.7337 0.0
H735 H 0.94232 0.9882 0.70094 0.0
H736 H 0.9166 0.00022 0.71989 0.0
H737 H 0.91416 0.06292 0.72438 0.0
H738 H 0.82446 0.09701 0.7272 0.0
H739 H 0.8539 0.08188 0.71942 0.0
H740 H 0.85704 0.02441 0.73163 0.0
C741 C 0.92346 0.00955 0.71017 0.0
C742 C 0.90182 0.0543 0.72585 0.0
C743 C 0.93824 0.00268 0.69935 0.0
C744 C 0.82889 0.0851 0.73541 0.0
C745 C 0.84578 0.07654 0.73101 0.0
C746 C 0.86959 0.03277 0.73038 0.0
C747 C 0.91775 0.02829 0.70854 0.0
C748 C 0.90166 0.03572 0.7194 0.0
C749 C 0.85192 0.06094 0.74114 0.0
C750 C 0.86949 0.05166 0.73561 0.0
H751 H 0.94878 0.0426 0.67554 0.0
H752 H 0.92292 0.05431 0.69383 0.0
H753 H 0.88482 0.01058 0.71736 0.0
H754 H 0.81598 0.05766 0.77216 0.0
H755 H 0.84552 0.04217 0.76395 0.0
C756 C 0.2316 0.65891 0.92408 0.0
C757 C 0.24473 0.67192 0.93061 0.0
C758 C 0.22914 0.64193 0.93325 0.0
C759 C 0.22849 0.62064 0.9776 0.0
H760 H 0.22996 0.57403 0.95001 0.0
C761 C 0.19559 0.55343 0.00752 0.0
C762 C 0.18418 0.54379 0.99474 0.0
C763 C 0.20807 0.56713 0.00131 0.0
C764 C 0.22946 0.5869 0.95794 0.0
H765 H 0.26558 0.67743 0.95185 0.0
H766 H 0.2606 0.64776 0.96847 0.0
H767 H 0.24229 0.60246 0.93583 0.0
H768 H 0.17757 0.54056 0.96532 0.0
H769 H 0.19876 0.56454 0.95466 0.0
H770 H 0.21429 0.60557 -0.00089 0.0
C771 C 0.25256 0.65073 0.95601 0.0
C772 C 0.23666 0.60311 0.94986 0.0
C773 C 0.25538 0.66761 0.94654 0.0
C774 C 0.18609 0.54766 0.9756 0.0
C775 C 0.19845 0.56136 0.96943 0.0
C776 C 0.22099 0.60448 0.9856 0.0
C777 C 0.23948 0.63776 0.94934 0.0
C778 C 0.23565 0.62019 0.95938 0.0
C779 C 0.20939 0.5715 0.9822 0.0
C780 C 0.22073 0.58757 0.97553 0.0
H781 H 0.22332 0.66178 0.91176 0.0
H782 H 0.21883 0.63217 0.92798 0.0
H783 H 0.22749 0.63374 0.98512 0.0
H784 H 0.19459 0.5507 0.02237 0.0
H785 H 0.21645 0.57452 0.0115 0.0
C786 C 0.55865 0.97411 0.1974 0.0
C787 C 0.55389 0.99262 0.19287 0.0
C788 C 0.57487 0.97024 0.20744 0.0
C789 C 0.62131 0.9894 0.21564 0.0
H790 H 0.625 0.9483 0.25071 0.0
C791 C 0.68053 0.94549 0.26025 0.0
C792 C 0.69329 0.94215 0.24568 0.0
C793 C 0.66355 0.95444 0.25668 0.0
C794 C 0.62419 0.96001 0.24118 0.0
H795 H 0.5621 0.02164 0.19615 0.0
H796 H 0.59048 0.01481 0.21369 0.0
H797 H 0.59435 0.95878 0.24021 0.0
H798 H 0.69845 0.94626 0.21607 0.0
H799 H 0.66894 0.96172 0.20991 0.0
H800 H 0.65116 0.99038 0.21629 0.0
C801 C 0.58168 0.00331 0.20927 0.0
C802 C 0.60665 0.96589 0.23503 0.0
C803 C 0.56539 0.00721 0.19928 0.0
C804 C 0.68895 0.94852 0.22763 0.0
C805 C 0.67207 0.95754 0.22411 0.0
C806 C 0.63884 0.98349 0.22174 0.0
C807 C 0.58676 0.98476 0.21318 0.0
C808 C 0.60505 0.98033 0.22182 0.0
C809 C 0.65907 0.96038 0.23852 0.0
C810 C 0.64049 0.96841 0.23418 0.0
H811 H 0.5501 0.96252 0.1928 0.0
H812 H 0.57848 0.95578 0.21003 0.0
H813 H 0.62057 0.00048 0.20537 0.0
H814 H 0.68343 0.94081 0.27433 0.0
H815 H 0.65384 0.95656 0.26808 0.0
C816 C 0.74678 0.1875 0.54994 0.0
C817 C 0.75898 0.19726 0.56186 0.0
C818 C 0.7534 0.17292 0.53871 0.0
C819 C 0.76921 0.13494 0.52715 0.0
H820 H 0.81965 0.13689 0.50756 0.0
C821 C 0.80711 0.07197 0.49174 0.0
C822 C 0.82383 0.06764 0.50105 0.0
C823 C 0.79785 0.08881 0.49543 0.0
C824 C 0.80548 0.13622 0.51281 0.0
H825 H 0.78777 0.19937 0.57113 0.0
H826 H 0.7991 0.17394 0.552 0.0
H827 H 0.80553 0.16506 0.52049 0.0
H828 H 0.84428 0.07775 0.52098 0.0
H829 H 0.82838 0.10715 0.52705 0.0
H830 H 0.76944 0.1059 0.51967 0.0
C831 C 0.78451 0.17773 0.55095 0.0
C832 C 0.79742 0.15229 0.52031 0.0
C833 C 0.77794 0.19226 0.5621 0.0
C834 C 0.83135 0.08061 0.5137 0.0
C835 C 0.82234 0.09751 0.51707 0.0
C836 C 0.77723 0.11888 0.51942 0.0
C837 C 0.77235 0.16782 0.53916 0.0
C838 C 0.77948 0.15167 0.52824 0.0
C839 C 0.80546 0.10172 0.5081 0.0
C840 C 0.79567 0.11926 0.51282 0.0
H841 H 0.7321 0.19103 0.54934 0.0
H842 H 0.7437 0.16564 0.52968 0.0
H843 H 0.7554 0.13394 0.53321 0.0
H844 H 0.801 0.06219 0.48195 0.0
H845 H 0.78481 0.09178 0.48838 0.0
C846 C 0.16706 0.55946 0.73378 0.0
C847 C 0.16649 0.57885 0.73127 0.0
C848 C 0.15148 0.54999 0.74079 0.0
C849 C 0.10878 0.56044 0.76846 0.0
H850 H 0.10024 0.50734 0.76245 0.0
C851 C 0.06192 0.52156 0.81993 0.0
C852 C 0.05088 0.50672 0.81352 0.0
C853 C 0.0756 0.52936 0.80848 0.0
C854 C 0.1022 0.52224 0.76413 0.0
H855 H 0.14914 0.60349 0.73255 0.0
H856 H 0.12145 0.58693 0.74337 0.0
H857 H 0.12317 0.52295 0.74286 0.0
H858 H 0.04558 0.48814 0.79025 0.0
H859 H 0.06885 0.50238 0.76976 0.0
H860 H 0.08724 0.56005 0.78894 0.0
C861 C 0.13408 0.57899 0.74097 0.0
C862 C 0.11561 0.53118 0.75304 0.0
C863 C 0.14982 0.5885 0.73452 0.0
C864 C 0.05398 0.49956 0.79553 0.0
C865 C 0.06739 0.50769 0.78383 0.0
C866 C 0.09515 0.55162 0.77919 0.0
C867 C 0.13492 0.55974 0.74504 0.0
C868 C 0.11934 0.55037 0.7553 0.0
C869 C 0.07823 0.52289 0.79008 0.0
C870 C 0.09196 0.53231 0.77755 0.0
H871 H 0.17991 0.55183 0.73148 0.0
H872 H 0.15287 0.53526 0.74384 0.0
H873 H 0.11132 0.57512 0.771 0.0
H874 H 0.06003 0.52713 0.83388 0.0
H875 H 0.08406 0.54054 0.81412 0.0
C876 C 0.70593 0.91528 0.98449 0.0
C877 C 0.68747 0.91625 0.99104 0.0
C878 C 0.71674 0.89932 0.98792 0.0
C879 C 0.71398 0.84977 0.00234 0.0
H880 H 0.75727 0.86035 0.03305 0.0
C881 C 0.73656 0.80154 0.06127 0.0
C882 C 0.75556 0.79913 0.06546 0.0
C883 C 0.73097 0.81412 0.04751 0.0
C884 C 0.74552 0.85706 0.02414 0.0
H885 H 0.66539 0.90105 0.00503 0.0
H886 H 0.68396 0.87316 0.01057 0.0
H887 H 0.74244 0.88558 0.01559 0.0
H888 H 0.78364 0.80793 0.05815 0.0
H889 H 0.77376 0.83008 0.03412 0.0
H890 H 0.71651 0.82145 0.01149 0.0
C891 C 0.69022 0.88465 0.00297 0.0
C892 C 0.73704 0.87151 0.01411 0.0
C893 C 0.67962 0.90066 -6e-05 0.0
C894 C 0.76887 0.80949 0.05535 0.0
C895 C 0.76323 0.82219 0.04159 0.0
C896 C 0.72249 0.83533 0.01227 0.0
C897 C 0.70902 0.88399 0.99749 0.0
C898 C 0.7207 0.86814 0.00382 0.0
C899 C 0.7442 0.82467 0.03756 0.0
C900 C 0.7378 0.83899 0.02398 0.0
H901 H 0.71227 0.92719 0.97764 0.0
H902 H 0.73121 0.89913 0.98358 0.0
H903 H 0.70154 0.84677 0.9943 0.0
H904 H 0.7259 0.79381 0.06871 0.0
H905 H 0.71617 0.81595 0.04504 0.0
C906 C 0.31526 0.45113 0.24785 0.0
C907 C 0.30504 0.44079 0.26109 0.0
C908 C 0.32947 0.46331 0.25358 0.0
C909 C 0.34754 0.48771 0.29582 0.0
H910 H 0.39552 0.48508 0.27088 0.0
C911 C 0.41748 0.49444 0.33261 0.0
C912 C 0.43076 0.50703 0.32559 0.0
C913 C 0.40097 0.49112 0.32292 0.0
C914 C 0.38208 0.48628 0.27773 0.0
H915 H 0.30183 0.43522 0.29073 0.0
H916 H 0.32658 0.45596 0.30056 0.0
H917 H 0.36834 0.46986 0.25683 0.0
H918 H 0.43722 0.52615 0.30304 0.0
H919 H 0.40833 0.51964 0.28552 0.0
H920 H 0.36165 0.50292 0.31737 0.0
C921 C 0.32343 0.45506 0.2858 0.0
C922 C 0.36652 0.47758 0.26971 0.0
C923 C 0.3093 0.44297 0.28011 0.0
C924 C 0.42713 0.51642 0.30874 0.0
C925 C 0.41072 0.5127 0.29874 0.0
C926 C 0.3631 0.49616 0.3039 0.0
C927 C 0.33369 0.46542 0.27265 0.0
C928 C 0.34925 0.47756 0.27908 0.0
C929 C 0.39755 0.5 0.30581 0.0
C930 C 0.38061 0.49495 0.29524 0.0
H931 H 0.31231 0.44985 0.23307 0.0
H932 H 0.33709 0.47113 0.24311 0.0
H933 H 0.33433 0.4884 0.30314 0.0
H934 H 0.41987 0.48711 0.34562 0.0
H935 H 0.39107 0.48115 0.32855 0.0
C936 C 0.47546 0.32118 0.42885 0.0
C937 C 0.4914 0.31525 0.4386 0.0
C938 C 0.47036 0.31262 0.41214 0.0
C939 C 0.47 0.26992 0.38683 0.0
H940 H 0.46262 0.30122 0.34327 0.0
C941 C 0.43668 0.24158 0.31853 0.0
C942 C 0.42349 0.2535 0.31019 0.0
C943 C 0.44823 0.24811 0.33291 0.0
C944 C 0.4645 0.29228 0.35532 0.0
H945 H 0.51435 0.2955 0.43864 0.0
H946 H 0.5049 0.28001 0.40946 0.0
H947 H 0.47661 0.31445 0.37135 0.0
H948 H 0.41216 0.28164 0.31048 0.0
H949 H 0.43175 0.29274 0.3356 0.0
H950 H 0.4568 0.24803 0.3713 0.0
C951 C 0.49664 0.29151 0.41478 0.0
C952 C 0.47264 0.29984 0.3713 0.0
C953 C 0.50202 0.30038 0.43138 0.0
C954 C 0.42223 0.27207 0.31644 0.0
C955 C 0.43363 0.27851 0.33081 0.0
C956 C 0.46156 0.26238 0.37089 0.0
C957 C 0.48087 0.29773 0.40498 0.0
C958 C 0.47502 0.28886 0.38732 0.0
C959 C 0.44678 0.26666 0.33926 0.0
C960 C 0.45821 0.27366 0.35514 0.0
H961 H 0.46707 0.33268 0.43397 0.0
H962 H 0.45806 0.31754 0.40484 0.0
H963 H 0.47166 0.26125 0.39912 0.0
H964 H 0.43808 0.22721 0.314 0.0
H965 H 0.45831 0.23865 0.33901 0.0
C966 C 0.00071 0.19002 0.56643 0.0
C967 C 0.99041 0.17497 0.5591 0.0
C968 C 0.99504 0.19879 0.58297 0.0
C969 C 0.96985 0.19001 0.62608 0.0
H970 H 0.95847 0.24295 0.62737 0.0
C971 C 0.92443 0.22113 0.68387 0.0
C972 C 0.92786 0.23935 0.6903 0.0
C973 C 0.93418 0.21396 0.66863 0.0
C974 C 0.96193 0.22823 0.62741 0.0
H975 H 0.96624 0.15721 0.56348 0.0
H976 H 0.95667 0.17224 0.59248 0.0
H977 H 0.97211 0.22923 0.59921 0.0
H978 H 0.9445 0.26428 0.68584 0.0
H979 H 0.96193 0.25156 0.6594 0.0
H980 H 0.95995 0.18882 0.65416 0.0
C981 C 0.969 0.17733 0.58534 0.0
C982 C 0.96968 0.2204 0.61125 0.0
C983 C 0.97442 0.16883 0.56867 0.0
C984 C 0.94145 0.25021 0.68117 0.0
C985 C 0.95138 0.24294 0.66597 0.0
C986 C 0.96241 0.19785 0.64228 0.0
C987 C 0.97924 0.19236 0.59263 0.0
C988 C 0.97323 0.20115 0.61032 0.0
C989 C 0.94783 0.22472 0.65949 0.0
C990 C 0.95783 0.21695 0.64299 0.0
H991 H 0.01307 0.19508 0.55933 0.0
H992 H 0.00314 0.21036 0.58838 0.0
H993 H 0.97275 0.17516 0.62575 0.0
H994 H 0.91393 0.21242 0.69042 0.0
H995 H 0.9307 0.20006 0.66379 0.0
C996 C 0.9807 0.68275 0.90535 0.0
C997 C 0.99054 0.66672 0.91095 0.0
C998 C 0.98469 0.69127 0.88821 0.0
C999 C 0.00637 0.68358 0.84232 0.0
H1000 H 0.02322 0.73492 0.84607 0.0
C1001 C 0.05786 0.71491 0.78996 0.0
C1002 C 0.057 0.73401 0.78553 0.0
C1003 C 0.04606 0.70732 0.80347 0.0
C1004 C 0.01818 0.72074 0.84459 0.0
H1005 H 0.01142 0.64643 0.90265 0.0
H1006 H 0.01807 0.66105 0.87266 0.0
H1007 H 0.00812 0.72016 0.87277 0.0
H1008 H 0.04263 0.76002 0.7915 0.0
H1009 H 0.02177 0.74666 0.81489 0.0
H1010 H 0.0166 0.68397 0.81428 0.0
C1011 C 0.00742 0.66713 0.88153 0.0
C1012 C 0.00954 0.71229 0.85991 0.0
C1013 C 0.00372 0.65885 0.89875 0.0
C1014 C 0.04376 0.74527 0.79467 0.0
C1015 C 0.03183 0.73763 0.80813 0.0
C1016 C 0.01479 0.69208 0.82693 0.0
C1017 C -0.00175 0.68362 0.87627 0.0
C1018 C 0.00413 0.69346 0.8591 0.0
C1019 C 0.03296 0.71858 0.81281 0.0
C1020 C 0.0214 0.71055 0.82808 0.0
H1021 H 0.97049 0.68913 0.91452 0.0
H1022 H 0.97742 0.70398 0.88442 0.0
H1023 H 0.0021 0.66909 0.8413 0.0
H1024 H 0.06794 0.70581 0.7833 0.0
H1025 H 0.04764 0.69269 0.80697 0.0
C1026 C 0.54421 0.72752 0.16604 0.0
C1027 C 0.56278 0.72926 0.16004 0.0
C1028 C 0.5296 0.73312 0.15434 0.0
C1029 C 0.51032 0.76571 0.13345 0.0
H1030 H 0.50591 0.75615 0.08031 0.0
C1031 C 0.49894 0.82109 0.07712 0.0
C1032 C 0.48575 0.81769 0.06304 0.0
C1033 C 0.50245 0.80763 0.09075 0.0
C1034 C 0.50666 0.75872 0.0952 0.0
H1035 H 0.58075 0.73656 0.13688 0.0
H1036 H 0.55525 0.74559 0.11617 0.0
H1037 H 0.52334 0.73433 0.10005 0.0
H1038 H 0.46545 0.79785 0.05245 0.0
H1039 H 0.47223 0.77391 0.076 0.0
H1040 H 0.49517 0.79101 0.12829 0.0
C1041 C 0.55192 0.74012 0.12988 0.0
C1042 C 0.51662 0.74628 0.10644 0.0
C1043 C 0.5665 0.73503 0.14171 0.0
C1044 C 0.47565 0.80084 0.06322 0.0
C1045 C 0.47951 0.78716 0.07661 0.0
C1046 C 0.50069 0.77833 0.12214 0.0
C1047 C 0.53343 0.74 0.13637 0.0
C1048 C 0.51906 0.75003 0.12553 0.0
C1049 C 0.49313 0.79038 0.09031 0.0
C1050 C 0.49934 0.77524 0.10284 0.0
H1051 H 0.54109 0.72328 0.18024 0.0
H1052 H 0.51544 0.73301 0.15964 0.0
H1053 H 0.51221 0.76901 0.14809 0.0
H1054 H 0.50685 0.83399 0.07735 0.0
H1055 H 0.51316 0.81032 0.10109 0.0
C1056 C 0.19718 0.29747 0.35371 0.0
C1057 C 0.21097 0.28363 0.35179 0.0
C1058 C 0.19224 0.30867 0.33852 0.0
C1059 C 0.19659 0.31508 0.28732 0.0
H1060 H 0.20553 0.36678 0.30055 0.0
C1061 C 0.22517 0.36916 0.23557 0.0
C1062 C 0.22382 0.38817 0.24008 0.0
C1063 C 0.21661 0.35578 0.24694 0.0
C1064 C 0.20236 0.35258 0.29645 0.0
H1065 H 0.22913 0.26959 0.33198 0.0
H1066 H 0.22049 0.28917 0.30552 0.0
H1067 H 0.20291 0.34365 0.32488 0.0
H1068 H 0.21084 0.40842 0.2583 0.0
H1069 H 0.19446 0.38529 0.27713 0.0
H1070 H 0.19636 0.32401 0.25878 0.0
C1071 C 0.21356 0.29139 0.31878 0.0
C1072 C 0.20095 0.33924 0.31054 0.0
C1073 C 0.21864 0.2803 0.33401 0.0
C1074 C 0.21211 0.39377 0.25469 0.0
C1075 C 0.20299 0.38046 0.26562 0.0
C1076 C 0.19768 0.32853 0.27315 0.0
C1077 C 0.20081 0.30611 0.32105 0.0
C1078 C 0.19867 0.32029 0.30612 0.0
C1079 C 0.20616 0.36126 0.26271 0.0
C1080 C 0.20124 0.3474 0.2775 0.0
H1081 H 0.19088 0.30032 0.36717 0.0
H1082 H 0.18226 0.31984 0.34061 0.0
H1083 H 0.19466 0.30055 0.28356 0.0
H1084 H 0.23433 0.36455 0.22444 0.0
H1085 H 0.21954 0.34121 0.24418 0.0
C1086 C 0.86417 0.97426 0.51306 0.0
C1087 C 0.8664 0.97808 0.49401 0.0
C1088 C 0.8787 0.96646 0.52329 0.0
C1089 C 0.92918 0.96879 0.52328 0.0
H1090 H 0.92152 0.94389 0.5707 0.0
C1091 C 0.96373 0.96064 0.6022 0.0
C1092 C 0.9694 0.97933 0.6043 0.0
C1093 C 0.95518 0.95464 0.5857 0.0
C1094 C 0.92425 0.9505 0.55739 0.0
H1095 H 0.88491 0.97541 0.47024 0.0
H1096 H 0.91056 0.96162 0.48821 0.0
H1097 H 0.89823 0.94094 0.54634 0.0
H1098 H 0.97137 0.00614 0.59034 0.0
H1099 H 0.95579 0.99601 0.56206 0.0
H1100 H 0.9551 0.97854 0.53439 0.0
C1101 C 0.89755 0.96476 0.49526 0.0
C1102 C 0.91073 0.94894 0.54344 0.0
C1103 C 0.88284 0.97247 0.48493 0.0
C1104 C 0.96707 0.99167 0.58925 0.0
C1105 C 0.9583 0.98576 0.57287 0.0
C1106 C 0.94285 0.97012 0.53713 0.0
C1107 C 0.8959 0.96242 0.51472 0.0
C1108 C 0.9125 0.95902 0.52669 0.0
C1109 C 0.95188 0.96725 0.57101 0.0
C1110 C 0.94002 0.96193 0.55477 0.0
H1111 H 0.8516 0.97849 0.52034 0.0
H1112 H 0.8769 0.96511 0.53825 0.0
H1113 H 0.93108 0.9767 0.51053 0.0
H1114 H 0.96567 0.95066 0.6134 0.0
H1115 H 0.95078 0.94021 0.58465 0.0
C1116 C 0.26066 0.63702 0.71932 0.0
C1117 C 0.25702 0.61907 0.72632 0.0
C1118 C 0.26889 0.65051 0.73084 0.0
C1119 C 0.29278 0.65916 0.77569 0.0
H1120 H 0.25324 0.6949 0.78476 0.0
C1121 C 0.27927 0.68957 0.84836 0.0
C1122 C 0.26859 0.70584 0.85035 0.0
C1123 C 0.28343 0.68263 0.83059 0.0
C1124 C 0.26483 0.68556 0.78227 0.0
H1125 H 0.26051 0.60048 0.74986 0.0
H1126 H 0.27564 0.62372 0.76966 0.0
H1127 H 0.2525 0.67594 0.75684 0.0
H1128 H 0.25533 0.72862 0.83559 0.0
H1129 H 0.26362 0.71732 0.80462 0.0
H1130 H 0.30505 0.66852 0.80123 0.0
C1131 C 0.27204 0.6275 0.75546 0.0
C1132 C 0.26434 0.67462 0.76615 0.0
C1133 C 0.26334 0.61423 0.74419 0.0
C1134 C 0.26331 0.71583 0.83437 0.0
C1135 C 0.26797 0.70924 0.81661 0.0
C1136 C 0.29354 0.67042 0.79164 0.0
C1137 C 0.27404 0.64598 0.74924 0.0
C1138 C 0.27782 0.66076 0.76315 0.0
C1139 C 0.27742 0.69212 0.81441 0.0
C1140 C 0.27906 0.68314 0.79564 0.0
H1141 H 0.25561 0.64108 0.70566 0.0
H1142 H 0.27017 0.66473 0.72582 0.0
H1143 H 0.30337 0.64856 0.7736 0.0
H1144 H 0.28347 0.68162 0.86052 0.0
H1145 H 0.29047 0.6693 0.82967 0.0
C1146 C 0.53467 0.00353 0.09358 0.0
C1147 C 0.53375 0.01643 0.10837 0.0
C1148 C 0.54553 0.00721 0.07782 0.0
C1149 C 0.56575 0.01949 0.04293 0.0
H1150 H 0.6153 0.03755 0.05499 0.0
C1151 C 0.62619 0.01298 0.99016 0.0
C1152 C 0.64192 0.00429 -0.00201 0.0
C1153 C 0.61226 0.02041 0.00174 0.0
C1154 C 0.60149 0.03261 0.05133 0.0
H1155 H 0.54263 0.04394 0.11754 0.0
H1156 H 0.56148 0.05043 0.08989 0.0
H1157 H 0.59082 0.0389 0.07848 0.0
H1158 H 0.65603 0.99758 0.02387 0.0
H1159 H 0.63199 0.01046 0.04395 0.0
H1160 H 0.57685 0.01194 0.01623 0.0
C1161 C 0.55403 0.03729 0.09069 0.0
C1162 C 0.58736 0.03357 0.06475 0.0
C1163 C 0.54315 0.03359 0.10651 0.0
C1164 C 0.64406 0.00423 0.01746 0.0
C1165 C 0.63029 0.01174 0.02897 0.0
C1166 C 0.57992 0.01845 0.02953 0.0
C1167 C 0.55574 0.02393 0.07637 0.0
C1168 C 0.5695 0.02635 0.06096 0.0
C1169 C 0.61396 0.01943 0.0213 0.0
C1170 C 0.59814 0.02432 0.03385 0.0
H1171 H 0.52753 0.99022 0.09442 0.0
H1172 H 0.54666 0.99647 0.06723 0.0
H1173 H 0.55206 0.01415 0.03942 0.0
H1174 H 0.62413 0.01309 0.97518 0.0
H1175 H 0.5999 0.02635 0.9954 0.0
C1176 C 0.7285 0.21853 0.6617 0.0
C1177 C 0.72138 0.21441 0.64387 0.0
C1178 C 0.72284 0.20818 0.67726 0.0
C1179 C 0.70995 0.16107 0.68794 0.0
H1180 H 0.70035 0.17955 0.73792 0.0
C1181 C 0.71768 0.11057 0.7478 0.0
C1182 C 0.72769 0.11752 0.76306 0.0
C1183 C 0.70898 0.12279 0.73538 0.0
C1184 C 0.70311 0.17411 0.72409 0.0
H1185 H 0.70193 0.1969 0.62857 0.0
H1186 H 0.69244 0.17855 0.65571 0.0
H1187 H 0.7008 0.2013 0.71161 0.0
H1188 H 0.73524 0.14241 0.77843 0.0
H1189 H 0.72144 0.16389 0.75614 0.0
H1190 H 0.71396 0.13435 0.70006 0.0
C1191 C 0.70232 0.18986 0.6576 0.0
C1192 C 0.70323 0.18659 0.70903 0.0
C1193 C 0.70777 0.20036 0.64209 0.0
C1194 C 0.72747 0.13675 0.76675 0.0
C1195 C 0.71946 0.14908 0.75389 0.0
C1196 C 0.71023 0.1487 0.70295 0.0
C1197 C 0.71013 0.19338 0.67524 0.0
C1198 C 0.70705 0.1802 0.69088 0.0
C1199 C 0.71102 0.14227 0.73744 0.0
C1200 C 0.70728 0.15505 0.72136 0.0
H1201 H 0.73882 0.22944 0.66357 0.0
H1202 H 0.72919 0.2111 0.69067 0.0
H1203 H 0.7132 0.15579 0.67413 0.0
H1204 H 0.71759 0.09573 0.74481 0.0
H1205 H 0.70184 0.11692 0.72342 0.0
C1206 C 0.11987 0.4587 0.01143 0.0
C1207 C 0.11684 0.47528 0.02131 0.0
C1208 C 0.10575 0.45116 0.00026 0.0
C1209 C 0.05757 0.46295 0.98103 0.0
H1210 H 0.07893 0.44005 0.937 0.0
C1211 C 0.04854 0.46458 0.89572 0.0
C1212 C 0.02947 0.46863 0.89479 0.0
C1213 C 0.05676 0.45992 0.91277 0.0
C1214 C 0.07272 0.44681 0.949 0.0
H1215 H 0.09645 0.49617 0.02881 0.0
H1216 H 0.07261 0.48457 0.00809 0.0
H1217 H 0.09718 0.44208 0.96485 0.0
H1218 H 0.00368 0.46982 0.91042 0.0
H1219 H 0.01753 0.46009 0.93986 0.0
H1220 H 0.03399 0.46976 0.96435 0.0
C1221 C 0.08529 0.4765 0.00923 0.0
C1222 C 0.08314 0.44753 0.96545 0.0
C1223 C 0.0991 0.4834 0.02115 0.0
C1224 C 0.0185 0.46692 0.91091 0.0
C1225 C 0.02656 0.46154 0.92785 0.0
C1226 C 0.04747 0.46297 0.96432 0.0
C1227 C 0.08872 0.46077 -0.00222 0.0
C1228 C 0.07608 0.45633 0.98161 0.0
C1229 C 0.04597 0.45853 0.92924 0.0
C1230 C 0.0552 0.45557 0.9478 0.0
H1231 H 0.13348 0.45212 0.01154 0.0
H1232 H 0.10879 0.43843 0.99274 0.0
H1233 H 0.051 0.46898 0.99321 0.0
H1234 H 0.05727 0.46598 0.88344 0.0
H1235 H 0.07175 0.45826 0.913 0.0
C1236 C 0.78945 0.88073 0.26618 0.0
C1237 C 0.78073 0.89573 0.25706 0.0
C1238 C 0.79964 0.86756 0.25591 0.0
C1239 C 0.81525 0.85585 0.207 0.0
H1240 H 0.79554 0.80713 0.21987 0.0
C1241 C 0.77841 0.79197 0.16727 0.0
C1242 C 0.78974 0.78987 0.15139 0.0
C1243 C 0.78447 0.80245 0.18249 0.0
C1244 C 0.80127 0.82061 0.21608 0.0
H1245 H 0.77754 0.90993 0.23054 0.0
H1246 H 0.79464 0.88701 0.21268 0.0
H1247 H 0.79468 0.83202 0.24276 0.0
H1248 H 0.81679 0.79652 0.13947 0.0
H1249 H 0.82745 0.81487 0.16625 0.0
H1250 H 0.81999 0.84487 0.17964 0.0
C1251 C 0.79396 0.88524 0.22767 0.0
C1252 C 0.80107 0.83488 0.22936 0.0
C1253 C 0.78391 0.89837 0.23792 0.0
C1254 C 0.80764 0.79798 0.15142 0.0
C1255 C 0.81374 0.80851 0.16675 0.0
C1256 C 0.81517 0.84163 0.1936 0.0
C1257 C 0.80118 0.86917 0.23636 0.0
C1258 C 0.807 0.853 0.22462 0.0
C1259 C 0.8021 0.81108 0.18237 0.0
C1260 C 0.80713 0.82419 0.19769 0.0
H1261 H 0.78739 0.87846 0.28099 0.0
H1262 H 0.80537 0.85558 0.26313 0.0
H1263 H 0.82049 0.86948 0.20305 0.0
H1264 H 0.76458 0.78589 0.16785 0.0
H1265 H 0.77491 0.80442 0.19405 0.0
C1266 C 0.38347 0.51637 0.52898 0.0
C1267 C 0.36606 0.51535 0.52005 0.0
C1268 C 0.39866 0.52458 0.51984 0.0
C1269 C 0.42578 0.52151 0.48695 0.0
H1270 H 0.42649 0.56538 0.45528 0.0
C1271 C 0.44878 0.54091 0.40795 0.0
C1272 C 0.46433 0.52913 0.40636 0.0
C1273 C 0.4409 0.54453 0.42542 0.0
C1274 C 0.42652 0.55301 0.46396 0.0
H1275 H 0.35022 0.52365 0.49573 0.0
H1276 H 0.3765 0.53862 0.48009 0.0
H1277 H 0.40389 0.56326 0.48074 0.0
H1278 H 0.48498 0.51334 0.42175 0.0
H1279 H 0.47192 0.52046 0.45238 0.0
H1280 H 0.44686 0.51023 0.46935 0.0
C1281 C 0.37855 0.53299 0.49398 0.0
C1282 C 0.41372 0.55195 0.47868 0.0
C1283 C 0.36352 0.52438 0.50288 0.0
C1284 C 0.47274 0.52219 0.42262 0.0
C1285 C 0.46517 0.5262 0.44015 0.0
C1286 C 0.43828 0.52237 0.47204 0.0
C1287 C 0.39645 0.53226 0.50192 0.0
C1288 C 0.41282 0.53589 0.48986 0.0
C1289 C 0.44867 0.53679 0.44176 0.0
C1290 C 0.43831 0.5378 0.45984 0.0
H1291 H 0.3858 0.50926 0.54213 0.0
H1292 H 0.41236 0.52379 0.52618 0.0
H1293 H 0.42521 0.50883 0.4952 0.0
H1294 H 0.44201 0.54642 0.3956 0.0
H1295 H 0.42809 0.5525 0.42588 0.0
C1296 C 0.23342 0.20607 0.3911 0.0
C1297 C 0.22139 0.22005 0.38468 0.0
C1298 C 0.24442 0.19605 0.37851 0.0
C1299 C 0.25866 0.19468 0.32769 0.0
H1300 H 0.30792 0.1972 0.34991 0.0
C1301 C 0.32318 0.22398 0.29097 0.0
C1302 C 0.34077 0.21598 0.2943 0.0
C1303 C 0.3073 0.21702 0.29986 0.0
C1304 C 0.2943 0.19598 0.34347 0.0
H1305 H 0.20976 0.23336 0.36025 0.0
H1306 H 0.2297 0.21698 0.33829 0.0
H1307 H 0.28082 0.19669 0.36985 0.0
H1308 H 0.35534 0.19385 0.309 0.0
H1309 H 0.32755 0.18197 0.32488 0.0
H1310 H 0.27258 0.19574 0.30118 0.0
C1311 C 0.23042 0.21302 0.35285 0.0
C1312 C 0.2786 0.19557 0.35494 0.0
C1313 C 0.21894 0.22253 0.36545 0.0
C1314 C 0.34202 0.20043 0.30624 0.0
C1315 C 0.32613 0.19359 0.31529 0.0
C1316 C 0.27443 0.19541 0.31619 0.0
C1317 C 0.24424 0.20059 0.35937 0.0
C1318 C 0.26049 0.19579 0.34724 0.0
C1319 C 0.30866 0.20199 0.31239 0.0
C1320 C 0.29235 0.19686 0.32402 0.0
H1321 H 0.23543 0.20394 0.40595 0.0
H1322 H 0.25428 0.18601 0.384 0.0
H1323 H 0.24502 0.19431 0.32121 0.0
H1324 H 0.32167 0.23583 0.28169 0.0
H1325 H 0.29407 0.22396 0.29757 0.0
C1326 C 0.03607 0.0036 0.63589 0.0
C1327 C 0.02703 0.98627 0.63464 0.0
C1328 C 0.04263 0.01244 0.61982 0.0
C1329 C 0.02537 0.01773 0.57373 0.0
H1330 H 0.06671 0.05221 0.56811 0.0
C1331 C 0.01874 0.07979 0.52387 0.0
C1332 C 0.02492 0.09691 0.53119 0.0
C1333 C 0.02414 0.06295 0.53214 0.0
C1334 C 0.05504 0.04269 0.56946 0.0
H1335 H 0.01923 0.96372 0.61599 0.0
H1336 H 0.03032 0.97942 0.58775 0.0
H1337 H 0.06849 0.02728 0.59134 0.0
H1338 H 0.04227 0.10984 0.55234 0.0
H1339 H 0.05094 0.0807 0.56732 0.0
H1340 H 0.01112 0.03386 0.55325 0.0
C1341 C 0.03253 0.98605 0.60118 0.0
C1342 C 0.05618 0.02831 0.58263 0.0
C1343 C 0.02631 0.97703 0.61734 0.0
C1344 C 0.03726 0.09685 0.5464 0.0
C1345 C 0.04239 0.08006 0.55488 0.0
C1346 C 0.0241 0.03224 0.5608 0.0
C1347 C 0.03991 0.00423 0.6022 0.0
C1348 C 0.04107 0.01612 0.58534 0.0
C1349 C 0.03555 0.06288 0.54814 0.0
C1350 C 0.0386 0.04538 0.55901 0.0
H1351 H 0.03672 0.01099 0.64908 0.0
H1352 H 0.04813 0.02648 0.62103 0.0
H1353 H 0.01337 0.00872 0.5757 0.0
H1354 H 0.0095 0.07941 0.5119 0.0
H1355 H 0.01896 0.05002 0.52625 0.0
C1356 C 0.25698 0.76098 0.86659 0.0
C1357 C 0.25162 0.76043 0.88541 0.0
C1358 C 0.24471 0.76798 0.85312 0.0
C1359 C 0.19349 0.77409 0.84845 0.0
H1360 H 0.20657 0.78706 0.79754 0.0
C1361 C 0.13765 0.78195 0.79186 0.0
C1362 C 0.14009 0.76934 0.77698 0.0
C1363 C 0.15229 0.78574 0.80414 0.0
C1364 C 0.20277 0.78356 0.81176 0.0
H1365 H 0.23064 0.76881 0.9054 0.0
H1366 H 0.21001 0.78273 0.88228 0.0
H1367 H 0.23073 0.78701 0.82168 0.0
H1368 H 0.16019 0.75182 0.7626 0.0
H1369 H 0.18589 0.75865 0.78408 0.0
H1370 H 0.16556 0.77079 0.83852 0.0
C1371 C 0.223 0.77663 0.87755 0.0
C1372 C 0.21659 0.78342 0.8256 0.0
C1373 C 0.23493 0.76897 0.89089 0.0
C1374 C 0.15781 0.76143 0.77404 0.0
C1375 C 0.17256 0.76546 0.7862 0.0
C1376 C 0.1797 0.77466 0.83476 0.0
C1377 C 0.2271 0.77506 0.85836 0.0
C1378 C 0.21222 0.77821 0.84409 0.0
C1379 C 0.16976 0.77726 0.80163 0.0
C1380 C 0.18426 0.77897 0.81623 0.0
H1381 H 0.26977 0.75431 0.86205 0.0
H1382 H 0.2485 0.76641 0.83858 0.0
H1383 H 0.18944 0.76948 0.86226 0.0
H1384 H 0.12422 0.78835 0.79451 0.0
H1385 H 0.14983 0.79492 0.81592 0.0
C1386 C 0.46259 0.01663 0.12492 0.0
C1387 C 0.47038 0.00653 0.13982 0.0
C1388 C 0.45244 0.00736 0.111 0.0
C1389 C 0.43388 0.96007 0.0976 0.0
H1390 H 0.4558 0.97217 0.04965 0.0
C1391 C 0.47154 0.91807 0.03652 0.0
C1392 C 0.46016 0.90212 0.0354 0.0
C1393 C 0.46521 0.93418 0.04541 0.0
C1394 C 0.44942 0.96862 0.0629 0.0
H1395 H 0.47222 0.97928 0.15283 0.0
H1396 H 0.45502 0.96316 0.1287 0.0
H1397 H 0.45749 0.99467 0.07494 0.0
H1398 H 0.43253 0.8912 0.04134 0.0
H1399 H 0.42136 0.91954 0.05674 0.0
H1400 H 0.42768 0.93324 0.08621 0.0
C1401 C 0.45642 0.97818 0.1276 0.0
C1402 C 0.45013 0.98168 0.07738 0.0
C1403 C 0.46653 0.9874 0.14141 0.0
C1404 C 0.44177 0.90315 0.0422 0.0
C1405 C 0.43537 0.91938 0.05106 0.0
C1406 C 0.43345 0.94688 0.08322 0.0
C1407 C 0.44989 0.98787 0.11182 0.0
C1408 C 0.44347 0.97705 0.09527 0.0
C1409 C 0.44725 0.93489 0.05333 0.0
C1410 C 0.44234 0.95057 0.06609 0.0
H1411 H 0.46525 0.03145 0.12343 0.0
H1412 H 0.44738 0.01529 0.09917 0.0
H1413 H 0.42805 0.9563 0.11104 0.0
H1414 H 0.48571 0.91791 0.03126 0.0
H1415 H 0.47492 0.94564 0.04705 0.0
C1416 C 0.72478 0.27535 0.63386 0.0
C1417 C 0.73307 0.27605 0.61611 0.0
C1418 C 0.7344 0.28226 0.64941 0.0
C1419 C 0.77737 0.30742 0.6647 0.0
H1420 H 0.78414 0.26412 0.69641 0.0
C1421 C 0.84752 0.28939 0.69854 0.0
C1422 C 0.84799 0.27827 0.71466 0.0
C1423 C 0.83046 0.29433 0.69047 0.0
C1424 C 0.78222 0.27663 0.68815 0.0
H1425 H 0.75667 0.28617 0.60021 0.0
H1426 H 0.77321 0.29863 0.62712 0.0
H1427 H 0.75792 0.26523 0.6752 0.0
H1428 H 0.83108 0.26502 0.73593 0.0
H1429 H 0.80132 0.2741 0.7223 0.0
H1430 H 0.80217 0.31847 0.67717 0.0
C1431 C 0.75944 0.29275 0.62923 0.0
C1432 C 0.76707 0.27726 0.67595 0.0
C1433 C 0.75001 0.28556 0.61379 0.0
C1434 C 0.83111 0.27324 0.72326 0.0
C1435 C 0.81406 0.27844 0.7154 0.0
C1436 C 0.79247 0.30688 0.67707 0.0
C1437 C 0.75225 0.2902 0.6473 0.0
C1438 C 0.76495 0.29227 0.66351 0.0
C1439 C 0.81348 0.28851 0.69855 0.0
C1440 C 0.79555 0.29108 0.68835 0.0
H1441 H 0.7118 0.26787 0.63599 0.0
H1442 H 0.72851 0.28019 0.66319 0.0
H1443 H 0.77596 0.31924 0.65537 0.0
H1444 H 0.86033 0.2935 0.69163 0.0
H1445 H 0.83065 0.30188 0.67738 0.0
C1446 C 0.97078 0.46916 0.88227 0.0
C1447 C 0.97077 0.47785 0.8647 0.0
C1448 C 0.96292 0.47827 0.89769 0.0
C1449 C 0.96656 0.51153 0.92416 0.0
H1450 H 0.9232 0.54384 0.92548 0.0
C1451 C 0.96988 0.57831 0.96706 0.0
C1452 C 0.96326 0.5942 0.95771 0.0
C1453 C 0.96463 0.56044 0.96117 0.0
C1454 C 0.93542 0.53496 0.92536 0.0
H1455 H 0.96078 0.50153 0.84885 0.0
H1456 H 0.94654 0.51712 0.87551 0.0
H1457 H 0.924 0.51743 0.90388 0.0
H1458 H 0.94502 0.60399 0.93569 0.0
H1459 H 0.9367 0.57305 0.9247 0.0
H1460 H 0.97895 0.52981 0.944 0.0
C1461 C 0.95271 0.50346 0.87756 0.0
C1462 C 0.93574 0.5197 0.91313 0.0
C1463 C 0.96092 0.49458 0.86229 0.0
C1464 C 0.95033 0.59196 0.94318 0.0
C1465 C 0.94545 0.57411 0.93697 0.0
C1466 C 0.96641 0.52694 0.93609 0.0
C1467 C 0.9546 0.49593 0.89557 0.0
C1468 C 0.95165 0.50833 0.91188 0.0
C1469 C 0.95309 0.55806 0.94543 0.0
C1470 C 0.9512 0.5394 0.93624 0.0
H1471 H 0.97846 0.45632 0.88449 0.0
H1472 H 0.96456 0.4722 0.91145 0.0
H1473 H 0.97912 0.50314 0.92334 0.0
H1474 H 0.97963 0.57968 0.97855 0.0
H1475 H 0.97033 0.5485 0.96848 0.0
C1476 C 0.65552 0.70556 0.16091 0.0
C1477 C 0.64752 0.70054 0.17804 0.0
C1478 C 0.67219 0.69747 0.15511 0.0
C1479 C 0.70642 0.67648 0.14351 0.0
H1480 H 0.74366 0.69048 0.18015 0.0
C1481 C 0.77494 0.70382 0.11737 0.0
C1482 C 0.7777 0.72182 0.12456 0.0
C1483 C 0.7637 0.69104 0.12698 0.0
C1484 C 0.73352 0.68617 0.1698 0.0
H1485 H 0.64999 0.68252 0.20219 0.0
H1486 H 0.67987 0.66874 0.1923 0.0
H1487 H 0.71145 0.68568 0.18993 0.0
H1488 H 0.77266 0.74016 0.14798 0.0
H1489 H 0.75268 0.71837 0.1645 0.0
H1490 H 0.72781 0.67902 0.12304 0.0
C1491 C 0.67297 0.67867 0.18324 0.0
C1492 C 0.71507 0.68321 0.17545 0.0
C1493 C 0.65593 0.68651 0.18886 0.0
C1494 C 0.7706 0.72635 0.14217 0.0
C1495 C 0.7593 0.71369 0.15173 0.0
C1496 C 0.7248 0.67955 0.13784 0.0
C1497 C 0.68146 0.68445 0.1665 0.0
C1498 C 0.70113 0.67978 0.1621 0.0
C1499 C 0.75485 0.69625 0.14375 0.0
C1500 C 0.73822 0.68589 0.15071 0.0
H1501 H 0.64922 0.71631 0.15233 0.0
H1502 H 0.67849 0.70247 0.14229 0.0
H1503 H 0.69598 0.67347 0.13299 0.0
H1504 H 0.78033 0.70013 0.10371 0.0
H1505 H 0.76083 0.67763 0.12059 0.0
C1506 C 0.52292 0.49323 0.36612 0.0
C1507 C 0.51929 0.51207 0.37 0.0
C1508 C 0.53073 0.48169 0.37967 0.0
C1509 C 0.52974 0.47775 0.4303 0.0
H1510 H 0.55408 0.43085 0.4186 0.0
C1511 C 0.54017 0.39729 0.46059 0.0
C1512 C 0.52184 0.39471 0.46715 0.0
C1513 C 0.54549 0.41417 0.4523 0.0
C1514 C 0.54763 0.44398 0.42241 0.0
H1515 H 0.52245 0.53413 0.39048 0.0
H1516 H 0.53638 0.51394 0.41429 0.0
H1517 H 0.556 0.45662 0.39668 0.0
H1518 H 0.495 0.40824 0.47092 0.0
H1519 H 0.50397 0.4372 0.45594 0.0
H1520 H 0.52125 0.46508 0.45596 0.0
C1521 C 0.53296 0.50802 0.4008 0.0
C1522 C 0.54857 0.45874 0.40969 0.0
C1523 C 0.52518 0.51963 0.38711 0.0
C1524 C 0.50921 0.40967 0.46595 0.0
C1525 C 0.51446 0.42644 0.45751 0.0
C1526 C 0.52902 0.46308 0.44315 0.0
C1527 C 0.53506 0.48874 0.39749 0.0
C1528 C 0.53875 0.47542 0.413 0.0
C1529 C 0.53256 0.42881 0.45023 0.0
C1530 C 0.53709 0.44567 0.4389 0.0
H1531 H 0.51852 0.48707 0.35301 0.0
H1532 H 0.5319 0.46693 0.37658 0.0
H1533 H 0.522 0.49037 0.43339 0.0
H1534 H 0.55035 0.38615 0.46155 0.0
H1535 H 0.55963 0.41559 0.44717 0.0
C1536 C 0.34907 0.22646 0.23675 0.0
C1537 C 0.36791 0.22815 0.23181 0.0
C1538 C 0.33595 0.239 0.22954 0.0
C1539 C 0.33805 0.28757 0.21239 0.0
H1540 H 0.28433 0.28429 0.21764 0.0
C1541 C 0.29339 0.35372 0.21449 0.0
C1542 C 0.28208 0.3549 0.2305 0.0
C1543 C 0.30109 0.33664 0.20904 0.0
C1544 C 0.29932 0.28536 0.21599 0.0
H1545 H 0.38752 0.24186 0.21345 0.0
H1546 H 0.3644 0.26232 0.19925 0.0
H1547 H 0.30284 0.25566 0.21579 0.0
H1548 H 0.26899 0.3388 0.25261 0.0
H1549 H 0.28262 0.30904 0.24318 0.0
H1550 H 0.33459 0.31716 0.21292 0.0
C1551 C 0.35979 0.25241 0.2097 0.0
C1552 C 0.30996 0.26897 0.21499 0.0
C1553 C 0.37302 0.24046 0.21753 0.0
C1554 C 0.27787 0.33844 0.24037 0.0
C1555 C 0.28548 0.32134 0.23483 0.0
C1556 C 0.32742 0.30383 0.21307 0.0
C1557 C 0.34146 0.25298 0.21681 0.0
C1558 C 0.32957 0.26986 0.21383 0.0
C1559 C 0.29752 0.32035 0.21938 0.0
C1560 C 0.30804 0.30294 0.21549 0.0
H1561 H 0.34485 0.21696 0.24774 0.0
H1562 H 0.32203 0.23878 0.23539 0.0
H1563 H 0.35306 0.28911 0.21197 0.0
H1564 H 0.29676 0.36607 0.20643 0.0
H1565 H 0.31022 0.33624 0.19699 0.0
C1566 C 0.77378 0.17296 0.77022 0.0
C1567 C 0.78228 0.15674 0.77721 0.0
C1568 C 0.78055 0.1906 0.77517 0.0
C1569 C 0.81659 0.21467 0.80519 0.0
H1570 H 0.82026 0.24699 0.762 0.0
C1571 C 0.8813 0.25323 0.7815 0.0
C1572 C 0.87964 0.27003 0.7716 0.0
C1573 C 0.86558 0.24486 0.78936 0.0
C1574 C 0.81902 0.23846 0.77441 0.0
H1575 H 0.80392 0.1462 0.79548 0.0
H1576 H 0.81645 0.17668 0.80322 0.0
H1577 H 0.79892 0.22092 0.76137 0.0
H1578 H 0.86071 0.29216 0.76345 0.0
H1579 H 0.83301 0.27718 0.77675 0.0
H1580 H 0.8383 0.23141 0.81728 0.0
C1581 C 0.80415 0.17607 0.79447 0.0
C1582 C 0.80668 0.2234 0.77409 0.0
C1583 C 0.7971 0.15848 0.78987 0.0
C1584 C 0.86237 0.27928 0.77121 0.0
C1585 C 0.84651 0.27067 0.77872 0.0
C1586 C 0.82923 0.22956 0.80532 0.0
C1587 C 0.79628 0.19239 0.78683 0.0
C1588 C 0.80594 0.21074 0.78912 0.0
C1589 C 0.84788 0.25295 0.78707 0.0
C1590 C 0.83113 0.24108 0.78958 0.0
H1591 H 0.76206 0.172 0.76071 0.0
H1592 H 0.77376 0.20279 0.76938 0.0
H1593 H 0.81596 0.20565 0.8173 0.0
H1594 H 0.89449 0.24585 0.7819 0.0
H1595 H 0.86706 0.23113 0.79555 0.0
C1596 C 0.00783 0.64441 0.00839 0.0
C1597 C 0.98864 0.64092 0.00698 0.0
C1598 C 0.01894 0.63361 0.0201 0.0
C1599 C 0.01962 0.58537 0.03405 0.0
H1600 H 0.06929 0.5996 0.05015 0.0
C1601 C 0.09817 0.55116 0.04285 0.0
C1602 C 0.09858 0.54195 0.02546 0.0
C1603 C 0.08288 0.56227 0.04787 0.0
C1604 C 0.05537 0.59529 0.04615 0.0
H1605 H 0.96557 0.62478 0.01803 0.0
H1606 H 0.98511 0.60565 0.03858 0.0
H1607 H 0.04468 0.6231 0.04877 0.0
H1608 H 0.08307 0.53711 -0.00014 0.0
H1609 H 0.05677 0.55652 0.00847 0.0
H1610 H 0.03049 0.55778 0.03063 0.0
C1611 C 0.99158 0.61668 0.03051 0.0
C1612 C 0.04129 0.60877 0.04524 0.0
C1613 C 0.98039 0.62765 0.01882 0.0
C1614 C 0.08328 0.54393 0.01336 0.0
C1615 C 0.06806 0.55491 0.0184 0.0
C1616 C 0.03364 0.57191 0.03505 0.0
C1617 C 0.01111 0.61896 0.03056 0.0
C1618 C 0.02361 0.60419 0.03799 0.0
C1619 C 0.06766 0.56422 0.03568 0.0
C1620 C 0.05193 0.57699 0.03994 0.0
H1621 H 0.01449 0.65473 -0.00046 0.0
H1622 H 0.0339 0.63573 0.0196 0.0
H1623 H 0.0062 0.58127 0.02842 0.0
H1624 H 0.10969 0.54987 0.05255 0.0
H1625 H 0.08296 0.56932 0.06126 0.0
C1626 C 0.72378 0.84431 0.24841 0.0
C1627 C 0.7223 0.85813 0.26229 0.0
C1628 C 0.71468 0.82717 0.25046 0.0
C1629 C 0.67279 0.80881 0.27257 0.0
H1630 H 0.68903 0.76256 0.24946 0.0
C1631 C 0.62314 0.75984 0.23506 0.0
C1632 C 0.62512 0.74042 0.23674 0.0
C1633 C 0.63593 0.77185 0.24339 0.0
C1634 C 0.6844 0.77523 0.25632 0.0
H1635 H 0.71125 0.86416 0.28988 0.0
H1636 H 0.69542 0.83422 0.29343 0.0
H1637 H 0.71164 0.78754 0.2551 0.0
H1638 H 0.6419 0.71825 0.24865 0.0
H1639 H 0.66476 0.73948 0.26305 0.0
H1640 H 0.64545 0.79682 0.2731 0.0
C1641 C 0.70339 0.83679 0.28083 0.0
C1642 C 0.69729 0.7896 0.25938 0.0
C1643 C 0.71251 0.85394 0.2788 0.0
C1644 C 0.64004 0.73319 0.24722 0.0
C1645 C 0.6531 0.74529 0.25538 0.0
C1646 C 0.65994 0.7945 0.26947 0.0
C1647 C 0.7039 0.82343 0.26644 0.0
C1648 C 0.69146 0.80682 0.26686 0.0
C1649 C 0.65116 0.76475 0.25346 0.0
C1650 C 0.66546 0.77789 0.26061 0.0
H1651 H 0.73136 0.84694 0.23559 0.0
H1652 H 0.71525 0.8173 0.23901 0.0
H1653 H 0.66777 0.82189 0.27827 0.0
H1654 H 0.61177 0.7658 0.22708 0.0
H1655 H 0.63424 0.78675 0.2414 0.0
C1656 C 0.41607 0.46745 0.52866 0.0
C1657 C 0.39915 0.45859 0.53305 0.0
C1658 C 0.43305 0.45945 0.53393 0.0
C1659 C 0.46493 0.43245 0.53119 0.0
H1660 H 0.46979 0.39579 0.57073 0.0
C1661 C 0.49559 0.35719 0.53286 0.0
C1662 C 0.51311 0.36017 0.52466 0.0
C1663 C 0.48609 0.37192 0.54136 0.0
C1664 C 0.46878 0.40622 0.55982 0.0
H1665 H 0.3866 0.43502 0.54725 0.0
H1666 H 0.41608 0.42049 0.55554 0.0
H1667 H 0.44414 0.41826 0.57164 0.0
H1668 H 0.53522 0.38034 0.5202 0.0
H1669 H 0.51835 0.40631 0.53472 0.0
H1670 H 0.4892 0.42005 0.5191 0.0
C1671 C 0.41644 0.4339 0.54857 0.0
C1672 C 0.45399 0.41897 0.5602 0.0
C1673 C 0.39946 0.44213 0.54367 0.0
C1674 C 0.52177 0.37766 0.52658 0.0
C1675 C 0.51209 0.39253 0.53478 0.0
C1676 C 0.47984 0.41993 0.53099 0.0
C1677 C 0.4335 0.44216 0.54328 0.0
C1678 C 0.45135 0.43164 0.54538 0.0
C1679 C 0.49382 0.38995 0.54146 0.0
C1680 C 0.48142 0.40615 0.54482 0.0
H1681 H 0.41619 0.48038 0.5208 0.0
H1682 H 0.44583 0.46654 0.53007 0.0
H1683 H 0.46339 0.44175 0.51939 0.0
H1684 H 0.48865 0.34381 0.5315 0.0
H1685 H 0.47197 0.36954 0.54623 0.0
C1686 C 0.21645 0.67087 0.69981 0.0
C1687 C 0.20588 0.65472 0.69642 0.0
C1688 C 0.21024 0.68825 0.69352 0.0
C1689 C 0.17057 0.71206 0.6684 0.0
H1690 H 0.17423 0.74558 0.71076 0.0
C1691 C 0.11012 0.75108 0.69995 0.0
C1692 C 0.11306 0.76733 0.71049 0.0
C1693 C 0.12473 0.74301 0.68997 0.0
C1694 C 0.17339 0.73679 0.69846 0.0
H1695 H 0.1814 0.64369 0.68262 0.0
H1696 H 0.16988 0.67403 0.67258 0.0
H1697 H 0.19523 0.71945 0.70849 0.0
H1698 H 0.13297 0.78897 0.71752 0.0
H1699 H 0.15881 0.77466 0.70021 0.0
H1700 H 0.14741 0.72877 0.65946 0.0
C1701 C 0.18327 0.67344 0.67953 0.0
C1702 C 0.18553 0.72165 0.69712 0.0
C1703 C 0.18978 0.65598 0.6854 0.0
C1704 C 0.13037 0.77643 0.70946 0.0
C1705 C 0.14515 0.7682 0.69963 0.0
C1706 C 0.15825 0.72717 0.66986 0.0
C1707 C 0.19298 0.68991 0.68429 0.0
C1708 C 0.18364 0.70848 0.68263 0.0
C1709 C 0.14268 0.7509 0.69057 0.0
C1710 C 0.15892 0.73908 0.68547 0.0
H1711 H 0.22912 0.67016 0.70803 0.0
H1712 H 0.21845 0.70049 0.69689 0.0
H1713 H 0.16905 0.70256 0.65673 0.0
H1714 H 0.09682 0.74387 0.70048 0.0
H1715 H 0.12234 0.72963 0.68331 0.0
C1716 C 0.50207 0.86361 0.97221 0.0
C1717 C 0.48388 0.86856 0.97746 0.0
C1718 C 0.51354 0.87649 0.96319 0.0
C1719 C 0.53431 0.90684 0.9413 0.0
H1720 H 0.54094 0.94538 0.97867 0.0
C1721 C 0.59167 0.96402 0.97203 0.0
C1722 C 0.60762 0.95323 0.96865 0.0
C1723 C 0.5742 0.95789 0.96592 0.0
C1724 C 0.53917 0.93524 0.96761 0.0
H1725 H 0.4629 0.8903 0.97657 0.0
H1726 H 0.48336 0.91326 0.96138 0.0
H1727 H 0.5131 0.92642 0.97912 0.0
H1728 H 0.61824 0.92815 0.95561 0.0
H1729 H 0.58779 0.91662 0.9462 0.0
H1730 H 0.56052 0.91539 0.9299 0.0
C1731 C 0.48852 0.89926 0.96385 0.0
C1732 C 0.52308 0.9243 0.96794 0.0
C1733 C 0.47686 0.88616 0.97249 0.0
C1734 C 0.60605 0.93669 0.95832 0.0
C1735 C 0.58852 0.93022 0.95276 0.0
C1736 C 0.55025 0.91811 0.94065 0.0
C1737 C 0.50715 0.89469 0.9597 0.0
C1738 C 0.52097 0.9094 0.95542 0.0
C1739 C 0.57223 0.94044 0.95699 0.0
C1740 C 0.55341 0.93177 0.95448 0.0
H1741 H 0.50774 0.85009 0.97595 0.0
H1742 H 0.5279 0.87269 0.96038 0.0
H1743 H 0.53289 0.89547 0.9314 0.0
H1744 H 0.59269 0.97702 0.97974 0.0
H1745 H 0.56218 0.96655 0.96888 0.0
C1746 C 0.89818 0.04558 0.45177 0.0
C1747 C 0.89965 0.03425 0.46774 0.0
C1748 C 0.91386 0.05483 0.44474 0.0
C1749 C 0.96531 0.05952 0.44766 0.0
H1750 H 0.95443 0.11236 0.45123 0.0
C1751 C 0.01838 0.1126 0.47414 0.0
C1752 C 0.01429 0.13166 0.47251 0.0
C1753 C 0.00711 0.09938 0.46524 0.0
C1754 C 0.95795 0.09777 0.44946 0.0
H1755 H 0.91903 0.02224 0.48768 0.0
H1756 H 0.94635 0.03839 0.47537 0.0
H1757 H 0.92915 0.09027 0.45053 0.0
H1758 H 0.99731 0.15217 0.45837 0.0
H1759 H 0.97893 0.12931 0.44116 0.0
H1760 H 0.99421 0.06701 0.44691 0.0
C1761 C 0.93308 0.04018 0.46834 0.0
C1762 C 0.94327 0.08503 0.44917 0.0
C1763 C 0.91738 0.0311 0.47552 0.0
C1764 C 0.00055 0.13747 0.45991 0.0
C1765 C 0.98983 0.1243 0.45034 0.0
C1766 C 0.98009 0.07233 0.44754 0.0
C1767 C 0.93133 0.05272 0.45337 0.0
C1768 C 0.9468 0.06577 0.44909 0.0
C1769 C 0.99193 0.10508 0.45406 0.0
C1770 C 0.97664 0.09164 0.44936 0.0
H1771 H 0.88475 0.0482 0.44536 0.0
H1772 H 0.91216 0.06436 0.43311 0.0
H1773 H 0.96838 0.0447 0.44739 0.0
H1774 H 0.02892 0.10785 0.48388 0.0
H1775 H 0.00934 0.08482 0.46859 0.0
loop_
_geom_bond_atom_site_label_1
_geom_bond_atom_site_label_2
_geom_bond_distance
_geom_bond_site_symmetry_2
_ccdc_geom_bond_type
Co0 O1 2.216 . S
Co0 O2 2.091 . S
Co0 O4 2.004 . S
Co0 O10 2.021 . S
Co0 O12 2.137 . S
Co0 O13 2.244 . S
O1 Co0 2.216 . S
O1 C8 1.247 . S
O2 Co0 2.091 . S
O2 C8 1.261 . S
C3 O12 1.247 . S
C3 O13 1.272 . S
O4 Co0 2.004 . S
O4 C9 1.259 . S
Co5 O6 2.061 . S
Co5 O11 2.052 . S
Co5 O13 2.135 . S
O6 Co5 2.061 . S
O6 C9 1.235 . S
C7 O10 1.238 . S
C7 O11 1.241 . S
C8 O1 1.247 . S
C8 O2 1.261 . S
C9 O4 1.259 . S
C9 O6 1.235 . S
O10 Co0 2.021 . S
O10 C7 1.238 . S
O11 Co5 2.052 . S
O11 C7 1.241 . S
O12 Co0 2.137 . S
O12 C3 1.247 . S
O13 Co0 2.244 . S
O13 C3 1.272 . S
O13 Co5 2.135 . S
Co14 O15 2.216 . S
Co14 O16 2.091 . S
Co14 O18 2.004 . S
Co14 O24 2.021 . S
Co14 O26 2.137 . S
Co14 O27 2.244 . S
O15 Co14 2.216 . S
O15 C22 1.247 . S
O16 Co14 2.091 . S
O16 C22 1.261 . S
C17 O26 1.247 . S
C17 O27 1.272 . S
O18 Co14 2.004 . S
O18 C23 1.259 . S
Co19 O20 2.061 . S
Co19 O25 2.052 . S
Co19 O27 2.135 . S
O20 Co19 2.061 . S
O20 C23 1.235 . S
C21 O24 1.238 . S
C21 O25 1.241 . S
C22 O15 1.247 . S
C22 O16 1.261 . S
C23 O18 1.259 . S
C23 O20 1.235 . S
O24 Co14 2.021 . S
O24 C21 1.238 . S
O25 Co19 2.052 . S
O25 C21 1.241 . S
O26 Co14 2.137 . S
O26 C17 1.247 . S
O27 Co14 2.244 . S
O27 C17 1.272 . S
O27 Co19 2.135 . S
Co28 O29 2.216 . S
Co28 O30 2.091 . S
Co28 O32 2.004 . S
Co28 O38 2.021 . S
Co28 O40 2.137 . S
Co28 O41 2.244 . S
O29 Co28 2.216 . S
O29 C36 1.247 . S
O30 Co28 2.091 . S
O30 C36 1.261 . S
C31 O40 1.247 . S
C31 O41 1.272 . S
O32 Co28 2.004 . S
O32 C37 1.259 . S
Co33 O34 2.061 . S
Co33 O39 2.052 . S
Co33 O41 2.135 . S
O34 Co33 2.061 . S
O34 C37 1.235 . S
C35 O38 1.238 . S
C35 O39 1.241 . S
C36 O29 1.247 . S
C36 O30 1.261 . S
C37 O32 1.259 . S
C37 O34 1.235 . S
O38 Co28 2.021 . S
O38 C35 1.238 . S
O39 Co33 2.052 . S
O39 C35 1.241 . S
O40 Co28 2.137 . S
O40 C31 1.247 . S
O41 Co28 2.244 . S
O41 C31 1.272 . S
O41 Co33 2.135 . S
Co42 O43 2.216 . S
Co42 O44 2.091 . S
Co42 O46 2.004 . S
Co42 O52 2.021 . S
Co42 O54 2.137 . S
Co42 O55 2.244 . S
O43 Co42 2.216 . S
O43 C50 1.247 . S
O44 Co42 2.091 . S
O44 C50 1.261 . S
C45 O54 1.247 . S
C45 O55 1.272 . S
O46 Co42 2.004 . S
O46 C51 1.259 . S
Co47 O48 2.061 . S
Co47 O53 2.052 . S
Co47 O55 2.135 . S
O48 Co47 2.061 . S
O48 C51 1.235 . S
C49 O52 1.238 . S
C49 O53 1.241 . S
C50 O43 1.247 . S
C50 O44 1.261 . S
C51 O46 1.259 . S
C51 O48 1.235 . S
O52 Co42 2.021 . S
O52 C49 1.238 . S
O53 Co47 2.052 . S
O53 C49 1.241 . S
O54 Co42 2.137 . S
O54 C45 1.247 . S
O55 Co42 2.244 . S
O55 C45 1.272 . S
O55 Co47 2.135 . S
Co56 O57 2.216 . S
Co56 O58 2.091 . S
Co56 O60 2.004 . S
Co56 O66 2.021 . S
Co56 O68 2.137 . S
Co56 O69 2.244 . S
O57 Co56 2.216 . S
O57 C64 1.247 . S
O58 Co56 2.091 . S
O58 C64 1.261 . S
C59 O68 1.247 . S
C59 O69 1.272 . S
O60 Co56 2.004 . S
O60 C65 1.259 . S
Co61 O62 2.061 . S
Co61 O67 2.052 . S
Co61 O69 2.135 . S
O62 Co61 2.061 . S
O62 C65 1.235 . S
C63 O66 1.238 . S
C63 O67 1.241 . S
C64 O57 1.247 . S
C64 O58 1.261 . S
C65 O60 1.259 . S
C65 O62 1.235 . S
O66 Co56 2.021 . S
O66 C63 1.238 . S
O67 Co61 2.052 . S
O67 C63 1.241 . S
O68 Co56 2.137 . S
O68 C59 1.247 . S
O69 Co56 2.244 . S
O69 C59 1.272 . S
O69 Co61 2.135 . S
Co70 O71 2.216 . S
Co70 O72 2.091 . S
Co70 O74 2.004 . S
Co70 O80 2.021 . S
Co70 O82 2.137 . S
Co70 O83 2.244 . S
O71 Co70 2.216 . S
O71 C78 1.247 . S
O72 Co70 2.091 . S
O72 C78 1.261 . S
C73 O82 1.247 . S
C73 O83 1.272 . S
O74 Co70 2.004 . S
O74 C79 1.259 . S
Co75 O76 2.061 . S
Co75 O81 2.052 . S
Co75 O83 2.135 . S
O76 Co75 2.061 . S
O76 C79 1.235 . S
C77 O80 1.238 . S
C77 O81 1.241 . S
C78 O71 1.247 . S
C78 O72 1.261 . S
C79 O74 1.259 . S
C79 O76 1.235 . S
O80 Co70 2.021 . S
O80 C77 1.238 . S
O81 Co75 2.052 . S
O81 C77 1.241 . S
O82 Co70 2.137 . S
O82 C73 1.247 . S
O83 Co70 2.244 . S
O83 C73 1.272 . S
O83 Co75 2.135 . S
Co84 O85 2.216 . S
Co84 O86 2.091 . S
Co84 O88 2.004 . S
Co84 O94 2.021 . S
Co84 O96 2.137 . S
Co84 O97 2.244 . S
O85 Co84 2.216 . S
O85 C92 1.247 . S
O86 Co84 2.091 . S
O86 C92 1.261 . S
C87 O96 1.247 . S
C87 O97 1.272 . S
O88 Co84 2.004 . S
O88 C93 1.259 . S
Co89 O90 2.061 . S
Co89 O95 2.052 . S
Co89 O97 2.135 . S
O90 Co89 2.061 . S
O90 C93 1.235 . S
C91 O94 1.238 . S
C91 O95 1.241 . S
C92 O85 1.247 . S
C92 O86 1.261 . S
C93 O88 1.259 . S
C93 O90 1.235 . S
O94 Co84 2.021 . S
O94 C91 1.238 . S
O95 Co89 2.052 . S
O95 C91 1.241 . S
O96 Co84 2.137 . S
O96 C87 1.247 . S
O97 Co84 2.244 . S
O97 C87 1.272 . S
O97 Co89 2.135 . S
Co98 O99 2.216 . S
Co98 O100 2.091 . S
Co98 O102 2.004 . S
Co98 O108 2.021 . S
Co98 O110 2.137 . S
Co98 O111 2.244 . S
O99 Co98 2.216 . S
O99 C106 1.247 . S
O100 Co98 2.091 . S
O100 C106 1.261 . S
C101 O110 1.247 . S
C101 O111 1.272 . S
O102 Co98 2.004 . S
O102 C107 1.259 . S
Co103 O104 2.061 . S
Co103 O109 2.052 . S
Co103 O111 2.135 . S
O104 Co103 2.061 . S
O104 C107 1.235 . S
C105 O108 1.238 . S
C105 O109 1.241 . S
C106 O99 1.247 . S
C106 O100 1.261 . S
C107 O102 1.259 . S
C107 O104 1.235 . S
O108 Co98 2.021 . S
O108 C105 1.238 . S
O109 Co103 2.052 . S
O109 C105 1.241 . S
O110 Co98 2.137 . S
O110 C101 1.247 . S
O111 Co98 2.244 . S
O111 C101 1.272 . S
O111 Co103 2.135 . S
Co112 O113 2.216 . S
Co112 O114 2.091 . S
Co112 O116 2.004 . S
Co112 O122 2.021 . S
Co112 O124 2.137 . S
Co112 O125 2.244 . S
O113 Co112 2.216 . S
O113 C120 1.247 . S
O114 Co112 2.091 . S
O114 C120 1.261 . S
C115 O124 1.247 . S
C115 O125 1.272 . S
O116 Co112 2.004 . S
O116 C121 1.259 . S
Co117 O118 2.061 . S
Co117 O123 2.052 . S
Co117 O125 2.135 . S
O118 Co117 2.061 . S
O118 C121 1.235 . S
C119 O122 1.238 . S
C119 O123 1.241 . S
C120 O113 1.247 . S
C120 O114 1.261 . S
C121 O116 1.259 . S
C121 O118 1.235 . S
O122 Co112 2.021 . S
O122 C119 1.238 . S
O123 Co117 2.052 . S
O123 C119 1.241 . S
O124 Co112 2.137 . S
O124 C115 1.247 . S
O125 Co112 2.244 . S
O125 C115 1.272 . S
O125 Co117 2.135 . S
Co126 O127 2.216 . S
Co126 O128 2.091 . S
Co126 O130 2.004 . S
Co126 O136 2.021 . S
Co126 O138 2.137 . S
Co126 O139 2.244 . S
O127 Co126 2.216 . S
O127 C134 1.247 . S
O128 Co126 2.091 . S
O128 C134 1.261 . S
C129 O138 1.247 . S
C129 O139 1.272 . S
O130 Co126 2.004 . S
O130 C135 1.259 . S
Co131 O132 2.061 . S
Co131 O137 2.052 . S
Co131 O139 2.135 . S
O132 Co131 2.061 . S
O132 C135 1.235 . S
C133 O136 1.238 . S
C133 O137 1.241 . S
C134 O127 1.247 . S
C134 O128 1.261 . S
C135 O130 1.259 . S
C135 O132 1.235 . S
O136 Co126 2.021 . S
O136 C133 1.238 . S
O137 Co131 2.052 . S
O137 C133 1.241 . S
O138 Co126 2.137 . S
O138 C129 1.247 . S
O139 Co126 2.244 . S
O139 C129 1.272 . S
O139 Co131 2.135 . S
Co140 O141 2.216 . S
Co140 O142 2.091 . S
Co140 O144 2.004 . S
Co140 O150 2.021 . S
Co140 O152 2.137 . S
Co140 O153 2.244 . S
O141 Co140 2.216 . S
O141 C148 1.247 . S
O142 Co140 2.091 . S
O142 C148 1.261 . S
C143 O152 1.247 . S
C143 O153 1.272 . S
O144 Co140 2.004 . S
O144 C149 1.259 . S
Co145 O146 2.061 . S
Co145 O151 2.052 . S
Co145 O153 2.135 . S
O146 Co145 2.061 . S
O146 C149 1.235 . S
C147 O150 1.238 . S
C147 O151 1.241 . S
C148 O141 1.247 . S
C148 O142 1.261 . S
C149 O144 1.259 . S
C149 O146 1.235 . S
O150 Co140 2.021 . S
O150 C147 1.238 . S
O151 Co145 2.052 . S
O151 C147 1.241 . S
O152 Co140 2.137 . S
O152 C143 1.247 . S
O153 Co140 2.244 . S
O153 C143 1.272 . S
O153 Co145 2.135 . S
Co154 O155 2.216 . S
Co154 O156 2.091 . S
Co154 O158 2.004 . S
Co154 O164 2.021 . S
Co154 O166 2.137 . S
Co154 O167 2.244 . S
O155 Co154 2.216 . S
O155 C162 1.247 . S
O156 Co154 2.091 . S
O156 C162 1.261 . S
C157 O166 1.247 . S
C157 O167 1.272 . S
O158 Co154 2.004 . S
O158 C163 1.259 . S
Co159 O160 2.061 . S
Co159 O165 2.052 . S
Co159 O167 2.135 . S
O160 Co159 2.061 . S
O160 C163 1.235 . S
C161 O164 1.238 . S
C161 O165 1.241 . S
C162 O155 1.247 . S
C162 O156 1.261 . S
C163 O158 1.259 . S
C163 O160 1.235 . S
O164 Co154 2.021 . S
O164 C161 1.238 . S
O165 Co159 2.052 . S
O165 C161 1.241 . S
O166 Co154 2.137 . S
O166 C157 1.247 . S
O167 Co154 2.244 . S
O167 C157 1.272 . S
O167 Co159 2.135 . S
Co168 O169 2.216 . S
Co168 O170 2.091 . S
Co168 O172 2.004 . S
Co168 O178 2.021 . S
Co168 O180 2.137 . S
Co168 O181 2.244 . S
O169 Co168 2.216 . S
O169 C176 1.247 . S
O170 Co168 2.091 . S
O170 C176 1.261 . S
C171 O180 1.247 . S
C171 O181 1.272 . S
O172 Co168 2.004 . S
O172 C177 1.259 . S
Co173 O174 2.061 . S
Co173 O179 2.052 . S
Co173 O181 2.135 . S
O174 Co173 2.061 . S
O174 C177 1.235 . S
C175 O178 1.238 . S
C175 O179 1.241 . S
C176 O169 1.247 . S
C176 O170 1.261 . S
C177 O172 1.259 . S
C177 O174 1.235 . S
O178 Co168 2.021 . S
O178 C175 1.238 . S
O179 Co173 2.052 . S
O179 C175 1.241 . S
O180 Co168 2.137 . S
O180 C171 1.247 . S
O181 Co168 2.244 . S
O181 C171 1.272 . S
O181 Co173 2.135 . S
Co182 O183 2.216 . S
Co182 O184 2.091 . S
Co182 O186 2.004 . S
Co182 O192 2.021 . S
Co182 O194 2.137 . S
Co182 O195 2.244 . S
O183 Co182 2.216 . S
O183 C190 1.247 . S
O184 Co182 2.091 . S
O184 C190 1.261 . S
C185 O194 1.247 . S
C185 O195 1.272 . S
O186 Co182 2.004 . S
O186 C191 1.259 . S
Co187 O188 2.061 . S
Co187 O193 2.052 . S
Co187 O195 2.135 . S
O188 Co187 2.061 . S
O188 C191 1.235 . S
C189 O192 1.238 . S
C189 O193 1.241 . S
C190 O183 1.247 . S
C190 O184 1.261 . S
C191 O186 1.259 . S
C191 O188 1.235 . S
O192 Co182 2.021 . S
O192 C189 1.238 . S
O193 Co187 2.052 . S
O193 C189 1.241 . S
O194 Co182 2.137 . S
O194 C185 1.247 . S
O195 Co182 2.244 . S
O195 C185 1.272 . S
O195 Co187 2.135 . S
Co196 O197 2.216 . S
Co196 O198 2.091 . S
Co196 O200 2.004 . S
Co196 O206 2.021 . S
Co196 O208 2.137 . S
Co196 O209 2.244 . S
O197 Co196 2.216 . S
O197 C204 1.247 . S
O198 Co196 2.091 . S
O198 C204 1.261 . S
C199 O208 1.247 . S
C199 O209 1.272 . S
O200 Co196 2.004 . S
O200 C205 1.259 . S
Co201 O202 2.061 . S
Co201 O207 2.052 . S
Co201 O209 2.135 . S
O202 Co201 2.061 . S
O202 C205 1.235 . S
C203 O206 1.238 . S
C203 O207 1.241 . S
C204 O197 1.247 . S
C204 O198 1.261 . S
C205 O200 1.259 . S
C205 O202 1.235 . S
O206 Co196 2.021 . S
O206 C203 1.238 . S
O207 Co201 2.052 . S
O207 C203 1.241 . S
O208 Co196 2.137 . S
O208 C199 1.247 . S
O209 Co196 2.244 . S
O209 C199 1.272 . S
O209 Co201 2.135 . S
Co210 O211 2.216 . S
Co210 O212 2.091 . S
Co210 O214 2.004 . S
Co210 O220 2.021 . S
Co210 O222 2.137 . S
Co210 O223 2.244 . S
O211 Co210 2.216 . S
O211 C218 1.247 . S
O212 Co210 2.091 . S
O212 C218 1.261 . S
C213 O222 1.247 . S
C213 O223 1.272 . S
O214 Co210 2.004 . S
O214 C219 1.259 . S
Co215 O216 2.061 . S
Co215 O221 2.052 . S
Co215 O223 2.135 . S
O216 Co215 2.061 . S
O216 C219 1.235 . S
C217 O220 1.238 . S
C217 O221 1.241 . S
C218 O211 1.247 . S
C218 O212 1.261 . S
C219 O214 1.259 . S
C219 O216 1.235 . S
O220 Co210 2.021 . S
O220 C217 1.238 . S
O221 Co215 2.052 . S
O221 C217 1.241 . S
O222 Co210 2.137 . S
O222 C213 1.247 . S
O223 Co210 2.244 . S
O223 C213 1.272 . S
O223 Co215 2.135 . S
Co224 O225 2.216 . S
Co224 O226 2.091 . S
Co224 O228 2.004 . S
Co224 O234 2.021 . S
Co224 O236 2.137 . S
Co224 O237 2.244 . S
O225 Co224 2.216 . S
O225 C232 1.247 . S
O226 Co224 2.091 . S
O226 C232 1.261 . S
C227 O236 1.247 . S
C227 O237 1.272 . S
O228 Co224 2.004 . S
O228 C233 1.259 . S
Co229 O230 2.061 . S
Co229 O235 2.052 . S
Co229 O237 2.135 . S
O230 Co229 2.061 . S
O230 C233 1.235 . S
C231 O234 1.238 . S
C231 O235 1.241 . S
C232 O225 1.247 . S
C232 O226 1.261 . S
C233 O228 1.259 . S
C233 O230 1.235 . S
O234 Co224 2.021 . S
O234 C231 1.238 . S
O235 Co229 2.052 . S
O235 C231 1.241 . S
O236 Co224 2.137 . S
O236 C227 1.247 . S
O237 Co224 2.244 . S
O237 C227 1.272 . S
O237 Co229 2.135 . S
Co238 O239 2.216 . S
Co238 O240 2.091 . S
Co238 O242 2.004 . S
Co238 O248 2.021 . S
Co238 O250 2.137 . S
Co238 O251 2.244 . S
O239 Co238 2.216 . S
O239 C246 1.247 . S
O240 Co238 2.091 . S
O240 C246 1.261 . S
C241 O250 1.247 . S
C241 O251 1.272 . S
O242 Co238 2.004 . S
O242 C247 1.259 . S
Co243 O244 2.061 . S
Co243 O249 2.052 . S
Co243 O251 2.135 . S
O244 Co243 2.061 . S
O244 C247 1.235 . S
C245 O248 1.238 . S
C245 O249 1.241 . S
C246 O239 1.247 . S
C246 O240 1.261 . S
C247 O242 1.259 . S
C247 O244 1.235 . S
O248 Co238 2.021 . S
O248 C245 1.238 . S
O249 Co243 2.052 . S
O249 C245 1.241 . S
O250 Co238 2.137 . S
O250 C241 1.247 . S
O251 Co238 2.244 . S
O251 C241 1.272 . S
O251 Co243 2.135 . S
Co252 O253 2.216 . S
Co252 O254 2.091 . S
Co252 O256 2.004 . S
Co252 O262 2.021 . S
Co252 O264 2.137 . S
Co252 O265 2.244 . S
O253 Co252 2.216 . S
O253 C260 1.247 . S
O254 Co252 2.091 . S
O254 C260 1.261 . S
C255 O264 1.247 . S
C255 O265 1.272 . S
O256 Co252 2.004 . S
O256 C261 1.259 . S
Co257 O258 2.061 . S
Co257 O263 2.052 . S
Co257 O265 2.135 . S
O258 Co257 2.061 . S
O258 C261 1.235 . S
C259 O262 1.238 . S
C259 O263 1.241 . S
C260 O253 1.247 . S
C260 O254 1.261 . S
C261 O256 1.259 . S
C261 O258 1.235 . S
O262 Co252 2.021 . S
O262 C259 1.238 . S
O263 Co257 2.052 . S
O263 C259 1.241 . S
O264 Co252 2.137 . S
O264 C255 1.247 . S
O265 Co252 2.244 . S
O265 C255 1.272 . S
O265 Co257 2.135 . S
Co266 O267 2.216 . S
Co266 O268 2.091 . S
Co266 O270 2.004 . S
Co266 O276 2.021 . S
Co266 O278 2.137 . S
Co266 O279 2.244 . S
O267 Co266 2.216 . S
O267 C274 1.247 . S
O268 Co266 2.091 . S
O268 C274 1.261 . S
C269 O278 1.247 . S
C269 O279 1.272 . S
O270 Co266 2.004 . S
O270 C275 1.259 . S
Co271 O272 2.061 . S
Co271 O277 2.052 . S
Co271 O279 2.135 . S
O272 Co271 2.061 . S
O272 C275 1.235 . S
C273 O276 1.238 . S
C273 O277 1.241 . S
C274 O267 1.247 . S
C274 O268 1.261 . S
C275 O270 1.259 . S
C275 O272 1.235 . S
O276 Co266 2.021 . S
O276 C273 1.238 . S
O277 Co271 2.052 . S
O277 C273 1.241 . S
O278 Co266 2.137 . S
O278 C269 1.247 . S
O279 Co266 2.244 . S
O279 C269 1.272 . S
O279 Co271 2.135 . S
Co280 O281 2.216 . S
Co280 O282 2.091 . S
Co280 O284 2.004 . S
Co280 O290 2.021 . S
Co280 O292 2.137 . S
Co280 O293 2.244 . S
O281 Co280 2.216 . S
O281 C288 1.247 . S
O282 Co280 2.091 . S
O282 C288 1.261 . S
C283 O292 1.247 . S
C283 O293 1.272 . S
O284 Co280 2.004 . S
O284 C289 1.259 . S
Co285 O286 2.061 . S
Co285 O291 2.052 . S
Co285 O293 2.135 . S
O286 Co285 2.061 . S
O286 C289 1.235 . S
C287 O290 1.238 . S
C287 O291 1.241 . S
C288 O281 1.247 . S
C288 O282 1.261 . S
C289 O284 1.259 . S
C289 O286 1.235 . S
O290 Co280 2.021 . S
O290 C287 1.238 . S
O291 Co285 2.052 . S
O291 C287 1.241 . S
O292 Co280 2.137 . S
O292 C283 1.247 . S
O293 Co280 2.244 . S
O293 C283 1.272 . S
O293 Co285 2.135 . S
Co294 O295 2.216 . S
Co294 O296 2.091 . S
Co294 O298 2.004 . S
Co294 O304 2.021 . S
Co294 O306 2.137 . S
Co294 O307 2.244 . S
O295 Co294 2.216 . S
O295 C302 1.247 . S
O296 Co294 2.091 . S
O296 C302 1.261 . S
C297 O306 1.247 . S
C297 O307 1.272 . S
O298 Co294 2.004 . S
O298 C303 1.259 . S
Co299 O300 2.061 . S
Co299 O305 2.052 . S
Co299 O307 2.135 . S
O300 Co299 2.061 . S
O300 C303 1.235 . S
C301 O304 1.238 . S
C301 O305 1.241 . S
C302 O295 1.247 . S
C302 O296 1.261 . S
C303 O298 1.259 . S
C303 O300 1.235 . S
O304 Co294 2.021 . S
O304 C301 1.238 . S
O305 Co299 2.052 . S
O305 C301 1.241 . S
O306 Co294 2.137 . S
O306 C297 1.247 . S
O307 Co294 2.244 . S
O307 C297 1.272 . S
O307 Co299 2.135 . S
Co308 O309 2.216 . S
Co308 O310 2.091 . S
Co308 O312 2.004 . S
Co308 O318 2.021 . S
Co308 O320 2.137 . S
Co308 O321 2.244 . S
O309 Co308 2.216 . S
O309 C316 1.247 . S
O310 Co308 2.091 . S
O310 C316 1.261 . S
C311 O320 1.247 . S
C311 O321 1.272 . S
O312 Co308 2.004 . S
O312 C317 1.259 . S
Co313 O314 2.061 . S
Co313 O319 2.052 . S
Co313 O321 2.135 . S
O314 Co313 2.061 . S
O314 C317 1.235 . S
C315 O318 1.238 . S
C315 O319 1.241 . S
C316 O309 1.247 . S
C316 O310 1.261 . S
C317 O312 1.259 . S
C317 O314 1.235 . S
O318 Co308 2.021 . S
O318 C315 1.238 . S
O319 Co313 2.052 . S
O319 C315 1.241 . S
O320 Co308 2.137 . S
O320 C311 1.247 . S
O321 Co308 2.244 . S
O321 C311 1.272 . S
O321 Co313 2.135 . S
Co322 O323 2.216 . S
Co322 O324 2.091 . S
Co322 O326 2.004 . S
Co322 O332 2.021 . S
Co322 O334 2.137 . S
Co322 O335 2.244 . S
O323 Co322 2.216 . S
O323 C330 1.247 . S
O324 Co322 2.091 . S
O324 C330 1.261 . S
C325 O334 1.247 . S
C325 O335 1.272 . S
O326 Co322 2.004 . S
O326 C331 1.259 . S
Co327 O328 2.061 . S
Co327 O333 2.052 . S
Co327 O335 2.135 . S
O328 Co327 2.061 . S
O328 C331 1.235 . S
C329 O332 1.238 . S
C329 O333 1.241 . S
C330 O323 1.247 . S
C330 O324 1.261 . S
C331 O326 1.259 . S
C331 O328 1.235 . S
O332 Co322 2.021 . S
O332 C329 1.238 . S
O333 Co327 2.052 . S
O333 C329 1.241 . S
O334 Co322 2.137 . S
O334 C325 1.247 . S
O335 Co322 2.244 . S
O335 C325 1.272 . S
O335 Co327 2.135 . S
C336 C337 1.349 . S
C336 C338 1.327 . S
C336 H361 0.950 . S
C337 C336 1.349 . S
C337 C353 1.349 . S
C338 C336 1.327 . S
C338 C357 1.429 . S
C338 H362 0.950 . S
C339 C356 1.574 . S
C339 C358 1.368 . S
C339 H363 0.949 . S
H340 C344 0.949 . S
C341 C342 1.349 . S
C341 C343 1.327 . S
C341 H364 0.950 . S
C342 C341 1.349 . S
C342 C354 1.349 . S
C343 C341 1.327 . S
C343 C359 1.429 . S
C343 H365 0.950 . S
C344 H340 0.949 . S
C344 C352 1.574 . S
C344 C360 1.368 . S
H345 C353 0.950 . S
H346 C351 0.950 . S
H347 C352 0.949 . S
H348 C354 0.950 . S
H349 C355 0.950 . S
H350 C356 0.949 . S
C351 H346 0.950 . S
C351 C353 1.327 . S
C351 C357 1.429 . S
C352 C344 1.574 . S
C352 H347 0.949 . S
C352 C358 1.368 . S
C353 C337 1.349 . S
C353 H345 0.950 . S
C353 C351 1.327 . S
C354 C342 1.349 . S
C354 H348 0.950 . S
C354 C355 1.327 . S
C355 H349 0.950 . S
C355 C354 1.327 . S
C355 C359 1.429 . S
C356 C339 1.574 . S
C356 H350 0.949 . S
C356 C360 1.368 . S
C357 C338 1.429 . S
C357 C351 1.429 . S
C357 C358 1.523 . S
C358 C339 1.368 . S
C358 C352 1.368 . S
C358 C357 1.523 . S
C359 C343 1.429 . S
C359 C355 1.429 . S
C359 C360 1.523 . S
C360 C344 1.368 . S
C360 C356 1.368 . S
C360 C359 1.523 . S
H361 C336 0.950 . S
H362 C338 0.950 . S
H363 C339 0.949 . S
H364 C341 0.950 . S
H365 C343 0.950 . S
C366 C367 1.349 . S
C366 C368 1.327 . S
C366 H391 0.950 . S
C367 C366 1.349 . S
C367 C383 1.349 . S
C368 C366 1.327 . S
C368 C387 1.416 1_655 S
C368 H392 0.950 . S
C369 C386 1.574 . S
C369 C388 1.368 . S
C369 H393 0.949 . S
H370 C374 0.949 . S
C371 C372 1.349 . S
C371 C373 1.327 . S
C371 H394 0.950 . S
C372 C371 1.349 . S
C372 C384 1.349 . S
C373 C371 1.327 . S
C373 C389 1.429 . S
C373 H395 0.950 . S
C374 H370 0.949 . S
C374 C382 1.574 . S
C374 C390 1.368 . S
H375 C383 0.950 . S
H376 C381 0.950 . S
H377 C382 0.949 . S
H378 C384 0.950 . S
H379 C385 0.950 . S
H380 C386 0.949 . S
C381 H376 0.950 . S
C381 C383 1.327 . S
C381 C387 1.416 1_655 S
C382 C374 1.574 . S
C382 H377 0.949 . S
C382 C388 1.368 . S
C383 C367 1.349 . S
C383 H375 0.950 . S
C383 C381 1.327 . S
C384 C372 1.349 . S
C384 H378 0.950 . S
C384 C385 1.327 . S
C385 H379 0.950 . S
C385 C384 1.327 . S
C385 C389 1.429 . S
C386 C369 1.574 . S
C386 H380 0.949 . S
C386 C390 1.368 . S
C387 C368 1.416 1_455 S
C387 C381 1.416 1_455 S
C387 C388 1.548 . S
C388 C369 1.368 . S
C388 C382 1.368 . S
C388 C387 1.548 . S
C389 C373 1.429 . S
C389 C385 1.429 . S
C389 C390 1.523 . S
C390 C374 1.368 . S
C390 C386 1.368 . S
C390 C389 1.523 . S
H391 C366 0.950 . S
H392 C368 0.950 . S
H393 C369 0.949 . S
H394 C371 0.950 . S
H395 C373 0.950 . S
C396 C397 1.349 . S
C396 C398 1.327 . S
C396 H421 0.950 . S
C397 C396 1.349 . S
C397 C413 1.349 . S
C398 C396 1.327 . S
C398 C417 1.429 . S
C398 H422 0.950 . S
C399 C416 1.574 . S
C399 C418 1.368 . S
C399 H423 0.949 . S
H400 C404 0.949 . S
C401 C402 1.349 . S
C401 C403 1.289 1_554 S
C401 H424 0.950 . S
C402 C401 1.349 . S
C402 C414 1.349 . S
C403 C401 1.289 1_556 S
C403 C419 1.428 . S
C403 H425 0.992 . S
C404 H400 0.949 . S
C404 C412 1.574 . S
C404 C420 1.368 . S
H405 C413 0.950 . S
H406 C411 0.950 . S
H407 C412 0.949 . S
H408 C414 0.950 . S
H409 C415 0.950 . S
H410 C416 0.949 . S
C411 H406 0.950 . S
C411 C413 1.327 . S
C411 C417 1.429 . S
C412 C404 1.574 . S
C412 H407 0.949 . S
C412 C418 1.368 . S
C413 C397 1.349 . S
C413 H405 0.950 . S
C413 C411 1.327 . S
C414 C402 1.349 . S
C414 H408 0.950 . S
C414 C415 1.327 . S
C415 H409 0.950 . S
C415 C414 1.327 . S
C415 C419 1.402 1_554 S
C416 C399 1.574 . S
C416 H410 0.949 . S
C416 C420 1.368 . S
C417 C398 1.429 . S
C417 C411 1.429 . S
C417 C418 1.523 . S
C418 C399 1.368 . S
C418 C412 1.368 . S
C418 C417 1.523 . S
C419 C403 1.428 . S
C419 C415 1.402 1_556 S
C419 C420 1.548 . S
C420 C404 1.368 . S
C420 C416 1.368 . S
C420 C419 1.548 . S
H421 C396 0.950 . S
H422 C398 0.950 . S
H423 C399 0.949 . S
H424 C401 0.950 . S
H425 C403 0.992 . S
C426 C427 1.349 . S
C426 C428 1.327 . S
C426 H451 0.950 . S
C427 C426 1.349 . S
C427 C443 1.349 . S
C428 C426 1.327 . S
C428 C447 1.429 . S
C428 H452 0.950 . S
C429 C446 1.574 . S
C429 C448 1.368 . S
C429 H453 0.949 . S
H430 C434 0.949 . S
C431 C432 1.349 . S
C431 C433 1.327 . S
C431 H454 0.950 . S
C432 C431 1.349 . S
C432 C444 1.349 . S
C433 C431 1.327 . S
C433 C449 1.429 . S
C433 H455 0.950 . S
C434 H430 0.949 . S
C434 C442 1.574 . S
C434 C450 1.368 . S
H435 C443 0.950 . S
H436 C441 0.950 . S
H437 C442 0.949 . S
H438 C444 0.950 . S
H439 C445 0.950 . S
H440 C446 0.949 . S
C441 H436 0.950 . S
C441 C443 1.327 . S
C441 C447 1.429 . S
C442 C434 1.574 . S
C442 H437 0.949 . S
C442 C448 1.368 . S
C443 C427 1.349 . S
C443 H435 0.950 . S
C443 C441 1.327 . S
C444 C432 1.349 . S
C444 H438 0.950 . S
C444 C445 1.327 . S
C445 H439 0.950 . S
C445 C444 1.327 . S
C445 C449 1.429 . S
C446 C429 1.574 . S
C446 H440 0.949 . S
C446 C450 1.368 . S
C447 C428 1.429 . S
C447 C441 1.429 . S
C447 C448 1.523 . S
C448 C429 1.368 . S
C448 C442 1.368 . S
C448 C447 1.523 . S
C449 C433 1.429 . S
C449 C445 1.429 . S
C449 C450 1.523 . S
C450 C434 1.368 . S
C450 C446 1.368 . S
C450 C449 1.523 . S
H451 C426 0.950 . S
H452 C428 0.950 . S
H453 C429 0.949 . S
H454 C431 0.950 . S
H455 C433 0.950 . S
C456 C457 1.349 . S
C456 C458 1.327 . S
C456 H481 0.950 . S
C457 C456 1.349 . S
C457 C473 1.349 . S
C458 C456 1.327 . S
C458 C477 1.429 . S
C458 H482 0.950 . S
C459 C476 1.574 . S
C459 C478 1.368 . S
C459 H483 0.949 . S
H460 C464 0.949 . S
C461 C462 1.349 . S
C461 C463 1.327 . S
C461 H484 0.950 . S
C462 C461 1.349 . S
C462 C474 1.349 . S
C463 C461 1.327 . S
C463 C479 1.429 . S
C463 H485 0.950 . S
C464 H460 0.949 . S
C464 C472 1.574 . S
C464 C480 1.368 . S
H465 C473 0.950 . S
H466 C471 0.950 . S
H467 C472 0.949 . S
H468 C474 0.950 . S
H469 C475 0.950 . S
H470 C476 0.949 . S
C471 H466 0.950 . S
C471 C473 1.327 . S
C471 C477 1.429 . S
C472 C464 1.574 . S
C472 H467 0.949 . S
C472 C478 1.368 . S
C473 C457 1.349 . S
C473 H465 0.950 . S
C473 C471 1.327 . S
C474 C462 1.349 . S
C474 H468 0.950 . S
C474 C475 1.327 . S
C475 H469 0.950 . S
C475 C474 1.327 . S
C475 C479 1.429 . S
C476 C459 1.574 . S
C476 H470 0.949 . S
C476 C480 1.368 . S
C477 C458 1.429 . S
C477 C471 1.429 . S
C477 C478 1.523 . S
C478 C459 1.368 . S
C478 C472 1.368 . S
C478 C477 1.523 . S
C479 C463 1.429 . S
C479 C475 1.429 . S
C479 C480 1.523 . S
C480 C464 1.368 . S
C480 C476 1.368 . S
C480 C479 1.523 . S
H481 C456 0.950 . S
H482 C458 0.950 . S
H483 C459 0.949 . S
H484 C461 0.950 . S
H485 C463 0.950 . S
C486 C487 1.349 . S
C486 C488 1.327 . S
C486 H511 0.950 . S
C487 C486 1.349 . S
C487 C503 1.349 . S
C488 C486 1.327 . S
C488 C507 1.429 . S
C488 H512 0.950 . S
C489 C506 1.574 . S
C489 C508 1.368 . S
C489 H513 0.949 . S
H490 C494 0.949 1_455 S
C491 C492 1.349 . S
C491 C493 1.327 1_455 S
C491 H514 0.950 . S
C492 C491 1.349 . S
C492 C504 1.349 . S
C493 C491 1.327 1_655 S
C493 C509 1.435 . S
C493 H515 0.950 . S
C494 H490 0.949 1_655 S
C494 C502 1.574 . S
C494 C510 1.368 . S
H495 C503 0.950 . S
H496 C501 0.950 . S
H497 C502 0.949 . S
H498 C504 0.950 . S
H499 C505 0.950 . S
H500 C506 0.949 . S
C501 H496 0.950 . S
C501 C503 1.327 . S
C501 C507 1.429 . S
C502 C494 1.574 . S
C502 H497 0.949 . S
C502 C508 1.368 . S
C503 C487 1.349 . S
C503 H495 0.950 . S
C503 C501 1.327 . S
C504 C492 1.349 . S
C504 H498 0.950 . S
C504 C505 1.327 . S
C505 H499 0.950 . S
C505 C504 1.327 . S
C505 C509 1.397 1_455 S
C506 C489 1.574 . S
C506 H500 0.949 . S
C506 C510 1.368 . S
C507 C488 1.429 . S
C507 C501 1.429 . S
C507 C508 1.523 . S
C508 C489 1.368 . S
C508 C502 1.368 . S
C508 C507 1.523 . S
C509 C493 1.435 . S
C509 C505 1.397 1_655 S
C509 C510 1.548 . S
C510 C494 1.368 . S
C510 C506 1.368 . S
C510 C509 1.548 . S
H511 C486 0.950 . S
H512 C488 0.950 . S
H513 C489 0.949 . S
H514 C491 0.950 . S
H515 C493 0.950 . S
C516 C517 1.349 . S
C516 C518 1.327 . S
C516 H541 0.950 . S
C517 C516 1.349 . S
C517 C533 1.349 . S
C518 C516 1.327 . S
C518 C537 1.429 . S
C518 H542 0.950 . S
C519 C536 1.574 . S
C519 C538 1.368 . S
C519 H543 0.949 . S
H520 C524 0.949 . S
C521 C522 1.349 . S
C521 C523 1.348 . S
C521 H544 0.950 . S
C522 C521 1.349 . S
C522 C534 1.349 . S
C523 C521 1.348 . S
C523 C539 1.426 1_556 S
C523 H545 0.930 1_556 S
C524 H520 0.949 . S
C524 C532 1.574 . S
C524 C540 1.368 . S
H525 C533 0.950 . S
H526 C531 0.950 . S
H527 C532 0.949 . S
H528 C534 0.950 . S
H529 C535 0.950 . S
H530 C536 0.949 . S
C531 H526 0.950 . S
C531 C533 1.327 . S
C531 C537 1.429 . S
C532 C524 1.574 . S
C532 H527 0.949 . S
C532 C538 1.368 . S
C533 C517 1.349 . S
C533 H525 0.950 . S
C533 C531 1.327 . S
C534 C522 1.349 . S
C534 H528 0.950 . S
C534 C535 1.327 . S
C535 H529 0.950 . S
C535 C534 1.327 . S
C535 C539 1.405 1_556 S
C536 C519 1.574 . S
C536 H530 0.949 . S
C536 C540 1.368 . S
C537 C518 1.429 . S
C537 C531 1.429 . S
C537 C538 1.523 . S
C538 C519 1.368 . S
C538 C532 1.368 . S
C538 C537 1.523 . S
C539 C523 1.426 1_554 S
C539 C535 1.405 1_554 S
C539 C540 1.548 . S
C540 C524 1.368 . S
C540 C536 1.368 . S
C540 C539 1.548 . S
H541 C516 0.950 . S
H542 C518 0.950 . S
H543 C519 0.949 . S
H544 C521 0.950 . S
H545 C523 0.930 1_554 S
C546 C547 1.349 . S
C546 C548 1.327 . S
C546 H571 0.950 . S
C547 C546 1.349 . S
C547 C563 1.349 . S
C548 C546 1.327 . S
C548 C567 1.429 . S
C548 H572 0.950 . S
C549 C566 1.574 . S
C549 C568 1.368 . S
C549 H573 0.949 . S
H550 C554 0.949 . S
C551 C552 1.349 . S
C551 C553 1.327 . S
C551 H574 0.950 . S
C552 C551 1.349 . S
C552 C564 1.349 . S
C553 C551 1.327 . S
C553 C569 1.429 . S
C553 H575 0.950 . S
C554 H550 0.949 . S
C554 C562 1.574 . S
C554 C570 1.368 . S
H555 C563 0.950 . S
H556 C561 0.950 . S
H557 C562 0.949 . S
H558 C564 0.950 . S
H559 C565 0.950 . S
H560 C566 0.949 . S
C561 H556 0.950 . S
C561 C563 1.327 . S
C561 C567 1.429 . S
C562 C554 1.574 . S
C562 H557 0.949 . S
C562 C568 1.368 . S
C563 C547 1.349 . S
C563 H555 0.950 . S
C563 C561 1.327 . S
C564 C552 1.349 . S
C564 H558 0.950 . S
C564 C565 1.327 . S
C565 H559 0.950 . S
C565 C564 1.327 . S
C565 C569 1.429 . S
C566 C549 1.574 . S
C566 H560 0.949 . S
C566 C570 1.368 . S
C567 C548 1.429 . S
C567 C561 1.429 . S
C567 C568 1.523 . S
C568 C549 1.368 . S
C568 C562 1.368 . S
C568 C567 1.523 . S
C569 C553 1.429 . S
C569 C565 1.429 . S
C569 C570 1.523 . S
C570 C554 1.368 . S
C570 C566 1.368 . S
C570 C569 1.523 . S
H571 C546 0.950 . S
H572 C548 0.950 . S
H573 C549 0.949 . S
H574 C551 0.950 . S
H575 C553 0.950 . S
C576 C577 1.349 . S
C576 C578 1.327 . S
C576 H601 0.950 . S
C577 C576 1.349 . S
C577 C593 1.349 . S
C578 C576 1.327 . S
C578 C597 1.429 . S
C578 H602 0.950 . S
C579 C596 1.574 . S
C579 C598 1.368 . S
C579 H603 0.949 . S
H580 C584 0.949 . S
C581 C582 1.349 . S
C581 C583 1.327 . S
C581 H604 0.950 . S
C582 C581 1.349 . S
C582 C594 1.349 . S
C583 C581 1.327 . S
C583 C599 1.429 . S
C583 H605 0.950 . S
C584 H580 0.949 . S
C584 C592 1.574 . S
C584 C600 1.368 . S
H585 C593 0.950 . S
H586 C591 0.950 . S
H587 C592 0.949 . S
H588 C594 0.950 . S
H589 C595 0.950 . S
H590 C596 0.949 . S
C591 H586 0.950 . S
C591 C593 1.327 . S
C591 C597 1.429 . S
C592 C584 1.574 . S
C592 H587 0.949 . S
C592 C598 1.368 . S
C593 C577 1.349 . S
C593 H585 0.950 . S
C593 C591 1.327 . S
C594 C582 1.349 . S
C594 H588 0.950 . S
C594 C595 1.327 . S
C595 H589 0.950 . S
C595 C594 1.327 . S
C595 C599 1.429 . S
C596 C579 1.574 . S
C596 H590 0.949 . S
C596 C600 1.368 . S
C597 C578 1.429 . S
C597 C591 1.429 . S
C597 C598 1.523 . S
C598 C579 1.368 . S
C598 C592 1.368 . S
C598 C597 1.523 . S
C599 C583 1.429 . S
C599 C595 1.429 . S
C599 C600 1.523 . S
C600 C584 1.368 . S
C600 C596 1.368 . S
C600 C599 1.523 . S
H601 C576 0.950 . S
H602 C578 0.950 . S
H603 C579 0.949 . S
H604 C581 0.950 . S
H605 C583 0.950 . S
C606 C607 1.349 . S
C606 C608 1.306 1_565 S
C606 H631 0.950 . S
C607 C606 1.349 . S
C607 C623 1.349 . S
C608 C606 1.306 1_545 S
C608 C627 1.429 . S
C608 H632 0.972 . S
C609 C626 1.574 . S
C609 C628 1.368 . S
C609 H633 0.949 . S
H610 C614 0.949 . S
C611 C612 1.349 . S
C611 C613 1.327 . S
C611 H634 0.950 . S
C612 C611 1.349 . S
C612 C624 1.349 . S
C613 C611 1.327 . S
C613 C629 1.429 . S
C613 H635 0.950 . S
C614 H610 0.949 . S
C614 C622 1.574 . S
C614 C630 1.368 . S
H615 C623 0.950 . S
H616 C621 0.950 . S
H617 C622 0.949 . S
H618 C624 0.950 . S
H619 C625 0.950 . S
H620 C626 0.949 . S
C621 H616 0.950 . S
C621 C623 1.327 . S
C621 C627 1.402 1_565 S
C622 C614 1.574 . S
C622 H617 0.949 . S
C622 C628 1.368 . S
C623 C607 1.349 . S
C623 H615 0.950 . S
C623 C621 1.327 . S
C624 C612 1.349 . S
C624 H618 0.950 . S
C624 C625 1.327 . S
C625 H619 0.950 . S
C625 C624 1.327 . S
C625 C629 1.429 . S
C626 C609 1.574 . S
C626 H620 0.949 . S
C626 C630 1.368 . S
C627 C608 1.429 . S
C627 C621 1.402 1_545 S
C627 C628 1.548 . S
C628 C609 1.368 . S
C628 C622 1.368 . S
C628 C627 1.548 . S
C629 C613 1.429 . S
C629 C625 1.429 . S
C629 C630 1.523 . S
C630 C614 1.368 . S
C630 C626 1.368 . S
C630 C629 1.523 . S
H631 C606 0.950 . S
H632 C608 0.972 . S
H633 C609 0.949 . S
H634 C611 0.950 . S
H635 C613 0.950 . S
C636 C637 1.349 . S
C636 C638 1.327 . S
C636 H661 0.950 . S
C637 C636 1.349 . S
C637 C653 1.349 . S
C638 C636 1.327 . S
C638 C657 1.429 . S
C638 H662 0.950 . S
C639 C656 1.574 . S
C639 C658 1.368 . S
C639 H663 0.949 . S
H640 C644 0.949 . S
C641 C642 1.349 . S
C641 C643 1.327 . S
C641 H664 0.950 . S
C642 C641 1.349 . S
C642 C654 1.349 . S
C643 C641 1.327 . S
C643 C659 1.391 1_545 S
C643 H665 0.950 . S
C644 H640 0.949 . S
C644 C652 1.574 . S
C644 C660 1.368 . S
H645 C653 0.950 . S
H646 C651 0.950 . S
H647 C652 0.949 . S
H648 C654 0.950 . S
H649 C655 0.950 . S
H650 C656 0.949 1_545 S
C651 H646 0.950 . S
C651 C653 1.327 . S
C651 C657 1.429 . S
C652 C644 1.574 . S
C652 H647 0.949 . S
C652 C658 1.368 . S
C653 C637 1.349 . S
C653 H645 0.950 . S
C653 C651 1.327 . S
C654 C642 1.349 . S
C654 H648 0.950 . S
C654 C655 1.327 1_545 S
C655 H649 0.950 . S
C655 C654 1.327 1_565 S
C655 C659 1.440 . S
C656 C639 1.574 . S
C656 H650 0.949 1_565 S
C656 C660 1.368 . S
C657 C638 1.429 . S
C657 C651 1.429 . S
C657 C658 1.523 . S
C658 C639 1.368 . S
C658 C652 1.368 . S
C658 C657 1.523 . S
C659 C643 1.391 1_565 S
C659 C655 1.440 . S
C659 C660 1.548 . S
C660 C644 1.368 . S
C660 C656 1.368 . S
C660 C659 1.548 . S
H661 C636 0.950 . S
H662 C638 0.950 . S
H663 C639 0.949 . S
H664 C641 0.950 . S
H665 C643 0.950 . S
C666 C667 1.349 . S
C666 C668 1.327 . S
C666 H691 0.950 . S
C667 C666 1.349 . S
C667 C683 1.349 . S
C668 C666 1.327 . S
C668 C687 1.429 . S
C668 H692 0.950 . S
C669 C686 1.574 . S
C669 C688 1.368 . S
C669 H693 0.949 . S
H670 C674 0.949 . S
C671 C672 1.349 . S
C671 C673 1.327 . S
C671 H694 0.950 . S
C672 C671 1.349 . S
C672 C684 1.349 . S
C673 C671 1.327 . S
C673 C689 1.429 . S
C673 H695 0.950 . S
C674 H670 0.949 . S
C674 C682 1.574 . S
C674 C690 1.368 . S
H675 C683 0.950 . S
H676 C681 0.950 . S
H677 C682 0.949 . S
H678 C684 0.950 . S
H679 C685 0.950 . S
H680 C686 0.949 . S
C681 H676 0.950 . S
C681 C683 1.327 . S
C681 C687 1.429 . S
C682 C674 1.574 . S
C682 H677 0.949 . S
C682 C688 1.368 . S
C683 C667 1.349 . S
C683 H675 0.950 . S
C683 C681 1.327 . S
C684 C672 1.349 . S
C684 H678 0.950 . S
C684 C685 1.327 . S
C685 H679 0.950 . S
C685 C684 1.327 . S
C685 C689 1.429 . S
C686 C669 1.574 . S
C686 H680 0.949 . S
C686 C690 1.368 . S
C687 C668 1.429 . S
C687 C681 1.429 . S
C687 C688 1.523 . S
C688 C669 1.368 . S
C688 C682 1.368 . S
C688 C687 1.523 . S
C689 C673 1.429 . S
C689 C685 1.429 . S
C689 C690 1.523 . S
C690 C674 1.368 . S
C690 C686 1.368 . S
C690 C689 1.523 . S
H691 C666 0.950 . S
H692 C668 0.950 . S
H693 C669 0.949 . S
H694 C671 0.950 . S
H695 C673 0.950 . S
C696 C697 1.349 . S
C696 C698 1.327 . S
C696 H721 0.950 . S
C697 C696 1.349 . S
C697 C713 1.349 . S
C698 C696 1.327 . S
C698 C717 1.429 . S
C698 H722 0.950 . S
C699 C716 1.574 . S
C699 C718 1.368 . S
C699 H723 0.949 . S
H700 C704 0.949 . S
C701 C702 1.349 . S
C701 C703 1.327 . S
C701 H724 0.950 . S
C702 C701 1.349 . S
C702 C714 1.349 . S
C703 C701 1.327 . S
C703 C719 1.429 . S
C703 H725 0.950 . S
C704 H700 0.949 . S
C704 C712 1.574 . S
C704 C720 1.368 . S
H705 C713 0.950 . S
H706 C711 0.950 . S
H707 C712 0.949 . S
H708 C714 0.950 . S
H709 C715 0.950 . S
H710 C716 0.949 . S
C711 H706 0.950 . S
C711 C713 1.327 . S
C711 C717 1.429 . S
C712 C704 1.574 . S
C712 H707 0.949 . S
C712 C718 1.368 . S
C713 C697 1.349 . S
C713 H705 0.950 . S
C713 C711 1.327 . S
C714 C702 1.349 . S
C714 H708 0.950 . S
C714 C715 1.327 . S
C715 H709 0.950 . S
C715 C714 1.327 . S
C715 C719 1.429 . S
C716 C699 1.574 . S
C716 H710 0.949 . S
C716 C720 1.368 . S
C717 C698 1.429 . S
C717 C711 1.429 . S
C717 C718 1.523 . S
C718 C699 1.368 . S
C718 C712 1.368 . S
C718 C717 1.523 . S
C719 C703 1.429 . S
C719 C715 1.429 . S
C719 C720 1.523 . S
C720 C704 1.368 . S
C720 C716 1.368 . S
C720 C719 1.523 . S
H721 C696 0.950 . S
H722 C698 0.950 . S
H723 C699 0.949 . S
H724 C701 0.950 . S
H725 C703 0.950 . S
C726 C727 1.349 . S
C726 C728 1.327 . S
C726 H751 0.950 . S
C727 C726 1.349 . S
C727 C743 1.349 . S
C728 C726 1.327 . S
C728 C747 1.429 . S
C728 H752 0.950 . S
C729 C746 1.574 . S
C729 C748 1.368 . S
C729 H753 0.949 . S
H730 C734 0.949 . S
C731 C732 1.349 . S
C731 C733 1.327 . S
C731 H754 0.950 . S
C732 C731 1.349 . S
C732 C744 1.349 . S
C733 C731 1.327 . S
C733 C749 1.429 . S
C733 H755 0.950 . S
C734 H730 0.949 . S
C734 C742 1.574 . S
C734 C750 1.368 . S
H735 C743 0.950 . S
H736 C741 0.950 . S
H737 C742 0.949 1_565 S
H738 C744 0.950 . S
H739 C745 0.950 . S
H740 C746 0.949 . S
C741 H736 0.950 . S
C741 C743 1.327 . S
C741 C747 1.429 . S
C742 C734 1.574 . S
C742 H737 0.949 1_545 S
C742 C748 1.368 . S
C743 C727 1.349 . S
C743 H735 0.950 . S
C743 C741 1.327 . S
C744 C732 1.349 . S
C744 H738 0.950 . S
C744 C745 1.327 . S
C745 H739 0.950 . S
C745 C744 1.327 . S
C745 C749 1.429 . S
C746 C729 1.574 . S
C746 H740 0.949 . S
C746 C750 1.368 . S
C747 C728 1.429 . S
C747 C741 1.429 . S
C747 C748 1.523 1_565 S
C748 C729 1.368 . S
C748 C742 1.368 . S
C748 C747 1.523 1_545 S
C749 C733 1.429 . S
C749 C745 1.429 . S
C749 C750 1.523 . S
C750 C734 1.368 . S
C750 C746 1.368 . S
C750 C749 1.523 . S
H751 C726 0.950 . S
H752 C728 0.950 . S
H753 C729 0.949 . S
H754 C731 0.950 . S
H755 C733 0.950 . S
C756 C757 1.349 . S
C756 C758 1.327 . S
C756 H781 0.950 . S
C757 C756 1.349 . S
C757 C773 1.349 . S
C758 C756 1.327 . S
C758 C777 1.429 . S
C758 H782 0.950 . S
C759 C776 1.574 . S
C759 C778 1.368 . S
C759 H783 0.949 . S
H760 C764 0.949 . S
C761 C762 1.349 . S
C761 C763 1.327 . S
C761 H784 0.950 . S
C762 C761 1.349 . S
C762 C774 1.349 . S
C763 C761 1.327 . S
C763 C779 1.429 . S
C763 H785 0.950 . S
C764 H760 0.949 . S
C764 C772 1.574 . S
C764 C780 1.368 . S
H765 C773 0.950 . S
H766 C771 0.950 . S
H767 C772 0.949 . S
H768 C774 0.950 . S
H769 C775 0.950 . S
H770 C776 0.931 1_554 S
C771 H766 0.950 . S
C771 C773 1.327 . S
C771 C777 1.429 . S
C772 C764 1.574 . S
C772 H767 0.949 . S
C772 C778 1.368 . S
C773 C757 1.349 . S
C773 H765 0.950 . S
C773 C771 1.327 . S
C774 C762 1.349 . S
C774 H768 0.950 . S
C774 C775 1.327 . S
C775 H769 0.950 . S
C775 C774 1.327 . S
C775 C779 1.429 . S
C776 C759 1.574 . S
C776 H770 0.931 1_556 S
C776 C780 1.368 . S
C777 C758 1.429 . S
C777 C771 1.429 . S
C777 C778 1.523 . S
C778 C759 1.368 . S
C778 C772 1.368 . S
C778 C777 1.523 . S
C779 C763 1.429 . S
C779 C775 1.429 . S
C779 C780 1.523 1_554 S
C780 C764 1.368 . S
C780 C776 1.368 . S
C780 C779 1.523 1_556 S
H781 C756 0.950 . S
H782 C758 0.950 . S
H783 C759 0.949 . S
H784 C761 0.950 . S
H785 C763 0.950 . S
C786 C787 1.349 . S
C786 C788 1.327 . S
C786 H811 0.950 . S
C787 C786 1.349 . S
C787 C803 1.349 . S
C788 C786 1.327 . S
C788 C807 1.429 . S
C788 H812 0.950 . S
C789 C806 1.574 . S
C789 C808 1.368 . S
C789 H813 0.949 . S
H790 C794 0.949 . S
C791 C792 1.349 . S
C791 C793 1.327 . S
C791 H814 0.950 . S
C792 C791 1.349 . S
C792 C804 1.349 . S
C793 C791 1.327 . S
C793 C809 1.429 . S
C793 H815 0.950 . S
C794 H790 0.949 . S
C794 C802 1.574 . S
C794 C810 1.368 . S
H795 C803 0.950 . S
H796 C801 0.950 . S
H797 C802 0.949 1_545 S
H798 C804 0.950 . S
H799 C805 0.950 . S
H800 C806 0.949 . S
C801 H796 0.950 . S
C801 C803 1.327 . S
C801 C807 1.429 . S
C802 C794 1.574 . S
C802 H797 0.949 1_565 S
C802 C808 1.368 . S
C803 C787 1.349 . S
C803 H795 0.950 . S
C803 C801 1.327 . S
C804 C792 1.349 . S
C804 H798 0.950 . S
C804 C805 1.327 . S
C805 H799 0.950 . S
C805 C804 1.327 . S
C805 C809 1.429 . S
C806 C789 1.574 . S
C806 H800 0.949 . S
C806 C810 1.368 . S
C807 C788 1.429 . S
C807 C801 1.429 . S
C807 C808 1.523 1_545 S
C808 C789 1.368 . S
C808 C802 1.368 . S
C808 C807 1.523 1_565 S
C809 C793 1.429 . S
C809 C805 1.429 . S
C809 C810 1.523 . S
C810 C794 1.368 . S
C810 C806 1.368 . S
C810 C809 1.523 . S
H811 C786 0.950 . S
H812 C788 0.950 . S
H813 C789 0.949 . S
H814 C791 0.950 . S
H815 C793 0.950 . S
C816 C817 1.349 . S
C816 C818 1.327 . S
C816 H841 0.950 . S
C817 C816 1.349 . S
C817 C833 1.349 . S
C818 C816 1.327 . S
C818 C837 1.429 . S
C818 H842 0.950 . S
C819 C836 1.574 . S
C819 C838 1.368 . S
C819 H843 0.949 . S
H820 C824 0.949 . S
C821 C822 1.349 . S
C821 C823 1.327 . S
C821 H844 0.950 . S
C822 C821 1.349 . S
C822 C834 1.349 . S
C823 C821 1.327 . S
C823 C839 1.429 . S
C823 H845 0.950 . S
C824 H820 0.949 . S
C824 C832 1.574 . S
C824 C840 1.368 . S
H825 C833 0.950 . S
H826 C831 0.950 . S
H827 C832 0.949 . S
H828 C834 0.950 . S
H829 C835 0.950 . S
H830 C836 0.949 . S
C831 H826 0.950 . S
C831 C833 1.327 . S
C831 C837 1.429 . S
C832 C824 1.574 . S
C832 H827 0.949 . S
C832 C838 1.368 . S
C833 C817 1.349 . S
C833 H825 0.950 . S
C833 C831 1.327 . S
C834 C822 1.349 . S
C834 H828 0.950 . S
C834 C835 1.327 . S
C835 H829 0.950 . S
C835 C834 1.327 . S
C835 C839 1.429 . S
C836 C819 1.574 . S
C836 H830 0.949 . S
C836 C840 1.368 . S
C837 C818 1.429 . S
C837 C831 1.429 . S
C837 C838 1.523 . S
C838 C819 1.368 . S
C838 C832 1.368 . S
C838 C837 1.523 . S
C839 C823 1.429 . S
C839 C835 1.429 . S
C839 C840 1.523 . S
C840 C824 1.368 . S
C840 C836 1.368 . S
C840 C839 1.523 . S
H841 C816 0.950 . S
H842 C818 0.950 . S
H843 C819 0.949 . S
H844 C821 0.950 . S
H845 C823 0.950 . S
C846 C847 1.349 . S
C846 C848 1.327 . S
C846 H871 0.950 . S
C847 C846 1.349 . S
C847 C863 1.349 . S
C848 C846 1.327 . S
C848 C867 1.429 . S
C848 H872 0.950 . S
C849 C866 1.574 . S
C849 C868 1.368 . S
C849 H873 0.949 . S
H850 C854 0.949 . S
C851 C852 1.349 . S
C851 C853 1.327 . S
C851 H874 0.950 . S
C852 C851 1.349 . S
C852 C864 1.349 . S
C853 C851 1.327 . S
C853 C869 1.429 . S
C853 H875 0.950 . S
C854 H850 0.949 . S
C854 C862 1.574 . S
C854 C870 1.368 . S
H855 C863 0.950 . S
H856 C861 0.950 . S
H857 C862 0.949 . S
H858 C864 0.950 . S
H859 C865 0.950 . S
H860 C866 0.949 . S
C861 H856 0.950 . S
C861 C863 1.327 . S
C861 C867 1.429 . S
C862 C854 1.574 . S
C862 H857 0.949 . S
C862 C868 1.368 . S
C863 C847 1.349 . S
C863 H855 0.950 . S
C863 C861 1.327 . S
C864 C852 1.349 . S
C864 H858 0.950 . S
C864 C865 1.327 . S
C865 H859 0.950 . S
C865 C864 1.327 . S
C865 C869 1.429 . S
C866 C849 1.574 . S
C866 H860 0.949 . S
C866 C870 1.368 . S
C867 C848 1.429 . S
C867 C861 1.429 . S
C867 C868 1.523 . S
C868 C849 1.368 . S
C868 C862 1.368 . S
C868 C867 1.523 . S
C869 C853 1.429 . S
C869 C865 1.429 . S
C869 C870 1.523 . S
C870 C854 1.368 . S
C870 C866 1.368 . S
C870 C869 1.523 . S
H871 C846 0.950 . S
H872 C848 0.950 . S
H873 C849 0.949 . S
H874 C851 0.950 . S
H875 C853 0.950 . S
C876 C877 1.349 . S
C876 C878 1.327 . S
C876 H901 0.950 . S
C877 C876 1.349 . S
C877 C893 1.349 . S
C878 C876 1.327 . S
C878 C897 1.429 . S
C878 H902 0.950 1_556 S
C879 C896 1.574 1_556 S
C879 C898 1.368 1_556 S
C879 H903 0.949 . S
H880 C884 0.949 . S
C881 C882 1.349 . S
C881 C883 1.327 . S
C881 H904 0.950 . S
C882 C881 1.349 . S
C882 C894 1.349 . S
C883 C881 1.327 . S
C883 C899 1.429 . S
C883 H905 0.950 . S
C884 H880 0.949 . S
C884 C892 1.574 . S
C884 C900 1.368 . S
H885 C893 0.950 . S
H886 C891 0.950 . S
H887 C892 0.949 . S
H888 C894 0.950 . S
H889 C895 0.950 . S
H890 C896 0.949 . S
C891 H886 0.950 . S
C891 C893 1.327 . S
C891 C897 1.429 . S
C892 C884 1.574 . S
C892 H887 0.949 . S
C892 C898 1.368 . S
C893 C877 1.349 . S
C893 H885 0.950 . S
C893 C891 1.327 . S
C894 C882 1.349 . S
C894 H888 0.950 . S
C894 C895 1.327 . S
C895 H889 0.950 . S
C895 C894 1.327 . S
C895 C899 1.429 . S
C896 C879 1.574 1_554 S
C896 H890 0.949 . S
C896 C900 1.368 . S
C897 C878 1.429 . S
C897 C891 1.429 . S
C897 C898 1.523 1_556 S
C898 C879 1.368 1_554 S
C898 C892 1.368 . S
C898 C897 1.523 1_554 S
C899 C883 1.429 . S
C899 C895 1.429 . S
C899 C900 1.523 . S
C900 C884 1.368 . S
C900 C896 1.368 . S
C900 C899 1.523 . S
H901 C876 0.950 . S
H902 C878 0.950 1_554 S
H903 C879 0.949 . S
H904 C881 0.950 . S
H905 C883 0.950 . S
C906 C907 1.349 . S
C906 C908 1.327 . S
C906 H931 0.950 . S
C907 C906 1.349 . S
C907 C923 1.349 . S
C908 C906 1.327 . S
C908 C927 1.429 . S
C908 H932 0.950 . S
C909 C926 1.574 . S
C909 C928 1.368 . S
C909 H933 0.949 . S
H910 C914 0.949 . S
C911 C912 1.349 . S
C911 C913 1.327 . S
C911 H934 0.950 . S
C912 C911 1.349 . S
C912 C924 1.349 . S
C913 C911 1.327 . S
C913 C929 1.429 . S
C913 H935 0.950 . S
C914 H910 0.949 . S
C914 C922 1.574 . S
C914 C930 1.368 . S
H915 C923 0.950 . S
H916 C921 0.950 . S
H917 C922 0.949 . S
H918 C924 0.950 . S
H919 C925 0.950 . S
H920 C926 0.949 . S
C921 H916 0.950 . S
C921 C923 1.327 . S
C921 C927 1.429 . S
C922 C914 1.574 . S
C922 H917 0.949 . S
C922 C928 1.368 . S
C923 C907 1.349 . S
C923 H915 0.950 . S
C923 C921 1.327 . S
C924 C912 1.349 . S
C924 H918 0.950 . S
C924 C925 1.327 . S
C925 H919 0.950 . S
C925 C924 1.327 . S
C925 C929 1.429 . S
C926 C909 1.574 . S
C926 H920 0.949 . S
C926 C930 1.368 . S
C927 C908 1.429 . S
C927 C921 1.429 . S
C927 C928 1.523 . S
C928 C909 1.368 . S
C928 C922 1.368 . S
C928 C927 1.523 . S
C929 C913 1.429 . S
C929 C925 1.429 . S
C929 C930 1.523 . S
C930 C914 1.368 . S
C930 C926 1.368 . S
C930 C929 1.523 . S
H931 C906 0.950 . S
H932 C908 0.950 . S
H933 C909 0.949 . S
H934 C911 0.950 . S
H935 C913 0.950 . S
C936 C937 1.349 . S
C936 C938 1.327 . S
C936 H961 0.950 . S
C937 C936 1.349 . S
C937 C953 1.349 . S
C938 C936 1.327 . S
C938 C957 1.429 . S
C938 H962 0.950 . S
C939 C956 1.574 . S
C939 C958 1.368 . S
C939 H963 0.949 . S
H940 C944 0.949 . S
C941 C942 1.349 . S
C941 C943 1.327 . S
C941 H964 0.950 . S
C942 C941 1.349 . S
C942 C954 1.349 . S
C943 C941 1.327 . S
C943 C959 1.429 . S
C943 H965 0.950 . S
C944 H940 0.949 . S
C944 C952 1.574 . S
C944 C960 1.368 . S
H945 C953 0.950 . S
H946 C951 0.950 . S
H947 C952 0.949 . S
H948 C954 0.950 . S
H949 C955 0.950 . S
H950 C956 0.949 . S
C951 H946 0.950 . S
C951 C953 1.327 . S
C951 C957 1.429 . S
C952 C944 1.574 . S
C952 H947 0.949 . S
C952 C958 1.368 . S
C953 C937 1.349 . S
C953 H945 0.950 . S
C953 C951 1.327 . S
C954 C942 1.349 . S
C954 H948 0.950 . S
C954 C955 1.327 . S
C955 H949 0.950 . S
C955 C954 1.327 . S
C955 C959 1.429 . S
C956 C939 1.574 . S
C956 H950 0.949 . S
C956 C960 1.368 . S
C957 C938 1.429 . S
C957 C951 1.429 . S
C957 C958 1.523 . S
C958 C939 1.368 . S
C958 C952 1.368 . S
C958 C957 1.523 . S
C959 C943 1.429 . S
C959 C955 1.429 . S
C959 C960 1.523 . S
C960 C944 1.368 . S
C960 C956 1.368 . S
C960 C959 1.523 . S
H961 C936 0.950 . S
H962 C938 0.950 . S
H963 C939 0.949 . S
H964 C941 0.950 . S
H965 C943 0.950 . S
C966 C967 1.349 . S
C966 C968 1.327 . S
C966 H991 0.950 . S
C967 C966 1.349 . S
C967 C983 1.349 . S
C968 C966 1.327 . S
C968 C987 1.429 . S
C968 H992 0.950 1_455 S
C969 C986 1.574 1_455 S
C969 C988 1.368 1_455 S
C969 H993 0.949 . S
H970 C974 0.949 . S
C971 C972 1.349 . S
C971 C973 1.327 . S
C971 H994 0.950 . S
C972 C971 1.349 . S
C972 C984 1.349 . S
C973 C971 1.327 . S
C973 C989 1.429 . S
C973 H995 0.950 . S
C974 H970 0.949 . S
C974 C982 1.574 . S
C974 C990 1.368 . S
H975 C983 0.950 . S
H976 C981 0.950 . S
H977 C982 0.949 . S
H978 C984 0.950 . S
H979 C985 0.950 . S
H980 C986 0.949 . S
C981 H976 0.950 . S
C981 C983 1.327 . S
C981 C987 1.429 . S
C982 C974 1.574 . S
C982 H977 0.949 . S
C982 C988 1.368 . S
C983 C967 1.349 . S
C983 H975 0.950 . S
C983 C981 1.327 . S
C984 C972 1.349 . S
C984 H978 0.950 . S
C984 C985 1.327 . S
C985 H979 0.950 . S
C985 C984 1.327 . S
C985 C989 1.429 . S
C986 C969 1.574 1_655 S
C986 H980 0.949 . S
C986 C990 1.368 . S
C987 C968 1.429 . S
C987 C981 1.429 . S
C987 C988 1.523 1_455 S
C988 C969 1.368 1_655 S
C988 C982 1.368 . S
C988 C987 1.523 1_655 S
C989 C973 1.429 . S
C989 C985 1.429 . S
C989 C990 1.523 . S
C990 C974 1.368 . S
C990 C986 1.368 . S
C990 C989 1.523 . S
H991 C966 0.950 . S
H992 C968 0.950 1_655 S
H993 C969 0.949 . S
H994 C971 0.950 . S
H995 C973 0.950 . S
C996 C997 1.349 . S
C996 C998 1.327 . S
C996 H1021 0.950 . S
C997 C996 1.349 . S
C997 C1013 1.349 . S
C998 C996 1.327 . S
C998 C1017 1.429 . S
C998 H1022 0.950 1_655 S
C999 C1016 1.574 1_655 S
C999 C1018 1.368 1_655 S
C999 H1023 0.949 . S
H1000 C1004 0.949 . S
C1001 C1002 1.349 . S
C1001 C1003 1.327 . S
C1001 H1024 0.950 . S
C1002 C1001 1.349 . S
C1002 C1014 1.349 . S
C1003 C1001 1.327 . S
C1003 C1019 1.429 . S
C1003 H1025 0.950 . S
C1004 H1000 0.949 . S
C1004 C1012 1.574 . S
C1004 C1020 1.368 . S
H1005 C1013 0.950 . S
H1006 C1011 0.950 . S
H1007 C1012 0.949 . S
H1008 C1014 0.950 . S
H1009 C1015 0.950 . S
H1010 C1016 0.949 . S
C1011 H1006 0.950 . S
C1011 C1013 1.327 . S
C1011 C1017 1.429 . S
C1012 C1004 1.574 . S
C1012 H1007 0.949 . S
C1012 C1018 1.368 . S
C1013 C997 1.349 . S
C1013 H1005 0.950 . S
C1013 C1011 1.327 . S
C1014 C1002 1.349 . S
C1014 H1008 0.950 . S
C1014 C1015 1.327 . S
C1015 H1009 0.950 . S
C1015 C1014 1.327 . S
C1015 C1019 1.429 . S
C1016 C999 1.574 1_455 S
C1016 H1010 0.949 . S
C1016 C1020 1.368 . S
C1017 C998 1.429 . S
C1017 C1011 1.429 . S
C1017 C1018 1.523 1_655 S
C1018 C999 1.368 1_455 S
C1018 C1012 1.368 . S
C1018 C1017 1.523 1_455 S
C1019 C1003 1.429 . S
C1019 C1015 1.429 . S
C1019 C1020 1.523 . S
C1020 C1004 1.368 . S
C1020 C1016 1.368 . S
C1020 C1019 1.523 . S
H1021 C996 0.950 . S
H1022 C998 0.950 1_455 S
H1023 C999 0.949 . S
H1024 C1001 0.950 . S
H1025 C1003 0.950 . S
C1026 C1027 1.349 . S
C1026 C1028 1.327 . S
C1026 H1051 0.950 . S
C1027 C1026 1.349 . S
C1027 C1043 1.349 . S
C1028 C1026 1.327 . S
C1028 C1047 1.429 . S
C1028 H1052 0.950 . S
C1029 C1046 1.574 . S
C1029 C1048 1.368 . S
C1029 H1053 0.949 . S
H1030 C1034 0.949 . S
C1031 C1032 1.349 . S
C1031 C1033 1.327 . S
C1031 H1054 0.950 . S
C1032 C1031 1.349 . S
C1032 C1044 1.349 . S
C1033 C1031 1.327 . S
C1033 C1049 1.429 . S
C1033 H1055 0.950 . S
C1034 H1030 0.949 . S
C1034 C1042 1.574 . S
C1034 C1050 1.368 . S
H1035 C1043 0.950 . S
H1036 C1041 0.950 . S
H1037 C1042 0.949 . S
H1038 C1044 0.950 . S
H1039 C1045 0.950 . S
H1040 C1046 0.949 . S
C1041 H1036 0.950 . S
C1041 C1043 1.327 . S
C1041 C1047 1.429 . S
C1042 C1034 1.574 . S
C1042 H1037 0.949 . S
C1042 C1048 1.368 . S
C1043 C1027 1.349 . S
C1043 H1035 0.950 . S
C1043 C1041 1.327 . S
C1044 C1032 1.349 . S
C1044 H1038 0.950 . S
C1044 C1045 1.327 . S
C1045 H1039 0.950 . S
C1045 C1044 1.327 . S
C1045 C1049 1.429 . S
C1046 C1029 1.574 . S
C1046 H1040 0.949 . S
C1046 C1050 1.368 . S
C1047 C1028 1.429 . S
C1047 C1041 1.429 . S
C1047 C1048 1.523 . S
C1048 C1029 1.368 . S
C1048 C1042 1.368 . S
C1048 C1047 1.523 . S
C1049 C1033 1.429 . S
C1049 C1045 1.429 . S
C1049 C1050 1.523 . S
C1050 C1034 1.368 . S
C1050 C1046 1.368 . S
C1050 C1049 1.523 . S
H1051 C1026 0.950 . S
H1052 C1028 0.950 . S
H1053 C1029 0.949 . S
H1054 C1031 0.950 . S
H1055 C1033 0.950 . S
C1056 C1057 1.349 . S
C1056 C1058 1.327 . S
C1056 H1081 0.950 . S
C1057 C1056 1.349 . S
C1057 C1073 1.349 . S
C1058 C1056 1.327 . S
C1058 C1077 1.429 . S
C1058 H1082 0.950 . S
C1059 C1076 1.574 . S
C1059 C1078 1.368 . S
C1059 H1083 0.949 . S
H1060 C1064 0.949 . S
C1061 C1062 1.349 . S
C1061 C1063 1.327 . S
C1061 H1084 0.950 . S
C1062 C1061 1.349 . S
C1062 C1074 1.349 . S
C1063 C1061 1.327 . S
C1063 C1079 1.429 . S
C1063 H1085 0.950 . S
C1064 H1060 0.949 . S
C1064 C1072 1.574 . S
C1064 C1080 1.368 . S
H1065 C1073 0.950 . S
H1066 C1071 0.950 . S
H1067 C1072 0.949 . S
H1068 C1074 0.950 . S
H1069 C1075 0.950 . S
H1070 C1076 0.949 . S
C1071 H1066 0.950 . S
C1071 C1073 1.327 . S
C1071 C1077 1.429 . S
C1072 C1064 1.574 . S
C1072 H1067 0.949 . S
C1072 C1078 1.368 . S
C1073 C1057 1.349 . S
C1073 H1065 0.950 . S
C1073 C1071 1.327 . S
C1074 C1062 1.349 . S
C1074 H1068 0.950 . S
C1074 C1075 1.327 . S
C1075 H1069 0.950 . S
C1075 C1074 1.327 . S
C1075 C1079 1.429 . S
C1076 C1059 1.574 . S
C1076 H1070 0.949 . S
C1076 C1080 1.368 . S
C1077 C1058 1.429 . S
C1077 C1071 1.429 . S
C1077 C1078 1.523 . S
C1078 C1059 1.368 . S
C1078 C1072 1.368 . S
C1078 C1077 1.523 . S
C1079 C1063 1.429 . S
C1079 C1075 1.429 . S
C1079 C1080 1.523 . S
C1080 C1064 1.368 . S
C1080 C1076 1.368 . S
C1080 C1079 1.523 . S
H1081 C1056 0.950 . S
H1082 C1058 0.950 . S
H1083 C1059 0.949 . S
H1084 C1061 0.950 . S
H1085 C1063 0.950 . S
C1086 C1087 1.349 . S
C1086 C1088 1.327 . S
C1086 H1111 0.950 . S
C1087 C1086 1.349 . S
C1087 C1103 1.349 1_545 S
C1088 C1086 1.327 . S
C1088 C1107 1.406 1_545 S
C1088 H1112 0.950 . S
C1089 C1106 1.574 . S
C1089 C1108 1.368 . S
C1089 H1113 0.949 . S
H1090 C1094 0.949 . S
C1091 C1092 1.349 . S
C1091 C1093 1.327 . S
C1091 H1114 0.950 . S
C1092 C1091 1.349 . S
C1092 C1104 1.349 . S
C1093 C1091 1.327 . S
C1093 C1109 1.429 . S
C1093 H1115 0.950 . S
C1094 H1090 0.949 . S
C1094 C1102 1.574 1_565 S
C1094 C1110 1.368 . S
H1095 C1103 0.950 . S
H1096 C1101 0.950 . S
H1097 C1102 0.949 . S
H1098 C1104 0.950 . S
H1099 C1105 0.950 . S
H1100 C1106 0.949 . S
C1101 H1096 0.950 . S
C1101 C1103 1.327 . S
C1101 C1107 1.440 . S
C1102 C1094 1.574 1_545 S
C1102 H1097 0.949 . S
C1102 C1108 1.368 1_545 S
C1103 C1087 1.349 1_565 S
C1103 H1095 0.950 . S
C1103 C1101 1.327 . S
C1104 C1092 1.349 . S
C1104 H1098 0.950 . S
C1104 C1105 1.327 . S
C1105 H1099 0.950 . S
C1105 C1104 1.327 . S
C1105 C1109 1.429 . S
C1106 C1089 1.574 . S
C1106 H1100 0.949 . S
C1106 C1110 1.368 . S
C1107 C1088 1.406 1_565 S
C1107 C1101 1.440 . S
C1107 C1108 1.534 . S
C1108 C1089 1.368 . S
C1108 C1102 1.368 1_565 S
C1108 C1107 1.534 . S
C1109 C1093 1.429 . S
C1109 C1105 1.429 . S
C1109 C1110 1.523 . S
C1110 C1094 1.368 . S
C1110 C1106 1.368 . S
C1110 C1109 1.523 . S
H1111 C1086 0.950 . S
H1112 C1088 0.950 . S
H1113 C1089 0.949 . S
H1114 C1091 0.950 . S
H1115 C1093 0.950 . S
C1116 C1117 1.349 . S
C1116 C1118 1.327 . S
C1116 H1141 0.950 . S
C1117 C1116 1.349 . S
C1117 C1133 1.349 . S
C1118 C1116 1.327 . S
C1118 C1137 1.429 . S
C1118 H1142 0.950 . S
C1119 C1136 1.574 . S
C1119 C1138 1.368 . S
C1119 H1143 0.949 . S
H1120 C1124 0.949 . S
C1121 C1122 1.349 . S
C1121 C1123 1.327 . S
C1121 H1144 0.950 . S
C1122 C1121 1.349 . S
C1122 C1134 1.349 . S
C1123 C1121 1.327 . S
C1123 C1139 1.429 . S
C1123 H1145 0.950 . S
C1124 H1120 0.949 . S
C1124 C1132 1.574 . S
C1124 C1140 1.368 . S
H1125 C1133 0.950 . S
H1126 C1131 0.950 . S
H1127 C1132 0.949 . S
H1128 C1134 0.950 . S
H1129 C1135 0.950 . S
H1130 C1136 0.949 . S
C1131 H1126 0.950 . S
C1131 C1133 1.327 . S
C1131 C1137 1.429 . S
C1132 C1124 1.574 . S
C1132 H1127 0.949 . S
C1132 C1138 1.368 . S
C1133 C1117 1.349 . S
C1133 H1125 0.950 . S
C1133 C1131 1.327 . S
C1134 C1122 1.349 . S
C1134 H1128 0.950 . S
C1134 C1135 1.327 . S
C1135 H1129 0.950 . S
C1135 C1134 1.327 . S
C1135 C1139 1.429 . S
C1136 C1119 1.574 . S
C1136 H1130 0.949 . S
C1136 C1140 1.368 . S
C1137 C1118 1.429 . S
C1137 C1131 1.429 . S
C1137 C1138 1.523 . S
C1138 C1119 1.368 . S
C1138 C1132 1.368 . S
C1138 C1137 1.523 . S
C1139 C1123 1.429 . S
C1139 C1135 1.429 . S
C1139 C1140 1.523 . S
C1140 C1124 1.368 . S
C1140 C1136 1.368 . S
C1140 C1139 1.523 . S
H1141 C1116 0.950 . S
H1142 C1118 0.950 . S
H1143 C1119 0.949 . S
H1144 C1121 0.950 . S
H1145 C1123 0.950 . S
C1146 C1147 1.349 . S
C1146 C1148 1.327 . S
C1146 H1171 0.950 . S
C1147 C1146 1.349 . S
C1147 C1163 1.349 . S
C1148 C1146 1.327 . S
C1148 C1167 1.429 . S
C1148 H1172 0.950 . S
C1149 C1166 1.574 . S
C1149 C1168 1.368 . S
C1149 H1173 0.949 . S
H1150 C1154 0.949 . S
C1151 C1152 1.349 . S
C1151 C1153 1.327 . S
C1151 H1174 0.950 . S
C1152 C1151 1.349 . S
C1152 C1164 1.349 . S
C1153 C1151 1.327 . S
C1153 C1169 1.419 1_566 S
C1153 H1175 0.950 . S
C1154 H1150 0.949 . S
C1154 C1162 1.574 . S
C1154 C1170 1.368 . S
H1155 C1163 0.950 . S
H1156 C1161 0.950 . S
H1157 C1162 0.949 . S
H1158 C1164 0.950 . S
H1159 C1165 0.926 1_544 S
H1160 C1166 0.949 . S
C1161 H1156 0.950 . S
C1161 C1163 1.327 . S
C1161 C1167 1.429 . S
C1162 C1154 1.574 . S
C1162 H1157 0.949 . S
C1162 C1168 1.368 . S
C1163 C1147 1.349 . S
C1163 H1155 0.950 . S
C1163 C1161 1.327 . S
C1164 C1152 1.349 . S
C1164 H1158 0.950 . S
C1164 C1165 1.357 . S
C1165 H1159 0.926 1_566 S
C1165 C1164 1.357 . S
C1165 C1169 1.425 1_566 S
C1166 C1149 1.574 . S
C1166 H1160 0.949 . S
C1166 C1170 1.368 . S
C1167 C1148 1.429 . S
C1167 C1161 1.429 . S
C1167 C1168 1.523 . S
C1168 C1149 1.368 . S
C1168 C1162 1.368 . S
C1168 C1167 1.523 . S
C1169 C1153 1.419 1_544 S
C1169 C1165 1.425 1_544 S
C1169 C1170 1.534 . S
C1170 C1154 1.368 . S
C1170 C1166 1.368 . S
C1170 C1169 1.534 . S
H1171 C1146 0.950 . S
H1172 C1148 0.950 . S
H1173 C1149 0.949 . S
H1174 C1151 0.950 . S
H1175 C1153 0.950 . S
C1176 C1177 1.349 . S
C1176 C1178 1.327 . S
C1176 H1201 0.950 . S
C1177 C1176 1.349 . S
C1177 C1193 1.349 . S
C1178 C1176 1.327 . S
C1178 C1197 1.429 . S
C1178 H1202 0.950 . S
C1179 C1196 1.574 . S
C1179 C1198 1.368 . S
C1179 H1203 0.949 . S
H1180 C1184 0.949 . S
C1181 C1182 1.349 . S
C1181 C1183 1.327 . S
C1181 H1204 0.950 . S
C1182 C1181 1.349 . S
C1182 C1194 1.349 . S
C1183 C1181 1.327 . S
C1183 C1199 1.429 . S
C1183 H1205 0.950 . S
C1184 H1180 0.949 . S
C1184 C1192 1.574 . S
C1184 C1200 1.368 . S
H1185 C1193 0.950 . S
H1186 C1191 0.950 . S
H1187 C1192 0.949 . S
H1188 C1194 0.950 . S
H1189 C1195 0.950 . S
H1190 C1196 0.949 . S
C1191 H1186 0.950 . S
C1191 C1193 1.327 . S
C1191 C1197 1.429 . S
C1192 C1184 1.574 . S
C1192 H1187 0.949 . S
C1192 C1198 1.368 . S
C1193 C1177 1.349 . S
C1193 H1185 0.950 . S
C1193 C1191 1.327 . S
C1194 C1182 1.349 . S
C1194 H1188 0.950 . S
C1194 C1195 1.327 . S
C1195 H1189 0.950 . S
C1195 C1194 1.327 . S
C1195 C1199 1.429 . S
C1196 C1179 1.574 . S
C1196 H1190 0.949 . S
C1196 C1200 1.368 . S
C1197 C1178 1.429 . S
C1197 C1191 1.429 . S
C1197 C1198 1.523 . S
C1198 C1179 1.368 . S
C1198 C1192 1.368 . S
C1198 C1197 1.523 . S
C1199 C1183 1.429 . S
C1199 C1195 1.429 . S
C1199 C1200 1.523 . S
C1200 C1184 1.368 . S
C1200 C1196 1.368 . S
C1200 C1199 1.523 . S
H1201 C1176 0.950 . S
H1202 C1178 0.950 . S
H1203 C1179 0.949 . S
H1204 C1181 0.950 . S
H1205 C1183 0.950 . S
C1206 C1207 1.349 . S
C1206 C1208 1.327 . S
C1206 H1231 0.950 . S
C1207 C1206 1.349 . S
C1207 C1223 1.349 . S
C1208 C1206 1.327 . S
C1208 C1227 1.429 1_554 S
C1208 H1232 0.950 . S
C1209 C1226 1.574 . S
C1209 C1228 1.368 . S
C1209 H1233 0.949 . S
H1210 C1214 0.949 . S
C1211 C1212 1.349 . S
C1211 C1213 1.327 . S
C1211 H1234 0.950 . S
C1212 C1211 1.349 . S
C1212 C1224 1.349 . S
C1213 C1211 1.327 . S
C1213 C1229 1.429 . S
C1213 H1235 0.950 . S
C1214 H1210 0.949 . S
C1214 C1222 1.574 . S
C1214 C1230 1.368 . S
H1215 C1223 0.950 . S
H1216 C1221 0.950 . S
H1217 C1222 0.949 . S
H1218 C1224 0.950 . S
H1219 C1225 0.950 . S
H1220 C1226 0.949 . S
C1221 H1216 0.950 . S
C1221 C1223 1.327 1_556 S
C1221 C1227 1.429 . S
C1222 C1214 1.574 . S
C1222 H1217 0.949 . S
C1222 C1228 1.368 . S
C1223 C1207 1.349 . S
C1223 H1215 0.950 . S
C1223 C1221 1.327 1_554 S
C1224 C1212 1.349 . S
C1224 H1218 0.950 . S
C1224 C1225 1.327 . S
C1225 H1219 0.950 . S
C1225 C1224 1.327 . S
C1225 C1229 1.429 . S
C1226 C1209 1.574 . S
C1226 H1220 0.949 . S
C1226 C1230 1.368 . S
C1227 C1208 1.429 1_556 S
C1227 C1221 1.429 . S
C1227 C1228 1.523 . S
C1228 C1209 1.368 . S
C1228 C1222 1.368 . S
C1228 C1227 1.523 . S
C1229 C1213 1.429 . S
C1229 C1225 1.429 . S
C1229 C1230 1.523 . S
C1230 C1214 1.368 . S
C1230 C1226 1.368 . S
C1230 C1229 1.523 . S
H1231 C1206 0.950 . S
H1232 C1208 0.950 . S
H1233 C1209 0.949 . S
H1234 C1211 0.950 . S
H1235 C1213 0.950 . S
C1236 C1237 1.349 . S
C1236 C1238 1.327 . S
C1236 H1261 0.950 . S
C1237 C1236 1.349 . S
C1237 C1253 1.349 . S
C1238 C1236 1.327 . S
C1238 C1257 1.429 . S
C1238 H1262 0.950 . S
C1239 C1256 1.574 . S
C1239 C1258 1.368 . S
C1239 H1263 0.949 . S
H1240 C1244 0.949 . S
C1241 C1242 1.349 . S
C1241 C1243 1.327 . S
C1241 H1264 0.950 . S
C1242 C1241 1.349 . S
C1242 C1254 1.349 . S
C1243 C1241 1.327 . S
C1243 C1259 1.429 . S
C1243 H1265 0.950 . S
C1244 H1240 0.949 . S
C1244 C1252 1.574 . S
C1244 C1260 1.368 . S
H1245 C1253 0.950 . S
H1246 C1251 0.950 . S
H1247 C1252 0.949 . S
H1248 C1254 0.950 . S
H1249 C1255 0.950 . S
H1250 C1256 0.949 . S
C1251 H1246 0.950 . S
C1251 C1253 1.327 . S
C1251 C1257 1.429 . S
C1252 C1244 1.574 . S
C1252 H1247 0.949 . S
C1252 C1258 1.368 . S
C1253 C1237 1.349 . S
C1253 H1245 0.950 . S
C1253 C1251 1.327 . S
C1254 C1242 1.349 . S
C1254 H1248 0.950 . S
C1254 C1255 1.327 . S
C1255 H1249 0.950 . S
C1255 C1254 1.327 . S
C1255 C1259 1.429 . S
C1256 C1239 1.574 . S
C1256 H1250 0.949 . S
C1256 C1260 1.368 . S
C1257 C1238 1.429 . S
C1257 C1251 1.429 . S
C1257 C1258 1.523 . S
C1258 C1239 1.368 . S
C1258 C1252 1.368 . S
C1258 C1257 1.523 . S
C1259 C1243 1.429 . S
C1259 C1255 1.429 . S
C1259 C1260 1.523 . S
C1260 C1244 1.368 . S
C1260 C1256 1.368 . S
C1260 C1259 1.523 . S
H1261 C1236 0.950 . S
H1262 C1238 0.950 . S
H1263 C1239 0.949 . S
H1264 C1241 0.950 . S
H1265 C1243 0.950 . S
C1266 C1267 1.349 . S
C1266 C1268 1.327 . S
C1266 H1291 0.950 . S
C1267 C1266 1.349 . S
C1267 C1283 1.349 . S
C1268 C1266 1.327 . S
C1268 C1287 1.429 . S
C1268 H1292 0.950 . S
C1269 C1286 1.574 . S
C1269 C1288 1.368 . S
C1269 H1293 0.949 . S
H1270 C1274 0.949 . S
C1271 C1272 1.349 . S
C1271 C1273 1.327 . S
C1271 H1294 0.950 . S
C1272 C1271 1.349 . S
C1272 C1284 1.349 . S
C1273 C1271 1.327 . S
C1273 C1289 1.429 . S
C1273 H1295 0.950 . S
C1274 H1270 0.949 . S
C1274 C1282 1.574 . S
C1274 C1290 1.368 . S
H1275 C1283 0.950 . S
H1276 C1281 0.950 . S
H1277 C1282 0.949 . S
H1278 C1284 0.950 . S
H1279 C1285 0.950 . S
H1280 C1286 0.949 . S
C1281 H1276 0.950 . S
C1281 C1283 1.327 . S
C1281 C1287 1.429 . S
C1282 C1274 1.574 . S
C1282 H1277 0.949 . S
C1282 C1288 1.368 . S
C1283 C1267 1.349 . S
C1283 H1275 0.950 . S
C1283 C1281 1.327 . S
C1284 C1272 1.349 . S
C1284 H1278 0.950 . S
C1284 C1285 1.327 . S
C1285 H1279 0.950 . S
C1285 C1284 1.327 . S
C1285 C1289 1.429 . S
C1286 C1269 1.574 . S
C1286 H1280 0.949 . S
C1286 C1290 1.368 . S
C1287 C1268 1.429 . S
C1287 C1281 1.429 . S
C1287 C1288 1.523 . S
C1288 C1269 1.368 . S
C1288 C1282 1.368 . S
C1288 C1287 1.523 . S
C1289 C1273 1.429 . S
C1289 C1285 1.429 . S
C1289 C1290 1.523 . S
C1290 C1274 1.368 . S
C1290 C1286 1.368 . S
C1290 C1289 1.523 . S
H1291 C1266 0.950 . S
H1292 C1268 0.950 . S
H1293 C1269 0.949 . S
H1294 C1271 0.950 . S
H1295 C1273 0.950 . S
C1296 C1297 1.349 . S
C1296 C1298 1.327 . S
C1296 H1321 0.950 . S
C1297 C1296 1.349 . S
C1297 C1313 1.349 . S
C1298 C1296 1.327 . S
C1298 C1317 1.429 . S
C1298 H1322 0.950 . S
C1299 C1316 1.574 . S
C1299 C1318 1.368 . S
C1299 H1323 0.949 . S
H1300 C1304 0.949 . S
C1301 C1302 1.349 . S
C1301 C1303 1.327 . S
C1301 H1324 0.950 . S
C1302 C1301 1.349 . S
C1302 C1314 1.349 . S
C1303 C1301 1.327 . S
C1303 C1319 1.429 . S
C1303 H1325 0.950 . S
C1304 H1300 0.949 . S
C1304 C1312 1.574 . S
C1304 C1320 1.368 . S
H1305 C1313 0.950 . S
H1306 C1311 0.950 . S
H1307 C1312 0.949 . S
H1308 C1314 0.950 . S
H1309 C1315 0.950 . S
H1310 C1316 0.949 . S
C1311 H1306 0.950 . S
C1311 C1313 1.327 . S
C1311 C1317 1.429 . S
C1312 C1304 1.574 . S
C1312 H1307 0.949 . S
C1312 C1318 1.368 . S
C1313 C1297 1.349 . S
C1313 H1305 0.950 . S
C1313 C1311 1.327 . S
C1314 C1302 1.349 . S
C1314 H1308 0.950 . S
C1314 C1315 1.327 . S
C1315 H1309 0.950 . S
C1315 C1314 1.327 . S
C1315 C1319 1.429 . S
C1316 C1299 1.574 . S
C1316 H1310 0.949 . S
C1316 C1320 1.368 . S
C1317 C1298 1.429 . S
C1317 C1311 1.429 . S
C1317 C1318 1.523 . S
C1318 C1299 1.368 . S
C1318 C1312 1.368 . S
C1318 C1317 1.523 . S
C1319 C1303 1.429 . S
C1319 C1315 1.429 . S
C1319 C1320 1.523 . S
C1320 C1304 1.368 . S
C1320 C1316 1.368 . S
C1320 C1319 1.523 . S
H1321 C1296 0.950 . S
H1322 C1298 0.950 . S
H1323 C1299 0.949 . S
H1324 C1301 0.950 . S
H1325 C1303 0.950 . S
C1326 C1327 1.349 . S
C1326 C1328 1.327 1_655 S
C1326 H1351 0.948 1_655 S
C1327 C1326 1.349 . S
C1327 C1343 1.349 . S
C1328 C1326 1.327 1_455 S
C1328 C1347 1.434 1_565 S
C1328 H1352 0.950 . S
C1329 C1346 1.574 . S
C1329 C1348 1.368 . S
C1329 H1353 0.949 1_455 S
H1330 C1334 0.949 . S
C1331 C1332 1.349 . S
C1331 C1333 1.327 . S
C1331 H1354 0.950 . S
C1332 C1331 1.349 . S
C1332 C1344 1.349 . S
C1333 C1331 1.327 . S
C1333 C1349 1.429 . S
C1333 H1355 0.950 . S
C1334 H1330 0.949 . S
C1334 C1342 1.574 . S
C1334 C1350 1.368 . S
H1335 C1343 0.950 . S
H1336 C1341 0.950 1_545 S
H1337 C1342 0.949 . S
H1338 C1344 0.950 . S
H1339 C1345 0.950 . S
H1340 C1346 0.949 . S
C1341 H1336 0.950 1_565 S
C1341 C1343 1.327 . S
C1341 C1347 1.412 1_665 S
C1342 C1334 1.574 . S
C1342 H1337 0.949 . S
C1342 C1348 1.368 . S
C1343 C1327 1.349 . S
C1343 H1335 0.950 . S
C1343 C1341 1.327 . S
C1344 C1332 1.349 . S
C1344 H1338 0.950 . S
C1344 C1345 1.327 . S
C1345 H1339 0.950 . S
C1345 C1344 1.327 . S
C1345 C1349 1.429 . S
C1346 C1329 1.574 . S
C1346 H1340 0.949 . S
C1346 C1350 1.368 . S
C1347 C1328 1.434 1_545 S
C1347 C1341 1.412 1_445 S
C1347 C1348 1.534 . S
C1348 C1329 1.368 . S
C1348 C1342 1.368 . S
C1348 C1347 1.534 . S
C1349 C1333 1.429 . S
C1349 C1345 1.429 . S
C1349 C1350 1.523 . S
C1350 C1334 1.368 . S
C1350 C1346 1.368 . S
C1350 C1349 1.523 . S
H1351 C1326 0.948 1_455 S
H1352 C1328 0.950 . S
H1353 C1329 0.949 1_655 S
H1354 C1331 0.950 . S
H1355 C1333 0.950 . S
C1356 C1357 1.349 . S
C1356 C1358 1.327 . S
C1356 H1381 0.950 . S
C1357 C1356 1.349 . S
C1357 C1373 1.349 . S
C1358 C1356 1.327 . S
C1358 C1377 1.429 . S
C1358 H1382 0.950 . S
C1359 C1376 1.574 . S
C1359 C1378 1.368 . S
C1359 H1383 0.949 . S
H1360 C1364 0.949 . S
C1361 C1362 1.349 . S
C1361 C1363 1.327 . S
C1361 H1384 0.950 . S
C1362 C1361 1.349 . S
C1362 C1374 1.349 . S
C1363 C1361 1.327 . S
C1363 C1379 1.429 . S
C1363 H1385 0.950 . S
C1364 H1360 0.949 . S
C1364 C1372 1.574 . S
C1364 C1380 1.368 . S
H1365 C1373 0.950 . S
H1366 C1371 0.950 . S
H1367 C1372 0.949 . S
H1368 C1374 0.950 . S
H1369 C1375 0.950 . S
H1370 C1376 0.949 . S
C1371 H1366 0.950 . S
C1371 C1373 1.327 . S
C1371 C1377 1.429 . S
C1372 C1364 1.574 . S
C1372 H1367 0.949 . S
C1372 C1378 1.368 . S
C1373 C1357 1.349 . S
C1373 H1365 0.950 . S
C1373 C1371 1.327 . S
C1374 C1362 1.349 . S
C1374 H1368 0.950 . S
C1374 C1375 1.327 . S
C1375 H1369 0.950 . S
C1375 C1374 1.327 . S
C1375 C1379 1.429 . S
C1376 C1359 1.574 . S
C1376 H1370 0.949 . S
C1376 C1380 1.368 . S
C1377 C1358 1.429 . S
C1377 C1371 1.429 . S
C1377 C1378 1.523 . S
C1378 C1359 1.368 . S
C1378 C1372 1.368 . S
C1378 C1377 1.523 . S
C1379 C1363 1.429 . S
C1379 C1375 1.429 . S
C1379 C1380 1.523 . S
C1380 C1364 1.368 . S
C1380 C1376 1.368 . S
C1380 C1379 1.523 . S
H1381 C1356 0.950 . S
H1382 C1358 0.950 . S
H1383 C1359 0.949 . S
H1384 C1361 0.950 . S
H1385 C1363 0.950 . S
C1386 C1387 1.349 . S
C1386 C1388 1.327 . S
C1386 H1411 0.950 . S
C1387 C1386 1.349 . S
C1387 C1403 1.349 . S
C1388 C1386 1.327 . S
C1388 C1407 1.429 1_545 S
C1388 H1412 0.950 . S
C1389 C1406 1.574 . S
C1389 C1408 1.368 . S
C1389 H1413 0.949 . S
H1390 C1394 0.949 . S
C1391 C1392 1.349 . S
C1391 C1393 1.327 . S
C1391 H1414 0.950 . S
C1392 C1391 1.349 . S
C1392 C1404 1.349 . S
C1393 C1391 1.327 . S
C1393 C1409 1.429 . S
C1393 H1415 0.950 . S
C1394 H1390 0.949 . S
C1394 C1402 1.574 . S
C1394 C1410 1.368 . S
H1395 C1403 0.950 . S
H1396 C1401 0.950 . S
H1397 C1402 0.949 . S
H1398 C1404 0.950 . S
H1399 C1405 0.950 . S
H1400 C1406 0.949 . S
C1401 H1396 0.950 . S
C1401 C1403 1.327 1_565 S
C1401 C1407 1.429 . S
C1402 C1394 1.574 . S
C1402 H1397 0.949 . S
C1402 C1408 1.368 . S
C1403 C1387 1.349 . S
C1403 H1395 0.950 . S
C1403 C1401 1.327 1_545 S
C1404 C1392 1.349 . S
C1404 H1398 0.950 . S
C1404 C1405 1.327 . S
C1405 H1399 0.950 . S
C1405 C1404 1.327 . S
C1405 C1409 1.429 . S
C1406 C1389 1.574 . S
C1406 H1400 0.949 . S
C1406 C1410 1.368 . S
C1407 C1388 1.429 1_565 S
C1407 C1401 1.429 . S
C1407 C1408 1.523 . S
C1408 C1389 1.368 . S
C1408 C1402 1.368 . S
C1408 C1407 1.523 . S
C1409 C1393 1.429 . S
C1409 C1405 1.429 . S
C1409 C1410 1.523 . S
C1410 C1394 1.368 . S
C1410 C1406 1.368 . S
C1410 C1409 1.523 . S
H1411 C1386 0.950 . S
H1412 C1388 0.950 . S
H1413 C1389 0.949 . S
H1414 C1391 0.950 . S
H1415 C1393 0.950 . S
C1416 C1417 1.349 . S
C1416 C1418 1.327 . S
C1416 H1441 0.950 . S
C1417 C1416 1.349 . S
C1417 C1433 1.349 . S
C1418 C1416 1.327 . S
C1418 C1437 1.429 . S
C1418 H1442 0.950 . S
C1419 C1436 1.574 . S
C1419 C1438 1.368 . S
C1419 H1443 0.949 . S
H1420 C1424 0.949 . S
C1421 C1422 1.349 . S
C1421 C1423 1.327 . S
C1421 H1444 0.950 . S
C1422 C1421 1.349 . S
C1422 C1434 1.349 . S
C1423 C1421 1.327 . S
C1423 C1439 1.429 . S
C1423 H1445 0.950 . S
C1424 H1420 0.949 . S
C1424 C1432 1.574 . S
C1424 C1440 1.368 . S
H1425 C1433 0.950 . S
H1426 C1431 0.950 . S
H1427 C1432 0.949 . S
H1428 C1434 0.950 . S
H1429 C1435 0.950 . S
H1430 C1436 0.949 . S
C1431 H1426 0.950 . S
C1431 C1433 1.327 . S
C1431 C1437 1.429 . S
C1432 C1424 1.574 . S
C1432 H1427 0.949 . S
C1432 C1438 1.368 . S
C1433 C1417 1.349 . S
C1433 H1425 0.950 . S
C1433 C1431 1.327 . S
C1434 C1422 1.349 . S
C1434 H1428 0.950 . S
C1434 C1435 1.327 . S
C1435 H1429 0.950 . S
C1435 C1434 1.327 . S
C1435 C1439 1.429 . S
C1436 C1419 1.574 . S
C1436 H1430 0.949 . S
C1436 C1440 1.368 . S
C1437 C1418 1.429 . S
C1437 C1431 1.429 . S
C1437 C1438 1.523 . S
C1438 C1419 1.368 . S
C1438 C1432 1.368 . S
C1438 C1437 1.523 . S
C1439 C1423 1.429 . S
C1439 C1435 1.429 . S
C1439 C1440 1.523 . S
C1440 C1424 1.368 . S
C1440 C1436 1.368 . S
C1440 C1439 1.523 . S
H1441 C1416 0.950 . S
H1442 C1418 0.950 . S
H1443 C1419 0.949 . S
H1444 C1421 0.950 . S
H1445 C1423 0.950 . S
C1446 C1447 1.349 . S
C1446 C1448 1.327 1_455 S
C1446 H1471 0.950 . S
C1447 C1446 1.349 . S
C1447 C1463 1.349 . S
C1448 C1446 1.327 1_655 S
C1448 C1467 1.430 . S
C1448 H1472 0.950 . S
C1449 C1466 1.574 . S
C1449 C1468 1.368 . S
C1449 H1473 0.947 1_655 S
H1450 C1454 0.949 . S
C1451 C1452 1.349 . S
C1451 C1453 1.327 . S
C1451 H1474 0.950 . S
C1452 C1451 1.349 . S
C1452 C1464 1.349 . S
C1453 C1451 1.327 . S
C1453 C1469 1.429 . S
C1453 H1475 0.950 . S
C1454 H1450 0.949 . S
C1454 C1462 1.574 . S
C1454 C1470 1.368 . S
H1455 C1463 0.950 . S
H1456 C1461 0.950 . S
H1457 C1462 0.949 . S
H1458 C1464 0.950 . S
H1459 C1465 0.950 . S
H1460 C1466 0.949 . S
C1461 H1456 0.950 . S
C1461 C1463 1.327 . S
C1461 C1467 1.416 1_455 S
C1462 C1454 1.574 . S
C1462 H1457 0.949 . S
C1462 C1468 1.368 . S
C1463 C1447 1.349 . S
C1463 H1455 0.950 . S
C1463 C1461 1.327 . S
C1464 C1452 1.349 . S
C1464 H1458 0.950 . S
C1464 C1465 1.327 . S
C1465 H1459 0.950 . S
C1465 C1464 1.327 . S
C1465 C1469 1.429 . S
C1466 C1449 1.574 . S
C1466 H1460 0.949 . S
C1466 C1470 1.368 . S
C1467 C1448 1.430 . S
C1467 C1461 1.416 1_655 S
C1467 C1468 1.534 . S
C1468 C1449 1.368 . S
C1468 C1462 1.368 . S
C1468 C1467 1.534 . S
C1469 C1453 1.429 . S
C1469 C1465 1.429 . S
C1469 C1470 1.523 . S
C1470 C1454 1.368 . S
C1470 C1466 1.368 . S
C1470 C1469 1.523 . S
H1471 C1446 0.950 . S
H1472 C1448 0.950 . S
H1473 C1449 0.947 1_455 S
H1474 C1451 0.950 . S
H1475 C1453 0.950 . S
C1476 C1477 1.349 . S
C1476 C1478 1.327 . S
C1476 H1501 0.950 . S
C1477 C1476 1.349 . S
C1477 C1493 1.349 . S
C1478 C1476 1.327 . S
C1478 C1497 1.429 . S
C1478 H1502 0.950 . S
C1479 C1496 1.574 . S
C1479 C1498 1.368 . S
C1479 H1503 0.949 . S
H1480 C1484 0.949 . S
C1481 C1482 1.349 . S
C1481 C1483 1.327 . S
C1481 H1504 0.950 . S
C1482 C1481 1.349 . S
C1482 C1494 1.349 . S
C1483 C1481 1.327 . S
C1483 C1499 1.429 . S
C1483 H1505 0.950 . S
C1484 H1480 0.949 . S
C1484 C1492 1.574 . S
C1484 C1500 1.368 . S
H1485 C1493 0.950 . S
H1486 C1491 0.950 . S
H1487 C1492 0.949 . S
H1488 C1494 0.950 . S
H1489 C1495 0.950 . S
H1490 C1496 0.949 . S
C1491 H1486 0.950 . S
C1491 C1493 1.327 . S
C1491 C1497 1.429 . S
C1492 C1484 1.574 . S
C1492 H1487 0.949 . S
C1492 C1498 1.368 . S
C1493 C1477 1.349 . S
C1493 H1485 0.950 . S
C1493 C1491 1.327 . S
C1494 C1482 1.349 . S
C1494 H1488 0.950 . S
C1494 C1495 1.327 . S
C1495 H1489 0.950 . S
C1495 C1494 1.327 . S
C1495 C1499 1.429 . S
C1496 C1479 1.574 . S
C1496 H1490 0.949 . S
C1496 C1500 1.368 . S
C1497 C1478 1.429 . S
C1497 C1491 1.429 . S
C1497 C1498 1.523 . S
C1498 C1479 1.368 . S
C1498 C1492 1.368 . S
C1498 C1497 1.523 . S
C1499 C1483 1.429 . S
C1499 C1495 1.429 . S
C1499 C1500 1.523 . S
C1500 C1484 1.368 . S
C1500 C1496 1.368 . S
C1500 C1499 1.523 . S
H1501 C1476 0.950 . S
H1502 C1478 0.950 . S
H1503 C1479 0.949 . S
H1504 C1481 0.950 . S
H1505 C1483 0.950 . S
C1506 C1507 1.349 . S
C1506 C1508 1.327 . S
C1506 H1531 0.950 . S
C1507 C1506 1.349 . S
C1507 C1523 1.349 . S
C1508 C1506 1.327 . S
C1508 C1527 1.429 . S
C1508 H1532 0.950 . S
C1509 C1526 1.574 . S
C1509 C1528 1.368 . S
C1509 H1533 0.949 . S
H1510 C1514 0.949 . S
C1511 C1512 1.349 . S
C1511 C1513 1.327 . S
C1511 H1534 0.950 . S
C1512 C1511 1.349 . S
C1512 C1524 1.349 . S
C1513 C1511 1.327 . S
C1513 C1529 1.429 . S
C1513 H1535 0.950 . S
C1514 H1510 0.949 . S
C1514 C1522 1.574 . S
C1514 C1530 1.368 . S
H1515 C1523 0.950 . S
H1516 C1521 0.950 . S
H1517 C1522 0.949 . S
H1518 C1524 0.950 . S
H1519 C1525 0.950 . S
H1520 C1526 0.949 . S
C1521 H1516 0.950 . S
C1521 C1523 1.327 . S
C1521 C1527 1.429 . S
C1522 C1514 1.574 . S
C1522 H1517 0.949 . S
C1522 C1528 1.368 . S
C1523 C1507 1.349 . S
C1523 H1515 0.950 . S
C1523 C1521 1.327 . S
C1524 C1512 1.349 . S
C1524 H1518 0.950 . S
C1524 C1525 1.327 . S
C1525 H1519 0.950 . S
C1525 C1524 1.327 . S
C1525 C1529 1.429 . S
C1526 C1509 1.574 . S
C1526 H1520 0.949 . S
C1526 C1530 1.368 . S
C1527 C1508 1.429 . S
C1527 C1521 1.429 . S
C1527 C1528 1.523 . S
C1528 C1509 1.368 . S
C1528 C1522 1.368 . S
C1528 C1527 1.523 . S
C1529 C1513 1.429 . S
C1529 C1525 1.429 . S
C1529 C1530 1.523 . S
C1530 C1514 1.368 . S
C1530 C1526 1.368 . S
C1530 C1529 1.523 . S
H1531 C1506 0.950 . S
H1532 C1508 0.950 . S
H1533 C1509 0.949 . S
H1534 C1511 0.950 . S
H1535 C1513 0.950 . S
C1536 C1537 1.349 . S
C1536 C1538 1.327 . S
C1536 H1561 0.950 . S
C1537 C1536 1.349 . S
C1537 C1553 1.349 . S
C1538 C1536 1.327 . S
C1538 C1557 1.429 . S
C1538 H1562 0.950 . S
C1539 C1556 1.574 . S
C1539 C1558 1.368 . S
C1539 H1563 0.949 . S
H1540 C1544 0.949 . S
C1541 C1542 1.349 . S
C1541 C1543 1.327 . S
C1541 H1564 0.950 . S
C1542 C1541 1.349 . S
C1542 C1554 1.349 . S
C1543 C1541 1.327 . S
C1543 C1559 1.429 . S
C1543 H1565 0.950 . S
C1544 H1540 0.949 . S
C1544 C1552 1.574 . S
C1544 C1560 1.368 . S
H1545 C1553 0.950 . S
H1546 C1551 0.950 . S
H1547 C1552 0.949 . S
H1548 C1554 0.950 . S
H1549 C1555 0.950 . S
H1550 C1556 0.949 . S
C1551 H1546 0.950 . S
C1551 C1553 1.327 . S
C1551 C1557 1.429 . S
C1552 C1544 1.574 . S
C1552 H1547 0.949 . S
C1552 C1558 1.368 . S
C1553 C1537 1.349 . S
C1553 H1545 0.950 . S
C1553 C1551 1.327 . S
C1554 C1542 1.349 . S
C1554 H1548 0.950 . S
C1554 C1555 1.327 . S
C1555 H1549 0.950 . S
C1555 C1554 1.327 . S
C1555 C1559 1.429 . S
C1556 C1539 1.574 . S
C1556 H1550 0.949 . S
C1556 C1560 1.368 . S
C1557 C1538 1.429 . S
C1557 C1551 1.429 . S
C1557 C1558 1.523 . S
C1558 C1539 1.368 . S
C1558 C1552 1.368 . S
C1558 C1557 1.523 . S
C1559 C1543 1.429 . S
C1559 C1555 1.429 . S
C1559 C1560 1.523 . S
C1560 C1544 1.368 . S
C1560 C1556 1.368 . S
C1560 C1559 1.523 . S
H1561 C1536 0.950 . S
H1562 C1538 0.950 . S
H1563 C1539 0.949 . S
H1564 C1541 0.950 . S
H1565 C1543 0.950 . S
C1566 C1567 1.349 . S
C1566 C1568 1.327 . S
C1566 H1591 0.950 . S
C1567 C1566 1.349 . S
C1567 C1583 1.349 . S
C1568 C1566 1.327 . S
C1568 C1587 1.429 . S
C1568 H1592 0.950 . S
C1569 C1586 1.574 . S
C1569 C1588 1.368 . S
C1569 H1593 0.949 . S
H1570 C1574 0.949 . S
C1571 C1572 1.349 . S
C1571 C1573 1.327 . S
C1571 H1594 0.950 . S
C1572 C1571 1.349 . S
C1572 C1584 1.349 . S
C1573 C1571 1.327 . S
C1573 C1589 1.429 . S
C1573 H1595 0.950 . S
C1574 H1570 0.949 . S
C1574 C1582 1.574 . S
C1574 C1590 1.368 . S
H1575 C1583 0.950 . S
H1576 C1581 0.950 . S
H1577 C1582 0.949 . S
H1578 C1584 0.950 . S
H1579 C1585 0.950 . S
H1580 C1586 0.949 . S
C1581 H1576 0.950 . S
C1581 C1583 1.327 . S
C1581 C1587 1.429 . S
C1582 C1574 1.574 . S
C1582 H1577 0.949 . S
C1582 C1588 1.368 . S
C1583 C1567 1.349 . S
C1583 H1575 0.950 . S
C1583 C1581 1.327 . S
C1584 C1572 1.349 . S
C1584 H1578 0.950 . S
C1584 C1585 1.327 . S
C1585 H1579 0.950 . S
C1585 C1584 1.327 . S
C1585 C1589 1.429 . S
C1586 C1569 1.574 . S
C1586 H1580 0.949 . S
C1586 C1590 1.368 . S
C1587 C1568 1.429 . S
C1587 C1581 1.429 . S
C1587 C1588 1.523 . S
C1588 C1569 1.368 . S
C1588 C1582 1.368 . S
C1588 C1587 1.523 . S
C1589 C1573 1.429 . S
C1589 C1585 1.429 . S
C1589 C1590 1.523 . S
C1590 C1574 1.368 . S
C1590 C1586 1.368 . S
C1590 C1589 1.523 . S
H1591 C1566 0.950 . S
H1592 C1568 0.950 . S
H1593 C1569 0.949 . S
H1594 C1571 0.950 . S
H1595 C1573 0.950 . S
C1596 C1597 1.349 . S
C1596 C1598 1.327 1_556 S
C1596 H1621 0.950 1_556 S
C1597 C1596 1.349 . S
C1597 C1613 1.349 . S
C1598 C1596 1.327 1_554 S
C1598 C1617 1.435 1_655 S
C1598 H1622 0.950 . S
C1599 C1616 1.574 . S
C1599 C1618 1.368 . S
C1599 H1623 0.949 1_554 S
H1600 C1604 0.949 . S
C1601 C1602 1.349 . S
C1601 C1603 1.327 . S
C1601 H1624 0.950 . S
C1602 C1601 1.349 . S
C1602 C1614 1.349 . S
C1603 C1601 1.327 . S
C1603 C1619 1.429 . S
C1603 H1625 0.950 . S
C1604 H1600 0.949 . S
C1604 C1612 1.574 . S
C1604 C1620 1.368 . S
H1605 C1613 0.950 . S
H1606 C1611 0.950 1_455 S
H1607 C1612 0.949 . S
H1608 C1614 0.950 . S
H1609 C1615 0.950 . S
H1610 C1616 0.949 . S
C1611 H1606 0.950 1_655 S
C1611 C1613 1.327 . S
C1611 C1617 1.411 1_656 S
C1612 C1604 1.574 . S
C1612 H1607 0.949 . S
C1612 C1618 1.368 . S
C1613 C1597 1.349 . S
C1613 H1605 0.950 . S
C1613 C1611 1.327 . S
C1614 C1602 1.349 . S
C1614 H1608 0.950 . S
C1614 C1615 1.327 . S
C1615 H1609 0.950 . S
C1615 C1614 1.327 . S
C1615 C1619 1.429 . S
C1616 C1599 1.574 . S
C1616 H1610 0.949 . S
C1616 C1620 1.368 . S
C1617 C1598 1.435 1_455 S
C1617 C1611 1.411 1_454 S
C1617 C1618 1.534 . S
C1618 C1599 1.368 . S
C1618 C1612 1.368 . S
C1618 C1617 1.534 . S
C1619 C1603 1.429 . S
C1619 C1615 1.429 . S
C1619 C1620 1.523 . S
C1620 C1604 1.368 . S
C1620 C1616 1.368 . S
C1620 C1619 1.523 . S
H1621 C1596 0.950 1_554 S
H1622 C1598 0.950 . S
H1623 C1599 0.949 1_556 S
H1624 C1601 0.950 . S
H1625 C1603 0.950 . S
C1626 C1627 1.349 . S
C1626 C1628 1.327 . S
C1626 H1651 0.950 . S
C1627 C1626 1.349 . S
C1627 C1643 1.349 . S
C1628 C1626 1.327 . S
C1628 C1647 1.429 . S
C1628 H1652 0.950 . S
C1629 C1646 1.574 . S
C1629 C1648 1.368 . S
C1629 H1653 0.949 . S
H1630 C1634 0.949 . S
C1631 C1632 1.349 . S
C1631 C1633 1.327 . S
C1631 H1654 0.950 . S
C1632 C1631 1.349 . S
C1632 C1644 1.349 . S
C1633 C1631 1.327 . S
C1633 C1649 1.429 . S
C1633 H1655 0.950 . S
C1634 H1630 0.949 . S
C1634 C1642 1.574 . S
C1634 C1650 1.368 . S
H1635 C1643 0.950 . S
H1636 C1641 0.950 . S
H1637 C1642 0.949 . S
H1638 C1644 0.950 . S
H1639 C1645 0.950 . S
H1640 C1646 0.949 . S
C1641 H1636 0.950 . S
C1641 C1643 1.327 . S
C1641 C1647 1.429 . S
C1642 C1634 1.574 . S
C1642 H1637 0.949 . S
C1642 C1648 1.368 . S
C1643 C1627 1.349 . S
C1643 H1635 0.950 . S
C1643 C1641 1.327 . S
C1644 C1632 1.349 . S
C1644 H1638 0.950 . S
C1644 C1645 1.327 . S
C1645 H1639 0.950 . S
C1645 C1644 1.327 . S
C1645 C1649 1.429 . S
C1646 C1629 1.574 . S
C1646 H1640 0.949 . S
C1646 C1650 1.368 . S
C1647 C1628 1.429 . S
C1647 C1641 1.429 . S
C1647 C1648 1.523 . S
C1648 C1629 1.368 . S
C1648 C1642 1.368 . S
C1648 C1647 1.523 . S
C1649 C1633 1.429 . S
C1649 C1645 1.429 . S
C1649 C1650 1.523 . S
C1650 C1634 1.368 . S
C1650 C1646 1.368 . S
C1650 C1649 1.523 . S
H1651 C1626 0.950 . S
H1652 C1628 0.950 . S
H1653 C1629 0.949 . S
H1654 C1631 0.950 . S
H1655 C1633 0.950 . S
C1656 C1657 1.349 . S
C1656 C1658 1.327 . S
C1656 H1681 0.950 . S
C1657 C1656 1.349 . S
C1657 C1673 1.349 . S
C1658 C1656 1.327 . S
C1658 C1677 1.429 . S
C1658 H1682 0.950 . S
C1659 C1676 1.574 . S
C1659 C1678 1.368 . S
C1659 H1683 0.949 . S
H1660 C1664 0.949 . S
C1661 C1662 1.349 . S
C1661 C1663 1.327 . S
C1661 H1684 0.950 . S
C1662 C1661 1.349 . S
C1662 C1674 1.349 . S
C1663 C1661 1.327 . S
C1663 C1679 1.429 . S
C1663 H1685 0.950 . S
C1664 H1660 0.949 . S
C1664 C1672 1.574 . S
C1664 C1680 1.368 . S
H1665 C1673 0.950 . S
H1666 C1671 0.950 . S
H1667 C1672 0.949 . S
H1668 C1674 0.950 . S
H1669 C1675 0.950 . S
H1670 C1676 0.949 . S
C1671 H1666 0.950 . S
C1671 C1673 1.327 . S
C1671 C1677 1.429 . S
C1672 C1664 1.574 . S
C1672 H1667 0.949 . S
C1672 C1678 1.368 . S
C1673 C1657 1.349 . S
C1673 H1665 0.950 . S
C1673 C1671 1.327 . S
C1674 C1662 1.349 . S
C1674 H1668 0.950 . S
C1674 C1675 1.327 . S
C1675 H1669 0.950 . S
C1675 C1674 1.327 . S
C1675 C1679 1.429 . S
C1676 C1659 1.574 . S
C1676 H1670 0.949 . S
C1676 C1680 1.368 . S
C1677 C1658 1.429 . S
C1677 C1671 1.429 . S
C1677 C1678 1.523 . S
C1678 C1659 1.368 . S
C1678 C1672 1.368 . S
C1678 C1677 1.523 . S
C1679 C1663 1.429 . S
C1679 C1675 1.429 . S
C1679 C1680 1.523 . S
C1680 C1664 1.368 . S
C1680 C1676 1.368 . S
C1680 C1679 1.523 . S
H1681 C1656 0.950 . S
H1682 C1658 0.950 . S
H1683 C1659 0.949 . S
H1684 C1661 0.950 . S
H1685 C1663 0.950 . S
C1686 C1687 1.349 . S
C1686 C1688 1.327 . S
C1686 H1711 0.950 . S
C1687 C1686 1.349 . S
C1687 C1703 1.349 . S
C1688 C1686 1.327 . S
C1688 C1707 1.429 . S
C1688 H1712 0.950 . S
C1689 C1706 1.574 . S
C1689 C1708 1.368 . S
C1689 H1713 0.949 . S
H1690 C1694 0.949 . S
C1691 C1692 1.349 . S
C1691 C1693 1.327 . S
C1691 H1714 0.950 . S
C1692 C1691 1.349 . S
C1692 C1704 1.349 . S
C1693 C1691 1.327 . S
C1693 C1709 1.429 . S
C1693 H1715 0.950 . S
C1694 H1690 0.949 . S
C1694 C1702 1.574 . S
C1694 C1710 1.368 . S
H1695 C1703 0.950 . S
H1696 C1701 0.950 . S
H1697 C1702 0.949 . S
H1698 C1704 0.950 . S
H1699 C1705 0.950 . S
H1700 C1706 0.949 . S
C1701 H1696 0.950 . S
C1701 C1703 1.327 . S
C1701 C1707 1.429 . S
C1702 C1694 1.574 . S
C1702 H1697 0.949 . S
C1702 C1708 1.368 . S
C1703 C1687 1.349 . S
C1703 H1695 0.950 . S
C1703 C1701 1.327 . S
C1704 C1692 1.349 . S
C1704 H1698 0.950 . S
C1704 C1705 1.327 . S
C1705 H1699 0.950 . S
C1705 C1704 1.327 . S
C1705 C1709 1.429 . S
C1706 C1689 1.574 . S
C1706 H1700 0.949 . S
C1706 C1710 1.368 . S
C1707 C1688 1.429 . S
C1707 C1701 1.429 . S
C1707 C1708 1.523 . S
C1708 C1689 1.368 . S
C1708 C1702 1.368 . S
C1708 C1707 1.523 . S
C1709 C1693 1.429 . S
C1709 C1705 1.429 . S
C1709 C1710 1.523 . S
C1710 C1694 1.368 . S
C1710 C1706 1.368 . S
C1710 C1709 1.523 . S
H1711 C1686 0.950 . S
H1712 C1688 0.950 . S
H1713 C1689 0.949 . S
H1714 C1691 0.950 . S
H1715 C1693 0.950 . S
C1716 C1717 1.349 . S
C1716 C1718 1.327 . S
C1716 H1741 0.950 . S
C1717 C1716 1.349 . S
C1717 C1733 1.308 1_554 S
C1718 C1716 1.327 . S
C1718 C1737 1.407 1_554 S
C1718 H1742 0.950 . S
C1719 C1736 1.574 . S
C1719 C1738 1.368 . S
C1719 H1743 0.949 . S
H1720 C1724 0.949 . S
C1721 C1722 1.349 . S
C1721 C1723 1.327 . S
C1721 H1744 0.950 . S
C1722 C1721 1.349 . S
C1722 C1734 1.349 . S
C1723 C1721 1.327 . S
C1723 C1739 1.429 . S
C1723 H1745 0.950 . S
C1724 H1720 0.949 . S
C1724 C1732 1.574 1_556 S
C1724 C1740 1.368 . S
H1725 C1733 0.971 . S
H1726 C1731 0.950 . S
H1727 C1732 0.949 . S
H1728 C1734 0.950 . S
H1729 C1735 0.950 . S
H1730 C1736 0.949 . S
C1731 H1726 0.950 . S
C1731 C1733 1.348 . S
C1731 C1737 1.439 . S
C1732 C1724 1.574 1_554 S
C1732 H1727 0.949 . S
C1732 C1738 1.368 1_554 S
C1733 C1717 1.308 1_556 S
C1733 H1725 0.971 . S
C1733 C1731 1.348 . S
C1734 C1722 1.349 . S
C1734 H1728 0.950 . S
C1734 C1735 1.327 . S
C1735 H1729 0.950 . S
C1735 C1734 1.327 . S
C1735 C1739 1.429 . S
C1736 C1719 1.574 . S
C1736 H1730 0.949 . S
C1736 C1740 1.368 . S
C1737 C1718 1.407 1_556 S
C1737 C1731 1.439 . S
C1737 C1738 1.534 . S
C1738 C1719 1.368 . S
C1738 C1732 1.368 1_556 S
C1738 C1737 1.534 . S
C1739 C1723 1.429 . S
C1739 C1735 1.429 . S
C1739 C1740 1.523 . S
C1740 C1724 1.368 . S
C1740 C1736 1.368 . S
C1740 C1739 1.523 . S
H1741 C1716 0.950 . S
H1742 C1718 0.950 . S
H1743 C1719 0.949 . S
H1744 C1721 0.950 . S
H1745 C1723 0.950 . S
C1746 C1747 1.349 . S
C1746 C1748 1.327 . S
C1746 H1771 0.950 . S
C1747 C1746 1.349 . S
C1747 C1763 1.349 . S
C1748 C1746 1.327 . S
C1748 C1767 1.429 . S
C1748 H1772 0.950 . S
C1749 C1766 1.574 . S
C1749 C1768 1.368 . S
C1749 H1773 0.949 . S
H1750 C1754 0.949 . S
C1751 C1752 1.349 . S
C1751 C1753 1.327 . S
C1751 H1774 0.950 . S
C1752 C1751 1.349 . S
C1752 C1764 1.349 . S
C1753 C1751 1.327 . S
C1753 C1769 1.429 1_455 S
C1753 H1775 0.950 . S
C1754 H1750 0.949 . S
C1754 C1762 1.574 . S
C1754 C1770 1.368 . S
H1755 C1763 0.950 . S
H1756 C1761 0.950 . S
H1757 C1762 0.949 . S
H1758 C1764 0.950 . S
H1759 C1765 0.950 . S
H1760 C1766 0.949 . S
C1761 H1756 0.950 . S
C1761 C1763 1.327 . S
C1761 C1767 1.429 . S
C1762 C1754 1.574 . S
C1762 H1757 0.949 . S
C1762 C1768 1.368 . S
C1763 C1747 1.349 . S
C1763 H1755 0.950 . S
C1763 C1761 1.327 . S
C1764 C1752 1.349 . S
C1764 H1758 0.950 . S
C1764 C1765 1.327 1_455 S
C1765 H1759 0.950 . S
C1765 C1764 1.327 1_655 S
C1765 C1769 1.429 . S
C1766 C1749 1.574 . S
C1766 H1760 0.949 . S
C1766 C1770 1.368 . S
C1767 C1748 1.429 . S
C1767 C1761 1.429 . S
C1767 C1768 1.523 . S
C1768 C1749 1.368 . S
C1768 C1762 1.368 . S
C1768 C1767 1.523 . S
C1769 C1753 1.429 1_655 S
C1769 C1765 1.429 . S
C1769 C1770 1.523 . S
C1770 C1754 1.368 . S
C1770 C1766 1.368 . S
C1770 C1769 1.523 . S
H1771 C1746 0.950 . S
H1772 C1748 0.950 . S
H1773 C1749 0.949 . S
H1774 C1751 0.950 . S
H1775 C1753 0.950 . S
C337 C134 1.046 . S
C342 C8 1.046 . S
C367 C22 1.046 . S
C372 C148 1.046 . S
C397 C36 1.046 . S
C402 C162 1.046 . S
C427 C50 1.046 . S
C432 C120 1.046 . S
C457 C64 1.046 . S
C462 C218 1.046 . S
C487 C176 1.046 . S
C492 C78 1.046 . S
C517 C92 1.046 . S
C522 C190 1.046 . S
C547 C204 1.046 . S
C552 C106 1.046 . S
C577 C232 1.046 . S
C582 C260 1.046 . S
C607 C316 1.046 . S
C612 C246 1.046 . S
C637 C274 1.046 . S
C642 C330 1.046 . S
C667 C302 1.046 . S
C672 C288 1.046 . S
C697 C287 1.694 . S
C702 C7 1.694 . S
C727 C21 1.694 . S
C732 C245 1.694 . S
C757 C35 1.694 . S
C762 C259 1.694 . S
C787 C49 1.694 . S
C792 C273 1.694 . S
C817 C63 1.694 . S
C822 C329 1.694 . S
C847 C301 1.694 . S
C852 C77 1.694 . S
C877 C315 1.694 . S
C882 C91 1.694 . S
C907 C231 1.694 . S
C912 C105 1.694 . S
C937 C217 1.694 . S
C942 C119 1.694 . S
C967 C133 1.694 . S
C972 C175 1.694 . S
C997 C189 1.694 . S
C1002 C147 1.694 . S
C1027 C203 1.694 . S
C1032 C161 1.694 . S
C1057 C9 0.884 . S
C1062 C227 0.930 . S
C1087 C325 0.930 . S
C1092 C23 0.884 . S
C1117 C297 0.930 . S
C1122 C37 0.884 . S
C1147 C51 0.884 . S
C1152 C311 0.930 . S
C1177 C65 0.884 . S
C1182 C241 0.930 . S
C1207 C255 0.930 . S
C1212 C79 0.884 . S
C1237 C269 0.930 . S
C1242 C93 0.884 . S
C1267 C283 0.930 . S
C1272 C107 0.884 . S
C1297 C3 0.930 . S
C1302 C121 0.884 . S
C1327 C17 0.930 . S
C1332 C135 0.884 . S
C1357 C31 0.930 . S
C1362 C149 0.884 . S
C1387 C45 0.930 . S
C1392 C163 0.884 . S
C1417 C59 0.930 . S
C1422 C177 0.884 . S
C1447 C73 0.930 . S
C1452 C191 0.884 . S
C1477 C205 0.884 . S
C1482 C87 0.930 . S
C1507 C101 0.930 . S
C1512 C219 0.884 . S
C1537 C115 0.930 . S
C1542 C233 0.884 . S
C1567 C247 0.884 . S
C1572 C171 0.930 . S
C1597 C185 0.930 . S
C1602 C261 0.884 . S
C1627 C275 0.884 . S
C1632 C199 0.930 . S
C1657 C289 0.884 . S
C1662 C213 0.930 . S
C1687 C303 0.884 . S
C1692 C143 0.930 . S
C1717 C157 0.930 . S
C1722 C317 0.884 . S
C1747 C331 0.884 . S
C1752 C129 0.930 . S
