# Generated by pormake.
# Topology unj, (4)-cn, num edge types: 1
# Building blocks:
#     Node 0, Type 0, BuildingBlock: AZAVOO_clean_sbu_0, # of connection points: 4
#     Node 1, Type 0, BuildingBlock: AZAVOO_clean_sbu_0, # of connection points: 4
#     Node 2, Type 0, BuildingBlock: AZAVOO_clean_sbu_0, # of connection points: 4
#     Node 3, Type 0, BuildingBlock: AZAVOO_clean_sbu_0, # of connection points: 4
#     Node 4, Type 0, BuildingBlock: AZAVOO_clean_sbu_0, # of connection points: 4
#     Node 5, Type 0, BuildingBlock: AZAVOO_clean_sbu_0, # of connection points: 4
#     Edge 6, Type (0, 0), BuildingBlock: XUDNAN_clean_linker_2, # of connection points: 2
#     Edge 7, Type (0, 0), BuildingBlock: XUDNAN_clean_linker_2, # of connection points: 2
#     Edge 8, Type (0, 0), BuildingBlock: XUDNAN_clean_linker_2, # of connection points: 2
#     Edge 9, Type (0, 0), BuildingBlock: XUDNAN_clean_linker_2, # of connection points: 2
#     Edge 10, Type (0, 0), BuildingBlock: XUDNAN_clean_linker_2, # of connection points: 2
#     Edge 11, Type (0, 0), BuildingBlock: XUDNAN_clean_linker_2, # of connection points: 2
#     Edge 12, Type (0, 0), BuildingBlock: XUDNAN_clean_linker_2, # of connection points: 2
#     Edge 13, Type (0, 0), BuildingBlock: XUDNAN_clean_linker_2, # of connection points: 2
#     Edge 14, Type (0, 0), BuildingBlock: XUDNAN_clean_linker_2, # of connection points: 2
#     Edge 15, Type (0, 0), BuildingBlock: XUDNAN_clean_linker_2, # of connection points: 2
#     Edge 16, Type (0, 0), BuildingBlock: XUDNAN_clean_linker_2, # of connection points: 2
#     Edge 17, Type (0, 0), BuildingBlock: XUDNAN_clean_linker_2, # of connection points: 2
# Relax obj value: 0.030
# Max RMSD: 0.065
# Mean RMSD: 0.065
data_MOF--net-unj--node1-AZAVOO_clean_sbu_0--edge1-XUDNAN_clean_linker_2
_symmetry_space_group_name_H-M    P1
_symmetry_Int_Tables_number       1
_symmetry_cell_setting            triclinic
loop_
_symmetry_equiv_pos_as_xyz
'x, y, z'
_cell_length_a     35.446027
_cell_length_b     35.678636
_cell_length_c     32.32807
_cell_angle_alpha  89.832845
_cell_angle_beta   89.959911
_cell_angle_gamma 120.40981
loop_
_atom_site_label
_atom_site_type_symbol
_atom_site_fract_x
_atom_site_fract_y
_atom_site_fract_z
_atom_type_partial_charge
Mg0 Mg 0.49063 0.23005 0.59677 0.0
O1 O 0.5205 0.21293 0.65005 0.0
O2 O 0.55702 0.18181 0.62635 0.0
Mg3 Mg 0.54059 0.17031 0.55652 0.0
C4 C 0.5447 0.19661 0.65607 0.0
C5 C 0.47247 0.30264 0.62643 0.0
O6 O 0.47493 0.3101 0.58641 0.0
O7 O 0.55724 0.28349 0.57369 0.0
O8 O 0.57934 0.24335 0.53974 0.0
O9 O 0.42817 0.16845 0.60382 0.0
O10 O 0.48141 0.17613 0.56249 0.0
C11 C 0.58317 0.28005 0.54858 0.0
C12 C 0.44269 0.15158 0.57738 0.0
O13 O 0.48096 0.27437 0.64012 0.0
Mg14 Mg 0.21569 0.41568 0.72252 0.0
O15 O 0.25116 0.46102 0.77702 0.0
O16 O 0.322 0.50221 0.7609 0.0
Mg17 Mg 0.33134 0.48545 0.69474 0.0
C18 C 0.29017 0.49027 0.78614 0.0
C19 C 0.12271 0.35827 0.76122 0.0
O20 O 0.13305 0.3283 0.7542 0.0
O21 O 0.21732 0.47152 0.68661 0.0
O22 O 0.28812 0.51118 0.66938 0.0
O23 O 0.23438 0.36773 0.74616 0.0
O24 O 0.27338 0.42076 0.70198 0.0
C25 C 0.24899 0.50411 0.66837 0.0
C26 C 0.26938 0.38887 0.7238 0.0
O27 O 0.15004 0.39754 0.75191 0.0
Mg28 Mg 0.76459 0.20622 0.96634 0.0
O29 O 0.70989 0.1977 0.92165 0.0
O30 O 0.64928 0.17363 0.95983 0.0
Mg31 Mg 0.66369 0.16614 0.02713 0.0
C32 C 0.66932 0.18543 0.92517 0.0
C33 C 0.84049 0.22844 0.90576 0.0
O34 O 0.83189 0.1905 0.92034 0.0
O35 O 0.77037 0.26874 0.99289 0.0
O36 O 0.70828 0.23958 0.02977 0.0
O37 O 0.74405 0.13515 0.95882 0.0
O38 O 0.71942 0.16097 1.00692 0.0
C39 C 0.74391 0.27239 0.01719 0.0
C40 C 0.71866 0.1281 0.99029 0.0
O41 O 0.817 0.24402 0.91753 0.0
Mg42 Mg 0.49497 0.74183 0.0818 0.0
O43 O 0.44687 0.75329 0.1196 0.0
O44 O 0.42258 0.78748 0.07921 0.0
Mg45 Mg 0.4555 0.79821 0.01595 0.0
C46 C 0.42342 0.77063 0.11382 0.0
C47 C 0.49838 0.66477 0.12532 0.0
O48 O 0.4977 0.65301 0.08671 0.0
O49 O 0.43965 0.68691 0.04515 0.0
O50 O 0.41852 0.72427 1.00496 0.0
O51 O 0.54814 0.80574 0.10224 0.0
O52 O 0.51085 0.79573 0.04423 0.0
C53 C 0.41537 0.68863 0.01692 0.0
C54 C 0.53996 0.82198 0.06998 0.0
O55 O 0.49427 0.69743 0.13278 0.0
Mg56 Mg 0.74731 0.564 0.25392 0.0
O57 O 0.71838 0.51749 0.30916 0.0
O58 O 0.65175 0.46427 0.29087 0.0
Mg59 Mg 0.63513 0.48115 0.22737 0.0
C60 C 0.68321 0.48178 0.31671 0.0
C61 C 0.84677 0.59711 0.25872 0.0
O62 O 0.83956 0.58752 0.21924 0.0
O63 O 0.7549 0.51358 0.21665 0.0
O64 O 0.68592 0.46853 0.19704 0.0
O65 O 0.71983 0.60461 0.27796 0.0
O66 O 0.68568 0.5496 0.23505 0.0
C67 C 0.72665 0.48103 0.19584 0.0
C68 C 0.68537 0.57978 0.25624 0.0
O69 O 0.81526 0.59168 0.28169 0.0
Mg70 Mg 0.22027 0.78534 0.44026 0.0
O71 O 0.2616 0.78916 0.38462 0.0
O72 O 0.33091 0.81611 0.40417 0.0
Mg73 Mg 0.33411 0.83484 0.4727 0.0
C74 C 0.30114 0.80035 0.37656 0.0
C75 C 0.12226 0.73277 0.41359 0.0
O76 O 0.1181 0.75116 0.44708 0.0
O77 O 0.22498 0.72947 0.46778 0.0
O78 O 0.29346 0.76255 0.49182 0.0
O79 O 0.23097 0.85066 0.4264 0.0
O80 O 0.27384 0.83877 0.46739 0.0
C81 C 0.25564 0.72868 0.48766 0.0
C82 C 0.26526 0.86608 0.4498 0.0
O83 O 0.15985 0.73962 0.40348 0.0
H84 H 0.45309 0.08177 0.55866 0.0
H85 H 0.36308 0.13013 0.54948 0.0
H86 H 0.31176 0.06532 0.50974 0.0
H87 H 0.43133 0.02869 0.45869 0.0
H88 H 0.43252 0.98175 0.47767 0.0
H89 H 0.46446 0.03349 0.5029 0.0
H90 H 0.42689 -0.00086 0.57283 0.0
H91 H 0.39531 0.94724 0.54791 0.0
H92 H 0.36801 0.97019 0.57622 0.0
H93 H 0.27161 -0.00213 0.46942 0.0
H94 H 0.23705 0.92357 0.44184 0.0
H95 H 0.3482 0.9134 0.48286 0.0
C96 C 0.42251 0.07841 0.54821 0.0
C97 C 0.41183 0.11071 0.55686 0.0
C98 C 0.3715 0.10541 0.54328 0.0
C99 C 0.3424 0.06901 0.52036 0.0
C100 C 0.35377 0.03779 0.512 0.0
C101 C 0.39222 0.04136 0.52631 0.0
C102 C 0.39419 0.00091 0.51597 0.0
C103 C 0.43293 0.01189 0.48708 0.0
C104 C 0.3962 0.97801 0.55559 0.0
C105 C 0.35084 0.97428 0.49379 0.0
C106 C 0.32877 -0.00315 0.49098 0.0
C107 C 0.28835 0.97964 0.47159 0.0
C108 C 0.26913 0.93749 0.4558 0.0
C109 C 0.28986 0.91267 0.46033 0.0
C110 C 0.3316 0.93162 0.47899 0.0
H111 H 0.453 0.36596 0.60878 0.0
H112 H 0.44225 0.27639 0.70545 0.0
H113 H 0.39454 0.29463 0.74559 0.0
H114 H 0.44958 0.44778 0.67939 0.0
H115 H 0.41811 0.45852 0.64246 0.0
H116 H 0.45692 0.44355 0.62476 0.0
H117 H 0.39556 0.38002 0.58302 0.0
H118 H 0.35656 0.39442 0.60087 0.0
H119 H 0.34661 0.3402 0.60939 0.0
H120 H 0.33761 0.3129 0.76906 0.0
H121 H 0.28215 0.33534 0.77649 0.0
H122 H 0.33325 0.41483 0.66598 0.0
C123 C 0.44171 0.35116 0.63895 0.0
C124 C 0.45132 0.31975 0.65389 0.0
C125 C 0.43554 0.30077 0.69339 0.0
C126 C 0.40833 0.31087 0.71645 0.0
C127 C 0.39794 0.34063 0.69999 0.0
C128 C 0.41494 0.3612 0.66251 0.0
C129 C 0.39639 0.38953 0.65016 0.0
C130 C 0.4324 0.43771 0.64915 0.0
C131 C 0.37235 0.37515 0.60841 0.0
C132 C 0.36488 0.38017 0.68553 0.0
C133 C 0.36629 0.35213 0.71419 0.0
C134 C 0.337 0.33576 0.74739 0.0
C135 C 0.3055 0.34844 0.75128 0.0
C136 C 0.30383 0.37725 0.72218 0.0
C137 C 0.33434 0.39357 0.68933 0.0
H138 H 0.89546 0.20291 0.87381 0.0
H139 H 0.87424 0.31247 0.87857 0.0
H140 H 0.94295 0.35709 0.83964 0.0
H141 H 0.00903 0.26192 0.88948 0.0
H142 H 0.021 0.23001 0.85453 0.0
H143 H 0.96867 0.20583 0.88003 0.0
H144 H 0.92946 0.18397 0.80909 0.0
H145 H 0.98171 0.20783 0.78332 0.0
H146 H 0.9434 0.22498 0.76985 0.0
H147 H 0.01679 0.39116 0.80453 0.0
H148 H 0.08819 0.41104 0.77328 0.0
H149 H 0.06014 0.27866 0.79099 0.0
C150 C 0.9049 0.23612 0.86625 0.0
C151 C 0.87944 0.25419 0.87927 0.0
C152 C 0.89311 0.29785 0.86881 0.0
C153 C 0.93213 0.32348 0.84675 0.0
C154 C 0.95686 0.30485 0.83511 0.0
C155 C 0.94356 0.26203 0.84416 0.0
C156 C 0.97659 0.25009 0.8292 0.0
C157 C -0.0051 0.23616 0.86548 0.0
C158 C 0.95659 0.21462 0.79588 0.0
C159 C 0.01104 0.29312 0.81102 0.0
C160 C -0.00097 0.32428 0.81459 0.0
C161 C 0.02633 0.36691 0.80121 0.0
C162 C 0.06689 0.37791 0.78363 0.0
C163 C 0.07975 0.3464 0.77956 0.0
C164 C 0.05122 0.30346 0.79339 0.0
H165 H 0.5729 0.86801 0.99827 0.0
H166 H 0.55747 0.88181 0.12944 0.0
H167 H 0.59836 0.96173 0.12167 0.0
H168 H 0.68305 0.95466 0.99309 0.0
H169 H 0.67878 0.9729 0.94217 0.0
H170 H 0.64402 0.91677 0.9566 0.0
H171 H 0.57542 0.92153 0.93825 0.0
H172 H 0.61 0.97766 0.92352 0.0
H173 H 0.56776 0.96293 0.96184 0.0
H174 H 0.64114 0.03865 0.10062 0.0
H175 H 0.68879 0.11007 0.06874 0.0
H176 H 0.68306 0.04805 0.95165 0.0
C177 C 0.57754 0.88806 0.02506 0.0
C178 C 0.56175 0.86921 0.06437 0.0
C179 C 0.56928 0.89599 0.09912 0.0
C180 C 0.59228 0.94125 0.09496 0.0
C181 C 0.6081 0.959 0.05595 0.0
C182 C 0.60151 0.93343 0.02163 0.0
C183 C 0.62523 0.96107 0.98408 0.0
C184 C 0.65982 0.95073 0.96806 0.0
C185 C 0.59265 0.95546 0.9499 0.0
C186 C 0.64635 0.00612 1.00283 0.0
C187 C 0.63528 0.00393 0.04415 0.0
C188 C 0.65011 0.04086 0.06832 0.0
C189 C 0.67711 0.08126 0.04986 0.0
C190 C 0.68965 0.08451 1.00778 0.0
C191 C 0.67417 0.04641 0.98394 0.0
H192 H 0.62066 0.54513 0.19905 0.0
H193 H 0.66844 0.63433 0.30254 0.0
H194 H 0.61329 0.65553 0.28732 0.0
H195 H 0.61366 0.61389 0.13266 0.0
H196 H 0.5655 0.574 0.10567 0.0
H197 H 0.60036 0.558 0.13068 0.0
H198 H 0.53456 0.49993 0.17329 0.0
H199 H 0.49924 0.51564 0.14815 0.0
H200 H 0.5024 0.51582 0.2038 0.0
H201 H 0.56118 0.67488 0.25437 0.0
H202 H 0.5216 0.69483 0.20459 0.0
H203 H 0.511 0.59531 0.12059 0.0
C204 C 0.61848 0.56789 0.21958 0.0
C205 C 0.64841 0.58766 0.25236 0.0
C206 C 0.64547 0.61843 0.27756 0.0
C207 C 0.61412 0.63049 0.26922 0.0
C208 C 0.58607 0.61143 0.23562 0.0
C209 C 0.588 0.58068 0.21126 0.0
C210 C 0.55933 0.56995 0.17335 0.0
C211 C 0.58634 0.57957 0.13326 0.0
C212 C 0.52164 0.52251 0.17475 0.0
C213 C 0.54264 0.60109 0.17895 0.0
C214 C 0.5573 0.62378 0.21566 0.0
C215 C 0.54895 0.6568 0.22591 0.0
C216 C 0.5264 0.66791 0.19735 0.0
C217 C 0.51326 0.64666 0.15858 0.0
C218 C 0.52027 0.61188 0.15006 0.0
H219 H 0.03689 0.71103 0.42603 0.0
H220 H 0.12222 0.69726 0.33867 0.0
H221 H 0.06037 0.65904 0.29053 0.0
H222 H 0.93958 0.60557 0.40546 0.0
H223 H 0.90291 0.6264 0.41083 0.0
H224 H 0.95346 0.65076 0.43936 0.0
H225 H 0.97504 0.72593 0.40792 0.0
H226 H 0.92472 0.7018 0.37914 0.0
H227 H 0.97633 0.73223 0.35249 0.0
H228 H -0.00926 0.62661 0.25008 0.0
H229 H 0.91687 0.59899 0.22129 0.0
H230 H 0.87645 0.63248 0.33548 0.0
C231 C 0.0425 0.69958 0.39698 0.0
C232 C 0.08442 0.70718 0.38613 0.0
C233 C 0.09039 0.69177 0.34773 0.0
C234 C 0.05547 0.67004 0.32014 0.0
C235 C 0.01474 0.66369 0.33152 0.0
C236 C 0.00796 0.67765 0.36915 0.0
C237 C 0.96116 0.6675 0.37344 0.0
C238 C 0.93791 0.63566 0.4094 0.0
C239 C 0.95923 0.70936 0.37853 0.0
C240 C 0.94291 0.64628 0.33207 0.0
C241 C 0.97436 0.64439 0.30838 0.0
C242 C 0.9657 0.62754 0.26846 0.0
C243 C 0.9237 0.61209 0.25233 0.0
C244 C 0.89088 0.61347 0.27617 0.0
C245 C 0.90073 0.63068 0.31661 0.0
H246 H 0.59779 0.27841 0.4668 0.0
H247 H 0.62904 0.3666 0.56989 0.0
H248 H 0.66595 0.42931 0.52166 0.0
H249 H 0.69471 0.34659 0.40064 0.0
H250 H 0.66203 0.33007 0.35431 0.0
H251 H 0.64657 0.29333 0.39771 0.0
H252 H 0.56988 0.28573 0.39821 0.0
H253 H 0.58519 0.32279 0.35527 0.0
H254 H 0.56557 0.3338 0.40252 0.0
H255 H 0.69513 0.48206 0.46064 0.0
H256 H 0.70754 0.51943 0.39291 0.0
H257 H 0.64839 0.39509 0.3306 0.0
C258 C 0.61395 0.31095 0.47947 0.0
C259 C 0.61182 0.31782 0.52219 0.0
C260 C 0.63126 0.36081 0.53735 0.0
C261 C 0.65221 0.3965 0.51018 0.0
C262 C 0.65259 0.38849 0.46794 0.0
C263 C 0.63362 0.34665 0.45273 0.0
C264 C 0.63277 0.34614 0.40592 0.0
C265 C 0.6607 0.32797 0.38863 0.0
C266 C 0.58556 0.32062 0.38955 0.0
C267 C 0.65351 0.39419 0.39698 0.0
C268 C 0.66584 0.41827 0.43303 0.0
C269 C 0.68563 0.46346 0.4323 0.0
C270 C 0.69255 0.48439 0.39379 0.0
C271 C 0.67854 0.45998 0.3568 0.0
C272 C 0.65904 0.4144 0.35853 0.0
H273 H 0.31342 0.71177 0.52817 0.0
H274 H 0.17559 0.65493 0.49876 0.0
H275 H 0.15845 0.5916 0.54277 0.0
H276 H 0.31424 0.61019 0.52941 0.0
H277 H 0.35261 0.62721 0.57159 0.0
H278 H 0.35379 0.667 0.53639 0.0
H279 H 0.3455 0.70829 0.59834 0.0
H280 H 0.34365 0.6683 0.63368 0.0
H281 H 0.29975 0.67994 0.63317 0.0
H282 H 0.15596 0.53646 0.59364 0.0
H283 H 0.16936 0.49043 0.64172 0.0
H284 H 0.30881 0.58345 0.63642 0.0
C285 C 0.27966 0.68583 0.53052 0.0
C286 C 0.24588 0.68845 0.51001 0.0
C287 C 0.20212 0.65368 0.51401 0.0
C288 C 0.19199 0.61763 0.53912 0.0
C289 C 0.22599 0.61669 0.55974 0.0
C290 C 0.26899 0.64959 0.55522 0.0
C291 C 0.29949 0.64087 0.58075 0.0
C292 C 0.33193 0.63602 0.55286 0.0
C293 C 0.32349 0.67647 0.61342 0.0
C294 C 0.26688 0.59808 0.60061 0.0
C295 C 0.22462 0.58473 0.58835 0.0
C296 C 0.18896 0.54643 0.60324 0.0
C297 C 0.19687 0.52065 0.63074 0.0
C298 C 0.24013 0.53322 0.64275 0.0
C299 C 0.27536 0.57275 0.62772 0.0
H300 H 0.69009 0.18741 0.84226 0.0
H301 H 0.5923 0.18501 0.92512 0.0
H302 H 0.55052 0.18693 0.86532 0.0
H303 H 0.68698 0.2595 0.76596 0.0
H304 H 0.69257 0.23135 0.72231 0.0
H305 H 0.71551 0.22991 0.77159 0.0
H306 H 0.67163 0.14577 0.77047 0.0
H307 H 0.64854 0.14693 0.72117 0.0
H308 H 0.61308 0.11778 0.76406 0.0
H309 H 0.52048 0.19175 0.79802 0.0
H310 H 0.50132 0.19552 0.72569 0.0
H311 H 0.6158 0.19141 0.6843 0.0
C312 C 0.65991 0.18732 0.84776 0.0
C313 C 0.64455 0.1861 0.88849 0.0
C314 C 0.60471 0.18572 0.89433 0.0
C315 C 0.58073 0.18692 0.86053 0.0
C316 C 0.59667 0.18807 0.82094 0.0
C317 C 0.63509 0.18794 0.81419 0.0
C318 C 0.64421 0.18867 0.76817 0.0
C319 C 0.68738 0.22981 0.75632 0.0
C320 C 0.64436 0.14732 0.75521 0.0
C321 C 0.60507 0.18962 0.75029 0.0
C322 C 0.57835 0.1895 0.78148 0.0
C323 C 0.54095 0.19158 0.77326 0.0
C324 C 0.53045 0.19386 0.73201 0.0
C325 C 0.55696 0.19364 0.69926 0.0
C326 C 0.59468 0.19121 0.70862 0.0
H327 H 0.36778 0.53175 0.82827 0.0
H328 H 0.23186 0.49783 0.83589 0.0
H329 H 0.2473 0.53842 0.90146 0.0
H330 H 0.38289 0.52501 0.9411 0.0
H331 H 0.43831 0.57009 0.93956 0.0
H332 H 0.41565 0.53525 0.89518 0.0
H333 H 0.4343 0.60217 0.84927 0.0
H334 H 0.45711 0.63712 0.89336 0.0
H335 H 0.41426 0.63771 0.86389 0.0
H336 H 0.28002 0.59152 0.96015 0.0
H337 H 0.3269 0.64931 1.00986 0.0
H338 H 0.43962 0.64323 0.9678 0.0
C339 C 0.34113 0.53239 0.84401 0.0
C340 C 0.29866 0.5118 0.82692 0.0
C341 C 0.26462 0.51324 0.84851 0.0
C342 C 0.27307 0.53618 0.88579 0.0
C343 C 0.31547 0.55664 0.90152 0.0
C344 C 0.3488 0.55438 0.88163 0.0
C345 C 0.39185 0.5806 0.90411 0.0
C346 C 0.40812 0.55096 0.92099 0.0
C347 C 0.42639 0.61652 0.87599 0.0
C348 C 0.37796 0.5994 0.93886 0.0
C349 C 0.33372 0.58512 0.9369 0.0
C350 C 0.31437 0.60189 0.96282 0.0
C351 C 0.34108 0.63455 0.99094 0.0
C352 C 0.38628 0.64934 0.99333 0.0
C353 C 0.40473 0.63098 0.96758 0.0
H354 H 0.68645 0.29835 0.03489 0.0
H355 H 0.82451 0.34077 0.03968 0.0
H356 H 0.83746 0.40369 0.08289 0.0
H357 H 0.6982 0.40831 0.03525 0.0
H358 H 0.64997 0.389 0.06695 0.0
H359 H 0.65416 0.35281 0.03096 0.0
H360 H 0.63957 0.2987 0.09097 0.0
H361 H 0.63636 0.33501 0.12728 0.0
H362 H 0.67483 0.31682 0.1356 0.0
H363 H 0.83207 0.45592 0.13437 0.0
H364 H 0.81012 0.49486 0.18342 0.0
H365 H 0.6753 0.4149 0.14368 0.0
C366 C 0.71967 0.32164 0.04395 0.0
C367 C 0.75453 0.31499 0.03397 0.0
C368 C 0.79749 0.3458 0.04659 0.0
C369 C 0.80502 0.38138 0.07134 0.0
C370 C 0.76929 0.3857 0.08244 0.0
C371 C 0.7276 0.35696 0.06834 0.0
C372 C 0.69396 0.3661 0.08673 0.0
C373 C 0.67285 0.3799 0.05296 0.0
C374 C 0.65917 0.32683 0.11161 0.0
C375 C 0.7228 0.40356 0.11464 0.0
C376 C 0.76622 0.41494 0.11169 0.0
C377 C 0.79822 0.4476 0.13638 0.0
C378 C 0.78542 0.46935 0.16434 0.0
C379 C 0.74095 0.45796 0.16754 0.0
C380 C 0.70958 0.42461 0.14218 0.0
H381 H 0.37142 0.79376 0.34999 0.0
H382 H 0.25615 0.79473 0.30617 0.0
H383 H 0.27429 0.7861 0.23449 0.0
H384 H 0.44219 0.8525 0.26492 0.0
H385 H 0.46829 0.82033 0.26354 0.0
H386 H 0.44655 0.82705 0.31151 0.0
H387 H 0.39931 0.7434 0.31963 0.0
H388 H 0.42083 0.73644 0.27161 0.0
H389 H 0.36256 0.71168 0.27866 0.0
H390 H 0.30645 0.7806 0.16737 0.0
H391 H 0.34851 0.77449 0.10943 0.0
H392 H 0.4404 0.77251 0.19681 0.0
C393 C 0.3501 0.7923 0.32529 0.0
C394 C 0.31247 0.79514 0.33368 0.0
C395 C 0.2851 0.79255 0.30053 0.0
C396 C 0.29516 0.78772 0.25968 0.0
C397 C 0.33239 0.78494 0.25247 0.0
C398 C 0.35926 0.78675 0.28432 0.0
C399 C 0.39683 0.78211 0.26809 0.0
C400 C 0.44108 0.82293 0.27758 0.0
C401 C 0.39473 0.74095 0.28554 0.0
C402 C 0.38709 0.77789 0.22214 0.0
C403 C 0.34994 0.77991 0.2138 0.0
C404 C 0.33537 0.77856 0.17351 0.0
C405 C 0.35949 0.77518 0.14083 0.0
C406 C 0.39743 0.77262 0.14866 0.0
C407 C 0.41111 0.77368 0.18993 0.0
loop_
_geom_bond_atom_site_label_1
_geom_bond_atom_site_label_2
_geom_bond_distance
_geom_bond_site_symmetry_2
_ccdc_geom_bond_type
Mg0 O1 2.028 . S
Mg0 O7 1.986 . S
Mg0 O9 2.114 . S
Mg0 O10 2.251 . S
Mg0 O13 2.010 . S
O1 Mg0 2.028 . S
O1 C4 1.250 . S
O2 Mg3 2.028 . S
O2 C4 1.248 . S
Mg3 O2 2.028 . S
Mg3 O8 2.032 . S
Mg3 O10 2.079 . S
C4 O1 1.250 . S
C4 O2 1.248 . S
C5 O6 1.264 . S
C5 O13 1.249 . S
O6 C5 1.264 . S
O7 Mg0 1.986 . S
O7 C11 1.246 . S
O8 Mg3 2.032 . S
O8 C11 1.259 . S
O9 Mg0 2.114 . S
O9 C12 1.252 . S
O10 Mg0 2.251 . S
O10 Mg3 2.079 . S
O10 C12 1.273 . S
C11 O7 1.246 . S
C11 O8 1.259 . S
C12 O9 1.252 . S
C12 O10 1.273 . S
O13 Mg0 2.010 . S
O13 C5 1.249 . S
Mg14 O15 2.028 . S
Mg14 O21 1.986 . S
Mg14 O23 2.114 . S
Mg14 O24 2.251 . S
Mg14 O27 2.010 . S
O15 Mg14 2.028 . S
O15 C18 1.250 . S
O16 Mg17 2.028 . S
O16 C18 1.248 . S
Mg17 O16 2.028 . S
Mg17 O22 2.032 . S
Mg17 O24 2.079 . S
C18 O15 1.250 . S
C18 O16 1.248 . S
C19 O20 1.264 . S
C19 O27 1.249 . S
O20 C19 1.264 . S
O21 Mg14 1.986 . S
O21 C25 1.246 . S
O22 Mg17 2.032 . S
O22 C25 1.259 . S
O23 Mg14 2.114 . S
O23 C26 1.252 . S
O24 Mg14 2.251 . S
O24 Mg17 2.079 . S
O24 C26 1.273 . S
C25 O21 1.246 . S
C25 O22 1.259 . S
C26 O23 1.252 . S
C26 O24 1.273 . S
O27 Mg14 2.010 . S
O27 C19 1.249 . S
Mg28 O29 2.028 . S
Mg28 O35 1.986 . S
Mg28 O37 2.114 . S
Mg28 O38 2.251 . S
Mg28 O41 2.010 . S
O29 Mg28 2.028 . S
O29 C32 1.250 . S
O30 Mg31 2.028 . S
O30 C32 1.248 . S
Mg31 O30 2.028 . S
Mg31 O36 2.032 . S
Mg31 O38 2.079 . S
C32 O29 1.250 . S
C32 O30 1.248 . S
C33 O34 1.264 . S
C33 O41 1.249 . S
O34 C33 1.264 . S
O35 Mg28 1.986 . S
O35 C39 1.246 . S
O36 Mg31 2.032 . S
O36 C39 1.259 . S
O37 Mg28 2.114 . S
O37 C40 1.252 . S
O38 Mg28 2.251 . S
O38 Mg31 2.079 . S
O38 C40 1.273 . S
C39 O35 1.246 . S
C39 O36 1.259 . S
C40 O37 1.252 . S
C40 O38 1.273 . S
O41 Mg28 2.010 . S
O41 C33 1.249 . S
Mg42 O43 2.028 . S
Mg42 O49 1.986 . S
Mg42 O51 2.114 . S
Mg42 O52 2.251 . S
Mg42 O55 2.010 . S
O43 Mg42 2.028 . S
O43 C46 1.250 . S
O44 Mg45 2.028 . S
O44 C46 1.248 . S
Mg45 O44 2.028 . S
Mg45 O50 2.032 . S
Mg45 O52 2.079 . S
C46 O43 1.250 . S
C46 O44 1.248 . S
C47 O48 1.264 . S
C47 O55 1.249 . S
O48 C47 1.264 . S
O49 Mg42 1.986 . S
O49 C53 1.246 . S
O50 Mg45 2.032 . S
O50 C53 1.259 . S
O51 Mg42 2.114 . S
O51 C54 1.252 . S
O52 Mg42 2.251 . S
O52 Mg45 2.079 . S
O52 C54 1.273 . S
C53 O49 1.246 . S
C53 O50 1.259 . S
C54 O51 1.252 . S
C54 O52 1.273 . S
O55 Mg42 2.010 . S
O55 C47 1.249 . S
Mg56 O57 2.028 . S
Mg56 O63 1.986 . S
Mg56 O65 2.114 . S
Mg56 O66 2.251 . S
Mg56 O69 2.010 . S
O57 Mg56 2.028 . S
O57 C60 1.250 . S
O58 Mg59 2.028 . S
O58 C60 1.248 . S
Mg59 O58 2.028 . S
Mg59 O64 2.032 . S
Mg59 O66 2.079 . S
C60 O57 1.250 . S
C60 O58 1.248 . S
C61 O62 1.264 . S
C61 O69 1.249 . S
O62 C61 1.264 . S
O63 Mg56 1.986 . S
O63 C67 1.246 . S
O64 Mg59 2.032 . S
O64 C67 1.259 . S
O65 Mg56 2.114 . S
O65 C68 1.252 . S
O66 Mg56 2.251 . S
O66 Mg59 2.079 . S
O66 C68 1.273 . S
C67 O63 1.246 . S
C67 O64 1.259 . S
C68 O65 1.252 . S
C68 O66 1.273 . S
O69 Mg56 2.010 . S
O69 C61 1.249 . S
Mg70 O71 2.028 . S
Mg70 O77 1.986 . S
Mg70 O79 2.114 . S
Mg70 O80 2.251 . S
Mg70 O83 2.010 . S
O71 Mg70 2.028 . S
O71 C74 1.250 . S
O72 Mg73 2.028 . S
O72 C74 1.248 . S
Mg73 O72 2.028 . S
Mg73 O78 2.032 . S
Mg73 O80 2.079 . S
C74 O71 1.250 . S
C74 O72 1.248 . S
C75 O76 1.264 . S
C75 O83 1.249 . S
O76 C75 1.264 . S
O77 Mg70 1.986 . S
O77 C81 1.246 . S
O78 Mg73 2.032 . S
O78 C81 1.259 . S
O79 Mg70 2.114 . S
O79 C82 1.252 . S
O80 Mg70 2.251 . S
O80 Mg73 2.079 . S
O80 C82 1.273 . S
C81 O77 1.246 . S
C81 O78 1.259 . S
C82 O79 1.252 . S
C82 O80 1.273 . S
O83 Mg70 2.010 . S
O83 C75 1.249 . S
H84 C96 0.930 . S
H85 C98 0.930 . S
H86 C99 0.930 . S
H87 C103 0.959 1_545 S
H88 C103 0.959 . S
H89 C103 0.961 1_545 S
H90 C104 0.960 . S
H91 C104 0.961 . S
H92 C104 0.959 . S
H93 C107 0.929 . S
H94 C108 0.931 . S
H95 C110 0.930 . S
C96 H84 0.930 . S
C96 C97 1.399 . S
C96 C101 1.399 . S
C97 C96 1.399 . S
C97 C98 1.376 . S
C98 H85 0.930 . S
C98 C97 1.376 . S
C98 C99 1.388 . S
C99 H86 0.930 . S
C99 C98 1.388 . S
C99 C100 1.390 . S
C100 C99 1.390 . S
C100 C101 1.394 . S
C100 C106 1.465 1_545 S
C101 C96 1.399 . S
C101 C100 1.394 . S
C101 C102 1.516 1_545 S
C102 C101 1.516 1_565 S
C102 C103 1.502 . S
C102 C104 1.561 . S
C102 C105 1.526 . S
C103 H87 0.959 1_565 S
C103 H88 0.959 . S
C103 H89 0.961 1_565 S
C103 C102 1.502 . S
C104 H90 0.960 . S
C104 H91 0.961 . S
C104 H92 0.959 . S
C104 C102 1.561 . S
C105 C102 1.526 . S
C105 C106 1.396 . S
C105 C110 1.390 . S
C106 C100 1.465 1_565 S
C106 C105 1.396 . S
C106 C107 1.399 . S
C107 H93 0.929 . S
C107 C106 1.399 . S
C107 C108 1.385 . S
C108 H94 0.931 . S
C108 C107 1.385 . S
C108 C109 1.389 . S
C109 C108 1.389 . S
C109 C110 1.387 . S
C110 H95 0.930 . S
C110 C105 1.390 . S
C110 C109 1.387 . S
H111 C123 0.930 . S
H112 C125 0.930 . S
H113 C126 0.930 . S
H114 C130 0.959 . S
H115 C130 0.959 . S
H116 C130 0.961 . S
H117 C131 0.960 . S
H118 C131 0.961 . S
H119 C131 0.959 . S
H120 C134 0.929 . S
H121 C135 0.931 . S
H122 C137 0.930 . S
C123 H111 0.930 . S
C123 C124 1.399 . S
C123 C128 1.399 . S
C124 C123 1.399 . S
C124 C125 1.376 . S
C125 H112 0.930 . S
C125 C124 1.376 . S
C125 C126 1.388 . S
C126 H113 0.930 . S
C126 C125 1.388 . S
C126 C127 1.390 . S
C127 C126 1.390 . S
C127 C128 1.394 . S
C127 C133 1.465 . S
C128 C123 1.399 . S
C128 C127 1.394 . S
C128 C129 1.516 . S
C129 C128 1.516 . S
C129 C130 1.502 . S
C129 C131 1.561 . S
C129 C132 1.526 . S
C130 H114 0.959 . S
C130 H115 0.959 . S
C130 H116 0.961 . S
C130 C129 1.502 . S
C131 H117 0.960 . S
C131 H118 0.961 . S
C131 H119 0.959 . S
C131 C129 1.561 . S
C132 C129 1.526 . S
C132 C133 1.396 . S
C132 C137 1.390 . S
C133 C127 1.465 . S
C133 C132 1.396 . S
C133 C134 1.399 . S
C134 H120 0.929 . S
C134 C133 1.399 . S
C134 C135 1.385 . S
C135 H121 0.931 . S
C135 C134 1.385 . S
C135 C136 1.389 . S
C136 C135 1.389 . S
C136 C137 1.387 . S
C137 H122 0.930 . S
C137 C132 1.390 . S
C137 C136 1.387 . S
H138 C150 0.930 . S
H139 C152 0.930 . S
H140 C153 0.930 . S
H141 C157 0.959 . S
H142 C157 0.959 1_455 S
H143 C157 0.961 . S
H144 C158 0.960 . S
H145 C158 0.961 . S
H146 C158 0.959 . S
H147 C161 0.929 . S
H148 C162 0.931 . S
H149 C164 0.930 . S
C150 H138 0.930 . S
C150 C151 1.399 . S
C150 C155 1.399 . S
C151 C150 1.399 . S
C151 C152 1.376 . S
C152 H139 0.930 . S
C152 C151 1.376 . S
C152 C153 1.388 . S
C153 H140 0.930 . S
C153 C152 1.388 . S
C153 C154 1.390 . S
C154 C153 1.390 . S
C154 C155 1.394 . S
C154 C160 1.465 1_655 S
C155 C150 1.399 . S
C155 C154 1.394 . S
C155 C156 1.516 . S
C156 C155 1.516 . S
C156 C157 1.502 . S
C156 C158 1.561 . S
C156 C159 1.526 1_655 S
C157 H141 0.959 . S
C157 H142 0.959 1_655 S
C157 H143 0.961 . S
C157 C156 1.502 . S
C158 H144 0.960 . S
C158 H145 0.961 . S
C158 H146 0.959 . S
C158 C156 1.561 . S
C159 C156 1.526 1_455 S
C159 C160 1.396 . S
C159 C164 1.390 . S
C160 C154 1.465 1_455 S
C160 C159 1.396 . S
C160 C161 1.399 . S
C161 H147 0.929 . S
C161 C160 1.399 . S
C161 C162 1.385 . S
C162 H148 0.931 . S
C162 C161 1.385 . S
C162 C163 1.389 . S
C163 C162 1.389 . S
C163 C164 1.387 . S
C164 H149 0.930 . S
C164 C159 1.390 . S
C164 C163 1.387 . S
H165 C177 0.930 1_556 S
H166 C179 0.930 . S
H167 C180 0.930 . S
H168 C184 0.959 . S
H169 C184 0.959 . S
H170 C184 0.961 . S
H171 C185 0.960 . S
H172 C185 0.961 . S
H173 C185 0.959 . S
H174 C188 0.929 . S
H175 C189 0.931 1_554 S
H176 C191 0.930 . S
C177 H165 0.930 1_554 S
C177 C178 1.399 . S
C177 C182 1.399 1_554 S
C178 C177 1.399 . S
C178 C179 1.376 . S
C179 H166 0.930 . S
C179 C178 1.376 . S
C179 C180 1.388 . S
C180 H167 0.930 . S
C180 C179 1.388 . S
C180 C181 1.390 . S
C181 C180 1.390 . S
C181 C182 1.394 1_554 S
C181 C187 1.465 1_565 S
C182 C177 1.399 1_556 S
C182 C181 1.394 1_556 S
C182 C183 1.516 . S
C183 C182 1.516 . S
C183 C184 1.502 . S
C183 C185 1.561 . S
C183 C186 1.526 1_565 S
C184 H168 0.959 . S
C184 H169 0.959 . S
C184 H170 0.961 . S
C184 C183 1.502 . S
C185 H171 0.960 . S
C185 H172 0.961 . S
C185 H173 0.959 . S
C185 C183 1.561 . S
C186 C183 1.526 1_545 S
C186 C187 1.396 1_556 S
C186 C191 1.390 . S
C187 C181 1.465 1_545 S
C187 C186 1.396 1_554 S
C187 C188 1.399 . S
C188 H174 0.929 . S
C188 C187 1.399 . S
C188 C189 1.385 1_554 S
C189 H175 0.931 1_556 S
C189 C188 1.385 1_556 S
C189 C190 1.389 . S
C190 C189 1.389 . S
C190 C191 1.387 . S
C191 H176 0.930 . S
C191 C186 1.390 . S
C191 C190 1.387 . S
H192 C204 0.930 . S
H193 C206 0.930 . S
H194 C207 0.930 . S
H195 C211 0.959 . S
H196 C211 0.959 . S
H197 C211 0.961 . S
H198 C212 0.960 . S
H199 C212 0.961 . S
H200 C212 0.959 . S
H201 C215 0.929 . S
H202 C216 0.931 . S
H203 C218 0.930 . S
C204 H192 0.930 . S
C204 C205 1.399 . S
C204 C209 1.399 . S
C205 C204 1.399 . S
C205 C206 1.376 . S
C206 H193 0.930 . S
C206 C205 1.376 . S
C206 C207 1.388 . S
C207 H194 0.930 . S
C207 C206 1.388 . S
C207 C208 1.390 . S
C208 C207 1.390 . S
C208 C209 1.394 . S
C208 C214 1.465 . S
C209 C204 1.399 . S
C209 C208 1.394 . S
C209 C210 1.516 . S
C210 C209 1.516 . S
C210 C211 1.502 . S
C210 C212 1.561 . S
C210 C213 1.526 . S
C211 H195 0.959 . S
C211 H196 0.959 . S
C211 H197 0.961 . S
C211 C210 1.502 . S
C212 H198 0.960 . S
C212 H199 0.961 . S
C212 H200 0.959 . S
C212 C210 1.561 . S
C213 C210 1.526 . S
C213 C214 1.396 . S
C213 C218 1.390 . S
C214 C208 1.465 . S
C214 C213 1.396 . S
C214 C215 1.399 . S
C215 H201 0.929 . S
C215 C214 1.399 . S
C215 C216 1.385 . S
C216 H202 0.931 . S
C216 C215 1.385 . S
C216 C217 1.389 . S
C217 C216 1.389 . S
C217 C218 1.387 . S
C218 H203 0.930 . S
C218 C213 1.390 . S
C218 C217 1.387 . S
H219 C231 0.930 . S
H220 C233 0.930 . S
H221 C234 0.930 . S
H222 C238 0.959 . S
H223 C238 0.959 . S
H224 C238 0.961 1_455 S
H225 C239 0.960 1_455 S
H226 C239 0.961 . S
H227 C239 0.959 . S
H228 C242 0.929 . S
H229 C243 0.931 . S
H230 C245 0.930 . S
C231 H219 0.930 . S
C231 C232 1.399 . S
C231 C236 1.399 . S
C232 C231 1.399 . S
C232 C233 1.376 . S
C233 H220 0.930 . S
C233 C232 1.376 . S
C233 C234 1.388 . S
C234 H221 0.930 . S
C234 C233 1.388 . S
C234 C235 1.390 . S
C235 C234 1.390 . S
C235 C236 1.394 . S
C235 C241 1.465 1_455 S
C236 C231 1.399 . S
C236 C235 1.394 . S
C236 C237 1.516 1_455 S
C237 C236 1.516 1_655 S
C237 C238 1.502 . S
C237 C239 1.561 . S
C237 C240 1.526 . S
C238 H222 0.959 . S
C238 H223 0.959 . S
C238 H224 0.961 1_655 S
C238 C237 1.502 . S
C239 H225 0.960 1_655 S
C239 H226 0.961 . S
C239 H227 0.959 . S
C239 C237 1.561 . S
C240 C237 1.526 . S
C240 C241 1.396 . S
C240 C245 1.390 . S
C241 C235 1.465 1_655 S
C241 C240 1.396 . S
C241 C242 1.399 . S
C242 H228 0.929 . S
C242 C241 1.399 . S
C242 C243 1.385 . S
C243 H229 0.931 . S
C243 C242 1.385 . S
C243 C244 1.389 . S
C244 C243 1.389 . S
C244 C245 1.387 . S
C245 H230 0.930 . S
C245 C240 1.390 . S
C245 C244 1.387 . S
H246 C258 0.930 . S
H247 C260 0.930 . S
H248 C261 0.930 . S
H249 C265 0.959 . S
H250 C265 0.959 . S
H251 C265 0.961 . S
H252 C266 0.960 . S
H253 C266 0.961 . S
H254 C266 0.959 . S
H255 C269 0.929 . S
H256 C270 0.931 . S
H257 C272 0.930 . S
C258 H246 0.930 . S
C258 C259 1.399 . S
C258 C263 1.399 . S
C259 C258 1.399 . S
C259 C260 1.376 . S
C260 H247 0.930 . S
C260 C259 1.376 . S
C260 C261 1.388 . S
C261 H248 0.930 . S
C261 C260 1.388 . S
C261 C262 1.390 . S
C262 C261 1.390 . S
C262 C263 1.394 . S
C262 C268 1.465 . S
C263 C258 1.399 . S
C263 C262 1.394 . S
C263 C264 1.516 . S
C264 C263 1.516 . S
C264 C265 1.502 . S
C264 C266 1.561 . S
C264 C267 1.526 . S
C265 H249 0.959 . S
C265 H250 0.959 . S
C265 H251 0.961 . S
C265 C264 1.502 . S
C266 H252 0.960 . S
C266 H253 0.961 . S
C266 H254 0.959 . S
C266 C264 1.561 . S
C267 C264 1.526 . S
C267 C268 1.396 . S
C267 C272 1.390 . S
C268 C262 1.465 . S
C268 C267 1.396 . S
C268 C269 1.399 . S
C269 H255 0.929 . S
C269 C268 1.399 . S
C269 C270 1.385 . S
C270 H256 0.931 . S
C270 C269 1.385 . S
C270 C271 1.389 . S
C271 C270 1.389 . S
C271 C272 1.387 . S
C272 H257 0.930 . S
C272 C267 1.390 . S
C272 C271 1.387 . S
H273 C285 0.930 . S
H274 C287 0.930 . S
H275 C288 0.930 . S
H276 C292 0.959 . S
H277 C292 0.959 . S
H278 C292 0.961 . S
H279 C293 0.960 . S
H280 C293 0.961 . S
H281 C293 0.959 . S
H282 C296 0.929 . S
H283 C297 0.931 . S
H284 C299 0.930 . S
C285 H273 0.930 . S
C285 C286 1.399 . S
C285 C290 1.399 . S
C286 C285 1.399 . S
C286 C287 1.376 . S
C287 H274 0.930 . S
C287 C286 1.376 . S
C287 C288 1.388 . S
C288 H275 0.930 . S
C288 C287 1.388 . S
C288 C289 1.390 . S
C289 C288 1.390 . S
C289 C290 1.394 . S
C289 C295 1.465 . S
C290 C285 1.399 . S
C290 C289 1.394 . S
C290 C291 1.516 . S
C291 C290 1.516 . S
C291 C292 1.502 . S
C291 C293 1.561 . S
C291 C294 1.526 . S
C292 H276 0.959 . S
C292 H277 0.959 . S
C292 H278 0.961 . S
C292 C291 1.502 . S
C293 H279 0.960 . S
C293 H280 0.961 . S
C293 H281 0.959 . S
C293 C291 1.561 . S
C294 C291 1.526 . S
C294 C295 1.396 . S
C294 C299 1.390 . S
C295 C289 1.465 . S
C295 C294 1.396 . S
C295 C296 1.399 . S
C296 H282 0.929 . S
C296 C295 1.399 . S
C296 C297 1.385 . S
C297 H283 0.931 . S
C297 C296 1.385 . S
C297 C298 1.389 . S
C298 C297 1.389 . S
C298 C299 1.387 . S
C299 H284 0.930 . S
C299 C294 1.390 . S
C299 C298 1.387 . S
H300 C312 0.930 . S
H301 C314 0.930 . S
H302 C315 0.930 . S
H303 C319 0.959 . S
H304 C319 0.959 . S
H305 C319 0.961 . S
H306 C320 0.960 . S
H307 C320 0.961 . S
H308 C320 0.959 . S
H309 C323 0.929 . S
H310 C324 0.931 . S
H311 C326 0.930 . S
C312 H300 0.930 . S
C312 C313 1.399 . S
C312 C317 1.399 . S
C313 C312 1.399 . S
C313 C314 1.376 . S
C314 H301 0.930 . S
C314 C313 1.376 . S
C314 C315 1.388 . S
C315 H302 0.930 . S
C315 C314 1.388 . S
C315 C316 1.390 . S
C316 C315 1.390 . S
C316 C317 1.394 . S
C316 C322 1.465 . S
C317 C312 1.399 . S
C317 C316 1.394 . S
C317 C318 1.516 . S
C318 C317 1.516 . S
C318 C319 1.502 . S
C318 C320 1.561 . S
C318 C321 1.526 . S
C319 H303 0.959 . S
C319 H304 0.959 . S
C319 H305 0.961 . S
C319 C318 1.502 . S
C320 H306 0.960 . S
C320 H307 0.961 . S
C320 H308 0.959 . S
C320 C318 1.561 . S
C321 C318 1.526 . S
C321 C322 1.396 . S
C321 C326 1.390 . S
C322 C316 1.465 . S
C322 C321 1.396 . S
C322 C323 1.399 . S
C323 H309 0.929 . S
C323 C322 1.399 . S
C323 C324 1.385 . S
C324 H310 0.931 . S
C324 C323 1.385 . S
C324 C325 1.389 . S
C325 C324 1.389 . S
C325 C326 1.387 . S
C326 H311 0.930 . S
C326 C321 1.390 . S
C326 C325 1.387 . S
H327 C339 0.930 . S
H328 C341 0.930 . S
H329 C342 0.930 . S
H330 C346 0.959 . S
H331 C346 0.959 . S
H332 C346 0.961 . S
H333 C347 0.960 . S
H334 C347 0.961 . S
H335 C347 0.959 . S
H336 C350 0.929 . S
H337 C351 0.931 . S
H338 C353 0.930 . S
C339 H327 0.930 . S
C339 C340 1.399 . S
C339 C344 1.399 . S
C340 C339 1.399 . S
C340 C341 1.376 . S
C341 H328 0.930 . S
C341 C340 1.376 . S
C341 C342 1.388 . S
C342 H329 0.930 . S
C342 C341 1.388 . S
C342 C343 1.390 . S
C343 C342 1.390 . S
C343 C344 1.394 . S
C343 C349 1.465 . S
C344 C339 1.399 . S
C344 C343 1.394 . S
C344 C345 1.516 . S
C345 C344 1.516 . S
C345 C346 1.502 . S
C345 C347 1.561 . S
C345 C348 1.526 . S
C346 H330 0.959 . S
C346 H331 0.959 . S
C346 H332 0.961 . S
C346 C345 1.502 . S
C347 H333 0.960 . S
C347 H334 0.961 . S
C347 H335 0.959 . S
C347 C345 1.561 . S
C348 C345 1.526 . S
C348 C349 1.396 . S
C348 C353 1.390 . S
C349 C343 1.465 . S
C349 C348 1.396 . S
C349 C350 1.399 . S
C350 H336 0.929 . S
C350 C349 1.399 . S
C350 C351 1.385 1_556 S
C351 H337 0.931 . S
C351 C350 1.385 1_554 S
C351 C352 1.389 1_554 S
C352 C351 1.389 1_556 S
C352 C353 1.387 . S
C353 H338 0.930 . S
C353 C348 1.390 . S
C353 C352 1.387 . S
H354 C366 0.930 1_556 S
H355 C368 0.930 . S
H356 C369 0.930 . S
H357 C373 0.959 . S
H358 C373 0.959 . S
H359 C373 0.961 . S
H360 C374 0.950 1_556 S
H361 C374 0.961 . S
H362 C374 0.959 . S
H363 C377 0.929 . S
H364 C378 0.931 . S
H365 C380 0.930 . S
C366 H354 0.930 1_554 S
C366 C367 1.399 . S
C366 C371 1.399 . S
C367 C366 1.399 . S
C367 C368 1.376 . S
C368 H355 0.930 . S
C368 C367 1.376 . S
C368 C369 1.388 . S
C369 H356 0.930 . S
C369 C368 1.388 . S
C369 C370 1.390 . S
C370 C369 1.390 . S
C370 C371 1.394 . S
C370 C376 1.465 . S
C371 C366 1.399 . S
C371 C370 1.394 . S
C371 C372 1.516 . S
C372 C371 1.516 . S
C372 C373 1.502 . S
C372 C374 1.561 . S
C372 C375 1.526 . S
C373 H357 0.959 . S
C373 H358 0.959 . S
C373 H359 0.961 . S
C373 C372 1.502 . S
C374 H360 0.950 1_554 S
C374 H361 0.961 . S
C374 H362 0.959 . S
C374 C372 1.561 . S
C375 C372 1.526 . S
C375 C376 1.396 . S
C375 C380 1.390 . S
C376 C370 1.465 . S
C376 C375 1.396 . S
C376 C377 1.399 . S
C377 H363 0.929 . S
C377 C376 1.399 . S
C377 C378 1.385 . S
C378 H364 0.931 . S
C378 C377 1.385 . S
C378 C379 1.389 . S
C379 C378 1.389 . S
C379 C380 1.387 . S
C380 H365 0.930 . S
C380 C375 1.390 . S
C380 C379 1.387 . S
H381 C393 0.930 . S
H382 C395 0.930 . S
H383 C396 0.930 . S
H384 C400 0.959 . S
H385 C400 0.959 . S
H386 C400 0.961 . S
H387 C401 0.960 . S
H388 C401 0.961 . S
H389 C401 0.959 . S
H390 C404 0.929 . S
H391 C405 0.931 . S
H392 C407 0.930 . S
C393 H381 0.930 . S
C393 C394 1.399 . S
C393 C398 1.399 . S
C394 C393 1.399 . S
C394 C395 1.376 . S
C395 H382 0.930 . S
C395 C394 1.376 . S
C395 C396 1.388 . S
C396 H383 0.930 . S
C396 C395 1.388 . S
C396 C397 1.390 . S
C397 C396 1.390 . S
C397 C398 1.394 . S
C397 C403 1.465 . S
C398 C393 1.399 . S
C398 C397 1.394 . S
C398 C399 1.516 . S
C399 C398 1.516 . S
C399 C400 1.502 . S
C399 C401 1.561 . S
C399 C402 1.526 . S
C400 H384 0.959 . S
C400 H385 0.959 . S
C400 H386 0.961 . S
C400 C399 1.502 . S
C401 H387 0.960 . S
C401 H388 0.961 . S
C401 H389 0.959 . S
C401 C399 1.561 . S
C402 C399 1.526 . S
C402 C403 1.396 . S
C402 C407 1.390 . S
C403 C397 1.465 . S
C403 C402 1.396 . S
C403 C404 1.399 . S
C404 H390 0.929 . S
C404 C403 1.399 . S
C404 C405 1.385 . S
C405 H391 0.931 . S
C405 C404 1.385 . S
C405 C406 1.389 . S
C406 C405 1.389 . S
C406 C407 1.387 . S
C407 H392 0.930 . S
C407 C402 1.390 . S
C407 C406 1.387 . S
C97 C12 1.441 . S
C109 C82 1.445 . S
C124 C5 1.236 . S
C136 C26 1.404 . S
C151 C33 1.154 . S
C163 C19 1.206 . S
C178 C54 1.444 . S
C190 C40 1.432 . S
C205 C68 1.403 . S
C217 C47 1.243 . S
C232 C75 1.156 . S
C244 C61 1.069 . S
C259 C11 1.564 . S
C271 C60 1.538 . S
C286 C81 1.409 . S
C298 C25 1.397 . S
C313 C32 1.631 . S
C325 C4 1.684 . S
C340 C18 1.542 . S
C352 C53 1.538 1_556 S
C367 C39 1.370 1_554 S
C379 C67 1.362 . S
C394 C74 1.672 . S
C406 C46 1.634 . S
