# Generated by pormake.
# Topology sma, (6)-cn, num edge types: 1
# Building blocks:
#     Node 0, Type 0, BuildingBlock: NUHQIS_clean_sbu_0, # of connection points: 6
#     Node 1, Type 0, BuildingBlock: NUHQIS_clean_sbu_0, # of connection points: 6
#     Node 2, Type 0, BuildingBlock: NUHQIS_clean_sbu_0, # of connection points: 6
#     Edge 3, Type (0, 0), BuildingBlock: FUNLAD_clean_linker_0, # of connection points: 2
#     Edge 4, Type (0, 0), BuildingBlock: FUNLAD_clean_linker_0, # of connection points: 2
#     Edge 5, Type (0, 0), BuildingBlock: FUNLAD_clean_linker_0, # of connection points: 2
#     Edge 6, Type (0, 0), BuildingBlock: FUNLAD_clean_linker_0, # of connection points: 2
#     Edge 7, Type (0, 0), BuildingBlock: FUNLAD_clean_linker_0, # of connection points: 2
#     Edge 8, Type (0, 0), BuildingBlock: FUNLAD_clean_linker_0, # of connection points: 2
#     Edge 9, Type (0, 0), BuildingBlock: FUNLAD_clean_linker_0, # of connection points: 2
#     Edge 10, Type (0, 0), BuildingBlock: FUNLAD_clean_linker_0, # of connection points: 2
#     Edge 11, Type (0, 0), BuildingBlock: FUNLAD_clean_linker_0, # of connection points: 2
# Relax obj value: 0.080
# Max RMSD: 0.185
# Mean RMSD: 0.181
data_MOF--net-sma--node1-NUHQIS_clean_sbu_0--edge1-FUNLAD_clean_linker_0
_symmetry_space_group_name_H-M    P1
_symmetry_Int_Tables_number       1
_symmetry_cell_setting            triclinic
loop_
_symmetry_equiv_pos_as_xyz
'x, y, z'
_cell_length_a     44.987125
_cell_length_b     44.985597
_cell_length_c     15.824923
_cell_angle_alpha  91.274139
_cell_angle_beta   92.990849
_cell_angle_gamma 119.92591
loop_
_atom_site_label
_atom_site_type_symbol
_atom_site_fract_x
_atom_site_fract_y
_atom_site_fract_z
_atom_type_partial_charge
Tb0 Tb 0.07263 0.51687 0.14816 0.0
Eu1 Eu 1.02336 0.55248 0.19123 0.0
C2 C 0.0474 0.51703 0.32883 0.0
C3 C 0.99088 0.46919 0.16363 0.0
C4 C 0.14635 0.50491 0.08016 0.0
C5 C 0.20832 0.53197 0.11265 0.0
C6 C 0.17602 0.52614 0.13355 0.0
C7 C 0.15001 0.49088 0.00385 0.0
C8 C 0.18238 0.49691 -0.01734 0.0
C9 C 0.21184 0.51686 0.03781 0.0
C10 C 0.11137 0.49378 0.10754 0.0
O11 O 0.06377 0.54213 0.04327 0.0
O12 O 1.00921 0.52899 0.06026 0.0
O13 O 0.07755 0.59518 0.17612 0.0
O14 O 0.10824 0.56783 0.20586 0.0
C15 C 1.0323 0.53068 0.01131 0.0
O16 O 1.00929 0.59079 0.15848 0.0
O17 O 0.98573 0.55819 0.26233 0.0
O18 O 0.04494 0.54449 0.31434 0.0
O19 O 0.05297 0.5 0.26943 0.0
O20 O 1.01986 0.47273 0.13668 0.0
O21 O 0.98769 0.49535 0.19071 0.0
C22 C 0.10651 0.59602 0.19886 0.0
O23 O 0.10916 0.50289 0.18473 0.0
O24 O 0.08914 0.49537 0.0541 0.0
C25 C 0.95189 0.57626 0.18139 0.0
C26 C 0.8895 0.5727 0.12212 0.0
C27 C 0.90981 0.5674 0.06562 0.0
C28 C 0.94061 0.5691 0.09491 0.0
C29 C 0.93129 0.58065 0.23814 0.0
C30 C 0.90044 0.57881 0.20901 0.0
C31 C 0.98571 0.58106 0.21286 0.0
H32 H 0.23052 0.54789 0.15597 0.0
H33 H 0.17423 0.53741 0.1929 0.0
H34 H 0.1276 0.47416 0.96192 0.0
H35 H 0.18406 0.48464 0.92487 0.0
H36 H 0.90248 0.56294 -0.00172 0.0
H37 H 0.95593 0.56549 0.04958 0.0
H38 H 0.93935 0.58605 0.30512 0.0
H39 H 0.88522 0.58231 0.25477 0.0
Tb40 Tb 0.60428 0.07559 0.51514 0.0
Eu41 Eu 0.51886 1.02227 0.4997 0.0
C42 C 0.56105 0.05478 0.67685 0.0
C43 C 0.57151 0.99577 0.515 0.0
C44 C 0.69444 0.1418 0.46963 0.0
C45 C 0.75352 0.18746 0.46016 0.0
C46 C 0.729 0.1592 0.50079 0.0
C47 C 0.68462 0.15298 0.3968 0.0
C48 C 0.70919 0.18125 0.35579 0.0
C49 C 0.74401 0.19898 0.3871 0.0
C50 C 0.66913 0.11259 0.5151 0.0
O51 O 0.58582 0.06658 0.38254 0.0
O52 O 0.53153 0.05717 0.39368 0.0
O53 O 0.52708 0.07436 0.54244 0.0
O54 O 0.58358 0.11059 0.51077 0.0
C55 C 0.5594 0.06903 0.35316 0.0
O56 O 0.47253 0.99282 0.41618 0.0
O57 O 0.4691 0.98953 0.55218 0.0
O58 O 0.53615 1.02669 0.63707 0.0
O59 O 0.58856 0.07692 0.64058 0.0
O60 O 0.59358 1.02521 0.55498 0.0
O61 O 0.54562 0.99309 0.46677 0.0
C62 C 0.55367 0.10541 0.53491 0.0
O63 O 0.65031 0.11891 0.56391 0.0
O64 O 0.6509 0.08341 0.47142 0.0
C65 C 0.42722 0.9411 0.4643 0.0
C66 C 0.3733 0.87277 0.42532 0.0
C67 C 0.40428 0.8861 0.38501 0.0
C68 C 0.43097 0.91988 0.40431 0.0
C69 C 0.39692 0.92751 0.50678 0.0
C70 C 0.37031 0.89374 0.48778 0.0
C71 C 0.45277 0.97815 0.47754 0.0
H72 H 0.77983 0.20073 0.48726 0.0
H73 H 0.73703 0.15109 0.55727 0.0
H74 H 0.658 0.13993 0.37193 0.0
H75 H 0.7009 0.18908 0.29931 0.0
H76 H 0.40748 0.87088 0.3362 0.0
H77 H 0.45407 0.92969 0.37043 0.0
H78 H 0.39343 0.94336 0.55323 0.0
H79 H 0.34719 0.88421 0.52145 0.0
Tb80 Tb 0.57163 0.5951 0.85607 0.0
Eu81 Eu 0.53529 0.50945 0.81722 0.0
C82 C 0.56956 0.54567 0.00041 0.0
C83 C 0.6183 0.56061 0.84636 0.0
C84 C 0.58947 0.68649 0.8403 0.0
C85 C 0.57649 0.73251 0.86208 0.0
C86 C 0.57869 0.70457 0.89202 0.0
C87 C 0.5974 0.69661 0.75711 0.0
C88 C 0.59531 0.72466 0.72719 0.0
C89 C 0.5853 0.74332 0.77968 0.0
C90 C 0.59483 0.65919 0.8765 0.0
O91 O 0.57853 0.58504 0.72664 0.0
O92 O 0.52747 0.53657 0.71008 0.0
O93 O 0.49549 0.51915 0.87248 0.0
O94 O 0.51639 0.57357 0.8263 0.0
C95 C 0.55505 0.55964 0.67735 0.0
O96 O 0.52206 0.4697 0.71816 0.0
O97 O 0.50638 0.455 0.84512 0.0
O98 O 0.56088 0.51944 0.94693 0.0
O99 O 0.56883 0.57361 -0.0204 0.0
O100 O 0.61418 0.58536 0.88 0.0
O101 O 0.5927 0.53283 0.80591 0.0
C102 C 0.49152 0.54556 0.85617 0.0
O103 O 0.57036 0.63626 0.91888 0.0
O104 O 0.6081 0.6454 0.82918 0.0
C105 C 0.51727 0.4175 0.76024 0.0
C106 C 0.53292 0.36487 0.72756 0.0
C107 C 0.49896 0.35688 0.73938 0.0
C108 C 0.49126 0.38293 0.75541 0.0
C109 C 0.55137 0.4257 0.75079 0.0
C110 C 0.55911 0.39964 0.7345 0.0
C111 C 0.50789 0.44448 0.76866 0.0
H112 H 0.56811 0.74582 0.90392 0.0
H113 H 0.57256 0.69747 0.95646 0.0
H114 H 0.60601 0.68341 0.71558 0.0
H115 H 0.60266 0.73238 0.66379 0.0
H116 H 0.47808 0.33051 0.73349 0.0
H117 H 0.46477 0.37608 0.7619 0.0
H118 H 0.57188 0.45227 0.75435 0.0
H119 H 0.58559 0.40673 0.72694 0.0
C120 C 0.25725 0.52539 0.93792 0.0
C121 C 0.24563 0.52015 0.0201 0.0
C122 C 0.28846 0.52719 0.92149 0.0
C123 C 0.30875 0.52362 -0.01302 0.0
C124 C 0.29698 0.51823 0.0688 0.0
C125 C 0.26602 0.51674 0.08533 0.0
C126 C 0.3414 0.52381 0.97229 0.0
C127 C 0.36141 0.53954 0.90839 0.0
C128 C 0.3945 0.54031 0.896 0.0
C129 C 0.42005 0.5676 0.85417 0.0
C130 C 0.45143 0.5693 0.8413 0.0
C131 C 0.45791 0.54339 0.86875 0.0
H132 H 0.38146 0.49216 0.95304 0.0
C133 C 0.43209 0.51569 0.90923 0.0
C134 C 0.40079 0.51415 0.92277 0.0
H135 H 0.43606 0.49519 0.93091 0.0
H136 H 0.24219 0.5281 0.8862 0.0
H137 H 0.29611 0.53056 0.85713 0.0
H138 H 0.31178 0.51504 0.12039 0.0
H139 H 0.25763 0.51205 0.14904 0.0
H140 H 0.35009 0.51194 0.01896 0.0
H141 H 0.35448 0.55415 0.86614 0.0
H142 H 0.41588 0.58796 0.83214 0.0
H143 H 0.47058 0.59098 0.80962 0.0
C144 C 0.8041 0.23631 0.34093 0.0
C145 C 0.77022 0.22988 0.34561 0.0
C146 C 0.82921 0.26631 0.30676 0.0
C147 C 0.82106 0.29068 0.27554 0.0
C148 C 0.78705 0.28387 0.27885 0.0
C149 C 0.762 0.25395 0.31323 0.0
C150 C 0.84723 0.32435 0.24399 0.0
C151 C 0.87966 0.33279 0.22745 0.0
C152 C 0.90642 0.36774 0.20379 0.0
C153 C 0.93653 0.37187 0.17012 0.0
C154 C 0.96348 0.40455 0.15372 0.0
C155 C 0.96106 0.43404 0.17102 0.0
H156 H 0.88172 0.39584 0.24718 0.0
C157 C 0.93059 0.42982 0.20267 0.0
C158 C 0.90377 0.39727 0.21925 0.0
H159 H 0.92771 0.45184 0.21739 0.0
H160 H 0.81136 0.2182 0.36423 0.0
H161 H 0.85501 0.27039 0.30712 0.0
H162 H 0.77987 0.30212 0.25603 0.0
H163 H 0.73641 0.25026 0.31669 0.0
H164 H 0.83895 0.34296 0.23403 0.0
H165 H 0.88737 0.31353 0.23113 0.0
H166 H 0.93954 0.34976 0.15792 0.0
H167 H 0.98655 0.40671 0.12976 0.0
C168 C 0.60008 0.96623 0.587 0.0
C169 C 0.57362 0.96442 0.5318 0.0
C170 C 0.60063 0.93638 0.60783 0.0
C171 C 0.57451 0.90385 0.57437 0.0
C172 C 0.54875 0.90224 0.51703 0.0
C173 C 0.5482 0.93207 0.49621 0.0
C174 C 0.57331 0.87114 0.59675 0.0
C175 C 0.58876 0.86779 0.66858 0.0
C176 C 0.58681 0.83506 0.69427 0.0
C177 C 0.59751 0.8334 0.7782 0.0
C178 C 0.59675 0.80372 0.80576 0.0
C179 C 0.58532 0.77468 0.75005 0.0
H180 H 0.56773 0.80621 0.57241 0.0
C181 C 0.57474 0.77629 0.66578 0.0
C182 C 0.57554 0.80608 0.63808 0.0
H183 H 0.56563 0.75442 0.62108 0.0
H184 H 0.62027 0.99072 0.61502 0.0
H185 H 0.6217 0.93909 0.64978 0.0
H186 H 0.52851 0.87769 0.48937 0.0
H187 H 0.52744 0.92962 0.45329 0.0
H188 H 0.55741 0.84876 0.55444 0.0
H189 H 0.60242 0.88975 0.71354 0.0
H190 H 0.60664 0.85527 0.82298 0.0
H191 H 0.60579 0.80383 0.8706 0.0
C192 C 0.67845 0.58897 0.91556 0.0
C193 C 0.65204 0.5623 0.86268 0.0
C194 C 0.70902 0.58897 0.93761 0.0
C195 C 0.71396 0.56212 0.90766 0.0
C196 C 0.68811 0.53619 0.85226 0.0
C197 C 0.65748 0.53613 0.83037 0.0
C198 C 0.7457 0.56045 0.93174 0.0
C199 C 0.76595 0.57576 0.00364 0.0
C200 C 0.79754 0.57422 0.03068 0.0
C201 C 0.81964 0.59693 0.09739 0.0
C202 C 0.84926 0.59642 0.12667 0.0
C203 C 0.85765 0.57294 0.09055 0.0
H204 H 0.78935 0.53203 0.94425 0.0
C205 C 0.83552 0.55005 0.02386 0.0
C206 C 0.80583 0.5506 -0.00565 0.0
H207 H 0.8408 0.53123 -0.00474 0.0
H208 H 0.67537 0.6097 0.94135 0.0
H209 H 0.72866 0.61019 -0.02221 0.0
H210 H 0.69127 0.5154 0.82719 0.0
H211 H 0.63785 0.5152 0.78926 0.0
H212 H 0.7517 0.54521 0.88939 0.0
H213 H 0.75916 0.59035 0.04614 0.0
H214 H 0.8141 0.61542 0.12696 0.0
H215 H 0.86585 0.61487 0.17709 0.0
C216 C 0.30981 0.83172 0.39468 0.0
C217 C 0.34374 0.83776 0.40007 0.0
C218 C 0.28203 0.79917 0.36972 0.0
C219 C 0.28741 0.77171 0.34849 0.0
C220 C 0.32125 0.77764 0.35493 0.0
C221 C 0.34906 0.81022 0.38001 0.0
C222 C 0.25849 0.73641 0.32237 0.0
C223 C 0.22723 0.72977 0.28992 0.0
C224 C 0.19735 0.6948 0.26487 0.0
C225 C 0.16659 0.69245 0.23162 0.0
C226 C 0.13739 0.66056 0.20935 0.0
C227 C 0.13805 0.62993 0.21945 0.0
H228 H 0.22094 0.66417 0.29953 0.0
C229 C 0.16889 0.63212 0.25157 0.0
C230 C 0.19814 0.66408 0.27422 0.0
H231 H 0.17039 0.60908 0.26035 0.0
H232 H 0.30464 0.8523 0.40886 0.0
H233 H 0.25645 0.79573 0.3685 0.0
H234 H 0.32627 0.75699 0.34011 0.0
H235 H 0.37472 0.81371 0.38455 0.0
H236 H 0.26389 0.71561 0.32862 0.0
H237 H 0.22301 0.75121 0.27999 0.0
H238 H 0.16496 0.71545 0.22343 0.0
H239 H 0.11419 0.66001 0.18471 0.0
C240 C 0.52402 0.30533 0.74327 0.0
C241 C 0.5406 0.33707 0.7052 0.0
C242 C 0.52995 0.27866 0.71937 0.0
C243 C 0.55244 0.28293 0.65603 0.0
C244 C 0.56969 0.31495 0.61972 0.0
C245 C 0.56379 0.34163 0.64369 0.0
C246 C 0.55906 0.25499 0.62723 0.0
C247 C 0.53687 0.22124 0.63513 0.0
C248 C 0.54227 0.19255 0.60561 0.0
C249 C 0.51425 0.15885 0.60316 0.0
C250 C 0.51785 0.13081 0.5788 0.0
C251 C 0.5497 0.13559 0.55617 0.0
H252 H 0.5968 0.22273 0.5851 0.0
C253 C 0.57782 0.1693 0.55797 0.0
C254 C 0.57424 0.19745 0.58263 0.0
H255 H 0.60284 0.17398 0.54179 0.0
H256 H 0.50659 0.30114 0.79221 0.0
H257 H 0.5171 0.25499 0.75161 0.0
H258 H 0.5874 0.3192 0.57139 0.0
H259 H 0.57682 0.36557 0.61242 0.0
H260 H 0.58224 0.26273 0.5947 0.0
H261 H 0.51257 0.21378 0.66204 0.0
H262 H 0.48934 0.15407 0.62072 0.0
H263 H 0.49558 0.10531 0.5786 0.0
C264 C 0.04371 0.50609 0.88329 0.0
C265 C 1.0207 0.51106 0.92945 0.0
C266 C 1.03222 0.48558 0.80853 0.0
C267 C 0.99734 0.46968 0.7781 0.0
C268 C 0.97427 0.47418 0.82534 0.0
C269 C 0.98578 0.49463 0.90042 0.0
C270 C 0.98594 0.45458 0.69053 0.0
C271 C 1.00704 0.45043 0.64122 0.0
C272 C 1.01418 0.4654 0.55762 0.0
C273 C 1.03251 0.45662 0.50335 0.0
C274 C 0.04425 0.47417 0.43 0.0
C275 C 1.0382 0.50114 0.41033 0.0
H276 H 0.99546 0.50113 0.57966 0.0
C277 C 1.02012 0.51015 0.46486 0.0
C278 C 1.00821 0.49249 0.53777 0.0
H279 H 1.0148 0.53058 0.45092 0.0
H280 H 0.07072 0.51822 0.90442 0.0
H281 H 0.05131 0.48385 0.77333 0.0
H282 H 0.94747 0.4628 0.80265 0.0
H283 H 0.96731 0.4977 0.93531 0.0
H284 H 0.96449 0.45619 0.66066 0.0
H285 H 1.02549 0.44392 0.66916 0.0
H286 H 1.03821 0.43652 0.5184 0.0
H287 H 0.05807 0.46659 0.38876 0.0
C288 C 0.53438 0.09264 0.2492 0.0
C289 C 0.56175 0.08767 0.27669 0.0
C290 C 0.53552 0.10854 0.17417 0.0
C291 C 0.56394 0.11945 0.12546 0.0
C292 C 0.59261 0.11749 0.15684 0.0
C293 C 0.59146 0.10148 0.23183 0.0
C294 C 0.56157 0.12557 0.03531 0.0
C295 C 0.53395 0.10231 -0.01391 0.0
C296 C 0.53822 0.09118 0.90167 0.0
C297 C 0.52035 0.0559 0.87817 0.0
C298 C 0.52831 0.04359 0.80622 0.0
C299 C 0.55438 0.06647 0.75717 0.0
H300 H 0.57642 0.14164 0.86511 0.0
C301 C 0.57125 0.10193 0.77906 0.0
C302 C 0.56297 0.11421 0.85002 0.0
H303 H 0.59045 0.12047 0.74046 0.0
H304 H 0.51155 0.08325 0.28399 0.0
H305 H 0.51337 0.1104 0.15164 0.0
H306 H 0.61481 0.12584 0.12 0.0
H307 H 0.61328 0.0988 0.25271 0.0
H308 H 0.58581 0.1415 0.00756 0.0
H309 H 0.51063 0.08465 0.01541 0.0
H310 H 0.50113 0.03769 0.91732 0.0
H311 H 0.51431 1.01627 0.78942 0.0
C312 C 0.60093 0.56412 0.58827 0.0
C313 C 0.56577 0.54953 0.60106 0.0
C314 C 0.61146 0.55242 0.5203 0.0
C315 C 0.58694 0.52644 0.46282 0.0
C316 C 0.55195 0.51097 0.47754 0.0
C317 C 0.54141 0.52244 0.54603 0.0
C318 C 0.59612 0.51846 0.38067 0.0
C319 C 0.62005 0.54372 0.33753 0.0
C320 C 0.61305 0.54485 0.24621 0.0
C321 C 0.61625 0.57541 0.21686 0.0
C322 C 0.60188 0.57564 0.13709 0.0
C323 C 0.58451 0.54535 0.08491 0.0
H324 H 0.59543 0.4913 0.21302 0.0
C325 C 0.58347 0.51531 0.11204 0.0
C326 C 0.59768 0.51506 0.19215 0.0
H327 H 0.57101 0.49175 0.07232 0.0
H328 H 0.62044 0.58425 0.63142 0.0
H329 H 0.6387 0.56419 0.5121 0.0
H330 H 0.53256 0.49092 0.43394 0.0
H331 H 0.51422 0.51026 0.55559 0.0
H332 H 0.57667 0.49491 0.3464 0.0
H333 H 0.63826 0.56813 0.37038 0.0
H334 H 0.628 0.59868 0.2577 0.0
H335 H 0.604 0.59944 0.11704 0.0
loop_
_geom_bond_atom_site_label_1
_geom_bond_atom_site_label_2
_geom_bond_distance
_geom_bond_site_symmetry_2
_ccdc_geom_bond_type
Tb0 C10 2.825 . S
Tb0 O11 2.347 . S
Tb0 O14 2.366 . S
Tb0 O19 2.418 . S
Tb0 O20 2.384 1_455 S
Tb0 O23 2.479 . S
Tb0 O24 2.471 . S
Eu1 O12 2.418 1_554 S
Eu1 O13 2.384 1_655 S
Eu1 O16 2.479 . S
Eu1 O17 2.471 . S
Eu1 O18 2.347 1_655 S
Eu1 O21 2.366 . S
Eu1 C31 2.825 . S
C2 O18 1.259 . S
C2 O19 1.265 . S
C3 O20 1.255 . S
C3 O21 1.265 . S
C4 C6 1.380 . S
C4 C7 1.374 . S
C4 C10 1.507 . S
C5 C6 1.384 . S
C5 C9 1.387 . S
C5 H32 0.930 . S
C6 C4 1.380 . S
C6 C5 1.384 . S
C6 H33 0.931 . S
C7 C4 1.374 . S
C7 C8 1.390 . S
C7 H34 0.930 . S
C8 C7 1.390 . S
C8 C9 1.391 . S
C8 H35 0.930 . S
C9 C5 1.387 . S
C9 C8 1.391 . S
C10 Tb0 2.825 . S
C10 C4 1.507 . S
C10 O23 1.238 . S
C10 O24 1.247 . S
O11 Tb0 2.347 . S
O11 C15 1.259 1_554 S
O12 Eu1 2.418 1_556 S
O12 C15 1.265 1_655 S
O13 Eu1 2.384 1_455 S
O13 C22 1.255 . S
O14 Tb0 2.366 . S
O14 C22 1.265 . S
C15 O11 1.259 1_556 S
C15 O12 1.265 1_455 S
O16 Eu1 2.479 . S
O16 C31 1.238 . S
O17 Eu1 2.471 . S
O17 C31 1.247 . S
O18 Eu1 2.347 1_455 S
O18 C2 1.259 . S
O19 Tb0 2.418 . S
O19 C2 1.265 . S
O20 Tb0 2.384 1_655 S
O20 C3 1.255 . S
O21 Eu1 2.366 . S
O21 C3 1.265 . S
C22 O13 1.255 . S
C22 O14 1.265 . S
O23 Tb0 2.479 . S
O23 C10 1.238 . S
O24 Tb0 2.471 . S
O24 C10 1.247 . S
C25 C28 1.380 . S
C25 C29 1.374 . S
C25 C31 1.507 . S
C26 C27 1.387 . S
C26 C30 1.391 . S
C27 C26 1.387 . S
C27 C28 1.384 . S
C27 H36 0.930 . S
C28 C25 1.380 . S
C28 C27 1.384 . S
C28 H37 0.931 . S
C29 C25 1.374 . S
C29 C30 1.390 . S
C29 H38 0.930 . S
C30 C26 1.391 . S
C30 C29 1.390 . S
C30 H39 0.930 . S
C31 Eu1 2.825 . S
C31 O16 1.238 . S
C31 O17 1.247 . S
C31 C25 1.507 . S
H32 C5 0.930 . S
H33 C6 0.931 . S
H34 C7 0.930 . S
H35 C8 0.930 . S
H36 C27 0.930 . S
H37 C28 0.931 . S
H38 C29 0.930 . S
H39 C30 0.930 . S
Tb40 C50 2.825 . S
Tb40 O51 2.347 . S
Tb40 O54 2.366 . S
Tb40 O59 2.418 . S
Tb40 O60 2.384 1_545 S
Tb40 O63 2.479 . S
Tb40 O64 2.471 . S
Eu41 O52 2.418 . S
Eu41 O53 2.384 1_565 S
Eu41 O56 2.479 . S
Eu41 O57 2.471 . S
Eu41 O58 2.347 1_565 S
Eu41 O61 2.366 . S
Eu41 C71 2.825 . S
C42 O58 1.259 . S
C42 O59 1.265 . S
C43 O60 1.255 . S
C43 O61 1.265 . S
C44 C46 1.380 . S
C44 C47 1.374 . S
C44 C50 1.507 . S
C45 C46 1.384 . S
C45 C49 1.387 . S
C45 H72 0.930 . S
C46 C44 1.380 . S
C46 C45 1.384 . S
C46 H73 0.931 . S
C47 C44 1.374 . S
C47 C48 1.390 . S
C47 H74 0.930 . S
C48 C47 1.390 . S
C48 C49 1.391 . S
C48 H75 0.930 . S
C49 C45 1.387 . S
C49 C48 1.391 . S
C50 Tb40 2.825 . S
C50 C44 1.507 . S
C50 O63 1.238 . S
C50 O64 1.247 . S
O51 Tb40 2.347 . S
O51 C55 1.259 . S
O52 Eu41 2.418 . S
O52 C55 1.265 1_565 S
O53 Eu41 2.384 1_545 S
O53 C62 1.255 . S
O54 Tb40 2.366 . S
O54 C62 1.265 . S
C55 O51 1.259 . S
C55 O52 1.265 1_545 S
O56 Eu41 2.479 . S
O56 C71 1.238 . S
O57 Eu41 2.471 . S
O57 C71 1.247 . S
O58 Eu41 2.347 1_545 S
O58 C42 1.259 . S
O59 Tb40 2.418 . S
O59 C42 1.265 . S
O60 Tb40 2.384 1_565 S
O60 C43 1.255 . S
O61 Eu41 2.366 . S
O61 C43 1.265 . S
C62 O53 1.255 . S
C62 O54 1.265 . S
O63 Tb40 2.479 . S
O63 C50 1.238 . S
O64 Tb40 2.471 . S
O64 C50 1.247 . S
C65 C68 1.380 . S
C65 C69 1.374 . S
C65 C71 1.507 . S
C66 C67 1.387 . S
C66 C70 1.391 . S
C67 C66 1.387 . S
C67 C68 1.384 . S
C67 H76 0.930 . S
C68 C65 1.380 . S
C68 C67 1.384 . S
C68 H77 0.931 . S
C69 C65 1.374 . S
C69 C70 1.390 . S
C69 H78 0.930 . S
C70 C66 1.391 . S
C70 C69 1.390 . S
C70 H79 0.930 . S
C71 Eu41 2.825 . S
C71 O56 1.238 . S
C71 O57 1.247 . S
C71 C65 1.507 . S
H72 C45 0.930 . S
H73 C46 0.931 . S
H74 C47 0.930 . S
H75 C48 0.930 . S
H76 C67 0.930 . S
H77 C68 0.931 . S
H78 C69 0.930 . S
H79 C70 0.930 . S
Tb80 C90 2.825 . S
Tb80 O91 2.347 . S
Tb80 O94 2.366 . S
Tb80 O99 2.418 1_556 S
Tb80 O100 2.384 . S
Tb80 O103 2.479 . S
Tb80 O104 2.471 . S
Eu81 O92 2.418 . S
Eu81 O93 2.384 . S
Eu81 O96 2.479 . S
Eu81 O97 2.471 . S
Eu81 O98 2.347 . S
Eu81 O101 2.366 . S
Eu81 C111 2.825 . S
C82 O98 1.259 1_554 S
C82 O99 1.265 . S
C83 O100 1.255 . S
C83 O101 1.265 . S
C84 C86 1.380 . S
C84 C87 1.374 . S
C84 C90 1.507 . S
C85 C86 1.384 . S
C85 C89 1.387 . S
C85 H112 0.930 . S
C86 C84 1.380 . S
C86 C85 1.384 . S
C86 H113 0.931 . S
C87 C84 1.374 . S
C87 C88 1.390 . S
C87 H114 0.930 . S
C88 C87 1.390 . S
C88 C89 1.391 . S
C88 H115 0.930 . S
C89 C85 1.387 . S
C89 C88 1.391 . S
C90 Tb80 2.825 . S
C90 C84 1.507 . S
C90 O103 1.238 . S
C90 O104 1.247 . S
O91 Tb80 2.347 . S
O91 C95 1.259 . S
O92 Eu81 2.418 . S
O92 C95 1.265 . S
O93 Eu81 2.384 . S
O93 C102 1.255 . S
O94 Tb80 2.366 . S
O94 C102 1.265 . S
C95 O91 1.259 . S
C95 O92 1.265 . S
O96 Eu81 2.479 . S
O96 C111 1.238 . S
O97 Eu81 2.471 . S
O97 C111 1.247 . S
O98 Eu81 2.347 . S
O98 C82 1.259 1_556 S
O99 Tb80 2.418 1_554 S
O99 C82 1.265 . S
O100 Tb80 2.384 . S
O100 C83 1.255 . S
O101 Eu81 2.366 . S
O101 C83 1.265 . S
C102 O93 1.255 . S
C102 O94 1.265 . S
O103 Tb80 2.479 . S
O103 C90 1.238 . S
O104 Tb80 2.471 . S
O104 C90 1.247 . S
C105 C108 1.380 . S
C105 C109 1.374 . S
C105 C111 1.507 . S
C106 C107 1.387 . S
C106 C110 1.391 . S
C107 C106 1.387 . S
C107 C108 1.384 . S
C107 H116 0.930 . S
C108 C105 1.380 . S
C108 C107 1.384 . S
C108 H117 0.931 . S
C109 C105 1.374 . S
C109 C110 1.390 . S
C109 H118 0.930 . S
C110 C106 1.391 . S
C110 C109 1.390 . S
C110 H119 0.930 . S
C111 Eu81 2.825 . S
C111 O96 1.238 . S
C111 O97 1.247 . S
C111 C105 1.507 . S
H112 C85 0.930 . S
H113 C86 0.931 . S
H114 C87 0.930 . S
H115 C88 0.930 . S
H116 C107 0.930 . S
H117 C108 0.931 . S
H118 C109 0.930 . S
H119 C110 0.930 . S
C120 C121 1.386 . S
C120 C122 1.383 . S
C120 H136 0.951 . S
C121 C120 1.386 . S
C121 C125 1.383 . S
C122 C120 1.383 . S
C122 C123 1.402 . S
C122 H137 0.951 . S
C123 C122 1.402 . S
C123 C124 1.375 . S
C123 C126 1.481 . S
C124 C123 1.375 . S
C124 C125 1.367 . S
C124 H138 0.951 . S
C125 C121 1.383 . S
C125 C124 1.367 . S
C125 H139 0.950 . S
C126 C123 1.481 . S
C126 C127 1.297 1_554 S
C126 H140 0.950 . S
C127 C126 1.297 1_556 S
C127 C128 1.479 . S
C127 H141 0.950 . S
C128 C127 1.479 . S
C128 C129 1.375 . S
C128 C134 1.404 . S
C129 C128 1.375 . S
C129 C130 1.369 . S
C129 H142 0.950 . S
C130 C129 1.369 . S
C130 C131 1.392 . S
C130 H143 0.951 . S
C131 C130 1.392 . S
C131 C133 1.384 . S
H132 C134 0.949 1_554 S
C133 C131 1.384 . S
C133 C134 1.385 . S
C133 H135 0.950 . S
C134 C128 1.404 . S
C134 H132 0.949 1_556 S
C134 C133 1.385 . S
H135 C133 0.950 . S
H136 C120 0.951 . S
H137 C122 0.951 . S
H138 C124 0.951 . S
H139 C125 0.950 . S
H140 C126 0.950 . S
H141 C127 0.950 . S
H142 C129 0.950 . S
H143 C130 0.951 . S
C144 C145 1.386 . S
C144 C146 1.383 . S
C144 H160 0.951 . S
C145 C144 1.386 . S
C145 C149 1.383 . S
C146 C144 1.383 . S
C146 C147 1.402 . S
C146 H161 0.951 . S
C147 C146 1.402 . S
C147 C148 1.375 . S
C147 C150 1.481 . S
C148 C147 1.375 . S
C148 C149 1.367 . S
C148 H162 0.951 . S
C149 C145 1.383 . S
C149 C148 1.367 . S
C149 H163 0.950 . S
C150 C147 1.481 . S
C150 C151 1.297 . S
C150 H164 0.950 . S
C151 C150 1.297 . S
C151 C152 1.479 . S
C151 H165 0.950 . S
C152 C151 1.479 . S
C152 C153 1.375 . S
C152 C158 1.404 . S
C153 C152 1.375 . S
C153 C154 1.369 . S
C153 H166 0.950 . S
C154 C153 1.369 . S
C154 C155 1.392 . S
C154 H167 0.951 . S
C155 C154 1.392 . S
C155 C157 1.384 . S
H156 C158 0.949 . S
C157 C155 1.384 . S
C157 C158 1.385 . S
C157 H159 0.950 . S
C158 C152 1.404 . S
C158 H156 0.949 . S
C158 C157 1.385 . S
H159 C157 0.950 . S
H160 C144 0.951 . S
H161 C146 0.951 . S
H162 C148 0.951 . S
H163 C149 0.950 . S
H164 C150 0.950 . S
H165 C151 0.950 . S
H166 C153 0.950 . S
H167 C154 0.951 . S
C168 C169 1.386 . S
C168 C170 1.383 . S
C168 H184 0.951 . S
C169 C168 1.386 . S
C169 C173 1.383 . S
C170 C168 1.383 . S
C170 C171 1.402 . S
C170 H185 0.951 . S
C171 C170 1.402 . S
C171 C172 1.375 . S
C171 C174 1.481 . S
C172 C171 1.375 . S
C172 C173 1.367 . S
C172 H186 0.951 . S
C173 C169 1.383 . S
C173 C172 1.367 . S
C173 H187 0.950 . S
C174 C171 1.481 . S
C174 C175 1.297 . S
C174 H188 0.950 . S
C175 C174 1.297 . S
C175 C176 1.479 . S
C175 H189 0.950 . S
C176 C175 1.479 . S
C176 C177 1.375 . S
C176 C182 1.404 . S
C177 C176 1.375 . S
C177 C178 1.369 . S
C177 H190 0.950 . S
C178 C177 1.369 . S
C178 C179 1.392 . S
C178 H191 0.951 . S
C179 C178 1.392 . S
C179 C181 1.384 . S
H180 C182 0.949 . S
C181 C179 1.384 . S
C181 C182 1.385 . S
C181 H183 0.950 . S
C182 C176 1.404 . S
C182 H180 0.949 . S
C182 C181 1.385 . S
H183 C181 0.950 . S
H184 C168 0.951 . S
H185 C170 0.951 . S
H186 C172 0.951 . S
H187 C173 0.950 . S
H188 C174 0.950 . S
H189 C175 0.950 . S
H190 C177 0.950 . S
H191 C178 0.951 . S
C192 C193 1.386 . S
C192 C194 1.383 . S
C192 H208 0.951 . S
C193 C192 1.386 . S
C193 C197 1.383 . S
C194 C192 1.383 . S
C194 C195 1.402 . S
C194 H209 0.951 1_556 S
C195 C194 1.402 . S
C195 C196 1.375 . S
C195 C198 1.481 . S
C196 C195 1.375 . S
C196 C197 1.367 . S
C196 H210 0.951 . S
C197 C193 1.383 . S
C197 C196 1.367 . S
C197 H211 0.950 . S
C198 C195 1.481 . S
C198 C199 1.297 1_556 S
C198 H212 0.950 . S
C199 C198 1.297 1_554 S
C199 C200 1.479 . S
C199 H213 0.950 . S
C200 C199 1.479 . S
C200 C201 1.375 . S
C200 C206 1.404 . S
C201 C200 1.375 . S
C201 C202 1.369 . S
C201 H214 0.950 . S
C202 C201 1.369 . S
C202 C203 1.392 . S
C202 H215 0.951 . S
C203 C202 1.392 . S
C203 C205 1.384 . S
H204 C206 0.949 . S
C205 C203 1.384 . S
C205 C206 1.385 . S
C205 H207 0.950 . S
C206 C200 1.404 . S
C206 H204 0.949 . S
C206 C205 1.385 . S
H207 C205 0.950 . S
H208 C192 0.951 . S
H209 C194 0.951 1_554 S
H210 C196 0.951 . S
H211 C197 0.950 . S
H212 C198 0.950 . S
H213 C199 0.950 . S
H214 C201 0.950 . S
H215 C202 0.951 . S
C216 C217 1.386 . S
C216 C218 1.383 . S
C216 H232 0.951 . S
C217 C216 1.386 . S
C217 C221 1.383 . S
C218 C216 1.383 . S
C218 C219 1.402 . S
C218 H233 0.951 . S
C219 C218 1.402 . S
C219 C220 1.375 . S
C219 C222 1.481 . S
C220 C219 1.375 . S
C220 C221 1.367 . S
C220 H234 0.951 . S
C221 C217 1.383 . S
C221 C220 1.367 . S
C221 H235 0.950 . S
C222 C219 1.481 . S
C222 C223 1.297 . S
C222 H236 0.950 . S
C223 C222 1.297 . S
C223 C224 1.479 . S
C223 H237 0.950 . S
C224 C223 1.479 . S
C224 C225 1.375 . S
C224 C230 1.404 . S
C225 C224 1.375 . S
C225 C226 1.369 . S
C225 H238 0.950 . S
C226 C225 1.369 . S
C226 C227 1.392 . S
C226 H239 0.951 . S
C227 C226 1.392 . S
C227 C229 1.384 . S
H228 C230 0.949 . S
C229 C227 1.384 . S
C229 C230 1.385 . S
C229 H231 0.950 . S
C230 C224 1.404 . S
C230 H228 0.949 . S
C230 C229 1.385 . S
H231 C229 0.950 . S
H232 C216 0.951 . S
H233 C218 0.951 . S
H234 C220 0.951 . S
H235 C221 0.950 . S
H236 C222 0.950 . S
H237 C223 0.950 . S
H238 C225 0.950 . S
H239 C226 0.951 . S
C240 C241 1.386 . S
C240 C242 1.383 . S
C240 H256 0.951 . S
C241 C240 1.386 . S
C241 C245 1.383 . S
C242 C240 1.383 . S
C242 C243 1.402 . S
C242 H257 0.951 . S
C243 C242 1.402 . S
C243 C244 1.375 . S
C243 C246 1.481 . S
C244 C243 1.375 . S
C244 C245 1.367 . S
C244 H258 0.951 . S
C245 C241 1.383 . S
C245 C244 1.367 . S
C245 H259 0.950 . S
C246 C243 1.481 . S
C246 C247 1.297 . S
C246 H260 0.950 . S
C247 C246 1.297 . S
C247 C248 1.479 . S
C247 H261 0.950 . S
C248 C247 1.479 . S
C248 C249 1.375 . S
C248 C254 1.404 . S
C249 C248 1.375 . S
C249 C250 1.369 . S
C249 H262 0.950 . S
C250 C249 1.369 . S
C250 C251 1.392 . S
C250 H263 0.951 . S
C251 C250 1.392 . S
C251 C253 1.384 . S
H252 C254 0.949 . S
C253 C251 1.384 . S
C253 C254 1.385 . S
C253 H255 0.950 . S
C254 C248 1.404 . S
C254 H252 0.949 . S
C254 C253 1.385 . S
H255 C253 0.950 . S
H256 C240 0.951 . S
H257 C242 0.951 . S
H258 C244 0.951 . S
H259 C245 0.950 . S
H260 C246 0.950 . S
H261 C247 0.950 . S
H262 C249 0.950 . S
H263 C250 0.951 . S
C264 C265 1.386 1_655 S
C264 C266 1.383 . S
C264 H280 0.951 . S
C265 C264 1.386 1_455 S
C265 C269 1.383 . S
C266 C264 1.383 . S
C266 C267 1.402 1_655 S
C266 H281 0.951 . S
C267 C266 1.402 1_455 S
C267 C268 1.375 . S
C267 C270 1.481 . S
C268 C267 1.375 . S
C268 C269 1.367 . S
C268 H282 0.951 . S
C269 C265 1.383 . S
C269 C268 1.367 . S
C269 H283 0.950 . S
C270 C267 1.481 . S
C270 C271 1.297 1_455 S
C270 H284 0.950 . S
C271 C270 1.297 1_655 S
C271 C272 1.479 . S
C271 H285 0.950 . S
C272 C271 1.479 . S
C272 C273 1.375 . S
C272 C278 1.404 1_655 S
C273 C272 1.375 . S
C273 C274 1.369 . S
C273 H286 0.950 . S
C274 C273 1.369 . S
C274 C275 1.392 1_655 S
C274 H287 0.951 . S
C275 C274 1.392 1_455 S
C275 C277 1.384 . S
H276 C278 0.949 . S
C277 C275 1.384 . S
C277 C278 1.385 . S
C277 H279 0.950 . S
C278 C272 1.404 1_455 S
C278 H276 0.949 . S
C278 C277 1.385 . S
H279 C277 0.950 . S
H280 C264 0.951 . S
H281 C266 0.951 . S
H282 C268 0.951 . S
H283 C269 0.950 . S
H284 C270 0.950 . S
H285 C271 0.950 . S
H286 C273 0.950 . S
H287 C274 0.951 . S
C288 C289 1.386 . S
C288 C290 1.383 . S
C288 H304 0.951 1_545 S
C289 C288 1.386 . S
C289 C293 1.383 . S
C290 C288 1.383 . S
C290 C291 1.402 . S
C290 H305 0.951 1_545 S
C291 C290 1.402 . S
C291 C292 1.375 . S
C291 C294 1.481 . S
C292 C291 1.375 . S
C292 C293 1.367 . S
C292 H306 0.951 . S
C293 C289 1.383 . S
C293 C292 1.367 . S
C293 H307 0.950 . S
C294 C291 1.481 . S
C294 C295 1.297 1_554 S
C294 H308 0.950 . S
C295 C294 1.297 1_556 S
C295 C296 1.479 . S
C295 H309 0.950 . S
C296 C295 1.479 . S
C296 C297 1.375 . S
C296 C302 1.404 . S
C297 C296 1.375 . S
C297 C298 1.373 . S
C297 H310 0.950 1_545 S
C298 C297 1.373 . S
C298 C299 1.400 . S
C298 H311 0.940 1_545 S
C299 C298 1.400 . S
C299 C301 1.384 . S
H300 C302 0.949 . S
C301 C299 1.384 . S
C301 C302 1.385 . S
C301 H303 0.950 . S
C302 C296 1.404 . S
C302 H300 0.949 . S
C302 C301 1.385 . S
H303 C301 0.950 . S
H304 C288 0.951 1_565 S
H305 C290 0.951 1_565 S
H306 C292 0.951 . S
H307 C293 0.950 . S
H308 C294 0.950 . S
H309 C295 0.950 . S
H310 C297 0.950 1_565 S
H311 C298 0.940 1_565 S
C312 C313 1.386 . S
C312 C314 1.383 . S
C312 H328 0.951 . S
C313 C312 1.386 . S
C313 C317 1.383 . S
C314 C312 1.383 . S
C314 C315 1.402 . S
C314 H329 0.951 . S
C315 C314 1.402 . S
C315 C316 1.375 . S
C315 C318 1.481 . S
C316 C315 1.375 . S
C316 C317 1.367 . S
C316 H330 0.951 . S
C317 C313 1.383 . S
C317 C316 1.367 . S
C317 H331 0.950 . S
C318 C315 1.481 . S
C318 C319 1.297 . S
C318 H332 0.950 . S
C319 C318 1.297 . S
C319 C320 1.479 . S
C319 H333 0.950 . S
C320 C319 1.479 . S
C320 C321 1.375 . S
C320 C326 1.404 . S
C321 C320 1.375 . S
C321 C322 1.369 . S
C321 H334 0.950 . S
C322 C321 1.369 . S
C322 C323 1.392 . S
C322 H335 0.951 . S
C323 C322 1.392 . S
C323 C325 1.384 . S
H324 C326 0.949 . S
C325 C323 1.384 . S
C325 C326 1.385 . S
C325 H327 0.950 . S
C326 C320 1.404 . S
C326 H324 0.949 . S
C326 C325 1.385 . S
H327 C325 0.950 . S
H328 C312 0.951 . S
H329 C314 0.951 . S
H330 C316 0.951 . S
H331 C317 0.950 . S
H332 C318 0.950 . S
H333 C319 0.950 . S
H334 C321 0.950 . S
H335 C322 0.951 . S
C121 C9 2.031 . S
C131 C102 1.987 . S
C145 C49 2.131 . S
C155 C3 2.126 . S
C169 C43 2.035 . S
C179 C89 2.058 . S
C193 C83 2.144 . S
C203 C26 2.117 . S
C217 C66 1.940 . S
C227 C22 2.003 . S
C241 C106 2.049 . S
C251 C62 2.119 . S
C265 C15 0.347 . S
C275 C2 0.563 . S
C289 C55 0.476 . S
C299 C42 0.489 . S
C313 C95 0.338 . S
C323 C82 0.521 . S
