# Generated by pormake.
# Topology wio, (6)-cn, num edge types: 1
# Building blocks:
#     Node 0, Type 0, BuildingBlock: GEDQOX_clean_sbu_0, # of connection points: 6
#     Node 1, Type 0, BuildingBlock: GEDQOX_clean_sbu_0, # of connection points: 6
#     Node 2, Type 0, BuildingBlock: GEDQOX_clean_sbu_0, # of connection points: 6
#     Node 3, Type 0, BuildingBlock: GEDQOX_clean_sbu_0, # of connection points: 6
#     Node 4, Type 0, BuildingBlock: GEDQOX_clean_sbu_0, # of connection points: 6
#     Node 5, Type 0, BuildingBlock: GEDQOX_clean_sbu_0, # of connection points: 6
#     Node 6, Type 0, BuildingBlock: GEDQOX_clean_sbu_0, # of connection points: 6
#     Node 7, Type 0, BuildingBlock: GEDQOX_clean_sbu_0, # of connection points: 6
#     Node 8, Type 0, BuildingBlock: GEDQOX_clean_sbu_0, # of connection points: 6
#     Node 9, Type 0, BuildingBlock: GEDQOX_clean_sbu_0, # of connection points: 6
#     Node 10, Type 0, BuildingBlock: GEDQOX_clean_sbu_0, # of connection points: 6
#     Node 11, Type 0, BuildingBlock: GEDQOX_clean_sbu_0, # of connection points: 6
#     Node 12, Type 0, BuildingBlock: GEDQOX_clean_sbu_0, # of connection points: 6
#     Node 13, Type 0, BuildingBlock: GEDQOX_clean_sbu_0, # of connection points: 6
#     Node 14, Type 0, BuildingBlock: GEDQOX_clean_sbu_0, # of connection points: 6
#     Node 15, Type 0, BuildingBlock: GEDQOX_clean_sbu_0, # of connection points: 6
#     Node 16, Type 0, BuildingBlock: GEDQOX_clean_sbu_0, # of connection points: 6
#     Node 17, Type 0, BuildingBlock: GEDQOX_clean_sbu_0, # of connection points: 6
#     Node 18, Type 0, BuildingBlock: GEDQOX_clean_sbu_0, # of connection points: 6
#     Node 19, Type 0, BuildingBlock: GEDQOX_clean_sbu_0, # of connection points: 6
#     Node 20, Type 0, BuildingBlock: GEDQOX_clean_sbu_0, # of connection points: 6
#     Node 21, Type 0, BuildingBlock: GEDQOX_clean_sbu_0, # of connection points: 6
#     Node 22, Type 0, BuildingBlock: GEDQOX_clean_sbu_0, # of connection points: 6
#     Node 23, Type 0, BuildingBlock: GEDQOX_clean_sbu_0, # of connection points: 6
#     Node 24, Type 0, BuildingBlock: GEDQOX_clean_sbu_0, # of connection points: 6
#     Node 25, Type 0, BuildingBlock: GEDQOX_clean_sbu_0, # of connection points: 6
#     Node 26, Type 0, BuildingBlock: GEDQOX_clean_sbu_0, # of connection points: 6
#     Node 27, Type 0, BuildingBlock: GEDQOX_clean_sbu_0, # of connection points: 6
#     Node 28, Type 0, BuildingBlock: GEDQOX_clean_sbu_0, # of connection points: 6
#     Node 29, Type 0, BuildingBlock: GEDQOX_clean_sbu_0, # of connection points: 6
#     Node 30, Type 0, BuildingBlock: GEDQOX_clean_sbu_0, # of connection points: 6
#     Node 31, Type 0, BuildingBlock: GEDQOX_clean_sbu_0, # of connection points: 6
#     Edge 32, Type (0, 0), BuildingBlock: CIFDUS_clean_linker_0, # of connection points: 2
#     Edge 33, Type (0, 0), BuildingBlock: CIFDUS_clean_linker_0, # of connection points: 2
#     Edge 34, Type (0, 0), BuildingBlock: CIFDUS_clean_linker_0, # of connection points: 2
#     Edge 35, Type (0, 0), BuildingBlock: CIFDUS_clean_linker_0, # of connection points: 2
#     Edge 36, Type (0, 0), BuildingBlock: CIFDUS_clean_linker_0, # of connection points: 2
#     Edge 37, Type (0, 0), BuildingBlock: CIFDUS_clean_linker_0, # of connection points: 2
#     Edge 38, Type (0, 0), BuildingBlock: CIFDUS_clean_linker_0, # of connection points: 2
#     Edge 39, Type (0, 0), BuildingBlock: CIFDUS_clean_linker_0, # of connection points: 2
#     Edge 40, Type (0, 0), BuildingBlock: CIFDUS_clean_linker_0, # of connection points: 2
#     Edge 41, Type (0, 0), BuildingBlock: CIFDUS_clean_linker_0, # of connection points: 2
#     Edge 42, Type (0, 0), BuildingBlock: CIFDUS_clean_linker_0, # of connection points: 2
#     Edge 43, Type (0, 0), BuildingBlock: CIFDUS_clean_linker_0, # of connection points: 2
#     Edge 44, Type (0, 0), BuildingBlock: CIFDUS_clean_linker_0, # of connection points: 2
#     Edge 45, Type (0, 0), BuildingBlock: CIFDUS_clean_linker_0, # of connection points: 2
#     Edge 46, Type (0, 0), BuildingBlock: CIFDUS_clean_linker_0, # of connection points: 2
#     Edge 47, Type (0, 0), BuildingBlock: CIFDUS_clean_linker_0, # of connection points: 2
#     Edge 48, Type (0, 0), BuildingBlock: CIFDUS_clean_linker_0, # of connection points: 2
#     Edge 49, Type (0, 0), BuildingBlock: CIFDUS_clean_linker_0, # of connection points: 2
#     Edge 50, Type (0, 0), BuildingBlock: CIFDUS_clean_linker_0, # of connection points: 2
#     Edge 51, Type (0, 0), BuildingBlock: CIFDUS_clean_linker_0, # of connection points: 2
#     Edge 52, Type (0, 0), BuildingBlock: CIFDUS_clean_linker_0, # of connection points: 2
#     Edge 53, Type (0, 0), BuildingBlock: CIFDUS_clean_linker_0, # of connection points: 2
#     Edge 54, Type (0, 0), BuildingBlock: CIFDUS_clean_linker_0, # of connection points: 2
#     Edge 55, Type (0, 0), BuildingBlock: CIFDUS_clean_linker_0, # of connection points: 2
#     Edge 56, Type (0, 0), BuildingBlock: CIFDUS_clean_linker_0, # of connection points: 2
#     Edge 57, Type (0, 0), BuildingBlock: CIFDUS_clean_linker_0, # of connection points: 2
#     Edge 58, Type (0, 0), BuildingBlock: CIFDUS_clean_linker_0, # of connection points: 2
#     Edge 59, Type (0, 0), BuildingBlock: CIFDUS_clean_linker_0, # of connection points: 2
#     Edge 60, Type (0, 0), BuildingBlock: CIFDUS_clean_linker_0, # of connection points: 2
#     Edge 61, Type (0, 0), BuildingBlock: CIFDUS_clean_linker_0, # of connection points: 2
#     Edge 62, Type (0, 0), BuildingBlock: CIFDUS_clean_linker_0, # of connection points: 2
#     Edge 63, Type (0, 0), BuildingBlock: CIFDUS_clean_linker_0, # of connection points: 2
#     Edge 64, Type (0, 0), BuildingBlock: CIFDUS_clean_linker_0, # of connection points: 2
#     Edge 65, Type (0, 0), BuildingBlock: CIFDUS_clean_linker_0, # of connection points: 2
#     Edge 66, Type (0, 0), BuildingBlock: CIFDUS_clean_linker_0, # of connection points: 2
#     Edge 67, Type (0, 0), BuildingBlock: CIFDUS_clean_linker_0, # of connection points: 2
#     Edge 68, Type (0, 0), BuildingBlock: CIFDUS_clean_linker_0, # of connection points: 2
#     Edge 69, Type (0, 0), BuildingBlock: CIFDUS_clean_linker_0, # of connection points: 2
#     Edge 70, Type (0, 0), BuildingBlock: CIFDUS_clean_linker_0, # of connection points: 2
#     Edge 71, Type (0, 0), BuildingBlock: CIFDUS_clean_linker_0, # of connection points: 2
#     Edge 72, Type (0, 0), BuildingBlock: CIFDUS_clean_linker_0, # of connection points: 2
#     Edge 73, Type (0, 0), BuildingBlock: CIFDUS_clean_linker_0, # of connection points: 2
#     Edge 74, Type (0, 0), BuildingBlock: CIFDUS_clean_linker_0, # of connection points: 2
#     Edge 75, Type (0, 0), BuildingBlock: CIFDUS_clean_linker_0, # of connection points: 2
#     Edge 76, Type (0, 0), BuildingBlock: CIFDUS_clean_linker_0, # of connection points: 2
#     Edge 77, Type (0, 0), BuildingBlock: CIFDUS_clean_linker_0, # of connection points: 2
#     Edge 78, Type (0, 0), BuildingBlock: CIFDUS_clean_linker_0, # of connection points: 2
#     Edge 79, Type (0, 0), BuildingBlock: CIFDUS_clean_linker_0, # of connection points: 2
#     Edge 80, Type (0, 0), BuildingBlock: CIFDUS_clean_linker_0, # of connection points: 2
#     Edge 81, Type (0, 0), BuildingBlock: CIFDUS_clean_linker_0, # of connection points: 2
#     Edge 82, Type (0, 0), BuildingBlock: CIFDUS_clean_linker_0, # of connection points: 2
#     Edge 83, Type (0, 0), BuildingBlock: CIFDUS_clean_linker_0, # of connection points: 2
#     Edge 84, Type (0, 0), BuildingBlock: CIFDUS_clean_linker_0, # of connection points: 2
#     Edge 85, Type (0, 0), BuildingBlock: CIFDUS_clean_linker_0, # of connection points: 2
#     Edge 86, Type (0, 0), BuildingBlock: CIFDUS_clean_linker_0, # of connection points: 2
#     Edge 87, Type (0, 0), BuildingBlock: CIFDUS_clean_linker_0, # of connection points: 2
#     Edge 88, Type (0, 0), BuildingBlock: CIFDUS_clean_linker_0, # of connection points: 2
#     Edge 89, Type (0, 0), BuildingBlock: CIFDUS_clean_linker_0, # of connection points: 2
#     Edge 90, Type (0, 0), BuildingBlock: CIFDUS_clean_linker_0, # of connection points: 2
#     Edge 91, Type (0, 0), BuildingBlock: CIFDUS_clean_linker_0, # of connection points: 2
#     Edge 92, Type (0, 0), BuildingBlock: CIFDUS_clean_linker_0, # of connection points: 2
#     Edge 93, Type (0, 0), BuildingBlock: CIFDUS_clean_linker_0, # of connection points: 2
#     Edge 94, Type (0, 0), BuildingBlock: CIFDUS_clean_linker_0, # of connection points: 2
#     Edge 95, Type (0, 0), BuildingBlock: CIFDUS_clean_linker_0, # of connection points: 2
#     Edge 96, Type (0, 0), BuildingBlock: CIFDUS_clean_linker_0, # of connection points: 2
#     Edge 97, Type (0, 0), BuildingBlock: CIFDUS_clean_linker_0, # of connection points: 2
#     Edge 98, Type (0, 0), BuildingBlock: CIFDUS_clean_linker_0, # of connection points: 2
#     Edge 99, Type (0, 0), BuildingBlock: CIFDUS_clean_linker_0, # of connection points: 2
#     Edge 100, Type (0, 0), BuildingBlock: CIFDUS_clean_linker_0, # of connection points: 2
#     Edge 101, Type (0, 0), BuildingBlock: CIFDUS_clean_linker_0, # of connection points: 2
#     Edge 102, Type (0, 0), BuildingBlock: CIFDUS_clean_linker_0, # of connection points: 2
#     Edge 103, Type (0, 0), BuildingBlock: CIFDUS_clean_linker_0, # of connection points: 2
#     Edge 104, Type (0, 0), BuildingBlock: CIFDUS_clean_linker_0, # of connection points: 2
#     Edge 105, Type (0, 0), BuildingBlock: CIFDUS_clean_linker_0, # of connection points: 2
#     Edge 106, Type (0, 0), BuildingBlock: CIFDUS_clean_linker_0, # of connection points: 2
#     Edge 107, Type (0, 0), BuildingBlock: CIFDUS_clean_linker_0, # of connection points: 2
#     Edge 108, Type (0, 0), BuildingBlock: CIFDUS_clean_linker_0, # of connection points: 2
#     Edge 109, Type (0, 0), BuildingBlock: CIFDUS_clean_linker_0, # of connection points: 2
#     Edge 110, Type (0, 0), BuildingBlock: CIFDUS_clean_linker_0, # of connection points: 2
#     Edge 111, Type (0, 0), BuildingBlock: CIFDUS_clean_linker_0, # of connection points: 2
#     Edge 112, Type (0, 0), BuildingBlock: CIFDUS_clean_linker_0, # of connection points: 2
#     Edge 113, Type (0, 0), BuildingBlock: CIFDUS_clean_linker_0, # of connection points: 2
#     Edge 114, Type (0, 0), BuildingBlock: CIFDUS_clean_linker_0, # of connection points: 2
#     Edge 115, Type (0, 0), BuildingBlock: CIFDUS_clean_linker_0, # of connection points: 2
#     Edge 116, Type (0, 0), BuildingBlock: CIFDUS_clean_linker_0, # of connection points: 2
#     Edge 117, Type (0, 0), BuildingBlock: CIFDUS_clean_linker_0, # of connection points: 2
#     Edge 118, Type (0, 0), BuildingBlock: CIFDUS_clean_linker_0, # of connection points: 2
#     Edge 119, Type (0, 0), BuildingBlock: CIFDUS_clean_linker_0, # of connection points: 2
#     Edge 120, Type (0, 0), BuildingBlock: CIFDUS_clean_linker_0, # of connection points: 2
#     Edge 121, Type (0, 0), BuildingBlock: CIFDUS_clean_linker_0, # of connection points: 2
#     Edge 122, Type (0, 0), BuildingBlock: CIFDUS_clean_linker_0, # of connection points: 2
#     Edge 123, Type (0, 0), BuildingBlock: CIFDUS_clean_linker_0, # of connection points: 2
#     Edge 124, Type (0, 0), BuildingBlock: CIFDUS_clean_linker_0, # of connection points: 2
#     Edge 125, Type (0, 0), BuildingBlock: CIFDUS_clean_linker_0, # of connection points: 2
#     Edge 126, Type (0, 0), BuildingBlock: CIFDUS_clean_linker_0, # of connection points: 2
#     Edge 127, Type (0, 0), BuildingBlock: CIFDUS_clean_linker_0, # of connection points: 2
# Relax obj value: 0.161
# Max RMSD: 0.216
# Mean RMSD: 0.216
data_MOF--net-wio--node1-GEDQOX_clean_sbu_0--edge1-CIFDUS_clean_linker_0
_symmetry_space_group_name_H-M    P1
_symmetry_Int_Tables_number       1
_symmetry_cell_setting            triclinic
loop_
_symmetry_equiv_pos_as_xyz
'x, y, z'
_cell_length_a     44.640216
_cell_length_b     44.756978
_cell_length_c     59.82127
_cell_angle_alpha  90.025467
_cell_angle_beta   89.949135
_cell_angle_gamma 89.97286
loop_
_atom_site_label
_atom_site_type_symbol
_atom_site_fract_x
_atom_site_fract_y
_atom_site_fract_z
_atom_type_partial_charge
Nd0 Nd 0.09054 0.13104 0.31479 0.0
Nd1 Nd 0.12809 0.0979 0.34954 0.0
C2 C 0.06537 0.15331 0.27814 0.0
C3 C 0.06976 0.15458 0.25366 0.0
C4 C 0.08986 0.13556 0.24246 0.0
C5 C 0.09511 0.13903 0.21942 0.0
C6 C 0.08061 0.16181 0.2073 0.0
C7 C 0.06008 0.18032 0.21861 0.0
C8 C 0.05474 0.17672 0.24149 0.0
C9 C 0.11392 0.16716 0.34775 0.0
C10 C 0.16035 0.11463 0.30321 0.0
C11 C 0.15461 0.07916 0.38698 0.0
C12 C 0.15043 0.05855 0.40642 0.0
C13 C 0.14436 0.07001 0.4279 0.0
C14 C 0.14197 0.05094 0.44651 0.0
C15 C 0.14563 0.01984 0.44417 0.0
C16 C 0.152 0.00851 0.42268 0.0
C17 C 0.15438 0.02752 0.40413 0.0
C18 C 0.10521 0.06097 0.31712 0.0
C19 C 0.05591 0.11347 0.36015 0.0
O20 O 0.05744 0.12779 0.28702 0.0
O21 O 0.08505 0.16764 0.2902 0.0
O22 O 0.08758 0.17042 0.33898 0.0
O23 O 0.12808 0.14601 0.3384 0.0
O24 O 0.13271 0.11666 0.2956 0.0
O25 O 0.16553 0.11234 0.32497 0.0
O26 O 0.13777 0.10303 0.38593 0.0
O27 O 0.15939 0.06741 0.36727 0.0
O28 O 0.12991 0.05581 0.32776 0.0
O29 O 0.09143 0.08294 0.32561 0.0
O30 O 0.08256 0.10482 0.36744 0.0
O31 O 0.05182 0.12209 0.33923 0.0
H32 H 0.10191 0.11848 0.25155 0.0
H33 H 0.11119 0.12453 0.21127 0.0
H34 H 0.04821 0.19779 0.20976 0.0
H35 H 0.0392 0.19167 0.24979 0.0
H36 H 0.1416 0.09384 0.43034 0.0
H37 H 0.13683 0.06056 0.46268 0.0
H38 H 0.15559 0.98482 0.42016 0.0
H39 H 0.15959 0.01781 0.388 0.0
Nd40 Nd 0.13506 0.84664 0.56634 0.0
Nd41 Nd 0.16616 0.88794 0.60348 0.0
C42 C 0.1178 0.81951 0.52921 0.0
C43 C 0.11582 0.82516 0.50501 0.0
C44 C 0.13082 0.84919 0.49487 0.0
C45 C 0.12613 0.85563 0.47217 0.0
C46 C 0.10631 0.83816 0.45932 0.0
C47 C 0.0922 0.81356 0.46953 0.0
C48 C 0.09684 0.80724 0.49212 0.0
C49 C 0.0982 0.86731 0.59996 0.0
C50 C 0.14825 0.91814 0.55534 0.0
C51 C 0.17768 0.91733 0.64115 0.0
C52 C 0.19901 0.9159 0.6604 0.0
C53 C 0.22767 0.92879 0.65899 0.0
C54 C 0.24766 0.92717 0.67702 0.0
C55 C 0.23967 0.91266 0.69709 0.0
C56 C 0.21066 0.90059 0.69878 0.0
C57 C 0.19061 0.9022 0.68069 0.0
C58 C 0.2094 0.86333 0.57532 0.0
C59 C 0.1532 0.81495 0.61248 0.0
O60 O 0.14456 0.81615 0.53788 0.0
O61 O 0.09985 0.83543 0.54176 0.0
O62 O 0.09513 0.84153 0.59028 0.0
O63 O 0.11881 0.88241 0.59073 0.0
O64 O 0.14307 0.89078 0.54797 0.0
O65 O 0.15432 0.92381 0.57673 0.0
O66 O 0.15781 0.89592 0.63959 0.0
O67 O 0.18811 0.9255 0.62156 0.0
O68 O 0.21558 0.88005 0.59243 0.0
O69 O 0.18157 0.85905 0.57527 0.0
O70 O 0.15733 0.84225 0.62061 0.0
O71 O 0.14921 0.80993 0.59089 0.0
H72 H 0.14562 0.86329 0.50458 0.0
H73 H 0.13731 0.87477 0.46488 0.0
H74 H 0.07733 0.79922 0.46008 0.0
H75 H 0.0851 0.78858 0.49965 0.0
H76 H 0.23482 0.94004 0.64388 0.0
H77 H 0.26956 0.93727 0.67518 0.0
H78 H 0.20371 0.88914 0.71386 0.0
H79 H 0.16856 0.89241 0.68253 0.0
Nd80 Nd 0.41615 0.87781 0.81345 0.0
Nd81 Nd 0.38486 0.91281 0.8499 0.0
C82 C 0.436 0.85335 0.77592 0.0
C83 C 0.42742 0.85144 0.75207 0.0
C84 C 0.42838 0.87636 0.73777 0.0
C85 C 0.4196 0.87373 0.71538 0.0
C86 C 0.40988 0.84609 0.70682 0.0
C87 C 0.40937 0.82117 0.72112 0.0
C88 C 0.41807 0.82382 0.74342 0.0
C89 C 0.39463 0.84292 0.84789 0.0
C90 C 0.34784 0.89979 0.80458 0.0
C91 C 0.36174 0.93203 0.88848 0.0
C92 C 0.36648 0.95293 0.90762 0.0
C93 C 0.37415 0.9419 0.92891 0.0
C94 C 0.3765 0.96119 0.9474 0.0
C95 C 0.37114 0.99204 0.94511 0.0
C96 C 0.36324 1.00292 0.92378 0.0
C97 C 0.36096 0.98372 0.90536 0.0
C98 C 0.40751 0.94903 0.81678 0.0
C99 C 0.45701 0.89293 0.85557 0.0
O100 O 0.44598 0.87887 0.78362 0.0
O101 O 0.41824 0.83973 0.78997 0.0
O102 O 0.42007 0.83902 0.8379 0.0
O103 O 0.38034 0.8646 0.83928 0.0
O104 O 0.37457 0.89543 0.79605 0.0
O105 O 0.34433 0.90215 0.82656 0.0
O106 O 0.37905 0.90855 0.88685 0.0
O107 O 0.35517 0.94341 0.86897 0.0
O108 O 0.38438 0.9558 0.82882 0.0
O109 O 0.4201 0.92575 0.82426 0.0
O110 O 0.43213 0.90286 0.86525 0.0
O111 O 0.45769 0.88491 0.83441 0.0
H112 H 0.43589 0.89786 0.74382 0.0
H113 H 0.42016 0.89338 0.70483 0.0
H114 H 0.40263 0.79942 0.71498 0.0
H115 H 0.4175 0.80415 0.75397 0.0
H116 H 0.37808 0.91824 0.93133 0.0
H117 H 0.38282 0.95194 0.96344 0.0
H118 H 0.3583 0.02638 0.92132 0.0
H119 H 0.35443 0.99305 0.88939 0.0
Nd120 Nd 0.37906 0.16508 0.06682 0.0
Nd121 Nd 0.34665 0.12664 0.10154 0.0
C122 C 0.39852 0.19103 0.02972 0.0
C123 C 0.39806 0.18605 1.0052 0.0
C124 C 0.37157 0.18897 0.9927 0.0
C125 C 0.37171 0.18442 0.96956 0.0
C126 C 0.3985 0.17758 0.95818 0.0
C127 C 0.42504 0.17494 0.97075 0.0
C128 C 0.42477 0.17903 0.99394 0.0
C129 C 0.41587 0.14393 0.10017 0.0
C130 C 0.3658 0.09451 0.05561 0.0
C131 C 0.32826 0.1001 0.13906 0.0
C132 C 0.30856 0.10561 0.15863 0.0
C133 C 0.28928 0.13036 0.15943 0.0
C134 C 0.26965 0.13429 0.17756 0.0
C135 C 0.26883 0.11357 0.19535 0.0
C136 C 0.28886 0.08926 0.19471 0.0
C137 C 0.30843 0.08533 0.17654 0.0
C138 C 0.3094 0.14886 0.06895 0.0
C139 C 0.3592 0.19949 0.11131 0.0
O140 O 0.37332 0.19825 0.03958 0.0
O141 O 0.41469 0.17252 0.04157 0.0
O142 O 0.41827 0.17004 0.09095 0.0
O143 O 0.39527 0.12873 0.09096 0.0
O144 O 0.36779 0.12203 0.04799 0.0
O145 O 0.36211 0.08926 0.07726 0.0
O146 O 0.35276 0.11595 0.13763 0.0
O147 O 0.31515 0.09678 0.11969 0.0
O148 O 0.30501 0.1236 0.07896 0.0
O149 O 0.33106 0.16271 0.07773 0.0
O150 O 0.35144 0.17275 0.1189 0.0
O151 O 0.3682 0.20351 0.09053 0.0
H152 H 0.35071 0.19501 1.00073 0.0
H153 H 0.35072 0.18631 0.96061 0.0
H154 H 0.44625 0.1704 0.96266 0.0
H155 H 0.44564 0.1771 1.00307 0.0
H156 H 0.28912 0.14644 0.14589 0.0
H157 H 0.25494 0.15353 0.17757 0.0
H158 H 0.28875 0.07268 0.20788 0.0
H159 H 0.32313 0.06607 0.17628 0.0
Nd160 Nd 0.09832 0.87631 0.21896 0.0
Nd161 Nd 0.13209 0.91616 0.181 0.0
C162 C 0.07282 0.86297 0.25742 0.0
C163 C 0.08132 0.86588 0.28126 0.0
C164 C 0.06112 0.87827 0.29666 0.0
C165 C 0.06827 0.87951 0.31944 0.0
C166 C 0.09577 0.8682 0.32736 0.0
C167 C 0.11634 0.85669 0.31172 0.0
C168 C 0.10925 0.85563 0.28897 0.0
C169 C 0.11888 0.83971 0.18512 0.0
C170 C 0.17058 0.89055 0.22492 0.0
C171 C 0.16242 0.93823 0.14645 0.0
C172 C 0.15768 0.95725 0.12619 0.0
C173 C 0.15777 0.9445 0.10464 0.0
C174 C 0.15413 0.96236 0.08546 0.0
C175 C 0.15036 0.99351 0.0873 0.0
C176 C 0.15079 0.00622 0.10888 0.0
C177 C 0.15438 0.98842 0.12798 0.0
C178 C 0.10552 0.946 0.21632 0.0
C179 C 0.0601 0.90018 0.17506 0.0
O180 O 0.06674 0.88773 0.24653 0.0
O181 O 0.08829 0.84373 0.24556 0.0
O182 O 0.10469 0.83007 0.20267 0.0
O183 O 0.12141 0.86781 0.18625 0.0
O184 O 0.14523 0.88082 0.23376 0.0
O185 O 0.17192 0.90263 0.20451 0.0
O186 O 0.15051 0.91146 0.14653 0.0
O187 O 0.16109 0.95118 0.1661 0.0
O188 O 0.10685 0.9573 0.19625 0.0
O189 O 0.11901 0.92145 0.21657 0.0
O190 O 0.08522 0.90995 0.1657 0.0
O191 O 0.05905 0.88919 0.19568 0.0
H192 H 0.03959 0.88661 0.2911 0.0
H193 H 0.05211 0.88911 0.33088 0.0
H194 H 0.13758 0.84749 0.3171 0.0
H195 H 0.12544 0.84614 0.2775 0.0
H196 H 0.16064 0.92062 0.1026 0.0
H197 H 0.15376 0.95165 0.06923 0.0
H198 H 0.14862 0.03013 0.11109 0.0
H199 H 0.15467 0.99923 0.14418 0.0
Nd200 Nd 0.36833 0.84082 0.46818 0.0
Nd201 Nd 0.34297 0.88455 0.43008 0.0
C202 C 0.36996 0.80962 0.50562 0.0
C203 C 0.37704 0.81643 0.52929 0.0
C204 C 0.35366 0.82083 0.54469 0.0
C205 C 0.35979 0.82848 0.56686 0.0
C206 C 0.38952 0.83146 0.5743 0.0
C207 C 0.41294 0.82668 0.55893 0.0
C208 C 0.40678 0.81929 0.53668 0.0
C209 C 0.41582 0.86684 0.44532 0.0
C210 C 0.36393 0.9136 0.47751 0.0
C211 C 0.32912 0.91238 0.39207 0.0
C212 C 0.31419 0.90541 0.37054 0.0
C213 C 0.30561 0.8761 0.36519 0.0
C214 C 0.28906 0.87023 0.34573 0.0
C215 C 0.28048 0.89355 0.33119 0.0
C216 C 0.29004 0.92276 0.33629 0.0
C217 C 0.30664 0.92859 0.35576 0.0
C218 C 0.30223 0.86509 0.4614 0.0
C219 C 0.35438 0.81147 0.41962 0.0
O220 O 0.34558 0.82191 0.49776 0.0
O221 O 0.39203 0.80976 0.49115 0.0
O222 O 0.41899 0.84841 0.46192 0.0
O223 O 0.3882 0.87109 0.442 0.0
O224 O 0.36355 0.88612 0.48565 0.0
O225 O 0.36097 0.91913 0.45573 0.0
O226 O 0.35526 0.90011 0.39587 0.0
O227 O 0.31195 0.91219 0.40976 0.0
O228 O 0.30115 0.89123 0.45213 0.0
O229 O 0.32309 0.84956 0.45289 0.0
O230 O 0.34637 0.83842 0.41248 0.0
O231 O 0.36226 0.80612 0.44055 0.0
H232 H 0.33051 0.8186 0.53954 0.0
H233 H 0.34116 0.83235 0.5781 0.0
H234 H 0.43611 0.82825 0.56415 0.0
H235 H 0.42536 0.81587 0.5253 0.0
H236 H 0.31109 0.85783 0.37632 0.0
H237 H 0.28257 0.84738 0.34228 0.0
H238 H 0.28366 0.94135 0.32574 0.0
H239 H 0.31288 0.95141 0.3596 0.0
Nd240 Nd 0.41878 0.13049 0.71775 0.0
Nd241 Nd 0.38558 0.09758 0.68059 0.0
C242 C 0.44092 0.1518 0.7557 0.0
C243 C 0.43614 0.15057 0.78021 0.0
C244 C 0.44003 0.12405 0.79244 0.0
C245 C 0.43568 0.12369 0.81563 0.0
C246 C 0.42806 0.15002 0.82725 0.0
C247 C 0.4246 0.1766 0.81492 0.0
C248 C 0.42846 0.1768 0.79172 0.0
C249 C 0.39757 0.1672 0.68419 0.0
C250 C 0.34921 0.11146 0.72589 0.0
C251 C 0.36112 0.08028 0.64202 0.0
C252 C 0.3661 0.06067 0.62238 0.0
C253 C 0.34675 0.06269 0.60395 0.0
C254 C 0.34975 0.04318 0.5857 0.0
C255 C 0.37219 0.02106 0.58548 0.0
C256 C 0.39211 0.01973 0.60379 0.0
C257 C 0.38909 0.03929 0.62203 0.0
C258 C 0.40698 0.05999 0.71341 0.0
C259 C 0.45863 0.11351 0.67464 0.0
O260 O 0.45152 0.12804 0.74564 0.0
O261 O 0.42041 0.16551 0.74396 0.0
O262 O 0.42297 0.17073 0.69433 0.0
O263 O 0.38325 0.14537 0.69243 0.0
O264 O 0.37609 0.11337 0.7348 0.0
O265 O 0.34591 0.11097 0.70385 0.0
O266 O 0.37825 0.1038 0.64404 0.0
O267 O 0.35602 0.06722 0.66119 0.0
O268 O 0.38329 0.05444 0.70163 0.0
O269 O 0.42027 0.08287 0.70598 0.0
O270 O 0.43304 0.1053 0.66515 0.0
O271 O 0.4598 0.12157 0.69586 0.0
H272 H 0.44668 0.10361 0.78419 0.0
H273 H 0.43829 0.1027 0.82439 0.0
H274 H 0.41951 0.19751 0.8232 0.0
H275 H 0.42583 0.19769 0.78277 0.0
H276 H 0.32883 0.07903 0.60386 0.0
H277 H 0.33379 0.04477 0.57213 0.0
H278 H 0.40996 1.00334 0.60413 0.0
H279 H 0.4044 0.03741 0.636 0.0
Nd280 Nd 0.12955 0.16437 0.96582 0.0
Nd281 Nd 0.16573 0.12982 0.93077 0.0
C282 C 0.1074 0.18769 1.00325 0.0
C283 C 0.10708 0.18141 0.02754 0.0
C284 C 0.12101 0.15593 0.03645 0.0
C285 C 0.11942 0.1498 0.05942 0.0
C286 C 0.10368 0.16896 0.074 0.0
C287 C 0.08981 0.19451 0.06488 0.0
C288 C 0.09156 0.20065 0.04196 0.0
C289 C 0.09505 0.1434 0.93101 0.0
C290 C 0.14854 0.09407 0.97593 0.0
C291 C 0.1934 0.10604 0.89551 0.0
C292 C 0.20398 0.10563 0.87189 0.0
C293 C 0.21227 0.07812 0.86244 0.0
C294 C 0.22876 0.07696 0.84249 0.0
C295 C 0.23713 0.10329 0.83127 0.0
C296 C 0.22711 0.13083 0.8399 0.0
C297 C 0.21089 0.13201 0.86014 0.0
C298 C 0.1989 0.15031 0.9663 0.0
C299 C 0.14408 0.19983 0.9209 0.0
O300 O 0.13286 0.19611 0.9944 0.0
O301 O 0.09284 0.16887 0.99058 0.0
O302 O 0.09057 0.16844 0.94144 0.0
O303 O 0.11637 0.1288 0.93993 0.0
O304 O 0.14128 0.12065 0.98372 0.0
O305 O 0.15606 0.09014 0.95466 0.0
O306 O 0.16573 0.09917 0.90084 0.0
O307 O 0.20538 0.12567 0.90896 0.0
O308 O 0.20368 0.12508 0.95637 0.0
O309 O 0.17822 0.16476 0.95673 0.0
O310 O 0.15063 0.17314 0.91264 0.0
O311 O 0.1392 0.20384 0.94247 0.0
H312 H 0.13296 0.14064 0.02567 0.0
H313 H 0.13068 0.1301 0.06573 0.0
H314 H 0.07698 0.20952 0.07538 0.0
H315 H 0.08039 0.22028 0.03542 0.0
H316 H 0.2076 0.05748 0.87123 0.0
H317 H 0.23621 0.05543 0.83634 0.0
H318 H 0.2335 0.15151 0.8318 0.0
H319 H 0.20512 0.15358 0.86715 0.0
Nd320 Nd 0.87848 0.91468 0.68236 0.0
Nd321 Nd 0.9179 0.88785 0.71812 0.0
C322 C 0.85101 0.92835 0.64407 0.0
C323 C 0.85493 0.94482 0.62254 0.0
C324 C 0.84696 0.93091 0.60234 0.0
C325 C 0.84787 0.94662 0.58202 0.0
C326 C 0.85675 0.97683 0.58125 0.0
C327 C 0.86541 0.99054 0.6015 0.0
C328 C 0.86449 0.97478 0.62185 0.0
C329 C 0.89824 0.95624 0.7126 0.0
C330 C 0.95199 0.90374 0.67263 0.0
C331 C 0.94363 0.87062 0.75609 0.0
C332 C 0.9375 0.86993 0.78044 0.0
C333 C 0.91779 0.89026 0.79066 0.0
C334 C 0.91224 0.88884 0.81376 0.0
C335 C 0.92603 0.86679 0.82707 0.0
C336 C 0.94564 0.84643 0.81665 0.0
C337 C 0.9513 0.84803 0.79364 0.0
C338 C 0.89668 0.8475 0.68701 0.0
C339 C 0.84716 0.89991 0.72938 0.0
O340 O 0.86625 0.9037 0.64704 0.0
O341 O 0.84851 0.94399 0.66243 0.0
O342 O 0.87272 0.95772 0.70241 0.0
O343 O 0.91409 0.93495 0.70514 0.0
O344 O 0.92476 0.90928 0.66478 0.0
O345 O 0.9564 0.89774 0.69398 0.0
O346 O 0.94834 0.89667 0.7468 0.0
O347 O 0.92732 0.85303 0.74364 0.0
O348 O 0.92397 0.84792 0.69443 0.0
O349 O 0.88115 0.86784 0.69611 0.0
O350 O 0.87493 0.90069 0.73676 0.0
O351 O 0.84165 0.90024 0.7076 0.0
H352 H 0.83945 0.90789 0.60232 0.0
H353 H 0.8415 0.93501 0.56687 0.0
H354 H 0.87205 0.01379 0.60179 0.0
H355 H 0.87071 0.98627 0.63709 0.0
H356 H 0.90654 0.90712 0.78081 0.0
H357 H 0.89682 0.90473 0.82113 0.0
H358 H 0.957 0.82943 0.82634 0.0
H359 H 0.96655 0.83206 0.78613 0.0
Nd360 Nd 0.84468 0.12575 0.43407 0.0
Nd361 Nd 0.87249 0.16621 0.46856 0.0
C362 C 0.82734 0.09783 0.39678 0.0
C363 C 0.8108 0.10417 0.37581 0.0
C364 C 0.79631 0.13164 0.37245 0.0
C365 C 0.77845 0.13627 0.35345 0.0
C366 C 0.77459 0.11353 0.33734 0.0
C367 C 0.79007 0.08642 0.34044 0.0
C368 C 0.80789 0.08181 0.35948 0.0
C369 C 0.80495 0.1435 0.46653 0.0
C370 C 0.85564 0.19864 0.42297 0.0
C371 C 0.88846 0.19237 0.50652 0.0
C372 C 0.89193 0.1834 0.53029 0.0
C373 C 0.87673 0.19919 0.54715 0.0
C374 C 0.881 0.19198 0.56975 0.0
C375 C 0.90077 0.16894 0.57598 0.0
C376 C 0.91529 0.15261 0.55902 0.0
C377 C 0.91088 0.15968 0.53647 0.0
C378 C 0.91172 0.14649 0.43615 0.0
C379 C 0.86564 0.09448 0.47998 0.0
O380 O 0.8537 0.11005 0.39926 0.0
O381 O 0.81168 0.09854 0.4152 0.0
O382 O 0.80474 0.11765 0.45689 0.0
O383 O 0.82435 0.16061 0.4577 0.0
O384 O 0.851 0.17112 0.41551 0.0
O385 O 0.86044 0.20394 0.44435 0.0
O386 O 0.86121 0.19352 0.49857 0.0
O387 O 0.90757 0.18127 0.49217 0.0
O388 O 0.9121 0.17323 0.44453 0.0
O389 O 0.89223 0.13034 0.44566 0.0
O390 O 0.86669 0.12208 0.48759 0.0
O391 O 0.8614 0.08893 0.45842 0.0
H392 H 0.79828 0.14928 0.38478 0.0
H393 H 0.76729 0.15761 0.35154 0.0
H394 H 0.78748 0.06828 0.32862 0.0
H395 H 0.81879 0.06038 0.36175 0.0
H396 H 0.86192 0.21749 0.54286 0.0
H397 H 0.8696 0.2051 0.58237 0.0
H398 H 0.93029 0.13442 0.56321 0.0
H399 H 0.92268 0.1468 0.52392 0.0
Nd400 Nd 0.63454 0.09423 0.18325 0.0
Nd401 Nd 0.59659 0.12604 0.21854 0.0
C402 C 0.66124 0.0755 0.14579 0.0
C403 C 0.65886 0.05373 0.12687 0.0
C404 C 0.67889 0.02954 0.12576 0.0
C405 C 0.67828 0.00952 0.10774 0.0
C406 C 0.65767 0.01303 0.09008 0.0
C407 C 0.63789 0.03756 0.09095 0.0
C408 C 0.63845 0.05764 0.10911 0.0
C409 C 0.60991 0.05612 0.21462 0.0
C410 C 0.56281 0.11089 0.17278 0.0
C411 C 0.56957 0.14542 0.25541 0.0
C412 C 0.57366 0.14539 0.2799 0.0
C413 C 0.59931 0.1331 0.28988 0.0
C414 C 0.60326 0.13452 0.31312 0.0
C415 C 0.58147 0.14808 0.32683 0.0
C416 C 0.55565 0.16002 0.31669 0.0
C417 C 0.55185 0.15872 0.29349 0.0
C418 C 0.61906 0.1632 0.18584 0.0
C419 C 0.66747 0.11187 0.22915 0.0
O420 O 0.64263 0.09806 0.14657 0.0
O421 O 0.66734 0.06497 0.16565 0.0
O422 O 0.63509 0.05116 0.20458 0.0
O423 O 0.59737 0.07882 0.20638 0.0
O424 O 0.58982 0.10443 0.16494 0.0
O425 O 0.55821 0.11649 0.19416 0.0
O426 O 0.56336 0.11985 0.2459 0.0
O427 O 0.58855 0.16138 0.24383 0.0
O428 O 0.5923 0.1651 0.19422 0.0
O429 O 0.63389 0.14242 0.19514 0.0
O430 O 0.64 0.11399 0.23711 0.0
O431 O 0.67229 0.10887 0.2074 0.0
H432 H 0.69533 0.02617 0.13883 0.0
H433 H 0.69428 0.99133 0.10756 0.0
H434 H 0.6216 0.04095 0.07779 0.0
H435 H 0.62292 0.07623 0.1092 0.0
H436 H 0.61631 0.12254 0.27971 0.0
H437 H 0.62326 0.12482 0.32035 0.0
H438 H 0.53861 0.17098 0.32664 0.0
H439 H 0.53194 0.16845 0.28611 0.0
Nd440 Nd 0.66527 0.8748 0.93418 0.0
Nd441 Nd 0.63263 0.83814 0.96912 0.0
C442 C 0.68311 0.9018 0.89672 0.0
C443 C 0.70415 0.89916 0.87734 0.0
C444 C 0.73186 0.91406 0.87785 0.0
C445 C 0.7513 0.91317 0.85947 0.0
C446 C 0.74368 0.89747 0.83987 0.0
C447 C 0.71569 0.883 0.83911 0.0
C448 C 0.69617 0.88382 0.85762 0.0
C449 C 0.70302 0.85114 0.96596 0.0
C450 C 0.64965 0.80247 0.92428 0.0
C451 C 0.61227 0.81335 1.00632 0.0
C452 C 0.61481 0.81858 0.03062 0.0
C453 C 0.61601 0.84766 0.03944 0.0
C454 C 0.61721 0.8522 0.06258 0.0
C455 C 0.61723 0.82774 0.07736 0.0
C456 C 0.61658 0.79866 0.06838 0.0
C457 C 0.61539 0.79416 0.04525 0.0
C458 C 0.59612 0.86111 0.93632 0.0
C459 C 0.65043 0.90738 0.98071 0.0
O460 O 0.65995 0.88392 0.89772 0.0
O461 O 0.69466 0.90702 0.91642 0.0
O462 O 0.70818 0.87596 0.95553 0.0
O463 O 0.68043 0.83814 0.95779 0.0
O464 O 0.65946 0.82853 0.9166 0.0
O465 O 0.64002 0.79936 0.945 0.0
O466 O 0.63638 0.80397 0.99602 0.0
O467 O 0.5974 0.83334 0.99486 0.0
O468 O 0.59379 0.8344 0.9445 0.0
O469 O 0.61697 0.87554 0.94581 0.0
O470 O 0.64806 0.87984 0.98818 0.0
O471 O 0.65182 0.91257 0.95892 0.0
H472 H 0.73852 0.92673 0.89245 0.0
H473 H 0.77236 0.92509 0.86059 0.0
H474 H 0.70909 0.8706 0.82437 0.0
H475 H 0.67479 0.8725 0.85644 0.0
H476 H 0.61563 0.86688 0.02847 0.0
H477 H 0.61805 0.87487 0.06889 0.0
H478 H 0.61619 0.77932 0.07925 0.0
H479 H 0.61444 0.77156 0.03879 0.0
Nd480 Nd 0.87328 0.09019 0.85346 0.0
Nd481 Nd 0.90988 0.12135 0.81707 0.0
C482 C 0.84856 0.07225 0.89186 0.0
C483 C 0.8537 0.05172 0.9112 0.0
C484 C 0.85717 0.06336 0.93293 0.0
C485 C 0.86083 0.04433 0.95145 0.0
C486 C 0.86108 0.01306 0.94877 0.0
C487 C 0.85724 1.00152 0.92699 0.0
C488 C 0.85366 0.0205 0.90853 0.0
C489 C 0.89709 0.05169 0.82242 0.0
C490 C 0.94563 0.1074 0.8622 0.0
C491 C 0.93496 0.13845 0.77885 0.0
C492 C 0.92764 0.13993 0.75479 0.0
C493 C 0.90364 0.12371 0.7457 0.0
C494 C 0.89656 0.12623 0.72293 0.0
C495 C 0.91348 0.14491 0.70879 0.0
C496 C 0.93767 0.16087 0.71801 0.0
C497 C 0.9446 0.15845 0.74076 0.0
C498 C 0.88731 0.15944 0.84928 0.0
C499 C 0.83903 0.10626 0.80742 0.0
O500 O 0.86577 0.09573 0.89012 0.0
O501 O 0.84243 0.06047 0.87239 0.0
O502 O 0.87213 0.04693 0.83279 0.0
O503 O 0.91026 0.07437 0.8302 0.0
O504 O 0.91898 0.10041 0.87052 0.0
O505 O 0.94934 0.11314 0.84073 0.0
O506 O 0.93858 0.11188 0.78756 0.0
O507 O 0.92008 0.15648 0.79198 0.0
O508 O 0.91312 0.16266 0.83956 0.0
O509 O 0.87297 0.13768 0.84087 0.0
O510 O 0.86632 0.10854 0.7992 0.0
O511 O 0.83467 0.10346 0.82929 0.0
H512 H 0.85698 0.0873 0.93561 0.0
H513 H 0.86393 0.05417 0.96782 0.0
H514 H 0.85668 0.97763 0.92416 0.0
H515 H 0.85066 0.01061 0.89216 0.0
H516 H 0.89035 0.10917 0.75618 0.0
H517 H 0.87801 0.11336 0.71637 0.0
H518 H 0.95095 0.17573 0.70772 0.0
H519 H 0.96313 0.17126 0.74746 0.0
Nd520 Nd 0.66072 0.12694 0.60308 0.0
Nd521 Nd 0.63632 0.16949 0.56278 0.0
C522 C 0.67257 0.09992 0.64189 0.0
C523 C 0.69148 0.10441 0.66208 0.0
C524 C 0.70884 0.13029 0.66481 0.0
C525 C 0.72784 0.13346 0.68339 0.0
C526 C 0.73009 0.11079 0.69974 0.0
C527 C 0.71198 0.08523 0.69719 0.0
C528 C 0.69299 0.08209 0.67857 0.0
C529 C 0.70344 0.14992 0.57456 0.0
C530 C 0.64377 0.19949 0.61197 0.0
C531 C 0.63639 0.19979 0.52476 0.0
C532 C 0.63138 0.19317 0.50088 0.0
C533 C 0.64423 0.21173 0.48464 0.0
C534 C 0.64127 0.20502 0.4619 0.0
C535 C 0.62539 0.17952 0.45487 0.0
C536 C 0.61237 0.16099 0.47125 0.0
C537 C 0.61545 0.16769 0.49405 0.0
C538 C 0.58902 0.1416 0.58485 0.0
C539 C 0.64323 0.09666 0.55502 0.0
O540 O 0.65014 0.11832 0.63893 0.0
O541 O 0.68661 0.09406 0.62321 0.0
O542 O 0.70631 0.12471 0.58493 0.0
O543 O 0.67999 0.16319 0.58105 0.0
O544 O 0.65101 0.17271 0.61998 0.0
O545 O 0.63943 0.20486 0.59043 0.0
O546 O 0.6604 0.18783 0.53349 0.0
O547 O 0.61315 0.1986 0.53815 0.0
O548 O 0.58555 0.1598 0.5681 0.0
O549 O 0.61667 0.1387 0.58845 0.0
O550 O 0.6442 0.12391 0.5465 0.0
O551 O 0.64446 0.09174 0.577 0.0
H552 H 0.70801 0.1479 0.6524 0.0
H553 H 0.74097 0.1537 0.68484 0.0
H554 H 0.71321 0.06716 0.70917 0.0
H555 H 0.67984 0.06188 0.67684 0.0
H556 H 0.6568 0.23136 0.48957 0.0
H557 H 0.65126 0.21999 0.44979 0.0
H558 H 0.60028 0.14102 0.46647 0.0
H559 H 0.60568 0.15284 0.50635 0.0
Nd560 Nd 0.62242 0.91122 0.35215 0.0
Nd561 Nd 0.58898 0.87747 0.3155 0.0
C562 C 0.64683 0.92877 0.39072 0.0
C563 C 0.64173 0.94818 0.41052 0.0
C564 C 0.66056 0.94552 0.42922 0.0
C565 C 0.65767 0.96501 0.44753 0.0
C566 C 0.63588 0.98777 0.44754 0.0
C567 C 0.61637 0.98966 0.429 0.0
C568 C 0.61928 0.97013 0.41071 0.0
C569 C 0.60101 0.94811 0.3191 0.0
C570 C 0.54895 0.8957 0.35801 0.0
C571 C 0.56781 0.85618 0.27736 0.0
C572 C 0.57416 0.85912 0.2532 0.0
C573 C 0.55034 0.86293 0.23822 0.0
C574 C 0.55562 0.86424 0.21518 0.0
C575 C 0.58489 0.86166 0.20662 0.0
C576 C 0.60882 0.85843 0.22171 0.0
C577 C 0.60353 0.85725 0.24477 0.0
C578 C 0.61106 0.84166 0.34927 0.0
C579 C 0.65805 0.89728 0.30622 0.0
O580 O 0.63017 0.90491 0.38869 0.0
O581 O 0.6515 0.94203 0.37157 0.0
O582 O 0.62449 0.95408 0.33101 0.0
O583 O 0.58768 0.9253 0.32664 0.0
O584 O 0.57455 0.90409 0.36749 0.0
O585 O 0.54791 0.88696 0.33696 0.0
O586 O 0.55628 0.87945 0.28744 0.0
O587 O 0.58791 0.84242 0.28947 0.0
O588 O 0.58548 0.83769 0.33944 0.0
O589 O 0.62503 0.86336 0.34057 0.0
O590 O 0.63092 0.89468 0.29795 0.0
O591 O 0.66205 0.89879 0.32822 0.0
H592 H 0.67807 0.92875 0.42946 0.0
H593 H 0.67329 0.96295 0.46128 0.0
H594 H 0.59898 0.00651 0.42847 0.0
H595 H 0.60435 0.97253 0.39656 0.0
H596 H 0.52753 0.86438 0.24432 0.0
H597 H 0.53663 0.8664 0.20404 0.0
H598 H 0.63165 0.85672 0.2157 0.0
H599 H 0.62239 0.85448 0.25596 0.0
Nd600 Nd 0.84762 0.87256 0.10343 0.0
Nd601 Nd 0.88307 0.83871 0.06697 0.0
C602 C 0.82857 0.89722 0.14161 0.0
C603 C 0.80654 0.89566 0.16051 0.0
C604 C 0.78194 0.91527 0.1608 0.0
C605 C 0.76202 0.9159 0.17892 0.0
C606 C 0.76593 0.89698 0.19753 0.0
C607 C 0.79087 0.87764 0.1975 0.0
C608 C 0.81092 0.87699 0.17924 0.0
C609 C 0.8119 0.85009 0.06999 0.0
C610 C 0.86498 0.79992 0.11028 0.0
C611 C 0.9058 0.81644 0.02943 0.0
C612 C 0.90566 0.82077 1.0049 0.0
C613 C 0.88982 0.8442 0.99465 0.0
C614 C 0.89067 0.84785 0.9713 0.0
C615 C 0.90728 0.82803 0.95777 0.0
C616 C 0.92324 0.8048 0.9683 0.0
C617 C 0.92239 0.80123 0.99152 0.0
C618 C 0.91696 0.85903 0.10221 0.0
C619 C 0.86422 0.9083 0.05809 0.0
O620 O 0.85042 0.87775 0.14055 0.0
O621 O 0.81858 0.90463 0.12183 0.0
O622 O 0.80481 0.87318 0.08194 0.0
O623 O 0.83496 0.83751 0.07777 0.0
O624 O 0.85445 0.82518 0.11896 0.0
O625 O 0.87504 0.79838 0.08953 0.0
O626 O 0.88124 0.80636 0.03874 0.0
O627 O 0.91902 0.83705 0.04139 0.0
O628 O 0.92122 0.8337 0.09221 0.0
O629 O 0.89629 0.87395 0.0929 0.0
O630 O 0.86798 0.88149 0.04954 0.0
O631 O 0.8605 0.91201 0.07993 0.0
H632 H 0.7782 0.93054 0.14704 0.0
H633 H 0.74355 0.93159 0.17839 0.0
H634 H 0.79463 0.86264 0.21142 0.0
H635 H 0.82991 0.86195 0.17986 0.0
H636 H 0.8768 0.85961 1.00464 0.0
H637 H 0.87795 0.86588 0.96384 0.0
H638 H 0.93677 0.78944 0.9586 0.0
H639 H 0.93499 0.78317 0.99908 0.0
Nd640 Nd 0.59414 0.62138 0.81393 0.0
Nd641 Nd 0.63051 0.59654 0.85279 0.0
C642 C 0.57183 0.63463 0.77408 0.0
C643 C 0.58258 0.63887 0.75084 0.0
C644 C 0.5678 0.62437 0.73319 0.0
C645 C 0.57661 0.62915 0.71099 0.0
C646 C 0.60036 0.64869 0.70592 0.0
C647 C 0.61559 0.66264 0.72369 0.0
C648 C 0.60685 0.65776 0.74589 0.0
C649 C 0.60786 0.66233 0.84684 0.0
C650 C 0.667 0.61598 0.80806 0.0
C651 C 0.65485 0.58295 0.89237 0.0
C652 C 0.65007 0.56442 0.91272 0.0
C653 C 0.62369 0.54793 0.91595 0.0
C654 C 0.62065 0.52891 0.93453 0.0
C655 C 0.64396 0.52574 0.95035 0.0
C656 C 0.66998 0.54308 0.94733 0.0
C657 C 0.67298 0.56209 0.92874 0.0
C658 C 0.61732 0.55495 0.82021 0.0
C659 C 0.5552 0.60145 0.856 0.0
O660 O 0.57266 0.60743 0.78204 0.0
O661 O 0.57951 0.65476 0.78887 0.0
O662 O 0.58194 0.66048 0.83711 0.0
O663 O 0.62603 0.64321 0.83909 0.0
O664 O 0.64047 0.61524 0.79854 0.0
O665 O 0.66969 0.61362 0.83014 0.0
O666 O 0.63716 0.60586 0.88914 0.0
O667 O 0.66065 0.5687 0.87382 0.0
O668 O 0.64186 0.55528 0.83173 0.0
O669 O 0.59968 0.57487 0.82739 0.0
O670 O 0.58125 0.59932 0.8667 0.0
O671 O 0.55411 0.6059 0.83425 0.0
H672 H 0.54904 0.6097 0.73657 0.0
H673 H 0.56416 0.61828 0.69776 0.0
H674 H 0.63423 0.6775 0.72045 0.0
H675 H 0.61887 0.66907 0.75913 0.0
H676 H 0.60564 0.54937 0.9039 0.0
H677 H 0.60005 0.51638 0.93635 0.0
H678 H 0.68855 0.54115 0.95888 0.0
H679 H 0.6936 0.57452 0.92661 0.0
Nd680 Nd 0.63194 0.34316 0.06418 0.0
Nd681 Nd 0.66534 0.3788 0.10358 0.0
C682 C 0.61372 0.31908 0.02625 0.0
C683 C 0.61669 0.32323 1.00199 0.0
C684 C 0.63297 0.34719 0.99293 0.0
C685 C 0.63483 0.35087 0.96969 0.0
C686 C 0.6207 0.33043 0.95525 0.0
C687 C 0.6046 0.30643 0.96455 0.0
C688 C 0.60261 0.30292 0.98768 0.0
C689 C 0.59654 0.36133 0.09933 0.0
C690 C 0.65003 0.4139 0.0564 0.0
C691 C 0.67731 0.40551 0.14231 0.0
C692 C 0.69686 0.40106 0.16211 0.0
C693 C 0.71242 0.37416 0.16536 0.0
C694 C 0.73081 0.37023 0.18416 0.0
C695 C 0.73421 0.39313 0.20022 0.0
C696 C 0.71814 0.41989 0.19702 0.0
C697 C 0.69973 0.42379 0.17818 0.0
C698 C 0.70668 0.35397 0.07399 0.0
C699 C 0.65016 0.30558 0.10802 0.0
O700 O 0.63773 0.31013 0.03695 0.0
O701 O 0.59846 0.33952 0.03707 0.0
O702 O 0.59261 0.33664 0.08836 0.0
O703 O 0.61751 0.37671 0.09085 0.0
O704 O 0.64417 0.38745 0.04768 0.0
O705 O 0.65569 0.41744 0.07815 0.0
O706 O 0.65566 0.3861 0.13955 0.0
O707 O 0.69045 0.41264 0.12344 0.0
O708 O 0.71435 0.36869 0.0918 0.0
O709 O 0.67867 0.35195 0.07394 0.0
O710 O 0.65596 0.33131 0.11825 0.0
O711 O 0.64471 0.30384 0.08636 0.0
H712 H 0.6442 0.36295 1.00379 0.0
H713 H 0.64754 0.36946 0.96303 0.0
H714 H 0.59306 0.29058 0.95392 0.0
H715 H 0.58988 0.28437 0.9944 0.0
H716 H 0.7104 0.35619 0.15331 0.0
H717 H 0.74238 0.34913 0.18611 0.0
H718 H 0.72036 0.43816 0.20878 0.0
H719 H 0.68786 0.44471 0.17607 0.0
Nd720 Nd 0.91217 0.38368 0.31715 0.0
Nd721 Nd 0.87471 0.4137 0.35439 0.0
C722 C 0.93591 0.36973 0.27769 0.0
C723 C 0.92703 0.36789 0.25384 0.0
C724 C 0.90176 0.38303 0.24556 0.0
C725 C 0.89366 0.38049 0.22293 0.0
C726 C 0.91085 0.36303 0.20805 0.0
C727 C 0.93624 0.34813 0.21649 0.0
C728 C 0.94414 0.35048 0.23909 0.0
C729 C 0.89158 0.34461 0.34943 0.0
C730 C 0.83972 0.39446 0.30928 0.0
C731 C 0.84962 0.43107 0.39291 0.0
C732 C 0.8558 0.44867 0.41351 0.0
C733 C 0.88389 0.46173 0.41741 0.0
C734 C 0.88867 0.4796 0.43642 0.0
C735 C 0.86547 0.48495 0.45204 0.0
C736 C 0.83764 0.471 0.44833 0.0
C737 C 0.83288 0.45316 0.4293 0.0
C738 C 0.89395 0.45212 0.32122 0.0
C739 C 0.94827 0.4001 0.36198 0.0
O740 O 0.9375 0.39639 0.28662 0.0
O741 O 0.92415 0.35004 0.29124 0.0
O742 O 0.91715 0.34202 0.33916 0.0
O743 O 0.87656 0.36629 0.34154 0.0
O744 O 0.86678 0.39206 0.30064 0.0
O745 O 0.83577 0.39881 0.33106 0.0
O746 O 0.86398 0.40585 0.39033 0.0
O747 O 0.84734 0.44588 0.37418 0.0
O748 O 0.86888 0.45479 0.33196 0.0
O749 O 0.90904 0.43092 0.32958 0.0
O750 O 0.92168 0.40717 0.37041 0.0
O751 O 0.95167 0.393 0.34067 0.0
H752 H 0.88834 0.39684 0.25656 0.0
H753 H 0.87416 0.39252 0.21703 0.0
H754 H 0.94979 0.3342 0.20566 0.0
H755 H 0.96367 0.33856 0.24509 0.0
H756 H 0.902 0.45847 0.40559 0.0
H757 H 0.91056 0.48951 0.43877 0.0
H758 H 0.81913 0.47473 0.45971 0.0
H759 H 0.811 0.4433 0.42668 0.0
Nd760 Nd 0.87455 0.66869 0.56063 0.0
Nd761 Nd 0.84763 0.63433 0.6036 0.0
C762 C 0.87792 0.69492 0.52113 0.0
C763 C 0.88947 0.68821 0.49852 0.0
C764 C 0.88497 0.66008 0.48857 0.0
C765 C 0.89439 0.65473 0.46661 0.0
C766 C 0.90866 0.67731 0.45419 0.0
C767 C 0.91367 0.70521 0.46439 0.0
C768 C 0.90409 0.7106 0.48631 0.0
C769 C 0.92042 0.64024 0.58392 0.0
C770 C 0.86258 0.59678 0.55744 0.0
C771 C 0.83534 0.61116 0.64377 0.0
C772 C 0.81699 0.61658 0.66418 0.0
C773 C 0.79885 0.64203 0.66633 0.0
C774 C 0.78006 0.6456 0.68503 0.0
C775 C 0.77878 0.62374 0.70207 0.0
C776 C 0.7978 0.59876 0.70013 0.0
C777 C 0.81659 0.59522 0.68141 0.0
C778 C 0.80636 0.65436 0.57274 0.0
C779 C 0.86695 0.7067 0.607 0.0
O780 O 0.85486 0.67919 0.5278 0.0
O781 O 0.89765 0.6995 0.53699 0.0
O782 O 0.92436 0.65511 0.5655 0.0
O783 O 0.89282 0.64006 0.58846 0.0
O784 O 0.86306 0.62272 0.54704 0.0
O785 O 0.86103 0.59482 0.57971 0.0
O786 O 0.85793 0.62907 0.6399 0.0
O787 O 0.82085 0.60432 0.62549 0.0
O788 O 0.8025 0.63113 0.58536 0.0
O789 O 0.83005 0.6679 0.5785 0.0
O790 O 0.85606 0.68256 0.61712 0.0
O791 O 0.87415 0.70732 0.58555 0.0
H792 H 0.87384 0.64233 0.49764 0.0
H793 H 0.89055 0.63289 0.45935 0.0
H794 H 0.92435 0.72316 0.45523 0.0
H795 H 0.90769 0.73246 0.49362 0.0
H796 H 0.79881 0.65891 0.65334 0.0
H797 H 0.76618 0.66541 0.68597 0.0
H798 H 0.79735 0.5813 0.71265 0.0
H799 H 0.83034 0.57534 0.68014 0.0
Nd800 Nd 0.5909 0.3853 0.71803 0.0
Nd801 Nd 0.62389 0.41319 0.67903 0.0
C802 C 0.56984 0.36843 0.75744 0.0
C803 C 0.57895 0.3691 0.78107 0.0
C804 C 0.59761 0.39167 0.7896 0.0
C805 C 0.6063 0.39125 0.81212 0.0
C806 C 0.59666 0.36812 0.82634 0.0
C807 C 0.57803 0.34563 0.81761 0.0
C808 C 0.56929 0.34615 0.79522 0.0
C809 C 0.60976 0.34501 0.68598 0.0
C810 C 0.66097 0.40052 0.7248 0.0
C811 C 0.64786 0.42671 0.63935 0.0
C812 C 0.64331 0.44513 0.619 0.0
C813 C 0.61842 0.46402 0.61667 0.0
C814 C 0.61566 0.48262 0.59786 0.0
C815 C 0.63778 0.48288 0.58093 0.0
C816 C 0.66223 0.4632 0.58312 0.0
C817 C 0.66494 0.44462 0.60194 0.0
C818 C 0.60613 0.4542 0.71054 0.0
C819 C 0.54962 0.4001 0.67593 0.0
O820 O 0.56304 0.39394 0.74805 0.0
O821 O 0.58547 0.35095 0.7444 0.0
O822 O 0.58429 0.34347 0.69635 0.0
O823 O 0.62514 0.36677 0.69308 0.0
O824 O 0.63424 0.40104 0.73391 0.0
O825 O 0.66393 0.40044 0.70265 0.0
O826 O 0.62976 0.40417 0.64261 0.0
O827 O 0.65401 0.44089 0.65787 0.0
O828 O 0.63007 0.45675 0.69844 0.0
O829 O 0.59069 0.43209 0.70414 0.0
O830 O 0.57499 0.40624 0.66514 0.0
O831 O 0.54948 0.3945 0.69752 0.0
H832 H 0.60554 0.40949 0.77886 0.0
H833 H 0.62083 0.40876 0.81832 0.0
H834 H 0.56982 0.32779 0.82819 0.0
H835 H 0.55493 0.32853 0.78893 0.0
H836 H 0.60136 0.46471 0.62955 0.0
H837 H 0.59626 0.49706 0.59669 0.0
H838 H 0.67988 0.4629 0.5707 0.0
H839 H 0.68438 0.43025 0.60338 0.0
Nd840 Nd 0.86836 0.3406 0.9661 0.0
Nd841 Nd 0.84152 0.3803 0.92999 0.0
C842 C 0.88383 0.31685 1.00512 0.0
C843 C 0.88606 0.32656 0.02892 0.0
C844 C 0.87137 0.31036 0.04582 0.0
C845 C 0.87535 0.31776 0.06847 0.0
C846 C 0.89433 0.34144 0.07477 0.0
C847 C 0.90808 0.35833 0.05775 0.0
C848 C 0.90397 0.35105 0.03517 0.0
C849 C 0.90852 0.35844 0.93375 0.0
C850 C 0.86073 0.41249 0.97568 0.0
C851 C 0.82633 0.40623 0.89136 0.0
C852 C 0.80564 0.40273 0.87179 0.0
C853 C 0.81692 0.3955 0.85043 0.0
C854 C 0.79777 0.39344 0.83176 0.0
C855 C 0.76676 0.39857 0.83392 0.0
C856 C 0.7557 0.4063 0.85527 0.0
C857 C 0.77475 0.40832 0.87385 0.0
C858 C 0.80048 0.36153 0.96143 0.0
C859 C 0.8517 0.30669 0.92088 0.0
O860 O 0.85703 0.31394 0.99653 0.0
O861 O 0.90295 0.32843 0.991 0.0
O862 O 0.9077 0.33187 0.94241 0.0
O863 O 0.88898 0.37542 0.94254 0.0
O864 O 0.85918 0.38516 0.98372 0.0
O865 O 0.8594 0.41716 0.9538 0.0
O866 O 0.84859 0.38741 0.89336 0.0
O867 O 0.8147 0.41329 0.91073 0.0
O868 O 0.79877 0.38676 0.95097 0.0
O869 O 0.82126 0.34559 0.95341 0.0
O870 O 0.84724 0.33398 0.91289 0.0
O871 O 0.85657 0.30206 0.9424 0.0
H872 H 0.85738 0.29144 0.04153 0.0
H873 H 0.86451 0.30418 0.08108 0.0
H874 H 0.9224 0.37705 0.06191 0.0
H875 H 0.91535 0.36432 0.02264 0.0
H876 H 0.84065 0.39146 0.84814 0.0
H877 H 0.8072 0.3873 0.81572 0.0
H878 H 0.73213 0.41108 0.85768 0.0
H879 H 0.76517 0.41446 0.88985 0.0
Nd880 Nd 0.93149 0.61852 0.21612 0.0
Nd881 Nd 0.8939 0.5922 0.17954 0.0
C882 C 0.95589 0.63616 0.2543 0.0
C883 C 0.947 0.6382 0.27804 0.0
C884 C 0.96808 0.63208 0.29478 0.0
C885 C 0.96023 0.63452 0.31737 0.0
C886 C 0.93106 0.64306 0.32366 0.0
C887 C 0.9099 0.64889 0.30678 0.0
C888 C 0.9178 0.64653 0.28421 0.0
C889 C 0.91373 0.65866 0.18375 0.0
C890 C 0.86031 0.60748 0.22587 0.0
C891 C 0.86738 0.57856 0.14083 0.0
C892 C 0.87147 0.55972 0.12061 0.0
C893 C 0.85225 0.56339 0.10223 0.0
C894 C 0.85386 0.54404 0.08375 0.0
C895 C 0.87469 0.52041 0.08327 0.0
C896 C 0.89468 0.51756 0.10144 0.0
C897 C 0.89306 0.53695 0.11988 0.0
C898 C 0.9105 0.55068 0.21103 0.0
C899 C 0.96838 0.60011 0.1727 0.0
O900 O 0.95952 0.60932 0.2461 0.0
O901 O 0.9423 0.65418 0.24043 0.0
O902 O 0.94064 0.65707 0.19176 0.0
O903 O 0.8968 0.63927 0.19256 0.0
O904 O 0.88769 0.60694 0.23398 0.0
O905 O 0.85598 0.60734 0.20391 0.0
O906 O 0.88521 0.60146 0.14342 0.0
O907 O 0.8624 0.56457 0.15962 0.0
O908 O 0.88558 0.55005 0.20001 0.0
O909 O 0.92746 0.57117 0.20368 0.0
O910 O 0.94163 0.59636 0.16337 0.0
O911 O 0.97103 0.6052 0.1943 0.0
H912 H 0.9907 0.62553 0.29038 0.0
H913 H 0.97695 0.62951 0.32993 0.0
H914 H 0.88736 0.65588 0.31101 0.0
H915 H 0.90114 0.65149 0.2716 0.0
H916 H 0.83535 0.58078 0.10242 0.0
H917 H 0.83794 0.54687 0.07027 0.0
H918 H 0.91136 0.5 0.10159 0.0
H919 H 0.90824 0.53373 0.1338 0.0
Nd920 Nd 0.64407 0.6621 0.46495 0.0
Nd921 Nd 0.67092 0.62308 0.42764 0.0
C922 C 0.63224 0.68776 0.50396 0.0
C923 C 0.63119 0.67959 0.52785 0.0
C924 C 0.64618 0.65427 0.53607 0.0
C925 C 0.64394 0.64649 0.55873 0.0
C926 C 0.62685 0.66403 0.5736 0.0
C927 C 0.61213 0.68948 0.56522 0.0
C928 C 0.61424 0.69711 0.5426 0.0
C929 C 0.60288 0.64373 0.43344 0.0
C930 C 0.6502 0.58973 0.473 0.0
C931 C 0.68726 0.59804 0.38889 0.0
C932 C 0.70959 0.60077 0.37024 0.0
C933 C 0.703 0.61699 0.35062 0.0
C934 C 0.72354 0.61824 0.33272 0.0
C935 C 0.75127 0.60327 0.33391 0.0
C936 C 0.75748 0.58663 0.3534 0.0
C937 C 0.73704 0.58538 0.3712 0.0
C938 C 0.7119 0.64147 0.45965 0.0
C939 C 0.65685 0.69596 0.41912 0.0
O940 O 0.65865 0.68841 0.49444 0.0
O941 O 0.6117 0.67586 0.4912 0.0
O942 O 0.60202 0.6693 0.44372 0.0
O943 O 0.62385 0.62742 0.44101 0.0
O944 O 0.6511 0.61676 0.4817 0.0
O945 O 0.6527 0.58565 0.45105 0.0
O946 O 0.66641 0.61842 0.39064 0.0
O947 O 0.69678 0.58908 0.40843 0.0
O948 O 0.71354 0.61669 0.44859 0.0
O949 O 0.69076 0.65699 0.45169 0.0
O950 O 0.66174 0.66892 0.41085 0.0
O951 O 0.65348 0.70052 0.44077 0.0
H952 H 0.65951 0.6405 0.52498 0.0
H953 H 0.65576 0.62689 0.56464 0.0
H954 H 0.59842 0.70323 0.57606 0.0
H955 H 0.60239 0.71663 0.53656 0.0
H956 H 0.68188 0.62871 0.34904 0.0
H957 H 0.71789 0.63138 0.31813 0.0
H958 H 0.7782 0.5742 0.35488 0.0
H959 H 0.74274 0.57208 0.38571 0.0
Nd960 Nd 0.38339 0.41736 0.18185 0.0
Nd961 Nd 0.4179 0.37772 0.21983 0.0
C962 C 0.35265 0.43861 0.14723 0.0
C963 C 0.35727 0.4568 0.12651 0.0
C964 C 0.35427 0.44366 0.10522 0.0
C965 C 0.35774 0.46073 0.08562 0.0
C966 C 0.36427 0.49148 0.08676 0.0
C967 C 0.36682 0.50461 0.10812 0.0
C968 C 0.36341 0.48759 0.12765 0.0
C969 C 0.40919 0.44741 0.21721 0.0
C970 C 0.45556 0.40167 0.17552 0.0
C971 C 0.44401 0.36485 0.25815 0.0
C972 C 0.43569 0.3667 0.28214 0.0
C973 C 0.45357 0.38298 0.29713 0.0
C974 C 0.44679 0.38345 0.32003 0.0
C975 C 0.42212 0.3674 0.32842 0.0
C976 C 0.40378 0.35182 0.3133 0.0
C977 C 0.41039 0.35156 0.29045 0.0
C978 C 0.39784 0.34137 0.18582 0.0
C979 C 0.34526 0.38963 0.22546 0.0
O980 O 0.3642 0.41167 0.1477 0.0
O981 O 0.35456 0.45225 0.16659 0.0
O982 O 0.40766 0.4588 0.19717 0.0
O983 O 0.39628 0.42254 0.21751 0.0
O984 O 0.43036 0.41165 0.16641 0.0
O985 O 0.45685 0.39049 0.19609 0.0
O986 O 0.44884 0.39009 0.24754 0.0
O987 O 0.42947 0.34516 0.24607 0.0
O988 O 0.4121 0.33155 0.20328 0.0
O989 O 0.3951 0.3694 0.18718 0.0
O990 O 0.37053 0.37962 0.23425 0.0
O991 O 0.3439 0.40315 0.20556 0.0
H992 H 0.34923 0.42007 0.10372 0.0
H993 H 0.35579 0.44968 0.06958 0.0
H994 H 0.37118 0.5283 0.10985 0.0
H995 H 0.36549 0.49871 0.14365 0.0
H996 H 0.4731 0.39494 0.29117 0.0
H997 H 0.46143 0.39557 0.33125 0.0
H998 H 0.38434 0.33965 0.31916 0.0
H999 H 0.39584 0.3391 0.27937 0.0
Nd1000 Nd 0.34591 0.62246 0.92684 0.0
Nd1001 Nd 0.37562 0.66255 0.96539 0.0
C1002 C 0.33402 0.59523 0.88826 0.0
C1003 C 0.31188 0.59728 0.86944 0.0
C1004 C 0.28239 0.58666 0.87183 0.0
C1005 C 0.26186 0.58854 0.8541 0.0
C1006 C 0.27 0.60114 0.83333 0.0
C1007 C 0.29973 0.61115 0.83077 0.0
C1008 C 0.32034 0.60922 0.84855 0.0
C1009 C 0.30211 0.64751 0.95441 0.0
C1010 C 0.35984 0.69548 0.91926 0.0
C1011 C 0.39096 0.68823 1.00361 0.0
C1012 C 0.39267 0.68024 0.02756 0.0
C1013 C 0.38688 0.70193 0.04393 0.0
C1014 C 0.39075 0.6953 0.06665 0.0
C1015 C 0.40052 0.66678 0.07344 0.0
C1016 C 0.40539 0.64484 0.05696 0.0
C1017 C 0.40156 0.65153 0.0343 0.0
C1018 C 0.41464 0.64175 0.9329 0.0
C1019 C 0.36187 0.59048 0.97471 0.0
O1020 O 0.35349 0.61698 0.89025 0.0
O1021 O 0.32454 0.58551 0.90771 0.0
O1022 O 0.29604 0.63058 0.93742 0.0
O1023 O 0.32989 0.65144 0.95444 0.0
O1024 O 0.35637 0.66834 0.91071 0.0
O1025 O 0.36281 0.70006 0.94099 0.0
O1026 O 0.36423 0.69098 0.99482 0.0
O1027 O 0.40996 0.67477 0.99031 0.0
O1028 O 0.41631 0.66769 0.9426 0.0
O1029 O 0.39315 0.62671 0.9412 0.0
O1030 O 0.36769 0.61745 0.98268 0.0
O1031 O 0.35575 0.58559 0.95323 0.0
H1032 H 0.27502 0.57688 0.88744 0.0
H1033 H 0.23946 0.57996 0.85673 0.0
H1034 H 0.30694 0.62113 0.81519 0.0
H1035 H 0.34295 0.6173 0.84598 0.0
H1036 H 0.38008 0.72426 0.03912 0.0
H1037 H 0.38707 0.71284 0.07881 0.0
H1038 H 0.41246 0.62254 0.06157 0.0
H1039 H 0.40621 0.63446 0.02199 0.0
Nd1040 Nd 0.12446 0.59811 0.68001 0.0
Nd1041 Nd 0.09099 0.63206 0.71648 0.0
C1042 C 0.14951 0.58053 0.64166 0.0
C1043 C 0.14472 0.56187 0.6215 0.0
C1044 C 0.16556 0.56307 0.60392 0.0
C1045 C 0.16277 0.54425 0.58527 0.0
C1046 C 0.13904 0.52364 0.58376 0.0
C1047 C 0.11765 0.52319 0.60118 0.0
C1048 C 0.12047 0.54206 0.61984 0.0
C1049 C 0.10206 0.56141 0.71284 0.0
C1050 C 0.0513 0.61423 0.67362 0.0
C1051 C 0.06932 0.65305 0.7546 0.0
C1052 C 0.07672 0.65119 0.77869 0.0
C1053 C 0.05487 0.64165 0.79399 0.0
C1054 C 0.06095 0.64123 0.81694 0.0
C1055 C 0.08898 0.65055 0.8251 0.0
C1056 C 0.11107 0.65945 0.80971 0.0
C1057 C 0.10506 0.6597 0.78677 0.0
C1058 C 0.11315 0.66789 0.68277 0.0
C1059 C 0.1602 0.61151 0.726 0.0
O1060 O 0.13348 0.60483 0.6437 0.0
O1061 O 0.15298 0.56662 0.66068 0.0
O1062 O 0.12577 0.55521 0.70122 0.0
O1063 O 0.08914 0.58436 0.70518 0.0
O1064 O 0.0769 0.60537 0.66435 0.0
O1065 O 0.05011 0.62313 0.69464 0.0
O1066 O 0.0591 0.62881 0.74505 0.0
O1067 O 0.0879 0.66787 0.74184 0.0
O1068 O 0.08755 0.6718 0.69261 0.0
O1069 O 0.12722 0.64615 0.69144 0.0
O1070 O 0.13323 0.61571 0.73428 0.0
O1071 O 0.16414 0.60893 0.70407 0.0
H1072 H 0.18448 0.57818 0.60486 0.0
H1073 H 0.17985 0.54511 0.57242 0.0
H1074 H 0.0988 0.50799 0.60052 0.0
H1075 H 0.10401 0.54084 0.63312 0.0
H1076 H 0.03288 0.63499 0.78819 0.0
H1077 H 0.04337 0.63446 0.82836 0.0
H1078 H 0.13303 0.66635 0.81542 0.0
H1079 H 0.12252 0.66693 0.77541 0.0
Nd1080 Nd 0.16709 0.38604 0.4286 0.0
Nd1081 Nd 0.13676 0.34664 0.46344 0.0
C1082 C 0.18659 0.41366 0.39179 0.0
C1083 C 0.20011 0.40905 0.36924 0.0
C1084 C 0.19014 0.42645 0.35118 0.0
C1085 C 0.20481 0.42537 0.33041 0.0
C1086 C 0.22999 0.40686 0.32707 0.0
C1087 C 0.23929 0.38863 0.34502 0.0
C1088 C 0.22458 0.38973 0.36581 0.0
C1089 C 0.20491 0.36471 0.46108 0.0
C1090 C 0.15308 0.31396 0.4178 0.0
C1091 C 0.12024 0.3207 0.50137 0.0
C1092 C 0.11621 0.32938 0.52512 0.0
C1093 C 0.12802 0.31126 0.54211 0.0
C1094 C 0.12294 0.31814 0.56467 0.0
C1095 C 0.10576 0.34326 0.57073 0.0
C1096 C 0.0947 0.36187 0.55365 0.0
C1097 C 0.09992 0.35507 0.53113 0.0
C1098 C 0.09859 0.36781 0.43094 0.0
C1099 C 0.14807 0.41801 0.47476 0.0
O1100 O 0.15854 0.40634 0.39496 0.0
O1101 O 0.20326 0.40794 0.4092 0.0
O1102 O 0.20717 0.391 0.45225 0.0
O1103 O 0.18445 0.34962 0.45178 0.0
O1104 O 0.1582 0.34126 0.4101 0.0
O1105 O 0.14833 0.30888 0.43923 0.0
O1106 O 0.14769 0.31979 0.49373 0.0
O1107 O 0.10135 0.33185 0.4869 0.0
O1108 O 0.09646 0.34159 0.44006 0.0
O1109 O 0.11906 0.38317 0.44017 0.0
O1110 O 0.1454 0.39045 0.48224 0.0
O1111 O 0.15259 0.42339 0.45321 0.0
H1112 H 0.17141 0.44159 0.35331 0.0
H1113 H 0.19656 0.43938 0.31701 0.0
H1114 H 0.2587 0.37429 0.3433 0.0
H1115 H 0.23293 0.37608 0.3794 0.0
H1116 H 0.14072 0.29139 0.53792 0.0
H1117 H 0.13162 0.3032 0.57735 0.0
H1118 H 0.0818 0.38165 0.55771 0.0
H1119 H 0.09082 0.36972 0.51842 0.0
Nd1120 Nd 0.38341 0.59898 0.34992 0.0
Nd1121 Nd 0.41971 0.63218 0.31422 0.0
C1122 C 0.35708 0.58041 0.38753 0.0
C1123 C 0.36025 0.5588 0.40645 0.0
C1124 C 0.3711 0.56822 0.42743 0.0
C1125 C 0.37241 0.54836 0.44563 0.0
C1126 C 0.36284 0.51853 0.44338 0.0
C1127 C 0.3517 0.50931 0.42243 0.0
C1128 C 0.3504 0.5291 0.4043 0.0
C1129 C 0.40799 0.56154 0.31847 0.0
C1130 C 0.45522 0.61758 0.35934 0.0
C1131 C 0.44214 0.65411 0.27659 0.0
C1132 C 0.43434 0.65258 0.25261 0.0
C1133 C 0.40445 0.64894 0.24582 0.0
C1134 C 0.39685 0.64972 0.22315 0.0
C1135 C 0.41895 0.65437 0.20671 0.0
C1136 C 0.44901 0.65722 0.21358 0.0
C1137 C 0.4566 0.65632 0.2363 0.0
C1138 C 0.39547 0.66801 0.34699 0.0
C1139 C 0.35093 0.61205 0.30315 0.0
O1140 O 0.37551 0.60306 0.38661 0.0
O1141 O 0.35085 0.56982 0.36769 0.0
O1142 O 0.38386 0.55553 0.32956 0.0
O1143 O 0.42055 0.58465 0.3262 0.0
O1144 O 0.42856 0.61024 0.3675 0.0
O1145 O 0.45915 0.62367 0.33793 0.0
O1146 O 0.45231 0.62972 0.28594 0.0
O1147 O 0.42315 0.66844 0.28932 0.0
O1148 O 0.42162 0.67218 0.33811 0.0
O1149 O 0.38189 0.64647 0.33775 0.0
O1150 O 0.37861 0.61398 0.29563 0.0
O1151 O 0.34565 0.61187 0.32498 0.0
H1152 H 0.37843 0.59106 0.42983 0.0
H1153 H 0.38129 0.5563 0.46139 0.0
H1154 H 0.34353 0.48675 0.42006 0.0
H1155 H 0.3413 0.5211 0.38862 0.0
H1156 H 0.38684 0.64623 0.25808 0.0
H1157 H 0.37356 0.64698 0.21852 0.0
H1158 H 0.46659 0.66116 0.20145 0.0
H1159 H 0.47977 0.65929 0.24118 0.0
Nd1160 Nd 0.16973 0.62516 0.0994 0.0
Nd1161 Nd 0.14303 0.66797 0.06061 0.0
C1162 C 0.18315 0.598 0.13779 0.0
C1163 C 0.20445 0.5999 0.15708 0.0
C1164 C 0.22742 0.57858 0.15916 0.0
C1165 C 0.24731 0.57928 0.17728 0.0
C1166 C 0.24488 0.60126 0.19407 0.0
C1167 C 0.22149 0.62228 0.1923 0.0
C1168 C 0.20156 0.62165 0.17403 0.0
C1169 C 0.21051 0.64552 0.06856 0.0
C1170 C 0.15718 0.69836 0.10897 0.0
C1171 C 0.13997 0.70059 0.02376 0.0
C1172 C 0.13378 0.69571 0.99983 0.0
C1173 C 0.13942 0.66798 0.98964 0.0
C1174 C 0.13478 0.66418 0.96666 0.0
C1175 C 0.12455 0.6881 0.95344 0.0
C1176 C 0.11845 0.71566 0.96387 0.0
C1177 C 0.12302 0.7194 0.98683 0.0
C1178 C 0.09657 0.64045 0.0839 0.0
C1179 C 0.14831 0.59554 0.052 0.0
O1180 O 0.16224 0.61836 0.1359 0.0
O1181 O 0.1941 0.58999 0.11838 0.0
O1182 O 0.2137 0.62074 0.07947 0.0
O1183 O 0.18839 0.66013 0.07608 0.0
O1184 O 0.16632 0.67177 0.11618 0.0
O1185 O 0.14819 0.70309 0.0882 0.0
O1186 O 0.16479 0.68896 0.0314 0.0
O1187 O 0.11746 0.69763 0.03762 0.0
O1188 O 0.09269 0.65869 0.06726 0.0
O1189 O 0.12434 0.63732 0.08712 0.0
O1190 O 0.14923 0.62276 0.04341 0.0
O1191 O 0.15086 0.59061 0.07391 0.0
H1192 H 0.23 0.56116 0.14673 0.0
H1193 H 0.26462 0.56237 0.17817 0.0
H1194 H 0.21896 0.63963 0.20478 0.0
H1195 H 0.18396 0.63827 0.17318 0.0
H1196 H 0.1479 0.64944 0.99937 0.0
H1197 H 0.13995 0.64276 0.95915 0.0
H1198 H 0.11012 0.73441 0.95426 0.0
H1199 H 0.11846 0.74093 0.99439 0.0
Nd1200 Nd 0.12217 0.41326 0.84876 0.0
Nd1201 Nd 0.08689 0.38022 0.81211 0.0
C1202 C 0.14741 0.42991 0.8872 0.0
C1203 C 0.14246 0.44863 0.90732 0.0
C1204 C 0.1635 0.44801 0.92475 0.0
C1205 C 0.16055 0.46704 0.94329 0.0
C1206 C 0.13647 0.48727 0.94482 0.0
C1207 C 0.11488 0.4871 0.92756 0.0
C1208 C 0.11786 0.46803 0.90902 0.0
C1209 C 0.10104 0.45039 0.8158 0.0
C1210 C 0.04894 0.39876 0.85611 0.0
C1211 C 0.06367 0.36088 0.77384 0.0
C1212 C 0.07094 0.36195 0.74973 0.0
C1213 C 0.09744 0.37533 0.74204 0.0
C1214 C 0.1051 0.37432 0.71933 0.0
C1215 C 0.08631 0.35998 0.70378 0.0
C1216 C 0.0594 0.3472 0.71152 0.0
C1217 C 0.05186 0.34812 0.73426 0.0
C1218 C 0.10753 0.34376 0.84584 0.0
C1219 C 0.15794 0.39659 0.80342 0.0
O1220 O 0.13107 0.40584 0.885 0.0
O1221 O 0.15131 0.44389 0.86824 0.0
O1222 O 0.125 0.45584 0.82732 0.0
O1223 O 0.08733 0.42793 0.82355 0.0
O1224 O 0.07458 0.40891 0.86439 0.0
O1225 O 0.04697 0.3881 0.83554 0.0
O1226 O 0.05565 0.38596 0.78341 0.0
O1227 O 0.08178 0.34508 0.78629 0.0
O1228 O 0.08205 0.34045 0.8357 0.0
O1229 O 0.12239 0.36507 0.83726 0.0
O1230 O 0.13106 0.39264 0.79486 0.0
O1231 O 0.16163 0.4008 0.82519 0.0
H1232 H 0.18269 0.43324 0.92378 0.0
H1233 H 0.17779 0.46665 0.95602 0.0
H1234 H 0.09578 0.50199 0.92824 0.0
H1235 H 0.10124 0.4688 0.89584 0.0
H1236 H 0.11242 0.38626 0.75359 0.0
H1237 H 0.12578 0.38476 0.71396 0.0
H1238 H 0.04454 0.3357 0.70009 0.0
H1239 H 0.03136 0.33753 0.73984 0.0
Nd1240 Nd 0.34207 0.38434 0.60066 0.0
Nd1241 Nd 0.36945 0.34475 0.56551 0.0
C1242 C 0.32584 0.41112 0.63871 0.0
C1243 C 0.30491 0.40648 0.65795 0.0
C1244 C 0.31607 0.40441 0.67991 0.0
C1245 C 0.2966 0.40077 0.69825 0.0
C1246 C 0.26535 0.39912 0.69514 0.0
C1247 C 0.25429 0.40158 0.67311 0.0
C1248 C 0.27371 0.40513 0.65484 0.0
C1249 C 0.30058 0.36235 0.57103 0.0
C1250 C 0.35702 0.31249 0.6119 0.0
C1251 C 0.38591 0.31623 0.52855 0.0
C1252 C 0.38785 0.32067 0.50419 0.0
C1253 C 0.37239 0.34385 0.49335 0.0
C1254 C 0.37529 0.3478 0.47017 0.0
C1255 C 0.39343 0.32839 0.45749 0.0
C1256 C 0.40882 0.30528 0.46853 0.0
C1257 C 0.40611 0.30154 0.49163 0.0
C1258 C 0.41008 0.36765 0.59581 0.0
C1259 C 0.35792 0.41518 0.55364 0.0
O1260 O 0.34895 0.3933 0.63707 0.0
O1261 O 0.31422 0.41728 0.6192 0.0
O1262 O 0.29841 0.38798 0.58083 0.0
O1263 O 0.32237 0.3475 0.57875 0.0
O1264 O 0.35232 0.33994 0.61939 0.0
O1265 O 0.36029 0.3071 0.5904 0.0
O1266 O 0.35916 0.31409 0.53734 0.0
O1267 O 0.40424 0.33201 0.54078 0.0
O1268 O 0.41062 0.34053 0.58822 0.0
O1269 O 0.38913 0.38251 0.58687 0.0
O1270 O 0.35757 0.38743 0.54625 0.0
O1271 O 0.35706 0.42079 0.57541 0.0
H1272 H 0.33997 0.40558 0.68291 0.0
H1273 H 0.30612 0.39873 0.71482 0.0
H1274 H 0.23043 0.40105 0.66991 0.0
H1275 H 0.26416 0.40692 0.63826 0.0
H1276 H 0.35804 0.35875 0.50277 0.0
H1277 H 0.36297 0.36565 0.46212 0.0
H1278 H 0.42324 0.29019 0.45931 0.0
H1279 H 0.41836 0.28365 0.49971 0.0
H1280 H 0.15641 0.12805 0.25909 0.0
H1281 H 0.22027 0.10078 0.30917 0.0
H1282 H 0.25959 0.09835 0.28046 0.0
H1283 H 0.27546 0.10304 0.24066 0.0
H1284 H 0.21018 0.12993 0.19136 0.0
H1285 H 0.17197 0.13352 0.22027 0.0
C1286 C 0.17888 0.12151 0.26388 0.0
C1287 C 0.18517 0.11441 0.28639 0.0
C1288 C 0.20124 0.12013 0.24732 0.0
C1289 C 0.21466 0.10639 0.29207 0.0
C1290 C 0.23715 0.10492 0.2756 0.0
C1291 C 0.25287 0.10961 0.23623 0.0
C1292 C 0.24597 0.11636 0.21369 0.0
C1293 C 0.23066 0.11154 0.25309 0.0
C1294 C 0.2165 0.12511 0.20846 0.0
C1295 C 0.19447 0.12697 0.22501 0.0
H1296 H 0.16433 0.02738 0.48802 0.0
H1297 H 0.11867 0.96511 0.44463 0.0
H1298 H 0.1147 0.9295 0.47515 0.0
H1299 H 0.12494 0.9151 0.51356 0.0
H1300 H 0.17035 0.97596 0.55801 0.0
H1301 H 0.17284 0.01325 0.5279 0.0
C1302 C 0.15323 0.00616 0.48529 0.0
C1303 C 0.14221 0.99899 0.46373 0.0
C1304 C 0.15082 0.9855 0.50316 0.0
C1305 C 0.12804 0.97118 0.4607 0.0
C1306 C 0.12553 0.95078 0.47825 0.0
C1307 C 0.13545 0.93649 0.51684 0.0
C1308 C 0.14768 0.94246 0.53815 0.0
C1309 C 0.13707 0.95755 0.49945 0.0
C1310 C 0.16069 0.97064 0.5419 0.0
C1311 C 0.16225 0.99193 0.52459 0.0
H1312 H 0.35158 0.89329 0.75978 0.0
H1313 H 0.28731 0.91223 0.81186 0.0
H1314 H 0.24783 0.91746 0.78335 0.0
H1315 H 0.23211 0.91757 0.74307 0.0
H1316 H 0.29846 0.8982 0.69246 0.0
H1317 H 0.33655 0.89249 0.72109 0.0
C1318 C 0.32899 0.89856 0.76519 0.0
C1319 C 0.32263 0.9024 0.78817 0.0
C1320 C 0.30671 0.90165 0.74883 0.0
C1321 C 0.293 0.90911 0.79441 0.0
C1322 C 0.27043 0.91215 0.77806 0.0
C1323 C 0.25487 0.91195 0.73835 0.0
C1324 C 0.2623 0.90875 0.71542 0.0
C1325 C 0.27705 0.90857 0.75513 0.0
C1326 C 0.29203 0.90152 0.70975 0.0
C1327 C 0.31389 0.89802 0.72617 0.0
H1328 H 0.35478 0.98361 0.98938 0.0
H1329 H 0.39482 0.04823 0.94481 0.0
H1330 H 0.39727 0.08443 0.97502 0.0
H1331 H 0.38693 0.09871 1.01342 0.0
H1332 H 0.34793 0.03532 0.05927 0.0
H1333 H 0.34692 0.99752 0.0294 0.0
C1334 C 0.36437 0.00547 0.98633 0.0
C1335 C 0.37413 0.01314 0.96453 0.0
C1336 C 0.36601 0.02644 1.00404 0.0
C1337 C 0.38639 0.04174 0.96107 0.0
C1338 C 0.38803 0.0625 0.97845 0.0
C1339 C 0.37823 0.07661 0.01706 0.0
C1340 C 0.36729 0.07003 0.03865 0.0
C1341 C 0.37762 0.05523 0.99987 0.0
C1342 C 0.35654 0.04107 0.0429 0.0
C1343 C 0.35584 0.01949 0.02575 0.0
H1344 H 0.28106 0.91816 0.28867 0.0
H1345 H 0.23231 0.8561 0.33034 0.0
H1346 H 0.19657 0.84759 0.30039 0.0
H1347 H 0.17722 0.85945 0.26346 0.0
H1348 H 0.22332 0.92288 0.22148 0.0
H1349 H 0.26218 0.92866 0.25022 0.0
C1350 C 0.26265 0.90273 0.29119 0.0
C1351 C 0.25972 0.88769 0.31191 0.0
C1352 C 0.24169 0.89805 0.27377 0.0
C1353 C 0.23572 0.86761 0.31462 0.0
C1354 C 0.21503 0.86284 0.29749 0.0
C1355 C 0.19584 0.87444 0.26037 0.0
C1356 C 0.19708 0.89082 0.24023 0.0
C1357 C 0.21761 0.87811 0.27712 0.0
C1358 C 0.22173 0.90981 0.23666 0.0
C1359 C 0.24384 0.91333 0.25323 0.0
H1360 H 0.37721 0.90841 0.52162 0.0
H1361 H 0.35672 0.97458 0.47143 0.0
H1362 H 0.3581 0.0138 0.50015 0.0
H1363 H 0.36366 0.02895 0.54003 0.0
H1364 H 0.38328 0.96132 0.5894 0.0
H1365 H 0.38388 0.92322 0.56041 0.0
C1366 C 0.3731 0.9314 0.51675 0.0
C1367 C 0.36673 0.93836 0.49421 0.0
C1368 C 0.37379 0.95368 0.53332 0.0
C1369 C 0.36174 0.96843 0.48852 0.0
C1370 C 0.36242 0.99088 0.50501 0.0
C1371 C 0.36802 0.00588 0.54446 0.0
C1372 C 0.37358 0.99826 0.56706 0.0
C1373 C 0.36814 0.98373 0.52755 0.0
C1374 C 0.37947 0.96816 0.57227 0.0
C1375 C 0.37959 0.94621 0.55567 0.0
H1376 H 0.23322 0.12412 0.78767 0.0
H1377 H 0.29238 0.07922 0.83367 0.0
H1378 H 0.33132 0.07689 0.8051 0.0
H1379 H 0.34938 0.0885 0.76759 0.0
H1380 H 0.29087 0.13109 0.72001 0.0
H1381 H 0.25084 0.13297 0.74832 0.0
C1382 C 0.25464 0.1138 0.79133 0.0
C1383 C 0.25987 0.1019 0.81287 0.0
C1384 C 0.27701 0.11197 0.77448 0.0
C1385 C 0.28768 0.0884 0.81728 0.0
C1386 C 0.31001 0.08709 0.80094 0.0
C1387 C 0.32781 0.09809 0.76328 0.0
C1388 C 0.32327 0.10983 0.74167 0.0
C1389 C 0.30501 0.09888 0.77955 0.0
C1390 C 0.295 0.12176 0.73643 0.0
C1391 C 0.27217 0.12302 0.75271 0.0
H1392 H 0.17634 0.98987 0.04521 0.0
H1393 H 0.11207 0.04081 0.08356 0.0
H1394 H 0.10483 0.07451 0.05219 0.0
H1395 H 0.1174 0.0908 1.01454 0.0
H1396 H 0.18172 0.04166 0.97529 0.0
H1397 H 0.18729 0.00536 1.0059 0.0
C1398 C 0.16049 0.00811 0.04663 0.0
C1399 C 0.14516 0.01284 0.06709 0.0
C1400 C 0.15619 0.02764 0.02825 0.0
C1401 C 0.12481 0.03683 0.06843 0.0
C1402 C 0.1204 0.05607 0.05036 0.0
C1403 C 0.13272 0.07218 1.01257 0.0
C1404 C 0.14937 0.06925 0.99263 0.0
C1405 C 0.13618 0.05192 0.03033 0.0
C1406 C 0.16851 0.04448 0.99033 0.0
C1407 C 0.17187 0.02386 1.00796 0.0
H1408 H 0.85393 0.89122 0.77381 0.0
H1409 H 0.7855 0.90559 0.72411 0.0
H1410 H 0.7471 0.90516 0.75367 0.0
H1411 H 0.73341 0.90228 0.79426 0.0
H1412 H 0.80367 0.88791 0.84268 0.0
H1413 H 0.84081 0.88705 0.81296 0.0
C1414 C 0.83068 0.89439 0.76923 0.0
C1415 C 0.82282 0.89871 0.74661 0.0
C1416 C 0.80896 0.89426 0.78623 0.0
C1417 C 0.79234 0.90229 0.7413 0.0
C1418 C 0.77037 0.90209 0.75825 0.0
C1419 C 0.75682 0.89873 0.79826 0.0
C1420 C 0.76562 0.89555 0.82088 0.0
C1421 C 0.77843 0.89828 0.78087 0.0
C1422 C 0.79615 0.89105 0.82563 0.0
C1423 C 0.81749 0.89039 0.80858 0.0
H1424 H 0.8315 0.04444 0.48902 0.0
H1425 H 0.91055 0.09213 0.50979 0.0
H1426 H 0.91566 0.05965 0.54229 0.0
H1427 H 0.89608 0.01976 0.56636 0.0
H1428 H 0.81546 0.9733 0.54713 0.0
H1429 H 0.81288 1.00257 0.51275 0.0
C1430 C 0.85025 0.04711 0.50036 0.0
C1431 C 0.87089 0.07045 0.49675 0.0
C1432 C 0.85262 0.02868 0.51959 0.0
C1433 C 0.89456 0.07416 0.51202 0.0
C1434 C 0.89739 0.05569 0.53074 0.0
C1435 C 0.87784 0.01601 0.55474 0.0
C1436 C 0.85601 0.99417 0.55964 0.0
C1437 C 0.87622 0.03328 0.535 0.0
C1438 C 0.8329 0.98955 0.54393 0.0
C1439 C 0.83126 0.00648 0.5242 0.0
H1440 H 0.66635 0.13509 0.27091 0.0
H1441 H 0.72514 0.08996 0.22475 0.0
H1442 H 0.76389 0.08704 0.25385 0.0
H1443 H 0.78005 0.09543 0.29326 0.0
H1444 H 0.71943 0.13973 0.33882 0.0
H1445 H 0.68248 0.1446 0.30919 0.0
C1446 C 0.68755 0.12444 0.26714 0.0
C1447 C 0.69255 0.11239 0.24567 0.0
C1448 C 0.70946 0.12264 0.28397 0.0
C1449 C 0.72059 0.09946 0.24106 0.0
C1450 C 0.7427 0.09764 0.25778 0.0
C1451 C 0.75876 0.10615 0.29671 0.0
C1452 C 0.75281 0.11732 0.31841 0.0
C1453 C 0.73724 0.1088 0.27944 0.0
C1454 C 0.72508 0.13137 0.32235 0.0
C1455 C 0.70373 0.13401 0.3054 0.0
H1456 H 0.65881 0.90113 0.0253 0.0
H1457 H 0.64565 0.96881 0.97495 0.0
H1458 H 0.64625 0.00756 1.00414 0.0
H1459 H 0.65017 0.02201 0.04448 0.0
H1460 H 0.66208 0.95254 0.09378 0.0
H1461 H 0.66201 0.91488 0.0645 0.0
C1462 C 0.65577 0.9243 0.02054 0.0
C1463 C 0.65185 0.93184 0.9978 0.0
C1464 C 0.65591 0.94627 0.03736 0.0
C1465 C 0.64868 0.9622 0.99222 0.0
C1466 C 0.64892 0.98438 1.00897 0.0
C1467 C 0.65253 0.99862 0.04882 0.0
C1468 C 0.65643 0.99038 0.07151 0.0
C1469 C 0.65237 0.97668 0.03168 0.0
C1470 C 0.65963 0.95984 0.07662 0.0
C1471 C 0.65943 0.93814 0.05983 0.0
H1472 H 0.84066 0.12725 0.76501 0.0
H1473 H 0.78028 0.08692 0.81247 0.0
H1474 H 0.74104 0.08501 0.78363 0.0
H1475 H 0.72457 0.09348 0.74417 0.0
H1476 H 0.78703 0.13282 0.69748 0.0
H1477 H 0.82459 0.13626 0.72674 0.0
C1478 C 0.81902 0.11782 0.76916 0.0
C1479 C 0.81373 0.10688 0.79096 0.0
C1480 C 0.79681 0.1166 0.7525 0.0
C1481 C 0.78513 0.09552 0.79594 0.0
C1482 C 0.76271 0.0943 0.77936 0.0
C1483 C 0.74642 0.10273 0.74036 0.0
C1484 C 0.75259 0.11308 0.71843 0.0
C1485 C 0.76839 0.1045 0.75745 0.0
C1486 C 0.78112 0.1252 0.71409 0.0
C1487 C 0.80285 0.12698 0.73084 0.0
H1488 H 0.63227 0.10126 0.51056 0.0
H1489 H 0.64932 0.03548 0.56172 0.0
H1490 H 0.64813 0.99585 0.53323 0.0
H1491 H 0.64335 0.9802 0.49326 0.0
H1492 H 0.62682 0.04772 0.44317 0.0
H1493 H 0.62655 0.08616 0.47186 0.0
C1494 C 0.6357 0.0783 0.51572 0.0
C1495 C 0.64102 0.07158 0.53846 0.0
C1496 C 0.63503 0.05581 0.49932 0.0
C1497 C 0.64514 0.04148 0.54447 0.0
C1498 C 0.64455 0.0188 0.52811 0.0
C1499 C 0.63972 1.00332 0.48861 0.0
C1500 C 0.63487 0.01078 0.46587 0.0
C1501 C 0.63973 0.02571 0.50539 0.0
C1502 C 0.63 0.04097 0.46038 0.0
C1503 C 0.63008 0.06313 0.47683 0.0
H1504 H 0.77454 0.89326 0.24364 0.0
H1505 H 0.70535 0.90018 0.19344 0.0
H1506 H 0.66733 0.90252 0.22239 0.0
H1507 H 0.65304 0.90254 0.26136 0.0
H1508 H 0.71988 0.89388 0.31299 0.0
H1509 H 0.75934 0.89256 0.28414 0.0
C1510 C 0.75113 0.89505 0.23905 0.0
C1511 C 0.74312 0.89693 0.21613 0.0
C1512 C 0.72887 0.8962 0.25605 0.0
C1513 C 0.71253 0.89935 0.21072 0.0
C1514 C 0.6906 0.90051 0.22733 0.0
C1515 C 0.67618 0.90019 0.26656 0.0
C1516 C 0.68324 0.89809 0.28955 0.0
C1517 C 0.69847 0.89905 0.24998 0.0
C1518 C 0.7136 0.89558 0.29555 0.0
C1519 C 0.73617 0.89469 0.27899 0.0
H1520 H 0.84017 0.01767 0.99241 0.0
H1521 H 0.894 0.96165 0.94934 0.0
H1522 H 0.90066 0.926 0.97953 0.0
H1523 H 0.89048 0.90962 0.01752 0.0
H1524 H 0.83695 0.96393 0.06167 0.0
H1525 H 0.83193 1.00182 0.03205 0.0
C1526 C 0.85364 0.99785 0.98968 0.0
C1527 C 0.86611 0.99236 0.96825 0.0
C1528 C 0.85769 0.9772 1.00741 0.0
C1529 C 0.88341 0.96635 0.96525 0.0
C1530 C 0.88751 0.94595 0.98265 0.0
C1531 C 0.87763 0.92971 0.02079 0.0
C1532 C 0.86382 0.93366 0.04182 0.0
C1533 C 0.87452 0.95097 1.00366 0.0
C1534 C 0.84792 0.96027 0.04575 0.0
C1535 C 0.84487 0.98183 0.02871 0.0
H1536 H 0.66593 0.63624 0.76558 0.0
H1537 H 0.72704 0.60137 0.81486 0.0
H1538 H 0.76738 0.60113 0.78669 0.0
H1539 H 0.78444 0.60887 0.74711 0.0
H1540 H 0.72101 0.64292 0.6989 0.0
H1541 H 0.68264 0.64534 0.72761 0.0
C1542 C 0.68807 0.62868 0.77039 0.0
C1543 C 0.69322 0.61871 0.79247 0.0
C1544 C 0.71084 0.62835 0.75413 0.0
C1545 C 0.72231 0.60934 0.79814 0.0
C1546 C 0.74534 0.60902 0.78193 0.0
C1547 C 0.76223 0.61685 0.74289 0.0
C1548 C 0.75599 0.62594 0.72063 0.0
C1549 C 0.73977 0.61811 0.75971 0.0
C1550 C 0.72697 0.63635 0.71574 0.0
C1551 C 0.70479 0.63756 0.73219 0.0
H1552 H 0.66368 0.52955 0.99441 0.0
H1553 H 0.62025 0.46968 0.94794 0.0
H1554 H 0.61734 0.43145 0.97666 0.0
H1555 H 0.62758 0.41419 1.01431 0.0
H1556 H 0.67201 0.47175 0.06168 0.0
H1557 H 0.67377 0.51164 0.03337 0.0
C1558 C 0.6536 0.50814 0.99054 0.0
C1559 C 0.64191 0.50292 0.96883 0.0
C1560 C 0.65211 0.48577 1.00734 0.0
C1561 C 0.62883 0.47491 0.96441 0.0
C1562 C 0.62735 0.4528 0.98086 0.0
C1563 C 0.63784 0.43536 0.01864 0.0
C1564 C 0.64992 0.43963 0.04026 0.0
C1565 C 0.63895 0.45793 1.0023 0.0
C1566 C 0.66251 0.46764 0.04532 0.0
C1567 C 0.66361 0.49044 0.02904 0.0
H1568 H 0.7281 0.41172 0.24426 0.0
H1569 H 0.78937 0.36688 0.19944 0.0
H1570 H 0.82529 0.36117 0.22961 0.0
H1571 H 0.8406 0.37028 0.26796 0.0
H1572 H 0.78186 0.41671 0.31348 0.0
H1573 H 0.74361 0.42001 0.28395 0.0
C1574 C 0.74934 0.40078 0.24107 0.0
C1575 C 0.75568 0.38957 0.2194 0.0
C1576 C 0.77038 0.39774 0.25866 0.0
C1577 C 0.78336 0.37524 0.21583 0.0
C1578 C 0.80414 0.37212 0.23311 0.0
C1579 C 0.81944 0.38116 0.27158 0.0
C1580 C 0.81432 0.39343 0.293 0.0
C1581 C 0.79799 0.38342 0.25449 0.0
C1582 C 0.78644 0.4069 0.29728 0.0
C1583 C 0.76467 0.409 0.28029 0.0
H1584 H 0.88975 0.59364 0.51735 0.0
H1585 H 0.83841 0.53994 0.56326 0.0
H1586 H 0.83536 0.49997 0.53498 0.0
H1587 H 0.84477 0.48187 0.49589 0.0
H1588 H 0.89518 0.53808 0.4508 0.0
H1589 H 0.90084 0.57537 0.47999 0.0
C1590 C 0.87796 0.57314 0.52135 0.0
C1591 C 0.86412 0.57 0.54246 0.0
C1592 C 0.87595 0.55069 0.50497 0.0
C1593 C 0.84944 0.54299 0.54729 0.0
C1594 C 0.84747 0.52025 0.53099 0.0
C1595 C 0.85704 0.50225 0.49247 0.0
C1596 C 0.86967 0.50681 0.47095 0.0
C1597 C 0.86018 0.52408 0.50954 0.0
C1598 C 0.88567 0.53341 0.46709 0.0
C1599 C 0.88878 0.55498 0.48381 0.0
H1600 H 0.65937 0.37872 0.76662 0.0
H1601 H 0.72028 0.41937 0.71968 0.0
H1602 H 0.75906 0.42154 0.74902 0.0
H1603 H 0.77422 0.41453 0.78917 0.0
H1604 H 0.7112 0.37349 0.83464 0.0
H1605 H 0.67464 0.36948 0.80481 0.0
C1606 C 0.68113 0.38808 0.7626 0.0
C1607 C 0.68668 0.39915 0.74087 0.0
C1608 C 0.7029 0.38954 0.77951 0.0
C1609 C 0.71531 0.4106 0.73614 0.0
C1610 C 0.7374 0.41201 0.75302 0.0
C1611 C 0.75261 0.40444 0.7925 0.0
C1612 C 0.74554 0.39487 0.81451 0.0
C1613 C 0.7313 0.40194 0.77495 0.0
C1614 C 0.71726 0.38185 0.81826 0.0
C1615 C 0.69629 0.37928 0.80109 0.0
H1616 H 0.86656 0.52853 0.03768 0.0
H1617 H 0.88083 0.46011 0.08747 0.0
H1618 H 0.87857 0.4218 0.05873 0.0
H1619 H 0.87144 0.40712 0.02004 0.0
H1620 H 0.85696 0.47386 0.96916 0.0
H1621 H 0.86031 0.51328 0.99774 0.0
C1622 C 0.86915 0.50524 0.04224 0.0
C1623 C 0.87412 0.49747 0.06491 0.0
C1624 C 0.86772 0.48294 0.02543 0.0
C1625 C 0.8776 0.46705 0.0703 0.0
C1626 C 0.87608 0.44498 0.05383 0.0
C1627 C 0.86904 0.43026 1.01498 0.0
C1628 C 0.86381 0.43734 0.9923 0.0
C1629 C 0.87105 0.45262 0.03142 0.0
C1630 C 0.861 0.46762 0.98638 0.0
C1631 C 0.86286 0.49017 1.00278 0.0
H1632 H 0.86512 0.60909 0.27099 0.0
H1633 H 0.79858 0.60557 0.21883 0.0
H1634 H 0.7588 0.60449 0.24738 0.0
H1635 H 0.7432 0.60358 0.2877 0.0
H1636 H 0.81176 0.6088 0.33852 0.0
H1637 H 0.85024 0.61007 0.30985 0.0
C1638 C 0.84198 0.60836 0.2656 0.0
C1639 C 0.8351 0.60757 0.24255 0.0
C1640 C 0.81942 0.60788 0.28202 0.0
C1641 C 0.80474 0.6063 0.23632 0.0
C1642 C 0.78196 0.60566 0.25271 0.0
C1643 C 0.76653 0.60529 0.29252 0.0
C1644 C 0.7743 0.60557 0.31552 0.0
C1645 C 0.78902 0.60637 0.2757 0.0
C1646 C 0.80483 0.60773 0.32119 0.0
C1647 C 0.82701 0.60873 0.30474 0.0
H1648 H 0.65305 0.47519 0.5363 0.0
H1649 H 0.62003 0.54114 0.58302 0.0
H1650 H 0.61909 0.57842 0.55351 0.0
H1651 H 0.62921 0.5933 0.51524 0.0
H1652 H 0.66361 0.52946 0.46768 0.0
H1653 H 0.66217 0.4904 0.49665 0.0
C1654 C 0.64568 0.49772 0.54004 0.0
C1655 C 0.63641 0.50504 0.56206 0.0
C1656 C 0.64542 0.51949 0.52284 0.0
C1657 C 0.62672 0.53443 0.56635 0.0
C1658 C 0.6264 0.55596 0.54946 0.0
C1659 C 0.63646 0.57086 0.51104 0.0
C1660 C 0.64677 0.56451 0.48922 0.0
C1661 C 0.63587 0.54882 0.52775 0.0
C1662 C 0.65548 0.53507 0.48422 0.0
C1663 C 0.65483 0.51278 0.50087 0.0
H1664 H 0.25694 0.36043 0.30447 0.0
H1665 H 0.24267 0.45567 0.30084 0.0
H1666 H 0.27315 0.45821 0.26703 0.0
H1667 H 0.30805 0.43416 0.24014 0.0
H1668 H 0.32459 0.33963 0.24538 0.0
H1669 H 0.28919 0.33604 0.27646 0.0
C1670 C 0.26044 0.38178 0.29632 0.0
C1671 C 0.24734 0.40779 0.30547 0.0
C1672 C 0.27846 0.38322 0.27691 0.0
C1673 C 0.25196 0.43512 0.29425 0.0
C1674 C 0.26963 0.43667 0.27488 0.0
C1675 C 0.30307 0.41267 0.24763 0.0
C1676 C 0.31847 0.38706 0.24011 0.0
C1677 C 0.28338 0.41095 0.26617 0.0
C1678 C 0.31262 0.35954 0.25057 0.0
C1679 C 0.2926 0.35754 0.26853 0.0
H1680 H 0.33459 0.48887 0.04602 0.0
H1681 H 0.40563 0.53562 0.08034 0.0
H1682 H 0.41235 0.56822 0.04825 0.0
H1683 H 0.39685 0.58543 1.01129 0.0
H1684 H 0.32634 0.53992 0.976 0.0
H1685 H 0.32139 0.50432 1.00712 0.0
C1686 C 0.35177 0.50595 0.04641 0.0
C1687 C 0.36915 0.50993 0.06601 0.0
C1688 C 0.35575 0.52484 0.02761 0.0
C1689 C 0.39127 0.53236 0.06597 0.0
C1690 C 0.39534 0.55098 0.04748 0.0
C1691 C 0.3804 0.56772 1.01035 0.0
C1692 C 0.36177 0.56565 0.9914 0.0
C1693 C 0.37744 0.54777 0.02839 0.0
C1694 C 0.3411 0.54201 0.99027 0.0
C1695 C 0.3381 0.52182 1.0082 0.0
H1696 H 0.15693 0.6195 0.77088 0.0
H1697 H 0.22048 0.59832 0.71885 0.0
H1698 H 0.2602 0.5936 0.74716 0.0
H1699 H 0.2765 0.59453 0.78725 0.0
H1700 H 0.21131 0.617 0.83799 0.0
H1701 H 0.17281 0.62186 0.80959 0.0
C1702 C 0.17943 0.61394 0.76548 0.0
C1703 C 0.18546 0.6093 0.74252 0.0
C1704 C 0.20199 0.61128 0.78178 0.0
C1705 C 0.21499 0.60211 0.73626 0.0
C1706 C 0.23774 0.59936 0.75252 0.0
C1707 C 0.25394 0.60071 0.79209 0.0
C1708 C 0.24702 0.60489 0.81505 0.0
C1709 C 0.2315 0.60379 0.77541 0.0
C1710 C 0.21745 0.61282 0.82075 0.0
C1711 C 0.19531 0.61589 0.80442 0.0
H1712 H 0.15173 0.53184 0.53885 0.0
H1713 H 0.124 0.46467 0.58639 0.0
H1714 H 0.12338 0.42725 0.55692 0.0
H1715 H 0.13205 0.41283 0.5183 0.0
H1716 H 0.16026 0.47844 0.46983 0.0
H1717 H 0.15944 0.5171 0.49904 0.0
C1718 C 0.14559 0.50901 0.54277 0.0
C1719 C 0.13773 0.50135 0.56499 0.0
C1720 C 0.14543 0.48724 0.52559 0.0
C1721 C 0.12959 0.47159 0.56955 0.0
C1722 C 0.12945 0.45 0.55268 0.0
C1723 C 0.13797 0.43556 0.51391 0.0
C1724 C 0.14632 0.44253 0.49173 0.0
C1725 C 0.13747 0.45751 0.53071 0.0
C1726 C 0.15371 0.47231 0.48665 0.0
C1727 C 0.15331 0.49442 0.50341 0.0
H1728 H 0.23617 0.61204 0.23934 0.0
H1729 H 0.30527 0.59391 0.19062 0.0
H1730 H 0.34301 0.59444 0.21989 0.0
H1731 H 0.35694 0.59983 0.25898 0.0
H1732 H 0.28957 0.61911 0.30866 0.0
H1733 H 0.25076 0.61793 0.27951 0.0
C1734 C 0.2595 0.60839 0.23512 0.0
C1735 C 0.26761 0.60265 0.21262 0.0
C1736 C 0.28148 0.60875 0.25226 0.0
C1737 C 0.29807 0.59781 0.20766 0.0
C1738 C 0.31981 0.59825 0.22444 0.0
C1739 C 0.33382 0.60406 0.26358 0.0
C1740 C 0.3264 0.60992 0.28612 0.0
C1741 C 0.31181 0.60361 0.24676 0.0
C1742 C 0.29609 0.61457 0.29155 0.0
C1743 C 0.27388 0.61402 0.27481 0.0
H1744 H 0.14977 0.48005 0.98971 0.0
H1745 H 0.12048 0.54595 0.94172 0.0
H1746 H 0.11988 0.58396 0.97076 0.0
H1747 H 0.12923 0.59931 1.00913 0.0
H1748 H 0.15971 0.53515 0.05784 0.0
H1749 H 0.15799 0.4957 0.02927 0.0
C1750 C 0.14327 0.50272 0.9856 0.0
C1751 C 0.13501 0.50987 0.96337 0.0
C1752 C 0.14315 0.52485 1.00253 0.0
C1753 C 0.1264 0.53943 0.95858 0.0
C1754 C 0.12626 0.56136 0.9752 0.0
C1755 C 0.13558 0.57674 1.01365 0.0
C1756 C 0.1449 0.57042 0.0357 0.0
C1757 C 0.13479 0.55439 0.99715 0.0
C1758 C 0.15242 0.54078 0.04111 0.0
C1759 C 0.15158 0.51823 0.02469 0.0
H1760 H 0.26809 0.42161 0.73839 0.0
H1761 H 0.2148 0.36464 0.69576 0.0
H1762 H 0.1786 0.35784 0.72567 0.0
H1763 H 0.16093 0.36871 0.76339 0.0
H1764 H 0.21264 0.42545 0.80689 0.0
H1765 H 0.25105 0.43063 0.77761 0.0
C1766 C 0.24875 0.40743 0.73569 0.0
C1767 C 0.24422 0.3941 0.71445 0.0
C1768 C 0.22776 0.40333 0.75324 0.0
C1769 C 0.21878 0.3759 0.7115 0.0
C1770 C 0.19805 0.37174 0.72874 0.0
C1771 C 0.18052 0.38236 0.76654 0.0
C1772 C 0.18358 0.39701 0.7873 0.0
C1773 C 0.20211 0.38557 0.74955 0.0
C1774 C 0.20965 0.41384 0.79116 0.0
C1775 C 0.23152 0.41698 0.77431 0.0
H1776 H 0.37365 0.40945 0.51017 0.0
H1777 H 0.34588 0.4757 0.55826 0.0
H1778 H 0.34568 0.51384 0.52866 0.0
H1779 H 0.35138 0.52767 0.48843 0.0
H1780 H 0.37955 0.45993 0.44141 0.0
H1781 H 0.38099 0.42308 0.47122 0.0
C1782 C 0.36737 0.43217 0.51432 0.0
C1783 C 0.35942 0.43947 0.5365 0.0
C1784 C 0.36713 0.45375 0.49726 0.0
C1785 C 0.35206 0.46932 0.54141 0.0
C1786 C 0.35185 0.49112 0.52443 0.0
C1787 C 0.35812 0.50493 0.48473 0.0
C1788 C 0.36494 0.49671 0.46242 0.0
C1789 C 0.35908 0.48354 0.50218 0.0
C1790 C 0.37348 0.46697 0.45813 0.0
C1791 C 0.37453 0.44581 0.47526 0.0
H1792 H 0.1652 0.2539 0.42216 0.0
H1793 H 0.12882 0.31929 0.37666 0.0
H1794 H 0.11443 0.2798 0.35077 0.0
H1795 H 0.10907 0.22656 0.342 0.0
H1796 H 0.14913 0.16067 0.38502 0.0
H1797 H 0.16541 0.2002 0.4108 0.0
C1798 C 0.15445 0.25942 0.40645 0.0
C1799 C 0.14799 0.28953 0.40142 0.0
C1800 C 0.14677 0.23648 0.39124 0.0
C1801 C 0.13426 0.29639 0.38091 0.0
C1802 C 0.12584 0.27378 0.36611 0.0
C1803 C 0.12169 0.22091 0.35691 0.0
C1804 C 0.1276 0.19076 0.36179 0.0
C1805 C 0.13155 0.24376 0.37124 0.0
C1806 C 0.14428 0.18371 0.38096 0.0
C1807 C 0.15346 0.20634 0.39573 0.0
H1808 H 0.04204 0.88698 0.59142 0.0
H1809 H 0.10411 0.87124 0.64511 0.0
H1810 H 0.065 0.88276 0.67262 0.0
H1811 H 0.01183 0.89377 0.68138 0.0
H1812 H 0.94994 0.90936 0.62717 0.0
H1813 H 0.99001 0.90173 0.60013 0.0
C1814 C 0.04707 0.88675 0.60916 0.0
C1815 C 0.07606 0.87892 0.61627 0.0
C1816 C 0.0243 0.89309 0.62485 0.0
C1817 C 0.08221 0.878 0.63926 0.0
C1818 C 0.05971 0.88428 0.65499 0.0
C1819 C 0.00713 0.89584 0.66367 0.0
C1820 C 0.97762 0.90201 0.6565 0.0
C1821 C 0.03047 0.89138 0.648 0.0
C1822 C 0.97223 0.90461 0.63338 0.0
C1823 C 0.9952 0.90018 0.61779 0.0
H1824 H 0.40187 0.78378 0.84332 0.0
H1825 H 0.35903 0.84917 0.88536 0.0
H1826 H 0.34424 0.80951 0.9117 0.0
H1827 H 0.34613 0.75573 0.9236 0.0
H1828 H 0.38626 0.69134 0.87888 0.0
H1829 H 0.39936 0.73091 0.85289 0.0
C1830 C 0.38901 0.78935 0.85815 0.0
C1831 C 0.38175 0.81937 0.86249 0.0
C1832 C 0.38023 0.76649 0.87284 0.0
C1833 C 0.36481 0.82621 0.88162 0.0
C1834 C 0.35653 0.80352 0.89673 0.0
C1835 C 0.35753 0.75045 0.90808 0.0
C1836 C 0.36525 0.72048 0.9033 0.0
C1837 C 0.36452 0.77352 0.89269 0.0
C1838 C 0.37981 0.71403 0.883 0.0
C1839 C 0.38747 0.73671 0.8681 0.0
H1840 H 0.47493 0.15545 0.09733 0.0
H1841 H 0.41077 0.10508 0.13563 0.0
H1842 H 0.45031 0.09043 0.16204 0.0
H1843 H 0.50342 0.0942 0.17514 0.0
H1844 H 0.56752 0.14068 0.13388 0.0
H1845 H 0.52796 0.15449 0.10775 0.0
C1846 C 0.46963 0.14104 0.11137 0.0
C1847 C 0.43988 0.1317 0.11472 0.0
C1848 C 0.49258 0.1321 0.126 0.0
C1849 C 0.43345 0.11267 0.13275 0.0
C1850 C 0.45608 0.10439 0.14788 0.0
C1851 C 0.50863 0.10713 0.16031 0.0
C1852 C 0.53836 0.11652 0.15649 0.0
C1853 C 0.48573 0.11432 0.14486 0.0
C1854 C 0.54489 0.13302 0.13712 0.0
C1855 C 0.52225 0.14105 0.1222 0.0
H1856 H 0.13772 0.78374 0.19156 0.0
H1857 H 0.12598 0.84957 0.13983 0.0
H1858 H 0.13825 0.81178 0.11128 0.0
H1859 H 0.1483 0.75857 0.10124 0.0
H1860 H 0.16136 0.69426 0.15424 0.0
H1861 H 0.15281 0.73293 0.18201 0.0
C1862 C 0.13823 0.78995 0.17403 0.0
C1863 C 0.13079 0.81929 0.16775 0.0
C1864 C 0.14535 0.76825 0.15793 0.0
C1865 C 0.13181 0.82714 0.14505 0.0
C1866 C 0.1386 0.80545 0.12876 0.0
C1867 C 0.14957 0.75308 0.11886 0.0
C1868 C 0.1552 0.72327 0.1255 0.0
C1869 C 0.14479 0.7757 0.135 0.0
C1870 C 0.15705 0.71679 0.14847 0.0
C1871 C 0.15206 0.73894 0.16447 0.0
H1872 H 0.5424 0.89643 0.40362 0.0
H1873 H 0.49135 0.89247 0.34252 0.0
H1874 H 0.4451 0.88664 0.36389 0.0
H1875 H 0.41909 0.87866 0.40016 0.0
H1876 H 0.47103 0.87922 0.46083 0.0
H1877 H 0.51637 0.89071 0.43967 0.0
C1878 C 0.52114 0.89469 0.39496 0.0
C1879 C 0.52061 0.89485 0.37141 0.0
C1880 C 0.49449 0.89065 0.40739 0.0
C1881 C 0.49268 0.89228 0.36059 0.0
C1882 C 0.46607 0.88894 0.37283 0.0
C1883 C 0.44023 0.88196 0.40872 0.0
C1884 C 0.4416 0.87834 0.43209 0.0
C1885 C 0.46667 0.88758 0.39627 0.0
C1886 C 0.46933 0.882 0.44288 0.0
C1887 C 0.49535 0.88846 0.43077 0.0
H1888 H 0.34362 0.25239 0.60936 0.0
H1889 H 0.38564 0.31856 0.65137 0.0
H1890 H 0.40165 0.27971 0.67728 0.0
H1891 H 0.40599 0.22675 0.68729 0.0
H1892 H 0.35988 0.16034 0.64824 0.0
H1893 H 0.34308 0.19916 0.62203 0.0
C1894 C 0.35601 0.25823 0.62431 0.0
C1895 C 0.3635 0.2884 0.62835 0.0
C1896 C 0.36456 0.23567 0.63962 0.0
C1897 C 0.37937 0.29564 0.6479 0.0
C1898 C 0.38871 0.27338 0.6627 0.0
C1899 C 0.39209 0.22079 0.67311 0.0
C1900 C 0.3846 0.19063 0.66948 0.0
C1901 C 0.38177 0.24332 0.65862 0.0
C1902 C 0.36613 0.18333 0.65129 0.0
C1903 C 0.35657 0.20556 0.63629 0.0
H1904 H 0.03586 0.14222 0.93925 0.0
H1905 H 0.10134 0.11676 0.88993 0.0
H1906 H 0.06097 0.10288 0.86388 0.0
H1907 H 0.00639 0.10115 0.85451 0.0
H1908 H 0.94199 0.12391 0.90563 0.0
H1909 H 0.98238 0.13555 0.93152 0.0
C1910 C 0.04128 0.13319 0.9229 0.0
C1911 C 0.07147 0.13047 0.91648 0.0
C1912 C 0.01803 0.125 0.90826 0.0
C1913 C 0.07824 0.11873 0.8953 0.0
C1914 C 0.05513 0.11105 0.88038 0.0
C1915 C 1.00127 0.10842 0.87137 0.0
C1916 C 0.97106 0.11178 0.87802 0.0
C1917 C 0.02485 0.11457 0.88653 0.0
C1918 C 0.96489 0.12096 0.90003 0.0
C1919 C 0.98803 0.12776 0.91488 0.0
H1920 H 0.92771 0.81523 0.65687 0.0
H1921 H 0.83946 0.82478 0.68511 0.0
H1922 H 0.82214 0.78124 0.66362 0.0
H1923 H 0.83289 0.73918 0.63714 0.0
H1924 H 0.92048 0.73371 0.60696 0.0
H1925 H 0.93727 0.77654 0.62881 0.0
C1926 C 0.90462 0.80787 0.65823 0.0
C1927 C 0.88496 0.82304 0.67267 0.0
C1928 C 0.89477 0.78331 0.64551 0.0
C1929 C 0.85502 0.81349 0.67406 0.0
C1930 C 0.84518 0.78849 0.66185 0.0
C1931 C 0.85559 0.74748 0.63542 0.0
C1932 C 0.8755 0.73317 0.62054 0.0
C1933 C 0.86494 0.77298 0.64762 0.0
C1934 C 0.90474 0.74437 0.61824 0.0
C1935 C 0.9144 0.76886 0.63075 0.0
H1936 H 0.99571 0.12388 0.35261 0.0
H1937 H 0.05957 0.1075 0.40541 0.0
H1938 H 0.02056 0.11435 0.43332 0.0
H1939 H 0.96873 0.12814 0.4433 0.0
H1940 H 0.90425 0.14339 0.39116 0.0
H1941 H 0.94261 0.13375 0.36266 0.0
C1942 C 1.00105 0.12154 0.3702 0.0
C1943 C 0.03081 0.11531 0.37671 0.0
C1944 C 0.97825 0.12536 0.38642 0.0
C1945 C 0.03705 0.11226 0.39969 0.0
C1946 C 0.01469 0.11625 0.4158 0.0
C1947 C 0.96305 0.12874 0.42568 0.0
C1948 C 0.9337 0.13613 0.41928 0.0
C1949 C 0.9853 0.12318 0.40942 0.0
C1950 C 0.92662 0.13736 0.39644 0.0
C1951 C 0.94864 0.13202 0.38015 0.0
H1952 H 0.68575 0.26778 0.13343 0.0
H1953 H 0.59478 0.28427 0.11265 0.0
H1954 H 0.57746 0.24144 0.13417 0.0
H1955 H 0.58753 0.19976 0.15927 0.0
H1956 H 0.67802 0.1801 0.17938 0.0
H1957 H 0.69628 0.22307 0.15759 0.0
C1958 C 0.6622 0.26188 0.13373 0.0
C1959 C 0.64147 0.27931 0.12163 0.0
C1960 C 0.65235 0.2365 0.14588 0.0
C1961 C 0.61108 0.27128 0.12188 0.0
C1962 C 0.60115 0.24674 0.13417 0.0
C1963 C 0.61131 0.20476 0.15881 0.0
C1964 C 0.63135 0.1869 0.17103 0.0
C1965 C 0.6215 0.22924 0.14624 0.0
C1966 C 0.66212 0.19347 0.17006 0.0
C1967 C 0.67252 0.21816 0.15771 0.0
H1968 H 0.4915 0.92759 0.88407 0.0
H1969 H 0.48107 0.83849 0.85772 0.0
H1970 H 0.52347 0.82119 0.87976 0.0
H1971 H 0.56289 0.83063 0.90697 0.0
H1972 H 0.57719 0.9196 0.93219 0.0
H1973 H 0.53451 0.9379 0.91 0.0
C1974 C 0.49864 0.90446 0.88326 0.0
C1975 C 0.48309 0.88425 0.8694 0.0
C1976 C 0.52387 0.8947 0.89563 0.0
C1977 C 0.49272 0.85442 0.86823 0.0
C1978 C 0.51697 0.84449 0.88083 0.0
C1979 C 0.5568 0.8541 0.90749 0.0
C1980 C 0.57298 0.8737 0.92126 0.0
C1981 C 0.53265 0.86434 0.89459 0.0
C1982 C 0.5651 0.9041 0.92161 0.0
C1983 C 0.54057 0.91449 0.90904 0.0
H1984 H 0.84424 0.24578 0.92714 0.0
H1985 H 0.86796 0.31154 0.8774 0.0
H1986 H 0.88023 0.27217 0.85096 0.0
H1987 H 0.88741 0.21898 0.84233 0.0
H1988 H 0.85916 0.15247 0.88974 0.0
H1989 H 0.84526 0.19177 0.91645 0.0
C1990 C 0.85179 0.25144 0.91044 0.0
C1991 C 0.85548 0.28176 0.90449 0.0
C1992 C 0.85808 0.22844 0.89482 0.0
C1993 C 0.86493 0.28857 0.88261 0.0
C1994 C 0.87208 0.26599 0.86739 0.0
C1995 C 0.87779 0.21312 0.8584 0.0
C1996 C 0.87449 0.18283 0.86412 0.0
C1997 C 0.86919 0.23588 0.87338 0.0
C1998 C 0.86182 0.17556 0.88491 0.0
C1999 C 0.85403 0.19811 0.90024 0.0
H2000 H 0.46414 0.11161 0.62906 0.0
H2001 H 0.51655 0.1192 0.68934 0.0
H2002 H 0.56211 0.12536 0.66715 0.0
H2003 H 0.58701 0.13216 0.6303 0.0
H2004 H 0.53357 0.12789 0.57044 0.0
H2005 H 0.489 0.11654 0.59256 0.0
C2006 C 0.48554 0.11426 0.63739 0.0
C2007 C 0.48667 0.11494 0.66093 0.0
C2008 C 0.51173 0.11841 0.62448 0.0
C2009 C 0.51477 0.11867 0.67129 0.0
C2010 C 0.54097 0.1222 0.65858 0.0
C2011 C 0.56571 0.12809 0.62214 0.0
C2012 C 0.56368 0.13054 0.59871 0.0
C2013 C 0.53974 0.12254 0.63512 0.0
C2014 C 0.53576 0.12596 0.58842 0.0
C2015 C 0.51019 0.11959 0.60108 0.0
H2016 H 0.60421 0.78208 0.34554 0.0
H2017 H 0.64904 0.84889 0.38502 0.0
H2018 H 0.66741 0.81 0.41058 0.0
H2019 H 0.66868 0.75643 0.42253 0.0
H2020 H 0.62779 0.69019 0.37992 0.0
H2021 H 0.61023 0.72915 0.35477 0.0
C2022 C 0.61815 0.78812 0.35969 0.0
C2023 C 0.62482 0.81836 0.36364 0.0
C2024 C 0.62939 0.7656 0.37376 0.0
C2025 C 0.64339 0.8258 0.38174 0.0
C2026 C 0.65386 0.80353 0.39636 0.0
C2027 C 0.65621 0.75062 0.4076 0.0
C2028 C 0.64954 0.72037 0.40317 0.0
C2029 C 0.64671 0.77329 0.3927 0.0
C2030 C 0.63351 0.71318 0.38367 0.0
C2031 C 0.62326 0.73549 0.3693 0.0
H2032 H 0.95932 0.9027 0.10037 0.0
H2033 H 0.92075 0.83643 0.14383 0.0
H2034 H 0.96013 0.84533 0.17154 0.0
H2035 H 0.00853 0.86812 0.18162 0.0
H2036 H 0.04926 0.9317 0.13671 0.0
H2037 H 0.00638 0.92785 0.11159 0.0
C2038 C 0.95915 0.89094 0.11622 0.0
C2039 C 0.93687 0.86944 0.12035 0.0
C2040 C 0.98266 0.89533 0.13169 0.0
C2041 C 0.9374 0.8535 0.14055 0.0
C2042 C 0.96007 0.85841 0.15629 0.0
C2043 C 0.00785 0.88152 0.16653 0.0
C2044 C 0.03232 0.9001 0.16114 0.0
C2045 C 0.9833 0.8787 0.1518 0.0
C2046 C 0.03097 0.91704 0.14132 0.0
C2047 C 0.00637 0.91488 0.12689 0.0
H2048 H 0.6539 0.70271 0.84842 0.0
H2049 H 0.57586 0.67258 0.8843 0.0
H2050 H 0.5832 0.71173 0.91236 0.0
H2051 H 0.61008 0.75628 0.92567 0.0
H2052 H 0.68479 0.79028 0.88775 0.0
H2053 H 0.68056 0.74828 0.86161 0.0
C2054 C 0.63884 0.70456 0.86259 0.0
C2055 C 0.61461 0.68457 0.86452 0.0
C2056 C 0.64247 0.72807 0.8782 0.0
C2057 C 0.59477 0.68761 0.8826 0.0
C2058 C 0.59892 0.71004 0.8986 0.0
C2059 C 0.62567 0.75434 0.91183 0.0
C2060 C 0.64794 0.77631 0.90885 0.0
C2061 C 0.62244 0.73066 0.89644 0.0
C2062 C 0.6675 0.77371 0.8905 0.0
C2063 C 0.66509 0.74965 0.87554 0.0
H2064 H 0.55586 0.40676 0.10029 0.0
H2065 H 0.59126 0.33423 0.13942 0.0
H2066 H 0.55246 0.34207 0.16779 0.0
H2067 H 0.50545 0.36638 0.17972 0.0
H2068 H 0.46752 0.4362 0.13888 0.0
H2069 H 0.50996 0.43279 0.11321 0.0
C2070 C 0.55546 0.39329 0.11535 0.0
C2071 C 0.57671 0.37034 0.11803 0.0
C2072 C 0.53223 0.39718 0.13119 0.0
C2073 C 0.5754 0.35232 0.13721 0.0
C2074 C 0.55307 0.35668 0.15336 0.0
C2075 C 0.50669 0.38121 0.16541 0.0
C2076 C 0.48316 0.40154 0.16134 0.0
C2077 C 0.5309 0.37857 0.15029 0.0
C2078 C 0.48512 0.42024 0.14247 0.0
C2079 C 0.50946 0.41832 0.12772 0.0
H2080 H 0.90235 0.28515 0.34701 0.0
H2081 H 0.85308 0.35033 0.3851 0.0
H2082 H 0.83767 0.3115 0.4117 0.0
H2083 H 0.84018 0.25852 0.42503 0.0
H2084 H 0.88414 0.19314 0.38339 0.0
H2085 H 0.89933 0.23211 0.35735 0.0
C2086 C 0.88808 0.29085 0.36107 0.0
C2087 C 0.87945 0.3208 0.36434 0.0
C2088 C 0.87832 0.26816 0.37571 0.0
C2089 C 0.86042 0.32762 0.38236 0.0
C2090 C 0.85159 0.30534 0.39758 0.0
C2091 C 0.85278 0.25285 0.41012 0.0
C2092 C 0.86115 0.22284 0.40631 0.0
C2093 C 0.86069 0.27548 0.3946 0.0
C2094 C 0.87726 0.2159 0.38677 0.0
C2095 C 0.88613 0.23826 0.37186 0.0
H2096 H 0.92288 0.63333 0.62965 0.0
H2097 H 0.97529 0.62385 0.56954 0.0
H2098 H 0.01987 0.61275 0.59163 0.0
H2099 H 0.04523 0.60962 0.62808 0.0
H2100 H 0.9937 0.62185 0.68844 0.0
H2101 H 0.94807 0.62784 0.66644 0.0
C2102 C 0.94393 0.62822 0.62145 0.0
C2103 C 0.94566 0.62922 0.59794 0.0
C2104 C 0.96995 0.6227 0.63437 0.0
C2105 C 0.97329 0.62314 0.58758 0.0
C2106 C 0.9989 0.61689 0.60023 0.0
C2107 C 0.024 0.61325 0.63647 0.0
C2108 C 0.02319 0.61535 0.65998 0.0
C2109 C 0.99771 0.61723 0.62365 0.0
C2110 C 0.99528 0.62026 0.67041 0.0
C2111 C 0.96902 0.62369 0.65781 0.0
H2112 H 0.59443 0.28657 0.68649 0.0
H2113 H 0.65058 0.34965 0.65186 0.0
H2114 H 0.66576 0.31062 0.62529 0.0
H2115 H 0.66176 0.25824 0.61129 0.0
H2116 H 0.61013 0.19454 0.6492 0.0
H2117 H 0.59466 0.23382 0.67513 0.0
C2118 C 0.61008 0.29175 0.67316 0.0
C2119 C 0.62092 0.32111 0.67087 0.0
C2120 C 0.61954 0.26895 0.65854 0.0
C2121 C 0.64165 0.32733 0.65381 0.0
C2122 C 0.65033 0.30498 0.63863 0.0
C2123 C 0.6473 0.25305 0.62534 0.0
C2124 C 0.63697 0.22355 0.62828 0.0
C2125 C 0.63922 0.2757 0.6407 0.0
C2126 C 0.6185 0.21701 0.64666 0.0
C2127 C 0.60953 0.2395 0.66144 0.0
H2128 H 0.94884 0.40474 0.93187 0.0
H2129 H 0.91665 0.32837 0.89531 0.0
H2130 H 0.95519 0.33578 0.86681 0.0
H2131 H 1.00075 0.36134 0.85376 0.0
H2132 H 0.03681 0.43432 0.89232 0.0
H2133 H 0.99458 0.43097 0.91835 0.0
C2134 C 0.94998 0.39021 0.91739 0.0
C2135 C 0.92952 0.36638 0.91543 0.0
C2136 C 0.9733 0.39377 0.90152 0.0
C2137 C 0.93182 0.34712 0.89697 0.0
C2138 C 0.95401 0.35124 0.88074 0.0
C2139 C 0.99917 0.37681 0.86767 0.0
C2140 C 0.02195 0.39817 0.87092 0.0
C2141 C 0.97528 0.37411 0.88303 0.0
C2142 C 0.01968 0.41764 0.88934 0.0
C2143 C 0.99548 0.41574 0.90428 0.0
H2144 H 0.90448 0.75391 0.10637 0.0
H2145 H 0.83162 0.78568 0.14735 0.0
H2146 H 0.83794 0.74291 0.17249 0.0
H2147 H 0.86642 0.6977 0.18418 0.0
H2148 H 0.94251 0.66976 0.14507 0.0
H2149 H 0.93257 0.70927 0.11781 0.0
C2150 C 0.88968 0.75129 0.12063 0.0
C2151 C 0.86741 0.77292 0.1248 0.0
C2152 C 0.89412 0.72717 0.13542 0.0
C2153 C 0.8489 0.7694 0.14367 0.0
C2154 C 0.85252 0.7449 0.15807 0.0
C2155 C 0.88042 0.70006 0.16946 0.0
C2156 C 0.90493 0.68064 0.16642 0.0
C2157 C 0.87531 0.72379 0.1543 0.0
C2158 C 0.92341 0.68434 0.14763 0.0
C2159 C 0.91779 0.70699 0.13209 0.0
H2160 H 0.54447 0.65926 0.43516 0.0
H2161 H 0.60673 0.60574 0.39742 0.0
H2162 H 0.56705 0.59339 0.37046 0.0
H2163 H 0.51424 0.59924 0.35704 0.0
H2164 H 0.45169 0.64857 0.3978 0.0
H2165 H 0.49159 0.66106 0.42407 0.0
C2166 C 0.54932 0.64472 0.42109 0.0
C2167 C 0.57859 0.63367 0.41816 0.0
C2168 C 0.52621 0.63705 0.40614 0.0
C2169 C 0.58441 0.61455 0.40004 0.0
C2170 C 0.56171 0.60759 0.38458 0.0
C2171 C 0.50945 0.61259 0.37174 0.0
C2172 C 0.48003 0.62313 0.3754 0.0
C2173 C 0.5325 0.61892 0.38733 0.0
C2174 C 0.47406 0.64011 0.39465 0.0
C2175 C 0.4969 0.64735 0.40966 0.0
H2176 H 0.36953 0.25918 0.10271 0.0
H2177 H 0.35128 0.19708 0.15635 0.0
H2178 H 0.3592 0.23638 0.18368 0.0
H2179 H 0.3759 0.28679 0.1928 0.0
H2180 H 0.39291 0.35045 0.14037 0.0
H2181 H 0.38053 0.31234 0.11211 0.0
C2182 C 0.36692 0.25434 0.12036 0.0
C2183 C 0.36019 0.22493 0.12736 0.0
C2184 C 0.37141 0.2773 0.13623 0.0
C2185 C 0.3566 0.21928 0.15034 0.0
C2186 C 0.3612 0.24179 0.16608 0.0
C2187 C 0.37644 0.29246 0.17517 0.0
C2188 C 0.38548 0.32119 0.16859 0.0
C2189 C 0.3693 0.2706 0.15925 0.0
C2190 C 0.38585 0.32845 0.14577 0.0
C2191 C 0.37901 0.30659 0.12967 0.0
H2192 H 0.54591 0.612 0.90069 0.0
H2193 H 0.4989 0.59236 0.83946 0.0
H2194 H 0.45094 0.59975 0.85826 0.0
H2195 H 0.42196 0.6167 0.89138 0.0
H2196 H 0.4693 0.63874 0.95186 0.0
H2197 H 0.51693 0.62527 0.93437 0.0
C2198 C 0.52519 0.60875 0.89156 0.0
C2199 C 0.52624 0.60168 0.86861 0.0
C2200 C 0.49745 0.61368 0.9024 0.0
C2201 C 0.49897 0.59793 0.85708 0.0
C2202 C 0.47139 0.60221 0.86783 0.0
C2203 C 0.44266 0.61782 0.90081 0.0
C2204 C 0.44208 0.62844 0.92295 0.0
C2205 C 0.47028 0.61077 0.89038 0.0
C2206 C 0.46916 0.63043 0.93484 0.0
C2207 C 0.49646 0.62286 0.92481 0.0
H2208 H 0.16488 0.75448 0.60798 0.0
H2209 H 0.12863 0.81997 0.65358 0.0
H2210 H 0.11377 0.78058 0.67928 0.0
H2211 H 0.10819 0.72744 0.6881 0.0
H2212 H 0.14839 0.66128 0.6453 0.0
H2213 H 0.16473 0.70067 0.61941 0.0
C2214 C 0.15404 0.76006 0.62366 0.0
C2215 C 0.14778 0.79026 0.62871 0.0
C2216 C 0.1461 0.7371 0.63886 0.0
C2217 C 0.13392 0.79707 0.64923 0.0
C2218 C 0.12523 0.77449 0.66395 0.0
C2219 C 0.1208 0.72165 0.6732 0.0
C2220 C 0.12668 0.69143 0.66844 0.0
C2221 C 0.1308 0.74445 0.65883 0.0
C2222 C 0.14344 0.68432 0.64928 0.0
C2223 C 0.1527 0.7069 0.63444 0.0
H2224 H 0.00884 0.398 0.35226 0.0
H2225 H 0.94631 0.39683 0.40738 0.0
H2226 H 0.98721 0.38873 0.43352 0.0
H2227 H 0.04053 0.37852 0.44088 0.0
H2228 H 0.10386 0.38125 0.38668 0.0
H2229 H 0.06331 0.39244 0.36024 0.0
C2230 C 1.0042 0.39624 0.37001 0.0
C2231 C 0.97429 0.39787 0.37767 0.0
C2232 C 0.02811 0.3919 0.38523 0.0
C2233 C 0.96892 0.39575 0.40083 0.0
C2234 C 0.99237 0.39101 0.4159 0.0
C2235 C 0.04546 0.38224 0.42334 0.0
C2236 C 0.07516 0.3796 0.41576 0.0
C2237 C 0.02199 0.38864 0.4083 0.0
C2238 C 0.08127 0.38391 0.39296 0.0
C2239 C 0.05799 0.38998 0.37782 0.0
H2240 H 0.36053 0.75146 0.42761 0.0
H2241 H 0.35366 0.81572 0.37403 0.0
H2242 H 0.36335 0.77648 0.34669 0.0
H2243 H 0.37826 0.72459 0.33806 0.0
H2244 H 0.38477 0.66028 0.39127 0.0
H2245 H 0.37057 0.69855 0.41861 0.0
C2246 C 0.36081 0.75686 0.40995 0.0
C2247 C 0.35659 0.7867 0.40302 0.0
C2248 C 0.36638 0.73408 0.39419 0.0
C2249 C 0.3568 0.79308 0.37997 0.0
C2250 C 0.36248 0.77062 0.36426 0.0
C2251 C 0.37585 0.71892 0.3556 0.0
C2252 C 0.38196 0.68961 0.36268 0.0
C2253 C 0.36789 0.74116 0.37118 0.0
C2254 C 0.37936 0.6825 0.38543 0.0
C2255 C 0.37158 0.7045 0.40106 0.0
H2256 H 0.09589 0.62098 0.12777 0.0
H2257 H 0.0399 0.63264 0.06975 0.0
H2258 H 0.99579 0.6185 0.0913 0.0
H2259 H 0.97205 0.60695 0.12732 0.0
H2260 H 0.02704 0.59773 0.18615 0.0
H2261 H 0.07206 0.60647 0.16382 0.0
C2262 C 0.0741 0.61987 0.11982 0.0
C2263 C 0.07128 0.62784 0.09713 0.0
C2264 C 0.04838 0.61239 0.13257 0.0
C2265 C 0.04276 0.62669 0.08717 0.0
C2266 C 0.01742 0.61865 0.09951 0.0
C2267 C 0.99389 0.60633 0.13523 0.0
C2268 C 0.99592 0.60165 0.15847 0.0
C2269 C 0.01979 0.61205 0.12234 0.0
C2270 C 0.02459 0.60132 0.16834 0.0
C2271 C 0.05047 0.60639 0.15556 0.0
H2272 H 0.09153 0.2858 0.84727 0.0
H2273 H 0.15087 0.34915 0.87847 0.0
H2274 H 0.1671 0.31067 0.90522 0.0
H2275 H 0.16312 0.25855 0.92032 0.0
H2276 H 0.10712 0.19511 0.88575 0.0
H2277 H 0.09088 0.2339 0.85981 0.0
C2278 C 0.10811 0.29123 0.85987 0.0
C2279 C 0.11965 0.32045 0.86108 0.0
C2280 C 0.11788 0.26884 0.87465 0.0
C2281 C 0.14149 0.32691 0.87727 0.0
C2282 C 0.15072 0.30489 0.89259 0.0
C2283 C 0.14749 0.25335 0.90702 0.0
C2284 C 0.13622 0.22402 0.90498 0.0
C2285 C 0.13887 0.27575 0.89157 0.0
C2286 C 0.11621 0.21744 0.88757 0.0
C2287 C 0.10683 0.23963 0.87276 0.0
H2288 H 0.53711 0.40878 0.63095 0.0
H2289 H 0.4957 0.38461 0.69372 0.0
H2290 H 0.44876 0.37475 0.67486 0.0
H2291 H 0.41967 0.36918 0.64027 0.0
H2292 H 0.45938 0.39349 0.57732 0.0
H2293 H 0.50617 0.40731 0.59633 0.0
C2294 C 0.51774 0.4017 0.64053 0.0
C2295 C 0.5204 0.3973 0.66382 0.0
C2296 C 0.49024 0.39602 0.6295 0.0
C2297 C 0.49478 0.38816 0.67583 0.0
C2298 C 0.46768 0.38242 0.66505 0.0
C2299 C 0.4384 0.37815 0.63084 0.0
C2300 C 0.4361 0.38073 0.60755 0.0
C2301 C 0.46521 0.38579 0.64188 0.0
C2302 C 0.46061 0.39179 0.59537 0.0
C2303 C 0.48741 0.39946 0.60623 0.0
H2304 H 0.10867 1.00141 0.31279 0.0
H2305 H 0.08314 0.08069 0.27712 0.0
H2306 H 0.07818 0.05192 0.24245 0.0
H2307 H 0.08684 0.00444 0.22152 0.0
H2308 H 0.11211 0.92551 0.25848 0.0
H2309 H 0.1109 0.95345 0.29321 0.0
C2310 C 0.10128 0.0122 0.29751 0.0
C2311 C 0.09595 0.0431 0.2975 0.0
C2312 C 0.0987 0.99544 0.27775 0.0
C2313 C 0.08663 0.05689 0.27762 0.0
C2314 C 0.08421 0.04041 0.25774 0.0
C2315 C 0.09152 0.99333 0.23723 0.0
C2316 C 0.09977 0.96293 0.23727 0.0
C2317 C 0.09096 0.00972 0.25745 0.0
C2318 C 0.10572 0.94884 0.25783 0.0
C2319 C 0.1052 0.96485 0.2778 0.0
H2320 H 0.19813 0.84553 0.53181 0.0
H2321 H 0.2692 0.87112 0.57673 0.0
H2322 H 0.30466 0.87209 0.54581 0.0
H2323 H 0.3147 0.87053 0.50556 0.0
H2324 H 0.24511 0.84403 0.46001 0.0
H2325 H 0.20991 0.83862 0.49136 0.0
C2326 C 0.22152 0.8505 0.53488 0.0
C2327 C 0.23091 0.85823 0.55665 0.0
C2328 C 0.24209 0.85106 0.51682 0.0
C2329 C 0.26128 0.86509 0.56021 0.0
C2330 C 0.28165 0.86575 0.54249 0.0
C2331 C 0.29222 0.86243 0.50256 0.0
C2332 C 0.28285 0.85667 0.48056 0.0
C2333 C 0.27224 0.85937 0.52067 0.0
C2334 C 0.25307 0.84778 0.47688 0.0
C2335 C 0.2329 0.84487 0.49481 0.0
H2336 H 0.41445 0.0086 0.81124 0.0
H2337 H 0.41492 0.92546 0.77519 0.0
H2338 H 0.41644 0.95237 0.73962 0.0
H2339 H 0.41254 1.00008 0.71877 0.0
H2340 H 0.41595 0.08314 0.75487 0.0
H2341 H 0.41806 0.0561 0.79037 0.0
C2342 C 0.41572 0.99644 0.79558 0.0
C2343 C 0.4149 0.96501 0.79581 0.0
C2344 C 0.41702 0.01219 0.7752 0.0
C2345 C 0.41623 0.94951 0.77545 0.0
C2346 C 0.41675 0.96497 0.7551 0.0
C2347 C 0.41453 0.01217 0.73441 0.0
C2348 C 0.41422 0.04362 0.73424 0.0
C2349 C 0.4165 0.99635 0.75475 0.0
C2350 C 0.41662 0.05905 0.75456 0.0
C2351 C 0.41762 0.04355 0.77488 0.0
H2352 H 0.25848 0.15701 0.97145 0.0
H2353 H 0.17512 0.16071 1.00733 0.0
H2354 H 0.20203 0.16299 0.04295 0.0
H2355 H 0.24978 0.15768 0.06385 0.0
H2356 H 0.33311 0.1571 0.02764 0.0
H2357 H 0.30612 0.16001 0.9922 0.0
C2358 C 0.24632 0.15924 0.98708 0.0
C2359 C 0.21485 0.15897 0.98689 0.0
C2360 C 0.2621 0.16079 1.0074 0.0
C2361 C 0.19926 0.16148 1.00715 0.0
C2362 C 0.21472 0.16244 0.0275 0.0
C2363 C 0.26195 0.15908 0.04819 0.0
C2364 C 0.29342 0.15735 0.0483 0.0
C2365 C 0.24617 0.16128 0.02785 0.0
C2366 C 0.309 0.15886 0.02798 0.0
C2367 C 0.29352 0.16031 1.00769 0.0
H2368 H 0.90034 0.06489 0.77848 0.0
H2369 H 0.91537 0.99416 0.82579 0.0
H2370 H 0.92284 0.9585 0.79519 0.0
H2371 H 0.91755 0.94625 0.75499 0.0
H2372 H 0.89631 0.01621 0.70835 0.0
H2373 H 0.89927 0.05345 0.7382 0.0
C2374 C 0.90628 0.0419 0.78196 0.0
C2375 C 0.90801 0.03222 0.80424 0.0
C2376 C 0.90906 0.02132 0.76426 0.0
C2377 C 0.91449 1.00212 0.8087 0.0
C2378 C 0.9185 0.98171 0.7912 0.0
C2379 C 0.91464 0.96974 0.75135 0.0
C2380 C 0.90725 0.97858 0.72951 0.0
C2381 C 0.91487 0.99083 0.7689 0.0
C2382 C 0.90242 0.009 0.72502 0.0
C2383 C 0.90389 0.03026 0.74212 0.0
H2384 H 0.69434 0.13985 0.53048 0.0
H2385 H 0.75804 0.17652 0.57686 0.0
H2386 H 0.7949 0.1819 0.5466 0.0
H2387 H 0.81053 0.17041 0.50761 0.0
H2388 H 0.74603 0.13306 0.46199 0.0
H2389 H 0.70752 0.13473 0.49093 0.0
C2390 C 0.71577 0.15021 0.5338 0.0
C2391 C 0.7231 0.1587 0.55572 0.0
C2392 C 0.73675 0.15303 0.51635 0.0
C2393 C 0.75165 0.17056 0.55997 0.0
C2394 C 0.77277 0.17346 0.54269 0.0
C2395 C 0.7878 0.16382 0.5038 0.0
C2396 C 0.78107 0.15204 0.48256 0.0
C2397 C 0.7658 0.16413 0.52084 0.0
C2398 C 0.75169 0.14245 0.47814 0.0
C2399 C 0.7297 0.14318 0.49475 0.0
H2400 H 0.59909 0.99694 0.22051 0.0
H2401 H 0.60249 0.08068 0.25573 0.0
H2402 H 0.59788 0.05486 0.29143 0.0
H2403 H 0.59843 0.00769 0.31282 0.0
H2404 H 0.58997 0.92404 0.27785 0.0
H2405 H 0.59058 0.95016 0.242 0.0
C2406 C 0.59809 0.00947 0.23602 0.0
C2407 C 0.60117 0.04075 0.23552 0.0
C2408 C 0.59472 0.99433 0.25654 0.0
C2409 C 0.59989 0.05676 0.25565 0.0
C2410 C 0.59746 0.0419 0.27612 0.0
C2411 C 0.59593 0.99531 0.29734 0.0
C2412 C 0.59431 0.96396 0.29798 0.0
C2413 C 0.59561 0.01063 0.2768 0.0
C2414 C 0.59106 0.94813 0.27786 0.0
C2415 C 0.59165 0.96311 0.2573 0.0
H2416 H 0.76279 0.84478 0.97173 0.0
H2417 H 0.6788 0.83997 1.00699 0.0
H2418 H 0.70515 0.83753 0.04264 0.0
H2419 H 0.75237 0.84253 0.06399 0.0
H2420 H 0.83649 0.84148 0.02886 0.0
H2421 H 0.81023 0.83998 0.99301 0.0
C2422 C 0.75037 0.84241 0.98722 0.0
C2423 C 0.71887 0.84276 0.98674 0.0
C2424 C 0.76581 0.84017 1.00768 0.0
C2425 C 0.70296 0.83963 1.00685 0.0
C2426 C 0.71808 0.83842 0.02731 0.0
C2427 C 0.76486 0.8412 0.04846 0.0
C2428 C 0.79633 0.84235 0.04898 0.0
C2429 C 0.7495 0.8395 0.02795 0.0
C2430 C 0.81234 0.84052 0.02884 0.0
C2431 C 0.79726 0.83986 1.00833 0.0
H2432 H 0.5724 0.52129 0.80102 0.0
H2433 H 0.66106 0.55642 0.78958 0.0
H2434 H 0.66395 0.53043 0.75401 0.0
H2435 H 0.64347 0.49514 0.72744 0.0
H2436 H 0.55697 0.45525 0.73884 0.0
H2437 H 0.55108 0.48517 0.77312 0.0
C2438 C 0.59205 0.5235 0.79049 0.0
C2439 C 0.61633 0.54114 0.79775 0.0
C2440 C 0.59415 0.50723 0.77023 0.0
C2441 C 0.64196 0.54334 0.78424 0.0
C2442 C 0.64373 0.52831 0.76393 0.0
C2443 C 0.62313 0.49309 0.73727 0.0
C2444 C 0.6007 0.47298 0.7306 0.0
C2445 C 0.62027 0.50981 0.75697 0.0
C2446 C 0.57463 0.47052 0.74366 0.0
C2447 C 0.57128 0.48766 0.76324 0.0
H2448 H 0.8131 0.34936 1.00485 0.0
H2449 H 0.74008 0.35738 0.95835 0.0
H2450 H 0.7039 0.35173 0.98892 0.0
H2451 H 0.69316 0.34964 0.0295 0.0
H2452 H 0.76672 0.34591 0.07604 0.0
H2453 H 0.80246 0.3439 0.04507 0.0
C2454 C 0.78932 0.34867 1.00136 0.0
C2455 C 0.77925 0.35283 0.97932 0.0
C2456 C 0.76869 0.34645 0.01916 0.0
C2457 C 0.7483 0.35362 0.97516 0.0
C2458 C 0.72762 0.35055 0.99265 0.0
C2459 C 0.71696 0.34768 0.0328 0.0
C2460 C 0.72728 0.34773 0.05505 0.0
C2461 C 0.73753 0.34764 1.01483 0.0
C2462 C 0.75823 0.3458 0.05907 0.0
C2463 C 0.77871 0.34478 0.04136 0.0
H2464 H 0.87333 0.50873 0.22675 0.0
H2465 H 0.95929 0.54874 0.23983 0.0
H2466 H 0.96379 0.51903 0.27433 0.0
H2467 H 0.94069 0.48405 0.30241 0.0
H2468 H 0.85255 0.44902 0.28895 0.0
H2469 H 0.85188 0.47349 0.25285 0.0
C2470 C 0.89328 0.51084 0.23697 0.0
C2471 C 0.91582 0.53116 0.23078 0.0
C2472 C 0.89538 0.49418 0.25675 0.0
C2473 C 0.94149 0.53345 0.24428 0.0
C2474 C 0.94403 0.51642 0.26401 0.0
C2475 C 0.92174 0.48136 0.29128 0.0
C2476 C 0.89697 0.46404 0.29818 0.0
C2477 C 0.92081 0.49701 0.27066 0.0
C2478 C 0.87217 0.46145 0.28388 0.0
C2479 C 0.8716 0.47579 0.26327 0.0
H2480 H 0.74247 0.68756 0.48062 0.0
H2481 H 0.70937 0.59796 0.49035 0.0
H2482 H 0.73334 0.59544 0.52666 0.0
H2483 H 0.76723 0.6162 0.55423 0.0
H2484 H 0.80414 0.70428 0.54527 0.0
H2485 H 0.7758 0.7098 0.51019 0.0
C2486 C 0.74013 0.66781 0.49096 0.0
C2487 C 0.72367 0.64314 0.48287 0.0
C2488 C 0.75528 0.66595 0.51178 0.0
C2489 C 0.72141 0.61742 0.49623 0.0
C2490 C 0.73538 0.61583 0.517 0.0
C2491 C 0.76898 0.63679 0.54476 0.0
C2492 C 0.78819 0.6596 0.55222 0.0
C2493 C 0.75291 0.6396 0.5247 0.0
C2494 C 0.78993 0.68614 0.53971 0.0
C2495 C 0.77361 0.68931 0.51968 0.0
H2496 H 0.40717 0.502 0.31396 0.0
H2497 H 0.4264 0.58266 0.27775 0.0
H2498 H 0.43177 0.55425 0.24302 0.0
H2499 H 0.42529 0.50647 0.22225 0.0
H2500 H 0.40436 0.42645 0.25939 0.0
H2501 H 0.40589 0.45416 0.29422 0.0
C2502 C 0.41329 0.5132 0.29854 0.0
C2503 C 0.41703 0.54432 0.29847 0.0
C2504 C 0.41578 0.49668 0.27866 0.0
C2505 C 0.42452 0.55868 0.27838 0.0
C2506 C 0.42708 0.5424 0.25843 0.0
C2507 C 0.42164 0.49509 0.23802 0.0
C2508 C 0.41476 0.46438 0.23812 0.0
C2509 C 0.42204 0.51141 0.25824 0.0
C2510 C 0.40994 0.44997 0.25872 0.0
C2511 C 0.41058 0.46586 0.27874 0.0
H2512 H 0.31449 0.66193 0.99812 0.0
H2513 H 0.24182 0.64316 0.95288 0.0
H2514 H 0.20639 0.64339 0.98396 0.0
H2515 H 0.19696 0.64331 0.0244 0.0
H2516 H 0.26875 0.66254 0.07008 0.0
H2517 H 0.30377 0.66754 0.03863 0.0
C2518 C 0.29082 0.65883 0.99502 0.0
C2519 C 0.28084 0.65275 0.97315 0.0
C2520 C 0.27046 0.65873 1.01313 0.0
C2521 C 0.25011 0.64794 0.96951 0.0
C2522 C 0.2298 0.64796 0.98731 0.0
C2523 C 0.21987 0.65003 0.02742 0.0
C2524 C 0.22996 0.65382 0.04947 0.0
C2525 C 0.23979 0.65269 1.00925 0.0
C2526 C 0.26032 0.66037 0.05317 0.0
C2527 C 0.28036 0.66304 0.0352 0.0
H2528 H 0.09456 0.51016 0.8106 0.0
H2529 H 0.09272 0.42721 0.77438 0.0
H2530 H 0.09083 0.45417 0.73889 0.0
H2531 H 0.09525 0.50183 0.71814 0.0
H2532 H 0.09306 0.5849 0.75441 0.0
H2533 H 0.09054 0.55788 0.78979 0.0
C2534 C 0.09297 0.49809 0.79491 0.0
C2535 C 0.09364 0.46667 0.79502 0.0
C2536 C 0.09136 0.51393 0.77459 0.0
C2537 C 0.09173 0.45126 0.77468 0.0
C2538 C 0.09095 0.46676 0.75438 0.0
C2539 C 0.09346 0.51393 0.7338 0.0
C2540 C 0.09425 0.54534 0.73366 0.0
C2541 C 0.09149 0.49812 0.75411 0.0
C2542 C 0.09204 0.56082 0.75401 0.0
C2543 C 0.09089 0.5453 0.77431 0.0
H2544 H 0.19209 0.35703 0.50496 0.0
H2545 H 0.26393 0.35206 0.45709 0.0
H2546 H 0.30034 0.34556 0.48735 0.0
H2547 H 0.31222 0.3485 0.52766 0.0
H2548 H 0.24058 0.35799 0.57531 0.0
H2549 H 0.20355 0.35481 0.54524 0.0
C2550 C 0.21556 0.35331 0.50119 0.0
C2551 C 0.22531 0.3542 0.47886 0.0
C2552 C 0.23643 0.35065 0.51877 0.0
C2553 C 0.25594 0.35082 0.47418 0.0
C2554 C 0.27676 0.34733 0.49149 0.0
C2555 C 0.2885 0.34861 0.53146 0.0
C2556 C 0.27907 0.3527 0.55369 0.0
C2557 C 0.26739 0.34808 0.51391 0.0
C2558 C 0.24827 0.35426 0.55834 0.0
C2559 C 0.22712 0.35272 0.54113 0.0
H2560 H 0.10452 0.20832 0.10901 0.0
H2561 H 0.09714 0.11416 0.09435 0.0
H2562 H 0.09118 0.10336 0.13412 0.0
H2563 H 0.08549 0.12091 0.17321 0.0
H2564 H 0.09121 0.21531 0.18717 0.0
H2565 H 0.09976 0.22565 0.14767 0.0
C2566 C 0.10135 0.18542 0.1144 0.0
C2567 C 0.10116 0.16219 0.09847 0.0
C2568 C 0.09738 0.17936 0.13731 0.0
C2569 C 0.09773 0.13259 0.10608 0.0
C2570 C 0.09409 0.12636 0.12889 0.0
C2571 C 0.08888 0.1437 0.16761 0.0
C2572 C 0.0874 0.16731 0.18319 0.0
C2573 C 0.0936 0.14959 0.14468 0.0
C2574 C 0.09171 0.19674 0.17556 0.0
C2575 C 0.09674 0.20269 0.15295 0.0
H2576 H 0.14508 0.85664 0.42645 0.0
H2577 H 0.05186 0.83691 0.43872 0.0
H2578 H 0.04037 0.84539 0.39946 0.0
H2579 H 0.05694 0.85567 0.3613 0.0
H2580 H 0.14966 0.87729 0.34867 0.0
H2581 H 0.16107 0.87077 0.38831 0.0
C2582 C 0.1222 0.85457 0.42059 0.0
C2583 C 0.09949 0.84565 0.43555 0.0
C2584 C 0.11563 0.85962 0.39785 0.0
C2585 C 0.06996 0.843 0.42756 0.0
C2586 C 0.06329 0.84803 0.40509 0.0
C2587 C 0.07957 0.85958 0.36719 0.0
C2588 C 0.10236 0.86684 0.35184 0.0
C2589 C 0.08599 0.85594 0.39002 0.0
C2590 C 0.13166 0.87121 0.35994 0.0
C2591 C 0.13822 0.86763 0.38267 0.0
H2592 H 0.43662 0.87005 0.66986 0.0
H2593 H 0.36237 0.81468 0.69033 0.0
H2594 H 0.3494 0.80564 0.65131 0.0
H2595 H 0.36047 0.81144 0.61148 0.0
H2596 H 0.43339 0.86837 0.59071 0.0
H2597 H 0.44557 0.87868 0.62974 0.0
C2598 C 0.41733 0.85638 0.6658 0.0
C2599 C 0.40071 0.84282 0.68304 0.0
C2600 C 0.40991 0.8513 0.64327 0.0
C2601 C 0.37592 0.82493 0.67741 0.0
C2602 C 0.36839 0.81984 0.6551 0.0
C2603 C 0.37874 0.82651 0.61542 0.0
C2604 C 0.39608 0.83891 0.59809 0.0
C2605 C 0.38545 0.83259 0.63789 0.0
C2606 C 0.41998 0.85801 0.60365 0.0
C2607 C 0.42685 0.86411 0.62599 0.0
H2608 H 0.38885 0.18277 0.85263 0.0
H2609 H 0.45969 0.11742 0.85824 0.0
H2610 H 0.45526 0.1186 0.89881 0.0
H2611 H 0.43273 0.13949 0.93286 0.0
H2612 H 0.3655 0.20854 0.92715 0.0
H2613 H 0.36717 0.20445 0.8866 0.0
C2614 C 0.40362 0.16899 0.86265 0.0
C2615 C 0.42462 0.15007 0.85214 0.0
C2616 C 0.40161 0.17039 0.88609 0.0
C2617 C 0.44295 0.13188 0.86563 0.0
C2618 C 0.44064 0.13272 0.88893 0.0
C2619 C 0.41863 0.15392 0.92282 0.0
C2620 C 0.39901 0.1743 0.9333 0.0
C2621 C 0.42028 0.15212 0.89936 0.0
C2622 C 0.38047 0.19224 0.91978 0.0
C2623 C 0.38159 0.19014 0.89649 0.0
H2624 H 0.91704 0.81682 0.85236 0.0
H2625 H 0.92207 0.91281 0.85737 0.0
H2626 H 0.91532 0.90967 0.89791 0.0
H2627 H 0.91064 0.8793 0.93237 0.0
H2628 H 0.90522 0.78328 0.92672 0.0
H2629 H 0.90996 0.78686 0.88626 0.0
C2630 C 0.91681 0.83709 0.8623 0.0
C2631 C 0.92033 0.865 0.85172 0.0
C2632 C 0.91308 0.83511 0.88564 0.0
C2633 C 0.91926 0.89101 0.86494 0.0
C2634 C 0.91557 0.88922 0.88819 0.0
C2635 C 0.91012 0.85917 0.92229 0.0
C2636 C 0.908 0.83101 0.93281 0.0
C2637 C 0.91275 0.86135 0.89879 0.0
C2638 C 0.90753 0.80523 0.9193 0.0
C2639 C 0.91006 0.80724 0.89606 0.0
H2640 H 0.95175 0.14599 0.67324 0.0
H2641 H 0.85787 0.15114 0.68991 0.0
H2642 H 0.84545 0.15858 0.65048 0.0
H2643 H 0.86147 0.16496 0.61114 0.0
H2644 H 0.9555 0.15962 0.59488 0.0
H2645 H 0.96757 0.15104 0.63412 0.0
C2646 C 0.92857 0.14888 0.66828 0.0
C2647 C 0.90583 0.14817 0.68461 0.0
C2648 C 0.92159 0.15316 0.64557 0.0
C2649 C 0.87585 0.15137 0.67775 0.0
C2650 C 0.86873 0.15581 0.65518 0.0
C2651 C 0.88459 0.16199 0.61622 0.0
C2652 C 0.90752 0.16292 0.60001 0.0
C2653 C 0.89144 0.15696 0.63893 0.0
C2654 C 0.93735 0.15866 0.60689 0.0
C2655 C 0.94431 0.15391 0.62938 0.0
H2656 H 0.57581 0.16005 0.43234 0.0
H2657 H 0.66871 0.18319 0.42259 0.0
H2658 H 0.66374 0.17449 0.38246 0.0
H2659 H 0.6325 0.16228 0.34979 0.0
H2660 H 0.53964 0.13895 0.35959 0.0
H2661 H 0.54518 0.14559 0.39988 0.0
C2662 C 0.59507 0.16283 0.42149 0.0
C2663 C 0.62253 0.1725 0.43055 0.0
C2664 C 0.59204 0.1579 0.39833 0.0
C2665 C 0.64716 0.17627 0.4161 0.0
C2666 C 0.64439 0.17115 0.39312 0.0
C2667 C 0.61357 0.15825 0.36076 0.0
C2668 C 0.58563 0.1503 0.35156 0.0
C2669 C 0.61686 0.16227 0.384 0.0
C2670 C 0.56129 0.14554 0.3661 0.0
C2671 C 0.56446 0.14921 0.38919 0.0
H2672 H 0.58517 0.86895 0.10103 0.0
H2673 H 0.64834 0.79678 0.10929 0.0
H2674 H 0.64495 0.8018 0.14987 0.0
H2675 H 0.62208 0.82493 0.18305 0.0
H2676 H 0.55919 0.89731 0.17479 0.0
H2677 H 0.56465 0.8941 0.13422 0.0
C2678 C 0.59858 0.85462 0.11168 0.0
C2679 C 0.61685 0.83239 0.10205 0.0
C2680 C 0.59646 0.85755 0.13504 0.0
C2681 C 0.63373 0.81377 0.1162 0.0
C2682 C 0.63191 0.81671 0.13943 0.0
C2683 C 0.60993 0.84033 0.17241 0.0
C2684 C 0.59011 0.86121 0.18201 0.0
C2685 C 0.61305 0.83825 0.14905 0.0
C2686 C 0.57425 0.88072 0.16787 0.0
C2687 C 0.57744 0.87897 0.14466 0.0
H2688 H 0.60415 0.61026 0.67027 0.0
H2689 H 0.61381 0.70322 0.68809 0.0
H2690 H 0.62419 0.7158 0.64921 0.0
H2691 H 0.62866 0.70095 0.60985 0.0
H2692 H 0.61813 0.60831 0.59156 0.0
H2693 H 0.61018 0.59512 0.63079 0.0
C2694 C 0.60846 0.63328 0.66564 0.0
C2695 C 0.60814 0.65573 0.6822 0.0
C2696 C 0.61426 0.64047 0.6431 0.0
C2697 C 0.61425 0.68538 0.67586 0.0
C2698 C 0.62 0.69267 0.65355 0.0
C2699 C 0.62451 0.67787 0.61441 0.0
C2700 C 0.62379 0.65572 0.59768 0.0
C2701 C 0.61977 0.67047 0.637 0.0
C2702 C 0.61902 0.62583 0.60403 0.0
C2703 C 0.61427 0.61828 0.62648 0.0
H2704 H 0.61561 0.32025 0.85028 0.0
H2705 H 0.5969 0.41443 0.85633 0.0
H2706 H 0.60542 0.41179 0.89672 0.0
H2707 H 0.61339 0.3815 0.93077 0.0
H2708 H 0.63111 0.2871 0.92423 0.0
H2709 H 0.62749 0.29099 0.88366 0.0
C2710 C 0.61346 0.34022 0.86043 0.0
C2711 C 0.60524 0.3674 0.85036 0.0
C2712 C 0.61792 0.33843 0.88361 0.0
C2713 C 0.60326 0.39323 0.86366 0.0
C2714 C 0.60792 0.39169 0.88678 0.0
C2715 C 0.61697 0.36191 0.92042 0.0
C2716 C 0.62209 0.33396 0.93055 0.0
C2717 C 0.61462 0.36425 0.89701 0.0
C2718 C 0.62656 0.30876 0.9169 0.0
C2719 C 0.62459 0.31097 0.89369 0.0
H2720 H 0.85605 0.3428 0.11095 0.0
H2721 H 0.9491 0.35301 0.09293 0.0
H2722 H 0.96215 0.36124 0.13201 0.0
H2723 H 0.94767 0.36454 0.17155 0.0
H2724 H 0.85482 0.35474 0.1901 0.0
H2725 H 0.84127 0.34761 0.15081 0.0
C2726 C 0.87918 0.34677 0.11559 0.0
C2727 C 0.90151 0.34732 0.09885 0.0
C2728 C 0.88664 0.35161 0.13829 0.0
C2729 C 0.93133 0.35284 0.10527 0.0
C2730 C 0.93889 0.35738 0.1277 0.0
C2731 C 0.92446 0.36071 0.16704 0.0
C2732 C 0.90238 0.36 0.18391 0.0
C2733 C 0.9168 0.35667 0.14438 0.0
C2734 C 0.87233 0.3556 0.17757 0.0
C2735 C 0.86456 0.35135 0.15506 0.0
H2736 H 0.96397 0.66854 0.35696 0.0
H2737 H 0.87946 0.62494 0.34437 0.0
H2738 H 0.86532 0.63123 0.38354 0.0
H2739 H 0.87662 0.64981 0.42133 0.0
H2740 H 0.96119 0.69326 0.43392 0.0
H2741 H 0.97568 0.68618 0.39488 0.0
C2742 C 0.9426 0.6601 0.36283 0.0
C2743 C 0.92283 0.64629 0.34769 0.0
C2744 C 0.93458 0.66382 0.3854 0.0
C2745 C 0.89499 0.63596 0.35555 0.0
C2746 C 0.88693 0.63941 0.378 0.0
C2747 C 0.89836 0.65743 0.41559 0.0
C2748 C 0.91778 0.67205 0.43056 0.0
C2749 C 0.90651 0.65339 0.39307 0.0
C2750 C 0.94568 0.68222 0.42272 0.0
C2751 C 0.95404 0.67808 0.40041 0.0
H2752 H 0.40835 0.3181 0.35274 0.0
H2753 H 0.42289 0.41294 0.35918 0.0
H2754 H 0.41404 0.40968 0.39954 0.0
H2755 H 0.40332 0.37937 0.43327 0.0
H2756 H 0.38975 0.28439 0.42625 0.0
H2757 H 0.39681 0.28825 0.38592 0.0
C2758 C 0.40925 0.33814 0.36292 0.0
C2759 C 0.41617 0.36574 0.35292 0.0
C2760 C 0.40437 0.33604 0.38608 0.0
C2761 C 0.41783 0.39138 0.36647 0.0
C2762 C 0.41265 0.38953 0.38954 0.0
C2763 C 0.40162 0.35961 0.42285 0.0
C2764 C 0.39614 0.3316 0.4328 0.0
C2765 C 0.40605 0.36193 0.39957 0.0
C2766 C 0.39429 0.30615 0.41908 0.0
C2767 C 0.39824 0.30834 0.39599 0.0
H2768 H 0.44843 0.6329 0.16987 0.0
H2769 H 0.37036 0.68359 0.18936 0.0
H2770 H 0.35712 0.69079 0.1502 0.0
H2771 H 0.36845 0.68417 0.11025 0.0
H2772 H 0.44746 0.635 0.09076 0.0
H2773 H 0.45942 0.62577 0.12992 0.0
C2774 C 0.4286 0.64566 0.16558 0.0
C2775 C 0.41049 0.65767 0.18268 0.0
C2776 C 0.42122 0.65004 0.14293 0.0
C2777 C 0.38457 0.67371 0.17668 0.0
C2778 C 0.37706 0.67805 0.15422 0.0
C2779 C 0.38837 0.67156 0.11455 0.0
C2780 C 0.40698 0.66035 0.09746 0.0
C2781 C 0.39534 0.66654 0.1372 0.0
C2782 C 0.43245 0.6436 0.10345 0.0
C2783 C 0.43946 0.63847 0.1259 0.0
H2784 H 0.11591 0.69552 0.84807 0.0
H2785 H 0.07462 0.60928 0.85721 0.0
H2786 H 0.08242 0.61289 0.89761 0.0
H2787 H 0.09999 0.64122 0.9305 0.0
H2788 H 0.14119 0.72749 0.92095 0.0
H2789 H 0.13443 0.72316 0.88063 0.0
C2790 C 0.10894 0.67733 0.85886 0.0
C2791 C 0.09474 0.65215 0.8496 0.0
C2792 C 0.11332 0.67965 0.88206 0.0
C2793 C 0.08537 0.62904 0.86391 0.0
C2794 C 0.08991 0.63104 0.88701 0.0
C2795 C 0.10772 0.65894 0.91957 0.0
C2796 C 0.12091 0.68474 0.92881 0.0
C2797 C 0.10371 0.65634 0.8963 0.0
C2798 C 0.13052 0.70762 0.91438 0.0
C2799 C 0.12683 0.70509 0.89128 0.0
H2800 H 0.05095 0.36719 0.66687 0.0
H2801 H 0.14171 0.34711 0.68656 0.0
H2802 H 0.156 0.34101 0.64739 0.0
H2803 H 0.14241 0.33983 0.60739 0.0
H2804 H 0.05152 0.35971 0.58791 0.0
H2805 H 0.03773 0.36742 0.62697 0.0
C2806 C 0.07384 0.36135 0.66261 0.0
C2807 C 0.09514 0.3575 0.67974 0.0
C2808 C 0.08194 0.35782 0.64 0.0
C2809 C 0.12485 0.35048 0.6738 0.0
C2810 C 0.13303 0.3468 0.65136 0.0
C2811 C 0.11957 0.34579 0.61171 0.0
C2812 C 0.09807 0.34914 0.59464 0.0
C2813 C 0.11172 0.35017 0.63431 0.0
C2814 C 0.06866 0.3573 0.60058 0.0
C2815 C 0.06068 0.36153 0.62297 0.0
loop_
_geom_bond_atom_site_label_1
_geom_bond_atom_site_label_2
_geom_bond_distance
_geom_bond_site_symmetry_2
_ccdc_geom_bond_type
Nd0 C2 2.836 . S
Nd0 O20 2.500 . S
Nd0 O21 2.492 . S
Nd0 O22 2.487 . S
Nd0 O23 2.682 . S
Nd0 O24 2.410 . S
Nd0 O29 2.414 . S
Nd0 O31 2.424 . S
Nd1 C11 2.836 . S
Nd1 O23 2.414 . S
Nd1 O25 2.424 . S
Nd1 O26 2.500 . S
Nd1 O27 2.492 . S
Nd1 O28 2.487 . S
Nd1 O29 2.682 . S
Nd1 O30 2.410 . S
C2 Nd0 2.836 . S
C2 C3 1.498 . S
C2 O20 1.258 . S
C2 O21 1.239 . S
C3 C2 1.498 . S
C3 C4 1.366 . S
C3 C8 1.407 . S
C4 C3 1.366 . S
C4 C5 1.392 . S
C4 H32 0.930 . S
C5 C4 1.392 . S
C5 C6 1.398 . S
C5 H33 0.929 . S
C6 C5 1.398 . S
C6 C7 1.352 . S
C7 C6 1.352 . S
C7 C8 1.384 . S
C7 H34 0.930 . S
C8 C3 1.407 . S
C8 C7 1.384 . S
C8 H35 0.929 . S
C9 O22 1.241 . S
C9 O23 1.273 . S
C10 O24 1.251 . S
C10 O25 1.268 . S
C11 Nd1 2.836 . S
C11 C12 1.498 . S
C11 O26 1.258 . S
C11 O27 1.239 . S
C12 C11 1.498 . S
C12 C13 1.366 . S
C12 C17 1.407 . S
C13 C12 1.366 . S
C13 C14 1.392 . S
C13 H36 0.930 . S
C14 C13 1.392 . S
C14 C15 1.398 . S
C14 H37 0.929 . S
C15 C14 1.398 . S
C15 C16 1.352 . S
C16 C15 1.352 . S
C16 C17 1.384 . S
C16 H38 0.930 1_545 S
C17 C12 1.407 . S
C17 C16 1.384 . S
C17 H39 0.908 1_545 S
C18 O28 1.241 . S
C18 O29 1.273 . S
C19 O30 1.251 . S
C19 O31 1.268 . S
O20 Nd0 2.500 . S
O20 C2 1.258 . S
O21 Nd0 2.492 . S
O21 C2 1.239 . S
O22 Nd0 2.487 . S
O22 C9 1.241 . S
O23 Nd0 2.682 . S
O23 Nd1 2.414 . S
O23 C9 1.273 . S
O24 Nd0 2.410 . S
O24 C10 1.251 . S
O25 Nd1 2.424 . S
O25 C10 1.268 . S
O26 Nd1 2.500 . S
O26 C11 1.258 . S
O27 Nd1 2.492 . S
O27 C11 1.239 . S
O28 Nd1 2.487 . S
O28 C18 1.241 . S
O29 Nd0 2.414 . S
O29 Nd1 2.682 . S
O29 C18 1.273 . S
O30 Nd1 2.410 . S
O30 C19 1.251 . S
O31 Nd0 2.424 . S
O31 C19 1.268 . S
H32 C4 0.930 . S
H33 C5 0.929 . S
H34 C7 0.930 . S
H35 C8 0.929 . S
H36 C13 0.930 . S
H37 C14 0.929 . S
H38 C16 0.930 1_565 S
H39 C17 0.908 1_565 S
Nd40 C42 2.836 . S
Nd40 O60 2.500 . S
Nd40 O61 2.492 . S
Nd40 O62 2.487 . S
Nd40 O63 2.682 . S
Nd40 O64 2.410 . S
Nd40 O69 2.414 . S
Nd40 O71 2.424 . S
Nd41 C51 2.836 . S
Nd41 O63 2.414 . S
Nd41 O65 2.424 . S
Nd41 O66 2.500 . S
Nd41 O67 2.492 . S
Nd41 O68 2.487 . S
Nd41 O69 2.682 . S
Nd41 O70 2.410 . S
C42 Nd40 2.836 . S
C42 C43 1.498 . S
C42 O60 1.258 . S
C42 O61 1.239 . S
C43 C42 1.498 . S
C43 C44 1.366 . S
C43 C48 1.407 . S
C44 C43 1.366 . S
C44 C45 1.392 . S
C44 H72 0.930 . S
C45 C44 1.392 . S
C45 C46 1.398 . S
C45 H73 0.929 . S
C46 C45 1.398 . S
C46 C47 1.352 . S
C47 C46 1.352 . S
C47 C48 1.384 . S
C47 H74 0.930 . S
C48 C43 1.407 . S
C48 C47 1.384 . S
C48 H75 0.929 . S
C49 O62 1.241 . S
C49 O63 1.273 . S
C50 O64 1.251 . S
C50 O65 1.268 . S
C51 Nd41 2.836 . S
C51 C52 1.498 . S
C51 O66 1.258 . S
C51 O67 1.239 . S
C52 C51 1.498 . S
C52 C53 1.366 . S
C52 C57 1.407 . S
C53 C52 1.366 . S
C53 C54 1.392 . S
C53 H76 0.930 . S
C54 C53 1.392 . S
C54 C55 1.398 . S
C54 H77 0.929 . S
C55 C54 1.398 . S
C55 C56 1.352 . S
C56 C55 1.352 . S
C56 C57 1.384 . S
C56 H78 0.930 . S
C57 C52 1.407 . S
C57 C56 1.384 . S
C57 H79 0.929 . S
C58 O68 1.241 . S
C58 O69 1.273 . S
C59 O70 1.251 . S
C59 O71 1.268 . S
O60 Nd40 2.500 . S
O60 C42 1.258 . S
O61 Nd40 2.492 . S
O61 C42 1.239 . S
O62 Nd40 2.487 . S
O62 C49 1.241 . S
O63 Nd40 2.682 . S
O63 Nd41 2.414 . S
O63 C49 1.273 . S
O64 Nd40 2.410 . S
O64 C50 1.251 . S
O65 Nd41 2.424 . S
O65 C50 1.268 . S
O66 Nd41 2.500 . S
O66 C51 1.258 . S
O67 Nd41 2.492 . S
O67 C51 1.239 . S
O68 Nd41 2.487 . S
O68 C58 1.241 . S
O69 Nd40 2.414 . S
O69 Nd41 2.682 . S
O69 C58 1.273 . S
O70 Nd41 2.410 . S
O70 C59 1.251 . S
O71 Nd40 2.424 . S
O71 C59 1.268 . S
H72 C44 0.930 . S
H73 C45 0.929 . S
H74 C47 0.930 . S
H75 C48 0.929 . S
H76 C53 0.930 . S
H77 C54 0.929 . S
H78 C56 0.930 . S
H79 C57 0.929 . S
Nd80 C82 2.836 . S
Nd80 O100 2.500 . S
Nd80 O101 2.492 . S
Nd80 O102 2.487 . S
Nd80 O103 2.682 . S
Nd80 O104 2.410 . S
Nd80 O109 2.414 . S
Nd80 O111 2.424 . S
Nd81 C91 2.836 . S
Nd81 O103 2.414 . S
Nd81 O105 2.424 . S
Nd81 O106 2.500 . S
Nd81 O107 2.492 . S
Nd81 O108 2.487 . S
Nd81 O109 2.682 . S
Nd81 O110 2.410 . S
C82 Nd80 2.836 . S
C82 C83 1.498 . S
C82 O100 1.258 . S
C82 O101 1.239 . S
C83 C82 1.498 . S
C83 C84 1.366 . S
C83 C88 1.407 . S
C84 C83 1.366 . S
C84 C85 1.392 . S
C84 H112 0.930 . S
C85 C84 1.392 . S
C85 C86 1.398 . S
C85 H113 0.929 . S
C86 C85 1.398 . S
C86 C87 1.352 . S
C87 C86 1.352 . S
C87 C88 1.384 . S
C87 H114 0.930 . S
C88 C83 1.407 . S
C88 C87 1.384 . S
C88 H115 0.929 . S
C89 O102 1.241 . S
C89 O103 1.273 . S
C90 O104 1.251 . S
C90 O105 1.268 . S
C91 Nd81 2.836 . S
C91 C92 1.498 . S
C91 O106 1.258 . S
C91 O107 1.239 . S
C92 C91 1.498 . S
C92 C93 1.366 . S
C92 C97 1.407 . S
C93 C92 1.366 . S
C93 C94 1.392 . S
C93 H116 0.930 . S
C94 C93 1.392 . S
C94 C95 1.398 . S
C94 H117 0.929 . S
C95 C94 1.398 . S
C95 C96 1.352 . S
C96 C95 1.352 . S
C96 C97 1.384 . S
C96 H118 0.930 1_565 S
C97 C92 1.407 . S
C97 C96 1.384 . S
C97 H119 0.908 1_565 S
C98 O108 1.241 . S
C98 O109 1.273 . S
C99 O110 1.251 . S
C99 O111 1.268 . S
O100 Nd80 2.500 . S
O100 C82 1.258 . S
O101 Nd80 2.492 . S
O101 C82 1.239 . S
O102 Nd80 2.487 . S
O102 C89 1.241 . S
O103 Nd80 2.682 . S
O103 Nd81 2.414 . S
O103 C89 1.273 . S
O104 Nd80 2.410 . S
O104 C90 1.251 . S
O105 Nd81 2.424 . S
O105 C90 1.268 . S
O106 Nd81 2.500 . S
O106 C91 1.258 . S
O107 Nd81 2.492 . S
O107 C91 1.239 . S
O108 Nd81 2.487 . S
O108 C98 1.241 . S
O109 Nd80 2.414 . S
O109 Nd81 2.682 . S
O109 C98 1.273 . S
O110 Nd81 2.410 . S
O110 C99 1.251 . S
O111 Nd80 2.424 . S
O111 C99 1.268 . S
H112 C84 0.930 . S
H113 C85 0.929 . S
H114 C87 0.930 . S
H115 C88 0.929 . S
H116 C93 0.930 . S
H117 C94 0.929 . S
H118 C96 0.930 1_545 S
H119 C97 0.908 1_545 S
Nd120 C122 2.867 . S
Nd120 O140 2.500 . S
Nd120 O141 2.492 . S
Nd120 O142 2.487 . S
Nd120 O143 2.682 . S
Nd120 O144 2.410 . S
Nd120 O149 2.414 . S
Nd120 O151 2.424 . S
Nd121 C131 2.836 . S
Nd121 O143 2.414 . S
Nd121 O145 2.424 . S
Nd121 O146 2.500 . S
Nd121 O147 2.492 . S
Nd121 O148 2.487 . S
Nd121 O149 2.682 . S
Nd121 O150 2.410 . S
C122 Nd120 2.867 . S
C122 C123 1.467 1_554 S
C122 O140 1.263 . S
C122 O141 1.264 . S
C123 C122 1.467 1_556 S
C123 C124 1.366 . S
C123 C128 1.407 . S
C124 C123 1.366 . S
C124 C125 1.392 . S
C124 H152 0.930 . S
C125 C124 1.392 . S
C125 C126 1.398 . S
C125 H153 0.929 . S
C126 C125 1.398 . S
C126 C127 1.352 . S
C127 C126 1.352 . S
C127 C128 1.384 . S
C127 H154 0.930 . S
C128 C123 1.407 . S
C128 C127 1.384 . S
C128 H155 0.929 . S
C129 O142 1.241 . S
C129 O143 1.273 . S
C130 O144 1.251 . S
C130 O145 1.268 . S
C131 Nd121 2.836 . S
C131 C132 1.498 . S
C131 O146 1.258 . S
C131 O147 1.239 . S
C132 C131 1.498 . S
C132 C133 1.366 . S
C132 C137 1.407 . S
C133 C132 1.366 . S
C133 C134 1.392 . S
C133 H156 0.930 . S
C134 C133 1.392 . S
C134 C135 1.398 . S
C134 H157 0.929 . S
C135 C134 1.398 . S
C135 C136 1.352 . S
C136 C135 1.352 . S
C136 C137 1.384 . S
C136 H158 0.930 . S
C137 C132 1.407 . S
C137 C136 1.384 . S
C137 H159 0.929 . S
C138 O148 1.241 . S
C138 O149 1.273 . S
C139 O150 1.251 . S
C139 O151 1.268 . S
O140 Nd120 2.500 . S
O140 C122 1.263 . S
O141 Nd120 2.492 . S
O141 C122 1.264 . S
O142 Nd120 2.487 . S
O142 C129 1.241 . S
O143 Nd120 2.682 . S
O143 Nd121 2.414 . S
O143 C129 1.273 . S
O144 Nd120 2.410 . S
O144 C130 1.251 . S
O145 Nd121 2.424 . S
O145 C130 1.268 . S
O146 Nd121 2.500 . S
O146 C131 1.258 . S
O147 Nd121 2.492 . S
O147 C131 1.239 . S
O148 Nd121 2.487 . S
O148 C138 1.241 . S
O149 Nd120 2.414 . S
O149 Nd121 2.682 . S
O149 C138 1.273 . S
O150 Nd121 2.410 . S
O150 C139 1.251 . S
O151 Nd120 2.424 . S
O151 C139 1.268 . S
H152 C124 0.930 . S
H153 C125 0.929 . S
H154 C127 0.930 . S
H155 C128 0.929 . S
H156 C133 0.930 . S
H157 C134 0.929 . S
H158 C136 0.930 . S
H159 C137 0.929 . S
Nd160 C162 2.836 . S
Nd160 O180 2.500 . S
Nd160 O181 2.492 . S
Nd160 O182 2.487 . S
Nd160 O183 2.682 . S
Nd160 O184 2.410 . S
Nd160 O189 2.414 . S
Nd160 O191 2.424 . S
Nd161 C171 2.836 . S
Nd161 O183 2.414 . S
Nd161 O185 2.424 . S
Nd161 O186 2.500 . S
Nd161 O187 2.492 . S
Nd161 O188 2.487 . S
Nd161 O189 2.682 . S
Nd161 O190 2.410 . S
C162 Nd160 2.836 . S
C162 C163 1.498 . S
C162 O180 1.258 . S
C162 O181 1.239 . S
C163 C162 1.498 . S
C163 C164 1.366 . S
C163 C168 1.407 . S
C164 C163 1.366 . S
C164 C165 1.392 . S
C164 H192 0.930 . S
C165 C164 1.392 . S
C165 C166 1.398 . S
C165 H193 0.929 . S
C166 C165 1.398 . S
C166 C167 1.352 . S
C167 C166 1.352 . S
C167 C168 1.384 . S
C167 H194 0.930 . S
C168 C163 1.407 . S
C168 C167 1.384 . S
C168 H195 0.929 . S
C169 O182 1.241 . S
C169 O183 1.273 . S
C170 O184 1.251 . S
C170 O185 1.268 . S
C171 Nd161 2.836 . S
C171 C172 1.498 . S
C171 O186 1.258 . S
C171 O187 1.239 . S
C172 C171 1.498 . S
C172 C173 1.366 . S
C172 C177 1.407 . S
C173 C172 1.366 . S
C173 C174 1.392 . S
C173 H196 0.930 . S
C174 C173 1.392 . S
C174 C175 1.398 . S
C174 H197 0.929 . S
C175 C174 1.398 . S
C175 C176 1.352 . S
C176 C175 1.352 . S
C176 C177 1.384 . S
C176 H198 0.930 1_565 S
C177 C172 1.407 . S
C177 C176 1.384 . S
C177 H199 0.908 1_565 S
C178 O188 1.241 . S
C178 O189 1.273 . S
C179 O190 1.251 . S
C179 O191 1.268 . S
O180 Nd160 2.500 . S
O180 C162 1.258 . S
O181 Nd160 2.492 . S
O181 C162 1.239 . S
O182 Nd160 2.487 . S
O182 C169 1.241 . S
O183 Nd160 2.682 . S
O183 Nd161 2.414 . S
O183 C169 1.273 . S
O184 Nd160 2.410 . S
O184 C170 1.251 . S
O185 Nd161 2.424 . S
O185 C170 1.268 . S
O186 Nd161 2.500 . S
O186 C171 1.258 . S
O187 Nd161 2.492 . S
O187 C171 1.239 . S
O188 Nd161 2.487 . S
O188 C178 1.241 . S
O189 Nd160 2.414 . S
O189 Nd161 2.682 . S
O189 C178 1.273 . S
O190 Nd161 2.410 . S
O190 C179 1.251 . S
O191 Nd160 2.424 . S
O191 C179 1.268 . S
H192 C164 0.930 . S
H193 C165 0.929 . S
H194 C167 0.930 . S
H195 C168 0.929 . S
H196 C173 0.930 . S
H197 C174 0.929 . S
H198 C176 0.930 1_545 S
H199 C177 0.908 1_545 S
Nd200 C202 2.836 . S
Nd200 O220 2.500 . S
Nd200 O221 2.492 . S
Nd200 O222 2.487 . S
Nd200 O223 2.682 . S
Nd200 O224 2.410 . S
Nd200 O229 2.414 . S
Nd200 O231 2.424 . S
Nd201 C211 2.836 . S
Nd201 O223 2.414 . S
Nd201 O225 2.424 . S
Nd201 O226 2.500 . S
Nd201 O227 2.492 . S
Nd201 O228 2.487 . S
Nd201 O229 2.682 . S
Nd201 O230 2.410 . S
C202 Nd200 2.836 . S
C202 C203 1.498 . S
C202 O220 1.258 . S
C202 O221 1.239 . S
C203 C202 1.498 . S
C203 C204 1.366 . S
C203 C208 1.407 . S
C204 C203 1.366 . S
C204 C205 1.392 . S
C204 H232 0.930 . S
C205 C204 1.392 . S
C205 C206 1.398 . S
C205 H233 0.929 . S
C206 C205 1.398 . S
C206 C207 1.352 . S
C207 C206 1.352 . S
C207 C208 1.384 . S
C207 H234 0.930 . S
C208 C203 1.407 . S
C208 C207 1.384 . S
C208 H235 0.929 . S
C209 O222 1.241 . S
C209 O223 1.273 . S
C210 O224 1.251 . S
C210 O225 1.268 . S
C211 Nd201 2.836 . S
C211 C212 1.498 . S
C211 O226 1.258 . S
C211 O227 1.239 . S
C212 C211 1.498 . S
C212 C213 1.366 . S
C212 C217 1.407 . S
C213 C212 1.366 . S
C213 C214 1.392 . S
C213 H236 0.930 . S
C214 C213 1.392 . S
C214 C215 1.398 . S
C214 H237 0.929 . S
C215 C214 1.398 . S
C215 C216 1.352 . S
C216 C215 1.352 . S
C216 C217 1.384 . S
C216 H238 0.930 . S
C217 C212 1.407 . S
C217 C216 1.384 . S
C217 H239 0.929 . S
C218 O228 1.241 . S
C218 O229 1.273 . S
C219 O230 1.251 . S
C219 O231 1.268 . S
O220 Nd200 2.500 . S
O220 C202 1.258 . S
O221 Nd200 2.492 . S
O221 C202 1.239 . S
O222 Nd200 2.487 . S
O222 C209 1.241 . S
O223 Nd200 2.682 . S
O223 Nd201 2.414 . S
O223 C209 1.273 . S
O224 Nd200 2.410 . S
O224 C210 1.251 . S
O225 Nd201 2.424 . S
O225 C210 1.268 . S
O226 Nd201 2.500 . S
O226 C211 1.258 . S
O227 Nd201 2.492 . S
O227 C211 1.239 . S
O228 Nd201 2.487 . S
O228 C218 1.241 . S
O229 Nd200 2.414 . S
O229 Nd201 2.682 . S
O229 C218 1.273 . S
O230 Nd201 2.410 . S
O230 C219 1.251 . S
O231 Nd200 2.424 . S
O231 C219 1.268 . S
H232 C204 0.930 . S
H233 C205 0.929 . S
H234 C207 0.930 . S
H235 C208 0.929 . S
H236 C213 0.930 . S
H237 C214 0.929 . S
H238 C216 0.930 . S
H239 C217 0.929 . S
Nd240 C242 2.836 . S
Nd240 O260 2.500 . S
Nd240 O261 2.492 . S
Nd240 O262 2.487 . S
Nd240 O263 2.682 . S
Nd240 O264 2.410 . S
Nd240 O269 2.414 . S
Nd240 O271 2.424 . S
Nd241 C251 2.836 . S
Nd241 O263 2.414 . S
Nd241 O265 2.424 . S
Nd241 O266 2.500 . S
Nd241 O267 2.492 . S
Nd241 O268 2.487 . S
Nd241 O269 2.682 . S
Nd241 O270 2.410 . S
C242 Nd240 2.836 . S
C242 C243 1.498 . S
C242 O260 1.258 . S
C242 O261 1.239 . S
C243 C242 1.498 . S
C243 C244 1.366 . S
C243 C248 1.407 . S
C244 C243 1.366 . S
C244 C245 1.392 . S
C244 H272 0.930 . S
C245 C244 1.392 . S
C245 C246 1.398 . S
C245 H273 0.929 . S
C246 C245 1.398 . S
C246 C247 1.352 . S
C247 C246 1.352 . S
C247 C248 1.384 . S
C247 H274 0.930 . S
C248 C243 1.407 . S
C248 C247 1.384 . S
C248 H275 0.929 . S
C249 O262 1.241 . S
C249 O263 1.273 . S
C250 O264 1.251 . S
C250 O265 1.268 . S
C251 Nd241 2.836 . S
C251 C252 1.498 . S
C251 O266 1.258 . S
C251 O267 1.239 . S
C252 C251 1.498 . S
C252 C253 1.366 . S
C252 C257 1.407 . S
C253 C252 1.366 . S
C253 C254 1.392 . S
C253 H276 0.930 . S
C254 C253 1.392 . S
C254 C255 1.398 . S
C254 H277 0.929 . S
C255 C254 1.398 . S
C255 C256 1.352 . S
C256 C255 1.352 . S
C256 C257 1.384 . S
C256 H278 0.930 1_545 S
C257 C252 1.407 . S
C257 C256 1.384 . S
C257 H279 0.908 1_545 S
C258 O268 1.241 . S
C258 O269 1.273 . S
C259 O270 1.251 . S
C259 O271 1.268 . S
O260 Nd240 2.500 . S
O260 C242 1.258 . S
O261 Nd240 2.492 . S
O261 C242 1.239 . S
O262 Nd240 2.487 . S
O262 C249 1.241 . S
O263 Nd240 2.682 . S
O263 Nd241 2.414 . S
O263 C249 1.273 . S
O264 Nd240 2.410 . S
O264 C250 1.251 . S
O265 Nd241 2.424 . S
O265 C250 1.268 . S
O266 Nd241 2.500 . S
O266 C251 1.258 . S
O267 Nd241 2.492 . S
O267 C251 1.239 . S
O268 Nd241 2.487 . S
O268 C258 1.241 . S
O269 Nd240 2.414 . S
O269 Nd241 2.682 . S
O269 C258 1.273 . S
O270 Nd241 2.410 . S
O270 C259 1.251 . S
O271 Nd240 2.424 . S
O271 C259 1.268 . S
H272 C244 0.930 . S
H273 C245 0.929 . S
H274 C247 0.930 . S
H275 C248 0.929 . S
H276 C253 0.930 . S
H277 C254 0.929 . S
H278 C256 0.930 1_565 S
H279 C257 0.908 1_565 S
Nd280 C282 2.867 . S
Nd280 O300 2.500 . S
Nd280 O301 2.492 . S
Nd280 O302 2.487 . S
Nd280 O303 2.682 . S
Nd280 O304 2.410 . S
Nd280 O309 2.414 . S
Nd280 O311 2.424 . S
Nd281 C291 2.836 . S
Nd281 O303 2.414 . S
Nd281 O305 2.424 . S
Nd281 O306 2.500 . S
Nd281 O307 2.492 . S
Nd281 O308 2.487 . S
Nd281 O309 2.682 . S
Nd281 O310 2.410 . S
C282 Nd280 2.867 . S
C282 C283 1.467 1_556 S
C282 O300 1.263 . S
C282 O301 1.264 . S
C283 C282 1.467 1_554 S
C283 C284 1.366 . S
C283 C288 1.407 . S
C284 C283 1.366 . S
C284 C285 1.392 . S
C284 H312 0.930 . S
C285 C284 1.392 . S
C285 C286 1.398 . S
C285 H313 0.929 . S
C286 C285 1.398 . S
C286 C287 1.352 . S
C287 C286 1.352 . S
C287 C288 1.384 . S
C287 H314 0.930 . S
C288 C283 1.407 . S
C288 C287 1.384 . S
C288 H315 0.929 . S
C289 O302 1.241 . S
C289 O303 1.273 . S
C290 O304 1.251 . S
C290 O305 1.268 . S
C291 Nd281 2.836 . S
C291 C292 1.498 . S
C291 O306 1.258 . S
C291 O307 1.239 . S
C292 C291 1.498 . S
C292 C293 1.366 . S
C292 C297 1.407 . S
C293 C292 1.366 . S
C293 C294 1.392 . S
C293 H316 0.930 . S
C294 C293 1.392 . S
C294 C295 1.398 . S
C294 H317 0.929 . S
C295 C294 1.398 . S
C295 C296 1.352 . S
C296 C295 1.352 . S
C296 C297 1.384 . S
C296 H318 0.930 . S
C297 C292 1.407 . S
C297 C296 1.384 . S
C297 H319 0.929 . S
C298 O308 1.241 . S
C298 O309 1.273 . S
C299 O310 1.251 . S
C299 O311 1.268 . S
O300 Nd280 2.500 . S
O300 C282 1.263 . S
O301 Nd280 2.492 . S
O301 C282 1.264 . S
O302 Nd280 2.487 . S
O302 C289 1.241 . S
O303 Nd280 2.682 . S
O303 Nd281 2.414 . S
O303 C289 1.273 . S
O304 Nd280 2.410 . S
O304 C290 1.251 . S
O305 Nd281 2.424 . S
O305 C290 1.268 . S
O306 Nd281 2.500 . S
O306 C291 1.258 . S
O307 Nd281 2.492 . S
O307 C291 1.239 . S
O308 Nd281 2.487 . S
O308 C298 1.241 . S
O309 Nd280 2.414 . S
O309 Nd281 2.682 . S
O309 C298 1.273 . S
O310 Nd281 2.410 . S
O310 C299 1.251 . S
O311 Nd280 2.424 . S
O311 C299 1.268 . S
H312 C284 0.930 . S
H313 C285 0.929 . S
H314 C287 0.930 . S
H315 C288 0.929 . S
H316 C293 0.930 . S
H317 C294 0.929 . S
H318 C296 0.930 . S
H319 C297 0.929 . S
Nd320 C322 2.836 . S
Nd320 O340 2.500 . S
Nd320 O341 2.492 . S
Nd320 O342 2.487 . S
Nd320 O343 2.682 . S
Nd320 O344 2.410 . S
Nd320 O349 2.414 . S
Nd320 O351 2.424 . S
Nd321 C331 2.836 . S
Nd321 O343 2.414 . S
Nd321 O345 2.424 . S
Nd321 O346 2.500 . S
Nd321 O347 2.492 . S
Nd321 O348 2.487 . S
Nd321 O349 2.682 . S
Nd321 O350 2.410 . S
C322 Nd320 2.836 . S
C322 C323 1.498 . S
C322 O340 1.258 . S
C322 O341 1.239 . S
C323 C322 1.498 . S
C323 C324 1.366 . S
C323 C328 1.407 . S
C324 C323 1.366 . S
C324 C325 1.392 . S
C324 H352 0.930 . S
C325 C324 1.392 . S
C325 C326 1.398 . S
C325 H353 0.929 . S
C326 C325 1.398 . S
C326 C327 1.352 . S
C327 C326 1.352 . S
C327 C328 1.384 . S
C327 H354 0.930 1_565 S
C328 C323 1.407 . S
C328 C327 1.384 . S
C328 H355 0.908 1_565 S
C329 O342 1.241 . S
C329 O343 1.273 . S
C330 O344 1.251 . S
C330 O345 1.268 . S
C331 Nd321 2.836 . S
C331 C332 1.498 . S
C331 O346 1.258 . S
C331 O347 1.239 . S
C332 C331 1.498 . S
C332 C333 1.366 . S
C332 C337 1.407 . S
C333 C332 1.366 . S
C333 C334 1.392 . S
C333 H356 0.930 . S
C334 C333 1.392 . S
C334 C335 1.398 . S
C334 H357 0.929 . S
C335 C334 1.398 . S
C335 C336 1.352 . S
C336 C335 1.352 . S
C336 C337 1.384 . S
C336 H358 0.930 . S
C337 C332 1.407 . S
C337 C336 1.384 . S
C337 H359 0.929 . S
C338 O348 1.241 . S
C338 O349 1.273 . S
C339 O350 1.251 . S
C339 O351 1.268 . S
O340 Nd320 2.500 . S
O340 C322 1.258 . S
O341 Nd320 2.492 . S
O341 C322 1.239 . S
O342 Nd320 2.487 . S
O342 C329 1.241 . S
O343 Nd320 2.682 . S
O343 Nd321 2.414 . S
O343 C329 1.273 . S
O344 Nd320 2.410 . S
O344 C330 1.251 . S
O345 Nd321 2.424 . S
O345 C330 1.268 . S
O346 Nd321 2.500 . S
O346 C331 1.258 . S
O347 Nd321 2.492 . S
O347 C331 1.239 . S
O348 Nd321 2.487 . S
O348 C338 1.241 . S
O349 Nd320 2.414 . S
O349 Nd321 2.682 . S
O349 C338 1.273 . S
O350 Nd321 2.410 . S
O350 C339 1.251 . S
O351 Nd320 2.424 . S
O351 C339 1.268 . S
H352 C324 0.930 . S
H353 C325 0.929 . S
H354 C327 0.930 1_545 S
H355 C328 0.908 1_545 S
H356 C333 0.930 . S
H357 C334 0.929 . S
H358 C336 0.930 . S
H359 C337 0.929 . S
Nd360 C362 2.836 . S
Nd360 O380 2.500 . S
Nd360 O381 2.492 . S
Nd360 O382 2.487 . S
Nd360 O383 2.682 . S
Nd360 O384 2.410 . S
Nd360 O389 2.414 . S
Nd360 O391 2.424 . S
Nd361 C371 2.836 . S
Nd361 O383 2.414 . S
Nd361 O385 2.424 . S
Nd361 O386 2.500 . S
Nd361 O387 2.492 . S
Nd361 O388 2.487 . S
Nd361 O389 2.682 . S
Nd361 O390 2.410 . S
C362 Nd360 2.836 . S
C362 C363 1.498 . S
C362 O380 1.258 . S
C362 O381 1.239 . S
C363 C362 1.498 . S
C363 C364 1.366 . S
C363 C368 1.407 . S
C364 C363 1.366 . S
C364 C365 1.392 . S
C364 H392 0.930 . S
C365 C364 1.392 . S
C365 C366 1.398 . S
C365 H393 0.929 . S
C366 C365 1.398 . S
C366 C367 1.352 . S
C367 C366 1.352 . S
C367 C368 1.384 . S
C367 H394 0.930 . S
C368 C363 1.407 . S
C368 C367 1.384 . S
C368 H395 0.929 . S
C369 O382 1.241 . S
C369 O383 1.273 . S
C370 O384 1.251 . S
C370 O385 1.268 . S
C371 Nd361 2.836 . S
C371 C372 1.498 . S
C371 O386 1.258 . S
C371 O387 1.239 . S
C372 C371 1.498 . S
C372 C373 1.366 . S
C372 C377 1.407 . S
C373 C372 1.366 . S
C373 C374 1.392 . S
C373 H396 0.930 . S
C374 C373 1.392 . S
C374 C375 1.398 . S
C374 H397 0.929 . S
C375 C374 1.398 . S
C375 C376 1.352 . S
C376 C375 1.352 . S
C376 C377 1.384 . S
C376 H398 0.930 . S
C377 C372 1.407 . S
C377 C376 1.384 . S
C377 H399 0.929 . S
C378 O388 1.241 . S
C378 O389 1.273 . S
C379 O390 1.251 . S
C379 O391 1.268 . S
O380 Nd360 2.500 . S
O380 C362 1.258 . S
O381 Nd360 2.492 . S
O381 C362 1.239 . S
O382 Nd360 2.487 . S
O382 C369 1.241 . S
O383 Nd360 2.682 . S
O383 Nd361 2.414 . S
O383 C369 1.273 . S
O384 Nd360 2.410 . S
O384 C370 1.251 . S
O385 Nd361 2.424 . S
O385 C370 1.268 . S
O386 Nd361 2.500 . S
O386 C371 1.258 . S
O387 Nd361 2.492 . S
O387 C371 1.239 . S
O388 Nd361 2.487 . S
O388 C378 1.241 . S
O389 Nd360 2.414 . S
O389 Nd361 2.682 . S
O389 C378 1.273 . S
O390 Nd361 2.410 . S
O390 C379 1.251 . S
O391 Nd360 2.424 . S
O391 C379 1.268 . S
H392 C364 0.930 . S
H393 C365 0.929 . S
H394 C367 0.930 . S
H395 C368 0.929 . S
H396 C373 0.930 . S
H397 C374 0.929 . S
H398 C376 0.930 . S
H399 C377 0.929 . S
Nd400 C402 2.836 . S
Nd400 O420 2.500 . S
Nd400 O421 2.492 . S
Nd400 O422 2.487 . S
Nd400 O423 2.682 . S
Nd400 O424 2.410 . S
Nd400 O429 2.414 . S
Nd400 O431 2.424 . S
Nd401 C411 2.836 . S
Nd401 O423 2.414 . S
Nd401 O425 2.424 . S
Nd401 O426 2.500 . S
Nd401 O427 2.492 . S
Nd401 O428 2.487 . S
Nd401 O429 2.682 . S
Nd401 O430 2.410 . S
C402 Nd400 2.836 . S
C402 C403 1.498 . S
C402 O420 1.258 . S
C402 O421 1.239 . S
C403 C402 1.498 . S
C403 C404 1.366 . S
C403 C408 1.407 . S
C404 C403 1.366 . S
C404 C405 1.392 . S
C404 H432 0.930 . S
C405 C404 1.392 . S
C405 C406 1.398 . S
C405 H433 0.929 . S
C406 C405 1.398 . S
C406 C407 1.352 . S
C407 C406 1.352 . S
C407 C408 1.384 . S
C407 H434 0.930 1_545 S
C408 C403 1.407 . S
C408 C407 1.384 . S
C408 H435 0.908 1_545 S
C409 O422 1.241 . S
C409 O423 1.273 . S
C410 O424 1.251 . S
C410 O425 1.268 . S
C411 Nd401 2.836 . S
C411 C412 1.498 . S
C411 O426 1.258 . S
C411 O427 1.239 . S
C412 C411 1.498 . S
C412 C413 1.366 . S
C412 C417 1.407 . S
C413 C412 1.366 . S
C413 C414 1.392 . S
C413 H436 0.930 . S
C414 C413 1.392 . S
C414 C415 1.398 . S
C414 H437 0.929 . S
C415 C414 1.398 . S
C415 C416 1.352 . S
C416 C415 1.352 . S
C416 C417 1.384 . S
C416 H438 0.930 . S
C417 C412 1.407 . S
C417 C416 1.384 . S
C417 H439 0.929 . S
C418 O428 1.241 . S
C418 O429 1.273 . S
C419 O430 1.251 . S
C419 O431 1.268 . S
O420 Nd400 2.500 . S
O420 C402 1.258 . S
O421 Nd400 2.492 . S
O421 C402 1.239 . S
O422 Nd400 2.487 . S
O422 C409 1.241 . S
O423 Nd400 2.682 . S
O423 Nd401 2.414 . S
O423 C409 1.273 . S
O424 Nd400 2.410 . S
O424 C410 1.251 . S
O425 Nd401 2.424 . S
O425 C410 1.268 . S
O426 Nd401 2.500 . S
O426 C411 1.258 . S
O427 Nd401 2.492 . S
O427 C411 1.239 . S
O428 Nd401 2.487 . S
O428 C418 1.241 . S
O429 Nd400 2.414 . S
O429 Nd401 2.682 . S
O429 C418 1.273 . S
O430 Nd401 2.410 . S
O430 C419 1.251 . S
O431 Nd400 2.424 . S
O431 C419 1.268 . S
H432 C404 0.930 . S
H433 C405 0.929 . S
H434 C407 0.930 1_565 S
H435 C408 0.908 1_565 S
H436 C413 0.930 . S
H437 C414 0.929 . S
H438 C416 0.930 . S
H439 C417 0.929 . S
Nd440 C442 2.836 . S
Nd440 O460 2.500 . S
Nd440 O461 2.492 . S
Nd440 O462 2.487 . S
Nd440 O463 2.682 . S
Nd440 O464 2.410 . S
Nd440 O469 2.414 . S
Nd440 O471 2.424 . S
Nd441 C451 2.867 . S
Nd441 O463 2.414 . S
Nd441 O465 2.424 . S
Nd441 O466 2.500 . S
Nd441 O467 2.492 . S
Nd441 O468 2.487 . S
Nd441 O469 2.682 . S
Nd441 O470 2.410 . S
C442 Nd440 2.836 . S
C442 C443 1.498 . S
C442 O460 1.258 . S
C442 O461 1.239 . S
C443 C442 1.498 . S
C443 C444 1.366 . S
C443 C448 1.407 . S
C444 C443 1.366 . S
C444 C445 1.392 . S
C444 H472 0.930 . S
C445 C444 1.392 . S
C445 C446 1.398 . S
C445 H473 0.929 . S
C446 C445 1.398 . S
C446 C447 1.352 . S
C447 C446 1.352 . S
C447 C448 1.384 . S
C447 H474 0.930 . S
C448 C443 1.407 . S
C448 C447 1.384 . S
C448 H475 0.929 . S
C449 O462 1.241 . S
C449 O463 1.273 . S
C450 O464 1.251 . S
C450 O465 1.268 . S
C451 Nd441 2.867 . S
C451 C452 1.467 1_556 S
C451 O466 1.263 . S
C451 O467 1.264 . S
C452 C451 1.467 1_554 S
C452 C453 1.366 . S
C452 C457 1.407 . S
C453 C452 1.366 . S
C453 C454 1.392 . S
C453 H476 0.930 . S
C454 C453 1.392 . S
C454 C455 1.398 . S
C454 H477 0.929 . S
C455 C454 1.398 . S
C455 C456 1.352 . S
C456 C455 1.352 . S
C456 C457 1.384 . S
C456 H478 0.930 . S
C457 C452 1.407 . S
C457 C456 1.384 . S
C457 H479 0.929 . S
C458 O468 1.241 . S
C458 O469 1.273 . S
C459 O470 1.251 . S
C459 O471 1.268 . S
O460 Nd440 2.500 . S
O460 C442 1.258 . S
O461 Nd440 2.492 . S
O461 C442 1.239 . S
O462 Nd440 2.487 . S
O462 C449 1.241 . S
O463 Nd440 2.682 . S
O463 Nd441 2.414 . S
O463 C449 1.273 . S
O464 Nd440 2.410 . S
O464 C450 1.251 . S
O465 Nd441 2.424 . S
O465 C450 1.268 . S
O466 Nd441 2.500 . S
O466 C451 1.263 . S
O467 Nd441 2.492 . S
O467 C451 1.264 . S
O468 Nd441 2.487 . S
O468 C458 1.241 . S
O469 Nd440 2.414 . S
O469 Nd441 2.682 . S
O469 C458 1.273 . S
O470 Nd441 2.410 . S
O470 C459 1.251 . S
O471 Nd440 2.424 . S
O471 C459 1.268 . S
H472 C444 0.930 . S
H473 C445 0.929 . S
H474 C447 0.930 . S
H475 C448 0.929 . S
H476 C453 0.930 . S
H477 C454 0.929 . S
H478 C456 0.930 . S
H479 C457 0.929 . S
Nd480 C482 2.836 . S
Nd480 O500 2.500 . S
Nd480 O501 2.492 . S
Nd480 O502 2.487 . S
Nd480 O503 2.682 . S
Nd480 O504 2.410 . S
Nd480 O509 2.414 . S
Nd480 O511 2.424 . S
Nd481 C491 2.836 . S
Nd481 O503 2.414 . S
Nd481 O505 2.424 . S
Nd481 O506 2.500 . S
Nd481 O507 2.492 . S
Nd481 O508 2.487 . S
Nd481 O509 2.682 . S
Nd481 O510 2.410 . S
C482 Nd480 2.836 . S
C482 C483 1.498 . S
C482 O500 1.258 . S
C482 O501 1.239 . S
C483 C482 1.498 . S
C483 C484 1.366 . S
C483 C488 1.407 . S
C484 C483 1.366 . S
C484 C485 1.392 . S
C484 H512 0.930 . S
C485 C484 1.392 . S
C485 C486 1.398 . S
C485 H513 0.929 . S
C486 C485 1.398 . S
C486 C487 1.352 . S
C487 C486 1.352 . S
C487 C488 1.384 . S
C487 H514 0.930 1_545 S
C488 C483 1.407 . S
C488 C487 1.384 . S
C488 H515 0.908 1_545 S
C489 O502 1.241 . S
C489 O503 1.273 . S
C490 O504 1.251 . S
C490 O505 1.268 . S
C491 Nd481 2.836 . S
C491 C492 1.498 . S
C491 O506 1.258 . S
C491 O507 1.239 . S
C492 C491 1.498 . S
C492 C493 1.366 . S
C492 C497 1.407 . S
C493 C492 1.366 . S
C493 C494 1.392 . S
C493 H516 0.930 . S
C494 C493 1.392 . S
C494 C495 1.398 . S
C494 H517 0.929 . S
C495 C494 1.398 . S
C495 C496 1.352 . S
C496 C495 1.352 . S
C496 C497 1.384 . S
C496 H518 0.930 . S
C497 C492 1.407 . S
C497 C496 1.384 . S
C497 H519 0.929 . S
C498 O508 1.241 . S
C498 O509 1.273 . S
C499 O510 1.251 . S
C499 O511 1.268 . S
O500 Nd480 2.500 . S
O500 C482 1.258 . S
O501 Nd480 2.492 . S
O501 C482 1.239 . S
O502 Nd480 2.487 . S
O502 C489 1.241 . S
O503 Nd480 2.682 . S
O503 Nd481 2.414 . S
O503 C489 1.273 . S
O504 Nd480 2.410 . S
O504 C490 1.251 . S
O505 Nd481 2.424 . S
O505 C490 1.268 . S
O506 Nd481 2.500 . S
O506 C491 1.258 . S
O507 Nd481 2.492 . S
O507 C491 1.239 . S
O508 Nd481 2.487 . S
O508 C498 1.241 . S
O509 Nd480 2.414 . S
O509 Nd481 2.682 . S
O509 C498 1.273 . S
O510 Nd481 2.410 . S
O510 C499 1.251 . S
O511 Nd480 2.424 . S
O511 C499 1.268 . S
H512 C484 0.930 . S
H513 C485 0.929 . S
H514 C487 0.930 1_565 S
H515 C488 0.908 1_565 S
H516 C493 0.930 . S
H517 C494 0.929 . S
H518 C496 0.930 . S
H519 C497 0.929 . S
Nd520 C522 2.836 . S
Nd520 O540 2.500 . S
Nd520 O541 2.492 . S
Nd520 O542 2.487 . S
Nd520 O543 2.682 . S
Nd520 O544 2.410 . S
Nd520 O549 2.414 . S
Nd520 O551 2.424 . S
Nd521 C531 2.836 . S
Nd521 O543 2.414 . S
Nd521 O545 2.424 . S
Nd521 O546 2.500 . S
Nd521 O547 2.492 . S
Nd521 O548 2.487 . S
Nd521 O549 2.682 . S
Nd521 O550 2.410 . S
C522 Nd520 2.836 . S
C522 C523 1.498 . S
C522 O540 1.258 . S
C522 O541 1.239 . S
C523 C522 1.498 . S
C523 C524 1.366 . S
C523 C528 1.407 . S
C524 C523 1.366 . S
C524 C525 1.392 . S
C524 H552 0.930 . S
C525 C524 1.392 . S
C525 C526 1.398 . S
C525 H553 0.929 . S
C526 C525 1.398 . S
C526 C527 1.352 . S
C527 C526 1.352 . S
C527 C528 1.384 . S
C527 H554 0.930 . S
C528 C523 1.407 . S
C528 C527 1.384 . S
C528 H555 0.929 . S
C529 O542 1.241 . S
C529 O543 1.273 . S
C530 O544 1.251 . S
C530 O545 1.268 . S
C531 Nd521 2.836 . S
C531 C532 1.498 . S
C531 O546 1.258 . S
C531 O547 1.239 . S
C532 C531 1.498 . S
C532 C533 1.366 . S
C532 C537 1.407 . S
C533 C532 1.366 . S
C533 C534 1.392 . S
C533 H556 0.930 . S
C534 C533 1.392 . S
C534 C535 1.398 . S
C534 H557 0.929 . S
C535 C534 1.398 . S
C535 C536 1.352 . S
C536 C535 1.352 . S
C536 C537 1.384 . S
C536 H558 0.930 . S
C537 C532 1.407 . S
C537 C536 1.384 . S
C537 H559 0.929 . S
C538 O548 1.241 . S
C538 O549 1.273 . S
C539 O550 1.251 . S
C539 O551 1.268 . S
O540 Nd520 2.500 . S
O540 C522 1.258 . S
O541 Nd520 2.492 . S
O541 C522 1.239 . S
O542 Nd520 2.487 . S
O542 C529 1.241 . S
O543 Nd520 2.682 . S
O543 Nd521 2.414 . S
O543 C529 1.273 . S
O544 Nd520 2.410 . S
O544 C530 1.251 . S
O545 Nd521 2.424 . S
O545 C530 1.268 . S
O546 Nd521 2.500 . S
O546 C531 1.258 . S
O547 Nd521 2.492 . S
O547 C531 1.239 . S
O548 Nd521 2.487 . S
O548 C538 1.241 . S
O549 Nd520 2.414 . S
O549 Nd521 2.682 . S
O549 C538 1.273 . S
O550 Nd521 2.410 . S
O550 C539 1.251 . S
O551 Nd520 2.424 . S
O551 C539 1.268 . S
H552 C524 0.930 . S
H553 C525 0.929 . S
H554 C527 0.930 . S
H555 C528 0.929 . S
H556 C533 0.930 . S
H557 C534 0.929 . S
H558 C536 0.930 . S
H559 C537 0.929 . S
Nd560 C562 2.836 . S
Nd560 O580 2.500 . S
Nd560 O581 2.492 . S
Nd560 O582 2.487 . S
Nd560 O583 2.682 . S
Nd560 O584 2.410 . S
Nd560 O589 2.414 . S
Nd560 O591 2.424 . S
Nd561 C571 2.836 . S
Nd561 O583 2.414 . S
Nd561 O585 2.424 . S
Nd561 O586 2.500 . S
Nd561 O587 2.492 . S
Nd561 O588 2.487 . S
Nd561 O589 2.682 . S
Nd561 O590 2.410 . S
C562 Nd560 2.836 . S
C562 C563 1.498 . S
C562 O580 1.258 . S
C562 O581 1.239 . S
C563 C562 1.498 . S
C563 C564 1.366 . S
C563 C568 1.407 . S
C564 C563 1.366 . S
C564 C565 1.392 . S
C564 H592 0.930 . S
C565 C564 1.392 . S
C565 C566 1.398 . S
C565 H593 0.929 . S
C566 C565 1.398 . S
C566 C567 1.352 . S
C567 C566 1.352 . S
C567 C568 1.384 . S
C567 H594 0.930 1_565 S
C568 C563 1.407 . S
C568 C567 1.384 . S
C568 H595 0.908 1_565 S
C569 O582 1.241 . S
C569 O583 1.273 . S
C570 O584 1.251 . S
C570 O585 1.268 . S
C571 Nd561 2.836 . S
C571 C572 1.498 . S
C571 O586 1.258 . S
C571 O587 1.239 . S
C572 C571 1.498 . S
C572 C573 1.366 . S
C572 C577 1.407 . S
C573 C572 1.366 . S
C573 C574 1.392 . S
C573 H596 0.930 . S
C574 C573 1.392 . S
C574 C575 1.398 . S
C574 H597 0.929 . S
C575 C574 1.398 . S
C575 C576 1.352 . S
C576 C575 1.352 . S
C576 C577 1.384 . S
C576 H598 0.930 . S
C577 C572 1.407 . S
C577 C576 1.384 . S
C577 H599 0.929 . S
C578 O588 1.241 . S
C578 O589 1.273 . S
C579 O590 1.251 . S
C579 O591 1.268 . S
O580 Nd560 2.500 . S
O580 C562 1.258 . S
O581 Nd560 2.492 . S
O581 C562 1.239 . S
O582 Nd560 2.487 . S
O582 C569 1.241 . S
O583 Nd560 2.682 . S
O583 Nd561 2.414 . S
O583 C569 1.273 . S
O584 Nd560 2.410 . S
O584 C570 1.251 . S
O585 Nd561 2.424 . S
O585 C570 1.268 . S
O586 Nd561 2.500 . S
O586 C571 1.258 . S
O587 Nd561 2.492 . S
O587 C571 1.239 . S
O588 Nd561 2.487 . S
O588 C578 1.241 . S
O589 Nd560 2.414 . S
O589 Nd561 2.682 . S
O589 C578 1.273 . S
O590 Nd561 2.410 . S
O590 C579 1.251 . S
O591 Nd560 2.424 . S
O591 C579 1.268 . S
H592 C564 0.930 . S
H593 C565 0.929 . S
H594 C567 0.930 1_545 S
H595 C568 0.908 1_545 S
H596 C573 0.930 . S
H597 C574 0.929 . S
H598 C576 0.930 . S
H599 C577 0.929 . S
Nd600 C602 2.836 . S
Nd600 O620 2.500 . S
Nd600 O621 2.492 . S
Nd600 O622 2.487 . S
Nd600 O623 2.682 . S
Nd600 O624 2.410 . S
Nd600 O629 2.414 . S
Nd600 O631 2.424 . S
Nd601 C611 2.867 . S
Nd601 O623 2.414 . S
Nd601 O625 2.424 . S
Nd601 O626 2.500 . S
Nd601 O627 2.492 . S
Nd601 O628 2.487 . S
Nd601 O629 2.682 . S
Nd601 O630 2.410 . S
C602 Nd600 2.836 . S
C602 C603 1.498 . S
C602 O620 1.258 . S
C602 O621 1.239 . S
C603 C602 1.498 . S
C603 C604 1.366 . S
C603 C608 1.407 . S
C604 C603 1.366 . S
C604 C605 1.392 . S
C604 H632 0.930 . S
C605 C604 1.392 . S
C605 C606 1.398 . S
C605 H633 0.929 . S
C606 C605 1.398 . S
C606 C607 1.352 . S
C607 C606 1.352 . S
C607 C608 1.384 . S
C607 H634 0.930 . S
C608 C603 1.407 . S
C608 C607 1.384 . S
C608 H635 0.929 . S
C609 O622 1.241 . S
C609 O623 1.273 . S
C610 O624 1.251 . S
C610 O625 1.268 . S
C611 Nd601 2.867 . S
C611 C612 1.467 1_554 S
C611 O626 1.263 . S
C611 O627 1.264 . S
C612 C611 1.467 1_556 S
C612 C613 1.366 . S
C612 C617 1.407 . S
C613 C612 1.366 . S
C613 C614 1.392 . S
C613 H636 0.930 . S
C614 C613 1.392 . S
C614 C615 1.398 . S
C614 H637 0.929 . S
C615 C614 1.398 . S
C615 C616 1.352 . S
C616 C615 1.352 . S
C616 C617 1.384 . S
C616 H638 0.930 . S
C617 C612 1.407 . S
C617 C616 1.384 . S
C617 H639 0.929 . S
C618 O628 1.241 . S
C618 O629 1.273 . S
C619 O630 1.251 . S
C619 O631 1.268 . S
O620 Nd600 2.500 . S
O620 C602 1.258 . S
O621 Nd600 2.492 . S
O621 C602 1.239 . S
O622 Nd600 2.487 . S
O622 C609 1.241 . S
O623 Nd600 2.682 . S
O623 Nd601 2.414 . S
O623 C609 1.273 . S
O624 Nd600 2.410 . S
O624 C610 1.251 . S
O625 Nd601 2.424 . S
O625 C610 1.268 . S
O626 Nd601 2.500 . S
O626 C611 1.263 . S
O627 Nd601 2.492 . S
O627 C611 1.264 . S
O628 Nd601 2.487 . S
O628 C618 1.241 . S
O629 Nd600 2.414 . S
O629 Nd601 2.682 . S
O629 C618 1.273 . S
O630 Nd601 2.410 . S
O630 C619 1.251 . S
O631 Nd600 2.424 . S
O631 C619 1.268 . S
H632 C604 0.930 . S
H633 C605 0.929 . S
H634 C607 0.930 . S
H635 C608 0.929 . S
H636 C613 0.930 . S
H637 C614 0.929 . S
H638 C616 0.930 . S
H639 C617 0.929 . S
Nd640 C642 2.836 . S
Nd640 O660 2.500 . S
Nd640 O661 2.492 . S
Nd640 O662 2.487 . S
Nd640 O663 2.682 . S
Nd640 O664 2.410 . S
Nd640 O669 2.414 . S
Nd640 O671 2.424 . S
Nd641 C651 2.836 . S
Nd641 O663 2.414 . S
Nd641 O665 2.424 . S
Nd641 O666 2.500 . S
Nd641 O667 2.492 . S
Nd641 O668 2.487 . S
Nd641 O669 2.682 . S
Nd641 O670 2.410 . S
C642 Nd640 2.836 . S
C642 C643 1.498 . S
C642 O660 1.258 . S
C642 O661 1.239 . S
C643 C642 1.498 . S
C643 C644 1.366 . S
C643 C648 1.407 . S
C644 C643 1.366 . S
C644 C645 1.392 . S
C644 H672 0.930 . S
C645 C644 1.392 . S
C645 C646 1.398 . S
C645 H673 0.929 . S
C646 C645 1.398 . S
C646 C647 1.352 . S
C647 C646 1.352 . S
C647 C648 1.384 . S
C647 H674 0.930 . S
C648 C643 1.407 . S
C648 C647 1.384 . S
C648 H675 0.929 . S
C649 O662 1.241 . S
C649 O663 1.273 . S
C650 O664 1.251 . S
C650 O665 1.268 . S
C651 Nd641 2.836 . S
C651 C652 1.498 . S
C651 O666 1.258 . S
C651 O667 1.239 . S
C652 C651 1.498 . S
C652 C653 1.366 . S
C652 C657 1.407 . S
C653 C652 1.366 . S
C653 C654 1.392 . S
C653 H676 0.930 . S
C654 C653 1.392 . S
C654 C655 1.398 . S
C654 H677 0.929 . S
C655 C654 1.398 . S
C655 C656 1.352 . S
C656 C655 1.352 . S
C656 C657 1.384 . S
C656 H678 0.930 . S
C657 C652 1.407 . S
C657 C656 1.384 . S
C657 H679 0.929 . S
C658 O668 1.241 . S
C658 O669 1.273 . S
C659 O670 1.251 . S
C659 O671 1.268 . S
O660 Nd640 2.500 . S
O660 C642 1.258 . S
O661 Nd640 2.492 . S
O661 C642 1.239 . S
O662 Nd640 2.487 . S
O662 C649 1.241 . S
O663 Nd640 2.682 . S
O663 Nd641 2.414 . S
O663 C649 1.273 . S
O664 Nd640 2.410 . S
O664 C650 1.251 . S
O665 Nd641 2.424 . S
O665 C650 1.268 . S
O666 Nd641 2.500 . S
O666 C651 1.258 . S
O667 Nd641 2.492 . S
O667 C651 1.239 . S
O668 Nd641 2.487 . S
O668 C658 1.241 . S
O669 Nd640 2.414 . S
O669 Nd641 2.682 . S
O669 C658 1.273 . S
O670 Nd641 2.410 . S
O670 C659 1.251 . S
O671 Nd640 2.424 . S
O671 C659 1.268 . S
H672 C644 0.930 . S
H673 C645 0.929 . S
H674 C647 0.930 . S
H675 C648 0.929 . S
H676 C653 0.930 . S
H677 C654 0.929 . S
H678 C656 0.930 . S
H679 C657 0.929 . S
Nd680 C682 2.867 . S
Nd680 O700 2.500 . S
Nd680 O701 2.492 . S
Nd680 O702 2.487 . S
Nd680 O703 2.682 . S
Nd680 O704 2.410 . S
Nd680 O709 2.414 . S
Nd680 O711 2.424 . S
Nd681 C691 2.836 . S
Nd681 O703 2.414 . S
Nd681 O705 2.424 . S
Nd681 O706 2.500 . S
Nd681 O707 2.492 . S
Nd681 O708 2.487 . S
Nd681 O709 2.682 . S
Nd681 O710 2.410 . S
C682 Nd680 2.867 . S
C682 C683 1.467 1_554 S
C682 O700 1.263 . S
C682 O701 1.264 . S
C683 C682 1.467 1_556 S
C683 C684 1.366 . S
C683 C688 1.407 . S
C684 C683 1.366 . S
C684 C685 1.392 . S
C684 H712 0.930 . S
C685 C684 1.392 . S
C685 C686 1.398 . S
C685 H713 0.929 . S
C686 C685 1.398 . S
C686 C687 1.352 . S
C687 C686 1.352 . S
C687 C688 1.384 . S
C687 H714 0.930 . S
C688 C683 1.407 . S
C688 C687 1.384 . S
C688 H715 0.929 . S
C689 O702 1.241 . S
C689 O703 1.273 . S
C690 O704 1.251 . S
C690 O705 1.268 . S
C691 Nd681 2.836 . S
C691 C692 1.498 . S
C691 O706 1.258 . S
C691 O707 1.239 . S
C692 C691 1.498 . S
C692 C693 1.366 . S
C692 C697 1.407 . S
C693 C692 1.366 . S
C693 C694 1.392 . S
C693 H716 0.930 . S
C694 C693 1.392 . S
C694 C695 1.398 . S
C694 H717 0.929 . S
C695 C694 1.398 . S
C695 C696 1.352 . S
C696 C695 1.352 . S
C696 C697 1.384 . S
C696 H718 0.930 . S
C697 C692 1.407 . S
C697 C696 1.384 . S
C697 H719 0.929 . S
C698 O708 1.241 . S
C698 O709 1.273 . S
C699 O710 1.251 . S
C699 O711 1.268 . S
O700 Nd680 2.500 . S
O700 C682 1.263 . S
O701 Nd680 2.492 . S
O701 C682 1.264 . S
O702 Nd680 2.487 . S
O702 C689 1.241 . S
O703 Nd680 2.682 . S
O703 Nd681 2.414 . S
O703 C689 1.273 . S
O704 Nd680 2.410 . S
O704 C690 1.251 . S
O705 Nd681 2.424 . S
O705 C690 1.268 . S
O706 Nd681 2.500 . S
O706 C691 1.258 . S
O707 Nd681 2.492 . S
O707 C691 1.239 . S
O708 Nd681 2.487 . S
O708 C698 1.241 . S
O709 Nd680 2.414 . S
O709 Nd681 2.682 . S
O709 C698 1.273 . S
O710 Nd681 2.410 . S
O710 C699 1.251 . S
O711 Nd680 2.424 . S
O711 C699 1.268 . S
H712 C684 0.930 . S
H713 C685 0.929 . S
H714 C687 0.930 . S
H715 C688 0.929 . S
H716 C693 0.930 . S
H717 C694 0.929 . S
H718 C696 0.930 . S
H719 C697 0.929 . S
Nd720 C722 2.836 . S
Nd720 O740 2.500 . S
Nd720 O741 2.492 . S
Nd720 O742 2.487 . S
Nd720 O743 2.682 . S
Nd720 O744 2.410 . S
Nd720 O749 2.414 . S
Nd720 O751 2.424 . S
Nd721 C731 2.836 . S
Nd721 O743 2.414 . S
Nd721 O745 2.424 . S
Nd721 O746 2.500 . S
Nd721 O747 2.492 . S
Nd721 O748 2.487 . S
Nd721 O749 2.682 . S
Nd721 O750 2.410 . S
C722 Nd720 2.836 . S
C722 C723 1.498 . S
C722 O740 1.258 . S
C722 O741 1.239 . S
C723 C722 1.498 . S
C723 C724 1.366 . S
C723 C728 1.407 . S
C724 C723 1.366 . S
C724 C725 1.392 . S
C724 H752 0.930 . S
C725 C724 1.392 . S
C725 C726 1.398 . S
C725 H753 0.929 . S
C726 C725 1.398 . S
C726 C727 1.352 . S
C727 C726 1.352 . S
C727 C728 1.384 . S
C727 H754 0.930 . S
C728 C723 1.407 . S
C728 C727 1.384 . S
C728 H755 0.929 . S
C729 O742 1.241 . S
C729 O743 1.273 . S
C730 O744 1.251 . S
C730 O745 1.268 . S
C731 Nd721 2.836 . S
C731 C732 1.498 . S
C731 O746 1.258 . S
C731 O747 1.239 . S
C732 C731 1.498 . S
C732 C733 1.366 . S
C732 C737 1.407 . S
C733 C732 1.366 . S
C733 C734 1.392 . S
C733 H756 0.930 . S
C734 C733 1.392 . S
C734 C735 1.398 . S
C734 H757 0.929 . S
C735 C734 1.398 . S
C735 C736 1.352 . S
C736 C735 1.352 . S
C736 C737 1.384 . S
C736 H758 0.930 . S
C737 C732 1.407 . S
C737 C736 1.384 . S
C737 H759 0.929 . S
C738 O748 1.241 . S
C738 O749 1.273 . S
C739 O750 1.251 . S
C739 O751 1.268 . S
O740 Nd720 2.500 . S
O740 C722 1.258 . S
O741 Nd720 2.492 . S
O741 C722 1.239 . S
O742 Nd720 2.487 . S
O742 C729 1.241 . S
O743 Nd720 2.682 . S
O743 Nd721 2.414 . S
O743 C729 1.273 . S
O744 Nd720 2.410 . S
O744 C730 1.251 . S
O745 Nd721 2.424 . S
O745 C730 1.268 . S
O746 Nd721 2.500 . S
O746 C731 1.258 . S
O747 Nd721 2.492 . S
O747 C731 1.239 . S
O748 Nd721 2.487 . S
O748 C738 1.241 . S
O749 Nd720 2.414 . S
O749 Nd721 2.682 . S
O749 C738 1.273 . S
O750 Nd721 2.410 . S
O750 C739 1.251 . S
O751 Nd720 2.424 . S
O751 C739 1.268 . S
H752 C724 0.930 . S
H753 C725 0.929 . S
H754 C727 0.930 . S
H755 C728 0.929 . S
H756 C733 0.930 . S
H757 C734 0.929 . S
H758 C736 0.930 . S
H759 C737 0.929 . S
Nd760 C762 2.836 . S
Nd760 O780 2.500 . S
Nd760 O781 2.492 . S
Nd760 O782 2.487 . S
Nd760 O783 2.682 . S
Nd760 O784 2.410 . S
Nd760 O789 2.414 . S
Nd760 O791 2.424 . S
Nd761 C771 2.836 . S
Nd761 O783 2.414 . S
Nd761 O785 2.424 . S
Nd761 O786 2.500 . S
Nd761 O787 2.492 . S
Nd761 O788 2.487 . S
Nd761 O789 2.682 . S
Nd761 O790 2.410 . S
C762 Nd760 2.836 . S
C762 C763 1.498 . S
C762 O780 1.258 . S
C762 O781 1.239 . S
C763 C762 1.498 . S
C763 C764 1.366 . S
C763 C768 1.407 . S
C764 C763 1.366 . S
C764 C765 1.392 . S
C764 H792 0.930 . S
C765 C764 1.392 . S
C765 C766 1.398 . S
C765 H793 0.929 . S
C766 C765 1.398 . S
C766 C767 1.352 . S
C767 C766 1.352 . S
C767 C768 1.384 . S
C767 H794 0.930 . S
C768 C763 1.407 . S
C768 C767 1.384 . S
C768 H795 0.929 . S
C769 O782 1.241 . S
C769 O783 1.273 . S
C770 O784 1.251 . S
C770 O785 1.268 . S
C771 Nd761 2.836 . S
C771 C772 1.498 . S
C771 O786 1.258 . S
C771 O787 1.239 . S
C772 C771 1.498 . S
C772 C773 1.366 . S
C772 C777 1.407 . S
C773 C772 1.366 . S
C773 C774 1.392 . S
C773 H796 0.930 . S
C774 C773 1.392 . S
C774 C775 1.398 . S
C774 H797 0.929 . S
C775 C774 1.398 . S
C775 C776 1.352 . S
C776 C775 1.352 . S
C776 C777 1.384 . S
C776 H798 0.930 . S
C777 C772 1.407 . S
C777 C776 1.384 . S
C777 H799 0.929 . S
C778 O788 1.241 . S
C778 O789 1.273 . S
C779 O790 1.251 . S
C779 O791 1.268 . S
O780 Nd760 2.500 . S
O780 C762 1.258 . S
O781 Nd760 2.492 . S
O781 C762 1.239 . S
O782 Nd760 2.487 . S
O782 C769 1.241 . S
O783 Nd760 2.682 . S
O783 Nd761 2.414 . S
O783 C769 1.273 . S
O784 Nd760 2.410 . S
O784 C770 1.251 . S
O785 Nd761 2.424 . S
O785 C770 1.268 . S
O786 Nd761 2.500 . S
O786 C771 1.258 . S
O787 Nd761 2.492 . S
O787 C771 1.239 . S
O788 Nd761 2.487 . S
O788 C778 1.241 . S
O789 Nd760 2.414 . S
O789 Nd761 2.682 . S
O789 C778 1.273 . S
O790 Nd761 2.410 . S
O790 C779 1.251 . S
O791 Nd760 2.424 . S
O791 C779 1.268 . S
H792 C764 0.930 . S
H793 C765 0.929 . S
H794 C767 0.930 . S
H795 C768 0.929 . S
H796 C773 0.930 . S
H797 C774 0.929 . S
H798 C776 0.930 . S
H799 C777 0.929 . S
Nd800 C802 2.836 . S
Nd800 O820 2.500 . S
Nd800 O821 2.492 . S
Nd800 O822 2.487 . S
Nd800 O823 2.682 . S
Nd800 O824 2.410 . S
Nd800 O829 2.414 . S
Nd800 O831 2.424 . S
Nd801 C811 2.836 . S
Nd801 O823 2.414 . S
Nd801 O825 2.424 . S
Nd801 O826 2.500 . S
Nd801 O827 2.492 . S
Nd801 O828 2.487 . S
Nd801 O829 2.682 . S
Nd801 O830 2.410 . S
C802 Nd800 2.836 . S
C802 C803 1.498 . S
C802 O820 1.258 . S
C802 O821 1.239 . S
C803 C802 1.498 . S
C803 C804 1.366 . S
C803 C808 1.407 . S
C804 C803 1.366 . S
C804 C805 1.392 . S
C804 H832 0.930 . S
C805 C804 1.392 . S
C805 C806 1.398 . S
C805 H833 0.929 . S
C806 C805 1.398 . S
C806 C807 1.352 . S
C807 C806 1.352 . S
C807 C808 1.384 . S
C807 H834 0.930 . S
C808 C803 1.407 . S
C808 C807 1.384 . S
C808 H835 0.929 . S
C809 O822 1.241 . S
C809 O823 1.273 . S
C810 O824 1.251 . S
C810 O825 1.268 . S
C811 Nd801 2.836 . S
C811 C812 1.498 . S
C811 O826 1.258 . S
C811 O827 1.239 . S
C812 C811 1.498 . S
C812 C813 1.366 . S
C812 C817 1.407 . S
C813 C812 1.366 . S
C813 C814 1.392 . S
C813 H836 0.930 . S
C814 C813 1.392 . S
C814 C815 1.398 . S
C814 H837 0.929 . S
C815 C814 1.398 . S
C815 C816 1.352 . S
C816 C815 1.352 . S
C816 C817 1.384 . S
C816 H838 0.930 . S
C817 C812 1.407 . S
C817 C816 1.384 . S
C817 H839 0.929 . S
C818 O828 1.241 . S
C818 O829 1.273 . S
C819 O830 1.251 . S
C819 O831 1.268 . S
O820 Nd800 2.500 . S
O820 C802 1.258 . S
O821 Nd800 2.492 . S
O821 C802 1.239 . S
O822 Nd800 2.487 . S
O822 C809 1.241 . S
O823 Nd800 2.682 . S
O823 Nd801 2.414 . S
O823 C809 1.273 . S
O824 Nd800 2.410 . S
O824 C810 1.251 . S
O825 Nd801 2.424 . S
O825 C810 1.268 . S
O826 Nd801 2.500 . S
O826 C811 1.258 . S
O827 Nd801 2.492 . S
O827 C811 1.239 . S
O828 Nd801 2.487 . S
O828 C818 1.241 . S
O829 Nd800 2.414 . S
O829 Nd801 2.682 . S
O829 C818 1.273 . S
O830 Nd801 2.410 . S
O830 C819 1.251 . S
O831 Nd800 2.424 . S
O831 C819 1.268 . S
H832 C804 0.930 . S
H833 C805 0.929 . S
H834 C807 0.930 . S
H835 C808 0.929 . S
H836 C813 0.930 . S
H837 C814 0.929 . S
H838 C816 0.930 . S
H839 C817 0.929 . S
Nd840 C842 2.867 . S
Nd840 O860 2.500 . S
Nd840 O861 2.492 . S
Nd840 O862 2.487 . S
Nd840 O863 2.682 . S
Nd840 O864 2.410 . S
Nd840 O869 2.414 . S
Nd840 O871 2.424 . S
Nd841 C851 2.836 . S
Nd841 O863 2.414 . S
Nd841 O865 2.424 . S
Nd841 O866 2.500 . S
Nd841 O867 2.492 . S
Nd841 O868 2.487 . S
Nd841 O869 2.682 . S
Nd841 O870 2.410 . S
C842 Nd840 2.867 . S
C842 C843 1.467 1_556 S
C842 O860 1.263 . S
C842 O861 1.264 . S
C843 C842 1.467 1_554 S
C843 C844 1.366 . S
C843 C848 1.407 . S
C844 C843 1.366 . S
C844 C845 1.392 . S
C844 H872 0.930 . S
C845 C844 1.392 . S
C845 C846 1.398 . S
C845 H873 0.929 . S
C846 C845 1.398 . S
C846 C847 1.352 . S
C847 C846 1.352 . S
C847 C848 1.384 . S
C847 H874 0.930 . S
C848 C843 1.407 . S
C848 C847 1.384 . S
C848 H875 0.929 . S
C849 O862 1.241 . S
C849 O863 1.273 . S
C850 O864 1.251 . S
C850 O865 1.268 . S
C851 Nd841 2.836 . S
C851 C852 1.498 . S
C851 O866 1.258 . S
C851 O867 1.239 . S
C852 C851 1.498 . S
C852 C853 1.366 . S
C852 C857 1.407 . S
C853 C852 1.366 . S
C853 C854 1.392 . S
C853 H876 0.930 . S
C854 C853 1.392 . S
C854 C855 1.398 . S
C854 H877 0.929 . S
C855 C854 1.398 . S
C855 C856 1.352 . S
C856 C855 1.352 . S
C856 C857 1.384 . S
C856 H878 0.930 . S
C857 C852 1.407 . S
C857 C856 1.384 . S
C857 H879 0.929 . S
C858 O868 1.241 . S
C858 O869 1.273 . S
C859 O870 1.251 . S
C859 O871 1.268 . S
O860 Nd840 2.500 . S
O860 C842 1.263 . S
O861 Nd840 2.492 . S
O861 C842 1.264 . S
O862 Nd840 2.487 . S
O862 C849 1.241 . S
O863 Nd840 2.682 . S
O863 Nd841 2.414 . S
O863 C849 1.273 . S
O864 Nd840 2.410 . S
O864 C850 1.251 . S
O865 Nd841 2.424 . S
O865 C850 1.268 . S
O866 Nd841 2.500 . S
O866 C851 1.258 . S
O867 Nd841 2.492 . S
O867 C851 1.239 . S
O868 Nd841 2.487 . S
O868 C858 1.241 . S
O869 Nd840 2.414 . S
O869 Nd841 2.682 . S
O869 C858 1.273 . S
O870 Nd841 2.410 . S
O870 C859 1.251 . S
O871 Nd840 2.424 . S
O871 C859 1.268 . S
H872 C844 0.930 . S
H873 C845 0.929 . S
H874 C847 0.930 . S
H875 C848 0.929 . S
H876 C853 0.930 . S
H877 C854 0.929 . S
H878 C856 0.930 . S
H879 C857 0.929 . S
Nd880 C882 2.836 . S
Nd880 O900 2.500 . S
Nd880 O901 2.492 . S
Nd880 O902 2.487 . S
Nd880 O903 2.682 . S
Nd880 O904 2.410 . S
Nd880 O909 2.414 . S
Nd880 O911 2.424 . S
Nd881 C891 2.836 . S
Nd881 O903 2.414 . S
Nd881 O905 2.424 . S
Nd881 O906 2.500 . S
Nd881 O907 2.492 . S
Nd881 O908 2.487 . S
Nd881 O909 2.682 . S
Nd881 O910 2.410 . S
C882 Nd880 2.836 . S
C882 C883 1.498 . S
C882 O900 1.258 . S
C882 O901 1.239 . S
C883 C882 1.498 . S
C883 C884 1.366 . S
C883 C888 1.407 . S
C884 C883 1.366 . S
C884 C885 1.392 . S
C884 H912 0.930 . S
C885 C884 1.392 . S
C885 C886 1.398 . S
C885 H913 0.929 . S
C886 C885 1.398 . S
C886 C887 1.352 . S
C887 C886 1.352 . S
C887 C888 1.384 . S
C887 H914 0.930 . S
C888 C883 1.407 . S
C888 C887 1.384 . S
C888 H915 0.929 . S
C889 O902 1.241 . S
C889 O903 1.273 . S
C890 O904 1.251 . S
C890 O905 1.268 . S
C891 Nd881 2.836 . S
C891 C892 1.498 . S
C891 O906 1.258 . S
C891 O907 1.239 . S
C892 C891 1.498 . S
C892 C893 1.366 . S
C892 C897 1.407 . S
C893 C892 1.366 . S
C893 C894 1.392 . S
C893 H916 0.930 . S
C894 C893 1.392 . S
C894 C895 1.398 . S
C894 H917 0.929 . S
C895 C894 1.398 . S
C895 C896 1.352 . S
C896 C895 1.352 . S
C896 C897 1.384 . S
C896 H918 0.930 . S
C897 C892 1.407 . S
C897 C896 1.384 . S
C897 H919 0.929 . S
C898 O908 1.241 . S
C898 O909 1.273 . S
C899 O910 1.251 . S
C899 O911 1.268 . S
O900 Nd880 2.500 . S
O900 C882 1.258 . S
O901 Nd880 2.492 . S
O901 C882 1.239 . S
O902 Nd880 2.487 . S
O902 C889 1.241 . S
O903 Nd880 2.682 . S
O903 Nd881 2.414 . S
O903 C889 1.273 . S
O904 Nd880 2.410 . S
O904 C890 1.251 . S
O905 Nd881 2.424 . S
O905 C890 1.268 . S
O906 Nd881 2.500 . S
O906 C891 1.258 . S
O907 Nd881 2.492 . S
O907 C891 1.239 . S
O908 Nd881 2.487 . S
O908 C898 1.241 . S
O909 Nd880 2.414 . S
O909 Nd881 2.682 . S
O909 C898 1.273 . S
O910 Nd881 2.410 . S
O910 C899 1.251 . S
O911 Nd880 2.424 . S
O911 C899 1.268 . S
H912 C884 0.930 . S
H913 C885 0.929 . S
H914 C887 0.930 . S
H915 C888 0.929 . S
H916 C893 0.930 . S
H917 C894 0.929 . S
H918 C896 0.930 . S
H919 C897 0.929 . S
Nd920 C922 2.836 . S
Nd920 O940 2.500 . S
Nd920 O941 2.492 . S
Nd920 O942 2.487 . S
Nd920 O943 2.682 . S
Nd920 O944 2.410 . S
Nd920 O949 2.414 . S
Nd920 O951 2.424 . S
Nd921 C931 2.836 . S
Nd921 O943 2.414 . S
Nd921 O945 2.424 . S
Nd921 O946 2.500 . S
Nd921 O947 2.492 . S
Nd921 O948 2.487 . S
Nd921 O949 2.682 . S
Nd921 O950 2.410 . S
C922 Nd920 2.836 . S
C922 C923 1.498 . S
C922 O940 1.258 . S
C922 O941 1.239 . S
C923 C922 1.498 . S
C923 C924 1.366 . S
C923 C928 1.407 . S
C924 C923 1.366 . S
C924 C925 1.392 . S
C924 H952 0.930 . S
C925 C924 1.392 . S
C925 C926 1.398 . S
C925 H953 0.929 . S
C926 C925 1.398 . S
C926 C927 1.352 . S
C927 C926 1.352 . S
C927 C928 1.384 . S
C927 H954 0.930 . S
C928 C923 1.407 . S
C928 C927 1.384 . S
C928 H955 0.929 . S
C929 O942 1.241 . S
C929 O943 1.273 . S
C930 O944 1.251 . S
C930 O945 1.268 . S
C931 Nd921 2.836 . S
C931 C932 1.498 . S
C931 O946 1.258 . S
C931 O947 1.239 . S
C932 C931 1.498 . S
C932 C933 1.366 . S
C932 C937 1.407 . S
C933 C932 1.366 . S
C933 C934 1.392 . S
C933 H956 0.930 . S
C934 C933 1.392 . S
C934 C935 1.398 . S
C934 H957 0.929 . S
C935 C934 1.398 . S
C935 C936 1.352 . S
C936 C935 1.352 . S
C936 C937 1.384 . S
C936 H958 0.930 . S
C937 C932 1.407 . S
C937 C936 1.384 . S
C937 H959 0.929 . S
C938 O948 1.241 . S
C938 O949 1.273 . S
C939 O950 1.251 . S
C939 O951 1.268 . S
O940 Nd920 2.500 . S
O940 C922 1.258 . S
O941 Nd920 2.492 . S
O941 C922 1.239 . S
O942 Nd920 2.487 . S
O942 C929 1.241 . S
O943 Nd920 2.682 . S
O943 Nd921 2.414 . S
O943 C929 1.273 . S
O944 Nd920 2.410 . S
O944 C930 1.251 . S
O945 Nd921 2.424 . S
O945 C930 1.268 . S
O946 Nd921 2.500 . S
O946 C931 1.258 . S
O947 Nd921 2.492 . S
O947 C931 1.239 . S
O948 Nd921 2.487 . S
O948 C938 1.241 . S
O949 Nd920 2.414 . S
O949 Nd921 2.682 . S
O949 C938 1.273 . S
O950 Nd921 2.410 . S
O950 C939 1.251 . S
O951 Nd920 2.424 . S
O951 C939 1.268 . S
H952 C924 0.930 . S
H953 C925 0.929 . S
H954 C927 0.930 . S
H955 C928 0.929 . S
H956 C933 0.930 . S
H957 C934 0.929 . S
H958 C936 0.930 . S
H959 C937 0.929 . S
Nd960 C962 2.836 . S
Nd960 O980 2.500 . S
Nd960 O981 2.492 . S
Nd960 O982 2.487 . S
Nd960 O983 2.682 . S
Nd960 O984 2.410 . S
Nd960 O989 2.414 . S
Nd960 O991 2.424 . S
Nd961 C971 2.836 . S
Nd961 O983 2.414 . S
Nd961 O985 2.424 . S
Nd961 O986 2.500 . S
Nd961 O987 2.492 . S
Nd961 O988 2.487 . S
Nd961 O989 2.682 . S
Nd961 O990 2.410 . S
C962 Nd960 2.836 . S
C962 C963 1.498 . S
C962 O980 1.258 . S
C962 O981 1.239 . S
C963 C962 1.498 . S
C963 C964 1.366 . S
C963 C968 1.407 . S
C964 C963 1.366 . S
C964 C965 1.392 . S
C964 H992 0.930 . S
C965 C964 1.392 . S
C965 C966 1.398 . S
C965 H993 0.929 . S
C966 C965 1.398 . S
C966 C967 1.352 . S
C967 C966 1.352 . S
C967 C968 1.384 . S
C967 H994 0.930 . S
C968 C963 1.407 . S
C968 C967 1.384 . S
C968 H995 0.929 . S
C969 O982 1.241 . S
C969 O983 1.273 . S
C970 O984 1.251 . S
C970 O985 1.268 . S
C971 Nd961 2.836 . S
C971 C972 1.498 . S
C971 O986 1.258 . S
C971 O987 1.239 . S
C972 C971 1.498 . S
C972 C973 1.366 . S
C972 C977 1.407 . S
C973 C972 1.366 . S
C973 C974 1.392 . S
C973 H996 0.930 . S
C974 C973 1.392 . S
C974 C975 1.398 . S
C974 H997 0.929 . S
C975 C974 1.398 . S
C975 C976 1.352 . S
C976 C975 1.352 . S
C976 C977 1.384 . S
C976 H998 0.930 . S
C977 C972 1.407 . S
C977 C976 1.384 . S
C977 H999 0.929 . S
C978 O988 1.241 . S
C978 O989 1.273 . S
C979 O990 1.251 . S
C979 O991 1.268 . S
O980 Nd960 2.500 . S
O980 C962 1.258 . S
O981 Nd960 2.492 . S
O981 C962 1.239 . S
O982 Nd960 2.487 . S
O982 C969 1.241 . S
O983 Nd960 2.682 . S
O983 Nd961 2.414 . S
O983 C969 1.273 . S
O984 Nd960 2.410 . S
O984 C970 1.251 . S
O985 Nd961 2.424 . S
O985 C970 1.268 . S
O986 Nd961 2.500 . S
O986 C971 1.258 . S
O987 Nd961 2.492 . S
O987 C971 1.239 . S
O988 Nd961 2.487 . S
O988 C978 1.241 . S
O989 Nd960 2.414 . S
O989 Nd961 2.682 . S
O989 C978 1.273 . S
O990 Nd961 2.410 . S
O990 C979 1.251 . S
O991 Nd960 2.424 . S
O991 C979 1.268 . S
H992 C964 0.930 . S
H993 C965 0.929 . S
H994 C967 0.930 . S
H995 C968 0.929 . S
H996 C973 0.930 . S
H997 C974 0.929 . S
H998 C976 0.930 . S
H999 C977 0.929 . S
Nd1000 C1002 2.836 . S
Nd1000 O1020 2.500 . S
Nd1000 O1021 2.492 . S
Nd1000 O1022 2.487 . S
Nd1000 O1023 2.682 . S
Nd1000 O1024 2.410 . S
Nd1000 O1029 2.414 . S
Nd1000 O1031 2.424 . S
Nd1001 C1011 2.867 . S
Nd1001 O1023 2.414 . S
Nd1001 O1025 2.424 . S
Nd1001 O1026 2.500 . S
Nd1001 O1027 2.492 . S
Nd1001 O1028 2.487 . S
Nd1001 O1029 2.682 . S
Nd1001 O1030 2.410 . S
C1002 Nd1000 2.836 . S
C1002 C1003 1.498 . S
C1002 O1020 1.258 . S
C1002 O1021 1.239 . S
C1003 C1002 1.498 . S
C1003 C1004 1.366 . S
C1003 C1008 1.407 . S
C1004 C1003 1.366 . S
C1004 C1005 1.392 . S
C1004 H1032 0.930 . S
C1005 C1004 1.392 . S
C1005 C1006 1.398 . S
C1005 H1033 0.929 . S
C1006 C1005 1.398 . S
C1006 C1007 1.352 . S
C1007 C1006 1.352 . S
C1007 C1008 1.384 . S
C1007 H1034 0.930 . S
C1008 C1003 1.407 . S
C1008 C1007 1.384 . S
C1008 H1035 0.929 . S
C1009 O1022 1.241 . S
C1009 O1023 1.273 . S
C1010 O1024 1.251 . S
C1010 O1025 1.268 . S
C1011 Nd1001 2.867 . S
C1011 C1012 1.467 1_556 S
C1011 O1026 1.263 . S
C1011 O1027 1.264 . S
C1012 C1011 1.467 1_554 S
C1012 C1013 1.366 . S
C1012 C1017 1.407 . S
C1013 C1012 1.366 . S
C1013 C1014 1.392 . S
C1013 H1036 0.930 . S
C1014 C1013 1.392 . S
C1014 C1015 1.398 . S
C1014 H1037 0.929 . S
C1015 C1014 1.398 . S
C1015 C1016 1.352 . S
C1016 C1015 1.352 . S
C1016 C1017 1.384 . S
C1016 H1038 0.930 . S
C1017 C1012 1.407 . S
C1017 C1016 1.384 . S
C1017 H1039 0.929 . S
C1018 O1028 1.241 . S
C1018 O1029 1.273 . S
C1019 O1030 1.251 . S
C1019 O1031 1.268 . S
O1020 Nd1000 2.500 . S
O1020 C1002 1.258 . S
O1021 Nd1000 2.492 . S
O1021 C1002 1.239 . S
O1022 Nd1000 2.487 . S
O1022 C1009 1.241 . S
O1023 Nd1000 2.682 . S
O1023 Nd1001 2.414 . S
O1023 C1009 1.273 . S
O1024 Nd1000 2.410 . S
O1024 C1010 1.251 . S
O1025 Nd1001 2.424 . S
O1025 C1010 1.268 . S
O1026 Nd1001 2.500 . S
O1026 C1011 1.263 . S
O1027 Nd1001 2.492 . S
O1027 C1011 1.264 . S
O1028 Nd1001 2.487 . S
O1028 C1018 1.241 . S
O1029 Nd1000 2.414 . S
O1029 Nd1001 2.682 . S
O1029 C1018 1.273 . S
O1030 Nd1001 2.410 . S
O1030 C1019 1.251 . S
O1031 Nd1000 2.424 . S
O1031 C1019 1.268 . S
H1032 C1004 0.930 . S
H1033 C1005 0.929 . S
H1034 C1007 0.930 . S
H1035 C1008 0.929 . S
H1036 C1013 0.930 . S
H1037 C1014 0.929 . S
H1038 C1016 0.930 . S
H1039 C1017 0.929 . S
Nd1040 C1042 2.836 . S
Nd1040 O1060 2.500 . S
Nd1040 O1061 2.492 . S
Nd1040 O1062 2.487 . S
Nd1040 O1063 2.682 . S
Nd1040 O1064 2.410 . S
Nd1040 O1069 2.414 . S
Nd1040 O1071 2.424 . S
Nd1041 C1051 2.836 . S
Nd1041 O1063 2.414 . S
Nd1041 O1065 2.424 . S
Nd1041 O1066 2.500 . S
Nd1041 O1067 2.492 . S
Nd1041 O1068 2.487 . S
Nd1041 O1069 2.682 . S
Nd1041 O1070 2.410 . S
C1042 Nd1040 2.836 . S
C1042 C1043 1.498 . S
C1042 O1060 1.258 . S
C1042 O1061 1.239 . S
C1043 C1042 1.498 . S
C1043 C1044 1.366 . S
C1043 C1048 1.407 . S
C1044 C1043 1.366 . S
C1044 C1045 1.392 . S
C1044 H1072 0.930 . S
C1045 C1044 1.392 . S
C1045 C1046 1.398 . S
C1045 H1073 0.929 . S
C1046 C1045 1.398 . S
C1046 C1047 1.352 . S
C1047 C1046 1.352 . S
C1047 C1048 1.384 . S
C1047 H1074 0.930 . S
C1048 C1043 1.407 . S
C1048 C1047 1.384 . S
C1048 H1075 0.929 . S
C1049 O1062 1.241 . S
C1049 O1063 1.273 . S
C1050 O1064 1.251 . S
C1050 O1065 1.268 . S
C1051 Nd1041 2.836 . S
C1051 C1052 1.498 . S
C1051 O1066 1.258 . S
C1051 O1067 1.239 . S
C1052 C1051 1.498 . S
C1052 C1053 1.366 . S
C1052 C1057 1.407 . S
C1053 C1052 1.366 . S
C1053 C1054 1.392 . S
C1053 H1076 0.930 . S
C1054 C1053 1.392 . S
C1054 C1055 1.398 . S
C1054 H1077 0.929 . S
C1055 C1054 1.398 . S
C1055 C1056 1.352 . S
C1056 C1055 1.352 . S
C1056 C1057 1.384 . S
C1056 H1078 0.930 . S
C1057 C1052 1.407 . S
C1057 C1056 1.384 . S
C1057 H1079 0.929 . S
C1058 O1068 1.241 . S
C1058 O1069 1.273 . S
C1059 O1070 1.251 . S
C1059 O1071 1.268 . S
O1060 Nd1040 2.500 . S
O1060 C1042 1.258 . S
O1061 Nd1040 2.492 . S
O1061 C1042 1.239 . S
O1062 Nd1040 2.487 . S
O1062 C1049 1.241 . S
O1063 Nd1040 2.682 . S
O1063 Nd1041 2.414 . S
O1063 C1049 1.273 . S
O1064 Nd1040 2.410 . S
O1064 C1050 1.251 . S
O1065 Nd1041 2.424 . S
O1065 C1050 1.268 . S
O1066 Nd1041 2.500 . S
O1066 C1051 1.258 . S
O1067 Nd1041 2.492 . S
O1067 C1051 1.239 . S
O1068 Nd1041 2.487 . S
O1068 C1058 1.241 . S
O1069 Nd1040 2.414 . S
O1069 Nd1041 2.682 . S
O1069 C1058 1.273 . S
O1070 Nd1041 2.410 . S
O1070 C1059 1.251 . S
O1071 Nd1040 2.424 . S
O1071 C1059 1.268 . S
H1072 C1044 0.930 . S
H1073 C1045 0.929 . S
H1074 C1047 0.930 . S
H1075 C1048 0.929 . S
H1076 C1053 0.930 . S
H1077 C1054 0.929 . S
H1078 C1056 0.930 . S
H1079 C1057 0.929 . S
Nd1080 C1082 2.836 . S
Nd1080 O1100 2.500 . S
Nd1080 O1101 2.492 . S
Nd1080 O1102 2.487 . S
Nd1080 O1103 2.682 . S
Nd1080 O1104 2.410 . S
Nd1080 O1109 2.414 . S
Nd1080 O1111 2.424 . S
Nd1081 C1091 2.836 . S
Nd1081 O1103 2.414 . S
Nd1081 O1105 2.424 . S
Nd1081 O1106 2.500 . S
Nd1081 O1107 2.492 . S
Nd1081 O1108 2.487 . S
Nd1081 O1109 2.682 . S
Nd1081 O1110 2.410 . S
C1082 Nd1080 2.836 . S
C1082 C1083 1.498 . S
C1082 O1100 1.258 . S
C1082 O1101 1.239 . S
C1083 C1082 1.498 . S
C1083 C1084 1.366 . S
C1083 C1088 1.407 . S
C1084 C1083 1.366 . S
C1084 C1085 1.392 . S
C1084 H1112 0.930 . S
C1085 C1084 1.392 . S
C1085 C1086 1.398 . S
C1085 H1113 0.929 . S
C1086 C1085 1.398 . S
C1086 C1087 1.352 . S
C1087 C1086 1.352 . S
C1087 C1088 1.384 . S
C1087 H1114 0.930 . S
C1088 C1083 1.407 . S
C1088 C1087 1.384 . S
C1088 H1115 0.929 . S
C1089 O1102 1.241 . S
C1089 O1103 1.273 . S
C1090 O1104 1.251 . S
C1090 O1105 1.268 . S
C1091 Nd1081 2.836 . S
C1091 C1092 1.498 . S
C1091 O1106 1.258 . S
C1091 O1107 1.239 . S
C1092 C1091 1.498 . S
C1092 C1093 1.366 . S
C1092 C1097 1.407 . S
C1093 C1092 1.366 . S
C1093 C1094 1.392 . S
C1093 H1116 0.930 . S
C1094 C1093 1.392 . S
C1094 C1095 1.398 . S
C1094 H1117 0.929 . S
C1095 C1094 1.398 . S
C1095 C1096 1.352 . S
C1096 C1095 1.352 . S
C1096 C1097 1.384 . S
C1096 H1118 0.930 . S
C1097 C1092 1.407 . S
C1097 C1096 1.384 . S
C1097 H1119 0.929 . S
C1098 O1108 1.241 . S
C1098 O1109 1.273 . S
C1099 O1110 1.251 . S
C1099 O1111 1.268 . S
O1100 Nd1080 2.500 . S
O1100 C1082 1.258 . S
O1101 Nd1080 2.492 . S
O1101 C1082 1.239 . S
O1102 Nd1080 2.487 . S
O1102 C1089 1.241 . S
O1103 Nd1080 2.682 . S
O1103 Nd1081 2.414 . S
O1103 C1089 1.273 . S
O1104 Nd1080 2.410 . S
O1104 C1090 1.251 . S
O1105 Nd1081 2.424 . S
O1105 C1090 1.268 . S
O1106 Nd1081 2.500 . S
O1106 C1091 1.258 . S
O1107 Nd1081 2.492 . S
O1107 C1091 1.239 . S
O1108 Nd1081 2.487 . S
O1108 C1098 1.241 . S
O1109 Nd1080 2.414 . S
O1109 Nd1081 2.682 . S
O1109 C1098 1.273 . S
O1110 Nd1081 2.410 . S
O1110 C1099 1.251 . S
O1111 Nd1080 2.424 . S
O1111 C1099 1.268 . S
H1112 C1084 0.930 . S
H1113 C1085 0.929 . S
H1114 C1087 0.930 . S
H1115 C1088 0.929 . S
H1116 C1093 0.930 . S
H1117 C1094 0.929 . S
H1118 C1096 0.930 . S
H1119 C1097 0.929 . S
Nd1120 C1122 2.836 . S
Nd1120 O1140 2.500 . S
Nd1120 O1141 2.492 . S
Nd1120 O1142 2.487 . S
Nd1120 O1143 2.682 . S
Nd1120 O1144 2.410 . S
Nd1120 O1149 2.414 . S
Nd1120 O1151 2.424 . S
Nd1121 C1131 2.836 . S
Nd1121 O1143 2.414 . S
Nd1121 O1145 2.424 . S
Nd1121 O1146 2.500 . S
Nd1121 O1147 2.492 . S
Nd1121 O1148 2.487 . S
Nd1121 O1149 2.682 . S
Nd1121 O1150 2.410 . S
C1122 Nd1120 2.836 . S
C1122 C1123 1.498 . S
C1122 O1140 1.258 . S
C1122 O1141 1.239 . S
C1123 C1122 1.498 . S
C1123 C1124 1.366 . S
C1123 C1128 1.407 . S
C1124 C1123 1.366 . S
C1124 C1125 1.392 . S
C1124 H1152 0.930 . S
C1125 C1124 1.392 . S
C1125 C1126 1.398 . S
C1125 H1153 0.929 . S
C1126 C1125 1.398 . S
C1126 C1127 1.352 . S
C1127 C1126 1.352 . S
C1127 C1128 1.384 . S
C1127 H1154 0.930 . S
C1128 C1123 1.407 . S
C1128 C1127 1.384 . S
C1128 H1155 0.929 . S
C1129 O1142 1.241 . S
C1129 O1143 1.273 . S
C1130 O1144 1.251 . S
C1130 O1145 1.268 . S
C1131 Nd1121 2.836 . S
C1131 C1132 1.498 . S
C1131 O1146 1.258 . S
C1131 O1147 1.239 . S
C1132 C1131 1.498 . S
C1132 C1133 1.366 . S
C1132 C1137 1.407 . S
C1133 C1132 1.366 . S
C1133 C1134 1.392 . S
C1133 H1156 0.930 . S
C1134 C1133 1.392 . S
C1134 C1135 1.398 . S
C1134 H1157 0.929 . S
C1135 C1134 1.398 . S
C1135 C1136 1.352 . S
C1136 C1135 1.352 . S
C1136 C1137 1.384 . S
C1136 H1158 0.930 . S
C1137 C1132 1.407 . S
C1137 C1136 1.384 . S
C1137 H1159 0.929 . S
C1138 O1148 1.241 . S
C1138 O1149 1.273 . S
C1139 O1150 1.251 . S
C1139 O1151 1.268 . S
O1140 Nd1120 2.500 . S
O1140 C1122 1.258 . S
O1141 Nd1120 2.492 . S
O1141 C1122 1.239 . S
O1142 Nd1120 2.487 . S
O1142 C1129 1.241 . S
O1143 Nd1120 2.682 . S
O1143 Nd1121 2.414 . S
O1143 C1129 1.273 . S
O1144 Nd1120 2.410 . S
O1144 C1130 1.251 . S
O1145 Nd1121 2.424 . S
O1145 C1130 1.268 . S
O1146 Nd1121 2.500 . S
O1146 C1131 1.258 . S
O1147 Nd1121 2.492 . S
O1147 C1131 1.239 . S
O1148 Nd1121 2.487 . S
O1148 C1138 1.241 . S
O1149 Nd1120 2.414 . S
O1149 Nd1121 2.682 . S
O1149 C1138 1.273 . S
O1150 Nd1121 2.410 . S
O1150 C1139 1.251 . S
O1151 Nd1120 2.424 . S
O1151 C1139 1.268 . S
H1152 C1124 0.930 . S
H1153 C1125 0.929 . S
H1154 C1127 0.930 . S
H1155 C1128 0.929 . S
H1156 C1133 0.930 . S
H1157 C1134 0.929 . S
H1158 C1136 0.930 . S
H1159 C1137 0.929 . S
Nd1160 C1162 2.836 . S
Nd1160 O1180 2.500 . S
Nd1160 O1181 2.492 . S
Nd1160 O1182 2.487 . S
Nd1160 O1183 2.682 . S
Nd1160 O1184 2.410 . S
Nd1160 O1189 2.414 . S
Nd1160 O1191 2.424 . S
Nd1161 C1171 2.867 . S
Nd1161 O1183 2.414 . S
Nd1161 O1185 2.424 . S
Nd1161 O1186 2.500 . S
Nd1161 O1187 2.492 . S
Nd1161 O1188 2.487 . S
Nd1161 O1189 2.682 . S
Nd1161 O1190 2.410 . S
C1162 Nd1160 2.836 . S
C1162 C1163 1.498 . S
C1162 O1180 1.258 . S
C1162 O1181 1.239 . S
C1163 C1162 1.498 . S
C1163 C1164 1.366 . S
C1163 C1168 1.407 . S
C1164 C1163 1.366 . S
C1164 C1165 1.392 . S
C1164 H1192 0.930 . S
C1165 C1164 1.392 . S
C1165 C1166 1.398 . S
C1165 H1193 0.929 . S
C1166 C1165 1.398 . S
C1166 C1167 1.352 . S
C1167 C1166 1.352 . S
C1167 C1168 1.384 . S
C1167 H1194 0.930 . S
C1168 C1163 1.407 . S
C1168 C1167 1.384 . S
C1168 H1195 0.929 . S
C1169 O1182 1.241 . S
C1169 O1183 1.273 . S
C1170 O1184 1.251 . S
C1170 O1185 1.268 . S
C1171 Nd1161 2.867 . S
C1171 C1172 1.467 1_554 S
C1171 O1186 1.263 . S
C1171 O1187 1.264 . S
C1172 C1171 1.467 1_556 S
C1172 C1173 1.366 . S
C1172 C1177 1.407 . S
C1173 C1172 1.366 . S
C1173 C1174 1.392 . S
C1173 H1196 0.930 . S
C1174 C1173 1.392 . S
C1174 C1175 1.398 . S
C1174 H1197 0.929 . S
C1175 C1174 1.398 . S
C1175 C1176 1.352 . S
C1176 C1175 1.352 . S
C1176 C1177 1.384 . S
C1176 H1198 0.930 . S
C1177 C1172 1.407 . S
C1177 C1176 1.384 . S
C1177 H1199 0.929 . S
C1178 O1188 1.241 . S
C1178 O1189 1.273 . S
C1179 O1190 1.251 . S
C1179 O1191 1.268 . S
O1180 Nd1160 2.500 . S
O1180 C1162 1.258 . S
O1181 Nd1160 2.492 . S
O1181 C1162 1.239 . S
O1182 Nd1160 2.487 . S
O1182 C1169 1.241 . S
O1183 Nd1160 2.682 . S
O1183 Nd1161 2.414 . S
O1183 C1169 1.273 . S
O1184 Nd1160 2.410 . S
O1184 C1170 1.251 . S
O1185 Nd1161 2.424 . S
O1185 C1170 1.268 . S
O1186 Nd1161 2.500 . S
O1186 C1171 1.263 . S
O1187 Nd1161 2.492 . S
O1187 C1171 1.264 . S
O1188 Nd1161 2.487 . S
O1188 C1178 1.241 . S
O1189 Nd1160 2.414 . S
O1189 Nd1161 2.682 . S
O1189 C1178 1.273 . S
O1190 Nd1161 2.410 . S
O1190 C1179 1.251 . S
O1191 Nd1160 2.424 . S
O1191 C1179 1.268 . S
H1192 C1164 0.930 . S
H1193 C1165 0.929 . S
H1194 C1167 0.930 . S
H1195 C1168 0.929 . S
H1196 C1173 0.930 . S
H1197 C1174 0.929 . S
H1198 C1176 0.930 . S
H1199 C1177 0.929 . S
Nd1200 C1202 2.836 . S
Nd1200 O1220 2.500 . S
Nd1200 O1221 2.492 . S
Nd1200 O1222 2.487 . S
Nd1200 O1223 2.682 . S
Nd1200 O1224 2.410 . S
Nd1200 O1229 2.414 . S
Nd1200 O1231 2.424 . S
Nd1201 C1211 2.836 . S
Nd1201 O1223 2.414 . S
Nd1201 O1225 2.424 . S
Nd1201 O1226 2.500 . S
Nd1201 O1227 2.492 . S
Nd1201 O1228 2.487 . S
Nd1201 O1229 2.682 . S
Nd1201 O1230 2.410 . S
C1202 Nd1200 2.836 . S
C1202 C1203 1.498 . S
C1202 O1220 1.258 . S
C1202 O1221 1.239 . S
C1203 C1202 1.498 . S
C1203 C1204 1.366 . S
C1203 C1208 1.407 . S
C1204 C1203 1.366 . S
C1204 C1205 1.392 . S
C1204 H1232 0.930 . S
C1205 C1204 1.392 . S
C1205 C1206 1.398 . S
C1205 H1233 0.929 . S
C1206 C1205 1.398 . S
C1206 C1207 1.352 . S
C1207 C1206 1.352 . S
C1207 C1208 1.384 . S
C1207 H1234 0.930 . S
C1208 C1203 1.407 . S
C1208 C1207 1.384 . S
C1208 H1235 0.929 . S
C1209 O1222 1.241 . S
C1209 O1223 1.273 . S
C1210 O1224 1.251 . S
C1210 O1225 1.268 . S
C1211 Nd1201 2.836 . S
C1211 C1212 1.498 . S
C1211 O1226 1.258 . S
C1211 O1227 1.239 . S
C1212 C1211 1.498 . S
C1212 C1213 1.366 . S
C1212 C1217 1.407 . S
C1213 C1212 1.366 . S
C1213 C1214 1.392 . S
C1213 H1236 0.930 . S
C1214 C1213 1.392 . S
C1214 C1215 1.398 . S
C1214 H1237 0.929 . S
C1215 C1214 1.398 . S
C1215 C1216 1.352 . S
C1216 C1215 1.352 . S
C1216 C1217 1.384 . S
C1216 H1238 0.930 . S
C1217 C1212 1.407 . S
C1217 C1216 1.384 . S
C1217 H1239 0.929 . S
C1218 O1228 1.241 . S
C1218 O1229 1.273 . S
C1219 O1230 1.251 . S
C1219 O1231 1.268 . S
O1220 Nd1200 2.500 . S
O1220 C1202 1.258 . S
O1221 Nd1200 2.492 . S
O1221 C1202 1.239 . S
O1222 Nd1200 2.487 . S
O1222 C1209 1.241 . S
O1223 Nd1200 2.682 . S
O1223 Nd1201 2.414 . S
O1223 C1209 1.273 . S
O1224 Nd1200 2.410 . S
O1224 C1210 1.251 . S
O1225 Nd1201 2.424 . S
O1225 C1210 1.268 . S
O1226 Nd1201 2.500 . S
O1226 C1211 1.258 . S
O1227 Nd1201 2.492 . S
O1227 C1211 1.239 . S
O1228 Nd1201 2.487 . S
O1228 C1218 1.241 . S
O1229 Nd1200 2.414 . S
O1229 Nd1201 2.682 . S
O1229 C1218 1.273 . S
O1230 Nd1201 2.410 . S
O1230 C1219 1.251 . S
O1231 Nd1200 2.424 . S
O1231 C1219 1.268 . S
H1232 C1204 0.930 . S
H1233 C1205 0.929 . S
H1234 C1207 0.930 . S
H1235 C1208 0.929 . S
H1236 C1213 0.930 . S
H1237 C1214 0.929 . S
H1238 C1216 0.930 . S
H1239 C1217 0.929 . S
Nd1240 C1242 2.836 . S
Nd1240 O1260 2.500 . S
Nd1240 O1261 2.492 . S
Nd1240 O1262 2.487 . S
Nd1240 O1263 2.682 . S
Nd1240 O1264 2.410 . S
Nd1240 O1269 2.414 . S
Nd1240 O1271 2.424 . S
Nd1241 C1251 2.836 . S
Nd1241 O1263 2.414 . S
Nd1241 O1265 2.424 . S
Nd1241 O1266 2.500 . S
Nd1241 O1267 2.492 . S
Nd1241 O1268 2.487 . S
Nd1241 O1269 2.682 . S
Nd1241 O1270 2.410 . S
C1242 Nd1240 2.836 . S
C1242 C1243 1.498 . S
C1242 O1260 1.258 . S
C1242 O1261 1.239 . S
C1243 C1242 1.498 . S
C1243 C1244 1.366 . S
C1243 C1248 1.407 . S
C1244 C1243 1.366 . S
C1244 C1245 1.392 . S
C1244 H1272 0.930 . S
C1245 C1244 1.392 . S
C1245 C1246 1.398 . S
C1245 H1273 0.929 . S
C1246 C1245 1.398 . S
C1246 C1247 1.352 . S
C1247 C1246 1.352 . S
C1247 C1248 1.384 . S
C1247 H1274 0.930 . S
C1248 C1243 1.407 . S
C1248 C1247 1.384 . S
C1248 H1275 0.929 . S
C1249 O1262 1.241 . S
C1249 O1263 1.273 . S
C1250 O1264 1.251 . S
C1250 O1265 1.268 . S
C1251 Nd1241 2.836 . S
C1251 C1252 1.498 . S
C1251 O1266 1.258 . S
C1251 O1267 1.239 . S
C1252 C1251 1.498 . S
C1252 C1253 1.366 . S
C1252 C1257 1.407 . S
C1253 C1252 1.366 . S
C1253 C1254 1.392 . S
C1253 H1276 0.930 . S
C1254 C1253 1.392 . S
C1254 C1255 1.398 . S
C1254 H1277 0.929 . S
C1255 C1254 1.398 . S
C1255 C1256 1.352 . S
C1256 C1255 1.352 . S
C1256 C1257 1.384 . S
C1256 H1278 0.930 . S
C1257 C1252 1.407 . S
C1257 C1256 1.384 . S
C1257 H1279 0.929 . S
C1258 O1268 1.241 . S
C1258 O1269 1.273 . S
C1259 O1270 1.251 . S
C1259 O1271 1.268 . S
O1260 Nd1240 2.500 . S
O1260 C1242 1.258 . S
O1261 Nd1240 2.492 . S
O1261 C1242 1.239 . S
O1262 Nd1240 2.487 . S
O1262 C1249 1.241 . S
O1263 Nd1240 2.682 . S
O1263 Nd1241 2.414 . S
O1263 C1249 1.273 . S
O1264 Nd1240 2.410 . S
O1264 C1250 1.251 . S
O1265 Nd1241 2.424 . S
O1265 C1250 1.268 . S
O1266 Nd1241 2.500 . S
O1266 C1251 1.258 . S
O1267 Nd1241 2.492 . S
O1267 C1251 1.239 . S
O1268 Nd1241 2.487 . S
O1268 C1258 1.241 . S
O1269 Nd1240 2.414 . S
O1269 Nd1241 2.682 . S
O1269 C1258 1.273 . S
O1270 Nd1241 2.410 . S
O1270 C1259 1.251 . S
O1271 Nd1240 2.424 . S
O1271 C1259 1.268 . S
H1272 C1244 0.930 . S
H1273 C1245 0.929 . S
H1274 C1247 0.930 . S
H1275 C1248 0.929 . S
H1276 C1253 0.930 . S
H1277 C1254 0.929 . S
H1278 C1256 0.930 . S
H1279 C1257 0.929 . S
H1280 C1286 0.930 . S
H1281 C1289 0.930 . S
H1282 C1290 0.930 . S
H1283 C1291 0.930 . S
H1284 C1294 0.930 . S
H1285 C1295 0.930 . S
C1286 H1280 0.930 . S
C1286 C1287 1.355 . S
C1286 C1288 1.415 . S
C1287 C1286 1.355 . S
C1287 C1289 1.419 . S
C1288 C1286 1.415 . S
C1288 C1293 1.425 . S
C1288 C1295 1.409 . S
C1289 H1281 0.930 . S
C1289 C1287 1.419 . S
C1289 C1290 1.362 . S
C1290 H1282 0.930 . S
C1290 C1289 1.362 . S
C1290 C1293 1.409 . S
C1291 H1283 0.930 . S
C1291 C1292 1.355 . S
C1291 C1293 1.415 . S
C1292 C1291 1.355 . S
C1292 C1294 1.419 . S
C1293 C1288 1.425 . S
C1293 C1290 1.409 . S
C1293 C1291 1.415 . S
C1294 H1284 0.930 . S
C1294 C1292 1.419 . S
C1294 C1295 1.362 . S
C1295 H1285 0.930 . S
C1295 C1288 1.409 . S
C1295 C1294 1.362 . S
H1296 C1302 0.930 1_545 S
H1297 C1305 0.930 . S
H1298 C1306 0.930 . S
H1299 C1307 0.930 . S
H1300 C1310 0.930 . S
H1301 C1311 0.930 . S
C1302 H1296 0.930 1_565 S
C1302 C1303 1.355 . S
C1302 C1304 1.415 . S
C1303 C1302 1.355 . S
C1303 C1305 1.419 . S
C1304 C1302 1.415 . S
C1304 C1309 1.425 . S
C1304 C1311 1.409 . S
C1305 H1297 0.930 . S
C1305 C1303 1.419 . S
C1305 C1306 1.362 . S
C1306 H1298 0.930 . S
C1306 C1305 1.362 . S
C1306 C1309 1.409 . S
C1307 H1299 0.930 . S
C1307 C1308 1.355 . S
C1307 C1309 1.415 . S
C1308 C1307 1.355 . S
C1308 C1310 1.419 . S
C1309 C1304 1.425 . S
C1309 C1306 1.409 . S
C1309 C1307 1.415 . S
C1310 H1300 0.930 . S
C1310 C1308 1.419 . S
C1310 C1311 1.362 . S
C1311 H1301 0.930 . S
C1311 C1304 1.409 . S
C1311 C1310 1.362 . S
H1312 C1318 0.930 . S
H1313 C1321 0.930 . S
H1314 C1322 0.930 . S
H1315 C1323 0.930 . S
H1316 C1326 0.930 . S
H1317 C1327 0.930 . S
C1318 H1312 0.930 . S
C1318 C1319 1.355 . S
C1318 C1320 1.415 . S
C1319 C1318 1.355 . S
C1319 C1321 1.419 . S
C1320 C1318 1.415 . S
C1320 C1325 1.425 . S
C1320 C1327 1.409 . S
C1321 H1313 0.930 . S
C1321 C1319 1.419 . S
C1321 C1322 1.362 . S
C1322 H1314 0.930 . S
C1322 C1321 1.362 . S
C1322 C1325 1.409 . S
C1323 H1315 0.930 . S
C1323 C1324 1.355 . S
C1323 C1325 1.415 . S
C1324 C1323 1.355 . S
C1324 C1326 1.419 . S
C1325 C1320 1.425 . S
C1325 C1322 1.409 . S
C1325 C1323 1.415 . S
C1326 H1316 0.930 . S
C1326 C1324 1.419 . S
C1326 C1327 1.362 . S
C1327 H1317 0.930 . S
C1327 C1320 1.409 . S
C1327 C1326 1.362 . S
H1328 C1334 0.930 1_565 S
H1329 C1337 0.930 . S
H1330 C1338 0.930 . S
H1331 C1339 0.930 . S
H1332 C1342 0.930 . S
H1333 C1343 0.937 . S
C1334 H1328 0.930 1_545 S
C1334 C1335 1.355 . S
C1334 C1336 1.415 . S
C1335 C1334 1.355 . S
C1335 C1337 1.419 . S
C1336 C1334 1.415 . S
C1336 C1341 1.425 . S
C1336 C1343 1.434 . S
C1337 H1329 0.930 . S
C1337 C1335 1.419 . S
C1337 C1338 1.362 . S
C1338 H1330 0.930 . S
C1338 C1337 1.362 . S
C1338 C1341 1.409 . S
C1339 H1331 0.930 . S
C1339 C1340 1.355 . S
C1339 C1341 1.415 1_554 S
C1340 C1339 1.355 . S
C1340 C1342 1.419 . S
C1341 C1336 1.425 . S
C1341 C1338 1.409 . S
C1341 C1339 1.415 1_556 S
C1342 H1332 0.930 . S
C1342 C1340 1.419 . S
C1342 C1343 1.334 1_554 S
C1343 H1333 0.937 . S
C1343 C1336 1.434 . S
C1343 C1342 1.334 1_556 S
H1344 C1350 0.930 . S
H1345 C1353 0.930 . S
H1346 C1354 0.930 . S
H1347 C1355 0.930 . S
H1348 C1358 0.930 . S
H1349 C1359 0.930 . S
C1350 H1344 0.930 . S
C1350 C1351 1.355 . S
C1350 C1352 1.415 . S
C1351 C1350 1.355 . S
C1351 C1353 1.419 . S
C1352 C1350 1.415 . S
C1352 C1357 1.425 . S
C1352 C1359 1.409 . S
C1353 H1345 0.930 . S
C1353 C1351 1.419 . S
C1353 C1354 1.362 . S
C1354 H1346 0.930 . S
C1354 C1353 1.362 . S
C1354 C1357 1.409 . S
C1355 H1347 0.930 . S
C1355 C1356 1.355 . S
C1355 C1357 1.415 . S
C1356 C1355 1.355 . S
C1356 C1358 1.419 . S
C1357 C1352 1.425 . S
C1357 C1354 1.409 . S
C1357 C1355 1.415 . S
C1358 H1348 0.930 . S
C1358 C1356 1.419 . S
C1358 C1359 1.362 . S
C1359 H1349 0.930 . S
C1359 C1352 1.409 . S
C1359 C1358 1.362 . S
H1360 C1366 0.930 . S
H1361 C1369 0.930 . S
H1362 C1370 0.930 . S
H1363 C1371 0.930 . S
H1364 C1374 0.930 1_545 S
H1365 C1375 0.930 . S
C1366 H1360 0.930 . S
C1366 C1367 1.355 . S
C1366 C1368 1.415 . S
C1367 C1366 1.355 . S
C1367 C1369 1.419 . S
C1368 C1366 1.415 . S
C1368 C1373 1.425 . S
C1368 C1375 1.409 . S
C1369 H1361 0.930 . S
C1369 C1367 1.419 . S
C1369 C1370 1.362 . S
C1370 H1362 0.930 . S
C1370 C1369 1.362 . S
C1370 C1373 1.409 . S
C1371 H1363 0.930 . S
C1371 C1372 1.355 . S
C1371 C1373 1.415 . S
C1372 C1371 1.355 . S
C1372 C1374 1.419 . S
C1373 C1368 1.425 . S
C1373 C1370 1.409 . S
C1373 C1371 1.415 . S
C1374 H1364 0.930 1_565 S
C1374 C1372 1.419 . S
C1374 C1375 1.362 . S
C1375 H1365 0.930 . S
C1375 C1368 1.409 . S
C1375 C1374 1.362 . S
H1376 C1382 0.930 . S
H1377 C1385 0.930 . S
H1378 C1386 0.930 . S
H1379 C1387 0.930 . S
H1380 C1390 0.930 . S
H1381 C1391 0.930 . S
C1382 H1376 0.930 . S
C1382 C1383 1.355 . S
C1382 C1384 1.415 . S
C1383 C1382 1.355 . S
C1383 C1385 1.419 . S
C1384 C1382 1.415 . S
C1384 C1389 1.425 . S
C1384 C1391 1.409 . S
C1385 H1377 0.930 . S
C1385 C1383 1.419 . S
C1385 C1386 1.362 . S
C1386 H1378 0.930 . S
C1386 C1385 1.362 . S
C1386 C1389 1.409 . S
C1387 H1379 0.930 . S
C1387 C1388 1.355 . S
C1387 C1389 1.415 . S
C1388 C1387 1.355 . S
C1388 C1390 1.419 . S
C1389 C1384 1.425 . S
C1389 C1386 1.409 . S
C1389 C1387 1.415 . S
C1390 H1380 0.930 . S
C1390 C1388 1.419 . S
C1390 C1391 1.362 . S
C1391 H1381 0.930 . S
C1391 C1384 1.409 . S
C1391 C1390 1.362 . S
H1392 C1398 0.930 1_565 S
H1393 C1401 0.930 . S
H1394 C1402 0.930 . S
H1395 C1403 0.930 . S
H1396 C1406 0.930 . S
H1397 C1407 0.930 . S
C1398 H1392 0.930 1_545 S
C1398 C1399 1.355 . S
C1398 C1400 1.415 . S
C1399 C1398 1.355 . S
C1399 C1401 1.419 . S
C1400 C1398 1.415 . S
C1400 C1405 1.425 . S
C1400 C1407 1.409 1_554 S
C1401 H1393 0.930 . S
C1401 C1399 1.419 . S
C1401 C1402 1.362 . S
C1402 H1394 0.930 . S
C1402 C1401 1.362 . S
C1402 C1405 1.409 . S
C1403 H1395 0.930 . S
C1403 C1404 1.355 . S
C1403 C1405 1.415 1_556 S
C1404 C1403 1.355 . S
C1404 C1406 1.419 . S
C1405 C1400 1.425 . S
C1405 C1402 1.409 . S
C1405 C1403 1.415 1_554 S
C1406 H1396 0.930 . S
C1406 C1404 1.419 . S
C1406 C1407 1.362 . S
C1407 H1397 0.930 . S
C1407 C1400 1.409 1_556 S
C1407 C1406 1.362 . S
H1408 C1414 0.930 . S
H1409 C1417 0.930 . S
H1410 C1418 0.930 . S
H1411 C1419 0.930 . S
H1412 C1422 0.930 . S
H1413 C1423 0.930 . S
C1414 H1408 0.930 . S
C1414 C1415 1.355 . S
C1414 C1416 1.415 . S
C1415 C1414 1.355 . S
C1415 C1417 1.419 . S
C1416 C1414 1.415 . S
C1416 C1421 1.425 . S
C1416 C1423 1.409 . S
C1417 H1409 0.930 . S
C1417 C1415 1.419 . S
C1417 C1418 1.362 . S
C1418 H1410 0.930 . S
C1418 C1417 1.362 . S
C1418 C1421 1.409 . S
C1419 H1411 0.930 . S
C1419 C1420 1.355 . S
C1419 C1421 1.415 . S
C1420 C1419 1.355 . S
C1420 C1422 1.419 . S
C1421 C1416 1.425 . S
C1421 C1418 1.409 . S
C1421 C1419 1.415 . S
C1422 H1412 0.930 . S
C1422 C1420 1.419 . S
C1422 C1423 1.362 . S
C1423 H1413 0.930 . S
C1423 C1416 1.409 . S
C1423 C1422 1.362 . S
H1424 C1430 0.930 . S
H1425 C1433 0.930 . S
H1426 C1434 0.930 . S
H1427 C1435 0.930 . S
H1428 C1438 0.930 . S
H1429 C1439 0.930 . S
C1430 H1424 0.930 . S
C1430 C1431 1.355 . S
C1430 C1432 1.415 . S
C1431 C1430 1.355 . S
C1431 C1433 1.419 . S
C1432 C1430 1.415 . S
C1432 C1437 1.425 . S
C1432 C1439 1.409 . S
C1433 H1425 0.930 . S
C1433 C1431 1.419 . S
C1433 C1434 1.362 . S
C1434 H1426 0.930 . S
C1434 C1433 1.362 . S
C1434 C1437 1.409 . S
C1435 H1427 0.930 . S
C1435 C1436 1.355 . S
C1435 C1437 1.415 . S
C1436 C1435 1.355 . S
C1436 C1438 1.419 1_545 S
C1437 C1432 1.425 . S
C1437 C1434 1.409 . S
C1437 C1435 1.415 . S
C1438 H1428 0.930 . S
C1438 C1436 1.419 1_565 S
C1438 C1439 1.362 1_565 S
C1439 H1429 0.930 . S
C1439 C1432 1.409 . S
C1439 C1438 1.362 1_545 S
H1440 C1446 0.930 . S
H1441 C1449 0.930 . S
H1442 C1450 0.930 . S
H1443 C1451 0.930 . S
H1444 C1454 0.930 . S
H1445 C1455 0.930 . S
C1446 H1440 0.930 . S
C1446 C1447 1.355 . S
C1446 C1448 1.415 . S
C1447 C1446 1.355 . S
C1447 C1449 1.419 . S
C1448 C1446 1.415 . S
C1448 C1453 1.425 . S
C1448 C1455 1.409 . S
C1449 H1441 0.930 . S
C1449 C1447 1.419 . S
C1449 C1450 1.362 . S
C1450 H1442 0.930 . S
C1450 C1449 1.362 . S
C1450 C1453 1.409 . S
C1451 H1443 0.930 . S
C1451 C1452 1.355 . S
C1451 C1453 1.415 . S
C1452 C1451 1.355 . S
C1452 C1454 1.419 . S
C1453 C1448 1.425 . S
C1453 C1450 1.409 . S
C1453 C1451 1.415 . S
C1454 H1444 0.930 . S
C1454 C1452 1.419 . S
C1454 C1455 1.362 . S
C1455 H1445 0.930 . S
C1455 C1448 1.409 . S
C1455 C1454 1.362 . S
H1456 C1462 0.930 . S
H1457 C1465 0.930 . S
H1458 C1466 0.928 1_554 S
H1459 C1467 0.930 . S
H1460 C1470 0.930 1_545 S
H1461 C1471 0.930 . S
C1462 H1456 0.930 . S
C1462 C1463 1.355 . S
C1462 C1464 1.415 1_556 S
C1463 C1462 1.355 . S
C1463 C1465 1.419 . S
C1464 C1462 1.415 1_554 S
C1464 C1469 1.425 . S
C1464 C1471 1.409 . S
C1465 H1457 0.930 . S
C1465 C1463 1.419 . S
C1465 C1466 1.367 . S
C1466 H1458 0.928 1_556 S
C1466 C1465 1.367 . S
C1466 C1469 1.405 1_556 S
C1467 H1459 0.930 . S
C1467 C1468 1.355 . S
C1467 C1469 1.415 . S
C1468 C1467 1.355 . S
C1468 C1470 1.419 . S
C1469 C1464 1.425 . S
C1469 C1466 1.405 1_554 S
C1469 C1467 1.415 . S
C1470 H1460 0.930 1_565 S
C1470 C1468 1.419 . S
C1470 C1471 1.362 . S
C1471 H1461 0.930 . S
C1471 C1464 1.409 . S
C1471 C1470 1.362 . S
H1472 C1478 0.930 . S
H1473 C1481 0.930 . S
H1474 C1482 0.930 . S
H1475 C1483 0.930 . S
H1476 C1486 0.930 . S
H1477 C1487 0.930 . S
C1478 H1472 0.930 . S
C1478 C1479 1.355 . S
C1478 C1480 1.415 . S
C1479 C1478 1.355 . S
C1479 C1481 1.419 . S
C1480 C1478 1.415 . S
C1480 C1485 1.425 . S
C1480 C1487 1.409 . S
C1481 H1473 0.930 . S
C1481 C1479 1.419 . S
C1481 C1482 1.362 . S
C1482 H1474 0.930 . S
C1482 C1481 1.362 . S
C1482 C1485 1.409 . S
C1483 H1475 0.930 . S
C1483 C1484 1.355 . S
C1483 C1485 1.415 . S
C1484 C1483 1.355 . S
C1484 C1486 1.419 . S
C1485 C1480 1.425 . S
C1485 C1482 1.409 . S
C1485 C1483 1.415 . S
C1486 H1476 0.930 . S
C1486 C1484 1.419 . S
C1486 C1487 1.362 . S
C1487 H1477 0.930 . S
C1487 C1480 1.409 . S
C1487 C1486 1.362 . S
H1488 C1494 0.930 . S
H1489 C1497 0.930 . S
H1490 C1498 0.930 . S
H1491 C1499 0.930 . S
H1492 C1502 0.930 1_565 S
H1493 C1503 0.930 . S
C1494 H1488 0.930 . S
C1494 C1495 1.355 . S
C1494 C1496 1.415 . S
C1495 C1494 1.355 . S
C1495 C1497 1.419 . S
C1496 C1494 1.415 . S
C1496 C1501 1.425 . S
C1496 C1503 1.409 . S
C1497 H1489 0.930 . S
C1497 C1495 1.419 . S
C1497 C1498 1.362 . S
C1498 H1490 0.930 . S
C1498 C1497 1.362 . S
C1498 C1501 1.409 . S
C1499 H1491 0.930 . S
C1499 C1500 1.355 . S
C1499 C1501 1.415 . S
C1500 C1499 1.355 . S
C1500 C1502 1.419 . S
C1501 C1496 1.425 . S
C1501 C1498 1.409 . S
C1501 C1499 1.415 . S
C1502 H1492 0.930 1_545 S
C1502 C1500 1.419 . S
C1502 C1503 1.362 . S
C1503 H1493 0.930 . S
C1503 C1496 1.409 . S
C1503 C1502 1.362 . S
H1504 C1510 0.930 . S
H1505 C1513 0.930 . S
H1506 C1514 0.930 . S
H1507 C1515 0.930 . S
H1508 C1518 0.930 . S
H1509 C1519 0.930 . S
C1510 H1504 0.930 . S
C1510 C1511 1.355 . S
C1510 C1512 1.415 . S
C1511 C1510 1.355 . S
C1511 C1513 1.419 . S
C1512 C1510 1.415 . S
C1512 C1517 1.425 . S
C1512 C1519 1.409 . S
C1513 H1505 0.930 . S
C1513 C1511 1.419 . S
C1513 C1514 1.362 . S
C1514 H1506 0.930 . S
C1514 C1513 1.362 . S
C1514 C1517 1.409 . S
C1515 H1507 0.930 . S
C1515 C1516 1.355 . S
C1515 C1517 1.415 . S
C1516 C1515 1.355 . S
C1516 C1518 1.419 . S
C1517 C1512 1.425 . S
C1517 C1514 1.409 . S
C1517 C1515 1.415 . S
C1518 H1508 0.930 . S
C1518 C1516 1.419 . S
C1518 C1519 1.362 . S
C1519 H1509 0.930 . S
C1519 C1512 1.409 . S
C1519 C1518 1.362 . S
H1520 C1526 0.930 1_545 S
H1521 C1529 0.930 . S
H1522 C1530 0.930 . S
H1523 C1531 0.930 . S
H1524 C1534 0.930 . S
H1525 C1535 0.930 . S
C1526 H1520 0.930 1_565 S
C1526 C1527 1.355 . S
C1526 C1528 1.415 . S
C1527 C1526 1.355 . S
C1527 C1529 1.419 . S
C1528 C1526 1.415 . S
C1528 C1533 1.425 . S
C1528 C1535 1.409 1_556 S
C1529 H1521 0.930 . S
C1529 C1527 1.419 . S
C1529 C1530 1.362 . S
C1530 H1522 0.930 . S
C1530 C1529 1.362 . S
C1530 C1533 1.409 . S
C1531 H1523 0.930 . S
C1531 C1532 1.355 1_556 S
C1531 C1533 1.415 . S
C1532 C1531 1.355 1_554 S
C1532 C1534 1.419 . S
C1533 C1528 1.425 . S
C1533 C1530 1.409 . S
C1533 C1531 1.415 . S
C1534 H1524 0.930 . S
C1534 C1532 1.419 . S
C1534 C1535 1.362 . S
C1535 H1525 0.930 . S
C1535 C1528 1.409 1_554 S
C1535 C1534 1.362 . S
H1536 C1542 0.930 . S
H1537 C1545 0.930 . S
H1538 C1546 0.930 . S
H1539 C1547 0.930 . S
H1540 C1550 0.930 . S
H1541 C1551 0.930 . S
C1542 H1536 0.930 . S
C1542 C1543 1.355 . S
C1542 C1544 1.415 . S
C1543 C1542 1.355 . S
C1543 C1545 1.419 . S
C1544 C1542 1.415 . S
C1544 C1549 1.425 . S
C1544 C1551 1.409 . S
C1545 H1537 0.930 . S
C1545 C1543 1.419 . S
C1545 C1546 1.362 . S
C1546 H1538 0.930 . S
C1546 C1545 1.362 . S
C1546 C1549 1.409 . S
C1547 H1539 0.930 . S
C1547 C1548 1.355 . S
C1547 C1549 1.415 . S
C1548 C1547 1.355 . S
C1548 C1550 1.419 . S
C1549 C1544 1.425 . S
C1549 C1546 1.409 . S
C1549 C1547 1.415 . S
C1550 H1540 0.930 . S
C1550 C1548 1.419 . S
C1550 C1551 1.362 . S
C1551 H1541 0.930 . S
C1551 C1544 1.409 . S
C1551 C1550 1.362 . S
H1552 C1558 0.930 . S
H1553 C1561 0.930 . S
H1554 C1562 0.930 . S
H1555 C1563 0.930 . S
H1556 C1566 0.930 . S
H1557 C1567 0.930 . S
C1558 H1552 0.930 . S
C1558 C1559 1.355 . S
C1558 C1560 1.415 . S
C1559 C1558 1.355 . S
C1559 C1561 1.419 . S
C1560 C1558 1.415 . S
C1560 C1565 1.443 . S
C1560 C1567 1.409 . S
C1561 H1553 0.930 . S
C1561 C1559 1.419 . S
C1561 C1562 1.362 1_556 S
C1562 H1554 0.930 . S
C1562 C1561 1.362 1_554 S
C1562 C1565 1.407 1_554 S
C1563 H1555 0.930 . S
C1563 C1564 1.355 . S
C1563 C1565 1.400 1_554 S
C1564 C1563 1.355 . S
C1564 C1566 1.419 1_554 S
C1565 C1560 1.443 . S
C1565 C1562 1.407 1_556 S
C1565 C1563 1.400 1_556 S
C1566 H1556 0.930 . S
C1566 C1564 1.419 1_556 S
C1566 C1567 1.362 . S
C1567 H1557 0.930 . S
C1567 C1560 1.409 . S
C1567 C1566 1.362 . S
H1568 C1574 0.930 . S
H1569 C1577 0.930 . S
H1570 C1578 0.930 . S
H1571 C1579 0.930 . S
H1572 C1582 0.930 . S
H1573 C1583 0.930 . S
C1574 H1568 0.930 . S
C1574 C1575 1.355 . S
C1574 C1576 1.415 . S
C1575 C1574 1.355 . S
C1575 C1577 1.419 . S
C1576 C1574 1.415 . S
C1576 C1581 1.425 . S
C1576 C1583 1.409 . S
C1577 H1569 0.930 . S
C1577 C1575 1.419 . S
C1577 C1578 1.362 . S
C1578 H1570 0.930 . S
C1578 C1577 1.362 . S
C1578 C1581 1.409 . S
C1579 H1571 0.930 . S
C1579 C1580 1.355 . S
C1579 C1581 1.415 . S
C1580 C1579 1.355 . S
C1580 C1582 1.419 . S
C1581 C1576 1.425 . S
C1581 C1578 1.409 . S
C1581 C1579 1.415 . S
C1582 H1572 0.930 . S
C1582 C1580 1.419 . S
C1582 C1583 1.362 . S
C1583 H1573 0.930 . S
C1583 C1576 1.409 . S
C1583 C1582 1.362 . S
H1584 C1590 0.930 . S
H1585 C1593 0.930 . S
H1586 C1594 0.930 . S
H1587 C1595 0.930 . S
H1588 C1598 0.930 . S
H1589 C1599 0.930 . S
C1590 H1584 0.930 . S
C1590 C1591 1.355 . S
C1590 C1592 1.415 . S
C1591 C1590 1.355 . S
C1591 C1593 1.419 . S
C1592 C1590 1.415 . S
C1592 C1597 1.425 . S
C1592 C1599 1.409 . S
C1593 H1585 0.930 . S
C1593 C1591 1.419 . S
C1593 C1594 1.362 . S
C1594 H1586 0.930 . S
C1594 C1593 1.362 . S
C1594 C1597 1.409 . S
C1595 H1587 0.930 . S
C1595 C1596 1.355 . S
C1595 C1597 1.415 . S
C1596 C1595 1.355 . S
C1596 C1598 1.419 . S
C1597 C1592 1.425 . S
C1597 C1594 1.409 . S
C1597 C1595 1.415 . S
C1598 H1588 0.930 . S
C1598 C1596 1.419 . S
C1598 C1599 1.362 . S
C1599 H1589 0.930 . S
C1599 C1592 1.409 . S
C1599 C1598 1.362 . S
H1600 C1606 0.930 . S
H1601 C1609 0.930 . S
H1602 C1610 0.930 . S
H1603 C1611 0.930 . S
H1604 C1614 0.930 . S
H1605 C1615 0.930 . S
C1606 H1600 0.930 . S
C1606 C1607 1.355 . S
C1606 C1608 1.415 . S
C1607 C1606 1.355 . S
C1607 C1609 1.419 . S
C1608 C1606 1.415 . S
C1608 C1613 1.425 . S
C1608 C1615 1.409 . S
C1609 H1601 0.930 . S
C1609 C1607 1.419 . S
C1609 C1610 1.362 . S
C1610 H1602 0.930 . S
C1610 C1609 1.362 . S
C1610 C1613 1.409 . S
C1611 H1603 0.930 . S
C1611 C1612 1.355 . S
C1611 C1613 1.415 . S
C1612 C1611 1.355 . S
C1612 C1614 1.419 . S
C1613 C1608 1.425 . S
C1613 C1610 1.409 . S
C1613 C1611 1.415 . S
C1614 H1604 0.930 . S
C1614 C1612 1.419 . S
C1614 C1615 1.362 . S
C1615 H1605 0.930 . S
C1615 C1608 1.409 . S
C1615 C1614 1.362 . S
H1616 C1622 0.930 . S
H1617 C1625 0.930 . S
H1618 C1626 0.930 . S
H1619 C1627 0.930 . S
H1620 C1630 0.930 . S
H1621 C1631 0.930 . S
C1622 H1616 0.930 . S
C1622 C1623 1.355 . S
C1622 C1624 1.415 . S
C1623 C1622 1.355 . S
C1623 C1625 1.419 . S
C1624 C1622 1.415 . S
C1624 C1629 1.425 . S
C1624 C1631 1.409 . S
C1625 H1617 0.930 . S
C1625 C1623 1.419 . S
C1625 C1626 1.362 . S
C1626 H1618 0.930 . S
C1626 C1625 1.362 . S
C1626 C1629 1.409 . S
C1627 H1619 0.930 . S
C1627 C1628 1.355 . S
C1627 C1629 1.415 1_556 S
C1628 C1627 1.355 . S
C1628 C1630 1.419 . S
C1629 C1624 1.425 . S
C1629 C1626 1.409 . S
C1629 C1627 1.415 1_554 S
C1630 H1620 0.930 . S
C1630 C1628 1.419 . S
C1630 C1631 1.362 1_556 S
C1631 H1621 0.930 . S
C1631 C1624 1.409 . S
C1631 C1630 1.362 1_554 S
H1632 C1638 0.930 . S
H1633 C1641 0.930 . S
H1634 C1642 0.930 . S
H1635 C1643 0.930 . S
H1636 C1646 0.930 . S
H1637 C1647 0.930 . S
C1638 H1632 0.930 . S
C1638 C1639 1.355 . S
C1638 C1640 1.415 . S
C1639 C1638 1.355 . S
C1639 C1641 1.419 . S
C1640 C1638 1.415 . S
C1640 C1645 1.425 . S
C1640 C1647 1.409 . S
C1641 H1633 0.930 . S
C1641 C1639 1.419 . S
C1641 C1642 1.362 . S
C1642 H1634 0.930 . S
C1642 C1641 1.362 . S
C1642 C1645 1.409 . S
C1643 H1635 0.930 . S
C1643 C1644 1.355 . S
C1643 C1645 1.415 . S
C1644 C1643 1.355 . S
C1644 C1646 1.419 . S
C1645 C1640 1.425 . S
C1645 C1642 1.409 . S
C1645 C1643 1.415 . S
C1646 H1636 0.930 . S
C1646 C1644 1.419 . S
C1646 C1647 1.362 . S
C1647 H1637 0.930 . S
C1647 C1640 1.409 . S
C1647 C1646 1.362 . S
H1648 C1654 0.930 . S
H1649 C1657 0.930 . S
H1650 C1658 0.930 . S
H1651 C1659 0.930 . S
H1652 C1662 0.930 . S
H1653 C1663 0.930 . S
C1654 H1648 0.930 . S
C1654 C1655 1.355 . S
C1654 C1656 1.415 . S
C1655 C1654 1.355 . S
C1655 C1657 1.419 . S
C1656 C1654 1.415 . S
C1656 C1661 1.425 . S
C1656 C1663 1.409 . S
C1657 H1649 0.930 . S
C1657 C1655 1.419 . S
C1657 C1658 1.362 . S
C1658 H1650 0.930 . S
C1658 C1657 1.362 . S
C1658 C1661 1.409 . S
C1659 H1651 0.930 . S
C1659 C1660 1.355 . S
C1659 C1661 1.415 . S
C1660 C1659 1.355 . S
C1660 C1662 1.419 . S
C1661 C1656 1.425 . S
C1661 C1658 1.409 . S
C1661 C1659 1.415 . S
C1662 H1652 0.930 . S
C1662 C1660 1.419 . S
C1662 C1663 1.362 . S
C1663 H1653 0.930 . S
C1663 C1656 1.409 . S
C1663 C1662 1.362 . S
H1664 C1670 0.930 . S
H1665 C1673 0.930 . S
H1666 C1674 0.930 . S
H1667 C1675 0.930 . S
H1668 C1678 0.930 . S
H1669 C1679 0.930 . S
C1670 H1664 0.930 . S
C1670 C1671 1.355 . S
C1670 C1672 1.415 . S
C1671 C1670 1.355 . S
C1671 C1673 1.419 . S
C1672 C1670 1.415 . S
C1672 C1677 1.425 . S
C1672 C1679 1.409 . S
C1673 H1665 0.930 . S
C1673 C1671 1.419 . S
C1673 C1674 1.362 . S
C1674 H1666 0.930 . S
C1674 C1673 1.362 . S
C1674 C1677 1.409 . S
C1675 H1667 0.930 . S
C1675 C1676 1.355 . S
C1675 C1677 1.415 . S
C1676 C1675 1.355 . S
C1676 C1678 1.419 . S
C1677 C1672 1.425 . S
C1677 C1674 1.409 . S
C1677 C1675 1.415 . S
C1678 H1668 0.930 . S
C1678 C1676 1.419 . S
C1678 C1679 1.362 . S
C1679 H1669 0.930 . S
C1679 C1672 1.409 . S
C1679 C1678 1.362 . S
H1680 C1686 0.930 . S
H1681 C1689 0.930 . S
H1682 C1690 0.930 . S
H1683 C1691 0.930 . S
H1684 C1694 0.930 . S
H1685 C1695 0.930 . S
C1686 H1680 0.930 . S
C1686 C1687 1.355 . S
C1686 C1688 1.415 . S
C1687 C1686 1.355 . S
C1687 C1689 1.419 . S
C1688 C1686 1.415 . S
C1688 C1693 1.425 . S
C1688 C1695 1.409 1_554 S
C1689 H1681 0.930 . S
C1689 C1687 1.419 . S
C1689 C1690 1.362 . S
C1690 H1682 0.930 . S
C1690 C1689 1.362 . S
C1690 C1693 1.409 . S
C1691 H1683 0.930 . S
C1691 C1692 1.355 1_554 S
C1691 C1693 1.415 . S
C1692 C1691 1.355 1_556 S
C1692 C1694 1.419 . S
C1693 C1688 1.425 . S
C1693 C1690 1.409 . S
C1693 C1691 1.415 . S
C1694 H1684 0.930 . S
C1694 C1692 1.419 . S
C1694 C1695 1.362 . S
C1695 H1685 0.930 . S
C1695 C1688 1.409 1_556 S
C1695 C1694 1.362 . S
H1696 C1702 0.930 . S
H1697 C1705 0.930 . S
H1698 C1706 0.930 . S
H1699 C1707 0.930 . S
H1700 C1710 0.930 . S
H1701 C1711 0.930 . S
C1702 H1696 0.930 . S
C1702 C1703 1.355 . S
C1702 C1704 1.415 . S
C1703 C1702 1.355 . S
C1703 C1705 1.419 . S
C1704 C1702 1.415 . S
C1704 C1709 1.425 . S
C1704 C1711 1.409 . S
C1705 H1697 0.930 . S
C1705 C1703 1.419 . S
C1705 C1706 1.362 . S
C1706 H1698 0.930 . S
C1706 C1705 1.362 . S
C1706 C1709 1.409 . S
C1707 H1699 0.930 . S
C1707 C1708 1.355 . S
C1707 C1709 1.415 . S
C1708 C1707 1.355 . S
C1708 C1710 1.419 . S
C1709 C1704 1.425 . S
C1709 C1706 1.409 . S
C1709 C1707 1.415 . S
C1710 H1700 0.930 . S
C1710 C1708 1.419 . S
C1710 C1711 1.362 . S
C1711 H1701 0.930 . S
C1711 C1704 1.409 . S
C1711 C1710 1.362 . S
H1712 C1718 0.930 . S
H1713 C1721 0.930 . S
H1714 C1722 0.930 . S
H1715 C1723 0.930 . S
H1716 C1726 0.930 . S
H1717 C1727 0.930 . S
C1718 H1712 0.930 . S
C1718 C1719 1.355 . S
C1718 C1720 1.415 . S
C1719 C1718 1.355 . S
C1719 C1721 1.419 . S
C1720 C1718 1.415 . S
C1720 C1725 1.425 . S
C1720 C1727 1.409 . S
C1721 H1713 0.930 . S
C1721 C1719 1.419 . S
C1721 C1722 1.362 . S
C1722 H1714 0.930 . S
C1722 C1721 1.362 . S
C1722 C1725 1.409 . S
C1723 H1715 0.930 . S
C1723 C1724 1.355 . S
C1723 C1725 1.415 . S
C1724 C1723 1.355 . S
C1724 C1726 1.419 . S
C1725 C1720 1.425 . S
C1725 C1722 1.409 . S
C1725 C1723 1.415 . S
C1726 H1716 0.930 . S
C1726 C1724 1.419 . S
C1726 C1727 1.362 . S
C1727 H1717 0.930 . S
C1727 C1720 1.409 . S
C1727 C1726 1.362 . S
H1728 C1734 0.930 . S
H1729 C1737 0.930 . S
H1730 C1738 0.930 . S
H1731 C1739 0.930 . S
H1732 C1742 0.930 . S
H1733 C1743 0.930 . S
C1734 H1728 0.930 . S
C1734 C1735 1.355 . S
C1734 C1736 1.415 . S
C1735 C1734 1.355 . S
C1735 C1737 1.419 . S
C1736 C1734 1.415 . S
C1736 C1741 1.425 . S
C1736 C1743 1.409 . S
C1737 H1729 0.930 . S
C1737 C1735 1.419 . S
C1737 C1738 1.362 . S
C1738 H1730 0.930 . S
C1738 C1737 1.362 . S
C1738 C1741 1.409 . S
C1739 H1731 0.930 . S
C1739 C1740 1.355 . S
C1739 C1741 1.415 . S
C1740 C1739 1.355 . S
C1740 C1742 1.419 . S
C1741 C1736 1.425 . S
C1741 C1738 1.409 . S
C1741 C1739 1.415 . S
C1742 H1732 0.930 . S
C1742 C1740 1.419 . S
C1742 C1743 1.362 . S
C1743 H1733 0.930 . S
C1743 C1736 1.409 . S
C1743 C1742 1.362 . S
H1744 C1750 0.930 . S
H1745 C1753 0.930 . S
H1746 C1754 0.930 . S
H1747 C1755 0.929 1_556 S
H1748 C1758 0.930 . S
H1749 C1759 0.930 . S
C1750 H1744 0.930 . S
C1750 C1751 1.355 . S
C1750 C1752 1.415 . S
C1751 C1750 1.355 . S
C1751 C1753 1.419 . S
C1752 C1750 1.415 . S
C1752 C1757 1.425 . S
C1752 C1759 1.409 1_556 S
C1753 H1745 0.930 . S
C1753 C1751 1.419 . S
C1753 C1754 1.362 . S
C1754 H1746 0.930 . S
C1754 C1753 1.362 . S
C1754 C1757 1.409 . S
C1755 H1747 0.929 1_554 S
C1755 C1756 1.357 . S
C1755 C1757 1.413 1_554 S
C1756 C1755 1.357 . S
C1756 C1758 1.419 . S
C1757 C1752 1.425 . S
C1757 C1754 1.409 . S
C1757 C1755 1.413 1_556 S
C1758 H1748 0.930 . S
C1758 C1756 1.419 . S
C1758 C1759 1.362 . S
C1759 H1749 0.930 . S
C1759 C1752 1.409 1_554 S
C1759 C1758 1.362 . S
H1760 C1766 0.930 . S
H1761 C1769 0.930 . S
H1762 C1770 0.930 . S
H1763 C1771 0.930 . S
H1764 C1774 0.930 . S
H1765 C1775 0.930 . S
C1766 H1760 0.930 . S
C1766 C1767 1.355 . S
C1766 C1768 1.415 . S
C1767 C1766 1.355 . S
C1767 C1769 1.419 . S
C1768 C1766 1.415 . S
C1768 C1773 1.425 . S
C1768 C1775 1.409 . S
C1769 H1761 0.930 . S
C1769 C1767 1.419 . S
C1769 C1770 1.362 . S
C1770 H1762 0.930 . S
C1770 C1769 1.362 . S
C1770 C1773 1.409 . S
C1771 H1763 0.930 . S
C1771 C1772 1.355 . S
C1771 C1773 1.415 . S
C1772 C1771 1.355 . S
C1772 C1774 1.419 . S
C1773 C1768 1.425 . S
C1773 C1770 1.409 . S
C1773 C1771 1.415 . S
C1774 H1764 0.930 . S
C1774 C1772 1.419 . S
C1774 C1775 1.362 . S
C1775 H1765 0.930 . S
C1775 C1768 1.409 . S
C1775 C1774 1.362 . S
H1776 C1782 0.930 . S
H1777 C1785 0.930 . S
H1778 C1786 0.930 . S
H1779 C1787 0.930 . S
H1780 C1790 0.930 . S
H1781 C1791 0.930 . S
C1782 H1776 0.930 . S
C1782 C1783 1.355 . S
C1782 C1784 1.415 . S
C1783 C1782 1.355 . S
C1783 C1785 1.419 . S
C1784 C1782 1.415 . S
C1784 C1789 1.425 . S
C1784 C1791 1.409 . S
C1785 H1777 0.930 . S
C1785 C1783 1.419 . S
C1785 C1786 1.362 . S
C1786 H1778 0.930 . S
C1786 C1785 1.362 . S
C1786 C1789 1.409 . S
C1787 H1779 0.930 . S
C1787 C1788 1.355 . S
C1787 C1789 1.415 . S
C1788 C1787 1.355 . S
C1788 C1790 1.419 . S
C1789 C1784 1.425 . S
C1789 C1786 1.409 . S
C1789 C1787 1.415 . S
C1790 H1780 0.930 . S
C1790 C1788 1.419 . S
C1790 C1791 1.362 . S
C1791 H1781 0.930 . S
C1791 C1784 1.409 . S
C1791 C1790 1.362 . S
H1792 C1798 0.930 . S
H1793 C1801 0.930 . S
H1794 C1802 0.930 . S
H1795 C1803 0.930 . S
H1796 C1806 0.930 . S
H1797 C1807 0.930 . S
C1798 H1792 0.930 . S
C1798 C1799 1.355 . S
C1798 C1800 1.415 . S
C1799 C1798 1.355 . S
C1799 C1801 1.419 . S
C1800 C1798 1.415 . S
C1800 C1805 1.425 . S
C1800 C1807 1.409 . S
C1801 H1793 0.930 . S
C1801 C1799 1.419 . S
C1801 C1802 1.362 . S
C1802 H1794 0.930 . S
C1802 C1801 1.362 . S
C1802 C1805 1.409 . S
C1803 H1795 0.930 . S
C1803 C1804 1.355 . S
C1803 C1805 1.415 . S
C1804 C1803 1.355 . S
C1804 C1806 1.419 . S
C1805 C1800 1.425 . S
C1805 C1802 1.409 . S
C1805 C1803 1.415 . S
C1806 H1796 0.930 . S
C1806 C1804 1.419 . S
C1806 C1807 1.362 . S
C1807 H1797 0.930 . S
C1807 C1800 1.409 . S
C1807 C1806 1.362 . S
H1808 C1814 0.930 . S
H1809 C1817 0.930 . S
H1810 C1818 0.930 . S
H1811 C1819 0.930 . S
H1812 C1822 0.930 . S
H1813 C1823 0.930 . S
C1814 H1808 0.930 . S
C1814 C1815 1.355 . S
C1814 C1816 1.415 . S
C1815 C1814 1.355 . S
C1815 C1817 1.419 . S
C1816 C1814 1.415 . S
C1816 C1821 1.425 . S
C1816 C1823 1.409 . S
C1817 H1809 0.930 . S
C1817 C1815 1.419 . S
C1817 C1818 1.362 . S
C1818 H1810 0.930 . S
C1818 C1817 1.362 . S
C1818 C1821 1.409 . S
C1819 H1811 0.930 . S
C1819 C1820 1.355 . S
C1819 C1821 1.415 1_655 S
C1820 C1819 1.355 . S
C1820 C1822 1.419 1_655 S
C1821 C1816 1.425 . S
C1821 C1818 1.409 . S
C1821 C1819 1.415 1_455 S
C1822 H1812 0.930 . S
C1822 C1820 1.419 1_455 S
C1822 C1823 1.362 . S
C1823 H1813 0.930 . S
C1823 C1816 1.409 . S
C1823 C1822 1.362 . S
H1824 C1830 0.930 . S
H1825 C1833 0.930 . S
H1826 C1834 0.930 . S
H1827 C1835 0.930 . S
H1828 C1838 0.930 . S
H1829 C1839 0.930 . S
C1830 H1824 0.930 . S
C1830 C1831 1.355 . S
C1830 C1832 1.415 . S
C1831 C1830 1.355 . S
C1831 C1833 1.419 . S
C1832 C1830 1.415 . S
C1832 C1837 1.425 . S
C1832 C1839 1.409 . S
C1833 H1825 0.930 . S
C1833 C1831 1.419 . S
C1833 C1834 1.362 . S
C1834 H1826 0.930 . S
C1834 C1833 1.362 . S
C1834 C1837 1.409 . S
C1835 H1827 0.930 . S
C1835 C1836 1.355 . S
C1835 C1837 1.415 . S
C1836 C1835 1.355 . S
C1836 C1838 1.419 . S
C1837 C1832 1.425 . S
C1837 C1834 1.409 . S
C1837 C1835 1.415 . S
C1838 H1828 0.930 . S
C1838 C1836 1.419 . S
C1838 C1839 1.362 . S
C1839 H1829 0.930 . S
C1839 C1832 1.409 . S
C1839 C1838 1.362 . S
H1840 C1846 0.930 . S
H1841 C1849 0.930 . S
H1842 C1850 0.930 . S
H1843 C1851 0.930 . S
H1844 C1854 0.930 . S
H1845 C1855 0.930 . S
C1846 H1840 0.930 . S
C1846 C1847 1.355 . S
C1846 C1848 1.415 . S
C1847 C1846 1.355 . S
C1847 C1849 1.419 . S
C1848 C1846 1.415 . S
C1848 C1853 1.425 . S
C1848 C1855 1.409 . S
C1849 H1841 0.930 . S
C1849 C1847 1.419 . S
C1849 C1850 1.362 . S
C1850 H1842 0.930 . S
C1850 C1849 1.362 . S
C1850 C1853 1.409 . S
C1851 H1843 0.930 . S
C1851 C1852 1.355 . S
C1851 C1853 1.415 . S
C1852 C1851 1.355 . S
C1852 C1854 1.419 . S
C1853 C1848 1.425 . S
C1853 C1850 1.409 . S
C1853 C1851 1.415 . S
C1854 H1844 0.930 . S
C1854 C1852 1.419 . S
C1854 C1855 1.362 . S
C1855 H1845 0.930 . S
C1855 C1848 1.409 . S
C1855 C1854 1.362 . S
H1856 C1862 0.930 . S
H1857 C1865 0.930 . S
H1858 C1866 0.930 . S
H1859 C1867 0.930 . S
H1860 C1870 0.930 . S
H1861 C1871 0.930 . S
C1862 H1856 0.930 . S
C1862 C1863 1.355 . S
C1862 C1864 1.415 . S
C1863 C1862 1.355 . S
C1863 C1865 1.419 . S
C1864 C1862 1.415 . S
C1864 C1869 1.425 . S
C1864 C1871 1.409 . S
C1865 H1857 0.930 . S
C1865 C1863 1.419 . S
C1865 C1866 1.362 . S
C1866 H1858 0.930 . S
C1866 C1865 1.362 . S
C1866 C1869 1.409 . S
C1867 H1859 0.930 . S
C1867 C1868 1.355 . S
C1867 C1869 1.415 . S
C1868 C1867 1.355 . S
C1868 C1870 1.419 . S
C1869 C1864 1.425 . S
C1869 C1866 1.409 . S
C1869 C1867 1.415 . S
C1870 H1860 0.930 . S
C1870 C1868 1.419 . S
C1870 C1871 1.362 . S
C1871 H1861 0.930 . S
C1871 C1864 1.409 . S
C1871 C1870 1.362 . S
H1872 C1878 0.930 . S
H1873 C1881 0.930 . S
H1874 C1882 0.930 . S
H1875 C1883 0.930 . S
H1876 C1886 0.930 . S
H1877 C1887 0.930 . S
C1878 H1872 0.930 . S
C1878 C1879 1.355 . S
C1878 C1880 1.415 . S
C1879 C1878 1.355 . S
C1879 C1881 1.419 . S
C1880 C1878 1.415 . S
C1880 C1885 1.425 . S
C1880 C1887 1.409 . S
C1881 H1873 0.930 . S
C1881 C1879 1.419 . S
C1881 C1882 1.362 . S
C1882 H1874 0.930 . S
C1882 C1881 1.362 . S
C1882 C1885 1.409 . S
C1883 H1875 0.930 . S
C1883 C1884 1.355 . S
C1883 C1885 1.415 . S
C1884 C1883 1.355 . S
C1884 C1886 1.419 . S
C1885 C1880 1.425 . S
C1885 C1882 1.409 . S
C1885 C1883 1.415 . S
C1886 H1876 0.930 . S
C1886 C1884 1.419 . S
C1886 C1887 1.362 . S
C1887 H1877 0.930 . S
C1887 C1880 1.409 . S
C1887 C1886 1.362 . S
H1888 C1894 0.930 . S
H1889 C1897 0.930 . S
H1890 C1898 0.930 . S
H1891 C1899 0.930 . S
H1892 C1902 0.930 . S
H1893 C1903 0.930 . S
C1894 H1888 0.930 . S
C1894 C1895 1.355 . S
C1894 C1896 1.415 . S
C1895 C1894 1.355 . S
C1895 C1897 1.419 . S
C1896 C1894 1.415 . S
C1896 C1901 1.425 . S
C1896 C1903 1.409 . S
C1897 H1889 0.930 . S
C1897 C1895 1.419 . S
C1897 C1898 1.362 . S
C1898 H1890 0.930 . S
C1898 C1897 1.362 . S
C1898 C1901 1.409 . S
C1899 H1891 0.930 . S
C1899 C1900 1.355 . S
C1899 C1901 1.415 . S
C1900 C1899 1.355 . S
C1900 C1902 1.419 . S
C1901 C1896 1.425 . S
C1901 C1898 1.409 . S
C1901 C1899 1.415 . S
C1902 H1892 0.930 . S
C1902 C1900 1.419 . S
C1902 C1903 1.362 . S
C1903 H1893 0.930 . S
C1903 C1896 1.409 . S
C1903 C1902 1.362 . S
H1904 C1910 0.930 . S
H1905 C1913 0.930 . S
H1906 C1914 0.930 . S
H1907 C1915 0.930 . S
H1908 C1918 0.930 . S
H1909 C1919 0.930 . S
C1910 H1904 0.930 . S
C1910 C1911 1.355 . S
C1910 C1912 1.415 . S
C1911 C1910 1.355 . S
C1911 C1913 1.419 . S
C1912 C1910 1.415 . S
C1912 C1917 1.425 . S
C1912 C1919 1.409 . S
C1913 H1905 0.930 . S
C1913 C1911 1.419 . S
C1913 C1914 1.362 . S
C1914 H1906 0.930 . S
C1914 C1913 1.362 . S
C1914 C1917 1.409 . S
C1915 H1907 0.930 . S
C1915 C1916 1.355 . S
C1915 C1917 1.415 1_655 S
C1916 C1915 1.355 . S
C1916 C1918 1.419 1_655 S
C1917 C1912 1.425 . S
C1917 C1914 1.409 . S
C1917 C1915 1.415 1_455 S
C1918 H1908 0.930 . S
C1918 C1916 1.419 1_455 S
C1918 C1919 1.362 . S
C1919 H1909 0.930 . S
C1919 C1912 1.409 . S
C1919 C1918 1.362 . S
H1920 C1926 0.930 . S
H1921 C1929 0.930 . S
H1922 C1930 0.930 . S
H1923 C1931 0.930 . S
H1924 C1934 0.930 . S
H1925 C1935 0.930 . S
C1926 H1920 0.930 . S
C1926 C1927 1.355 . S
C1926 C1928 1.415 . S
C1927 C1926 1.355 . S
C1927 C1929 1.419 . S
C1928 C1926 1.415 . S
C1928 C1933 1.425 . S
C1928 C1935 1.409 . S
C1929 H1921 0.930 . S
C1929 C1927 1.419 . S
C1929 C1930 1.362 . S
C1930 H1922 0.930 . S
C1930 C1929 1.362 . S
C1930 C1933 1.409 . S
C1931 H1923 0.930 . S
C1931 C1932 1.355 . S
C1931 C1933 1.415 . S
C1932 C1931 1.355 . S
C1932 C1934 1.419 . S
C1933 C1928 1.425 . S
C1933 C1930 1.409 . S
C1933 C1931 1.415 . S
C1934 H1924 0.930 . S
C1934 C1932 1.419 . S
C1934 C1935 1.362 . S
C1935 H1925 0.930 . S
C1935 C1928 1.409 . S
C1935 C1934 1.362 . S
H1936 C1942 0.930 . S
H1937 C1945 0.930 . S
H1938 C1946 0.930 . S
H1939 C1947 0.930 . S
H1940 C1950 0.930 . S
H1941 C1951 0.930 . S
C1942 H1936 0.930 . S
C1942 C1943 1.355 1_655 S
C1942 C1944 1.415 . S
C1943 C1942 1.355 1_455 S
C1943 C1945 1.419 . S
C1944 C1942 1.415 . S
C1944 C1949 1.425 . S
C1944 C1951 1.409 . S
C1945 H1937 0.930 . S
C1945 C1943 1.419 . S
C1945 C1946 1.362 1_455 S
C1946 H1938 0.930 . S
C1946 C1945 1.362 1_655 S
C1946 C1949 1.409 . S
C1947 H1939 0.930 . S
C1947 C1948 1.355 . S
C1947 C1949 1.415 . S
C1948 C1947 1.355 . S
C1948 C1950 1.419 . S
C1949 C1944 1.425 . S
C1949 C1946 1.409 . S
C1949 C1947 1.415 . S
C1950 H1940 0.930 . S
C1950 C1948 1.419 . S
C1950 C1951 1.362 . S
C1951 H1941 0.930 . S
C1951 C1944 1.409 . S
C1951 C1950 1.362 . S
H1952 C1958 0.930 . S
H1953 C1961 0.930 . S
H1954 C1962 0.930 . S
H1955 C1963 0.930 . S
H1956 C1966 0.930 . S
H1957 C1967 0.930 . S
C1958 H1952 0.930 . S
C1958 C1959 1.355 . S
C1958 C1960 1.415 . S
C1959 C1958 1.355 . S
C1959 C1961 1.419 . S
C1960 C1958 1.415 . S
C1960 C1965 1.425 . S
C1960 C1967 1.409 . S
C1961 H1953 0.930 . S
C1961 C1959 1.419 . S
C1961 C1962 1.362 . S
C1962 H1954 0.930 . S
C1962 C1961 1.362 . S
C1962 C1965 1.409 . S
C1963 H1955 0.930 . S
C1963 C1964 1.355 . S
C1963 C1965 1.415 . S
C1964 C1963 1.355 . S
C1964 C1966 1.419 . S
C1965 C1960 1.425 . S
C1965 C1962 1.409 . S
C1965 C1963 1.415 . S
C1966 H1956 0.930 . S
C1966 C1964 1.419 . S
C1966 C1967 1.362 . S
C1967 H1957 0.930 . S
C1967 C1960 1.409 . S
C1967 C1966 1.362 . S
H1968 C1974 0.930 . S
H1969 C1977 0.930 . S
H1970 C1978 0.930 . S
H1971 C1979 0.930 . S
H1972 C1982 0.930 . S
H1973 C1983 0.930 . S
C1974 H1968 0.930 . S
C1974 C1975 1.355 . S
C1974 C1976 1.415 . S
C1975 C1974 1.355 . S
C1975 C1977 1.419 . S
C1976 C1974 1.415 . S
C1976 C1981 1.425 . S
C1976 C1983 1.409 . S
C1977 H1969 0.930 . S
C1977 C1975 1.419 . S
C1977 C1978 1.362 . S
C1978 H1970 0.930 . S
C1978 C1977 1.362 . S
C1978 C1981 1.409 . S
C1979 H1971 0.930 . S
C1979 C1980 1.355 . S
C1979 C1981 1.415 . S
C1980 C1979 1.355 . S
C1980 C1982 1.419 . S
C1981 C1976 1.425 . S
C1981 C1978 1.409 . S
C1981 C1979 1.415 . S
C1982 H1972 0.930 . S
C1982 C1980 1.419 . S
C1982 C1983 1.362 . S
C1983 H1973 0.930 . S
C1983 C1976 1.409 . S
C1983 C1982 1.362 . S
H1984 C1990 0.930 . S
H1985 C1993 0.930 . S
H1986 C1994 0.930 . S
H1987 C1995 0.930 . S
H1988 C1998 0.930 . S
H1989 C1999 0.930 . S
C1990 H1984 0.930 . S
C1990 C1991 1.355 . S
C1990 C1992 1.415 . S
C1991 C1990 1.355 . S
C1991 C1993 1.419 . S
C1992 C1990 1.415 . S
C1992 C1997 1.425 . S
C1992 C1999 1.409 . S
C1993 H1985 0.930 . S
C1993 C1991 1.419 . S
C1993 C1994 1.362 . S
C1994 H1986 0.930 . S
C1994 C1993 1.362 . S
C1994 C1997 1.409 . S
C1995 H1987 0.930 . S
C1995 C1996 1.355 . S
C1995 C1997 1.415 . S
C1996 C1995 1.355 . S
C1996 C1998 1.419 . S
C1997 C1992 1.425 . S
C1997 C1994 1.409 . S
C1997 C1995 1.415 . S
C1998 H1988 0.930 . S
C1998 C1996 1.419 . S
C1998 C1999 1.362 . S
C1999 H1989 0.930 . S
C1999 C1992 1.409 . S
C1999 C1998 1.362 . S
H2000 C2006 0.930 . S
H2001 C2009 0.930 . S
H2002 C2010 0.930 . S
H2003 C2011 0.930 . S
H2004 C2014 0.930 . S
H2005 C2015 0.930 . S
C2006 H2000 0.930 . S
C2006 C2007 1.355 . S
C2006 C2008 1.415 . S
C2007 C2006 1.355 . S
C2007 C2009 1.419 . S
C2008 C2006 1.415 . S
C2008 C2013 1.425 . S
C2008 C2015 1.409 . S
C2009 H2001 0.930 . S
C2009 C2007 1.419 . S
C2009 C2010 1.362 . S
C2010 H2002 0.930 . S
C2010 C2009 1.362 . S
C2010 C2013 1.409 . S
C2011 H2003 0.930 . S
C2011 C2012 1.355 . S
C2011 C2013 1.415 . S
C2012 C2011 1.355 . S
C2012 C2014 1.419 . S
C2013 C2008 1.425 . S
C2013 C2010 1.409 . S
C2013 C2011 1.415 . S
C2014 H2004 0.930 . S
C2014 C2012 1.419 . S
C2014 C2015 1.362 . S
C2015 H2005 0.930 . S
C2015 C2008 1.409 . S
C2015 C2014 1.362 . S
H2016 C2022 0.930 . S
H2017 C2025 0.930 . S
H2018 C2026 0.930 . S
H2019 C2027 0.930 . S
H2020 C2030 0.930 . S
H2021 C2031 0.930 . S
C2022 H2016 0.930 . S
C2022 C2023 1.355 . S
C2022 C2024 1.415 . S
C2023 C2022 1.355 . S
C2023 C2025 1.419 . S
C2024 C2022 1.415 . S
C2024 C2029 1.425 . S
C2024 C2031 1.409 . S
C2025 H2017 0.930 . S
C2025 C2023 1.419 . S
C2025 C2026 1.362 . S
C2026 H2018 0.930 . S
C2026 C2025 1.362 . S
C2026 C2029 1.409 . S
C2027 H2019 0.930 . S
C2027 C2028 1.355 . S
C2027 C2029 1.415 . S
C2028 C2027 1.355 . S
C2028 C2030 1.419 . S
C2029 C2024 1.425 . S
C2029 C2026 1.409 . S
C2029 C2027 1.415 . S
C2030 H2020 0.930 . S
C2030 C2028 1.419 . S
C2030 C2031 1.362 . S
C2031 H2021 0.930 . S
C2031 C2024 1.409 . S
C2031 C2030 1.362 . S
H2032 C2038 0.930 . S
H2033 C2041 0.930 . S
H2034 C2042 0.930 . S
H2035 C2043 0.930 . S
H2036 C2046 0.930 . S
H2037 C2047 0.930 . S
C2038 H2032 0.930 . S
C2038 C2039 1.355 . S
C2038 C2040 1.415 . S
C2039 C2038 1.355 . S
C2039 C2041 1.419 . S
C2040 C2038 1.415 . S
C2040 C2045 1.425 . S
C2040 C2047 1.409 . S
C2041 H2033 0.930 . S
C2041 C2039 1.419 . S
C2041 C2042 1.362 . S
C2042 H2034 0.930 . S
C2042 C2041 1.362 . S
C2042 C2045 1.409 . S
C2043 H2035 0.930 . S
C2043 C2044 1.355 . S
C2043 C2045 1.415 1_455 S
C2044 C2043 1.355 . S
C2044 C2046 1.419 1_455 S
C2045 C2040 1.425 . S
C2045 C2042 1.409 . S
C2045 C2043 1.415 1_655 S
C2046 H2036 0.930 . S
C2046 C2044 1.419 1_655 S
C2046 C2047 1.362 . S
C2047 H2037 0.930 . S
C2047 C2040 1.409 . S
C2047 C2046 1.362 . S
H2048 C2054 0.930 . S
H2049 C2057 0.930 . S
H2050 C2058 0.930 . S
H2051 C2059 0.930 . S
H2052 C2062 0.930 . S
H2053 C2063 0.930 . S
C2054 H2048 0.930 . S
C2054 C2055 1.355 . S
C2054 C2056 1.415 . S
C2055 C2054 1.355 . S
C2055 C2057 1.419 . S
C2056 C2054 1.415 . S
C2056 C2061 1.425 . S
C2056 C2063 1.409 . S
C2057 H2049 0.930 . S
C2057 C2055 1.419 . S
C2057 C2058 1.362 . S
C2058 H2050 0.930 . S
C2058 C2057 1.362 . S
C2058 C2061 1.409 . S
C2059 H2051 0.930 . S
C2059 C2060 1.355 . S
C2059 C2061 1.415 . S
C2060 C2059 1.355 . S
C2060 C2062 1.419 . S
C2061 C2056 1.425 . S
C2061 C2058 1.409 . S
C2061 C2059 1.415 . S
C2062 H2052 0.930 . S
C2062 C2060 1.419 . S
C2062 C2063 1.362 . S
C2063 H2053 0.930 . S
C2063 C2056 1.409 . S
C2063 C2062 1.362 . S
H2064 C2070 0.930 . S
H2065 C2073 0.930 . S
H2066 C2074 0.930 . S
H2067 C2075 0.930 . S
H2068 C2078 0.930 . S
H2069 C2079 0.930 . S
C2070 H2064 0.930 . S
C2070 C2071 1.355 . S
C2070 C2072 1.415 . S
C2071 C2070 1.355 . S
C2071 C2073 1.419 . S
C2072 C2070 1.415 . S
C2072 C2077 1.425 . S
C2072 C2079 1.409 . S
C2073 H2065 0.930 . S
C2073 C2071 1.419 . S
C2073 C2074 1.362 . S
C2074 H2066 0.930 . S
C2074 C2073 1.362 . S
C2074 C2077 1.409 . S
C2075 H2067 0.930 . S
C2075 C2076 1.355 . S
C2075 C2077 1.415 . S
C2076 C2075 1.355 . S
C2076 C2078 1.419 . S
C2077 C2072 1.425 . S
C2077 C2074 1.409 . S
C2077 C2075 1.415 . S
C2078 H2068 0.930 . S
C2078 C2076 1.419 . S
C2078 C2079 1.362 . S
C2079 H2069 0.930 . S
C2079 C2072 1.409 . S
C2079 C2078 1.362 . S
H2080 C2086 0.930 . S
H2081 C2089 0.930 . S
H2082 C2090 0.930 . S
H2083 C2091 0.930 . S
H2084 C2094 0.930 . S
H2085 C2095 0.930 . S
C2086 H2080 0.930 . S
C2086 C2087 1.355 . S
C2086 C2088 1.415 . S
C2087 C2086 1.355 . S
C2087 C2089 1.419 . S
C2088 C2086 1.415 . S
C2088 C2093 1.425 . S
C2088 C2095 1.409 . S
C2089 H2081 0.930 . S
C2089 C2087 1.419 . S
C2089 C2090 1.362 . S
C2090 H2082 0.930 . S
C2090 C2089 1.362 . S
C2090 C2093 1.409 . S
C2091 H2083 0.930 . S
C2091 C2092 1.355 . S
C2091 C2093 1.415 . S
C2092 C2091 1.355 . S
C2092 C2094 1.419 . S
C2093 C2088 1.425 . S
C2093 C2090 1.409 . S
C2093 C2091 1.415 . S
C2094 H2084 0.930 . S
C2094 C2092 1.419 . S
C2094 C2095 1.362 . S
C2095 H2085 0.930 . S
C2095 C2088 1.409 . S
C2095 C2094 1.362 . S
H2096 C2102 0.930 . S
H2097 C2105 0.930 . S
H2098 C2106 0.898 1_455 S
H2099 C2107 0.930 . S
H2100 C2110 0.930 . S
H2101 C2111 0.930 . S
C2102 H2096 0.930 . S
C2102 C2103 1.355 . S
C2102 C2104 1.415 . S
C2103 C2102 1.355 . S
C2103 C2105 1.419 . S
C2104 C2102 1.415 . S
C2104 C2109 1.425 . S
C2104 C2111 1.409 . S
C2105 H2097 0.930 . S
C2105 C2103 1.419 . S
C2105 C2106 1.362 . S
C2106 H2098 0.898 1_655 S
C2106 C2105 1.362 . S
C2106 C2109 1.409 . S
C2107 H2099 0.930 . S
C2107 C2108 1.355 . S
C2107 C2109 1.415 1_455 S
C2108 C2107 1.355 . S
C2108 C2110 1.419 1_455 S
C2109 C2104 1.425 . S
C2109 C2106 1.409 . S
C2109 C2107 1.415 1_655 S
C2110 H2100 0.930 . S
C2110 C2108 1.419 1_655 S
C2110 C2111 1.362 . S
C2111 H2101 0.930 . S
C2111 C2104 1.409 . S
C2111 C2110 1.362 . S
H2112 C2118 0.930 . S
H2113 C2121 0.930 . S
H2114 C2122 0.930 . S
H2115 C2123 0.930 . S
H2116 C2126 0.930 . S
H2117 C2127 0.930 . S
C2118 H2112 0.930 . S
C2118 C2119 1.355 . S
C2118 C2120 1.415 . S
C2119 C2118 1.355 . S
C2119 C2121 1.419 . S
C2120 C2118 1.415 . S
C2120 C2125 1.425 . S
C2120 C2127 1.409 . S
C2121 H2113 0.930 . S
C2121 C2119 1.419 . S
C2121 C2122 1.362 . S
C2122 H2114 0.930 . S
C2122 C2121 1.362 . S
C2122 C2125 1.409 . S
C2123 H2115 0.930 . S
C2123 C2124 1.355 . S
C2123 C2125 1.415 . S
C2124 C2123 1.355 . S
C2124 C2126 1.419 . S
C2125 C2120 1.425 . S
C2125 C2122 1.409 . S
C2125 C2123 1.415 . S
C2126 H2116 0.930 . S
C2126 C2124 1.419 . S
C2126 C2127 1.362 . S
C2127 H2117 0.930 . S
C2127 C2120 1.409 . S
C2127 C2126 1.362 . S
H2128 C2134 0.930 . S
H2129 C2137 0.930 . S
H2130 C2138 0.930 . S
H2131 C2139 0.930 . S
H2132 C2142 0.930 1_455 S
H2133 C2143 0.930 . S
C2134 H2128 0.930 . S
C2134 C2135 1.355 . S
C2134 C2136 1.415 . S
C2135 C2134 1.355 . S
C2135 C2137 1.419 . S
C2136 C2134 1.415 . S
C2136 C2141 1.425 . S
C2136 C2143 1.409 . S
C2137 H2129 0.930 . S
C2137 C2135 1.419 . S
C2137 C2138 1.362 . S
C2138 H2130 0.930 . S
C2138 C2137 1.362 . S
C2138 C2141 1.409 . S
C2139 H2131 0.930 . S
C2139 C2140 1.355 . S
C2139 C2141 1.415 1_455 S
C2140 C2139 1.355 . S
C2140 C2142 1.419 1_455 S
C2141 C2136 1.425 . S
C2141 C2138 1.409 . S
C2141 C2139 1.415 1_655 S
C2142 H2132 0.930 1_655 S
C2142 C2140 1.419 1_655 S
C2142 C2143 1.362 . S
C2143 H2133 0.930 . S
C2143 C2136 1.409 . S
C2143 C2142 1.362 . S
H2144 C2150 0.930 . S
H2145 C2153 0.930 . S
H2146 C2154 0.930 . S
H2147 C2155 0.930 . S
H2148 C2158 0.930 . S
H2149 C2159 0.930 . S
C2150 H2144 0.930 . S
C2150 C2151 1.355 . S
C2150 C2152 1.415 . S
C2151 C2150 1.355 . S
C2151 C2153 1.419 . S
C2152 C2150 1.415 . S
C2152 C2157 1.425 . S
C2152 C2159 1.409 . S
C2153 H2145 0.930 . S
C2153 C2151 1.419 . S
C2153 C2154 1.362 . S
C2154 H2146 0.930 . S
C2154 C2153 1.362 . S
C2154 C2157 1.409 . S
C2155 H2147 0.930 . S
C2155 C2156 1.355 . S
C2155 C2157 1.415 . S
C2156 C2155 1.355 . S
C2156 C2158 1.419 . S
C2157 C2152 1.425 . S
C2157 C2154 1.409 . S
C2157 C2155 1.415 . S
C2158 H2148 0.930 . S
C2158 C2156 1.419 . S
C2158 C2159 1.362 . S
C2159 H2149 0.930 . S
C2159 C2152 1.409 . S
C2159 C2158 1.362 . S
H2160 C2166 0.930 . S
H2161 C2169 0.930 . S
H2162 C2170 0.930 . S
H2163 C2171 0.930 . S
H2164 C2174 0.930 . S
H2165 C2175 0.930 . S
C2166 H2160 0.930 . S
C2166 C2167 1.355 . S
C2166 C2168 1.415 . S
C2167 C2166 1.355 . S
C2167 C2169 1.419 . S
C2168 C2166 1.415 . S
C2168 C2173 1.425 . S
C2168 C2175 1.409 . S
C2169 H2161 0.930 . S
C2169 C2167 1.419 . S
C2169 C2170 1.362 . S
C2170 H2162 0.930 . S
C2170 C2169 1.362 . S
C2170 C2173 1.409 . S
C2171 H2163 0.930 . S
C2171 C2172 1.355 . S
C2171 C2173 1.415 . S
C2172 C2171 1.355 . S
C2172 C2174 1.419 . S
C2173 C2168 1.425 . S
C2173 C2170 1.409 . S
C2173 C2171 1.415 . S
C2174 H2164 0.930 . S
C2174 C2172 1.419 . S
C2174 C2175 1.362 . S
C2175 H2165 0.930 . S
C2175 C2168 1.409 . S
C2175 C2174 1.362 . S
H2176 C2182 0.930 . S
H2177 C2185 0.930 . S
H2178 C2186 0.930 . S
H2179 C2187 0.930 . S
H2180 C2190 0.930 . S
H2181 C2191 0.930 . S
C2182 H2176 0.930 . S
C2182 C2183 1.355 . S
C2182 C2184 1.415 . S
C2183 C2182 1.355 . S
C2183 C2185 1.419 . S
C2184 C2182 1.415 . S
C2184 C2189 1.425 . S
C2184 C2191 1.409 . S
C2185 H2177 0.930 . S
C2185 C2183 1.419 . S
C2185 C2186 1.362 . S
C2186 H2178 0.930 . S
C2186 C2185 1.362 . S
C2186 C2189 1.409 . S
C2187 H2179 0.930 . S
C2187 C2188 1.355 . S
C2187 C2189 1.415 . S
C2188 C2187 1.355 . S
C2188 C2190 1.419 . S
C2189 C2184 1.425 . S
C2189 C2186 1.409 . S
C2189 C2187 1.415 . S
C2190 H2180 0.930 . S
C2190 C2188 1.419 . S
C2190 C2191 1.362 . S
C2191 H2181 0.930 . S
C2191 C2184 1.409 . S
C2191 C2190 1.362 . S
H2192 C2198 0.930 . S
H2193 C2201 0.930 . S
H2194 C2202 0.930 . S
H2195 C2203 0.930 . S
H2196 C2206 0.930 . S
H2197 C2207 0.930 . S
C2198 H2192 0.930 . S
C2198 C2199 1.355 . S
C2198 C2200 1.415 . S
C2199 C2198 1.355 . S
C2199 C2201 1.419 . S
C2200 C2198 1.415 . S
C2200 C2205 1.425 . S
C2200 C2207 1.409 . S
C2201 H2193 0.930 . S
C2201 C2199 1.419 . S
C2201 C2202 1.362 . S
C2202 H2194 0.930 . S
C2202 C2201 1.362 . S
C2202 C2205 1.409 . S
C2203 H2195 0.930 . S
C2203 C2204 1.355 . S
C2203 C2205 1.415 . S
C2204 C2203 1.355 . S
C2204 C2206 1.419 . S
C2205 C2200 1.425 . S
C2205 C2202 1.409 . S
C2205 C2203 1.415 . S
C2206 H2196 0.930 . S
C2206 C2204 1.419 . S
C2206 C2207 1.362 . S
C2207 H2197 0.930 . S
C2207 C2200 1.409 . S
C2207 C2206 1.362 . S
H2208 C2214 0.930 . S
H2209 C2217 0.930 . S
H2210 C2218 0.930 . S
H2211 C2219 0.930 . S
H2212 C2222 0.930 . S
H2213 C2223 0.930 . S
C2214 H2208 0.930 . S
C2214 C2215 1.355 . S
C2214 C2216 1.415 . S
C2215 C2214 1.355 . S
C2215 C2217 1.419 . S
C2216 C2214 1.415 . S
C2216 C2221 1.425 . S
C2216 C2223 1.409 . S
C2217 H2209 0.930 . S
C2217 C2215 1.419 . S
C2217 C2218 1.362 . S
C2218 H2210 0.930 . S
C2218 C2217 1.362 . S
C2218 C2221 1.409 . S
C2219 H2211 0.930 . S
C2219 C2220 1.355 . S
C2219 C2221 1.415 . S
C2220 C2219 1.355 . S
C2220 C2222 1.419 . S
C2221 C2216 1.425 . S
C2221 C2218 1.409 . S
C2221 C2219 1.415 . S
C2222 H2212 0.930 . S
C2222 C2220 1.419 . S
C2222 C2223 1.362 . S
C2223 H2213 0.930 . S
C2223 C2216 1.409 . S
C2223 C2222 1.362 . S
H2224 C2230 0.928 1_655 S
H2225 C2233 0.930 . S
H2226 C2234 0.930 . S
H2227 C2235 0.930 . S
H2228 C2238 0.930 . S
H2229 C2239 0.930 . S
C2230 H2224 0.928 1_455 S
C2230 C2231 1.351 1_455 S
C2230 C2232 1.420 . S
C2231 C2230 1.351 1_655 S
C2231 C2233 1.419 . S
C2232 C2230 1.420 . S
C2232 C2237 1.425 . S
C2232 C2239 1.409 . S
C2233 H2225 0.930 . S
C2233 C2231 1.419 . S
C2233 C2234 1.362 1_655 S
C2234 H2226 0.930 . S
C2234 C2233 1.362 1_455 S
C2234 C2237 1.409 . S
C2235 H2227 0.930 . S
C2235 C2236 1.355 . S
C2235 C2237 1.415 . S
C2236 C2235 1.355 . S
C2236 C2238 1.419 . S
C2237 C2232 1.425 . S
C2237 C2234 1.409 . S
C2237 C2235 1.415 . S
C2238 H2228 0.930 . S
C2238 C2236 1.419 . S
C2238 C2239 1.362 . S
C2239 H2229 0.930 . S
C2239 C2232 1.409 . S
C2239 C2238 1.362 . S
H2240 C2246 0.930 . S
H2241 C2249 0.930 . S
H2242 C2250 0.930 . S
H2243 C2251 0.930 . S
H2244 C2254 0.930 . S
H2245 C2255 0.930 . S
C2246 H2240 0.930 . S
C2246 C2247 1.355 . S
C2246 C2248 1.415 . S
C2247 C2246 1.355 . S
C2247 C2249 1.419 . S
C2248 C2246 1.415 . S
C2248 C2253 1.425 . S
C2248 C2255 1.409 . S
C2249 H2241 0.930 . S
C2249 C2247 1.419 . S
C2249 C2250 1.362 . S
C2250 H2242 0.930 . S
C2250 C2249 1.362 . S
C2250 C2253 1.409 . S
C2251 H2243 0.930 . S
C2251 C2252 1.355 . S
C2251 C2253 1.415 . S
C2252 C2251 1.355 . S
C2252 C2254 1.419 . S
C2253 C2248 1.425 . S
C2253 C2250 1.409 . S
C2253 C2251 1.415 . S
C2254 H2244 0.930 . S
C2254 C2252 1.419 . S
C2254 C2255 1.362 . S
C2255 H2245 0.930 . S
C2255 C2248 1.409 . S
C2255 C2254 1.362 . S
H2256 C2262 0.930 . S
H2257 C2265 0.930 . S
H2258 C2266 0.933 1_655 S
H2259 C2267 0.930 . S
H2260 C2270 0.930 . S
H2261 C2271 0.930 . S
C2262 H2256 0.930 . S
C2262 C2263 1.355 . S
C2262 C2264 1.415 . S
C2263 C2262 1.355 . S
C2263 C2265 1.419 . S
C2264 C2262 1.415 . S
C2264 C2269 1.425 . S
C2264 C2271 1.409 . S
C2265 H2257 0.930 . S
C2265 C2263 1.419 . S
C2265 C2266 1.362 . S
C2266 H2258 0.933 1_455 S
C2266 C2265 1.362 . S
C2266 C2269 1.409 . S
C2267 H2259 0.930 . S
C2267 C2268 1.355 . S
C2267 C2269 1.415 1_655 S
C2268 C2267 1.355 . S
C2268 C2270 1.419 1_655 S
C2269 C2264 1.425 . S
C2269 C2266 1.409 . S
C2269 C2267 1.415 1_455 S
C2270 H2260 0.930 . S
C2270 C2268 1.419 1_455 S
C2270 C2271 1.362 . S
C2271 H2261 0.930 . S
C2271 C2264 1.409 . S
C2271 C2270 1.362 . S
H2272 C2278 0.930 . S
H2273 C2281 0.930 . S
H2274 C2282 0.930 . S
H2275 C2283 0.930 . S
H2276 C2286 0.930 . S
H2277 C2287 0.930 . S
C2278 H2272 0.930 . S
C2278 C2279 1.355 . S
C2278 C2280 1.415 . S
C2279 C2278 1.355 . S
C2279 C2281 1.419 . S
C2280 C2278 1.415 . S
C2280 C2285 1.425 . S
C2280 C2287 1.409 . S
C2281 H2273 0.930 . S
C2281 C2279 1.419 . S
C2281 C2282 1.362 . S
C2282 H2274 0.930 . S
C2282 C2281 1.362 . S
C2282 C2285 1.409 . S
C2283 H2275 0.930 . S
C2283 C2284 1.355 . S
C2283 C2285 1.415 . S
C2284 C2283 1.355 . S
C2284 C2286 1.419 . S
C2285 C2280 1.425 . S
C2285 C2282 1.409 . S
C2285 C2283 1.415 . S
C2286 H2276 0.930 . S
C2286 C2284 1.419 . S
C2286 C2287 1.362 . S
C2287 H2277 0.930 . S
C2287 C2280 1.409 . S
C2287 C2286 1.362 . S
H2288 C2294 0.930 . S
H2289 C2297 0.930 . S
H2290 C2298 0.930 . S
H2291 C2299 0.930 . S
H2292 C2302 0.930 . S
H2293 C2303 0.930 . S
C2294 H2288 0.930 . S
C2294 C2295 1.355 . S
C2294 C2296 1.415 . S
C2295 C2294 1.355 . S
C2295 C2297 1.419 . S
C2296 C2294 1.415 . S
C2296 C2301 1.425 . S
C2296 C2303 1.409 . S
C2297 H2289 0.930 . S
C2297 C2295 1.419 . S
C2297 C2298 1.362 . S
C2298 H2290 0.930 . S
C2298 C2297 1.362 . S
C2298 C2301 1.409 . S
C2299 H2291 0.930 . S
C2299 C2300 1.355 . S
C2299 C2301 1.415 . S
C2300 C2299 1.355 . S
C2300 C2302 1.419 . S
C2301 C2296 1.425 . S
C2301 C2298 1.409 . S
C2301 C2299 1.415 . S
C2302 H2292 0.930 . S
C2302 C2300 1.419 . S
C2302 C2303 1.362 . S
C2303 H2293 0.930 . S
C2303 C2296 1.409 . S
C2303 C2302 1.362 . S
H2304 C2310 0.930 . S
H2305 C2313 0.930 . S
H2306 C2314 0.930 . S
H2307 C2315 0.930 . S
H2308 C2318 0.930 . S
H2309 C2319 0.930 . S
C2310 H2304 0.930 . S
C2310 C2311 1.355 . S
C2310 C2312 1.415 . S
C2311 C2310 1.355 . S
C2311 C2313 1.419 . S
C2312 C2310 1.415 . S
C2312 C2317 1.425 1_545 S
C2312 C2319 1.409 . S
C2313 H2305 0.930 . S
C2313 C2311 1.419 . S
C2313 C2314 1.362 1_545 S
C2314 H2306 0.930 . S
C2314 C2313 1.362 1_565 S
C2314 C2317 1.409 . S
C2315 H2307 0.930 . S
C2315 C2316 1.355 . S
C2315 C2317 1.415 . S
C2316 C2315 1.355 . S
C2316 C2318 1.419 . S
C2317 C2312 1.425 1_565 S
C2317 C2314 1.409 . S
C2317 C2315 1.415 . S
C2318 H2308 0.930 . S
C2318 C2316 1.419 . S
C2318 C2319 1.362 1_565 S
C2319 H2309 0.930 . S
C2319 C2312 1.409 . S
C2319 C2318 1.362 1_545 S
H2320 C2326 0.930 . S
H2321 C2329 0.930 . S
H2322 C2330 0.930 . S
H2323 C2331 0.930 . S
H2324 C2334 0.930 . S
H2325 C2335 0.930 . S
C2326 H2320 0.930 . S
C2326 C2327 1.355 . S
C2326 C2328 1.415 . S
C2327 C2326 1.355 . S
C2327 C2329 1.419 . S
C2328 C2326 1.415 . S
C2328 C2333 1.425 . S
C2328 C2335 1.409 . S
C2329 H2321 0.930 . S
C2329 C2327 1.419 . S
C2329 C2330 1.362 . S
C2330 H2322 0.930 . S
C2330 C2329 1.362 . S
C2330 C2333 1.409 . S
C2331 H2323 0.930 . S
C2331 C2332 1.355 . S
C2331 C2333 1.415 . S
C2332 C2331 1.355 . S
C2332 C2334 1.419 . S
C2333 C2328 1.425 . S
C2333 C2330 1.409 . S
C2333 C2331 1.415 . S
C2334 H2324 0.930 . S
C2334 C2332 1.419 . S
C2334 C2335 1.362 . S
C2335 H2325 0.930 . S
C2335 C2328 1.409 . S
C2335 C2334 1.362 . S
H2336 C2342 0.918 1_545 S
H2337 C2345 0.930 . S
H2338 C2346 0.930 . S
H2339 C2347 0.918 1_565 S
H2340 C2350 0.930 . S
H2341 C2351 0.930 . S
C2342 H2336 0.918 1_565 S
C2342 C2343 1.355 . S
C2342 C2344 1.415 1_565 S
C2343 C2342 1.355 . S
C2343 C2345 1.419 . S
C2344 C2342 1.415 1_545 S
C2344 C2349 1.425 1_545 S
C2344 C2351 1.409 . S
C2345 H2337 0.930 . S
C2345 C2343 1.419 . S
C2345 C2346 1.362 . S
C2346 H2338 0.930 . S
C2346 C2345 1.362 . S
C2346 C2349 1.409 . S
C2347 H2339 0.918 1_545 S
C2347 C2348 1.355 . S
C2347 C2349 1.415 1_545 S
C2348 C2347 1.355 . S
C2348 C2350 1.419 . S
C2349 C2344 1.425 1_565 S
C2349 C2346 1.409 . S
C2349 C2347 1.415 1_565 S
C2350 H2340 0.930 . S
C2350 C2348 1.419 . S
C2350 C2351 1.362 . S
C2351 H2341 0.930 . S
C2351 C2344 1.409 . S
C2351 C2350 1.362 . S
H2352 C2358 0.930 . S
H2353 C2361 0.930 . S
H2354 C2362 0.930 . S
H2355 C2363 0.930 . S
H2356 C2366 0.930 . S
H2357 C2367 0.930 . S
C2358 H2352 0.930 . S
C2358 C2359 1.355 . S
C2358 C2360 1.415 . S
C2359 C2358 1.355 . S
C2359 C2361 1.419 . S
C2360 C2358 1.415 . S
C2360 C2365 1.425 1_556 S
C2360 C2367 1.409 . S
C2361 H2353 0.930 . S
C2361 C2359 1.419 . S
C2361 C2362 1.362 1_556 S
C2362 H2354 0.930 . S
C2362 C2361 1.362 1_554 S
C2362 C2365 1.409 . S
C2363 H2355 0.930 . S
C2363 C2364 1.355 . S
C2363 C2365 1.415 . S
C2364 C2363 1.355 . S
C2364 C2366 1.419 . S
C2365 C2360 1.425 1_554 S
C2365 C2362 1.409 . S
C2365 C2363 1.415 . S
C2366 H2356 0.930 . S
C2366 C2364 1.419 . S
C2366 C2367 1.362 1_554 S
C2367 H2357 0.930 . S
C2367 C2360 1.409 . S
C2367 C2366 1.362 1_556 S
H2368 C2374 0.930 . S
H2369 C2377 0.930 1_565 S
H2370 C2378 0.930 . S
H2371 C2379 0.930 . S
H2372 C2382 0.930 1_545 S
H2373 C2383 0.930 . S
C2374 H2368 0.930 . S
C2374 C2375 1.355 . S
C2374 C2376 1.415 . S
C2375 C2374 1.355 . S
C2375 C2377 1.419 . S
C2376 C2374 1.415 . S
C2376 C2381 1.425 1_545 S
C2376 C2383 1.409 . S
C2377 H2369 0.930 1_545 S
C2377 C2375 1.419 . S
C2377 C2378 1.362 1_545 S
C2378 H2370 0.930 . S
C2378 C2377 1.362 1_565 S
C2378 C2381 1.409 . S
C2379 H2371 0.930 . S
C2379 C2380 1.355 . S
C2379 C2381 1.415 . S
C2380 C2379 1.355 . S
C2380 C2382 1.419 . S
C2381 C2376 1.425 1_565 S
C2381 C2378 1.409 . S
C2381 C2379 1.415 . S
C2382 H2372 0.930 1_565 S
C2382 C2380 1.419 . S
C2382 C2383 1.362 1_565 S
C2383 H2373 0.930 . S
C2383 C2376 1.409 . S
C2383 C2382 1.362 1_545 S
H2384 C2390 0.930 . S
H2385 C2393 0.930 . S
H2386 C2394 0.930 . S
H2387 C2395 0.930 . S
H2388 C2398 0.930 . S
H2389 C2399 0.930 . S
C2390 H2384 0.930 . S
C2390 C2391 1.355 . S
C2390 C2392 1.415 . S
C2391 C2390 1.355 . S
C2391 C2393 1.419 . S
C2392 C2390 1.415 . S
C2392 C2397 1.425 . S
C2392 C2399 1.409 . S
C2393 H2385 0.930 . S
C2393 C2391 1.419 . S
C2393 C2394 1.362 . S
C2394 H2386 0.930 . S
C2394 C2393 1.362 . S
C2394 C2397 1.409 . S
C2395 H2387 0.930 . S
C2395 C2396 1.355 . S
C2395 C2397 1.415 . S
C2396 C2395 1.355 . S
C2396 C2398 1.419 . S
C2397 C2392 1.425 . S
C2397 C2394 1.409 . S
C2397 C2395 1.415 . S
C2398 H2388 0.930 . S
C2398 C2396 1.419 . S
C2398 C2399 1.362 . S
C2399 H2389 0.930 . S
C2399 C2392 1.409 . S
C2399 C2398 1.362 . S
H2400 C2406 0.930 . S
H2401 C2409 0.930 . S
H2402 C2410 0.930 . S
H2403 C2411 0.930 . S
H2404 C2414 0.930 . S
H2405 C2415 0.930 . S
C2406 H2400 0.930 . S
C2406 C2407 1.355 . S
C2406 C2408 1.415 1_545 S
C2407 C2406 1.355 . S
C2407 C2409 1.419 . S
C2408 C2406 1.415 1_565 S
C2408 C2413 1.425 1_565 S
C2408 C2415 1.409 . S
C2409 H2401 0.930 . S
C2409 C2407 1.419 . S
C2409 C2410 1.362 . S
C2410 H2402 0.930 . S
C2410 C2409 1.362 . S
C2410 C2413 1.409 . S
C2411 H2403 0.930 . S
C2411 C2412 1.355 . S
C2411 C2413 1.415 1_565 S
C2412 C2411 1.355 . S
C2412 C2414 1.419 . S
C2413 C2408 1.425 1_545 S
C2413 C2410 1.409 . S
C2413 C2411 1.415 1_545 S
C2414 H2404 0.930 . S
C2414 C2412 1.419 . S
C2414 C2415 1.362 . S
C2415 H2405 0.930 . S
C2415 C2408 1.409 . S
C2415 C2414 1.362 . S
H2416 C2422 0.930 . S
H2417 C2425 0.930 . S
H2418 C2426 0.930 . S
H2419 C2427 0.930 . S
H2420 C2430 0.930 . S
H2421 C2431 0.930 . S
C2422 H2416 0.930 . S
C2422 C2423 1.355 . S
C2422 C2424 1.415 . S
C2423 C2422 1.355 . S
C2423 C2425 1.419 . S
C2424 C2422 1.415 . S
C2424 C2429 1.425 1_556 S
C2424 C2431 1.409 . S
C2425 H2417 0.930 . S
C2425 C2423 1.419 . S
C2425 C2426 1.362 1_556 S
C2426 H2418 0.930 . S
C2426 C2425 1.362 1_554 S
C2426 C2429 1.409 . S
C2427 H2419 0.930 . S
C2427 C2428 1.355 . S
C2427 C2429 1.415 . S
C2428 C2427 1.355 . S
C2428 C2430 1.419 . S
C2429 C2424 1.425 1_554 S
C2429 C2426 1.409 . S
C2429 C2427 1.415 . S
C2430 H2420 0.930 . S
C2430 C2428 1.419 . S
C2430 C2431 1.362 1_554 S
C2431 H2421 0.930 . S
C2431 C2424 1.409 . S
C2431 C2430 1.362 1_556 S
H2432 C2438 0.930 . S
H2433 C2441 0.930 . S
H2434 C2442 0.930 . S
H2435 C2443 0.930 . S
H2436 C2446 0.930 . S
H2437 C2447 0.930 . S
C2438 H2432 0.930 . S
C2438 C2439 1.355 . S
C2438 C2440 1.415 . S
C2439 C2438 1.355 . S
C2439 C2441 1.419 . S
C2440 C2438 1.415 . S
C2440 C2445 1.425 . S
C2440 C2447 1.409 . S
C2441 H2433 0.930 . S
C2441 C2439 1.419 . S
C2441 C2442 1.362 . S
C2442 H2434 0.930 . S
C2442 C2441 1.362 . S
C2442 C2445 1.409 . S
C2443 H2435 0.930 . S
C2443 C2444 1.355 . S
C2443 C2445 1.415 . S
C2444 C2443 1.355 . S
C2444 C2446 1.419 . S
C2445 C2440 1.425 . S
C2445 C2442 1.409 . S
C2445 C2443 1.415 . S
C2446 H2436 0.930 . S
C2446 C2444 1.419 . S
C2446 C2447 1.362 . S
C2447 H2437 0.930 . S
C2447 C2440 1.409 . S
C2447 C2446 1.362 . S
H2448 C2454 0.930 . S
H2449 C2457 0.930 . S
H2450 C2458 0.930 . S
H2451 C2459 0.930 . S
H2452 C2462 0.930 . S
H2453 C2463 0.930 . S
C2454 H2448 0.930 . S
C2454 C2455 1.355 . S
C2454 C2456 1.415 1_556 S
C2455 C2454 1.355 . S
C2455 C2457 1.419 . S
C2456 C2454 1.415 1_554 S
C2456 C2461 1.425 1_554 S
C2456 C2463 1.409 . S
C2457 H2449 0.930 . S
C2457 C2455 1.419 . S
C2457 C2458 1.362 . S
C2458 H2450 0.930 . S
C2458 C2457 1.362 . S
C2458 C2461 1.409 . S
C2459 H2451 0.930 . S
C2459 C2460 1.355 . S
C2459 C2461 1.415 1_554 S
C2460 C2459 1.355 . S
C2460 C2462 1.419 . S
C2461 C2456 1.425 1_556 S
C2461 C2458 1.409 . S
C2461 C2459 1.415 1_556 S
C2462 H2452 0.930 . S
C2462 C2460 1.419 . S
C2462 C2463 1.362 . S
C2463 H2453 0.930 . S
C2463 C2456 1.409 . S
C2463 C2462 1.362 . S
H2464 C2470 0.930 . S
H2465 C2473 0.930 . S
H2466 C2474 0.930 . S
H2467 C2475 0.930 . S
H2468 C2478 0.930 . S
H2469 C2479 0.930 . S
C2470 H2464 0.930 . S
C2470 C2471 1.355 . S
C2470 C2472 1.415 . S
C2471 C2470 1.355 . S
C2471 C2473 1.419 . S
C2472 C2470 1.415 . S
C2472 C2477 1.425 . S
C2472 C2479 1.409 . S
C2473 H2465 0.930 . S
C2473 C2471 1.419 . S
C2473 C2474 1.362 . S
C2474 H2466 0.930 . S
C2474 C2473 1.362 . S
C2474 C2477 1.409 . S
C2475 H2467 0.930 . S
C2475 C2476 1.355 . S
C2475 C2477 1.415 . S
C2476 C2475 1.355 . S
C2476 C2478 1.419 . S
C2477 C2472 1.425 . S
C2477 C2474 1.409 . S
C2477 C2475 1.415 . S
C2478 H2468 0.930 . S
C2478 C2476 1.419 . S
C2478 C2479 1.362 . S
C2479 H2469 0.930 . S
C2479 C2472 1.409 . S
C2479 C2478 1.362 . S
H2480 C2486 0.930 . S
H2481 C2489 0.930 . S
H2482 C2490 0.930 . S
H2483 C2491 0.930 . S
H2484 C2494 0.930 . S
H2485 C2495 0.930 . S
C2486 H2480 0.930 . S
C2486 C2487 1.355 . S
C2486 C2488 1.415 . S
C2487 C2486 1.355 . S
C2487 C2489 1.419 . S
C2488 C2486 1.415 . S
C2488 C2493 1.425 . S
C2488 C2495 1.409 . S
C2489 H2481 0.930 . S
C2489 C2487 1.419 . S
C2489 C2490 1.362 . S
C2490 H2482 0.930 . S
C2490 C2489 1.362 . S
C2490 C2493 1.409 . S
C2491 H2483 0.930 . S
C2491 C2492 1.355 . S
C2491 C2493 1.415 . S
C2492 C2491 1.355 . S
C2492 C2494 1.419 . S
C2493 C2488 1.425 . S
C2493 C2490 1.409 . S
C2493 C2491 1.415 . S
C2494 H2484 0.930 . S
C2494 C2492 1.419 . S
C2494 C2495 1.362 . S
C2495 H2485 0.930 . S
C2495 C2488 1.409 . S
C2495 C2494 1.362 . S
H2496 C2502 0.930 . S
H2497 C2505 0.930 . S
H2498 C2506 0.930 . S
H2499 C2507 0.930 . S
H2500 C2510 0.930 . S
H2501 C2511 0.930 . S
C2502 H2496 0.930 . S
C2502 C2503 1.355 . S
C2502 C2504 1.415 . S
C2503 C2502 1.355 . S
C2503 C2505 1.419 . S
C2504 C2502 1.415 . S
C2504 C2509 1.425 . S
C2504 C2511 1.409 . S
C2505 H2497 0.930 . S
C2505 C2503 1.419 . S
C2505 C2506 1.362 . S
C2506 H2498 0.930 . S
C2506 C2505 1.362 . S
C2506 C2509 1.409 . S
C2507 H2499 0.930 . S
C2507 C2508 1.355 . S
C2507 C2509 1.415 . S
C2508 C2507 1.355 . S
C2508 C2510 1.419 . S
C2509 C2504 1.425 . S
C2509 C2506 1.409 . S
C2509 C2507 1.415 . S
C2510 H2500 0.930 . S
C2510 C2508 1.419 . S
C2510 C2511 1.362 . S
C2511 H2501 0.930 . S
C2511 C2504 1.409 . S
C2511 C2510 1.362 . S
H2512 C2518 0.930 . S
H2513 C2521 0.930 . S
H2514 C2522 0.930 . S
H2515 C2523 0.930 . S
H2516 C2526 0.930 . S
H2517 C2527 0.930 . S
C2518 H2512 0.930 . S
C2518 C2519 1.355 . S
C2518 C2520 1.415 1_556 S
C2519 C2518 1.355 . S
C2519 C2521 1.419 . S
C2520 C2518 1.415 1_554 S
C2520 C2525 1.425 1_554 S
C2520 C2527 1.409 . S
C2521 H2513 0.930 . S
C2521 C2519 1.419 . S
C2521 C2522 1.362 . S
C2522 H2514 0.930 . S
C2522 C2521 1.362 . S
C2522 C2525 1.409 . S
C2523 H2515 0.930 . S
C2523 C2524 1.355 . S
C2523 C2525 1.415 1_554 S
C2524 C2523 1.355 . S
C2524 C2526 1.419 . S
C2525 C2520 1.425 1_556 S
C2525 C2522 1.409 . S
C2525 C2523 1.415 1_556 S
C2526 H2516 0.930 . S
C2526 C2524 1.419 . S
C2526 C2527 1.362 . S
C2527 H2517 0.930 . S
C2527 C2520 1.409 . S
C2527 C2526 1.362 . S
H2528 C2534 0.930 . S
H2529 C2537 0.930 . S
H2530 C2538 0.930 . S
H2531 C2539 0.930 . S
H2532 C2542 0.930 . S
H2533 C2543 0.930 . S
C2534 H2528 0.930 . S
C2534 C2535 1.355 . S
C2534 C2536 1.415 . S
C2535 C2534 1.355 . S
C2535 C2537 1.419 . S
C2536 C2534 1.415 . S
C2536 C2541 1.425 . S
C2536 C2543 1.409 . S
C2537 H2529 0.930 . S
C2537 C2535 1.419 . S
C2537 C2538 1.362 . S
C2538 H2530 0.930 . S
C2538 C2537 1.362 . S
C2538 C2541 1.409 . S
C2539 H2531 0.930 . S
C2539 C2540 1.355 . S
C2539 C2541 1.415 . S
C2540 C2539 1.355 . S
C2540 C2542 1.419 . S
C2541 C2536 1.425 . S
C2541 C2538 1.409 . S
C2541 C2539 1.415 . S
C2542 H2532 0.930 . S
C2542 C2540 1.419 . S
C2542 C2543 1.362 . S
C2543 H2533 0.930 . S
C2543 C2536 1.409 . S
C2543 C2542 1.362 . S
H2544 C2550 0.930 . S
H2545 C2553 0.930 . S
H2546 C2554 0.930 . S
H2547 C2555 0.930 . S
H2548 C2558 0.930 . S
H2549 C2559 0.930 . S
C2550 H2544 0.930 . S
C2550 C2551 1.355 . S
C2550 C2552 1.415 . S
C2551 C2550 1.355 . S
C2551 C2553 1.419 . S
C2552 C2550 1.415 . S
C2552 C2557 1.425 . S
C2552 C2559 1.409 . S
C2553 H2545 0.930 . S
C2553 C2551 1.419 . S
C2553 C2554 1.362 . S
C2554 H2546 0.930 . S
C2554 C2553 1.362 . S
C2554 C2557 1.409 . S
C2555 H2547 0.930 . S
C2555 C2556 1.355 . S
C2555 C2557 1.415 . S
C2556 C2555 1.355 . S
C2556 C2558 1.419 . S
C2557 C2552 1.425 . S
C2557 C2554 1.409 . S
C2557 C2555 1.415 . S
C2558 H2548 0.930 . S
C2558 C2556 1.419 . S
C2558 C2559 1.362 . S
C2559 H2549 0.930 . S
C2559 C2552 1.409 . S
C2559 C2558 1.362 . S
H2560 C2566 0.930 . S
H2561 C2569 0.930 . S
H2562 C2570 0.930 . S
H2563 C2571 0.930 . S
H2564 C2574 0.930 . S
H2565 C2575 0.930 . S
C2566 H2560 0.930 . S
C2566 C2567 1.355 . S
C2566 C2568 1.415 . S
C2567 C2566 1.355 . S
C2567 C2569 1.419 . S
C2568 C2566 1.415 . S
C2568 C2573 1.425 . S
C2568 C2575 1.409 . S
C2569 H2561 0.930 . S
C2569 C2567 1.419 . S
C2569 C2570 1.362 . S
C2570 H2562 0.930 . S
C2570 C2569 1.362 . S
C2570 C2573 1.409 . S
C2571 H2563 0.930 . S
C2571 C2572 1.355 . S
C2571 C2573 1.415 . S
C2572 C2571 1.355 . S
C2572 C2574 1.419 . S
C2573 C2568 1.425 . S
C2573 C2570 1.409 . S
C2573 C2571 1.415 . S
C2574 H2564 0.930 . S
C2574 C2572 1.419 . S
C2574 C2575 1.362 . S
C2575 H2565 0.930 . S
C2575 C2568 1.409 . S
C2575 C2574 1.362 . S
H2576 C2582 0.930 . S
H2577 C2585 0.930 . S
H2578 C2586 0.930 . S
H2579 C2587 0.930 . S
H2580 C2590 0.930 . S
H2581 C2591 0.930 . S
C2582 H2576 0.930 . S
C2582 C2583 1.355 . S
C2582 C2584 1.415 . S
C2583 C2582 1.355 . S
C2583 C2585 1.419 . S
C2584 C2582 1.415 . S
C2584 C2589 1.425 . S
C2584 C2591 1.409 . S
C2585 H2577 0.930 . S
C2585 C2583 1.419 . S
C2585 C2586 1.362 . S
C2586 H2578 0.930 . S
C2586 C2585 1.362 . S
C2586 C2589 1.409 . S
C2587 H2579 0.930 . S
C2587 C2588 1.355 . S
C2587 C2589 1.415 . S
C2588 C2587 1.355 . S
C2588 C2590 1.419 . S
C2589 C2584 1.425 . S
C2589 C2586 1.409 . S
C2589 C2587 1.415 . S
C2590 H2580 0.930 . S
C2590 C2588 1.419 . S
C2590 C2591 1.362 . S
C2591 H2581 0.930 . S
C2591 C2584 1.409 . S
C2591 C2590 1.362 . S
H2592 C2598 0.930 . S
H2593 C2601 0.930 . S
H2594 C2602 0.930 . S
H2595 C2603 0.930 . S
H2596 C2606 0.930 . S
H2597 C2607 0.930 . S
C2598 H2592 0.930 . S
C2598 C2599 1.355 . S
C2598 C2600 1.415 . S
C2599 C2598 1.355 . S
C2599 C2601 1.419 . S
C2600 C2598 1.415 . S
C2600 C2605 1.425 . S
C2600 C2607 1.409 . S
C2601 H2593 0.930 . S
C2601 C2599 1.419 . S
C2601 C2602 1.362 . S
C2602 H2594 0.930 . S
C2602 C2601 1.362 . S
C2602 C2605 1.409 . S
C2603 H2595 0.930 . S
C2603 C2604 1.355 . S
C2603 C2605 1.415 . S
C2604 C2603 1.355 . S
C2604 C2606 1.419 . S
C2605 C2600 1.425 . S
C2605 C2602 1.409 . S
C2605 C2603 1.415 . S
C2606 H2596 0.930 . S
C2606 C2604 1.419 . S
C2606 C2607 1.362 . S
C2607 H2597 0.930 . S
C2607 C2600 1.409 . S
C2607 C2606 1.362 . S
H2608 C2614 0.930 . S
H2609 C2617 0.930 . S
H2610 C2618 0.930 . S
H2611 C2619 0.930 . S
H2612 C2622 0.930 . S
H2613 C2623 0.930 . S
C2614 H2608 0.930 . S
C2614 C2615 1.355 . S
C2614 C2616 1.415 . S
C2615 C2614 1.355 . S
C2615 C2617 1.419 . S
C2616 C2614 1.415 . S
C2616 C2621 1.425 . S
C2616 C2623 1.409 . S
C2617 H2609 0.930 . S
C2617 C2615 1.419 . S
C2617 C2618 1.362 . S
C2618 H2610 0.930 . S
C2618 C2617 1.362 . S
C2618 C2621 1.409 . S
C2619 H2611 0.930 . S
C2619 C2620 1.355 . S
C2619 C2621 1.415 . S
C2620 C2619 1.355 . S
C2620 C2622 1.419 . S
C2621 C2616 1.425 . S
C2621 C2618 1.409 . S
C2621 C2619 1.415 . S
C2622 H2612 0.930 . S
C2622 C2620 1.419 . S
C2622 C2623 1.362 . S
C2623 H2613 0.930 . S
C2623 C2616 1.409 . S
C2623 C2622 1.362 . S
H2624 C2630 0.930 . S
H2625 C2633 0.930 . S
H2626 C2634 0.930 . S
H2627 C2635 0.930 . S
H2628 C2638 0.930 . S
H2629 C2639 0.930 . S
C2630 H2624 0.930 . S
C2630 C2631 1.355 . S
C2630 C2632 1.415 . S
C2631 C2630 1.355 . S
C2631 C2633 1.419 . S
C2632 C2630 1.415 . S
C2632 C2637 1.425 . S
C2632 C2639 1.409 . S
C2633 H2625 0.930 . S
C2633 C2631 1.419 . S
C2633 C2634 1.362 . S
C2634 H2626 0.930 . S
C2634 C2633 1.362 . S
C2634 C2637 1.409 . S
C2635 H2627 0.930 . S
C2635 C2636 1.355 . S
C2635 C2637 1.415 . S
C2636 C2635 1.355 . S
C2636 C2638 1.419 . S
C2637 C2632 1.425 . S
C2637 C2634 1.409 . S
C2637 C2635 1.415 . S
C2638 H2628 0.930 . S
C2638 C2636 1.419 . S
C2638 C2639 1.362 . S
C2639 H2629 0.930 . S
C2639 C2632 1.409 . S
C2639 C2638 1.362 . S
H2640 C2646 0.930 . S
H2641 C2649 0.930 . S
H2642 C2650 0.930 . S
H2643 C2651 0.930 . S
H2644 C2654 0.930 . S
H2645 C2655 0.930 . S
C2646 H2640 0.930 . S
C2646 C2647 1.355 . S
C2646 C2648 1.415 . S
C2647 C2646 1.355 . S
C2647 C2649 1.419 . S
C2648 C2646 1.415 . S
C2648 C2653 1.425 . S
C2648 C2655 1.409 . S
C2649 H2641 0.930 . S
C2649 C2647 1.419 . S
C2649 C2650 1.362 . S
C2650 H2642 0.930 . S
C2650 C2649 1.362 . S
C2650 C2653 1.409 . S
C2651 H2643 0.930 . S
C2651 C2652 1.355 . S
C2651 C2653 1.415 . S
C2652 C2651 1.355 . S
C2652 C2654 1.419 . S
C2653 C2648 1.425 . S
C2653 C2650 1.409 . S
C2653 C2651 1.415 . S
C2654 H2644 0.930 . S
C2654 C2652 1.419 . S
C2654 C2655 1.362 . S
C2655 H2645 0.930 . S
C2655 C2648 1.409 . S
C2655 C2654 1.362 . S
H2656 C2662 0.930 . S
H2657 C2665 0.930 . S
H2658 C2666 0.930 . S
H2659 C2667 0.930 . S
H2660 C2670 0.930 . S
H2661 C2671 0.930 . S
C2662 H2656 0.930 . S
C2662 C2663 1.355 . S
C2662 C2664 1.415 . S
C2663 C2662 1.355 . S
C2663 C2665 1.419 . S
C2664 C2662 1.415 . S
C2664 C2669 1.425 . S
C2664 C2671 1.409 . S
C2665 H2657 0.930 . S
C2665 C2663 1.419 . S
C2665 C2666 1.362 . S
C2666 H2658 0.930 . S
C2666 C2665 1.362 . S
C2666 C2669 1.409 . S
C2667 H2659 0.930 . S
C2667 C2668 1.355 . S
C2667 C2669 1.415 . S
C2668 C2667 1.355 . S
C2668 C2670 1.419 . S
C2669 C2664 1.425 . S
C2669 C2666 1.409 . S
C2669 C2667 1.415 . S
C2670 H2660 0.930 . S
C2670 C2668 1.419 . S
C2670 C2671 1.362 . S
C2671 H2661 0.930 . S
C2671 C2664 1.409 . S
C2671 C2670 1.362 . S
H2672 C2678 0.930 . S
H2673 C2681 0.930 . S
H2674 C2682 0.930 . S
H2675 C2683 0.930 . S
H2676 C2686 0.930 . S
H2677 C2687 0.930 . S
C2678 H2672 0.930 . S
C2678 C2679 1.355 . S
C2678 C2680 1.415 . S
C2679 C2678 1.355 . S
C2679 C2681 1.419 . S
C2680 C2678 1.415 . S
C2680 C2685 1.425 . S
C2680 C2687 1.409 . S
C2681 H2673 0.930 . S
C2681 C2679 1.419 . S
C2681 C2682 1.362 . S
C2682 H2674 0.930 . S
C2682 C2681 1.362 . S
C2682 C2685 1.409 . S
C2683 H2675 0.930 . S
C2683 C2684 1.355 . S
C2683 C2685 1.415 . S
C2684 C2683 1.355 . S
C2684 C2686 1.419 . S
C2685 C2680 1.425 . S
C2685 C2682 1.409 . S
C2685 C2683 1.415 . S
C2686 H2676 0.930 . S
C2686 C2684 1.419 . S
C2686 C2687 1.362 . S
C2687 H2677 0.930 . S
C2687 C2680 1.409 . S
C2687 C2686 1.362 . S
H2688 C2694 0.930 . S
H2689 C2697 0.930 . S
H2690 C2698 0.930 . S
H2691 C2699 0.930 . S
H2692 C2702 0.930 . S
H2693 C2703 0.930 . S
C2694 H2688 0.930 . S
C2694 C2695 1.355 . S
C2694 C2696 1.415 . S
C2695 C2694 1.355 . S
C2695 C2697 1.419 . S
C2696 C2694 1.415 . S
C2696 C2701 1.425 . S
C2696 C2703 1.409 . S
C2697 H2689 0.930 . S
C2697 C2695 1.419 . S
C2697 C2698 1.362 . S
C2698 H2690 0.930 . S
C2698 C2697 1.362 . S
C2698 C2701 1.409 . S
C2699 H2691 0.930 . S
C2699 C2700 1.355 . S
C2699 C2701 1.415 . S
C2700 C2699 1.355 . S
C2700 C2702 1.419 . S
C2701 C2696 1.425 . S
C2701 C2698 1.409 . S
C2701 C2699 1.415 . S
C2702 H2692 0.930 . S
C2702 C2700 1.419 . S
C2702 C2703 1.362 . S
C2703 H2693 0.930 . S
C2703 C2696 1.409 . S
C2703 C2702 1.362 . S
H2704 C2710 0.930 . S
H2705 C2713 0.930 . S
H2706 C2714 0.930 . S
H2707 C2715 0.930 . S
H2708 C2718 0.930 . S
H2709 C2719 0.930 . S
C2710 H2704 0.930 . S
C2710 C2711 1.355 . S
C2710 C2712 1.415 . S
C2711 C2710 1.355 . S
C2711 C2713 1.419 . S
C2712 C2710 1.415 . S
C2712 C2717 1.425 . S
C2712 C2719 1.409 . S
C2713 H2705 0.930 . S
C2713 C2711 1.419 . S
C2713 C2714 1.362 . S
C2714 H2706 0.930 . S
C2714 C2713 1.362 . S
C2714 C2717 1.409 . S
C2715 H2707 0.930 . S
C2715 C2716 1.355 . S
C2715 C2717 1.415 . S
C2716 C2715 1.355 . S
C2716 C2718 1.419 . S
C2717 C2712 1.425 . S
C2717 C2714 1.409 . S
C2717 C2715 1.415 . S
C2718 H2708 0.930 . S
C2718 C2716 1.419 . S
C2718 C2719 1.362 . S
C2719 H2709 0.930 . S
C2719 C2712 1.409 . S
C2719 C2718 1.362 . S
H2720 C2726 0.930 . S
H2721 C2729 0.930 . S
H2722 C2730 0.930 . S
H2723 C2731 0.930 . S
H2724 C2734 0.930 . S
H2725 C2735 0.930 . S
C2726 H2720 0.930 . S
C2726 C2727 1.355 . S
C2726 C2728 1.415 . S
C2727 C2726 1.355 . S
C2727 C2729 1.419 . S
C2728 C2726 1.415 . S
C2728 C2733 1.425 . S
C2728 C2735 1.409 . S
C2729 H2721 0.930 . S
C2729 C2727 1.419 . S
C2729 C2730 1.362 . S
C2730 H2722 0.930 . S
C2730 C2729 1.362 . S
C2730 C2733 1.409 . S
C2731 H2723 0.930 . S
C2731 C2732 1.355 . S
C2731 C2733 1.415 . S
C2732 C2731 1.355 . S
C2732 C2734 1.419 . S
C2733 C2728 1.425 . S
C2733 C2730 1.409 . S
C2733 C2731 1.415 . S
C2734 H2724 0.930 . S
C2734 C2732 1.419 . S
C2734 C2735 1.362 . S
C2735 H2725 0.930 . S
C2735 C2728 1.409 . S
C2735 C2734 1.362 . S
H2736 C2742 0.930 . S
H2737 C2745 0.930 . S
H2738 C2746 0.930 . S
H2739 C2747 0.930 . S
H2740 C2750 0.930 . S
H2741 C2751 0.930 . S
C2742 H2736 0.930 . S
C2742 C2743 1.355 . S
C2742 C2744 1.415 . S
C2743 C2742 1.355 . S
C2743 C2745 1.419 . S
C2744 C2742 1.415 . S
C2744 C2749 1.425 . S
C2744 C2751 1.409 . S
C2745 H2737 0.930 . S
C2745 C2743 1.419 . S
C2745 C2746 1.362 . S
C2746 H2738 0.930 . S
C2746 C2745 1.362 . S
C2746 C2749 1.409 . S
C2747 H2739 0.930 . S
C2747 C2748 1.355 . S
C2747 C2749 1.415 . S
C2748 C2747 1.355 . S
C2748 C2750 1.419 . S
C2749 C2744 1.425 . S
C2749 C2746 1.409 . S
C2749 C2747 1.415 . S
C2750 H2740 0.930 . S
C2750 C2748 1.419 . S
C2750 C2751 1.362 . S
C2751 H2741 0.930 . S
C2751 C2744 1.409 . S
C2751 C2750 1.362 . S
H2752 C2758 0.930 . S
H2753 C2761 0.930 . S
H2754 C2762 0.930 . S
H2755 C2763 0.930 . S
H2756 C2766 0.930 . S
H2757 C2767 0.930 . S
C2758 H2752 0.930 . S
C2758 C2759 1.355 . S
C2758 C2760 1.415 . S
C2759 C2758 1.355 . S
C2759 C2761 1.419 . S
C2760 C2758 1.415 . S
C2760 C2765 1.425 . S
C2760 C2767 1.409 . S
C2761 H2753 0.930 . S
C2761 C2759 1.419 . S
C2761 C2762 1.362 . S
C2762 H2754 0.930 . S
C2762 C2761 1.362 . S
C2762 C2765 1.409 . S
C2763 H2755 0.930 . S
C2763 C2764 1.355 . S
C2763 C2765 1.415 . S
C2764 C2763 1.355 . S
C2764 C2766 1.419 . S
C2765 C2760 1.425 . S
C2765 C2762 1.409 . S
C2765 C2763 1.415 . S
C2766 H2756 0.930 . S
C2766 C2764 1.419 . S
C2766 C2767 1.362 . S
C2767 H2757 0.930 . S
C2767 C2760 1.409 . S
C2767 C2766 1.362 . S
H2768 C2774 0.930 . S
H2769 C2777 0.930 . S
H2770 C2778 0.930 . S
H2771 C2779 0.930 . S
H2772 C2782 0.930 . S
H2773 C2783 0.930 . S
C2774 H2768 0.930 . S
C2774 C2775 1.355 . S
C2774 C2776 1.415 . S
C2775 C2774 1.355 . S
C2775 C2777 1.419 . S
C2776 C2774 1.415 . S
C2776 C2781 1.425 . S
C2776 C2783 1.409 . S
C2777 H2769 0.930 . S
C2777 C2775 1.419 . S
C2777 C2778 1.362 . S
C2778 H2770 0.930 . S
C2778 C2777 1.362 . S
C2778 C2781 1.409 . S
C2779 H2771 0.930 . S
C2779 C2780 1.355 . S
C2779 C2781 1.415 . S
C2780 C2779 1.355 . S
C2780 C2782 1.419 . S
C2781 C2776 1.425 . S
C2781 C2778 1.409 . S
C2781 C2779 1.415 . S
C2782 H2772 0.930 . S
C2782 C2780 1.419 . S
C2782 C2783 1.362 . S
C2783 H2773 0.930 . S
C2783 C2776 1.409 . S
C2783 C2782 1.362 . S
H2784 C2790 0.930 . S
H2785 C2793 0.930 . S
H2786 C2794 0.930 . S
H2787 C2795 0.930 . S
H2788 C2798 0.930 . S
H2789 C2799 0.930 . S
C2790 H2784 0.930 . S
C2790 C2791 1.355 . S
C2790 C2792 1.415 . S
C2791 C2790 1.355 . S
C2791 C2793 1.419 . S
C2792 C2790 1.415 . S
C2792 C2797 1.425 . S
C2792 C2799 1.409 . S
C2793 H2785 0.930 . S
C2793 C2791 1.419 . S
C2793 C2794 1.362 . S
C2794 H2786 0.930 . S
C2794 C2793 1.362 . S
C2794 C2797 1.409 . S
C2795 H2787 0.930 . S
C2795 C2796 1.355 . S
C2795 C2797 1.415 . S
C2796 C2795 1.355 . S
C2796 C2798 1.419 . S
C2797 C2792 1.425 . S
C2797 C2794 1.409 . S
C2797 C2795 1.415 . S
C2798 H2788 0.930 . S
C2798 C2796 1.419 . S
C2798 C2799 1.362 . S
C2799 H2789 0.930 . S
C2799 C2792 1.409 . S
C2799 C2798 1.362 . S
H2800 C2806 0.930 . S
H2801 C2809 0.930 . S
H2802 C2810 0.930 . S
H2803 C2811 0.930 . S
H2804 C2814 0.930 . S
H2805 C2815 0.930 . S
C2806 H2800 0.930 . S
C2806 C2807 1.355 . S
C2806 C2808 1.415 . S
C2807 C2806 1.355 . S
C2807 C2809 1.419 . S
C2808 C2806 1.415 . S
C2808 C2813 1.425 . S
C2808 C2815 1.409 . S
C2809 H2801 0.930 . S
C2809 C2807 1.419 . S
C2809 C2810 1.362 . S
C2810 H2802 0.930 . S
C2810 C2809 1.362 . S
C2810 C2813 1.409 . S
C2811 H2803 0.930 . S
C2811 C2812 1.355 . S
C2811 C2813 1.415 . S
C2812 C2811 1.355 . S
C2812 C2814 1.419 . S
C2813 C2808 1.425 . S
C2813 C2810 1.409 . S
C2813 C2811 1.415 . S
C2814 H2804 0.930 . S
C2814 C2812 1.419 . S
C2814 C2815 1.362 . S
C2815 H2805 0.930 . S
C2815 C2808 1.409 . S
C2815 C2814 1.362 . S
C1287 C10 1.915 . S
C1292 C135 1.882 . S
C1303 C15 1.849 1_565 S
C1308 C50 1.906 . S
C1319 C90 1.895 . S
C1324 C55 1.863 . S
C1335 C95 1.849 1_545 S
C1340 C130 1.906 . S
C1351 C215 1.867 . S
C1356 C170 1.915 . S
C1367 C210 1.878 . S
C1372 C255 1.830 1_565 S
C1383 C295 1.872 . S
C1388 C250 1.902 . S
C1399 C175 1.842 1_545 S
C1404 C290 1.902 . S
C1415 C339 1.907 . S
C1420 C446 1.877 . S
C1431 C379 1.895 . S
C1436 C326 1.862 1_545 S
C1447 C419 1.917 . S
C1452 C366 1.881 . S
C1463 C459 1.884 . S
C1468 C406 1.845 1_565 S
C1479 C499 1.915 . S
C1484 C526 1.865 . S
C1495 C539 1.882 . S
C1500 C566 1.839 1_545 S
C1511 C606 1.860 . S
C1516 C579 1.893 . S
C1527 C486 1.839 1_565 S
C1532 C619 1.900 . S
C1543 C650 1.918 . S
C1548 C775 1.880 . S
C1559 C655 1.880 . S
C1564 C690 1.918 . S
C1575 C695 1.880 . S
C1580 C730 1.918 . S
C1591 C770 1.916 . S
C1596 C735 1.882 . S
C1607 C810 1.912 . S
C1612 C855 1.860 . S
C1623 C895 1.858 . S
C1628 C850 1.892 . S
C1639 C890 1.907 . S
C1644 C935 1.851 . S
C1655 C815 1.881 . S
C1660 C930 1.912 . S
C1671 C1086 1.837 . S
C1676 C979 1.880 . S
C1687 C966 1.836 . S
C1692 C1019 1.897 . S
C1703 C1059 1.902 . S
C1708 C1006 1.872 . S
C1719 C1046 1.820 . S
C1724 C1099 1.880 . S
C1735 C1166 1.840 . S
C1740 C1139 1.882 . S
C1751 C1206 1.822 . S
C1756 C1179 1.877 . S
C1767 C1246 1.848 . S
C1772 C1219 1.905 . S
C1783 C1259 1.883 . S
C1788 C1126 1.822 . S
C1799 C1090 1.619 . S
C1804 C9 1.647 . S
C1815 C49 1.641 . S
C1820 C330 1.658 . S
C1831 C89 1.629 . S
C1836 C1010 1.617 . S
C1847 C129 1.656 . S
C1852 C410 1.626 . S
C1863 C169 1.663 . S
C1868 C1170 1.635 . S
C1879 C570 1.626 . S
C1884 C209 1.624 . S
C1895 C1250 1.616 . S
C1900 C249 1.640 . S
C1911 C289 1.623 . S
C1916 C490 1.627 . S
C1927 C338 1.662 . S
C1932 C779 1.633 . S
C1943 C19 1.661 . S
C1948 C378 1.665 . S
C1959 C699 1.629 . S
C1964 C418 1.624 . S
C1975 C99 1.615 . S
C1980 C458 1.636 . S
C1991 C859 1.622 . S
C1996 C498 1.651 . S
C2007 C259 1.640 . S
C2012 C538 1.626 . S
C2023 C578 1.652 . S
C2028 C939 1.623 . S
C2039 C618 1.628 . S
C2044 C179 1.644 . S
C2055 C649 1.657 . S
C2060 C450 1.664 . S
C2071 C689 1.637 . S
C2076 C970 1.654 . S
C2087 C729 1.664 . S
C2092 C370 1.636 . S
C2103 C769 1.627 . S
C2108 C1050 1.642 . S
C2119 C809 1.657 . S
C2124 C530 1.627 . S
C2135 C849 1.646 . S
C2140 C1210 1.661 . S
C2151 C610 1.664 . S
C2156 C889 1.654 . S
C2167 C929 1.646 . S
C2172 C1130 1.661 . S
C2183 C139 1.663 . S
C2188 C978 1.662 . S
C2199 C659 1.633 . S
C2204 C1018 1.624 . S
C2215 C59 1.653 . S
C2220 C1058 1.668 . S
C2231 C739 1.664 . S
C2236 C1098 1.657 . S
C2247 C219 1.661 . S
C2252 C1138 1.665 . S
C2263 C1178 1.625 . S
C2268 C899 1.621 . S
C2279 C1218 1.650 . S
C2284 C299 1.621 . S
C2295 C819 1.625 . S
C2300 C1258 1.624 . S
C2311 C18 1.167 . S
C2316 C178 1.094 . S
C2327 C58 1.140 . S
C2332 C218 1.109 . S
C2343 C98 1.143 . S
C2348 C258 1.133 . S
C2359 C298 1.157 . S
C2364 C138 1.115 . S
C2375 C489 1.117 . S
C2380 C329 1.132 . S
C2391 C529 1.104 . S
C2396 C369 1.146 . S
C2407 C409 1.166 . S
C2412 C569 1.103 . S
C2423 C449 1.160 . S
C2428 C609 1.111 . S
C2439 C658 1.094 . S
C2444 C818 1.163 . S
C2455 C858 1.146 . S
C2460 C698 1.104 . S
C2471 C898 1.167 . S
C2476 C738 1.099 . S
C2487 C938 1.095 . S
C2492 C778 1.160 . S
C2503 C1129 1.158 . S
C2508 C969 1.096 . S
C2519 C1009 1.099 . S
C2524 C1169 1.153 . S
C2535 C1209 1.153 . S
C2540 C1049 1.121 . S
C2551 C1089 1.104 . S
C2556 C1249 1.146 . S
C2567 C286 1.338 . S
C2572 C6 1.370 . S
C2583 C46 1.371 . S
C2588 C166 1.387 . S
C2599 C86 1.377 . S
C2604 C206 1.386 . S
C2615 C246 1.312 . S
C2620 C126 1.310 . S
C2631 C335 1.315 . S
C2636 C615 1.343 . S
C2647 C495 1.353 . S
C2652 C375 1.380 . S
C2663 C535 1.324 . S
C2668 C415 1.357 . S
C2679 C455 1.367 . S
C2684 C575 1.335 . S
C2695 C646 1.381 . S
C2700 C926 1.353 . S
C2711 C806 1.307 . S
C2716 C686 1.322 . S
C2727 C846 1.379 . S
C2732 C726 1.350 . S
C2743 C886 1.355 . S
C2748 C766 1.382 . S
C2759 C975 1.342 . S
C2764 C1255 1.373 . S
C2775 C1135 1.346 . S
C2780 C1015 1.376 . S
C2791 C1055 1.339 . S
C2796 C1175 1.371 . S
C2807 C1215 1.350 . S
C2812 C1095 1.379 . S
