# Generated by pormake.
# Topology wje, (4)-cn, num edge types: 1
# Building blocks:
#     Node 0, Type 0, BuildingBlock: QUQFOY_clean_sbu_1, # of connection points: 4
#     Node 1, Type 0, BuildingBlock: QUQFOY_clean_sbu_1, # of connection points: 4
#     Node 2, Type 0, BuildingBlock: QUQFOY_clean_sbu_1, # of connection points: 4
#     Node 3, Type 0, BuildingBlock: QUQFOY_clean_sbu_1, # of connection points: 4
#     Node 4, Type 0, BuildingBlock: QUQFOY_clean_sbu_1, # of connection points: 4
#     Node 5, Type 0, BuildingBlock: QUQFOY_clean_sbu_1, # of connection points: 4
#     Node 6, Type 0, BuildingBlock: QUQFOY_clean_sbu_1, # of connection points: 4
#     Node 7, Type 0, BuildingBlock: QUQFOY_clean_sbu_1, # of connection points: 4
#     Node 8, Type 0, BuildingBlock: QUQFOY_clean_sbu_1, # of connection points: 4
#     Node 9, Type 0, BuildingBlock: QUQFOY_clean_sbu_1, # of connection points: 4
#     Node 10, Type 0, BuildingBlock: QUQFOY_clean_sbu_1, # of connection points: 4
#     Node 11, Type 0, BuildingBlock: QUQFOY_clean_sbu_1, # of connection points: 4
#     Edge 12, Type (0, 0), BuildingBlock: MIFKUJ_clean_linker_0, # of connection points: 2
#     Edge 13, Type (0, 0), BuildingBlock: MIFKUJ_clean_linker_0, # of connection points: 2
#     Edge 14, Type (0, 0), BuildingBlock: MIFKUJ_clean_linker_0, # of connection points: 2
#     Edge 15, Type (0, 0), BuildingBlock: MIFKUJ_clean_linker_0, # of connection points: 2
#     Edge 16, Type (0, 0), BuildingBlock: MIFKUJ_clean_linker_0, # of connection points: 2
#     Edge 17, Type (0, 0), BuildingBlock: MIFKUJ_clean_linker_0, # of connection points: 2
#     Edge 18, Type (0, 0), BuildingBlock: MIFKUJ_clean_linker_0, # of connection points: 2
#     Edge 19, Type (0, 0), BuildingBlock: MIFKUJ_clean_linker_0, # of connection points: 2
#     Edge 20, Type (0, 0), BuildingBlock: MIFKUJ_clean_linker_0, # of connection points: 2
#     Edge 21, Type (0, 0), BuildingBlock: MIFKUJ_clean_linker_0, # of connection points: 2
#     Edge 22, Type (0, 0), BuildingBlock: MIFKUJ_clean_linker_0, # of connection points: 2
#     Edge 23, Type (0, 0), BuildingBlock: MIFKUJ_clean_linker_0, # of connection points: 2
#     Edge 24, Type (0, 0), BuildingBlock: MIFKUJ_clean_linker_0, # of connection points: 2
#     Edge 25, Type (0, 0), BuildingBlock: MIFKUJ_clean_linker_0, # of connection points: 2
#     Edge 26, Type (0, 0), BuildingBlock: MIFKUJ_clean_linker_0, # of connection points: 2
#     Edge 27, Type (0, 0), BuildingBlock: MIFKUJ_clean_linker_0, # of connection points: 2
#     Edge 28, Type (0, 0), BuildingBlock: MIFKUJ_clean_linker_0, # of connection points: 2
#     Edge 29, Type (0, 0), BuildingBlock: MIFKUJ_clean_linker_0, # of connection points: 2
#     Edge 30, Type (0, 0), BuildingBlock: MIFKUJ_clean_linker_0, # of connection points: 2
#     Edge 31, Type (0, 0), BuildingBlock: MIFKUJ_clean_linker_0, # of connection points: 2
#     Edge 32, Type (0, 0), BuildingBlock: MIFKUJ_clean_linker_0, # of connection points: 2
#     Edge 33, Type (0, 0), BuildingBlock: MIFKUJ_clean_linker_0, # of connection points: 2
#     Edge 34, Type (0, 0), BuildingBlock: MIFKUJ_clean_linker_0, # of connection points: 2
#     Edge 35, Type (0, 0), BuildingBlock: MIFKUJ_clean_linker_0, # of connection points: 2
# Relax obj value: 0.109
# Max RMSD: 0.087
# Mean RMSD: 0.087
data_MOF--net-wje--node1-QUQFOY_clean_sbu_1--edge1-MIFKUJ_clean_linker_0
_symmetry_space_group_name_H-M    P1
_symmetry_Int_Tables_number       1
_symmetry_cell_setting            triclinic
loop_
_symmetry_equiv_pos_as_xyz
'x, y, z'
_cell_length_a     54.229788
_cell_length_b     54.232471
_cell_length_c     50.622468
_cell_angle_alpha  90.023113
_cell_angle_beta   89.952478
_cell_angle_gamma 119.94227
loop_
_atom_site_label
_atom_site_type_symbol
_atom_site_fract_x
_atom_site_fract_y
_atom_site_fract_z
_atom_type_partial_charge
O0 O 0.26847 0.99731 0.30256 0.0
Cd1 Cd 0.30482 0.03389 0.31374 0.0
Cd2 Cd 0.32706 0.99927 0.31061 0.0
O3 O 0.28921 0.97261 0.29205 0.0
O4 O 0.29955 0.06625 0.30228 0.0
O5 O 0.33265 0.05829 0.28555 0.0
C6 C 0.3197 0.07288 0.2853 0.0
C7 C 0.36774 0.99822 0.29624 0.0
C8 C 0.26695 0.97471 0.29358 0.0
C9 C 0.31812 0.01741 0.36513 0.0
O10 O 0.32357 0.00128 0.35106 0.0
O11 O 0.31278 0.03537 0.35413 0.0
O12 O 0.34672 0.97662 0.30731 0.0
O13 O 0.36572 0.02072 0.29282 0.0
O14 O 0.2661 0.27186 0.65012 0.0
Cd15 Cd 0.26344 0.30779 0.6573 0.0
Cd16 Cd 0.3214 0.33377 0.65966 0.0
O17 O 0.31294 0.29376 0.64824 0.0
O18 O 0.22663 0.3012 0.6419 0.0
O19 O 0.26872 0.3339 0.62679 0.0
C20 C 0.24128 0.32066 0.62467 0.0
C21 C 0.363 0.37282 0.64297 0.0
C22 C 0.28892 0.27105 0.64696 0.0
C23 C 0.28944 0.32927 0.71036 0.0
O24 O 0.31306 0.33714 0.69884 0.0
O25 O 0.26634 0.31809 0.6972 0.0
O26 O 0.36385 0.35478 0.65885 0.0
O27 O 0.33831 0.36865 0.63603 0.0
O28 O 0.99854 0.27238 0.98004 0.0
Cd29 Cd 0.95849 0.26614 0.98701 0.0
Cd30 Cd 0.98825 0.3247 0.99264 0.0
O31 O 0.0221 0.31923 0.98272 0.0
O32 O 0.93193 0.22835 0.97081 0.0
O33 O 0.9344 0.26842 0.95768 0.0
C34 C 0.9237 0.24128 0.95475 0.0
C35 C 0.99173 0.36806 0.97968 0.0
C36 C 0.02187 0.29585 0.97964 0.0
C37 C 0.95981 0.28792 0.04121 0.0
O38 O 0.97383 0.31242 0.03074 0.0
O39 O 0.95015 0.26558 0.02706 0.0
O40 O 0.00796 0.36679 0.99743 0.0
O41 O 0.97339 0.34452 0.96862 0.0
O42 O 0.72519 0.99185 0.31453 0.0
Cd43 Cd 0.68882 0.9539 0.3222 0.0
Cd44 Cd 0.66345 0.98595 0.32225 0.0
O45 O 0.70344 0.01677 0.31 0.0
O46 O 0.6934 0.92202 0.30778 0.0
O47 O 0.66257 0.93366 0.29173 0.0
C48 C 0.67442 0.91807 0.2903 0.0
C49 C 0.62398 0.98732 0.30483 0.0
C50 C 0.72615 0.01536 0.30998 0.0
C51 C 0.66852 0.96156 0.37454 0.0
O52 O 0.6608 0.9769 0.36203 0.0
O53 O 0.67888 0.94834 0.3622 0.0
O54 O 0.64219 0.00713 0.31988 0.0
O55 O 0.6283 0.96659 0.29906 0.0
O56 O 0.7312 0.72428 0.64751 0.0
Cd57 Cd 0.73596 0.68981 0.65601 0.0
Cd58 Cd 0.67718 0.66091 0.65939 0.0
O59 O 0.68428 0.70043 0.64806 0.0
O60 O 0.77406 0.69865 0.64204 0.0
O61 O 0.73354 0.66376 0.62635 0.0
C62 C 0.76101 0.67846 0.62504 0.0
C63 C 0.63461 0.62204 0.64392 0.0
C64 C 0.70757 0.7237 0.64542 0.0
C65 C 0.71061 0.66849 0.70966 0.0
O66 O 0.68653 0.65835 0.69841 0.0
O67 O 0.73352 0.68107 0.69624 0.0
O68 O 0.63475 0.6404 0.66003 0.0
O69 O 0.65883 0.62548 0.63628 0.0
O70 O 0.00466 0.73641 0.975 0.0
Cd71 Cd 0.04215 0.73824 0.98585 0.0
Cd72 Cd 0.00793 0.68056 0.9869 0.0
O73 O 0.97913 0.68991 0.96991 0.0
O74 O 0.07347 0.77502 0.9716 0.0
O75 O 0.06555 0.73298 0.95778 0.0
C76 C 0.07971 0.76041 0.95558 0.0
C77 C 0.00534 0.63752 0.97446 0.0
C78 C 0.9814 0.71436 0.96878 0.0
C79 C 0.03029 0.71233 0.0392 0.0
O80 O 0.01426 0.68943 0.02677 0.0
O81 O 0.04611 0.73518 0.02649 0.0
O82 O 0.98579 0.63817 0.98828 0.0
O83 O 0.02653 0.66154 0.967 0.0
O84 O 0.00411 0.73199 0.38308 0.0
Cd85 Cd 0.96665 0.6962 0.37298 0.0
Cd86 Cd 0.00121 0.67298 0.3712 0.0
O87 O 0.02999 0.71132 0.38789 0.0
O88 O 0.93521 0.70199 0.38653 0.0
O89 O 0.94339 0.66851 0.40175 0.0
C90 C 0.92908 0.6817 0.40319 0.0
C91 C 0.00471 0.63289 0.38329 0.0
C92 C 0.02765 0.73348 0.38873 0.0
C93 C 0.97862 0.68268 0.31932 0.0
O94 O 0.99473 0.67564 0.33137 0.0
O95 O 0.96277 0.68948 0.33235 0.0
O96 O 0.02424 0.65359 0.36996 0.0
O97 O 0.98295 0.63495 0.3904 0.0
O98 O 0.26566 0.98985 0.70197 0.0
Cd99 Cd 0.26232 0.95079 0.6956 0.0
Cd100 Cd 0.32062 0.98278 0.6923 0.0
O101 O 0.31255 0.01485 0.70255 0.0
O102 O 0.22555 0.92163 0.71184 0.0
O103 O 0.26754 0.92979 0.72603 0.0
C104 C 0.24015 0.9163 0.72868 0.0
C105 C 0.36428 0.98814 0.70683 0.0
C106 C 0.28855 0.01358 0.70415 0.0
C107 C 0.28696 0.95351 0.64244 0.0
O108 O 0.31071 0.9692 0.65371 0.0
O109 O 0.26402 0.94212 0.65586 0.0
O110 O 0.3629 0.00454 0.68932 0.0
O111 O 0.34065 0.96855 0.71676 0.0
O112 O 0.27548 0.2741 0.04734 0.0
Cd113 Cd 0.31017 0.27007 0.0378 0.0
Cd114 Cd 0.33795 0.32851 0.03654 0.0
O115 O 0.29877 0.32093 0.04958 0.0
O116 O 0.3017 0.23193 0.05123 0.0
O117 O 0.33705 0.27238 0.06655 0.0
C118 C 0.3223 0.24491 0.06785 0.0
C119 C 0.37743 0.37048 0.05226 0.0
C120 C 0.27567 0.29733 0.05123 0.0
C121 C 0.32987 0.29695 0.98473 0.0
O122 O 0.33929 0.32047 0.9969 0.0
O123 O 0.31847 0.27354 0.99744 0.0
O124 O 0.3587 0.37094 0.0371 0.0
O125 O 0.37395 0.34596 0.05884 0.0
O126 O 0.00389 0.27002 0.37415 0.0
Cd127 Cd 0.04348 0.30413 0.36615 0.0
Cd128 Cd 0.01334 0.33264 0.36256 0.0
O129 O 0.98023 0.29333 0.37358 0.0
O130 O 0.07148 0.29455 0.38197 0.0
O131 O 0.06703 0.33098 0.39533 0.0
C132 C 0.07887 0.31551 0.39813 0.0
C133 C 0.01084 0.37274 0.37672 0.0
C134 C 0.98061 0.2702 0.37606 0.0
C135 C 0.04034 0.325 0.31253 0.0
O136 O 0.02613 0.33483 0.32385 0.0
O137 O 0.05078 0.31251 0.32592 0.0
O138 O 0.9931 0.3548 0.36005 0.0
O139 O 0.03011 0.36781 0.38601 0.0
O140 O 0.73386 0.00788 0.69853 0.0
Cd141 Cd 0.73897 0.04801 0.69486 0.0
Cd142 Cd 0.68043 0.01794 0.69067 0.0
O143 O 0.68691 0.98418 0.69795 0.0
O144 O 0.77601 0.07503 0.71205 0.0
O145 O 0.73453 0.06841 0.72626 0.0
C146 C 0.76185 0.08072 0.72913 0.0
C147 C 0.63676 0.01232 0.70565 0.0
C148 C 0.71046 0.98447 0.69918 0.0
C149 C 0.71577 0.05033 0.64243 0.0
O150 O 0.69162 0.03483 0.65315 0.0
O151 O 0.73849 0.05947 0.65591 0.0
O152 O 0.63824 0.99725 0.6868 0.0
O153 O 0.66031 0.03076 0.71661 0.0
O154 O 0.73013 0.73598 0.04151 0.0
Cd155 Cd 0.69255 0.73564 0.03482 0.0
Cd156 Cd 0.66974 0.67883 0.03624 0.0
O157 O 0.71028 0.68976 0.04813 0.0
O158 O 0.69572 0.77168 0.04875 0.0
O159 O 0.66702 0.72923 0.06604 0.0
C160 C 0.67765 0.75653 0.06684 0.0
C161 C 0.63114 0.63807 0.05463 0.0
C162 C 0.73237 0.71427 0.04684 0.0
C163 C 0.67199 0.70605 0.98331 0.0
O164 O 0.66624 0.68376 0.99631 0.0
O165 O 0.68105 0.72974 0.99516 0.0
O166 O 0.64966 0.63657 0.03989 0.0
O167 O 0.63475 0.663 0.05963 0.0
H168 H 0.29197 0.10261 0.27695 0.0
H169 H 0.29803 0.13433 0.2403 0.0
H170 H 0.36775 0.12537 0.21062 0.0
H171 H 0.36119 0.0928 0.24696 0.0
H172 H 0.33678 0.18328 0.22268 0.0
H173 H 0.36834 0.1276 0.14337 0.0
H174 H 0.36245 0.08029 0.134 0.0
H175 H 0.28507 0.04068 0.17916 0.0
H176 H 0.29032 0.08771 0.18851 0.0
H177 H 0.36494 0.2651 0.10505 0.0
H178 H 0.3705 0.23869 0.14163 0.0
H179 H 0.29602 0.16205 0.11529 0.0
H180 H 0.2909 0.18803 0.0784 0.0
H181 H 0.33297 0.14867 0.13123 0.0
H182 H 0.29465 0.20465 0.16733 0.0
H183 H 0.29368 0.24878 0.17684 0.0
H184 H 0.37301 0.28236 0.21839 0.0
H185 H 0.37461 0.23854 0.20884 0.0
C186 C 0.30881 0.10756 0.2628 0.0
C187 C 0.32596 0.09494 0.26484 0.0
C188 C 0.3123 0.12582 0.24182 0.0
C189 C 0.33307 0.13201 0.22234 0.0
C190 C 0.35118 0.12054 0.22504 0.0
C191 C 0.34753 0.10203 0.24595 0.0
C192 C 0.33471 0.14941 0.19879 0.0
C193 C 0.33618 0.17577 0.20269 0.0
C194 C 0.33346 0.13958 0.1726 0.0
C195 C 0.32993 0.11118 0.16689 0.0
C196 C 0.35004 0.10878 0.15124 0.0
C197 C 0.34682 0.08202 0.14594 0.0
C198 C 0.32346 0.0575 0.15606 0.0
C199 C 0.30321 0.05969 0.17142 0.0
C200 C 0.30632 0.08639 0.17674 0.0
C201 C 0.34995 0.24255 0.10689 0.0
C202 C 0.32741 0.22875 0.08881 0.0
C203 C 0.35304 0.22748 0.12794 0.0
C204 C 0.33341 0.19838 0.13159 0.0
C205 C 0.31148 0.18443 0.11302 0.0
C206 C 0.30853 0.19939 0.0919 0.0
C207 C 0.3349 0.18248 0.1551 0.0
C208 C 0.33403 0.1564 0.1512 0.0
C209 C 0.33585 0.19217 0.18131 0.0
C210 C 0.3349 0.21848 0.18712 0.0
C211 C 0.31198 0.22154 0.17833 0.0
C212 C 0.3113 0.24647 0.18375 0.0
C213 C 0.33331 0.26839 0.19814 0.0
C214 C 0.35601 0.26539 0.2072 0.0
C215 C 0.3568 0.24051 0.2018 0.0
H216 H 0.33275 0.28768 0.20232 0.0
H217 H 0.32102 0.03681 0.15196 0.0
H218 H 0.26586 0.35515 0.58157 0.0
H219 H 0.24183 0.36054 0.54286 0.0
H220 H 0.16035 0.30322 0.57781 0.0
H221 H 0.18413 0.29794 0.61653 0.0
H222 H 0.20835 0.32198 0.50767 0.0
H223 H 0.111 0.32027 0.5581 0.0
H224 H 0.0999 0.33698 0.59936 0.0
H225 H 0.18767 0.40147 0.60739 0.0
H226 H 0.19923 0.38542 0.56602 0.0
H227 H 0.09651 0.27943 0.41609 0.0
H228 H 0.12692 0.28568 0.45385 0.0
H229 H 0.13797 0.36915 0.46758 0.0
H230 H 0.10631 0.36237 0.43034 0.0
H231 H 0.13052 0.34478 0.51228 0.0
H232 H 0.19216 0.35714 0.43988 0.0
H233 H 0.20648 0.34503 0.39777 0.0
H234 H 0.1965 0.26815 0.43203 0.0
H235 H 0.18177 0.27961 0.47425 0.0
C236 C 0.24282 0.344 0.58118 0.0
C237 C 0.22695 0.32615 0.60223 0.0
C238 C 0.2291 0.34699 0.55895 0.0
C239 C 0.19923 0.33243 0.55739 0.0
C240 C 0.18338 0.31503 0.57862 0.0
C241 C 0.19705 0.31195 0.60078 0.0
C242 C 0.18454 0.33429 0.53316 0.0
C243 C 0.19142 0.32709 0.50867 0.0
C244 C 0.16282 0.34153 0.53424 0.0
C245 C 0.156 0.35144 0.55907 0.0
C246 C 0.12791 0.33809 0.56862 0.0
C247 C 0.12154 0.34743 0.59204 0.0
C248 C 0.14308 0.37021 0.60603 0.0
C249 C 0.17102 0.38375 0.59659 0.0
C250 C 0.1775 0.37451 0.57318 0.0
C251 C 0.1056 0.29926 0.42696 0.0
C252 C 0.09909 0.32048 0.42005 0.0
C253 C 0.12318 0.30288 0.44857 0.0
C254 C 0.13534 0.32814 0.46346 0.0
C255 C 0.12898 0.34947 0.45647 0.0
C256 C 0.11096 0.34564 0.43507 0.0
C257 C 0.1538 0.33175 0.48679 0.0
C258 C 0.14759 0.33989 0.51117 0.0
C259 C 0.17659 0.32599 0.48549 0.0
C260 C 0.18569 0.31916 0.46019 0.0
C261 C 0.19288 0.33758 0.43839 0.0
C262 C 0.20108 0.33084 0.41451 0.0
C263 C 0.20235 0.30582 0.41222 0.0
C264 C 0.1955 0.28752 0.43383 0.0
C265 C 0.18726 0.29415 0.45776 0.0
H266 H 0.20868 0.30062 0.3937 0.0
H267 H 0.13811 0.37741 0.62416 0.0
H268 H 0.81663 0.10088 0.74535 0.0
H269 H 0.84018 0.12981 0.78432 0.0
H270 H 0.76448 0.13315 0.80341 0.0
H271 H 0.74033 0.1035 0.76469 0.0
H272 H 0.83891 0.18973 0.80045 0.0
H273 H 0.75809 0.10433 0.84478 0.0
H274 H 0.72847 0.05209 0.84827 0.0
H275 H 0.80367 0.04517 0.85576 0.0
H276 H 0.83369 0.09738 0.85192 0.0
H277 H 0.891 0.25685 0.92542 0.0
H278 H 0.85969 0.23106 0.88827 0.0
H279 H 0.88194 0.1653 0.89635 0.0
H280 H 0.91175 0.1901 0.93424 0.0
H281 H 0.83024 0.14057 0.88549 0.0
H282 H 0.91111 0.22196 0.84693 0.0
H283 H 0.94537 0.27298 0.84037 0.0
H284 H 0.87719 0.2875 0.8184 0.0
H285 H 0.84248 0.2366 0.82512 0.0
C286 C 0.80496 0.10786 0.75771 0.0
C287 C 0.77652 0.09978 0.75191 0.0
C288 C 0.81849 0.12439 0.77998 0.0
C289 C 0.80402 0.13345 0.79679 0.0
C290 C 0.77592 0.12617 0.79075 0.0
C291 C 0.76219 0.10926 0.76862 0.0
C292 C 0.81825 0.14974 0.82105 0.0
C293 C 0.83665 0.1792 0.81925 0.0
C294 C 0.81605 0.13582 0.8452 0.0
C295 C 0.79805 0.1046 0.84776 0.0
C296 C 0.76826 0.0916 0.84692 0.0
C297 C 0.75142 0.06203 0.84902 0.0
C298 C 0.76418 0.04531 0.85215 0.0
C299 C 0.79381 0.05814 0.85328 0.0
C300 C 0.81074 0.0877 0.85114 0.0
C301 C 0.889 0.23678 0.91934 0.0
C302 C 0.90387 0.22554 0.93278 0.0
C303 C 0.87125 0.22212 0.89793 0.0
C304 C 0.8687 0.19634 0.88898 0.0
C305 C 0.88332 0.18502 0.90272 0.0
C306 C 0.90048 0.1993 0.92443 0.0
C307 C 0.8511 0.18107 0.86531 0.0
C308 C 0.83225 0.15155 0.86701 0.0
C309 C 0.85336 0.195 0.84092 0.0
C310 C 0.87419 0.22556 0.83682 0.0
C311 C 0.90342 0.23608 0.84087 0.0
C312 C 0.92291 0.26497 0.8371 0.0
C313 C 0.91346 0.28349 0.82905 0.0
C314 C 0.88448 0.27314 0.82468 0.0
C315 C 0.86489 0.24428 0.82845 0.0
H316 H 0.92858 0.30584 0.82615 0.0
H317 H 0.75111 0.02242 0.85378 0.0
H318 H 0.66042 0.73646 0.11691 0.0
H319 H 0.65512 0.76172 0.15446 0.0
H320 H 0.67357 0.83295 0.10378 0.0
H321 H 0.68074 0.80837 0.06663 0.0
H322 H 0.70074 0.85358 0.14477 0.0
H323 H 0.60359 0.78339 0.13199 0.0
H324 H 0.56203 0.73545 0.12607 0.0
H325 H 0.57656 0.71077 0.20248 0.0
H326 H 0.61844 0.75847 0.20873 0.0
H327 H 0.65315 0.91865 0.24148 0.0
H328 H 0.64869 0.88882 0.20326 0.0
H329 H 0.67689 0.84175 0.25084 0.0
H330 H 0.68233 0.87207 0.28892 0.0
H331 H 0.62362 0.8095 0.21148 0.0
H332 H 0.7246 0.88212 0.21984 0.0
H333 H 0.76313 0.93197 0.22423 0.0
H334 H 0.73592 0.95362 0.15261 0.0
H335 H 0.69693 0.90394 0.14806 0.0
C336 C 0.66297 0.75735 0.11373 0.0
C337 C 0.67093 0.77039 0.08879 0.0
C338 C 0.65976 0.7718 0.13524 0.0
C339 C 0.6635 0.79927 0.13214 0.0
C340 C 0.67064 0.8119 0.10694 0.0
C341 C 0.67459 0.79776 0.08561 0.0
C342 C 0.6617 0.81552 0.15534 0.0
C343 C 0.68352 0.84386 0.15899 0.0
C344 C 0.63951 0.80315 0.17438 0.0
C345 C 0.61432 0.77444 0.17072 0.0
C346 C 0.59805 0.76768 0.14746 0.0
C347 C 0.57441 0.74056 0.14405 0.0
C348 C 0.5667 0.72006 0.16385 0.0
C349 C 0.58257 0.72666 0.18714 0.0
C350 C 0.60625 0.75375 0.19064 0.0
C351 C 0.65798 0.90167 0.24392 0.0
C352 C 0.66814 0.89775 0.26822 0.0
C353 C 0.65546 0.88469 0.22206 0.0
C354 C 0.66245 0.8631 0.22425 0.0
C355 C 0.67129 0.85824 0.24878 0.0
C356 C 0.67446 0.87563 0.27048 0.0
C357 C 0.66257 0.84701 0.20053 0.0
C358 C 0.64055 0.8189 0.19693 0.0
C359 C 0.68412 0.8597 0.18118 0.0
C360 C 0.70768 0.88944 0.1838 0.0
C361 C 0.72667 0.89758 0.20519 0.0
C362 C 0.74862 0.92578 0.20767 0.0
C363 C 0.75192 0.94597 0.18876 0.0
C364 C 0.73331 0.93797 0.16727 0.0
C365 C 0.7113 0.9098 0.16473 0.0
H366 H 0.76893 0.96779 0.19071 0.0
H367 H 0.5484 0.69907 0.16118 0.0
H368 H 0.89184 0.7016 0.4078 0.0
H369 H 0.86126 0.6964 0.44531 0.0
H370 H 0.88849 0.64374 0.48506 0.0
H371 H 0.91866 0.64828 0.44719 0.0
H372 H 0.83369 0.62433 0.49505 0.0
H373 H 0.91877 0.71513 0.49933 0.0
H374 H 0.95555 0.76203 0.48279 0.0
H375 H 0.89244 0.78696 0.47241 0.0
H376 H 0.85521 0.74005 0.48856 0.0
H377 H 0.81868 0.7025 0.62034 0.0
H378 H 0.84556 0.69829 0.58364 0.0
H379 H 0.76709 0.64069 0.5441 0.0
H380 H 0.74002 0.64428 0.58119 0.0
H381 H 0.84907 0.71433 0.53536 0.0
H382 H 0.77742 0.59714 0.50214 0.0
H383 H 0.74468 0.55033 0.52181 0.0
H384 H 0.78779 0.57832 0.59625 0.0
H385 H 0.82101 0.62514 0.57695 0.0
C386 C 0.89106 0.68858 0.42435 0.0
C387 C 0.90791 0.67554 0.42454 0.0
C388 C 0.87363 0.68573 0.44589 0.0
C389 C 0.87296 0.67017 0.46835 0.0
C390 C 0.88868 0.65596 0.46806 0.0
C391 C 0.90597 0.6586 0.44637 0.0
C392 C 0.85712 0.67007 0.49255 0.0
C393 C 0.83699 0.644 0.50383 0.0
C394 C 0.86182 0.6957 0.5045 0.0
C395 C 0.88417 0.72399 0.49492 0.0
C396 C 0.91271 0.73055 0.49335 0.0
C397 C 0.93364 0.75714 0.48407 0.0
C398 C 0.92632 0.77744 0.47649 0.0
C399 C 0.89807 0.77121 0.47825 0.0
C400 C 0.87705 0.74463 0.48749 0.0
C401 C 0.80709 0.68862 0.60402 0.0
C402 C 0.77715 0.67372 0.60376 0.0
C403 C 0.82253 0.68632 0.58294 0.0
C404 C 0.80848 0.66912 0.56099 0.0
C405 C 0.77854 0.65377 0.56091 0.0
C406 C 0.76304 0.6559 0.58213 0.0
C407 C 0.82525 0.66856 0.53776 0.0
C408 C 0.84561 0.69459 0.52661 0.0
C409 C 0.82122 0.64291 0.5264 0.0
C410 C 0.8015 0.61474 0.53815 0.0
C411 C 0.77996 0.59327 0.52268 0.0
C412 C 0.76131 0.56674 0.53377 0.0
C413 C 0.76409 0.56139 0.56029 0.0
C414 C 0.78559 0.58253 0.57575 0.0
C415 C 0.8043 0.60908 0.56475 0.0
H416 H 0.74962 0.54084 0.56883 0.0
H417 H 0.94256 0.79801 0.46931 0.0
H418 H 0.26421 0.89914 0.76707 0.0
H419 H 0.24064 0.86883 0.80544 0.0
H420 H 0.16053 0.85965 0.78014 0.0
H421 H 0.1837 0.88913 0.74158 0.0
H422 H 0.21549 0.87562 0.84598 0.0
H423 H 0.10521 0.79787 0.79933 0.0
H424 H 0.08578 0.77422 0.75661 0.0
H425 H 0.16616 0.78149 0.73682 0.0
H426 H 0.18597 0.80483 0.77955 0.0
H427 H 0.10796 0.81692 0.94293 0.0
H428 H 0.13887 0.83993 0.90514 0.0
H429 H 0.13074 0.75974 0.88156 0.0
H430 H 0.09894 0.73632 0.91909 0.0
H431 H 0.12471 0.78395 0.84032 0.0
H432 H 0.19422 0.81565 0.90806 0.0
H433 H 0.2166 0.83649 0.95087 0.0
H434 H 0.22313 0.91596 0.92871 0.0
H435 H 0.20043 0.89548 0.8859 0.0
C436 C 0.2415 0.89035 0.76951 0.0
C437 C 0.22586 0.89648 0.75112 0.0
C438 C 0.22805 0.8731 0.79155 0.0
C439 C 0.19867 0.86159 0.79567 0.0
C440 C 0.18306 0.86766 0.77723 0.0
C441 C 0.19642 0.88469 0.75517 0.0
C442 C 0.18443 0.84427 0.81972 0.0
C443 C 0.19571 0.85551 0.84471 0.0
C444 C 0.15897 0.81761 0.81823 0.0
C445 C 0.14713 0.80331 0.79258 0.0
C446 C 0.1187 0.7943 0.78592 0.0
C447 C 0.10763 0.78097 0.76169 0.0
C448 C 0.12474 0.77643 0.74398 0.0
C449 C 0.15295 0.78512 0.75051 0.0
C450 C 0.16412 0.79843 0.77472 0.0
C451 C 0.11299 0.80417 0.92994 0.0
C452 C 0.10096 0.77473 0.93414 0.0
C453 C 0.13085 0.81744 0.90831 0.0
C454 C 0.13754 0.80174 0.8905 0.0
C455 C 0.12598 0.7724 0.89494 0.0
C456 C 0.10789 0.75904 0.91651 0.0
C457 C 0.15529 0.81574 0.8666 0.0
C458 C 0.14463 0.80391 0.84162 0.0
C459 C 0.18171 0.84148 0.86811 0.0
C460 C 0.19543 0.85394 0.89383 0.0
C461 C 0.20025 0.83751 0.91238 0.0
C462 C 0.21302 0.84927 0.93664 0.0
C463 C 0.22124 0.87751 0.94252 0.0
C464 C 0.21675 0.89408 0.92413 0.0
C465 C 0.20396 0.88241 0.89985 0.0
H466 H 0.23112 0.88658 0.96131 0.0
H467 H 0.11614 0.76612 0.72523 0.0
H468 H 0.37186 0.95115 0.28654 0.0
H469 H 0.41505 0.94846 0.28024 0.0
H470 H 0.46559 0.03998 0.28497 0.0
H471 H 0.42209 0.04282 0.29017 0.0
H472 H 0.48871 0.0211 0.25049 0.0
H473 H 0.45484 0.99646 0.3394 0.0
H474 H 0.41987 0.97034 0.37454 0.0
H475 H 0.41197 0.89175 0.34717 0.0
H476 H 0.44663 0.91738 0.31163 0.0
H477 H 0.61609 0.03305 0.30372 0.0
H478 H 0.57221 0.03352 0.29411 0.0
H479 H 0.52971 0.94368 0.27697 0.0
H480 H 0.57385 0.94309 0.28632 0.0
H481 H 0.50188 0.95945 0.31462 0.0
H482 H 0.5414 0.98768 0.22786 0.0
H483 H 0.57845 0.01647 0.19518 0.0
H484 H 0.57846 0.09168 0.22174 0.0
H485 H 0.54169 0.06341 0.25487 0.0
C486 C 0.39215 0.97074 0.28586 0.0
C487 C 0.39366 0.99719 0.28914 0.0
C488 C 0.41685 0.96917 0.28237 0.0
C489 C 0.44368 0.99395 0.28285 0.0
C490 C 0.44516 0.02053 0.2847 0.0
C491 C 0.42031 0.02215 0.28769 0.0
C492 C 0.47006 0.99194 0.28304 0.0
C493 C 0.49168 0.0078 0.26465 0.0
C494 C 0.47385 0.97426 0.30127 0.0
C495 C 0.45309 0.9588 0.32268 0.0
C496 C 0.44549 0.97358 0.34076 0.0
C497 C 0.42575 0.95887 0.36076 0.0
C498 C 0.41364 0.92939 0.36304 0.0
C499 C 0.42132 0.91458 0.34535 0.0
C500 C 0.44103 0.92919 0.32529 0.0
C501 C 0.59754 0.01346 0.29749 0.0
C502 C 0.59837 0.98799 0.29586 0.0
C503 C 0.57252 0.01381 0.29189 0.0
C504 C 0.54775 0.98867 0.28473 0.0
C505 C 0.54866 0.96333 0.28237 0.0
C506 C 0.57388 0.96304 0.28763 0.0
C507 C 0.52046 0.98856 0.2821 0.0
C508 C 0.49873 0.97243 0.30021 0.0
C509 C 0.51687 0.00638 0.26397 0.0
C510 C 0.53893 0.02344 0.244 0.0
C511 C 0.54946 0.0104 0.22689 0.0
C512 C 0.57039 0.02662 0.20825 0.0
C513 C 0.58085 0.0559 0.20642 0.0
C514 C 0.57035 0.069 0.22319 0.0
C515 C 0.54944 0.05288 0.24188 0.0
H516 H 0.59705 0.06842 0.19198 0.0
H517 H 0.39836 0.91804 0.37854 0.0
H518 H 0.58438 0.62077 0.63782 0.0
H519 H 0.53774 0.5794 0.62933 0.0
H520 H 0.576 0.52629 0.6242 0.0
H521 H 0.62315 0.56821 0.63127 0.0
H522 H 0.53368 0.50725 0.59113 0.0
H523 H 0.54448 0.53305 0.68254 0.0
H524 H 0.55476 0.5648 0.72088 0.0
H525 H 0.48592 0.57839 0.69919 0.0
H526 H 0.47547 0.54701 0.6605 0.0
H527 H 0.41571 0.3786 0.64104 0.0
H528 H 0.46095 0.42193 0.63245 0.0
H529 H 0.41635 0.46784 0.61808 0.0
H530 H 0.37074 0.42422 0.62616 0.0
H531 H 0.46019 0.49123 0.65803 0.0
H532 H 0.44731 0.45889 0.56822 0.0
H533 H 0.43765 0.42415 0.53266 0.0
H534 H 0.51123 0.41896 0.55521 0.0
H535 H 0.52112 0.45337 0.59118 0.0
C536 C 0.58289 0.60033 0.63447 0.0
C537 C 0.60727 0.59756 0.63549 0.0
C538 C 0.55619 0.57666 0.62976 0.0
C539 C 0.55316 0.54952 0.62693 0.0
C540 C 0.57773 0.54696 0.62651 0.0
C541 C 0.60465 0.57087 0.63057 0.0
C542 C 0.52431 0.52379 0.62609 0.0
C543 C 0.51771 0.50366 0.60589 0.0
C544 C 0.50324 0.51913 0.64516 0.0
C545 C 0.50939 0.53793 0.66847 0.0
C546 C 0.53166 0.54297 0.68585 0.0
C547 C 0.5375 0.56087 0.70765 0.0
C548 C 0.52105 0.57367 0.71242 0.0
C549 C 0.49867 0.56851 0.69544 0.0
C550 C 0.49277 0.55065 0.67358 0.0
C551 C 0.41548 0.39779 0.63557 0.0
C552 C 0.38972 0.39809 0.63436 0.0
C553 C 0.44133 0.42248 0.63056 0.0
C554 C 0.44196 0.44802 0.62457 0.0
C555 C 0.41624 0.44825 0.62256 0.0
C556 C 0.39025 0.42335 0.6271 0.0
C557 C 0.46962 0.47487 0.6231 0.0
C558 C 0.47606 0.49508 0.64306 0.0
C559 C 0.49065 0.47918 0.60422 0.0
C560 C 0.48482 0.45855 0.58254 0.0
C561 C 0.4613 0.45016 0.56575 0.0
C562 C 0.45581 0.43056 0.54548 0.0
C563 C 0.47378 0.41931 0.54171 0.0
C564 C 0.49732 0.42768 0.55817 0.0
C565 C 0.50289 0.44726 0.57848 0.0
H566 H 0.4695 0.40414 0.52601 0.0
H567 H 0.52561 0.58752 0.72931 0.0
H568 H 0.96991 0.58636 0.99693 0.0
H569 H 0.96846 0.54133 0.98994 0.0
H570 H 0.03446 0.5805 0.93095 0.0
H571 H 0.03689 0.62633 0.93883 0.0
H572 H 0.95581 0.5059 0.95252 0.0
H573 H 0.07422 0.54785 0.9304 0.0
H574 H 0.12117 0.59017 0.93877 0.0
H575 H 0.08906 0.60753 0.00973 0.0
H576 H 0.04205 0.56516 1.00191 0.0
H577 H 0.96843 0.38138 0.93753 0.0
H578 H 0.97198 0.42748 0.92815 0.0
H579 H 0.0224 0.46249 0.99864 0.0
H580 H 0.01993 0.41728 1.00736 0.0
H581 H 0.04375 0.50022 0.96285 0.0
H582 H 0.94798 0.43817 0.99468 0.0
H583 H 0.90015 0.39554 0.99398 0.0
H584 H 0.88547 0.41795 0.91657 0.0
H585 H 0.93338 0.46057 0.91671 0.0
C586 C 0.98409 0.58546 0.98237 0.0
C587 C 0.00368 0.60999 0.96857 0.0
C588 C 0.98313 0.55957 0.97828 0.0
C589 C 0.00149 0.55741 0.96007 0.0
C590 C 0.02041 0.58167 0.94548 0.0
C591 C 0.02174 0.60784 0.94992 0.0
C592 C 0.00134 0.52995 0.95759 0.0
C593 C 0.97511 0.50472 0.95454 0.0
C594 C 0.0264 0.52819 0.96038 0.0
C595 C 0.05458 0.5536 0.96536 0.0
C596 C 0.07723 0.56071 0.94779 0.0
C597 C 0.10383 0.58468 0.95245 0.0
C598 C 0.10806 0.60159 0.97471 0.0
C599 C 0.08572 0.59449 0.99243 0.0
C600 C 0.0591 0.57052 0.98789 0.0
C601 C 0.98038 0.39902 0.95088 0.0
C602 C 0.99384 0.39567 0.97321 0.0
C603 C 0.98234 0.42533 0.94557 0.0
C604 C 0.99726 0.44851 0.96281 0.0
C605 C 0.01094 0.44512 0.98488 0.0
C606 C 0.00938 0.41912 0.98994 0.0
C607 C 0.99811 0.47614 0.95881 0.0
C608 C 0.02451 0.50142 0.96035 0.0
C609 C 0.97309 0.4779 0.9557 0.0
C610 C 0.94435 0.45231 0.95556 0.0
C611 C 0.93461 0.43387 0.97744 0.0
C612 C 0.90749 0.40975 0.97716 0.0
C613 C 0.88982 0.40399 0.95521 0.0
C614 C 0.89921 0.4224 0.93353 0.0
C615 C 0.92634 0.44654 0.9337 0.0
H616 H 0.86883 0.38531 0.95503 0.0
H617 H 0.12866 0.62016 0.97826 0.0
H618 H 0.96553 0.58295 0.4073 0.0
H619 H 0.96836 0.53939 0.41222 0.0
H620 H 0.05182 0.58157 0.37671 0.0
H621 H 0.04913 0.62481 0.37162 0.0
H622 H 0.01783 0.53199 0.35303 0.0
H623 H 0.044 0.56583 0.44175 0.0
H624 H 0.03845 0.58301 0.48522 0.0
H625 H 0.96066 0.50442 0.49814 0.0
H626 H 0.96555 0.48691 0.45456 0.0
H627 H 0.04689 0.41728 0.4088 0.0
H628 H 0.04686 0.46212 0.41582 0.0
H629 H 0.97208 0.43145 0.36706 0.0
H630 H 0.9719 0.38694 0.35995 0.0
H631 H 0.00535 0.47667 0.43495 0.0
H632 H 0.9846 0.48498 0.32452 0.0
H633 H 0.99249 0.46887 0.28136 0.0
H634 H 0.06485 0.46654 0.31271 0.0
H635 H 0.05765 0.48304 0.35591 0.0
C636 C 0.98461 0.58301 0.40087 0.0
C637 C 0.007 0.60728 0.3889 0.0
C638 C 0.98625 0.55815 0.40377 0.0
C639 C 0.01032 0.55723 0.39482 0.0
C640 C 0.03301 0.58174 0.38366 0.0
C641 C 0.03141 0.60648 0.3808 0.0
C642 C 0.01124 0.53031 0.39513 0.0
C643 C 0.01513 0.51998 0.37099 0.0
C644 C 0.00799 0.51472 0.41856 0.0
C645 C 0.00501 0.52517 0.44478 0.0
C646 C 0.02558 0.55231 0.45376 0.0
C647 C 0.02258 0.56209 0.47844 0.0
C648 C 0.99918 0.54485 0.4944 0.0
C649 C 0.97876 0.51777 0.48574 0.0
C650 C 0.98165 0.50789 0.46106 0.0
C651 C 0.03024 0.41998 0.39989 0.0
C652 C 0.00959 0.39867 0.38359 0.0
C653 C 0.03018 0.44553 0.40401 0.0
C654 C 0.00962 0.45016 0.39174 0.0
C655 C 0.98827 0.42838 0.37652 0.0
C656 C 0.98826 0.40295 0.37246 0.0
C657 C 0.01157 0.4784 0.39284 0.0
C658 C 0.00811 0.48885 0.4171 0.0
C659 C 0.01554 0.49439 0.36956 0.0
C660 C 0.0204 0.48498 0.34351 0.0
C661 C 0.00227 0.48115 0.32215 0.0
C662 C 0.00661 0.47193 0.29769 0.0
C663 C 0.0291 0.46659 0.29432 0.0
C664 C 0.04737 0.47058 0.31537 0.0
C665 C 0.04315 0.47983 0.33986 0.0
H666 H 0.0324 0.45943 0.27538 0.0
H667 H 0.99689 0.55246 0.51351 0.0
H668 H 0.58579 0.97876 0.68202 0.0
H669 H 0.54019 0.97482 0.69208 0.0
H670 H 0.57807 0.03314 0.75727 0.0
H671 H 0.62448 0.03794 0.74664 0.0
H672 H 0.50481 0.95673 0.73094 0.0
H673 H 0.54377 0.07168 0.76362 0.0
H674 H 0.58543 0.11982 0.75855 0.0
H675 H 0.60435 0.09618 0.68348 0.0
H676 H 0.56265 0.04805 0.688 0.0
H677 H 0.377 0.96307 0.74793 0.0
H678 H 0.42351 0.96796 0.75819 0.0
H679 H 0.46044 0.02458 0.69167 0.0
H680 H 0.41479 0.02072 0.68212 0.0
H681 H 0.49647 0.04369 0.72929 0.0
H682 H 0.43757 0.95028 0.69007 0.0
H683 H 0.39578 0.90196 0.68769 0.0
H684 H 0.41662 0.88215 0.76366 0.0
H685 H 0.45838 0.93049 0.76658 0.0
C686 C 0.58452 0.9907 0.69862 0.0
C687 C 0.60886 0.00887 0.71341 0.0
C688 C 0.55829 0.98827 0.70446 0.0
C689 C 0.5556 0.00379 0.72533 0.0
C690 C 0.57966 0.02123 0.74082 0.0
C691 C 0.60615 0.02391 0.73478 0.0
C692 C 0.52784 0.00257 0.72948 0.0
C693 C 0.50302 0.97579 0.73091 0.0
C694 C 0.52535 0.02734 0.72933 0.0
C695 C 0.55037 0.05621 0.72635 0.0
C696 C 0.55684 0.0768 0.74604 0.0
C697 C 0.58044 0.10407 0.74326 0.0
C698 C 0.5976 0.11102 0.72076 0.0
C699 C 0.59112 0.09074 0.70095 0.0
C700 C 0.56753 0.06346 0.70362 0.0
C701 C 0.39515 0.97672 0.73569 0.0
C702 C 0.39219 0.9914 0.71416 0.0
C703 C 0.4217 0.97945 0.74151 0.0
C704 C 0.44553 0.99645 0.72555 0.0
C705 C 0.44254 0.0115 0.70443 0.0
C706 C 0.41629 0.00912 0.69888 0.0
C707 C 0.47338 0.99782 0.7296 0.0
C708 C 0.49824 0.02464 0.72998 0.0
C709 C 0.47589 0.97306 0.73043 0.0
C710 C 0.45083 0.94406 0.72869 0.0
C711 C 0.4331 0.93567 0.70634 0.0
C712 C 0.40946 0.90828 0.70488 0.0
C713 C 0.40349 0.88903 0.72555 0.0
C714 C 0.42122 0.89711 0.74769 0.0
C715 C 0.44487 0.92449 0.74926 0.0
H716 H 0.38518 0.86784 0.72439 0.0
H717 H 0.61587 0.13213 0.71866 0.0
H718 H 0.43027 0.38009 0.06655 0.0
H719 H 0.47284 0.4263 0.07473 0.0
H720 H 0.4229 0.46772 0.06612 0.0
H721 H 0.38086 0.42191 0.05672 0.0
H722 H 0.4669 0.49423 0.03804 0.0
H723 H 0.45239 0.46177 0.1274 0.0
H724 H 0.44461 0.42883 0.16416 0.0
H725 H 0.52459 0.43372 0.14749 0.0
H726 H 0.53268 0.4664 0.11039 0.0
H727 H 0.57995 0.63133 0.07087 0.0
H728 H 0.53587 0.58619 0.07878 0.0
H729 H 0.58091 0.54034 0.06656 0.0
H730 H 0.62482 0.58518 0.0583 0.0
H731 H 0.53884 0.51783 0.10848 0.0
H732 H 0.54964 0.54689 0.01643 0.0
H733 H 0.55702 0.58059 0.98048 0.0
H734 H 0.48206 0.58258 1.00447 0.0
H735 H 0.47449 0.54919 0.04084 0.0
C736 C 0.42838 0.39905 0.06683 0.0
C737 C 0.40235 0.39747 0.06083 0.0
C738 C 0.45268 0.42547 0.07164 0.0
C739 C 0.45116 0.45064 0.0712 0.0
C740 C 0.42476 0.44874 0.06641 0.0
C741 C 0.40071 0.42251 0.06109 0.0
C742 C 0.47727 0.47912 0.07343 0.0
C743 C 0.48224 0.49945 0.05384 0.0
C744 C 0.49777 0.48598 0.09365 0.0
C745 C 0.49301 0.46635 0.11596 0.0
C746 C 0.46822 0.45565 0.13144 0.0
C747 C 0.46377 0.43706 0.15236 0.0
C748 C 0.48406 0.42914 0.15811 0.0
C749 C 0.50888 0.43986 0.14299 0.0
C750 C 0.51342 0.45844 0.12204 0.0
C751 C 0.58056 0.61168 0.07044 0.0
C752 C 0.60574 0.61173 0.06373 0.0
C753 C 0.5554 0.58594 0.07493 0.0
C754 C 0.55516 0.55997 0.07308 0.0
C755 C 0.58068 0.56015 0.06813 0.0
C756 C 0.6057 0.58578 0.06328 0.0
C757 C 0.52798 0.53256 0.07331 0.0
C758 C 0.52305 0.5125 0.0931 0.0
C759 C 0.50728 0.52594 0.05348 0.0
C760 C 0.5117 0.54584 0.03152 0.0
C761 C 0.53488 0.55471 0.01417 0.0
C762 C 0.53907 0.57372 0.9937 0.0
C763 C 0.52008 0.58379 0.99025 0.0
C764 C 0.4968 0.57481 1.00721 0.0
C765 C 0.49254 0.55584 0.02775 0.0
H766 H 0.52335 0.5985 0.97438 0.0
H767 H 0.48058 0.41474 0.17432 0.0
H768 H 0.03171 0.78579 0.38615 0.0
H769 H 0.07326 0.82924 0.37063 0.0
H770 H 0.12418 0.78874 0.37647 0.0
H771 H 0.08287 0.74525 0.39224 0.0
H772 H 0.15617 0.84641 0.38413 0.0
H773 H 0.08909 0.78076 0.32317 0.0
H774 H 0.04157 0.75008 0.30404 0.0
H775 H 0.03478 0.82369 0.28545 0.0
H776 H 0.08189 0.85482 0.30537 0.0
H777 H 0.25557 0.91999 0.28694 0.0
H778 H 0.21182 0.87765 0.30056 0.0
H779 H 0.17063 0.92757 0.3097 0.0
H780 H 0.21443 0.97028 0.29637 0.0
H781 H 0.13387 0.86462 0.29344 0.0
H782 H 0.20423 0.92911 0.35848 0.0
H783 H 0.25375 0.95591 0.3745 0.0
H784 H 0.25604 0.87816 0.38121 0.0
H785 H 0.20681 0.85101 0.36448 0.0
C786 C 0.05197 0.7864 0.38516 0.0
C787 C 0.05376 0.76174 0.38961 0.0
C788 C 0.07569 0.81126 0.37618 0.0
C789 C 0.10144 0.81176 0.37155 0.0
C790 C 0.10434 0.7886 0.37957 0.0
C791 C 0.08063 0.76371 0.3886 0.0
C792 C 0.1235 0.83413 0.35461 0.0
C793 C 0.15128 0.85033 0.36432 0.0
C794 C 0.11718 0.8388 0.3285 0.0
C795 C 0.08892 0.82016 0.31617 0.0
C796 C 0.07731 0.79043 0.3154 0.0
C797 C 0.05041 0.77292 0.30444 0.0
C798 C 0.03512 0.78492 0.29362 0.0
C799 C 0.04665 0.81443 0.29387 0.0
C800 C 0.07342 0.83202 0.30508 0.0
C801 C 0.23692 0.92188 0.29074 0.0
C802 C 0.23874 0.94869 0.29134 0.0
C803 C 0.21191 0.89759 0.29852 0.0
C804 C 0.18835 0.89976 0.30667 0.0
C805 C 0.18874 0.92562 0.30362 0.0
C806 C 0.21384 0.95002 0.29605 0.0
C807 C 0.16619 0.87716 0.32324 0.0
C808 C 0.13853 0.86081 0.31337 0.0
C809 C 0.17274 0.87179 0.34893 0.0
C810 C 0.20195 0.88807 0.35993 0.0
C811 C 0.2154 0.91777 0.36309 0.0
C812 C 0.24344 0.93304 0.37224 0.0
C813 C 0.25807 0.91874 0.37872 0.0
C814 C 0.24471 0.88919 0.37607 0.0
C815 C 0.21676 0.87387 0.36673 0.0
H816 H 0.27968 0.93049 0.38595 0.0
H817 H 0.0144 0.77135 0.28496 0.0
H818 H 0.33367 0.26119 0.64728 0.0
H819 H 0.33178 0.21605 0.65545 0.0
H820 H 0.24003 0.17257 0.65326 0.0
H821 H 0.24169 0.21788 0.6457 0.0
H822 H 0.25759 0.15907 0.6966 0.0
H823 H 0.27956 0.1628 0.60472 0.0
H824 H 0.30581 0.18394 0.56342 0.0
H825 H 0.38198 0.19249 0.59796 0.0
H826 H 0.3563 0.17178 0.63961 0.0
H827 H 0.2414 0.01964 0.70148 0.0
H828 H 0.24041 0.06326 0.69195 0.0
H829 H 0.33201 0.11162 0.69658 0.0
H830 H 0.33329 0.06812 0.70585 0.0
H831 H 0.31275 0.12132 0.6509 0.0
H832 H 0.29096 0.11897 0.74316 0.0
H833 H 0.26461 0.09772 0.78439 0.0
H834 H 0.18775 0.08619 0.74869 0.0
H835 H 0.21358 0.10704 0.70711 0.0
C836 C 0.31306 0.24198 0.6479 0.0
C837 C 0.28781 0.24322 0.64603 0.0
C838 C 0.31202 0.21611 0.65254 0.0
C839 C 0.28575 0.19089 0.65498 0.0
C840 C 0.26053 0.1918 0.65158 0.0
C841 C 0.26153 0.21771 0.6471 0.0
C842 C 0.28468 0.16416 0.6634 0.0
C843 C 0.26923 0.15051 0.68631 0.0
C844 C 0.30051 0.15346 0.65042 0.0
C845 C 0.31604 0.16595 0.62538 0.0
C846 C 0.30196 0.1694 0.60359 0.0
C847 C 0.31673 0.18127 0.5801 0.0
C848 C 0.34556 0.18961 0.57809 0.0
C849 C 0.35966 0.18604 0.59955 0.0
C850 C 0.345 0.17421 0.6231 0.0
C851 C 0.26132 0.03963 0.70111 0.0
C852 C 0.28745 0.04032 0.70421 0.0
C853 C 0.2607 0.06456 0.69565 0.0
C854 C 0.28615 0.09065 0.69341 0.0
C855 C 0.31214 0.09166 0.69804 0.0
C856 C 0.3128 0.06677 0.70349 0.0
C857 C 0.28585 0.11642 0.68416 0.0
C858 C 0.30102 0.12985 0.66109 0.0
C859 C 0.26973 0.12687 0.69695 0.0
C860 C 0.25415 0.1143 0.72193 0.0
C861 C 0.26839 0.11167 0.74402 0.0
C862 C 0.25356 0.09975 0.76747 0.0
C863 C 0.22451 0.09054 0.76914 0.0
C864 C 0.21025 0.0933 0.74736 0.0
C865 C 0.22498 0.10519 0.72386 0.0
H866 H 0.21307 0.08132 0.78731 0.0
H867 H 0.35695 0.19879 0.55988 0.0
H868 H 0.22168 0.25134 0.05408 0.0
H869 H 0.17748 0.25123 0.04407 0.0
H870 H 0.22366 0.34284 0.03989 0.0
H871 H 0.26782 0.34332 0.05013 0.0
H872 H 0.14736 0.2796 0.06439 0.0
H873 H 0.2042 0.35805 0.97911 0.0
H874 H 0.24641 0.37385 0.95061 0.0
H875 H 0.24088 0.29249 0.95944 0.0
H876 H 0.19837 0.27606 0.98757 0.0
H877 H 0.07611 0.34143 0.97758 0.0
H878 H 0.11971 0.34173 0.99062 0.0
H879 H 0.07264 0.25045 0.99895 0.0
H880 H 0.02907 0.24979 0.98572 0.0
H881 H 0.14947 0.31397 0.973 0.0
H882 H 0.09315 0.23665 0.06034 0.0
H883 H 0.05198 0.22234 0.0899 0.0
H884 H 0.05702 0.30309 0.07779 0.0
H885 H 0.09848 0.31805 0.04854 0.0
C886 C 0.22232 0.27152 0.05185 0.0
C887 C 0.24838 0.29731 0.05248 0.0
C888 C 0.19704 0.27139 0.04613 0.0
C889 C 0.19753 0.29699 0.04074 0.0
C890 C 0.223 0.32285 0.04369 0.0
C891 C 0.24821 0.32305 0.04964 0.0
C892 C 0.17236 0.29659 0.0291 0.0
C893 C 0.14763 0.28677 0.04433 0.0
C894 C 0.17309 0.30651 1.00308 0.0
C895 C 0.19831 0.31598 0.98572 0.0
C896 C 0.21193 0.34351 0.97488 0.0
C897 C 0.23591 0.35257 0.95878 0.0
C898 C 0.24638 0.33422 0.9533 0.0
C899 C 0.23282 0.30672 0.96379 0.0
C900 C 0.2088 0.29754 0.97983 0.0
C901 C 0.07515 0.32133 0.98149 0.0
C902 C 0.04902 0.29562 0.98088 0.0
C903 C 0.10007 0.32157 0.98899 0.0
C904 C 0.09916 0.29618 0.99627 0.0
C905 C 0.07361 0.27031 0.99377 0.0
C906 C 0.04877 0.26999 0.98601 0.0
C907 C 0.12435 0.29687 0.00824 0.0
C908 C 0.14912 0.30676 0.99306 0.0
C909 C 0.12367 0.28712 0.03435 0.0
C910 C 0.09871 0.2783 0.05195 0.0
C911 C 0.0855 0.25136 0.06402 0.0
C912 C 0.06212 0.24315 0.08074 0.0
C913 C 0.05183 0.26176 0.08565 0.0
C914 C 0.06493 0.28865 0.07388 0.0
C915 C 0.08834 0.29698 0.05719 0.0
H916 H 0.03375 0.25538 0.09861 0.0
H917 H 0.26496 0.34128 0.94086 0.0
H918 H 0.92666 0.26195 0.37267 0.0
H919 H 0.88336 0.21748 0.36262 0.0
H920 H 0.92935 0.17189 0.36948 0.0
H921 H 0.97298 0.21642 0.37907 0.0
H922 H 0.90201 0.16044 0.32374 0.0
H923 H 0.87727 0.16228 0.41408 0.0
H924 H 0.86944 0.18257 0.45467 0.0
H925 H 0.80527 0.19328 0.41536 0.0
H926 H 0.813 0.17342 0.3744 0.0
H927 H 0.77919 0.02139 0.31484 0.0
H928 H 0.82324 0.0651 0.32531 0.0
H929 H 0.78035 0.11344 0.3159 0.0
H930 H 0.73611 0.06985 0.30561 0.0
H931 H 0.80624 0.12278 0.36345 0.0
H932 H 0.83166 0.12145 0.27294 0.0
H933 H 0.83931 0.10066 0.23259 0.0
H934 H 0.90208 0.08841 0.27277 0.0
H935 H 0.89453 0.10878 0.31349 0.0
C936 C 0.92748 0.2424 0.37274 0.0
C937 C 0.9534 0.24283 0.37643 0.0
C938 C 0.90263 0.21693 0.36699 0.0
C939 C 0.90313 0.19135 0.36518 0.0
C940 C 0.92854 0.19142 0.3706 0.0
C941 C 0.95343 0.2169 0.37625 0.0
C942 C 0.87791 0.16516 0.35526 0.0
C943 C 0.88115 0.1519 0.33272 0.0
C944 C 0.85055 0.15454 0.36648 0.0
C945 C 0.84592 0.1666 0.39107 0.0
C946 C 0.86167 0.1692 0.41401 0.0
C947 C 0.85721 0.18057 0.43711 0.0
C948 C 0.83693 0.18928 0.43758 0.0
C949 C 0.82101 0.18656 0.41496 0.0
C950 C 0.8254 0.17522 0.3918 0.0
C951 C 0.77926 0.04139 0.31427 0.0
C952 C 0.754 0.04204 0.30965 0.0
C953 C 0.8045 0.06638 0.32029 0.0
C954 C 0.80499 0.09248 0.32159 0.0
C955 C 0.78034 0.09347 0.31521 0.0
C956 C 0.75511 0.06852 0.30915 0.0
C957 C 0.83037 0.11819 0.33192 0.0
C958 C 0.82713 0.13132 0.35454 0.0
C959 C 0.85772 0.12864 0.32082 0.0
C960 C 0.86231 0.11639 0.29635 0.0
C961 C 0.84691 0.11409 0.27325 0.0
C962 C 0.85127 0.10243 0.25029 0.0
C963 C 0.87111 0.09315 0.25014 0.0
C964 C 0.88669 0.09557 0.27293 0.0
C965 C 0.8824 0.10721 0.29594 0.0
H966 H 0.87446 0.08413 0.23234 0.0
H967 H 0.8335 0.19807 0.45548 0.0
H968 H 0.75234 0.77766 0.63742 0.0
H969 H 0.75253 0.82234 0.64467 0.0
H970 H 0.66224 0.77545 0.66018 0.0
H971 H 0.66166 0.73096 0.652 0.0
H972 H 0.67389 0.82155 0.63603 0.0
H973 H 0.71284 0.79861 0.70988 0.0
H974 H 0.74506 0.78654 0.73371 0.0
H975 H 0.81672 0.86677 0.71135 0.0
H976 H 0.78496 0.8791 0.68696 0.0
H977 H 0.66559 0.93045 0.70598 0.0
H978 H 0.6645 0.88574 0.69634 0.0
H979 H 0.75392 0.93229 0.677 0.0
H980 H 0.75541 0.97691 0.68748 0.0
H981 H 0.742 0.88596 0.70341 0.0
H982 H 0.69787 0.90551 0.62705 0.0
H983 H 0.66162 0.91342 0.60514 0.0
H984 H 0.59506 0.83578 0.63819 0.0
H985 H 0.63073 0.82714 0.65998 0.0
C986 C 0.73242 0.77691 0.64177 0.0
C987 C 0.70705 0.75071 0.64441 0.0
C988 C 0.7326 0.80245 0.64614 0.0
C989 C 0.70754 0.80221 0.65372 0.0
C990 C 0.68188 0.7762 0.65456 0.0
C991 C 0.68161 0.75072 0.64983 0.0
C992 C 0.70815 0.82873 0.66219 0.0
C993 C 0.68867 0.83551 0.65091 0.0
C994 C 0.72735 0.84695 0.68169 0.0
C995 C 0.74653 0.83965 0.69638 0.0
C996 C 0.73548 0.81359 0.70991 0.0
C997 C 0.75366 0.80672 0.72353 0.0
C998 C 0.78291 0.82587 0.72403 0.0
C999 C 0.79405 0.85195 0.71092 0.0
C1000 C 0.77597 0.85888 0.69718 0.0
C1001 C 0.68513 0.93113 0.70008 0.0
C1002 C 0.71057 0.95727 0.69742 0.0
C1003 C 0.6844 0.90557 0.69429 0.0
C1004 C 0.70895 0.9057 0.68523 0.0
C1005 C 0.73465 0.93166 0.68376 0.0
C1006 C 0.73548 0.95718 0.68987 0.0
C1007 C 0.70802 0.87897 0.67696 0.0
C1008 C 0.72738 0.87208 0.6884 0.0
C1009 C 0.68822 0.86025 0.65811 0.0
C1010 C 0.66693 0.86584 0.64531 0.0
C1011 C 0.6755 0.89025 0.62976 0.0
C1012 C 0.65509 0.89484 0.61734 0.0
C1013 C 0.62615 0.87529 0.62045 0.0
C1014 C 0.61749 0.85096 0.63584 0.0
C1015 C 0.63777 0.84614 0.64813 0.0
H1016 H 0.61043 0.87894 0.61084 0.0
H1017 H 0.79695 0.82052 0.73461 0.0
H1018 H 0.78439 0.76248 0.04133 0.0
H1019 H 0.82853 0.76451 0.02756 0.0
H1020 H 0.78851 0.67331 0.03508 0.0
H1021 H 0.74454 0.67109 0.04942 0.0
H1022 H 0.84352 0.69764 0.0475 0.0
H1023 H 0.78787 0.70305 0.97688 0.0
H1024 H 0.76153 0.72219 0.95285 0.0
H1025 H 0.83833 0.80265 0.94437 0.0
H1026 H 0.86502 0.78423 0.96896 0.0
H1027 H 0.92675 0.67095 0.96201 0.0
H1028 H 0.88381 0.67311 0.97162 0.0
H1029 H 0.93374 0.76435 0.9789 0.0
H1030 H 0.97697 0.76253 0.96933 0.0
H1031 H 0.87431 0.74057 0.95833 0.0
H1032 H 0.92902 0.73166 0.03066 0.0
H1033 H 0.95365 0.70785 0.04948 0.0
H1034 H 0.87487 0.62845 0.05108 0.0
H1035 H 0.84994 0.65164 0.03148 0.0
C1036 C 0.7852 0.74293 0.04085 0.0
C1037 C 0.76073 0.71656 0.04599 0.0
C1038 C 0.81041 0.74412 0.03279 0.0
C1039 C 0.81149 0.71896 0.02952 0.0
C1040 C 0.78804 0.69295 0.0372 0.0
C1041 C 0.76288 0.69175 0.04542 0.0
C1042 C 0.83579 0.71935 0.01568 0.0
C1043 C 0.85012 0.70694 0.02799 0.0
C1044 C 0.84434 0.7313 0.99008 0.0
C1045 C 0.8284 0.74236 0.97503 0.0
C1046 C 0.79911 0.7249 0.97008 0.0
C1047 C 0.78411 0.73559 0.95633 0.0
C1048 C 0.79824 0.7636 0.94709 0.0
C1049 C 0.8274 0.78097 0.95157 0.0
C1050 C 0.84248 0.77042 0.96544 0.0
C1051 C 0.92859 0.69162 0.96467 0.0
C1052 C 0.9554 0.71651 0.96562 0.0
C1053 C 0.90397 0.69278 0.97015 0.0
C1054 C 0.90582 0.71882 0.97653 0.0
C1055 C 0.932 0.74405 0.97416 0.0
C1056 C 0.9567 0.74293 0.96878 0.0
C1057 C 0.88194 0.71912 0.99027 0.0
C1058 C 0.86774 0.73156 0.97793 0.0
C1059 C 0.87316 0.70676 0.01563 0.0
C1060 C 0.88767 0.69333 0.02936 0.0
C1061 C 0.91697 0.7091 0.03492 0.0
C1062 C 0.93102 0.69568 0.04557 0.0
C1063 C 0.91588 0.66661 0.05126 0.0
C1064 C 0.88661 0.65094 0.04652 0.0
C1065 C 0.87251 0.66421 0.03562 0.0
H1066 H 0.92678 0.65629 0.0596 0.0
H1067 H 0.78659 0.77183 0.93643 0.0
H1068 H 0.32374 0.97761 0.39323 0.0
H1069 H 0.31317 0.96523 0.43967 0.0
H1070 H 0.29473 0.03328 0.45001 0.0
H1071 H 0.30453 0.04546 0.40295 0.0
H1072 H 0.32894 0.03129 0.48993 0.0
H1073 H 0.23985 0.96932 0.45117 0.0
H1074 H 0.20318 0.93322 0.42203 0.0
H1075 H 0.22712 0.87224 0.4463 0.0
H1076 H 0.26398 0.90799 0.47562 0.0
H1077 H 0.24136 0.93917 0.60967 0.0
H1078 H 0.24324 0.94907 0.56224 0.0
H1079 H 0.33294 0.97705 0.5615 0.0
H1080 H 0.33134 0.96764 0.60876 0.0
H1081 H 0.25719 0.93333 0.51732 0.0
H1082 H 0.36802 0.03617 0.52409 0.0
H1083 H 0.39667 0.0731 0.55695 0.0
H1084 H 0.32059 0.05607 0.59828 0.0
H1085 H 0.29147 0.01936 0.56547 0.0
C1086 C 0.31749 0.99009 0.40526 0.0
C1087 C 0.31488 0.01251 0.39419 0.0
C1088 C 0.31128 0.98281 0.43186 0.0
C1089 C 0.30273 0.99802 0.44825 0.0
C1090 C 0.30108 0.02111 0.43764 0.0
C1091 C 0.30684 0.02814 0.41078 0.0
C1092 C 0.29643 0.99005 0.47658 0.0
C1093 C 0.31322 0.0099 0.49591 0.0
C1094 C 0.2754 0.96235 0.4845 0.0
C1095 C 0.2548 0.9414 0.46547 0.0
C1096 C 0.23755 0.94833 0.45005 0.0
C1097 C 0.21657 0.92786 0.43368 0.0
C1098 C 0.21269 0.90041 0.43248 0.0
C1099 C 0.23004 0.89347 0.44739 0.0
C1100 C 0.25094 0.9138 0.46393 0.0
C1101 C 0.26133 0.94676 0.59928 0.0
C1102 C 0.28626 0.95285 0.6131 0.0
C1103 C 0.26241 0.95256 0.57217 0.0
C1104 C 0.28839 0.96454 0.55843 0.0
C1105 C 0.31279 0.96852 0.57179 0.0
C1106 C 0.31178 0.96289 0.59882 0.0
C1107 C 0.2905 0.97421 0.53055 0.0
C1108 C 0.27293 0.95471 0.51133 0.0
C1109 C 0.31026 0.00248 0.5228 0.0
C1110 C 0.3276 0.02482 0.54243 0.0
C1111 C 0.3574 0.0404 0.54012 0.0
C1112 C 0.37373 0.06128 0.55875 0.0
C1113 C 0.36047 0.06686 0.57973 0.0
C1114 C 0.33084 0.05166 0.58208 0.0
C1115 C 0.31443 0.03079 0.56348 0.0
H1116 H 0.37314 0.08302 0.59415 0.0
H1117 H 0.19631 0.88454 0.41993 0.0
H1118 H 0.29184 0.25465 0.95224 0.0
H1119 H 0.28279 0.25917 0.90567 0.0
H1120 H 0.35477 0.34451 0.90455 0.0
H1121 H 0.36319 0.34043 0.9513 0.0
H1122 H 0.31219 0.34551 0.88378 0.0
H1123 H 0.35306 0.28564 0.87149 0.0
H1124 H 0.35855 0.2436 0.87822 0.0
H1125 H 0.2734 0.18916 0.85027 0.0
H1126 H 0.26726 0.23086 0.8437 0.0
H1127 H 0.33159 0.36531 0.74368 0.0
H1128 H 0.33505 0.35905 0.79116 0.0
H1129 H 0.25093 0.28537 0.79055 0.0
H1130 H 0.24704 0.2919 0.74305 0.0
H1131 H 0.29561 0.27654 0.81215 0.0
H1132 H 0.2571 0.33853 0.82201 0.0
H1133 H 0.25384 0.38167 0.81411 0.0
H1134 H 0.33795 0.43352 0.84548 0.0
H1135 H 0.34188 0.3907 0.85322 0.0
C1136 C 0.3062 0.27409 0.94188 0.0
C1137 C 0.32829 0.29716 0.95547 0.0
C1138 C 0.30096 0.2767 0.9152 0.0
C1139 C 0.31808 0.30222 0.90142 0.0
C1140 C 0.34107 0.32469 0.91469 0.0
C1141 C 0.34603 0.32225 0.9414 0.0
C1142 C 0.31113 0.30631 0.87381 0.0
C1143 C 0.30898 0.33056 0.8681 0.0
C1144 C 0.306 0.28647 0.85335 0.0
C1145 C 0.30959 0.26135 0.85739 0.0
C1146 C 0.33541 0.26468 0.867 0.0
C1147 C 0.33866 0.24091 0.87074 0.0
C1148 C 0.3163 0.21372 0.86476 0.0
C1149 C 0.29068 0.21023 0.85495 0.0
C1150 C 0.28731 0.23393 0.8512 0.0
C1151 C 0.31351 0.34824 0.75379 0.0
C1152 C 0.28899 0.32917 0.73964 0.0
C1153 C 0.31555 0.34464 0.7809 0.0
C1154 C 0.29331 0.32165 0.79433 0.0
C1155 C 0.26834 0.30323 0.78052 0.0
C1156 C 0.26604 0.30716 0.75346 0.0
C1157 C 0.2972 0.31586 0.82226 0.0
C1158 C 0.29874 0.29133 0.82797 0.0
C1159 C 0.30214 0.3356 0.84264 0.0
C1160 C 0.29988 0.36141 0.83796 0.0
C1161 C 0.27501 0.35915 0.82699 0.0
C1162 C 0.27302 0.38354 0.82259 0.0
C1163 C 0.2957 0.41032 0.82923 0.0
C1164 C 0.3204 0.41276 0.84032 0.0
C1165 C 0.32252 0.38843 0.84474 0.0
H1166 H 0.29411 0.42918 0.82582 0.0
H1167 H 0.31887 0.19535 0.86765 0.0
H1168 H 0.04323 0.28585 0.28031 0.0
H1169 H 0.02959 0.27719 0.23367 0.0
H1170 H 0.02194 0.35264 0.23203 0.0
H1171 H 0.03473 0.36088 0.27868 0.0
H1172 H 0.97535 0.30986 0.21435 0.0
H1173 H 0.07474 0.34565 0.19795 0.0
H1174 H 0.12134 0.34835 0.20184 0.0
H1175 H 0.08517 0.26291 0.17258 0.0
H1176 H 0.03822 0.25951 0.16893 0.0
H1177 H 0.96406 0.32752 0.07682 0.0
H1178 H 0.97626 0.33014 0.12355 0.0
H1179 H 0.97045 0.24803 0.1183 0.0
H1180 H 0.95802 0.2452 0.07139 0.0
H1181 H 0.02147 0.28919 0.13969 0.0
H1182 H 0.92258 0.25462 0.15435 0.0
H1183 H 0.87659 0.25298 0.14913 0.0
H1184 H 0.91285 0.33753 0.18066 0.0
H1185 H 0.95919 0.33984 0.18574 0.0
C1186 C 0.03954 0.30109 0.26977 0.0
C1187 C 0.03998 0.32401 0.28323 0.0
C1188 C 0.03163 0.29606 0.24307 0.0
C1189 C 0.02449 0.31414 0.22925 0.0
C1190 C 0.02701 0.33818 0.24225 0.0
C1191 C 0.03455 0.34301 0.26891 0.0
C1192 C 0.01188 0.30683 0.20222 0.0
C1193 C 0.98571 0.30573 0.19799 0.0
C1194 C 0.0247 0.30031 0.18098 0.0
C1195 C 0.05284 0.30219 0.18354 0.0
C1196 C 0.07663 0.32731 0.19265 0.0
C1197 C 0.10313 0.32899 0.19475 0.0
C1198 C 0.10619 0.30577 0.18757 0.0
C1199 C 0.08275 0.28085 0.17822 0.0
C1200 C 0.05619 0.27903 0.17614 0.0
C1201 C 0.96453 0.30962 0.08578 0.0
C1202 C 0.95991 0.28608 0.07042 0.0
C1203 C 0.97159 0.31118 0.11251 0.0
C1204 C 0.97434 0.28931 0.12444 0.0
C1205 C 0.96845 0.26515 0.10949 0.0
C1206 C 0.961 0.26341 0.08276 0.0
C1207 C 0.9854 0.29288 0.15189 0.0
C1208 C 0.01114 0.29317 0.15619 0.0
C1209 C 0.97231 0.2988 0.1732 0.0
C1210 C 0.94444 0.29748 0.17023 0.0
C1211 C 0.92082 0.27296 0.15998 0.0
C1212 C 0.89467 0.27189 0.15708 0.0
C1213 C 0.89181 0.29516 0.16451 0.0
C1214 C 0.9151 0.31952 0.1749 0.0
C1215 C 0.9413 0.32071 0.17783 0.0
H1216 H 0.87155 0.29429 0.16225 0.0
H1217 H 0.12673 0.30714 0.18917 0.0
H1218 H 0.63426 0.97054 0.40786 0.0
H1219 H 0.64455 0.98687 0.45362 0.0
H1220 H 0.71906 0.97758 0.45226 0.0
H1221 H 0.708 0.95987 0.40684 0.0
H1222 H 0.69883 0.96723 0.49976 0.0
H1223 H 0.72272 0.04275 0.43926 0.0
H1224 H 0.71541 0.06856 0.4028 0.0
H1225 H 0.64988 0.07224 0.44732 0.0
H1226 H 0.65654 0.04609 0.48393 0.0
H1227 H 0.75943 0.05847 0.60964 0.0
H1228 H 0.75536 0.04731 0.56238 0.0
H1229 H 0.67022 0.03444 0.56208 0.0
H1230 H 0.67407 0.04547 0.60919 0.0
H1231 H 0.70112 0.05886 0.5146 0.0
H1232 H 0.68174 0.98254 0.57666 0.0
H1233 H 0.69732 0.96331 0.613 0.0
H1234 H 0.76221 0.9648 0.56329 0.0
H1235 H 0.74821 0.98577 0.52713 0.0
C1236 C 0.65233 0.97113 0.4176 0.0
C1237 C 0.67037 0.96403 0.40371 0.0
C1238 C 0.65842 0.98081 0.44367 0.0
C1239 C 0.6832 0.98449 0.45615 0.0
C1240 C 0.69999 0.97524 0.44304 0.0
C1241 C 0.69355 0.96495 0.41708 0.0
C1242 C 0.69248 0.99974 0.48197 0.0
C1243 C 0.69964 0.98741 0.50285 0.0
C1244 C 0.69393 0.02633 0.48612 0.0
C1245 C 0.68996 0.04224 0.46424 0.0
C1246 C 0.70663 0.04891 0.44121 0.0
C1247 C 0.70261 0.06361 0.42052 0.0
C1248 C 0.68215 0.07197 0.42272 0.0
C1249 C 0.66571 0.06571 0.44564 0.0
C1250 C 0.66961 0.05097 0.46638 0.0
C1251 C 0.74026 0.05435 0.59931 0.0
C1252 C 0.71693 0.05254 0.61323 0.0
C1253 C 0.73789 0.04777 0.57232 0.0
C1254 C 0.71225 0.03945 0.55888 0.0
C1255 C 0.69011 0.0406 0.57211 0.0
C1256 C 0.69235 0.04691 0.59906 0.0
C1257 C 0.70687 0.02607 0.53233 0.0
C1258 C 0.70043 0.03875 0.51135 0.0
C1259 C 0.70686 1.00023 0.52795 0.0
C1260 C 0.71416 0.98612 0.54926 0.0
C1261 C 0.69951 0.97904 0.57352 0.0
C1262 C 0.70812 0.96791 0.59413 0.0
C1263 C 0.73066 0.96272 0.59043 0.0
C1264 C 0.74475 0.96883 0.56614 0.0
C1265 C 0.73662 0.98055 0.54564 0.0
H1266 H 0.73721 0.95399 0.60639 0.0
H1267 H 0.67906 0.08335 0.40668 0.0
H1268 H 0.64229 0.65943 0.95206 0.0
H1269 H 0.65071 0.65463 0.90547 0.0
H1270 H 0.71274 0.74413 0.90191 0.0
H1271 H 0.70383 0.74922 0.94853 0.0
H1272 H 0.68426 0.72752 0.8565 0.0
H1273 H 0.73407 0.69496 0.91019 0.0
H1274 H 0.74057 0.6677 0.94583 0.0
H1275 H 0.68041 0.58939 0.90847 0.0
H1276 H 0.67326 0.61617 0.87278 0.0
H1277 H 0.75071 0.71031 0.74086 0.0
H1278 H 0.74618 0.71798 0.78796 0.0
H1279 H 0.66755 0.63796 0.7915 0.0
H1280 H 0.67147 0.63055 0.74426 0.0
H1281 H 0.70887 0.65261 0.83703 0.0
H1282 H 0.65843 0.68843 0.78428 0.0
H1283 H 0.65487 0.71781 0.74897 0.0
H1284 H 0.72166 0.79327 0.78519 0.0
H1285 H 0.7259 0.76423 0.82054 0.0
C1286 C 0.65725 0.67825 0.94123 0.0
C1287 C 0.67247 0.70469 0.95405 0.0
C1288 C 0.66225 0.67543 0.91462 0.0
C1289 C 0.68297 0.69884 0.90033 0.0
C1290 C 0.69682 0.72569 0.91256 0.0
C1291 C 0.69157 0.72861 0.93919 0.0
C1292 C 0.69102 0.69481 0.87317 0.0
C1293 C 0.69004 0.71142 0.85237 0.0
C1294 C 0.69862 0.67381 0.86761 0.0
C1295 C 0.70294 0.65758 0.88894 0.0
C1296 C 0.72208 0.67193 0.90969 0.0
C1297 C 0.72591 0.65657 0.92987 0.0
C1298 C 0.71086 0.62685 0.92945 0.0
C1299 C 0.69202 0.61242 0.90879 0.0
C1300 C 0.6881 0.62767 0.88856 0.0
C1301 C 0.73289 0.69396 0.75184 0.0
C1302 C 0.71148 0.66976 0.73889 0.0
C1303 C 0.73022 0.6985 0.77868 0.0
C1304 C 0.70642 0.67864 0.7931 0.0
C1305 C 0.68606 0.65353 0.78069 0.0
C1306 C 0.68836 0.64929 0.75374 0.0
C1307 C 0.70155 0.68492 0.82053 0.0
C1308 C 0.70325 0.6688 0.84132 0.0
C1309 C 0.69515 0.70669 0.82613 0.0
C1310 C 0.6927 0.72414 0.80487 0.0
C1311 C 0.67257 0.71125 0.78456 0.0
C1312 C 0.67037 0.72784 0.76458 0.0
C1313 C 0.68803 0.75737 0.76484 0.0
C1314 C 0.70798 0.77038 0.78504 0.0
C1315 C 0.71029 0.75387 0.80505 0.0
H1316 H 0.68619 0.77018 0.74944 0.0
H1317 H 0.71385 0.615 0.9451 0.0
H1318 H 0.00595 0.66482 0.28579 0.0
H1319 H 0.01601 0.67555 0.239 0.0
H1320 H 0.96935 0.72073 0.23973 0.0
H1321 H 0.95881 0.70971 0.28679 0.0
H1322 H 0.95695 0.69008 0.1968 0.0
H1323 H 0.04526 0.76113 0.23376 0.0
H1324 H 0.08849 0.78211 0.26143 0.0
H1325 H 0.11164 0.72317 0.22945 0.0
H1326 H 0.06914 0.70257 0.20079 0.0
H1327 H 0.05834 0.75718 0.07396 0.0
H1328 H 0.04962 0.75729 0.12157 0.0
H1329 H 0.98703 0.66801 0.11804 0.0
H1330 H 0.99547 0.66765 0.07091 0.0
H1331 H 0.05541 0.72988 0.16271 0.0
H1332 H 0.93243 0.65279 0.15873 0.0
H1333 H 0.89118 0.64345 0.13111 0.0
H1334 H 0.938 0.72764 0.09858 0.0
H1335 H 0.9795 0.73749 0.12597 0.0
C1336 C 0.99756 0.67684 0.27603 0.0
C1337 C 0.98144 0.68629 0.29014 0.0
C1338 C 0.00366 0.68327 0.24926 0.0
C1339 C 0.99404 0.69953 0.23587 0.0
C1340 C 0.9772 0.70832 0.24964 0.0
C1341 C 0.971 0.70181 0.27652 0.0
C1342 C 0.00084 0.70634 0.20731 0.0
C1343 C 0.97849 0.69882 0.18937 0.0
C1344 C 0.02902 0.71869 0.19752 0.0
C1345 C 0.05393 0.73014 0.21538 0.0
C1346 C 0.05947 0.75251 0.2328 0.0
C1347 C 0.08387 0.76439 0.24858 0.0
C1348 C 0.10256 0.75371 0.2475 0.0
C1349 C 0.09708 0.73134 0.23036 0.0
C1350 C 0.07298 0.71972 0.21418 0.0
C1351 C 0.04293 0.73752 0.08338 0.0
C1352 C 0.02768 0.71242 0.06849 0.0
C1353 C 0.03787 0.73764 0.11059 0.0
C1354 C 0.01726 0.71277 0.12334 0.0
C1355 C 0.00259 0.68761 0.10862 0.0
C1356 C 0.00771 0.68742 0.0816 0.0
C1357 C 0.01136 0.71258 0.15213 0.0
C1358 C 0.03387 0.72125 0.17011 0.0
C1359 C 0.98341 0.70219 0.16198 0.0
C1360 C 0.95913 0.69579 0.1443 0.0
C1361 C 0.93395 0.66927 0.14561 0.0
C1362 C 0.91052 0.6639 0.13001 0.0
C1363 C 0.91194 0.68499 0.1132 0.0
C1364 C 0.93693 0.71134 0.11164 0.0
C1365 C 0.96048 0.71676 0.12707 0.0
H1366 H 0.89368 0.6809 0.10133 0.0
H1367 H 0.12138 0.7629 0.25981 0.0
loop_
_geom_bond_atom_site_label_1
_geom_bond_atom_site_label_2
_geom_bond_distance
_geom_bond_site_symmetry_2
_ccdc_geom_bond_type
O0 Cd1 2.223 . S
O0 C8 1.315 1_545 S
Cd1 O0 2.223 . S
Cd1 O4 2.297 . S
Cd1 O5 2.439 . S
Cd1 O11 2.240 . S
Cd2 O3 2.240 . S
Cd2 O10 2.223 . S
Cd2 O12 2.297 . S
Cd2 O13 2.439 1_565 S
O3 Cd2 2.240 . S
O3 C8 1.279 . S
O4 Cd1 2.297 . S
O4 C6 1.247 . S
O5 Cd1 2.439 . S
O5 C6 1.208 . S
C6 O4 1.247 . S
C6 O5 1.208 . S
C7 O12 1.247 1_545 S
C7 O13 1.208 . S
C8 O0 1.315 1_565 S
C8 O3 1.279 . S
C9 O10 1.315 1_545 S
C9 O11 1.279 . S
O10 Cd2 2.223 . S
O10 C9 1.315 1_565 S
O11 Cd1 2.240 . S
O11 C9 1.279 . S
O12 Cd2 2.297 . S
O12 C7 1.247 1_565 S
O13 Cd2 2.439 1_545 S
O13 C7 1.208 . S
O14 Cd15 2.223 . S
O14 C22 1.315 . S
Cd15 O14 2.223 . S
Cd15 O18 2.297 . S
Cd15 O19 2.439 . S
Cd15 O25 2.240 . S
Cd16 O17 2.240 . S
Cd16 O24 2.223 . S
Cd16 O26 2.297 . S
Cd16 O27 2.439 . S
O17 Cd16 2.240 . S
O17 C22 1.279 . S
O18 Cd15 2.297 . S
O18 C20 1.247 . S
O19 Cd15 2.439 . S
O19 C20 1.208 . S
C20 O18 1.247 . S
C20 O19 1.208 . S
C21 O26 1.247 . S
C21 O27 1.208 . S
C22 O14 1.315 . S
C22 O17 1.279 . S
C23 O24 1.315 . S
C23 O25 1.279 . S
O24 Cd16 2.223 . S
O24 C23 1.315 . S
O25 Cd15 2.240 . S
O25 C23 1.279 . S
O26 Cd16 2.297 . S
O26 C21 1.247 . S
O27 Cd16 2.439 . S
O27 C21 1.208 . S
O28 Cd29 2.223 1_554 S
O28 C36 1.315 1_654 S
Cd29 O28 2.223 1_556 S
Cd29 O32 2.297 . S
Cd29 O33 2.439 . S
Cd29 O39 2.240 1_556 S
Cd30 O31 2.240 . S
Cd30 O38 2.223 1_556 S
Cd30 O40 2.298 1_556 S
Cd30 O41 2.439 1_455 S
O31 Cd30 2.240 . S
O31 C36 1.279 . S
O32 Cd29 2.297 . S
O32 C34 1.247 . S
O33 Cd29 2.439 . S
O33 C34 1.208 . S
C34 O32 1.247 . S
C34 O33 1.208 . S
C35 O40 1.246 1_656 S
C35 O41 1.208 . S
C36 O28 1.315 1_456 S
C36 O31 1.279 . S
C37 O38 1.315 1_655 S
C37 O39 1.279 . S
O38 Cd30 2.223 1_554 S
O38 C37 1.315 1_455 S
O39 Cd29 2.240 1_554 S
O39 C37 1.279 . S
O40 Cd30 2.298 1_554 S
O40 C35 1.246 1_454 S
O41 Cd30 2.439 1_655 S
O41 C35 1.208 . S
O42 Cd43 2.223 . S
O42 C50 1.315 1_565 S
Cd43 O42 2.223 . S
Cd43 O46 2.297 . S
Cd43 O47 2.439 . S
Cd43 O53 2.240 . S
Cd44 O45 2.240 . S
Cd44 O52 2.223 . S
Cd44 O54 2.297 . S
Cd44 O55 2.439 1_545 S
O45 Cd44 2.240 . S
O45 C50 1.279 . S
O46 Cd43 2.297 . S
O46 C48 1.247 . S
O47 Cd43 2.439 . S
O47 C48 1.208 . S
C48 O46 1.247 . S
C48 O47 1.208 . S
C49 O54 1.247 1_565 S
C49 O55 1.208 . S
C50 O42 1.315 1_545 S
C50 O45 1.279 . S
C51 O52 1.315 1_565 S
C51 O53 1.279 . S
O52 Cd44 2.223 . S
O52 C51 1.315 1_545 S
O53 Cd43 2.240 . S
O53 C51 1.279 . S
O54 Cd44 2.297 . S
O54 C49 1.247 1_545 S
O55 Cd44 2.439 1_565 S
O55 C49 1.208 . S
O56 Cd57 2.223 . S
O56 C64 1.315 . S
Cd57 O56 2.223 . S
Cd57 O60 2.297 . S
Cd57 O61 2.439 . S
Cd57 O67 2.240 . S
Cd58 O59 2.240 . S
Cd58 O66 2.223 . S
Cd58 O68 2.297 . S
Cd58 O69 2.439 . S
O59 Cd58 2.240 . S
O59 C64 1.279 . S
O60 Cd57 2.297 . S
O60 C62 1.247 . S
O61 Cd57 2.439 . S
O61 C62 1.208 . S
C62 O60 1.247 . S
C62 O61 1.208 . S
C63 O68 1.247 . S
C63 O69 1.208 . S
C64 O56 1.315 . S
C64 O59 1.279 . S
C65 O66 1.315 . S
C65 O67 1.279 . S
O66 Cd58 2.223 . S
O66 C65 1.315 . S
O67 Cd57 2.240 . S
O67 C65 1.279 . S
O68 Cd58 2.297 . S
O68 C63 1.247 . S
O69 Cd58 2.439 . S
O69 C63 1.208 . S
O70 Cd71 2.223 1_554 S
O70 C78 1.315 1_454 S
Cd71 O70 2.223 1_556 S
Cd71 O74 2.297 . S
Cd71 O75 2.439 . S
Cd71 O81 2.240 1_556 S
Cd72 O73 2.240 . S
Cd72 O80 2.223 1_556 S
Cd72 O82 2.298 1_556 S
Cd72 O83 2.439 1_655 S
O73 Cd72 2.240 . S
O73 C78 1.279 . S
O74 Cd71 2.297 . S
O74 C76 1.247 . S
O75 Cd71 2.439 . S
O75 C76 1.208 . S
C76 O74 1.247 . S
C76 O75 1.208 . S
C77 O82 1.246 1_456 S
C77 O83 1.208 . S
C78 O70 1.315 1_656 S
C78 O73 1.279 . S
C79 O80 1.315 1_455 S
C79 O81 1.279 . S
O80 Cd72 2.223 1_554 S
O80 C79 1.315 1_655 S
O81 Cd71 2.240 1_554 S
O81 C79 1.279 . S
O82 Cd72 2.298 1_554 S
O82 C77 1.246 1_654 S
O83 Cd72 2.439 1_455 S
O83 C77 1.208 . S
O84 Cd85 2.223 . S
O84 C92 1.315 1_655 S
Cd85 O84 2.223 . S
Cd85 O88 2.297 . S
Cd85 O89 2.439 . S
Cd85 O95 2.240 . S
Cd86 O87 2.240 . S
Cd86 O94 2.223 . S
Cd86 O96 2.297 . S
Cd86 O97 2.439 1_455 S
O87 Cd86 2.240 . S
O87 C92 1.279 . S
O88 Cd85 2.297 . S
O88 C90 1.247 . S
O89 Cd85 2.439 . S
O89 C90 1.208 . S
C90 O88 1.247 . S
C90 O89 1.208 . S
C91 O96 1.247 1_655 S
C91 O97 1.208 . S
C92 O84 1.315 1_455 S
C92 O87 1.279 . S
C93 O94 1.315 1_655 S
C93 O95 1.279 . S
O94 Cd86 2.223 . S
O94 C93 1.315 1_455 S
O95 Cd85 2.240 . S
O95 C93 1.279 . S
O96 Cd86 2.297 . S
O96 C91 1.247 1_455 S
O97 Cd86 2.439 1_655 S
O97 C91 1.208 . S
O98 Cd99 2.223 . S
O98 C106 1.315 1_565 S
Cd99 O98 2.223 . S
Cd99 O102 2.297 . S
Cd99 O103 2.439 . S
Cd99 O109 2.240 . S
Cd100 O101 2.240 . S
Cd100 O108 2.223 . S
Cd100 O110 2.298 . S
Cd100 O111 2.439 1_545 S
O101 Cd100 2.240 . S
O101 C106 1.279 . S
O102 Cd99 2.297 . S
O102 C104 1.247 . S
O103 Cd99 2.439 . S
O103 C104 1.208 . S
C104 O102 1.247 . S
C104 O103 1.208 . S
C105 O110 1.246 1_565 S
C105 O111 1.208 . S
C106 O98 1.315 1_545 S
C106 O101 1.279 . S
C107 O108 1.315 1_565 S
C107 O109 1.279 . S
O108 Cd100 2.223 . S
O108 C107 1.315 1_545 S
O109 Cd99 2.240 . S
O109 C107 1.279 . S
O110 Cd100 2.298 . S
O110 C105 1.246 1_545 S
O111 Cd100 2.439 1_565 S
O111 C105 1.208 . S
O112 Cd113 2.223 . S
O112 C120 1.315 . S
Cd113 O112 2.223 . S
Cd113 O116 2.297 . S
Cd113 O117 2.439 . S
Cd113 O123 2.240 1_554 S
Cd114 O115 2.240 . S
Cd114 O122 2.223 1_554 S
Cd114 O124 2.297 1_554 S
Cd114 O125 2.439 . S
O115 Cd114 2.240 . S
O115 C120 1.279 . S
O116 Cd113 2.297 . S
O116 C118 1.247 . S
O117 Cd113 2.439 . S
O117 C118 1.208 . S
C118 O116 1.247 . S
C118 O117 1.208 . S
C119 O124 1.247 1_554 S
C119 O125 1.208 . S
C120 O112 1.315 . S
C120 O115 1.279 . S
C121 O122 1.315 . S
C121 O123 1.279 . S
O122 Cd114 2.223 1_556 S
O122 C121 1.315 . S
O123 Cd113 2.240 1_556 S
O123 C121 1.279 . S
O124 Cd114 2.297 1_556 S
O124 C119 1.247 1_556 S
O125 Cd114 2.439 . S
O125 C119 1.208 . S
O126 Cd127 2.223 . S
O126 C134 1.315 1_455 S
Cd127 O126 2.223 . S
Cd127 O130 2.297 . S
Cd127 O131 2.439 . S
Cd127 O137 2.240 . S
Cd128 O129 2.240 . S
Cd128 O136 2.223 . S
Cd128 O138 2.297 . S
Cd128 O139 2.439 1_655 S
O129 Cd128 2.240 . S
O129 C134 1.279 . S
O130 Cd127 2.297 . S
O130 C132 1.247 . S
O131 Cd127 2.439 . S
O131 C132 1.208 . S
C132 O130 1.247 . S
C132 O131 1.208 . S
C133 O138 1.247 1_455 S
C133 O139 1.208 . S
C134 O126 1.315 1_655 S
C134 O129 1.279 . S
C135 O136 1.315 1_455 S
C135 O137 1.279 . S
O136 Cd128 2.223 . S
O136 C135 1.315 1_655 S
O137 Cd127 2.240 . S
O137 C135 1.279 . S
O138 Cd128 2.297 . S
O138 C133 1.247 1_655 S
O139 Cd128 2.439 1_455 S
O139 C133 1.208 . S
O140 Cd141 2.223 . S
O140 C148 1.315 1_545 S
Cd141 O140 2.223 . S
Cd141 O144 2.297 . S
Cd141 O145 2.439 . S
Cd141 O151 2.240 . S
Cd142 O143 2.240 . S
Cd142 O150 2.223 . S
Cd142 O152 2.298 . S
Cd142 O153 2.439 1_565 S
O143 Cd142 2.240 . S
O143 C148 1.279 . S
O144 Cd141 2.297 . S
O144 C146 1.247 . S
O145 Cd141 2.439 . S
O145 C146 1.208 . S
C146 O144 1.247 . S
C146 O145 1.208 . S
C147 O152 1.246 1_545 S
C147 O153 1.208 . S
C148 O140 1.315 1_565 S
C148 O143 1.279 . S
C149 O150 1.315 1_545 S
C149 O151 1.279 . S
O150 Cd142 2.223 . S
O150 C149 1.315 1_565 S
O151 Cd141 2.240 . S
O151 C149 1.279 . S
O152 Cd142 2.298 . S
O152 C147 1.246 1_565 S
O153 Cd142 2.439 1_545 S
O153 C147 1.208 . S
O154 Cd155 2.223 . S
O154 C162 1.315 . S
Cd155 O154 2.223 . S
Cd155 O158 2.297 . S
Cd155 O159 2.439 . S
Cd155 O165 2.240 1_554 S
Cd156 O157 2.240 . S
Cd156 O164 2.223 1_554 S
Cd156 O166 2.297 1_554 S
Cd156 O167 2.439 . S
O157 Cd156 2.240 . S
O157 C162 1.279 . S
O158 Cd155 2.297 . S
O158 C160 1.247 . S
O159 Cd155 2.439 . S
O159 C160 1.208 . S
C160 O158 1.247 . S
C160 O159 1.208 . S
C161 O166 1.247 1_554 S
C161 O167 1.208 . S
C162 O154 1.315 . S
C162 O157 1.279 . S
C163 O164 1.315 . S
C163 O165 1.279 . S
O164 Cd156 2.223 1_556 S
O164 C163 1.315 . S
O165 Cd155 2.240 1_556 S
O165 C163 1.279 . S
O166 Cd156 2.297 1_556 S
O166 C161 1.247 1_556 S
O167 Cd156 2.439 . S
O167 C161 1.208 . S
H168 C186 0.951 . S
H169 C188 0.951 . S
H170 C190 0.950 . S
H171 C191 0.950 . S
H172 C193 0.950 . S
H173 C196 0.950 . S
H174 C197 0.950 . S
H175 C199 0.950 . S
H176 C200 0.950 . S
H177 C201 0.951 . S
H178 C203 0.951 . S
H179 C205 0.950 . S
H180 C206 0.950 . S
H181 C208 0.950 . S
H182 C211 0.950 . S
H183 C212 0.950 . S
H184 C214 0.950 . S
H185 C215 0.950 . S
C186 H168 0.951 . S
C186 C187 1.366 . S
C186 C188 1.388 . S
C187 C186 1.366 . S
C187 C191 1.385 . S
C188 H169 0.951 . S
C188 C186 1.388 . S
C188 C189 1.366 . S
C189 C188 1.366 . S
C189 C190 1.414 . S
C189 C192 1.499 . S
C190 H170 0.950 . S
C190 C189 1.414 . S
C190 C191 1.374 . S
C191 H171 0.950 . S
C191 C187 1.385 . S
C191 C190 1.374 . S
C192 C189 1.499 . S
C192 C193 1.373 . S
C192 C194 1.389 . S
C193 H172 0.950 . S
C193 C192 1.373 . S
C193 C209 1.377 . S
C194 C192 1.389 . S
C194 C195 1.524 . S
C194 C208 1.377 . S
C195 C194 1.524 . S
C195 C196 1.397 . S
C195 C200 1.363 . S
C196 H173 0.950 . S
C196 C195 1.397 . S
C196 C197 1.334 . S
C197 H174 0.950 . S
C197 C196 1.334 . S
C197 C198 1.287 . S
C198 C197 1.287 . S
C198 C199 1.524 . S
C198 H217 0.913 . S
C199 H175 0.950 . S
C199 C198 1.524 . S
C199 C200 1.415 . S
C200 H176 0.950 . S
C200 C195 1.363 . S
C200 C199 1.415 . S
C201 H177 0.951 . S
C201 C202 1.366 . S
C201 C203 1.388 . S
C202 C201 1.366 . S
C202 C206 1.385 . S
C203 H178 0.951 . S
C203 C201 1.388 . S
C203 C204 1.366 . S
C204 C203 1.366 . S
C204 C205 1.414 . S
C204 C207 1.499 . S
C205 H179 0.950 . S
C205 C204 1.414 . S
C205 C206 1.374 . S
C206 H180 0.950 . S
C206 C202 1.385 . S
C206 C205 1.374 . S
C207 C204 1.499 . S
C207 C208 1.373 . S
C207 C209 1.389 . S
C208 H181 0.950 . S
C208 C194 1.377 . S
C208 C207 1.373 . S
C209 C193 1.377 . S
C209 C207 1.389 . S
C209 C210 1.524 . S
C210 C209 1.524 . S
C210 C211 1.397 . S
C210 C215 1.363 . S
C211 H182 0.950 . S
C211 C210 1.397 . S
C211 C212 1.334 . S
C212 H183 0.950 . S
C212 C211 1.334 . S
C212 C213 1.287 . S
C213 C212 1.287 . S
C213 C214 1.524 . S
C213 H216 0.999 . S
C214 H184 0.950 . S
C214 C213 1.524 . S
C214 C215 1.415 . S
C215 H185 0.950 . S
C215 C210 1.363 . S
C215 C214 1.415 . S
H216 C213 0.999 . S
H217 C198 0.913 . S
H218 C236 0.951 . S
H219 C238 0.951 . S
H220 C240 0.950 . S
H221 C241 0.950 . S
H222 C243 0.950 . S
H223 C246 0.950 . S
H224 C247 0.950 . S
H225 C249 0.950 . S
H226 C250 0.950 . S
H227 C251 0.951 . S
H228 C253 0.951 . S
H229 C255 0.950 . S
H230 C256 0.950 . S
H231 C258 0.950 . S
H232 C261 0.950 . S
H233 C262 0.950 . S
H234 C264 0.950 . S
H235 C265 0.950 . S
C236 H218 0.951 . S
C236 C237 1.366 . S
C236 C238 1.388 . S
C237 C236 1.366 . S
C237 C241 1.385 . S
C238 H219 0.951 . S
C238 C236 1.388 . S
C238 C239 1.366 . S
C239 C238 1.366 . S
C239 C240 1.414 . S
C239 C242 1.499 . S
C240 H220 0.950 . S
C240 C239 1.414 . S
C240 C241 1.374 . S
C241 H221 0.950 . S
C241 C237 1.385 . S
C241 C240 1.374 . S
C242 C239 1.499 . S
C242 C243 1.373 . S
C242 C244 1.389 . S
C243 H222 0.950 . S
C243 C242 1.373 . S
C243 C259 1.377 . S
C244 C242 1.389 . S
C244 C245 1.524 . S
C244 C258 1.377 . S
C245 C244 1.524 . S
C245 C246 1.397 . S
C245 C250 1.363 . S
C246 H223 0.950 . S
C246 C245 1.397 . S
C246 C247 1.334 . S
C247 H224 0.950 . S
C247 C246 1.334 . S
C247 C248 1.287 . S
C248 C247 1.287 . S
C248 C249 1.524 . S
C248 H267 0.913 . S
C249 H225 0.950 . S
C249 C248 1.524 . S
C249 C250 1.415 . S
C250 H226 0.950 . S
C250 C245 1.363 . S
C250 C249 1.415 . S
C251 H227 0.951 . S
C251 C252 1.366 . S
C251 C253 1.388 . S
C252 C251 1.366 . S
C252 C256 1.385 . S
C253 H228 0.951 . S
C253 C251 1.388 . S
C253 C254 1.366 . S
C254 C253 1.366 . S
C254 C255 1.414 . S
C254 C257 1.499 . S
C255 H229 0.950 . S
C255 C254 1.414 . S
C255 C256 1.374 . S
C256 H230 0.950 . S
C256 C252 1.385 . S
C256 C255 1.374 . S
C257 C254 1.499 . S
C257 C258 1.373 . S
C257 C259 1.389 . S
C258 H231 0.950 . S
C258 C244 1.377 . S
C258 C257 1.373 . S
C259 C243 1.377 . S
C259 C257 1.389 . S
C259 C260 1.524 . S
C260 C259 1.524 . S
C260 C261 1.397 . S
C260 C265 1.363 . S
C261 H232 0.950 . S
C261 C260 1.397 . S
C261 C262 1.334 . S
C262 H233 0.950 . S
C262 C261 1.334 . S
C262 C263 1.287 . S
C263 C262 1.287 . S
C263 C264 1.524 . S
C263 H266 0.999 . S
C264 H234 0.950 . S
C264 C263 1.524 . S
C264 C265 1.415 . S
C265 H235 0.950 . S
C265 C260 1.363 . S
C265 C264 1.415 . S
H266 C263 0.999 . S
H267 C248 0.913 . S
H268 C286 0.951 . S
H269 C288 0.951 . S
H270 C290 0.950 . S
H271 C291 0.950 . S
H272 C293 0.950 . S
H273 C296 0.950 . S
H274 C297 0.950 . S
H275 C299 0.950 . S
H276 C300 0.950 . S
H277 C301 0.951 . S
H278 C303 0.951 . S
H279 C305 0.950 . S
H280 C306 0.950 . S
H281 C308 0.950 . S
H282 C311 0.950 . S
H283 C312 0.950 . S
H284 C314 0.950 . S
H285 C315 0.950 . S
C286 H268 0.951 . S
C286 C287 1.366 . S
C286 C288 1.388 . S
C287 C286 1.366 . S
C287 C291 1.385 . S
C288 H269 0.951 . S
C288 C286 1.388 . S
C288 C289 1.366 . S
C289 C288 1.366 . S
C289 C290 1.414 . S
C289 C292 1.499 . S
C290 H270 0.950 . S
C290 C289 1.414 . S
C290 C291 1.374 . S
C291 H271 0.950 . S
C291 C287 1.385 . S
C291 C290 1.374 . S
C292 C289 1.499 . S
C292 C293 1.373 . S
C292 C294 1.389 . S
C293 H272 0.950 . S
C293 C292 1.373 . S
C293 C309 1.377 . S
C294 C292 1.389 . S
C294 C295 1.524 . S
C294 C308 1.377 . S
C295 C294 1.524 . S
C295 C296 1.397 . S
C295 C300 1.363 . S
C296 H273 0.950 . S
C296 C295 1.397 . S
C296 C297 1.334 . S
C297 H274 0.950 . S
C297 C296 1.334 . S
C297 C298 1.287 . S
C298 C297 1.287 . S
C298 C299 1.524 . S
C298 H317 0.913 . S
C299 H275 0.950 . S
C299 C298 1.524 . S
C299 C300 1.415 . S
C300 H276 0.950 . S
C300 C295 1.363 . S
C300 C299 1.415 . S
C301 H277 0.951 . S
C301 C302 1.366 . S
C301 C303 1.388 . S
C302 C301 1.366 . S
C302 C306 1.385 . S
C303 H278 0.951 . S
C303 C301 1.388 . S
C303 C304 1.366 . S
C304 C303 1.366 . S
C304 C305 1.414 . S
C304 C307 1.499 . S
C305 H279 0.950 . S
C305 C304 1.414 . S
C305 C306 1.374 . S
C306 H280 0.950 . S
C306 C302 1.385 . S
C306 C305 1.374 . S
C307 C304 1.499 . S
C307 C308 1.373 . S
C307 C309 1.389 . S
C308 H281 0.950 . S
C308 C294 1.377 . S
C308 C307 1.373 . S
C309 C293 1.377 . S
C309 C307 1.389 . S
C309 C310 1.524 . S
C310 C309 1.524 . S
C310 C311 1.397 . S
C310 C315 1.363 . S
C311 H282 0.950 . S
C311 C310 1.397 . S
C311 C312 1.334 . S
C312 H283 0.950 . S
C312 C311 1.334 . S
C312 C313 1.287 . S
C313 C312 1.287 . S
C313 C314 1.524 . S
C313 H316 0.999 . S
C314 H284 0.950 . S
C314 C313 1.524 . S
C314 C315 1.415 . S
C315 H285 0.950 . S
C315 C310 1.363 . S
C315 C314 1.415 . S
H316 C313 0.999 . S
H317 C298 0.913 . S
H318 C336 0.951 . S
H319 C338 0.951 . S
H320 C340 0.950 . S
H321 C341 0.950 . S
H322 C343 0.950 . S
H323 C346 0.950 . S
H324 C347 0.950 . S
H325 C349 0.950 . S
H326 C350 0.950 . S
H327 C351 0.951 . S
H328 C353 0.951 . S
H329 C355 0.950 . S
H330 C356 0.950 . S
H331 C358 0.950 . S
H332 C361 0.950 . S
H333 C362 0.950 . S
H334 C364 0.950 . S
H335 C365 0.950 . S
C336 H318 0.951 . S
C336 C337 1.366 . S
C336 C338 1.388 . S
C337 C336 1.366 . S
C337 C341 1.385 . S
C338 H319 0.951 . S
C338 C336 1.388 . S
C338 C339 1.366 . S
C339 C338 1.366 . S
C339 C340 1.414 . S
C339 C342 1.499 . S
C340 H320 0.950 . S
C340 C339 1.414 . S
C340 C341 1.374 . S
C341 H321 0.950 . S
C341 C337 1.385 . S
C341 C340 1.374 . S
C342 C339 1.499 . S
C342 C343 1.373 . S
C342 C344 1.389 . S
C343 H322 0.950 . S
C343 C342 1.373 . S
C343 C359 1.377 . S
C344 C342 1.389 . S
C344 C345 1.524 . S
C344 C358 1.377 . S
C345 C344 1.524 . S
C345 C346 1.397 . S
C345 C350 1.363 . S
C346 H323 0.950 . S
C346 C345 1.397 . S
C346 C347 1.334 . S
C347 H324 0.950 . S
C347 C346 1.334 . S
C347 C348 1.287 . S
C348 C347 1.287 . S
C348 C349 1.524 . S
C348 H367 0.913 . S
C349 H325 0.950 . S
C349 C348 1.524 . S
C349 C350 1.415 . S
C350 H326 0.950 . S
C350 C345 1.363 . S
C350 C349 1.415 . S
C351 H327 0.951 . S
C351 C352 1.366 . S
C351 C353 1.388 . S
C352 C351 1.366 . S
C352 C356 1.385 . S
C353 H328 0.951 . S
C353 C351 1.388 . S
C353 C354 1.366 . S
C354 C353 1.366 . S
C354 C355 1.414 . S
C354 C357 1.499 . S
C355 H329 0.950 . S
C355 C354 1.414 . S
C355 C356 1.374 . S
C356 H330 0.950 . S
C356 C352 1.385 . S
C356 C355 1.374 . S
C357 C354 1.499 . S
C357 C358 1.373 . S
C357 C359 1.389 . S
C358 H331 0.950 . S
C358 C344 1.377 . S
C358 C357 1.373 . S
C359 C343 1.377 . S
C359 C357 1.389 . S
C359 C360 1.524 . S
C360 C359 1.524 . S
C360 C361 1.397 . S
C360 C365 1.363 . S
C361 H332 0.950 . S
C361 C360 1.397 . S
C361 C362 1.334 . S
C362 H333 0.950 . S
C362 C361 1.334 . S
C362 C363 1.287 . S
C363 C362 1.287 . S
C363 C364 1.524 . S
C363 H366 0.999 . S
C364 H334 0.950 . S
C364 C363 1.524 . S
C364 C365 1.415 . S
C365 H335 0.950 . S
C365 C360 1.363 . S
C365 C364 1.415 . S
H366 C363 0.999 . S
H367 C348 0.913 . S
H368 C386 0.951 . S
H369 C388 0.951 . S
H370 C390 0.950 . S
H371 C391 0.950 . S
H372 C393 0.950 . S
H373 C396 0.950 . S
H374 C397 0.950 . S
H375 C399 0.950 . S
H376 C400 0.950 . S
H377 C401 0.951 . S
H378 C403 0.951 . S
H379 C405 0.950 . S
H380 C406 0.950 . S
H381 C408 0.950 . S
H382 C411 0.950 . S
H383 C412 0.950 . S
H384 C414 0.950 . S
H385 C415 0.950 . S
C386 H368 0.951 . S
C386 C387 1.366 . S
C386 C388 1.388 . S
C387 C386 1.366 . S
C387 C391 1.385 . S
C388 H369 0.951 . S
C388 C386 1.388 . S
C388 C389 1.366 . S
C389 C388 1.366 . S
C389 C390 1.414 . S
C389 C392 1.499 . S
C390 H370 0.950 . S
C390 C389 1.414 . S
C390 C391 1.374 . S
C391 H371 0.950 . S
C391 C387 1.385 . S
C391 C390 1.374 . S
C392 C389 1.499 . S
C392 C393 1.373 . S
C392 C394 1.389 . S
C393 H372 0.950 . S
C393 C392 1.373 . S
C393 C409 1.377 . S
C394 C392 1.389 . S
C394 C395 1.524 . S
C394 C408 1.377 . S
C395 C394 1.524 . S
C395 C396 1.397 . S
C395 C400 1.363 . S
C396 H373 0.950 . S
C396 C395 1.397 . S
C396 C397 1.334 . S
C397 H374 0.950 . S
C397 C396 1.334 . S
C397 C398 1.287 . S
C398 C397 1.287 . S
C398 C399 1.524 . S
C398 H417 0.913 . S
C399 H375 0.950 . S
C399 C398 1.524 . S
C399 C400 1.415 . S
C400 H376 0.950 . S
C400 C395 1.363 . S
C400 C399 1.415 . S
C401 H377 0.951 . S
C401 C402 1.366 . S
C401 C403 1.388 . S
C402 C401 1.366 . S
C402 C406 1.385 . S
C403 H378 0.951 . S
C403 C401 1.388 . S
C403 C404 1.366 . S
C404 C403 1.366 . S
C404 C405 1.414 . S
C404 C407 1.499 . S
C405 H379 0.950 . S
C405 C404 1.414 . S
C405 C406 1.374 . S
C406 H380 0.950 . S
C406 C402 1.385 . S
C406 C405 1.374 . S
C407 C404 1.499 . S
C407 C408 1.373 . S
C407 C409 1.389 . S
C408 H381 0.950 . S
C408 C394 1.377 . S
C408 C407 1.373 . S
C409 C393 1.377 . S
C409 C407 1.389 . S
C409 C410 1.524 . S
C410 C409 1.524 . S
C410 C411 1.397 . S
C410 C415 1.363 . S
C411 H382 0.950 . S
C411 C410 1.397 . S
C411 C412 1.334 . S
C412 H383 0.950 . S
C412 C411 1.334 . S
C412 C413 1.287 . S
C413 C412 1.287 . S
C413 C414 1.524 . S
C413 H416 0.999 . S
C414 H384 0.950 . S
C414 C413 1.524 . S
C414 C415 1.415 . S
C415 H385 0.950 . S
C415 C410 1.363 . S
C415 C414 1.415 . S
H416 C413 0.999 . S
H417 C398 0.913 . S
H418 C436 0.951 . S
H419 C438 0.951 . S
H420 C440 0.950 . S
H421 C441 0.950 . S
H422 C443 0.950 . S
H423 C446 0.950 . S
H424 C447 0.950 . S
H425 C449 0.950 . S
H426 C450 0.950 . S
H427 C451 0.951 . S
H428 C453 0.951 . S
H429 C455 0.950 . S
H430 C456 0.950 . S
H431 C458 0.950 . S
H432 C461 0.950 . S
H433 C462 0.950 . S
H434 C464 0.950 . S
H435 C465 0.950 . S
C436 H418 0.951 . S
C436 C437 1.366 . S
C436 C438 1.388 . S
C437 C436 1.366 . S
C437 C441 1.385 . S
C438 H419 0.951 . S
C438 C436 1.388 . S
C438 C439 1.366 . S
C439 C438 1.366 . S
C439 C440 1.414 . S
C439 C442 1.499 . S
C440 H420 0.950 . S
C440 C439 1.414 . S
C440 C441 1.374 . S
C441 H421 0.950 . S
C441 C437 1.385 . S
C441 C440 1.374 . S
C442 C439 1.499 . S
C442 C443 1.373 . S
C442 C444 1.389 . S
C443 H422 0.950 . S
C443 C442 1.373 . S
C443 C459 1.377 . S
C444 C442 1.389 . S
C444 C445 1.524 . S
C444 C458 1.377 . S
C445 C444 1.524 . S
C445 C446 1.397 . S
C445 C450 1.363 . S
C446 H423 0.950 . S
C446 C445 1.397 . S
C446 C447 1.334 . S
C447 H424 0.950 . S
C447 C446 1.334 . S
C447 C448 1.287 . S
C448 C447 1.287 . S
C448 C449 1.524 . S
C448 H467 0.913 . S
C449 H425 0.950 . S
C449 C448 1.524 . S
C449 C450 1.415 . S
C450 H426 0.950 . S
C450 C445 1.363 . S
C450 C449 1.415 . S
C451 H427 0.951 . S
C451 C452 1.366 . S
C451 C453 1.388 . S
C452 C451 1.366 . S
C452 C456 1.385 . S
C453 H428 0.951 . S
C453 C451 1.388 . S
C453 C454 1.366 . S
C454 C453 1.366 . S
C454 C455 1.414 . S
C454 C457 1.499 . S
C455 H429 0.950 . S
C455 C454 1.414 . S
C455 C456 1.374 . S
C456 H430 0.950 . S
C456 C452 1.385 . S
C456 C455 1.374 . S
C457 C454 1.499 . S
C457 C458 1.373 . S
C457 C459 1.389 . S
C458 H431 0.950 . S
C458 C444 1.377 . S
C458 C457 1.373 . S
C459 C443 1.377 . S
C459 C457 1.389 . S
C459 C460 1.524 . S
C460 C459 1.524 . S
C460 C461 1.397 . S
C460 C465 1.363 . S
C461 H432 0.950 . S
C461 C460 1.397 . S
C461 C462 1.334 . S
C462 H433 0.950 . S
C462 C461 1.334 . S
C462 C463 1.287 . S
C463 C462 1.287 . S
C463 C464 1.524 . S
C463 H466 0.999 . S
C464 H434 0.950 . S
C464 C463 1.524 . S
C464 C465 1.415 . S
C465 H435 0.950 . S
C465 C460 1.363 . S
C465 C464 1.415 . S
H466 C463 0.999 . S
H467 C448 0.913 . S
H468 C486 0.951 . S
H469 C488 0.951 . S
H470 C490 0.950 . S
H471 C491 0.950 . S
H472 C493 0.950 . S
H473 C496 0.950 1_545 S
H474 C497 0.950 . S
H475 C499 0.950 . S
H476 C500 0.950 . S
H477 C501 0.951 . S
H478 C503 0.951 . S
H479 C505 0.950 . S
H480 C506 0.950 . S
H481 C508 0.950 . S
H482 C511 0.950 1_565 S
H483 C512 0.950 . S
H484 C514 0.950 . S
H485 C515 0.950 . S
C486 H468 0.951 . S
C486 C487 1.366 1_565 S
C486 C488 1.388 . S
C487 C486 1.366 1_545 S
C487 C491 1.385 . S
C488 H469 0.951 . S
C488 C486 1.388 . S
C488 C489 1.366 1_565 S
C489 C488 1.366 1_545 S
C489 C490 1.414 . S
C489 C492 1.499 . S
C490 H470 0.950 . S
C490 C489 1.414 . S
C490 C491 1.374 . S
C491 H471 0.950 . S
C491 C487 1.385 . S
C491 C490 1.374 . S
C492 C489 1.499 . S
C492 C493 1.373 . S
C492 C494 1.389 1_545 S
C493 H472 0.950 . S
C493 C492 1.373 . S
C493 C509 1.377 . S
C494 C492 1.389 1_565 S
C494 C495 1.524 . S
C494 C508 1.377 . S
C495 C494 1.524 . S
C495 C496 1.397 . S
C495 C500 1.363 . S
C496 H473 0.950 1_565 S
C496 C495 1.397 . S
C496 C497 1.334 . S
C497 H474 0.950 . S
C497 C496 1.334 . S
C497 C498 1.287 . S
C498 C497 1.287 . S
C498 C499 1.524 . S
C498 H517 0.913 . S
C499 H475 0.950 . S
C499 C498 1.524 . S
C499 C500 1.415 . S
C500 H476 0.950 . S
C500 C495 1.363 . S
C500 C499 1.415 . S
C501 H477 0.951 . S
C501 C502 1.366 1_545 S
C501 C503 1.388 . S
C502 C501 1.366 1_565 S
C502 C506 1.385 . S
C503 H478 0.951 . S
C503 C501 1.388 . S
C503 C504 1.366 1_545 S
C504 C503 1.366 1_565 S
C504 C505 1.414 . S
C504 C507 1.499 . S
C505 H479 0.950 . S
C505 C504 1.414 . S
C505 C506 1.374 . S
C506 H480 0.950 . S
C506 C502 1.385 . S
C506 C505 1.374 . S
C507 C504 1.499 . S
C507 C508 1.373 . S
C507 C509 1.389 1_565 S
C508 H481 0.950 . S
C508 C494 1.377 . S
C508 C507 1.373 . S
C509 C493 1.377 . S
C509 C507 1.389 1_545 S
C509 C510 1.524 . S
C510 C509 1.524 . S
C510 C511 1.397 . S
C510 C515 1.363 . S
C511 H482 0.950 1_545 S
C511 C510 1.397 . S
C511 C512 1.334 . S
C512 H483 0.950 . S
C512 C511 1.334 . S
C512 C513 1.287 . S
C513 C512 1.287 . S
C513 C514 1.524 . S
C513 H516 0.999 . S
C514 H484 0.950 . S
C514 C513 1.524 . S
C514 C515 1.415 . S
C515 H485 0.950 . S
C515 C510 1.363 . S
C515 C514 1.415 . S
H516 C513 0.999 . S
H517 C498 0.913 . S
H518 C536 0.951 . S
H519 C538 0.951 . S
H520 C540 0.950 . S
H521 C541 0.950 . S
H522 C543 0.950 . S
H523 C546 0.950 . S
H524 C547 0.950 . S
H525 C549 0.950 . S
H526 C550 0.950 . S
H527 C551 0.951 . S
H528 C553 0.951 . S
H529 C555 0.950 . S
H530 C556 0.950 . S
H531 C558 0.950 . S
H532 C561 0.950 . S
H533 C562 0.950 . S
H534 C564 0.950 . S
H535 C565 0.950 . S
C536 H518 0.951 . S
C536 C537 1.366 . S
C536 C538 1.388 . S
C537 C536 1.366 . S
C537 C541 1.385 . S
C538 H519 0.951 . S
C538 C536 1.388 . S
C538 C539 1.366 . S
C539 C538 1.366 . S
C539 C540 1.414 . S
C539 C542 1.499 . S
C540 H520 0.950 . S
C540 C539 1.414 . S
C540 C541 1.374 . S
C541 H521 0.950 . S
C541 C537 1.385 . S
C541 C540 1.374 . S
C542 C539 1.499 . S
C542 C543 1.373 . S
C542 C544 1.389 . S
C543 H522 0.950 . S
C543 C542 1.373 . S
C543 C559 1.377 . S
C544 C542 1.389 . S
C544 C545 1.524 . S
C544 C558 1.377 . S
C545 C544 1.524 . S
C545 C546 1.397 . S
C545 C550 1.363 . S
C546 H523 0.950 . S
C546 C545 1.397 . S
C546 C547 1.334 . S
C547 H524 0.950 . S
C547 C546 1.334 . S
C547 C548 1.287 . S
C548 C547 1.287 . S
C548 C549 1.524 . S
C548 H567 0.913 . S
C549 H525 0.950 . S
C549 C548 1.524 . S
C549 C550 1.415 . S
C550 H526 0.950 . S
C550 C545 1.363 . S
C550 C549 1.415 . S
C551 H527 0.951 . S
C551 C552 1.366 . S
C551 C553 1.388 . S
C552 C551 1.366 . S
C552 C556 1.385 . S
C553 H528 0.951 . S
C553 C551 1.388 . S
C553 C554 1.366 . S
C554 C553 1.366 . S
C554 C555 1.414 . S
C554 C557 1.499 . S
C555 H529 0.950 . S
C555 C554 1.414 . S
C555 C556 1.374 . S
C556 H530 0.950 . S
C556 C552 1.385 . S
C556 C555 1.374 . S
C557 C554 1.499 . S
C557 C558 1.373 . S
C557 C559 1.389 . S
C558 H531 0.950 . S
C558 C544 1.377 . S
C558 C557 1.373 . S
C559 C543 1.377 . S
C559 C557 1.389 . S
C559 C560 1.524 . S
C560 C559 1.524 . S
C560 C561 1.397 . S
C560 C565 1.363 . S
C561 H532 0.950 . S
C561 C560 1.397 . S
C561 C562 1.334 . S
C562 H533 0.950 . S
C562 C561 1.334 . S
C562 C563 1.287 . S
C563 C562 1.287 . S
C563 C564 1.524 . S
C563 H566 0.999 . S
C564 H534 0.950 . S
C564 C563 1.524 . S
C564 C565 1.415 . S
C565 H535 0.950 . S
C565 C560 1.363 . S
C565 C564 1.415 . S
H566 C563 0.999 . S
H567 C548 0.913 . S
H568 C586 0.951 . S
H569 C588 0.951 . S
H570 C590 0.950 1_655 S
H571 C591 0.950 . S
H572 C593 0.950 . S
H573 C596 0.950 . S
H574 C597 0.950 . S
H575 C599 0.950 . S
H576 C600 0.950 . S
H577 C601 0.951 . S
H578 C603 0.951 . S
H579 C605 0.950 1_455 S
H580 C606 0.950 . S
H581 C608 0.950 1_554 S
H582 C611 0.950 . S
H583 C612 0.950 . S
H584 C614 0.950 . S
H585 C615 0.950 . S
C586 H568 0.951 . S
C586 C587 1.366 1_554 S
C586 C588 1.388 . S
C587 C586 1.366 1_556 S
C587 C591 1.385 . S
C588 H569 0.951 . S
C588 C586 1.388 . S
C588 C589 1.366 1_554 S
C589 C588 1.366 1_556 S
C589 C590 1.414 . S
C589 C592 1.499 . S
C590 H570 0.950 1_455 S
C590 C589 1.414 . S
C590 C591 1.374 . S
C591 H571 0.950 . S
C591 C587 1.385 . S
C591 C590 1.374 . S
C592 C589 1.499 . S
C592 C593 1.373 1_455 S
C592 C594 1.389 . S
C593 H572 0.950 . S
C593 C592 1.373 1_655 S
C593 C609 1.377 . S
C594 C592 1.389 . S
C594 C595 1.528 . S
C594 C608 1.377 . S
C595 C594 1.528 . S
C595 C596 1.423 . S
C595 C600 1.337 1_556 S
C596 H573 0.950 . S
C596 C595 1.423 . S
C596 C597 1.334 . S
C597 H574 0.950 . S
C597 C596 1.334 . S
C597 C598 1.287 . S
C598 C597 1.287 . S
C598 C599 1.524 1_556 S
C598 H617 0.913 . S
C599 H575 0.950 . S
C599 C598 1.524 1_554 S
C599 C600 1.415 . S
C600 H576 0.950 . S
C600 C595 1.337 1_554 S
C600 C599 1.415 . S
C601 H577 0.951 . S
C601 C602 1.366 . S
C601 C603 1.388 . S
C602 C601 1.366 . S
C602 C606 1.385 1_556 S
C603 H578 0.951 . S
C603 C601 1.388 . S
C603 C604 1.366 . S
C604 C603 1.366 . S
C604 C605 1.414 1_556 S
C604 C607 1.499 . S
C605 H579 0.950 1_655 S
C605 C604 1.414 1_554 S
C605 C606 1.374 . S
C606 H580 0.950 . S
C606 C602 1.385 1_554 S
C606 C605 1.374 . S
C607 C604 1.499 . S
C607 C608 1.373 1_655 S
C607 C609 1.389 . S
C608 H581 0.950 1_556 S
C608 C594 1.377 . S
C608 C607 1.373 1_455 S
C609 C593 1.377 . S
C609 C607 1.389 . S
C609 C610 1.524 . S
C610 C609 1.524 . S
C610 C611 1.397 1_556 S
C610 C615 1.363 . S
C611 H582 0.950 . S
C611 C610 1.397 1_554 S
C611 C612 1.334 . S
C612 H583 0.950 . S
C612 C611 1.334 . S
C612 C613 1.287 1_554 S
C613 C612 1.287 1_556 S
C613 C614 1.524 . S
C613 H616 0.999 . S
C614 H584 0.950 . S
C614 C613 1.524 . S
C614 C615 1.415 . S
C615 H585 0.950 . S
C615 C610 1.363 . S
C615 C614 1.415 . S
H616 C613 0.999 . S
H617 C598 0.913 . S
H618 C636 0.951 . S
H619 C638 0.951 . S
H620 C640 0.970 . S
H621 C641 0.950 1_455 S
H622 C643 0.950 . S
H623 C646 0.950 . S
H624 C647 0.950 . S
H625 C649 0.952 . S
H626 C650 0.949 1_655 S
H627 C651 0.951 . S
H628 C653 0.951 . S
H629 C655 0.970 . S
H630 C656 0.950 1_655 S
H631 C658 0.950 . S
H632 C661 0.950 . S
H633 C662 0.950 . S
H634 C664 0.952 . S
H635 C665 0.949 1_455 S
C636 H618 0.951 . S
C636 C637 1.366 . S
C636 C638 1.388 . S
C637 C636 1.366 . S
C637 C641 1.385 . S
C638 H619 0.951 . S
C638 C636 1.388 . S
C638 C639 1.366 . S
C639 C638 1.366 . S
C639 C640 1.413 1_655 S
C639 C642 1.499 . S
C640 H620 0.970 . S
C640 C639 1.413 1_455 S
C640 C641 1.356 1_455 S
C641 H621 0.950 1_655 S
C641 C637 1.385 . S
C641 C640 1.356 1_655 S
C642 C639 1.499 . S
C642 C643 1.373 . S
C642 C644 1.389 1_655 S
C643 H622 0.950 . S
C643 C642 1.373 . S
C643 C659 1.377 . S
C644 C642 1.389 1_455 S
C644 C645 1.524 . S
C644 C658 1.377 . S
C645 C644 1.524 . S
C645 C646 1.397 . S
C645 C650 1.364 . S
C646 H623 0.950 . S
C646 C645 1.397 . S
C646 C647 1.334 . S
C647 H624 0.950 . S
C647 C646 1.334 . S
C647 C648 1.287 . S
C648 C647 1.287 . S
C648 C649 1.524 . S
C648 H667 0.913 . S
C649 H625 0.952 . S
C649 C648 1.524 . S
C649 C650 1.415 . S
C650 H626 0.949 1_455 S
C650 C645 1.364 . S
C650 C649 1.415 . S
C651 H627 0.951 . S
C651 C652 1.366 . S
C651 C653 1.388 . S
C652 C651 1.366 . S
C652 C656 1.385 . S
C653 H628 0.951 . S
C653 C651 1.388 . S
C653 C654 1.366 . S
C654 C653 1.366 . S
C654 C655 1.413 1_455 S
C654 C657 1.499 . S
C655 H629 0.970 . S
C655 C654 1.413 1_655 S
C655 C656 1.356 1_655 S
C656 H630 0.950 1_455 S
C656 C652 1.385 . S
C656 C655 1.356 1_455 S
C657 C654 1.499 . S
C657 C658 1.373 . S
C657 C659 1.389 1_455 S
C658 H631 0.950 . S
C658 C644 1.377 . S
C658 C657 1.373 . S
C659 C643 1.377 . S
C659 C657 1.389 1_655 S
C659 C660 1.524 . S
C660 C659 1.524 . S
C660 C661 1.397 . S
C660 C665 1.364 . S
C661 H632 0.950 . S
C661 C660 1.397 . S
C661 C662 1.334 . S
C662 H633 0.950 . S
C662 C661 1.334 . S
C662 C663 1.287 . S
C663 C662 1.287 . S
C663 C664 1.524 . S
C663 H666 0.999 . S
C664 H634 0.952 . S
C664 C663 1.524 . S
C664 C665 1.415 . S
C665 H635 0.949 1_655 S
C665 C660 1.364 . S
C665 C664 1.415 . S
H666 C663 0.999 . S
H667 C648 0.913 . S
H668 C686 0.951 . S
H669 C688 0.951 . S
H670 C690 0.950 . S
H671 C691 0.950 . S
H672 C693 0.950 . S
H673 C696 0.950 . S
H674 C697 0.950 . S
H675 C699 0.950 . S
H676 C700 0.950 . S
H677 C701 0.951 . S
H678 C703 0.951 . S
H679 C705 0.950 . S
H680 C706 0.950 . S
H681 C708 0.950 . S
H682 C711 0.950 . S
H683 C712 0.950 . S
H684 C714 0.950 . S
H685 C715 0.950 . S
C686 H668 0.951 . S
C686 C687 1.366 . S
C686 C688 1.388 . S
C687 C686 1.366 . S
C687 C691 1.385 . S
C688 H669 0.951 . S
C688 C686 1.388 . S
C688 C689 1.366 . S
C689 C688 1.366 . S
C689 C690 1.414 . S
C689 C692 1.499 . S
C690 H670 0.950 . S
C690 C689 1.414 . S
C690 C691 1.374 . S
C691 H671 0.950 . S
C691 C687 1.385 . S
C691 C690 1.374 . S
C692 C689 1.499 . S
C692 C693 1.373 1_545 S
C692 C694 1.389 . S
C693 H672 0.950 . S
C693 C692 1.373 1_565 S
C693 C709 1.377 . S
C694 C692 1.389 . S
C694 C695 1.524 . S
C694 C708 1.377 . S
C695 C694 1.524 . S
C695 C696 1.397 . S
C695 C700 1.363 . S
C696 H673 0.950 . S
C696 C695 1.397 . S
C696 C697 1.334 . S
C697 H674 0.950 . S
C697 C696 1.334 . S
C697 C698 1.287 . S
C698 C697 1.287 . S
C698 C699 1.524 . S
C698 H717 0.913 . S
C699 H675 0.950 . S
C699 C698 1.524 . S
C699 C700 1.415 . S
C700 H676 0.950 . S
C700 C695 1.363 . S
C700 C699 1.415 . S
C701 H677 0.951 . S
C701 C702 1.366 . S
C701 C703 1.388 . S
C702 C701 1.366 . S
C702 C706 1.385 . S
C703 H678 0.951 . S
C703 C701 1.388 . S
C703 C704 1.366 . S
C704 C703 1.366 . S
C704 C705 1.414 . S
C704 C707 1.499 . S
C705 H679 0.950 . S
C705 C704 1.414 . S
C705 C706 1.374 . S
C706 H680 0.950 . S
C706 C702 1.385 . S
C706 C705 1.374 . S
C707 C704 1.499 . S
C707 C708 1.373 1_565 S
C707 C709 1.389 . S
C708 H681 0.950 . S
C708 C694 1.377 . S
C708 C707 1.373 1_545 S
C709 C693 1.377 . S
C709 C707 1.389 . S
C709 C710 1.524 . S
C710 C709 1.524 . S
C710 C711 1.397 . S
C710 C715 1.363 . S
C711 H682 0.950 . S
C711 C710 1.397 . S
C711 C712 1.334 . S
C712 H683 0.950 . S
C712 C711 1.334 . S
C712 C713 1.287 . S
C713 C712 1.287 . S
C713 C714 1.524 . S
C713 H716 0.999 . S
C714 H684 0.950 . S
C714 C713 1.524 . S
C714 C715 1.415 . S
C715 H685 0.950 . S
C715 C710 1.363 . S
C715 C714 1.415 . S
H716 C713 0.999 . S
H717 C698 0.913 . S
H718 C736 0.951 . S
H719 C738 0.951 . S
H720 C740 0.950 . S
H721 C741 0.950 . S
H722 C743 0.950 . S
H723 C746 0.950 . S
H724 C747 0.950 . S
H725 C749 0.950 . S
H726 C750 0.950 . S
H727 C751 0.951 . S
H728 C753 0.956 . S
H729 C755 0.950 . S
H730 C756 0.950 . S
H731 C758 0.950 . S
H732 C761 0.950 . S
H733 C762 0.950 . S
H734 C764 0.950 . S
H735 C765 0.950 . S
C736 H718 0.951 . S
C736 C737 1.366 . S
C736 C738 1.388 . S
C737 C736 1.366 . S
C737 C741 1.385 . S
C738 H719 0.951 . S
C738 C736 1.388 . S
C738 C739 1.366 . S
C739 C738 1.366 . S
C739 C740 1.414 . S
C739 C742 1.499 . S
C740 H720 0.950 . S
C740 C739 1.414 . S
C740 C741 1.374 . S
C741 H721 0.950 . S
C741 C737 1.385 . S
C741 C740 1.374 . S
C742 C739 1.499 . S
C742 C743 1.373 1_554 S
C742 C744 1.389 . S
C743 H722 0.950 . S
C743 C742 1.373 1_556 S
C743 C759 1.377 . S
C744 C742 1.389 . S
C744 C745 1.524 . S
C744 C758 1.377 . S
C745 C744 1.524 . S
C745 C746 1.397 . S
C745 C750 1.363 . S
C746 H723 0.950 . S
C746 C745 1.397 . S
C746 C747 1.334 . S
C747 H724 0.950 . S
C747 C746 1.334 . S
C747 C748 1.287 . S
C748 C747 1.287 . S
C748 C749 1.524 . S
C748 H767 0.913 . S
C749 H725 0.950 . S
C749 C748 1.524 . S
C749 C750 1.415 . S
C750 H726 0.950 . S
C750 C745 1.363 . S
C750 C749 1.415 . S
C751 H727 0.951 . S
C751 C752 1.366 . S
C751 C753 1.388 . S
C752 C751 1.366 . S
C752 C756 1.385 . S
C753 H728 0.956 . S
C753 C751 1.388 . S
C753 C754 1.366 . S
C754 C753 1.366 . S
C754 C755 1.414 . S
C754 C757 1.499 . S
C755 H729 0.950 . S
C755 C754 1.414 . S
C755 C756 1.374 . S
C756 H730 0.950 . S
C756 C752 1.385 . S
C756 C755 1.374 . S
C757 C754 1.499 . S
C757 C758 1.373 . S
C757 C759 1.389 1_554 S
C758 H731 0.950 . S
C758 C744 1.377 . S
C758 C757 1.373 . S
C759 C743 1.377 . S
C759 C757 1.389 1_556 S
C759 C760 1.524 . S
C760 C759 1.524 . S
C760 C761 1.397 . S
C760 C765 1.363 . S
C761 H732 0.950 . S
C761 C760 1.397 . S
C761 C762 1.334 . S
C762 H733 0.950 . S
C762 C761 1.334 . S
C762 C763 1.287 . S
C763 C762 1.287 . S
C763 C764 1.524 . S
C763 H766 0.999 . S
C764 H734 0.950 . S
C764 C763 1.524 . S
C764 C765 1.415 . S
C765 H735 0.950 . S
C765 C760 1.363 . S
C765 C764 1.415 . S
H766 C763 0.999 . S
H767 C748 0.913 . S
H768 C786 0.951 . S
H769 C788 0.951 . S
H770 C790 0.950 . S
H771 C791 0.950 . S
H772 C793 0.950 . S
H773 C796 0.950 . S
H774 C797 0.950 . S
H775 C799 0.950 . S
H776 C800 0.950 . S
H777 C801 0.951 . S
H778 C803 0.951 . S
H779 C805 0.950 . S
H780 C806 0.950 . S
H781 C808 0.950 . S
H782 C811 0.950 . S
H783 C812 0.950 . S
H784 C814 0.950 . S
H785 C815 0.950 . S
C786 H768 0.951 . S
C786 C787 1.366 . S
C786 C788 1.388 . S
C787 C786 1.366 . S
C787 C791 1.385 . S
C788 H769 0.951 . S
C788 C786 1.388 . S
C788 C789 1.366 . S
C789 C788 1.366 . S
C789 C790 1.414 . S
C789 C792 1.499 . S
C790 H770 0.950 . S
C790 C789 1.414 . S
C790 C791 1.374 . S
C791 H771 0.950 . S
C791 C787 1.385 . S
C791 C790 1.374 . S
C792 C789 1.499 . S
C792 C793 1.373 . S
C792 C794 1.389 . S
C793 H772 0.950 . S
C793 C792 1.373 . S
C793 C809 1.377 . S
C794 C792 1.389 . S
C794 C795 1.524 . S
C794 C808 1.377 . S
C795 C794 1.524 . S
C795 C796 1.397 . S
C795 C800 1.363 . S
C796 H773 0.950 . S
C796 C795 1.397 . S
C796 C797 1.334 . S
C797 H774 0.950 . S
C797 C796 1.334 . S
C797 C798 1.287 . S
C798 C797 1.287 . S
C798 C799 1.524 . S
C798 H817 0.913 . S
C799 H775 0.950 . S
C799 C798 1.524 . S
C799 C800 1.415 . S
C800 H776 0.950 . S
C800 C795 1.363 . S
C800 C799 1.415 . S
C801 H777 0.951 . S
C801 C802 1.366 . S
C801 C803 1.388 . S
C802 C801 1.366 . S
C802 C806 1.385 . S
C803 H778 0.951 . S
C803 C801 1.388 . S
C803 C804 1.366 . S
C804 C803 1.366 . S
C804 C805 1.414 . S
C804 C807 1.499 . S
C805 H779 0.950 . S
C805 C804 1.414 . S
C805 C806 1.374 . S
C806 H780 0.950 . S
C806 C802 1.385 . S
C806 C805 1.374 . S
C807 C804 1.499 . S
C807 C808 1.373 . S
C807 C809 1.389 . S
C808 H781 0.950 . S
C808 C794 1.377 . S
C808 C807 1.373 . S
C809 C793 1.377 . S
C809 C807 1.389 . S
C809 C810 1.524 . S
C810 C809 1.524 . S
C810 C811 1.397 . S
C810 C815 1.363 . S
C811 H782 0.950 . S
C811 C810 1.397 . S
C811 C812 1.334 . S
C812 H783 0.950 . S
C812 C811 1.334 . S
C812 C813 1.287 . S
C813 C812 1.287 . S
C813 C814 1.524 . S
C813 H816 0.999 . S
C814 H784 0.950 . S
C814 C813 1.524 . S
C814 C815 1.415 . S
C815 H785 0.950 . S
C815 C810 1.363 . S
C815 C814 1.415 . S
H816 C813 0.999 . S
H817 C798 0.913 . S
H818 C836 0.951 . S
H819 C838 0.951 . S
H820 C840 0.950 . S
H821 C841 0.950 . S
H822 C843 0.950 . S
H823 C846 0.950 . S
H824 C847 0.950 . S
H825 C849 0.950 . S
H826 C850 0.950 . S
H827 C851 0.951 . S
H828 C853 0.951 . S
H829 C855 0.950 . S
H830 C856 0.950 . S
H831 C858 0.950 . S
H832 C861 0.950 . S
H833 C862 0.950 . S
H834 C864 0.950 . S
H835 C865 0.950 . S
C836 H818 0.951 . S
C836 C837 1.366 . S
C836 C838 1.388 . S
C837 C836 1.366 . S
C837 C841 1.385 . S
C838 H819 0.951 . S
C838 C836 1.388 . S
C838 C839 1.366 . S
C839 C838 1.366 . S
C839 C840 1.414 . S
C839 C842 1.499 . S
C840 H820 0.950 . S
C840 C839 1.414 . S
C840 C841 1.374 . S
C841 H821 0.950 . S
C841 C837 1.385 . S
C841 C840 1.374 . S
C842 C839 1.499 . S
C842 C843 1.373 . S
C842 C844 1.389 . S
C843 H822 0.950 . S
C843 C842 1.373 . S
C843 C859 1.377 . S
C844 C842 1.389 . S
C844 C845 1.524 . S
C844 C858 1.377 . S
C845 C844 1.524 . S
C845 C846 1.397 . S
C845 C850 1.363 . S
C846 H823 0.950 . S
C846 C845 1.397 . S
C846 C847 1.334 . S
C847 H824 0.950 . S
C847 C846 1.334 . S
C847 C848 1.287 . S
C848 C847 1.287 . S
C848 C849 1.524 . S
C848 H867 0.913 . S
C849 H825 0.950 . S
C849 C848 1.524 . S
C849 C850 1.415 . S
C850 H826 0.950 . S
C850 C845 1.363 . S
C850 C849 1.415 . S
C851 H827 0.951 . S
C851 C852 1.366 . S
C851 C853 1.388 . S
C852 C851 1.366 . S
C852 C856 1.385 . S
C853 H828 0.951 . S
C853 C851 1.388 . S
C853 C854 1.366 . S
C854 C853 1.366 . S
C854 C855 1.414 . S
C854 C857 1.499 . S
C855 H829 0.950 . S
C855 C854 1.414 . S
C855 C856 1.374 . S
C856 H830 0.950 . S
C856 C852 1.385 . S
C856 C855 1.374 . S
C857 C854 1.499 . S
C857 C858 1.373 . S
C857 C859 1.389 . S
C858 H831 0.950 . S
C858 C844 1.377 . S
C858 C857 1.373 . S
C859 C843 1.377 . S
C859 C857 1.389 . S
C859 C860 1.524 . S
C860 C859 1.524 . S
C860 C861 1.397 . S
C860 C865 1.363 . S
C861 H832 0.950 . S
C861 C860 1.397 . S
C861 C862 1.334 . S
C862 H833 0.950 . S
C862 C861 1.334 . S
C862 C863 1.287 . S
C863 C862 1.287 . S
C863 C864 1.524 . S
C863 H866 0.999 . S
C864 H834 0.950 . S
C864 C863 1.524 . S
C864 C865 1.415 . S
C865 H835 0.950 . S
C865 C860 1.363 . S
C865 C864 1.415 . S
H866 C863 0.999 . S
H867 C848 0.913 . S
H868 C886 0.951 . S
H869 C888 0.951 . S
H870 C890 0.950 . S
H871 C891 0.950 . S
H872 C893 0.950 . S
H873 C896 0.950 1_554 S
H874 C897 0.950 . S
H875 C899 0.950 . S
H876 C900 0.950 . S
H877 C901 0.951 . S
H878 C903 0.951 . S
H879 C905 0.950 . S
H880 C906 0.950 . S
H881 C908 0.950 . S
H882 C911 0.982 . S
H883 C912 0.950 . S
H884 C914 0.950 . S
H885 C915 0.950 . S
C886 H868 0.951 . S
C886 C887 1.366 1_556 S
C886 C888 1.388 . S
C887 C886 1.366 1_554 S
C887 C891 1.385 . S
C888 H869 0.951 . S
C888 C886 1.388 . S
C888 C889 1.366 1_556 S
C889 C888 1.366 1_554 S
C889 C890 1.414 . S
C889 C892 1.499 . S
C890 H870 0.950 . S
C890 C889 1.414 . S
C890 C891 1.374 . S
C891 H871 0.950 . S
C891 C887 1.385 . S
C891 C890 1.374 . S
C892 C889 1.499 . S
C892 C893 1.373 . S
C892 C894 1.389 1_554 S
C893 H872 0.950 . S
C893 C892 1.373 . S
C893 C909 1.377 . S
C894 C892 1.389 1_556 S
C894 C895 1.524 . S
C894 C908 1.377 . S
C895 C894 1.524 . S
C895 C896 1.397 . S
C895 C900 1.363 . S
C896 H873 0.950 1_556 S
C896 C895 1.397 . S
C896 C897 1.334 . S
C897 H874 0.950 . S
C897 C896 1.334 . S
C897 C898 1.287 . S
C898 C897 1.287 . S
C898 C899 1.524 . S
C898 H917 0.913 . S
C899 H875 0.950 . S
C899 C898 1.524 . S
C899 C900 1.415 . S
C900 H876 0.950 . S
C900 C895 1.363 . S
C900 C899 1.415 . S
C901 H877 0.951 . S
C901 C902 1.366 1_554 S
C901 C903 1.388 . S
C902 C901 1.366 1_556 S
C902 C906 1.385 . S
C903 H878 0.951 . S
C903 C901 1.388 . S
C903 C904 1.366 1_554 S
C904 C903 1.366 1_556 S
C904 C905 1.414 . S
C904 C907 1.501 . S
C905 H879 0.950 . S
C905 C904 1.414 . S
C905 C906 1.374 . S
C906 H880 0.950 . S
C906 C902 1.385 . S
C906 C905 1.374 . S
C907 C904 1.501 . S
C907 C908 1.393 . S
C907 C909 1.366 1_556 S
C908 H881 0.950 . S
C908 C894 1.377 . S
C908 C907 1.393 . S
C909 C893 1.377 . S
C909 C907 1.366 1_554 S
C909 C910 1.524 . S
C910 C909 1.524 . S
C910 C911 1.397 . S
C910 C915 1.363 . S
C911 H882 0.982 . S
C911 C910 1.397 . S
C911 C912 1.334 . S
C912 H883 0.950 . S
C912 C911 1.334 . S
C912 C913 1.287 . S
C913 C912 1.287 . S
C913 C914 1.524 . S
C913 H916 0.999 . S
C914 H884 0.950 . S
C914 C913 1.524 . S
C914 C915 1.415 . S
C915 H885 0.950 . S
C915 C910 1.363 . S
C915 C914 1.415 . S
H916 C913 0.999 . S
H917 C898 0.913 . S
H918 C936 0.951 . S
H919 C938 0.951 . S
H920 C940 0.950 . S
H921 C941 0.950 . S
H922 C943 0.950 . S
H923 C946 0.950 . S
H924 C947 0.950 . S
H925 C949 0.950 . S
H926 C950 0.950 . S
H927 C951 0.951 . S
H928 C953 0.951 . S
H929 C955 0.950 . S
H930 C956 0.950 . S
H931 C958 0.950 . S
H932 C961 0.950 . S
H933 C962 0.950 . S
H934 C964 0.950 . S
H935 C965 0.950 . S
C936 H918 0.951 . S
C936 C937 1.366 . S
C936 C938 1.388 . S
C937 C936 1.366 . S
C937 C941 1.385 . S
C938 H919 0.951 . S
C938 C936 1.388 . S
C938 C939 1.366 . S
C939 C938 1.366 . S
C939 C940 1.414 . S
C939 C942 1.499 . S
C940 H920 0.950 . S
C940 C939 1.414 . S
C940 C941 1.374 . S
C941 H921 0.950 . S
C941 C937 1.385 . S
C941 C940 1.374 . S
C942 C939 1.499 . S
C942 C943 1.373 . S
C942 C944 1.389 . S
C943 H922 0.950 . S
C943 C942 1.373 . S
C943 C959 1.377 . S
C944 C942 1.389 . S
C944 C945 1.524 . S
C944 C958 1.377 . S
C945 C944 1.524 . S
C945 C946 1.397 . S
C945 C950 1.363 . S
C946 H923 0.950 . S
C946 C945 1.397 . S
C946 C947 1.334 . S
C947 H924 0.950 . S
C947 C946 1.334 . S
C947 C948 1.287 . S
C948 C947 1.287 . S
C948 C949 1.524 . S
C948 H967 0.913 . S
C949 H925 0.950 . S
C949 C948 1.524 . S
C949 C950 1.415 . S
C950 H926 0.950 . S
C950 C945 1.363 . S
C950 C949 1.415 . S
C951 H927 0.951 . S
C951 C952 1.366 . S
C951 C953 1.388 . S
C952 C951 1.366 . S
C952 C956 1.385 . S
C953 H928 0.951 . S
C953 C951 1.388 . S
C953 C954 1.366 . S
C954 C953 1.366 . S
C954 C955 1.414 . S
C954 C957 1.499 . S
C955 H929 0.950 . S
C955 C954 1.414 . S
C955 C956 1.374 . S
C956 H930 0.950 . S
C956 C952 1.385 . S
C956 C955 1.374 . S
C957 C954 1.499 . S
C957 C958 1.373 . S
C957 C959 1.389 . S
C958 H931 0.950 . S
C958 C944 1.377 . S
C958 C957 1.373 . S
C959 C943 1.377 . S
C959 C957 1.389 . S
C959 C960 1.524 . S
C960 C959 1.524 . S
C960 C961 1.397 . S
C960 C965 1.363 . S
C961 H932 0.950 . S
C961 C960 1.397 . S
C961 C962 1.334 . S
C962 H933 0.950 . S
C962 C961 1.334 . S
C962 C963 1.287 . S
C963 C962 1.287 . S
C963 C964 1.524 . S
C963 H966 0.999 . S
C964 H934 0.950 . S
C964 C963 1.524 . S
C964 C965 1.415 . S
C965 H935 0.950 . S
C965 C960 1.363 . S
C965 C964 1.415 . S
H966 C963 0.999 . S
H967 C948 0.913 . S
H968 C986 0.951 . S
H969 C988 0.951 . S
H970 C990 0.950 . S
H971 C991 0.950 . S
H972 C993 0.950 . S
H973 C996 0.950 . S
H974 C997 0.950 . S
H975 C999 0.950 . S
H976 C1000 0.950 . S
H977 C1001 0.951 . S
H978 C1003 0.951 . S
H979 C1005 0.950 . S
H980 C1006 0.950 . S
H981 C1008 0.950 . S
H982 C1011 0.950 . S
H983 C1012 0.950 . S
H984 C1014 0.950 . S
H985 C1015 0.950 . S
C986 H968 0.951 . S
C986 C987 1.366 . S
C986 C988 1.388 . S
C987 C986 1.366 . S
C987 C991 1.385 . S
C988 H969 0.951 . S
C988 C986 1.388 . S
C988 C989 1.366 . S
C989 C988 1.366 . S
C989 C990 1.414 . S
C989 C992 1.499 . S
C990 H970 0.950 . S
C990 C989 1.414 . S
C990 C991 1.374 . S
C991 H971 0.950 . S
C991 C987 1.385 . S
C991 C990 1.374 . S
C992 C989 1.499 . S
C992 C993 1.373 . S
C992 C994 1.389 . S
C993 H972 0.950 . S
C993 C992 1.373 . S
C993 C1009 1.377 . S
C994 C992 1.389 . S
C994 C995 1.524 . S
C994 C1008 1.377 . S
C995 C994 1.524 . S
C995 C996 1.397 . S
C995 C1000 1.363 . S
C996 H973 0.950 . S
C996 C995 1.397 . S
C996 C997 1.334 . S
C997 H974 0.950 . S
C997 C996 1.334 . S
C997 C998 1.287 . S
C998 C997 1.287 . S
C998 C999 1.524 . S
C998 H1017 0.913 . S
C999 H975 0.950 . S
C999 C998 1.524 . S
C999 C1000 1.415 . S
C1000 H976 0.950 . S
C1000 C995 1.363 . S
C1000 C999 1.415 . S
C1001 H977 0.951 . S
C1001 C1002 1.366 . S
C1001 C1003 1.388 . S
C1002 C1001 1.366 . S
C1002 C1006 1.385 . S
C1003 H978 0.951 . S
C1003 C1001 1.388 . S
C1003 C1004 1.366 . S
C1004 C1003 1.366 . S
C1004 C1005 1.414 . S
C1004 C1007 1.499 . S
C1005 H979 0.950 . S
C1005 C1004 1.414 . S
C1005 C1006 1.374 . S
C1006 H980 0.950 . S
C1006 C1002 1.385 . S
C1006 C1005 1.374 . S
C1007 C1004 1.499 . S
C1007 C1008 1.373 . S
C1007 C1009 1.389 . S
C1008 H981 0.950 . S
C1008 C994 1.377 . S
C1008 C1007 1.373 . S
C1009 C993 1.377 . S
C1009 C1007 1.389 . S
C1009 C1010 1.524 . S
C1010 C1009 1.524 . S
C1010 C1011 1.397 . S
C1010 C1015 1.363 . S
C1011 H982 0.950 . S
C1011 C1010 1.397 . S
C1011 C1012 1.334 . S
C1012 H983 0.950 . S
C1012 C1011 1.334 . S
C1012 C1013 1.287 . S
C1013 C1012 1.287 . S
C1013 C1014 1.524 . S
C1013 H1016 0.999 . S
C1014 H984 0.950 . S
C1014 C1013 1.524 . S
C1014 C1015 1.415 . S
C1015 H985 0.950 . S
C1015 C1010 1.363 . S
C1015 C1014 1.415 . S
H1016 C1013 0.999 . S
H1017 C998 0.913 . S
H1018 C1036 0.951 . S
H1019 C1038 0.951 . S
H1020 C1040 0.950 . S
H1021 C1041 0.952 1_556 S
H1022 C1043 0.950 . S
H1023 C1046 0.950 . S
H1024 C1047 0.950 . S
H1025 C1049 0.950 . S
H1026 C1050 0.926 1_554 S
H1027 C1051 0.951 . S
H1028 C1053 0.951 . S
H1029 C1055 0.950 . S
H1030 C1056 0.950 . S
H1031 C1058 0.950 . S
H1032 C1061 0.950 . S
H1033 C1062 0.950 . S
H1034 C1064 0.950 . S
H1035 C1065 0.950 . S
C1036 H1018 0.951 . S
C1036 C1037 1.366 . S
C1036 C1038 1.388 . S
C1037 C1036 1.366 . S
C1037 C1041 1.382 . S
C1038 H1019 0.951 . S
C1038 C1036 1.388 . S
C1038 C1039 1.366 . S
C1039 C1038 1.366 . S
C1039 C1040 1.414 1_554 S
C1039 C1042 1.499 . S
C1040 H1020 0.950 . S
C1040 C1039 1.414 1_556 S
C1040 C1041 1.374 1_556 S
C1041 H1021 0.952 1_554 S
C1041 C1037 1.382 . S
C1041 C1040 1.374 1_554 S
C1042 C1039 1.499 . S
C1042 C1043 1.373 . S
C1042 C1044 1.389 1_554 S
C1043 H1022 0.950 . S
C1043 C1042 1.373 . S
C1043 C1059 1.377 . S
C1044 C1042 1.389 1_556 S
C1044 C1045 1.524 . S
C1044 C1058 1.377 . S
C1045 C1044 1.524 . S
C1045 C1046 1.397 . S
C1045 C1050 1.363 . S
C1046 H1023 0.950 . S
C1046 C1045 1.397 . S
C1046 C1047 1.334 . S
C1047 H1024 0.950 . S
C1047 C1046 1.334 . S
C1047 C1048 1.287 . S
C1048 C1047 1.287 . S
C1048 C1049 1.524 . S
C1048 H1067 0.913 . S
C1049 H1025 0.950 . S
C1049 C1048 1.524 . S
C1049 C1050 1.415 . S
C1050 H1026 0.926 1_556 S
C1050 C1045 1.363 . S
C1050 C1049 1.415 . S
C1051 H1027 0.951 . S
C1051 C1052 1.366 . S
C1051 C1053 1.388 . S
C1052 C1051 1.366 . S
C1052 C1056 1.385 1_556 S
C1053 H1028 0.951 . S
C1053 C1051 1.388 . S
C1053 C1054 1.366 . S
C1054 C1053 1.366 . S
C1054 C1055 1.414 1_556 S
C1054 C1057 1.499 1_556 S
C1055 H1029 0.950 . S
C1055 C1054 1.414 1_554 S
C1055 C1056 1.374 . S
C1056 H1030 0.950 . S
C1056 C1052 1.385 1_554 S
C1056 C1055 1.374 . S
C1057 C1054 1.499 1_554 S
C1057 C1058 1.373 1_554 S
C1057 C1059 1.389 . S
C1058 H1031 0.950 . S
C1058 C1044 1.377 . S
C1058 C1057 1.373 1_556 S
C1059 C1043 1.377 . S
C1059 C1057 1.389 . S
C1059 C1060 1.524 . S
C1060 C1059 1.524 . S
C1060 C1061 1.397 . S
C1060 C1065 1.363 . S
C1061 H1032 0.950 . S
C1061 C1060 1.397 . S
C1061 C1062 1.334 . S
C1062 H1033 0.950 . S
C1062 C1061 1.334 . S
C1062 C1063 1.287 . S
C1063 C1062 1.287 . S
C1063 C1064 1.524 . S
C1063 H1066 0.999 . S
C1064 H1034 0.950 . S
C1064 C1063 1.524 . S
C1064 C1065 1.415 . S
C1065 H1035 0.950 . S
C1065 C1060 1.363 . S
C1065 C1064 1.415 . S
H1066 C1063 0.999 . S
H1067 C1048 0.913 . S
H1068 C1086 0.951 1_565 S
H1069 C1088 0.951 . S
H1070 C1090 0.950 . S
H1071 C1091 0.950 . S
H1072 C1093 0.950 . S
H1073 C1096 0.950 . S
H1074 C1097 0.950 . S
H1075 C1099 0.950 . S
H1076 C1100 0.950 . S
H1077 C1101 0.951 1_545 S
H1078 C1103 0.951 . S
H1079 C1105 0.950 . S
H1080 C1106 0.950 . S
H1081 C1108 0.950 . S
H1082 C1111 0.950 . S
H1083 C1112 0.950 . S
H1084 C1114 0.950 . S
H1085 C1115 0.950 . S
C1086 H1068 0.951 1_545 S
C1086 C1087 1.366 . S
C1086 C1088 1.388 1_545 S
C1087 C1086 1.366 . S
C1087 C1091 1.385 . S
C1088 H1069 0.951 . S
C1088 C1086 1.388 1_565 S
C1088 C1089 1.366 1_565 S
C1089 C1088 1.366 1_545 S
C1089 C1090 1.414 . S
C1089 C1092 1.499 . S
C1090 H1070 0.950 . S
C1090 C1089 1.414 . S
C1090 C1091 1.374 . S
C1091 H1071 0.950 . S
C1091 C1087 1.385 . S
C1091 C1090 1.374 . S
C1092 C1089 1.499 . S
C1092 C1093 1.373 . S
C1092 C1094 1.389 1_545 S
C1093 H1072 0.950 . S
C1093 C1092 1.373 . S
C1093 C1109 1.377 . S
C1094 C1092 1.389 1_565 S
C1094 C1095 1.524 . S
C1094 C1108 1.377 . S
C1095 C1094 1.524 . S
C1095 C1096 1.397 . S
C1095 C1100 1.363 . S
C1096 H1073 0.950 . S
C1096 C1095 1.397 . S
C1096 C1097 1.334 . S
C1097 H1074 0.950 . S
C1097 C1096 1.334 . S
C1097 C1098 1.287 . S
C1098 C1097 1.287 . S
C1098 C1099 1.524 . S
C1098 H1117 0.913 . S
C1099 H1075 0.950 . S
C1099 C1098 1.524 . S
C1099 C1100 1.415 . S
C1100 H1076 0.950 . S
C1100 C1095 1.363 . S
C1100 C1099 1.415 . S
C1101 H1077 0.951 1_565 S
C1101 C1102 1.366 . S
C1101 C1103 1.388 1_565 S
C1102 C1101 1.366 . S
C1102 C1106 1.385 . S
C1103 H1078 0.951 . S
C1103 C1101 1.388 1_545 S
C1103 C1104 1.366 1_545 S
C1104 C1103 1.366 1_565 S
C1104 C1105 1.414 . S
C1104 C1107 1.499 . S
C1105 H1079 0.950 . S
C1105 C1104 1.414 . S
C1105 C1106 1.374 . S
C1106 H1080 0.950 . S
C1106 C1102 1.385 . S
C1106 C1105 1.374 . S
C1107 C1104 1.499 . S
C1107 C1108 1.373 . S
C1107 C1109 1.389 1_565 S
C1108 H1081 0.950 . S
C1108 C1094 1.377 . S
C1108 C1107 1.373 . S
C1109 C1093 1.377 . S
C1109 C1107 1.389 1_545 S
C1109 C1110 1.524 . S
C1110 C1109 1.524 . S
C1110 C1111 1.397 . S
C1110 C1115 1.363 . S
C1111 H1082 0.950 . S
C1111 C1110 1.397 . S
C1111 C1112 1.334 . S
C1112 H1083 0.950 . S
C1112 C1111 1.334 . S
C1112 C1113 1.287 . S
C1113 C1112 1.287 . S
C1113 C1114 1.524 . S
C1113 H1116 0.999 . S
C1114 H1084 0.950 . S
C1114 C1113 1.524 . S
C1114 C1115 1.415 . S
C1115 H1085 0.950 . S
C1115 C1110 1.363 . S
C1115 C1114 1.415 . S
H1116 C1113 0.999 . S
H1117 C1098 0.913 . S
H1118 C1136 0.951 . S
H1119 C1138 0.951 . S
H1120 C1140 0.950 . S
H1121 C1141 0.950 . S
H1122 C1143 0.950 . S
H1123 C1146 0.950 . S
H1124 C1147 0.950 . S
H1125 C1149 0.950 . S
H1126 C1150 0.950 . S
H1127 C1151 0.951 . S
H1128 C1153 0.951 . S
H1129 C1155 0.950 . S
H1130 C1156 0.950 . S
H1131 C1158 0.950 . S
H1132 C1161 0.950 . S
H1133 C1162 0.950 . S
H1134 C1164 0.950 . S
H1135 C1165 0.950 . S
C1136 H1118 0.951 . S
C1136 C1137 1.366 . S
C1136 C1138 1.388 . S
C1137 C1136 1.366 . S
C1137 C1141 1.385 . S
C1138 H1119 0.951 . S
C1138 C1136 1.388 . S
C1138 C1139 1.366 . S
C1139 C1138 1.366 . S
C1139 C1140 1.414 . S
C1139 C1142 1.499 . S
C1140 H1120 0.950 . S
C1140 C1139 1.414 . S
C1140 C1141 1.374 . S
C1141 H1121 0.950 . S
C1141 C1137 1.385 . S
C1141 C1140 1.374 . S
C1142 C1139 1.499 . S
C1142 C1143 1.373 . S
C1142 C1144 1.389 . S
C1143 H1122 0.950 . S
C1143 C1142 1.373 . S
C1143 C1159 1.377 . S
C1144 C1142 1.389 . S
C1144 C1145 1.524 . S
C1144 C1158 1.377 . S
C1145 C1144 1.524 . S
C1145 C1146 1.397 . S
C1145 C1150 1.363 . S
C1146 H1123 0.950 . S
C1146 C1145 1.397 . S
C1146 C1147 1.334 . S
C1147 H1124 0.950 . S
C1147 C1146 1.334 . S
C1147 C1148 1.287 . S
C1148 C1147 1.287 . S
C1148 C1149 1.524 . S
C1148 H1167 0.913 . S
C1149 H1125 0.950 . S
C1149 C1148 1.524 . S
C1149 C1150 1.415 . S
C1150 H1126 0.950 . S
C1150 C1145 1.363 . S
C1150 C1149 1.415 . S
C1151 H1127 0.951 . S
C1151 C1152 1.366 . S
C1151 C1153 1.388 . S
C1152 C1151 1.366 . S
C1152 C1156 1.385 . S
C1153 H1128 0.951 . S
C1153 C1151 1.388 . S
C1153 C1154 1.366 . S
C1154 C1153 1.366 . S
C1154 C1155 1.414 . S
C1154 C1157 1.499 . S
C1155 H1129 0.950 . S
C1155 C1154 1.414 . S
C1155 C1156 1.374 . S
C1156 H1130 0.950 . S
C1156 C1152 1.385 . S
C1156 C1155 1.374 . S
C1157 C1154 1.499 . S
C1157 C1158 1.373 . S
C1157 C1159 1.389 . S
C1158 H1131 0.950 . S
C1158 C1144 1.377 . S
C1158 C1157 1.373 . S
C1159 C1143 1.377 . S
C1159 C1157 1.389 . S
C1159 C1160 1.524 . S
C1160 C1159 1.524 . S
C1160 C1161 1.397 . S
C1160 C1165 1.363 . S
C1161 H1132 0.950 . S
C1161 C1160 1.397 . S
C1161 C1162 1.334 . S
C1162 H1133 0.950 . S
C1162 C1161 1.334 . S
C1162 C1163 1.287 . S
C1163 C1162 1.287 . S
C1163 C1164 1.524 . S
C1163 H1166 0.999 . S
C1164 H1134 0.950 . S
C1164 C1163 1.524 . S
C1164 C1165 1.415 . S
C1165 H1135 0.950 . S
C1165 C1160 1.363 . S
C1165 C1164 1.415 . S
H1166 C1163 0.999 . S
H1167 C1148 0.913 . S
H1168 C1186 0.951 . S
H1169 C1188 0.951 1_655 S
H1170 C1190 0.950 . S
H1171 C1191 0.950 . S
H1172 C1193 0.950 . S
H1173 C1196 0.950 . S
H1174 C1197 0.950 . S
H1175 C1199 0.950 . S
H1176 C1200 0.950 . S
H1177 C1201 0.951 . S
H1178 C1203 0.951 1_455 S
H1179 C1205 0.950 . S
H1180 C1206 0.950 . S
H1181 C1208 0.950 . S
H1182 C1211 0.950 . S
H1183 C1212 0.950 . S
H1184 C1214 0.950 . S
H1185 C1215 0.950 . S
C1186 H1168 0.951 . S
C1186 C1187 1.366 . S
C1186 C1188 1.388 . S
C1187 C1186 1.366 . S
C1187 C1191 1.385 . S
C1188 H1169 0.951 1_455 S
C1188 C1186 1.388 . S
C1188 C1189 1.366 . S
C1189 C1188 1.366 . S
C1189 C1190 1.414 . S
C1189 C1192 1.499 . S
C1190 H1170 0.950 . S
C1190 C1189 1.414 . S
C1190 C1191 1.374 . S
C1191 H1171 0.950 . S
C1191 C1187 1.385 . S
C1191 C1190 1.374 . S
C1192 C1189 1.499 . S
C1192 C1193 1.373 1_455 S
C1192 C1194 1.389 . S
C1193 H1172 0.950 . S
C1193 C1192 1.373 1_655 S
C1193 C1209 1.377 . S
C1194 C1192 1.389 . S
C1194 C1195 1.524 . S
C1194 C1208 1.377 . S
C1195 C1194 1.524 . S
C1195 C1196 1.397 . S
C1195 C1200 1.363 . S
C1196 H1173 0.950 . S
C1196 C1195 1.397 . S
C1196 C1197 1.334 . S
C1197 H1174 0.950 . S
C1197 C1196 1.334 . S
C1197 C1198 1.287 . S
C1198 C1197 1.287 . S
C1198 C1199 1.524 . S
C1198 H1217 0.913 . S
C1199 H1175 0.950 . S
C1199 C1198 1.524 . S
C1199 C1200 1.415 . S
C1200 H1176 0.950 . S
C1200 C1195 1.363 . S
C1200 C1199 1.415 . S
C1201 H1177 0.951 . S
C1201 C1202 1.366 . S
C1201 C1203 1.388 . S
C1202 C1201 1.366 . S
C1202 C1206 1.385 . S
C1203 H1178 0.951 1_655 S
C1203 C1201 1.388 . S
C1203 C1204 1.366 . S
C1204 C1203 1.366 . S
C1204 C1205 1.414 . S
C1204 C1207 1.499 . S
C1205 H1179 0.950 . S
C1205 C1204 1.414 . S
C1205 C1206 1.374 . S
C1206 H1180 0.950 . S
C1206 C1202 1.385 . S
C1206 C1205 1.374 . S
C1207 C1204 1.499 . S
C1207 C1208 1.373 1_655 S
C1207 C1209 1.389 . S
C1208 H1181 0.950 . S
C1208 C1194 1.377 . S
C1208 C1207 1.373 1_455 S
C1209 C1193 1.377 . S
C1209 C1207 1.389 . S
C1209 C1210 1.524 . S
C1210 C1209 1.524 . S
C1210 C1211 1.397 . S
C1210 C1215 1.363 . S
C1211 H1182 0.950 . S
C1211 C1210 1.397 . S
C1211 C1212 1.334 . S
C1212 H1183 0.950 . S
C1212 C1211 1.334 . S
C1212 C1213 1.287 . S
C1213 C1212 1.287 . S
C1213 C1214 1.524 . S
C1213 H1216 0.999 . S
C1214 H1184 0.950 . S
C1214 C1213 1.524 . S
C1214 C1215 1.415 . S
C1215 H1185 0.950 . S
C1215 C1210 1.363 . S
C1215 C1214 1.415 . S
H1216 C1213 0.999 . S
H1217 C1198 0.913 . S
H1218 C1236 0.951 . S
H1219 C1238 0.951 . S
H1220 C1240 0.950 1_545 S
H1221 C1241 0.950 . S
H1222 C1243 0.950 . S
H1223 C1246 0.950 . S
H1224 C1247 0.950 . S
H1225 C1249 0.950 . S
H1226 C1250 0.950 . S
H1227 C1251 0.951 . S
H1228 C1253 0.951 . S
H1229 C1255 0.950 1_565 S
H1230 C1256 0.950 . S
H1231 C1258 0.950 . S
H1232 C1261 0.950 . S
H1233 C1262 0.950 . S
H1234 C1264 0.950 . S
H1235 C1265 0.950 . S
C1236 H1218 0.951 . S
C1236 C1237 1.366 . S
C1236 C1238 1.388 . S
C1237 C1236 1.366 . S
C1237 C1241 1.385 . S
C1238 H1219 0.951 . S
C1238 C1236 1.388 . S
C1238 C1239 1.366 . S
C1239 C1238 1.366 . S
C1239 C1240 1.414 . S
C1239 C1242 1.499 . S
C1240 H1220 0.950 1_565 S
C1240 C1239 1.414 . S
C1240 C1241 1.374 . S
C1241 H1221 0.950 . S
C1241 C1237 1.385 . S
C1241 C1240 1.374 . S
C1242 C1239 1.499 . S
C1242 C1243 1.373 . S
C1242 C1244 1.389 1_565 S
C1243 H1222 0.950 . S
C1243 C1242 1.373 . S
C1243 C1259 1.377 . S
C1244 C1242 1.389 1_545 S
C1244 C1245 1.524 . S
C1244 C1258 1.377 . S
C1245 C1244 1.524 . S
C1245 C1246 1.397 . S
C1245 C1250 1.363 . S
C1246 H1223 0.950 . S
C1246 C1245 1.397 . S
C1246 C1247 1.334 . S
C1247 H1224 0.950 . S
C1247 C1246 1.334 . S
C1247 C1248 1.287 . S
C1248 C1247 1.287 . S
C1248 C1249 1.524 . S
C1248 H1267 0.913 . S
C1249 H1225 0.950 . S
C1249 C1248 1.524 . S
C1249 C1250 1.415 . S
C1250 H1226 0.950 . S
C1250 C1245 1.363 . S
C1250 C1249 1.415 . S
C1251 H1227 0.951 . S
C1251 C1252 1.366 . S
C1251 C1253 1.388 . S
C1252 C1251 1.366 . S
C1252 C1256 1.385 . S
C1253 H1228 0.951 . S
C1253 C1251 1.388 . S
C1253 C1254 1.366 . S
C1254 C1253 1.366 . S
C1254 C1255 1.414 . S
C1254 C1257 1.499 . S
C1255 H1229 0.950 1_545 S
C1255 C1254 1.414 . S
C1255 C1256 1.374 . S
C1256 H1230 0.950 . S
C1256 C1252 1.385 . S
C1256 C1255 1.374 . S
C1257 C1254 1.499 . S
C1257 C1258 1.373 . S
C1257 C1259 1.389 1_545 S
C1258 H1231 0.950 . S
C1258 C1244 1.377 . S
C1258 C1257 1.373 . S
C1259 C1243 1.377 . S
C1259 C1257 1.389 1_565 S
C1259 C1260 1.524 . S
C1260 C1259 1.524 . S
C1260 C1261 1.397 . S
C1260 C1265 1.363 . S
C1261 H1232 0.950 . S
C1261 C1260 1.397 . S
C1261 C1262 1.334 . S
C1262 H1233 0.950 . S
C1262 C1261 1.334 . S
C1262 C1263 1.287 . S
C1263 C1262 1.287 . S
C1263 C1264 1.524 . S
C1263 H1266 0.999 . S
C1264 H1234 0.950 . S
C1264 C1263 1.524 . S
C1264 C1265 1.415 . S
C1265 H1235 0.950 . S
C1265 C1260 1.363 . S
C1265 C1264 1.415 . S
H1266 C1263 0.999 . S
H1267 C1248 0.913 . S
H1268 C1286 0.951 . S
H1269 C1288 0.951 . S
H1270 C1290 0.950 . S
H1271 C1291 0.950 . S
H1272 C1293 0.950 . S
H1273 C1296 0.950 . S
H1274 C1297 0.950 . S
H1275 C1299 0.950 . S
H1276 C1300 0.950 . S
H1277 C1301 0.951 . S
H1278 C1303 0.951 . S
H1279 C1305 0.950 . S
H1280 C1306 0.950 . S
H1281 C1308 0.950 . S
H1282 C1311 0.950 . S
H1283 C1312 0.950 . S
H1284 C1314 0.950 . S
H1285 C1315 0.950 . S
C1286 H1268 0.951 . S
C1286 C1287 1.366 . S
C1286 C1288 1.388 . S
C1287 C1286 1.366 . S
C1287 C1291 1.385 . S
C1288 H1269 0.951 . S
C1288 C1286 1.388 . S
C1288 C1289 1.366 . S
C1289 C1288 1.366 . S
C1289 C1290 1.414 . S
C1289 C1292 1.499 . S
C1290 H1270 0.950 . S
C1290 C1289 1.414 . S
C1290 C1291 1.374 . S
C1291 H1271 0.950 . S
C1291 C1287 1.385 . S
C1291 C1290 1.374 . S
C1292 C1289 1.499 . S
C1292 C1293 1.373 . S
C1292 C1294 1.389 . S
C1293 H1272 0.950 . S
C1293 C1292 1.373 . S
C1293 C1309 1.377 . S
C1294 C1292 1.389 . S
C1294 C1295 1.524 . S
C1294 C1308 1.377 . S
C1295 C1294 1.524 . S
C1295 C1296 1.397 . S
C1295 C1300 1.363 . S
C1296 H1273 0.950 . S
C1296 C1295 1.397 . S
C1296 C1297 1.334 . S
C1297 H1274 0.950 . S
C1297 C1296 1.334 . S
C1297 C1298 1.287 . S
C1298 C1297 1.287 . S
C1298 C1299 1.524 . S
C1298 H1317 0.913 . S
C1299 H1275 0.950 . S
C1299 C1298 1.524 . S
C1299 C1300 1.415 . S
C1300 H1276 0.950 . S
C1300 C1295 1.363 . S
C1300 C1299 1.415 . S
C1301 H1277 0.951 . S
C1301 C1302 1.366 . S
C1301 C1303 1.388 . S
C1302 C1301 1.366 . S
C1302 C1306 1.385 . S
C1303 H1278 0.951 . S
C1303 C1301 1.388 . S
C1303 C1304 1.366 . S
C1304 C1303 1.366 . S
C1304 C1305 1.414 . S
C1304 C1307 1.499 . S
C1305 H1279 0.950 . S
C1305 C1304 1.414 . S
C1305 C1306 1.374 . S
C1306 H1280 0.950 . S
C1306 C1302 1.385 . S
C1306 C1305 1.374 . S
C1307 C1304 1.499 . S
C1307 C1308 1.373 . S
C1307 C1309 1.389 . S
C1308 H1281 0.950 . S
C1308 C1294 1.377 . S
C1308 C1307 1.373 . S
C1309 C1293 1.377 . S
C1309 C1307 1.389 . S
C1309 C1310 1.524 . S
C1310 C1309 1.524 . S
C1310 C1311 1.397 . S
C1310 C1315 1.363 . S
C1311 H1282 0.950 . S
C1311 C1310 1.397 . S
C1311 C1312 1.334 . S
C1312 H1283 0.950 . S
C1312 C1311 1.334 . S
C1312 C1313 1.287 . S
C1313 C1312 1.287 . S
C1313 C1314 1.524 . S
C1313 H1316 0.999 . S
C1314 H1284 0.950 . S
C1314 C1313 1.524 . S
C1314 C1315 1.415 . S
C1315 H1285 0.950 . S
C1315 C1310 1.363 . S
C1315 C1314 1.415 . S
H1316 C1313 0.999 . S
H1317 C1298 0.913 . S
H1318 C1336 0.951 . S
H1319 C1338 0.951 . S
H1320 C1340 0.950 . S
H1321 C1341 0.950 . S
H1322 C1343 0.950 . S
H1323 C1346 0.950 . S
H1324 C1347 0.950 . S
H1325 C1349 0.950 . S
H1326 C1350 0.950 . S
H1327 C1351 0.951 . S
H1328 C1353 0.951 . S
H1329 C1355 0.950 . S
H1330 C1356 0.950 . S
H1331 C1358 0.950 . S
H1332 C1361 0.950 . S
H1333 C1362 0.950 . S
H1334 C1364 0.950 . S
H1335 C1365 0.950 . S
C1336 H1318 0.951 . S
C1336 C1337 1.366 1_455 S
C1336 C1338 1.388 . S
C1337 C1336 1.366 1_655 S
C1337 C1341 1.385 . S
C1338 H1319 0.951 . S
C1338 C1336 1.388 . S
C1338 C1339 1.366 1_455 S
C1339 C1338 1.366 1_655 S
C1339 C1340 1.414 . S
C1339 C1342 1.499 . S
C1340 H1320 0.950 . S
C1340 C1339 1.414 . S
C1340 C1341 1.374 . S
C1341 H1321 0.950 . S
C1341 C1337 1.385 . S
C1341 C1340 1.374 . S
C1342 C1339 1.499 . S
C1342 C1343 1.373 . S
C1342 C1344 1.389 1_655 S
C1343 H1322 0.950 . S
C1343 C1342 1.373 . S
C1343 C1359 1.377 . S
C1344 C1342 1.389 1_455 S
C1344 C1345 1.524 . S
C1344 C1358 1.377 . S
C1345 C1344 1.524 . S
C1345 C1346 1.397 . S
C1345 C1350 1.363 . S
C1346 H1323 0.950 . S
C1346 C1345 1.397 . S
C1346 C1347 1.334 . S
C1347 H1324 0.950 . S
C1347 C1346 1.334 . S
C1347 C1348 1.287 . S
C1348 C1347 1.287 . S
C1348 C1349 1.524 . S
C1348 H1367 0.913 . S
C1349 H1325 0.950 . S
C1349 C1348 1.524 . S
C1349 C1350 1.415 . S
C1350 H1326 0.950 . S
C1350 C1345 1.363 . S
C1350 C1349 1.415 . S
C1351 H1327 0.951 . S
C1351 C1352 1.366 1_655 S
C1351 C1353 1.388 . S
C1352 C1351 1.366 1_455 S
C1352 C1356 1.385 . S
C1353 H1328 0.951 . S
C1353 C1351 1.388 . S
C1353 C1354 1.366 1_655 S
C1354 C1353 1.366 1_455 S
C1354 C1355 1.414 . S
C1354 C1357 1.499 . S
C1355 H1329 0.950 . S
C1355 C1354 1.414 . S
C1355 C1356 1.374 . S
C1356 H1330 0.950 . S
C1356 C1352 1.385 . S
C1356 C1355 1.374 . S
C1357 C1354 1.499 . S
C1357 C1358 1.373 . S
C1357 C1359 1.389 1_455 S
C1358 H1331 0.950 . S
C1358 C1344 1.377 . S
C1358 C1357 1.373 . S
C1359 C1343 1.377 . S
C1359 C1357 1.389 1_655 S
C1359 C1360 1.524 . S
C1360 C1359 1.524 . S
C1360 C1361 1.397 . S
C1360 C1365 1.363 . S
C1361 H1332 0.950 . S
C1361 C1360 1.397 . S
C1361 C1362 1.334 . S
C1362 H1333 0.950 . S
C1362 C1361 1.334 . S
C1362 C1363 1.287 . S
C1363 C1362 1.287 . S
C1363 C1364 1.524 . S
C1363 H1366 0.999 . S
C1364 H1334 0.950 . S
C1364 C1363 1.524 . S
C1364 C1365 1.415 . S
C1365 H1335 0.950 . S
C1365 C1360 1.363 . S
C1365 C1364 1.415 . S
H1366 C1363 0.999 . S
H1367 C1348 0.913 . S
C187 C6 1.729 . S
C202 C118 1.729 . S
C237 C20 1.729 . S
C252 C132 1.730 . S
C287 C146 1.729 . S
C302 C34 1.729 . S
C337 C160 1.729 . S
C352 C48 1.729 . S
C387 C90 1.729 . S
C402 C62 1.729 . S
C437 C104 1.729 . S
C452 C76 1.729 . S
C487 C7 1.798 . S
C502 C49 1.798 . S
C537 C63 1.798 . S
C552 C21 1.798 . S
C587 C77 1.797 . S
C602 C35 1.797 . S
C637 C91 1.798 . S
C652 C133 1.798 . S
C687 C147 1.797 . S
C702 C105 1.797 . S
C737 C119 1.798 . S
C752 C161 1.798 . S
C787 C92 1.084 . S
C802 C8 1.084 . S
C837 C22 1.084 . S
C852 C106 1.084 . S
C887 C120 1.084 . S
C902 C36 1.084 . S
C937 C134 1.084 . S
C952 C50 1.084 . S
C987 C64 1.084 . S
C1002 C148 1.084 . S
C1037 C162 1.084 . S
C1052 C78 1.084 . S
C1087 C9 0.942 . S
C1102 C107 0.942 . S
C1137 C121 0.941 . S
C1152 C23 0.941 . S
C1187 C135 0.941 . S
C1202 C37 0.942 . S
C1237 C51 0.942 . S
C1252 C149 0.942 . S
C1287 C163 0.942 . S
C1302 C65 0.942 . S
C1337 C93 0.942 . S
C1352 C79 0.943 . S
