# Generated by pormake.
# Topology sth, (5)-cn, num edge types: 1
# Building blocks:
#     Node 0, Type 0, BuildingBlock: BEQFEK_clean_sbu_0, # of connection points: 5
#     Node 1, Type 0, BuildingBlock: BEQFEK_clean_sbu_0, # of connection points: 5
#     Node 2, Type 0, BuildingBlock: BEQFEK_clean_sbu_0, # of connection points: 5
#     Node 3, Type 0, BuildingBlock: BEQFEK_clean_sbu_0, # of connection points: 5
#     Node 4, Type 0, BuildingBlock: BEQFEK_clean_sbu_0, # of connection points: 5
#     Node 5, Type 0, BuildingBlock: BEQFEK_clean_sbu_0, # of connection points: 5
#     Node 6, Type 0, BuildingBlock: BEQFEK_clean_sbu_0, # of connection points: 5
#     Node 7, Type 0, BuildingBlock: BEQFEK_clean_sbu_0, # of connection points: 5
#     Node 8, Type 0, BuildingBlock: BEQFEK_clean_sbu_0, # of connection points: 5
#     Node 9, Type 0, BuildingBlock: BEQFEK_clean_sbu_0, # of connection points: 5
#     Node 10, Type 0, BuildingBlock: BEQFEK_clean_sbu_0, # of connection points: 5
#     Node 11, Type 0, BuildingBlock: BEQFEK_clean_sbu_0, # of connection points: 5
#     Node 12, Type 0, BuildingBlock: BEQFEK_clean_sbu_0, # of connection points: 5
#     Node 13, Type 0, BuildingBlock: BEQFEK_clean_sbu_0, # of connection points: 5
#     Node 14, Type 0, BuildingBlock: BEQFEK_clean_sbu_0, # of connection points: 5
#     Node 15, Type 0, BuildingBlock: BEQFEK_clean_sbu_0, # of connection points: 5
#     Node 16, Type 0, BuildingBlock: BEQFEK_clean_sbu_0, # of connection points: 5
#     Node 17, Type 0, BuildingBlock: BEQFEK_clean_sbu_0, # of connection points: 5
#     Edge 18, Type (0, 0), BuildingBlock: KIFKEQ_clean_linker_1, # of connection points: 2
#     Edge 19, Type (0, 0), BuildingBlock: KIFKEQ_clean_linker_1, # of connection points: 2
#     Edge 20, Type (0, 0), BuildingBlock: KIFKEQ_clean_linker_1, # of connection points: 2
#     Edge 21, Type (0, 0), BuildingBlock: KIFKEQ_clean_linker_1, # of connection points: 2
#     Edge 22, Type (0, 0), BuildingBlock: KIFKEQ_clean_linker_1, # of connection points: 2
#     Edge 23, Type (0, 0), BuildingBlock: KIFKEQ_clean_linker_1, # of connection points: 2
#     Edge 24, Type (0, 0), BuildingBlock: KIFKEQ_clean_linker_1, # of connection points: 2
#     Edge 25, Type (0, 0), BuildingBlock: KIFKEQ_clean_linker_1, # of connection points: 2
#     Edge 26, Type (0, 0), BuildingBlock: KIFKEQ_clean_linker_1, # of connection points: 2
#     Edge 27, Type (0, 0), BuildingBlock: KIFKEQ_clean_linker_1, # of connection points: 2
#     Edge 28, Type (0, 0), BuildingBlock: KIFKEQ_clean_linker_1, # of connection points: 2
#     Edge 29, Type (0, 0), BuildingBlock: KIFKEQ_clean_linker_1, # of connection points: 2
#     Edge 30, Type (0, 0), BuildingBlock: KIFKEQ_clean_linker_1, # of connection points: 2
#     Edge 31, Type (0, 0), BuildingBlock: KIFKEQ_clean_linker_1, # of connection points: 2
#     Edge 32, Type (0, 0), BuildingBlock: KIFKEQ_clean_linker_1, # of connection points: 2
#     Edge 33, Type (0, 0), BuildingBlock: KIFKEQ_clean_linker_1, # of connection points: 2
#     Edge 34, Type (0, 0), BuildingBlock: KIFKEQ_clean_linker_1, # of connection points: 2
#     Edge 35, Type (0, 0), BuildingBlock: KIFKEQ_clean_linker_1, # of connection points: 2
#     Edge 36, Type (0, 0), BuildingBlock: KIFKEQ_clean_linker_1, # of connection points: 2
#     Edge 37, Type (0, 0), BuildingBlock: KIFKEQ_clean_linker_1, # of connection points: 2
#     Edge 38, Type (0, 0), BuildingBlock: KIFKEQ_clean_linker_1, # of connection points: 2
#     Edge 39, Type (0, 0), BuildingBlock: KIFKEQ_clean_linker_1, # of connection points: 2
#     Edge 40, Type (0, 0), BuildingBlock: KIFKEQ_clean_linker_1, # of connection points: 2
#     Edge 41, Type (0, 0), BuildingBlock: KIFKEQ_clean_linker_1, # of connection points: 2
#     Edge 42, Type (0, 0), BuildingBlock: KIFKEQ_clean_linker_1, # of connection points: 2
#     Edge 43, Type (0, 0), BuildingBlock: KIFKEQ_clean_linker_1, # of connection points: 2
#     Edge 44, Type (0, 0), BuildingBlock: KIFKEQ_clean_linker_1, # of connection points: 2
#     Edge 45, Type (0, 0), BuildingBlock: KIFKEQ_clean_linker_1, # of connection points: 2
#     Edge 46, Type (0, 0), BuildingBlock: KIFKEQ_clean_linker_1, # of connection points: 2
#     Edge 47, Type (0, 0), BuildingBlock: KIFKEQ_clean_linker_1, # of connection points: 2
#     Edge 48, Type (0, 0), BuildingBlock: KIFKEQ_clean_linker_1, # of connection points: 2
#     Edge 49, Type (0, 0), BuildingBlock: KIFKEQ_clean_linker_1, # of connection points: 2
#     Edge 50, Type (0, 0), BuildingBlock: KIFKEQ_clean_linker_1, # of connection points: 2
#     Edge 51, Type (0, 0), BuildingBlock: KIFKEQ_clean_linker_1, # of connection points: 2
#     Edge 52, Type (0, 0), BuildingBlock: KIFKEQ_clean_linker_1, # of connection points: 2
#     Edge 53, Type (0, 0), BuildingBlock: KIFKEQ_clean_linker_1, # of connection points: 2
#     Edge 54, Type (0, 0), BuildingBlock: KIFKEQ_clean_linker_1, # of connection points: 2
#     Edge 55, Type (0, 0), BuildingBlock: KIFKEQ_clean_linker_1, # of connection points: 2
#     Edge 56, Type (0, 0), BuildingBlock: KIFKEQ_clean_linker_1, # of connection points: 2
#     Edge 57, Type (0, 0), BuildingBlock: KIFKEQ_clean_linker_1, # of connection points: 2
#     Edge 58, Type (0, 0), BuildingBlock: KIFKEQ_clean_linker_1, # of connection points: 2
#     Edge 59, Type (0, 0), BuildingBlock: KIFKEQ_clean_linker_1, # of connection points: 2
#     Edge 60, Type (0, 0), BuildingBlock: KIFKEQ_clean_linker_1, # of connection points: 2
#     Edge 61, Type (0, 0), BuildingBlock: KIFKEQ_clean_linker_1, # of connection points: 2
#     Edge 62, Type (0, 0), BuildingBlock: KIFKEQ_clean_linker_1, # of connection points: 2
# Relax obj value: 0.261
# Max RMSD: 0.160
# Mean RMSD: 0.160
data_MOF--net-sth--node1-BEQFEK_clean_sbu_0--edge1-KIFKEQ_clean_linker_1
_symmetry_space_group_name_H-M    P1
_symmetry_Int_Tables_number       1
_symmetry_cell_setting            triclinic
loop_
_symmetry_equiv_pos_as_xyz
'x, y, z'
_cell_length_a     44.842738
_cell_length_b     44.80593
_cell_length_c     67.853104
_cell_angle_alpha  89.979532
_cell_angle_beta   90.014385
_cell_angle_gamma 120.00908
loop_
_atom_site_label
_atom_site_type_symbol
_atom_site_fract_x
_atom_site_fract_y
_atom_site_fract_z
_atom_type_partial_charge
Co0 Co 0.06963 0.24209 0.23765 0.0
Co1 Co 0.14272 0.30602 0.22863 0.0
C2 C 0.0794 0.29646 0.20804 0.0
O3 O 0.06042 0.26884 0.21761 0.0
O4 O 0.11198 0.31304 0.21037 0.0
C5 C 0.99751 0.18755 0.23467 0.0
O6 O 0.99205 0.21114 0.22673 0.0
C7 C 0.20765 0.34861 0.20703 0.0
C8 C 0.24163 0.38188 0.23086 0.0
C9 C 0.24113 0.37459 0.21099 0.0
N10 N 0.18946 0.34063 0.22388 0.0
N11 N 0.20988 0.36078 0.23802 0.0
C12 C 0.19254 0.3329 0.18746 0.0
H13 H 0.16418 0.32157 0.18765 0.0
H14 H 0.19818 0.31201 0.18413 0.0
H15 H 0.20404 0.35255 0.17562 0.0
C16 C 0.10791 0.20554 0.23002 0.0
N17 N 0.10628 0.23475 0.22999 0.0
N18 N 0.13729 0.26116 0.22689 0.0
C19 C 0.15979 0.24949 0.22535 0.0
C20 C 0.1418 0.21383 0.22719 0.0
C21 C 0.07767 0.1704 0.2335 0.0
H22 H 0.06861 0.16868 0.2489 0.0
H23 H 0.05645 0.1662 0.22341 0.0
H24 H 0.08414 0.14985 0.23091 0.0
O25 O 0.08119 0.26763 0.2632 0.0
O26 O 0.13177 0.31329 0.2557 0.0
H27 H 0.20596 0.29421 0.2353 0.0
H28 H 0.21117 0.25766 0.22977 0.0
C29 C 0.19815 0.27208 0.22521 0.0
H30 H 0.20679 0.28206 0.21012 0.0
H31 H 0.20225 0.35988 0.25263 0.0
O32 O 0.02752 0.19598 0.24078 0.0
C33 C 0.10726 0.29657 0.26782 0.0
Co34 Co 0.7847 0.83325 0.23875 0.0
Co35 Co 0.72482 0.84787 0.22769 0.0
C36 C 0.72833 0.78997 0.20902 0.0
O37 O 0.75519 0.79752 0.21912 0.0
O38 O 0.71355 0.80793 0.21022 0.0
C39 C 0.84058 0.82194 0.22803 0.0
O40 O 0.82179 0.80768 0.21226 0.0
C41 C 0.67885 0.86832 0.20748 0.0
C42 C 0.66827 0.89395 0.23213 0.0
C43 C 0.66236 0.88666 0.21222 0.0
N44 N 0.69405 0.86527 0.22387 0.0
N45 N 0.68708 0.88015 0.23858 0.0
C46 C 0.68326 0.85718 0.18744 0.0
H47 H 0.70632 0.8541 0.18706 0.0
H48 H 0.6856 0.87613 0.17612 0.0
H49 H 0.66025 0.83198 0.18391 0.0
C50 C 0.82575 0.90824 0.23132 0.0
N51 N 0.79567 0.87821 0.23069 0.0
N52 N 0.77113 0.88414 0.22488 0.0
C53 C 0.78505 0.91814 0.22114 0.0
C54 C 0.82013 0.93467 0.22525 0.0
C55 C 0.85804 0.91188 0.24014 0.0
H56 H 0.85158 0.89484 0.25319 0.0
H57 H 0.87091 0.90384 0.22911 0.0
H58 H 0.87613 0.93875 0.24476 0.0
O59 O 0.75951 0.82173 0.2642 0.0
O60 O 0.71756 0.83181 0.25544 0.0
H61 H 0.75013 0.93668 0.22634 0.0
H62 H 0.78234 0.96063 0.20785 0.0
C63 C 0.76509 0.93456 0.21395 0.0
H64 H 0.74694 0.91839 0.20228 0.0
H65 H 0.69635 0.88206 0.2529 0.0
O66 O 0.82894 0.83303 0.24154 0.0
C67 C 0.73215 0.82254 0.26822 0.0
Co68 Co 0.19277 0.96008 0.23778 0.0
Co69 Co 0.18033 0.88588 0.22752 0.0
C70 C 0.23714 0.94864 0.2085 0.0
O71 O 0.22909 0.96795 0.2182 0.0
O72 O 0.21988 0.91594 0.2102 0.0
C73 C 0.2116 0.03217 0.23286 0.0
O74 O 0.23701 0.03476 0.22199 0.0
C75 C 0.16032 0.82063 0.20598 0.0
C76 C 0.1446 0.78409 0.2309 0.0
C77 C 0.14685 0.78583 0.21052 0.0
N78 N 0.16508 0.83817 0.22291 0.0
N79 N 0.15588 0.81614 0.23771 0.0
C80 C 0.16958 0.83736 0.18611 0.0
H81 H 0.1894 0.86492 0.18741 0.0
H82 H 0.14641 0.83586 0.17925 0.0
H83 H 0.17926 0.82414 0.17641 0.0
C84 C 0.11825 0.92494 0.22918 0.0
N85 N 0.14846 0.92527 0.22939 0.0
N86 N 0.14296 0.89436 0.22482 0.0
C87 C 0.10894 0.87344 0.22148 0.0
C88 C 0.09224 0.89217 0.22414 0.0
C89 C 0.11419 0.955 0.23479 0.0
H90 H 0.12354 0.96297 0.25009 0.0
H91 H 0.13019 0.97698 0.22487 0.0
H92 H 0.087 0.94885 0.23371 0.0
O93 O 0.20441 0.94644 0.26328 0.0
O94 O 0.1971 0.89515 0.25508 0.0
H95 H 0.09822 0.82333 0.23054 0.0
H96 H 0.06382 0.8233 0.21667 0.0
C97 C 0.09219 0.83544 0.21808 0.0
H98 H 0.10263 0.83062 0.20441 0.0
H99 H 0.15682 0.82294 0.2525 0.0
O100 O 0.19139 1.00363 0.24123 0.0
C101 C 0.20544 0.91925 0.26759 0.0
Co102 Co 0.24751 0.06314 0.76851 0.0
Co103 Co 0.30904 0.13834 0.77646 0.0
C104 C 0.30539 0.07694 0.79643 0.0
O105 O 0.27691 0.05655 0.78802 0.0
O106 O 0.32072 0.10937 0.79344 0.0
C107 C 0.19081 0.99595 0.77914 0.0
O108 O 0.2098 0.99944 0.79466 0.0
C109 C 0.3525 0.20425 0.79714 0.0
C110 C 0.37718 0.23945 0.77196 0.0
C111 C 0.37496 0.23868 0.79235 0.0
N112 N 0.34197 0.18595 0.78033 0.0
N113 N 0.35713 0.2071 0.76538 0.0
C114 C 0.33879 0.18908 0.817 0.0
H115 H 0.31463 0.16393 0.81549 0.0
H116 H 0.334 0.20695 0.82598 0.0
H117 H 0.35803 0.18462 0.82473 0.0
C118 C 0.20789 0.09821 0.77715 0.0
N119 N 0.23794 0.09821 0.77666 0.0
N120 N 0.26336 0.12962 0.78024 0.0
C121 C 0.25016 0.15061 0.78299 0.0
C122 C 0.21459 0.13133 0.78119 0.0
C123 C 0.17356 0.06743 0.77268 0.0
H124 H 0.16857 0.04651 0.78321 0.0
H125 H 0.15238 0.07334 0.7739 0.0
H126 H 0.17391 0.05812 0.75758 0.0
O127 O 0.27142 0.07547 0.74232 0.0
O128 O 0.31372 0.12863 0.74878 0.0
H129 H 0.25513 0.20132 0.78309 0.0
H130 H 0.28452 0.19619 0.79888 0.0
C131 C 0.27125 0.18905 0.78443 0.0
H132 H 0.291 0.19913 0.77264 0.0
H133 H 0.35313 0.1996 0.75061 0.0
O134 O 0.2026 0.01926 0.76594 0.0
C135 C 0.2979 0.1035 0.73694 0.0
Co136 Co 0.96593 0.19048 0.76798 0.0
Co137 Co 0.89176 0.17815 0.77807 0.0
C138 C 0.9545 0.23546 0.7968 0.0
O139 O 0.97381 0.22732 0.78719 0.0
O140 O 0.92183 0.21808 0.79514 0.0
C141 C 0.03527 0.20444 0.77628 0.0
O142 O 0.03478 0.22446 0.79026 0.0
C143 C 0.82682 0.15995 0.79941 0.0
C144 C 0.78924 0.13732 0.77509 0.0
C145 C 0.79165 0.14347 0.79521 0.0
N146 N 0.84395 0.16245 0.78262 0.0
N147 N 0.82131 0.1493 0.76814 0.0
C148 C 0.84417 0.17378 0.81881 0.0
H149 H 0.87037 0.19593 0.81661 0.0
H150 H 0.84652 0.15342 0.82677 0.0
H151 H 0.82919 0.18218 0.82797 0.0
C152 C 0.93133 0.11634 0.77783 0.0
N153 N 0.93134 0.14638 0.7768 0.0
N154 N 0.90041 0.14092 0.78117 0.0
C155 C 0.87972 0.10707 0.78511 0.0
C156 C 0.89863 0.0904 0.78313 0.0
C157 C 0.96102 0.11207 0.77162 0.0
H158 H 0.97024 0.12404 0.75692 0.0
H159 H 0.98242 0.1256 0.78229 0.0
H160 H 0.95396 0.08459 0.77081 0.0
O161 O 0.95208 0.20138 0.74231 0.0
O162 O 0.90089 0.19432 0.75043 0.0
H163 H 0.82792 0.09202 0.77729 0.0
H164 H 0.83148 0.0635 0.79477 0.0
C165 C 0.84236 0.09079 0.79024 0.0
H166 H 0.83911 0.10521 0.8025 0.0
H167 H 0.8277 0.14768 0.75354 0.0
O168 O 1.0095 0.18913 0.76481 0.0
C169 C 0.9249 0.20234 0.73791 0.0
Co170 Co 0.83649 0.78251 0.76776 0.0
Co171 Co 0.85105 0.72252 0.77879 0.0
C172 C 0.79267 0.72599 0.79705 0.0
O173 O 0.80036 0.75303 0.78711 0.0
O174 O 0.81065 0.71128 0.7958 0.0
C175 C 0.83492 0.84055 0.78174 0.0
O176 O 0.83401 0.82513 0.79839 0.0
C177 C 0.87138 0.6769 0.7998 0.0
C178 C 0.89165 0.66074 0.77482 0.0
C179 C 0.88693 0.65752 0.79506 0.0
N180 N 0.86782 0.69121 0.78314 0.0
N181 N 0.87973 0.68113 0.76829 0.0
C182 C 0.85917 0.68112 0.81957 0.0
H183 H 0.83829 0.68729 0.81799 0.0
H184 H 0.88081 0.70278 0.8275 0.0
H185 H 0.84975 0.65728 0.82846 0.0
C186 C 0.91158 0.82364 0.77571 0.0
N187 N 0.88148 0.79355 0.77609 0.0
N188 N 0.88733 0.76883 0.78175 0.0
C189 C 0.92128 0.78263 0.78554 0.0
C190 C 0.93771 0.81777 0.78182 0.0
C191 C 0.91555 0.85702 0.76849 0.0
H192 H 0.9066 0.86807 0.78013 0.0
H193 H 0.94276 0.87608 0.76509 0.0
H194 H 0.89952 0.8525 0.75516 0.0
O195 O 0.82525 0.7574 0.7422 0.0
O196 O 0.83549 0.71551 0.75099 0.0
H197 H 0.93551 0.74524 0.77775 0.0
H198 H 0.96613 0.77898 0.7936 0.0
C199 C 0.93832 0.76213 0.79039 0.0
H200 H 0.92557 0.74563 0.80337 0.0
H201 H 0.88026 0.68869 0.75369 0.0
O202 O 0.83523 0.82622 0.7656 0.0
C203 C 0.82622 0.73007 0.73819 0.0
Co204 Co 0.73762 0.57505 0.57142 0.0
Co205 Co 0.81124 0.63811 0.56199 0.0
C206 C 0.74808 0.63057 0.54235 0.0
O207 O 0.72889 0.60287 0.55183 0.0
O208 O 0.78071 0.64656 0.54443 0.0
C209 C 0.66584 0.51997 0.56678 0.0
O210 O 0.66141 0.54281 0.55705 0.0
C211 C 0.87635 0.68169 0.5406 0.0
C212 C 0.91043 0.71227 0.5651 0.0
C213 C 0.91018 0.70694 0.54495 0.0
N214 N 0.85805 0.67266 0.55744 0.0
N215 N 0.8785 0.6913 0.57195 0.0
C216 C 0.86171 0.66448 0.52128 0.0
H217 H 0.83704 0.64009 0.52357 0.0
H218 H 0.88022 0.65909 0.51343 0.0
H219 H 0.85649 0.68175 0.512 0.0
C220 C 0.77477 0.5375 0.5628 0.0
N221 N 0.77368 0.56701 0.56311 0.0
N222 N 0.80466 0.59302 0.5593 0.0
C223 C 0.8265 0.58077 0.55678 0.0
C224 C 0.80817 0.54518 0.55881 0.0
C225 C 0.74465 0.50271 0.5672 0.0
H226 H 0.73611 0.50229 0.5826 0.0
H227 H 0.72309 0.49775 0.55719 0.0
H228 H 0.75098 0.48193 0.56521 0.0
O229 O 0.74994 0.60004 0.59723 0.0
O230 O 0.80155 0.64399 0.58955 0.0
H231 H 0.87788 0.58782 0.55853 0.0
H232 H 0.87182 0.61326 0.54019 0.0
C233 C 0.86483 0.60278 0.55533 0.0
H234 H 0.87418 0.6246 0.56581 0.0
H235 H 0.87085 0.68922 0.58664 0.0
O236 O 0.69503 0.52904 0.57447 0.0
C237 C 0.77728 0.62789 0.60189 0.0
Co238 Co 0.45322 0.16459 0.5718 0.0
Co239 Co 0.39381 0.17948 0.55993 0.0
C240 C 0.39806 0.12181 0.54144 0.0
O241 O 0.42456 0.12914 0.55181 0.0
O242 O 0.38334 0.1398 0.54253 0.0
C243 C 0.5126 0.1663 0.55792 0.0
O244 O 0.49835 0.16828 0.54141 0.0
C245 C 0.34624 0.19789 0.53937 0.0
C246 C 0.33764 0.22634 0.5632 0.0
C247 C 0.32998 0.21678 0.54361 0.0
N248 N 0.36325 0.19722 0.55559 0.0
N249 N 0.35755 0.21391 0.5698 0.0
C250 C 0.34492 0.17982 0.52057 0.0
H251 H 0.34665 0.1565 0.52364 0.0
H252 H 0.36715 0.19728 0.51119 0.0
H253 H 0.32064 0.17209 0.51246 0.0
C254 C 0.49445 0.24012 0.56518 0.0
N255 N 0.46455 0.20993 0.56407 0.0
N256 N 0.44025 0.21573 0.55762 0.0
C257 C 0.45421 0.24969 0.55376 0.0
C258 C 0.48904 0.26644 0.55859 0.0
C259 C 0.52626 0.24421 0.57493 0.0
H260 H 0.51933 0.22437 0.58652 0.0
H261 H 0.54252 0.24109 0.56374 0.0
H262 H 0.54147 0.27007 0.58174 0.0
O263 O 0.4271 0.15232 0.59695 0.0
O264 O 0.38561 0.16277 0.58759 0.0
H265 H 0.42037 0.26988 0.55767 0.0
H266 H 0.45205 0.29093 0.53852 0.0
C267 C 0.43455 0.26576 0.54558 0.0
H268 H 0.41573 0.24841 0.53449 0.0
H269 H 0.36799 0.21751 0.58394 0.0
O270 O 0.49692 0.16337 0.57407 0.0
C271 C 0.39953 0.15304 0.60056 0.0
Co272 Co 0.86224 0.29341 0.57122 0.0
Co273 Co 0.84862 0.21878 0.56142 0.0
C274 C 0.9058 0.28001 0.54199 0.0
O275 O 0.89821 0.29953 0.55185 0.0
O276 O 0.88795 0.24726 0.54347 0.0
C277 C 0.87831 0.36368 0.56276 0.0
O278 O 0.89872 0.36309 0.54908 0.0
C279 C 0.82771 0.1519 0.54172 0.0
C280 C 0.8048 0.11638 0.56697 0.0
C281 C 0.81035 0.11722 0.54686 0.0
N282 N 0.83187 0.17059 0.55808 0.0
N283 N 0.81863 0.14917 0.57313 0.0
C284 C 0.83686 0.16685 0.52144 0.0
H285 H 0.83974 0.19293 0.52113 0.0
H286 H 0.81692 0.1498 0.51068 0.0
H287 H 0.86172 0.16904 0.51705 0.0
C288 C 0.78795 0.25967 0.56219 0.0
N289 N 0.81771 0.25914 0.56296 0.0
N290 N 0.8117 0.22802 0.55855 0.0
C291 C 0.77775 0.20773 0.55478 0.0
C292 C 0.76159 0.22712 0.55698 0.0
C293 C 0.78444 0.28977 0.56852 0.0
H294 H 0.79742 0.2994 0.58293 0.0
H295 H 0.79735 0.31081 0.55756 0.0
H296 H 0.75712 0.28296 0.56996 0.0
O297 O 0.87337 0.28027 0.59697 0.0
O298 O 0.8661 0.22902 0.58882 0.0
H299 H 0.76173 0.15553 0.56231 0.0
H300 H 0.73377 0.16001 0.54486 0.0
C301 C 0.76093 0.17039 0.54945 0.0
H302 H 0.77521 0.16702 0.53716 0.0
H303 H 0.81782 0.15691 0.58753 0.0
O304 O 0.86204 0.33765 0.57397 0.0
C305 C 0.87445 0.25313 0.60132 0.0
Co306 Co 0.9114 0.39581 0.10097 0.0
Co307 Co 0.97276 0.46963 0.11186 0.0
C308 C 0.96764 0.4075 0.13046 0.0
O309 O 0.94063 0.38858 0.1204 0.0
O310 O 0.98289 0.44024 0.12927 0.0
C311 C 0.85153 0.33861 0.11532 0.0
O312 O 0.86591 0.35481 0.13181 0.0
C313 C 0.02096 0.53588 0.13198 0.0
C314 C 0.03257 0.57222 0.10728 0.0
C315 C 0.03874 0.57085 0.12718 0.0
N316 N 1.00456 0.5178 0.11573 0.0
N317 N 1.01202 0.53974 0.10102 0.0
C318 C 0.02009 0.51967 0.15142 0.0
H319 H 0.01673 0.4937 0.14926 0.0
H320 H 0.99793 0.51688 0.16016 0.0
H321 H 0.0442 0.53572 0.1598 0.0
C322 C 0.87205 0.43165 0.10838 0.0
N323 N 0.90158 0.43064 0.10896 0.0
N324 N 0.92678 0.46079 0.11476 0.0
C325 C 0.9138 0.4816 0.11871 0.0
C326 C 0.87866 0.46394 0.11467 0.0
C327 C 0.83937 0.40404 0.09929 0.0
H328 H 0.84519 0.3905 0.08756 0.0
H329 H 0.82357 0.38512 0.11081 0.0
H330 H 0.82415 0.41493 0.0928 0.0
O331 O 0.93592 0.40894 0.07536 0.0
O332 O 0.97983 0.45989 0.08417 0.0
H333 H 0.94947 0.535 0.11382 0.0
H334 H 0.91807 0.52688 0.13281 0.0
C335 C 0.93467 0.51772 0.12618 0.0
H336 H 0.95303 0.51895 0.1375 0.0
H337 H 1.00238 0.53256 0.08675 0.0
O338 O 0.86719 0.35124 0.09915 0.0
C339 C 0.96425 0.43621 0.07137 0.0
Co340 Co 0.63019 0.5229 0.10221 0.0
Co341 Co 0.55605 0.51106 0.11135 0.0
C342 C 0.61833 0.56739 0.13112 0.0
O343 O 0.63782 0.55921 0.12171 0.0
O344 O 0.58569 0.55032 0.12905 0.0
C345 C 0.70247 0.541 0.10705 0.0
O346 O 0.7068 0.56851 0.11645 0.0
C347 C 0.49017 0.49028 0.13183 0.0
C348 C 0.45538 0.47891 0.10637 0.0
C349 C 0.45584 0.47831 0.1268 0.0
N350 N 0.50863 0.49712 0.11512 0.0
N351 N 0.48772 0.49066 0.1 0.0
C352 C 0.50516 0.49269 0.15187 0.0
H353 H 0.53053 0.49411 0.1507 0.0
H354 H 0.48745 0.47014 0.16099 0.0
H355 H 0.50904 0.51647 0.15924 0.0
C356 C 0.59425 0.44831 0.11148 0.0
N357 N 0.59461 0.47854 0.11049 0.0
N358 N 0.5635 0.47314 0.11424 0.0
C359 C 0.54223 0.43911 0.11741 0.0
C360 C 0.56111 0.42234 0.11591 0.0
C361 C 0.62422 0.44397 0.10612 0.0
H362 H 0.63382 0.45529 0.09133 0.0
H363 H 0.64523 0.45806 0.11694 0.0
H364 H 0.61733 0.41651 0.10586 0.0
O365 O 0.6181 0.53535 0.07631 0.0
O366 O 0.56631 0.52715 0.08388 0.0
H367 H 0.49229 0.42983 0.10898 0.0
H368 H 0.4917 0.39431 0.12204 0.0
C369 C 0.50433 0.42277 0.12101 0.0
H370 H 0.5 0.43257 0.13506 0.0
H371 H 0.49535 0.49338 0.08528 0.0
O372 O 0.67323 0.52036 0.09958 0.0
C373 C 0.59073 0.5357 0.07161 0.0
Co374 Co 0.50201 0.11528 0.10036 0.0
Co375 Co 0.51569 0.05434 0.11055 0.0
C376 C 0.4583 0.05858 0.12957 0.0
O377 O 0.46598 0.08568 0.1197 0.0
O378 O 0.47603 0.04363 0.12808 0.0
C379 C 0.50018 0.1733 0.11451 0.0
O380 O 0.49906 0.15789 0.1312 0.0
C381 C 0.53494 1.00749 0.13109 0.0
C382 C 0.5596 0.99538 0.10661 0.0
C383 C 0.55259 0.99006 0.1266 0.0
N384 N 0.53259 0.02297 0.1146 0.0
N385 N 0.54697 0.01515 0.10001 0.0
C386 C 0.51979 1.00892 0.15048 0.0
H387 H 0.49663 0.01125 0.14822 0.0
H388 H 0.53891 0.0319 0.1588 0.0
H389 H 0.51256 0.98542 0.15932 0.0
C390 C 0.57662 0.15599 0.10923 0.0
N391 N 0.54669 0.12578 0.10862 0.0
N392 N 0.55244 0.10066 0.11349 0.0
C393 C 0.58627 0.11429 0.11762 0.0
C394 C 0.60268 0.14978 0.11505 0.0
C395 C 0.58092 0.18958 0.10214 0.0
H396 H 0.56382 0.18523 0.08935 0.0
H397 H 0.57383 0.2016 0.11418 0.0
H398 H 0.60791 0.20768 0.09773 0.0
O399 O 0.49091 0.09078 0.0747 0.0
O400 O 0.49867 0.04707 0.08295 0.0
H401 H 0.6035 0.07877 0.11096 0.0
H402 H 0.62924 0.11055 0.12929 0.0
C403 C 0.60267 0.09375 0.12375 0.0
H404 H 0.58713 0.07548 0.13555 0.0
H405 H 0.54897 0.02411 0.0856 0.0
O406 O 0.50076 0.15901 0.09841 0.0
C407 C 0.49015 0.06268 0.07041 0.0
Co408 Co 0.40287 0.90921 0.9033 0.0
Co409 Co 0.4778 0.97046 0.89478 0.0
C410 C 0.41786 0.96644 0.87386 0.0
O411 O 0.39755 0.93864 0.88296 0.0
O412 O 0.45031 0.98185 0.87662 0.0
C413 C 0.33639 0.85268 0.89165 0.0
O414 O 0.34118 0.87137 0.87579 0.0
C415 C 0.54484 0.01781 0.876 0.0
C416 C 0.57996 0.02868 0.90126 0.0
C417 C 0.57938 0.03487 0.88132 0.0
N418 N 0.52595 1.00205 0.89209 0.0
N419 N 0.5471 1.00918 0.90718 0.0
C420 C 0.53024 0.01331 0.85568 0.0
H421 H 0.50463 0.98957 0.85485 0.0
H422 H 0.5479 0.01209 0.84467 0.0
H423 H 0.52712 0.03576 0.85209 0.0
C424 C 0.43831 0.8693 0.89705 0.0
N425 N 0.43798 0.8992 0.8965 0.0
N426 N 0.46886 0.9244 0.89183 0.0
C427 C 0.48965 0.91111 0.88872 0.0
C428 C 0.47109 0.87573 0.89207 0.0
C429 C 0.40905 0.8363 0.9048 0.0
H430 H 0.39724 0.84176 0.91765 0.0
H431 H 0.38915 0.8241 0.89316 0.0
H432 H 0.41753 0.818 0.90946 0.0
O433 O 0.41414 0.93363 0.92909 0.0
O434 O 0.46627 0.9771 0.92195 0.0
H435 H 0.54236 0.94647 0.89558 0.0
H436 H 0.53641 0.91529 0.87686 0.0
C437 C 0.52661 0.9319 0.88268 0.0
H438 H 0.52938 0.95048 0.87107 0.0
H439 H 0.53915 0.99956 0.92139 0.0
O440 O 0.3587 0.86456 0.90538 0.0
C441 C 0.44127 0.9615 0.93392 0.0
Co442 Co 0.12016 0.50101 0.90521 0.0
Co443 Co 0.05865 0.51362 0.89481 0.0
C444 C 0.06394 0.45636 0.87609 0.0
O445 O 0.09119 0.46441 0.8859 0.0
O446 O 0.04867 0.47379 0.87758 0.0
C447 C 0.17462 0.48549 0.89745 0.0
O448 O 0.15355 0.46469 0.88391 0.0
C449 C 1.01317 0.53369 0.87357 0.0
C450 C 0.99443 0.55136 0.89859 0.0
C451 C 0.9928 0.54817 0.87824 0.0
N452 N 0.02653 0.52931 0.89038 0.0
N453 N 0.0149 0.53963 0.90525 0.0
C454 C 0.01922 0.52318 0.85371 0.0
H455 H 0.02602 0.50269 0.8551 0.0
H456 H 0.04105 0.54567 0.84644 0.0
H457 H 0.99597 0.51381 0.84431 0.0
C458 C 0.15989 0.57531 0.89592 0.0
N459 N 0.12989 0.54522 0.89649 0.0
N460 N 0.10458 0.55077 0.89179 0.0
C461 C 0.11788 0.58469 0.88797 0.0
C462 C 0.15332 0.60126 0.89047 0.0
C463 C 0.19398 0.57935 0.90157 0.0
H464 H 0.19251 0.56983 0.91684 0.0
H465 H 0.2 0.56346 0.8916 0.0
H466 H 0.21501 0.60657 0.90058 0.0
O467 O 0.09538 0.4901 0.93083 0.0
O468 O 0.05142 0.49723 0.92246 0.0
H469 H 0.07926 0.59666 0.89673 0.0
H470 H 0.11335 0.62981 0.88206 0.0
C471 C 0.09689 0.60157 0.88414 0.0
H472 H 0.08112 0.59027 0.87073 0.0
H473 H 0.02147 0.53926 0.91996 0.0
O474 O 0.16489 0.502 0.90847 0.0
C475 C 0.06723 0.48918 0.93509 0.0
Co476 Co 0.52676 0.62493 0.90491 0.0
Co477 Co 0.51525 0.55105 0.89506 0.0
C478 C 0.57061 0.61396 0.87517 0.0
O479 O 0.5625 0.63319 0.88492 0.0
O480 O 0.55385 0.58127 0.87715 0.0
C481 C 0.5457 0.69772 0.90187 0.0
O482 O 0.57447 0.70281 0.89377 0.0
C483 C 0.49329 0.48573 0.87377 0.0
C484 C 0.48524 0.45051 0.89858 0.0
C485 C 0.48242 0.45141 0.87827 0.0
N486 N 0.50175 0.50384 0.89066 0.0
N487 N 0.49724 0.48268 0.90539 0.0
C488 C 0.49308 0.5009 0.85416 0.0
H489 H 0.49354 0.52574 0.85609 0.0
H490 H 0.47001 0.48275 0.84554 0.0
H491 H 0.51641 0.50597 0.8458 0.0
C492 C 0.45187 0.5883 0.89697 0.0
N493 N 0.48231 0.58912 0.89698 0.0
N494 N 0.47703 0.55813 0.89285 0.0
C495 C 0.44289 0.53656 0.89032 0.0
C496 C 0.42591 0.55506 0.8928 0.0
C497 C 0.44763 0.6186 0.90159 0.0
H498 H 0.45646 0.6273 0.91689 0.0
H499 H 0.46389 0.64 0.8914 0.0
H500 H 0.42051 0.61244 0.9 0.0
O501 O 0.54014 0.6126 0.93044 0.0
O502 O 0.53205 0.56095 0.92242 0.0
H503 H 0.43716 0.48809 0.89926 0.0
H504 H 0.39802 0.48531 0.89014 0.0
C505 C 0.42635 0.49828 0.88819 0.0
H506 H 0.43188 0.49213 0.8733 0.0
H507 H 0.50147 0.49003 0.92017 0.0
O508 O 0.52394 0.66778 0.90806 0.0
C509 C 0.54083 0.58525 0.93482 0.0
Co510 Co 0.57894 0.72679 0.43477 0.0
Co511 Co 0.63861 0.80194 0.44528 0.0
C512 C 0.6364 0.74021 0.46332 0.0
O513 O 0.60912 0.72056 0.45369 0.0
O514 O 0.6508 0.7729 0.46193 0.0
C515 C 0.5216 0.66624 0.44873 0.0
O516 O 0.53685 0.68058 0.46545 0.0
C517 C 0.68461 0.8679 0.4663 0.0
C518 C 0.69711 0.90495 0.44189 0.0
C519 C 0.70224 0.90307 0.4619 0.0
N520 N 0.66934 0.85025 0.44973 0.0
N521 N 0.67732 0.87262 0.4352 0.0
C522 C 0.68275 0.85106 0.48567 0.0
H523 H 0.67849 0.82476 0.48343 0.0
H524 H 0.66075 0.84892 0.4943 0.0
H525 H 0.70685 0.86637 0.49419 0.0
C526 C 0.53701 0.7593 0.4442 0.0
N527 N 0.56749 0.76013 0.44366 0.0
N528 N 0.59213 0.79112 0.44875 0.0
C529 C 0.57797 0.81085 0.45286 0.0
C530 C 0.5426 0.79134 0.4501 0.0
C531 C 0.50383 0.72987 0.43679 0.0
H532 H 0.50869 0.71777 0.42387 0.0
H533 H 0.49191 0.7103 0.44863 0.0
H534 H 0.48542 0.73844 0.43249 0.0
O535 O 0.60322 0.74128 0.40899 0.0
O536 O 0.64487 0.79389 0.41726 0.0
H537 H 0.61282 0.86362 0.44585 0.0
H538 H 0.58083 0.85747 0.46405 0.0
C539 C 0.59798 0.84797 0.45872 0.0
H540 H 0.61632 0.85127 0.47059 0.0
H541 H 0.6686 0.86584 0.42074 0.0
O542 O 0.53574 0.68135 0.43266 0.0
C543 C 0.62996 0.76984 0.40461 0.0
Co544 Co 0.29757 0.85533 0.43363 0.0
Co545 Co 0.22394 0.84371 0.4439 0.0
C546 C 0.28616 0.89962 0.46325 0.0
O547 O 0.30511 0.89151 0.45326 0.0
O548 O 0.25349 0.88251 0.46171 0.0
C549 C 0.35463 0.85256 0.44816 0.0
O550 O 0.33879 0.85161 0.46464 0.0
C551 C 0.15844 0.82414 0.46486 0.0
C552 C 0.1226 0.81019 0.43969 0.0
C553 C 0.12407 0.81165 0.46006 0.0
N554 N 0.17632 0.82918 0.44805 0.0
N555 N 0.15473 0.82108 0.43309 0.0
C556 C 0.17414 0.83225 0.48503 0.0
H557 H 0.20171 0.85222 0.48428 0.0
H558 H 0.17225 0.80876 0.49166 0.0
H559 H 0.16021 0.84114 0.49474 0.0
C560 C 0.26091 0.77995 0.44061 0.0
N561 N 0.26212 0.81061 0.44124 0.0
N562 N 0.23161 0.80566 0.44624 0.0
C563 C 0.21016 0.77162 0.44928 0.0
C564 C 0.22804 0.75417 0.44583 0.0
C565 C 0.28915 0.77496 0.43244 0.0
H566 H 0.30291 0.79385 0.42052 0.0
H567 H 0.30772 0.77897 0.44436 0.0
H568 H 0.27894 0.7486 0.42642 0.0
O569 O 0.28518 0.86769 0.408 0.0
O570 O 0.23435 0.86127 0.41644 0.0
H571 H 0.15848 0.75855 0.44242 0.0
H572 H 0.16154 0.72855 0.45905 0.0
C573 C 0.17308 0.75607 0.45491 0.0
H574 H 0.17087 0.77015 0.46766 0.0
H575 H 0.16185 0.82249 0.41833 0.0
O576 O 0.34184 0.85507 0.43192 0.0
C577 C 0.25829 0.86936 0.40384 0.0
Co578 Co 0.17302 0.44776 0.43535 0.0
Co579 Co 0.18369 0.38457 0.44397 0.0
C580 C 0.12853 0.39115 0.46439 0.0
O581 O 0.1369 0.41892 0.45497 0.0
O582 O 0.14523 0.3752 0.46221 0.0
C583 C 0.15351 0.50138 0.4384 0.0
O584 O 0.12374 0.47727 0.4453 0.0
C585 C 0.20288 0.33733 0.46342 0.0
C586 C 0.22229 0.32156 0.43783 0.0
C587 C 0.21839 0.31834 0.45809 0.0
N588 N 0.1982 0.35137 0.44701 0.0
N589 N 0.20927 0.34128 0.43176 0.0
C590 C 0.19616 0.34518 0.48381 0.0
H591 H 0.1941 0.36886 0.48386 0.0
H592 H 0.21695 0.34835 0.49398 0.0
H593 H 0.1715 0.32332 0.48918 0.0
C594 C 0.24751 0.48555 0.44436 0.0
N595 N 0.21714 0.45591 0.4432 0.0
N596 N 0.22202 0.42985 0.44691 0.0
C597 C 0.25587 0.44222 0.45047 0.0
C598 C 0.27307 0.47792 0.44903 0.0
C599 C 0.25236 0.52012 0.43908 0.0
H600 H 0.24042 0.51852 0.42451 0.0
H601 H 0.23917 0.5276 0.45021 0.0
H602 H 0.27993 0.54027 0.4384 0.0
O603 O 0.16013 0.42372 0.40945 0.0
O604 O 0.16581 0.37848 0.41677 0.0
H605 H 0.26798 0.40353 0.44203 0.0
H606 H 0.29947 0.43616 0.45819 0.0
C607 C 0.27159 0.42034 0.45486 0.0
H608 H 0.25848 0.40376 0.46774 0.0
H609 H 0.2093 0.3491 0.41727 0.0
O610 O 0.17591 0.4935 0.43311 0.0
C611 C 0.15783 0.39511 0.40469 0.0
H612 H 0.39083 0.43017 0.11649 0.0
H613 H 0.44929 0.49518 0.16526 0.0
H614 H 0.33872 0.40651 0.13612 0.0
H615 H 0.39745 0.46978 0.18538 0.0
H616 H 0.29195 0.44166 0.21004 0.0
H617 H 0.34375 0.46776 0.18964 0.0
H618 H 0.31155 0.36859 0.16296 0.0
H619 H 0.2597 0.34294 0.18304 0.0
C620 C 0.39271 0.43921 0.13149 0.0
C621 C 0.42459 0.46408 0.13939 0.0
C622 C 0.36278 0.42533 0.14283 0.0
C623 C 0.36383 0.43586 0.16244 0.0
C624 C 0.39561 0.46111 0.1703 0.0
C625 C 0.42561 0.47522 0.15886 0.0
C626 C 0.29589 0.42561 0.19964 0.0
C627 C 0.27139 0.39047 0.19777 0.0
C628 C 0.32568 0.44047 0.18807 0.0
C629 C 0.33187 0.42035 0.17458 0.0
C630 C 0.30731 0.38509 0.17283 0.0
C631 C 0.2774 0.37035 0.18428 0.0
H632 H 0.61519 0.85306 0.18286 0.0
H633 H 0.67221 0.95124 0.21217 0.0
H634 H 0.58596 0.87589 0.16265 0.0
H635 H 0.64478 0.97477 0.19149 0.0
H636 H 0.57114 1.00256 0.16586 0.0
H637 H 0.59404 0.97474 0.18639 0.0
H638 H 0.59152 0.91291 0.1368 0.0
H639 H 0.56523 0.93856 0.11672 0.0
C640 C 0.62184 0.87969 0.18471 0.0
C641 C 0.64589 0.90042 0.19903 0.0
C642 C 0.60518 0.89287 0.17314 0.0
C643 C 0.61266 0.92721 0.17547 0.0
C644 C 0.63743 0.94797 0.18958 0.0
C645 C 0.65348 0.93461 0.20135 0.0
C646 C 0.5739 0.982 0.15948 0.0
C647 C 0.56512 0.97208 0.13973 0.0
C648 C 0.5881 0.9666 0.17118 0.0
C649 C 0.59504 0.94162 0.16331 0.0
C650 C 0.58613 0.93159 0.14355 0.0
C651 C 0.57129 0.94656 0.13196 0.0
H652 H 0.02841 0.5789 0.16653 0.0
H653 H 0.09144 0.63357 0.1163 0.0
H654 H 0.05846 0.63099 0.18629 0.0
H655 H 0.12032 0.68621 0.13598 0.0
H656 H 0.1205 0.77607 0.17262 0.0
H657 H 0.0985 0.72443 0.15251 0.0
H658 H 0.12046 0.67303 0.19927 0.0
H659 H 0.14418 0.72533 0.21919 0.0
C660 C 0.04934 0.60157 0.15981 0.0
C661 C 0.05819 0.60161 0.13993 0.0
C662 C 0.06627 0.63161 0.17112 0.0
C663 C 0.09179 0.66254 0.16267 0.0
C664 C 0.10067 0.6627 0.14283 0.0
C665 C 0.08415 0.63254 0.13161 0.0
C666 C 0.12208 0.75447 0.17842 0.0
C667 C 0.13515 0.75542 0.1974 0.0
C668 C 0.109 0.72463 0.16692 0.0
C669 C 0.10792 0.69483 0.17432 0.0
C670 C 0.12092 0.69565 0.19324 0.0
C671 C 0.13452 0.72564 0.2046 0.0
H672 H 0.49818 0.44643 0.83947 0.0
H673 H 0.43407 0.38612 0.88806 0.0
H674 H 0.47282 0.39504 0.8188 0.0
H675 H 0.40916 0.33475 0.86749 0.0
H676 H 0.39882 0.24436 0.83049 0.0
H677 H 0.42538 0.29581 0.85108 0.0
H678 H 0.41686 0.35505 0.80344 0.0
H679 H 0.38984 0.30356 0.78296 0.0
C680 C 0.47828 0.42245 0.84567 0.0
C681 C 0.46761 0.42063 0.86531 0.0
C682 C 0.46392 0.3929 0.83385 0.0
C683 C 0.43889 0.36083 0.84149 0.0
C684 C 0.42865 0.35896 0.86121 0.0
C685 C 0.44286 0.38847 0.87297 0.0
C686 C 0.40186 0.26809 0.82453 0.0
C687 C 0.39138 0.26957 0.80522 0.0
C688 C 0.41738 0.2977 0.83629 0.0
C689 C 0.4231 0.32949 0.82891 0.0
C690 C 0.41315 0.33106 0.8095 0.0
C691 C 0.39753 0.30148 0.79779 0.0
H692 H 0.72786 0.13239 0.78606 0.0
H693 H 0.78609 0.12423 0.8344 0.0
H694 H 0.67645 0.10673 0.80647 0.0
H695 H 0.73603 0.10222 0.85533 0.0
H696 H 0.63403 0.02499 0.88148 0.0
H697 H 0.68502 0.05236 0.86083 0.0
H698 H 0.64586 0.1124 0.83248 0.0
H699 H 0.59372 0.08307 0.85256 0.0
C700 C 0.72999 0.126 0.8012 0.0
C701 C 0.76157 0.13134 0.80863 0.0
C702 C 0.70048 0.11155 0.81301 0.0
C703 C 0.70181 0.10229 0.83266 0.0
C704 C 0.73366 0.10844 0.84021 0.0
C705 C 0.76293 0.12218 0.82827 0.0
C706 C 0.6364 0.04402 0.87078 0.0
C707 C 0.61 0.05186 0.8685 0.0
C708 C 0.66581 0.06003 0.85903 0.0
C709 C 0.67002 0.08504 0.84502 0.0
C710 C 0.64346 0.09296 0.84285 0.0
C711 C 0.6136 0.07628 0.85437 0.0
H712 H 0.9367 0.55345 0.88759 0.0
H713 H 1.00813 0.57277 0.83994 0.0
H714 H 0.9086 0.57786 0.86782 0.0
H715 H 0.97886 0.59536 0.82 0.0
H716 H 0.894 0.60273 0.78491 0.0
H717 H 0.91759 0.57379 0.80462 0.0
H718 H 0.9304 0.64015 0.85379 0.0
H719 H 0.90862 0.6703 0.83395 0.0
C720 C 0.94608 0.56228 0.87281 0.0
C721 C 0.97422 0.5602 0.86525 0.0
C722 C 0.92998 0.57628 0.86153 0.0
C723 C 0.94142 0.58821 0.84236 0.0
C724 C 0.96913 0.5857 0.83462 0.0
C725 C 0.98564 0.57226 0.84603 0.0
C726 C 0.90163 0.61108 0.79997 0.0
C727 C 0.89847 0.63838 0.80793 0.0
C728 C 0.91516 0.59449 0.81121 0.0
C729 C 0.92552 0.60459 0.83074 0.0
C730 C 0.92194 0.63145 0.83886 0.0
C731 C 0.90897 0.64846 0.82751 0.0
H732 H 0.74635 0.74828 0.8012 0.0
H733 H 0.7665 0.66792 0.82018 0.0
H734 H 0.69218 0.72078 0.81907 0.0
H735 H 0.71248 0.64083 0.83858 0.0
H736 H 0.61554 0.68276 0.86992 0.0
H737 H 0.66939 0.70971 0.85174 0.0
H738 H 0.6507 0.60943 0.83345 0.0
H739 H 0.59702 0.58225 0.85215 0.0
C740 C 0.73944 0.72492 0.80936 0.0
C741 C 0.76088 0.71034 0.80921 0.0
C742 C 0.70834 0.70919 0.81969 0.0
C743 C 0.69784 0.67851 0.83025 0.0
C744 C 0.71948 0.66414 0.83035 0.0
C745 C 0.75063 0.67986 0.81994 0.0
C746 C 0.62268 0.66637 0.86192 0.0
C747 C 0.60184 0.63027 0.86255 0.0
C748 C 0.65362 0.68189 0.85142 0.0
C749 C 0.66453 0.66178 0.84116 0.0
C750 C 0.64339 0.62569 0.84146 0.0
C751 C 0.61242 0.61011 0.85203 0.0
H752 H 0.4444 0.03484 0.86632 0.0
H753 H 0.35744 0.93475 0.85325 0.0
H754 H 0.41728 0.06222 0.84872 0.0
H755 H 0.33118 0.96175 0.83434 0.0
H756 H 0.27458 0.01747 0.81792 0.0
H757 H 0.30222 0.99152 0.8365 0.0
H758 H 0.40209 0.07588 0.81948 0.0
H759 H 0.37415 0.10278 0.8022 0.0
C760 C 0.41977 0.01866 0.85925 0.0
C761 C 0.40302 0.98265 0.86119 0.0
C762 C 0.40416 0.03436 0.84904 0.0
C763 C 0.37171 0.01442 0.84005 0.0
C764 C 0.35563 0.97822 0.84145 0.0
C765 C 0.37087 0.96259 0.85211 0.0
C766 C 0.30245 0.03057 0.81838 0.0
C767 C 0.32219 0.06221 0.80869 0.0
C768 C 0.31843 0.0155 0.82885 0.0
C769 C 0.35463 0.03121 0.82946 0.0
C770 C 0.37426 0.06309 0.81978 0.0
C771 C 0.35824 0.07857 0.80975 0.0
H772 H 1.00652 0.43058 0.85254 0.0
H773 H 0.08662 0.41031 0.87176 0.0
H774 H 0.9802 0.37713 0.83359 0.0
H775 H 0.05995 0.35674 0.85325 0.0
H776 H 0.92237 0.2616 0.81963 0.0
H777 H 0.94904 0.31512 0.83848 0.0
H778 H 0.04963 0.33502 0.82014 0.0
H779 H 0.02315 0.28131 0.80173 0.0
C780 C 0.01858 0.41482 0.85271 0.0
C781 C 0.04877 0.42487 0.86366 0.0
C782 C 1.00331 0.38401 0.84197 0.0
C783 C 0.01786 0.36253 0.84194 0.0
C784 C 0.04826 0.37282 0.85272 0.0
C785 C 0.06353 0.40358 0.86341 0.0
C786 C 0.95019 0.27726 0.81973 0.0
C787 C 0.97057 0.26702 0.80917 0.0
C788 C 0.96547 0.30812 0.8304 0.0
C789 C 1.00149 0.3295 0.83077 0.0
C790 C 0.02184 0.31903 0.82039 0.0
C791 C 1.0066 0.2882 0.80976 0.0
H792 H 0.67065 0.76381 0.18556 0.0
H793 H 0.75084 0.7438 0.20496 0.0
H794 H 0.64398 0.70981 0.16706 0.0
H795 H 0.72381 0.68975 0.18699 0.0
H796 H 0.68692 0.61303 0.13635 0.0
H797 H 0.71333 0.66711 0.15432 0.0
H798 H 0.61271 0.64787 0.17209 0.0
H799 H 0.58606 0.5939 0.1536 0.0
C800 C 0.68265 0.748 0.18586 0.0
C801 C 0.71296 0.75828 0.19674 0.0
C802 C 0.66718 0.71687 0.17539 0.0
C803 C 0.68165 0.6953 0.17557 0.0
C804 C 0.71216 0.70585 0.18628 0.0
C805 C 0.72763 0.73691 0.19667 0.0
C806 C 0.67032 0.6201 0.14418 0.0
C807 C 0.63429 0.59897 0.1435 0.0
C808 C 0.68554 0.65118 0.15456 0.0
C809 C 0.66519 0.66198 0.16464 0.0
C810 C 0.62916 0.64064 0.16423 0.0
C811 C 0.61388 0.60951 0.15378 0.0
H812 H 0.26243 0.91661 0.1849 0.0
H813 H 0.28379 0.01728 0.20434 0.0
H814 H 0.31609 0.94332 0.16618 0.0
H815 H 0.33758 0.04374 0.1861 0.0
H816 H 0.43155 0.99985 0.15218 0.0
H817 H 0.378 0.97334 0.17103 0.0
H818 H 0.35962 0.05535 0.15321 0.0
H819 H 0.41332 0.08225 0.13489 0.0
C820 C 0.27847 0.94441 0.18516 0.0
C821 C 0.26865 0.96476 0.1961 0.0
C822 C 0.30941 0.95971 0.17457 0.0
C823 C 0.33128 0.99569 0.17468 0.0
C824 C 0.32121 0.016 0.18545 0.0
C825 C 0.29031 1.00076 0.19598 0.0
C826 C 0.41622 0.01237 0.15242 0.0
C827 C 0.42685 0.04324 0.14201 0.0
C828 C 0.38534 0.997 0.16308 0.0
C829 C 0.36438 0.01211 0.16358 0.0
C830 C 0.37527 0.04318 0.15337 0.0
C831 C 0.4061 0.05857 0.14277 0.0
H832 H 0.11076 0.35472 0.18512 0.0
H833 H 1.01053 0.2718 0.20245 0.0
H834 H 0.08339 0.38111 0.16653 0.0
H835 H 0.98332 0.29861 0.18435 0.0
H836 H 0.02523 0.43858 0.15391 0.0
H837 H 0.05196 0.41111 0.17207 0.0
H838 H 0.97207 0.31134 0.15193 0.0
H839 H 0.94486 0.3386 0.13426 0.0
C840 C 0.08291 0.34201 0.18491 0.0
C841 C 0.0629 0.31109 0.19531 0.0
C842 C 0.0672 0.35734 0.1744 0.0
C843 C 0.03112 0.34218 0.17405 0.0
C844 C 1.01114 0.31087 0.1841 0.0
C845 C 0.02681 0.2955 0.19455 0.0
C846 C 1.01319 0.41076 0.15348 0.0
C847 C 0.98283 0.39086 0.14261 0.0
C848 C 0.02873 0.39501 0.16375 0.0
C849 C 0.01434 0.35898 0.16338 0.0
C850 C 0.9837 0.33909 0.15275 0.0
C851 C 0.96812 0.35479 0.14254 0.0
H852 H 0.11013 0.77173 0.49294 0.0
H853 H 0.06912 0.82123 0.45615 0.0
H854 H 0.05849 0.74726 0.51316 0.0
H855 H 0.01755 0.79759 0.47671 0.0
H856 H 0.91511 0.72034 0.50472 0.0
H857 H 0.96679 0.74559 0.48458 0.0
H858 H 0.02834 0.76057 0.53663 0.0
H859 H 0.97653 0.73296 0.55648 0.0
C860 C 0.09047 0.77821 0.48953 0.0
C861 C 0.09395 0.79901 0.47325 0.0
C862 C 0.06071 0.76405 0.50108 0.0
C863 C 0.03377 0.77053 0.49668 0.0
C864 C 0.03747 0.79161 0.48041 0.0
C865 C 0.06712 0.80543 0.46873 0.0
C866 C 0.93943 0.728 0.51184 0.0
C867 C 0.94131 0.72344 0.5322 0.0
C868 C 0.96932 0.74329 0.5003 0.0
C869 C 1.00188 0.75494 0.50891 0.0
C870 C 1.00375 0.75123 0.52936 0.0
C871 C 0.97393 0.73565 0.54081 0.0
H872 H 0.28168 0.32544 0.45521 0.0
H873 H 0.18844 0.27536 0.48965 0.0
H874 H 0.30718 0.2998 0.47579 0.0
H875 H 0.21303 0.24773 0.50978 0.0
H876 H 0.28076 0.23214 0.55432 0.0
H877 H 0.25315 0.25615 0.53408 0.0
H878 H 0.30733 0.24984 0.48296 0.0
H879 H 0.33737 0.2294 0.50351 0.0
C880 C 0.26651 0.30853 0.46712 0.0
C881 C 0.23321 0.30246 0.47093 0.0
C882 C 0.28099 0.2935 0.47885 0.0
C883 C 0.26216 0.27123 0.49443 0.0
C884 C 0.2286 0.26509 0.49815 0.0
C885 C 0.21439 0.2808 0.48661 0.0
C886 C 0.28668 0.23579 0.53872 0.0
C887 C 0.31072 0.22788 0.53053 0.0
C888 C 0.27055 0.24929 0.52704 0.0
C889 C 0.27782 0.25502 0.50677 0.0
C890 C 0.30131 0.24634 0.49853 0.0
C891 C 0.31796 0.23354 0.5103 0.0
H892 H 0.69169 0.90924 0.50156 0.0
H893 H 0.75327 0.96718 0.45165 0.0
H894 H 0.72063 0.96001 0.52196 0.0
H895 H 0.77994 0.01911 0.47163 0.0
H896 H 0.8421 0.10319 0.51668 0.0
H897 H 0.81819 0.05076 0.49675 0.0
H898 H 0.72133 0.01082 0.5278 0.0
H899 H 0.74606 0.06216 0.54823 0.0
C900 C 0.71191 0.9325 0.49495 0.0
C901 C 0.72079 0.93358 0.475 0.0
C902 C 0.72798 0.96215 0.50661 0.0
C903 C 0.7526 0.99405 0.49852 0.0
C904 C 0.76158 0.99509 0.47857 0.0
C905 C 0.74599 0.96525 0.46702 0.0
C906 C 0.81568 0.08313 0.51909 0.0
C907 C 0.79588 0.08662 0.53394 0.0
C908 C 0.80187 0.05308 0.50767 0.0
C909 C 0.76775 0.02617 0.51066 0.0
C910 C 0.74793 0.0303 0.52534 0.0
C911 C 0.76197 0.05993 0.53697 0.0
H912 H 0.34033 0.09574 0.5181 0.0
H913 H 0.42093 0.07593 0.53693 0.0
H914 H 0.31355 0.0419 0.49955 0.0
H915 H 0.3937 0.02186 0.51887 0.0
H916 H 0.25488 0.92633 0.48635 0.0
H917 H 0.2823 0.98017 0.50491 0.0
H918 H 0.38224 0.99875 0.48617 0.0
H919 H 0.35502 0.94468 0.46808 0.0
C920 C 0.35243 0.08002 0.51825 0.0
C921 C 0.38284 0.09028 0.52902 0.0
C922 C 0.33686 0.04894 0.50776 0.0
C923 C 0.35132 0.02737 0.50779 0.0
C924 C 0.38202 0.03795 0.51831 0.0
C925 C 0.3976 0.06899 0.52875 0.0
C926 C 0.28272 0.94175 0.48633 0.0
C927 C 0.30269 0.93108 0.47571 0.0
C928 C 0.29844 0.97281 0.49682 0.0
C929 C 0.3345 0.99397 0.49695 0.0
C930 C 0.35445 0.98298 0.48659 0.0
C931 C 0.33877 0.95194 0.47615 0.0
H932 H 0.10146 0.33212 0.48673 0.0
H933 H 0.08367 0.41497 0.46985 0.0
H934 H 0.04745 0.30512 0.50515 0.0
H935 H 0.02953 0.3876 0.48773 0.0
H936 H 0.95255 0.34857 0.53812 0.0
H937 H 1.00665 0.37523 0.52028 0.0
H938 H 0.98561 0.27509 0.50009 0.0
H939 H 0.93151 0.2481 0.51848 0.0
C940 C 0.08615 0.34466 0.48699 0.0
C941 C 0.09705 0.37581 0.47682 0.0
C942 C 0.05499 0.32898 0.49739 0.0
C943 C 0.03399 0.34406 0.49787 0.0
C944 C 0.04518 0.37543 0.48792 0.0
C945 C 0.0763 0.39113 0.47759 0.0
C946 C 0.9592 0.33212 0.52978 0.0
C947 C 0.93751 0.29611 0.52974 0.0
C948 C 0.99031 0.34751 0.51947 0.0
C949 C 1.00061 0.32737 0.50873 0.0
C950 C 0.97875 0.29136 0.50845 0.0
C951 C 0.94756 0.2759 0.51884 0.0
H952 H 0.67937 0.6073 0.53735 0.0
H953 H 0.77995 0.68858 0.51923 0.0
H954 H 0.65267 0.63427 0.51894 0.0
H955 H 0.75304 0.71515 0.50033 0.0
H956 H 0.69489 0.77262 0.4861 0.0
H957 H 0.72192 0.74596 0.50486 0.0
H958 H 0.64174 0.64531 0.48609 0.0
H959 H 0.61432 0.67169 0.46788 0.0
C960 C 0.69583 0.6307 0.52924 0.0
C961 C 0.73186 0.64571 0.5298 0.0
C962 C 0.68046 0.64616 0.51861 0.0
C963 C 0.70066 0.67697 0.50815 0.0
C964 C 0.7367 0.69174 0.50846 0.0
C965 C 0.75212 0.67631 0.51916 0.0
C966 C 0.68292 0.74479 0.48609 0.0
C967 C 0.65236 0.72436 0.47549 0.0
C968 C 0.69859 0.72951 0.49671 0.0
C969 C 0.68409 0.69345 0.49697 0.0
C970 C 0.65341 0.6731 0.48648 0.0
C971 C 0.63773 0.68831 0.47593 0.0
H972 H 0.15225 0.36198 0.27997 0.0
H973 H 0.06853 0.26473 0.3007 0.0
H974 H 0.16003 0.38562 0.31302 0.0
H975 H 0.07634 0.28873 0.33394 0.0
H976 H 0.13963 0.33045 0.39207 0.0
H977 H 0.12294 0.30681 0.35907 0.0
H978 H 0.13184 0.40242 0.33902 0.0
H979 H 0.14882 0.42642 0.37221 0.0
C980 C 0.13528 0.34569 0.29154 0.0
C981 C 0.10994 0.31131 0.28771 0.0
C982 C 0.13958 0.35941 0.31047 0.0
C983 C 0.11884 0.33904 0.32606 0.0
C984 C 0.09288 0.30493 0.32219 0.0
C985 C 0.08834 0.29124 0.30317 0.0
C986 C 0.13787 0.34647 0.3807 0.0
C987 C 0.14586 0.38048 0.38476 0.0
C988 C 0.12797 0.33274 0.36181 0.0
C989 C 0.12605 0.35273 0.34647 0.0
C990 C 0.13333 0.3865 0.35056 0.0
C991 C 0.14296 0.40019 0.36956 0.0
H992 H 0.68921 0.84127 0.28537 0.0
H993 H 0.74038 0.78275 0.2961 0.0
H994 H 0.664 0.82679 0.31824 0.0
H995 H 0.71435 0.76774 0.32908 0.0
H996 H 0.62294 0.72201 0.37694 0.0
H997 H 0.64815 0.73337 0.34372 0.0
H998 H 0.69384 0.84271 0.35365 0.0
H999 H 0.66947 0.83167 0.38674 0.0
C1000 C 0.69493 0.82514 0.2947 0.0
C1001 C 0.7169 0.81324 0.28817 0.0
C1002 C 0.68053 0.81694 0.31351 0.0
C1003 C 0.68727 0.79617 0.32608 0.0
C1004 C 0.70869 0.78366 0.31954 0.0
C1005 C 0.72371 0.79243 0.30078 0.0
C1006 C 0.63836 0.74843 0.37198 0.0
C1007 C 0.64421 0.77594 0.38442 0.0
C1008 C 0.65292 0.75488 0.35309 0.0
C1009 C 0.67285 0.78888 0.34624 0.0
C1010 C 0.67845 0.81628 0.35861 0.0
C1011 C 0.66455 0.80991 0.37754 0.0
H1012 H 0.22201 0.8712 0.27952 0.0
H1013 H 0.21402 0.95794 0.30071 0.0
H1014 H 0.23819 0.86267 0.31239 0.0
H1015 H 0.23033 0.94926 0.33372 0.0
H1016 H 0.21135 0.88765 0.39236 0.0
H1017 H 0.20192 0.90294 0.35945 0.0
H1018 H 0.28593 0.89155 0.33729 0.0
H1019 H 0.29551 0.87612 0.37034 0.0
C1020 C 0.22386 0.88858 0.29116 0.0
C1021 C 0.21652 0.91516 0.2875 0.0
C1022 C 0.23341 0.88383 0.30996 0.0
C1023 C 0.23556 0.90531 0.3256 0.0
C1024 C 0.22866 0.93218 0.32194 0.0
C1025 C 0.21944 0.93719 0.30304 0.0
C1026 C 0.22801 0.88858 0.38052 0.0
C1027 C 0.25408 0.88045 0.38397 0.0
C1028 C 0.22273 0.89761 0.3617 0.0
C1029 C 0.24317 0.89843 0.34582 0.0
C1030 C 0.26964 0.89088 0.34926 0.0
C1031 C 0.27519 0.88218 0.36818 0.0
H1032 H 0.35315 0.16843 0.61638 0.0
H1033 H 0.40866 0.11482 0.62917 0.0
H1034 H 0.32675 0.15345 0.6489 0.0
H1035 H 0.38153 0.09943 0.66186 0.0
H1036 H 0.29139 0.0539 0.71056 0.0
H1037 H 0.31542 0.0634 0.67701 0.0
H1038 H 0.3569 0.17289 0.6839 0.0
H1039 H 0.33373 0.16373 0.71717 0.0
C1040 C 0.35954 0.15321 0.62606 0.0
C1041 C 0.38319 0.14299 0.62023 0.0
C1042 C 0.3444 0.14468 0.64467 0.0
C1043 C 0.35212 0.12529 0.65778 0.0
C1044 C 0.37503 0.11421 0.65189 0.0
C1045 C 0.39072 0.12326 0.6333 0.0
C1046 C 0.30555 0.07991 0.70482 0.0
C1047 C 0.31072 0.10806 0.71647 0.0
C1048 C 0.31944 0.08533 0.68576 0.0
C1049 C 0.33791 0.11886 0.67798 0.0
C1050 C 0.34262 0.1468 0.68955 0.0
C1051 C 0.32943 0.14151 0.70861 0.0
H1052 H 0.87729 0.21937 0.7259 0.0
H1053 H 0.96293 0.20959 0.7047 0.0
H1054 H 0.86854 0.23492 0.69292 0.0
H1055 H 0.95402 0.22526 0.67156 0.0
H1056 H 0.89157 0.20548 0.61317 0.0
H1057 H 0.90704 0.1965 0.64613 0.0
H1058 H 0.89769 0.28213 0.66765 0.0
H1059 H 0.8821 0.29127 0.63454 0.0
C1060 C 0.89438 0.22068 0.71423 0.0
C1061 C 0.92072 0.21303 0.71792 0.0
C1062 C 0.8895 0.22988 0.69536 0.0
C1063 C 0.91061 0.23134 0.67969 0.0
C1064 C 0.93723 0.22412 0.68337 0.0
C1065 C 0.94239 0.21526 0.70234 0.0
C1066 C 0.89296 0.22256 0.62488 0.0
C1067 C 0.88538 0.24899 0.62124 0.0
C1068 C 0.90211 0.21755 0.64373 0.0
C1069 C 0.90357 0.2386 0.65943 0.0
C1070 C 0.89652 0.26537 0.6558 0.0
C1071 C 0.88772 0.27066 0.63686 0.0
H1072 H 0.78667 0.73827 0.71007 0.0
H1073 H 0.84461 0.68667 0.72136 0.0
H1074 H 0.77174 0.71183 0.67715 0.0
H1075 H 0.83019 0.66108 0.68861 0.0
H1076 H 0.83796 0.66888 0.62028 0.0
H1077 H 0.84739 0.69304 0.65332 0.0
H1078 H 0.73764 0.64392 0.66238 0.0
H1079 H 0.72787 0.61885 0.62909 0.0
C1080 C 0.79622 0.72141 0.70554 0.0
C1081 C 0.81692 0.71466 0.71827 0.0
C1082 C 0.78745 0.70612 0.68683 0.0
C1083 C 0.79983 0.68448 0.68049 0.0
C1084 C 0.82038 0.67772 0.69321 0.0
C1085 C 0.8286 0.69239 0.71194 0.0
C1086 C 0.81573 0.66318 0.62924 0.0
C1087 C 0.78214 0.64191 0.6221 0.0
C1088 C 0.8212 0.67698 0.64816 0.0
C1089 C 0.79324 0.67033 0.66028 0.0
C1090 C 0.75956 0.64948 0.65318 0.0
C1091 C 0.75402 0.63501 0.63427 0.0
H1092 H 0.02916 0.48436 0.05995 0.0
H1093 H 0.93432 0.39908 0.03778 0.0
H1094 H 0.05408 0.49423 0.02707 0.0
H1095 H 0.9595 0.40912 0.00479 0.0
H1096 H 1.00257 0.47246 0.9469 0.0
H1097 H 0.97793 0.45678 0.9798 0.0
H1098 H 0.07269 0.46597 1.0015 0.0
H1099 H 0.09761 0.48175 0.96844 0.0
C1100 C 1.01365 0.46758 0.04809 0.0
C1101 C 0.97964 0.44101 0.05149 0.0
C1102 C 0.02808 0.47312 0.02928 0.0
C1103 C 1.00875 0.45246 0.01338 0.0
C1104 C 0.97491 0.42559 0.01677 0.0
C1105 C 0.96055 0.41978 0.03567 0.0
C1106 C 0.0182 0.47103 0.95863 0.0
C1107 C 0.05217 0.47853 0.95505 0.0
C1108 C 1.00393 0.46177 0.97746 0.0
C1109 C 0.02336 0.46011 0.99319 0.0
C1110 C 0.05721 0.46726 0.98963 0.0
C1111 C 0.07141 0.47618 0.97071 0.0
H1112 H 0.64038 0.57507 0.04423 0.0
H1113 H 0.53024 0.51787 0.05346 0.0
H1114 H 0.63091 0.5904 0.01086 0.0
H1115 H 0.52114 0.53263 0.02037 0.0
H1116 H 0.52528 0.52468 0.95225 0.0
H1117 H 0.54038 0.51534 0.9852 0.0
H1118 H 0.59483 0.62493 0.99578 0.0
H1119 H 0.57917 0.63464 0.96257 0.0
C1120 C 0.61429 0.56578 0.03916 0.0
C1121 C 0.58606 0.54524 0.05145 0.0
C1122 C 0.60894 0.57475 0.02021 0.0
C1123 C 0.57533 0.56268 0.01323 0.0
C1124 C 0.54727 0.54222 0.0255 0.0
C1125 C 0.55256 0.53383 0.04443 0.0
C1126 C 0.54063 0.54693 0.96148 0.0
C1127 C 0.55093 0.58044 0.95481 0.0
C1128 C 0.54923 0.54149 0.98033 0.0
C1129 C 0.5688 0.56942 0.99286 0.0
C1130 C 0.57989 0.60307 0.98622 0.0
C1131 C 0.57073 0.60854 0.96735 0.0
H1132 H 0.4736 0.99802 0.05852 0.0
H1133 H 0.48182 0.09282 0.03725 0.0
H1134 H 0.4579 0.97346 0.02558 0.0
H1135 H 0.46603 0.06802 0.00419 0.0
H1136 H 0.48759 0.02649 0.94597 0.0
H1137 H 0.49566 0.05063 0.97894 0.0
H1138 H 0.41071 0.95479 1.00007 0.0
H1139 H 0.40246 0.93036 0.96688 0.0
C1140 C 0.4719 0.01359 0.04685 0.0
C1141 C 0.47921 0.04751 0.0505 0.0
C1142 C 0.4626 0.99936 0.02801 0.0
C1143 C 0.46073 0.01881 0.01234 0.0
C1144 C 0.46749 0.05253 0.016 0.0
C1145 C 0.47644 0.06668 0.03492 0.0
C1146 C 0.47043 0.01054 0.95758 0.0
C1147 C 0.44449 0.97639 0.95382 0.0
C1148 C 0.47492 0.02452 0.97645 0.0
C1149 C 0.45382 1.00461 0.99205 0.0
C1150 C 0.42747 0.97064 0.98829 0.0
C1151 C 0.42268 0.95672 0.96931 0.0
H1152 H 0.15616 0.03225 0.24956 0.0
H1153 H 0.25072 0.09754 0.21817 0.0
H1154 H 0.14189 0.07784 0.24873 0.0
H1155 H 0.23709 0.14386 0.21801 0.0
H1156 H 0.17982 0.2018 0.20041 0.0
H1157 H 0.19902 0.15947 0.20275 0.0
H1158 H 0.15585 0.13229 0.2614 0.0
H1159 H 0.13577 0.17365 0.25856 0.0
C1160 C 0.17419 0.05653 0.24272 0.0
C1161 C 0.20452 0.06113 0.23385 0.0
C1162 C 0.1661 0.08287 0.24235 0.0
C1163 C 0.18831 0.11468 0.23328 0.0
C1164 C 0.21909 0.11956 0.22484 0.0
C1165 C 0.22705 0.09307 0.22507 0.0
C1166 C 0.17473 0.1868 0.21379 0.0
C1167 C 0.15598 0.19046 0.22919 0.0
C1168 C 0.18584 0.1627 0.21522 0.0
C1169 C 0.17873 0.1421 0.23221 0.0
C1170 C 0.16109 0.14699 0.24791 0.0
C1171 C 0.14974 0.17079 0.24637 0.0
H1172 H 0.81076 0.98515 0.24155 0.0
H1173 H 0.8856 0.96878 0.21079 0.0
H1174 H 0.85259 0.04676 0.24395 0.0
H1175 H 0.92785 0.03024 0.21374 0.0
H1176 H 1.00287 0.13153 0.24536 0.0
H1177 H 0.95933 0.07086 0.2425 0.0
H1178 H 0.88614 0.0991 0.22115 0.0
H1179 H 0.92993 0.1601 0.22369 0.0
C1180 C 0.836 0.99482 0.23506 0.0
C1181 C 0.84492 0.97225 0.22589 0.0
C1182 C 0.85997 0.03002 0.23652 0.0
C1183 C 0.89349 0.04323 0.22912 0.0
C1184 C 0.9023 0.02068 0.21979 0.0
C1185 C 0.87817 0.98559 0.21808 0.0
C1186 C 0.97755 0.12495 0.24006 0.0
C1187 C 0.97004 0.15077 0.23458 0.0
C1188 C 0.95265 0.09013 0.23836 0.0
C1189 C 0.91948 0.08028 0.23142 0.0
C1190 C 0.91151 0.10599 0.22656 0.0
C1191 C 0.93661 0.1409 0.228 0.0
H1192 H 0.86996 0.79309 0.20542 0.0
H1193 H 0.89236 0.86607 0.25255 0.0
H1194 H 0.92988 0.80698 0.20525 0.0
H1195 H 0.95252 0.88129 0.25177 0.0
H1196 H 0.05455 0.88508 0.2568 0.0
H1197 H 0.99289 0.8645 0.25885 0.0
H1198 H 0.98477 0.85044 0.19558 0.0
H1199 H 0.04621 0.86942 0.19397 0.0
C1200 C 0.88771 0.81211 0.21576 0.0
C1201 C 0.87638 0.82848 0.22898 0.0
C1202 C 0.9222 0.82033 0.21555 0.0
C1203 C 0.94636 0.84551 0.22839 0.0
C1204 C 0.93475 0.86139 0.24186 0.0
C1205 C 0.90017 0.85278 0.24226 0.0
C1206 C 0.03931 0.8773 0.24342 0.0
C1207 C 0.0548 0.87882 0.22523 0.0
C1208 C 1.00406 0.86575 0.24452 0.0
C1209 C 0.98362 0.85595 0.22737 0.0
C1210 C 0.99938 0.8572 0.20916 0.0
C1211 C 0.03459 0.8683 0.20815 0.0
H1212 H 0.09737 0.23775 0.79526 0.0
H1213 H 0.03756 0.1535 0.75535 0.0
H1214 H 0.14252 0.22259 0.79554 0.0
H1215 H 0.08174 0.13727 0.75634 0.0
H1216 H 0.17827 0.13075 0.74911 0.0
H1217 H 0.13736 0.15148 0.74665 0.0
H1218 H 0.15459 0.18083 0.80815 0.0
H1219 H 0.19672 0.16142 0.81009 0.0
C1220 C 0.09385 0.21598 0.78654 0.0
C1221 C 0.06381 0.19681 0.77532 0.0
C1222 C 0.11963 0.20707 0.78683 0.0
C1223 C 0.11583 0.17849 0.77608 0.0
C1224 C 0.08597 0.15975 0.76458 0.0
C1225 C 0.06043 0.16894 0.76409 0.0
C1226 C 0.17323 0.14177 0.76202 0.0
C1227 C 0.19022 0.14434 0.77982 0.0
C1228 C 0.14968 0.15348 0.76069 0.0
C1229 C 0.14232 0.16767 0.77723 0.0
C1230 C 0.15986 0.17055 0.79501 0.0
C1231 C 0.18377 0.15921 0.79623 0.0
H1232 H 0.92296 0.05732 0.80579 0.0
H1233 H 0.8466 0.03969 0.76171 0.0
H1234 H 0.90476 0.99591 0.80557 0.0
H1235 H 0.828 0.97807 0.76152 0.0
H1236 H 0.83973 0.88128 0.75027 0.0
H1237 H 0.85262 0.94114 0.7511 0.0
H1238 H 0.85443 0.93946 0.8147 0.0
H1239 H 0.84172 0.87989 0.81394 0.0
C1240 C 0.90205 0.04011 0.7962 0.0
C1241 C 0.88604 0.05298 0.78384 0.0
C1242 C 0.89151 1.00501 0.79612 0.0
C1243 C 0.86491 0.98213 0.78353 0.0
C1244 C 0.84871 0.99509 0.77126 0.0
C1245 C 0.85911 0.0302 0.77149 0.0
C1246 C 0.84254 0.89358 0.76443 0.0
C1247 C 0.83982 0.87582 0.78203 0.0
C1248 C 0.8498 0.92783 0.7649 0.0
C1249 C 0.85476 0.94507 0.78297 0.0
C1250 C 0.85121 0.92702 0.80055 0.0
C1251 C 0.84373 0.89279 0.80009 0.0
H1252 H 0.15934 0.93873 0.80262 0.0
H1253 H 0.14016 0.98871 0.75377 0.0
H1254 H 0.09887 0.89393 0.80269 0.0
H1255 H 0.07954 0.94478 0.7543 0.0
H1256 H 0.977 0.84585 0.74925 0.0
H1257 H 0.0389 0.88655 0.74771 0.0
H1258 H 0.04402 0.88553 0.81136 0.0
H1259 H 0.98228 0.84376 0.81259 0.0
C1260 C 0.14223 0.94014 0.79187 0.0
C1261 C 0.15462 0.96734 0.77821 0.0
C1262 C 0.10744 0.91458 0.79201 0.0
C1263 C 0.08408 0.91574 0.7786 0.0
C1264 C 0.09672 0.94265 0.76468 0.0
C1265 C 0.13155 0.96801 0.76443 0.0
C1266 C 0.99159 0.8544 0.76284 0.0
C1267 C 0.97517 0.84208 0.78104 0.0
C1268 C 0.02696 0.87783 0.76202 0.0
C1269 C 0.04661 0.8896 0.77942 0.0
C1270 C 0.02994 0.87675 0.79764 0.0
C1271 C 0.99459 0.85307 0.79841 0.0
H1272 H 0.83973 0.52877 0.53004 0.0
H1273 H 0.80791 0.50884 0.5908 0.0
H1274 H 0.85896 0.48645 0.53177 0.0
H1275 H 0.82848 0.4678 0.59307 0.0
H1276 H 0.82776 0.36689 0.58349 0.0
H1277 H 0.81308 0.41217 0.58283 0.0
H1278 H 0.89952 0.4725 0.54425 0.0
H1279 H 0.91315 0.4262 0.54419 0.0
C1280 C 0.83735 0.51555 0.54383 0.0
C1281 C 0.82206 0.52153 0.56021 0.0
C1282 C 0.84855 0.4915 0.54492 0.0
C1283 C 0.8451 0.47335 0.56254 0.0
C1284 C 0.83084 0.48053 0.57912 0.0
C1285 C 0.81925 0.50418 0.57791 0.0
C1286 C 0.84378 0.38988 0.57495 0.0
C1287 C 0.87153 0.3928 0.56381 0.0
C1288 C 0.8355 0.41607 0.57466 0.0
C1289 C 0.85505 0.44617 0.56346 0.0
C1290 C 0.88345 0.44949 0.55276 0.0
C1291 C 0.89147 0.42304 0.55285 0.0
H1292 H 0.59939 0.49175 0.55351 0.0
H1293 H 0.67006 0.46463 0.58034 0.0
H1294 H 0.55582 0.43062 0.55141 0.0
H1295 H 0.62675 0.40376 0.57791 0.0
H1296 H 0.556 0.30011 0.54643 0.0
H1297 H 0.59801 0.3616 0.54928 0.0
H1298 H 0.51996 0.37938 0.57461 0.0
H1299 H 0.4783 0.31772 0.57244 0.0
C1300 C 0.60561 0.47284 0.55905 0.0
C1301 C 0.63837 0.48316 0.56696 0.0
C1302 C 0.58063 0.43785 0.55787 0.0
C1303 C 0.58804 0.41245 0.56431 0.0
C1304 C 0.6205 0.42276 0.57256 0.0
C1305 C 0.64526 0.4577 0.57402 0.0
C1306 C 0.54789 0.31715 0.55268 0.0
C1307 C 0.51384 0.3041 0.55915 0.0
C1308 C 0.5719 0.3523 0.55432 0.0
C1309 C 0.56226 0.37525 0.56221 0.0
C1310 C 0.52802 0.36234 0.5683 0.0
C1311 C 0.50413 0.32708 0.56693 0.0
H1312 H 0.72969 0.25364 0.53506 0.0
H1313 H 0.70998 0.17434 0.57759 0.0
H1314 H 0.66864 0.2365 0.53522 0.0
H1315 H 0.64865 0.15663 0.57762 0.0
H1316 H 0.55197 0.16773 0.58931 0.0
H1317 H 0.61165 0.18018 0.58863 0.0
H1318 H 0.6124 0.18828 0.52519 0.0
H1319 H 0.55312 0.17619 0.52584 0.0
C1320 C 0.71211 0.23232 0.54429 0.0
C1321 C 0.72432 0.21519 0.55624 0.0
C1322 C 0.67718 0.22236 0.54434 0.0
C1323 C 0.65376 0.19515 0.55643 0.0
C1324 C 0.66606 0.17784 0.56827 0.0
C1325 C 0.70102 0.18772 0.56813 0.0
C1326 C 0.56478 0.17186 0.57522 0.0
C1327 C 0.54779 0.1711 0.55765 0.0
C1328 C 0.59893 0.17887 0.57482 0.0
C1329 C 0.61683 0.18544 0.55685 0.0
C1330 C 0.59951 0.18385 0.53928 0.0
C1331 C 0.56543 0.17671 0.53967 0.0
H1332 H 0.88947 0.5256 0.10008 0.0
H1333 H 0.81283 0.43233 0.12852 0.0
H1334 H 0.84819 0.54614 0.09829 0.0
H1335 H 0.77116 0.45225 0.126 0.0
H1336 H 0.69851 0.48142 0.09389 0.0
H1337 H 0.74199 0.46421 0.09647 0.0
H1338 H 0.81295 0.56274 0.12221 0.0
H1339 H 0.7691 0.57994 0.12005 0.0
C1340 C 0.86399 0.50973 0.10621 0.0
C1341 C 0.8544 0.47742 0.11454 0.0
C1342 C 0.84033 0.52141 0.10507 0.0
C1343 C 0.80646 0.50069 0.11189 0.0
C1344 C 0.79701 0.46856 0.12041 0.0
C1345 C 0.8208 0.45717 0.12185 0.0
C1346 C 0.72331 0.49951 0.1001 0.0
C1347 C 0.73012 0.53196 0.10696 0.0
C1348 C 0.74818 0.48955 0.10163 0.0
C1349 C 0.78068 0.51201 0.10972 0.0
C1350 C 0.78807 0.54494 0.11591 0.0
C1351 C 0.76294 0.55473 0.11468 0.0
H1352 H 0.5077 0.21481 0.08294 0.0
H1353 H 0.50315 0.21141 0.14657 0.0
H1354 H 0.51974 0.27436 0.0837 0.0
H1355 H 0.51481 0.27062 0.14728 0.0
H1356 H 0.58223 0.38873 0.14039 0.0
H1357 H 0.56467 0.32751 0.1401 0.0
H1358 H 0.49439 0.31074 0.09223 0.0
H1359 H 0.51256 0.37226 0.09243 0.0
C1360 C 0.50885 0.22659 0.09707 0.0
C1361 C 0.50461 0.20838 0.11469 0.0
C1362 C 0.51562 0.26067 0.0975 0.0
C1363 C 0.51844 0.27729 0.11557 0.0
C1364 C 0.51331 0.25874 0.13314 0.0
C1365 C 0.50642 0.2247 0.13271 0.0
C1366 C 0.56282 0.37178 0.12996 0.0
C1367 C 0.54851 0.38492 0.11654 0.0
C1368 C 0.55264 0.33677 0.12982 0.0
C1369 C 0.52806 0.31423 0.11616 0.0
C1370 C 0.51354 0.32747 0.10283 0.0
C1371 C 0.52364 0.36251 0.10306 0.0
H1372 H 0.63344 0.20971 0.13565 0.0
H1373 H 0.65543 0.14734 0.09652 0.0
H1374 H 0.69445 0.25379 0.13593 0.0
H1375 H 0.71671 0.19121 0.09693 0.0
H1376 H 0.81331 0.2989 0.08411 0.0
H1377 H 0.7537 0.25146 0.08465 0.0
H1378 H 0.75046 0.26246 0.1477 0.0
H1379 H 0.80974 0.30983 0.14721 0.0
C1380 C 0.6515 0.20539 0.12727 0.0
C1381 C 0.63994 0.17518 0.11617 0.0
C1382 C 0.6864 0.23047 0.12748 0.0
C1383 C 0.71043 0.22596 0.11646 0.0
C1384 C 0.6988 0.19552 0.10546 0.0
C1385 C 0.66386 0.1703 0.10537 0.0
C1386 C 0.79996 0.291 0.0981 0.0
C1387 C 0.81627 0.30826 0.11559 0.0
C1388 C 0.76586 0.26373 0.09842 0.0
C1389 C 0.74731 0.25334 0.11621 0.0
C1390 C 0.7639 0.27015 0.13373 0.0
C1391 C 0.79797 0.2972 0.13343 0.0
H1392 H 0.5299 0.88458 0.90967 0.0
H1393 H 0.44135 0.81111 0.8764 0.0
H1394 H 0.54982 0.84283 0.91213 0.0
H1395 H 0.46052 0.76886 0.87957 0.0
H1396 H 0.48465 0.693 0.9126 0.0
H1397 H 0.46799 0.73686 0.90956 0.0
H1398 H 0.56974 0.80965 0.8885 0.0
H1399 H 0.58642 0.76542 0.89105 0.0
C1400 C 0.51495 0.85968 0.90266 0.0
C1401 C 0.48413 0.85111 0.89277 0.0
C1402 C 0.52625 0.83576 0.90417 0.0
C1403 C 0.5066 0.8026 0.89614 0.0
C1404 C 0.47596 0.79414 0.88609 0.0
C1405 C 0.465 0.81826 0.88428 0.0
C1406 C 0.50356 0.71827 0.9073 0.0
C1407 C 0.53679 0.7255 0.90185 0.0
C1408 C 0.49393 0.74337 0.90552 0.0
C1409 C 0.51746 0.7765 0.8986 0.0
C1410 C 0.55109 0.78427 0.89386 0.0
C1411 C 0.5606 0.75893 0.89532 0.0
H1412 H 0.32796 0.80158 0.91696 0.0
H1413 H 0.27893 0.82257 0.86837 0.0
H1414 H 0.28268 0.7415 0.91672 0.0
H1415 H 0.23257 0.76271 0.8687 0.0
H1416 H 0.17771 0.64558 0.85949 0.0
H1417 H 0.22074 0.707 0.86025 0.0
H1418 H 0.22507 0.70226 0.92383 0.0
H1419 H 0.18341 0.6406 0.92267 0.0
C1420 C 0.30716 0.79348 0.90644 0.0
C1421 C 0.30713 0.81685 0.89264 0.0
C1422 C 0.28099 0.75896 0.90636 0.0
C1423 C 0.2538 0.74699 0.89266 0.0
C1424 C 0.25335 0.7707 0.87921 0.0
C1425 C 0.27981 0.80515 0.87912 0.0
C1426 C 0.18798 0.65794 0.87354 0.0
C1427 C 0.17768 0.6387 0.89099 0.0
C1428 C 0.21241 0.69313 0.87406 0.0
C1429 C 0.22664 0.7098 0.89212 0.0
C1430 C 0.21537 0.69034 0.90962 0.0
C1431 C 0.19133 0.65511 0.90903 0.0
H1432 H 0.39023 0.55536 0.92495 0.0
H1433 H 0.37772 0.52417 0.86404 0.0
H1434 H 0.32873 0.53523 0.92737 0.0
H1435 H 0.31627 0.50524 0.86598 0.0
H1436 H 0.20208 0.45046 0.879 0.0
H1437 H 0.26198 0.46422 0.87885 0.0
H1438 H 0.28856 0.55112 0.91714 0.0
H1439 H 0.22858 0.53643 0.91794 0.0
C1440 C 0.37412 0.54424 0.91206 0.0
C1441 C 0.38844 0.54145 0.89428 0.0
C1442 C 0.33896 0.5329 0.91337 0.0
C1443 C 0.3174 0.51886 0.89683 0.0
C1444 C 0.33187 0.51549 0.87911 0.0
C1445 C 0.36704 0.52649 0.8779 0.0
C1446 C 0.22069 0.47229 0.88755 0.0
C1447 C 0.21053 0.49236 0.89846 0.0
C1448 C 0.25514 0.48037 0.88733 0.0
C1449 C 0.28033 0.50893 0.89788 0.0
C1450 C 0.26993 0.52861 0.90908 0.0
C1451 C 0.23546 0.5203 0.90946 0.0
H1452 H 0.48257 0.76273 0.47057 0.0
H1453 H 0.54473 0.84541 0.43039 0.0
H1454 H 0.43852 0.77976 0.4702 0.0
H1455 H 0.50084 0.86279 0.43006 0.0
H1456 H 0.39315 0.85153 0.41698 0.0
H1457 H 0.44016 0.83872 0.41788 0.0
H1458 H 0.43084 0.82849 0.48118 0.0
H1459 H 0.38396 0.84111 0.48035 0.0
C1460 C 0.48682 0.78474 0.4618 0.0
C1461 C 0.517 0.80296 0.45064 0.0
C1462 C 0.46177 0.79459 0.46163 0.0
C1463 C 0.46625 0.82268 0.45012 0.0
C1464 C 0.49657 0.84094 0.43897 0.0
C1465 C 0.52179 0.83124 0.4393 0.0
C1466 C 0.40134 0.84683 0.4311 0.0
C1467 C 0.3847 0.84723 0.44858 0.0
C1468 C 0.42833 0.83962 0.43161 0.0
C1469 C 0.43905 0.8324 0.44959 0.0
C1470 C 0.42285 0.83348 0.46708 0.0
C1471 C 0.39609 0.84091 0.46658 0.0
H1472 H 0.11201 0.5282 0.44777 0.0
H1473 H 0.21527 0.55783 0.42899 0.0
H1474 H 0.12845 0.58914 0.44982 0.0
H1475 H 0.23158 0.61827 0.43141 0.0
H1476 H 0.25713 0.71967 0.46247 0.0
H1477 H 0.23777 0.65814 0.46018 0.0
H1478 H 0.14937 0.64205 0.42638 0.0
H1479 H 0.16942 0.70387 0.4281 0.0
C1480 C 0.13811 0.5476 0.44401 0.0
C1481 C 0.16239 0.53805 0.43839 0.0
C1482 C 0.14747 0.58244 0.44517 0.0
C1483 C 0.18138 0.60837 0.44099 0.0
C1484 C 0.20541 0.59882 0.43501 0.0
C1485 C 0.19597 0.56412 0.43358 0.0
C1486 C 0.23357 0.70295 0.45456 0.0
C1487 C 0.21468 0.71646 0.44557 0.0
C1488 C 0.22251 0.66781 0.45324 0.0
C1489 C 0.1921 0.64537 0.44307 0.0
C1490 C 0.17272 0.65872 0.43446 0.0
C1491 C 0.18409 0.69402 0.43555 0.0
H1492 H 0.48321 0.63137 0.48079 0.0
H1493 H 0.48087 0.63124 0.41711 0.0
H1494 H 0.4242 0.58347 0.4814 0.0
H1495 H 0.42155 0.5833 0.41779 0.0
H1496 H 0.32381 0.4781 0.42684 0.0
H1497 H 0.38535 0.52132 0.42698 0.0
H1498 H 0.36738 0.57658 0.47333 0.0
H1499 H 0.30613 0.53316 0.47323 0.0
C1500 C 0.47022 0.62098 0.4669 0.0
C1501 C 0.48675 0.63527 0.44889 0.0
C1502 C 0.43631 0.59362 0.46728 0.0
C1503 C 0.41812 0.57973 0.44966 0.0
C1504 C 0.43497 0.59325 0.43162 0.0
C1505 C 0.46891 0.62081 0.43123 0.0
C1506 C 0.33329 0.49929 0.43721 0.0
C1507 C 0.31052 0.5024 0.45009 0.0
C1508 C 0.36834 0.52414 0.43719 0.0
C1509 C 0.38123 0.55238 0.45016 0.0
C1510 C 0.35837 0.55494 0.46332 0.0
C1511 C 0.32335 0.53025 0.46323 0.0
loop_
_geom_bond_atom_site_label_1
_geom_bond_atom_site_label_2
_geom_bond_distance
_geom_bond_site_symmetry_2
_ccdc_geom_bond_type
Co0 O3 1.970 . S
Co0 N17 1.989 . S
Co0 O25 1.967 . S
Co0 O32 1.920 . S
Co1 O4 1.966 . S
Co1 N10 2.022 . S
Co1 N18 1.993 . S
Co1 O26 1.941 . S
C2 O3 1.258 . S
C2 O4 1.263 . S
O3 Co0 1.970 . S
O3 C2 1.258 . S
O4 Co1 1.966 . S
O4 C2 1.263 . S
C5 O6 1.243 . S
C5 O32 1.289 1_655 S
O6 C5 1.243 . S
C7 C9 1.400 . S
C7 N10 1.351 . S
C7 C12 1.501 . S
C8 C9 1.387 . S
C8 N11 1.341 . S
C9 C7 1.400 . S
C9 C8 1.387 . S
N10 Co1 2.022 . S
N10 C7 1.351 . S
N10 N11 1.365 . S
N11 C8 1.341 . S
N11 N10 1.365 . S
N11 H31 0.862 . S
C12 C7 1.501 . S
C12 H13 0.961 . S
C12 H14 0.961 . S
C12 H15 0.960 . S
H13 C12 0.961 . S
H14 C12 0.961 . S
H15 C12 0.960 . S
C16 N17 1.342 . S
C16 C20 1.401 . S
C16 C21 1.499 . S
N17 Co0 1.989 . S
N17 C16 1.342 . S
N17 N18 1.388 . S
N18 Co1 1.993 . S
N18 N17 1.388 . S
N18 C19 1.346 . S
C19 N18 1.346 . S
C19 C20 1.396 . S
C19 C29 1.510 . S
C20 C16 1.401 . S
C20 C19 1.396 . S
C21 C16 1.499 . S
C21 H22 0.959 . S
C21 H23 0.960 . S
C21 H24 0.961 . S
H22 C21 0.959 . S
H23 C21 0.960 . S
H24 C21 0.961 . S
O25 Co0 1.967 . S
O25 C33 1.258 . S
O26 Co1 1.941 . S
O26 C33 1.266 . S
H27 C29 0.959 . S
H28 C29 0.961 . S
C29 C19 1.510 . S
C29 H27 0.959 . S
C29 H28 0.961 . S
C29 H30 0.960 . S
H30 C29 0.960 . S
H31 N11 0.862 . S
O32 Co0 1.920 . S
O32 C5 1.289 1_455 S
C33 O25 1.258 . S
C33 O26 1.266 . S
Co34 O37 1.970 . S
Co34 N51 1.989 . S
Co34 O59 1.967 . S
Co34 O66 1.920 . S
Co35 O38 1.966 . S
Co35 N44 2.022 . S
Co35 N52 1.993 . S
Co35 O60 1.941 . S
C36 O37 1.258 . S
C36 O38 1.263 . S
O37 Co34 1.970 . S
O37 C36 1.258 . S
O38 Co35 1.966 . S
O38 C36 1.263 . S
C39 O40 1.235 . S
C39 O66 1.289 . S
O40 C39 1.235 . S
C41 C43 1.400 . S
C41 N44 1.351 . S
C41 C46 1.501 . S
C42 C43 1.387 . S
C42 N45 1.341 . S
C43 C41 1.400 . S
C43 C42 1.387 . S
N44 Co35 2.022 . S
N44 C41 1.351 . S
N44 N45 1.365 . S
N45 C42 1.341 . S
N45 N44 1.365 . S
N45 H65 0.862 . S
C46 C41 1.501 . S
C46 H47 0.961 . S
C46 H48 0.961 . S
C46 H49 0.960 . S
H47 C46 0.961 . S
H48 C46 0.961 . S
H49 C46 0.960 . S
C50 N51 1.342 . S
C50 C54 1.401 . S
C50 C55 1.499 . S
N51 Co34 1.989 . S
N51 C50 1.342 . S
N51 N52 1.388 . S
N52 Co35 1.993 . S
N52 N51 1.388 . S
N52 C53 1.346 . S
C53 N52 1.346 . S
C53 C54 1.396 . S
C53 C63 1.510 . S
C54 C50 1.401 . S
C54 C53 1.396 . S
C55 C50 1.499 . S
C55 H56 0.959 . S
C55 H57 0.960 . S
C55 H58 0.961 . S
H56 C55 0.959 . S
H57 C55 0.960 . S
H58 C55 0.961 . S
O59 Co34 1.967 . S
O59 C67 1.258 . S
O60 Co35 1.941 . S
O60 C67 1.266 . S
H61 C63 0.959 . S
H62 C63 0.961 . S
C63 C53 1.510 . S
C63 H61 0.959 . S
C63 H62 0.961 . S
C63 H64 0.960 . S
H64 C63 0.960 . S
H65 N45 0.862 . S
O66 Co34 1.920 . S
O66 C39 1.289 . S
C67 O59 1.258 . S
C67 O60 1.266 . S
Co68 O71 1.970 . S
Co68 N85 1.989 . S
Co68 O93 1.967 . S
Co68 O100 1.920 . S
Co69 O72 1.966 . S
Co69 N78 2.022 . S
Co69 N86 1.993 . S
Co69 O94 1.941 . S
C70 O71 1.258 . S
C70 O72 1.263 . S
O71 Co68 1.970 . S
O71 C70 1.258 . S
O72 Co69 1.966 . S
O72 C70 1.263 . S
C73 O74 1.235 . S
C73 O100 1.289 1_545 S
O74 C73 1.235 . S
C75 C77 1.400 . S
C75 N78 1.351 . S
C75 C80 1.501 . S
C76 C77 1.387 . S
C76 N79 1.341 . S
C77 C75 1.400 . S
C77 C76 1.387 . S
N78 Co69 2.022 . S
N78 C75 1.351 . S
N78 N79 1.365 . S
N79 C76 1.341 . S
N79 N78 1.365 . S
N79 H99 0.862 . S
C80 C75 1.501 . S
C80 H81 0.961 . S
C80 H82 0.961 . S
C80 H83 0.960 . S
H81 C80 0.961 . S
H82 C80 0.961 . S
H83 C80 0.960 . S
C84 N85 1.342 . S
C84 C88 1.401 . S
C84 C89 1.499 . S
N85 Co68 1.989 . S
N85 C84 1.342 . S
N85 N86 1.388 . S
N86 Co69 1.993 . S
N86 N85 1.388 . S
N86 C87 1.346 . S
C87 N86 1.346 . S
C87 C88 1.396 . S
C87 C97 1.510 . S
C88 C84 1.401 . S
C88 C87 1.396 . S
C89 C84 1.499 . S
C89 H90 0.959 . S
C89 H91 0.960 . S
C89 H92 0.961 . S
H90 C89 0.959 . S
H91 C89 0.960 . S
H92 C89 0.961 . S
O93 Co68 1.967 . S
O93 C101 1.258 . S
O94 Co69 1.941 . S
O94 C101 1.266 . S
H95 C97 0.959 . S
H96 C97 0.961 . S
C97 C87 1.510 . S
C97 H95 0.959 . S
C97 H96 0.961 . S
C97 H98 0.960 . S
H98 C97 0.960 . S
H99 N79 0.862 . S
O100 Co68 1.920 . S
O100 C73 1.289 1_565 S
C101 O93 1.258 . S
C101 O94 1.266 . S
Co102 O105 1.970 . S
Co102 N119 1.989 . S
Co102 O127 1.967 . S
Co102 O134 1.920 . S
Co103 O106 1.966 . S
Co103 N112 2.022 . S
Co103 N120 1.993 . S
Co103 O128 1.941 . S
C104 O105 1.258 . S
C104 O106 1.263 . S
O105 Co102 1.970 . S
O105 C104 1.258 . S
O106 Co103 1.966 . S
O106 C104 1.263 . S
C107 O108 1.243 . S
C107 O134 1.289 1_565 S
O108 C107 1.243 . S
C109 C111 1.400 . S
C109 N112 1.351 . S
C109 C114 1.501 . S
C110 C111 1.387 . S
C110 N113 1.341 . S
C111 C109 1.400 . S
C111 C110 1.387 . S
N112 Co103 2.022 . S
N112 C109 1.351 . S
N112 N113 1.365 . S
N113 C110 1.341 . S
N113 N112 1.365 . S
N113 H133 0.862 . S
C114 C109 1.501 . S
C114 H115 0.961 . S
C114 H116 0.961 . S
C114 H117 0.960 . S
H115 C114 0.961 . S
H116 C114 0.961 . S
H117 C114 0.960 . S
C118 N119 1.342 . S
C118 C122 1.401 . S
C118 C123 1.499 . S
N119 Co102 1.989 . S
N119 C118 1.342 . S
N119 N120 1.388 . S
N120 Co103 1.993 . S
N120 N119 1.388 . S
N120 C121 1.346 . S
C121 N120 1.346 . S
C121 C122 1.396 . S
C121 C131 1.510 . S
C122 C118 1.401 . S
C122 C121 1.396 . S
C123 C118 1.499 . S
C123 H124 0.959 . S
C123 H125 0.960 . S
C123 H126 0.961 . S
H124 C123 0.959 . S
H125 C123 0.960 . S
H126 C123 0.961 . S
O127 Co102 1.967 . S
O127 C135 1.258 . S
O128 Co103 1.941 . S
O128 C135 1.266 . S
H129 C131 0.959 . S
H130 C131 0.961 . S
C131 C121 1.510 . S
C131 H129 0.959 . S
C131 H130 0.961 . S
C131 H132 0.960 . S
H132 C131 0.960 . S
H133 N113 0.862 . S
O134 Co102 1.920 . S
O134 C107 1.289 1_545 S
C135 O127 1.258 . S
C135 O128 1.266 . S
Co136 O139 1.970 . S
Co136 N153 1.989 . S
Co136 O161 1.967 . S
Co136 O168 1.920 . S
Co137 O140 1.966 . S
Co137 N146 2.022 . S
Co137 N154 1.993 . S
Co137 O162 1.941 . S
C138 O139 1.258 . S
C138 O140 1.263 . S
O139 Co136 1.970 . S
O139 C138 1.258 . S
O140 Co137 1.966 . S
O140 C138 1.263 . S
C141 O142 1.235 . S
C141 O168 1.289 1_455 S
O142 C141 1.235 . S
C143 C145 1.400 . S
C143 N146 1.351 . S
C143 C148 1.501 . S
C144 C145 1.387 . S
C144 N147 1.341 . S
C145 C143 1.400 . S
C145 C144 1.387 . S
N146 Co137 2.022 . S
N146 C143 1.351 . S
N146 N147 1.365 . S
N147 C144 1.341 . S
N147 N146 1.365 . S
N147 H167 0.862 . S
C148 C143 1.501 . S
C148 H149 0.961 . S
C148 H150 0.961 . S
C148 H151 0.960 . S
H149 C148 0.961 . S
H150 C148 0.961 . S
H151 C148 0.960 . S
C152 N153 1.342 . S
C152 C156 1.401 . S
C152 C157 1.499 . S
N153 Co136 1.989 . S
N153 C152 1.342 . S
N153 N154 1.388 . S
N154 Co137 1.993 . S
N154 N153 1.388 . S
N154 C155 1.346 . S
C155 N154 1.346 . S
C155 C156 1.396 . S
C155 C165 1.510 . S
C156 C152 1.401 . S
C156 C155 1.396 . S
C157 C152 1.499 . S
C157 H158 0.959 . S
C157 H159 0.960 . S
C157 H160 0.961 . S
H158 C157 0.959 . S
H159 C157 0.960 . S
H160 C157 0.961 . S
O161 Co136 1.967 . S
O161 C169 1.258 . S
O162 Co137 1.941 . S
O162 C169 1.266 . S
H163 C165 0.959 . S
H164 C165 0.961 . S
C165 C155 1.510 . S
C165 H163 0.959 . S
C165 H164 0.961 . S
C165 H166 0.960 . S
H166 C165 0.960 . S
H167 N147 0.862 . S
O168 Co136 1.920 . S
O168 C141 1.289 1_655 S
C169 O161 1.258 . S
C169 O162 1.266 . S
Co170 O173 1.970 . S
Co170 N187 1.989 . S
Co170 O195 1.967 . S
Co170 O202 1.920 . S
Co171 O174 1.966 . S
Co171 N180 2.022 . S
Co171 N188 1.993 . S
Co171 O196 1.941 . S
C172 O173 1.258 . S
C172 O174 1.263 . S
O173 Co170 1.970 . S
O173 C172 1.258 . S
O174 Co171 1.966 . S
O174 C172 1.263 . S
C175 O176 1.235 . S
C175 O202 1.289 . S
O176 C175 1.235 . S
C177 C179 1.400 . S
C177 N180 1.351 . S
C177 C182 1.501 . S
C178 C179 1.387 . S
C178 N181 1.341 . S
C179 C177 1.400 . S
C179 C178 1.387 . S
N180 Co171 2.022 . S
N180 C177 1.351 . S
N180 N181 1.365 . S
N181 C178 1.341 . S
N181 N180 1.365 . S
N181 H201 0.862 . S
C182 C177 1.501 . S
C182 H183 0.961 . S
C182 H184 0.961 . S
C182 H185 0.960 . S
H183 C182 0.961 . S
H184 C182 0.961 . S
H185 C182 0.960 . S
C186 N187 1.342 . S
C186 C190 1.401 . S
C186 C191 1.499 . S
N187 Co170 1.989 . S
N187 C186 1.342 . S
N187 N188 1.388 . S
N188 Co171 1.993 . S
N188 N187 1.388 . S
N188 C189 1.346 . S
C189 N188 1.346 . S
C189 C190 1.396 . S
C189 C199 1.510 . S
C190 C186 1.401 . S
C190 C189 1.396 . S
C191 C186 1.499 . S
C191 H192 0.959 . S
C191 H193 0.960 . S
C191 H194 0.961 . S
H192 C191 0.959 . S
H193 C191 0.960 . S
H194 C191 0.961 . S
O195 Co170 1.967 . S
O195 C203 1.258 . S
O196 Co171 1.941 . S
O196 C203 1.266 . S
H197 C199 0.959 . S
H198 C199 0.961 . S
C199 C189 1.510 . S
C199 H197 0.959 . S
C199 H198 0.961 . S
C199 H200 0.960 . S
H200 C199 0.960 . S
H201 N181 0.862 . S
O202 Co170 1.920 . S
O202 C175 1.289 . S
C203 O195 1.258 . S
C203 O196 1.266 . S
Co204 O207 1.970 . S
Co204 N221 1.989 . S
Co204 O229 1.967 . S
Co204 O236 1.920 . S
Co205 O208 1.966 . S
Co205 N214 2.022 . S
Co205 N222 1.993 . S
Co205 O230 1.941 . S
C206 O207 1.258 . S
C206 O208 1.263 . S
O207 Co204 1.970 . S
O207 C206 1.258 . S
O208 Co205 1.966 . S
O208 C206 1.263 . S
C209 O210 1.235 . S
C209 O236 1.289 . S
O210 C209 1.235 . S
C211 C213 1.400 . S
C211 N214 1.351 . S
C211 C216 1.501 . S
C212 C213 1.387 . S
C212 N215 1.341 . S
C213 C211 1.400 . S
C213 C212 1.387 . S
N214 Co205 2.022 . S
N214 C211 1.351 . S
N214 N215 1.365 . S
N215 C212 1.341 . S
N215 N214 1.365 . S
N215 H235 0.862 . S
C216 C211 1.501 . S
C216 H217 0.961 . S
C216 H218 0.961 . S
C216 H219 0.960 . S
H217 C216 0.961 . S
H218 C216 0.961 . S
H219 C216 0.960 . S
C220 N221 1.342 . S
C220 C224 1.401 . S
C220 C225 1.499 . S
N221 Co204 1.989 . S
N221 C220 1.342 . S
N221 N222 1.388 . S
N222 Co205 1.993 . S
N222 N221 1.388 . S
N222 C223 1.346 . S
C223 N222 1.346 . S
C223 C224 1.396 . S
C223 C233 1.510 . S
C224 C220 1.401 . S
C224 C223 1.396 . S
C225 C220 1.499 . S
C225 H226 0.959 . S
C225 H227 0.960 . S
C225 H228 0.961 . S
H226 C225 0.959 . S
H227 C225 0.960 . S
H228 C225 0.961 . S
O229 Co204 1.967 . S
O229 C237 1.258 . S
O230 Co205 1.941 . S
O230 C237 1.266 . S
H231 C233 0.959 . S
H232 C233 0.961 . S
C233 C223 1.510 . S
C233 H231 0.959 . S
C233 H232 0.961 . S
C233 H234 0.960 . S
H234 C233 0.960 . S
H235 N215 0.862 . S
O236 Co204 1.920 . S
O236 C209 1.289 . S
C237 O229 1.258 . S
C237 O230 1.266 . S
Co238 O241 1.970 . S
Co238 N255 1.989 . S
Co238 O263 1.967 . S
Co238 O270 1.920 . S
Co239 O242 1.966 . S
Co239 N248 2.022 . S
Co239 N256 1.993 . S
Co239 O264 1.941 . S
C240 O241 1.258 . S
C240 O242 1.263 . S
O241 Co238 1.970 . S
O241 C240 1.258 . S
O242 Co239 1.966 . S
O242 C240 1.263 . S
C243 O244 1.235 . S
C243 O270 1.289 . S
O244 C243 1.235 . S
C245 C247 1.400 . S
C245 N248 1.351 . S
C245 C250 1.501 . S
C246 C247 1.387 . S
C246 N249 1.341 . S
C247 C245 1.400 . S
C247 C246 1.387 . S
N248 Co239 2.022 . S
N248 C245 1.351 . S
N248 N249 1.365 . S
N249 C246 1.341 . S
N249 N248 1.365 . S
N249 H269 0.862 . S
C250 C245 1.501 . S
C250 H251 0.961 . S
C250 H252 0.961 . S
C250 H253 0.960 . S
H251 C250 0.961 . S
H252 C250 0.961 . S
H253 C250 0.960 . S
C254 N255 1.342 . S
C254 C258 1.401 . S
C254 C259 1.499 . S
N255 Co238 1.989 . S
N255 C254 1.342 . S
N255 N256 1.388 . S
N256 Co239 1.993 . S
N256 N255 1.388 . S
N256 C257 1.346 . S
C257 N256 1.346 . S
C257 C258 1.396 . S
C257 C267 1.510 . S
C258 C254 1.401 . S
C258 C257 1.396 . S
C259 C254 1.499 . S
C259 H260 0.959 . S
C259 H261 0.960 . S
C259 H262 0.961 . S
H260 C259 0.959 . S
H261 C259 0.960 . S
H262 C259 0.961 . S
O263 Co238 1.967 . S
O263 C271 1.258 . S
O264 Co239 1.941 . S
O264 C271 1.266 . S
H265 C267 0.959 . S
H266 C267 0.961 . S
C267 C257 1.510 . S
C267 H265 0.959 . S
C267 H266 0.961 . S
C267 H268 0.960 . S
H268 C267 0.960 . S
H269 N249 0.862 . S
O270 Co238 1.920 . S
O270 C243 1.289 . S
C271 O263 1.258 . S
C271 O264 1.266 . S
Co272 O275 1.970 . S
Co272 N289 1.989 . S
Co272 O297 1.967 . S
Co272 O304 1.920 . S
Co273 O276 1.966 . S
Co273 N282 2.022 . S
Co273 N290 1.993 . S
Co273 O298 1.941 . S
C274 O275 1.258 . S
C274 O276 1.263 . S
O275 Co272 1.970 . S
O275 C274 1.258 . S
O276 Co273 1.966 . S
O276 C274 1.263 . S
C277 O278 1.235 . S
C277 O304 1.289 . S
O278 C277 1.235 . S
C279 C281 1.400 . S
C279 N282 1.351 . S
C279 C284 1.501 . S
C280 C281 1.387 . S
C280 N283 1.341 . S
C281 C279 1.400 . S
C281 C280 1.387 . S
N282 Co273 2.022 . S
N282 C279 1.351 . S
N282 N283 1.365 . S
N283 C280 1.341 . S
N283 N282 1.365 . S
N283 H303 0.862 . S
C284 C279 1.501 . S
C284 H285 0.961 . S
C284 H286 0.961 . S
C284 H287 0.960 . S
H285 C284 0.961 . S
H286 C284 0.961 . S
H287 C284 0.960 . S
C288 N289 1.342 . S
C288 C292 1.401 . S
C288 C293 1.499 . S
N289 Co272 1.989 . S
N289 C288 1.342 . S
N289 N290 1.388 . S
N290 Co273 1.993 . S
N290 N289 1.388 . S
N290 C291 1.346 . S
C291 N290 1.346 . S
C291 C292 1.396 . S
C291 C301 1.510 . S
C292 C288 1.401 . S
C292 C291 1.396 . S
C293 C288 1.499 . S
C293 H294 0.959 . S
C293 H295 0.960 . S
C293 H296 0.961 . S
H294 C293 0.959 . S
H295 C293 0.960 . S
H296 C293 0.961 . S
O297 Co272 1.967 . S
O297 C305 1.258 . S
O298 Co273 1.941 . S
O298 C305 1.266 . S
H299 C301 0.959 . S
H300 C301 0.961 . S
C301 C291 1.510 . S
C301 H299 0.959 . S
C301 H300 0.961 . S
C301 H302 0.960 . S
H302 C301 0.960 . S
H303 N283 0.862 . S
O304 Co272 1.920 . S
O304 C277 1.289 . S
C305 O297 1.258 . S
C305 O298 1.266 . S
Co306 O309 1.970 . S
Co306 N323 1.989 . S
Co306 O331 1.967 . S
Co306 O338 1.920 . S
Co307 O310 1.966 . S
Co307 N316 2.022 . S
Co307 N324 1.993 . S
Co307 O332 1.941 . S
C308 O309 1.258 . S
C308 O310 1.263 . S
O309 Co306 1.970 . S
O309 C308 1.258 . S
O310 Co307 1.966 . S
O310 C308 1.263 . S
C311 O312 1.235 . S
C311 O338 1.289 . S
O312 C311 1.235 . S
C313 C315 1.400 . S
C313 N316 1.351 1_455 S
C313 C318 1.501 . S
C314 C315 1.387 . S
C314 N317 1.341 1_455 S
C315 C313 1.400 . S
C315 C314 1.387 . S
N316 Co307 2.022 . S
N316 C313 1.351 1_655 S
N316 N317 1.365 . S
N317 C314 1.341 1_655 S
N317 N316 1.365 . S
N317 H337 0.862 . S
C318 C313 1.501 . S
C318 H319 0.961 1_455 S
C318 H320 0.961 1_455 S
C318 H321 0.960 . S
H319 C318 0.961 1_655 S
H320 C318 0.961 1_655 S
H321 C318 0.960 . S
C322 N323 1.342 . S
C322 C326 1.401 . S
C322 C327 1.499 . S
N323 Co306 1.989 . S
N323 C322 1.342 . S
N323 N324 1.388 . S
N324 Co307 1.993 . S
N324 N323 1.388 . S
N324 C325 1.346 . S
C325 N324 1.346 . S
C325 C326 1.396 . S
C325 C335 1.510 . S
C326 C322 1.401 . S
C326 C325 1.396 . S
C327 C322 1.499 . S
C327 H328 0.959 . S
C327 H329 0.960 . S
C327 H330 0.961 . S
H328 C327 0.959 . S
H329 C327 0.960 . S
H330 C327 0.961 . S
O331 Co306 1.967 . S
O331 C339 1.258 . S
O332 Co307 1.941 . S
O332 C339 1.266 . S
H333 C335 0.959 . S
H334 C335 0.961 . S
C335 C325 1.510 . S
C335 H333 0.959 . S
C335 H334 0.961 . S
C335 H336 0.960 . S
H336 C335 0.960 . S
H337 N317 0.862 . S
O338 Co306 1.920 . S
O338 C311 1.289 . S
C339 O331 1.258 . S
C339 O332 1.266 . S
Co340 O343 1.970 . S
Co340 N357 1.989 . S
Co340 O365 1.967 . S
Co340 O372 1.920 . S
Co341 O344 1.966 . S
Co341 N350 2.022 . S
Co341 N358 1.993 . S
Co341 O366 1.941 . S
C342 O343 1.258 . S
C342 O344 1.263 . S
O343 Co340 1.970 . S
O343 C342 1.258 . S
O344 Co341 1.966 . S
O344 C342 1.263 . S
C345 O346 1.235 . S
C345 O372 1.289 . S
O346 C345 1.235 . S
C347 C349 1.400 . S
C347 N350 1.351 . S
C347 C352 1.501 . S
C348 C349 1.387 . S
C348 N351 1.341 . S
C349 C347 1.400 . S
C349 C348 1.387 . S
N350 Co341 2.022 . S
N350 C347 1.351 . S
N350 N351 1.365 . S
N351 C348 1.341 . S
N351 N350 1.365 . S
N351 H371 0.862 . S
C352 C347 1.501 . S
C352 H353 0.961 . S
C352 H354 0.961 . S
C352 H355 0.960 . S
H353 C352 0.961 . S
H354 C352 0.961 . S
H355 C352 0.960 . S
C356 N357 1.342 . S
C356 C360 1.401 . S
C356 C361 1.499 . S
N357 Co340 1.989 . S
N357 C356 1.342 . S
N357 N358 1.388 . S
N358 Co341 1.993 . S
N358 N357 1.388 . S
N358 C359 1.346 . S
C359 N358 1.346 . S
C359 C360 1.396 . S
C359 C369 1.510 . S
C360 C356 1.401 . S
C360 C359 1.396 . S
C361 C356 1.499 . S
C361 H362 0.959 . S
C361 H363 0.960 . S
C361 H364 0.961 . S
H362 C361 0.959 . S
H363 C361 0.960 . S
H364 C361 0.961 . S
O365 Co340 1.967 . S
O365 C373 1.258 . S
O366 Co341 1.941 . S
O366 C373 1.266 . S
H367 C369 0.959 . S
H368 C369 0.961 . S
C369 C359 1.510 . S
C369 H367 0.959 . S
C369 H368 0.961 . S
C369 H370 0.960 . S
H370 C369 0.960 . S
H371 N351 0.862 . S
O372 Co340 1.920 . S
O372 C345 1.289 . S
C373 O365 1.258 . S
C373 O366 1.266 . S
Co374 O377 1.970 . S
Co374 N391 1.989 . S
Co374 O399 1.967 . S
Co374 O406 1.920 . S
Co375 O378 1.966 . S
Co375 N384 2.022 . S
Co375 N392 1.993 . S
Co375 O400 1.941 . S
C376 O377 1.258 . S
C376 O378 1.263 . S
O377 Co374 1.970 . S
O377 C376 1.258 . S
O378 Co375 1.966 . S
O378 C376 1.263 . S
C379 O380 1.235 . S
C379 O406 1.289 . S
O380 C379 1.235 . S
C381 C383 1.400 1_545 S
C381 N384 1.351 . S
C381 C386 1.501 1_545 S
C382 C383 1.387 . S
C382 N385 1.323 1_565 S
C383 C381 1.400 1_565 S
C383 C382 1.387 . S
N384 Co375 2.022 . S
N384 C381 1.351 . S
N384 N385 1.365 . S
N385 C382 1.323 1_545 S
N385 N384 1.365 . S
N385 H405 0.862 . S
C386 C381 1.501 1_565 S
C386 H387 0.961 1_565 S
C386 H388 0.961 1_565 S
C386 H389 0.960 . S
H387 C386 0.961 1_545 S
H388 C386 0.961 1_545 S
H389 C386 0.960 . S
C390 N391 1.342 . S
C390 C394 1.401 . S
C390 C395 1.499 . S
N391 Co374 1.989 . S
N391 C390 1.342 . S
N391 N392 1.388 . S
N392 Co375 1.993 . S
N392 N391 1.388 . S
N392 C393 1.346 . S
C393 N392 1.346 . S
C393 C394 1.396 . S
C393 C403 1.510 . S
C394 C390 1.401 . S
C394 C393 1.396 . S
C395 C390 1.499 . S
C395 H396 0.959 . S
C395 H397 0.960 . S
C395 H398 0.961 . S
H396 C395 0.959 . S
H397 C395 0.960 . S
H398 C395 0.961 . S
O399 Co374 1.967 . S
O399 C407 1.258 . S
O400 Co375 1.941 . S
O400 C407 1.266 . S
H401 C403 0.959 . S
H402 C403 0.961 . S
C403 C393 1.510 . S
C403 H401 0.959 . S
C403 H402 0.961 . S
C403 H404 0.960 . S
H404 C403 0.960 . S
H405 N385 0.862 . S
O406 Co374 1.920 . S
O406 C379 1.289 . S
C407 O399 1.258 . S
C407 O400 1.266 . S
Co408 O411 1.970 . S
Co408 N425 1.989 . S
Co408 O433 1.967 . S
Co408 O440 1.920 . S
Co409 O412 1.966 . S
Co409 N418 2.022 . S
Co409 N426 1.993 . S
Co409 O434 1.941 . S
C410 O411 1.258 . S
C410 O412 1.263 . S
O411 Co408 1.970 . S
O411 C410 1.258 . S
O412 Co409 1.966 . S
O412 C410 1.263 . S
C413 O414 1.235 . S
C413 O440 1.289 . S
O414 C413 1.235 . S
C415 C417 1.400 . S
C415 N418 1.351 1_545 S
C415 C420 1.501 . S
C416 C417 1.387 . S
C416 N419 1.341 1_545 S
C417 C415 1.400 . S
C417 C416 1.387 . S
N418 Co409 2.022 . S
N418 C415 1.351 1_565 S
N418 N419 1.365 . S
N419 C416 1.341 1_565 S
N419 N418 1.365 . S
N419 H439 0.862 . S
C420 C415 1.501 . S
C420 H421 0.961 1_545 S
C420 H422 0.961 1_545 S
C420 H423 0.960 . S
H421 C420 0.961 1_565 S
H422 C420 0.961 1_565 S
H423 C420 0.960 . S
C424 N425 1.342 . S
C424 C428 1.401 . S
C424 C429 1.499 . S
N425 Co408 1.989 . S
N425 C424 1.342 . S
N425 N426 1.388 . S
N426 Co409 1.993 . S
N426 N425 1.388 . S
N426 C427 1.346 . S
C427 N426 1.346 . S
C427 C428 1.396 . S
C427 C437 1.510 . S
C428 C424 1.401 . S
C428 C427 1.396 . S
C429 C424 1.499 . S
C429 H430 0.959 . S
C429 H431 0.960 . S
C429 H432 0.961 . S
H430 C429 0.959 . S
H431 C429 0.960 . S
H432 C429 0.961 . S
O433 Co408 1.967 . S
O433 C441 1.258 . S
O434 Co409 1.941 . S
O434 C441 1.266 . S
H435 C437 0.959 . S
H436 C437 0.961 . S
C437 C427 1.510 . S
C437 H435 0.959 . S
C437 H436 0.961 . S
C437 H438 0.960 . S
H438 C437 0.960 . S
H439 N419 0.862 . S
O440 Co408 1.920 . S
O440 C413 1.289 . S
C441 O433 1.258 . S
C441 O434 1.266 . S
Co442 O445 1.970 . S
Co442 N459 1.989 . S
Co442 O467 1.967 . S
Co442 O474 1.920 . S
Co443 O446 1.966 . S
Co443 N452 2.022 . S
Co443 N460 1.993 . S
Co443 O468 1.941 . S
C444 O445 1.258 . S
C444 O446 1.263 . S
O445 Co442 1.970 . S
O445 C444 1.258 . S
O446 Co443 1.966 . S
O446 C444 1.263 . S
C447 O448 1.235 . S
C447 O474 1.289 . S
O448 C447 1.235 . S
C449 C451 1.400 1_455 S
C449 N452 1.351 . S
C449 C454 1.501 1_455 S
C450 C451 1.387 . S
C450 N453 1.323 1_655 S
C451 C449 1.400 1_655 S
C451 C450 1.387 . S
N452 Co443 2.022 . S
N452 C449 1.351 . S
N452 N453 1.365 . S
N453 C450 1.323 1_455 S
N453 N452 1.365 . S
N453 H473 0.862 . S
C454 C449 1.501 1_655 S
C454 H455 0.961 1_655 S
C454 H456 0.961 1_655 S
C454 H457 0.960 . S
H455 C454 0.961 1_455 S
H456 C454 0.961 1_455 S
H457 C454 0.960 . S
C458 N459 1.342 . S
C458 C462 1.401 . S
C458 C463 1.499 . S
N459 Co442 1.989 . S
N459 C458 1.342 . S
N459 N460 1.388 . S
N460 Co443 1.993 . S
N460 N459 1.388 . S
N460 C461 1.346 . S
C461 N460 1.346 . S
C461 C462 1.396 . S
C461 C471 1.510 . S
C462 C458 1.401 . S
C462 C461 1.396 . S
C463 C458 1.499 . S
C463 H464 0.959 . S
C463 H465 0.960 . S
C463 H466 0.961 . S
H464 C463 0.959 . S
H465 C463 0.960 . S
H466 C463 0.961 . S
O467 Co442 1.967 . S
O467 C475 1.258 . S
O468 Co443 1.941 . S
O468 C475 1.266 . S
H469 C471 0.959 . S
H470 C471 0.961 . S
C471 C461 1.510 . S
C471 H469 0.959 . S
C471 H470 0.961 . S
C471 H472 0.960 . S
H472 C471 0.960 . S
H473 N453 0.862 . S
O474 Co442 1.920 . S
O474 C447 1.289 . S
C475 O467 1.258 . S
C475 O468 1.266 . S
Co476 O479 1.970 . S
Co476 N493 1.989 . S
Co476 O501 1.967 . S
Co476 O508 1.920 . S
Co477 O480 1.966 . S
Co477 N486 2.022 . S
Co477 N494 1.993 . S
Co477 O502 1.941 . S
C478 O479 1.258 . S
C478 O480 1.263 . S
O479 Co476 1.970 . S
O479 C478 1.258 . S
O480 Co477 1.966 . S
O480 C478 1.263 . S
C481 O482 1.235 . S
C481 O508 1.289 . S
O482 C481 1.235 . S
C483 C485 1.400 . S
C483 N486 1.351 . S
C483 C488 1.501 . S
C484 C485 1.387 . S
C484 N487 1.341 . S
C485 C483 1.400 . S
C485 C484 1.387 . S
N486 Co477 2.022 . S
N486 C483 1.351 . S
N486 N487 1.365 . S
N487 C484 1.341 . S
N487 N486 1.365 . S
N487 H507 0.862 . S
C488 C483 1.501 . S
C488 H489 0.961 . S
C488 H490 0.961 . S
C488 H491 0.960 . S
H489 C488 0.961 . S
H490 C488 0.961 . S
H491 C488 0.960 . S
C492 N493 1.342 . S
C492 C496 1.401 . S
C492 C497 1.499 . S
N493 Co476 1.989 . S
N493 C492 1.342 . S
N493 N494 1.388 . S
N494 Co477 1.993 . S
N494 N493 1.388 . S
N494 C495 1.346 . S
C495 N494 1.346 . S
C495 C496 1.396 . S
C495 C505 1.510 . S
C496 C492 1.401 . S
C496 C495 1.396 . S
C497 C492 1.499 . S
C497 H498 0.959 . S
C497 H499 0.960 . S
C497 H500 0.961 . S
H498 C497 0.959 . S
H499 C497 0.960 . S
H500 C497 0.961 . S
O501 Co476 1.967 . S
O501 C509 1.258 . S
O502 Co477 1.941 . S
O502 C509 1.266 . S
H503 C505 0.959 . S
H504 C505 0.961 . S
C505 C495 1.510 . S
C505 H503 0.959 . S
C505 H504 0.961 . S
C505 H506 0.960 . S
H506 C505 0.960 . S
H507 N487 0.862 . S
O508 Co476 1.920 . S
O508 C481 1.289 . S
C509 O501 1.258 . S
C509 O502 1.266 . S
Co510 O513 1.970 . S
Co510 N527 1.989 . S
Co510 O535 1.967 . S
Co510 O542 1.920 . S
Co511 O514 1.966 . S
Co511 N520 2.022 . S
Co511 N528 1.993 . S
Co511 O536 1.941 . S
C512 O513 1.258 . S
C512 O514 1.263 . S
O513 Co510 1.970 . S
O513 C512 1.258 . S
O514 Co511 1.966 . S
O514 C512 1.263 . S
C515 O516 1.235 . S
C515 O542 1.289 . S
O516 C515 1.235 . S
C517 C519 1.400 . S
C517 N520 1.351 . S
C517 C522 1.501 . S
C518 C519 1.387 . S
C518 N521 1.341 . S
C519 C517 1.400 . S
C519 C518 1.387 . S
N520 Co511 2.022 . S
N520 C517 1.351 . S
N520 N521 1.365 . S
N521 C518 1.341 . S
N521 N520 1.365 . S
N521 H541 0.862 . S
C522 C517 1.501 . S
C522 H523 0.961 . S
C522 H524 0.961 . S
C522 H525 0.960 . S
H523 C522 0.961 . S
H524 C522 0.961 . S
H525 C522 0.960 . S
C526 N527 1.342 . S
C526 C530 1.401 . S
C526 C531 1.499 . S
N527 Co510 1.989 . S
N527 C526 1.342 . S
N527 N528 1.388 . S
N528 Co511 1.993 . S
N528 N527 1.388 . S
N528 C529 1.346 . S
C529 N528 1.346 . S
C529 C530 1.396 . S
C529 C539 1.510 . S
C530 C526 1.401 . S
C530 C529 1.396 . S
C531 C526 1.499 . S
C531 H532 0.959 . S
C531 H533 0.960 . S
C531 H534 0.961 . S
H532 C531 0.959 . S
H533 C531 0.960 . S
H534 C531 0.961 . S
O535 Co510 1.967 . S
O535 C543 1.258 . S
O536 Co511 1.941 . S
O536 C543 1.266 . S
H537 C539 0.959 . S
H538 C539 0.961 . S
C539 C529 1.510 . S
C539 H537 0.959 . S
C539 H538 0.961 . S
C539 H540 0.960 . S
H540 C539 0.960 . S
H541 N521 0.862 . S
O542 Co510 1.920 . S
O542 C515 1.289 . S
C543 O535 1.258 . S
C543 O536 1.266 . S
Co544 O547 1.970 . S
Co544 N561 1.989 . S
Co544 O569 1.967 . S
Co544 O576 1.920 . S
Co545 O548 1.966 . S
Co545 N554 2.022 . S
Co545 N562 1.993 . S
Co545 O570 1.941 . S
C546 O547 1.258 . S
C546 O548 1.263 . S
O547 Co544 1.970 . S
O547 C546 1.258 . S
O548 Co545 1.966 . S
O548 C546 1.263 . S
C549 O550 1.235 . S
C549 O576 1.289 . S
O550 C549 1.235 . S
C551 C553 1.400 . S
C551 N554 1.351 . S
C551 C556 1.501 . S
C552 C553 1.387 . S
C552 N555 1.341 . S
C553 C551 1.400 . S
C553 C552 1.387 . S
N554 Co545 2.022 . S
N554 C551 1.351 . S
N554 N555 1.365 . S
N555 C552 1.341 . S
N555 N554 1.365 . S
N555 H575 0.862 . S
C556 C551 1.501 . S
C556 H557 0.961 . S
C556 H558 0.961 . S
C556 H559 0.960 . S
H557 C556 0.961 . S
H558 C556 0.961 . S
H559 C556 0.960 . S
C560 N561 1.342 . S
C560 C564 1.401 . S
C560 C565 1.499 . S
N561 Co544 1.989 . S
N561 C560 1.342 . S
N561 N562 1.388 . S
N562 Co545 1.993 . S
N562 N561 1.388 . S
N562 C563 1.346 . S
C563 N562 1.346 . S
C563 C564 1.396 . S
C563 C573 1.510 . S
C564 C560 1.401 . S
C564 C563 1.396 . S
C565 C560 1.499 . S
C565 H566 0.959 . S
C565 H567 0.960 . S
C565 H568 0.961 . S
H566 C565 0.959 . S
H567 C565 0.960 . S
H568 C565 0.961 . S
O569 Co544 1.967 . S
O569 C577 1.258 . S
O570 Co545 1.941 . S
O570 C577 1.266 . S
H571 C573 0.959 . S
H572 C573 0.961 . S
C573 C563 1.510 . S
C573 H571 0.959 . S
C573 H572 0.961 . S
C573 H574 0.960 . S
H574 C573 0.960 . S
H575 N555 0.862 . S
O576 Co544 1.920 . S
O576 C549 1.289 . S
C577 O569 1.258 . S
C577 O570 1.266 . S
Co578 O581 1.970 . S
Co578 N595 1.989 . S
Co578 O603 1.967 . S
Co578 O610 1.920 . S
Co579 O582 1.966 . S
Co579 N588 2.022 . S
Co579 N596 1.993 . S
Co579 O604 1.941 . S
C580 O581 1.258 . S
C580 O582 1.263 . S
O581 Co578 1.970 . S
O581 C580 1.258 . S
O582 Co579 1.966 . S
O582 C580 1.263 . S
C583 O584 1.235 . S
C583 O610 1.289 . S
O584 C583 1.235 . S
C585 C587 1.400 . S
C585 N588 1.351 . S
C585 C590 1.501 . S
C586 C587 1.387 . S
C586 N589 1.341 . S
C587 C585 1.400 . S
C587 C586 1.387 . S
N588 Co579 2.022 . S
N588 C585 1.351 . S
N588 N589 1.365 . S
N589 C586 1.341 . S
N589 N588 1.365 . S
N589 H609 0.862 . S
C590 C585 1.501 . S
C590 H591 0.961 . S
C590 H592 0.961 . S
C590 H593 0.960 . S
H591 C590 0.961 . S
H592 C590 0.961 . S
H593 C590 0.960 . S
C594 N595 1.342 . S
C594 C598 1.401 . S
C594 C599 1.499 . S
N595 Co578 1.989 . S
N595 C594 1.342 . S
N595 N596 1.388 . S
N596 Co579 1.993 . S
N596 N595 1.388 . S
N596 C597 1.346 . S
C597 N596 1.346 . S
C597 C598 1.396 . S
C597 C607 1.510 . S
C598 C594 1.401 . S
C598 C597 1.396 . S
C599 C594 1.499 . S
C599 H600 0.959 . S
C599 H601 0.960 . S
C599 H602 0.961 . S
H600 C599 0.959 . S
H601 C599 0.960 . S
H602 C599 0.961 . S
O603 Co578 1.967 . S
O603 C611 1.258 . S
O604 Co579 1.941 . S
O604 C611 1.266 . S
H605 C607 0.959 . S
H606 C607 0.961 . S
C607 C597 1.510 . S
C607 H605 0.959 . S
C607 H606 0.961 . S
C607 H608 0.960 . S
H608 C607 0.960 . S
H609 N589 0.862 . S
O610 Co578 1.920 . S
O610 C583 1.289 . S
C611 O603 1.258 . S
C611 O604 1.266 . S
H612 C620 0.950 . S
H613 C625 0.950 . S
H614 C622 0.950 . S
H615 C624 0.950 . S
H616 C626 0.950 . S
H617 C628 0.950 . S
H618 C630 0.950 . S
H619 C631 0.950 . S
C620 H612 0.950 . S
C620 C621 1.386 . S
C620 C622 1.391 . S
C621 C620 1.386 . S
C621 C625 1.393 . S
C622 H614 0.950 . S
C622 C620 1.391 . S
C622 C623 1.400 . S
C623 C622 1.400 . S
C623 C624 1.398 . S
C623 C629 1.491 . S
C624 H615 0.950 . S
C624 C623 1.398 . S
C624 C625 1.391 . S
C625 H613 0.950 . S
C625 C621 1.393 . S
C625 C624 1.391 . S
C626 H616 0.950 . S
C626 C627 1.386 . S
C626 C628 1.391 . S
C627 C626 1.386 . S
C627 C631 1.393 . S
C628 H617 0.950 . S
C628 C626 1.391 . S
C628 C629 1.400 . S
C629 C623 1.491 . S
C629 C628 1.400 . S
C629 C630 1.398 . S
C630 H618 0.950 . S
C630 C629 1.398 . S
C630 C631 1.391 . S
C631 H619 0.950 . S
C631 C627 1.393 . S
C631 C630 1.391 . S
H632 C640 0.950 . S
H633 C645 0.950 . S
H634 C642 0.950 . S
H635 C644 0.950 . S
H636 C646 0.950 1_545 S
H637 C648 0.950 . S
H638 C650 0.950 . S
H639 C651 0.950 . S
C640 H632 0.950 . S
C640 C641 1.386 . S
C640 C642 1.391 . S
C641 C640 1.386 . S
C641 C645 1.393 . S
C642 H634 0.950 . S
C642 C640 1.391 . S
C642 C643 1.400 . S
C643 C642 1.400 . S
C643 C644 1.398 . S
C643 C649 1.491 . S
C644 H635 0.950 . S
C644 C643 1.398 . S
C644 C645 1.391 . S
C645 H633 0.950 . S
C645 C641 1.393 . S
C645 C644 1.391 . S
C646 H636 0.950 1_565 S
C646 C647 1.386 . S
C646 C648 1.391 . S
C647 C646 1.386 . S
C647 C651 1.393 . S
C648 H637 0.950 . S
C648 C646 1.391 . S
C648 C649 1.400 . S
C649 C643 1.491 . S
C649 C648 1.400 . S
C649 C650 1.398 . S
C650 H638 0.950 . S
C650 C649 1.398 . S
C650 C651 1.391 . S
C651 H639 0.950 . S
C651 C647 1.393 . S
C651 C650 1.391 . S
H652 C660 0.950 . S
H653 C665 0.950 . S
H654 C662 0.950 . S
H655 C664 0.950 . S
H656 C666 0.950 . S
H657 C668 0.950 . S
H658 C670 0.950 . S
H659 C671 0.950 . S
C660 H652 0.950 . S
C660 C661 1.386 . S
C660 C662 1.391 . S
C661 C660 1.386 . S
C661 C665 1.393 . S
C662 H654 0.950 . S
C662 C660 1.391 . S
C662 C663 1.400 . S
C663 C662 1.400 . S
C663 C664 1.398 . S
C663 C669 1.491 . S
C664 H655 0.950 . S
C664 C663 1.398 . S
C664 C665 1.391 . S
C665 H653 0.950 . S
C665 C661 1.393 . S
C665 C664 1.391 . S
C666 H656 0.950 . S
C666 C667 1.386 . S
C666 C668 1.391 . S
C667 C666 1.386 . S
C667 C671 1.393 . S
C668 H657 0.950 . S
C668 C666 1.391 . S
C668 C669 1.400 . S
C669 C663 1.491 . S
C669 C668 1.400 . S
C669 C670 1.398 . S
C670 H658 0.950 . S
C670 C669 1.398 . S
C670 C671 1.391 . S
C671 H659 0.950 . S
C671 C667 1.393 . S
C671 C670 1.391 . S
H672 C680 0.950 . S
H673 C685 0.950 . S
H674 C682 0.950 . S
H675 C684 0.950 . S
H676 C686 0.950 . S
H677 C688 0.950 . S
H678 C690 0.950 . S
H679 C691 0.950 . S
C680 H672 0.950 . S
C680 C681 1.386 . S
C680 C682 1.391 . S
C681 C680 1.386 . S
C681 C685 1.393 . S
C682 H674 0.950 . S
C682 C680 1.391 . S
C682 C683 1.400 . S
C683 C682 1.400 . S
C683 C684 1.398 . S
C683 C689 1.491 . S
C684 H675 0.950 . S
C684 C683 1.398 . S
C684 C685 1.391 . S
C685 H673 0.950 . S
C685 C681 1.393 . S
C685 C684 1.391 . S
C686 H676 0.950 . S
C686 C687 1.386 . S
C686 C688 1.391 . S
C687 C686 1.386 . S
C687 C691 1.393 . S
C688 H677 0.950 . S
C688 C686 1.391 . S
C688 C689 1.400 . S
C689 C683 1.491 . S
C689 C688 1.400 . S
C689 C690 1.398 . S
C690 H678 0.950 . S
C690 C689 1.398 . S
C690 C691 1.391 . S
C691 H679 0.950 . S
C691 C687 1.393 . S
C691 C690 1.391 . S
H692 C700 0.950 . S
H693 C705 0.950 . S
H694 C702 0.950 . S
H695 C704 0.950 . S
H696 C706 0.950 . S
H697 C708 0.950 . S
H698 C710 0.950 . S
H699 C711 0.950 . S
C700 H692 0.950 . S
C700 C701 1.386 . S
C700 C702 1.391 . S
C701 C700 1.386 . S
C701 C705 1.393 . S
C702 H694 0.950 . S
C702 C700 1.391 . S
C702 C703 1.400 . S
C703 C702 1.400 . S
C703 C704 1.398 . S
C703 C709 1.491 . S
C704 H695 0.950 . S
C704 C703 1.398 . S
C704 C705 1.391 . S
C705 H693 0.950 . S
C705 C701 1.393 . S
C705 C704 1.391 . S
C706 H696 0.950 . S
C706 C707 1.386 . S
C706 C708 1.391 . S
C707 C706 1.386 . S
C707 C711 1.393 . S
C708 H697 0.950 . S
C708 C706 1.391 . S
C708 C709 1.400 . S
C709 C703 1.491 . S
C709 C708 1.400 . S
C709 C710 1.398 . S
C710 H698 0.950 . S
C710 C709 1.398 . S
C710 C711 1.391 . S
C711 H699 0.950 . S
C711 C707 1.393 . S
C711 C710 1.391 . S
H712 C720 0.950 . S
H713 C725 0.950 . S
H714 C722 0.950 . S
H715 C724 0.950 . S
H716 C726 0.950 . S
H717 C728 0.950 . S
H718 C730 0.950 . S
H719 C731 0.950 . S
C720 H712 0.950 . S
C720 C721 1.386 . S
C720 C722 1.391 . S
C721 C720 1.386 . S
C721 C725 1.393 . S
C722 H714 0.950 . S
C722 C720 1.391 . S
C722 C723 1.400 . S
C723 C722 1.400 . S
C723 C724 1.398 . S
C723 C729 1.491 . S
C724 H715 0.950 . S
C724 C723 1.398 . S
C724 C725 1.391 . S
C725 H713 0.950 . S
C725 C721 1.393 . S
C725 C724 1.391 . S
C726 H716 0.950 . S
C726 C727 1.386 . S
C726 C728 1.391 . S
C727 C726 1.386 . S
C727 C731 1.393 . S
C728 H717 0.950 . S
C728 C726 1.391 . S
C728 C729 1.400 . S
C729 C723 1.491 . S
C729 C728 1.400 . S
C729 C730 1.398 . S
C730 H718 0.950 . S
C730 C729 1.398 . S
C730 C731 1.391 . S
C731 H719 0.950 . S
C731 C727 1.393 . S
C731 C730 1.391 . S
H732 C740 0.950 . S
H733 C745 0.950 . S
H734 C742 0.950 . S
H735 C744 0.950 . S
H736 C746 0.950 . S
H737 C748 0.950 . S
H738 C750 0.950 . S
H739 C751 0.950 . S
C740 H732 0.950 . S
C740 C741 1.386 . S
C740 C742 1.391 . S
C741 C740 1.386 . S
C741 C745 1.393 . S
C742 H734 0.950 . S
C742 C740 1.391 . S
C742 C743 1.400 . S
C743 C742 1.400 . S
C743 C744 1.398 . S
C743 C749 1.491 . S
C744 H735 0.950 . S
C744 C743 1.398 . S
C744 C745 1.391 . S
C745 H733 0.950 . S
C745 C741 1.393 . S
C745 C744 1.391 . S
C746 H736 0.950 . S
C746 C747 1.386 . S
C746 C748 1.391 . S
C747 C746 1.386 . S
C747 C751 1.393 . S
C748 H737 0.950 . S
C748 C746 1.391 . S
C748 C749 1.400 . S
C749 C743 1.491 . S
C749 C748 1.400 . S
C749 C750 1.398 . S
C750 H738 0.950 . S
C750 C749 1.398 . S
C750 C751 1.391 . S
C751 H739 0.950 . S
C751 C747 1.393 . S
C751 C750 1.391 . S
H752 C760 0.950 . S
H753 C765 0.950 . S
H754 C762 0.950 . S
H755 C764 0.950 . S
H756 C766 0.950 . S
H757 C768 0.950 1_565 S
H758 C770 0.950 . S
H759 C771 0.950 . S
C760 H752 0.950 . S
C760 C761 1.386 1_545 S
C760 C762 1.391 . S
C761 C760 1.386 1_565 S
C761 C765 1.393 . S
C762 H754 0.950 . S
C762 C760 1.391 . S
C762 C763 1.400 . S
C763 C762 1.400 . S
C763 C764 1.398 1_545 S
C763 C769 1.491 . S
C764 H755 0.950 . S
C764 C763 1.398 1_565 S
C764 C765 1.391 . S
C765 H753 0.950 . S
C765 C761 1.393 . S
C765 C764 1.391 . S
C766 H756 0.950 . S
C766 C767 1.386 . S
C766 C768 1.391 . S
C767 C766 1.386 . S
C767 C771 1.393 . S
C768 H757 0.950 1_545 S
C768 C766 1.391 . S
C768 C769 1.400 . S
C769 C763 1.491 . S
C769 C768 1.400 . S
C769 C770 1.398 . S
C770 H758 0.950 . S
C770 C769 1.398 . S
C770 C771 1.391 . S
C771 H759 0.950 . S
C771 C767 1.393 . S
C771 C770 1.391 . S
H772 C780 0.950 . S
H773 C785 0.950 1_655 S
H774 C782 0.950 . S
H775 C784 0.950 . S
H776 C786 0.950 . S
H777 C788 0.950 . S
H778 C790 0.950 . S
H779 C791 0.950 . S
C780 H772 0.950 . S
C780 C781 1.386 . S
C780 C782 1.391 . S
C781 C780 1.386 . S
C781 C785 1.393 . S
C782 H774 0.950 . S
C782 C780 1.391 . S
C782 C783 1.400 1_455 S
C783 C782 1.400 1_655 S
C783 C784 1.398 . S
C783 C789 1.491 . S
C784 H775 0.950 . S
C784 C783 1.398 . S
C784 C785 1.391 1_655 S
C785 H773 0.950 1_455 S
C785 C781 1.393 . S
C785 C784 1.391 1_455 S
C786 H776 0.950 . S
C786 C787 1.386 . S
C786 C788 1.391 . S
C787 C786 1.386 . S
C787 C791 1.393 . S
C788 H777 0.950 . S
C788 C786 1.391 . S
C788 C789 1.400 . S
C789 C783 1.491 . S
C789 C788 1.400 . S
C789 C790 1.398 . S
C790 H778 0.950 . S
C790 C789 1.398 . S
C790 C791 1.391 . S
C791 H779 0.950 . S
C791 C787 1.393 . S
C791 C790 1.391 . S
H792 C800 0.950 . S
H793 C805 0.950 . S
H794 C802 0.950 . S
H795 C804 0.950 . S
H796 C806 0.950 . S
H797 C808 0.950 . S
H798 C810 0.950 . S
H799 C811 0.950 . S
C800 H792 0.950 . S
C800 C801 1.386 . S
C800 C802 1.391 . S
C801 C800 1.386 . S
C801 C805 1.393 . S
C802 H794 0.950 . S
C802 C800 1.391 . S
C802 C803 1.400 . S
C803 C802 1.400 . S
C803 C804 1.398 . S
C803 C809 1.491 . S
C804 H795 0.950 . S
C804 C803 1.398 . S
C804 C805 1.391 . S
C805 H793 0.950 . S
C805 C801 1.393 . S
C805 C804 1.391 . S
C806 H796 0.950 . S
C806 C807 1.386 . S
C806 C808 1.391 . S
C807 C806 1.386 . S
C807 C811 1.393 . S
C808 H797 0.950 . S
C808 C806 1.391 . S
C808 C809 1.400 . S
C809 C803 1.491 . S
C809 C808 1.400 . S
C809 C810 1.398 . S
C810 H798 0.950 . S
C810 C809 1.398 . S
C810 C811 1.391 . S
C811 H799 0.950 . S
C811 C807 1.393 . S
C811 C810 1.391 . S
H812 C820 0.950 . S
H813 C825 0.950 . S
H814 C822 0.950 . S
H815 C824 0.950 . S
H816 C826 0.950 . S
H817 C828 0.950 . S
H818 C830 0.950 . S
H819 C831 0.949 . S
C820 H812 0.950 . S
C820 C821 1.386 . S
C820 C822 1.391 . S
C821 C820 1.386 . S
C821 C825 1.393 . S
C822 H814 0.950 . S
C822 C820 1.391 . S
C822 C823 1.400 . S
C823 C822 1.400 . S
C823 C824 1.398 . S
C823 C829 1.491 . S
C824 H815 0.950 . S
C824 C823 1.398 . S
C824 C825 1.391 . S
C825 H813 0.950 . S
C825 C821 1.393 . S
C825 C824 1.391 . S
C826 H816 0.950 . S
C826 C827 1.386 . S
C826 C828 1.391 . S
C827 C826 1.386 . S
C827 C831 1.393 . S
C828 H817 0.950 . S
C828 C826 1.391 . S
C828 C829 1.400 1_545 S
C829 C823 1.491 . S
C829 C828 1.400 1_565 S
C829 C830 1.398 . S
C830 H818 0.950 . S
C830 C829 1.398 . S
C830 C831 1.391 1_565 S
C831 H819 0.949 . S
C831 C827 1.393 . S
C831 C830 1.391 1_545 S
H832 C840 0.950 . S
H833 C845 0.950 . S
H834 C842 0.950 . S
H835 C844 0.983 . S
H836 C846 0.950 . S
H837 C848 0.950 . S
H838 C850 0.950 . S
H839 C851 0.950 . S
C840 H832 0.950 . S
C840 C841 1.386 . S
C840 C842 1.391 . S
C841 C840 1.386 . S
C841 C845 1.393 . S
C842 H834 0.950 . S
C842 C840 1.391 . S
C842 C843 1.400 . S
C843 C842 1.400 . S
C843 C844 1.398 . S
C843 C849 1.491 . S
C844 H835 0.983 . S
C844 C843 1.398 . S
C844 C845 1.391 . S
C845 H833 0.950 . S
C845 C841 1.393 . S
C845 C844 1.391 . S
C846 H836 0.950 . S
C846 C847 1.386 . S
C846 C848 1.391 . S
C847 C846 1.386 . S
C847 C851 1.393 1_655 S
C848 H837 0.950 . S
C848 C846 1.391 . S
C848 C849 1.400 1_655 S
C849 C843 1.491 . S
C849 C848 1.400 1_455 S
C849 C850 1.398 . S
C850 H838 0.950 . S
C850 C849 1.398 . S
C850 C851 1.391 . S
C851 H839 0.950 . S
C851 C847 1.393 1_455 S
C851 C850 1.391 . S
H852 C860 0.950 . S
H853 C865 0.950 . S
H854 C862 0.950 . S
H855 C864 0.950 . S
H856 C866 0.950 . S
H857 C868 0.950 . S
H858 C870 0.974 . S
H859 C871 0.950 . S
C860 H852 0.950 . S
C860 C861 1.386 . S
C860 C862 1.391 . S
C861 C860 1.386 . S
C861 C865 1.393 . S
C862 H854 0.950 . S
C862 C860 1.391 . S
C862 C863 1.400 . S
C863 C862 1.400 . S
C863 C864 1.398 . S
C863 C869 1.491 1_455 S
C864 H855 0.950 . S
C864 C863 1.398 . S
C864 C865 1.391 . S
C865 H853 0.950 . S
C865 C861 1.393 . S
C865 C864 1.391 . S
C866 H856 0.950 . S
C866 C867 1.386 . S
C866 C868 1.391 . S
C867 C866 1.386 . S
C867 C871 1.393 . S
C868 H857 0.950 . S
C868 C866 1.391 . S
C868 C869 1.400 . S
C869 C863 1.491 1_655 S
C869 C868 1.400 . S
C869 C870 1.398 . S
C870 H858 0.974 . S
C870 C869 1.398 . S
C870 C871 1.391 . S
C871 H859 0.950 . S
C871 C867 1.393 . S
C871 C870 1.391 . S
H872 C880 0.950 . S
H873 C885 0.950 . S
H874 C882 0.950 . S
H875 C884 0.950 . S
H876 C886 0.950 . S
H877 C888 0.950 . S
H878 C890 0.950 . S
H879 C891 0.950 . S
C880 H872 0.950 . S
C880 C881 1.386 . S
C880 C882 1.391 . S
C881 C880 1.386 . S
C881 C885 1.393 . S
C882 H874 0.950 . S
C882 C880 1.391 . S
C882 C883 1.400 . S
C883 C882 1.400 . S
C883 C884 1.398 . S
C883 C889 1.491 . S
C884 H875 0.950 . S
C884 C883 1.398 . S
C884 C885 1.391 . S
C885 H873 0.950 . S
C885 C881 1.393 . S
C885 C884 1.391 . S
C886 H876 0.950 . S
C886 C887 1.386 . S
C886 C888 1.391 . S
C887 C886 1.386 . S
C887 C891 1.393 . S
C888 H877 0.950 . S
C888 C886 1.391 . S
C888 C889 1.400 . S
C889 C883 1.491 . S
C889 C888 1.400 . S
C889 C890 1.398 . S
C890 H878 0.950 . S
C890 C889 1.398 . S
C890 C891 1.391 . S
C891 H879 0.950 . S
C891 C887 1.393 . S
C891 C890 1.391 . S
H892 C900 0.950 . S
H893 C905 0.950 . S
H894 C902 0.950 . S
H895 C904 0.950 . S
H896 C906 0.950 . S
H897 C908 0.950 . S
H898 C910 0.950 . S
H899 C911 0.950 . S
C900 H892 0.950 . S
C900 C901 1.386 . S
C900 C902 1.391 . S
C901 C900 1.386 . S
C901 C905 1.393 . S
C902 H894 0.950 . S
C902 C900 1.391 . S
C902 C903 1.400 . S
C903 C902 1.400 . S
C903 C904 1.398 . S
C903 C909 1.491 1_565 S
C904 H895 0.950 . S
C904 C903 1.398 . S
C904 C905 1.391 . S
C905 H893 0.950 . S
C905 C901 1.393 . S
C905 C904 1.391 . S
C906 H896 0.950 . S
C906 C907 1.386 . S
C906 C908 1.391 . S
C907 C906 1.386 . S
C907 C911 1.393 . S
C908 H897 0.950 . S
C908 C906 1.391 . S
C908 C909 1.400 . S
C909 C903 1.491 1_545 S
C909 C908 1.400 . S
C909 C910 1.398 . S
C910 H898 0.950 . S
C910 C909 1.398 . S
C910 C911 1.391 . S
C911 H899 0.950 . S
C911 C907 1.393 . S
C911 C910 1.391 . S
H912 C920 0.950 . S
H913 C925 0.950 . S
H914 C922 0.950 . S
H915 C924 0.950 1_565 S
H916 C926 0.950 . S
H917 C928 0.950 . S
H918 C930 0.950 1_545 S
H919 C931 0.950 . S
C920 H912 0.950 . S
C920 C921 1.386 . S
C920 C922 1.391 . S
C921 C920 1.386 . S
C921 C925 1.393 . S
C922 H914 0.950 . S
C922 C920 1.391 . S
C922 C923 1.400 . S
C923 C922 1.400 . S
C923 C924 1.398 . S
C923 C929 1.491 1_545 S
C924 H915 0.950 1_545 S
C924 C923 1.398 . S
C924 C925 1.391 . S
C925 H913 0.950 . S
C925 C921 1.393 . S
C925 C924 1.391 . S
C926 H916 0.950 . S
C926 C927 1.386 . S
C926 C928 1.391 . S
C927 C926 1.386 . S
C927 C931 1.393 . S
C928 H917 0.950 . S
C928 C926 1.391 . S
C928 C929 1.400 . S
C929 C923 1.491 1_565 S
C929 C928 1.400 . S
C929 C930 1.398 . S
C930 H918 0.950 1_565 S
C930 C929 1.398 . S
C930 C931 1.391 . S
C931 H919 0.950 . S
C931 C927 1.393 . S
C931 C930 1.391 . S
H932 C940 0.950 . S
H933 C945 0.950 . S
H934 C942 0.950 . S
H935 C944 0.950 . S
H936 C946 0.950 . S
H937 C948 0.950 . S
H938 C950 0.950 . S
H939 C951 0.950 . S
C940 H932 0.950 . S
C940 C941 1.386 . S
C940 C942 1.391 . S
C941 C940 1.386 . S
C941 C945 1.393 . S
C942 H934 0.950 . S
C942 C940 1.391 . S
C942 C943 1.400 . S
C943 C942 1.400 . S
C943 C944 1.398 . S
C943 C949 1.491 1_455 S
C944 H935 0.950 . S
C944 C943 1.398 . S
C944 C945 1.391 . S
C945 H933 0.950 . S
C945 C941 1.393 . S
C945 C944 1.391 . S
C946 H936 0.950 . S
C946 C947 1.386 . S
C946 C948 1.391 . S
C947 C946 1.386 . S
C947 C951 1.393 . S
C948 H937 0.950 . S
C948 C946 1.391 . S
C948 C949 1.400 . S
C949 C943 1.491 1_655 S
C949 C948 1.400 . S
C949 C950 1.398 . S
C950 H938 0.950 . S
C950 C949 1.398 . S
C950 C951 1.391 . S
C951 H939 0.950 . S
C951 C947 1.393 . S
C951 C950 1.391 . S
H952 C960 0.950 . S
H953 C965 0.950 . S
H954 C962 0.950 . S
H955 C964 0.950 . S
H956 C966 0.950 . S
H957 C968 0.950 . S
H958 C970 0.950 . S
H959 C971 0.950 . S
C960 H952 0.950 . S
C960 C961 1.386 . S
C960 C962 1.391 . S
C961 C960 1.386 . S
C961 C965 1.393 . S
C962 H954 0.950 . S
C962 C960 1.391 . S
C962 C963 1.400 . S
C963 C962 1.400 . S
C963 C964 1.398 . S
C963 C969 1.491 . S
C964 H955 0.950 . S
C964 C963 1.398 . S
C964 C965 1.391 . S
C965 H953 0.950 . S
C965 C961 1.393 . S
C965 C964 1.391 . S
C966 H956 0.950 . S
C966 C967 1.386 . S
C966 C968 1.391 . S
C967 C966 1.386 . S
C967 C971 1.393 . S
C968 H957 0.950 . S
C968 C966 1.391 . S
C968 C969 1.400 . S
C969 C963 1.491 . S
C969 C968 1.400 . S
C969 C970 1.398 . S
C970 H958 0.950 . S
C970 C969 1.398 . S
C970 C971 1.391 . S
C971 H959 0.950 . S
C971 C967 1.393 . S
C971 C970 1.391 . S
H972 C980 0.950 . S
H973 C985 0.950 . S
H974 C982 0.950 . S
H975 C984 0.950 . S
H976 C986 0.950 . S
H977 C988 0.950 . S
H978 C990 0.950 . S
H979 C991 0.950 . S
C980 H972 0.950 . S
C980 C981 1.386 . S
C980 C982 1.391 . S
C981 C980 1.386 . S
C981 C985 1.393 . S
C982 H974 0.950 . S
C982 C980 1.391 . S
C982 C983 1.400 . S
C983 C982 1.400 . S
C983 C984 1.398 . S
C983 C989 1.491 . S
C984 H975 0.950 . S
C984 C983 1.398 . S
C984 C985 1.391 . S
C985 H973 0.950 . S
C985 C981 1.393 . S
C985 C984 1.391 . S
C986 H976 0.950 . S
C986 C987 1.386 . S
C986 C988 1.391 . S
C987 C986 1.386 . S
C987 C991 1.393 . S
C988 H977 0.950 . S
C988 C986 1.391 . S
C988 C989 1.400 . S
C989 C983 1.491 . S
C989 C988 1.400 . S
C989 C990 1.398 . S
C990 H978 0.950 . S
C990 C989 1.398 . S
C990 C991 1.391 . S
C991 H979 0.950 . S
C991 C987 1.393 . S
C991 C990 1.391 . S
H992 C1000 0.950 . S
H993 C1005 0.950 . S
H994 C1002 0.950 . S
H995 C1004 0.950 . S
H996 C1006 0.950 . S
H997 C1008 0.950 . S
H998 C1010 0.950 . S
H999 C1011 0.950 . S
C1000 H992 0.950 . S
C1000 C1001 1.386 . S
C1000 C1002 1.391 . S
C1001 C1000 1.386 . S
C1001 C1005 1.393 . S
C1002 H994 0.950 . S
C1002 C1000 1.391 . S
C1002 C1003 1.400 . S
C1003 C1002 1.400 . S
C1003 C1004 1.398 . S
C1003 C1009 1.491 . S
C1004 H995 0.950 . S
C1004 C1003 1.398 . S
C1004 C1005 1.391 . S
C1005 H993 0.950 . S
C1005 C1001 1.393 . S
C1005 C1004 1.391 . S
C1006 H996 0.950 . S
C1006 C1007 1.386 . S
C1006 C1008 1.391 . S
C1007 C1006 1.386 . S
C1007 C1011 1.393 . S
C1008 H997 0.950 . S
C1008 C1006 1.391 . S
C1008 C1009 1.400 . S
C1009 C1003 1.491 . S
C1009 C1008 1.400 . S
C1009 C1010 1.398 . S
C1010 H998 0.950 . S
C1010 C1009 1.398 . S
C1010 C1011 1.391 . S
C1011 H999 0.950 . S
C1011 C1007 1.393 . S
C1011 C1010 1.391 . S
H1012 C1020 0.950 . S
H1013 C1025 0.950 . S
H1014 C1022 0.950 . S
H1015 C1024 0.950 . S
H1016 C1026 0.950 . S
H1017 C1028 0.950 . S
H1018 C1030 0.950 . S
H1019 C1031 0.950 . S
C1020 H1012 0.950 . S
C1020 C1021 1.386 . S
C1020 C1022 1.391 . S
C1021 C1020 1.386 . S
C1021 C1025 1.393 . S
C1022 H1014 0.950 . S
C1022 C1020 1.391 . S
C1022 C1023 1.400 . S
C1023 C1022 1.400 . S
C1023 C1024 1.398 . S
C1023 C1029 1.491 . S
C1024 H1015 0.950 . S
C1024 C1023 1.398 . S
C1024 C1025 1.391 . S
C1025 H1013 0.950 . S
C1025 C1021 1.393 . S
C1025 C1024 1.391 . S
C1026 H1016 0.950 . S
C1026 C1027 1.386 . S
C1026 C1028 1.391 . S
C1027 C1026 1.386 . S
C1027 C1031 1.393 . S
C1028 H1017 0.950 . S
C1028 C1026 1.391 . S
C1028 C1029 1.400 . S
C1029 C1023 1.491 . S
C1029 C1028 1.400 . S
C1029 C1030 1.398 . S
C1030 H1018 0.950 . S
C1030 C1029 1.398 . S
C1030 C1031 1.391 . S
C1031 H1019 0.950 . S
C1031 C1027 1.393 . S
C1031 C1030 1.391 . S
H1032 C1040 0.950 . S
H1033 C1045 0.950 . S
H1034 C1042 0.950 . S
H1035 C1044 0.950 . S
H1036 C1046 0.950 . S
H1037 C1048 0.950 . S
H1038 C1050 0.950 . S
H1039 C1051 0.950 . S
C1040 H1032 0.950 . S
C1040 C1041 1.386 . S
C1040 C1042 1.391 . S
C1041 C1040 1.386 . S
C1041 C1045 1.393 . S
C1042 H1034 0.950 . S
C1042 C1040 1.391 . S
C1042 C1043 1.400 . S
C1043 C1042 1.400 . S
C1043 C1044 1.398 . S
C1043 C1049 1.491 . S
C1044 H1035 0.950 . S
C1044 C1043 1.398 . S
C1044 C1045 1.391 . S
C1045 H1033 0.950 . S
C1045 C1041 1.393 . S
C1045 C1044 1.391 . S
C1046 H1036 0.950 . S
C1046 C1047 1.386 . S
C1046 C1048 1.391 . S
C1047 C1046 1.386 . S
C1047 C1051 1.393 . S
C1048 H1037 0.950 . S
C1048 C1046 1.391 . S
C1048 C1049 1.400 . S
C1049 C1043 1.491 . S
C1049 C1048 1.400 . S
C1049 C1050 1.398 . S
C1050 H1038 0.950 . S
C1050 C1049 1.398 . S
C1050 C1051 1.391 . S
C1051 H1039 0.950 . S
C1051 C1047 1.393 . S
C1051 C1050 1.391 . S
H1052 C1060 0.950 . S
H1053 C1065 0.950 . S
H1054 C1062 0.950 . S
H1055 C1064 0.950 . S
H1056 C1066 0.950 . S
H1057 C1068 0.950 . S
H1058 C1070 0.950 . S
H1059 C1071 0.950 . S
C1060 H1052 0.950 . S
C1060 C1061 1.386 . S
C1060 C1062 1.391 . S
C1061 C1060 1.386 . S
C1061 C1065 1.393 . S
C1062 H1054 0.950 . S
C1062 C1060 1.391 . S
C1062 C1063 1.400 . S
C1063 C1062 1.400 . S
C1063 C1064 1.398 . S
C1063 C1069 1.491 . S
C1064 H1055 0.950 . S
C1064 C1063 1.398 . S
C1064 C1065 1.391 . S
C1065 H1053 0.950 . S
C1065 C1061 1.393 . S
C1065 C1064 1.391 . S
C1066 H1056 0.950 . S
C1066 C1067 1.386 . S
C1066 C1068 1.391 . S
C1067 C1066 1.386 . S
C1067 C1071 1.393 . S
C1068 H1057 0.950 . S
C1068 C1066 1.391 . S
C1068 C1069 1.400 . S
C1069 C1063 1.491 . S
C1069 C1068 1.400 . S
C1069 C1070 1.398 . S
C1070 H1058 0.950 . S
C1070 C1069 1.398 . S
C1070 C1071 1.391 . S
C1071 H1059 0.950 . S
C1071 C1067 1.393 . S
C1071 C1070 1.391 . S
H1072 C1080 0.950 . S
H1073 C1085 0.950 . S
H1074 C1082 0.950 . S
H1075 C1084 0.950 . S
H1076 C1086 0.950 . S
H1077 C1088 0.950 . S
H1078 C1090 0.950 . S
H1079 C1091 0.950 . S
C1080 H1072 0.950 . S
C1080 C1081 1.386 . S
C1080 C1082 1.391 . S
C1081 C1080 1.386 . S
C1081 C1085 1.393 . S
C1082 H1074 0.950 . S
C1082 C1080 1.391 . S
C1082 C1083 1.400 . S
C1083 C1082 1.400 . S
C1083 C1084 1.398 . S
C1083 C1089 1.491 . S
C1084 H1075 0.950 . S
C1084 C1083 1.398 . S
C1084 C1085 1.391 . S
C1085 H1073 0.950 . S
C1085 C1081 1.393 . S
C1085 C1084 1.391 . S
C1086 H1076 0.950 . S
C1086 C1087 1.386 . S
C1086 C1088 1.391 . S
C1087 C1086 1.386 . S
C1087 C1091 1.393 . S
C1088 H1077 0.950 . S
C1088 C1086 1.391 . S
C1088 C1089 1.400 . S
C1089 C1083 1.491 . S
C1089 C1088 1.400 . S
C1089 C1090 1.398 . S
C1090 H1078 0.950 . S
C1090 C1089 1.398 . S
C1090 C1091 1.391 . S
C1091 H1079 0.950 . S
C1091 C1087 1.393 . S
C1091 C1090 1.391 . S
H1092 C1100 0.950 . S
H1093 C1105 0.950 . S
H1094 C1102 0.950 . S
H1095 C1104 0.950 . S
H1096 C1106 0.944 1_655 S
H1097 C1108 0.950 . S
H1098 C1110 0.950 . S
H1099 C1111 0.950 . S
C1100 H1092 0.950 . S
C1100 C1101 1.386 1_455 S
C1100 C1102 1.391 . S
C1101 C1100 1.386 1_655 S
C1101 C1105 1.393 . S
C1102 H1094 0.950 . S
C1102 C1100 1.391 . S
C1102 C1103 1.400 1_455 S
C1103 C1102 1.400 1_655 S
C1103 C1104 1.398 . S
C1103 C1109 1.491 1_654 S
C1104 H1095 0.950 . S
C1104 C1103 1.398 . S
C1104 C1105 1.391 . S
C1105 H1093 0.950 . S
C1105 C1101 1.393 . S
C1105 C1104 1.391 . S
C1106 H1096 0.944 1_455 S
C1106 C1107 1.395 . S
C1106 C1108 1.388 1_455 S
C1107 C1106 1.395 . S
C1107 C1111 1.393 . S
C1108 H1097 0.950 . S
C1108 C1106 1.388 1_655 S
C1108 C1109 1.400 1_655 S
C1109 C1103 1.491 1_456 S
C1109 C1108 1.400 1_455 S
C1109 C1110 1.398 . S
C1110 H1098 0.950 . S
C1110 C1109 1.398 . S
C1110 C1111 1.391 . S
C1111 H1099 0.950 . S
C1111 C1107 1.393 . S
C1111 C1110 1.391 . S
H1112 C1120 0.950 . S
H1113 C1125 0.950 . S
H1114 C1122 0.950 . S
H1115 C1124 0.950 . S
H1116 C1126 0.950 . S
H1117 C1128 0.950 . S
H1118 C1130 0.950 . S
H1119 C1131 0.950 . S
C1120 H1112 0.950 . S
C1120 C1121 1.386 . S
C1120 C1122 1.391 . S
C1121 C1120 1.386 . S
C1121 C1125 1.393 . S
C1122 H1114 0.950 . S
C1122 C1120 1.391 . S
C1122 C1123 1.400 . S
C1123 C1122 1.400 . S
C1123 C1124 1.398 . S
C1123 C1129 1.491 1_554 S
C1124 H1115 0.950 . S
C1124 C1123 1.398 . S
C1124 C1125 1.391 . S
C1125 H1113 0.950 . S
C1125 C1121 1.393 . S
C1125 C1124 1.391 . S
C1126 H1116 0.950 . S
C1126 C1127 1.386 . S
C1126 C1128 1.391 . S
C1127 C1126 1.386 . S
C1127 C1131 1.393 . S
C1128 H1117 0.950 . S
C1128 C1126 1.391 . S
C1128 C1129 1.400 . S
C1129 C1123 1.491 1_556 S
C1129 C1128 1.400 . S
C1129 C1130 1.398 . S
C1130 H1118 0.950 . S
C1130 C1129 1.398 . S
C1130 C1131 1.391 . S
C1131 H1119 0.950 . S
C1131 C1127 1.393 . S
C1131 C1130 1.391 . S
H1132 C1140 0.938 1_565 S
H1133 C1145 0.950 . S
H1134 C1142 0.950 . S
H1135 C1144 0.950 . S
H1136 C1146 0.950 . S
H1137 C1148 0.950 . S
H1138 C1150 0.950 . S
H1139 C1151 0.950 . S
C1140 H1132 0.938 1_545 S
C1140 C1141 1.405 . S
C1140 C1142 1.384 1_545 S
C1141 C1140 1.405 . S
C1141 C1145 1.393 . S
C1142 H1134 0.950 . S
C1142 C1140 1.384 1_565 S
C1142 C1143 1.400 1_565 S
C1143 C1142 1.400 1_545 S
C1143 C1144 1.398 . S
C1143 C1149 1.491 1_544 S
C1144 H1135 0.950 . S
C1144 C1143 1.398 . S
C1144 C1145 1.391 . S
C1145 H1133 0.950 . S
C1145 C1141 1.393 . S
C1145 C1144 1.391 . S
C1146 H1136 0.950 . S
C1146 C1147 1.386 1_545 S
C1146 C1148 1.391 . S
C1147 C1146 1.386 1_565 S
C1147 C1151 1.393 . S
C1148 H1137 0.950 . S
C1148 C1146 1.391 . S
C1148 C1149 1.400 1_545 S
C1149 C1143 1.491 1_566 S
C1149 C1148 1.400 1_565 S
C1149 C1150 1.398 . S
C1150 H1138 0.950 . S
C1150 C1149 1.398 . S
C1150 C1151 1.391 . S
C1151 H1139 0.950 . S
C1151 C1147 1.393 . S
C1151 C1150 1.391 . S
H1152 C1160 0.950 . S
H1153 C1165 0.950 . S
H1154 C1162 0.950 . S
H1155 C1164 0.950 . S
H1156 C1166 0.950 . S
H1157 C1168 0.950 . S
H1158 C1170 0.950 . S
H1159 C1171 0.950 . S
C1160 H1152 0.950 . S
C1160 C1161 1.386 . S
C1160 C1162 1.391 . S
C1161 C1160 1.386 . S
C1161 C1165 1.393 . S
C1162 H1154 0.950 . S
C1162 C1160 1.391 . S
C1162 C1163 1.400 . S
C1163 C1162 1.400 . S
C1163 C1164 1.398 . S
C1163 C1169 1.491 . S
C1164 H1155 0.950 . S
C1164 C1163 1.398 . S
C1164 C1165 1.391 . S
C1165 H1153 0.950 . S
C1165 C1161 1.393 . S
C1165 C1164 1.391 . S
C1166 H1156 0.950 . S
C1166 C1167 1.386 . S
C1166 C1168 1.391 . S
C1167 C1166 1.386 . S
C1167 C1171 1.393 . S
C1168 H1157 0.950 . S
C1168 C1166 1.391 . S
C1168 C1169 1.400 . S
C1169 C1163 1.491 . S
C1169 C1168 1.400 . S
C1169 C1170 1.398 . S
C1170 H1158 0.950 . S
C1170 C1169 1.398 . S
C1170 C1171 1.391 . S
C1171 H1159 0.950 . S
C1171 C1167 1.393 . S
C1171 C1170 1.391 . S
H1172 C1180 0.950 . S
H1173 C1185 0.950 . S
H1174 C1182 0.950 . S
H1175 C1184 0.950 . S
H1176 C1186 0.950 . S
H1177 C1188 0.950 . S
H1178 C1190 0.950 . S
H1179 C1191 0.950 . S
C1180 H1172 0.950 . S
C1180 C1181 1.386 . S
C1180 C1182 1.391 1_565 S
C1181 C1180 1.386 . S
C1181 C1185 1.393 . S
C1182 H1174 0.950 . S
C1182 C1180 1.391 1_545 S
C1182 C1183 1.400 . S
C1183 C1182 1.400 . S
C1183 C1184 1.398 . S
C1183 C1189 1.491 . S
C1184 H1175 0.950 . S
C1184 C1183 1.398 . S
C1184 C1185 1.391 1_545 S
C1185 H1173 0.950 . S
C1185 C1181 1.393 . S
C1185 C1184 1.391 1_565 S
C1186 H1176 0.950 . S
C1186 C1187 1.386 . S
C1186 C1188 1.391 . S
C1187 C1186 1.386 . S
C1187 C1191 1.393 . S
C1188 H1177 0.950 . S
C1188 C1186 1.391 . S
C1188 C1189 1.400 . S
C1189 C1183 1.491 . S
C1189 C1188 1.400 . S
C1189 C1190 1.398 . S
C1190 H1178 0.950 . S
C1190 C1189 1.398 . S
C1190 C1191 1.391 . S
C1191 H1179 0.950 . S
C1191 C1187 1.393 . S
C1191 C1190 1.391 . S
H1192 C1200 0.950 . S
H1193 C1205 0.950 . S
H1194 C1202 0.950 . S
H1195 C1204 0.950 . S
H1196 C1206 0.950 . S
H1197 C1208 0.950 . S
H1198 C1210 0.950 . S
H1199 C1211 0.950 . S
C1200 H1192 0.950 . S
C1200 C1201 1.386 . S
C1200 C1202 1.391 . S
C1201 C1200 1.386 . S
C1201 C1205 1.393 . S
C1202 H1194 0.950 . S
C1202 C1200 1.391 . S
C1202 C1203 1.400 . S
C1203 C1202 1.400 . S
C1203 C1204 1.398 . S
C1203 C1209 1.491 . S
C1204 H1195 0.950 . S
C1204 C1203 1.398 . S
C1204 C1205 1.391 . S
C1205 H1193 0.950 . S
C1205 C1201 1.393 . S
C1205 C1204 1.391 . S
C1206 H1196 0.950 . S
C1206 C1207 1.386 . S
C1206 C1208 1.391 1_455 S
C1207 C1206 1.386 . S
C1207 C1211 1.393 . S
C1208 H1197 0.950 . S
C1208 C1206 1.391 1_655 S
C1208 C1209 1.400 . S
C1209 C1203 1.491 . S
C1209 C1208 1.400 . S
C1209 C1210 1.398 . S
C1210 H1198 0.950 . S
C1210 C1209 1.398 . S
C1210 C1211 1.391 1_655 S
C1211 H1199 0.950 . S
C1211 C1207 1.393 . S
C1211 C1210 1.391 1_455 S
H1212 C1220 0.950 . S
H1213 C1225 0.950 . S
H1214 C1222 0.950 . S
H1215 C1224 0.950 . S
H1216 C1226 0.950 . S
H1217 C1228 0.950 . S
H1218 C1230 0.950 . S
H1219 C1231 0.950 . S
C1220 H1212 0.950 . S
C1220 C1221 1.386 . S
C1220 C1222 1.391 . S
C1221 C1220 1.386 . S
C1221 C1225 1.393 . S
C1222 H1214 0.950 . S
C1222 C1220 1.391 . S
C1222 C1223 1.400 . S
C1223 C1222 1.400 . S
C1223 C1224 1.398 . S
C1223 C1229 1.491 . S
C1224 H1215 0.950 . S
C1224 C1223 1.398 . S
C1224 C1225 1.391 . S
C1225 H1213 0.950 . S
C1225 C1221 1.393 . S
C1225 C1224 1.391 . S
C1226 H1216 0.950 . S
C1226 C1227 1.386 . S
C1226 C1228 1.391 . S
C1227 C1226 1.386 . S
C1227 C1231 1.393 . S
C1228 H1217 0.950 . S
C1228 C1226 1.391 . S
C1228 C1229 1.400 . S
C1229 C1223 1.491 . S
C1229 C1228 1.400 . S
C1229 C1230 1.398 . S
C1230 H1218 0.950 . S
C1230 C1229 1.398 . S
C1230 C1231 1.391 . S
C1231 H1219 0.950 . S
C1231 C1227 1.393 . S
C1231 C1230 1.391 . S
H1232 C1240 0.950 . S
H1233 C1245 0.950 . S
H1234 C1242 0.950 . S
H1235 C1244 0.950 . S
H1236 C1246 0.950 . S
H1237 C1248 0.950 . S
H1238 C1250 0.950 . S
H1239 C1251 0.950 . S
C1240 H1232 0.950 . S
C1240 C1241 1.386 . S
C1240 C1242 1.391 1_545 S
C1241 C1240 1.386 . S
C1241 C1245 1.393 . S
C1242 H1234 0.950 . S
C1242 C1240 1.391 1_565 S
C1242 C1243 1.400 . S
C1243 C1242 1.400 . S
C1243 C1244 1.398 . S
C1243 C1249 1.491 . S
C1244 H1235 0.950 . S
C1244 C1243 1.398 . S
C1244 C1245 1.391 1_565 S
C1245 H1233 0.950 . S
C1245 C1241 1.393 . S
C1245 C1244 1.391 1_545 S
C1246 H1236 0.950 . S
C1246 C1247 1.386 . S
C1246 C1248 1.391 . S
C1247 C1246 1.386 . S
C1247 C1251 1.393 . S
C1248 H1237 0.950 . S
C1248 C1246 1.391 . S
C1248 C1249 1.400 . S
C1249 C1243 1.491 . S
C1249 C1248 1.400 . S
C1249 C1250 1.398 . S
C1250 H1238 0.950 . S
C1250 C1249 1.398 . S
C1250 C1251 1.391 . S
C1251 H1239 0.950 . S
C1251 C1247 1.393 . S
C1251 C1250 1.391 . S
H1252 C1260 0.950 . S
H1253 C1265 0.950 . S
H1254 C1262 0.950 . S
H1255 C1264 0.950 . S
H1256 C1266 0.950 . S
H1257 C1268 0.950 . S
H1258 C1270 0.950 . S
H1259 C1271 0.950 . S
C1260 H1252 0.950 . S
C1260 C1261 1.386 . S
C1260 C1262 1.391 . S
C1261 C1260 1.386 . S
C1261 C1265 1.393 . S
C1262 H1254 0.950 . S
C1262 C1260 1.391 . S
C1262 C1263 1.400 . S
C1263 C1262 1.400 . S
C1263 C1264 1.398 . S
C1263 C1269 1.491 . S
C1264 H1255 0.950 . S
C1264 C1263 1.398 . S
C1264 C1265 1.391 . S
C1265 H1253 0.950 . S
C1265 C1261 1.393 . S
C1265 C1264 1.391 . S
C1266 H1256 0.950 . S
C1266 C1267 1.386 . S
C1266 C1268 1.391 1_655 S
C1267 C1266 1.386 . S
C1267 C1271 1.393 . S
C1268 H1257 0.950 . S
C1268 C1266 1.391 1_455 S
C1268 C1269 1.400 . S
C1269 C1263 1.491 . S
C1269 C1268 1.400 . S
C1269 C1270 1.398 . S
C1270 H1258 0.950 . S
C1270 C1269 1.398 . S
C1270 C1271 1.391 1_455 S
C1271 H1259 0.950 . S
C1271 C1267 1.393 . S
C1271 C1270 1.391 1_655 S
H1272 C1280 0.950 . S
H1273 C1285 0.950 . S
H1274 C1282 0.950 . S
H1275 C1284 0.950 . S
H1276 C1286 0.950 . S
H1277 C1288 0.950 . S
H1278 C1290 0.950 . S
H1279 C1291 0.950 . S
C1280 H1272 0.950 . S
C1280 C1281 1.386 . S
C1280 C1282 1.391 . S
C1281 C1280 1.386 . S
C1281 C1285 1.393 . S
C1282 H1274 0.950 . S
C1282 C1280 1.391 . S
C1282 C1283 1.400 . S
C1283 C1282 1.400 . S
C1283 C1284 1.398 . S
C1283 C1289 1.491 . S
C1284 H1275 0.950 . S
C1284 C1283 1.398 . S
C1284 C1285 1.391 . S
C1285 H1273 0.950 . S
C1285 C1281 1.393 . S
C1285 C1284 1.391 . S
C1286 H1276 0.950 . S
C1286 C1287 1.386 . S
C1286 C1288 1.391 . S
C1287 C1286 1.386 . S
C1287 C1291 1.393 . S
C1288 H1277 0.950 . S
C1288 C1286 1.391 . S
C1288 C1289 1.400 . S
C1289 C1283 1.491 . S
C1289 C1288 1.400 . S
C1289 C1290 1.398 . S
C1290 H1278 0.950 . S
C1290 C1289 1.398 . S
C1290 C1291 1.391 . S
C1291 H1279 0.950 . S
C1291 C1287 1.393 . S
C1291 C1290 1.391 . S
H1292 C1300 0.950 . S
H1293 C1305 0.950 . S
H1294 C1302 0.950 . S
H1295 C1304 0.950 . S
H1296 C1306 0.950 . S
H1297 C1308 0.950 . S
H1298 C1310 0.950 . S
H1299 C1311 0.950 . S
C1300 H1292 0.950 . S
C1300 C1301 1.386 . S
C1300 C1302 1.391 . S
C1301 C1300 1.386 . S
C1301 C1305 1.393 . S
C1302 H1294 0.950 . S
C1302 C1300 1.391 . S
C1302 C1303 1.400 . S
C1303 C1302 1.400 . S
C1303 C1304 1.398 . S
C1303 C1309 1.491 . S
C1304 H1295 0.950 . S
C1304 C1303 1.398 . S
C1304 C1305 1.391 . S
C1305 H1293 0.950 . S
C1305 C1301 1.393 . S
C1305 C1304 1.391 . S
C1306 H1296 0.950 . S
C1306 C1307 1.386 . S
C1306 C1308 1.391 . S
C1307 C1306 1.386 . S
C1307 C1311 1.393 . S
C1308 H1297 0.950 . S
C1308 C1306 1.391 . S
C1308 C1309 1.400 . S
C1309 C1303 1.491 . S
C1309 C1308 1.400 . S
C1309 C1310 1.398 . S
C1310 H1298 0.950 . S
C1310 C1309 1.398 . S
C1310 C1311 1.391 . S
C1311 H1299 0.950 . S
C1311 C1307 1.393 . S
C1311 C1310 1.391 . S
H1312 C1320 0.950 . S
H1313 C1325 0.950 . S
H1314 C1322 0.950 . S
H1315 C1324 0.950 . S
H1316 C1326 0.950 . S
H1317 C1328 0.950 . S
H1318 C1330 0.950 . S
H1319 C1331 0.950 . S
C1320 H1312 0.950 . S
C1320 C1321 1.386 . S
C1320 C1322 1.391 . S
C1321 C1320 1.386 . S
C1321 C1325 1.393 . S
C1322 H1314 0.950 . S
C1322 C1320 1.391 . S
C1322 C1323 1.400 . S
C1323 C1322 1.400 . S
C1323 C1324 1.398 . S
C1323 C1329 1.491 . S
C1324 H1315 0.950 . S
C1324 C1323 1.398 . S
C1324 C1325 1.391 . S
C1325 H1313 0.950 . S
C1325 C1321 1.393 . S
C1325 C1324 1.391 . S
C1326 H1316 0.950 . S
C1326 C1327 1.386 . S
C1326 C1328 1.391 . S
C1327 C1326 1.386 . S
C1327 C1331 1.393 . S
C1328 H1317 0.950 . S
C1328 C1326 1.391 . S
C1328 C1329 1.400 . S
C1329 C1323 1.491 . S
C1329 C1328 1.400 . S
C1329 C1330 1.398 . S
C1330 H1318 0.950 . S
C1330 C1329 1.398 . S
C1330 C1331 1.391 . S
C1331 H1319 0.950 . S
C1331 C1327 1.393 . S
C1331 C1330 1.391 . S
H1332 C1340 0.950 . S
H1333 C1345 0.950 . S
H1334 C1342 0.950 . S
H1335 C1344 0.950 . S
H1336 C1346 0.950 . S
H1337 C1348 0.950 . S
H1338 C1350 0.950 . S
H1339 C1351 0.950 . S
C1340 H1332 0.950 . S
C1340 C1341 1.386 . S
C1340 C1342 1.391 . S
C1341 C1340 1.386 . S
C1341 C1345 1.393 . S
C1342 H1334 0.950 . S
C1342 C1340 1.391 . S
C1342 C1343 1.400 . S
C1343 C1342 1.400 . S
C1343 C1344 1.398 . S
C1343 C1349 1.491 . S
C1344 H1335 0.950 . S
C1344 C1343 1.398 . S
C1344 C1345 1.391 . S
C1345 H1333 0.950 . S
C1345 C1341 1.393 . S
C1345 C1344 1.391 . S
C1346 H1336 0.950 . S
C1346 C1347 1.386 . S
C1346 C1348 1.391 . S
C1347 C1346 1.386 . S
C1347 C1351 1.393 . S
C1348 H1337 0.950 . S
C1348 C1346 1.391 . S
C1348 C1349 1.400 . S
C1349 C1343 1.491 . S
C1349 C1348 1.400 . S
C1349 C1350 1.398 . S
C1350 H1338 0.950 . S
C1350 C1349 1.398 . S
C1350 C1351 1.391 . S
C1351 H1339 0.950 . S
C1351 C1347 1.393 . S
C1351 C1350 1.391 . S
H1352 C1360 0.950 . S
H1353 C1365 0.950 . S
H1354 C1362 0.950 . S
H1355 C1364 0.950 . S
H1356 C1366 0.950 . S
H1357 C1368 0.950 . S
H1358 C1370 0.950 . S
H1359 C1371 0.950 . S
C1360 H1352 0.950 . S
C1360 C1361 1.386 . S
C1360 C1362 1.391 . S
C1361 C1360 1.386 . S
C1361 C1365 1.393 . S
C1362 H1354 0.950 . S
C1362 C1360 1.391 . S
C1362 C1363 1.400 . S
C1363 C1362 1.400 . S
C1363 C1364 1.398 . S
C1363 C1369 1.491 . S
C1364 H1355 0.950 . S
C1364 C1363 1.398 . S
C1364 C1365 1.391 . S
C1365 H1353 0.950 . S
C1365 C1361 1.393 . S
C1365 C1364 1.391 . S
C1366 H1356 0.950 . S
C1366 C1367 1.386 . S
C1366 C1368 1.391 . S
C1367 C1366 1.386 . S
C1367 C1371 1.393 . S
C1368 H1357 0.950 . S
C1368 C1366 1.391 . S
C1368 C1369 1.400 . S
C1369 C1363 1.491 . S
C1369 C1368 1.400 . S
C1369 C1370 1.398 . S
C1370 H1358 0.950 . S
C1370 C1369 1.398 . S
C1370 C1371 1.391 . S
C1371 H1359 0.950 . S
C1371 C1367 1.393 . S
C1371 C1370 1.391 . S
H1372 C1380 0.950 . S
H1373 C1385 0.950 . S
H1374 C1382 0.950 . S
H1375 C1384 0.950 . S
H1376 C1386 0.950 . S
H1377 C1388 0.950 . S
H1378 C1390 0.950 . S
H1379 C1391 0.950 . S
C1380 H1372 0.950 . S
C1380 C1381 1.386 . S
C1380 C1382 1.391 . S
C1381 C1380 1.386 . S
C1381 C1385 1.393 . S
C1382 H1374 0.950 . S
C1382 C1380 1.391 . S
C1382 C1383 1.400 . S
C1383 C1382 1.400 . S
C1383 C1384 1.398 . S
C1383 C1389 1.491 . S
C1384 H1375 0.950 . S
C1384 C1383 1.398 . S
C1384 C1385 1.391 . S
C1385 H1373 0.950 . S
C1385 C1381 1.393 . S
C1385 C1384 1.391 . S
C1386 H1376 0.950 . S
C1386 C1387 1.386 . S
C1386 C1388 1.391 . S
C1387 C1386 1.386 . S
C1387 C1391 1.393 . S
C1388 H1377 0.950 . S
C1388 C1386 1.391 . S
C1388 C1389 1.400 . S
C1389 C1383 1.491 . S
C1389 C1388 1.400 . S
C1389 C1390 1.398 . S
C1390 H1378 0.950 . S
C1390 C1389 1.398 . S
C1390 C1391 1.391 . S
C1391 H1379 0.950 . S
C1391 C1387 1.393 . S
C1391 C1390 1.391 . S
H1392 C1400 0.950 . S
H1393 C1405 0.950 . S
H1394 C1402 0.950 . S
H1395 C1404 0.950 . S
H1396 C1406 0.950 . S
H1397 C1408 0.950 . S
H1398 C1410 0.950 . S
H1399 C1411 0.950 . S
C1400 H1392 0.950 . S
C1400 C1401 1.386 . S
C1400 C1402 1.391 . S
C1401 C1400 1.386 . S
C1401 C1405 1.393 . S
C1402 H1394 0.950 . S
C1402 C1400 1.391 . S
C1402 C1403 1.400 . S
C1403 C1402 1.400 . S
C1403 C1404 1.398 . S
C1403 C1409 1.491 . S
C1404 H1395 0.950 . S
C1404 C1403 1.398 . S
C1404 C1405 1.391 . S
C1405 H1393 0.950 . S
C1405 C1401 1.393 . S
C1405 C1404 1.391 . S
C1406 H1396 0.950 . S
C1406 C1407 1.386 . S
C1406 C1408 1.391 . S
C1407 C1406 1.386 . S
C1407 C1411 1.393 . S
C1408 H1397 0.950 . S
C1408 C1406 1.391 . S
C1408 C1409 1.400 . S
C1409 C1403 1.491 . S
C1409 C1408 1.400 . S
C1409 C1410 1.398 . S
C1410 H1398 0.950 . S
C1410 C1409 1.398 . S
C1410 C1411 1.391 . S
C1411 H1399 0.950 . S
C1411 C1407 1.393 . S
C1411 C1410 1.391 . S
H1412 C1420 0.950 . S
H1413 C1425 0.950 . S
H1414 C1422 0.950 . S
H1415 C1424 0.950 . S
H1416 C1426 0.950 . S
H1417 C1428 0.950 . S
H1418 C1430 0.950 . S
H1419 C1431 0.950 . S
C1420 H1412 0.950 . S
C1420 C1421 1.386 . S
C1420 C1422 1.391 . S
C1421 C1420 1.386 . S
C1421 C1425 1.393 . S
C1422 H1414 0.950 . S
C1422 C1420 1.391 . S
C1422 C1423 1.400 . S
C1423 C1422 1.400 . S
C1423 C1424 1.398 . S
C1423 C1429 1.491 . S
C1424 H1415 0.950 . S
C1424 C1423 1.398 . S
C1424 C1425 1.391 . S
C1425 H1413 0.950 . S
C1425 C1421 1.393 . S
C1425 C1424 1.391 . S
C1426 H1416 0.950 . S
C1426 C1427 1.386 . S
C1426 C1428 1.391 . S
C1427 C1426 1.386 . S
C1427 C1431 1.393 . S
C1428 H1417 0.950 . S
C1428 C1426 1.391 . S
C1428 C1429 1.400 . S
C1429 C1423 1.491 . S
C1429 C1428 1.400 . S
C1429 C1430 1.398 . S
C1430 H1418 0.950 . S
C1430 C1429 1.398 . S
C1430 C1431 1.391 . S
C1431 H1419 0.950 . S
C1431 C1427 1.393 . S
C1431 C1430 1.391 . S
H1432 C1440 0.950 . S
H1433 C1445 0.950 . S
H1434 C1442 0.950 . S
H1435 C1444 0.950 . S
H1436 C1446 0.950 . S
H1437 C1448 0.950 . S
H1438 C1450 0.950 . S
H1439 C1451 0.950 . S
C1440 H1432 0.950 . S
C1440 C1441 1.386 . S
C1440 C1442 1.391 . S
C1441 C1440 1.386 . S
C1441 C1445 1.393 . S
C1442 H1434 0.950 . S
C1442 C1440 1.391 . S
C1442 C1443 1.400 . S
C1443 C1442 1.400 . S
C1443 C1444 1.398 . S
C1443 C1449 1.491 . S
C1444 H1435 0.950 . S
C1444 C1443 1.398 . S
C1444 C1445 1.391 . S
C1445 H1433 0.950 . S
C1445 C1441 1.393 . S
C1445 C1444 1.391 . S
C1446 H1436 0.950 . S
C1446 C1447 1.386 . S
C1446 C1448 1.391 . S
C1447 C1446 1.386 . S
C1447 C1451 1.393 . S
C1448 H1437 0.950 . S
C1448 C1446 1.391 . S
C1448 C1449 1.400 . S
C1449 C1443 1.491 . S
C1449 C1448 1.400 . S
C1449 C1450 1.398 . S
C1450 H1438 0.950 . S
C1450 C1449 1.398 . S
C1450 C1451 1.391 . S
C1451 H1439 0.950 . S
C1451 C1447 1.393 . S
C1451 C1450 1.391 . S
H1452 C1460 0.950 . S
H1453 C1465 0.950 . S
H1454 C1462 0.950 . S
H1455 C1464 0.950 . S
H1456 C1466 0.950 . S
H1457 C1468 0.950 . S
H1458 C1470 0.950 . S
H1459 C1471 0.950 . S
C1460 H1452 0.950 . S
C1460 C1461 1.386 . S
C1460 C1462 1.391 . S
C1461 C1460 1.386 . S
C1461 C1465 1.393 . S
C1462 H1454 0.950 . S
C1462 C1460 1.391 . S
C1462 C1463 1.400 . S
C1463 C1462 1.400 . S
C1463 C1464 1.398 . S
C1463 C1469 1.491 . S
C1464 H1455 0.950 . S
C1464 C1463 1.398 . S
C1464 C1465 1.391 . S
C1465 H1453 0.950 . S
C1465 C1461 1.393 . S
C1465 C1464 1.391 . S
C1466 H1456 0.950 . S
C1466 C1467 1.386 . S
C1466 C1468 1.391 . S
C1467 C1466 1.386 . S
C1467 C1471 1.393 . S
C1468 H1457 0.950 . S
C1468 C1466 1.391 . S
C1468 C1469 1.400 . S
C1469 C1463 1.491 . S
C1469 C1468 1.400 . S
C1469 C1470 1.398 . S
C1470 H1458 0.950 . S
C1470 C1469 1.398 . S
C1470 C1471 1.391 . S
C1471 H1459 0.950 . S
C1471 C1467 1.393 . S
C1471 C1470 1.391 . S
H1472 C1480 0.950 . S
H1473 C1485 0.950 . S
H1474 C1482 0.950 . S
H1475 C1484 0.950 . S
H1476 C1486 0.950 . S
H1477 C1488 0.950 . S
H1478 C1490 0.950 . S
H1479 C1491 0.950 . S
C1480 H1472 0.950 . S
C1480 C1481 1.386 . S
C1480 C1482 1.391 . S
C1481 C1480 1.386 . S
C1481 C1485 1.393 . S
C1482 H1474 0.950 . S
C1482 C1480 1.391 . S
C1482 C1483 1.400 . S
C1483 C1482 1.400 . S
C1483 C1484 1.398 . S
C1483 C1489 1.491 . S
C1484 H1475 0.950 . S
C1484 C1483 1.398 . S
C1484 C1485 1.391 . S
C1485 H1473 0.950 . S
C1485 C1481 1.393 . S
C1485 C1484 1.391 . S
C1486 H1476 0.950 . S
C1486 C1487 1.386 . S
C1486 C1488 1.391 . S
C1487 C1486 1.386 . S
C1487 C1491 1.393 . S
C1488 H1477 0.950 . S
C1488 C1486 1.391 . S
C1488 C1489 1.400 . S
C1489 C1483 1.491 . S
C1489 C1488 1.400 . S
C1489 C1490 1.398 . S
C1490 H1478 0.950 . S
C1490 C1489 1.398 . S
C1490 C1491 1.391 . S
C1491 H1479 0.950 . S
C1491 C1487 1.393 . S
C1491 C1490 1.391 . S
H1492 C1500 0.950 . S
H1493 C1505 0.950 . S
H1494 C1502 0.950 . S
H1495 C1504 0.950 . S
H1496 C1506 0.950 . S
H1497 C1508 0.950 . S
H1498 C1510 0.950 . S
H1499 C1511 0.950 . S
C1500 H1492 0.950 . S
C1500 C1501 1.386 . S
C1500 C1502 1.391 . S
C1501 C1500 1.386 . S
C1501 C1505 1.393 . S
C1502 H1494 0.950 . S
C1502 C1500 1.391 . S
C1502 C1503 1.400 . S
C1503 C1502 1.400 . S
C1503 C1504 1.398 . S
C1503 C1509 1.491 . S
C1504 H1495 0.950 . S
C1504 C1503 1.398 . S
C1504 C1505 1.391 . S
C1505 H1493 0.950 . S
C1505 C1501 1.393 . S
C1505 C1504 1.391 . S
C1506 H1496 0.950 . S
C1506 C1507 1.386 . S
C1506 C1508 1.391 . S
C1507 C1506 1.386 . S
C1507 C1511 1.393 . S
C1508 H1497 0.950 . S
C1508 C1506 1.391 . S
C1508 C1509 1.400 . S
C1509 C1503 1.491 . S
C1509 C1508 1.400 . S
C1509 C1510 1.398 . S
C1510 H1498 0.950 . S
C1510 C1509 1.398 . S
C1510 C1511 1.391 . S
C1511 H1499 0.950 . S
C1511 C1507 1.393 . S
C1511 C1510 1.391 . S
C621 C349 1.320 . S
C627 C9 1.320 . S
C641 C43 1.293 . S
C647 C383 1.291 . S
C661 C315 1.306 . S
C667 C77 1.299 . S
C681 C485 1.294 . S
C687 C111 1.291 . S
C701 C145 1.294 . S
C707 C417 1.300 . S
C721 C451 1.305 . S
C727 C179 1.313 . S
C741 C172 2.033 . S
C747 C478 2.028 . S
C761 C410 2.032 . S
C767 C104 2.028 . S
C781 C444 2.029 . S
C787 C138 2.033 . S
C801 C36 2.029 . S
C807 C342 2.032 . S
C821 C70 2.028 . S
C827 C376 2.033 . S
C841 C2 2.028 . S
C847 C308 2.033 . S
C861 C553 1.312 . S
C867 C213 1.304 . S
C881 C587 1.312 . S
C887 C247 1.318 . S
C901 C519 1.315 . S
C907 C281 1.308 . S
C921 C240 2.028 . S
C927 C546 2.033 . S
C941 C580 2.031 . S
C947 C274 2.029 . S
C961 C206 2.030 . S
C967 C512 2.033 . S
C981 C33 1.380 . S
C987 C611 1.370 . S
C1001 C67 1.373 . S
C1007 C543 1.376 . S
C1021 C101 1.380 . S
C1027 C577 1.371 . S
C1041 C271 1.378 . S
C1047 C135 1.372 . S
C1061 C169 1.380 . S
C1067 C305 1.370 . S
C1081 C203 1.375 . S
C1087 C237 1.376 . S
C1101 C339 1.380 . S
C1107 C475 1.370 . S
C1121 C373 1.375 . S
C1127 C509 1.375 . S
C1141 C407 1.380 . S
C1147 C441 1.370 . S
C1161 C73 1.549 . S
C1167 C20 1.650 . S
C1181 C54 1.645 . S
C1187 C5 1.522 . S
C1201 C39 1.518 . S
C1207 C88 1.648 . S
C1221 C141 1.515 . S
C1227 C122 1.646 . S
C1241 C156 1.649 . S
C1247 C175 1.525 . S
C1261 C107 1.516 . S
C1267 C190 1.647 . S
C1281 C224 1.645 . S
C1287 C277 1.516 . S
C1301 C209 1.519 . S
C1307 C258 1.645 . S
C1321 C292 1.649 . S
C1327 C243 1.527 . S
C1341 C326 1.645 . S
C1347 C345 1.526 . S
C1361 C379 1.534 . S
C1367 C360 1.646 . S
C1381 C394 1.650 . S
C1387 C311 1.534 . S
C1401 C428 1.645 . S
C1407 C481 1.526 . S
C1421 C413 1.543 . S
C1427 C462 1.647 . S
C1441 C496 1.647 . S
C1447 C447 1.544 . S
C1461 C530 1.648 . S
C1467 C549 1.519 . S
C1481 C583 1.515 . S
C1487 C564 1.646 . S
C1501 C515 1.528 . S
C1507 C598 1.649 . S
