# Generated by pormake.
# Topology bcs, (6)-cn, num edge types: 1
# Building blocks:
#     Node 0, Type 0, BuildingBlock: MIFKUJ_clean_sbu_0, # of connection points: 6
#     Node 1, Type 0, BuildingBlock: MIFKUJ_clean_sbu_0, # of connection points: 6
#     Node 2, Type 0, BuildingBlock: MIFKUJ_clean_sbu_0, # of connection points: 6
#     Node 3, Type 0, BuildingBlock: MIFKUJ_clean_sbu_0, # of connection points: 6
#     Node 4, Type 0, BuildingBlock: MIFKUJ_clean_sbu_0, # of connection points: 6
#     Node 5, Type 0, BuildingBlock: MIFKUJ_clean_sbu_0, # of connection points: 6
#     Node 6, Type 0, BuildingBlock: MIFKUJ_clean_sbu_0, # of connection points: 6
#     Node 7, Type 0, BuildingBlock: MIFKUJ_clean_sbu_0, # of connection points: 6
#     Node 8, Type 0, BuildingBlock: MIFKUJ_clean_sbu_0, # of connection points: 6
#     Node 9, Type 0, BuildingBlock: MIFKUJ_clean_sbu_0, # of connection points: 6
#     Node 10, Type 0, BuildingBlock: MIFKUJ_clean_sbu_0, # of connection points: 6
#     Node 11, Type 0, BuildingBlock: MIFKUJ_clean_sbu_0, # of connection points: 6
#     Node 12, Type 0, BuildingBlock: MIFKUJ_clean_sbu_0, # of connection points: 6
#     Node 13, Type 0, BuildingBlock: MIFKUJ_clean_sbu_0, # of connection points: 6
#     Node 14, Type 0, BuildingBlock: MIFKUJ_clean_sbu_0, # of connection points: 6
#     Node 15, Type 0, BuildingBlock: MIFKUJ_clean_sbu_0, # of connection points: 6
#     Edge 16, Type (0, 0), BuildingBlock: MIFKUJ_clean_linker_0, # of connection points: 2
#     Edge 17, Type (0, 0), BuildingBlock: MIFKUJ_clean_linker_0, # of connection points: 2
#     Edge 18, Type (0, 0), BuildingBlock: MIFKUJ_clean_linker_0, # of connection points: 2
#     Edge 19, Type (0, 0), BuildingBlock: MIFKUJ_clean_linker_0, # of connection points: 2
#     Edge 20, Type (0, 0), BuildingBlock: MIFKUJ_clean_linker_0, # of connection points: 2
#     Edge 21, Type (0, 0), BuildingBlock: MIFKUJ_clean_linker_0, # of connection points: 2
#     Edge 22, Type (0, 0), BuildingBlock: MIFKUJ_clean_linker_0, # of connection points: 2
#     Edge 23, Type (0, 0), BuildingBlock: MIFKUJ_clean_linker_0, # of connection points: 2
#     Edge 24, Type (0, 0), BuildingBlock: MIFKUJ_clean_linker_0, # of connection points: 2
#     Edge 25, Type (0, 0), BuildingBlock: MIFKUJ_clean_linker_0, # of connection points: 2
#     Edge 26, Type (0, 0), BuildingBlock: MIFKUJ_clean_linker_0, # of connection points: 2
#     Edge 27, Type (0, 0), BuildingBlock: MIFKUJ_clean_linker_0, # of connection points: 2
#     Edge 28, Type (0, 0), BuildingBlock: MIFKUJ_clean_linker_0, # of connection points: 2
#     Edge 29, Type (0, 0), BuildingBlock: MIFKUJ_clean_linker_0, # of connection points: 2
#     Edge 30, Type (0, 0), BuildingBlock: MIFKUJ_clean_linker_0, # of connection points: 2
#     Edge 31, Type (0, 0), BuildingBlock: MIFKUJ_clean_linker_0, # of connection points: 2
#     Edge 32, Type (0, 0), BuildingBlock: MIFKUJ_clean_linker_0, # of connection points: 2
#     Edge 33, Type (0, 0), BuildingBlock: MIFKUJ_clean_linker_0, # of connection points: 2
#     Edge 34, Type (0, 0), BuildingBlock: MIFKUJ_clean_linker_0, # of connection points: 2
#     Edge 35, Type (0, 0), BuildingBlock: MIFKUJ_clean_linker_0, # of connection points: 2
#     Edge 36, Type (0, 0), BuildingBlock: MIFKUJ_clean_linker_0, # of connection points: 2
#     Edge 37, Type (0, 0), BuildingBlock: MIFKUJ_clean_linker_0, # of connection points: 2
#     Edge 38, Type (0, 0), BuildingBlock: MIFKUJ_clean_linker_0, # of connection points: 2
#     Edge 39, Type (0, 0), BuildingBlock: MIFKUJ_clean_linker_0, # of connection points: 2
#     Edge 40, Type (0, 0), BuildingBlock: MIFKUJ_clean_linker_0, # of connection points: 2
#     Edge 41, Type (0, 0), BuildingBlock: MIFKUJ_clean_linker_0, # of connection points: 2
#     Edge 42, Type (0, 0), BuildingBlock: MIFKUJ_clean_linker_0, # of connection points: 2
#     Edge 43, Type (0, 0), BuildingBlock: MIFKUJ_clean_linker_0, # of connection points: 2
#     Edge 44, Type (0, 0), BuildingBlock: MIFKUJ_clean_linker_0, # of connection points: 2
#     Edge 45, Type (0, 0), BuildingBlock: MIFKUJ_clean_linker_0, # of connection points: 2
#     Edge 46, Type (0, 0), BuildingBlock: MIFKUJ_clean_linker_0, # of connection points: 2
#     Edge 47, Type (0, 0), BuildingBlock: MIFKUJ_clean_linker_0, # of connection points: 2
#     Edge 48, Type (0, 0), BuildingBlock: MIFKUJ_clean_linker_0, # of connection points: 2
#     Edge 49, Type (0, 0), BuildingBlock: MIFKUJ_clean_linker_0, # of connection points: 2
#     Edge 50, Type (0, 0), BuildingBlock: MIFKUJ_clean_linker_0, # of connection points: 2
#     Edge 51, Type (0, 0), BuildingBlock: MIFKUJ_clean_linker_0, # of connection points: 2
#     Edge 52, Type (0, 0), BuildingBlock: MIFKUJ_clean_linker_0, # of connection points: 2
#     Edge 53, Type (0, 0), BuildingBlock: MIFKUJ_clean_linker_0, # of connection points: 2
#     Edge 54, Type (0, 0), BuildingBlock: MIFKUJ_clean_linker_0, # of connection points: 2
#     Edge 55, Type (0, 0), BuildingBlock: MIFKUJ_clean_linker_0, # of connection points: 2
#     Edge 56, Type (0, 0), BuildingBlock: MIFKUJ_clean_linker_0, # of connection points: 2
#     Edge 57, Type (0, 0), BuildingBlock: MIFKUJ_clean_linker_0, # of connection points: 2
#     Edge 58, Type (0, 0), BuildingBlock: MIFKUJ_clean_linker_0, # of connection points: 2
#     Edge 59, Type (0, 0), BuildingBlock: MIFKUJ_clean_linker_0, # of connection points: 2
#     Edge 60, Type (0, 0), BuildingBlock: MIFKUJ_clean_linker_0, # of connection points: 2
#     Edge 61, Type (0, 0), BuildingBlock: MIFKUJ_clean_linker_0, # of connection points: 2
#     Edge 62, Type (0, 0), BuildingBlock: MIFKUJ_clean_linker_0, # of connection points: 2
#     Edge 63, Type (0, 0), BuildingBlock: MIFKUJ_clean_linker_0, # of connection points: 2
# Relax obj value: 0.090
# Max RMSD: 0.209
# Mean RMSD: 0.146
data_MOF--net-bcs--node1-MIFKUJ_clean_sbu_0--edge1-MIFKUJ_clean_linker_0
_symmetry_space_group_name_H-M    P1
_symmetry_Int_Tables_number       1
_symmetry_cell_setting            triclinic
loop_
_symmetry_equiv_pos_as_xyz
'x, y, z'
_cell_length_a     47.177221
_cell_length_b     51.173408
_cell_length_c     45.434814
_cell_angle_alpha  96.062814
_cell_angle_beta   97.290396
_cell_angle_gamma 102.30651
loop_
_atom_site_label
_atom_site_type_symbol
_atom_site_fract_x
_atom_site_fract_y
_atom_site_fract_z
_atom_type_partial_charge
Zn0 Zn 0.97245 0.00308 0.97627 0.0
Zn1 Zn 0.02517 0.98945 0.01734 0.0
C2 C 0.93825 0.02703 0.01096 0.0
O3 O 0.91947 0.00755 0.99276 0.0
C4 C 0.05582 0.9678 0.97638 0.0
O5 O 0.07514 0.98848 0.99214 0.0
O6 O 0.94409 0.0091 0.94172 0.0
O7 O 0.01254 0.01356 0.96402 0.0
O8 O 0.04031 0.02722 0.00793 0.0
C9 C 0.95207 0.02961 0.9286 0.0
O10 O 0.97937 0.04361 0.93503 0.0
O11 O 0.96561 0.02954 0.01014 0.0
C12 C 0.0441 0.95491 0.05276 0.0
O13 O 0.01966 0.94087 0.03614 0.0
O14 O 0.05248 0.97983 0.05028 0.0
O15 O 0.98545 0.98083 0.03105 0.0
O16 O 0.95913 0.96551 0.9868 0.0
O17 O 0.02946 0.96334 0.98177 0.0
C18 C 0.03532 0.02869 0.98007 0.0
C19 C 0.96328 0.96496 0.01486 0.0
Zn20 Zn 0.272 0.76919 0.20002 0.0
Zn21 Zn 0.23137 0.70977 0.24765 0.0
C22 C 0.21778 0.78445 0.17591 0.0
O23 O 0.20579 0.75845 0.17149 0.0
C24 C 0.25012 0.66914 0.27677 0.0
O25 O 0.23174 0.67553 0.29419 0.0
O26 O 0.31269 0.78806 0.19563 0.0
O27 O 0.27082 0.76474 0.24428 0.0
O28 O 0.25377 0.74054 0.27853 0.0
C29 C 0.32033 0.8133 0.20423 0.0
O30 O 0.30163 0.82541 0.2159 0.0
O31 O 0.24468 0.79269 0.18726 0.0
C32 C 0.17562 0.67439 0.25151 0.0
O33 O 0.18743 0.65595 0.23879 0.0
O34 O 0.18966 0.69895 0.25567 0.0
O35 O 0.23682 0.72532 0.21023 0.0
O36 O 0.2616 0.73267 0.17398 0.0
O37 O 0.25317 0.68051 0.25345 0.0
C38 C 0.26985 0.76169 0.27165 0.0
C39 C 0.24604 0.71594 0.1874 0.0
Zn40 Zn 0.52142 0.97515 0.47937 0.0
Zn41 Zn 0.47362 0.01563 0.52154 0.0
C42 C 0.54636 0.95118 0.52749 0.0
O43 O 0.56566 0.97437 0.53152 0.0
C44 C 0.44648 0.04648 0.48664 0.0
O45 O 0.4255 0.03371 0.49989 0.0
O46 O 0.53459 0.96265 0.44101 0.0
O47 O 0.48165 0.98371 0.47483 0.0
O48 O 0.44673 0.98047 0.50212 0.0
C49 C 0.52868 0.93726 0.43311 0.0
O50 O 0.51193 0.92155 0.44822 0.0
O51 O 0.52436 0.94687 0.50689 0.0
C52 C 0.46406 0.05584 0.56443 0.0
O53 O 0.48247 0.07077 0.55012 0.0
O54 O 0.45884 0.03029 0.55823 0.0
O55 O 0.5136 0.00737 0.52815 0.0
O56 O 0.54734 0.0107 0.49915 0.0
O57 O 0.47187 0.04177 0.49175 0.0
C58 C 0.45861 0.96969 0.48196 0.0
C59 C 0.53612 0.0214 0.51998 0.0
Zn60 Zn 0.21366 0.2606 0.78975 0.0
Zn61 Zn 0.26733 0.25152 0.72041 0.0
C62 C 0.19606 0.20751 0.80701 0.0
O63 O 0.19475 0.19965 0.77829 0.0
C64 C 0.30836 0.28867 0.69608 0.0
O65 O 0.32579 0.27673 0.71197 0.0
O66 O 0.20607 0.29531 0.80914 0.0
O67 O 0.25433 0.26133 0.78104 0.0
O68 O 0.29339 0.25958 0.76082 0.0
C69 C 0.17993 0.29086 0.81499 0.0
O70 O 0.1633 0.26634 0.80751 0.0
O71 O 0.20391 0.23253 0.8169 0.0
C72 C 0.27712 0.21376 0.67328 0.0
O73 O 0.27434 0.23328 0.65734 0.0
O74 O 0.27311 0.21631 0.70047 0.0
O75 O 0.22587 0.24919 0.72868 0.0
O76 O 0.1868 0.24926 0.74969 0.0
O77 O 0.28083 0.28157 0.69613 0.0
C78 C 0.28169 0.26286 0.78424 0.0
C79 C 0.19815 0.24519 0.72612 0.0
Zn80 Zn 0.02103 0.01654 0.46889 0.0
Zn81 Zn 0.99242 0.97619 0.52969 0.0
C82 C 0.96782 0.02938 0.44213 0.0
O83 O 0.96807 0.00914 0.42189 0.0
C84 C 0.0269 0.9498 0.56505 0.0
O85 O 0.00964 0.95694 0.58339 0.0
O86 O 0.05314 0.03755 0.45033 0.0
O87 O 0.03413 0.01474 0.51279 0.0
O88 O 0.00765 0.01449 0.54902 0.0
C89 C 0.05538 0.06291 0.45257 0.0
O90 O 0.03834 0.07382 0.46835 0.0
O91 O 0.98766 0.03552 0.46502 0.0
C92 C 0.95085 0.93163 0.54079 0.0
O93 O 0.96828 0.91923 0.52724 0.0
O94 O 0.95596 0.95726 0.54386 0.0
O95 O 0.9846 0.98076 0.48688 0.0
O96 O 0.00592 0.97792 0.44781 0.0
O97 O 0.0245 0.95618 0.53871 0.0
C98 C 0.02544 0.02767 0.53404 0.0
C99 C 0.9895 0.96615 0.46478 0.0
Zn100 Zn 0.27593 0.72739 0.73373 0.0
Zn101 Zn 0.21242 0.76174 0.76015 0.0
C102 C 0.30853 0.71306 0.78446 0.0
O103 O 0.32768 0.73435 0.77979 0.0
C104 C 0.1782 0.77714 0.71323 0.0
O105 O 0.15929 0.75815 0.72246 0.0
O106 O 0.29416 0.71281 0.69922 0.0
O107 O 0.23267 0.72647 0.72429 0.0
O108 O 0.19447 0.722 0.74737 0.0
C109 C 0.29312 0.68759 0.69653 0.0
O110 O 0.27884 0.67295 0.71438 0.0
O111 O 0.28355 0.70636 0.768 0.0
C112 C 0.20132 0.8032 0.80065 0.0
O113 O 0.22059 0.81737 0.78655 0.0
O114 O 0.19481 0.7776 0.79435 0.0
O115 O 0.2553 0.76176 0.77078 0.0
O116 O 0.29357 0.76722 0.74788 0.0
O117 O 0.20488 0.78242 0.72557 0.0
C118 C 0.21156 0.71109 0.73324 0.0
C119 C 0.27658 0.77756 0.76272 0.0
Zn120 Zn 0.48827 0.02461 0.00614 0.0
Zn121 Zn 0.51876 0.98376 0.97708 0.0
C122 C 0.4638 0.99413 0.05059 0.0
O123 O 0.44336 0.00784 0.0467 0.0
C124 C 0.51404 0.00538 0.92198 0.0
O125 O 0.50316 0.9798 0.91139 0.0
O126 O 0.46843 0.05368 0.02166 0.0
O127 O 0.53158 0.04014 0.00892 0.0
O128 O 0.53958 0.00076 0.018 0.0
C129 C 0.47629 0.06538 0.0485 0.0
O130 O 0.49887 0.05995 0.06476 0.0
O131 O 0.48444 -0.0027 0.03499 0.0
C132 C 0.5293 0.93283 0.9484 0.0
O133 O 0.50085 0.92361 0.9467 0.0
O134 O 0.54096 0.95685 0.9608 0.0
O135 O 0.47565 0.96715 0.97285 0.0
O136 O 0.46527 0.00638 0.9664 0.0
O137 O 0.52257 0.01214 0.94993 0.0
C138 C 0.54685 0.02638 0.02296 0.0
C139 C 0.45868 0.98074 0.96104 0.0
Zn140 Zn 0.2295 0.26573 0.24448 0.0
Zn141 Zn 0.29529 0.24122 0.26588 0.0
C142 C 0.19874 0.27753 0.2927 0.0
O143 O 0.18192 0.25406 0.28042 0.0
C144 C 0.32488 0.22308 0.22262 0.0
O145 O 0.3441 0.24278 0.24008 0.0
O146 O 0.19763 0.27149 0.21392 0.0
O147 O 0.26721 0.28445 0.2319 0.0
O148 O 0.30738 0.27986 0.26009 0.0
C149 C 0.20119 0.29568 0.20834 0.0
O150 O 0.22452 0.31375 0.222 0.0
O151 O 0.2223 0.28643 0.28242 0.0
C152 C 0.31962 0.20838 0.30038 0.0
O153 O 0.29464 0.19271 0.28673 0.0
O154 O 0.32642 0.23275 0.29549 0.0
O155 O 0.25858 0.2287 0.28352 0.0
O156 O 0.22195 0.22601 0.24721 0.0
O157 O 0.29838 0.21813 0.22756 0.0
C158 C 0.2948 0.29114 0.24034 0.0
C159 C 0.23254 0.21807 0.2708 0.0
Zn160 Zn 0.49866 0.51869 0.95531 0.0
Zn161 Zn 0.49286 0.4763 0.02657 0.0
C162 C 0.44289 0.53449 0.94267 0.0
O163 O 0.43205 0.50832 0.93663 0.0
C164 C 0.52816 0.45331 0.0662 0.0
O165 O 0.50956 0.46001 0.08317 0.0
O166 O 0.52853 0.53211 0.93012 0.0
O167 O 0.52008 0.52065 -0.00175 0.0
O168 O 0.50408 0.51605 0.04095 0.0
C169 C 0.54942 0.55227 0.94068 0.0
O170 O 0.55151 0.56328 0.96856 0.0
O171 O 0.47014 0.5432 0.95252 0.0
C172 C 0.45384 0.4308 0.03627 0.0
O173 O 0.47199 0.42039 0.02158 0.0
O174 O 0.45722 0.45628 0.0407 0.0
O175 O 0.48501 0.47524 0.98332 0.0
O176 O 0.4786 0.47997 0.93667 0.0
O177 O 0.52664 0.45929 0.03966 0.0
C178 C 0.51462 0.53151 0.02279 0.0
C179 C 0.47526 0.46474 0.95674 0.0
Zn180 Zn 0.79491 0.22323 0.25349 0.0
Zn181 Zn 0.72892 0.27141 0.25518 0.0
C182 C 0.82236 0.21388 0.31258 0.0
O183 O 0.83298 0.24011 0.31823 0.0
C184 C 0.68794 0.28717 0.21501 0.0
O185 O 0.67132 0.2725 0.23115 0.0
O186 O 0.80987 0.20446 0.21905 0.0
O187 O 0.75065 0.21987 0.24895 0.0
O188 O 0.70848 0.23198 0.24737 0.0
C189 C 0.79934 0.19648 0.19161 0.0
O190 O 0.77396 0.20103 0.18073 0.0
O191 O 0.80584 0.20382 0.28792 0.0
C192 C 0.71288 0.31296 0.29382 0.0
O193 O 0.72032 0.32741 0.27263 0.0
O194 O 0.7159 0.28871 0.29215 0.0
O195 O 0.77153 0.27016 0.25857 0.0
O196 O 0.8156 0.26329 0.26176 0.0
O197 O 0.71556 0.28947 0.22016 0.0
C198 C 0.72274 0.21346 0.24526 0.0
C199 C 0.79897 0.27985 0.26285 0.0
Zn200 Zn 0.98252 0.51935 0.51439 0.0
Zn201 Zn 0.02247 0.48571 0.48215 0.0
C202 C 0.95231 0.46728 0.52822 0.0
O203 O 0.93139 0.46896 0.50698 0.0
C204 C 0.05881 0.52885 0.45942 0.0
O205 O 0.07965 0.51765 0.47058 0.0
O206 O 0.96021 0.54533 0.53284 0.0
O207 O 0.02573 0.53578 0.52556 0.0
O208 O 0.03669 0.49606 0.52619 0.0
C209 C 0.95947 0.54796 0.56091 0.0
O210 O 0.97366 0.53401 0.57768 0.0
O211 O 0.97519 0.48626 0.53494 0.0
C212 C 0.04703 0.45552 0.43833 0.0
O213 O 0.03597 0.47073 0.4206 0.0
O214 O 0.04409 0.45822 0.46588 0.0
O215 O 0.98004 0.47023 0.46819 0.0
O216 O 0.96635 0.50898 0.47041 0.0
O217 O 0.03244 0.51886 0.46215 0.0
C218 C 0.04149 0.52087 0.53676 0.0
C219 C 0.9643 0.48526 0.45739 0.0
Zn220 Zn 0.72927 0.7474 0.27551 0.0
Zn221 Zn 0.78888 0.73616 0.21329 0.0
C222 C 0.68757 0.70916 0.29786 0.0
O223 O 0.67023 0.72025 0.28072 0.0
C224 C 0.80686 0.78757 0.19174 0.0
O225 O 0.80389 0.79755 0.21874 0.0
O226 O 0.72111 0.78205 0.29396 0.0
O227 O 0.77148 0.7502 0.27033 0.0
O228 O 0.81312 0.75009 0.25455 0.0
C229 C 0.71678 0.78444 0.32105 0.0
O230 O 0.72071 0.76541 0.33734 0.0
O231 O 0.71521 0.71735 0.29947 0.0
C232 C 0.79258 0.6931 0.16969 0.0
O233 O 0.78123 0.708 0.15176 0.0
O234 O 0.79652 0.70038 0.19782 0.0
O235 O 0.74645 0.735 0.21693 0.0
O236 O 0.70568 0.7374 0.23389 0.0
O237 O 0.80156 0.76213 0.18469 0.0
C238 C 0.79926 0.75536 0.27587 0.0
C239 C 0.71884 0.73226 0.21199 0.0
Zn240 Zn 0.7744 0.28787 0.73043 0.0
Zn241 Zn 0.7407 0.23181 0.78713 0.0
C242 C 0.72974 0.31586 0.72168 0.0
O243 O 0.71615 0.29469 0.73258 0.0
C244 C 0.76525 0.19734 0.82325 0.0
O245 O 0.74386 0.20091 0.83802 0.0
O246 O 0.81613 0.29328 0.72268 0.0
O247 O 0.76648 0.27975 0.77091 0.0
O248 O 0.75171 0.26883 0.81194 0.0
C249 C 0.83329 0.31652 0.72612 0.0
O250 O 0.82467 0.33741 0.73809 0.0
O251 O 0.75672 0.31842 0.71938 0.0
C252 C 0.69217 0.18859 0.7821 0.0
O253 O 0.70948 0.17742 0.76692 0.0
O254 O 0.70069 0.21326 0.79319 0.0
O255 O 0.73998 0.23556 0.7428 0.0
O256 O 0.75075 0.25442 0.70315 0.0
O257 O 0.76907 0.20934 0.80044 0.0
C258 C 0.76226 0.28721 0.79709 0.0
C259 C 0.73686 0.23474 0.7145 0.0
Zn260 Zn 0.71464 0.75964 0.73472 0.0
Zn261 Zn 0.77929 0.73969 0.75901 0.0
C262 C 0.68162 0.76782 0.78174 0.0
O263 O 0.66371 0.7468 0.76498 0.0
C264 C 0.80644 0.72295 0.71221 0.0
O265 O 0.82489 0.74494 0.72638 0.0
O266 O 0.68228 0.76584 0.70477 0.0
O267 O 0.75133 0.78191 0.72396 0.0
O268 O 0.79163 0.77818 0.75261 0.0
C269 C 0.67923 0.79 0.70866 0.0
O270 O 0.69686 0.8072 0.73024 0.0
O271 O 0.70686 0.77641 0.77464 0.0
C272 C 0.8036 0.70523 0.79058 0.0
O273 O 0.77908 0.69008 0.77514 0.0
O274 O 0.80978 0.73034 0.78849 0.0
O275 O 0.74237 0.72889 0.77631 0.0
O276 O 0.7106 0.71975 0.73494 0.0
O277 O 0.78161 0.7159 0.72087 0.0
C278 C 0.7787 0.78979 0.73344 0.0
C279 C 0.71863 0.71489 0.76107 0.0
Zn280 Zn 0.46795 0.50676 0.47763 0.0
Zn281 Zn 0.52761 0.48474 0.50849 0.0
C282 C 0.44409 0.52863 0.525 0.0
O283 O 0.42449 0.5062 0.51431 0.0
C284 C 0.5567 0.46478 0.46507 0.0
O285 O 0.57535 0.48686 0.47877 0.0
O286 O 0.43761 0.51479 0.4466 0.0
O287 O 0.50518 0.51561 0.45941 0.0
O288 O 0.53975 0.52284 0.49877 0.0
C289 C 0.44435 0.53896 0.44089 0.0
O290 O 0.46896 0.55495 0.45509 0.0
O291 O 0.46763 0.53391 0.51362 0.0
C292 C 0.55199 0.45459 0.54718 0.0
O293 O 0.52771 0.43787 0.53334 0.0
O294 O 0.5583 0.47844 0.54046 0.0
O295 O 0.48978 0.47252 0.52495 0.0
O296 O 0.45341 0.46921 0.48796 0.0
O297 O 0.53135 0.4589 0.47282 0.0
C298 C 0.53066 0.52764 0.4728 0.0
C299 C 0.46329 0.46277 0.51286 0.0
Zn300 Zn 0.00912 0.48259 0.02438 0.0
Zn301 Zn 0.00244 0.52504 0.98635 0.0
C302 C 0.02541 0.44724 0.981 0.0
O303 O 0.00425 0.4307 0.99052 0.0
C304 C 0.98521 0.55859 0.03174 0.0
O305 O 0.00805 0.57594 0.02606 0.0
O306 O 0.01491 0.45683 0.05386 0.0
O307 O 0.02963 0.51943 0.04531 0.0
O308 O 0.04516 0.53027 0.0038 0.0
C309 C 0.04201 0.45805 0.06193 0.0
O310 O 0.06147 0.47613 0.05214 0.0
O311 O 0.03155 0.4721 0.99162 0.0
C312 C 0.96984 0.54702 0.94464 0.0
O313 O 0.9504 0.5269 0.95123 0.0
O314 O 0.99645 0.55115 0.95705 0.0
O315 O 0.98163 0.48828 0.9654 0.0
O316 O 0.96663 0.47618 0.00678 0.0
O317 O 0.97915 0.53457 0.01836 0.0
C318 C 0.05005 0.53065 0.03201 0.0
C319 C 0.96177 0.47575 0.97855 0.0
H320 H 0.16777 0.15445 0.79169 0.0
H321 H 0.14614 0.12359 0.82463 0.0
H322 H 0.17984 0.18504 0.90089 0.0
H323 H 0.20152 0.21616 0.86811 0.0
H324 H 0.18274 0.13 0.91151 0.0
H325 H 0.11422 0.18105 0.87279 0.0
H326 H 0.08834 0.19883 0.83155 0.0
H327 H 0.04875 0.118 0.78896 0.0
H328 H 0.07473 0.09975 0.82981 0.0
H329 H 0.08055 0.07186 0.00563 0.0
H330 H 0.11291 0.10233 0.97926 0.0
H331 H 0.07067 0.05493 0.89476 0.0
H332 H 0.03815 0.02515 0.9206 0.0
H333 H 0.07383 0.10557 0.89084 0.0
H334 H 0.14059 0.05344 0.92767 0.0
H335 H 0.16846 0.0339 0.9658 0.0
H336 H 0.2125 0.11347 0.00919 0.0
H337 H 0.18452 0.1335 0.97156 0.0
C338 C 0.171 0.16129 0.81551 0.0
C339 C 0.18603 0.18785 0.82724 0.0
C340 C 0.15868 0.14362 0.83429 0.0
C341 C 0.16126 0.15216 0.86511 0.0
C342 C 0.17768 0.17811 0.87717 0.0
C343 C 0.18985 0.19588 0.85836 0.0
C344 C 0.14417 0.13506 0.88401 0.0
C345 C 0.15892 0.12485 0.90736 0.0
C346 C 0.11317 0.12815 0.87815 0.0
C347 C 0.09655 0.13905 0.85425 0.0
C348 C 0.10005 0.16707 0.85459 0.0
C349 C 0.08538 0.17723 0.83129 0.0
C350 C 0.06695 0.15955 0.80762 0.0
C351 C 0.06303 0.13167 0.80731 0.0
C352 C 0.07768 0.1214 0.83056 0.0
C353 C 0.07839 0.06791 0.98146 0.0
C354 C 0.05661 0.04627 0.9652 0.0
C355 C 0.09692 0.08525 0.96642 0.0
C356 C 0.0942 0.08092 0.93498 0.0
C357 C 0.07303 0.05885 0.91896 0.0
C358 C 0.05444 0.0418 0.93384 0.0
C359 C 0.11227 0.09982 0.91827 0.0
C360 C 0.09765 0.11064 0.89529 0.0
C361 C 0.14336 0.10695 0.92433 0.0
C362 C 0.16018 0.09497 0.94701 0.0
C363 C 0.156 0.06678 0.94551 0.0
C364 C 0.17186 0.05561 0.967 0.0
C365 C 0.19217 0.07243 0.98996 0.0
C366 C 0.19671 0.10046 0.99143 0.0
C367 C 0.18086 0.11173 0.97002 0.0
H368 H 0.20444 0.06375 0.00657 0.0
H369 H 0.05569 0.16745 0.78954 0.0
H370 H 0.0968 0.97627 0.0898 0.0
H371 H 0.12772 0.95125 0.11765 0.0
H372 H 0.06337 0.87691 0.08523 0.0
H373 H 0.03279 0.90148 0.05748 0.0
H374 H 0.08477 0.87907 0.14381 0.0
H375 H 0.12259 0.89462 0.05135 0.0
H376 H 0.14286 0.92298 0.01487 0.0
H377 H 0.21606 0.9637 0.0818 0.0
H378 H 0.19599 0.93578 0.11879 0.0
H379 H 0.16053 0.7741 0.14887 0.0
H380 H 0.13234 0.80684 0.13432 0.0
H381 H 0.20717 0.87208 0.16996 0.0
H382 H 0.23568 0.8395 0.1841 0.0
H383 H 0.18324 0.87941 0.11616 0.0
H384 H 0.14773 0.85841 0.20685 0.0
H385 H 0.12688 0.82894 0.24207 0.0
H386 H 0.04871 0.79753 0.17791 0.0
H387 H 0.06926 0.82652 0.14212 0.0
C388 C 0.08917 0.95465 0.08892 0.0
C389 C 0.06227 0.94088 0.07156 0.0
C390 C 0.10684 0.94039 0.10477 0.0
C391 C 0.09786 0.9122 0.10339 0.0
C392 C 0.07065 0.89865 0.0868 0.0
C393 C 0.05315 0.91279 0.07094 0.0
C394 C 0.1172 0.89626 0.11765 0.0
C395 C 0.10629 0.87907 0.13776 0.0
C396 C 0.14548 0.89669 0.11016 0.0
C397 C 0.15762 0.91336 0.08791 0.0
C398 C 0.14289 0.90977 0.05834 0.0
C399 C 0.15436 0.92573 0.03756 0.0
C400 C 0.18068 0.94519 0.04604 0.0
C401 C 0.19564 0.94866 0.07529 0.0
C402 C 0.18424 0.93277 0.09616 0.0
C403 C 0.17096 0.79541 0.15373 0.0
C404 C 0.20035 0.80417 0.16765 0.0
C405 C 0.15477 0.81412 0.14555 0.0
C406 C 0.16754 0.84194 0.1514 0.0
C407 C 0.19685 0.85073 0.1653 0.0
C408 C 0.21309 0.83205 0.1734 0.0
C409 C 0.15062 0.86179 0.14198 0.0
C410 C 0.16197 0.8797 0.12272 0.0
C411 C 0.12266 0.8619 0.15015 0.0
C412 C 0.11016 0.84452 0.1717 0.0
C413 C 0.12618 0.84508 0.20016 0.0
C414 C 0.1144 0.82847 0.22024 0.0
C415 C 0.08652 0.81133 0.21221 0.0
C416 C 0.07032 0.8108 0.1841 0.0
C417 C 0.08201 0.82734 0.16391 0.0
H418 H 0.07743 0.79849 0.22779 0.0
H419 H 0.18953 0.95752 0.02993 0.0
H420 H 0.47001 0.94829 0.42868 0.0
H421 H 0.44115 0.90791 0.39623 0.0
H422 H 0.38418 0.89213 0.46256 0.0
H423 H 0.41363 0.93212 0.49572 0.0
H424 H 0.41968 0.85135 0.40009 0.0
H425 H 0.31525 0.88608 0.42319 0.0
H426 H 0.30085 0.92796 0.44091 0.0
H427 H 0.37308 0.97502 0.40682 0.0
H428 H 0.38754 0.93344 0.38844 0.0
H429 H 0.29138 0.75384 0.32768 0.0
H430 H 0.32623 0.78678 0.36561 0.0
H431 H 0.32613 0.84766 0.30675 0.0
H432 H 0.29126 0.81485 0.26883 0.0
H433 H 0.32056 0.8654 0.36531 0.0
H434 H 0.38152 0.82106 0.3115 0.0
H435 H 0.39857 0.78229 0.28918 0.0
H436 H 0.41727 0.75893 0.3763 0.0
H437 H 0.39991 0.7974 0.39913 0.0
C438 C 0.4521 0.93563 0.4369 0.0
C439 C 0.44412 0.94323 0.46475 0.0
C440 C 0.43563 0.91261 0.41831 0.0
C441 C 0.41059 0.89728 0.42706 0.0
C442 C 0.40353 0.90385 0.45557 0.0
C443 C 0.42023 0.92671 0.47435 0.0
C444 C 0.38954 0.87721 0.40473 0.0
C445 C 0.39789 0.85416 0.39267 0.0
C446 C 0.3616 0.8816 0.39444 0.0
C447 C 0.35266 0.90668 0.40481 0.0
C448 C 0.32797 0.90537 0.41939 0.0
C449 C 0.31979 0.92906 0.42954 0.0
C450 C 0.33609 0.95415 0.42508 0.0
C451 C 0.36052 0.9556 0.41034 0.0
C452 C 0.36872 0.93198 0.40009 0.0
C453 C 0.29859 0.77432 0.32299 0.0
C454 C 0.28887 0.78188 0.29531 0.0
C455 C 0.31859 0.79299 0.34452 0.0
C456 C 0.32883 0.81944 0.33872 0.0
C457 C 0.31849 0.82724 0.31147 0.0
C458 C 0.29877 0.80852 0.28983 0.0
C459 C 0.35034 0.83909 0.3611 0.0
C460 C 0.34214 0.86224 0.37306 0.0
C461 C 0.37866 0.83511 0.3706 0.0
C462 C 0.38906 0.81192 0.35698 0.0
C463 C 0.38897 0.8075 0.32588 0.0
C464 C 0.39877 0.78562 0.31314 0.0
C465 C 0.40891 0.7681 0.3313 0.0
C466 C 0.40935 0.77249 0.36226 0.0
C467 C 0.39955 0.79434 0.37511 0.0
H468 H 0.41649 0.75117 0.3214 0.0
H469 H 0.32976 0.97246 0.43298 0.0
H470 H 0.27697 0.16552 0.69452 0.0
H471 H 0.30301 0.13134 0.67796 0.0
H472 H 0.33374 0.17896 0.61045 0.0
H473 H 0.30668 0.21219 0.62582 0.0
H474 H 0.32156 0.12975 0.58802 0.0
H475 H 0.37538 0.1787 0.68347 0.0
H476 H 0.38185 0.19453 0.73764 0.0
H477 H 0.36123 0.11247 0.7557 0.0
H478 H 0.35429 0.09618 0.70159 0.0
H479 H 0.46 0.10831 0.56898 0.0
H480 H 0.42272 0.12773 0.58971 0.0
H481 H 0.38664 0.05201 0.61923 0.0
H482 H 0.4237 0.03196 0.59783 0.0
H483 H 0.39525 0.1058 0.66205 0.0
H484 H 0.34856 0.05807 0.56525 0.0
H485 H 0.34352 0.04409 0.51085 0.0
H486 H 0.35364 0.12668 0.49544 0.0
H487 H 0.35913 0.14122 0.54981 0.0
C488 C 0.28894 0.16841 0.67585 0.0
C489 C 0.28986 0.19156 0.66151 0.0
C490 C 0.30402 0.14899 0.66656 0.0
C491 C 0.3209 0.1528 0.64334 0.0
C492 C 0.3209 0.17548 0.6284 0.0
C493 C 0.30539 0.19452 0.63723 0.0
C494 C 0.33941 0.13391 0.63482 0.0
C495 C 0.33769 0.12463 0.60429 0.0
C496 C 0.35994 0.12641 0.65603 0.0
C497 C 0.36394 0.13624 0.6885 0.0
C498 C 0.372 0.16405 0.69899 0.0
C499 C 0.37578 0.1731 0.72968 0.0
C500 C 0.37185 0.15452 0.75009 0.0
C501 C 0.36419 0.12685 0.73986 0.0
C502 C 0.36033 0.11769 0.7092 0.0
C503 C 0.4445 0.0958 0.58028 0.0
C504 C 0.44473 0.06851 0.58161 0.0
C505 C 0.42313 0.10694 0.59198 0.0
C506 C 0.40184 0.09117 0.60561 0.0
C507 C 0.4029 0.06439 0.60863 0.0
C508 C 0.42409 0.05304 0.59646 0.0
C509 C 0.37792 0.10275 0.61539 0.0
C510 C 0.37867 0.11058 0.64601 0.0
C511 C 0.35677 0.1093 0.59429 0.0
C512 C 0.35442 0.10074 0.56164 0.0
C513 C 0.35005 0.07329 0.55031 0.0
C514 C 0.34697 0.06526 0.51947 0.0
C515 C 0.34809 0.08447 0.49971 0.0
C516 C 0.35262 0.11181 0.51077 0.0
C517 C 0.3557 0.11995 0.5416 0.0
H518 H 0.34547 0.07817 0.47583 0.0
H519 H 0.37481 0.16157 0.77383 0.0
H520 H 0.01029 0.90344 0.58757 0.0
H521 H 0.04145 0.87501 0.60751 0.0
H522 H 0.11745 0.92794 0.58477 0.0
H523 H 0.08558 0.95553 0.56279 0.0
H524 H 0.12443 0.87833 0.57807 0.0
H525 H 0.1 0.9332 0.65737 0.0
H526 H 0.06787 0.95439 0.6861 0.0
H527 H 0.02148 0.87633 0.7011 0.0
H528 H 0.05307 0.85463 0.67211 0.0
H529 H 0.20963 0.82194 0.69337 0.0
H530 H 0.1897 0.85278 0.66298 0.0
H531 H 0.10295 0.80163 0.65486 0.0
H532 H 0.12244 0.77081 0.6847 0.0
H533 H 0.10938 0.85686 0.67974 0.0
H534 H 0.13545 0.80334 0.5961 0.0
H535 H 0.17049 0.78519 0.56867 0.0
H536 H 0.21914 0.86574 0.5657 0.0
H537 H 0.18458 0.88436 0.59349 0.0
C538 C 0.0336 0.90875 0.58648 0.0
C539 C 0.04574 0.9317 0.57407 0.0
C540 C 0.05144 0.89263 0.59803 0.0
C541 C 0.08199 0.89984 0.59863 0.0
C542 C 0.094 0.92212 0.58484 0.0
C543 C 0.07588 0.93787 0.57237 0.0
C544 C 0.10105 0.88472 0.61504 0.0
C545 C 0.12148 0.874 0.60049 0.0
C546 C 0.09759 0.8793 0.64449 0.0
C547 C 0.07884 0.89229 0.66243 0.0
C548 C 0.08287 0.92055 0.6667 0.0
C549 C 0.06475 0.93265 0.68302 0.0
C550 C 0.04262 0.91671 0.69538 0.0
C551 C 0.03863 0.88865 0.69152 0.0
C552 C 0.05668 0.87644 0.67518 0.0
C553 C 0.1864 0.81703 0.68462 0.0
C554 C 0.16757 0.79405 0.69171 0.0
C555 C 0.17509 0.83464 0.66725 0.0
C556 C 0.14485 0.82949 0.65684 0.0
C557 C 0.12634 0.80598 0.66279 0.0
C558 C 0.13756 0.78838 0.67989 0.0
C559 C 0.13162 0.84953 0.64226 0.0
C560 C 0.1125 0.86144 0.65742 0.0
C561 C 0.13692 0.85649 0.61383 0.0
C562 C 0.15765 0.84522 0.5972 0.0
C563 C 0.15379 0.81717 0.58988 0.0
C564 C 0.17352 0.8068 0.57419 0.0
C565 C 0.19708 0.8243 0.56554 0.0
C566 C 0.20092 0.85221 0.57247 0.0
C567 C 0.18126 0.86268 0.58817 0.0
H568 H 0.21232 0.81623 0.55338 0.0
H569 H 0.02859 0.92612 0.70798 0.0
H570 H 0.29137 0.82416 0.73797 0.0
H571 H 0.31081 0.86992 0.76537 0.0
H572 H 0.3049 0.83738 0.84906 0.0
H573 H 0.28313 0.79282 0.82174 0.0
H574 H 0.29621 0.88232 0.85854 0.0
H575 H 0.37064 0.84891 0.80909 0.0
H576 H 0.39218 0.83361 0.76549 0.0
H577 H 0.39 0.90809 0.73065 0.0
H578 H 0.36818 0.9237 0.77396 0.0
H579 H 0.43153 0.92745 0.95272 0.0
H580 H 0.39118 0.90385 0.91346 0.0
H581 H 0.38832 0.97868 0.87887 0.0
H582 H 0.42859 0.00271 0.91845 0.0
H583 H 0.39414 0.92708 0.8373 0.0
H584 H 0.33003 0.96026 0.90277 0.0
H585 H 0.31856 0.96961 0.95385 0.0
H586 H 0.31283 0.88663 0.96584 0.0
H587 H 0.32355 0.8767 0.91465 0.0
C588 C 0.29382 0.82718 0.7622 0.0
C589 C 0.28613 0.80527 0.77796 0.0
C590 C 0.30501 0.85319 0.77785 0.0
C591 C 0.31004 0.85717 0.8094 0.0
C592 C 0.30117 0.83514 0.82481 0.0
C593 C 0.28896 0.80956 0.80922 0.0
C594 C 0.32696 0.88318 0.82698 0.0
C595 C 0.31743 0.89225 0.85353 0.0
C596 C 0.35457 0.89669 0.82054 0.0
C597 C 0.36739 0.88726 0.79443 0.0
C598 C 0.37459 0.86192 0.792 0.0
C599 C 0.38686 0.85321 0.76738 0.0
C600 C 0.39234 0.86982 0.74525 0.0
C601 C 0.38564 0.89521 0.74775 0.0
C602 C 0.37331 0.90399 0.7723 0.0
C603 C 0.42216 0.93895 0.93696 0.0
C604 C 0.43314 0.96688 0.93862 0.0
C605 C 0.39914 0.92548 0.91464 0.0
C606 C 0.38691 0.93967 0.89354 0.0
C607 C 0.39754 0.96756 0.89516 0.0
C608 C 0.42039 0.98117 0.91779 0.0
C609 C 0.36395 0.92456 0.86911 0.0
C610 C 0.3723 0.91783 0.84136 0.0
C611 C 0.336 0.91219 0.87505 0.0
C612 C 0.32733 0.91773 0.90488 0.0
C613 C 0.32598 0.94398 0.91623 0.0
C614 C 0.31958 0.94937 0.94517 0.0
C615 C 0.31481 0.9287 0.96302 0.0
C616 C 0.31625 0.90257 0.9519 0.0
C617 C 0.3222 0.89699 0.92284 0.0
H618 H 0.31006 0.93293 0.98549 0.0
H619 H 0.40186 0.86306 0.72621 0.0
H620 H 0.48583 0.09117 0.10589 0.0
H621 H 0.45453 0.11592 0.13009 0.0
H622 H 0.39216 0.09946 0.04853 0.0
H623 H 0.42449 0.07598 0.02345 0.0
H624 H 0.39476 0.14807 0.07352 0.0
H625 H 0.3814 0.06314 0.10898 0.0
H626 H 0.39599 0.02462 0.13 0.0
H627 H 0.43727 0.0762 0.21166 0.0
H628 H 0.42341 0.11515 0.19096 0.0
H629 H 0.293 0.18788 0.17338 0.0
H630 H 0.31218 0.1584 0.13811 0.0
H631 H 0.39925 0.18842 0.18795 0.0
H632 H 0.38076 0.2181 0.22232 0.0
H633 H 0.37393 0.12709 0.17386 0.0
H634 H 0.3908 0.21282 0.13248 0.0
H635 H 0.37378 0.24964 0.11016 0.0
H636 H 0.32106 0.1927 0.03722 0.0
H637 H 0.33703 0.15536 0.05972 0.0
C638 C 0.46578 0.09322 0.09282 0.0
C639 C 0.45786 0.08174 0.0626 0.0
C640 C 0.44761 0.10708 0.10687 0.0
C641 C 0.42053 0.10902 0.09142 0.0
C642 C 0.41282 0.09813 0.06102 0.0
C643 C 0.43134 0.08467 0.04672 0.0
C644 C 0.40041 0.12222 0.10733 0.0
C645 C 0.38974 0.14307 0.09518 0.0
C646 C 0.39348 0.11563 0.13553 0.0
C647 C 0.40148 0.09213 0.14832 0.0
C648 C 0.39372 0.06631 0.13137 0.0
C649 C 0.40187 0.04439 0.14322 0.0
C650 C 0.41758 0.04796 0.17213 0.0
C651 C 0.4251 0.07346 0.18927 0.0
C652 C 0.41707 0.09547 0.17749 0.0
C653 C 0.31623 0.18823 0.17661 0.0
C654 C 0.33537 0.2054 0.20054 0.0
C655 C 0.32712 0.17146 0.1565 0.0
C656 C 0.35712 0.17132 0.16053 0.0
C657 C 0.37606 0.18827 0.18448 0.0
C658 C 0.36541 0.20532 0.20403 0.0
C659 C 0.36937 0.15335 0.14048 0.0
C660 C 0.37848 0.13157 0.15188 0.0
C661 C 0.37434 0.15876 0.11146 0.0
C662 C 0.36472 0.18124 0.09806 0.0
C663 C 0.37523 0.20808 0.11194 0.0
C664 C 0.36586 0.22907 0.09919 0.0
C665 C 0.34637 0.22354 0.07227 0.0
C666 C 0.33613 0.19697 0.0581 0.0
C667 C 0.34527 0.17587 0.07089 0.0
H668 H 0.33926 0.23986 0.06236 0.0
H669 H 0.42389 0.03097 0.18126 0.0
H670 H 0.05187 0.11224 0.43743 0.0
H671 H 0.08116 0.13838 0.40513 0.0
H672 H 0.13083 0.07721 0.39564 0.0
H673 H 0.10137 0.05064 0.42757 0.0
H674 H 0.14764 0.15619 0.41343 0.0
H675 H 0.12598 0.06401 0.33612 0.0
H676 H 0.08669 0.02371 0.31491 0.0
H677 H 0.02404 0.07334 0.30634 0.0
H678 H 0.06296 0.11379 0.32785 0.0
H679 H 0.24925 0.19402 0.31864 0.0
H680 H 0.21783 0.16652 0.34761 0.0
H681 H 0.14122 0.17218 0.28796 0.0
H682 H 0.17273 0.19891 0.25786 0.0
H683 H 0.13424 0.12309 0.30463 0.0
H684 H 0.16325 0.21395 0.35416 0.0
H685 H 0.19801 0.25683 0.37606 0.0
H686 H 0.23999 0.21599 0.44042 0.0
H687 H 0.20576 0.17277 0.41867 0.0
C688 C 0.06923 0.10448 0.42874 0.0
C689 C 0.07443 0.07946 0.43501 0.0
C690 C 0.08582 0.11939 0.41029 0.0
C691 C 0.1079 0.10956 0.39808 0.0
C692 C 0.11361 0.08489 0.40477 0.0
C693 C 0.09687 0.06984 0.42301 0.0
C694 C 0.12466 0.12488 0.37783 0.0
C695 C 0.145 0.14899 0.38969 0.0
C696 C 0.12028 0.11581 0.34687 0.0
C697 C 0.09723 0.09174 0.33338 0.0
C698 C 0.10382 0.06624 0.32957 0.0
C699 C 0.08163 0.0434 0.31763 0.0
C700 C 0.05289 0.04597 0.30924 0.0
C701 C 0.04628 0.07137 0.31284 0.0
C702 C 0.06836 0.09422 0.32495 0.0
C703 C 0.22576 0.18917 0.31136 0.0
C704 C 0.21345 0.19905 0.28621 0.0
C705 C 0.20782 0.17355 0.32807 0.0
C706 C 0.17721 0.16796 0.32037 0.0
C707 C 0.16483 0.17652 0.29439 0.0
C708 C 0.18285 0.19185 0.27731 0.0
C709 C 0.1583 0.15419 0.34028 0.0
C710 C 0.13724 0.13042 0.32836 0.0
C711 C 0.16171 0.16401 0.37121 0.0
C712 C 0.18206 0.19007 0.38464 0.0
C713 C 0.17999 0.21407 0.37288 0.0
C714 C 0.19958 0.23844 0.38527 0.0
C715 C 0.22121 0.23912 0.40957 0.0
C716 C 0.22323 0.21543 0.42159 0.0
C717 C 0.20372 0.191 0.40927 0.0
H718 H 0.23637 0.258 0.41911 0.0
H719 H 0.03575 0.02828 0.29998 0.0
H720 H 0.85143 0.18273 0.20825 0.0
H721 H 0.87673 0.15546 0.17828 0.0
H722 H 0.80913 0.14745 0.10232 0.0
H723 H 0.7833 0.17447 0.13239 0.0
H724 H 0.8219 0.0995 0.11057 0.0
H725 H 0.87847 0.18973 0.10703 0.0
H726 H 0.90814 0.23483 0.12941 0.0
H727 H 0.97143 0.19856 0.17604 0.0
H728 H 0.94196 0.15323 0.15422 0.0
H729 H 0.88659 0.04135 -0.00115 0.0
H730 H 0.86538 0.07115 0.03005 0.0
H731 H 0.94191 0.08593 0.09792 0.0
H732 H 0.96398 0.05666 0.06571 0.0
H733 H 0.92569 0.13015 0.09619 0.0
H734 H 0.87179 0.04108 0.10235 0.0
H735 H 0.84304 0.99488 0.08317 0.0
H736 H 0.77591 0.0269 0.03658 0.0
H737 H 0.80441 0.07329 0.05522 0.0
C738 C 0.84195 0.17535 0.1851 0.0
C739 C 0.81528 0.18089 0.17274 0.0
C740 C 0.85659 0.15983 0.16794 0.0
C741 C 0.84508 0.14963 0.1379 0.0
C742 C 0.81851 0.15516 0.12543 0.0
C743 C 0.80379 0.17068 0.14263 0.0
C744 C 0.86016 0.13238 0.11986 0.0
C745 C 0.84447 0.10634 0.10707 0.0
C746 C 0.89002 0.14082 0.11634 0.0
C747 C 0.90788 0.16809 0.12917 0.0
C748 C 0.89862 0.19138 0.1222 0.0
C749 C 0.91542 0.21698 0.13476 0.0
C750 C 0.94162 0.21956 0.15419 0.0
C751 C 0.95112 0.19654 0.16101 0.0
C752 C 0.9344 0.17089 0.14852 0.0
C753 C 0.89895 0.05088 0.02046 0.0
C754 C 0.92679 0.04637 0.03005 0.0
C755 C 0.88666 0.06784 0.03844 0.0
C756 C 0.90151 0.08028 0.06688 0.0
C757 C 0.92982 0.07646 0.07619 0.0
C758 C 0.94245 0.05975 0.05783 0.0
C759 C 0.88732 0.09726 0.08652 0.0
C760 C 0.90315 0.12321 0.0997 0.0
C761 C 0.85772 0.08854 0.09097 0.0
C762 C 0.84032 0.06065 0.08005 0.0
C763 C 0.85095 0.03826 0.08792 0.0
C764 C 0.8347 0.01204 0.07715 0.0
C765 C 0.80769 0.00796 0.05863 0.0
C766 C 0.79683 0.03009 0.05092 0.0
C767 C 0.81299 0.05635 0.06164 0.0
H768 H 0.79515 0.98765 0.05028 0.0
H769 H 0.95458 0.2394 0.1639 0.0
H770 H 0.02422 0.56306 0.44256 0.0
H771 H 0.03441 0.59772 0.40953 0.0
H772 H 0.11769 0.57777 0.40094 0.0
H773 H 0.10821 0.54417 0.43471 0.0
H774 H 0.12488 0.62928 0.40594 0.0
H775 H 0.0502 0.55254 0.34776 0.0
H776 H 0.00098 0.52184 0.33648 0.0
H777 H 0.96136 0.58976 0.3318 0.0
H778 H 0.01034 0.62084 0.34335 0.0
H779 H 0.14418 0.62321 0.25211 0.0
H780 H 0.11217 0.60849 0.28817 0.0
H781 H 0.11822 0.69139 0.32349 0.0
H782 H 0.15071 0.70647 0.28768 0.0
H783 H 0.05863 0.6204 0.30964 0.0
H784 H 0.1395 0.69619 0.38219 0.0
H785 H 0.19083 0.72261 0.38907 0.0
H786 H 0.21932 0.65089 0.36095 0.0
H787 H 0.16809 0.6242 0.35376 0.0
C788 C 0.04483 0.56634 0.43382 0.0
C789 C 0.06545 0.55092 0.44117 0.0
C790 C 0.05054 0.58605 0.41486 0.0
C791 C 0.07667 0.59018 0.40246 0.0
C792 C 0.09744 0.57511 0.41035 0.0
C793 C 0.09199 0.55583 0.42964 0.0
C794 C 0.08258 0.60936 0.38048 0.0
C795 C 0.11002 0.62769 0.3852 0.0
C796 C 0.06318 0.6077 0.35345 0.0
C797 C 0.03384 0.58898 0.34681 0.0
C798 C 0.03096 0.5609 0.34456 0.0
C799 C 0.00312 0.54344 0.33807 0.0
C800 C 0.97805 0.55384 0.33354 0.0
C801 C 0.98078 0.58173 0.33541 0.0
C802 C 0.00856 0.59926 0.34192 0.0
C803 C 0.13807 0.63839 0.26692 0.0
C804 C 0.1505 0.666 0.26747 0.0
C805 C 0.11962 0.62992 0.28742 0.0
C806 C 0.11324 0.64887 0.30868 0.0
C807 C 0.12318 0.6765 0.30738 0.0
C808 C 0.14172 0.68504 0.28688 0.0
C809 C 0.10105 0.63937 0.33501 0.0
C810 C 0.07267 0.62288 0.33106 0.0
C811 C 0.11952 0.64246 0.36273 0.0
C812 C 0.15018 0.65835 0.36742 0.0
C813 C 0.15679 0.68614 0.37756 0.0
C814 C 0.1858 0.70114 0.38144 0.0
C815 C 0.20832 0.68844 0.37545 0.0
C816 C 0.20187 0.66071 0.36557 0.0
C817 C 0.17288 0.64566 0.36156 0.0
H818 H 0.23076 0.70008 0.37848 0.0
H819 H 0.95653 0.5403 0.32849 0.0
H820 H 0.52962 0.89644 0.51067 0.0
H821 H 0.54606 0.86169 0.53731 0.0
H822 H 0.59231 0.92312 0.61014 0.0
H823 H 0.57688 0.95773 0.58328 0.0
H824 H 0.62725 0.89337 0.59235 0.0
H825 H 0.52714 0.87591 0.61443 0.0
H826 H 0.47319 0.86359 0.60119 0.0
H827 H 0.47771 0.78777 0.55379 0.0
H828 H 0.53174 0.79981 0.56646 0.0
H829 H 0.66166 0.83683 0.71805 0.0
H830 H 0.63184 0.85622 0.68256 0.0
H831 H 0.61805 0.7847 0.61828 0.0
H832 H 0.64814 0.76487 0.654 0.0
H833 H 0.56645 0.81192 0.62276 0.0
H834 H 0.66706 0.82846 0.606 0.0
H835 H 0.72065 0.84093 0.62234 0.0
H836 H 0.71461 0.9194 0.66113 0.0
H837 H 0.66091 0.90723 0.64553 0.0
C838 C 0.54285 0.90235 0.53262 0.0
C839 C 0.55214 0.92972 0.54495 0.0
C840 C 0.55221 0.88252 0.54779 0.0
C841 C 0.57047 0.88983 0.5757 0.0
C842 C 0.57846 0.91704 0.58852 0.0
C843 C 0.56957 0.9368 0.57322 0.0
C844 C 0.58323 0.86985 0.59099 0.0
C845 C 0.61386 0.87562 0.59902 0.0
C846 C 0.56592 0.84607 0.59868 0.0
C847 C 0.53348 0.8389 0.59107 0.0
C848 C 0.51664 0.85672 0.60096 0.0
C849 C 0.48605 0.84976 0.59361 0.0
C850 C 0.47204 0.82495 0.57657 0.0
C851 C 0.48859 0.80701 0.56693 0.0
C852 C 0.51919 0.81388 0.5742 0.0
C853 C 0.65203 0.825 0.69654 0.0
C854 C 0.65771 0.79955 0.68855 0.0
C855 C 0.63485 0.83606 0.67638 0.0
C856 C 0.62313 0.82198 0.64779 0.0
C857 C 0.62698 0.79579 0.64032 0.0
C858 C 0.64424 0.78459 0.66065 0.0
C859 C 0.61009 0.83634 0.62507 0.0
C860 C 0.57968 0.82943 0.61551 0.0
C861 C 0.6275 0.85922 0.61594 0.0
C862 C 0.65992 0.86685 0.62474 0.0
C863 C 0.67714 0.84832 0.61818 0.0
C864 C 0.70753 0.85533 0.6273 0.0
C865 C 0.72102 0.88092 0.6428 0.0
C866 C 0.70413 0.89958 0.64913 0.0
C867 C 0.67372 0.89264 0.64012 0.0
H868 H 0.74455 0.8863 0.64987 0.0
H869 H 0.44835 0.8196 0.57091 0.0
H870 H 0.49069 0.42502 0.92286 0.0
H871 H 0.46137 0.37897 0.9063 0.0
H872 H 0.39422 0.39609 0.95676 0.0
H873 H 0.42448 0.44165 0.97467 0.0
H874 H 0.39379 0.34401 0.95409 0.0
H875 H 0.39233 0.40745 0.88439 0.0
H876 H 0.41191 0.44152 0.85312 0.0
H877 H 0.45036 0.3842 0.80582 0.0
H878 H 0.43141 0.34991 0.8372 0.0
H879 H 0.26932 0.28666 0.83637 0.0
H880 H 0.30533 0.30753 0.88078 0.0
H881 H 0.37065 0.27251 0.84365 0.0
H882 H 0.33511 0.25204 0.79916 0.0
H883 H 0.3746 0.32924 0.84303 0.0
H884 H 0.36414 0.26294 0.91084 0.0
H885 H 0.33757 0.23142 0.94092 0.0
H886 H 0.31175 0.29692 0.9894 0.0
H887 H 0.33801 0.32883 0.9595 0.0
C888 C 0.46995 0.41859 0.93082 0.0
C889 C 0.4594 0.43657 0.94954 0.0
C890 C 0.4533 0.39239 0.92152 0.0
C891 C 0.42533 0.38436 0.92976 0.0
C892 C 0.41569 0.40187 0.95011 0.0
C893 C 0.43277 0.42788 0.96007 0.0
C894 C 0.40459 0.35968 0.91364 0.0
C895 C 0.38951 0.34068 0.9298 0.0
C896 C 0.39888 0.35552 0.88197 0.0
C897 C 0.41082 0.37625 0.86343 0.0
C898 C 0.40524 0.40221 0.86755 0.0
C899 C 0.41617 0.42154 0.84977 0.0
C900 C 0.43246 0.41505 0.82756 0.0
C901 C 0.43783 0.38922 0.8231 0.0
C902 C 0.42702 0.36983 0.84088 0.0
C903 C 0.29104 0.28257 0.83825 0.0
C904 C 0.29988 0.26866 0.81399 0.0
C905 C 0.31146 0.29419 0.8638 0.0
C906 C 0.34064 0.29169 0.86527 0.0
C907 C 0.34819 0.27458 0.84287 0.0
C908 C 0.32799 0.26327 0.81728 0.0
C909 C 0.36414 0.31316 0.88329 0.0
C910 C 0.37942 0.33202 0.86733 0.0
C911 C 0.36895 0.31747 0.91492 0.0
C912 C 0.35287 0.29826 0.93272 0.0
C913 C 0.35256 0.2706 0.92771 0.0
C914 C 0.33764 0.25267 0.94482 0.0
C915 C 0.32293 0.26215 0.96701 0.0
C916 C 0.3231 0.28958 0.97215 0.0
C917 C 0.3381 0.30762 0.95521 0.0
H918 H 0.31144 0.24824 0.98027 0.0
H919 H 0.44082 0.43002 0.81375 0.0
H920 H 0.85566 0.75685 0.29964 0.0
H921 H 0.88464 0.78608 0.34415 0.0
H922 H 0.80849 0.81535 0.36214 0.0
H923 H 0.77923 0.78574 0.31796 0.0
H924 H 0.85657 0.85533 0.35361 0.0
H925 H 0.83485 0.78604 0.41266 0.0
H926 H 0.82832 0.74064 0.42796 0.0
H927 H 0.9206 0.74502 0.43134 0.0
H928 H 0.92766 0.79032 0.41554 0.0
H929 H 0.93632 0.94522 0.47945 0.0
H930 H 0.90293 0.9022 0.45828 0.0
H931 H 0.96849 0.88156 0.40799 0.0
H932 H 0.00227 0.92497 0.42909 0.0
H933 H 0.92156 0.83639 0.43973 0.0
H934 H 0.93547 0.90179 0.36501 0.0
H935 H 0.94034 0.94859 0.35388 0.0
H936 H 0.85875 0.95129 0.38525 0.0
H937 H 0.85368 0.90458 0.39692 0.0
C938 C 0.84493 0.76901 0.31352 0.0
C939 C 0.81528 0.76926 0.30524 0.0
C940 C 0.86144 0.78554 0.33902 0.0
C941 C 0.84865 0.80281 0.35636 0.0
C942 C 0.81865 0.80202 0.34908 0.0
C943 C 0.80199 0.78512 0.32387 0.0
C944 C 0.86769 0.82448 0.37879 0.0
C945 C 0.87037 0.85112 0.3727 0.0
C946 C 0.88581 0.81899 0.40358 0.0
C947 C 0.88173 0.79152 0.41255 0.0
C948 C 0.85372 0.77722 0.41627 0.0
C949 C 0.84993 0.75152 0.42514 0.0
C950 C 0.87401 0.73992 0.43053 0.0
C951 C 0.90195 0.75402 0.4271 0.0
C952 C 0.90587 0.77973 0.41821 0.0
C953 C 0.9441 0.93115 0.46474 0.0
C954 C 0.97195 0.93832 0.45599 0.0
C955 C 0.92498 0.90657 0.45274 0.0
C956 C 0.93344 0.88878 0.43186 0.0
C957 C 0.96187 0.89501 0.42447 0.0
C958 C 0.98098 0.91981 0.43628 0.0
C959 C 0.91084 0.86665 0.41365 0.0
C960 C 0.90751 0.84026 0.42065 0.0
C961 C 0.89178 0.87221 0.38981 0.0
C962 C 0.89432 0.89989 0.38201 0.0
C963 C 0.91867 0.91245 0.36964 0.0
C964 C 0.92146 0.93893 0.36324 0.0
C965 C 0.89989 0.95293 0.36891 0.0
C966 C 0.87544 0.94043 0.3809 0.0
C967 C 0.87259 0.91396 0.38739 0.0
H968 H 0.90208 0.97342 0.36394 0.0
H969 H 0.87104 0.72004 0.43744 0.0
H970 H 0.40585 0.51829 0.56424 0.0
H971 H 0.38517 0.55064 0.5929 0.0
H972 H 0.44266 0.61642 0.56268 0.0
H973 H 0.46399 0.58389 0.53415 0.0
H974 H 0.4331 0.62885 0.62203 0.0
H975 H 0.37671 0.59539 0.52631 0.0
H976 H 0.35059 0.56102 0.48391 0.0
H977 H 0.29016 0.5259 0.53988 0.0
H978 H 0.31618 0.55989 0.58269 0.0
H979 H 0.33522 0.71236 0.66523 0.0
H980 H 0.36504 0.6904 0.63442 0.0
H981 H 0.31841 0.61245 0.65077 0.0
H982 H 0.28868 0.63412 0.68119 0.0
H983 H 0.32512 0.61241 0.59275 0.0
H984 H 0.3863 0.6437 0.68995 0.0
H985 H 0.41311 0.67852 0.73166 0.0
H986 H 0.46462 0.71905 0.67141 0.0
H987 H 0.43781 0.68465 0.62925 0.0
C988 C 0.41456 0.53966 0.56416 0.0
C989 C 0.4363 0.54856 0.5467 0.0
C990 C 0.40267 0.55813 0.5805 0.0
C991 C 0.41189 0.5859 0.57937 0.0
C992 C 0.43513 0.59506 0.56373 0.0
C993 C 0.44731 0.57648 0.5475 0.0
C994 C 0.39524 0.60469 0.59233 0.0
C995 C 0.40958 0.62561 0.6153 0.0
C996 C 0.36453 0.60047 0.5835 0.0
C997 C 0.34851 0.58014 0.55773 0.0
C998 C 0.35793 0.58027 0.52958 0.0
C999 C 0.34314 0.56085 0.50548 0.0
C1000 C 0.31875 0.54126 0.50921 0.0
C1001 C 0.30906 0.54109 0.53702 0.0
C1002 C 0.3238 0.56046 0.56121 0.0
C1003 C 0.33116 0.69053 0.66195 0.0
C1004 C 0.30963 0.67493 0.67571 0.0
C1005 C 0.34834 0.67804 0.64453 0.0
C1006 C 0.34417 0.64978 0.64057 0.0
C1007 C 0.32207 0.63426 0.65355 0.0
C1008 C 0.3051 0.64668 0.67098 0.0
C1009 C 0.36274 0.63594 0.62326 0.0
C1010 C 0.34871 0.61595 0.59925 0.0
C1011 C 0.39368 0.64121 0.63104 0.0
C1012 C 0.40981 0.6618 0.6564 0.0
C1013 C 0.40317 0.66017 0.68556 0.0
C1014 C 0.4184 0.6798 0.70929 0.0
C1015 C 0.44049 0.70103 0.70417 0.0
C1016 C 0.44746 0.70263 0.67533 0.0
C1017 C 0.43227 0.68307 0.65151 0.0
H1018 H 0.45226 0.71621 0.72257 0.0
H1019 H 0.30733 0.52622 0.49054 0.0
H1020 H 0.52297 0.05992 0.9355 0.0
H1021 H 0.54142 0.09388 0.90415 0.0
H1022 H 0.53706 0.03082 0.83176 0.0
H1023 H 0.51796 0.99673 0.86261 0.0
H1024 H 0.59738 0.07154 0.86939 0.0
H1025 H 0.50161 0.06108 0.80822 0.0
H1026 H 0.44919 0.0621 0.80109 0.0
H1027 H 0.47117 0.14536 0.84023 0.0
H1028 H 0.52373 0.14469 0.84802 0.0
H1029 H 0.67156 0.13464 0.76703 0.0
H1030 H 0.63055 0.10591 0.78432 0.0
H1031 H 0.61065 0.17609 0.83093 0.0
H1032 H 0.65144 0.20514 0.81304 0.0
H1033 H 0.55969 0.13442 0.80694 0.0
H1034 H 0.65166 0.14758 0.86983 0.0
H1035 H 0.70474 0.15027 0.88166 0.0
H1036 H 0.69095 0.06643 0.84696 0.0
H1037 H 0.63776 0.06335 0.83448 0.0
C1038 C 0.52514 0.05335 0.91259 0.0
C1039 C 0.51952 0.02574 0.90156 0.0
C1040 C 0.53538 0.07275 0.8947 0.0
C1041 C 0.5403 0.06471 0.86572 0.0
C1042 C 0.5329 0.03727 0.85398 0.0
C1043 C 0.52217 0.01787 0.87167 0.0
C1044 C 0.55899 0.08405 0.85059 0.0
C1045 C 0.58911 0.085 0.85533 0.0
C1046 C 0.54813 0.10237 0.83363 0.0
C1047 C 0.51656 0.10271 0.82908 0.0
C1048 C 0.49524 0.07949 0.81568 0.0
C1049 C 0.46551 0.08004 0.81141 0.0
C1050 C 0.45684 0.10375 0.8203 0.0
C1051 C 0.4779 0.12699 0.83341 0.0
C1052 C 0.50767 0.12654 0.83773 0.0
C1053 C 0.65794 0.14402 0.78016 0.0
C1054 C 0.66484 0.17202 0.78889 0.0
C1055 C 0.63455 0.12761 0.79004 0.0
C1056 C 0.61788 0.13894 0.8091 0.0
C1057 C 0.6233 0.16705 0.81616 0.0
C1058 C 0.64673 0.18354 0.80613 0.0
C1059 C 0.59793 0.12113 0.82485 0.0
C1060 C 0.56785 0.12076 0.82075 0.0
C1061 C 0.60882 0.10369 0.84319 0.0
C1062 C 0.64076 0.10531 0.85092 0.0
C1063 C 0.65997 0.12977 0.86448 0.0
C1064 C 0.69008 0.13136 0.87134 0.0
C1065 C 0.70123 0.10856 0.86496 0.0
C1066 C 0.68228 0.08409 0.85182 0.0
C1067 C 0.65214 0.0824 0.84488 0.0
H1068 H 0.72455 0.10982 0.87029 0.0
H1069 H 0.43381 0.10414 0.81694 0.0
H1070 H 0.09787 0.45233 0.07496 0.0
H1071 H 0.11447 0.41655 0.09833 0.0
H1072 H 0.02592 0.38174 0.11081 0.0
H1073 H 0.00871 0.41766 0.08681 0.0
H1074 H 0.07524 0.38623 0.16269 0.0
H1075 H 0.04329 0.34916 0.06039 0.0
H1076 H 0.03757 0.34951 0.00576 0.0
H1077 H 0.131 0.36347 0.00905 0.0
H1078 H 0.13737 0.36375 0.06384 0.0
H1079 H 0.14169 0.277 0.20094 0.0
H1080 H 0.10467 0.29653 0.17352 0.0
H1081 H 0.17357 0.35291 0.14405 0.0
H1082 H 0.21048 0.33415 0.17203 0.0
H1083 H 0.12142 0.32783 0.09871 0.0
H1084 H 0.15265 0.37501 0.20085 0.0
H1085 H 0.15987 0.37614 0.25573 0.0
H1086 H 0.06763 0.34344 0.25246 0.0
H1087 H 0.05998 0.34165 0.1974 0.0
C1088 C 0.08183 0.43729 0.08286 0.0
C1089 C 0.05191 0.43772 0.07886 0.0
C1090 C 0.09139 0.41683 0.09618 0.0
C1091 C 0.07134 0.39648 0.10594 0.0
C1092 C 0.04162 0.39733 0.10326 0.0
C1093 C 0.03188 0.41778 0.08955 0.0
C1094 C 0.08199 0.374 0.11776 0.0
C1095 C 0.08451 0.37281 0.14863 0.0
C1096 C 0.09437 0.35687 0.09931 0.0
C1097 C 0.0908 0.35654 0.06629 0.0
C1098 C 0.06265 0.35251 0.04952 0.0
C1099 C 0.05929 0.35257 0.01851 0.0
C1100 C 0.08389 0.35645 0.00394 0.0
C1101 C 0.11195 0.36039 0.02037 0.0
C1102 C 0.11545 0.36041 0.05141 0.0
C1103 C 0.14878 0.2932 0.18808 0.0
C1104 C 0.1788 0.30423 0.18856 0.0
C1105 C 0.12771 0.30431 0.17256 0.0
C1106 C 0.13653 0.32609 0.15688 0.0
C1107 C 0.16644 0.33601 0.15595 0.0
C1108 C 0.18744 0.3254 0.172 0.0
C1109 C 0.11521 0.34049 0.14367 0.0
C1110 C 0.11104 0.34039 0.11258 0.0
C1111 C 0.1013 0.35638 0.16191 0.0
C1112 C 0.10581 0.3578 0.19499 0.0
C1113 C 0.13396 0.3678 0.2118 0.0
C1114 C 0.13812 0.36861 0.24294 0.0
C1115 C 0.11424 0.35976 0.25757 0.0
C1116 C 0.08612 0.3502 0.24108 0.0
C1117 C 0.08186 0.34927 0.20991 0.0
H1118 H 0.11751 0.36039 0.28168 0.0
H1119 H 0.08119 0.35633 0.97991 0.0
H1120 H 0.59445 0.59704 0.95505 0.0
H1121 H 0.62187 0.62159 0.92045 0.0
H1122 H 0.57518 0.56152 0.84663 0.0
H1123 H 0.54792 0.53657 0.88107 0.0
H1124 H 0.63383 0.5796 0.84183 0.0
H1125 H 0.55136 0.61689 0.85896 0.0
H1126 H 0.51911 0.63535 0.89006 0.0
H1127 H 0.59102 0.70127 0.92994 0.0
H1128 H 0.62382 0.68296 0.89939 0.0
H1129 H 0.67432 0.67149 0.73566 0.0
H1130 H 0.64241 0.64068 0.76223 0.0
H1131 H 0.685 0.68798 0.84664 0.0
H1132 H 0.7169 0.71832 0.8206 0.0
H1133 H 0.62308 0.67391 0.84035 0.0
H1134 H 0.70617 0.63457 0.82717 0.0
H1135 H 0.7393 0.61604 0.79732 0.0
H1136 H 0.66651 0.55416 0.75042 0.0
H1137 H 0.63285 0.57264 0.77968 0.0
C1138 C 0.59031 0.58883 0.93153 0.0
C1139 C 0.56873 0.56512 0.92069 0.0
C1140 C 0.60593 0.60289 0.91181 0.0
C1141 C 0.60003 0.59356 0.88099 0.0
C1142 C 0.57985 0.56905 0.87034 0.0
C1143 C 0.56426 0.55492 0.89005 0.0
C1144 C 0.61347 0.6104 0.85977 0.0
C1145 C 0.63112 0.60006 0.84108 0.0
C1146 C 0.6099 0.63709 0.85902 0.0
C1147 C 0.5901 0.64844 0.87702 0.0
C1148 C 0.56034 0.63524 0.87448 0.0
C1149 C 0.54196 0.64568 0.892 0.0
C1150 C 0.55302 0.66945 0.912 0.0
C1151 C 0.58248 0.68286 0.91445 0.0
C1152 C 0.60097 0.67248 0.897 0.0
C1153 C 0.67664 0.6753 0.75985 0.0
C1154 C 0.69817 0.69706 0.77614 0.0
C1155 C 0.65854 0.65775 0.77492 0.0
C1156 C 0.66159 0.66214 0.8063 0.0
C1157 C 0.6824 0.68435 0.8224 0.0
C1158 C 0.7007 0.70153 0.8075 0.0
C1159 C 0.64393 0.64333 0.82293 0.0
C1160 C 0.62539 0.65329 0.84073 0.0
C1161 C 0.64672 0.61636 0.82284 0.0
C1162 C 0.66693 0.60521 0.8053 0.0
C1163 C 0.69718 0.61719 0.81026 0.0
C1164 C 0.71607 0.60666 0.7935 0.0
C1165 C 0.705 0.58399 0.77191 0.0
C1166 C 0.67504 0.57176 0.7671 0.0
C1167 C 0.65604 0.58226 0.78376 0.0
H1168 H 0.71966 0.57585 0.75897 0.0
H1169 H 0.53876 0.67749 0.92557 0.0
H1170 H 0.6303 0.28829 0.20242 0.0
H1171 H 0.60838 0.31573 0.16981 0.0
H1172 H 0.69314 0.34882 0.14608 0.0
H1173 H 0.71556 0.32159 0.17944 0.0
H1174 H 0.66542 0.38792 0.15822 0.0
H1175 H 0.64077 0.30448 0.09505 0.0
H1176 H 0.623 0.25533 0.08046 0.0
H1177 H 0.537 0.26041 0.09834 0.0
H1178 H 0.55433 0.30954 0.11352 0.0
H1179 H 0.58084 0.44902 0.04883 0.0
H1180 H 0.61314 0.42036 0.06741 0.0
H1181 H 0.55147 0.39004 0.12502 0.0
H1182 H 0.51974 0.41896 0.10737 0.0
H1183 H 0.5739 0.34953 0.08628 0.0
H1184 H 0.60405 0.43247 0.1581 0.0
H1185 H 0.62287 0.48168 0.17129 0.0
H1186 H 0.70056 0.47675 0.13303 0.0
H1187 H 0.68195 0.4275 0.11921 0.0
C1188 C 0.64435 0.30115 0.19008 0.0
C1189 C 0.6747 0.30262 0.19344 0.0
C1190 C 0.6317 0.31678 0.17127 0.0
C1191 C 0.649 0.33403 0.15507 0.0
C1192 C 0.67934 0.33552 0.15823 0.0
C1193 C 0.69209 0.31988 0.1772 0.0
C1194 C 0.63522 0.35129 0.13609 0.0
C1195 C 0.64584 0.37944 0.14195 0.0
C1196 C 0.60961 0.34032 0.11484 0.0
C1197 C 0.59893 0.31074 0.1056 0.0
C1198 C 0.61811 0.29511 0.09608 0.0
C1199 C 0.60811 0.26724 0.08768 0.0
C1200 C 0.57891 0.25475 0.08852 0.0
C1201 C 0.55962 0.27011 0.09771 0.0
C1202 C 0.56952 0.29799 0.10617 0.0
C1203 C 0.57431 0.43626 0.0655 0.0
C1204 C 0.54795 0.43635 0.07687 0.0
C1205 C 0.5927 0.41995 0.07604 0.0
C1206 C 0.58457 0.40313 0.09751 0.0
C1207 C 0.55805 0.40289 0.10842 0.0
C1208 C 0.54007 0.41955 0.09846 0.0
C1209 C 0.60362 0.38589 0.10926 0.0
C1210 C 0.59393 0.35781 0.10201 0.0
C1211 C 0.63025 0.39688 0.12885 0.0
C1212 C 0.64144 0.42641 0.13725 0.0
C1213 C 0.625 0.44193 0.15221 0.0
C1214 C 0.63565 0.46981 0.15987 0.0
C1215 C 0.66284 0.48235 0.1529 0.0
C1216 C 0.67947 0.46702 0.13834 0.0
C1217 C 0.66889 0.43913 0.1306 0.0
H1218 H 0.67106 0.50394 0.15886 0.0
H1219 H 0.57122 0.23316 0.08202 0.0
H1220 H 0.91036 0.49573 0.44103 0.0
H1221 H 0.87405 0.47309 0.39707 0.0
H1222 H 0.93606 0.42891 0.3677 0.0
H1223 H 0.97181 0.4508 0.41152 0.0
H1224 H 0.9022 0.44563 0.32008 0.0
H1225 H 0.89266 0.39992 0.4088 0.0
H1226 H 0.88496 0.3976 0.46122 0.0
H1227 H 0.80239 0.41974 0.44217 0.0
H1228 H 0.80978 0.42238 0.38957 0.0
H1229 H 0.85679 0.30663 0.27443 0.0
H1230 H 0.8764 0.3541 0.29495 0.0
H1231 H 0.78842 0.36652 0.29034 0.0
H1232 H 0.76889 0.31913 0.26881 0.0
H1233 H 0.82248 0.37729 0.34846 0.0
H1234 H 0.8289 0.4031 0.25233 0.0
H1235 H 0.83996 0.40045 0.20066 0.0
H1236 H 0.93169 0.41163 0.2338 0.0
H1237 H 0.92119 0.41392 0.28565 0.0
C1238 C 0.91627 0.48154 0.42481 0.0
C1239 C 0.94358 0.47463 0.42968 0.0
C1240 C 0.89565 0.46876 0.39978 0.0
C1241 C 0.90252 0.44945 0.37923 0.0
C1242 C 0.93049 0.44393 0.3832 0.0
C1243 C 0.95074 0.45621 0.40837 0.0
C1244 C 0.87983 0.43191 0.35599 0.0
C1245 C 0.88443 0.43087 0.32603 0.0
C1246 C 0.85641 0.4131 0.36391 0.0
C1247 C 0.852 0.41182 0.39548 0.0
C1248 C 0.87302 0.40458 0.41589 0.0
C1249 C 0.86869 0.40315 0.4456 0.0
C1250 C 0.8433 0.40871 0.45509 0.0
C1251 C 0.82212 0.41558 0.43482 0.0
C1252 C 0.82636 0.41705 0.40506 0.0
C1253 C 0.84165 0.31961 0.27709 0.0
C1254 C 0.81118 0.30914 0.27076 0.0
C1255 C 0.85287 0.34676 0.28859 0.0
C1256 C 0.83379 0.36374 0.29408 0.0
C1257 C 0.80345 0.35373 0.28615 0.0
C1258 C 0.7923 0.32669 0.27418 0.0
C1259 C 0.84562 0.39019 0.31265 0.0
C1260 C 0.8391 0.39283 0.34193 0.0
C1261 C 0.86765 0.41003 0.30414 0.0
C1262 C 0.87421 0.40863 0.27296 0.0
C1263 C 0.85142 0.4048 0.24862 0.0
C1264 C 0.8576 0.4034 0.21928 0.0
C1265 C 0.88651 0.40587 0.21395 0.0
C1266 C 0.90931 0.40976 0.23796 0.0
C1267 C 0.90326 0.41117 0.26735 0.0
H1268 H 0.89124 0.40478 0.19122 0.0
H1269 H 0.83997 0.40756 0.47811 0.0
H1270 H 0.59078 0.54575 0.48505 0.0
H1271 H 0.62247 0.57388 0.45614 0.0
H1272 H 0.54604 0.57951 0.39612 0.0
H1273 H 0.51465 0.55056 0.42385 0.0
H1274 H 0.58523 0.57048 0.36477 0.0
H1275 H 0.58703 0.63229 0.4542 0.0
H1276 H 0.59632 0.6478 0.50857 0.0
H1277 H 0.68707 0.64545 0.51138 0.0
H1278 H 0.67821 0.62964 0.45706 0.0
H1279 H 0.62968 0.68636 0.297 0.0
H1280 H 0.60829 0.65309 0.32736 0.0
H1281 H 0.69488 0.65124 0.36969 0.0
H1282 H 0.71661 0.68494 0.33944 0.0
H1283 H 0.65756 0.6548 0.41038 0.0
H1284 H 0.65613 0.59901 0.31887 0.0
H1285 H 0.64628 0.58517 0.26421 0.0
H1286 H 0.55392 0.57717 0.26494 0.0
H1287 H 0.56324 0.59136 0.31956 0.0
C1288 C 0.58079 0.5531 0.46575 0.0
C1289 C 0.55018 0.54593 0.4568 0.0
C1290 C 0.59891 0.56927 0.44929 0.0
C1291 C 0.58669 0.57908 0.42401 0.0
C1292 C 0.5561 0.57213 0.41538 0.0
C1293 C 0.53811 0.55565 0.43142 0.0
C1294 C 0.60534 0.59627 0.40603 0.0
C1295 C 0.60086 0.58903 0.37478 0.0
C1296 C 0.62659 0.62 0.41905 0.0
C1297 C 0.63188 0.62948 0.45167 0.0
C1298 C 0.6089 0.63489 0.46647 0.0
C1299 C 0.6141 0.64377 0.49726 0.0
C1300 C 0.64224 0.64752 0.51343 0.0
C1301 C 0.66527 0.64248 0.49883 0.0
C1302 C 0.66018 0.63358 0.46805 0.0
C1303 C 0.64426 0.67883 0.31264 0.0
C1304 C 0.67488 0.68827 0.31573 0.0
C1305 C 0.63197 0.65969 0.32991 0.0
C1306 C 0.64998 0.64941 0.35054 0.0
C1307 C 0.68058 0.65883 0.35381 0.0
C1308 C 0.69295 0.678 0.33645 0.0
C1309 C 0.63655 0.62945 0.36918 0.0
C1310 C 0.64214 0.63609 0.40047 0.0
C1311 C 0.61616 0.60524 0.3562 0.0
C1312 C 0.61043 0.59643 0.32334 0.0
C1313 C 0.63374 0.59448 0.30736 0.0
C1314 C 0.62824 0.58654 0.27638 0.0
C1315 C 0.5995 0.58034 0.2611 0.0
C1316 C 0.57618 0.58199 0.2768 0.0
C1317 C 0.58155 0.58994 0.30779 0.0
H1318 H 0.59529 0.57423 0.23711 0.0
H1319 H 0.64622 0.6544 0.53727 0.0
H1320 H 0.79992 0.32938 0.78173 0.0
H1321 H 0.81802 0.37414 0.81094 0.0
H1322 H 0.75391 0.35399 0.86949 0.0
H1323 H 0.73604 0.30919 0.84039 0.0
H1324 H 0.79898 0.42181 0.84903 0.0
H1325 H 0.79079 0.3421 0.92122 0.0
H1326 H 0.7844 0.29256 0.91742 0.0
H1327 H 0.84312 0.29483 0.85233 0.0
H1328 H 0.84977 0.34432 0.85585 0.0
H1329 H 0.91302 0.4497 -0.00052 0.0
H1330 H 0.86506 0.42775 0.97011 0.0
H1331 H 0.89702 0.45081 0.88955 0.0
H1332 H 0.94474 0.47274 0.91851 0.0
H1333 H 0.85777 0.38566 0.92686 0.0
H1334 H 0.84132 0.45874 0.83907 0.0
H1335 H 0.85044 0.50785 0.83775 0.0
H1336 H 0.84591 0.52125 0.93174 0.0
H1337 H 0.83626 0.47223 0.93357 0.0
C1338 C 0.78882 0.33508 0.79985 0.0
C1339 C 0.76731 0.31583 0.80931 0.0
C1340 C 0.79888 0.36073 0.81635 0.0
C1341 C 0.7874 0.36716 0.84246 0.0
C1342 C 0.76292 0.34933 0.84932 0.0
C1343 C 0.75314 0.3236 0.83302 0.0
C1344 C 0.80689 0.38627 0.8669 0.0
C1345 C 0.81168 0.41418 0.86636 0.0
C1346 C 0.8232 0.37606 0.8894 0.0
C1347 C 0.82084 0.34672 0.88891 0.0
C1348 C 0.80256 0.33199 0.90641 0.0
C1349 C 0.79879 0.30394 0.90418 0.0
C1350 C 0.81336 0.29056 0.88466 0.0
C1351 C 0.83188 0.3052 0.86746 0.0
C1352 C 0.83568 0.33322 0.86959 0.0
C1353 C 0.90974 0.45025 0.97554 0.0
C1354 C 0.93271 0.46272 0.96126 0.0
C1355 C 0.88231 0.43793 0.95889 0.0
C1356 C 0.87742 0.43811 0.92781 0.0
C1357 C 0.90014 0.45102 0.91363 0.0
C1358 C 0.92753 0.46322 0.93018 0.0
C1359 C 0.85023 0.42162 0.90944 0.0
C1360 C 0.8443 0.3938 0.91067 0.0
C1361 C 0.83326 0.43217 0.88762 0.0
C1362 C 0.83817 0.46171 0.88646 0.0
C1363 C 0.842 0.47211 0.85941 0.0
C1364 C 0.84734 0.49997 0.85859 0.0
C1365 C 0.84878 0.51765 0.88465 0.0
C1366 C 0.84484 0.50753 0.91158 0.0
C1367 C 0.83947 0.47971 0.91252 0.0
H1368 H 0.8529 0.53919 0.88397 0.0
H1369 H 0.81029 0.26884 0.88285 0.0
H1370 H 0.82748 0.8424 0.20167 0.0
H1371 H 0.84778 0.87162 0.16665 0.0
H1372 H 0.83003 0.80292 0.09772 0.0
H1373 H 0.81037 0.77346 0.13283 0.0
H1374 H 0.88356 0.831 0.10009 0.0
H1375 H 0.78982 0.8526 0.09579 0.0
H1376 H 0.74797 0.86626 0.11534 0.0
H1377 H 0.80389 0.94258 0.15563 0.0
H1378 H 0.8462 0.92923 0.13672 0.0
H1379 H 0.92546 0.91706 0.98983 0.0
H1380 H 0.89321 0.88577 0.01552 0.0
H1381 H 0.92118 0.94087 0.09776 0.0
H1382 H 0.95377 0.97182 0.07257 0.0
H1383 H 0.85784 0.91784 0.0829 0.0
H1384 H 0.95147 0.89161 0.0978 0.0
H1385 H 0.99467 0.87793 0.08155 0.0
H1386 H 0.93836 0.81143 0.0214 0.0
H1387 H 0.89475 0.8245 0.03783 0.0
C1388 C 0.82764 0.83354 0.17898 0.0
C1389 C 0.8174 0.8056 0.17007 0.0
C1390 C 0.83908 0.85031 0.1589 0.0
C1391 C 0.84011 0.83953 0.1294 0.0
C1392 C 0.82941 0.8117 0.12033 0.0
C1393 C 0.81817 0.79489 0.14045 0.0
C1394 C 0.8542 0.85699 0.10872 0.0
C1395 C 0.87737 0.84964 0.0958 0.0
C1396 C 0.84666 0.88167 0.10358 0.0
C1397 C 0.82125 0.8898 0.11501 0.0
C1398 C 0.79326 0.87221 0.10902 0.0
C1399 C 0.76944 0.87992 0.11996 0.0
C1400 C 0.77328 0.90525 0.13677 0.0
C1401 C 0.80095 0.92295 0.14263 0.0
C1402 C 0.82485 0.91534 0.13177 0.0
C1403 C 0.9245 0.92255 0.01331 0.0
C1404 C 0.9422 0.94677 0.02925 0.0
C1405 C 0.90616 0.90469 0.02792 0.0
C1406 C 0.90491 0.91109 0.05849 0.0
C1407 C 0.92182 0.93565 0.07414 0.0
C1408 C 0.94051 0.95321 0.05975 0.0
C1409 C 0.88705 0.89176 0.0747 0.0
C1410 C 0.86338 0.89884 0.08678 0.0
C1411 C 0.89401 0.86684 0.07913 0.0
C1412 C 0.91996 0.85921 0.06871 0.0
C1413 C 0.94834 0.87421 0.08091 0.0
C1414 C 0.97289 0.86653 0.07173 0.0
C1415 C 0.9693 0.844 0.05018 0.0
C1416 C 0.94111 0.82895 0.03799 0.0
C1417 C 0.91648 0.8364 0.04732 0.0
H1418 H 0.98835 0.83812 0.04308 0.0
H1419 H 0.75481 0.91118 0.14521 0.0
H1420 H 0.81611 0.19058 0.80364 0.0
H1421 H 0.84587 0.15907 0.81854 0.0
H1422 H 0.78481 0.12934 0.87712 0.0
H1423 H 0.75556 0.16134 0.86307 0.0
H1424 H 0.83849 0.13702 0.90467 0.0
H1425 H 0.78745 0.09307 0.80805 0.0
H1426 H 0.77074 0.08952 0.75379 0.0
H1427 H 0.86021 0.10551 0.73786 0.0
H1428 H 0.87748 0.10954 0.79208 0.0
H1429 H 0.89369 0.02212 0.93259 0.0
H1430 H 0.85979 0.04791 0.91146 0.0
H1431 H 0.92697 0.08933 0.86572 0.0
H1432 H 0.96117 0.06397 0.88717 0.0
H1433 H 0.86917 0.07406 0.83099 0.0
H1434 H 0.92002 0.11977 0.92695 0.0
H1435 H 0.93747 0.12587 0.98126 0.0
H1436 H 0.84842 0.10762 -0.00168 0.0
H1437 H 0.83041 0.10083 0.944 0.0
C1438 C 0.80904 0.17732 0.81969 0.0
C1439 C 0.78349 0.17846 0.83219 0.0
C1440 C 0.82596 0.15918 0.82804 0.0
C1441 C 0.81735 0.14152 0.84863 0.0
C1442 C 0.79189 0.14272 0.86118 0.0
C1443 C 0.77517 0.16104 0.85311 0.0
C1444 C 0.83532 0.12236 0.85785 0.0
C1445 C 0.8447 0.1229 0.88855 0.0
C1446 C 0.84411 0.10441 0.8368 0.0
C1447 C 0.83376 0.10184 0.80416 0.0
C1448 C 0.80357 0.09601 0.793 0.0
C1449 C 0.79399 0.09389 0.76225 0.0
C1450 C 0.8144 0.09734 0.7424 0.0
C1451 C 0.84443 0.10286 0.75326 0.0
C1452 C 0.85412 0.10504 0.78399 0.0
C1453 C 0.90101 0.03623 0.91744 0.0
C1454 C 0.93007 0.04108 0.9115 0.0
C1455 C 0.8817 0.05106 0.90558 0.0
C1456 C 0.89103 0.07065 0.88729 0.0
C1457 C 0.91942 0.0743 0.87981 0.0
C1458 C 0.93889 0.05982 0.89207 0.0
C1459 C 0.87197 0.08867 0.87768 0.0
C1460 C 0.86256 0.08797 0.84701 0.0
C1461 C 0.8631 0.10647 0.89874 0.0
C1462 C 0.87387 0.10945 0.93135 0.0
C1463 C 0.90415 0.11662 0.94223 0.0
C1464 C 0.91415 0.1203 0.97302 0.0
C1465 C 0.89407 0.11717 0.99321 0.0
C1466 C 0.86394 0.11006 0.98264 0.0
C1467 C 0.85383 0.10625 0.95185 0.0
H1468 H 0.90187 0.12036 0.01705 0.0
H1469 H 0.80695 0.09569 0.7186 0.0
H1470 H 0.68536 0.20691 0.72731 0.0
H1471 H 0.64838 0.17145 0.69456 0.0
H1472 H 0.70223 0.17866 0.62446 0.0
H1473 H 0.73949 0.21394 0.65751 0.0
H1474 H 0.6468 0.17969 0.60427 0.0
H1475 H 0.69509 0.12532 0.66436 0.0
H1476 H 0.71324 0.10631 0.70875 0.0
H1477 H 0.62557 0.08424 0.72906 0.0
H1478 H 0.60699 0.10384 0.68536 0.0
H1479 H 0.58268 0.05766 0.50689 0.0
H1480 H 0.61223 0.09769 0.53962 0.0
H1481 H 0.5532 0.0846 0.6046 0.0
H1482 H 0.52428 0.04403 0.57259 0.0
H1483 H 0.60785 0.08799 0.62869 0.0
H1484 H 0.55891 0.13981 0.56736 0.0
H1485 H 0.53994 0.15438 0.52024 0.0
H1486 H 0.62775 0.17885 0.50097 0.0
H1487 H 0.64725 0.16404 0.54776 0.0
C1488 C 0.68969 0.20023 0.70529 0.0
C1489 C 0.71552 0.21252 0.69516 0.0
C1490 C 0.66846 0.18021 0.6865 0.0
C1491 C 0.67276 0.17225 0.65722 0.0
C1492 C 0.69859 0.18452 0.64704 0.0
C1493 C 0.71981 0.20457 0.66587 0.0
C1494 C 0.64968 0.15211 0.63668 0.0
C1495 C 0.63846 0.15952 0.60944 0.0
C1496 C 0.63811 0.12619 0.64404 0.0
C1497 C 0.64969 0.11636 0.67171 0.0
C1498 C 0.67975 0.1169 0.6786 0.0
C1499 C 0.6901 0.10589 0.70358 0.0
C1500 C 0.67056 0.09397 0.72163 0.0
C1501 C 0.64068 0.0934 0.71502 0.0
C1502 C 0.63026 0.10458 0.69024 0.0
C1503 C 0.57572 0.06361 0.52791 0.0
C1504 C 0.55122 0.04773 0.53723 0.0
C1505 C 0.59247 0.0866 0.54647 0.0
C1506 C 0.58477 0.09415 0.57444 0.0
C1507 C 0.55943 0.07911 0.58305 0.0
C1508 C 0.54286 0.05602 0.56465 0.0
C1509 C 0.60517 0.11546 0.59622 0.0
C1510 C 0.61589 0.10829 0.62371 0.0
C1511 C 0.61618 0.14155 0.58913 0.0
C1512 C 0.60453 0.15062 0.56101 0.0
C1513 C 0.57418 0.1481 0.55298 0.0
C1514 C 0.56332 0.15644 0.52634 0.0
C1515 C 0.58262 0.16749 0.5076 0.0
C1516 C 0.61282 0.17028 0.5155 0.0
C1517 C 0.62379 0.16195 0.5421 0.0
H1518 H 0.57417 0.17394 0.48698 0.0
H1519 H 0.67859 0.08532 0.74086 0.0
H1520 H 0.52429 0.88383 0.41574 0.0
H1521 H 0.55887 0.86395 0.39059 0.0
H1522 H 0.605 0.94299 0.37721 0.0
H1523 H 0.57066 0.96336 0.40289 0.0
H1524 H 0.59383 0.88793 0.32667 0.0
H1525 H 0.6378 0.93302 0.42902 0.0
H1526 H 0.63273 0.94298 0.48219 0.0
H1527 H 0.61161 0.85815 0.48885 0.0
H1528 H 0.61612 0.84772 0.43556 0.0
H1529 H 0.71603 0.83275 0.30044 0.0
H1530 H 0.68771 0.86532 0.31602 0.0
H1531 H 0.65549 0.8153 0.381 0.0
H1532 H 0.68489 0.78376 0.36675 0.0
H1533 H 0.66365 0.86327 0.40432 0.0
H1534 H 0.61596 0.8153 0.30762 0.0
H1535 H 0.6119 0.79923 0.25378 0.0
H1536 H 0.63139 0.88116 0.23516 0.0
H1537 H 0.63591 0.8977 0.28898 0.0
C1538 C 0.5413 0.89703 0.40684 0.0
C1539 C 0.54508 0.92523 0.41181 0.0
C1540 C 0.56096 0.88558 0.39237 0.0
C1541 C 0.58448 0.90209 0.38239 0.0
C1542 C 0.58686 0.93002 0.3848 0.0
C1543 C 0.56729 0.94158 0.39955 0.0
C1544 C 0.60864 0.89033 0.37381 0.0
C1545 C 0.60965 0.88304 0.34347 0.0
C1546 C 0.62842 0.88329 0.39593 0.0
C1547 C 0.62713 0.88961 0.4283 0.0
C1548 C 0.63197 0.91651 0.44181 0.0
C1549 C 0.62919 0.92223 0.47196 0.0
C1550 C 0.62179 0.90121 0.48888 0.0
C1551 C 0.61734 0.87442 0.47572 0.0
C1552 C 0.62005 0.86859 0.44557 0.0
C1553 C 0.70324 0.82902 0.31838 0.0
C1554 C 0.70258 0.80571 0.33233 0.0
C1555 C 0.68688 0.8475 0.3271 0.0
C1556 C 0.66891 0.84253 0.34927 0.0
C1557 C 0.66915 0.8197 0.36388 0.0
C1558 C 0.68599 0.80161 0.35568 0.0
C1559 C 0.649 0.86031 0.35683 0.0
C1560 C 0.64857 0.86868 0.3872 0.0
C1561 C 0.62922 0.86763 0.33464 0.0
C1562 C 0.62667 0.85773 0.30233 0.0
C1563 C 0.61962 0.82987 0.29206 0.0
C1564 C 0.61719 0.82068 0.26155 0.0
C1565 C 0.62149 0.83916 0.24107 0.0
C1566 C 0.62815 0.86687 0.25106 0.0
C1567 C 0.63064 0.87616 0.28155 0.0
H1568 H 0.61958 0.83201 0.21746 0.0
H1569 H 0.61952 0.90567 0.51218 0.0
H1570 H 0.80865 0.15879 0.30403 0.0
H1571 H 0.82901 0.12867 0.33411 0.0
H1572 H 0.87829 0.197 0.39746 0.0
H1573 H 0.85856 0.22753 0.3668 0.0
H1574 H 0.91268 0.16572 0.38306 0.0
H1575 H 0.8189 0.15006 0.41505 0.0
H1576 H 0.76487 0.13969 0.40986 0.0
H1577 H 0.76022 0.06207 0.36075 0.0
H1578 H 0.81422 0.0721 0.36529 0.0
H1579 H 0.9685 0.07829 0.47341 0.0
H1580 H 0.93909 0.11026 0.45924 0.0
H1581 H 0.892 0.05295 0.38321 0.0
H1582 H 0.92117 0.02079 0.39726 0.0
H1583 H 0.85591 0.08109 0.41101 0.0
H1584 H 0.9492 0.09984 0.37402 0.0
H1585 H 0.00331 0.10999 0.37974 0.0
H1586 H 0.0083 0.18227 0.43941 0.0
H1587 H 0.95421 0.17235 0.43436 0.0
C1588 C 0.8235 0.16748 0.32457 0.0
C1589 C 0.83209 0.19563 0.33293 0.0
C1590 C 0.835 0.15015 0.34191 0.0
C1591 C 0.85496 0.16049 0.36828 0.0
C1592 C 0.86287 0.18854 0.37722 0.0
C1593 C 0.85153 0.20597 0.35972 0.0
C1594 C 0.86938 0.14212 0.38491 0.0
C1595 C 0.9002 0.14756 0.38981 0.0
C1596 C 0.85317 0.11807 0.39316 0.0
C1597 C 0.82065 0.11193 0.39035 0.0
C1598 C 0.80636 0.13086 0.40295 0.0
C1599 C 0.77574 0.12502 0.40016 0.0
C1600 C 0.75913 0.10025 0.38494 0.0
C1601 C 0.77312 0.08125 0.37253 0.0
C1602 C 0.80374 0.08699 0.37525 0.0
C1603 C 0.95153 0.07227 0.45397 0.0
C1604 C 0.94737 0.04711 0.43623 0.0
C1605 C 0.93481 0.0906 0.44589 0.0
C1606 C 0.91369 0.08408 0.41996 0.0
C1607 C 0.90826 0.05838 0.40326 0.0
C1608 C 0.92504 0.04007 0.41125 0.0
C1609 C 0.89896 0.10471 0.40877 0.0
C1610 C 0.86822 0.09957 0.40475 0.0
C1611 C 0.91518 0.12908 0.40136 0.0
C1612 C 0.94768 0.13521 0.40407 0.0
C1613 C 0.96185 0.1178 0.38852 0.0
C1614 C 0.9925 0.12352 0.39161 0.0
C1615 C 0.00921 0.14674 0.40997 0.0
C1616 C 0.99531 0.16429 0.42522 0.0
C1617 C 0.96467 0.15864 0.42224 0.0
H1618 H 0.03292 0.15119 0.41232 0.0
H1619 H 0.73542 0.09578 0.38281 0.0
H1620 H 0.66727 0.19143 0.25389 0.0
H1621 H 0.6363 0.14865 0.2283 0.0
H1622 H 0.71052 0.12957 0.19135 0.0
H1623 H 0.74186 0.17177 0.21808 0.0
H1624 H 0.62915 0.14768 0.17056 0.0
H1625 H 0.6952 0.06403 0.16017 0.0
H1626 H 0.72834 0.0442 0.19281 0.0
H1627 H 0.69006 0.06863 0.26897 0.0
H1628 H 0.65641 0.0883 0.23676 0.0
H1629 H 0.58652 0.07422 0.0283 0.0
H1630 H 0.61812 0.09886 0.07408 0.0
H1631 H 0.5843 0.03427 0.12317 0.0
H1632 H 0.5543 0.00886 0.07699 0.0
H1633 H 0.63921 0.05396 0.14416 0.0
H1634 H 0.55598 0.09332 0.11689 0.0
H1635 H 0.5251 0.11521 0.08405 0.0
H1636 H 0.59821 0.18174 0.08583 0.0
H1637 H 0.62995 0.15994 0.11755 0.0
C1638 C 0.67718 0.17763 0.24119 0.0
C1639 C 0.70664 0.18518 0.23702 0.0
C1640 C 0.65954 0.15313 0.22677 0.0
C1641 C 0.67099 0.13617 0.20754 0.0
C1642 C 0.70123 0.14225 0.20621 0.0
C1643 C 0.71907 0.16655 0.2212 0.0
C1644 C 0.65077 0.1167 0.1837 0.0
C1645 C 0.63104 0.12702 0.16506 0.0
C1646 C 0.65346 0.0899 0.17649 0.0
C1647 C 0.67336 0.07779 0.19602 0.0
C1648 C 0.69371 0.06504 0.18385 0.0
C1649 C 0.71263 0.05386 0.20229 0.0
C1650 C 0.71135 0.0552 0.23295 0.0
C1651 C 0.6911 0.06768 0.24523 0.0
C1652 C 0.67213 0.0789 0.22689 0.0
C1653 C 0.58635 0.06519 0.04881 0.0
C1654 C 0.56807 0.03984 0.04936 0.0
C1655 C 0.60418 0.07927 0.07493 0.0
C1656 C 0.60286 0.06874 0.10221 0.0
C1657 C 0.58554 0.04283 0.10243 0.0
C1658 C 0.56843 0.02837 0.0761 0.0
C1659 C 0.61822 0.08528 0.1307 0.0
C1660 C 0.63698 0.07444 0.15005 0.0
C1661 C 0.61482 0.11184 0.13863 0.0
C1662 C 0.59543 0.12485 0.11952 0.0
C1663 C 0.56556 0.11251 0.11013 0.0
C1664 C 0.54789 0.12489 0.09169 0.0
C1665 C 0.55962 0.14982 0.083 0.0
C1666 C 0.58913 0.16242 0.09257 0.0
C1667 C 0.607 0.15002 0.11068 0.0
H1668 H 0.54583 0.15935 0.06882 0.0
H1669 H 0.72602 0.04655 0.24719 0.0
H1670 H 0.63027 0.75356 0.8039 0.0
H1671 H 0.60793 0.78239 0.83555 0.0
H1672 H 0.68443 0.84759 0.84286 0.0
H1673 H 0.70717 0.8187 0.81132 0.0
H1674 H 0.66213 0.84596 0.89583 0.0
H1675 H 0.62643 0.8468 0.7932 0.0
H1676 H 0.60508 0.82702 0.74119 0.0
H1677 H 0.52603 0.78777 0.77099 0.0
H1678 H 0.5471 0.80699 0.82328 0.0
H1679 H 0.58698 0.94793 0.94078 0.0
H1680 H 0.6158 0.92073 0.91545 0.0
H1681 H 0.54162 0.85237 0.89935 0.0
H1682 H 0.51246 0.87963 0.92399 0.0
H1683 H 0.56531 0.85804 0.85013 0.0
H1684 H 0.60362 0.85824 0.95439 0.0
H1685 H 0.62672 0.87961 0.00548 0.0
H1686 H 0.70262 0.9198 0.97115 0.0
H1687 H 0.67981 0.89891 0.91981 0.0
C1688 C 0.64259 0.7739 0.81257 0.0
C1689 C 0.67039 0.7839 0.8048 0.0
C1690 C 0.62972 0.7904 0.8306 0.0
C1691 C 0.64425 0.81733 0.84108 0.0
C1692 C 0.67276 0.82692 0.8349 0.0
C1693 C 0.68573 0.81036 0.81688 0.0
C1694 C 0.62881 0.83575 0.85682 0.0
C1695 C 0.64112 0.84887 0.88575 0.0
C1696 C 0.60137 0.83952 0.84368 0.0
C1697 C 0.58845 0.82815 0.81221 0.0
C1698 C 0.60457 0.8338 0.7887 0.0
C1699 C 0.59252 0.82271 0.75916 0.0
C1700 C 0.56424 0.8061 0.7528 0.0
C1701 C 0.54794 0.80062 0.77596 0.0
C1702 C 0.55992 0.81162 0.80556 0.0
C1703 C 0.57684 0.92705 0.93204 0.0
C1704 C 0.54737 0.91596 0.93447 0.0
C1705 C 0.59342 0.91147 0.91765 0.0
C1706 C 0.58104 0.88435 0.90573 0.0
C1707 C 0.5517 0.87322 0.90835 0.0
C1708 C 0.53505 0.88883 0.92253 0.0
C1709 C 0.59817 0.86776 0.8896 0.0
C1710 C 0.58627 0.85511 0.86035 0.0
C1711 C 0.62614 0.86477 0.90235 0.0
C1712 C 0.63989 0.87721 0.93324 0.0
C1713 C 0.62515 0.87178 0.95772 0.0
C1714 C 0.63821 0.88378 0.98672 0.0
C1715 C 0.66609 0.9011 0.99155 0.0
C1716 C 0.68101 0.9064 0.96738 0.0
C1717 C 0.66804 0.89447 0.93833 0.0
H1718 H 0.67615 0.91037 0.01402 0.0
H1719 H 0.55495 0.79753 0.72992 0.0
H1720 H 0.90061 0.94455 0.55496 0.0
H1721 H 0.8674 0.92151 0.58625 0.0
H1722 H 0.92034 0.86273 0.59543 0.0
H1723 H 0.95231 0.88467 0.56278 0.0
H1724 H 0.86762 0.83834 0.59292 0.0
H1725 H 0.92712 0.92016 0.64958 0.0
H1726 H 0.94861 0.96912 0.66086 0.0
H1727 H 0.86255 0.98428 0.66119 0.0
H1728 H 0.84051 0.93539 0.64951 0.0
H1729 H 0.83783 0.80034 0.73287 0.0
H1730 H 0.86459 0.82732 0.69961 0.0
H1731 H 0.78641 0.8531 0.66751 0.0
H1732 H 0.75908 0.82556 0.7001 0.0
H1733 H 0.84845 0.89432 0.68105 0.0
H1734 H 0.79161 0.80752 0.62588 0.0
H1735 H 0.77599 0.75786 0.62019 0.0
H1736 H 0.8657 0.75183 0.62359 0.0
H1737 H 0.88191 0.80152 0.62984 0.0
C1738 C 0.90477 0.92646 0.56333 0.0
C1739 C 0.92902 0.91643 0.5567 0.0
C1740 C 0.88597 0.91342 0.58134 0.0
C1741 C 0.89181 0.89079 0.59384 0.0
C1742 C 0.91538 0.88017 0.58612 0.0
C1743 C 0.93367 0.89275 0.56748 0.0
C1744 C 0.87433 0.87879 0.616 0.0
C1745 C 0.86361 0.85066 0.61221 0.0
C1746 C 0.86899 0.89477 0.64127 0.0
C1747 C 0.88216 0.92416 0.64834 0.0
C1748 C 0.91277 0.93395 0.65185 0.0
C1749 C 0.92505 0.96168 0.65834 0.0
C1750 C 0.90695 0.97981 0.66165 0.0
C1751 C 0.87653 0.97022 0.65855 0.0
C1752 C 0.86414 0.94251 0.65202 0.0
C1753 C 0.82642 0.81214 0.71922 0.0
C1754 C 0.79624 0.81049 0.71871 0.0
C1755 C 0.84175 0.8275 0.70026 0.0
C1756 C 0.82724 0.84179 0.68105 0.0
C1757 C 0.7978 0.84204 0.68223 0.0
C1758 C 0.78228 0.82629 0.70079 0.0
C1759 C 0.84211 0.85422 0.65776 0.0
C1760 C 0.85231 0.88228 0.66147 0.0
C1761 C 0.84779 0.83815 0.63295 0.0
C1762 C 0.83798 0.80825 0.6286 0.0
C1763 C 0.80803 0.79562 0.62567 0.0
C1764 C 0.79907 0.76746 0.6223 0.0
C1765 C 0.81984 0.75169 0.62156 0.0
C1766 C 0.84963 0.76406 0.62415 0.0
C1767 C 0.85871 0.79222 0.6276 0.0
H1768 H 0.81286 0.72989 0.61895 0.0
H1769 H 0.91649 0.00127 0.66668 0.0
H1770 H 0.21479 0.85661 0.82329 0.0
H1771 H 0.18705 0.88071 0.85387 0.0
H1772 H 0.12414 0.80618 0.85483 0.0
H1773 H 0.15184 0.78179 0.82395 0.0
H1774 H 0.09709 0.84717 0.84268 0.0
H1775 H 0.17057 0.83355 0.91724 0.0
H1776 H 0.22029 0.83343 0.94157 0.0
H1777 H 0.24616 0.91947 0.94454 0.0
H1778 H 0.19661 0.92009 0.9199 0.0
H1779 H 0.0305 0.91442 0.95489 0.0
H1780 H 0.05205 0.88286 0.92526 0.0
H1781 H 0.12577 0.94786 0.92048 0.0
H1782 H 0.10482 0.97906 0.95039 0.0
H1783 H 0.14461 0.90637 0.93732 0.0
H1784 H 0.07031 0.91863 0.85923 0.0
H1785 H 0.01974 0.91748 0.8362 0.0
H1786 H 0.99462 0.8325 0.84109 0.0
H1787 H 0.04498 0.83322 0.86449 0.0
C1788 C 0.19518 0.84524 0.83016 0.0
C1789 C 0.18558 0.81724 0.82122 0.0
C1790 C 0.17936 0.85907 0.84773 0.0
C1791 C 0.15358 0.84525 0.85681 0.0
C1792 C 0.14397 0.81725 0.84809 0.0
C1793 C 0.15994 0.80333 0.83062 0.0
C1794 C 0.1366 0.86037 0.87495 0.0
C1795 C 0.1073 0.85979 0.86364 0.0
C1796 C 0.14995 0.87703 0.90213 0.0
C1797 C 0.17992 0.87682 0.91655 0.0
C1798 C 0.18693 0.85242 0.92283 0.0
C1799 C 0.21505 0.85227 0.93673 0.0
C1800 C 0.23632 0.87642 0.9446 0.0
C1801 C 0.22961 0.90078 0.93846 0.0
C1802 C 0.20149 0.90105 0.92457 0.0
C1803 C 0.05103 0.92199 0.94702 0.0
C1804 C 0.066 0.94919 0.95504 0.0
C1805 C 0.06336 0.90395 0.93011 0.0
C1806 C 0.09061 0.91294 0.9206 0.0
C1807 C 0.10489 0.94034 0.92771 0.0
C1808 C 0.09279 0.9582 0.94475 0.0
C1809 C 0.10534 0.89395 0.9046 0.0
C1810 C 0.13427 0.89368 0.91643 0.0
C1811 C 0.09155 0.87647 0.87801 0.0
C1812 C 0.06132 0.87605 0.86391 0.0
C1813 C 0.05394 0.89975 0.85561 0.0
C1814 C 0.02533 0.89916 0.84245 0.0
C1815 C 0.00396 0.87495 0.83727 0.0
C1816 C 0.01118 0.85125 0.84516 0.0
C1817 C 0.03976 0.85173 0.85835 0.0
H1818 H 0.98182 0.87454 0.82708 0.0
H1819 H 0.25793 0.8762 0.95563 0.0
H1820 H 0.91689 0.41718 0.51054 0.0
H1821 H 0.90736 0.38033 0.54071 0.0
H1822 H 0.96967 0.42868 0.61443 0.0
H1823 H 0.98031 0.46504 0.58384 0.0
H1824 H 0.96915 0.37619 0.61547 0.0
H1825 H 0.89749 0.43095 0.60817 0.0
H1826 H 0.86255 0.45266 0.58045 0.0
H1827 H 0.81202 0.37496 0.53748 0.0
H1828 H 0.84688 0.35281 0.56478 0.0
H1829 H 0.88037 0.35947 0.73611 0.0
H1830 H 0.91294 0.37341 0.69997 0.0
H1831 H 0.87407 0.29898 0.64153 0.0
H1832 H 0.84215 0.28443 0.6779 0.0
H1833 H 0.86406 0.35646 0.62797 0.0
H1834 H 0.9336 0.30247 0.64682 0.0
H1835 H 0.96967 0.28403 0.67734 0.0
H1836 H 0.02464 0.36367 0.70336 0.0
H1837 H 0.98865 0.38269 0.6733 0.0
C1838 C 0.92889 0.41972 0.53299 0.0
C1839 C 0.94883 0.44409 0.54511 0.0
C1840 C 0.92356 0.39865 0.55015 0.0
C1841 C 0.93736 0.40201 0.58002 0.0
C1842 C 0.95877 0.42566 0.59145 0.0
C1843 C 0.9646 0.44651 0.57405 0.0
C1844 C 0.92638 0.38295 0.60057 0.0
C1845 C 0.94619 0.37179 0.61823 0.0
C1846 C 0.89637 0.37712 0.60401 0.0
C1847 C 0.87489 0.39027 0.58826 0.0
C1848 C 0.87895 0.41852 0.59275 0.0
C1849 C 0.85919 0.43089 0.57711 0.0
C1850 C 0.83512 0.4152 0.55715 0.0
C1851 C 0.83069 0.38708 0.55292 0.0
C1852 C 0.85042 0.3746 0.56849 0.0
C1853 C 0.8797 0.34556 0.71618 0.0
C1854 C 0.85844 0.3211 0.70957 0.0
C1855 C 0.89843 0.35346 0.69567 0.0
C1856 C 0.8958 0.33717 0.6682 0.0
C1857 C 0.87659 0.31161 0.66282 0.0
C1858 C 0.85831 0.30342 0.68362 0.0
C1859 C 0.90677 0.34976 0.64294 0.0
C1860 C 0.88689 0.36014 0.62464 0.0
C1861 C 0.9367 0.35525 0.63956 0.0
C1862 C 0.95825 0.34404 0.65803 0.0
C1863 C 0.95318 0.31612 0.65935 0.0
C1864 C 0.97367 0.30554 0.67647 0.0
C1865 C -0.0006 0.32268 0.69231 0.0
C1866 C 0.00468 0.35043 0.69108 0.0
C1867 C 0.98426 0.36112 0.67396 0.0
H1868 H 0.01528 0.31442 0.70541 0.0
H1869 H 0.81989 0.42481 0.54499 0.0
H1870 H 0.39939 0.06874 0.48271 0.0
H1871 H 0.38689 0.09959 0.44856 0.0
H1872 H 0.46701 0.10041 0.41198 0.0
H1873 H 0.48008 0.06963 0.44683 0.0
H1874 H 0.45083 0.15259 0.42037 0.0
H1875 H 0.40987 0.06178 0.37238 0.0
H1876 H 0.38381 0.01436 0.37111 0.0
H1877 H 0.30669 0.04003 0.39131 0.0
H1878 H 0.3324 0.08763 0.39305 0.0
H1879 H 0.37857 0.21273 0.30254 0.0
H1880 H 0.40856 0.18745 0.33127 0.0
H1881 H 0.3339 0.15429 0.37285 0.0
H1882 H 0.30381 0.17807 0.34291 0.0
H1883 H 0.35594 0.11591 0.35319 0.0
H1884 H 0.39833 0.20599 0.40905 0.0
H1885 H 0.42438 0.25383 0.41384 0.0
H1886 H 0.49798 0.23036 0.38098 0.0
H1887 H 0.47221 0.18238 0.37572 0.0
C1888 C 0.41445 0.07555 0.46754 0.0
C1889 C 0.44042 0.06644 0.46704 0.0
C1890 C 0.40733 0.09322 0.44814 0.0
C1891 C 0.42581 0.10183 0.42751 0.0
C1892 C 0.45248 0.09384 0.42774 0.0
C1893 C 0.45979 0.07621 0.44749 0.0
C1894 C 0.41566 0.1176 0.40461 0.0
C1895 C 0.4304 0.14455 0.40518 0.0
C1896 C 0.389 0.10696 0.38497 0.0
C1897 C 0.3731 0.07828 0.38286 0.0
C1898 C 0.38737 0.05731 0.37659 0.0
C1899 C 0.37267 0.0304 0.37581 0.0
C1900 C 0.34362 0.02419 0.38114 0.0
C1901 C 0.32918 0.04487 0.38714 0.0
C1902 C 0.34378 0.07182 0.38795 0.0
C1903 C 0.36892 0.20035 0.31827 0.0
C1904 C 0.33906 0.1972 0.32072 0.0
C1905 C 0.386 0.18596 0.33466 0.0
C1906 C 0.37351 0.16894 0.35427 0.0
C1907 C 0.34397 0.16703 0.35765 0.0
C1908 C 0.32683 0.18072 0.34073 0.0
C1909 C 0.39006 0.15162 0.37015 0.0
C1910 C 0.37664 0.12407 0.36793 0.0
C1911 C 0.41777 0.16185 0.38833 0.0
C1912 C 0.43323 0.19066 0.39168 0.0
C1913 C 0.41999 0.21106 0.40267 0.0
C1914 C 0.43472 0.23819 0.4055 0.0
C1915 C 0.46278 0.24514 0.39763 0.0
C1916 C 0.47622 0.22496 0.38701 0.0
C1917 C 0.46158 0.1978 0.38413 0.0
H1918 H 0.47414 0.26615 0.39983 0.0
H1919 H 0.3323 0.00334 0.38061 0.0
H1920 H 0.56925 0.53701 0.05074 0.0
H1921 H 0.60372 0.57854 0.07528 0.0
H1922 H 0.53995 0.62459 0.05002 0.0
H1923 H 0.50525 0.58258 0.0249 0.0
H1924 H 0.59979 0.64959 0.044 0.0
H1925 H 0.54526 0.61145 0.11729 0.0
H1926 H 0.52324 0.576 0.14577 0.0
H1927 H 0.60872 0.56405 0.17701 0.0
H1928 H 0.63123 0.59909 0.14828 0.0
H1929 H 0.66801 0.74375 0.18748 0.0
H1930 H 0.63399 0.71785 0.14375 0.0
H1931 H 0.69642 0.66974 0.12705 0.0
H1932 H 0.73047 0.69562 0.17052 0.0
H1933 H 0.63319 0.65069 0.15228 0.0
H1934 H 0.68699 0.6866 0.07528 0.0
H1935 H 0.70874 0.72268 0.04747 0.0
H1936 H 0.6242 0.74009 0.02465 0.0
H1937 H 0.60203 0.70441 0.05286 0.0
C1938 C 0.56272 0.55605 0.05038 0.0
C1939 C 0.53473 0.55689 0.03652 0.0
C1940 C 0.58234 0.57967 0.06425 0.0
C1941 C 0.57417 0.60448 0.0647 0.0
C1942 C 0.54651 0.60554 0.04989 0.0
C1943 C 0.52675 0.58171 0.03585 0.0
C1944 C 0.59423 0.62869 0.08242 0.0
C1945 C 0.6068 0.65013 0.06778 0.0
C1946 C 0.60344 0.62913 0.11335 0.0
C1947 C 0.58991 0.60778 0.1304 0.0
C1948 C 0.55934 0.60108 0.12998 0.0
C1949 C 0.54678 0.58108 0.14622 0.0
C1950 C 0.56456 0.56775 0.16315 0.0
C1951 C 0.59497 0.57437 0.16386 0.0
C1952 C 0.60764 0.59431 0.14761 0.0
C1953 C 0.67489 0.72836 0.1737 0.0
C1954 C 0.70182 0.7216 0.18218 0.0
C1955 C 0.65562 0.71383 0.14861 0.0
C1956 C 0.66299 0.69227 0.13201 0.0
C1957 C 0.69077 0.68685 0.13915 0.0
C1958 C 0.7102 0.70161 0.16397 0.0
C1959 C 0.6394 0.67112 0.11376 0.0
C1960 C 0.626 0.6503 0.12853 0.0
C1961 C 0.62955 0.67143 0.08317 0.0
C1962 C 0.64296 0.69318 0.06669 0.0
C1963 C 0.67312 0.69843 0.06482 0.0
C1964 C 0.68551 0.71873 0.04884 0.0
C1965 C 0.6679 0.73377 0.03444 0.0
C1966 C 0.63784 0.7285 0.03592 0.0
C1967 C 0.62536 0.70824 0.0519 0.0
H1968 H 0.67752 0.74943 0.02203 0.0
H1969 H 0.5548 0.55232 0.17577 0.0
H1970 H 0.13941 0.24107 0.71202 0.0
H1971 H 0.10656 0.21305 0.66911 0.0
H1972 H 0.1809 0.19363 0.63287 0.0
H1973 H 0.21406 0.22214 0.67552 0.0
H1974 H 0.13285 0.19477 0.58801 0.0
H1975 H 0.1531 0.15511 0.67808 0.0
H1976 H 0.15686 0.15378 0.7325 0.0
H1977 H 0.06498 0.15198 0.72796 0.0
H1978 H 0.0608 0.15376 0.67349 0.0
H1979 H 0.07729 0.05712 0.52263 0.0
H1980 H 0.10247 0.10279 0.54575 0.0
H1981 H 0.02741 0.10966 0.58885 0.0
H1982 H 0.00265 0.06356 0.56669 0.0
H1983 H 0.0735 0.1184 0.62832 0.0
H1984 H 0.05245 0.15077 0.53473 0.0
H1985 H 0.05071 0.15397 0.48077 0.0
H1986 H 0.14469 0.16843 0.49084 0.0
H1987 H 0.14702 0.16499 0.54479 0.0
C1988 C 0.14884 0.23142 0.69454 0.0
C1989 C 0.17922 0.23321 0.69744 0.0
C1990 C 0.13006 0.21555 0.66997 0.0
C1991 C 0.14133 0.20092 0.64821 0.0
C1992 C 0.17182 0.20476 0.64951 0.0
C1993 C 0.19071 0.22088 0.67399 0.0
C1994 C 0.12145 0.17825 0.62767 0.0
C1995 C 0.11985 0.17794 0.5966 0.0
C1996 C 0.10441 0.15656 0.63915 0.0
C1997 C 0.10671 0.15487 0.67178 0.0
C1998 C 0.13374 0.1546 0.68872 0.0
C1999 C 0.13595 0.15377 0.71957 0.0
C2000 C 0.11119 0.15289 0.73371 0.0
C2001 C 0.08415 0.15273 0.71698 0.0
C2002 C 0.08184 0.15364 0.68612 0.0
C2003 C 0.06592 0.06861 0.53652 0.0
C2004 C 0.03826 0.05669 0.54335 0.0
C2005 C 0.08024 0.09484 0.54952 0.0
C2006 C 0.06686 0.10971 0.56908 0.0
C2007 C 0.03824 0.09851 0.57397 0.0
C2008 C 0.02414 0.07216 0.5614 0.0
C2009 C 0.08424 0.13473 0.58815 0.0
C2010 C 0.08581 0.13534 0.6193 0.0
C2011 C 0.10133 0.15642 0.57655 0.0
C2012 C 0.09989 0.15752 0.54386 0.0
C2013 C 0.07273 0.15434 0.52541 0.0
C2014 C 0.07165 0.15628 0.49483 0.0
C2015 C 0.09758 0.16152 0.48246 0.0
C2016 C 0.12463 0.16449 0.50051 0.0
C2017 C 0.12585 0.16258 0.5311 0.0
H2018 H 0.09675 0.16343 0.4589 0.0
H2019 H 0.11295 0.15226 0.75761 0.0
H2020 H 0.66777 0.28579 0.31909 0.0
H2021 H 0.63701 0.30581 0.35056 0.0
H2022 H 0.6923 0.38478 0.35126 0.0
H2023 H 0.72245 0.36506 0.31916 0.0
H2024 H 0.67409 0.37143 0.40939 0.0
H2025 H 0.63648 0.37059 0.30389 0.0
H2026 H 0.61708 0.34741 0.25262 0.0
H2027 H 0.54535 0.29794 0.28508 0.0
H2028 H 0.56468 0.32051 0.33667 0.0
H2029 H 0.60636 0.47535 0.43994 0.0
H2030 H 0.62804 0.44333 0.41225 0.0
H2031 H 0.55294 0.37926 0.41528 0.0
H2032 H 0.53081 0.41148 0.44331 0.0
H2033 H 0.57596 0.37666 0.35926 0.0
H2034 H 0.60804 0.38283 0.46319 0.0
H2035 H 0.62647 0.40631 0.51437 0.0
H2036 H 0.7078 0.44293 0.48699 0.0
H2037 H 0.68941 0.42059 0.43523 0.0
C2038 C 0.67367 0.30733 0.32653 0.0
C2039 C 0.69746 0.32394 0.31678 0.0
C2040 C 0.65603 0.31872 0.34432 0.0
C2041 C 0.66237 0.34675 0.35307 0.0
C2042 C 0.6871 0.3631 0.34474 0.0
C2043 C 0.70426 0.35184 0.32642 0.0
C2044 C 0.64239 0.35956 0.36921 0.0
C2045 C 0.65263 0.37258 0.39851 0.0
C2046 C 0.61403 0.36027 0.35522 0.0
C2047 C 0.60224 0.34697 0.32418 0.0
C2048 C 0.61674 0.35458 0.30014 0.0
C2049 C 0.60573 0.34159 0.27102 0.0
C2050 C 0.58005 0.32115 0.26561 0.0
C2051 C 0.56528 0.31373 0.28931 0.0
C2052 C 0.57625 0.3266 0.3185 0.0
C2053 C 0.59416 0.45454 0.43444 0.0
C2054 C 0.56701 0.4459 0.44418 0.0
C2055 C 0.60663 0.43625 0.41859 0.0
C2056 C 0.59235 0.40885 0.4122 0.0
C2057 C 0.56436 0.40032 0.42014 0.0
C2058 C 0.55176 0.41874 0.43612 0.0
C2059 C 0.60807 0.38929 0.39919 0.0
C2060 C 0.59709 0.37502 0.37048 0.0
C2061 C 0.63567 0.38714 0.41388 0.0
C2062 C 0.64722 0.40015 0.44518 0.0
C2063 C 0.62977 0.39606 0.46797 0.0
C2064 C 0.64022 0.40916 0.49712 0.0
C2065 C 0.66833 0.426 0.50398 0.0
C2066 C 0.68603 0.42985 0.48165 0.0
C2067 C 0.67557 0.41702 0.45236 0.0
H2068 H 0.67638 0.43609 0.52659 0.0
H2069 H 0.57156 0.31112 0.24305 0.0
H2070 H 0.43331 0.99301 0.09746 0.0
H2071 H 0.4286 0.95997 0.13251 0.0
H2072 H 0.48731 0.91982 0.08973 0.0
H2073 H 0.49247 0.95321 0.05461 0.0
H2074 H 0.43258 0.88684 0.09195 0.0
H2075 H 0.50964 0.94491 0.16024 0.0
H2076 H 0.53866 0.98805 0.18865 0.0
H2077 H 0.46582 0.99656 0.23375 0.0
H2078 H 0.43619 0.95367 0.20535 0.0
H2079 H 0.36483 0.79497 0.18163 0.0
H2080 H 0.40744 0.82209 0.1646 0.0
H2081 H 0.38063 0.89473 0.19449 0.0
H2082 H 0.33888 0.868 0.21236 0.0
H2083 H 0.43804 0.90461 0.20221 0.0
H2084 H 0.3582 0.85916 0.12112 0.0
H2085 H 0.32518 0.81952 0.08932 0.0
H2086 H 0.39968 0.79087 0.06596 0.0
H2087 H 0.43311 0.83024 0.09791 0.0
C2088 C 0.44551 0.97736 0.09572 0.0
C2089 C 0.46289 0.97539 0.07307 0.0
C2090 C 0.44312 0.95871 0.116 0.0
C2091 C 0.45788 0.93766 0.11386 0.0
C2092 C 0.47602 0.93611 0.09187 0.0
C2093 C 0.4788 0.95507 0.07179 0.0
C2094 C 0.45044 0.91537 0.13169 0.0
C2095 C 0.43466 0.89033 0.1162 0.0
C2096 C 0.45289 0.92021 0.16321 0.0
C2097 C 0.47066 0.94599 0.1806 0.0
C2098 C 0.49974 0.95602 0.1761 0.0
C2099 C 0.51632 0.98044 0.19224 0.0
C2100 C 0.5041 0.99502 0.213 0.0
C2101 C 0.47528 0.98521 0.2177 0.0
C2102 C 0.4586 0.96079 0.20164 0.0
C2103 C 0.3684 0.81676 0.18508 0.0
C2104 C 0.34823 0.82936 0.19784 0.0
C2105 C 0.39273 0.83221 0.17534 0.0
C2106 C 0.39692 0.8604 0.17777 0.0
C2107 C 0.37789 0.87301 0.19237 0.0
C2108 C 0.35384 0.85766 0.20239 0.0
C2109 C 0.41858 0.87684 0.16221 0.0
C2110 C 0.43709 0.90068 0.17814 0.0
C2111 C 0.41814 0.87122 0.13093 0.0
C2112 C 0.39809 0.84733 0.11226 0.0
C2113 C 0.36749 0.84425 0.10943 0.0
C2114 C 0.34872 0.82188 0.09134 0.0
C2115 C 0.36033 0.80263 0.07574 0.0
C2116 C 0.39073 0.80574 0.07815 0.0
C2117 C 0.40959 0.82805 0.09626 0.0
H2118 H 0.34576 0.78535 0.0617 0.0
H2119 H 0.51697 0.01393 0.22545 0.0
H2120 H 0.9931 0.60098 0.94589 0.0
H2121 H 0.97108 0.6325 0.91846 0.0
H2122 H 0.9018 0.56614 0.87257 0.0
H2123 H 0.92316 0.53479 0.90028 0.0
H2124 H 0.92238 0.60371 0.83512 0.0
H2125 H 0.88869 0.59946 0.9302 0.0
H2126 H 0.89322 0.60268 0.98519 0.0
H2127 H 0.93667 0.68646 0.99379 0.0
H2128 H 0.93293 0.6836 0.93879 0.0
H2129 H 0.79726 0.65183 0.79494 0.0
H2130 H 0.83221 0.62991 0.82069 0.0
H2131 H 0.89153 0.70732 0.85157 0.0
H2132 H 0.85649 0.7297 0.82553 0.0
H2133 H 0.88286 0.66991 0.89614 0.0
H2134 H 0.90844 0.67297 0.79704 0.0
H2135 H 0.89619 0.66706 0.74195 0.0
H2136 H 0.86144 0.58227 0.74101 0.0
H2137 H 0.87308 0.58771 0.79611 0.0
C2138 C 0.97351 0.59313 0.92951 0.0
C2139 C 0.95974 0.56554 0.92521 0.0
C2140 C 0.96092 0.61111 0.91401 0.0
C2141 C 0.93473 0.60159 0.89371 0.0
C2142 C 0.92198 0.57384 0.88817 0.0
C2143 C 0.93417 0.556 0.90404 0.0
C2144 C 0.91923 0.6205 0.87979 0.0
C2145 C 0.91387 0.61828 0.84843 0.0
C2146 C 0.90825 0.63954 0.89727 0.0
C2147 C 0.91101 0.6412 0.93038 0.0
C2148 C 0.8996 0.61848 0.94381 0.0
C2149 C 0.90194 0.62025 0.97499 0.0
C2150 C 0.91534 0.64473 0.99298 0.0
C2151 C 0.9264 0.66749 0.97982 0.0
C2152 C 0.92421 0.6658 0.94865 0.0
C2153 C 0.81764 0.66432 0.80729 0.0
C2154 C 0.82422 0.69252 0.80802 0.0
C2155 C 0.8376 0.65171 0.82193 0.0
C2156 C 0.86452 0.66701 0.83764 0.0
C2157 C 0.87086 0.69524 0.83939 0.0
C2158 C 0.85088 0.70794 0.8245 0.0
C2159 C 0.88602 0.65305 0.85155 0.0
C2160 C 0.89224 0.65599 0.88288 0.0
C2161 C 0.89737 0.63434 0.83405 0.0
C2162 C 0.89151 0.63079 0.80077 0.0
C2163 C 0.8981 0.65307 0.7851 0.0
C2164 C 0.89125 0.64982 0.75387 0.0
C2165 C 0.87792 0.62434 0.73801 0.0
C2166 C 0.87171 0.60201 0.75333 0.0
C2167 C 0.8785 0.60515 0.78456 0.0
H2168 H 0.87246 0.62189 0.71386 0.0
H2169 H 0.91705 0.64609 0.0171 0.0
H2170 H 0.4657 0.38958 0.06427 0.0
H2171 H 0.43759 0.366 0.09885 0.0
H2172 H 0.37004 0.40985 0.08007 0.0
H2173 H 0.39943 0.43493 0.04696 0.0
H2174 H 0.38127 0.41177 0.1357 0.0
H2175 H 0.36267 0.33869 0.05592 0.0
H2176 H 0.37447 0.30673 0.01741 0.0
H2177 H 0.42404 0.27532 0.0854 0.0
H2178 H 0.41321 0.30754 0.12432 0.0
H2179 H 0.27628 0.32552 0.20429 0.0
H2180 H 0.30404 0.3511 0.17083 0.0
H2181 H 0.38141 0.3251 0.20523 0.0
H2182 H 0.35386 0.29956 0.23916 0.0
H2183 H 0.36419 0.31362 0.14192 0.0
H2184 H 0.38129 0.38845 0.22118 0.0
H2185 H 0.36647 0.41969 0.25821 0.0
H2186 H 0.31424 0.44587 0.18771 0.0
H2187 H 0.32844 0.41451 0.15027 0.0
C2188 C 0.44456 0.39374 0.0671 0.0
C2189 C 0.43451 0.41388 0.05302 0.0
C2190 C 0.42842 0.38018 0.08676 0.0
C2191 C 0.40143 0.38581 0.09179 0.0
C2192 C 0.39082 0.40519 0.07661 0.0
C2193 C 0.40745 0.41939 0.05764 0.0
C2194 C 0.38561 0.37323 0.11474 0.0
C2195 C 0.37707 0.39021 0.13664 0.0
C2196 C 0.38074 0.34517 0.1165 0.0
C2197 C 0.38729 0.32573 0.09306 0.0
C2198 C 0.37627 0.32513 0.06267 0.0
C2199 C 0.38274 0.30691 0.04076 0.0
C2200 C 0.3999 0.28896 0.04895 0.0
C2201 C 0.41076 0.28925 0.07908 0.0
C2202 C 0.40446 0.30749 0.10108 0.0
C2203 C 0.29933 0.32566 0.20526 0.0
C2204 C 0.31279 0.31032 0.22422 0.0
C2205 C 0.31516 0.34033 0.18614 0.0
C2206 C 0.34464 0.33982 0.18559 0.0
C2207 C 0.35859 0.32561 0.20541 0.0
C2208 C 0.34285 0.31115 0.22483 0.0
C2209 C 0.36005 0.3522 0.16251 0.0
C2210 C 0.36841 0.33514 0.14068 0.0
C2211 C 0.36421 0.38003 0.16043 0.0
C2212 C 0.35573 0.39895 0.18295 0.0
C2213 C 0.36644 0.40069 0.21359 0.0
C2214 C 0.3582 0.41846 0.23465 0.0
C2215 C 0.33937 0.4347 0.22533 0.0
C2216 C 0.32881 0.43326 0.19491 0.0
C2217 C 0.33697 0.41552 0.17376 0.0
H2218 H 0.33302 0.44844 0.24167 0.0
H2219 H 0.40479 0.27483 0.03194 0.0
H2220 H 0.38483 0.52246 0.9181 0.0
H2221 H 0.35684 0.55294 0.89695 0.0
H2222 H 0.43167 0.61986 0.92501 0.0
H2223 H 0.45975 0.5896 0.94658 0.0
H2224 H 0.38046 0.63488 0.93186 0.0
H2225 H 0.41899 0.58762 0.8546 0.0
H2226 H 0.42716 0.5476 0.82459 0.0
H2227 H 0.33423 0.51924 0.79636 0.0
H2228 H 0.32549 0.55893 0.82657 0.0
H2229 H 0.35813 0.72388 0.82595 0.0
H2230 H 0.37512 0.69347 0.85841 0.0
H2231 H 0.29608 0.63226 0.8249 0.0
H2232 H 0.27894 0.66259 0.7921 0.0
H2233 H 0.34485 0.61281 0.82261 0.0
H2234 H 0.30717 0.66363 0.89624 0.0
H2235 H 0.3003 0.70474 0.92521 0.0
H2236 H 0.39252 0.72765 0.95933 0.0
H2237 H 0.40004 0.68685 0.93022 0.0
C2238 C 0.39523 0.54373 0.92022 0.0
C2239 C 0.42467 0.55351 0.93374 0.0
C2240 C 0.3792 0.56112 0.90802 0.0
C2241 C 0.39233 0.58859 0.90893 0.0
C2242 C 0.42113 0.59872 0.92396 0.0
C2243 C 0.43718 0.58135 0.93621 0.0
C2244 C 0.37685 0.60634 0.89241 0.0
C2245 C 0.37282 0.63017 0.90794 0.0
C2246 C 0.36636 0.59994 0.8613 0.0
C2247 C 0.37157 0.57606 0.84314 0.0
C2248 C 0.40028 0.57272 0.8422 0.0
C2249 C 0.40502 0.55013 0.82512 0.0
C2250 C 0.38123 0.53084 0.80866 0.0
C2251 C 0.35264 0.53416 0.80918 0.0
C2252 C 0.34778 0.5567 0.82627 0.0
C2253 C 0.34415 0.70409 0.82574 0.0
C2254 C 0.31721 0.69564 0.80638 0.0
C2255 C 0.35384 0.68676 0.84445 0.0
C2256 C 0.33678 0.66065 0.84426 0.0
C2257 C 0.30955 0.65236 0.82547 0.0
C2258 C 0.29975 0.66975 0.80682 0.0
C2259 C 0.3485 0.64144 0.86199 0.0
C2260 C 0.35202 0.61737 0.84662 0.0
C2261 C 0.35862 0.64774 0.89317 0.0
C2262 C 0.3542 0.67225 0.91085 0.0
C2263 C 0.32603 0.67753 0.90974 0.0
C2264 C 0.32201 0.70076 0.92622 0.0
C2265 C 0.34597 0.71882 0.94406 0.0
C2266 C 0.37399 0.71365 0.9455 0.0
C2267 C 0.37813 0.69045 0.92904 0.0
H2268 H 0.34281 0.7368 0.9568 0.0
H2269 H 0.38494 0.51337 0.79543 0.0
H2270 H 0.07171 0.49337 0.57332 0.0
H2271 H 0.10661 0.51235 0.61926 0.0
H2272 H 0.09752 0.59235 0.60491 0.0
H2273 H 0.06246 0.57372 0.55968 0.0
H2274 H 0.16033 0.55151 0.6314 0.0
H2275 H 0.0886 0.62495 0.66397 0.0
H2276 H 0.03616 0.6251 0.6578 0.0
H2277 H 0.01386 0.5392 0.65717 0.0
H2278 H 0.06643 0.53848 0.66311 0.0
H2279 H 0.22484 0.68286 0.6851 0.0
H2280 H 0.2049 0.63536 0.66654 0.0
H2281 H 0.16576 0.62494 0.74673 0.0
H2282 H 0.18493 0.67304 0.76482 0.0
H2283 H 0.12568 0.61278 0.70344 0.0
H2284 H 0.21127 0.58208 0.72088 0.0
H2285 H 0.26316 0.57954 0.72486 0.0
H2286 H 0.2588 0.57749 0.62968 0.0
H2287 H 0.20702 0.58043 0.62507 0.0
C2288 C 0.07731 0.51503 0.57993 0.0
C2289 C 0.06409 0.53208 0.56313 0.0
C2290 C 0.09724 0.52577 0.6061 0.0
C2291 C 0.10411 0.55362 0.61566 0.0
C2292 C 0.09195 0.5707 0.59817 0.0
C2293 C 0.07196 0.56004 0.5723 0.0
C2294 C 0.12324 0.56547 0.6443 0.0
C2295 C 0.15298 0.5647 0.64758 0.0
C2296 C 0.11306 0.58136 0.66611 0.0
C2297 C 0.08148 0.58171 0.66422 0.0
C2298 C 0.07256 0.60613 0.66295 0.0
C2299 C 0.04276 0.6063 0.65936 0.0
C2300 C 0.0216 0.58222 0.65735 0.0
C2301 C 0.03026 0.55786 0.65882 0.0
C2302 C 0.06007 0.55755 0.66221 0.0
C2303 C 0.2129 0.67022 0.69926 0.0
C2304 C 0.20598 0.68158 0.72611 0.0
C2305 C 0.20172 0.64287 0.68878 0.0
C2306 C 0.18368 0.62639 0.70517 0.0
C2307 C 0.17948 0.63723 0.7336 0.0
C2308 C 0.19027 0.66472 0.74385 0.0
C2309 C 0.16375 0.60096 0.68937 0.0
C2310 C 0.13346 0.59893 0.6884 0.0
C2311 C 0.17355 0.58227 0.6701 0.0
C2312 C 0.20506 0.58134 0.67264 0.0
C2313 C 0.22138 0.58127 0.70079 0.0
C2314 C 0.25078 0.57968 0.70315 0.0
C2315 C 0.26417 0.57809 0.67751 0.0
C2316 C 0.24829 0.57843 0.64949 0.0
C2317 C 0.21888 0.58002 0.64699 0.0
H2318 H 0.28692 0.57682 0.6794 0.0
H2319 H 0.99853 0.58246 0.65455 0.0
H2320 H 0.36612 0.30898 0.69345 0.0
H2321 H 0.38699 0.34103 0.66158 0.0
H2322 H 0.30006 0.34653 0.62427 0.0
H2323 H 0.2788 0.31402 0.65607 0.0
H2324 H 0.33441 0.34079 0.58089 0.0
H2325 H 0.34311 0.39812 0.6731 0.0
H2326 H 0.35606 0.41208 0.72765 0.0
H2327 H 0.44683 0.41525 0.72186 0.0
H2328 H 0.43439 0.40094 0.66733 0.0
H2329 H 0.4028 0.44747 0.50325 0.0
H2330 H 0.37133 0.4206 0.53341 0.0
H2331 H 0.44826 0.41042 0.58923 0.0
H2332 H 0.47953 0.43796 0.56025 0.0
H2333 H 0.4119 0.42268 0.62311 0.0
H2334 H 0.40262 0.35922 0.5331 0.0
H2335 H 0.39024 0.34348 0.47882 0.0
H2336 H 0.3015 0.3509 0.48073 0.0
H2337 H 0.31346 0.36695 0.535 0.0
C2338 C 0.35135 0.31706 0.67861 0.0
C2339 C 0.32076 0.30898 0.67739 0.0
C2340 C 0.36336 0.3355 0.66046 0.0
C2341 C 0.34512 0.34646 0.64079 0.0
C2342 C 0.31454 0.33841 0.63938 0.0
C2343 C 0.30245 0.31992 0.65764 0.0
C2344 C 0.35828 0.36575 0.6213 0.0
C2345 C 0.35096 0.359 0.59008 0.0
C2346 C 0.38013 0.38932 0.63331 0.0
C2347 C 0.38776 0.39829 0.6661 0.0
C2348 C 0.36581 0.40164 0.68347 0.0
C2349 C 0.37307 0.40963 0.7144 0.0
C2350 C 0.40224 0.4145 0.72822 0.0
C2351 C 0.42424 0.41147 0.71113 0.0
C2352 C 0.4171 0.40346 0.68019 0.0
C2353 C 0.41296 0.43935 0.52185 0.0
C2354 C 0.44372 0.44489 0.52928 0.0
C2355 C 0.39494 0.42392 0.53904 0.0
C2356 C 0.40737 0.4133 0.56358 0.0
C2357 C 0.43806 0.41848 0.57059 0.0
C2358 C 0.45597 0.43416 0.5538 0.0
C2359 C 0.3889 0.3972 0.58261 0.0
C2360 C 0.39511 0.40467 0.61383 0.0
C2361 C 0.36619 0.37423 0.57058 0.0
C2362 C 0.35902 0.36458 0.538 0.0
C2363 C 0.38053 0.35768 0.52189 0.0
C2364 C 0.37357 0.34866 0.49114 0.0
C2365 C 0.34513 0.34627 0.47632 0.0
C2366 C 0.32354 0.35281 0.49223 0.0
C2367 C 0.33038 0.36185 0.52298 0.0
H2368 H 0.33979 0.33929 0.45252 0.0
H2369 H 0.4078 0.42064 0.75217 0.0
H2370 H 0.19832 0.6793 0.19334 0.0
H2371 H 0.18483 0.63174 0.17347 0.0
H2372 H 0.26683 0.63935 0.13867 0.0
H2373 H 0.28051 0.68752 0.15928 0.0
H2374 H 0.22224 0.62236 0.09623 0.0
H2375 H 0.2479 0.59006 0.18564 0.0
H2376 H 0.25492 0.58938 0.24023 0.0
H2377 H 0.16166 0.5723 0.2389 0.0
H2378 H 0.15394 0.57356 0.18453 0.0
H2379 H 0.10133 0.52597 0.01258 0.0
H2380 H 0.15082 0.53935 0.04172 0.0
H2381 H 0.11492 0.56901 0.11805 0.0
H2382 H 0.06557 0.55412 0.08959 0.0
H2383 H 0.15907 0.54924 0.13757 0.0
H2384 H 0.14265 0.61068 0.0621 0.0
H2385 H 0.133 0.62001 0.00999 0.0
H2386 H 0.20641 0.58834 0.98884 0.0
H2387 H 0.2163 0.57869 0.04084 0.0
C2388 C 0.21407 0.67048 0.18284 0.0
C2389 C 0.24051 0.68676 0.17826 0.0
C2390 C 0.20646 0.64323 0.17151 0.0
C2391 C 0.22515 0.63169 0.15517 0.0
C2392 C 0.25234 0.64773 0.15167 0.0
C2393 C 0.25997 0.67519 0.16312 0.0
C2394 C 0.21264 0.60538 0.13627 0.0
C2395 C 0.20938 0.6057 0.10522 0.0
C2396 C 0.19603 0.58356 0.14797 0.0
C2397 C 0.20034 0.58165 0.18071 0.0
C2398 C 0.22884 0.58612 0.19691 0.0
C2399 C 0.23296 0.58567 0.22788 0.0
C2400 C 0.20876 0.58061 0.24296 0.0
C2401 C 0.18038 0.57603 0.22714 0.0
C2402 C 0.17612 0.57654 0.19619 0.0
C2403 C 0.10419 0.5354 0.03559 0.0
C2404 C 0.07991 0.53973 0.04875 0.0
C2405 C 0.13237 0.54279 0.05229 0.0
C2406 C 0.13672 0.55552 0.082 0.0
C2407 C 0.11222 0.55905 0.09527 0.0
C2408 C 0.08407 0.55097 0.07889 0.0
C2409 C 0.16649 0.56849 0.0984 0.0
C2410 C 0.17322 0.56508 0.12862 0.0
C2411 C 0.18594 0.58805 0.08624 0.0
C2412 C 0.17994 0.59365 0.05507 0.0
C2413 C 0.1566 0.60561 0.04624 0.0
C2414 C 0.15111 0.61096 0.01677 0.0
C2415 C 0.16902 0.60467 0.99609 0.0
C2416 C 0.1925 0.5931 0.00486 0.0
C2417 C 0.19806 0.58769 0.0343 0.0
H2418 H 0.16474 0.60884 0.97328 0.0
H2419 H 0.212 0.5803 0.26692 0.0
H2420 H 0.75049 0.36077 0.69596 0.0
H2421 H 0.72157 0.38826 0.67003 0.0
H2422 H 0.64234 0.34031 0.6924 0.0
H2423 H 0.67096 0.31268 0.7182 0.0
H2424 H 0.63845 0.34481 0.63279 0.0
H2425 H 0.66926 0.40387 0.72632 0.0
H2426 H 0.70556 0.43095 0.7682 0.0
H2427 H 0.7465 0.47983 0.70718 0.0
H2428 H 0.71068 0.45276 0.66484 0.0
H2429 H 0.53612 0.41576 0.58177 0.0
H2430 H 0.56809 0.39633 0.61515 0.0
H2431 H 0.64403 0.45122 0.59513 0.0
H2432 H 0.61177 0.4716 0.56242 0.0
H2433 H 0.65158 0.44423 0.65293 0.0
H2434 H 0.62325 0.38559 0.55982 0.0
H2435 H 0.58861 0.35849 0.51658 0.0
H2436 H 0.54541 0.30852 0.57542 0.0
H2437 H 0.57958 0.33559 0.61898 0.0
C2438 C 0.72695 0.35631 0.69571 0.0
C2439 C 0.71299 0.33445 0.70899 0.0
C2440 C 0.71049 0.37208 0.68096 0.0
C2441 C 0.67984 0.36631 0.67935 0.0
C2442 C 0.66598 0.34504 0.69336 0.0
C2443 C 0.68239 0.32933 0.70817 0.0
C2444 C 0.66195 0.38124 0.66143 0.0
C2445 C 0.64102 0.3665 0.63747 0.0
C2446 C 0.66611 0.40963 0.6669 0.0
C2447 C 0.68745 0.42612 0.69237 0.0
C2448 C 0.68613 0.42026 0.7218 0.0
C2449 C 0.7066 0.43563 0.74562 0.0
C2450 C 0.72837 0.45705 0.74035 0.0
C2451 C 0.72965 0.46321 0.71123 0.0
C2452 C 0.70925 0.44787 0.68731 0.0
C2453 C 0.55962 0.42388 0.58471 0.0
C2454 C 0.57154 0.445 0.56937 0.0
C2455 C 0.57788 0.41269 0.6037 0.0
C2456 C 0.60849 0.42187 0.60708 0.0
C2457 C 0.62046 0.44376 0.59274 0.0
C2458 C 0.60207 0.45536 0.57409 0.0
C2459 C 0.62775 0.40771 0.62457 0.0
C2460 C 0.64901 0.42255 0.64829 0.0
C2461 C 0.62416 0.37936 0.61875 0.0
C2462 C 0.60378 0.36278 0.59262 0.0
C2463 C 0.60622 0.36894 0.56348 0.0
C2464 C 0.5867 0.35357 0.53895 0.0
C2465 C 0.56477 0.33185 0.54326 0.0
C2466 C 0.56239 0.32538 0.57212 0.0
C2467 C 0.58185 0.34071 0.59673 0.0
H2468 H 0.54966 0.31998 0.52425 0.0
H2469 H 0.74421 0.46892 0.75882 0.0
H2470 H 0.82987 0.667 0.19945 0.0
H2471 H 0.85859 0.63794 0.17712 0.0
H2472 H 0.8129 0.64033 0.08932 0.0
H2473 H 0.78457 0.66996 0.1114 0.0
H2474 H 0.85111 0.59038 0.1422 0.0
H2475 H 0.86388 0.64919 0.04117 0.0
H2476 H 0.86052 0.69366 0.02661 0.0
H2477 H 0.88142 0.72902 0.11897 0.0
H2478 H 0.88544 0.68488 0.13402 0.0
H2479 H 0.92994 0.53156 0.03744 0.0
H2480 H 0.89425 0.54921 0.06346 0.0
H2481 H 0.95874 0.62376 0.09443 0.0
H2482 H 0.99425 0.60654 0.06788 0.0
H2483 H 0.90997 0.63378 0.07003 0.0
H2484 H 0.93566 0.57694 0.14195 0.0
H2485 H 0.94254 0.53431 0.15927 0.0
H2486 H 0.85101 0.49817 0.13034 0.0
H2487 H 0.84366 0.54048 0.11248 0.0
C2488 C 0.82549 0.66091 0.17545 0.0
C2489 C 0.80538 0.67122 0.15711 0.0
C2490 C 0.84188 0.64422 0.16272 0.0
C2491 C 0.83833 0.63748 0.13152 0.0
C2492 C 0.81639 0.64576 0.11342 0.0
C2493 C 0.8002 0.66266 0.12608 0.0
C2494 C 0.85965 0.62444 0.11788 0.0
C2495 C 0.86388 0.59974 0.12627 0.0
C2496 C 0.87666 0.63691 0.09748 0.0
C2497 C 0.8745 0.66364 0.08873 0.0
C2498 C 0.8678 0.66647 0.05836 0.0
C2499 C 0.86581 0.69162 0.05002 0.0
C2500 C 0.8706 0.71413 0.07187 0.0
C2501 C 0.87757 0.71155 0.10209 0.0
C2502 C 0.8797 0.68647 0.11054 0.0
C2503 C 0.93666 0.55156 0.05019 0.0
C2504 C 0.96488 0.56774 0.0505 0.0
C2505 C 0.91625 0.56158 0.06512 0.0
C2506 C 0.92384 0.58778 0.08097 0.0
C2507 C 0.95237 0.60352 0.08223 0.0
C2508 C 0.97267 0.59364 0.06711 0.0
C2509 C 0.9016 0.59971 0.09434 0.0
C2510 C 0.89709 0.62422 0.08577 0.0
C2511 C 0.88478 0.58726 0.11489 0.0
C2512 C 0.88918 0.5618 0.1256 0.0
C2513 C 0.91705 0.55983 0.13905 0.0
C2514 C 0.92102 0.53574 0.14901 0.0
C2515 C 0.89724 0.51352 0.14583 0.0
C2516 C 0.86942 0.51538 0.13275 0.0
C2517 C 0.86533 0.53942 0.12273 0.0
H2518 H 0.90036 0.49489 0.15357 0.0
H2519 H 0.86901 0.73357 0.06537 0.0
H2520 H 0.93102 0.58294 0.53417 0.0
H2521 H 0.90324 0.61267 0.55728 0.0
H2522 H 0.92082 0.58298 0.64154 0.0
H2523 H 0.94917 0.55384 0.61885 0.0
H2524 H 0.8553 0.60457 0.58118 0.0
H2525 H 0.92429 0.62952 0.69936 0.0
H2526 H 0.97551 0.63757 0.72439 0.0
H2527 H 0.0064 0.65975 0.64352 0.0
H2528 H 0.95533 0.65182 0.61807 0.0
H2529 H 0.78323 0.66915 0.69077 0.0
H2530 H 0.80638 0.63894 0.66117 0.0
H2531 H 0.87671 0.70652 0.65496 0.0
H2532 H 0.85403 0.73652 0.68444 0.0
H2533 H 0.89753 0.66613 0.67557 0.0
H2534 H 0.82747 0.67707 0.59464 0.0
H2535 H 0.77817 0.67588 0.56816 0.0
H2536 H 0.75274 0.59042 0.57007 0.0
H2537 H 0.80179 0.59117 0.59702 0.0
C2538 C 0.92907 0.58282 0.55766 0.0
C2539 C 0.94249 0.56608 0.57467 0.0
C2540 C 0.91306 0.59977 0.57083 0.0
C2541 C 0.91011 0.60037 0.60129 0.0
C2542 C 0.9232 0.58338 0.61818 0.0
C2543 C 0.93935 0.56659 0.6051 0.0
C2544 C 0.8933 0.61864 0.61536 0.0
C2545 C 0.86457 0.61802 0.60183 0.0
C2546 C 0.90528 0.63643 0.64221 0.0
C2547 C 0.93601 0.63985 0.65678 0.0
C2548 C 0.94202 0.63602 0.68692 0.0
C2549 C 0.97102 0.64056 0.70117 0.0
C2550 C 0.9942 0.64916 0.68556 0.0
C2551 C 0.98842 0.653 0.65557 0.0
C2552 C 0.95946 0.64836 0.64117 0.0
C2553 C 0.80328 0.67761 0.68251 0.0
C2554 C 0.8169 0.7052 0.69014 0.0
C2555 C 0.81652 0.66033 0.66565 0.0
C2556 C 0.84343 0.67044 0.65604 0.0
C2557 C 0.85614 0.6982 0.66238 0.0
C2558 C 0.84306 0.71535 0.6792 0.0
C2559 C 0.85969 0.65214 0.64136 0.0
C2560 C 0.88823 0.6526 0.65496 0.0
C2561 C 0.84773 0.63473 0.61431 0.0
C2562 C 0.81821 0.63422 0.59815 0.0
C2563 C 0.81129 0.65806 0.58968 0.0
C2564 C 0.7834 0.65746 0.57452 0.0
C2565 C 0.7623 0.6331 0.5675 0.0
C2566 C 0.76908 0.60928 0.57557 0.0
C2567 C 0.79693 0.60978 0.59077 0.0
H2568 H 0.74073 0.63267 0.55574 0.0
H2569 H 0.01663 0.65288 0.69672 0.0
H2570 H 0.45724 0.58654 0.41849 0.0
H2571 H 0.42463 0.60601 0.38594 0.0
H2572 H 0.3546 0.53559 0.38265 0.0
H2573 H 0.38745 0.51561 0.41503 0.0
H2574 H 0.35554 0.55341 0.32782 0.0
H2575 H 0.35686 0.59169 0.42921 0.0
H2576 H 0.3798 0.61446 0.47976 0.0
H2577 H 0.41997 0.68435 0.44264 0.0
H2578 H 0.39759 0.66185 0.39173 0.0
H2579 H 0.23702 0.6259 0.30646 0.0
H2580 H 0.27137 0.60101 0.32895 0.0
H2581 H 0.34213 0.65056 0.29446 0.0
H2582 H 0.30762 0.67469 0.2707 0.0
H2583 H 0.34072 0.64313 0.36668 0.0
H2584 H 0.34064 0.60314 0.26471 0.0
H2585 H 0.31517 0.58069 0.21478 0.0
H2586 H 0.27042 0.51427 0.25435 0.0
H2587 H 0.29527 0.53663 0.30463 0.0
C2588 C 0.43495 0.57506 0.41076 0.0
C2589 C 0.42481 0.54963 0.41958 0.0
C2590 C 0.41633 0.58625 0.39215 0.0
C2591 C 0.38707 0.57244 0.38227 0.0
C2592 C 0.37711 0.5466 0.39011 0.0
C2593 C 0.39585 0.53526 0.40865 0.0
C2594 C 0.3667 0.58564 0.36491 0.0
C2595 C 0.35216 0.57292 0.33644 0.0
C2596 C 0.36251 0.61126 0.376 0.0
C2597 C 0.37577 0.62497 0.40662 0.0
C2598 C 0.37075 0.61184 0.43179 0.0
C2599 C 0.38363 0.62471 0.46052 0.0
C2600 C 0.4014 0.6508 0.46442 0.0
C2601 C 0.40624 0.66412 0.43958 0.0
C2602 C 0.39344 0.65133 0.41078 0.0
C2603 C 0.25979 0.63101 0.30313 0.0
C2604 C 0.26974 0.65198 0.28674 0.0
C2605 C 0.27931 0.61688 0.31598 0.0
C2606 C 0.30913 0.62401 0.31322 0.0
C2607 C 0.31908 0.64469 0.2965 0.0
C2608 C 0.29939 0.6583 0.28288 0.0
C2609 C 0.33008 0.61106 0.32965 0.0
C2610 C 0.34443 0.62374 0.35806 0.0
C2611 C 0.33402 0.58547 0.31858 0.0
C2612 C 0.31951 0.5717 0.28843 0.0
C2613 C 0.32514 0.58388 0.26279 0.0
C2614 C 0.31091 0.57114 0.23442 0.0
C2615 C 0.29114 0.54609 0.2314 0.0
C2616 C 0.2857 0.53369 0.25674 0.0
C2617 C 0.29987 0.54638 0.28517 0.0
H2618 H 0.28006 0.53629 0.20943 0.0
H2619 H 0.41135 0.6607 0.4867 0.0
H2620 H 0.1289 0.28403 0.83769 0.0
H2621 H 0.10727 0.31823 0.86112 0.0
H2622 H 0.18108 0.38046 0.84975 0.0
H2623 H 0.20353 0.34581 0.82654 0.0
H2624 H 0.16434 0.38915 0.90482 0.0
H2625 H 0.11627 0.37246 0.80395 0.0
H2626 H 0.09086 0.34475 0.75642 0.0
H2627 H 0.01999 0.30903 0.80064 0.0
H2628 H 0.04511 0.33624 0.84851 0.0
H2629 H 0.07305 0.47496 0.95916 0.0
H2630 H 0.10318 0.45612 0.92611 0.0
H2631 H 0.04785 0.37669 0.92287 0.0
H2632 H 0.01763 0.39522 0.95535 0.0
H2633 H 0.06018 0.38703 0.86778 0.0
H2634 H 0.11277 0.39814 0.96933 0.0
H2635 H 0.13831 0.42486 0.01733 0.0
H2636 H 0.20072 0.47176 0.97116 0.0
H2637 H 0.17527 0.44539 0.92285 0.0
C2638 C 0.14065 0.30496 0.84004 0.0
C2639 C 0.16782 0.31222 0.82994 0.0
C2640 C 0.12814 0.32455 0.85337 0.0
C2641 C 0.14218 0.35197 0.85653 0.0
C2642 C 0.16974 0.35941 0.84724 0.0
C2643 C 0.1825 0.33964 0.83399 0.0
C2644 C 0.12763 0.37236 0.86984 0.0
C2645 C 0.14182 0.38924 0.89632 0.0
C2646 C 0.09819 0.37242 0.85879 0.0
C2647 C 0.08266 0.35637 0.82987 0.0
C2648 C 0.09532 0.35863 0.80357 0.0
C2649 C 0.08095 0.34301 0.77656 0.0
C2650 C 0.05386 0.32511 0.77554 0.0
C2651 C 0.04098 0.32291 0.80147 0.0
C2652 C 0.05524 0.33848 0.82854 0.0
C2653 C 0.06719 0.45351 0.95117 0.0
C2654 C 0.04293 0.43657 0.95986 0.0
C2655 C 0.08448 0.4428 0.93239 0.0
C2656 C 0.0778 0.415 0.92214 0.0
C2657 C 0.0533 0.39822 0.93039 0.0
C2658 C 0.03609 0.40886 0.94906 0.0
C2659 C 0.09642 0.40278 0.90343 0.0
C2660 C 0.08297 0.38752 0.87583 0.0
C2661 C 0.12649 0.40432 0.91343 0.0
C2662 C 0.14193 0.41998 0.94248 0.0
C2663 C 0.13183 0.41423 0.96943 0.0
C2664 C 0.1463 0.4293 0.99669 0.0
C2665 C 0.17108 0.45007 0.99729 0.0
C2666 C 0.18149 0.45571 0.97065 0.0
C2667 C 0.16705 0.44069 0.94333 0.0
H2668 H 0.18225 0.46174 0.01841 0.0
H2669 H 0.04287 0.31291 0.75467 0.0
H2670 H 0.21311 0.33264 0.30452 0.0
H2671 H 0.189 0.36132 0.3343 0.0
H2672 H 0.1353 0.29059 0.36013 0.0
H2673 H 0.1584 0.26182 0.3291 0.0
H2674 H 0.10183 0.32075 0.34479 0.0
H2675 H 0.19206 0.33781 0.41068 0.0
H2676 H 0.24563 0.34966 0.42698 0.0
H2677 H 0.2505 0.42834 0.4003 0.0
H2678 H 0.19699 0.41684 0.38347 0.0
H2679 H 0.05931 0.41136 0.46222 0.0
H2680 H 0.08605 0.37917 0.44152 0.0
H2681 H 0.09889 0.42393 0.36724 0.0
H2682 H 0.07159 0.45567 0.38718 0.0
H2683 H 0.15238 0.40492 0.41225 0.0
H2684 H 0.05953 0.38005 0.339 0.0
H2685 H 0.00551 0.36582 0.32743 0.0
H2686 H 0.00663 0.29834 0.37596 0.0
H2687 H 0.06066 0.31247 0.38816 0.0
C2688 C 0.19659 0.32323 0.31703 0.0
C2689 C 0.18771 0.29497 0.31453 0.0
C2690 C 0.18282 0.33968 0.33418 0.0
C2691 C 0.16041 0.32824 0.34983 0.0
C2692 C 0.15239 0.29999 0.34824 0.0
C2693 C 0.16573 0.28354 0.33061 0.0
C2694 C 0.14394 0.3456 0.36594 0.0
C2695 C 0.11307 0.3389 0.35988 0.0
C2696 C 0.15828 0.36941 0.38572 0.0
C2697 C 0.19052 0.37637 0.39557 0.0
C2698 C 0.20458 0.35756 0.40805 0.0
C2699 C 0.23493 0.36423 0.41743 0.0
C2700 C 0.25146 0.38971 0.41461 0.0
C2701 C 0.23767 0.40859 0.40244 0.0
C2702 C 0.20732 0.40202 0.39302 0.0
C2703 C 0.0678 0.41431 0.44146 0.0
C2704 C 0.06331 0.43604 0.42631 0.0
C2705 C 0.08299 0.3959 0.42967 0.0
C2706 C 0.09429 0.39921 0.40285 0.0
C2707 C 0.09018 0.42103 0.38791 0.0
C2708 C 0.07454 0.43909 0.39932 0.0
C2709 C 0.11079 0.38016 0.39043 0.0
C2710 C 0.14149 0.38658 0.39731 0.0
C2711 C 0.0964 0.35581 0.37198 0.0
C2712 C 0.064 0.34756 0.36489 0.0
C2713 C 0.0482 0.36241 0.34754 0.0
C2714 C 0.0176 0.3543 0.34077 0.0
C2715 C 0.00263 0.33126 0.35107 0.0
C2716 C 0.01823 0.31624 0.36808 0.0
C2717 C 0.04883 0.32428 0.37493 0.0
H2718 H 0.97895 0.32499 0.34577 0.0
H2719 H 0.27496 0.39485 0.42191 0.0
loop_
_geom_bond_atom_site_label_1
_geom_bond_atom_site_label_2
_geom_bond_distance
_geom_bond_site_symmetry_2
_ccdc_geom_bond_type
Zn0 O6 1.969 . S
Zn0 O7 1.965 1_655 S
Zn0 O11 2.024 1_556 S
Zn0 O16 1.969 1_546 S
Zn1 O8 1.969 1_564 S
Zn1 O14 1.969 . S
Zn1 O15 1.965 1_455 S
Zn1 O17 2.024 1_554 S
C2 O3 1.229 . S
C2 O11 1.058 . S
O3 C2 1.229 . S
C4 O5 1.229 . S
C4 O17 1.058 . S
O5 C4 1.229 . S
O6 Zn0 1.969 . S
O6 C9 1.267 . S
O7 Zn0 1.965 1_455 S
O7 C18 1.260 . S
O8 Zn1 1.969 1_546 S
O8 C18 1.258 . S
C9 O6 1.267 . S
C9 O10 1.228 . S
O10 C9 1.228 . S
O11 Zn0 2.024 1_554 S
O11 C2 1.058 . S
C12 O13 1.228 . S
C12 O14 1.267 . S
O13 C12 1.228 . S
O14 Zn1 1.969 . S
O14 C12 1.267 . S
O15 Zn1 1.965 1_655 S
O15 C19 1.260 . S
O16 Zn0 1.969 1_564 S
O16 C19 1.258 . S
O17 Zn1 2.024 1_556 S
O17 C4 1.058 . S
C18 O7 1.260 . S
C18 O8 1.258 . S
C19 O15 1.260 . S
C19 O16 1.258 . S
Zn20 O26 1.969 . S
Zn20 O27 1.965 . S
Zn20 O31 2.024 . S
Zn20 O36 1.969 . S
Zn21 O28 1.969 . S
Zn21 O34 1.969 . S
Zn21 O35 1.965 . S
Zn21 O37 2.024 . S
C22 O23 1.229 . S
C22 O31 1.058 . S
O23 C22 1.229 . S
C24 O25 1.229 . S
C24 O37 1.058 . S
O25 C24 1.229 . S
O26 Zn20 1.969 . S
O26 C29 1.267 . S
O27 Zn20 1.965 . S
O27 C38 1.260 . S
O28 Zn21 1.969 . S
O28 C38 1.258 . S
C29 O26 1.267 . S
C29 O30 1.228 . S
O30 C29 1.228 . S
O31 Zn20 2.024 . S
O31 C22 1.058 . S
C32 O33 1.228 . S
C32 O34 1.267 . S
O33 C32 1.228 . S
O34 Zn21 1.969 . S
O34 C32 1.267 . S
O35 Zn21 1.965 . S
O35 C39 1.260 . S
O36 Zn20 1.969 . S
O36 C39 1.258 . S
O37 Zn21 2.024 . S
O37 C24 1.058 . S
C38 O27 1.260 . S
C38 O28 1.258 . S
C39 O35 1.260 . S
C39 O36 1.258 . S
Zn40 O46 1.969 . S
Zn40 O47 1.965 . S
Zn40 O51 2.024 . S
Zn40 O56 1.969 1_565 S
Zn41 O48 1.969 1_545 S
Zn41 O54 1.969 . S
Zn41 O55 1.965 . S
Zn41 O57 2.024 . S
C42 O43 1.229 . S
C42 O51 1.058 . S
O43 C42 1.229 . S
C44 O45 1.229 . S
C44 O57 1.058 . S
O45 C44 1.229 . S
O46 Zn40 1.969 . S
O46 C49 1.267 . S
O47 Zn40 1.965 . S
O47 C58 1.260 . S
O48 Zn41 1.969 1_565 S
O48 C58 1.258 . S
C49 O46 1.267 . S
C49 O50 1.228 . S
O50 C49 1.228 . S
O51 Zn40 2.024 . S
O51 C42 1.058 . S
C52 O53 1.228 . S
C52 O54 1.267 . S
O53 C52 1.228 . S
O54 Zn41 1.969 . S
O54 C52 1.267 . S
O55 Zn41 1.965 . S
O55 C59 1.260 . S
O56 Zn40 1.969 1_545 S
O56 C59 1.258 . S
O57 Zn41 2.024 . S
O57 C44 1.058 . S
C58 O47 1.260 . S
C58 O48 1.258 . S
C59 O55 1.260 . S
C59 O56 1.258 . S
Zn60 O66 1.969 . S
Zn60 O67 1.965 . S
Zn60 O71 2.024 . S
Zn60 O76 1.969 . S
Zn61 O68 1.969 . S
Zn61 O74 1.969 . S
Zn61 O75 1.965 . S
Zn61 O77 2.024 . S
C62 O63 1.229 . S
C62 O71 1.058 . S
O63 C62 1.229 . S
C64 O65 1.229 . S
C64 O77 1.058 . S
O65 C64 1.229 . S
O66 Zn60 1.969 . S
O66 C69 1.267 . S
O67 Zn60 1.965 . S
O67 C78 1.260 . S
O68 Zn61 1.969 . S
O68 C78 1.258 . S
C69 O66 1.267 . S
C69 O70 1.228 . S
O70 C69 1.228 . S
O71 Zn60 2.024 . S
O71 C62 1.058 . S
C72 O73 1.228 . S
C72 O74 1.267 . S
O73 C72 1.228 . S
O74 Zn61 1.969 . S
O74 C72 1.267 . S
O75 Zn61 1.965 . S
O75 C79 1.260 . S
O76 Zn60 1.969 . S
O76 C79 1.258 . S
O77 Zn61 2.024 . S
O77 C64 1.058 . S
C78 O67 1.260 . S
C78 O68 1.258 . S
C79 O75 1.260 . S
C79 O76 1.258 . S
Zn80 O86 1.969 . S
Zn80 O87 1.965 . S
Zn80 O91 2.024 1_455 S
Zn80 O96 1.969 1_445 S
Zn81 O88 1.969 1_665 S
Zn81 O94 1.969 . S
Zn81 O95 1.965 . S
Zn81 O97 2.024 1_655 S
C82 O83 1.229 . S
C82 O91 1.058 . S
O83 C82 1.229 . S
C84 O85 1.229 . S
C84 O97 1.058 . S
O85 C84 1.229 . S
O86 Zn80 1.969 . S
O86 C89 1.267 . S
O87 Zn80 1.965 . S
O87 C98 1.260 . S
O88 Zn81 1.969 1_445 S
O88 C98 1.258 . S
C89 O86 1.267 . S
C89 O90 1.228 . S
O90 C89 1.228 . S
O91 Zn80 2.024 1_655 S
O91 C82 1.058 . S
C92 O93 1.228 . S
C92 O94 1.267 . S
O93 C92 1.228 . S
O94 Zn81 1.969 . S
O94 C92 1.267 . S
O95 Zn81 1.965 . S
O95 C99 1.260 . S
O96 Zn80 1.969 1_665 S
O96 C99 1.258 . S
O97 Zn81 2.024 1_455 S
O97 C84 1.058 . S
C98 O87 1.260 . S
C98 O88 1.258 . S
C99 O95 1.260 . S
C99 O96 1.258 . S
Zn100 O106 1.969 . S
Zn100 O107 1.965 . S
Zn100 O111 2.024 . S
Zn100 O116 1.969 . S
Zn101 O108 1.969 . S
Zn101 O114 1.969 . S
Zn101 O115 1.965 . S
Zn101 O117 2.024 . S
C102 O103 1.229 . S
C102 O111 1.058 . S
O103 C102 1.229 . S
C104 O105 1.229 . S
C104 O117 1.058 . S
O105 C104 1.229 . S
O106 Zn100 1.969 . S
O106 C109 1.267 . S
O107 Zn100 1.965 . S
O107 C118 1.260 . S
O108 Zn101 1.969 . S
O108 C118 1.258 . S
C109 O106 1.267 . S
C109 O110 1.228 . S
O110 C109 1.228 . S
O111 Zn100 2.024 . S
O111 C102 1.058 . S
C112 O113 1.228 . S
C112 O114 1.267 . S
O113 C112 1.228 . S
O114 Zn101 1.969 . S
O114 C112 1.267 . S
O115 Zn101 1.965 . S
O115 C119 1.260 . S
O116 Zn100 1.969 . S
O116 C119 1.258 . S
O117 Zn101 2.024 . S
O117 C104 1.058 . S
C118 O107 1.260 . S
C118 O108 1.258 . S
C119 O115 1.260 . S
C119 O116 1.258 . S
Zn120 O126 1.969 . S
Zn120 O127 1.965 . S
Zn120 O131 2.024 1_545 S
Zn120 O136 1.969 1_544 S
Zn121 O128 1.969 1_566 S
Zn121 O134 1.969 . S
Zn121 O135 1.965 . S
Zn121 O137 2.024 1_565 S
C122 O123 1.229 . S
C122 O131 1.058 . S
O123 C122 1.229 . S
C124 O125 1.229 . S
C124 O137 1.058 . S
O125 C124 1.229 . S
O126 Zn120 1.969 . S
O126 C129 1.267 . S
O127 Zn120 1.965 . S
O127 C138 1.260 . S
O128 Zn121 1.969 1_544 S
O128 C138 1.258 . S
C129 O126 1.267 . S
C129 O130 1.228 . S
O130 C129 1.228 . S
O131 Zn120 2.024 1_565 S
O131 C122 1.058 . S
C132 O133 1.228 . S
C132 O134 1.267 . S
O133 C132 1.228 . S
O134 Zn121 1.969 . S
O134 C132 1.267 . S
O135 Zn121 1.965 . S
O135 C139 1.260 . S
O136 Zn120 1.969 1_566 S
O136 C139 1.258 . S
O137 Zn121 2.024 1_545 S
O137 C124 1.058 . S
C138 O127 1.260 . S
C138 O128 1.258 . S
C139 O135 1.260 . S
C139 O136 1.258 . S
Zn140 O146 1.969 . S
Zn140 O147 1.965 . S
Zn140 O151 2.024 . S
Zn140 O156 1.969 . S
Zn141 O148 1.969 . S
Zn141 O154 1.969 . S
Zn141 O155 1.965 . S
Zn141 O157 2.024 . S
C142 O143 1.229 . S
C142 O151 1.058 . S
O143 C142 1.229 . S
C144 O145 1.229 . S
C144 O157 1.058 . S
O145 C144 1.229 . S
O146 Zn140 1.969 . S
O146 C149 1.267 . S
O147 Zn140 1.965 . S
O147 C158 1.260 . S
O148 Zn141 1.969 . S
O148 C158 1.258 . S
C149 O146 1.267 . S
C149 O150 1.228 . S
O150 C149 1.228 . S
O151 Zn140 2.024 . S
O151 C142 1.058 . S
C152 O153 1.228 . S
C152 O154 1.267 . S
O153 C152 1.228 . S
O154 Zn141 1.969 . S
O154 C152 1.267 . S
O155 Zn141 1.965 . S
O155 C159 1.260 . S
O156 Zn140 1.969 . S
O156 C159 1.258 . S
O157 Zn141 2.024 . S
O157 C144 1.058 . S
C158 O147 1.260 . S
C158 O148 1.258 . S
C159 O155 1.260 . S
C159 O156 1.258 . S
Zn160 O166 1.969 . S
Zn160 O167 1.965 1_556 S
Zn160 O171 2.024 . S
Zn160 O176 1.969 . S
Zn161 O168 1.969 . S
Zn161 O174 1.969 . S
Zn161 O175 1.965 1_554 S
Zn161 O177 2.024 . S
C162 O163 1.229 . S
C162 O171 1.058 . S
O163 C162 1.229 . S
C164 O165 1.229 . S
C164 O177 1.058 . S
O165 C164 1.229 . S
O166 Zn160 1.969 . S
O166 C169 1.267 . S
O167 Zn160 1.965 1_554 S
O167 C178 1.260 . S
O168 Zn161 1.969 . S
O168 C178 1.258 . S
C169 O166 1.267 . S
C169 O170 1.228 . S
O170 C169 1.228 . S
O171 Zn160 2.024 . S
O171 C162 1.058 . S
C172 O173 1.228 . S
C172 O174 1.267 . S
O173 C172 1.228 . S
O174 Zn161 1.969 . S
O174 C172 1.267 . S
O175 Zn161 1.965 1_556 S
O175 C179 1.260 . S
O176 Zn160 1.969 . S
O176 C179 1.258 . S
O177 Zn161 2.024 . S
O177 C164 1.058 . S
C178 O167 1.260 . S
C178 O168 1.258 . S
C179 O175 1.260 . S
C179 O176 1.258 . S
Zn180 O186 1.969 . S
Zn180 O187 1.965 . S
Zn180 O191 2.024 . S
Zn180 O196 1.969 . S
Zn181 O188 1.969 . S
Zn181 O194 1.969 . S
Zn181 O195 1.965 . S
Zn181 O197 2.024 . S
C182 O183 1.229 . S
C182 O191 1.058 . S
O183 C182 1.229 . S
C184 O185 1.229 . S
C184 O197 1.058 . S
O185 C184 1.229 . S
O186 Zn180 1.969 . S
O186 C189 1.267 . S
O187 Zn180 1.965 . S
O187 C198 1.260 . S
O188 Zn181 1.969 . S
O188 C198 1.258 . S
C189 O186 1.267 . S
C189 O190 1.228 . S
O190 C189 1.228 . S
O191 Zn180 2.024 . S
O191 C182 1.058 . S
C192 O193 1.228 . S
C192 O194 1.267 . S
O193 C192 1.228 . S
O194 Zn181 1.969 . S
O194 C192 1.267 . S
O195 Zn181 1.965 . S
O195 C199 1.260 . S
O196 Zn180 1.969 . S
O196 C199 1.258 . S
O197 Zn181 2.024 . S
O197 C184 1.058 . S
C198 O187 1.260 . S
C198 O188 1.258 . S
C199 O195 1.260 . S
C199 O196 1.258 . S
Zn200 O206 1.969 . S
Zn200 O207 1.965 1_655 S
Zn200 O211 2.024 . S
Zn200 O216 1.969 . S
Zn201 O208 1.969 . S
Zn201 O214 1.969 . S
Zn201 O215 1.965 1_455 S
Zn201 O217 2.024 . S
C202 O203 1.229 . S
C202 O211 1.058 . S
O203 C202 1.229 . S
C204 O205 1.229 . S
C204 O217 1.058 . S
O205 C204 1.229 . S
O206 Zn200 1.969 . S
O206 C209 1.267 . S
O207 Zn200 1.965 1_455 S
O207 C218 1.260 . S
O208 Zn201 1.969 . S
O208 C218 1.258 . S
C209 O206 1.267 . S
C209 O210 1.228 . S
O210 C209 1.228 . S
O211 Zn200 2.024 . S
O211 C202 1.058 . S
C212 O213 1.228 . S
C212 O214 1.267 . S
O213 C212 1.228 . S
O214 Zn201 1.969 . S
O214 C212 1.267 . S
O215 Zn201 1.965 1_655 S
O215 C219 1.260 . S
O216 Zn200 1.969 . S
O216 C219 1.258 . S
O217 Zn201 2.024 . S
O217 C204 1.058 . S
C218 O207 1.260 . S
C218 O208 1.258 . S
C219 O215 1.260 . S
C219 O216 1.258 . S
Zn220 O226 1.969 . S
Zn220 O227 1.965 . S
Zn220 O231 2.024 . S
Zn220 O236 1.969 . S
Zn221 O228 1.969 . S
Zn221 O234 1.969 . S
Zn221 O235 1.965 . S
Zn221 O237 2.024 . S
C222 O223 1.229 . S
C222 O231 1.058 . S
O223 C222 1.229 . S
C224 O225 1.229 . S
C224 O237 1.058 . S
O225 C224 1.229 . S
O226 Zn220 1.969 . S
O226 C229 1.267 . S
O227 Zn220 1.965 . S
O227 C238 1.260 . S
O228 Zn221 1.969 . S
O228 C238 1.258 . S
C229 O226 1.267 . S
C229 O230 1.228 . S
O230 C229 1.228 . S
O231 Zn220 2.024 . S
O231 C222 1.058 . S
C232 O233 1.228 . S
C232 O234 1.267 . S
O233 C232 1.228 . S
O234 Zn221 1.969 . S
O234 C232 1.267 . S
O235 Zn221 1.965 . S
O235 C239 1.260 . S
O236 Zn220 1.969 . S
O236 C239 1.258 . S
O237 Zn221 2.024 . S
O237 C224 1.058 . S
C238 O227 1.260 . S
C238 O228 1.258 . S
C239 O235 1.260 . S
C239 O236 1.258 . S
Zn240 O246 1.969 . S
Zn240 O247 1.965 . S
Zn240 O251 2.024 . S
Zn240 O256 1.969 . S
Zn241 O248 1.969 . S
Zn241 O254 1.969 . S
Zn241 O255 1.965 . S
Zn241 O257 2.024 . S
C242 O243 1.229 . S
C242 O251 1.058 . S
O243 C242 1.229 . S
C244 O245 1.229 . S
C244 O257 1.058 . S
O245 C244 1.229 . S
O246 Zn240 1.969 . S
O246 C249 1.267 . S
O247 Zn240 1.965 . S
O247 C258 1.260 . S
O248 Zn241 1.969 . S
O248 C258 1.258 . S
C249 O246 1.267 . S
C249 O250 1.228 . S
O250 C249 1.228 . S
O251 Zn240 2.024 . S
O251 C242 1.058 . S
C252 O253 1.228 . S
C252 O254 1.267 . S
O253 C252 1.228 . S
O254 Zn241 1.969 . S
O254 C252 1.267 . S
O255 Zn241 1.965 . S
O255 C259 1.260 . S
O256 Zn240 1.969 . S
O256 C259 1.258 . S
O257 Zn241 2.024 . S
O257 C244 1.058 . S
C258 O247 1.260 . S
C258 O248 1.258 . S
C259 O255 1.260 . S
C259 O256 1.258 . S
Zn260 O266 1.969 . S
Zn260 O267 1.965 . S
Zn260 O271 2.024 . S
Zn260 O276 1.969 . S
Zn261 O268 1.969 . S
Zn261 O274 1.969 . S
Zn261 O275 1.965 . S
Zn261 O277 2.024 . S
C262 O263 1.229 . S
C262 O271 1.058 . S
O263 C262 1.229 . S
C264 O265 1.229 . S
C264 O277 1.058 . S
O265 C264 1.229 . S
O266 Zn260 1.969 . S
O266 C269 1.267 . S
O267 Zn260 1.965 . S
O267 C278 1.260 . S
O268 Zn261 1.969 . S
O268 C278 1.258 . S
C269 O266 1.267 . S
C269 O270 1.228 . S
O270 C269 1.228 . S
O271 Zn260 2.024 . S
O271 C262 1.058 . S
C272 O273 1.228 . S
C272 O274 1.267 . S
O273 C272 1.228 . S
O274 Zn261 1.969 . S
O274 C272 1.267 . S
O275 Zn261 1.965 . S
O275 C279 1.260 . S
O276 Zn260 1.969 . S
O276 C279 1.258 . S
O277 Zn261 2.024 . S
O277 C264 1.058 . S
C278 O267 1.260 . S
C278 O268 1.258 . S
C279 O275 1.260 . S
C279 O276 1.258 . S
Zn280 O286 1.969 . S
Zn280 O287 1.965 . S
Zn280 O291 2.024 . S
Zn280 O296 1.969 . S
Zn281 O288 1.969 . S
Zn281 O294 1.969 . S
Zn281 O295 1.965 . S
Zn281 O297 2.024 . S
C282 O283 1.229 . S
C282 O291 1.058 . S
O283 C282 1.229 . S
C284 O285 1.229 . S
C284 O297 1.058 . S
O285 C284 1.229 . S
O286 Zn280 1.969 . S
O286 C289 1.267 . S
O287 Zn280 1.965 . S
O287 C298 1.260 . S
O288 Zn281 1.969 . S
O288 C298 1.258 . S
C289 O286 1.267 . S
C289 O290 1.228 . S
O290 C289 1.228 . S
O291 Zn280 2.024 . S
O291 C282 1.058 . S
C292 O293 1.228 . S
C292 O294 1.267 . S
O293 C292 1.228 . S
O294 Zn281 1.969 . S
O294 C292 1.267 . S
O295 Zn281 1.965 . S
O295 C299 1.260 . S
O296 Zn280 1.969 . S
O296 C299 1.258 . S
O297 Zn281 2.024 . S
O297 C284 1.058 . S
C298 O287 1.260 . S
C298 O288 1.258 . S
C299 O295 1.260 . S
C299 O296 1.258 . S
Zn300 O306 1.969 . S
Zn300 O307 1.965 . S
Zn300 O311 2.024 1_554 S
Zn300 O316 1.969 1_454 S
Zn301 O308 1.969 1_656 S
Zn301 O314 1.969 . S
Zn301 O315 1.965 . S
Zn301 O317 2.024 1_556 S
C302 O303 1.229 . S
C302 O311 1.058 . S
O303 C302 1.229 . S
C304 O305 1.229 . S
C304 O317 1.058 . S
O305 C304 1.229 . S
O306 Zn300 1.969 . S
O306 C309 1.267 . S
O307 Zn300 1.965 . S
O307 C318 1.260 . S
O308 Zn301 1.969 1_454 S
O308 C318 1.258 . S
C309 O306 1.267 . S
C309 O310 1.228 . S
O310 C309 1.228 . S
O311 Zn300 2.024 1_556 S
O311 C302 1.058 . S
C312 O313 1.228 . S
C312 O314 1.267 . S
O313 C312 1.228 . S
O314 Zn301 1.969 . S
O314 C312 1.267 . S
O315 Zn301 1.965 . S
O315 C319 1.260 . S
O316 Zn300 1.969 1_656 S
O316 C319 1.258 . S
O317 Zn301 2.024 1_554 S
O317 C304 1.058 . S
C318 O307 1.260 . S
C318 O308 1.258 . S
C319 O315 1.260 . S
C319 O316 1.258 . S
H320 C338 0.951 . S
H321 C340 0.951 . S
H322 C342 0.950 . S
H323 C343 0.950 . S
H324 C345 0.950 . S
H325 C348 0.950 . S
H326 C349 0.950 . S
H327 C351 0.950 . S
H328 C352 0.950 . S
H329 C353 0.951 1_554 S
H330 C355 0.951 . S
H331 C357 0.950 . S
H332 C358 0.950 . S
H333 C360 0.950 . S
H334 C363 0.950 . S
H335 C364 0.950 . S
H336 C366 0.950 1_554 S
H337 C367 0.950 . S
C338 H320 0.951 . S
C338 C339 1.366 . S
C338 C340 1.388 . S
C339 C338 1.366 . S
C339 C343 1.385 . S
C340 H321 0.951 . S
C340 C338 1.388 . S
C340 C341 1.366 . S
C341 C340 1.366 . S
C341 C342 1.414 . S
C341 C344 1.499 . S
C342 H322 0.950 . S
C342 C341 1.414 . S
C342 C343 1.374 . S
C343 H323 0.950 . S
C343 C339 1.385 . S
C343 C342 1.374 . S
C344 C341 1.499 . S
C344 C345 1.373 . S
C344 C346 1.389 . S
C345 H324 0.950 . S
C345 C344 1.373 . S
C345 C361 1.377 . S
C346 C344 1.389 . S
C346 C347 1.524 . S
C346 C360 1.377 . S
C347 C346 1.524 . S
C347 C348 1.397 . S
C347 C352 1.363 . S
C348 H325 0.950 . S
C348 C347 1.397 . S
C348 C349 1.334 . S
C349 H326 0.950 . S
C349 C348 1.334 . S
C349 C350 1.287 . S
C350 C349 1.287 . S
C350 C351 1.524 . S
C350 H369 0.913 . S
C351 H327 0.950 . S
C351 C350 1.524 . S
C351 C352 1.415 . S
C352 H328 0.950 . S
C352 C347 1.363 . S
C352 C351 1.415 . S
C353 H329 0.951 1_556 S
C353 C354 1.366 . S
C353 C355 1.388 . S
C354 C353 1.366 . S
C354 C358 1.385 . S
C355 H330 0.951 . S
C355 C353 1.388 . S
C355 C356 1.366 . S
C356 C355 1.366 . S
C356 C357 1.414 . S
C356 C359 1.499 . S
C357 H331 0.950 . S
C357 C356 1.414 . S
C357 C358 1.374 . S
C358 H332 0.950 . S
C358 C354 1.385 . S
C358 C357 1.374 . S
C359 C356 1.499 . S
C359 C360 1.373 . S
C359 C361 1.389 . S
C360 H333 0.950 . S
C360 C346 1.377 . S
C360 C359 1.373 . S
C361 C345 1.377 . S
C361 C359 1.389 . S
C361 C362 1.524 . S
C362 C361 1.524 . S
C362 C363 1.397 . S
C362 C367 1.363 . S
C363 H334 0.950 . S
C363 C362 1.397 . S
C363 C364 1.334 . S
C364 H335 0.950 . S
C364 C363 1.334 . S
C364 C365 1.287 . S
C365 C364 1.287 . S
C365 C366 1.524 . S
C365 H368 0.999 . S
C366 H336 0.950 1_556 S
C366 C365 1.524 . S
C366 C367 1.415 . S
C367 H337 0.950 . S
C367 C362 1.363 . S
C367 C366 1.415 . S
H368 C365 0.999 . S
H369 C350 0.913 . S
H370 C388 0.951 . S
H371 C390 0.951 . S
H372 C392 0.950 . S
H373 C393 0.950 . S
H374 C395 0.950 . S
H375 C398 0.950 . S
H376 C399 0.950 . S
H377 C401 0.950 . S
H378 C402 0.950 . S
H379 C403 0.951 . S
H380 C405 0.951 . S
H381 C407 0.950 . S
H382 C408 0.950 . S
H383 C410 0.950 . S
H384 C413 0.950 . S
H385 C414 0.950 . S
H386 C416 0.950 . S
H387 C417 0.950 . S
C388 H370 0.951 . S
C388 C389 1.366 . S
C388 C390 1.388 . S
C389 C388 1.366 . S
C389 C393 1.385 . S
C390 H371 0.951 . S
C390 C388 1.388 . S
C390 C391 1.366 . S
C391 C390 1.366 . S
C391 C392 1.414 . S
C391 C394 1.499 . S
C392 H372 0.950 . S
C392 C391 1.414 . S
C392 C393 1.374 . S
C393 H373 0.950 . S
C393 C389 1.385 . S
C393 C392 1.374 . S
C394 C391 1.499 . S
C394 C395 1.373 . S
C394 C396 1.389 . S
C395 H374 0.950 . S
C395 C394 1.373 . S
C395 C411 1.377 . S
C396 C394 1.389 . S
C396 C397 1.524 . S
C396 C410 1.377 . S
C397 C396 1.524 . S
C397 C398 1.397 . S
C397 C402 1.363 . S
C398 H375 0.950 . S
C398 C397 1.397 . S
C398 C399 1.334 . S
C399 H376 0.950 . S
C399 C398 1.334 . S
C399 C400 1.287 . S
C400 C399 1.287 . S
C400 C401 1.524 . S
C400 H419 0.913 . S
C401 H377 0.950 . S
C401 C400 1.524 . S
C401 C402 1.415 . S
C402 H378 0.950 . S
C402 C397 1.363 . S
C402 C401 1.415 . S
C403 H379 0.951 . S
C403 C404 1.366 . S
C403 C405 1.388 . S
C404 C403 1.366 . S
C404 C408 1.385 . S
C405 H380 0.951 . S
C405 C403 1.388 . S
C405 C406 1.366 . S
C406 C405 1.366 . S
C406 C407 1.414 . S
C406 C409 1.499 . S
C407 H381 0.950 . S
C407 C406 1.414 . S
C407 C408 1.374 . S
C408 H382 0.950 . S
C408 C404 1.385 . S
C408 C407 1.374 . S
C409 C406 1.499 . S
C409 C410 1.373 . S
C409 C411 1.389 . S
C410 H383 0.950 . S
C410 C396 1.377 . S
C410 C409 1.373 . S
C411 C395 1.377 . S
C411 C409 1.389 . S
C411 C412 1.524 . S
C412 C411 1.524 . S
C412 C413 1.397 . S
C412 C417 1.363 . S
C413 H384 0.950 . S
C413 C412 1.397 . S
C413 C414 1.334 . S
C414 H385 0.950 . S
C414 C413 1.334 . S
C414 C415 1.287 . S
C415 C414 1.287 . S
C415 C416 1.524 . S
C415 H418 0.999 . S
C416 H386 0.950 . S
C416 C415 1.524 . S
C416 C417 1.415 . S
C417 H387 0.950 . S
C417 C412 1.363 . S
C417 C416 1.415 . S
H418 C415 0.999 . S
H419 C400 0.913 . S
H420 C438 0.951 . S
H421 C440 0.951 . S
H422 C442 0.950 . S
H423 C443 0.950 . S
H424 C445 0.950 . S
H425 C448 0.950 . S
H426 C449 0.950 . S
H427 C451 0.950 . S
H428 C452 0.950 . S
H429 C453 0.951 . S
H430 C455 0.951 . S
H431 C457 0.950 . S
H432 C458 0.950 . S
H433 C460 0.950 . S
H434 C463 0.950 . S
H435 C464 0.950 . S
H436 C466 0.950 . S
H437 C467 0.950 . S
C438 H420 0.951 . S
C438 C439 1.366 . S
C438 C440 1.388 . S
C439 C438 1.366 . S
C439 C443 1.385 . S
C440 H421 0.951 . S
C440 C438 1.388 . S
C440 C441 1.366 . S
C441 C440 1.366 . S
C441 C442 1.414 . S
C441 C444 1.499 . S
C442 H422 0.950 . S
C442 C441 1.414 . S
C442 C443 1.374 . S
C443 H423 0.950 . S
C443 C439 1.385 . S
C443 C442 1.374 . S
C444 C441 1.499 . S
C444 C445 1.373 . S
C444 C446 1.389 . S
C445 H424 0.950 . S
C445 C444 1.373 . S
C445 C461 1.377 . S
C446 C444 1.389 . S
C446 C447 1.524 . S
C446 C460 1.377 . S
C447 C446 1.524 . S
C447 C448 1.397 . S
C447 C452 1.363 . S
C448 H425 0.950 . S
C448 C447 1.397 . S
C448 C449 1.334 . S
C449 H426 0.950 . S
C449 C448 1.334 . S
C449 C450 1.287 . S
C450 C449 1.287 . S
C450 C451 1.524 . S
C450 H469 0.913 . S
C451 H427 0.950 . S
C451 C450 1.524 . S
C451 C452 1.415 . S
C452 H428 0.950 . S
C452 C447 1.363 . S
C452 C451 1.415 . S
C453 H429 0.951 . S
C453 C454 1.366 . S
C453 C455 1.388 . S
C454 C453 1.366 . S
C454 C458 1.385 . S
C455 H430 0.951 . S
C455 C453 1.388 . S
C455 C456 1.366 . S
C456 C455 1.366 . S
C456 C457 1.414 . S
C456 C459 1.499 . S
C457 H431 0.950 . S
C457 C456 1.414 . S
C457 C458 1.374 . S
C458 H432 0.950 . S
C458 C454 1.385 . S
C458 C457 1.374 . S
C459 C456 1.499 . S
C459 C460 1.373 . S
C459 C461 1.389 . S
C460 H433 0.950 . S
C460 C446 1.377 . S
C460 C459 1.373 . S
C461 C445 1.377 . S
C461 C459 1.389 . S
C461 C462 1.524 . S
C462 C461 1.524 . S
C462 C463 1.397 . S
C462 C467 1.363 . S
C463 H434 0.950 . S
C463 C462 1.397 . S
C463 C464 1.334 . S
C464 H435 0.950 . S
C464 C463 1.334 . S
C464 C465 1.287 . S
C465 C464 1.287 . S
C465 C466 1.524 . S
C465 H468 0.999 . S
C466 H436 0.950 . S
C466 C465 1.524 . S
C466 C467 1.415 . S
C467 H437 0.950 . S
C467 C462 1.363 . S
C467 C466 1.415 . S
H468 C465 0.999 . S
H469 C450 0.913 . S
H470 C488 0.951 . S
H471 C490 0.951 . S
H472 C492 0.950 . S
H473 C493 0.950 . S
H474 C495 0.950 . S
H475 C498 0.950 . S
H476 C499 0.950 . S
H477 C501 0.950 . S
H478 C502 0.950 . S
H479 C503 0.951 . S
H480 C505 0.951 . S
H481 C507 0.950 . S
H482 C508 0.950 . S
H483 C510 0.950 . S
H484 C513 0.950 . S
H485 C514 0.950 . S
H486 C516 0.950 . S
H487 C517 0.950 . S
C488 H470 0.951 . S
C488 C489 1.366 . S
C488 C490 1.388 . S
C489 C488 1.366 . S
C489 C493 1.385 . S
C490 H471 0.951 . S
C490 C488 1.388 . S
C490 C491 1.366 . S
C491 C490 1.366 . S
C491 C492 1.414 . S
C491 C494 1.499 . S
C492 H472 0.950 . S
C492 C491 1.414 . S
C492 C493 1.374 . S
C493 H473 0.950 . S
C493 C489 1.385 . S
C493 C492 1.374 . S
C494 C491 1.499 . S
C494 C495 1.373 . S
C494 C496 1.389 . S
C495 H474 0.950 . S
C495 C494 1.373 . S
C495 C511 1.377 . S
C496 C494 1.389 . S
C496 C497 1.524 . S
C496 C510 1.377 . S
C497 C496 1.524 . S
C497 C498 1.397 . S
C497 C502 1.363 . S
C498 H475 0.950 . S
C498 C497 1.397 . S
C498 C499 1.334 . S
C499 H476 0.950 . S
C499 C498 1.334 . S
C499 C500 1.287 . S
C500 C499 1.287 . S
C500 C501 1.524 . S
C500 H519 0.913 . S
C501 H477 0.950 . S
C501 C500 1.524 . S
C501 C502 1.415 . S
C502 H478 0.950 . S
C502 C497 1.363 . S
C502 C501 1.415 . S
C503 H479 0.951 . S
C503 C504 1.366 . S
C503 C505 1.388 . S
C504 C503 1.366 . S
C504 C508 1.385 . S
C505 H480 0.951 . S
C505 C503 1.388 . S
C505 C506 1.366 . S
C506 C505 1.366 . S
C506 C507 1.414 . S
C506 C509 1.499 . S
C507 H481 0.950 . S
C507 C506 1.414 . S
C507 C508 1.374 . S
C508 H482 0.950 . S
C508 C504 1.385 . S
C508 C507 1.374 . S
C509 C506 1.499 . S
C509 C510 1.373 . S
C509 C511 1.389 . S
C510 H483 0.950 . S
C510 C496 1.377 . S
C510 C509 1.373 . S
C511 C495 1.377 . S
C511 C509 1.389 . S
C511 C512 1.524 . S
C512 C511 1.524 . S
C512 C513 1.397 . S
C512 C517 1.363 . S
C513 H484 0.950 . S
C513 C512 1.397 . S
C513 C514 1.334 . S
C514 H485 0.950 . S
C514 C513 1.334 . S
C514 C515 1.287 . S
C515 C514 1.287 . S
C515 C516 1.524 . S
C515 H518 0.999 . S
C516 H486 0.950 . S
C516 C515 1.524 . S
C516 C517 1.415 . S
C517 H487 0.950 . S
C517 C512 1.363 . S
C517 C516 1.415 . S
H518 C515 0.999 . S
H519 C500 0.913 . S
H520 C538 0.951 . S
H521 C540 0.951 . S
H522 C542 0.950 . S
H523 C543 0.950 . S
H524 C545 0.950 . S
H525 C548 0.950 . S
H526 C549 0.950 . S
H527 C551 0.950 . S
H528 C552 0.950 . S
H529 C553 0.951 . S
H530 C555 0.951 . S
H531 C557 0.950 . S
H532 C558 0.950 . S
H533 C560 0.950 . S
H534 C563 0.950 . S
H535 C564 0.950 . S
H536 C566 0.950 . S
H537 C567 0.950 . S
C538 H520 0.951 . S
C538 C539 1.366 . S
C538 C540 1.388 . S
C539 C538 1.366 . S
C539 C543 1.385 . S
C540 H521 0.951 . S
C540 C538 1.388 . S
C540 C541 1.366 . S
C541 C540 1.366 . S
C541 C542 1.414 . S
C541 C544 1.499 . S
C542 H522 0.950 . S
C542 C541 1.414 . S
C542 C543 1.374 . S
C543 H523 0.950 . S
C543 C539 1.385 . S
C543 C542 1.374 . S
C544 C541 1.499 . S
C544 C545 1.373 . S
C544 C546 1.389 . S
C545 H524 0.950 . S
C545 C544 1.373 . S
C545 C561 1.377 . S
C546 C544 1.389 . S
C546 C547 1.524 . S
C546 C560 1.377 . S
C547 C546 1.524 . S
C547 C548 1.397 . S
C547 C552 1.363 . S
C548 H525 0.950 . S
C548 C547 1.397 . S
C548 C549 1.334 . S
C549 H526 0.950 . S
C549 C548 1.334 . S
C549 C550 1.287 . S
C550 C549 1.287 . S
C550 C551 1.524 . S
C550 H569 0.913 . S
C551 H527 0.950 . S
C551 C550 1.524 . S
C551 C552 1.415 . S
C552 H528 0.950 . S
C552 C547 1.363 . S
C552 C551 1.415 . S
C553 H529 0.951 . S
C553 C554 1.366 . S
C553 C555 1.388 . S
C554 C553 1.366 . S
C554 C558 1.385 . S
C555 H530 0.951 . S
C555 C553 1.388 . S
C555 C556 1.366 . S
C556 C555 1.366 . S
C556 C557 1.414 . S
C556 C559 1.499 . S
C557 H531 0.950 . S
C557 C556 1.414 . S
C557 C558 1.374 . S
C558 H532 0.950 . S
C558 C554 1.385 . S
C558 C557 1.374 . S
C559 C556 1.499 . S
C559 C560 1.373 . S
C559 C561 1.389 . S
C560 H533 0.950 . S
C560 C546 1.377 . S
C560 C559 1.373 . S
C561 C545 1.377 . S
C561 C559 1.389 . S
C561 C562 1.524 . S
C562 C561 1.524 . S
C562 C563 1.397 . S
C562 C567 1.363 . S
C563 H534 0.950 . S
C563 C562 1.397 . S
C563 C564 1.334 . S
C564 H535 0.950 . S
C564 C563 1.334 . S
C564 C565 1.287 . S
C565 C564 1.287 . S
C565 C566 1.524 . S
C565 H568 0.999 . S
C566 H536 0.950 . S
C566 C565 1.524 . S
C566 C567 1.415 . S
C567 H537 0.950 . S
C567 C562 1.363 . S
C567 C566 1.415 . S
H568 C565 0.999 . S
H569 C550 0.913 . S
H570 C588 0.951 . S
H571 C590 0.951 . S
H572 C592 0.950 . S
H573 C593 0.950 . S
H574 C595 0.950 . S
H575 C598 0.950 . S
H576 C599 0.950 . S
H577 C601 0.950 . S
H578 C602 0.950 . S
H579 C603 0.951 . S
H580 C605 0.951 . S
H581 C607 0.950 . S
H582 C608 0.950 . S
H583 C610 0.950 . S
H584 C613 0.950 . S
H585 C614 0.950 . S
H586 C616 0.950 . S
H587 C617 0.950 . S
C588 H570 0.951 . S
C588 C589 1.366 . S
C588 C590 1.388 . S
C589 C588 1.366 . S
C589 C593 1.385 . S
C590 H571 0.951 . S
C590 C588 1.388 . S
C590 C591 1.366 . S
C591 C590 1.366 . S
C591 C592 1.414 . S
C591 C594 1.499 . S
C592 H572 0.950 . S
C592 C591 1.414 . S
C592 C593 1.374 . S
C593 H573 0.950 . S
C593 C589 1.385 . S
C593 C592 1.374 . S
C594 C591 1.499 . S
C594 C595 1.373 . S
C594 C596 1.389 . S
C595 H574 0.950 . S
C595 C594 1.373 . S
C595 C611 1.377 . S
C596 C594 1.389 . S
C596 C597 1.524 . S
C596 C610 1.377 . S
C597 C596 1.524 . S
C597 C598 1.397 . S
C597 C602 1.363 . S
C598 H575 0.950 . S
C598 C597 1.397 . S
C598 C599 1.334 . S
C599 H576 0.950 . S
C599 C598 1.334 . S
C599 C600 1.287 . S
C600 C599 1.287 . S
C600 C601 1.524 . S
C600 H619 0.913 . S
C601 H577 0.950 . S
C601 C600 1.524 . S
C601 C602 1.415 . S
C602 H578 0.950 . S
C602 C597 1.363 . S
C602 C601 1.415 . S
C603 H579 0.951 . S
C603 C604 1.366 . S
C603 C605 1.388 . S
C604 C603 1.366 . S
C604 C608 1.385 . S
C605 H580 0.951 . S
C605 C603 1.388 . S
C605 C606 1.366 . S
C606 C605 1.366 . S
C606 C607 1.414 . S
C606 C609 1.499 . S
C607 H581 0.950 . S
C607 C606 1.414 . S
C607 C608 1.374 . S
C608 H582 0.950 . S
C608 C604 1.385 . S
C608 C607 1.374 . S
C609 C606 1.499 . S
C609 C610 1.373 . S
C609 C611 1.389 . S
C610 H583 0.950 . S
C610 C596 1.377 . S
C610 C609 1.373 . S
C611 C595 1.377 . S
C611 C609 1.389 . S
C611 C612 1.524 . S
C612 C611 1.524 . S
C612 C613 1.397 . S
C612 C617 1.363 . S
C613 H584 0.950 . S
C613 C612 1.397 . S
C613 C614 1.334 . S
C614 H585 0.950 . S
C614 C613 1.334 . S
C614 C615 1.287 . S
C615 C614 1.287 . S
C615 C616 1.524 . S
C615 H618 0.999 1_556 S
C616 H586 0.950 . S
C616 C615 1.524 . S
C616 C617 1.415 . S
C617 H587 0.950 . S
C617 C612 1.363 . S
C617 C616 1.415 . S
H618 C615 0.999 1_554 S
H619 C600 0.913 . S
H620 C638 0.951 . S
H621 C640 0.951 . S
H622 C642 0.950 . S
H623 C643 0.950 . S
H624 C645 0.950 . S
H625 C648 0.950 . S
H626 C649 0.950 . S
H627 C651 0.950 . S
H628 C652 0.950 . S
H629 C653 0.951 . S
H630 C655 0.951 . S
H631 C657 0.950 . S
H632 C658 0.950 . S
H633 C660 0.950 . S
H634 C663 0.950 . S
H635 C664 0.950 . S
H636 C666 0.950 . S
H637 C667 0.950 . S
C638 H620 0.951 . S
C638 C639 1.366 . S
C638 C640 1.388 . S
C639 C638 1.366 . S
C639 C643 1.385 . S
C640 H621 0.951 . S
C640 C638 1.388 . S
C640 C641 1.366 . S
C641 C640 1.366 . S
C641 C642 1.414 . S
C641 C644 1.499 . S
C642 H622 0.950 . S
C642 C641 1.414 . S
C642 C643 1.374 . S
C643 H623 0.950 . S
C643 C639 1.385 . S
C643 C642 1.374 . S
C644 C641 1.499 . S
C644 C645 1.373 . S
C644 C646 1.389 . S
C645 H624 0.950 . S
C645 C644 1.373 . S
C645 C661 1.377 . S
C646 C644 1.389 . S
C646 C647 1.524 . S
C646 C660 1.377 . S
C647 C646 1.524 . S
C647 C648 1.397 . S
C647 C652 1.363 . S
C648 H625 0.950 . S
C648 C647 1.397 . S
C648 C649 1.334 . S
C649 H626 0.950 . S
C649 C648 1.334 . S
C649 C650 1.287 . S
C650 C649 1.287 . S
C650 C651 1.524 . S
C650 H669 0.913 . S
C651 H627 0.950 . S
C651 C650 1.524 . S
C651 C652 1.415 . S
C652 H628 0.950 . S
C652 C647 1.363 . S
C652 C651 1.415 . S
C653 H629 0.951 . S
C653 C654 1.366 . S
C653 C655 1.388 . S
C654 C653 1.366 . S
C654 C658 1.385 . S
C655 H630 0.951 . S
C655 C653 1.388 . S
C655 C656 1.366 . S
C656 C655 1.366 . S
C656 C657 1.414 . S
C656 C659 1.499 . S
C657 H631 0.950 . S
C657 C656 1.414 . S
C657 C658 1.374 . S
C658 H632 0.950 . S
C658 C654 1.385 . S
C658 C657 1.374 . S
C659 C656 1.499 . S
C659 C660 1.373 . S
C659 C661 1.389 . S
C660 H633 0.950 . S
C660 C646 1.377 . S
C660 C659 1.373 . S
C661 C645 1.377 . S
C661 C659 1.389 . S
C661 C662 1.524 . S
C662 C661 1.524 . S
C662 C663 1.397 . S
C662 C667 1.363 . S
C663 H634 0.950 . S
C663 C662 1.397 . S
C663 C664 1.334 . S
C664 H635 0.950 . S
C664 C663 1.334 . S
C664 C665 1.287 . S
C665 C664 1.287 . S
C665 C666 1.524 . S
C665 H668 0.999 . S
C666 H636 0.950 . S
C666 C665 1.524 . S
C666 C667 1.415 . S
C667 H637 0.950 . S
C667 C662 1.363 . S
C667 C666 1.415 . S
H668 C665 0.999 . S
H669 C650 0.913 . S
H670 C688 0.951 . S
H671 C690 0.951 . S
H672 C692 0.950 . S
H673 C693 0.950 . S
H674 C695 0.950 . S
H675 C698 0.950 . S
H676 C699 0.950 . S
H677 C701 0.950 . S
H678 C702 0.950 . S
H679 C703 0.951 . S
H680 C705 0.951 . S
H681 C707 0.950 . S
H682 C708 0.950 . S
H683 C710 0.950 . S
H684 C713 0.950 . S
H685 C714 0.950 . S
H686 C716 0.950 . S
H687 C717 0.950 . S
C688 H670 0.951 . S
C688 C689 1.366 . S
C688 C690 1.388 . S
C689 C688 1.366 . S
C689 C693 1.385 . S
C690 H671 0.951 . S
C690 C688 1.388 . S
C690 C691 1.366 . S
C691 C690 1.366 . S
C691 C692 1.414 . S
C691 C694 1.499 . S
C692 H672 0.950 . S
C692 C691 1.414 . S
C692 C693 1.374 . S
C693 H673 0.950 . S
C693 C689 1.385 . S
C693 C692 1.374 . S
C694 C691 1.499 . S
C694 C695 1.373 . S
C694 C696 1.389 . S
C695 H674 0.950 . S
C695 C694 1.373 . S
C695 C711 1.377 . S
C696 C694 1.389 . S
C696 C697 1.524 . S
C696 C710 1.377 . S
C697 C696 1.524 . S
C697 C698 1.397 . S
C697 C702 1.363 . S
C698 H675 0.950 . S
C698 C697 1.397 . S
C698 C699 1.334 . S
C699 H676 0.950 . S
C699 C698 1.334 . S
C699 C700 1.287 . S
C700 C699 1.287 . S
C700 C701 1.524 . S
C700 H719 0.913 . S
C701 H677 0.950 . S
C701 C700 1.524 . S
C701 C702 1.415 . S
C702 H678 0.950 . S
C702 C697 1.363 . S
C702 C701 1.415 . S
C703 H679 0.951 . S
C703 C704 1.366 . S
C703 C705 1.388 . S
C704 C703 1.366 . S
C704 C708 1.385 . S
C705 H680 0.951 . S
C705 C703 1.388 . S
C705 C706 1.366 . S
C706 C705 1.366 . S
C706 C707 1.414 . S
C706 C709 1.499 . S
C707 H681 0.950 . S
C707 C706 1.414 . S
C707 C708 1.374 . S
C708 H682 0.950 . S
C708 C704 1.385 . S
C708 C707 1.374 . S
C709 C706 1.499 . S
C709 C710 1.373 . S
C709 C711 1.389 . S
C710 H683 0.950 . S
C710 C696 1.377 . S
C710 C709 1.373 . S
C711 C695 1.377 . S
C711 C709 1.389 . S
C711 C712 1.524 . S
C712 C711 1.524 . S
C712 C713 1.397 . S
C712 C717 1.363 . S
C713 H684 0.950 . S
C713 C712 1.397 . S
C713 C714 1.334 . S
C714 H685 0.950 . S
C714 C713 1.334 . S
C714 C715 1.287 . S
C715 C714 1.287 . S
C715 C716 1.524 . S
C715 H718 0.999 . S
C716 H686 0.950 . S
C716 C715 1.524 . S
C716 C717 1.415 . S
C717 H687 0.950 . S
C717 C712 1.363 . S
C717 C716 1.415 . S
H718 C715 0.999 . S
H719 C700 0.913 . S
H720 C738 0.951 . S
H721 C740 0.951 . S
H722 C742 0.950 . S
H723 C743 0.950 . S
H724 C745 0.950 . S
H725 C748 0.950 . S
H726 C749 0.950 . S
H727 C751 0.950 . S
H728 C752 0.950 . S
H729 C753 0.951 . S
H730 C755 0.951 . S
H731 C757 0.950 . S
H732 C758 0.950 . S
H733 C760 0.950 . S
H734 C763 0.950 . S
H735 C764 0.950 . S
H736 C766 0.950 . S
H737 C767 0.950 . S
C738 H720 0.951 . S
C738 C739 1.366 . S
C738 C740 1.388 . S
C739 C738 1.366 . S
C739 C743 1.385 . S
C740 H721 0.951 . S
C740 C738 1.388 . S
C740 C741 1.366 . S
C741 C740 1.366 . S
C741 C742 1.414 . S
C741 C744 1.499 . S
C742 H722 0.950 . S
C742 C741 1.414 . S
C742 C743 1.374 . S
C743 H723 0.950 . S
C743 C739 1.385 . S
C743 C742 1.374 . S
C744 C741 1.499 . S
C744 C745 1.373 . S
C744 C746 1.389 . S
C745 H724 0.950 . S
C745 C744 1.373 . S
C745 C761 1.377 . S
C746 C744 1.389 . S
C746 C747 1.524 . S
C746 C760 1.377 . S
C747 C746 1.524 . S
C747 C748 1.397 . S
C747 C752 1.363 . S
C748 H725 0.950 . S
C748 C747 1.397 . S
C748 C749 1.334 . S
C749 H726 0.950 . S
C749 C748 1.334 . S
C749 C750 1.287 . S
C750 C749 1.287 . S
C750 C751 1.524 . S
C750 H769 0.913 . S
C751 H727 0.950 . S
C751 C750 1.524 . S
C751 C752 1.415 . S
C752 H728 0.950 . S
C752 C747 1.363 . S
C752 C751 1.415 . S
C753 H729 0.951 . S
C753 C754 1.366 . S
C753 C755 1.388 . S
C754 C753 1.366 . S
C754 C758 1.385 . S
C755 H730 0.951 . S
C755 C753 1.388 . S
C755 C756 1.366 . S
C756 C755 1.366 . S
C756 C757 1.414 . S
C756 C759 1.499 . S
C757 H731 0.950 . S
C757 C756 1.414 . S
C757 C758 1.374 . S
C758 H732 0.950 . S
C758 C754 1.385 . S
C758 C757 1.374 . S
C759 C756 1.499 . S
C759 C760 1.373 . S
C759 C761 1.389 . S
C760 H733 0.950 . S
C760 C746 1.377 . S
C760 C759 1.373 . S
C761 C745 1.377 . S
C761 C759 1.389 . S
C761 C762 1.524 . S
C762 C761 1.524 . S
C762 C763 1.397 . S
C762 C767 1.363 . S
C763 H734 0.950 . S
C763 C762 1.397 . S
C763 C764 1.334 . S
C764 H735 0.950 . S
C764 C763 1.334 . S
C764 C765 1.287 . S
C765 C764 1.287 . S
C765 C766 1.524 . S
C765 H768 0.999 . S
C766 H736 0.950 . S
C766 C765 1.524 . S
C766 C767 1.415 . S
C767 H737 0.950 . S
C767 C762 1.363 . S
C767 C766 1.415 . S
H768 C765 0.999 . S
H769 C750 0.913 . S
H770 C788 0.951 . S
H771 C790 0.951 . S
H772 C792 0.950 . S
H773 C793 0.950 . S
H774 C795 0.950 . S
H775 C798 0.950 . S
H776 C799 0.950 . S
H777 C801 0.950 . S
H778 C802 0.950 . S
H779 C803 0.951 . S
H780 C805 0.951 . S
H781 C807 0.950 . S
H782 C808 0.950 . S
H783 C810 0.950 . S
H784 C813 0.950 . S
H785 C814 0.950 . S
H786 C816 0.950 . S
H787 C817 0.950 . S
C788 H770 0.951 . S
C788 C789 1.366 . S
C788 C790 1.388 . S
C789 C788 1.366 . S
C789 C793 1.385 . S
C790 H771 0.951 . S
C790 C788 1.388 . S
C790 C791 1.366 . S
C791 C790 1.366 . S
C791 C792 1.414 . S
C791 C794 1.499 . S
C792 H772 0.950 . S
C792 C791 1.414 . S
C792 C793 1.374 . S
C793 H773 0.950 . S
C793 C789 1.385 . S
C793 C792 1.374 . S
C794 C791 1.499 . S
C794 C795 1.373 . S
C794 C796 1.389 . S
C795 H774 0.950 . S
C795 C794 1.373 . S
C795 C811 1.377 . S
C796 C794 1.389 . S
C796 C797 1.524 . S
C796 C810 1.377 . S
C797 C796 1.524 . S
C797 C798 1.397 . S
C797 C802 1.363 . S
C798 H775 0.950 . S
C798 C797 1.397 . S
C798 C799 1.334 . S
C799 H776 0.950 . S
C799 C798 1.334 . S
C799 C800 1.287 . S
C800 C799 1.287 . S
C800 C801 1.524 . S
C800 H819 0.913 1_455 S
C801 H777 0.950 . S
C801 C800 1.524 . S
C801 C802 1.415 . S
C802 H778 0.950 . S
C802 C797 1.363 . S
C802 C801 1.415 . S
C803 H779 0.951 . S
C803 C804 1.366 . S
C803 C805 1.388 . S
C804 C803 1.366 . S
C804 C808 1.385 . S
C805 H780 0.951 . S
C805 C803 1.388 . S
C805 C806 1.366 . S
C806 C805 1.366 . S
C806 C807 1.414 . S
C806 C809 1.499 . S
C807 H781 0.950 . S
C807 C806 1.414 . S
C807 C808 1.374 . S
C808 H782 0.950 . S
C808 C804 1.385 . S
C808 C807 1.374 . S
C809 C806 1.499 . S
C809 C810 1.373 . S
C809 C811 1.389 . S
C810 H783 0.950 . S
C810 C796 1.377 . S
C810 C809 1.373 . S
C811 C795 1.377 . S
C811 C809 1.389 . S
C811 C812 1.524 . S
C812 C811 1.524 . S
C812 C813 1.397 . S
C812 C817 1.363 . S
C813 H784 0.950 . S
C813 C812 1.397 . S
C813 C814 1.334 . S
C814 H785 0.950 . S
C814 C813 1.334 . S
C814 C815 1.287 . S
C815 C814 1.287 . S
C815 C816 1.524 . S
C815 H818 0.999 . S
C816 H786 0.950 . S
C816 C815 1.524 . S
C816 C817 1.415 . S
C817 H787 0.950 . S
C817 C812 1.363 . S
C817 C816 1.415 . S
H818 C815 0.999 . S
H819 C800 0.913 1_655 S
H820 C838 0.951 . S
H821 C840 0.951 . S
H822 C842 0.950 . S
H823 C843 0.950 . S
H824 C845 0.950 . S
H825 C848 0.950 . S
H826 C849 0.950 . S
H827 C851 0.950 . S
H828 C852 0.950 . S
H829 C853 0.951 . S
H830 C855 0.951 . S
H831 C857 0.950 . S
H832 C858 0.950 . S
H833 C860 0.950 . S
H834 C863 0.950 . S
H835 C864 0.950 . S
H836 C866 0.950 . S
H837 C867 0.950 . S
C838 H820 0.951 . S
C838 C839 1.366 . S
C838 C840 1.388 . S
C839 C838 1.366 . S
C839 C843 1.385 . S
C840 H821 0.951 . S
C840 C838 1.388 . S
C840 C841 1.366 . S
C841 C840 1.366 . S
C841 C842 1.414 . S
C841 C844 1.499 . S
C842 H822 0.950 . S
C842 C841 1.414 . S
C842 C843 1.374 . S
C843 H823 0.950 . S
C843 C839 1.385 . S
C843 C842 1.374 . S
C844 C841 1.499 . S
C844 C845 1.373 . S
C844 C846 1.389 . S
C845 H824 0.950 . S
C845 C844 1.373 . S
C845 C861 1.377 . S
C846 C844 1.389 . S
C846 C847 1.524 . S
C846 C860 1.377 . S
C847 C846 1.524 . S
C847 C848 1.397 . S
C847 C852 1.363 . S
C848 H825 0.950 . S
C848 C847 1.397 . S
C848 C849 1.334 . S
C849 H826 0.950 . S
C849 C848 1.334 . S
C849 C850 1.287 . S
C850 C849 1.287 . S
C850 C851 1.524 . S
C850 H869 0.913 . S
C851 H827 0.950 . S
C851 C850 1.524 . S
C851 C852 1.415 . S
C852 H828 0.950 . S
C852 C847 1.363 . S
C852 C851 1.415 . S
C853 H829 0.951 . S
C853 C854 1.366 . S
C853 C855 1.388 . S
C854 C853 1.366 . S
C854 C858 1.385 . S
C855 H830 0.951 . S
C855 C853 1.388 . S
C855 C856 1.366 . S
C856 C855 1.366 . S
C856 C857 1.414 . S
C856 C859 1.499 . S
C857 H831 0.950 . S
C857 C856 1.414 . S
C857 C858 1.374 . S
C858 H832 0.950 . S
C858 C854 1.385 . S
C858 C857 1.374 . S
C859 C856 1.499 . S
C859 C860 1.373 . S
C859 C861 1.389 . S
C860 H833 0.950 . S
C860 C846 1.377 . S
C860 C859 1.373 . S
C861 C845 1.377 . S
C861 C859 1.389 . S
C861 C862 1.524 . S
C862 C861 1.524 . S
C862 C863 1.397 . S
C862 C867 1.363 . S
C863 H834 0.950 . S
C863 C862 1.397 . S
C863 C864 1.334 . S
C864 H835 0.950 . S
C864 C863 1.334 . S
C864 C865 1.287 . S
C865 C864 1.287 . S
C865 C866 1.524 . S
C865 H868 0.999 . S
C866 H836 0.950 . S
C866 C865 1.524 . S
C866 C867 1.415 . S
C867 H837 0.950 . S
C867 C862 1.363 . S
C867 C866 1.415 . S
H868 C865 0.999 . S
H869 C850 0.913 . S
H870 C888 0.951 . S
H871 C890 0.951 . S
H872 C892 0.950 . S
H873 C893 0.950 . S
H874 C895 0.950 . S
H875 C898 0.950 . S
H876 C899 0.950 . S
H877 C901 0.950 . S
H878 C902 0.950 . S
H879 C903 0.951 . S
H880 C905 0.951 . S
H881 C907 0.950 . S
H882 C908 0.950 . S
H883 C910 0.950 . S
H884 C913 0.950 . S
H885 C914 0.950 . S
H886 C916 0.950 . S
H887 C917 0.950 . S
C888 H870 0.951 . S
C888 C889 1.366 . S
C888 C890 1.388 . S
C889 C888 1.366 . S
C889 C893 1.385 . S
C890 H871 0.951 . S
C890 C888 1.388 . S
C890 C891 1.366 . S
C891 C890 1.366 . S
C891 C892 1.414 . S
C891 C894 1.499 . S
C892 H872 0.950 . S
C892 C891 1.414 . S
C892 C893 1.374 . S
C893 H873 0.950 . S
C893 C889 1.385 . S
C893 C892 1.374 . S
C894 C891 1.499 . S
C894 C895 1.373 . S
C894 C896 1.389 . S
C895 H874 0.950 . S
C895 C894 1.373 . S
C895 C911 1.377 . S
C896 C894 1.389 . S
C896 C897 1.524 . S
C896 C910 1.377 . S
C897 C896 1.524 . S
C897 C898 1.397 . S
C897 C902 1.363 . S
C898 H875 0.950 . S
C898 C897 1.397 . S
C898 C899 1.334 . S
C899 H876 0.950 . S
C899 C898 1.334 . S
C899 C900 1.287 . S
C900 C899 1.287 . S
C900 C901 1.524 . S
C900 H919 0.913 . S
C901 H877 0.950 . S
C901 C900 1.524 . S
C901 C902 1.415 . S
C902 H878 0.950 . S
C902 C897 1.363 . S
C902 C901 1.415 . S
C903 H879 0.951 . S
C903 C904 1.366 . S
C903 C905 1.388 . S
C904 C903 1.366 . S
C904 C908 1.385 . S
C905 H880 0.951 . S
C905 C903 1.388 . S
C905 C906 1.366 . S
C906 C905 1.366 . S
C906 C907 1.414 . S
C906 C909 1.499 . S
C907 H881 0.950 . S
C907 C906 1.414 . S
C907 C908 1.374 . S
C908 H882 0.950 . S
C908 C904 1.385 . S
C908 C907 1.374 . S
C909 C906 1.499 . S
C909 C910 1.373 . S
C909 C911 1.389 . S
C910 H883 0.950 . S
C910 C896 1.377 . S
C910 C909 1.373 . S
C911 C895 1.377 . S
C911 C909 1.389 . S
C911 C912 1.524 . S
C912 C911 1.524 . S
C912 C913 1.397 . S
C912 C917 1.363 . S
C913 H884 0.950 . S
C913 C912 1.397 . S
C913 C914 1.334 . S
C914 H885 0.950 . S
C914 C913 1.334 . S
C914 C915 1.287 . S
C915 C914 1.287 . S
C915 C916 1.524 . S
C915 H918 0.999 . S
C916 H886 0.950 . S
C916 C915 1.524 . S
C916 C917 1.415 . S
C917 H887 0.950 . S
C917 C912 1.363 . S
C917 C916 1.415 . S
H918 C915 0.999 . S
H919 C900 0.913 . S
H920 C938 0.951 . S
H921 C940 0.951 . S
H922 C942 0.950 . S
H923 C943 0.950 . S
H924 C945 0.950 . S
H925 C948 0.950 . S
H926 C949 0.950 . S
H927 C951 0.950 . S
H928 C952 0.950 . S
H929 C953 0.951 . S
H930 C955 0.951 . S
H931 C957 0.950 . S
H932 C958 0.950 . S
H933 C960 0.950 . S
H934 C963 0.950 . S
H935 C964 0.950 . S
H936 C966 0.950 . S
H937 C967 0.950 . S
C938 H920 0.951 . S
C938 C939 1.366 . S
C938 C940 1.388 . S
C939 C938 1.366 . S
C939 C943 1.385 . S
C940 H921 0.951 . S
C940 C938 1.388 . S
C940 C941 1.366 . S
C941 C940 1.366 . S
C941 C942 1.414 . S
C941 C944 1.499 . S
C942 H922 0.950 . S
C942 C941 1.414 . S
C942 C943 1.374 . S
C943 H923 0.950 . S
C943 C939 1.385 . S
C943 C942 1.374 . S
C944 C941 1.499 . S
C944 C945 1.373 . S
C944 C946 1.389 . S
C945 H924 0.950 . S
C945 C944 1.373 . S
C945 C961 1.377 . S
C946 C944 1.389 . S
C946 C947 1.524 . S
C946 C960 1.377 . S
C947 C946 1.524 . S
C947 C948 1.397 . S
C947 C952 1.363 . S
C948 H925 0.950 . S
C948 C947 1.397 . S
C948 C949 1.334 . S
C949 H926 0.950 . S
C949 C948 1.334 . S
C949 C950 1.287 . S
C950 C949 1.287 . S
C950 C951 1.524 . S
C950 H969 0.913 . S
C951 H927 0.950 . S
C951 C950 1.524 . S
C951 C952 1.415 . S
C952 H928 0.950 . S
C952 C947 1.363 . S
C952 C951 1.415 . S
C953 H929 0.951 . S
C953 C954 1.366 . S
C953 C955 1.388 . S
C954 C953 1.366 . S
C954 C958 1.385 . S
C955 H930 0.951 . S
C955 C953 1.388 . S
C955 C956 1.366 . S
C956 C955 1.366 . S
C956 C957 1.414 . S
C956 C959 1.499 . S
C957 H931 0.950 . S
C957 C956 1.414 . S
C957 C958 1.374 . S
C958 H932 0.950 . S
C958 C954 1.385 . S
C958 C957 1.374 . S
C959 C956 1.499 . S
C959 C960 1.373 . S
C959 C961 1.389 . S
C960 H933 0.950 . S
C960 C946 1.377 . S
C960 C959 1.373 . S
C961 C945 1.377 . S
C961 C959 1.389 . S
C961 C962 1.524 . S
C962 C961 1.524 . S
C962 C963 1.397 . S
C962 C967 1.363 . S
C963 H934 0.950 . S
C963 C962 1.397 . S
C963 C964 1.334 . S
C964 H935 0.950 . S
C964 C963 1.334 . S
C964 C965 1.287 . S
C965 C964 1.287 . S
C965 C966 1.524 . S
C965 H968 0.999 . S
C966 H936 0.950 . S
C966 C965 1.524 . S
C966 C967 1.415 . S
C967 H937 0.950 . S
C967 C962 1.363 . S
C967 C966 1.415 . S
H968 C965 0.999 . S
H969 C950 0.913 . S
H970 C988 0.951 . S
H971 C990 0.951 . S
H972 C992 0.950 . S
H973 C993 0.950 . S
H974 C995 0.950 . S
H975 C998 0.950 . S
H976 C999 0.950 . S
H977 C1001 0.950 . S
H978 C1002 0.950 . S
H979 C1003 0.951 . S
H980 C1005 0.951 . S
H981 C1007 0.950 . S
H982 C1008 0.950 . S
H983 C1010 0.950 . S
H984 C1013 0.950 . S
H985 C1014 0.950 . S
H986 C1016 0.950 . S
H987 C1017 0.950 . S
C988 H970 0.951 . S
C988 C989 1.366 . S
C988 C990 1.388 . S
C989 C988 1.366 . S
C989 C993 1.385 . S
C990 H971 0.951 . S
C990 C988 1.388 . S
C990 C991 1.366 . S
C991 C990 1.366 . S
C991 C992 1.414 . S
C991 C994 1.499 . S
C992 H972 0.950 . S
C992 C991 1.414 . S
C992 C993 1.374 . S
C993 H973 0.950 . S
C993 C989 1.385 . S
C993 C992 1.374 . S
C994 C991 1.499 . S
C994 C995 1.373 . S
C994 C996 1.389 . S
C995 H974 0.950 . S
C995 C994 1.373 . S
C995 C1011 1.377 . S
C996 C994 1.389 . S
C996 C997 1.524 . S
C996 C1010 1.377 . S
C997 C996 1.524 . S
C997 C998 1.397 . S
C997 C1002 1.363 . S
C998 H975 0.950 . S
C998 C997 1.397 . S
C998 C999 1.334 . S
C999 H976 0.950 . S
C999 C998 1.334 . S
C999 C1000 1.287 . S
C1000 C999 1.287 . S
C1000 C1001 1.524 . S
C1000 H1019 0.913 . S
C1001 H977 0.950 . S
C1001 C1000 1.524 . S
C1001 C1002 1.415 . S
C1002 H978 0.950 . S
C1002 C997 1.363 . S
C1002 C1001 1.415 . S
C1003 H979 0.951 . S
C1003 C1004 1.366 . S
C1003 C1005 1.388 . S
C1004 C1003 1.366 . S
C1004 C1008 1.385 . S
C1005 H980 0.951 . S
C1005 C1003 1.388 . S
C1005 C1006 1.366 . S
C1006 C1005 1.366 . S
C1006 C1007 1.414 . S
C1006 C1009 1.499 . S
C1007 H981 0.950 . S
C1007 C1006 1.414 . S
C1007 C1008 1.374 . S
C1008 H982 0.950 . S
C1008 C1004 1.385 . S
C1008 C1007 1.374 . S
C1009 C1006 1.499 . S
C1009 C1010 1.373 . S
C1009 C1011 1.389 . S
C1010 H983 0.950 . S
C1010 C996 1.377 . S
C1010 C1009 1.373 . S
C1011 C995 1.377 . S
C1011 C1009 1.389 . S
C1011 C1012 1.524 . S
C1012 C1011 1.524 . S
C1012 C1013 1.397 . S
C1012 C1017 1.363 . S
C1013 H984 0.950 . S
C1013 C1012 1.397 . S
C1013 C1014 1.334 . S
C1014 H985 0.950 . S
C1014 C1013 1.334 . S
C1014 C1015 1.287 . S
C1015 C1014 1.287 . S
C1015 C1016 1.524 . S
C1015 H1018 0.999 . S
C1016 H986 0.950 . S
C1016 C1015 1.524 . S
C1016 C1017 1.415 . S
C1017 H987 0.950 . S
C1017 C1012 1.363 . S
C1017 C1016 1.415 . S
H1018 C1015 0.999 . S
H1019 C1000 0.913 . S
H1020 C1038 0.951 . S
H1021 C1040 0.951 . S
H1022 C1042 0.950 . S
H1023 C1043 0.950 . S
H1024 C1045 0.950 . S
H1025 C1048 0.950 . S
H1026 C1049 0.950 . S
H1027 C1051 0.950 . S
H1028 C1052 0.950 . S
H1029 C1053 0.951 . S
H1030 C1055 0.951 . S
H1031 C1057 0.950 . S
H1032 C1058 0.950 . S
H1033 C1060 0.950 . S
H1034 C1063 0.950 . S
H1035 C1064 0.950 . S
H1036 C1066 0.950 . S
H1037 C1067 0.950 . S
C1038 H1020 0.951 . S
C1038 C1039 1.366 . S
C1038 C1040 1.388 . S
C1039 C1038 1.366 . S
C1039 C1043 1.385 . S
C1040 H1021 0.951 . S
C1040 C1038 1.388 . S
C1040 C1041 1.366 . S
C1041 C1040 1.366 . S
C1041 C1042 1.414 . S
C1041 C1044 1.499 . S
C1042 H1022 0.950 . S
C1042 C1041 1.414 . S
C1042 C1043 1.374 . S
C1043 H1023 0.950 . S
C1043 C1039 1.385 . S
C1043 C1042 1.374 . S
C1044 C1041 1.499 . S
C1044 C1045 1.373 . S
C1044 C1046 1.389 . S
C1045 H1024 0.950 . S
C1045 C1044 1.373 . S
C1045 C1061 1.377 . S
C1046 C1044 1.389 . S
C1046 C1047 1.524 . S
C1046 C1060 1.377 . S
C1047 C1046 1.524 . S
C1047 C1048 1.397 . S
C1047 C1052 1.363 . S
C1048 H1025 0.950 . S
C1048 C1047 1.397 . S
C1048 C1049 1.334 . S
C1049 H1026 0.950 . S
C1049 C1048 1.334 . S
C1049 C1050 1.287 . S
C1050 C1049 1.287 . S
C1050 C1051 1.524 . S
C1050 H1069 0.913 . S
C1051 H1027 0.950 . S
C1051 C1050 1.524 . S
C1051 C1052 1.415 . S
C1052 H1028 0.950 . S
C1052 C1047 1.363 . S
C1052 C1051 1.415 . S
C1053 H1029 0.951 . S
C1053 C1054 1.366 . S
C1053 C1055 1.388 . S
C1054 C1053 1.366 . S
C1054 C1058 1.385 . S
C1055 H1030 0.951 . S
C1055 C1053 1.388 . S
C1055 C1056 1.366 . S
C1056 C1055 1.366 . S
C1056 C1057 1.414 . S
C1056 C1059 1.499 . S
C1057 H1031 0.950 . S
C1057 C1056 1.414 . S
C1057 C1058 1.374 . S
C1058 H1032 0.950 . S
C1058 C1054 1.385 . S
C1058 C1057 1.374 . S
C1059 C1056 1.499 . S
C1059 C1060 1.373 . S
C1059 C1061 1.389 . S
C1060 H1033 0.950 . S
C1060 C1046 1.377 . S
C1060 C1059 1.373 . S
C1061 C1045 1.377 . S
C1061 C1059 1.389 . S
C1061 C1062 1.524 . S
C1062 C1061 1.524 . S
C1062 C1063 1.397 . S
C1062 C1067 1.363 . S
C1063 H1034 0.950 . S
C1063 C1062 1.397 . S
C1063 C1064 1.334 . S
C1064 H1035 0.950 . S
C1064 C1063 1.334 . S
C1064 C1065 1.287 . S
C1065 C1064 1.287 . S
C1065 C1066 1.524 . S
C1065 H1068 0.999 . S
C1066 H1036 0.950 . S
C1066 C1065 1.524 . S
C1066 C1067 1.415 . S
C1067 H1037 0.950 . S
C1067 C1062 1.363 . S
C1067 C1066 1.415 . S
H1068 C1065 0.999 . S
H1069 C1050 0.913 . S
H1070 C1088 0.951 . S
H1071 C1090 0.951 . S
H1072 C1092 0.950 . S
H1073 C1093 0.950 . S
H1074 C1095 0.950 . S
H1075 C1098 0.950 . S
H1076 C1099 0.950 . S
H1077 C1101 0.950 . S
H1078 C1102 0.950 . S
H1079 C1103 0.951 . S
H1080 C1105 0.951 . S
H1081 C1107 0.950 . S
H1082 C1108 0.950 . S
H1083 C1110 0.950 . S
H1084 C1113 0.950 . S
H1085 C1114 0.950 . S
H1086 C1116 0.950 . S
H1087 C1117 0.950 . S
C1088 H1070 0.951 . S
C1088 C1089 1.366 . S
C1088 C1090 1.388 . S
C1089 C1088 1.366 . S
C1089 C1093 1.385 . S
C1090 H1071 0.951 . S
C1090 C1088 1.388 . S
C1090 C1091 1.366 . S
C1091 C1090 1.366 . S
C1091 C1092 1.414 . S
C1091 C1094 1.499 . S
C1092 H1072 0.950 . S
C1092 C1091 1.414 . S
C1092 C1093 1.374 . S
C1093 H1073 0.950 . S
C1093 C1089 1.385 . S
C1093 C1092 1.374 . S
C1094 C1091 1.499 . S
C1094 C1095 1.373 . S
C1094 C1096 1.389 . S
C1095 H1074 0.950 . S
C1095 C1094 1.373 . S
C1095 C1111 1.377 . S
C1096 C1094 1.389 . S
C1096 C1097 1.524 . S
C1096 C1110 1.377 . S
C1097 C1096 1.524 . S
C1097 C1098 1.397 . S
C1097 C1102 1.363 . S
C1098 H1075 0.950 . S
C1098 C1097 1.397 . S
C1098 C1099 1.334 . S
C1099 H1076 0.950 . S
C1099 C1098 1.334 . S
C1099 C1100 1.287 . S
C1100 C1099 1.287 . S
C1100 C1101 1.524 . S
C1100 H1119 0.913 1_554 S
C1101 H1077 0.950 . S
C1101 C1100 1.524 . S
C1101 C1102 1.415 . S
C1102 H1078 0.950 . S
C1102 C1097 1.363 . S
C1102 C1101 1.415 . S
C1103 H1079 0.951 . S
C1103 C1104 1.366 . S
C1103 C1105 1.388 . S
C1104 C1103 1.366 . S
C1104 C1108 1.385 . S
C1105 H1080 0.951 . S
C1105 C1103 1.388 . S
C1105 C1106 1.366 . S
C1106 C1105 1.366 . S
C1106 C1107 1.414 . S
C1106 C1109 1.499 . S
C1107 H1081 0.950 . S
C1107 C1106 1.414 . S
C1107 C1108 1.374 . S
C1108 H1082 0.950 . S
C1108 C1104 1.385 . S
C1108 C1107 1.374 . S
C1109 C1106 1.499 . S
C1109 C1110 1.373 . S
C1109 C1111 1.389 . S
C1110 H1083 0.950 . S
C1110 C1096 1.377 . S
C1110 C1109 1.373 . S
C1111 C1095 1.377 . S
C1111 C1109 1.389 . S
C1111 C1112 1.524 . S
C1112 C1111 1.524 . S
C1112 C1113 1.397 . S
C1112 C1117 1.363 . S
C1113 H1084 0.950 . S
C1113 C1112 1.397 . S
C1113 C1114 1.334 . S
C1114 H1085 0.950 . S
C1114 C1113 1.334 . S
C1114 C1115 1.287 . S
C1115 C1114 1.287 . S
C1115 C1116 1.524 . S
C1115 H1118 0.999 . S
C1116 H1086 0.950 . S
C1116 C1115 1.524 . S
C1116 C1117 1.415 . S
C1117 H1087 0.950 . S
C1117 C1112 1.363 . S
C1117 C1116 1.415 . S
H1118 C1115 0.999 . S
H1119 C1100 0.913 1_556 S
H1120 C1138 0.951 . S
H1121 C1140 0.951 . S
H1122 C1142 0.950 . S
H1123 C1143 0.950 . S
H1124 C1145 0.950 . S
H1125 C1148 0.950 . S
H1126 C1149 0.950 . S
H1127 C1151 0.950 . S
H1128 C1152 0.950 . S
H1129 C1153 0.951 . S
H1130 C1155 0.951 . S
H1131 C1157 0.950 . S
H1132 C1158 0.950 . S
H1133 C1160 0.950 . S
H1134 C1163 0.950 . S
H1135 C1164 0.950 . S
H1136 C1166 0.950 . S
H1137 C1167 0.950 . S
C1138 H1120 0.951 . S
C1138 C1139 1.366 . S
C1138 C1140 1.388 . S
C1139 C1138 1.366 . S
C1139 C1143 1.385 . S
C1140 H1121 0.951 . S
C1140 C1138 1.388 . S
C1140 C1141 1.366 . S
C1141 C1140 1.366 . S
C1141 C1142 1.414 . S
C1141 C1144 1.499 . S
C1142 H1122 0.950 . S
C1142 C1141 1.414 . S
C1142 C1143 1.374 . S
C1143 H1123 0.950 . S
C1143 C1139 1.385 . S
C1143 C1142 1.374 . S
C1144 C1141 1.499 . S
C1144 C1145 1.373 . S
C1144 C1146 1.389 . S
C1145 H1124 0.950 . S
C1145 C1144 1.373 . S
C1145 C1161 1.377 . S
C1146 C1144 1.389 . S
C1146 C1147 1.524 . S
C1146 C1160 1.377 . S
C1147 C1146 1.524 . S
C1147 C1148 1.397 . S
C1147 C1152 1.363 . S
C1148 H1125 0.950 . S
C1148 C1147 1.397 . S
C1148 C1149 1.334 . S
C1149 H1126 0.950 . S
C1149 C1148 1.334 . S
C1149 C1150 1.287 . S
C1150 C1149 1.287 . S
C1150 C1151 1.524 . S
C1150 H1169 0.913 . S
C1151 H1127 0.950 . S
C1151 C1150 1.524 . S
C1151 C1152 1.415 . S
C1152 H1128 0.950 . S
C1152 C1147 1.363 . S
C1152 C1151 1.415 . S
C1153 H1129 0.951 . S
C1153 C1154 1.366 . S
C1153 C1155 1.388 . S
C1154 C1153 1.366 . S
C1154 C1158 1.385 . S
C1155 H1130 0.951 . S
C1155 C1153 1.388 . S
C1155 C1156 1.366 . S
C1156 C1155 1.366 . S
C1156 C1157 1.414 . S
C1156 C1159 1.499 . S
C1157 H1131 0.950 . S
C1157 C1156 1.414 . S
C1157 C1158 1.374 . S
C1158 H1132 0.950 . S
C1158 C1154 1.385 . S
C1158 C1157 1.374 . S
C1159 C1156 1.499 . S
C1159 C1160 1.373 . S
C1159 C1161 1.389 . S
C1160 H1133 0.950 . S
C1160 C1146 1.377 . S
C1160 C1159 1.373 . S
C1161 C1145 1.377 . S
C1161 C1159 1.389 . S
C1161 C1162 1.524 . S
C1162 C1161 1.524 . S
C1162 C1163 1.397 . S
C1162 C1167 1.363 . S
C1163 H1134 0.950 . S
C1163 C1162 1.397 . S
C1163 C1164 1.334 . S
C1164 H1135 0.950 . S
C1164 C1163 1.334 . S
C1164 C1165 1.287 . S
C1165 C1164 1.287 . S
C1165 C1166 1.524 . S
C1165 H1168 0.999 . S
C1166 H1136 0.950 . S
C1166 C1165 1.524 . S
C1166 C1167 1.415 . S
C1167 H1137 0.950 . S
C1167 C1162 1.363 . S
C1167 C1166 1.415 . S
H1168 C1165 0.999 . S
H1169 C1150 0.913 . S
H1170 C1188 0.951 . S
H1171 C1190 0.951 . S
H1172 C1192 0.950 . S
H1173 C1193 0.950 . S
H1174 C1195 0.950 . S
H1175 C1198 0.950 . S
H1176 C1199 0.950 . S
H1177 C1201 0.950 . S
H1178 C1202 0.950 . S
H1179 C1203 0.951 . S
H1180 C1205 0.951 . S
H1181 C1207 0.950 . S
H1182 C1208 0.950 . S
H1183 C1210 0.950 . S
H1184 C1213 0.950 . S
H1185 C1214 0.950 . S
H1186 C1216 0.950 . S
H1187 C1217 0.950 . S
C1188 H1170 0.951 . S
C1188 C1189 1.366 . S
C1188 C1190 1.388 . S
C1189 C1188 1.366 . S
C1189 C1193 1.385 . S
C1190 H1171 0.951 . S
C1190 C1188 1.388 . S
C1190 C1191 1.366 . S
C1191 C1190 1.366 . S
C1191 C1192 1.414 . S
C1191 C1194 1.499 . S
C1192 H1172 0.950 . S
C1192 C1191 1.414 . S
C1192 C1193 1.374 . S
C1193 H1173 0.950 . S
C1193 C1189 1.385 . S
C1193 C1192 1.374 . S
C1194 C1191 1.499 . S
C1194 C1195 1.373 . S
C1194 C1196 1.389 . S
C1195 H1174 0.950 . S
C1195 C1194 1.373 . S
C1195 C1211 1.377 . S
C1196 C1194 1.389 . S
C1196 C1197 1.524 . S
C1196 C1210 1.377 . S
C1197 C1196 1.524 . S
C1197 C1198 1.397 . S
C1197 C1202 1.363 . S
C1198 H1175 0.950 . S
C1198 C1197 1.397 . S
C1198 C1199 1.334 . S
C1199 H1176 0.950 . S
C1199 C1198 1.334 . S
C1199 C1200 1.287 . S
C1200 C1199 1.287 . S
C1200 C1201 1.524 . S
C1200 H1219 0.913 . S
C1201 H1177 0.950 . S
C1201 C1200 1.524 . S
C1201 C1202 1.415 . S
C1202 H1178 0.950 . S
C1202 C1197 1.363 . S
C1202 C1201 1.415 . S
C1203 H1179 0.951 . S
C1203 C1204 1.366 . S
C1203 C1205 1.388 . S
C1204 C1203 1.366 . S
C1204 C1208 1.385 . S
C1205 H1180 0.951 . S
C1205 C1203 1.388 . S
C1205 C1206 1.366 . S
C1206 C1205 1.366 . S
C1206 C1207 1.414 . S
C1206 C1209 1.499 . S
C1207 H1181 0.950 . S
C1207 C1206 1.414 . S
C1207 C1208 1.374 . S
C1208 H1182 0.950 . S
C1208 C1204 1.385 . S
C1208 C1207 1.374 . S
C1209 C1206 1.499 . S
C1209 C1210 1.373 . S
C1209 C1211 1.389 . S
C1210 H1183 0.950 . S
C1210 C1196 1.377 . S
C1210 C1209 1.373 . S
C1211 C1195 1.377 . S
C1211 C1209 1.389 . S
C1211 C1212 1.524 . S
C1212 C1211 1.524 . S
C1212 C1213 1.397 . S
C1212 C1217 1.363 . S
C1213 H1184 0.950 . S
C1213 C1212 1.397 . S
C1213 C1214 1.334 . S
C1214 H1185 0.950 . S
C1214 C1213 1.334 . S
C1214 C1215 1.287 . S
C1215 C1214 1.287 . S
C1215 C1216 1.524 . S
C1215 H1218 0.999 . S
C1216 H1186 0.950 . S
C1216 C1215 1.524 . S
C1216 C1217 1.415 . S
C1217 H1187 0.950 . S
C1217 C1212 1.363 . S
C1217 C1216 1.415 . S
H1218 C1215 0.999 . S
H1219 C1200 0.913 . S
H1220 C1238 0.951 . S
H1221 C1240 0.951 . S
H1222 C1242 0.950 . S
H1223 C1243 0.950 . S
H1224 C1245 0.950 . S
H1225 C1248 0.950 . S
H1226 C1249 0.950 . S
H1227 C1251 0.950 . S
H1228 C1252 0.950 . S
H1229 C1253 0.951 . S
H1230 C1255 0.951 . S
H1231 C1257 0.950 . S
H1232 C1258 0.950 . S
H1233 C1260 0.950 . S
H1234 C1263 0.950 . S
H1235 C1264 0.950 . S
H1236 C1266 0.950 . S
H1237 C1267 0.950 . S
C1238 H1220 0.951 . S
C1238 C1239 1.366 . S
C1238 C1240 1.388 . S
C1239 C1238 1.366 . S
C1239 C1243 1.385 . S
C1240 H1221 0.951 . S
C1240 C1238 1.388 . S
C1240 C1241 1.366 . S
C1241 C1240 1.366 . S
C1241 C1242 1.414 . S
C1241 C1244 1.499 . S
C1242 H1222 0.950 . S
C1242 C1241 1.414 . S
C1242 C1243 1.374 . S
C1243 H1223 0.950 . S
C1243 C1239 1.385 . S
C1243 C1242 1.374 . S
C1244 C1241 1.499 . S
C1244 C1245 1.373 . S
C1244 C1246 1.389 . S
C1245 H1224 0.950 . S
C1245 C1244 1.373 . S
C1245 C1261 1.377 . S
C1246 C1244 1.389 . S
C1246 C1247 1.524 . S
C1246 C1260 1.377 . S
C1247 C1246 1.524 . S
C1247 C1248 1.397 . S
C1247 C1252 1.363 . S
C1248 H1225 0.950 . S
C1248 C1247 1.397 . S
C1248 C1249 1.334 . S
C1249 H1226 0.950 . S
C1249 C1248 1.334 . S
C1249 C1250 1.287 . S
C1250 C1249 1.287 . S
C1250 C1251 1.524 . S
C1250 H1269 0.913 . S
C1251 H1227 0.950 . S
C1251 C1250 1.524 . S
C1251 C1252 1.415 . S
C1252 H1228 0.950 . S
C1252 C1247 1.363 . S
C1252 C1251 1.415 . S
C1253 H1229 0.951 . S
C1253 C1254 1.366 . S
C1253 C1255 1.388 . S
C1254 C1253 1.366 . S
C1254 C1258 1.385 . S
C1255 H1230 0.951 . S
C1255 C1253 1.388 . S
C1255 C1256 1.366 . S
C1256 C1255 1.366 . S
C1256 C1257 1.414 . S
C1256 C1259 1.499 . S
C1257 H1231 0.950 . S
C1257 C1256 1.414 . S
C1257 C1258 1.374 . S
C1258 H1232 0.950 . S
C1258 C1254 1.385 . S
C1258 C1257 1.374 . S
C1259 C1256 1.499 . S
C1259 C1260 1.373 . S
C1259 C1261 1.389 . S
C1260 H1233 0.950 . S
C1260 C1246 1.377 . S
C1260 C1259 1.373 . S
C1261 C1245 1.377 . S
C1261 C1259 1.389 . S
C1261 C1262 1.524 . S
C1262 C1261 1.524 . S
C1262 C1263 1.397 . S
C1262 C1267 1.363 . S
C1263 H1234 0.950 . S
C1263 C1262 1.397 . S
C1263 C1264 1.334 . S
C1264 H1235 0.950 . S
C1264 C1263 1.334 . S
C1264 C1265 1.287 . S
C1265 C1264 1.287 . S
C1265 C1266 1.524 . S
C1265 H1268 0.999 . S
C1266 H1236 0.950 . S
C1266 C1265 1.524 . S
C1266 C1267 1.415 . S
C1267 H1237 0.950 . S
C1267 C1262 1.363 . S
C1267 C1266 1.415 . S
H1268 C1265 0.999 . S
H1269 C1250 0.913 . S
H1270 C1288 0.951 . S
H1271 C1290 0.951 . S
H1272 C1292 0.950 . S
H1273 C1293 0.950 . S
H1274 C1295 0.950 . S
H1275 C1298 0.950 . S
H1276 C1299 0.950 . S
H1277 C1301 0.950 . S
H1278 C1302 0.950 . S
H1279 C1303 0.951 . S
H1280 C1305 0.951 . S
H1281 C1307 0.950 . S
H1282 C1308 0.950 . S
H1283 C1310 0.950 . S
H1284 C1313 0.950 . S
H1285 C1314 0.950 . S
H1286 C1316 0.950 . S
H1287 C1317 0.950 . S
C1288 H1270 0.951 . S
C1288 C1289 1.366 . S
C1288 C1290 1.388 . S
C1289 C1288 1.366 . S
C1289 C1293 1.385 . S
C1290 H1271 0.951 . S
C1290 C1288 1.388 . S
C1290 C1291 1.366 . S
C1291 C1290 1.366 . S
C1291 C1292 1.414 . S
C1291 C1294 1.499 . S
C1292 H1272 0.950 . S
C1292 C1291 1.414 . S
C1292 C1293 1.374 . S
C1293 H1273 0.950 . S
C1293 C1289 1.385 . S
C1293 C1292 1.374 . S
C1294 C1291 1.499 . S
C1294 C1295 1.373 . S
C1294 C1296 1.389 . S
C1295 H1274 0.950 . S
C1295 C1294 1.373 . S
C1295 C1311 1.377 . S
C1296 C1294 1.389 . S
C1296 C1297 1.524 . S
C1296 C1310 1.377 . S
C1297 C1296 1.524 . S
C1297 C1298 1.397 . S
C1297 C1302 1.363 . S
C1298 H1275 0.950 . S
C1298 C1297 1.397 . S
C1298 C1299 1.334 . S
C1299 H1276 0.950 . S
C1299 C1298 1.334 . S
C1299 C1300 1.287 . S
C1300 C1299 1.287 . S
C1300 C1301 1.524 . S
C1300 H1319 0.913 . S
C1301 H1277 0.950 . S
C1301 C1300 1.524 . S
C1301 C1302 1.415 . S
C1302 H1278 0.950 . S
C1302 C1297 1.363 . S
C1302 C1301 1.415 . S
C1303 H1279 0.951 . S
C1303 C1304 1.366 . S
C1303 C1305 1.388 . S
C1304 C1303 1.366 . S
C1304 C1308 1.385 . S
C1305 H1280 0.951 . S
C1305 C1303 1.388 . S
C1305 C1306 1.366 . S
C1306 C1305 1.366 . S
C1306 C1307 1.414 . S
C1306 C1309 1.499 . S
C1307 H1281 0.950 . S
C1307 C1306 1.414 . S
C1307 C1308 1.374 . S
C1308 H1282 0.950 . S
C1308 C1304 1.385 . S
C1308 C1307 1.374 . S
C1309 C1306 1.499 . S
C1309 C1310 1.373 . S
C1309 C1311 1.389 . S
C1310 H1283 0.950 . S
C1310 C1296 1.377 . S
C1310 C1309 1.373 . S
C1311 C1295 1.377 . S
C1311 C1309 1.389 . S
C1311 C1312 1.524 . S
C1312 C1311 1.524 . S
C1312 C1313 1.397 . S
C1312 C1317 1.363 . S
C1313 H1284 0.950 . S
C1313 C1312 1.397 . S
C1313 C1314 1.334 . S
C1314 H1285 0.950 . S
C1314 C1313 1.334 . S
C1314 C1315 1.287 . S
C1315 C1314 1.287 . S
C1315 C1316 1.524 . S
C1315 H1318 0.999 . S
C1316 H1286 0.950 . S
C1316 C1315 1.524 . S
C1316 C1317 1.415 . S
C1317 H1287 0.950 . S
C1317 C1312 1.363 . S
C1317 C1316 1.415 . S
H1318 C1315 0.999 . S
H1319 C1300 0.913 . S
H1320 C1338 0.951 . S
H1321 C1340 0.951 . S
H1322 C1342 0.950 . S
H1323 C1343 0.950 . S
H1324 C1345 0.950 . S
H1325 C1348 0.950 . S
H1326 C1349 0.950 . S
H1327 C1351 0.950 . S
H1328 C1352 0.950 . S
H1329 C1353 0.951 . S
H1330 C1355 0.951 . S
H1331 C1357 0.950 . S
H1332 C1358 0.950 . S
H1333 C1360 0.950 . S
H1334 C1363 0.950 . S
H1335 C1364 0.950 . S
H1336 C1366 0.950 . S
H1337 C1367 0.950 . S
C1338 H1320 0.951 . S
C1338 C1339 1.366 . S
C1338 C1340 1.388 . S
C1339 C1338 1.366 . S
C1339 C1343 1.385 . S
C1340 H1321 0.951 . S
C1340 C1338 1.388 . S
C1340 C1341 1.366 . S
C1341 C1340 1.366 . S
C1341 C1342 1.414 . S
C1341 C1344 1.499 . S
C1342 H1322 0.950 . S
C1342 C1341 1.414 . S
C1342 C1343 1.374 . S
C1343 H1323 0.950 . S
C1343 C1339 1.385 . S
C1343 C1342 1.374 . S
C1344 C1341 1.499 . S
C1344 C1345 1.373 . S
C1344 C1346 1.389 . S
C1345 H1324 0.950 . S
C1345 C1344 1.373 . S
C1345 C1361 1.377 . S
C1346 C1344 1.389 . S
C1346 C1347 1.524 . S
C1346 C1360 1.377 . S
C1347 C1346 1.524 . S
C1347 C1348 1.397 . S
C1347 C1352 1.363 . S
C1348 H1325 0.950 . S
C1348 C1347 1.397 . S
C1348 C1349 1.334 . S
C1349 H1326 0.950 . S
C1349 C1348 1.334 . S
C1349 C1350 1.287 . S
C1350 C1349 1.287 . S
C1350 C1351 1.524 . S
C1350 H1369 0.913 . S
C1351 H1327 0.950 . S
C1351 C1350 1.524 . S
C1351 C1352 1.415 . S
C1352 H1328 0.950 . S
C1352 C1347 1.363 . S
C1352 C1351 1.415 . S
C1353 H1329 0.951 . S
C1353 C1354 1.366 . S
C1353 C1355 1.388 . S
C1354 C1353 1.366 . S
C1354 C1358 1.385 . S
C1355 H1330 0.951 . S
C1355 C1353 1.388 . S
C1355 C1356 1.366 . S
C1356 C1355 1.366 . S
C1356 C1357 1.414 . S
C1356 C1359 1.499 . S
C1357 H1331 0.950 . S
C1357 C1356 1.414 . S
C1357 C1358 1.374 . S
C1358 H1332 0.950 . S
C1358 C1354 1.385 . S
C1358 C1357 1.374 . S
C1359 C1356 1.499 . S
C1359 C1360 1.373 . S
C1359 C1361 1.389 . S
C1360 H1333 0.950 . S
C1360 C1346 1.377 . S
C1360 C1359 1.373 . S
C1361 C1345 1.377 . S
C1361 C1359 1.389 . S
C1361 C1362 1.524 . S
C1362 C1361 1.524 . S
C1362 C1363 1.397 . S
C1362 C1367 1.363 . S
C1363 H1334 0.950 . S
C1363 C1362 1.397 . S
C1363 C1364 1.334 . S
C1364 H1335 0.950 . S
C1364 C1363 1.334 . S
C1364 C1365 1.287 . S
C1365 C1364 1.287 . S
C1365 C1366 1.524 . S
C1365 H1368 0.999 . S
C1366 H1336 0.950 . S
C1366 C1365 1.524 . S
C1366 C1367 1.415 . S
C1367 H1337 0.950 . S
C1367 C1362 1.363 . S
C1367 C1366 1.415 . S
H1368 C1365 0.999 . S
H1369 C1350 0.913 . S
H1370 C1388 0.951 . S
H1371 C1390 0.951 . S
H1372 C1392 0.950 . S
H1373 C1393 0.950 . S
H1374 C1395 0.950 . S
H1375 C1398 0.950 . S
H1376 C1399 0.950 . S
H1377 C1401 0.950 . S
H1378 C1402 0.950 . S
H1379 C1403 0.951 . S
H1380 C1405 0.951 . S
H1381 C1407 0.950 . S
H1382 C1408 0.950 . S
H1383 C1410 0.950 . S
H1384 C1413 0.950 . S
H1385 C1414 0.950 . S
H1386 C1416 0.950 . S
H1387 C1417 0.950 . S
C1388 H1370 0.951 . S
C1388 C1389 1.366 . S
C1388 C1390 1.388 . S
C1389 C1388 1.366 . S
C1389 C1393 1.385 . S
C1390 H1371 0.951 . S
C1390 C1388 1.388 . S
C1390 C1391 1.366 . S
C1391 C1390 1.366 . S
C1391 C1392 1.414 . S
C1391 C1394 1.499 . S
C1392 H1372 0.950 . S
C1392 C1391 1.414 . S
C1392 C1393 1.374 . S
C1393 H1373 0.950 . S
C1393 C1389 1.385 . S
C1393 C1392 1.374 . S
C1394 C1391 1.499 . S
C1394 C1395 1.373 . S
C1394 C1396 1.389 . S
C1395 H1374 0.950 . S
C1395 C1394 1.373 . S
C1395 C1411 1.377 . S
C1396 C1394 1.389 . S
C1396 C1397 1.524 . S
C1396 C1410 1.377 . S
C1397 C1396 1.524 . S
C1397 C1398 1.397 . S
C1397 C1402 1.363 . S
C1398 H1375 0.950 . S
C1398 C1397 1.397 . S
C1398 C1399 1.334 . S
C1399 H1376 0.950 . S
C1399 C1398 1.334 . S
C1399 C1400 1.287 . S
C1400 C1399 1.287 . S
C1400 C1401 1.524 . S
C1400 H1419 0.913 . S
C1401 H1377 0.950 . S
C1401 C1400 1.524 . S
C1401 C1402 1.415 . S
C1402 H1378 0.950 . S
C1402 C1397 1.363 . S
C1402 C1401 1.415 . S
C1403 H1379 0.951 . S
C1403 C1404 1.366 . S
C1403 C1405 1.388 . S
C1404 C1403 1.366 . S
C1404 C1408 1.385 . S
C1405 H1380 0.951 . S
C1405 C1403 1.388 . S
C1405 C1406 1.366 . S
C1406 C1405 1.366 . S
C1406 C1407 1.414 . S
C1406 C1409 1.499 . S
C1407 H1381 0.950 . S
C1407 C1406 1.414 . S
C1407 C1408 1.374 . S
C1408 H1382 0.950 . S
C1408 C1404 1.385 . S
C1408 C1407 1.374 . S
C1409 C1406 1.499 . S
C1409 C1410 1.373 . S
C1409 C1411 1.389 . S
C1410 H1383 0.950 . S
C1410 C1396 1.377 . S
C1410 C1409 1.373 . S
C1411 C1395 1.377 . S
C1411 C1409 1.389 . S
C1411 C1412 1.524 . S
C1412 C1411 1.524 . S
C1412 C1413 1.397 . S
C1412 C1417 1.363 . S
C1413 H1384 0.950 . S
C1413 C1412 1.397 . S
C1413 C1414 1.334 . S
C1414 H1385 0.950 . S
C1414 C1413 1.334 . S
C1414 C1415 1.287 . S
C1415 C1414 1.287 . S
C1415 C1416 1.524 . S
C1415 H1418 0.999 . S
C1416 H1386 0.950 . S
C1416 C1415 1.524 . S
C1416 C1417 1.415 . S
C1417 H1387 0.950 . S
C1417 C1412 1.363 . S
C1417 C1416 1.415 . S
H1418 C1415 0.999 . S
H1419 C1400 0.913 . S
H1420 C1438 0.951 . S
H1421 C1440 0.951 . S
H1422 C1442 0.950 . S
H1423 C1443 0.950 . S
H1424 C1445 0.950 . S
H1425 C1448 0.950 . S
H1426 C1449 0.950 . S
H1427 C1451 0.950 . S
H1428 C1452 0.950 . S
H1429 C1453 0.951 . S
H1430 C1455 0.951 . S
H1431 C1457 0.950 . S
H1432 C1458 0.950 . S
H1433 C1460 0.950 . S
H1434 C1463 0.950 . S
H1435 C1464 0.950 . S
H1436 C1466 0.950 . S
H1437 C1467 0.950 . S
C1438 H1420 0.951 . S
C1438 C1439 1.366 . S
C1438 C1440 1.388 . S
C1439 C1438 1.366 . S
C1439 C1443 1.385 . S
C1440 H1421 0.951 . S
C1440 C1438 1.388 . S
C1440 C1441 1.366 . S
C1441 C1440 1.366 . S
C1441 C1442 1.414 . S
C1441 C1444 1.499 . S
C1442 H1422 0.950 . S
C1442 C1441 1.414 . S
C1442 C1443 1.374 . S
C1443 H1423 0.950 . S
C1443 C1439 1.385 . S
C1443 C1442 1.374 . S
C1444 C1441 1.499 . S
C1444 C1445 1.373 . S
C1444 C1446 1.389 . S
C1445 H1424 0.950 . S
C1445 C1444 1.373 . S
C1445 C1461 1.377 . S
C1446 C1444 1.389 . S
C1446 C1447 1.524 . S
C1446 C1460 1.377 . S
C1447 C1446 1.524 . S
C1447 C1448 1.397 . S
C1447 C1452 1.363 . S
C1448 H1425 0.950 . S
C1448 C1447 1.397 . S
C1448 C1449 1.334 . S
C1449 H1426 0.950 . S
C1449 C1448 1.334 . S
C1449 C1450 1.287 . S
C1450 C1449 1.287 . S
C1450 C1451 1.524 . S
C1450 H1469 0.913 . S
C1451 H1427 0.950 . S
C1451 C1450 1.524 . S
C1451 C1452 1.415 . S
C1452 H1428 0.950 . S
C1452 C1447 1.363 . S
C1452 C1451 1.415 . S
C1453 H1429 0.951 . S
C1453 C1454 1.366 . S
C1453 C1455 1.388 . S
C1454 C1453 1.366 . S
C1454 C1458 1.385 . S
C1455 H1430 0.951 . S
C1455 C1453 1.388 . S
C1455 C1456 1.366 . S
C1456 C1455 1.366 . S
C1456 C1457 1.414 . S
C1456 C1459 1.499 . S
C1457 H1431 0.950 . S
C1457 C1456 1.414 . S
C1457 C1458 1.374 . S
C1458 H1432 0.950 . S
C1458 C1454 1.385 . S
C1458 C1457 1.374 . S
C1459 C1456 1.499 . S
C1459 C1460 1.373 . S
C1459 C1461 1.389 . S
C1460 H1433 0.950 . S
C1460 C1446 1.377 . S
C1460 C1459 1.373 . S
C1461 C1445 1.377 . S
C1461 C1459 1.389 . S
C1461 C1462 1.524 . S
C1462 C1461 1.524 . S
C1462 C1463 1.397 . S
C1462 C1467 1.363 . S
C1463 H1434 0.950 . S
C1463 C1462 1.397 . S
C1463 C1464 1.334 . S
C1464 H1435 0.950 . S
C1464 C1463 1.334 . S
C1464 C1465 1.287 . S
C1465 C1464 1.287 . S
C1465 C1466 1.524 . S
C1465 H1468 0.999 1_556 S
C1466 H1436 0.950 . S
C1466 C1465 1.524 . S
C1466 C1467 1.415 . S
C1467 H1437 0.950 . S
C1467 C1462 1.363 . S
C1467 C1466 1.415 . S
H1468 C1465 0.999 1_554 S
H1469 C1450 0.913 . S
H1470 C1488 0.951 . S
H1471 C1490 0.951 . S
H1472 C1492 0.950 . S
H1473 C1493 0.950 . S
H1474 C1495 0.950 . S
H1475 C1498 0.950 . S
H1476 C1499 0.950 . S
H1477 C1501 0.950 . S
H1478 C1502 0.950 . S
H1479 C1503 0.951 . S
H1480 C1505 0.951 . S
H1481 C1507 0.950 . S
H1482 C1508 0.950 . S
H1483 C1510 0.950 . S
H1484 C1513 0.950 . S
H1485 C1514 0.950 . S
H1486 C1516 0.950 . S
H1487 C1517 0.950 . S
C1488 H1470 0.951 . S
C1488 C1489 1.366 . S
C1488 C1490 1.388 . S
C1489 C1488 1.366 . S
C1489 C1493 1.385 . S
C1490 H1471 0.951 . S
C1490 C1488 1.388 . S
C1490 C1491 1.366 . S
C1491 C1490 1.366 . S
C1491 C1492 1.414 . S
C1491 C1494 1.499 . S
C1492 H1472 0.950 . S
C1492 C1491 1.414 . S
C1492 C1493 1.374 . S
C1493 H1473 0.950 . S
C1493 C1489 1.385 . S
C1493 C1492 1.374 . S
C1494 C1491 1.499 . S
C1494 C1495 1.373 . S
C1494 C1496 1.389 . S
C1495 H1474 0.950 . S
C1495 C1494 1.373 . S
C1495 C1511 1.377 . S
C1496 C1494 1.389 . S
C1496 C1497 1.524 . S
C1496 C1510 1.377 . S
C1497 C1496 1.524 . S
C1497 C1498 1.397 . S
C1497 C1502 1.363 . S
C1498 H1475 0.950 . S
C1498 C1497 1.397 . S
C1498 C1499 1.334 . S
C1499 H1476 0.950 . S
C1499 C1498 1.334 . S
C1499 C1500 1.287 . S
C1500 C1499 1.287 . S
C1500 C1501 1.524 . S
C1500 H1519 0.913 . S
C1501 H1477 0.950 . S
C1501 C1500 1.524 . S
C1501 C1502 1.415 . S
C1502 H1478 0.950 . S
C1502 C1497 1.363 . S
C1502 C1501 1.415 . S
C1503 H1479 0.951 . S
C1503 C1504 1.366 . S
C1503 C1505 1.388 . S
C1504 C1503 1.366 . S
C1504 C1508 1.385 . S
C1505 H1480 0.951 . S
C1505 C1503 1.388 . S
C1505 C1506 1.366 . S
C1506 C1505 1.366 . S
C1506 C1507 1.414 . S
C1506 C1509 1.499 . S
C1507 H1481 0.950 . S
C1507 C1506 1.414 . S
C1507 C1508 1.374 . S
C1508 H1482 0.950 . S
C1508 C1504 1.385 . S
C1508 C1507 1.374 . S
C1509 C1506 1.499 . S
C1509 C1510 1.373 . S
C1509 C1511 1.389 . S
C1510 H1483 0.950 . S
C1510 C1496 1.377 . S
C1510 C1509 1.373 . S
C1511 C1495 1.377 . S
C1511 C1509 1.389 . S
C1511 C1512 1.524 . S
C1512 C1511 1.524 . S
C1512 C1513 1.397 . S
C1512 C1517 1.363 . S
C1513 H1484 0.950 . S
C1513 C1512 1.397 . S
C1513 C1514 1.334 . S
C1514 H1485 0.950 . S
C1514 C1513 1.334 . S
C1514 C1515 1.287 . S
C1515 C1514 1.287 . S
C1515 C1516 1.524 . S
C1515 H1518 0.999 . S
C1516 H1486 0.950 . S
C1516 C1515 1.524 . S
C1516 C1517 1.415 . S
C1517 H1487 0.950 . S
C1517 C1512 1.363 . S
C1517 C1516 1.415 . S
H1518 C1515 0.999 . S
H1519 C1500 0.913 . S
H1520 C1538 0.951 . S
H1521 C1540 0.951 . S
H1522 C1542 0.950 . S
H1523 C1543 0.950 . S
H1524 C1545 0.950 . S
H1525 C1548 0.950 . S
H1526 C1549 0.950 . S
H1527 C1551 0.950 . S
H1528 C1552 0.950 . S
H1529 C1553 0.951 . S
H1530 C1555 0.951 . S
H1531 C1557 0.950 . S
H1532 C1558 0.950 . S
H1533 C1560 0.950 . S
H1534 C1563 0.950 . S
H1535 C1564 0.950 . S
H1536 C1566 0.950 . S
H1537 C1567 0.950 . S
C1538 H1520 0.951 . S
C1538 C1539 1.366 . S
C1538 C1540 1.388 . S
C1539 C1538 1.366 . S
C1539 C1543 1.385 . S
C1540 H1521 0.951 . S
C1540 C1538 1.388 . S
C1540 C1541 1.366 . S
C1541 C1540 1.366 . S
C1541 C1542 1.414 . S
C1541 C1544 1.499 . S
C1542 H1522 0.950 . S
C1542 C1541 1.414 . S
C1542 C1543 1.374 . S
C1543 H1523 0.950 . S
C1543 C1539 1.385 . S
C1543 C1542 1.374 . S
C1544 C1541 1.499 . S
C1544 C1545 1.373 . S
C1544 C1546 1.389 . S
C1545 H1524 0.950 . S
C1545 C1544 1.373 . S
C1545 C1561 1.377 . S
C1546 C1544 1.389 . S
C1546 C1547 1.524 . S
C1546 C1560 1.377 . S
C1547 C1546 1.524 . S
C1547 C1548 1.397 . S
C1547 C1552 1.363 . S
C1548 H1525 0.950 . S
C1548 C1547 1.397 . S
C1548 C1549 1.334 . S
C1549 H1526 0.950 . S
C1549 C1548 1.334 . S
C1549 C1550 1.287 . S
C1550 C1549 1.287 . S
C1550 C1551 1.524 . S
C1550 H1569 0.913 . S
C1551 H1527 0.950 . S
C1551 C1550 1.524 . S
C1551 C1552 1.415 . S
C1552 H1528 0.950 . S
C1552 C1547 1.363 . S
C1552 C1551 1.415 . S
C1553 H1529 0.951 . S
C1553 C1554 1.366 . S
C1553 C1555 1.388 . S
C1554 C1553 1.366 . S
C1554 C1558 1.385 . S
C1555 H1530 0.951 . S
C1555 C1553 1.388 . S
C1555 C1556 1.366 . S
C1556 C1555 1.366 . S
C1556 C1557 1.414 . S
C1556 C1559 1.499 . S
C1557 H1531 0.950 . S
C1557 C1556 1.414 . S
C1557 C1558 1.374 . S
C1558 H1532 0.950 . S
C1558 C1554 1.385 . S
C1558 C1557 1.374 . S
C1559 C1556 1.499 . S
C1559 C1560 1.373 . S
C1559 C1561 1.389 . S
C1560 H1533 0.950 . S
C1560 C1546 1.377 . S
C1560 C1559 1.373 . S
C1561 C1545 1.377 . S
C1561 C1559 1.389 . S
C1561 C1562 1.524 . S
C1562 C1561 1.524 . S
C1562 C1563 1.397 . S
C1562 C1567 1.363 . S
C1563 H1534 0.950 . S
C1563 C1562 1.397 . S
C1563 C1564 1.334 . S
C1564 H1535 0.950 . S
C1564 C1563 1.334 . S
C1564 C1565 1.287 . S
C1565 C1564 1.287 . S
C1565 C1566 1.524 . S
C1565 H1568 0.999 . S
C1566 H1536 0.950 . S
C1566 C1565 1.524 . S
C1566 C1567 1.415 . S
C1567 H1537 0.950 . S
C1567 C1562 1.363 . S
C1567 C1566 1.415 . S
H1568 C1565 0.999 . S
H1569 C1550 0.913 . S
H1570 C1588 0.951 . S
H1571 C1590 0.951 . S
H1572 C1592 0.950 . S
H1573 C1593 0.950 . S
H1574 C1595 0.950 . S
H1575 C1598 0.950 . S
H1576 C1599 0.950 . S
H1577 C1601 0.950 . S
H1578 C1602 0.950 . S
H1579 C1603 0.951 . S
H1580 C1605 0.951 . S
H1581 C1607 0.950 . S
H1582 C1608 0.950 . S
H1583 C1610 0.950 . S
H1584 C1613 0.950 . S
H1585 C1614 0.950 . S
H1586 C1616 0.950 . S
H1587 C1617 0.950 . S
C1588 H1570 0.951 . S
C1588 C1589 1.366 . S
C1588 C1590 1.388 . S
C1589 C1588 1.366 . S
C1589 C1593 1.385 . S
C1590 H1571 0.951 . S
C1590 C1588 1.388 . S
C1590 C1591 1.366 . S
C1591 C1590 1.366 . S
C1591 C1592 1.414 . S
C1591 C1594 1.499 . S
C1592 H1572 0.950 . S
C1592 C1591 1.414 . S
C1592 C1593 1.374 . S
C1593 H1573 0.950 . S
C1593 C1589 1.385 . S
C1593 C1592 1.374 . S
C1594 C1591 1.499 . S
C1594 C1595 1.373 . S
C1594 C1596 1.389 . S
C1595 H1574 0.950 . S
C1595 C1594 1.373 . S
C1595 C1611 1.377 . S
C1596 C1594 1.389 . S
C1596 C1597 1.524 . S
C1596 C1610 1.377 . S
C1597 C1596 1.524 . S
C1597 C1598 1.397 . S
C1597 C1602 1.363 . S
C1598 H1575 0.950 . S
C1598 C1597 1.397 . S
C1598 C1599 1.334 . S
C1599 H1576 0.950 . S
C1599 C1598 1.334 . S
C1599 C1600 1.287 . S
C1600 C1599 1.287 . S
C1600 C1601 1.524 . S
C1600 H1619 0.913 . S
C1601 H1577 0.950 . S
C1601 C1600 1.524 . S
C1601 C1602 1.415 . S
C1602 H1578 0.950 . S
C1602 C1597 1.363 . S
C1602 C1601 1.415 . S
C1603 H1579 0.951 . S
C1603 C1604 1.366 . S
C1603 C1605 1.388 . S
C1604 C1603 1.366 . S
C1604 C1608 1.385 . S
C1605 H1580 0.951 . S
C1605 C1603 1.388 . S
C1605 C1606 1.366 . S
C1606 C1605 1.366 . S
C1606 C1607 1.414 . S
C1606 C1609 1.499 . S
C1607 H1581 0.950 . S
C1607 C1606 1.414 . S
C1607 C1608 1.374 . S
C1608 H1582 0.950 . S
C1608 C1604 1.385 . S
C1608 C1607 1.374 . S
C1609 C1606 1.499 . S
C1609 C1610 1.373 . S
C1609 C1611 1.389 . S
C1610 H1583 0.950 . S
C1610 C1596 1.377 . S
C1610 C1609 1.373 . S
C1611 C1595 1.377 . S
C1611 C1609 1.389 . S
C1611 C1612 1.524 . S
C1612 C1611 1.524 . S
C1612 C1613 1.397 . S
C1612 C1617 1.363 . S
C1613 H1584 0.950 . S
C1613 C1612 1.397 . S
C1613 C1614 1.334 . S
C1614 H1585 0.950 . S
C1614 C1613 1.334 . S
C1614 C1615 1.287 . S
C1615 C1614 1.287 . S
C1615 C1616 1.524 . S
C1615 H1618 0.999 1_655 S
C1616 H1586 0.950 . S
C1616 C1615 1.524 . S
C1616 C1617 1.415 . S
C1617 H1587 0.950 . S
C1617 C1612 1.363 . S
C1617 C1616 1.415 . S
H1618 C1615 0.999 1_455 S
H1619 C1600 0.913 . S
H1620 C1638 0.951 . S
H1621 C1640 0.951 . S
H1622 C1642 0.950 . S
H1623 C1643 0.950 . S
H1624 C1645 0.950 . S
H1625 C1648 0.950 . S
H1626 C1649 0.950 . S
H1627 C1651 0.950 . S
H1628 C1652 0.950 . S
H1629 C1653 0.951 . S
H1630 C1655 0.951 . S
H1631 C1657 0.950 . S
H1632 C1658 0.950 . S
H1633 C1660 0.950 . S
H1634 C1663 0.950 . S
H1635 C1664 0.950 . S
H1636 C1666 0.950 . S
H1637 C1667 0.950 . S
C1638 H1620 0.951 . S
C1638 C1639 1.366 . S
C1638 C1640 1.388 . S
C1639 C1638 1.366 . S
C1639 C1643 1.385 . S
C1640 H1621 0.951 . S
C1640 C1638 1.388 . S
C1640 C1641 1.366 . S
C1641 C1640 1.366 . S
C1641 C1642 1.414 . S
C1641 C1644 1.499 . S
C1642 H1622 0.950 . S
C1642 C1641 1.414 . S
C1642 C1643 1.374 . S
C1643 H1623 0.950 . S
C1643 C1639 1.385 . S
C1643 C1642 1.374 . S
C1644 C1641 1.499 . S
C1644 C1645 1.373 . S
C1644 C1646 1.389 . S
C1645 H1624 0.950 . S
C1645 C1644 1.373 . S
C1645 C1661 1.377 . S
C1646 C1644 1.389 . S
C1646 C1647 1.524 . S
C1646 C1660 1.377 . S
C1647 C1646 1.524 . S
C1647 C1648 1.397 . S
C1647 C1652 1.363 . S
C1648 H1625 0.950 . S
C1648 C1647 1.397 . S
C1648 C1649 1.334 . S
C1649 H1626 0.950 . S
C1649 C1648 1.334 . S
C1649 C1650 1.287 . S
C1650 C1649 1.287 . S
C1650 C1651 1.524 . S
C1650 H1669 0.913 . S
C1651 H1627 0.950 . S
C1651 C1650 1.524 . S
C1651 C1652 1.415 . S
C1652 H1628 0.950 . S
C1652 C1647 1.363 . S
C1652 C1651 1.415 . S
C1653 H1629 0.951 . S
C1653 C1654 1.366 . S
C1653 C1655 1.388 . S
C1654 C1653 1.366 . S
C1654 C1658 1.385 . S
C1655 H1630 0.951 . S
C1655 C1653 1.388 . S
C1655 C1656 1.366 . S
C1656 C1655 1.366 . S
C1656 C1657 1.414 . S
C1656 C1659 1.499 . S
C1657 H1631 0.950 . S
C1657 C1656 1.414 . S
C1657 C1658 1.374 . S
C1658 H1632 0.950 . S
C1658 C1654 1.385 . S
C1658 C1657 1.374 . S
C1659 C1656 1.499 . S
C1659 C1660 1.373 . S
C1659 C1661 1.389 . S
C1660 H1633 0.950 . S
C1660 C1646 1.377 . S
C1660 C1659 1.373 . S
C1661 C1645 1.377 . S
C1661 C1659 1.389 . S
C1661 C1662 1.524 . S
C1662 C1661 1.524 . S
C1662 C1663 1.397 . S
C1662 C1667 1.363 . S
C1663 H1634 0.950 . S
C1663 C1662 1.397 . S
C1663 C1664 1.334 . S
C1664 H1635 0.950 . S
C1664 C1663 1.334 . S
C1664 C1665 1.287 . S
C1665 C1664 1.287 . S
C1665 C1666 1.524 . S
C1665 H1668 0.999 . S
C1666 H1636 0.950 . S
C1666 C1665 1.524 . S
C1666 C1667 1.415 . S
C1667 H1637 0.950 . S
C1667 C1662 1.363 . S
C1667 C1666 1.415 . S
H1668 C1665 0.999 . S
H1669 C1650 0.913 . S
H1670 C1688 0.951 . S
H1671 C1690 0.951 . S
H1672 C1692 0.950 . S
H1673 C1693 0.950 . S
H1674 C1695 0.950 . S
H1675 C1698 0.950 . S
H1676 C1699 0.950 . S
H1677 C1701 0.950 . S
H1678 C1702 0.950 . S
H1679 C1703 0.951 . S
H1680 C1705 0.951 . S
H1681 C1707 0.950 . S
H1682 C1708 0.950 . S
H1683 C1710 0.950 . S
H1684 C1713 0.950 . S
H1685 C1714 0.950 . S
H1686 C1716 0.950 . S
H1687 C1717 0.950 . S
C1688 H1670 0.951 . S
C1688 C1689 1.366 . S
C1688 C1690 1.388 . S
C1689 C1688 1.366 . S
C1689 C1693 1.385 . S
C1690 H1671 0.951 . S
C1690 C1688 1.388 . S
C1690 C1691 1.366 . S
C1691 C1690 1.366 . S
C1691 C1692 1.414 . S
C1691 C1694 1.499 . S
C1692 H1672 0.950 . S
C1692 C1691 1.414 . S
C1692 C1693 1.374 . S
C1693 H1673 0.950 . S
C1693 C1689 1.385 . S
C1693 C1692 1.374 . S
C1694 C1691 1.499 . S
C1694 C1695 1.373 . S
C1694 C1696 1.389 . S
C1695 H1674 0.950 . S
C1695 C1694 1.373 . S
C1695 C1711 1.377 . S
C1696 C1694 1.389 . S
C1696 C1697 1.524 . S
C1696 C1710 1.377 . S
C1697 C1696 1.524 . S
C1697 C1698 1.397 . S
C1697 C1702 1.363 . S
C1698 H1675 0.950 . S
C1698 C1697 1.397 . S
C1698 C1699 1.334 . S
C1699 H1676 0.950 . S
C1699 C1698 1.334 . S
C1699 C1700 1.287 . S
C1700 C1699 1.287 . S
C1700 C1701 1.524 . S
C1700 H1719 0.913 . S
C1701 H1677 0.950 . S
C1701 C1700 1.524 . S
C1701 C1702 1.415 . S
C1702 H1678 0.950 . S
C1702 C1697 1.363 . S
C1702 C1701 1.415 . S
C1703 H1679 0.951 . S
C1703 C1704 1.366 . S
C1703 C1705 1.388 . S
C1704 C1703 1.366 . S
C1704 C1708 1.385 . S
C1705 H1680 0.951 . S
C1705 C1703 1.388 . S
C1705 C1706 1.366 . S
C1706 C1705 1.366 . S
C1706 C1707 1.414 . S
C1706 C1709 1.499 . S
C1707 H1681 0.950 . S
C1707 C1706 1.414 . S
C1707 C1708 1.374 . S
C1708 H1682 0.950 . S
C1708 C1704 1.385 . S
C1708 C1707 1.374 . S
C1709 C1706 1.499 . S
C1709 C1710 1.373 . S
C1709 C1711 1.389 . S
C1710 H1683 0.950 . S
C1710 C1696 1.377 . S
C1710 C1709 1.373 . S
C1711 C1695 1.377 . S
C1711 C1709 1.389 . S
C1711 C1712 1.524 . S
C1712 C1711 1.524 . S
C1712 C1713 1.397 . S
C1712 C1717 1.363 . S
C1713 H1684 0.950 . S
C1713 C1712 1.397 . S
C1713 C1714 1.334 . S
C1714 H1685 0.950 . S
C1714 C1713 1.334 . S
C1714 C1715 1.287 . S
C1715 C1714 1.287 . S
C1715 C1716 1.524 . S
C1715 H1718 0.999 . S
C1716 H1686 0.950 . S
C1716 C1715 1.524 . S
C1716 C1717 1.415 . S
C1717 H1687 0.950 . S
C1717 C1712 1.363 . S
C1717 C1716 1.415 . S
H1718 C1715 0.999 . S
H1719 C1700 0.913 . S
H1720 C1738 0.951 . S
H1721 C1740 0.951 . S
H1722 C1742 0.950 . S
H1723 C1743 0.950 . S
H1724 C1745 0.950 . S
H1725 C1748 0.950 . S
H1726 C1749 0.950 . S
H1727 C1751 0.950 . S
H1728 C1752 0.950 . S
H1729 C1753 0.951 . S
H1730 C1755 0.951 . S
H1731 C1757 0.950 . S
H1732 C1758 0.950 . S
H1733 C1760 0.950 . S
H1734 C1763 0.950 . S
H1735 C1764 0.950 . S
H1736 C1766 0.950 . S
H1737 C1767 0.950 . S
C1738 H1720 0.951 . S
C1738 C1739 1.366 . S
C1738 C1740 1.388 . S
C1739 C1738 1.366 . S
C1739 C1743 1.385 . S
C1740 H1721 0.951 . S
C1740 C1738 1.388 . S
C1740 C1741 1.366 . S
C1741 C1740 1.366 . S
C1741 C1742 1.414 . S
C1741 C1744 1.499 . S
C1742 H1722 0.950 . S
C1742 C1741 1.414 . S
C1742 C1743 1.374 . S
C1743 H1723 0.950 . S
C1743 C1739 1.385 . S
C1743 C1742 1.374 . S
C1744 C1741 1.499 . S
C1744 C1745 1.373 . S
C1744 C1746 1.389 . S
C1745 H1724 0.950 . S
C1745 C1744 1.373 . S
C1745 C1761 1.377 . S
C1746 C1744 1.389 . S
C1746 C1747 1.524 . S
C1746 C1760 1.377 . S
C1747 C1746 1.524 . S
C1747 C1748 1.397 . S
C1747 C1752 1.363 . S
C1748 H1725 0.950 . S
C1748 C1747 1.397 . S
C1748 C1749 1.334 . S
C1749 H1726 0.950 . S
C1749 C1748 1.334 . S
C1749 C1750 1.287 . S
C1750 C1749 1.287 . S
C1750 C1751 1.524 . S
C1750 H1769 0.913 . S
C1751 H1727 0.950 . S
C1751 C1750 1.524 . S
C1751 C1752 1.415 . S
C1752 H1728 0.950 . S
C1752 C1747 1.363 . S
C1752 C1751 1.415 . S
C1753 H1729 0.951 . S
C1753 C1754 1.366 . S
C1753 C1755 1.388 . S
C1754 C1753 1.366 . S
C1754 C1758 1.385 . S
C1755 H1730 0.951 . S
C1755 C1753 1.388 . S
C1755 C1756 1.366 . S
C1756 C1755 1.366 . S
C1756 C1757 1.414 . S
C1756 C1759 1.499 . S
C1757 H1731 0.950 . S
C1757 C1756 1.414 . S
C1757 C1758 1.374 . S
C1758 H1732 0.950 . S
C1758 C1754 1.385 . S
C1758 C1757 1.374 . S
C1759 C1756 1.499 . S
C1759 C1760 1.373 . S
C1759 C1761 1.389 . S
C1760 H1733 0.950 . S
C1760 C1746 1.377 . S
C1760 C1759 1.373 . S
C1761 C1745 1.377 . S
C1761 C1759 1.389 . S
C1761 C1762 1.524 . S
C1762 C1761 1.524 . S
C1762 C1763 1.397 . S
C1762 C1767 1.363 . S
C1763 H1734 0.950 . S
C1763 C1762 1.397 . S
C1763 C1764 1.334 . S
C1764 H1735 0.950 . S
C1764 C1763 1.334 . S
C1764 C1765 1.287 . S
C1765 C1764 1.287 . S
C1765 C1766 1.524 . S
C1765 H1768 0.999 . S
C1766 H1736 0.950 . S
C1766 C1765 1.524 . S
C1766 C1767 1.415 . S
C1767 H1737 0.950 . S
C1767 C1762 1.363 . S
C1767 C1766 1.415 . S
H1768 C1765 0.999 . S
H1769 C1750 0.913 . S
H1770 C1788 0.951 . S
H1771 C1790 0.951 . S
H1772 C1792 0.950 . S
H1773 C1793 0.950 . S
H1774 C1795 0.950 . S
H1775 C1798 0.950 . S
H1776 C1799 0.950 . S
H1777 C1801 0.950 . S
H1778 C1802 0.950 . S
H1779 C1803 0.951 . S
H1780 C1805 0.951 . S
H1781 C1807 0.950 . S
H1782 C1808 0.950 . S
H1783 C1810 0.950 . S
H1784 C1813 0.950 . S
H1785 C1814 0.950 . S
H1786 C1816 0.951 1_655 S
H1787 C1817 0.950 . S
C1788 H1770 0.951 . S
C1788 C1789 1.366 . S
C1788 C1790 1.388 . S
C1789 C1788 1.366 . S
C1789 C1793 1.385 . S
C1790 H1771 0.951 . S
C1790 C1788 1.388 . S
C1790 C1791 1.366 . S
C1791 C1790 1.366 . S
C1791 C1792 1.414 . S
C1791 C1794 1.499 . S
C1792 H1772 0.950 . S
C1792 C1791 1.414 . S
C1792 C1793 1.374 . S
C1793 H1773 0.950 . S
C1793 C1789 1.385 . S
C1793 C1792 1.374 . S
C1794 C1791 1.499 . S
C1794 C1795 1.373 . S
C1794 C1796 1.389 . S
C1795 H1774 0.950 . S
C1795 C1794 1.373 . S
C1795 C1811 1.377 . S
C1796 C1794 1.389 . S
C1796 C1797 1.524 . S
C1796 C1810 1.377 . S
C1797 C1796 1.524 . S
C1797 C1798 1.397 . S
C1797 C1802 1.363 . S
C1798 H1775 0.950 . S
C1798 C1797 1.397 . S
C1798 C1799 1.334 . S
C1799 H1776 0.950 . S
C1799 C1798 1.334 . S
C1799 C1800 1.287 . S
C1800 C1799 1.287 . S
C1800 C1801 1.524 . S
C1800 H1819 0.913 . S
C1801 H1777 0.950 . S
C1801 C1800 1.524 . S
C1801 C1802 1.415 . S
C1802 H1778 0.950 . S
C1802 C1797 1.363 . S
C1802 C1801 1.415 . S
C1803 H1779 0.951 . S
C1803 C1804 1.366 . S
C1803 C1805 1.388 . S
C1804 C1803 1.366 . S
C1804 C1808 1.385 . S
C1805 H1780 0.951 . S
C1805 C1803 1.388 . S
C1805 C1806 1.366 . S
C1806 C1805 1.366 . S
C1806 C1807 1.414 . S
C1806 C1809 1.499 . S
C1807 H1781 0.950 . S
C1807 C1806 1.414 . S
C1807 C1808 1.374 . S
C1808 H1782 0.950 . S
C1808 C1804 1.385 . S
C1808 C1807 1.374 . S
C1809 C1806 1.499 . S
C1809 C1810 1.373 . S
C1809 C1811 1.389 . S
C1810 H1783 0.950 . S
C1810 C1796 1.377 . S
C1810 C1809 1.373 . S
C1811 C1795 1.377 . S
C1811 C1809 1.389 . S
C1811 C1812 1.524 . S
C1812 C1811 1.524 . S
C1812 C1813 1.397 . S
C1812 C1817 1.363 . S
C1813 H1784 0.950 . S
C1813 C1812 1.397 . S
C1813 C1814 1.334 . S
C1814 H1785 0.950 . S
C1814 C1813 1.334 . S
C1814 C1815 1.287 1_455 S
C1815 C1814 1.287 1_655 S
C1815 C1816 1.525 1_655 S
C1815 H1818 0.999 . S
C1816 H1786 0.951 1_455 S
C1816 C1815 1.525 1_455 S
C1816 C1817 1.412 . S
C1817 H1787 0.950 . S
C1817 C1812 1.363 . S
C1817 C1816 1.412 . S
H1818 C1815 0.999 . S
H1819 C1800 0.913 . S
H1820 C1838 0.951 . S
H1821 C1840 0.951 . S
H1822 C1842 0.950 . S
H1823 C1843 0.950 . S
H1824 C1845 0.950 . S
H1825 C1848 0.950 . S
H1826 C1849 0.950 . S
H1827 C1851 0.950 . S
H1828 C1852 0.950 . S
H1829 C1853 0.951 . S
H1830 C1855 0.951 . S
H1831 C1857 0.950 . S
H1832 C1858 0.950 . S
H1833 C1860 0.950 . S
H1834 C1863 0.950 . S
H1835 C1864 0.950 . S
H1836 C1866 0.950 . S
H1837 C1867 0.950 . S
C1838 H1820 0.951 . S
C1838 C1839 1.366 . S
C1838 C1840 1.388 . S
C1839 C1838 1.366 . S
C1839 C1843 1.385 . S
C1840 H1821 0.951 . S
C1840 C1838 1.388 . S
C1840 C1841 1.366 . S
C1841 C1840 1.366 . S
C1841 C1842 1.414 . S
C1841 C1844 1.499 . S
C1842 H1822 0.950 . S
C1842 C1841 1.414 . S
C1842 C1843 1.374 . S
C1843 H1823 0.950 . S
C1843 C1839 1.385 . S
C1843 C1842 1.374 . S
C1844 C1841 1.499 . S
C1844 C1845 1.373 . S
C1844 C1846 1.389 . S
C1845 H1824 0.950 . S
C1845 C1844 1.373 . S
C1845 C1861 1.377 . S
C1846 C1844 1.389 . S
C1846 C1847 1.524 . S
C1846 C1860 1.377 . S
C1847 C1846 1.524 . S
C1847 C1848 1.397 . S
C1847 C1852 1.363 . S
C1848 H1825 0.950 . S
C1848 C1847 1.397 . S
C1848 C1849 1.334 . S
C1849 H1826 0.950 . S
C1849 C1848 1.334 . S
C1849 C1850 1.287 . S
C1850 C1849 1.287 . S
C1850 C1851 1.524 . S
C1850 H1869 0.913 . S
C1851 H1827 0.950 . S
C1851 C1850 1.524 . S
C1851 C1852 1.415 . S
C1852 H1828 0.950 . S
C1852 C1847 1.363 . S
C1852 C1851 1.415 . S
C1853 H1829 0.951 . S
C1853 C1854 1.366 . S
C1853 C1855 1.388 . S
C1854 C1853 1.366 . S
C1854 C1858 1.385 . S
C1855 H1830 0.951 . S
C1855 C1853 1.388 . S
C1855 C1856 1.366 . S
C1856 C1855 1.366 . S
C1856 C1857 1.414 . S
C1856 C1859 1.499 . S
C1857 H1831 0.950 . S
C1857 C1856 1.414 . S
C1857 C1858 1.374 . S
C1858 H1832 0.950 . S
C1858 C1854 1.385 . S
C1858 C1857 1.374 . S
C1859 C1856 1.499 . S
C1859 C1860 1.373 . S
C1859 C1861 1.389 . S
C1860 H1833 0.950 . S
C1860 C1846 1.377 . S
C1860 C1859 1.373 . S
C1861 C1845 1.377 . S
C1861 C1859 1.389 . S
C1861 C1862 1.524 . S
C1862 C1861 1.524 . S
C1862 C1863 1.397 . S
C1862 C1867 1.363 . S
C1863 H1834 0.950 . S
C1863 C1862 1.397 . S
C1863 C1864 1.334 . S
C1864 H1835 0.950 . S
C1864 C1863 1.334 . S
C1864 C1865 1.287 . S
C1865 C1864 1.287 . S
C1865 C1866 1.524 . S
C1865 H1868 0.999 . S
C1866 H1836 0.950 . S
C1866 C1865 1.524 . S
C1866 C1867 1.415 . S
C1867 H1837 0.950 . S
C1867 C1862 1.363 . S
C1867 C1866 1.415 . S
H1868 C1865 0.999 . S
H1869 C1850 0.913 . S
H1870 C1888 0.951 . S
H1871 C1890 0.951 . S
H1872 C1892 0.950 . S
H1873 C1893 0.950 . S
H1874 C1895 0.950 . S
H1875 C1898 0.950 . S
H1876 C1899 0.950 . S
H1877 C1901 0.950 . S
H1878 C1902 0.950 . S
H1879 C1903 0.951 . S
H1880 C1905 0.951 . S
H1881 C1907 0.950 . S
H1882 C1908 0.950 . S
H1883 C1910 0.950 . S
H1884 C1913 0.950 . S
H1885 C1914 0.950 . S
H1886 C1916 0.950 . S
H1887 C1917 0.950 . S
C1888 H1870 0.951 . S
C1888 C1889 1.366 . S
C1888 C1890 1.388 . S
C1889 C1888 1.366 . S
C1889 C1893 1.385 . S
C1890 H1871 0.951 . S
C1890 C1888 1.388 . S
C1890 C1891 1.366 . S
C1891 C1890 1.366 . S
C1891 C1892 1.414 . S
C1891 C1894 1.499 . S
C1892 H1872 0.950 . S
C1892 C1891 1.414 . S
C1892 C1893 1.374 . S
C1893 H1873 0.950 . S
C1893 C1889 1.385 . S
C1893 C1892 1.374 . S
C1894 C1891 1.499 . S
C1894 C1895 1.373 . S
C1894 C1896 1.389 . S
C1895 H1874 0.950 . S
C1895 C1894 1.373 . S
C1895 C1911 1.377 . S
C1896 C1894 1.389 . S
C1896 C1897 1.524 . S
C1896 C1910 1.377 . S
C1897 C1896 1.524 . S
C1897 C1898 1.397 . S
C1897 C1902 1.363 . S
C1898 H1875 0.950 . S
C1898 C1897 1.397 . S
C1898 C1899 1.334 . S
C1899 H1876 0.950 . S
C1899 C1898 1.334 . S
C1899 C1900 1.287 . S
C1900 C1899 1.287 . S
C1900 C1901 1.524 . S
C1900 H1919 0.913 . S
C1901 H1877 0.950 . S
C1901 C1900 1.524 . S
C1901 C1902 1.415 . S
C1902 H1878 0.950 . S
C1902 C1897 1.363 . S
C1902 C1901 1.415 . S
C1903 H1879 0.951 . S
C1903 C1904 1.366 . S
C1903 C1905 1.388 . S
C1904 C1903 1.366 . S
C1904 C1908 1.385 . S
C1905 H1880 0.951 . S
C1905 C1903 1.388 . S
C1905 C1906 1.366 . S
C1906 C1905 1.366 . S
C1906 C1907 1.414 . S
C1906 C1909 1.499 . S
C1907 H1881 0.950 . S
C1907 C1906 1.414 . S
C1907 C1908 1.374 . S
C1908 H1882 0.950 . S
C1908 C1904 1.385 . S
C1908 C1907 1.374 . S
C1909 C1906 1.499 . S
C1909 C1910 1.373 . S
C1909 C1911 1.389 . S
C1910 H1883 0.950 . S
C1910 C1896 1.377 . S
C1910 C1909 1.373 . S
C1911 C1895 1.377 . S
C1911 C1909 1.389 . S
C1911 C1912 1.524 . S
C1912 C1911 1.524 . S
C1912 C1913 1.397 . S
C1912 C1917 1.363 . S
C1913 H1884 0.950 . S
C1913 C1912 1.397 . S
C1913 C1914 1.334 . S
C1914 H1885 0.950 . S
C1914 C1913 1.334 . S
C1914 C1915 1.287 . S
C1915 C1914 1.287 . S
C1915 C1916 1.524 . S
C1915 H1918 0.999 . S
C1916 H1886 0.950 . S
C1916 C1915 1.524 . S
C1916 C1917 1.415 . S
C1917 H1887 0.950 . S
C1917 C1912 1.363 . S
C1917 C1916 1.415 . S
H1918 C1915 0.999 . S
H1919 C1900 0.913 . S
H1920 C1938 0.951 . S
H1921 C1940 0.951 . S
H1922 C1942 0.950 . S
H1923 C1943 0.950 . S
H1924 C1945 0.950 . S
H1925 C1948 0.950 . S
H1926 C1949 0.950 . S
H1927 C1951 0.950 . S
H1928 C1952 0.950 . S
H1929 C1953 0.951 . S
H1930 C1955 0.951 . S
H1931 C1957 0.950 . S
H1932 C1958 0.950 . S
H1933 C1960 0.950 . S
H1934 C1963 0.950 . S
H1935 C1964 0.950 . S
H1936 C1966 0.950 . S
H1937 C1967 0.950 . S
C1938 H1920 0.951 . S
C1938 C1939 1.366 . S
C1938 C1940 1.388 . S
C1939 C1938 1.366 . S
C1939 C1943 1.385 . S
C1940 H1921 0.951 . S
C1940 C1938 1.388 . S
C1940 C1941 1.366 . S
C1941 C1940 1.366 . S
C1941 C1942 1.414 . S
C1941 C1944 1.499 . S
C1942 H1922 0.950 . S
C1942 C1941 1.414 . S
C1942 C1943 1.374 . S
C1943 H1923 0.950 . S
C1943 C1939 1.385 . S
C1943 C1942 1.374 . S
C1944 C1941 1.499 . S
C1944 C1945 1.373 . S
C1944 C1946 1.389 . S
C1945 H1924 0.950 . S
C1945 C1944 1.373 . S
C1945 C1961 1.377 . S
C1946 C1944 1.389 . S
C1946 C1947 1.524 . S
C1946 C1960 1.377 . S
C1947 C1946 1.524 . S
C1947 C1948 1.397 . S
C1947 C1952 1.363 . S
C1948 H1925 0.950 . S
C1948 C1947 1.397 . S
C1948 C1949 1.334 . S
C1949 H1926 0.950 . S
C1949 C1948 1.334 . S
C1949 C1950 1.287 . S
C1950 C1949 1.287 . S
C1950 C1951 1.524 . S
C1950 H1969 0.913 . S
C1951 H1927 0.950 . S
C1951 C1950 1.524 . S
C1951 C1952 1.415 . S
C1952 H1928 0.950 . S
C1952 C1947 1.363 . S
C1952 C1951 1.415 . S
C1953 H1929 0.951 . S
C1953 C1954 1.366 . S
C1953 C1955 1.388 . S
C1954 C1953 1.366 . S
C1954 C1958 1.385 . S
C1955 H1930 0.951 . S
C1955 C1953 1.388 . S
C1955 C1956 1.366 . S
C1956 C1955 1.366 . S
C1956 C1957 1.414 . S
C1956 C1959 1.499 . S
C1957 H1931 0.950 . S
C1957 C1956 1.414 . S
C1957 C1958 1.374 . S
C1958 H1932 0.950 . S
C1958 C1954 1.385 . S
C1958 C1957 1.374 . S
C1959 C1956 1.499 . S
C1959 C1960 1.373 . S
C1959 C1961 1.389 . S
C1960 H1933 0.950 . S
C1960 C1946 1.377 . S
C1960 C1959 1.373 . S
C1961 C1945 1.377 . S
C1961 C1959 1.389 . S
C1961 C1962 1.524 . S
C1962 C1961 1.524 . S
C1962 C1963 1.397 . S
C1962 C1967 1.363 . S
C1963 H1934 0.950 . S
C1963 C1962 1.397 . S
C1963 C1964 1.334 . S
C1964 H1935 0.950 . S
C1964 C1963 1.334 . S
C1964 C1965 1.287 . S
C1965 C1964 1.287 . S
C1965 C1966 1.524 . S
C1965 H1968 0.999 . S
C1966 H1936 0.950 . S
C1966 C1965 1.524 . S
C1966 C1967 1.415 . S
C1967 H1937 0.950 . S
C1967 C1962 1.363 . S
C1967 C1966 1.415 . S
H1968 C1965 0.999 . S
H1969 C1950 0.913 . S
H1970 C1988 0.951 . S
H1971 C1990 0.951 . S
H1972 C1992 0.950 . S
H1973 C1993 0.950 . S
H1974 C1995 0.950 . S
H1975 C1998 0.950 . S
H1976 C1999 0.950 . S
H1977 C2001 0.950 . S
H1978 C2002 0.950 . S
H1979 C2003 0.951 . S
H1980 C2005 0.951 . S
H1981 C2007 0.950 . S
H1982 C2008 0.950 . S
H1983 C2010 0.950 . S
H1984 C2013 0.950 . S
H1985 C2014 0.950 . S
H1986 C2016 0.950 . S
H1987 C2017 0.950 . S
C1988 H1970 0.951 . S
C1988 C1989 1.366 . S
C1988 C1990 1.388 . S
C1989 C1988 1.366 . S
C1989 C1993 1.385 . S
C1990 H1971 0.951 . S
C1990 C1988 1.388 . S
C1990 C1991 1.366 . S
C1991 C1990 1.366 . S
C1991 C1992 1.414 . S
C1991 C1994 1.499 . S
C1992 H1972 0.950 . S
C1992 C1991 1.414 . S
C1992 C1993 1.374 . S
C1993 H1973 0.950 . S
C1993 C1989 1.385 . S
C1993 C1992 1.374 . S
C1994 C1991 1.499 . S
C1994 C1995 1.373 . S
C1994 C1996 1.389 . S
C1995 H1974 0.950 . S
C1995 C1994 1.373 . S
C1995 C2011 1.377 . S
C1996 C1994 1.389 . S
C1996 C1997 1.524 . S
C1996 C2010 1.377 . S
C1997 C1996 1.524 . S
C1997 C1998 1.397 . S
C1997 C2002 1.363 . S
C1998 H1975 0.950 . S
C1998 C1997 1.397 . S
C1998 C1999 1.334 . S
C1999 H1976 0.950 . S
C1999 C1998 1.334 . S
C1999 C2000 1.287 . S
C2000 C1999 1.287 . S
C2000 C2001 1.524 . S
C2000 H2019 0.913 . S
C2001 H1977 0.950 . S
C2001 C2000 1.524 . S
C2001 C2002 1.415 . S
C2002 H1978 0.950 . S
C2002 C1997 1.363 . S
C2002 C2001 1.415 . S
C2003 H1979 0.951 . S
C2003 C2004 1.366 . S
C2003 C2005 1.388 . S
C2004 C2003 1.366 . S
C2004 C2008 1.385 . S
C2005 H1980 0.951 . S
C2005 C2003 1.388 . S
C2005 C2006 1.366 . S
C2006 C2005 1.366 . S
C2006 C2007 1.414 . S
C2006 C2009 1.499 . S
C2007 H1981 0.950 . S
C2007 C2006 1.414 . S
C2007 C2008 1.374 . S
C2008 H1982 0.950 . S
C2008 C2004 1.385 . S
C2008 C2007 1.374 . S
C2009 C2006 1.499 . S
C2009 C2010 1.373 . S
C2009 C2011 1.389 . S
C2010 H1983 0.950 . S
C2010 C1996 1.377 . S
C2010 C2009 1.373 . S
C2011 C1995 1.377 . S
C2011 C2009 1.389 . S
C2011 C2012 1.524 . S
C2012 C2011 1.524 . S
C2012 C2013 1.397 . S
C2012 C2017 1.363 . S
C2013 H1984 0.950 . S
C2013 C2012 1.397 . S
C2013 C2014 1.334 . S
C2014 H1985 0.950 . S
C2014 C2013 1.334 . S
C2014 C2015 1.287 . S
C2015 C2014 1.287 . S
C2015 C2016 1.524 . S
C2015 H2018 0.999 . S
C2016 H1986 0.950 . S
C2016 C2015 1.524 . S
C2016 C2017 1.415 . S
C2017 H1987 0.950 . S
C2017 C2012 1.363 . S
C2017 C2016 1.415 . S
H2018 C2015 0.999 . S
H2019 C2000 0.913 . S
H2020 C2038 0.951 . S
H2021 C2040 0.951 . S
H2022 C2042 0.950 . S
H2023 C2043 0.950 . S
H2024 C2045 0.950 . S
H2025 C2048 0.950 . S
H2026 C2049 0.950 . S
H2027 C2051 0.950 . S
H2028 C2052 0.950 . S
H2029 C2053 0.951 . S
H2030 C2055 0.951 . S
H2031 C2057 0.950 . S
H2032 C2058 0.950 . S
H2033 C2060 0.950 . S
H2034 C2063 0.950 . S
H2035 C2064 0.950 . S
H2036 C2066 0.950 . S
H2037 C2067 0.950 . S
C2038 H2020 0.951 . S
C2038 C2039 1.366 . S
C2038 C2040 1.388 . S
C2039 C2038 1.366 . S
C2039 C2043 1.385 . S
C2040 H2021 0.951 . S
C2040 C2038 1.388 . S
C2040 C2041 1.366 . S
C2041 C2040 1.366 . S
C2041 C2042 1.414 . S
C2041 C2044 1.499 . S
C2042 H2022 0.950 . S
C2042 C2041 1.414 . S
C2042 C2043 1.374 . S
C2043 H2023 0.950 . S
C2043 C2039 1.385 . S
C2043 C2042 1.374 . S
C2044 C2041 1.499 . S
C2044 C2045 1.373 . S
C2044 C2046 1.389 . S
C2045 H2024 0.950 . S
C2045 C2044 1.373 . S
C2045 C2061 1.377 . S
C2046 C2044 1.389 . S
C2046 C2047 1.524 . S
C2046 C2060 1.377 . S
C2047 C2046 1.524 . S
C2047 C2048 1.397 . S
C2047 C2052 1.363 . S
C2048 H2025 0.950 . S
C2048 C2047 1.397 . S
C2048 C2049 1.334 . S
C2049 H2026 0.950 . S
C2049 C2048 1.334 . S
C2049 C2050 1.287 . S
C2050 C2049 1.287 . S
C2050 C2051 1.524 . S
C2050 H2069 0.913 . S
C2051 H2027 0.950 . S
C2051 C2050 1.524 . S
C2051 C2052 1.415 . S
C2052 H2028 0.950 . S
C2052 C2047 1.363 . S
C2052 C2051 1.415 . S
C2053 H2029 0.951 . S
C2053 C2054 1.366 . S
C2053 C2055 1.388 . S
C2054 C2053 1.366 . S
C2054 C2058 1.385 . S
C2055 H2030 0.951 . S
C2055 C2053 1.388 . S
C2055 C2056 1.366 . S
C2056 C2055 1.366 . S
C2056 C2057 1.414 . S
C2056 C2059 1.499 . S
C2057 H2031 0.950 . S
C2057 C2056 1.414 . S
C2057 C2058 1.374 . S
C2058 H2032 0.950 . S
C2058 C2054 1.385 . S
C2058 C2057 1.374 . S
C2059 C2056 1.499 . S
C2059 C2060 1.373 . S
C2059 C2061 1.389 . S
C2060 H2033 0.950 . S
C2060 C2046 1.377 . S
C2060 C2059 1.373 . S
C2061 C2045 1.377 . S
C2061 C2059 1.389 . S
C2061 C2062 1.524 . S
C2062 C2061 1.524 . S
C2062 C2063 1.397 . S
C2062 C2067 1.363 . S
C2063 H2034 0.950 . S
C2063 C2062 1.397 . S
C2063 C2064 1.334 . S
C2064 H2035 0.950 . S
C2064 C2063 1.334 . S
C2064 C2065 1.287 . S
C2065 C2064 1.287 . S
C2065 C2066 1.524 . S
C2065 H2068 0.999 . S
C2066 H2036 0.950 . S
C2066 C2065 1.524 . S
C2066 C2067 1.415 . S
C2067 H2037 0.950 . S
C2067 C2062 1.363 . S
C2067 C2066 1.415 . S
H2068 C2065 0.999 . S
H2069 C2050 0.913 . S
H2070 C2088 0.951 . S
H2071 C2090 0.951 . S
H2072 C2092 0.950 . S
H2073 C2093 0.950 . S
H2074 C2095 0.950 . S
H2075 C2098 0.950 . S
H2076 C2099 0.950 . S
H2077 C2101 0.950 . S
H2078 C2102 0.950 . S
H2079 C2103 0.951 . S
H2080 C2105 0.951 . S
H2081 C2107 0.950 . S
H2082 C2108 0.950 . S
H2083 C2110 0.950 . S
H2084 C2113 0.950 . S
H2085 C2114 0.950 . S
H2086 C2116 0.950 . S
H2087 C2117 0.950 . S
C2088 H2070 0.951 . S
C2088 C2089 1.366 . S
C2088 C2090 1.388 . S
C2089 C2088 1.366 . S
C2089 C2093 1.385 . S
C2090 H2071 0.951 . S
C2090 C2088 1.388 . S
C2090 C2091 1.366 . S
C2091 C2090 1.366 . S
C2091 C2092 1.414 . S
C2091 C2094 1.499 . S
C2092 H2072 0.950 . S
C2092 C2091 1.414 . S
C2092 C2093 1.374 . S
C2093 H2073 0.950 . S
C2093 C2089 1.385 . S
C2093 C2092 1.374 . S
C2094 C2091 1.499 . S
C2094 C2095 1.373 . S
C2094 C2096 1.389 . S
C2095 H2074 0.950 . S
C2095 C2094 1.373 . S
C2095 C2111 1.377 . S
C2096 C2094 1.389 . S
C2096 C2097 1.524 . S
C2096 C2110 1.377 . S
C2097 C2096 1.524 . S
C2097 C2098 1.397 . S
C2097 C2102 1.363 . S
C2098 H2075 0.950 . S
C2098 C2097 1.397 . S
C2098 C2099 1.334 . S
C2099 H2076 0.950 . S
C2099 C2098 1.334 . S
C2099 C2100 1.287 . S
C2100 C2099 1.287 . S
C2100 C2101 1.524 . S
C2100 H2119 0.913 . S
C2101 H2077 0.950 . S
C2101 C2100 1.524 . S
C2101 C2102 1.415 . S
C2102 H2078 0.950 . S
C2102 C2097 1.363 . S
C2102 C2101 1.415 . S
C2103 H2079 0.951 . S
C2103 C2104 1.366 . S
C2103 C2105 1.388 . S
C2104 C2103 1.366 . S
C2104 C2108 1.385 . S
C2105 H2080 0.951 . S
C2105 C2103 1.388 . S
C2105 C2106 1.366 . S
C2106 C2105 1.366 . S
C2106 C2107 1.414 . S
C2106 C2109 1.499 . S
C2107 H2081 0.950 . S
C2107 C2106 1.414 . S
C2107 C2108 1.374 . S
C2108 H2082 0.950 . S
C2108 C2104 1.385 . S
C2108 C2107 1.374 . S
C2109 C2106 1.499 . S
C2109 C2110 1.373 . S
C2109 C2111 1.389 . S
C2110 H2083 0.950 . S
C2110 C2096 1.377 . S
C2110 C2109 1.373 . S
C2111 C2095 1.377 . S
C2111 C2109 1.389 . S
C2111 C2112 1.524 . S
C2112 C2111 1.524 . S
C2112 C2113 1.397 . S
C2112 C2117 1.363 . S
C2113 H2084 0.950 . S
C2113 C2112 1.397 . S
C2113 C2114 1.334 . S
C2114 H2085 0.950 . S
C2114 C2113 1.334 . S
C2114 C2115 1.287 . S
C2115 C2114 1.287 . S
C2115 C2116 1.524 . S
C2115 H2118 0.999 . S
C2116 H2086 0.950 . S
C2116 C2115 1.524 . S
C2116 C2117 1.415 . S
C2117 H2087 0.950 . S
C2117 C2112 1.363 . S
C2117 C2116 1.415 . S
H2118 C2115 0.999 . S
H2119 C2100 0.913 . S
H2120 C2138 0.951 . S
H2121 C2140 0.951 . S
H2122 C2142 0.950 . S
H2123 C2143 0.950 . S
H2124 C2145 0.950 . S
H2125 C2148 0.950 . S
H2126 C2149 0.950 . S
H2127 C2151 0.950 . S
H2128 C2152 0.950 . S
H2129 C2153 0.951 . S
H2130 C2155 0.951 . S
H2131 C2157 0.950 . S
H2132 C2158 0.950 . S
H2133 C2160 0.950 . S
H2134 C2163 0.950 . S
H2135 C2164 0.950 . S
H2136 C2166 0.950 . S
H2137 C2167 0.950 . S
C2138 H2120 0.951 . S
C2138 C2139 1.366 . S
C2138 C2140 1.388 . S
C2139 C2138 1.366 . S
C2139 C2143 1.385 . S
C2140 H2121 0.951 . S
C2140 C2138 1.388 . S
C2140 C2141 1.366 . S
C2141 C2140 1.366 . S
C2141 C2142 1.414 . S
C2141 C2144 1.499 . S
C2142 H2122 0.950 . S
C2142 C2141 1.414 . S
C2142 C2143 1.374 . S
C2143 H2123 0.950 . S
C2143 C2139 1.385 . S
C2143 C2142 1.374 . S
C2144 C2141 1.499 . S
C2144 C2145 1.373 . S
C2144 C2146 1.389 . S
C2145 H2124 0.950 . S
C2145 C2144 1.373 . S
C2145 C2161 1.377 . S
C2146 C2144 1.389 . S
C2146 C2147 1.524 . S
C2146 C2160 1.377 . S
C2147 C2146 1.524 . S
C2147 C2148 1.397 . S
C2147 C2152 1.363 . S
C2148 H2125 0.950 . S
C2148 C2147 1.397 . S
C2148 C2149 1.334 . S
C2149 H2126 0.950 . S
C2149 C2148 1.334 . S
C2149 C2150 1.287 . S
C2150 C2149 1.287 . S
C2150 C2151 1.524 . S
C2150 H2169 0.913 1_556 S
C2151 H2127 0.950 . S
C2151 C2150 1.524 . S
C2151 C2152 1.415 . S
C2152 H2128 0.950 . S
C2152 C2147 1.363 . S
C2152 C2151 1.415 . S
C2153 H2129 0.951 . S
C2153 C2154 1.366 . S
C2153 C2155 1.388 . S
C2154 C2153 1.366 . S
C2154 C2158 1.385 . S
C2155 H2130 0.951 . S
C2155 C2153 1.388 . S
C2155 C2156 1.366 . S
C2156 C2155 1.366 . S
C2156 C2157 1.414 . S
C2156 C2159 1.499 . S
C2157 H2131 0.950 . S
C2157 C2156 1.414 . S
C2157 C2158 1.374 . S
C2158 H2132 0.950 . S
C2158 C2154 1.385 . S
C2158 C2157 1.374 . S
C2159 C2156 1.499 . S
C2159 C2160 1.373 . S
C2159 C2161 1.389 . S
C2160 H2133 0.950 . S
C2160 C2146 1.377 . S
C2160 C2159 1.373 . S
C2161 C2145 1.377 . S
C2161 C2159 1.389 . S
C2161 C2162 1.524 . S
C2162 C2161 1.524 . S
C2162 C2163 1.397 . S
C2162 C2167 1.363 . S
C2163 H2134 0.950 . S
C2163 C2162 1.397 . S
C2163 C2164 1.334 . S
C2164 H2135 0.950 . S
C2164 C2163 1.334 . S
C2164 C2165 1.287 . S
C2165 C2164 1.287 . S
C2165 C2166 1.524 . S
C2165 H2168 0.999 . S
C2166 H2136 0.950 . S
C2166 C2165 1.524 . S
C2166 C2167 1.415 . S
C2167 H2137 0.950 . S
C2167 C2162 1.363 . S
C2167 C2166 1.415 . S
H2168 C2165 0.999 . S
H2169 C2150 0.913 1_554 S
H2170 C2188 0.951 . S
H2171 C2190 0.951 . S
H2172 C2192 0.950 . S
H2173 C2193 0.950 . S
H2174 C2195 0.950 . S
H2175 C2198 0.950 . S
H2176 C2199 0.950 . S
H2177 C2201 0.950 . S
H2178 C2202 0.950 . S
H2179 C2203 0.951 . S
H2180 C2205 0.951 . S
H2181 C2207 0.950 . S
H2182 C2208 0.950 . S
H2183 C2210 0.950 . S
H2184 C2213 0.950 . S
H2185 C2214 0.950 . S
H2186 C2216 0.950 . S
H2187 C2217 0.950 . S
C2188 H2170 0.951 . S
C2188 C2189 1.366 . S
C2188 C2190 1.388 . S
C2189 C2188 1.366 . S
C2189 C2193 1.385 . S
C2190 H2171 0.951 . S
C2190 C2188 1.388 . S
C2190 C2191 1.366 . S
C2191 C2190 1.366 . S
C2191 C2192 1.414 . S
C2191 C2194 1.499 . S
C2192 H2172 0.950 . S
C2192 C2191 1.414 . S
C2192 C2193 1.374 . S
C2193 H2173 0.950 . S
C2193 C2189 1.385 . S
C2193 C2192 1.374 . S
C2194 C2191 1.499 . S
C2194 C2195 1.373 . S
C2194 C2196 1.389 . S
C2195 H2174 0.950 . S
C2195 C2194 1.373 . S
C2195 C2211 1.377 . S
C2196 C2194 1.389 . S
C2196 C2197 1.524 . S
C2196 C2210 1.377 . S
C2197 C2196 1.524 . S
C2197 C2198 1.397 . S
C2197 C2202 1.363 . S
C2198 H2175 0.950 . S
C2198 C2197 1.397 . S
C2198 C2199 1.334 . S
C2199 H2176 0.950 . S
C2199 C2198 1.334 . S
C2199 C2200 1.287 . S
C2200 C2199 1.287 . S
C2200 C2201 1.524 . S
C2200 H2219 0.913 . S
C2201 H2177 0.950 . S
C2201 C2200 1.524 . S
C2201 C2202 1.415 . S
C2202 H2178 0.950 . S
C2202 C2197 1.363 . S
C2202 C2201 1.415 . S
C2203 H2179 0.951 . S
C2203 C2204 1.366 . S
C2203 C2205 1.388 . S
C2204 C2203 1.366 . S
C2204 C2208 1.385 . S
C2205 H2180 0.951 . S
C2205 C2203 1.388 . S
C2205 C2206 1.366 . S
C2206 C2205 1.366 . S
C2206 C2207 1.414 . S
C2206 C2209 1.499 . S
C2207 H2181 0.950 . S
C2207 C2206 1.414 . S
C2207 C2208 1.374 . S
C2208 H2182 0.950 . S
C2208 C2204 1.385 . S
C2208 C2207 1.374 . S
C2209 C2206 1.499 . S
C2209 C2210 1.373 . S
C2209 C2211 1.389 . S
C2210 H2183 0.950 . S
C2210 C2196 1.377 . S
C2210 C2209 1.373 . S
C2211 C2195 1.377 . S
C2211 C2209 1.389 . S
C2211 C2212 1.524 . S
C2212 C2211 1.524 . S
C2212 C2213 1.397 . S
C2212 C2217 1.363 . S
C2213 H2184 0.950 . S
C2213 C2212 1.397 . S
C2213 C2214 1.334 . S
C2214 H2185 0.950 . S
C2214 C2213 1.334 . S
C2214 C2215 1.287 . S
C2215 C2214 1.287 . S
C2215 C2216 1.524 . S
C2215 H2218 0.999 . S
C2216 H2186 0.950 . S
C2216 C2215 1.524 . S
C2216 C2217 1.415 . S
C2217 H2187 0.950 . S
C2217 C2212 1.363 . S
C2217 C2216 1.415 . S
H2218 C2215 0.999 . S
H2219 C2200 0.913 . S
H2220 C2238 0.951 . S
H2221 C2240 0.951 . S
H2222 C2242 0.950 . S
H2223 C2243 0.950 . S
H2224 C2245 0.950 . S
H2225 C2248 0.950 . S
H2226 C2249 0.950 . S
H2227 C2251 0.950 . S
H2228 C2252 0.950 . S
H2229 C2253 0.951 . S
H2230 C2255 0.951 . S
H2231 C2257 0.950 . S
H2232 C2258 0.950 . S
H2233 C2260 0.950 . S
H2234 C2263 0.950 . S
H2235 C2264 0.950 . S
H2236 C2266 0.950 . S
H2237 C2267 0.950 . S
C2238 H2220 0.951 . S
C2238 C2239 1.366 . S
C2238 C2240 1.388 . S
C2239 C2238 1.366 . S
C2239 C2243 1.385 . S
C2240 H2221 0.951 . S
C2240 C2238 1.388 . S
C2240 C2241 1.366 . S
C2241 C2240 1.366 . S
C2241 C2242 1.414 . S
C2241 C2244 1.499 . S
C2242 H2222 0.950 . S
C2242 C2241 1.414 . S
C2242 C2243 1.374 . S
C2243 H2223 0.950 . S
C2243 C2239 1.385 . S
C2243 C2242 1.374 . S
C2244 C2241 1.499 . S
C2244 C2245 1.373 . S
C2244 C2246 1.389 . S
C2245 H2224 0.950 . S
C2245 C2244 1.373 . S
C2245 C2261 1.377 . S
C2246 C2244 1.389 . S
C2246 C2247 1.524 . S
C2246 C2260 1.377 . S
C2247 C2246 1.524 . S
C2247 C2248 1.397 . S
C2247 C2252 1.363 . S
C2248 H2225 0.950 . S
C2248 C2247 1.397 . S
C2248 C2249 1.334 . S
C2249 H2226 0.950 . S
C2249 C2248 1.334 . S
C2249 C2250 1.287 . S
C2250 C2249 1.287 . S
C2250 C2251 1.524 . S
C2250 H2269 0.913 . S
C2251 H2227 0.950 . S
C2251 C2250 1.524 . S
C2251 C2252 1.415 . S
C2252 H2228 0.950 . S
C2252 C2247 1.363 . S
C2252 C2251 1.415 . S
C2253 H2229 0.951 . S
C2253 C2254 1.366 . S
C2253 C2255 1.388 . S
C2254 C2253 1.366 . S
C2254 C2258 1.385 . S
C2255 H2230 0.951 . S
C2255 C2253 1.388 . S
C2255 C2256 1.366 . S
C2256 C2255 1.366 . S
C2256 C2257 1.414 . S
C2256 C2259 1.499 . S
C2257 H2231 0.950 . S
C2257 C2256 1.414 . S
C2257 C2258 1.374 . S
C2258 H2232 0.950 . S
C2258 C2254 1.385 . S
C2258 C2257 1.374 . S
C2259 C2256 1.499 . S
C2259 C2260 1.373 . S
C2259 C2261 1.389 . S
C2260 H2233 0.950 . S
C2260 C2246 1.377 . S
C2260 C2259 1.373 . S
C2261 C2245 1.377 . S
C2261 C2259 1.389 . S
C2261 C2262 1.524 . S
C2262 C2261 1.524 . S
C2262 C2263 1.397 . S
C2262 C2267 1.363 . S
C2263 H2234 0.950 . S
C2263 C2262 1.397 . S
C2263 C2264 1.334 . S
C2264 H2235 0.950 . S
C2264 C2263 1.334 . S
C2264 C2265 1.287 . S
C2265 C2264 1.287 . S
C2265 C2266 1.524 . S
C2265 H2268 0.999 . S
C2266 H2236 0.950 . S
C2266 C2265 1.524 . S
C2266 C2267 1.415 . S
C2267 H2237 0.950 . S
C2267 C2262 1.363 . S
C2267 C2266 1.415 . S
H2268 C2265 0.999 . S
H2269 C2250 0.913 . S
H2270 C2288 0.951 . S
H2271 C2290 0.951 . S
H2272 C2292 0.950 . S
H2273 C2293 0.950 . S
H2274 C2295 0.950 . S
H2275 C2298 0.950 . S
H2276 C2299 0.922 1_655 S
H2277 C2301 0.950 . S
H2278 C2302 0.950 . S
H2279 C2303 0.951 . S
H2280 C2305 0.951 . S
H2281 C2307 0.950 . S
H2282 C2308 0.950 . S
H2283 C2310 0.950 . S
H2284 C2313 0.950 . S
H2285 C2314 0.950 . S
H2286 C2316 0.950 . S
H2287 C2317 0.950 . S
C2288 H2270 0.951 . S
C2288 C2289 1.366 . S
C2288 C2290 1.388 . S
C2289 C2288 1.366 . S
C2289 C2293 1.385 . S
C2290 H2271 0.951 . S
C2290 C2288 1.388 . S
C2290 C2291 1.366 . S
C2291 C2290 1.366 . S
C2291 C2292 1.414 . S
C2291 C2294 1.499 . S
C2292 H2272 0.950 . S
C2292 C2291 1.414 . S
C2292 C2293 1.374 . S
C2293 H2273 0.950 . S
C2293 C2289 1.385 . S
C2293 C2292 1.374 . S
C2294 C2291 1.499 . S
C2294 C2295 1.373 . S
C2294 C2296 1.389 . S
C2295 H2274 0.950 . S
C2295 C2294 1.373 . S
C2295 C2311 1.377 . S
C2296 C2294 1.389 . S
C2296 C2297 1.524 . S
C2296 C2310 1.377 . S
C2297 C2296 1.524 . S
C2297 C2298 1.397 . S
C2297 C2302 1.363 . S
C2298 H2275 0.950 . S
C2298 C2297 1.397 . S
C2298 C2299 1.334 . S
C2299 H2276 0.922 1_455 S
C2299 C2298 1.334 . S
C2299 C2300 1.287 . S
C2300 C2299 1.287 . S
C2300 C2301 1.524 . S
C2300 H2319 0.913 1_455 S
C2301 H2277 0.950 . S
C2301 C2300 1.524 . S
C2301 C2302 1.415 . S
C2302 H2278 0.950 . S
C2302 C2297 1.363 . S
C2302 C2301 1.415 . S
C2303 H2279 0.951 . S
C2303 C2304 1.366 . S
C2303 C2305 1.388 . S
C2304 C2303 1.366 . S
C2304 C2308 1.385 . S
C2305 H2280 0.951 . S
C2305 C2303 1.388 . S
C2305 C2306 1.366 . S
C2306 C2305 1.366 . S
C2306 C2307 1.414 . S
C2306 C2309 1.499 . S
C2307 H2281 0.950 . S
C2307 C2306 1.414 . S
C2307 C2308 1.374 . S
C2308 H2282 0.950 . S
C2308 C2304 1.385 . S
C2308 C2307 1.374 . S
C2309 C2306 1.499 . S
C2309 C2310 1.373 . S
C2309 C2311 1.389 . S
C2310 H2283 0.950 . S
C2310 C2296 1.377 . S
C2310 C2309 1.373 . S
C2311 C2295 1.377 . S
C2311 C2309 1.389 . S
C2311 C2312 1.524 . S
C2312 C2311 1.524 . S
C2312 C2313 1.397 . S
C2312 C2317 1.363 . S
C2313 H2284 0.950 . S
C2313 C2312 1.397 . S
C2313 C2314 1.334 . S
C2314 H2285 0.950 . S
C2314 C2313 1.334 . S
C2314 C2315 1.287 . S
C2315 C2314 1.287 . S
C2315 C2316 1.524 . S
C2315 H2318 0.999 . S
C2316 H2286 0.950 . S
C2316 C2315 1.524 . S
C2316 C2317 1.415 . S
C2317 H2287 0.950 . S
C2317 C2312 1.363 . S
C2317 C2316 1.415 . S
H2318 C2315 0.999 . S
H2319 C2300 0.913 1_655 S
H2320 C2338 0.951 . S
H2321 C2340 0.951 . S
H2322 C2342 0.950 . S
H2323 C2343 0.950 . S
H2324 C2345 0.950 . S
H2325 C2348 0.950 . S
H2326 C2349 0.950 . S
H2327 C2351 0.950 . S
H2328 C2352 0.950 . S
H2329 C2353 0.951 . S
H2330 C2355 0.951 . S
H2331 C2357 0.950 . S
H2332 C2358 0.950 . S
H2333 C2360 0.950 . S
H2334 C2363 0.950 . S
H2335 C2364 0.950 . S
H2336 C2366 0.950 . S
H2337 C2367 0.950 . S
C2338 H2320 0.951 . S
C2338 C2339 1.366 . S
C2338 C2340 1.388 . S
C2339 C2338 1.366 . S
C2339 C2343 1.385 . S
C2340 H2321 0.951 . S
C2340 C2338 1.388 . S
C2340 C2341 1.366 . S
C2341 C2340 1.366 . S
C2341 C2342 1.414 . S
C2341 C2344 1.499 . S
C2342 H2322 0.950 . S
C2342 C2341 1.414 . S
C2342 C2343 1.374 . S
C2343 H2323 0.950 . S
C2343 C2339 1.385 . S
C2343 C2342 1.374 . S
C2344 C2341 1.499 . S
C2344 C2345 1.373 . S
C2344 C2346 1.389 . S
C2345 H2324 0.950 . S
C2345 C2344 1.373 . S
C2345 C2361 1.377 . S
C2346 C2344 1.389 . S
C2346 C2347 1.524 . S
C2346 C2360 1.377 . S
C2347 C2346 1.524 . S
C2347 C2348 1.397 . S
C2347 C2352 1.363 . S
C2348 H2325 0.950 . S
C2348 C2347 1.397 . S
C2348 C2349 1.334 . S
C2349 H2326 0.950 . S
C2349 C2348 1.334 . S
C2349 C2350 1.287 . S
C2350 C2349 1.287 . S
C2350 C2351 1.524 . S
C2350 H2369 0.913 . S
C2351 H2327 0.950 . S
C2351 C2350 1.524 . S
C2351 C2352 1.415 . S
C2352 H2328 0.950 . S
C2352 C2347 1.363 . S
C2352 C2351 1.415 . S
C2353 H2329 0.951 . S
C2353 C2354 1.366 . S
C2353 C2355 1.388 . S
C2354 C2353 1.366 . S
C2354 C2358 1.385 . S
C2355 H2330 0.951 . S
C2355 C2353 1.388 . S
C2355 C2356 1.366 . S
C2356 C2355 1.366 . S
C2356 C2357 1.414 . S
C2356 C2359 1.499 . S
C2357 H2331 0.950 . S
C2357 C2356 1.414 . S
C2357 C2358 1.374 . S
C2358 H2332 0.950 . S
C2358 C2354 1.385 . S
C2358 C2357 1.374 . S
C2359 C2356 1.499 . S
C2359 C2360 1.373 . S
C2359 C2361 1.389 . S
C2360 H2333 0.950 . S
C2360 C2346 1.377 . S
C2360 C2359 1.373 . S
C2361 C2345 1.377 . S
C2361 C2359 1.389 . S
C2361 C2362 1.524 . S
C2362 C2361 1.524 . S
C2362 C2363 1.397 . S
C2362 C2367 1.363 . S
C2363 H2334 0.950 . S
C2363 C2362 1.397 . S
C2363 C2364 1.334 . S
C2364 H2335 0.950 . S
C2364 C2363 1.334 . S
C2364 C2365 1.287 . S
C2365 C2364 1.287 . S
C2365 C2366 1.524 . S
C2365 H2368 0.999 . S
C2366 H2336 0.950 . S
C2366 C2365 1.524 . S
C2366 C2367 1.415 . S
C2367 H2337 0.950 . S
C2367 C2362 1.363 . S
C2367 C2366 1.415 . S
H2368 C2365 0.999 . S
H2369 C2350 0.913 . S
H2370 C2388 0.951 . S
H2371 C2390 0.951 . S
H2372 C2392 0.950 . S
H2373 C2393 0.950 . S
H2374 C2395 0.950 . S
H2375 C2398 0.950 . S
H2376 C2399 0.950 . S
H2377 C2401 0.950 . S
H2378 C2402 0.950 . S
H2379 C2403 0.951 . S
H2380 C2405 0.951 . S
H2381 C2407 0.950 . S
H2382 C2408 0.950 . S
H2383 C2410 0.950 . S
H2384 C2413 0.950 . S
H2385 C2414 0.950 . S
H2386 C2416 0.950 . S
H2387 C2417 0.950 . S
C2388 H2370 0.951 . S
C2388 C2389 1.366 . S
C2388 C2390 1.388 . S
C2389 C2388 1.366 . S
C2389 C2393 1.385 . S
C2390 H2371 0.951 . S
C2390 C2388 1.388 . S
C2390 C2391 1.366 . S
C2391 C2390 1.366 . S
C2391 C2392 1.414 . S
C2391 C2394 1.499 . S
C2392 H2372 0.950 . S
C2392 C2391 1.414 . S
C2392 C2393 1.374 . S
C2393 H2373 0.950 . S
C2393 C2389 1.385 . S
C2393 C2392 1.374 . S
C2394 C2391 1.499 . S
C2394 C2395 1.373 . S
C2394 C2396 1.389 . S
C2395 H2374 0.950 . S
C2395 C2394 1.373 . S
C2395 C2411 1.377 . S
C2396 C2394 1.389 . S
C2396 C2397 1.524 . S
C2396 C2410 1.377 . S
C2397 C2396 1.524 . S
C2397 C2398 1.397 . S
C2397 C2402 1.363 . S
C2398 H2375 0.950 . S
C2398 C2397 1.397 . S
C2398 C2399 1.334 . S
C2399 H2376 0.950 . S
C2399 C2398 1.334 . S
C2399 C2400 1.287 . S
C2400 C2399 1.287 . S
C2400 C2401 1.524 . S
C2400 H2419 0.913 . S
C2401 H2377 0.950 . S
C2401 C2400 1.524 . S
C2401 C2402 1.415 . S
C2402 H2378 0.950 . S
C2402 C2397 1.363 . S
C2402 C2401 1.415 . S
C2403 H2379 0.951 . S
C2403 C2404 1.366 . S
C2403 C2405 1.388 . S
C2404 C2403 1.366 . S
C2404 C2408 1.385 . S
C2405 H2380 0.951 . S
C2405 C2403 1.388 . S
C2405 C2406 1.366 . S
C2406 C2405 1.366 . S
C2406 C2407 1.414 . S
C2406 C2409 1.499 . S
C2407 H2381 0.950 . S
C2407 C2406 1.414 . S
C2407 C2408 1.374 . S
C2408 H2382 0.950 . S
C2408 C2404 1.385 . S
C2408 C2407 1.374 . S
C2409 C2406 1.499 . S
C2409 C2410 1.373 . S
C2409 C2411 1.389 . S
C2410 H2383 0.950 . S
C2410 C2396 1.377 . S
C2410 C2409 1.373 . S
C2411 C2395 1.377 . S
C2411 C2409 1.389 . S
C2411 C2412 1.524 . S
C2412 C2411 1.524 . S
C2412 C2413 1.397 . S
C2412 C2417 1.363 . S
C2413 H2384 0.950 . S
C2413 C2412 1.397 . S
C2413 C2414 1.334 . S
C2414 H2385 0.950 . S
C2414 C2413 1.334 . S
C2414 C2415 1.287 . S
C2415 C2414 1.287 . S
C2415 C2416 1.524 . S
C2415 H2418 0.999 1_554 S
C2416 H2386 0.950 . S
C2416 C2415 1.524 . S
C2416 C2417 1.415 . S
C2417 H2387 0.950 . S
C2417 C2412 1.363 . S
C2417 C2416 1.415 . S
H2418 C2415 0.999 1_556 S
H2419 C2400 0.913 . S
H2420 C2438 0.951 . S
H2421 C2440 0.951 . S
H2422 C2442 0.950 . S
H2423 C2443 0.950 . S
H2424 C2445 0.950 . S
H2425 C2448 0.950 . S
H2426 C2449 0.950 . S
H2427 C2451 0.950 . S
H2428 C2452 0.950 . S
H2429 C2453 0.951 . S
H2430 C2455 0.951 . S
H2431 C2457 0.950 . S
H2432 C2458 0.950 . S
H2433 C2460 0.950 . S
H2434 C2463 0.950 . S
H2435 C2464 0.950 . S
H2436 C2466 0.950 . S
H2437 C2467 0.950 . S
C2438 H2420 0.951 . S
C2438 C2439 1.366 . S
C2438 C2440 1.388 . S
C2439 C2438 1.366 . S
C2439 C2443 1.385 . S
C2440 H2421 0.951 . S
C2440 C2438 1.388 . S
C2440 C2441 1.366 . S
C2441 C2440 1.366 . S
C2441 C2442 1.414 . S
C2441 C2444 1.499 . S
C2442 H2422 0.950 . S
C2442 C2441 1.414 . S
C2442 C2443 1.374 . S
C2443 H2423 0.950 . S
C2443 C2439 1.385 . S
C2443 C2442 1.374 . S
C2444 C2441 1.499 . S
C2444 C2445 1.373 . S
C2444 C2446 1.389 . S
C2445 H2424 0.950 . S
C2445 C2444 1.373 . S
C2445 C2461 1.377 . S
C2446 C2444 1.389 . S
C2446 C2447 1.524 . S
C2446 C2460 1.377 . S
C2447 C2446 1.524 . S
C2447 C2448 1.397 . S
C2447 C2452 1.363 . S
C2448 H2425 0.950 . S
C2448 C2447 1.397 . S
C2448 C2449 1.334 . S
C2449 H2426 0.950 . S
C2449 C2448 1.334 . S
C2449 C2450 1.287 . S
C2450 C2449 1.287 . S
C2450 C2451 1.524 . S
C2450 H2469 0.913 . S
C2451 H2427 0.950 . S
C2451 C2450 1.524 . S
C2451 C2452 1.415 . S
C2452 H2428 0.950 . S
C2452 C2447 1.363 . S
C2452 C2451 1.415 . S
C2453 H2429 0.951 . S
C2453 C2454 1.366 . S
C2453 C2455 1.388 . S
C2454 C2453 1.366 . S
C2454 C2458 1.385 . S
C2455 H2430 0.951 . S
C2455 C2453 1.388 . S
C2455 C2456 1.366 . S
C2456 C2455 1.366 . S
C2456 C2457 1.414 . S
C2456 C2459 1.499 . S
C2457 H2431 0.950 . S
C2457 C2456 1.414 . S
C2457 C2458 1.374 . S
C2458 H2432 0.950 . S
C2458 C2454 1.385 . S
C2458 C2457 1.374 . S
C2459 C2456 1.499 . S
C2459 C2460 1.373 . S
C2459 C2461 1.389 . S
C2460 H2433 0.950 . S
C2460 C2446 1.377 . S
C2460 C2459 1.373 . S
C2461 C2445 1.377 . S
C2461 C2459 1.389 . S
C2461 C2462 1.524 . S
C2462 C2461 1.524 . S
C2462 C2463 1.397 . S
C2462 C2467 1.363 . S
C2463 H2434 0.950 . S
C2463 C2462 1.397 . S
C2463 C2464 1.334 . S
C2464 H2435 0.950 . S
C2464 C2463 1.334 . S
C2464 C2465 1.287 . S
C2465 C2464 1.287 . S
C2465 C2466 1.524 . S
C2465 H2468 0.999 . S
C2466 H2436 0.950 . S
C2466 C2465 1.524 . S
C2466 C2467 1.415 . S
C2467 H2437 0.950 . S
C2467 C2462 1.363 . S
C2467 C2466 1.415 . S
H2468 C2465 0.999 . S
H2469 C2450 0.913 . S
H2470 C2488 0.951 . S
H2471 C2490 0.951 . S
H2472 C2492 0.950 . S
H2473 C2493 0.950 . S
H2474 C2495 0.950 . S
H2475 C2498 0.950 . S
H2476 C2499 0.950 . S
H2477 C2501 0.950 . S
H2478 C2502 0.950 . S
H2479 C2503 0.951 . S
H2480 C2505 0.951 . S
H2481 C2507 0.950 . S
H2482 C2508 0.950 . S
H2483 C2510 0.950 . S
H2484 C2513 0.950 . S
H2485 C2514 0.950 . S
H2486 C2516 0.950 . S
H2487 C2517 0.950 . S
C2488 H2470 0.951 . S
C2488 C2489 1.366 . S
C2488 C2490 1.388 . S
C2489 C2488 1.366 . S
C2489 C2493 1.385 . S
C2490 H2471 0.951 . S
C2490 C2488 1.388 . S
C2490 C2491 1.366 . S
C2491 C2490 1.366 . S
C2491 C2492 1.414 . S
C2491 C2494 1.499 . S
C2492 H2472 0.950 . S
C2492 C2491 1.414 . S
C2492 C2493 1.374 . S
C2493 H2473 0.950 . S
C2493 C2489 1.385 . S
C2493 C2492 1.374 . S
C2494 C2491 1.499 . S
C2494 C2495 1.373 . S
C2494 C2496 1.389 . S
C2495 H2474 0.950 . S
C2495 C2494 1.373 . S
C2495 C2511 1.377 . S
C2496 C2494 1.389 . S
C2496 C2497 1.524 . S
C2496 C2510 1.377 . S
C2497 C2496 1.524 . S
C2497 C2498 1.397 . S
C2497 C2502 1.363 . S
C2498 H2475 0.950 . S
C2498 C2497 1.397 . S
C2498 C2499 1.334 . S
C2499 H2476 0.950 . S
C2499 C2498 1.334 . S
C2499 C2500 1.287 . S
C2500 C2499 1.287 . S
C2500 C2501 1.524 . S
C2500 H2519 0.913 . S
C2501 H2477 0.950 . S
C2501 C2500 1.524 . S
C2501 C2502 1.415 . S
C2502 H2478 0.950 . S
C2502 C2497 1.363 . S
C2502 C2501 1.415 . S
C2503 H2479 0.951 . S
C2503 C2504 1.366 . S
C2503 C2505 1.388 . S
C2504 C2503 1.366 . S
C2504 C2508 1.385 . S
C2505 H2480 0.951 . S
C2505 C2503 1.388 . S
C2505 C2506 1.366 . S
C2506 C2505 1.366 . S
C2506 C2507 1.414 . S
C2506 C2509 1.499 . S
C2507 H2481 0.950 . S
C2507 C2506 1.414 . S
C2507 C2508 1.374 . S
C2508 H2482 0.950 . S
C2508 C2504 1.385 . S
C2508 C2507 1.374 . S
C2509 C2506 1.499 . S
C2509 C2510 1.373 . S
C2509 C2511 1.389 . S
C2510 H2483 0.950 . S
C2510 C2496 1.377 . S
C2510 C2509 1.373 . S
C2511 C2495 1.377 . S
C2511 C2509 1.389 . S
C2511 C2512 1.524 . S
C2512 C2511 1.524 . S
C2512 C2513 1.397 . S
C2512 C2517 1.363 . S
C2513 H2484 0.950 . S
C2513 C2512 1.397 . S
C2513 C2514 1.334 . S
C2514 H2485 0.950 . S
C2514 C2513 1.334 . S
C2514 C2515 1.287 . S
C2515 C2514 1.287 . S
C2515 C2516 1.524 . S
C2515 H2518 0.999 . S
C2516 H2486 0.950 . S
C2516 C2515 1.524 . S
C2516 C2517 1.415 . S
C2517 H2487 0.950 . S
C2517 C2512 1.363 . S
C2517 C2516 1.415 . S
H2518 C2515 0.999 . S
H2519 C2500 0.913 . S
H2520 C2538 0.951 . S
H2521 C2540 0.951 . S
H2522 C2542 0.950 . S
H2523 C2543 0.950 . S
H2524 C2545 0.950 . S
H2525 C2548 0.950 . S
H2526 C2549 0.950 . S
H2527 C2551 0.950 . S
H2528 C2552 0.950 . S
H2529 C2553 0.951 . S
H2530 C2555 0.951 . S
H2531 C2557 0.950 . S
H2532 C2558 0.950 . S
H2533 C2560 0.950 . S
H2534 C2563 0.950 . S
H2535 C2564 0.950 . S
H2536 C2566 0.950 . S
H2537 C2567 0.950 . S
C2538 H2520 0.951 . S
C2538 C2539 1.366 . S
C2538 C2540 1.388 . S
C2539 C2538 1.366 . S
C2539 C2543 1.385 . S
C2540 H2521 0.951 . S
C2540 C2538 1.388 . S
C2540 C2541 1.366 . S
C2541 C2540 1.366 . S
C2541 C2542 1.414 . S
C2541 C2544 1.499 . S
C2542 H2522 0.950 . S
C2542 C2541 1.414 . S
C2542 C2543 1.374 . S
C2543 H2523 0.950 . S
C2543 C2539 1.385 . S
C2543 C2542 1.374 . S
C2544 C2541 1.499 . S
C2544 C2545 1.373 . S
C2544 C2546 1.389 . S
C2545 H2524 0.950 . S
C2545 C2544 1.373 . S
C2545 C2561 1.377 . S
C2546 C2544 1.389 . S
C2546 C2547 1.524 . S
C2546 C2560 1.377 . S
C2547 C2546 1.524 . S
C2547 C2548 1.397 . S
C2547 C2552 1.363 . S
C2548 H2525 0.950 . S
C2548 C2547 1.397 . S
C2548 C2549 1.334 . S
C2549 H2526 0.950 . S
C2549 C2548 1.334 . S
C2549 C2550 1.287 . S
C2550 C2549 1.287 . S
C2550 C2551 1.524 . S
C2550 H2569 0.913 . S
C2551 H2527 0.950 . S
C2551 C2550 1.524 . S
C2551 C2552 1.415 . S
C2552 H2528 0.950 . S
C2552 C2547 1.363 . S
C2552 C2551 1.415 . S
C2553 H2529 0.951 . S
C2553 C2554 1.366 . S
C2553 C2555 1.388 . S
C2554 C2553 1.366 . S
C2554 C2558 1.385 . S
C2555 H2530 0.951 . S
C2555 C2553 1.388 . S
C2555 C2556 1.366 . S
C2556 C2555 1.366 . S
C2556 C2557 1.414 . S
C2556 C2559 1.499 . S
C2557 H2531 0.950 . S
C2557 C2556 1.414 . S
C2557 C2558 1.374 . S
C2558 H2532 0.950 . S
C2558 C2554 1.385 . S
C2558 C2557 1.374 . S
C2559 C2556 1.499 . S
C2559 C2560 1.373 . S
C2559 C2561 1.389 . S
C2560 H2533 0.950 . S
C2560 C2546 1.377 . S
C2560 C2559 1.373 . S
C2561 C2545 1.377 . S
C2561 C2559 1.389 . S
C2561 C2562 1.524 . S
C2562 C2561 1.524 . S
C2562 C2563 1.397 . S
C2562 C2567 1.363 . S
C2563 H2534 0.950 . S
C2563 C2562 1.397 . S
C2563 C2564 1.334 . S
C2564 H2535 0.950 . S
C2564 C2563 1.334 . S
C2564 C2565 1.287 . S
C2565 C2564 1.287 . S
C2565 C2566 1.524 . S
C2565 H2568 0.999 . S
C2566 H2536 0.950 . S
C2566 C2565 1.524 . S
C2566 C2567 1.415 . S
C2567 H2537 0.950 . S
C2567 C2562 1.363 . S
C2567 C2566 1.415 . S
H2568 C2565 0.999 . S
H2569 C2550 0.913 . S
H2570 C2588 0.951 . S
H2571 C2590 0.951 . S
H2572 C2592 0.950 . S
H2573 C2593 0.950 . S
H2574 C2595 0.950 . S
H2575 C2598 0.950 . S
H2576 C2599 0.950 . S
H2577 C2601 0.950 . S
H2578 C2602 0.950 . S
H2579 C2603 0.951 . S
H2580 C2605 0.951 . S
H2581 C2607 0.950 . S
H2582 C2608 0.950 . S
H2583 C2610 0.950 . S
H2584 C2613 0.950 . S
H2585 C2614 0.950 . S
H2586 C2616 0.950 . S
H2587 C2617 0.950 . S
C2588 H2570 0.951 . S
C2588 C2589 1.366 . S
C2588 C2590 1.388 . S
C2589 C2588 1.366 . S
C2589 C2593 1.385 . S
C2590 H2571 0.951 . S
C2590 C2588 1.388 . S
C2590 C2591 1.366 . S
C2591 C2590 1.366 . S
C2591 C2592 1.414 . S
C2591 C2594 1.499 . S
C2592 H2572 0.950 . S
C2592 C2591 1.414 . S
C2592 C2593 1.374 . S
C2593 H2573 0.950 . S
C2593 C2589 1.385 . S
C2593 C2592 1.374 . S
C2594 C2591 1.499 . S
C2594 C2595 1.373 . S
C2594 C2596 1.389 . S
C2595 H2574 0.950 . S
C2595 C2594 1.373 . S
C2595 C2611 1.377 . S
C2596 C2594 1.389 . S
C2596 C2597 1.524 . S
C2596 C2610 1.377 . S
C2597 C2596 1.524 . S
C2597 C2598 1.397 . S
C2597 C2602 1.363 . S
C2598 H2575 0.950 . S
C2598 C2597 1.397 . S
C2598 C2599 1.334 . S
C2599 H2576 0.950 . S
C2599 C2598 1.334 . S
C2599 C2600 1.287 . S
C2600 C2599 1.287 . S
C2600 C2601 1.524 . S
C2600 H2619 0.913 . S
C2601 H2577 0.950 . S
C2601 C2600 1.524 . S
C2601 C2602 1.415 . S
C2602 H2578 0.950 . S
C2602 C2597 1.363 . S
C2602 C2601 1.415 . S
C2603 H2579 0.951 . S
C2603 C2604 1.366 . S
C2603 C2605 1.388 . S
C2604 C2603 1.366 . S
C2604 C2608 1.385 . S
C2605 H2580 0.951 . S
C2605 C2603 1.388 . S
C2605 C2606 1.366 . S
C2606 C2605 1.366 . S
C2606 C2607 1.414 . S
C2606 C2609 1.499 . S
C2607 H2581 0.950 . S
C2607 C2606 1.414 . S
C2607 C2608 1.374 . S
C2608 H2582 0.950 . S
C2608 C2604 1.385 . S
C2608 C2607 1.374 . S
C2609 C2606 1.499 . S
C2609 C2610 1.373 . S
C2609 C2611 1.389 . S
C2610 H2583 0.950 . S
C2610 C2596 1.377 . S
C2610 C2609 1.373 . S
C2611 C2595 1.377 . S
C2611 C2609 1.389 . S
C2611 C2612 1.524 . S
C2612 C2611 1.524 . S
C2612 C2613 1.397 . S
C2612 C2617 1.363 . S
C2613 H2584 0.950 . S
C2613 C2612 1.397 . S
C2613 C2614 1.334 . S
C2614 H2585 0.950 . S
C2614 C2613 1.334 . S
C2614 C2615 1.287 . S
C2615 C2614 1.287 . S
C2615 C2616 1.524 . S
C2615 H2618 0.999 . S
C2616 H2586 0.950 . S
C2616 C2615 1.524 . S
C2616 C2617 1.415 . S
C2617 H2587 0.950 . S
C2617 C2612 1.363 . S
C2617 C2616 1.415 . S
H2618 C2615 0.999 . S
H2619 C2600 0.913 . S
H2620 C2638 0.951 . S
H2621 C2640 0.951 . S
H2622 C2642 0.950 . S
H2623 C2643 0.950 . S
H2624 C2645 0.950 . S
H2625 C2648 0.950 . S
H2626 C2649 0.950 . S
H2627 C2651 0.950 . S
H2628 C2652 0.950 . S
H2629 C2653 0.951 . S
H2630 C2655 0.951 . S
H2631 C2657 0.950 . S
H2632 C2658 0.950 . S
H2633 C2660 0.950 . S
H2634 C2663 0.950 . S
H2635 C2664 0.950 . S
H2636 C2666 0.950 . S
H2637 C2667 0.950 . S
C2638 H2620 0.951 . S
C2638 C2639 1.366 . S
C2638 C2640 1.388 . S
C2639 C2638 1.366 . S
C2639 C2643 1.385 . S
C2640 H2621 0.951 . S
C2640 C2638 1.388 . S
C2640 C2641 1.366 . S
C2641 C2640 1.366 . S
C2641 C2642 1.414 . S
C2641 C2644 1.499 . S
C2642 H2622 0.950 . S
C2642 C2641 1.414 . S
C2642 C2643 1.374 . S
C2643 H2623 0.950 . S
C2643 C2639 1.385 . S
C2643 C2642 1.374 . S
C2644 C2641 1.499 . S
C2644 C2645 1.373 . S
C2644 C2646 1.389 . S
C2645 H2624 0.950 . S
C2645 C2644 1.373 . S
C2645 C2661 1.377 . S
C2646 C2644 1.389 . S
C2646 C2647 1.524 . S
C2646 C2660 1.377 . S
C2647 C2646 1.524 . S
C2647 C2648 1.397 . S
C2647 C2652 1.363 . S
C2648 H2625 0.950 . S
C2648 C2647 1.397 . S
C2648 C2649 1.334 . S
C2649 H2626 0.950 . S
C2649 C2648 1.334 . S
C2649 C2650 1.287 . S
C2650 C2649 1.287 . S
C2650 C2651 1.524 . S
C2650 H2669 0.913 . S
C2651 H2627 0.950 . S
C2651 C2650 1.524 . S
C2651 C2652 1.415 . S
C2652 H2628 0.950 . S
C2652 C2647 1.363 . S
C2652 C2651 1.415 . S
C2653 H2629 0.951 . S
C2653 C2654 1.366 . S
C2653 C2655 1.388 . S
C2654 C2653 1.366 . S
C2654 C2658 1.385 . S
C2655 H2630 0.951 . S
C2655 C2653 1.388 . S
C2655 C2656 1.366 . S
C2656 C2655 1.366 . S
C2656 C2657 1.414 . S
C2656 C2659 1.499 . S
C2657 H2631 0.950 . S
C2657 C2656 1.414 . S
C2657 C2658 1.374 . S
C2658 H2632 0.950 . S
C2658 C2654 1.385 . S
C2658 C2657 1.374 . S
C2659 C2656 1.499 . S
C2659 C2660 1.373 . S
C2659 C2661 1.389 . S
C2660 H2633 0.950 . S
C2660 C2646 1.377 . S
C2660 C2659 1.373 . S
C2661 C2645 1.377 . S
C2661 C2659 1.389 . S
C2661 C2662 1.524 . S
C2662 C2661 1.524 . S
C2662 C2663 1.397 . S
C2662 C2667 1.363 . S
C2663 H2634 0.950 . S
C2663 C2662 1.397 . S
C2663 C2664 1.334 . S
C2664 H2635 0.950 . S
C2664 C2663 1.334 . S
C2664 C2665 1.287 . S
C2665 C2664 1.287 . S
C2665 C2666 1.524 . S
C2665 H2668 0.999 . S
C2666 H2636 0.950 . S
C2666 C2665 1.524 . S
C2666 C2667 1.415 . S
C2667 H2637 0.950 . S
C2667 C2662 1.363 . S
C2667 C2666 1.415 . S
H2668 C2665 0.999 . S
H2669 C2650 0.913 . S
H2670 C2688 0.951 . S
H2671 C2690 0.951 . S
H2672 C2692 0.950 . S
H2673 C2693 0.950 . S
H2674 C2695 0.950 . S
H2675 C2698 0.950 . S
H2676 C2699 0.950 . S
H2677 C2701 0.950 . S
H2678 C2702 0.950 . S
H2679 C2703 0.951 . S
H2680 C2705 0.951 . S
H2681 C2707 0.950 . S
H2682 C2708 0.950 . S
H2683 C2710 0.950 . S
H2684 C2713 0.950 . S
H2685 C2714 0.950 . S
H2686 C2716 0.950 . S
H2687 C2717 0.950 . S
C2688 H2670 0.951 . S
C2688 C2689 1.366 . S
C2688 C2690 1.388 . S
C2689 C2688 1.366 . S
C2689 C2693 1.385 . S
C2690 H2671 0.951 . S
C2690 C2688 1.388 . S
C2690 C2691 1.366 . S
C2691 C2690 1.366 . S
C2691 C2692 1.414 . S
C2691 C2694 1.499 . S
C2692 H2672 0.950 . S
C2692 C2691 1.414 . S
C2692 C2693 1.374 . S
C2693 H2673 0.950 . S
C2693 C2689 1.385 . S
C2693 C2692 1.374 . S
C2694 C2691 1.499 . S
C2694 C2695 1.373 . S
C2694 C2696 1.389 . S
C2695 H2674 0.950 . S
C2695 C2694 1.373 . S
C2695 C2711 1.377 . S
C2696 C2694 1.389 . S
C2696 C2697 1.524 . S
C2696 C2710 1.377 . S
C2697 C2696 1.524 . S
C2697 C2698 1.397 . S
C2697 C2702 1.363 . S
C2698 H2675 0.950 . S
C2698 C2697 1.397 . S
C2698 C2699 1.334 . S
C2699 H2676 0.950 . S
C2699 C2698 1.334 . S
C2699 C2700 1.287 . S
C2700 C2699 1.287 . S
C2700 C2701 1.524 . S
C2700 H2719 0.913 . S
C2701 H2677 0.950 . S
C2701 C2700 1.524 . S
C2701 C2702 1.415 . S
C2702 H2678 0.950 . S
C2702 C2697 1.363 . S
C2702 C2701 1.415 . S
C2703 H2679 0.951 . S
C2703 C2704 1.366 . S
C2703 C2705 1.388 . S
C2704 C2703 1.366 . S
C2704 C2708 1.385 . S
C2705 H2680 0.951 . S
C2705 C2703 1.388 . S
C2705 C2706 1.366 . S
C2706 C2705 1.366 . S
C2706 C2707 1.414 . S
C2706 C2709 1.499 . S
C2707 H2681 0.950 . S
C2707 C2706 1.414 . S
C2707 C2708 1.374 . S
C2708 H2682 0.950 . S
C2708 C2704 1.385 . S
C2708 C2707 1.374 . S
C2709 C2706 1.499 . S
C2709 C2710 1.373 . S
C2709 C2711 1.389 . S
C2710 H2683 0.950 . S
C2710 C2696 1.377 . S
C2710 C2709 1.373 . S
C2711 C2695 1.377 . S
C2711 C2709 1.389 . S
C2711 C2712 1.524 . S
C2712 C2711 1.524 . S
C2712 C2713 1.397 . S
C2712 C2717 1.363 . S
C2713 H2684 0.950 . S
C2713 C2712 1.397 . S
C2713 C2714 1.334 . S
C2714 H2685 0.950 . S
C2714 C2713 1.334 . S
C2714 C2715 1.287 . S
C2715 C2714 1.287 . S
C2715 C2716 1.524 . S
C2715 H2718 0.999 . S
C2716 H2686 0.950 . S
C2716 C2715 1.524 . S
C2716 C2717 1.415 . S
C2717 H2687 0.950 . S
C2717 C2712 1.363 . S
C2717 C2716 1.415 . S
H2718 C2715 0.999 . S
H2719 C2700 0.913 . S
C339 C62 1.678 . S
C354 C18 1.730 . S
C389 C12 1.427 . S
C404 C22 1.413 . S
C439 C58 0.967 . S
C454 C38 0.971 . S
C489 C72 1.270 . S
C504 C52 1.245 . S
C539 C84 1.514 . S
C554 C104 1.488 . S
C589 C119 0.953 . S
C604 C139 0.953 . S
C639 C129 1.478 . S
C654 C144 1.404 . S
C689 C89 1.464 . S
C704 C159 1.467 . S
C739 C189 1.419 . S
C754 C2 1.345 . S
C789 C204 0.683 . S
C804 C32 0.672 . S
C839 C42 1.187 . S
C854 C269 1.201 . S
C889 C179 0.851 . S
C904 C78 0.848 . S
C939 C238 1.033 . S
C954 C99 1.046 . S
C989 C282 1.395 . S
C1004 C109 1.466 . S
C1039 C124 0.642 . S
C1054 C252 0.638 . S
C1089 C309 1.190 . S
C1104 C149 1.167 . S
C1139 C169 1.452 . S
C1154 C279 1.452 . S
C1189 C184 1.533 . S
C1204 C164 1.558 . S
C1239 C219 0.934 . S
C1254 C199 0.937 . S
C1289 C298 1.767 . S
C1304 C222 1.716 . S
C1339 C258 0.913 . S
C1354 C319 0.912 . S
C1389 C224 1.676 . S
C1404 C19 1.731 . S
C1439 C244 1.412 . S
C1454 C9 1.429 . S
C1489 C259 0.968 . S
C1504 C59 0.964 . S
C1539 C49 1.246 . S
C1554 C229 1.273 . S
C1589 C182 1.486 . S
C1604 C82 1.513 . S
C1639 C198 0.953 . S
C1654 C138 0.945 . S
C1689 C262 1.410 . S
C1704 C132 1.480 . S
C1739 C92 1.464 . S
C1754 C278 1.473 . S
C1789 C112 1.419 . S
C1804 C4 1.352 . S
C1839 C202 0.685 . S
C1854 C249 0.673 . S
C1889 C44 1.188 . S
C1904 C152 1.197 . S
C1939 C178 0.851 . S
C1954 C239 0.842 . S
C1989 C79 1.035 . S
C2004 C98 1.039 . S
C2039 C192 1.466 . S
C2054 C284 1.395 . S
C2089 C122 0.643 . S
C2104 C29 0.631 . S
C2139 C312 1.191 . S
C2154 C272 1.173 . S
C2189 C172 1.452 . S
C2204 C158 1.448 . S
C2239 C162 1.559 . S
C2254 C102 1.536 . S
C2289 C218 0.933 . S
C2304 C118 0.936 . S
C2339 C64 1.716 . S
C2354 C299 1.767 . S
C2389 C39 0.912 . S
C2404 C318 0.908 . S
C2439 C242 1.180 . S
C2454 C292 1.202 . S
C2489 C232 1.382 . S
C2504 C304 1.305 . S
C2539 C209 1.432 . S
C2554 C264 1.348 . S
C2589 C289 1.201 . S
C2604 C24 1.179 . S
C2639 C69 1.381 . S
C2654 C302 1.309 . S
C2689 C142 1.347 . S
C2704 C212 1.431 . S
