# Generated by pormake.
# Topology sxb, (6)-cn, num edge types: 1
# Building blocks:
#     Node 0, Type 0, BuildingBlock: KUMBOL_clean_sbu_1, # of connection points: 6
#     Node 1, Type 0, BuildingBlock: KUMBOL_clean_sbu_1, # of connection points: 6
#     Node 2, Type 0, BuildingBlock: KUMBOL_clean_sbu_1, # of connection points: 6
#     Node 3, Type 0, BuildingBlock: KUMBOL_clean_sbu_1, # of connection points: 6
#     Edge 4, Type (0, 0), BuildingBlock: FUNLAD_clean_linker_0, # of connection points: 2
#     Edge 5, Type (0, 0), BuildingBlock: FUNLAD_clean_linker_0, # of connection points: 2
#     Edge 6, Type (0, 0), BuildingBlock: FUNLAD_clean_linker_0, # of connection points: 2
#     Edge 7, Type (0, 0), BuildingBlock: FUNLAD_clean_linker_0, # of connection points: 2
#     Edge 8, Type (0, 0), BuildingBlock: FUNLAD_clean_linker_0, # of connection points: 2
#     Edge 9, Type (0, 0), BuildingBlock: FUNLAD_clean_linker_0, # of connection points: 2
#     Edge 10, Type (0, 0), BuildingBlock: FUNLAD_clean_linker_0, # of connection points: 2
#     Edge 11, Type (0, 0), BuildingBlock: FUNLAD_clean_linker_0, # of connection points: 2
#     Edge 12, Type (0, 0), BuildingBlock: FUNLAD_clean_linker_0, # of connection points: 2
#     Edge 13, Type (0, 0), BuildingBlock: FUNLAD_clean_linker_0, # of connection points: 2
#     Edge 14, Type (0, 0), BuildingBlock: FUNLAD_clean_linker_0, # of connection points: 2
#     Edge 15, Type (0, 0), BuildingBlock: FUNLAD_clean_linker_0, # of connection points: 2
# Relax obj value: 0.012
# Max RMSD: 0.052
# Mean RMSD: 0.052
data_MOF--net-sxb--node1-KUMBOL_clean_sbu_1--edge1-FUNLAD_clean_linker_0
_symmetry_space_group_name_H-M    P1
_symmetry_Int_Tables_number       1
_symmetry_cell_setting            triclinic
loop_
_symmetry_equiv_pos_as_xyz
'x, y, z'
_cell_length_a     17.65796
_cell_length_b     51.986222
_cell_length_c     34.802692
_cell_angle_alpha  115.20787
_cell_angle_beta   89.986328
_cell_angle_gamma 90.038591
loop_
_atom_site_label
_atom_site_type_symbol
_atom_site_fract_x
_atom_site_fract_y
_atom_site_fract_z
_atom_type_partial_charge
C0 C 0.16198 0.08305 0.07806 0.0
C1 C 0.25693 0.08697 0.03029 0.0
C2 C 0.18591 0.07715 0.03701 0.0
C3 C 0.30376 0.10244 0.06516 0.0
C4 C 0.20881 0.09868 0.11312 0.0
C5 C 0.27981 0.10826 0.10643 0.0
N6 N 0.09349 0.07314 0.08362 0.0
C7 C 0.06719 0.07899 0.12333 0.0
C8 C 0.18295 0.10415 0.15392 0.0
C9 C 0.11165 0.09438 0.15903 0.0
Gd10 Gd 1.02501 0.96224 0.9686 0.0
Gd11 Gd 1.02386 0.04764 0.02171 0.0
N12 N 0.14039 0.06134 0.00366 0.0
C13 C 0.27876 0.08097 0.98868 0.0
C14 C 0.15958 0.05687 0.96336 0.0
C15 C 0.22945 0.06616 0.95514 0.0
H16 H 0.12076 0.04687 0.93754 0.0
H17 H 0.24477 0.0622 0.92299 0.0
H18 H 0.91939 0.96323 0.04989 0.0
H19 H 1.01117 0.07241 0.12759 0.0
H20 H 0.79401 0.94694 0.06094 0.0
H21 H 0.33286 0.08815 0.9822 0.0
H22 H 0.35863 0.11004 0.06056 0.0
H23 H 0.04964 0.93592 0.8633 0.0
H24 H 0.21727 0.11609 0.18166 0.0
H25 H 0.09065 0.0989 0.19048 0.0
H26 H 0.69394 0.89734 0.92012 0.0
H27 H 0.31661 0.12023 0.13299 0.0
H28 H 0.84789 0.89137 0.80316 0.0
H29 H 0.97621 0.90883 0.79804 0.0
N30 N 0.962 0.93558 0.90471 0.0
C31 C 0.89267 0.92541 0.90829 0.0
C32 C 0.99271 0.92938 0.86582 0.0
C33 C 0.87948 0.90366 0.83188 0.0
C34 C 0.95174 0.91358 0.82884 0.0
C35 C 0.84929 0.90931 0.8719 0.0
H36 H 0.74323 0.88704 0.84894 0.0
N37 N 0.90696 0.94759 0.98317 0.0
C38 C 0.8647 0.93129 0.94857 0.0
C39 C 0.76687 0.92725 0.99425 0.0
C40 C 0.7929 0.9211 0.95327 0.0
C41 C 0.88351 0.9524 0.02296 0.0
C42 C 0.81277 0.94271 0.0292 0.0
O43 O 0.13055 0.0246 0.02651 0.0
O44 O 0.13596 0.98304 0.96535 0.0
O45 O 0.06763 0.93663 -0.00042 0.0
O46 O 0.07167 0.92036 0.9312 0.0
O47 O 1.00144 0.02323 0.9509 0.0
O48 O 0.07229 0.98207 0.92769 0.0
O49 O 0.91671 0.9849 0.96486 0.0
O50 O 0.91159 0.02767 0.0244 0.0
O51 O 0.98422 0.07512 0.99319 0.0
O52 O 0.97827 0.08938 0.06125 0.0
O53 O 0.04647 0.98693 0.03898 0.0
O54 O 0.97686 0.02841 0.06402 0.0
C55 C 0.16934 1.00405 -0.00297 0.0
C56 C 0.03856 1.00229 0.92088 0.0
C57 C 0.16772 0.90571 0.96417 0.0
C58 C 0.25378 0.87163 0.97236 0.0
C59 C 0.30297 0.90958 0.95593 0.0
C60 C 0.22964 0.9195 0.956 0.0
C61 C 0.31512 0.88581 0.96399 0.0
C62 C 0.17981 0.88177 0.97228 0.0
C63 C 0.09045 0.91612 0.96417 0.0
C64 C 0.74939 0.90522 0.91709 0.0
C65 C 0.77746 0.89937 0.87654 0.0
H66 H 0.712 0.91982 -0.0008 0.0
C67 C 0.87838 1.00617 0.99343 0.0
C68 C 1.00738 1.00694 0.06913 0.0
C69 C 0.88975 0.10868 0.02993 0.0
C70 C 0.81767 0.14709 0.02426 0.0
C71 C 0.7537 0.11093 0.03959 0.0
C72 C 0.82272 0.09748 0.03812 0.0
C73 C 0.75104 0.13559 0.0329 0.0
C74 C 0.88706 0.1333 0.02278 0.0
C75 C 0.96326 0.09532 0.02933 0.0
H76 H 0.35053 0.92028 0.94944 0.0
H77 H 0.22112 0.93779 0.94937 0.0
H78 H 0.37257 0.87832 0.96319 0.0
H79 H 0.13183 0.87132 0.97903 0.0
H80 H 0.70209 0.10233 0.04626 0.0
H81 H 0.82396 0.07852 0.04367 0.0
H82 H 0.69684 0.14585 0.0351 0.0
H83 H 0.93911 0.14153 0.01578 0.0
C84 C 0.16566 0.93231 0.41573 0.0
C85 C 0.26526 0.92982 0.4622 0.0
C86 C 0.19325 0.93932 0.45643 0.0
C87 C 0.30941 0.91343 0.42657 0.0
C88 C 0.20968 0.9157 0.37991 0.0
C89 C 0.28175 0.90642 0.38557 0.0
N90 N 0.09583 0.94167 0.41118 0.0
C91 C 0.06549 0.93435 0.37185 0.0
C92 C 0.1798 0.90881 0.33944 0.0
C93 C 0.10721 0.91805 0.33542 0.0
Gd94 Gd 1.01989 0.05414 0.52455 0.0
Gd95 Gd 0.03143 0.96884 0.47435 0.0
N96 N 0.15032 0.95603 0.4904 0.0
C97 C 0.29079 0.93716 0.50364 0.0
C98 C 0.17335 0.96216 0.53075 0.0
C99 C 0.24432 0.95318 0.53804 0.0
H100 H 0.13707 0.97376 0.55733 0.0
H101 H 0.26289 0.95845 0.57015 0.0
H102 H 0.92153 0.04966 0.43915 0.0
H103 H 1.0084 0.94046 0.36851 0.0
H104 H 0.79555 0.06274 0.42305 0.0
H105 H 0.34582 0.93029 0.50941 0.0
H106 H 0.36503 0.90603 0.43038 0.0
H107 H 0.03275 0.08179 0.63081 0.0
H108 H 0.21188 0.89609 0.31113 0.0
H109 H 0.08308 0.91238 0.30427 0.0
H110 H 0.6785 0.11092 0.55974 0.0
H111 H 0.31644 0.89369 0.35841 0.0
H112 H 0.82154 0.12167 0.68269 0.0
H113 H 0.95104 0.10754 0.69296 0.0
N114 N 0.94873 0.07949 0.58589 0.0
C115 C 0.87873 0.08786 0.57951 0.0
C116 C 0.97546 0.08683 0.62595 0.0
C117 C 0.8568 0.10993 0.65528 0.0
C118 C 0.92973 0.10189 0.66122 0.0
C119 C 0.83066 0.10317 0.61411 0.0
H120 H 0.72056 0.12299 0.63278 0.0
N121 N 0.90165 0.0655 0.50529 0.0
C122 C 0.85485 0.08098 0.53815 0.0
C123 C 0.76072 0.08226 0.48861 0.0
C124 C 0.78255 0.08936 0.53058 0.0
C125 C 0.88219 0.0598 0.46459 0.0
C126 C 0.81112 0.06768 0.45552 0.0
O127 O 0.13991 0.99291 0.47499 0.0
O128 O 0.13372 0.03705 0.53222 0.0
O129 O 0.05786 0.0805 0.49374 0.0
O130 O 0.05898 0.09716 0.56226 0.0
O131 O 1.00366 0.99425 0.54421 0.0
O132 O 0.0676 0.03696 0.56875 0.0
O133 O 0.91426 0.02898 0.52543 0.0
O134 O 0.91974 0.9866 0.46557 0.0
O135 O 0.99094 0.94461 0.50798 0.0
O136 O 0.98941 0.9258 0.43938 0.0
O137 O 0.05355 0.02872 0.45584 0.0
O138 O 0.98706 0.98669 0.42985 0.0
C139 C 0.17246 0.01579 0.50391 0.0
C140 C 0.03969 0.01538 0.57446 0.0
C141 C 0.15032 0.11495 0.5306 0.0
C142 C 0.22513 0.15285 0.52522 0.0
C143 C 0.28591 0.11689 0.54218 0.0
C144 C 0.21615 0.10374 0.54003 0.0
C145 C 0.29052 0.14132 0.53501 0.0
C146 C 0.15495 0.13934 0.52299 0.0
C147 C 0.07625 0.10178 0.5294 0.0
C148 C 0.73439 0.10443 0.56498 0.0
C149 C 0.75834 0.11129 0.60659 0.0
H150 H 0.70562 0.08829 0.48147 0.0
C151 C 0.88098 1.00706 0.49509 0.0
C152 C 1.01722 0.00827 0.42492 0.0
C153 C 0.89662 0.91046 0.47367 0.0
C154 C 0.8183 0.87475 0.48307 0.0
C155 C 0.7603 0.91124 0.46628 0.0
C156 C 0.83142 0.92275 0.46574 0.0
C157 C 0.75361 0.88742 0.47483 0.0
C158 C 0.89003 0.88644 0.48225 0.0
C159 C 0.97162 0.92264 0.4734 0.0
H160 H 0.33652 0.10825 0.54978 0.0
H161 H 0.21333 0.08503 0.54607 0.0
H162 H 0.3452 0.1514 0.53777 0.0
H163 H 0.10388 0.14761 0.51509 0.0
H164 H 0.71016 0.92079 0.45995 0.0
H165 H 0.83571 0.94116 0.45902 0.0
H166 H 0.69775 0.87873 0.47454 0.0
H167 H 0.94054 0.87719 0.48888 0.0
C168 C 0.65517 0.58428 0.07423 0.0
C169 C 0.73448 0.59177 0.02289 0.0
C170 C 0.66839 0.58052 0.03269 0.0
C171 C 0.78731 0.60636 0.05502 0.0
C172 C 0.70799 0.599 0.10656 0.0
C173 C 0.77408 0.60998 0.09671 0.0
N174 N 0.59186 0.57271 0.08269 0.0
C175 C 0.57662 0.57577 0.12283 0.0
C176 C 0.69324 0.60193 0.14777 0.0
C177 C 0.62715 0.59033 0.15594 0.0
Gd178 Gd 0.51793 0.46426 0.96893 0.0
Gd179 Gd 0.51018 0.54948 0.0254 0.0
N180 N 0.61685 0.56585 0.00197 0.0
C181 C 0.74517 0.58832 0.98113 0.0
C182 C 0.6246 0.56422 0.962 0.0
C183 C 0.68947 0.57482 0.95072 0.0
H184 H 0.58009 0.55576 0.93901 0.0
H185 H 0.69577 0.57306 0.91875 0.0
H186 H 0.41805 0.4633 0.05101 0.0
H187 H 0.52476 0.56748 0.12954 0.0
H188 H 0.29636 0.44483 0.06267 0.0
H189 H 0.79518 0.59665 0.97233 0.0
H190 H 0.83848 0.61505 0.04799 0.0
H191 H 0.53371 0.44282 0.86367 0.0
H192 H 0.73242 0.61312 0.17348 0.0
H193 H 0.61493 0.59271 0.18776 0.0
H194 H 0.1925 0.3955 0.92274 0.0
H195 H 0.81542 0.62128 0.12112 0.0
H196 H 0.33493 0.39503 0.80522 0.0
H197 H 0.45825 0.41568 0.79927 0.0
N198 N 0.4522 0.43872 0.90568 0.0
C199 C 0.38532 0.42708 0.90967 0.0
C200 C 0.47906 0.43455 0.8667 0.0
C201 C 0.36746 0.40716 0.83363 0.0
C202 C 0.43692 0.41888 0.83014 0.0
C203 C 0.34093 0.41109 0.87368 0.0
H204 H 0.23652 0.38745 0.85147 0.0
N205 N 0.40264 0.44834 0.98447 0.0
C206 C 0.36016 0.43178 0.9501 0.0
C207 C 0.26694 0.42554 0.99628 0.0
C208 C 0.29044 0.42037 0.95522 0.0
C209 C 0.3817 0.45229 0.0243 0.0
C210 C 0.31314 0.44134 0.03091 0.0
O211 O 0.61922 0.5273 0.02966 0.0
O212 O 0.62668 0.48664 0.96723 0.0
O213 O 0.5601 0.43621 0.99583 0.0
O214 O 0.56855 0.42372 0.92818 0.0
O215 O 0.48505 0.52646 0.95499 0.0
O216 O 0.56073 0.48643 0.92986 0.0
O217 O 0.40708 0.48559 0.96547 0.0
O218 O 0.4015 0.52698 0.02675 0.0
O219 O 0.45694 0.58088 0.0067 0.0
O220 O 0.46082 0.58744 0.07316 0.0
O221 O 0.54026 0.48686 0.03983 0.0
O222 O 0.46734 0.5275 0.06438 0.0
C223 C 0.65905 0.50758 -0.00056 0.0
C224 C 0.5221 0.50611 0.92403 0.0
C225 C 0.65675 0.40375 0.95888 0.0
C226 C 0.7288 0.36557 0.96524 0.0
C227 C 0.79255 0.4011 0.94831 0.0
C228 C 0.72361 0.41463 0.94988 0.0
C229 C 0.79528 0.37671 0.95573 0.0
C230 C 0.65955 0.37945 0.96684 0.0
C231 C 0.58307 0.41694 0.95936 0.0
C232 C 0.24632 0.40435 0.91938 0.0
C233 C 0.27142 0.39976 0.87877 0.0
H234 H 0.21376 0.41713 0.00154 0.0
C235 C 0.36834 0.50634 0.99461 0.0
C236 C 0.50348 0.50748 0.07044 0.0
C237 C 0.39741 0.62415 0.06057 0.0
C238 C 0.3496 0.66474 0.05015 0.0
C239 C 0.31921 0.6598 0.11464 0.0
C240 C 0.36089 0.6347 0.10025 0.0
C241 C 0.31338 0.67473 0.08973 0.0
C242 C 0.39188 0.63938 0.03546 0.0
C243 C 0.43958 0.59713 0.0461 0.0
H244 H 0.84405 0.40941 0.94098 0.0
H245 H 0.72231 0.43337 0.94375 0.0
H246 H 0.84938 0.36635 0.95338 0.0
H247 H 0.60762 0.37151 0.97449 0.0
H248 H 0.2912 0.66768 0.14518 0.0
H249 H 0.36392 0.62339 0.12013 0.0
H250 H 0.28085 0.69426 0.10145 0.0
H251 H 0.4199 0.63162 0.00488 0.0
C252 C 0.65964 0.42671 0.43471 0.0
C253 C 0.70985 0.41243 0.48767 0.0
C254 C 0.65688 0.42781 0.47539 0.0
C255 C 0.76558 0.39613 0.45877 0.0
C256 C 0.715 0.41008 0.40549 0.0
C257 C 0.76811 0.39495 0.41781 0.0
N258 N 0.60851 0.44206 0.42386 0.0
C259 C 0.60569 0.43978 0.38335 0.0
C260 C 0.71495 0.40895 0.36457 0.0
C261 C 0.6595 0.42362 0.35334 0.0
Gd262 Gd 0.53324 0.55348 0.52183 0.0
Gd263 Gd 0.51912 0.46727 0.47619 0.0
N264 N 0.60326 0.44422 0.50309 0.0
C265 C 0.70559 0.41406 0.52882 0.0
C266 C 0.59697 0.44496 0.54258 0.0
C267 C 0.64859 0.43025 0.55628 0.0
H268 H 0.55082 0.45609 0.56306 0.0
H269 H 0.64375 0.43111 0.5878 0.0
H270 H 0.45683 0.56478 0.44318 0.0
H271 H 0.56107 0.44969 0.37345 0.0
H272 H 0.33936 0.5856 0.42932 0.0
H273 H 0.74541 0.40264 0.5395 0.0
H274 H 0.80693 0.3843 0.46774 0.0
H275 H 0.53331 0.5727 0.62881 0.0
H276 H 0.75643 0.39636 0.34119 0.0
H277 H 0.65751 0.42216 0.32139 0.0
H278 H 0.19599 0.61351 0.55812 0.0
H279 H 0.81119 0.38215 0.39582 0.0
H280 H 0.31394 0.60505 0.67596 0.0
H281 H 0.44226 0.59073 0.68751 0.0
N282 N 0.45421 0.57227 0.58214 0.0
C283 C 0.38608 0.58223 0.57592 0.0
C284 C 0.47607 0.57681 0.62222 0.0
C285 C 0.35288 0.59607 0.64947 0.0
C286 C 0.42512 0.58789 0.65609 0.0
C287 C 0.33335 0.59412 0.60937 0.0
H288 H 0.22281 0.61368 0.62755 0.0
N289 N 0.42243 0.57092 0.50498 0.0
C290 C 0.37058 0.58221 0.53667 0.0
C291 C 0.29119 0.59486 0.49076 0.0
C292 C 0.30264 0.59394 0.53001 0.0
C293 C 0.41339 0.57284 0.46731 0.0
C294 C 0.34724 0.58459 0.45948 0.0
O295 O 0.63945 0.48458 0.4807 0.0
O296 O 0.64709 0.53376 0.52206 0.0
O297 O 0.58171 0.58047 0.49469 0.0
O298 O 0.57092 0.5963 0.56264 0.0
O299 O 0.49656 0.49462 0.54549 0.0
O300 O 0.57325 0.53417 0.56584 0.0
O301 O 0.42668 0.52878 0.48998 0.0
O302 O 0.42255 0.49473 0.51435 0.0
O303 O 0.47264 0.4295 0.47982 0.0
O304 O 0.43932 0.44064 0.42805 0.0
O305 O 0.57287 0.52641 0.45526 0.0
O306 O 0.49449 0.48714 0.4309 0.0
C307 C 0.67793 0.50841 0.50121 0.0
C308 C 0.54199 0.51359 0.57299 0.0
C309 C 0.66948 0.61508 0.53633 0.0
C310 C 0.74976 0.65123 0.52954 0.0
C311 C 0.80301 0.61731 0.55343 0.0
C312 C 0.73203 0.60474 0.55018 0.0
C313 C 0.812 0.64036 0.54317 0.0
C314 C 0.67835 0.63837 0.52624 0.0
C315 C 0.59495 0.6015 0.53132 0.0
C316 C 0.24892 0.60469 0.56277 0.0
C317 C 0.26413 0.6047 0.60228 0.0
H318 H 0.23977 0.60378 0.4845 0.0
C319 C 0.38741 0.51219 0.50228 0.0
C320 C 0.5342 0.50656 0.42482 0.0
C321 C 0.38351 0.39755 0.42778 0.0
C322 C 0.33043 0.3547 0.43019 0.0
C323 C 0.29493 0.36806 0.37357 0.0
C324 C 0.34156 0.39191 0.39081 0.0
C325 C 0.28935 0.34957 0.39299 0.0
C326 C 0.37798 0.37878 0.44736 0.0
C327 C 0.43288 0.4229 0.44544 0.0
H328 H 0.85123 0.6092 0.56401 0.0
H329 H 0.72595 0.58693 0.55835 0.0
H330 H 0.86751 0.64994 0.54648 0.0
H331 H 0.6299 0.64614 0.51518 0.0
H332 H 0.26314 0.3638 0.34491 0.0
H333 H 0.34486 0.40591 0.37505 0.0
H334 H 0.25357 0.33097 0.37843 0.0
H335 H 0.40982 0.38302 0.47606 0.0
C336 C 0.39876 0.70143 0.0284 0.0
C337 C 0.34255 0.68162 0.0254 0.0
C338 C 0.38489 0.72204 0.0134 0.0
C339 C 0.31424 0.7232 0.99534 0.0
C340 C 0.26023 0.70207 0.9898 0.0
C341 C 0.27391 0.68164 0.00516 0.0
C342 C 0.29415 0.74664 0.98341 0.0
C343 C 0.32083 0.77331 0.00485 0.0
C344 C 0.30034 0.79804 0.99587 0.0
C345 C 0.34436 0.8228 0.01471 0.0
C346 C 0.32848 0.84668 0.00751 0.0
C347 C 0.26777 0.84652 0.98135 0.0
H348 H 0.20138 0.7798 0.95608 0.0
C349 C 0.22219 0.82205 0.96327 0.0
C350 C 0.23822 0.79804 0.9704 0.0
H351 H 0.17495 0.82127 0.94295 0.0
H352 H 0.45186 0.70185 0.04426 0.0
H353 H 0.42891 0.73736 0.01684 0.0
H354 H 0.20578 0.70226 0.97558 0.0
H355 H 0.2296 0.66665 0.00299 0.0
H356 H 0.25332 0.7419 0.95804 0.0
H357 H 0.36006 0.77756 0.0309 0.0
H358 H 0.39186 0.82367 0.03493 0.0
H359 H 0.36378 0.86536 0.02263 0.0
C360 C 0.79305 0.3347 0.99497 0.0
C361 C 0.73177 0.33945 0.97297 0.0
C362 C 0.79704 0.30993 0.00138 0.0
C363 C 0.73975 0.28915 0.98582 0.0
C364 C 0.67769 0.29421 0.96473 0.0
C365 C 0.67383 0.31894 0.95819 0.0
C366 C 0.74139 0.26232 0.99164 0.0
C367 C 0.80484 0.25109 -3e-05 0.0
C368 C 0.80642 0.22416 0.00549 0.0
C369 C 0.86786 0.21914 0.02702 0.0
C370 C 0.87182 0.1942 0.033 0.0
C371 C 0.81461 0.17345 0.0172 0.0
H372 H 0.70294 0.20553 0.97078 0.0
C373 C 0.75393 0.1782 0.99483 0.0
C374 C 0.74985 0.20317 0.98897 0.0
H375 H 0.70985 0.16241 0.98124 0.0
H376 H 0.83772 0.35033 0.00781 0.0
H377 H 0.84453 0.30757 0.0192 0.0
H378 H 0.63234 0.27877 0.95269 0.0
H379 H 0.62601 0.32166 0.94081 0.0
H380 H 0.68779 0.25137 0.98828 0.0
H381 H 0.85846 0.26204 0.00342 0.0
H382 H 0.91266 0.23475 0.03979 0.0
H383 H 0.91913 0.19147 0.0507 0.0
C384 C 0.2924 0.18324 0.49577 0.0
C385 C 0.23032 0.17898 0.51775 0.0
C386 C 0.29828 0.20795 0.48938 0.0
C387 C 0.24219 0.22916 0.50499 0.0
C388 C 0.17947 0.22466 0.52621 0.0
C389 C 0.1737 0.19998 0.53273 0.0
C390 C 0.24495 0.25542 0.49779 0.0
C391 C 0.30923 0.26615 0.48935 0.0
C392 C 0.31176 0.29102 0.47855 0.0
C393 C 0.38221 0.30353 0.47802 0.0
C394 C 0.38823 0.32506 0.46407 0.0
C395 C 0.32381 0.33445 0.45003 0.0
H396 H 0.19159 0.29214 0.46495 0.0
C397 C 0.25299 0.32276 0.45215 0.0
C398 C 0.24696 0.30123 0.46592 0.0
H399 H 0.20206 0.32981 0.44216 0.0
H400 H 0.33608 0.16721 0.48282 0.0
H401 H 0.34603 0.20994 0.47137 0.0
H402 H 0.1349 0.24043 0.53812 0.0
H403 H 0.12535 0.19758 0.55007 0.0
H404 H 0.19172 0.26645 0.50057 0.0
H405 H 0.36306 0.25638 0.49033 0.0
H406 H 0.4332 0.29611 0.4874 0.0
H407 H 0.44373 0.33348 0.46261 0.0
C408 C 0.8593 0.82615 0.47469 0.0
C409 C 0.81009 0.84954 0.49262 0.0
C410 C 0.84859 0.80194 0.48217 0.0
C411 C 0.78822 0.80062 0.50782 0.0
C412 C 0.74072 0.82438 0.52668 0.0
C413 C 0.75128 0.84846 0.51912 0.0
C414 C 0.7731 0.77536 0.51658 0.0
C415 C 0.79975 0.74899 0.49276 0.0
C416 C 0.78394 0.724 0.50201 0.0
C417 C 0.83486 0.70109 0.48703 0.0
C418 C 0.82326 0.67743 0.49555 0.0
C419 C 0.75985 0.6759 0.51892 0.0
H420 H 0.67705 0.73885 0.53528 0.0
C421 C 0.70735 0.69837 0.53275 0.0
C422 C 0.71918 0.72217 0.52442 0.0
H423 H 0.65779 0.69782 0.55073 0.0
H424 H 0.90526 0.82631 0.45417 0.0
H425 H 0.88817 0.78458 0.468 0.0
H426 H 0.69446 0.82423 0.54705 0.0
H427 H 0.71328 0.86632 0.53417 0.0
H428 H 0.73735 0.77882 0.54372 0.0
H429 H 0.83611 0.74534 0.46582 0.0
H430 H 0.88455 0.70166 0.46914 0.0
H431 H 0.86399 0.66023 0.4837 0.0
C432 C 0.29846 0.99015 0.96372 0.0
C433 C 0.25336 1.00532 -0.00044 0.0
C434 C 0.3777 0.99214 0.96629 0.0
C435 C 0.41383 0.00953 0.00492 0.0
C436 C 0.3682 0.02467 0.04056 0.0
C437 C 0.28933 0.02247 0.03802 0.0
C438 C 0.49806 0.01305 0.01003 0.0
C439 C 0.54945 0.99816 0.97996 0.0
C440 C 0.63372 1.00154 0.98509 0.0
C441 C 0.67943 0.98484 0.95031 0.0
C442 C 0.75834 0.98679 0.95289 0.0
C443 C 0.79431 1.00525 0.99061 0.0
H444 H 0.63807 0.03384 0.05067 0.0
C445 C 0.74911 0.02217 0.02548 0.0
C446 C 0.66983 0.02044 0.02282 0.0
H447 H 0.77494 0.03651 0.05512 0.0
H448 H 0.27253 0.97701 0.93344 0.0
H449 H 0.40945 0.98023 0.93766 0.0
H450 H 0.39365 0.03832 0.07075 0.0
H451 H 0.25654 0.03427 0.06641 0.0
H452 H 0.51769 0.02866 0.04054 0.0
H453 H 0.52972 0.98231 0.94965 0.0
H454 H 0.65402 0.97011 0.92075 0.0
H455 H 0.79112 0.97375 0.92511 0.0
C456 C 0.30026 0.99839 0.47134 0.0
C457 C 0.25659 0.01675 0.50593 0.0
C458 C 0.37948 0.99881 0.47344 0.0
C459 C 0.41743 0.01793 0.51024 0.0
C460 C 0.37338 0.03634 0.54467 0.0
C461 C 0.2942 0.03569 0.54267 0.0
C462 C 0.50202 0.01981 0.51453 0.0
C463 C 0.55155 1.00309 0.48467 0.0
C464 C 0.6361 1.00498 0.48894 0.0
C465 C 0.68015 0.98785 0.45358 0.0
C466 C 0.75931 0.9885 0.45555 0.0
C467 C 0.79688 1.00616 0.49315 0.0
H468 H 0.64359 0.03615 0.5551 0.0
C469 C 0.75324 0.02317 0.52871 0.0
C470 C 0.67398 0.02272 0.5267 0.0
H471 H 0.78029 0.03678 0.55838 0.0
H472 H 0.27326 0.98371 0.44234 0.0
H473 H 0.40973 0.98415 0.44587 0.0
H474 H 0.40033 0.05131 0.57352 0.0
H475 H 0.26251 0.04991 0.57017 0.0
H476 H 0.52358 0.03605 0.544 0.0
H477 H 0.53011 0.98704 0.455 0.0
H478 H 0.65322 0.97388 0.42404 0.0
H479 H 0.79104 0.97522 0.42742 0.0
C480 C 0.78809 0.49284 0.96655 0.0
C481 C 0.74315 0.50884 0.00212 0.0
C482 C 0.86737 0.49443 0.96902 0.0
C483 C 0.90386 0.51214 0.00732 0.0
C484 C 0.8585 0.52804 0.04276 0.0
C485 C 0.77948 0.52625 0.04032 0.0
C486 C 0.98821 0.5153 0.01209 0.0
C487 C 0.03906 0.49883 0.98291 0.0
C488 C 0.12347 0.50195 0.98749 0.0
C489 C 0.1686 0.48483 0.95267 0.0
C490 C 0.2476 0.4866 0.95484 0.0
C491 C 0.28421 0.50529 0.99217 0.0
H492 H 0.1289 0.53451 0.05282 0.0
C493 C 0.23954 0.52258 0.02708 0.0
C494 C 0.16023 0.52096 0.02487 0.0
H495 H 0.26581 0.53721 0.0564 0.0
H496 H 0.76204 0.47929 0.93651 0.0
H497 H 0.89894 0.48202 0.94053 0.0
H498 H 0.88429 0.54188 0.07274 0.0
H499 H 0.74694 0.53836 0.06864 0.0
H500 H 1.00838 0.53205 0.04147 0.0
H501 H 1.01872 0.48191 0.95372 0.0
H502 H 0.14264 0.46999 0.92338 0.0
H503 H 0.27991 0.47332 0.92702 0.0
C504 C 0.25851 0.50145 0.52338 0.0
C505 C 0.30316 0.51198 0.49977 0.0
C506 C 0.179 0.50243 0.52203 0.0
C507 C 0.14226 0.51388 0.49677 0.0
C508 C 0.18734 0.52409 0.47298 0.0
C509 C 0.26642 0.52284 0.47405 0.0
C510 C 0.05784 0.51645 0.49501 0.0
C511 C 1.00738 0.50154 0.50675 0.0
C512 C 0.92294 0.50384 0.50418 0.0
C513 C 0.87733 0.4823 0.50634 0.0
C514 C 0.7982 0.48371 0.50507 0.0
C515 C 0.76209 0.50668 0.50166 0.0
H516 H 0.91876 0.54458 0.50038 0.0
C517 C 0.80729 0.52838 0.49975 0.0
C518 C 0.88666 0.52708 0.50109 0.0
H519 H 0.78125 0.54632 0.49688 0.0
H520 H 0.285 0.49294 0.54356 0.0
H521 H 0.14704 0.4948 0.54159 0.0
H522 H 0.16127 0.53301 0.45318 0.0
H523 H 0.2988 0.53034 0.45449 0.0
H524 H 0.03697 0.53049 0.48161 0.0
H525 H 0.02828 0.48595 0.51719 0.0
H526 H 0.90299 0.4643 0.5093 0.0
H527 H 0.76535 0.46721 0.50811 0.0
C528 C 0.9665 0.9905 0.35033 0.0
C529 C 1.01126 0.00985 0.38345 0.0
C530 C 0.95925 0.99307 0.31203 0.0
C531 C 0.99568 0.01533 0.30645 0.0
C532 C 0.03918 0.03488 0.33974 0.0
C533 C 0.04762 0.03202 0.37758 0.0
C534 C 0.98905 0.01897 0.26656 0.0
C535 C 0.98635 0.99677 0.22819 0.0
C536 C 0.9902 1.00021 0.18809 0.0
C537 C 0.03119 0.98025 0.15407 0.0
C538 C 0.03755 0.9829 0.11602 0.0
C539 C 1.00136 1.00526 0.11057 0.0
H540 H 0.92011 0.03799 0.20849 0.0
C541 C 0.95845 0.02491 0.14436 0.0
C542 C 0.95363 0.02262 0.183 0.0
H543 H 0.92799 0.04187 0.14094 0.0
H544 H 0.93592 0.9737 0.35415 0.0
H545 H 0.92378 0.97803 0.28726 0.0
H546 H 0.06756 0.05226 0.33628 0.0
H547 H 0.08209 0.04749 0.40244 0.0
H548 H 0.99411 0.04036 0.26862 0.0
H549 H 0.98948 0.97529 0.22595 0.0
H550 H 0.05953 0.96273 0.15714 0.0
H551 H 0.07062 0.96715 0.09074 0.0
C552 C 0.9979 0.02015 0.86759 0.0
C553 C 0.04251 1.00158 0.87791 0.0
C554 C 1.00094 0.01927 0.82693 0.0
C555 C 0.04806 0.99959 0.79568 0.0
C556 C 0.09265 0.98111 0.8059 0.0
C557 C 0.09111 0.98248 0.84685 0.0
C558 C 0.04948 0.99729 0.75183 0.0
C559 C 0.04689 0.02024 0.74347 0.0
C560 C 0.04741 0.01792 0.69959 0.0
C561 C 0.08651 0.03826 0.69079 0.0
C562 C 0.086 0.03696 0.64986 0.0
C563 C 0.0438 0.01592 0.61731 0.0
H564 H 0.97541 0.9806 0.67292 0.0
C565 C 1.00505 0.99543 0.62618 0.0
C566 C 1.00709 0.99634 0.66686 0.0
H567 H 0.97231 0.97882 0.60187 0.0
H568 H 0.9601 0.03523 0.89077 0.0
H569 H 0.96501 0.0335 0.81967 0.0
H570 H 0.12958 0.96585 0.78232 0.0
H571 H 0.1282 0.96856 0.85406 0.0
H572 H 0.05661 0.97629 0.72596 0.0
H573 H 0.04791 0.0414 0.7695 0.0
H574 H 0.1182 0.05502 0.71553 0.0
H575 H 0.11855 0.05253 0.64388 0.0
C576 C 0.47838 0.4928 0.35255 0.0
C577 C 0.53651 0.50591 0.38202 0.0
C578 C 0.4807 0.49253 0.3122 0.0
C579 C 0.5417 0.50514 0.30052 0.0
C580 C 0.60027 0.51777 0.32974 0.0
C581 C 0.59733 0.51846 0.37026 0.0
C582 C 0.54723 0.50468 0.25772 0.0
C583 C 0.48626 0.50604 0.23547 0.0
C584 C 0.4925 0.50648 0.19323 0.0
C585 C 0.43835 0.52142 0.18126 0.0
C586 C 0.44248 0.52209 0.1416 0.0
C587 C 0.50014 0.50735 0.11279 0.0
H588 H 0.59172 0.47933 0.17215 0.0
C589 C 0.55374 0.49204 0.12451 0.0
C590 C 0.55016 0.49167 0.16437 0.0
H591 H 0.59867 0.48039 0.10291 0.0
H592 H 0.43087 0.48292 0.36077 0.0
H593 H 0.43551 0.48201 0.29002 0.0
H594 H 0.64816 0.52739 0.32136 0.0
H595 H 0.64329 0.52851 0.39217 0.0
H596 H 0.6036 0.50508 0.24545 0.0
H597 H 0.4303 0.50865 0.24963 0.0
H598 H 0.39306 0.5328 0.2028 0.0
H599 H 0.39992 0.53386 0.13331 0.0
C600 C 0.49025 0.50214 0.63055 0.0
C601 C 0.54803 0.51421 0.61577 0.0
C602 C 0.49672 0.50095 0.66966 0.0
C603 C 0.56085 0.51219 0.69539 0.0
C604 C 0.61856 0.52441 0.68073 0.0
C605 C 0.612 0.52562 0.64139 0.0
C606 C 0.56959 0.51058 0.73687 0.0
C607 C 0.50965 0.51013 0.76057 0.0
C608 C 0.5156 0.50862 0.80213 0.0
C609 C 0.45618 0.51985 0.83127 0.0
C610 C 0.45837 0.51874 0.87058 0.0
C611 C 0.51949 0.50587 0.88142 0.0
H612 H 0.62249 0.48584 0.79048 0.0
C613 C 0.57838 0.49396 0.85197 0.0
C614 C 0.57666 0.4954 0.81265 0.0
H615 H 0.62623 0.48394 0.85957 0.0
H616 H 0.44019 0.49316 0.61153 0.0
H617 H 0.45203 0.49056 0.67903 0.0
H618 H 0.6688 0.53304 0.69976 0.0
H619 H 0.65755 0.5349 0.63063 0.0
H620 H 0.62658 0.51105 0.74888 0.0
H621 H 0.45305 0.51256 0.75036 0.0
H622 H 0.40807 0.52984 0.8238 0.0
H623 H 0.41185 0.52792 0.89248 0.0
loop_
_geom_bond_atom_site_label_1
_geom_bond_atom_site_label_2
_geom_bond_distance
_geom_bond_site_symmetry_2
_ccdc_geom_bond_type
C0 C2 1.422 . S
C0 C4 1.415 . S
C0 N6 1.369 . S
C1 C2 1.421 . S
C1 C3 1.417 . S
C1 C13 1.422 . S
C2 C0 1.422 . S
C2 C1 1.421 . S
C2 N12 1.359 . S
C3 C1 1.417 . S
C3 C5 1.329 . S
C3 H22 0.930 . S
C4 C0 1.415 . S
C4 C5 1.437 . S
C4 C8 1.413 . S
C5 C3 1.329 . S
C5 C4 1.437 . S
C5 H27 0.929 . S
N6 C0 1.369 . S
N6 C7 1.338 . S
N6 Gd11 2.622 . S
C7 N6 1.338 . S
C7 C9 1.378 . S
C7 H19 0.929 . S
C8 C4 1.413 . S
C8 C9 1.348 . S
C8 H24 0.931 . S
C9 C7 1.378 . S
C9 C8 1.348 . S
C9 H25 0.930 . S
Gd10 N30 2.622 . S
Gd10 N37 2.570 . S
Gd10 O44 2.353 1_655 S
Gd10 O45 2.468 1_655 S
Gd10 O46 2.427 1_655 S
Gd10 O48 2.388 1_655 S
Gd10 O49 2.386 . S
Gd10 O53 2.307 1_556 S
Gd10 C63 2.805 1_655 S
Gd11 N6 2.622 . S
Gd11 N12 2.570 . S
Gd11 O43 2.386 . S
Gd11 O47 2.307 1_554 S
Gd11 O50 2.353 1_455 S
Gd11 O51 2.468 1_455 S
Gd11 O52 2.427 1_455 S
Gd11 O54 2.388 1_455 S
Gd11 C75 2.805 1_455 S
N12 C2 1.359 . S
N12 Gd11 2.570 . S
N12 C14 1.343 1_554 S
C13 C1 1.422 . S
C13 C15 1.321 1_554 S
C13 H21 0.931 1_554 S
C14 N12 1.343 1_556 S
C14 C15 1.390 . S
C14 H16 0.931 . S
C15 C13 1.321 1_556 S
C15 C14 1.390 . S
C15 H17 0.930 . S
H16 C14 0.931 . S
H17 C15 0.930 . S
H18 C41 0.931 . S
H19 C7 0.929 . S
H20 C42 0.930 . S
H21 C13 0.931 1_556 S
H22 C3 0.930 . S
H23 C32 0.929 . S
H24 C8 0.931 . S
H25 C9 0.930 . S
H26 C64 0.930 . S
H27 C5 0.929 . S
H28 C33 0.931 . S
H29 C34 0.930 . S
N30 Gd10 2.622 . S
N30 C31 1.369 . S
N30 C32 1.338 . S
C31 N30 1.369 . S
C31 C35 1.415 . S
C31 C38 1.422 . S
C32 H23 0.929 . S
C32 N30 1.338 . S
C32 C34 1.378 . S
C33 H28 0.931 . S
C33 C34 1.348 . S
C33 C35 1.413 . S
C34 H29 0.930 . S
C34 C32 1.378 . S
C34 C33 1.348 . S
C35 C31 1.415 . S
C35 C33 1.413 . S
C35 C65 1.437 . S
H36 C65 0.929 . S
N37 Gd10 2.570 . S
N37 C38 1.359 . S
N37 C41 1.343 1_556 S
C38 C31 1.422 . S
C38 N37 1.359 . S
C38 C40 1.421 . S
C39 C40 1.452 . S
C39 C42 1.305 1_556 S
C39 H66 0.918 1_556 S
C40 C38 1.421 . S
C40 C39 1.452 . S
C40 C64 1.417 . S
C41 H18 0.931 . S
C41 N37 1.343 1_554 S
C41 C42 1.390 . S
C42 H20 0.930 . S
C42 C39 1.305 1_554 S
C42 C41 1.390 . S
O43 Gd11 2.386 . S
O43 C55 1.265 1_545 S
O44 Gd10 2.353 1_455 S
O44 C55 1.242 1_556 S
O45 Gd10 2.468 1_455 S
O45 C63 1.263 . S
O46 Gd10 2.427 1_455 S
O46 C63 1.252 . S
O47 Gd11 2.307 1_556 S
O47 C56 1.261 1_545 S
O48 Gd10 2.388 1_455 S
O48 C56 1.252 . S
O49 Gd10 2.386 . S
O49 C67 1.265 1_565 S
O50 Gd11 2.353 1_655 S
O50 C67 1.242 1_554 S
O51 Gd11 2.468 1_655 S
O51 C75 1.263 . S
O52 Gd11 2.427 1_655 S
O52 C75 1.252 . S
O53 Gd10 2.307 1_554 S
O53 C68 1.261 1_565 S
O54 Gd11 2.388 1_655 S
O54 C68 1.252 . S
C55 O43 1.265 1_565 S
C55 O44 1.242 1_554 S
C56 O47 1.261 1_565 S
C56 O48 1.252 . S
C57 C60 1.394 . S
C57 C62 1.370 . S
C57 C63 1.500 . S
C58 C61 1.383 . S
C58 C62 1.395 . S
C59 C60 1.396 . S
C59 C61 1.365 . S
C59 H76 0.929 . S
C60 C57 1.394 . S
C60 C59 1.396 . S
C60 H77 0.930 . S
C61 C58 1.383 . S
C61 C59 1.365 . S
C61 H78 0.931 . S
C62 C57 1.370 . S
C62 C58 1.395 . S
C62 H79 0.930 1_556 S
C63 Gd10 2.805 1_455 S
C63 O45 1.263 . S
C63 O46 1.252 . S
C63 C57 1.500 . S
C64 H26 0.930 . S
C64 C40 1.417 . S
C64 C65 1.329 . S
C65 C35 1.437 . S
C65 H36 0.929 . S
C65 C64 1.329 . S
H66 C39 0.918 1_554 S
C67 O49 1.265 1_545 S
C67 O50 1.242 1_556 S
C68 O53 1.261 1_545 S
C68 O54 1.252 . S
C69 C72 1.394 . S
C69 C74 1.370 . S
C69 C75 1.500 . S
C70 C73 1.383 . S
C70 C74 1.395 . S
C71 C72 1.396 . S
C71 C73 1.365 . S
C71 H80 0.929 . S
C72 C69 1.394 . S
C72 C71 1.396 . S
C72 H81 0.930 . S
C73 C70 1.383 . S
C73 C71 1.365 . S
C73 H82 0.931 . S
C74 C69 1.370 . S
C74 C70 1.395 . S
C74 H83 0.930 1_554 S
C75 Gd11 2.805 1_655 S
C75 O51 1.263 . S
C75 O52 1.252 . S
C75 C69 1.500 . S
H76 C59 0.929 . S
H77 C60 0.930 . S
H78 C61 0.931 . S
H79 C62 0.930 1_554 S
H80 C71 0.929 . S
H81 C72 0.930 . S
H82 C73 0.931 . S
H83 C74 0.930 1_556 S
C84 C86 1.422 . S
C84 C88 1.415 . S
C84 N90 1.369 . S
C85 C86 1.421 . S
C85 C87 1.417 . S
C85 C97 1.422 . S
C86 C84 1.422 . S
C86 C85 1.421 . S
C86 N96 1.359 . S
C87 C85 1.417 . S
C87 C89 1.329 . S
C87 H106 0.930 . S
C88 C84 1.415 . S
C88 C89 1.437 . S
C88 C92 1.413 . S
C89 C87 1.329 . S
C89 C88 1.437 . S
C89 H111 0.929 . S
N90 C84 1.369 . S
N90 C91 1.338 . S
N90 Gd95 2.622 . S
C91 N90 1.338 . S
C91 C93 1.378 . S
C91 H103 0.929 . S
C92 C88 1.413 . S
C92 C93 1.348 . S
C92 H108 0.931 . S
C93 C91 1.378 . S
C93 C92 1.348 . S
C93 H109 0.930 . S
Gd94 N114 2.622 . S
Gd94 N121 2.570 . S
Gd94 O128 2.353 1_655 S
Gd94 O129 2.468 1_655 S
Gd94 O130 2.427 1_655 S
Gd94 O132 2.388 1_655 S
Gd94 O133 2.386 . S
Gd94 O137 2.307 . S
Gd94 C147 2.805 1_655 S
Gd95 N90 2.622 . S
Gd95 N96 2.570 . S
Gd95 O127 2.386 . S
Gd95 O131 2.307 . S
Gd95 O134 2.353 1_455 S
Gd95 O135 2.468 1_455 S
Gd95 O136 2.427 1_455 S
Gd95 O138 2.388 1_455 S
Gd95 C159 2.805 1_455 S
N96 C86 1.359 . S
N96 Gd95 2.570 . S
N96 C98 1.343 . S
C97 C85 1.422 . S
C97 C99 1.321 . S
C97 H105 0.931 . S
C98 N96 1.343 . S
C98 C99 1.390 . S
C98 H100 0.931 . S
C99 C97 1.321 . S
C99 C98 1.390 . S
C99 H101 0.930 . S
H100 C98 0.931 . S
H101 C99 0.930 . S
H102 C125 0.931 . S
H103 C91 0.929 . S
H104 C126 0.930 . S
H105 C97 0.931 . S
H106 C87 0.930 . S
H107 C116 0.929 . S
H108 C92 0.931 . S
H109 C93 0.930 . S
H110 C148 0.930 . S
H111 C89 0.929 . S
H112 C117 0.931 . S
H113 C118 0.930 . S
N114 Gd94 2.622 . S
N114 C115 1.369 . S
N114 C116 1.338 . S
C115 N114 1.369 . S
C115 C119 1.415 . S
C115 C122 1.422 . S
C116 H107 0.929 . S
C116 N114 1.338 . S
C116 C118 1.378 . S
C117 H112 0.931 . S
C117 C118 1.348 . S
C117 C119 1.413 . S
C118 H113 0.930 . S
C118 C116 1.378 . S
C118 C117 1.348 . S
C119 C115 1.415 . S
C119 C117 1.413 . S
C119 C149 1.437 . S
H120 C149 0.929 . S
N121 Gd94 2.570 . S
N121 C122 1.359 . S
N121 C125 1.343 . S
C122 C115 1.422 . S
C122 N121 1.359 . S
C122 C124 1.421 . S
C123 C124 1.422 . S
C123 C126 1.321 . S
C123 H150 0.931 . S
C124 C122 1.421 . S
C124 C123 1.422 . S
C124 C148 1.417 . S
C125 H102 0.931 . S
C125 N121 1.343 . S
C125 C126 1.390 . S
C126 H104 0.930 . S
C126 C123 1.321 . S
C126 C125 1.390 . S
O127 Gd95 2.386 . S
O127 C139 1.265 1_565 S
O128 Gd94 2.353 1_455 S
O128 C139 1.242 . S
O129 Gd94 2.468 1_455 S
O129 C147 1.263 . S
O130 Gd94 2.427 1_455 S
O130 C147 1.252 . S
O131 Gd95 2.307 . S
O131 C140 1.261 1_565 S
O132 Gd94 2.388 1_455 S
O132 C140 1.252 . S
O133 Gd94 2.386 . S
O133 C151 1.265 1_545 S
O134 Gd95 2.353 1_655 S
O134 C151 1.242 . S
O135 Gd95 2.468 1_655 S
O135 C159 1.263 . S
O136 Gd95 2.427 1_655 S
O136 C159 1.252 . S
O137 Gd94 2.307 . S
O137 C152 1.261 1_545 S
O138 Gd95 2.388 1_655 S
O138 C152 1.252 . S
C139 O127 1.265 1_545 S
C139 O128 1.242 . S
C140 O131 1.261 1_545 S
C140 O132 1.252 . S
C141 C144 1.394 . S
C141 C146 1.370 . S
C141 C147 1.500 . S
C142 C145 1.383 . S
C142 C146 1.395 . S
C143 C144 1.396 . S
C143 C145 1.365 . S
C143 H160 0.929 . S
C144 C141 1.394 . S
C144 C143 1.396 . S
C144 H161 0.930 . S
C145 C142 1.383 . S
C145 C143 1.365 . S
C145 H162 0.931 . S
C146 C141 1.370 . S
C146 C142 1.395 . S
C146 H163 0.930 . S
C147 Gd94 2.805 1_455 S
C147 O129 1.263 . S
C147 O130 1.252 . S
C147 C141 1.500 . S
C148 H110 0.930 . S
C148 C124 1.417 . S
C148 C149 1.329 . S
C149 C119 1.437 . S
C149 H120 0.929 . S
C149 C148 1.329 . S
H150 C123 0.931 . S
C151 O133 1.265 1_565 S
C151 O134 1.242 . S
C152 O137 1.261 1_565 S
C152 O138 1.252 . S
C153 C156 1.394 . S
C153 C158 1.370 . S
C153 C159 1.500 . S
C154 C157 1.383 . S
C154 C158 1.395 . S
C155 C156 1.396 . S
C155 C157 1.365 . S
C155 H164 0.929 . S
C156 C153 1.394 . S
C156 C155 1.396 . S
C156 H165 0.930 . S
C157 C154 1.383 . S
C157 C155 1.365 . S
C157 H166 0.931 . S
C158 C153 1.370 . S
C158 C154 1.395 . S
C158 H167 0.930 . S
C159 Gd95 2.805 1_655 S
C159 O135 1.263 . S
C159 O136 1.252 . S
C159 C153 1.500 . S
H160 C143 0.929 . S
H161 C144 0.930 . S
H162 C145 0.931 . S
H163 C146 0.930 . S
H164 C155 0.929 . S
H165 C156 0.930 . S
H166 C157 0.931 . S
H167 C158 0.930 . S
C168 C170 1.422 . S
C168 C172 1.415 . S
C168 N174 1.369 . S
C169 C170 1.421 . S
C169 C171 1.417 . S
C169 C181 1.422 . S
C170 C168 1.422 . S
C170 C169 1.421 . S
C170 N180 1.359 . S
C171 C169 1.417 . S
C171 C173 1.329 . S
C171 H190 0.930 . S
C172 C168 1.415 . S
C172 C173 1.437 . S
C172 C176 1.413 . S
C173 C171 1.329 . S
C173 C172 1.437 . S
C173 H195 0.929 . S
N174 C168 1.369 . S
N174 C175 1.338 . S
N174 Gd179 2.622 . S
C175 N174 1.338 . S
C175 C177 1.378 . S
C175 H187 0.929 . S
C176 C172 1.413 . S
C176 C177 1.348 . S
C176 H192 0.931 . S
C177 C175 1.378 . S
C177 C176 1.348 . S
C177 H193 0.930 . S
Gd178 N198 2.622 . S
Gd178 N205 2.570 . S
Gd178 O212 2.353 . S
Gd178 O213 2.468 . S
Gd178 O214 2.427 . S
Gd178 O216 2.388 . S
Gd178 O217 2.386 . S
Gd178 O221 2.307 1_556 S
Gd178 C231 2.805 . S
Gd179 N174 2.622 . S
Gd179 N180 2.570 . S
Gd179 O211 2.386 . S
Gd179 O215 2.307 1_554 S
Gd179 O218 2.353 . S
Gd179 O219 2.468 . S
Gd179 O220 2.427 . S
Gd179 O222 2.388 . S
Gd179 C243 2.805 . S
N180 C170 1.359 . S
N180 Gd179 2.570 . S
N180 C182 1.343 1_554 S
C181 C169 1.422 . S
C181 C183 1.321 1_554 S
C181 H189 0.931 1_554 S
C182 N180 1.343 1_556 S
C182 C183 1.390 . S
C182 H184 0.931 . S
C183 C181 1.321 1_556 S
C183 C182 1.390 . S
C183 H185 0.930 . S
H184 C182 0.931 . S
H185 C183 0.930 . S
H186 C209 0.931 . S
H187 C175 0.929 . S
H188 C210 0.930 . S
H189 C181 0.931 1_556 S
H190 C171 0.930 . S
H191 C200 0.929 . S
H192 C176 0.931 . S
H193 C177 0.930 . S
H194 C232 0.930 . S
H195 C173 0.929 . S
H196 C201 0.931 . S
H197 C202 0.930 . S
N198 Gd178 2.622 . S
N198 C199 1.369 . S
N198 C200 1.338 . S
C199 N198 1.369 . S
C199 C203 1.415 . S
C199 C206 1.422 . S
C200 H191 0.929 . S
C200 N198 1.338 . S
C200 C202 1.378 . S
C201 H196 0.931 . S
C201 C202 1.348 . S
C201 C203 1.413 . S
C202 H197 0.930 . S
C202 C200 1.378 . S
C202 C201 1.348 . S
C203 C199 1.415 . S
C203 C201 1.413 . S
C203 C233 1.437 . S
H204 C233 0.929 . S
N205 Gd178 2.570 . S
N205 C206 1.359 . S
N205 C209 1.343 1_556 S
C206 C199 1.422 . S
C206 N205 1.359 . S
C206 C208 1.421 . S
C207 C208 1.452 . S
C207 C210 1.305 1_556 S
C207 H234 0.918 1_556 S
C208 C206 1.421 . S
C208 C207 1.452 . S
C208 C232 1.417 . S
C209 H186 0.931 . S
C209 N205 1.343 1_554 S
C209 C210 1.390 . S
C210 H188 0.930 . S
C210 C207 1.305 1_554 S
C210 C209 1.390 . S
O211 Gd179 2.386 . S
O211 C223 1.265 . S
O212 Gd178 2.353 . S
O212 C223 1.242 1_556 S
O213 Gd178 2.468 . S
O213 C231 1.263 . S
O214 Gd178 2.427 . S
O214 C231 1.252 . S
O215 Gd179 2.307 1_556 S
O215 C224 1.261 . S
O216 Gd178 2.388 . S
O216 C224 1.252 . S
O217 Gd178 2.386 . S
O217 C235 1.265 . S
O218 Gd179 2.353 . S
O218 C235 1.242 1_554 S
O219 Gd179 2.468 . S
O219 C243 1.263 . S
O220 Gd179 2.427 . S
O220 C243 1.252 . S
O221 Gd178 2.307 1_554 S
O221 C236 1.261 . S
O222 Gd179 2.388 . S
O222 C236 1.252 . S
C223 O211 1.265 . S
C223 O212 1.242 1_554 S
C224 O215 1.261 . S
C224 O216 1.252 . S
C225 C228 1.394 . S
C225 C230 1.370 . S
C225 C231 1.500 . S
C226 C229 1.383 . S
C226 C230 1.395 . S
C227 C228 1.396 . S
C227 C229 1.365 . S
C227 H244 0.929 . S
C228 C225 1.394 . S
C228 C227 1.396 . S
C228 H245 0.930 . S
C229 C226 1.383 . S
C229 C227 1.365 . S
C229 H246 0.931 . S
C230 C225 1.370 . S
C230 C226 1.395 . S
C230 H247 0.930 1_556 S
C231 Gd178 2.805 . S
C231 O213 1.263 . S
C231 O214 1.252 . S
C231 C225 1.500 . S
C232 H194 0.930 . S
C232 C208 1.417 . S
C232 C233 1.329 . S
C233 C203 1.437 . S
C233 H204 0.929 . S
C233 C232 1.329 . S
H234 C207 0.918 1_554 S
C235 O217 1.265 . S
C235 O218 1.242 1_556 S
C236 O221 1.261 . S
C236 O222 1.252 . S
C237 C240 1.394 . S
C237 C242 1.370 . S
C237 C243 1.500 . S
C238 C241 1.383 . S
C238 C242 1.395 . S
C239 C240 1.396 . S
C239 C241 1.365 . S
C239 H248 0.929 . S
C240 C237 1.394 . S
C240 C239 1.396 . S
C240 H249 0.930 . S
C241 C238 1.383 . S
C241 C239 1.365 . S
C241 H250 0.931 . S
C242 C237 1.370 . S
C242 C238 1.395 . S
C242 H251 0.930 1_554 S
C243 Gd179 2.805 . S
C243 O219 1.263 . S
C243 O220 1.252 . S
C243 C237 1.500 . S
H244 C227 0.929 . S
H245 C228 0.930 . S
H246 C229 0.931 . S
H247 C230 0.930 1_554 S
H248 C239 0.929 . S
H249 C240 0.930 . S
H250 C241 0.931 . S
H251 C242 0.930 1_556 S
C252 C254 1.422 . S
C252 C256 1.415 . S
C252 N258 1.369 . S
C253 C254 1.421 . S
C253 C255 1.417 . S
C253 C265 1.422 . S
C254 C252 1.422 . S
C254 C253 1.421 . S
C254 N264 1.359 . S
C255 C253 1.417 . S
C255 C257 1.329 . S
C255 H274 0.930 . S
C256 C252 1.415 . S
C256 C257 1.437 . S
C256 C260 1.413 . S
C257 C255 1.329 . S
C257 C256 1.437 . S
C257 H279 0.929 . S
N258 C252 1.369 . S
N258 C259 1.338 . S
N258 Gd263 2.622 . S
C259 N258 1.338 . S
C259 C261 1.378 . S
C259 H271 0.929 . S
C260 C256 1.413 . S
C260 C261 1.348 . S
C260 H276 0.931 . S
C261 C259 1.378 . S
C261 C260 1.348 . S
C261 H277 0.930 . S
Gd262 N282 2.622 . S
Gd262 N289 2.570 . S
Gd262 O296 2.353 . S
Gd262 O297 2.468 . S
Gd262 O298 2.427 . S
Gd262 O300 2.388 . S
Gd262 O301 2.386 . S
Gd262 O305 2.307 . S
Gd262 C315 2.805 . S
Gd263 N258 2.622 . S
Gd263 N264 2.570 . S
Gd263 O295 2.386 . S
Gd263 O299 2.307 . S
Gd263 O302 2.353 . S
Gd263 O303 2.468 . S
Gd263 O304 2.427 . S
Gd263 O306 2.388 . S
Gd263 C327 2.805 . S
N264 C254 1.359 . S
N264 Gd263 2.570 . S
N264 C266 1.343 . S
C265 C253 1.422 . S
C265 C267 1.321 . S
C265 H273 0.931 . S
C266 N264 1.343 . S
C266 C267 1.390 . S
C266 H268 0.931 . S
C267 C265 1.321 . S
C267 C266 1.390 . S
C267 H269 0.930 . S
H268 C266 0.931 . S
H269 C267 0.930 . S
H270 C293 0.931 . S
H271 C259 0.929 . S
H272 C294 0.930 . S
H273 C265 0.931 . S
H274 C255 0.930 . S
H275 C284 0.929 . S
H276 C260 0.931 . S
H277 C261 0.930 . S
H278 C316 0.930 . S
H279 C257 0.929 . S
H280 C285 0.931 . S
H281 C286 0.930 . S
N282 Gd262 2.622 . S
N282 C283 1.369 . S
N282 C284 1.338 . S
C283 N282 1.369 . S
C283 C287 1.415 . S
C283 C290 1.422 . S
C284 H275 0.929 . S
C284 N282 1.338 . S
C284 C286 1.378 . S
C285 H280 0.931 . S
C285 C286 1.348 . S
C285 C287 1.413 . S
C286 H281 0.930 . S
C286 C284 1.378 . S
C286 C285 1.348 . S
C287 C283 1.415 . S
C287 C285 1.413 . S
C287 C317 1.437 . S
H288 C317 0.929 . S
N289 Gd262 2.570 . S
N289 C290 1.359 . S
N289 C293 1.343 . S
C290 C283 1.422 . S
C290 N289 1.359 . S
C290 C292 1.421 . S
C291 C292 1.422 . S
C291 C294 1.321 . S
C291 H318 0.931 . S
C292 C290 1.421 . S
C292 C291 1.422 . S
C292 C316 1.417 . S
C293 H270 0.931 . S
C293 N289 1.343 . S
C293 C294 1.390 . S
C294 H272 0.930 . S
C294 C291 1.321 . S
C294 C293 1.390 . S
O295 Gd263 2.386 . S
O295 C307 1.265 . S
O296 Gd262 2.353 . S
O296 C307 1.242 . S
O297 Gd262 2.468 . S
O297 C315 1.263 . S
O298 Gd262 2.427 . S
O298 C315 1.252 . S
O299 Gd263 2.307 . S
O299 C308 1.261 . S
O300 Gd262 2.388 . S
O300 C308 1.252 . S
O301 Gd262 2.386 . S
O301 C319 1.265 . S
O302 Gd263 2.353 . S
O302 C319 1.242 . S
O303 Gd263 2.468 . S
O303 C327 1.263 . S
O304 Gd263 2.427 . S
O304 C327 1.252 . S
O305 Gd262 2.307 . S
O305 C320 1.261 . S
O306 Gd263 2.388 . S
O306 C320 1.252 . S
C307 O295 1.265 . S
C307 O296 1.242 . S
C308 O299 1.261 . S
C308 O300 1.252 . S
C309 C312 1.394 . S
C309 C314 1.370 . S
C309 C315 1.500 . S
C310 C313 1.383 . S
C310 C314 1.395 . S
C311 C312 1.396 . S
C311 C313 1.365 . S
C311 H328 0.929 . S
C312 C309 1.394 . S
C312 C311 1.396 . S
C312 H329 0.930 . S
C313 C310 1.383 . S
C313 C311 1.365 . S
C313 H330 0.931 . S
C314 C309 1.370 . S
C314 C310 1.395 . S
C314 H331 0.930 . S
C315 Gd262 2.805 . S
C315 O297 1.263 . S
C315 O298 1.252 . S
C315 C309 1.500 . S
C316 H278 0.930 . S
C316 C292 1.417 . S
C316 C317 1.329 . S
C317 C287 1.437 . S
C317 H288 0.929 . S
C317 C316 1.329 . S
H318 C291 0.931 . S
C319 O301 1.265 . S
C319 O302 1.242 . S
C320 O305 1.261 . S
C320 O306 1.252 . S
C321 C324 1.394 . S
C321 C326 1.370 . S
C321 C327 1.500 . S
C322 C325 1.383 . S
C322 C326 1.395 . S
C323 C324 1.396 . S
C323 C325 1.365 . S
C323 H332 0.929 . S
C324 C321 1.394 . S
C324 C323 1.396 . S
C324 H333 0.930 . S
C325 C322 1.383 . S
C325 C323 1.365 . S
C325 H334 0.931 . S
C326 C321 1.370 . S
C326 C322 1.395 . S
C326 H335 0.930 . S
C327 Gd263 2.805 . S
C327 O303 1.263 . S
C327 O304 1.252 . S
C327 C321 1.500 . S
H328 C311 0.929 . S
H329 C312 0.930 . S
H330 C313 0.931 . S
H331 C314 0.930 . S
H332 C323 0.929 . S
H333 C324 0.930 . S
H334 C325 0.931 . S
H335 C326 0.930 . S
C336 C337 1.386 1_554 S
C336 C338 1.383 . S
C336 H352 0.951 . S
C337 C336 1.386 1_556 S
C337 C341 1.383 . S
C338 C336 1.383 . S
C338 C339 1.402 1_554 S
C338 H353 0.951 . S
C339 C338 1.402 1_556 S
C339 C340 1.375 . S
C339 C342 1.481 . S
C340 C339 1.375 . S
C340 C341 1.367 . S
C340 H354 0.951 . S
C341 C337 1.383 . S
C341 C340 1.367 . S
C341 H355 0.950 . S
C342 C339 1.481 . S
C342 C343 1.297 . S
C342 H356 0.950 . S
C343 C342 1.297 . S
C343 C344 1.479 . S
C343 H357 0.950 . S
C344 C343 1.479 . S
C344 C345 1.375 1_556 S
C344 C350 1.404 . S
C345 C344 1.375 1_554 S
C345 C346 1.369 . S
C345 H358 0.950 . S
C346 C345 1.369 . S
C346 C347 1.392 1_554 S
C346 H359 0.951 . S
C347 C346 1.392 1_556 S
C347 C349 1.384 . S
H348 C350 0.949 . S
C349 C347 1.384 . S
C349 C350 1.385 . S
C349 H351 0.950 . S
C350 C344 1.404 . S
C350 H348 0.949 . S
C350 C349 1.385 . S
H351 C349 0.950 . S
H352 C336 0.951 . S
H353 C338 0.951 . S
H354 C340 0.951 . S
H355 C341 0.950 . S
H356 C342 0.950 . S
H357 C343 0.950 . S
H358 C345 0.950 . S
H359 C346 0.951 . S
C360 C361 1.383 . S
C360 C362 1.398 . S
C360 H376 0.939 1_554 S
C361 C360 1.383 . S
C361 C365 1.383 . S
C362 C360 1.398 . S
C362 C363 1.402 . S
C362 H377 0.951 . S
C363 C362 1.402 . S
C363 C364 1.375 . S
C363 C366 1.481 . S
C364 C363 1.375 . S
C364 C365 1.367 . S
C364 H378 0.951 . S
C365 C361 1.383 . S
C365 C364 1.367 . S
C365 H379 0.950 . S
C366 C363 1.481 . S
C366 C367 1.297 . S
C366 H380 0.950 . S
C367 C366 1.297 . S
C367 C368 1.479 . S
C367 H381 0.950 . S
C368 C367 1.479 . S
C368 C369 1.375 . S
C368 C374 1.404 . S
C369 C368 1.375 . S
C369 C370 1.368 . S
C369 H382 0.950 . S
C370 C369 1.368 . S
C370 C371 1.393 . S
C370 H383 0.950 1_554 S
C371 C370 1.393 . S
C371 C373 1.384 . S
H372 C374 0.949 . S
C373 C371 1.384 . S
C373 C374 1.385 . S
C373 H375 0.950 . S
C374 C368 1.404 . S
C374 H372 0.949 . S
C374 C373 1.385 . S
H375 C373 0.950 . S
H376 C360 0.939 1_556 S
H377 C362 0.951 . S
H378 C364 0.951 . S
H379 C365 0.950 . S
H380 C366 0.950 . S
H381 C367 0.950 . S
H382 C369 0.950 . S
H383 C370 0.950 1_556 S
C384 C385 1.386 . S
C384 C386 1.383 . S
C384 H400 0.951 . S
C385 C384 1.386 . S
C385 C389 1.383 . S
C386 C384 1.383 . S
C386 C387 1.402 . S
C386 H401 0.951 . S
C387 C386 1.402 . S
C387 C388 1.375 . S
C387 C390 1.481 . S
C388 C387 1.375 . S
C388 C389 1.367 . S
C388 H402 0.951 . S
C389 C385 1.383 . S
C389 C388 1.367 . S
C389 H403 0.950 . S
C390 C387 1.481 . S
C390 C391 1.297 . S
C390 H404 0.950 . S
C391 C390 1.297 . S
C391 C392 1.479 . S
C391 H405 0.950 . S
C392 C391 1.479 . S
C392 C393 1.375 . S
C392 C398 1.404 . S
C393 C392 1.375 . S
C393 C394 1.369 . S
C393 H406 0.950 . S
C394 C393 1.369 . S
C394 C395 1.392 . S
C394 H407 0.951 . S
C395 C394 1.392 . S
C395 C397 1.384 . S
H396 C398 0.949 . S
C397 C395 1.384 . S
C397 C398 1.385 . S
C397 H399 0.950 . S
C398 C392 1.404 . S
C398 H396 0.949 . S
C398 C397 1.385 . S
H399 C397 0.950 . S
H400 C384 0.951 . S
H401 C386 0.951 . S
H402 C388 0.951 . S
H403 C389 0.950 . S
H404 C390 0.950 . S
H405 C391 0.950 . S
H406 C393 0.950 . S
H407 C394 0.951 . S
C408 C409 1.386 . S
C408 C410 1.383 . S
C408 H424 0.951 . S
C409 C408 1.386 . S
C409 C413 1.383 . S
C410 C408 1.383 . S
C410 C411 1.402 . S
C410 H425 0.951 . S
C411 C410 1.402 . S
C411 C412 1.375 . S
C411 C414 1.481 . S
C412 C411 1.375 . S
C412 C413 1.367 . S
C412 H426 0.951 . S
C413 C409 1.383 . S
C413 C412 1.367 . S
C413 H427 0.950 . S
C414 C411 1.481 . S
C414 C415 1.297 . S
C414 H428 0.950 . S
C415 C414 1.297 . S
C415 C416 1.479 . S
C415 H429 0.950 . S
C416 C415 1.479 . S
C416 C417 1.375 . S
C416 C422 1.404 . S
C417 C416 1.375 . S
C417 C418 1.369 . S
C417 H430 0.950 . S
C418 C417 1.369 . S
C418 C419 1.392 . S
C418 H431 0.951 . S
C419 C418 1.392 . S
C419 C421 1.384 . S
H420 C422 0.949 . S
C421 C419 1.384 . S
C421 C422 1.385 . S
C421 H423 0.950 . S
C422 C416 1.404 . S
C422 H420 0.949 . S
C422 C421 1.385 . S
H423 C421 0.950 . S
H424 C408 0.951 . S
H425 C410 0.951 . S
H426 C412 0.951 . S
H427 C413 0.950 . S
H428 C414 0.950 . S
H429 C415 0.950 . S
H430 C417 0.950 . S
H431 C418 0.951 . S
C432 C433 1.386 1_556 S
C432 C434 1.383 . S
C432 H448 0.951 . S
C433 C432 1.386 1_554 S
C433 C437 1.383 1_565 S
C434 C432 1.383 . S
C434 C435 1.402 1_566 S
C434 H449 0.951 . S
C435 C434 1.402 1_544 S
C435 C436 1.375 . S
C435 C438 1.481 . S
C436 C435 1.375 . S
C436 C437 1.367 . S
C436 H450 0.951 . S
C437 C433 1.383 1_545 S
C437 C436 1.367 . S
C437 H451 0.950 . S
C438 C435 1.481 . S
C438 C439 1.297 1_554 S
C438 H452 0.950 . S
C439 C438 1.297 1_556 S
C439 C440 1.479 . S
C439 H453 0.950 . S
C440 C439 1.479 . S
C440 C441 1.375 1_545 S
C440 C446 1.404 1_556 S
C441 C440 1.375 1_565 S
C441 C442 1.369 . S
C441 H454 0.950 . S
C442 C441 1.369 . S
C442 C443 1.395 1_565 S
C442 H455 0.951 . S
C443 C442 1.395 1_545 S
C443 C445 1.382 1_556 S
H444 C446 0.949 . S
C445 C443 1.382 1_554 S
C445 C446 1.385 . S
C445 H447 0.950 . S
C446 C440 1.404 1_554 S
C446 H444 0.949 . S
C446 C445 1.385 . S
H447 C445 0.950 . S
H448 C432 0.951 . S
H449 C434 0.951 . S
H450 C436 0.951 . S
H451 C437 0.950 . S
H452 C438 0.950 . S
H453 C439 0.950 . S
H454 C441 0.950 . S
H455 C442 0.951 . S
C456 C457 1.386 1_565 S
C456 C458 1.383 . S
C456 H472 0.951 . S
C457 C456 1.386 1_545 S
C457 C461 1.383 . S
C458 C456 1.383 . S
C458 C459 1.402 1_565 S
C458 H473 0.951 . S
C459 C458 1.402 1_545 S
C459 C460 1.375 . S
C459 C462 1.481 . S
C460 C459 1.375 . S
C460 C461 1.367 . S
C460 H474 0.951 . S
C461 C457 1.383 . S
C461 C460 1.367 . S
C461 H475 0.950 . S
C462 C459 1.481 . S
C462 C463 1.297 . S
C462 H476 0.950 . S
C463 C462 1.297 . S
C463 C464 1.479 . S
C463 H477 0.950 1_545 S
C464 C463 1.479 . S
C464 C465 1.375 1_545 S
C464 C470 1.404 . S
C465 C464 1.375 1_565 S
C465 C466 1.369 . S
C465 H478 0.950 . S
C466 C465 1.369 . S
C466 C467 1.396 . S
C466 H479 0.951 . S
C467 C466 1.396 . S
C467 C469 1.376 1_565 S
H468 C470 0.949 . S
C469 C467 1.376 1_545 S
C469 C470 1.385 . S
C469 H471 0.950 . S
C470 C464 1.404 . S
C470 H468 0.949 . S
C470 C469 1.385 . S
H471 C469 0.950 . S
H472 C456 0.951 . S
H473 C458 0.951 . S
H474 C460 0.951 . S
H475 C461 0.950 . S
H476 C462 0.950 . S
H477 C463 0.950 1_565 S
H478 C465 0.950 . S
H479 C466 0.951 . S
C480 C481 1.386 1_556 S
C480 C482 1.383 . S
C480 H496 0.951 . S
C481 C480 1.386 1_554 S
C481 C485 1.383 . S
C482 C480 1.383 . S
C482 C483 1.402 1_556 S
C482 H497 0.951 . S
C483 C482 1.402 1_554 S
C483 C484 1.375 . S
C483 C486 1.481 . S
C484 C483 1.375 . S
C484 C485 1.367 . S
C484 H498 0.951 . S
C485 C481 1.383 . S
C485 C484 1.367 . S
C485 H499 0.950 . S
C486 C483 1.481 . S
C486 C487 1.297 1_654 S
C486 H500 0.950 . S
C487 C486 1.297 1_456 S
C487 C488 1.479 1_556 S
C487 H501 0.950 . S
C488 C487 1.479 1_554 S
C488 C489 1.375 1_554 S
C488 C494 1.404 . S
C489 C488 1.375 1_556 S
C489 C490 1.369 . S
C489 H502 0.950 . S
C490 C489 1.369 . S
C490 C491 1.392 1_556 S
C490 H503 0.951 . S
C491 C490 1.392 1_554 S
C491 C493 1.384 . S
H492 C494 0.949 . S
C493 C491 1.384 . S
C493 C494 1.385 . S
C493 H495 0.950 . S
C494 C488 1.404 . S
C494 H492 0.949 . S
C494 C493 1.385 . S
H495 C493 0.950 . S
H496 C480 0.951 . S
H497 C482 0.951 . S
H498 C484 0.951 . S
H499 C485 0.950 . S
H500 C486 0.950 . S
H501 C487 0.950 . S
H502 C489 0.950 . S
H503 C490 0.951 . S
C504 C505 1.386 . S
C504 C506 1.383 . S
C504 H520 0.951 . S
C505 C504 1.386 . S
C505 C509 1.383 . S
C506 C504 1.383 . S
C506 C507 1.402 . S
C506 H521 0.951 . S
C507 C506 1.402 . S
C507 C508 1.375 . S
C507 C510 1.481 . S
C508 C507 1.375 . S
C508 C509 1.367 . S
C508 H522 0.951 . S
C509 C505 1.383 . S
C509 C508 1.367 . S
C509 H523 0.950 . S
C510 C507 1.481 . S
C510 C511 1.297 1_455 S
C510 H524 0.950 . S
C511 C510 1.297 1_655 S
C511 C512 1.479 . S
C511 H525 0.950 . S
C512 C511 1.479 . S
C512 C513 1.375 . S
C512 C518 1.404 . S
C513 C512 1.375 . S
C513 C514 1.369 . S
C513 H526 0.950 . S
C514 C513 1.369 . S
C514 C515 1.392 . S
C514 H527 0.951 . S
C515 C514 1.392 . S
C515 C517 1.384 . S
H516 C518 0.949 . S
C517 C515 1.384 . S
C517 C518 1.385 . S
C517 H519 0.950 . S
C518 C512 1.404 . S
C518 H516 0.949 . S
C518 C517 1.385 . S
H519 C517 0.950 . S
H520 C504 0.951 . S
H521 C506 0.951 . S
H522 C508 0.951 . S
H523 C509 0.950 . S
H524 C510 0.950 . S
H525 C511 0.950 . S
H526 C513 0.950 . S
H527 C514 0.951 . S
C528 C529 1.386 1_565 S
C528 C530 1.383 . S
C528 H544 0.951 . S
C529 C528 1.386 1_545 S
C529 C533 1.383 1_655 S
C530 C528 1.383 . S
C530 C531 1.402 1_565 S
C530 H545 0.951 . S
C531 C530 1.402 1_545 S
C531 C532 1.375 1_655 S
C531 C534 1.481 . S
C532 C531 1.375 1_455 S
C532 C533 1.367 . S
C532 H546 0.951 . S
C533 C529 1.383 1_455 S
C533 C532 1.367 . S
C533 H547 0.950 . S
C534 C531 1.481 . S
C534 C535 1.292 1_545 S
C534 H548 0.950 1_655 S
C535 C534 1.292 1_565 S
C535 C536 1.468 1_565 S
C535 H549 0.970 . S
C536 C535 1.468 1_545 S
C536 C537 1.375 1_545 S
C536 C542 1.404 . S
C537 C536 1.375 1_565 S
C537 C538 1.369 . S
C537 H550 0.950 . S
C538 C537 1.369 . S
C538 C539 1.392 1_565 S
C538 H551 0.951 . S
C539 C538 1.392 1_545 S
C539 C541 1.384 1_655 S
H540 C542 0.949 1_455 S
C541 C539 1.384 1_455 S
C541 C542 1.385 1_455 S
C541 H543 0.950 . S
C542 C536 1.404 . S
C542 H540 0.949 1_655 S
C542 C541 1.385 1_655 S
H543 C541 0.950 . S
H544 C528 0.951 . S
H545 C530 0.951 . S
H546 C532 0.951 . S
H547 C533 0.950 . S
H548 C534 0.950 1_455 S
H549 C535 0.970 . S
H550 C537 0.950 . S
H551 C538 0.951 . S
C552 C553 1.386 1_545 S
C552 C554 1.383 . S
C552 H568 0.951 . S
C553 C552 1.386 1_565 S
C553 C557 1.383 . S
C554 C552 1.383 . S
C554 C555 1.402 1_545 S
C554 H569 0.951 . S
C555 C554 1.402 1_565 S
C555 C556 1.375 . S
C555 C558 1.481 . S
C556 C555 1.375 . S
C556 C557 1.367 . S
C556 H570 0.951 . S
C557 C553 1.383 . S
C557 C556 1.367 . S
C557 H571 0.950 1_455 S
C558 C555 1.481 . S
C558 C559 1.297 1_565 S
C558 H572 0.950 . S
C559 C558 1.297 1_545 S
C559 C560 1.479 . S
C559 H573 0.950 . S
C560 C559 1.479 . S
C560 C561 1.375 . S
C560 C566 1.404 1_545 S
C561 C560 1.375 . S
C561 C562 1.369 . S
C561 H574 0.950 . S
C562 C561 1.369 . S
C562 C563 1.390 1_545 S
C562 H575 0.951 . S
C563 C562 1.390 1_565 S
C563 C565 1.388 . S
H564 C566 0.949 . S
C565 C563 1.388 . S
C565 C566 1.385 . S
C565 H567 0.950 . S
C566 C560 1.404 1_565 S
C566 H564 0.949 . S
C566 C565 1.385 . S
H567 C565 0.950 . S
H568 C552 0.951 . S
H569 C554 0.951 . S
H570 C556 0.951 . S
H571 C557 0.950 1_655 S
H572 C558 0.950 . S
H573 C559 0.950 . S
H574 C561 0.950 . S
H575 C562 0.951 . S
C576 C577 1.386 . S
C576 C578 1.383 . S
C576 H592 0.951 . S
C577 C576 1.386 . S
C577 C581 1.383 . S
C578 C576 1.383 . S
C578 C579 1.402 . S
C578 H593 0.951 . S
C579 C578 1.402 . S
C579 C580 1.375 . S
C579 C582 1.481 . S
C580 C579 1.375 . S
C580 C581 1.367 . S
C580 H594 0.951 . S
C581 C577 1.383 . S
C581 C580 1.367 . S
C581 H595 0.950 . S
C582 C579 1.481 . S
C582 C583 1.297 . S
C582 H596 0.950 . S
C583 C582 1.297 . S
C583 C584 1.479 . S
C583 H597 0.950 . S
C584 C583 1.479 . S
C584 C585 1.375 . S
C584 C590 1.404 . S
C585 C584 1.375 . S
C585 C586 1.369 . S
C585 H598 0.950 . S
C586 C585 1.369 . S
C586 C587 1.392 . S
C586 H599 0.951 . S
C587 C586 1.392 . S
C587 C589 1.384 . S
H588 C590 0.949 . S
C589 C587 1.384 . S
C589 C590 1.385 . S
C589 H591 0.950 . S
C590 C584 1.404 . S
C590 H588 0.949 . S
C590 C589 1.385 . S
H591 C589 0.950 . S
H592 C576 0.951 . S
H593 C578 0.951 . S
H594 C580 0.951 . S
H595 C581 0.950 . S
H596 C582 0.950 . S
H597 C583 0.950 . S
H598 C585 0.950 . S
H599 C586 0.951 . S
C600 C601 1.386 . S
C600 C602 1.383 . S
C600 H616 0.951 . S
C601 C600 1.386 . S
C601 C605 1.383 . S
C602 C600 1.383 . S
C602 C603 1.402 . S
C602 H617 0.951 . S
C603 C602 1.402 . S
C603 C604 1.375 . S
C603 C606 1.481 . S
C604 C603 1.375 . S
C604 C605 1.367 . S
C604 H618 0.951 . S
C605 C601 1.383 . S
C605 C604 1.367 . S
C605 H619 0.950 . S
C606 C603 1.481 . S
C606 C607 1.297 . S
C606 H620 0.950 . S
C607 C606 1.297 . S
C607 C608 1.479 . S
C607 H621 0.950 . S
C608 C607 1.479 . S
C608 C609 1.375 . S
C608 C614 1.404 . S
C609 C608 1.375 . S
C609 C610 1.369 . S
C609 H622 0.950 . S
C610 C609 1.369 . S
C610 C611 1.392 . S
C610 H623 0.951 . S
C611 C610 1.392 . S
C611 C613 1.384 . S
H612 C614 0.949 . S
C613 C611 1.384 . S
C613 C614 1.385 . S
C613 H615 0.950 . S
C614 C608 1.404 . S
C614 H612 0.949 . S
C614 C613 1.385 . S
H615 C613 0.950 . S
H616 C600 0.951 . S
H617 C602 0.951 . S
H618 C604 0.951 . S
H619 C605 0.950 . S
H620 C606 0.950 . S
H621 C607 0.950 . S
H622 C609 0.950 . S
H623 C610 0.951 . S
C337 C238 1.430 1_556 S
C347 C58 1.321 . S
C361 C226 1.417 1_554 S
C371 C70 1.295 . S
C385 C142 1.421 . S
C395 C322 1.297 . S
C409 C154 1.432 . S
C419 C310 1.355 . S
C433 C55 1.949 . S
C443 C67 1.946 . S
C457 C139 1.959 . S
C467 C151 1.949 . S
C481 C223 1.949 . S
C491 C235 1.949 1_554 S
C505 C319 1.950 . S
C515 C307 1.954 . S
C529 C152 1.486 1_545 S
C539 C68 1.438 . S
C553 C56 1.458 . S
C563 C140 1.448 1_565 S
C577 C320 1.482 . S
C587 C236 1.469 . S
C601 C308 1.490 . S
C611 C224 1.479 . S
