# Generated by pormake.
# Topology dft, (4)-cn, num edge types: 1
# Building blocks:
#     Node 0, Type 0, BuildingBlock: KUFVIS_clean_sbu_0, # of connection points: 4
#     Node 1, Type 0, BuildingBlock: KUFVIS_clean_sbu_0, # of connection points: 4
#     Node 2, Type 0, BuildingBlock: KUFVIS_clean_sbu_0, # of connection points: 4
#     Node 3, Type 0, BuildingBlock: KUFVIS_clean_sbu_0, # of connection points: 4
#     Node 4, Type 0, BuildingBlock: KUFVIS_clean_sbu_0, # of connection points: 4
#     Node 5, Type 0, BuildingBlock: KUFVIS_clean_sbu_0, # of connection points: 4
#     Node 6, Type 0, BuildingBlock: KUFVIS_clean_sbu_0, # of connection points: 4
#     Node 7, Type 0, BuildingBlock: KUFVIS_clean_sbu_0, # of connection points: 4
#     Edge 8, Type (0, 0), BuildingBlock: MIFKUJ_clean_linker_0, # of connection points: 2
#     Edge 9, Type (0, 0), BuildingBlock: MIFKUJ_clean_linker_0, # of connection points: 2
#     Edge 10, Type (0, 0), BuildingBlock: MIFKUJ_clean_linker_0, # of connection points: 2
#     Edge 11, Type (0, 0), BuildingBlock: MIFKUJ_clean_linker_0, # of connection points: 2
#     Edge 12, Type (0, 0), BuildingBlock: MIFKUJ_clean_linker_0, # of connection points: 2
#     Edge 13, Type (0, 0), BuildingBlock: MIFKUJ_clean_linker_0, # of connection points: 2
#     Edge 14, Type (0, 0), BuildingBlock: MIFKUJ_clean_linker_0, # of connection points: 2
#     Edge 15, Type (0, 0), BuildingBlock: MIFKUJ_clean_linker_0, # of connection points: 2
#     Edge 16, Type (0, 0), BuildingBlock: MIFKUJ_clean_linker_0, # of connection points: 2
#     Edge 17, Type (0, 0), BuildingBlock: MIFKUJ_clean_linker_0, # of connection points: 2
#     Edge 18, Type (0, 0), BuildingBlock: MIFKUJ_clean_linker_0, # of connection points: 2
#     Edge 19, Type (0, 0), BuildingBlock: MIFKUJ_clean_linker_0, # of connection points: 2
#     Edge 20, Type (0, 0), BuildingBlock: MIFKUJ_clean_linker_0, # of connection points: 2
#     Edge 21, Type (0, 0), BuildingBlock: MIFKUJ_clean_linker_0, # of connection points: 2
#     Edge 22, Type (0, 0), BuildingBlock: MIFKUJ_clean_linker_0, # of connection points: 2
#     Edge 23, Type (0, 0), BuildingBlock: MIFKUJ_clean_linker_0, # of connection points: 2
# Relax obj value: 0.171
# Max RMSD: 0.159
# Mean RMSD: 0.159
data_MOF--net-dft--node1-KUFVIS_clean_sbu_0--edge1-MIFKUJ_clean_linker_0
_symmetry_space_group_name_H-M    P1
_symmetry_Int_Tables_number       1
_symmetry_cell_setting            triclinic
loop_
_symmetry_equiv_pos_as_xyz
'x, y, z'
_cell_length_a     44.117438
_cell_length_b     44.13409
_cell_length_c     52.820593
_cell_angle_alpha  89.969193
_cell_angle_beta   89.988343
_cell_angle_gamma 89.993836
loop_
_atom_site_label
_atom_site_type_symbol
_atom_site_fract_x
_atom_site_fract_y
_atom_site_fract_z
_atom_type_partial_charge
Mn0 Mn 0.32296 0.03875 0.18421 0.0
Mn1 Mn 0.34914 0.10148 0.15465 0.0
C2 C 0.31373 0.08666 0.20052 0.0
C3 C 0.28641 0.00189 0.19309 0.0
C4 C 0.38923 0.06025 0.18526 0.0
O5 O 0.33011 0.02331 0.14832 0.0
O6 O 0.34953 0.06626 0.13144 0.0
C7 C 0.29973 0.10898 0.11719 0.0
N8 N 0.31685 0.12037 0.13641 0.0
C9 C 0.29178 0.16867 0.13368 0.0
C10 C 0.27396 0.15751 0.11378 0.0
C11 C 0.27789 0.12749 0.10557 0.0
C12 C 0.3132 0.14918 0.14451 0.0
H13 H 0.30271 0.08597 0.11074 0.0
C14 C 0.34178 0.03835 0.13007 0.0
O15 O 0.31499 0.99725 0.19732 0.0
O16 O 0.27908 0.02756 0.18273 0.0
N17 N 0.34946 0.13731 0.17494 0.0
C18 C 0.36685 0.14379 0.19554 0.0
C19 C 0.365 0.17264 0.20659 0.0
C20 C 0.34551 0.19452 0.19621 0.0
C21 C 0.32766 0.18725 0.17512 0.0
C22 C 0.33054 0.15818 0.16488 0.0
H23 H 0.382 0.12707 0.20345 0.0
O24 O 0.31433 0.06322 0.2154 0.0
O25 O 0.3197 0.08152 0.17688 0.0
O26 O 0.36882 0.04076 0.19034 0.0
O27 O 0.3841 0.08446 0.17284 0.0
C28 C 0.30699 0.2076 0.16396 0.0
C29 C 0.2889 0.19826 0.14338 0.0
H30 H 0.25706 0.1717 0.1048 0.0
H31 H 0.26416 0.11867 0.09028 0.0
H32 H 0.37871 0.17809 0.22296 0.0
H33 H 0.34446 0.21679 0.20459 0.0
H34 H 0.30468 0.23043 0.17111 0.0
H35 H 0.27272 0.21396 0.13526 0.0
Mn36 Mn 0.02983 0.331 0.68338 0.0
Mn37 Mn 0.96402 0.35524 0.65759 0.0
C38 C 0.98382 0.31989 0.70239 0.0
C39 C 0.06868 0.29588 0.68978 0.0
C40 C 0.0063 0.39635 0.68633 0.0
O41 O 0.04218 0.33983 0.64679 0.0
O42 O 0.99701 0.35655 0.63231 0.0
C43 C 0.95465 0.30552 0.62078 0.0
N44 N 0.94447 0.32243 0.6406 0.0
C45 C 0.89662 0.2963 0.64071 0.0
C46 C 0.90653 0.27866 0.62024 0.0
C47 C 0.93572 0.28323 0.6103 0.0
C48 C 0.91649 0.31814 0.65037 0.0
H49 H 0.97702 0.30902 0.61301 0.0
C50 C 0.02515 0.35045 0.6293 0.0
O51 O 0.07254 0.32455 0.69403 0.0
O52 O 0.04264 0.28769 0.68056 0.0
N53 N 0.93006 0.3547 0.68002 0.0
C54 C 0.92488 0.37207 0.70088 0.0
C55 C 0.89702 0.36967 0.71356 0.0
C56 C 0.87476 0.34968 0.70449 0.0
C57 C 0.8807 0.33189 0.68308 0.0
C58 C 0.90882 0.33531 0.67121 0.0
H59 H 0.94185 0.38768 0.70773 0.0
O60 O 0.00852 0.32081 0.71574 0.0
O61 O 0.98667 0.32629 0.67852 0.0
O62 O 0.02636 0.37631 0.69075 0.0
O63 O 0.98173 0.3908 0.67452 0.0
C64 C 0.85991 0.31081 0.67312 0.0
C65 C 0.86795 0.29283 0.65209 0.0
H66 H 0.89201 0.26143 0.61212 0.0
H67 H 0.94358 0.26965 0.59455 0.0
H68 H 0.89259 0.38336 0.73014 0.0
H69 H 0.8532 0.34825 0.71407 0.0
H70 H 0.83774 0.3081 0.68151 0.0
H71 H 0.85196 0.27633 0.64489 0.0
Mn72 Mn 0.7711 0.03286 0.18553 0.0
Mn73 Mn 0.75621 0.96116 0.16695 0.0
C74 C 0.78439 0.992 0.21066 0.0
C75 C 0.80312 0.07476 0.18856 0.0
C76 C 0.70801 0.00418 0.18652 0.0
O77 O 0.76389 0.03772 0.14747 0.0
O78 O 0.75703 0.98844 0.13722 0.0
C79 C 0.8128 0.94975 0.1383 0.0
N80 N 0.79306 0.94174 0.15697 0.0
C81 C 0.82286 0.89785 0.16754 0.0
C82 C 0.84326 0.90539 0.14818 0.0
C83 C 0.8383 0.93156 0.13361 0.0
C84 C 0.7979 0.9169 0.17139 0.0
H85 H 0.80921 0.96996 0.1272 0.0
C86 C 0.75951 0.01651 0.13133 0.0
O87 O 0.77396 0.07745 0.19106 0.0
O88 O 0.81339 0.04812 0.18272 0.0
N89 N 0.7554 0.93237 0.19407 0.0
C90 C 0.73483 0.92954 0.21317 0.0
C91 C 0.73728 0.90516 0.23015 0.0
C92 C 0.7606 0.88378 0.22715 0.0
C93 C 0.7814 0.88707 0.20726 0.0
C94 C 0.77786 0.91185 0.19097 0.0
H95 H 0.71672 0.94578 0.21543 0.0
O96 O 0.78063 0.01852 0.22078 0.0
O97 O 0.77965 0.99028 0.18655 0.0
O98 O 0.72584 0.02623 0.19103 0.0
O99 O 0.7169 0.97891 0.17733 0.0
C100 C 0.80567 0.86691 0.2031 0.0
C101 C 0.82656 0.87246 0.18342 0.0
H102 H 0.86299 0.89144 0.14453 0.0
H103 H 0.85411 0.9377 0.1188 0.0
H104 H 0.72117 0.9028 0.24548 0.0
H105 H 0.76244 0.86504 0.24031 0.0
H106 H 0.80872 0.84725 0.21511 0.0
H107 H 0.84552 0.85718 0.1808 0.0
Mn108 Mn 0.05322 0.77323 0.69045 0.0
Mn109 Mn 0.11661 0.75305 0.65852 0.0
C110 C 0.10073 0.78351 0.70696 0.0
C111 C 0.0143 0.80687 0.70072 0.0
C112 C 0.0774 0.70838 0.68693 0.0
O113 O 0.03756 0.76712 0.65441 0.0
O114 O 0.08177 0.75513 0.63509 0.0
C115 C 0.12378 0.80712 0.62584 0.0
N116 N 0.1352 0.7878 0.64355 0.0
C117 C 0.18316 0.81373 0.64356 0.0
C118 C 0.17196 0.83384 0.62525 0.0
C119 C 0.1421 0.83057 0.61642 0.0
C120 C 0.16386 0.79077 0.65221 0.0
H121 H 0.10089 0.80463 0.61895 0.0
C122 C 0.05322 0.7602 0.63489 0.0
O123 O 0.01146 0.77789 0.70399 0.0
O124 O 0.03943 0.81634 0.69063 0.0
N125 N 0.15212 0.7507 0.67914 0.0
C126 C 0.15855 0.73095 0.69823 0.0
C127 C 0.18716 0.73192 0.70982 0.0
C128 C 0.20888 0.75296 0.70151 0.0
C129 C 0.20168 0.77314 0.68191 0.0
C130 C 0.17283 0.77109 0.67106 0.0
H131 H 0.14198 0.71459 0.70452 0.0
O132 O 0.07736 0.7813 0.72181 0.0
O133 O 0.09566 0.77913 0.68303 0.0
O134 O 0.05828 0.72759 0.69514 0.0
O135 O 0.09993 0.71542 0.67302 0.0
C136 C 0.22187 0.79538 0.67284 0.0
C137 C 0.21255 0.8158 0.65382 0.0
H138 H 0.186 0.852 0.61799 0.0
H139 H 0.13326 0.84606 0.60235 0.0
H140 H 0.19255 0.71636 0.72502 0.0
H141 H 0.23096 0.75342 0.71033 0.0
H142 H 0.24455 0.7971 0.68041 0.0
H143 H 0.22811 0.83314 0.64735 0.0
Mn144 Mn 0.31706 0.05372 0.81133 0.0
Mn145 Mn 0.33918 0.98584 0.83456 0.0
C146 C 0.3058 0.00924 0.79037 0.0
C147 C 0.28185 0.09262 0.80561 0.0
C148 C 0.38217 0.02905 0.80872 0.0
O149 O 0.32467 0.0635 0.84855 0.0
O150 O 0.3407 0.0172 0.86136 0.0
C151 C 0.2878 0.97581 0.86969 0.0
N152 N 0.3049 0.96645 0.8497 0.0
C153 C 0.27523 0.921 0.84526 0.0
C154 C 0.25739 0.9301 0.86588 0.0
C155 C 0.26367 0.95765 0.8781 0.0
C156 C 0.299 0.94001 0.83776 0.0
H157 H 0.29249 0.99698 0.87913 0.0
C158 C 0.33474 0.0452 0.86535 0.0
O159 O 0.31064 0.09705 0.80217 0.0
O160 O 0.27375 0.06615 0.8139 0.0
N161 N 0.33817 0.95347 0.81045 0.0
C162 C 0.35656 0.9487 0.79012 0.0
C163 C 0.35278 0.92243 0.77546 0.0
C164 C 0.3303 0.90126 0.78196 0.0
C165 C 0.3118 0.90655 0.80309 0.0
C166 C 0.31672 0.93306 0.81705 0.0
H167 H 0.37388 0.9649 0.78505 0.0
O168 O 0.30753 0.03449 0.77785 0.0
O169 O 0.31179 0.01072 0.81431 0.0
O170 O 0.36274 0.05 0.80509 0.0
O171 O 0.37567 0.00369 0.819 0.0
C172 C 0.28842 0.88675 0.81065 0.0
C173 C 0.27006 0.89405 0.83164 0.0
H174 H 0.23869 0.91622 0.87237 0.0
H175 H 0.24994 0.96489 0.89397 0.0
H176 H 0.36712 0.91853 0.75916 0.0
H177 H 0.32733 0.88112 0.77051 0.0
H178 H 0.28415 0.86601 0.80029 0.0
H179 H 0.25187 0.87887 0.83703 0.0
Mn180 Mn 0.05344 0.31378 0.30803 0.0
Mn181 Mn 0.12401 0.32574 0.33037 0.0
C182 C 0.09546 0.30027 0.28431 0.0
C183 C 0.01111 0.28272 0.30297 0.0
C184 C 0.08273 0.37594 0.3113 0.0
O185 O 0.04671 0.32023 0.34611 0.0
O186 O 0.09563 0.32143 0.35914 0.0
C187 C 0.13494 0.26617 0.35457 0.0
N188 N 0.14348 0.28809 0.33789 0.0
C189 C 0.18816 0.26007 0.32625 0.0
C190 C 0.18014 0.23749 0.34369 0.0
C191 C 0.15328 0.24045 0.35777 0.0
C192 C 0.16891 0.28514 0.32384 0.0
H193 H 0.11412 0.26817 0.36512 0.0
C194 C 0.06704 0.32086 0.36344 0.0
O195 O 0.00913 0.31196 0.30072 0.0
O196 O 0.03721 0.27182 0.30971 0.0
N197 N 0.15356 0.32966 0.304 0.0
C198 C 0.15652 0.35198 0.28635 0.0
C199 C 0.18138 0.35151 0.26973 0.0
C200 C 0.20309 0.32832 0.27162 0.0
C201 C 0.1996 0.30565 0.28998 0.0
C202 C 0.1743 0.30721 0.30593 0.0
H203 H 0.14006 0.37 0.28496 0.0
O204 O 0.0696 0.30463 0.2732 0.0
O205 O 0.09572 0.30436 0.30852 0.0
O206 O 0.06156 0.35883 0.3033 0.0
O207 O 0.10628 0.36607 0.32275 0.0
C208 C 0.22005 0.28137 0.29291 0.0
C209 C 0.21416 0.2584 0.31082 0.0
H210 H 0.1942 0.21758 0.34615 0.0
H211 H 0.14671 0.22291 0.371 0.0
H212 H 0.18388 0.36906 0.25556 0.0
H213 H 0.22221 0.32802 0.25875 0.0
H214 H 0.24016 0.27988 0.28121 0.0
H215 H 0.22961 0.23942 0.31239 0.0
Mn216 Mn 0.76374 0.05258 0.81099 0.0
Mn217 Mn 0.745 0.12323 0.82991 0.0
C218 C 0.77873 0.09458 0.78803 0.0
C219 C 0.79722 0.01171 0.80908 0.0
C220 C 0.70049 0.08056 0.80501 0.0
O221 O 0.75309 0.04604 0.84822 0.0
O222 O 0.74106 0.09428 0.85834 0.0
C223 C 0.79597 0.13319 0.86542 0.0
N224 N 0.77983 0.14195 0.84468 0.0
C225 C 0.8113 0.18595 0.83897 0.0
C226 C 0.82818 0.17747 0.86032 0.0
C227 C 0.82054 0.15092 0.87354 0.0
C228 C 0.78716 0.1673 0.8317 0.0
H229 H 0.79014 0.11284 0.87567 0.0
C230 C 0.74434 0.06624 0.86401 0.0
O231 O 0.7685 0.00831 0.80446 0.0
O232 O 0.80601 0.03836 0.81635 0.0
N233 N 0.74837 0.15357 0.80414 0.0
C234 C 0.73068 0.15782 0.7833 0.0
C235 C 0.73569 0.18315 0.76775 0.0
C236 C 0.75858 0.204 0.77394 0.0
C237 C 0.77639 0.19924 0.79556 0.0
C238 C 0.77035 0.17359 0.81034 0.0
H239 H 0.7129 0.14198 0.77859 0.0
O240 O 0.77635 0.06846 0.77696 0.0
O241 O 0.77148 0.09535 0.81176 0.0
O242 O 0.71879 0.05838 0.80259 0.0
O243 O 0.70805 0.10604 0.81456 0.0
C244 C 0.8 0.21883 0.80298 0.0
C245 C 0.81763 0.21204 0.82452 0.0
H246 H 0.84714 0.1911 0.86667 0.0
H247 H 0.83352 0.14417 0.88999 0.0
H248 H 0.72188 0.18666 0.75108 0.0
H249 H 0.76236 0.22352 0.7619 0.0
H250 H 0.80499 0.23906 0.79214 0.0
H251 H 0.83605 0.227 0.82977 0.0
Mn252 Mn 0.0366 0.75885 0.3164 0.0
Mn253 Mn 0.97399 0.73602 0.34803 0.0
C254 C 0.9886 0.76855 0.30051 0.0
C255 C 0.07407 0.7942 0.30605 0.0
C256 C 0.01385 0.69308 0.31865 0.0
O257 O 0.05275 0.75275 0.35229 0.0
O258 O 0.00943 0.73667 0.37089 0.0
C259 C 0.96767 0.78804 0.38302 0.0
N260 N 0.95581 0.76985 0.3647 0.0
C261 C 0.90802 0.79602 0.36635 0.0
C262 C 0.91967 0.81497 0.38529 0.0
C263 C 0.94966 0.81101 0.3936 0.0
C264 C 0.92701 0.77348 0.35654 0.0
H265 H 0.99068 0.78503 0.38952 0.0
C266 C 0.03769 0.74319 0.37138 0.0
O267 O 0.07804 0.76539 0.3025 0.0
O268 O 0.04876 0.80244 0.31654 0.0
N269 N 0.93797 0.73489 0.32795 0.0
C270 C 0.93105 0.71627 0.30823 0.0
C271 C 0.90223 0.71807 0.29706 0.0
C272 C 0.88082 0.73877 0.30646 0.0
C273 C 0.88852 0.75778 0.32671 0.0
C274 C 0.91756 0.75494 0.33708 0.0
H275 H 0.94743 0.7002 0.30109 0.0
O276 O 0.01171 0.76681 0.28534 0.0
O277 O 0.99414 0.7635 0.32424 0.0
O278 O 0.03309 0.71287 0.31155 0.0
O279 O 0.99044 0.69948 0.33174 0.0
C280 C 0.86865 0.77958 0.33691 0.0
C281 C 0.87845 0.79884 0.35658 0.0
H282 H 0.90587 0.83276 0.39345 0.0
H283 H 0.95886 0.82561 0.40815 0.0
H284 H 0.89647 0.70344 0.28136 0.0
H285 H 0.85858 0.73988 0.29794 0.0
H286 H 0.84583 0.78185 0.32974 0.0
H287 H 0.86312 0.81587 0.36393 0.0
H288 H 0.29416 0.02054 0.1018 0.0
H289 H 0.29342 0.01985 0.05558 0.0
H290 H 0.39096 0.02825 0.05444 0.0
H291 H 0.39131 0.03076 0.10069 0.0
H292 H 0.36879 0.07077 0.02815 0.0
H293 H 0.3503 0.96423 0.03025 0.0
H294 H 0.32532 0.91669 0.04314 0.0
H295 H 0.241 0.94844 0.01241 0.0
H296 H 0.26537 0.99638 -0.00036 0.0
H297 H 0.38494 0.04459 0.89448 0.0
H298 H 0.38593 0.04464 0.94085 0.0
H299 H 0.29 0.06344 0.94227 0.0
H300 H 0.28919 0.06422 0.89574 0.0
H301 H 0.31007 0.00806 0.96773 0.0
H302 H 0.33156 0.11474 0.96488 0.0
H303 H 0.35908 0.16046 0.95102 0.0
H304 H 0.44163 0.12495 0.98223 0.0
H305 H 0.4147 0.0788 0.99596 0.0
C306 C 0.3155 0.02069 0.09163 0.0
C307 C 0.34282 0.02531 0.10462 0.0
C308 C 0.3151 0.02048 0.06517 0.0
C309 C 0.34216 0.02414 0.0514 0.0
C310 C 0.36978 0.02566 0.06459 0.0
C311 C 0.37007 0.02661 0.09099 0.0
C312 C 0.34134 0.03059 0.02378 0.0
C313 C 0.35638 0.05664 0.01493 0.0
C314 C 0.32437 0.01284 0.00654 0.0
C315 C 0.30962 0.98403 0.0142 0.0
C316 C 0.32637 0.96119 0.02643 0.0
C317 C 0.31233 0.93415 0.03368 0.0
C318 C 0.28157 0.92958 0.02866 0.0
C319 C 0.26481 0.95203 0.01632 0.0
C320 C 0.27874 0.97912 0.00904 0.0
C321 C 0.36442 0.05014 0.90476 0.0
C322 C 0.33711 0.05496 0.89176 0.0
C323 C 0.36493 0.04991 0.93117 0.0
C324 C 0.338 0.05388 0.94487 0.0
C325 C 0.31099 0.06041 0.93193 0.0
C326 C 0.31061 0.06126 0.90546 0.0
C327 C 0.3377 0.04786 0.97239 0.0
C328 C 0.32245 0.02199 0.98113 0.0
C329 C 0.3549 0.06542 0.98946 0.0
C330 C 0.37115 0.09317 0.98124 0.0
C331 C 0.35564 0.11655 0.96858 0.0
C332 C 0.37112 0.14257 0.96079 0.0
C333 C 0.4021 0.14557 0.96568 0.0
C334 C 0.41764 0.12258 0.97843 0.0
C335 C 0.40227 0.0965 0.98624 0.0
H336 H 0.41404 0.16574 0.95965 0.0
H337 H 0.27075 0.90863 0.03429 0.0
H338 H 0.06866 0.31639 0.60549 0.0
H339 H 0.07759 0.31413 0.55965 0.0
H340 H 0.01561 0.38859 0.54855 0.0
H341 H 0.00656 0.39085 0.59402 0.0
H342 H -2e-05 0.33983 0.52057 0.0
H343 H 0.09016 0.39757 0.53718 0.0
H344 H 0.13882 0.40885 0.55812 0.0
H345 H 0.17611 0.32553 0.53001 0.0
H346 H 0.12752 0.31355 0.50918 0.0
H347 H 0.02275 0.35488 0.38617 0.0
H348 H 0.01585 0.36214 0.43195 0.0
H349 H 0.08473 0.29486 0.44657 0.0
H350 H 0.09242 0.28864 0.40134 0.0
H351 H 0.09666 0.34238 0.47281 0.0
H352 H 0.007 0.28284 0.45801 0.0
H353 H 0.95837 0.26986 0.43772 0.0
H354 H 0.92012 0.35404 0.46302 0.0
H355 H 0.96868 0.3677 0.4832 0.0
C356 C 0.05777 0.33288 0.59332 0.0
C357 C 0.03675 0.35361 0.60324 0.0
C358 C 0.06274 0.33149 0.56715 0.0
C359 C 0.04698 0.35103 0.55072 0.0
C360 C 0.02773 0.37313 0.56087 0.0
C361 C 0.0227 0.37445 0.58686 0.0
C362 C 0.04826 0.3468 0.52293 0.0
C363 C 0.02107 0.34081 0.51002 0.0
C364 C 0.07583 0.34732 0.50938 0.0
C365 C 0.1051 0.35454 0.52182 0.0
C366 C 0.10866 0.38153 0.53564 0.0
C367 C 0.13624 0.38808 0.54745 0.0
C368 C 0.16052 0.36788 0.54545 0.0
C369 C 0.15728 0.34113 0.53157 0.0
C370 C 0.12973 0.33447 0.51973 0.0
C371 C 0.03582 0.34122 0.39926 0.0
C372 C 0.0581 0.32122 0.39029 0.0
C373 C 0.03196 0.34539 0.42537 0.0
C374 C 0.04989 0.32909 0.44275 0.0
C375 C 0.07089 0.30794 0.43361 0.0
C376 C 0.07511 0.30423 0.40771 0.0
C377 C 0.04837 0.33507 0.47037 0.0
C378 C 0.07552 0.34145 0.48329 0.0
C379 C 0.02078 0.33462 0.48398 0.0
C380 C 0.99157 0.32644 0.47187 0.0
C381 C 0.98829 0.29869 0.45907 0.0
C382 C 0.96073 0.29119 0.44763 0.0
C383 C 0.9362 0.31115 0.44902 0.0
C384 C 0.93916 0.33863 0.46192 0.0
C385 C 0.96669 0.34625 0.47338 0.0
H386 H 0.91488 0.3053 0.44015 0.0
H387 H 0.18185 0.37299 0.55461 0.0
H388 H 0.76275 0.01481 0.88923 0.0
H389 H 0.76093 0.00608 0.93509 0.0
H390 H 0.7137 0.09078 0.9452 0.0
H391 H 0.71527 0.09966 0.8998 0.0
H392 H 0.76394 0.08644 0.97516 0.0
H393 H 0.67685 0.02602 0.95414 0.0
H394 H 0.64902 0.98591 0.93147 0.0
H395 H 0.70972 0.91882 0.96144 0.0
H396 H 0.73819 0.9586 0.98403 0.0
H397 H 0.74054 0.06946 0.10878 0.0
H398 H 0.73386 0.07857 0.06324 0.0
H399 H 0.76845 0.98908 0.04728 0.0
H400 H 0.77374 0.97946 0.09225 0.0
H401 H 0.72129 0.99756 0.02021 0.0
H402 H 0.81075 0.05667 0.03842 0.0
H403 H 0.84061 0.09597 0.06031 0.0
H404 H 0.77832 0.16427 0.03488 0.0
H405 H 0.74787 0.1253 0.01309 0.0
C406 C 0.75145 0.03124 0.90118 0.0
C407 C 0.73948 0.05807 0.89087 0.0
C408 C 0.75046 0.02626 0.92735 0.0
C409 C 0.73734 0.04793 0.94348 0.0
C410 C 0.72414 0.07394 0.93309 0.0
C411 C 0.72508 0.07891 0.90708 0.0
C412 C 0.73907 0.04468 0.97131 0.0
C413 C 0.75427 0.06721 0.98511 0.0
C414 C 0.72699 0.01931 0.98408 0.0
C415 C 0.70982 0.99534 0.97059 0.0
C416 C 0.68442 0.00275 0.95573 0.0
C417 C 0.6685 0.98006 0.94293 0.0
C418 C 0.67764 0.94984 0.94496 0.0
C419 C 0.70268 0.94224 0.95986 0.0
C420 C 0.7187 0.96485 0.97269 0.0
C421 C 0.74689 0.05191 0.09547 0.0
C422 C 0.75761 0.02377 0.10409 0.0
C423 C 0.74313 0.05711 0.06948 0.0
C424 C 0.75078 0.03451 0.05178 0.0
C425 C 0.76213 0.00676 0.06049 0.0
C426 C 0.7653 0.00137 0.08628 0.0
C427 C 0.74664 0.03911 0.02416 0.0
C428 C 0.73091 0.01687 0.01035 0.0
C429 C 0.75856 0.06459 0.01132 0.0
C430 C 0.77686 0.08803 0.02438 0.0
C431 C 0.8033 0.08004 0.03766 0.0
C432 C 0.82035 0.10226 0.05002 0.0
C433 C 0.81132 0.13258 0.04905 0.0
C434 C 0.78526 0.14077 0.03565 0.0
C435 C 0.76811 0.11863 0.02329 0.0
H436 H 0.82455 0.14975 0.05863 0.0
H437 H 0.66528 0.93231 0.93503 0.0
H438 H 0.06351 0.79 0.39656 0.0
H439 H 0.06732 0.79364 0.44272 0.0
H440 H 0.04462 0.6988 0.44923 0.0
H441 H 0.03978 0.69556 0.40323 0.0
H442 H 0.00625 0.73128 0.47508 0.0
H443 H 0.11443 0.7279 0.46827 0.0
H444 H 0.16489 0.74286 0.45258 0.0
H445 H 0.1518 0.83272 0.48172 0.0
H446 H 0.10105 0.81841 0.4973 0.0
H447 H 0.03675 0.7114 0.60739 0.0
H448 H 0.03192 0.71043 0.56117 0.0
H449 H 0.03824 0.80795 0.55925 0.0
H450 H 0.04239 0.80889 0.60557 0.0
H451 H 0.08366 0.77708 0.53129 0.0
H452 H 0.97576 0.77866 0.53954 0.0
H453 H 0.926 0.76231 0.55579 0.0
H454 H 0.93985 0.67367 0.52438 0.0
H455 H 0.98993 0.68935 0.50825 0.0
C456 C 0.06086 0.76966 0.40785 0.0
C457 C 0.05163 0.74245 0.39653 0.0
C458 C 0.06278 0.77177 0.43423 0.0
C459 C 0.05597 0.74653 0.44947 0.0
C460 C 0.0497 0.71861 0.43788 0.0
C461 C 0.04734 0.71665 0.41162 0.0
C462 C 0.05139 0.74998 0.47714 0.0
C463 C 0.02342 0.74085 0.48741 0.0
C464 C 0.07329 0.76348 0.49309 0.0
C465 C 0.10379 0.77217 0.48372 0.0
C466 C 0.12219 0.75093 0.47113 0.0
C467 C 0.15087 0.75928 0.4623 0.0
C468 C 0.16151 0.78875 0.46608 0.0
C469 C 0.14351 0.80991 0.47877 0.0
C470 C 0.11479 0.80169 0.48763 0.0
C471 C 0.03544 0.73263 0.59713 0.0
C472 C 0.03921 0.76024 0.60984 0.0
C473 C 0.03301 0.73208 0.57078 0.0
C474 C 0.0349 0.75913 0.55687 0.0
C475 C 0.03668 0.78689 0.56971 0.0
C476 C 0.03862 0.78744 0.5961 0.0
C477 C 0.0388 0.75796 0.52909 0.0
C478 C 0.06656 0.76757 0.51884 0.0
C479 C 0.01685 0.74466 0.51318 0.0
C480 C 0.98675 0.73511 0.52289 0.0
C481 C 0.96834 0.75559 0.5363 0.0
C482 C 0.94003 0.74646 0.54544 0.0
C483 C 0.9298 0.71695 0.54117 0.0
C484 C 0.94783 0.69652 0.5277 0.0
C485 C 0.97616 0.70553 0.51853 0.0
H486 H 0.90788 0.70993 0.54826 0.0
H487 H 0.18373 0.79516 0.45924 0.0
H488 H 0.43453 0.10093 0.1939 0.0
H489 H 0.48833 0.09021 0.19983 0.0
H490 H 0.46981 0.99425 0.19735 0.0
H491 H 0.41566 0.00487 0.19246 0.0
H492 H 0.51428 0.00478 0.22962 0.0
H493 H 0.4928 0.0335 0.1441 0.0
H494 H 0.47223 0.0658 0.11009 0.0
H495 H 0.53052 0.13863 0.13319 0.0
H496 H 0.55112 0.10688 0.1676 0.0
H497 H 0.66274 0.96147 0.18569 0.0
H498 H 0.60823 0.96995 0.19067 0.0
H499 H 0.62442 0.06517 0.20288 0.0
H500 H 0.67878 0.05707 0.19793 0.0
H501 H 0.58126 0.05381 0.16618 0.0
H502 H 0.60403 0.02176 0.25136 0.0
H503 H 0.62454 0.987 0.28365 0.0
H504 H 0.56406 0.917 0.25848 0.0
H505 H 0.54348 0.95123 0.22578 0.0
C506 C 0.44185 0.07754 0.19504 0.0
C507 C 0.42094 0.05374 0.19242 0.0
C508 C 0.47262 0.07143 0.19832 0.0
C509 C 0.48322 0.04142 0.19833 0.0
C510 C 0.46219 0.01758 0.19724 0.0
C511 C 0.43125 0.02368 0.19443 0.0
C512 C 0.51627 0.03508 0.19764 0.0
C513 C 0.52888 0.01526 0.21559 0.0
C514 C 0.5354 0.04885 0.17941 0.0
C515 C 0.5233 0.0679 0.15857 0.0
C516 C 0.50109 0.05646 0.14202 0.0
C517 C 0.48944 0.07467 0.12267 0.0
C518 C 0.50002 0.10427 0.11952 0.0
C519 C 0.52233 0.1157 0.13568 0.0
C520 C 0.53402 0.09761 0.1551 0.0
C521 C 0.65475 0.98419 0.18963 0.0
C522 C 0.67519 0.00861 0.19128 0.0
C523 C 0.6236 0.98894 0.1926 0.0
C524 C 0.61236 0.01817 0.19721 0.0
C525 C 0.63268 0.04245 0.19933 0.0
C526 C 0.66378 0.03771 0.19655 0.0
C527 C 0.5793 0.02389 0.19834 0.0
C528 C 0.56667 0.04346 0.18029 0.0
C529 C 0.56021 0.0095 0.21619 0.0
C530 C 0.57242 0.98897 0.23595 0.0
C531 C 0.59528 0.99888 0.25257 0.0
C532 C 0.60688 0.97929 0.27097 0.0
C533 C 0.59567 0.94978 0.27307 0.0
C534 C 0.57276 0.93984 0.25681 0.0
C535 C 0.56109 0.95934 0.23835 0.0
H536 H 0.60468 0.93465 0.28733 0.0
H537 H 0.49096 0.11834 0.10453 0.0
H538 H 0.04926 0.41674 0.71972 0.0
H539 H 0.06179 0.46936 0.72974 0.0
H540 H 0.99107 0.49989 0.67935 0.0
H541 H 0.97772 0.44761 0.67005 0.0
H542 H 0.08349 0.51075 0.7018 0.0
H543 H 0.96318 0.56653 0.6947 0.0
H544 H 0.91061 0.55439 0.70689 0.0
H545 H 0.94313 0.49293 0.76377 0.0
H546 H 0.99589 0.50502 0.7522 0.0
H547 H 0.09431 0.65953 0.65896 0.0
H548 H 0.08374 0.60634 0.66753 0.0
H549 H 0.04035 0.63093 0.73788 0.0
H550 H 0.04944 0.68451 0.72859 0.0
H551 H 0.0078 0.59178 0.71717 0.0
H552 H 0.11253 0.59429 0.73488 0.0
H553 H 0.1666 0.60615 0.72848 0.0
H554 H 0.16812 0.5504 0.6619 0.0
H555 H 0.11393 0.53855 0.66766 0.0
C556 C 0.03609 0.43468 0.71108 0.0
C557 C 0.01248 0.42796 0.69408 0.0
C558 C 0.04331 0.46475 0.71679 0.0
C559 C 0.0272 0.48865 0.70552 0.0
C560 C 0.00337 0.48192 0.68882 0.0
C561 C 0.99586 0.45194 0.68338 0.0
C562 C 0.03656 0.52061 0.70957 0.0
C563 C 0.067 0.52845 0.70542 0.0
C564 C 0.01529 0.54367 0.71518 0.0
C565 C 0.98354 0.53657 0.72245 0.0
C566 C 0.95914 0.55057 0.70991 0.0
C567 C 0.9293 0.54365 0.71669 0.0
C568 C 0.92354 0.52285 0.73605 0.0
C569 C 0.94762 0.50897 0.74873 0.0
C570 C 0.9775 0.51582 0.74204 0.0
C571 C 0.08277 0.65357 0.67637 0.0
C572 C 0.07273 0.67612 0.69313 0.0
C573 C 0.07691 0.6231 0.68137 0.0
C574 C 0.06176 0.61444 0.70364 0.0
C575 C 0.05211 0.63697 0.7206 0.0
C576 C 0.05734 0.66757 0.7153 0.0
C577 C 0.05449 0.58202 0.70828 0.0
C578 C 0.02444 0.57408 0.71405 0.0
C579 C 0.07637 0.55882 0.70514 0.0
C580 C 0.10908 0.56565 0.70166 0.0
C581 C 0.12434 0.58469 0.71879 0.0
C582 C 0.15502 0.5914 0.71528 0.0
C583 C 0.17077 0.57906 0.69478 0.0
C584 C 0.15589 0.55993 0.67778 0.0
C585 C 0.1252 0.55317 0.68118 0.0
H586 H 0.19452 0.5843 0.69209 0.0
H587 H 0.90042 0.51751 0.74126 0.0
H588 H 0.65732 0.12404 0.79717 0.0
H589 H 0.60305 0.11647 0.79086 0.0
H590 H 0.61622 0.01962 0.79139 0.0
H591 H 0.6707 0.02696 0.79703 0.0
H592 H 0.57314 0.03464 0.7581 0.0
H593 H 0.59524 0.05716 0.845 0.0
H594 H 0.61683 0.08669 0.88027 0.0
H595 H 0.56178 0.16307 0.85966 0.0
H596 H 0.54018 0.1341 0.82401 0.0
H597 H 0.42838 0.98787 0.80488 0.0
H598 H 0.48202 0.99823 0.79731 0.0
H599 H 0.46235 0.0935 0.78962 0.0
H600 H 0.40861 0.08344 0.79715 0.0
H601 H 0.50801 0.08127 0.82404 0.0
H602 H 0.48239 0.05452 0.73871 0.0
H603 H 0.46074 0.02234 0.70514 0.0
H604 H 0.52199 0.95056 0.72501 0.0
H605 H 0.54373 0.98215 0.75897 0.0
C606 C 0.64876 0.10111 0.79562 0.0
C607 C 0.66831 0.07609 0.79797 0.0
C608 C 0.61771 0.09683 0.79205 0.0
C609 C 0.6055 0.06747 0.79122 0.0
C610 C 0.62513 0.04247 0.79208 0.0
C611 C 0.65629 0.04673 0.79537 0.0
C612 C 0.57219 0.06284 0.79137 0.0
C613 C 0.5589 0.04465 0.7726 0.0
C614 C 0.55356 0.07618 0.81015 0.0
C615 C 0.56634 0.09358 0.83168 0.0
C616 C 0.5879 0.08033 0.84788 0.0
C617 C 0.60012 0.09695 0.86795 0.0
C618 C 0.59074 0.12677 0.87216 0.0
C619 C 0.56906 0.13999 0.85634 0.0
C620 C 0.55681 0.12348 0.83621 0.0
C621 C 0.43536 0.01101 0.80131 0.0
C622 C 0.41418 0.03486 0.80176 0.0
C623 C 0.46602 0.01685 0.79684 0.0
C624 C 0.4761 0.04661 0.79281 0.0
C625 C 0.45497 0.07037 0.79264 0.0
C626 C 0.42426 0.06454 0.79689 0.0
C627 C 0.50892 0.05317 0.79075 0.0
C628 C 0.52216 0.07158 0.80932 0.0
C629 C 0.52745 0.03964 0.77203 0.0
C630 C 0.51452 0.02063 0.75154 0.0
C631 C 0.49108 0.03179 0.73607 0.0
C632 C 0.47882 0.01367 0.71694 0.0
C633 C 0.48993 0.9844 0.71298 0.0
C634 C 0.51339 0.97323 0.72811 0.0
C635 C 0.52571 0.99124 0.74729 0.0
H636 H 0.48041 0.97041 0.69816 0.0
H637 H 0.60023 0.1396 0.88771 0.0
H638 H 0.106 0.42121 0.34067 0.0
H639 H 0.0955 0.47548 0.3375 0.0
H640 H 0.04223 0.45966 0.27025 0.0
H641 H 0.05142 0.40526 0.27411 0.0
H642 H 0.10525 0.51922 0.30678 0.0
H643 H 0.98352 0.50759 0.26699 0.0
H644 H 0.94128 0.47092 0.26724 0.0
H645 H 0.97315 0.43412 0.33765 0.0
H646 H 0.01532 0.47081 0.33796 0.0
H647 H 0.05321 0.669 0.28367 0.0
H648 H 0.06556 0.61544 0.27733 0.0
H649 H 0.00169 0.59083 0.33574 0.0
H650 H 0.98837 0.64383 0.34137 0.0
H651 H 0.99781 0.55167 0.30097 0.0
H652 H 0.08107 0.59676 0.34589 0.0
H653 H 0.12258 0.63326 0.35283 0.0
H654 H 0.16639 0.6028 0.28484 0.0
H655 H 0.1249 0.56637 0.27734 0.0
C656 C 0.09223 0.42936 0.32511 0.0
C657 C 0.07917 0.40898 0.30785 0.0
C658 C 0.0863 0.4604 0.32327 0.0
C659 C 0.06756 0.47168 0.30392 0.0
C660 C 0.05604 0.45148 0.28576 0.0
C661 C 0.0614 0.4204 0.28792 0.0
C662 C 0.05892 0.50426 0.30354 0.0
C663 C 0.08176 0.52631 0.3054 0.0
C664 C 0.02824 0.51363 0.30218 0.0
C665 C 0.00275 0.4917 0.30232 0.0
C666 C 0.98144 0.49172 0.28255 0.0
C667 C 0.95752 0.47094 0.28259 0.0
C668 C 0.9546 0.45014 0.3024 0.0
C669 C 0.9755 0.45017 0.32227 0.0
C670 C 0.99943 0.47093 0.32233 0.0
C671 C 0.04159 0.65211 0.29496 0.0
C672 C 0.0199 0.66074 0.3131 0.0
C673 C 0.04879 0.62151 0.29142 0.0
C674 C 0.03496 0.59905 0.30637 0.0
C675 C 0.01268 0.60763 0.32393 0.0
C676 C 0.00511 0.63806 0.32716 0.0
C677 C 0.04409 0.56668 0.30449 0.0
C678 C 0.02134 0.54464 0.30209 0.0
C679 C 0.07473 0.55731 0.3064 0.0
C680 C 0.09973 0.5791 0.31091 0.0
C681 C 0.09946 0.598 0.33234 0.0
C682 C 0.12299 0.61865 0.33638 0.0
C683 C 0.14706 0.62041 0.31925 0.0
C684 C 0.14769 0.60145 0.29807 0.0
C685 C 0.12419 0.5808 0.29391 0.0
H686 H 0.16526 0.63641 0.32242 0.0
H687 H 0.93609 0.43404 0.30238 0.0
H688 H 0.12748 0.31014 0.24052 0.0
H689 H 0.16678 0.27661 0.22252 0.0
H690 H 0.15283 0.21357 0.28398 0.0
H691 H 0.11372 0.24639 0.3014 0.0
H692 H 0.2199 0.25803 0.24321 0.0
H693 H 0.16101 0.14261 0.26472 0.0
H694 H 0.10926 0.12142 0.26512 0.0
H695 H 0.08044 0.18908 0.21189 0.0
H696 H 0.13201 0.21044 0.21092 0.0
H697 H 0.31533 0.11654 0.24607 0.0
H698 H 0.28161 0.15789 0.2595 0.0
H699 H 0.24078 0.15916 0.18536 0.0
H700 H 0.27169 0.11602 0.17305 0.0
H701 H 0.20204 0.14854 0.22881 0.0
H702 H 0.26333 0.25555 0.2017 0.0
H703 H 0.31179 0.28333 0.20455 0.0
H704 H 0.33397 0.23533 0.27281 0.0
H705 H 0.28519 0.20824 0.27078 0.0
C706 C 0.13285 0.28897 0.24988 0.0
C707 C 0.11832 0.2809 0.27249 0.0
C708 C 0.15519 0.26996 0.23973 0.0
C709 C 0.16244 0.24251 0.25183 0.0
C710 C 0.14726 0.23436 0.2741 0.0
C711 C 0.12519 0.25324 0.28418 0.0
C712 C 0.18661 0.2225 0.24209 0.0
C713 C 0.21606 0.23406 0.24014 0.0
C714 C 0.18139 0.19133 0.23779 0.0
C715 C 0.15037 0.17826 0.23791 0.0
C716 C 0.14366 0.15286 0.25299 0.0
C717 C 0.11433 0.14086 0.25335 0.0
C718 C 0.09153 0.15396 0.2386 0.0
C719 C 0.09805 0.17903 0.2234 0.0
C720 C 0.12732 0.19112 0.22297 0.0
C721 C 0.29958 0.12623 0.23259 0.0
C722 C 0.29704 0.11409 0.20813 0.0
C723 C 0.28076 0.15022 0.24008 0.0
C724 C 0.2597 0.16264 0.22301 0.0
C725 C 0.25757 0.15064 0.19855 0.0
C726 C 0.27548 0.12616 0.19143 0.0
C727 C 0.23576 0.18373 0.23147 0.0
C728 C 0.20605 0.17237 0.23258 0.0
C729 C 0.24083 0.21499 0.23543 0.0
C730 C 0.27135 0.22876 0.23538 0.0
C731 C 0.27883 0.25059 0.21706 0.0
C732 C 0.30613 0.26655 0.21873 0.0
C733 C 0.32607 0.26094 0.23875 0.0
C734 C 0.3187 0.23939 0.25714 0.0
C735 C 0.29129 0.22359 0.25565 0.0
H736 H 0.34719 0.27332 0.24004 0.0
H737 H 0.06883 0.14467 0.23892 0.0
H738 H 0.95213 0.27763 0.677 0.0
H739 H 0.9112 0.24575 0.69261 0.0
H740 H 0.92025 0.28608 0.76653 0.0
H741 H 0.9591 0.3208 0.74995 0.0
H742 H 0.92996 0.20875 0.74035 0.0
H743 H 0.86901 0.29045 0.77556 0.0
H744 H 0.83919 0.33751 0.77788 0.0
H745 H 0.7847 0.30794 0.71526 0.0
H746 H 0.815 0.2611 0.71206 0.0
H747 H 0.82857 0.11703 0.80994 0.0
H748 H 0.86159 0.15724 0.79434 0.0
H749 H 0.80768 0.16392 0.72637 0.0
H750 H 0.77426 0.12328 0.7422 0.0
H751 H 0.81875 0.21954 0.74993 0.0
H752 H 0.87555 0.1338 0.72203 0.0
H753 H 0.90047 0.08411 0.72631 0.0
H754 H 0.96001 0.12023 0.78302 0.0
H755 H 0.9352 0.17014 0.77931 0.0
C756 C 0.94397 0.28118 0.69609 0.0
C757 C 0.95745 0.30289 0.71185 0.0
C758 C 0.92082 0.2627 0.70509 0.0
C759 C 0.91175 0.26441 0.73044 0.0
C760 C 0.92567 0.28555 0.74656 0.0
C761 C 0.94818 0.30498 0.73721 0.0
C762 C 0.89237 0.23994 0.74041 0.0
C763 C 0.90571 0.21125 0.74314 0.0
C764 C 0.86069 0.24312 0.74325 0.0
C765 C 0.84514 0.27284 0.7429 0.0
C766 C 0.85154 0.29452 0.76161 0.0
C767 C 0.83422 0.32097 0.76335 0.0
C768 C 0.81008 0.32576 0.7467 0.0
C769 C 0.80342 0.30424 0.72813 0.0
C770 C 0.82079 0.27783 0.72626 0.0
C771 C 0.82384 0.12707 0.79163 0.0
C772 C 0.79865 0.11783 0.77742 0.0
C773 C 0.84282 0.14979 0.78267 0.0
C774 C 0.83712 0.16336 0.75918 0.0
C775 C 0.81236 0.15359 0.74456 0.0
C776 C 0.79341 0.13052 0.7535 0.0
C777 C 0.85642 0.18871 0.75075 0.0
C778 C 0.84306 0.21725 0.74775 0.0
C779 C 0.88815 0.18557 0.74841 0.0
C780 C 0.90334 0.15566 0.75053 0.0
C781 C 0.89381 0.13111 0.73555 0.0
C782 C 0.90794 0.10289 0.73785 0.0
C783 C 0.93174 0.09896 0.75498 0.0
C784 C 0.94155 0.12329 0.76978 0.0
C785 C 0.92749 0.15157 0.76755 0.0
H786 H 0.94262 0.07707 0.75673 0.0
H787 H 0.79658 0.34616 0.74817 0.0
H788 H 0.96126 0.81287 0.32689 0.0
H789 H 0.91943 0.84512 0.31379 0.0
H790 H 0.91791 0.80068 0.24115 0.0
H791 H 0.9578 0.76575 0.25548 0.0
H792 H 0.93226 0.88056 0.26778 0.0
H793 H 0.86687 0.7987 0.2315 0.0
H794 H 0.83749 0.75123 0.2325 0.0
H795 H 0.79205 0.78089 0.29997 0.0
H796 H 0.82211 0.82809 0.29981 0.0
H797 H 0.83666 0.96976 0.19316 0.0
H798 H 0.86806 0.93018 0.2117 0.0
H799 H 0.80726 0.92459 0.27561 0.0
H800 H 0.77518 0.96436 0.25655 0.0
H801 H 0.82133 0.86891 0.25654 0.0
H802 H 0.87598 0.95603 0.28302 0.0
H803 H 0.90077 0.00579 0.2784 0.0
H804 H 0.9641 0.96785 0.22544 0.0
H805 H 0.9394 0.91794 0.22944 0.0
C806 C 0.95065 0.80859 0.30877 0.0
C807 C 0.96154 0.78571 0.29275 0.0
C808 C 0.92695 0.82727 0.30119 0.0
C809 C 0.91463 0.82454 0.27687 0.0
C810 C 0.92581 0.80208 0.26049 0.0
C811 C 0.94896 0.78253 0.26849 0.0
C812 C 0.89486 0.84916 0.26762 0.0
C813 C 0.90807 0.87789 0.26475 0.0
C814 C 0.86323 0.84584 0.26455 0.0
C815 C 0.84771 0.81625 0.26627 0.0
C816 C 0.85153 0.79455 0.2471 0.0
C817 C 0.83446 0.76787 0.24732 0.0
C818 C 0.81302 0.76295 0.26636 0.0
C819 C 0.80875 0.78465 0.28528 0.0
C820 C 0.82595 0.81126 0.28523 0.0
C821 C 0.83003 0.96007 0.21119 0.0
C822 C 0.80331 0.96934 0.22326 0.0
C823 C 0.84811 0.93773 0.22188 0.0
C824 C 0.84011 0.92467 0.24512 0.0
C825 C 0.81377 0.93449 0.25765 0.0
C826 C 0.79559 0.95711 0.24689 0.0
C827 C 0.85894 0.8999 0.25542 0.0
C828 C 0.84559 0.87143 0.25904 0.0
C829 C 0.89056 0.90332 0.25868 0.0
C830 C 0.9057 0.93326 0.25641 0.0
C831 C 0.89507 0.95833 0.27026 0.0
C832 C 0.90912 0.98656 0.26777 0.0
C833 C 0.93396 0.98999 0.25161 0.0
C834 C 0.94485 0.96516 0.23795 0.0
C835 C 0.93086 0.93688 0.24035 0.0
H836 H 0.94481 0.01187 0.2497 0.0
H837 H 0.79969 0.74237 0.26643 0.0
H838 H 0.12925 0.82873 0.68262 0.0
H839 H 0.17143 0.85938 0.69745 0.0
H840 H 0.17055 0.8111 0.76843 0.0
H841 H 0.13051 0.77764 0.75218 0.0
H842 H 0.15776 0.89239 0.7443 0.0
H843 H 0.22103 0.80876 0.7793 0.0
H844 H 0.24939 0.76069 0.77775 0.0
H845 H 0.29746 0.79167 0.71196 0.0
H846 H 0.26843 0.8395 0.71263 0.0
H847 H 0.25671 0.986 0.81282 0.0
H848 H 0.22562 0.94361 0.79878 0.0
H849 H 0.28059 0.93504 0.73155 0.0
H850 H 0.3124 0.97768 0.746 0.0
H851 H 0.26862 0.8795 0.75544 0.0
H852 H 0.21302 0.96647 0.72677 0.0
H853 H 0.18881 0.01653 0.73132 0.0
H854 H 0.12866 0.98067 0.78779 0.0
H855 H 0.15283 0.93048 0.78386 0.0
C856 C 0.13947 0.82324 0.70067 0.0
C857 C 0.12792 0.79971 0.71565 0.0
C858 C 0.16335 0.841 0.70927 0.0
C859 C 0.17507 0.83676 0.73366 0.0
C860 C 0.16317 0.81365 0.74903 0.0
C861 C 0.13991 0.79496 0.73994 0.0
C862 C 0.19488 0.86064 0.74406 0.0
C863 C 0.18194 0.88943 0.74725 0.0
C864 C 0.22645 0.85688 0.74733 0.0
C865 C 0.24161 0.82711 0.74537 0.0
C866 C 0.23676 0.80483 0.76393 0.0
C867 C 0.25324 0.77778 0.7634 0.0
C868 C 0.27512 0.77305 0.7447 0.0
C869 C 0.28043 0.7953 0.7264 0.0
C870 C 0.26382 0.82229 0.72675 0.0
C871 C 0.26222 0.97497 0.79508 0.0
C872 C 0.28721 0.98437 0.78068 0.0
C873 C 0.24437 0.95094 0.78703 0.0
C874 C 0.2508 0.93633 0.76413 0.0
C875 C 0.27544 0.94607 0.74935 0.0
C876 C 0.2934 0.97036 0.75745 0.0
C877 C 0.23139 0.91101 0.75586 0.0
C878 C 0.24439 0.88227 0.75285 0.0
C879 C 0.19976 0.91469 0.75302 0.0
C880 C 0.18491 0.94477 0.75516 0.0
C881 C 0.19477 0.9693 0.74028 0.0
C882 C 0.18104 0.9977 0.74273 0.0
C883 C 0.15726 0.0018 0.75987 0.0
C884 C 0.1471 0.97747 0.77453 0.0
C885 C 0.16078 0.94904 0.77218 0.0
H886 H 0.14667 0.02381 0.76175 0.0
H887 H 0.28799 0.75217 0.7444 0.0
H888 H 0.85878 0.01681 0.8081 0.0
H889 H 0.89513 0.9805 0.79088 0.0
H890 H 0.82293 0.91652 0.77805 0.0
H891 H 0.78618 0.95294 0.79505 0.0
H892 H 0.87883 0.89063 0.79767 0.0
H893 H 0.84318 0.95537 0.7302 0.0
H894 H 0.83216 0.0047 0.71028 0.0
H895 H 0.92609 0.02936 0.71568 0.0
H896 H 0.9376 0.98028 0.73596 0.0
H897 H 0.95572 0.79389 0.71314 0.0
H898 H 0.91825 0.82778 0.73205 0.0
H899 H 0.98278 0.90121 0.72948 0.0
H900 H 0.01993 0.86763 0.70955 0.0
H901 H 0.93004 0.92231 0.71826 0.0
H902 H 0.96709 0.85918 0.78517 0.0
H903 H 0.97961 0.81119 0.8067 0.0
H904 H 0.88591 0.78498 0.80483 0.0
H905 H 0.87288 0.83266 0.78298 0.0
C906 C 0.85063 0.99481 0.80208 0.0
C907 C 0.81954 0.9878 0.80282 0.0
C908 C 0.87146 0.97415 0.79214 0.0
C909 C 0.86164 0.94601 0.78292 0.0
C910 C 0.83091 0.93817 0.78502 0.0
C911 C 0.80997 0.95899 0.79473 0.0
C912 C 0.88317 0.9257 0.76964 0.0
C913 C 0.88978 0.8973 0.78014 0.0
C914 C 0.898 0.93486 0.74714 0.0
C915 C 0.89119 0.96427 0.73479 0.0
C916 C 0.86144 0.97141 0.72732 0.0
C917 C 0.85512 0.99929 0.71592 0.0
C918 C 0.8784 0.02015 0.71174 0.0
C919 C 0.90808 0.01317 0.71893 0.0
C920 C 0.91452 0.98531 0.73035 0.0
C921 C 0.96181 0.81734 0.71638 0.0
C922 C 0.99081 0.82808 0.70997 0.0
C923 C 0.94045 0.83666 0.72739 0.0
C924 C 0.94787 0.86693 0.73283 0.0
C925 C 0.97651 0.87794 0.72563 0.0
C926 C 0.99773 0.85873 0.71421 0.0
C927 C 0.92596 0.88697 0.74626 0.0
C928 C 0.91922 0.91545 0.73579 0.0
C929 C 0.91133 0.87801 0.769 0.0
C930 C 0.91907 0.84936 0.78222 0.0
C931 C 0.94919 0.84309 0.78919 0.0
C932 C 0.95637 0.81596 0.80147 0.0
C933 C 0.93358 0.79501 0.80707 0.0
C934 C 0.90354 0.8012 0.80046 0.0
C935 C 0.89624 0.82829 0.78814 0.0
H936 H 0.93918 0.77402 0.81658 0.0
H937 H 0.87345 0.04169 0.70285 0.0
H938 H 0.2954 0.94377 0.20908 0.0
H939 H 0.25799 0.90906 0.22715 0.0
H940 H 0.18781 0.97565 0.21556 0.0
H941 H 0.22516 0.01052 0.19726 0.0
H942 H 0.18839 0.95106 0.26466 0.0
H943 H 0.18899 0.91567 0.17866 0.0
H944 H 0.21259 0.89736 0.13922 0.0
H945 H 0.24892 0.82051 0.1788 0.0
H946 H 0.22588 0.83859 0.21859 0.0
H947 H 0.06513 0.85455 0.29733 0.0
H948 H 0.1002 0.89027 0.27754 0.0
H949 H 0.16857 0.82041 0.27397 0.0
H950 H 0.13302 0.78429 0.29269 0.0
H951 H 0.16792 0.84795 0.23152 0.0
H952 H 0.17029 0.88275 0.31747 0.0
H953 H 0.14906 0.9007 0.35797 0.0
H954 H 0.11024 0.97778 0.3204 0.0
H955 H 0.13092 0.96008 0.2796 0.0
C956 C 0.27195 0.95091 0.21008 0.0
C957 C 0.26323 0.97987 0.20169 0.0
C958 C 0.25058 0.93103 0.2204 0.0
C959 C 0.2201 0.93974 0.22266 0.0
C960 C 0.21122 0.96849 0.214 0.0
C961 C 0.23255 0.9883 0.20341 0.0
C962 C 0.1978 0.91917 0.23488 0.0
C963 C 0.1835 0.92867 0.25724 0.0
C964 C 0.19219 0.88965 0.22559 0.0
C965 C 0.20592 0.87864 0.20166 0.0
C966 C 0.20221 0.895 0.17901 0.0
C967 C 0.21545 0.88463 0.15657 0.0
C968 C 0.2323 0.85783 0.15652 0.0
C969 C 0.23588 0.84128 0.17888 0.0
C970 C 0.22271 0.85156 0.20137 0.0
C971 C 0.08777 0.84692 0.29261 0.0
C972 C 0.09635 0.81663 0.29664 0.0
C973 C 0.10789 0.86741 0.28134 0.0
C974 C 0.1373 0.85825 0.27445 0.0
C975 C 0.14605 0.82811 0.279 0.0
C976 C 0.12575 0.80749 0.28985 0.0
C977 C 0.15853 0.87963 0.2616 0.0
C978 C 0.17267 0.87032 0.23904 0.0
C979 C 0.16431 0.90919 0.27092 0.0
C980 C 0.1519 0.91992 0.29544 0.0
C981 C 0.15704 0.90341 0.31781 0.0
C982 C 0.14514 0.91356 0.34083 0.0
C983 C 0.12824 0.94032 0.34174 0.0
C984 C 0.12329 0.95703 0.31965 0.0
C985 C 0.13512 0.94697 0.29658 0.0
H986 H 0.11905 0.94814 0.35958 0.0
H987 H 0.24254 0.84984 0.13913 0.0
H988 H 0.12787 0.30649 0.70178 0.0
H989 H 0.16404 0.27097 0.72053 0.0
H990 H 0.09758 0.19955 0.716 0.0
H991 H 0.06129 0.23494 0.69693 0.0
H992 H 0.12412 0.20609 0.76438 0.0
H993 H 0.15548 0.19644 0.67778 0.0
H994 H 0.17196 0.2149 0.63592 0.0
H995 H 0.25075 0.25539 0.66954 0.0
H996 H 0.2345 0.23754 0.71168 0.0
H997 H 0.22085 0.08453 0.80023 0.0
H998 H 0.18465 0.11903 0.78052 0.0
H999 H 0.25498 0.18626 0.77216 0.0
H1000 H 0.2916 0.15133 0.79111 0.0
H1001 H 0.22573 0.18155 0.72982 0.0
H1002 H 0.19512 0.1931 0.81615 0.0
H1003 H 0.17904 0.17647 0.85865 0.0
H1004 H 0.09966 0.13501 0.82688 0.0
H1005 H 0.11547 0.15104 0.78412 0.0
C1006 C 0.12111 0.2831 0.70437 0.0
C1007 C 0.09174 0.2735 0.69784 0.0
C1008 C 0.14181 0.26283 0.71509 0.0
C1009 C 0.13348 0.23263 0.71968 0.0
C1010 C 0.10443 0.22278 0.71263 0.0
C1011 C 0.08382 0.24296 0.70158 0.0
C1012 C 0.15465 0.21186 0.73296 0.0
C1013 C 0.14617 0.2003 0.75669 0.0
C1014 C 0.18376 0.20516 0.72326 0.0
C1015 C 0.1936 0.2159 0.69793 0.0
C1016 C 0.17618 0.20951 0.67629 0.0
C1017 C 0.18551 0.21982 0.6525 0.0
C1018 C 0.21234 0.23638 0.65008 0.0
C1019 C 0.22995 0.2426 0.67145 0.0
C1020 C 0.2207 0.23237 0.69528 0.0
C1021 C 0.22852 0.10687 0.79462 0.0
C1022 C 0.25911 0.11523 0.7973 0.0
C1023 C 0.20773 0.12664 0.78336 0.0
C1024 C 0.21694 0.15543 0.77496 0.0
C1025 C 0.2473 0.16417 0.77839 0.0
C1026 C 0.26819 0.14425 0.78939 0.0
C1027 C 0.19535 0.17575 0.76143 0.0
C1028 C 0.20371 0.18727 0.73761 0.0
C1029 C 0.16624 0.18267 0.7712 0.0
C1030 C 0.15663 0.17303 0.7969 0.0
C1031 C 0.17435 0.18023 0.8182 0.0
C1032 C 0.16527 0.17095 0.84234 0.0
C1033 C 0.13839 0.15463 0.84546 0.0
C1034 C 0.1205 0.14762 0.82444 0.0
C1035 C 0.12949 0.15683 0.80024 0.0
H1036 H 0.13139 0.14746 0.86417 0.0
H1037 H 0.21954 0.24433 0.63165 0.0
H1038 H 0.01316 0.2214 0.29719 0.0
H1039 H 0.97531 0.18905 0.27702 0.0
H1040 H 0.91517 0.26551 0.26941 0.0
H1041 H 0.95317 0.29829 0.28941 0.0
H1042 H 0.88639 0.20884 0.28475 0.0
H1043 H 0.95237 0.24872 0.22011 0.0
H1044 H 0.00208 0.26028 0.20108 0.0
H1045 H 0.02408 0.16551 0.19997 0.0
H1046 H 0.97459 0.15341 0.21929 0.0
H1047 H 0.7889 0.13392 0.19887 0.0
H1048 H 0.82238 0.17263 0.21673 0.0
H1049 H 0.89737 0.10995 0.21358 0.0
H1050 H 0.86437 0.07169 0.19491 0.0
H1051 H 0.91715 0.1635 0.20267 0.0
H1052 H 0.85443 0.12261 0.26886 0.0
H1053 H 0.80636 0.10911 0.28987 0.0
H1054 H 0.77991 0.20275 0.29053 0.0
H1055 H 0.8277 0.21675 0.26921 0.0
C1056 C 0.99169 0.2313 0.29167 0.0
C1057 C 0.98623 0.26247 0.29479 0.0
C1058 C 0.97014 0.21278 0.28004 0.0
C1059 C 0.94265 0.225 0.27145 0.0
C1060 C 0.93632 0.25571 0.27585 0.0
C1061 C 0.95804 0.27438 0.28728 0.0
C1062 C 0.92146 0.20598 0.25656 0.0
C1063 C 0.89283 0.19928 0.2666 0.0
C1064 C 0.93024 0.19305 0.23319 0.0
C1065 C 0.95987 0.20019 0.2213 0.0
C1066 C 0.96788 0.23036 0.21596 0.0
C1067 C 0.996 0.23701 0.20509 0.0
C1068 C 0.01623 0.21365 0.19933 0.0
C1069 C 0.00837 0.18358 0.20442 0.0
C1070 C 0.98028 0.17681 0.2153 0.0
C1071 C 0.81266 0.12861 0.20155 0.0
C1072 C 0.82394 0.09968 0.19561 0.0
C1073 C 0.83173 0.15067 0.21197 0.0
C1074 C 0.86228 0.14401 0.21712 0.0
C1075 C 0.87388 0.11565 0.20993 0.0
C1076 C 0.85495 0.09375 0.19922 0.0
C1077 C 0.88195 0.16589 0.23092 0.0
C1078 C 0.91042 0.17317 0.2207 0.0
C1079 C 0.87315 0.17902 0.25432 0.0
C1080 C 0.84447 0.17068 0.26719 0.0
C1081 C 0.83826 0.14029 0.27332 0.0
C1082 C 0.81108 0.13255 0.28531 0.0
C1083 C 0.79005 0.15505 0.29146 0.0
C1084 C 0.7962 0.18534 0.2857 0.0
C1085 C 0.82333 0.1932 0.27369 0.0
H1086 H 0.76902 0.14902 0.30074 0.0
H1087 H 0.03795 0.21886 0.19087 0.0
loop_
_geom_bond_atom_site_label_1
_geom_bond_atom_site_label_2
_geom_bond_distance
_geom_bond_site_symmetry_2
_ccdc_geom_bond_type
Mn0 O5 2.095 . S
Mn0 O15 2.162 . S
Mn0 O16 2.297 . S
Mn0 O24 2.385 . S
Mn0 O25 2.209 . S
Mn0 O26 2.094 . S
Mn1 O6 2.121 . S
Mn1 N8 2.257 . S
Mn1 N17 2.282 . S
Mn1 O25 2.215 . S
Mn1 O27 2.117 . S
C2 O24 1.234 . S
C2 O25 1.283 . S
C3 O15 1.281 . S
C3 O16 1.236 . S
C4 O26 1.240 . S
C4 O27 1.264 . S
O5 Mn0 2.095 . S
O5 C14 1.250 . S
O6 Mn1 2.121 . S
O6 C14 1.258 . S
C7 N8 1.326 . S
C7 C11 1.460 . S
C7 H13 0.929 . S
N8 Mn1 2.257 . S
N8 C7 1.326 . S
N8 C12 1.362 . S
C9 C10 1.258 . S
C9 C12 1.431 . S
C9 C29 1.449 . S
C10 C9 1.258 . S
C10 C11 1.477 . S
C10 H30 0.931 . S
C11 C7 1.460 . S
C11 C10 1.477 . S
C11 H31 0.930 . S
C12 N8 1.362 . S
C12 C9 1.431 . S
C12 C22 1.476 . S
H13 C7 0.929 . S
C14 O5 1.250 . S
C14 O6 1.258 . S
O15 Mn0 2.162 . S
O15 C3 1.281 . S
O16 Mn0 2.297 . S
O16 C3 1.236 . S
N17 Mn1 2.282 . S
N17 C18 1.328 . S
N17 C22 1.318 . S
C18 N17 1.328 . S
C18 C19 1.457 . S
C18 H23 0.929 . S
C19 C18 1.457 . S
C19 C20 1.291 . S
C19 H32 0.931 . S
C20 C19 1.291 . S
C20 C21 1.373 . S
C20 H33 0.929 . S
C21 C20 1.373 . S
C21 C22 1.396 . S
C21 C28 1.403 . S
C22 C12 1.476 . S
C22 N17 1.318 . S
C22 C21 1.396 . S
H23 C18 0.929 . S
O24 Mn0 2.385 . S
O24 C2 1.234 . S
O25 Mn0 2.209 . S
O25 Mn1 2.215 . S
O25 C2 1.283 . S
O26 Mn0 2.094 . S
O26 C4 1.240 . S
O27 Mn1 2.117 . S
O27 C4 1.264 . S
C28 C21 1.403 . S
C28 C29 1.399 . S
C28 H34 0.929 . S
C29 C9 1.449 . S
C29 C28 1.399 . S
C29 H35 0.930 . S
H30 C10 0.931 . S
H31 C11 0.930 . S
H32 C19 0.931 . S
H33 C20 0.929 . S
H34 C28 0.929 . S
H35 C29 0.930 . S
Mn36 O41 2.095 . S
Mn36 O51 2.162 . S
Mn36 O52 2.297 . S
Mn36 O60 2.385 . S
Mn36 O61 2.209 1_455 S
Mn36 O62 2.094 . S
Mn37 O42 2.121 1_655 S
Mn37 N44 2.257 . S
Mn37 N53 2.282 . S
Mn37 O61 2.215 . S
Mn37 O63 2.117 . S
C38 O60 1.234 1_655 S
C38 O61 1.283 . S
C39 O51 1.281 . S
C39 O52 1.236 . S
C40 O62 1.240 . S
C40 O63 1.264 1_455 S
O41 Mn36 2.095 . S
O41 C50 1.250 . S
O42 Mn37 2.121 1_455 S
O42 C50 1.258 . S
C43 N44 1.326 . S
C43 C47 1.460 . S
C43 H49 0.929 . S
N44 Mn37 2.257 . S
N44 C43 1.326 . S
N44 C48 1.362 . S
C45 C46 1.258 . S
C45 C48 1.431 . S
C45 C65 1.449 . S
C46 C45 1.258 . S
C46 C47 1.477 . S
C46 H66 0.931 . S
C47 C43 1.460 . S
C47 C46 1.477 . S
C47 H67 0.930 . S
C48 N44 1.362 . S
C48 C45 1.431 . S
C48 C58 1.476 . S
H49 C43 0.929 . S
C50 O41 1.250 . S
C50 O42 1.258 . S
O51 Mn36 2.162 . S
O51 C39 1.281 . S
O52 Mn36 2.297 . S
O52 C39 1.236 . S
N53 Mn37 2.282 . S
N53 C54 1.328 . S
N53 C58 1.318 . S
C54 N53 1.328 . S
C54 C55 1.457 . S
C54 H59 0.929 . S
C55 C54 1.457 . S
C55 C56 1.291 . S
C55 H68 0.931 . S
C56 C55 1.291 . S
C56 C57 1.373 . S
C56 H69 0.929 . S
C57 C56 1.373 . S
C57 C58 1.396 . S
C57 C64 1.403 . S
C58 C48 1.476 . S
C58 N53 1.318 . S
C58 C57 1.396 . S
H59 C54 0.929 . S
O60 Mn36 2.385 . S
O60 C38 1.234 1_455 S
O61 Mn36 2.209 1_655 S
O61 Mn37 2.215 . S
O61 C38 1.283 . S
O62 Mn36 2.094 . S
O62 C40 1.240 . S
O63 Mn37 2.117 . S
O63 C40 1.264 1_655 S
C64 C57 1.403 . S
C64 C65 1.399 . S
C64 H70 0.929 . S
C65 C45 1.449 . S
C65 C64 1.399 . S
C65 H71 0.930 . S
H66 C46 0.931 . S
H67 C47 0.930 . S
H68 C55 0.931 . S
H69 C56 0.929 . S
H70 C64 0.929 . S
H71 C65 0.930 . S
Mn72 O77 2.095 . S
Mn72 O87 2.162 . S
Mn72 O88 2.297 . S
Mn72 O96 2.385 . S
Mn72 O97 2.209 1_545 S
Mn72 O98 2.094 . S
Mn73 O78 2.121 1_565 S
Mn73 N80 2.257 . S
Mn73 N89 2.282 . S
Mn73 O97 2.215 . S
Mn73 O99 2.117 . S
C74 O96 1.234 1_565 S
C74 O97 1.283 . S
C75 O87 1.281 . S
C75 O88 1.236 . S
C76 O98 1.240 . S
C76 O99 1.264 1_545 S
O77 Mn72 2.095 . S
O77 C86 1.250 . S
O78 Mn73 2.121 1_545 S
O78 C86 1.258 . S
C79 N80 1.326 . S
C79 C83 1.460 . S
C79 H85 0.929 . S
N80 Mn73 2.257 . S
N80 C79 1.326 . S
N80 C84 1.362 . S
C81 C82 1.258 . S
C81 C84 1.431 . S
C81 C101 1.449 . S
C82 C81 1.258 . S
C82 C83 1.477 . S
C82 H102 0.931 . S
C83 C79 1.460 . S
C83 C82 1.477 . S
C83 H103 0.930 . S
C84 N80 1.362 . S
C84 C81 1.431 . S
C84 C94 1.476 . S
H85 C79 0.929 . S
C86 O77 1.250 . S
C86 O78 1.258 . S
O87 Mn72 2.162 . S
O87 C75 1.281 . S
O88 Mn72 2.297 . S
O88 C75 1.236 . S
N89 Mn73 2.282 . S
N89 C90 1.328 . S
N89 C94 1.318 . S
C90 N89 1.328 . S
C90 C91 1.457 . S
C90 H95 0.929 . S
C91 C90 1.457 . S
C91 C92 1.291 . S
C91 H104 0.931 . S
C92 C91 1.291 . S
C92 C93 1.373 . S
C92 H105 0.929 . S
C93 C92 1.373 . S
C93 C94 1.396 . S
C93 C100 1.403 . S
C94 C84 1.476 . S
C94 N89 1.318 . S
C94 C93 1.396 . S
H95 C90 0.929 . S
O96 Mn72 2.385 . S
O96 C74 1.234 1_545 S
O97 Mn72 2.209 1_565 S
O97 Mn73 2.215 . S
O97 C74 1.283 . S
O98 Mn72 2.094 . S
O98 C76 1.240 . S
O99 Mn73 2.117 . S
O99 C76 1.264 1_565 S
C100 C93 1.403 . S
C100 C101 1.399 . S
C100 H106 0.929 . S
C101 C81 1.449 . S
C101 C100 1.399 . S
C101 H107 0.930 . S
H102 C82 0.931 . S
H103 C83 0.930 . S
H104 C91 0.931 . S
H105 C92 0.929 . S
H106 C100 0.929 . S
H107 C101 0.930 . S
Mn108 O113 2.095 . S
Mn108 O123 2.162 . S
Mn108 O124 2.297 . S
Mn108 O132 2.385 . S
Mn108 O133 2.209 . S
Mn108 O134 2.094 . S
Mn109 O114 2.121 . S
Mn109 N116 2.257 . S
Mn109 N125 2.282 . S
Mn109 O133 2.215 . S
Mn109 O135 2.117 . S
C110 O132 1.234 . S
C110 O133 1.283 . S
C111 O123 1.281 . S
C111 O124 1.236 . S
C112 O134 1.240 . S
C112 O135 1.264 . S
O113 Mn108 2.095 . S
O113 C122 1.250 . S
O114 Mn109 2.121 . S
O114 C122 1.258 . S
C115 N116 1.326 . S
C115 C119 1.460 . S
C115 H121 0.929 . S
N116 Mn109 2.257 . S
N116 C115 1.326 . S
N116 C120 1.362 . S
C117 C118 1.258 . S
C117 C120 1.431 . S
C117 C137 1.449 . S
C118 C117 1.258 . S
C118 C119 1.477 . S
C118 H138 0.931 . S
C119 C115 1.460 . S
C119 C118 1.477 . S
C119 H139 0.930 . S
C120 N116 1.362 . S
C120 C117 1.431 . S
C120 C130 1.476 . S
H121 C115 0.929 . S
C122 O113 1.250 . S
C122 O114 1.258 . S
O123 Mn108 2.162 . S
O123 C111 1.281 . S
O124 Mn108 2.297 . S
O124 C111 1.236 . S
N125 Mn109 2.282 . S
N125 C126 1.328 . S
N125 C130 1.318 . S
C126 N125 1.328 . S
C126 C127 1.457 . S
C126 H131 0.929 . S
C127 C126 1.457 . S
C127 C128 1.291 . S
C127 H140 0.931 . S
C128 C127 1.291 . S
C128 C129 1.373 . S
C128 H141 0.929 . S
C129 C128 1.373 . S
C129 C130 1.396 . S
C129 C136 1.403 . S
C130 C120 1.476 . S
C130 N125 1.318 . S
C130 C129 1.396 . S
H131 C126 0.929 . S
O132 Mn108 2.385 . S
O132 C110 1.234 . S
O133 Mn108 2.209 . S
O133 Mn109 2.215 . S
O133 C110 1.283 . S
O134 Mn108 2.094 . S
O134 C112 1.240 . S
O135 Mn109 2.117 . S
O135 C112 1.264 . S
C136 C129 1.403 . S
C136 C137 1.399 . S
C136 H142 0.929 . S
C137 C117 1.449 . S
C137 C136 1.399 . S
C137 H143 0.930 . S
H138 C118 0.931 . S
H139 C119 0.930 . S
H140 C127 0.931 . S
H141 C128 0.929 . S
H142 C136 0.929 . S
H143 C137 0.930 . S
Mn144 O149 2.095 . S
Mn144 O159 2.162 . S
Mn144 O160 2.297 . S
Mn144 O168 2.385 . S
Mn144 O169 2.209 1_545 S
Mn144 O170 2.094 . S
Mn145 O150 2.121 1_565 S
Mn145 N152 2.257 . S
Mn145 N161 2.282 . S
Mn145 O169 2.215 . S
Mn145 O171 2.117 . S
C146 O168 1.234 1_565 S
C146 O169 1.283 . S
C147 O159 1.281 . S
C147 O160 1.236 . S
C148 O170 1.240 . S
C148 O171 1.264 1_545 S
O149 Mn144 2.095 . S
O149 C158 1.250 . S
O150 Mn145 2.121 1_545 S
O150 C158 1.258 . S
C151 N152 1.326 . S
C151 C155 1.460 . S
C151 H157 0.929 . S
N152 Mn145 2.257 . S
N152 C151 1.326 . S
N152 C156 1.362 . S
C153 C154 1.258 . S
C153 C156 1.431 . S
C153 C173 1.449 . S
C154 C153 1.258 . S
C154 C155 1.477 . S
C154 H174 0.931 . S
C155 C151 1.460 . S
C155 C154 1.477 . S
C155 H175 0.930 . S
C156 N152 1.362 . S
C156 C153 1.431 . S
C156 C166 1.476 . S
H157 C151 0.929 . S
C158 O149 1.250 . S
C158 O150 1.258 . S
O159 Mn144 2.162 . S
O159 C147 1.281 . S
O160 Mn144 2.297 . S
O160 C147 1.236 . S
N161 Mn145 2.282 . S
N161 C162 1.328 . S
N161 C166 1.318 . S
C162 N161 1.328 . S
C162 C163 1.457 . S
C162 H167 0.929 . S
C163 C162 1.457 . S
C163 C164 1.291 . S
C163 H176 0.931 . S
C164 C163 1.291 . S
C164 C165 1.373 . S
C164 H177 0.929 . S
C165 C164 1.373 . S
C165 C166 1.396 . S
C165 C172 1.403 . S
C166 C156 1.476 . S
C166 N161 1.318 . S
C166 C165 1.396 . S
H167 C162 0.929 . S
O168 Mn144 2.385 . S
O168 C146 1.234 1_545 S
O169 Mn144 2.209 1_565 S
O169 Mn145 2.215 . S
O169 C146 1.283 . S
O170 Mn144 2.094 . S
O170 C148 1.240 . S
O171 Mn145 2.117 . S
O171 C148 1.264 1_565 S
C172 C165 1.403 . S
C172 C173 1.399 . S
C172 H178 0.929 . S
C173 C153 1.449 . S
C173 C172 1.399 . S
C173 H179 0.930 . S
H174 C154 0.931 . S
H175 C155 0.930 . S
H176 C163 0.931 . S
H177 C164 0.929 . S
H178 C172 0.929 . S
H179 C173 0.930 . S
Mn180 O185 2.095 . S
Mn180 O195 2.162 . S
Mn180 O196 2.297 . S
Mn180 O204 2.385 . S
Mn180 O205 2.209 . S
Mn180 O206 2.094 . S
Mn181 O186 2.121 . S
Mn181 N188 2.257 . S
Mn181 N197 2.282 . S
Mn181 O205 2.215 . S
Mn181 O207 2.117 . S
C182 O204 1.234 . S
C182 O205 1.283 . S
C183 O195 1.281 . S
C183 O196 1.236 . S
C184 O206 1.240 . S
C184 O207 1.264 . S
O185 Mn180 2.095 . S
O185 C194 1.250 . S
O186 Mn181 2.121 . S
O186 C194 1.258 . S
C187 N188 1.326 . S
C187 C191 1.460 . S
C187 H193 0.929 . S
N188 Mn181 2.257 . S
N188 C187 1.326 . S
N188 C192 1.362 . S
C189 C190 1.258 . S
C189 C192 1.431 . S
C189 C209 1.449 . S
C190 C189 1.258 . S
C190 C191 1.477 . S
C190 H210 0.931 . S
C191 C187 1.460 . S
C191 C190 1.477 . S
C191 H211 0.930 . S
C192 N188 1.362 . S
C192 C189 1.431 . S
C192 C202 1.476 . S
H193 C187 0.929 . S
C194 O185 1.250 . S
C194 O186 1.258 . S
O195 Mn180 2.162 . S
O195 C183 1.281 . S
O196 Mn180 2.297 . S
O196 C183 1.236 . S
N197 Mn181 2.282 . S
N197 C198 1.328 . S
N197 C202 1.318 . S
C198 N197 1.328 . S
C198 C199 1.457 . S
C198 H203 0.929 . S
C199 C198 1.457 . S
C199 C200 1.291 . S
C199 H212 0.931 . S
C200 C199 1.291 . S
C200 C201 1.373 . S
C200 H213 0.929 . S
C201 C200 1.373 . S
C201 C202 1.396 . S
C201 C208 1.403 . S
C202 C192 1.476 . S
C202 N197 1.318 . S
C202 C201 1.396 . S
H203 C198 0.929 . S
O204 Mn180 2.385 . S
O204 C182 1.234 . S
O205 Mn180 2.209 . S
O205 Mn181 2.215 . S
O205 C182 1.283 . S
O206 Mn180 2.094 . S
O206 C184 1.240 . S
O207 Mn181 2.117 . S
O207 C184 1.264 . S
C208 C201 1.403 . S
C208 C209 1.399 . S
C208 H214 0.929 . S
C209 C189 1.449 . S
C209 C208 1.399 . S
C209 H215 0.930 . S
H210 C190 0.931 . S
H211 C191 0.930 . S
H212 C199 0.931 . S
H213 C200 0.929 . S
H214 C208 0.929 . S
H215 C209 0.930 . S
Mn216 O221 2.095 . S
Mn216 O231 2.162 . S
Mn216 O232 2.297 . S
Mn216 O240 2.385 . S
Mn216 O241 2.209 . S
Mn216 O242 2.094 . S
Mn217 O222 2.121 . S
Mn217 N224 2.257 . S
Mn217 N233 2.282 . S
Mn217 O241 2.215 . S
Mn217 O243 2.117 . S
C218 O240 1.234 . S
C218 O241 1.283 . S
C219 O231 1.281 . S
C219 O232 1.236 . S
C220 O242 1.240 . S
C220 O243 1.264 . S
O221 Mn216 2.095 . S
O221 C230 1.250 . S
O222 Mn217 2.121 . S
O222 C230 1.258 . S
C223 N224 1.326 . S
C223 C227 1.460 . S
C223 H229 0.929 . S
N224 Mn217 2.257 . S
N224 C223 1.326 . S
N224 C228 1.362 . S
C225 C226 1.258 . S
C225 C228 1.431 . S
C225 C245 1.449 . S
C226 C225 1.258 . S
C226 C227 1.477 . S
C226 H246 0.931 . S
C227 C223 1.460 . S
C227 C226 1.477 . S
C227 H247 0.930 . S
C228 N224 1.362 . S
C228 C225 1.431 . S
C228 C238 1.476 . S
H229 C223 0.929 . S
C230 O221 1.250 . S
C230 O222 1.258 . S
O231 Mn216 2.162 . S
O231 C219 1.281 . S
O232 Mn216 2.297 . S
O232 C219 1.236 . S
N233 Mn217 2.282 . S
N233 C234 1.328 . S
N233 C238 1.318 . S
C234 N233 1.328 . S
C234 C235 1.457 . S
C234 H239 0.929 . S
C235 C234 1.457 . S
C235 C236 1.291 . S
C235 H248 0.931 . S
C236 C235 1.291 . S
C236 C237 1.373 . S
C236 H249 0.929 . S
C237 C236 1.373 . S
C237 C238 1.396 . S
C237 C244 1.403 . S
C238 C228 1.476 . S
C238 N233 1.318 . S
C238 C237 1.396 . S
H239 C234 0.929 . S
O240 Mn216 2.385 . S
O240 C218 1.234 . S
O241 Mn216 2.209 . S
O241 Mn217 2.215 . S
O241 C218 1.283 . S
O242 Mn216 2.094 . S
O242 C220 1.240 . S
O243 Mn217 2.117 . S
O243 C220 1.264 . S
C244 C237 1.403 . S
C244 C245 1.399 . S
C244 H250 0.929 . S
C245 C225 1.449 . S
C245 C244 1.399 . S
C245 H251 0.930 . S
H246 C226 0.931 . S
H247 C227 0.930 . S
H248 C235 0.931 . S
H249 C236 0.929 . S
H250 C244 0.929 . S
H251 C245 0.930 . S
Mn252 O257 2.095 . S
Mn252 O267 2.162 . S
Mn252 O268 2.297 . S
Mn252 O276 2.385 . S
Mn252 O277 2.209 1_455 S
Mn252 O278 2.094 . S
Mn253 O258 2.121 1_655 S
Mn253 N260 2.257 . S
Mn253 N269 2.282 . S
Mn253 O277 2.215 . S
Mn253 O279 2.117 . S
C254 O276 1.234 1_655 S
C254 O277 1.283 . S
C255 O267 1.281 . S
C255 O268 1.236 . S
C256 O278 1.240 . S
C256 O279 1.264 1_455 S
O257 Mn252 2.095 . S
O257 C266 1.250 . S
O258 Mn253 2.121 1_455 S
O258 C266 1.258 . S
C259 N260 1.326 . S
C259 C263 1.460 . S
C259 H265 0.929 . S
N260 Mn253 2.257 . S
N260 C259 1.326 . S
N260 C264 1.362 . S
C261 C262 1.258 . S
C261 C264 1.431 . S
C261 C281 1.449 . S
C262 C261 1.258 . S
C262 C263 1.477 . S
C262 H282 0.931 . S
C263 C259 1.460 . S
C263 C262 1.477 . S
C263 H283 0.930 . S
C264 N260 1.362 . S
C264 C261 1.431 . S
C264 C274 1.476 . S
H265 C259 0.929 . S
C266 O257 1.250 . S
C266 O258 1.258 . S
O267 Mn252 2.162 . S
O267 C255 1.281 . S
O268 Mn252 2.297 . S
O268 C255 1.236 . S
N269 Mn253 2.282 . S
N269 C270 1.328 . S
N269 C274 1.318 . S
C270 N269 1.328 . S
C270 C271 1.457 . S
C270 H275 0.929 . S
C271 C270 1.457 . S
C271 C272 1.291 . S
C271 H284 0.931 . S
C272 C271 1.291 . S
C272 C273 1.373 . S
C272 H285 0.929 . S
C273 C272 1.373 . S
C273 C274 1.396 . S
C273 C280 1.403 . S
C274 C264 1.476 . S
C274 N269 1.318 . S
C274 C273 1.396 . S
H275 C270 0.929 . S
O276 Mn252 2.385 . S
O276 C254 1.234 1_455 S
O277 Mn252 2.209 1_655 S
O277 Mn253 2.215 . S
O277 C254 1.283 . S
O278 Mn252 2.094 . S
O278 C256 1.240 . S
O279 Mn253 2.117 . S
O279 C256 1.264 1_655 S
C280 C273 1.403 . S
C280 C281 1.399 . S
C280 H286 0.929 . S
C281 C261 1.449 . S
C281 C280 1.399 . S
C281 H287 0.930 . S
H282 C262 0.931 . S
H283 C263 0.930 . S
H284 C271 0.931 . S
H285 C272 0.929 . S
H286 C280 0.929 . S
H287 C281 0.930 . S
H288 C306 0.951 . S
H289 C308 0.951 . S
H290 C310 0.950 . S
H291 C311 0.950 . S
H292 C313 0.950 . S
H293 C316 0.950 . S
H294 C317 0.950 . S
H295 C319 0.950 . S
H296 C320 0.942 1_545 S
H297 C321 0.951 . S
H298 C323 0.951 . S
H299 C325 0.950 . S
H300 C326 0.950 . S
H301 C328 0.950 . S
H302 C331 0.950 . S
H303 C332 0.950 . S
H304 C334 0.950 . S
H305 C335 0.950 . S
C306 H288 0.951 . S
C306 C307 1.366 . S
C306 C308 1.388 . S
C307 C306 1.366 . S
C307 C311 1.385 . S
C308 H289 0.951 . S
C308 C306 1.388 . S
C308 C309 1.366 . S
C309 C308 1.366 . S
C309 C310 1.414 . S
C309 C312 1.499 . S
C310 H290 0.950 . S
C310 C309 1.414 . S
C310 C311 1.374 . S
C311 H291 0.950 . S
C311 C307 1.385 . S
C311 C310 1.374 . S
C312 C309 1.499 . S
C312 C313 1.373 . S
C312 C314 1.389 . S
C313 H292 0.950 . S
C313 C312 1.373 . S
C313 C329 1.377 1_554 S
C314 C312 1.389 . S
C314 C315 1.524 1_545 S
C314 C328 1.377 1_554 S
C315 C314 1.524 1_565 S
C315 C316 1.397 . S
C315 C320 1.363 . S
C316 H293 0.950 . S
C316 C315 1.397 . S
C316 C317 1.334 . S
C317 H294 0.950 . S
C317 C316 1.334 . S
C317 C318 1.287 . S
C318 C317 1.287 . S
C318 C319 1.524 . S
C318 H337 0.913 . S
C319 H295 0.950 . S
C319 C318 1.524 . S
C319 C320 1.415 . S
C320 H296 0.942 1_565 S
C320 C315 1.363 . S
C320 C319 1.415 . S
C321 H297 0.951 . S
C321 C322 1.366 . S
C321 C323 1.388 . S
C322 C321 1.366 . S
C322 C326 1.385 . S
C323 H298 0.951 . S
C323 C321 1.388 . S
C323 C324 1.366 . S
C324 C323 1.366 . S
C324 C325 1.414 . S
C324 C327 1.499 . S
C325 H299 0.950 . S
C325 C324 1.414 . S
C325 C326 1.374 . S
C326 H300 0.950 . S
C326 C322 1.385 . S
C326 C325 1.374 . S
C327 C324 1.499 . S
C327 C328 1.373 . S
C327 C329 1.389 . S
C328 H301 0.950 . S
C328 C314 1.377 1_556 S
C328 C327 1.373 . S
C329 C313 1.377 1_556 S
C329 C327 1.389 . S
C329 C330 1.524 . S
C330 C329 1.524 . S
C330 C331 1.397 . S
C330 C335 1.363 . S
C331 H302 0.950 . S
C331 C330 1.397 . S
C331 C332 1.334 . S
C332 H303 0.950 . S
C332 C331 1.334 . S
C332 C333 1.287 . S
C333 C332 1.287 . S
C333 C334 1.524 . S
C333 H336 0.999 . S
C334 H304 0.950 . S
C334 C333 1.524 . S
C334 C335 1.415 . S
C335 H305 0.950 . S
C335 C330 1.363 . S
C335 C334 1.415 . S
H336 C333 0.999 . S
H337 C318 0.913 . S
H338 C356 0.951 . S
H339 C358 0.951 . S
H340 C360 0.950 . S
H341 C361 0.950 . S
H342 C363 0.950 1_655 S
H343 C366 0.950 . S
H344 C367 0.950 . S
H345 C369 0.950 . S
H346 C370 0.950 . S
H347 C371 0.951 . S
H348 C373 0.951 . S
H349 C375 0.950 . S
H350 C376 0.950 . S
H351 C378 0.950 . S
H352 C381 0.950 1_455 S
H353 C382 0.950 . S
H354 C384 0.950 . S
H355 C385 0.950 . S
C356 H338 0.951 . S
C356 C357 1.366 . S
C356 C358 1.388 . S
C357 C356 1.366 . S
C357 C361 1.385 . S
C358 H339 0.951 . S
C358 C356 1.388 . S
C358 C359 1.366 . S
C359 C358 1.366 . S
C359 C360 1.414 . S
C359 C362 1.499 . S
C360 H340 0.950 . S
C360 C359 1.414 . S
C360 C361 1.374 . S
C361 H341 0.950 . S
C361 C357 1.385 . S
C361 C360 1.374 . S
C362 C359 1.499 . S
C362 C363 1.373 . S
C362 C364 1.389 . S
C363 H342 0.950 1_455 S
C363 C362 1.373 . S
C363 C379 1.377 . S
C364 C362 1.389 . S
C364 C365 1.524 . S
C364 C378 1.377 . S
C365 C364 1.524 . S
C365 C366 1.397 . S
C365 C370 1.363 . S
C366 H343 0.950 . S
C366 C365 1.397 . S
C366 C367 1.334 . S
C367 H344 0.950 . S
C367 C366 1.334 . S
C367 C368 1.287 . S
C368 C367 1.287 . S
C368 C369 1.524 . S
C368 H387 0.913 . S
C369 H345 0.950 . S
C369 C368 1.524 . S
C369 C370 1.415 . S
C370 H346 0.950 . S
C370 C365 1.363 . S
C370 C369 1.415 . S
C371 H347 0.951 . S
C371 C372 1.366 . S
C371 C373 1.388 . S
C372 C371 1.366 . S
C372 C376 1.385 . S
C373 H348 0.951 . S
C373 C371 1.388 . S
C373 C374 1.366 . S
C374 C373 1.366 . S
C374 C375 1.414 . S
C374 C377 1.499 . S
C375 H349 0.950 . S
C375 C374 1.414 . S
C375 C376 1.374 . S
C376 H350 0.950 . S
C376 C372 1.385 . S
C376 C375 1.374 . S
C377 C374 1.499 . S
C377 C378 1.373 . S
C377 C379 1.389 . S
C378 H351 0.950 . S
C378 C364 1.377 . S
C378 C377 1.373 . S
C379 C363 1.377 . S
C379 C377 1.389 . S
C379 C380 1.524 1_455 S
C380 C379 1.524 1_655 S
C380 C381 1.397 . S
C380 C385 1.363 . S
C381 H352 0.950 1_655 S
C381 C380 1.397 . S
C381 C382 1.334 . S
C382 H353 0.950 . S
C382 C381 1.334 . S
C382 C383 1.287 . S
C383 C382 1.287 . S
C383 C384 1.524 . S
C383 H386 0.999 . S
C384 H354 0.950 . S
C384 C383 1.524 . S
C384 C385 1.415 . S
C385 H355 0.950 . S
C385 C380 1.363 . S
C385 C384 1.415 . S
H386 C383 0.999 . S
H387 C368 0.913 . S
H388 C406 0.951 . S
H389 C408 0.951 . S
H390 C410 0.950 . S
H391 C411 0.950 . S
H392 C413 0.950 . S
H393 C416 0.950 1_545 S
H394 C417 0.950 . S
H395 C419 0.950 . S
H396 C420 0.950 . S
H397 C421 0.951 . S
H398 C423 0.951 . S
H399 C425 0.950 . S
H400 C426 0.950 . S
H401 C428 0.934 1_565 S
H402 C431 0.950 . S
H403 C432 0.950 . S
H404 C434 0.950 . S
H405 C435 0.950 . S
C406 H388 0.951 . S
C406 C407 1.366 . S
C406 C408 1.388 . S
C407 C406 1.366 . S
C407 C411 1.385 . S
C408 H389 0.951 . S
C408 C406 1.388 . S
C408 C409 1.366 . S
C409 C408 1.366 . S
C409 C410 1.414 . S
C409 C412 1.499 . S
C410 H390 0.950 . S
C410 C409 1.414 . S
C410 C411 1.374 . S
C411 H391 0.950 . S
C411 C407 1.385 . S
C411 C410 1.374 . S
C412 C409 1.499 . S
C412 C413 1.373 . S
C412 C414 1.389 . S
C413 H392 0.950 . S
C413 C412 1.373 . S
C413 C429 1.377 1_556 S
C414 C412 1.389 . S
C414 C415 1.524 1_545 S
C414 C428 1.377 1_556 S
C415 C414 1.524 1_565 S
C415 C416 1.397 . S
C415 C420 1.363 . S
C416 H393 0.950 1_565 S
C416 C415 1.397 . S
C416 C417 1.334 . S
C417 H394 0.950 . S
C417 C416 1.334 . S
C417 C418 1.287 . S
C418 C417 1.287 . S
C418 C419 1.524 . S
C418 H437 0.913 . S
C419 H395 0.950 . S
C419 C418 1.524 . S
C419 C420 1.415 . S
C420 H396 0.950 . S
C420 C415 1.363 . S
C420 C419 1.415 . S
C421 H397 0.951 . S
C421 C422 1.366 . S
C421 C423 1.388 . S
C422 C421 1.366 . S
C422 C426 1.385 . S
C423 H398 0.951 . S
C423 C421 1.388 . S
C423 C424 1.366 . S
C424 C423 1.366 . S
C424 C425 1.414 . S
C424 C427 1.499 . S
C425 H399 0.950 . S
C425 C424 1.414 . S
C425 C426 1.374 . S
C426 H400 0.950 . S
C426 C422 1.385 . S
C426 C425 1.374 . S
C427 C424 1.499 . S
C427 C428 1.373 . S
C427 C429 1.389 . S
C428 H401 0.934 1_545 S
C428 C414 1.377 1_554 S
C428 C427 1.373 . S
C429 C413 1.377 1_554 S
C429 C427 1.389 . S
C429 C430 1.524 . S
C430 C429 1.524 . S
C430 C431 1.397 . S
C430 C435 1.363 . S
C431 H402 0.950 . S
C431 C430 1.397 . S
C431 C432 1.334 . S
C432 H403 0.950 . S
C432 C431 1.334 . S
C432 C433 1.287 . S
C433 C432 1.287 . S
C433 C434 1.524 . S
C433 H436 0.999 . S
C434 H404 0.950 . S
C434 C433 1.524 . S
C434 C435 1.415 . S
C435 H405 0.950 . S
C435 C430 1.363 . S
C435 C434 1.415 . S
H436 C433 0.999 . S
H437 C418 0.913 . S
H438 C456 0.951 . S
H439 C458 0.951 . S
H440 C460 0.950 . S
H441 C461 0.950 . S
H442 C463 0.950 1_655 S
H443 C466 0.950 . S
H444 C467 0.950 . S
H445 C469 0.950 . S
H446 C470 0.950 . S
H447 C471 0.951 . S
H448 C473 0.951 . S
H449 C475 0.950 . S
H450 C476 0.950 . S
H451 C478 0.950 . S
H452 C481 0.950 . S
H453 C482 0.950 . S
H454 C484 0.950 . S
H455 C485 0.950 . S
C456 H438 0.951 . S
C456 C457 1.366 . S
C456 C458 1.388 . S
C457 C456 1.366 . S
C457 C461 1.385 . S
C458 H439 0.951 . S
C458 C456 1.388 . S
C458 C459 1.366 . S
C459 C458 1.366 . S
C459 C460 1.414 . S
C459 C462 1.499 . S
C460 H440 0.950 . S
C460 C459 1.414 . S
C460 C461 1.374 . S
C461 H441 0.950 . S
C461 C457 1.385 . S
C461 C460 1.374 . S
C462 C459 1.499 . S
C462 C463 1.373 . S
C462 C464 1.389 . S
C463 H442 0.950 1_455 S
C463 C462 1.373 . S
C463 C479 1.377 . S
C464 C462 1.389 . S
C464 C465 1.524 . S
C464 C478 1.377 . S
C465 C464 1.524 . S
C465 C466 1.397 . S
C465 C470 1.363 . S
C466 H443 0.950 . S
C466 C465 1.397 . S
C466 C467 1.334 . S
C467 H444 0.950 . S
C467 C466 1.334 . S
C467 C468 1.287 . S
C468 C467 1.287 . S
C468 C469 1.524 . S
C468 H487 0.913 . S
C469 H445 0.950 . S
C469 C468 1.524 . S
C469 C470 1.415 . S
C470 H446 0.950 . S
C470 C465 1.363 . S
C470 C469 1.415 . S
C471 H447 0.951 . S
C471 C472 1.366 . S
C471 C473 1.388 . S
C472 C471 1.366 . S
C472 C476 1.385 . S
C473 H448 0.951 . S
C473 C471 1.388 . S
C473 C474 1.366 . S
C474 C473 1.366 . S
C474 C475 1.414 . S
C474 C477 1.499 . S
C475 H449 0.950 . S
C475 C474 1.414 . S
C475 C476 1.374 . S
C476 H450 0.950 . S
C476 C472 1.385 . S
C476 C475 1.374 . S
C477 C474 1.499 . S
C477 C478 1.373 . S
C477 C479 1.389 . S
C478 H451 0.950 . S
C478 C464 1.377 . S
C478 C477 1.373 . S
C479 C463 1.377 . S
C479 C477 1.389 . S
C479 C480 1.524 1_455 S
C480 C479 1.524 1_655 S
C480 C481 1.397 . S
C480 C485 1.363 . S
C481 H452 0.950 . S
C481 C480 1.397 . S
C481 C482 1.334 . S
C482 H453 0.950 . S
C482 C481 1.334 . S
C482 C483 1.287 . S
C483 C482 1.287 . S
C483 C484 1.524 . S
C483 H486 0.999 . S
C484 H454 0.950 . S
C484 C483 1.524 . S
C484 C485 1.415 . S
C485 H455 0.950 . S
C485 C480 1.363 . S
C485 C484 1.415 . S
H486 C483 0.999 . S
H487 C468 0.913 . S
H488 C506 0.951 . S
H489 C508 0.951 . S
H490 C510 0.950 . S
H491 C511 0.950 . S
H492 C513 0.950 . S
H493 C516 0.950 . S
H494 C517 0.950 . S
H495 C519 0.950 . S
H496 C520 0.950 . S
H497 C521 0.951 1_565 S
H498 C523 0.951 1_565 S
H499 C525 0.950 . S
H500 C526 0.950 . S
H501 C528 0.950 . S
H502 C531 0.950 1_545 S
H503 C532 0.950 . S
H504 C534 0.950 . S
H505 C535 0.950 . S
C506 H488 0.951 . S
C506 C507 1.366 . S
C506 C508 1.388 . S
C507 C506 1.366 . S
C507 C511 1.385 . S
C508 H489 0.951 . S
C508 C506 1.388 . S
C508 C509 1.366 . S
C509 C508 1.366 . S
C509 C510 1.414 . S
C509 C512 1.499 . S
C510 H490 0.950 . S
C510 C509 1.414 . S
C510 C511 1.374 . S
C511 H491 0.950 . S
C511 C507 1.385 . S
C511 C510 1.374 . S
C512 C509 1.499 . S
C512 C513 1.373 . S
C512 C514 1.389 . S
C513 H492 0.950 . S
C513 C512 1.373 . S
C513 C529 1.377 . S
C514 C512 1.389 . S
C514 C515 1.524 . S
C514 C528 1.377 . S
C515 C514 1.524 . S
C515 C516 1.397 . S
C515 C520 1.363 . S
C516 H493 0.950 . S
C516 C515 1.397 . S
C516 C517 1.334 . S
C517 H494 0.950 . S
C517 C516 1.334 . S
C517 C518 1.287 . S
C518 C517 1.287 . S
C518 C519 1.524 . S
C518 H537 0.913 . S
C519 H495 0.950 . S
C519 C518 1.524 . S
C519 C520 1.415 . S
C520 H496 0.950 . S
C520 C515 1.363 . S
C520 C519 1.415 . S
C521 H497 0.951 1_545 S
C521 C522 1.366 . S
C521 C523 1.388 . S
C522 C521 1.366 . S
C522 C526 1.385 . S
C523 H498 0.951 1_545 S
C523 C521 1.388 . S
C523 C524 1.366 . S
C524 C523 1.366 . S
C524 C525 1.414 . S
C524 C527 1.499 . S
C525 H499 0.950 . S
C525 C524 1.414 . S
C525 C526 1.374 . S
C526 H500 0.950 . S
C526 C522 1.385 . S
C526 C525 1.374 . S
C527 C524 1.499 . S
C527 C528 1.373 . S
C527 C529 1.389 . S
C528 H501 0.950 . S
C528 C514 1.377 . S
C528 C527 1.373 . S
C529 C513 1.377 . S
C529 C527 1.389 . S
C529 C530 1.524 1_545 S
C530 C529 1.524 1_565 S
C530 C531 1.397 . S
C530 C535 1.363 . S
C531 H502 0.950 1_565 S
C531 C530 1.397 . S
C531 C532 1.334 . S
C532 H503 0.950 . S
C532 C531 1.334 . S
C532 C533 1.287 . S
C533 C532 1.287 . S
C533 C534 1.524 . S
C533 H536 0.999 . S
C534 H504 0.950 . S
C534 C533 1.524 . S
C534 C535 1.415 . S
C535 H505 0.950 . S
C535 C530 1.363 . S
C535 C534 1.415 . S
H536 C533 0.999 . S
H537 C518 0.913 . S
H538 C556 0.951 . S
H539 C558 0.951 . S
H540 C560 0.950 . S
H541 C561 0.950 . S
H542 C563 0.950 . S
H543 C566 0.950 . S
H544 C567 0.950 . S
H545 C569 0.950 . S
H546 C570 0.945 1_455 S
H547 C571 0.951 . S
H548 C573 0.951 . S
H549 C575 0.950 . S
H550 C576 0.950 . S
H551 C578 0.950 . S
H552 C581 0.950 . S
H553 C582 0.950 . S
H554 C584 0.950 . S
H555 C585 0.950 . S
C556 H538 0.951 . S
C556 C557 1.366 . S
C556 C558 1.388 . S
C557 C556 1.366 . S
C557 C561 1.385 . S
C558 H539 0.951 . S
C558 C556 1.388 . S
C558 C559 1.366 . S
C559 C558 1.366 . S
C559 C560 1.414 . S
C559 C562 1.499 . S
C560 H540 0.950 . S
C560 C559 1.414 . S
C560 C561 1.374 . S
C561 H541 0.950 . S
C561 C557 1.385 . S
C561 C560 1.374 . S
C562 C559 1.499 . S
C562 C563 1.373 . S
C562 C564 1.389 . S
C563 H542 0.950 . S
C563 C562 1.373 . S
C563 C579 1.377 . S
C564 C562 1.389 . S
C564 C565 1.524 1_455 S
C564 C578 1.377 . S
C565 C564 1.524 1_655 S
C565 C566 1.397 . S
C565 C570 1.363 . S
C566 H543 0.950 . S
C566 C565 1.397 . S
C566 C567 1.334 . S
C567 H544 0.950 . S
C567 C566 1.334 . S
C567 C568 1.287 . S
C568 C567 1.287 . S
C568 C569 1.524 . S
C568 H587 0.913 . S
C569 H545 0.950 . S
C569 C568 1.524 . S
C569 C570 1.420 . S
C570 H546 0.945 1_655 S
C570 C565 1.363 . S
C570 C569 1.420 . S
C571 H547 0.951 . S
C571 C572 1.366 . S
C571 C573 1.388 . S
C572 C571 1.366 . S
C572 C576 1.385 . S
C573 H548 0.951 . S
C573 C571 1.388 . S
C573 C574 1.366 . S
C574 C573 1.366 . S
C574 C575 1.414 . S
C574 C577 1.499 . S
C575 H549 0.950 . S
C575 C574 1.414 . S
C575 C576 1.374 . S
C576 H550 0.950 . S
C576 C572 1.385 . S
C576 C575 1.374 . S
C577 C574 1.499 . S
C577 C578 1.373 . S
C577 C579 1.389 . S
C578 H551 0.950 . S
C578 C564 1.377 . S
C578 C577 1.373 . S
C579 C563 1.377 . S
C579 C577 1.389 . S
C579 C580 1.524 . S
C580 C579 1.524 . S
C580 C581 1.397 . S
C580 C585 1.363 . S
C581 H552 0.950 . S
C581 C580 1.397 . S
C581 C582 1.334 . S
C582 H553 0.950 . S
C582 C581 1.334 . S
C582 C583 1.287 . S
C583 C582 1.287 . S
C583 C584 1.524 . S
C583 H586 0.999 . S
C584 H554 0.950 . S
C584 C583 1.524 . S
C584 C585 1.415 . S
C585 H555 0.950 . S
C585 C580 1.363 . S
C585 C584 1.415 . S
H586 C583 0.999 . S
H587 C568 0.913 . S
H588 C606 0.951 . S
H589 C608 0.951 . S
H590 C610 0.950 . S
H591 C611 0.950 . S
H592 C613 0.950 . S
H593 C616 0.950 . S
H594 C617 0.950 . S
H595 C619 0.950 . S
H596 C620 0.950 . S
H597 C621 0.981 . S
H598 C623 0.951 1_565 S
H599 C625 0.950 . S
H600 C626 0.950 . S
H601 C628 0.950 . S
H602 C631 0.950 . S
H603 C632 0.950 . S
H604 C634 0.950 . S
H605 C635 0.950 . S
C606 H588 0.951 . S
C606 C607 1.366 . S
C606 C608 1.388 . S
C607 C606 1.366 . S
C607 C611 1.385 . S
C608 H589 0.951 . S
C608 C606 1.388 . S
C608 C609 1.366 . S
C609 C608 1.366 . S
C609 C610 1.414 . S
C609 C612 1.499 . S
C610 H590 0.950 . S
C610 C609 1.414 . S
C610 C611 1.374 . S
C611 H591 0.950 . S
C611 C607 1.385 . S
C611 C610 1.374 . S
C612 C609 1.499 . S
C612 C613 1.373 . S
C612 C614 1.389 . S
C613 H592 0.950 . S
C613 C612 1.373 . S
C613 C629 1.377 . S
C614 C612 1.389 . S
C614 C615 1.524 . S
C614 C628 1.377 . S
C615 C614 1.524 . S
C615 C616 1.397 . S
C615 C620 1.363 . S
C616 H593 0.950 . S
C616 C615 1.397 . S
C616 C617 1.334 . S
C617 H594 0.950 . S
C617 C616 1.334 . S
C617 C618 1.287 . S
C618 C617 1.287 . S
C618 C619 1.524 . S
C618 H637 0.913 . S
C619 H595 0.950 . S
C619 C618 1.524 . S
C619 C620 1.415 . S
C620 H596 0.950 . S
C620 C615 1.363 . S
C620 C619 1.415 . S
C621 H597 0.981 . S
C621 C622 1.342 1_565 S
C621 C623 1.382 1_565 S
C622 C621 1.342 1_545 S
C622 C626 1.385 . S
C623 H598 0.951 1_545 S
C623 C621 1.382 1_545 S
C623 C624 1.366 . S
C624 C623 1.366 . S
C624 C625 1.414 . S
C624 C627 1.499 . S
C625 H599 0.950 . S
C625 C624 1.414 . S
C625 C626 1.374 . S
C626 H600 0.950 . S
C626 C622 1.385 . S
C626 C625 1.374 . S
C627 C624 1.499 . S
C627 C628 1.373 . S
C627 C629 1.389 . S
C628 H601 0.950 . S
C628 C614 1.377 . S
C628 C627 1.373 . S
C629 C613 1.377 . S
C629 C627 1.389 . S
C629 C630 1.524 . S
C630 C629 1.524 . S
C630 C631 1.397 . S
C630 C635 1.363 1_545 S
C631 H602 0.950 . S
C631 C630 1.397 . S
C631 C632 1.334 . S
C632 H603 0.950 . S
C632 C631 1.334 . S
C632 C633 1.287 1_545 S
C633 C632 1.287 1_565 S
C633 C634 1.524 . S
C633 H636 0.999 . S
C634 H604 0.950 . S
C634 C633 1.524 . S
C634 C635 1.415 . S
C635 H605 0.950 . S
C635 C630 1.363 1_565 S
C635 C634 1.415 . S
H636 C633 0.999 . S
H637 C618 0.913 . S
H638 C656 0.951 . S
H639 C658 0.951 . S
H640 C660 0.950 . S
H641 C661 0.950 . S
H642 C663 0.950 . S
H643 C666 0.964 . S
H644 C667 0.950 . S
H645 C669 0.950 . S
H646 C670 0.950 . S
H647 C671 0.951 . S
H648 C673 0.951 . S
H649 C675 0.950 . S
H650 C676 0.950 . S
H651 C678 0.950 1_655 S
H652 C681 0.950 . S
H653 C682 0.950 . S
H654 C684 0.950 . S
H655 C685 0.950 . S
C656 H638 0.951 . S
C656 C657 1.366 . S
C656 C658 1.388 . S
C657 C656 1.366 . S
C657 C661 1.385 . S
C658 H639 0.951 . S
C658 C656 1.388 . S
C658 C659 1.366 . S
C659 C658 1.366 . S
C659 C660 1.414 . S
C659 C662 1.499 . S
C660 H640 0.950 . S
C660 C659 1.414 . S
C660 C661 1.374 . S
C661 H641 0.950 . S
C661 C657 1.385 . S
C661 C660 1.374 . S
C662 C659 1.499 . S
C662 C663 1.373 . S
C662 C664 1.389 . S
C663 H642 0.950 . S
C663 C662 1.373 . S
C663 C679 1.377 . S
C664 C662 1.389 . S
C664 C665 1.524 1_455 S
C664 C678 1.377 . S
C665 C664 1.524 1_655 S
C665 C666 1.397 . S
C665 C670 1.363 . S
C666 H643 0.964 . S
C666 C665 1.397 . S
C666 C667 1.334 . S
C667 H644 0.950 . S
C667 C666 1.334 . S
C667 C668 1.287 . S
C668 C667 1.287 . S
C668 C669 1.524 . S
C668 H687 0.913 . S
C669 H645 0.950 . S
C669 C668 1.524 . S
C669 C670 1.415 . S
C670 H646 0.950 . S
C670 C665 1.363 . S
C670 C669 1.415 . S
C671 H647 0.951 . S
C671 C672 1.366 . S
C671 C673 1.388 . S
C672 C671 1.366 . S
C672 C676 1.385 . S
C673 H648 0.951 . S
C673 C671 1.388 . S
C673 C674 1.366 . S
C674 C673 1.366 . S
C674 C675 1.414 . S
C674 C677 1.499 . S
C675 H649 0.950 . S
C675 C674 1.414 . S
C675 C676 1.374 . S
C676 H650 0.950 . S
C676 C672 1.385 . S
C676 C675 1.374 . S
C677 C674 1.499 . S
C677 C678 1.373 . S
C677 C679 1.389 . S
C678 H651 0.950 1_455 S
C678 C664 1.377 . S
C678 C677 1.373 . S
C679 C663 1.377 . S
C679 C677 1.389 . S
C679 C680 1.524 . S
C680 C679 1.524 . S
C680 C681 1.397 . S
C680 C685 1.363 . S
C681 H652 0.950 . S
C681 C680 1.397 . S
C681 C682 1.334 . S
C682 H653 0.950 . S
C682 C681 1.334 . S
C682 C683 1.287 . S
C683 C682 1.287 . S
C683 C684 1.524 . S
C683 H686 0.999 . S
C684 H654 0.950 . S
C684 C683 1.524 . S
C684 C685 1.415 . S
C685 H655 0.950 . S
C685 C680 1.363 . S
C685 C684 1.415 . S
H686 C683 0.999 . S
H687 C668 0.913 . S
H688 C706 0.951 . S
H689 C708 0.951 . S
H690 C710 0.950 . S
H691 C711 0.950 . S
H692 C713 0.950 . S
H693 C716 0.950 . S
H694 C717 0.950 . S
H695 C719 0.950 . S
H696 C720 0.950 . S
H697 C721 0.951 . S
H698 C723 0.951 . S
H699 C725 0.950 . S
H700 C726 0.950 . S
H701 C728 0.950 . S
H702 C731 0.950 . S
H703 C732 0.950 . S
H704 C734 0.950 . S
H705 C735 0.950 . S
C706 H688 0.951 . S
C706 C707 1.366 . S
C706 C708 1.388 . S
C707 C706 1.366 . S
C707 C711 1.385 . S
C708 H689 0.951 . S
C708 C706 1.388 . S
C708 C709 1.366 . S
C709 C708 1.366 . S
C709 C710 1.414 . S
C709 C712 1.499 . S
C710 H690 0.950 . S
C710 C709 1.414 . S
C710 C711 1.374 . S
C711 H691 0.950 . S
C711 C707 1.385 . S
C711 C710 1.374 . S
C712 C709 1.499 . S
C712 C713 1.373 . S
C712 C714 1.389 . S
C713 H692 0.950 . S
C713 C712 1.373 . S
C713 C729 1.377 . S
C714 C712 1.389 . S
C714 C715 1.524 . S
C714 C728 1.377 . S
C715 C714 1.524 . S
C715 C716 1.397 . S
C715 C720 1.363 . S
C716 H693 0.950 . S
C716 C715 1.397 . S
C716 C717 1.334 . S
C717 H694 0.950 . S
C717 C716 1.334 . S
C717 C718 1.287 . S
C718 C717 1.287 . S
C718 C719 1.524 . S
C718 H737 0.913 . S
C719 H695 0.950 . S
C719 C718 1.524 . S
C719 C720 1.415 . S
C720 H696 0.950 . S
C720 C715 1.363 . S
C720 C719 1.415 . S
C721 H697 0.951 . S
C721 C722 1.366 . S
C721 C723 1.388 . S
C722 C721 1.366 . S
C722 C726 1.385 . S
C723 H698 0.951 . S
C723 C721 1.388 . S
C723 C724 1.366 . S
C724 C723 1.366 . S
C724 C725 1.414 . S
C724 C727 1.499 . S
C725 H699 0.950 . S
C725 C724 1.414 . S
C725 C726 1.374 . S
C726 H700 0.950 . S
C726 C722 1.385 . S
C726 C725 1.374 . S
C727 C724 1.499 . S
C727 C728 1.373 . S
C727 C729 1.389 . S
C728 H701 0.950 . S
C728 C714 1.377 . S
C728 C727 1.373 . S
C729 C713 1.377 . S
C729 C727 1.389 . S
C729 C730 1.524 . S
C730 C729 1.524 . S
C730 C731 1.397 . S
C730 C735 1.363 . S
C731 H702 0.950 . S
C731 C730 1.397 . S
C731 C732 1.334 . S
C732 H703 0.950 . S
C732 C731 1.334 . S
C732 C733 1.287 . S
C733 C732 1.287 . S
C733 C734 1.524 . S
C733 H736 0.999 . S
C734 H704 0.950 . S
C734 C733 1.524 . S
C734 C735 1.415 . S
C735 H705 0.950 . S
C735 C730 1.363 . S
C735 C734 1.415 . S
H736 C733 0.999 . S
H737 C718 0.913 . S
H738 C756 0.951 . S
H739 C758 0.951 . S
H740 C760 0.950 . S
H741 C761 0.950 . S
H742 C763 0.950 . S
H743 C766 0.950 . S
H744 C767 0.950 . S
H745 C769 0.950 . S
H746 C770 0.950 . S
H747 C771 0.951 . S
H748 C773 0.951 . S
H749 C775 0.950 . S
H750 C776 0.950 . S
H751 C778 0.950 . S
H752 C781 0.950 . S
H753 C782 0.950 . S
H754 C784 0.950 . S
H755 C785 0.950 . S
C756 H738 0.951 . S
C756 C757 1.366 . S
C756 C758 1.388 . S
C757 C756 1.366 . S
C757 C761 1.385 . S
C758 H739 0.951 . S
C758 C756 1.388 . S
C758 C759 1.366 . S
C759 C758 1.366 . S
C759 C760 1.414 . S
C759 C762 1.499 . S
C760 H740 0.950 . S
C760 C759 1.414 . S
C760 C761 1.374 . S
C761 H741 0.950 . S
C761 C757 1.385 . S
C761 C760 1.374 . S
C762 C759 1.499 . S
C762 C763 1.373 . S
C762 C764 1.389 . S
C763 H742 0.950 . S
C763 C762 1.373 . S
C763 C779 1.377 . S
C764 C762 1.389 . S
C764 C765 1.524 . S
C764 C778 1.377 . S
C765 C764 1.524 . S
C765 C766 1.397 . S
C765 C770 1.363 . S
C766 H743 0.950 . S
C766 C765 1.397 . S
C766 C767 1.334 . S
C767 H744 0.950 . S
C767 C766 1.334 . S
C767 C768 1.287 . S
C768 C767 1.287 . S
C768 C769 1.524 . S
C768 H787 0.913 . S
C769 H745 0.950 . S
C769 C768 1.524 . S
C769 C770 1.415 . S
C770 H746 0.950 . S
C770 C765 1.363 . S
C770 C769 1.415 . S
C771 H747 0.951 . S
C771 C772 1.366 . S
C771 C773 1.388 . S
C772 C771 1.366 . S
C772 C776 1.385 . S
C773 H748 0.951 . S
C773 C771 1.388 . S
C773 C774 1.366 . S
C774 C773 1.366 . S
C774 C775 1.414 . S
C774 C777 1.499 . S
C775 H749 0.950 . S
C775 C774 1.414 . S
C775 C776 1.374 . S
C776 H750 0.950 . S
C776 C772 1.385 . S
C776 C775 1.374 . S
C777 C774 1.499 . S
C777 C778 1.373 . S
C777 C779 1.389 . S
C778 H751 0.950 . S
C778 C764 1.377 . S
C778 C777 1.373 . S
C779 C763 1.377 . S
C779 C777 1.389 . S
C779 C780 1.524 . S
C780 C779 1.524 . S
C780 C781 1.397 . S
C780 C785 1.363 . S
C781 H752 0.950 . S
C781 C780 1.397 . S
C781 C782 1.334 . S
C782 H753 0.950 . S
C782 C781 1.334 . S
C782 C783 1.287 . S
C783 C782 1.287 . S
C783 C784 1.524 . S
C783 H786 0.999 . S
C784 H754 0.950 . S
C784 C783 1.524 . S
C784 C785 1.415 . S
C785 H755 0.950 . S
C785 C780 1.363 . S
C785 C784 1.415 . S
H786 C783 0.999 . S
H787 C768 0.913 . S
H788 C806 0.951 . S
H789 C808 0.951 . S
H790 C810 0.950 . S
H791 C811 0.950 . S
H792 C813 0.950 . S
H793 C816 0.950 . S
H794 C817 0.950 . S
H795 C819 0.950 . S
H796 C820 0.950 . S
H797 C821 0.951 . S
H798 C823 0.951 . S
H799 C825 0.950 . S
H800 C826 0.950 . S
H801 C828 0.950 . S
H802 C831 0.950 . S
H803 C832 0.950 1_545 S
H804 C834 0.950 . S
H805 C835 0.950 . S
C806 H788 0.951 . S
C806 C807 1.366 . S
C806 C808 1.388 . S
C807 C806 1.366 . S
C807 C811 1.385 . S
C808 H789 0.951 . S
C808 C806 1.388 . S
C808 C809 1.366 . S
C809 C808 1.366 . S
C809 C810 1.414 . S
C809 C812 1.499 . S
C810 H790 0.950 . S
C810 C809 1.414 . S
C810 C811 1.374 . S
C811 H791 0.950 . S
C811 C807 1.385 . S
C811 C810 1.374 . S
C812 C809 1.499 . S
C812 C813 1.373 . S
C812 C814 1.389 . S
C813 H792 0.950 . S
C813 C812 1.373 . S
C813 C829 1.377 . S
C814 C812 1.389 . S
C814 C815 1.524 . S
C814 C828 1.377 . S
C815 C814 1.524 . S
C815 C816 1.397 . S
C815 C820 1.363 . S
C816 H793 0.950 . S
C816 C815 1.397 . S
C816 C817 1.334 . S
C817 H794 0.950 . S
C817 C816 1.334 . S
C817 C818 1.287 . S
C818 C817 1.287 . S
C818 C819 1.524 . S
C818 H837 0.913 . S
C819 H795 0.950 . S
C819 C818 1.524 . S
C819 C820 1.415 . S
C820 H796 0.950 . S
C820 C815 1.363 . S
C820 C819 1.415 . S
C821 H797 0.951 . S
C821 C822 1.366 . S
C821 C823 1.388 . S
C822 C821 1.366 . S
C822 C826 1.385 . S
C823 H798 0.951 . S
C823 C821 1.388 . S
C823 C824 1.366 . S
C824 C823 1.366 . S
C824 C825 1.414 . S
C824 C827 1.499 . S
C825 H799 0.950 . S
C825 C824 1.414 . S
C825 C826 1.374 . S
C826 H800 0.950 . S
C826 C822 1.385 . S
C826 C825 1.374 . S
C827 C824 1.499 . S
C827 C828 1.373 . S
C827 C829 1.389 . S
C828 H801 0.950 . S
C828 C814 1.377 . S
C828 C827 1.373 . S
C829 C813 1.377 . S
C829 C827 1.389 . S
C829 C830 1.524 . S
C830 C829 1.524 . S
C830 C831 1.397 . S
C830 C835 1.363 . S
C831 H802 0.950 . S
C831 C830 1.397 . S
C831 C832 1.334 . S
C832 H803 0.950 1_565 S
C832 C831 1.334 . S
C832 C833 1.287 . S
C833 C832 1.287 . S
C833 C834 1.524 . S
C833 H836 0.999 1_565 S
C834 H804 0.950 . S
C834 C833 1.524 . S
C834 C835 1.415 . S
C835 H805 0.950 . S
C835 C830 1.363 . S
C835 C834 1.415 . S
H836 C833 0.999 1_545 S
H837 C818 0.913 . S
H838 C856 0.951 . S
H839 C858 0.951 . S
H840 C860 0.950 . S
H841 C861 0.950 . S
H842 C863 0.950 . S
H843 C866 0.950 . S
H844 C867 0.950 . S
H845 C869 0.950 . S
H846 C870 0.950 . S
H847 C871 0.951 . S
H848 C873 0.951 . S
H849 C875 0.950 . S
H850 C876 0.950 . S
H851 C878 0.950 . S
H852 C881 0.950 . S
H853 C882 0.950 1_545 S
H854 C884 0.950 . S
H855 C885 0.950 . S
C856 H838 0.951 . S
C856 C857 1.366 . S
C856 C858 1.388 . S
C857 C856 1.366 . S
C857 C861 1.385 . S
C858 H839 0.951 . S
C858 C856 1.388 . S
C858 C859 1.366 . S
C859 C858 1.366 . S
C859 C860 1.414 . S
C859 C862 1.499 . S
C860 H840 0.950 . S
C860 C859 1.414 . S
C860 C861 1.374 . S
C861 H841 0.950 . S
C861 C857 1.385 . S
C861 C860 1.374 . S
C862 C859 1.499 . S
C862 C863 1.373 . S
C862 C864 1.389 . S
C863 H842 0.950 . S
C863 C862 1.373 . S
C863 C879 1.377 . S
C864 C862 1.389 . S
C864 C865 1.524 . S
C864 C878 1.377 . S
C865 C864 1.524 . S
C865 C866 1.397 . S
C865 C870 1.363 . S
C866 H843 0.950 . S
C866 C865 1.397 . S
C866 C867 1.334 . S
C867 H844 0.950 . S
C867 C866 1.334 . S
C867 C868 1.287 . S
C868 C867 1.287 . S
C868 C869 1.524 . S
C868 H887 0.913 . S
C869 H845 0.950 . S
C869 C868 1.524 . S
C869 C870 1.415 . S
C870 H846 0.950 . S
C870 C865 1.363 . S
C870 C869 1.415 . S
C871 H847 0.951 . S
C871 C872 1.366 . S
C871 C873 1.388 . S
C872 C871 1.366 . S
C872 C876 1.385 . S
C873 H848 0.951 . S
C873 C871 1.388 . S
C873 C874 1.366 . S
C874 C873 1.366 . S
C874 C875 1.414 . S
C874 C877 1.499 . S
C875 H849 0.950 . S
C875 C874 1.414 . S
C875 C876 1.374 . S
C876 H850 0.950 . S
C876 C872 1.385 . S
C876 C875 1.374 . S
C877 C874 1.499 . S
C877 C878 1.373 . S
C877 C879 1.389 . S
C878 H851 0.950 . S
C878 C864 1.377 . S
C878 C877 1.373 . S
C879 C863 1.377 . S
C879 C877 1.389 . S
C879 C880 1.524 . S
C880 C879 1.524 . S
C880 C881 1.397 . S
C880 C885 1.363 . S
C881 H852 0.950 . S
C881 C880 1.397 . S
C881 C882 1.334 . S
C882 H853 0.950 1_565 S
C882 C881 1.334 . S
C882 C883 1.287 1_565 S
C883 C882 1.287 1_545 S
C883 C884 1.524 1_545 S
C883 H886 0.999 . S
C884 H854 0.950 . S
C884 C883 1.524 1_565 S
C884 C885 1.415 . S
C885 H855 0.950 . S
C885 C880 1.363 . S
C885 C884 1.415 . S
H886 C883 0.999 . S
H887 C868 0.913 . S
H888 C906 0.951 1_545 S
H889 C908 0.951 . S
H890 C910 0.950 . S
H891 C911 0.950 . S
H892 C913 0.950 . S
H893 C916 0.950 . S
H894 C917 0.950 . S
H895 C919 0.950 . S
H896 C920 0.950 . S
H897 C921 0.951 . S
H898 C923 0.951 . S
H899 C925 0.950 . S
H900 C926 0.949 1_455 S
H901 C928 0.950 . S
H902 C931 0.950 . S
H903 C932 0.950 . S
H904 C934 0.950 . S
H905 C935 0.950 . S
C906 H888 0.951 1_565 S
C906 C907 1.366 . S
C906 C908 1.388 . S
C907 C906 1.366 . S
C907 C911 1.385 . S
C908 H889 0.951 . S
C908 C906 1.388 . S
C908 C909 1.366 . S
C909 C908 1.366 . S
C909 C910 1.414 . S
C909 C912 1.499 . S
C910 H890 0.950 . S
C910 C909 1.414 . S
C910 C911 1.374 . S
C911 H891 0.950 . S
C911 C907 1.385 . S
C911 C910 1.374 . S
C912 C909 1.499 . S
C912 C913 1.373 . S
C912 C914 1.389 . S
C913 H892 0.950 . S
C913 C912 1.373 . S
C913 C929 1.377 . S
C914 C912 1.389 . S
C914 C915 1.524 . S
C914 C928 1.377 . S
C915 C914 1.524 . S
C915 C916 1.397 . S
C915 C920 1.363 . S
C916 H893 0.950 . S
C916 C915 1.397 . S
C916 C917 1.334 1_565 S
C917 H894 0.950 . S
C917 C916 1.334 1_545 S
C917 C918 1.287 . S
C918 C917 1.287 . S
C918 C919 1.524 . S
C918 H937 0.913 . S
C919 H895 0.950 . S
C919 C918 1.524 . S
C919 C920 1.415 1_545 S
C920 H896 0.950 . S
C920 C915 1.363 . S
C920 C919 1.415 1_565 S
C921 H897 0.951 . S
C921 C922 1.366 . S
C921 C923 1.388 . S
C922 C921 1.366 . S
C922 C926 1.385 . S
C923 H898 0.951 . S
C923 C921 1.388 . S
C923 C924 1.366 . S
C924 C923 1.366 . S
C924 C925 1.414 . S
C924 C927 1.499 . S
C925 H899 0.950 . S
C925 C924 1.414 . S
C925 C926 1.374 . S
C926 H900 0.949 1_655 S
C926 C922 1.385 . S
C926 C925 1.374 . S
C927 C924 1.499 . S
C927 C928 1.373 . S
C927 C929 1.389 . S
C928 H901 0.950 . S
C928 C914 1.377 . S
C928 C927 1.373 . S
C929 C913 1.377 . S
C929 C927 1.389 . S
C929 C930 1.524 . S
C930 C929 1.524 . S
C930 C931 1.397 . S
C930 C935 1.363 . S
C931 H902 0.950 . S
C931 C930 1.397 . S
C931 C932 1.334 . S
C932 H903 0.950 . S
C932 C931 1.334 . S
C932 C933 1.287 . S
C933 C932 1.287 . S
C933 C934 1.524 . S
C933 H936 0.999 . S
C934 H904 0.950 . S
C934 C933 1.524 . S
C934 C935 1.415 . S
C935 H905 0.950 . S
C935 C930 1.363 . S
C935 C934 1.415 . S
H936 C933 0.999 . S
H937 C918 0.913 . S
H938 C956 0.951 . S
H939 C958 0.951 . S
H940 C960 0.950 . S
H941 C961 0.950 1_545 S
H942 C963 0.950 . S
H943 C966 0.950 . S
H944 C967 0.950 . S
H945 C969 0.950 . S
H946 C970 0.950 . S
H947 C971 0.951 . S
H948 C973 0.951 . S
H949 C975 0.950 . S
H950 C976 0.950 . S
H951 C978 0.950 . S
H952 C981 0.950 . S
H953 C982 0.950 . S
H954 C984 0.950 . S
H955 C985 0.950 . S
C956 H938 0.951 . S
C956 C957 1.366 . S
C956 C958 1.388 . S
C957 C956 1.366 . S
C957 C961 1.385 . S
C958 H939 0.951 . S
C958 C956 1.388 . S
C958 C959 1.366 . S
C959 C958 1.366 . S
C959 C960 1.414 . S
C959 C962 1.499 . S
C960 H940 0.950 . S
C960 C959 1.414 . S
C960 C961 1.374 . S
C961 H941 0.950 1_565 S
C961 C957 1.385 . S
C961 C960 1.374 . S
C962 C959 1.499 . S
C962 C963 1.373 . S
C962 C964 1.389 . S
C963 H942 0.950 . S
C963 C962 1.373 . S
C963 C979 1.377 . S
C964 C962 1.389 . S
C964 C965 1.524 . S
C964 C978 1.377 . S
C965 C964 1.524 . S
C965 C966 1.397 . S
C965 C970 1.363 . S
C966 H943 0.950 . S
C966 C965 1.397 . S
C966 C967 1.334 . S
C967 H944 0.950 . S
C967 C966 1.334 . S
C967 C968 1.287 . S
C968 C967 1.287 . S
C968 C969 1.524 . S
C968 H987 0.913 . S
C969 H945 0.950 . S
C969 C968 1.524 . S
C969 C970 1.415 . S
C970 H946 0.950 . S
C970 C965 1.363 . S
C970 C969 1.415 . S
C971 H947 0.951 . S
C971 C972 1.366 . S
C971 C973 1.388 . S
C972 C971 1.366 . S
C972 C976 1.385 . S
C973 H948 0.951 . S
C973 C971 1.388 . S
C973 C974 1.366 . S
C974 C973 1.366 . S
C974 C975 1.414 . S
C974 C977 1.499 . S
C975 H949 0.950 . S
C975 C974 1.414 . S
C975 C976 1.374 . S
C976 H950 0.950 . S
C976 C972 1.385 . S
C976 C975 1.374 . S
C977 C974 1.499 . S
C977 C978 1.373 . S
C977 C979 1.389 . S
C978 H951 0.950 . S
C978 C964 1.377 . S
C978 C977 1.373 . S
C979 C963 1.377 . S
C979 C977 1.389 . S
C979 C980 1.524 . S
C980 C979 1.524 . S
C980 C981 1.397 . S
C980 C985 1.363 . S
C981 H952 0.950 . S
C981 C980 1.397 . S
C981 C982 1.334 . S
C982 H953 0.950 . S
C982 C981 1.334 . S
C982 C983 1.287 . S
C983 C982 1.287 . S
C983 C984 1.524 . S
C983 H986 0.999 . S
C984 H954 0.950 . S
C984 C983 1.524 . S
C984 C985 1.415 . S
C985 H955 0.950 . S
C985 C980 1.363 . S
C985 C984 1.415 . S
H986 C983 0.999 . S
H987 C968 0.913 . S
H988 C1006 0.951 . S
H989 C1008 0.951 . S
H990 C1010 0.950 . S
H991 C1011 0.950 . S
H992 C1013 0.950 . S
H993 C1016 0.950 . S
H994 C1017 0.950 . S
H995 C1019 0.950 . S
H996 C1020 0.950 . S
H997 C1021 0.951 . S
H998 C1023 0.951 . S
H999 C1025 0.950 . S
H1000 C1026 0.950 . S
H1001 C1028 0.950 . S
H1002 C1031 0.950 . S
H1003 C1032 0.950 . S
H1004 C1034 0.950 . S
H1005 C1035 0.950 . S
C1006 H988 0.951 . S
C1006 C1007 1.366 . S
C1006 C1008 1.388 . S
C1007 C1006 1.366 . S
C1007 C1011 1.385 . S
C1008 H989 0.951 . S
C1008 C1006 1.388 . S
C1008 C1009 1.366 . S
C1009 C1008 1.366 . S
C1009 C1010 1.414 . S
C1009 C1012 1.499 . S
C1010 H990 0.950 . S
C1010 C1009 1.414 . S
C1010 C1011 1.374 . S
C1011 H991 0.950 . S
C1011 C1007 1.385 . S
C1011 C1010 1.374 . S
C1012 C1009 1.499 . S
C1012 C1013 1.373 . S
C1012 C1014 1.389 . S
C1013 H992 0.950 . S
C1013 C1012 1.373 . S
C1013 C1029 1.377 . S
C1014 C1012 1.389 . S
C1014 C1015 1.524 . S
C1014 C1028 1.377 . S
C1015 C1014 1.524 . S
C1015 C1016 1.397 . S
C1015 C1020 1.363 . S
C1016 H993 0.950 . S
C1016 C1015 1.397 . S
C1016 C1017 1.334 . S
C1017 H994 0.950 . S
C1017 C1016 1.334 . S
C1017 C1018 1.287 . S
C1018 C1017 1.287 . S
C1018 C1019 1.524 . S
C1018 H1037 0.913 . S
C1019 H995 0.950 . S
C1019 C1018 1.524 . S
C1019 C1020 1.415 . S
C1020 H996 0.950 . S
C1020 C1015 1.363 . S
C1020 C1019 1.415 . S
C1021 H997 0.951 . S
C1021 C1022 1.366 . S
C1021 C1023 1.388 . S
C1022 C1021 1.366 . S
C1022 C1026 1.385 . S
C1023 H998 0.951 . S
C1023 C1021 1.388 . S
C1023 C1024 1.366 . S
C1024 C1023 1.366 . S
C1024 C1025 1.414 . S
C1024 C1027 1.499 . S
C1025 H999 0.950 . S
C1025 C1024 1.414 . S
C1025 C1026 1.374 . S
C1026 H1000 0.950 . S
C1026 C1022 1.385 . S
C1026 C1025 1.374 . S
C1027 C1024 1.499 . S
C1027 C1028 1.373 . S
C1027 C1029 1.389 . S
C1028 H1001 0.950 . S
C1028 C1014 1.377 . S
C1028 C1027 1.373 . S
C1029 C1013 1.377 . S
C1029 C1027 1.389 . S
C1029 C1030 1.524 . S
C1030 C1029 1.524 . S
C1030 C1031 1.397 . S
C1030 C1035 1.363 . S
C1031 H1002 0.950 . S
C1031 C1030 1.397 . S
C1031 C1032 1.334 . S
C1032 H1003 0.950 . S
C1032 C1031 1.334 . S
C1032 C1033 1.287 . S
C1033 C1032 1.287 . S
C1033 C1034 1.524 . S
C1033 H1036 0.999 . S
C1034 H1004 0.950 . S
C1034 C1033 1.524 . S
C1034 C1035 1.415 . S
C1035 H1005 0.950 . S
C1035 C1030 1.363 . S
C1035 C1034 1.415 . S
H1036 C1033 0.999 . S
H1037 C1018 0.913 . S
H1038 C1056 0.918 1_455 S
H1039 C1058 0.951 . S
H1040 C1060 0.950 . S
H1041 C1061 0.950 . S
H1042 C1063 0.950 . S
H1043 C1066 0.950 . S
H1044 C1067 0.950 . S
H1045 C1069 0.928 1_455 S
H1046 C1070 0.950 . S
H1047 C1071 0.951 . S
H1048 C1073 0.951 . S
H1049 C1075 0.950 . S
H1050 C1076 0.950 . S
H1051 C1078 0.950 . S
H1052 C1081 0.950 . S
H1053 C1082 0.950 . S
H1054 C1084 0.950 . S
H1055 C1085 0.950 . S
C1056 H1038 0.918 1_655 S
C1056 C1057 1.376 . S
C1056 C1058 1.411 . S
C1057 C1056 1.376 . S
C1057 C1061 1.385 . S
C1058 H1039 0.951 . S
C1058 C1056 1.411 . S
C1058 C1059 1.366 . S
C1059 C1058 1.366 . S
C1059 C1060 1.414 . S
C1059 C1062 1.499 . S
C1060 H1040 0.950 . S
C1060 C1059 1.414 . S
C1060 C1061 1.374 . S
C1061 H1041 0.950 . S
C1061 C1057 1.385 . S
C1061 C1060 1.374 . S
C1062 C1059 1.499 . S
C1062 C1063 1.373 . S
C1062 C1064 1.389 . S
C1063 H1042 0.950 . S
C1063 C1062 1.373 . S
C1063 C1079 1.377 . S
C1064 C1062 1.389 . S
C1064 C1065 1.524 . S
C1064 C1078 1.377 . S
C1065 C1064 1.524 . S
C1065 C1066 1.397 . S
C1065 C1070 1.363 . S
C1066 H1043 0.950 . S
C1066 C1065 1.397 . S
C1066 C1067 1.334 . S
C1067 H1044 0.950 . S
C1067 C1066 1.334 . S
C1067 C1068 1.287 1_655 S
C1068 C1067 1.287 1_455 S
C1068 C1069 1.523 1_455 S
C1068 H1087 0.913 . S
C1069 H1045 0.928 1_655 S
C1069 C1068 1.523 1_655 S
C1069 C1070 1.441 . S
C1070 H1046 0.950 . S
C1070 C1065 1.363 . S
C1070 C1069 1.441 . S
C1071 H1047 0.951 . S
C1071 C1072 1.366 . S
C1071 C1073 1.388 . S
C1072 C1071 1.366 . S
C1072 C1076 1.385 . S
C1073 H1048 0.951 . S
C1073 C1071 1.388 . S
C1073 C1074 1.366 . S
C1074 C1073 1.366 . S
C1074 C1075 1.414 . S
C1074 C1077 1.499 . S
C1075 H1049 0.950 . S
C1075 C1074 1.414 . S
C1075 C1076 1.374 . S
C1076 H1050 0.950 . S
C1076 C1072 1.385 . S
C1076 C1075 1.374 . S
C1077 C1074 1.499 . S
C1077 C1078 1.373 . S
C1077 C1079 1.389 . S
C1078 H1051 0.950 . S
C1078 C1064 1.377 . S
C1078 C1077 1.373 . S
C1079 C1063 1.377 . S
C1079 C1077 1.389 . S
C1079 C1080 1.524 . S
C1080 C1079 1.524 . S
C1080 C1081 1.397 . S
C1080 C1085 1.363 . S
C1081 H1052 0.950 . S
C1081 C1080 1.397 . S
C1081 C1082 1.334 . S
C1082 H1053 0.950 . S
C1082 C1081 1.334 . S
C1082 C1083 1.287 . S
C1083 C1082 1.287 . S
C1083 C1084 1.524 . S
C1083 H1086 0.999 . S
C1084 H1054 0.950 . S
C1084 C1083 1.524 . S
C1084 C1085 1.415 . S
C1085 H1055 0.950 . S
C1085 C1080 1.363 . S
C1085 C1084 1.415 . S
H1086 C1083 0.999 . S
H1087 C1068 0.913 . S
C307 C14 1.521 . S
C322 C158 1.521 . S
C357 C50 1.521 . S
C372 C194 1.521 . S
C407 C230 1.521 . S
C422 C86 1.521 . S
C457 C266 1.521 . S
C472 C122 1.521 . S
C507 C4 1.117 . S
C522 C76 1.117 . S
C557 C40 1.117 . S
C572 C112 1.118 . S
C607 C220 1.118 . S
C622 C148 1.117 . S
C657 C184 1.117 . S
C672 C256 1.118 . S
C707 C182 1.142 . S
C722 C2 1.142 . S
C757 C38 1.141 . S
C772 C218 1.142 . S
C807 C254 1.142 . S
C822 C74 1.143 . S
C857 C110 1.141 . S
C872 C146 1.142 . S
C907 C219 1.302 1_565 S
C922 C111 1.302 1_655 S
C957 C3 1.302 1_565 S
C972 C255 1.302 . S
C1007 C39 1.302 . S
C1022 C147 1.302 . S
C1057 C183 1.302 1_655 S
C1072 C75 1.302 . S
