# Generated by pormake.
# Topology pcl, (4)-cn, num edge types: 1
# Building blocks:
#     Node 0, Type 0, BuildingBlock: UXUYUI_clean_sbu_0, # of connection points: 4
#     Node 1, Type 0, BuildingBlock: UXUYUI_clean_sbu_0, # of connection points: 4
#     Node 2, Type 0, BuildingBlock: UXUYUI_clean_sbu_0, # of connection points: 4
#     Node 3, Type 0, BuildingBlock: UXUYUI_clean_sbu_0, # of connection points: 4
#     Node 4, Type 0, BuildingBlock: UXUYUI_clean_sbu_0, # of connection points: 4
#     Node 5, Type 0, BuildingBlock: UXUYUI_clean_sbu_0, # of connection points: 4
#     Node 6, Type 0, BuildingBlock: UXUYUI_clean_sbu_0, # of connection points: 4
#     Node 7, Type 0, BuildingBlock: UXUYUI_clean_sbu_0, # of connection points: 4
#     Node 8, Type 0, BuildingBlock: UXUYUI_clean_sbu_0, # of connection points: 4
#     Node 9, Type 0, BuildingBlock: UXUYUI_clean_sbu_0, # of connection points: 4
#     Node 10, Type 0, BuildingBlock: UXUYUI_clean_sbu_0, # of connection points: 4
#     Node 11, Type 0, BuildingBlock: UXUYUI_clean_sbu_0, # of connection points: 4
#     Node 12, Type 0, BuildingBlock: UXUYUI_clean_sbu_0, # of connection points: 4
#     Node 13, Type 0, BuildingBlock: UXUYUI_clean_sbu_0, # of connection points: 4
#     Node 14, Type 0, BuildingBlock: UXUYUI_clean_sbu_0, # of connection points: 4
#     Node 15, Type 0, BuildingBlock: UXUYUI_clean_sbu_0, # of connection points: 4
#     Edge 16, Type (0, 0), BuildingBlock: XUDNAN_clean_linker_2, # of connection points: 2
#     Edge 17, Type (0, 0), BuildingBlock: XUDNAN_clean_linker_2, # of connection points: 2
#     Edge 18, Type (0, 0), BuildingBlock: XUDNAN_clean_linker_2, # of connection points: 2
#     Edge 19, Type (0, 0), BuildingBlock: XUDNAN_clean_linker_2, # of connection points: 2
#     Edge 20, Type (0, 0), BuildingBlock: XUDNAN_clean_linker_2, # of connection points: 2
#     Edge 21, Type (0, 0), BuildingBlock: XUDNAN_clean_linker_2, # of connection points: 2
#     Edge 22, Type (0, 0), BuildingBlock: XUDNAN_clean_linker_2, # of connection points: 2
#     Edge 23, Type (0, 0), BuildingBlock: XUDNAN_clean_linker_2, # of connection points: 2
#     Edge 24, Type (0, 0), BuildingBlock: XUDNAN_clean_linker_2, # of connection points: 2
#     Edge 25, Type (0, 0), BuildingBlock: XUDNAN_clean_linker_2, # of connection points: 2
#     Edge 26, Type (0, 0), BuildingBlock: XUDNAN_clean_linker_2, # of connection points: 2
#     Edge 27, Type (0, 0), BuildingBlock: XUDNAN_clean_linker_2, # of connection points: 2
#     Edge 28, Type (0, 0), BuildingBlock: XUDNAN_clean_linker_2, # of connection points: 2
#     Edge 29, Type (0, 0), BuildingBlock: XUDNAN_clean_linker_2, # of connection points: 2
#     Edge 30, Type (0, 0), BuildingBlock: XUDNAN_clean_linker_2, # of connection points: 2
#     Edge 31, Type (0, 0), BuildingBlock: XUDNAN_clean_linker_2, # of connection points: 2
#     Edge 32, Type (0, 0), BuildingBlock: XUDNAN_clean_linker_2, # of connection points: 2
#     Edge 33, Type (0, 0), BuildingBlock: XUDNAN_clean_linker_2, # of connection points: 2
#     Edge 34, Type (0, 0), BuildingBlock: XUDNAN_clean_linker_2, # of connection points: 2
#     Edge 35, Type (0, 0), BuildingBlock: XUDNAN_clean_linker_2, # of connection points: 2
#     Edge 36, Type (0, 0), BuildingBlock: XUDNAN_clean_linker_2, # of connection points: 2
#     Edge 37, Type (0, 0), BuildingBlock: XUDNAN_clean_linker_2, # of connection points: 2
#     Edge 38, Type (0, 0), BuildingBlock: XUDNAN_clean_linker_2, # of connection points: 2
#     Edge 39, Type (0, 0), BuildingBlock: XUDNAN_clean_linker_2, # of connection points: 2
#     Edge 40, Type (0, 0), BuildingBlock: XUDNAN_clean_linker_2, # of connection points: 2
#     Edge 41, Type (0, 0), BuildingBlock: XUDNAN_clean_linker_2, # of connection points: 2
#     Edge 42, Type (0, 0), BuildingBlock: XUDNAN_clean_linker_2, # of connection points: 2
#     Edge 43, Type (0, 0), BuildingBlock: XUDNAN_clean_linker_2, # of connection points: 2
#     Edge 44, Type (0, 0), BuildingBlock: XUDNAN_clean_linker_2, # of connection points: 2
#     Edge 45, Type (0, 0), BuildingBlock: XUDNAN_clean_linker_2, # of connection points: 2
#     Edge 46, Type (0, 0), BuildingBlock: XUDNAN_clean_linker_2, # of connection points: 2
#     Edge 47, Type (0, 0), BuildingBlock: XUDNAN_clean_linker_2, # of connection points: 2
# Relax obj value: 0.133
# Max RMSD: 0.100
# Mean RMSD: 0.099
data_MOF--net-pcl--node1-UXUYUI_clean_sbu_0--edge1-XUDNAN_clean_linker_2
_symmetry_space_group_name_H-M    P1
_symmetry_Int_Tables_number       1
_symmetry_cell_setting            triclinic
loop_
_symmetry_equiv_pos_as_xyz
'x, y, z'
_cell_length_a     63.139329
_cell_length_b     73.032855
_cell_length_c     64.535972
_cell_angle_alpha  90.024425
_cell_angle_beta   90.027567
_cell_angle_gamma 90.021179
loop_
_atom_site_label
_atom_site_type_symbol
_atom_site_fract_x
_atom_site_fract_y
_atom_site_fract_z
_atom_type_partial_charge
Li0 Li 0.1871 0.37048 0.10924 0.0
Li1 Li 0.18929 0.35553 0.0752 0.0
Li2 Li 0.18307 0.38964 0.07772 0.0
Li3 Li 0.15534 0.36714 0.08623 0.0
C4 C 0.22744 0.38132 0.09305 0.0
N5 N 0.26661 0.39429 0.10538 0.0
C6 C 0.24476 0.36945 0.09427 0.0
C7 C 0.23017 0.39987 0.09769 0.0
C8 C 0.26439 0.37624 0.10066 0.0
C9 C 0.25006 0.40614 0.10401 0.0
C10 C 0.17727 0.32953 0.10066 0.0
C11 C 0.1737 0.29883 0.0873 0.0
N12 N 0.18785 0.29283 0.10167 0.0
C13 C 0.1917 0.32305 0.11536 0.0
C14 C 0.16809 0.31732 0.08658 0.0
C15 C 0.19685 0.30444 0.11561 0.0
C16 C 0.18005 0.37339 0.1518 0.0
N17 N 0.1956 0.37001 0.13775 0.0
C18 C 0.22052 0.36464 0.16505 0.0
C19 C 0.21558 0.36568 0.14394 0.0
C20 C 0.20473 0.36804 0.17992 0.0
C21 C 0.18429 0.37258 0.17301 0.0
H22 H 0.1642 0.37647 0.14648 0.0
H23 H 0.22759 0.36263 0.13258 0.0
C24 C 0.19657 0.33475 0.03918 0.0
N25 N 0.20307 0.33689 0.0591 0.0
C26 C 0.20559 0.32132 0.0266 0.0
C27 C 0.2282 0.31258 0.05512 0.0
C28 C 0.21859 0.32614 0.06722 0.0
C29 C 0.22176 0.31004 0.03444 0.0
H30 H 0.18434 0.3435 0.03299 0.0
H31 H 0.22349 0.32804 0.08312 0.0
C32 C 0.16204 0.40495 0.11295 0.0
N33 N 0.15694 0.43759 0.13406 0.0
C34 C 0.14232 0.41364 0.11327 0.0
C35 C 0.17907 0.41273 0.12363 0.0
C36 C 0.14009 0.43017 0.12395 0.0
C37 C 0.1762 0.42926 0.13415 0.0
C38 C 0.15268 0.37166 0.04585 0.0
C39 C 0.14572 0.3883 0.03762 0.0
C40 C 0.14207 0.35548 0.04071 0.0
C41 C 0.12808 0.3885 0.02454 0.0
C42 C 0.12447 0.35625 0.02761 0.0
N43 N 0.1179 0.37261 0.01987 0.0
C44 C 0.20495 0.41244 0.0504 0.0
C45 C 0.1763 0.42746 0.06692 0.0
C46 C 0.2088 0.42781 0.03809 0.0
N47 N 0.18878 0.41245 0.06429 0.0
C48 C 0.17966 0.44318 0.055 0.0
C49 C 0.19584 0.44335 0.04005 0.0
H50 H 0.21449 0.40026 0.04848 0.0
H51 H 0.1632 0.42703 0.07763 0.0
C52 C 0.11763 0.34658 0.09132 0.0
N53 N 0.12544 0.36318 0.08569 0.0
C54 C 0.09595 0.34302 0.08992 0.0
C55 C 0.09066 0.37386 0.0774 0.0
C56 C 0.11245 0.37682 0.07905 0.0
C57 C 0.08215 0.35671 0.08271 0.0
H58 H 0.12826 0.33604 0.09678 0.0
H59 H 0.11909 0.38989 0.07461 0.0
O60 O 0.20815 0.3749 0.08662 0.0
O61 O 0.17228 0.34774 0.09998 0.0
O62 O 0.16445 0.38873 0.10257 0.0
O63 O 0.16971 0.37124 0.05899 0.0
H64 H 0.24304 0.35512 0.0905 0.0
H65 H 0.21718 0.4094 0.09626 0.0
H66 H 0.27787 0.36717 0.10184 0.0
H67 H 0.25236 0.42045 0.10772 0.0
H68 H 0.16684 0.28926 0.0764 0.0
H69 H 0.19893 0.33228 0.12638 0.0
H70 H 0.15696 0.32211 0.07507 0.0
H71 H 0.20806 0.29925 0.12684 0.0
H72 H 0.2365 0.36115 0.16966 0.0
H73 H 0.17152 0.37498 0.18388 0.0
H74 H 0.19976 0.31973 0.01093 0.0
H75 H 0.24074 0.30438 0.06181 0.0
H76 H 0.12889 0.40772 0.10531 0.0
H77 H 0.19426 0.40597 0.12407 0.0
H78 H 0.12495 0.43709 0.12422 0.0
H79 H 0.18927 0.43543 0.14245 0.0
H80 H 0.15374 0.40095 0.04137 0.0
H81 H 0.14719 0.34249 0.04698 0.0
H82 H 0.12246 0.40129 0.01813 0.0
H83 H 0.11601 0.34385 0.02365 0.0
H84 H 0.22155 0.42741 0.02688 0.0
H85 H 0.16909 0.45474 0.05679 0.0
H86 H 0.09005 0.3297 0.09452 0.0
H87 H 0.08067 0.38475 0.07156 0.0
Li88 Li 0.81672 0.63664 0.60701 0.0
Li89 Li 0.81452 0.65514 0.57382 0.0
Li90 Li 0.81694 0.62007 0.57366 0.0
Li91 Li 0.84647 0.6386 0.58357 0.0
C92 C 0.77422 0.6365 0.59298 0.0
N93 N 0.73376 0.6372 0.60932 0.0
C94 C 0.76298 0.65297 0.59401 0.0
C95 C 0.76474 0.62034 0.59998 0.0
C96 C 0.74258 0.65305 0.6024 0.0
C97 C 0.74432 0.621 0.60827 0.0
C98 C 0.84953 0.669 0.60433 0.0
C99 C 0.87519 0.69268 0.59743 0.0
N100 N 0.88553 0.68823 0.61523 0.0
C101 C 0.86034 0.6647 0.62259 0.0
C102 C 0.85695 0.68312 0.59164 0.0
C103 C 0.87854 0.67456 0.62781 0.0
C104 C 0.82212 0.62812 0.64931 0.0
N105 N 0.80909 0.63685 0.63574 0.0
C106 C 0.78804 0.64828 0.66371 0.0
C107 C 0.79233 0.64686 0.64253 0.0
C108 C 0.8014 0.63963 0.67814 0.0
C109 C 0.81853 0.62928 0.67063 0.0
H110 H 0.83573 0.62069 0.64358 0.0
H111 H 0.78261 0.65422 0.63161 0.0
C112 C 0.79233 0.67593 0.54311 0.0
N113 N 0.80184 0.67638 0.56202 0.0
C114 C 0.78205 0.6915 0.53542 0.0
C115 C 0.79175 0.70762 0.56674 0.0
C116 C 0.80181 0.69181 0.57378 0.0
C117 C 0.78145 0.70758 0.54742 0.0
H118 H 0.79246 0.6634 0.53416 0.0
H119 H 0.80931 0.69172 0.58885 0.0
C120 C 0.83358 0.59887 0.604 0.0
N121 N 0.82895 0.5626 0.61538 0.0
C122 C 0.84934 0.58613 0.59917 0.0
C123 C 0.81553 0.59316 0.61473 0.0
C124 C 0.84669 0.56785 0.60501 0.0
C125 C 0.81347 0.57478 0.62033 0.0
C126 C 0.84724 0.64218 0.54186 0.0
C127 C 0.86121 0.62835 0.53575 0.0
C128 C 0.84906 0.65965 0.5332 0.0
C129 C 0.87695 0.6323 0.5212 0.0
C130 C 0.86496 0.66304 0.51865 0.0
N131 N 0.87848 0.64942 0.51303 0.0
C132 C 0.78813 0.59401 0.55566 0.0
C133 C 0.8246 0.58667 0.55366 0.0
C134 C 0.78279 0.5775 0.54595 0.0
N135 N 0.80876 0.59815 0.55952 0.0
C136 C 0.82001 0.57004 0.54404 0.0
C137 C 0.79885 0.56518 0.5401 0.0
H138 H 0.77583 0.60351 0.56013 0.0
H139 H 0.84086 0.59031 0.55677 0.0
C140 C 0.88615 0.6268 0.5968 0.0
N141 N 0.87701 0.63911 0.58379 0.0
C142 C 0.90807 0.62473 0.59729 0.0
C143 C 0.91113 0.64893 0.57197 0.0
C144 C 0.88904 0.65051 0.57196 0.0
C145 C 0.92085 0.63556 0.5844 0.0
H146 H 0.87638 0.61844 0.60673 0.0
H147 H 0.88157 0.66066 0.56227 0.0
O148 O 0.79417 0.63617 0.58472 0.0
O149 O 0.83202 0.6592 0.5987 0.0
O150 O 0.83574 0.61679 0.59807 0.0
O151 O 0.83164 0.63858 0.55597 0.0
H152 H 0.76997 0.66559 0.58858 0.0
H153 H 0.77296 0.6074 0.59889 0.0
H154 H 0.73377 0.66572 0.60342 0.0
H155 H 0.73683 0.6086 0.61381 0.0
H156 H 0.88119 0.70358 0.58772 0.0
H157 H 0.85486 0.65373 0.63249 0.0
H158 H 0.84889 0.68647 0.57734 0.0
H159 H 0.88714 0.67132 0.64183 0.0
H160 H 0.77455 0.6563 0.66869 0.0
H161 H 0.82954 0.62269 0.68111 0.0
H162 H 0.77415 0.6908 0.52055 0.0
H163 H 0.79196 0.71975 0.5764 0.0
H164 H 0.86336 0.59024 0.59073 0.0
H165 H 0.80326 0.60282 0.61875 0.0
H166 H 0.8587 0.55784 0.60125 0.0
H167 H 0.79955 0.57019 0.62861 0.0
H168 H 0.8601 0.61479 0.54233 0.0
H169 H 0.83841 0.67052 0.53777 0.0
H170 H 0.88796 0.62177 0.51644 0.0
H171 H 0.86661 0.67651 0.51189 0.0
H172 H 0.76628 0.57448 0.54294 0.0
H173 H 0.83293 0.56094 0.54013 0.0
H174 H 0.91495 0.61463 0.60757 0.0
H175 H 0.92041 0.65765 0.56189 0.0
Li176 Li 0.18209 0.61762 0.93414 0.0
Li177 Li 0.1511 0.63864 0.92267 0.0
Li178 Li 0.18438 0.63566 0.90245 0.0
Li179 Li 0.18469 0.65151 0.93407 0.0
C180 C 0.16237 0.60637 0.8916 0.0
N181 N 0.16175 0.58754 0.85447 0.0
C182 C 0.14756 0.6109 0.87634 0.0
C183 C 0.17678 0.59219 0.88804 0.0
C184 C 0.14754 0.60125 0.85764 0.0
C185 C 0.17621 0.58283 0.86916 0.0
C186 C 0.1678 0.63947 0.97081 0.0
C187 C 0.15504 0.65005 0.00393 0.0
N188 N 0.17477 0.6478 0.01202 0.0
C189 C 0.18795 0.63733 0.97942 0.0
C190 C 0.1512 0.64595 0.98312 0.0
C191 C 0.19115 0.64159 1.00029 0.0
C192 C 0.20314 0.5917 0.96117 0.0
N193 N 0.18719 0.59457 0.94734 0.0
C194 C 0.17637 0.56328 0.94992 0.0
C195 C 0.17372 0.58086 0.9419 0.0
C196 C 0.19275 0.55987 0.96407 0.0
C197 C 0.20609 0.57434 0.96995 0.0
H198 H 0.21377 0.60275 0.96517 0.0
H199 H 0.16099 0.58353 0.93112 0.0
C200 C 0.11276 0.649 0.90436 0.0
N201 N 0.12132 0.6414 0.92163 0.0
C202 C 0.09094 0.65179 0.903 0.0
C203 C 0.08718 0.63903 0.93736 0.0
C204 C 0.10907 0.63624 0.93791 0.0
C205 C 0.07778 0.64696 0.91973 0.0
H206 H 0.12294 0.65295 0.89164 0.0
H207 H 0.11633 0.6301 0.9514 0.0
C208 C 0.2247 0.62989 0.91523 0.0
N209 N 0.26263 0.62311 0.89534 0.0
C210 C 0.23503 0.64394 0.90456 0.0
C211 C 0.23372 0.61242 0.91592 0.0
C212 C 0.25417 0.64022 0.89454 0.0
C213 C 0.25291 0.60927 0.90574 0.0
C214 C 0.16885 0.67629 0.90883 0.0
C215 C 0.18652 0.68516 0.90053 0.0
C216 C 0.15235 0.68659 0.91734 0.0
C217 C 0.18757 0.70426 0.90123 0.0
C218 C 0.15399 0.70566 0.91772 0.0
N219 N 0.17144 0.71403 0.90975 0.0
C220 C 0.18134 0.64524 0.86042 0.0
C221 C 0.20754 0.6227 0.86642 0.0
C222 C 0.1839 0.64348 0.83899 0.0
N223 N 0.19288 0.63475 0.87368 0.0
C224 C 0.21089 0.62074 0.84515 0.0
C225 C 0.19864 0.63088 0.831 0.0
H226 H 0.16938 0.65438 0.86647 0.0
H227 H 0.216 0.61395 0.87701 0.0
C228 C 0.2156 0.67785 0.94815 0.0
N229 N 0.19499 0.67248 0.94911 0.0
C230 C 0.22224 0.69384 0.95824 0.0
C231 C 0.18651 0.69807 0.97067 0.0
C232 C 0.18054 0.68221 0.96016 0.0
C233 C 0.20754 0.70432 0.96957 0.0
H234 H 0.22681 0.66991 0.93926 0.0
H235 H 0.16421 0.6778 0.96054 0.0
O236 O 0.16309 0.61606 0.90973 0.0
O237 O 0.16452 0.63575 0.95028 0.0
O238 O 0.20609 0.63328 0.92534 0.0
O239 O 0.16778 0.6576 0.90876 0.0
H240 H 0.13637 0.6219 0.87881 0.0
H241 H 0.18854 0.58868 0.89958 0.0
H242 H 0.13627 0.6047 0.84563 0.0
H243 H 0.18737 0.57192 0.86613 0.0
H244 H 0.14235 0.6551 0.01364 0.0
H245 H 0.20107 0.63283 0.96996 0.0
H246 H 0.13558 0.64798 0.97664 0.0
H247 H 0.2067 0.64008 0.00713 0.0
H248 H 0.16568 0.55246 0.94517 0.0
H249 H 0.21896 0.57213 0.98077 0.0
H250 H 0.0845 0.65756 0.8889 0.0
H251 H 0.07782 0.63527 0.95075 0.0
H252 H 0.22828 0.65753 0.90388 0.0
H253 H 0.22594 0.60139 0.92407 0.0
H254 H 0.26228 0.65094 0.88614 0.0
H255 H 0.26003 0.5958 0.90607 0.0
H256 H 0.19932 0.67737 0.89373 0.0
H257 H 0.13858 0.6799 0.92385 0.0
H258 H 0.20122 0.71131 0.895 0.0
H259 H 0.14144 0.71381 0.92441 0.0
H260 H 0.17375 0.65137 0.82886 0.0
H261 H 0.22266 0.61102 0.83989 0.0
H262 H 0.23857 0.69815 0.95673 0.0
H263 H 0.17464 0.70537 0.97952 0.0
Li264 Li 0.81763 0.39185 0.43488 0.0
Li265 Li 0.84631 0.37234 0.42577 0.0
Li266 Li 0.8173 0.37575 0.40049 0.0
Li267 Li 0.81319 0.35841 0.43403 0.0
C268 C 0.85534 0.40361 0.40725 0.0
N269 N 0.89418 0.41985 0.40017 0.0
C270 C 0.86359 0.41613 0.42152 0.0
C271 C 0.86677 0.39943 0.38932 0.0
C272 C 0.88325 0.42421 0.41765 0.0
C273 C 0.88642 0.40774 0.38606 0.0
C274 C 0.84671 0.37307 0.46719 0.0
C275 C 0.87326 0.35679 0.48674 0.0
N276 N 0.87862 0.37264 0.4965 0.0
C277 C 0.85241 0.38919 0.47748 0.0
C278 C 0.85712 0.35671 0.47193 0.0
C279 C 0.86859 0.38868 0.49224 0.0
C280 C 0.80182 0.41285 0.46835 0.0
N281 N 0.80911 0.41381 0.44857 0.0
C282 C 0.80535 0.44638 0.44856 0.0
C283 C 0.8107 0.43008 0.43849 0.0
C284 C 0.79819 0.44589 0.46918 0.0
C285 C 0.79624 0.42879 0.479 0.0
H286 H 0.80067 0.39969 0.47596 0.0
H287 H 0.81632 0.43041 0.42266 0.0
C288 C 0.8843 0.35739 0.41126 0.0
N289 N 0.87663 0.36925 0.42567 0.0
C290 C 0.90606 0.35572 0.4081 0.0
C291 C 0.91186 0.37818 0.43499 0.0
C292 C 0.88994 0.37951 0.43754 0.0
C293 C 0.92014 0.36639 0.41984 0.0
H294 H 0.87349 0.34967 0.40166 0.0
H295 H 0.88362 0.38933 0.44837 0.0
C296 C 0.77694 0.3859 0.4296 0.0
N297 N 0.7437 0.40494 0.44721 0.0
C298 C 0.76727 0.37935 0.44761 0.0
C299 C 0.7697 0.40211 0.42052 0.0
C300 C 0.75047 0.38917 0.45626 0.0
C301 C 0.75289 0.41154 0.42968 0.0
C302 C 0.83044 0.33487 0.40684 0.0
C303 C 0.8175 0.32785 0.39116 0.0
C304 C 0.84157 0.3229 0.41975 0.0
C305 C 0.81569 0.30889 0.38883 0.0
C306 C 0.83931 0.30403 0.41695 0.0
N307 N 0.82651 0.29748 0.40169 0.0
C308 C 0.82515 0.36901 0.35857 0.0
C309 C 0.79253 0.38414 0.36452 0.0
C310 C 0.82158 0.36907 0.33721 0.0
N311 N 0.81073 0.3765 0.3717 0.0
C312 C 0.78832 0.38454 0.34324 0.0
C313 C 0.80298 0.37695 0.32923 0.0
H314 H 0.8394 0.36286 0.36474 0.0
H315 H 0.78129 0.38994 0.3753 0.0
C316 C 0.80402 0.33278 0.46604 0.0
N317 N 0.79967 0.33754 0.44611 0.0
C318 C 0.79563 0.31668 0.47442 0.0
C319 C 0.77808 0.31093 0.44176 0.0
C320 C 0.78647 0.32729 0.43417 0.0
C321 C 0.78287 0.30535 0.46204 0.0
H322 H 0.8143 0.34131 0.47532 0.0
H323 H 0.78286 0.33162 0.41854 0.0
O324 O 0.83634 0.39525 0.41099 0.0
O325 O 0.83076 0.37324 0.45285 0.0
O326 O 0.79384 0.37679 0.42128 0.0
O327 O 0.83213 0.35338 0.40962 0.0
H328 H 0.85507 0.41935 0.43559 0.0
H329 H 0.86065 0.38971 0.37818 0.0
H330 H 0.8899 0.43383 0.42861 0.0
H331 H 0.89552 0.40453 0.37234 0.0
H332 H 0.88152 0.34424 0.49049 0.0
H333 H 0.84462 0.40199 0.47395 0.0
H334 H 0.85283 0.3441 0.46421 0.0
H335 H 0.87324 0.40107 0.50024 0.0
H336 H 0.8068 0.45921 0.44028 0.0
H337 H 0.791 0.42776 0.49493 0.0
H338 H 0.9118 0.34638 0.39634 0.0
H339 H 0.92216 0.38689 0.44412 0.0
H340 H 0.7728 0.36692 0.45494 0.0
H341 H 0.77725 0.40753 0.40679 0.0
H342 H 0.74287 0.3843 0.47023 0.0
H343 H 0.74722 0.42418 0.42291 0.0
H344 H 0.80871 0.33693 0.38109 0.0
H345 H 0.85177 0.32813 0.43184 0.0
H346 H 0.80562 0.30325 0.37686 0.0
H347 H 0.84772 0.2946 0.42691 0.0
H348 H 0.83315 0.36276 0.3271 0.0
H349 H 0.77387 0.39091 0.33781 0.0
H350 H 0.79966 0.31281 0.49013 0.0
H351 H 0.76807 0.30264 0.43185 0.0
Li352 Li 0.81532 0.65017 0.93609 0.0
Li353 Li 0.81896 0.61786 0.93461 0.0
Li354 Li 0.84868 0.63722 0.92562 0.0
Li355 Li 0.81754 0.63377 0.90126 0.0
C356 C 0.83214 0.64348 0.97139 0.0
N357 N 0.82558 0.66205 0.00815 0.0
C358 C 0.81728 0.63704 0.9857 0.0
C359 C 0.84377 0.65928 0.97586 0.0
C360 C 0.81419 0.64663 0.00419 0.0
C361 C 0.84018 0.66851 0.99449 0.0
C362 C 0.77776 0.62172 0.92596 0.0
C363 C 0.75012 0.60225 0.9125 0.0
N364 N 0.74289 0.59951 0.93211 0.0
C365 C 0.76997 0.61882 0.94596 0.0
C366 C 0.76771 0.61346 0.90906 0.0
C367 C 0.75237 0.60749 0.94875 0.0
C368 C 0.80958 0.68786 0.94253 0.0
N369 N 0.80241 0.67124 0.9489 0.0
C370 C 0.77709 0.68569 0.97122 0.0
C371 C 0.78647 0.66988 0.96302 0.0
C372 C 0.78404 0.70303 0.96462 0.0
C373 C 0.80069 0.70393 0.95025 0.0
H374 H 0.82202 0.6887 0.93116 0.0
H375 H 0.78084 0.65657 0.96775 0.0
C376 C 0.82274 0.5897 0.96474 0.0
N377 N 0.81294 0.59426 0.94669 0.0
C378 C 0.82126 0.57189 0.97256 0.0
C379 C 0.79948 0.56379 0.94318 0.0
C380 C 0.80139 0.58172 0.93594 0.0
C381 C 0.8098 0.55856 0.96155 0.0
H382 H 0.8325 0.59967 0.97262 0.0
H383 H 0.79444 0.58537 0.92123 0.0
C384 C 0.8474 0.66755 0.90243 0.0
N385 N 0.87898 0.6889 0.88517 0.0
C386 C 0.85006 0.66812 0.88093 0.0
C387 C 0.86067 0.67804 0.91511 0.0
C388 C 0.86614 0.67896 0.87251 0.0
C389 C 0.87659 0.68868 0.9061 0.0
C390 C 0.8446 0.5978 0.91048 0.0
C391 C 0.8599 0.592 0.92468 0.0
C392 C 0.83521 0.58512 0.89711 0.0
C393 C 0.8654 0.57348 0.92543 0.0
C394 C 0.84116 0.56672 0.89833 0.0
N395 N 0.85598 0.56133 0.91236 0.0
C396 C 0.89026 0.64089 0.94276 0.0
C397 C 0.8881 0.63987 0.90608 0.0
C398 C 0.91218 0.64349 0.94177 0.0
N399 N 0.87872 0.63947 0.92503 0.0
C400 C 0.90983 0.64288 0.90437 0.0
C401 C 0.92206 0.64487 0.92236 0.0
H402 H 0.88242 0.64018 0.95763 0.0
H403 H 0.87858 0.63827 0.89227 0.0
C404 C 0.79243 0.64343 0.86665 0.0
N405 N 0.80968 0.63376 0.87286 0.0
C406 C 0.78784 0.64526 0.84557 0.0
C407 C 0.81869 0.62693 0.83773 0.0
C408 C 0.82261 0.62537 0.85897 0.0
C409 C 0.80129 0.63723 0.83074 0.0
H410 H 0.78254 0.65007 0.87808 0.0
H411 H 0.83645 0.61806 0.86436 0.0
O412 O 0.83509 0.6345 0.953 0.0
O413 O 0.79498 0.63275 0.92287 0.0
O414 O 0.83193 0.65678 0.91098 0.0
O415 O 0.83849 0.61574 0.91002 0.0
H416 H 0.80808 0.62488 0.9825 0.0
H417 H 0.85533 0.66446 0.965 0.0
H418 H 0.80266 0.64186 0.01534 0.0
H419 H 0.84898 0.68082 0.99809 0.0
H420 H 0.74225 0.5957 0.89959 0.0
H421 H 0.77759 0.62504 0.95919 0.0
H422 H 0.77354 0.61553 0.89349 0.0
H423 H 0.74627 0.60502 0.96416 0.0
H424 H 0.76417 0.68435 0.98214 0.0
H425 H 0.80679 0.71697 0.94493 0.0
H426 H 0.82982 0.5684 0.98655 0.0
H427 H 0.79039 0.55402 0.93421 0.0
H428 H 0.83988 0.66028 0.87082 0.0
H429 H 0.85889 0.67779 0.93176 0.0
H430 H 0.86842 0.67945 0.85591 0.0
H431 H 0.88707 0.69671 0.91577 0.0
H432 H 0.8672 0.60165 0.93523 0.0
H433 H 0.82323 0.5894 0.88613 0.0
H434 H 0.87709 0.56876 0.93646 0.0
H435 H 0.83392 0.55672 0.88819 0.0
H436 H 0.92122 0.64492 0.95595 0.0
H437 H 0.91703 0.64364 0.88915 0.0
H438 H 0.77409 0.65311 0.84095 0.0
H439 H 0.8297 0.62076 0.82693 0.0
Li440 Li 0.17893 0.38874 0.4337 0.0
Li441 Li 0.18343 0.3565 0.43824 0.0
Li442 Li 0.18325 0.37136 0.40211 0.0
Li443 Li 0.14992 0.3693 0.42434 0.0
C444 C 0.22106 0.38113 0.43501 0.0
N445 N 0.2553 0.39659 0.45509 0.0
C446 C 0.22198 0.38115 0.45664 0.0
C447 C 0.23757 0.38886 0.42356 0.0
C448 C 0.23942 0.38907 0.46651 0.0
C449 C 0.25475 0.39664 0.43401 0.0
C450 C 0.15127 0.36343 0.4673 0.0
C451 C 0.12948 0.33785 0.47753 0.0
N452 N 0.12926 0.34428 0.49731 0.0
C453 C 0.15072 0.36985 0.48771 0.0
C454 C 0.14048 0.34736 0.46216 0.0
C455 C 0.13956 0.35995 0.50266 0.0
C456 C 0.17311 0.418 0.46176 0.0
N457 N 0.18507 0.41231 0.44547 0.0
C458 C 0.20325 0.44104 0.44466 0.0
C459 C 0.19998 0.4234 0.4369 0.0
C460 C 0.1909 0.44743 0.4613 0.0
C461 C 0.17578 0.43556 0.46996 0.0
H462 H 0.16105 0.40906 0.468 0.0
H463 H 0.20898 0.41874 0.42368 0.0
C464 C 0.2052 0.32283 0.44315 0.0
N465 N 0.19564 0.33669 0.45369 0.0
C466 C 0.21249 0.30731 0.45369 0.0
C467 C 0.20067 0.32093 0.48578 0.0
C468 C 0.19392 0.33626 0.47469 0.0
C469 C 0.20974 0.30608 0.47523 0.0
H470 H 0.20656 0.32358 0.42646 0.0
H471 H 0.18699 0.34765 0.48286 0.0
C472 C 0.15904 0.40829 0.40569 0.0
N473 N 0.15526 0.44584 0.40226 0.0
C474 C 0.14329 0.41756 0.41669 0.0
C475 C 0.17276 0.41807 0.39279 0.0
C476 C 0.14168 0.43656 0.4148 0.0
C477 C 0.1706 0.43706 0.39129 0.0
C478 C 0.16104 0.33306 0.40457 0.0
C479 C 0.15749 0.33153 0.38326 0.0
C480 C 0.15795 0.31778 0.41728 0.0
C481 C 0.1506 0.31486 0.37506 0.0
C482 C 0.15107 0.30133 0.40849 0.0
N483 N 0.14755 0.30023 0.38774 0.0
C484 C 0.21223 0.36451 0.36867 0.0
C485 C 0.17818 0.37555 0.35963 0.0
C486 C 0.2179 0.3634 0.34773 0.0
N487 N 0.19259 0.37039 0.37412 0.0
C488 C 0.18308 0.37451 0.33859 0.0
C489 C 0.20316 0.36829 0.3323 0.0
H490 H 0.22341 0.36055 0.38057 0.0
H491 H 0.16264 0.38009 0.36445 0.0
C492 C 0.10719 0.37591 0.4358 0.0
N493 N 0.11988 0.36694 0.42213 0.0
C494 C 0.08517 0.37538 0.43352 0.0
C495 C 0.08973 0.35614 0.40339 0.0
C496 C 0.1116 0.35716 0.40616 0.0
C497 C 0.07615 0.36554 0.41699 0.0
H498 H 0.1142 0.38381 0.44822 0.0
H499 H 0.12196 0.35044 0.39529 0.0
O500 O 0.20399 0.37369 0.42509 0.0
O501 O 0.16229 0.37296 0.45257 0.0
O502 O 0.16128 0.38978 0.40781 0.0
O503 O 0.16809 0.34927 0.4128 0.0
H504 H 0.20924 0.37531 0.4657 0.0
H505 H 0.23703 0.38896 0.40679 0.0
H506 H 0.24031 0.38928 0.48325 0.0
H507 H 0.26761 0.40275 0.42538 0.0
H508 H 0.12107 0.32539 0.47373 0.0
H509 H 0.15902 0.38226 0.49199 0.0
H510 H 0.1404 0.34239 0.44643 0.0
H511 H 0.1391 0.36471 0.51853 0.0
H512 H 0.21523 0.4496 0.43759 0.0
H513 H 0.16562 0.43996 0.48252 0.0
H514 H 0.21941 0.2961 0.44503 0.0
H515 H 0.19862 0.32061 0.50244 0.0
H516 H 0.13262 0.41017 0.42681 0.0
H517 H 0.1851 0.41109 0.38426 0.0
H518 H 0.12968 0.44394 0.42336 0.0
H519 H 0.18118 0.44483 0.38148 0.0
H520 H 0.1598 0.34314 0.37315 0.0
H521 H 0.16093 0.31849 0.43375 0.0
H522 H 0.14767 0.31355 0.3586 0.0
H523 H 0.14859 0.28943 0.41816 0.0
H524 H 0.23366 0.35878 0.3437 0.0
H525 H 0.171 0.37809 0.32739 0.0
H526 H 0.0754 0.38305 0.44423 0.0
H527 H 0.08355 0.34815 0.3906 0.0
Li528 Li 0.82321 0.37122 0.10586 0.0
Li529 Li 0.85294 0.36487 0.0826 0.0
Li530 Li 0.82475 0.38626 0.07266 0.0
Li531 Li 0.81828 0.35309 0.07409 0.0
C532 C 0.85055 0.39709 0.11348 0.0
N533 N 0.86033 0.41313 0.15106 0.0
C534 C 0.86835 0.39133 0.12458 0.0
C535 C 0.83778 0.41106 0.12142 0.0
C536 C 0.87302 0.39962 0.14356 0.0
C537 C 0.84296 0.41897 0.14047 0.0
C538 C 0.83065 0.32953 0.10221 0.0
C539 C 0.83221 0.29756 0.09291 0.0
N540 N 0.81782 0.2937 0.10797 0.0
C541 C 0.81588 0.32525 0.1176 0.0
C542 C 0.83893 0.31557 0.08979 0.0
C543 C 0.80962 0.30705 0.12028 0.0
C544 C 0.79758 0.38146 0.14064 0.0
N545 N 0.81589 0.37331 0.13451 0.0
C546 C 0.82532 0.3671 0.1697 0.0
C547 C 0.82968 0.36617 0.14852 0.0
C548 C 0.80652 0.37542 0.17658 0.0
C549 C 0.79257 0.3827 0.1617 0.0
H550 H 0.78684 0.38696 0.12918 0.0
H551 H 0.84404 0.35962 0.14319 0.0
C552 C 0.89552 0.37461 0.07502 0.0
N553 N 0.88275 0.36075 0.08148 0.0
C554 C 0.9174 0.37205 0.07372 0.0
C555 C 0.91261 0.34109 0.08611 0.0
C556 C 0.89084 0.34427 0.08718 0.0
C557 C 0.92621 0.35506 0.07922 0.0
H558 H 0.88864 0.38765 0.07078 0.0
H559 H 0.8804 0.33361 0.09266 0.0
C560 C 0.78365 0.38291 0.07764 0.0
N561 N 0.75113 0.40349 0.06099 0.0
C562 C 0.77146 0.37591 0.06139 0.0
C563 C 0.77925 0.40034 0.0855 0.0
C564 C 0.75508 0.38653 0.05317 0.0
C565 C 0.76277 0.41055 0.07684 0.0
C566 C 0.85426 0.36595 0.04221 0.0
C567 C 0.86162 0.38207 0.03302 0.0
C568 C 0.86463 0.3494 0.03826 0.0
C569 C 0.87932 0.38136 0.02005 0.0
C570 C 0.88231 0.34928 0.02525 0.0
N571 N 0.88922 0.36513 0.01648 0.0
C572 C 0.8275 0.42435 0.06342 0.0
C573 C 0.80828 0.4066 0.0391 0.0
C574 C 0.82512 0.43999 0.05115 0.0
N575 N 0.81921 0.40807 0.05717 0.0
C576 C 0.80538 0.42189 0.02644 0.0
C577 C 0.81415 0.43886 0.03221 0.0
H578 H 0.83653 0.42507 0.07763 0.0
H579 H 0.8022 0.39342 0.03431 0.0
C580 C 0.78651 0.32585 0.07303 0.0
N581 N 0.80319 0.33282 0.06231 0.0
C582 C 0.77644 0.3099 0.06622 0.0
C583 C 0.80018 0.30911 0.03688 0.0
C584 C 0.80986 0.32504 0.04432 0.0
C585 C 0.78348 0.30114 0.04809 0.0
H586 H 0.7814 0.33242 0.08718 0.0
H587 H 0.82303 0.33094 0.03598 0.0
O588 O 0.84536 0.3888 0.09516 0.0
O589 O 0.83659 0.34733 0.09899 0.0
O590 O 0.79993 0.37283 0.08569 0.0
O591 O 0.83724 0.36642 0.05532 0.0
H592 H 0.87831 0.38045 0.11875 0.0
H593 H 0.82385 0.41556 0.11309 0.0
H594 H 0.88669 0.39525 0.15238 0.0
H595 H 0.83314 0.4297 0.14687 0.0
H596 H 0.83835 0.28665 0.08329 0.0
H597 H 0.8091 0.33587 0.1272 0.0
H598 H 0.85011 0.31865 0.07758 0.0
H599 H 0.79814 0.30356 0.13207 0.0
H600 H 0.83638 0.36103 0.18053 0.0
H601 H 0.77801 0.38939 0.16627 0.0
H602 H 0.92725 0.38315 0.06818 0.0
H603 H 0.91875 0.32791 0.09088 0.0
H604 H 0.7747 0.36248 0.05506 0.0
H605 H 0.78866 0.40602 0.09795 0.0
H606 H 0.74556 0.38132 0.04054 0.0
H607 H 0.75928 0.4241 0.08267 0.0
H608 H 0.85391 0.39502 0.03599 0.0
H609 H 0.85935 0.33684 0.04547 0.0
H610 H 0.88523 0.39374 0.01289 0.0
H611 H 0.89059 0.3366 0.02219 0.0
H612 H 0.83247 0.45266 0.0561 0.0
H613 H 0.79657 0.42035 0.01215 0.0
H614 H 0.7634 0.30442 0.07517 0.0
H615 H 0.80618 0.30278 0.02289 0.0
Li616 Li 0.18092 0.63568 0.60697 0.0
Li617 Li 0.15057 0.63907 0.58406 0.0
Li618 Li 0.1815 0.61855 0.57474 0.0
Li619 Li 0.18524 0.65226 0.57336 0.0
C620 C 0.15637 0.60772 0.61583 0.0
N621 N 0.14827 0.59122 0.6535 0.0
C622 C 0.13941 0.61365 0.628 0.0
C623 C 0.16908 0.59328 0.62268 0.0
C624 C 0.13559 0.60514 0.64703 0.0
C625 C 0.16477 0.58515 0.64182 0.0
C626 C 0.15651 0.67548 0.5968 0.0
C627 C 0.14125 0.70001 0.57669 0.0
N628 N 0.13517 0.70847 0.59449 0.0
C629 C 0.15025 0.68451 0.6149 0.0
C630 C 0.15208 0.68335 0.57755 0.0
C631 C 0.13942 0.70114 0.61341 0.0
C632 C 0.20556 0.62572 0.64251 0.0
N633 N 0.18802 0.63479 0.63587 0.0
C634 C 0.17742 0.64057 0.67087 0.0
C635 C 0.17414 0.64231 0.64954 0.0
C636 C 0.19506 0.63082 0.67819 0.0
C637 C 0.20936 0.6235 0.6637 0.0
H638 H 0.21636 0.61986 0.63139 0.0
H639 H 0.16009 0.64911 0.64386 0.0
C640 C 0.11202 0.62733 0.56915 0.0
N641 N 0.12054 0.63993 0.58221 0.0
C642 C 0.09013 0.6252 0.56784 0.0
C643 C 0.08604 0.64924 0.59328 0.0
C644 C 0.10811 0.65093 0.59408 0.0
C645 C 0.07682 0.63598 0.58029 0.0
H646 H 0.12233 0.61864 0.56007 0.0
H647 H 0.11526 0.66055 0.60471 0.0
C648 C 0.22277 0.62488 0.58206 0.0
N649 N 0.25926 0.60593 0.57214 0.0
C650 C 0.23779 0.6327 0.56884 0.0
C651 C 0.2264 0.6075 0.59039 0.0
C652 C 0.25611 0.62288 0.56398 0.0
C653 C 0.24491 0.59811 0.58514 0.0
C654 C 0.15937 0.64004 0.53763 0.0
C655 C 0.1696 0.63184 0.5208 0.0
C656 C 0.14204 0.65154 0.53403 0.0
C657 C 0.16267 0.63561 0.50069 0.0
C658 C 0.13557 0.65496 0.51369 0.0
N659 N 0.14595 0.64701 0.49758 0.0
C660 C 0.17584 0.58138 0.56375 0.0
C661 C 0.20356 0.59621 0.54559 0.0
C662 C 0.17843 0.56559 0.55175 0.0
N663 N 0.18816 0.59635 0.56032 0.0
C664 C 0.20674 0.58072 0.5333 0.0
C665 C 0.19379 0.56524 0.53598 0.0
H666 H 0.16348 0.58194 0.57533 0.0
H667 H 0.2129 0.60837 0.54286 0.0
C668 C 0.20343 0.68797 0.56652 0.0
N669 N 0.19936 0.67122 0.55815 0.0
C670 C 0.21405 0.70133 0.55493 0.0
C671 C 0.21624 0.6799 0.5265 0.0
C672 C 0.20567 0.667 0.53861 0.0
C673 C 0.22069 0.69734 0.53461 0.0
H674 H 0.19859 0.6909 0.58225 0.0
H675 H 0.20284 0.65347 0.53252 0.0
O676 O 0.16076 0.61626 0.59748 0.0
O677 O 0.16695 0.65909 0.59802 0.0
O678 O 0.20468 0.63426 0.58688 0.0
O679 O 0.16578 0.63626 0.55748 0.0
H680 H 0.12948 0.62486 0.62295 0.0
H681 H 0.1822 0.58848 0.61339 0.0
H682 H 0.12262 0.60968 0.65669 0.0
H683 H 0.17455 0.57404 0.64739 0.0
H684 H 0.13775 0.70623 0.56187 0.0
H685 H 0.15366 0.67873 0.62995 0.0
H686 H 0.1572 0.67682 0.56344 0.0
H687 H 0.13442 0.70822 0.62729 0.0
H688 H 0.16584 0.64619 0.68148 0.0
H689 H 0.22325 0.61602 0.66871 0.0
H690 H 0.08371 0.61498 0.55742 0.0
H691 H 0.07637 0.65767 0.60333 0.0
H692 H 0.23536 0.64621 0.56243 0.0
H693 H 0.2149 0.6012 0.60053 0.0
H694 H 0.26784 0.62874 0.55372 0.0
H695 H 0.24784 0.58459 0.59134 0.0
H696 H 0.18289 0.6228 0.52319 0.0
H697 H 0.13348 0.65767 0.54675 0.0
H698 H 0.17059 0.62946 0.48756 0.0
H699 H 0.12222 0.66387 0.51073 0.0
H700 H 0.1679 0.55409 0.55421 0.0
H701 H 0.21895 0.58103 0.52153 0.0
H702 H 0.21739 0.71449 0.56194 0.0
H703 H 0.22083 0.6762 0.51088 0.0
Li704 Li 0.67984 0.87077 0.10711 0.0
Li705 Li 0.68543 0.85348 0.07587 0.0
Li706 Li 0.67675 0.88587 0.07399 0.0
Li707 Li 0.6502 0.86381 0.08448 0.0
C708 C 0.7161 0.88813 0.09223 0.0
N709 N 0.74326 0.91576 0.10451 0.0
C710 C 0.7377 0.88698 0.08776 0.0
C711 C 0.70829 0.90335 0.10293 0.0
C712 C 0.75119 0.90108 0.09411 0.0
C713 C 0.72228 0.91717 0.109 0.0
C714 C 0.678 0.83333 0.11182 0.0
C715 C 0.67663 0.80715 0.13452 0.0
N716 N 0.69813 0.80735 0.1359 0.0
C717 C 0.70009 0.8333 0.11347 0.0
C718 C 0.66616 0.82018 0.12243 0.0
C719 C 0.70996 0.82005 0.12572 0.0
C720 C 0.67055 0.87291 0.14926 0.0
N721 N 0.68707 0.87264 0.13578 0.0
C722 C 0.7118 0.87225 0.16386 0.0
C723 C 0.70744 0.87232 0.14262 0.0
C724 C 0.69504 0.8722 0.17824 0.0
C725 C 0.67417 0.87267 0.17061 0.0
H726 H 0.65451 0.87283 0.14336 0.0
H727 H 0.72033 0.87174 0.13162 0.0
C728 C 0.71608 0.83968 0.04861 0.0
N729 N 0.70072 0.83445 0.06209 0.0
C730 C 0.7263 0.82669 0.03627 0.0
C731 C 0.70511 0.80307 0.05231 0.0
C732 C 0.69523 0.81653 0.06428 0.0
C733 C 0.72063 0.80812 0.0378 0.0
H734 H 0.71997 0.85405 0.04706 0.0
H735 H 0.68266 0.81272 0.07481 0.0
C736 C 0.64093 0.89969 0.09428 0.0
N737 N 0.60828 0.92401 0.08691 0.0
C738 C 0.63256 0.90154 0.07433 0.0
C739 C 0.63267 0.91017 0.11048 0.0
C740 C 0.61606 0.91392 0.07092 0.0
C741 C 0.61618 0.92241 0.10644 0.0
C742 C 0.65729 0.85325 0.0432 0.0
C743 C 0.65758 0.85745 0.02209 0.0
C744 C 0.64971 0.83622 0.04974 0.0
C745 C 0.65024 0.84452 0.00783 0.0
C746 C 0.64252 0.82366 0.03501 0.0
N747 N 0.64293 0.82803 0.01453 0.0
C748 C 0.68977 0.90505 0.03889 0.0
C749 C 0.67656 0.92464 0.06512 0.0
C750 C 0.6923 0.91985 0.02544 0.0
N751 N 0.68167 0.90762 0.05816 0.0
C752 C 0.67857 0.93983 0.05207 0.0
C753 C 0.68619 0.93753 0.03174 0.0
H754 H 0.69393 0.89139 0.03385 0.0
H755 H 0.67038 0.92639 0.08061 0.0
C756 C 0.61221 0.85252 0.10259 0.0
N757 N 0.62071 0.85823 0.08438 0.0
C758 C 0.59061 0.84864 0.10399 0.0
C759 C 0.58691 0.85649 0.06779 0.0
C760 C 0.60856 0.86037 0.06715 0.0
C761 C 0.5776 0.85056 0.08642 0.0
H762 H 0.62224 0.85118 0.11611 0.0
H763 H 0.61563 0.86516 0.0529 0.0
O764 O 0.70279 0.87441 0.08599 0.0
O765 O 0.66788 0.84629 0.10016 0.0
O766 O 0.65696 0.88756 0.09813 0.0
O767 O 0.66472 0.86571 0.05727 0.0
H768 H 0.74398 0.87529 0.07946 0.0
H769 H 0.69165 0.9045 0.1066 0.0
H770 H 0.76795 0.90036 0.09076 0.0
H771 H 0.71645 0.92901 0.1173 0.0
H772 H 0.66766 0.79688 0.14282 0.0
H773 H 0.70953 0.84338 0.10542 0.0
H774 H 0.64905 0.82007 0.12135 0.0
H775 H 0.72703 0.81987 0.12714 0.0
H776 H 0.72815 0.87211 0.16892 0.0
H777 H 0.6607 0.87228 0.18098 0.0
H778 H 0.73833 0.83117 0.02544 0.0
H779 H 0.70005 0.78896 0.0538 0.0
H780 H 0.63874 0.89358 0.06157 0.0
H781 H 0.63896 0.90884 0.12602 0.0
H782 H 0.60945 0.91551 0.05556 0.0
H783 H 0.60964 0.93062 0.11884 0.0
H784 H 0.66345 0.87056 0.01678 0.0
H785 H 0.6494 0.8327 0.06602 0.0
H786 H 0.65038 0.84758 0.99143 0.0
H787 H 0.63663 0.81042 0.03985 0.0
H788 H 0.69877 0.91739 0.01016 0.0
H789 H 0.6735 0.9531 0.05766 0.0
H790 H 0.58414 0.84449 0.11879 0.0
H791 H 0.57762 0.858 0.05379 0.0
Li792 Li 0.31204 0.15183 0.57581 0.0
Li793 Li 0.31908 0.13589 0.60748 0.0
Li794 Li 0.34769 0.14226 0.5834 0.0
Li795 Li 0.32076 0.11765 0.57559 0.0
C796 C 0.32544 0.17806 0.60017 0.0
N797 N 0.31446 0.21467 0.60159 0.0
C798 C 0.31126 0.18438 0.61519 0.0
C799 C 0.33412 0.19039 0.58595 0.0
C800 C 0.3059 0.20294 0.61565 0.0
C801 C 0.32833 0.20883 0.58689 0.0
C802 C 0.27853 0.12589 0.59904 0.0
C803 C 0.25291 0.10343 0.61016 0.0
N804 N 0.24373 0.11621 0.62258 0.0
C805 C 0.26882 0.13879 0.6119 0.0
C806 C 0.27053 0.10805 0.59815 0.0
C807 C 0.25126 0.13363 0.6237 0.0
C808 C 0.29873 0.17487 0.54227 0.0
N809 N 0.29514 0.17034 0.56242 0.0
C810 C 0.26778 0.19287 0.5648 0.0
C811 C 0.27987 0.17892 0.57361 0.0
C812 C 0.27102 0.1979 0.54402 0.0
C813 C 0.28679 0.18865 0.53271 0.0
H814 H 0.31082 0.16775 0.53358 0.0
H815 H 0.27723 0.17517 0.58953 0.0
C816 C 0.32311 0.1464 0.64936 0.0
N817 N 0.31345 0.13397 0.63681 0.0
C818 C 0.31996 0.14591 0.67077 0.0
C819 C 0.29744 0.11948 0.66616 0.0
C820 C 0.30129 0.12032 0.64487 0.0
C821 C 0.30673 0.13248 0.67937 0.0
H822 H 0.33335 0.15671 0.64271 0.0
H823 H 0.29466 0.10998 0.63484 0.0
C824 C 0.34699 0.13867 0.54249 0.0
N825 N 0.37939 0.14015 0.51377 0.0
C826 C 0.35455 0.12258 0.53338 0.0
C827 C 0.35574 0.15552 0.53682 0.0
C828 C 0.37097 0.12362 0.51892 0.0
C829 C 0.37216 0.15597 0.52233 0.0
C830 C 0.34815 0.11114 0.61599 0.0
C831 C 0.36355 0.11965 0.62821 0.0
C832 C 0.33865 0.09494 0.62283 0.0
C833 C 0.36911 0.11185 0.64721 0.0
C834 C 0.34466 0.08757 0.64191 0.0
N835 N 0.35962 0.09612 0.65362 0.0
C836 C 0.38487 0.16351 0.58906 0.0
C837 C 0.39035 0.1347 0.57307 0.0
C838 C 0.40653 0.1673 0.58826 0.0
N839 N 0.37722 0.1475 0.58135 0.0
C840 C 0.41211 0.13798 0.57179 0.0
C841 C 0.42051 0.15447 0.57948 0.0
H842 H 0.3742 0.17321 0.59616 0.0
H843 H 0.38391 0.12188 0.56751 0.0
C844 C 0.30012 0.08989 0.55124 0.0
N845 N 0.317 0.09408 0.56345 0.0
C846 C 0.29762 0.07209 0.5435 0.0
C847 C 0.33022 0.06355 0.56059 0.0
C848 C 0.33209 0.08143 0.56792 0.0
C849 C 0.31265 0.05857 0.54845 0.0
H850 H 0.2884 0.10027 0.54784 0.0
H851 H 0.34557 0.08523 0.57732 0.0
O852 O 0.33069 0.15989 0.59929 0.0
O853 O 0.29567 0.13065 0.58724 0.0
O854 O 0.33117 0.13791 0.55693 0.0
O855 O 0.34204 0.11887 0.59766 0.0
H856 H 0.30415 0.17504 0.62616 0.0
H857 H 0.34508 0.18576 0.57421 0.0
H858 H 0.29485 0.20799 0.6271 0.0
H859 H 0.33484 0.2185 0.57591 0.0
H860 H 0.24658 0.08968 0.60965 0.0
H861 H 0.27509 0.15249 0.61323 0.0
H862 H 0.27789 0.09784 0.58841 0.0
H863 H 0.2437 0.14345 0.63384 0.0
H864 H 0.25619 0.19978 0.57436 0.0
H865 H 0.28971 0.19184 0.51658 0.0
H866 H 0.3275 0.15613 0.68046 0.0
H867 H 0.28754 0.10864 0.67226 0.0
H868 H 0.34793 0.10943 0.53753 0.0
H869 H 0.35003 0.1681 0.54365 0.0
H870 H 0.37706 0.11127 0.51183 0.0
H871 H 0.37918 0.16891 0.51791 0.0
H872 H 0.37094 0.13226 0.62317 0.0
H873 H 0.32652 0.08831 0.61364 0.0
H874 H 0.38092 0.11834 0.6569 0.0
H875 H 0.33734 0.07511 0.64748 0.0
H876 H 0.41228 0.18 0.59485 0.0
H877 H 0.42219 0.12772 0.56476 0.0
H878 H 0.28382 0.06882 0.53424 0.0
H879 H 0.34243 0.0537 0.56441 0.0
Li880 Li 0.68221 0.11513 0.93116 0.0
Li881 Li 0.65625 0.14016 0.92217 0.0
Li882 Li 0.68782 0.13563 0.9015 0.0
Li883 Li 0.69025 0.14918 0.93514 0.0
C884 C 0.66021 0.11116 0.88742 0.0
N885 N 0.65336 0.0983 0.84773 0.0
C886 C 0.64626 0.12034 0.8742 0.0
C887 C 0.67056 0.09538 0.88054 0.0
C888 C 0.64305 0.11363 0.85416 0.0
C889 C 0.66691 0.08911 0.8604 0.0
C890 C 0.65066 0.13339 0.96154 0.0
C891 C 0.62133 0.14878 0.97799 0.0
N892 N 0.61341 0.13229 0.98398 0.0
C893 C 0.64228 0.11661 0.96796 0.0
C894 C 0.64018 0.14962 0.9667 0.0
C895 C 0.62342 0.11634 0.97927 0.0
C896 C 0.69982 0.08619 0.9558 0.0
N897 N 0.68458 0.09091 0.94188 0.0
C898 C 0.67046 0.06056 0.94241 0.0
C899 C 0.66997 0.07857 0.93525 0.0
C900 C 0.68617 0.05511 0.95657 0.0
C901 C 0.70093 0.06824 0.96337 0.0
H902 H 0.71116 0.09634 0.96091 0.0
H903 H 0.65779 0.08279 0.92449 0.0
C904 C 0.61956 0.16215 0.91657 0.0
N905 N 0.62664 0.145 0.92085 0.0
C906 C 0.59786 0.16562 0.9152 0.0
C907 C 0.59116 0.13368 0.92253 0.0
C908 C 0.613 0.13083 0.92372 0.0
C909 C 0.58333 0.15127 0.91813 0.0
H910 H 0.63075 0.1731 0.91403 0.0
H911 H 0.61912 0.11727 0.9268 0.0
C912 C 0.72689 0.12514 0.91382 0.0
N913 N 0.76427 0.11726 0.89344 0.0
C914 C 0.73824 0.13908 0.90399 0.0
C915 C 0.7346 0.1072 0.91337 0.0
C916 C 0.75708 0.13481 0.89372 0.0
C917 C 0.75353 0.1035 0.90298 0.0
C918 C 0.68146 0.17683 0.91157 0.0
C919 C 0.69793 0.18313 0.89898 0.0
C920 C 0.67191 0.18879 0.92568 0.0
C921 C 0.70464 0.2013 0.90078 0.0
C922 C 0.67912 0.20684 0.92705 0.0
N923 N 0.6952 0.21266 0.91468 0.0
C924 C 0.68707 0.14814 0.86032 0.0
C925 C 0.70954 0.12248 0.86472 0.0
C926 C 0.69064 0.14803 0.83896 0.0
N927 N 0.69656 0.13555 0.87278 0.0
C928 C 0.71382 0.12204 0.84347 0.0
C929 C 0.70418 0.13486 0.8303 0.0
H930 H 0.67624 0.158 0.86693 0.0
H931 H 0.71602 0.11197 0.87459 0.0
C932 C 0.6958 0.16966 0.97188 0.0
N933 N 0.70432 0.16663 0.95285 0.0
C934 C 0.70448 0.18282 0.9851 0.0
C935 C 0.73091 0.18939 0.95911 0.0
C936 C 0.72172 0.17605 0.9464 0.0
C937 C 0.72224 0.19297 0.97876 0.0
H938 H 0.68211 0.16195 0.97679 0.0
H939 H 0.72833 0.17341 0.93128 0.0
O940 O 0.66409 0.11786 0.90683 0.0
O941 O 0.66887 0.1339 0.95004 0.0
O942 O 0.70848 0.12902 0.92406 0.0
O943 O 0.67488 0.159 0.91028 0.0
H944 H 0.63823 0.13264 0.87927 0.0
H945 H 0.68156 0.08824 0.89055 0.0
H946 H 0.63242 0.12066 0.84369 0.0
H947 H 0.67492 0.07699 0.85481 0.0
H948 H 0.61297 0.16123 0.98193 0.0
H949 H 0.65018 0.10391 0.96419 0.0
H950 H 0.64634 0.16273 0.96176 0.0
H951 H 0.61672 0.10344 0.98426 0.0
H952 H 0.65847 0.05106 0.93707 0.0
H953 H 0.71337 0.06464 0.97417 0.0
H954 H 0.59254 0.17941 0.91194 0.0
H955 H 0.58057 0.12216 0.92457 0.0
H956 H 0.73239 0.15297 0.90396 0.0
H957 H 0.726 0.09623 0.92084 0.0
H958 H 0.76594 0.14545 0.88592 0.0
H959 H 0.75965 0.08967 0.90245 0.0
H960 H 0.70563 0.17407 0.88809 0.0
H961 H 0.65931 0.18412 0.9357 0.0
H962 H 0.71743 0.20633 0.8912 0.0
H963 H 0.67199 0.21619 0.93802 0.0
H964 H 0.68286 0.15813 0.82931 0.0
H965 H 0.724 0.11142 0.83733 0.0
H966 H 0.69709 0.18521 0.99999 0.0
H967 H 0.74475 0.19671 0.95367 0.0
Li968 Li 0.34607 0.86887 0.42755 0.0
Li969 Li 0.31591 0.88903 0.43438 0.0
Li970 Li 0.31044 0.85571 0.43061 0.0
Li971 Li 0.31899 0.87489 0.40034 0.0
C972 C 0.33513 0.86012 0.46876 0.0
N973 N 0.35205 0.84218 0.50261 0.0
C974 C 0.33805 0.86945 0.48746 0.0
C975 C 0.34075 0.84167 0.4673 0.0
C976 C 0.34666 0.86015 0.50439 0.0
C977 C 0.34928 0.83284 0.48458 0.0
C978 C 0.35327 0.90559 0.42015 0.0
C979 C 0.37734 0.93039 0.41272 0.0
N980 N 0.38194 0.93177 0.43325 0.0
C981 C 0.35822 0.90729 0.44119 0.0
C982 C 0.36287 0.91726 0.40579 0.0
C983 C 0.37275 0.92059 0.4475 0.0
C984 C 0.38721 0.85808 0.41586 0.0
N985 N 0.3756 0.86461 0.43199 0.0
C986 C 0.40634 0.86531 0.45362 0.0
C987 C 0.38475 0.86836 0.45059 0.0
C988 C 0.41872 0.85838 0.43732 0.0
C989 C 0.40889 0.85481 0.4182 0.0
H990 H 0.37958 0.85539 0.40116 0.0
H991 H 0.37542 0.87394 0.46308 0.0
C992 C 0.29966 0.90778 0.46895 0.0
N993 N 0.30769 0.91034 0.44965 0.0
C994 C 0.29665 0.9227 0.48218 0.0
C995 C 0.30941 0.9427 0.45513 0.0
C996 C 0.3119 0.92742 0.44232 0.0
C997 C 0.30223 0.94043 0.4756 0.0
H998 H 0.29635 0.89405 0.47434 0.0
H999 H 0.31822 0.92913 0.42689 0.0
C1000 C 0.33544 0.83458 0.40071 0.0
N1001 N 0.34242 0.80017 0.38422 0.0
C1002 C 0.32505 0.82918 0.38257 0.0
C1003 C 0.34964 0.82256 0.41027 0.0
C1004 C 0.32871 0.8117 0.37453 0.0
C1005 C 0.35288 0.8052 0.40174 0.0
C1006 C 0.27931 0.88878 0.4106 0.0
C1007 C 0.25747 0.88604 0.41224 0.0
C1008 C 0.28701 0.9046 0.401 0.0
C1009 C 0.24366 0.89921 0.40425 0.0
C1010 C 0.27269 0.91744 0.39321 0.0
N1011 N 0.25149 0.91451 0.39498 0.0
C1012 C 0.28967 0.83441 0.4612 0.0
C1013 C 0.29191 0.82 0.42841 0.0
C1014 C 0.2815 0.81843 0.47008 0.0
N1015 N 0.29536 0.83471 0.44086 0.0
C1016 C 0.28386 0.80374 0.43662 0.0
C1017 C 0.27907 0.80265 0.45785 0.0
H1018 H 0.29226 0.84636 0.47076 0.0
H1019 H 0.29585 0.82068 0.41218 0.0
C1020 C 0.33138 0.8866 0.36101 0.0
N1021 N 0.31533 0.87816 0.37125 0.0
C1022 C 0.32974 0.89012 0.33983 0.0
C1023 C 0.29531 0.87561 0.33987 0.0
C1024 C 0.2975 0.8726 0.36119 0.0
C1025 C 0.31149 0.88468 0.32901 0.0
H1026 H 0.34546 0.89066 0.36937 0.0
H1027 H 0.28497 0.8659 0.36975 0.0
O1028 O 0.32691 0.86912 0.45199 0.0
O1029 O 0.33905 0.89267 0.41356 0.0
O1030 O 0.33215 0.85171 0.40869 0.0
O1031 O 0.29297 0.87595 0.41834 0.0
H1032 H 0.33387 0.88378 0.48882 0.0
H1033 H 0.33838 0.83422 0.45303 0.0
H1034 H 0.34908 0.86721 0.51893 0.0
H1035 H 0.35368 0.81854 0.48366 0.0
H1036 H 0.38488 0.93951 0.40177 0.0
H1037 H 0.3508 0.89856 0.45257 0.0
H1038 H 0.35915 0.91624 0.38947 0.0
H1039 H 0.37668 0.92205 0.46373 0.0
H1040 H 0.41331 0.86865 0.46848 0.0
H1041 H 0.41779 0.84937 0.40525 0.0
H1042 H 0.29057 0.92025 0.49762 0.0
H1043 H 0.31411 0.956 0.44933 0.0
H1044 H 0.3141 0.83831 0.3749 0.0
H1045 H 0.35823 0.82661 0.42402 0.0
H1046 H 0.32065 0.80731 0.3606 0.0
H1047 H 0.36378 0.79576 0.40902 0.0
H1048 H 0.25127 0.87385 0.41962 0.0
H1049 H 0.30383 0.90695 0.39951 0.0
H1050 H 0.22672 0.89727 0.40541 0.0
H1051 H 0.27843 0.92973 0.38574 0.0
H1052 H 0.27802 0.8182 0.4865 0.0
H1053 H 0.28175 0.79203 0.42652 0.0
H1054 H 0.34267 0.89693 0.33195 0.0
H1055 H 0.28097 0.87128 0.33205 0.0
Li1056 Li 0.31797 0.15125 0.93713 0.0
Li1057 Li 0.32664 0.11975 0.93381 0.0
Li1058 Li 0.3546 0.142 0.92584 0.0
Li1059 Li 0.32312 0.13701 0.90287 0.0
C1060 C 0.34084 0.12896 0.97112 0.0
N1061 N 0.34201 0.10928 0.00764 0.0
C1062 C 0.32493 0.13128 0.98595 0.0
C1063 C 0.35741 0.11674 0.97491 0.0
C1064 C 0.32581 0.1212 0.00432 0.0
C1065 C 0.35768 0.10686 0.99345 0.0
C1066 C 0.28502 0.12108 0.93061 0.0
C1067 C 0.26528 0.09285 0.92873 0.0
N1068 N 0.25365 0.09818 0.9454 0.0
C1069 C 0.27285 0.1263 0.9477 0.0
C1070 C 0.28118 0.10425 0.92098 0.0
C1071 C 0.25706 0.11453 0.95495 0.0
C1072 C 0.28507 0.17679 0.94162 0.0
N1073 N 0.3029 0.17038 0.95092 0.0
C1074 C 0.3015 0.19432 0.9762 0.0
C1075 C 0.31107 0.17861 0.96807 0.0
C1076 C 0.28364 0.20173 0.9663 0.0
C1077 C 0.27521 0.1926 0.94901 0.0
H1078 H 0.27905 0.17005 0.9279 0.0
H1079 H 0.32551 0.17342 0.97491 0.0
C1080 C 0.33504 0.08206 0.93649 0.0
N1081 N 0.32333 0.09551 0.94547 0.0
C1082 C 0.3335 0.06402 0.94341 0.0
C1083 C 0.30849 0.07394 0.96939 0.0
C1084 C 0.31033 0.09181 0.96178 0.0
C1085 C 0.32 0.05975 0.95998 0.0
H1086 H 0.34566 0.0853 0.92391 0.0
H1087 H 0.30124 0.10265 0.96883 0.0
C1088 C 0.32934 0.17817 0.91168 0.0
N1089 N 0.31537 0.21402 0.91083 0.0
C1090 C 0.31331 0.1834 0.89795 0.0
C1091 C 0.33826 0.19118 0.92497 0.0
C1092 C 0.3065 0.2016 0.89773 0.0
C1093 C 0.33095 0.20923 0.92432 0.0
C1094 C 0.35154 0.11345 0.89109 0.0
C1095 C 0.3681 0.12153 0.88001 0.0
C1096 C 0.33969 0.09941 0.882 0.0
C1097 C 0.37248 0.11545 0.85994 0.0
C1098 C 0.34455 0.09373 0.86189 0.0
N1099 N 0.36071 0.10181 0.85136 0.0
C1100 C 0.39767 0.13287 0.92914 0.0
C1101 C 0.3913 0.16402 0.92101 0.0
C1102 C 0.41951 0.13552 0.92747 0.0
N1103 N 0.38411 0.14702 0.92584 0.0
C1104 C 0.41301 0.16731 0.91927 0.0
C1105 C 0.42746 0.15291 0.92227 0.0
H1106 H 0.39146 0.11937 0.93243 0.0
H1107 H 0.38019 0.17493 0.91802 0.0
C1108 C 0.29896 0.12672 0.8673 0.0
N1109 N 0.31529 0.13718 0.87425 0.0
C1110 C 0.29437 0.12586 0.84615 0.0
C1111 C 0.32309 0.14699 0.83974 0.0
C1112 C 0.32723 0.1473 0.86099 0.0
C1113 C 0.30656 0.13603 0.83198 0.0
H1114 H 0.28976 0.11875 0.87813 0.0
H1115 H 0.34017 0.15547 0.86695 0.0
O1116 O 0.34014 0.13858 0.95296 0.0
O1117 O 0.30047 0.13247 0.92325 0.0
O1118 O 0.33574 0.16028 0.9126 0.0
O1119 O 0.34653 0.11961 0.91051 0.0
H1120 H 0.31188 0.14056 0.98317 0.0
H1121 H 0.3698 0.11475 0.96357 0.0
H1122 H 0.31355 0.12277 0.01588 0.0
H1123 H 0.37033 0.09726 0.99653 0.0
H1124 H 0.26225 0.07972 0.92153 0.0
H1125 H 0.27565 0.13924 0.9554 0.0
H1126 H 0.29064 0.09988 0.90792 0.0
H1127 H 0.24757 0.11836 0.96821 0.0
H1128 H 0.30856 0.2011 0.98944 0.0
H1129 H 0.2614 0.19785 0.94103 0.0
H1130 H 0.34294 0.05352 0.93597 0.0
H1131 H 0.29787 0.07119 0.98218 0.0
H1132 H 0.30598 0.17347 0.88778 0.0
H1133 H 0.35033 0.1873 0.93603 0.0
H1134 H 0.29405 0.20581 0.88724 0.0
H1135 H 0.33758 0.2194 0.93466 0.0
H1136 H 0.37728 0.13255 0.88669 0.0
H1137 H 0.32667 0.09314 0.89029 0.0
H1138 H 0.38518 0.12164 0.85113 0.0
H1139 H 0.33542 0.08297 0.85461 0.0
H1140 H 0.42998 0.12392 0.92953 0.0
H1141 H 0.4184 0.18097 0.91542 0.0
H1142 H 0.28169 0.117 0.84095 0.0
H1143 H 0.33271 0.15531 0.82954 0.0
Li1144 Li 0.68283 0.85888 0.43733 0.0
Li1145 Li 0.6756 0.89181 0.43286 0.0
Li1146 Li 0.64683 0.86822 0.42682 0.0
Li1147 Li 0.67584 0.8727 0.40188 0.0
C1148 C 0.6609 0.86915 0.47302 0.0
N1149 N 0.65831 0.85817 0.51394 0.0
C1150 C 0.67025 0.87968 0.48864 0.0
C1151 C 0.64986 0.85323 0.4783 0.0
C1152 C 0.66887 0.87385 0.50921 0.0
C1153 C 0.64883 0.84785 0.49905 0.0
C1154 C 0.71694 0.88847 0.42472 0.0
C1155 C 0.73781 0.91492 0.41554 0.0
N1156 N 0.75105 0.91139 0.43167 0.0
C1157 C 0.73089 0.88499 0.44107 0.0
C1158 C 0.72054 0.90344 0.41171 0.0
C1159 C 0.748 0.89677 0.44438 0.0
C1160 C 0.69987 0.82348 0.44525 0.0
N1161 N 0.69806 0.84076 0.45292 0.0
C1162 C 0.71505 0.8317 0.48442 0.0
C1163 C 0.70594 0.84514 0.4719 0.0
C1164 C 0.71623 0.81353 0.47733 0.0
C1165 C 0.7089 0.80957 0.45726 0.0
H1166 H 0.69383 0.82036 0.42997 0.0
H1167 H 0.70491 0.85905 0.47747 0.0
C1168 C 0.66803 0.92959 0.43583 0.0
N1169 N 0.68051 0.91602 0.44347 0.0
C1170 C 0.67014 0.94751 0.44304 0.0
C1171 C 0.69758 0.93723 0.46638 0.0
C1172 C 0.69511 0.91949 0.45851 0.0
C1173 C 0.68503 0.95152 0.45854 0.0
H1174 H 0.65618 0.92649 0.42429 0.0
H1175 H 0.70469 0.90847 0.46457 0.0
C1176 C 0.65358 0.83375 0.41044 0.0
N1177 N 0.62971 0.8026 0.40344 0.0
C1178 C 0.64728 0.82915 0.39033 0.0
C1179 C 0.64808 0.82229 0.42691 0.0
C1180 C 0.63512 0.81341 0.38712 0.0
C1181 C 0.63592 0.80666 0.42309 0.0
C1182 C 0.64746 0.89936 0.39298 0.0
C1183 C 0.62747 0.89592 0.38452 0.0
C1184 C 0.66095 0.91189 0.38331 0.0
C1185 C 0.62148 0.90481 0.36626 0.0
C1186 C 0.6544 0.92048 0.36506 0.0
N1187 N 0.63498 0.91677 0.35697 0.0
C1188 C 0.60812 0.86883 0.44819 0.0
C1189 C 0.60573 0.85531 0.41489 0.0
C1190 C 0.58659 0.86581 0.45164 0.0
N1191 N 0.6173 0.86336 0.43017 0.0
C1192 C 0.58406 0.8522 0.41759 0.0
C1193 C 0.57428 0.85739 0.43623 0.0
H1194 H 0.61748 0.87571 0.45984 0.0
H1195 H 0.61321 0.85157 0.40046 0.0
C1196 C 0.70323 0.87342 0.36681 0.0
N1197 N 0.6827 0.87194 0.37295 0.0
C1198 C 0.70841 0.873 0.34574 0.0
C1199 C 0.67125 0.86956 0.3377 0.0
C1200 C 0.66682 0.86994 0.35889 0.0
C1201 C 0.69229 0.87107 0.33086 0.0
H1202 H 0.7156 0.8749 0.37828 0.0
H1203 H 0.65065 0.86854 0.36412 0.0
O1204 O 0.66229 0.87456 0.45274 0.0
O1205 O 0.69997 0.87718 0.42138 0.0
O1206 O 0.66537 0.84921 0.41388 0.0
O1207 O 0.65369 0.89061 0.41073 0.0
H1208 H 0.6786 0.89215 0.48493 0.0
H1209 H 0.64196 0.84522 0.46657 0.0
H1210 H 0.67619 0.8818 0.52141 0.0
H1211 H 0.6404 0.83551 0.50331 0.0
H1212 H 0.7407 0.92661 0.40565 0.0
H1213 H 0.72851 0.87336 0.45114 0.0
H1214 H 0.71014 0.90615 0.39878 0.0
H1215 H 0.75885 0.8943 0.45705 0.0
H1216 H 0.72097 0.83549 0.49958 0.0
H1217 H 0.70944 0.79576 0.45115 0.0
H1218 H 0.6599 0.95806 0.43682 0.0
H1219 H 0.70929 0.93978 0.47831 0.0
H1220 H 0.65165 0.83764 0.37733 0.0
H1221 H 0.65334 0.82528 0.44246 0.0
H1222 H 0.63002 0.80978 0.37165 0.0
H1223 H 0.63151 0.79773 0.43573 0.0
H1224 H 0.61671 0.88645 0.3919 0.0
H1225 H 0.67632 0.91493 0.38979 0.0
H1226 H 0.60611 0.90218 0.35948 0.0
H1227 H 0.66476 0.93011 0.35735 0.0
H1228 H 0.57956 0.87036 0.46606 0.0
H1229 H 0.57508 0.84572 0.4053 0.0
H1230 H 0.72484 0.87433 0.34115 0.0
H1231 H 0.65835 0.86774 0.32683 0.0
Li1232 Li 0.32064 0.87401 0.10631 0.0
Li1233 Li 0.34971 0.86391 0.08212 0.0
Li1234 Li 0.3239 0.88674 0.07125 0.0
Li1235 Li 0.31381 0.85544 0.07346 0.0
C1236 C 0.35312 0.90496 0.09183 0.0
N1237 N 0.36982 0.93931 0.08455 0.0
C1238 C 0.3698 0.90714 0.07782 0.0
C1239 C 0.34496 0.92021 0.10218 0.0
C1240 C 0.37802 0.92464 0.07434 0.0
C1241 C 0.35362 0.93747 0.09828 0.0
C1242 C 0.34253 0.83579 0.10819 0.0
C1243 C 0.36554 0.80949 0.10608 0.0
N1244 N 0.36916 0.81067 0.12682 0.0
C1245 C 0.34636 0.83666 0.12951 0.0
C1246 C 0.35206 0.82201 0.0964 0.0
C1247 C 0.3599 0.82386 0.13862 0.0
C1248 C 0.2979 0.87153 0.14502 0.0
N1249 N 0.31509 0.87837 0.13493 0.0
C1250 C 0.32794 0.89198 0.16616 0.0
C1251 C 0.33008 0.88825 0.14509 0.0
C1252 C 0.31029 0.88532 0.17703 0.0
C1253 C 0.2952 0.87483 0.16626 0.0
H1254 H 0.28635 0.8635 0.13659 0.0
H1255 H 0.34389 0.89307 0.13686 0.0
C1256 C 0.39014 0.85528 0.0647 0.0
N1257 N 0.37901 0.85767 0.08254 0.0
C1258 C 0.41183 0.85144 0.06544 0.0
C1259 C 0.41011 0.85256 0.10284 0.0
C1260 C 0.38862 0.85675 0.10137 0.0
C1261 C 0.42197 0.84989 0.08473 0.0
H1262 H 0.38225 0.85664 0.04991 0.0
H1263 H 0.37959 0.85942 0.11526 0.0
C1264 C 0.28312 0.89046 0.08262 0.0
N1265 N 0.25321 0.91777 0.07786 0.0
C1266 C 0.27434 0.89397 0.06313 0.0
C1267 C 0.27664 0.90082 0.0997 0.0
C1268 C 0.25927 0.90785 0.06104 0.0
C1269 C 0.2615 0.91456 0.09697 0.0
C1270 C 0.33233 0.85629 0.03743 0.0
C1271 C 0.31874 0.86292 0.02205 0.0
C1272 C 0.34199 0.83922 0.03489 0.0
C1273 C 0.31492 0.85227 0.00445 0.0
C1274 C 0.33773 0.82897 0.01708 0.0
N1275 N 0.32439 0.83565 1.00236 0.0
C1276 C 0.33183 0.90928 0.03685 0.0
C1277 C 0.31174 0.9244 0.06264 0.0
C1278 C 0.33096 0.92468 0.02411 0.0
N1279 N 0.32184 0.90918 0.0555 0.0
C1280 C 0.3104 0.94013 0.05035 0.0
C1281 C 0.31983 0.94031 0.03063 0.0
H1282 H 0.34059 0.89737 0.03186 0.0
H1283 H 0.30465 0.92437 0.07786 0.0
C1284 C 0.29906 0.81862 0.0668 0.0
N1285 N 0.29639 0.83651 0.06154 0.0
C1286 C 0.28686 0.80497 0.05727 0.0
C1287 C 0.26943 0.82841 0.03717 0.0
C1288 C 0.28174 0.84155 0.04722 0.0
C1289 C 0.2718 0.80978 0.04214 0.0
H1290 H 0.31064 0.81491 0.07837 0.0
H1291 H 0.27989 0.85578 0.04324 0.0
O1292 O 0.34445 0.88803 0.09496 0.0
O1293 O 0.32954 0.84836 0.09895 0.0
O1294 O 0.29774 0.8768 0.0851 0.0
O1295 O 0.33599 0.86637 0.05496 0.0
H1296 H 0.37615 0.89549 0.06954 0.0
H1297 H 0.33185 0.91878 0.11286 0.0
H1298 H 0.39086 0.92655 0.06346 0.0
H1299 H 0.34739 0.94942 0.10608 0.0
H1300 H 0.37313 0.79884 0.09711 0.0
H1301 H 0.33907 0.84716 0.13891 0.0
H1302 H 0.34925 0.82109 0.07992 0.0
H1303 H 0.36309 0.82443 0.15508 0.0
H1304 H 0.3402 0.89976 0.17393 0.0
H1305 H 0.28137 0.86944 0.1741 0.0
H1306 H 0.42055 0.84958 0.05115 0.0
H1307 H 0.41749 0.85184 0.11798 0.0
H1308 H 0.27944 0.88639 0.04966 0.0
H1309 H 0.28326 0.89834 0.11489 0.0
H1310 H 0.25248 0.9108 0.04602 0.0
H1311 H 0.25638 0.9227 0.11005 0.0
H1312 H 0.31089 0.87598 0.02384 0.0
H1313 H 0.35259 0.8339 0.04657 0.0
H1314 H 0.30432 0.85717 0.99251 0.0
H1315 H 0.34502 0.8157 0.01498 0.0
H1316 H 0.33907 0.92436 0.00933 0.0
H1317 H 0.30174 0.95187 0.05609 0.0
H1318 H 0.28907 0.79085 0.0619 0.0
H1319 H 0.25841 0.83287 0.02535 0.0
Li1320 Li 0.64967 0.14458 0.5858 0.0
Li1321 Li 0.68053 0.13829 0.60704 0.0
Li1322 Li 0.68518 0.15468 0.57317 0.0
Li1323 Li 0.67749 0.12141 0.57495 0.0
C1324 C 0.66264 0.18067 0.59817 0.0
N1325 N 0.64916 0.21669 0.59726 0.0
C1326 C 0.66072 0.19065 0.61658 0.0
C1327 C 0.65801 0.18915 0.5793 0.0
C1328 C 0.65379 0.2088 0.6158 0.0
C1329 C 0.65115 0.20732 0.57915 0.0
C1330 C 0.65352 0.11286 0.6174 0.0
C1331 C 0.66153 0.09037 0.64358 0.0
N1332 N 0.64626 0.09768 0.65593 0.0
C1333 C 0.6378 0.12008 0.63027 0.0
C1334 C 0.6654 0.09782 0.62401 0.0
C1335 C 0.63441 0.11223 0.64972 0.0
C1336 C 0.60759 0.13745 0.57462 0.0
N1337 N 0.6199 0.14925 0.58563 0.0
C1338 C 0.58954 0.16699 0.59494 0.0
C1339 C 0.61129 0.16366 0.59598 0.0
C1340 C 0.57648 0.15521 0.5834 0.0
C1341 C 0.58572 0.14017 0.57332 0.0
H1342 H 0.61485 0.12603 0.56665 0.0
H1343 H 0.62123 0.17259 0.60508 0.0
C1344 C 0.70584 0.12698 0.64182 0.0
N1345 N 0.68899 0.13714 0.63554 0.0
C1346 C 0.71101 0.12582 0.66286 0.0
C1347 C 0.68163 0.14588 0.67053 0.0
C1348 C 0.67691 0.14646 0.6494 0.0
C1349 C 0.69886 0.13539 0.67761 0.0
H1350 H 0.71512 0.11957 0.63055 0.0
H1351 H 0.66337 0.15416 0.64404 0.0
C1352 C 0.65387 0.14413 0.53954 0.0
N1353 N 0.63502 0.15094 0.50157 0.0
C1354 C 0.6597 0.134 0.52205 0.0
C1355 C 0.63825 0.15761 0.53767 0.0
C1356 C 0.65007 0.13769 0.50301 0.0
C1357 C 0.62896 0.16087 0.51837 0.0
C1358 C 0.71982 0.12468 0.57976 0.0
C1359 C 0.73413 0.13152 0.56517 0.0
C1360 C 0.72289 0.1072 0.58806 0.0
C1361 C 0.7512 0.12066 0.55897 0.0
C1362 C 0.74014 0.09676 0.58144 0.0
N1363 N 0.75382 0.10365 0.56715 0.0
C1364 C 0.71065 0.18667 0.56704 0.0
C1365 C 0.7005 0.17095 0.53652 0.0
C1366 C 0.72158 0.19977 0.55535 0.0
N1367 N 0.70034 0.17267 0.55747 0.0
C1368 C 0.71101 0.18377 0.52425 0.0
C1369 C 0.72187 0.19844 0.53358 0.0
H1370 H 0.7104 0.18764 0.58377 0.0
H1371 H 0.69251 0.15958 0.52926 0.0
C1372 C 0.6708 0.0837 0.56448 0.0
N1373 N 0.68208 0.09907 0.56 0.0
C1374 C 0.67291 0.06801 0.55215 0.0
C1375 C 0.69859 0.08414 0.53127 0.0
C1376 C 0.69598 0.09944 0.54393 0.0
C1377 C 0.68666 0.06825 0.53501 0.0
H1378 H 0.65971 0.0838 0.57725 0.0
H1379 H 0.70452 0.11189 0.54046 0.0
O1380 O 0.66944 0.16287 0.5987 0.0
O1381 O 0.65752 0.12073 0.59859 0.0
O1382 O 0.6631 0.14055 0.55837 0.0
O1383 O 0.70294 0.13507 0.58589 0.0
H1384 H 0.66453 0.18447 0.63134 0.0
H1385 H 0.66 0.18188 0.5649 0.0
H1386 H 0.65213 0.21663 0.62994 0.0
H1387 H 0.64751 0.21401 0.56463 0.0
H1388 H 0.6707 0.07881 0.64897 0.0
H1389 H 0.62853 0.13177 0.62539 0.0
H1390 H 0.67761 0.09208 0.6142 0.0
H1391 H 0.6224 0.11775 0.65992 0.0
H1392 H 0.58298 0.17856 0.60325 0.0
H1393 H 0.57622 0.13082 0.56418 0.0
H1394 H 0.72419 0.11729 0.66749 0.0
H1395 H 0.67193 0.15372 0.68113 0.0
H1396 H 0.67164 0.1235 0.52305 0.0
H1397 H 0.63308 0.16541 0.55094 0.0
H1398 H 0.65455 0.12999 0.48937 0.0
H1399 H 0.61686 0.17126 0.51677 0.0
H1400 H 0.73203 0.14504 0.55864 0.0
H1401 H 0.71187 0.10164 0.59923 0.0
H1402 H 0.76236 0.12575 0.54763 0.0
H1403 H 0.74262 0.08316 0.58761 0.0
H1404 H 0.72993 0.21065 0.5633 0.0
H1405 H 0.7104 0.18225 0.50757 0.0
H1406 H 0.66325 0.05612 0.55549 0.0
H1407 H 0.70958 0.08489 0.51842 0.0
H1408 H 0.04893 0.37956 0.09231 0.0
H1409 H 0.06322 0.32555 0.06793 0.0
H1410 H 0.02497 0.31928 0.06433 0.0
H1411 H 0.0031 0.36665 0.12155 0.0
H1412 H 0.98873 0.38738 0.11588 0.0
H1413 H 0.01724 0.38763 0.11651 0.0
H1414 H 0.01803 0.40073 0.0792 0.0
H1415 H 0.98951 0.40051 0.07845 0.0
H1416 H 0.00441 0.38871 0.05873 0.0
H1417 H 0.98518 0.31888 0.06335 0.0
H1418 H 0.94664 0.32436 0.06515 0.0
H1419 H 0.95833 0.37864 0.09015 0.0
C1420 C 0.04404 0.36647 0.08605 0.0
C1421 C 0.0591 0.35302 0.08047 0.0
C1422 C 0.05199 0.33597 0.0726 0.0
C1423 C 0.0303 0.33232 0.07037 0.0
C1424 C 0.0159 0.34586 0.07605 0.0
C1425 C 0.02246 0.36259 0.08373 0.0
C1426 C 0.00373 0.37474 0.08882 0.0
C1427 C 0.00317 0.37937 0.11207 0.0
C1428 C 0.00394 0.3922 0.0755 0.0
C1429 C 0.98561 0.36222 0.08281 0.0
C1430 C 0.99297 0.34563 0.07548 0.0
C1431 C 0.97923 0.33181 0.06911 0.0
C1432 C 0.95736 0.33501 0.07031 0.0
C1433 C 0.94943 0.35191 0.07783 0.0
C1434 C 0.96385 0.36566 0.0841 0.0
H1435 H 0.95316 0.66105 0.58346 0.0
H1436 H 0.9409 0.60255 0.58286 0.0
H1437 H 0.97927 0.59653 0.58172 0.0
H1438 H 0.9979 0.65995 0.54826 0.0
H1439 H 0.01238 0.67753 0.56184 0.0
H1440 H 0.98385 0.67737 0.5625 0.0
H1441 H 0.9848 0.67703 0.60263 0.0
H1442 H 0.01332 0.67713 0.6021 0.0
H1443 H 0.99941 0.65933 0.61584 0.0
H1444 H 0.01856 0.59663 0.58086 0.0
H1445 H 0.05689 0.60283 0.58046 0.0
H1446 H 0.04431 0.66128 0.58112 0.0
C1447 C 0.95858 0.64699 0.58294 0.0
C1448 C 0.94403 0.63226 0.5834 0.0
C1449 C 0.95174 0.61404 0.58288 0.0
C1450 C 0.9735 0.61048 0.5821 0.0
C1451 C 0.9874 0.62526 0.58183 0.0
C1452 C 0.98032 0.64316 0.58223 0.0
C1453 C 0.99876 0.65649 0.58201 0.0
C1454 C 0.99818 0.66854 0.56249 0.0
C1455 C 0.99908 0.66818 0.60183 0.0
C1456 C 0.01725 0.64325 0.58145 0.0
C1457 C 0.01027 0.62532 0.5813 0.0
C1458 C 0.02425 0.6106 0.58085 0.0
C1459 C 0.046 0.61428 0.5805 0.0
C1460 C 0.05363 0.63254 0.58057 0.0
C1461 C 0.03898 0.64719 0.58114 0.0
H1462 H 0.9549 0.6254 0.93914 0.0
H1463 H 0.94055 0.673 0.90157 0.0
H1464 H 0.97886 0.67944 0.89792 0.0
H1465 H 0.00094 0.64394 0.96574 0.0
H1466 H 0.01539 0.62267 0.96492 0.0
H1467 H 0.98686 0.62246 0.96563 0.0
H1468 H 0.98606 0.60291 0.93211 0.0
H1469 H 0.01457 0.60304 0.93131 0.0
H1470 H 0.99961 0.61104 0.90931 0.0
H1471 H 0.01852 0.68066 0.89844 0.0
H1472 H 0.05698 0.67574 0.90123 0.0
H1473 H 0.0456 0.62586 0.93624 0.0
C1474 C 0.95991 0.63727 0.93035 0.0
C1475 C 0.94494 0.64882 0.92073 0.0
C1476 C 0.95191 0.66404 0.90902 0.0
C1477 C 0.97357 0.66782 0.90694 0.0
C1478 C 0.988 0.65611 0.91649 0.0
C1479 C 0.9815 0.64106 0.92783 0.0
C1480 C 1.00029 0.63012 0.93556 0.0
C1481 C 0.0009 0.62978 0.95938 0.0
C1482 C 1.00012 0.61063 0.92653 0.0
C1483 C 0.01835 0.64137 0.92679 0.0
C1484 C 0.01091 0.65639 0.91604 0.0
C1485 C 0.02455 0.66885 0.90667 0.0
C1486 C 0.04641 0.66582 0.9082 0.0
C1487 C 0.0545 0.65028 0.91877 0.0
C1488 C 0.04012 0.63798 0.92824 0.0
H1489 H 0.04406 0.36439 0.44605 0.0
H1490 H 0.05539 0.36718 0.37973 0.0
H1491 H 0.01694 0.36704 0.37344 0.0
H1492 H 0.99842 0.33504 0.44405 0.0
H1493 H 0.98467 0.34665 0.46469 0.0
H1494 H 0.01319 0.34654 0.46413 0.0
H1495 H 0.01354 0.382 0.46535 0.0
H1496 H 0.98502 0.38223 0.46595 0.0
H1497 H 0.99897 0.39475 0.44614 0.0
H1498 H 0.97744 0.36667 0.37414 0.0
H1499 H 0.93919 0.36691 0.3819 0.0
H1500 H 0.95314 0.36526 0.44774 0.0
C1501 C 0.03848 0.3651 0.4302 0.0
C1502 C 0.05286 0.3656 0.41338 0.0
C1503 C 0.0448 0.36636 0.39288 0.0
C1504 C 0.02295 0.36643 0.38913 0.0
C1505 C 0.00928 0.36585 0.40603 0.0
C1506 C 0.01668 0.36528 0.42616 0.0
C1507 C 0.99852 0.36499 0.44153 0.0
C1508 C 0.99872 0.34725 0.45435 0.0
C1509 C 0.99905 0.38201 0.45557 0.0
C1510 C 0.97979 0.36551 0.42685 0.0
C1511 C 0.98639 0.36591 0.40645 0.0
C1512 C 0.97206 0.36631 0.39005 0.0
C1513 C 0.95037 0.36633 0.39461 0.0
C1514 C 0.9432 0.366 0.41541 0.0
C1515 C 0.95817 0.36562 0.4317 0.0
H1516 H 0.45434 0.86768 0.06499 0.0
H1517 H 0.44119 0.82359 0.10807 0.0
H1518 H 0.47964 0.81796 0.11196 0.0
H1519 H 0.50058 0.84716 0.04011 0.0
H1520 H 0.51452 0.86864 0.03822 0.0
H1521 H 0.48599 0.86827 0.03768 0.0
H1522 H 0.48496 0.89093 0.06858 0.0
H1523 H 0.51345 0.89134 0.06923 0.0
H1524 H 0.49878 0.88526 0.09217 0.0
H1525 H 0.51941 0.81766 0.11174 0.0
H1526 H 0.55776 0.82334 0.10852 0.0
H1527 H 0.54494 0.86886 0.06706 0.0
C1528 C 0.45961 0.85665 0.07495 0.0
C1529 C 0.44491 0.84594 0.08611 0.0
C1530 C 0.45229 0.83191 0.0994 0.0
C1531 C 0.47405 0.82859 0.10164 0.0
C1532 C 0.48817 0.83952 0.09059 0.0
C1533 C 0.48128 0.85332 0.07757 0.0
C1534 C 0.49976 0.86378 0.06842 0.0
C1535 C 0.50024 0.86184 0.0447 0.0
C1536 C 0.4992 0.88402 0.075 0.0
C1537 C 0.51812 0.85376 0.07839 0.0
C1538 C 0.5111 0.83972 0.09097 0.0
C1539 C 0.5251 0.82866 0.10197 0.0
C1540 C 0.54687 0.8321 0.10017 0.0
C1541 C 0.55448 0.84662 0.08762 0.0
C1542 C 0.53978 0.85749 0.07655 0.0
H1543 H 0.54395 0.13045 0.58715 0.0
H1544 H 0.55689 0.18795 0.57597 0.0
H1545 H 0.51847 0.19397 0.57325 0.0
H1546 H 0.49956 0.12633 0.55215 0.0
H1547 H 0.48495 0.11115 0.5689 0.0
H1548 H 0.51347 0.11132 0.56967 0.0
H1549 H 0.51245 0.11788 0.60913 0.0
H1550 H 0.48394 0.1177 0.60849 0.0
H1551 H 0.4978 0.13735 0.61859 0.0
H1552 H 0.4787 0.19365 0.57139 0.0
H1553 H 0.44034 0.18726 0.57171 0.0
H1554 H 0.45333 0.13012 0.58534 0.0
C1555 C 0.53869 0.14427 0.58396 0.0
C1556 C 0.55339 0.15874 0.58174 0.0
C1557 C 0.54589 0.1767 0.5779 0.0
C1558 C 0.52412 0.18024 0.57622 0.0
C1559 C 0.51006 0.16567 0.57851 0.0
C1560 C 0.51702 0.14807 0.5824 0.0
C1561 C 0.49858 0.13494 0.58471 0.0
C1562 C 0.49918 0.12006 0.56785 0.0
C1563 C 0.49817 0.12648 0.60653 0.0
C1564 C 0.48016 0.14792 0.58147 0.0
C1565 C 0.48713 0.16556 0.57783 0.0
C1566 C 0.47305 0.17991 0.57435 0.0
C1567 C 0.45127 0.17615 0.5747 0.0
C1568 C 0.4437 0.1582 0.57865 0.0
C1569 C 0.45849 0.14394 0.58201 0.0
H1570 H 0.55119 0.13727 0.94219 0.0
H1571 H 0.56308 0.17243 0.88921 0.0
H1572 H 0.52466 0.17749 0.88529 0.0
H1573 H 0.50492 0.11556 0.92166 0.0
H1574 H 0.49139 0.11451 0.94622 0.0
H1575 H 0.5199 0.11423 0.94541 0.0
H1576 H 0.52113 0.14232 0.96992 0.0
H1577 H 0.49262 0.14269 0.97082 0.0
H1578 H 0.50698 0.16286 0.96295 0.0
H1579 H 0.48497 0.17787 0.88633 0.0
H1580 H 0.44672 0.17364 0.89228 0.0
H1581 H 0.46057 0.13842 0.94478 0.0
C1582 C 0.54572 0.14599 0.92972 0.0
C1583 C 0.56019 0.15452 0.91605 0.0
C1584 C 0.55236 0.16598 0.90007 0.0
C1585 C 0.53054 0.16886 0.89765 0.0
C1586 C 0.51675 0.16021 0.91133 0.0
C1587 C 0.524 0.14903 0.92707 0.0
C1588 C 0.50579 0.14114 0.93948 0.0
C1589 C 0.50549 0.12011 0.9381 0.0
C1590 C 0.50669 0.14765 0.96213 0.0
C1591 C 0.48716 0.14949 0.92812 0.0
C1592 C 0.49384 0.16049 0.91198 0.0
C1593 C 0.47955 0.16942 0.89904 0.0
C1594 C 0.45783 0.16703 0.90264 0.0
C1595 C 0.45056 0.15579 0.91909 0.0
C1596 C 0.46555 0.14699 0.93199 0.0
H1597 H 0.45112 0.8658 0.4101 0.0
H1598 H 0.43848 0.84383 0.47136 0.0
H1599 H 0.47686 0.84003 0.47717 0.0
H1600 H 0.4959 0.83572 0.39821 0.0
H1601 H 0.51022 0.8534 0.38468 0.0
H1602 H 0.48169 0.85366 0.38499 0.0
H1603 H 0.48223 0.88659 0.39995 0.0
H1604 H 0.51073 0.88642 0.39974 0.0
H1605 H 0.49673 0.89114 0.42348 0.0
H1606 H 0.51655 0.84012 0.47706 0.0
H1607 H 0.55495 0.84361 0.47075 0.0
H1608 H 0.54176 0.86485 0.40931 0.0
C1609 C 0.45639 0.85988 0.42459 0.0
C1610 C 0.44176 0.85516 0.4403 0.0
C1611 C 0.44938 0.84778 0.45921 0.0
C1612 C 0.47114 0.84545 0.4626 0.0
C1613 C 0.4851 0.85045 0.44689 0.0
C1614 C 0.47806 0.85742 0.42822 0.0
C1615 C 0.49643 0.86224 0.41415 0.0
C1616 C 0.49603 0.85055 0.39434 0.0
C1617 C 0.49653 0.88282 0.40904 0.0
C1618 C 0.51491 0.85711 0.42794 0.0
C1619 C 0.50802 0.8503 0.44674 0.0
C1620 C 0.52214 0.8453 0.46234 0.0
C1621 C 0.54389 0.84742 0.45866 0.0
C1622 C 0.5513 0.85443 0.43953 0.0
C1623 C 0.53656 0.85917 0.42395 0.0
H1624 H 0.19094 0.39017 0.21165 0.0
H1625 H 0.2283 0.34151 0.19927 0.0
H1626 H 0.234 0.33738 0.23684 0.0
H1627 H 0.22179 0.40637 0.25598 0.0
H1628 H 0.1987 0.41431 0.26973 0.0
H1629 H 0.19887 0.41413 0.24181 0.0
H1630 H 0.16478 0.39435 0.24171 0.0
H1631 H 0.16453 0.39443 0.26959 0.0
H1632 H 0.16444 0.373 0.25572 0.0
H1633 H 0.23331 0.33726 0.27595 0.0
H1634 H 0.22677 0.3414 0.31334 0.0
H1635 H 0.19066 0.39065 0.30009 0.0
C1636 C 0.2004 0.37868 0.21682 0.0
C1637 C 0.20923 0.3662 0.20247 0.0
C1638 C 0.22164 0.35142 0.20991 0.0
C1639 C 0.22488 0.34891 0.23124 0.0
C1640 C 0.21573 0.36135 0.24496 0.0
C1641 C 0.20385 0.37601 0.23803 0.0
C1642 C 0.19516 0.38706 0.25597 0.0
C1643 C 0.20417 0.40662 0.25586 0.0
C1644 C 0.17079 0.38721 0.25573 0.0
C1645 C 0.20365 0.37612 0.27409 0.0
C1646 C 0.21555 0.36139 0.26743 0.0
C1647 C 0.22426 0.3489 0.28135 0.0
C1648 C 0.22056 0.35145 0.30261 0.0
C1649 C 0.20825 0.3664 0.30982 0.0
C1650 C 0.19997 0.37897 0.29522 0.0
H1651 H 0.80721 0.61445 0.70957 0.0
H1652 H 0.78891 0.67091 0.69828 0.0
H1653 H 0.78485 0.67576 0.73582 0.0
H1654 H 0.77251 0.60638 0.75364 0.0
H1655 H 0.79178 0.59277 0.76733 0.0
H1656 H 0.79187 0.59329 0.73941 0.0
H1657 H 0.83116 0.60356 0.73973 0.0
H1658 H 0.83119 0.60308 0.76762 0.0
H1659 H 0.83865 0.6237 0.75413 0.0
H1660 H 0.78462 0.6751 0.77459 0.0
H1661 H 0.78851 0.66903 0.81193 0.0
H1662 H 0.80709 0.61304 0.79832 0.0
C1663 C 0.80232 0.62784 0.71495 0.0
C1664 C 0.7982 0.64224 0.70083 0.0
C1665 C 0.79172 0.65951 0.70864 0.0
C1666 C 0.7895 0.66246 0.72999 0.0
C1667 C 0.79382 0.64802 0.74342 0.0
C1668 C 0.80009 0.63105 0.73624 0.0
C1669 C 0.80452 0.61806 0.75404 0.0
C1670 C 0.78926 0.60166 0.75357 0.0
C1671 C 0.82776 0.61174 0.75386 0.0
C1672 C 0.80002 0.63047 0.77234 0.0
C1673 C 0.79376 0.64766 0.76585 0.0
C1674 C 0.78929 0.66163 0.77987 0.0
C1675 C 0.7914 0.65799 0.8011 0.0
C1676 C 0.79794 0.6405 0.80818 0.0
C1677 C 0.80216 0.62657 0.79349 0.0
H1678 H 0.19393 0.65579 0.79894 0.0
H1679 H 0.20659 0.59828 0.81108 0.0
H1680 H 0.20884 0.59253 0.77361 0.0
H1681 H 0.15965 0.6477 0.75564 0.0
H1682 H 0.16842 0.66754 0.74143 0.0
H1683 H 0.16935 0.66753 0.76932 0.0
H1684 H 0.20939 0.67524 0.76816 0.0
H1685 H 0.2086 0.67525 0.74025 0.0
H1686 H 0.22708 0.66067 0.75371 0.0
H1687 H 0.20903 0.59271 0.73474 0.0
H1688 H 0.20552 0.59865 0.69722 0.0
H1689 H 0.1908 0.65556 0.71014 0.0
C1690 C 0.19711 0.64195 0.79381 0.0
C1691 C 0.20038 0.62757 0.80821 0.0
C1692 C 0.20463 0.60971 0.80059 0.0
C1693 C 0.20577 0.60623 0.77925 0.0
C1694 C 0.20242 0.62069 0.76559 0.0
C1695 C 0.19804 0.63817 0.77254 0.0
C1696 C 0.19416 0.6511 0.75455 0.0
C1697 C 0.17155 0.65892 0.75528 0.0
C1698 C 0.2108 0.66647 0.75415 0.0
C1699 C 0.19695 0.63812 0.73642 0.0
C1700 C 0.2019 0.62068 0.74314 0.0
C1701 C 0.20522 0.60632 0.72929 0.0
C1702 C 0.20331 0.60985 0.70801 0.0
C1703 C 0.19796 0.62757 0.70075 0.0
C1704 C 0.19479 0.64186 0.71523 0.0
H1705 H 0.83359 0.38204 0.20919 0.0
H1706 H 0.76779 0.37013 0.19501 0.0
H1707 H 0.75942 0.37033 0.23237 0.0
H1708 H 0.83711 0.35329 0.25373 0.0
H1709 H 0.85416 0.36862 0.26792 0.0
H1710 H 0.85474 0.36847 0.24003 0.0
H1711 H 0.84686 0.40329 0.23951 0.0
H1712 H 0.84629 0.40356 0.26741 0.0
H1713 H 0.82389 0.41193 0.25291 0.0
H1714 H 0.75852 0.37062 0.27148 0.0
H1715 H 0.76515 0.37109 0.30918 0.0
H1716 H 0.83154 0.38285 0.2977 0.0
C1717 C 0.81742 0.37942 0.2139 0.0
C1718 C 0.80134 0.37611 0.19909 0.0
C1719 C 0.78033 0.37298 0.20599 0.0
C1720 C 0.77544 0.37295 0.22721 0.0
C1721 C 0.79171 0.37612 0.24136 0.0
C1722 C 0.81226 0.37933 0.23499 0.0
C1723 C 0.82691 0.38201 0.25334 0.0
C1724 C 0.84425 0.36721 0.25377 0.0
C1725 C 0.83655 0.40135 0.25328 0.0
C1726 C 0.81143 0.3796 0.27105 0.0
C1727 C 0.79119 0.37628 0.26383 0.0
C1728 C 0.77429 0.37334 0.2773 0.0
C1729 C 0.77819 0.37374 0.29872 0.0
C1730 C 0.79886 0.37705 0.3065 0.0
C1731 C 0.8156 0.38009 0.29234 0.0
H1732 H 0.671 0.88754 0.29871 0.0
H1733 H 0.7248 0.8525 0.31209 0.0
H1734 H 0.7323 0.85002 0.27462 0.0
H1735 H 0.65343 0.86371 0.25384 0.0
H1736 H 0.64566 0.88405 0.23998 0.0
H1737 H 0.64519 0.88383 0.26787 0.0
H1738 H 0.66973 0.91227 0.26872 0.0
H1739 H 0.67024 0.91261 0.24082 0.0
H1740 H 0.6947 0.91163 0.25519 0.0
H1741 H 0.73263 0.84991 0.23558 0.0
H1742 H 0.72636 0.85271 0.19803 0.0
H1743 H 0.67293 0.88862 0.21015 0.0
C1744 C 0.68437 0.87934 0.29377 0.0
C1745 C 0.69733 0.87022 0.30836 0.0
C1746 C 0.71481 0.8598 0.30124 0.0
C1747 C 0.71913 0.85824 0.27998 0.0
C1748 C 0.70592 0.86727 0.26603 0.0
C1749 C 0.68896 0.87771 0.27263 0.0
C1750 C 0.677 0.88579 0.25445 0.0
C1751 C 0.65396 0.87893 0.25402 0.0
C1752 C 0.67799 0.90682 0.25482 0.0
C1753 C 0.68968 0.87804 0.23656 0.0
C1754 C 0.70631 0.86743 0.24356 0.0
C1755 C 0.71981 0.85838 0.22992 0.0
C1756 C 0.71619 0.86017 0.20856 0.0
C1757 C 0.69923 0.871 0.20096 0.0
C1758 C 0.68594 0.88011 0.21531 0.0
H1759 H 0.33533 0.13663 0.79984 0.0
H1760 H 0.26787 0.13338 0.81254 0.0
H1761 H 0.26072 0.13126 0.77505 0.0
H1762 H 0.33059 0.16547 0.75481 0.0
H1763 H 0.35213 0.15458 0.74126 0.0
H1764 H 0.352 0.15517 0.76916 0.0
H1765 H 0.35542 0.11982 0.77015 0.0
H1766 H 0.3555 0.11912 0.74225 0.0
H1767 H 0.3363 0.10595 0.75656 0.0
H1768 H 0.26088 0.12927 0.7361 0.0
H1769 H 0.26833 0.12907 0.69847 0.0
H1770 H 0.33542 0.1352 0.71119 0.0
C1771 C 0.31901 0.13568 0.79481 0.0
C1772 C 0.30219 0.13508 0.80929 0.0
C1773 C 0.2811 0.13352 0.80188 0.0
C1774 C 0.27685 0.13242 0.78058 0.0
C1775 C 0.29381 0.13303 0.76681 0.0
C1776 C 0.31446 0.13475 0.77361 0.0
C1777 C 0.3298 0.13544 0.75558 0.0
C1778 C 0.34183 0.15376 0.75519 0.0
C1779 C 0.34516 0.11911 0.75618 0.0
C1780 C 0.31454 0.13392 0.73756 0.0
C1781 C 0.29386 0.13238 0.74437 0.0
C1782 C 0.277 0.13051 0.73058 0.0
C1783 C 0.28138 0.13032 0.70927 0.0
C1784 C 0.30242 0.13216 0.70196 0.0
C1785 C 0.31917 0.13396 0.71635 0.0
H1786 H 0.67446 0.13645 0.79937 0.0
H1787 H 0.74206 0.13171 0.81002 0.0
H1788 H 0.74818 0.13101 0.77214 0.0
H1789 H 0.67257 0.10597 0.75528 0.0
H1790 H 0.65262 0.11912 0.74195 0.0
H1791 H 0.6537 0.1193 0.76984 0.0
H1792 H 0.65638 0.15471 0.76952 0.0
H1793 H 0.65536 0.15464 0.74163 0.0
H1794 H 0.67713 0.16559 0.7548 0.0
H1795 H 0.74688 0.132 0.73301 0.0
H1796 H 0.73831 0.13333 0.69578 0.0
H1797 H 0.67129 0.13563 0.71084 0.0
C1798 C 0.69056 0.13537 0.7937 0.0
C1799 C 0.70783 0.13424 0.80758 0.0
C1800 C 0.72863 0.13251 0.79962 0.0
C1801 C 0.73225 0.13217 0.77816 0.0
C1802 C 0.71487 0.13336 0.76488 0.0
C1803 C 0.69442 0.13478 0.77235 0.0
C1804 C 0.67849 0.13557 0.75482 0.0
C1805 C 0.66346 0.119 0.75552 0.0
C1806 C 0.66611 0.15371 0.75522 0.0
C1807 C 0.69317 0.1346 0.7363 0.0
C1808 C 0.71409 0.13338 0.74242 0.0
C1809 C 0.73053 0.13275 0.72805 0.0
C1810 C 0.72546 0.13338 0.70687 0.0
C1811 C 0.70409 0.1345 0.70017 0.0
C1812 C 0.68781 0.13502 0.71526 0.0
H1813 H 0.29932 0.86158 0.20844 0.0
H1814 H 0.31664 0.91809 0.1964 0.0
H1815 H 0.31645 0.92442 0.23394 0.0
H1816 H 0.26454 0.87103 0.25346 0.0
H1817 H 0.27303 0.85079 0.26711 0.0
H1818 H 0.27268 0.85102 0.23918 0.0
H1819 H 0.3123 0.84185 0.23863 0.0
H1820 H 0.31281 0.84169 0.26651 0.0
H1821 H 0.33131 0.85573 0.25237 0.0
H1822 H 0.31748 0.92411 0.27247 0.0
H1823 H 0.31869 0.91734 0.30994 0.0
H1824 H 0.30007 0.86122 0.29754 0.0
C1825 C 0.30258 0.87537 0.21371 0.0
C1826 C 0.30803 0.88934 0.1995 0.0
C1827 C 0.31263 0.90714 0.20702 0.0
C1828 C 0.31244 0.9109 0.2283 0.0
C1829 C 0.30749 0.89675 0.24192 0.0
C1830 C 0.30249 0.87937 0.23498 0.0
C1831 C 0.29886 0.86644 0.25303 0.0
C1832 C 0.27591 0.85941 0.2532 0.0
C1833 C 0.31477 0.85049 0.2526 0.0
C1834 C 0.30304 0.87918 0.27114 0.0
C1835 C 0.30789 0.89663 0.26433 0.0
C1836 C 0.31347 0.91057 0.27802 0.0
C1837 C 0.31423 0.90658 0.29923 0.0
C1838 C 0.30941 0.8888 0.3066 0.0
C1839 C 0.30349 0.875 0.29235 0.0
H1840 H 0.27235 0.21242 0.00569 0.0
H1841 H 0.27489 0.23118 0.94197 0.0
H1842 H 0.26028 0.2611 0.95266 0.0
H1843 H 0.22285 0.23428 0.01817 0.0
H1844 H 0.23047 0.23999 0.0443 0.0
H1845 H 0.24176 0.22023 0.03178 0.0
H1846 H 0.27946 0.23285 0.03879 0.0
H1847 H 0.26827 0.25268 0.05127 0.0
H1848 H 0.28634 0.25548 0.0299 0.0
H1849 H 0.24598 0.28898 0.97016 0.0
H1850 H 0.23095 0.31264 0.99297 0.0
H1851 H 0.23571 0.27542 0.04529 0.0
C1852 C 0.2699 0.2229 0.99405 0.0
C1853 C 0.27469 0.21953 0.973 0.0
C1854 C 0.27111 0.23345 0.95814 0.0
C1855 C 0.26294 0.2505 0.96408 0.0
C1856 C 0.25831 0.25338 0.98492 0.0
C1857 C 0.26149 0.23995 0.99969 0.0
C1858 C 0.25449 0.24645 0.02094 0.0
C1859 C 0.23631 0.23453 0.02928 0.0
C1860 C 0.27326 0.24689 0.03612 0.0
C1861 C 0.24692 0.26563 0.01579 0.0
C1862 C 0.24943 0.26936 0.99496 0.0
C1863 C 0.24375 0.28617 0.98648 0.0
C1864 C 0.23505 0.29949 0.99958 0.0
C1865 C 0.23185 0.29592 0.02096 0.0
C1866 C 0.23807 0.27873 0.0291 0.0
H1867 H 0.77982 0.72241 0.50808 0.0
H1868 H 0.75615 0.72999 0.57066 0.0
H1869 H 0.73719 0.75777 0.55949 0.0
H1870 H 0.7878 0.7699 0.49652 0.0
H1871 H 0.77923 0.76806 0.46995 0.0
H1872 H 0.7909 0.7486 0.48272 0.0
H1873 H 0.75773 0.72915 0.47404 0.0
H1874 H 0.74598 0.74855 0.4612 0.0
H1875 H 0.73194 0.73719 0.48184 0.0
H1876 H 0.72102 0.78475 0.54185 0.0
H1877 H 0.70817 0.80914 0.51865 0.0
H1878 H 0.74208 0.78431 0.4673 0.0
C1879 C 0.77049 0.72982 0.51938 0.0
C1880 C 0.76963 0.72406 0.54031 0.0
C1881 C 0.7574 0.73428 0.55465 0.0
C1882 C 0.74644 0.75002 0.54843 0.0
C1883 C 0.74779 0.7554 0.52778 0.0
C1884 C 0.75943 0.74561 0.51343 0.0
C1885 C 0.75829 0.7545 0.49221 0.0
C1886 C 0.78037 0.76063 0.48493 0.0
C1887 C 0.74786 0.74157 0.47639 0.0
C1888 C 0.74421 0.7708 0.49692 0.0
C1889 C 0.73837 0.77103 0.51754 0.0
C1890 C 0.72553 0.78476 0.52568 0.0
C1891 C 0.71844 0.79863 0.51239 0.0
C1892 C 0.72421 0.79875 0.49116 0.0
C1893 C 0.73725 0.78456 0.48339 0.0
H1894 H 0.28308 0.77461 0.0304 0.0
H1895 H 0.23022 0.81272 0.03009 0.0
H1896 H 0.20871 0.79024 0.01104 0.0
H1897 H 0.27457 0.75542 0.98026 0.0
H1898 H 0.28122 0.73235 0.98774 0.0
H1899 H 0.29283 0.75145 1.00127 0.0
H1900 H 0.27875 0.73882 0.03615 0.0
H1901 H 0.26725 0.71959 0.02275 0.0
H1902 H 0.25091 0.73393 0.03891 0.0
H1903 H 0.19325 0.76431 0.99096 0.0
H1904 H 0.18387 0.73568 0.97315 0.0
H1905 H 0.24553 0.7131 0.98877 0.0
C1906 C 0.26691 0.77819 0.02659 0.0
C1907 C 0.25853 0.79564 0.03159 0.0
C1908 C 0.23729 0.7997 0.02605 0.0
C1909 C 0.22484 0.78695 0.01532 0.0
C1910 C 0.23369 0.77005 0.01042 0.0
C1911 C 0.25413 0.76553 0.01605 0.0
C1912 C 0.25961 0.74624 0.00911 0.0
C1913 C 0.27816 0.74638 0.99368 0.0
C1914 C 0.26441 0.73392 0.02785 0.0
C1915 C 0.23907 0.74072 0.9986 0.0
C1916 C 0.22441 0.75472 0.99946 0.0
C1917 C 0.20448 0.75313 0.99045 0.0
C1918 C 0.19925 0.73669 0.98048 0.0
C1919 C 0.21377 0.72188 0.97977 0.0
C1920 C 0.23403 0.72408 0.9889 0.0
H1921 H 0.72613 0.23573 0.54003 0.0
H1922 H 0.74398 0.19215 0.49762 0.0
H1923 H 0.76115 0.21474 0.47489 0.0
H1924 H 0.71532 0.26984 0.50232 0.0
H1925 H 0.72659 0.28842 0.51704 0.0
H1926 H 0.71566 0.26887 0.53023 0.0
H1927 H 0.75127 0.26384 0.54935 0.0
H1928 H 0.76229 0.28346 0.53631 0.0
H1929 H 0.77532 0.26156 0.53452 0.0
H1930 H 0.77495 0.24206 0.45585 0.0
H1931 H 0.78678 0.27227 0.44301 0.0
H1932 H 0.76221 0.29798 0.49861 0.0
C1933 C 0.73391 0.23085 0.52614 0.0
C1934 C 0.73338 0.21209 0.52057 0.0
C1935 C 0.74361 0.20644 0.50207 0.0
C1936 C 0.75359 0.21917 0.48909 0.0
C1937 C 0.7535 0.23752 0.49489 0.0
C1938 C 0.74418 0.24335 0.51308 0.0
C1939 C 0.74651 0.2639 0.51572 0.0
C1940 C 0.72472 0.27331 0.51636 0.0
C1941 C 0.75963 0.26845 0.53513 0.0
C1942 C 0.75843 0.26869 0.49607 0.0
C1943 C 0.76217 0.25326 0.48422 0.0
C1944 C 0.77226 0.25423 0.46505 0.0
C1945 C 0.77881 0.27142 0.45784 0.0
C1946 C 0.77543 0.28738 0.46984 0.0
C1947 C 0.76516 0.28595 0.48924 0.0
H1948 H 0.73428 0.77316 0.04701 0.0
H1949 H 0.72782 0.81177 0.99627 0.0
H1950 H 0.74277 0.78895 0.97222 0.0
H1951 H 0.78375 0.7536 0.03033 0.0
H1952 H 0.77703 0.73066 0.03826 0.0
H1953 H 0.76571 0.75 0.05158 0.0
H1954 H 0.72804 0.73752 0.04416 0.0
H1955 H 0.73925 0.71817 0.03075 0.0
H1956 H 0.7203 0.73267 0.01783 0.0
H1957 H 0.75801 0.76212 0.95359 0.0
H1958 H 0.7737 0.73312 0.94159 0.0
H1959 H 0.77082 0.71167 0.00427 0.0
C1960 C 0.73592 0.77677 0.03082 0.0
C1961 C 0.72998 0.79431 0.02355 0.0
C1962 C 0.73257 0.79855 1.00227 0.0
C1963 C 0.7409 0.78563 0.98845 0.0
C1964 C 0.7466 0.7685 0.99611 0.0
C1965 C 0.74431 0.76403 0.01678 0.0
C1966 C 0.75198 0.74469 0.02097 0.0
C1967 C 0.77073 0.74475 0.03618 0.0
C1968 C 0.7338 0.73255 0.02889 0.0
C1969 C 0.75891 0.73901 0.9994 0.0
C1970 C 0.75559 0.75297 0.98533 0.0
C1971 C 0.76079 0.75111 0.96448 0.0
C1972 C 0.76982 0.73461 0.95784 0.0
C1973 C 0.77369 0.72014 0.97199 0.0
C1974 C 0.76794 0.72239 0.99304 0.0
H1975 H 0.28323 0.22406 0.51535 0.0
H1976 H 0.22892 0.20513 0.55071 0.0
H1977 H 0.20766 0.23052 0.5368 0.0
H1978 H 0.27411 0.27169 0.52079 0.0
H1979 H 0.2819 0.2775 0.49474 0.0
H1980 H 0.29304 0.25765 0.50719 0.0
H1981 H 0.28035 0.23723 0.47679 0.0
H1982 H 0.26926 0.25704 0.46417 0.0
H1983 H 0.25279 0.23743 0.46946 0.0
H1984 H 0.19271 0.25874 0.52072 0.0
H1985 H 0.1843 0.28704 0.50146 0.0
H1986 H 0.24727 0.28686 0.47463 0.0
C1987 C 0.26679 0.22504 0.51994 0.0
C1988 C 0.25791 0.21263 0.5344 0.0
C1989 C 0.23633 0.21465 0.5401 0.0
C1990 C 0.22403 0.22897 0.53214 0.0
C1991 C 0.23336 0.24108 0.51823 0.0
C1992 C 0.25415 0.23917 0.51195 0.0
C1993 C 0.26024 0.25413 0.49676 0.0
C1994 C 0.2784 0.26594 0.50539 0.0
C1995 C 0.266 0.24597 0.47553 0.0
C1996 C 0.23969 0.26485 0.49572 0.0
C1997 C 0.22445 0.25709 0.50833 0.0
C1998 C 0.20444 0.26485 0.51065 0.0
C1999 C 0.19985 0.28096 0.49976 0.0
C2000 C 0.21512 0.28906 0.48657 0.0
C2001 C 0.23525 0.28081 0.48445 0.0
H2002 H 0.77303 0.2901 0.0085 0.0
H2003 H 0.77273 0.27201 0.07257 0.0
H2004 H 0.75734 0.24245 0.06177 0.0
H2005 H 0.72381 0.26891 0.99381 0.0
H2006 H 0.73278 0.26266 0.96826 0.0
H2007 H 0.74378 0.28244 0.981 0.0
H2008 H 0.78153 0.26915 0.97637 0.0
H2009 H 0.77064 0.2493 0.96366 0.0
H2010 H 0.78738 0.24656 0.98607 0.0
H2011 H 0.74233 0.21476 0.04411 0.0
H2012 H 0.72799 0.19101 0.02082 0.0
H2013 H 0.73768 0.22704 0.96815 0.0
C2014 C 0.76984 0.27988 0.02024 0.0
C2015 C 0.774 0.28343 0.04141 0.0
C2016 C 0.76937 0.26974 0.05631 0.0
C2017 C 0.76077 0.25285 0.05031 0.0
C2018 C 0.75686 0.24981 0.02935 0.0
C2019 C 0.76118 0.26293 0.01453 0.0
C2020 C 0.75527 0.25621 0.99305 0.0
C2021 C 0.73787 0.26827 0.98347 0.0
C2022 C 0.77488 0.25525 0.97896 0.0
C2023 C 0.747 0.23725 0.99813 0.0
C2024 C 0.74809 0.23384 0.01915 0.0
C2025 C 0.74131 0.2173 0.02762 0.0
C2026 C 0.73307 0.20393 0.01426 0.0
C2027 C 0.73159 0.20714 0.99264 0.0
C2028 C 0.73879 0.22405 0.98455 0.0
H2029 H 0.21414 0.73469 0.53195 0.0
H2030 H 0.2543 0.69096 0.50878 0.0
H2031 H 0.27308 0.71306 0.48659 0.0
H2032 H 0.20952 0.75943 0.48444 0.0
H2033 H 0.21074 0.78173 0.49635 0.0
H2034 H 0.20037 0.76255 0.51066 0.0
H2035 H 0.22767 0.76839 0.53991 0.0
H2036 H 0.23806 0.78764 0.52574 0.0
H2037 H 0.25548 0.76939 0.53367 0.0
H2038 H 0.28708 0.73952 0.46638 0.0
H2039 H 0.29645 0.76908 0.45038 0.0
H2040 H 0.24795 0.79606 0.48699 0.0
C2041 C 0.22704 0.72979 0.5224 0.0
C2042 C 0.23256 0.711 0.522 0.0
C2043 C 0.24943 0.70518 0.50908 0.0
C2044 C 0.26032 0.71765 0.4965 0.0
C2045 C 0.25429 0.73597 0.49707 0.0
C2046 C 0.23817 0.74209 0.50976 0.0
C2047 C 0.23491 0.76257 0.50737 0.0
C2048 C 0.21256 0.76681 0.49922 0.0
C2049 C 0.2393 0.77259 0.52789 0.0
C2050 C 0.25168 0.76695 0.49129 0.0
C2051 C 0.26261 0.75137 0.48554 0.0
C2052 C 0.27864 0.75182 0.47075 0.0
C2053 C 0.28373 0.76866 0.46163 0.0
C2054 C 0.27287 0.78488 0.46733 0.0
C2055 C 0.25664 0.78394 0.48241 0.0
H2056 H 0.19345 0.54854 0.00462 0.0
H2057 H 0.19881 0.52897 0.94143 0.0
H2058 H 0.20238 0.49721 0.95423 0.0
H2059 H 0.22991 0.51559 0.02853 0.0
H2060 H 0.21389 0.51291 0.05144 0.0
H2061 H 0.21362 0.53426 0.03745 0.0
H2062 H 0.17283 0.53205 0.03385 0.0
H2063 H 0.17298 0.51069 0.04776 0.0
H2064 H 0.16123 0.51191 0.02234 0.0
H2065 H 0.20404 0.46768 0.97362 0.0
H2066 H 0.20202 0.44191 0.99822 0.0
H2067 H 0.19437 0.48027 0.04906 0.0
C2068 C 0.19574 0.53755 0.99358 0.0
C2069 C 0.19606 0.5411 0.97207 0.0
C2070 C 0.19858 0.52643 0.95796 0.0
C2071 C 0.20068 0.5084 0.96509 0.0
C2072 C 0.20004 0.50527 0.98638 0.0
C2073 C 0.19753 0.5194 1.00044 0.0
C2074 C 0.19598 0.51211 0.0224 0.0
C2075 C 0.21446 0.51913 0.03574 0.0
C2076 C 0.17448 0.51698 0.03215 0.0
C2077 C 0.19783 0.4917 0.01844 0.0
C2078 C 0.20041 0.48811 0.99757 0.0
C2079 C 0.20218 0.47031 0.99001 0.0
C2080 C 0.20113 0.45577 0.00413 0.0
C2081 C 0.19818 0.45906 0.02558 0.0
C2082 C 0.19659 0.47732 0.03276 0.0
H2083 H 0.82041 0.54759 0.50884 0.0
H2084 H 0.76593 0.54191 0.54937 0.0
H2085 H 0.75864 0.51144 0.53435 0.0
H2086 H 0.79825 0.52415 0.46421 0.0
H2087 H 0.82297 0.51332 0.45754 0.0
H2088 H 0.82299 0.53519 0.47047 0.0
H2089 H 0.84658 0.52182 0.49965 0.0
H2090 H 0.84666 0.49993 0.48681 0.0
H2091 H 0.83796 0.50164 0.51333 0.0
H2092 H 0.75848 0.48076 0.51615 0.0
H2093 H 0.76529 0.45258 0.49601 0.0
H2094 H 0.82056 0.47813 0.4684 0.0
C2095 C 0.80693 0.53998 0.5146 0.0
C2096 C 0.79373 0.54724 0.5303 0.0
C2097 C 0.7761 0.53683 0.53715 0.0
C2098 C 0.77189 0.51945 0.52879 0.0
C2099 C 0.78542 0.51265 0.51356 0.0
C2100 C 0.80255 0.52262 0.5065 0.0
C2101 C 0.81511 0.51198 0.49055 0.0
C2102 C 0.8148 0.52174 0.46944 0.0
C2103 C 0.83792 0.50864 0.49804 0.0
C2104 C 0.80252 0.49435 0.48989 0.0
C2105 C 0.7854 0.49501 0.5032 0.0
C2106 C 0.7718 0.48013 0.50562 0.0
C2107 C 0.77587 0.46414 0.49422 0.0
C2108 C 0.79343 0.46312 0.48058 0.0
C2109 C 0.80679 0.47854 0.47839 0.0
H2110 H 0.80867 0.47533 0.04246 0.0
H2111 H 0.81713 0.43896 0.98982 0.0
H2112 H 0.81564 0.46541 0.96624 0.0
H2113 H 0.77293 0.50721 0.01761 0.0
H2114 H 0.78435 0.52706 0.02991 0.0
H2115 H 0.78515 0.50517 0.04276 0.0
H2116 H 0.82596 0.5077 0.04598 0.0
H2117 H 0.82528 0.52958 0.03314 0.0
H2118 H 0.84163 0.51144 0.02302 0.0
H2119 H 0.81436 0.49572 0.94832 0.0
H2120 H 0.81361 0.52801 0.93726 0.0
H2121 H 0.80637 0.54501 1.00136 0.0
C2122 C 0.81027 0.4729 0.02598 0.0
C2123 C 0.81281 0.45495 0.01805 0.0
C2124 C 0.81469 0.45246 0.99633 0.0
C2125 C 0.81402 0.46744 0.98277 0.0
C2126 C 0.81154 0.48488 0.99111 0.0
C2127 C 0.80971 0.48772 0.0122 0.0
C2128 C 0.80765 0.50796 0.01711 0.0
C2129 C 0.78624 0.51208 0.02746 0.0
C2130 C 0.82624 0.51455 0.03061 0.0
C2131 C 0.80875 0.51603 0.9955 0.0
C2132 C 0.81091 0.50245 0.98074 0.0
C2133 C 0.8125 0.50648 0.95971 0.0
C2134 C 0.81191 0.52488 0.95358 0.0
C2135 C 0.80973 0.53909 0.9684 0.0
C2136 C 0.80813 0.5345 0.98965 0.0
H2137 H 0.18891 0.45988 0.50166 0.0
H2138 H 0.19761 0.47847 0.43831 0.0
H2139 H 0.20073 0.51027 0.45073 0.0
H2140 H 0.15642 0.49743 0.51777 0.0
H2141 H 0.16748 0.4986 0.54349 0.0
H2142 H 0.167 0.47712 0.52979 0.0
H2143 H 0.20758 0.47397 0.5346 0.0
H2144 H 0.20818 0.49545 0.54833 0.0
H2145 H 0.22475 0.49214 0.5259 0.0
H2146 H 0.20171 0.54013 0.46974 0.0
H2147 H 0.20014 0.56613 0.49402 0.0
H2148 H 0.19055 0.52838 0.54515 0.0
C2149 C 0.19142 0.47062 0.49037 0.0
C2150 C 0.19319 0.46658 0.46898 0.0
C2151 C 0.19664 0.4811 0.45479 0.0
C2152 C 0.19829 0.49925 0.46168 0.0
C2153 C 0.19643 0.50273 0.48282 0.0
C2154 C 0.19305 0.48885 0.49697 0.0
C2155 C 0.19113 0.49638 0.51879 0.0
C2156 C 0.1692 0.49213 0.52799 0.0
C2157 C 0.20898 0.48905 0.53272 0.0
C2158 C 0.19377 0.51669 0.51466 0.0
C2159 C 0.19691 0.52001 0.49381 0.0
C2160 C 0.19944 0.53769 0.48613 0.0
C2161 C 0.19867 0.55237 0.5001 0.0
C2162 C 0.1954 0.54936 0.52157 0.0
C2163 C 0.19297 0.5312 0.52885 0.0
H2164 H 0.69468 0.0425 0.99607 0.0
H2165 H 0.67958 0.02395 0.93385 0.0
H2166 H 0.67888 0.99204 0.9462 0.0
H2167 H 0.72925 0.0039 0.00927 0.0
H2168 H 0.72043 1.00309 0.03581 0.0
H2169 H 0.72043 0.02452 0.02198 0.0
H2170 H 0.68057 0.02867 0.03024 0.0
H2171 H 0.68042 0.00722 0.04398 0.0
H2172 H 0.6621 0.01096 0.02298 0.0
H2173 H 0.67791 0.96243 0.9654 0.0
H2174 H 0.67771 0.93677 0.99004 0.0
H2175 H 0.6954 0.974 0.0397 0.0
C2176 C 0.69156 0.03172 0.98497 0.0
C2177 C 0.68703 0.03581 0.96398 0.0
C2178 C 0.68272 0.02125 0.95006 0.0
C2179 C 0.68243 1.00304 0.95689 0.0
C2180 C 0.68664 0.99953 0.97769 0.0
C2181 C 0.69127 0.01341 0.99152 0.0
C2182 C 0.69482 0.00585 0.01314 0.0
C2183 C 0.71759 0.00956 0.02048 0.0
C2184 C 0.6785 0.01364 0.02849 0.0
C2185 C 0.69117 0.98559 0.00931 0.0
C2186 C 0.68652 0.98229 0.98874 0.0
C2187 C 0.68185 0.96479 0.98151 0.0
C2188 C 0.68194 0.95025 0.99566 0.0
C2189 C 0.6868 0.95318 0.01688 0.0
C2190 C 0.69153 0.97119 0.02367 0.0
H2191 H 0.29291 0.9769 0.46787 0.0
H2192 H 0.3124 0.93976 0.51691 0.0
H2193 H 0.31464 0.96565 0.54113 0.0
H2194 H 0.32852 0.01249 0.48142 0.0
H2195 H 0.31057 0.03086 0.47513 0.0
H2196 H 0.30839 0.00921 0.46195 0.0
H2197 H 0.26908 0.00675 0.47312 0.0
H2198 H 0.27114 0.02842 0.48634 0.0
H2199 H 0.26232 0.00839 0.50019 0.0
H2200 H 0.31699 0.99549 0.55963 0.0
H2201 H 0.31941 0.02759 0.57119 0.0
H2202 H 0.29996 0.04588 0.51008 0.0
C2203 C 0.29755 0.97415 0.48372 0.0
C2204 C 0.3022 0.95612 0.49044 0.0
C2205 C 0.30817 0.95326 0.51139 0.0
C2206 C 0.30967 0.96794 0.52529 0.0
C2207 C 0.30522 0.98548 0.51809 0.0
C2208 C 0.29927 0.98869 0.49782 0.0
C2209 C 0.29643 0.00902 0.49384 0.0
C2210 C 0.3119 0.01579 0.4771 0.0
C2211 C 0.27337 0.0134 0.48803 0.0
C2212 C 0.30203 0.01672 0.51498 0.0
C2213 C 0.30691 1.00286 0.52874 0.0
C2214 C 0.31315 0.00648 0.54902 0.0
C2215 C 0.31463 0.02477 0.5554 0.0
C2216 C 0.30999 0.03928 0.54153 0.0
C2217 C 0.30339 0.03511 0.52111 0.0
H2218 H 0.32178 0.97695 0.04112 0.0
H2219 H 0.31352 0.94037 0.98866 0.0
H2220 H 0.31168 0.96694 0.96523 0.0
H2221 H 0.28564 0.01244 0.02256 0.0
H2222 H 0.30174 0.03092 0.03233 0.0
H2223 H 0.30194 0.00902 0.04518 0.0
H2224 H 0.34272 0.0074 0.04115 0.0
H2225 H 0.34264 0.02926 0.02827 0.0
H2226 H 0.35431 0.00964 0.01575 0.0
H2227 H 0.31216 0.99719 0.94727 0.0
H2228 H 0.31428 0.02943 0.93596 0.0
H2229 H 0.32112 0.04668 0.99996 0.0
C2230 C 0.31929 0.97452 0.02475 0.0
C2231 C 0.31795 0.95651 0.01675 0.0
C2232 C 0.31498 0.95398 0.99515 0.0
C2233 C 0.31375 0.969 0.98172 0.0
C2234 C 0.31534 0.98652 0.99008 0.0
C2235 C 0.31793 0.98939 0.01109 0.0
C2236 C 0.31956 0.00967 0.01596 0.0
C2237 C 0.30112 0.01587 0.02983 0.0
C2238 C 0.34109 0.01425 0.02586 0.0
C2239 C 0.31773 0.0177 0.99437 0.0
C2240 C 0.31528 0.00408 0.97969 0.0
C2241 C 0.31395 0.00799 0.95862 0.0
C2242 C 0.31527 0.02632 0.95234 0.0
C2243 C 0.31784 0.04052 0.96707 0.0
C2244 C 0.31888 0.03611 0.98838 0.0
H2245 H 0.6873 0.03121 0.54387 0.0
H2246 H 0.6878 0.06984 0.49274 0.0
H2247 H 0.6891 0.04424 0.46794 0.0
H2248 H 0.72272 0.99787 0.52054 0.0
H2249 H 0.70852 0.97839 0.53058 0.0
H2250 H 0.70833 0.99975 0.54457 0.0
H2251 H 0.6673 0.9999 0.54396 0.0
H2252 H 0.66736 0.97852 0.53005 0.0
H2253 H 0.65363 0.99805 0.51951 0.0
H2254 H 0.68894 0.01474 0.44855 0.0
H2255 H 0.68747 0.9829 0.43576 0.0
H2256 H 0.68709 0.96304 0.49912 0.0
C2257 C 0.68768 0.03427 0.52746 0.0
C2258 C 0.68765 0.05258 0.52029 0.0
C2259 C 0.68823 0.05598 0.49866 0.0
C2260 C 0.68886 0.04152 0.48442 0.0
C2261 C 0.68893 0.02368 0.49198 0.0
C2262 C 0.68838 0.01995 0.51297 0.0
C2263 C 0.68823 0.99947 0.51689 0.0
C2264 C 0.70814 0.99352 0.52885 0.0
C2265 C 0.66792 0.99365 0.52827 0.0
C2266 C 0.68855 0.99231 0.49482 0.0
C2267 C 0.68898 0.00654 0.48072 0.0
C2268 C 0.6887 1.00346 0.45943 0.0
C2269 C 0.68778 0.98535 0.45231 0.0
C2270 C 0.6872 0.97052 0.46643 0.0
C2271 C 0.68782 0.9741 0.48797 0.0
loop_
_geom_bond_atom_site_label_1
_geom_bond_atom_site_label_2
_geom_bond_distance
_geom_bond_site_symmetry_2
_ccdc_geom_bond_type
Li0 N17 1.990 . S
Li0 O60 1.956 . S
Li0 O61 1.970 . S
Li0 O62 1.961 . S
Li1 N25 1.990 . S
Li1 O60 1.970 . S
Li1 O61 1.956 . S
Li1 O63 1.961 . S
Li2 N47 1.990 . S
Li2 O60 1.961 . S
Li2 O62 1.956 . S
Li2 O63 1.970 . S
Li3 N53 1.990 . S
Li3 O61 1.961 . S
Li3 O62 1.970 . S
Li3 O63 1.956 . S
C4 C6 1.348 . S
C4 C7 1.356 . S
C4 O60 1.325 . S
N5 C8 1.314 . S
N5 C9 1.279 . S
C6 C4 1.348 . S
C6 C8 1.353 . S
C6 H64 0.929 . S
C7 C4 1.356 . S
C7 C9 1.358 . S
C7 H65 0.930 . S
C8 N5 1.314 . S
C8 C6 1.353 . S
C8 H66 0.930 . S
C9 N5 1.279 . S
C9 C7 1.358 . S
C9 H67 0.930 . S
C10 C13 1.348 . S
C10 C14 1.356 . S
C10 O61 1.325 . S
C11 N12 1.279 . S
C11 C14 1.358 . S
C11 H68 0.930 . S
N12 C11 1.279 . S
N12 C15 1.314 . S
C13 C10 1.348 . S
C13 C15 1.353 . S
C13 H69 0.929 . S
C14 C10 1.356 . S
C14 C11 1.358 . S
C14 H70 0.930 . S
C15 N12 1.314 . S
C15 C13 1.353 . S
C15 H71 0.930 . S
C16 N17 1.314 . S
C16 C21 1.353 . S
C16 H22 0.930 . S
N17 Li0 1.990 . S
N17 C16 1.314 . S
N17 C19 1.279 . S
C18 C19 1.358 . S
C18 C20 1.356 . S
C18 H72 0.930 . S
C19 N17 1.279 . S
C19 C18 1.358 . S
C19 H23 0.930 . S
C20 C18 1.356 . S
C20 C21 1.348 . S
C21 C16 1.353 . S
C21 C20 1.348 . S
C21 H73 0.929 . S
H22 C16 0.930 . S
H23 C19 0.930 . S
C24 N25 1.314 . S
C24 C26 1.353 . S
C24 H30 0.930 . S
N25 Li1 1.990 . S
N25 C24 1.314 . S
N25 C28 1.279 . S
C26 C24 1.353 . S
C26 C29 1.348 . S
C26 H74 0.929 . S
C27 C28 1.358 . S
C27 C29 1.356 . S
C27 H75 0.930 . S
C28 N25 1.279 . S
C28 C27 1.358 . S
C28 H31 0.930 . S
C29 C26 1.348 . S
C29 C27 1.356 . S
H30 C24 0.930 . S
H31 C28 0.930 . S
C32 C34 1.348 . S
C32 C35 1.356 . S
C32 O62 1.325 . S
N33 C36 1.314 . S
N33 C37 1.279 . S
C34 C32 1.348 . S
C34 C36 1.353 . S
C34 H76 0.929 . S
C35 C32 1.356 . S
C35 C37 1.358 . S
C35 H77 0.930 . S
C36 N33 1.314 . S
C36 C34 1.353 . S
C36 H78 0.930 . S
C37 N33 1.279 . S
C37 C35 1.358 . S
C37 H79 0.930 . S
C38 C39 1.348 . S
C38 C40 1.356 . S
C38 O63 1.325 . S
C39 C38 1.348 . S
C39 C41 1.353 . S
C39 H80 0.929 . S
C40 C38 1.356 . S
C40 C42 1.358 . S
C40 H81 0.930 . S
C41 C39 1.353 . S
C41 N43 1.314 1_554 S
C41 H82 0.930 1_554 S
C42 C40 1.358 . S
C42 N43 1.279 1_554 S
C42 H83 0.930 1_554 S
N43 C41 1.314 1_556 S
N43 C42 1.279 1_556 S
C44 C46 1.353 . S
C44 N47 1.314 . S
C44 H50 0.930 . S
C45 N47 1.279 . S
C45 C48 1.358 . S
C45 H51 0.930 . S
C46 C44 1.353 . S
C46 C49 1.348 . S
C46 H84 0.929 . S
N47 Li2 1.990 . S
N47 C44 1.314 . S
N47 C45 1.279 . S
C48 C45 1.358 . S
C48 C49 1.356 . S
C48 H85 0.930 . S
C49 C46 1.348 . S
C49 C48 1.356 . S
H50 C44 0.930 . S
H51 C45 0.930 . S
C52 N53 1.314 . S
C52 C54 1.353 . S
C52 H58 0.930 . S
N53 Li3 1.990 . S
N53 C52 1.314 . S
N53 C56 1.279 . S
C54 C52 1.353 . S
C54 C57 1.348 . S
C54 H86 0.929 . S
C55 C56 1.358 . S
C55 C57 1.356 . S
C55 H87 0.930 . S
C56 N53 1.279 . S
C56 C55 1.358 . S
C56 H59 0.930 . S
C57 C54 1.348 . S
C57 C55 1.356 . S
H58 C52 0.930 . S
H59 C56 0.930 . S
O60 Li0 1.956 . S
O60 Li1 1.970 . S
O60 Li2 1.961 . S
O60 C4 1.325 . S
O61 Li0 1.970 . S
O61 Li1 1.956 . S
O61 Li3 1.961 . S
O61 C10 1.325 . S
O62 Li0 1.961 . S
O62 Li2 1.956 . S
O62 Li3 1.970 . S
O62 C32 1.325 . S
O63 Li1 1.961 . S
O63 Li2 1.970 . S
O63 Li3 1.956 . S
O63 C38 1.325 . S
H64 C6 0.929 . S
H65 C7 0.930 . S
H66 C8 0.930 . S
H67 C9 0.930 . S
H68 C11 0.930 . S
H69 C13 0.929 . S
H70 C14 0.930 . S
H71 C15 0.930 . S
H72 C18 0.930 . S
H73 C21 0.929 . S
H74 C26 0.929 . S
H75 C27 0.930 . S
H76 C34 0.929 . S
H77 C35 0.930 . S
H78 C36 0.930 . S
H79 C37 0.930 . S
H80 C39 0.929 . S
H81 C40 0.930 . S
H82 C41 0.930 1_556 S
H83 C42 0.930 1_556 S
H84 C46 0.929 . S
H85 C48 0.930 . S
H86 C54 0.929 . S
H87 C55 0.930 . S
Li88 N105 1.990 . S
Li88 O148 1.956 . S
Li88 O149 1.970 . S
Li88 O150 1.961 . S
Li89 N113 1.990 . S
Li89 O148 1.970 . S
Li89 O149 1.956 . S
Li89 O151 1.961 . S
Li90 N135 1.990 . S
Li90 O148 1.961 . S
Li90 O150 1.956 . S
Li90 O151 1.970 . S
Li91 N141 1.990 . S
Li91 O149 1.961 . S
Li91 O150 1.970 . S
Li91 O151 1.956 . S
C92 C94 1.348 . S
C92 C95 1.356 . S
C92 O148 1.325 . S
N93 C96 1.314 . S
N93 C97 1.279 . S
C94 C92 1.348 . S
C94 C96 1.353 . S
C94 H152 0.929 . S
C95 C92 1.356 . S
C95 C97 1.358 . S
C95 H153 0.930 . S
C96 N93 1.314 . S
C96 C94 1.353 . S
C96 H154 0.930 . S
C97 N93 1.279 . S
C97 C95 1.358 . S
C97 H155 0.930 . S
C98 C101 1.348 . S
C98 C102 1.356 . S
C98 O149 1.325 . S
C99 N100 1.279 . S
C99 C102 1.358 . S
C99 H156 0.930 . S
N100 C99 1.279 . S
N100 C103 1.314 . S
C101 C98 1.348 . S
C101 C103 1.353 . S
C101 H157 0.929 . S
C102 C98 1.356 . S
C102 C99 1.358 . S
C102 H158 0.930 . S
C103 N100 1.314 . S
C103 C101 1.353 . S
C103 H159 0.930 . S
C104 N105 1.314 . S
C104 C109 1.353 . S
C104 H110 0.930 . S
N105 Li88 1.990 . S
N105 C104 1.314 . S
N105 C107 1.279 . S
C106 C107 1.358 . S
C106 C108 1.356 . S
C106 H160 0.930 . S
C107 N105 1.279 . S
C107 C106 1.358 . S
C107 H111 0.930 . S
C108 C106 1.356 . S
C108 C109 1.348 . S
C109 C104 1.353 . S
C109 C108 1.348 . S
C109 H161 0.929 . S
H110 C104 0.930 . S
H111 C107 0.930 . S
C112 N113 1.314 . S
C112 C114 1.353 . S
C112 H118 0.930 . S
N113 Li89 1.990 . S
N113 C112 1.314 . S
N113 C116 1.279 . S
C114 C112 1.353 . S
C114 C117 1.348 . S
C114 H162 0.929 . S
C115 C116 1.358 . S
C115 C117 1.356 . S
C115 H163 0.930 . S
C116 N113 1.279 . S
C116 C115 1.358 . S
C116 H119 0.930 . S
C117 C114 1.348 . S
C117 C115 1.356 . S
H118 C112 0.930 . S
H119 C116 0.930 . S
C120 C122 1.348 . S
C120 C123 1.356 . S
C120 O150 1.325 . S
N121 C124 1.314 . S
N121 C125 1.279 . S
C122 C120 1.348 . S
C122 C124 1.353 . S
C122 H164 0.929 . S
C123 C120 1.356 . S
C123 C125 1.358 . S
C123 H165 0.930 . S
C124 N121 1.314 . S
C124 C122 1.353 . S
C124 H166 0.930 . S
C125 N121 1.279 . S
C125 C123 1.358 . S
C125 H167 0.930 . S
C126 C127 1.348 . S
C126 C128 1.356 . S
C126 O151 1.325 . S
C127 C126 1.348 . S
C127 C129 1.353 . S
C127 H168 0.929 . S
C128 C126 1.356 . S
C128 C130 1.358 . S
C128 H169 0.930 . S
C129 C127 1.353 . S
C129 N131 1.314 . S
C129 H170 0.930 . S
C130 C128 1.358 . S
C130 N131 1.279 . S
C130 H171 0.930 . S
N131 C129 1.314 . S
N131 C130 1.279 . S
C132 C134 1.353 . S
C132 N135 1.314 . S
C132 H138 0.930 . S
C133 N135 1.279 . S
C133 C136 1.358 . S
C133 H139 0.930 . S
C134 C132 1.353 . S
C134 C137 1.348 . S
C134 H172 0.929 . S
N135 Li90 1.990 . S
N135 C132 1.314 . S
N135 C133 1.279 . S
C136 C133 1.358 . S
C136 C137 1.356 . S
C136 H173 0.930 . S
C137 C134 1.348 . S
C137 C136 1.356 . S
H138 C132 0.930 . S
H139 C133 0.930 . S
C140 N141 1.314 . S
C140 C142 1.353 . S
C140 H146 0.930 . S
N141 Li91 1.990 . S
N141 C140 1.314 . S
N141 C144 1.279 . S
C142 C140 1.353 . S
C142 C145 1.348 . S
C142 H174 0.929 . S
C143 C144 1.358 . S
C143 C145 1.356 . S
C143 H175 0.930 . S
C144 N141 1.279 . S
C144 C143 1.358 . S
C144 H147 0.930 . S
C145 C142 1.348 . S
C145 C143 1.356 . S
H146 C140 0.930 . S
H147 C144 0.930 . S
O148 Li88 1.956 . S
O148 Li89 1.970 . S
O148 Li90 1.961 . S
O148 C92 1.325 . S
O149 Li88 1.970 . S
O149 Li89 1.956 . S
O149 Li91 1.961 . S
O149 C98 1.325 . S
O150 Li88 1.961 . S
O150 Li90 1.956 . S
O150 Li91 1.970 . S
O150 C120 1.325 . S
O151 Li89 1.961 . S
O151 Li90 1.970 . S
O151 Li91 1.956 . S
O151 C126 1.325 . S
H152 C94 0.929 . S
H153 C95 0.930 . S
H154 C96 0.930 . S
H155 C97 0.930 . S
H156 C99 0.930 . S
H157 C101 0.929 . S
H158 C102 0.930 . S
H159 C103 0.930 . S
H160 C106 0.930 . S
H161 C109 0.929 . S
H162 C114 0.929 . S
H163 C115 0.930 . S
H164 C122 0.929 . S
H165 C123 0.930 . S
H166 C124 0.930 . S
H167 C125 0.930 . S
H168 C127 0.929 . S
H169 C128 0.930 . S
H170 C129 0.930 . S
H171 C130 0.930 . S
H172 C134 0.929 . S
H173 C136 0.930 . S
H174 C142 0.929 . S
H175 C143 0.930 . S
Li176 N193 1.990 . S
Li176 O236 1.956 . S
Li176 O237 1.970 . S
Li176 O238 1.961 . S
Li177 N201 1.990 . S
Li177 O236 1.970 . S
Li177 O237 1.956 . S
Li177 O239 1.961 . S
Li178 N223 1.990 . S
Li178 O236 1.961 . S
Li178 O238 1.956 . S
Li178 O239 1.970 . S
Li179 N229 1.990 . S
Li179 O237 1.961 . S
Li179 O238 1.970 . S
Li179 O239 1.956 . S
C180 C182 1.348 . S
C180 C183 1.356 . S
C180 O236 1.325 . S
N181 C184 1.314 . S
N181 C185 1.279 . S
C182 C180 1.348 . S
C182 C184 1.353 . S
C182 H240 0.929 . S
C183 C180 1.356 . S
C183 C185 1.358 . S
C183 H241 0.930 . S
C184 N181 1.314 . S
C184 C182 1.353 . S
C184 H242 0.930 . S
C185 N181 1.279 . S
C185 C183 1.358 . S
C185 H243 0.930 . S
C186 C189 1.348 . S
C186 C190 1.356 . S
C186 O237 1.325 . S
C187 N188 1.279 1_556 S
C187 C190 1.358 . S
C187 H244 0.930 1_556 S
N188 C187 1.279 1_554 S
N188 C191 1.314 1_554 S
C189 C186 1.348 . S
C189 C191 1.353 . S
C189 H245 0.929 . S
C190 C186 1.356 . S
C190 C187 1.358 . S
C190 H246 0.930 . S
C191 N188 1.314 1_556 S
C191 C189 1.353 . S
C191 H247 0.930 1_556 S
C192 N193 1.314 . S
C192 C197 1.353 . S
C192 H198 0.930 . S
N193 Li176 1.990 . S
N193 C192 1.314 . S
N193 C195 1.279 . S
C194 C195 1.358 . S
C194 C196 1.356 . S
C194 H248 0.930 . S
C195 N193 1.279 . S
C195 C194 1.358 . S
C195 H199 0.930 . S
C196 C194 1.356 . S
C196 C197 1.348 . S
C197 C192 1.353 . S
C197 C196 1.348 . S
C197 H249 0.929 . S
H198 C192 0.930 . S
H199 C195 0.930 . S
C200 N201 1.314 . S
C200 C202 1.353 . S
C200 H206 0.930 . S
N201 Li177 1.990 . S
N201 C200 1.314 . S
N201 C204 1.279 . S
C202 C200 1.353 . S
C202 C205 1.348 . S
C202 H250 0.929 . S
C203 C204 1.358 . S
C203 C205 1.356 . S
C203 H251 0.930 . S
C204 N201 1.279 . S
C204 C203 1.358 . S
C204 H207 0.930 . S
C205 C202 1.348 . S
C205 C203 1.356 . S
H206 C200 0.930 . S
H207 C204 0.930 . S
C208 C210 1.348 . S
C208 C211 1.356 . S
C208 O238 1.325 . S
N209 C212 1.314 . S
N209 C213 1.279 . S
C210 C208 1.348 . S
C210 C212 1.353 . S
C210 H252 0.929 . S
C211 C208 1.356 . S
C211 C213 1.358 . S
C211 H253 0.930 . S
C212 N209 1.314 . S
C212 C210 1.353 . S
C212 H254 0.930 . S
C213 N209 1.279 . S
C213 C211 1.358 . S
C213 H255 0.930 . S
C214 C215 1.348 . S
C214 C216 1.356 . S
C214 O239 1.325 . S
C215 C214 1.348 . S
C215 C217 1.353 . S
C215 H256 0.929 . S
C216 C214 1.356 . S
C216 C218 1.358 . S
C216 H257 0.930 . S
C217 C215 1.353 . S
C217 N219 1.314 . S
C217 H258 0.930 . S
C218 C216 1.358 . S
C218 N219 1.279 . S
C218 H259 0.930 . S
N219 C217 1.314 . S
N219 C218 1.279 . S
C220 C222 1.353 . S
C220 N223 1.314 . S
C220 H226 0.930 . S
C221 N223 1.279 . S
C221 C224 1.358 . S
C221 H227 0.930 . S
C222 C220 1.353 . S
C222 C225 1.348 . S
C222 H260 0.929 . S
N223 Li178 1.990 . S
N223 C220 1.314 . S
N223 C221 1.279 . S
C224 C221 1.358 . S
C224 C225 1.356 . S
C224 H261 0.930 . S
C225 C222 1.348 . S
C225 C224 1.356 . S
H226 C220 0.930 . S
H227 C221 0.930 . S
C228 N229 1.314 . S
C228 C230 1.353 . S
C228 H234 0.930 . S
N229 Li179 1.990 . S
N229 C228 1.314 . S
N229 C232 1.279 . S
C230 C228 1.353 . S
C230 C233 1.348 . S
C230 H262 0.929 . S
C231 C232 1.358 . S
C231 C233 1.356 . S
C231 H263 0.930 . S
C232 N229 1.279 . S
C232 C231 1.358 . S
C232 H235 0.930 . S
C233 C230 1.348 . S
C233 C231 1.356 . S
H234 C228 0.930 . S
H235 C232 0.930 . S
O236 Li176 1.956 . S
O236 Li177 1.970 . S
O236 Li178 1.961 . S
O236 C180 1.325 . S
O237 Li176 1.970 . S
O237 Li177 1.956 . S
O237 Li179 1.961 . S
O237 C186 1.325 . S
O238 Li176 1.961 . S
O238 Li178 1.956 . S
O238 Li179 1.970 . S
O238 C208 1.325 . S
O239 Li177 1.961 . S
O239 Li178 1.970 . S
O239 Li179 1.956 . S
O239 C214 1.325 . S
H240 C182 0.929 . S
H241 C183 0.930 . S
H242 C184 0.930 . S
H243 C185 0.930 . S
H244 C187 0.930 1_554 S
H245 C189 0.929 . S
H246 C190 0.930 . S
H247 C191 0.930 1_554 S
H248 C194 0.930 . S
H249 C197 0.929 . S
H250 C202 0.929 . S
H251 C203 0.930 . S
H252 C210 0.929 . S
H253 C211 0.930 . S
H254 C212 0.930 . S
H255 C213 0.930 . S
H256 C215 0.929 . S
H257 C216 0.930 . S
H258 C217 0.930 . S
H259 C218 0.930 . S
H260 C222 0.929 . S
H261 C224 0.930 . S
H262 C230 0.929 . S
H263 C231 0.930 . S
Li264 N281 1.990 . S
Li264 O324 1.956 . S
Li264 O325 1.970 . S
Li264 O326 1.961 . S
Li265 N289 1.990 . S
Li265 O324 1.970 . S
Li265 O325 1.956 . S
Li265 O327 1.961 . S
Li266 N311 1.990 . S
Li266 O324 1.961 . S
Li266 O326 1.956 . S
Li266 O327 1.970 . S
Li267 N317 1.990 . S
Li267 O325 1.961 . S
Li267 O326 1.970 . S
Li267 O327 1.956 . S
C268 C270 1.348 . S
C268 C271 1.356 . S
C268 O324 1.325 . S
N269 C272 1.314 . S
N269 C273 1.279 . S
C270 C268 1.348 . S
C270 C272 1.353 . S
C270 H328 0.929 . S
C271 C268 1.356 . S
C271 C273 1.358 . S
C271 H329 0.930 . S
C272 N269 1.314 . S
C272 C270 1.353 . S
C272 H330 0.930 . S
C273 N269 1.279 . S
C273 C271 1.358 . S
C273 H331 0.930 . S
C274 C277 1.348 . S
C274 C278 1.356 . S
C274 O325 1.325 . S
C275 N276 1.279 . S
C275 C278 1.358 . S
C275 H332 0.930 . S
N276 C275 1.279 . S
N276 C279 1.314 . S
C277 C274 1.348 . S
C277 C279 1.353 . S
C277 H333 0.929 . S
C278 C274 1.356 . S
C278 C275 1.358 . S
C278 H334 0.930 . S
C279 N276 1.314 . S
C279 C277 1.353 . S
C279 H335 0.930 . S
C280 N281 1.314 . S
C280 C285 1.353 . S
C280 H286 0.930 . S
N281 Li264 1.990 . S
N281 C280 1.314 . S
N281 C283 1.279 . S
C282 C283 1.358 . S
C282 C284 1.356 . S
C282 H336 0.930 . S
C283 N281 1.279 . S
C283 C282 1.358 . S
C283 H287 0.930 . S
C284 C282 1.356 . S
C284 C285 1.348 . S
C285 C280 1.353 . S
C285 C284 1.348 . S
C285 H337 0.929 . S
H286 C280 0.930 . S
H287 C283 0.930 . S
C288 N289 1.314 . S
C288 C290 1.353 . S
C288 H294 0.930 . S
N289 Li265 1.990 . S
N289 C288 1.314 . S
N289 C292 1.279 . S
C290 C288 1.353 . S
C290 C293 1.348 . S
C290 H338 0.929 . S
C291 C292 1.358 . S
C291 C293 1.356 . S
C291 H339 0.930 . S
C292 N289 1.279 . S
C292 C291 1.358 . S
C292 H295 0.930 . S
C293 C290 1.348 . S
C293 C291 1.356 . S
H294 C288 0.930 . S
H295 C292 0.930 . S
C296 C298 1.348 . S
C296 C299 1.356 . S
C296 O326 1.325 . S
N297 C300 1.314 . S
N297 C301 1.279 . S
C298 C296 1.348 . S
C298 C300 1.353 . S
C298 H340 0.929 . S
C299 C296 1.356 . S
C299 C301 1.358 . S
C299 H341 0.930 . S
C300 N297 1.314 . S
C300 C298 1.353 . S
C300 H342 0.930 . S
C301 N297 1.279 . S
C301 C299 1.358 . S
C301 H343 0.930 . S
C302 C303 1.348 . S
C302 C304 1.356 . S
C302 O327 1.325 . S
C303 C302 1.348 . S
C303 C305 1.353 . S
C303 H344 0.929 . S
C304 C302 1.356 . S
C304 C306 1.358 . S
C304 H345 0.930 . S
C305 C303 1.353 . S
C305 N307 1.314 . S
C305 H346 0.930 . S
C306 C304 1.358 . S
C306 N307 1.279 . S
C306 H347 0.930 . S
N307 C305 1.314 . S
N307 C306 1.279 . S
C308 C310 1.353 . S
C308 N311 1.314 . S
C308 H314 0.930 . S
C309 N311 1.279 . S
C309 C312 1.358 . S
C309 H315 0.930 . S
C310 C308 1.353 . S
C310 C313 1.348 . S
C310 H348 0.929 . S
N311 Li266 1.990 . S
N311 C308 1.314 . S
N311 C309 1.279 . S
C312 C309 1.358 . S
C312 C313 1.356 . S
C312 H349 0.930 . S
C313 C310 1.348 . S
C313 C312 1.356 . S
H314 C308 0.930 . S
H315 C309 0.930 . S
C316 N317 1.314 . S
C316 C318 1.353 . S
C316 H322 0.930 . S
N317 Li267 1.990 . S
N317 C316 1.314 . S
N317 C320 1.279 . S
C318 C316 1.353 . S
C318 C321 1.348 . S
C318 H350 0.929 . S
C319 C320 1.358 . S
C319 C321 1.356 . S
C319 H351 0.930 . S
C320 N317 1.279 . S
C320 C319 1.358 . S
C320 H323 0.930 . S
C321 C318 1.348 . S
C321 C319 1.356 . S
H322 C316 0.930 . S
H323 C320 0.930 . S
O324 Li264 1.956 . S
O324 Li265 1.970 . S
O324 Li266 1.961 . S
O324 C268 1.325 . S
O325 Li264 1.970 . S
O325 Li265 1.956 . S
O325 Li267 1.961 . S
O325 C274 1.325 . S
O326 Li264 1.961 . S
O326 Li266 1.956 . S
O326 Li267 1.970 . S
O326 C296 1.325 . S
O327 Li265 1.961 . S
O327 Li266 1.970 . S
O327 Li267 1.956 . S
O327 C302 1.325 . S
H328 C270 0.929 . S
H329 C271 0.930 . S
H330 C272 0.930 . S
H331 C273 0.930 . S
H332 C275 0.930 . S
H333 C277 0.929 . S
H334 C278 0.930 . S
H335 C279 0.930 . S
H336 C282 0.930 . S
H337 C285 0.929 . S
H338 C290 0.929 . S
H339 C291 0.930 . S
H340 C298 0.929 . S
H341 C299 0.930 . S
H342 C300 0.930 . S
H343 C301 0.930 . S
H344 C303 0.929 . S
H345 C304 0.930 . S
H346 C305 0.930 . S
H347 C306 0.930 . S
H348 C310 0.929 . S
H349 C312 0.930 . S
H350 C318 0.929 . S
H351 C319 0.930 . S
Li352 N369 1.990 . S
Li352 O412 1.956 . S
Li352 O413 1.970 . S
Li352 O414 1.961 . S
Li353 N377 1.990 . S
Li353 O412 1.970 . S
Li353 O413 1.956 . S
Li353 O415 1.961 . S
Li354 N399 1.990 . S
Li354 O412 1.961 . S
Li354 O414 1.956 . S
Li354 O415 1.970 . S
Li355 N405 1.990 . S
Li355 O413 1.961 . S
Li355 O414 1.970 . S
Li355 O415 1.956 . S
C356 C358 1.348 . S
C356 C359 1.356 . S
C356 O412 1.325 . S
N357 C360 1.326 . S
N357 C361 1.279 1_554 S
C358 C356 1.348 . S
C358 C360 1.325 1_556 S
C358 H416 0.929 . S
C359 C356 1.356 . S
C359 C361 1.358 . S
C359 H417 0.930 . S
C360 N357 1.326 . S
C360 C358 1.325 1_554 S
C360 H418 0.949 . S
C361 N357 1.279 1_556 S
C361 C359 1.358 . S
C361 H419 0.930 . S
C362 C365 1.348 . S
C362 C366 1.356 . S
C362 O413 1.325 . S
C363 N364 1.279 . S
C363 C366 1.358 . S
C363 H420 0.930 . S
N364 C363 1.279 . S
N364 C367 1.314 . S
C365 C362 1.348 . S
C365 C367 1.353 . S
C365 H421 0.929 . S
C366 C362 1.356 . S
C366 C363 1.358 . S
C366 H422 0.930 . S
C367 N364 1.314 . S
C367 C365 1.353 . S
C367 H423 0.930 . S
C368 N369 1.314 . S
C368 C373 1.353 . S
C368 H374 0.930 . S
N369 Li352 1.990 . S
N369 C368 1.314 . S
N369 C371 1.279 . S
C370 C371 1.358 . S
C370 C372 1.356 . S
C370 H424 0.930 . S
C371 N369 1.279 . S
C371 C370 1.358 . S
C371 H375 0.930 . S
C372 C370 1.356 . S
C372 C373 1.348 . S
C373 C368 1.353 . S
C373 C372 1.348 . S
C373 H425 0.929 . S
H374 C368 0.930 . S
H375 C371 0.930 . S
C376 N377 1.314 . S
C376 C378 1.353 . S
C376 H382 0.930 . S
N377 Li353 1.990 . S
N377 C376 1.314 . S
N377 C380 1.279 . S
C378 C376 1.353 . S
C378 C381 1.348 . S
C378 H426 0.929 . S
C379 C380 1.358 . S
C379 C381 1.356 . S
C379 H427 0.930 . S
C380 N377 1.279 . S
C380 C379 1.358 . S
C380 H383 0.930 . S
C381 C378 1.348 . S
C381 C379 1.356 . S
H382 C376 0.930 . S
H383 C380 0.930 . S
C384 C386 1.348 . S
C384 C387 1.356 . S
C384 O414 1.325 . S
N385 C388 1.314 . S
N385 C389 1.279 . S
C386 C384 1.348 . S
C386 C388 1.353 . S
C386 H428 0.929 . S
C387 C384 1.356 . S
C387 C389 1.358 . S
C387 H429 0.930 . S
C388 N385 1.314 . S
C388 C386 1.353 . S
C388 H430 0.930 . S
C389 N385 1.279 . S
C389 C387 1.358 . S
C389 H431 0.930 . S
C390 C391 1.348 . S
C390 C392 1.356 . S
C390 O415 1.325 . S
C391 C390 1.348 . S
C391 C393 1.353 . S
C391 H432 0.929 . S
C392 C390 1.356 . S
C392 C394 1.358 . S
C392 H433 0.930 . S
C393 C391 1.353 . S
C393 N395 1.314 . S
C393 H434 0.930 . S
C394 C392 1.358 . S
C394 N395 1.279 . S
C394 H435 0.930 . S
N395 C393 1.314 . S
N395 C394 1.279 . S
C396 C398 1.353 . S
C396 N399 1.314 . S
C396 H402 0.930 . S
C397 N399 1.279 . S
C397 C400 1.358 . S
C397 H403 0.930 . S
C398 C396 1.353 . S
C398 C401 1.348 . S
C398 H436 0.929 . S
N399 Li354 1.990 . S
N399 C396 1.314 . S
N399 C397 1.279 . S
C400 C397 1.358 . S
C400 C401 1.356 . S
C400 H437 0.930 . S
C401 C398 1.348 . S
C401 C400 1.356 . S
H402 C396 0.930 . S
H403 C397 0.930 . S
C404 N405 1.314 . S
C404 C406 1.353 . S
C404 H410 0.930 . S
N405 Li355 1.990 . S
N405 C404 1.314 . S
N405 C408 1.279 . S
C406 C404 1.353 . S
C406 C409 1.348 . S
C406 H438 0.929 . S
C407 C408 1.358 . S
C407 C409 1.356 . S
C407 H439 0.930 . S
C408 N405 1.279 . S
C408 C407 1.358 . S
C408 H411 0.930 . S
C409 C406 1.348 . S
C409 C407 1.356 . S
H410 C404 0.930 . S
H411 C408 0.930 . S
O412 Li352 1.956 . S
O412 Li353 1.970 . S
O412 Li354 1.961 . S
O412 C356 1.325 . S
O413 Li352 1.970 . S
O413 Li353 1.956 . S
O413 Li355 1.961 . S
O413 C362 1.325 . S
O414 Li352 1.961 . S
O414 Li354 1.956 . S
O414 Li355 1.970 . S
O414 C384 1.325 . S
O415 Li353 1.961 . S
O415 Li354 1.970 . S
O415 Li355 1.956 . S
O415 C390 1.325 . S
H416 C358 0.929 . S
H417 C359 0.930 . S
H418 C360 0.949 . S
H419 C361 0.930 . S
H420 C363 0.930 . S
H421 C365 0.929 . S
H422 C366 0.930 . S
H423 C367 0.930 . S
H424 C370 0.930 . S
H425 C373 0.929 . S
H426 C378 0.929 . S
H427 C379 0.930 . S
H428 C386 0.929 . S
H429 C387 0.930 . S
H430 C388 0.930 . S
H431 C389 0.930 . S
H432 C391 0.929 . S
H433 C392 0.930 . S
H434 C393 0.930 . S
H435 C394 0.930 . S
H436 C398 0.929 . S
H437 C400 0.930 . S
H438 C406 0.929 . S
H439 C407 0.930 . S
Li440 N457 1.990 . S
Li440 O500 1.956 . S
Li440 O501 1.970 . S
Li440 O502 1.961 . S
Li441 N465 1.990 . S
Li441 O500 1.970 . S
Li441 O501 1.956 . S
Li441 O503 1.961 . S
Li442 N487 1.990 . S
Li442 O500 1.961 . S
Li442 O502 1.956 . S
Li442 O503 1.970 . S
Li443 N493 1.990 . S
Li443 O501 1.961 . S
Li443 O502 1.970 . S
Li443 O503 1.956 . S
C444 C446 1.348 . S
C444 C447 1.356 . S
C444 O500 1.325 . S
N445 C448 1.314 . S
N445 C449 1.279 . S
C446 C444 1.348 . S
C446 C448 1.353 . S
C446 H504 0.929 . S
C447 C444 1.356 . S
C447 C449 1.358 . S
C447 H505 0.930 . S
C448 N445 1.314 . S
C448 C446 1.353 . S
C448 H506 0.930 . S
C449 N445 1.279 . S
C449 C447 1.358 . S
C449 H507 0.930 . S
C450 C453 1.348 . S
C450 C454 1.356 . S
C450 O501 1.325 . S
C451 N452 1.279 . S
C451 C454 1.358 . S
C451 H508 0.930 . S
N452 C451 1.279 . S
N452 C455 1.314 . S
C453 C450 1.348 . S
C453 C455 1.353 . S
C453 H509 0.929 . S
C454 C450 1.356 . S
C454 C451 1.358 . S
C454 H510 0.930 . S
C455 N452 1.314 . S
C455 C453 1.353 . S
C455 H511 0.930 . S
C456 N457 1.314 . S
C456 C461 1.353 . S
C456 H462 0.930 . S
N457 Li440 1.990 . S
N457 C456 1.314 . S
N457 C459 1.279 . S
C458 C459 1.358 . S
C458 C460 1.356 . S
C458 H512 0.930 . S
C459 N457 1.279 . S
C459 C458 1.358 . S
C459 H463 0.930 . S
C460 C458 1.356 . S
C460 C461 1.348 . S
C461 C456 1.353 . S
C461 C460 1.348 . S
C461 H513 0.929 . S
H462 C456 0.930 . S
H463 C459 0.930 . S
C464 N465 1.314 . S
C464 C466 1.353 . S
C464 H470 0.930 . S
N465 Li441 1.990 . S
N465 C464 1.314 . S
N465 C468 1.279 . S
C466 C464 1.353 . S
C466 C469 1.348 . S
C466 H514 0.929 . S
C467 C468 1.358 . S
C467 C469 1.356 . S
C467 H515 0.930 . S
C468 N465 1.279 . S
C468 C467 1.358 . S
C468 H471 0.930 . S
C469 C466 1.348 . S
C469 C467 1.356 . S
H470 C464 0.930 . S
H471 C468 0.930 . S
C472 C474 1.348 . S
C472 C475 1.356 . S
C472 O502 1.325 . S
N473 C476 1.314 . S
N473 C477 1.279 . S
C474 C472 1.348 . S
C474 C476 1.353 . S
C474 H516 0.929 . S
C475 C472 1.356 . S
C475 C477 1.358 . S
C475 H517 0.930 . S
C476 N473 1.314 . S
C476 C474 1.353 . S
C476 H518 0.930 . S
C477 N473 1.279 . S
C477 C475 1.358 . S
C477 H519 0.930 . S
C478 C479 1.348 . S
C478 C480 1.356 . S
C478 O503 1.325 . S
C479 C478 1.348 . S
C479 C481 1.353 . S
C479 H520 0.929 . S
C480 C478 1.356 . S
C480 C482 1.358 . S
C480 H521 0.930 . S
C481 C479 1.353 . S
C481 N483 1.314 . S
C481 H522 0.930 . S
C482 C480 1.358 . S
C482 N483 1.279 . S
C482 H523 0.930 . S
N483 C481 1.314 . S
N483 C482 1.279 . S
C484 C486 1.353 . S
C484 N487 1.314 . S
C484 H490 0.930 . S
C485 N487 1.279 . S
C485 C488 1.358 . S
C485 H491 0.930 . S
C486 C484 1.353 . S
C486 C489 1.348 . S
C486 H524 0.929 . S
N487 Li442 1.990 . S
N487 C484 1.314 . S
N487 C485 1.279 . S
C488 C485 1.358 . S
C488 C489 1.356 . S
C488 H525 0.930 . S
C489 C486 1.348 . S
C489 C488 1.356 . S
H490 C484 0.930 . S
H491 C485 0.930 . S
C492 N493 1.314 . S
C492 C494 1.353 . S
C492 H498 0.930 . S
N493 Li443 1.990 . S
N493 C492 1.314 . S
N493 C496 1.279 . S
C494 C492 1.353 . S
C494 C497 1.348 . S
C494 H526 0.929 . S
C495 C496 1.358 . S
C495 C497 1.356 . S
C495 H527 0.930 . S
C496 N493 1.279 . S
C496 C495 1.358 . S
C496 H499 0.930 . S
C497 C494 1.348 . S
C497 C495 1.356 . S
H498 C492 0.930 . S
H499 C496 0.930 . S
O500 Li440 1.956 . S
O500 Li441 1.970 . S
O500 Li442 1.961 . S
O500 C444 1.325 . S
O501 Li440 1.970 . S
O501 Li441 1.956 . S
O501 Li443 1.961 . S
O501 C450 1.325 . S
O502 Li440 1.961 . S
O502 Li442 1.956 . S
O502 Li443 1.970 . S
O502 C472 1.325 . S
O503 Li441 1.961 . S
O503 Li442 1.970 . S
O503 Li443 1.956 . S
O503 C478 1.325 . S
H504 C446 0.929 . S
H505 C447 0.930 . S
H506 C448 0.930 . S
H507 C449 0.930 . S
H508 C451 0.930 . S
H509 C453 0.929 . S
H510 C454 0.930 . S
H511 C455 0.930 . S
H512 C458 0.930 . S
H513 C461 0.929 . S
H514 C466 0.929 . S
H515 C467 0.930 . S
H516 C474 0.929 . S
H517 C475 0.930 . S
H518 C476 0.930 . S
H519 C477 0.930 . S
H520 C479 0.929 . S
H521 C480 0.930 . S
H522 C481 0.930 . S
H523 C482 0.930 . S
H524 C486 0.929 . S
H525 C488 0.930 . S
H526 C494 0.929 . S
H527 C495 0.930 . S
Li528 N545 1.990 . S
Li528 O588 1.956 . S
Li528 O589 1.970 . S
Li528 O590 1.961 . S
Li529 N553 1.990 . S
Li529 O588 1.970 . S
Li529 O589 1.956 . S
Li529 O591 1.961 . S
Li530 N575 1.990 . S
Li530 O588 1.961 . S
Li530 O590 1.956 . S
Li530 O591 1.970 . S
Li531 N581 1.990 . S
Li531 O589 1.961 . S
Li531 O590 1.970 . S
Li531 O591 1.956 . S
C532 C534 1.348 . S
C532 C535 1.356 . S
C532 O588 1.325 . S
N533 C536 1.314 . S
N533 C537 1.279 . S
C534 C532 1.348 . S
C534 C536 1.353 . S
C534 H592 0.929 . S
C535 C532 1.356 . S
C535 C537 1.358 . S
C535 H593 0.930 . S
C536 N533 1.314 . S
C536 C534 1.353 . S
C536 H594 0.930 . S
C537 N533 1.279 . S
C537 C535 1.358 . S
C537 H595 0.930 . S
C538 C541 1.348 . S
C538 C542 1.356 . S
C538 O589 1.325 . S
C539 N540 1.279 . S
C539 C542 1.358 . S
C539 H596 0.930 . S
N540 C539 1.279 . S
N540 C543 1.314 . S
C541 C538 1.348 . S
C541 C543 1.353 . S
C541 H597 0.929 . S
C542 C538 1.356 . S
C542 C539 1.358 . S
C542 H598 0.930 . S
C543 N540 1.314 . S
C543 C541 1.353 . S
C543 H599 0.930 . S
C544 N545 1.314 . S
C544 C549 1.353 . S
C544 H550 0.930 . S
N545 Li528 1.990 . S
N545 C544 1.314 . S
N545 C547 1.279 . S
C546 C547 1.358 . S
C546 C548 1.356 . S
C546 H600 0.930 . S
C547 N545 1.279 . S
C547 C546 1.358 . S
C547 H551 0.930 . S
C548 C546 1.356 . S
C548 C549 1.348 . S
C549 C544 1.353 . S
C549 C548 1.348 . S
C549 H601 0.929 . S
H550 C544 0.930 . S
H551 C547 0.930 . S
C552 N553 1.314 . S
C552 C554 1.353 . S
C552 H558 0.930 . S
N553 Li529 1.990 . S
N553 C552 1.314 . S
N553 C556 1.279 . S
C554 C552 1.353 . S
C554 C557 1.348 . S
C554 H602 0.929 . S
C555 C556 1.358 . S
C555 C557 1.356 . S
C555 H603 0.930 . S
C556 N553 1.279 . S
C556 C555 1.358 . S
C556 H559 0.930 . S
C557 C554 1.348 . S
C557 C555 1.356 . S
H558 C552 0.930 . S
H559 C556 0.930 . S
C560 C562 1.348 . S
C560 C563 1.356 . S
C560 O590 1.325 . S
N561 C564 1.314 . S
N561 C565 1.279 . S
C562 C560 1.348 . S
C562 C564 1.353 . S
C562 H604 0.929 . S
C563 C560 1.356 . S
C563 C565 1.358 . S
C563 H605 0.930 . S
C564 N561 1.314 . S
C564 C562 1.353 . S
C564 H606 0.930 . S
C565 N561 1.279 . S
C565 C563 1.358 . S
C565 H607 0.930 . S
C566 C567 1.348 . S
C566 C568 1.356 . S
C566 O591 1.325 . S
C567 C566 1.348 . S
C567 C569 1.325 1_554 S
C567 H608 0.929 . S
C568 C566 1.356 . S
C568 C570 1.358 . S
C568 H609 0.930 . S
C569 C567 1.325 1_556 S
C569 N571 1.326 . S
C569 H610 0.949 . S
C570 C568 1.358 . S
C570 N571 1.279 1_554 S
C570 H611 0.930 . S
N571 C569 1.326 . S
N571 C570 1.279 1_556 S
C572 C574 1.353 . S
C572 N575 1.314 . S
C572 H578 0.930 . S
C573 N575 1.279 . S
C573 C576 1.358 . S
C573 H579 0.930 . S
C574 C572 1.353 . S
C574 C577 1.348 . S
C574 H612 0.929 . S
N575 Li530 1.990 . S
N575 C572 1.314 . S
N575 C573 1.279 . S
C576 C573 1.358 . S
C576 C577 1.356 . S
C576 H613 0.930 . S
C577 C574 1.348 . S
C577 C576 1.356 . S
H578 C572 0.930 . S
H579 C573 0.930 . S
C580 N581 1.314 . S
C580 C582 1.353 . S
C580 H586 0.930 . S
N581 Li531 1.990 . S
N581 C580 1.314 . S
N581 C584 1.279 . S
C582 C580 1.353 . S
C582 C585 1.348 . S
C582 H614 0.929 . S
C583 C584 1.358 . S
C583 C585 1.356 . S
C583 H615 0.930 . S
C584 N581 1.279 . S
C584 C583 1.358 . S
C584 H587 0.930 . S
C585 C582 1.348 . S
C585 C583 1.356 . S
H586 C580 0.930 . S
H587 C584 0.930 . S
O588 Li528 1.956 . S
O588 Li529 1.970 . S
O588 Li530 1.961 . S
O588 C532 1.325 . S
O589 Li528 1.970 . S
O589 Li529 1.956 . S
O589 Li531 1.961 . S
O589 C538 1.325 . S
O590 Li528 1.961 . S
O590 Li530 1.956 . S
O590 Li531 1.970 . S
O590 C560 1.325 . S
O591 Li529 1.961 . S
O591 Li530 1.970 . S
O591 Li531 1.956 . S
O591 C566 1.325 . S
H592 C534 0.929 . S
H593 C535 0.930 . S
H594 C536 0.930 . S
H595 C537 0.930 . S
H596 C539 0.930 . S
H597 C541 0.929 . S
H598 C542 0.930 . S
H599 C543 0.930 . S
H600 C546 0.930 . S
H601 C549 0.929 . S
H602 C554 0.929 . S
H603 C555 0.930 . S
H604 C562 0.929 . S
H605 C563 0.930 . S
H606 C564 0.930 . S
H607 C565 0.930 . S
H608 C567 0.929 . S
H609 C568 0.930 . S
H610 C569 0.949 . S
H611 C570 0.930 . S
H612 C574 0.929 . S
H613 C576 0.930 . S
H614 C582 0.929 . S
H615 C583 0.930 . S
Li616 N633 1.990 . S
Li616 O676 1.956 . S
Li616 O677 1.970 . S
Li616 O678 1.961 . S
Li617 N641 1.990 . S
Li617 O676 1.970 . S
Li617 O677 1.956 . S
Li617 O679 1.961 . S
Li618 N663 1.990 . S
Li618 O676 1.961 . S
Li618 O678 1.956 . S
Li618 O679 1.970 . S
Li619 N669 1.990 . S
Li619 O677 1.961 . S
Li619 O678 1.970 . S
Li619 O679 1.956 . S
C620 C622 1.348 . S
C620 C623 1.356 . S
C620 O676 1.325 . S
N621 C624 1.314 . S
N621 C625 1.279 . S
C622 C620 1.348 . S
C622 C624 1.353 . S
C622 H680 0.929 . S
C623 C620 1.356 . S
C623 C625 1.358 . S
C623 H681 0.930 . S
C624 N621 1.314 . S
C624 C622 1.353 . S
C624 H682 0.930 . S
C625 N621 1.279 . S
C625 C623 1.358 . S
C625 H683 0.930 . S
C626 C629 1.348 . S
C626 C630 1.356 . S
C626 O677 1.325 . S
C627 N628 1.279 . S
C627 C630 1.358 . S
C627 H684 0.930 . S
N628 C627 1.279 . S
N628 C631 1.314 . S
C629 C626 1.348 . S
C629 C631 1.353 . S
C629 H685 0.929 . S
C630 C626 1.356 . S
C630 C627 1.358 . S
C630 H686 0.930 . S
C631 N628 1.314 . S
C631 C629 1.353 . S
C631 H687 0.930 . S
C632 N633 1.314 . S
C632 C637 1.353 . S
C632 H638 0.930 . S
N633 Li616 1.990 . S
N633 C632 1.314 . S
N633 C635 1.279 . S
C634 C635 1.358 . S
C634 C636 1.356 . S
C634 H688 0.930 . S
C635 N633 1.279 . S
C635 C634 1.358 . S
C635 H639 0.930 . S
C636 C634 1.356 . S
C636 C637 1.348 . S
C637 C632 1.353 . S
C637 C636 1.348 . S
C637 H689 0.929 . S
H638 C632 0.930 . S
H639 C635 0.930 . S
C640 N641 1.314 . S
C640 C642 1.353 . S
C640 H646 0.930 . S
N641 Li617 1.990 . S
N641 C640 1.314 . S
N641 C644 1.279 . S
C642 C640 1.353 . S
C642 C645 1.348 . S
C642 H690 0.929 . S
C643 C644 1.358 . S
C643 C645 1.356 . S
C643 H691 0.930 . S
C644 N641 1.279 . S
C644 C643 1.358 . S
C644 H647 0.930 . S
C645 C642 1.348 . S
C645 C643 1.356 . S
H646 C640 0.930 . S
H647 C644 0.930 . S
C648 C650 1.348 . S
C648 C651 1.356 . S
C648 O678 1.325 . S
N649 C652 1.314 . S
N649 C653 1.279 . S
C650 C648 1.348 . S
C650 C652 1.353 . S
C650 H692 0.929 . S
C651 C648 1.356 . S
C651 C653 1.358 . S
C651 H693 0.930 . S
C652 N649 1.314 . S
C652 C650 1.353 . S
C652 H694 0.930 . S
C653 N649 1.279 . S
C653 C651 1.358 . S
C653 H695 0.930 . S
C654 C655 1.348 . S
C654 C656 1.356 . S
C654 O679 1.325 . S
C655 C654 1.348 . S
C655 C657 1.353 . S
C655 H696 0.929 . S
C656 C654 1.356 . S
C656 C658 1.358 . S
C656 H697 0.930 . S
C657 C655 1.353 . S
C657 N659 1.314 . S
C657 H698 0.930 . S
C658 C656 1.358 . S
C658 N659 1.279 . S
C658 H699 0.930 . S
N659 C657 1.314 . S
N659 C658 1.279 . S
C660 C662 1.353 . S
C660 N663 1.314 . S
C660 H666 0.930 . S
C661 N663 1.279 . S
C661 C664 1.358 . S
C661 H667 0.930 . S
C662 C660 1.353 . S
C662 C665 1.348 . S
C662 H700 0.929 . S
N663 Li618 1.990 . S
N663 C660 1.314 . S
N663 C661 1.279 . S
C664 C661 1.358 . S
C664 C665 1.356 . S
C664 H701 0.930 . S
C665 C662 1.348 . S
C665 C664 1.356 . S
H666 C660 0.930 . S
H667 C661 0.930 . S
C668 N669 1.314 . S
C668 C670 1.353 . S
C668 H674 0.930 . S
N669 Li619 1.990 . S
N669 C668 1.314 . S
N669 C672 1.279 . S
C670 C668 1.353 . S
C670 C673 1.348 . S
C670 H702 0.929 . S
C671 C672 1.358 . S
C671 C673 1.356 . S
C671 H703 0.930 . S
C672 N669 1.279 . S
C672 C671 1.358 . S
C672 H675 0.930 . S
C673 C670 1.348 . S
C673 C671 1.356 . S
H674 C668 0.930 . S
H675 C672 0.930 . S
O676 Li616 1.956 . S
O676 Li617 1.970 . S
O676 Li618 1.961 . S
O676 C620 1.325 . S
O677 Li616 1.970 . S
O677 Li617 1.956 . S
O677 Li619 1.961 . S
O677 C626 1.325 . S
O678 Li616 1.961 . S
O678 Li618 1.956 . S
O678 Li619 1.970 . S
O678 C648 1.325 . S
O679 Li617 1.961 . S
O679 Li618 1.970 . S
O679 Li619 1.956 . S
O679 C654 1.325 . S
H680 C622 0.929 . S
H681 C623 0.930 . S
H682 C624 0.930 . S
H683 C625 0.930 . S
H684 C627 0.930 . S
H685 C629 0.929 . S
H686 C630 0.930 . S
H687 C631 0.930 . S
H688 C634 0.930 . S
H689 C637 0.929 . S
H690 C642 0.929 . S
H691 C643 0.930 . S
H692 C650 0.929 . S
H693 C651 0.930 . S
H694 C652 0.930 . S
H695 C653 0.930 . S
H696 C655 0.929 . S
H697 C656 0.930 . S
H698 C657 0.930 . S
H699 C658 0.930 . S
H700 C662 0.929 . S
H701 C664 0.930 . S
H702 C670 0.929 . S
H703 C671 0.930 . S
Li704 N721 1.990 . S
Li704 O764 1.956 . S
Li704 O765 1.970 . S
Li704 O766 1.961 . S
Li705 N729 1.990 . S
Li705 O764 1.970 . S
Li705 O765 1.956 . S
Li705 O767 1.961 . S
Li706 N751 1.990 . S
Li706 O764 1.961 . S
Li706 O766 1.956 . S
Li706 O767 1.970 . S
Li707 N757 1.990 . S
Li707 O765 1.961 . S
Li707 O766 1.970 . S
Li707 O767 1.956 . S
C708 C710 1.348 . S
C708 C711 1.356 . S
C708 O764 1.325 . S
N709 C712 1.314 . S
N709 C713 1.279 . S
C710 C708 1.348 . S
C710 C712 1.353 . S
C710 H768 0.929 . S
C711 C708 1.356 . S
C711 C713 1.358 . S
C711 H769 0.930 . S
C712 N709 1.314 . S
C712 C710 1.353 . S
C712 H770 0.930 . S
C713 N709 1.279 . S
C713 C711 1.358 . S
C713 H771 0.930 . S
C714 C717 1.348 . S
C714 C718 1.356 . S
C714 O765 1.325 . S
C715 N716 1.279 . S
C715 C718 1.358 . S
C715 H772 0.930 . S
N716 C715 1.279 . S
N716 C719 1.314 . S
C717 C714 1.348 . S
C717 C719 1.353 . S
C717 H773 0.929 . S
C718 C714 1.356 . S
C718 C715 1.358 . S
C718 H774 0.930 . S
C719 N716 1.314 . S
C719 C717 1.353 . S
C719 H775 0.930 . S
C720 N721 1.314 . S
C720 C725 1.353 . S
C720 H726 0.930 . S
N721 Li704 1.990 . S
N721 C720 1.314 . S
N721 C723 1.279 . S
C722 C723 1.358 . S
C722 C724 1.356 . S
C722 H776 0.930 . S
C723 N721 1.279 . S
C723 C722 1.358 . S
C723 H727 0.930 . S
C724 C722 1.356 . S
C724 C725 1.348 . S
C725 C720 1.353 . S
C725 C724 1.348 . S
C725 H777 0.929 . S
H726 C720 0.930 . S
H727 C723 0.930 . S
C728 N729 1.314 . S
C728 C730 1.353 . S
C728 H734 0.930 . S
N729 Li705 1.990 . S
N729 C728 1.314 . S
N729 C732 1.279 . S
C730 C728 1.353 . S
C730 C733 1.348 . S
C730 H778 0.929 . S
C731 C732 1.358 . S
C731 C733 1.356 . S
C731 H779 0.930 . S
C732 N729 1.279 . S
C732 C731 1.358 . S
C732 H735 0.930 . S
C733 C730 1.348 . S
C733 C731 1.356 . S
H734 C728 0.930 . S
H735 C732 0.930 . S
C736 C738 1.348 . S
C736 C739 1.356 . S
C736 O766 1.325 . S
N737 C740 1.314 . S
N737 C741 1.279 . S
C738 C736 1.348 . S
C738 C740 1.353 . S
C738 H780 0.929 . S
C739 C736 1.356 . S
C739 C741 1.358 . S
C739 H781 0.930 . S
C740 N737 1.314 . S
C740 C738 1.353 . S
C740 H782 0.930 . S
C741 N737 1.279 . S
C741 C739 1.358 . S
C741 H783 0.930 . S
C742 C743 1.348 . S
C742 C744 1.356 . S
C742 O767 1.325 . S
C743 C742 1.348 . S
C743 C745 1.353 . S
C743 H784 0.929 . S
C744 C742 1.356 . S
C744 C746 1.358 . S
C744 H785 0.930 . S
C745 C743 1.353 . S
C745 N747 1.314 1_554 S
C745 H786 0.930 1_554 S
C746 C744 1.358 . S
C746 N747 1.279 1_554 S
C746 H787 0.930 1_554 S
N747 C745 1.314 1_556 S
N747 C746 1.279 1_556 S
C748 C750 1.353 . S
C748 N751 1.314 . S
C748 H754 0.930 . S
C749 N751 1.279 . S
C749 C752 1.358 . S
C749 H755 0.930 . S
C750 C748 1.353 . S
C750 C753 1.348 . S
C750 H788 0.929 . S
N751 Li706 1.990 . S
N751 C748 1.314 . S
N751 C749 1.279 . S
C752 C749 1.358 . S
C752 C753 1.356 . S
C752 H789 0.930 . S
C753 C750 1.348 . S
C753 C752 1.356 . S
H754 C748 0.930 . S
H755 C749 0.930 . S
C756 N757 1.314 . S
C756 C758 1.353 . S
C756 H762 0.930 . S
N757 Li707 1.990 . S
N757 C756 1.314 . S
N757 C760 1.279 . S
C758 C756 1.353 . S
C758 C761 1.348 . S
C758 H790 0.929 . S
C759 C760 1.358 . S
C759 C761 1.356 . S
C759 H791 0.930 . S
C760 N757 1.279 . S
C760 C759 1.358 . S
C760 H763 0.930 . S
C761 C758 1.348 . S
C761 C759 1.356 . S
H762 C756 0.930 . S
H763 C760 0.930 . S
O764 Li704 1.956 . S
O764 Li705 1.970 . S
O764 Li706 1.961 . S
O764 C708 1.325 . S
O765 Li704 1.970 . S
O765 Li705 1.956 . S
O765 Li707 1.961 . S
O765 C714 1.325 . S
O766 Li704 1.961 . S
O766 Li706 1.956 . S
O766 Li707 1.970 . S
O766 C736 1.325 . S
O767 Li705 1.961 . S
O767 Li706 1.970 . S
O767 Li707 1.956 . S
O767 C742 1.325 . S
H768 C710 0.929 . S
H769 C711 0.930 . S
H770 C712 0.930 . S
H771 C713 0.930 . S
H772 C715 0.930 . S
H773 C717 0.929 . S
H774 C718 0.930 . S
H775 C719 0.930 . S
H776 C722 0.930 . S
H777 C725 0.929 . S
H778 C730 0.929 . S
H779 C731 0.930 . S
H780 C738 0.929 . S
H781 C739 0.930 . S
H782 C740 0.930 . S
H783 C741 0.930 . S
H784 C743 0.929 . S
H785 C744 0.930 . S
H786 C745 0.930 1_556 S
H787 C746 0.930 1_556 S
H788 C750 0.929 . S
H789 C752 0.930 . S
H790 C758 0.929 . S
H791 C759 0.930 . S
Li792 N809 1.990 . S
Li792 O852 1.956 . S
Li792 O853 1.970 . S
Li792 O854 1.961 . S
Li793 N817 1.990 . S
Li793 O852 1.970 . S
Li793 O853 1.956 . S
Li793 O855 1.961 . S
Li794 N839 1.990 . S
Li794 O852 1.961 . S
Li794 O854 1.956 . S
Li794 O855 1.970 . S
Li795 N845 1.990 . S
Li795 O853 1.961 . S
Li795 O854 1.970 . S
Li795 O855 1.956 . S
C796 C798 1.348 . S
C796 C799 1.356 . S
C796 O852 1.325 . S
N797 C800 1.314 . S
N797 C801 1.279 . S
C798 C796 1.348 . S
C798 C800 1.353 . S
C798 H856 0.929 . S
C799 C796 1.356 . S
C799 C801 1.358 . S
C799 H857 0.930 . S
C800 N797 1.314 . S
C800 C798 1.353 . S
C800 H858 0.930 . S
C801 N797 1.279 . S
C801 C799 1.358 . S
C801 H859 0.930 . S
C802 C805 1.348 . S
C802 C806 1.356 . S
C802 O853 1.325 . S
C803 N804 1.279 . S
C803 C806 1.358 . S
C803 H860 0.930 . S
N804 C803 1.279 . S
N804 C807 1.314 . S
C805 C802 1.348 . S
C805 C807 1.353 . S
C805 H861 0.929 . S
C806 C802 1.356 . S
C806 C803 1.358 . S
C806 H862 0.930 . S
C807 N804 1.314 . S
C807 C805 1.353 . S
C807 H863 0.930 . S
C808 N809 1.314 . S
C808 C813 1.353 . S
C808 H814 0.930 . S
N809 Li792 1.990 . S
N809 C808 1.314 . S
N809 C811 1.279 . S
C810 C811 1.358 . S
C810 C812 1.356 . S
C810 H864 0.930 . S
C811 N809 1.279 . S
C811 C810 1.358 . S
C811 H815 0.930 . S
C812 C810 1.356 . S
C812 C813 1.348 . S
C813 C808 1.353 . S
C813 C812 1.348 . S
C813 H865 0.929 . S
H814 C808 0.930 . S
H815 C811 0.930 . S
C816 N817 1.314 . S
C816 C818 1.353 . S
C816 H822 0.930 . S
N817 Li793 1.990 . S
N817 C816 1.314 . S
N817 C820 1.279 . S
C818 C816 1.353 . S
C818 C821 1.348 . S
C818 H866 0.929 . S
C819 C820 1.358 . S
C819 C821 1.356 . S
C819 H867 0.930 . S
C820 N817 1.279 . S
C820 C819 1.358 . S
C820 H823 0.930 . S
C821 C818 1.348 . S
C821 C819 1.356 . S
H822 C816 0.930 . S
H823 C820 0.930 . S
C824 C826 1.348 . S
C824 C827 1.356 . S
C824 O854 1.325 . S
N825 C828 1.314 . S
N825 C829 1.279 . S
C826 C824 1.348 . S
C826 C828 1.353 . S
C826 H868 0.929 . S
C827 C824 1.356 . S
C827 C829 1.358 . S
C827 H869 0.930 . S
C828 N825 1.314 . S
C828 C826 1.353 . S
C828 H870 0.930 . S
C829 N825 1.279 . S
C829 C827 1.358 . S
C829 H871 0.930 . S
C830 C831 1.348 . S
C830 C832 1.356 . S
C830 O855 1.325 . S
C831 C830 1.348 . S
C831 C833 1.353 . S
C831 H872 0.929 . S
C832 C830 1.356 . S
C832 C834 1.358 . S
C832 H873 0.930 . S
C833 C831 1.353 . S
C833 N835 1.314 . S
C833 H874 0.930 . S
C834 C832 1.358 . S
C834 N835 1.279 . S
C834 H875 0.930 . S
N835 C833 1.314 . S
N835 C834 1.279 . S
C836 C838 1.353 . S
C836 N839 1.314 . S
C836 H842 0.930 . S
C837 N839 1.279 . S
C837 C840 1.358 . S
C837 H843 0.930 . S
C838 C836 1.353 . S
C838 C841 1.348 . S
C838 H876 0.929 . S
N839 Li794 1.990 . S
N839 C836 1.314 . S
N839 C837 1.279 . S
C840 C837 1.358 . S
C840 C841 1.356 . S
C840 H877 0.930 . S
C841 C838 1.348 . S
C841 C840 1.356 . S
H842 C836 0.930 . S
H843 C837 0.930 . S
C844 N845 1.314 . S
C844 C846 1.353 . S
C844 H850 0.930 . S
N845 Li795 1.990 . S
N845 C844 1.314 . S
N845 C848 1.279 . S
C846 C844 1.353 . S
C846 C849 1.348 . S
C846 H878 0.929 . S
C847 C848 1.358 . S
C847 C849 1.356 . S
C847 H879 0.930 . S
C848 N845 1.279 . S
C848 C847 1.358 . S
C848 H851 0.930 . S
C849 C846 1.348 . S
C849 C847 1.356 . S
H850 C844 0.930 . S
H851 C848 0.930 . S
O852 Li792 1.956 . S
O852 Li793 1.970 . S
O852 Li794 1.961 . S
O852 C796 1.325 . S
O853 Li792 1.970 . S
O853 Li793 1.956 . S
O853 Li795 1.961 . S
O853 C802 1.325 . S
O854 Li792 1.961 . S
O854 Li794 1.956 . S
O854 Li795 1.970 . S
O854 C824 1.325 . S
O855 Li793 1.961 . S
O855 Li794 1.970 . S
O855 Li795 1.956 . S
O855 C830 1.325 . S
H856 C798 0.929 . S
H857 C799 0.930 . S
H858 C800 0.930 . S
H859 C801 0.930 . S
H860 C803 0.930 . S
H861 C805 0.929 . S
H862 C806 0.930 . S
H863 C807 0.930 . S
H864 C810 0.930 . S
H865 C813 0.929 . S
H866 C818 0.929 . S
H867 C819 0.930 . S
H868 C826 0.929 . S
H869 C827 0.930 . S
H870 C828 0.930 . S
H871 C829 0.930 . S
H872 C831 0.929 . S
H873 C832 0.930 . S
H874 C833 0.930 . S
H875 C834 0.930 . S
H876 C838 0.929 . S
H877 C840 0.930 . S
H878 C846 0.929 . S
H879 C847 0.930 . S
Li880 N897 1.990 . S
Li880 O940 1.956 . S
Li880 O941 1.970 . S
Li880 O942 1.961 . S
Li881 N905 1.990 . S
Li881 O940 1.970 . S
Li881 O941 1.956 . S
Li881 O943 1.961 . S
Li882 N927 1.990 . S
Li882 O940 1.961 . S
Li882 O942 1.956 . S
Li882 O943 1.970 . S
Li883 N933 1.990 . S
Li883 O941 1.961 . S
Li883 O942 1.970 . S
Li883 O943 1.956 . S
C884 C886 1.348 . S
C884 C887 1.356 . S
C884 O940 1.325 . S
N885 C888 1.314 . S
N885 C889 1.279 . S
C886 C884 1.348 . S
C886 C888 1.353 . S
C886 H944 0.929 . S
C887 C884 1.356 . S
C887 C889 1.358 . S
C887 H945 0.930 . S
C888 N885 1.314 . S
C888 C886 1.353 . S
C888 H946 0.930 . S
C889 N885 1.279 . S
C889 C887 1.358 . S
C889 H947 0.930 . S
C890 C893 1.348 . S
C890 C894 1.356 . S
C890 O941 1.325 . S
C891 N892 1.279 1_556 S
C891 C894 1.358 . S
C891 H948 0.930 1_556 S
N892 C891 1.279 1_554 S
N892 C895 1.314 1_554 S
C893 C890 1.348 . S
C893 C895 1.353 . S
C893 H949 0.929 . S
C894 C890 1.356 . S
C894 C891 1.358 . S
C894 H950 0.930 . S
C895 N892 1.314 1_556 S
C895 C893 1.353 . S
C895 H951 0.930 1_556 S
C896 N897 1.314 . S
C896 C901 1.353 . S
C896 H902 0.930 . S
N897 Li880 1.990 . S
N897 C896 1.314 . S
N897 C899 1.279 . S
C898 C899 1.358 . S
C898 C900 1.356 . S
C898 H952 0.930 . S
C899 N897 1.279 . S
C899 C898 1.358 . S
C899 H903 0.930 . S
C900 C898 1.356 . S
C900 C901 1.348 . S
C901 C896 1.353 . S
C901 C900 1.348 . S
C901 H953 0.929 . S
H902 C896 0.930 . S
H903 C899 0.930 . S
C904 N905 1.314 . S
C904 C906 1.353 . S
C904 H910 0.930 . S
N905 Li881 1.990 . S
N905 C904 1.314 . S
N905 C908 1.279 . S
C906 C904 1.353 . S
C906 C909 1.348 . S
C906 H954 0.929 . S
C907 C908 1.358 . S
C907 C909 1.356 . S
C907 H955 0.930 . S
C908 N905 1.279 . S
C908 C907 1.358 . S
C908 H911 0.930 . S
C909 C906 1.348 . S
C909 C907 1.356 . S
H910 C904 0.930 . S
H911 C908 0.930 . S
C912 C914 1.348 . S
C912 C915 1.356 . S
C912 O942 1.325 . S
N913 C916 1.314 . S
N913 C917 1.279 . S
C914 C912 1.348 . S
C914 C916 1.353 . S
C914 H956 0.929 . S
C915 C912 1.356 . S
C915 C917 1.358 . S
C915 H957 0.930 . S
C916 N913 1.314 . S
C916 C914 1.353 . S
C916 H958 0.930 . S
C917 N913 1.279 . S
C917 C915 1.358 . S
C917 H959 0.930 . S
C918 C919 1.348 . S
C918 C920 1.356 . S
C918 O943 1.325 . S
C919 C918 1.348 . S
C919 C921 1.353 . S
C919 H960 0.929 . S
C920 C918 1.356 . S
C920 C922 1.358 . S
C920 H961 0.930 . S
C921 C919 1.353 . S
C921 N923 1.314 . S
C921 H962 0.930 . S
C922 C920 1.358 . S
C922 N923 1.279 . S
C922 H963 0.930 . S
N923 C921 1.314 . S
N923 C922 1.279 . S
C924 C926 1.353 . S
C924 N927 1.314 . S
C924 H930 0.930 . S
C925 N927 1.279 . S
C925 C928 1.358 . S
C925 H931 0.930 . S
C926 C924 1.353 . S
C926 C929 1.348 . S
C926 H964 0.929 . S
N927 Li882 1.990 . S
N927 C924 1.314 . S
N927 C925 1.279 . S
C928 C925 1.358 . S
C928 C929 1.356 . S
C928 H965 0.930 . S
C929 C926 1.348 . S
C929 C928 1.356 . S
H930 C924 0.930 . S
H931 C925 0.930 . S
C932 N933 1.314 . S
C932 C934 1.353 . S
C932 H938 0.930 . S
N933 Li883 1.990 . S
N933 C932 1.314 . S
N933 C936 1.279 . S
C934 C932 1.353 . S
C934 C937 1.348 . S
C934 H966 0.929 . S
C935 C936 1.358 . S
C935 C937 1.356 . S
C935 H967 0.930 . S
C936 N933 1.279 . S
C936 C935 1.358 . S
C936 H939 0.930 . S
C937 C934 1.348 . S
C937 C935 1.356 . S
H938 C932 0.930 . S
H939 C936 0.930 . S
O940 Li880 1.956 . S
O940 Li881 1.970 . S
O940 Li882 1.961 . S
O940 C884 1.325 . S
O941 Li880 1.970 . S
O941 Li881 1.956 . S
O941 Li883 1.961 . S
O941 C890 1.325 . S
O942 Li880 1.961 . S
O942 Li882 1.956 . S
O942 Li883 1.970 . S
O942 C912 1.325 . S
O943 Li881 1.961 . S
O943 Li882 1.970 . S
O943 Li883 1.956 . S
O943 C918 1.325 . S
H944 C886 0.929 . S
H945 C887 0.930 . S
H946 C888 0.930 . S
H947 C889 0.930 . S
H948 C891 0.930 1_554 S
H949 C893 0.929 . S
H950 C894 0.930 . S
H951 C895 0.930 1_554 S
H952 C898 0.930 . S
H953 C901 0.929 . S
H954 C906 0.929 . S
H955 C907 0.930 . S
H956 C914 0.929 . S
H957 C915 0.930 . S
H958 C916 0.930 . S
H959 C917 0.930 . S
H960 C919 0.929 . S
H961 C920 0.930 . S
H962 C921 0.930 . S
H963 C922 0.930 . S
H964 C926 0.929 . S
H965 C928 0.930 . S
H966 C934 0.929 . S
H967 C935 0.930 . S
Li968 N985 1.990 . S
Li968 O1028 1.956 . S
Li968 O1029 1.970 . S
Li968 O1030 1.961 . S
Li969 N993 1.990 . S
Li969 O1028 1.970 . S
Li969 O1029 1.956 . S
Li969 O1031 1.961 . S
Li970 N1015 1.990 . S
Li970 O1028 1.961 . S
Li970 O1030 1.956 . S
Li970 O1031 1.970 . S
Li971 N1021 1.990 . S
Li971 O1029 1.961 . S
Li971 O1030 1.970 . S
Li971 O1031 1.956 . S
C972 C974 1.348 . S
C972 C975 1.356 . S
C972 O1028 1.325 . S
N973 C976 1.314 . S
N973 C977 1.279 . S
C974 C972 1.348 . S
C974 C976 1.353 . S
C974 H1032 0.929 . S
C975 C972 1.356 . S
C975 C977 1.358 . S
C975 H1033 0.930 . S
C976 N973 1.314 . S
C976 C974 1.353 . S
C976 H1034 0.930 . S
C977 N973 1.279 . S
C977 C975 1.358 . S
C977 H1035 0.930 . S
C978 C981 1.348 . S
C978 C982 1.356 . S
C978 O1029 1.325 . S
C979 N980 1.279 . S
C979 C982 1.358 . S
C979 H1036 0.930 . S
N980 C979 1.279 . S
N980 C983 1.314 . S
C981 C978 1.348 . S
C981 C983 1.353 . S
C981 H1037 0.929 . S
C982 C978 1.356 . S
C982 C979 1.358 . S
C982 H1038 0.930 . S
C983 N980 1.314 . S
C983 C981 1.353 . S
C983 H1039 0.930 . S
C984 N985 1.314 . S
C984 C989 1.353 . S
C984 H990 0.930 . S
N985 Li968 1.990 . S
N985 C984 1.314 . S
N985 C987 1.279 . S
C986 C987 1.358 . S
C986 C988 1.356 . S
C986 H1040 0.930 . S
C987 N985 1.279 . S
C987 C986 1.358 . S
C987 H991 0.930 . S
C988 C986 1.356 . S
C988 C989 1.348 . S
C989 C984 1.353 . S
C989 C988 1.348 . S
C989 H1041 0.929 . S
H990 C984 0.930 . S
H991 C987 0.930 . S
C992 N993 1.314 . S
C992 C994 1.353 . S
C992 H998 0.930 . S
N993 Li969 1.990 . S
N993 C992 1.314 . S
N993 C996 1.279 . S
C994 C992 1.353 . S
C994 C997 1.348 . S
C994 H1042 0.929 . S
C995 C996 1.358 . S
C995 C997 1.356 . S
C995 H1043 0.930 . S
C996 N993 1.279 . S
C996 C995 1.358 . S
C996 H999 0.930 . S
C997 C994 1.348 . S
C997 C995 1.356 . S
H998 C992 0.930 . S
H999 C996 0.930 . S
C1000 C1002 1.348 . S
C1000 C1003 1.356 . S
C1000 O1030 1.325 . S
N1001 C1004 1.314 . S
N1001 C1005 1.279 . S
C1002 C1000 1.348 . S
C1002 C1004 1.353 . S
C1002 H1044 0.929 . S
C1003 C1000 1.356 . S
C1003 C1005 1.358 . S
C1003 H1045 0.930 . S
C1004 N1001 1.314 . S
C1004 C1002 1.353 . S
C1004 H1046 0.930 . S
C1005 N1001 1.279 . S
C1005 C1003 1.358 . S
C1005 H1047 0.930 . S
C1006 C1007 1.348 . S
C1006 C1008 1.356 . S
C1006 O1031 1.325 . S
C1007 C1006 1.348 . S
C1007 C1009 1.353 . S
C1007 H1048 0.929 . S
C1008 C1006 1.356 . S
C1008 C1010 1.358 . S
C1008 H1049 0.930 . S
C1009 C1007 1.353 . S
C1009 N1011 1.314 . S
C1009 H1050 0.930 . S
C1010 C1008 1.358 . S
C1010 N1011 1.279 . S
C1010 H1051 0.930 . S
N1011 C1009 1.314 . S
N1011 C1010 1.279 . S
C1012 C1014 1.353 . S
C1012 N1015 1.314 . S
C1012 H1018 0.930 . S
C1013 N1015 1.279 . S
C1013 C1016 1.358 . S
C1013 H1019 0.930 . S
C1014 C1012 1.353 . S
C1014 C1017 1.348 . S
C1014 H1052 0.929 . S
N1015 Li970 1.990 . S
N1015 C1012 1.314 . S
N1015 C1013 1.279 . S
C1016 C1013 1.358 . S
C1016 C1017 1.356 . S
C1016 H1053 0.930 . S
C1017 C1014 1.348 . S
C1017 C1016 1.356 . S
H1018 C1012 0.930 . S
H1019 C1013 0.930 . S
C1020 N1021 1.314 . S
C1020 C1022 1.353 . S
C1020 H1026 0.930 . S
N1021 Li971 1.990 . S
N1021 C1020 1.314 . S
N1021 C1024 1.279 . S
C1022 C1020 1.353 . S
C1022 C1025 1.348 . S
C1022 H1054 0.929 . S
C1023 C1024 1.358 . S
C1023 C1025 1.356 . S
C1023 H1055 0.930 . S
C1024 N1021 1.279 . S
C1024 C1023 1.358 . S
C1024 H1027 0.930 . S
C1025 C1022 1.348 . S
C1025 C1023 1.356 . S
H1026 C1020 0.930 . S
H1027 C1024 0.930 . S
O1028 Li968 1.956 . S
O1028 Li969 1.970 . S
O1028 Li970 1.961 . S
O1028 C972 1.325 . S
O1029 Li968 1.970 . S
O1029 Li969 1.956 . S
O1029 Li971 1.961 . S
O1029 C978 1.325 . S
O1030 Li968 1.961 . S
O1030 Li970 1.956 . S
O1030 Li971 1.970 . S
O1030 C1000 1.325 . S
O1031 Li969 1.961 . S
O1031 Li970 1.970 . S
O1031 Li971 1.956 . S
O1031 C1006 1.325 . S
H1032 C974 0.929 . S
H1033 C975 0.930 . S
H1034 C976 0.930 . S
H1035 C977 0.930 . S
H1036 C979 0.930 . S
H1037 C981 0.929 . S
H1038 C982 0.930 . S
H1039 C983 0.930 . S
H1040 C986 0.930 . S
H1041 C989 0.929 . S
H1042 C994 0.929 . S
H1043 C995 0.930 . S
H1044 C1002 0.929 . S
H1045 C1003 0.930 . S
H1046 C1004 0.930 . S
H1047 C1005 0.930 . S
H1048 C1007 0.929 . S
H1049 C1008 0.930 . S
H1050 C1009 0.930 . S
H1051 C1010 0.930 . S
H1052 C1014 0.929 . S
H1053 C1016 0.930 . S
H1054 C1022 0.929 . S
H1055 C1023 0.930 . S
Li1056 N1073 1.990 . S
Li1056 O1116 1.956 . S
Li1056 O1117 1.970 . S
Li1056 O1118 1.961 . S
Li1057 N1081 1.990 . S
Li1057 O1116 1.970 . S
Li1057 O1117 1.956 . S
Li1057 O1119 1.961 . S
Li1058 N1103 1.990 . S
Li1058 O1116 1.961 . S
Li1058 O1118 1.956 . S
Li1058 O1119 1.970 . S
Li1059 N1109 1.990 . S
Li1059 O1117 1.961 . S
Li1059 O1118 1.970 . S
Li1059 O1119 1.956 . S
C1060 C1062 1.348 . S
C1060 C1063 1.356 . S
C1060 O1116 1.325 . S
N1061 C1064 1.326 . S
N1061 C1065 1.279 1_554 S
C1062 C1060 1.348 . S
C1062 C1064 1.325 1_556 S
C1062 H1120 0.929 . S
C1063 C1060 1.356 . S
C1063 C1065 1.358 . S
C1063 H1121 0.930 . S
C1064 N1061 1.326 . S
C1064 C1062 1.325 1_554 S
C1064 H1122 0.949 . S
C1065 N1061 1.279 1_556 S
C1065 C1063 1.358 . S
C1065 H1123 0.930 . S
C1066 C1069 1.348 . S
C1066 C1070 1.356 . S
C1066 O1117 1.325 . S
C1067 N1068 1.279 . S
C1067 C1070 1.358 . S
C1067 H1124 0.930 . S
N1068 C1067 1.279 . S
N1068 C1071 1.314 . S
C1069 C1066 1.348 . S
C1069 C1071 1.353 . S
C1069 H1125 0.929 . S
C1070 C1066 1.356 . S
C1070 C1067 1.358 . S
C1070 H1126 0.930 . S
C1071 N1068 1.314 . S
C1071 C1069 1.353 . S
C1071 H1127 0.930 . S
C1072 N1073 1.314 . S
C1072 C1077 1.353 . S
C1072 H1078 0.930 . S
N1073 Li1056 1.990 . S
N1073 C1072 1.314 . S
N1073 C1075 1.279 . S
C1074 C1075 1.358 . S
C1074 C1076 1.356 . S
C1074 H1128 0.930 . S
C1075 N1073 1.279 . S
C1075 C1074 1.358 . S
C1075 H1079 0.930 . S
C1076 C1074 1.356 . S
C1076 C1077 1.348 . S
C1077 C1072 1.353 . S
C1077 C1076 1.348 . S
C1077 H1129 0.929 . S
H1078 C1072 0.930 . S
H1079 C1075 0.930 . S
C1080 N1081 1.314 . S
C1080 C1082 1.353 . S
C1080 H1086 0.930 . S
N1081 Li1057 1.990 . S
N1081 C1080 1.314 . S
N1081 C1084 1.279 . S
C1082 C1080 1.353 . S
C1082 C1085 1.348 . S
C1082 H1130 0.929 . S
C1083 C1084 1.358 . S
C1083 C1085 1.356 . S
C1083 H1131 0.930 . S
C1084 N1081 1.279 . S
C1084 C1083 1.358 . S
C1084 H1087 0.930 . S
C1085 C1082 1.348 . S
C1085 C1083 1.356 . S
H1086 C1080 0.930 . S
H1087 C1084 0.930 . S
C1088 C1090 1.348 . S
C1088 C1091 1.356 . S
C1088 O1118 1.325 . S
N1089 C1092 1.314 . S
N1089 C1093 1.279 . S
C1090 C1088 1.348 . S
C1090 C1092 1.353 . S
C1090 H1132 0.929 . S
C1091 C1088 1.356 . S
C1091 C1093 1.358 . S
C1091 H1133 0.930 . S
C1092 N1089 1.314 . S
C1092 C1090 1.353 . S
C1092 H1134 0.930 . S
C1093 N1089 1.279 . S
C1093 C1091 1.358 . S
C1093 H1135 0.930 . S
C1094 C1095 1.348 . S
C1094 C1096 1.356 . S
C1094 O1119 1.325 . S
C1095 C1094 1.348 . S
C1095 C1097 1.353 . S
C1095 H1136 0.929 . S
C1096 C1094 1.356 . S
C1096 C1098 1.358 . S
C1096 H1137 0.930 . S
C1097 C1095 1.353 . S
C1097 N1099 1.314 . S
C1097 H1138 0.930 . S
C1098 C1096 1.358 . S
C1098 N1099 1.279 . S
C1098 H1139 0.930 . S
N1099 C1097 1.314 . S
N1099 C1098 1.279 . S
C1100 C1102 1.353 . S
C1100 N1103 1.314 . S
C1100 H1106 0.930 . S
C1101 N1103 1.279 . S
C1101 C1104 1.358 . S
C1101 H1107 0.930 . S
C1102 C1100 1.353 . S
C1102 C1105 1.348 . S
C1102 H1140 0.929 . S
N1103 Li1058 1.990 . S
N1103 C1100 1.314 . S
N1103 C1101 1.279 . S
C1104 C1101 1.358 . S
C1104 C1105 1.356 . S
C1104 H1141 0.930 . S
C1105 C1102 1.348 . S
C1105 C1104 1.356 . S
H1106 C1100 0.930 . S
H1107 C1101 0.930 . S
C1108 N1109 1.314 . S
C1108 C1110 1.353 . S
C1108 H1114 0.930 . S
N1109 Li1059 1.990 . S
N1109 C1108 1.314 . S
N1109 C1112 1.279 . S
C1110 C1108 1.353 . S
C1110 C1113 1.348 . S
C1110 H1142 0.929 . S
C1111 C1112 1.358 . S
C1111 C1113 1.356 . S
C1111 H1143 0.930 . S
C1112 N1109 1.279 . S
C1112 C1111 1.358 . S
C1112 H1115 0.930 . S
C1113 C1110 1.348 . S
C1113 C1111 1.356 . S
H1114 C1108 0.930 . S
H1115 C1112 0.930 . S
O1116 Li1056 1.956 . S
O1116 Li1057 1.970 . S
O1116 Li1058 1.961 . S
O1116 C1060 1.325 . S
O1117 Li1056 1.970 . S
O1117 Li1057 1.956 . S
O1117 Li1059 1.961 . S
O1117 C1066 1.325 . S
O1118 Li1056 1.961 . S
O1118 Li1058 1.956 . S
O1118 Li1059 1.970 . S
O1118 C1088 1.325 . S
O1119 Li1057 1.961 . S
O1119 Li1058 1.970 . S
O1119 Li1059 1.956 . S
O1119 C1094 1.325 . S
H1120 C1062 0.929 . S
H1121 C1063 0.930 . S
H1122 C1064 0.949 . S
H1123 C1065 0.930 . S
H1124 C1067 0.930 . S
H1125 C1069 0.929 . S
H1126 C1070 0.930 . S
H1127 C1071 0.930 . S
H1128 C1074 0.930 . S
H1129 C1077 0.929 . S
H1130 C1082 0.929 . S
H1131 C1083 0.930 . S
H1132 C1090 0.929 . S
H1133 C1091 0.930 . S
H1134 C1092 0.930 . S
H1135 C1093 0.930 . S
H1136 C1095 0.929 . S
H1137 C1096 0.930 . S
H1138 C1097 0.930 . S
H1139 C1098 0.930 . S
H1140 C1102 0.929 . S
H1141 C1104 0.930 . S
H1142 C1110 0.929 . S
H1143 C1111 0.930 . S
Li1144 N1161 1.990 . S
Li1144 O1204 1.956 . S
Li1144 O1205 1.970 . S
Li1144 O1206 1.961 . S
Li1145 N1169 1.990 . S
Li1145 O1204 1.970 . S
Li1145 O1205 1.956 . S
Li1145 O1207 1.961 . S
Li1146 N1191 1.990 . S
Li1146 O1204 1.961 . S
Li1146 O1206 1.956 . S
Li1146 O1207 1.970 . S
Li1147 N1197 1.990 . S
Li1147 O1205 1.961 . S
Li1147 O1206 1.970 . S
Li1147 O1207 1.956 . S
C1148 C1150 1.348 . S
C1148 C1151 1.356 . S
C1148 O1204 1.325 . S
N1149 C1152 1.314 . S
N1149 C1153 1.279 . S
C1150 C1148 1.348 . S
C1150 C1152 1.353 . S
C1150 H1208 0.929 . S
C1151 C1148 1.356 . S
C1151 C1153 1.358 . S
C1151 H1209 0.930 . S
C1152 N1149 1.314 . S
C1152 C1150 1.353 . S
C1152 H1210 0.930 . S
C1153 N1149 1.279 . S
C1153 C1151 1.358 . S
C1153 H1211 0.930 . S
C1154 C1157 1.348 . S
C1154 C1158 1.356 . S
C1154 O1205 1.325 . S
C1155 N1156 1.279 . S
C1155 C1158 1.358 . S
C1155 H1212 0.930 . S
N1156 C1155 1.279 . S
N1156 C1159 1.314 . S
C1157 C1154 1.348 . S
C1157 C1159 1.353 . S
C1157 H1213 0.929 . S
C1158 C1154 1.356 . S
C1158 C1155 1.358 . S
C1158 H1214 0.930 . S
C1159 N1156 1.314 . S
C1159 C1157 1.353 . S
C1159 H1215 0.930 . S
C1160 N1161 1.314 . S
C1160 C1165 1.353 . S
C1160 H1166 0.930 . S
N1161 Li1144 1.990 . S
N1161 C1160 1.314 . S
N1161 C1163 1.279 . S
C1162 C1163 1.358 . S
C1162 C1164 1.356 . S
C1162 H1216 0.930 . S
C1163 N1161 1.279 . S
C1163 C1162 1.358 . S
C1163 H1167 0.930 . S
C1164 C1162 1.356 . S
C1164 C1165 1.348 . S
C1165 C1160 1.353 . S
C1165 C1164 1.348 . S
C1165 H1217 0.929 . S
H1166 C1160 0.930 . S
H1167 C1163 0.930 . S
C1168 N1169 1.314 . S
C1168 C1170 1.353 . S
C1168 H1174 0.930 . S
N1169 Li1145 1.990 . S
N1169 C1168 1.314 . S
N1169 C1172 1.279 . S
C1170 C1168 1.353 . S
C1170 C1173 1.348 . S
C1170 H1218 0.929 . S
C1171 C1172 1.358 . S
C1171 C1173 1.356 . S
C1171 H1219 0.930 . S
C1172 N1169 1.279 . S
C1172 C1171 1.358 . S
C1172 H1175 0.930 . S
C1173 C1170 1.348 . S
C1173 C1171 1.356 . S
H1174 C1168 0.930 . S
H1175 C1172 0.930 . S
C1176 C1178 1.348 . S
C1176 C1179 1.356 . S
C1176 O1206 1.325 . S
N1177 C1180 1.314 . S
N1177 C1181 1.279 . S
C1178 C1176 1.348 . S
C1178 C1180 1.353 . S
C1178 H1220 0.929 . S
C1179 C1176 1.356 . S
C1179 C1181 1.358 . S
C1179 H1221 0.930 . S
C1180 N1177 1.314 . S
C1180 C1178 1.353 . S
C1180 H1222 0.930 . S
C1181 N1177 1.279 . S
C1181 C1179 1.358 . S
C1181 H1223 0.930 . S
C1182 C1183 1.348 . S
C1182 C1184 1.356 . S
C1182 O1207 1.325 . S
C1183 C1182 1.348 . S
C1183 C1185 1.353 . S
C1183 H1224 0.929 . S
C1184 C1182 1.356 . S
C1184 C1186 1.358 . S
C1184 H1225 0.930 . S
C1185 C1183 1.353 . S
C1185 N1187 1.314 . S
C1185 H1226 0.930 . S
C1186 C1184 1.358 . S
C1186 N1187 1.279 . S
C1186 H1227 0.930 . S
N1187 C1185 1.314 . S
N1187 C1186 1.279 . S
C1188 C1190 1.353 . S
C1188 N1191 1.314 . S
C1188 H1194 0.930 . S
C1189 N1191 1.279 . S
C1189 C1192 1.358 . S
C1189 H1195 0.930 . S
C1190 C1188 1.353 . S
C1190 C1193 1.348 . S
C1190 H1228 0.929 . S
N1191 Li1146 1.990 . S
N1191 C1188 1.314 . S
N1191 C1189 1.279 . S
C1192 C1189 1.358 . S
C1192 C1193 1.356 . S
C1192 H1229 0.930 . S
C1193 C1190 1.348 . S
C1193 C1192 1.356 . S
H1194 C1188 0.930 . S
H1195 C1189 0.930 . S
C1196 N1197 1.314 . S
C1196 C1198 1.353 . S
C1196 H1202 0.930 . S
N1197 Li1147 1.990 . S
N1197 C1196 1.314 . S
N1197 C1200 1.279 . S
C1198 C1196 1.353 . S
C1198 C1201 1.348 . S
C1198 H1230 0.929 . S
C1199 C1200 1.358 . S
C1199 C1201 1.356 . S
C1199 H1231 0.930 . S
C1200 N1197 1.279 . S
C1200 C1199 1.358 . S
C1200 H1203 0.930 . S
C1201 C1198 1.348 . S
C1201 C1199 1.356 . S
H1202 C1196 0.930 . S
H1203 C1200 0.930 . S
O1204 Li1144 1.956 . S
O1204 Li1145 1.970 . S
O1204 Li1146 1.961 . S
O1204 C1148 1.325 . S
O1205 Li1144 1.970 . S
O1205 Li1145 1.956 . S
O1205 Li1147 1.961 . S
O1205 C1154 1.325 . S
O1206 Li1144 1.961 . S
O1206 Li1146 1.956 . S
O1206 Li1147 1.970 . S
O1206 C1176 1.325 . S
O1207 Li1145 1.961 . S
O1207 Li1146 1.970 . S
O1207 Li1147 1.956 . S
O1207 C1182 1.325 . S
H1208 C1150 0.929 . S
H1209 C1151 0.930 . S
H1210 C1152 0.930 . S
H1211 C1153 0.930 . S
H1212 C1155 0.930 . S
H1213 C1157 0.929 . S
H1214 C1158 0.930 . S
H1215 C1159 0.930 . S
H1216 C1162 0.930 . S
H1217 C1165 0.929 . S
H1218 C1170 0.929 . S
H1219 C1171 0.930 . S
H1220 C1178 0.929 . S
H1221 C1179 0.930 . S
H1222 C1180 0.930 . S
H1223 C1181 0.930 . S
H1224 C1183 0.929 . S
H1225 C1184 0.930 . S
H1226 C1185 0.930 . S
H1227 C1186 0.930 . S
H1228 C1190 0.929 . S
H1229 C1192 0.930 . S
H1230 C1198 0.929 . S
H1231 C1199 0.930 . S
Li1232 N1249 1.990 . S
Li1232 O1292 1.956 . S
Li1232 O1293 1.970 . S
Li1232 O1294 1.961 . S
Li1233 N1257 1.990 . S
Li1233 O1292 1.970 . S
Li1233 O1293 1.956 . S
Li1233 O1295 1.961 . S
Li1234 N1279 1.990 . S
Li1234 O1292 1.961 . S
Li1234 O1294 1.956 . S
Li1234 O1295 1.970 . S
Li1235 N1285 1.990 . S
Li1235 O1293 1.961 . S
Li1235 O1294 1.970 . S
Li1235 O1295 1.956 . S
C1236 C1238 1.348 . S
C1236 C1239 1.356 . S
C1236 O1292 1.325 . S
N1237 C1240 1.314 . S
N1237 C1241 1.279 . S
C1238 C1236 1.348 . S
C1238 C1240 1.353 . S
C1238 H1296 0.929 . S
C1239 C1236 1.356 . S
C1239 C1241 1.358 . S
C1239 H1297 0.930 . S
C1240 N1237 1.314 . S
C1240 C1238 1.353 . S
C1240 H1298 0.930 . S
C1241 N1237 1.279 . S
C1241 C1239 1.358 . S
C1241 H1299 0.930 . S
C1242 C1245 1.348 . S
C1242 C1246 1.356 . S
C1242 O1293 1.325 . S
C1243 N1244 1.279 . S
C1243 C1246 1.358 . S
C1243 H1300 0.930 . S
N1244 C1243 1.279 . S
N1244 C1247 1.314 . S
C1245 C1242 1.348 . S
C1245 C1247 1.353 . S
C1245 H1301 0.929 . S
C1246 C1242 1.356 . S
C1246 C1243 1.358 . S
C1246 H1302 0.930 . S
C1247 N1244 1.314 . S
C1247 C1245 1.353 . S
C1247 H1303 0.930 . S
C1248 N1249 1.314 . S
C1248 C1253 1.353 . S
C1248 H1254 0.930 . S
N1249 Li1232 1.990 . S
N1249 C1248 1.314 . S
N1249 C1251 1.279 . S
C1250 C1251 1.358 . S
C1250 C1252 1.356 . S
C1250 H1304 0.930 . S
C1251 N1249 1.279 . S
C1251 C1250 1.358 . S
C1251 H1255 0.930 . S
C1252 C1250 1.356 . S
C1252 C1253 1.348 . S
C1253 C1248 1.353 . S
C1253 C1252 1.348 . S
C1253 H1305 0.929 . S
H1254 C1248 0.930 . S
H1255 C1251 0.930 . S
C1256 N1257 1.314 . S
C1256 C1258 1.353 . S
C1256 H1262 0.930 . S
N1257 Li1233 1.990 . S
N1257 C1256 1.314 . S
N1257 C1260 1.279 . S
C1258 C1256 1.353 . S
C1258 C1261 1.348 . S
C1258 H1306 0.929 . S
C1259 C1260 1.358 . S
C1259 C1261 1.356 . S
C1259 H1307 0.930 . S
C1260 N1257 1.279 . S
C1260 C1259 1.358 . S
C1260 H1263 0.930 . S
C1261 C1258 1.348 . S
C1261 C1259 1.356 . S
H1262 C1256 0.930 . S
H1263 C1260 0.930 . S
C1264 C1266 1.348 . S
C1264 C1267 1.356 . S
C1264 O1294 1.325 . S
N1265 C1268 1.314 . S
N1265 C1269 1.279 . S
C1266 C1264 1.348 . S
C1266 C1268 1.353 . S
C1266 H1308 0.929 . S
C1267 C1264 1.356 . S
C1267 C1269 1.358 . S
C1267 H1309 0.930 . S
C1268 N1265 1.314 . S
C1268 C1266 1.353 . S
C1268 H1310 0.930 . S
C1269 N1265 1.279 . S
C1269 C1267 1.358 . S
C1269 H1311 0.930 . S
C1270 C1271 1.348 . S
C1270 C1272 1.356 . S
C1270 O1295 1.325 . S
C1271 C1270 1.348 . S
C1271 C1273 1.325 1_554 S
C1271 H1312 0.929 . S
C1272 C1270 1.356 . S
C1272 C1274 1.358 . S
C1272 H1313 0.930 . S
C1273 C1271 1.325 1_556 S
C1273 N1275 1.326 . S
C1273 H1314 0.949 . S
C1274 C1272 1.358 . S
C1274 N1275 1.279 1_554 S
C1274 H1315 0.930 . S
N1275 C1273 1.326 . S
N1275 C1274 1.279 1_556 S
C1276 C1278 1.353 . S
C1276 N1279 1.314 . S
C1276 H1282 0.930 . S
C1277 N1279 1.279 . S
C1277 C1280 1.358 . S
C1277 H1283 0.930 . S
C1278 C1276 1.353 . S
C1278 C1281 1.348 . S
C1278 H1316 0.929 . S
N1279 Li1234 1.990 . S
N1279 C1276 1.314 . S
N1279 C1277 1.279 . S
C1280 C1277 1.358 . S
C1280 C1281 1.356 . S
C1280 H1317 0.930 . S
C1281 C1278 1.348 . S
C1281 C1280 1.356 . S
H1282 C1276 0.930 . S
H1283 C1277 0.930 . S
C1284 N1285 1.314 . S
C1284 C1286 1.353 . S
C1284 H1290 0.930 . S
N1285 Li1235 1.990 . S
N1285 C1284 1.314 . S
N1285 C1288 1.279 . S
C1286 C1284 1.353 . S
C1286 C1289 1.348 . S
C1286 H1318 0.929 . S
C1287 C1288 1.358 . S
C1287 C1289 1.356 . S
C1287 H1319 0.930 . S
C1288 N1285 1.279 . S
C1288 C1287 1.358 . S
C1288 H1291 0.930 . S
C1289 C1286 1.348 . S
C1289 C1287 1.356 . S
H1290 C1284 0.930 . S
H1291 C1288 0.930 . S
O1292 Li1232 1.956 . S
O1292 Li1233 1.970 . S
O1292 Li1234 1.961 . S
O1292 C1236 1.325 . S
O1293 Li1232 1.970 . S
O1293 Li1233 1.956 . S
O1293 Li1235 1.961 . S
O1293 C1242 1.325 . S
O1294 Li1232 1.961 . S
O1294 Li1234 1.956 . S
O1294 Li1235 1.970 . S
O1294 C1264 1.325 . S
O1295 Li1233 1.961 . S
O1295 Li1234 1.970 . S
O1295 Li1235 1.956 . S
O1295 C1270 1.325 . S
H1296 C1238 0.929 . S
H1297 C1239 0.930 . S
H1298 C1240 0.930 . S
H1299 C1241 0.930 . S
H1300 C1243 0.930 . S
H1301 C1245 0.929 . S
H1302 C1246 0.930 . S
H1303 C1247 0.930 . S
H1304 C1250 0.930 . S
H1305 C1253 0.929 . S
H1306 C1258 0.929 . S
H1307 C1259 0.930 . S
H1308 C1266 0.929 . S
H1309 C1267 0.930 . S
H1310 C1268 0.930 . S
H1311 C1269 0.930 . S
H1312 C1271 0.929 . S
H1313 C1272 0.930 . S
H1314 C1273 0.949 . S
H1315 C1274 0.930 . S
H1316 C1278 0.929 . S
H1317 C1280 0.930 . S
H1318 C1286 0.929 . S
H1319 C1287 0.930 . S
Li1320 N1337 1.990 . S
Li1320 O1380 1.956 . S
Li1320 O1381 1.970 . S
Li1320 O1382 1.961 . S
Li1321 N1345 1.990 . S
Li1321 O1380 1.970 . S
Li1321 O1381 1.956 . S
Li1321 O1383 1.961 . S
Li1322 N1367 1.990 . S
Li1322 O1380 1.961 . S
Li1322 O1382 1.956 . S
Li1322 O1383 1.970 . S
Li1323 N1373 1.990 . S
Li1323 O1381 1.961 . S
Li1323 O1382 1.970 . S
Li1323 O1383 1.956 . S
C1324 C1326 1.348 . S
C1324 C1327 1.356 . S
C1324 O1380 1.325 . S
N1325 C1328 1.314 . S
N1325 C1329 1.279 . S
C1326 C1324 1.348 . S
C1326 C1328 1.353 . S
C1326 H1384 0.929 . S
C1327 C1324 1.356 . S
C1327 C1329 1.358 . S
C1327 H1385 0.930 . S
C1328 N1325 1.314 . S
C1328 C1326 1.353 . S
C1328 H1386 0.930 . S
C1329 N1325 1.279 . S
C1329 C1327 1.358 . S
C1329 H1387 0.930 . S
C1330 C1333 1.348 . S
C1330 C1334 1.356 . S
C1330 O1381 1.325 . S
C1331 N1332 1.279 . S
C1331 C1334 1.358 . S
C1331 H1388 0.930 . S
N1332 C1331 1.279 . S
N1332 C1335 1.314 . S
C1333 C1330 1.348 . S
C1333 C1335 1.353 . S
C1333 H1389 0.929 . S
C1334 C1330 1.356 . S
C1334 C1331 1.358 . S
C1334 H1390 0.930 . S
C1335 N1332 1.314 . S
C1335 C1333 1.353 . S
C1335 H1391 0.930 . S
C1336 N1337 1.314 . S
C1336 C1341 1.353 . S
C1336 H1342 0.930 . S
N1337 Li1320 1.990 . S
N1337 C1336 1.314 . S
N1337 C1339 1.279 . S
C1338 C1339 1.358 . S
C1338 C1340 1.356 . S
C1338 H1392 0.930 . S
C1339 N1337 1.279 . S
C1339 C1338 1.358 . S
C1339 H1343 0.930 . S
C1340 C1338 1.356 . S
C1340 C1341 1.348 . S
C1341 C1336 1.353 . S
C1341 C1340 1.348 . S
C1341 H1393 0.929 . S
H1342 C1336 0.930 . S
H1343 C1339 0.930 . S
C1344 N1345 1.314 . S
C1344 C1346 1.353 . S
C1344 H1350 0.930 . S
N1345 Li1321 1.990 . S
N1345 C1344 1.314 . S
N1345 C1348 1.279 . S
C1346 C1344 1.353 . S
C1346 C1349 1.348 . S
C1346 H1394 0.929 . S
C1347 C1348 1.358 . S
C1347 C1349 1.356 . S
C1347 H1395 0.930 . S
C1348 N1345 1.279 . S
C1348 C1347 1.358 . S
C1348 H1351 0.930 . S
C1349 C1346 1.348 . S
C1349 C1347 1.356 . S
H1350 C1344 0.930 . S
H1351 C1348 0.930 . S
C1352 C1354 1.348 . S
C1352 C1355 1.356 . S
C1352 O1382 1.325 . S
N1353 C1356 1.314 . S
N1353 C1357 1.279 . S
C1354 C1352 1.348 . S
C1354 C1356 1.353 . S
C1354 H1396 0.929 . S
C1355 C1352 1.356 . S
C1355 C1357 1.358 . S
C1355 H1397 0.930 . S
C1356 N1353 1.314 . S
C1356 C1354 1.353 . S
C1356 H1398 0.930 . S
C1357 N1353 1.279 . S
C1357 C1355 1.358 . S
C1357 H1399 0.930 . S
C1358 C1359 1.348 . S
C1358 C1360 1.356 . S
C1358 O1383 1.325 . S
C1359 C1358 1.348 . S
C1359 C1361 1.353 . S
C1359 H1400 0.929 . S
C1360 C1358 1.356 . S
C1360 C1362 1.358 . S
C1360 H1401 0.930 . S
C1361 C1359 1.353 . S
C1361 N1363 1.314 . S
C1361 H1402 0.930 . S
C1362 C1360 1.358 . S
C1362 N1363 1.279 . S
C1362 H1403 0.930 . S
N1363 C1361 1.314 . S
N1363 C1362 1.279 . S
C1364 C1366 1.353 . S
C1364 N1367 1.314 . S
C1364 H1370 0.930 . S
C1365 N1367 1.279 . S
C1365 C1368 1.358 . S
C1365 H1371 0.930 . S
C1366 C1364 1.353 . S
C1366 C1369 1.348 . S
C1366 H1404 0.929 . S
N1367 Li1322 1.990 . S
N1367 C1364 1.314 . S
N1367 C1365 1.279 . S
C1368 C1365 1.358 . S
C1368 C1369 1.356 . S
C1368 H1405 0.930 . S
C1369 C1366 1.348 . S
C1369 C1368 1.356 . S
H1370 C1364 0.930 . S
H1371 C1365 0.930 . S
C1372 N1373 1.314 . S
C1372 C1374 1.353 . S
C1372 H1378 0.930 . S
N1373 Li1323 1.990 . S
N1373 C1372 1.314 . S
N1373 C1376 1.279 . S
C1374 C1372 1.353 . S
C1374 C1377 1.348 . S
C1374 H1406 0.929 . S
C1375 C1376 1.358 . S
C1375 C1377 1.356 . S
C1375 H1407 0.930 . S
C1376 N1373 1.279 . S
C1376 C1375 1.358 . S
C1376 H1379 0.930 . S
C1377 C1374 1.348 . S
C1377 C1375 1.356 . S
H1378 C1372 0.930 . S
H1379 C1376 0.930 . S
O1380 Li1320 1.956 . S
O1380 Li1321 1.970 . S
O1380 Li1322 1.961 . S
O1380 C1324 1.325 . S
O1381 Li1320 1.970 . S
O1381 Li1321 1.956 . S
O1381 Li1323 1.961 . S
O1381 C1330 1.325 . S
O1382 Li1320 1.961 . S
O1382 Li1322 1.956 . S
O1382 Li1323 1.970 . S
O1382 C1352 1.325 . S
O1383 Li1321 1.961 . S
O1383 Li1322 1.970 . S
O1383 Li1323 1.956 . S
O1383 C1358 1.325 . S
H1384 C1326 0.929 . S
H1385 C1327 0.930 . S
H1386 C1328 0.930 . S
H1387 C1329 0.930 . S
H1388 C1331 0.930 . S
H1389 C1333 0.929 . S
H1390 C1334 0.930 . S
H1391 C1335 0.930 . S
H1392 C1338 0.930 . S
H1393 C1341 0.929 . S
H1394 C1346 0.929 . S
H1395 C1347 0.930 . S
H1396 C1354 0.929 . S
H1397 C1355 0.930 . S
H1398 C1356 0.930 . S
H1399 C1357 0.930 . S
H1400 C1359 0.929 . S
H1401 C1360 0.930 . S
H1402 C1361 0.930 . S
H1403 C1362 0.930 . S
H1404 C1366 0.929 . S
H1405 C1368 0.930 . S
H1406 C1374 0.929 . S
H1407 C1375 0.930 . S
H1408 C1420 0.930 . S
H1409 C1422 0.930 . S
H1410 C1423 0.930 . S
H1411 C1427 0.959 . S
H1412 C1427 0.955 . S
H1413 C1427 0.965 1_455 S
H1414 C1428 0.973 . S
H1415 C1428 0.949 1_655 S
H1416 C1428 0.956 1_655 S
H1417 C1431 0.929 . S
H1418 C1432 0.931 . S
H1419 C1434 0.930 . S
C1420 H1408 0.930 . S
C1420 C1421 1.399 . S
C1420 C1425 1.399 . S
C1421 C1420 1.399 . S
C1421 C1422 1.376 . S
C1422 H1409 0.930 . S
C1422 C1421 1.376 . S
C1422 C1423 1.388 . S
C1423 H1410 0.930 . S
C1423 C1422 1.388 . S
C1423 C1424 1.390 . S
C1424 C1423 1.390 . S
C1424 C1425 1.394 . S
C1424 C1430 1.465 1_455 S
C1425 C1420 1.399 . S
C1425 C1424 1.394 . S
C1425 C1426 1.531 . S
C1426 C1425 1.531 . S
C1426 C1427 1.502 1_455 S
C1426 C1428 1.561 . S
C1426 C1429 1.511 1_455 S
C1427 H1411 0.959 . S
C1427 H1412 0.955 . S
C1427 H1413 0.965 1_655 S
C1427 C1426 1.502 1_655 S
C1428 H1414 0.973 . S
C1428 H1415 0.949 1_455 S
C1428 H1416 0.956 1_455 S
C1428 C1426 1.561 . S
C1429 C1426 1.511 1_655 S
C1429 C1430 1.396 . S
C1429 C1434 1.390 . S
C1430 C1424 1.465 1_655 S
C1430 C1429 1.396 . S
C1430 C1431 1.399 . S
C1431 H1417 0.929 . S
C1431 C1430 1.399 . S
C1431 C1432 1.385 . S
C1432 H1418 0.931 . S
C1432 C1431 1.385 . S
C1432 C1433 1.389 . S
C1433 C1432 1.389 . S
C1433 C1434 1.387 . S
C1434 H1419 0.930 . S
C1434 C1429 1.390 . S
C1434 C1433 1.387 . S
H1435 C1447 0.930 . S
H1436 C1449 0.930 . S
H1437 C1450 0.930 . S
H1438 C1454 0.959 . S
H1439 C1454 0.954 . S
H1440 C1454 0.966 1_655 S
H1441 C1455 0.973 . S
H1442 C1455 0.950 1_455 S
H1443 C1455 0.955 1_455 S
H1444 C1458 0.929 . S
H1445 C1459 0.931 . S
H1446 C1461 0.930 . S
C1447 H1435 0.930 . S
C1447 C1448 1.399 . S
C1447 C1452 1.399 . S
C1448 C1447 1.399 . S
C1448 C1449 1.376 . S
C1449 H1436 0.930 . S
C1449 C1448 1.376 . S
C1449 C1450 1.388 . S
C1450 H1437 0.930 . S
C1450 C1449 1.388 . S
C1450 C1451 1.390 . S
C1451 C1450 1.390 . S
C1451 C1452 1.394 . S
C1451 C1457 1.465 1_655 S
C1452 C1447 1.399 . S
C1452 C1451 1.394 . S
C1452 C1453 1.531 . S
C1453 C1452 1.531 . S
C1453 C1454 1.502 1_655 S
C1453 C1455 1.561 . S
C1453 C1456 1.511 1_655 S
C1454 H1438 0.959 . S
C1454 H1439 0.954 . S
C1454 H1440 0.966 1_455 S
C1454 C1453 1.502 1_455 S
C1455 H1441 0.973 . S
C1455 H1442 0.950 1_655 S
C1455 H1443 0.955 1_655 S
C1455 C1453 1.561 . S
C1456 C1453 1.511 1_455 S
C1456 C1457 1.396 . S
C1456 C1461 1.390 . S
C1457 C1451 1.465 1_455 S
C1457 C1456 1.396 . S
C1457 C1458 1.399 . S
C1458 H1444 0.929 . S
C1458 C1457 1.399 . S
C1458 C1459 1.385 . S
C1459 H1445 0.931 . S
C1459 C1458 1.385 . S
C1459 C1460 1.389 . S
C1460 C1459 1.389 . S
C1460 C1461 1.387 . S
C1461 H1446 0.930 . S
C1461 C1456 1.390 . S
C1461 C1460 1.387 . S
H1462 C1474 0.930 . S
H1463 C1476 0.930 . S
H1464 C1477 0.930 . S
H1465 C1481 0.966 . S
H1466 C1481 1.003 . S
H1467 C1481 0.914 1_655 S
H1468 C1482 0.933 1_655 S
H1469 C1482 0.986 . S
H1470 C1482 0.962 . S
H1471 C1485 0.929 . S
H1472 C1486 0.931 . S
H1473 C1488 0.930 . S
C1474 H1462 0.930 . S
C1474 C1475 1.399 . S
C1474 C1479 1.399 . S
C1475 C1474 1.399 . S
C1475 C1476 1.376 . S
C1476 H1463 0.930 . S
C1476 C1475 1.376 . S
C1476 C1477 1.388 . S
C1477 H1464 0.930 . S
C1477 C1476 1.388 . S
C1477 C1478 1.390 . S
C1478 C1477 1.390 . S
C1478 C1479 1.394 . S
C1478 C1484 1.465 1_655 S
C1479 C1474 1.399 . S
C1479 C1478 1.394 . S
C1479 C1480 1.494 1_655 S
C1480 C1479 1.494 1_455 S
C1480 C1481 1.501 . S
C1480 C1482 1.561 . S
C1480 C1483 1.548 . S
C1481 H1465 0.966 . S
C1481 H1466 1.003 . S
C1481 H1467 0.914 1_455 S
C1481 C1480 1.501 . S
C1482 H1468 0.933 1_455 S
C1482 H1469 0.986 . S
C1482 H1470 0.962 . S
C1482 C1480 1.561 . S
C1483 C1480 1.548 . S
C1483 C1484 1.396 . S
C1483 C1488 1.390 . S
C1484 C1478 1.465 1_455 S
C1484 C1483 1.396 . S
C1484 C1485 1.399 . S
C1485 H1471 0.929 . S
C1485 C1484 1.399 . S
C1485 C1486 1.385 . S
C1486 H1472 0.931 . S
C1486 C1485 1.385 . S
C1486 C1487 1.389 . S
C1487 C1486 1.389 . S
C1487 C1488 1.387 . S
C1488 H1473 0.930 . S
C1488 C1483 1.390 . S
C1488 C1487 1.387 . S
H1489 C1501 0.930 . S
H1490 C1503 0.930 . S
H1491 C1504 0.930 . S
H1492 C1508 0.966 . S
H1493 C1508 1.003 . S
H1494 C1508 0.914 1_455 S
H1495 C1509 0.932 1_455 S
H1496 C1509 0.987 . S
H1497 C1509 0.962 . S
H1498 C1512 0.929 . S
H1499 C1513 0.931 . S
H1500 C1515 0.930 . S
C1501 H1489 0.930 . S
C1501 C1502 1.399 . S
C1501 C1506 1.399 . S
C1502 C1501 1.399 . S
C1502 C1503 1.376 . S
C1503 H1490 0.930 . S
C1503 C1502 1.376 . S
C1503 C1504 1.388 . S
C1504 H1491 0.930 . S
C1504 C1503 1.388 . S
C1504 C1505 1.390 . S
C1505 C1504 1.390 . S
C1505 C1506 1.394 . S
C1505 C1511 1.465 1_455 S
C1506 C1501 1.399 . S
C1506 C1505 1.394 . S
C1506 C1507 1.494 1_455 S
C1507 C1506 1.494 1_655 S
C1507 C1508 1.501 . S
C1507 C1509 1.561 . S
C1507 C1510 1.548 . S
C1508 H1492 0.966 . S
C1508 H1493 1.003 . S
C1508 H1494 0.914 1_655 S
C1508 C1507 1.501 . S
C1509 H1495 0.932 1_655 S
C1509 H1496 0.987 . S
C1509 H1497 0.962 . S
C1509 C1507 1.561 . S
C1510 C1507 1.548 . S
C1510 C1511 1.396 . S
C1510 C1515 1.390 . S
C1511 C1505 1.465 1_655 S
C1511 C1510 1.396 . S
C1511 C1512 1.399 . S
C1512 H1498 0.929 . S
C1512 C1511 1.399 . S
C1512 C1513 1.385 . S
C1513 H1499 0.931 . S
C1513 C1512 1.385 . S
C1513 C1514 1.389 . S
C1514 C1513 1.389 . S
C1514 C1515 1.387 . S
C1515 H1500 0.930 . S
C1515 C1510 1.390 . S
C1515 C1514 1.387 . S
H1516 C1528 0.930 . S
H1517 C1530 0.930 . S
H1518 C1531 0.930 . S
H1519 C1535 0.959 . S
H1520 C1535 0.959 . S
H1521 C1535 0.961 . S
H1522 C1536 0.960 . S
H1523 C1536 0.961 . S
H1524 C1536 0.959 . S
H1525 C1539 0.929 . S
H1526 C1540 0.931 . S
H1527 C1542 0.930 . S
C1528 H1516 0.930 . S
C1528 C1529 1.399 . S
C1528 C1533 1.399 . S
C1529 C1528 1.399 . S
C1529 C1530 1.376 . S
C1530 H1517 0.930 . S
C1530 C1529 1.376 . S
C1530 C1531 1.388 . S
C1531 H1518 0.930 . S
C1531 C1530 1.388 . S
C1531 C1532 1.390 . S
C1532 C1531 1.390 . S
C1532 C1533 1.394 . S
C1532 C1538 1.465 . S
C1533 C1528 1.399 . S
C1533 C1532 1.394 . S
C1533 C1534 1.516 . S
C1534 C1533 1.516 . S
C1534 C1535 1.502 . S
C1534 C1536 1.561 . S
C1534 C1537 1.526 . S
C1535 H1519 0.959 . S
C1535 H1520 0.959 . S
C1535 H1521 0.961 . S
C1535 C1534 1.502 . S
C1536 H1522 0.960 . S
C1536 H1523 0.961 . S
C1536 H1524 0.959 . S
C1536 C1534 1.561 . S
C1537 C1534 1.526 . S
C1537 C1538 1.396 . S
C1537 C1542 1.390 . S
C1538 C1532 1.465 . S
C1538 C1537 1.396 . S
C1538 C1539 1.399 . S
C1539 H1525 0.929 . S
C1539 C1538 1.399 . S
C1539 C1540 1.385 . S
C1540 H1526 0.931 . S
C1540 C1539 1.385 . S
C1540 C1541 1.389 . S
C1541 C1540 1.389 . S
C1541 C1542 1.387 . S
C1542 H1527 0.930 . S
C1542 C1537 1.390 . S
C1542 C1541 1.387 . S
H1543 C1555 0.930 . S
H1544 C1557 0.930 . S
H1545 C1558 0.930 . S
H1546 C1562 0.959 . S
H1547 C1562 0.959 . S
H1548 C1562 0.961 . S
H1549 C1563 0.960 . S
H1550 C1563 0.961 . S
H1551 C1563 0.959 . S
H1552 C1566 0.929 . S
H1553 C1567 0.931 . S
H1554 C1569 0.930 . S
C1555 H1543 0.930 . S
C1555 C1556 1.399 . S
C1555 C1560 1.399 . S
C1556 C1555 1.399 . S
C1556 C1557 1.376 . S
C1557 H1544 0.930 . S
C1557 C1556 1.376 . S
C1557 C1558 1.388 . S
C1558 H1545 0.930 . S
C1558 C1557 1.388 . S
C1558 C1559 1.390 . S
C1559 C1558 1.390 . S
C1559 C1560 1.394 . S
C1559 C1565 1.465 . S
C1560 C1555 1.399 . S
C1560 C1559 1.394 . S
C1560 C1561 1.516 . S
C1561 C1560 1.516 . S
C1561 C1562 1.502 . S
C1561 C1563 1.561 . S
C1561 C1564 1.526 . S
C1562 H1546 0.959 . S
C1562 H1547 0.959 . S
C1562 H1548 0.961 . S
C1562 C1561 1.502 . S
C1563 H1549 0.960 . S
C1563 H1550 0.961 . S
C1563 H1551 0.959 . S
C1563 C1561 1.561 . S
C1564 C1561 1.526 . S
C1564 C1565 1.396 . S
C1564 C1569 1.390 . S
C1565 C1559 1.465 . S
C1565 C1564 1.396 . S
C1565 C1566 1.399 . S
C1566 H1552 0.929 . S
C1566 C1565 1.399 . S
C1566 C1567 1.385 . S
C1567 H1553 0.931 . S
C1567 C1566 1.385 . S
C1567 C1568 1.389 . S
C1568 C1567 1.389 . S
C1568 C1569 1.387 . S
C1569 H1554 0.930 . S
C1569 C1564 1.390 . S
C1569 C1568 1.387 . S
H1570 C1582 0.930 . S
H1571 C1584 0.930 . S
H1572 C1585 0.930 . S
H1573 C1589 0.959 . S
H1574 C1589 0.959 . S
H1575 C1589 0.961 . S
H1576 C1590 0.960 . S
H1577 C1590 0.961 . S
H1578 C1590 0.959 . S
H1579 C1593 0.929 . S
H1580 C1594 0.931 . S
H1581 C1596 0.930 . S
C1582 H1570 0.930 . S
C1582 C1583 1.399 . S
C1582 C1587 1.399 . S
C1583 C1582 1.399 . S
C1583 C1584 1.376 . S
C1584 H1571 0.930 . S
C1584 C1583 1.376 . S
C1584 C1585 1.388 . S
C1585 H1572 0.930 . S
C1585 C1584 1.388 . S
C1585 C1586 1.390 . S
C1586 C1585 1.390 . S
C1586 C1587 1.394 . S
C1586 C1592 1.465 . S
C1587 C1582 1.399 . S
C1587 C1586 1.394 . S
C1587 C1588 1.516 . S
C1588 C1587 1.516 . S
C1588 C1589 1.502 . S
C1588 C1590 1.561 . S
C1588 C1591 1.526 . S
C1589 H1573 0.959 . S
C1589 H1574 0.959 . S
C1589 H1575 0.961 . S
C1589 C1588 1.502 . S
C1590 H1576 0.960 . S
C1590 H1577 0.961 . S
C1590 H1578 0.959 . S
C1590 C1588 1.561 . S
C1591 C1588 1.526 . S
C1591 C1592 1.396 . S
C1591 C1596 1.390 . S
C1592 C1586 1.465 . S
C1592 C1591 1.396 . S
C1592 C1593 1.399 . S
C1593 H1579 0.929 . S
C1593 C1592 1.399 . S
C1593 C1594 1.385 . S
C1594 H1580 0.931 . S
C1594 C1593 1.385 . S
C1594 C1595 1.389 . S
C1595 C1594 1.389 . S
C1595 C1596 1.387 . S
C1596 H1581 0.930 . S
C1596 C1591 1.390 . S
C1596 C1595 1.387 . S
H1597 C1609 0.930 . S
H1598 C1611 0.930 . S
H1599 C1612 0.930 . S
H1600 C1616 0.959 . S
H1601 C1616 0.959 . S
H1602 C1616 0.961 . S
H1603 C1617 0.960 . S
H1604 C1617 0.961 . S
H1605 C1617 0.959 . S
H1606 C1620 0.929 . S
H1607 C1621 0.931 . S
H1608 C1623 0.930 . S
C1609 H1597 0.930 . S
C1609 C1610 1.399 . S
C1609 C1614 1.399 . S
C1610 C1609 1.399 . S
C1610 C1611 1.376 . S
C1611 H1598 0.930 . S
C1611 C1610 1.376 . S
C1611 C1612 1.388 . S
C1612 H1599 0.930 . S
C1612 C1611 1.388 . S
C1612 C1613 1.390 . S
C1613 C1612 1.390 . S
C1613 C1614 1.394 . S
C1613 C1619 1.465 . S
C1614 C1609 1.399 . S
C1614 C1613 1.394 . S
C1614 C1615 1.516 . S
C1615 C1614 1.516 . S
C1615 C1616 1.502 . S
C1615 C1617 1.561 . S
C1615 C1618 1.526 . S
C1616 H1600 0.959 . S
C1616 H1601 0.959 . S
C1616 H1602 0.961 . S
C1616 C1615 1.502 . S
C1617 H1603 0.960 . S
C1617 H1604 0.961 . S
C1617 H1605 0.959 . S
C1617 C1615 1.561 . S
C1618 C1615 1.526 . S
C1618 C1619 1.396 . S
C1618 C1623 1.390 . S
C1619 C1613 1.465 . S
C1619 C1618 1.396 . S
C1619 C1620 1.399 . S
C1620 H1606 0.929 . S
C1620 C1619 1.399 . S
C1620 C1621 1.385 . S
C1621 H1607 0.931 . S
C1621 C1620 1.385 . S
C1621 C1622 1.389 . S
C1622 C1621 1.389 . S
C1622 C1623 1.387 . S
C1623 H1608 0.930 . S
C1623 C1618 1.390 . S
C1623 C1622 1.387 . S
H1624 C1636 0.930 . S
H1625 C1638 0.930 . S
H1626 C1639 0.930 . S
H1627 C1643 0.959 . S
H1628 C1643 0.959 . S
H1629 C1643 0.961 . S
H1630 C1644 0.960 . S
H1631 C1644 0.961 . S
H1632 C1644 0.959 . S
H1633 C1647 0.929 . S
H1634 C1648 0.931 . S
H1635 C1650 0.930 . S
C1636 H1624 0.930 . S
C1636 C1637 1.399 . S
C1636 C1641 1.399 . S
C1637 C1636 1.399 . S
C1637 C1638 1.376 . S
C1638 H1625 0.930 . S
C1638 C1637 1.376 . S
C1638 C1639 1.388 . S
C1639 H1626 0.930 . S
C1639 C1638 1.388 . S
C1639 C1640 1.390 . S
C1640 C1639 1.390 . S
C1640 C1641 1.394 . S
C1640 C1646 1.465 . S
C1641 C1636 1.399 . S
C1641 C1640 1.394 . S
C1641 C1642 1.516 . S
C1642 C1641 1.516 . S
C1642 C1643 1.502 . S
C1642 C1644 1.561 . S
C1642 C1645 1.526 . S
C1643 H1627 0.959 . S
C1643 H1628 0.959 . S
C1643 H1629 0.961 . S
C1643 C1642 1.502 . S
C1644 H1630 0.960 . S
C1644 H1631 0.961 . S
C1644 H1632 0.959 . S
C1644 C1642 1.561 . S
C1645 C1642 1.526 . S
C1645 C1646 1.396 . S
C1645 C1650 1.390 . S
C1646 C1640 1.465 . S
C1646 C1645 1.396 . S
C1646 C1647 1.399 . S
C1647 H1633 0.929 . S
C1647 C1646 1.399 . S
C1647 C1648 1.385 . S
C1648 H1634 0.931 . S
C1648 C1647 1.385 . S
C1648 C1649 1.389 . S
C1649 C1648 1.389 . S
C1649 C1650 1.387 . S
C1650 H1635 0.930 . S
C1650 C1645 1.390 . S
C1650 C1649 1.387 . S
H1651 C1663 0.930 . S
H1652 C1665 0.930 . S
H1653 C1666 0.930 . S
H1654 C1670 0.959 . S
H1655 C1670 0.959 . S
H1656 C1670 0.961 . S
H1657 C1671 0.960 . S
H1658 C1671 0.961 . S
H1659 C1671 0.959 . S
H1660 C1674 0.929 . S
H1661 C1675 0.931 . S
H1662 C1677 0.930 . S
C1663 H1651 0.930 . S
C1663 C1664 1.399 . S
C1663 C1668 1.399 . S
C1664 C1663 1.399 . S
C1664 C1665 1.376 . S
C1665 H1652 0.930 . S
C1665 C1664 1.376 . S
C1665 C1666 1.388 . S
C1666 H1653 0.930 . S
C1666 C1665 1.388 . S
C1666 C1667 1.390 . S
C1667 C1666 1.390 . S
C1667 C1668 1.394 . S
C1667 C1673 1.465 . S
C1668 C1663 1.399 . S
C1668 C1667 1.394 . S
C1668 C1669 1.516 . S
C1669 C1668 1.516 . S
C1669 C1670 1.502 . S
C1669 C1671 1.561 . S
C1669 C1672 1.526 . S
C1670 H1654 0.959 . S
C1670 H1655 0.959 . S
C1670 H1656 0.961 . S
C1670 C1669 1.502 . S
C1671 H1657 0.960 . S
C1671 H1658 0.961 . S
C1671 H1659 0.959 . S
C1671 C1669 1.561 . S
C1672 C1669 1.526 . S
C1672 C1673 1.396 . S
C1672 C1677 1.390 . S
C1673 C1667 1.465 . S
C1673 C1672 1.396 . S
C1673 C1674 1.399 . S
C1674 H1660 0.929 . S
C1674 C1673 1.399 . S
C1674 C1675 1.385 . S
C1675 H1661 0.931 . S
C1675 C1674 1.385 . S
C1675 C1676 1.389 . S
C1676 C1675 1.389 . S
C1676 C1677 1.387 . S
C1677 H1662 0.930 . S
C1677 C1672 1.390 . S
C1677 C1676 1.387 . S
H1678 C1690 0.930 . S
H1679 C1692 0.930 . S
H1680 C1693 0.930 . S
H1681 C1697 0.959 . S
H1682 C1697 0.959 . S
H1683 C1697 0.961 . S
H1684 C1698 0.960 . S
H1685 C1698 0.961 . S
H1686 C1698 0.959 . S
H1687 C1701 0.929 . S
H1688 C1702 0.931 . S
H1689 C1704 0.930 . S
C1690 H1678 0.930 . S
C1690 C1691 1.399 . S
C1690 C1695 1.399 . S
C1691 C1690 1.399 . S
C1691 C1692 1.376 . S
C1692 H1679 0.930 . S
C1692 C1691 1.376 . S
C1692 C1693 1.388 . S
C1693 H1680 0.930 . S
C1693 C1692 1.388 . S
C1693 C1694 1.390 . S
C1694 C1693 1.390 . S
C1694 C1695 1.394 . S
C1694 C1700 1.465 . S
C1695 C1690 1.399 . S
C1695 C1694 1.394 . S
C1695 C1696 1.516 . S
C1696 C1695 1.516 . S
C1696 C1697 1.502 . S
C1696 C1698 1.561 . S
C1696 C1699 1.526 . S
C1697 H1681 0.959 . S
C1697 H1682 0.959 . S
C1697 H1683 0.961 . S
C1697 C1696 1.502 . S
C1698 H1684 0.960 . S
C1698 H1685 0.961 . S
C1698 H1686 0.959 . S
C1698 C1696 1.561 . S
C1699 C1696 1.526 . S
C1699 C1700 1.396 . S
C1699 C1704 1.390 . S
C1700 C1694 1.465 . S
C1700 C1699 1.396 . S
C1700 C1701 1.399 . S
C1701 H1687 0.929 . S
C1701 C1700 1.399 . S
C1701 C1702 1.385 . S
C1702 H1688 0.931 . S
C1702 C1701 1.385 . S
C1702 C1703 1.389 . S
C1703 C1702 1.389 . S
C1703 C1704 1.387 . S
C1704 H1689 0.930 . S
C1704 C1699 1.390 . S
C1704 C1703 1.387 . S
H1705 C1717 0.930 . S
H1706 C1719 0.930 . S
H1707 C1720 0.930 . S
H1708 C1724 0.959 . S
H1709 C1724 0.959 . S
H1710 C1724 0.961 . S
H1711 C1725 0.960 . S
H1712 C1725 0.961 . S
H1713 C1725 0.959 . S
H1714 C1728 0.929 . S
H1715 C1729 0.931 . S
H1716 C1731 0.930 . S
C1717 H1705 0.930 . S
C1717 C1718 1.399 . S
C1717 C1722 1.399 . S
C1718 C1717 1.399 . S
C1718 C1719 1.376 . S
C1719 H1706 0.930 . S
C1719 C1718 1.376 . S
C1719 C1720 1.388 . S
C1720 H1707 0.930 . S
C1720 C1719 1.388 . S
C1720 C1721 1.390 . S
C1721 C1720 1.390 . S
C1721 C1722 1.394 . S
C1721 C1727 1.465 . S
C1722 C1717 1.399 . S
C1722 C1721 1.394 . S
C1722 C1723 1.516 . S
C1723 C1722 1.516 . S
C1723 C1724 1.502 . S
C1723 C1725 1.561 . S
C1723 C1726 1.526 . S
C1724 H1708 0.959 . S
C1724 H1709 0.959 . S
C1724 H1710 0.961 . S
C1724 C1723 1.502 . S
C1725 H1711 0.960 . S
C1725 H1712 0.961 . S
C1725 H1713 0.959 . S
C1725 C1723 1.561 . S
C1726 C1723 1.526 . S
C1726 C1727 1.396 . S
C1726 C1731 1.390 . S
C1727 C1721 1.465 . S
C1727 C1726 1.396 . S
C1727 C1728 1.399 . S
C1728 H1714 0.929 . S
C1728 C1727 1.399 . S
C1728 C1729 1.385 . S
C1729 H1715 0.931 . S
C1729 C1728 1.385 . S
C1729 C1730 1.389 . S
C1730 C1729 1.389 . S
C1730 C1731 1.387 . S
C1731 H1716 0.930 . S
C1731 C1726 1.390 . S
C1731 C1730 1.387 . S
H1732 C1744 0.930 . S
H1733 C1746 0.930 . S
H1734 C1747 0.930 . S
H1735 C1751 0.959 . S
H1736 C1751 0.959 . S
H1737 C1751 0.961 . S
H1738 C1752 0.960 . S
H1739 C1752 0.961 . S
H1740 C1752 0.959 . S
H1741 C1755 0.929 . S
H1742 C1756 0.931 . S
H1743 C1758 0.930 . S
C1744 H1732 0.930 . S
C1744 C1745 1.399 . S
C1744 C1749 1.399 . S
C1745 C1744 1.399 . S
C1745 C1746 1.376 . S
C1746 H1733 0.930 . S
C1746 C1745 1.376 . S
C1746 C1747 1.388 . S
C1747 H1734 0.930 . S
C1747 C1746 1.388 . S
C1747 C1748 1.390 . S
C1748 C1747 1.390 . S
C1748 C1749 1.394 . S
C1748 C1754 1.465 . S
C1749 C1744 1.399 . S
C1749 C1748 1.394 . S
C1749 C1750 1.516 . S
C1750 C1749 1.516 . S
C1750 C1751 1.502 . S
C1750 C1752 1.561 . S
C1750 C1753 1.526 . S
C1751 H1735 0.959 . S
C1751 H1736 0.959 . S
C1751 H1737 0.961 . S
C1751 C1750 1.502 . S
C1752 H1738 0.960 . S
C1752 H1739 0.961 . S
C1752 H1740 0.959 . S
C1752 C1750 1.561 . S
C1753 C1750 1.526 . S
C1753 C1754 1.396 . S
C1753 C1758 1.390 . S
C1754 C1748 1.465 . S
C1754 C1753 1.396 . S
C1754 C1755 1.399 . S
C1755 H1741 0.929 . S
C1755 C1754 1.399 . S
C1755 C1756 1.385 . S
C1756 H1742 0.931 . S
C1756 C1755 1.385 . S
C1756 C1757 1.389 . S
C1757 C1756 1.389 . S
C1757 C1758 1.387 . S
C1758 H1743 0.930 . S
C1758 C1753 1.390 . S
C1758 C1757 1.387 . S
H1759 C1771 0.930 . S
H1760 C1773 0.930 . S
H1761 C1774 0.930 . S
H1762 C1778 0.959 . S
H1763 C1778 0.959 . S
H1764 C1778 0.961 . S
H1765 C1779 0.960 . S
H1766 C1779 0.961 . S
H1767 C1779 0.959 . S
H1768 C1782 0.929 . S
H1769 C1783 0.931 . S
H1770 C1785 0.930 . S
C1771 H1759 0.930 . S
C1771 C1772 1.399 . S
C1771 C1776 1.399 . S
C1772 C1771 1.399 . S
C1772 C1773 1.376 . S
C1773 H1760 0.930 . S
C1773 C1772 1.376 . S
C1773 C1774 1.388 . S
C1774 H1761 0.930 . S
C1774 C1773 1.388 . S
C1774 C1775 1.390 . S
C1775 C1774 1.390 . S
C1775 C1776 1.394 . S
C1775 C1781 1.465 . S
C1776 C1771 1.399 . S
C1776 C1775 1.394 . S
C1776 C1777 1.516 . S
C1777 C1776 1.516 . S
C1777 C1778 1.502 . S
C1777 C1779 1.561 . S
C1777 C1780 1.526 . S
C1778 H1762 0.959 . S
C1778 H1763 0.959 . S
C1778 H1764 0.961 . S
C1778 C1777 1.502 . S
C1779 H1765 0.960 . S
C1779 H1766 0.961 . S
C1779 H1767 0.959 . S
C1779 C1777 1.561 . S
C1780 C1777 1.526 . S
C1780 C1781 1.396 . S
C1780 C1785 1.390 . S
C1781 C1775 1.465 . S
C1781 C1780 1.396 . S
C1781 C1782 1.399 . S
C1782 H1768 0.929 . S
C1782 C1781 1.399 . S
C1782 C1783 1.385 . S
C1783 H1769 0.931 . S
C1783 C1782 1.385 . S
C1783 C1784 1.389 . S
C1784 C1783 1.389 . S
C1784 C1785 1.387 . S
C1785 H1770 0.930 . S
C1785 C1780 1.390 . S
C1785 C1784 1.387 . S
H1786 C1798 0.930 . S
H1787 C1800 0.930 . S
H1788 C1801 0.930 . S
H1789 C1805 0.959 . S
H1790 C1805 0.959 . S
H1791 C1805 0.961 . S
H1792 C1806 0.960 . S
H1793 C1806 0.961 . S
H1794 C1806 0.959 . S
H1795 C1809 0.929 . S
H1796 C1810 0.931 . S
H1797 C1812 0.930 . S
C1798 H1786 0.930 . S
C1798 C1799 1.399 . S
C1798 C1803 1.399 . S
C1799 C1798 1.399 . S
C1799 C1800 1.376 . S
C1800 H1787 0.930 . S
C1800 C1799 1.376 . S
C1800 C1801 1.388 . S
C1801 H1788 0.930 . S
C1801 C1800 1.388 . S
C1801 C1802 1.390 . S
C1802 C1801 1.390 . S
C1802 C1803 1.394 . S
C1802 C1808 1.465 . S
C1803 C1798 1.399 . S
C1803 C1802 1.394 . S
C1803 C1804 1.516 . S
C1804 C1803 1.516 . S
C1804 C1805 1.502 . S
C1804 C1806 1.561 . S
C1804 C1807 1.526 . S
C1805 H1789 0.959 . S
C1805 H1790 0.959 . S
C1805 H1791 0.961 . S
C1805 C1804 1.502 . S
C1806 H1792 0.960 . S
C1806 H1793 0.961 . S
C1806 H1794 0.959 . S
C1806 C1804 1.561 . S
C1807 C1804 1.526 . S
C1807 C1808 1.396 . S
C1807 C1812 1.390 . S
C1808 C1802 1.465 . S
C1808 C1807 1.396 . S
C1808 C1809 1.399 . S
C1809 H1795 0.929 . S
C1809 C1808 1.399 . S
C1809 C1810 1.385 . S
C1810 H1796 0.931 . S
C1810 C1809 1.385 . S
C1810 C1811 1.389 . S
C1811 C1810 1.389 . S
C1811 C1812 1.387 . S
C1812 H1797 0.930 . S
C1812 C1807 1.390 . S
C1812 C1811 1.387 . S
H1813 C1825 0.930 . S
H1814 C1827 0.930 . S
H1815 C1828 0.930 . S
H1816 C1832 0.959 . S
H1817 C1832 0.959 . S
H1818 C1832 0.961 . S
H1819 C1833 0.960 . S
H1820 C1833 0.961 . S
H1821 C1833 0.959 . S
H1822 C1836 0.929 . S
H1823 C1837 0.931 . S
H1824 C1839 0.930 . S
C1825 H1813 0.930 . S
C1825 C1826 1.399 . S
C1825 C1830 1.399 . S
C1826 C1825 1.399 . S
C1826 C1827 1.376 . S
C1827 H1814 0.930 . S
C1827 C1826 1.376 . S
C1827 C1828 1.388 . S
C1828 H1815 0.930 . S
C1828 C1827 1.388 . S
C1828 C1829 1.390 . S
C1829 C1828 1.390 . S
C1829 C1830 1.394 . S
C1829 C1835 1.465 . S
C1830 C1825 1.399 . S
C1830 C1829 1.394 . S
C1830 C1831 1.516 . S
C1831 C1830 1.516 . S
C1831 C1832 1.502 . S
C1831 C1833 1.561 . S
C1831 C1834 1.526 . S
C1832 H1816 0.959 . S
C1832 H1817 0.959 . S
C1832 H1818 0.961 . S
C1832 C1831 1.502 . S
C1833 H1819 0.960 . S
C1833 H1820 0.961 . S
C1833 H1821 0.959 . S
C1833 C1831 1.561 . S
C1834 C1831 1.526 . S
C1834 C1835 1.396 . S
C1834 C1839 1.390 . S
C1835 C1829 1.465 . S
C1835 C1834 1.396 . S
C1835 C1836 1.399 . S
C1836 H1822 0.929 . S
C1836 C1835 1.399 . S
C1836 C1837 1.385 . S
C1837 H1823 0.931 . S
C1837 C1836 1.385 . S
C1837 C1838 1.389 . S
C1838 C1837 1.389 . S
C1838 C1839 1.387 . S
C1839 H1824 0.930 . S
C1839 C1834 1.390 . S
C1839 C1838 1.387 . S
H1840 C1852 0.930 . S
H1841 C1854 0.930 . S
H1842 C1855 0.930 . S
H1843 C1859 0.969 . S
H1844 C1859 0.959 . S
H1845 C1859 0.961 . S
H1846 C1860 0.960 . S
H1847 C1860 0.961 . S
H1848 C1860 0.959 . S
H1849 C1863 0.943 . S
H1850 C1864 0.931 . S
H1851 C1866 0.930 . S
C1852 H1840 0.930 . S
C1852 C1853 1.399 . S
C1852 C1857 1.399 . S
C1853 C1852 1.399 . S
C1853 C1854 1.376 . S
C1854 H1841 0.930 . S
C1854 C1853 1.376 . S
C1854 C1855 1.388 . S
C1855 H1842 0.930 . S
C1855 C1854 1.388 . S
C1855 C1856 1.390 . S
C1856 C1855 1.390 . S
C1856 C1857 1.394 . S
C1856 C1862 1.465 1_556 S
C1857 C1852 1.399 . S
C1857 C1856 1.394 . S
C1857 C1858 1.516 1_556 S
C1858 C1857 1.516 1_554 S
C1858 C1859 1.502 . S
C1858 C1860 1.561 . S
C1858 C1861 1.526 . S
C1859 H1843 0.969 . S
C1859 H1844 0.959 . S
C1859 H1845 0.961 . S
C1859 C1858 1.502 . S
C1860 H1846 0.960 . S
C1860 H1847 0.961 . S
C1860 H1848 0.959 . S
C1860 C1858 1.561 . S
C1861 C1858 1.526 . S
C1861 C1862 1.396 . S
C1861 C1866 1.390 . S
C1862 C1856 1.465 1_554 S
C1862 C1861 1.396 . S
C1862 C1863 1.397 1_554 S
C1863 H1849 0.943 . S
C1863 C1862 1.397 1_556 S
C1863 C1864 1.373 1_556 S
C1864 H1850 0.931 . S
C1864 C1863 1.373 1_554 S
C1864 C1865 1.389 . S
C1865 C1864 1.389 . S
C1865 C1866 1.387 . S
C1866 H1851 0.930 . S
C1866 C1861 1.390 . S
C1866 C1865 1.387 . S
H1867 C1879 0.930 . S
H1868 C1881 0.930 . S
H1869 C1882 0.930 . S
H1870 C1886 0.959 . S
H1871 C1886 0.959 . S
H1872 C1886 0.961 . S
H1873 C1887 0.960 . S
H1874 C1887 0.961 . S
H1875 C1887 0.959 . S
H1876 C1890 0.929 . S
H1877 C1891 0.931 . S
H1878 C1893 0.930 . S
C1879 H1867 0.930 . S
C1879 C1880 1.399 . S
C1879 C1884 1.399 . S
C1880 C1879 1.399 . S
C1880 C1881 1.376 . S
C1881 H1868 0.930 . S
C1881 C1880 1.376 . S
C1881 C1882 1.388 . S
C1882 H1869 0.930 . S
C1882 C1881 1.388 . S
C1882 C1883 1.390 . S
C1883 C1882 1.390 . S
C1883 C1884 1.394 . S
C1883 C1889 1.465 . S
C1884 C1879 1.399 . S
C1884 C1883 1.394 . S
C1884 C1885 1.516 . S
C1885 C1884 1.516 . S
C1885 C1886 1.502 . S
C1885 C1887 1.561 . S
C1885 C1888 1.526 . S
C1886 H1870 0.959 . S
C1886 H1871 0.959 . S
C1886 H1872 0.961 . S
C1886 C1885 1.502 . S
C1887 H1873 0.960 . S
C1887 H1874 0.961 . S
C1887 H1875 0.959 . S
C1887 C1885 1.561 . S
C1888 C1885 1.526 . S
C1888 C1889 1.396 . S
C1888 C1893 1.390 . S
C1889 C1883 1.465 . S
C1889 C1888 1.396 . S
C1889 C1890 1.399 . S
C1890 H1876 0.929 . S
C1890 C1889 1.399 . S
C1890 C1891 1.385 . S
C1891 H1877 0.931 . S
C1891 C1890 1.385 . S
C1891 C1892 1.389 . S
C1892 C1891 1.389 . S
C1892 C1893 1.387 . S
C1893 H1878 0.930 . S
C1893 C1888 1.390 . S
C1893 C1892 1.387 . S
H1894 C1906 0.930 . S
H1895 C1908 0.930 . S
H1896 C1909 0.930 . S
H1897 C1913 0.959 . S
H1898 C1913 0.959 . S
H1899 C1913 0.961 . S
H1900 C1914 0.960 . S
H1901 C1914 0.961 . S
H1902 C1914 0.959 . S
H1903 C1917 0.929 . S
H1904 C1918 0.931 . S
H1905 C1920 0.903 1_554 S
C1906 H1894 0.930 . S
C1906 C1907 1.399 . S
C1906 C1911 1.399 . S
C1907 C1906 1.399 . S
C1907 C1908 1.376 . S
C1908 H1895 0.930 . S
C1908 C1907 1.376 . S
C1908 C1909 1.388 1_554 S
C1909 H1896 0.930 . S
C1909 C1908 1.388 1_556 S
C1909 C1910 1.390 . S
C1910 C1909 1.390 . S
C1910 C1911 1.394 1_556 S
C1910 C1916 1.465 . S
C1911 C1906 1.399 . S
C1911 C1910 1.394 1_554 S
C1911 C1912 1.516 . S
C1912 C1911 1.516 . S
C1912 C1913 1.502 . S
C1912 C1914 1.561 . S
C1912 C1915 1.496 1_554 S
C1913 H1897 0.959 . S
C1913 H1898 0.959 . S
C1913 H1899 0.961 . S
C1913 C1912 1.502 . S
C1914 H1900 0.960 . S
C1914 H1901 0.961 . S
C1914 H1902 0.959 . S
C1914 C1912 1.561 . S
C1915 C1912 1.496 1_556 S
C1915 C1916 1.416 . S
C1915 C1920 1.401 . S
C1916 C1910 1.465 . S
C1916 C1915 1.416 . S
C1916 C1917 1.399 . S
C1917 H1903 0.929 . S
C1917 C1916 1.399 . S
C1917 C1918 1.385 . S
C1918 H1904 0.931 . S
C1918 C1917 1.385 . S
C1918 C1919 1.389 . S
C1919 C1918 1.389 . S
C1919 C1920 1.387 . S
C1920 H1905 0.903 1_556 S
C1920 C1915 1.401 . S
C1920 C1919 1.387 . S
H1921 C1933 0.930 . S
H1922 C1935 0.930 . S
H1923 C1936 0.930 . S
H1924 C1940 0.959 . S
H1925 C1940 0.959 . S
H1926 C1940 0.961 . S
H1927 C1941 0.960 . S
H1928 C1941 0.961 . S
H1929 C1941 0.959 . S
H1930 C1944 0.929 . S
H1931 C1945 0.931 . S
H1932 C1947 0.930 . S
C1933 H1921 0.930 . S
C1933 C1934 1.399 . S
C1933 C1938 1.399 . S
C1934 C1933 1.399 . S
C1934 C1935 1.376 . S
C1935 H1922 0.930 . S
C1935 C1934 1.376 . S
C1935 C1936 1.388 . S
C1936 H1923 0.930 . S
C1936 C1935 1.388 . S
C1936 C1937 1.390 . S
C1937 C1936 1.390 . S
C1937 C1938 1.394 . S
C1937 C1943 1.465 . S
C1938 C1933 1.399 . S
C1938 C1937 1.394 . S
C1938 C1939 1.516 . S
C1939 C1938 1.516 . S
C1939 C1940 1.502 . S
C1939 C1941 1.561 . S
C1939 C1942 1.526 . S
C1940 H1924 0.959 . S
C1940 H1925 0.959 . S
C1940 H1926 0.961 . S
C1940 C1939 1.502 . S
C1941 H1927 0.960 . S
C1941 H1928 0.961 . S
C1941 H1929 0.959 . S
C1941 C1939 1.561 . S
C1942 C1939 1.526 . S
C1942 C1943 1.396 . S
C1942 C1947 1.390 . S
C1943 C1937 1.465 . S
C1943 C1942 1.396 . S
C1943 C1944 1.399 . S
C1944 H1930 0.929 . S
C1944 C1943 1.399 . S
C1944 C1945 1.385 . S
C1945 H1931 0.931 . S
C1945 C1944 1.385 . S
C1945 C1946 1.389 . S
C1946 C1945 1.389 . S
C1946 C1947 1.387 . S
C1947 H1932 0.930 . S
C1947 C1942 1.390 . S
C1947 C1946 1.387 . S
H1948 C1960 0.930 . S
H1949 C1962 0.921 1_556 S
H1950 C1963 0.930 . S
H1951 C1967 0.959 . S
H1952 C1967 0.959 . S
H1953 C1967 0.961 . S
H1954 C1968 0.960 . S
H1955 C1968 0.961 . S
H1956 C1968 0.959 . S
H1957 C1971 0.929 . S
H1958 C1972 0.931 . S
H1959 C1974 0.930 1_554 S
C1960 H1948 0.930 . S
C1960 C1961 1.399 . S
C1960 C1965 1.399 . S
C1961 C1960 1.399 . S
C1961 C1962 1.376 . S
C1962 H1949 0.921 1_554 S
C1962 C1961 1.376 . S
C1962 C1963 1.388 1_554 S
C1963 H1950 0.930 . S
C1963 C1962 1.388 1_556 S
C1963 C1964 1.390 . S
C1964 C1963 1.390 . S
C1964 C1965 1.394 1_556 S
C1964 C1970 1.465 . S
C1965 C1960 1.399 . S
C1965 C1964 1.394 1_554 S
C1965 C1966 1.516 . S
C1966 C1965 1.516 . S
C1966 C1967 1.502 . S
C1966 C1968 1.561 . S
C1966 C1969 1.500 1_554 S
C1967 H1951 0.959 . S
C1967 H1952 0.959 . S
C1967 H1953 0.961 . S
C1967 C1966 1.502 . S
C1968 H1954 0.960 . S
C1968 H1955 0.961 . S
C1968 H1956 0.959 . S
C1968 C1966 1.561 . S
C1969 C1966 1.500 1_556 S
C1969 C1970 1.414 . S
C1969 C1974 1.398 . S
C1970 C1964 1.465 . S
C1970 C1969 1.414 . S
C1970 C1971 1.399 . S
C1971 H1957 0.929 . S
C1971 C1970 1.399 . S
C1971 C1972 1.385 . S
C1972 H1958 0.931 . S
C1972 C1971 1.385 . S
C1972 C1973 1.389 . S
C1973 C1972 1.389 . S
C1973 C1974 1.387 . S
C1974 H1959 0.930 1_556 S
C1974 C1969 1.398 . S
C1974 C1973 1.387 . S
H1975 C1987 0.930 . S
H1976 C1989 0.930 . S
H1977 C1990 0.930 . S
H1978 C1994 0.959 . S
H1979 C1994 0.959 . S
H1980 C1994 0.961 . S
H1981 C1995 0.960 . S
H1982 C1995 0.961 . S
H1983 C1995 0.959 . S
H1984 C1998 0.929 . S
H1985 C1999 0.931 . S
H1986 C2001 0.930 . S
C1987 H1975 0.930 . S
C1987 C1988 1.399 . S
C1987 C1992 1.399 . S
C1988 C1987 1.399 . S
C1988 C1989 1.376 . S
C1989 H1976 0.930 . S
C1989 C1988 1.376 . S
C1989 C1990 1.388 . S
C1990 H1977 0.930 . S
C1990 C1989 1.388 . S
C1990 C1991 1.390 . S
C1991 C1990 1.390 . S
C1991 C1992 1.394 . S
C1991 C1997 1.465 . S
C1992 C1987 1.399 . S
C1992 C1991 1.394 . S
C1992 C1993 1.516 . S
C1993 C1992 1.516 . S
C1993 C1994 1.502 . S
C1993 C1995 1.561 . S
C1993 C1996 1.526 . S
C1994 H1978 0.959 . S
C1994 H1979 0.959 . S
C1994 H1980 0.961 . S
C1994 C1993 1.502 . S
C1995 H1981 0.960 . S
C1995 H1982 0.961 . S
C1995 H1983 0.959 . S
C1995 C1993 1.561 . S
C1996 C1993 1.526 . S
C1996 C1997 1.396 . S
C1996 C2001 1.390 . S
C1997 C1991 1.465 . S
C1997 C1996 1.396 . S
C1997 C1998 1.399 . S
C1998 H1984 0.929 . S
C1998 C1997 1.399 . S
C1998 C1999 1.385 . S
C1999 H1985 0.931 . S
C1999 C1998 1.385 . S
C1999 C2000 1.389 . S
C2000 C1999 1.389 . S
C2000 C2001 1.387 . S
C2001 H1986 0.930 . S
C2001 C1996 1.390 . S
C2001 C2000 1.387 . S
H2002 C2014 0.930 . S
H2003 C2016 0.930 . S
H2004 C2017 0.930 . S
H2005 C2021 0.959 . S
H2006 C2021 0.959 . S
H2007 C2021 0.961 . S
H2008 C2022 0.960 . S
H2009 C2022 0.961 . S
H2010 C2022 0.959 . S
H2011 C2025 0.929 . S
H2012 C2026 0.931 . S
H2013 C2028 0.930 . S
C2014 H2002 0.930 . S
C2014 C2015 1.399 . S
C2014 C2019 1.399 . S
C2015 C2014 1.399 . S
C2015 C2016 1.376 . S
C2016 H2003 0.930 . S
C2016 C2015 1.376 . S
C2016 C2017 1.388 . S
C2017 H2004 0.930 . S
C2017 C2016 1.388 . S
C2017 C2018 1.390 . S
C2018 C2017 1.390 . S
C2018 C2019 1.394 . S
C2018 C2024 1.450 1_554 S
C2019 C2014 1.399 . S
C2019 C2018 1.394 . S
C2019 C2020 1.516 1_554 S
C2020 C2019 1.516 1_556 S
C2020 C2021 1.502 . S
C2020 C2022 1.561 . S
C2020 C2023 1.526 . S
C2021 H2005 0.959 . S
C2021 H2006 0.959 . S
C2021 H2007 0.961 . S
C2021 C2020 1.502 . S
C2022 H2008 0.960 . S
C2022 H2009 0.961 . S
C2022 H2010 0.959 . S
C2022 C2020 1.561 . S
C2023 C2020 1.526 . S
C2023 C2024 1.419 . S
C2023 C2028 1.390 . S
C2024 C2018 1.450 1_556 S
C2024 C2023 1.419 . S
C2024 C2025 1.395 1_556 S
C2025 H2011 0.929 . S
C2025 C2024 1.395 1_554 S
C2025 C2026 1.385 1_554 S
C2026 H2012 0.931 . S
C2026 C2025 1.385 1_556 S
C2026 C2027 1.389 . S
C2027 C2026 1.389 . S
C2027 C2028 1.387 . S
C2028 H2013 0.930 . S
C2028 C2023 1.390 . S
C2028 C2027 1.387 . S
H2029 C2041 0.930 . S
H2030 C2043 0.930 . S
H2031 C2044 0.930 . S
H2032 C2048 0.959 . S
H2033 C2048 0.959 . S
H2034 C2048 0.961 . S
H2035 C2049 0.960 . S
H2036 C2049 0.961 . S
H2037 C2049 0.959 . S
H2038 C2052 0.929 . S
H2039 C2053 0.931 . S
H2040 C2055 0.930 . S
C2041 H2029 0.930 . S
C2041 C2042 1.399 . S
C2041 C2046 1.399 . S
C2042 C2041 1.399 . S
C2042 C2043 1.376 . S
C2043 H2030 0.930 . S
C2043 C2042 1.376 . S
C2043 C2044 1.388 . S
C2044 H2031 0.930 . S
C2044 C2043 1.388 . S
C2044 C2045 1.390 . S
C2045 C2044 1.390 . S
C2045 C2046 1.394 . S
C2045 C2051 1.465 . S
C2046 C2041 1.399 . S
C2046 C2045 1.394 . S
C2046 C2047 1.516 . S
C2047 C2046 1.516 . S
C2047 C2048 1.502 . S
C2047 C2049 1.561 . S
C2047 C2050 1.526 . S
C2048 H2032 0.959 . S
C2048 H2033 0.959 . S
C2048 H2034 0.961 . S
C2048 C2047 1.502 . S
C2049 H2035 0.960 . S
C2049 H2036 0.961 . S
C2049 H2037 0.959 . S
C2049 C2047 1.561 . S
C2050 C2047 1.526 . S
C2050 C2051 1.396 . S
C2050 C2055 1.390 . S
C2051 C2045 1.465 . S
C2051 C2050 1.396 . S
C2051 C2052 1.399 . S
C2052 H2038 0.929 . S
C2052 C2051 1.399 . S
C2052 C2053 1.385 . S
C2053 H2039 0.931 . S
C2053 C2052 1.385 . S
C2053 C2054 1.389 . S
C2054 C2053 1.389 . S
C2054 C2055 1.387 . S
C2055 H2040 0.930 . S
C2055 C2050 1.390 . S
C2055 C2054 1.387 . S
H2056 C2068 0.930 1_554 S
H2057 C2070 0.930 . S
H2058 C2071 0.930 . S
H2059 C2075 0.959 . S
H2060 C2075 0.959 . S
H2061 C2075 0.961 . S
H2062 C2076 0.960 . S
H2063 C2076 0.961 . S
H2064 C2076 0.959 . S
H2065 C2079 0.929 . S
H2066 C2080 0.931 1_556 S
H2067 C2082 0.930 . S
C2068 H2056 0.930 1_556 S
C2068 C2069 1.399 . S
C2068 C2073 1.402 . S
C2069 C2068 1.399 . S
C2069 C2070 1.376 . S
C2070 H2057 0.930 . S
C2070 C2069 1.376 . S
C2070 C2071 1.388 . S
C2071 H2058 0.930 . S
C2071 C2070 1.388 . S
C2071 C2072 1.390 . S
C2072 C2071 1.390 . S
C2072 C2073 1.400 . S
C2072 C2078 1.465 . S
C2073 C2068 1.402 . S
C2073 C2072 1.400 . S
C2073 C2074 1.507 1_556 S
C2074 C2073 1.507 1_554 S
C2074 C2075 1.502 . S
C2074 C2076 1.561 . S
C2074 C2077 1.526 . S
C2075 H2059 0.959 . S
C2075 H2060 0.959 . S
C2075 H2061 0.961 . S
C2075 C2074 1.502 . S
C2076 H2062 0.960 . S
C2076 H2063 0.961 . S
C2076 H2064 0.959 . S
C2076 C2074 1.561 . S
C2077 C2074 1.526 . S
C2077 C2078 1.396 1_554 S
C2077 C2082 1.390 . S
C2078 C2072 1.465 . S
C2078 C2077 1.396 1_556 S
C2078 C2079 1.399 . S
C2079 H2065 0.929 . S
C2079 C2078 1.399 . S
C2079 C2080 1.385 1_556 S
C2080 H2066 0.931 1_554 S
C2080 C2079 1.385 1_554 S
C2080 C2081 1.389 . S
C2081 C2080 1.389 . S
C2081 C2082 1.387 . S
C2082 H2067 0.930 . S
C2082 C2077 1.390 . S
C2082 C2081 1.387 . S
H2083 C2095 0.930 . S
H2084 C2097 0.930 . S
H2085 C2098 0.930 . S
H2086 C2102 0.959 . S
H2087 C2102 0.959 . S
H2088 C2102 0.961 . S
H2089 C2103 0.960 . S
H2090 C2103 0.961 . S
H2091 C2103 0.959 . S
H2092 C2106 0.929 . S
H2093 C2107 0.931 . S
H2094 C2109 0.930 . S
C2095 H2083 0.930 . S
C2095 C2096 1.399 . S
C2095 C2100 1.399 . S
C2096 C2095 1.399 . S
C2096 C2097 1.376 . S
C2097 H2084 0.930 . S
C2097 C2096 1.376 . S
C2097 C2098 1.388 . S
C2098 H2085 0.930 . S
C2098 C2097 1.388 . S
C2098 C2099 1.390 . S
C2099 C2098 1.390 . S
C2099 C2100 1.394 . S
C2099 C2105 1.465 . S
C2100 C2095 1.399 . S
C2100 C2099 1.394 . S
C2100 C2101 1.516 . S
C2101 C2100 1.516 . S
C2101 C2102 1.502 . S
C2101 C2103 1.561 . S
C2101 C2104 1.526 . S
C2102 H2086 0.959 . S
C2102 H2087 0.959 . S
C2102 H2088 0.961 . S
C2102 C2101 1.502 . S
C2103 H2089 0.960 . S
C2103 H2090 0.961 . S
C2103 H2091 0.959 . S
C2103 C2101 1.561 . S
C2104 C2101 1.526 . S
C2104 C2105 1.396 . S
C2104 C2109 1.390 . S
C2105 C2099 1.465 . S
C2105 C2104 1.396 . S
C2105 C2106 1.399 . S
C2106 H2092 0.929 . S
C2106 C2105 1.399 . S
C2106 C2107 1.385 . S
C2107 H2093 0.931 . S
C2107 C2106 1.385 . S
C2107 C2108 1.389 . S
C2108 C2107 1.389 . S
C2108 C2109 1.387 . S
C2109 H2094 0.930 . S
C2109 C2104 1.390 . S
C2109 C2108 1.387 . S
H2110 C2122 0.930 . S
H2111 C2124 0.914 1_556 S
H2112 C2125 0.930 . S
H2113 C2129 0.959 . S
H2114 C2129 0.959 . S
H2115 C2129 0.961 . S
H2116 C2130 0.960 . S
H2117 C2130 0.961 . S
H2118 C2130 0.959 . S
H2119 C2133 0.929 . S
H2120 C2134 0.931 . S
H2121 C2136 0.930 1_554 S
C2122 H2110 0.930 . S
C2122 C2123 1.399 . S
C2122 C2127 1.399 . S
C2123 C2122 1.399 . S
C2123 C2124 1.376 . S
C2124 H2111 0.914 1_554 S
C2124 C2123 1.376 . S
C2124 C2125 1.388 1_554 S
C2125 H2112 0.930 . S
C2125 C2124 1.388 1_556 S
C2125 C2126 1.390 . S
C2126 C2125 1.390 . S
C2126 C2127 1.394 1_556 S
C2126 C2132 1.465 . S
C2127 C2122 1.399 . S
C2127 C2126 1.394 1_554 S
C2127 C2128 1.516 . S
C2128 C2127 1.516 . S
C2128 C2129 1.502 . S
C2128 C2130 1.561 . S
C2128 C2131 1.486 1_554 S
C2129 H2113 0.959 . S
C2129 H2114 0.959 . S
C2129 H2115 0.961 . S
C2129 C2128 1.502 . S
C2130 H2116 0.960 . S
C2130 H2117 0.961 . S
C2130 H2118 0.959 . S
C2130 C2128 1.561 . S
C2131 C2128 1.486 1_556 S
C2131 C2132 1.425 . S
C2131 C2136 1.404 . S
C2132 C2126 1.465 . S
C2132 C2131 1.425 . S
C2132 C2133 1.399 . S
C2133 H2119 0.929 . S
C2133 C2132 1.399 . S
C2133 C2134 1.385 . S
C2134 H2120 0.931 . S
C2134 C2133 1.385 . S
C2134 C2135 1.389 . S
C2135 C2134 1.389 . S
C2135 C2136 1.387 . S
C2136 H2121 0.930 1_556 S
C2136 C2131 1.404 . S
C2136 C2135 1.387 . S
H2137 C2149 0.930 . S
H2138 C2151 0.930 . S
H2139 C2152 0.930 . S
H2140 C2156 0.959 . S
H2141 C2156 0.959 . S
H2142 C2156 0.961 . S
H2143 C2157 0.960 . S
H2144 C2157 0.961 . S
H2145 C2157 0.959 . S
H2146 C2160 0.929 . S
H2147 C2161 0.931 . S
H2148 C2163 0.930 . S
C2149 H2137 0.930 . S
C2149 C2150 1.399 . S
C2149 C2154 1.399 . S
C2150 C2149 1.399 . S
C2150 C2151 1.376 . S
C2151 H2138 0.930 . S
C2151 C2150 1.376 . S
C2151 C2152 1.388 . S
C2152 H2139 0.930 . S
C2152 C2151 1.388 . S
C2152 C2153 1.390 . S
C2153 C2152 1.390 . S
C2153 C2154 1.394 . S
C2153 C2159 1.465 . S
C2154 C2149 1.399 . S
C2154 C2153 1.394 . S
C2154 C2155 1.516 . S
C2155 C2154 1.516 . S
C2155 C2156 1.502 . S
C2155 C2157 1.561 . S
C2155 C2158 1.526 . S
C2156 H2140 0.959 . S
C2156 H2141 0.959 . S
C2156 H2142 0.961 . S
C2156 C2155 1.502 . S
C2157 H2143 0.960 . S
C2157 H2144 0.961 . S
C2157 H2145 0.959 . S
C2157 C2155 1.561 . S
C2158 C2155 1.526 . S
C2158 C2159 1.396 . S
C2158 C2163 1.390 . S
C2159 C2153 1.465 . S
C2159 C2158 1.396 . S
C2159 C2160 1.399 . S
C2160 H2146 0.929 . S
C2160 C2159 1.399 . S
C2160 C2161 1.385 . S
C2161 H2147 0.931 . S
C2161 C2160 1.385 . S
C2161 C2162 1.389 . S
C2162 C2161 1.389 . S
C2162 C2163 1.387 . S
C2163 H2148 0.930 . S
C2163 C2158 1.390 . S
C2163 C2162 1.387 . S
H2164 C2176 0.928 . S
H2165 C2178 0.930 . S
H2166 C2179 0.972 . S
H2167 C2183 0.959 . S
H2168 C2183 0.959 . S
H2169 C2183 0.961 . S
H2170 C2184 0.960 . S
H2171 C2184 0.961 . S
H2172 C2184 0.959 . S
H2173 C2187 0.929 . S
H2174 C2188 0.931 . S
H2175 C2190 0.930 . S
C2176 H2164 0.928 . S
C2176 C2177 1.399 . S
C2176 C2181 1.409 . S
C2177 C2176 1.399 . S
C2177 C2178 1.376 . S
C2178 H2165 0.930 . S
C2178 C2177 1.376 . S
C2178 C2179 1.388 . S
C2179 H2166 0.972 . S
C2179 C2178 1.388 . S
C2179 C2180 1.390 . S
C2180 C2179 1.390 . S
C2180 C2181 1.410 . S
C2180 C2186 1.465 1_545 S
C2181 C2176 1.409 . S
C2181 C2180 1.410 . S
C2181 C2182 1.490 1_556 S
C2182 C2181 1.490 1_554 S
C2182 C2183 1.502 . S
C2182 C2184 1.561 . S
C2182 C2185 1.526 1_545 S
C2183 H2167 0.959 . S
C2183 H2168 0.959 . S
C2183 H2169 0.961 . S
C2183 C2182 1.502 . S
C2184 H2170 0.960 . S
C2184 H2171 0.961 . S
C2184 H2172 0.959 . S
C2184 C2182 1.561 . S
C2185 C2182 1.526 1_565 S
C2185 C2186 1.396 1_554 S
C2185 C2190 1.390 . S
C2186 C2180 1.465 1_565 S
C2186 C2185 1.396 1_556 S
C2186 C2187 1.399 . S
C2187 H2173 0.929 . S
C2187 C2186 1.399 . S
C2187 C2188 1.385 1_556 S
C2188 H2174 0.931 . S
C2188 C2187 1.385 1_554 S
C2188 C2189 1.389 . S
C2189 C2188 1.389 . S
C2189 C2190 1.387 . S
C2190 H2175 0.930 . S
C2190 C2185 1.390 . S
C2190 C2189 1.387 . S
H2191 C2203 0.930 . S
H2192 C2205 0.930 . S
H2193 C2206 0.930 . S
H2194 C2210 0.959 . S
H2195 C2210 0.959 . S
H2196 C2210 0.961 . S
H2197 C2211 0.960 1_565 S
H2198 C2211 0.961 . S
H2199 C2211 0.959 1_565 S
H2200 C2214 0.929 . S
H2201 C2215 0.931 . S
H2202 C2217 0.930 . S
C2203 H2191 0.930 . S
C2203 C2204 1.399 . S
C2203 C2208 1.399 . S
C2204 C2203 1.399 . S
C2204 C2205 1.376 . S
C2205 H2192 0.930 . S
C2205 C2204 1.376 . S
C2205 C2206 1.388 . S
C2206 H2193 0.930 . S
C2206 C2205 1.388 . S
C2206 C2207 1.390 . S
C2207 C2206 1.390 . S
C2207 C2208 1.394 . S
C2207 C2213 1.465 1_565 S
C2208 C2203 1.399 . S
C2208 C2207 1.394 . S
C2208 C2209 1.516 1_565 S
C2209 C2208 1.516 1_545 S
C2209 C2210 1.502 . S
C2209 C2211 1.561 . S
C2209 C2212 1.526 . S
C2210 H2194 0.959 . S
C2210 H2195 0.959 . S
C2210 H2196 0.961 . S
C2210 C2209 1.502 . S
C2211 H2197 0.960 1_545 S
C2211 H2198 0.961 . S
C2211 H2199 0.959 1_545 S
C2211 C2209 1.561 . S
C2212 C2209 1.526 . S
C2212 C2213 1.396 . S
C2212 C2217 1.390 . S
C2213 C2207 1.465 1_545 S
C2213 C2212 1.396 . S
C2213 C2214 1.399 . S
C2214 H2200 0.929 . S
C2214 C2213 1.399 . S
C2214 C2215 1.385 . S
C2215 H2201 0.931 . S
C2215 C2214 1.385 . S
C2215 C2216 1.389 . S
C2216 C2215 1.389 . S
C2216 C2217 1.387 . S
C2217 H2202 0.930 . S
C2217 C2212 1.390 . S
C2217 C2216 1.387 . S
H2218 C2230 0.930 . S
H2219 C2232 0.930 . S
H2220 C2233 0.930 . S
H2221 C2237 0.959 . S
H2222 C2237 0.959 . S
H2223 C2237 0.961 . S
H2224 C2238 0.960 . S
H2225 C2238 0.961 . S
H2226 C2238 0.959 . S
H2227 C2241 0.929 . S
H2228 C2242 0.931 . S
H2229 C2244 0.930 . S
C2230 H2218 0.930 . S
C2230 C2231 1.399 . S
C2230 C2235 1.399 . S
C2231 C2230 1.399 . S
C2231 C2232 1.376 . S
C2232 H2219 0.930 . S
C2232 C2231 1.376 . S
C2232 C2233 1.388 1_554 S
C2233 H2220 0.930 . S
C2233 C2232 1.388 1_556 S
C2233 C2234 1.393 . S
C2234 C2233 1.393 . S
C2234 C2235 1.382 1_556 S
C2234 C2240 1.472 1_565 S
C2235 C2230 1.399 . S
C2235 C2234 1.382 1_554 S
C2235 C2236 1.516 1_565 S
C2236 C2235 1.516 1_545 S
C2236 C2237 1.502 . S
C2236 C2238 1.561 . S
C2236 C2239 1.526 1_554 S
C2237 H2221 0.959 . S
C2237 H2222 0.959 . S
C2237 H2223 0.961 . S
C2237 C2236 1.502 . S
C2238 H2224 0.960 . S
C2238 H2225 0.961 . S
C2238 H2226 0.959 . S
C2238 C2236 1.561 . S
C2239 C2236 1.526 1_556 S
C2239 C2240 1.396 . S
C2239 C2244 1.390 . S
C2240 C2234 1.472 1_545 S
C2240 C2239 1.396 . S
C2240 C2241 1.399 . S
C2241 H2227 0.929 . S
C2241 C2240 1.399 . S
C2241 C2242 1.385 . S
C2242 H2228 0.931 . S
C2242 C2241 1.385 . S
C2242 C2243 1.389 . S
C2243 C2242 1.389 . S
C2243 C2244 1.387 . S
C2244 H2229 0.930 . S
C2244 C2239 1.390 . S
C2244 C2243 1.387 . S
H2245 C2257 0.930 . S
H2246 C2259 0.930 . S
H2247 C2260 0.930 . S
H2248 C2264 0.959 . S
H2249 C2264 0.959 . S
H2250 C2264 0.961 . S
H2251 C2265 0.960 . S
H2252 C2265 0.961 . S
H2253 C2265 0.959 . S
H2254 C2268 0.928 . S
H2255 C2269 0.931 . S
H2256 C2271 0.930 . S
C2257 H2245 0.930 . S
C2257 C2258 1.399 . S
C2257 C2262 1.399 . S
C2258 C2257 1.399 . S
C2258 C2259 1.376 . S
C2259 H2246 0.930 . S
C2259 C2258 1.376 . S
C2259 C2260 1.388 . S
C2260 H2247 0.930 . S
C2260 C2259 1.388 . S
C2260 C2261 1.390 . S
C2261 C2260 1.390 . S
C2261 C2262 1.394 . S
C2261 C2267 1.465 1_545 S
C2262 C2257 1.399 . S
C2262 C2261 1.394 . S
C2262 C2263 1.516 1_545 S
C2263 C2262 1.516 1_565 S
C2263 C2264 1.502 . S
C2263 C2265 1.561 . S
C2263 C2266 1.526 . S
C2264 H2248 0.959 . S
C2264 H2249 0.959 . S
C2264 H2250 0.961 . S
C2264 C2263 1.502 . S
C2265 H2251 0.960 . S
C2265 H2252 0.961 . S
C2265 H2253 0.959 . S
C2265 C2263 1.561 . S
C2266 C2263 1.526 . S
C2266 C2267 1.396 . S
C2266 C2271 1.390 . S
C2267 C2261 1.465 1_565 S
C2267 C2266 1.396 . S
C2267 C2268 1.399 . S
C2268 H2254 0.928 . S
C2268 C2267 1.399 . S
C2268 C2269 1.385 . S
C2269 H2255 0.931 . S
C2269 C2268 1.385 . S
C2269 C2270 1.389 . S
C2270 C2269 1.389 . S
C2270 C2271 1.387 . S
C2271 H2256 0.930 . S
C2271 C2266 1.390 . S
C2271 C2270 1.387 . S
C1421 C57 1.527 . S
C1433 C557 1.527 . S
C1448 C145 1.511 . S
C1460 C645 1.510 . S
C1475 C401 1.519 . S
C1487 C205 1.524 . S
C1502 C497 1.512 . S
C1514 C293 1.516 . S
C1529 C1261 1.521 . S
C1541 C761 1.525 . S
C1556 C1340 1.520 . S
C1568 C841 1.525 . S
C1583 C909 1.516 . S
C1595 C1105 1.512 . S
C1610 C988 1.525 . S
C1622 C1193 1.527 . S
C1637 C20 1.414 . S
C1649 C489 1.418 . S
C1664 C108 1.414 . S
C1676 C409 1.417 . S
C1691 C225 1.437 . S
C1703 C636 1.430 . S
C1718 C548 1.440 . S
C1730 C313 1.435 . S
C1745 C1201 1.440 . S
C1757 C724 1.436 . S
C1772 C1113 1.439 . S
C1784 C821 1.435 . S
C1799 C929 1.423 . S
C1811 C1349 1.428 . S
C1826 C1252 1.410 . S
C1838 C1025 1.418 . S
C1853 C1076 1.153 . S
C1865 C29 1.196 . S
C1880 C117 1.194 . S
C1892 C1164 1.163 . S
C1907 C1289 1.190 . S
C1919 C233 1.167 . S
C1934 C1369 1.201 . S
C1946 C321 1.152 . S
C1961 C733 1.162 . S
C1973 C372 1.186 . S
C1988 C812 1.195 . S
C2000 C469 1.162 . S
C2015 C585 1.154 . S
C2027 C937 1.195 . S
C2042 C673 1.193 . S
C2054 C1017 1.164 . S
C2069 C196 1.418 . S
C2081 C49 1.423 . S
C2096 C137 1.437 . S
C2108 C284 1.440 . S
C2123 C577 1.421 . S
C2135 C381 1.430 . S
C2150 C460 1.440 . S
C2162 C665 1.432 . S
C2177 C900 1.412 . S
C2189 C753 1.415 . S
C2204 C997 1.420 . S
C2216 C849 1.417 . S
C2231 C1281 1.412 . S
C2243 C1085 1.417 . S
C2258 C1377 1.414 . S
C2270 C1173 1.421 . S
