# Generated by pormake.
# Topology zga, (5)-cn, num edge types: 1
# Building blocks:
#     Node 0, Type 0, BuildingBlock: XOMCOT_clean_sbu_1, # of connection points: 5
#     Node 1, Type 0, BuildingBlock: XOMCOT_clean_sbu_1, # of connection points: 5
#     Node 2, Type 0, BuildingBlock: XOMCOT_clean_sbu_1, # of connection points: 5
#     Node 3, Type 0, BuildingBlock: XOMCOT_clean_sbu_1, # of connection points: 5
#     Node 4, Type 0, BuildingBlock: XOMCOT_clean_sbu_1, # of connection points: 5
#     Node 5, Type 0, BuildingBlock: XOMCOT_clean_sbu_1, # of connection points: 5
#     Node 6, Type 0, BuildingBlock: XOMCOT_clean_sbu_1, # of connection points: 5
#     Node 7, Type 0, BuildingBlock: XOMCOT_clean_sbu_1, # of connection points: 5
#     Node 8, Type 0, BuildingBlock: XOMCOT_clean_sbu_1, # of connection points: 5
#     Node 9, Type 0, BuildingBlock: XOMCOT_clean_sbu_1, # of connection points: 5
#     Node 10, Type 0, BuildingBlock: XOMCOT_clean_sbu_1, # of connection points: 5
#     Node 11, Type 0, BuildingBlock: XOMCOT_clean_sbu_1, # of connection points: 5
#     Node 12, Type 0, BuildingBlock: XOMCOT_clean_sbu_1, # of connection points: 5
#     Node 13, Type 0, BuildingBlock: XOMCOT_clean_sbu_1, # of connection points: 5
#     Node 14, Type 0, BuildingBlock: XOMCOT_clean_sbu_1, # of connection points: 5
#     Node 15, Type 0, BuildingBlock: XOMCOT_clean_sbu_1, # of connection points: 5
#     Edge 16, Type (0, 0), BuildingBlock: XUDNAN_clean_linker_2, # of connection points: 2
#     Edge 17, Type (0, 0), BuildingBlock: XUDNAN_clean_linker_2, # of connection points: 2
#     Edge 18, Type (0, 0), BuildingBlock: XUDNAN_clean_linker_2, # of connection points: 2
#     Edge 19, Type (0, 0), BuildingBlock: XUDNAN_clean_linker_2, # of connection points: 2
#     Edge 20, Type (0, 0), BuildingBlock: XUDNAN_clean_linker_2, # of connection points: 2
#     Edge 21, Type (0, 0), BuildingBlock: XUDNAN_clean_linker_2, # of connection points: 2
#     Edge 22, Type (0, 0), BuildingBlock: XUDNAN_clean_linker_2, # of connection points: 2
#     Edge 23, Type (0, 0), BuildingBlock: XUDNAN_clean_linker_2, # of connection points: 2
#     Edge 24, Type (0, 0), BuildingBlock: XUDNAN_clean_linker_2, # of connection points: 2
#     Edge 25, Type (0, 0), BuildingBlock: XUDNAN_clean_linker_2, # of connection points: 2
#     Edge 26, Type (0, 0), BuildingBlock: XUDNAN_clean_linker_2, # of connection points: 2
#     Edge 27, Type (0, 0), BuildingBlock: XUDNAN_clean_linker_2, # of connection points: 2
#     Edge 28, Type (0, 0), BuildingBlock: XUDNAN_clean_linker_2, # of connection points: 2
#     Edge 29, Type (0, 0), BuildingBlock: XUDNAN_clean_linker_2, # of connection points: 2
#     Edge 30, Type (0, 0), BuildingBlock: XUDNAN_clean_linker_2, # of connection points: 2
#     Edge 31, Type (0, 0), BuildingBlock: XUDNAN_clean_linker_2, # of connection points: 2
#     Edge 32, Type (0, 0), BuildingBlock: XUDNAN_clean_linker_2, # of connection points: 2
#     Edge 33, Type (0, 0), BuildingBlock: XUDNAN_clean_linker_2, # of connection points: 2
#     Edge 34, Type (0, 0), BuildingBlock: XUDNAN_clean_linker_2, # of connection points: 2
#     Edge 35, Type (0, 0), BuildingBlock: XUDNAN_clean_linker_2, # of connection points: 2
#     Edge 36, Type (0, 0), BuildingBlock: XUDNAN_clean_linker_2, # of connection points: 2
#     Edge 37, Type (0, 0), BuildingBlock: XUDNAN_clean_linker_2, # of connection points: 2
#     Edge 38, Type (0, 0), BuildingBlock: XUDNAN_clean_linker_2, # of connection points: 2
#     Edge 39, Type (0, 0), BuildingBlock: XUDNAN_clean_linker_2, # of connection points: 2
#     Edge 40, Type (0, 0), BuildingBlock: XUDNAN_clean_linker_2, # of connection points: 2
#     Edge 41, Type (0, 0), BuildingBlock: XUDNAN_clean_linker_2, # of connection points: 2
#     Edge 42, Type (0, 0), BuildingBlock: XUDNAN_clean_linker_2, # of connection points: 2
#     Edge 43, Type (0, 0), BuildingBlock: XUDNAN_clean_linker_2, # of connection points: 2
#     Edge 44, Type (0, 0), BuildingBlock: XUDNAN_clean_linker_2, # of connection points: 2
#     Edge 45, Type (0, 0), BuildingBlock: XUDNAN_clean_linker_2, # of connection points: 2
#     Edge 46, Type (0, 0), BuildingBlock: XUDNAN_clean_linker_2, # of connection points: 2
#     Edge 47, Type (0, 0), BuildingBlock: XUDNAN_clean_linker_2, # of connection points: 2
#     Edge 48, Type (0, 0), BuildingBlock: XUDNAN_clean_linker_2, # of connection points: 2
#     Edge 49, Type (0, 0), BuildingBlock: XUDNAN_clean_linker_2, # of connection points: 2
#     Edge 50, Type (0, 0), BuildingBlock: XUDNAN_clean_linker_2, # of connection points: 2
#     Edge 51, Type (0, 0), BuildingBlock: XUDNAN_clean_linker_2, # of connection points: 2
#     Edge 52, Type (0, 0), BuildingBlock: XUDNAN_clean_linker_2, # of connection points: 2
#     Edge 53, Type (0, 0), BuildingBlock: XUDNAN_clean_linker_2, # of connection points: 2
#     Edge 54, Type (0, 0), BuildingBlock: XUDNAN_clean_linker_2, # of connection points: 2
#     Edge 55, Type (0, 0), BuildingBlock: XUDNAN_clean_linker_2, # of connection points: 2
# Relax obj value: 0.046
# Max RMSD: 0.092
# Mean RMSD: 0.092
data_MOF--net-zga--node1-XOMCOT_clean_sbu_1--edge1-XUDNAN_clean_linker_2
_symmetry_space_group_name_H-M    P1
_symmetry_Int_Tables_number       1
_symmetry_cell_setting            triclinic
loop_
_symmetry_equiv_pos_as_xyz
'x, y, z'
_cell_length_a     50.719744
_cell_length_b     102.60965
_cell_length_c     17.543926
_cell_angle_alpha  89.926639
_cell_angle_beta   89.960256
_cell_angle_gamma 93.718972
loop_
_atom_site_label
_atom_site_type_symbol
_atom_site_fract_x
_atom_site_fract_y
_atom_site_fract_z
_atom_type_partial_charge
C0 C 0.18488 0.54752 0.07732 0.0
C1 C 0.18781 0.54966 1.00038 0.0
N2 N 0.16571 0.54486 0.96515 0.0
N3 N 0.16097 0.54146 0.09094 0.0
C4 C 0.14977 0.53984 0.02116 0.0
H5 H 0.19873 0.55087 0.12099 0.0
Co6 Co 0.14724 0.53929 0.18928 0.0
C7 C 0.09025 0.53193 0.1683 0.0
O8 O 0.08621 0.54075 0.22055 0.0
N9 N 0.13405 0.53689 0.29087 0.0
C10 C 0.1182 0.52621 0.39367 0.0
C11 C 0.12108 0.52578 0.31589 0.0
C12 C 0.13955 0.54372 0.35575 0.0
N13 N 0.13003 0.53749 0.41927 0.0
O14 O 0.16511 0.52325 0.20109 0.0
H15 H 0.11513 0.51753 0.28018 0.0
H16 H 0.15197 0.55262 0.35743 0.0
O17 O 0.11406 0.53011 0.14771 0.0
C18 C 0.18597 0.52706 0.23818 0.0
O19 O 0.18972 0.53954 0.25427 0.0
N20 N 0.13421 0.55604 0.18049 0.0
C21 C 0.13224 0.5829 0.15354 0.0
C22 C 0.11553 0.5738 0.11368 0.0
C23 C 0.11699 0.56036 0.12744 0.0
C24 C 0.15078 0.56482 0.21803 0.0
C25 C 0.14972 0.57819 0.20704 0.0
H26 H 0.10569 0.55353 0.09158 0.0
H27 H 0.16674 0.56144 0.25169 0.0
H28 H 0.12969 0.53595 0.01183 0.0
H29 H 0.20453 0.55477 0.97263 0.0
H30 H 0.10888 0.51851 0.42842 0.0
H31 H 0.10222 0.57701 0.07028 0.0
H32 H 0.16396 0.58473 0.23624 0.0
C33 C 0.11681 0.70719 0.03407 0.0
C34 C 0.11695 0.70642 0.95544 0.0
N35 N 0.13372 0.71606 0.92835 0.0
N36 N 0.13343 0.71727 0.05643 0.0
C37 C 0.14293 0.72259 0.99065 0.0
H38 H 0.10641 0.7004 0.07253 0.0
Co39 Co 0.14494 0.72129 0.15615 0.0
C40 C 0.20192 0.73148 0.12909 0.0
O41 O 0.21055 0.72442 0.18523 0.0
N42 N 0.15641 0.72576 0.25635 0.0
C43 C 0.17228 0.73892 0.34883 0.0
C44 C 0.16721 0.73784 0.2724 0.0
C45 C 0.15422 0.71982 0.32565 0.0
N46 N 0.16408 0.72761 0.3824 0.0
O47 O 0.12524 0.73667 0.1561 0.0
H48 H 0.17064 0.7456 0.2311 0.0
H49 H 0.14544 0.7101 0.33538 0.0
O50 O 0.17711 0.73093 0.11375 0.0
C51 C 0.10136 0.73334 0.17479 0.0
O52 O 0.09447 0.72083 0.18203 0.0
N53 N 0.16058 0.70527 0.15896 0.0
C54 C 0.16501 0.67838 0.14284 0.0
C55 C 0.18123 0.68735 0.10028 0.0
C56 C 0.17858 0.70083 0.10879 0.0
C57 C 0.14491 0.69665 0.20054 0.0
C58 C 0.14717 0.68326 0.19478 0.0
H59 H 0.18923 0.7075 0.07034 0.0
H60 H 0.12857 0.7001 0.23258 0.0
H61 H 0.15701 0.7309 0.98822 0.0
H62 H 0.10675 0.69889 0.92135 0.0
H63 H 0.18061 0.74752 0.37801 0.0
H64 H 0.19486 0.68398 0.05823 0.0
H65 H 0.13339 0.67677 0.22618 0.0
C66 C 0.85192 0.47135 0.9781 0.0
C67 C 0.8504 0.46986 0.05591 0.0
N68 N 0.87444 0.46724 0.08198 0.0
N69 N 0.87692 0.46983 0.95495 0.0
C70 C 0.89015 0.46723 0.0197 0.0
H71 H 0.83569 0.47342 0.94111 0.0
Co72 Co 0.89011 0.47129 0.85461 0.0
C73 C 0.9463 0.48424 0.87961 0.0
O74 O 0.95551 0.48087 0.81304 0.0
N75 N 0.90308 0.47319 0.75421 0.0
C76 C 0.91309 0.48378 0.64629 0.0
C77 C 0.91096 0.48491 0.72377 0.0
C78 C 0.90025 0.46507 0.69344 0.0
N79 N 0.90634 0.47134 0.62722 0.0
O80 O 0.87086 0.48684 0.83931 0.0
H81 H 0.9133 0.49394 0.75553 0.0
H82 H 0.89169 0.45514 0.69693 0.0
O83 O 0.92212 0.48112 0.8976 0.0
C84 C 0.85096 0.4822 0.80053 0.0
O85 O 0.84878 0.46955 0.78779 0.0
N86 N 0.90427 0.45486 0.86407 0.0
C87 C 0.9121 0.42825 0.85145 0.0
C88 C 0.93317 0.43765 0.84 0.0
C89 C 0.92888 0.45099 0.84732 0.0
C90 C 0.88386 0.44574 0.87583 0.0
C91 C 0.88746 0.43246 0.87167 0.0
H92 H 0.94486 0.45804 0.8347 0.0
H93 H 0.86407 0.44877 0.88439 0.0
H94 H 0.911 0.46557 0.02124 0.0
H95 H 0.83288 0.47051 0.09062 0.0
H96 H 0.91768 0.49166 0.60634 0.0
H97 H 0.95243 0.43472 0.82283 0.0
H98 H 0.87051 0.42557 0.87865 0.0
C99 C 0.91966 0.30798 0.95451 0.0
C100 C 0.92108 0.30779 0.03304 0.0
N101 N 0.9114 0.29599 0.05761 0.0
N102 N 0.9088 0.2964 0.92978 0.0
C103 C 0.90411 0.28931 0.99386 0.0
H104 H 0.92651 0.31598 0.91789 0.0
Co105 Co 0.9027 0.29041 0.82979 0.0
C106 C 0.84526 0.28281 0.83029 0.0
O107 O 0.84432 0.28916 0.76531 0.0
N108 N 0.89655 0.28368 0.72967 0.0
C109 C 0.88674 0.26798 0.64465 0.0
C110 C 0.88716 0.27115 0.72039 0.0
C111 C 0.90213 0.28784 0.65741 0.0
N112 N 0.89632 0.27844 0.60474 0.0
O113 O 0.92217 0.27521 0.85159 0.0
H114 H 0.88151 0.26453 0.76646 0.0
H115 H 0.91137 0.29728 0.64299 0.0
O116 O 0.86765 0.28215 0.86385 0.0
C117 C 0.94595 0.27992 0.84111 0.0
O118 O 0.94973 0.2924 0.82468 0.0
N119 N 0.88879 0.30644 0.80565 0.0
C120 C 0.88586 0.33336 0.78481 0.0
C121 C 0.86717 0.32622 0.83049 0.0
C122 C 0.86914 0.3127 0.84093 0.0
C123 C 0.90715 0.31336 0.76275 0.0
C124 C 0.90579 0.32664 0.75026 0.0
H125 H 0.85617 0.30756 0.88137 0.0
H126 H 0.92451 0.30879 0.74347 0.0
H127 H 0.89564 0.27936 0.99353 0.0
H128 H 0.92941 0.31558 0.069 0.0
H129 H 0.88016 0.25859 0.62101 0.0
H130 H 0.85188 0.33111 0.8601 0.0
H131 H 0.92154 0.33174 0.71819 0.0
C132 C 0.17762 0.04973 0.5411 0.0
C133 C 0.18076 0.0488 0.46358 0.0
N134 N 0.16477 0.03876 0.43841 0.0
N135 N 0.15946 0.0404 0.56484 0.0
C136 C 0.15216 0.03375 0.50079 0.0
H137 H 0.18681 0.05723 0.57735 0.0
Co138 Co 0.14541 0.03994 0.66388 0.0
C139 C 0.08844 0.0307 0.62458 0.0
O140 O 0.07889 0.04136 0.65126 0.0
N141 N 0.13145 0.0396 0.76536 0.0
C142 C 0.10951 0.04482 0.87026 0.0
C143 C 0.11104 0.04612 0.79254 0.0
C144 C 0.14182 0.03432 0.82883 0.0
N145 N 0.12887 0.03739 0.893 0.0
O146 O 0.16357 0.02436 0.68544 0.0
H147 H 0.09908 0.05235 0.75955 0.0
H148 H 0.15946 0.02897 0.82922 0.0
O149 O 0.11346 0.02939 0.62674 0.0
C150 C 0.18791 0.02778 0.69819 0.0
O151 O 0.19559 0.04023 0.69294 0.0
N152 N 0.13183 0.05624 0.64477 0.0
C153 C 0.12996 0.08282 0.61117 0.0
C154 C 0.11722 0.07329 0.56386 0.0
C155 C 0.11851 0.05997 0.58148 0.0
C156 C 0.14425 0.0654 0.69076 0.0
C157 C 0.14315 0.07865 0.67598 0.0
H158 H 0.11052 0.05272 0.54168 0.0
H159 H 0.15653 0.06238 0.73706 0.0
H160 H 0.1367 0.02598 0.49882 0.0
H161 H 0.19305 0.05533 0.42788 0.0
H162 H 0.09587 0.0494 0.90764 0.0
H163 H 0.10721 0.07608 0.51244 0.0
H164 H 0.15413 0.08555 0.71258 0.0
C165 C 0.10059 0.21836 0.50912 0.0
C166 C 0.0993 0.21712 0.43106 0.0
N167 N 0.12411 0.21705 0.40415 0.0
N168 N 0.12614 0.21929 0.53132 0.0
C169 C 0.13997 0.21837 0.46569 0.0
H170 H 0.08379 0.21856 0.54679 0.0
Co171 Co 0.13916 0.22156 0.63102 0.0
C172 C 0.1957 0.23211 0.60695 0.0
O173 O 0.20376 0.22532 0.66501 0.0
N174 N 0.15184 0.22417 0.73137 0.0
C175 C 0.16362 0.23565 0.83501 0.0
C176 C 0.16088 0.23604 0.75728 0.0
C177 C 0.14922 0.2167 0.79513 0.0
N178 N 0.15638 0.22349 0.85852 0.0
O179 O 0.12034 0.23724 0.64202 0.0
H180 H 0.16382 0.24469 0.72223 0.0
H181 H 0.14046 0.20682 0.79642 0.0
O182 O 0.1711 0.23137 0.58901 0.0
C183 C 0.09813 0.23386 0.67347 0.0
O184 O 0.09262 0.22144 0.68866 0.0
N185 N 0.15359 0.20524 0.62404 0.0
C186 C 0.15832 0.17844 0.60478 0.0
C187 C 0.17707 0.18759 0.5728 0.0
C188 C 0.17432 0.20104 0.58296 0.0
C189 C 0.13539 0.19645 0.65498 0.0
C190 C 0.13752 0.1831 0.64708 0.0
H191 H 0.18792 0.2079 0.55412 0.0
H192 H 0.11819 0.19987 0.68311 0.0
H193 H 0.16131 0.21886 0.46254 0.0
H194 H 0.08155 0.21614 0.39678 0.0
H195 H 0.16935 0.24379 0.87193 0.0
H196 H 0.19325 0.1844 0.53873 0.0
H197 H 0.12206 0.17651 0.67063 0.0
C198 C 0.8448 0.96826 0.5067 0.0
C199 C 0.84343 0.96693 0.58467 0.0
N200 N 0.86791 0.96527 0.61083 0.0
N201 N 0.87012 0.96767 0.48408 0.0
C202 C 0.88373 0.9657 0.5489 0.0
H203 H 0.82843 0.96982 0.4691 0.0
Co204 Co 0.88224 0.97025 0.38476 0.0
C205 C 0.94034 0.97594 0.39859 0.0
O206 O 0.94277 0.96818 0.33981 0.0
N207 N 0.89426 0.9732 0.28337 0.0
C208 C 0.90755 0.9848 0.1813 0.0
C209 C 0.90456 0.98497 0.25904 0.0
C210 C 0.8914 0.96598 0.21885 0.0
N211 N 0.89935 0.97285 0.15638 0.0
O212 O 0.86673 0.98711 0.38313 0.0
H213 H 0.9086 0.99337 0.29542 0.0
H214 H 0.88218 0.95621 0.21637 0.0
O215 O 0.91714 0.97778 0.42424 0.0
C216 C 0.84575 0.98534 0.34261 0.0
O217 O 0.84073 0.97384 0.31118 0.0
N218 N 0.89214 0.9529 0.38345 0.0
C219 C 0.89118 0.92573 0.36967 0.0
C220 C 0.91217 0.93263 0.40769 0.0
C221 C 0.91212 0.94634 0.41499 0.0
C222 C 0.87097 0.94611 0.35188 0.0
C223 C 0.8702 0.93269 0.34355 0.0
H224 H 0.92772 0.95149 0.44684 0.0
H225 H 0.85434 0.95124 0.33237 0.0
H226 H 0.90492 0.96501 0.55116 0.0
H227 H 0.82587 0.96722 0.6196 0.0
H228 H 0.91444 0.99292 0.14545 0.0
H229 H 0.9284 0.92752 0.43082 0.0
H230 H 0.85307 0.92776 0.31678 0.0
C231 C 0.92676 0.80587 0.49494 0.0
C232 C 0.92979 0.80576 0.57318 0.0
N233 N 0.92111 0.79389 0.59948 0.0
N234 N 0.91592 0.79418 0.47197 0.0
C235 C 0.91301 0.78708 0.5368 0.0
H236 H 0.93177 0.81403 0.45735 0.0
Co237 Co 0.9057 0.78884 0.37285 0.0
C238 C 0.85029 0.77761 0.40832 0.0
O239 O 0.84048 0.78471 0.35413 0.0
N240 N 0.8958 0.78287 0.27249 0.0
C241 C 0.88186 0.76881 0.18173 0.0
C242 C 0.88184 0.77144 0.25828 0.0
C243 C 0.90505 0.78666 0.20235 0.0
N244 N 0.89653 0.77836 0.14628 0.0
O245 O 0.92941 0.77488 0.37794 0.0
H246 H 0.87373 0.76474 0.3009 0.0
H247 H 0.91959 0.79465 0.19259 0.0
O248 O 0.8754 0.77818 0.41919 0.0
C249 C 0.95134 0.78078 0.35766 0.0
O250 O 0.95158 0.79336 0.34326 0.0
N251 N 0.88637 0.80386 0.36397 0.0
C252 C 0.87376 0.82995 0.35628 0.0
C253 C 0.86231 0.82161 0.41246 0.0
C254 C 0.86896 0.80849 0.4155 0.0
C255 C 0.89812 0.8121 0.31142 0.0
C256 C 0.89159 0.82497 0.30507 0.0
H257 H 0.86166 0.80241 0.46227 0.0
H258 H 0.91458 0.80914 0.27878 0.0
H259 H 0.90457 0.77713 0.53812 0.0
H260 H 0.9379 0.81376 0.6078 0.0
H261 H 0.87272 0.76019 0.15466 0.0
H262 H 0.84904 0.82527 0.45457 0.0
H263 H 0.90184 0.83124 0.26335 0.0
C264 C 0.67163 0.55466 0.55322 0.0
C265 C 0.67416 0.55451 0.47493 0.0
N266 N 0.66217 0.54331 0.4487 0.0
N267 N 0.65772 0.54369 0.57601 0.0
C268 C 0.6525 0.53692 0.51118 0.0
H269 H 0.67926 0.56231 0.59107 0.0
Co270 Co 0.64764 0.53888 0.67518 0.0
C271 C 0.59052 0.53128 0.66239 0.0
O272 O 0.58816 0.5388 0.72232 0.0
N273 N 0.63801 0.53332 0.77639 0.0
C274 C 0.62545 0.51852 0.86464 0.0
C275 C 0.62606 0.52132 0.78849 0.0
C276 C 0.6454 0.53738 0.8476 0.0
N277 N 0.63788 0.52853 0.90217 0.0
O278 O 0.66728 0.52354 0.66585 0.0
H279 H 0.61958 0.51454 0.74421 0.0
H280 H 0.65802 0.54601 0.85938 0.0
O281 O 0.61372 0.53001 0.63469 0.0
C282 C 0.68934 0.52666 0.69867 0.0
O283 O 0.69281 0.53836 0.72889 0.0
N284 N 0.6323 0.55509 0.68551 0.0
C285 C 0.62626 0.58203 0.67659 0.0
C286 C 0.61184 0.57325 0.62844 0.0
C287 C 0.61533 0.55984 0.63326 0.0
C288 C 0.64609 0.56349 0.7332 0.0
C289 C 0.64287 0.57688 0.7312 0.0
H290 H 0.6063 0.55351 0.59017 0.0
H291 H 0.66178 0.56007 0.7676 0.0
H292 H 0.64155 0.52751 0.50975 0.0
H293 H 0.68441 0.56195 0.44017 0.0
H294 H 0.61745 0.50949 0.88999 0.0
H295 H 0.59941 0.57673 0.58365 0.0
H296 H 0.65449 0.58317 0.76965 0.0
C297 C 0.61007 0.71353 0.58709 0.0
C298 C 0.60733 0.71133 0.51014 0.0
N299 N 0.62982 0.71578 0.47537 0.0
N300 N 0.63427 0.71922 0.60101 0.0
C301 C 0.64584 0.72058 0.53157 0.0
H302 H 0.59575 0.71068 0.6307 0.0
Co303 Co 0.64719 0.72194 0.6994 0.0
C304 C 0.70498 0.72738 0.68077 0.0
O305 O 0.7075 0.71901 0.7367 0.0
N306 N 0.65973 0.72491 0.80104 0.0
C307 C 0.67605 0.7356 0.90297 0.0
C308 C 0.673 0.73598 0.82508 0.0
C309 C 0.65448 0.71811 0.86624 0.0
N310 N 0.66424 0.72434 0.92924 0.0
O311 O 0.6315 0.73856 0.70145 0.0
H312 H 0.67937 0.74406 0.78842 0.0
H313 H 0.64236 0.70912 0.8685 0.0
O314 O 0.68166 0.72965 0.65789 0.0
C315 C 0.61001 0.73669 0.73957 0.0
O316 O 0.60504 0.72527 0.77236 0.0
N317 N 0.65763 0.70469 0.69846 0.0
C318 C 0.65248 0.67768 0.67592 0.0
C319 C 0.67285 0.6853 0.63976 0.0
C320 C 0.67478 0.69894 0.65059 0.0
C321 C 0.63814 0.69724 0.73421 0.0
C322 C 0.63559 0.68379 0.72529 0.0
H323 H 0.68841 0.70483 0.61555 0.0
H324 H 0.62267 0.70188 0.76393 0.0
H325 H 0.66604 0.72432 0.52251 0.0
H326 H 0.59036 0.70655 0.48197 0.0
H327 H 0.68572 0.74323 0.93733 0.0
H328 H 0.68574 0.68093 0.59922 0.0
H329 H 0.61926 0.67831 0.75284 0.0
C330 C 0.35192 0.46038 0.5006 0.0
C331 C 0.35152 0.45877 0.57879 0.0
N332 N 0.37565 0.46251 0.6063 0.0
N333 N 0.37612 0.46518 0.47894 0.0
C334 C 0.39005 0.46639 0.54453 0.0
H335 H 0.33573 0.45804 0.46186 0.0
Co336 Co 0.38771 0.46854 0.37918 0.0
C337 C 0.44337 0.48055 0.4026 0.0
O338 O 0.45249 0.47369 0.34636 0.0
N339 N 0.39914 0.47218 0.27804 0.0
C340 C 0.41329 0.48393 0.17726 0.0
C341 C 0.40891 0.48409 0.25449 0.0
C342 C 0.39688 0.46505 0.21297 0.0
N343 N 0.40559 0.47198 0.15146 0.0
O344 O 0.36637 0.48342 0.37532 0.0
H345 H 0.41202 0.49253 0.29099 0.0
H346 H 0.3885 0.45512 0.20977 0.0
O347 O 0.41868 0.4793 0.41949 0.0
C348 C 0.34561 0.48079 0.33529 0.0
O349 O 0.343 0.46945 0.3005 0.0
N350 N 0.40477 0.45287 0.38198 0.0
C351 C 0.41228 0.42645 0.40898 0.0
C352 C 0.42966 0.43632 0.43986 0.0
C353 C 0.42533 0.44952 0.42669 0.0
C354 C 0.38823 0.44341 0.35024 0.0
C355 C 0.39174 0.43022 0.36212 0.0
H356 H 0.43722 0.45682 0.45754 0.0
H357 H 0.37071 0.44613 0.32072 0.0
H358 H 0.4105 0.47003 0.54712 0.0
H359 H 0.33492 0.45486 0.61233 0.0
H360 H 0.42074 0.49205 0.14223 0.0
H361 H 0.4457 0.43392 0.47694 0.0
H362 H 0.37715 0.42311 0.33924 0.0
C363 C 0.43726 0.27939 0.51815 0.0
C364 C 0.43598 0.27779 0.59578 0.0
N365 N 0.41139 0.28003 0.61872 0.0
N366 N 0.4136 0.28273 0.49195 0.0
C367 C 0.3981 0.28296 0.55487 0.0
H368 H 0.45492 0.27897 0.48415 0.0
Co369 Co 0.40735 0.28872 0.39284 0.0
C370 C 0.34941 0.28021 0.36129 0.0
O371 O 0.34875 0.28769 0.30067 0.0
N372 N 0.40229 0.29482 0.29253 0.0
C373 C 0.40647 0.30754 0.18969 0.0
C374 C 0.40851 0.30711 0.26774 0.0
C375 C 0.39715 0.28789 0.22783 0.0
N376 N 0.39925 0.29544 0.16468 0.0
O377 O 0.42221 0.27337 0.3509 0.0
H378 H 0.41531 0.3152 0.30359 0.0
H379 H 0.39286 0.27742 0.22684 0.0
O380 O 0.3709 0.27992 0.3997 0.0
C381 C 0.44612 0.27671 0.33182 0.0
O382 O 0.45497 0.28886 0.34408 0.0
N383 N 0.39672 0.30457 0.4334 0.0
C384 C 0.39434 0.33095 0.47001 0.0
C385 C 0.37239 0.3239 0.43816 0.0
C386 C 0.37385 0.3106 0.42104 0.0
C387 C 0.41781 0.31125 0.4667 0.0
C388 C 0.4169 0.32434 0.48655 0.0
H389 H 0.35728 0.30555 0.39342 0.0
H390 H 0.43619 0.3066 0.47356 0.0
H391 H 0.3782 0.28618 0.55468 0.0
H392 H 0.4522 0.27577 0.63314 0.0
H393 H 0.41052 0.31603 0.15389 0.0
H394 H 0.35464 0.32874 0.42433 0.0
H395 H 0.43441 0.32947 0.50989 0.0
C396 C 0.6851 0.03422 0.01276 0.0
C397 C 0.68506 0.03259 0.93498 0.0
N398 N 0.66025 0.03358 0.90941 0.0
N399 N 0.66042 0.03627 0.03649 0.0
C400 C 0.64562 0.03574 0.97211 0.0
H401 H 0.70235 0.03461 0.049 0.0
Co402 Co 0.65195 0.04184 0.1346 0.0
C403 C 0.5941 0.03405 0.15693 0.0
O404 O 0.5925 0.04346 0.20703 0.0
N405 N 0.64435 0.04765 0.23494 0.0
C406 C 0.64594 0.05995 0.33968 0.0
C407 C 0.64839 0.05997 0.26168 0.0
C408 C 0.63929 0.04032 0.29853 0.0
N409 N 0.64023 0.0476 0.36276 0.0
O410 O 0.66752 0.02676 0.17831 0.0
H411 H 0.65427 0.06845 0.22779 0.0
H412 H 0.63657 0.02977 0.29823 0.0
O413 O 0.6163 0.03244 0.12422 0.0
C414 C 0.68989 0.03106 0.20542 0.0
O415 O 0.697 0.04353 0.19789 0.0
N416 N 0.64131 0.05744 0.09224 0.0
C417 C 0.63923 0.08331 0.04524 0.0
C418 C 0.61595 0.07514 0.05089 0.0
C419 C 0.6174 0.06209 0.07465 0.0
C420 C 0.66403 0.06504 0.08109 0.0
C421 C 0.66346 0.07798 0.05851 0.0
H422 H 0.59941 0.05599 0.07977 0.0
H423 H 0.68283 0.06113 0.09365 0.0
H424 H 0.62497 0.03781 0.97051 0.0
H425 H 0.70215 0.03124 0.89952 0.0
H426 H 0.64908 0.06831 0.37697 0.0
H427 H 0.59688 0.07893 0.03991 0.0
H428 H 0.68186 0.0839 0.05343 0.0
C429 C 0.60828 0.20924 0.98269 0.0
C430 C 0.60464 0.21005 0.90529 0.0
N431 N 0.61916 0.22058 0.87933 0.0
N432 N 0.6253 0.21911 1.00553 0.0
C433 C 0.63135 0.22598 0.9412 0.0
H434 H 0.60015 0.20152 0.0195 0.0
Co435 Co 0.63923 0.22035 0.10448 0.0
C436 C 0.69475 0.23148 0.0684 0.0
O437 O 0.70477 0.22137 0.10031 0.0
N438 N 0.65303 0.22151 0.20676 0.0
C439 C 0.67479 0.21697 0.31333 0.0
C440 C 0.67366 0.21536 0.23591 0.0
C441 C 0.64221 0.22696 0.26916 0.0
N442 N 0.655 0.22423 0.33425 0.0
O443 O 0.61717 0.23477 0.12419 0.0
H444 H 0.68605 0.20907 0.20482 0.0
H445 H 0.62432 0.23212 0.2683 0.0
O446 O 0.66952 0.23219 0.06649 0.0
C447 C 0.59497 0.22879 0.14157 0.0
O448 O 0.59416 0.216 0.1475 0.0
N449 N 0.65611 0.20486 0.08594 0.0
C450 C 0.66195 0.17875 0.04853 0.0
C451 C 0.67256 0.18884 1.00118 0.0
C452 C 0.66949 0.20192 0.02109 0.0
C453 C 0.64577 0.19509 0.13198 0.0
C454 C 0.6491 0.18206 0.1156 0.0
H455 H 0.67586 0.20956 0.98145 0.0
H456 H 0.63335 0.19739 0.17959 0.0
H457 H 0.6456 0.23428 0.93869 0.0
H458 H 0.59293 0.2032 0.87028 0.0
H459 H 0.68832 0.21256 0.35192 0.0
H460 H 0.6821 0.18661 0.94794 0.0
H461 H 0.63988 0.17459 0.15234 0.0
C462 C 0.34811 0.9653 0.0282 0.0
C463 C 0.34706 0.96398 0.10634 0.0
N464 N 0.37166 0.9663 0.1337 0.0
N465 N 0.37318 0.96869 1.0067 0.0
C466 C 0.38712 0.96908 0.07255 0.0
H467 H 0.3316 0.96388 0.98965 0.0
Co468 Co 0.38469 0.97244 0.90709 0.0
C469 C 0.44053 0.9836 0.92797 0.0
O470 O 0.44815 0.97711 0.86821 0.0
N471 N 0.39597 0.97656 0.80626 0.0
C472 C 0.40488 0.9893 0.70515 0.0
C473 C 0.40189 0.98898 0.78297 0.0
C474 C 0.39587 0.96947 0.74097 0.0
N475 N 0.40118 0.97702 0.67909 0.0
O476 O 0.36358 0.98756 0.90616 0.0
H477 H 0.40277 0.99741 0.82006 0.0
H478 H 0.39053 0.95914 0.73729 0.0
O479 O 0.41617 0.98256 0.94836 0.0
C480 C 0.34196 0.98374 0.87296 0.0
O481 O 0.3396 0.9718 0.84584 0.0
N482 N 0.40079 0.95653 0.90622 0.0
C483 C 0.40313 0.92976 0.93037 0.0
C484 C 0.42211 0.93862 0.96332 0.0
C485 C 0.42045 0.95213 0.95101 0.0
C486 C 0.38314 0.94788 0.87177 0.0
C487 C 0.38425 0.93453 0.88176 0.0
H488 H 0.43332 0.95891 0.98287 0.0
H489 H 0.36651 0.9514 0.84144 0.0
H490 H 0.40815 0.97154 0.07621 0.0
H491 H 0.32969 0.96139 0.1404 0.0
H492 H 0.40871 0.9979 0.67006 0.0
H493 H 0.43666 0.93524 1.00255 0.0
H494 H 0.36911 0.92801 0.85606 0.0
C495 C 0.44255 0.80093 0.96887 0.0
C496 C 0.44547 0.80301 0.04577 0.0
N497 N 0.42427 0.7973 0.08155 0.0
N498 N 0.41954 0.79399 0.95582 0.0
C499 C 0.40892 0.79175 0.0259 0.0
H500 H 0.45563 0.80493 0.92483 0.0
Co501 Co 0.4059 0.7917 0.85764 0.0
C502 C 0.34946 0.7836 0.87695 0.0
O503 O 0.34604 0.79276 0.8261 0.0
N504 N 0.39295 0.78911 0.75581 0.0
C505 C 0.37794 0.77802 0.65359 0.0
C506 C 0.38089 0.77774 0.73134 0.0
C507 C 0.39791 0.79594 0.6905 0.0
N508 N 0.38884 0.78948 0.62744 0.0
O509 O 0.42569 0.7763 0.84498 0.0
H510 H 0.37566 0.76942 0.7674 0.0
H511 H 0.40979 0.805 0.68796 0.0
O512 O 0.37316 0.78164 0.89847 0.0
C513 C 0.44606 0.78088 0.80789 0.0
O514 O 0.44781 0.79339 0.79118 0.0
N515 N 0.39099 0.80804 0.86808 0.0
C516 C 0.38583 0.83454 0.90179 0.0
C517 C 0.3715 0.82462 0.94277 0.0
C518 C 0.37448 0.81145 0.92542 0.0
C519 C 0.40517 0.81757 0.82873 0.0
C520 C 0.40219 0.83075 0.84242 0.0
H521 H 0.36506 0.8041 0.96216 0.0
H522 H 0.42082 0.81503 0.7912 0.0
H523 H 0.38946 0.78708 0.03571 0.0
H524 H 0.46141 0.80877 0.07312 0.0
H525 H 0.36922 0.77014 0.6192 0.0
H526 H 0.35929 0.82689 0.99093 0.0
H527 H 0.41371 0.83786 0.80852 0.0
H528 H 0.30939 0.48257 0.22122 0.0
H529 H 0.33046 0.49782 0.44502 0.0
H530 H 0.28905 0.50939 0.44802 0.0
H531 H 0.28127 0.51208 0.15205 0.0
H532 H 0.25591 0.50325 0.09735 0.0
H533 H 0.28699 0.49619 0.11399 0.0
H534 H 0.26192 0.4757 0.17157 0.0
H535 H 0.23078 0.48283 0.15673 0.0
H536 H 0.23973 0.47751 0.25064 0.0
H537 H 0.24479 0.51839 0.42903 0.0
H538 H 0.20454 0.52778 0.38101 0.0
H539 H 0.21248 0.50761 0.16605 0.0
C540 C 0.30539 0.48845 0.2706 0.0
C541 C 0.32312 0.48931 0.3331 0.0
C542 C 0.31731 0.49714 0.39638 0.0
C543 C 0.29369 0.5036 0.39884 0.0
C544 C 0.2763 0.50224 0.33716 0.0
C545 C 0.28214 0.49512 0.27341 0.0
C546 C 0.26068 0.49577 0.21324 0.0
C547 C 0.27188 0.50221 0.13982 0.0
C548 C 0.2475 0.48213 0.19712 0.0
C549 C 0.24172 0.50438 0.25311 0.0
C550 C 0.25102 0.50778 0.32509 0.0
C551 C 0.2374 0.51581 0.37282 0.0
C552 C 0.21443 0.52102 0.34516 0.0
C553 C 0.20523 0.5183 0.2702 0.0
C554 C 0.21866 0.50957 0.22421 0.0
H555 H 0.04762 0.72941 0.18457 0.0
H556 H 0.112 0.7586 0.22323 0.0
H557 H 0.08049 0.77311 0.28182 0.0
H558 H 0.99803 0.75242 0.13731 0.0
H559 H 0.97163 0.74273 0.18301 0.0
H560 H 0.99919 0.73492 0.14259 0.0
H561 H 1.0073 0.72401 0.27299 0.0
H562 H 0.9801 0.732 0.31424 0.0
H563 H 1.01248 0.73408 0.35648 0.0
H564 H 0.04267 0.78384 0.34165 0.0
H565 H 1.00018 0.79172 0.3829 0.0
H566 H 0.95939 0.75581 0.30357 0.0
C567 C 0.05507 0.73893 0.20452 0.0
C568 C 0.08233 0.7429 0.19925 0.0
C569 C 0.09123 0.75542 0.22592 0.0
C570 C 0.0735 0.76365 0.25994 0.0
C571 C 0.04692 0.75926 0.26621 0.0
C572 C 0.03761 0.7473 0.23792 0.0
C573 C 1.00798 0.74504 0.25042 0.0
C574 C 0.99334 0.7437 0.17378 0.0
C575 C 1.0016 0.73307 0.30158 0.0
C576 C 1.00202 0.75758 0.29086 0.0
C577 C 0.0249 0.76556 0.29981 0.0
C578 C 0.02467 0.77771 0.33461 0.0
C579 C 1.00038 0.78206 0.35818 0.0
C580 C 0.97645 0.77436 0.3469 0.0
C581 C 0.97737 0.7618 0.31433 0.0
H582 H 0.34363 0.76563 0.99888 0.0
H583 H 0.29994 0.78427 0.82049 0.0
H584 H 0.25887 0.77311 0.86557 0.0
H585 H 0.30448 0.73429 0.99228 0.0
H586 H 0.30504 0.73175 0.09393 0.0
H587 H 0.33192 0.74105 0.04795 0.0
H588 H 0.32519 0.76048 0.13827 0.0
H589 H 0.29824 0.75125 0.18435 0.0
H590 H 0.29315 0.76707 0.14415 0.0
H591 H 0.22184 0.76082 0.92962 0.0
H592 H 0.19091 0.74715 1.0082 0.0
H593 H 0.25646 0.73534 0.14579 0.0
C594 C 0.32545 0.76728 0.96916 0.0
C595 C 0.32534 0.77595 0.90597 0.0
C596 C 0.30091 0.77781 0.86913 0.0
C597 C 0.27725 0.77148 0.89424 0.0
C598 C 0.2779 0.76317 0.95662 0.0
C599 C 0.30124 0.76094 0.99369 0.0
C600 C 0.29579 0.75146 0.05975 0.0
C601 C 0.31017 0.73889 0.04774 0.0
C602 C 0.30355 0.75795 0.13615 0.0
C603 C 0.26588 0.74884 0.05355 0.0
C604 C 0.25612 0.75577 0.99356 0.0
C605 C 0.22924 0.75524 0.97647 0.0
C606 C 0.21174 0.74738 0.02151 0.0
C607 C 0.22102 0.73997 0.08293 0.0
C608 C 0.24859 0.74079 0.09906 0.0
H609 H 0.99925 0.49176 0.86029 0.0
H610 H 0.93506 0.49286 0.02369 0.0
H611 H 0.96538 0.50447 0.11466 0.0
H612 H 0.05084 0.4864 0.99745 0.0
H613 H 0.07567 0.49658 0.94817 0.0
H614 H 0.04909 0.48832 0.89545 0.0
H615 H 0.0367 0.51039 0.83881 0.0
H616 H 0.06322 0.51873 0.89136 0.0
H617 H 0.02991 0.52361 0.90203 0.0
H618 H 1.00209 0.51632 0.18691 0.0
H619 H 0.04259 0.52767 0.23681 0.0
H620 H 0.0843 0.5188 0.02896 0.0
C621 C 0.99149 0.49444 0.91519 0.0
C622 C 0.96456 0.49138 0.9345 0.0
C623 C 0.95544 0.49508 1.00717 0.0
C624 C 0.97258 0.50167 0.05936 0.0
C625 C 0.99891 0.50451 0.03846 0.0
C626 C 1.00839 0.50101 0.96816 0.0
C627 C 0.03761 0.5053 0.96011 0.0
C628 C 0.05429 0.49344 0.94969 0.0
C629 C 0.04211 0.51509 0.89417 0.0
C630 C 0.04305 0.51183 0.03681 0.0
C631 C 1.02035 0.51123 0.08083 0.0
C632 C 1.01997 0.5168 0.15301 0.0
C633 C 0.04318 0.52327 0.1808 0.0
C634 C 0.06679 0.52415 0.1371 0.0
C635 C 0.06673 0.51819 0.06421 0.0
H636 H 0.82466 0.50238 0.86561 0.0
H637 H 0.82966 0.47891 0.66142 0.0
H638 H 0.78847 0.48735 0.61335 0.0
H639 H 0.75627 0.49791 0.88971 0.0
H640 H 0.751 0.5143 0.92029 0.0
H641 H 0.78243 0.50757 0.93653 0.0
H642 H 0.80642 0.52693 0.86427 0.0
H643 H 0.77511 0.53389 0.84947 0.0
H644 H 0.796 0.53082 0.76915 0.0
H645 H 0.74382 0.4962 0.59389 0.0
H646 H 0.70257 0.50798 0.59529 0.0
H647 H 0.72696 0.52629 0.80876 0.0
C648 C 0.81756 0.49944 0.80964 0.0
C649 C 0.83043 0.49006 0.76699 0.0
C650 C 0.82011 0.48612 0.69489 0.0
C651 C 0.79663 0.4908 0.66718 0.0
C652 C 0.78363 0.49953 0.71192 0.0
C653 C 0.79398 0.50408 0.78074 0.0
C654 C 0.77556 0.51326 0.81803 0.0
C655 C 0.76574 0.50794 0.89574 0.0
C656 C 0.78908 0.52704 0.82565 0.0
C657 C 0.75327 0.51295 0.76011 0.0
C658 C 0.75816 0.50488 0.69962 0.0
C659 C 0.73991 0.50269 0.64052 0.0
C660 C 0.71641 0.50929 0.64206 0.0
C661 C 0.71162 0.51804 0.70185 0.0
C662 C 0.73018 0.5197 0.76196 0.0
H663 H 0.04473 0.23123 0.65927 0.0
H664 H 0.10833 0.25703 0.74859 0.0
H665 H 0.07542 0.27006 0.81352 0.0
H666 H 0.99932 0.25693 0.62328 0.0
H667 H 0.97053 0.24653 0.64757 0.0
H668 H 0.99925 0.23954 0.60846 0.0
H669 H 1.00025 0.22412 0.72533 0.0
H670 H 0.972 0.23134 0.7659 0.0
H671 H 1.00217 0.23098 0.81987 0.0
H672 H 0.03585 0.27929 0.87466 0.0
H673 H 0.9924 0.28729 0.90591 0.0
H674 H 0.95373 0.25622 0.77144 0.0
C675 C 0.05165 0.23979 0.69137 0.0
C676 C 0.07902 0.24324 0.69865 0.0
C677 C 0.08745 0.25441 0.74129 0.0
C678 C 0.0689 0.26172 0.77916 0.0
C679 C 0.04207 0.25779 0.77281 0.0
C680 C 0.0334 0.24732 0.72816 0.0
C681 C 1.0034 0.24551 0.72795 0.0
C682 C 0.99248 0.24723 0.64702 0.0
C683 C 0.99391 0.2322 0.76178 0.0
C684 C 0.99642 0.2566 0.77989 0.0
C685 C 1.01913 0.26337 0.80618 0.0
C686 C 1.01801 0.27409 0.85414 0.0
C687 C 0.99319 0.27847 0.87221 0.0
C688 C 0.96969 0.27227 0.84202 0.0
C689 C 0.97128 0.26092 0.79716 0.0
H690 H 0.74898 0.23372 0.07774 0.0
H691 H 0.68287 0.25176 0.97314 0.0
H692 H 0.71427 0.2672 0.90516 0.0
H693 H 0.79095 0.26373 0.10275 0.0
H694 H 0.82096 0.25593 0.08196 0.0
H695 H 0.79332 0.24667 0.12446 0.0
H696 H 0.79381 0.22992 0.01434 0.0
H697 H 0.82138 0.23913 0.97139 0.0
H698 H 0.79162 0.2355 0.91721 0.0
H699 H 0.75304 0.2798 0.84285 0.0
H700 H 0.7956 0.28923 0.79418 0.0
H701 H 0.83721 0.26349 0.9417 0.0
C702 C 0.74098 0.24097 0.04101 0.0
C703 C 0.71326 0.24146 0.03085 0.0
C704 C 0.70387 0.25116 0.98219 0.0
C705 C 0.72162 0.25997 0.94324 0.0
C706 C 0.74877 0.25908 0.95397 0.0
C707 C 0.75841 0.24989 1.00221 0.0
C708 C 0.7885 0.25086 1.00297 0.0
C709 C 0.79905 0.25452 0.08278 0.0
C710 C 0.79946 0.23809 0.97479 0.0
C711 C 0.79439 0.26193 0.94663 0.0
C712 C 0.77113 0.2665 0.91914 0.0
C713 C 0.7713 0.27635 0.8645 0.0
C714 C 0.79572 0.28162 0.83698 0.0
C715 C 0.81994 0.27716 0.86399 0.0
C716 C 0.81915 0.26722 0.9203 0.0
H717 H 0.33299 0.00603 0.79198 0.0
H718 H 0.29628 0.97705 0.94479 0.0
H719 H 0.25241 0.98482 0.91547 0.0
H720 H 0.2863 0.03211 0.83232 0.0
H721 H 0.28683 0.03746 0.73441 0.0
H722 H 0.31545 0.03059 0.77498 0.0
H723 H 0.31451 0.01361 0.66571 0.0
H724 H 0.28543 0.02017 0.62609 0.0
H725 H 0.28511 1.0031 0.65057 0.0
H726 H 0.21187 0.99385 0.85696 0.0
H727 H 0.17832 0.00614 0.78956 0.0
H728 H 0.24113 0.02959 0.67727 0.0
C729 C 0.31581 1.00178 0.82185 0.0
C730 C 0.31805 0.9912 0.87241 0.0
C731 C 0.29501 0.98541 0.90753 0.0
C732 C 0.26996 0.98966 0.89055 0.0
C733 C 0.26818 0.99974 0.83806 0.0
C734 C 0.29051 0.00596 0.80552 0.0
C735 C 0.28292 0.01622 0.74869 0.0
C736 C 0.2935 0.02991 0.77415 0.0
C737 C 0.29257 0.01308 0.66801 0.0
C738 C 0.25299 0.01467 0.75386 0.0
C739 C 0.24483 0.00502 0.8051 0.0
C740 C 0.21803 1.00154 0.81733 0.0
C741 C 0.1991 0.00844 0.77819 0.0
C742 C 0.20711 0.01878 0.72825 0.0
C743 C 0.23442 0.02173 0.7153 0.0
H744 H 0.24883 0.2378 0.63665 0.0
H745 H 0.18768 0.24425 0.47022 0.0
H746 H 0.22049 0.25675 0.39029 0.0
H747 H 0.28344 0.26974 0.61832 0.0
H748 H 0.31581 0.26369 0.62912 0.0
H749 H 0.28764 0.2552 0.67365 0.0
H750 H 0.29853 0.23389 0.60496 0.0
H751 H 0.32668 0.24234 0.56005 0.0
H752 H 0.30166 0.23382 0.50259 0.0
H753 H 0.25973 0.26824 0.32724 0.0
H754 H 0.30224 0.2788 0.28663 0.0
H755 H 0.33903 0.26551 0.4938 0.0
C756 C 0.24229 0.24185 0.58343 0.0
C757 C 0.21549 0.23999 0.5599 0.0
C758 C 0.20792 0.24553 0.48986 0.0
C759 C 0.22649 0.25263 0.44388 0.0
C760 C 0.25266 0.25421 0.46856 0.0
C761 C 0.2606 0.24906 0.53688 0.0
C762 C 0.28999 0.25234 0.55014 0.0
C763 C 0.29447 0.26075 0.62208 0.0
C764 C 0.3051 0.23985 0.55469 0.0
C765 C 0.29734 0.26013 0.47846 0.0
C766 C 0.27542 0.26101 0.43231 0.0
C767 C 0.27698 0.26763 0.36305 0.0
C768 C 0.30138 0.27362 0.34048 0.0
C769 C 0.32424 0.27307 0.38677 0.0
C770 C 0.32208 0.26612 0.45678 0.0
H771 H 0.94697 0.99811 0.49091 0.0
H772 H 0.98987 0.9676 0.38559 0.0
H773 H 0.03168 0.97775 0.4348 0.0
H774 H 0.99524 0.02417 0.44968 0.0
H775 H 0.99111 0.03271 0.53819 0.0
H776 H 0.964 0.02267 0.49904 0.0
H777 H 0.96005 0.00946 0.62488 0.0
H778 H 0.98711 0.0195 0.66449 0.0
H779 H 0.98862 1.00201 0.66188 0.0
H780 H 0.06958 0.9915 0.49163 0.0
H781 H 0.10047 0.00808 0.55153 0.0
H782 H 0.03397 0.0301 0.61857 0.0
C783 C 0.96512 0.99349 0.47917 0.0
C784 C 0.96495 0.982 0.43429 0.0
C785 C 0.9893 0.9764 0.41946 0.0
C786 C 1.01328 0.98208 0.44737 0.0
C787 C 1.0129 0.99347 0.49021 0.0
C788 C 0.9895 0.99914 0.5062 0.0
C789 C 0.99495 0.01168 0.55125 0.0
C790 C 0.98578 0.0235 0.50687 0.0
C791 C 0.9819 0.0106 0.63032 0.0
C792 C 0.02496 0.01217 0.5574 0.0
C793 C 0.03488 1.00152 0.52217 0.0
C794 C 0.062 0.99987 0.51964 0.0
C795 C 0.07946 0.00936 0.55386 0.0
C796 C 0.06985 0.02045 0.58994 0.0
C797 C 0.04212 0.02177 0.59161 0.0
H798 H 0.7168 0.01084 0.14956 0.0
H799 H 0.70646 0.03445 0.35032 0.0
H800 H 0.74644 0.02597 0.40802 0.0
H801 H 0.74398 0.98248 0.24918 0.0
H802 H 0.76668 0.97989 0.17241 0.0
H803 H 0.73547 0.98663 0.15279 0.0
H804 H 0.76044 0.00639 0.08665 0.0
H805 H 0.79173 0.99992 0.1083 0.0
H806 H 0.78507 0.01613 0.13914 0.0
H807 H 0.7906 0.01639 0.43835 0.0
H808 H 0.8313 1.00413 0.44498 0.0
H809 H 0.81287 0.98747 0.22288 0.0
C810 C 0.72231 0.01371 0.20708 0.0
C811 C 0.70816 0.02296 0.24667 0.0
C812 C 0.71671 0.02707 0.32018 0.0
C813 C 0.73955 0.02242 0.35299 0.0
C814 C 0.75383 0.01373 0.31123 0.0
C815 C 0.74525 0.00923 0.24042 0.0
C816 C 0.76479 1.00038 0.20577 0.0
C817 C 0.75197 0.98652 0.19441 0.0
C818 C 0.77617 0.00605 0.13052 0.0
C819 C 0.78568 1.00069 0.26763 0.0
C820 C 0.77919 0.00847 0.328 0.0
C821 C 0.79579 0.01021 0.39144 0.0
C822 C 0.81905 1.00338 0.39444 0.0
C823 C 0.82531 0.99493 0.3344 0.0
C824 C 0.80865 0.99389 0.2697 0.0
H825 H 0.7103 0.74552 0.56111 0.0
H826 H 0.75571 0.72383 0.72197 0.0
H827 H 0.79686 0.73402 0.66944 0.0
H828 H 0.75621 0.7437 0.4024 0.0
H829 H 0.75173 0.76003 0.36896 0.0
H830 H 0.7253 0.75099 0.41846 0.0
H831 H 0.7232 0.76977 0.51629 0.0
H832 H 0.74965 0.77885 0.46712 0.0
H833 H 0.75267 0.77532 0.56728 0.0
H834 H 0.83366 0.74661 0.6019 0.0
H835 H 0.86352 0.76083 0.52206 0.0
H836 H 0.79562 0.77464 0.403 0.0
C837 C 0.7289 0.74291 0.58515 0.0
C838 C 0.72949 0.73381 0.64607 0.0
C839 C 0.75441 0.73073 0.67556 0.0
C840 C 0.77808 0.73648 0.64604 0.0
C841 C 0.77687 0.74538 0.58651 0.0
C842 C 0.75299 0.74861 0.5561 0.0
C843 C 0.75759 0.75857 0.49227 0.0
C844 C 0.74708 0.75299 0.41601 0.0
C845 C 0.74503 0.77139 0.51193 0.0
C846 C 0.78767 0.76039 0.49203 0.0
C847 C 0.79832 0.75267 0.54698 0.0
C848 C 0.82555 0.7527 0.5585 0.0
C849 C 0.84241 0.76083 0.5128 0.0
C850 C 0.83212 0.76889 0.4559 0.0
C851 C 0.80427 0.76859 0.44568 0.0
H852 H 0.47265 0.7619 0.88412 0.0
H853 H 0.46944 0.78313 0.67084 0.0
H854 H 0.51203 0.77499 0.63193 0.0
H855 H 0.54068 0.76782 0.91557 0.0
H856 H 0.54644 0.7519 0.95318 0.0
H857 H 0.51436 0.75829 0.96275 0.0
H858 H 0.49249 0.73791 0.89526 0.0
H859 H 0.52442 0.7313 0.88744 0.0
H860 H 0.50461 0.73319 0.80337 0.0
H861 H 0.55726 0.7664 0.62085 0.0
H862 H 0.59845 0.75469 0.63 0.0
H863 H 0.57236 0.73876 0.84848 0.0
C864 C 0.48049 0.76441 0.82819 0.0
C865 C 0.46762 0.77305 0.78016 0.0
C866 C 0.47892 0.77645 0.7083 0.0
C867 C 0.50322 0.77196 0.68582 0.0
C868 C 0.51612 0.76398 0.73568 0.0
C869 C 0.50493 0.75997 0.80459 0.0
C870 C 0.52332 0.7515 0.84774 0.0
C871 C 0.53168 0.75776 0.92434 0.0
C872 C 0.51045 0.73765 0.85909 0.0
C873 C 0.54649 0.75154 0.79273 0.0
C874 C 0.54208 0.7589 0.72873 0.0
C875 C 0.56088 0.76051 0.67052 0.0
C876 C 0.58437 0.75398 0.67651 0.0
C877 C 0.58867 0.74588 0.73992 0.0
C878 C 0.56966 0.74492 0.79929 0.0
H879 H 0.5843 0.5142 0.53749 0.0
H880 H 0.54049 0.53304 0.71462 0.0
H881 H 0.49918 0.52243 0.66694 0.0
H882 H 0.53449 0.51644 0.38945 0.0
H883 H 0.53955 0.50064 0.34918 0.0
H884 H 0.56639 0.50973 0.39639 0.0
H885 H 0.57241 0.49015 0.48645 0.0
H886 H 0.5456 0.481 0.43949 0.0
H887 H 0.54462 0.48344 0.54115 0.0
H888 H 0.46211 0.50983 0.60284 0.0
H889 H 0.43154 0.49584 0.52434 0.0
H890 H 0.49767 0.48479 0.3865 0.0
C891 C 0.56602 0.51609 0.56609 0.0
C892 C 0.56595 0.52453 0.63016 0.0
C893 C 0.54142 0.52668 0.66565 0.0
C894 C 0.51764 0.52067 0.63898 0.0
C895 C 0.51832 0.51245 0.57626 0.0
C896 C 0.54177 0.51011 0.53998 0.0
C897 C 0.53651 0.50073 0.47367 0.0
C898 C 0.54473 0.50728 0.39767 0.0
C899 C 0.55062 0.48808 0.48595 0.0
C900 C 0.50659 0.49823 0.47886 0.0
C901 C 0.4966 0.50512 0.53861 0.0
C902 C 0.46967 0.50439 0.55568 0.0
C903 C 0.45241 0.49641 0.51063 0.0
C904 C 0.462 0.48919 0.44888 0.0
C905 C 0.48957 0.49018 0.43302 0.0
H906 H 0.49959 0.28064 0.3147 0.0
H907 H 0.43421 0.25222 0.2711 0.0
H908 H 0.46531 0.23771 0.21008 0.0
H909 H 0.53571 0.27589 0.14064 0.0
H910 H 0.56765 0.27775 0.18575 0.0
H911 H 0.5403 0.28601 0.22414 0.0
H912 H 0.54693 0.27516 0.35555 0.0
H913 H 0.57442 0.26697 0.31781 0.0
H914 H 0.54716 0.25763 0.3618 0.0
H915 H 0.5034 0.22643 0.15483 0.0
H916 H 0.54582 0.21809 0.11752 0.0
H917 H 0.58731 0.25373 0.1985 0.0
C918 C 0.49169 0.27138 0.29214 0.0
C919 C 0.46433 0.26758 0.29742 0.0
C920 C 0.455 0.25532 0.26786 0.0
C921 C 0.47253 0.24708 0.23279 0.0
C922 C 0.4993 0.25122 0.22805 0.0
C923 C 0.50889 0.26303 0.25751 0.0
C924 C 0.53869 0.26499 0.24755 0.0
C925 C 0.54601 0.27687 0.19648 0.0
C926 C 0.55262 0.26626 0.3253 0.0
C927 C 0.54454 0.25235 0.20808 0.0
C928 C 0.52142 0.24464 0.19696 0.0
C929 C 0.52155 0.2324 0.16331 0.0
C930 C 0.54585 0.22776 0.14232 0.0
C931 C 0.56998 0.23525 0.155 0.0
C932 C 0.56924 0.24786 0.18706 0.0
H933 H 0.4936 0.98911 0.8962 0.0
H934 H 0.43303 0.9962 0.06344 0.0
H935 H 0.46605 0.00908 0.14031 0.0
H936 H 0.54714 0.9859 0.03006 0.0
H937 H 0.5718 0.99418 0.97011 0.0
H938 H 0.5436 0.98537 0.92784 0.0
H939 H 0.53208 0.00623 0.85512 0.0
H940 H 0.56031 0.01506 0.89695 0.0
H941 H 0.52787 0.02105 0.90755 0.0
H942 H 0.50526 0.02128 0.19904 0.0
H943 H 0.54763 0.03259 0.23473 0.0
H944 H 0.58391 0.01797 0.03029 0.0
C945 C 0.48724 0.99337 0.94902 0.0
C946 C 0.46053 0.99159 0.97358 0.0
C947 C 0.4532 0.99739 0.04306 0.0
C948 C 0.47189 1.00472 0.08731 0.0
C949 C 0.49796 0.00623 0.06157 0.0
C950 C 0.50568 1.00077 0.99393 0.0
C951 C 0.53498 1.00409 0.97907 0.0
C952 C 0.55028 0.99164 0.97664 0.0
C953 C 0.53904 0.01208 0.9053 0.0
C954 C 0.54248 0.0123 0.04888 0.0
C955 C 0.52074 0.01334 0.09561 0.0
C956 C 0.52238 0.02052 0.16286 0.0
C957 C 0.54666 0.02694 0.1826 0.0
C958 C 0.56931 0.02622 0.13558 0.0
C959 C 0.56713 0.01865 0.06795 0.0
H960 H 0.12235 0.52236 0.5481 0.0
H961 H 0.14713 0.56164 0.4722 0.0
H962 H 0.15705 0.56787 0.60468 0.0
H963 H 0.09092 0.53247 0.72562 0.0
H964 H 0.10128 0.51857 0.77797 0.0
H965 H 0.09503 0.51726 0.67707 0.0
H966 H 0.14215 0.50953 0.65639 0.0
H967 H 0.14856 0.5109 0.75705 0.0
H968 H 0.17027 0.51954 0.69004 0.0
H969 H 0.16755 0.56951 0.74383 0.0
H970 H 0.17579 0.56665 0.88144 0.0
H971 H 0.14181 0.52687 0.86959 0.0
C972 C 0.12944 0.53235 0.55865 0.0
C973 C 0.13417 0.54141 0.49811 0.0
C974 C 0.14375 0.55434 0.51623 0.0
C975 C 0.14928 0.55805 0.5918 0.0
C976 C 0.14478 0.54881 0.64937 0.0
C977 C 0.13477 0.53627 0.63395 0.0
C978 C 0.1322 0.52816 0.70643 0.0
C979 C 0.10313 0.52386 0.72272 0.0
C980 C 0.14932 0.51634 0.70219 0.0
C981 C 0.14291 0.53803 0.76475 0.0
C982 C 0.15003 0.54989 0.73043 0.0
C983 C 0.16176 0.56033 0.77143 0.0
C984 C 0.1665 0.5586 0.84938 0.0
C985 C 0.15937 0.54657 0.88589 0.0
C986 C 0.14708 0.53622 0.84312 0.0
H987 H 0.10702 0.70982 0.79631 0.0
H988 H 0.182 0.72628 0.88399 0.0
H989 H 0.19829 0.72967 0.75324 0.0
H990 H 0.13463 0.69289 0.63382 0.0
H991 H 0.10797 0.69634 0.57052 0.0
H992 H 0.102 0.69474 0.67151 0.0
H993 H 0.08346 0.71767 0.67402 0.0
H994 H 0.08925 0.71931 0.57309 0.0
H995 H 0.10337 0.7315 0.63765 0.0
H996 H 0.20629 0.73217 0.61478 0.0
H997 H 0.20501 0.73412 0.47462 0.0
H998 H 0.12575 0.71564 0.47232 0.0
C999 C 0.12693 0.71403 0.7879 0.0
C1000 C 0.14306 0.7179 0.85092 0.0
C1001 C 0.16896 0.72348 0.83723 0.0
C1002 C 0.17856 0.72533 0.76293 0.0
C1003 C 0.16217 0.72149 0.70236 0.0
C1004 C 0.1369 0.71596 0.71365 0.0
C1005 C 0.1232 0.71313 0.63782 0.0
C1006 C 0.11656 0.6984 0.62785 0.0
C1007 C 0.09836 0.72086 0.63022 0.0
C1008 C 0.14464 0.71808 0.58246 0.0
C1009 C 0.16697 0.72279 0.62132 0.0
C1010 C 0.18902 0.72843 0.58363 0.0
C1011 C 0.18812 0.72951 0.50417 0.0
C1012 C 0.16541 0.72496 0.46289 0.0
C1013 C 0.14353 0.71895 0.50251 0.0
H1014 H 0.87368 0.48146 0.52603 0.0
H1015 H 0.9292 0.45162 0.5557 0.0
H1016 H 0.92633 0.44653 0.41706 0.0
H1017 H 0.83234 0.46394 0.38047 0.0
H1018 H 0.82653 0.47883 0.33034 0.0
H1019 H 0.83174 0.47912 0.43193 0.0
H1020 H 0.87005 0.49683 0.41418 0.0
H1021 H 0.86524 0.49647 0.31259 0.0
H1022 H 0.89719 0.49364 0.35195 0.0
H1023 H 0.92085 0.44681 0.27155 0.0
H1024 H 0.90939 0.4505 0.136 0.0
H1025 H 0.85599 0.47956 0.20531 0.0
C1026 C 0.88473 0.47366 0.50324 0.0
C1027 C 0.90157 0.46685 0.5507 0.0
C1028 C 0.91599 0.45678 0.51977 0.0
C1029 C 0.91456 0.45392 0.4413 0.0
C1030 C 0.89827 0.46111 0.39534 0.0
C1031 C 0.88321 0.4706 0.42573 0.0
C1032 C 0.86768 0.47717 0.3647 0.0
C1033 C 0.8378 0.4746 0.37764 0.0
C1034 C 0.87552 0.4919 0.36065 0.0
C1035 C 0.87676 0.47014 0.29466 0.0
C1036 C 0.8945 0.46096 0.3131 0.0
C1037 C 0.90665 0.45383 0.25679 0.0
C1038 C 0.90022 0.45605 0.18001 0.0
C1039 C 0.88163 0.46521 0.16039 0.0
C1040 C 0.86986 0.47231 0.21876 0.0
H1041 H 0.90539 0.31006 0.18786 0.0
H1042 H 0.91562 0.27098 0.10327 0.0
H1043 H 0.91412 0.26255 0.23487 0.0
H1044 H 0.94511 0.30756 0.35905 0.0
H1045 H 0.92364 0.31672 0.41733 0.0
H1046 H 0.92603 0.31988 0.31641 0.0
H1047 H 0.87533 0.31565 0.30339 0.0
H1048 H 0.87278 0.31252 0.40426 0.0
H1049 H 0.85972 0.30045 0.33735 0.0
H1050 H 0.91167 0.25826 0.37417 0.0
H1051 H 0.90649 0.25808 0.5134 0.0
H1052 H 0.89683 0.29981 0.51083 0.0
C1053 C 0.90754 0.29975 0.19718 0.0
C1054 C 0.91057 0.29117 0.13501 0.0
C1055 C 0.91293 0.27771 0.14962 0.0
C1056 C 0.9123 0.27285 0.22429 0.0
C1057 C 0.90924 0.28154 0.28408 0.0
C1058 C 0.90678 0.29469 0.27162 0.0
C1059 C 0.90294 0.30181 0.34635 0.0
C1060 C 0.92579 0.3121 0.3606 0.0
C1061 C 0.87609 0.30797 0.3479 0.0
C1062 C 0.90359 0.29057 0.40259 0.0
C1063 C 0.90739 0.279 0.36515 0.0
C1064 C 0.90854 0.26724 0.40411 0.0
C1065 C 0.90537 0.26724 0.48337 0.0
C1066 C 0.90092 0.2789 0.52341 0.0
C1067 C 0.90035 0.29076 0.48217 0.0
H1068 H 0.15368 0.05566 0.32729 0.0
H1069 H 0.16348 0.01482 0.37304 0.0
H1070 H 0.15667 0.00978 0.2354 0.0
H1071 H 0.10124 0.05011 0.18969 0.0
H1072 H 0.11215 0.06397 0.13195 0.0
H1073 H 0.11854 0.06411 0.2329 0.0
H1074 H 0.16856 0.06876 0.20642 0.0
H1075 H 0.16235 0.06854 0.10537 0.0
H1076 H 0.1855 0.05785 0.14573 0.0
H1077 H 0.15127 0.00979 0.08942 0.0
H1078 H 0.14182 0.0143 0.95307 0.0
H1079 H 0.1322 0.05483 1.00799 0.0
C1080 C 0.15442 0.04567 0.30801 0.0
C1081 C 0.15938 0.03561 0.3599 0.0
C1082 C 0.15972 0.02261 0.33357 0.0
C1083 C 0.15602 0.01971 0.25571 0.0
C1084 C 0.15148 0.02992 0.20559 0.0
C1085 C 0.15018 0.0426 0.23121 0.0
C1086 C 0.14388 0.05176 0.16708 0.0
C1087 C 0.11738 0.05784 0.18126 0.0
C1088 C 0.16642 0.06235 0.15548 0.0
C1089 C 0.14206 0.04231 0.10093 0.0
C1090 C 0.14687 0.02978 0.1237 0.0
C1091 C 0.14716 0.01954 0.07132 0.0
C1092 C 0.14193 0.02217 0.99417 0.0
C1093 C 0.136 0.03485 0.97072 0.0
C1094 C 0.13627 0.04501 0.02488 0.0
H1095 H 0.10527 0.22986 0.28333 0.0
H1096 H 0.16074 0.20156 0.34887 0.0
H1097 H 0.17336 0.19896 0.21318 0.0
H1098 H 0.08404 0.2154 0.10423 0.0
H1099 H 0.08284 0.23086 0.05591 0.0
H1100 H 0.07721 0.22985 0.15721 0.0
H1101 H 0.11476 0.24778 0.17977 0.0
H1102 H 0.12036 0.24892 0.07858 0.0
H1103 H 0.1472 0.24565 0.1416 0.0
H1104 H 0.1788 0.19919 0.06858 0.0
H1105 H 0.18097 0.2044 0.93002 0.0
H1106 H 0.12469 0.23382 0.96214 0.0
C1107 C 0.11991 0.22306 0.2687 0.0
C1108 C 0.1319 0.21579 0.32585 0.0
C1109 C 0.15142 0.20718 0.30543 0.0
C1110 C 0.15853 0.20561 0.22869 0.0
C1111 C 0.14623 0.21289 0.17342 0.0
C1112 C 0.12765 0.22162 0.19275 0.0
C1113 C 0.11866 0.22894 0.1235 0.0
C1114 C 0.08892 0.22609 0.1094 0.0
C1115 C 0.12568 0.24369 0.13135 0.0
C1116 C 0.13499 0.22297 0.06204 0.0
C1117 C 0.15043 0.21356 0.09155 0.0
C1118 C 0.16688 0.20659 0.04502 0.0
C1119 C 0.16793 0.20952 0.96668 0.0
C1120 C 0.15302 0.21947 0.93643 0.0
C1121 C 0.13624 0.22618 0.98458 0.0
H1122 H 0.87319 0.98524 0.04757 0.0
H1123 H 0.9189 0.95182 0.08967 0.0
H1124 H 0.91642 0.9461 0.95195 0.0
H1125 H 0.82887 0.96906 0.90929 0.0
H1126 H 0.82651 0.9836 0.85257 0.0
H1127 H 0.83237 0.98493 0.95359 0.0
H1128 H 0.87448 0.99996 0.92773 0.0
H1129 H 0.86885 0.99862 0.82665 0.0
H1130 H 0.89989 0.99433 0.86637 0.0
H1131 H 0.9115 0.9453 0.807 0.0
H1132 H 0.89958 0.94768 0.67049 0.0
H1133 H 0.85378 0.98047 0.72726 0.0
C1134 C 0.88255 0.9767 0.02741 0.0
C1135 C 0.89643 0.96898 0.07815 0.0
C1136 C 0.90821 0.95778 0.05093 0.0
C1137 C 0.90697 0.95453 0.97309 0.0
C1138 C 0.89338 0.96247 0.92403 0.0
C1139 C 0.88093 0.97317 0.95055 0.0
C1140 C 0.86684 0.97988 0.88704 0.0
C1141 C 0.83687 0.97933 0.90149 0.0
C1142 C 0.87821 0.99404 0.87634 0.0
C1143 C 0.87356 0.97141 0.8202 0.0
C1144 C 0.88919 0.96152 0.84228 0.0
C1145 C 0.89896 0.95289 0.78936 0.0
C1146 C 0.89225 0.95433 0.71219 0.0
C1147 C 0.87558 0.96414 0.68922 0.0
C1148 C 0.8662 0.97276 0.74397 0.0
H1149 H 0.9034 0.79959 0.05209 0.0
H1150 H 0.90574 0.75744 0.05914 0.0
H1151 H 0.91412 0.7571 0.9209 0.0
H1152 H 0.86954 0.80109 0.87545 0.0
H1153 H 0.88751 0.8157 0.84164 0.0
H1154 H 0.8836 0.81289 0.94247 0.0
H1155 H 0.93437 0.81533 0.96009 0.0
H1156 H 0.93843 0.8182 0.85925 0.0
H1157 H 0.95506 0.80528 0.90474 0.0
H1158 H 0.91966 0.76096 0.78146 0.0
H1159 H 0.92296 0.7689 0.64904 0.0
H1160 H 0.91692 0.80864 0.72859 0.0
C1161 C 0.90616 0.79035 0.02453 0.0
C1162 C 0.90378 0.77853 0.06652 0.0
C1163 C 0.90712 0.76659 0.02819 0.0
C1164 C 0.91204 0.7663 0.94964 0.0
C1165 C 0.91366 0.77804 0.90958 0.0
C1166 C 0.91097 0.78987 0.94549 0.0
C1167 C 0.91256 0.80098 0.88783 0.0
C1168 C 0.88677 0.80808 0.88681 0.0
C1169 C 0.93653 0.81051 0.90395 0.0
C1170 C 0.91619 0.79349 0.81416 0.0
C1171 C 0.91687 0.78028 0.82834 0.0
C1172 C 0.91927 0.7713 0.76964 0.0
C1173 C 0.92094 0.77591 0.69437 0.0
C1174 C 0.92017 0.7894 0.67782 0.0
C1175 C 0.91794 0.79829 0.73906 0.0
H1176 H 0.64403 0.54966 0.99738 0.0
H1177 H 0.64701 0.5075 0.98932 0.0
H1178 H 0.65449 0.50697 0.12747 0.0
H1179 H 0.69556 0.55495 0.14447 0.0
H1180 H 0.67916 0.5679 0.19039 0.0
H1181 H 0.67504 0.56517 0.08951 0.0
H1182 H 0.62426 0.56291 0.10744 0.0
H1183 H 0.62823 0.56557 0.20834 0.0
H1184 H 0.61002 0.55107 0.1742 0.0
H1185 H 0.65874 0.51055 0.26678 0.0
H1186 H 0.66222 0.51835 0.39958 0.0
H1187 H 0.65809 0.55826 0.32093 0.0
C1188 C 0.64665 0.54037 0.02468 0.0
C1189 C 0.64452 0.5286 0.98232 0.0
C1190 C 0.6479 0.51662 0.02039 0.0
C1191 C 0.65237 0.51621 0.09899 0.0
C1192 C 0.6537 0.52788 0.13932 0.0
C1193 C 0.65122 0.53977 0.10371 0.0
C1194 C 0.65301 0.55081 0.16154 0.0
C1195 C 0.67713 0.56026 0.14551 0.0
C1196 C 0.62735 0.55801 0.16294 0.0
C1197 C 0.6565 0.5432 0.23489 0.0
C1198 C 0.6568 0.52999 0.22047 0.0
C1199 C 0.65876 0.52089 0.27885 0.0
C1200 C 0.66054 0.52539 0.35416 0.0
C1201 C 0.66049 0.53889 0.37069 0.0
C1202 C 0.65857 0.5479 0.30995 0.0
H1203 H 0.67194 0.73933 0.05833 0.0
H1204 H 0.64832 0.69999 0.98181 0.0
H1205 H 0.6388 0.6935 0.11407 0.0
H1206 H 0.70406 0.7291 0.23499 0.0
H1207 H 0.69343 0.7428 0.28847 0.0
H1208 H 0.69944 0.74437 0.18751 0.0
H1209 H 0.65206 0.75181 0.16816 0.0
H1210 H 0.64587 0.75021 0.26889 0.0
H1211 H 0.62425 0.74156 0.20189 0.0
H1212 H 0.62818 0.69159 0.25285 0.0
H1213 H 0.61993 0.69415 0.39077 0.0
H1214 H 0.65323 0.73406 0.38052 0.0
C1215 C 0.66519 0.72928 0.06884 0.0
C1216 C 0.66059 0.72028 1.00809 0.0
C1217 C 0.65151 0.70725 0.02596 0.0
C1218 C 0.64622 0.70339 0.10143 0.0
C1219 C 0.6505 0.71256 0.15923 0.0
C1220 C 0.66013 0.72519 0.14414 0.0
C1221 C 0.6626 0.73317 0.21702 0.0
C1222 C 0.69161 0.73762 0.23292 0.0
C1223 C 0.64515 0.74488 0.21376 0.0
C1224 C 0.65225 0.72312 0.27507 0.0
C1225 C 0.64537 0.7113 0.24028 0.0
C1226 C 0.63384 0.70073 0.28088 0.0
C1227 C 0.62911 0.70228 0.35896 0.0
C1228 C 0.63611 0.71426 0.39598 0.0
C1229 C 0.64814 0.72475 0.3536 0.0
H1230 H 0.36323 0.46761 0.05925 0.0
H1231 H 0.44851 0.46842 0.06705 0.0
H1232 H 0.44988 0.46436 0.9278 0.0
H1233 H 0.35293 0.44272 0.90644 0.0
H1234 H 0.3265 0.45103 0.86315 0.0
H1235 H 0.33211 0.4523 0.9644 0.0
H1236 H 0.33603 0.47751 0.95309 0.0
H1237 H 0.33062 0.47633 0.85189 0.0
H1238 H 0.3598 0.4852 0.88803 0.0
H1239 H 0.44212 0.46172 0.78787 0.0
H1240 H 0.42626 0.46109 0.65547 0.0
H1241 H 0.34564 0.46318 0.73587 0.0
C1242 C 0.38202 0.46652 0.03145 0.0
C1243 C 0.40581 0.46797 0.07321 0.0
C1244 C 0.43021 0.46705 0.03547 0.0
C1245 C 0.4311 0.46478 0.95672 0.0
C1246 C 0.40735 0.46359 0.91655 0.0
C1247 C 0.38323 0.46443 0.95246 0.0
C1248 C 0.36084 0.46389 0.8949 0.0
C1249 C 0.34198 0.45176 0.90801 0.0
C1250 C 0.34596 0.47649 0.89713 0.0
C1251 C 0.37617 0.46282 0.82106 0.0
C1252 C 0.40293 0.46253 0.8351 0.0
C1253 C 0.4212 0.46192 0.77618 0.0
C1254 C 0.41197 0.46169 0.70087 0.0
C1255 C 0.38465 0.4622 0.68454 0.0
C1256 C 0.36658 0.46265 0.74598 0.0
H1257 H 0.42913 0.30414 0.04508 0.0
H1258 H 0.36268 0.27762 0.1073 0.0
H1259 H 0.35663 0.2714 0.9713 0.0
H1260 H 0.40373 0.31512 0.86594 0.0
H1261 H 0.43542 0.31559 0.81915 0.0
H1262 H 0.43358 0.31822 0.92047 0.0
H1263 H 0.46437 0.2994 0.94382 0.0
H1264 H 0.46644 0.29678 0.84263 0.0
H1265 H 0.45565 0.28347 0.90466 0.0
H1266 H 0.35745 0.26876 0.8254 0.0
H1267 H 0.36862 0.26793 0.68727 0.0
H1268 H 0.43603 0.29516 0.72519 0.0
C1269 C 0.41318 0.2971 0.02993 0.0
C1270 C 0.39618 0.29144 0.08632 0.0
C1271 C 0.37591 0.28203 0.06471 0.0
C1272 C 0.37225 0.27853 0.98769 0.0
C1273 C 0.38926 0.28441 0.93327 0.0
C1274 C 0.40957 0.29336 0.95385 0.0
C1275 C 0.42606 0.29781 0.88564 0.0
C1276 C 0.4246 0.31256 0.87202 0.0
C1277 C 0.45483 0.29414 0.89475 0.0
C1278 C 0.41201 0.28994 0.82326 0.0
C1279 C 0.39052 0.28243 0.85123 0.0
C1280 C 0.37433 0.27455 0.80319 0.0
C1281 C 0.38066 0.27417 0.72505 0.0
C1282 C 0.40321 0.28141 0.69653 0.0
C1283 C 0.41881 0.28947 0.7462 0.0
H1284 H 0.67537 0.05404 0.47392 0.0
H1285 H 0.60252 0.03119 0.42712 0.0
H1286 H 0.59894 0.025 0.56418 0.0
H1287 H 0.70044 0.03135 0.61148 0.0
H1288 H 0.71579 0.04419 0.66951 0.0
H1289 H 0.71208 0.04662 0.56848 0.0
H1290 H 0.68716 0.06743 0.59483 0.0
H1291 H 0.69062 0.065 0.69589 0.0
H1292 H 0.6583 0.06634 0.65511 0.0
H1293 H 0.60228 0.02288 0.71042 0.0
H1294 H 0.615 0.0227 0.8473 0.0
H1295 H 0.68724 0.04569 0.79365 0.0
C1296 C 0.65873 0.0477 0.49276 0.0
C1297 C 0.63905 0.04315 0.44065 0.0
C1298 C 0.61774 0.03472 0.46658 0.0
C1299 C 0.61555 0.03124 0.54418 0.0
C1300 C 0.63515 0.03608 0.59457 0.0
C1301 C 0.65659 0.04393 0.56933 0.0
C1302 C 0.67542 0.04759 0.63386 0.0
C1303 C 0.70254 0.04211 0.62 0.0
C1304 C 0.67801 0.06247 0.64559 0.0
C1305 C 0.66112 0.04075 0.69988 0.0
C1306 C 0.63776 0.03427 0.6766 0.0
C1307 C 0.62072 0.02778 0.72885 0.0
C1308 C 0.62797 0.02777 0.80639 0.0
C1309 C 0.65222 0.03402 0.83063 0.0
C1310 C 0.66883 0.04061 0.77642 0.0
H1311 H 0.62814 0.20404 0.76443 0.0
H1312 H 0.62071 0.24482 0.81704 0.0
H1313 H 0.62696 0.25044 0.67989 0.0
H1314 H 0.6799 0.20954 0.62686 0.0
H1315 H 0.66821 0.19611 0.56711 0.0
H1316 H 0.66186 0.19554 0.66806 0.0
H1317 H 0.61167 0.19173 0.64168 0.0
H1318 H 0.61784 0.19237 0.54059 0.0
H1319 H 0.59536 0.20318 0.58297 0.0
H1320 H 0.63251 0.25112 0.53367 0.0
H1321 H 0.64257 0.2472 0.39692 0.0
H1322 H 0.64931 0.20621 0.44553 0.0
C1323 C 0.62762 0.21413 0.7468 0.0
C1324 C 0.62358 0.22401 0.8006 0.0
C1325 C 0.6237 0.23716 0.77619 0.0
C1326 C 0.62709 0.24039 0.69859 0.0
C1327 C 0.63078 0.23036 0.64665 0.0
C1328 C 0.63149 0.21752 0.67026 0.0
C1329 C 0.63724 0.20859 0.60465 0.0
C1330 C 0.66335 0.20207 0.61745 0.0
C1331 C 0.61415 0.19836 0.59173 0.0
C1332 C 0.63955 0.21836 0.54004 0.0
C1333 C 0.63538 0.23085 0.56473 0.0
C1334 C 0.63601 0.24139 0.51405 0.0
C1335 C 0.64158 0.23911 0.43667 0.0
C1336 C 0.6469 0.22646 0.41147 0.0
C1337 C 0.64559 0.21599 0.46383 0.0
H1338 H 0.37032 0.98668 0.57045 0.0
H1339 H 0.42877 0.95861 0.61145 0.0
H1340 H 0.42814 0.95278 0.47387 0.0
H1341 H 0.33208 0.96667 0.43403 0.0
H1342 H 0.32383 0.98042 0.37681 0.0
H1343 H 0.32957 0.98245 0.47753 0.0
H1344 H 0.36547 1.00097 0.44954 0.0
H1345 H 0.35994 0.99896 0.34873 0.0
H1346 H 0.39263 0.99782 0.38732 0.0
H1347 H 0.42314 0.95139 0.32949 0.0
H1348 H 0.40998 0.95238 0.19325 0.0
H1349 H 0.3516 0.97972 0.25002 0.0
C1350 C 0.38291 0.97931 0.55004 0.0
C1351 C 0.39981 0.97314 0.60053 0.0
C1352 C 0.41578 0.96339 0.57296 0.0
C1353 C 0.41558 0.96009 0.49518 0.0
C1354 C 0.39883 0.96645 0.44643 0.0
C1355 C 0.38241 0.97567 0.47316 0.0
C1356 C 0.3655 0.98072 0.40985 0.0
C1357 C 0.336 0.97736 0.4255 0.0
C1358 C 0.37124 0.99549 0.39819 0.0
C1359 C 0.37518 0.97304 0.34294 0.0
C1360 C 0.3947 0.965 0.36488 0.0
C1361 C 0.40761 0.9575 0.31199 0.0
C1362 C 0.40016 0.95814 0.23499 0.0
C1363 C 0.37966 0.96599 0.21213 0.0
C1364 C 0.36704 0.9735 0.26679 0.0
H1365 H 0.40345 0.77861 0.17838 0.0
H1366 H 0.43071 0.81943 0.16372 0.0
H1367 H 0.42192 0.82214 0.3011 0.0
H1368 H 0.3514 0.78233 0.3215 0.0
H1369 H 0.35798 0.76745 0.37062 0.0
H1370 H 0.36423 0.76896 0.26974 0.0
H1371 H 0.41272 0.76329 0.29133 0.0
H1372 H 0.40661 0.76178 0.39214 0.0
H1373 H 0.43306 0.77282 0.3577 0.0
H1374 H 0.41153 0.82033 0.44023 0.0
H1375 H 0.40226 0.81397 0.57316 0.0
H1376 H 0.38416 0.77391 0.50003 0.0
C1377 C 0.40713 0.78813 0.20422 0.0
C1378 C 0.4177 0.79883 0.16075 0.0
C1379 C 0.42277 0.81111 0.19637 0.0
C1380 C 0.4177 0.81276 0.27416 0.0
C1381 C 0.40769 0.80199 0.31588 0.0
C1382 C 0.40255 0.7899 0.28241 0.0
C1383 C 0.39343 0.77977 0.34148 0.0
C1384 C 0.36507 0.7743 0.32483 0.0
C1385 C 0.4126 0.76877 0.34591 0.0
C1386 C 0.39459 0.78804 0.41325 0.0
C1387 C 0.40253 0.80085 0.39695 0.0
C1388 C 0.40537 0.8103 0.45381 0.0
C1389 C 0.40023 0.80654 0.52956 0.0
C1390 C 0.39268 0.79337 0.54847 0.0
C1391 C 0.38964 0.78408 0.48869 0.0
H1392 H 0.13658 0.60344 0.25337 0.0
H1393 H 0.13315 0.59444 0.01194 0.0
H1394 H 0.14287 0.61785 0.98191 0.0
H1395 H 0.10717 0.63477 0.24186 0.0
H1396 H 0.12831 0.64196 0.31517 0.0
H1397 H 0.11959 0.62466 0.31612 0.0
H1398 H 0.16931 0.62019 0.31795 0.0
H1399 H 0.17818 0.63747 0.31559 0.0
H1400 H 0.19072 0.62694 0.24379 0.0
H1401 H 0.15548 0.64237 0.97926 0.0
H1402 H 0.16479 0.66596 1.00412 0.0
H1403 H 0.16116 0.65844 0.2474 0.0
C1404 C 0.1376 0.6064 0.19411 0.0
C1405 C 0.13403 0.5971 0.13499 0.0
C1406 C 0.1354 0.6014 0.05821 0.0
C1407 C 0.14122 0.61466 0.04063 0.0
C1408 C 0.14551 0.6235 0.10047 0.0
C1409 C 0.14339 0.61954 0.17567 0.0
C1410 C 0.149 0.63088 0.22966 0.0
C1411 C 0.12456 0.6332 0.27856 0.0
C1412 C 0.17324 0.62874 0.27968 0.0
C1413 C 0.15472 0.64186 0.17325 0.0
C1414 C 0.15276 0.63744 0.09897 0.0
C1415 C 0.15705 0.64591 0.03726 0.0
C1416 C 0.16264 0.65928 0.05192 0.0
C1417 C 0.16382 0.66407 0.12771 0.0
C1418 C 0.16033 0.65512 0.18883 0.0
H1419 H 0.8982 0.40687 0.94028 0.0
H1420 H 0.92847 0.41831 0.71722 0.0
H1421 H 0.92253 0.39535 0.67424 0.0
H1422 H 0.92898 0.37519 0.9464 0.0
H1423 H 0.9013 0.36723 0.99627 0.0
H1424 H 0.90933 0.38444 1.00969 0.0
H1425 H 0.86155 0.38909 0.97103 0.0
H1426 H 0.85359 0.37194 0.95546 0.0
H1427 H 0.84891 0.38349 0.87995 0.0
H1428 H 0.90885 0.37178 0.65182 0.0
H1429 H 0.89709 0.34813 0.65764 0.0
H1430 H 0.87837 0.35149 0.89807 0.0
C1431 C 0.90417 0.40444 0.88301 0.0
C1432 C 0.91401 0.4143 0.83207 0.0
C1433 C 0.92136 0.41085 0.75735 0.0
C1434 C 0.91773 0.39788 0.73225 0.0
C1435 C 0.90705 0.38848 0.78298 0.0
C1436 C 0.90107 0.39151 0.85742 0.0
C1437 C 0.89026 0.37949 0.90059 0.0
C1438 C 0.90857 0.3764 0.96716 0.0
C1439 C 0.86189 0.38111 0.92838 0.0
C1440 C 0.89079 0.36925 0.83846 0.0
C1441 C 0.90018 0.37472 0.77085 0.0
C1442 C 0.90195 0.36734 0.70479 0.0
C1443 C 0.89515 0.35391 0.7087 0.0
C1444 C 0.88714 0.34788 0.77853 0.0
C1445 C 0.88422 0.35577 0.84371 0.0
H1446 H 0.12579 0.1036 0.70719 0.0
H1447 H 0.14 0.09404 0.47056 0.0
H1448 H 0.15028 0.11749 0.44248 0.0
H1449 H 0.09647 0.13445 0.67401 0.0
H1450 H 0.11191 0.14198 0.75685 0.0
H1451 H 0.10397 0.12462 0.75547 0.0
H1452 H 0.15282 0.12072 0.78642 0.0
H1453 H 0.161 0.13805 0.78653 0.0
H1454 H 0.17863 0.12758 0.72494 0.0
H1455 H 0.16142 0.14225 0.44303 0.0
H1456 H 0.16788 0.16596 0.46959 0.0
H1457 H 0.14833 0.15859 0.70714 0.0
C1458 C 0.13082 0.10642 0.64921 0.0
C1459 C 0.13205 0.09696 0.59106 0.0
C1460 C 0.13853 0.10111 0.51586 0.0
C1461 C 0.14469 0.1144 0.49958 0.0
C1462 C 0.14424 0.1234 0.55908 0.0
C1463 C 0.13714 0.11956 0.6322 0.0
C1464 C 0.1385 0.13101 0.68659 0.0
C1465 C 0.11108 0.13314 0.72017 0.0
C1466 C 0.15896 0.12923 0.74983 0.0
C1467 C 0.14753 0.14194 0.63288 0.0
C1468 C 0.15084 0.13742 0.55956 0.0
C1469 C 0.15886 0.14587 0.50029 0.0
C1470 C 0.16278 0.15931 0.51605 0.0
C1471 C 0.15861 0.16415 0.59042 0.0
C1472 C 0.1515 0.15523 0.64956 0.0
H1473 H 0.89888 0.9054 0.47074 0.0
H1474 H 0.88063 0.91381 0.23476 0.0
H1475 H 0.87048 0.89041 0.21085 0.0
H1476 H 0.93039 0.8747 0.42901 0.0
H1477 H 0.91781 0.86671 0.51434 0.0
H1478 H 0.92424 0.88418 0.51289 0.0
H1479 H 0.876 0.88689 0.55547 0.0
H1480 H 0.86926 0.86943 0.55517 0.0
H1481 H 0.84915 0.87968 0.49918 0.0
H1482 H 0.85968 0.86671 0.21257 0.0
H1483 H 0.85658 0.8429 0.23367 0.0
H1484 H 0.88323 0.84883 0.46661 0.0
C1485 C 0.8933 0.90224 0.4138 0.0
C1486 C 0.89024 0.91144 0.35475 0.0
C1487 C 0.88275 0.90695 0.28103 0.0
C1488 C 0.87683 0.89369 0.26691 0.0
C1489 C 0.8788 0.88493 0.32683 0.0
C1490 C 0.88747 0.88889 0.39833 0.0
C1491 C 0.88848 0.87721 0.45149 0.0
C1492 C 0.91692 0.8756 0.47851 0.0
C1493 C 0.8696 0.87838 0.51935 0.0
C1494 C 0.8789 0.86616 0.39855 0.0
C1495 C 0.87312 0.87095 0.32728 0.0
C1496 C 0.86422 0.86281 0.26801 0.0
C1497 C 0.8623 0.84932 0.28065 0.0
C1498 C 0.86938 0.84407 0.35181 0.0
C1499 C 0.87713 0.85262 0.41222 0.0
H1500 H 0.68377 0.65674 0.68976 0.0
H1501 H 0.60596 0.66736 0.62067 0.0
H1502 H 0.59138 0.64409 0.6071 0.0
H1503 H 0.68556 0.62744 0.5633 0.0
H1504 H 0.70252 0.61832 0.63381 0.0
H1505 H 0.70775 0.63585 0.6298 0.0
H1506 H 0.69435 0.63721 0.77196 0.0
H1507 H 0.68868 0.61973 0.77609 0.0
H1508 H 0.66268 0.63003 0.80228 0.0
H1509 H 0.58355 0.61987 0.61535 0.0
H1510 H 0.58405 0.5961 0.63532 0.0
H1511 H 0.66742 0.60084 0.69334 0.0
C1512 C 0.66395 0.65411 0.66968 0.0
C1513 C 0.64596 0.6638 0.65616 0.0
C1514 C 0.61998 0.66005 0.63141 0.0
C1515 C 0.61152 0.64687 0.62352 0.0
C1516 C 0.62934 0.63751 0.63998 0.0
C1517 C 0.65513 0.64092 0.66141 0.0
C1518 C 0.66976 0.62885 0.67918 0.0
C1519 C 0.69276 0.62754 0.62317 0.0
C1520 C 0.67943 0.62897 0.76231 0.0
C1521 C 0.64797 0.61822 0.66642 0.0
C1522 C 0.62486 0.62343 0.64359 0.0
C1523 C 0.60168 0.61563 0.63188 0.0
C1524 C 0.60218 0.60211 0.64321 0.0
C1525 C 0.62573 0.59646 0.6659 0.0
C1526 C 0.64891 0.60474 0.67715 0.0
H1527 H 0.40091 0.40448 0.32115 0.0
H1528 H 0.42504 0.41658 0.54924 0.0
H1529 H 0.42201 0.39355 0.59051 0.0
H1530 H 0.35237 0.37985 0.38003 0.0
H1531 H 0.35899 0.36878 0.30367 0.0
H1532 H 0.36487 0.38613 0.29009 0.0
H1533 H 0.41349 0.38299 0.25273 0.0
H1534 H 0.40765 0.36562 0.26509 0.0
H1535 H 0.43406 0.37431 0.31641 0.0
H1536 H 0.41542 0.3691 0.60784 0.0
H1537 H 0.40759 0.34509 0.59773 0.0
H1538 H 0.38496 0.34915 0.36116 0.0
C1539 C 0.40562 0.40234 0.37983 0.0
C1540 C 0.41335 0.41245 0.43168 0.0
C1541 C 0.41961 0.40908 0.50772 0.0
C1542 C 0.41764 0.39601 0.53206 0.0
C1543 C 0.40925 0.38637 0.47994 0.0
C1544 C 0.40347 0.38937 0.40529 0.0
C1545 C 0.39444 0.37723 0.36088 0.0
C1546 C 0.36597 0.37805 0.33198 0.0
C1547 C 0.41355 0.3749 0.29489 0.0
C1548 C 0.39594 0.36691 0.42229 0.0
C1549 C 0.40462 0.37238 0.49053 0.0
C1550 C 0.40847 0.36474 0.55483 0.0
C1551 C 0.40388 0.35114 0.54873 0.0
C1552 C 0.39527 0.34533 0.47912 0.0
C1553 C 0.39089 0.35337 0.41556 0.0
H1554 H 0.67693 0.15819 0.13316 0.0
H1555 H 0.64341 0.16792 0.91492 0.0
H1556 H 0.6335 0.14437 0.88855 0.0
H1557 H 0.70647 0.12805 0.07 0.0
H1558 H 0.69925 0.11997 0.1596 0.0
H1559 H 0.70554 0.13744 0.15663 0.0
H1560 H 0.66062 0.14014 0.22345 0.0
H1561 H 0.65392 0.1227 0.22513 0.0
H1562 H 0.63074 0.13296 0.18105 0.0
H1563 H 0.62293 0.11957 0.89364 0.0
H1564 H 0.61847 0.09576 0.92209 0.0
H1565 H 0.65998 0.10277 0.1353 0.0
C1566 C 0.66812 0.15532 0.079 0.0
C1567 C 0.66112 0.16482 0.02574 0.0
C1568 C 0.64934 0.16076 0.95582 0.0
C1569 C 0.6434 0.14742 0.94078 0.0
C1570 C 0.64968 0.1383 0.99592 0.0
C1571 C 0.66232 0.14211 0.06291 0.0
C1572 C 0.66657 0.13052 0.11374 0.0
C1573 C 0.69622 0.1289 0.12565 0.0
C1574 C 0.65209 0.13165 0.19035 0.0
C1575 C 0.65397 0.1196 0.06569 0.0
C1576 C 0.64415 0.12422 0.99808 0.0
C1577 C 0.63084 0.11585 0.94602 0.0
C1578 C 0.62817 0.10239 0.96279 0.0
C1579 C 0.63897 0.09751 0.0306 0.0
C1580 C 0.65171 0.10628 0.08276 0.0
H1581 H 0.42568 0.85428 0.88789 0.0
H1582 H 0.34439 0.84714 0.96418 0.0
H1583 H 0.34326 0.87035 0.99812 0.0
H1584 H 0.44638 0.87985 0.02323 0.0
H1585 H 0.46539 0.88928 0.95319 0.0
H1586 H 0.4614 0.87176 0.94475 0.0
H1587 H 0.44244 0.87401 0.8086 0.0
H1588 H 0.44666 0.8915 0.8163 0.0
H1589 H 0.41464 0.88382 0.7939 0.0
H1590 H 0.34958 0.89446 0.01572 0.0
H1591 H 0.36097 0.91809 1.00238 0.0
H1592 H 0.43675 0.91009 0.90483 0.0
C1593 C 0.40746 0.85748 0.91121 0.0
C1594 C 0.38511 0.84864 0.92336 0.0
C1595 C 0.36203 0.85348 0.9556 0.0
C1596 C 0.36114 0.86672 0.97496 0.0
C1597 C 0.38341 0.87509 0.96137 0.0
C1598 C 0.40604 0.8707 0.9294 0.0
C1599 C 0.42631 0.88193 0.91361 0.0
C1600 C 0.45135 0.88062 0.96157 0.0
C1601 C 0.43288 0.88287 0.82803 0.0
C1602 C 0.41127 0.8934 0.93995 0.0
C1603 C 0.3868 0.88916 0.96895 0.0
C1604 C 0.36873 0.89787 0.99372 0.0
C1605 C 0.3754 0.91126 0.98611 0.0
C1606 C 0.39979 0.91585 0.95318 0.0
C1607 C 0.41825 0.90681 0.93166 0.0
loop_
_geom_bond_atom_site_label_1
_geom_bond_atom_site_label_2
_geom_bond_distance
_geom_bond_site_symmetry_2
_ccdc_geom_bond_type
C0 C1 1.351 . S
C0 N3 1.368 1_556 S
C0 H5 0.931 1_556 S
C1 C0 1.351 . S
C1 N2 1.373 . S
C1 H29 0.930 . S
N2 C1 1.373 . S
N2 C4 1.340 . S
N3 C0 1.368 1_554 S
N3 C4 1.321 1_554 S
N3 Co6 2.135 . S
C4 N2 1.340 . S
C4 N3 1.321 1_556 S
C4 H28 0.930 . S
H5 C0 0.931 1_554 S
Co6 N3 2.135 . S
Co6 N9 2.121 . S
Co6 O14 2.055 . S
Co6 O17 2.039 . S
Co6 N20 2.140 . S
C7 O8 1.227 . S
C7 O17 1.265 . S
O8 C7 1.227 . S
N9 Co6 2.121 . S
N9 C11 1.375 . S
N9 C12 1.313 . S
C10 C11 1.338 . S
C10 N13 1.377 . S
C10 H30 0.930 . S
C11 N9 1.375 . S
C11 C10 1.338 . S
C11 H15 0.931 . S
C12 N9 1.313 . S
C12 N13 1.344 . S
C12 H16 0.930 . S
N13 C10 1.377 . S
N13 C12 1.344 . S
O14 Co6 2.055 . S
O14 C18 1.253 . S
H15 C11 0.931 . S
H16 C12 0.930 . S
O17 Co6 2.039 . S
O17 C7 1.265 . S
C18 O14 1.253 . S
C18 O19 1.227 . S
O19 C18 1.227 . S
N20 Co6 2.140 . S
N20 C23 1.346 . S
N20 C24 1.345 . S
C21 C22 1.387 . S
C21 C25 1.391 . S
C22 C21 1.387 . S
C22 C23 1.369 . S
C22 H31 0.929 . S
C23 N20 1.346 . S
C23 C22 1.369 . S
C23 H26 0.928 . S
C24 N20 1.345 . S
C24 C25 1.371 . S
C24 H27 0.931 . S
C25 C21 1.391 . S
C25 C24 1.371 . S
C25 H32 0.930 . S
H26 C23 0.928 . S
H27 C24 0.931 . S
H28 C4 0.930 . S
H29 C1 0.930 . S
H30 C10 0.930 . S
H31 C22 0.929 . S
H32 C25 0.930 . S
C33 C34 1.351 . S
C33 N36 1.368 1_556 S
C33 H38 0.931 1_556 S
C34 C33 1.351 . S
C34 N35 1.373 . S
C34 H62 0.930 . S
N35 C34 1.373 . S
N35 C37 1.340 . S
N36 C33 1.368 1_554 S
N36 C37 1.321 1_554 S
N36 Co39 2.135 . S
C37 N35 1.340 . S
C37 N36 1.321 1_556 S
C37 H61 0.930 . S
H38 C33 0.931 1_554 S
Co39 N36 2.135 . S
Co39 N42 2.121 . S
Co39 O47 2.055 . S
Co39 O50 2.039 . S
Co39 N53 2.140 . S
C40 O41 1.227 . S
C40 O50 1.265 . S
O41 C40 1.227 . S
N42 Co39 2.121 . S
N42 C44 1.375 . S
N42 C45 1.313 . S
C43 C44 1.338 . S
C43 N46 1.377 . S
C43 H63 0.930 . S
C44 N42 1.375 . S
C44 C43 1.338 . S
C44 H48 0.931 . S
C45 N42 1.313 . S
C45 N46 1.344 . S
C45 H49 0.930 . S
N46 C43 1.377 . S
N46 C45 1.344 . S
O47 Co39 2.055 . S
O47 C51 1.253 . S
H48 C44 0.931 . S
H49 C45 0.930 . S
O50 Co39 2.039 . S
O50 C40 1.265 . S
C51 O47 1.253 . S
C51 O52 1.227 . S
O52 C51 1.227 . S
N53 Co39 2.140 . S
N53 C56 1.346 . S
N53 C57 1.345 . S
C54 C55 1.387 . S
C54 C58 1.391 . S
C55 C54 1.387 . S
C55 C56 1.369 . S
C55 H64 0.929 . S
C56 N53 1.346 . S
C56 C55 1.369 . S
C56 H59 0.928 . S
C57 N53 1.345 . S
C57 C58 1.371 . S
C57 H60 0.931 . S
C58 C54 1.391 . S
C58 C57 1.371 . S
C58 H65 0.930 . S
H59 C56 0.928 . S
H60 C57 0.931 . S
H61 C37 0.930 . S
H62 C34 0.930 . S
H63 C43 0.930 . S
H64 C55 0.929 . S
H65 C58 0.930 . S
C66 C67 1.351 . S
C66 N69 1.368 1_554 S
C66 H71 0.931 1_554 S
C67 C66 1.351 . S
C67 N68 1.373 . S
C67 H95 0.930 . S
N68 C67 1.373 . S
N68 C70 1.340 . S
N69 C66 1.368 1_556 S
N69 C70 1.321 1_556 S
N69 Co72 2.135 . S
C70 N68 1.340 . S
C70 N69 1.321 1_554 S
C70 H94 0.930 . S
H71 C66 0.931 1_556 S
Co72 N69 2.135 . S
Co72 N75 2.121 . S
Co72 O80 2.055 . S
Co72 O83 2.039 . S
Co72 N86 2.140 . S
C73 O74 1.227 . S
C73 O83 1.265 . S
O74 C73 1.227 . S
N75 Co72 2.121 . S
N75 C77 1.375 . S
N75 C78 1.313 . S
C76 C77 1.338 . S
C76 N79 1.377 . S
C76 H96 0.930 . S
C77 N75 1.375 . S
C77 C76 1.338 . S
C77 H81 0.931 . S
C78 N75 1.313 . S
C78 N79 1.344 . S
C78 H82 0.930 . S
N79 C76 1.377 . S
N79 C78 1.344 . S
O80 Co72 2.055 . S
O80 C84 1.253 . S
H81 C77 0.931 . S
H82 C78 0.930 . S
O83 Co72 2.039 . S
O83 C73 1.265 . S
C84 O80 1.253 . S
C84 O85 1.227 . S
O85 C84 1.227 . S
N86 Co72 2.140 . S
N86 C89 1.346 . S
N86 C90 1.345 . S
C87 C88 1.387 . S
C87 C91 1.391 . S
C88 C87 1.387 . S
C88 C89 1.369 . S
C88 H97 0.929 . S
C89 N86 1.346 . S
C89 C88 1.369 . S
C89 H92 0.928 . S
C90 N86 1.345 . S
C90 C91 1.371 . S
C90 H93 0.931 . S
C91 C87 1.391 . S
C91 C90 1.371 . S
C91 H98 0.930 . S
H92 C89 0.928 . S
H93 C90 0.931 . S
H94 C70 0.930 . S
H95 C67 0.930 . S
H96 C76 0.930 . S
H97 C88 0.929 . S
H98 C91 0.930 . S
C99 C100 1.351 . S
C99 N102 1.368 1_554 S
C99 H104 0.931 1_554 S
C100 C99 1.351 . S
C100 N101 1.373 . S
C100 H128 0.930 . S
N101 C100 1.373 . S
N101 C103 1.340 . S
N102 C99 1.368 1_556 S
N102 C103 1.321 1_556 S
N102 Co105 2.135 . S
C103 N101 1.340 . S
C103 N102 1.321 1_554 S
C103 H127 0.930 . S
H104 C99 0.931 1_556 S
Co105 N102 2.135 . S
Co105 N108 2.121 . S
Co105 O113 2.055 . S
Co105 O116 2.039 . S
Co105 N119 2.140 . S
C106 O107 1.227 . S
C106 O116 1.265 . S
O107 C106 1.227 . S
N108 Co105 2.121 . S
N108 C110 1.375 . S
N108 C111 1.313 . S
C109 C110 1.338 . S
C109 N112 1.377 . S
C109 H129 0.930 . S
C110 N108 1.375 . S
C110 C109 1.338 . S
C110 H114 0.931 . S
C111 N108 1.313 . S
C111 N112 1.344 . S
C111 H115 0.930 . S
N112 C109 1.377 . S
N112 C111 1.344 . S
O113 Co105 2.055 . S
O113 C117 1.253 . S
H114 C110 0.931 . S
H115 C111 0.930 . S
O116 Co105 2.039 . S
O116 C106 1.265 . S
C117 O113 1.253 . S
C117 O118 1.227 . S
O118 C117 1.227 . S
N119 Co105 2.140 . S
N119 C122 1.346 . S
N119 C123 1.345 . S
C120 C121 1.387 . S
C120 C124 1.391 . S
C121 C120 1.387 . S
C121 C122 1.369 . S
C121 H130 0.929 . S
C122 N119 1.346 . S
C122 C121 1.369 . S
C122 H125 0.928 . S
C123 N119 1.345 . S
C123 C124 1.371 . S
C123 H126 0.931 . S
C124 C120 1.391 . S
C124 C123 1.371 . S
C124 H131 0.930 . S
H125 C122 0.928 . S
H126 C123 0.931 . S
H127 C103 0.930 . S
H128 C100 0.930 . S
H129 C109 0.930 . S
H130 C121 0.929 . S
H131 C124 0.930 . S
C132 C133 1.351 . S
C132 N135 1.368 . S
C132 H137 0.931 . S
C133 C132 1.351 . S
C133 N134 1.373 . S
C133 H161 0.930 . S
N134 C133 1.373 . S
N134 C136 1.340 . S
N135 C132 1.368 . S
N135 C136 1.321 . S
N135 Co138 2.135 . S
C136 N134 1.340 . S
C136 N135 1.321 . S
C136 H160 0.930 . S
H137 C132 0.931 . S
Co138 N135 2.135 . S
Co138 N141 2.121 . S
Co138 O146 2.055 . S
Co138 O149 2.039 . S
Co138 N152 2.140 . S
C139 O140 1.227 . S
C139 O149 1.265 . S
O140 C139 1.227 . S
N141 Co138 2.121 . S
N141 C143 1.375 . S
N141 C144 1.313 . S
C142 C143 1.338 . S
C142 N145 1.377 . S
C142 H162 0.930 . S
C143 N141 1.375 . S
C143 C142 1.338 . S
C143 H147 0.931 . S
C144 N141 1.313 . S
C144 N145 1.344 . S
C144 H148 0.930 . S
N145 C142 1.377 . S
N145 C144 1.344 . S
O146 Co138 2.055 . S
O146 C150 1.253 . S
H147 C143 0.931 . S
H148 C144 0.930 . S
O149 Co138 2.039 . S
O149 C139 1.265 . S
C150 O146 1.253 . S
C150 O151 1.227 . S
O151 C150 1.227 . S
N152 Co138 2.140 . S
N152 C155 1.346 . S
N152 C156 1.345 . S
C153 C154 1.387 . S
C153 C157 1.391 . S
C154 C153 1.387 . S
C154 C155 1.369 . S
C154 H163 0.929 . S
C155 N152 1.346 . S
C155 C154 1.369 . S
C155 H158 0.928 . S
C156 N152 1.345 . S
C156 C157 1.371 . S
C156 H159 0.931 . S
C157 C153 1.391 . S
C157 C156 1.371 . S
C157 H164 0.930 . S
H158 C155 0.928 . S
H159 C156 0.931 . S
H160 C136 0.930 . S
H161 C133 0.930 . S
H162 C142 0.930 . S
H163 C154 0.929 . S
H164 C157 0.930 . S
C165 C166 1.351 . S
C165 N168 1.368 . S
C165 H170 0.931 . S
C166 C165 1.351 . S
C166 N167 1.373 . S
C166 H194 0.930 . S
N167 C166 1.373 . S
N167 C169 1.340 . S
N168 C165 1.368 . S
N168 C169 1.321 . S
N168 Co171 2.135 . S
C169 N167 1.340 . S
C169 N168 1.321 . S
C169 H193 0.930 . S
H170 C165 0.931 . S
Co171 N168 2.135 . S
Co171 N174 2.121 . S
Co171 O179 2.055 . S
Co171 O182 2.039 . S
Co171 N185 2.140 . S
C172 O173 1.227 . S
C172 O182 1.265 . S
O173 C172 1.227 . S
N174 Co171 2.121 . S
N174 C176 1.375 . S
N174 C177 1.313 . S
C175 C176 1.338 . S
C175 N178 1.377 . S
C175 H195 0.930 . S
C176 N174 1.375 . S
C176 C175 1.338 . S
C176 H180 0.931 . S
C177 N174 1.313 . S
C177 N178 1.344 . S
C177 H181 0.930 . S
N178 C175 1.377 . S
N178 C177 1.344 . S
O179 Co171 2.055 . S
O179 C183 1.253 . S
H180 C176 0.931 . S
H181 C177 0.930 . S
O182 Co171 2.039 . S
O182 C172 1.265 . S
C183 O179 1.253 . S
C183 O184 1.227 . S
O184 C183 1.227 . S
N185 Co171 2.140 . S
N185 C188 1.346 . S
N185 C189 1.345 . S
C186 C187 1.387 . S
C186 C190 1.391 . S
C187 C186 1.387 . S
C187 C188 1.369 . S
C187 H196 0.929 . S
C188 N185 1.346 . S
C188 C187 1.369 . S
C188 H191 0.928 . S
C189 N185 1.345 . S
C189 C190 1.371 . S
C189 H192 0.931 . S
C190 C186 1.391 . S
C190 C189 1.371 . S
C190 H197 0.930 . S
H191 C188 0.928 . S
H192 C189 0.931 . S
H193 C169 0.930 . S
H194 C166 0.930 . S
H195 C175 0.930 . S
H196 C187 0.929 . S
H197 C190 0.930 . S
C198 C199 1.351 . S
C198 N201 1.368 . S
C198 H203 0.931 . S
C199 C198 1.351 . S
C199 N200 1.373 . S
C199 H227 0.930 . S
N200 C199 1.373 . S
N200 C202 1.340 . S
N201 C198 1.368 . S
N201 C202 1.321 . S
N201 Co204 2.135 . S
C202 N200 1.340 . S
C202 N201 1.321 . S
C202 H226 0.930 . S
H203 C198 0.931 . S
Co204 N201 2.135 . S
Co204 N207 2.121 . S
Co204 O212 2.055 . S
Co204 O215 2.039 . S
Co204 N218 2.140 . S
C205 O206 1.227 . S
C205 O215 1.265 . S
O206 C205 1.227 . S
N207 Co204 2.121 . S
N207 C209 1.375 . S
N207 C210 1.313 . S
C208 C209 1.338 . S
C208 N211 1.377 . S
C208 H228 0.930 . S
C209 N207 1.375 . S
C209 C208 1.338 . S
C209 H213 0.931 . S
C210 N207 1.313 . S
C210 N211 1.344 . S
C210 H214 0.930 . S
N211 C208 1.377 . S
N211 C210 1.344 . S
O212 Co204 2.055 . S
O212 C216 1.253 . S
H213 C209 0.931 . S
H214 C210 0.930 . S
O215 Co204 2.039 . S
O215 C205 1.265 . S
C216 O212 1.253 . S
C216 O217 1.227 . S
O217 C216 1.227 . S
N218 Co204 2.140 . S
N218 C221 1.346 . S
N218 C222 1.345 . S
C219 C220 1.387 . S
C219 C223 1.391 . S
C220 C219 1.387 . S
C220 C221 1.369 . S
C220 H229 0.929 . S
C221 N218 1.346 . S
C221 C220 1.369 . S
C221 H224 0.928 . S
C222 N218 1.345 . S
C222 C223 1.371 . S
C222 H225 0.931 . S
C223 C219 1.391 . S
C223 C222 1.371 . S
C223 H230 0.930 . S
H224 C221 0.928 . S
H225 C222 0.931 . S
H226 C202 0.930 . S
H227 C199 0.930 . S
H228 C208 0.930 . S
H229 C220 0.929 . S
H230 C223 0.930 . S
C231 C232 1.351 . S
C231 N234 1.368 . S
C231 H236 0.931 . S
C232 C231 1.351 . S
C232 N233 1.373 . S
C232 H260 0.930 . S
N233 C232 1.373 . S
N233 C235 1.340 . S
N234 C231 1.368 . S
N234 C235 1.321 . S
N234 Co237 2.135 . S
C235 N233 1.340 . S
C235 N234 1.321 . S
C235 H259 0.930 . S
H236 C231 0.931 . S
Co237 N234 2.135 . S
Co237 N240 2.121 . S
Co237 O245 2.055 . S
Co237 O248 2.039 . S
Co237 N251 2.140 . S
C238 O239 1.227 . S
C238 O248 1.265 . S
O239 C238 1.227 . S
N240 Co237 2.121 . S
N240 C242 1.375 . S
N240 C243 1.313 . S
C241 C242 1.338 . S
C241 N244 1.377 . S
C241 H261 0.930 . S
C242 N240 1.375 . S
C242 C241 1.338 . S
C242 H246 0.931 . S
C243 N240 1.313 . S
C243 N244 1.344 . S
C243 H247 0.930 . S
N244 C241 1.377 . S
N244 C243 1.344 . S
O245 Co237 2.055 . S
O245 C249 1.253 . S
H246 C242 0.931 . S
H247 C243 0.930 . S
O248 Co237 2.039 . S
O248 C238 1.265 . S
C249 O245 1.253 . S
C249 O250 1.227 . S
O250 C249 1.227 . S
N251 Co237 2.140 . S
N251 C254 1.346 . S
N251 C255 1.345 . S
C252 C253 1.387 . S
C252 C256 1.391 . S
C253 C252 1.387 . S
C253 C254 1.369 . S
C253 H262 0.929 . S
C254 N251 1.346 . S
C254 C253 1.369 . S
C254 H257 0.928 . S
C255 N251 1.345 . S
C255 C256 1.371 . S
C255 H258 0.931 . S
C256 C252 1.391 . S
C256 C255 1.371 . S
C256 H263 0.930 . S
H257 C254 0.928 . S
H258 C255 0.931 . S
H259 C235 0.930 . S
H260 C232 0.930 . S
H261 C241 0.930 . S
H262 C253 0.929 . S
H263 C256 0.930 . S
C264 C265 1.351 . S
C264 N267 1.368 . S
C264 H269 0.931 . S
C265 C264 1.351 . S
C265 N266 1.373 . S
C265 H293 0.930 . S
N266 C265 1.373 . S
N266 C268 1.340 . S
N267 C264 1.368 . S
N267 C268 1.321 . S
N267 Co270 2.135 . S
C268 N266 1.340 . S
C268 N267 1.321 . S
C268 H292 0.930 . S
H269 C264 0.931 . S
Co270 N267 2.135 . S
Co270 N273 2.121 . S
Co270 O278 2.055 . S
Co270 O281 2.039 . S
Co270 N284 2.140 . S
C271 O272 1.227 . S
C271 O281 1.265 . S
O272 C271 1.227 . S
N273 Co270 2.121 . S
N273 C275 1.375 . S
N273 C276 1.313 . S
C274 C275 1.338 . S
C274 N277 1.377 . S
C274 H294 0.930 . S
C275 N273 1.375 . S
C275 C274 1.338 . S
C275 H279 0.931 . S
C276 N273 1.313 . S
C276 N277 1.344 . S
C276 H280 0.930 . S
N277 C274 1.377 . S
N277 C276 1.344 . S
O278 Co270 2.055 . S
O278 C282 1.253 . S
H279 C275 0.931 . S
H280 C276 0.930 . S
O281 Co270 2.039 . S
O281 C271 1.265 . S
C282 O278 1.253 . S
C282 O283 1.227 . S
O283 C282 1.227 . S
N284 Co270 2.140 . S
N284 C287 1.346 . S
N284 C288 1.345 . S
C285 C286 1.387 . S
C285 C289 1.391 . S
C286 C285 1.387 . S
C286 C287 1.369 . S
C286 H295 0.929 . S
C287 N284 1.346 . S
C287 C286 1.369 . S
C287 H290 0.928 . S
C288 N284 1.345 . S
C288 C289 1.371 . S
C288 H291 0.931 . S
C289 C285 1.391 . S
C289 C288 1.371 . S
C289 H296 0.930 . S
H290 C287 0.928 . S
H291 C288 0.931 . S
H292 C268 0.930 . S
H293 C265 0.930 . S
H294 C274 0.930 . S
H295 C286 0.929 . S
H296 C289 0.930 . S
C297 C298 1.351 . S
C297 N300 1.368 . S
C297 H302 0.931 . S
C298 C297 1.351 . S
C298 N299 1.373 . S
C298 H326 0.930 . S
N299 C298 1.373 . S
N299 C301 1.340 . S
N300 C297 1.368 . S
N300 C301 1.321 . S
N300 Co303 2.135 . S
C301 N299 1.340 . S
C301 N300 1.321 . S
C301 H325 0.930 . S
H302 C297 0.931 . S
Co303 N300 2.135 . S
Co303 N306 2.121 . S
Co303 O311 2.055 . S
Co303 O314 2.039 . S
Co303 N317 2.140 . S
C304 O305 1.227 . S
C304 O314 1.265 . S
O305 C304 1.227 . S
N306 Co303 2.121 . S
N306 C308 1.375 . S
N306 C309 1.313 . S
C307 C308 1.338 . S
C307 N310 1.377 . S
C307 H327 0.930 . S
C308 N306 1.375 . S
C308 C307 1.338 . S
C308 H312 0.931 . S
C309 N306 1.313 . S
C309 N310 1.344 . S
C309 H313 0.930 . S
N310 C307 1.377 . S
N310 C309 1.344 . S
O311 Co303 2.055 . S
O311 C315 1.253 . S
H312 C308 0.931 . S
H313 C309 0.930 . S
O314 Co303 2.039 . S
O314 C304 1.265 . S
C315 O311 1.253 . S
C315 O316 1.227 . S
O316 C315 1.227 . S
N317 Co303 2.140 . S
N317 C320 1.346 . S
N317 C321 1.345 . S
C318 C319 1.387 . S
C318 C322 1.391 . S
C319 C318 1.387 . S
C319 C320 1.369 . S
C319 H328 0.929 . S
C320 N317 1.346 . S
C320 C319 1.369 . S
C320 H323 0.928 . S
C321 N317 1.345 . S
C321 C322 1.371 . S
C321 H324 0.931 . S
C322 C318 1.391 . S
C322 C321 1.371 . S
C322 H329 0.930 . S
H323 C320 0.928 . S
H324 C321 0.931 . S
H325 C301 0.930 . S
H326 C298 0.930 . S
H327 C307 0.930 . S
H328 C319 0.929 . S
H329 C322 0.930 . S
C330 C331 1.351 . S
C330 N333 1.368 . S
C330 H335 0.931 . S
C331 C330 1.351 . S
C331 N332 1.373 . S
C331 H359 0.930 . S
N332 C331 1.373 . S
N332 C334 1.340 . S
N333 C330 1.368 . S
N333 C334 1.321 . S
N333 Co336 2.135 . S
C334 N332 1.340 . S
C334 N333 1.321 . S
C334 H358 0.930 . S
H335 C330 0.931 . S
Co336 N333 2.135 . S
Co336 N339 2.121 . S
Co336 O344 2.055 . S
Co336 O347 2.039 . S
Co336 N350 2.140 . S
C337 O338 1.227 . S
C337 O347 1.265 . S
O338 C337 1.227 . S
N339 Co336 2.121 . S
N339 C341 1.375 . S
N339 C342 1.313 . S
C340 C341 1.338 . S
C340 N343 1.377 . S
C340 H360 0.930 . S
C341 N339 1.375 . S
C341 C340 1.338 . S
C341 H345 0.931 . S
C342 N339 1.313 . S
C342 N343 1.344 . S
C342 H346 0.930 . S
N343 C340 1.377 . S
N343 C342 1.344 . S
O344 Co336 2.055 . S
O344 C348 1.253 . S
H345 C341 0.931 . S
H346 C342 0.930 . S
O347 Co336 2.039 . S
O347 C337 1.265 . S
C348 O344 1.253 . S
C348 O349 1.227 . S
O349 C348 1.227 . S
N350 Co336 2.140 . S
N350 C353 1.346 . S
N350 C354 1.345 . S
C351 C352 1.387 . S
C351 C355 1.391 . S
C352 C351 1.387 . S
C352 C353 1.369 . S
C352 H361 0.929 . S
C353 N350 1.346 . S
C353 C352 1.369 . S
C353 H356 0.928 . S
C354 N350 1.345 . S
C354 C355 1.371 . S
C354 H357 0.931 . S
C355 C351 1.391 . S
C355 C354 1.371 . S
C355 H362 0.930 . S
H356 C353 0.928 . S
H357 C354 0.931 . S
H358 C334 0.930 . S
H359 C331 0.930 . S
H360 C340 0.930 . S
H361 C352 0.929 . S
H362 C355 0.930 . S
C363 C364 1.351 . S
C363 N366 1.368 . S
C363 H368 0.931 . S
C364 C363 1.351 . S
C364 N365 1.373 . S
C364 H392 0.930 . S
N365 C364 1.373 . S
N365 C367 1.340 . S
N366 C363 1.368 . S
N366 C367 1.321 . S
N366 Co369 2.135 . S
C367 N365 1.340 . S
C367 N366 1.321 . S
C367 H391 0.930 . S
H368 C363 0.931 . S
Co369 N366 2.135 . S
Co369 N372 2.121 . S
Co369 O377 2.055 . S
Co369 O380 2.039 . S
Co369 N383 2.140 . S
C370 O371 1.227 . S
C370 O380 1.265 . S
O371 C370 1.227 . S
N372 Co369 2.121 . S
N372 C374 1.375 . S
N372 C375 1.313 . S
C373 C374 1.338 . S
C373 N376 1.377 . S
C373 H393 0.930 . S
C374 N372 1.375 . S
C374 C373 1.338 . S
C374 H378 0.931 . S
C375 N372 1.313 . S
C375 N376 1.344 . S
C375 H379 0.930 . S
N376 C373 1.377 . S
N376 C375 1.344 . S
O377 Co369 2.055 . S
O377 C381 1.253 . S
H378 C374 0.931 . S
H379 C375 0.930 . S
O380 Co369 2.039 . S
O380 C370 1.265 . S
C381 O377 1.253 . S
C381 O382 1.227 . S
O382 C381 1.227 . S
N383 Co369 2.140 . S
N383 C386 1.346 . S
N383 C387 1.345 . S
C384 C385 1.387 . S
C384 C388 1.391 . S
C385 C384 1.387 . S
C385 C386 1.369 . S
C385 H394 0.929 . S
C386 N383 1.346 . S
C386 C385 1.369 . S
C386 H389 0.928 . S
C387 N383 1.345 . S
C387 C388 1.371 . S
C387 H390 0.931 . S
C388 C384 1.391 . S
C388 C387 1.371 . S
C388 H395 0.930 . S
H389 C386 0.928 . S
H390 C387 0.931 . S
H391 C367 0.930 . S
H392 C364 0.930 . S
H393 C373 0.930 . S
H394 C385 0.929 . S
H395 C388 0.930 . S
C396 C397 1.351 . S
C396 N399 1.368 1_556 S
C396 H401 0.931 1_556 S
C397 C396 1.351 . S
C397 N398 1.373 . S
C397 H425 0.930 . S
N398 C397 1.373 . S
N398 C400 1.340 . S
N399 C396 1.368 1_554 S
N399 C400 1.321 1_554 S
N399 Co402 2.135 . S
C400 N398 1.340 . S
C400 N399 1.321 1_556 S
C400 H424 0.930 . S
H401 C396 0.931 1_554 S
Co402 N399 2.135 . S
Co402 N405 2.121 . S
Co402 O410 2.055 . S
Co402 O413 2.039 . S
Co402 N416 2.140 . S
C403 O404 1.227 . S
C403 O413 1.265 . S
O404 C403 1.227 . S
N405 Co402 2.121 . S
N405 C407 1.375 . S
N405 C408 1.313 . S
C406 C407 1.338 . S
C406 N409 1.377 . S
C406 H426 0.930 . S
C407 N405 1.375 . S
C407 C406 1.338 . S
C407 H411 0.931 . S
C408 N405 1.313 . S
C408 N409 1.344 . S
C408 H412 0.930 . S
N409 C406 1.377 . S
N409 C408 1.344 . S
O410 Co402 2.055 . S
O410 C414 1.253 . S
H411 C407 0.931 . S
H412 C408 0.930 . S
O413 Co402 2.039 . S
O413 C403 1.265 . S
C414 O410 1.253 . S
C414 O415 1.227 . S
O415 C414 1.227 . S
N416 Co402 2.140 . S
N416 C419 1.346 . S
N416 C420 1.345 . S
C417 C418 1.387 . S
C417 C421 1.391 . S
C418 C417 1.387 . S
C418 C419 1.369 . S
C418 H427 0.929 . S
C419 N416 1.346 . S
C419 C418 1.369 . S
C419 H422 0.928 . S
C420 N416 1.345 . S
C420 C421 1.371 . S
C420 H423 0.931 . S
C421 C417 1.391 . S
C421 C420 1.371 . S
C421 H428 0.930 . S
H422 C419 0.928 . S
H423 C420 0.931 . S
H424 C400 0.930 . S
H425 C397 0.930 . S
H426 C406 0.930 . S
H427 C418 0.929 . S
H428 C421 0.930 . S
C429 C430 1.351 . S
C429 N432 1.368 1_556 S
C429 H434 0.931 1_556 S
C430 C429 1.351 . S
C430 N431 1.373 . S
C430 H458 0.930 . S
N431 C430 1.373 . S
N431 C433 1.340 . S
N432 C429 1.368 1_554 S
N432 C433 1.321 1_554 S
N432 Co435 2.135 . S
C433 N431 1.340 . S
C433 N432 1.321 1_556 S
C433 H457 0.930 . S
H434 C429 0.931 1_554 S
Co435 N432 2.135 . S
Co435 N438 2.121 . S
Co435 O443 2.055 . S
Co435 O446 2.039 . S
Co435 N449 2.140 . S
C436 O437 1.227 . S
C436 O446 1.265 . S
O437 C436 1.227 . S
N438 Co435 2.121 . S
N438 C440 1.375 . S
N438 C441 1.313 . S
C439 C440 1.338 . S
C439 N442 1.377 . S
C439 H459 0.930 . S
C440 N438 1.375 . S
C440 C439 1.338 . S
C440 H444 0.931 . S
C441 N438 1.313 . S
C441 N442 1.344 . S
C441 H445 0.930 . S
N442 C439 1.377 . S
N442 C441 1.344 . S
O443 Co435 2.055 . S
O443 C447 1.253 . S
H444 C440 0.931 . S
H445 C441 0.930 . S
O446 Co435 2.039 . S
O446 C436 1.265 . S
C447 O443 1.253 . S
C447 O448 1.227 . S
O448 C447 1.227 . S
N449 Co435 2.140 . S
N449 C452 1.346 . S
N449 C453 1.345 . S
C450 C451 1.387 . S
C450 C454 1.391 . S
C451 C450 1.387 . S
C451 C452 1.369 . S
C451 H460 0.929 . S
C452 N449 1.346 . S
C452 C451 1.369 . S
C452 H455 0.928 . S
C453 N449 1.345 . S
C453 C454 1.371 . S
C453 H456 0.931 . S
C454 C450 1.391 . S
C454 C453 1.371 . S
C454 H461 0.930 . S
H455 C452 0.928 . S
H456 C453 0.931 . S
H457 C433 0.930 . S
H458 C430 0.930 . S
H459 C439 0.930 . S
H460 C451 0.929 . S
H461 C454 0.930 . S
C462 C463 1.351 . S
C462 N465 1.368 1_554 S
C462 H467 0.931 1_554 S
C463 C462 1.351 . S
C463 N464 1.373 . S
C463 H491 0.930 . S
N464 C463 1.373 . S
N464 C466 1.340 . S
N465 C462 1.368 1_556 S
N465 C466 1.321 1_556 S
N465 Co468 2.135 . S
C466 N464 1.340 . S
C466 N465 1.321 1_554 S
C466 H490 0.930 . S
H467 C462 0.931 1_556 S
Co468 N465 2.135 . S
Co468 N471 2.121 . S
Co468 O476 2.055 . S
Co468 O479 2.039 . S
Co468 N482 2.140 . S
C469 O470 1.227 . S
C469 O479 1.265 . S
O470 C469 1.227 . S
N471 Co468 2.121 . S
N471 C473 1.375 . S
N471 C474 1.313 . S
C472 C473 1.338 . S
C472 N475 1.377 . S
C472 H492 0.930 . S
C473 N471 1.375 . S
C473 C472 1.338 . S
C473 H477 0.931 . S
C474 N471 1.313 . S
C474 N475 1.344 . S
C474 H478 0.930 . S
N475 C472 1.377 . S
N475 C474 1.344 . S
O476 Co468 2.055 . S
O476 C480 1.253 . S
H477 C473 0.931 . S
H478 C474 0.930 . S
O479 Co468 2.039 . S
O479 C469 1.265 . S
C480 O476 1.253 . S
C480 O481 1.227 . S
O481 C480 1.227 . S
N482 Co468 2.140 . S
N482 C485 1.346 . S
N482 C486 1.345 . S
C483 C484 1.387 . S
C483 C487 1.391 . S
C484 C483 1.387 . S
C484 C485 1.369 . S
C484 H493 0.929 . S
C485 N482 1.346 . S
C485 C484 1.369 . S
C485 H488 0.928 . S
C486 N482 1.345 . S
C486 C487 1.371 . S
C486 H489 0.931 . S
C487 C483 1.391 . S
C487 C486 1.371 . S
C487 H494 0.930 . S
H488 C485 0.928 . S
H489 C486 0.931 . S
H490 C466 0.930 . S
H491 C463 0.930 . S
H492 C472 0.930 . S
H493 C484 0.929 . S
H494 C487 0.930 . S
C495 C496 1.351 . S
C495 N498 1.368 1_554 S
C495 H500 0.931 1_554 S
C496 C495 1.351 . S
C496 N497 1.373 . S
C496 H524 0.930 . S
N497 C496 1.373 . S
N497 C499 1.340 . S
N498 C495 1.368 1_556 S
N498 C499 1.321 1_556 S
N498 Co501 2.135 . S
C499 N497 1.340 . S
C499 N498 1.321 1_554 S
C499 H523 0.930 . S
H500 C495 0.931 1_556 S
Co501 N498 2.135 . S
Co501 N504 2.121 . S
Co501 O509 2.055 . S
Co501 O512 2.039 . S
Co501 N515 2.140 . S
C502 O503 1.227 . S
C502 O512 1.265 . S
O503 C502 1.227 . S
N504 Co501 2.121 . S
N504 C506 1.375 . S
N504 C507 1.313 . S
C505 C506 1.338 . S
C505 N508 1.377 . S
C505 H525 0.930 . S
C506 N504 1.375 . S
C506 C505 1.338 . S
C506 H510 0.931 . S
C507 N504 1.313 . S
C507 N508 1.344 . S
C507 H511 0.930 . S
N508 C505 1.377 . S
N508 C507 1.344 . S
O509 Co501 2.055 . S
O509 C513 1.253 . S
H510 C506 0.931 . S
H511 C507 0.930 . S
O512 Co501 2.039 . S
O512 C502 1.265 . S
C513 O509 1.253 . S
C513 O514 1.227 . S
O514 C513 1.227 . S
N515 Co501 2.140 . S
N515 C518 1.346 . S
N515 C519 1.345 . S
C516 C517 1.387 . S
C516 C520 1.391 . S
C517 C516 1.387 . S
C517 C518 1.369 . S
C517 H526 0.929 . S
C518 N515 1.346 . S
C518 C517 1.369 . S
C518 H521 0.928 . S
C519 N515 1.345 . S
C519 C520 1.371 . S
C519 H522 0.931 . S
C520 C516 1.391 . S
C520 C519 1.371 . S
C520 H527 0.930 . S
H521 C518 0.928 . S
H522 C519 0.931 . S
H523 C499 0.930 . S
H524 C496 0.930 . S
H525 C505 0.930 . S
H526 C517 0.929 . S
H527 C520 0.930 . S
H528 C540 0.930 . S
H529 C542 0.930 . S
H530 C543 0.930 . S
H531 C547 0.959 . S
H532 C547 0.959 . S
H533 C547 0.961 . S
H534 C548 0.960 . S
H535 C548 0.961 . S
H536 C548 0.959 . S
H537 C551 0.929 . S
H538 C552 0.931 . S
H539 C554 0.930 . S
C540 H528 0.930 . S
C540 C541 1.399 . S
C540 C545 1.399 . S
C541 C540 1.399 . S
C541 C542 1.376 . S
C542 H529 0.930 . S
C542 C541 1.376 . S
C542 C543 1.388 . S
C543 H530 0.930 . S
C543 C542 1.388 . S
C543 C544 1.390 . S
C544 C543 1.390 . S
C544 C545 1.394 . S
C544 C550 1.465 . S
C545 C540 1.399 . S
C545 C544 1.394 . S
C545 C546 1.516 . S
C546 C545 1.516 . S
C546 C547 1.502 . S
C546 C548 1.561 . S
C546 C549 1.526 . S
C547 H531 0.959 . S
C547 H532 0.959 . S
C547 H533 0.961 . S
C547 C546 1.502 . S
C548 H534 0.960 . S
C548 H535 0.961 . S
C548 H536 0.959 . S
C548 C546 1.561 . S
C549 C546 1.526 . S
C549 C550 1.396 . S
C549 C554 1.390 . S
C550 C544 1.465 . S
C550 C549 1.396 . S
C550 C551 1.399 . S
C551 H537 0.929 . S
C551 C550 1.399 . S
C551 C552 1.385 . S
C552 H538 0.931 . S
C552 C551 1.385 . S
C552 C553 1.389 . S
C553 C552 1.389 . S
C553 C554 1.387 . S
C554 H539 0.930 . S
C554 C549 1.390 . S
C554 C553 1.387 . S
H555 C567 0.930 . S
H556 C569 0.930 . S
H557 C570 0.930 . S
H558 C574 0.959 . S
H559 C574 0.959 . S
H560 C574 0.961 . S
H561 C575 0.960 . S
H562 C575 0.961 . S
H563 C575 0.959 . S
H564 C578 0.929 1_455 S
H565 C579 0.931 . S
H566 C581 0.930 . S
C567 H555 0.930 . S
C567 C568 1.399 . S
C567 C572 1.399 . S
C568 C567 1.399 . S
C568 C569 1.376 . S
C569 H556 0.930 . S
C569 C568 1.376 . S
C569 C570 1.388 . S
C570 H557 0.930 . S
C570 C569 1.388 . S
C570 C571 1.390 . S
C571 C570 1.390 . S
C571 C572 1.394 . S
C571 C577 1.465 1_455 S
C572 C567 1.399 . S
C572 C571 1.394 . S
C572 C573 1.516 1_455 S
C573 C572 1.516 1_655 S
C573 C574 1.502 . S
C573 C575 1.561 . S
C573 C576 1.526 . S
C574 H558 0.959 . S
C574 H559 0.959 . S
C574 H560 0.961 . S
C574 C573 1.502 . S
C575 H561 0.960 . S
C575 H562 0.961 . S
C575 H563 0.959 . S
C575 C573 1.561 . S
C576 C573 1.526 . S
C576 C577 1.396 . S
C576 C581 1.390 . S
C577 C571 1.465 1_655 S
C577 C576 1.396 . S
C577 C578 1.399 . S
C578 H564 0.929 1_655 S
C578 C577 1.399 . S
C578 C579 1.385 . S
C579 H565 0.931 . S
C579 C578 1.385 . S
C579 C580 1.389 . S
C580 C579 1.389 . S
C580 C581 1.387 . S
C581 H566 0.930 . S
C581 C576 1.390 . S
C581 C580 1.387 . S
H582 C594 0.930 . S
H583 C596 0.930 . S
H584 C597 0.930 . S
H585 C601 0.959 . S
H586 C601 0.959 . S
H587 C601 0.961 . S
H588 C602 0.960 . S
H589 C602 0.961 . S
H590 C602 0.959 . S
H591 C605 0.929 . S
H592 C606 0.931 . S
H593 C608 0.930 . S
C594 H582 0.930 . S
C594 C595 1.399 . S
C594 C599 1.399 . S
C595 C594 1.399 . S
C595 C596 1.376 . S
C596 H583 0.930 . S
C596 C595 1.376 . S
C596 C597 1.388 . S
C597 H584 0.930 . S
C597 C596 1.388 . S
C597 C598 1.390 . S
C598 C597 1.390 . S
C598 C599 1.394 . S
C598 C604 1.465 1_556 S
C599 C594 1.399 . S
C599 C598 1.394 . S
C599 C600 1.516 1_556 S
C600 C599 1.516 1_554 S
C600 C601 1.502 1_554 S
C600 C602 1.561 . S
C600 C603 1.526 . S
C601 H585 0.959 . S
C601 H586 0.959 . S
C601 H587 0.961 . S
C601 C600 1.502 1_556 S
C602 H588 0.960 . S
C602 H589 0.961 . S
C602 H590 0.959 . S
C602 C600 1.561 . S
C603 C600 1.526 . S
C603 C604 1.396 . S
C603 C608 1.390 . S
C604 C598 1.465 1_554 S
C604 C603 1.396 . S
C604 C605 1.399 . S
C605 H591 0.929 . S
C605 C604 1.399 . S
C605 C606 1.385 . S
C606 H592 0.931 . S
C606 C605 1.385 . S
C606 C607 1.389 . S
C607 C606 1.389 . S
C607 C608 1.387 . S
C608 H593 0.930 . S
C608 C603 1.390 . S
C608 C607 1.387 . S
H609 C621 0.930 . S
H610 C623 0.930 . S
H611 C624 0.930 . S
H612 C628 0.959 . S
H613 C628 0.959 . S
H614 C628 0.961 . S
H615 C629 0.960 . S
H616 C629 0.961 1_455 S
H617 C629 0.959 . S
H618 C632 0.929 . S
H619 C633 0.931 . S
H620 C635 0.930 . S
C621 H609 0.930 . S
C621 C622 1.399 . S
C621 C626 1.399 . S
C622 C621 1.399 . S
C622 C623 1.376 1_556 S
C623 H610 0.930 . S
C623 C622 1.376 1_554 S
C623 C624 1.388 . S
C624 H611 0.930 . S
C624 C623 1.388 . S
C624 C625 1.390 . S
C625 C624 1.390 . S
C625 C626 1.394 1_554 S
C625 C631 1.465 1_655 S
C626 C621 1.399 . S
C626 C625 1.394 1_556 S
C626 C627 1.516 1_655 S
C627 C626 1.516 1_455 S
C627 C628 1.502 . S
C627 C629 1.561 1_455 S
C627 C630 1.526 . S
C628 H612 0.959 . S
C628 H613 0.959 . S
C628 H614 0.961 . S
C628 C627 1.502 . S
C629 H615 0.960 . S
C629 H616 0.961 1_655 S
C629 H617 0.959 . S
C629 C627 1.561 1_655 S
C630 C627 1.526 . S
C630 C631 1.396 1_556 S
C630 C635 1.390 . S
C631 C625 1.465 1_455 S
C631 C630 1.396 1_554 S
C631 C632 1.399 . S
C632 H618 0.929 . S
C632 C631 1.399 . S
C632 C633 1.385 . S
C633 H619 0.931 . S
C633 C632 1.385 . S
C633 C634 1.389 . S
C634 C633 1.389 . S
C634 C635 1.387 1_554 S
C635 H620 0.930 . S
C635 C630 1.390 . S
C635 C634 1.387 1_556 S
H636 C648 0.930 . S
H637 C650 0.930 . S
H638 C651 0.930 . S
H639 C655 0.959 . S
H640 C655 0.959 . S
H641 C655 0.961 . S
H642 C656 0.960 . S
H643 C656 0.961 . S
H644 C656 0.959 . S
H645 C659 0.929 . S
H646 C660 0.931 . S
H647 C662 0.930 . S
C648 H636 0.930 . S
C648 C649 1.399 . S
C648 C653 1.399 . S
C649 C648 1.399 . S
C649 C650 1.376 . S
C650 H637 0.930 . S
C650 C649 1.376 . S
C650 C651 1.388 . S
C651 H638 0.930 . S
C651 C650 1.388 . S
C651 C652 1.390 . S
C652 C651 1.390 . S
C652 C653 1.394 . S
C652 C658 1.465 . S
C653 C648 1.399 . S
C653 C652 1.394 . S
C653 C654 1.516 . S
C654 C653 1.516 . S
C654 C655 1.502 . S
C654 C656 1.561 . S
C654 C657 1.526 . S
C655 H639 0.959 . S
C655 H640 0.959 . S
C655 H641 0.961 . S
C655 C654 1.502 . S
C656 H642 0.960 . S
C656 H643 0.961 . S
C656 H644 0.959 . S
C656 C654 1.561 . S
C657 C654 1.526 . S
C657 C658 1.396 . S
C657 C662 1.390 . S
C658 C652 1.465 . S
C658 C657 1.396 . S
C658 C659 1.399 . S
C659 H645 0.929 . S
C659 C658 1.399 . S
C659 C660 1.385 . S
C660 H646 0.931 . S
C660 C659 1.385 . S
C660 C661 1.389 . S
C661 C660 1.389 . S
C661 C662 1.387 . S
C662 H647 0.930 . S
C662 C657 1.390 . S
C662 C661 1.387 . S
H663 C675 0.930 . S
H664 C677 0.930 . S
H665 C678 0.930 . S
H666 C682 0.959 . S
H667 C682 0.959 . S
H668 C682 0.961 . S
H669 C683 0.960 . S
H670 C683 0.961 . S
H671 C683 0.959 . S
H672 C686 0.929 1_455 S
H673 C687 0.931 . S
H674 C689 0.930 . S
C675 H663 0.930 . S
C675 C676 1.399 . S
C675 C680 1.399 . S
C676 C675 1.399 . S
C676 C677 1.376 . S
C677 H664 0.930 . S
C677 C676 1.376 . S
C677 C678 1.388 . S
C678 H665 0.930 . S
C678 C677 1.388 . S
C678 C679 1.390 . S
C679 C678 1.390 . S
C679 C680 1.394 . S
C679 C685 1.465 1_455 S
C680 C675 1.399 . S
C680 C679 1.394 . S
C680 C681 1.516 1_455 S
C681 C680 1.516 1_655 S
C681 C682 1.502 . S
C681 C683 1.561 . S
C681 C684 1.526 . S
C682 H666 0.959 . S
C682 H667 0.959 . S
C682 H668 0.961 . S
C682 C681 1.502 . S
C683 H669 0.960 . S
C683 H670 0.961 . S
C683 H671 0.959 . S
C683 C681 1.561 . S
C684 C681 1.526 . S
C684 C685 1.396 . S
C684 C689 1.390 . S
C685 C679 1.465 1_655 S
C685 C684 1.396 . S
C685 C686 1.399 . S
C686 H672 0.929 1_655 S
C686 C685 1.399 . S
C686 C687 1.385 . S
C687 H673 0.931 . S
C687 C686 1.385 . S
C687 C688 1.389 . S
C688 C687 1.389 . S
C688 C689 1.387 . S
C689 H674 0.930 . S
C689 C684 1.390 . S
C689 C688 1.387 . S
H690 C702 0.930 1_556 S
H691 C704 0.930 . S
H692 C705 0.930 . S
H693 C709 0.948 1_554 S
H694 C709 0.959 . S
H695 C709 0.961 . S
H696 C710 0.960 . S
H697 C710 0.961 . S
H698 C710 0.959 . S
H699 C713 0.929 . S
H700 C714 0.931 1_554 S
H701 C716 0.930 . S
C702 H690 0.930 1_554 S
C702 C703 1.399 . S
C702 C707 1.399 1_554 S
C703 C702 1.399 . S
C703 C704 1.376 . S
C704 H691 0.930 . S
C704 C703 1.376 . S
C704 C705 1.388 . S
C705 H692 0.930 . S
C705 C704 1.388 . S
C705 C706 1.390 . S
C706 C705 1.390 . S
C706 C707 1.394 1_554 S
C706 C712 1.465 . S
C707 C702 1.399 1_556 S
C707 C706 1.394 1_556 S
C707 C708 1.516 . S
C708 C707 1.516 . S
C708 C709 1.502 . S
C708 C710 1.561 . S
C708 C711 1.526 . S
C709 H693 0.948 1_556 S
C709 H694 0.959 . S
C709 H695 0.961 . S
C709 C708 1.502 . S
C710 H696 0.960 . S
C710 H697 0.961 . S
C710 H698 0.959 . S
C710 C708 1.561 . S
C711 C708 1.526 . S
C711 C712 1.396 1_556 S
C711 C716 1.390 . S
C712 C706 1.465 . S
C712 C711 1.396 1_554 S
C712 C713 1.399 . S
C713 H699 0.929 . S
C713 C712 1.399 . S
C713 C714 1.385 1_554 S
C714 H700 0.931 1_556 S
C714 C713 1.385 1_556 S
C714 C715 1.389 . S
C715 C714 1.389 . S
C715 C716 1.387 . S
C716 H701 0.930 . S
C716 C711 1.390 . S
C716 C715 1.387 . S
H717 C729 0.930 . S
H718 C731 0.930 . S
H719 C732 0.930 . S
H720 C736 0.959 . S
H721 C736 0.959 . S
H722 C736 0.961 . S
H723 C737 0.960 . S
H724 C737 0.961 . S
H725 C737 0.959 . S
H726 C740 0.929 . S
H727 C741 0.931 . S
H728 C743 0.930 . S
C729 H717 0.930 . S
C729 C730 1.399 . S
C729 C734 1.399 . S
C730 C729 1.399 . S
C730 C731 1.376 . S
C731 H718 0.930 . S
C731 C730 1.376 . S
C731 C732 1.388 . S
C732 H719 0.930 . S
C732 C731 1.388 . S
C732 C733 1.390 . S
C733 C732 1.390 . S
C733 C734 1.394 . S
C733 C739 1.465 1_565 S
C734 C729 1.399 . S
C734 C733 1.394 . S
C734 C735 1.516 . S
C735 C734 1.516 . S
C735 C736 1.502 1_565 S
C735 C737 1.561 . S
C735 C738 1.526 1_565 S
C736 H720 0.959 . S
C736 H721 0.959 . S
C736 H722 0.961 . S
C736 C735 1.502 1_545 S
C737 H723 0.960 . S
C737 H724 0.961 . S
C737 H725 0.959 . S
C737 C735 1.561 . S
C738 C735 1.526 1_545 S
C738 C739 1.396 . S
C738 C743 1.390 . S
C739 C733 1.465 1_545 S
C739 C738 1.396 . S
C739 C740 1.399 . S
C740 H726 0.929 . S
C740 C739 1.399 . S
C740 C741 1.385 . S
C741 H727 0.931 . S
C741 C740 1.385 . S
C741 C742 1.389 . S
C742 C741 1.389 . S
C742 C743 1.387 . S
C743 H728 0.930 . S
C743 C738 1.390 . S
C743 C742 1.387 . S
H744 C756 0.930 . S
H745 C758 0.930 . S
H746 C759 0.930 . S
H747 C763 0.959 . S
H748 C763 0.959 . S
H749 C763 0.961 . S
H750 C764 0.960 . S
H751 C764 0.961 . S
H752 C764 0.959 . S
H753 C767 0.929 . S
H754 C768 0.931 . S
H755 C770 0.930 . S
C756 H744 0.930 . S
C756 C757 1.399 . S
C756 C761 1.399 . S
C757 C756 1.399 . S
C757 C758 1.376 . S
C758 H745 0.930 . S
C758 C757 1.376 . S
C758 C759 1.388 . S
C759 H746 0.930 . S
C759 C758 1.388 . S
C759 C760 1.390 . S
C760 C759 1.390 . S
C760 C761 1.394 . S
C760 C766 1.465 . S
C761 C756 1.399 . S
C761 C760 1.394 . S
C761 C762 1.516 . S
C762 C761 1.516 . S
C762 C763 1.502 . S
C762 C764 1.561 . S
C762 C765 1.526 . S
C763 H747 0.959 . S
C763 H748 0.959 . S
C763 H749 0.961 . S
C763 C762 1.502 . S
C764 H750 0.960 . S
C764 H751 0.961 . S
C764 H752 0.959 . S
C764 C762 1.561 . S
C765 C762 1.526 . S
C765 C766 1.396 . S
C765 C770 1.390 . S
C766 C760 1.465 . S
C766 C765 1.396 . S
C766 C767 1.399 . S
C767 H753 0.929 . S
C767 C766 1.399 . S
C767 C768 1.385 . S
C768 H754 0.931 . S
C768 C767 1.385 . S
C768 C769 1.389 . S
C769 C768 1.389 . S
C769 C770 1.387 . S
C770 H755 0.930 . S
C770 C765 1.390 . S
C770 C769 1.387 . S
H771 C783 0.930 . S
H772 C785 0.930 . S
H773 C786 0.930 1_455 S
H774 C790 0.959 . S
H775 C790 0.959 . S
H776 C790 0.961 . S
H777 C791 0.976 . S
H778 C791 0.922 1_545 S
H779 C791 1.014 . S
H780 C794 0.929 . S
H781 C795 0.931 . S
H782 C797 0.930 . S
C783 H771 0.930 . S
C783 C784 1.399 . S
C783 C788 1.399 . S
C784 C783 1.399 . S
C784 C785 1.376 . S
C785 H772 0.930 . S
C785 C784 1.376 . S
C785 C786 1.388 . S
C786 H773 0.930 1_655 S
C786 C785 1.388 . S
C786 C787 1.390 . S
C787 C786 1.390 . S
C787 C788 1.394 . S
C787 C793 1.491 1_655 S
C788 C783 1.399 . S
C788 C787 1.394 . S
C788 C789 1.516 1_565 S
C789 C788 1.516 1_545 S
C789 C790 1.502 . S
C789 C791 1.534 1_545 S
C789 C792 1.526 1_655 S
C790 H774 0.959 . S
C790 H775 0.959 . S
C790 H776 0.961 . S
C790 C789 1.502 . S
C791 H777 0.976 . S
C791 H778 0.922 1_565 S
C791 H779 1.014 . S
C791 C789 1.534 1_565 S
C792 C789 1.526 1_455 S
C792 C793 1.363 1_545 S
C792 C797 1.390 . S
C793 C787 1.491 1_455 S
C793 C792 1.363 1_565 S
C793 C794 1.404 . S
C794 H780 0.929 . S
C794 C793 1.404 . S
C794 C795 1.385 1_565 S
C795 H781 0.931 . S
C795 C794 1.385 1_545 S
C795 C796 1.389 . S
C796 C795 1.389 . S
C796 C797 1.387 . S
C797 H782 0.930 . S
C797 C792 1.390 . S
C797 C796 1.387 . S
H798 C810 0.930 . S
H799 C812 0.930 . S
H800 C813 0.930 . S
H801 C817 0.959 . S
H802 C817 0.959 . S
H803 C817 0.961 . S
H804 C818 0.960 . S
H805 C818 0.961 . S
H806 C818 0.959 1_545 S
H807 C821 0.929 . S
H808 C822 0.931 . S
H809 C824 0.930 . S
C810 H798 0.930 . S
C810 C811 1.399 . S
C810 C815 1.399 . S
C811 C810 1.399 . S
C811 C812 1.376 . S
C812 H799 0.930 . S
C812 C811 1.376 . S
C812 C813 1.388 . S
C813 H800 0.930 . S
C813 C812 1.388 . S
C813 C814 1.390 . S
C814 C813 1.390 . S
C814 C815 1.394 . S
C814 C820 1.465 . S
C815 C810 1.399 . S
C815 C814 1.394 . S
C815 C816 1.516 1_545 S
C816 C815 1.516 1_565 S
C816 C817 1.502 . S
C816 C818 1.561 . S
C816 C819 1.526 . S
C817 H801 0.959 . S
C817 H802 0.959 . S
C817 H803 0.961 . S
C817 C816 1.502 . S
C818 H804 0.960 . S
C818 H805 0.961 . S
C818 H806 0.959 1_565 S
C818 C816 1.561 . S
C819 C816 1.526 . S
C819 C820 1.396 1_565 S
C819 C824 1.390 . S
C820 C814 1.465 . S
C820 C819 1.396 1_545 S
C820 C821 1.399 . S
C821 H807 0.929 . S
C821 C820 1.399 . S
C821 C822 1.385 1_545 S
C822 H808 0.931 . S
C822 C821 1.385 1_565 S
C822 C823 1.389 . S
C823 C822 1.389 . S
C823 C824 1.387 . S
C824 H809 0.930 . S
C824 C819 1.390 . S
C824 C823 1.387 . S
H825 C837 0.930 . S
H826 C839 0.930 . S
H827 C840 0.930 . S
H828 C844 0.959 . S
H829 C844 0.959 . S
H830 C844 0.961 . S
H831 C845 0.960 . S
H832 C845 0.961 . S
H833 C845 0.959 . S
H834 C848 0.929 . S
H835 C849 0.931 . S
H836 C851 0.930 . S
C837 H825 0.930 . S
C837 C838 1.399 . S
C837 C842 1.399 . S
C838 C837 1.399 . S
C838 C839 1.376 . S
C839 H826 0.930 . S
C839 C838 1.376 . S
C839 C840 1.388 . S
C840 H827 0.930 . S
C840 C839 1.388 . S
C840 C841 1.390 . S
C841 C840 1.390 . S
C841 C842 1.394 . S
C841 C847 1.465 . S
C842 C837 1.399 . S
C842 C841 1.394 . S
C842 C843 1.516 . S
C843 C842 1.516 . S
C843 C844 1.502 . S
C843 C845 1.561 . S
C843 C846 1.526 . S
C844 H828 0.959 . S
C844 H829 0.959 . S
C844 H830 0.961 . S
C844 C843 1.502 . S
C845 H831 0.960 . S
C845 H832 0.961 . S
C845 H833 0.959 . S
C845 C843 1.561 . S
C846 C843 1.526 . S
C846 C847 1.396 . S
C846 C851 1.390 . S
C847 C841 1.465 . S
C847 C846 1.396 . S
C847 C848 1.399 . S
C848 H834 0.929 . S
C848 C847 1.399 . S
C848 C849 1.385 . S
C849 H835 0.931 . S
C849 C848 1.385 . S
C849 C850 1.389 . S
C850 C849 1.389 . S
C850 C851 1.387 . S
C851 H836 0.930 . S
C851 C846 1.390 . S
C851 C850 1.387 . S
H852 C864 0.930 . S
H853 C866 0.930 . S
H854 C867 0.930 . S
H855 C871 0.959 . S
H856 C871 0.959 . S
H857 C871 0.961 . S
H858 C872 0.960 . S
H859 C872 0.961 . S
H860 C872 0.959 . S
H861 C875 0.929 . S
H862 C876 0.931 . S
H863 C878 0.930 . S
C864 H852 0.930 . S
C864 C865 1.399 . S
C864 C869 1.399 . S
C865 C864 1.399 . S
C865 C866 1.376 . S
C866 H853 0.930 . S
C866 C865 1.376 . S
C866 C867 1.388 . S
C867 H854 0.930 . S
C867 C866 1.388 . S
C867 C868 1.390 . S
C868 C867 1.390 . S
C868 C869 1.394 . S
C868 C874 1.465 . S
C869 C864 1.399 . S
C869 C868 1.394 . S
C869 C870 1.516 . S
C870 C869 1.516 . S
C870 C871 1.502 . S
C870 C872 1.561 . S
C870 C873 1.526 . S
C871 H855 0.959 . S
C871 H856 0.959 . S
C871 H857 0.961 . S
C871 C870 1.502 . S
C872 H858 0.960 . S
C872 H859 0.961 . S
C872 H860 0.959 . S
C872 C870 1.561 . S
C873 C870 1.526 . S
C873 C874 1.396 . S
C873 C878 1.390 . S
C874 C868 1.465 . S
C874 C873 1.396 . S
C874 C875 1.399 . S
C875 H861 0.929 . S
C875 C874 1.399 . S
C875 C876 1.385 . S
C876 H862 0.931 . S
C876 C875 1.385 . S
C876 C877 1.389 . S
C877 C876 1.389 . S
C877 C878 1.387 . S
C878 H863 0.930 . S
C878 C873 1.390 . S
C878 C877 1.387 . S
H879 C891 0.930 . S
H880 C893 0.930 . S
H881 C894 0.930 . S
H882 C898 0.959 . S
H883 C898 0.959 . S
H884 C898 0.961 . S
H885 C899 0.960 . S
H886 C899 0.961 . S
H887 C899 0.959 . S
H888 C902 0.929 . S
H889 C903 0.931 . S
H890 C905 0.930 . S
C891 H879 0.930 . S
C891 C892 1.399 . S
C891 C896 1.399 . S
C892 C891 1.399 . S
C892 C893 1.376 . S
C893 H880 0.930 . S
C893 C892 1.376 . S
C893 C894 1.388 . S
C894 H881 0.930 . S
C894 C893 1.388 . S
C894 C895 1.390 . S
C895 C894 1.390 . S
C895 C896 1.394 . S
C895 C901 1.465 . S
C896 C891 1.399 . S
C896 C895 1.394 . S
C896 C897 1.516 . S
C897 C896 1.516 . S
C897 C898 1.502 . S
C897 C899 1.561 . S
C897 C900 1.526 . S
C898 H882 0.959 . S
C898 H883 0.959 . S
C898 H884 0.961 . S
C898 C897 1.502 . S
C899 H885 0.960 . S
C899 H886 0.961 . S
C899 H887 0.959 . S
C899 C897 1.561 . S
C900 C897 1.526 . S
C900 C901 1.396 . S
C900 C905 1.390 . S
C901 C895 1.465 . S
C901 C900 1.396 . S
C901 C902 1.399 . S
C902 H888 0.929 . S
C902 C901 1.399 . S
C902 C903 1.385 . S
C903 H889 0.931 . S
C903 C902 1.385 . S
C903 C904 1.389 . S
C904 C903 1.389 . S
C904 C905 1.387 . S
C905 H890 0.930 . S
C905 C900 1.390 . S
C905 C904 1.387 . S
H906 C918 0.930 . S
H907 C920 0.930 . S
H908 C921 0.930 . S
H909 C925 0.959 . S
H910 C925 0.959 . S
H911 C925 0.961 . S
H912 C926 0.960 . S
H913 C926 0.961 . S
H914 C926 0.959 . S
H915 C929 0.929 . S
H916 C930 0.931 . S
H917 C932 0.930 . S
C918 H906 0.930 . S
C918 C919 1.399 . S
C918 C923 1.399 . S
C919 C918 1.399 . S
C919 C920 1.376 . S
C920 H907 0.930 . S
C920 C919 1.376 . S
C920 C921 1.388 . S
C921 H908 0.930 . S
C921 C920 1.388 . S
C921 C922 1.390 . S
C922 C921 1.390 . S
C922 C923 1.394 . S
C922 C928 1.465 . S
C923 C918 1.399 . S
C923 C922 1.394 . S
C923 C924 1.516 . S
C924 C923 1.516 . S
C924 C925 1.502 . S
C924 C926 1.561 . S
C924 C927 1.526 . S
C925 H909 0.959 . S
C925 H910 0.959 . S
C925 H911 0.961 . S
C925 C924 1.502 . S
C926 H912 0.960 . S
C926 H913 0.961 . S
C926 H914 0.959 . S
C926 C924 1.561 . S
C927 C924 1.526 . S
C927 C928 1.396 . S
C927 C932 1.390 . S
C928 C922 1.465 . S
C928 C927 1.396 . S
C928 C929 1.399 . S
C929 H915 0.929 . S
C929 C928 1.399 . S
C929 C930 1.385 . S
C930 H916 0.931 . S
C930 C929 1.385 . S
C930 C931 1.389 . S
C931 C930 1.389 . S
C931 C932 1.387 . S
C932 H917 0.930 . S
C932 C927 1.390 . S
C932 C931 1.387 . S
H933 C945 0.930 . S
H934 C947 0.930 . S
H935 C948 0.930 . S
H936 C952 0.959 . S
H937 C952 0.959 . S
H938 C952 0.961 . S
H939 C953 0.960 . S
H940 C953 0.961 . S
H941 C953 0.959 . S
H942 C956 0.929 . S
H943 C957 0.931 . S
H944 C959 0.930 . S
C945 H933 0.930 . S
C945 C946 1.399 . S
C945 C950 1.399 . S
C946 C945 1.399 . S
C946 C947 1.376 1_556 S
C947 H934 0.930 . S
C947 C946 1.376 1_554 S
C947 C948 1.388 . S
C948 H935 0.930 . S
C948 C947 1.388 . S
C948 C949 1.390 . S
C949 C948 1.390 . S
C949 C950 1.394 1_554 S
C949 C955 1.465 1_565 S
C950 C945 1.399 . S
C950 C949 1.394 1_556 S
C950 C951 1.508 1_565 S
C951 C950 1.508 1_545 S
C951 C952 1.484 1_545 S
C951 C953 1.581 . S
C951 C954 1.535 . S
C952 H936 0.959 . S
C952 H937 0.959 . S
C952 H938 0.961 . S
C952 C951 1.484 1_565 S
C953 H939 0.960 . S
C953 H940 0.961 . S
C953 H941 0.959 . S
C953 C951 1.581 . S
C954 C951 1.535 . S
C954 C955 1.396 1_556 S
C954 C959 1.390 . S
C955 C949 1.465 1_545 S
C955 C954 1.396 1_554 S
C955 C956 1.399 . S
C956 H942 0.929 . S
C956 C955 1.399 . S
C956 C957 1.385 . S
C957 H943 0.931 . S
C957 C956 1.385 . S
C957 C958 1.389 . S
C958 C957 1.389 . S
C958 C959 1.387 1_554 S
C959 H944 0.930 . S
C959 C954 1.390 . S
C959 C958 1.387 1_556 S
H960 C972 0.930 . S
H961 C974 0.930 . S
H962 C975 0.930 . S
H963 C979 0.959 . S
H964 C979 0.959 . S
H965 C979 0.961 . S
H966 C980 0.960 . S
H967 C980 0.961 . S
H968 C980 0.959 . S
H969 C983 0.929 . S
H970 C984 0.931 . S
H971 C986 0.930 . S
C972 H960 0.930 . S
C972 C973 1.399 . S
C972 C977 1.399 . S
C973 C972 1.399 . S
C973 C974 1.376 . S
C974 H961 0.930 . S
C974 C973 1.376 . S
C974 C975 1.388 . S
C975 H962 0.930 . S
C975 C974 1.388 . S
C975 C976 1.390 . S
C976 C975 1.390 . S
C976 C977 1.394 . S
C976 C982 1.465 . S
C977 C972 1.399 . S
C977 C976 1.394 . S
C977 C978 1.516 . S
C978 C977 1.516 . S
C978 C979 1.502 . S
C978 C980 1.561 . S
C978 C981 1.526 . S
C979 H963 0.959 . S
C979 H964 0.959 . S
C979 H965 0.961 . S
C979 C978 1.502 . S
C980 H966 0.960 . S
C980 H967 0.961 . S
C980 H968 0.959 . S
C980 C978 1.561 . S
C981 C978 1.526 . S
C981 C982 1.396 . S
C981 C986 1.390 . S
C982 C976 1.465 . S
C982 C981 1.396 . S
C982 C983 1.399 . S
C983 H969 0.929 . S
C983 C982 1.399 . S
C983 C984 1.385 . S
C984 H970 0.931 . S
C984 C983 1.385 . S
C984 C985 1.389 . S
C985 C984 1.389 . S
C985 C986 1.387 . S
C986 H971 0.930 . S
C986 C981 1.390 . S
C986 C985 1.387 . S
H987 C999 0.930 . S
H988 C1001 0.930 . S
H989 C1002 0.930 . S
H990 C1006 0.959 . S
H991 C1006 0.959 . S
H992 C1006 0.961 . S
H993 C1007 0.960 . S
H994 C1007 0.961 . S
H995 C1007 0.959 . S
H996 C1010 0.929 . S
H997 C1011 0.931 . S
H998 C1013 0.930 . S
C999 H987 0.930 . S
C999 C1000 1.399 . S
C999 C1004 1.399 . S
C1000 C999 1.399 . S
C1000 C1001 1.376 . S
C1001 H988 0.930 . S
C1001 C1000 1.376 . S
C1001 C1002 1.388 . S
C1002 H989 0.930 . S
C1002 C1001 1.388 . S
C1002 C1003 1.390 . S
C1003 C1002 1.390 . S
C1003 C1004 1.394 . S
C1003 C1009 1.465 . S
C1004 C999 1.399 . S
C1004 C1003 1.394 . S
C1004 C1005 1.516 . S
C1005 C1004 1.516 . S
C1005 C1006 1.502 . S
C1005 C1007 1.561 . S
C1005 C1008 1.526 . S
C1006 H990 0.959 . S
C1006 H991 0.959 . S
C1006 H992 0.961 . S
C1006 C1005 1.502 . S
C1007 H993 0.960 . S
C1007 H994 0.961 . S
C1007 H995 0.959 . S
C1007 C1005 1.561 . S
C1008 C1005 1.526 . S
C1008 C1009 1.396 . S
C1008 C1013 1.390 . S
C1009 C1003 1.465 . S
C1009 C1008 1.396 . S
C1009 C1010 1.399 . S
C1010 H996 0.929 . S
C1010 C1009 1.399 . S
C1010 C1011 1.385 . S
C1011 H997 0.931 . S
C1011 C1010 1.385 . S
C1011 C1012 1.389 . S
C1012 C1011 1.389 . S
C1012 C1013 1.387 . S
C1013 H998 0.930 . S
C1013 C1008 1.390 . S
C1013 C1012 1.387 . S
H1014 C1026 0.930 . S
H1015 C1028 0.930 . S
H1016 C1029 0.930 . S
H1017 C1033 0.959 . S
H1018 C1033 0.959 . S
H1019 C1033 0.961 . S
H1020 C1034 0.960 . S
H1021 C1034 0.961 . S
H1022 C1034 0.959 . S
H1023 C1037 0.929 . S
H1024 C1038 0.931 . S
H1025 C1040 0.930 . S
C1026 H1014 0.930 . S
C1026 C1027 1.399 . S
C1026 C1031 1.399 . S
C1027 C1026 1.399 . S
C1027 C1028 1.376 . S
C1028 H1015 0.930 . S
C1028 C1027 1.376 . S
C1028 C1029 1.388 . S
C1029 H1016 0.930 . S
C1029 C1028 1.388 . S
C1029 C1030 1.390 . S
C1030 C1029 1.390 . S
C1030 C1031 1.394 . S
C1030 C1036 1.465 . S
C1031 C1026 1.399 . S
C1031 C1030 1.394 . S
C1031 C1032 1.516 . S
C1032 C1031 1.516 . S
C1032 C1033 1.502 . S
C1032 C1034 1.561 . S
C1032 C1035 1.526 . S
C1033 H1017 0.959 . S
C1033 H1018 0.959 . S
C1033 H1019 0.961 . S
C1033 C1032 1.502 . S
C1034 H1020 0.960 . S
C1034 H1021 0.961 . S
C1034 H1022 0.959 . S
C1034 C1032 1.561 . S
C1035 C1032 1.526 . S
C1035 C1036 1.396 . S
C1035 C1040 1.390 . S
C1036 C1030 1.465 . S
C1036 C1035 1.396 . S
C1036 C1037 1.399 . S
C1037 H1023 0.929 . S
C1037 C1036 1.399 . S
C1037 C1038 1.385 . S
C1038 H1024 0.931 . S
C1038 C1037 1.385 . S
C1038 C1039 1.389 . S
C1039 C1038 1.389 . S
C1039 C1040 1.387 . S
C1040 H1025 0.930 . S
C1040 C1035 1.390 . S
C1040 C1039 1.387 . S
H1041 C1053 0.930 . S
H1042 C1055 0.930 . S
H1043 C1056 0.930 . S
H1044 C1060 0.959 . S
H1045 C1060 0.959 . S
H1046 C1060 0.961 . S
H1047 C1061 0.960 . S
H1048 C1061 0.961 . S
H1049 C1061 0.959 . S
H1050 C1064 0.929 . S
H1051 C1065 0.931 . S
H1052 C1067 0.930 . S
C1053 H1041 0.930 . S
C1053 C1054 1.399 . S
C1053 C1058 1.399 . S
C1054 C1053 1.399 . S
C1054 C1055 1.376 . S
C1055 H1042 0.930 . S
C1055 C1054 1.376 . S
C1055 C1056 1.388 . S
C1056 H1043 0.930 . S
C1056 C1055 1.388 . S
C1056 C1057 1.390 . S
C1057 C1056 1.390 . S
C1057 C1058 1.394 . S
C1057 C1063 1.465 . S
C1058 C1053 1.399 . S
C1058 C1057 1.394 . S
C1058 C1059 1.516 . S
C1059 C1058 1.516 . S
C1059 C1060 1.502 . S
C1059 C1061 1.561 . S
C1059 C1062 1.526 . S
C1060 H1044 0.959 . S
C1060 H1045 0.959 . S
C1060 H1046 0.961 . S
C1060 C1059 1.502 . S
C1061 H1047 0.960 . S
C1061 H1048 0.961 . S
C1061 H1049 0.959 . S
C1061 C1059 1.561 . S
C1062 C1059 1.526 . S
C1062 C1063 1.396 . S
C1062 C1067 1.390 . S
C1063 C1057 1.465 . S
C1063 C1062 1.396 . S
C1063 C1064 1.399 . S
C1064 H1050 0.929 . S
C1064 C1063 1.399 . S
C1064 C1065 1.385 . S
C1065 H1051 0.931 . S
C1065 C1064 1.385 . S
C1065 C1066 1.389 . S
C1066 C1065 1.389 . S
C1066 C1067 1.387 . S
C1067 H1052 0.930 . S
C1067 C1062 1.390 . S
C1067 C1066 1.387 . S
H1068 C1080 0.930 . S
H1069 C1082 0.930 . S
H1070 C1083 0.930 . S
H1071 C1087 0.959 . S
H1072 C1087 0.959 . S
H1073 C1087 0.961 . S
H1074 C1088 0.960 . S
H1075 C1088 0.961 . S
H1076 C1088 0.959 . S
H1077 C1091 0.929 . S
H1078 C1092 0.931 . S
H1079 C1094 0.930 . S
C1080 H1068 0.930 . S
C1080 C1081 1.399 . S
C1080 C1085 1.399 . S
C1081 C1080 1.399 . S
C1081 C1082 1.376 . S
C1082 H1069 0.930 . S
C1082 C1081 1.376 . S
C1082 C1083 1.388 . S
C1083 H1070 0.930 . S
C1083 C1082 1.388 . S
C1083 C1084 1.390 . S
C1084 C1083 1.390 . S
C1084 C1085 1.394 . S
C1084 C1090 1.465 . S
C1085 C1080 1.399 . S
C1085 C1084 1.394 . S
C1085 C1086 1.516 . S
C1086 C1085 1.516 . S
C1086 C1087 1.502 . S
C1086 C1088 1.561 . S
C1086 C1089 1.526 . S
C1087 H1071 0.959 . S
C1087 H1072 0.959 . S
C1087 H1073 0.961 . S
C1087 C1086 1.502 . S
C1088 H1074 0.960 . S
C1088 H1075 0.961 . S
C1088 H1076 0.959 . S
C1088 C1086 1.561 . S
C1089 C1086 1.526 . S
C1089 C1090 1.396 . S
C1089 C1094 1.390 1_554 S
C1090 C1084 1.465 . S
C1090 C1089 1.396 . S
C1090 C1091 1.399 . S
C1091 H1077 0.929 . S
C1091 C1090 1.399 . S
C1091 C1092 1.385 1_554 S
C1092 H1078 0.931 . S
C1092 C1091 1.385 1_556 S
C1092 C1093 1.389 . S
C1093 C1092 1.389 . S
C1093 C1094 1.387 . S
C1094 H1079 0.930 . S
C1094 C1089 1.390 1_556 S
C1094 C1093 1.387 . S
H1095 C1107 0.930 . S
H1096 C1109 0.930 . S
H1097 C1110 0.930 . S
H1098 C1114 0.959 . S
H1099 C1114 0.959 . S
H1100 C1114 0.961 . S
H1101 C1115 0.960 . S
H1102 C1115 0.961 . S
H1103 C1115 0.959 . S
H1104 C1118 0.929 . S
H1105 C1119 0.931 . S
H1106 C1121 0.930 . S
C1107 H1095 0.930 . S
C1107 C1108 1.399 . S
C1107 C1112 1.399 . S
C1108 C1107 1.399 . S
C1108 C1109 1.376 . S
C1109 H1096 0.930 . S
C1109 C1108 1.376 . S
C1109 C1110 1.388 . S
C1110 H1097 0.930 . S
C1110 C1109 1.388 . S
C1110 C1111 1.390 . S
C1111 C1110 1.390 . S
C1111 C1112 1.394 . S
C1111 C1117 1.465 . S
C1112 C1107 1.399 . S
C1112 C1111 1.394 . S
C1112 C1113 1.516 . S
C1113 C1112 1.516 . S
C1113 C1114 1.502 . S
C1113 C1115 1.561 . S
C1113 C1116 1.526 . S
C1114 H1098 0.959 . S
C1114 H1099 0.959 . S
C1114 H1100 0.961 . S
C1114 C1113 1.502 . S
C1115 H1101 0.960 . S
C1115 H1102 0.961 . S
C1115 H1103 0.959 . S
C1115 C1113 1.561 . S
C1116 C1113 1.526 . S
C1116 C1117 1.396 . S
C1116 C1121 1.390 1_554 S
C1117 C1111 1.465 . S
C1117 C1116 1.396 . S
C1117 C1118 1.399 . S
C1118 H1104 0.929 . S
C1118 C1117 1.399 . S
C1118 C1119 1.385 1_554 S
C1119 H1105 0.931 . S
C1119 C1118 1.385 1_556 S
C1119 C1120 1.389 . S
C1120 C1119 1.389 . S
C1120 C1121 1.387 . S
C1121 H1106 0.930 . S
C1121 C1116 1.390 1_556 S
C1121 C1120 1.387 . S
H1122 C1134 0.930 . S
H1123 C1136 0.930 . S
H1124 C1137 0.930 . S
H1125 C1141 0.959 . S
H1126 C1141 0.959 . S
H1127 C1141 0.961 . S
H1128 C1142 0.919 1_545 S
H1129 C1142 0.961 1_545 S
H1130 C1142 0.959 . S
H1131 C1145 0.929 . S
H1132 C1146 0.931 . S
H1133 C1148 0.930 . S
C1134 H1122 0.930 . S
C1134 C1135 1.399 . S
C1134 C1139 1.399 1_554 S
C1135 C1134 1.399 . S
C1135 C1136 1.376 . S
C1136 H1123 0.930 . S
C1136 C1135 1.376 . S
C1136 C1137 1.388 1_554 S
C1137 H1124 0.930 . S
C1137 C1136 1.388 1_556 S
C1137 C1138 1.390 . S
C1138 C1137 1.390 . S
C1138 C1139 1.394 . S
C1138 C1144 1.465 . S
C1139 C1134 1.399 1_556 S
C1139 C1138 1.394 . S
C1139 C1140 1.516 . S
C1140 C1139 1.516 . S
C1140 C1141 1.502 . S
C1140 C1142 1.561 . S
C1140 C1143 1.526 . S
C1141 H1125 0.959 . S
C1141 H1126 0.959 . S
C1141 H1127 0.961 . S
C1141 C1140 1.502 . S
C1142 H1128 0.919 1_565 S
C1142 H1129 0.961 1_565 S
C1142 H1130 0.959 . S
C1142 C1140 1.561 . S
C1143 C1140 1.526 . S
C1143 C1144 1.396 . S
C1143 C1148 1.390 . S
C1144 C1138 1.465 . S
C1144 C1143 1.396 . S
C1144 C1145 1.399 . S
C1145 H1131 0.929 . S
C1145 C1144 1.399 . S
C1145 C1146 1.385 . S
C1146 H1132 0.931 . S
C1146 C1145 1.385 . S
C1146 C1147 1.389 . S
C1147 C1146 1.389 . S
C1147 C1148 1.387 . S
C1148 H1133 0.930 . S
C1148 C1143 1.390 . S
C1148 C1147 1.387 . S
H1149 C1161 0.930 . S
H1150 C1163 0.930 . S
H1151 C1164 0.930 . S
H1152 C1168 0.959 . S
H1153 C1168 0.959 . S
H1154 C1168 0.961 . S
H1155 C1169 0.960 . S
H1156 C1169 0.961 . S
H1157 C1169 0.959 . S
H1158 C1172 0.929 . S
H1159 C1173 0.931 . S
H1160 C1175 0.930 . S
C1161 H1149 0.930 . S
C1161 C1162 1.399 . S
C1161 C1166 1.399 1_554 S
C1162 C1161 1.399 . S
C1162 C1163 1.376 . S
C1163 H1150 0.930 . S
C1163 C1162 1.376 . S
C1163 C1164 1.388 1_554 S
C1164 H1151 0.930 . S
C1164 C1163 1.388 1_556 S
C1164 C1165 1.390 . S
C1165 C1164 1.390 . S
C1165 C1166 1.394 . S
C1165 C1171 1.465 . S
C1166 C1161 1.399 1_556 S
C1166 C1165 1.394 . S
C1166 C1167 1.516 . S
C1167 C1166 1.516 . S
C1167 C1168 1.502 . S
C1167 C1169 1.561 . S
C1167 C1170 1.526 . S
C1168 H1152 0.959 . S
C1168 H1153 0.959 . S
C1168 H1154 0.961 . S
C1168 C1167 1.502 . S
C1169 H1155 0.960 . S
C1169 H1156 0.961 . S
C1169 H1157 0.959 . S
C1169 C1167 1.561 . S
C1170 C1167 1.526 . S
C1170 C1171 1.396 . S
C1170 C1175 1.390 . S
C1171 C1165 1.465 . S
C1171 C1170 1.396 . S
C1171 C1172 1.399 . S
C1172 H1158 0.929 . S
C1172 C1171 1.399 . S
C1172 C1173 1.385 . S
C1173 H1159 0.931 . S
C1173 C1172 1.385 . S
C1173 C1174 1.389 . S
C1174 C1173 1.389 . S
C1174 C1175 1.387 . S
C1175 H1160 0.930 . S
C1175 C1170 1.390 . S
C1175 C1174 1.387 . S
H1176 C1188 0.930 . S
H1177 C1190 0.930 . S
H1178 C1191 0.930 . S
H1179 C1195 0.959 . S
H1180 C1195 0.959 . S
H1181 C1195 0.961 . S
H1182 C1196 0.960 . S
H1183 C1196 0.961 . S
H1184 C1196 0.959 . S
H1185 C1199 0.929 . S
H1186 C1200 0.931 . S
H1187 C1202 0.930 . S
C1188 H1176 0.930 . S
C1188 C1189 1.399 . S
C1188 C1193 1.399 1_556 S
C1189 C1188 1.399 . S
C1189 C1190 1.376 . S
C1190 H1177 0.930 . S
C1190 C1189 1.376 . S
C1190 C1191 1.388 1_556 S
C1191 H1178 0.930 . S
C1191 C1190 1.388 1_554 S
C1191 C1192 1.390 . S
C1192 C1191 1.390 . S
C1192 C1193 1.394 . S
C1192 C1198 1.465 . S
C1193 C1188 1.399 1_554 S
C1193 C1192 1.394 . S
C1193 C1194 1.516 . S
C1194 C1193 1.516 . S
C1194 C1195 1.502 . S
C1194 C1196 1.561 . S
C1194 C1197 1.526 . S
C1195 H1179 0.959 . S
C1195 H1180 0.959 . S
C1195 H1181 0.961 . S
C1195 C1194 1.502 . S
C1196 H1182 0.960 . S
C1196 H1183 0.961 . S
C1196 H1184 0.959 . S
C1196 C1194 1.561 . S
C1197 C1194 1.526 . S
C1197 C1198 1.396 . S
C1197 C1202 1.390 . S
C1198 C1192 1.465 . S
C1198 C1197 1.396 . S
C1198 C1199 1.399 . S
C1199 H1185 0.929 . S
C1199 C1198 1.399 . S
C1199 C1200 1.385 . S
C1200 H1186 0.931 . S
C1200 C1199 1.385 . S
C1200 C1201 1.389 . S
C1201 C1200 1.389 . S
C1201 C1202 1.387 . S
C1202 H1187 0.930 . S
C1202 C1197 1.390 . S
C1202 C1201 1.387 . S
H1203 C1215 0.930 . S
H1204 C1217 0.930 . S
H1205 C1218 0.930 . S
H1206 C1222 0.959 . S
H1207 C1222 0.959 . S
H1208 C1222 0.961 . S
H1209 C1223 0.960 . S
H1210 C1223 0.961 . S
H1211 C1223 0.959 . S
H1212 C1226 0.929 . S
H1213 C1227 0.931 . S
H1214 C1229 0.930 . S
C1215 H1203 0.930 . S
C1215 C1216 1.399 . S
C1215 C1220 1.399 1_556 S
C1216 C1215 1.399 . S
C1216 C1217 1.376 . S
C1217 H1204 0.930 . S
C1217 C1216 1.376 . S
C1217 C1218 1.388 1_556 S
C1218 H1205 0.930 . S
C1218 C1217 1.388 1_554 S
C1218 C1219 1.390 . S
C1219 C1218 1.390 . S
C1219 C1220 1.394 . S
C1219 C1225 1.465 . S
C1220 C1215 1.399 1_554 S
C1220 C1219 1.394 . S
C1220 C1221 1.516 . S
C1221 C1220 1.516 . S
C1221 C1222 1.502 . S
C1221 C1223 1.561 . S
C1221 C1224 1.526 . S
C1222 H1206 0.959 . S
C1222 H1207 0.959 . S
C1222 H1208 0.961 . S
C1222 C1221 1.502 . S
C1223 H1209 0.960 . S
C1223 H1210 0.961 . S
C1223 H1211 0.959 . S
C1223 C1221 1.561 . S
C1224 C1221 1.526 . S
C1224 C1225 1.396 . S
C1224 C1229 1.390 . S
C1225 C1219 1.465 . S
C1225 C1224 1.396 . S
C1225 C1226 1.399 . S
C1226 H1212 0.929 . S
C1226 C1225 1.399 . S
C1226 C1227 1.385 . S
C1227 H1213 0.931 . S
C1227 C1226 1.385 . S
C1227 C1228 1.389 . S
C1228 C1227 1.389 . S
C1228 C1229 1.387 . S
C1229 H1214 0.930 . S
C1229 C1224 1.390 . S
C1229 C1228 1.387 . S
H1230 C1242 0.930 . S
H1231 C1244 0.930 . S
H1232 C1245 0.930 . S
H1233 C1249 0.959 . S
H1234 C1249 0.959 . S
H1235 C1249 0.961 . S
H1236 C1250 0.960 . S
H1237 C1250 0.961 . S
H1238 C1250 0.959 . S
H1239 C1253 0.929 . S
H1240 C1254 0.931 . S
H1241 C1256 0.930 . S
C1242 H1230 0.930 . S
C1242 C1243 1.399 . S
C1242 C1247 1.399 1_554 S
C1243 C1242 1.399 . S
C1243 C1244 1.376 . S
C1244 H1231 0.930 . S
C1244 C1243 1.376 . S
C1244 C1245 1.388 1_554 S
C1245 H1232 0.930 . S
C1245 C1244 1.388 1_556 S
C1245 C1246 1.390 . S
C1246 C1245 1.390 . S
C1246 C1247 1.394 . S
C1246 C1252 1.465 . S
C1247 C1242 1.399 1_556 S
C1247 C1246 1.394 . S
C1247 C1248 1.516 . S
C1248 C1247 1.516 . S
C1248 C1249 1.502 . S
C1248 C1250 1.561 . S
C1248 C1251 1.526 . S
C1249 H1233 0.959 . S
C1249 H1234 0.959 . S
C1249 H1235 0.961 . S
C1249 C1248 1.502 . S
C1250 H1236 0.960 . S
C1250 H1237 0.961 . S
C1250 H1238 0.959 . S
C1250 C1248 1.561 . S
C1251 C1248 1.526 . S
C1251 C1252 1.396 . S
C1251 C1256 1.390 . S
C1252 C1246 1.465 . S
C1252 C1251 1.396 . S
C1252 C1253 1.399 . S
C1253 H1239 0.929 . S
C1253 C1252 1.399 . S
C1253 C1254 1.385 . S
C1254 H1240 0.931 . S
C1254 C1253 1.385 . S
C1254 C1255 1.389 . S
C1255 C1254 1.389 . S
C1255 C1256 1.387 . S
C1256 H1241 0.930 . S
C1256 C1251 1.390 . S
C1256 C1255 1.387 . S
H1257 C1269 0.930 . S
H1258 C1271 0.930 . S
H1259 C1272 0.930 . S
H1260 C1276 0.959 . S
H1261 C1276 0.959 . S
H1262 C1276 0.961 . S
H1263 C1277 0.960 . S
H1264 C1277 0.961 . S
H1265 C1277 0.959 . S
H1266 C1280 0.929 . S
H1267 C1281 0.931 . S
H1268 C1283 0.930 . S
C1269 H1257 0.930 . S
C1269 C1270 1.399 . S
C1269 C1274 1.399 1_554 S
C1270 C1269 1.399 . S
C1270 C1271 1.376 . S
C1271 H1258 0.930 . S
C1271 C1270 1.376 . S
C1271 C1272 1.388 1_554 S
C1272 H1259 0.930 . S
C1272 C1271 1.388 1_556 S
C1272 C1273 1.390 . S
C1273 C1272 1.390 . S
C1273 C1274 1.394 . S
C1273 C1279 1.465 . S
C1274 C1269 1.399 1_556 S
C1274 C1273 1.394 . S
C1274 C1275 1.516 . S
C1275 C1274 1.516 . S
C1275 C1276 1.502 . S
C1275 C1277 1.561 . S
C1275 C1278 1.526 . S
C1276 H1260 0.959 . S
C1276 H1261 0.959 . S
C1276 H1262 0.961 . S
C1276 C1275 1.502 . S
C1277 H1263 0.960 . S
C1277 H1264 0.961 . S
C1277 H1265 0.959 . S
C1277 C1275 1.561 . S
C1278 C1275 1.526 . S
C1278 C1279 1.396 . S
C1278 C1283 1.390 . S
C1279 C1273 1.465 . S
C1279 C1278 1.396 . S
C1279 C1280 1.399 . S
C1280 H1266 0.929 . S
C1280 C1279 1.399 . S
C1280 C1281 1.385 . S
C1281 H1267 0.931 . S
C1281 C1280 1.385 . S
C1281 C1282 1.389 . S
C1282 C1281 1.389 . S
C1282 C1283 1.387 . S
C1283 H1268 0.930 . S
C1283 C1278 1.390 . S
C1283 C1282 1.387 . S
H1284 C1296 0.930 . S
H1285 C1298 0.930 . S
H1286 C1299 0.930 . S
H1287 C1303 0.959 . S
H1288 C1303 0.959 . S
H1289 C1303 0.961 . S
H1290 C1304 0.960 . S
H1291 C1304 0.961 . S
H1292 C1304 0.959 . S
H1293 C1307 0.929 . S
H1294 C1308 0.931 . S
H1295 C1310 0.930 . S
C1296 H1284 0.930 . S
C1296 C1297 1.399 . S
C1296 C1301 1.399 . S
C1297 C1296 1.399 . S
C1297 C1298 1.376 . S
C1298 H1285 0.930 . S
C1298 C1297 1.376 . S
C1298 C1299 1.388 . S
C1299 H1286 0.930 . S
C1299 C1298 1.388 . S
C1299 C1300 1.390 . S
C1300 C1299 1.390 . S
C1300 C1301 1.394 . S
C1300 C1306 1.465 . S
C1301 C1296 1.399 . S
C1301 C1300 1.394 . S
C1301 C1302 1.516 . S
C1302 C1301 1.516 . S
C1302 C1303 1.502 . S
C1302 C1304 1.561 . S
C1302 C1305 1.526 . S
C1303 H1287 0.959 . S
C1303 H1288 0.959 . S
C1303 H1289 0.961 . S
C1303 C1302 1.502 . S
C1304 H1290 0.960 . S
C1304 H1291 0.961 . S
C1304 H1292 0.959 . S
C1304 C1302 1.561 . S
C1305 C1302 1.526 . S
C1305 C1306 1.396 . S
C1305 C1310 1.390 . S
C1306 C1300 1.465 . S
C1306 C1305 1.396 . S
C1306 C1307 1.399 . S
C1307 H1293 0.929 . S
C1307 C1306 1.399 . S
C1307 C1308 1.385 . S
C1308 H1294 0.931 . S
C1308 C1307 1.385 . S
C1308 C1309 1.389 . S
C1309 C1308 1.389 . S
C1309 C1310 1.387 . S
C1310 H1295 0.930 . S
C1310 C1305 1.390 . S
C1310 C1309 1.387 . S
H1311 C1323 0.930 . S
H1312 C1325 0.930 . S
H1313 C1326 0.930 . S
H1314 C1330 0.959 . S
H1315 C1330 0.959 . S
H1316 C1330 0.961 . S
H1317 C1331 0.960 . S
H1318 C1331 0.961 . S
H1319 C1331 0.959 . S
H1320 C1334 0.929 . S
H1321 C1335 0.931 . S
H1322 C1337 0.930 . S
C1323 H1311 0.930 . S
C1323 C1324 1.399 . S
C1323 C1328 1.399 . S
C1324 C1323 1.399 . S
C1324 C1325 1.376 . S
C1325 H1312 0.930 . S
C1325 C1324 1.376 . S
C1325 C1326 1.388 . S
C1326 H1313 0.930 . S
C1326 C1325 1.388 . S
C1326 C1327 1.390 . S
C1327 C1326 1.390 . S
C1327 C1328 1.394 . S
C1327 C1333 1.465 . S
C1328 C1323 1.399 . S
C1328 C1327 1.394 . S
C1328 C1329 1.516 . S
C1329 C1328 1.516 . S
C1329 C1330 1.502 . S
C1329 C1331 1.561 . S
C1329 C1332 1.526 . S
C1330 H1314 0.959 . S
C1330 H1315 0.959 . S
C1330 H1316 0.961 . S
C1330 C1329 1.502 . S
C1331 H1317 0.960 . S
C1331 H1318 0.961 . S
C1331 H1319 0.959 . S
C1331 C1329 1.561 . S
C1332 C1329 1.526 . S
C1332 C1333 1.396 . S
C1332 C1337 1.390 . S
C1333 C1327 1.465 . S
C1333 C1332 1.396 . S
C1333 C1334 1.399 . S
C1334 H1320 0.929 . S
C1334 C1333 1.399 . S
C1334 C1335 1.385 . S
C1335 H1321 0.931 . S
C1335 C1334 1.385 . S
C1335 C1336 1.389 . S
C1336 C1335 1.389 . S
C1336 C1337 1.387 . S
C1337 H1322 0.930 . S
C1337 C1332 1.390 . S
C1337 C1336 1.387 . S
H1338 C1350 0.930 . S
H1339 C1352 0.930 . S
H1340 C1353 0.930 . S
H1341 C1357 0.959 . S
H1342 C1357 0.959 . S
H1343 C1357 0.961 . S
H1344 C1358 0.971 . S
H1345 C1358 0.971 . S
H1346 C1358 0.959 . S
H1347 C1361 0.929 . S
H1348 C1362 0.931 . S
H1349 C1364 0.930 . S
C1350 H1338 0.930 . S
C1350 C1351 1.399 . S
C1350 C1355 1.399 . S
C1351 C1350 1.399 . S
C1351 C1352 1.376 . S
C1352 H1339 0.930 . S
C1352 C1351 1.376 . S
C1352 C1353 1.388 . S
C1353 H1340 0.930 . S
C1353 C1352 1.388 . S
C1353 C1354 1.390 . S
C1354 C1353 1.390 . S
C1354 C1355 1.394 . S
C1354 C1360 1.465 . S
C1355 C1350 1.399 . S
C1355 C1354 1.394 . S
C1355 C1356 1.516 . S
C1356 C1355 1.516 . S
C1356 C1357 1.502 . S
C1356 C1358 1.561 . S
C1356 C1359 1.526 . S
C1357 H1341 0.959 . S
C1357 H1342 0.959 . S
C1357 H1343 0.961 . S
C1357 C1356 1.502 . S
C1358 H1344 0.971 . S
C1358 H1345 0.971 . S
C1358 H1346 0.959 . S
C1358 C1356 1.561 . S
C1359 C1356 1.526 . S
C1359 C1360 1.396 . S
C1359 C1364 1.390 . S
C1360 C1354 1.465 . S
C1360 C1359 1.396 . S
C1360 C1361 1.399 . S
C1361 H1347 0.929 . S
C1361 C1360 1.399 . S
C1361 C1362 1.385 . S
C1362 H1348 0.931 . S
C1362 C1361 1.385 . S
C1362 C1363 1.389 . S
C1363 C1362 1.389 . S
C1363 C1364 1.387 . S
C1364 H1349 0.930 . S
C1364 C1359 1.390 . S
C1364 C1363 1.387 . S
H1365 C1377 0.930 . S
H1366 C1379 0.930 . S
H1367 C1380 0.930 . S
H1368 C1384 0.959 . S
H1369 C1384 0.959 . S
H1370 C1384 0.961 . S
H1371 C1385 0.960 . S
H1372 C1385 0.961 . S
H1373 C1385 0.959 . S
H1374 C1388 0.929 . S
H1375 C1389 0.931 . S
H1376 C1391 0.930 . S
C1377 H1365 0.930 . S
C1377 C1378 1.399 . S
C1377 C1382 1.399 . S
C1378 C1377 1.399 . S
C1378 C1379 1.376 . S
C1379 H1366 0.930 . S
C1379 C1378 1.376 . S
C1379 C1380 1.388 . S
C1380 H1367 0.930 . S
C1380 C1379 1.388 . S
C1380 C1381 1.390 . S
C1381 C1380 1.390 . S
C1381 C1382 1.394 . S
C1381 C1387 1.465 . S
C1382 C1377 1.399 . S
C1382 C1381 1.394 . S
C1382 C1383 1.516 . S
C1383 C1382 1.516 . S
C1383 C1384 1.502 . S
C1383 C1385 1.561 . S
C1383 C1386 1.526 . S
C1384 H1368 0.959 . S
C1384 H1369 0.959 . S
C1384 H1370 0.961 . S
C1384 C1383 1.502 . S
C1385 H1371 0.960 . S
C1385 H1372 0.961 . S
C1385 H1373 0.959 . S
C1385 C1383 1.561 . S
C1386 C1383 1.526 . S
C1386 C1387 1.396 . S
C1386 C1391 1.390 . S
C1387 C1381 1.465 . S
C1387 C1386 1.396 . S
C1387 C1388 1.399 . S
C1388 H1374 0.929 . S
C1388 C1387 1.399 . S
C1388 C1389 1.385 . S
C1389 H1375 0.931 . S
C1389 C1388 1.385 . S
C1389 C1390 1.389 . S
C1390 C1389 1.389 . S
C1390 C1391 1.387 . S
C1391 H1376 0.930 . S
C1391 C1386 1.390 . S
C1391 C1390 1.387 . S
H1392 C1404 0.930 . S
H1393 C1406 0.930 1_556 S
H1394 C1407 0.930 1_556 S
H1395 C1411 0.959 . S
H1396 C1411 0.959 . S
H1397 C1411 0.961 . S
H1398 C1412 0.960 . S
H1399 C1412 0.961 . S
H1400 C1412 0.959 . S
H1401 C1415 0.929 1_556 S
H1402 C1416 0.931 1_556 S
H1403 C1418 0.930 . S
C1404 H1392 0.930 . S
C1404 C1405 1.399 . S
C1404 C1409 1.399 . S
C1405 C1404 1.399 . S
C1405 C1406 1.376 . S
C1406 H1393 0.930 1_554 S
C1406 C1405 1.376 . S
C1406 C1407 1.388 . S
C1407 H1394 0.930 1_554 S
C1407 C1406 1.388 . S
C1407 C1408 1.390 . S
C1408 C1407 1.390 . S
C1408 C1409 1.394 . S
C1408 C1414 1.465 . S
C1409 C1404 1.399 . S
C1409 C1408 1.394 . S
C1409 C1410 1.516 . S
C1410 C1409 1.516 . S
C1410 C1411 1.502 . S
C1410 C1412 1.561 . S
C1410 C1413 1.526 . S
C1411 H1395 0.959 . S
C1411 H1396 0.959 . S
C1411 H1397 0.961 . S
C1411 C1410 1.502 . S
C1412 H1398 0.960 . S
C1412 H1399 0.961 . S
C1412 H1400 0.959 . S
C1412 C1410 1.561 . S
C1413 C1410 1.526 . S
C1413 C1414 1.396 . S
C1413 C1418 1.390 . S
C1414 C1408 1.465 . S
C1414 C1413 1.396 . S
C1414 C1415 1.399 . S
C1415 H1401 0.929 1_554 S
C1415 C1414 1.399 . S
C1415 C1416 1.385 . S
C1416 H1402 0.931 1_554 S
C1416 C1415 1.385 . S
C1416 C1417 1.389 . S
C1417 C1416 1.389 . S
C1417 C1418 1.387 . S
C1418 H1403 0.930 . S
C1418 C1413 1.390 . S
C1418 C1417 1.387 . S
H1419 C1431 0.930 . S
H1420 C1433 0.930 . S
H1421 C1434 0.930 . S
H1422 C1438 0.959 1_556 S
H1423 C1438 0.959 . S
H1424 C1438 0.961 . S
H1425 C1439 0.960 . S
H1426 C1439 0.961 . S
H1427 C1439 0.959 . S
H1428 C1442 0.929 . S
H1429 C1443 0.931 . S
H1430 C1445 0.930 . S
C1431 H1419 0.930 . S
C1431 C1432 1.399 . S
C1431 C1436 1.399 . S
C1432 C1431 1.399 . S
C1432 C1433 1.376 . S
C1433 H1420 0.930 . S
C1433 C1432 1.376 . S
C1433 C1434 1.388 . S
C1434 H1421 0.930 . S
C1434 C1433 1.388 . S
C1434 C1435 1.390 . S
C1435 C1434 1.390 . S
C1435 C1436 1.394 . S
C1435 C1441 1.465 . S
C1436 C1431 1.399 . S
C1436 C1435 1.394 . S
C1436 C1437 1.516 . S
C1437 C1436 1.516 . S
C1437 C1438 1.502 1_556 S
C1437 C1439 1.561 1_556 S
C1437 C1440 1.526 . S
C1438 H1422 0.959 1_554 S
C1438 H1423 0.959 . S
C1438 H1424 0.961 . S
C1438 C1437 1.502 1_554 S
C1439 H1425 0.960 . S
C1439 H1426 0.961 . S
C1439 H1427 0.959 . S
C1439 C1437 1.561 1_554 S
C1440 C1437 1.526 . S
C1440 C1441 1.396 . S
C1440 C1445 1.390 . S
C1441 C1435 1.465 . S
C1441 C1440 1.396 . S
C1441 C1442 1.399 . S
C1442 H1428 0.929 . S
C1442 C1441 1.399 . S
C1442 C1443 1.385 . S
C1443 H1429 0.931 . S
C1443 C1442 1.385 . S
C1443 C1444 1.389 . S
C1444 C1443 1.389 . S
C1444 C1445 1.387 . S
C1445 H1430 0.930 . S
C1445 C1440 1.390 . S
C1445 C1444 1.387 . S
H1446 C1458 0.930 . S
H1447 C1460 0.930 . S
H1448 C1461 0.930 . S
H1449 C1465 0.959 . S
H1450 C1465 0.959 . S
H1451 C1465 0.961 . S
H1452 C1466 0.960 . S
H1453 C1466 0.961 . S
H1454 C1466 0.959 . S
H1455 C1469 0.929 . S
H1456 C1470 0.931 . S
H1457 C1472 0.930 . S
C1458 H1446 0.930 . S
C1458 C1459 1.399 . S
C1458 C1463 1.399 . S
C1459 C1458 1.399 . S
C1459 C1460 1.376 . S
C1460 H1447 0.930 . S
C1460 C1459 1.376 . S
C1460 C1461 1.388 . S
C1461 H1448 0.930 . S
C1461 C1460 1.388 . S
C1461 C1462 1.390 . S
C1462 C1461 1.390 . S
C1462 C1463 1.394 . S
C1462 C1468 1.465 . S
C1463 C1458 1.399 . S
C1463 C1462 1.394 . S
C1463 C1464 1.516 . S
C1464 C1463 1.516 . S
C1464 C1465 1.502 . S
C1464 C1466 1.561 . S
C1464 C1467 1.526 . S
C1465 H1449 0.959 . S
C1465 H1450 0.959 . S
C1465 H1451 0.961 . S
C1465 C1464 1.502 . S
C1466 H1452 0.960 . S
C1466 H1453 0.961 . S
C1466 H1454 0.959 . S
C1466 C1464 1.561 . S
C1467 C1464 1.526 . S
C1467 C1468 1.396 . S
C1467 C1472 1.390 . S
C1468 C1462 1.465 . S
C1468 C1467 1.396 . S
C1468 C1469 1.399 . S
C1469 H1455 0.929 . S
C1469 C1468 1.399 . S
C1469 C1470 1.385 . S
C1470 H1456 0.931 . S
C1470 C1469 1.385 . S
C1470 C1471 1.389 . S
C1471 C1470 1.389 . S
C1471 C1472 1.387 . S
C1472 H1457 0.930 . S
C1472 C1467 1.390 . S
C1472 C1471 1.387 . S
H1473 C1485 0.930 . S
H1474 C1487 0.930 . S
H1475 C1488 0.930 . S
H1476 C1492 0.959 . S
H1477 C1492 0.959 . S
H1478 C1492 0.961 . S
H1479 C1493 0.960 . S
H1480 C1493 0.961 . S
H1481 C1493 0.959 . S
H1482 C1496 0.929 . S
H1483 C1497 0.931 . S
H1484 C1499 0.930 . S
C1485 H1473 0.930 . S
C1485 C1486 1.399 . S
C1485 C1490 1.399 . S
C1486 C1485 1.399 . S
C1486 C1487 1.376 . S
C1487 H1474 0.930 . S
C1487 C1486 1.376 . S
C1487 C1488 1.388 . S
C1488 H1475 0.930 . S
C1488 C1487 1.388 . S
C1488 C1489 1.390 . S
C1489 C1488 1.390 . S
C1489 C1490 1.394 . S
C1489 C1495 1.465 . S
C1490 C1485 1.399 . S
C1490 C1489 1.394 . S
C1490 C1491 1.516 . S
C1491 C1490 1.516 . S
C1491 C1492 1.502 . S
C1491 C1493 1.561 . S
C1491 C1494 1.526 . S
C1492 H1476 0.959 . S
C1492 H1477 0.959 . S
C1492 H1478 0.961 . S
C1492 C1491 1.502 . S
C1493 H1479 0.960 . S
C1493 H1480 0.961 . S
C1493 H1481 0.959 . S
C1493 C1491 1.561 . S
C1494 C1491 1.526 . S
C1494 C1495 1.396 . S
C1494 C1499 1.390 . S
C1495 C1489 1.465 . S
C1495 C1494 1.396 . S
C1495 C1496 1.399 . S
C1496 H1482 0.929 . S
C1496 C1495 1.399 . S
C1496 C1497 1.385 . S
C1497 H1483 0.931 . S
C1497 C1496 1.385 . S
C1497 C1498 1.389 . S
C1498 C1497 1.389 . S
C1498 C1499 1.387 . S
C1499 H1484 0.930 . S
C1499 C1494 1.390 . S
C1499 C1498 1.387 . S
H1500 C1512 0.930 . S
H1501 C1514 0.930 . S
H1502 C1515 0.930 . S
H1503 C1519 0.959 . S
H1504 C1519 0.959 . S
H1505 C1519 0.961 . S
H1506 C1520 0.960 . S
H1507 C1520 0.961 . S
H1508 C1520 0.959 . S
H1509 C1523 0.929 . S
H1510 C1524 0.931 . S
H1511 C1526 0.930 . S
C1512 H1500 0.930 . S
C1512 C1513 1.399 . S
C1512 C1517 1.399 . S
C1513 C1512 1.399 . S
C1513 C1514 1.376 . S
C1514 H1501 0.930 . S
C1514 C1513 1.376 . S
C1514 C1515 1.388 . S
C1515 H1502 0.930 . S
C1515 C1514 1.388 . S
C1515 C1516 1.390 . S
C1516 C1515 1.390 . S
C1516 C1517 1.394 . S
C1516 C1522 1.465 . S
C1517 C1512 1.399 . S
C1517 C1516 1.394 . S
C1517 C1518 1.516 . S
C1518 C1517 1.516 . S
C1518 C1519 1.502 . S
C1518 C1520 1.561 . S
C1518 C1521 1.526 . S
C1519 H1503 0.959 . S
C1519 H1504 0.959 . S
C1519 H1505 0.961 . S
C1519 C1518 1.502 . S
C1520 H1506 0.960 . S
C1520 H1507 0.961 . S
C1520 H1508 0.959 . S
C1520 C1518 1.561 . S
C1521 C1518 1.526 . S
C1521 C1522 1.396 . S
C1521 C1526 1.390 . S
C1522 C1516 1.465 . S
C1522 C1521 1.396 . S
C1522 C1523 1.399 . S
C1523 H1509 0.929 . S
C1523 C1522 1.399 . S
C1523 C1524 1.385 . S
C1524 H1510 0.931 . S
C1524 C1523 1.385 . S
C1524 C1525 1.389 . S
C1525 C1524 1.389 . S
C1525 C1526 1.387 . S
C1526 H1511 0.930 . S
C1526 C1521 1.390 . S
C1526 C1525 1.387 . S
H1527 C1539 0.930 . S
H1528 C1541 0.930 . S
H1529 C1542 0.930 . S
H1530 C1546 0.959 . S
H1531 C1546 0.959 . S
H1532 C1546 0.961 . S
H1533 C1547 0.960 . S
H1534 C1547 0.961 . S
H1535 C1547 0.959 . S
H1536 C1550 0.929 . S
H1537 C1551 0.931 . S
H1538 C1553 0.930 . S
C1539 H1527 0.930 . S
C1539 C1540 1.399 . S
C1539 C1544 1.399 . S
C1540 C1539 1.399 . S
C1540 C1541 1.376 . S
C1541 H1528 0.930 . S
C1541 C1540 1.376 . S
C1541 C1542 1.388 . S
C1542 H1529 0.930 . S
C1542 C1541 1.388 . S
C1542 C1543 1.390 . S
C1543 C1542 1.390 . S
C1543 C1544 1.394 . S
C1543 C1549 1.465 . S
C1544 C1539 1.399 . S
C1544 C1543 1.394 . S
C1544 C1545 1.516 . S
C1545 C1544 1.516 . S
C1545 C1546 1.502 . S
C1545 C1547 1.561 . S
C1545 C1548 1.526 . S
C1546 H1530 0.959 . S
C1546 H1531 0.959 . S
C1546 H1532 0.961 . S
C1546 C1545 1.502 . S
C1547 H1533 0.960 . S
C1547 H1534 0.961 . S
C1547 H1535 0.959 . S
C1547 C1545 1.561 . S
C1548 C1545 1.526 . S
C1548 C1549 1.396 . S
C1548 C1553 1.390 . S
C1549 C1543 1.465 . S
C1549 C1548 1.396 . S
C1549 C1550 1.399 . S
C1550 H1536 0.929 . S
C1550 C1549 1.399 . S
C1550 C1551 1.385 . S
C1551 H1537 0.931 . S
C1551 C1550 1.385 . S
C1551 C1552 1.389 . S
C1552 C1551 1.389 . S
C1552 C1553 1.387 . S
C1553 H1538 0.930 . S
C1553 C1548 1.390 . S
C1553 C1552 1.387 . S
H1554 C1566 0.930 . S
H1555 C1568 0.930 1_556 S
H1556 C1569 0.930 1_556 S
H1557 C1573 0.959 . S
H1558 C1573 0.959 . S
H1559 C1573 0.961 . S
H1560 C1574 0.960 . S
H1561 C1574 0.961 . S
H1562 C1574 0.959 . S
H1563 C1577 0.929 1_556 S
H1564 C1578 0.931 1_556 S
H1565 C1580 0.930 . S
C1566 H1554 0.930 . S
C1566 C1567 1.399 . S
C1566 C1571 1.399 . S
C1567 C1566 1.399 . S
C1567 C1568 1.376 . S
C1568 H1555 0.930 1_554 S
C1568 C1567 1.376 . S
C1568 C1569 1.388 . S
C1569 H1556 0.930 1_554 S
C1569 C1568 1.388 . S
C1569 C1570 1.390 . S
C1570 C1569 1.390 . S
C1570 C1571 1.394 . S
C1570 C1576 1.465 . S
C1571 C1566 1.399 . S
C1571 C1570 1.394 . S
C1571 C1572 1.516 . S
C1572 C1571 1.516 . S
C1572 C1573 1.502 . S
C1572 C1574 1.561 . S
C1572 C1575 1.526 . S
C1573 H1557 0.959 . S
C1573 H1558 0.959 . S
C1573 H1559 0.961 . S
C1573 C1572 1.502 . S
C1574 H1560 0.960 . S
C1574 H1561 0.961 . S
C1574 H1562 0.959 . S
C1574 C1572 1.561 . S
C1575 C1572 1.526 . S
C1575 C1576 1.396 . S
C1575 C1580 1.390 . S
C1576 C1570 1.465 . S
C1576 C1575 1.396 . S
C1576 C1577 1.399 . S
C1577 H1563 0.929 1_554 S
C1577 C1576 1.399 . S
C1577 C1578 1.385 . S
C1578 H1564 0.931 1_554 S
C1578 C1577 1.385 . S
C1578 C1579 1.389 . S
C1579 C1578 1.389 . S
C1579 C1580 1.387 . S
C1580 H1565 0.930 . S
C1580 C1575 1.390 . S
C1580 C1579 1.387 . S
H1581 C1593 0.930 . S
H1582 C1595 0.930 . S
H1583 C1596 0.930 . S
H1584 C1600 0.959 . S
H1585 C1600 0.959 . S
H1586 C1600 0.961 . S
H1587 C1601 0.960 . S
H1588 C1601 0.961 . S
H1589 C1601 0.959 . S
H1590 C1604 0.929 . S
H1591 C1605 0.931 . S
H1592 C1607 0.930 . S
C1593 H1581 0.930 . S
C1593 C1594 1.399 . S
C1593 C1598 1.399 . S
C1594 C1593 1.399 . S
C1594 C1595 1.376 . S
C1595 H1582 0.930 . S
C1595 C1594 1.376 . S
C1595 C1596 1.388 . S
C1596 H1583 0.930 . S
C1596 C1595 1.388 . S
C1596 C1597 1.390 . S
C1597 C1596 1.390 . S
C1597 C1598 1.394 . S
C1597 C1603 1.465 . S
C1598 C1593 1.399 . S
C1598 C1597 1.394 . S
C1598 C1599 1.516 . S
C1599 C1598 1.516 . S
C1599 C1600 1.502 . S
C1599 C1601 1.561 . S
C1599 C1602 1.526 . S
C1600 H1584 0.959 . S
C1600 H1585 0.959 . S
C1600 H1586 0.961 . S
C1600 C1599 1.502 . S
C1601 H1587 0.960 . S
C1601 H1588 0.961 . S
C1601 H1589 0.959 . S
C1601 C1599 1.561 . S
C1602 C1599 1.526 . S
C1602 C1603 1.396 . S
C1602 C1607 1.390 . S
C1603 C1597 1.465 . S
C1603 C1602 1.396 . S
C1603 C1604 1.399 . S
C1604 H1590 0.929 . S
C1604 C1603 1.399 . S
C1604 C1605 1.385 . S
C1605 H1591 0.931 . S
C1605 C1604 1.385 . S
C1605 C1606 1.389 . S
C1606 C1605 1.389 . S
C1606 C1607 1.387 . S
C1607 H1592 0.930 . S
C1607 C1602 1.390 . S
C1607 C1606 1.387 . S
C541 C348 1.525 . S
C553 C18 1.496 . S
C568 C51 1.499 . S
C580 C249 1.518 . S
C595 C502 1.480 . S
C607 C40 1.503 . S
C622 C73 1.476 . S
C634 C7 1.514 . S
C649 C84 1.495 . S
C661 C282 1.524 . S
C676 C183 1.502 . S
C688 C117 1.514 . S
C703 C436 1.503 . S
C715 C106 1.481 . S
C730 C480 1.523 . S
C742 C150 1.496 . S
C757 C172 1.474 . S
C769 C370 1.511 . S
C784 C205 1.498 . S
C796 C139 1.484 . S
C811 C414 1.504 . S
C823 C216 1.520 . S
C838 C304 1.486 . S
C850 C238 1.508 . S
C865 C513 1.495 . S
C877 C315 1.525 . S
C892 C271 1.490 . S
C904 C337 1.504 . S
C919 C381 1.500 . S
C931 C447 1.523 . S
C946 C469 1.481 . S
C958 C403 1.512 . S
C973 N13 1.343 . S
C985 N2 1.321 . S
C1000 N35 1.349 . S
C1012 N46 1.313 . S
C1027 N79 1.308 . S
C1039 N68 1.345 . S
C1054 N101 1.343 . S
C1066 N112 1.321 . S
C1081 N134 1.304 . S
C1093 N145 1.349 . S
C1108 N167 1.350 . S
C1120 N178 1.313 . S
C1135 N211 1.309 . S
C1147 N200 1.345 . S
C1162 N244 1.349 . S
C1174 N233 1.312 . S
C1189 N277 1.309 . S
C1201 N266 1.344 . S
C1216 N310 1.339 . S
C1228 N299 1.325 . S
C1243 N343 1.309 . S
C1255 N332 1.345 . S
C1270 N376 1.347 . S
C1282 N365 1.314 . S
C1297 N409 1.318 . S
C1309 N398 1.332 . S
C1324 N431 1.308 . S
C1336 N442 1.343 . S
C1351 N475 1.306 . S
C1363 N464 1.350 . S
C1378 N497 1.316 . S
C1390 N508 1.334 . S
C1405 C21 1.497 . S
C1417 C54 1.496 . S
C1432 C87 1.494 . S
C1444 C120 1.493 . S
C1459 C153 1.496 . S
C1471 C186 1.496 . S
C1486 C219 1.494 . S
C1498 C252 1.493 . S
C1513 C318 1.496 . S
C1525 C285 1.495 . S
C1540 C351 1.495 . S
C1552 C384 1.497 . S
C1567 C450 1.496 . S
C1579 C417 1.496 . S
C1594 C516 1.494 . S
C1606 C483 1.496 . S
