# Generated by pormake.
# Topology smc, (6)-cn, num edge types: 1
# Building blocks:
#     Node 0, Type 0, BuildingBlock: BETGAK_clean_sbu_0, # of connection points: 6
#     Node 1, Type 0, BuildingBlock: BETGAK_clean_sbu_0, # of connection points: 6
#     Node 2, Type 0, BuildingBlock: BETGAK_clean_sbu_0, # of connection points: 6
#     Node 3, Type 0, BuildingBlock: BETGAK_clean_sbu_0, # of connection points: 6
#     Node 4, Type 0, BuildingBlock: BETGAK_clean_sbu_0, # of connection points: 6
#     Node 5, Type 0, BuildingBlock: BETGAK_clean_sbu_0, # of connection points: 6
#     Node 6, Type 0, BuildingBlock: BETGAK_clean_sbu_0, # of connection points: 6
#     Node 7, Type 0, BuildingBlock: BETGAK_clean_sbu_0, # of connection points: 6
#     Node 8, Type 0, BuildingBlock: BETGAK_clean_sbu_0, # of connection points: 6
#     Edge 9, Type (0, 0), BuildingBlock: TEMPAE_clean_linker_10, # of connection points: 2
#     Edge 10, Type (0, 0), BuildingBlock: TEMPAE_clean_linker_10, # of connection points: 2
#     Edge 11, Type (0, 0), BuildingBlock: TEMPAE_clean_linker_10, # of connection points: 2
#     Edge 12, Type (0, 0), BuildingBlock: TEMPAE_clean_linker_10, # of connection points: 2
#     Edge 13, Type (0, 0), BuildingBlock: TEMPAE_clean_linker_10, # of connection points: 2
#     Edge 14, Type (0, 0), BuildingBlock: TEMPAE_clean_linker_10, # of connection points: 2
#     Edge 15, Type (0, 0), BuildingBlock: TEMPAE_clean_linker_10, # of connection points: 2
#     Edge 16, Type (0, 0), BuildingBlock: TEMPAE_clean_linker_10, # of connection points: 2
#     Edge 17, Type (0, 0), BuildingBlock: TEMPAE_clean_linker_10, # of connection points: 2
#     Edge 18, Type (0, 0), BuildingBlock: TEMPAE_clean_linker_10, # of connection points: 2
#     Edge 19, Type (0, 0), BuildingBlock: TEMPAE_clean_linker_10, # of connection points: 2
#     Edge 20, Type (0, 0), BuildingBlock: TEMPAE_clean_linker_10, # of connection points: 2
#     Edge 21, Type (0, 0), BuildingBlock: TEMPAE_clean_linker_10, # of connection points: 2
#     Edge 22, Type (0, 0), BuildingBlock: TEMPAE_clean_linker_10, # of connection points: 2
#     Edge 23, Type (0, 0), BuildingBlock: TEMPAE_clean_linker_10, # of connection points: 2
#     Edge 24, Type (0, 0), BuildingBlock: TEMPAE_clean_linker_10, # of connection points: 2
#     Edge 25, Type (0, 0), BuildingBlock: TEMPAE_clean_linker_10, # of connection points: 2
#     Edge 26, Type (0, 0), BuildingBlock: TEMPAE_clean_linker_10, # of connection points: 2
#     Edge 27, Type (0, 0), BuildingBlock: TEMPAE_clean_linker_10, # of connection points: 2
#     Edge 28, Type (0, 0), BuildingBlock: TEMPAE_clean_linker_10, # of connection points: 2
#     Edge 29, Type (0, 0), BuildingBlock: TEMPAE_clean_linker_10, # of connection points: 2
#     Edge 30, Type (0, 0), BuildingBlock: TEMPAE_clean_linker_10, # of connection points: 2
#     Edge 31, Type (0, 0), BuildingBlock: TEMPAE_clean_linker_10, # of connection points: 2
#     Edge 32, Type (0, 0), BuildingBlock: TEMPAE_clean_linker_10, # of connection points: 2
#     Edge 33, Type (0, 0), BuildingBlock: TEMPAE_clean_linker_10, # of connection points: 2
#     Edge 34, Type (0, 0), BuildingBlock: TEMPAE_clean_linker_10, # of connection points: 2
#     Edge 35, Type (0, 0), BuildingBlock: TEMPAE_clean_linker_10, # of connection points: 2
# Relax obj value: 0.179
# Max RMSD: 0.311
# Mean RMSD: 0.311
data_MOF--net-smc--node1-BETGAK_clean_sbu_0--edge1-TEMPAE_clean_linker_10
_symmetry_space_group_name_H-M    P1
_symmetry_Int_Tables_number       1
_symmetry_cell_setting            triclinic
loop_
_symmetry_equiv_pos_as_xyz
'x, y, z'
_cell_length_a     39.363714
_cell_length_b     39.632865
_cell_length_c     38.135346
_cell_angle_alpha  90.053972
_cell_angle_beta   89.930368
_cell_angle_gamma 119.94396
loop_
_atom_site_label
_atom_site_type_symbol
_atom_site_fract_x
_atom_site_fract_y
_atom_site_fract_z
_atom_type_partial_charge
La0 La 0.0624 0.49706 1.04389 0.0
La1 La 1.00997 0.41341 0.05503 0.0
C2 C 0.09859 0.57015 0.0499 0.0
C3 C 0.13553 0.60767 1.04687 0.0
C4 C 0.14284 0.63083 1.01682 0.0
C5 C 0.17252 0.66984 1.01688 0.0
C6 C 0.19521 0.68654 1.04709 0.0
C7 C 0.18935 0.66281 0.07643 0.0
C8 C 0.15976 0.62379 0.07635 0.0
C9 C 1.03014 0.45642 0.98636 0.0
C10 C 0.10088 0.44725 1.03336 0.0
C11 C 0.96443 0.34095 0.05284 0.0
C12 C 0.9211 0.31769 0.05484 0.0
C13 C 0.90138 0.31385 0.08671 0.0
C14 C 0.86049 0.29446 0.08791 0.0
C15 C 0.83835 0.27859 0.05731 0.0
C16 C 0.85798 0.28176 1.02557 0.0
C17 C 0.89894 0.30088 1.02444 0.0
C18 C 0.04573 0.45154 0.11339 0.0
C19 C 0.9742 0.46688 0.06435 0.0
O20 O 0.08069 0.55177 1.02121 0.0
O21 O 0.09529 0.54636 0.07519 0.0
O22 O 0.06562 0.48567 0.98795 0.0
O23 O 1.01379 0.4524 1.01563 0.0
O24 O 0.10786 0.48291 1.03905 0.0
O25 O 0.06507 0.41618 1.03622 0.0
O26 O 0.98237 0.35984 0.08125 0.0
O27 O 0.97922 0.36241 1.02478 0.0
O28 O 1.00874 0.42633 0.11033 0.0
O29 O 0.06007 0.45673 0.08295 0.0
O30 O 0.96563 0.4314 0.05508 0.0
O31 O 1.01095 0.49448 0.06777 0.0
H32 H 0.12426 0.61948 0.99391 0.0
H33 H 0.17621 0.68746 0.99394 0.0
H34 H 0.20686 0.67474 0.09988 0.0
H35 H 0.15461 0.60689 0.10008 0.0
H36 H 0.91744 0.32635 0.11074 0.0
H37 H 0.8462 0.29256 0.11271 0.0
H38 H 0.84165 0.26918 1.00167 0.0
H39 H 0.91336 0.30292 0.99971 0.0
La40 La 0.57188 0.57457 1.04192 0.0
La41 La 0.6552 0.60905 0.05799 0.0
C42 C 0.49795 0.53486 1.04023 0.0
C43 C 0.46021 0.53438 1.03754 0.0
C44 C 0.43971 0.52385 1.0056 0.0
C45 C 0.40062 0.51482 1.00408 0.0
C46 C 0.38103 0.51593 1.0345 0.0
C47 C 0.40212 0.52856 0.06609 0.0
C48 C 0.44128 0.5375 0.06765 0.0
C49 C 0.61855 0.59043 0.98672 0.0
C50 C 0.61699 0.66395 1.043 0.0
C51 C 0.72858 0.63864 0.05718 0.0
C52 C 0.75242 0.61939 0.0556 0.0
C53 C 0.78752 0.63456 0.07457 0.0
C54 C 0.80817 0.61426 0.07605 0.0
C55 C 0.79417 0.57859 0.05831 0.0
C56 C 0.75932 0.56376 1.03896 0.0
C57 C 0.73843 0.58371 1.038 0.0
C58 C 0.61241 0.59876 0.11528 0.0
C59 C 0.60447 0.51866 0.06135 0.0
O60 O 0.52027 0.54439 1.01238 0.0
O61 O 0.51832 0.54754 0.06919 0.0
O62 O 0.58875 0.5959 0.98778 0.0
O63 O 0.62057 0.57581 1.01535 0.0
O64 O 0.58213 0.63267 1.04577 0.0
O65 O 0.64973 0.6615 1.04408 0.0
O66 O 0.70817 0.63217 0.08591 0.0
O67 O 0.70787 0.63564 1.02926 0.0
O68 O 0.64032 0.59063 0.1124 0.0
O69 O 0.60777 0.60943 0.08528 0.0
O70 O 0.64028 0.54791 0.05616 0.0
O71 O 0.57412 0.52396 0.06091 0.0
H72 H 0.45326 0.52069 0.98202 0.0
H73 H 0.38532 0.50579 0.97924 0.0
H74 H 0.38776 0.52953 0.09001 0.0
H75 H 0.45603 0.54498 0.09279 0.0
H76 H 0.79853 0.66169 0.08882 0.0
H77 H 0.83511 0.62644 0.09102 0.0
H78 H 0.7476 0.53613 1.02541 0.0
H79 H 0.71084 0.57064 1.02422 0.0
La80 La 0.49641 1.01445 1.03761 0.0
La81 La 0.4572 0.05888 0.05817 0.0
C82 C 0.52675 0.9724 1.02665 0.0
C83 C 0.52886 0.93636 1.03094 0.0
C84 C 0.53008 0.91673 1.00073 0.0
C85 C 0.54043 0.88777 1.00282 0.0
C86 C 0.54992 0.87769 1.03526 0.0
C87 C 0.54687 0.89611 0.06577 0.0
C88 C 0.53658 0.92521 0.06364 0.0
C89 C 0.48625 0.05503 0.98672 0.0
C90 C 0.40484 0.96705 0.0502 0.0
C91 C 0.4272 0.10197 0.05862 0.0
C92 C 0.4465 0.14515 0.06055 0.0
C93 C 0.44052 0.16342 0.08958 0.0
C94 C 0.4604 0.20419 0.09223 0.0
C95 C 0.48674 0.22763 0.06585 0.0
C96 C 0.49222 0.2092 1.03662 0.0
C97 C 0.47252 0.16863 1.03403 0.0
C98 C 0.47964 0.0339 0.11367 0.0
C99 C 0.54856 0.09998 0.05567 0.0
O100 O 0.49986 0.97226 1.0063 0.0
O101 O 0.53551 0.9961 0.05343 0.0
O102 O 0.51728 0.05203 0.98991 0.0
O103 O 0.46323 0.03543 1.01062 0.0
O104 O 0.43767 0.96633 1.04481 0.0
O105 O 0.40449 1.00019 0.05522 0.0
O106 O 0.42916 0.0839 0.08663 0.0
O107 O 0.43386 0.08792 1.03005 0.0
O108 O 0.48405 0.06839 0.10991 0.0
O109 O 0.4667 1.01648 0.08479 0.0
O110 O 0.51825 0.10445 1.04831 0.0
O111 O 0.54401 0.0653 0.06087 0.0
H112 H 0.525 0.92521 0.97513 0.0
H113 H 0.54281 0.87464 0.97872 0.0
H114 H 0.55323 0.88861 0.09128 0.0
H115 H 0.53617 0.93997 0.08742 0.0
H116 H 0.42083 0.14615 0.11047 0.0
H117 H 0.45565 0.2173 0.11525 0.0
H118 H 0.51158 0.22616 1.01544 0.0
H119 H 0.47803 0.15576 1.01121 0.0
La120 La 0.73125 0.83097 0.37305 0.0
La121 La 0.67747 0.74748 0.38865 0.0
C122 C 0.76883 0.90442 0.37416 0.0
C123 C 0.80387 0.94209 0.36522 0.0
C124 C 0.80022 0.966 0.34007 0.0
C125 C 0.82898 1.00516 0.33687 0.0
C126 C 0.86215 1.02113 0.35852 0.0
C127 C 0.86721 0.99683 0.38217 0.0
C128 C 0.83813 0.95764 0.38571 0.0
C129 C 0.69814 0.78606 0.31791 0.0
C130 C 0.76825 0.77892 0.36706 0.0
C131 C 0.63071 0.67512 0.38703 0.0
C132 C 0.58747 0.65186 0.38528 0.0
C133 C 0.56742 0.6189 0.40666 0.0
C134 C 0.52641 0.59837 0.40769 0.0
C135 C 0.50458 0.61031 0.38721 0.0
C136 C 0.52473 0.64302 0.36536 0.0
C137 C 0.56578 0.66378 0.36464 0.0
C138 C 0.71541 0.78936 0.44523 0.0
C139 C 0.64391 0.80293 0.39519 0.0
O140 O 0.74483 0.88387 0.34894 0.0
O141 O 0.77122 0.88266 0.39881 0.0
O142 O 0.73379 0.81513 0.31831 0.0
O143 O 0.68206 0.78447 0.3469 0.0
O144 O 0.77566 0.81515 0.36904 0.0
O145 O 0.73252 0.74834 0.37243 0.0
O146 O 0.64474 0.69488 0.41599 0.0
O147 O 0.649 0.6957 0.35928 0.0
O148 O 0.67874 0.7627 0.44388 0.0
O149 O 0.72826 0.79255 0.41437 0.0
O150 O 0.63447 0.76684 0.38764 0.0
O151 O 0.68083 0.83066 0.39709 0.0
H152 H 0.77394 0.95506 0.32428 0.0
H153 H 0.82456 1.02342 0.31846 0.0
H154 H 0.89247 1.00872 0.39936 0.0
H155 H 0.84158 0.94022 0.40573 0.0
H156 H 0.58353 0.60939 0.42304 0.0
H157 H 0.51174 0.57303 0.42448 0.0
H158 H 0.50878 0.65313 0.34951 0.0
H159 H 0.58047 0.68957 0.34847 0.0
La160 La 0.2431 0.91862 0.36816 0.0
La161 La 0.32468 0.94772 0.38989 0.0
C162 C 0.16931 0.88162 0.36357 0.0
C163 C 0.13103 0.87984 0.36048 0.0
C164 C 0.10728 0.86029 0.33155 0.0
C165 C 0.06771 0.84963 0.33128 0.0
C166 C 0.05095 0.85827 0.35997 0.0
C167 C 0.07525 0.88005 0.38801 0.0
C168 C 0.11495 0.89056 0.38838 0.0
C169 C 0.29294 0.93296 0.3161 0.0
C170 C 0.29428 1.00776 0.37083 0.0
C171 C 0.39749 0.97438 0.39456 0.0
C172 C 0.4214 0.95497 0.39633 0.0
C173 C 0.42805 0.94208 0.42862 0.0
C174 C 0.44872 0.92191 0.43008 0.0
C175 C 0.46339 0.91419 0.39933 0.0
C176 C 0.45732 0.92765 0.36711 0.0
C177 C 0.43676 0.94797 0.36568 0.0
C178 C 0.27756 0.94025 0.4435 0.0
C179 C 0.26945 0.85847 0.3922 0.0
O180 O 0.19264 0.89218 0.33635 0.0
O181 O 0.18841 0.89278 0.39328 0.0
O182 O 0.26377 0.9394 0.31491 0.0
O183 O 0.29224 0.91723 0.34503 0.0
O184 O 0.25798 0.97836 0.37157 0.0
O185 O 0.32497 1.00244 0.37489 0.0
O186 O 0.37479 0.96913 0.42148 0.0
O187 O 0.37959 0.97173 0.36488 0.0
O188 O 0.30384 0.92965 0.44339 0.0
O189 O 0.27699 0.95147 0.4127 0.0
O190 O 0.30648 0.88593 0.38916 0.0
O191 O 0.24111 0.86666 0.38898 0.0
H192 H 0.11879 0.85128 0.3099 0.0
H193 H 0.04985 0.83344 0.30906 0.0
H194 H 0.06312 0.88707 0.41051 0.0
H195 H 0.13242 0.9053 0.41123 0.0
H196 H 0.41688 0.94715 0.45283 0.0
H197 H 0.45267 0.91181 0.45531 0.0
H198 H 0.46888 0.92289 0.34299 0.0
H199 H 0.43271 0.95808 0.34054 0.0
La200 La 0.15401 0.33839 0.37924 0.0
La201 La 0.1205 0.39312 0.39035 0.0
C202 C 0.17556 0.2888 0.37382 0.0
C203 C 0.17725 0.25322 0.38128 0.0
C204 C 0.1699 0.22687 0.35381 0.0
C205 C 0.18167 0.19907 0.35643 0.0
C206 C 0.2012 0.19724 0.38656 0.0
C207 C 0.20588 0.22169 0.4151 0.0
C208 C 0.19406 0.2495 0.41248 0.0
C209 C 0.14613 0.37413 0.32314 0.0
C210 C 0.06391 0.30198 0.38697 0.0
C211 C 0.10607 0.44659 0.37642 0.0
C212 C 0.12741 0.48883 0.38429 0.0
C213 C 0.10855 0.50621 0.40161 0.0
C214 C 0.12828 0.54654 0.40737 0.0
C215 C 0.16702 0.57009 0.39553 0.0
C216 C 0.18615 0.55256 0.37906 0.0
C217 C 0.16671 0.51242 0.37366 0.0
C218 C 0.12715 0.36735 0.45288 0.0
C219 C 0.21322 0.42448 0.39472 0.0
O220 O 0.14704 0.2874 0.35497 0.0
O221 O 0.19028 0.31743 0.39658 0.0
O222 O 0.1751 0.36798 0.32761 0.0
O223 O 0.1237 0.35989 0.34872 0.0
O224 O 0.0946 0.29845 0.39503 0.0
O225 O 0.06706 0.33642 0.3796 0.0
O226 O 0.0896 0.4225 0.40277 0.0
O227 O 0.1242 0.43493 0.35512 0.0
O228 O 0.11482 0.39163 0.44728 0.0
O229 O 0.1374 0.36056 0.42327 0.0
O230 O 0.18485 0.43269 0.38897 0.0
O231 O 0.20606 0.3885 0.39757 0.0
H232 H 0.15755 0.22953 0.32928 0.0
H233 H 0.17784 0.18083 0.33391 0.0
H234 H 0.2202 0.22043 0.43889 0.0
H235 H 0.20026 0.26953 0.43406 0.0
H236 H 0.07839 0.48871 0.41012 0.0
H237 H 0.11285 0.55948 0.42 0.0
H238 H 0.21612 0.57003 0.37 0.0
H239 H 0.18245 0.50009 0.36056 0.0
La240 La 0.39539 0.16522 0.70265 0.0
La241 La 0.34709 0.08185 0.72352 0.0
C242 C 0.43979 0.23709 0.6937 0.0
C243 C 0.47634 0.27496 0.69594 0.0
C244 C 0.48814 0.2989 0.66616 0.0
C245 C 0.5168 0.33813 0.66868 0.0
C246 C 0.53444 0.35423 0.70106 0.0
C247 C 0.52452 0.32968 0.73049 0.0
C248 C 0.49543 0.29034 0.72802 0.0
C249 C 0.34988 0.11607 0.65282 0.0
C250 C 0.43794 0.11572 0.70659 0.0
C251 C 0.30107 1.00926 0.72456 0.0
C252 C 0.25762 0.98552 0.7281 0.0
C253 C 0.23899 0.9778 0.76102 0.0
C254 C 0.1979 0.9575 0.76349 0.0
C255 C 0.17448 0.94462 0.73312 0.0
C256 C 0.1932 0.95174 0.70032 0.0
C257 C 0.23411 0.97173 0.69786 0.0
C258 C 0.3802 0.1293 0.77837 0.0
C259 C 0.31008 0.13567 0.72314 0.0
O260 O 0.4362 0.21107 0.67052 0.0
O261 O 0.41931 0.22179 0.72233 0.0
O262 O 0.3563 0.15124 0.65609 0.0
O263 O 0.36936 0.11107 0.67581 0.0
O264 O 0.44121 0.15031 0.70198 0.0
O265 O 0.40411 0.08426 0.71549 0.0
O266 O 0.32138 0.02905 0.75193 0.0
O267 O 0.31358 0.0299 0.69586 0.0
O268 O 0.34402 0.1014 0.77633 0.0
O269 O 0.39439 0.13207 0.74808 0.0
O270 O 0.30319 0.10016 0.71614 0.0
O271 O 0.34599 0.16445 0.72753 0.0
H272 H 0.47357 0.28779 0.64123 0.0
H273 H 0.52426 0.35625 0.64549 0.0
H274 H 0.53766 0.34137 0.75577 0.0
H275 H 0.48661 0.27256 0.75147 0.0
H276 H 0.25608 0.98788 0.78488 0.0
H277 H 0.18448 0.95258 0.78918 0.0
H278 H 0.17618 0.94157 0.67642 0.0
H279 H 0.24737 0.9768 0.67207 0.0
La280 La 0.90875 0.23791 0.71664 0.0
La281 La 0.99457 0.27957 0.72606 0.0
C282 C 0.83512 0.19484 0.72039 0.0
C283 C 0.79677 0.1932 0.71743 0.0
C284 C 0.77703 0.1851 0.68512 0.0
C285 C 0.73804 0.1767 0.68355 0.0
C286 C 0.7178 0.17594 0.71426 0.0
C287 C 0.73806 0.18552 0.74634 0.0
C288 C 0.777 0.1939 0.74792 0.0
C289 C 0.95155 0.25267 0.6589 0.0
C290 C 0.94904 0.32717 0.71142 0.0
C291 C 0.0676 0.31147 0.71973 0.0
C292 C 0.09255 0.2931 0.72032 0.0
C293 C 0.10046 0.28043 0.75215 0.0
C294 C 0.12041 0.25956 0.75255 0.0
C295 C 0.13341 0.25102 0.72119 0.0
C296 C 0.12617 0.26433 0.68935 0.0
C297 C 0.10595 0.28509 0.68892 0.0
C298 C 0.95567 0.26969 0.78571 0.0
C299 C 0.95003 0.19056 0.73753 0.0
O300 O 0.85547 0.19955 0.69182 0.0
O301 O 0.8575 0.2136 0.7471 0.0
O302 O 0.92067 0.2563 0.66116 0.0
O303 O 0.9567 0.24094 0.68779 0.0
O304 O 0.91578 0.29476 0.71729 0.0
O305 O 0.98325 0.32761 0.71018 0.0
O306 O 0.05014 0.31059 0.74921 0.0
O307 O 0.04396 0.30295 0.69287 0.0
O308 O 0.98595 0.26528 0.78176 0.0
O309 O 0.94743 0.27747 0.75592 0.0
O310 O 0.98318 0.21981 0.72588 0.0
O311 O 0.91858 0.19381 0.74101 0.0
H312 H 0.79118 0.18387 0.66117 0.0
H313 H 0.72348 0.17004 0.65833 0.0
H314 H 0.7233 0.18483 0.77055 0.0
H315 H 0.79108 0.19931 0.77332 0.0
H316 H 0.09045 0.28578 0.7769 0.0
H317 H 0.12487 0.24938 0.77753 0.0
H318 H 0.13626 0.25886 0.6647 0.0
H319 H 0.10025 0.29433 0.66396 0.0
La320 La 0.82471 0.67564 0.70956 0.0
La321 La 0.78864 0.72842 0.72298 0.0
C322 C 0.84462 0.62504 0.70727 0.0
C323 C 0.85634 0.59519 0.706 0.0
C324 C 0.86802 0.58617 0.67424 0.0
C325 C 0.88156 0.55959 0.67353 0.0
C326 C 0.88326 0.54128 0.70455 0.0
C327 C 0.87032 0.5496 0.7361 0.0
C328 C 0.8573 0.57652 0.73685 0.0
C329 C 0.81642 0.71287 0.65531 0.0
C330 C 0.73264 0.63757 0.71594 0.0
C331 C 0.77029 0.77915 0.70948 0.0
C332 C 0.79126 0.82159 0.71528 0.0
C333 C 0.77248 0.8392 0.73223 0.0
C334 C 0.79247 0.87941 0.73807 0.0
C335 C 0.83158 0.90269 0.72694 0.0
C336 C 0.85031 0.88485 0.71013 0.0
C337 C 0.83048 0.84477 0.70451 0.0
C338 C 0.79516 0.70024 0.78376 0.0
C339 C 0.88238 0.76249 0.72609 0.0
O340 O 0.82778 0.6319 0.68075 0.0
O341 O 0.84987 0.64648 0.73519 0.0
O342 O 0.84617 0.70757 0.65913 0.0
O343 O 0.79353 0.69702 0.68049 0.0
O344 O 0.76372 0.63324 0.71788 0.0
O345 O 0.73476 0.67216 0.71441 0.0
O346 O 0.75804 0.75724 0.73762 0.0
O347 O 0.78635 0.76662 0.68667 0.0
O348 O 0.78259 0.7246 0.77979 0.0
O349 O 0.80598 0.695 0.75384 0.0
O350 O 0.85287 0.76974 0.72355 0.0
O351 O 0.87723 0.72702 0.72545 0.0
H352 H 0.86768 0.60044 0.65012 0.0
H353 H 0.89158 0.55416 0.64884 0.0
H354 H 0.87023 0.5353 0.76031 0.0
H355 H 0.84802 0.58278 0.76158 0.0
H356 H 0.74241 0.82182 0.74103 0.0
H357 H 0.77739 0.89224 0.7515 0.0
H358 H 0.88017 0.90196 0.70075 0.0
H359 H 0.84594 0.83208 0.69154 0.0
C360 C 0.31293 0.46671 1.01605 0.0
C361 C 0.3382 0.50151 1.03361 0.0
C362 C 0.27236 0.45237 1.01496 0.0
C363 C 0.25662 0.47339 1.0317 0.0
C364 C 0.28191 0.50837 0.04979 0.0
C365 C 0.32239 0.52193 0.05065 0.0
C366 C 0.24636 0.4149 0.99563 0.0
C367 C 0.2663 0.53186 0.06772 0.0
C368 C 0.16157 0.46567 1.00088 0.0
C369 C 0.13565 0.44348 1.0276 0.0
C370 C 0.20056 0.4739 1.00093 0.0
C371 C 0.21403 0.46002 1.02876 0.0
C372 C 0.18728 0.43568 0.05483 0.0
C373 C 0.14819 0.4276 0.05389 0.0
C374 C 0.22795 0.49981 0.97257 0.0
C375 C 0.20058 0.42061 0.08509 0.0
H376 H 0.32489 0.4504 1.00339 0.0
H377 H 0.3418 0.5489 0.06412 0.0
H378 H 0.22314 0.39382 1.01341 0.0
H379 H 0.23151 0.42055 0.97358 0.0
H380 H 0.26301 0.40133 0.98499 0.0
H381 H 0.28968 0.55785 0.08141 0.0
H382 H 0.25228 0.5417 1.04812 0.0
H383 H 0.24346 0.5135 0.08711 0.0
H384 H 0.15191 0.47868 0.98108 0.0
H385 H 0.12838 0.41156 0.0752 0.0
H386 H 0.24472 0.48675 0.96124 0.0
H387 H 0.24946 0.52835 0.98404 0.0
H388 H 0.21205 0.50498 0.95109 0.0
H389 H 0.21835 0.40786 0.07551 0.0
H390 H 0.17547 0.39829 0.10057 0.0
H391 H 0.21947 0.44513 0.10279 0.0
C392 C 0.54821 0.81625 1.01527 0.0
C393 C 0.56449 0.84935 1.03689 0.0
C394 C 0.56208 0.78974 1.01603 0.0
C395 C 0.59297 0.79618 1.03909 0.0
C396 C 0.60979 0.82966 0.06078 0.0
C397 C 0.59546 0.85584 0.05936 0.0
C398 C 0.54282 0.75412 0.99282 0.0
C399 C 0.64232 0.83733 0.0861 0.0
C400 C 0.58926 0.70292 0.06713 0.0
C401 C 0.61731 0.70147 1.04533 0.0
C402 C 0.58293 0.73461 0.0668 0.0
C403 C 0.60431 0.76558 1.0432 0.0
C404 C 0.63388 0.76526 1.02197 0.0
C405 C 0.64034 0.73322 1.0235 0.0
C406 C 0.55164 0.73372 0.09046 0.0
C407 C 0.65712 0.79771 0.99634 0.0
H408 H 0.52398 0.81059 0.99814 0.0
H409 H 0.60878 0.88162 0.07575 0.0
H410 H 0.56532 0.75153 0.97739 0.0
H411 H 0.52732 0.7276 1.00928 0.0
H412 H 0.52133 0.75485 0.97443 0.0
H413 H 0.65368 0.86565 0.09987 0.0
H414 H 0.6315 0.81379 0.106 0.0
H415 H 0.6669 0.83716 0.07199 0.0
H416 H 0.57102 0.67837 0.08393 0.0
H417 H 0.66162 0.73201 1.00626 0.0
H418 H 0.52637 0.72964 0.0744 0.0
H419 H 0.56299 0.7617 0.10471 0.0
H420 H 0.5409 0.70978 0.11001 0.0
H421 H 0.63748 0.7969 0.9751 0.0
H422 H 0.68159 0.79533 0.98437 0.0
H423 H 0.66924 0.82639 1.00952 0.0
C424 C 0.37427 0.8985 0.06894 0.0
C425 C 0.36947 0.92867 0.05511 0.0
C426 C 0.34346 0.86012 0.0695 0.0
C427 C 0.3067 0.85142 0.05568 0.0
C428 C 0.30088 0.88195 1.04339 0.0
C429 C 0.33249 0.92054 1.04339 0.0
C430 C 0.35098 0.82866 0.08325 0.0
C431 C 0.26186 0.87358 1.02877 0.0
C432 C 0.24808 0.74845 1.02056 0.0
C433 C 0.22308 0.72905 1.0488 0.0
C434 C 0.27442 0.78866 1.02194 0.0
C435 C 0.27561 0.80998 0.05222 0.0
C436 C 0.24995 0.79068 0.08054 0.0
C437 C 0.224 0.75043 0.0785 0.0
C438 C 0.30193 0.80809 0.99149 0.0
C439 C 0.25061 0.8124 0.11333 0.0
H440 H 0.40275 0.90472 0.07852 0.0
H441 H 0.32881 0.94383 1.03266 0.0
H442 H 0.32847 0.81045 0.10292 0.0
H443 H 0.34899 0.80925 0.0614 0.0
H444 H 0.38036 0.8408 0.09556 0.0
H445 H 0.26095 0.90067 1.02344 0.0
H446 H 0.25603 0.85698 1.00394 0.0
H447 H 0.23792 0.85524 1.04729 0.0
H448 H 0.24764 0.73201 0.99767 0.0
H449 H 0.20421 0.73568 0.10016 0.0
H450 H 0.3326 0.81885 1.00001 0.0
H451 H 0.29998 0.83367 0.98249 0.0
H452 H 0.29551 0.78798 0.96898 0.0
H453 H 0.27938 0.82405 0.12661 0.0
H454 H 0.22718 0.79359 0.13214 0.0
H455 H 0.24706 0.83766 0.10645 0.0
C456 C 0.54732 0.29308 0.05701 0.0
C457 C 0.5082 0.27109 0.06836 0.0
C458 C 0.56711 0.33402 0.05701 0.0
C459 C 0.54755 0.35368 0.06892 0.0
C460 C 0.50854 0.33174 0.0815 0.0
C461 C 0.48935 0.29081 0.08098 0.0
C462 C 0.60857 0.35622 1.04324 0.0
C463 C 0.48659 0.3515 0.09447 0.0
C464 C 0.60371 0.46215 0.09134 0.0
C465 C 0.59615 0.47809 0.06169 0.0
C466 C 0.589 0.42168 0.09379 0.0
C467 C 0.56661 0.39696 0.06579 0.0
C468 C 0.56054 0.41349 1.03519 0.0
C469 C 0.57502 0.45377 1.03372 0.0
C470 C 0.5958 0.4052 0.12696 0.0
C471 C 0.53738 0.38847 1.00451 0.0
H472 H 0.5625 0.27824 1.04786 0.0
H473 H 0.45908 0.27426 0.08947 0.0
H474 H 0.60942 0.37237 1.0192 0.0
H475 H 0.62803 0.37804 0.06281 0.0
H476 H 0.62049 0.33677 1.03686 0.0
H477 H 0.4576 0.33052 0.10586 0.0
H478 H 0.50409 0.37359 0.11465 0.0
H479 H 0.48189 0.36699 0.07245 0.0
H480 H 0.61945 0.48101 0.1132 0.0
H481 H 0.56889 0.46626 1.01095 0.0
H482 H 0.60794 0.38596 0.12066 0.0
H483 H 0.56743 0.38711 0.14059 0.0
H484 H 0.61615 0.42837 0.14518 0.0
H485 H 0.54927 0.36959 0.99612 0.0
H486 H 0.53784 0.40612 0.98171 0.0
H487 H 0.50645 0.3691 1.01249 0.0
C488 C 0.60133 0.16802 0.07037 0.0
C489 C 0.58911 0.13247 0.0534 0.0
C490 C 0.64147 0.19631 0.07178 0.0
C491 C 0.66936 0.18879 0.05527 0.0
C492 C 0.65656 0.15365 1.0366 0.0
C493 C 0.6167 0.12589 1.03616 0.0
C494 C 0.65417 0.23333 0.09218 0.0
C495 C 0.6851 0.14461 1.01814 0.0
C496 C 0.77373 0.2652 1.03282 0.0
C497 C 0.7949 0.2583 0.05862 0.0
C498 C 0.73258 0.24455 1.0327 0.0
C499 C 0.71218 0.21614 0.05883 0.0
C500 C 0.7334 0.21019 0.08575 0.0
C501 C 0.77451 0.23138 0.08533 0.0
C502 C 0.711 0.2518 1.00365 0.0
C503 C 0.71279 0.17994 0.11393 0.0
H504 H 0.57988 0.17287 0.08386 0.0
H505 H 0.60705 0.09844 1.02271 0.0
H506 H 0.6706 0.23343 0.11584 0.0
H507 H 0.67426 0.25904 0.07621 0.0
H508 H 0.62885 0.23645 0.10062 0.0
H509 H 0.67004 0.11702 1.00297 0.0
H510 H 0.70396 0.16858 0.99995 0.0
H511 H 0.70461 0.14213 1.03768 0.0
H512 H 0.78941 0.2865 1.01248 0.0
H513 H 0.79073 0.22576 0.10521 0.0
H514 H 0.68699 0.25561 1.01458 0.0
H515 H 0.69742 0.22619 0.98592 0.0
H516 H 0.73074 0.27795 0.98791 0.0
H517 H 0.68877 0.18311 0.12575 0.0
H518 H 0.73312 0.18196 0.13507 0.0
H519 H 0.69939 0.15042 0.10217 0.0
C520 C 0.95568 0.51839 0.06517 0.0
C521 C 0.9438 0.47857 0.06627 0.0
C522 C 0.92839 0.53118 0.0642 0.0
C523 C 0.8879 0.5036 0.0651 0.0
C524 C 0.87547 0.46331 0.06692 0.0
C525 C 0.90363 0.45119 0.06707 0.0
C526 C 0.94306 0.57437 0.06153 0.0
C527 C 0.83252 0.43311 0.06855 0.0
C528 C 0.82767 0.54977 0.09275 0.0
C529 C 0.81557 0.55662 0.06028 0.0
C530 C 0.84898 0.53009 0.09489 0.0
C531 C 0.85916 0.51767 0.06375 0.0
C532 C 0.84604 0.52358 1.03096 0.0
C533 C 0.82412 0.5427 1.02966 0.0
C534 C 0.86189 0.52388 0.13039 0.0
C535 C 0.85696 0.51163 0.99707 0.0
H536 H 0.9866 0.53994 0.0641 0.0
H537 H 0.89424 0.42041 0.06781 0.0
H538 H 0.93096 0.58052 1.03768 0.0
H539 H 0.93285 0.58418 0.08444 0.0
H540 H 0.97556 0.59196 0.06038 0.0
H541 H 0.82768 0.40311 0.07118 0.0
H542 H 0.81855 0.43918 0.09113 0.0
H543 H 0.81751 0.43458 1.04449 0.0
H544 H 0.82052 0.55995 0.11652 0.0
H545 H 0.81487 0.54805 1.00451 0.0
H546 H 0.89409 0.54287 0.13304 0.0
H547 H 0.85525 0.49331 0.13311 0.0
H548 H 0.84747 0.53064 0.15216 0.0
H549 H 0.889 0.52993 0.99266 0.0
H550 H 0.84143 0.51488 0.97416 0.0
H551 H 0.85015 0.48094 0.99852 0.0
C552 C 0.8251 0.78857 0.33243 0.0
C553 C 0.80284 0.77448 0.36308 0.0
C554 C 0.86465 0.79851 0.3317 0.0
C555 C 0.88249 0.79497 0.36265 0.0
C556 C 0.85944 0.77864 0.39318 0.0
C557 C 0.81973 0.76848 0.39298 0.0
C558 C 0.888 0.81552 0.29853 0.0
C559 C 0.87732 0.7747 0.42682 0.0
C560 C 0.98234 0.80296 0.35296 0.0
C561 C 1.00783 0.84217 0.36152 0.0
C562 C 0.94152 0.78699 0.35398 0.0
C563 C 0.9257 0.81083 0.36355 0.0
C564 C 0.95127 0.85035 0.37263 0.0
C565 C 0.99205 0.86549 0.3717 0.0
C566 C 0.91529 0.74469 0.34452 0.0
C567 C 0.93556 0.87683 0.38277 0.0
H568 H 0.81221 0.7943 0.30969 0.0
H569 H 0.80287 0.75892 0.41703 0.0
H570 H 0.90927 0.84689 0.30262 0.0
H571 H 0.90503 0.80099 0.29189 0.0
H572 H 0.86899 0.81265 0.2759 0.0
H573 H 0.85469 0.7573 0.44679 0.0
H574 H 0.89537 0.76086 0.42178 0.0
H575 H 0.89702 0.80406 0.43787 0.0
H576 H 0.9944 0.7846 0.34571 0.0
H577 H 1.01164 0.8958 0.37825 0.0
H578 H 0.89744 0.74234 0.32116 0.0
H579 H 0.89462 0.72919 0.36632 0.0
H580 H 0.93217 0.72973 0.33876 0.0
H581 H 0.91868 0.87932 0.36062 0.0
H582 H 0.95927 0.90651 0.38998 0.0
H583 H 0.91514 0.86431 0.40529 0.0
C584 C 0.19998 0.13476 0.37295 0.0
C585 C 0.21974 0.17254 0.3868 0.0
C586 C 0.21822 0.11213 0.37107 0.0
C587 C 0.25726 0.12776 0.38317 0.0
C588 C 0.27731 0.1658 0.39732 0.0
C589 C 0.2583 0.18773 0.399 0.0
C590 C 0.19553 0.07132 0.35644 0.0
C591 C 0.31893 0.18341 0.41037 0.0
C592 C 0.28221 0.05062 0.4082 0.0
C593 C 0.29795 0.04593 0.37685 0.0
C594 C 0.2708 0.07869 0.41133 0.0
C595 C 0.27608 0.10326 0.38252 0.0
C596 C 0.29525 0.10096 0.35183 0.0
C597 C 0.30553 0.07175 0.34913 0.0
C598 C 0.24979 0.0795 0.44423 0.0
C599 C 0.30194 0.12716 0.32083 0.0
H600 H 0.17011 0.1228 0.36374 0.0
H601 H 0.27402 0.21721 0.40911 0.0
H602 H 0.21128 0.0683 0.33359 0.0
H603 H 0.19321 0.05001 0.37652 0.0
H604 H 0.16549 0.0636 0.34803 0.0
H605 H 0.33066 0.21366 0.42007 0.0
H606 H 0.32043 0.16546 0.43196 0.0
H607 H 0.33815 0.18361 0.38897 0.0
H608 H 0.27536 0.0298 0.42921 0.0
H609 H 0.31677 0.06737 0.32461 0.0
H610 H 0.21951 0.07257 0.43773 0.0
H611 H 0.26499 0.10903 0.45598 0.0
H612 H 0.24803 0.05821 0.46409 0.0
H613 H 0.27362 0.11782 0.3074 0.0
H614 H 0.32265 0.12618 0.30159 0.0
H615 H 0.31358 0.1577 0.32953 0.0
C616 C 1.01817 0.23584 0.40907 0.0
C617 C 1.02651 0.2649 0.38407 0.0
C618 C 0.98816 0.19746 0.40398 0.0
C619 C 0.96782 0.18687 0.37172 0.0
C620 C 0.97583 0.216 0.34622 0.0
C621 C 1.00461 0.255 0.35305 0.0
C622 C 0.97979 0.16791 0.43257 0.0
C623 C 0.95613 0.20554 0.31084 0.0
C624 C 0.92871 0.07984 0.35093 0.0
C625 C 0.88896 0.06376 0.35918 0.0
C626 C 0.95432 0.12029 0.35284 0.0
C627 C 0.93997 0.14492 0.36442 0.0
C628 C 0.8997 0.12863 0.37254 0.0
C629 C 0.87458 0.08829 0.36933 0.0
C630 C 0.99691 0.13654 0.34328 0.0
C631 C 0.88355 0.15351 0.38636 0.0
H632 H 1.03639 0.24254 0.43213 0.0
H633 H 1.01218 0.277 0.33299 0.0
H634 H 0.94774 0.14959 0.43691 0.0
H635 H 0.99103 0.14836 0.42464 0.0
H636 H 0.99384 0.18197 0.4578 0.0
H637 H 0.9632 0.23173 0.29495 0.0
H638 H 0.96588 0.18763 0.29623 0.0
H639 H 0.92387 0.18774 0.31383 0.0
H640 H 0.93969 0.06076 0.34301 0.0
H641 H 0.84382 0.07563 0.37603 0.0
H642 H 1.01522 0.14692 0.36727 0.0
H643 H 1.00683 0.16189 0.32548 0.0
H644 H 1.00223 0.11446 0.33037 0.0
H645 H 0.89718 0.16604 0.4121 0.0
H646 H 0.85122 0.13671 0.38976 0.0
H647 H 0.89104 0.17822 0.36837 0.0
C648 C 0.28583 0.80545 0.40335 0.0
C649 C 0.25804 0.81699 0.39695 0.0
C650 C 0.27431 0.7657 0.40628 0.0
C651 C 0.23427 0.73707 0.40215 0.0
C652 C 0.20615 0.7487 0.39627 0.0
C653 C 0.21831 0.78835 0.394 0.0
C654 C 0.30497 0.7543 0.41318 0.0
C655 C 0.16323 0.71922 0.39121 0.0
C656 C 0.20332 0.6359 0.36823 0.0
C657 C 0.18679 0.61307 0.39823 0.0
C658 C 0.22035 0.67651 0.36949 0.0
C659 C 0.22148 0.69482 0.40171 0.0
C660 C 0.20621 0.67201 0.43242 0.0
C661 C 0.18856 0.63127 0.43023 0.0
C662 C 0.23531 0.69958 0.33596 0.0
C663 C 0.20745 0.69054 0.46734 0.0
H664 H 0.31651 0.82736 0.40585 0.0
H665 H 0.19645 0.79676 0.38902 0.0
H666 H 0.29617 0.73416 0.43588 0.0
H667 H 0.30744 0.73856 0.39014 0.0
H668 H 0.33425 0.77996 0.41854 0.0
H669 H 0.145 0.73314 0.38759 0.0
H670 H 0.15957 0.70099 0.36785 0.0
H671 H 0.15187 0.69947 0.41415 0.0
H672 H 0.20166 0.62178 0.3434 0.0
H673 H 0.17609 0.6136 0.4535 0.0
H674 H 0.26583 0.72375 0.33945 0.0
H675 H 0.21706 0.71277 0.32919 0.0
H676 H 0.2346 0.68127 0.31358 0.0
H677 H 0.23736 0.71521 0.47246 0.0
H678 H 0.19875 0.66943 0.48932 0.0
H679 H 0.18726 0.70247 0.46687 0.0
C680 C 0.28438 0.44527 0.39444 0.0
C681 C 0.25511 0.45574 0.39544 0.0
C682 C 0.32422 0.47335 0.39317 0.0
C683 C 0.33561 0.51329 0.39336 0.0
C684 C 0.30645 0.52434 0.39482 0.0
C685 C 0.26644 0.49539 0.3956 0.0
C686 C 0.35415 0.4601 0.3912 0.0
C687 C 0.31754 0.56667 0.39549 0.0
C688 C 0.44166 0.57717 0.42128 0.0
C689 C 0.46097 0.58869 0.38885 0.0
C690 C 0.4006 0.55466 0.42322 0.0
C691 C 0.37823 0.54294 0.39196 0.0
C692 C 0.39747 0.55568 0.35918 0.0
C693 C 0.43858 0.57855 0.35803 0.0
C694 C 0.38131 0.54202 0.45872 0.0
C695 C 0.37485 0.54338 0.32519 0.0
H696 H 0.27625 0.41481 0.39399 0.0
H697 H 0.24415 0.50381 0.39632 0.0
H698 H 0.37228 0.47194 0.36721 0.0
H699 H 0.37422 0.47143 0.41403 0.0
H700 H 0.34038 0.42788 0.39079 0.0
H701 H 0.29148 0.57051 0.39709 0.0
H702 H 0.33682 0.58138 0.41829 0.0
H703 H 0.3344 0.58151 0.37154 0.0
H704 H 0.45876 0.58549 0.44523 0.0
H705 H 0.45333 0.58719 0.33287 0.0
H706 H 0.36939 0.51025 0.46195 0.0
H707 H 0.35635 0.54748 0.46087 0.0
H708 H 0.40214 0.55736 0.48049 0.0
H709 H 0.36265 0.51165 0.32128 0.0
H710 H 0.39351 0.55898 0.30224 0.0
H711 H 0.34978 0.54875 0.32612 0.0
C712 C 0.51323 0.90098 0.42748 0.0
C713 C 0.4855 0.89277 0.40093 0.0
C714 C 0.53573 0.88248 0.42833 0.0
C715 C 0.5306 0.85521 0.40189 0.0
C716 C 0.50174 0.84579 0.37571 0.0
C717 C 0.47954 0.86466 0.37556 0.0
C718 C 0.56619 0.89338 0.4567 0.0
C719 C 0.49543 0.81701 0.34699 0.0
C720 C 0.62158 0.84949 0.38036 0.0
C721 C 0.61373 0.8146 0.39655 0.0
C722 C 0.59421 0.86223 0.38106 0.0
C723 C 0.55847 0.84015 0.39937 0.0
C724 C 0.55026 0.80471 0.41573 0.0
C725 C 0.57782 0.79195 0.41359 0.0
C726 C 0.60373 0.89954 0.36235 0.0
C727 C 0.51289 0.78088 0.43617 0.0
H728 H 0.51832 0.92289 0.44701 0.0
H729 H 0.45768 0.85762 0.35533 0.0
H730 H 0.56351 0.86682 0.46905 0.0
H731 H 0.59593 0.90978 0.44502 0.0
H732 H 0.5636 0.9117 0.47742 0.0
H733 H 0.46947 0.81016 0.33057 0.0
H734 H 0.52171 0.82914 0.32983 0.0
H735 H 0.49154 0.78953 0.35832 0.0
H736 H 0.64914 0.86671 0.36664 0.0
H737 H 0.57184 0.76498 0.4261 0.0
H738 H 0.60555 0.92141 0.38157 0.0
H739 H 0.58004 0.89414 0.34355 0.0
H740 H 0.63191 0.91216 0.34779 0.0
H741 H 0.51187 0.79823 0.45859 0.0
H742 H 0.51034 0.75348 0.44643 0.0
H743 H 0.4871 0.77352 0.41941 0.0
C744 C 0.64941 0.13161 0.69239 0.0
C745 C 0.67527 0.16345 0.71312 0.0
C746 C 0.60917 0.11914 0.6913 0.0
C747 C 0.59431 0.13897 0.71138 0.0
C748 C 0.62016 0.17087 0.73267 0.0
C749 C 0.66027 0.18268 0.73331 0.0
C750 C 0.58262 0.08511 0.66822 0.0
C751 C 0.60562 0.19318 0.75411 0.0
C752 C 0.50353 0.14018 0.68049 0.0
C753 C 0.47495 0.11491 0.70429 0.0
C754 C 0.54207 0.14728 0.68193 0.0
C755 C 0.55247 0.12858 0.70785 0.0
C756 C 0.52329 0.10155 0.73101 0.0
C757 C 0.48467 0.09493 0.72891 0.0
C758 C 0.57206 0.17637 0.65677 0.0
C759 C 0.53332 0.08117 0.75906 0.0
H760 H 0.66059 0.11612 0.6772 0.0
H761 H 0.68006 0.2075 0.74916 0.0
H762 H 0.55783 0.06268 0.68385 0.0
H763 H 0.56992 0.09493 0.64734 0.0
H764 H 0.59832 0.07151 0.65565 0.0
H765 H 0.6291 0.21608 0.77056 0.0
H766 H 0.59395 0.20721 0.73644 0.0
H767 H 0.58124 0.17301 0.77144 0.0
H768 H 0.49605 0.15574 0.66146 0.0
H769 H 0.4628 0.07596 0.74775 0.0
H770 H 0.58746 0.16328 0.64286 0.0
H771 H 0.59448 0.20194 0.67155 0.0
H772 H 0.55868 0.18673 0.63696 0.0
H773 H 0.5493 0.06737 0.74749 0.0
H774 H 0.50682 0.05854 0.77284 0.0
H775 H 0.55302 0.10278 0.77867 0.0
C776 C 0.97493 0.39811 0.69635 0.0
C777 C 0.94643 0.36317 0.71151 0.0
C778 C 0.96923 0.43053 0.69484 0.0
C779 C 0.93442 0.42761 0.70884 0.0
C780 C 0.90648 0.39287 0.72535 0.0
C781 C 0.91293 0.36138 0.72661 0.0
C782 C 0.9998 0.46752 0.67753 0.0
C783 C 0.86907 0.38839 0.74091 0.0
C784 C 0.92222 0.51393 0.73204 0.0
C785 C 0.89888 0.51397 0.70425 0.0
C786 C 0.93559 0.48712 0.73312 0.0
C787 C 0.92586 0.45998 0.7055 0.0
C788 C 0.90338 0.46063 0.6768 0.0
C789 C 0.89005 0.48752 0.67657 0.0
C790 C 0.95877 0.4868 0.76452 0.0
C791 C 0.89177 0.43164 0.64718 0.0
H792 H 1.00094 0.39975 0.68492 0.0
H793 H 0.89105 0.33489 0.7393 0.0
H794 H 0.98731 0.47297 0.65356 0.0
H795 H 1.00846 0.49268 0.69532 0.0
H796 H 1.02639 0.46616 0.67015 0.0
H797 H 0.85101 0.35973 0.75388 0.0
H798 H 0.87592 0.41162 0.7605 0.0
H799 H 0.8512 0.39144 0.72001 0.0
H800 H 0.92982 0.53472 0.75322 0.0
H801 H 0.87163 0.48694 0.65521 0.0
H802 H 0.98622 0.48789 0.75587 0.0
H803 H 0.94152 0.45931 0.77939 0.0
H804 H 0.96633 0.5116 0.78253 0.0
H805 H 0.9179 0.43122 0.6368 0.0
H806 H 0.87739 0.43825 0.62531 0.0
H807 H 0.87115 0.40197 0.65708 0.0
C808 C 0.66885 0.58454 0.73873 0.0
C809 C 0.69551 0.60109 0.71108 0.0
C810 C 0.63999 0.5448 0.738 0.0
C811 C 0.63845 0.52132 0.70922 0.0
C812 C 0.66441 0.53859 0.68063 0.0
C813 C 0.69255 0.57823 0.68195 0.0
C814 C 0.61274 0.52753 0.7689 0.0
C815 C 0.66414 0.51476 0.64957 0.0
C816 C 0.59726 0.41229 0.72111 0.0
C817 C 0.56085 0.39696 0.70437 0.0
C818 C 0.62259 0.45277 0.72345 0.0
C819 C 0.61086 0.47845 0.70926 0.0
C820 C 0.57372 0.46304 0.6931 0.0
C821 C 0.54929 0.42253 0.69066 0.0
C822 C 0.6623 0.46805 0.74029 0.0
C823 C 0.55999 0.48939 0.678 0.0
H824 H 0.6721 0.60196 0.76176 0.0
H825 H 0.71402 0.59098 0.66104 0.0
H826 H 0.58223 0.50788 0.75998 0.0
H827 H 0.62183 0.5099 0.7847 0.0
H828 H 0.61312 0.55038 0.78606 0.0
H829 H 0.68481 0.53306 0.62866 0.0
H830 H 0.67246 0.49314 0.65825 0.0
H831 H 0.63428 0.49832 0.63823 0.0
H832 H 0.6063 0.39258 0.73161 0.0
H833 H 0.52088 0.41076 0.67816 0.0
H834 H 0.66597 0.48826 0.76198 0.0
H835 H 0.68568 0.4848 0.72077 0.0
H836 H 0.66659 0.44431 0.75082 0.0
H837 H 0.56153 0.51019 0.6983 0.0
H838 H 0.52949 0.47286 0.66792 0.0
H839 H 0.57959 0.5068 0.65619 0.0
C840 C 0.83351 0.96675 0.72569 0.0
C841 C 0.85266 0.94555 0.73193 0.0
C842 C 0.85354 1.00744 0.72854 0.0
C843 C 0.89374 0.02743 0.73783 0.0
C844 C 0.91314 1.00622 0.74468 0.0
C845 C 0.89234 0.9655 0.7417 0.0
C846 C 0.83183 0.02908 0.72096 0.0
C847 C 0.95586 0.02655 0.75494 0.0
C848 C 0.94883 0.13343 0.71036 0.0
C849 C 0.94474 0.15141 0.74037 0.0
C850 C 0.93377 0.09303 0.70957 0.0
C851 C 0.91531 0.07061 0.73987 0.0
C852 C 0.91403 0.08932 0.77108 0.0
C853 C 0.92803 0.12952 0.77071 0.0
C854 C 0.93481 0.07404 0.67556 0.0
C855 C 0.8956 0.06659 0.80417 0.0
H856 H 0.80303 0.9516 0.71767 0.0
H857 H 0.90718 0.94924 0.74708 0.0
H858 H 0.83308 0.04663 0.7441 0.0
H859 H 0.84608 0.04956 0.69883 0.0
H860 H 0.80057 1.00915 0.71421 0.0
H861 H 0.96635 1.00572 0.7603 0.0
H862 H 0.97402 0.04648 0.73364 0.0
H863 H 0.96065 0.04461 0.77866 0.0
H864 H 0.96097 0.15047 0.68669 0.0
H865 H 0.92457 0.14364 0.79371 0.0
H866 H 0.90458 0.05654 0.66514 0.0
H867 H 0.94622 0.05384 0.67994 0.0
H868 H 0.95321 0.09575 0.65539 0.0
H869 H 0.86332 0.04934 0.80087 0.0
H870 H 0.90216 0.08595 0.82729 0.0
H871 H 0.90611 0.04582 0.8095 0.0
C872 C 0.93589 0.82865 0.74661 0.0
C873 C 0.92373 0.79468 0.72685 0.0
C874 C 0.97614 0.85669 0.74957 0.0
C875 C 1.00453 0.85088 0.73173 0.0
C876 C 0.99194 0.81737 0.71057 0.0
C877 C 0.95194 0.7897 0.70869 0.0
C878 C 0.98841 0.89185 0.77261 0.0
C879 C 1.02081 0.81023 0.69037 0.0
C880 C 0.10855 0.93132 0.71131 0.0
C881 C 0.13071 0.9234 0.73533 0.0
C882 C 0.06733 0.90947 0.71115 0.0
C883 C 0.04756 0.87878 0.73555 0.0
C884 C 0.06969 0.87177 0.76085 0.0
C885 C 0.1109 0.89413 0.76046 0.0
C886 C 0.04506 0.91806 0.68374 0.0
C887 C 0.04992 0.83932 0.7873 0.0
H888 H 0.9142 0.83255 0.76076 0.0
H889 H 0.94266 0.76374 0.69294 0.0
H890 H 1.00586 0.89085 0.79501 0.0
H891 H 1.00747 0.91892 0.75778 0.0
H892 H 0.96286 0.8934 0.78306 0.0
H893 H 1.00607 0.78368 0.67379 0.0
H894 H 1.03924 0.83551 0.67325 0.0
H895 H 1.04071 0.80696 0.70886 0.0
H896 H 0.12352 0.95436 0.69221 0.0
H897 H 0.12767 0.88759 0.77899 0.0
H898 H 1.02085 0.92054 0.69603 0.0
H899 H 1.03168 0.89366 0.66469 0.0
H900 H 0.06425 0.94536 0.66916 0.0
H901 H 1.02567 0.84092 0.80056 0.0
H902 H 0.0707 0.84026 0.80749 0.0
H903 H 1.03694 0.81081 0.77366 0.0
C904 C 0.28749 0.18077 0.70412 0.0
C905 C 0.27887 0.14591 0.72086 0.0
C906 C 0.26028 0.19366 0.70317 0.0
C907 C 0.22366 0.17161 0.72011 0.0
C908 C 0.21425 0.13571 0.7363 0.0
C909 C 0.24192 0.12296 0.73609 0.0
C910 C 0.27129 0.23159 0.68488 0.0
C911 C 0.17573 0.11169 0.75504 0.0
C912 C 0.18148 0.23485 0.74884 0.0
C913 C 0.15461 0.22858 0.72194 0.0
C914 C 0.20237 0.21472 0.74963 0.0
C915 C 0.19685 0.18796 0.72258 0.0
C916 C 0.16913 0.18071 0.69579 0.0
C917 C 0.14826 0.20097 0.69585 0.0
C918 C 0.23162 0.22335 0.77871 0.0
C919 C 0.16264 0.15269 0.66631 0.0
H920 H 0.3159 0.19825 0.6918 0.0
H921 H 0.23533 0.09602 0.74903 0.0
H922 H 0.2482 0.22737 0.66585 0.0
H923 H 0.27364 0.25344 0.70438 0.0
H924 H 0.29966 0.24364 0.67069 0.0
H925 H 0.17154 0.08313 0.7638 0.0
H926 H 0.17458 0.12787 0.77836 0.0
H927 H 0.15097 0.10658 0.73775 0.0
H928 H 0.18712 0.25642 0.76888 0.0
H929 H 0.12706 0.1953 0.67532 0.0
H930 H 0.2618 0.23909 0.76786 0.0
H931 H 0.22726 0.19585 0.79044 0.0
H932 H 0.2293 0.24147 0.79978 0.0
H933 H 0.18939 0.16457 0.64979 0.0
H934 H 0.1375 0.14745 0.64941 0.0
H935 H 0.15731 0.1244 0.67692 0.0
C936 C 0.16239 0.40451 0.26281 0.0
C937 C 0.13694 0.39013 0.29163 0.0
C938 C 0.15225 0.4183 0.2327 0.0
C939 C 0.1163 0.41851 0.23187 0.0
C940 C 0.09109 0.40484 0.26133 0.0
C941 C 0.10125 0.39 0.2903 0.0
C942 C 0.1794 0.43158 0.20145 0.0
C943 C 0.05268 0.40476 0.26192 0.0
C944 C 0.09194 0.47515 0.16492 0.0
C945 C 0.06658 0.4451 0.14253 0.0
C946 C 0.10996 0.46745 0.19342 0.0
C947 C 0.10259 0.42895 0.19921 0.0
C948 C 0.07835 0.39906 0.1755 0.0
C949 C 0.06073 0.40752 0.14757 0.0
C950 C 0.13565 0.50009 0.21806 0.0
C951 C 0.0697 0.35768 0.18036 0.0
H952 H 0.18981 0.40429 0.26353 0.0
H953 H 0.08093 0.37813 0.31209 0.0
H954 H 0.16418 0.41297 0.17844 0.0
H955 H 0.18755 0.46184 0.19437 0.0
H956 H 0.20658 0.4304 0.20643 0.0
H957 H 1.03846 0.39703 0.28813 0.0
H958 H 0.05735 0.43382 0.25442 0.0
H959 H 1.03225 0.38343 0.2425 0.0
H960 H 0.0969 0.50431 0.16065 0.0
H961 H 0.04176 0.38441 0.12976 0.0
H962 H 0.16439 0.50162 0.22126 0.0
H963 H 0.12171 0.49432 0.24434 0.0
H964 H 0.14071 0.52877 0.20867 0.0
H965 H 0.09736 0.35701 0.18364 0.0
H966 H 0.05322 0.33869 0.15789 0.0
H967 H 0.05206 0.34526 0.20452 0.0
C968 C 0.64027 0.73222 0.28669 0.0
C969 C 0.68098 0.75638 0.28969 0.0
C970 C 0.62382 0.70387 0.26002 0.0
C971 C 0.64873 0.69936 0.23589 0.0
C972 C 0.68994 0.72354 0.23916 0.0
C973 C 0.70549 0.75187 0.26581 0.0
C974 C 0.57983 0.67906 0.25742 0.0
C975 C 0.71771 0.71964 0.21436 0.0
C976 C 0.61733 0.608 0.1806 0.0
C977 C 0.61255 0.62027 0.14741 0.0
C978 C 0.62663 0.63246 0.21019 0.0
C979 C 0.63211 0.67049 0.20641 0.0
C980 C 0.62535 0.68221 0.1733 0.0
C981 C 0.61558 0.65698 0.14439 0.0
C982 C 0.63286 0.61842 0.24504 0.0
C983 C 0.6311 0.72246 0.16776 0.0
H984 H 0.62127 0.73596 0.3049 0.0
H985 H 0.737 0.77027 0.26819 0.0
H986 H 0.56978 0.68392 0.23172 0.0
H987 H 0.57102 0.64778 0.25878 0.0
H988 H 0.56452 0.68555 0.27859 0.0
H989 H 0.74894 0.73976 0.22107 0.0
H990 H 0.71229 0.68936 0.21485 0.0
H991 H 0.71245 0.7258 0.18715 0.0
H992 H 0.61552 0.5799 0.18311 0.0
H993 H 0.61319 0.66728 0.11885 0.0
H994 H 0.61723 0.62447 0.26618 0.0
H995 H 0.66455 0.63439 0.25161 0.0
H996 H 0.6226 0.58673 0.24477 0.0
H997 H 0.61521 0.72918 0.18812 0.0
H998 H 0.62084 0.72574 0.14153 0.0
H999 H 0.66269 0.74438 0.1702 0.0
C1000 C 0.43167 0.97406 0.1469 0.0
C1001 C 0.46157 1.01331 0.14725 0.0
C1002 C 0.40605 0.95733 0.1756 0.0
C1003 C 0.41084 0.98011 0.20587 0.0
C1004 C 0.4433 1.0185 0.20765 0.0
C1005 C 0.46804 0.03469 0.17832 0.0
C1006 C 0.37197 0.91636 0.17215 0.0
C1007 C 0.45027 0.04354 0.23966 0.0
C1008 C 0.32089 0.96324 0.25799 0.0
C1009 C 0.32249 0.94323 0.28768 0.0
C1010 C 0.34887 0.97447 0.23101 0.0
C1011 C 0.37964 0.96581 0.23368 0.0
C1012 C 0.38089 0.94474 0.26323 0.0
C1013 C 0.35231 0.93369 0.28988 0.0
C1014 C 0.34564 0.99601 0.1997 0.0
C1015 C 0.4128 0.93446 0.26701 0.0
H1016 H 0.42638 0.95712 0.12321 0.0
H1017 H 0.49106 0.06496 0.17897 0.0
H1018 H 0.36646 0.90006 0.19709 0.0
H1019 H 0.3451 0.91755 0.16569 0.0
H1020 H 0.37691 0.89997 0.151 0.0
H1021 H 0.47919 0.07074 0.23878 0.0
H1022 H 0.42702 0.05152 0.24154 0.0
H1023 H 0.44871 0.02719 0.26379 0.0
H1024 H 0.29781 0.97049 0.25593 0.0
H1025 H 0.35347 0.91778 0.31252 0.0
H1026 H 0.34475 0.9805 0.17517 0.0
H1027 H 0.37184 0.02554 0.19829 0.0
H1028 H 0.31907 0.99901 0.20082 0.0
H1029 H 0.40637 0.913 0.28833 0.0
H1030 H 0.44094 0.96124 0.27295 0.0
H1031 H 0.41688 0.92232 0.24217 0.0
C1032 C 0.43619 0.06213 0.95254 0.0
C1033 C 0.47547 0.0719 0.95682 0.0
C1034 C 0.42421 0.07609 0.92404 0.0
C1035 C 0.45216 0.10079 0.89897 0.0
C1036 C 0.49213 0.11159 0.90357 0.0
C1037 C 0.50329 0.09681 0.93233 0.0
C1038 C 0.38122 0.06306 0.92007 0.0
C1039 C 0.52295 0.13813 0.87771 0.0
C1040 C 0.40971 0.09456 0.80815 0.0
C1041 C 0.40249 0.12585 0.80818 0.0
C1042 C 0.42734 0.08719 0.83682 0.0
C1043 C 0.43851 0.11191 0.86651 0.0
C1044 C 0.43287 0.14466 0.86611 0.0
C1045 C 0.41455 0.15109 0.837 0.0
C1046 C 0.43216 0.05169 0.83594 0.0
C1047 C 0.44513 0.17221 0.89687 0.0
H1048 H 0.4144 0.04259 0.97115 0.0
H1049 H 0.5337 0.10458 0.93556 0.0
H1050 H 0.37713 0.08868 0.91748 0.0
H1051 H 0.36971 0.04551 0.89579 0.0
H1052 H 0.36347 0.04526 0.94264 0.0
H1053 H 0.55307 0.14684 0.88668 0.0
H1054 H 0.51792 0.12324 0.85201 0.0
H1055 H 0.52088 0.16474 0.87343 0.0
H1056 H 0.4002 0.07485 0.78595 0.0
H1057 H 0.40909 0.17532 0.83704 0.0
H1058 H 0.41347 0.03079 0.85647 0.0
H1059 H 0.46295 0.05993 0.84171 0.0
H1060 H 0.42396 0.03666 0.81014 0.0
H1061 H 0.42621 0.15713 0.91978 0.0
H1062 H 0.44292 0.1985 0.89102 0.0
H1063 H 0.47576 0.18146 0.90447 0.0
C1064 C 1.03725 0.43175 0.92804 0.0
C1065 C 1.01338 0.429 0.95643 0.0
C1066 C 1.0227 0.40453 0.90051 0.0
C1067 C 0.98334 0.37353 0.90144 0.0
C1068 C 0.9587 0.3714 0.92948 0.0
C1069 C 0.97396 0.39929 0.95655 0.0
C1070 C 0.0498 0.40846 0.87077 0.0
C1071 C 0.91651 0.33915 0.93124 0.0
C1072 C 0.94412 0.31978 0.8149 0.0
C1073 C 0.95362 0.29009 0.81763 0.0
C1074 C 0.95194 0.34623 0.84253 0.0
C1075 C 0.96895 0.34244 0.87395 0.0
C1076 C 0.97554 0.31058 0.87782 0.0
C1077 C 0.96811 0.28502 0.84954 0.0
C1078 C 0.94473 0.37985 0.83693 0.0
C1079 C 0.99272 0.30485 0.91112 0.0
H1080 H 0.06764 0.45482 0.92766 0.0
H1081 H 0.95516 0.39742 0.97815 0.0
H1082 H 0.05461 0.38316 0.87075 0.0
H1083 H 1.03627 0.40847 0.84527 0.0
H1084 H 0.07873 0.43554 0.87274 0.0
H1085 H 0.90053 0.34281 0.95361 0.0
H1086 H 0.90103 0.33804 0.90662 0.0
H1087 H 0.91532 0.3107 0.93388 0.0
H1088 H 0.93305 0.32407 0.79032 0.0
H1089 H 0.97551 0.26217 0.85179 0.0
H1090 H 0.9732 0.40694 0.83288 0.0
H1091 H 0.93068 0.38438 0.86029 0.0
H1092 H 0.92597 0.37536 0.81364 0.0
H1093 H 1.02359 0.3286 0.91384 0.0
H1094 H 0.99217 0.27655 0.91142 0.0
H1095 H 0.97637 0.30623 0.93428 0.0
C1096 C 0.79085 0.6935 0.84791 0.0
C1097 C 0.78306 0.67494 0.8152 0.0
C1098 C 0.76665 0.67545 0.87713 0.0
C1099 C 0.7333 0.63789 0.87357 0.0
C1100 C 0.72755 0.61743 0.84153 0.0
C1101 C 0.75261 0.63617 0.81273 0.0
C1102 C 0.77464 0.69831 0.91075 0.0
C1103 C 0.69276 0.57719 0.83655 0.0
C1104 C 0.6748 0.58892 0.95687 0.0
C1105 C 0.64645 0.60051 0.95687 0.0
C1106 C 0.7028 0.60004 0.92976 0.0
C1107 C 0.70208 0.62284 0.90146 0.0
C1108 C 0.6725 0.6334 0.90076 0.0
C1109 C 0.64523 0.62226 0.92845 0.0
C1110 C 0.73377 0.5883 0.932 0.0
C1111 C 0.67015 0.65731 0.87106 0.0
H1112 H 0.81381 0.72374 0.84982 0.0
H1113 H 0.7458 0.62182 0.78746 0.0
H1114 H 0.75293 0.70823 0.91371 0.0
H1115 H 0.77146 0.67982 0.93373 0.0
H1116 H 0.80449 0.72432 0.91109 0.0
H1117 H 0.69547 0.56299 0.81241 0.0
H1118 H 0.68921 0.55844 0.85943 0.0
H1119 H 0.66573 0.57923 0.83455 0.0
H1120 H 0.67515 0.57122 0.97823 0.0
H1121 H 0.62325 0.63111 0.9281 0.0
H1122 H 0.76267 0.61444 0.93722 0.0
H1123 H 0.73616 0.57572 0.90675 0.0
H1124 H 0.72758 0.5668 0.95323 0.0
H1125 H 0.69704 0.68639 0.87064 0.0
H1126 H 0.6443 0.66139 0.87339 0.0
H1127 H 0.66854 0.64304 0.84558 0.0
C1128 C 0.74689 0.80878 0.50488 0.0
C1129 C 0.73829 0.78611 0.47451 0.0
C1130 C 0.76467 0.80179 0.53402 0.0
C1131 C 0.77307 0.77083 0.53294 0.0
C1132 C 0.76545 0.74881 0.50172 0.0
C1133 C 0.7483 0.75679 0.473 0.0
C1134 C 0.77312 0.82657 0.56642 0.0
C1135 C 0.77312 0.71515 0.49928 0.0
C1136 C 0.83553 0.75577 0.60148 0.0
C1137 C 0.80664 0.72899 0.62421 0.0
C1138 C 0.82533 0.77096 0.57236 0.0
C1139 C 0.78529 0.75826 0.56539 0.0
C1140 C 0.75619 0.73119 0.58841 0.0
C1141 C 0.76724 0.71733 0.61761 0.0
C1142 C 0.85731 0.80043 0.54898 0.0
C1143 C 0.71312 0.71593 0.58173 0.0
H1144 H 0.73897 0.83131 0.50611 0.0
H1145 H 0.74099 0.7388 0.44968 0.0
H1146 H 0.75272 0.80903 0.58772 0.0
H1147 H 0.80336 0.83658 0.57582 0.0
H1148 H 0.76976 0.8524 0.56162 0.0
H1149 H 0.76852 0.70297 0.47233 0.0
H1150 H 0.80356 0.7244 0.50742 0.0
H1151 H 0.75314 0.69166 0.51741 0.0
H1152 H 0.86605 0.76516 0.60668 0.0
H1153 H 0.74473 0.69658 0.63505 0.0
H1154 H 0.85414 0.8266 0.54618 0.0
H1155 H 0.85468 0.78805 0.52237 0.0
H1156 H 0.88703 0.80952 0.55931 0.0
H1157 H 0.70707 0.7404 0.58064 0.0
H1158 H 0.69417 0.69515 0.60226 0.0
H1159 H 0.70477 0.70095 0.55594 0.0
C1160 C 0.31407 1.00331 0.47434 0.0
C1161 C 0.28057 0.96626 0.47262 0.0
C1162 C 0.32049 0.02839 0.50264 0.0
C1163 C 0.29274 1.01618 0.53022 0.0
C1164 C 0.25787 0.9794 0.52784 0.0
C1165 C 0.25224 0.95467 0.49904 0.0
C1166 C 0.35812 0.06709 0.50389 0.0
C1167 C 0.2273 0.96561 0.55638 0.0
C1168 C 0.3387 0.05798 0.6186 0.0
C1169 C 0.33223 0.08955 0.62241 0.0
C1170 C 0.32443 0.03303 0.58958 0.0
C1171 C 0.30313 0.03969 0.56326 0.0
C1172 C 0.29556 0.07097 0.56732 0.0
C1173 C 0.31039 0.0957 0.59682 0.0
C1174 C 0.33373 1.00048 0.5864 0.0
C1175 C 0.27303 0.07917 0.53997 0.0
H1176 H 0.33591 1.01232 0.45372 0.0
H1177 H 0.22626 0.92611 0.49758 0.0
H1178 H 0.35184 0.09095 0.50921 0.0
H1179 H 0.37679 0.06692 0.52559 0.0
H1180 H 0.37501 0.07362 0.47904 0.0
H1181 H 0.19996 0.93868 0.5488 0.0
H1182 H 0.23904 0.95962 0.58056 0.0
H1183 H 0.22009 0.98864 0.5628 0.0
H1184 H 0.35609 0.05332 0.63795 0.0
H1185 H 0.30533 0.12007 0.59962 0.0
H1186 H 0.35321 1.00588 0.5635 0.0
H1187 H 0.3065 0.97232 0.58189 0.0
H1188 H 0.34847 0.99772 0.61016 0.0
H1189 H 0.29185 0.09218 0.51656 0.0
H1190 H 0.26374 0.09978 0.54965 0.0
H1191 H 0.24669 0.05181 0.53159 0.0
C1192 C 0.98553 0.2979 0.60866 0.0
C1193 C 0.98067 0.26707 0.62998 0.0
C1194 C 1.01413 0.31266 0.582 0.0
C1195 C 1.03758 0.29528 0.57563 0.0
C1196 C 1.03274 0.26412 0.59726 0.0
C1197 C 1.0048 0.25083 0.6245 0.0
C1198 C 1.0189 0.34661 0.56032 0.0
C1199 C 0.05638 0.24421 0.59111 0.0
C1200 C 0.07269 0.30968 0.48116 0.0
C1201 C 0.11115 0.34092 0.48347 0.0
C1202 C 0.04957 0.29256 0.5111 0.0
C1203 C 0.06473 0.30796 0.54463 0.0
C1204 C 0.10425 0.33845 0.5475 0.0
C1205 C 0.12689 0.35465 0.51688 0.0
C1206 C 1.00772 0.26003 0.50665 0.0
C1207 C 0.12151 0.3564 0.58257 0.0
H1208 H 0.96742 0.31097 0.61325 0.0
H1209 H 1.00126 0.22712 0.64117 0.0
H1210 H 0.05013 0.36992 0.55982 0.0
H1211 H 1.00995 0.33712 0.53285 0.0
H1212 H 1.00103 0.35904 0.57055 0.0
H1213 H 0.05038 0.22156 0.61114 0.0
H1214 H 0.04941 0.23032 0.56482 0.0
H1215 H 0.08816 0.26585 0.59139 0.0
H1216 H 0.05907 0.30142 0.45583 0.0
H1217 H 0.15584 0.38013 0.51894 0.0
H1218 H 0.98712 0.26912 0.51688 0.0
H1219 H 1.00293 0.23424 0.52202 0.0
H1220 H 1.0001 0.25127 0.47887 0.0
H1221 H 0.1088 0.37446 0.59135 0.0
H1222 H 0.15389 0.37519 0.58123 0.0
H1223 H 0.11416 0.33358 0.60269 0.0
loop_
_geom_bond_atom_site_label_1
_geom_bond_atom_site_label_2
_geom_bond_distance
_geom_bond_site_symmetry_2
_ccdc_geom_bond_type
La0 C2 2.928 . S
La0 O20 2.521 . S
La0 O21 2.628 1_556 S
La0 O22 2.554 . S
La0 O23 2.757 1_455 S
La0 O24 2.470 . S
La0 O29 2.482 1_556 S
La0 O31 2.503 1_456 S
La1 C11 2.928 . S
La1 O23 2.482 1_554 S
La1 O25 2.503 1_654 S
La1 O26 2.521 . S
La1 O27 2.628 1_554 S
La1 O28 2.554 . S
La1 O29 2.757 1_655 S
La1 O30 2.470 . S
C2 La0 2.928 . S
C2 C3 1.503 . S
C2 O20 1.261 . S
C2 O21 1.243 1_556 S
C3 C2 1.503 . S
C3 C4 1.394 . S
C3 C8 1.373 1_556 S
C4 C3 1.394 . S
C4 C5 1.380 . S
C4 H32 0.930 . S
C5 C4 1.380 . S
C5 C6 1.376 . S
C5 H33 0.930 . S
C6 C5 1.376 . S
C6 C7 1.370 1_556 S
C7 C6 1.370 1_554 S
C7 C8 1.396 . S
C7 H34 0.929 . S
C8 C3 1.373 1_554 S
C8 C7 1.396 . S
C8 H35 0.929 . S
C9 O22 1.240 1_655 S
C9 O23 1.289 . S
C10 O24 1.258 . S
C10 O25 1.256 . S
C11 La1 2.928 . S
C11 C12 1.503 . S
C11 O26 1.261 . S
C11 O27 1.243 1_554 S
C12 C11 1.503 . S
C12 C13 1.394 . S
C12 C17 1.373 1_554 S
C13 C12 1.394 . S
C13 C14 1.380 . S
C13 H36 0.930 . S
C14 C13 1.380 . S
C14 C15 1.376 . S
C14 H37 0.930 . S
C15 C14 1.376 . S
C15 C16 1.370 1_554 S
C16 C15 1.370 1_556 S
C16 C17 1.396 . S
C16 H38 0.929 . S
C17 C12 1.373 1_556 S
C17 C16 1.396 . S
C17 H39 0.929 . S
C18 O28 1.240 1_455 S
C18 O29 1.289 . S
C19 O30 1.258 . S
C19 O31 1.256 . S
O20 La0 2.521 . S
O20 C2 1.261 . S
O21 La0 2.628 1_554 S
O21 C2 1.243 1_554 S
O22 La0 2.554 . S
O22 C9 1.240 1_455 S
O23 La0 2.757 1_655 S
O23 La1 2.482 1_556 S
O23 C9 1.289 . S
O24 La0 2.470 . S
O24 C10 1.258 . S
O25 La1 2.503 1_456 S
O25 C10 1.256 . S
O26 La1 2.521 . S
O26 C11 1.261 . S
O27 La1 2.628 1_556 S
O27 C11 1.243 1_556 S
O28 La1 2.554 . S
O28 C18 1.240 1_655 S
O29 La0 2.482 1_554 S
O29 La1 2.757 1_455 S
O29 C18 1.289 . S
O30 La1 2.470 . S
O30 C19 1.258 . S
O31 La0 2.503 1_654 S
O31 C19 1.256 . S
H32 C4 0.930 . S
H33 C5 0.930 . S
H34 C7 0.929 . S
H35 C8 0.929 . S
H36 C13 0.930 . S
H37 C14 0.930 . S
H38 C16 0.929 . S
H39 C17 0.929 . S
La40 C42 2.928 . S
La40 O60 2.521 . S
La40 O61 2.628 1_556 S
La40 O62 2.554 . S
La40 O63 2.757 . S
La40 O64 2.470 . S
La40 O69 2.482 1_556 S
La40 O71 2.503 1_556 S
La41 C51 2.928 . S
La41 O63 2.482 1_554 S
La41 O65 2.503 1_554 S
La41 O66 2.521 . S
La41 O67 2.628 1_554 S
La41 O68 2.554 . S
La41 O69 2.757 . S
La41 O70 2.470 . S
C42 La40 2.928 . S
C42 C43 1.503 . S
C42 O60 1.261 . S
C42 O61 1.243 1_556 S
C43 C42 1.503 . S
C43 C44 1.394 . S
C43 C48 1.373 1_556 S
C44 C43 1.394 . S
C44 C45 1.380 . S
C44 H72 0.930 . S
C45 C44 1.380 . S
C45 C46 1.376 . S
C45 H73 0.930 . S
C46 C45 1.376 . S
C46 C47 1.370 1_556 S
C47 C46 1.370 1_554 S
C47 C48 1.396 . S
C47 H74 0.929 . S
C48 C43 1.373 1_554 S
C48 C47 1.396 . S
C48 H75 0.929 . S
C49 O62 1.240 . S
C49 O63 1.289 . S
C50 O64 1.258 . S
C50 O65 1.256 . S
C51 La41 2.928 . S
C51 C52 1.503 . S
C51 O66 1.261 . S
C51 O67 1.243 1_554 S
C52 C51 1.503 . S
C52 C53 1.394 . S
C52 C57 1.373 1_554 S
C53 C52 1.394 . S
C53 C54 1.380 . S
C53 H76 0.930 . S
C54 C53 1.380 . S
C54 C55 1.376 . S
C54 H77 0.930 . S
C55 C54 1.376 . S
C55 C56 1.370 1_554 S
C56 C55 1.370 1_556 S
C56 C57 1.396 . S
C56 H78 0.929 . S
C57 C52 1.373 1_556 S
C57 C56 1.396 . S
C57 H79 0.929 . S
C58 O68 1.240 . S
C58 O69 1.289 . S
C59 O70 1.258 . S
C59 O71 1.256 . S
O60 La40 2.521 . S
O60 C42 1.261 . S
O61 La40 2.628 1_554 S
O61 C42 1.243 1_554 S
O62 La40 2.554 . S
O62 C49 1.240 . S
O63 La40 2.757 . S
O63 La41 2.482 1_556 S
O63 C49 1.289 . S
O64 La40 2.470 . S
O64 C50 1.258 . S
O65 La41 2.503 1_556 S
O65 C50 1.256 . S
O66 La41 2.521 . S
O66 C51 1.261 . S
O67 La41 2.628 1_556 S
O67 C51 1.243 1_556 S
O68 La41 2.554 . S
O68 C58 1.240 . S
O69 La40 2.482 1_554 S
O69 La41 2.757 . S
O69 C58 1.289 . S
O70 La41 2.470 . S
O70 C59 1.258 . S
O71 La40 2.503 1_554 S
O71 C59 1.256 . S
H72 C44 0.930 . S
H73 C45 0.930 . S
H74 C47 0.929 . S
H75 C48 0.929 . S
H76 C53 0.930 . S
H77 C54 0.930 . S
H78 C56 0.929 . S
H79 C57 0.929 . S
La80 C82 2.928 . S
La80 O100 2.521 . S
La80 O101 2.628 1_556 S
La80 O102 2.554 . S
La80 O103 2.757 1_565 S
La80 O104 2.470 . S
La80 O109 2.482 1_556 S
La80 O111 2.503 1_566 S
La81 C91 2.928 . S
La81 O103 2.482 1_554 S
La81 O105 2.503 1_544 S
La81 O106 2.521 . S
La81 O107 2.628 1_554 S
La81 O108 2.554 . S
La81 O109 2.757 1_545 S
La81 O110 2.470 . S
C82 La80 2.928 . S
C82 C83 1.503 . S
C82 O100 1.261 . S
C82 O101 1.243 1_556 S
C83 C82 1.503 . S
C83 C84 1.394 . S
C83 C88 1.373 1_556 S
C84 C83 1.394 . S
C84 C85 1.380 . S
C84 H112 0.930 . S
C85 C84 1.380 . S
C85 C86 1.376 . S
C85 H113 0.930 . S
C86 C85 1.376 . S
C86 C87 1.370 1_556 S
C87 C86 1.370 1_554 S
C87 C88 1.396 . S
C87 H114 0.929 . S
C88 C83 1.373 1_554 S
C88 C87 1.396 . S
C88 H115 0.929 . S
C89 O102 1.240 1_545 S
C89 O103 1.289 . S
C90 O104 1.258 . S
C90 O105 1.256 . S
C91 La81 2.928 . S
C91 C92 1.503 . S
C91 O106 1.261 . S
C91 O107 1.243 1_554 S
C92 C91 1.503 . S
C92 C93 1.394 . S
C92 C97 1.373 1_554 S
C93 C92 1.394 . S
C93 C94 1.380 . S
C93 H116 0.930 . S
C94 C93 1.380 . S
C94 C95 1.376 . S
C94 H117 0.930 . S
C95 C94 1.376 . S
C95 C96 1.370 1_554 S
C96 C95 1.370 1_556 S
C96 C97 1.396 . S
C96 H118 0.929 . S
C97 C92 1.373 1_556 S
C97 C96 1.396 . S
C97 H119 0.929 . S
C98 O108 1.240 1_565 S
C98 O109 1.289 . S
C99 O110 1.258 . S
C99 O111 1.256 . S
O100 La80 2.521 . S
O100 C82 1.261 . S
O101 La80 2.628 1_554 S
O101 C82 1.243 1_554 S
O102 La80 2.554 . S
O102 C89 1.240 1_565 S
O103 La80 2.757 1_545 S
O103 La81 2.482 1_556 S
O103 C89 1.289 . S
O104 La80 2.470 . S
O104 C90 1.258 . S
O105 La81 2.503 1_566 S
O105 C90 1.256 . S
O106 La81 2.521 . S
O106 C91 1.261 . S
O107 La81 2.628 1_556 S
O107 C91 1.243 1_556 S
O108 La81 2.554 . S
O108 C98 1.240 1_545 S
O109 La80 2.482 1_554 S
O109 La81 2.757 1_565 S
O109 C98 1.289 . S
O110 La81 2.470 . S
O110 C99 1.258 . S
O111 La80 2.503 1_544 S
O111 C99 1.256 . S
H112 C84 0.930 . S
H113 C85 0.930 . S
H114 C87 0.929 . S
H115 C88 0.929 . S
H116 C93 0.930 . S
H117 C94 0.930 . S
H118 C96 0.929 . S
H119 C97 0.929 . S
La120 C122 2.928 . S
La120 O140 2.521 . S
La120 O141 2.628 . S
La120 O142 2.554 . S
La120 O143 2.757 . S
La120 O144 2.470 . S
La120 O149 2.482 . S
La120 O151 2.503 . S
La121 C131 2.928 . S
La121 O143 2.482 . S
La121 O145 2.503 . S
La121 O146 2.521 . S
La121 O147 2.628 . S
La121 O148 2.554 . S
La121 O149 2.757 . S
La121 O150 2.470 . S
C122 La120 2.928 . S
C122 C123 1.503 . S
C122 O140 1.261 . S
C122 O141 1.243 . S
C123 C122 1.503 . S
C123 C124 1.394 . S
C123 C128 1.373 . S
C124 C123 1.394 . S
C124 C125 1.380 . S
C124 H152 0.930 . S
C125 C124 1.380 . S
C125 C126 1.376 . S
C125 H153 0.915 1_565 S
C126 C125 1.376 . S
C126 C127 1.370 . S
C127 C126 1.370 . S
C127 C128 1.396 . S
C127 H154 0.929 . S
C128 C123 1.373 . S
C128 C127 1.396 . S
C128 H155 0.929 . S
C129 O142 1.240 . S
C129 O143 1.289 . S
C130 O144 1.258 . S
C130 O145 1.256 . S
C131 La121 2.928 . S
C131 C132 1.503 . S
C131 O146 1.261 . S
C131 O147 1.243 . S
C132 C131 1.503 . S
C132 C133 1.394 . S
C132 C137 1.373 . S
C133 C132 1.394 . S
C133 C134 1.380 . S
C133 H156 0.930 . S
C134 C133 1.380 . S
C134 C135 1.376 . S
C134 H157 0.930 . S
C135 C134 1.376 . S
C135 C136 1.370 . S
C136 C135 1.370 . S
C136 C137 1.396 . S
C136 H158 0.929 . S
C137 C132 1.373 . S
C137 C136 1.396 . S
C137 H159 0.929 . S
C138 O148 1.240 . S
C138 O149 1.289 . S
C139 O150 1.258 . S
C139 O151 1.256 . S
O140 La120 2.521 . S
O140 C122 1.261 . S
O141 La120 2.628 . S
O141 C122 1.243 . S
O142 La120 2.554 . S
O142 C129 1.240 . S
O143 La120 2.757 . S
O143 La121 2.482 . S
O143 C129 1.289 . S
O144 La120 2.470 . S
O144 C130 1.258 . S
O145 La121 2.503 . S
O145 C130 1.256 . S
O146 La121 2.521 . S
O146 C131 1.261 . S
O147 La121 2.628 . S
O147 C131 1.243 . S
O148 La121 2.554 . S
O148 C138 1.240 . S
O149 La120 2.482 . S
O149 La121 2.757 . S
O149 C138 1.289 . S
O150 La121 2.470 . S
O150 C139 1.258 . S
O151 La120 2.503 . S
O151 C139 1.256 . S
H152 C124 0.930 . S
H153 C125 0.915 1_545 S
H154 C127 0.929 . S
H155 C128 0.929 . S
H156 C133 0.930 . S
H157 C134 0.930 . S
H158 C136 0.929 . S
H159 C137 0.929 . S
La160 C162 2.928 . S
La160 O180 2.521 . S
La160 O181 2.628 . S
La160 O182 2.554 . S
La160 O183 2.757 . S
La160 O184 2.470 . S
La160 O189 2.482 . S
La160 O191 2.503 . S
La161 C171 2.928 . S
La161 O183 2.482 . S
La161 O185 2.503 . S
La161 O186 2.521 . S
La161 O187 2.628 . S
La161 O188 2.554 . S
La161 O189 2.757 . S
La161 O190 2.470 . S
C162 La160 2.928 . S
C162 C163 1.503 . S
C162 O180 1.261 . S
C162 O181 1.243 . S
C163 C162 1.503 . S
C163 C164 1.394 . S
C163 C168 1.373 . S
C164 C163 1.394 . S
C164 C165 1.380 . S
C164 H192 0.930 . S
C165 C164 1.380 . S
C165 C166 1.376 . S
C165 H193 0.930 . S
C166 C165 1.376 . S
C166 C167 1.370 . S
C167 C166 1.370 . S
C167 C168 1.396 . S
C167 H194 0.929 . S
C168 C163 1.373 . S
C168 C167 1.396 . S
C168 H195 0.929 . S
C169 O182 1.240 . S
C169 O183 1.289 . S
C170 O184 1.258 . S
C170 O185 1.256 . S
C171 La161 2.928 . S
C171 C172 1.503 . S
C171 O186 1.261 . S
C171 O187 1.243 . S
C172 C171 1.503 . S
C172 C173 1.394 . S
C172 C177 1.373 . S
C173 C172 1.394 . S
C173 C174 1.380 . S
C173 H196 0.930 . S
C174 C173 1.380 . S
C174 C175 1.376 . S
C174 H197 0.930 . S
C175 C174 1.376 . S
C175 C176 1.370 . S
C176 C175 1.370 . S
C176 C177 1.396 . S
C176 H198 0.929 . S
C177 C172 1.373 . S
C177 C176 1.396 . S
C177 H199 0.929 . S
C178 O188 1.240 . S
C178 O189 1.289 . S
C179 O190 1.258 . S
C179 O191 1.256 . S
O180 La160 2.521 . S
O180 C162 1.261 . S
O181 La160 2.628 . S
O181 C162 1.243 . S
O182 La160 2.554 . S
O182 C169 1.240 . S
O183 La160 2.757 . S
O183 La161 2.482 . S
O183 C169 1.289 . S
O184 La160 2.470 . S
O184 C170 1.258 . S
O185 La161 2.503 . S
O185 C170 1.256 . S
O186 La161 2.521 . S
O186 C171 1.261 . S
O187 La161 2.628 . S
O187 C171 1.243 . S
O188 La161 2.554 . S
O188 C178 1.240 . S
O189 La160 2.482 . S
O189 La161 2.757 . S
O189 C178 1.289 . S
O190 La161 2.470 . S
O190 C179 1.258 . S
O191 La160 2.503 . S
O191 C179 1.256 . S
H192 C164 0.930 . S
H193 C165 0.930 . S
H194 C167 0.929 . S
H195 C168 0.929 . S
H196 C173 0.930 . S
H197 C174 0.930 . S
H198 C176 0.929 . S
H199 C177 0.929 . S
La200 C202 2.928 . S
La200 O220 2.521 . S
La200 O221 2.628 . S
La200 O222 2.554 . S
La200 O223 2.757 . S
La200 O224 2.470 . S
La200 O229 2.482 . S
La200 O231 2.503 . S
La201 C211 2.928 . S
La201 O223 2.482 . S
La201 O225 2.503 . S
La201 O226 2.521 . S
La201 O227 2.628 . S
La201 O228 2.554 . S
La201 O229 2.757 . S
La201 O230 2.470 . S
C202 La200 2.928 . S
C202 C203 1.503 . S
C202 O220 1.261 . S
C202 O221 1.243 . S
C203 C202 1.503 . S
C203 C204 1.394 . S
C203 C208 1.373 . S
C204 C203 1.394 . S
C204 C205 1.380 . S
C204 H232 0.930 . S
C205 C204 1.380 . S
C205 C206 1.376 . S
C205 H233 0.930 . S
C206 C205 1.376 . S
C206 C207 1.370 . S
C207 C206 1.370 . S
C207 C208 1.396 . S
C207 H234 0.929 . S
C208 C203 1.373 . S
C208 C207 1.396 . S
C208 H235 0.929 . S
C209 O222 1.240 . S
C209 O223 1.289 . S
C210 O224 1.258 . S
C210 O225 1.256 . S
C211 La201 2.928 . S
C211 C212 1.503 . S
C211 O226 1.261 . S
C211 O227 1.243 . S
C212 C211 1.503 . S
C212 C213 1.394 . S
C212 C217 1.373 . S
C213 C212 1.394 . S
C213 C214 1.380 . S
C213 H236 0.930 . S
C214 C213 1.380 . S
C214 C215 1.376 . S
C214 H237 0.930 . S
C215 C214 1.376 . S
C215 C216 1.370 . S
C216 C215 1.370 . S
C216 C217 1.396 . S
C216 H238 0.929 . S
C217 C212 1.373 . S
C217 C216 1.396 . S
C217 H239 0.929 . S
C218 O228 1.240 . S
C218 O229 1.289 . S
C219 O230 1.258 . S
C219 O231 1.256 . S
O220 La200 2.521 . S
O220 C202 1.261 . S
O221 La200 2.628 . S
O221 C202 1.243 . S
O222 La200 2.554 . S
O222 C209 1.240 . S
O223 La200 2.757 . S
O223 La201 2.482 . S
O223 C209 1.289 . S
O224 La200 2.470 . S
O224 C210 1.258 . S
O225 La201 2.503 . S
O225 C210 1.256 . S
O226 La201 2.521 . S
O226 C211 1.261 . S
O227 La201 2.628 . S
O227 C211 1.243 . S
O228 La201 2.554 . S
O228 C218 1.240 . S
O229 La200 2.482 . S
O229 La201 2.757 . S
O229 C218 1.289 . S
O230 La201 2.470 . S
O230 C219 1.258 . S
O231 La200 2.503 . S
O231 C219 1.256 . S
H232 C204 0.930 . S
H233 C205 0.930 . S
H234 C207 0.929 . S
H235 C208 0.929 . S
H236 C213 0.930 . S
H237 C214 0.930 . S
H238 C216 0.929 . S
H239 C217 0.929 . S
La240 C242 2.928 . S
La240 O260 2.521 . S
La240 O261 2.628 . S
La240 O262 2.554 . S
La240 O263 2.757 . S
La240 O264 2.470 . S
La240 O269 2.482 . S
La240 O271 2.503 . S
La241 C251 2.928 . S
La241 O263 2.482 . S
La241 O265 2.503 . S
La241 O266 2.521 . S
La241 O267 2.628 . S
La241 O268 2.554 . S
La241 O269 2.757 . S
La241 O270 2.470 . S
C242 La240 2.928 . S
C242 C243 1.503 . S
C242 O260 1.261 . S
C242 O261 1.243 . S
C243 C242 1.503 . S
C243 C244 1.394 . S
C243 C248 1.373 . S
C244 C243 1.394 . S
C244 C245 1.380 . S
C244 H272 0.930 . S
C245 C244 1.380 . S
C245 C246 1.376 . S
C245 H273 0.930 . S
C246 C245 1.376 . S
C246 C247 1.370 . S
C247 C246 1.370 . S
C247 C248 1.396 . S
C247 H274 0.929 . S
C248 C243 1.373 . S
C248 C247 1.396 . S
C248 H275 0.929 . S
C249 O262 1.240 . S
C249 O263 1.289 . S
C250 O264 1.258 . S
C250 O265 1.256 . S
C251 La241 2.928 . S
C251 C252 1.503 1_545 S
C251 O266 1.261 . S
C251 O267 1.243 . S
C252 C251 1.503 1_565 S
C252 C253 1.394 . S
C252 C257 1.373 . S
C253 C252 1.394 . S
C253 C254 1.380 . S
C253 H276 0.930 . S
C254 C253 1.380 . S
C254 C255 1.376 . S
C254 H277 0.930 . S
C255 C254 1.376 . S
C255 C256 1.370 . S
C256 C255 1.370 . S
C256 C257 1.396 . S
C256 H278 0.929 . S
C257 C252 1.373 . S
C257 C256 1.396 . S
C257 H279 0.929 . S
C258 O268 1.240 . S
C258 O269 1.289 . S
C259 O270 1.258 . S
C259 O271 1.256 . S
O260 La240 2.521 . S
O260 C242 1.261 . S
O261 La240 2.628 . S
O261 C242 1.243 . S
O262 La240 2.554 . S
O262 C249 1.240 . S
O263 La240 2.757 . S
O263 La241 2.482 . S
O263 C249 1.289 . S
O264 La240 2.470 . S
O264 C250 1.258 . S
O265 La241 2.503 . S
O265 C250 1.256 . S
O266 La241 2.521 . S
O266 C251 1.261 . S
O267 La241 2.628 . S
O267 C251 1.243 . S
O268 La241 2.554 . S
O268 C258 1.240 . S
O269 La240 2.482 . S
O269 La241 2.757 . S
O269 C258 1.289 . S
O270 La241 2.470 . S
O270 C259 1.258 . S
O271 La240 2.503 . S
O271 C259 1.256 . S
H272 C244 0.930 . S
H273 C245 0.930 . S
H274 C247 0.929 . S
H275 C248 0.929 . S
H276 C253 0.930 . S
H277 C254 0.930 . S
H278 C256 0.929 . S
H279 C257 0.929 . S
La280 C282 2.928 . S
La280 O300 2.521 . S
La280 O301 2.628 . S
La280 O302 2.554 . S
La280 O303 2.757 . S
La280 O304 2.470 . S
La280 O309 2.482 . S
La280 O311 2.503 . S
La281 C291 2.928 1_655 S
La281 O303 2.482 . S
La281 O305 2.503 . S
La281 O306 2.510 1_655 S
La281 O307 2.628 . S
La281 O308 2.554 . S
La281 O309 2.757 . S
La281 O310 2.470 . S
C282 La280 2.928 . S
C282 C283 1.503 . S
C282 O300 1.261 . S
C282 O301 1.243 . S
C283 C282 1.503 . S
C283 C284 1.394 . S
C283 C288 1.373 . S
C284 C283 1.394 . S
C284 C285 1.380 . S
C284 H312 0.930 . S
C285 C284 1.380 . S
C285 C286 1.376 . S
C285 H313 0.930 . S
C286 C285 1.376 . S
C286 C287 1.370 . S
C287 C286 1.370 . S
C287 C288 1.396 . S
C287 H314 0.929 . S
C288 C283 1.373 . S
C288 C287 1.396 . S
C288 H315 0.929 . S
C289 O302 1.240 . S
C289 O303 1.289 . S
C290 O304 1.258 . S
C290 O305 1.256 . S
C291 La281 2.928 1_455 S
C291 C292 1.503 . S
C291 O306 1.266 . S
C291 O307 1.243 1_455 S
C292 C291 1.503 . S
C292 C293 1.394 . S
C292 C297 1.373 . S
C293 C292 1.394 . S
C293 C294 1.380 . S
C293 H316 0.930 . S
C294 C293 1.380 . S
C294 C295 1.376 . S
C294 H317 0.930 . S
C295 C294 1.376 . S
C295 C296 1.370 . S
C296 C295 1.370 . S
C296 C297 1.396 . S
C296 H318 0.929 . S
C297 C292 1.373 . S
C297 C296 1.396 . S
C297 H319 0.929 . S
C298 O308 1.240 . S
C298 O309 1.289 . S
C299 O310 1.258 . S
C299 O311 1.256 . S
O300 La280 2.521 . S
O300 C282 1.261 . S
O301 La280 2.628 . S
O301 C282 1.243 . S
O302 La280 2.554 . S
O302 C289 1.240 . S
O303 La280 2.757 . S
O303 La281 2.482 . S
O303 C289 1.289 . S
O304 La280 2.470 . S
O304 C290 1.258 . S
O305 La281 2.503 . S
O305 C290 1.256 . S
O306 La281 2.510 1_455 S
O306 C291 1.266 . S
O307 La281 2.628 . S
O307 C291 1.243 1_655 S
O308 La281 2.554 . S
O308 C298 1.240 . S
O309 La280 2.482 . S
O309 La281 2.757 . S
O309 C298 1.289 . S
O310 La281 2.470 . S
O310 C299 1.258 . S
O311 La280 2.503 . S
O311 C299 1.256 . S
H312 C284 0.930 . S
H313 C285 0.930 . S
H314 C287 0.929 . S
H315 C288 0.929 . S
H316 C293 0.930 . S
H317 C294 0.930 . S
H318 C296 0.929 . S
H319 C297 0.929 . S
La320 C322 2.928 . S
La320 O340 2.521 . S
La320 O341 2.628 . S
La320 O342 2.554 . S
La320 O343 2.757 . S
La320 O344 2.470 . S
La320 O349 2.482 . S
La320 O351 2.503 . S
La321 C331 2.928 . S
La321 O343 2.482 . S
La321 O345 2.503 . S
La321 O346 2.521 . S
La321 O347 2.628 . S
La321 O348 2.554 . S
La321 O349 2.757 . S
La321 O350 2.470 . S
C322 La320 2.928 . S
C322 C323 1.503 . S
C322 O340 1.261 . S
C322 O341 1.243 . S
C323 C322 1.503 . S
C323 C324 1.394 . S
C323 C328 1.373 . S
C324 C323 1.394 . S
C324 C325 1.380 . S
C324 H352 0.930 . S
C325 C324 1.380 . S
C325 C326 1.376 . S
C325 H353 0.930 . S
C326 C325 1.376 . S
C326 C327 1.370 . S
C327 C326 1.370 . S
C327 C328 1.396 . S
C327 H354 0.929 . S
C328 C323 1.373 . S
C328 C327 1.396 . S
C328 H355 0.929 . S
C329 O342 1.240 . S
C329 O343 1.289 . S
C330 O344 1.258 . S
C330 O345 1.256 . S
C331 La321 2.928 . S
C331 C332 1.503 . S
C331 O346 1.261 . S
C331 O347 1.243 . S
C332 C331 1.503 . S
C332 C333 1.394 . S
C332 C337 1.373 . S
C333 C332 1.394 . S
C333 C334 1.380 . S
C333 H356 0.930 . S
C334 C333 1.380 . S
C334 C335 1.376 . S
C334 H357 0.930 . S
C335 C334 1.376 . S
C335 C336 1.370 . S
C336 C335 1.370 . S
C336 C337 1.396 . S
C336 H358 0.929 . S
C337 C332 1.373 . S
C337 C336 1.396 . S
C337 H359 0.929 . S
C338 O348 1.240 . S
C338 O349 1.289 . S
C339 O350 1.258 . S
C339 O351 1.256 . S
O340 La320 2.521 . S
O340 C322 1.261 . S
O341 La320 2.628 . S
O341 C322 1.243 . S
O342 La320 2.554 . S
O342 C329 1.240 . S
O343 La320 2.757 . S
O343 La321 2.482 . S
O343 C329 1.289 . S
O344 La320 2.470 . S
O344 C330 1.258 . S
O345 La321 2.503 . S
O345 C330 1.256 . S
O346 La321 2.521 . S
O346 C331 1.261 . S
O347 La321 2.628 . S
O347 C331 1.243 . S
O348 La321 2.554 . S
O348 C338 1.240 . S
O349 La320 2.482 . S
O349 La321 2.757 . S
O349 C338 1.289 . S
O350 La321 2.470 . S
O350 C339 1.258 . S
O351 La320 2.503 . S
O351 C339 1.256 . S
H352 C324 0.930 . S
H353 C325 0.930 . S
H354 C327 0.929 . S
H355 C328 0.929 . S
H356 C333 0.930 . S
H357 C334 0.930 . S
H358 C336 0.929 . S
H359 C337 0.929 . S
C360 C361 1.391 . S
C360 C362 1.394 . S
C360 H376 0.931 . S
C361 C360 1.391 . S
C361 C365 1.376 1_556 S
C362 C360 1.394 . S
C362 C363 1.369 . S
C362 C366 1.531 . S
C363 C362 1.369 . S
C363 C364 1.410 1_556 S
C363 C371 1.503 . S
C364 C363 1.410 1_554 S
C364 C365 1.392 . S
C364 C367 1.511 . S
C365 C361 1.376 1_554 S
C365 C364 1.392 . S
C365 H377 0.929 . S
C366 C362 1.531 . S
C366 H378 0.960 . S
C366 H379 0.962 . S
C366 H380 0.960 . S
C367 C364 1.511 . S
C367 H381 0.961 . S
C367 H382 0.961 . S
C367 H383 0.961 . S
C368 C369 1.370 . S
C368 C370 1.363 . S
C368 H384 0.931 . S
C369 C368 1.370 . S
C369 C373 1.408 1_556 S
C370 C368 1.363 . S
C370 C371 1.370 . S
C370 C374 1.524 . S
C371 C363 1.503 . S
C371 C370 1.370 . S
C371 C372 1.403 1_556 S
C372 C371 1.403 1_554 S
C372 C373 1.404 . S
C372 C375 1.539 . S
C373 C369 1.408 1_554 S
C373 C372 1.404 . S
C373 H385 0.930 . S
C374 C370 1.524 . S
C374 H386 0.956 . S
C374 H387 0.961 . S
C374 H388 0.961 . S
C375 C372 1.539 . S
C375 H389 0.958 . S
C375 H390 0.961 . S
C375 H391 0.960 . S
H376 C360 0.931 . S
H377 C365 0.929 . S
H378 C366 0.960 . S
H379 C366 0.962 . S
H380 C366 0.960 . S
H381 C367 0.961 . S
H382 C367 0.961 . S
H383 C367 0.961 . S
H384 C368 0.931 . S
H385 C373 0.930 . S
H386 C374 0.956 . S
H387 C374 0.961 . S
H388 C374 0.961 . S
H389 C375 0.958 . S
H390 C375 0.961 . S
H391 C375 0.960 . S
C392 C393 1.391 . S
C392 C394 1.394 . S
C392 H408 0.931 . S
C393 C392 1.391 . S
C393 C397 1.376 1_556 S
C394 C392 1.394 . S
C394 C395 1.369 . S
C394 C398 1.531 . S
C395 C394 1.369 . S
C395 C396 1.410 1_556 S
C395 C403 1.503 . S
C396 C395 1.410 1_554 S
C396 C397 1.392 . S
C396 C399 1.511 . S
C397 C393 1.376 1_554 S
C397 C396 1.392 . S
C397 H409 0.929 . S
C398 C394 1.531 . S
C398 H410 0.960 . S
C398 H411 0.962 . S
C398 H412 0.960 . S
C399 C396 1.511 . S
C399 H413 0.961 . S
C399 H414 0.961 . S
C399 H415 0.961 . S
C400 C401 1.370 1_554 S
C400 C402 1.363 . S
C400 H416 0.931 . S
C401 C400 1.370 1_556 S
C401 C405 1.408 . S
C402 C400 1.363 . S
C402 C403 1.370 1_554 S
C402 C406 1.524 . S
C403 C395 1.503 . S
C403 C402 1.370 1_556 S
C403 C404 1.403 . S
C404 C403 1.403 . S
C404 C405 1.404 . S
C404 C407 1.539 . S
C405 C401 1.408 . S
C405 C404 1.404 . S
C405 H417 0.930 . S
C406 C402 1.524 . S
C406 H418 0.956 . S
C406 H419 0.961 . S
C406 H420 0.961 . S
C407 C404 1.539 . S
C407 H421 0.958 . S
C407 H422 0.961 . S
C407 H423 0.960 . S
H408 C392 0.931 . S
H409 C397 0.929 . S
H410 C398 0.960 . S
H411 C398 0.962 . S
H412 C398 0.960 . S
H413 C399 0.961 . S
H414 C399 0.961 . S
H415 C399 0.961 . S
H416 C400 0.931 . S
H417 C405 0.930 . S
H418 C406 0.956 . S
H419 C406 0.961 . S
H420 C406 0.961 . S
H421 C407 0.958 . S
H422 C407 0.961 . S
H423 C407 0.960 . S
C424 C425 1.391 1_554 S
C424 C426 1.394 . S
C424 H440 0.931 . S
C425 C424 1.391 1_556 S
C425 C429 1.376 . S
C426 C424 1.394 . S
C426 C427 1.368 . S
C426 C430 1.531 . S
C427 C426 1.368 . S
C427 C428 1.410 1_554 S
C427 C435 1.503 1_554 S
C428 C427 1.410 1_556 S
C428 C429 1.392 . S
C428 C431 1.511 . S
C429 C425 1.376 . S
C429 C428 1.392 . S
C429 H441 0.929 . S
C430 C426 1.531 . S
C430 H442 0.960 . S
C430 H443 0.962 1_554 S
C430 H444 0.960 . S
C431 C428 1.511 . S
C431 H445 0.961 . S
C431 H446 0.961 . S
C431 H447 0.961 1_556 S
C432 C433 1.370 . S
C432 C434 1.363 . S
C432 H448 0.931 . S
C433 C432 1.370 . S
C433 C437 1.408 1_556 S
C434 C432 1.363 . S
C434 C435 1.370 . S
C434 C438 1.524 . S
C435 C427 1.503 1_556 S
C435 C434 1.370 . S
C435 C436 1.403 1_556 S
C436 C435 1.403 1_554 S
C436 C437 1.404 . S
C436 C439 1.539 . S
C437 C433 1.408 1_554 S
C437 C436 1.404 . S
C437 H449 0.930 . S
C438 C434 1.524 . S
C438 H450 0.956 . S
C438 H451 0.961 . S
C438 H452 0.961 . S
C439 C436 1.539 . S
C439 H453 0.958 . S
C439 H454 0.961 . S
C439 H455 0.960 . S
H440 C424 0.931 . S
H441 C429 0.929 . S
H442 C430 0.960 . S
H443 C430 0.962 1_556 S
H444 C430 0.960 . S
H445 C431 0.961 . S
H446 C431 0.961 . S
H447 C431 0.961 1_554 S
H448 C432 0.931 . S
H449 C437 0.930 . S
H450 C438 0.956 . S
H451 C438 0.961 . S
H452 C438 0.961 . S
H453 C439 0.958 . S
H454 C439 0.961 . S
H455 C439 0.960 . S
C456 C457 1.391 . S
C456 C458 1.394 1_554 S
C456 H472 0.931 1_554 S
C457 C456 1.391 . S
C457 C461 1.376 . S
C458 C456 1.394 1_556 S
C458 C459 1.369 1_556 S
C458 C462 1.531 . S
C459 C458 1.369 1_554 S
C459 C460 1.410 . S
C459 C467 1.503 . S
C460 C459 1.410 . S
C460 C461 1.392 . S
C460 C463 1.511 . S
C461 C457 1.376 . S
C461 C460 1.392 . S
C461 H473 0.929 . S
C462 C458 1.531 . S
C462 H474 0.960 . S
C462 H475 0.962 1_556 S
C462 H476 0.960 . S
C463 C460 1.511 . S
C463 H477 0.961 . S
C463 H478 0.961 . S
C463 H479 0.984 . S
C464 C465 1.370 . S
C464 C466 1.363 . S
C464 H480 0.931 . S
C465 C464 1.370 . S
C465 C469 1.408 1_554 S
C466 C464 1.363 . S
C466 C467 1.370 . S
C466 C470 1.524 . S
C467 C459 1.503 . S
C467 C466 1.370 . S
C467 C468 1.403 1_554 S
C468 C467 1.403 1_556 S
C468 C469 1.404 . S
C468 C471 1.539 . S
C469 C465 1.408 1_556 S
C469 C468 1.404 . S
C469 H481 0.930 . S
C470 C466 1.524 . S
C470 H482 0.956 . S
C470 H483 0.961 . S
C470 H484 0.961 . S
C471 C468 1.539 . S
C471 H485 0.958 . S
C471 H486 0.961 . S
C471 H487 0.960 . S
H472 C456 0.931 1_556 S
H473 C461 0.929 . S
H474 C462 0.960 . S
H475 C462 0.962 1_554 S
H476 C462 0.960 . S
H477 C463 0.961 . S
H478 C463 0.961 . S
H479 C463 0.984 . S
H480 C464 0.931 . S
H481 C469 0.930 . S
H482 C470 0.956 . S
H483 C470 0.961 . S
H484 C470 0.961 . S
H485 C471 0.958 . S
H486 C471 0.961 . S
H487 C471 0.960 . S
C488 C489 1.391 . S
C488 C490 1.394 . S
C488 H504 0.931 . S
C489 C488 1.391 . S
C489 C493 1.376 1_554 S
C490 C488 1.394 . S
C490 C491 1.369 . S
C490 C494 1.531 . S
C491 C490 1.369 . S
C491 C492 1.396 1_554 S
C491 C499 1.503 . S
C492 C491 1.396 1_556 S
C492 C493 1.395 . S
C492 C495 1.523 . S
C493 C489 1.376 1_556 S
C493 C492 1.395 . S
C493 H505 0.929 . S
C494 C490 1.531 . S
C494 H506 0.960 . S
C494 H507 0.962 . S
C494 H508 0.960 . S
C495 C492 1.523 . S
C495 H509 0.961 . S
C495 H510 0.961 . S
C495 H511 0.961 . S
C496 C497 1.370 1_556 S
C496 C498 1.363 . S
C496 H512 0.931 . S
C497 C496 1.370 1_554 S
C497 C501 1.408 . S
C498 C496 1.363 . S
C498 C499 1.370 1_556 S
C498 C502 1.524 . S
C499 C491 1.503 . S
C499 C498 1.370 1_554 S
C499 C500 1.403 . S
C500 C499 1.403 . S
C500 C501 1.404 . S
C500 C503 1.539 . S
C501 C497 1.408 . S
C501 C500 1.404 . S
C501 H513 0.930 . S
C502 C498 1.524 . S
C502 H514 0.956 . S
C502 H515 0.961 . S
C502 H516 0.961 . S
C503 C500 1.539 . S
C503 H517 0.958 . S
C503 H518 0.961 . S
C503 H519 0.960 . S
H504 C488 0.931 . S
H505 C493 0.929 . S
H506 C494 0.960 . S
H507 C494 0.962 . S
H508 C494 0.960 . S
H509 C495 0.961 . S
H510 C495 0.961 . S
H511 C495 0.961 . S
H512 C496 0.931 . S
H513 C501 0.930 . S
H514 C502 0.956 . S
H515 C502 0.961 . S
H516 C502 0.961 . S
H517 C503 0.958 . S
H518 C503 0.961 . S
H519 C503 0.960 . S
C520 C521 1.391 . S
C520 C522 1.394 . S
C520 H536 0.931 1_554 S
C521 C520 1.391 . S
C521 C525 1.376 . S
C522 C520 1.394 . S
C522 C523 1.369 . S
C522 C526 1.531 1_554 S
C523 C522 1.369 . S
C523 C524 1.410 . S
C523 C531 1.503 . S
C524 C523 1.410 . S
C524 C525 1.392 . S
C524 C527 1.511 . S
C525 C521 1.376 . S
C525 C524 1.392 . S
C525 H537 0.929 . S
C526 C522 1.531 1_556 S
C526 H538 0.960 . S
C526 H539 0.962 1_556 S
C526 H540 0.960 . S
C527 C524 1.511 . S
C527 H541 0.961 . S
C527 H542 0.961 . S
C527 H543 0.961 1_554 S
C528 C529 1.370 . S
C528 C530 1.363 . S
C528 H544 0.931 . S
C529 C528 1.370 . S
C529 C533 1.408 1_554 S
C530 C528 1.363 . S
C530 C531 1.370 . S
C530 C534 1.524 . S
C531 C523 1.503 . S
C531 C530 1.370 . S
C531 C532 1.403 1_554 S
C532 C531 1.403 1_556 S
C532 C533 1.404 . S
C532 C535 1.539 . S
C533 C529 1.408 1_556 S
C533 C532 1.404 . S
C533 H545 0.930 . S
C534 C530 1.524 . S
C534 H546 0.956 . S
C534 H547 0.961 . S
C534 H548 0.961 . S
C535 C532 1.539 . S
C535 H549 0.958 . S
C535 H550 0.961 . S
C535 H551 0.960 . S
H536 C520 0.931 1_556 S
H537 C525 0.929 . S
H538 C526 0.960 . S
H539 C526 0.962 1_554 S
H540 C526 0.960 . S
H541 C527 0.961 . S
H542 C527 0.961 . S
H543 C527 0.961 1_556 S
H544 C528 0.931 . S
H545 C533 0.930 . S
H546 C534 0.956 . S
H547 C534 0.961 . S
H548 C534 0.961 . S
H549 C535 0.958 . S
H550 C535 0.961 . S
H551 C535 0.960 . S
C552 C553 1.391 . S
C552 C554 1.394 . S
C552 H568 0.931 . S
C553 C552 1.391 . S
C553 C557 1.376 . S
C554 C552 1.394 . S
C554 C555 1.369 . S
C554 C558 1.531 . S
C555 C554 1.369 . S
C555 C556 1.410 . S
C555 C563 1.503 . S
C556 C555 1.410 . S
C556 C557 1.392 . S
C556 C559 1.511 . S
C557 C553 1.376 . S
C557 C556 1.392 . S
C557 H569 0.929 . S
C558 C554 1.531 . S
C558 H570 0.960 . S
C558 H571 0.962 . S
C558 H572 0.960 . S
C559 C556 1.511 . S
C559 H573 0.961 . S
C559 H574 0.961 . S
C559 H575 0.961 . S
C560 C561 1.370 . S
C560 C562 1.363 . S
C560 H576 0.931 . S
C561 C560 1.370 . S
C561 C565 1.408 . S
C562 C560 1.363 . S
C562 C563 1.370 . S
C562 C566 1.524 . S
C563 C555 1.503 . S
C563 C562 1.370 . S
C563 C564 1.403 . S
C564 C563 1.403 . S
C564 C565 1.404 . S
C564 C567 1.539 . S
C565 C561 1.408 . S
C565 C564 1.404 . S
C565 H577 0.930 . S
C566 C562 1.524 . S
C566 H578 0.956 . S
C566 H579 0.961 . S
C566 H580 0.961 . S
C567 C564 1.539 . S
C567 H581 0.958 . S
C567 H582 0.961 . S
C567 H583 0.960 . S
H568 C552 0.931 . S
H569 C557 0.929 . S
H570 C558 0.960 . S
H571 C558 0.962 . S
H572 C558 0.960 . S
H573 C559 0.961 . S
H574 C559 0.961 . S
H575 C559 0.961 . S
H576 C560 0.931 . S
H577 C565 0.930 . S
H578 C566 0.956 . S
H579 C566 0.961 . S
H580 C566 0.961 . S
H581 C567 0.958 . S
H582 C567 0.961 . S
H583 C567 0.960 . S
C584 C585 1.391 . S
C584 C586 1.394 . S
C584 H600 0.931 . S
C585 C584 1.391 . S
C585 C589 1.376 . S
C586 C584 1.394 . S
C586 C587 1.369 . S
C586 C590 1.531 . S
C587 C586 1.369 . S
C587 C588 1.410 . S
C587 C595 1.503 . S
C588 C587 1.410 . S
C588 C589 1.392 . S
C588 C591 1.511 . S
C589 C585 1.376 . S
C589 C588 1.392 . S
C589 H601 0.929 . S
C590 C586 1.531 . S
C590 H602 0.960 . S
C590 H603 0.962 1_545 S
C590 H604 0.960 . S
C591 C588 1.511 . S
C591 H605 0.961 . S
C591 H606 0.961 . S
C591 H607 0.961 . S
C592 C593 1.370 . S
C592 C594 1.362 . S
C592 H608 0.931 . S
C593 C592 1.370 . S
C593 C597 1.408 1_565 S
C594 C592 1.362 . S
C594 C595 1.372 1_565 S
C594 C598 1.525 . S
C595 C587 1.503 . S
C595 C594 1.372 1_545 S
C595 C596 1.403 . S
C596 C595 1.403 . S
C596 C597 1.404 . S
C596 C599 1.539 . S
C597 C593 1.408 1_545 S
C597 C596 1.404 . S
C597 H609 0.930 . S
C598 C594 1.525 . S
C598 H610 0.956 . S
C598 H611 0.961 1_565 S
C598 H612 0.961 . S
C599 C596 1.539 . S
C599 H613 0.958 . S
C599 H614 0.961 . S
C599 H615 0.960 . S
H600 C584 0.931 . S
H601 C589 0.929 . S
H602 C590 0.960 . S
H603 C590 0.962 1_565 S
H604 C590 0.960 . S
H605 C591 0.961 . S
H606 C591 0.961 . S
H607 C591 0.961 . S
H608 C592 0.931 . S
H609 C597 0.930 . S
H610 C598 0.956 . S
H611 C598 0.961 1_545 S
H612 C598 0.961 . S
H613 C599 0.958 . S
H614 C599 0.961 . S
H615 C599 0.960 . S
C616 C617 1.391 . S
C616 C618 1.394 1_455 S
C616 H632 0.931 . S
C617 C616 1.391 . S
C617 C621 1.376 . S
C618 C616 1.394 1_655 S
C618 C619 1.369 . S
C618 C622 1.531 . S
C619 C618 1.369 . S
C619 C620 1.410 . S
C619 C627 1.503 . S
C620 C619 1.410 . S
C620 C621 1.392 1_655 S
C620 C623 1.511 . S
C621 C617 1.376 . S
C621 C620 1.392 1_455 S
C621 H633 0.929 . S
C622 C618 1.531 . S
C622 H634 0.960 . S
C622 H635 0.962 . S
C622 H636 0.960 . S
C623 C620 1.511 . S
C623 H637 0.961 . S
C623 H638 0.961 . S
C623 H639 0.961 . S
C624 C625 1.370 . S
C624 C626 1.363 . S
C624 H640 0.931 . S
C625 C624 1.370 . S
C625 C629 1.408 . S
C626 C624 1.363 . S
C626 C627 1.370 . S
C626 C630 1.524 1_655 S
C627 C619 1.503 . S
C627 C626 1.370 . S
C627 C628 1.403 . S
C628 C627 1.403 . S
C628 C629 1.404 . S
C628 C631 1.539 . S
C629 C625 1.408 . S
C629 C628 1.404 . S
C629 H641 0.930 . S
C630 C626 1.524 1_455 S
C630 H642 0.956 . S
C630 H643 0.961 . S
C630 H644 0.961 . S
C631 C628 1.539 . S
C631 H645 0.958 . S
C631 H646 0.961 . S
C631 H647 0.960 . S
H632 C616 0.931 . S
H633 C621 0.929 . S
H634 C622 0.960 . S
H635 C622 0.962 . S
H636 C622 0.960 . S
H637 C623 0.961 . S
H638 C623 0.961 . S
H639 C623 0.961 . S
H640 C624 0.931 . S
H641 C629 0.930 . S
H642 C630 0.956 . S
H643 C630 0.961 . S
H644 C630 0.961 . S
H645 C631 0.958 . S
H646 C631 0.961 . S
H647 C631 0.960 . S
C648 C649 1.391 . S
C648 C650 1.394 . S
C648 H664 0.931 . S
C649 C648 1.391 . S
C649 C653 1.376 . S
C650 C648 1.394 . S
C650 C651 1.369 . S
C650 C654 1.531 . S
C651 C650 1.369 . S
C651 C652 1.410 . S
C651 C659 1.503 . S
C652 C651 1.410 . S
C652 C653 1.392 . S
C652 C655 1.511 . S
C653 C649 1.376 . S
C653 C652 1.392 . S
C653 H665 0.929 . S
C654 C650 1.531 . S
C654 H666 0.960 . S
C654 H667 0.962 . S
C654 H668 0.960 . S
C655 C652 1.511 . S
C655 H669 0.961 . S
C655 H670 0.961 . S
C655 H671 0.961 . S
C656 C657 1.370 . S
C656 C658 1.363 . S
C656 H672 0.931 . S
C657 C656 1.370 . S
C657 C661 1.408 . S
C658 C656 1.363 . S
C658 C659 1.370 . S
C658 C662 1.524 . S
C659 C651 1.503 . S
C659 C658 1.370 . S
C659 C660 1.403 . S
C660 C659 1.403 . S
C660 C661 1.404 . S
C660 C663 1.539 . S
C661 C657 1.408 . S
C661 C660 1.404 . S
C661 H673 0.930 . S
C662 C658 1.524 . S
C662 H674 0.956 . S
C662 H675 0.961 . S
C662 H676 0.961 . S
C663 C660 1.539 . S
C663 H677 0.958 . S
C663 H678 0.961 . S
C663 H679 0.960 . S
H664 C648 0.931 . S
H665 C653 0.929 . S
H666 C654 0.960 . S
H667 C654 0.962 . S
H668 C654 0.960 . S
H669 C655 0.961 . S
H670 C655 0.961 . S
H671 C655 0.961 . S
H672 C656 0.931 . S
H673 C661 0.930 . S
H674 C662 0.956 . S
H675 C662 0.961 . S
H676 C662 0.961 . S
H677 C663 0.958 . S
H678 C663 0.961 . S
H679 C663 0.960 . S
C680 C681 1.391 . S
C680 C682 1.394 . S
C680 H696 0.931 . S
C681 C680 1.391 . S
C681 C685 1.376 . S
C682 C680 1.394 . S
C682 C683 1.369 . S
C682 C686 1.531 . S
C683 C682 1.369 . S
C683 C684 1.410 . S
C683 C691 1.503 . S
C684 C683 1.410 . S
C684 C685 1.392 . S
C684 C687 1.511 . S
C685 C681 1.376 . S
C685 C684 1.392 . S
C685 H697 0.929 . S
C686 C682 1.531 . S
C686 H698 0.960 . S
C686 H699 0.962 . S
C686 H700 0.960 . S
C687 C684 1.511 . S
C687 H701 0.961 . S
C687 H702 0.961 . S
C687 H703 0.961 . S
C688 C689 1.370 . S
C688 C690 1.363 . S
C688 H704 0.931 . S
C689 C688 1.370 . S
C689 C693 1.408 . S
C690 C688 1.363 . S
C690 C691 1.370 . S
C690 C694 1.524 . S
C691 C683 1.503 . S
C691 C690 1.370 . S
C691 C692 1.403 . S
C692 C691 1.403 . S
C692 C693 1.404 . S
C692 C695 1.539 . S
C693 C689 1.408 . S
C693 C692 1.404 . S
C693 H705 0.930 . S
C694 C690 1.524 . S
C694 H706 0.956 . S
C694 H707 0.961 . S
C694 H708 0.961 . S
C695 C692 1.539 . S
C695 H709 0.958 . S
C695 H710 0.961 . S
C695 H711 0.960 . S
H696 C680 0.931 . S
H697 C685 0.929 . S
H698 C686 0.960 . S
H699 C686 0.962 . S
H700 C686 0.960 . S
H701 C687 0.961 . S
H702 C687 0.961 . S
H703 C687 0.961 . S
H704 C688 0.931 . S
H705 C693 0.930 . S
H706 C694 0.956 . S
H707 C694 0.961 . S
H708 C694 0.961 . S
H709 C695 0.958 . S
H710 C695 0.961 . S
H711 C695 0.960 . S
C712 C713 1.391 . S
C712 C714 1.394 . S
C712 H728 0.931 . S
C713 C712 1.391 . S
C713 C717 1.376 . S
C714 C712 1.394 . S
C714 C715 1.369 . S
C714 C718 1.531 . S
C715 C714 1.369 . S
C715 C716 1.410 . S
C715 C723 1.503 . S
C716 C715 1.410 . S
C716 C717 1.392 . S
C716 C719 1.511 . S
C717 C713 1.376 . S
C717 C716 1.392 . S
C717 H729 0.929 . S
C718 C714 1.531 . S
C718 H730 0.960 . S
C718 H731 0.962 . S
C718 H732 0.960 . S
C719 C716 1.511 . S
C719 H733 0.961 . S
C719 H734 0.961 . S
C719 H735 0.961 . S
C720 C721 1.370 . S
C720 C722 1.363 . S
C720 H736 0.931 . S
C721 C720 1.370 . S
C721 C725 1.408 . S
C722 C720 1.363 . S
C722 C723 1.370 . S
C722 C726 1.524 . S
C723 C715 1.503 . S
C723 C722 1.370 . S
C723 C724 1.403 . S
C724 C723 1.403 . S
C724 C725 1.404 . S
C724 C727 1.539 . S
C725 C721 1.408 . S
C725 C724 1.404 . S
C725 H737 0.930 . S
C726 C722 1.524 . S
C726 H738 0.956 . S
C726 H739 0.961 . S
C726 H740 0.961 . S
C727 C724 1.539 . S
C727 H741 0.958 . S
C727 H742 0.961 . S
C727 H743 0.960 . S
H728 C712 0.931 . S
H729 C717 0.929 . S
H730 C718 0.960 . S
H731 C718 0.962 . S
H732 C718 0.960 . S
H733 C719 0.961 . S
H734 C719 0.961 . S
H735 C719 0.961 . S
H736 C720 0.931 . S
H737 C725 0.930 . S
H738 C726 0.956 . S
H739 C726 0.961 . S
H740 C726 0.961 . S
H741 C727 0.958 . S
H742 C727 0.961 . S
H743 C727 0.960 . S
C744 C745 1.391 . S
C744 C746 1.394 . S
C744 H760 0.931 . S
C745 C744 1.391 . S
C745 C749 1.376 . S
C746 C744 1.394 . S
C746 C747 1.369 . S
C746 C750 1.531 . S
C747 C746 1.369 . S
C747 C748 1.410 . S
C747 C755 1.503 . S
C748 C747 1.410 . S
C748 C749 1.392 . S
C748 C751 1.511 . S
C749 C745 1.376 . S
C749 C748 1.392 . S
C749 H761 0.929 . S
C750 C746 1.531 . S
C750 H762 0.960 . S
C750 H763 0.962 . S
C750 H764 0.960 . S
C751 C748 1.511 . S
C751 H765 0.961 . S
C751 H766 0.961 . S
C751 H767 0.961 . S
C752 C753 1.370 . S
C752 C754 1.363 . S
C752 H768 0.931 . S
C753 C752 1.370 . S
C753 C757 1.408 . S
C754 C752 1.363 . S
C754 C755 1.370 . S
C754 C758 1.524 . S
C755 C747 1.503 . S
C755 C754 1.370 . S
C755 C756 1.403 . S
C756 C755 1.403 . S
C756 C757 1.404 . S
C756 C759 1.539 . S
C757 C753 1.408 . S
C757 C756 1.404 . S
C757 H769 0.930 . S
C758 C754 1.524 . S
C758 H770 0.956 . S
C758 H771 0.961 . S
C758 H772 0.961 . S
C759 C756 1.539 . S
C759 H773 0.958 . S
C759 H774 0.961 . S
C759 H775 0.960 . S
H760 C744 0.931 . S
H761 C749 0.929 . S
H762 C750 0.960 . S
H763 C750 0.962 . S
H764 C750 0.960 . S
H765 C751 0.961 . S
H766 C751 0.961 . S
H767 C751 0.961 . S
H768 C752 0.931 . S
H769 C757 0.930 . S
H770 C758 0.956 . S
H771 C758 0.961 . S
H772 C758 0.961 . S
H773 C759 0.958 . S
H774 C759 0.961 . S
H775 C759 0.960 . S
C776 C777 1.391 . S
C776 C778 1.394 . S
C776 H792 0.931 . S
C777 C776 1.391 . S
C777 C781 1.376 . S
C778 C776 1.394 . S
C778 C779 1.369 . S
C778 C782 1.531 . S
C779 C778 1.369 . S
C779 C780 1.410 . S
C779 C787 1.503 . S
C780 C779 1.410 . S
C780 C781 1.392 . S
C780 C783 1.511 . S
C781 C777 1.376 . S
C781 C780 1.392 . S
C781 H793 0.929 . S
C782 C778 1.531 . S
C782 H794 0.960 . S
C782 H795 0.962 . S
C782 H796 0.960 . S
C783 C780 1.511 . S
C783 H797 0.961 . S
C783 H798 0.961 . S
C783 H799 0.961 . S
C784 C785 1.370 . S
C784 C786 1.363 . S
C784 H800 0.931 . S
C785 C784 1.370 . S
C785 C789 1.408 . S
C786 C784 1.363 . S
C786 C787 1.370 . S
C786 C790 1.524 . S
C787 C779 1.503 . S
C787 C786 1.370 . S
C787 C788 1.403 . S
C788 C787 1.403 . S
C788 C789 1.404 . S
C788 C791 1.539 . S
C789 C785 1.408 . S
C789 C788 1.404 . S
C789 H801 0.930 . S
C790 C786 1.524 . S
C790 H802 0.956 . S
C790 H803 0.961 . S
C790 H804 0.961 . S
C791 C788 1.539 . S
C791 H805 0.958 . S
C791 H806 0.961 . S
C791 H807 0.960 . S
H792 C776 0.931 . S
H793 C781 0.929 . S
H794 C782 0.960 . S
H795 C782 0.962 . S
H796 C782 0.960 . S
H797 C783 0.961 . S
H798 C783 0.961 . S
H799 C783 0.961 . S
H800 C784 0.931 . S
H801 C789 0.930 . S
H802 C790 0.956 . S
H803 C790 0.961 . S
H804 C790 0.961 . S
H805 C791 0.958 . S
H806 C791 0.961 . S
H807 C791 0.960 . S
C808 C809 1.391 . S
C808 C810 1.394 . S
C808 H824 0.931 . S
C809 C808 1.391 . S
C809 C813 1.376 . S
C810 C808 1.394 . S
C810 C811 1.369 . S
C810 C814 1.531 . S
C811 C810 1.369 . S
C811 C812 1.410 . S
C811 C819 1.503 . S
C812 C811 1.410 . S
C812 C813 1.392 . S
C812 C815 1.511 . S
C813 C809 1.376 . S
C813 C812 1.392 . S
C813 H825 0.929 . S
C814 C810 1.531 . S
C814 H826 0.960 . S
C814 H827 0.962 . S
C814 H828 0.960 . S
C815 C812 1.511 . S
C815 H829 0.961 . S
C815 H830 0.961 . S
C815 H831 0.961 . S
C816 C817 1.370 . S
C816 C818 1.363 . S
C816 H832 0.931 . S
C817 C816 1.370 . S
C817 C821 1.408 . S
C818 C816 1.363 . S
C818 C819 1.370 . S
C818 C822 1.524 . S
C819 C811 1.503 . S
C819 C818 1.370 . S
C819 C820 1.403 . S
C820 C819 1.403 . S
C820 C821 1.404 . S
C820 C823 1.539 . S
C821 C817 1.408 . S
C821 C820 1.404 . S
C821 H833 0.930 . S
C822 C818 1.524 . S
C822 H834 0.956 . S
C822 H835 0.961 . S
C822 H836 0.961 . S
C823 C820 1.539 . S
C823 H837 0.958 . S
C823 H838 0.961 . S
C823 H839 0.960 . S
H824 C808 0.931 . S
H825 C813 0.929 . S
H826 C814 0.960 . S
H827 C814 0.962 . S
H828 C814 0.960 . S
H829 C815 0.961 . S
H830 C815 0.961 . S
H831 C815 0.961 . S
H832 C816 0.931 . S
H833 C821 0.930 . S
H834 C822 0.956 . S
H835 C822 0.961 . S
H836 C822 0.961 . S
H837 C823 0.958 . S
H838 C823 0.961 . S
H839 C823 0.960 . S
C840 C841 1.391 . S
C840 C842 1.394 . S
C840 H856 0.931 . S
C841 C840 1.391 . S
C841 C845 1.376 . S
C842 C840 1.394 . S
C842 C843 1.369 1_565 S
C842 C846 1.531 . S
C843 C842 1.369 1_545 S
C843 C844 1.410 1_545 S
C843 C851 1.503 . S
C844 C843 1.410 1_565 S
C844 C845 1.392 . S
C844 C847 1.511 1_565 S
C845 C841 1.376 . S
C845 C844 1.392 . S
C845 H857 0.929 . S
C846 C842 1.531 . S
C846 H858 0.960 1_565 S
C846 H859 0.962 1_565 S
C846 H860 0.960 . S
C847 C844 1.511 1_545 S
C847 H861 0.961 1_545 S
C847 H862 0.961 . S
C847 H863 0.961 . S
C848 C849 1.370 . S
C848 C850 1.363 . S
C848 H864 0.931 . S
C849 C848 1.370 . S
C849 C853 1.408 . S
C850 C848 1.363 . S
C850 C851 1.370 . S
C850 C854 1.524 . S
C851 C843 1.503 . S
C851 C850 1.370 . S
C851 C852 1.403 . S
C852 C851 1.403 . S
C852 C853 1.404 . S
C852 C855 1.539 . S
C853 C849 1.408 . S
C853 C852 1.404 . S
C853 H865 0.930 . S
C854 C850 1.524 . S
C854 H866 0.956 . S
C854 H867 0.961 . S
C854 H868 0.961 . S
C855 C852 1.539 . S
C855 H869 0.958 . S
C855 H870 0.961 . S
C855 H871 0.960 . S
H856 C840 0.931 . S
H857 C845 0.929 . S
H858 C846 0.960 1_545 S
H859 C846 0.962 1_545 S
H860 C846 0.960 . S
H861 C847 0.961 1_565 S
H862 C847 0.961 . S
H863 C847 0.961 . S
H864 C848 0.931 . S
H865 C853 0.930 . S
H866 C854 0.956 . S
H867 C854 0.961 . S
H868 C854 0.961 . S
H869 C855 0.958 . S
H870 C855 0.961 . S
H871 C855 0.960 . S
C872 C873 1.391 . S
C872 C874 1.394 . S
C872 H888 0.931 . S
C873 C872 1.391 . S
C873 C877 1.376 . S
C874 C872 1.394 . S
C874 C875 1.369 . S
C874 C878 1.531 . S
C875 C874 1.369 . S
C875 C876 1.410 . S
C875 C883 1.503 1_655 S
C876 C875 1.410 . S
C876 C877 1.392 . S
C876 C879 1.511 . S
C877 C873 1.376 . S
C877 C876 1.392 . S
C877 H889 0.929 . S
C878 C874 1.531 . S
C878 H890 0.960 . S
C878 H891 0.962 . S
C878 H892 0.960 . S
C879 C876 1.511 . S
C879 H893 0.961 . S
C879 H894 0.961 . S
C879 H895 0.961 . S
C880 C881 1.370 . S
C880 C882 1.363 . S
C880 H896 0.931 . S
C881 C880 1.370 . S
C881 C885 1.408 . S
C882 C880 1.363 . S
C882 C883 1.370 . S
C882 C886 1.524 1_455 S
C883 C875 1.503 1_455 S
C883 C882 1.370 . S
C883 C884 1.403 . S
C884 C883 1.403 . S
C884 C885 1.404 . S
C884 C887 1.539 . S
C885 C881 1.408 . S
C885 C884 1.404 . S
C885 H897 0.930 . S
C886 C882 1.524 1_655 S
C886 H898 0.956 . S
C886 H899 0.961 . S
C886 H900 0.961 1_655 S
C887 C884 1.539 . S
C887 H901 0.958 . S
C887 H902 0.961 . S
C887 H903 0.960 1_455 S
H888 C872 0.931 . S
H889 C877 0.929 . S
H890 C878 0.960 . S
H891 C878 0.962 . S
H892 C878 0.960 . S
H893 C879 0.961 . S
H894 C879 0.961 . S
H895 C879 0.961 . S
H896 C880 0.931 . S
H897 C885 0.930 . S
H898 C886 0.956 . S
H899 C886 0.961 . S
H900 C886 0.961 1_455 S
H901 C887 0.958 . S
H902 C887 0.961 . S
H903 C887 0.960 1_655 S
C904 C905 1.391 . S
C904 C906 1.394 . S
C904 H920 0.931 . S
C905 C904 1.391 . S
C905 C909 1.376 . S
C906 C904 1.394 . S
C906 C907 1.369 . S
C906 C910 1.531 . S
C907 C906 1.369 . S
C907 C908 1.410 . S
C907 C915 1.503 . S
C908 C907 1.410 . S
C908 C909 1.392 . S
C908 C911 1.511 . S
C909 C905 1.376 . S
C909 C908 1.392 . S
C909 H921 0.929 . S
C910 C906 1.531 . S
C910 H922 0.960 . S
C910 H923 0.962 . S
C910 H924 0.960 . S
C911 C908 1.511 . S
C911 H925 0.961 . S
C911 H926 0.961 . S
C911 H927 0.961 . S
C912 C913 1.370 . S
C912 C914 1.363 . S
C912 H928 0.931 . S
C913 C912 1.370 . S
C913 C917 1.408 . S
C914 C912 1.363 . S
C914 C915 1.370 . S
C914 C918 1.524 . S
C915 C907 1.503 . S
C915 C914 1.370 . S
C915 C916 1.403 . S
C916 C915 1.403 . S
C916 C917 1.404 . S
C916 C919 1.539 . S
C917 C913 1.408 . S
C917 C916 1.404 . S
C917 H929 0.930 . S
C918 C914 1.524 . S
C918 H930 0.956 . S
C918 H931 0.961 . S
C918 H932 0.961 . S
C919 C916 1.539 . S
C919 H933 0.958 . S
C919 H934 0.961 . S
C919 H935 0.960 . S
H920 C904 0.931 . S
H921 C909 0.929 . S
H922 C910 0.960 . S
H923 C910 0.962 . S
H924 C910 0.960 . S
H925 C911 0.961 . S
H926 C911 0.961 . S
H927 C911 0.961 . S
H928 C912 0.931 . S
H929 C917 0.930 . S
H930 C918 0.956 . S
H931 C918 0.961 . S
H932 C918 0.961 . S
H933 C919 0.958 . S
H934 C919 0.961 . S
H935 C919 0.960 . S
C936 C937 1.391 . S
C936 C938 1.394 . S
C936 H952 0.931 . S
C937 C936 1.391 . S
C937 C941 1.376 . S
C938 C936 1.394 . S
C938 C939 1.369 . S
C938 C942 1.531 . S
C939 C938 1.369 . S
C939 C940 1.410 . S
C939 C947 1.503 . S
C940 C939 1.410 . S
C940 C941 1.392 . S
C940 C943 1.511 . S
C941 C937 1.376 . S
C941 C940 1.392 . S
C941 H953 0.929 . S
C942 C938 1.531 . S
C942 H954 0.960 . S
C942 H955 0.962 . S
C942 H956 0.960 . S
C943 C940 1.511 . S
C943 H957 0.961 . S
C943 H958 0.961 . S
C943 H959 0.961 . S
C944 C945 1.370 . S
C944 C946 1.363 . S
C944 H960 0.931 . S
C945 C944 1.370 . S
C945 C949 1.408 . S
C946 C944 1.363 . S
C946 C947 1.370 . S
C946 C950 1.524 . S
C947 C939 1.503 . S
C947 C946 1.370 . S
C947 C948 1.403 . S
C948 C947 1.403 . S
C948 C949 1.404 . S
C948 C951 1.541 . S
C949 C945 1.408 . S
C949 C948 1.404 . S
C949 H961 0.930 1_455 S
C950 C946 1.524 . S
C950 H962 0.956 . S
C950 H963 0.961 . S
C950 H964 0.961 . S
C951 C948 1.541 . S
C951 H965 0.966 . S
C951 H966 0.949 1_455 S
C951 H967 0.963 . S
H952 C936 0.931 . S
H953 C941 0.929 . S
H954 C942 0.960 . S
H955 C942 0.962 . S
H956 C942 0.960 . S
H957 C943 0.961 . S
H958 C943 0.961 . S
H959 C943 0.961 . S
H960 C944 0.931 . S
H961 C949 0.930 1_655 S
H962 C950 0.956 . S
H963 C950 0.961 . S
H964 C950 0.961 . S
H965 C951 0.966 . S
H966 C951 0.949 1_655 S
H967 C951 0.963 . S
C968 C969 1.391 . S
C968 C970 1.394 . S
C968 H984 0.931 . S
C969 C968 1.391 . S
C969 C973 1.376 . S
C970 C968 1.394 . S
C970 C971 1.369 . S
C970 C974 1.531 . S
C971 C970 1.369 . S
C971 C972 1.410 . S
C971 C979 1.503 . S
C972 C971 1.410 . S
C972 C973 1.392 . S
C972 C975 1.511 . S
C973 C969 1.376 . S
C973 C972 1.392 . S
C973 H985 0.929 . S
C974 C970 1.531 . S
C974 H986 0.960 . S
C974 H987 0.962 . S
C974 H988 0.960 . S
C975 C972 1.511 . S
C975 H989 0.961 . S
C975 H990 0.961 . S
C975 H991 0.961 . S
C976 C977 1.370 . S
C976 C978 1.363 . S
C976 H992 0.931 . S
C977 C976 1.370 . S
C977 C981 1.408 . S
C978 C976 1.363 . S
C978 C979 1.370 . S
C978 C982 1.524 . S
C979 C971 1.503 . S
C979 C978 1.370 . S
C979 C980 1.403 . S
C980 C979 1.403 . S
C980 C981 1.404 . S
C980 C983 1.539 . S
C981 C977 1.408 . S
C981 C980 1.404 . S
C981 H993 0.930 . S
C982 C978 1.524 . S
C982 H994 0.956 . S
C982 H995 0.961 . S
C982 H996 0.961 . S
C983 C980 1.539 . S
C983 H997 0.958 . S
C983 H998 0.961 . S
C983 H999 0.960 . S
H984 C968 0.931 . S
H985 C973 0.929 . S
H986 C974 0.960 . S
H987 C974 0.962 . S
H988 C974 0.960 . S
H989 C975 0.961 . S
H990 C975 0.961 . S
H991 C975 0.961 . S
H992 C976 0.931 . S
H993 C981 0.930 . S
H994 C982 0.956 . S
H995 C982 0.961 . S
H996 C982 0.961 . S
H997 C983 0.958 . S
H998 C983 0.961 . S
H999 C983 0.960 . S
C1000 C1001 1.391 . S
C1000 C1002 1.394 . S
C1000 H1016 0.931 . S
C1001 C1000 1.391 . S
C1001 C1005 1.376 . S
C1002 C1000 1.394 . S
C1002 C1003 1.369 . S
C1002 C1006 1.531 . S
C1003 C1002 1.369 . S
C1003 C1004 1.410 . S
C1003 C1011 1.503 . S
C1004 C1003 1.410 . S
C1004 C1005 1.392 . S
C1004 C1007 1.511 1_565 S
C1005 C1001 1.376 . S
C1005 C1004 1.392 . S
C1005 H1017 0.929 1_565 S
C1006 C1002 1.531 . S
C1006 H1018 0.960 . S
C1006 H1019 0.962 . S
C1006 H1020 0.960 . S
C1007 C1004 1.511 1_545 S
C1007 H1021 0.961 . S
C1007 H1022 0.961 1_545 S
C1007 H1023 0.961 . S
C1008 C1009 1.370 . S
C1008 C1010 1.363 . S
C1008 H1024 0.931 . S
C1009 C1008 1.370 . S
C1009 C1013 1.408 . S
C1010 C1008 1.363 . S
C1010 C1011 1.370 . S
C1010 C1014 1.524 . S
C1011 C1003 1.503 . S
C1011 C1010 1.370 . S
C1011 C1012 1.403 . S
C1012 C1011 1.403 . S
C1012 C1013 1.404 . S
C1012 C1015 1.539 . S
C1013 C1009 1.408 . S
C1013 C1012 1.404 . S
C1013 H1025 0.930 . S
C1014 C1010 1.524 . S
C1014 H1026 0.956 . S
C1014 H1027 0.961 . S
C1014 H1028 0.961 . S
C1015 C1012 1.539 . S
C1015 H1029 0.958 . S
C1015 H1030 0.961 . S
C1015 H1031 0.960 . S
H1016 C1000 0.931 . S
H1017 C1005 0.929 1_545 S
H1018 C1006 0.960 . S
H1019 C1006 0.962 . S
H1020 C1006 0.960 . S
H1021 C1007 0.961 . S
H1022 C1007 0.961 1_565 S
H1023 C1007 0.961 . S
H1024 C1008 0.931 . S
H1025 C1013 0.930 . S
H1026 C1014 0.956 . S
H1027 C1014 0.961 . S
H1028 C1014 0.961 . S
H1029 C1015 0.958 . S
H1030 C1015 0.961 . S
H1031 C1015 0.960 . S
C1032 C1033 1.391 . S
C1032 C1034 1.394 . S
C1032 H1048 0.931 . S
C1033 C1032 1.391 . S
C1033 C1037 1.376 . S
C1034 C1032 1.394 . S
C1034 C1035 1.369 . S
C1034 C1038 1.531 . S
C1035 C1034 1.369 . S
C1035 C1036 1.410 . S
C1035 C1043 1.503 . S
C1036 C1035 1.410 . S
C1036 C1037 1.392 . S
C1036 C1039 1.511 . S
C1037 C1033 1.376 . S
C1037 C1036 1.392 . S
C1037 H1049 0.929 . S
C1038 C1034 1.531 . S
C1038 H1050 0.960 . S
C1038 H1051 0.962 . S
C1038 H1052 0.960 . S
C1039 C1036 1.511 . S
C1039 H1053 0.961 . S
C1039 H1054 0.961 . S
C1039 H1055 0.961 . S
C1040 C1041 1.370 . S
C1040 C1042 1.363 . S
C1040 H1056 0.931 . S
C1041 C1040 1.370 . S
C1041 C1045 1.408 . S
C1042 C1040 1.363 . S
C1042 C1043 1.370 . S
C1042 C1046 1.524 . S
C1043 C1035 1.503 . S
C1043 C1042 1.370 . S
C1043 C1044 1.403 . S
C1044 C1043 1.403 . S
C1044 C1045 1.404 . S
C1044 C1047 1.539 . S
C1045 C1041 1.408 . S
C1045 C1044 1.404 . S
C1045 H1057 0.930 . S
C1046 C1042 1.524 . S
C1046 H1058 0.956 . S
C1046 H1059 0.961 . S
C1046 H1060 0.961 . S
C1047 C1044 1.539 . S
C1047 H1061 0.958 . S
C1047 H1062 0.961 . S
C1047 H1063 0.960 . S
H1048 C1032 0.931 . S
H1049 C1037 0.929 . S
H1050 C1038 0.960 . S
H1051 C1038 0.962 . S
H1052 C1038 0.960 . S
H1053 C1039 0.961 . S
H1054 C1039 0.961 . S
H1055 C1039 0.961 . S
H1056 C1040 0.931 . S
H1057 C1045 0.930 . S
H1058 C1046 0.956 . S
H1059 C1046 0.961 . S
H1060 C1046 0.961 . S
H1061 C1047 0.958 . S
H1062 C1047 0.961 . S
H1063 C1047 0.960 . S
C1064 C1065 1.391 . S
C1064 C1066 1.394 . S
C1064 H1080 0.931 1_655 S
C1065 C1064 1.391 . S
C1065 C1069 1.376 . S
C1066 C1064 1.394 . S
C1066 C1067 1.369 . S
C1066 C1070 1.531 . S
C1067 C1066 1.369 . S
C1067 C1068 1.410 . S
C1067 C1075 1.503 . S
C1068 C1067 1.410 . S
C1068 C1069 1.392 . S
C1068 C1071 1.511 . S
C1069 C1065 1.376 . S
C1069 C1068 1.392 . S
C1069 H1081 0.929 . S
C1070 C1066 1.531 . S
C1070 H1082 0.960 . S
C1070 H1083 0.962 . S
C1070 H1084 0.960 1_655 S
C1071 C1068 1.511 . S
C1071 H1085 0.961 . S
C1071 H1086 0.961 . S
C1071 H1087 0.961 . S
C1072 C1073 1.370 . S
C1072 C1074 1.363 . S
C1072 H1088 0.931 . S
C1073 C1072 1.370 . S
C1073 C1077 1.408 . S
C1074 C1072 1.363 . S
C1074 C1075 1.370 . S
C1074 C1078 1.524 . S
C1075 C1067 1.503 . S
C1075 C1074 1.370 . S
C1075 C1076 1.403 . S
C1076 C1075 1.403 . S
C1076 C1077 1.404 . S
C1076 C1079 1.539 . S
C1077 C1073 1.408 . S
C1077 C1076 1.404 . S
C1077 H1089 0.930 . S
C1078 C1074 1.524 . S
C1078 H1090 0.956 . S
C1078 H1091 0.961 . S
C1078 H1092 0.961 . S
C1079 C1076 1.539 . S
C1079 H1093 0.958 1_655 S
C1079 H1094 0.961 . S
C1079 H1095 0.960 . S
H1080 C1064 0.931 1_455 S
H1081 C1069 0.929 . S
H1082 C1070 0.960 . S
H1083 C1070 0.962 . S
H1084 C1070 0.960 1_455 S
H1085 C1071 0.961 . S
H1086 C1071 0.961 . S
H1087 C1071 0.961 . S
H1088 C1072 0.931 . S
H1089 C1077 0.930 . S
H1090 C1078 0.956 . S
H1091 C1078 0.961 . S
H1092 C1078 0.961 . S
H1093 C1079 0.958 1_455 S
H1094 C1079 0.961 . S
H1095 C1079 0.960 . S
C1096 C1097 1.391 . S
C1096 C1098 1.394 . S
C1096 H1112 0.931 . S
C1097 C1096 1.391 . S
C1097 C1101 1.376 . S
C1098 C1096 1.394 . S
C1098 C1099 1.369 . S
C1098 C1102 1.531 . S
C1099 C1098 1.369 . S
C1099 C1100 1.410 . S
C1099 C1107 1.503 . S
C1100 C1099 1.410 . S
C1100 C1101 1.392 . S
C1100 C1103 1.511 . S
C1101 C1097 1.376 . S
C1101 C1100 1.392 . S
C1101 H1113 0.929 . S
C1102 C1098 1.531 . S
C1102 H1114 0.960 . S
C1102 H1115 0.962 . S
C1102 H1116 0.960 . S
C1103 C1100 1.511 . S
C1103 H1117 0.961 . S
C1103 H1118 0.961 . S
C1103 H1119 0.961 . S
C1104 C1105 1.370 . S
C1104 C1106 1.363 . S
C1104 H1120 0.931 . S
C1105 C1104 1.370 . S
C1105 C1109 1.408 . S
C1106 C1104 1.363 . S
C1106 C1107 1.370 . S
C1106 C1110 1.524 . S
C1107 C1099 1.503 . S
C1107 C1106 1.370 . S
C1107 C1108 1.403 . S
C1108 C1107 1.403 . S
C1108 C1109 1.404 . S
C1108 C1111 1.539 . S
C1109 C1105 1.408 . S
C1109 C1108 1.404 . S
C1109 H1121 0.930 . S
C1110 C1106 1.524 . S
C1110 H1122 0.956 . S
C1110 H1123 0.961 . S
C1110 H1124 0.961 . S
C1111 C1108 1.539 . S
C1111 H1125 0.958 . S
C1111 H1126 0.961 . S
C1111 H1127 0.960 . S
H1112 C1096 0.931 . S
H1113 C1101 0.929 . S
H1114 C1102 0.960 . S
H1115 C1102 0.962 . S
H1116 C1102 0.960 . S
H1117 C1103 0.961 . S
H1118 C1103 0.961 . S
H1119 C1103 0.961 . S
H1120 C1104 0.931 . S
H1121 C1109 0.930 . S
H1122 C1110 0.956 . S
H1123 C1110 0.961 . S
H1124 C1110 0.961 . S
H1125 C1111 0.958 . S
H1126 C1111 0.961 . S
H1127 C1111 0.960 . S
C1128 C1129 1.391 . S
C1128 C1130 1.394 . S
C1128 H1144 0.931 . S
C1129 C1128 1.391 . S
C1129 C1133 1.376 . S
C1130 C1128 1.394 . S
C1130 C1131 1.369 . S
C1130 C1134 1.531 . S
C1131 C1130 1.369 . S
C1131 C1132 1.410 . S
C1131 C1139 1.503 . S
C1132 C1131 1.410 . S
C1132 C1133 1.392 . S
C1132 C1135 1.511 . S
C1133 C1129 1.376 . S
C1133 C1132 1.392 . S
C1133 H1145 0.929 . S
C1134 C1130 1.531 . S
C1134 H1146 0.960 . S
C1134 H1147 0.962 . S
C1134 H1148 0.960 . S
C1135 C1132 1.511 . S
C1135 H1149 0.961 . S
C1135 H1150 0.961 . S
C1135 H1151 0.961 . S
C1136 C1137 1.370 . S
C1136 C1138 1.363 . S
C1136 H1152 0.931 . S
C1137 C1136 1.370 . S
C1137 C1141 1.408 . S
C1138 C1136 1.363 . S
C1138 C1139 1.370 . S
C1138 C1142 1.524 . S
C1139 C1131 1.503 . S
C1139 C1138 1.370 . S
C1139 C1140 1.403 . S
C1140 C1139 1.403 . S
C1140 C1141 1.404 . S
C1140 C1143 1.539 . S
C1141 C1137 1.408 . S
C1141 C1140 1.404 . S
C1141 H1153 0.930 . S
C1142 C1138 1.524 . S
C1142 H1154 0.956 . S
C1142 H1155 0.961 . S
C1142 H1156 0.961 . S
C1143 C1140 1.539 . S
C1143 H1157 0.958 . S
C1143 H1158 0.961 . S
C1143 H1159 0.960 . S
H1144 C1128 0.931 . S
H1145 C1133 0.929 . S
H1146 C1134 0.960 . S
H1147 C1134 0.962 . S
H1148 C1134 0.960 . S
H1149 C1135 0.961 . S
H1150 C1135 0.961 . S
H1151 C1135 0.961 . S
H1152 C1136 0.931 . S
H1153 C1141 0.930 . S
H1154 C1142 0.956 . S
H1155 C1142 0.961 . S
H1156 C1142 0.961 . S
H1157 C1143 0.958 . S
H1158 C1143 0.961 . S
H1159 C1143 0.960 . S
C1160 C1161 1.391 . S
C1160 C1162 1.394 . S
C1160 H1176 0.931 . S
C1161 C1160 1.391 . S
C1161 C1165 1.376 . S
C1162 C1160 1.394 . S
C1162 C1163 1.369 . S
C1162 C1166 1.531 1_565 S
C1163 C1162 1.369 . S
C1163 C1164 1.410 . S
C1163 C1171 1.503 1_565 S
C1164 C1163 1.410 . S
C1164 C1165 1.392 . S
C1164 C1167 1.511 . S
C1165 C1161 1.376 . S
C1165 C1164 1.392 . S
C1165 H1177 0.929 . S
C1166 C1162 1.531 1_545 S
C1166 H1178 0.960 . S
C1166 H1179 0.962 . S
C1166 H1180 0.960 . S
C1167 C1164 1.511 . S
C1167 H1181 0.961 . S
C1167 H1182 0.961 . S
C1167 H1183 0.961 . S
C1168 C1169 1.370 . S
C1168 C1170 1.363 . S
C1168 H1184 0.931 . S
C1169 C1168 1.370 . S
C1169 C1173 1.408 . S
C1170 C1168 1.363 . S
C1170 C1171 1.370 . S
C1170 C1174 1.524 1_545 S
C1171 C1163 1.503 1_545 S
C1171 C1170 1.370 . S
C1171 C1172 1.403 . S
C1172 C1171 1.403 . S
C1172 C1173 1.404 . S
C1172 C1175 1.539 . S
C1173 C1169 1.408 . S
C1173 C1172 1.404 . S
C1173 H1185 0.930 . S
C1174 C1170 1.524 1_565 S
C1174 H1186 0.956 . S
C1174 H1187 0.961 . S
C1174 H1188 0.961 . S
C1175 C1172 1.539 . S
C1175 H1189 0.958 . S
C1175 H1190 0.961 . S
C1175 H1191 0.960 . S
H1176 C1160 0.931 . S
H1177 C1165 0.929 . S
H1178 C1166 0.960 . S
H1179 C1166 0.962 . S
H1180 C1166 0.960 . S
H1181 C1167 0.961 . S
H1182 C1167 0.961 . S
H1183 C1167 0.961 . S
H1184 C1168 0.931 . S
H1185 C1173 0.930 . S
H1186 C1174 0.956 . S
H1187 C1174 0.961 . S
H1188 C1174 0.961 . S
H1189 C1175 0.958 . S
H1190 C1175 0.961 . S
H1191 C1175 0.960 . S
C1192 C1193 1.391 . S
C1192 C1194 1.394 . S
C1192 H1208 0.931 . S
C1193 C1192 1.391 . S
C1193 C1197 1.376 . S
C1194 C1192 1.394 . S
C1194 C1195 1.369 . S
C1194 C1198 1.531 . S
C1195 C1194 1.369 . S
C1195 C1196 1.410 . S
C1195 C1203 1.503 1_655 S
C1196 C1195 1.410 . S
C1196 C1197 1.392 . S
C1196 C1199 1.511 1_655 S
C1197 C1193 1.376 . S
C1197 C1196 1.392 . S
C1197 H1209 0.929 . S
C1198 C1194 1.531 . S
C1198 H1210 0.960 1_655 S
C1198 H1211 0.962 . S
C1198 H1212 0.960 . S
C1199 C1196 1.511 1_455 S
C1199 H1213 0.961 1_455 S
C1199 H1214 0.961 . S
C1199 H1215 0.961 . S
C1200 C1201 1.370 . S
C1200 C1202 1.363 . S
C1200 H1216 0.931 . S
C1201 C1200 1.370 . S
C1201 C1205 1.408 . S
C1202 C1200 1.363 . S
C1202 C1203 1.370 . S
C1202 C1206 1.524 1_455 S
C1203 C1195 1.503 1_455 S
C1203 C1202 1.370 . S
C1203 C1204 1.403 . S
C1204 C1203 1.403 . S
C1204 C1205 1.404 . S
C1204 C1207 1.539 . S
C1205 C1201 1.408 . S
C1205 C1204 1.404 . S
C1205 H1217 0.930 . S
C1206 C1202 1.524 1_655 S
C1206 H1218 0.956 . S
C1206 H1219 0.961 . S
C1206 H1220 0.961 . S
C1207 C1204 1.539 . S
C1207 H1221 0.958 . S
C1207 H1222 0.961 . S
C1207 H1223 0.960 . S
H1208 C1192 0.931 . S
H1209 C1197 0.929 . S
H1210 C1198 0.960 1_455 S
H1211 C1198 0.962 . S
H1212 C1198 0.960 . S
H1213 C1199 0.961 1_655 S
H1214 C1199 0.961 . S
H1215 C1199 0.961 . S
H1216 C1200 0.931 . S
H1217 C1205 0.930 . S
H1218 C1206 0.956 . S
H1219 C1206 0.961 . S
H1220 C1206 0.961 . S
H1221 C1207 0.958 . S
H1222 C1207 0.961 . S
H1223 C1207 0.960 . S
C361 C46 1.528 . S
C369 C10 1.603 . S
C393 C86 1.524 . S
C401 C50 1.600 . S
C425 C90 1.607 . S
C433 C6 1.547 . S
C457 C95 1.454 . S
C465 C59 1.401 . S
C489 C99 1.368 . S
C497 C15 1.463 . S
C521 C19 1.417 . S
C529 C55 1.452 . S
C553 C130 1.577 . S
C561 C166 1.566 1_655 S
C585 C206 1.530 . S
C593 C170 1.598 . S
C617 C210 1.608 . S
C625 C126 1.541 1_545 S
C649 C179 1.378 . S
C657 C215 1.461 . S
C681 C219 1.418 . S
C689 C135 1.452 . S
C713 C175 1.442 . S
C721 C139 1.412 . S
C745 C286 1.523 . S
C753 C250 1.603 . S
C777 C290 1.579 . S
C785 C326 1.558 . S
C809 C330 1.603 . S
C817 C246 1.543 . S
C841 C335 1.459 . S
C849 C299 1.398 . S
C873 C339 1.365 . S
C881 C255 1.464 . S
C905 C259 1.430 . S
C913 C295 1.450 . S
C937 C209 2.587 . S
C945 C18 2.263 . S
C969 C129 2.595 . S
C977 C58 2.258 . S
C1001 C98 2.302 . S
C1009 C169 2.592 . S
C1033 C89 2.586 . S
C1041 C258 2.286 . S
C1065 C9 2.583 . S
C1073 C298 2.269 . S
C1097 C338 2.233 . S
C1105 C49 2.595 . S
C1129 C138 2.263 . S
C1137 C329 2.592 . S
C1161 C178 2.257 . S
C1169 C249 2.597 . S
C1193 C289 2.581 . S
C1201 C218 2.282 . S
