# Generated by pormake.
# Topology wjo, (5)-cn, num edge types: 1
# Building blocks:
#     Node 0, Type 0, BuildingBlock: BEQFEK_clean_sbu_0, # of connection points: 5
#     Node 1, Type 0, BuildingBlock: BEQFEK_clean_sbu_0, # of connection points: 5
#     Node 2, Type 0, BuildingBlock: BEQFEK_clean_sbu_0, # of connection points: 5
#     Node 3, Type 0, BuildingBlock: BEQFEK_clean_sbu_0, # of connection points: 5
#     Node 4, Type 0, BuildingBlock: BEQFEK_clean_sbu_0, # of connection points: 5
#     Node 5, Type 0, BuildingBlock: BEQFEK_clean_sbu_0, # of connection points: 5
#     Node 6, Type 0, BuildingBlock: BEQFEK_clean_sbu_0, # of connection points: 5
#     Node 7, Type 0, BuildingBlock: BEQFEK_clean_sbu_0, # of connection points: 5
#     Node 8, Type 0, BuildingBlock: BEQFEK_clean_sbu_0, # of connection points: 5
#     Node 9, Type 0, BuildingBlock: BEQFEK_clean_sbu_0, # of connection points: 5
#     Node 10, Type 0, BuildingBlock: BEQFEK_clean_sbu_0, # of connection points: 5
#     Node 11, Type 0, BuildingBlock: BEQFEK_clean_sbu_0, # of connection points: 5
#     Edge 12, Type (0, 0), BuildingBlock: OJICUG_clean_linker_0, # of connection points: 2
#     Edge 13, Type (0, 0), BuildingBlock: OJICUG_clean_linker_0, # of connection points: 2
#     Edge 14, Type (0, 0), BuildingBlock: OJICUG_clean_linker_0, # of connection points: 2
#     Edge 15, Type (0, 0), BuildingBlock: OJICUG_clean_linker_0, # of connection points: 2
#     Edge 16, Type (0, 0), BuildingBlock: OJICUG_clean_linker_0, # of connection points: 2
#     Edge 17, Type (0, 0), BuildingBlock: OJICUG_clean_linker_0, # of connection points: 2
#     Edge 18, Type (0, 0), BuildingBlock: OJICUG_clean_linker_0, # of connection points: 2
#     Edge 19, Type (0, 0), BuildingBlock: OJICUG_clean_linker_0, # of connection points: 2
#     Edge 20, Type (0, 0), BuildingBlock: OJICUG_clean_linker_0, # of connection points: 2
#     Edge 21, Type (0, 0), BuildingBlock: OJICUG_clean_linker_0, # of connection points: 2
#     Edge 22, Type (0, 0), BuildingBlock: OJICUG_clean_linker_0, # of connection points: 2
#     Edge 23, Type (0, 0), BuildingBlock: OJICUG_clean_linker_0, # of connection points: 2
#     Edge 24, Type (0, 0), BuildingBlock: OJICUG_clean_linker_0, # of connection points: 2
#     Edge 25, Type (0, 0), BuildingBlock: OJICUG_clean_linker_0, # of connection points: 2
#     Edge 26, Type (0, 0), BuildingBlock: OJICUG_clean_linker_0, # of connection points: 2
#     Edge 27, Type (0, 0), BuildingBlock: OJICUG_clean_linker_0, # of connection points: 2
#     Edge 28, Type (0, 0), BuildingBlock: OJICUG_clean_linker_0, # of connection points: 2
#     Edge 29, Type (0, 0), BuildingBlock: OJICUG_clean_linker_0, # of connection points: 2
#     Edge 30, Type (0, 0), BuildingBlock: OJICUG_clean_linker_0, # of connection points: 2
#     Edge 31, Type (0, 0), BuildingBlock: OJICUG_clean_linker_0, # of connection points: 2
#     Edge 32, Type (0, 0), BuildingBlock: OJICUG_clean_linker_0, # of connection points: 2
#     Edge 33, Type (0, 0), BuildingBlock: OJICUG_clean_linker_0, # of connection points: 2
#     Edge 34, Type (0, 0), BuildingBlock: OJICUG_clean_linker_0, # of connection points: 2
#     Edge 35, Type (0, 0), BuildingBlock: OJICUG_clean_linker_0, # of connection points: 2
#     Edge 36, Type (0, 0), BuildingBlock: OJICUG_clean_linker_0, # of connection points: 2
#     Edge 37, Type (0, 0), BuildingBlock: OJICUG_clean_linker_0, # of connection points: 2
#     Edge 38, Type (0, 0), BuildingBlock: OJICUG_clean_linker_0, # of connection points: 2
#     Edge 39, Type (0, 0), BuildingBlock: OJICUG_clean_linker_0, # of connection points: 2
#     Edge 40, Type (0, 0), BuildingBlock: OJICUG_clean_linker_0, # of connection points: 2
#     Edge 41, Type (0, 0), BuildingBlock: OJICUG_clean_linker_0, # of connection points: 2
# Relax obj value: 0.837
# Max RMSD: 0.259
# Mean RMSD: 0.248
data_MOF--net-wjo--node1-BEQFEK_clean_sbu_0--edge1-OJICUG_clean_linker_0
_symmetry_space_group_name_H-M    P1
_symmetry_Int_Tables_number       1
_symmetry_cell_setting            triclinic
loop_
_symmetry_equiv_pos_as_xyz
'x, y, z'
_cell_length_a     34.395682
_cell_length_b     34.258567
_cell_length_c     21.882794
_cell_angle_alpha  90.191287
_cell_angle_beta   90.054835
_cell_angle_gamma 120.11424
loop_
_atom_site_label
_atom_site_type_symbol
_atom_site_fract_x
_atom_site_fract_y
_atom_site_fract_z
_atom_type_partial_charge
Co0 Co 0.32191 0.37544 0.90909 0.0
Co1 Co 0.31715 0.4431 0.0016 0.0
C2 C 0.32059 0.36328 0.04588 0.0
O3 O 0.32501 0.3516 -0.00804 0.0
O4 O 0.31586 0.39729 0.0553 0.0
C5 C 0.30153 0.2894 0.85371 0.0
O6 O 0.27885 0.27176 0.90417 0.0
C7 C 0.33051 0.49761 0.1074 0.0
C8 C 0.29674 0.53619 0.08619 0.0
C9 C 0.31867 0.52745 0.13303 0.0
N10 N 0.31402 0.48746 0.05042 0.0
N11 N 0.2957 0.5122 0.03678 0.0
C12 C 0.36176 0.48294 0.13218 0.0
H13 H 0.37892 0.47613 0.0942 0.0
H14 H 0.34235 0.45127 0.15843 0.0
H15 H 0.38777 0.5095 0.162 0.0
C16 C 0.22758 0.35577 0.88615 0.0
N17 N 0.26984 0.38333 0.90715 0.0
N18 N 0.26878 0.41238 0.94592 0.0
C19 C 0.22604 0.40335 0.95195 0.0
C20 C 0.19853 0.36783 0.91343 0.0
C21 C 0.21385 0.31418 0.84899 0.0
H22 H 0.23974 0.32078 0.81404 0.0
H23 H 0.21057 0.28689 0.87947 0.0
H24 H 0.18093 0.30277 0.8264 0.0
O25 O 0.38104 0.43283 0.89475 0.0
O26 O 0.37633 0.47599 0.96609 0.0
H27 H 0.2098 0.45028 -0.00741 0.0
H28 H 0.17496 0.39375 0.01851 0.0
C29 C 0.20978 0.41898 0.00525 0.0
H30 H 0.23158 0.4253 0.04562 0.0
H31 H 0.28191 0.51218 -0.00569 0.0
O32 O 0.3199 0.33182 0.84575 0.0
C33 C 0.39839 0.46953 0.92522 0.0
Co34 Co 0.96086 0.31665 0.07286 0.0
Co35 Co 0.88922 0.31232 0.16559 0.0
C36 C 0.97256 0.31629 0.20965 0.0
O37 O 0.98835 0.32057 0.15568 0.0
O38 O 0.93393 0.31138 0.21916 0.0
C39 C 0.02567 0.29552 0.01824 0.0
O40 O 1.02002 0.27259 0.06867 0.0
C41 C 0.84841 0.32487 0.27196 0.0
C42 C 0.77613 0.29139 0.25011 0.0
C43 C 0.80676 0.31262 0.29745 0.0
N44 N 0.84207 0.30918 0.21451 0.0
N45 N 0.7991 0.2911 0.20053 0.0
C46 C 0.89432 0.35591 0.29746 0.0
H47 H 0.91832 0.37387 0.25987 0.0
H48 H 0.90644 0.33604 0.32276 0.0
H49 H 0.89382 0.38143 0.32834 0.0
C50 C 0.88557 0.22164 0.05103 0.0
N51 N 0.90078 0.26423 0.0716 0.0
N52 N 0.87101 0.26352 0.11029 0.0
C53 C 0.83701 0.22072 0.11664 0.0
C54 C 0.84446 0.19278 0.07846 0.0
C55 C 0.9129 0.20743 0.01414 0.0
H56 H 0.93254 0.23333 0.9793 0.0
H57 H 0.93655 0.20378 0.04485 0.0
H58 H 0.89095 0.17444 -0.00854 0.0
O59 O 0.96247 0.37569 0.05766 0.0
O60 O 0.91542 0.3714 0.12949 0.0
H61 H 0.7744 0.20543 0.15739 0.0
H62 H 0.79495 0.16975 0.18323 0.0
C63 C 0.80531 0.20484 0.16998 0.0
H64 H 0.82131 0.22663 0.21037 0.0
H65 H 0.78536 0.27784 0.15772 0.0
O66 O 1.0022 0.31433 0.00985 0.0
C67 C 0.94348 0.39322 0.0881 0.0
Co68 Co 0.65547 0.95522 0.24049 0.0
Co69 Co 0.58534 0.87992 0.32707 0.0
C70 C 0.66431 0.96357 0.37707 0.0
O71 O 0.67734 0.98058 0.32403 0.0
O72 O 0.63007 0.9245 0.38429 0.0
C73 C 0.74189 0.02188 0.18834 0.0
O74 O 0.75869 0.01728 0.23995 0.0
C75 C 0.54488 0.81539 0.42599 0.0
C76 C 0.47622 0.76902 0.39127 0.0
C77 C 0.50465 0.77719 0.44035 0.0
N78 N 0.54091 0.8291 0.37033 0.0
N79 N 0.49971 0.80155 0.34988 0.0
C80 C 0.5855 0.84068 0.46593 0.0
H81 H 0.61637 0.84986 0.43941 0.0
H82 H 0.58443 0.82141 0.50704 0.0
H83 H 0.58719 0.87237 0.4813 0.0
C84 C 0.677 0.88117 0.22072 0.0
N85 N 0.64835 0.89556 0.23728 0.0
N86 N 0.61537 0.86324 0.26882 0.0
C87 C 0.62091 0.827 0.27065 0.0
C88 C 0.66089 0.83737 0.24194 0.0
C89 C 0.72265 0.91113 0.19468 0.0
H90 H 0.72055 0.93201 0.15767 0.0
H91 H 0.74506 0.93383 0.23117 0.0
H92 H 0.73721 0.89096 0.17645 0.0
O93 O 0.59789 0.95653 0.22482 0.0
O94 O 0.5527 0.90685 0.29286 0.0
H95 H 0.59838 0.75802 0.29722 0.0
H96 H 0.60451 0.79567 0.35852 0.0
C97 C 0.5938 0.78673 0.31029 0.0
H98 H 0.55766 0.77567 0.30603 0.0
H99 H 0.48771 0.80487 0.30753 0.0
O100 O 0.69977 0.99763 0.17881 0.0
C101 C 0.56049 0.93652 0.25308 0.0
Co102 Co 0.71742 0.65273 0.40985 0.0
Co103 Co 0.72473 0.58107 0.49089 0.0
C104 C 0.7217 0.65956 0.54657 0.0
O105 O 0.71691 0.6736 0.49468 0.0
O106 O 0.72606 0.62487 0.55123 0.0
C107 C 0.73193 0.73881 0.36278 0.0
O108 O 0.75127 0.75471 0.416 0.0
C109 C 0.75327 0.54012 0.58403 0.0
C110 C 0.72275 0.46936 0.55204 0.0
C111 C 0.74824 0.49854 0.59842 0.0
N112 N 0.73221 0.53611 0.53091 0.0
N113 N 0.71411 0.49381 0.51181 0.0
C114 C 0.77343 0.58184 0.62295 0.0
H115 H 0.74653 0.58096 0.65182 0.0
H116 H 0.78757 0.61238 0.59394 0.0
H117 H 0.80008 0.58409 0.65362 0.0
C118 C 0.81244 0.67626 0.38671 0.0
N119 N 0.76966 0.64607 0.40244 0.0
N120 N 0.76972 0.61225 0.43082 0.0
C121 C 0.81169 0.61856 0.43044 0.0
C122 C 0.84078 0.66017 0.40463 0.0
C123 C 0.8271 0.72311 0.3658 0.0
H124 H 0.80492 0.72196 0.32819 0.0
H125 H 0.82409 0.74258 0.40429 0.0
H126 H 0.86251 0.74041 0.34993 0.0
O127 O 0.65789 0.59514 0.39586 0.0
O128 O 0.66417 0.54852 0.45948 0.0
H129 H 0.7993 0.55413 0.46246 0.0
H130 H 0.8573 0.59367 0.44756 0.0
C131 C 0.82562 0.59014 0.46565 0.0
H132 H 0.83128 0.60105 0.51414 0.0
H133 H 0.69515 0.48144 0.47184 0.0
O134 O 0.71744 0.69742 0.35019 0.0
C135 C 0.64118 0.55711 0.42264 0.0
Co136 Co 0.07989 0.71401 0.57516 0.0
Co137 Co 0.15742 0.71991 0.65804 0.0
C138 C 0.07649 0.71753 0.71204 0.0
O139 O 0.05804 0.71299 0.65982 0.0
O140 O 0.11527 0.7217 0.71735 0.0
C141 C 1.00965 0.73012 0.52785 0.0
O142 O 1.01318 0.74899 0.5815 0.0
C143 C 0.22593 0.7468 0.75303 0.0
C144 C 0.25609 0.70474 0.73046 0.0
C145 C 0.25663 0.73485 0.77306 0.0
N146 N 0.20806 0.72508 0.70032 0.0
N147 N 0.22668 0.70047 0.68655 0.0
C148 C 0.21006 0.77407 0.78733 0.0
H149 H 0.19038 0.78375 0.75723 0.0
H150 H 0.23911 0.80498 0.80649 0.0
H151 H 0.1888 0.75389 0.82612 0.0
C152 C 0.1532 0.80886 0.55243 0.0
N153 N 0.13948 0.76588 0.56892 0.0
N154 N 0.17273 0.76539 0.59816 0.0
C155 C 0.20909 0.80715 0.59768 0.0
C156 C 0.19772 0.83676 0.57084 0.0
C157 C 0.12206 0.82421 0.52987 0.0
H158 H 0.10121 0.80199 0.49194 0.0
H159 H 0.09928 0.82162 0.56748 0.0
H160 H 0.141 0.8597 0.5139 0.0
O161 O 0.07691 0.65408 0.56006 0.0
O162 O 0.12837 0.65934 0.62557 0.0
H163 H 0.25852 0.79248 0.63372 0.0
H164 H 0.28032 0.85029 0.61243 0.0
C165 C 0.25123 0.82048 0.63315 0.0
H166 H 0.24736 0.82953 0.68051 0.0
H167 H 0.21765 0.67898 0.64875 0.0
O168 O 0.03608 0.71533 0.51507 0.0
C169 C 0.09731 0.63679 0.58758 0.0
Co170 Co 0.38382 0.0756 0.74332 0.0
Co171 Co 0.45217 0.14996 0.83376 0.0
C172 C 0.37192 0.068 0.88033 0.0
O173 O 0.35994 0.05086 0.82689 0.0
O174 O 0.40648 0.10657 0.88866 0.0
C175 C 0.29811 1.00716 0.69214 0.0
O176 O 0.28212 1.01143 0.74467 0.0
C177 C 0.50674 0.19143 0.93888 0.0
C178 C 0.54386 0.26428 0.91933 0.0
C179 C 0.5356 0.2332 0.96546 0.0
N180 N 0.49655 0.19801 0.88215 0.0
N181 N 0.52049 0.24142 0.86943 0.0
C182 C 0.49309 0.14533 0.96255 0.0
H183 H 0.48663 0.12167 0.92404 0.0
H184 H 0.46158 0.13222 -0.01091 0.0
H185 H 0.5199 0.14628 -0.0081 0.0
C186 C 0.36391 0.14965 0.7189 0.0
N187 N 0.39218 0.13586 0.7394 0.0
N188 N 0.42135 0.16681 0.7773 0.0
C189 C 0.41173 0.20026 0.78313 0.0
C190 C 0.37562 0.19112 0.74548 0.0
C191 C 0.32175 0.12027 0.68386 0.0
H192 H 0.29605 0.09555 0.71545 0.0
H193 H 0.30845 0.14067 0.66278 0.0
H194 H 0.32834 0.10148 0.64785 0.0
O195 O 0.44061 0.07288 0.7298 0.0
O196 O 0.48442 0.12253 0.7992 0.0
H197 H 0.40188 0.24196 0.8497 0.0
H198 H 0.43411 0.2177 0.87645 0.0
C199 C 0.42726 0.2327 0.8361 0.0
H200 H 0.45807 0.26424 0.8229 0.0
H201 H 0.52027 0.25551 0.82736 0.0
O202 O 0.33976 0.03283 0.681 0.0
C203 C 0.47744 0.09286 0.75952 0.0
Co204 Co 0.65726 0.71066 0.90223 0.0
Co205 Co 0.58928 0.71473 0.81021 0.0
C206 C 0.66893 0.71149 0.76547 0.0
O207 O 0.68079 0.70732 0.81931 0.0
O208 O 0.63482 0.71585 0.75628 0.0
C209 C 0.74336 0.73146 0.95619 0.0
O210 O 0.76042 0.7541 0.90551 0.0
C211 C 0.53608 0.70322 0.70384 0.0
C212 C 0.49693 0.73615 0.7268 0.0
C213 C 0.50675 0.71573 0.67894 0.0
N214 N 0.54507 0.71796 0.76173 0.0
N215 N 0.51997 0.7357 0.77632 0.0
C216 C 0.55124 0.67286 0.67679 0.0
H217 H 0.55492 0.65248 0.71324 0.0
H218 H 0.58454 0.69348 0.65502 0.0
H219 H 0.52676 0.64975 0.64226 0.0
C220 C 0.67731 0.80574 0.92345 0.0
N221 N 0.64947 0.76302 0.90374 0.0
N222 N 0.62009 0.76361 0.86544 0.0
C223 C 0.62908 0.80645 0.8586 0.0
C224 C 0.66506 0.83459 0.89589 0.0
C225 C 0.71934 0.82002 0.95931 0.0
H226 H 0.71343 0.79443 -0.00549 0.0
H227 H 0.74607 0.82312 0.92799 0.0
H228 H 0.73095 0.85329 0.98148 0.0
O229 O 0.6 0.65137 0.91725 0.0
O230 O 0.55666 0.65559 0.84611 0.0
H231 H 0.581 0.82083 0.8181 0.0
H232 H 0.637 0.85722 0.79213 0.0
C233 C 0.61274 0.82201 0.8054 0.0
H234 H 0.60715 0.8003 0.76497 0.0
H235 H 0.51933 0.7484 0.81947 0.0
O236 O 0.70117 0.71297 0.96499 0.0
C237 C 0.5633 0.63377 0.88715 0.0
Co238 Co 0.95964 0.65114 0.06601 0.0
Co239 Co 0.88754 0.58382 0.97282 0.0
C240 C 0.9708 0.66377 0.92934 0.0
O241 O 0.98673 0.67507 0.9834 0.0
O242 O 0.9321 0.62987 0.91946 0.0
C243 C 0.02597 0.73701 0.11895 0.0
O244 O 1.02131 0.75331 0.06694 0.0
C245 C 0.84704 0.52985 0.86643 0.0
C246 C 0.77457 0.49108 0.88659 0.0
C247 C 0.80557 0.50015 0.84018 0.0
N248 N 0.84033 0.53962 0.9234 0.0
N249 N 0.7972 0.51478 0.9364 0.0
C250 C 0.89309 0.54469 0.84209 0.0
H251 H 0.91667 0.55052 0.88028 0.0
H252 H 0.90578 0.57696 0.81716 0.0
H253 H 0.89257 0.51872 0.8111 0.0
C254 C 0.88516 0.67101 0.08821 0.0
N255 N 0.89975 0.64333 0.06743 0.0
N256 N 0.86969 0.61434 0.02852 0.0
C257 C 0.83604 0.62346 0.02232 0.0
C258 C 0.84408 0.65902 0.06078 0.0
C259 C 0.91321 0.71271 0.12511 0.0
H260 H 0.93196 0.70591 0.16076 0.0
H261 H 0.93777 0.73959 0.09465 0.0
H262 H 0.89196 0.72477 0.1468 0.0
O263 O 0.96132 0.59376 0.0805 0.0
O264 O 0.91388 0.55092 0.00847 0.0
H265 H 0.77297 0.57641 0.98151 0.0
H266 H 0.7944 0.63296 0.95579 0.0
C267 C 0.80415 0.60781 0.96897 0.0
H268 H 0.8197 0.60164 0.9286 0.0
H269 H 0.78315 0.51452 0.97871 0.0
O270 O 1.00115 0.69499 0.12924 0.0
C271 C 0.94217 0.55721 0.0497 0.0
Co272 Co 0.32014 0.95421 0.2328 0.0
Co273 Co 0.31251 0.87836 0.14361 0.0
C274 C 0.31581 0.96183 0.09668 0.0
O275 O 0.32112 0.97904 0.15 0.0
O276 O 0.31114 0.92291 0.0885 0.0
C277 C 0.30394 0.02305 0.28479 0.0
O278 O 0.28361 0.01901 0.23233 0.0
C279 C 0.29455 0.81969 0.0383 0.0
C280 C 0.31857 0.77407 0.06914 0.0
C281 C 0.30285 0.78621 0.01869 0.0
N282 N 0.30585 0.82813 0.09744 0.0
N283 N 0.31978 0.80043 0.11592 0.0
C284 C 0.27644 0.84352 0.00096 0.0
H285 H 0.25602 0.85306 0.02982 0.0
H286 H 0.25537 0.82187 0.96267 0.0
H287 H 0.30506 0.87447 0.98159 0.0
C288 C 0.22554 0.8802 0.25591 0.0
N289 N 0.26801 0.8944 0.23716 0.0
N290 N 0.26767 0.8621 0.2039 0.0
C291 C 0.22582 0.82612 0.20253 0.0
C292 C 0.19717 0.8365 0.23419 0.0
C293 C 0.21091 0.91053 0.28404 0.0
H294 H 0.23459 0.93088 0.32101 0.0
H295 H 0.21137 0.9339 0.24871 0.0
H296 H 0.17637 0.89074 0.30275 0.0
O297 O 0.3794 0.95571 0.2447 0.0
O298 O 0.37296 0.90543 0.17567 0.0
H299 H 0.2355 0.77423 0.16346 0.0
H300 H 0.17749 0.75893 0.16987 0.0
C301 C 0.21173 0.78702 0.15973 0.0
H302 H 0.21225 0.79831 0.11217 0.0
H303 H 0.33187 0.8008 0.15981 0.0
O304 O 0.31974 0.99716 0.29565 0.0
C305 C 0.39598 0.93542 0.21496 0.0
Co306 Co 0.38137 0.31651 0.40115 0.0
Co307 Co 0.45255 0.30923 0.31919 0.0
C308 C 0.3742 0.31203 0.26434 0.0
O309 O 0.36035 0.31689 0.31638 0.0
O310 O 0.40878 0.30775 0.25935 0.0
C311 C 0.29545 0.30144 0.4483 0.0
O312 O 0.2799 0.28224 0.39488 0.0
C313 C 0.49317 0.28001 0.22598 0.0
C314 C 0.56481 0.31576 0.25365 0.0
C315 C 0.53524 0.28761 0.20938 0.0
N316 N 0.49741 0.30223 0.2783 0.0
N317 N 0.5402 0.32327 0.29494 0.0
C318 C 0.45057 0.25643 0.1894 0.0
H319 H 0.45129 0.27983 0.15391 0.0
H320 H 0.42094 0.24612 0.2191 0.0
H321 H 0.44705 0.22613 0.16597 0.0
C322 C 0.35872 0.22147 0.42515 0.0
N323 N 0.38837 0.26429 0.40845 0.0
N324 N 0.4219 0.2642 0.37952 0.0
C325 C 0.41595 0.2222 0.38043 0.0
C326 C 0.37484 0.19305 0.40719 0.0
C327 C 0.31232 0.20673 0.44739 0.0
H328 H 0.31391 0.22925 0.48501 0.0
H329 H 0.29233 0.20936 0.4095 0.0
H330 H 0.29545 0.17131 0.46371 0.0
O331 O 0.4387 0.37632 0.41519 0.0
O332 O 0.48482 0.37001 0.35079 0.0
H333 H 0.44209 0.17738 0.3648 0.0
H334 H 0.43232 0.20073 0.29727 0.0
C335 C 0.4443 0.20821 0.34521 0.0
H336 H 0.47997 0.23533 0.34642 0.0
H337 H 0.55284 0.34388 0.33356 0.0
O338 O 0.33667 0.31615 0.46103 0.0
C339 C 0.47645 0.39308 0.38802 0.0
Co340 Co 0.08006 0.37781 0.56509 0.0
Co341 Co 0.15894 0.44957 0.48427 0.0
C342 C 0.07752 0.37069 0.4286 0.0
O343 O 0.05867 0.3565 0.4804 0.0
O344 O 0.11638 0.40559 0.42413 0.0
C345 C 1.00894 0.29179 0.61252 0.0
O346 O 1.01211 0.27597 0.55912 0.0
C347 C 0.22935 0.48906 0.39226 0.0
C348 C 0.26549 0.56139 0.418 0.0
C349 C 0.26427 0.53099 0.37525 0.0
N350 N 0.21101 0.49418 0.44342 0.0
N351 N 0.2329 0.53739 0.45894 0.0
C352 C 0.21039 0.44567 0.35705 0.0
H353 H 0.18908 0.44624 0.31938 0.0
H354 H 0.18978 0.41649 0.38706 0.0
H355 H 0.23728 0.44118 0.33652 0.0
C356 C 0.1518 0.35475 0.58885 0.0
N357 N 0.13906 0.38479 0.57285 0.0
N358 N 0.17297 0.41881 0.5449 0.0
C359 C 0.20885 0.41286 0.54615 0.0
C360 C 0.19641 0.37118 0.57165 0.0
C361 C 0.11973 0.3078 0.60947 0.0
H362 H 0.09877 0.30879 0.64724 0.0
H363 H 0.09718 0.28847 0.57095 0.0
H364 H 0.13791 0.29047 0.62507 0.0
O365 O 0.07779 0.43533 0.57845 0.0
O366 O 0.13089 0.48216 0.51533 0.0
H367 H 0.25994 0.47765 0.51357 0.0
H368 H 0.28011 0.4403 0.53402 0.0
C369 C 0.25179 0.44203 0.51266 0.0
H370 H 0.24851 0.43006 0.46482 0.0
H371 H 0.22475 0.55069 0.49654 0.0
O372 O 0.03575 0.3332 0.62505 0.0
C373 C 0.09911 0.47342 0.55182 0.0
Co374 Co 0.71781 0.07429 0.73336 0.0
Co375 Co 0.72392 0.1524 0.65162 0.0
C376 C 0.71853 0.06909 0.59708 0.0
O377 O 0.71525 0.05091 0.64909 0.0
O378 O 0.72288 0.10815 0.59243 0.0
C379 C 0.73559 1.00558 0.78413 0.0
O380 O 0.75677 1.00985 0.73247 0.0
C381 C 0.75541 0.22219 0.55836 0.0
C382 C 0.71804 0.25741 0.58071 0.0
C383 C 0.74807 0.25654 0.53956 0.0
N384 N 0.73131 0.20389 0.60902 0.0
N385 N 0.70928 0.22523 0.62251 0.0
C386 C 0.78099 0.20378 0.52539 0.0
H387 H 0.76186 0.18515 0.48408 0.0
H388 H 0.78637 0.18086 0.55524 0.0
H389 H 0.81423 0.23127 0.51033 0.0
C390 C 0.81339 0.14725 0.75497 0.0
N391 N 0.77042 0.13368 0.73905 0.0
N392 N 0.76985 0.1673 0.71084 0.0
C393 C 0.81153 0.20373 0.71177 0.0
C394 C 0.84116 0.19199 0.7373 0.0
C395 C 0.82889 0.11602 0.77678 0.0
H396 H 0.80672 0.09462 0.81405 0.0
H397 H 0.82688 0.0938 0.73847 0.0
H398 H 0.86414 0.13514 0.79347 0.0
O399 O 0.65869 0.07271 0.74836 0.0
O400 O 0.66426 0.12553 0.68503 0.0
H401 H 0.7967 0.25396 0.67892 0.0
H402 H 0.85411 0.27557 0.70116 0.0
C403 C 0.82471 0.24682 0.67879 0.0
H404 H 0.83433 0.24434 0.63126 0.0
H405 H 0.68724 0.21696 0.65926 0.0
O406 O 0.71868 0.03066 0.79401 0.0
C407 C 0.64183 0.09414 0.72242 0.0
C408 C 0.28752 0.56887 0.27432 0.0
C409 C 0.2905 0.54127 0.3189 0.0
H410 H 0.29575 0.58715 0.17997 0.0
C411 C 0.31213 0.51708 0.30527 0.0
H412 H 0.27121 0.5882 0.28439 0.0
C413 C 0.32487 0.51518 0.24562 0.0
C414 C 0.31757 0.53876 0.19853 0.0
H415 H 0.31564 0.49642 0.33979 0.0
H416 H 0.33669 0.49204 0.23732 0.0
C417 C 0.30129 0.56787 0.21451 0.0
C418 C 0.82492 0.31691 0.41005 0.0
C419 C 0.79427 0.31051 0.36297 0.0
H420 H 0.83425 0.30715 0.50411 0.0
C421 C 0.74899 0.29436 0.37875 0.0
H422 H 0.85977 0.32853 0.40183 0.0
C423 C 0.73409 0.28014 0.43835 0.0
C424 C 0.76441 0.28246 0.48294 0.0
H425 H 0.72435 0.28946 0.3442 0.0
H426 H 0.6985 0.26416 0.44824 0.0
C427 C 0.81017 0.30376 0.4695 0.0
C428 C 0.46418 0.74624 0.53838 0.0
C429 C 0.49568 0.74962 0.49513 0.0
H430 H 0.44226 0.73131 0.63129 0.0
C431 C 0.52454 0.73327 0.5089 0.0
H432 H 0.44153 0.75871 0.52818 0.0
C433 C 0.52602 0.71896 0.56764 0.0
C434 C 0.49745 0.71918 0.61351 0.0
H435 H 0.549 0.73561 0.47569 0.0
H436 H 0.5526 0.71199 0.57705 0.0
C437 C 0.46492 0.73086 0.59732 0.0
C438 C 0.73405 0.45873 0.69782 0.0
C439 C 0.76443 0.48765 0.65407 0.0
H440 H 0.72397 0.43904 0.79171 0.0
C441 C 0.81007 0.51299 0.66842 0.0
H442 H 0.69855 0.43864 0.68718 0.0
C443 C 0.82452 0.51452 0.72811 0.0
C444 C 0.7937 0.48942 0.77446 0.0
H445 H 0.83399 0.53515 0.6347 0.0
H446 H 0.85909 0.53871 0.73726 0.0
C447 C 0.74869 0.45937 0.75767 0.0
C448 C 0.30866 0.79038 0.84807 0.0
C449 C 0.27814 0.7454 0.8332 0.0
H450 H 0.34169 0.83835 0.91982 0.0
C451 C 0.26202 0.71239 0.87899 0.0
H452 H 0.32138 0.81616 0.81309 0.0
C453 C 0.27309 0.7251 0.94017 0.0
C454 C 0.30017 0.77082 0.95539 0.0
H455 H 0.2381 0.6775 0.868 0.0
H456 H 0.25774 0.69987 0.97559 0.0
C457 C 0.3199 0.80298 0.90887 0.0
C458 C 0.52243 0.21326 0.07756 0.0
C459 C 0.54593 0.24503 0.03133 0.0
H460 H 0.50252 0.20215 0.17127 0.0
C461 C 0.57384 0.29055 0.04858 0.0
H462 H 0.50021 0.17813 0.06833 0.0
C463 C 0.57385 0.30443 0.10878 0.0
C464 C 0.54637 0.27285 0.15247 0.0
H465 H 0.59298 0.31606 0.01475 0.0
H466 H 0.59233 0.34009 0.11986 0.0
C467 C 0.52322 0.22705 0.13752 0.0
C468 C 0.29179 0.21467 0.82064 0.0
C469 C 0.31239 0.26164 0.81239 0.0
H470 H 0.2951 0.1547 0.80338 0.0
C471 C 0.34765 0.28244 0.76993 0.0
H472 H 0.26434 0.19749 0.85259 0.0
C473 C 0.36509 0.25778 0.74168 0.0
C474 C 0.34714 0.21178 0.75452 0.0
H475 H 0.3642 0.31847 0.76219 0.0
H476 H 0.39506 0.27547 0.71398 0.0
C477 C 0.30895 0.18994 0.79179 0.0
C478 C 0.13154 0.30118 0.95763 0.0
C479 C 0.14921 0.34011 0.92143 0.0
H480 H 0.07824 0.25634 0.01685 0.0
C481 C 0.12239 0.35932 0.90879 0.0
H482 H 0.15198 0.28635 0.96905 0.0
C483 C 0.08016 0.34227 0.93615 0.0
C484 C 0.06438 0.30617 0.9776 0.0
H485 H 0.13571 0.38987 0.88194 0.0
H486 H 0.06165 0.35973 0.92864 0.0
C487 C 0.08954 0.28443 0.98565 0.0
C488 C 0.77651 0.11645 0.07429 0.0
C489 C 0.82254 0.14337 0.08732 0.0
H490 H 0.71477 0.0563 0.09536 0.0
C491 C 0.84319 0.12617 0.12543 0.0
H492 H 0.75974 0.12946 0.04599 0.0
C493 C 0.81734 0.08478 0.15505 0.0
C494 C 0.77045 0.05974 0.14662 0.0
H495 H 0.87845 0.14674 0.13717 0.0
H496 H 0.83369 0.07395 0.18765 0.0
C497 C 0.75072 0.07479 0.10324 0.0
C498 C 0.69147 0.74772 0.27249 0.0
C499 C 0.72132 0.76703 0.32216 0.0
H500 H 0.64933 0.75556 0.20686 0.0
C501 C 0.73714 0.81262 0.33672 0.0
H502 H 0.67871 0.71278 0.25979 0.0
C503 C 0.72068 0.8371 0.30586 0.0
C504 C 0.68806 0.81656 0.2598 0.0
H505 H 0.76038 0.82874 0.37431 0.0
H506 H 0.7309 0.87101 0.32124 0.0
C507 C 0.67487 0.77225 0.24177 0.0
C508 C 0.96109 0.69178 0.4356 0.0
C509 C 0.97106 0.72017 0.48698 0.0
H510 H 0.91182 0.65111 0.36784 0.0
C511 C 0.94094 0.73501 0.50282 0.0
H512 H 0.98357 0.67984 0.42184 0.0
C513 C 0.90017 0.71885 0.47147 0.0
C514 C 0.88863 0.68757 0.42353 0.0
H515 H 0.94758 0.75711 0.54176 0.0
H516 H 0.87617 0.72813 0.48784 0.0
C517 C 0.92018 0.67555 0.4043 0.0
C518 C 0.22403 0.93911 0.6653 0.0
C519 C 0.26956 0.96833 0.65119 0.0
H520 H 0.16529 0.87464 0.64969 0.0
C521 C 0.28845 0.95705 0.60192 0.0
H522 H 0.20823 0.94678 0.7026 0.0
C523 C 0.2635 0.9157 0.57119 0.0
C524 C 0.21921 0.88504 0.58886 0.0
H525 H 0.32332 0.97881 0.58954 0.0
H526 H 0.27977 0.90635 0.53641 0.0
C527 C 0.19916 0.89792 0.6345 0.0
C528 C 0.77653 0.66765 0.06549 0.0
C529 C 0.8225 0.68677 0.05269 0.0
H530 H 0.71537 0.66734 0.0459 0.0
C531 C 0.84366 0.72563 0.01636 0.0
H532 H 0.75938 0.63715 0.09245 0.0
C533 C 0.81837 0.7424 -0.01158 0.0
C534 C 0.77151 0.72077 -0.0033 0.0
H535 H 0.87888 0.74039 0.00481 0.0
H536 H 0.83507 0.77046 0.95715 0.0
C537 C 0.75131 0.68473 0.03824 0.0
C538 C 0.07681 0.74626 0.20747 0.0
C539 C 0.06476 0.76559 0.15967 0.0
H540 H 0.12864 0.75438 0.26995 0.0
C541 C 0.0934 0.81151 0.14624 0.0
H542 H 0.05549 0.71108 0.21931 0.0
C543 C 0.13495 0.83626 0.17578 0.0
C544 C 0.14868 0.81564 0.21937 0.0
H545 H 0.08508 0.82763 0.11012 0.0
H546 H 0.15788 0.8704 0.16087 0.0
C547 C 0.11851 0.77108 0.23691 0.0
C548 C 0.29854 0.09143 0.31178 0.0
C549 C 0.31431 0.06176 0.32604 0.0
H550 H 0.30496 0.15619 0.32751 0.0
C551 C 0.34397 0.07243 0.37586 0.0
H552 H 0.27545 0.08424 0.27408 0.0
C553 C 0.36048 0.11365 0.40699 0.0
C554 C 0.34754 0.14483 0.38906 0.0
H555 H 0.35662 0.05028 0.38842 0.0
H556 H 0.38577 0.12254 0.44219 0.0
C557 C 0.31503 0.13252 0.34288 0.0
C558 C 0.22188 0.29642 0.47359 0.0
C559 C 0.26696 0.31156 0.48912 0.0
H560 H 0.16385 0.30295 0.48882 0.0
C561 C 0.28555 0.34026 0.54018 0.0
H562 H 0.20629 0.27408 0.43489 0.0
C563 C 0.26087 0.35644 0.57151 0.0
C564 C 0.21712 0.34405 0.55264 0.0
H565 H 0.32007 0.35242 0.55371 0.0
H566 H 0.27701 0.38101 0.6078 0.0
C567 C 0.19727 0.31252 0.50497 0.0
C568 C 0.96075 0.28226 0.70436 0.0
C569 C 0.97062 0.26332 0.65365 0.0
H570 H 0.91187 0.27377 0.77207 0.0
C571 C 0.94074 0.21782 0.63882 0.0
H572 H 0.98307 0.3171 0.71733 0.0
C573 C 0.90031 0.19306 0.67058 0.0
C574 C 0.88884 0.21319 0.71791 0.0
H575 H 0.94734 0.20198 0.60042 0.0
H576 H 0.87648 0.15925 0.655 0.0
C577 C 0.92014 0.25742 0.73604 0.0
C578 C 0.69122 0.95322 0.86954 0.0
C579 C 0.72557 0.96742 0.82571 0.0
H580 H 0.64541 0.89935 0.92768 0.0
C581 C 0.74638 0.94142 0.81697 0.0
H582 H 0.67454 0.97244 0.87766 0.0
C583 C 0.73033 0.90007 0.84692 0.0
C584 C 0.69297 0.88384 0.88575 0.0
H585 H 0.77319 0.95155 0.78399 0.0
H586 H 0.74426 0.87885 0.83509 0.0
C587 C 0.67482 0.91159 0.89885 0.0
C588 C 0.35135 0.31913 0.09678 0.0
C589 C 0.32589 0.3407 0.09995 0.0
H590 H 0.38655 0.29283 0.14674 0.0
C591 C 0.31072 0.34626 0.15723 0.0
H592 H 0.36336 0.31425 0.05327 0.0
C593 C 0.32389 0.33398 0.2107 0.0
C594 C 0.35283 0.31623 0.20798 0.0
H595 H 0.29047 0.36223 0.16102 0.0
H596 H 0.31358 0.34097 0.2542 0.0
C597 C 0.36488 0.30717 0.1504 0.0
C598 C 0.98008 0.30595 0.32074 0.0
C599 C 1.00065 0.32188 0.26365 0.0
H600 H 0.98829 0.30834 0.4177 0.0
C601 C 0.04762 0.34841 0.26073 0.0
H602 H 0.94391 0.28488 0.32429 0.0
C603 C 0.07312 0.36218 0.3145 0.0
C604 C 0.05208 0.34927 0.37194 0.0
H605 H 0.06437 0.36106 0.21736 0.0
H606 H 0.10904 0.38469 0.31107 0.0
C607 C 1.00554 0.31933 0.37433 0.0
C608 C 0.68084 0.97025 0.4891 0.0
C609 C 0.68616 0.9911 0.43207 0.0
H610 H 0.68758 0.97859 0.58618 0.0
C611 C 0.7081 0.03837 0.42937 0.0
H612 H 0.66495 0.93393 0.49247 0.0
C613 C 0.72097 0.06401 0.4831 0.0
C614 C 0.71259 0.04288 0.54049 0.0
H615 H 0.71289 0.05543 0.38608 0.0
H616 H 0.73573 0.10024 0.47969 0.0
C617 C 0.6941 0.99589 0.5428 0.0
C618 C 0.69883 0.70921 0.60061 0.0
C619 C 0.71716 0.68073 0.60308 0.0
H620 H 0.66986 0.74194 0.65059 0.0
C621 C 0.72642 0.66881 0.66055 0.0
H622 H 0.69174 0.71949 0.55721 0.0
C623 C 0.71393 0.6818 0.71428 0.0
C624 C 0.69173 0.70667 0.71132 0.0
H625 H 0.7414 0.64769 0.66404 0.0
H626 H 0.71899 0.66985 0.75769 0.0
C627 C 0.68613 0.72193 0.65418 0.0
C628 C 1.00401 0.69501 0.76513 0.0
C629 C 0.05067 0.71281 0.76822 0.0
H630 H 0.94212 0.666 0.81426 0.0
C631 C 0.07155 0.72118 0.82595 0.0
H632 H 0.9869 0.68853 0.7215 0.0
C633 C 0.04584 0.7085 0.87931 0.0
C634 C 0.99883 0.68686 0.87569 0.0
H635 H 0.10756 0.73547 0.8299 0.0
H636 H 0.06255 0.71286 0.92288 0.0
C637 C 0.97833 0.68199 0.81834 0.0
C638 C 0.34474 0.03652 0.04605 0.0
C639 C 0.32073 0.98928 0.04222 0.0
H640 H 0.37901 0.09866 -0.00266 0.0
C641 C 0.3067 0.96863 0.98448 0.0
H642 H 0.35552 0.05351 0.08984 0.0
C643 C 0.32058 0.99444 0.93126 0.0
C644 C 0.34859 0.0414 0.93503 0.0
H645 H 0.28674 0.93235 0.98023 0.0
H646 H 0.31166 0.97735 0.8874 0.0
C647 C 0.35851 0.06235 -0.00709 0.0
C648 C 0.5022 0.5602 0.84755 0.0
C649 C 0.52678 0.58714 0.89788 0.0
H650 H 0.44246 0.50072 0.81666 0.0
C651 C 0.51191 0.57159 0.95708 0.0
H652 H 0.5132 0.57159 0.8013 0.0
C653 C 0.47104 0.53162 0.96564 0.0
C654 C 0.44503 0.5061 0.91519 0.0
H655 H 0.53008 0.59183 -0.00355 0.0
H656 H 0.45874 0.5216 0.0118 0.0
C657 C 0.46188 0.51965 0.85614 0.0
C658 C 0.95381 0.45522 0.01807 0.0
C659 C 0.95323 0.43973 0.0773 0.0
H660 H 0.95043 0.50509 0.96323 0.0
C661 C 0.9555 0.46665 0.12759 0.0
H662 H 0.95183 0.435 0.97874 0.0
C663 C 0.95557 0.50711 0.11892 0.0
C664 C 0.9522 0.52061 0.05982 0.0
H665 H 0.95521 0.45532 0.17386 0.0
H666 H 0.95506 0.52605 0.15836 0.0
C667 C 0.95275 0.49511 0.00943 0.0
C668 C 0.50864 0.94598 0.18259 0.0
C669 C 0.52453 0.94711 0.2418 0.0
H670 H 0.45464 0.9411 0.128 0.0
C671 C 0.50098 0.95101 0.29193 0.0
H672 H 0.52597 0.94258 0.14341 0.0
C673 C 0.46067 0.95102 0.28328 0.0
C674 C 0.44275 0.94588 0.22441 0.0
H675 H 0.51272 0.95187 0.33817 0.0
H676 H 0.44203 0.95171 0.32274 0.0
C677 C 0.46776 0.94484 0.17402 0.0
C678 C 0.52745 0.45696 0.45652 0.0
C679 C 0.51218 0.44025 0.39764 0.0
H680 H 0.58126 0.50783 0.51023 0.0
C681 C 0.53629 0.46625 0.34677 0.0
H682 H 0.50968 0.43737 0.49627 0.0
C683 C 0.57669 0.50695 0.35458 0.0
C684 C 0.59403 0.52152 0.41339 0.0
H685 H 0.52502 0.45384 0.30079 0.0
H686 H 0.59594 0.525 0.31477 0.0
C687 C 0.56841 0.49707 0.46431 0.0
C688 C 0.08598 0.57396 0.51814 0.0
C689 C 0.08588 0.5897 0.57716 0.0
H690 H 0.09049 0.52409 0.46422 0.0
C691 C 0.08289 0.56295 0.62772 0.0
H692 H 0.08873 0.59418 0.47864 0.0
C693 C 0.08302 0.52248 0.61962 0.0
C694 C 0.08735 0.50891 0.56087 0.0
H695 H 0.08291 0.57464 0.6738 0.0
H696 H 0.08333 0.50383 0.65933 0.0
C697 C 0.08725 0.53409 0.51011 0.0
C698 C 0.56826 0.08005 0.68239 0.0
C699 C 0.59498 0.08269 0.73287 0.0
H700 H 0.50887 0.07979 0.6512 0.0
C701 C 0.57912 0.08172 0.79199 0.0
H702 H 0.58002 0.08082 0.63624 0.0
C703 C 0.53901 0.08213 0.80035 0.0
C704 C 0.51371 0.08245 0.74977 0.0
H705 H 0.59928 0.08411 0.83143 0.0
H706 H 0.52879 0.0844 0.84645 0.0
C707 C 0.52758 0.07932 0.69077 0.0
loop_
_geom_bond_atom_site_label_1
_geom_bond_atom_site_label_2
_geom_bond_distance
_geom_bond_site_symmetry_2
_ccdc_geom_bond_type
Co0 O3 1.970 1_556 S
Co0 N17 1.989 . S
Co0 O25 1.967 . S
Co0 O32 1.920 . S
Co1 O4 1.966 . S
Co1 N10 2.022 . S
Co1 N18 1.993 1_554 S
Co1 O26 1.941 1_554 S
C2 O3 1.258 . S
C2 O4 1.263 . S
O3 Co0 1.970 1_554 S
O3 C2 1.258 . S
O4 Co1 1.966 . S
O4 C2 1.263 . S
C5 O6 1.235 . S
C5 O32 1.289 . S
O6 C5 1.235 . S
C7 C9 1.400 . S
C7 N10 1.351 . S
C7 C12 1.501 . S
C8 C9 1.387 . S
C8 N11 1.341 . S
C9 C7 1.400 . S
C9 C8 1.387 . S
N10 Co1 2.022 . S
N10 C7 1.351 . S
N10 N11 1.365 . S
N11 C8 1.341 . S
N11 N10 1.365 . S
N11 H31 0.862 . S
C12 C7 1.501 . S
C12 H13 0.961 . S
C12 H14 0.961 . S
C12 H15 0.960 . S
H13 C12 0.961 . S
H14 C12 0.961 . S
H15 C12 0.960 . S
C16 N17 1.342 . S
C16 C20 1.401 . S
C16 C21 1.499 . S
N17 Co0 1.989 . S
N17 C16 1.342 . S
N17 N18 1.388 . S
N18 Co1 1.993 1_556 S
N18 N17 1.388 . S
N18 C19 1.346 . S
C19 N18 1.346 . S
C19 C20 1.396 . S
C19 C29 1.510 1_556 S
C20 C16 1.401 . S
C20 C19 1.396 . S
C21 C16 1.499 . S
C21 H22 0.959 . S
C21 H23 0.960 . S
C21 H24 0.961 . S
H22 C21 0.959 . S
H23 C21 0.960 . S
H24 C21 0.961 . S
O25 Co0 1.967 . S
O25 C33 1.258 . S
O26 Co1 1.941 1_556 S
O26 C33 1.266 . S
H27 C29 0.959 . S
H28 C29 0.961 . S
C29 C19 1.510 1_554 S
C29 H27 0.959 . S
C29 H28 0.961 . S
C29 H30 0.960 . S
H30 C29 0.960 . S
H31 N11 0.862 . S
O32 Co0 1.920 . S
O32 C5 1.289 . S
C33 O25 1.258 . S
C33 O26 1.266 . S
Co34 O37 1.970 . S
Co34 N51 1.989 . S
Co34 O59 1.967 . S
Co34 O66 1.920 1_554 S
Co35 O38 1.966 . S
Co35 N44 2.022 . S
Co35 N52 1.993 . S
Co35 O60 1.941 . S
C36 O37 1.258 . S
C36 O38 1.263 . S
O37 Co34 1.970 . S
O37 C36 1.258 . S
O38 Co35 1.966 . S
O38 C36 1.263 . S
C39 O40 1.235 1_556 S
C39 O66 1.289 . S
O40 C39 1.235 1_554 S
C41 C43 1.400 . S
C41 N44 1.351 . S
C41 C46 1.501 . S
C42 C43 1.387 . S
C42 N45 1.341 . S
C43 C41 1.400 . S
C43 C42 1.387 . S
N44 Co35 2.022 . S
N44 C41 1.351 . S
N44 N45 1.365 . S
N45 C42 1.341 . S
N45 N44 1.365 . S
N45 H65 0.862 . S
C46 C41 1.501 . S
C46 H47 0.961 . S
C46 H48 0.961 . S
C46 H49 0.960 . S
H47 C46 0.961 . S
H48 C46 0.961 . S
H49 C46 0.960 . S
C50 N51 1.342 . S
C50 C54 1.401 . S
C50 C55 1.499 1_554 S
N51 Co34 1.989 . S
N51 C50 1.342 . S
N51 N52 1.388 . S
N52 Co35 1.993 . S
N52 N51 1.388 . S
N52 C53 1.346 . S
C53 N52 1.346 . S
C53 C54 1.396 . S
C53 C63 1.510 . S
C54 C50 1.401 . S
C54 C53 1.396 . S
C55 C50 1.499 1_556 S
C55 H56 0.959 . S
C55 H57 0.960 . S
C55 H58 0.961 . S
H56 C55 0.959 . S
H57 C55 0.960 . S
H58 C55 0.961 . S
O59 Co34 1.967 . S
O59 C67 1.258 . S
O60 Co35 1.941 . S
O60 C67 1.266 . S
H61 C63 0.959 . S
H62 C63 0.961 . S
C63 C53 1.510 . S
C63 H61 0.959 . S
C63 H62 0.961 . S
C63 H64 0.960 . S
H64 C63 0.960 . S
H65 N45 0.862 . S
O66 Co34 1.920 1_556 S
O66 C39 1.289 . S
C67 O59 1.258 . S
C67 O60 1.266 . S
Co68 O71 1.970 . S
Co68 N85 1.989 . S
Co68 O93 1.967 . S
Co68 O100 1.920 . S
Co69 O72 1.966 . S
Co69 N78 2.022 . S
Co69 N86 1.993 . S
Co69 O94 1.941 . S
C70 O71 1.258 . S
C70 O72 1.263 . S
O71 Co68 1.970 . S
O71 C70 1.258 . S
O72 Co69 1.966 . S
O72 C70 1.263 . S
C73 O74 1.235 . S
C73 O100 1.289 . S
O74 C73 1.235 . S
C75 C77 1.400 . S
C75 N78 1.351 . S
C75 C80 1.501 . S
C76 C77 1.387 . S
C76 N79 1.341 . S
C77 C75 1.400 . S
C77 C76 1.387 . S
N78 Co69 2.022 . S
N78 C75 1.351 . S
N78 N79 1.365 . S
N79 C76 1.341 . S
N79 N78 1.365 . S
N79 H99 0.862 . S
C80 C75 1.501 . S
C80 H81 0.961 . S
C80 H82 0.961 . S
C80 H83 0.960 . S
H81 C80 0.961 . S
H82 C80 0.961 . S
H83 C80 0.960 . S
C84 N85 1.342 . S
C84 C88 1.401 . S
C84 C89 1.499 . S
N85 Co68 1.989 . S
N85 C84 1.342 . S
N85 N86 1.388 . S
N86 Co69 1.993 . S
N86 N85 1.388 . S
N86 C87 1.346 . S
C87 N86 1.346 . S
C87 C88 1.396 . S
C87 C97 1.510 . S
C88 C84 1.401 . S
C88 C87 1.396 . S
C89 C84 1.499 . S
C89 H90 0.959 . S
C89 H91 0.960 . S
C89 H92 0.961 . S
H90 C89 0.959 . S
H91 C89 0.960 . S
H92 C89 0.961 . S
O93 Co68 1.967 . S
O93 C101 1.258 . S
O94 Co69 1.941 . S
O94 C101 1.266 . S
H95 C97 0.959 . S
H96 C97 0.961 . S
C97 C87 1.510 . S
C97 H95 0.959 . S
C97 H96 0.961 . S
C97 H98 0.960 . S
H98 C97 0.960 . S
H99 N79 0.862 . S
O100 Co68 1.920 . S
O100 C73 1.289 . S
C101 O93 1.258 . S
C101 O94 1.266 . S
Co102 O105 1.970 . S
Co102 N119 1.989 . S
Co102 O127 1.967 . S
Co102 O134 1.920 . S
Co103 O106 1.966 . S
Co103 N112 2.022 . S
Co103 N120 1.993 . S
Co103 O128 1.941 . S
C104 O105 1.258 . S
C104 O106 1.263 . S
O105 Co102 1.970 . S
O105 C104 1.258 . S
O106 Co103 1.966 . S
O106 C104 1.263 . S
C107 O108 1.235 . S
C107 O134 1.289 . S
O108 C107 1.235 . S
C109 C111 1.400 . S
C109 N112 1.351 . S
C109 C114 1.501 . S
C110 C111 1.387 . S
C110 N113 1.341 . S
C111 C109 1.400 . S
C111 C110 1.387 . S
N112 Co103 2.022 . S
N112 C109 1.351 . S
N112 N113 1.365 . S
N113 C110 1.341 . S
N113 N112 1.365 . S
N113 H133 0.862 . S
C114 C109 1.501 . S
C114 H115 0.961 . S
C114 H116 0.961 . S
C114 H117 0.960 . S
H115 C114 0.961 . S
H116 C114 0.961 . S
H117 C114 0.960 . S
C118 N119 1.342 . S
C118 C122 1.401 . S
C118 C123 1.499 . S
N119 Co102 1.989 . S
N119 C118 1.342 . S
N119 N120 1.388 . S
N120 Co103 1.993 . S
N120 N119 1.388 . S
N120 C121 1.346 . S
C121 N120 1.346 . S
C121 C122 1.396 . S
C121 C131 1.510 . S
C122 C118 1.401 . S
C122 C121 1.396 . S
C123 C118 1.499 . S
C123 H124 0.959 . S
C123 H125 0.960 . S
C123 H126 0.961 . S
H124 C123 0.959 . S
H125 C123 0.960 . S
H126 C123 0.961 . S
O127 Co102 1.967 . S
O127 C135 1.258 . S
O128 Co103 1.941 . S
O128 C135 1.266 . S
H129 C131 0.959 . S
H130 C131 0.961 . S
C131 C121 1.510 . S
C131 H129 0.959 . S
C131 H130 0.961 . S
C131 H132 0.960 . S
H132 C131 0.960 . S
H133 N113 0.862 . S
O134 Co102 1.920 . S
O134 C107 1.289 . S
C135 O127 1.258 . S
C135 O128 1.266 . S
Co136 O139 1.970 . S
Co136 N153 1.989 . S
Co136 O161 1.967 . S
Co136 O168 1.920 . S
Co137 O140 1.966 . S
Co137 N146 2.022 . S
Co137 N154 1.993 . S
Co137 O162 1.941 . S
C138 O139 1.258 . S
C138 O140 1.263 . S
O139 Co136 1.970 . S
O139 C138 1.258 . S
O140 Co137 1.966 . S
O140 C138 1.263 . S
C141 O142 1.235 . S
C141 O168 1.289 . S
O142 C141 1.235 . S
C143 C145 1.400 . S
C143 N146 1.351 . S
C143 C148 1.501 . S
C144 C145 1.387 . S
C144 N147 1.341 . S
C145 C143 1.400 . S
C145 C144 1.387 . S
N146 Co137 2.022 . S
N146 C143 1.351 . S
N146 N147 1.365 . S
N147 C144 1.341 . S
N147 N146 1.365 . S
N147 H167 0.862 . S
C148 C143 1.501 . S
C148 H149 0.961 . S
C148 H150 0.961 . S
C148 H151 0.960 . S
H149 C148 0.961 . S
H150 C148 0.961 . S
H151 C148 0.960 . S
C152 N153 1.342 . S
C152 C156 1.401 . S
C152 C157 1.499 . S
N153 Co136 1.989 . S
N153 C152 1.342 . S
N153 N154 1.388 . S
N154 Co137 1.993 . S
N154 N153 1.388 . S
N154 C155 1.346 . S
C155 N154 1.346 . S
C155 C156 1.396 . S
C155 C165 1.510 . S
C156 C152 1.401 . S
C156 C155 1.396 . S
C157 C152 1.499 . S
C157 H158 0.959 . S
C157 H159 0.960 . S
C157 H160 0.961 . S
H158 C157 0.959 . S
H159 C157 0.960 . S
H160 C157 0.961 . S
O161 Co136 1.967 . S
O161 C169 1.258 . S
O162 Co137 1.941 . S
O162 C169 1.266 . S
H163 C165 0.959 . S
H164 C165 0.961 . S
C165 C155 1.510 . S
C165 H163 0.959 . S
C165 H164 0.961 . S
C165 H166 0.960 . S
H166 C165 0.960 . S
H167 N147 0.862 . S
O168 Co136 1.920 . S
O168 C141 1.289 . S
C169 O161 1.258 . S
C169 O162 1.266 . S
Co170 O173 1.970 . S
Co170 N187 1.989 . S
Co170 O195 1.967 . S
Co170 O202 1.920 . S
Co171 O174 1.966 . S
Co171 N180 2.022 . S
Co171 N188 1.993 . S
Co171 O196 1.941 . S
C172 O173 1.258 . S
C172 O174 1.263 . S
O173 Co170 1.970 . S
O173 C172 1.258 . S
O174 Co171 1.966 . S
O174 C172 1.263 . S
C175 O176 1.235 . S
C175 O202 1.289 . S
O176 C175 1.235 . S
C177 C179 1.400 1_556 S
C177 N180 1.351 . S
C177 C182 1.501 1_556 S
C178 C179 1.387 1_556 S
C178 N181 1.341 . S
C179 C177 1.400 1_554 S
C179 C178 1.387 1_554 S
N180 Co171 2.022 . S
N180 C177 1.351 . S
N180 N181 1.365 . S
N181 C178 1.341 . S
N181 N180 1.365 . S
N181 H201 0.862 . S
C182 C177 1.501 1_554 S
C182 H183 0.961 1_554 S
C182 H184 0.961 . S
C182 H185 0.960 . S
H183 C182 0.961 1_556 S
H184 C182 0.961 . S
H185 C182 0.960 . S
C186 N187 1.342 . S
C186 C190 1.401 . S
C186 C191 1.499 . S
N187 Co170 1.989 . S
N187 C186 1.342 . S
N187 N188 1.388 . S
N188 Co171 1.993 . S
N188 N187 1.388 . S
N188 C189 1.346 . S
C189 N188 1.346 . S
C189 C190 1.396 . S
C189 C199 1.510 . S
C190 C186 1.401 . S
C190 C189 1.396 . S
C191 C186 1.499 . S
C191 H192 0.959 . S
C191 H193 0.960 . S
C191 H194 0.961 . S
H192 C191 0.959 . S
H193 C191 0.960 . S
H194 C191 0.961 . S
O195 Co170 1.967 . S
O195 C203 1.258 . S
O196 Co171 1.941 . S
O196 C203 1.266 . S
H197 C199 0.959 . S
H198 C199 0.961 . S
C199 C189 1.510 . S
C199 H197 0.959 . S
C199 H198 0.961 . S
C199 H200 0.960 . S
H200 C199 0.960 . S
H201 N181 0.862 . S
O202 Co170 1.920 . S
O202 C175 1.289 . S
C203 O195 1.258 . S
C203 O196 1.266 . S
Co204 O207 1.970 . S
Co204 N221 1.989 . S
Co204 O229 1.967 . S
Co204 O236 1.920 1_556 S
Co205 O208 1.966 . S
Co205 N214 2.022 . S
Co205 N222 1.993 . S
Co205 O230 1.941 . S
C206 O207 1.258 . S
C206 O208 1.263 . S
O207 Co204 1.970 . S
O207 C206 1.258 . S
O208 Co205 1.966 . S
O208 C206 1.263 . S
C209 O210 1.235 1_554 S
C209 O236 1.289 . S
O210 C209 1.235 1_556 S
C211 C213 1.400 . S
C211 N214 1.351 . S
C211 C216 1.501 . S
C212 C213 1.387 . S
C212 N215 1.341 . S
C213 C211 1.400 . S
C213 C212 1.387 . S
N214 Co205 2.022 . S
N214 C211 1.351 . S
N214 N215 1.365 . S
N215 C212 1.341 . S
N215 N214 1.365 . S
N215 H235 0.862 . S
C216 C211 1.501 . S
C216 H217 0.961 . S
C216 H218 0.961 . S
C216 H219 0.960 . S
H217 C216 0.961 . S
H218 C216 0.961 . S
H219 C216 0.960 . S
C220 N221 1.342 . S
C220 C224 1.401 . S
C220 C225 1.499 1_556 S
N221 Co204 1.989 . S
N221 C220 1.342 . S
N221 N222 1.388 . S
N222 Co205 1.993 . S
N222 N221 1.388 . S
N222 C223 1.346 . S
C223 N222 1.346 . S
C223 C224 1.396 . S
C223 C233 1.510 . S
C224 C220 1.401 . S
C224 C223 1.396 . S
C225 C220 1.499 1_554 S
C225 H226 0.959 . S
C225 H227 0.960 . S
C225 H228 0.961 . S
H226 C225 0.959 . S
H227 C225 0.960 . S
H228 C225 0.961 . S
O229 Co204 1.967 . S
O229 C237 1.258 . S
O230 Co205 1.941 . S
O230 C237 1.266 . S
H231 C233 0.959 . S
H232 C233 0.961 . S
C233 C223 1.510 . S
C233 H231 0.959 . S
C233 H232 0.961 . S
C233 H234 0.960 . S
H234 C233 0.960 . S
H235 N215 0.862 . S
O236 Co204 1.920 1_554 S
O236 C209 1.289 . S
C237 O229 1.258 . S
C237 O230 1.266 . S
Co238 O241 1.970 1_554 S
Co238 N255 1.989 . S
Co238 O263 1.967 . S
Co238 O270 1.920 . S
Co239 O242 1.966 . S
Co239 N248 2.022 . S
Co239 N256 1.993 1_556 S
Co239 O264 1.941 1_556 S
C240 O241 1.258 . S
C240 O242 1.263 . S
O241 Co238 1.970 1_556 S
O241 C240 1.258 . S
O242 Co239 1.966 . S
O242 C240 1.263 . S
C243 O244 1.227 . S
C243 O270 1.289 . S
O244 C243 1.227 . S
C245 C247 1.400 . S
C245 N248 1.351 . S
C245 C250 1.501 . S
C246 C247 1.387 . S
C246 N249 1.341 . S
C247 C245 1.400 . S
C247 C246 1.387 . S
N248 Co239 2.022 . S
N248 C245 1.351 . S
N248 N249 1.365 . S
N249 C246 1.341 . S
N249 N248 1.365 . S
N249 H269 0.862 . S
C250 C245 1.501 . S
C250 H251 0.961 . S
C250 H252 0.961 . S
C250 H253 0.960 . S
H251 C250 0.961 . S
H252 C250 0.961 . S
H253 C250 0.960 . S
C254 N255 1.342 . S
C254 C258 1.401 . S
C254 C259 1.499 . S
N255 Co238 1.989 . S
N255 C254 1.342 . S
N255 N256 1.388 . S
N256 Co239 1.993 1_554 S
N256 N255 1.388 . S
N256 C257 1.346 . S
C257 N256 1.346 . S
C257 C258 1.396 . S
C257 C267 1.510 1_554 S
C258 C254 1.401 . S
C258 C257 1.396 . S
C259 C254 1.499 . S
C259 H260 0.959 . S
C259 H261 0.960 . S
C259 H262 0.961 . S
H260 C259 0.959 . S
H261 C259 0.960 . S
H262 C259 0.961 . S
O263 Co238 1.967 . S
O263 C271 1.258 . S
O264 Co239 1.941 1_554 S
O264 C271 1.266 . S
H265 C267 0.959 . S
H266 C267 0.961 . S
C267 C257 1.510 1_556 S
C267 H265 0.959 . S
C267 H266 0.961 . S
C267 H268 0.960 . S
H268 C267 0.960 . S
H269 N249 0.862 . S
O270 Co238 1.920 . S
O270 C243 1.289 . S
C271 O263 1.258 . S
C271 O264 1.266 . S
Co272 O275 1.970 . S
Co272 N289 1.989 . S
Co272 O297 1.967 . S
Co272 O304 1.920 . S
Co273 O276 1.966 . S
Co273 N282 2.022 . S
Co273 N290 1.993 . S
Co273 O298 1.941 . S
C274 O275 1.258 . S
C274 O276 1.263 . S
O275 Co272 1.970 . S
O275 C274 1.258 . S
O276 Co273 1.966 . S
O276 C274 1.263 . S
C277 O278 1.235 . S
C277 O304 1.289 . S
O278 C277 1.235 . S
C279 C281 1.400 1_554 S
C279 N282 1.351 . S
C279 C284 1.501 1_554 S
C280 C281 1.387 1_554 S
C280 N283 1.341 . S
C281 C279 1.400 1_556 S
C281 C280 1.387 1_556 S
N282 Co273 2.022 . S
N282 C279 1.351 . S
N282 N283 1.365 . S
N283 C280 1.341 . S
N283 N282 1.365 . S
N283 H303 0.862 . S
C284 C279 1.501 1_556 S
C284 H285 0.961 1_556 S
C284 H286 0.961 . S
C284 H287 0.960 . S
H285 C284 0.961 1_554 S
H286 C284 0.961 . S
H287 C284 0.960 . S
C288 N289 1.342 . S
C288 C292 1.401 . S
C288 C293 1.499 . S
N289 Co272 1.989 . S
N289 C288 1.342 . S
N289 N290 1.388 . S
N290 Co273 1.993 . S
N290 N289 1.388 . S
N290 C291 1.346 . S
C291 N290 1.346 . S
C291 C292 1.396 . S
C291 C301 1.510 . S
C292 C288 1.401 . S
C292 C291 1.396 . S
C293 C288 1.499 . S
C293 H294 0.959 . S
C293 H295 0.960 . S
C293 H296 0.961 . S
H294 C293 0.959 . S
H295 C293 0.960 . S
H296 C293 0.961 . S
O297 Co272 1.967 . S
O297 C305 1.258 . S
O298 Co273 1.941 . S
O298 C305 1.266 . S
H299 C301 0.959 . S
H300 C301 0.961 . S
C301 C291 1.510 . S
C301 H299 0.959 . S
C301 H300 0.961 . S
C301 H302 0.960 . S
H302 C301 0.960 . S
H303 N283 0.862 . S
O304 Co272 1.920 . S
O304 C277 1.289 . S
C305 O297 1.258 . S
C305 O298 1.266 . S
Co306 O309 1.970 . S
Co306 N323 1.989 . S
Co306 O331 1.967 . S
Co306 O338 1.920 . S
Co307 O310 1.966 . S
Co307 N316 2.022 . S
Co307 N324 1.993 . S
Co307 O332 1.941 . S
C308 O309 1.258 . S
C308 O310 1.263 . S
O309 Co306 1.970 . S
O309 C308 1.258 . S
O310 Co307 1.966 . S
O310 C308 1.263 . S
C311 O312 1.235 . S
C311 O338 1.289 . S
O312 C311 1.235 . S
C313 C315 1.400 . S
C313 N316 1.351 . S
C313 C318 1.501 . S
C314 C315 1.387 . S
C314 N317 1.341 . S
C315 C313 1.400 . S
C315 C314 1.387 . S
N316 Co307 2.022 . S
N316 C313 1.351 . S
N316 N317 1.365 . S
N317 C314 1.341 . S
N317 N316 1.365 . S
N317 H337 0.862 . S
C318 C313 1.501 . S
C318 H319 0.961 . S
C318 H320 0.961 . S
C318 H321 0.960 . S
H319 C318 0.961 . S
H320 C318 0.961 . S
H321 C318 0.960 . S
C322 N323 1.342 . S
C322 C326 1.401 . S
C322 C327 1.499 . S
N323 Co306 1.989 . S
N323 C322 1.342 . S
N323 N324 1.388 . S
N324 Co307 1.993 . S
N324 N323 1.388 . S
N324 C325 1.346 . S
C325 N324 1.346 . S
C325 C326 1.396 . S
C325 C335 1.510 . S
C326 C322 1.401 . S
C326 C325 1.396 . S
C327 C322 1.499 . S
C327 H328 0.959 . S
C327 H329 0.960 . S
C327 H330 0.961 . S
H328 C327 0.959 . S
H329 C327 0.960 . S
H330 C327 0.961 . S
O331 Co306 1.967 . S
O331 C339 1.258 . S
O332 Co307 1.941 . S
O332 C339 1.266 . S
H333 C335 0.959 . S
H334 C335 0.961 . S
C335 C325 1.510 . S
C335 H333 0.959 . S
C335 H334 0.961 . S
C335 H336 0.960 . S
H336 C335 0.960 . S
H337 N317 0.862 . S
O338 Co306 1.920 . S
O338 C311 1.289 . S
C339 O331 1.258 . S
C339 O332 1.266 . S
Co340 O343 1.970 . S
Co340 N357 1.989 . S
Co340 O365 1.967 . S
Co340 O372 1.920 . S
Co341 O344 1.966 . S
Co341 N350 2.022 . S
Co341 N358 1.993 . S
Co341 O366 1.941 . S
C342 O343 1.258 . S
C342 O344 1.263 . S
O343 Co340 1.970 . S
O343 C342 1.258 . S
O344 Co341 1.966 . S
O344 C342 1.263 . S
C345 O346 1.235 . S
C345 O372 1.289 . S
O346 C345 1.235 . S
C347 C349 1.400 . S
C347 N350 1.351 . S
C347 C352 1.501 . S
C348 C349 1.387 . S
C348 N351 1.341 . S
C349 C347 1.400 . S
C349 C348 1.387 . S
N350 Co341 2.022 . S
N350 C347 1.351 . S
N350 N351 1.365 . S
N351 C348 1.341 . S
N351 N350 1.365 . S
N351 H371 0.862 . S
C352 C347 1.501 . S
C352 H353 0.961 . S
C352 H354 0.961 . S
C352 H355 0.960 . S
H353 C352 0.961 . S
H354 C352 0.961 . S
H355 C352 0.960 . S
C356 N357 1.342 . S
C356 C360 1.401 . S
C356 C361 1.499 . S
N357 Co340 1.989 . S
N357 C356 1.342 . S
N357 N358 1.388 . S
N358 Co341 1.993 . S
N358 N357 1.388 . S
N358 C359 1.346 . S
C359 N358 1.346 . S
C359 C360 1.396 . S
C359 C369 1.510 . S
C360 C356 1.401 . S
C360 C359 1.396 . S
C361 C356 1.499 . S
C361 H362 0.959 . S
C361 H363 0.960 . S
C361 H364 0.961 . S
H362 C361 0.959 . S
H363 C361 0.960 . S
H364 C361 0.961 . S
O365 Co340 1.967 . S
O365 C373 1.258 . S
O366 Co341 1.941 . S
O366 C373 1.266 . S
H367 C369 0.959 . S
H368 C369 0.961 . S
C369 C359 1.510 . S
C369 H367 0.959 . S
C369 H368 0.961 . S
C369 H370 0.960 . S
H370 C369 0.960 . S
H371 N351 0.862 . S
O372 Co340 1.920 . S
O372 C345 1.289 . S
C373 O365 1.258 . S
C373 O366 1.266 . S
Co374 O377 1.970 . S
Co374 N391 1.989 . S
Co374 O399 1.967 . S
Co374 O406 1.920 . S
Co375 O378 1.966 . S
Co375 N384 2.022 . S
Co375 N392 1.993 . S
Co375 O400 1.941 . S
C376 O377 1.258 . S
C376 O378 1.263 . S
O377 Co374 1.970 . S
O377 C376 1.258 . S
O378 Co375 1.966 . S
O378 C376 1.263 . S
C379 O380 1.235 . S
C379 O406 1.289 . S
O380 C379 1.235 . S
C381 C383 1.400 . S
C381 N384 1.351 . S
C381 C386 1.501 . S
C382 C383 1.387 . S
C382 N385 1.341 . S
C383 C381 1.400 . S
C383 C382 1.387 . S
N384 Co375 2.022 . S
N384 C381 1.351 . S
N384 N385 1.365 . S
N385 C382 1.341 . S
N385 N384 1.365 . S
N385 H405 0.862 . S
C386 C381 1.501 . S
C386 H387 0.961 . S
C386 H388 0.961 . S
C386 H389 0.960 . S
H387 C386 0.961 . S
H388 C386 0.961 . S
H389 C386 0.960 . S
C390 N391 1.342 . S
C390 C394 1.401 . S
C390 C395 1.499 . S
N391 Co374 1.989 . S
N391 C390 1.342 . S
N391 N392 1.388 . S
N392 Co375 1.993 . S
N392 N391 1.388 . S
N392 C393 1.346 . S
C393 N392 1.346 . S
C393 C394 1.396 . S
C393 C403 1.510 . S
C394 C390 1.401 . S
C394 C393 1.396 . S
C395 C390 1.499 . S
C395 H396 0.959 . S
C395 H397 0.960 . S
C395 H398 0.961 . S
H396 C395 0.959 . S
H397 C395 0.960 . S
H398 C395 0.961 . S
O399 Co374 1.967 . S
O399 C407 1.258 . S
O400 Co375 1.941 . S
O400 C407 1.266 . S
H401 C403 0.959 . S
H402 C403 0.961 . S
C403 C393 1.510 . S
C403 H401 0.959 . S
C403 H402 0.961 . S
C403 H404 0.960 . S
H404 C403 0.960 . S
H405 N385 0.862 . S
O406 Co374 1.920 . S
O406 C379 1.289 . S
C407 O399 1.258 . S
C407 O400 1.266 . S
C408 C409 1.387 . S
C408 H412 0.950 . S
C408 C417 1.390 . S
C409 C408 1.387 . S
C409 C411 1.387 . S
H410 C417 0.950 . S
C411 C409 1.387 . S
C411 C413 1.390 . S
C411 H415 0.950 . S
H412 C408 0.950 . S
C413 C411 1.390 . S
C413 C414 1.387 . S
C413 H416 0.950 . S
C414 C413 1.387 . S
C414 C417 1.387 . S
H415 C411 0.950 . S
H416 C413 0.950 . S
C417 C408 1.390 . S
C417 H410 0.950 . S
C417 C414 1.387 . S
C418 C419 1.387 . S
C418 H422 0.950 . S
C418 C427 1.390 . S
C419 C418 1.387 . S
C419 C421 1.387 . S
H420 C427 0.950 . S
C421 C419 1.387 . S
C421 C423 1.390 . S
C421 H425 0.950 . S
H422 C418 0.950 . S
C423 C421 1.390 . S
C423 C424 1.387 . S
C423 H426 0.950 . S
C424 C423 1.387 . S
C424 C427 1.387 . S
H425 C421 0.950 . S
H426 C423 0.950 . S
C427 C418 1.390 . S
C427 H420 0.950 . S
C427 C424 1.387 . S
C428 C429 1.387 . S
C428 H432 0.950 . S
C428 C437 1.390 . S
C429 C428 1.387 . S
C429 C431 1.387 . S
H430 C437 0.950 . S
C431 C429 1.387 . S
C431 C433 1.390 . S
C431 H435 0.950 . S
H432 C428 0.950 . S
C433 C431 1.390 . S
C433 C434 1.387 . S
C433 H436 0.950 . S
C434 C433 1.387 . S
C434 C437 1.387 . S
H435 C431 0.950 . S
H436 C433 0.950 . S
C437 C428 1.390 . S
C437 H430 0.950 . S
C437 C434 1.387 . S
C438 C439 1.387 . S
C438 H442 0.950 . S
C438 C447 1.390 . S
C439 C438 1.387 . S
C439 C441 1.387 . S
H440 C447 0.950 . S
C441 C439 1.387 . S
C441 C443 1.390 . S
C441 H445 0.950 . S
H442 C438 0.950 . S
C443 C441 1.390 . S
C443 C444 1.387 . S
C443 H446 0.950 . S
C444 C443 1.387 . S
C444 C447 1.387 . S
H445 C441 0.950 . S
H446 C443 0.950 . S
C447 C438 1.390 . S
C447 H440 0.950 . S
C447 C444 1.387 . S
C448 C449 1.387 . S
C448 H452 0.950 . S
C448 C457 1.390 . S
C449 C448 1.387 . S
C449 C451 1.387 . S
H450 C457 0.950 . S
C451 C449 1.387 . S
C451 C453 1.390 . S
C451 H455 0.950 . S
H452 C448 0.950 . S
C453 C451 1.390 . S
C453 C454 1.387 . S
C453 H456 0.950 . S
C454 C453 1.387 . S
C454 C457 1.387 . S
H455 C451 0.950 . S
H456 C453 0.950 . S
C457 C448 1.390 . S
C457 H450 0.950 . S
C457 C454 1.387 . S
C458 C459 1.387 . S
C458 H462 0.950 . S
C458 C467 1.390 . S
C459 C458 1.387 . S
C459 C461 1.387 . S
H460 C467 0.950 . S
C461 C459 1.387 . S
C461 C463 1.390 . S
C461 H465 0.950 . S
H462 C458 0.950 . S
C463 C461 1.390 . S
C463 C464 1.387 . S
C463 H466 0.950 . S
C464 C463 1.387 . S
C464 C467 1.387 . S
H465 C461 0.950 . S
H466 C463 0.950 . S
C467 C458 1.390 . S
C467 H460 0.950 . S
C467 C464 1.387 . S
C468 C469 1.387 . S
C468 H472 0.950 . S
C468 C477 1.390 . S
C469 C468 1.387 . S
C469 C471 1.387 . S
H470 C477 0.950 . S
C471 C469 1.387 . S
C471 C473 1.390 . S
C471 H475 0.950 . S
H472 C468 0.950 . S
C473 C471 1.390 . S
C473 C474 1.387 . S
C473 H476 0.950 . S
C474 C473 1.387 . S
C474 C477 1.387 . S
H475 C471 0.950 . S
H476 C473 0.950 . S
C477 C468 1.390 . S
C477 H470 0.950 . S
C477 C474 1.387 . S
C478 C479 1.387 . S
C478 H482 0.950 . S
C478 C487 1.390 . S
C479 C478 1.387 . S
C479 C481 1.387 . S
H480 C487 0.950 . S
C481 C479 1.387 . S
C481 C483 1.390 . S
C481 H485 0.950 1_556 S
H482 C478 0.950 . S
C483 C481 1.390 . S
C483 C484 1.387 . S
C483 H486 0.950 1_556 S
C484 C483 1.387 . S
C484 C487 1.387 . S
H485 C481 0.950 1_554 S
H486 C483 0.950 1_554 S
C487 C478 1.390 . S
C487 H480 0.950 . S
C487 C484 1.387 . S
C488 C489 1.387 . S
C488 H492 0.950 1_554 S
C488 C497 1.390 . S
C489 C488 1.387 . S
C489 C491 1.387 . S
H490 C497 0.950 . S
C491 C489 1.387 . S
C491 C493 1.390 . S
C491 H495 0.950 . S
H492 C488 0.950 1_556 S
C493 C491 1.390 . S
C493 C494 1.387 . S
C493 H496 0.950 . S
C494 C493 1.387 . S
C494 C497 1.387 . S
H495 C491 0.950 . S
H496 C493 0.950 . S
C497 C488 1.390 . S
C497 H490 0.950 . S
C497 C494 1.387 . S
C498 C499 1.387 . S
C498 H502 0.950 . S
C498 C507 1.390 . S
C499 C498 1.387 . S
C499 C501 1.387 . S
H500 C507 0.950 . S
C501 C499 1.387 . S
C501 C503 1.390 . S
C501 H505 0.950 . S
H502 C498 0.950 . S
C503 C501 1.390 . S
C503 C504 1.387 . S
C503 H506 0.950 . S
C504 C503 1.387 . S
C504 C507 1.387 . S
H505 C501 0.950 . S
H506 C503 0.950 . S
C507 C498 1.390 . S
C507 H500 0.950 . S
C507 C504 1.387 . S
C508 C509 1.387 . S
C508 H512 0.950 . S
C508 C517 1.390 . S
C509 C508 1.387 . S
C509 C511 1.387 . S
H510 C517 0.950 . S
C511 C509 1.387 . S
C511 C513 1.390 . S
C511 H515 0.950 . S
H512 C508 0.950 . S
C513 C511 1.390 . S
C513 C514 1.387 . S
C513 H516 0.950 . S
C514 C513 1.387 . S
C514 C517 1.387 . S
H515 C511 0.950 . S
H516 C513 0.950 . S
C517 C508 1.390 . S
C517 H510 0.950 . S
C517 C514 1.387 . S
C518 C519 1.387 . S
C518 H522 0.950 . S
C518 C527 1.390 . S
C519 C518 1.387 . S
C519 C521 1.387 . S
H520 C527 0.950 . S
C521 C519 1.387 . S
C521 C523 1.390 . S
C521 H525 0.950 . S
H522 C518 0.950 . S
C523 C521 1.390 . S
C523 C524 1.387 . S
C523 H526 0.950 . S
C524 C523 1.387 . S
C524 C527 1.387 . S
H525 C521 0.950 . S
H526 C523 0.950 . S
C527 C518 1.390 . S
C527 H520 0.950 . S
C527 C524 1.387 . S
C528 C529 1.387 . S
C528 H532 0.950 1_554 S
C528 C537 1.387 1_554 S
C529 C528 1.387 . S
C529 C531 1.387 . S
H530 C537 0.964 . S
C531 C529 1.387 . S
C531 C533 1.390 . S
C531 H535 0.950 . S
H532 C528 0.950 1_556 S
C533 C531 1.390 . S
C533 C534 1.387 . S
C533 H536 0.950 . S
C534 C533 1.387 . S
C534 C537 1.376 1_554 S
H535 C531 0.950 . S
H536 C533 0.950 . S
C537 C528 1.387 1_556 S
C537 H530 0.964 . S
C537 C534 1.376 1_556 S
C538 C539 1.387 . S
C538 H542 0.950 . S
C538 C547 1.390 . S
C539 C538 1.387 . S
C539 C541 1.387 . S
H540 C547 0.950 . S
C541 C539 1.387 . S
C541 C543 1.390 . S
C541 H545 0.950 . S
H542 C538 0.950 . S
C543 C541 1.390 . S
C543 C544 1.387 . S
C543 H546 0.950 . S
C544 C543 1.387 . S
C544 C547 1.387 . S
H545 C541 0.950 . S
H546 C543 0.950 . S
C547 C538 1.390 . S
C547 H540 0.950 . S
C547 C544 1.387 . S
C548 C549 1.387 . S
C548 H552 0.950 . S
C548 C557 1.390 . S
C549 C548 1.387 . S
C549 C551 1.387 . S
H550 C557 0.950 . S
C551 C549 1.387 . S
C551 C553 1.390 . S
C551 H555 0.950 . S
H552 C548 0.950 . S
C553 C551 1.390 . S
C553 C554 1.387 . S
C553 H556 0.950 . S
C554 C553 1.387 . S
C554 C557 1.387 . S
H555 C551 0.950 . S
H556 C553 0.950 . S
C557 C548 1.390 . S
C557 H550 0.950 . S
C557 C554 1.387 . S
C558 C559 1.387 . S
C558 H562 0.950 . S
C558 C567 1.390 . S
C559 C558 1.387 . S
C559 C561 1.387 . S
H560 C567 0.950 . S
C561 C559 1.387 . S
C561 C563 1.390 . S
C561 H565 0.950 . S
H562 C558 0.950 . S
C563 C561 1.390 . S
C563 C564 1.387 . S
C563 H566 0.950 . S
C564 C563 1.387 . S
C564 C567 1.387 . S
H565 C561 0.950 . S
H566 C563 0.950 . S
C567 C558 1.390 . S
C567 H560 0.950 . S
C567 C564 1.387 . S
C568 C569 1.387 . S
C568 H572 0.950 . S
C568 C577 1.390 . S
C569 C568 1.387 . S
C569 C571 1.387 . S
H570 C577 0.950 . S
C571 C569 1.387 . S
C571 C573 1.390 . S
C571 H575 0.950 . S
H572 C568 0.950 . S
C573 C571 1.390 . S
C573 C574 1.387 . S
C573 H576 0.950 . S
C574 C573 1.387 . S
C574 C577 1.387 . S
H575 C571 0.950 . S
H576 C573 0.950 . S
C577 C568 1.390 . S
C577 H570 0.950 . S
C577 C574 1.387 . S
C578 C579 1.387 . S
C578 H582 0.950 . S
C578 C587 1.390 . S
C579 C578 1.387 . S
C579 C581 1.387 . S
H580 C587 0.950 . S
C581 C579 1.387 . S
C581 C583 1.390 . S
C581 H585 0.950 . S
H582 C578 0.950 . S
C583 C581 1.390 . S
C583 C584 1.387 . S
C583 H586 0.950 1_556 S
C584 C583 1.387 . S
C584 C587 1.387 . S
H585 C581 0.950 . S
H586 C583 0.950 1_554 S
C587 C578 1.390 . S
C587 H580 0.950 . S
C587 C584 1.387 . S
C588 C589 1.387 . S
C588 H592 0.950 . S
C588 C597 1.390 . S
C589 C588 1.387 . S
C589 C591 1.387 . S
H590 C597 0.950 . S
C591 C589 1.387 . S
C591 C593 1.390 . S
C591 H595 0.950 . S
H592 C588 0.950 . S
C593 C591 1.390 . S
C593 C594 1.387 . S
C593 H596 0.950 . S
C594 C593 1.387 . S
C594 C597 1.387 . S
H595 C591 0.950 . S
H596 C593 0.950 . S
C597 C588 1.390 . S
C597 H590 0.950 . S
C597 C594 1.387 . S
C598 C599 1.387 . S
C598 H602 0.950 . S
C598 C607 1.387 1_655 S
C599 C598 1.387 . S
C599 C601 1.387 1_655 S
H600 C607 0.952 . S
C601 C599 1.387 1_455 S
C601 C603 1.390 . S
C601 H605 0.950 . S
H602 C598 0.950 . S
C603 C601 1.390 . S
C603 C604 1.387 . S
C603 H606 0.950 . S
C604 C603 1.387 . S
C604 C607 1.386 . S
H605 C601 0.950 . S
H606 C603 0.950 . S
C607 C598 1.387 1_455 S
C607 H600 0.952 . S
C607 C604 1.386 . S
C608 C609 1.387 . S
C608 H612 0.950 . S
C608 C617 1.390 1_565 S
C609 C608 1.387 . S
C609 C611 1.387 . S
H610 C617 0.950 . S
C611 C609 1.387 . S
C611 C613 1.390 1_565 S
C611 H615 0.950 . S
H612 C608 0.950 . S
C613 C611 1.390 1_545 S
C613 C614 1.387 . S
C613 H616 0.950 . S
C614 C613 1.387 . S
C614 C617 1.387 . S
H615 C611 0.950 . S
H616 C613 0.950 . S
C617 C608 1.390 1_545 S
C617 H610 0.950 . S
C617 C614 1.387 . S
C618 C619 1.387 . S
C618 H622 0.950 . S
C618 C627 1.390 . S
C619 C618 1.387 . S
C619 C621 1.387 . S
H620 C627 0.950 . S
C621 C619 1.387 . S
C621 C623 1.390 . S
C621 H625 0.950 . S
H622 C618 0.950 . S
C623 C621 1.390 . S
C623 C624 1.387 . S
C623 H626 0.950 . S
C624 C623 1.387 . S
C624 C627 1.387 . S
H625 C621 0.950 . S
H626 C623 0.950 . S
C627 C618 1.390 . S
C627 H620 0.950 . S
C627 C624 1.387 . S
C628 C629 1.387 1_655 S
C628 H632 0.950 . S
C628 C637 1.390 . S
C629 C628 1.387 1_455 S
C629 C631 1.387 . S
H630 C637 0.950 . S
C631 C629 1.387 . S
C631 C633 1.390 . S
C631 H635 0.950 . S
H632 C628 0.950 . S
C633 C631 1.390 . S
C633 C634 1.387 1_455 S
C633 H636 0.950 . S
C634 C633 1.387 1_655 S
C634 C637 1.387 . S
H635 C631 0.950 . S
H636 C633 0.950 . S
C637 C628 1.390 . S
C637 H630 0.950 . S
C637 C634 1.387 . S
C638 C639 1.387 . S
C638 H642 0.950 . S
C638 C647 1.390 1_564 S
C639 C638 1.387 . S
C639 C641 1.387 . S
H640 C647 0.950 . S
C641 C639 1.387 . S
C641 C643 1.390 1_564 S
C641 H645 0.950 . S
H642 C638 0.950 . S
C643 C641 1.390 1_546 S
C643 C644 1.387 . S
C643 H646 0.950 . S
C644 C643 1.387 . S
C644 C647 1.387 . S
H645 C641 0.950 . S
H646 C643 0.950 . S
C647 C638 1.390 1_546 S
C647 H640 0.950 . S
C647 C644 1.387 . S
C648 C649 1.387 . S
C648 H652 0.950 . S
C648 C657 1.390 . S
C649 C648 1.387 . S
C649 C651 1.387 . S
H650 C657 0.950 . S
C651 C649 1.387 . S
C651 C653 1.390 . S
C651 H655 0.950 1_556 S
H652 C648 0.950 . S
C653 C651 1.390 . S
C653 C654 1.387 . S
C653 H656 0.950 1_556 S
C654 C653 1.387 . S
C654 C657 1.387 . S
H655 C651 0.950 1_554 S
H656 C653 0.950 1_554 S
C657 C648 1.390 . S
C657 H650 0.950 . S
C657 C654 1.387 . S
C658 C659 1.387 . S
C658 H662 0.950 1_554 S
C658 C667 1.390 . S
C659 C658 1.387 . S
C659 C661 1.387 . S
H660 C667 0.950 1_556 S
C661 C659 1.387 . S
C661 C663 1.390 . S
C661 H665 0.950 . S
H662 C658 0.950 1_556 S
C663 C661 1.390 . S
C663 C664 1.387 . S
C663 H666 0.950 . S
C664 C663 1.387 . S
C664 C667 1.387 . S
H665 C661 0.950 . S
H666 C663 0.950 . S
C667 C658 1.390 . S
C667 H660 0.950 1_554 S
C667 C664 1.387 . S
C668 C669 1.387 . S
C668 H672 0.950 . S
C668 C677 1.390 . S
C669 C668 1.387 . S
C669 C671 1.387 . S
H670 C677 0.950 . S
C671 C669 1.387 . S
C671 C673 1.390 . S
C671 H675 0.950 . S
H672 C668 0.950 . S
C673 C671 1.390 . S
C673 C674 1.387 . S
C673 H676 0.950 . S
C674 C673 1.387 . S
C674 C677 1.387 . S
H675 C671 0.950 . S
H676 C673 0.950 . S
C677 C668 1.390 . S
C677 H670 0.950 . S
C677 C674 1.387 . S
C678 C679 1.387 . S
C678 H682 0.950 . S
C678 C687 1.390 . S
C679 C678 1.387 . S
C679 C681 1.387 . S
H680 C687 0.950 . S
C681 C679 1.387 . S
C681 C683 1.390 . S
C681 H685 0.950 . S
H682 C678 0.950 . S
C683 C681 1.390 . S
C683 C684 1.387 . S
C683 H686 0.950 . S
C684 C683 1.387 . S
C684 C687 1.387 . S
H685 C681 0.950 . S
H686 C683 0.950 . S
C687 C678 1.390 . S
C687 H680 0.950 . S
C687 C684 1.387 . S
C688 C689 1.387 . S
C688 H692 0.950 . S
C688 C697 1.390 . S
C689 C688 1.387 . S
C689 C691 1.387 . S
H690 C697 0.950 . S
C691 C689 1.387 . S
C691 C693 1.390 . S
C691 H695 0.950 . S
H692 C688 0.950 . S
C693 C691 1.390 . S
C693 C694 1.387 . S
C693 H696 0.950 . S
C694 C693 1.387 . S
C694 C697 1.387 . S
H695 C691 0.950 . S
H696 C693 0.950 . S
C697 C688 1.390 . S
C697 H690 0.950 . S
C697 C694 1.387 . S
C698 C699 1.387 . S
C698 H702 0.950 . S
C698 C707 1.390 . S
C699 C698 1.387 . S
C699 C701 1.387 . S
H700 C707 0.950 . S
C701 C699 1.387 . S
C701 C703 1.390 . S
C701 H705 0.950 . S
H702 C698 0.950 . S
C703 C701 1.390 . S
C703 C704 1.387 . S
C703 H706 0.950 . S
C704 C703 1.387 . S
C704 C707 1.387 . S
H705 C701 0.950 . S
H706 C703 0.950 . S
C707 C698 1.390 . S
C707 H700 0.950 . S
C707 C704 1.387 . S
C409 C349 0.555 . S
C414 C9 0.545 . S
C419 C43 0.778 . S
C424 C383 0.776 . S
C429 C77 0.776 . S
C434 C213 0.775 . S
C439 C111 0.554 . S
C444 C247 0.546 . S
C449 C145 0.729 . S
C454 C281 0.731 . S
C459 C179 0.732 . S
C464 C315 0.732 . S
C469 C5 1.889 . S
C474 C190 1.836 . S
C479 C20 1.904 . S
C484 C39 1.843 1_455 S
C489 C54 1.931 . S
C494 C73 1.915 1_545 S
C499 C107 1.878 . S
C504 C88 1.908 . S
C509 C141 2.023 1_655 S
C514 C122 2.040 . S
C519 C175 1.954 1_565 S
C524 C156 1.934 . S
C529 C258 1.902 . S
C534 C209 1.845 . S
C539 C243 1.888 1_455 S
C544 C292 1.835 . S
C549 C277 1.955 1_545 S
C554 C326 1.934 . S
C559 C311 2.021 . S
C564 C360 2.043 . S
C569 C345 1.880 1_655 S
C574 C394 1.907 . S
C579 C379 1.916 1_565 S
C584 C224 1.931 . S
C589 C2 1.733 . S
C594 C308 1.734 . S
C599 C36 1.972 . S
C604 C342 1.977 . S
C609 C70 1.902 . S
C614 C376 1.902 . S
C619 C104 1.977 . S
C624 C206 1.973 . S
C629 C138 1.739 . S
C634 C240 1.734 . S
C639 C274 1.852 . S
C644 C172 1.852 . S
C649 C237 1.210 . S
C654 C33 1.216 . S
C659 C67 1.210 . S
C664 C271 1.217 . S
C669 C101 1.293 . S
C674 C305 1.291 . S
C679 C339 1.409 . S
C684 C135 1.418 . S
C689 C169 1.408 . S
C694 C373 1.417 . S
C699 C407 1.293 . S
C704 C203 1.291 . S
