# Generated by pormake.
# Topology soe, (5)-cn, num edge types: 1
# Building blocks:
#     Node 0, Type 0, BuildingBlock: XOMCOT_clean_sbu_0, # of connection points: 5
#     Node 1, Type 0, BuildingBlock: XOMCOT_clean_sbu_0, # of connection points: 5
#     Node 2, Type 0, BuildingBlock: XOMCOT_clean_sbu_0, # of connection points: 5
#     Node 3, Type 0, BuildingBlock: XOMCOT_clean_sbu_0, # of connection points: 5
#     Node 4, Type 0, BuildingBlock: XOMCOT_clean_sbu_0, # of connection points: 5
#     Node 5, Type 0, BuildingBlock: XOMCOT_clean_sbu_0, # of connection points: 5
#     Node 6, Type 0, BuildingBlock: XOMCOT_clean_sbu_0, # of connection points: 5
#     Node 7, Type 0, BuildingBlock: XOMCOT_clean_sbu_0, # of connection points: 5
#     Edge 8, Type (0, 0), BuildingBlock: XUDNAN_clean_linker_2, # of connection points: 2
#     Edge 9, Type (0, 0), BuildingBlock: XUDNAN_clean_linker_2, # of connection points: 2
#     Edge 10, Type (0, 0), BuildingBlock: XUDNAN_clean_linker_2, # of connection points: 2
#     Edge 11, Type (0, 0), BuildingBlock: XUDNAN_clean_linker_2, # of connection points: 2
#     Edge 12, Type (0, 0), BuildingBlock: XUDNAN_clean_linker_2, # of connection points: 2
#     Edge 13, Type (0, 0), BuildingBlock: XUDNAN_clean_linker_2, # of connection points: 2
#     Edge 14, Type (0, 0), BuildingBlock: XUDNAN_clean_linker_2, # of connection points: 2
#     Edge 15, Type (0, 0), BuildingBlock: XUDNAN_clean_linker_2, # of connection points: 2
#     Edge 16, Type (0, 0), BuildingBlock: XUDNAN_clean_linker_2, # of connection points: 2
#     Edge 17, Type (0, 0), BuildingBlock: XUDNAN_clean_linker_2, # of connection points: 2
#     Edge 18, Type (0, 0), BuildingBlock: XUDNAN_clean_linker_2, # of connection points: 2
#     Edge 19, Type (0, 0), BuildingBlock: XUDNAN_clean_linker_2, # of connection points: 2
#     Edge 20, Type (0, 0), BuildingBlock: XUDNAN_clean_linker_2, # of connection points: 2
#     Edge 21, Type (0, 0), BuildingBlock: XUDNAN_clean_linker_2, # of connection points: 2
#     Edge 22, Type (0, 0), BuildingBlock: XUDNAN_clean_linker_2, # of connection points: 2
#     Edge 23, Type (0, 0), BuildingBlock: XUDNAN_clean_linker_2, # of connection points: 2
#     Edge 24, Type (0, 0), BuildingBlock: XUDNAN_clean_linker_2, # of connection points: 2
#     Edge 25, Type (0, 0), BuildingBlock: XUDNAN_clean_linker_2, # of connection points: 2
#     Edge 26, Type (0, 0), BuildingBlock: XUDNAN_clean_linker_2, # of connection points: 2
#     Edge 27, Type (0, 0), BuildingBlock: XUDNAN_clean_linker_2, # of connection points: 2
# Relax obj value: 0.034
# Max RMSD: 0.066
# Mean RMSD: 0.066
data_MOF--net-soe--node1-XOMCOT_clean_sbu_0--edge1-XUDNAN_clean_linker_2
_symmetry_space_group_name_H-M    P1
_symmetry_Int_Tables_number       1
_symmetry_cell_setting            triclinic
loop_
_symmetry_equiv_pos_as_xyz
'x, y, z'
_cell_length_a     58.284431
_cell_length_b     44.538205
_cell_length_c     17.590652
_cell_angle_alpha  89.951783
_cell_angle_beta   89.84296
_cell_angle_gamma 90.115713
loop_
_atom_site_label
_atom_site_type_symbol
_atom_site_fract_x
_atom_site_fract_y
_atom_site_fract_z
_atom_type_partial_charge
Co0 Co 0.1179 0.09598 0.09634 0.0
C1 C 0.10852 0.09933 0.92744 0.0
C2 C 0.12415 0.13933 0.97158 0.0
C3 C 0.1205 0.14323 0.89512 0.0
N4 N 0.11637 0.11199 0.99274 0.0
N5 N 0.11076 0.11813 0.86732 0.0
H6 H 0.10132 0.07699 0.92351 0.0
H7 H 0.13236 0.15541 1.00856 0.0
C8 C 0.12656 0.15214 0.19688 0.0
O9 O 0.13481 0.13618 0.25318 0.0
N10 N 0.11912 0.08011 0.19948 0.0
C11 C 0.13393 0.05979 0.2276 0.0
C12 C 0.13026 0.05709 0.30481 0.0
C13 C 0.10583 0.08817 0.25918 0.0
N14 N 0.1128 0.07535 0.32521 0.0
C15 C 0.15703 0.07252 0.02392 0.0
C16 C 0.1908 0.09204 0.12171 0.0
C17 C 0.19681 0.07206 0.06304 0.0
C18 C 0.17947 0.06279 0.01336 0.0
C19 C 0.16786 0.10136 0.13033 0.0
N20 N 0.15111 0.09096 0.08274 0.0
H21 H 0.14411 0.06405 0.98571 0.0
H22 H 0.16379 0.1158 0.17693 0.0
H23 H 0.14711 0.04854 0.19501 0.0
H24 H 0.09231 0.10466 0.25465 0.0
O25 O 0.1094 0.05659 0.06174 0.0
O26 O 0.0844 0.09107 0.09713 0.0
O27 O 0.12015 0.13945 0.1348 0.0
C28 C 0.08811 0.06399 0.07142 0.0
H29 H 0.1251 0.16284 0.86196 0.0
H30 H 0.14065 0.04395 0.34328 0.0
H31 H 0.20362 0.10011 0.16121 0.0
H32 H 0.18287 0.04698 0.96799 0.0
Co33 Co 0.41951 0.92629 0.14042 0.0
C34 C 0.41403 0.92359 0.97225 0.0
C35 C 0.42282 0.8809 0.02129 0.0
C36 C 0.42003 0.87715 0.94446 0.0
N37 N 0.4187 0.90983 0.03891 0.0
N38 N 0.41455 0.90391 0.91391 0.0
H39 H 0.40975 0.94714 0.96686 0.0
H40 H 0.42748 0.8636 0.06152 0.0
C41 C 0.39101 0.87746 0.21572 0.0
O42 O 0.3764 0.89818 0.23754 0.0
N43 N 0.42144 0.94217 0.2442 0.0
C44 C 0.42737 0.97022 0.2664 0.0
C45 C 0.42636 0.97201 0.3446 0.0
C46 C 0.41839 0.92704 0.31005 0.0
N47 N 0.42041 0.94481 0.37173 0.0
C48 C 0.38297 0.96953 0.14945 0.0
C49 C 0.34973 0.93587 0.07717 0.0
C50 C 0.3444 0.96514 0.1006 0.0
C51 C 0.36128 0.98187 0.13769 0.0
C52 C 0.37156 0.92399 0.09206 0.0
N53 N 0.38788 0.94066 0.12888 0.0
H54 H 0.39602 0.98393 0.17215 0.0
H55 H 0.3754 0.90146 0.07319 0.0
H56 H 0.43183 0.9885 0.22864 0.0
H57 H 0.41561 0.90322 0.31408 0.0
O58 O 0.43488 0.96163 0.10128 0.0
O59 O 0.4525 0.92049 0.14082 0.0
O60 O 0.40937 0.88511 0.1804 0.0
C61 C 0.45405 0.94738 0.1116 0.0
H62 H 0.42197 0.85638 0.91313 0.0
H63 H 0.42923 0.99192 0.37852 0.0
H64 H 0.33721 0.92239 0.04713 0.0
H65 H 0.3581 1.00494 0.15413 0.0
Co66 Co 0.10929 0.4268 0.40292 0.0
C67 C 0.10849 0.42236 0.57428 0.0
C68 C 0.09677 0.38244 0.5189 0.0
C69 C 0.09306 0.37933 0.59544 0.0
N70 N 0.10705 0.40906 0.50477 0.0
N71 N 0.10023 0.40449 0.6305 0.0
H72 H 0.11326 0.44553 0.58328 0.0
H73 H 0.09047 0.36711 0.47623 0.0
C74 C 0.12374 0.36292 0.37308 0.0
O75 O 0.1383 0.3657 0.4296 0.0
N76 N 0.11039 0.444 0.30159 0.0
C77 C 0.12143 0.46912 0.27916 0.0
C78 C 0.11971 0.4716 0.20109 0.0
C79 C 0.10185 0.43181 0.23735 0.0
N80 N 0.10738 0.44811 0.17492 0.0
C81 C 0.1517 0.44932 0.46097 0.0
C82 C 0.17898 0.43065 0.34162 0.0
C83 C 0.18795 0.45183 0.39295 0.0
C84 C 0.17408 0.46029 0.45462 0.0
C85 C 0.15629 0.42053 0.34946 0.0
N86 N 0.14272 0.43028 0.408 0.0
H87 H 0.14101 0.45853 0.50492 0.0
H88 H 0.14917 0.40672 0.30491 0.0
H89 H 0.13063 0.48411 0.31666 0.0
H90 H 0.09238 0.41089 0.2361 0.0
O91 O 0.10213 0.46559 0.44429 0.0
O92 O 0.07601 0.43293 0.40608 0.0
O93 O 0.1108 0.38507 0.3552 0.0
C94 C 0.08059 0.45907 0.43613 0.0
H95 H 0.08452 0.36058 0.62273 0.0
H96 H 0.12699 0.48929 0.16635 0.0
H97 H 0.18895 0.42294 0.2935 0.0
H98 H 0.17971 0.47705 0.49503 0.0
Co99 Co 0.40725 0.60719 0.42391 0.0
C100 C 0.40534 0.60818 0.59337 0.0
C101 C 0.41283 0.65167 0.54843 0.0
C102 C 0.4148 0.65284 0.62648 0.0
N103 N 0.40615 0.62381 0.52721 0.0
N104 N 0.41029 0.62535 0.65449 0.0
H105 H 0.40304 0.58417 0.5969 0.0
H106 H 0.41786 0.66944 0.51 0.0
C107 C 0.38683 0.6674 0.39796 0.0
O108 O 0.37226 0.65932 0.45137 0.0
N109 N 0.40917 0.5901 0.32268 0.0
C110 C 0.40377 0.5614 0.30632 0.0
C111 C 0.40681 0.55669 0.23 0.0
C112 C 0.41524 0.6027 0.25541 0.0
N113 N 0.41404 0.58253 0.19784 0.0
C114 C 0.36544 0.57896 0.4735 0.0
C115 C 0.33941 0.59443 0.34867 0.0
C116 C 0.33062 0.57288 0.39955 0.0
C117 C 0.34385 0.56586 0.46363 0.0
C118 C 0.36129 0.6067 0.3601 0.0
N119 N 0.37419 0.59887 0.42192 0.0
H120 H 0.37576 0.57094 0.51961 0.0
H121 H 0.36837 0.62116 0.31661 0.0
H122 H 0.39768 0.54503 0.34714 0.0
H123 H 0.42057 0.62584 0.24875 0.0
O124 O 0.41651 0.56928 0.46526 0.0
O125 O 0.44089 0.60516 0.43349 0.0
O126 O 0.40295 0.64929 0.37873 0.0
C127 C 0.43759 0.57836 0.46198 0.0
H128 H 0.42104 0.6717 0.65934 0.0
H129 H 0.40354 0.53591 0.20001 0.0
H130 H 0.3299 0.60102 0.29862 0.0
H131 H 0.33838 0.54881 0.50369 0.0
Co132 Co 0.91561 0.92797 0.89937 0.0
C133 C 0.92677 0.92486 0.06528 0.0
C134 C 0.90233 0.89141 0.03234 0.0
C135 C 0.90503 0.89018 0.11004 0.0
N136 N 0.91601 0.91312 1.0039 0.0
N137 N 0.92036 0.91136 0.13119 0.0
H138 H 0.93838 0.9437 0.06213 0.0
H139 H 0.8902 0.87837 0.9997 0.0
C140 C 0.89714 0.87443 0.80485 0.0
O141 O 0.89163 0.89131 0.74656 0.0
N142 N 0.91517 0.94354 0.79625 0.0
C143 C 0.906 0.97011 0.77573 0.0
C144 C 0.91061 0.97519 0.70013 0.0
C145 C 0.9259 0.93322 0.73308 0.0
N146 N 0.92289 0.95191 0.67335 0.0
C147 C 0.8827 0.9645 0.97221 0.0
C148 C 0.84456 0.94951 0.88747 0.0
C149 C 0.84256 0.97214 0.94278 0.0
C150 C 0.86209 0.97937 0.98538 0.0
C151 C 0.86574 0.93518 0.8757 0.0
N152 N 0.88458 0.94298 0.91741 0.0
H153 H 0.89746 0.97089 1.00544 0.0
H154 H 0.86685 0.91846 0.83209 0.0
H155 H 0.89686 0.98506 0.81348 0.0
H156 H 0.93554 0.91248 0.73073 0.0
O157 O 0.93233 0.9638 0.92882 0.0
O158 O 0.94846 0.92145 0.89108 0.0
O159 O 0.90501 0.88617 0.86616 0.0
C160 C 0.95104 0.94894 0.91505 0.0
H161 H 0.8954 0.87575 0.14796 0.0
H162 H 0.9051 0.99433 0.66693 0.0
H163 H 0.82993 0.9429 0.85354 0.0
H164 H 0.86176 0.99701 0.02766 0.0
Co165 Co 0.61575 0.10143 0.91364 0.0
C166 C 0.60579 0.10469 0.08248 0.0
C167 C 0.62243 0.1442 0.03904 0.0
C168 C 0.61863 0.14806 0.11548 0.0
N169 N 0.61412 0.11721 0.01746 0.0
N170 N 0.60827 0.12327 0.14283 0.0
H171 H 0.59814 0.08259 0.08612 0.0
H172 H 0.63116 0.15999 1.00234 0.0
C173 C 0.624 0.15843 0.81476 0.0
O174 O 0.63167 0.14298 0.75663 0.0
N175 N 0.61697 0.08586 0.81025 0.0
C176 C 0.63143 0.0651 0.78203 0.0
C177 C 0.62763 0.06235 0.70499 0.0
C178 C 0.60368 0.09406 0.75091 0.0
N179 N 0.61038 0.08095 0.68486 0.0
C180 C 0.6555 0.08059 0.987 0.0
C181 C 0.68844 0.09807 0.88296 0.0
C182 C 0.69504 0.08046 0.94541 0.0
C183 C 0.67818 0.07213 0.9981 0.0
C184 C 0.66532 0.10651 0.87443 0.0
N185 N 0.64903 0.09733 0.92563 0.0
H186 H 0.64286 0.07253 0.02704 0.0
H187 H 0.6607 0.11898 0.82483 0.0
H188 H 0.64442 0.05352 0.81451 0.0
H189 H 0.59028 0.1107 0.75573 0.0
O190 O 0.60812 0.06174 0.94811 0.0
O191 O 0.58233 0.09543 0.91422 0.0
O192 O 0.6176 0.14513 0.87622 0.0
C193 C 0.58667 0.06836 0.9391 0.0
H194 H 0.62359 0.16739 0.14898 0.0
H195 H 0.63774 0.04881 0.66647 0.0
H196 H 0.70094 0.10497 0.84073 0.0
H197 H 0.68227 0.05804 0.04642 0.0
Co198 Co 0.91216 0.59932 0.62984 0.0
C199 C 0.90853 0.60712 0.45876 0.0
C200 C 0.92757 0.64179 0.51508 0.0
C201 C 0.92755 0.64782 0.4386 0.0
N202 N 0.91528 0.61665 0.5285 0.0
N203 N 0.9156 0.62605 0.40318 0.0
H204 H 0.89874 0.58706 0.44783 0.0
H205 H 0.9361 0.65489 0.55842 0.0
C206 C 0.89214 0.66213 0.64358 0.0
O207 O 0.88199 0.65908 0.57743 0.0
N208 N 0.9099 0.58315 0.73172 0.0
C209 C 0.90192 0.55618 0.75444 0.0
C210 C 0.90076 0.55595 0.83307 0.0
C211 C 0.91371 0.59869 0.79616 0.0
N212 N 0.90798 0.58288 0.85902 0.0
C213 C 0.87656 0.5635 0.56536 0.0
C214 C 0.84013 0.58684 0.64669 0.0
C215 C 0.83603 0.56317 0.59577 0.0
C216 C 0.8547 0.55149 0.55532 0.0
C217 C 0.86245 0.59856 0.65442 0.0
N218 N 0.88028 0.58741 0.61225 0.0
H219 H 0.89067 0.55281 0.53644 0.0
H220 H 0.8654 0.6158 0.69635 0.0
H221 H 0.89642 0.53845 0.71661 0.0
H222 H 0.92017 0.62146 0.79686 0.0
O223 O 0.92728 0.563 0.59488 0.0
O224 O 0.94515 0.60273 0.64122 0.0
O225 O 0.90349 0.64027 0.67207 0.0
C226 C 0.94658 0.576 0.61163 0.0
H227 H 0.93602 0.66653 0.4109 0.0
H228 H 0.89404 0.53794 0.86804 0.0
H229 H 0.82628 0.59617 0.68024 0.0
H230 H 0.85257 0.53251 0.51748 0.0
Co231 Co 0.60588 0.43471 0.64157 0.0
C232 C 0.60373 0.43345 0.47245 0.0
C233 C 0.59585 0.39032 0.51893 0.0
C234 C 0.5932 0.38904 0.4409 0.0
N235 N 0.60321 0.41801 0.53883 0.0
N236 N 0.59804 0.41633 0.41199 0.0
H237 H 0.60681 0.45723 0.46814 0.0
H238 H 0.59145 0.37261 0.55842 0.0
C239 C 0.62604 0.37226 0.66196 0.0
O240 O 0.63837 0.3758 0.59993 0.0
N241 N 0.60798 0.45173 0.74259 0.0
C242 C 0.61519 0.4798 0.75792 0.0
C243 C 0.61326 0.48476 0.83472 0.0
C244 C 0.6018 0.43982 0.81055 0.0
N245 N 0.60482 0.45973 0.8679 0.0
C246 C 0.64281 0.46805 0.5749 0.0
C247 C 0.67815 0.44492 0.6611 0.0
C248 C 0.68319 0.46684 0.60608 0.0
C249 C 0.66508 0.47853 0.56342 0.0
C250 C 0.65544 0.43463 0.67004 0.0
N251 N 0.63815 0.44542 0.62505 0.0
H252 H 0.62923 0.47938 0.54556 0.0
H253 H 0.65174 0.41871 0.71475 0.0
H254 H 0.62115 0.49573 0.71582 0.0
H255 H 0.59461 0.41757 0.81758 0.0
O256 O 0.59159 0.47157 0.60573 0.0
O257 O 0.57285 0.43234 0.65169 0.0
O258 O 0.61334 0.39369 0.68597 0.0
C259 C 0.57201 0.45923 0.62268 0.0
H260 H 0.58682 0.37012 0.40861 0.0
H261 H 0.61765 0.50534 0.86402 0.0
H262 H 0.69158 0.43582 0.69669 0.0
H263 H 0.66797 0.49645 0.52278 0.0
H264 H 0.31328 0.99157 0.19724 0.0
H265 H 0.3259 0.97156 0.95968 0.0
H266 H 0.29088 0.99959 0.92431 0.0
H267 H 0.25127 0.98265 0.18684 0.0
H268 H 0.24555 1.01227 0.25401 0.0
H269 H 0.27185 0.99124 0.26004 0.0
H270 H 0.29502 0.04084 0.25238 0.0
H271 H 0.26879 0.06199 0.24518 0.0
H272 H 0.29065 0.06587 0.17315 0.0
H273 H 0.25592 0.032 0.91436 0.0
H274 H 0.21987 0.05989 0.93034 0.0
H275 H 0.22759 0.0555 0.17568 0.0
C276 C 0.30851 0.993 0.13788 0.0
C277 C 0.32222 0.97945 0.08097 0.0
C278 C 0.31549 0.98158 1.00397 0.0
C279 C 0.29576 0.99766 0.98341 0.0
C280 C 0.28278 1.01112 0.04068 0.0
C281 C 0.28858 1.00846 0.11648 0.0
C282 C 0.271 0.02391 0.16689 0.0
C283 C 0.25921 1.00116 0.22007 0.0
C284 C 0.28203 0.04968 0.21206 0.0
C285 C 0.25447 0.0358 0.10753 0.0
C286 C 0.26185 0.02853 0.03514 0.0
C287 C 0.24978 0.03738 0.97083 0.0
C288 C 0.2292 0.05315 0.98065 0.0
C289 C 0.22047 0.0595 0.05434 0.0
C290 C 0.23369 0.05122 0.11854 0.0
H291 H 0.21898 0.47452 0.49803 0.0
H292 H 0.20778 0.46585 0.25476 0.0
H293 H 0.24293 0.49495 0.23047 0.0
H294 H 0.23719 0.55113 0.49023 0.0
H295 H 0.25808 0.54724 0.56496 0.0
H296 H 0.23307 0.52344 0.56387 0.0
H297 H 0.25899 0.47627 0.56657 0.0
H298 H 0.28409 0.49992 0.56804 0.0
H299 H 0.28096 0.47181 0.49514 0.0
H300 H 0.27906 0.52624 0.2321 0.0
H301 H 0.31335 0.55655 0.2596 0.0
H302 H 0.29882 0.5494 0.5015 0.0
C303 C 0.22378 0.47866 0.43948 0.0
C304 C 0.21041 0.46738 0.3785 0.0
C305 C 0.21779 0.47331 0.30291 0.0
C306 C 0.23769 0.49021 0.28832 0.0
C307 C 0.25007 0.50142 0.34972 0.0
C308 C 0.2434 0.49591 0.42381 0.0
C309 C 0.25926 0.51151 0.47957 0.0
C310 C 0.24611 0.53471 0.52746 0.0
C311 C 0.27156 0.4885 0.53031 0.0
C312 C 0.27588 0.52667 0.4252 0.0
C313 C 0.27035 0.52043 0.3506 0.0
C314 C 0.28344 0.53147 0.29035 0.0
C315 C 0.30282 0.54906 0.30672 0.0
C316 C 0.30896 0.55587 0.3829 0.0
C317 C 0.29498 0.54458 0.44261 0.0
H318 H 0.72426 0.05567 0.8382 0.0
H319 H 0.71964 0.07958 0.07693 0.0
H320 H 0.75643 0.05427 0.10097 0.0
H321 H 0.74772 0.98354 0.86348 0.0
H322 H 0.76714 0.98512 0.78366 0.0
H323 H 0.7411 1.00681 0.78256 0.0
H324 H 0.76443 0.05551 0.75942 0.0
H325 H 0.79054 0.0339 0.75911 0.0
H326 H 0.78743 0.06516 0.8233 0.0
H327 H 0.79127 0.02252 0.10259 0.0
H328 H 0.82528 0.99137 0.07931 0.0
H329 H 0.80967 0.99002 0.83786 0.0
C330 C 0.7313 0.05621 0.89508 0.0
C331 C 0.71895 0.06946 0.95585 0.0
C332 C 0.72861 0.06928 0.02971 0.0
C333 C 0.74953 0.05498 0.04396 0.0
C334 C 0.76081 0.04117 0.98363 0.0
C335 C 0.75236 0.04209 0.91036 0.0
C336 C 0.76799 0.02499 0.85634 0.0
C337 C 0.75522 0.99855 0.81934 0.0
C338 C 0.77821 0.04616 0.79597 0.0
C339 C 0.78628 1.01401 0.91107 0.0
C340 C 0.78164 0.02354 0.98418 0.0
C341 C 0.79539 0.01545 0.04532 0.0
C342 C 0.81478 0.99779 0.03132 0.0
C343 C 0.8206 0.9886 0.95648 0.0
C344 C 0.80583 0.99656 0.89575 0.0
H345 H 0.80362 0.54678 0.70417 0.0
H346 H 0.81588 0.5495 0.46077 0.0
H347 H 0.77909 0.52367 0.43878 0.0
H348 H 0.77757 0.4737 0.70884 0.0
H349 H 0.75643 0.483 0.77995 0.0
H350 H 0.78353 0.50254 0.77792 0.0
H351 H 0.76243 0.55352 0.76884 0.0
H352 H 0.73527 0.53416 0.77179 0.0
H353 H 0.74172 0.55936 0.69435 0.0
H354 H 0.74177 0.49693 0.44184 0.0
H355 H 0.70445 0.47314 0.46945 0.0
H356 H 0.71521 0.48699 0.71088 0.0
C357 C 0.79837 0.54229 0.64629 0.0
C358 C 0.81273 0.55007 0.58412 0.0
C359 C 0.80534 0.54349 0.50927 0.0
C360 C 0.78444 0.52884 0.49617 0.0
C361 C 0.77097 0.52084 0.55846 0.0
C362 C 0.77746 0.52748 0.63207 0.0
C363 C 0.7596 0.51614 0.68851 0.0
C364 C 0.76991 0.49244 0.74196 0.0
C365 C 0.74913 0.54236 0.73352 0.0
C366 C 0.74213 0.50218 0.63497 0.0
C367 C 0.74918 0.50516 0.56026 0.0
C368 C 0.73603 0.49452 0.50008 0.0
C369 C 0.71485 0.48103 0.51634 0.0
C370 C 0.7069 0.4782 0.5922 0.0
C371 C 0.72096 0.48852 0.65241 0.0
H372 H 0.9609 1.005 0.97263 0.0
H373 H 0.99294 0.92225 0.89729 0.0
H374 H 0.0309 0.94274 0.93176 0.0
H375 H 1.00566 0.05527 0.90564 0.0
H376 H 1.00333 0.0803 0.98574 0.0
H377 H 0.97863 0.05932 0.95462 0.0
H378 H 0.97389 0.03722 0.08998 0.0
H379 H 0.99867 0.05797 0.12146 0.0
H380 H 0.9976 0.01778 0.13333 0.0
H381 H 0.06504 0.97132 0.9759 0.0
H382 H 0.094 1.00696 0.02167 0.0
H383 H 0.04064 0.0724 0.06861 0.0
C384 C 0.97592 0.99126 0.96288 0.0
C385 C 0.97393 0.96197 0.93197 0.0
C386 C 0.99401 0.94471 0.92058 0.0
C387 C 0.01565 0.95615 0.94019 0.0
C388 C 0.01698 0.98493 0.97113 0.0
C389 C 0.99772 1.00237 0.9821 0.0
C390 C 1.00406 0.03264 0.0163 0.0
C391 C 0.99753 0.05841 0.96234 0.0
C392 C 0.99289 0.03663 0.09494 0.0
C393 C 0.02993 0.02949 0.02268 0.0
C394 C 0.03688 1.00166 0.9965 0.0
C395 C 0.05981 0.99318 0.99636 0.0
C396 C 0.07616 1.0137 0.02271 0.0
C397 C 0.06969 0.04261 0.0489 0.0
C398 C 0.04616 0.05049 0.0493 0.0
H399 H 0.46212 1.0045 0.05723 0.0
H400 H 0.49637 0.92093 0.11342 0.0
H401 H 0.53328 0.94271 0.07133 0.0
H402 H 0.49531 0.02171 0.88904 0.0
H403 H 0.49629 0.06154 0.9068 0.0
H404 H 0.47238 0.03958 0.94089 0.0
H405 H 0.47968 0.05848 0.07791 0.0
H406 H 0.50352 0.08064 0.04421 0.0
H407 H 0.50767 0.05377 0.11957 0.0
H408 H 0.56616 0.97288 0.02298 0.0
H409 H 0.59389 1.01023 0.97706 0.0
H410 H 0.53919 0.07561 0.95239 0.0
C411 C 0.4774 0.99078 0.06078 0.0
C412 C 0.47634 0.96091 0.08868 0.0
C413 C 0.49673 0.9438 0.0925 0.0
C414 C 0.51777 0.95598 0.06847 0.0
C415 C 0.51819 0.98535 0.04089 0.0
C416 C 0.49861 1.00266 0.03726 0.0
C417 C 0.50401 0.03382 1.0063 0.0
C418 C 0.49123 0.03949 0.9313 0.0
C419 C 0.49839 0.05811 0.06554 0.0
C420 C 0.52972 0.03134 0.99323 0.0
C421 C 0.53739 1.00305 0.01334 0.0
C422 C 0.56035 0.99508 1.00718 0.0
C423 C 0.576 0.0166 0.98087 0.0
C424 C 0.56881 0.046 0.96097 0.0
C425 C 0.54523 0.05334 0.96664 0.0
H426 H 0.03292 0.45288 0.43678 0.0
H427 H 0.08809 0.51351 0.50039 0.0
H428 H 0.06004 0.54881 0.55339 0.0
H429 H 0.99243 0.51134 0.38269 0.0
H430 H 0.96774 0.49183 0.4202 0.0
H431 H 0.99212 0.47088 0.38629 0.0
H432 H 0.995 0.44403 0.51657 0.0
H433 H 0.97072 0.46504 0.55101 0.0
H434 H 0.99749 0.46612 0.60201 0.0
H435 H 0.02664 0.57764 0.60156 0.0
H436 H 0.98923 0.59922 0.63751 0.0
H437 H 0.95477 0.5212 0.54328 0.0
C438 C 0.03903 0.47365 0.46148 0.0
C439 C 0.0628 0.48031 0.46419 0.0
C440 C 0.07005 0.50775 0.49734 0.0
C441 C 0.05423 0.52805 0.52788 0.0
C442 C 0.03104 0.52081 0.52499 0.0
C443 C 0.02334 0.49442 0.49235 0.0
C444 C 0.99731 0.49252 0.49673 0.0
C445 C 0.98678 0.49159 0.41671 0.0
C446 C 0.98969 0.46531 0.54443 0.0
C447 C 0.99176 0.52187 0.53692 0.0
C448 C 1.01154 0.53773 0.55278 0.0
C449 C 1.01099 0.56546 0.58941 0.0
C450 C 0.98964 0.57753 0.60979 0.0
C451 C 0.96903 0.56196 0.5935 0.0
C452 C 0.9702 0.53364 0.55686 0.0
H453 H 0.48549 0.58218 0.44604 0.0
H454 H 0.43097 0.53027 0.55265 0.0
H455 H 0.4593 0.49584 0.60618 0.0
H456 H 0.52082 0.51855 0.3965 0.0
H457 H 0.54773 0.53681 0.41681 0.0
H458 H 0.52337 0.55875 0.38752 0.0
H459 H 0.52699 0.5913 0.50884 0.0
H460 H 0.5514 0.56947 0.53842 0.0
H461 H 0.52699 0.57336 0.60076 0.0
H462 H 0.49245 0.46561 0.64549 0.0
H463 H 0.52966 0.44146 0.67045 0.0
H464 H 0.56416 0.51153 0.54157 0.0
C465 C 0.47961 0.56367 0.481 0.0
C466 C 0.45588 0.55898 0.49453 0.0
C467 C 0.44894 0.53436 0.54052 0.0
C468 C 0.46493 0.5146 0.57165 0.0
C469 C 0.48804 0.51948 0.5567 0.0
C470 C 0.49553 0.54334 0.51273 0.0
C471 C 0.52156 0.54265 0.50513 0.0
C472 C 0.52879 0.53897 0.42151 0.0
C473 C 0.53237 0.57088 0.5404 0.0
C474 C 0.52727 0.5147 0.55131 0.0
C475 C 0.50756 0.50181 0.58039 0.0
C476 C 0.50807 0.47554 0.62343 0.0
C477 C 0.52931 0.46194 0.63724 0.0
C478 C 0.54985 0.47459 0.60839 0.0
C479 C 0.54876 0.50144 0.56499 0.0
H480 H 0.11999 0.06935 0.77867 0.0
H481 H 0.08842 0.15725 0.77808 0.0
H482 H 0.08193 0.15333 0.63971 0.0
H483 H 0.15055 0.07901 0.60916 0.0
H484 H 0.14728 0.04108 0.57512 0.0
H485 H 0.14651 0.04859 0.67559 0.0
H486 H 0.10673 0.02287 0.68571 0.0
H487 H 0.10744 1.0151 0.58515 0.0
H488 H 0.08364 0.0354 0.6256 0.0
H489 H 0.08235 0.14244 0.50077 0.0
H490 H 0.08997 0.12587 0.37026 0.0
H491 H 0.12138 0.04441 0.45741 0.0
C492 C 0.11108 0.08725 0.74945 0.0
C493 C 0.10441 0.11349 0.78898 0.0
C494 C 0.09351 0.13697 0.7487 0.0
C495 C 0.08971 0.13488 0.67022 0.0
C496 C 0.09699 0.10914 0.63233 0.0
C497 C 0.10739 0.08565 0.67042 0.0
C498 C 0.11531 0.06172 0.61469 0.0
C499 C 0.14146 0.05736 0.61891 0.0
C500 C 0.10251 0.03201 0.62862 0.0
C501 C 0.10827 0.07583 0.53952 0.0
C502 C 0.09748 0.10298 0.55129 0.0
C503 C 0.09046 0.12095 0.49084 0.0
C504 C 0.0948 0.11116 0.41637 0.0
C505 C 0.10622 0.08359 0.40217 0.0
C506 C 0.11267 0.06559 0.46532 0.0
H507 H 0.43743 0.97025 0.50146 0.0
H508 H 0.39147 0.90081 0.41847 0.0
H509 H 0.383 0.88563 0.54983 0.0
H510 H 0.46073 0.92831 0.65395 0.0
H511 H 0.46219 0.95941 0.71929 0.0
H512 H 0.4639 0.9661 0.6185 0.0
H513 H 0.4296 1.00284 0.62789 0.0
H514 H 0.42774 0.99614 0.7288 0.0
H515 H 0.40298 0.99018 0.66947 0.0
H516 H 0.38121 0.87551 0.68773 0.0
H517 H 0.3866 0.87094 0.82656 0.0
H518 H 0.43218 0.94782 0.82386 0.0
C519 C 0.42538 0.95211 0.511 0.0
C520 C 0.41532 0.93656 0.4493 0.0
C521 C 0.39981 0.9127 0.46438 0.0
C522 C 0.39466 0.90409 0.53896 0.0
C523 C 0.40497 0.91968 0.59824 0.0
C524 C 0.41996 0.94322 0.58546 0.0
C525 C 0.42933 0.95531 0.65987 0.0
C526 C 0.45559 0.95207 0.66306 0.0
C527 C 0.42197 0.98807 0.67222 0.0
C528 C 0.41757 0.93446 0.71611 0.0
C529 C 0.40351 0.91421 0.67902 0.0
C530 C 0.39191 0.89147 0.71762 0.0
C531 C 0.39507 0.88899 0.79615 0.0
C532 C 0.40955 0.90921 0.83528 0.0
C533 C 0.42062 0.93258 0.79506 0.0
H534 H 0.12793 0.43713 0.72513 0.0
H535 H 0.0637 0.38795 0.71578 0.0
H536 H 0.05813 0.39559 0.85306 0.0
H537 H 0.14621 0.40838 0.90332 0.0
H538 H 0.15865 0.44299 0.93689 0.0
H539 H 0.15713 0.43561 0.8364 0.0
H540 H 0.13506 0.48536 0.81607 0.0
H541 H 0.13661 0.49297 0.91655 0.0
H542 H 0.10918 0.49231 0.86952 0.0
H543 H 0.06039 0.40532 0.99199 0.0
H544 H 0.06978 0.41846 0.12449 0.0
H545 H 0.13234 0.46199 0.04754 0.0
C546 C 0.11255 0.42848 0.75198 0.0
C547 C 0.09635 0.4117 0.70964 0.0
C548 C 0.07654 0.40041 0.74702 0.0
C549 C 0.07314 0.40479 0.82504 0.0
C550 C 0.08963 0.42069 0.86553 0.0
C551 C 0.10888 0.43259 0.83051 0.0
C552 C 0.12426 0.44788 0.88854 0.0
C553 C 0.14796 0.43281 0.89144 0.0
C554 C 0.1264 0.48164 0.87165 0.0
C555 C 0.11076 0.44229 0.96135 0.0
C556 C 0.09082 0.42661 0.94646 0.0
C557 C 0.07589 0.4178 1.00437 0.0
C558 C 0.08144 0.42518 0.07962 0.0
C559 C 0.10175 0.44129 0.09676 0.0
C560 C 0.11651 0.45007 0.03638 0.0
H561 H 0.40434 0.63122 0.10862 0.0
H562 H 0.43432 0.54223 0.10598 0.0
H563 H 0.43814 0.54482 0.96663 0.0
H564 H 0.37113 0.62268 0.94369 0.0
H565 H 0.37536 0.66021 0.9078 0.0
H566 H 0.37698 0.6531 1.00841 0.0
H567 H 0.4177 0.67636 1.01232 0.0
H568 H 0.41613 0.68383 0.91174 0.0
H569 H 0.43963 0.66223 0.94939 0.0
H570 H 0.43544 0.55446 0.82818 0.0
H571 H 0.42868 0.57223 0.6974 0.0
H572 H 0.40096 0.65556 0.78564 0.0
C573 C 0.41225 0.61271 0.07864 0.0
C574 C 0.41902 0.58647 0.11806 0.0
C575 C 0.42887 0.5624 0.07681 0.0
C576 C 0.43117 0.56369 0.99769 0.0
C577 C 0.42367 0.58934 0.96015 0.0
C578 C 0.41465 0.61362 0.99899 0.0
C579 C 0.40696 0.63783 0.94372 0.0
C580 C 0.38107 0.64379 0.95138 0.0
C581 C 0.42094 0.66678 0.95497 0.0
C582 C 0.41264 0.62302 0.86813 0.0
C583 C 0.4223 0.59508 0.87925 0.0
C584 C 0.42807 0.57642 0.81864 0.0
C585 C 0.42395 0.58658 0.74452 0.0
C586 C 0.41419 0.6152 0.73131 0.0
C587 C 0.40863 0.6337 0.79415 0.0
H588 H 0.9113 0.88053 0.26357 0.0
H589 H 0.9431 0.9622 0.17695 0.0
H590 H 0.95101 0.9782 0.30735 0.0
H591 H 0.88276 0.91499 0.41651 0.0
H592 H 0.88651 0.88413 0.48164 0.0
H593 H 0.88551 0.87721 0.38094 0.0
H594 H 0.92493 0.85059 0.38808 0.0
H595 H 0.92601 0.85756 0.48893 0.0
H596 H 0.94913 0.87014 0.42839 0.0
H597 H 0.95172 0.98856 0.44678 0.0
H598 H 0.94534 0.99175 0.58577 0.0
H599 H 0.91386 0.9037 0.58423 0.0
C600 C 0.92007 0.9017 0.27129 0.0
C601 C 0.92647 0.9199 0.20829 0.0
C602 C 0.93807 0.94739 0.22271 0.0
C603 C 0.94268 0.95684 0.2972 0.0
C604 C 0.93575 0.93862 0.35742 0.0
C605 C 0.92477 0.91155 0.34543 0.0
C606 C 0.9178 0.89713 0.42038 0.0
C607 C 0.8916 0.89315 0.42512 0.0
C608 C 0.93022 0.86707 0.43212 0.0
C609 C 0.92618 0.92065 0.47624 0.0
C610 C 0.93658 0.94433 0.43855 0.0
C611 C 0.94403 0.9699 0.47701 0.0
C612 C 0.94038 0.97155 0.55573 0.0
C613 C 0.92961 0.94774 0.59537 0.0
C614 C 0.92281 0.92173 0.5553 0.0
H615 H 0.61873 0.04977 0.5528 0.0
H616 H 0.58746 0.13138 0.63982 0.0
H617 H 0.57969 0.14776 0.50937 0.0
H618 H 0.64777 0.08401 0.40142 0.0
H619 H 0.64382 0.05363 0.33504 0.0
H620 H 0.64433 0.04607 0.43552 0.0
H621 H 0.60455 0.02036 0.42623 0.0
H622 H 0.60391 0.02786 0.32552 0.0
H623 H 0.5808 0.04061 0.38557 0.0
H624 H 0.57926 0.15857 0.37038 0.0
H625 H 0.58589 0.16245 0.23188 0.0
H626 H 0.61723 0.07442 0.23148 0.0
C627 C 0.61 0.07093 0.5449 0.0
C628 C 0.60366 0.08904 0.60801 0.0
C629 C 0.59222 0.11659 0.59379 0.0
C630 C 0.58777 0.12627 0.51933 0.0
C631 C 0.5947 0.1082 0.45892 0.0
C632 C 0.60545 0.08101 0.47069 0.0
C633 C 0.61251 0.06689 0.39547 0.0
C634 C 0.63866 0.0624 0.39167 0.0
C635 C 0.59967 0.03716 0.38244 0.0
C636 C 0.60466 0.09083 0.33978 0.0
C637 C 0.59424 0.11433 0.37784 0.0
C638 C 0.58702 0.14008 0.33988 0.0
C639 C 0.59087 0.14214 0.26135 0.0
C640 C 0.60174 0.1186 0.22109 0.0
C641 C 0.60833 0.09236 0.26069 0.0
H642 H 0.91506 0.57587 0.31371 0.0
H643 H 0.90705 0.67261 0.31 0.0
H644 H 0.90284 0.67137 0.17063 0.0
H645 H 0.94886 0.57114 0.1455 0.0
H646 H 0.93625 0.53669 0.11164 0.0
H647 H 0.93693 0.54451 0.21205 0.0
H648 H 0.89286 0.53765 0.21979 0.0
H649 H 0.89205 0.52965 0.1194 0.0
H650 H 0.87464 0.55938 0.15809 0.0
H651 H 0.90119 0.66051 0.03294 0.0
H652 H 0.90188 0.64064 0.90287 0.0
H653 H 0.91183 0.55056 0.99111 0.0
C654 C 0.91199 0.59663 0.28342 0.0
C655 C 0.91135 0.62439 0.32257 0.0
C656 C 0.90776 0.6512 0.28101 0.0
C657 C 0.90526 0.65069 0.20193 0.0
C658 C 0.90642 0.62315 0.16481 0.0
C659 C 0.90964 0.59655 0.20383 0.0
C660 C 0.91125 0.57027 0.14893 0.0
C661 C 0.93472 0.55474 0.1549 0.0
C662 C 0.89152 0.54792 0.16236 0.0
C663 C 0.90864 0.58639 0.07321 0.0
C664 C 0.90578 0.61686 0.08416 0.0
C665 C 0.90344 0.63669 0.02355 0.0
C666 C 0.90409 0.62517 0.9496 0.0
C667 C 0.90719 0.59405 0.93619 0.0
C668 C 0.90932 0.57441 0.99927 0.0
H669 H 0.60711 0.38498 0.2818 0.0
H670 H 0.58253 0.4706 0.36615 0.0
H671 H 0.57929 0.48926 0.23478 0.0
H672 H 0.6415 0.41488 0.1322 0.0
H673 H 0.63523 0.38548 0.06498 0.0
H674 H 0.63418 0.37776 0.16543 0.0
H675 H 0.5924 0.3587 0.152 0.0
H676 H 0.59332 0.36641 0.05141 0.0
H677 H 0.57112 0.38274 0.10958 0.0
H678 H 0.58049 0.4999 0.0966 0.0
H679 H 0.58677 0.50241 0.95821 0.0
H680 H 0.61057 0.41024 0.9585 0.0
C681 C 0.60074 0.40747 0.27228 0.0
C682 C 0.59518 0.42639 0.33442 0.0
C683 C 0.58722 0.45586 0.31977 0.0
C684 C 0.58514 0.46659 0.24521 0.0
C685 C 0.59105 0.44762 0.1854 0.0
C686 C 0.59869 0.41868 0.19773 0.0
C687 C 0.60496 0.40364 0.12282 0.0
C688 C 0.63049 0.39493 0.1213 0.0
C689 C 0.58953 0.37624 0.1081 0.0
C690 C 0.59994 0.42881 0.06682 0.0
C691 C 0.59178 0.45385 0.10454 0.0
C692 C 0.58674 0.4804 0.06637 0.0
C693 C 0.59047 0.48166 0.98778 0.0
C694 C 0.59918 0.45658 0.94755 0.0
C695 C 0.6036 0.4296 0.9876 0.0
H696 H 0.14263 0.18653 0.31497 0.0
H697 H 0.10536 0.19308 0.10237 0.0
H698 H 0.1006 0.24773 0.12313 0.0
H699 H 0.10907 0.2392 0.41977 0.0
H700 H 0.1332 0.25446 0.47077 0.0
H701 H 0.13382 0.21614 0.43825 0.0
H702 H 0.17175 0.22668 0.36573 0.0
H703 H 0.17128 0.26502 0.39817 0.0
H704 H 0.17296 0.25701 0.29789 0.0
H705 H 0.09886 0.30221 0.17096 0.0
H706 H 0.10184 0.351 0.23777 0.0
H707 H 0.14119 0.3083 0.41662 0.0
C708 C 0.13351 0.19937 0.27241 0.0
C709 C 0.12434 0.1853 0.20693 0.0
C710 C 0.11259 0.2032 0.1529 0.0
C711 C 0.10977 0.2343 0.16432 0.0
C712 C 0.1189 0.24734 0.22985 0.0
C713 C 0.13068 0.23037 0.28266 0.0
C714 C 0.13895 0.2496 0.34826 0.0
C715 C 0.12811 0.23923 0.42371 0.0
C716 C 0.1653 0.24958 0.35274 0.0
C717 C 0.12993 0.2801 0.32454 0.0
C718 C 0.11831 0.2784 0.25628 0.0
C719 C 0.10805 0.30372 0.2242 0.0
C720 C 0.10978 0.33137 0.26269 0.0
C721 C 0.12183 0.33365 0.33238 0.0
C722 C 0.13202 0.30751 0.3632 0.0
H723 H 0.42157 0.8293 0.22304 0.0
H724 H 0.35012 0.85332 0.25769 0.0
H725 H 0.34161 0.80167 0.29818 0.0
H726 H 0.41105 0.75203 0.15507 0.0
H727 H 0.43533 0.73646 0.20449 0.0
H728 H 0.43601 0.77494 0.17262 0.0
H729 H 0.44478 0.79251 0.30975 0.0
H730 H 0.44415 0.75412 0.34197 0.0
H731 H 0.4258 0.78163 0.38608 0.0
H732 H 0.34051 0.74907 0.34038 0.0
H733 H 0.34702 0.69786 0.38693 0.0
H734 H 0.41926 0.7052 0.32852 0.0
C735 C 0.4041 0.82353 0.23827 0.0
C736 C 0.38649 0.84554 0.23689 0.0
C737 C 0.36393 0.83709 0.25834 0.0
C738 C 0.35888 0.80768 0.28119 0.0
C739 C 0.37653 0.78668 0.2827 0.0
C740 C 0.39872 0.79404 0.2621 0.0
C741 C 0.41454 0.76712 0.27307 0.0
C742 C 0.42484 0.75705 0.19676 0.0
C743 C 0.43343 0.77428 0.33118 0.0
C744 C 0.39776 0.74376 0.304 0.0
C745 C 0.37593 0.75572 0.30821 0.0
C746 C 0.3575 0.73939 0.33705 0.0
C747 C 0.36143 0.71025 0.3636 0.0
C748 C 0.38364 0.69734 0.36154 0.0
C749 C 0.40203 0.71425 0.33003 0.0
H750 H 0.88375 0.84132 0.67996 0.0
H751 H 0.9068 0.8318 0.91327 0.0
H752 H 0.90622 0.77665 0.89907 0.0
H753 H 0.8457 0.77586 0.67859 0.0
H754 H 0.85289 0.76599 0.58207 0.0
H755 H 0.85394 0.80468 0.6118 0.0
H756 H 0.89621 0.80828 0.56692 0.0
H757 H 0.89532 0.76963 0.5372 0.0
H758 H 0.91693 0.78198 0.60331 0.0
H759 H 0.9054 0.72239 0.85707 0.0
H760 H 0.90366 0.67349 0.79157 0.0
H761 H 0.88045 0.71782 0.5861 0.0
C762 C 0.8884 0.82769 0.72853 0.0
C763 C 0.89524 0.84111 0.798 0.0
C764 C 0.90141 0.82225 0.85961 0.0
C765 C 0.90114 0.79082 0.85206 0.0
C766 C 0.89457 0.7784 0.78262 0.0
C767 C 0.8882 0.79625 0.72202 0.0
C768 C 0.88252 0.77727 0.6528 0.0
C769 C 0.85726 0.78119 0.63 0.0
C770 C 0.89871 0.78474 0.58614 0.0
C771 C 0.88694 0.74595 0.68363 0.0
C772 C 0.89386 0.74714 0.75868 0.0
C773 C 0.89978 0.72123 0.79855 0.0
C774 C 0.89875 0.69348 0.76078 0.0
C775 C 0.89173 0.69159 0.68383 0.0
C776 C 0.88557 0.71832 0.64522 0.0
H777 H 0.63903 0.19371 0.69609 0.0
H778 H 0.60662 0.19916 0.91813 0.0
H779 H 0.60466 0.25445 0.90529 0.0
H780 H 0.67351 0.26093 0.71318 0.0
H781 H 0.67007 0.2713 0.61481 0.0
H782 H 0.66915 0.23233 0.64217 0.0
H783 H 0.62925 0.22673 0.57915 0.0
H784 H 0.63007 0.26565 0.55143 0.0
H785 H 0.60633 0.25157 0.60692 0.0
H786 H 0.60521 0.30964 0.86545 0.0
H787 H 0.60853 0.35928 0.80339 0.0
H788 H 0.64135 0.31759 0.60865 0.0
C789 C 0.63155 0.20643 0.74232 0.0
C790 C 0.62297 0.19186 0.80829 0.0
C791 C 0.61336 0.20962 0.86713 0.0
C792 C 0.61217 0.2411 0.86029 0.0
C793 C 0.62076 0.25465 0.79442 0.0
C794 C 0.63032 0.23782 0.73659 0.0
C795 C 0.63818 0.2577 0.67131 0.0
C796 C 0.66428 0.25543 0.65972 0.0
C797 C 0.62518 0.24995 0.59788 0.0
C798 C 0.63143 0.28841 0.70104 0.0
C799 C 0.62138 0.28621 0.77213 0.0
C800 C 0.61318 0.31154 0.81001 0.0
C801 C 0.61513 0.33971 0.77419 0.0
C802 C 0.62532 0.34253 0.70118 0.0
C803 C 0.63372 0.3164 0.66476 0.0
loop_
_geom_bond_atom_site_label_1
_geom_bond_atom_site_label_2
_geom_bond_distance
_geom_bond_site_symmetry_2
_ccdc_geom_bond_type
Co0 N4 2.148 1_554 S
Co0 N10 2.128 . S
Co0 N20 2.194 . S
Co0 O25 2.351 . S
Co0 O26 2.155 . S
Co0 O27 2.096 . S
C1 N4 1.301 . S
C1 N5 1.328 . S
C1 H6 0.930 . S
C2 C3 1.333 . S
C2 N4 1.317 . S
C2 H7 0.935 . S
C3 C2 1.333 . S
C3 N5 1.350 . S
C3 H29 0.931 . S
N4 Co0 2.148 1_556 S
N4 C1 1.301 . S
N4 C2 1.317 . S
N5 C1 1.328 . S
N5 C3 1.350 . S
H6 C1 0.930 . S
H7 C2 0.935 . S
C8 O9 1.224 . S
C8 O27 1.247 . S
O9 C8 1.224 . S
N10 Co0 2.128 . S
N10 C11 1.355 . S
N10 C13 1.311 . S
C11 N10 1.355 . S
C11 C12 1.363 . S
C11 H23 0.929 . S
C12 C11 1.363 . S
C12 N14 1.375 . S
C12 H30 0.931 . S
C13 N10 1.311 . S
C13 N14 1.347 . S
C13 H24 0.929 . S
N14 C12 1.375 . S
N14 C13 1.347 . S
C15 C18 1.365 . S
C15 N20 1.328 . S
C15 H21 0.929 . S
C16 C17 1.362 . S
C16 C19 1.378 . S
C16 H31 0.929 . S
C17 C16 1.362 . S
C17 C18 1.366 . S
C18 C15 1.365 . S
C18 C17 1.366 . S
C18 H32 0.930 . S
C19 C16 1.378 . S
C19 N20 1.315 . S
C19 H22 0.930 . S
N20 Co0 2.194 . S
N20 C15 1.328 . S
N20 C19 1.315 . S
H21 C15 0.929 . S
H22 C19 0.930 . S
H23 C11 0.929 . S
H24 C13 0.929 . S
O25 Co0 2.351 . S
O25 C28 1.244 . S
O26 Co0 2.155 . S
O26 C28 1.240 . S
O27 Co0 2.096 . S
O27 C8 1.247 . S
C28 O25 1.244 . S
C28 O26 1.240 . S
H29 C3 0.931 . S
H30 C12 0.931 . S
H31 C16 0.929 . S
H32 C18 0.930 . S
Co33 N37 2.148 1_554 S
Co33 N43 2.128 . S
Co33 N53 2.194 . S
Co33 O58 2.351 . S
Co33 O59 2.155 . S
Co33 O60 2.096 . S
C34 N37 1.301 . S
C34 N38 1.328 . S
C34 H39 0.930 . S
C35 C36 1.333 . S
C35 N37 1.317 . S
C35 H40 0.935 . S
C36 C35 1.333 . S
C36 N38 1.350 . S
C36 H62 0.931 . S
N37 Co33 2.148 1_556 S
N37 C34 1.301 . S
N37 C35 1.317 . S
N38 C34 1.328 . S
N38 C36 1.350 . S
H39 C34 0.930 . S
H40 C35 0.935 . S
C41 O42 1.224 . S
C41 O60 1.247 . S
O42 C41 1.224 . S
N43 Co33 2.128 . S
N43 C44 1.355 . S
N43 C46 1.311 . S
C44 N43 1.355 . S
C44 C45 1.363 . S
C44 H56 0.929 . S
C45 C44 1.363 . S
C45 N47 1.375 . S
C45 H63 0.931 . S
C46 N43 1.311 . S
C46 N47 1.347 . S
C46 H57 0.929 . S
N47 C45 1.375 . S
N47 C46 1.347 . S
C48 C51 1.365 . S
C48 N53 1.328 . S
C48 H54 0.929 . S
C49 C50 1.362 . S
C49 C52 1.378 . S
C49 H64 0.929 . S
C50 C49 1.362 . S
C50 C51 1.366 . S
C51 C48 1.365 . S
C51 C50 1.366 . S
C51 H65 0.930 . S
C52 C49 1.378 . S
C52 N53 1.315 . S
C52 H55 0.930 . S
N53 Co33 2.194 . S
N53 C48 1.328 . S
N53 C52 1.315 . S
H54 C48 0.929 . S
H55 C52 0.930 . S
H56 C44 0.929 . S
H57 C46 0.929 . S
O58 Co33 2.351 . S
O58 C61 1.244 . S
O59 Co33 2.155 . S
O59 C61 1.240 . S
O60 Co33 2.096 . S
O60 C41 1.247 . S
C61 O58 1.244 . S
C61 O59 1.240 . S
H62 C36 0.931 . S
H63 C45 0.931 . S
H64 C49 0.929 . S
H65 C51 0.930 . S
Co66 N70 2.148 . S
Co66 N76 2.128 . S
Co66 N86 2.194 . S
Co66 O91 2.351 . S
Co66 O92 2.155 . S
Co66 O93 2.096 . S
C67 N70 1.301 . S
C67 N71 1.328 . S
C67 H72 0.930 . S
C68 C69 1.333 . S
C68 N70 1.317 . S
C68 H73 0.930 . S
C69 C68 1.333 . S
C69 N71 1.350 . S
C69 H95 0.931 . S
N70 Co66 2.148 . S
N70 C67 1.301 . S
N70 C68 1.317 . S
N71 C67 1.328 . S
N71 C69 1.350 . S
H72 C67 0.930 . S
H73 C68 0.930 . S
C74 O75 1.224 . S
C74 O93 1.247 . S
O75 C74 1.224 . S
N76 Co66 2.128 . S
N76 C77 1.355 . S
N76 C79 1.311 . S
C77 N76 1.355 . S
C77 C78 1.363 . S
C77 H89 0.929 . S
C78 C77 1.363 . S
C78 N80 1.375 . S
C78 H96 0.931 . S
C79 N76 1.311 . S
C79 N80 1.347 . S
C79 H90 0.929 . S
N80 C78 1.375 . S
N80 C79 1.347 . S
C81 C84 1.365 . S
C81 N86 1.328 . S
C81 H87 0.929 . S
C82 C83 1.362 . S
C82 C85 1.378 . S
C82 H97 0.929 . S
C83 C82 1.362 . S
C83 C84 1.366 . S
C84 C81 1.365 . S
C84 C83 1.366 . S
C84 H98 0.930 . S
C85 C82 1.378 . S
C85 N86 1.315 . S
C85 H88 0.930 . S
N86 Co66 2.194 . S
N86 C81 1.328 . S
N86 C85 1.315 . S
H87 C81 0.929 . S
H88 C85 0.930 . S
H89 C77 0.929 . S
H90 C79 0.929 . S
O91 Co66 2.351 . S
O91 C94 1.244 . S
O92 Co66 2.155 . S
O92 C94 1.240 . S
O93 Co66 2.096 . S
O93 C74 1.247 . S
C94 O91 1.244 . S
C94 O92 1.240 . S
H95 C69 0.931 . S
H96 C78 0.931 . S
H97 C82 0.929 . S
H98 C84 0.930 . S
Co99 N103 2.148 . S
Co99 N109 2.128 . S
Co99 N119 2.194 . S
Co99 O124 2.351 . S
Co99 O125 2.155 . S
Co99 O126 2.096 . S
C100 N103 1.301 . S
C100 N104 1.328 . S
C100 H105 0.930 . S
C101 C102 1.333 . S
C101 N103 1.317 . S
C101 H106 0.930 . S
C102 C101 1.333 . S
C102 N104 1.350 . S
C102 H128 0.931 . S
N103 Co99 2.148 . S
N103 C100 1.301 . S
N103 C101 1.317 . S
N104 C100 1.328 . S
N104 C102 1.350 . S
H105 C100 0.930 . S
H106 C101 0.930 . S
C107 O108 1.224 . S
C107 O126 1.247 . S
O108 C107 1.224 . S
N109 Co99 2.128 . S
N109 C110 1.355 . S
N109 C112 1.311 . S
C110 N109 1.355 . S
C110 C111 1.363 . S
C110 H122 0.929 . S
C111 C110 1.363 . S
C111 N113 1.375 . S
C111 H129 0.931 . S
C112 N109 1.311 . S
C112 N113 1.347 . S
C112 H123 0.929 . S
N113 C111 1.375 . S
N113 C112 1.347 . S
C114 C117 1.365 . S
C114 N119 1.328 . S
C114 H120 0.929 . S
C115 C116 1.362 . S
C115 C118 1.378 . S
C115 H130 0.929 . S
C116 C115 1.362 . S
C116 C117 1.366 . S
C117 C114 1.365 . S
C117 C116 1.366 . S
C117 H131 0.930 . S
C118 C115 1.378 . S
C118 N119 1.315 . S
C118 H121 0.930 . S
N119 Co99 2.194 . S
N119 C114 1.328 . S
N119 C118 1.315 . S
H120 C114 0.929 . S
H121 C118 0.930 . S
H122 C110 0.929 . S
H123 C112 0.929 . S
O124 Co99 2.351 . S
O124 C127 1.244 . S
O125 Co99 2.155 . S
O125 C127 1.240 . S
O126 Co99 2.096 . S
O126 C107 1.247 . S
C127 O124 1.244 . S
C127 O125 1.240 . S
H128 C102 0.931 . S
H129 C111 0.931 . S
H130 C115 0.929 . S
H131 C117 0.930 . S
Co132 N136 2.148 1_556 S
Co132 N142 2.128 . S
Co132 N152 2.194 . S
Co132 O157 2.351 . S
Co132 O158 2.155 . S
Co132 O159 2.096 . S
C133 N136 1.301 . S
C133 N137 1.328 . S
C133 H138 0.930 . S
C134 C135 1.333 . S
C134 N136 1.317 . S
C134 H139 0.935 . S
C135 C134 1.333 . S
C135 N137 1.350 . S
C135 H161 0.931 . S
N136 Co132 2.148 1_554 S
N136 C133 1.301 . S
N136 C134 1.317 . S
N137 C133 1.328 . S
N137 C135 1.350 . S
H138 C133 0.930 . S
H139 C134 0.935 . S
C140 O141 1.224 . S
C140 O159 1.247 . S
O141 C140 1.224 . S
N142 Co132 2.128 . S
N142 C143 1.355 . S
N142 C145 1.311 . S
C143 N142 1.355 . S
C143 C144 1.363 . S
C143 H155 0.929 . S
C144 C143 1.363 . S
C144 N146 1.375 . S
C144 H162 0.931 . S
C145 N142 1.311 . S
C145 N146 1.347 . S
C145 H156 0.929 . S
N146 C144 1.375 . S
N146 C145 1.347 . S
C147 C150 1.365 . S
C147 N152 1.328 . S
C147 H153 0.929 . S
C148 C149 1.362 . S
C148 C151 1.378 . S
C148 H163 0.929 . S
C149 C148 1.362 . S
C149 C150 1.366 . S
C150 C147 1.365 . S
C150 C149 1.366 . S
C150 H164 0.930 . S
C151 C148 1.378 . S
C151 N152 1.315 . S
C151 H154 0.930 . S
N152 Co132 2.194 . S
N152 C147 1.328 . S
N152 C151 1.315 . S
H153 C147 0.929 . S
H154 C151 0.930 . S
H155 C143 0.929 . S
H156 C145 0.929 . S
O157 Co132 2.351 . S
O157 C160 1.244 . S
O158 Co132 2.155 . S
O158 C160 1.240 . S
O159 Co132 2.096 . S
O159 C140 1.247 . S
C160 O157 1.244 . S
C160 O158 1.240 . S
H161 C135 0.931 . S
H162 C144 0.931 . S
H163 C148 0.929 . S
H164 C150 0.930 . S
Co165 N169 2.148 1_556 S
Co165 N175 2.128 . S
Co165 N185 2.194 . S
Co165 O190 2.351 . S
Co165 O191 2.155 . S
Co165 O192 2.096 . S
C166 N169 1.301 . S
C166 N170 1.328 . S
C166 H171 0.930 . S
C167 C168 1.333 . S
C167 N169 1.317 . S
C167 H172 0.935 . S
C168 C167 1.333 . S
C168 N170 1.350 . S
C168 H194 0.931 . S
N169 Co165 2.148 1_554 S
N169 C166 1.301 . S
N169 C167 1.317 . S
N170 C166 1.328 . S
N170 C168 1.350 . S
H171 C166 0.930 . S
H172 C167 0.935 . S
C173 O174 1.224 . S
C173 O192 1.247 . S
O174 C173 1.224 . S
N175 Co165 2.128 . S
N175 C176 1.355 . S
N175 C178 1.311 . S
C176 N175 1.355 . S
C176 C177 1.363 . S
C176 H188 0.929 . S
C177 C176 1.363 . S
C177 N179 1.375 . S
C177 H195 0.931 . S
C178 N175 1.311 . S
C178 N179 1.347 . S
C178 H189 0.929 . S
N179 C177 1.375 . S
N179 C178 1.347 . S
C180 C183 1.365 . S
C180 N185 1.328 . S
C180 H186 0.929 . S
C181 C182 1.362 . S
C181 C184 1.378 . S
C181 H196 0.929 . S
C182 C181 1.362 . S
C182 C183 1.366 . S
C183 C180 1.365 . S
C183 C182 1.366 . S
C183 H197 0.930 . S
C184 C181 1.378 . S
C184 N185 1.315 . S
C184 H187 0.930 . S
N185 Co165 2.194 . S
N185 C180 1.328 . S
N185 C184 1.315 . S
H186 C180 0.929 . S
H187 C184 0.930 . S
H188 C176 0.929 . S
H189 C178 0.929 . S
O190 Co165 2.351 . S
O190 C193 1.244 . S
O191 Co165 2.155 . S
O191 C193 1.240 . S
O192 Co165 2.096 . S
O192 C173 1.247 . S
C193 O190 1.244 . S
C193 O191 1.240 . S
H194 C168 0.931 . S
H195 C177 0.931 . S
H196 C181 0.929 . S
H197 C183 0.930 . S
Co198 N202 2.148 . S
Co198 N208 2.128 . S
Co198 N218 2.194 . S
Co198 O223 2.351 . S
Co198 O224 2.155 . S
Co198 O225 2.096 . S
C199 N202 1.301 . S
C199 N203 1.328 . S
C199 H204 0.930 . S
C200 C201 1.333 . S
C200 N202 1.317 . S
C200 H205 0.930 . S
C201 C200 1.333 . S
C201 N203 1.350 . S
C201 H227 0.931 . S
N202 Co198 2.148 . S
N202 C199 1.301 . S
N202 C200 1.317 . S
N203 C199 1.328 . S
N203 C201 1.350 . S
H204 C199 0.930 . S
H205 C200 0.930 . S
C206 O207 1.224 . S
C206 O225 1.247 . S
O207 C206 1.224 . S
N208 Co198 2.128 . S
N208 C209 1.355 . S
N208 C211 1.311 . S
C209 N208 1.355 . S
C209 C210 1.363 . S
C209 H221 0.929 . S
C210 C209 1.363 . S
C210 N212 1.375 . S
C210 H228 0.931 . S
C211 N208 1.311 . S
C211 N212 1.347 . S
C211 H222 0.929 . S
N212 C210 1.375 . S
N212 C211 1.347 . S
C213 C216 1.365 . S
C213 N218 1.328 . S
C213 H219 0.929 . S
C214 C215 1.362 . S
C214 C217 1.378 . S
C214 H229 0.929 . S
C215 C214 1.362 . S
C215 C216 1.366 . S
C216 C213 1.365 . S
C216 C215 1.366 . S
C216 H230 0.930 . S
C217 C214 1.378 . S
C217 N218 1.315 . S
C217 H220 0.930 . S
N218 Co198 2.194 . S
N218 C213 1.328 . S
N218 C217 1.315 . S
H219 C213 0.929 . S
H220 C217 0.930 . S
H221 C209 0.929 . S
H222 C211 0.929 . S
O223 Co198 2.351 . S
O223 C226 1.244 . S
O224 Co198 2.155 . S
O224 C226 1.240 . S
O225 Co198 2.096 . S
O225 C206 1.247 . S
C226 O223 1.244 . S
C226 O224 1.240 . S
H227 C201 0.931 . S
H228 C210 0.931 . S
H229 C214 0.929 . S
H230 C216 0.930 . S
Co231 N235 2.148 . S
Co231 N241 2.128 . S
Co231 N251 2.194 . S
Co231 O256 2.351 . S
Co231 O257 2.155 . S
Co231 O258 2.096 . S
C232 N235 1.301 . S
C232 N236 1.328 . S
C232 H237 0.930 . S
C233 C234 1.333 . S
C233 N235 1.317 . S
C233 H238 0.930 . S
C234 C233 1.333 . S
C234 N236 1.350 . S
C234 H260 0.931 . S
N235 Co231 2.148 . S
N235 C232 1.301 . S
N235 C233 1.317 . S
N236 C232 1.328 . S
N236 C234 1.350 . S
H237 C232 0.930 . S
H238 C233 0.930 . S
C239 O240 1.224 . S
C239 O258 1.247 . S
O240 C239 1.224 . S
N241 Co231 2.128 . S
N241 C242 1.355 . S
N241 C244 1.311 . S
C242 N241 1.355 . S
C242 C243 1.363 . S
C242 H254 0.929 . S
C243 C242 1.363 . S
C243 N245 1.375 . S
C243 H261 0.931 . S
C244 N241 1.311 . S
C244 N245 1.347 . S
C244 H255 0.929 . S
N245 C243 1.375 . S
N245 C244 1.347 . S
C246 C249 1.365 . S
C246 N251 1.328 . S
C246 H252 0.929 . S
C247 C248 1.362 . S
C247 C250 1.378 . S
C247 H262 0.929 . S
C248 C247 1.362 . S
C248 C249 1.366 . S
C249 C246 1.365 . S
C249 C248 1.366 . S
C249 H263 0.930 . S
C250 C247 1.378 . S
C250 N251 1.315 . S
C250 H253 0.930 . S
N251 Co231 2.194 . S
N251 C246 1.328 . S
N251 C250 1.315 . S
H252 C246 0.929 . S
H253 C250 0.930 . S
H254 C242 0.929 . S
H255 C244 0.929 . S
O256 Co231 2.351 . S
O256 C259 1.244 . S
O257 Co231 2.155 . S
O257 C259 1.240 . S
O258 Co231 2.096 . S
O258 C239 1.247 . S
C259 O256 1.244 . S
C259 O257 1.240 . S
H260 C234 0.931 . S
H261 C243 0.931 . S
H262 C247 0.929 . S
H263 C249 0.930 . S
H264 C276 0.930 . S
H265 C278 0.930 1_556 S
H266 C279 0.930 1_556 S
H267 C283 0.959 . S
H268 C283 0.959 1_545 S
H269 C283 0.961 . S
H270 C284 0.960 . S
H271 C284 0.961 . S
H272 C284 0.959 . S
H273 C287 0.929 1_556 S
H274 C288 0.931 1_556 S
H275 C290 0.930 . S
C276 H264 0.930 . S
C276 C277 1.399 . S
C276 C281 1.399 . S
C277 C276 1.399 . S
C277 C278 1.376 . S
C278 H265 0.930 1_554 S
C278 C277 1.376 . S
C278 C279 1.388 . S
C279 H266 0.930 1_554 S
C279 C278 1.388 . S
C279 C280 1.390 . S
C280 C279 1.390 . S
C280 C281 1.394 . S
C280 C286 1.465 1_565 S
C281 C276 1.399 . S
C281 C280 1.394 . S
C281 C282 1.516 1_565 S
C282 C281 1.516 1_545 S
C282 C283 1.502 1_545 S
C282 C284 1.561 . S
C282 C285 1.526 . S
C283 H267 0.959 . S
C283 H268 0.959 1_565 S
C283 H269 0.961 . S
C283 C282 1.502 1_565 S
C284 H270 0.960 . S
C284 H271 0.961 . S
C284 H272 0.959 . S
C284 C282 1.561 . S
C285 C282 1.526 . S
C285 C286 1.396 . S
C285 C290 1.390 . S
C286 C280 1.465 1_545 S
C286 C285 1.396 . S
C286 C287 1.399 . S
C287 H273 0.929 1_554 S
C287 C286 1.399 . S
C287 C288 1.385 . S
C288 H274 0.931 1_554 S
C288 C287 1.385 . S
C288 C289 1.389 . S
C289 C288 1.389 . S
C289 C290 1.387 . S
C290 H275 0.930 . S
C290 C285 1.390 . S
C290 C289 1.387 . S
H291 C303 0.930 . S
H292 C305 0.930 . S
H293 C306 0.930 . S
H294 C310 0.959 . S
H295 C310 0.959 . S
H296 C310 0.961 . S
H297 C311 0.960 . S
H298 C311 0.961 . S
H299 C311 0.959 . S
H300 C314 0.929 . S
H301 C315 0.931 . S
H302 C317 0.930 . S
C303 H291 0.930 . S
C303 C304 1.399 . S
C303 C308 1.399 . S
C304 C303 1.399 . S
C304 C305 1.376 . S
C305 H292 0.930 . S
C305 C304 1.376 . S
C305 C306 1.388 . S
C306 H293 0.930 . S
C306 C305 1.388 . S
C306 C307 1.390 . S
C307 C306 1.390 . S
C307 C308 1.394 . S
C307 C313 1.465 . S
C308 C303 1.399 . S
C308 C307 1.394 . S
C308 C309 1.516 . S
C309 C308 1.516 . S
C309 C310 1.502 . S
C309 C311 1.561 . S
C309 C312 1.526 . S
C310 H294 0.959 . S
C310 H295 0.959 . S
C310 H296 0.961 . S
C310 C309 1.502 . S
C311 H297 0.960 . S
C311 H298 0.961 . S
C311 H299 0.959 . S
C311 C309 1.561 . S
C312 C309 1.526 . S
C312 C313 1.396 . S
C312 C317 1.390 . S
C313 C307 1.465 . S
C313 C312 1.396 . S
C313 C314 1.399 . S
C314 H300 0.929 . S
C314 C313 1.399 . S
C314 C315 1.385 . S
C315 H301 0.931 . S
C315 C314 1.385 . S
C315 C316 1.389 . S
C316 C315 1.389 . S
C316 C317 1.387 . S
C317 H302 0.930 . S
C317 C312 1.390 . S
C317 C316 1.387 . S
H318 C330 0.930 . S
H319 C332 0.930 1_554 S
H320 C333 0.930 1_554 S
H321 C337 0.959 . S
H322 C337 0.959 . S
H323 C337 0.961 1_545 S
H324 C338 0.960 . S
H325 C338 0.961 . S
H326 C338 0.959 . S
H327 C341 0.929 1_554 S
H328 C342 0.931 1_554 S
H329 C344 0.930 . S
C330 H318 0.930 . S
C330 C331 1.399 . S
C330 C335 1.399 . S
C331 C330 1.399 . S
C331 C332 1.376 . S
C332 H319 0.930 1_556 S
C332 C331 1.376 . S
C332 C333 1.388 . S
C333 H320 0.930 1_556 S
C333 C332 1.388 . S
C333 C334 1.390 . S
C334 C333 1.390 . S
C334 C335 1.394 . S
C334 C340 1.465 1_545 S
C335 C330 1.399 . S
C335 C334 1.394 . S
C335 C336 1.516 . S
C336 C335 1.516 . S
C336 C337 1.502 1_545 S
C336 C338 1.561 . S
C336 C339 1.526 1_545 S
C337 H321 0.959 . S
C337 H322 0.959 . S
C337 H323 0.961 1_565 S
C337 C336 1.502 1_565 S
C338 H324 0.960 . S
C338 H325 0.961 . S
C338 H326 0.959 . S
C338 C336 1.561 . S
C339 C336 1.526 1_565 S
C339 C340 1.396 . S
C339 C344 1.390 . S
C340 C334 1.465 1_565 S
C340 C339 1.396 . S
C340 C341 1.399 . S
C341 H327 0.929 1_556 S
C341 C340 1.399 . S
C341 C342 1.385 . S
C342 H328 0.931 1_556 S
C342 C341 1.385 . S
C342 C343 1.389 . S
C343 C342 1.389 . S
C343 C344 1.387 . S
C344 H329 0.930 . S
C344 C339 1.390 . S
C344 C343 1.387 . S
H345 C357 0.930 . S
H346 C359 0.930 . S
H347 C360 0.930 . S
H348 C364 0.959 . S
H349 C364 0.959 . S
H350 C364 0.961 . S
H351 C365 0.960 . S
H352 C365 0.961 . S
H353 C365 0.959 . S
H354 C368 0.929 . S
H355 C369 0.931 . S
H356 C371 0.930 . S
C357 H345 0.930 . S
C357 C358 1.399 . S
C357 C362 1.399 . S
C358 C357 1.399 . S
C358 C359 1.376 . S
C359 H346 0.930 . S
C359 C358 1.376 . S
C359 C360 1.388 . S
C360 H347 0.930 . S
C360 C359 1.388 . S
C360 C361 1.390 . S
C361 C360 1.390 . S
C361 C362 1.394 . S
C361 C367 1.465 . S
C362 C357 1.399 . S
C362 C361 1.394 . S
C362 C363 1.516 . S
C363 C362 1.516 . S
C363 C364 1.502 . S
C363 C365 1.561 . S
C363 C366 1.526 . S
C364 H348 0.959 . S
C364 H349 0.959 . S
C364 H350 0.961 . S
C364 C363 1.502 . S
C365 H351 0.960 . S
C365 H352 0.961 . S
C365 H353 0.959 . S
C365 C363 1.561 . S
C366 C363 1.526 . S
C366 C367 1.396 . S
C366 C371 1.390 . S
C367 C361 1.465 . S
C367 C366 1.396 . S
C367 C368 1.399 . S
C368 H354 0.929 . S
C368 C367 1.399 . S
C368 C369 1.385 . S
C369 H355 0.931 . S
C369 C368 1.385 . S
C369 C370 1.389 . S
C370 C369 1.389 . S
C370 C371 1.387 . S
C371 H356 0.930 . S
C371 C366 1.390 . S
C371 C370 1.387 . S
H372 C384 0.930 . S
H373 C386 0.930 . S
H374 C387 0.930 . S
H375 C391 0.959 1_455 S
H376 C391 0.959 1_455 S
H377 C391 0.961 . S
H378 C392 0.960 . S
H379 C392 0.961 . S
H380 C392 0.959 1_554 S
H381 C395 0.929 . S
H382 C396 0.931 . S
H383 C398 0.930 1_556 S
C384 H372 0.930 . S
C384 C385 1.399 . S
C384 C389 1.399 . S
C385 C384 1.399 . S
C385 C386 1.376 1_556 S
C386 H373 0.930 . S
C386 C385 1.376 1_554 S
C386 C387 1.388 . S
C387 H374 0.930 . S
C387 C386 1.388 . S
C387 C388 1.390 . S
C388 C387 1.390 . S
C388 C389 1.394 1_554 S
C388 C394 1.465 1_655 S
C389 C384 1.399 . S
C389 C388 1.394 1_556 S
C389 C390 1.516 1_565 S
C390 C389 1.516 1_545 S
C390 C391 1.502 . S
C390 C392 1.561 . S
C390 C393 1.526 1_656 S
C391 H375 0.959 1_655 S
C391 H376 0.959 1_655 S
C391 H377 0.961 . S
C391 C390 1.502 . S
C392 H378 0.960 . S
C392 H379 0.961 . S
C392 H380 0.959 1_556 S
C392 C390 1.561 . S
C393 C390 1.526 1_454 S
C393 C394 1.396 1_545 S
C393 C398 1.390 . S
C394 C388 1.465 1_455 S
C394 C393 1.396 1_565 S
C394 C395 1.399 . S
C395 H381 0.929 . S
C395 C394 1.399 . S
C395 C396 1.385 1_565 S
C396 H382 0.931 . S
C396 C395 1.385 1_545 S
C396 C397 1.389 . S
C397 C396 1.389 . S
C397 C398 1.387 . S
C398 H383 0.930 1_554 S
C398 C393 1.390 . S
C398 C397 1.387 . S
H399 C411 0.930 . S
H400 C413 0.930 1_556 S
H401 C414 0.930 . S
H402 C418 0.959 . S
H403 C418 0.959 . S
H404 C418 0.961 . S
H405 C419 0.960 . S
H406 C419 0.961 . S
H407 C419 0.959 . S
H408 C422 0.929 . S
H409 C423 0.931 . S
H410 C425 0.930 1_554 S
C411 H399 0.930 . S
C411 C412 1.399 . S
C411 C416 1.399 . S
C412 C411 1.399 . S
C412 C413 1.376 . S
C413 H400 0.930 1_554 S
C413 C412 1.376 . S
C413 C414 1.388 1_554 S
C414 H401 0.930 . S
C414 C413 1.388 1_556 S
C414 C415 1.390 . S
C415 C414 1.390 . S
C415 C416 1.394 1_556 S
C415 C421 1.465 . S
C416 C411 1.399 . S
C416 C415 1.394 1_554 S
C416 C417 1.516 1_565 S
C417 C416 1.516 1_545 S
C417 C418 1.502 . S
C417 C419 1.561 . S
C417 C420 1.526 . S
C418 H402 0.959 . S
C418 H403 0.959 . S
C418 H404 0.961 . S
C418 C417 1.502 . S
C419 H405 0.960 . S
C419 H406 0.961 . S
C419 H407 0.959 . S
C419 C417 1.561 . S
C420 C417 1.526 . S
C420 C421 1.396 1_544 S
C420 C425 1.390 1_554 S
C421 C415 1.465 . S
C421 C420 1.396 1_566 S
C421 C422 1.399 . S
C422 H408 0.929 . S
C422 C421 1.399 . S
C422 C423 1.385 1_565 S
C423 H409 0.931 . S
C423 C422 1.385 1_545 S
C423 C424 1.389 . S
C424 C423 1.389 . S
C424 C425 1.387 . S
C425 H410 0.930 1_556 S
C425 C420 1.390 1_556 S
C425 C424 1.387 . S
H426 C438 0.930 . S
H427 C440 0.930 . S
H428 C441 0.930 . S
H429 C445 0.959 . S
H430 C445 0.959 . S
H431 C445 0.961 . S
H432 C446 0.960 1_455 S
H433 C446 0.961 . S
H434 C446 0.959 1_455 S
H435 C449 0.900 1_455 S
H436 C450 0.931 . S
H437 C452 0.930 . S
C438 H426 0.930 . S
C438 C439 1.399 . S
C438 C443 1.399 . S
C439 C438 1.399 . S
C439 C440 1.376 . S
C440 H427 0.930 . S
C440 C439 1.376 . S
C440 C441 1.388 . S
C441 H428 0.930 . S
C441 C440 1.388 . S
C441 C442 1.390 . S
C442 C441 1.390 . S
C442 C443 1.394 . S
C442 C448 1.465 1_455 S
C443 C438 1.399 . S
C443 C442 1.394 . S
C443 C444 1.516 1_455 S
C444 C443 1.516 1_655 S
C444 C445 1.502 . S
C444 C446 1.561 . S
C444 C447 1.526 . S
C445 H429 0.959 . S
C445 H430 0.959 . S
C445 H431 0.961 . S
C445 C444 1.502 . S
C446 H432 0.960 1_655 S
C446 H433 0.961 . S
C446 H434 0.959 1_655 S
C446 C444 1.561 . S
C447 C444 1.526 . S
C447 C448 1.396 . S
C447 C452 1.390 . S
C448 C442 1.465 1_655 S
C448 C447 1.396 . S
C448 C449 1.399 . S
C449 H435 0.900 1_655 S
C449 C448 1.399 . S
C449 C450 1.385 . S
C450 H436 0.931 . S
C450 C449 1.385 . S
C450 C451 1.389 . S
C451 C450 1.389 . S
C451 C452 1.387 . S
C452 H437 0.930 . S
C452 C447 1.390 . S
C452 C451 1.387 . S
H453 C465 0.930 . S
H454 C467 0.930 . S
H455 C468 0.930 . S
H456 C472 0.959 . S
H457 C472 0.959 . S
H458 C472 0.961 . S
H459 C473 0.960 . S
H460 C473 0.961 . S
H461 C473 0.959 . S
H462 C476 0.929 . S
H463 C477 0.931 . S
H464 C479 0.930 . S
C465 H453 0.930 . S
C465 C466 1.399 . S
C465 C470 1.399 . S
C466 C465 1.399 . S
C466 C467 1.376 . S
C467 H454 0.930 . S
C467 C466 1.376 . S
C467 C468 1.388 . S
C468 H455 0.930 . S
C468 C467 1.388 . S
C468 C469 1.390 . S
C469 C468 1.390 . S
C469 C470 1.394 . S
C469 C475 1.465 . S
C470 C465 1.399 . S
C470 C469 1.394 . S
C470 C471 1.516 . S
C471 C470 1.516 . S
C471 C472 1.502 . S
C471 C473 1.561 . S
C471 C474 1.526 . S
C472 H456 0.959 . S
C472 H457 0.959 . S
C472 H458 0.961 . S
C472 C471 1.502 . S
C473 H459 0.960 . S
C473 H460 0.961 . S
C473 H461 0.959 . S
C473 C471 1.561 . S
C474 C471 1.526 . S
C474 C475 1.396 . S
C474 C479 1.390 . S
C475 C469 1.465 . S
C475 C474 1.396 . S
C475 C476 1.399 . S
C476 H462 0.929 . S
C476 C475 1.399 . S
C476 C477 1.385 . S
C477 H463 0.931 . S
C477 C476 1.385 . S
C477 C478 1.389 . S
C478 C477 1.389 . S
C478 C479 1.387 . S
C479 H464 0.930 . S
C479 C474 1.390 . S
C479 C478 1.387 . S
H480 C492 0.930 . S
H481 C494 0.930 . S
H482 C495 0.930 . S
H483 C499 0.959 . S
H484 C499 0.959 . S
H485 C499 0.961 . S
H486 C500 0.960 . S
H487 C500 0.961 . S
H488 C500 0.959 . S
H489 C503 0.929 . S
H490 C504 0.931 . S
H491 C506 0.930 . S
C492 H480 0.930 . S
C492 C493 1.399 . S
C492 C497 1.399 . S
C493 C492 1.399 . S
C493 C494 1.376 . S
C494 H481 0.930 . S
C494 C493 1.376 . S
C494 C495 1.388 . S
C495 H482 0.930 . S
C495 C494 1.388 . S
C495 C496 1.390 . S
C496 C495 1.390 . S
C496 C497 1.394 . S
C496 C502 1.465 . S
C497 C492 1.399 . S
C497 C496 1.394 . S
C497 C498 1.516 . S
C498 C497 1.516 . S
C498 C499 1.502 . S
C498 C500 1.561 . S
C498 C501 1.526 . S
C499 H483 0.959 . S
C499 H484 0.959 . S
C499 H485 0.961 . S
C499 C498 1.502 . S
C500 H486 0.960 . S
C500 H487 0.961 . S
C500 H488 0.959 . S
C500 C498 1.561 . S
C501 C498 1.526 . S
C501 C502 1.396 . S
C501 C506 1.390 . S
C502 C496 1.465 . S
C502 C501 1.396 . S
C502 C503 1.399 . S
C503 H489 0.929 . S
C503 C502 1.399 . S
C503 C504 1.385 . S
C504 H490 0.931 . S
C504 C503 1.385 . S
C504 C505 1.389 . S
C505 C504 1.389 . S
C505 C506 1.387 . S
C506 H491 0.930 . S
C506 C501 1.390 . S
C506 C505 1.387 . S
H507 C519 0.930 . S
H508 C521 0.930 . S
H509 C522 0.930 . S
H510 C526 0.959 . S
H511 C526 0.959 . S
H512 C526 0.961 . S
H513 C527 0.960 . S
H514 C527 0.961 . S
H515 C527 0.959 . S
H516 C530 0.929 . S
H517 C531 0.931 . S
H518 C533 0.930 . S
C519 H507 0.930 . S
C519 C520 1.399 . S
C519 C524 1.399 . S
C520 C519 1.399 . S
C520 C521 1.376 . S
C521 H508 0.930 . S
C521 C520 1.376 . S
C521 C522 1.388 . S
C522 H509 0.930 . S
C522 C521 1.388 . S
C522 C523 1.390 . S
C523 C522 1.390 . S
C523 C524 1.394 . S
C523 C529 1.465 . S
C524 C519 1.399 . S
C524 C523 1.394 . S
C524 C525 1.516 . S
C525 C524 1.516 . S
C525 C526 1.502 . S
C525 C527 1.561 . S
C525 C528 1.526 . S
C526 H510 0.959 . S
C526 H511 0.959 . S
C526 H512 0.961 . S
C526 C525 1.502 . S
C527 H513 0.960 . S
C527 H514 0.961 . S
C527 H515 0.959 . S
C527 C525 1.561 . S
C528 C525 1.526 . S
C528 C529 1.396 . S
C528 C533 1.390 . S
C529 C523 1.465 . S
C529 C528 1.396 . S
C529 C530 1.399 . S
C530 H516 0.929 . S
C530 C529 1.399 . S
C530 C531 1.385 . S
C531 H517 0.931 . S
C531 C530 1.385 . S
C531 C532 1.389 . S
C532 C531 1.389 . S
C532 C533 1.387 . S
C533 H518 0.930 . S
C533 C528 1.390 . S
C533 C532 1.387 . S
H534 C546 0.930 . S
H535 C548 0.930 . S
H536 C549 0.930 . S
H537 C553 0.959 . S
H538 C553 0.959 . S
H539 C553 0.961 . S
H540 C554 0.960 . S
H541 C554 0.961 . S
H542 C554 0.959 . S
H543 C557 0.929 . S
H544 C558 0.931 . S
H545 C560 0.930 . S
C546 H534 0.930 . S
C546 C547 1.399 . S
C546 C551 1.399 . S
C547 C546 1.399 . S
C547 C548 1.376 . S
C548 H535 0.930 . S
C548 C547 1.376 . S
C548 C549 1.388 . S
C549 H536 0.930 . S
C549 C548 1.388 . S
C549 C550 1.390 . S
C550 C549 1.390 . S
C550 C551 1.394 . S
C550 C556 1.465 . S
C551 C546 1.399 . S
C551 C550 1.394 . S
C551 C552 1.516 . S
C552 C551 1.516 . S
C552 C553 1.502 . S
C552 C554 1.561 . S
C552 C555 1.526 . S
C553 H537 0.959 . S
C553 H538 0.959 . S
C553 H539 0.961 . S
C553 C552 1.502 . S
C554 H540 0.960 . S
C554 H541 0.961 . S
C554 H542 0.959 . S
C554 C552 1.561 . S
C555 C552 1.526 . S
C555 C556 1.396 . S
C555 C560 1.390 1_556 S
C556 C550 1.465 . S
C556 C555 1.396 . S
C556 C557 1.399 . S
C557 H543 0.929 . S
C557 C556 1.399 . S
C557 C558 1.385 1_556 S
C558 H544 0.931 . S
C558 C557 1.385 1_554 S
C558 C559 1.389 . S
C559 C558 1.389 . S
C559 C560 1.387 . S
C560 H545 0.930 . S
C560 C555 1.390 1_554 S
C560 C559 1.387 . S
H561 C573 0.930 . S
H562 C575 0.930 . S
H563 C576 0.930 . S
H564 C580 0.959 . S
H565 C580 0.959 . S
H566 C580 0.961 . S
H567 C581 0.960 . S
H568 C581 0.961 . S
H569 C581 0.959 . S
H570 C584 0.929 . S
H571 C585 0.931 . S
H572 C587 0.930 . S
C573 H561 0.930 . S
C573 C574 1.399 . S
C573 C578 1.399 1_554 S
C574 C573 1.399 . S
C574 C575 1.376 . S
C575 H562 0.930 . S
C575 C574 1.376 . S
C575 C576 1.388 1_554 S
C576 H563 0.930 . S
C576 C575 1.388 1_556 S
C576 C577 1.390 . S
C577 C576 1.390 . S
C577 C578 1.394 . S
C577 C583 1.465 . S
C578 C573 1.399 1_556 S
C578 C577 1.394 . S
C578 C579 1.516 . S
C579 C578 1.516 . S
C579 C580 1.502 . S
C579 C581 1.561 . S
C579 C582 1.526 . S
C580 H564 0.959 . S
C580 H565 0.959 . S
C580 H566 0.961 . S
C580 C579 1.502 . S
C581 H567 0.960 . S
C581 H568 0.961 . S
C581 H569 0.959 . S
C581 C579 1.561 . S
C582 C579 1.526 . S
C582 C583 1.396 . S
C582 C587 1.390 . S
C583 C577 1.465 . S
C583 C582 1.396 . S
C583 C584 1.399 . S
C584 H570 0.929 . S
C584 C583 1.399 . S
C584 C585 1.385 . S
C585 H571 0.931 . S
C585 C584 1.385 . S
C585 C586 1.389 . S
C586 C585 1.389 . S
C586 C587 1.387 . S
C587 H572 0.930 . S
C587 C582 1.390 . S
C587 C586 1.387 . S
H588 C600 0.930 . S
H589 C602 0.930 . S
H590 C603 0.930 . S
H591 C607 0.959 . S
H592 C607 0.959 . S
H593 C607 0.961 . S
H594 C608 0.960 . S
H595 C608 0.961 . S
H596 C608 0.959 . S
H597 C611 0.929 . S
H598 C612 0.931 . S
H599 C614 0.930 . S
C600 H588 0.930 . S
C600 C601 1.399 . S
C600 C605 1.399 . S
C601 C600 1.399 . S
C601 C602 1.376 . S
C602 H589 0.930 . S
C602 C601 1.376 . S
C602 C603 1.388 . S
C603 H590 0.930 . S
C603 C602 1.388 . S
C603 C604 1.390 . S
C604 C603 1.390 . S
C604 C605 1.394 . S
C604 C610 1.465 . S
C605 C600 1.399 . S
C605 C604 1.394 . S
C605 C606 1.516 . S
C606 C605 1.516 . S
C606 C607 1.502 . S
C606 C608 1.561 . S
C606 C609 1.526 . S
C607 H591 0.959 . S
C607 H592 0.959 . S
C607 H593 0.961 . S
C607 C606 1.502 . S
C608 H594 0.960 . S
C608 H595 0.961 . S
C608 H596 0.959 . S
C608 C606 1.561 . S
C609 C606 1.526 . S
C609 C610 1.396 . S
C609 C614 1.390 . S
C610 C604 1.465 . S
C610 C609 1.396 . S
C610 C611 1.399 . S
C611 H597 0.929 . S
C611 C610 1.399 . S
C611 C612 1.385 . S
C612 H598 0.931 . S
C612 C611 1.385 . S
C612 C613 1.389 . S
C613 C612 1.389 . S
C613 C614 1.387 . S
C614 H599 0.930 . S
C614 C609 1.390 . S
C614 C613 1.387 . S
H615 C627 0.930 . S
H616 C629 0.930 . S
H617 C630 0.930 . S
H618 C634 0.959 . S
H619 C634 0.959 . S
H620 C634 0.961 . S
H621 C635 0.960 . S
H622 C635 0.961 . S
H623 C635 0.959 . S
H624 C638 0.929 . S
H625 C639 0.931 . S
H626 C641 0.930 . S
C627 H615 0.930 . S
C627 C628 1.399 . S
C627 C632 1.399 . S
C628 C627 1.399 . S
C628 C629 1.376 . S
C629 H616 0.930 . S
C629 C628 1.376 . S
C629 C630 1.388 . S
C630 H617 0.930 . S
C630 C629 1.388 . S
C630 C631 1.390 . S
C631 C630 1.390 . S
C631 C632 1.394 . S
C631 C637 1.465 . S
C632 C627 1.399 . S
C632 C631 1.394 . S
C632 C633 1.516 . S
C633 C632 1.516 . S
C633 C634 1.502 . S
C633 C635 1.561 . S
C633 C636 1.526 . S
C634 H618 0.959 . S
C634 H619 0.959 . S
C634 H620 0.961 . S
C634 C633 1.502 . S
C635 H621 0.960 . S
C635 H622 0.961 . S
C635 H623 0.959 . S
C635 C633 1.561 . S
C636 C633 1.526 . S
C636 C637 1.396 . S
C636 C641 1.390 . S
C637 C631 1.465 . S
C637 C636 1.396 . S
C637 C638 1.399 . S
C638 H624 0.929 . S
C638 C637 1.399 . S
C638 C639 1.385 . S
C639 H625 0.931 . S
C639 C638 1.385 . S
C639 C640 1.389 . S
C640 C639 1.389 . S
C640 C641 1.387 . S
C641 H626 0.930 . S
C641 C636 1.390 . S
C641 C640 1.387 . S
H642 C654 0.930 . S
H643 C656 0.930 . S
H644 C657 0.930 . S
H645 C661 0.959 . S
H646 C661 0.959 . S
H647 C661 0.961 . S
H648 C662 0.960 . S
H649 C662 0.961 . S
H650 C662 0.959 . S
H651 C665 0.929 . S
H652 C666 0.931 . S
H653 C668 0.930 . S
C654 H642 0.930 . S
C654 C655 1.399 . S
C654 C659 1.399 . S
C655 C654 1.399 . S
C655 C656 1.376 . S
C656 H643 0.930 . S
C656 C655 1.376 . S
C656 C657 1.388 . S
C657 H644 0.930 . S
C657 C656 1.388 . S
C657 C658 1.390 . S
C658 C657 1.390 . S
C658 C659 1.394 . S
C658 C664 1.465 . S
C659 C654 1.399 . S
C659 C658 1.394 . S
C659 C660 1.516 . S
C660 C659 1.516 . S
C660 C661 1.502 . S
C660 C662 1.561 . S
C660 C663 1.526 . S
C661 H645 0.959 . S
C661 H646 0.959 . S
C661 H647 0.961 . S
C661 C660 1.502 . S
C662 H648 0.960 . S
C662 H649 0.961 . S
C662 H650 0.959 . S
C662 C660 1.561 . S
C663 C660 1.526 . S
C663 C664 1.396 . S
C663 C668 1.390 1_554 S
C664 C658 1.465 . S
C664 C663 1.396 . S
C664 C665 1.399 . S
C665 H651 0.929 . S
C665 C664 1.399 . S
C665 C666 1.385 1_554 S
C666 H652 0.931 . S
C666 C665 1.385 1_556 S
C666 C667 1.389 . S
C667 C666 1.389 . S
C667 C668 1.387 . S
C668 H653 0.930 . S
C668 C663 1.390 1_556 S
C668 C667 1.387 . S
H669 C681 0.930 . S
H670 C683 0.930 . S
H671 C684 0.930 . S
H672 C688 0.959 . S
H673 C688 0.959 . S
H674 C688 0.961 . S
H675 C689 0.960 . S
H676 C689 0.961 . S
H677 C689 0.959 . S
H678 C692 0.929 . S
H679 C693 0.931 . S
H680 C695 0.930 . S
C681 H669 0.930 . S
C681 C682 1.399 . S
C681 C686 1.399 . S
C682 C681 1.399 . S
C682 C683 1.376 . S
C683 H670 0.930 . S
C683 C682 1.376 . S
C683 C684 1.388 . S
C684 H671 0.930 . S
C684 C683 1.388 . S
C684 C685 1.390 . S
C685 C684 1.390 . S
C685 C686 1.394 . S
C685 C691 1.465 . S
C686 C681 1.399 . S
C686 C685 1.394 . S
C686 C687 1.516 . S
C687 C686 1.516 . S
C687 C688 1.502 . S
C687 C689 1.561 . S
C687 C690 1.526 . S
C688 H672 0.959 . S
C688 H673 0.959 . S
C688 H674 0.961 . S
C688 C687 1.502 . S
C689 H675 0.960 . S
C689 H676 0.961 . S
C689 H677 0.959 . S
C689 C687 1.561 . S
C690 C687 1.526 . S
C690 C691 1.396 . S
C690 C695 1.390 1_554 S
C691 C685 1.465 . S
C691 C690 1.396 . S
C691 C692 1.399 . S
C692 H678 0.929 . S
C692 C691 1.399 . S
C692 C693 1.385 1_554 S
C693 H679 0.931 . S
C693 C692 1.385 1_556 S
C693 C694 1.389 . S
C694 C693 1.389 . S
C694 C695 1.387 . S
C695 H680 0.930 . S
C695 C690 1.390 1_556 S
C695 C694 1.387 . S
H696 C708 0.930 . S
H697 C710 0.930 . S
H698 C711 0.930 . S
H699 C715 0.959 . S
H700 C715 0.959 . S
H701 C715 0.961 . S
H702 C716 0.960 . S
H703 C716 0.961 . S
H704 C716 0.959 . S
H705 C719 0.929 . S
H706 C720 0.931 . S
H707 C722 0.930 . S
C708 H696 0.930 . S
C708 C709 1.399 . S
C708 C713 1.399 . S
C709 C708 1.399 . S
C709 C710 1.376 . S
C710 H697 0.930 . S
C710 C709 1.376 . S
C710 C711 1.388 . S
C711 H698 0.930 . S
C711 C710 1.388 . S
C711 C712 1.390 . S
C712 C711 1.390 . S
C712 C713 1.394 . S
C712 C718 1.465 . S
C713 C708 1.399 . S
C713 C712 1.394 . S
C713 C714 1.516 . S
C714 C713 1.516 . S
C714 C715 1.502 . S
C714 C716 1.561 . S
C714 C717 1.526 . S
C715 H699 0.959 . S
C715 H700 0.959 . S
C715 H701 0.961 . S
C715 C714 1.502 . S
C716 H702 0.960 . S
C716 H703 0.961 . S
C716 H704 0.959 . S
C716 C714 1.561 . S
C717 C714 1.526 . S
C717 C718 1.396 . S
C717 C722 1.390 . S
C718 C712 1.465 . S
C718 C717 1.396 . S
C718 C719 1.399 . S
C719 H705 0.929 . S
C719 C718 1.399 . S
C719 C720 1.385 . S
C720 H706 0.931 . S
C720 C719 1.385 . S
C720 C721 1.389 . S
C721 C720 1.389 . S
C721 C722 1.387 . S
C722 H707 0.930 . S
C722 C717 1.390 . S
C722 C721 1.387 . S
H723 C735 0.930 . S
H724 C737 0.930 . S
H725 C738 0.930 . S
H726 C742 0.959 . S
H727 C742 0.959 . S
H728 C742 0.961 . S
H729 C743 0.960 . S
H730 C743 0.961 . S
H731 C743 0.959 . S
H732 C746 0.929 . S
H733 C747 0.931 . S
H734 C749 0.930 . S
C735 H723 0.930 . S
C735 C736 1.399 . S
C735 C740 1.399 . S
C736 C735 1.399 . S
C736 C737 1.376 . S
C737 H724 0.930 . S
C737 C736 1.376 . S
C737 C738 1.388 . S
C738 H725 0.930 . S
C738 C737 1.388 . S
C738 C739 1.390 . S
C739 C738 1.390 . S
C739 C740 1.394 . S
C739 C745 1.465 . S
C740 C735 1.399 . S
C740 C739 1.394 . S
C740 C741 1.516 . S
C741 C740 1.516 . S
C741 C742 1.502 . S
C741 C743 1.561 . S
C741 C744 1.526 . S
C742 H726 0.959 . S
C742 H727 0.959 . S
C742 H728 0.961 . S
C742 C741 1.502 . S
C743 H729 0.960 . S
C743 H730 0.961 . S
C743 H731 0.959 . S
C743 C741 1.561 . S
C744 C741 1.526 . S
C744 C745 1.396 . S
C744 C749 1.390 . S
C745 C739 1.465 . S
C745 C744 1.396 . S
C745 C746 1.399 . S
C746 H732 0.929 . S
C746 C745 1.399 . S
C746 C747 1.385 . S
C747 H733 0.931 . S
C747 C746 1.385 . S
C747 C748 1.389 . S
C748 C747 1.389 . S
C748 C749 1.387 . S
C749 H734 0.930 . S
C749 C744 1.390 . S
C749 C748 1.387 . S
H750 C762 0.930 . S
H751 C764 0.930 . S
H752 C765 0.930 . S
H753 C769 0.959 . S
H754 C769 0.959 . S
H755 C769 0.961 . S
H756 C770 0.960 . S
H757 C770 0.961 . S
H758 C770 0.959 . S
H759 C773 0.929 . S
H760 C774 0.931 . S
H761 C776 0.930 . S
C762 H750 0.930 . S
C762 C763 1.399 . S
C762 C767 1.399 . S
C763 C762 1.399 . S
C763 C764 1.376 . S
C764 H751 0.930 . S
C764 C763 1.376 . S
C764 C765 1.388 . S
C765 H752 0.930 . S
C765 C764 1.388 . S
C765 C766 1.390 . S
C766 C765 1.390 . S
C766 C767 1.394 . S
C766 C772 1.465 . S
C767 C762 1.399 . S
C767 C766 1.394 . S
C767 C768 1.516 . S
C768 C767 1.516 . S
C768 C769 1.502 . S
C768 C770 1.561 . S
C768 C771 1.526 . S
C769 H753 0.959 . S
C769 H754 0.959 . S
C769 H755 0.961 . S
C769 C768 1.502 . S
C770 H756 0.960 . S
C770 H757 0.961 . S
C770 H758 0.959 . S
C770 C768 1.561 . S
C771 C768 1.526 . S
C771 C772 1.396 . S
C771 C776 1.390 . S
C772 C766 1.465 . S
C772 C771 1.396 . S
C772 C773 1.399 . S
C773 H759 0.929 . S
C773 C772 1.399 . S
C773 C774 1.385 . S
C774 H760 0.931 . S
C774 C773 1.385 . S
C774 C775 1.389 . S
C775 C774 1.389 . S
C775 C776 1.387 . S
C776 H761 0.930 . S
C776 C771 1.390 . S
C776 C775 1.387 . S
H777 C789 0.930 . S
H778 C791 0.930 . S
H779 C792 0.930 . S
H780 C796 0.959 . S
H781 C796 0.959 . S
H782 C796 0.961 . S
H783 C797 0.960 . S
H784 C797 0.961 . S
H785 C797 0.959 . S
H786 C800 0.929 . S
H787 C801 0.931 . S
H788 C803 0.930 . S
C789 H777 0.930 . S
C789 C790 1.399 . S
C789 C794 1.399 . S
C790 C789 1.399 . S
C790 C791 1.376 . S
C791 H778 0.930 . S
C791 C790 1.376 . S
C791 C792 1.388 . S
C792 H779 0.930 . S
C792 C791 1.388 . S
C792 C793 1.390 . S
C793 C792 1.390 . S
C793 C794 1.394 . S
C793 C799 1.465 . S
C794 C789 1.399 . S
C794 C793 1.394 . S
C794 C795 1.516 . S
C795 C794 1.516 . S
C795 C796 1.502 . S
C795 C797 1.561 . S
C795 C798 1.526 . S
C796 H780 0.959 . S
C796 H781 0.959 . S
C796 H782 0.961 . S
C796 C795 1.502 . S
C797 H783 0.960 . S
C797 H784 0.961 . S
C797 H785 0.959 . S
C797 C795 1.561 . S
C798 C795 1.526 . S
C798 C799 1.396 . S
C798 C803 1.390 . S
C799 C793 1.465 . S
C799 C798 1.396 . S
C799 C800 1.399 . S
C800 H786 0.929 . S
C800 C799 1.399 . S
C800 C801 1.385 . S
C801 H787 0.931 . S
C801 C800 1.385 . S
C801 C802 1.389 . S
C802 C801 1.389 . S
C802 C803 1.387 . S
C803 H788 0.930 . S
C803 C798 1.390 . S
C803 C802 1.387 . S
C277 C50 1.499 . S
C289 C17 1.499 . S
C304 C83 1.509 . S
C316 C116 1.510 . S
C331 C182 1.497 . S
C343 C149 1.498 . S
C358 C215 1.496 . S
C370 C248 1.499 . S
C385 C160 1.517 . S
C397 C28 1.523 . S
C412 C61 1.517 . S
C424 C193 1.523 . S
C439 C94 1.522 . S
C451 C226 1.518 . S
C466 C127 1.522 . S
C478 C259 1.517 . S
C493 N5 1.334 . S
C505 N14 1.376 . S
C520 N47 1.366 . S
C532 N38 1.333 . S
C547 N71 1.335 . S
C559 N80 1.376 . S
C574 N113 1.335 . S
C586 N104 1.374 . S
C601 N137 1.363 . S
C613 N146 1.335 . S
C628 N179 1.372 . S
C640 N170 1.332 . S
C655 N203 1.339 . S
C667 N212 1.370 . S
C682 N236 1.371 . S
C694 N245 1.327 . S
C709 C8 1.525 . S
C721 C74 1.511 . S
C736 C41 1.517 . S
C748 C107 1.513 . S
C763 C140 1.534 . S
C775 C206 1.518 . S
C790 C173 1.529 . S
C802 C239 1.511 . S
