# Generated by pormake.
# Topology uoq, (4)-cn, num edge types: 1
# Building blocks:
#     Node 0, Type 0, BuildingBlock: AZAVOO_clean_sbu_0, # of connection points: 4
#     Node 1, Type 0, BuildingBlock: AZAVOO_clean_sbu_0, # of connection points: 4
#     Node 2, Type 0, BuildingBlock: AZAVOO_clean_sbu_0, # of connection points: 4
#     Node 3, Type 0, BuildingBlock: AZAVOO_clean_sbu_0, # of connection points: 4
#     Node 4, Type 0, BuildingBlock: AZAVOO_clean_sbu_0, # of connection points: 4
#     Node 5, Type 0, BuildingBlock: AZAVOO_clean_sbu_0, # of connection points: 4
#     Node 6, Type 0, BuildingBlock: AZAVOO_clean_sbu_0, # of connection points: 4
#     Node 7, Type 0, BuildingBlock: AZAVOO_clean_sbu_0, # of connection points: 4
#     Node 8, Type 0, BuildingBlock: AZAVOO_clean_sbu_0, # of connection points: 4
#     Node 9, Type 0, BuildingBlock: AZAVOO_clean_sbu_0, # of connection points: 4
#     Node 10, Type 0, BuildingBlock: AZAVOO_clean_sbu_0, # of connection points: 4
#     Node 11, Type 0, BuildingBlock: AZAVOO_clean_sbu_0, # of connection points: 4
#     Edge 12, Type (0, 0), BuildingBlock: UVAHIK_clean_linker_0, # of connection points: 2
#     Edge 13, Type (0, 0), BuildingBlock: UVAHIK_clean_linker_0, # of connection points: 2
#     Edge 14, Type (0, 0), BuildingBlock: UVAHIK_clean_linker_0, # of connection points: 2
#     Edge 15, Type (0, 0), BuildingBlock: UVAHIK_clean_linker_0, # of connection points: 2
#     Edge 16, Type (0, 0), BuildingBlock: UVAHIK_clean_linker_0, # of connection points: 2
#     Edge 17, Type (0, 0), BuildingBlock: UVAHIK_clean_linker_0, # of connection points: 2
#     Edge 18, Type (0, 0), BuildingBlock: UVAHIK_clean_linker_0, # of connection points: 2
#     Edge 19, Type (0, 0), BuildingBlock: UVAHIK_clean_linker_0, # of connection points: 2
#     Edge 20, Type (0, 0), BuildingBlock: UVAHIK_clean_linker_0, # of connection points: 2
#     Edge 21, Type (0, 0), BuildingBlock: UVAHIK_clean_linker_0, # of connection points: 2
#     Edge 22, Type (0, 0), BuildingBlock: UVAHIK_clean_linker_0, # of connection points: 2
#     Edge 23, Type (0, 0), BuildingBlock: UVAHIK_clean_linker_0, # of connection points: 2
#     Edge 24, Type (0, 0), BuildingBlock: UVAHIK_clean_linker_0, # of connection points: 2
#     Edge 25, Type (0, 0), BuildingBlock: UVAHIK_clean_linker_0, # of connection points: 2
#     Edge 26, Type (0, 0), BuildingBlock: UVAHIK_clean_linker_0, # of connection points: 2
#     Edge 27, Type (0, 0), BuildingBlock: UVAHIK_clean_linker_0, # of connection points: 2
#     Edge 28, Type (0, 0), BuildingBlock: UVAHIK_clean_linker_0, # of connection points: 2
#     Edge 29, Type (0, 0), BuildingBlock: UVAHIK_clean_linker_0, # of connection points: 2
#     Edge 30, Type (0, 0), BuildingBlock: UVAHIK_clean_linker_0, # of connection points: 2
#     Edge 31, Type (0, 0), BuildingBlock: UVAHIK_clean_linker_0, # of connection points: 2
#     Edge 32, Type (0, 0), BuildingBlock: UVAHIK_clean_linker_0, # of connection points: 2
#     Edge 33, Type (0, 0), BuildingBlock: UVAHIK_clean_linker_0, # of connection points: 2
#     Edge 34, Type (0, 0), BuildingBlock: UVAHIK_clean_linker_0, # of connection points: 2
#     Edge 35, Type (0, 0), BuildingBlock: UVAHIK_clean_linker_0, # of connection points: 2
# Relax obj value: 0.091
# Max RMSD: 0.086
# Mean RMSD: 0.086
data_MOF--net-uoq--node1-AZAVOO_clean_sbu_0--edge1-UVAHIK_clean_linker_0
_symmetry_space_group_name_H-M    P1
_symmetry_Int_Tables_number       1
_symmetry_cell_setting            triclinic
loop_
_symmetry_equiv_pos_as_xyz
'x, y, z'
_cell_length_a     76.29111
_cell_length_b     75.870704
_cell_length_c     31.070456
_cell_angle_alpha  90.119693
_cell_angle_beta   89.796477
_cell_angle_gamma 119.9581
loop_
_atom_site_label
_atom_site_type_symbol
_atom_site_fract_x
_atom_site_fract_y
_atom_site_fract_z
_atom_type_partial_charge
Mg0 Mg 0.29574 0.43893 0.22826 0.0
O1 O 0.2776 0.4389 0.28877 0.0
O2 O 0.29883 0.44699 0.34453 0.0
Mg3 Mg 0.32929 0.45184 0.32252 0.0
C4 C 0.28154 0.44227 0.32903 0.0
C5 C 0.25678 0.433 0.18161 0.0
O6 O 0.26081 0.44841 0.20706 0.0
O7 O 0.29183 0.40795 0.24939 0.0
O8 O 0.31296 0.41801 0.30569 0.0
O9 O 0.30843 0.47262 0.2187 0.0
O10 O 0.32242 0.45931 0.25956 0.0
C11 C 0.30032 0.40415 0.28067 0.0
C12 C 0.32232 0.47522 0.24587 0.0
O13 O 0.26755 0.42454 0.18457 0.0
Mg14 Mg 0.84501 0.30193 0.56606 0.0
O15 O 0.82706 0.28404 0.62671 0.0
O16 O 0.84018 0.3057 0.68213 0.0
Mg17 Mg 0.86545 0.33641 0.65944 0.0
C18 C 0.82769 0.2882 0.6669 0.0
C19 C 0.81226 0.26388 0.51726 0.0
O20 O 0.80132 0.26976 0.53916 0.0
O21 O 0.87227 0.29864 0.58757 0.0
O22 O 0.8834 0.32066 0.64253 0.0
O23 O 0.82383 0.31419 0.5557 0.0
O24 O 0.85098 0.32895 0.59658 0.0
C25 C 0.8848 0.30785 0.61817 0.0
C26 C 0.83492 0.32845 0.58256 0.0
O27 O 0.83132 0.27318 0.5233 0.0
Mg28 Mg 0.53397 0.85319 0.90035 0.0
O29 O 0.53374 0.83514 0.9609 0.0
O30 O 0.52572 0.84861 0.0165 0.0
Mg31 Mg 0.52104 0.87436 -0.00601 0.0
C32 C 0.53034 0.83585 0.00112 0.0
C33 C 0.53831 0.81975 0.85104 0.0
O34 O 0.52124 0.80892 0.87208 0.0
O35 O 0.56478 0.88039 0.92107 0.0
O36 O 0.55459 0.8919 0.9766 0.0
O37 O 0.50054 0.8322 0.89123 0.0
O38 O 0.51345 0.86006 0.93046 0.0
C39 C 0.5685 0.89304 0.95181 0.0
C40 C 0.49765 0.8439 0.91706 0.0
O41 O 0.54843 0.83885 0.8578 0.0
Mg42 Mg 0.67388 0.54305 0.24096 0.0
O43 O 0.6927 0.5447 0.30123 0.0
O44 O 0.67181 0.538 0.35741 0.0
Mg45 Mg 0.64101 0.53207 0.33584 0.0
C46 C 0.68902 0.54242 0.34177 0.0
C47 C 0.69582 0.55039 0.15691 0.0
O48 O 0.67633 0.53898 0.14964 0.0
O49 O 0.67735 0.57435 0.25813 0.0
O50 O 0.65628 0.56522 0.31454 0.0
O51 O 0.6618 0.5094 0.23515 0.0
O52 O 0.64716 0.5229 0.27348 0.0
C53 C 0.66862 0.57865 0.28829 0.0
C54 C 0.64751 0.50685 0.26134 0.0
O55 O 0.70148 0.55644 0.19531 0.0
Mg56 Mg 0.11836 0.67716 0.56537 0.0
O57 O 0.13683 0.69423 0.62603 0.0
O58 O 0.12424 0.67192 0.68035 0.0
Mg59 Mg 0.09843 0.64176 0.65709 0.0
C60 C 0.13663 0.68957 0.66573 0.0
C61 C 0.15147 0.71686 0.52037 0.0
O62 O 0.16271 0.71222 0.54445 0.0
O63 O 0.09166 0.681 0.58986 0.0
O64 O 0.08107 0.65828 0.6433 0.0
O65 O 0.13913 0.66451 0.55269 0.0
O66 O 0.11175 0.64932 0.59291 0.0
C67 C 0.07946 0.67148 0.62089 0.0
C68 C 0.12763 0.64962 0.57799 0.0
O69 O 0.1323 0.70627 0.52396 0.0
Mg70 Mg 0.43087 0.12592 0.90231 0.0
O71 O 0.43107 0.14393 0.96333 0.0
O72 O 0.43841 0.12977 0.01844 0.0
Mg73 Mg 0.44233 0.1036 -0.0044 0.0
C74 C 0.43422 0.14288 0.00351 0.0
C75 C 0.42588 0.15998 0.85604 0.0
O76 O 0.44135 0.17119 0.88115 0.0
O77 O 0.39963 0.09916 0.92221 0.0
O78 O 0.40881 0.0871 0.97826 0.0
O79 O 0.46442 0.1464 0.89383 0.0
O80 O 0.45076 0.11839 0.93262 0.0
C81 C 0.39535 0.08653 0.95314 0.0
C82 C 0.46684 0.13441 0.91957 0.0
O83 O 0.41718 0.14069 0.85923 0.0
Mg84 Mg 0.53312 0.6814 0.41244 0.0
O85 O 0.5325 0.69862 0.35106 0.0
O86 O 0.52505 0.67675 0.2963 0.0
Mg87 Mg 0.52103 0.64669 0.31999 0.0
C88 C 0.52926 0.69416 0.31095 0.0
C89 C 0.55421 0.7097 0.49056 0.0
O90 O 0.55609 0.69378 0.49938 0.0
O91 O 0.56426 0.6859 0.39182 0.0
O92 O 0.55466 0.66392 0.33673 0.0
O93 O 0.49964 0.66813 0.42235 0.0
O94 O 0.51318 0.65394 0.38245 0.0
C95 C 0.5683 0.67714 0.36125 0.0
C96 C 0.49721 0.65385 0.39608 0.0
O97 O 0.54661 0.71027 0.45452 0.0
Mg98 Mg 0.84486 0.54156 0.75018 0.0
O99 O 0.82667 0.54134 0.69004 0.0
O100 O 0.83898 0.53187 0.63458 0.0
Mg101 Mg 0.86384 0.52584 0.65673 0.0
C102 C 0.82694 0.53741 0.64995 0.0
C103 C 0.81272 0.54874 0.79707 0.0
O104 O 0.80125 0.53299 0.77264 0.0
O105 O 0.87217 0.57192 0.72641 0.0
O106 O 0.8823 0.55963 0.67226 0.0
O107 O 0.8233 0.50807 0.76206 0.0
O108 O 0.8502 0.52008 0.7202 0.0
C109 C 0.88436 0.57447 0.69543 0.0
C110 C 0.83414 0.50466 0.73492 0.0
O111 O 0.83186 0.55714 0.79325 0.0
Mg112 Mg 0.29118 0.84825 0.07579 0.0
O113 O 0.27224 0.83053 0.01591 0.0
O114 O 0.2928 0.84492 0.95932 0.0
Mg115 Mg 0.3235 0.87035 0.98024 0.0
C116 C 0.27575 0.83188 0.9753 0.0
C117 C 0.26941 0.83427 0.16057 0.0
O118 O 0.28893 0.84307 0.16818 0.0
O119 O 0.28702 0.87561 0.05861 0.0
O120 O 0.3078 0.88772 0.0018 0.0
O121 O 0.3039 0.82723 0.0815 0.0
O122 O 0.31786 0.85522 0.04265 0.0
C123 C 0.29543 0.88859 0.02825 0.0
C124 C 0.31795 0.83907 0.0549 0.0
O125 O 0.26374 0.83385 0.12187 0.0
Mg126 Mg 0.43416 0.30073 0.41355 0.0
O127 O 0.43336 0.28188 0.35359 0.0
O128 O 0.44054 0.30278 0.29724 0.0
Mg129 Mg 0.44573 0.33359 0.31842 0.0
C130 C 0.43611 0.28553 0.3131 0.0
C131 C 0.42596 0.27867 0.49777 0.0
O132 O 0.43677 0.29829 0.50551 0.0
O133 O 0.40305 0.29675 0.39477 0.0
O134 O 0.4125 0.31779 0.33823 0.0
O135 O 0.46765 0.31335 0.4209 0.0
O136 O 0.45429 0.32768 0.38148 0.0
C137 C 0.39894 0.30532 0.36405 0.0
C138 C 0.47025 0.32764 0.39455 0.0
O139 O 0.42067 0.27299 0.45903 0.0
Mg140 Mg 0.12322 0.43869 0.73949 0.0
O141 O 0.14034 0.43666 0.67911 0.0
O142 O 0.12573 0.44257 0.62278 0.0
Mg143 Mg 0.10053 0.44813 0.64426 0.0
C144 C 0.13877 0.43854 0.6385 0.0
C145 C 0.13785 0.43169 0.82409 0.0
O146 O 0.12924 0.44268 0.83167 0.0
O147 O 0.09583 0.40703 0.7239 0.0
O148 O 0.08349 0.41513 0.66669 0.0
O149 O 0.14431 0.47244 0.74372 0.0
O150 O 0.1162 0.45832 0.70589 0.0
C151 C 0.08284 0.40219 0.69371 0.0
C152 C 0.13247 0.47457 0.71721 0.0
O153 O 0.13785 0.42591 0.78554 0.0
Mg154 Mg 0.674 0.13061 0.07885 0.0
O155 O 0.69157 0.14798 0.01732 0.0
O156 O 0.67048 0.13289 0.96211 0.0
Mg157 Mg 0.6407 0.10673 0.98565 0.0
C158 C 0.68754 0.1464 0.977 0.0
C159 C 0.70237 0.13848 0.15711 0.0
O160 O 0.68716 0.12023 0.16556 0.0
O161 O 0.67919 0.10388 0.06155 0.0
O162 O 0.65805 0.09082 0.00559 0.0
O163 O 0.66025 0.1507 0.08497 0.0
O164 O 0.6465 0.12215 0.04792 0.0
C165 C 0.67099 0.09076 0.03139 0.0
C166 C 0.646 0.13817 0.05967 0.0
O167 O 0.70244 0.14678 0.12147 0.0
C168 C 0.29311 0.37586 0.3305 0.0
C169 C 0.29663 0.3834 0.28827 0.0
C170 C 0.29528 0.35919 0.34115 0.0
C171 C 0.30701 0.32019 0.29669 0.0
H172 H 0.34047 0.33425 0.39878 0.0
C173 C 0.37204 0.30419 0.31733 0.0
C174 C 0.37835 0.30225 0.35863 0.0
C175 C 0.35515 0.30648 0.31199 0.0
C176 C 0.33071 0.32964 0.37084 0.0
H177 H 0.3038 0.37874 0.22337 0.0
H178 H 0.30829 0.34995 0.24197 0.0
H179 H 0.32298 0.35261 0.38242 0.0
H180 H 0.37088 0.29935 0.42648 0.0
H181 H 0.34114 0.30338 0.41724 0.0
H182 H 0.31589 0.29794 0.28409 0.0
C183 C 0.30335 0.35651 0.26686 0.0
C184 C 0.32062 0.34024 0.36132 0.0
C185 C 0.30077 0.37302 0.25606 0.0
C186 C 0.36636 0.30082 0.39429 0.0
C187 C 0.34945 0.3033 0.38897 0.0
C188 C 0.31719 0.30958 0.3062 0.0
C189 C 0.30158 0.35003 0.30999 0.0
C190 C 0.30915 0.33613 0.32341 0.0
C191 C 0.34419 0.30703 0.34789 0.0
C192 C 0.32974 0.31468 0.34264 0.0
H193 H 0.28983 0.38363 0.35586 0.0
H194 H 0.29321 0.35428 0.3744 0.0
H195 H 0.29804 0.31635 0.26764 0.0
H196 H 0.38093 0.30518 0.28919 0.0
H197 H 0.35171 0.30943 0.27993 0.0
C198 C 0.91239 0.30169 0.5908 0.0
C199 C 0.90238 0.30494 0.62526 0.0
C200 C 0.93152 0.30368 0.59696 0.0
C201 C 0.96985 0.31113 0.68113 0.0
H202 H 0.00774 0.3496 0.59866 0.0
C203 C 0.05119 0.37306 0.72319 0.0
C204 C 0.06552 0.38138 0.68995 0.0
C205 C 0.03171 0.35684 0.71468 0.0
C206 C -0.00249 0.33846 0.62161 0.0
H207 H 0.90353 0.31079 0.69383 0.0
H208 H 0.93656 0.31425 0.70449 0.0
H209 H 0.97189 0.33259 0.58359 0.0
H210 H 0.07168 0.3782 0.62325 0.0
H211 H 0.0382 0.34929 0.60888 0.0
H212 H -0.00439 0.31784 0.72008 0.0
C213 C 0.9299 0.31021 0.67273 0.0
C214 C 0.97681 0.32864 0.61285 0.0
C215 C 0.91098 0.3084 0.66653 0.0
C216 C 0.06083 0.37198 0.6494 0.0
C217 C 0.04156 0.3556 0.64108 0.0
C218 C -0.00937 0.32095 0.6899 0.0
C219 C 0.94081 0.30873 0.63775 0.0
C220 C 0.96267 0.3154 0.64313 0.0
C221 C 0.02638 0.34861 0.67286 0.0
C222 C 0.0047 0.33526 0.66085 0.0
H223 H 0.90611 0.299 0.55866 0.0
H224 H 0.93943 0.3022 0.56942 0.0
H225 H 0.95937 0.30078 0.70489 0.0
H226 H 0.05439 0.38028 0.75453 0.0
H227 H 0.02044 0.35197 0.73996 0.0
C228 C 0.60205 0.92061 0.92374 0.0
C229 C 0.58909 0.91053 0.95853 0.0
C230 C 0.61928 0.93979 0.92974 0.0
C231 C 0.6509 0.97819 0.01374 0.0
H232 H 0.64943 0.01638 0.93338 0.0
C233 C 0.66963 0.05933 0.05924 0.0
C234 C 0.67509 0.07384 0.02649 0.0
C235 C 0.66672 0.03996 0.0498 0.0
C236 C 0.6506 0.00607 0.95571 0.0
H237 H 0.58503 0.91155 0.02741 0.0
H238 H 0.61478 0.94466 0.03782 0.0
H239 H 0.63066 0.98038 0.9176 0.0
H240 H 0.68385 0.0805 0.9596 0.0
H241 H 0.67989 0.04724 0.94356 0.0
H242 H 0.67012 0.00402 0.05286 0.0
C243 C 0.61185 0.93803 0.00592 0.0
C244 C 0.63975 0.98529 0.94653 0.0
C245 C 0.59464 0.91906 -0.00012 0.0
C246 C 0.67965 0.06951 0.9854 0.0
C247 C 0.67711 0.05035 0.97613 0.0
C248 C 0.66182 -0.00094 0.02292 0.0
C249 C 0.62392 0.94905 0.97069 0.0
C250 C 0.63914 0.97102 0.97613 0.0
C251 C 0.66941 0.03492 0.00749 0.0
C252 C 0.66124 0.01323 -0.00531 0.0
H253 H 0.59814 0.91439 0.89152 0.0
H254 H 0.62843 0.94779 0.902 0.0
H255 H 0.65099 0.96761 0.03695 0.0
H256 H 0.66573 0.06225 0.091 0.0
H257 H 0.6607 0.0285 0.0748 0.0
C258 C 0.66913 0.60602 0.33328 0.0
C259 C 0.67131 0.59929 0.29249 0.0
C260 C 0.66655 0.62289 0.33743 0.0
C261 C 0.64323 0.64633 0.27617 0.0
H262 H 0.65598 0.68048 0.37751 0.0
C263 C 0.59664 0.68407 0.312 0.0
C264 C 0.58906 0.68106 0.35419 0.0
C265 C 0.61333 0.6819 0.30215 0.0
C266 C 0.65229 0.67109 0.34897 0.0
H267 H 0.6743 0.60599 0.2243 0.0
H268 H 0.66977 0.63569 0.23144 0.0
H269 H 0.67456 0.66257 0.36304 0.0
H270 H 0.59368 0.67485 0.41976 0.0
H271 H 0.62252 0.67038 0.40261 0.0
H272 H 0.62025 0.6537 0.26317 0.0
C273 C 0.66988 0.62773 0.26024 0.0
C274 C 0.66299 0.66087 0.34058 0.0
C275 C 0.67265 0.61085 0.25612 0.0
C276 C 0.59943 0.67748 0.38708 0.0
C277 C 0.61596 0.67491 0.3771 0.0
C278 C 0.63253 0.65646 0.28457 0.0
C279 C 0.66595 0.6334 0.30082 0.0
C280 C 0.6581 0.64782 0.30484 0.0
C281 C 0.62248 0.67611 0.33411 0.0
C282 C 0.63645 0.66847 0.3218 0.0
H283 H 0.66819 0.59747 0.36195 0.0
H284 H 0.66344 0.62665 0.36914 0.0
H285 H 0.63878 0.63618 0.24875 0.0
H286 H 0.58887 0.68689 0.28611 0.0
H287 H 0.61827 0.68355 0.26895 0.0
C288 C 0.91265 0.59742 0.647 0.0
C289 C 0.90203 0.59479 0.68572 0.0
C290 C 0.93107 0.61496 0.63938 0.0
C291 C 0.97391 0.65491 0.70051 0.0
H292 H -0.00341 0.66567 0.58538 0.0
C293 C 0.05175 0.66682 0.67033 0.0
C294 C 0.06221 0.67464 0.63139 0.0
C295 C 0.03349 0.66615 0.67843 0.0
C296 C -0.00929 0.66347 0.61786 0.0
H297 H 0.90168 0.6095 0.74528 0.0
H298 H 0.93387 0.64071 0.7315 0.0
H299 H 0.96032 0.64869 0.59488 0.0
H300 H 0.06256 0.68976 0.57207 0.0
H301 H 0.03071 0.68921 0.58675 0.0
H302 H 0.0043 0.67046 0.72351 0.0
C303 C 0.92814 0.62879 0.70747 0.0
C304 C 0.96971 0.65327 0.62337 0.0
C305 C 0.90959 0.61096 0.71531 0.0
C306 C 0.05476 0.68342 0.60219 0.0
C307 C 0.03638 0.68293 0.61053 0.0
C308 C -0.00508 0.66575 0.69502 0.0
C309 C 0.93949 0.63073 0.66996 0.0
C310 C 0.96101 0.64736 0.66468 0.0
C311 C 0.02509 0.67356 0.64814 0.0
C312 C 0.00361 0.66869 0.65365 0.0
H313 H 0.90722 0.58547 0.62302 0.0
H314 H 0.93921 0.61541 0.61044 0.0
H315 H 0.96801 0.6511 0.73296 0.0
H316 H 0.05714 0.6602 0.69403 0.0
H317 H 0.02542 0.65851 0.70745 0.0
C318 C 0.29097 0.91655 0.06036 0.0
C319 C 0.2923 0.90624 0.02402 0.0
C320 C 0.29348 0.93609 0.05608 0.0
C321 C 0.30005 0.97575 0.97516 0.0
H322 H 0.34286 0.01187 0.05218 0.0
C323 C 0.36416 0.05558 0.92745 0.0
C324 C 0.37451 0.06979 0.96011 0.0
C325 C 0.34747 0.03657 0.93764 0.0
C326 C 0.33056 0.00218 0.03088 0.0
H327 H 0.29503 0.90721 0.95449 0.0
H328 H 0.29937 0.94095 0.94703 0.0
H329 H 0.32427 0.97582 0.06723 0.0
H330 H 0.37449 0.07636 0.02789 0.0
H331 H 0.34485 0.04375 0.0454 0.0
H332 H 0.30718 0.00221 0.93763 0.0
C333 C 0.29647 0.93424 0.97883 0.0
C334 C 0.31982 0.98136 0.03965 0.0
C335 C 0.29413 0.9149 0.98314 0.0
C336 C 0.36675 0.06557 0.00219 0.0
C337 C 0.34991 0.0468 0.01224 0.0
C338 C 0.31082 -0.00334 0.96637 0.0
C339 C 0.29716 0.94551 0.01537 0.0
C340 C 0.30493 0.96777 0.01111 0.0
C341 C 0.34078 0.0316 0.98062 0.0
C342 C 0.32669 0.01006 -0.00662 0.0
H343 H 0.28958 0.91023 0.09225 0.0
H344 H 0.29364 0.94426 0.08484 0.0
H345 H 0.28846 0.96572 0.95281 0.0
H346 H 0.37004 0.05843 0.89486 0.0
H347 H 0.34092 0.02526 0.91241 0.0
C348 C 0.15911 0.41729 0.85313 0.0
C349 C 0.148 0.42728 0.85994 0.0
C350 C 0.16932 0.41426 0.88742 0.0
C351 C 0.17157 0.41463 0.00774 0.0
H352 H 0.22631 0.42515 0.99036 0.0
C353 C 0.22832 0.4352 0.14689 0.0
C354 C 0.24164 0.42744 0.14663 0.0
C355 C 0.21544 0.43186 0.11208 0.0
C356 C 0.21092 0.42186 -0.00433 0.0
H357 H 0.13879 0.44172 0.90841 0.0
H358 H 0.15657 0.43674 0.96725 0.0
H359 H 0.20659 0.42534 0.92873 0.0
H360 H 0.25149 0.40964 0.10972 0.0
H361 H 0.229 0.4039 0.04869 0.0
H362 H 0.17612 0.41178 0.07478 0.0
C363 C 0.15724 0.43088 0.93584 0.0
C364 C 0.19958 0.42194 0.96027 0.0
C365 C 0.14712 0.43389 0.90181 0.0
C366 C 0.24138 0.41579 0.11106 0.0
C367 C 0.22861 0.41263 0.07593 0.0
C368 C 0.18292 0.41467 0.04305 0.0
C369 C 0.16855 0.42109 0.92926 0.0
C370 C 0.17989 0.41876 0.96595 0.0
C371 C 0.21562 0.42081 0.07584 0.0
C372 C 0.20288 0.41868 0.03763 0.0
H373 H 0.16012 0.41201 0.8213 0.0
H374 H 0.17776 0.40653 0.88117 0.0
H375 H 0.1563 0.41163 0.01334 0.0
H376 H 0.22812 0.44425 0.17368 0.0
H377 H 0.20581 0.43857 0.11297 0.0
C378 C 0.78155 0.23834 0.47704 0.0
C379 C 0.80265 0.24838 0.48263 0.0
C380 C 0.7724 0.2252 0.44226 0.0
C381 C 0.78308 0.21378 0.33257 0.0
H382 H 0.73015 0.16589 0.34593 0.0
C383 C 0.73044 0.1712 0.18796 0.0
C384 C 0.71747 0.15005 0.19122 0.0
C385 C 0.7427 0.18235 0.22273 0.0
C386 C 0.74504 0.17904 0.34152 0.0
H387 H 0.83061 0.25198 0.45628 0.0
H388 H 0.81456 0.2288 0.39564 0.0
H389 H 0.7478 0.18593 0.40879 0.0
H390 H 0.70815 0.12392 0.23282 0.0
H391 H 0.72975 0.14317 0.29273 0.0
H392 H 0.78032 0.20672 0.26518 0.0
C393 C 0.80513 0.23134 0.41803 0.0
C394 C 0.75508 0.19072 0.37766 0.0
C395 C 0.81432 0.2445 0.45302 0.0
C396 C 0.71779 0.14021 0.22927 0.0
C397 C 0.7301 0.15131 0.26385 0.0
C398 C 0.77302 0.20205 0.29631 0.0
C399 C 0.78404 0.22167 0.41195 0.0
C400 C 0.77412 0.20841 0.37369 0.0
C401 C 0.74236 0.1726 0.26154 0.0
C402 C 0.75375 0.18461 0.30022 0.0
H403 H 0.77205 0.24097 0.49907 0.0
H404 H 0.75618 0.2183 0.43846 0.0
H405 H 0.79764 0.22738 0.32814 0.0
H406 H 0.73055 0.17929 0.1592 0.0
H407 H 0.7518 0.19872 0.21975 0.0
C408 C 0.56023 0.82169 0.78804 0.0
C409 C 0.54416 0.81003 0.81651 0.0
C410 C 0.56429 0.81248 0.75312 0.0
C411 C 0.55388 0.76206 0.71137 0.0
H412 H 0.56553 0.7885 0.59992 0.0
C413 C 0.56752 0.72469 0.56332 0.0
C414 C 0.55803 0.72494 0.52479 0.0
C415 C 0.56877 0.73703 0.59807 0.0
C416 C 0.56222 0.78086 0.63077 0.0
H417 H 0.52012 0.77941 0.831 0.0
H418 H 0.52707 0.7635 0.7705 0.0
H419 H 0.56191 0.80574 0.66295 0.0
H420 H 0.54318 0.7391 0.49206 0.0
H421 H 0.54507 0.76041 0.55289 0.0
H422 H 0.55338 0.73688 0.67925 0.0
C423 C 0.53671 0.77972 0.77516 0.0
C424 C 0.56039 0.79087 0.66707 0.0
C425 C 0.53264 0.7889 0.80987 0.0
C426 C 0.55064 0.73855 0.52121 0.0
C427 C 0.55179 0.75084 0.55614 0.0
C428 C 0.55569 0.75207 0.67519 0.0
C429 C 0.55244 0.79138 0.74599 0.0
C430 C 0.55593 0.78148 0.70779 0.0
C431 C 0.56044 0.74988 0.59544 0.0
C432 C 0.5597 0.76122 0.63425 0.0
H433 H 0.5694 0.83801 0.79213 0.0
H434 H 0.57668 0.82191 0.73164 0.0
H435 H 0.55071 0.75443 0.74222 0.0
H436 H 0.57355 0.71455 0.56713 0.0
H437 H 0.57598 0.7362 0.62736 0.0
C438 C 0.70298 0.54807 0.07919 0.0
C439 C 0.71039 0.55495 0.12088 0.0
C440 C 0.71613 0.55122 0.04497 0.0
C441 C 0.76758 0.56102 0.01952 0.0
H442 H 0.75361 0.57052 0.90533 0.0
C443 C 0.81485 0.56658 0.86714 0.0
C444 C 0.80334 0.55465 0.83215 0.0
C445 C 0.8054 0.56995 0.90254 0.0
C446 C 0.75772 0.56783 0.93697 0.0
H447 H 0.73768 0.57084 0.15902 0.0
H448 H 0.76085 0.57655 0.09877 0.0
H449 H 0.73403 0.57065 0.96727 0.0
H450 H 0.77296 0.53756 0.80637 0.0
H451 H 0.75662 0.5436 0.86751 0.0
H452 H 0.79117 0.55797 0.98881 0.0
C453 C 0.74471 0.56851 0.09283 0.0
C454 C 0.74646 0.56786 0.97256 0.0
C455 C 0.73146 0.56535 0.12732 0.0
C456 C 0.78231 0.54684 0.8327 0.0
C457 C 0.77293 0.55038 0.86775 0.0
C458 C 0.77894 0.5611 0.98382 0.0
C459 C 0.73718 0.56143 0.05117 0.0
C460 C 0.75087 0.56392 0.01423 0.0
C461 C 0.78428 0.5617 0.90346 0.0
C462 C 0.77383 0.56401 0.94197 0.0
H463 H 0.68687 0.53993 0.07287 0.0
H464 H 0.70967 0.54516 0.01371 0.0
H465 H 0.77135 0.55779 0.05099 0.0
H466 H 0.83107 0.57276 0.86786 0.0
H467 H 0.81461 0.57889 0.92935 0.0
C468 C 0.1821 0.74548 0.48538 0.0
C469 C 0.16105 0.73222 0.48554 0.0
C470 C 0.19166 0.75837 0.45038 0.0
C471 C 0.18616 0.76248 0.3341 0.0
H472 H 0.23083 0.81734 0.35009 0.0
C473 C 0.23378 0.81331 0.18999 0.0
C474 C 0.25482 0.82441 0.19663 0.0
C475 C 0.2205 0.8034 0.22453 0.0
C476 C 0.21849 0.802 0.34496 0.0
H477 H 0.13349 0.72252 0.44927 0.0
H478 H 0.15026 0.74501 0.38789 0.0
H479 H 0.2111 0.79786 0.41213 0.0
H480 H 0.27827 0.83388 0.24508 0.0
H481 H 0.25544 0.81659 0.30435 0.0
H482 H 0.19398 0.76636 0.26707 0.0
C483 C 0.15933 0.74536 0.41495 0.0
C484 C 0.20713 0.79085 0.38061 0.0
C485 C 0.14971 0.7326 0.45029 0.0
C486 C 0.26219 0.82556 0.23859 0.0
C487 C 0.24901 0.81573 0.27287 0.0
C488 C 0.19762 0.7736 0.29837 0.0
C489 C 0.18046 0.75823 0.41437 0.0
C490 C 0.19108 0.77081 0.37579 0.0
C491 C 0.22798 0.80444 0.26647 0.0
C492 C 0.21425 0.79336 0.30346 0.0
H493 H 0.19131 0.74558 0.51194 0.0
H494 H 0.20796 0.76793 0.45089 0.0
H495 H 0.17399 0.74702 0.32928 0.0
H496 H 0.22759 0.8121 0.1581 0.0
H497 H 0.20439 0.79497 0.2184 0.0
C498 C 0.40885 0.1584 0.78558 0.0
C499 C 0.42049 0.16975 0.82101 0.0
C500 C 0.40582 0.16812 0.75036 0.0
C501 C 0.40803 0.21608 0.71701 0.0
H502 H 0.41906 0.20307 0.60293 0.0
C503 C 0.42752 0.2714 0.57565 0.0
C504 C 0.42129 0.26399 0.53367 0.0
C505 C 0.42435 0.25817 0.60975 0.0
C506 C 0.41554 0.20667 0.6344 0.0
H507 H 0.43743 0.20014 0.84775 0.0
H508 H 0.43192 0.21697 0.78688 0.0
H509 H 0.4187 0.18302 0.66474 0.0
H510 H 0.40648 0.23662 0.49489 0.0
H511 H 0.40069 0.21332 0.55487 0.0
H512 H 0.405 0.23977 0.68707 0.0
C513 C 0.42515 0.20057 0.78617 0.0
C514 C 0.41538 0.19518 0.66989 0.0
C515 C 0.42838 0.19092 0.82106 0.0
C516 C 0.41147 0.24285 0.52681 0.0
C517 C 0.40827 0.22951 0.56117 0.0
C518 C 0.40805 0.22745 0.6816 0.0
C519 C 0.41411 0.18936 0.75006 0.0
C520 C 0.41208 0.20005 0.71177 0.0
C521 C 0.41476 0.23704 0.60313 0.0
C522 C 0.41232 0.22327 0.6399 0.0
H523 H 0.40261 0.14207 0.7844 0.0
H524 H 0.3971 0.15902 0.72322 0.0
H525 H 0.40506 0.22 0.74869 0.0
H526 H 0.43519 0.28757 0.5823 0.0
H527 H 0.42995 0.26465 0.64124 0.0
C528 C 0.17041 0.43716 0.62125 0.0
C529 C 0.15241 0.43623 0.60777 0.0
C530 C 0.18368 0.43636 0.59097 0.0
C531 C 0.19657 0.44536 0.47495 0.0
H532 H 0.22578 0.41668 0.49662 0.0
C533 C 0.24674 0.4368 0.34536 0.0
C534 C 0.26571 0.44038 0.35963 0.0
C535 C 0.2321 0.43513 0.37505 0.0
C536 C 0.21781 0.42486 0.49021 0.0
H537 H 0.13378 0.43271 0.55206 0.0
H538 H 0.15654 0.43096 0.49996 0.0
H539 H 0.20205 0.41592 0.55051 0.0
H540 H 0.28403 0.44487 0.41651 0.0
H541 H 0.25871 0.44209 0.46759 0.0
H542 H 0.21237 0.45435 0.41476 0.0
C543 C 0.16078 0.43289 0.53361 0.0
C544 C 0.20426 0.42447 0.52115 0.0
C545 C 0.14766 0.4338 0.56365 0.0
C546 C 0.26961 0.44211 0.40416 0.0
C547 C 0.25502 0.44035 0.43364 0.0
C548 C 0.21006 0.44569 0.444 0.0
C549 C 0.17912 0.43452 0.5467 0.0
C550 C 0.19352 0.43477 0.51395 0.0
C551 C 0.2361 0.43686 0.41953 0.0
C552 C 0.22092 0.43555 0.45137 0.0
H553 H 0.17452 0.43905 0.65497 0.0
H554 H 0.19775 0.43777 0.60212 0.0
H555 H 0.18882 0.45377 0.46863 0.0
H556 H 0.24321 0.43536 0.31135 0.0
H557 H 0.21758 0.43232 0.36322 0.0
C558 C 0.81649 0.2761 0.74216 0.0
C559 C 0.81372 0.27242 0.69758 0.0
C560 C 0.80338 0.26167 0.77165 0.0
C561 C 0.75185 0.21872 0.78269 0.0
H562 H 0.7727 0.20778 0.88685 0.0
C563 C 0.69969 0.15634 0.90137 0.0
C564 C 0.70294 0.16039 0.94574 0.0
C565 C 0.71364 0.16948 0.87122 0.0
C566 C 0.76663 0.21084 0.8582 0.0
H567 H 0.79497 0.25048 0.6492 0.0
H568 H 0.7719 0.22517 0.70107 0.0
H569 H 0.79617 0.23112 0.83308 0.0
H570 H 0.72366 0.18143 -0.0069 0.0
H571 H 0.748 0.20471 0.94015 0.0
H572 H 0.72233 0.19876 0.80794 0.0
C573 C 0.78427 0.23937 0.71294 0.0
C574 C 0.78007 0.22415 0.82731 0.0
C575 C 0.79753 0.25381 0.68326 0.0
C576 C 0.72071 0.17785 0.95921 0.0
C577 C 0.73468 0.19113 0.92885 0.0
C578 C 0.73842 0.2055 0.81364 0.0
C579 C 0.78708 0.24318 0.75746 0.0
C580 C 0.77283 0.22828 0.78928 0.0
C581 C 0.73121 0.18716 0.88445 0.0
C582 C 0.74562 0.20139 0.8518 0.0
H583 H 0.82881 0.29022 0.7545 0.0
H584 H 0.8058 0.26519 0.80567 0.0
H585 H 0.7458 0.22186 0.75409 0.0
H586 H 0.68632 0.14292 0.88969 0.0
H587 H 0.71067 0.16569 0.83741 0.0
C588 C 0.53322 0.80482 0.01716 0.0
C589 C 0.53188 0.82168 0.03164 0.0
C590 C 0.53405 0.79133 0.04675 0.0
C591 C 0.54596 0.78724 0.16034 0.0
H592 H 0.51096 0.7293 0.14313 0.0
C593 C 0.53209 0.72792 0.29303 0.0
C594 C 0.5306 0.70952 0.27958 0.0
C595 C 0.53295 0.74197 0.26265 0.0
C596 C 0.52104 0.74542 0.1482 0.0
H597 H 0.53078 0.83774 0.08869 0.0
H598 H 0.5322 0.81435 0.13971 0.0
H599 H 0.51198 0.75307 0.08923 0.0
H600 H 0.52937 0.69177 0.22348 0.0
H601 H 0.53125 0.71624 0.17115 0.0
H602 H 0.55508 0.77962 0.21926 0.0
C603 C 0.53271 0.81157 0.10564 0.0
C604 C 0.52162 0.75903 0.11723 0.0
C605 C 0.53173 0.8249 0.07625 0.0
C606 C 0.53028 0.70566 0.23518 0.0
C607 C 0.53125 0.71968 0.205 0.0
C608 C 0.54546 0.77362 0.19123 0.0
C609 C 0.53377 0.79458 0.09131 0.0
C610 C 0.534 0.78009 0.12306 0.0
C611 C 0.53242 0.73794 0.21824 0.0
C612 C 0.53295 0.75254 0.18561 0.0
H613 H 0.53338 0.8019 0.98306 0.0
H614 H 0.535 0.77842 0.03477 0.0
H615 H 0.55582 0.80339 0.1655 0.0
H616 H 0.53234 0.73136 0.32694 0.0
H617 H 0.53367 0.75582 0.27398 0.0
C618 C 0.72207 0.54397 0.35884 0.0
C619 C 0.70487 0.54472 0.37246 0.0
C620 C 0.73606 0.54474 0.38904 0.0
C621 C 0.73966 0.5354 0.50492 0.0
H622 H 0.7974 0.56394 0.48299 0.0
C623 C 0.79797 0.54347 0.6339 0.0
C624 C 0.81323 0.53962 0.61945 0.0
C625 C 0.78515 0.54535 0.60438 0.0
C626 C 0.78129 0.55581 0.48947 0.0
H627 H 0.68945 0.5479 0.42832 0.0
H628 H 0.71385 0.54964 0.48029 0.0
H629 H 0.77457 0.56494 0.42943 0.0
H630 H 0.82702 0.53494 0.56243 0.0
H631 H 0.80475 0.53813 0.51157 0.0
H632 H 0.74638 0.52625 0.56489 0.0
C633 C 0.71632 0.54785 0.4466 0.0
C634 C 0.76821 0.55633 0.45872 0.0
C635 C 0.70235 0.54695 0.41664 0.0
C636 C 0.81545 0.53788 0.57489 0.0
C637 C 0.80277 0.53987 0.54555 0.0
C638 C 0.75273 0.53496 0.53571 0.0
C639 C 0.73315 0.54639 0.43336 0.0
C640 C 0.74722 0.54607 0.466 0.0
C641 C 0.78745 0.54358 0.55987 0.0
C642 C 0.77368 0.54504 0.52823 0.0
H643 H 0.72444 0.54223 0.32507 0.0
H644 H 0.74882 0.54345 0.37775 0.0
H645 H 0.72355 0.52701 0.51132 0.0
H646 H 0.79586 0.54493 0.66795 0.0
H647 H 0.77353 0.54833 0.61635 0.0
C648 C 0.16594 0.72437 0.68298 0.0
C649 C 0.15073 0.70505 0.69669 0.0
C650 C 0.17898 0.73875 0.71294 0.0
C651 C 0.18332 0.75182 0.82869 0.0
H652 H 0.24092 0.78182 0.80538 0.0
C653 C 0.24299 0.79981 0.9586 0.0
C654 C 0.25987 0.81805 0.94486 0.0
C655 C 0.22897 0.78639 0.92856 0.0
C656 C 0.22485 0.77379 0.81222 0.0
H657 H 0.13733 0.68581 0.75287 0.0
H658 H 0.15998 0.71072 0.8045 0.0
H659 H 0.21797 0.75833 0.75158 0.0
H660 H 0.27467 0.83695 0.889 0.0
H661 H 0.25021 0.81394 0.83733 0.0
H662 H 0.19019 0.76731 0.88933 0.0
C663 C 0.16174 0.71486 0.77077 0.0
C664 C 0.21171 0.76032 0.78131 0.0
C665 C 0.14885 0.70051 0.74097 0.0
C666 C 0.26203 0.82288 0.90075 0.0
C667 C 0.24804 0.80961 0.87096 0.0
C668 C 0.19647 0.76538 0.85956 0.0
C669 C 0.17695 0.73414 0.75718 0.0
C670 C 0.19081 0.74912 0.78925 0.0
C671 C 0.23153 0.79103 0.88428 0.0
C672 C 0.2174 0.77651 0.85172 0.0
H673 H 0.1678 0.72839 0.64918 0.0
H674 H 0.1905 0.75355 0.70155 0.0
H675 H 0.16725 0.74356 0.83555 0.0
H676 H 0.24091 0.79565 -0.00767 0.0
H677 H 0.21647 0.77214 0.9399 0.0
C678 C 0.43165 0.17402 0.02113 0.0
C679 C 0.43284 0.15699 0.03469 0.0
C680 C 0.43094 0.18737 0.05145 0.0
C681 C 0.44313 0.20296 0.16577 0.0
H682 H 0.40893 0.22668 0.14914 0.0
C683 C 0.43261 0.25127 0.29721 0.0
C684 C 0.43405 0.26949 0.28271 0.0
C685 C 0.43133 0.23669 0.26764 0.0
C686 C 0.41863 0.22024 0.15412 0.0
H687 H 0.43355 0.14034 0.0909 0.0
H688 H 0.43197 0.16322 0.14308 0.0
H689 H 0.40919 0.20338 0.09519 0.0
H690 H 0.43483 0.28639 0.22559 0.0
H691 H 0.43268 0.26117 0.17466 0.0
H692 H 0.45256 0.21983 0.22467 0.0
C693 C 0.43211 0.16664 0.10921 0.0
C694 C 0.41885 0.20696 0.12311 0.0
C695 C 0.43291 0.15343 0.07911 0.0
C696 C 0.43382 0.2726 0.23809 0.0
C697 C 0.43242 0.25804 0.20873 0.0
C698 C 0.44284 0.21616 0.19682 0.0
C699 C 0.43133 0.1839 0.09588 0.0
C700 C 0.43113 0.19819 0.12852 0.0
C701 C 0.43128 0.23998 0.22306 0.0
C702 C 0.43068 0.22504 0.19126 0.0
H703 H 0.43157 0.17721 0.98718 0.0
H704 H 0.43049 0.20063 0.04008 0.0
H705 H 0.45304 0.19676 0.17066 0.0
H706 H 0.43272 0.24838 0.3313 0.0
H707 H 0.43032 0.22282 0.27963 0.0
C708 C 0.34806 0.51176 0.23443 0.0
C709 C 0.33691 0.4955 0.26262 0.0
C710 C 0.36356 0.53036 0.25015 0.0
C711 C 0.39641 0.55191 0.34723 0.0
H712 H 0.41415 0.60302 0.28793 0.0
C713 C 0.46077 0.62909 0.41027 0.0
C714 C 0.47696 0.63838 0.38109 0.0
C715 C 0.44208 0.61296 0.39695 0.0
C716 C 0.40925 0.58883 0.30484 0.0
H717 H 0.33192 0.48622 0.32938 0.0
H718 H 0.35799 0.51879 0.35725 0.0
H719 H 0.38379 0.57241 0.26348 0.0
H720 H 0.486 0.63923 0.31462 0.0
H721 H 0.45322 0.61137 0.29111 0.0
H722 H 0.42172 0.56862 0.3891 0.0
C723 C 0.35574 0.51711 0.32278 0.0
C724 C 0.39196 0.57122 0.29067 0.0
C725 C 0.34067 0.49841 0.30691 0.0
C726 C 0.47389 0.63204 0.33793 0.0
C727 C 0.4551 0.61628 0.32438 0.0
C728 C 0.41339 0.56959 0.3619 0.0
C729 C 0.36786 0.53321 0.29458 0.0
C730 C 0.38544 0.5524 0.31126 0.0
C731 C 0.43917 0.60631 0.35396 0.0
C732 C 0.42012 0.58812 0.3405 0.0
H733 H 0.34544 0.50979 0.20006 0.0
H734 H 0.37261 0.54217 0.22716 0.0
H735 H 0.39235 0.53777 0.36346 0.0
H736 H 0.4628 0.63374 0.44372 0.0
H737 H 0.42998 0.60551 0.42028 0.0
C738 C 0.82729 0.4807 0.67427 0.0
C739 C 0.82783 0.48412 0.7187 0.0
C740 C 0.82368 0.46196 0.65839 0.0
C741 C 0.80872 0.40859 0.69114 0.0
H742 H 0.83953 0.41167 0.58903 0.0
C743 C 0.83183 0.3493 0.64121 0.0
C744 C 0.82909 0.34322 0.59789 0.0
C745 C 0.82795 0.36456 0.65509 0.0
C746 C 0.83062 0.41053 0.61722 0.0
H747 H 0.8245 0.47068 0.78161 0.0
H748 H 0.81923 0.43817 0.75427 0.0
H749 H 0.84002 0.44208 0.61518 0.0
H750 H 0.81951 0.3477 0.53535 0.0
H751 H 0.81332 0.37498 0.55941 0.0
H752 H 0.8005 0.37711 0.6942 0.0
C753 C 0.82091 0.44963 0.73132 0.0
C754 C 0.83078 0.42796 0.63224 0.0
C755 C 0.82402 0.46828 0.74715 0.0
C756 C 0.82175 0.35217 0.56892 0.0
C757 C 0.81829 0.36777 0.58261 0.0
C758 C 0.80892 0.39122 0.67653 0.0
C759 C 0.82111 0.44634 0.68664 0.0
C760 C 0.81992 0.42733 0.66957 0.0
C761 C 0.8216 0.37426 0.62573 0.0
C762 C 0.81996 0.39208 0.63956 0.0
H763 H 0.82981 0.4926 0.65171 0.0
H764 H 0.82326 0.45989 0.62386 0.0
H765 H 0.79987 0.40731 0.71948 0.0
H766 H 0.83703 0.34234 0.66439 0.0
H767 H 0.83067 0.36932 0.68847 0.0
C768 C 0.47456 0.85092 0.96235 0.0
C769 C 0.4771 0.83853 0.93219 0.0
C770 C 0.4553 0.84615 0.97638 0.0
C771 C 0.41307 0.8254 0.01681 0.0
H772 H 0.37537 0.82205 0.92936 0.0
C773 C 0.3354 0.8184 0.05735 0.0
C774 C 0.33327 0.8341 0.03859 0.0
C775 C 0.3508 0.81469 0.0437 0.0
C776 C 0.38565 0.82269 0.95409 0.0
H777 H 0.4612 0.81151 0.89255 0.0
H778 H 0.42731 0.80358 0.91618 0.0
H779 H 0.40686 0.82318 0.90791 0.0
H780 H 0.34564 0.85792 0.99027 0.0
H781 H 0.37182 0.85104 0.9658 0.0
H782 H 0.39215 0.8255 0.06294 0.0
C783 C 0.44043 0.81676 0.92948 0.0
C784 C 0.40357 0.82323 0.94185 0.0
C785 C 0.4598 0.82131 0.91602 0.0
C786 C 0.34653 0.84558 0.00519 0.0
C787 C 0.36159 0.84161 0.99101 0.0
C788 C 0.39499 0.82451 0.02908 0.0
C789 C 0.43804 0.82913 0.95992 0.0
C790 C 0.41771 0.82521 0.97306 0.0
C791 C 0.36406 0.82632 0.01045 0.0
C792 C 0.3814 0.82376 -0.00222 0.0
H793 H 0.48739 0.86452 0.97484 0.0
H794 H 0.45387 0.85617 -0.00076 0.0
H795 H 0.42371 0.82684 0.04147 0.0
H796 H 0.32551 0.80933 0.0833 0.0
H797 H 0.35244 0.80284 0.05929 0.0
C798 C 0.61823 0.48422 0.30901 0.0
C799 C 0.6324 0.48639 0.27742 0.0
C800 C 0.60345 0.46498 0.32299 0.0
C801 C 0.5728 0.41344 0.2858 0.0
H802 H 0.55881 0.40111 0.40649 0.0
C803 C 0.50818 0.3446 0.39795 0.0
C804 C 0.49069 0.34308 0.37931 0.0
C805 C 0.52744 0.36 0.38517 0.0
C806 C 0.56271 0.40421 0.37272 0.0
H807 H 0.64208 0.46987 0.23567 0.0
H808 H 0.61569 0.43608 0.25934 0.0
H809 H 0.58968 0.43245 0.38622 0.0
H810 H 0.47995 0.35664 0.3324 0.0
H811 H 0.51329 0.38283 0.30934 0.0
H812 H 0.54528 0.38574 0.27225 0.0
C813 C 0.61637 0.44943 0.27366 0.0
C814 C 0.58027 0.42216 0.36114 0.0
C815 C 0.63145 0.46876 0.26021 0.0
C816 C 0.49294 0.35703 0.34705 0.0
C817 C 0.51211 0.3721 0.33373 0.0
C818 C 0.55507 0.39566 0.29737 0.0
C819 C 0.6022 0.44739 0.30514 0.0
C820 C 0.58526 0.42713 0.31755 0.0
C821 C 0.52954 0.3739 0.35294 0.0
C822 C 0.54966 0.39109 0.3409 0.0
H823 H 0.6182 0.49732 0.32255 0.0
H824 H 0.5925 0.46385 0.34676 0.0
H825 H 0.57622 0.41698 0.25198 0.0
H826 H 0.507 0.33418 0.42306 0.0
H827 H 0.54068 0.36112 0.40056 0.0
C828 C 0.12012 0.61842 0.6196 0.0
C829 C 0.13297 0.63416 0.59154 0.0
C830 C 0.125 0.6039 0.63315 0.0
C831 C 0.14912 0.57597 0.60071 0.0
H832 H 0.14619 0.56258 0.72202 0.0
C833 C 0.1531 0.51274 0.71874 0.0
C834 C 0.13762 0.49483 0.69997 0.0
C835 C 0.157 0.53186 0.70431 0.0
C836 C 0.14738 0.56632 0.68811 0.0
H837 H 0.16081 0.64652 0.55456 0.0
H838 H 0.16895 0.62041 0.5772 0.0
H839 H 0.14476 0.59277 0.69985 0.0
H840 H 0.11451 0.4832 0.65053 0.0
H841 H 0.12166 0.51629 0.62483 0.0
H842 H 0.15051 0.54882 0.58885 0.0
C843 C 0.15534 0.61982 0.58939 0.0
C844 C 0.14647 0.58351 0.67545 0.0
C845 C 0.15066 0.6347 0.57648 0.0
C846 C 0.12661 0.49651 0.66563 0.0
C847 C 0.13076 0.51555 0.65069 0.0
C848 C 0.14968 0.55856 0.61334 0.0
C849 C 0.14261 0.60441 0.61819 0.0
C850 C 0.14686 0.58822 0.63162 0.0
C851 C 0.14577 0.53341 0.67025 0.0
C852 C 0.14837 0.55335 0.65712 0.0
H853 H 0.10609 0.61705 0.63088 0.0
H854 H 0.1147 0.59191 0.65462 0.0
H855 H 0.14933 0.57923 0.56672 0.0
H856 H 0.16184 0.512 0.74536 0.0
H857 H 0.16864 0.54542 0.72 0.0
C858 C 0.61617 0.1297 0.01256 0.0
C859 C 0.63017 0.1424 0.04363 0.0
C860 C 0.60095 0.13329 -0.00195 0.0
C861 C 0.57745 0.15211 0.95766 0.0
H862 H 0.54027 0.15116 0.04434 0.0
C863 C 0.5048 0.15596 0.91797 0.0
C864 C 0.48719 0.13929 0.93486 0.0
C865 C 0.52398 0.16001 0.93147 0.0
C866 C 0.55068 0.1517 0.01985 0.0
H867 H 0.6389 0.16881 0.0842 0.0
H868 H 0.61166 0.17463 0.05976 0.0
H869 H 0.57149 0.15203 0.06652 0.0
H870 H 0.47617 0.11377 0.97898 0.0
H871 H 0.50935 0.1213 0.0035 0.0
H872 H 0.55639 0.15131 0.91101 0.0
C873 C 0.61289 0.16213 0.04614 0.0
C874 C 0.56854 0.15231 0.03251 0.0
C875 C 0.62846 0.15879 0.06004 0.0
C876 C 0.48923 0.12696 0.96585 0.0
C877 C 0.50831 0.13125 0.97995 0.0
C878 C 0.55976 0.15189 0.945 0.0
C879 C 0.59903 0.14941 0.01493 0.0
C880 C 0.58181 0.15195 0.00153 0.0
C881 C 0.52586 0.14771 0.96272 0.0
C882 C 0.54595 0.15111 0.976 0.0
H883 H 0.61667 0.11673 -0.00028 0.0
H884 H 0.59024 0.12304 0.97452 0.0
H885 H 0.58748 0.15188 0.93319 0.0
H886 H 0.50379 0.1657 0.89385 0.0
H887 H 0.53733 0.17276 0.91758 0.0
loop_
_geom_bond_atom_site_label_1
_geom_bond_atom_site_label_2
_geom_bond_distance
_geom_bond_site_symmetry_2
_ccdc_geom_bond_type
Mg0 O1 2.028 . S
Mg0 O7 1.986 . S
Mg0 O9 2.114 . S
Mg0 O10 2.251 . S
Mg0 O13 2.010 . S
O1 Mg0 2.028 . S
O1 C4 1.250 . S
O2 Mg3 2.028 . S
O2 C4 1.248 . S
Mg3 O2 2.028 . S
Mg3 O8 2.032 . S
Mg3 O10 2.079 . S
C4 O1 1.250 . S
C4 O2 1.248 . S
C5 O6 1.264 . S
C5 O13 1.249 . S
O6 C5 1.264 . S
O7 Mg0 1.986 . S
O7 C11 1.246 . S
O8 Mg3 2.032 . S
O8 C11 1.259 . S
O9 Mg0 2.114 . S
O9 C12 1.252 . S
O10 Mg0 2.251 . S
O10 Mg3 2.079 . S
O10 C12 1.273 . S
C11 O7 1.246 . S
C11 O8 1.259 . S
C12 O9 1.252 . S
C12 O10 1.273 . S
O13 Mg0 2.010 . S
O13 C5 1.249 . S
Mg14 O15 2.028 . S
Mg14 O21 1.986 . S
Mg14 O23 2.114 . S
Mg14 O24 2.251 . S
Mg14 O27 2.010 . S
O15 Mg14 2.028 . S
O15 C18 1.250 . S
O16 Mg17 2.028 . S
O16 C18 1.248 . S
Mg17 O16 2.028 . S
Mg17 O22 2.032 . S
Mg17 O24 2.079 . S
C18 O15 1.250 . S
C18 O16 1.248 . S
C19 O20 1.264 . S
C19 O27 1.249 . S
O20 C19 1.264 . S
O21 Mg14 1.986 . S
O21 C25 1.246 . S
O22 Mg17 2.032 . S
O22 C25 1.259 . S
O23 Mg14 2.114 . S
O23 C26 1.252 . S
O24 Mg14 2.251 . S
O24 Mg17 2.079 . S
O24 C26 1.273 . S
C25 O21 1.246 . S
C25 O22 1.259 . S
C26 O23 1.252 . S
C26 O24 1.273 . S
O27 Mg14 2.010 . S
O27 C19 1.249 . S
Mg28 O29 2.028 . S
Mg28 O35 1.986 . S
Mg28 O37 2.114 . S
Mg28 O38 2.251 . S
Mg28 O41 2.010 . S
O29 Mg28 2.028 . S
O29 C32 1.250 1_556 S
O30 Mg31 2.028 . S
O30 C32 1.248 . S
Mg31 O30 2.028 . S
Mg31 O36 2.032 . S
Mg31 O38 2.079 1_554 S
C32 O29 1.250 1_554 S
C32 O30 1.248 . S
C33 O34 1.264 . S
C33 O41 1.249 . S
O34 C33 1.264 . S
O35 Mg28 1.986 . S
O35 C39 1.246 . S
O36 Mg31 2.032 . S
O36 C39 1.259 1_554 S
O37 Mg28 2.114 . S
O37 C40 1.252 . S
O38 Mg28 2.251 . S
O38 Mg31 2.079 1_556 S
O38 C40 1.273 . S
C39 O35 1.246 . S
C39 O36 1.259 1_556 S
C40 O37 1.252 . S
C40 O38 1.273 . S
O41 Mg28 2.010 . S
O41 C33 1.249 . S
Mg42 O43 2.028 . S
Mg42 O49 1.986 . S
Mg42 O51 2.114 . S
Mg42 O52 2.251 . S
Mg42 O55 2.010 . S
O43 Mg42 2.028 . S
O43 C46 1.250 . S
O44 Mg45 2.028 . S
O44 C46 1.248 . S
Mg45 O44 2.028 . S
Mg45 O50 2.032 . S
Mg45 O52 2.079 . S
C46 O43 1.250 . S
C46 O44 1.248 . S
C47 O48 1.264 . S
C47 O55 1.249 . S
O48 C47 1.264 . S
O49 Mg42 1.986 . S
O49 C53 1.246 . S
O50 Mg45 2.032 . S
O50 C53 1.259 . S
O51 Mg42 2.114 . S
O51 C54 1.252 . S
O52 Mg42 2.251 . S
O52 Mg45 2.079 . S
O52 C54 1.273 . S
C53 O49 1.246 . S
C53 O50 1.259 . S
C54 O51 1.252 . S
C54 O52 1.273 . S
O55 Mg42 2.010 . S
O55 C47 1.249 . S
Mg56 O57 2.028 . S
Mg56 O63 1.986 . S
Mg56 O65 2.114 . S
Mg56 O66 2.251 . S
Mg56 O69 2.010 . S
O57 Mg56 2.028 . S
O57 C60 1.250 . S
O58 Mg59 2.028 . S
O58 C60 1.248 . S
Mg59 O58 2.028 . S
Mg59 O64 2.032 . S
Mg59 O66 2.079 . S
C60 O57 1.250 . S
C60 O58 1.248 . S
C61 O62 1.264 . S
C61 O69 1.249 . S
O62 C61 1.264 . S
O63 Mg56 1.986 . S
O63 C67 1.246 . S
O64 Mg59 2.032 . S
O64 C67 1.259 . S
O65 Mg56 2.114 . S
O65 C68 1.252 . S
O66 Mg56 2.251 . S
O66 Mg59 2.079 . S
O66 C68 1.273 . S
C67 O63 1.246 . S
C67 O64 1.259 . S
C68 O65 1.252 . S
C68 O66 1.273 . S
O69 Mg56 2.010 . S
O69 C61 1.249 . S
Mg70 O71 2.028 . S
Mg70 O77 1.986 . S
Mg70 O79 2.114 . S
Mg70 O80 2.251 . S
Mg70 O83 2.010 . S
O71 Mg70 2.028 . S
O71 C74 1.250 1_556 S
O72 Mg73 2.028 . S
O72 C74 1.248 . S
Mg73 O72 2.028 . S
Mg73 O78 2.032 . S
Mg73 O80 2.079 1_554 S
C74 O71 1.250 1_554 S
C74 O72 1.248 . S
C75 O76 1.264 . S
C75 O83 1.249 . S
O76 C75 1.264 . S
O77 Mg70 1.986 . S
O77 C81 1.246 . S
O78 Mg73 2.032 . S
O78 C81 1.259 1_554 S
O79 Mg70 2.114 . S
O79 C82 1.252 . S
O80 Mg70 2.251 . S
O80 Mg73 2.079 1_556 S
O80 C82 1.273 . S
C81 O77 1.246 . S
C81 O78 1.259 1_556 S
C82 O79 1.252 . S
C82 O80 1.273 . S
O83 Mg70 2.010 . S
O83 C75 1.249 . S
Mg84 O85 2.028 . S
Mg84 O91 1.986 . S
Mg84 O93 2.114 . S
Mg84 O94 2.251 . S
Mg84 O97 2.010 . S
O85 Mg84 2.028 . S
O85 C88 1.250 . S
O86 Mg87 2.028 . S
O86 C88 1.248 . S
Mg87 O86 2.028 . S
Mg87 O92 2.032 . S
Mg87 O94 2.079 . S
C88 O85 1.250 . S
C88 O86 1.248 . S
C89 O90 1.264 . S
C89 O97 1.249 . S
O90 C89 1.264 . S
O91 Mg84 1.986 . S
O91 C95 1.246 . S
O92 Mg87 2.032 . S
O92 C95 1.259 . S
O93 Mg84 2.114 . S
O93 C96 1.252 . S
O94 Mg84 2.251 . S
O94 Mg87 2.079 . S
O94 C96 1.273 . S
C95 O91 1.246 . S
C95 O92 1.259 . S
C96 O93 1.252 . S
C96 O94 1.273 . S
O97 Mg84 2.010 . S
O97 C89 1.249 . S
Mg98 O99 2.028 . S
Mg98 O105 1.986 . S
Mg98 O107 2.114 . S
Mg98 O108 2.251 . S
Mg98 O111 2.010 . S
O99 Mg98 2.028 . S
O99 C102 1.250 . S
O100 Mg101 2.028 . S
O100 C102 1.248 . S
Mg101 O100 2.028 . S
Mg101 O106 2.032 . S
Mg101 O108 2.079 . S
C102 O99 1.250 . S
C102 O100 1.248 . S
C103 O104 1.264 . S
C103 O111 1.249 . S
O104 C103 1.264 . S
O105 Mg98 1.986 . S
O105 C109 1.246 . S
O106 Mg101 2.032 . S
O106 C109 1.259 . S
O107 Mg98 2.114 . S
O107 C110 1.252 . S
O108 Mg98 2.251 . S
O108 Mg101 2.079 . S
O108 C110 1.273 . S
C109 O105 1.246 . S
C109 O106 1.259 . S
C110 O107 1.252 . S
C110 O108 1.273 . S
O111 Mg98 2.010 . S
O111 C103 1.249 . S
Mg112 O113 2.028 . S
Mg112 O119 1.986 . S
Mg112 O121 2.114 . S
Mg112 O122 2.251 . S
Mg112 O125 2.010 . S
O113 Mg112 2.028 . S
O113 C116 1.250 1_554 S
O114 Mg115 2.028 . S
O114 C116 1.248 . S
Mg115 O114 2.028 . S
Mg115 O120 2.032 . S
Mg115 O122 2.079 1_556 S
C116 O113 1.250 1_556 S
C116 O114 1.248 . S
C117 O118 1.264 . S
C117 O125 1.249 . S
O118 C117 1.264 . S
O119 Mg112 1.986 . S
O119 C123 1.246 . S
O120 Mg115 2.032 . S
O120 C123 1.259 1_556 S
O121 Mg112 2.114 . S
O121 C124 1.252 . S
O122 Mg112 2.251 . S
O122 Mg115 2.079 1_554 S
O122 C124 1.273 . S
C123 O119 1.246 . S
C123 O120 1.259 1_554 S
C124 O121 1.252 . S
C124 O122 1.273 . S
O125 Mg112 2.010 . S
O125 C117 1.249 . S
Mg126 O127 2.028 . S
Mg126 O133 1.986 . S
Mg126 O135 2.114 . S
Mg126 O136 2.251 . S
Mg126 O139 2.010 . S
O127 Mg126 2.028 . S
O127 C130 1.250 . S
O128 Mg129 2.028 . S
O128 C130 1.248 . S
Mg129 O128 2.028 . S
Mg129 O134 2.032 . S
Mg129 O136 2.079 . S
C130 O127 1.250 . S
C130 O128 1.248 . S
C131 O132 1.264 . S
C131 O139 1.249 . S
O132 C131 1.264 . S
O133 Mg126 1.986 . S
O133 C137 1.246 . S
O134 Mg129 2.032 . S
O134 C137 1.259 . S
O135 Mg126 2.114 . S
O135 C138 1.252 . S
O136 Mg126 2.251 . S
O136 Mg129 2.079 . S
O136 C138 1.273 . S
C137 O133 1.246 . S
C137 O134 1.259 . S
C138 O135 1.252 . S
C138 O136 1.273 . S
O139 Mg126 2.010 . S
O139 C131 1.249 . S
Mg140 O141 2.028 . S
Mg140 O147 1.986 . S
Mg140 O149 2.114 . S
Mg140 O150 2.251 . S
Mg140 O153 2.010 . S
O141 Mg140 2.028 . S
O141 C144 1.250 . S
O142 Mg143 2.028 . S
O142 C144 1.248 . S
Mg143 O142 2.028 . S
Mg143 O148 2.032 . S
Mg143 O150 2.079 . S
C144 O141 1.250 . S
C144 O142 1.248 . S
C145 O146 1.264 . S
C145 O153 1.249 . S
O146 C145 1.264 . S
O147 Mg140 1.986 . S
O147 C151 1.246 . S
O148 Mg143 2.032 . S
O148 C151 1.259 . S
O149 Mg140 2.114 . S
O149 C152 1.252 . S
O150 Mg140 2.251 . S
O150 Mg143 2.079 . S
O150 C152 1.273 . S
C151 O147 1.246 . S
C151 O148 1.259 . S
C152 O149 1.252 . S
C152 O150 1.273 . S
O153 Mg140 2.010 . S
O153 C145 1.249 . S
Mg154 O155 2.028 . S
Mg154 O161 1.986 . S
Mg154 O163 2.114 . S
Mg154 O164 2.251 . S
Mg154 O167 2.010 . S
O155 Mg154 2.028 . S
O155 C158 1.250 1_554 S
O156 Mg157 2.028 . S
O156 C158 1.248 . S
Mg157 O156 2.028 . S
Mg157 O162 2.032 . S
Mg157 O164 2.079 1_556 S
C158 O155 1.250 1_556 S
C158 O156 1.248 . S
C159 O160 1.264 . S
C159 O167 1.249 . S
O160 C159 1.264 . S
O161 Mg154 1.986 . S
O161 C165 1.246 . S
O162 Mg157 2.032 . S
O162 C165 1.259 1_556 S
O163 Mg154 2.114 . S
O163 C166 1.252 . S
O164 Mg154 2.251 . S
O164 Mg157 2.079 1_554 S
O164 C166 1.273 . S
C165 O161 1.246 . S
C165 O162 1.259 1_554 S
C166 O163 1.252 . S
C166 O164 1.273 . S
O167 Mg154 2.010 . S
O167 C159 1.249 . S
C168 C169 1.349 . S
C168 C170 1.327 . S
C168 H193 0.950 . S
C169 C168 1.349 . S
C169 C185 1.349 . S
C170 C168 1.327 . S
C170 C189 1.429 . S
C170 H194 0.950 . S
C171 C188 1.574 . S
C171 C190 1.368 . S
C171 H195 0.949 . S
H172 C176 0.949 . S
C173 C174 1.349 . S
C173 C175 1.327 . S
C173 H196 0.950 . S
C174 C173 1.349 . S
C174 C186 1.349 . S
C175 C173 1.327 . S
C175 C191 1.429 . S
C175 H197 0.950 . S
C176 H172 0.949 . S
C176 C184 1.574 . S
C176 C192 1.368 . S
H177 C185 0.950 . S
H178 C183 0.950 . S
H179 C184 0.949 . S
H180 C186 0.950 . S
H181 C187 0.950 . S
H182 C188 0.949 . S
C183 H178 0.950 . S
C183 C185 1.327 . S
C183 C189 1.429 . S
C184 C176 1.574 . S
C184 H179 0.949 . S
C184 C190 1.368 . S
C185 C169 1.349 . S
C185 H177 0.950 . S
C185 C183 1.327 . S
C186 C174 1.349 . S
C186 H180 0.950 . S
C186 C187 1.327 . S
C187 H181 0.950 . S
C187 C186 1.327 . S
C187 C191 1.429 . S
C188 C171 1.574 . S
C188 H182 0.949 . S
C188 C192 1.368 . S
C189 C170 1.429 . S
C189 C183 1.429 . S
C189 C190 1.523 . S
C190 C171 1.368 . S
C190 C184 1.368 . S
C190 C189 1.523 . S
C191 C175 1.429 . S
C191 C187 1.429 . S
C191 C192 1.523 . S
C192 C176 1.368 . S
C192 C188 1.368 . S
C192 C191 1.523 . S
H193 C168 0.950 . S
H194 C170 0.950 . S
H195 C171 0.949 . S
H196 C173 0.950 . S
H197 C175 0.950 . S
C198 C199 1.349 . S
C198 C200 1.327 . S
C198 H223 0.950 . S
C199 C198 1.349 . S
C199 C215 1.349 . S
C200 C198 1.327 . S
C200 C219 1.429 . S
C200 H224 0.950 . S
C201 C218 1.574 1_655 S
C201 C220 1.368 . S
C201 H225 0.949 . S
H202 C206 0.949 . S
C203 C204 1.349 . S
C203 C205 1.327 . S
C203 H226 0.950 . S
C204 C203 1.349 . S
C204 C216 1.349 . S
C205 C203 1.327 . S
C205 C221 1.429 . S
C205 H227 0.950 . S
C206 H202 0.949 . S
C206 C214 1.574 1_455 S
C206 C222 1.368 . S
H207 C215 0.950 . S
H208 C213 0.950 . S
H209 C214 0.949 . S
H210 C216 0.950 . S
H211 C217 0.950 . S
H212 C218 0.949 . S
C213 H208 0.950 . S
C213 C215 1.327 . S
C213 C219 1.429 . S
C214 C206 1.574 1_655 S
C214 H209 0.949 . S
C214 C220 1.368 . S
C215 C199 1.349 . S
C215 H207 0.950 . S
C215 C213 1.327 . S
C216 C204 1.349 . S
C216 H210 0.950 . S
C216 C217 1.327 . S
C217 H211 0.950 . S
C217 C216 1.327 . S
C217 C221 1.429 . S
C218 C201 1.574 1_455 S
C218 H212 0.949 . S
C218 C222 1.368 . S
C219 C200 1.429 . S
C219 C213 1.429 . S
C219 C220 1.523 . S
C220 C201 1.368 . S
C220 C214 1.368 . S
C220 C219 1.523 . S
C221 C205 1.429 . S
C221 C217 1.429 . S
C221 C222 1.523 . S
C222 C206 1.368 . S
C222 C218 1.368 . S
C222 C221 1.523 . S
H223 C198 0.950 . S
H224 C200 0.950 . S
H225 C201 0.949 . S
H226 C203 0.950 . S
H227 C205 0.950 . S
C228 C229 1.349 . S
C228 C230 1.327 . S
C228 H253 0.950 . S
C229 C228 1.349 . S
C229 C245 1.349 1_556 S
C230 C228 1.327 . S
C230 C249 1.429 . S
C230 H254 0.950 . S
C231 C248 1.574 1_565 S
C231 C250 1.368 1_554 S
C231 H255 0.949 . S
H232 C236 0.949 . S
C233 C234 1.349 . S
C233 C235 1.327 . S
C233 H256 0.950 . S
C234 C233 1.349 . S
C234 C246 1.349 1_554 S
C235 C233 1.327 . S
C235 C251 1.429 . S
C235 H257 0.950 . S
C236 H232 0.949 . S
C236 C244 1.574 1_545 S
C236 C252 1.368 1_556 S
H237 C245 0.950 . S
H238 C243 0.950 . S
H239 C244 0.949 . S
H240 C246 0.950 . S
H241 C247 0.950 . S
H242 C248 0.949 . S
C243 H238 0.950 . S
C243 C245 1.327 . S
C243 C249 1.429 1_554 S
C244 C236 1.574 1_565 S
C244 H239 0.949 . S
C244 C250 1.368 . S
C245 C229 1.349 1_554 S
C245 H237 0.950 . S
C245 C243 1.327 . S
C246 C234 1.349 1_556 S
C246 H240 0.950 . S
C246 C247 1.327 . S
C247 H241 0.950 . S
C247 C246 1.327 . S
C247 C251 1.429 1_556 S
C248 C231 1.574 1_545 S
C248 H242 0.949 . S
C248 C252 1.368 . S
C249 C230 1.429 . S
C249 C243 1.429 1_556 S
C249 C250 1.523 . S
C250 C231 1.368 1_556 S
C250 C244 1.368 . S
C250 C249 1.523 . S
C251 C235 1.429 . S
C251 C247 1.429 1_554 S
C251 C252 1.523 . S
C252 C236 1.368 1_554 S
C252 C248 1.368 . S
C252 C251 1.523 . S
H253 C228 0.950 . S
H254 C230 0.950 . S
H255 C231 0.949 . S
H256 C233 0.950 . S
H257 C235 0.950 . S
C258 C259 1.349 . S
C258 C260 1.327 . S
C258 H283 0.950 . S
C259 C258 1.349 . S
C259 C275 1.349 . S
C260 C258 1.327 . S
C260 C279 1.429 . S
C260 H284 0.950 . S
C261 C278 1.574 . S
C261 C280 1.368 . S
C261 H285 0.949 . S
H262 C266 0.949 . S
C263 C264 1.349 . S
C263 C265 1.327 . S
C263 H286 0.950 . S
C264 C263 1.349 . S
C264 C276 1.349 . S
C265 C263 1.327 . S
C265 C281 1.429 . S
C265 H287 0.950 . S
C266 H262 0.949 . S
C266 C274 1.574 . S
C266 C282 1.368 . S
H267 C275 0.950 . S
H268 C273 0.950 . S
H269 C274 0.949 . S
H270 C276 0.950 . S
H271 C277 0.950 . S
H272 C278 0.949 . S
C273 H268 0.950 . S
C273 C275 1.327 . S
C273 C279 1.429 . S
C274 C266 1.574 . S
C274 H269 0.949 . S
C274 C280 1.368 . S
C275 C259 1.349 . S
C275 H267 0.950 . S
C275 C273 1.327 . S
C276 C264 1.349 . S
C276 H270 0.950 . S
C276 C277 1.327 . S
C277 H271 0.950 . S
C277 C276 1.327 . S
C277 C281 1.429 . S
C278 C261 1.574 . S
C278 H272 0.949 . S
C278 C282 1.368 . S
C279 C260 1.429 . S
C279 C273 1.429 . S
C279 C280 1.523 . S
C280 C261 1.368 . S
C280 C274 1.368 . S
C280 C279 1.523 . S
C281 C265 1.429 . S
C281 C277 1.429 . S
C281 C282 1.523 . S
C282 C266 1.368 . S
C282 C278 1.368 . S
C282 C281 1.523 . S
H283 C258 0.950 . S
H284 C260 0.950 . S
H285 C261 0.949 . S
H286 C263 0.950 . S
H287 C265 0.950 . S
C288 C289 1.349 . S
C288 C290 1.327 . S
C288 H313 0.950 . S
C289 C288 1.349 . S
C289 C305 1.349 . S
C290 C288 1.327 . S
C290 C309 1.429 . S
C290 H314 0.950 . S
C291 C308 1.574 1_655 S
C291 C310 1.368 . S
C291 H315 0.949 . S
H292 C296 0.949 . S
C293 C294 1.349 . S
C293 C295 1.327 . S
C293 H316 0.950 . S
C294 C293 1.349 . S
C294 C306 1.349 . S
C295 C293 1.327 . S
C295 C311 1.429 . S
C295 H317 0.950 . S
C296 H292 0.949 . S
C296 C304 1.574 1_455 S
C296 C312 1.368 . S
H297 C305 0.950 . S
H298 C303 0.950 . S
H299 C304 0.949 . S
H300 C306 0.950 . S
H301 C307 0.950 . S
H302 C308 0.949 . S
C303 H298 0.950 . S
C303 C305 1.327 . S
C303 C309 1.429 . S
C304 C296 1.574 1_655 S
C304 H299 0.949 . S
C304 C310 1.368 . S
C305 C289 1.349 . S
C305 H297 0.950 . S
C305 C303 1.327 . S
C306 C294 1.349 . S
C306 H300 0.950 . S
C306 C307 1.327 . S
C307 H301 0.950 . S
C307 C306 1.327 . S
C307 C311 1.429 . S
C308 C291 1.574 1_455 S
C308 H302 0.949 . S
C308 C312 1.368 . S
C309 C290 1.429 . S
C309 C303 1.429 . S
C309 C310 1.523 . S
C310 C291 1.368 . S
C310 C304 1.368 . S
C310 C309 1.523 . S
C311 C295 1.429 . S
C311 C307 1.429 . S
C311 C312 1.523 . S
C312 C296 1.368 . S
C312 C308 1.368 . S
C312 C311 1.523 . S
H313 C288 0.950 . S
H314 C290 0.950 . S
H315 C291 0.949 . S
H316 C293 0.950 . S
H317 C295 0.950 . S
C318 C319 1.349 . S
C318 C320 1.327 . S
C318 H343 0.950 . S
C319 C318 1.349 . S
C319 C335 1.341 1_554 S
C320 C318 1.327 . S
C320 C339 1.429 . S
C320 H344 0.950 . S
C321 C338 1.574 1_565 S
C321 C340 1.368 1_556 S
C321 H345 0.949 . S
H322 C326 0.949 . S
C323 C324 1.349 . S
C323 C325 1.327 . S
C323 H346 0.950 . S
C324 C323 1.349 . S
C324 C336 1.341 1_556 S
C325 C323 1.327 . S
C325 C341 1.429 . S
C325 H347 0.950 . S
C326 H322 0.949 . S
C326 C334 1.574 1_545 S
C326 C342 1.368 1_554 S
H327 C335 0.956 . S
H328 C333 0.950 . S
H329 C334 0.949 . S
H330 C336 0.956 . S
H331 C337 0.950 . S
H332 C338 0.949 . S
C333 H328 0.950 . S
C333 C335 1.329 . S
C333 C339 1.429 1_556 S
C334 C326 1.574 1_565 S
C334 H329 0.949 . S
C334 C340 1.368 . S
C335 C319 1.341 1_556 S
C335 H327 0.956 . S
C335 C333 1.329 . S
C336 C324 1.341 1_554 S
C336 H330 0.956 . S
C336 C337 1.329 . S
C337 H331 0.950 . S
C337 C336 1.329 . S
C337 C341 1.429 1_554 S
C338 C321 1.574 1_545 S
C338 H332 0.949 . S
C338 C342 1.368 . S
C339 C320 1.429 . S
C339 C333 1.429 1_554 S
C339 C340 1.523 . S
C340 C321 1.368 1_554 S
C340 C334 1.368 . S
C340 C339 1.523 . S
C341 C325 1.429 . S
C341 C337 1.429 1_556 S
C341 C342 1.523 . S
C342 C326 1.368 1_556 S
C342 C338 1.368 . S
C342 C341 1.523 . S
H343 C318 0.950 . S
H344 C320 0.950 . S
H345 C321 0.949 . S
H346 C323 0.950 . S
H347 C325 0.950 . S
C348 C349 1.349 . S
C348 C350 1.327 . S
C348 H373 0.950 . S
C349 C348 1.349 . S
C349 C365 1.349 . S
C350 C348 1.327 . S
C350 C369 1.429 . S
C350 H374 0.950 . S
C351 C368 1.574 1_556 S
C351 C370 1.368 . S
C351 H375 0.949 . S
H352 C356 0.949 . S
C353 C354 1.349 . S
C353 C355 1.327 . S
C353 H376 0.950 . S
C354 C353 1.349 . S
C354 C366 1.349 . S
C355 C353 1.327 . S
C355 C371 1.429 . S
C355 H377 0.950 . S
C356 H352 0.949 . S
C356 C364 1.574 1_554 S
C356 C372 1.368 . S
H357 C365 0.950 . S
H358 C363 0.950 . S
H359 C364 0.949 . S
H360 C366 0.950 . S
H361 C367 0.950 . S
H362 C368 0.949 . S
C363 H358 0.950 . S
C363 C365 1.327 . S
C363 C369 1.429 . S
C364 C356 1.574 1_556 S
C364 H359 0.949 . S
C364 C370 1.368 . S
C365 C349 1.349 . S
C365 H357 0.950 . S
C365 C363 1.327 . S
C366 C354 1.349 . S
C366 H360 0.950 . S
C366 C367 1.327 . S
C367 H361 0.950 . S
C367 C366 1.327 . S
C367 C371 1.429 . S
C368 C351 1.574 1_554 S
C368 H362 0.949 . S
C368 C372 1.368 . S
C369 C350 1.429 . S
C369 C363 1.429 . S
C369 C370 1.523 . S
C370 C351 1.368 . S
C370 C364 1.368 . S
C370 C369 1.523 . S
C371 C355 1.429 . S
C371 C367 1.429 . S
C371 C372 1.523 . S
C372 C356 1.368 . S
C372 C368 1.368 . S
C372 C371 1.523 . S
H373 C348 0.950 . S
H374 C350 0.950 . S
H375 C351 0.949 . S
H376 C353 0.950 . S
H377 C355 0.950 . S
C378 C379 1.349 . S
C378 C380 1.327 . S
C378 H403 0.950 . S
C379 C378 1.349 . S
C379 C395 1.349 . S
C380 C378 1.327 . S
C380 C399 1.429 . S
C380 H404 0.950 . S
C381 C398 1.574 . S
C381 C400 1.368 . S
C381 H405 0.949 . S
H382 C386 0.949 . S
C383 C384 1.349 . S
C383 C385 1.327 . S
C383 H406 0.950 . S
C384 C383 1.349 . S
C384 C396 1.349 . S
C385 C383 1.327 . S
C385 C401 1.429 . S
C385 H407 0.950 . S
C386 H382 0.949 . S
C386 C394 1.574 . S
C386 C402 1.368 . S
H387 C395 0.950 . S
H388 C393 0.950 . S
H389 C394 0.949 . S
H390 C396 0.950 . S
H391 C397 0.950 . S
H392 C398 0.949 . S
C393 H388 0.950 . S
C393 C395 1.327 . S
C393 C399 1.429 . S
C394 C386 1.574 . S
C394 H389 0.949 . S
C394 C400 1.368 . S
C395 C379 1.349 . S
C395 H387 0.950 . S
C395 C393 1.327 . S
C396 C384 1.349 . S
C396 H390 0.950 . S
C396 C397 1.327 . S
C397 H391 0.950 . S
C397 C396 1.327 . S
C397 C401 1.429 . S
C398 C381 1.574 . S
C398 H392 0.949 . S
C398 C402 1.368 . S
C399 C380 1.429 . S
C399 C393 1.429 . S
C399 C400 1.523 . S
C400 C381 1.368 . S
C400 C394 1.368 . S
C400 C399 1.523 . S
C401 C385 1.429 . S
C401 C397 1.429 . S
C401 C402 1.523 . S
C402 C386 1.368 . S
C402 C398 1.368 . S
C402 C401 1.523 . S
H403 C378 0.950 . S
H404 C380 0.950 . S
H405 C381 0.949 . S
H406 C383 0.950 . S
H407 C385 0.950 . S
C408 C409 1.349 . S
C408 C410 1.327 . S
C408 H433 0.950 . S
C409 C408 1.349 . S
C409 C425 1.349 . S
C410 C408 1.327 . S
C410 C429 1.429 . S
C410 H434 0.950 . S
C411 C428 1.574 . S
C411 C430 1.368 . S
C411 H435 0.949 . S
H412 C416 0.949 . S
C413 C414 1.349 . S
C413 C415 1.327 . S
C413 H436 0.950 . S
C414 C413 1.349 . S
C414 C426 1.349 . S
C415 C413 1.327 . S
C415 C431 1.429 . S
C415 H437 0.950 . S
C416 H412 0.949 . S
C416 C424 1.574 . S
C416 C432 1.368 . S
H417 C425 0.950 . S
H418 C423 0.950 . S
H419 C424 0.949 . S
H420 C426 0.950 . S
H421 C427 0.950 . S
H422 C428 0.949 . S
C423 H418 0.950 . S
C423 C425 1.327 . S
C423 C429 1.429 . S
C424 C416 1.574 . S
C424 H419 0.949 . S
C424 C430 1.368 . S
C425 C409 1.349 . S
C425 H417 0.950 . S
C425 C423 1.327 . S
C426 C414 1.349 . S
C426 H420 0.950 . S
C426 C427 1.327 . S
C427 H421 0.950 . S
C427 C426 1.327 . S
C427 C431 1.429 . S
C428 C411 1.574 . S
C428 H422 0.949 . S
C428 C432 1.368 . S
C429 C410 1.429 . S
C429 C423 1.429 . S
C429 C430 1.523 . S
C430 C411 1.368 . S
C430 C424 1.368 . S
C430 C429 1.523 . S
C431 C415 1.429 . S
C431 C427 1.429 . S
C431 C432 1.523 . S
C432 C416 1.368 . S
C432 C428 1.368 . S
C432 C431 1.523 . S
H433 C408 0.950 . S
H434 C410 0.950 . S
H435 C411 0.949 . S
H436 C413 0.950 . S
H437 C415 0.950 . S
C438 C439 1.349 . S
C438 C440 1.327 . S
C438 H463 0.950 . S
C439 C438 1.349 . S
C439 C455 1.349 . S
C440 C438 1.327 . S
C440 C459 1.429 . S
C440 H464 0.950 . S
C441 C458 1.574 1_554 S
C441 C460 1.368 . S
C441 H465 0.949 . S
H442 C446 0.949 . S
C443 C444 1.349 . S
C443 C445 1.327 . S
C443 H466 0.950 . S
C444 C443 1.349 . S
C444 C456 1.349 . S
C445 C443 1.327 . S
C445 C461 1.429 . S
C445 H467 0.950 . S
C446 H442 0.949 . S
C446 C454 1.574 1_556 S
C446 C462 1.368 . S
H447 C455 0.950 . S
H448 C453 0.950 . S
H449 C454 0.949 . S
H450 C456 0.950 . S
H451 C457 0.950 . S
H452 C458 0.949 . S
C453 H448 0.950 . S
C453 C455 1.327 . S
C453 C459 1.429 . S
C454 C446 1.574 1_554 S
C454 H449 0.949 . S
C454 C460 1.368 . S
C455 C439 1.349 . S
C455 H447 0.950 . S
C455 C453 1.327 . S
C456 C444 1.349 . S
C456 H450 0.950 . S
C456 C457 1.327 . S
C457 H451 0.950 . S
C457 C456 1.327 . S
C457 C461 1.429 . S
C458 C441 1.574 1_556 S
C458 H452 0.949 . S
C458 C462 1.368 . S
C459 C440 1.429 . S
C459 C453 1.429 . S
C459 C460 1.523 . S
C460 C441 1.368 . S
C460 C454 1.368 . S
C460 C459 1.523 . S
C461 C445 1.429 . S
C461 C457 1.429 . S
C461 C462 1.523 . S
C462 C446 1.368 . S
C462 C458 1.368 . S
C462 C461 1.523 . S
H463 C438 0.950 . S
H464 C440 0.950 . S
H465 C441 0.949 . S
H466 C443 0.950 . S
H467 C445 0.950 . S
C468 C469 1.349 . S
C468 C470 1.327 . S
C468 H493 0.950 . S
C469 C468 1.349 . S
C469 C485 1.349 . S
C470 C468 1.327 . S
C470 C489 1.429 . S
C470 H494 0.950 . S
C471 C488 1.574 . S
C471 C490 1.368 . S
C471 H495 0.949 . S
H472 C476 0.949 . S
C473 C474 1.349 . S
C473 C475 1.327 . S
C473 H496 0.950 . S
C474 C473 1.349 . S
C474 C486 1.349 . S
C475 C473 1.327 . S
C475 C491 1.429 . S
C475 H497 0.950 . S
C476 H472 0.949 . S
C476 C484 1.574 . S
C476 C492 1.368 . S
H477 C485 0.950 . S
H478 C483 0.950 . S
H479 C484 0.949 . S
H480 C486 0.950 . S
H481 C487 0.950 . S
H482 C488 0.949 . S
C483 H478 0.950 . S
C483 C485 1.327 . S
C483 C489 1.429 . S
C484 C476 1.574 . S
C484 H479 0.949 . S
C484 C490 1.368 . S
C485 C469 1.349 . S
C485 H477 0.950 . S
C485 C483 1.327 . S
C486 C474 1.349 . S
C486 H480 0.950 . S
C486 C487 1.327 . S
C487 H481 0.950 . S
C487 C486 1.327 . S
C487 C491 1.429 . S
C488 C471 1.574 . S
C488 H482 0.949 . S
C488 C492 1.368 . S
C489 C470 1.429 . S
C489 C483 1.429 . S
C489 C490 1.523 . S
C490 C471 1.368 . S
C490 C484 1.368 . S
C490 C489 1.523 . S
C491 C475 1.429 . S
C491 C487 1.429 . S
C491 C492 1.523 . S
C492 C476 1.368 . S
C492 C488 1.368 . S
C492 C491 1.523 . S
H493 C468 0.950 . S
H494 C470 0.950 . S
H495 C471 0.949 . S
H496 C473 0.950 . S
H497 C475 0.950 . S
C498 C499 1.349 . S
C498 C500 1.327 . S
C498 H523 0.950 . S
C499 C498 1.349 . S
C499 C515 1.349 . S
C500 C498 1.327 . S
C500 C519 1.429 . S
C500 H524 0.950 . S
C501 C518 1.574 . S
C501 C520 1.368 . S
C501 H525 0.949 . S
H502 C506 0.949 . S
C503 C504 1.349 . S
C503 C505 1.327 . S
C503 H526 0.950 . S
C504 C503 1.349 . S
C504 C516 1.349 . S
C505 C503 1.327 . S
C505 C521 1.429 . S
C505 H527 0.950 . S
C506 H502 0.949 . S
C506 C514 1.574 . S
C506 C522 1.368 . S
H507 C515 0.950 . S
H508 C513 0.950 . S
H509 C514 0.949 . S
H510 C516 0.950 . S
H511 C517 0.950 . S
H512 C518 0.949 . S
C513 H508 0.950 . S
C513 C515 1.327 . S
C513 C519 1.429 . S
C514 C506 1.574 . S
C514 H509 0.949 . S
C514 C520 1.368 . S
C515 C499 1.349 . S
C515 H507 0.950 . S
C515 C513 1.327 . S
C516 C504 1.349 . S
C516 H510 0.950 . S
C516 C517 1.327 . S
C517 H511 0.950 . S
C517 C516 1.327 . S
C517 C521 1.429 . S
C518 C501 1.574 . S
C518 H512 0.949 . S
C518 C522 1.368 . S
C519 C500 1.429 . S
C519 C513 1.429 . S
C519 C520 1.523 . S
C520 C501 1.368 . S
C520 C514 1.368 . S
C520 C519 1.523 . S
C521 C505 1.429 . S
C521 C517 1.429 . S
C521 C522 1.523 . S
C522 C506 1.368 . S
C522 C518 1.368 . S
C522 C521 1.523 . S
H523 C498 0.950 . S
H524 C500 0.950 . S
H525 C501 0.949 . S
H526 C503 0.950 . S
H527 C505 0.950 . S
C528 C529 1.349 . S
C528 C530 1.327 . S
C528 H553 0.950 . S
C529 C528 1.349 . S
C529 C545 1.349 . S
C530 C528 1.327 . S
C530 C549 1.429 . S
C530 H554 0.950 . S
C531 C548 1.574 . S
C531 C550 1.368 . S
C531 H555 0.949 . S
H532 C536 0.949 . S
C533 C534 1.349 . S
C533 C535 1.327 . S
C533 H556 0.950 . S
C534 C533 1.349 . S
C534 C546 1.349 . S
C535 C533 1.327 . S
C535 C551 1.429 . S
C535 H557 0.950 . S
C536 H532 0.949 . S
C536 C544 1.574 . S
C536 C552 1.368 . S
H537 C545 0.950 . S
H538 C543 0.950 . S
H539 C544 0.949 . S
H540 C546 0.950 . S
H541 C547 0.950 . S
H542 C548 0.949 . S
C543 H538 0.950 . S
C543 C545 1.327 . S
C543 C549 1.429 . S
C544 C536 1.574 . S
C544 H539 0.949 . S
C544 C550 1.368 . S
C545 C529 1.349 . S
C545 H537 0.950 . S
C545 C543 1.327 . S
C546 C534 1.349 . S
C546 H540 0.950 . S
C546 C547 1.327 . S
C547 H541 0.950 . S
C547 C546 1.327 . S
C547 C551 1.429 . S
C548 C531 1.574 . S
C548 H542 0.949 . S
C548 C552 1.368 . S
C549 C530 1.429 . S
C549 C543 1.429 . S
C549 C550 1.523 . S
C550 C531 1.368 . S
C550 C544 1.368 . S
C550 C549 1.523 . S
C551 C535 1.429 . S
C551 C547 1.429 . S
C551 C552 1.523 . S
C552 C536 1.368 . S
C552 C548 1.368 . S
C552 C551 1.523 . S
H553 C528 0.950 . S
H554 C530 0.950 . S
H555 C531 0.949 . S
H556 C533 0.950 . S
H557 C535 0.950 . S
C558 C559 1.349 . S
C558 C560 1.327 . S
C558 H583 0.950 . S
C559 C558 1.349 . S
C559 C575 1.349 . S
C560 C558 1.327 . S
C560 C579 1.429 . S
C560 H584 0.950 . S
C561 C578 1.574 . S
C561 C580 1.368 . S
C561 H585 0.949 . S
H562 C566 0.949 . S
C563 C564 1.349 . S
C563 C565 1.327 . S
C563 H586 0.950 . S
C564 C563 1.349 . S
C564 C576 1.349 . S
C565 C563 1.327 . S
C565 C581 1.429 . S
C565 H587 0.950 . S
C566 H562 0.949 . S
C566 C574 1.574 . S
C566 C582 1.368 . S
H567 C575 0.950 . S
H568 C573 0.950 . S
H569 C574 0.949 . S
H570 C576 0.950 . S
H571 C577 0.950 . S
H572 C578 0.949 . S
C573 H568 0.950 . S
C573 C575 1.327 . S
C573 C579 1.429 . S
C574 C566 1.574 . S
C574 H569 0.949 . S
C574 C580 1.368 . S
C575 C559 1.349 . S
C575 H567 0.950 . S
C575 C573 1.327 . S
C576 C564 1.349 . S
C576 H570 0.950 . S
C576 C577 1.327 . S
C577 H571 0.950 . S
C577 C576 1.327 . S
C577 C581 1.429 . S
C578 C561 1.574 . S
C578 H572 0.949 . S
C578 C582 1.368 . S
C579 C560 1.429 . S
C579 C573 1.429 . S
C579 C580 1.523 . S
C580 C561 1.368 . S
C580 C574 1.368 . S
C580 C579 1.523 . S
C581 C565 1.429 . S
C581 C577 1.429 . S
C581 C582 1.523 . S
C582 C566 1.368 . S
C582 C578 1.368 . S
C582 C581 1.523 . S
H583 C558 0.950 . S
H584 C560 0.950 . S
H585 C561 0.949 . S
H586 C563 0.950 . S
H587 C565 0.950 . S
C588 C589 1.349 . S
C588 C590 1.327 . S
C588 H613 0.950 1_554 S
C589 C588 1.349 . S
C589 C605 1.349 . S
C590 C588 1.327 . S
C590 C609 1.429 . S
C590 H614 0.950 . S
C591 C608 1.574 . S
C591 C610 1.368 . S
C591 H615 0.949 . S
H592 C596 0.949 . S
C593 C594 1.349 . S
C593 C595 1.327 . S
C593 H616 0.950 . S
C594 C593 1.349 . S
C594 C606 1.349 . S
C595 C593 1.327 . S
C595 C611 1.429 . S
C595 H617 0.950 . S
C596 H592 0.949 . S
C596 C604 1.574 . S
C596 C612 1.368 . S
H597 C605 0.950 . S
H598 C603 0.950 . S
H599 C604 0.949 . S
H600 C606 0.950 . S
H601 C607 0.950 . S
H602 C608 0.949 . S
C603 H598 0.950 . S
C603 C605 1.327 . S
C603 C609 1.429 . S
C604 C596 1.574 . S
C604 H599 0.949 . S
C604 C610 1.368 . S
C605 C589 1.349 . S
C605 H597 0.950 . S
C605 C603 1.327 . S
C606 C594 1.349 . S
C606 H600 0.950 . S
C606 C607 1.327 . S
C607 H601 0.950 . S
C607 C606 1.327 . S
C607 C611 1.429 . S
C608 C591 1.574 . S
C608 H602 0.949 . S
C608 C612 1.368 . S
C609 C590 1.429 . S
C609 C603 1.429 . S
C609 C610 1.523 . S
C610 C591 1.368 . S
C610 C604 1.368 . S
C610 C609 1.523 . S
C611 C595 1.429 . S
C611 C607 1.429 . S
C611 C612 1.523 . S
C612 C596 1.368 . S
C612 C608 1.368 . S
C612 C611 1.523 . S
H613 C588 0.950 1_556 S
H614 C590 0.950 . S
H615 C591 0.949 . S
H616 C593 0.950 . S
H617 C595 0.950 . S
C618 C619 1.349 . S
C618 C620 1.327 . S
C618 H643 0.950 . S
C619 C618 1.349 . S
C619 C635 1.349 . S
C620 C618 1.327 . S
C620 C639 1.429 . S
C620 H644 0.950 . S
C621 C638 1.574 . S
C621 C640 1.368 . S
C621 H645 0.949 . S
H622 C626 0.949 . S
C623 C624 1.349 . S
C623 C625 1.327 . S
C623 H646 0.950 . S
C624 C623 1.349 . S
C624 C636 1.349 . S
C625 C623 1.327 . S
C625 C641 1.429 . S
C625 H647 0.950 . S
C626 H622 0.949 . S
C626 C634 1.574 . S
C626 C642 1.368 . S
H627 C635 0.950 . S
H628 C633 0.950 . S
H629 C634 0.949 . S
H630 C636 0.950 . S
H631 C637 0.950 . S
H632 C638 0.949 . S
C633 H628 0.950 . S
C633 C635 1.327 . S
C633 C639 1.429 . S
C634 C626 1.574 . S
C634 H629 0.949 . S
C634 C640 1.368 . S
C635 C619 1.349 . S
C635 H627 0.950 . S
C635 C633 1.327 . S
C636 C624 1.349 . S
C636 H630 0.950 . S
C636 C637 1.327 . S
C637 H631 0.950 . S
C637 C636 1.327 . S
C637 C641 1.429 . S
C638 C621 1.574 . S
C638 H632 0.949 . S
C638 C642 1.368 . S
C639 C620 1.429 . S
C639 C633 1.429 . S
C639 C640 1.523 . S
C640 C621 1.368 . S
C640 C634 1.368 . S
C640 C639 1.523 . S
C641 C625 1.429 . S
C641 C637 1.429 . S
C641 C642 1.523 . S
C642 C626 1.368 . S
C642 C638 1.368 . S
C642 C641 1.523 . S
H643 C618 0.950 . S
H644 C620 0.950 . S
H645 C621 0.949 . S
H646 C623 0.950 . S
H647 C625 0.950 . S
C648 C649 1.349 . S
C648 C650 1.327 . S
C648 H673 0.950 . S
C649 C648 1.349 . S
C649 C665 1.349 . S
C650 C648 1.327 . S
C650 C669 1.429 . S
C650 H674 0.950 . S
C651 C668 1.574 . S
C651 C670 1.368 . S
C651 H675 0.949 . S
H652 C656 0.949 . S
C653 C654 1.349 . S
C653 C655 1.327 . S
C653 H676 0.950 . S
C654 C653 1.349 . S
C654 C666 1.349 . S
C655 C653 1.327 . S
C655 C671 1.429 . S
C655 H677 0.950 . S
C656 H652 0.949 . S
C656 C664 1.574 . S
C656 C672 1.368 . S
H657 C665 0.950 . S
H658 C663 0.950 . S
H659 C664 0.949 . S
H660 C666 0.950 . S
H661 C667 0.950 . S
H662 C668 0.949 . S
C663 H658 0.950 . S
C663 C665 1.327 . S
C663 C669 1.429 . S
C664 C656 1.574 . S
C664 H659 0.949 . S
C664 C670 1.368 . S
C665 C649 1.349 . S
C665 H657 0.950 . S
C665 C663 1.327 . S
C666 C654 1.349 . S
C666 H660 0.950 . S
C666 C667 1.327 . S
C667 H661 0.950 . S
C667 C666 1.327 . S
C667 C671 1.429 . S
C668 C651 1.574 . S
C668 H662 0.949 . S
C668 C672 1.368 . S
C669 C650 1.429 . S
C669 C663 1.429 . S
C669 C670 1.523 . S
C670 C651 1.368 . S
C670 C664 1.368 . S
C670 C669 1.523 . S
C671 C655 1.429 . S
C671 C667 1.429 . S
C671 C672 1.523 . S
C672 C656 1.368 . S
C672 C668 1.368 . S
C672 C671 1.523 . S
H673 C648 0.950 . S
H674 C650 0.950 . S
H675 C651 0.949 . S
H676 C653 0.950 . S
H677 C655 0.950 . S
C678 C679 1.349 . S
C678 C680 1.327 . S
C678 H703 0.950 1_554 S
C679 C678 1.349 . S
C679 C695 1.349 . S
C680 C678 1.327 . S
C680 C699 1.429 . S
C680 H704 0.950 . S
C681 C698 1.574 . S
C681 C700 1.368 . S
C681 H705 0.949 . S
H682 C686 0.949 . S
C683 C684 1.349 . S
C683 C685 1.327 . S
C683 H706 0.950 . S
C684 C683 1.349 . S
C684 C696 1.349 . S
C685 C683 1.327 . S
C685 C701 1.429 . S
C685 H707 0.950 . S
C686 H682 0.949 . S
C686 C694 1.574 . S
C686 C702 1.368 . S
H687 C695 0.950 . S
H688 C693 0.950 . S
H689 C694 0.949 . S
H690 C696 0.950 . S
H691 C697 0.950 . S
H692 C698 0.949 . S
C693 H688 0.950 . S
C693 C695 1.327 . S
C693 C699 1.429 . S
C694 C686 1.574 . S
C694 H689 0.949 . S
C694 C700 1.368 . S
C695 C679 1.349 . S
C695 H687 0.950 . S
C695 C693 1.327 . S
C696 C684 1.349 . S
C696 H690 0.950 . S
C696 C697 1.327 . S
C697 H691 0.950 . S
C697 C696 1.327 . S
C697 C701 1.429 . S
C698 C681 1.574 . S
C698 H692 0.949 . S
C698 C702 1.368 . S
C699 C680 1.429 . S
C699 C693 1.429 . S
C699 C700 1.523 . S
C700 C681 1.368 . S
C700 C694 1.368 . S
C700 C699 1.523 . S
C701 C685 1.429 . S
C701 C697 1.429 . S
C701 C702 1.523 . S
C702 C686 1.368 . S
C702 C698 1.368 . S
C702 C701 1.523 . S
H703 C678 0.950 1_556 S
H704 C680 0.950 . S
H705 C681 0.949 . S
H706 C683 0.950 . S
H707 C685 0.950 . S
C708 C709 1.349 . S
C708 C710 1.327 . S
C708 H733 0.950 . S
C709 C708 1.349 . S
C709 C725 1.349 . S
C710 C708 1.327 . S
C710 C729 1.429 . S
C710 H734 0.950 . S
C711 C728 1.574 . S
C711 C730 1.368 . S
C711 H735 0.949 . S
H712 C716 0.949 . S
C713 C714 1.349 . S
C713 C715 1.327 . S
C713 H736 0.950 . S
C714 C713 1.349 . S
C714 C726 1.349 . S
C715 C713 1.327 . S
C715 C731 1.429 . S
C715 H737 0.950 . S
C716 H712 0.949 . S
C716 C724 1.574 . S
C716 C732 1.368 . S
H717 C725 0.950 . S
H718 C723 0.950 . S
H719 C724 0.949 . S
H720 C726 0.950 . S
H721 C727 0.950 . S
H722 C728 0.949 . S
C723 H718 0.950 . S
C723 C725 1.327 . S
C723 C729 1.429 . S
C724 C716 1.574 . S
C724 H719 0.949 . S
C724 C730 1.368 . S
C725 C709 1.349 . S
C725 H717 0.950 . S
C725 C723 1.327 . S
C726 C714 1.349 . S
C726 H720 0.950 . S
C726 C727 1.327 . S
C727 H721 0.950 . S
C727 C726 1.327 . S
C727 C731 1.429 . S
C728 C711 1.574 . S
C728 H722 0.949 . S
C728 C732 1.368 . S
C729 C710 1.429 . S
C729 C723 1.429 . S
C729 C730 1.523 . S
C730 C711 1.368 . S
C730 C724 1.368 . S
C730 C729 1.523 . S
C731 C715 1.429 . S
C731 C727 1.429 . S
C731 C732 1.523 . S
C732 C716 1.368 . S
C732 C728 1.368 . S
C732 C731 1.523 . S
H733 C708 0.950 . S
H734 C710 0.950 . S
H735 C711 0.949 . S
H736 C713 0.950 . S
H737 C715 0.950 . S
C738 C739 1.349 . S
C738 C740 1.327 . S
C738 H763 0.950 . S
C739 C738 1.349 . S
C739 C755 1.349 . S
C740 C738 1.327 . S
C740 C759 1.429 . S
C740 H764 0.950 . S
C741 C758 1.574 . S
C741 C760 1.368 . S
C741 H765 0.949 . S
H742 C746 0.949 . S
C743 C744 1.349 . S
C743 C745 1.327 . S
C743 H766 0.950 . S
C744 C743 1.349 . S
C744 C756 1.349 . S
C745 C743 1.327 . S
C745 C761 1.429 . S
C745 H767 0.950 . S
C746 H742 0.949 . S
C746 C754 1.574 . S
C746 C762 1.368 . S
H747 C755 0.950 . S
H748 C753 0.950 . S
H749 C754 0.949 . S
H750 C756 0.950 . S
H751 C757 0.950 . S
H752 C758 0.949 . S
C753 H748 0.950 . S
C753 C755 1.327 . S
C753 C759 1.429 . S
C754 C746 1.574 . S
C754 H749 0.949 . S
C754 C760 1.368 . S
C755 C739 1.349 . S
C755 H747 0.950 . S
C755 C753 1.327 . S
C756 C744 1.349 . S
C756 H750 0.950 . S
C756 C757 1.327 . S
C757 H751 0.950 . S
C757 C756 1.327 . S
C757 C761 1.429 . S
C758 C741 1.574 . S
C758 H752 0.949 . S
C758 C762 1.368 . S
C759 C740 1.429 . S
C759 C753 1.429 . S
C759 C760 1.523 . S
C760 C741 1.368 . S
C760 C754 1.368 . S
C760 C759 1.523 . S
C761 C745 1.429 . S
C761 C757 1.429 . S
C761 C762 1.523 . S
C762 C746 1.368 . S
C762 C758 1.368 . S
C762 C761 1.523 . S
H763 C738 0.950 . S
H764 C740 0.950 . S
H765 C741 0.949 . S
H766 C743 0.950 . S
H767 C745 0.950 . S
C768 C769 1.349 . S
C768 C770 1.327 . S
C768 H793 0.950 . S
C769 C768 1.349 . S
C769 C785 1.349 . S
C770 C768 1.327 . S
C770 C789 1.429 . S
C770 H794 0.950 . S
C771 C788 1.574 . S
C771 C790 1.368 1_554 S
C771 H795 0.949 . S
H772 C776 0.949 . S
C773 C774 1.349 . S
C773 C775 1.327 . S
C773 H796 0.950 . S
C774 C773 1.349 . S
C774 C786 1.349 . S
C775 C773 1.327 . S
C775 C791 1.429 . S
C775 H797 0.950 . S
C776 H772 0.949 . S
C776 C784 1.574 . S
C776 C792 1.368 1_556 S
H777 C785 0.950 1_554 S
H778 C783 0.950 . S
H779 C784 0.949 . S
H780 C786 0.950 1_556 S
H781 C787 0.950 . S
H782 C788 0.949 . S
C783 H778 0.950 . S
C783 C785 1.327 1_554 S
C783 C789 1.429 1_554 S
C784 C776 1.574 . S
C784 H779 0.949 . S
C784 C790 1.368 . S
C785 C769 1.349 . S
C785 H777 0.950 1_556 S
C785 C783 1.327 1_556 S
C786 C774 1.349 . S
C786 H780 0.950 1_554 S
C786 C787 1.327 1_554 S
C787 H781 0.950 . S
C787 C786 1.327 1_556 S
C787 C791 1.429 1_556 S
C788 C771 1.574 . S
C788 H782 0.949 . S
C788 C792 1.368 . S
C789 C770 1.429 . S
C789 C783 1.429 1_556 S
C789 C790 1.523 . S
C790 C771 1.368 1_556 S
C790 C784 1.368 . S
C790 C789 1.523 . S
C791 C775 1.429 . S
C791 C787 1.429 1_554 S
C791 C792 1.523 . S
C792 C776 1.368 1_554 S
C792 C788 1.368 . S
C792 C791 1.523 . S
H793 C768 0.950 . S
H794 C770 0.950 . S
H795 C771 0.949 . S
H796 C773 0.950 . S
H797 C775 0.950 . S
C798 C799 1.349 . S
C798 C800 1.327 . S
C798 H823 0.950 . S
C799 C798 1.349 . S
C799 C815 1.349 . S
C800 C798 1.327 . S
C800 C819 1.429 . S
C800 H824 0.950 . S
C801 C818 1.574 . S
C801 C820 1.368 . S
C801 H825 0.949 . S
H802 C806 0.949 . S
C803 C804 1.349 . S
C803 C805 1.327 . S
C803 H826 0.950 . S
C804 C803 1.349 . S
C804 C816 1.349 . S
C805 C803 1.327 . S
C805 C821 1.429 . S
C805 H827 0.950 . S
C806 H802 0.949 . S
C806 C814 1.574 . S
C806 C822 1.368 . S
H807 C815 0.950 . S
H808 C813 0.950 . S
H809 C814 0.949 . S
H810 C816 0.950 . S
H811 C817 0.950 . S
H812 C818 0.949 . S
C813 H808 0.950 . S
C813 C815 1.327 . S
C813 C819 1.429 . S
C814 C806 1.574 . S
C814 H809 0.949 . S
C814 C820 1.368 . S
C815 C799 1.349 . S
C815 H807 0.950 . S
C815 C813 1.327 . S
C816 C804 1.349 . S
C816 H810 0.950 . S
C816 C817 1.327 . S
C817 H811 0.950 . S
C817 C816 1.327 . S
C817 C821 1.429 . S
C818 C801 1.574 . S
C818 H812 0.949 . S
C818 C822 1.368 . S
C819 C800 1.429 . S
C819 C813 1.429 . S
C819 C820 1.523 . S
C820 C801 1.368 . S
C820 C814 1.368 . S
C820 C819 1.523 . S
C821 C805 1.429 . S
C821 C817 1.429 . S
C821 C822 1.523 . S
C822 C806 1.368 . S
C822 C818 1.368 . S
C822 C821 1.523 . S
H823 C798 0.950 . S
H824 C800 0.950 . S
H825 C801 0.949 . S
H826 C803 0.950 . S
H827 C805 0.950 . S
C828 C829 1.349 . S
C828 C830 1.327 . S
C828 H853 0.950 . S
C829 C828 1.349 . S
C829 C845 1.349 . S
C830 C828 1.327 . S
C830 C849 1.429 . S
C830 H854 0.950 . S
C831 C848 1.574 . S
C831 C850 1.368 . S
C831 H855 0.949 . S
H832 C836 0.949 . S
C833 C834 1.349 . S
C833 C835 1.327 . S
C833 H856 0.950 . S
C834 C833 1.349 . S
C834 C846 1.349 . S
C835 C833 1.327 . S
C835 C851 1.429 . S
C835 H857 0.950 . S
C836 H832 0.949 . S
C836 C844 1.574 . S
C836 C852 1.368 . S
H837 C845 0.950 . S
H838 C843 0.950 . S
H839 C844 0.949 . S
H840 C846 0.950 . S
H841 C847 0.950 . S
H842 C848 0.949 . S
C843 H838 0.950 . S
C843 C845 1.327 . S
C843 C849 1.429 . S
C844 C836 1.574 . S
C844 H839 0.949 . S
C844 C850 1.368 . S
C845 C829 1.349 . S
C845 H837 0.950 . S
C845 C843 1.327 . S
C846 C834 1.349 . S
C846 H840 0.950 . S
C846 C847 1.327 . S
C847 H841 0.950 . S
C847 C846 1.327 . S
C847 C851 1.429 . S
C848 C831 1.574 . S
C848 H842 0.949 . S
C848 C852 1.368 . S
C849 C830 1.429 . S
C849 C843 1.429 . S
C849 C850 1.523 . S
C850 C831 1.368 . S
C850 C844 1.368 . S
C850 C849 1.523 . S
C851 C835 1.429 . S
C851 C847 1.429 . S
C851 C852 1.523 . S
C852 C836 1.368 . S
C852 C848 1.368 . S
C852 C851 1.523 . S
H853 C828 0.950 . S
H854 C830 0.950 . S
H855 C831 0.949 . S
H856 C833 0.950 . S
H857 C835 0.950 . S
C858 C859 1.349 . S
C858 C860 1.327 . S
C858 H883 0.950 . S
C859 C858 1.349 . S
C859 C875 1.349 . S
C860 C858 1.327 . S
C860 C879 1.429 . S
C860 H884 0.950 . S
C861 C878 1.574 . S
C861 C880 1.368 1_556 S
C861 H885 0.949 . S
H862 C866 0.949 . S
C863 C864 1.349 . S
C863 C865 1.327 . S
C863 H886 0.950 . S
C864 C863 1.349 . S
C864 C876 1.349 . S
C865 C863 1.327 . S
C865 C881 1.429 . S
C865 H887 0.950 . S
C866 H862 0.949 . S
C866 C874 1.574 . S
C866 C882 1.368 1_554 S
H867 C875 0.950 1_556 S
H868 C873 0.950 . S
H869 C874 0.949 . S
H870 C876 0.950 1_554 S
H871 C877 0.950 . S
H872 C878 0.949 . S
C873 H868 0.950 . S
C873 C875 1.327 1_556 S
C873 C879 1.429 1_556 S
C874 C866 1.574 . S
C874 H869 0.949 . S
C874 C880 1.368 . S
C875 C859 1.349 . S
C875 H867 0.950 1_554 S
C875 C873 1.327 1_554 S
C876 C864 1.349 . S
C876 H870 0.950 1_556 S
C876 C877 1.327 1_556 S
C877 H871 0.950 . S
C877 C876 1.327 1_554 S
C877 C881 1.429 1_554 S
C878 C861 1.574 . S
C878 H872 0.949 . S
C878 C882 1.368 . S
C879 C860 1.429 . S
C879 C873 1.429 1_554 S
C879 C880 1.523 . S
C880 C861 1.368 1_554 S
C880 C874 1.368 . S
C880 C879 1.523 . S
C881 C865 1.429 . S
C881 C877 1.429 1_556 S
C881 C882 1.523 . S
C882 C866 1.368 1_556 S
C882 C878 1.368 . S
C882 C881 1.523 . S
H883 C858 0.950 . S
H884 C860 0.950 . S
H885 C861 0.949 . S
H886 C863 0.950 . S
H887 C865 0.950 . S
C169 C11 1.272 . S
C174 C137 1.272 . S
C199 C25 1.272 . S
C204 C151 1.272 . S
C229 C39 1.272 . S
C234 C165 1.272 . S
C259 C53 1.272 . S
C264 C95 1.272 . S
C289 C109 1.272 . S
C294 C67 1.272 . S
C319 C123 1.272 . S
C324 C81 1.272 . S
C349 C145 1.342 . S
C354 C5 1.342 . S
C379 C19 1.342 . S
C384 C159 1.342 . S
C409 C33 1.342 . S
C414 C89 1.342 . S
C439 C47 1.342 . S
C444 C103 1.342 . S
C469 C61 1.342 . S
C474 C117 1.342 . S
C499 C75 1.342 . S
C504 C131 1.342 . S
C529 C144 0.812 . S
C534 C4 0.812 . S
C559 C18 0.812 . S
C564 C158 0.812 . S
C589 C32 0.812 . S
C594 C88 0.812 . S
C619 C46 0.812 . S
C624 C102 0.812 . S
C649 C60 0.812 . S
C654 C116 0.812 . S
C679 C74 0.812 . S
C684 C130 0.812 . S
C709 C12 1.577 . S
C714 C96 1.577 . S
C739 C110 1.576 . S
C744 C26 1.576 . S
C769 C40 1.576 . S
C774 C124 1.576 . S
C799 C54 1.577 . S
C804 C138 1.577 . S
C829 C68 1.576 . S
C834 C152 1.576 . S
C859 C166 1.576 . S
C864 C82 1.576 . S
