# Generated by pormake.
# Topology uon, (4)-cn, num edge types: 1
# Building blocks:
#     Node 0, Type 0, BuildingBlock: ICAMEG_clean_sbu_1, # of connection points: 4
#     Node 1, Type 0, BuildingBlock: ICAMEG_clean_sbu_1, # of connection points: 4
#     Node 2, Type 0, BuildingBlock: ICAMEG_clean_sbu_1, # of connection points: 4
#     Node 3, Type 0, BuildingBlock: ICAMEG_clean_sbu_1, # of connection points: 4
#     Node 4, Type 0, BuildingBlock: ICAMEG_clean_sbu_1, # of connection points: 4
#     Node 5, Type 0, BuildingBlock: ICAMEG_clean_sbu_1, # of connection points: 4
#     Edge 6, Type (0, 0), BuildingBlock: FUNLAD_clean_linker_1, # of connection points: 2
#     Edge 7, Type (0, 0), BuildingBlock: FUNLAD_clean_linker_1, # of connection points: 2
#     Edge 8, Type (0, 0), BuildingBlock: FUNLAD_clean_linker_1, # of connection points: 2
#     Edge 9, Type (0, 0), BuildingBlock: FUNLAD_clean_linker_1, # of connection points: 2
#     Edge 10, Type (0, 0), BuildingBlock: FUNLAD_clean_linker_1, # of connection points: 2
#     Edge 11, Type (0, 0), BuildingBlock: FUNLAD_clean_linker_1, # of connection points: 2
#     Edge 12, Type (0, 0), BuildingBlock: FUNLAD_clean_linker_1, # of connection points: 2
#     Edge 13, Type (0, 0), BuildingBlock: FUNLAD_clean_linker_1, # of connection points: 2
#     Edge 14, Type (0, 0), BuildingBlock: FUNLAD_clean_linker_1, # of connection points: 2
#     Edge 15, Type (0, 0), BuildingBlock: FUNLAD_clean_linker_1, # of connection points: 2
#     Edge 16, Type (0, 0), BuildingBlock: FUNLAD_clean_linker_1, # of connection points: 2
#     Edge 17, Type (0, 0), BuildingBlock: FUNLAD_clean_linker_1, # of connection points: 2
# Relax obj value: 0.158
# Max RMSD: 0.297
# Mean RMSD: 0.272
data_MOF--net-uon--node1-ICAMEG_clean_sbu_1--edge1-FUNLAD_clean_linker_1
_symmetry_space_group_name_H-M    P1
_symmetry_Int_Tables_number       1
_symmetry_cell_setting            triclinic
loop_
_symmetry_equiv_pos_as_xyz
'x, y, z'
_cell_length_a     38.280177
_cell_length_b     38.278331
_cell_length_c     17.82638
_cell_angle_alpha  89.606249
_cell_angle_beta   90.486928
_cell_angle_gamma 120.03445
loop_
_atom_site_label
_atom_site_type_symbol
_atom_site_fract_x
_atom_site_fract_y
_atom_site_fract_z
_atom_type_partial_charge
Co0 Co 0.18387 0.41662 0.99615 0.0
Co1 Co 0.23859 0.41998 0.15414 0.0
O2 O 0.22681 0.41194 0.04672 0.0
C3 C 0.25881 0.45891 0.90261 0.0
O4 O 0.27517 0.44195 0.94249 0.0
C5 C 0.23457 0.3431 0.11675 0.0
O6 O 0.20009 0.33238 0.08279 0.0
O7 O 0.18171 0.37978 0.17665 0.0
O8 O 0.14631 0.38699 0.08172 0.0
H9 H 0.21159 0.43931 0.42154 0.0
H10 H 0.22307 0.37721 0.90883 0.0
O11 O 0.22182 0.44887 0.91158 0.0
H12 H 0.07812 0.27746 0.91577 0.0
H13 H 0.10118 0.41571 0.77423 0.0
H14 H 0.12191 0.43584 0.0475 0.0
H15 H 0.10422 0.34317 0.9774 0.0
H16 H 0.1554 0.40958 0.83796 0.0
O17 O 0.25306 0.3764 0.15197 0.0
H18 H 0.19827 0.43133 0.28534 0.0
H19 H 0.30315 0.42221 0.2522 0.0
H20 H 0.06724 0.44211 0.98619 0.0
H21 H 0.19799 0.31284 0.84403 0.0
H22 H 0.05648 0.43181 0.84862 0.0
H23 H 0.12509 0.26191 0.84794 0.0
O24 O 0.20129 0.46906 0.04556 0.0
H25 H 0.37249 0.47265 0.02566 0.0
H26 H 0.2944 0.50501 0.20217 0.0
H27 H 0.36327 0.55749 0.16833 0.0
H28 H 0.40281 0.54157 0.07917 0.0
H29 H 0.30322 0.42126 0.05966 0.0
H30 H 0.31765 0.43009 0.38814 0.0
H31 H 0.27173 0.43882 0.47376 0.0
O32 O 0.22471 0.46388 0.15837 0.0
C33 C 0.14865 0.37306 0.14592 0.0
C34 C 0.23192 0.43568 0.3848 0.0
C35 C 0.29141 0.43046 0.36604 0.0
N36 N 0.25007 0.42662 0.26086 0.0
C37 C 0.22457 0.43122 0.30761 0.0
C38 C 0.28304 0.42598 0.28915 0.0
C39 C 0.26563 0.43536 0.41406 0.0
C40 C 0.19138 0.35613 0.91014 0.0
N41 N 0.16541 0.36484 0.94658 0.0
C42 C 0.17729 0.3192 0.87375 0.0
C43 C 0.13637 0.29065 0.87579 0.0
C44 C 0.11005 0.29935 0.91383 0.0
C45 C 0.12515 0.33669 0.949 0.0
C46 C 0.10548 0.42014 0.83423 0.0
C47 C 0.11731 0.4312 0.98765 0.0
C48 C 0.13617 0.4168 0.87055 0.0
N49 N 0.14148 0.42193 0.94641 0.0
C50 C 0.08638 0.43488 0.95322 0.0
C51 C 0.08041 0.42917 0.87601 0.0
C52 C 0.21379 0.48188 0.11152 0.0
C53 C 0.35551 0.48002 0.06436 0.0
C54 C 0.31111 0.49781 0.16272 0.0
C55 C 0.35029 0.52765 0.1442 0.0
C56 C 0.37249 0.51868 0.09432 0.0
N57 N 0.29426 0.46014 0.13182 0.0
C58 C 0.31624 0.45094 0.08415 0.0
Co59 Co 0.80947 0.24938 0.576 0.0
Co60 Co 0.88944 0.27188 0.69636 0.0
O61 O 0.86593 0.28131 0.60598 0.0
C62 C 0.82472 0.3325 0.58766 0.0
O63 O 0.84718 0.3367 0.64659 0.0
C64 C 0.93362 0.26573 0.56848 0.0
O65 O 0.89801 0.24131 0.53931 0.0
O66 O 0.86216 0.21292 0.67695 0.0
O67 O 0.80819 0.19807 0.60405 0.0
H68 H 0.88926 0.20186 0.93606 0.0
H69 H 0.86824 0.30924 0.46965 0.0
O70 O 0.80853 0.29993 0.54978 0.0
H71 H 0.81192 0.17799 0.34172 0.0
H72 H 0.68891 0.21488 0.41169 0.0
H73 H 0.73701 0.17988 0.64203 0.0
H74 H 0.78816 0.18256 0.46757 0.0
H75 H 0.76085 0.25312 0.44787 0.0
O76 O 0.93656 0.27998 0.63416 0.0
H77 H 0.8587 0.21408 0.82378 0.0
H78 H 0.97317 0.31038 0.75765 0.0
H79 H 0.66489 0.14071 0.6079 0.0
H80 H 0.89275 0.30611 0.34364 0.0
H81 H 0.64041 0.15814 0.49187 0.0
H82 H 0.86463 0.24009 0.279 0.0
O83 O 0.7922 0.25274 0.67772 0.0
H84 H 0.97329 0.4189 0.62961 0.0
H85 H 0.89766 0.32143 0.83062 0.0
H86 H 0.9316 0.39439 0.85712 0.0
H87 H 0.96992 0.44366 0.75628 0.0
H88 H 0.93853 0.34573 0.60531 0.0
H89 H 0.00504 0.29913 0.86906 0.0
H90 H 0.96294 0.2446 0.95928 0.0
O91 O 0.84198 0.26334 0.75885 0.0
C92 C 0.8299 0.18795 0.64293 0.0
C93 C 0.90789 0.22582 0.89733 0.0
C94 C 0.97289 0.28037 0.85965 0.0
N95 N 0.91407 0.26315 0.78466 0.0
C96 C 0.89073 0.23296 0.83379 0.0
C97 C 0.95469 0.28656 0.79664 0.0
C98 C 0.94925 0.24978 0.91027 0.0
C99 C 0.85555 0.28049 0.44142 0.0
N100 N 0.82666 0.24618 0.47559 0.0
C101 C 0.86965 0.27887 0.37026 0.0
C102 C 0.85391 0.2418 0.33408 0.0
C103 C 0.82436 0.20694 0.36927 0.0
C104 C 0.81105 0.2097 0.44053 0.0
C105 C 0.69924 0.20685 0.46213 0.0
C106 C 0.72666 0.18734 0.59107 0.0
C107 C 0.73993 0.22837 0.48286 0.0
N108 N 0.75318 0.21831 0.54638 0.0
C109 C 0.68576 0.16517 0.57219 0.0
C110 C 0.67204 0.17502 0.50716 0.0
C111 C 0.80662 0.25725 0.74382 0.0
C112 C 0.95678 0.39773 0.67407 0.0
C113 C 0.91403 0.3427 0.78631 0.0
C114 C 0.93331 0.38397 0.80171 0.0
C115 C 0.95483 0.4116 0.74512 0.0
N116 N 0.91625 0.32932 0.71659 0.0
C117 C 0.93717 0.35624 0.66073 0.0
Co118 Co 0.57802 0.7651 0.66275 0.0
Co119 Co 0.58151 0.81369 0.82776 0.0
O120 O 0.5829 0.81087 0.71876 0.0
C121 C 0.51085 0.77523 0.61384 0.0
O122 O 0.50474 0.77622 0.68586 0.0
C123 C 0.65696 0.88561 0.78076 0.0
O124 O 0.66447 0.86122 0.74152 0.0
O125 O 0.62192 0.79599 0.8383 0.0
O126 O 0.61528 0.75909 0.73531 0.0
H127 H 0.57576 0.76474 0.09199 0.0
H128 H 0.59899 0.84006 0.57809 0.0
O129 O 0.53967 0.77032 0.59149 0.0
H130 H 0.71334 0.81696 0.54087 0.0
H131 H 0.5676 0.68936 0.42618 0.0
H132 H 0.5682 0.68531 0.70275 0.0
H133 H 0.65539 0.77027 0.61859 0.0
H134 H 0.57536 0.74724 0.49981 0.0
O135 O 0.62566 0.87155 0.82169 0.0
H136 H 0.57545 0.76025 0.95401 0.0
H137 H 0.58747 0.87634 0.93392 0.0
H138 H 0.56041 0.62678 0.63141 0.0
H139 H 0.65516 0.88607 0.49643 0.0
H140 H 0.56017 0.62863 0.4921 0.0
H141 H 0.71332 0.87524 0.4787 0.0
O142 O 0.5313 0.72651 0.72333 0.0
H143 H 0.52361 0.89521 0.71748 0.0
H144 H 0.50175 0.78804 0.89805 0.0
H145 H 0.44937 0.80704 0.88157 0.0
H146 H 0.46013 0.86096 0.79061 0.0
H147 H 0.57479 0.87467 0.73442 0.0
H148 H 0.58797 0.8822 0.07178 0.0
H149 H 0.582 0.82608 0.15176 0.0
O150 O 0.5372 0.75592 0.83525 0.0
C151 C 0.63011 0.77288 0.80026 0.0
C152 C 0.57826 0.78935 0.05778 0.0
C153 C 0.58517 0.8553 0.0464 0.0
N154 N 0.5812 0.81787 0.93605 0.0
C155 C 0.57803 0.78693 0.97964 0.0
C156 C 0.58493 0.85185 0.96841 0.0
C157 C 0.5818 0.82379 0.09126 0.0
C158 C 0.62381 0.83467 0.56957 0.0
N159 N 0.62379 0.80239 0.60274 0.0
C160 C 0.65573 0.86106 0.52383 0.0
C161 C 0.68828 0.85487 0.5137 0.0
C162 C 0.68832 0.8222 0.5486 0.0
C163 C 0.65555 0.79602 0.59297 0.0
C164 C 0.56779 0.68825 0.48686 0.0
C165 C 0.56836 0.68642 0.64213 0.0
C166 C 0.57216 0.72091 0.52881 0.0
N167 N 0.57266 0.71978 0.60543 0.0
C168 C 0.56382 0.65315 0.60205 0.0
C169 C 0.56363 0.65418 0.52388 0.0
C170 C 0.51988 0.72617 0.7903 0.0
C171 C 0.51857 0.87167 0.75723 0.0
C172 C 0.50664 0.81149 0.85829 0.0
C173 C 0.4769 0.82217 0.8493 0.0
C174 C 0.48296 0.85244 0.7983 0.0
N175 N 0.54143 0.83038 0.81756 0.0
C176 C 0.54759 0.86011 0.7675 0.0
Co177 Co 0.74002 0.53955 0.20789 0.0
Co178 Co 0.73525 0.60555 0.33289 0.0
O179 O 0.71559 0.56974 0.24643 0.0
C180 C 0.65845 0.47818 0.25708 0.0
O181 O 0.66392 0.5014 0.31481 0.0
C182 C 0.74212 0.65559 0.20172 0.0
O183 O 0.75875 0.63735 0.16766 0.0
O184 O 0.79249 0.62769 0.30287 0.0
O185 O 0.79502 0.58875 0.21136 0.0
H186 H 0.82382 0.67236 0.5572 0.0
H187 H 0.67083 0.53738 0.12779 0.0
O188 O 0.68541 0.4892 0.20648 0.0
H189 H 0.7823 0.59289 0.94574 0.0
H190 H 0.74266 0.43327 0.04739 0.0
H191 H 0.81414 0.53592 0.24278 0.0
H192 H 0.79165 0.57223 0.07238 0.0
H193 H 0.7154 0.47576 0.09175 0.0
O194 O 0.73215 0.64809 0.27059 0.0
H195 H 0.79833 0.62591 0.44936 0.0
H196 H 0.71374 0.66371 0.39808 0.0
H197 H 0.84258 0.49428 0.19981 0.0
H198 H 0.66013 0.55764 0.00183 0.0
H199 H 0.80667 0.44239 0.10164 0.0
H200 H 0.71618 0.58574 0.90992 0.0
O201 O 0.74887 0.5256 0.31034 0.0
H202 H 0.58925 0.56333 0.2923 0.0
H203 H 0.69097 0.57405 0.47657 0.0
H204 H 0.62036 0.54647 0.51631 0.0
H205 H 0.56899 0.54115 0.42392 0.0
H206 H 0.66007 0.59039 0.25483 0.0
H207 H 0.73843 0.71073 0.50518 0.0
H208 H 0.79378 0.71516 0.5857 0.0
O209 O 0.73859 0.56308 0.39471 0.0
C210 C 0.81173 0.6191 0.25523 0.0
C211 C 0.79958 0.67059 0.5227 0.0
C212 C 0.7517 0.69217 0.49343 0.0
N213 N 0.75436 0.64187 0.41794 0.0
C214 C 0.78494 0.64425 0.46173 0.0
C215 C 0.73789 0.66555 0.43281 0.0
C216 C 0.78275 0.69463 0.5386 0.0
C217 C 0.69521 0.5492 0.08779 0.0
N218 N 0.73173 0.55341 0.10712 0.0
C219 C 0.68903 0.56076 0.01668 0.0
C220 C 0.72051 0.57658 0.96518 0.0
C221 C 0.75763 0.58062 0.98526 0.0
C222 C 0.76275 0.56887 0.05698 0.0
C223 C 0.75865 0.45586 0.09004 0.0
C224 C 0.7986 0.51376 0.19939 0.0
C225 C 0.74336 0.48 0.11538 0.0
N226 N 0.76332 0.50849 0.16939 0.0
C227 C 0.81476 0.49014 0.1755 0.0
C228 C 0.79456 0.46099 0.1205 0.0
C229 C 0.74682 0.53564 0.37744 0.0
C230 C 0.61138 0.56562 0.33315 0.0
C231 C 0.66874 0.57165 0.43599 0.0
C232 C 0.62883 0.5561 0.45884 0.0
C233 C 0.60003 0.55314 0.40698 0.0
N234 N 0.67969 0.58409 0.36361 0.0
C235 C 0.65157 0.58107 0.31233 0.0
Co236 Co 0.22763 0.81992 0.32054 0.0
Co237 Co 0.17884 0.77338 0.48521 0.0
O238 O 0.18229 0.77814 0.37642 0.0
C239 C 0.22104 0.74368 0.27412 0.0
O240 O 0.21924 0.73597 0.34622 0.0
C241 C 0.10895 0.77932 0.43321 0.0
O242 O 0.13431 0.81001 0.39196 0.0
O243 O 0.19894 0.83195 0.49662 0.0
O244 O 0.23194 0.86285 0.39057 0.0
H245 H 0.22842 0.81245 0.75018 0.0
H246 H 0.15219 0.76335 0.24003 0.0
O247 O 0.22422 0.77681 0.25115 0.0
H248 H 0.17098 0.89883 0.19346 0.0
H249 H 0.30243 0.8876 0.0839 0.0
H250 H 0.30587 0.89206 0.36041 0.0
H251 H 0.22056 0.8904 0.26909 0.0
H252 H 0.24597 0.83518 0.15763 0.0
O253 O 0.12182 0.76232 0.47841 0.0
H254 H 0.23339 0.81781 0.61227 0.0
H255 H 0.11451 0.71805 0.59057 0.0
H256 H 0.36281 0.94523 0.28897 0.0
H257 H 0.10205 0.77043 0.1636 0.0
H258 H 0.36121 0.94331 0.14966 0.0
H259 H 0.11121 0.83854 0.14014 0.0
O260 O 0.26712 0.81376 0.38413 0.0
H261 H 0.09148 0.63483 0.37708 0.0
H262 H 0.20081 0.71634 0.55654 0.0
H263 H 0.17725 0.64376 0.54359 0.0
H264 H 0.12195 0.60244 0.45399 0.0
H265 H 0.11639 0.70763 0.39089 0.0
H266 H 0.10817 0.71168 0.7283 0.0
H267 H 0.16545 0.75906 0.80906 0.0
O268 O 0.23564 0.78427 0.49219 0.0
C269 C 0.22029 0.86349 0.45728 0.0
C270 C 0.20329 0.79155 0.7156 0.0
C271 C 0.13578 0.73504 0.70331 0.0
N272 N 0.17435 0.76815 0.59347 0.0
C273 C 0.20597 0.79439 0.63748 0.0
C274 C 0.1395 0.73885 0.62538 0.0
C275 C 0.16793 0.76162 0.74859 0.0
C276 C 0.15664 0.79313 0.22929 0.0
N277 N 0.18939 0.82644 0.25854 0.0
C278 C 0.12807 0.79694 0.18623 0.0
C279 C 0.13318 0.83516 0.17323 0.0
C280 C 0.16669 0.86899 0.2032 0.0
C281 C 0.19462 0.86403 0.24608 0.0
C282 C 0.30341 0.88884 0.14456 0.0
C283 C 0.3049 0.89109 0.2998 0.0
C284 C 0.27159 0.8592 0.18657 0.0
N285 N 0.27246 0.86082 0.26315 0.0
C286 C 0.33727 0.92122 0.25965 0.0
C287 C 0.33639 0.92009 0.1815 0.0
C288 C 0.26653 0.79993 0.44973 0.0
C289 C 0.11542 0.65248 0.41673 0.0
C290 C 0.17692 0.69861 0.51698 0.0
C291 C 0.16363 0.65751 0.51005 0.0
C292 C 0.13258 0.63434 0.45974 0.0
N293 N 0.15974 0.71615 0.47504 0.0
C294 C 0.12955 0.6937 0.42502 0.0
Co295 Co 0.45606 0.20896 0.88812 0.0
Co296 Co 0.40226 0.12443 0.99955 0.0
O297 O 0.43349 0.15191 0.91048 0.0
C298 C 0.52644 0.19797 0.897 0.0
O299 O 0.50964 0.17633 0.95729 0.0
C300 C 0.34971 0.08363 0.86993 0.0
O301 O 0.35974 0.11986 0.84554 0.0
O302 O 0.36908 0.15095 0.98962 0.0
O303 O 0.40516 0.20707 0.92013 0.0
H304 H 0.33613 0.11323 0.24787 0.0
H305 H 0.4589 0.15528 0.77244 0.0
O306 O 0.50825 0.21233 0.85853 0.0
H307 H 0.37865 0.21065 0.65979 0.0
H308 H 0.53699 0.33498 0.73497 0.0
H309 H 0.4561 0.27783 0.96379 0.0
H310 H 0.40761 0.23098 0.78693 0.0
H311 H 0.50674 0.26246 0.76431 0.0
O312 O 0.36292 0.07913 0.93312 0.0
H313 H 0.37603 0.14879 0.13606 0.0
H314 H 0.36025 0.03865 0.04965 0.0
H315 H 0.48538 0.35042 0.93605 0.0
H316 H 0.43089 0.13446 0.64478 0.0
H317 H 0.52621 0.37941 0.82113 0.0
H318 H 0.3902 0.162 0.5879 0.0
O319 O 0.47738 0.22371 0.99114 0.0
H320 H 0.47114 0.0507 0.90621 0.0
H321 H 0.44651 0.11252 0.12642 0.0
H322 H 0.48976 0.08201 0.13969 0.0
H323 H 0.50234 0.05086 0.02902 0.0
H324 H 0.42827 0.08172 0.89532 0.0
H325 H 0.32009 0.00184 0.16041 0.0
H326 H 0.30793 0.03924 0.26058 0.0
O327 O 0.4414 0.1698 0.06628 0.0
C328 C 0.37443 0.18356 0.95952 0.0
C329 C 0.34133 0.09663 0.20471 0.0
C330 C 0.33226 0.03409 0.15556 0.0
N331 N 0.37071 0.09585 0.08677 0.0
C332 C 0.36397 0.11662 0.14138 0.0
C333 C 0.35496 0.05507 0.09294 0.0
C334 C 0.32547 0.0551 0.21177 0.0
C335 C 0.44166 0.16777 0.74761 0.0
N336 N 0.4351 0.19448 0.78679 0.0
C337 C 0.42569 0.15571 0.67551 0.0
C338 C 0.40284 0.17116 0.64365 0.0
C339 C 0.39633 0.19844 0.68397 0.0
C340 C 0.41275 0.2098 0.75595 0.0
C341 C 0.51916 0.32266 0.78518 0.0
C342 C 0.47352 0.29018 0.91325 0.0
C343 C 0.50201 0.28166 0.8021 0.0
N344 N 0.47929 0.26588 0.86519 0.0
C345 C 0.49018 0.33131 0.89808 0.0
C346 C 0.51311 0.34758 0.83355 0.0
C347 C 0.46887 0.20641 0.05489 0.0
C348 C 0.46578 0.06407 0.95489 0.0
C349 C 0.45182 0.09898 0.07802 0.0
C350 C 0.4763 0.08172 0.08589 0.0
C351 C 0.48332 0.06422 0.02379 0.0
N352 N 0.43468 0.09869 0.01027 0.0
C353 C 0.44138 0.08152 0.94915 0.0
H354 H 0.28581 0.33263 0.12946 0.0
C355 C 0.25578 0.32035 0.1052 0.0
H356 H 0.21217 0.27642 0.03314 0.0
H357 H 0.33591 0.25313 0.84039 0.0
H358 H 0.30855 0.28067 0.7496 0.0
H359 H 0.26309 0.30528 0.78926 0.0
H360 H 0.24437 0.30201 0.91967 0.0
C361 C 0.24141 0.28794 0.0603 0.0
C362 C 0.26772 0.27153 0.03685 0.0
C363 C 0.27889 0.27417 0.9604 0.0
C364 C 0.30596 0.26098 0.93779 0.0
C365 C 0.31599 0.26332 0.86087 0.0
C366 C 0.30046 0.27901 0.80809 0.0
C367 C 0.27481 0.29279 0.83039 0.0
C368 C 0.26414 0.29056 0.90549 0.0
H369 H 0.31542 0.17275 0.99933 0.0
C370 C 0.3439 0.19525 0.97493 0.0
H371 H 0.38019 0.25643 0.94352 0.0
H372 H 0.2482 0.25663 0.18563 0.0
H373 H 0.27894 0.23333 0.27793 0.0
H374 H 0.33179 0.21792 0.24132 0.0
H375 H 0.35332 0.22458 0.11218 0.0
C376 C 0.35188 0.23352 0.96771 0.0
C377 C 0.32254 0.24596 0.99179 0.0
C378 C 0.31195 0.24396 0.06855 0.0
C379 C 0.2834 0.25537 0.09058 0.0
C380 C 0.27122 0.25032 0.16654 0.0
C381 C 0.28841 0.2367 0.22 0.0
C382 C 0.31802 0.22784 0.19934 0.0
C383 C 0.32982 0.23144 0.12469 0.0
H384 H 0.99943 0.29617 0.54998 0.0
C385 C 0.97011 0.28015 0.52248 0.0
H386 H 0.93854 0.26098 0.41953 0.0
H387 H 0.12312 0.40647 0.32176 0.0
H388 H 0.11002 0.45147 0.39603 0.0
H389 H 0.04756 0.42519 0.46984 0.0
H390 H 0.99821 0.3539 0.47058 0.0
C391 C 0.9678 0.27688 0.44727 0.0
C392 C 0.00437 0.29369 0.39921 0.0
C393 C 0.03233 0.33583 0.39787 0.0
C394 C 0.06767 0.3512 0.3533 0.0
C395 C 0.09561 0.39322 0.35414 0.0
C396 C 0.08844 0.41943 0.39639 0.0
C397 C 0.05332 0.40462 0.43805 0.0
C398 C 0.02541 0.36344 0.43864 0.0
H399 H 0.08262 0.34291 0.16165 0.0
C400 C 0.11098 0.35006 0.18879 0.0
H401 H 0.13944 0.34987 0.291 0.0
H402 H 0.95585 0.21173 0.3853 0.0
H403 H 0.96723 0.16769 0.30466 0.0
H404 H 0.02768 0.1949 0.22483 0.0
H405 H 0.07718 0.26642 0.2253 0.0
C406 C 0.11123 0.34122 0.26183 0.0
C407 C 0.07409 0.32477 0.3077 0.0
C408 C 0.04542 0.28301 0.30654 0.0
C409 C 0.01053 0.26741 0.35245 0.0
C410 C 0.98269 0.22539 0.35105 0.0
C411 C 0.98891 0.1997 0.30515 0.0
C412 C 0.02294 0.21502 0.26022 0.0
C413 C 0.05106 0.25613 0.26089 0.0
H414 H 0.83795 0.13631 0.67225 0.0
C415 C 0.81615 0.14479 0.65316 0.0
H416 H 0.75477 0.12471 0.63039 0.0
H417 H 0.69282 0.94114 0.58402 0.0
H418 H 0.68556 0.96165 0.45853 0.0
H419 H 0.71401 0.03363 0.42684 0.0
H420 H 0.74951 0.08541 0.52052 0.0
C421 C 0.77691 0.11657 0.64871 0.0
C422 C 0.76217 0.07348 0.66765 0.0
C423 C 0.74237 0.04366 0.61176 0.0
C424 C 0.72672 0.00222 0.62964 0.0
C425 C 0.70594 0.97304 0.57319 0.0
C426 C 0.70147 0.98441 0.50095 0.0
C427 C 0.71743 0.02492 0.48313 0.0
C428 C 0.73767 0.05433 0.53759 0.0
H429 H 0.67227 0.94843 0.80049 0.0
C430 C 0.68152 0.92968 0.77084 0.0
H431 H 0.72082 0.92833 0.69009 0.0
H432 H 0.79322 0.12209 0.7919 0.0
H433 H 0.80353 0.10178 0.91509 0.0
H434 H 0.78298 0.03076 0.94198 0.0
H435 H 0.75098 0.97949 0.84597 0.0
C436 C 0.71236 0.94692 0.72234 0.0
C437 C 0.73137 0.99064 0.70317 0.0
C438 C 0.7523 0.02058 0.75852 0.0
C439 C 0.76648 0.06191 0.74156 0.0
C440 C 0.784 0.09064 0.79999 0.0
C441 C 0.78974 0.07932 0.87141 0.0
C442 C 0.778 0.03932 0.88664 0.0
C443 C 0.75942 0.01016 0.83114 0.0
H444 H 0.71827 0.69723 0.18767 0.0
C445 C 0.73013 0.68074 0.15793 0.0
H446 H 0.74166 0.66399 0.05219 0.0
H447 H 0.60209 0.71453 0.97558 0.0
H448 H 0.55816 0.65893 0.05678 0.0
H449 H 0.58402 0.62069 0.12685 0.0
H450 H 0.65392 0.63826 0.11709 0.0
C451 C 0.72982 0.68037 0.0824 0.0
C452 C 0.71328 0.70168 0.0371 0.0
C453 C 0.67182 0.69001 0.0418 0.0
C454 C 0.6566 0.71121 0.9996 0.0
C455 C 0.61529 0.6995 0.00635 0.0
C456 C 0.58964 0.66747 0.05249 0.0
C457 C 0.60422 0.64601 0.09203 0.0
C458 C 0.64466 0.65678 0.08654 0.0
H459 H 0.6619 0.73794 0.80485 0.0
C460 C 0.65539 0.75827 0.83618 0.0
H461 H 0.65809 0.78419 0.94202 0.0
H462 H 0.79352 0.72999 0.01131 0.0
H463 H 0.83648 0.78357 0.92531 0.0
H464 H 0.80955 0.81935 0.85037 0.0
H465 H 0.73941 0.80171 0.86097 0.0
C466 C 0.66617 0.76556 0.90897 0.0
C467 C 0.68236 0.7429 0.95056 0.0
C468 C 0.72331 0.75345 0.94343 0.0
C469 C 0.7388 0.7328 0.98676 0.0
C470 C 0.78002 0.74439 0.97936 0.0
C471 C 0.80507 0.77519 0.93034 0.0
C472 C 0.78991 0.79533 0.88815 0.0
C473 C 0.74957 0.78484 0.89461 0.0
H474 H 0.87256 0.63957 0.20916 0.0
C475 C 0.85612 0.64467 0.25311 0.0
H476 H 0.86041 0.67666 0.35222 0.0
H477 H 0.04067 0.69187 0.34461 0.0
H478 H 0.0053 0.61891 0.35259 0.0
H479 H 0.93093 0.57948 0.34676 0.0
H480 H 0.89173 0.6127 0.33065 0.0
C481 C 0.87656 0.67112 0.30831 0.0
C482 C 0.92142 0.69424 0.31252 0.0
C483 C 0.94363 0.67419 0.3261 0.0
C484 C 0.9863 0.69703 0.3348 0.0
C485 C 0.00807 0.6762 0.34231 0.0
C486 C 0.98816 0.63425 0.34619 0.0
C487 C 0.94633 0.61207 0.34254 0.0
C488 C 0.92417 0.6316 0.33268 0.0
H489 H 0.04499 0.7388 0.46105 0.0
C490 C 0.06522 0.76008 0.41948 0.0
H491 H 0.07022 0.7848 0.31111 0.0
H492 H 0.88839 0.74182 0.28208 0.0
H493 H 0.92381 0.81498 0.27764 0.0
H494 H 0.99724 0.85462 0.30035 0.0
H495 H 0.03575 0.82138 0.32717 0.0
C496 C 0.05025 0.76399 0.35344 0.0
C497 C 0.00631 0.73986 0.33568 0.0
C498 C 0.98427 0.75981 0.32035 0.0
C499 C 0.94183 0.73697 0.30841 0.0
C500 C 0.92058 0.75768 0.29269 0.0
C501 C 0.94055 0.79967 0.28975 0.0
C502 C 0.98189 0.82199 0.30245 0.0
C503 C 0.00364 0.80248 0.31771 0.0
H504 H 0.31587 0.01833 0.84509 0.0
C505 C 0.32542 0.04813 0.82204 0.0
H506 H 0.3278 0.08147 0.72505 0.0
H507 H 0.31144 0.93418 0.52825 0.0
H508 H 0.38352 0.9791 0.52204 0.0
H509 H 0.41657 0.04197 0.59577 0.0
H510 H 0.3775 0.0597 0.67744 0.0
C511 C 0.31695 0.05185 0.75004 0.0
C512 C 0.29611 0.01602 0.7003 0.0
C513 C 0.31899 0.00693 0.65022 0.0
C514 C 0.29965 0.97135 0.6057 0.0
C515 C 0.32391 0.96159 0.5607 0.0
C516 C 0.36557 0.987 0.55711 0.0
C517 C 0.38419 0.02233 0.59875 0.0
C518 C 0.36138 0.0322 0.64523 0.0
H519 H 0.25009 0.93028 0.45904 0.0
C520 C 0.23559 0.9032 0.49354 0.0
H521 H 0.22223 0.87952 0.60364 0.0
H522 H 0.24339 0.02629 0.78699 0.0
H523 H 0.17072 0.98231 0.79178 0.0
H524 H 0.13672 0.92156 0.71244 0.0
H525 H 0.1751 0.90436 0.62786 0.0
C526 C 0.23662 0.90648 0.56887 0.0
C527 C 0.25706 0.94582 0.60915 0.0
C528 C 0.23414 0.95569 0.65783 0.0
C529 C 0.25369 0.99075 0.70352 0.0
C530 C 0.23005 0.99983 0.75156 0.0
C531 C 0.18832 0.97493 0.75469 0.0
C532 C 0.16918 0.94071 0.71003 0.0
C533 C 0.19162 0.93111 0.66195 0.0
H534 H 0.2117 0.71569 0.16167 0.0
C535 C 0.2179 0.71306 0.22039 0.0
H536 H 0.22741 0.67908 0.30329 0.0
H537 H 0.13978 0.50754 0.1713 0.0
H538 H 0.09324 0.50125 0.26905 0.0
H539 H 0.10064 0.56156 0.33296 0.0
H540 H 0.15494 0.62847 0.3001 0.0
C541 C 0.2218 0.68173 0.24419 0.0
C542 C 0.21384 0.64694 0.19589 0.0
C543 C 0.18177 0.60806 0.21534 0.0
C544 C 0.17745 0.57331 0.17855 0.0
C545 C 0.145 0.53488 0.19877 0.0
C546 C 0.11786 0.53086 0.25433 0.0
C547 C 0.12206 0.56482 0.29038 0.0
C548 C 0.1535 0.60302 0.27125 0.0
H549 H 0.22405 0.52842 0.19458 0.0
C550 C 0.21504 0.51906 0.1368 0.0
H551 H 0.19674 0.53314 0.03383 0.0
H552 H 0.27819 0.71702 0.14267 0.0
H553 H 0.32086 0.72325 0.03793 0.0
H554 H 0.31034 0.6631 0.96899 0.0
H555 H 0.25823 0.596 0.00678 0.0
C556 C 0.20479 0.54109 0.09234 0.0
C557 C 0.20524 0.57749 0.12232 0.0
C558 C 0.23501 0.61645 0.09812 0.0
C559 C 0.23996 0.6513 0.13601 0.0
C560 C 0.27194 0.68964 0.11425 0.0
C561 C 0.2969 0.69364 0.05446 0.0
C562 C 0.29114 0.65973 0.0159 0.0
C563 C 0.261 0.62145 0.03791 0.0
H564 H 0.58099 0.2265 0.82672 0.0
C565 C 0.56787 0.20867 0.87715 0.0
H566 H 0.57764 0.18049 0.97143 0.0
H567 H 0.71743 0.17572 0.78285 0.0
H568 H 0.66552 0.10513 0.77837 0.0
H569 H 0.59815 0.08216 0.83189 0.0
H570 H 0.58224 0.12983 0.88951 0.0
C571 C 0.59025 0.19873 0.92128 0.0
C572 C 0.63252 0.21141 0.90129 0.0
C573 C 0.6417 0.18292 0.87082 0.0
C574 C 0.68057 0.19613 0.84049 0.0
C575 C 0.68844 0.16736 0.8069 0.0
C576 C 0.65892 0.12671 0.8041 0.0
C577 C 0.621 0.11377 0.83423 0.0
C578 C 0.61227 0.14143 0.86712 0.0
H579 H 0.78471 0.245 0.86162 0.0
C580 C 0.77902 0.2524 0.80557 0.0
H581 H 0.73956 0.26116 0.7343 0.0
H582 H 0.62687 0.27219 0.96969 0.0
H583 H 0.67967 0.3426 0.97787 0.0
H584 H 0.74692 0.36559 0.92378 0.0
H585 H 0.76192 0.31814 0.86174 0.0
C586 C 0.74477 0.25286 0.78999 0.0
C587 C 0.71011 0.23772 0.84163 0.0
C588 C 0.70201 0.26556 0.87815 0.0
C589 C 0.66316 0.25237 0.90848 0.0
C590 C 0.65574 0.28082 0.9446 0.0
C591 C 0.6858 0.32123 0.94991 0.0
C592 C 0.72368 0.33418 0.91947 0.0
C593 C 0.73186 0.30678 0.88383 0.0
H594 H 0.48286 0.67953 0.87367 0.0
C595 C 0.48376 0.68948 0.81611 0.0
H596 H 0.45367 0.67962 0.71239 0.0
H597 H 0.34258 0.49243 0.72966 0.0
H598 H 0.38147 0.50165 0.6169 0.0
H599 H 0.43794 0.56878 0.58274 0.0
H600 H 0.45554 0.62701 0.66006 0.0
C601 C 0.4524 0.66859 0.76927 0.0
C602 C 0.41748 0.62853 0.78948 0.0
C603 C 0.40795 0.5947 0.74346 0.0
C604 C 0.37612 0.5558 0.76396 0.0
C605 C 0.36689 0.52254 0.71699 0.0
C606 C 0.38891 0.52741 0.65212 0.0
C607 C 0.42064 0.56521 0.63282 0.0
C608 C 0.43027 0.59851 0.67774 0.0
H609 H 0.27307 0.51229 0.83227 0.0
C610 C 0.28543 0.49487 0.85764 0.0
H611 H 0.33827 0.49225 0.88267 0.0
H612 H 0.42142 0.68777 0.88161 0.0
H613 H 0.38594 0.67751 0.9989 0.0
H614 H 0.33672 0.60891 0.04239 0.0
H615 H 0.32164 0.55046 0.96753 0.0
C616 C 0.32551 0.50937 0.85759 0.0
C617 C 0.35462 0.5506 0.83112 0.0
C618 C 0.36391 0.58431 0.87704 0.0
C619 C 0.3943 0.62357 0.85463 0.0
C620 C 0.40071 0.65703 0.89847 0.0
C621 C 0.38018 0.65161 0.96556 0.0
C622 C 0.35232 0.61303 0.98984 0.0
C623 C 0.34389 0.5797 0.94608 0.0
H624 H 0.73135 0.50129 0.4844 0.0
C625 C 0.75162 0.51137 0.43674 0.0
H626 H 0.79645 0.50757 0.37619 0.0
H627 H 0.78869 0.39604 0.66768 0.0
H628 H 0.8064 0.45382 0.74736 0.0
H629 H 0.80989 0.51545 0.69561 0.0
H630 H 0.79452 0.51919 0.56439 0.0
C631 C 0.7766 0.49682 0.42458 0.0
C632 C 0.77129 0.45931 0.46001 0.0
C633 C 0.78189 0.45841 0.53594 0.0
C634 C 0.78214 0.42376 0.56469 0.0
C635 C 0.79027 0.42247 0.64198 0.0
C636 C 0.80007 0.45527 0.68847 0.0
C637 C 0.80188 0.48991 0.65939 0.0
C638 C 0.79292 0.49164 0.58401 0.0
H639 H 0.8418 0.39636 0.57487 0.0
C640 C 0.81754 0.36551 0.56656 0.0
H641 H 0.75698 0.32709 0.53511 0.0
H642 H 0.74161 0.44821 0.31619 0.0
H643 H 0.72343 0.39048 0.23677 0.0
H644 H 0.7289 0.33256 0.28342 0.0
H645 H 0.75212 0.33191 0.40978 0.0
C646 C 0.7813 0.3581 0.5413 0.0
C647 C 0.77427 0.39129 0.51606 0.0
C648 C 0.76098 0.39113 0.44149 0.0
C649 C 0.75895 0.42497 0.41386 0.0
C650 C 0.74488 0.42384 0.3395 0.0
C651 C 0.73412 0.39076 0.29332 0.0
C652 C 0.73713 0.35815 0.31964 0.0
C653 C 0.75044 0.35817 0.39264 0.0
H654 H 0.30125 0.78576 0.53127 0.0
C655 C 0.30248 0.79891 0.47638 0.0
H656 H 0.33797 0.82526 0.37923 0.0
H657 H 0.49125 0.86478 0.59053 0.0
H658 H 0.49712 0.93101 0.58791 0.0
H659 H 0.44483 0.94116 0.52638 0.0
H660 H 0.38638 0.88513 0.4671 0.0
C661 C 0.33556 0.81163 0.43401 0.0
C662 C 0.36958 0.80685 0.46137 0.0
C663 C 0.40374 0.83999 0.49423 0.0
C664 C 0.43361 0.83406 0.53018 0.0
C665 C 0.46732 0.86757 0.56356 0.0
C666 C 0.47115 0.90573 0.56207 0.0
C667 C 0.44173 0.91145 0.52737 0.0
C668 C 0.40834 0.87907 0.49369 0.0
H669 H 0.48915 0.77922 0.49993 0.0
C670 C 0.48465 0.78069 0.55967 0.0
H671 H 0.45204 0.79068 0.64376 0.0
H672 H 0.31095 0.73874 0.39246 0.0
H673 H 0.30504 0.67253 0.39439 0.0
H674 H 0.35551 0.66145 0.46094 0.0
H675 H 0.41236 0.7165 0.52503 0.0
C676 C 0.45562 0.78774 0.5841 0.0
C677 C 0.42913 0.795 0.53312 0.0
C678 C 0.39616 0.76231 0.4961 0.0
C679 C 0.36654 0.76842 0.45936 0.0
C680 C 0.33388 0.73548 0.42241 0.0
C681 C 0.3302 0.69739 0.4229 0.0
C682 C 0.35866 0.69118 0.46026 0.0
C683 C 0.39124 0.7231 0.49673 0.0
H684 H 0.52728 0.24393 0.10646 0.0
C685 C 0.4951 0.23071 0.11639 0.0
H686 H 0.45067 0.2379 0.17043 0.0
H687 H 0.64274 0.37148 0.28311 0.0
H688 H 0.6443 0.31421 0.33901 0.0
H689 H 0.58523 0.24558 0.33006 0.0
H690 H 0.52418 0.23382 0.26468 0.0
C691 C 0.48275 0.24875 0.16511 0.0
C692 C 0.51268 0.29012 0.19162 0.0
C693 C 0.54751 0.29676 0.23214 0.0
C694 C 0.58129 0.33638 0.23821 0.0
C695 C 0.61619 0.34197 0.2769 0.0
C696 C 0.61746 0.30939 0.30934 0.0
C697 C 0.5842 0.27074 0.30426 0.0
C698 C 0.54952 0.26433 0.26626 0.0
H699 H 0.59726 0.43238 0.29272 0.0
C700 C 0.62114 0.43869 0.25305 0.0
H701 H 0.64093 0.41495 0.16734 0.0
H702 H 0.44807 0.28906 0.12026 0.0
H703 H 0.44545 0.34654 0.07043 0.0
H704 H 0.50416 0.41523 0.08096 0.0
H705 H 0.56585 0.4267 0.14192 0.0
C706 C 0.6166 0.40996 0.20482 0.0
C707 C 0.57975 0.3694 0.20545 0.0
C708 C 0.54368 0.36331 0.1707 0.0
C709 C 0.50993 0.32361 0.16421 0.0
C710 C 0.47468 0.31835 0.12723 0.0
C711 C 0.4727 0.35119 0.09828 0.0
C712 C 0.50574 0.38986 0.10421 0.0
C713 C 0.54095 0.39602 0.13959 0.0
loop_
_geom_bond_atom_site_label_1
_geom_bond_atom_site_label_2
_geom_bond_distance
_geom_bond_site_symmetry_2
_ccdc_geom_bond_type
Co0 O2 2.143 . S
Co0 O8 2.074 1_556 S
Co0 O11 2.093 . S
Co0 O24 2.097 1_556 S
Co0 N41 2.151 . S
Co0 N49 2.214 . S
Co1 O2 2.160 1_554 S
Co1 O7 2.058 . S
Co1 O17 2.057 . S
Co1 O32 2.037 . S
Co1 N36 2.145 . S
Co1 N57 2.257 . S
O2 Co0 2.143 . S
O2 Co1 2.160 1_556 S
C3 O4 1.278 . S
C3 O11 1.224 . S
O4 C3 1.278 . S
C5 O6 1.245 1_554 S
C5 O17 1.232 . S
O6 C5 1.245 1_556 S
O7 Co1 2.058 . S
O7 C33 1.269 . S
O8 Co0 2.074 1_554 S
O8 C33 1.257 . S
H9 C34 0.930 . S
H10 C40 0.930 . S
O11 Co0 2.093 . S
O11 C3 1.224 . S
H12 C44 0.929 . S
H13 C46 0.930 . S
H14 C47 0.930 . S
H15 C45 0.929 . S
H16 C48 0.928 . S
O17 Co1 2.057 . S
O17 C5 1.232 . S
H18 C37 0.929 . S
H19 C38 0.929 . S
H20 C50 0.931 . S
H21 C42 0.929 . S
H22 C51 0.930 . S
H23 C43 0.931 . S
O24 Co0 2.097 1_554 S
O24 C52 1.214 . S
H25 C53 0.929 . S
H26 C54 0.929 . S
H27 C55 0.930 . S
H28 C56 0.929 . S
H29 C58 0.930 . S
H30 C35 0.930 . S
H31 C39 0.930 . S
O32 Co1 2.037 . S
O32 C52 1.234 . S
C33 O7 1.269 . S
C33 O8 1.257 . S
C34 H9 0.930 . S
C34 C37 1.388 . S
C34 C39 1.418 . S
C35 H30 0.930 . S
C35 C38 1.404 . S
C35 C39 1.353 . S
N36 Co1 2.145 . S
N36 C37 1.397 . S
N36 C38 1.334 . S
C37 H18 0.929 . S
C37 C34 1.388 . S
C37 N36 1.397 . S
C38 H19 0.929 . S
C38 C35 1.404 . S
C38 N36 1.334 . S
C39 H31 0.930 . S
C39 C34 1.418 . S
C39 C35 1.353 . S
C40 H10 0.930 . S
C40 N41 1.330 . S
C40 C42 1.446 . S
N41 Co0 2.151 . S
N41 C40 1.330 . S
N41 C45 1.418 . S
C42 H21 0.929 . S
C42 C40 1.446 . S
C42 C43 1.332 . S
C43 H23 0.931 . S
C43 C42 1.332 . S
C43 C44 1.267 . S
C44 H12 0.929 . S
C44 C43 1.267 . S
C44 C45 1.251 . S
C45 H15 0.929 . S
C45 N41 1.418 . S
C45 C44 1.251 . S
C46 H13 0.930 . S
C46 C48 1.406 . S
C46 C51 1.261 . S
C47 H14 0.930 . S
C47 N49 1.325 . S
C47 C50 1.357 . S
C48 H16 0.928 . S
C48 C46 1.406 . S
C48 N49 1.261 . S
N49 Co0 2.214 . S
N49 C47 1.325 . S
N49 C48 1.261 . S
C50 H20 0.931 . S
C50 C47 1.357 . S
C50 C51 1.312 . S
C51 H22 0.930 . S
C51 C46 1.261 . S
C51 C50 1.312 . S
C52 O24 1.214 . S
C52 O32 1.234 . S
C53 H25 0.929 . S
C53 C56 1.391 . S
C53 C58 1.391 . S
C54 H26 0.929 . S
C54 C55 1.390 . S
C54 N57 1.391 . S
C55 H27 0.930 . S
C55 C54 1.390 . S
C55 C56 1.392 . S
C56 H28 0.929 . S
C56 C53 1.391 . S
C56 C55 1.392 . S
N57 Co1 2.257 . S
N57 C54 1.391 . S
N57 C58 1.388 . S
C58 H29 0.930 . S
C58 C53 1.391 . S
C58 N57 1.388 . S
Co59 O61 2.143 . S
Co59 O67 2.074 . S
Co59 O70 2.093 . S
Co59 O83 2.097 . S
Co59 N100 2.151 . S
Co59 N108 2.214 . S
Co60 O61 2.160 . S
Co60 O66 2.058 . S
Co60 O76 2.057 . S
Co60 O91 2.037 . S
Co60 N95 2.145 . S
Co60 N116 2.257 . S
O61 Co59 2.143 . S
O61 Co60 2.160 . S
C62 O63 1.278 . S
C62 O70 1.224 . S
O63 C62 1.278 . S
C64 O65 1.245 . S
C64 O76 1.232 . S
O65 C64 1.245 . S
O66 Co60 2.058 . S
O66 C92 1.269 . S
O67 Co59 2.074 . S
O67 C92 1.257 . S
H68 C93 0.930 . S
H69 C99 0.930 . S
O70 Co59 2.093 . S
O70 C62 1.224 . S
H71 C103 0.929 . S
H72 C105 0.930 . S
H73 C106 0.930 . S
H74 C104 0.929 . S
H75 C107 0.928 . S
O76 Co60 2.057 . S
O76 C64 1.232 . S
H77 C96 0.929 . S
H78 C97 0.929 . S
H79 C109 0.931 . S
H80 C101 0.929 . S
H81 C110 0.930 . S
H82 C102 0.931 . S
O83 Co59 2.097 . S
O83 C111 1.214 . S
H84 C112 0.929 . S
H85 C113 0.929 . S
H86 C114 0.930 . S
H87 C115 0.929 . S
H88 C117 0.930 . S
H89 C94 0.930 . S
H90 C98 0.930 1_554 S
O91 Co60 2.037 . S
O91 C111 1.234 . S
C92 O66 1.269 . S
C92 O67 1.257 . S
C93 H68 0.930 . S
C93 C96 1.388 . S
C93 C98 1.418 . S
C94 H89 0.930 . S
C94 C97 1.404 . S
C94 C98 1.353 . S
N95 Co60 2.145 . S
N95 C96 1.397 . S
N95 C97 1.334 . S
C96 H77 0.929 . S
C96 C93 1.388 . S
C96 N95 1.397 . S
C97 H78 0.929 . S
C97 C94 1.404 . S
C97 N95 1.334 . S
C98 H90 0.930 1_556 S
C98 C93 1.418 . S
C98 C94 1.353 . S
C99 H69 0.930 . S
C99 N100 1.330 . S
C99 C101 1.446 . S
N100 Co59 2.151 . S
N100 C99 1.330 . S
N100 C104 1.418 . S
C101 H80 0.929 . S
C101 C99 1.446 . S
C101 C102 1.332 . S
C102 H82 0.931 . S
C102 C101 1.332 . S
C102 C103 1.267 . S
C103 H71 0.929 . S
C103 C102 1.267 . S
C103 C104 1.251 . S
C104 H74 0.929 . S
C104 N100 1.418 . S
C104 C103 1.251 . S
C105 H72 0.930 . S
C105 C107 1.406 . S
C105 C110 1.261 . S
C106 H73 0.930 . S
C106 N108 1.325 . S
C106 C109 1.357 . S
C107 H75 0.928 . S
C107 C105 1.406 . S
C107 N108 1.261 . S
N108 Co59 2.214 . S
N108 C106 1.325 . S
N108 C107 1.261 . S
C109 H79 0.931 . S
C109 C106 1.357 . S
C109 C110 1.312 . S
C110 H81 0.930 . S
C110 C105 1.261 . S
C110 C109 1.312 . S
C111 O83 1.214 . S
C111 O91 1.234 . S
C112 H84 0.929 . S
C112 C115 1.391 . S
C112 C117 1.391 . S
C113 H85 0.929 . S
C113 C114 1.390 . S
C113 N116 1.391 . S
C114 H86 0.930 . S
C114 C113 1.390 . S
C114 C115 1.392 . S
C115 H87 0.929 . S
C115 C112 1.391 . S
C115 C114 1.392 . S
N116 Co60 2.257 . S
N116 C113 1.391 . S
N116 C117 1.388 . S
C117 H88 0.930 . S
C117 C112 1.391 . S
C117 N116 1.388 . S
Co118 O120 2.143 . S
Co118 O126 2.074 . S
Co118 O129 2.093 . S
Co118 O142 2.097 . S
Co118 N159 2.151 . S
Co118 N167 2.214 . S
Co119 O120 2.160 . S
Co119 O125 2.058 . S
Co119 O135 2.057 . S
Co119 O150 2.037 . S
Co119 N154 2.145 . S
Co119 N175 2.257 . S
O120 Co118 2.143 . S
O120 Co119 2.160 . S
C121 O122 1.278 . S
C121 O129 1.224 . S
O122 C121 1.278 . S
C123 O124 1.245 . S
C123 O135 1.232 . S
O124 C123 1.245 . S
O125 Co119 2.058 . S
O125 C151 1.269 . S
O126 Co118 2.074 . S
O126 C151 1.257 . S
H127 C152 0.930 1_554 S
H128 C158 0.930 . S
O129 Co118 2.093 . S
O129 C121 1.224 . S
H130 C162 0.929 . S
H131 C164 0.930 . S
H132 C165 0.930 . S
H133 C163 0.929 . S
H134 C166 0.928 . S
O135 Co119 2.057 . S
O135 C123 1.232 . S
H136 C155 0.929 . S
H137 C156 0.929 . S
H138 C168 0.931 . S
H139 C160 0.929 . S
H140 C169 0.930 . S
H141 C161 0.931 . S
O142 Co118 2.097 . S
O142 C170 1.214 . S
H143 C171 0.929 . S
H144 C172 0.929 . S
H145 C173 0.930 . S
H146 C174 0.929 . S
H147 C176 0.930 . S
H148 C153 0.930 . S
H149 C157 0.930 . S
O150 Co119 2.037 . S
O150 C170 1.234 . S
C151 O125 1.269 . S
C151 O126 1.257 . S
C152 H127 0.930 1_556 S
C152 C155 1.388 . S
C152 C157 1.418 1_556 S
C153 H148 0.930 . S
C153 C156 1.404 . S
C153 C157 1.353 1_556 S
N154 Co119 2.145 . S
N154 C155 1.397 . S
N154 C156 1.334 . S
C155 H136 0.929 . S
C155 C152 1.388 . S
C155 N154 1.397 . S
C156 H137 0.929 . S
C156 C153 1.404 . S
C156 N154 1.334 . S
C157 H149 0.930 . S
C157 C152 1.418 1_554 S
C157 C153 1.353 1_554 S
C158 H128 0.930 . S
C158 N159 1.330 . S
C158 C160 1.446 . S
N159 Co118 2.151 . S
N159 C158 1.330 . S
N159 C163 1.418 . S
C160 H139 0.929 . S
C160 C158 1.446 . S
C160 C161 1.332 . S
C161 H141 0.931 . S
C161 C160 1.332 . S
C161 C162 1.267 . S
C162 H130 0.929 . S
C162 C161 1.267 . S
C162 C163 1.251 . S
C163 H133 0.929 . S
C163 N159 1.418 . S
C163 C162 1.251 . S
C164 H131 0.930 . S
C164 C166 1.406 . S
C164 C169 1.261 . S
C165 H132 0.930 . S
C165 N167 1.325 . S
C165 C168 1.357 . S
C166 H134 0.928 . S
C166 C164 1.406 . S
C166 N167 1.261 . S
N167 Co118 2.214 . S
N167 C165 1.325 . S
N167 C166 1.261 . S
C168 H138 0.931 . S
C168 C165 1.357 . S
C168 C169 1.312 . S
C169 H140 0.930 . S
C169 C164 1.261 . S
C169 C168 1.312 . S
C170 O142 1.214 . S
C170 O150 1.234 . S
C171 H143 0.929 . S
C171 C174 1.391 . S
C171 C176 1.391 . S
C172 H144 0.929 . S
C172 C173 1.390 . S
C172 N175 1.391 . S
C173 H145 0.930 . S
C173 C172 1.390 . S
C173 C174 1.392 . S
C174 H146 0.929 . S
C174 C171 1.391 . S
C174 C173 1.392 . S
N175 Co119 2.257 . S
N175 C172 1.391 . S
N175 C176 1.388 . S
C176 H147 0.930 . S
C176 C171 1.391 . S
C176 N175 1.388 . S
Co177 O179 2.143 . S
Co177 O185 2.074 . S
Co177 O188 2.093 . S
Co177 O201 2.097 . S
Co177 N218 2.151 . S
Co177 N226 2.214 . S
Co178 O179 2.160 . S
Co178 O184 2.058 . S
Co178 O194 2.057 . S
Co178 O209 2.037 . S
Co178 N213 2.145 . S
Co178 N234 2.257 . S
O179 Co177 2.143 . S
O179 Co178 2.160 . S
C180 O181 1.278 . S
C180 O188 1.224 . S
O181 C180 1.278 . S
C182 O183 1.245 . S
C182 O194 1.232 . S
O183 C182 1.245 . S
O184 Co178 2.058 . S
O184 C210 1.269 . S
O185 Co177 2.074 . S
O185 C210 1.257 . S
H186 C211 0.930 . S
H187 C217 0.930 . S
O188 Co177 2.093 . S
O188 C180 1.224 . S
H189 C221 0.929 . S
H190 C223 0.930 . S
H191 C224 0.930 . S
H192 C222 0.929 . S
H193 C225 0.928 . S
O194 Co178 2.057 . S
O194 C182 1.232 . S
H195 C214 0.929 . S
H196 C215 0.929 . S
H197 C227 0.931 . S
H198 C219 0.929 . S
H199 C228 0.930 . S
H200 C220 0.931 1_556 S
O201 Co177 2.097 . S
O201 C229 1.214 . S
H202 C230 0.929 . S
H203 C231 0.929 . S
H204 C232 0.930 . S
H205 C233 0.929 . S
H206 C235 0.930 . S
H207 C212 0.930 . S
H208 C216 0.930 . S
O209 Co178 2.037 . S
O209 C229 1.234 . S
C210 O184 1.269 . S
C210 O185 1.257 . S
C211 H186 0.930 . S
C211 C214 1.388 . S
C211 C216 1.418 . S
C212 H207 0.930 . S
C212 C215 1.404 . S
C212 C216 1.353 . S
N213 Co178 2.145 . S
N213 C214 1.397 . S
N213 C215 1.334 . S
C214 H195 0.929 . S
C214 C211 1.388 . S
C214 N213 1.397 . S
C215 H196 0.929 . S
C215 C212 1.404 . S
C215 N213 1.334 . S
C216 H208 0.930 . S
C216 C211 1.418 . S
C216 C212 1.353 . S
C217 H187 0.930 . S
C217 N218 1.330 . S
C217 C219 1.446 . S
N218 Co177 2.151 . S
N218 C217 1.330 . S
N218 C222 1.418 . S
C219 H198 0.929 . S
C219 C217 1.446 . S
C219 C220 1.332 . S
C220 H200 0.931 1_554 S
C220 C219 1.332 . S
C220 C221 1.267 . S
C221 H189 0.929 . S
C221 C220 1.267 . S
C221 C222 1.251 . S
C222 H192 0.929 . S
C222 N218 1.418 . S
C222 C221 1.251 . S
C223 H190 0.930 . S
C223 C225 1.406 . S
C223 C228 1.261 . S
C224 H191 0.930 . S
C224 N226 1.325 . S
C224 C227 1.357 . S
C225 H193 0.928 . S
C225 C223 1.406 . S
C225 N226 1.261 . S
N226 Co177 2.214 . S
N226 C224 1.325 . S
N226 C225 1.261 . S
C227 H197 0.931 . S
C227 C224 1.357 . S
C227 C228 1.312 . S
C228 H199 0.930 . S
C228 C223 1.261 . S
C228 C227 1.312 . S
C229 O201 1.214 . S
C229 O209 1.234 . S
C230 H202 0.929 . S
C230 C233 1.391 . S
C230 C235 1.391 . S
C231 H203 0.929 . S
C231 C232 1.390 . S
C231 N234 1.391 . S
C232 H204 0.930 . S
C232 C231 1.390 . S
C232 C233 1.392 . S
C233 H205 0.929 . S
C233 C230 1.391 . S
C233 C232 1.392 . S
N234 Co178 2.257 . S
N234 C231 1.391 . S
N234 C235 1.388 . S
C235 H206 0.930 . S
C235 C230 1.391 . S
C235 N234 1.388 . S
Co236 O238 2.143 . S
Co236 O244 2.074 . S
Co236 O247 2.093 . S
Co236 O260 2.097 . S
Co236 N277 2.151 . S
Co236 N285 2.214 . S
Co237 O238 2.160 . S
Co237 O243 2.058 . S
Co237 O253 2.057 . S
Co237 O268 2.037 . S
Co237 N272 2.145 . S
Co237 N293 2.257 . S
O238 Co236 2.143 . S
O238 Co237 2.160 . S
C239 O240 1.278 . S
C239 O247 1.224 . S
O240 C239 1.278 . S
C241 O242 1.245 . S
C241 O253 1.232 . S
O242 C241 1.245 . S
O243 Co237 2.058 . S
O243 C269 1.269 . S
O244 Co236 2.074 . S
O244 C269 1.257 . S
H245 C270 0.930 . S
H246 C276 0.930 . S
O247 Co236 2.093 . S
O247 C239 1.224 . S
H248 C280 0.929 . S
H249 C282 0.930 . S
H250 C283 0.930 . S
H251 C281 0.929 . S
H252 C284 0.928 . S
O253 Co237 2.057 . S
O253 C241 1.232 . S
H254 C273 0.929 . S
H255 C274 0.929 . S
H256 C286 0.931 . S
H257 C278 0.929 . S
H258 C287 0.930 . S
H259 C279 0.931 1_556 S
O260 Co236 2.097 . S
O260 C288 1.214 . S
H261 C289 0.929 . S
H262 C290 0.929 . S
H263 C291 0.930 . S
H264 C292 0.929 . S
H265 C294 0.930 . S
H266 C271 0.930 . S
H267 C275 0.930 . S
O268 Co237 2.037 . S
O268 C288 1.234 . S
C269 O243 1.269 . S
C269 O244 1.257 . S
C270 H245 0.930 . S
C270 C273 1.388 . S
C270 C275 1.418 . S
C271 H266 0.930 . S
C271 C274 1.404 . S
C271 C275 1.353 . S
N272 Co237 2.145 . S
N272 C273 1.397 . S
N272 C274 1.334 . S
C273 H254 0.929 . S
C273 C270 1.388 . S
C273 N272 1.397 . S
C274 H255 0.929 . S
C274 C271 1.404 . S
C274 N272 1.334 . S
C275 H267 0.930 . S
C275 C270 1.418 . S
C275 C271 1.353 . S
C276 H246 0.930 . S
C276 N277 1.330 . S
C276 C278 1.446 . S
N277 Co236 2.151 . S
N277 C276 1.330 . S
N277 C281 1.418 . S
C278 H257 0.929 . S
C278 C276 1.446 . S
C278 C279 1.332 . S
C279 H259 0.931 1_554 S
C279 C278 1.332 . S
C279 C280 1.267 . S
C280 H248 0.929 . S
C280 C279 1.267 . S
C280 C281 1.251 . S
C281 H251 0.929 . S
C281 N277 1.418 . S
C281 C280 1.251 . S
C282 H249 0.930 . S
C282 C284 1.406 . S
C282 C287 1.261 . S
C283 H250 0.930 . S
C283 N285 1.325 . S
C283 C286 1.357 . S
C284 H252 0.928 . S
C284 C282 1.406 . S
C284 N285 1.261 . S
N285 Co236 2.214 . S
N285 C283 1.325 . S
N285 C284 1.261 . S
C286 H256 0.931 . S
C286 C283 1.357 . S
C286 C287 1.312 . S
C287 H258 0.930 . S
C287 C282 1.261 . S
C287 C286 1.312 . S
C288 O260 1.214 . S
C288 O268 1.234 . S
C289 H261 0.929 . S
C289 C292 1.391 . S
C289 C294 1.391 . S
C290 H262 0.929 . S
C290 C291 1.390 . S
C290 N293 1.391 . S
C291 H263 0.930 . S
C291 C290 1.390 . S
C291 C292 1.392 . S
C292 H264 0.929 . S
C292 C289 1.391 . S
C292 C291 1.392 . S
N293 Co237 2.257 . S
N293 C290 1.391 . S
N293 C294 1.388 . S
C294 H265 0.930 . S
C294 C289 1.391 . S
C294 N293 1.388 . S
Co295 O297 2.143 . S
Co295 O303 2.074 . S
Co295 O306 2.093 . S
Co295 O319 2.097 1_556 S
Co295 N336 2.151 . S
Co295 N344 2.214 . S
Co296 O297 2.160 1_554 S
Co296 O302 2.058 . S
Co296 O312 2.057 . S
Co296 O327 2.037 . S
Co296 N331 2.145 . S
Co296 N352 2.257 . S
O297 Co295 2.143 . S
O297 Co296 2.160 1_556 S
C298 O299 1.278 . S
C298 O306 1.224 . S
O299 C298 1.278 . S
C300 O301 1.245 . S
C300 O312 1.232 1_556 S
O301 C300 1.245 . S
O302 Co296 2.058 . S
O302 C328 1.269 1_554 S
O303 Co295 2.074 . S
O303 C328 1.257 . S
H304 C329 0.930 . S
H305 C335 0.930 . S
O306 Co295 2.093 . S
O306 C298 1.224 . S
H307 C339 0.929 . S
H308 C341 0.930 . S
H309 C342 0.930 . S
H310 C340 0.929 . S
H311 C343 0.928 . S
O312 Co296 2.057 . S
O312 C300 1.232 1_554 S
H313 C332 0.929 . S
H314 C333 0.929 . S
H315 C345 0.931 . S
H316 C337 0.929 . S
H317 C346 0.930 . S
H318 C338 0.931 . S
O319 Co295 2.097 1_554 S
O319 C347 1.214 . S
H320 C348 0.929 . S
H321 C349 0.929 . S
H322 C350 0.930 . S
H323 C351 0.929 . S
H324 C353 0.930 . S
H325 C330 0.930 . S
H326 C334 0.930 . S
O327 Co296 2.037 . S
O327 C347 1.234 . S
C328 O302 1.269 1_556 S
C328 O303 1.257 . S
C329 H304 0.930 . S
C329 C332 1.388 . S
C329 C334 1.418 . S
C330 H325 0.930 . S
C330 C333 1.404 . S
C330 C334 1.353 . S
N331 Co296 2.145 . S
N331 C332 1.397 . S
N331 C333 1.334 . S
C332 H313 0.929 . S
C332 C329 1.388 . S
C332 N331 1.397 . S
C333 H314 0.929 . S
C333 C330 1.404 . S
C333 N331 1.334 . S
C334 H326 0.930 . S
C334 C329 1.418 . S
C334 C330 1.353 . S
C335 H305 0.930 . S
C335 N336 1.330 . S
C335 C337 1.446 . S
N336 Co295 2.151 . S
N336 C335 1.330 . S
N336 C340 1.418 . S
C337 H316 0.929 . S
C337 C335 1.446 . S
C337 C338 1.332 . S
C338 H318 0.931 . S
C338 C337 1.332 . S
C338 C339 1.267 . S
C339 H307 0.929 . S
C339 C338 1.267 . S
C339 C340 1.251 . S
C340 H310 0.929 . S
C340 N336 1.418 . S
C340 C339 1.251 . S
C341 H308 0.930 . S
C341 C343 1.406 . S
C341 C346 1.261 . S
C342 H309 0.930 . S
C342 N344 1.325 1_554 S
C342 C345 1.357 . S
C343 H311 0.928 . S
C343 C341 1.406 . S
C343 N344 1.261 . S
N344 Co295 2.214 . S
N344 C342 1.325 1_556 S
N344 C343 1.261 . S
C345 H315 0.931 . S
C345 C342 1.357 . S
C345 C346 1.312 1_554 S
C346 H317 0.930 . S
C346 C341 1.261 . S
C346 C345 1.312 1_556 S
C347 O319 1.214 . S
C347 O327 1.234 . S
C348 H320 0.929 . S
C348 C351 1.391 . S
C348 C353 1.391 . S
C349 H321 0.929 . S
C349 C350 1.390 . S
C349 N352 1.391 . S
C350 H322 0.930 . S
C350 C349 1.390 . S
C350 C351 1.392 . S
C351 H323 0.929 . S
C351 C348 1.391 . S
C351 C350 1.392 . S
N352 Co296 2.257 . S
N352 C349 1.391 . S
N352 C353 1.388 . S
C353 H324 0.930 . S
C353 C348 1.391 . S
C353 N352 1.388 . S
H354 C355 0.951 . S
C355 H354 0.951 . S
C355 C361 1.265 . S
H356 C361 0.950 . S
H357 C365 0.949 . S
H358 C366 0.950 . S
H359 C367 0.951 . S
H360 C368 0.951 . S
C361 C355 1.265 . S
C361 H356 0.950 . S
C361 C362 1.478 . S
C362 C361 1.478 . S
C362 C363 1.397 1_554 S
C362 C379 1.394 . S
C363 C362 1.397 1_556 S
C363 C364 1.438 . S
C363 C368 1.429 . S
C364 C363 1.438 . S
C364 C365 1.428 . S
C364 C377 1.394 1_556 S
C365 H357 0.949 . S
C365 C364 1.428 . S
C365 C366 1.345 . S
C366 H358 0.950 . S
C366 C365 1.345 . S
C366 C367 1.424 . S
C367 H359 0.951 . S
C367 C366 1.424 . S
C367 C368 1.347 . S
C368 H360 0.951 . S
C368 C363 1.429 . S
C368 C367 1.347 . S
H369 C370 0.951 . S
C370 H369 0.951 . S
C370 C376 1.265 1_556 S
H371 C376 0.950 . S
H372 C380 0.949 . S
H373 C381 0.950 . S
H374 C382 0.951 . S
H375 C383 0.951 . S
C376 C370 1.265 1_554 S
C376 H371 0.950 . S
C376 C377 1.478 . S
C377 C364 1.394 1_554 S
C377 C376 1.478 . S
C377 C378 1.397 . S
C378 C377 1.397 . S
C378 C379 1.438 . S
C378 C383 1.429 . S
C379 C362 1.394 . S
C379 C378 1.438 . S
C379 C380 1.428 . S
C380 H372 0.949 . S
C380 C379 1.428 . S
C380 C381 1.345 . S
C381 H373 0.950 . S
C381 C380 1.345 . S
C381 C382 1.424 . S
C382 H374 0.951 . S
C382 C381 1.424 . S
C382 C383 1.347 . S
C383 H375 0.951 . S
C383 C378 1.429 . S
C383 C382 1.347 . S
H384 C385 0.951 . S
C385 H384 0.951 . S
C385 C391 1.265 1_655 S
H386 C391 0.950 . S
H387 C395 0.949 . S
H388 C396 0.950 . S
H389 C397 0.951 . S
H390 C398 0.951 . S
C391 C385 1.265 1_455 S
C391 H386 0.950 . S
C391 C392 1.478 . S
C392 C391 1.478 . S
C392 C393 1.397 . S
C392 C409 1.394 . S
C393 C392 1.397 . S
C393 C394 1.438 . S
C393 C398 1.429 . S
C394 C393 1.438 . S
C394 C395 1.428 . S
C394 C407 1.394 . S
C395 H387 0.949 . S
C395 C394 1.428 . S
C395 C396 1.345 . S
C396 H388 0.950 . S
C396 C395 1.345 . S
C396 C397 1.424 . S
C397 H389 0.951 . S
C397 C396 1.424 . S
C397 C398 1.347 . S
C398 H390 0.951 . S
C398 C393 1.429 . S
C398 C397 1.347 . S
H399 C400 0.951 . S
C400 H399 0.951 . S
C400 C406 1.265 . S
H401 C406 0.950 . S
H402 C410 0.949 . S
H403 C411 0.950 . S
H404 C412 0.951 . S
H405 C413 0.951 . S
C406 C400 1.265 . S
C406 H401 0.950 . S
C406 C407 1.478 . S
C407 C394 1.394 . S
C407 C406 1.478 . S
C407 C408 1.397 . S
C408 C407 1.397 . S
C408 C409 1.438 . S
C408 C413 1.429 . S
C409 C392 1.394 . S
C409 C408 1.438 . S
C409 C410 1.428 1_455 S
C410 H402 0.949 . S
C410 C409 1.428 1_655 S
C410 C411 1.345 . S
C411 H403 0.950 . S
C411 C410 1.345 . S
C411 C412 1.424 . S
C412 H404 0.951 . S
C412 C411 1.424 . S
C412 C413 1.347 1_655 S
C413 H405 0.951 . S
C413 C408 1.429 . S
C413 C412 1.347 1_455 S
H414 C415 0.951 . S
C415 H414 0.951 . S
C415 C421 1.265 . S
H416 C421 0.950 . S
H417 C425 0.949 . S
H418 C426 0.950 1_565 S
H419 C427 0.951 . S
H420 C428 0.951 . S
C421 C415 1.265 . S
C421 H416 0.950 . S
C421 C422 1.478 . S
C422 C421 1.478 . S
C422 C423 1.397 . S
C422 C439 1.394 . S
C423 C422 1.397 . S
C423 C424 1.438 . S
C423 C428 1.429 . S
C424 C423 1.438 . S
C424 C425 1.428 1_545 S
C424 C437 1.394 1_545 S
C425 H417 0.949 . S
C425 C424 1.428 1_565 S
C425 C426 1.345 1_565 S
C426 H418 0.950 1_545 S
C426 C425 1.345 1_545 S
C426 C427 1.424 . S
C427 H419 0.951 . S
C427 C426 1.424 . S
C427 C428 1.347 . S
C428 H420 0.951 . S
C428 C423 1.429 . S
C428 C427 1.347 . S
H429 C430 0.951 . S
C430 H429 0.951 . S
C430 C436 1.265 . S
H431 C436 0.950 . S
H432 C440 0.949 . S
H433 C441 0.950 . S
H434 C442 0.951 . S
H435 C443 0.951 . S
C436 C430 1.265 . S
C436 H431 0.950 . S
C436 C437 1.478 . S
C437 C424 1.394 1_565 S
C437 C436 1.478 . S
C437 C438 1.397 1_565 S
C438 C437 1.397 1_545 S
C438 C439 1.438 . S
C438 C443 1.429 1_545 S
C439 C422 1.394 . S
C439 C438 1.438 . S
C439 C440 1.428 . S
C440 H432 0.949 . S
C440 C439 1.428 . S
C440 C441 1.345 . S
C441 H433 0.950 . S
C441 C440 1.345 . S
C441 C442 1.424 . S
C442 H434 0.951 . S
C442 C441 1.424 . S
C442 C443 1.347 1_545 S
C443 H435 0.951 . S
C443 C438 1.429 1_565 S
C443 C442 1.347 1_565 S
H444 C445 0.951 . S
C445 H444 0.951 . S
C445 C451 1.265 . S
H446 C451 0.950 . S
H447 C455 0.949 . S
H448 C456 0.950 . S
H449 C457 0.951 . S
H450 C458 0.951 . S
C451 C445 1.265 . S
C451 H446 0.950 . S
C451 C452 1.478 . S
C452 C451 1.478 . S
C452 C453 1.397 . S
C452 C469 1.394 . S
C453 C452 1.397 . S
C453 C454 1.438 1_554 S
C453 C458 1.429 . S
C454 C453 1.438 1_556 S
C454 C455 1.428 . S
C454 C467 1.394 . S
C455 H447 0.949 . S
C455 C454 1.428 . S
C455 C456 1.345 . S
C456 H448 0.950 . S
C456 C455 1.345 . S
C456 C457 1.424 1_556 S
C457 H449 0.951 . S
C457 C456 1.424 1_554 S
C457 C458 1.347 . S
C458 H450 0.951 . S
C458 C453 1.429 . S
C458 C457 1.347 . S
H459 C460 0.951 . S
C460 H459 0.951 . S
C460 C466 1.265 . S
H461 C466 0.950 . S
H462 C470 0.949 . S
H463 C471 0.950 . S
H464 C472 0.951 . S
H465 C473 0.951 . S
C466 C460 1.265 . S
C466 H461 0.950 . S
C466 C467 1.478 . S
C467 C454 1.394 . S
C467 C466 1.478 . S
C467 C468 1.397 . S
C468 C467 1.397 . S
C468 C469 1.438 1_556 S
C468 C473 1.429 . S
C469 C452 1.394 . S
C469 C468 1.438 1_554 S
C469 C470 1.428 . S
C470 H462 0.949 . S
C470 C469 1.428 . S
C470 C471 1.345 . S
C471 H463 0.950 . S
C471 C470 1.345 . S
C471 C472 1.424 1_554 S
C472 H464 0.951 . S
C472 C471 1.424 1_556 S
C472 C473 1.347 . S
C473 H465 0.951 . S
C473 C468 1.429 . S
C473 C472 1.347 . S
H474 C475 0.951 . S
C475 H474 0.951 . S
C475 C481 1.265 . S
H476 C481 0.950 . S
H477 C485 0.949 . S
H478 C486 0.950 . S
H479 C487 0.951 . S
H480 C488 0.951 . S
C481 C475 1.265 . S
C481 H476 0.950 . S
C481 C482 1.478 . S
C482 C481 1.478 . S
C482 C483 1.397 . S
C482 C499 1.394 . S
C483 C482 1.397 . S
C483 C484 1.438 . S
C483 C488 1.429 . S
C484 C483 1.438 . S
C484 C485 1.428 1_655 S
C484 C497 1.394 1_655 S
C485 H477 0.949 . S
C485 C484 1.428 1_455 S
C485 C486 1.345 . S
C486 H478 0.950 . S
C486 C485 1.345 . S
C486 C487 1.424 1_455 S
C487 H479 0.951 . S
C487 C486 1.424 1_655 S
C487 C488 1.347 . S
C488 H480 0.951 . S
C488 C483 1.429 . S
C488 C487 1.347 . S
H489 C490 0.951 . S
C490 H489 0.951 . S
C490 C496 1.265 . S
H491 C496 0.950 . S
H492 C500 0.949 . S
H493 C501 0.950 . S
H494 C502 0.951 . S
H495 C503 0.951 1_455 S
C496 C490 1.265 . S
C496 H491 0.950 . S
C496 C497 1.478 . S
C497 C484 1.394 1_455 S
C497 C496 1.478 . S
C497 C498 1.397 1_455 S
C498 C497 1.397 1_655 S
C498 C499 1.438 . S
C498 C503 1.429 . S
C499 C482 1.394 . S
C499 C498 1.438 . S
C499 C500 1.428 . S
C500 H492 0.949 . S
C500 C499 1.428 . S
C500 C501 1.345 . S
C501 H493 0.950 . S
C501 C500 1.345 . S
C501 C502 1.424 . S
C502 H494 0.951 . S
C502 C501 1.424 . S
C502 C503 1.347 . S
C503 H495 0.951 1_655 S
C503 C498 1.429 . S
C503 C502 1.347 . S
H504 C505 0.951 1_565 S
C505 H504 0.951 1_545 S
C505 C511 1.265 . S
H506 C511 0.950 . S
H507 C515 0.949 . S
H508 C516 0.950 . S
H509 C517 0.951 . S
H510 C518 0.951 . S
C511 C505 1.265 . S
C511 H506 0.950 . S
C511 C512 1.478 1_545 S
C512 C511 1.478 1_565 S
C512 C513 1.397 1_565 S
C512 C529 1.394 . S
C513 C512 1.397 1_545 S
C513 C514 1.438 1_545 S
C513 C518 1.429 . S
C514 C513 1.438 1_565 S
C514 C515 1.428 1_565 S
C514 C527 1.394 . S
C515 H507 0.949 . S
C515 C514 1.428 1_545 S
C515 C516 1.345 . S
C516 H508 0.950 . S
C516 C515 1.345 . S
C516 C517 1.424 . S
C517 H509 0.951 . S
C517 C516 1.424 . S
C517 C518 1.347 . S
C518 H510 0.951 . S
C518 C513 1.429 . S
C518 C517 1.347 . S
H519 C520 0.951 . S
C520 H519 0.951 . S
C520 C526 1.265 . S
H521 C526 0.950 . S
H522 C530 0.949 . S
H523 C531 0.950 . S
H524 C532 0.951 . S
H525 C533 0.951 . S
C526 C520 1.265 . S
C526 H521 0.950 . S
C526 C527 1.478 . S
C527 C514 1.394 . S
C527 C526 1.478 . S
C527 C528 1.397 . S
C528 C527 1.397 . S
C528 C529 1.438 . S
C528 C533 1.429 . S
C529 C512 1.394 . S
C529 C528 1.438 . S
C529 C530 1.428 . S
C530 H522 0.949 . S
C530 C529 1.428 . S
C530 C531 1.345 . S
C531 H523 0.950 . S
C531 C530 1.345 . S
C531 C532 1.424 . S
C532 H524 0.951 . S
C532 C531 1.424 . S
C532 C533 1.347 . S
C533 H525 0.951 . S
C533 C528 1.429 . S
C533 C532 1.347 . S
H534 C535 0.951 . S
C535 H534 0.951 . S
C535 C541 1.265 . S
H536 C541 0.950 . S
H537 C545 0.949 . S
H538 C546 0.950 . S
H539 C547 0.951 . S
H540 C548 0.951 . S
C541 C535 1.265 . S
C541 H536 0.950 . S
C541 C542 1.478 . S
C542 C541 1.478 . S
C542 C543 1.397 . S
C542 C559 1.394 . S
C543 C542 1.397 . S
C543 C544 1.438 . S
C543 C548 1.429 . S
C544 C543 1.438 . S
C544 C545 1.428 . S
C544 C557 1.394 . S
C545 H537 0.949 . S
C545 C544 1.428 . S
C545 C546 1.345 . S
C546 H538 0.950 . S
C546 C545 1.345 . S
C546 C547 1.424 . S
C547 H539 0.951 . S
C547 C546 1.424 . S
C547 C548 1.347 . S
C548 H540 0.951 . S
C548 C543 1.429 . S
C548 C547 1.347 . S
H549 C550 0.951 . S
C550 H549 0.951 . S
C550 C556 1.265 . S
H551 C556 0.950 . S
H552 C560 0.949 . S
H553 C561 0.950 . S
H554 C562 0.951 . S
H555 C563 0.951 . S
C556 C550 1.265 . S
C556 H551 0.950 . S
C556 C557 1.478 . S
C557 C544 1.394 . S
C557 C556 1.478 . S
C557 C558 1.397 . S
C558 C557 1.397 . S
C558 C559 1.438 . S
C558 C563 1.429 1_554 S
C559 C542 1.394 . S
C559 C558 1.438 . S
C559 C560 1.428 1_554 S
C560 H552 0.949 . S
C560 C559 1.428 1_556 S
C560 C561 1.345 . S
C561 H553 0.950 . S
C561 C560 1.345 . S
C561 C562 1.424 . S
C562 H554 0.951 . S
C562 C561 1.424 . S
C562 C563 1.347 . S
C563 H555 0.951 . S
C563 C558 1.429 1_556 S
C563 C562 1.347 . S
H564 C565 0.951 . S
C565 H564 0.951 . S
C565 C571 1.265 . S
H566 C571 0.950 . S
H567 C575 0.949 . S
H568 C576 0.950 . S
H569 C577 0.951 . S
H570 C578 0.951 . S
C571 C565 1.265 . S
C571 H566 0.950 . S
C571 C572 1.478 . S
C572 C571 1.478 . S
C572 C573 1.397 . S
C572 C589 1.394 . S
C573 C572 1.397 . S
C573 C574 1.438 . S
C573 C578 1.429 . S
C574 C573 1.438 . S
C574 C575 1.428 . S
C574 C587 1.394 . S
C575 H567 0.949 . S
C575 C574 1.428 . S
C575 C576 1.345 . S
C576 H568 0.950 . S
C576 C575 1.345 . S
C576 C577 1.424 . S
C577 H569 0.951 . S
C577 C576 1.424 . S
C577 C578 1.347 . S
C578 H570 0.951 . S
C578 C573 1.429 . S
C578 C577 1.347 . S
H579 C580 0.951 . S
C580 H579 0.951 . S
C580 C586 1.265 . S
H581 C586 0.950 . S
H582 C590 0.948 1_554 S
H583 C591 0.950 . S
H584 C592 0.951 . S
H585 C593 0.951 . S
C586 C580 1.265 . S
C586 H581 0.950 . S
C586 C587 1.478 . S
C587 C574 1.394 . S
C587 C586 1.478 . S
C587 C588 1.397 . S
C588 C587 1.397 . S
C588 C589 1.438 . S
C588 C593 1.429 . S
C589 C572 1.394 . S
C589 C588 1.438 . S
C589 C590 1.432 . S
C590 H582 0.948 1_556 S
C590 C589 1.432 . S
C590 C591 1.341 1_556 S
C591 H583 0.950 . S
C591 C590 1.341 1_554 S
C591 C592 1.424 . S
C592 H584 0.951 . S
C592 C591 1.424 . S
C592 C593 1.347 1_554 S
C593 H585 0.951 . S
C593 C588 1.429 . S
C593 C592 1.347 1_556 S
H594 C595 0.951 . S
C595 H594 0.951 . S
C595 C601 1.265 . S
H596 C601 0.950 . S
H597 C605 0.949 . S
H598 C606 0.950 . S
H599 C607 0.951 . S
H600 C608 0.951 . S
C601 C595 1.265 . S
C601 H596 0.950 . S
C601 C602 1.478 . S
C602 C601 1.478 . S
C602 C603 1.397 . S
C602 C619 1.394 . S
C603 C602 1.397 . S
C603 C604 1.438 . S
C603 C608 1.429 . S
C604 C603 1.438 . S
C604 C605 1.428 . S
C604 C617 1.394 . S
C605 H597 0.949 . S
C605 C604 1.428 . S
C605 C606 1.345 . S
C606 H598 0.950 . S
C606 C605 1.345 . S
C606 C607 1.424 . S
C607 H599 0.951 . S
C607 C606 1.424 . S
C607 C608 1.347 . S
C608 H600 0.951 . S
C608 C603 1.429 . S
C608 C607 1.347 . S
H609 C610 0.951 . S
C610 H609 0.951 . S
C610 C616 1.265 . S
H611 C616 0.950 . S
H612 C620 0.949 . S
H613 C621 0.950 . S
H614 C622 0.951 1_554 S
H615 C623 0.951 . S
C616 C610 1.265 . S
C616 H611 0.950 . S
C616 C617 1.478 . S
C617 C604 1.394 . S
C617 C616 1.478 . S
C617 C618 1.397 . S
C618 C617 1.397 . S
C618 C619 1.438 . S
C618 C623 1.429 . S
C619 C602 1.394 . S
C619 C618 1.438 . S
C619 C620 1.428 . S
C620 H612 0.949 . S
C620 C619 1.428 . S
C620 C621 1.345 . S
C621 H613 0.950 . S
C621 C620 1.345 . S
C621 C622 1.424 . S
C622 H614 0.951 1_556 S
C622 C621 1.424 . S
C622 C623 1.347 . S
C623 H615 0.951 . S
C623 C618 1.429 . S
C623 C622 1.347 . S
H624 C625 0.951 . S
C625 H624 0.951 . S
C625 C631 1.265 . S
H626 C631 0.950 . S
H627 C635 0.949 . S
H628 C636 0.950 . S
H629 C637 0.951 . S
H630 C638 0.951 . S
C631 C625 1.265 . S
C631 H626 0.950 . S
C631 C632 1.478 . S
C632 C631 1.478 . S
C632 C633 1.397 . S
C632 C649 1.394 . S
C633 C632 1.397 . S
C633 C634 1.438 . S
C633 C638 1.429 . S
C634 C633 1.438 . S
C634 C635 1.428 . S
C634 C647 1.394 . S
C635 H627 0.949 . S
C635 C634 1.428 . S
C635 C636 1.345 . S
C636 H628 0.950 . S
C636 C635 1.345 . S
C636 C637 1.424 . S
C637 H629 0.951 . S
C637 C636 1.424 . S
C637 C638 1.347 . S
C638 H630 0.951 . S
C638 C633 1.429 . S
C638 C637 1.347 . S
H639 C640 0.951 . S
C640 H639 0.951 . S
C640 C646 1.265 . S
H641 C646 0.950 . S
H642 C650 0.949 . S
H643 C651 0.950 . S
H644 C652 0.951 . S
H645 C653 0.951 . S
C646 C640 1.265 . S
C646 H641 0.950 . S
C646 C647 1.478 . S
C647 C634 1.394 . S
C647 C646 1.478 . S
C647 C648 1.397 . S
C648 C647 1.397 . S
C648 C649 1.438 . S
C648 C653 1.429 . S
C649 C632 1.394 . S
C649 C648 1.438 . S
C649 C650 1.428 . S
C650 H642 0.949 . S
C650 C649 1.428 . S
C650 C651 1.345 . S
C651 H643 0.950 . S
C651 C650 1.345 . S
C651 C652 1.424 . S
C652 H644 0.951 . S
C652 C651 1.424 . S
C652 C653 1.347 . S
C653 H645 0.951 . S
C653 C648 1.429 . S
C653 C652 1.347 . S
H654 C655 0.951 . S
C655 H654 0.951 . S
C655 C661 1.265 . S
H656 C661 0.950 . S
H657 C665 0.949 . S
H658 C666 0.950 . S
H659 C667 0.951 . S
H660 C668 0.951 . S
C661 C655 1.265 . S
C661 H656 0.950 . S
C661 C662 1.478 . S
C662 C661 1.478 . S
C662 C663 1.397 . S
C662 C679 1.394 . S
C663 C662 1.397 . S
C663 C664 1.438 . S
C663 C668 1.429 . S
C664 C663 1.438 . S
C664 C665 1.428 . S
C664 C677 1.394 . S
C665 H657 0.949 . S
C665 C664 1.428 . S
C665 C666 1.345 . S
C666 H658 0.950 . S
C666 C665 1.345 . S
C666 C667 1.424 . S
C667 H659 0.951 . S
C667 C666 1.424 . S
C667 C668 1.347 . S
C668 H660 0.951 . S
C668 C663 1.429 . S
C668 C667 1.347 . S
H669 C670 0.951 . S
C670 H669 0.951 . S
C670 C676 1.265 . S
H671 C676 0.950 . S
H672 C680 0.949 . S
H673 C681 0.950 . S
H674 C682 0.951 . S
H675 C683 0.951 . S
C676 C670 1.265 . S
C676 H671 0.950 . S
C676 C677 1.478 . S
C677 C664 1.394 . S
C677 C676 1.478 . S
C677 C678 1.397 . S
C678 C677 1.397 . S
C678 C679 1.438 . S
C678 C683 1.429 . S
C679 C662 1.394 . S
C679 C678 1.438 . S
C679 C680 1.428 . S
C680 H672 0.949 . S
C680 C679 1.428 . S
C680 C681 1.345 . S
C681 H673 0.950 . S
C681 C680 1.345 . S
C681 C682 1.424 . S
C682 H674 0.951 . S
C682 C681 1.424 . S
C682 C683 1.347 . S
C683 H675 0.951 . S
C683 C678 1.429 . S
C683 C682 1.347 . S
H684 C685 0.951 . S
C685 H684 0.951 . S
C685 C691 1.265 . S
H686 C691 0.950 . S
H687 C695 0.949 . S
H688 C696 0.950 . S
H689 C697 0.951 . S
H690 C698 0.951 . S
C691 C685 1.265 . S
C691 H686 0.950 . S
C691 C692 1.478 . S
C692 C691 1.478 . S
C692 C693 1.397 . S
C692 C709 1.394 . S
C693 C692 1.397 . S
C693 C694 1.438 . S
C693 C698 1.429 . S
C694 C693 1.438 . S
C694 C695 1.428 . S
C694 C707 1.394 . S
C695 H687 0.949 . S
C695 C694 1.428 . S
C695 C696 1.345 . S
C696 H688 0.950 . S
C696 C695 1.345 . S
C696 C697 1.424 . S
C697 H689 0.951 . S
C697 C696 1.424 . S
C697 C698 1.347 . S
C698 H690 0.951 . S
C698 C693 1.429 . S
C698 C697 1.347 . S
H699 C700 0.951 . S
C700 H699 0.951 . S
C700 C706 1.265 . S
H701 C706 0.950 . S
H702 C710 0.949 . S
H703 C711 0.950 . S
H704 C712 0.951 . S
H705 C713 0.951 . S
C706 C700 1.265 . S
C706 H701 0.950 . S
C706 C707 1.478 . S
C707 C694 1.394 . S
C707 C706 1.478 . S
C707 C708 1.397 . S
C708 C707 1.397 . S
C708 C709 1.438 . S
C708 C713 1.429 . S
C709 C692 1.394 . S
C709 C708 1.438 . S
C709 C710 1.428 . S
C710 H702 0.949 . S
C710 C709 1.428 . S
C710 C711 1.345 . S
C711 H703 0.950 . S
C711 C710 1.345 . S
C711 C712 1.424 . S
C712 H704 0.951 . S
C712 C711 1.424 . S
C712 C713 1.347 . S
C713 H705 0.951 . S
C713 C708 1.429 . S
C713 C712 1.347 . S
C355 C5 1.349 . S
C370 C328 1.372 . S
C385 C64 2.117 . S
C400 C33 2.116 . S
C415 C92 1.416 . S
C430 C123 1.395 . S
C445 C182 2.128 . S
C460 C151 2.113 . S
C475 C210 1.405 . S
C490 C241 1.423 . S
C505 C300 2.191 . S
C520 C269 2.183 . S
C535 C239 1.516 . S
C550 C52 1.622 . S
C565 C298 1.569 . S
C580 C111 1.506 . S
C595 C170 1.647 . S
C610 C3 1.520 . S
C625 C229 1.491 . S
C640 C62 1.615 . S
C655 C288 1.615 . S
C670 C121 1.521 . S
C685 C347 1.460 . S
C700 C180 1.598 . S
