# Generated by pormake.
# Topology unn, (4)-cn, num edge types: 1
# Building blocks:
#     Node 0, Type 0, BuildingBlock: KOZSID_clean_sbu_0, # of connection points: 4
#     Node 1, Type 0, BuildingBlock: KOZSID_clean_sbu_0, # of connection points: 4
#     Node 2, Type 0, BuildingBlock: KOZSID_clean_sbu_0, # of connection points: 4
#     Node 3, Type 0, BuildingBlock: KOZSID_clean_sbu_0, # of connection points: 4
#     Node 4, Type 0, BuildingBlock: KOZSID_clean_sbu_0, # of connection points: 4
#     Node 5, Type 0, BuildingBlock: KOZSID_clean_sbu_0, # of connection points: 4
#     Node 6, Type 0, BuildingBlock: KOZSID_clean_sbu_0, # of connection points: 4
#     Node 7, Type 0, BuildingBlock: KOZSID_clean_sbu_0, # of connection points: 4
#     Node 8, Type 0, BuildingBlock: KOZSID_clean_sbu_0, # of connection points: 4
#     Node 9, Type 0, BuildingBlock: KOZSID_clean_sbu_0, # of connection points: 4
#     Node 10, Type 0, BuildingBlock: KOZSID_clean_sbu_0, # of connection points: 4
#     Node 11, Type 0, BuildingBlock: KOZSID_clean_sbu_0, # of connection points: 4
#     Node 12, Type 0, BuildingBlock: KOZSID_clean_sbu_0, # of connection points: 4
#     Node 13, Type 0, BuildingBlock: KOZSID_clean_sbu_0, # of connection points: 4
#     Node 14, Type 0, BuildingBlock: KOZSID_clean_sbu_0, # of connection points: 4
#     Node 15, Type 0, BuildingBlock: KOZSID_clean_sbu_0, # of connection points: 4
#     Node 16, Type 0, BuildingBlock: KOZSID_clean_sbu_0, # of connection points: 4
#     Node 17, Type 0, BuildingBlock: KOZSID_clean_sbu_0, # of connection points: 4
#     Edge 18, Type (0, 0), BuildingBlock: MIFKUJ_clean_linker_0, # of connection points: 2
#     Edge 19, Type (0, 0), BuildingBlock: MIFKUJ_clean_linker_0, # of connection points: 2
#     Edge 20, Type (0, 0), BuildingBlock: MIFKUJ_clean_linker_0, # of connection points: 2
#     Edge 21, Type (0, 0), BuildingBlock: MIFKUJ_clean_linker_0, # of connection points: 2
#     Edge 22, Type (0, 0), BuildingBlock: MIFKUJ_clean_linker_0, # of connection points: 2
#     Edge 23, Type (0, 0), BuildingBlock: MIFKUJ_clean_linker_0, # of connection points: 2
#     Edge 24, Type (0, 0), BuildingBlock: MIFKUJ_clean_linker_0, # of connection points: 2
#     Edge 25, Type (0, 0), BuildingBlock: MIFKUJ_clean_linker_0, # of connection points: 2
#     Edge 26, Type (0, 0), BuildingBlock: MIFKUJ_clean_linker_0, # of connection points: 2
#     Edge 27, Type (0, 0), BuildingBlock: MIFKUJ_clean_linker_0, # of connection points: 2
#     Edge 28, Type (0, 0), BuildingBlock: MIFKUJ_clean_linker_0, # of connection points: 2
#     Edge 29, Type (0, 0), BuildingBlock: MIFKUJ_clean_linker_0, # of connection points: 2
#     Edge 30, Type (0, 0), BuildingBlock: MIFKUJ_clean_linker_0, # of connection points: 2
#     Edge 31, Type (0, 0), BuildingBlock: MIFKUJ_clean_linker_0, # of connection points: 2
#     Edge 32, Type (0, 0), BuildingBlock: MIFKUJ_clean_linker_0, # of connection points: 2
#     Edge 33, Type (0, 0), BuildingBlock: MIFKUJ_clean_linker_0, # of connection points: 2
#     Edge 34, Type (0, 0), BuildingBlock: MIFKUJ_clean_linker_0, # of connection points: 2
#     Edge 35, Type (0, 0), BuildingBlock: MIFKUJ_clean_linker_0, # of connection points: 2
#     Edge 36, Type (0, 0), BuildingBlock: MIFKUJ_clean_linker_0, # of connection points: 2
#     Edge 37, Type (0, 0), BuildingBlock: MIFKUJ_clean_linker_0, # of connection points: 2
#     Edge 38, Type (0, 0), BuildingBlock: MIFKUJ_clean_linker_0, # of connection points: 2
#     Edge 39, Type (0, 0), BuildingBlock: MIFKUJ_clean_linker_0, # of connection points: 2
#     Edge 40, Type (0, 0), BuildingBlock: MIFKUJ_clean_linker_0, # of connection points: 2
#     Edge 41, Type (0, 0), BuildingBlock: MIFKUJ_clean_linker_0, # of connection points: 2
#     Edge 42, Type (0, 0), BuildingBlock: MIFKUJ_clean_linker_0, # of connection points: 2
#     Edge 43, Type (0, 0), BuildingBlock: MIFKUJ_clean_linker_0, # of connection points: 2
#     Edge 44, Type (0, 0), BuildingBlock: MIFKUJ_clean_linker_0, # of connection points: 2
#     Edge 45, Type (0, 0), BuildingBlock: MIFKUJ_clean_linker_0, # of connection points: 2
#     Edge 46, Type (0, 0), BuildingBlock: MIFKUJ_clean_linker_0, # of connection points: 2
#     Edge 47, Type (0, 0), BuildingBlock: MIFKUJ_clean_linker_0, # of connection points: 2
#     Edge 48, Type (0, 0), BuildingBlock: MIFKUJ_clean_linker_0, # of connection points: 2
#     Edge 49, Type (0, 0), BuildingBlock: MIFKUJ_clean_linker_0, # of connection points: 2
#     Edge 50, Type (0, 0), BuildingBlock: MIFKUJ_clean_linker_0, # of connection points: 2
#     Edge 51, Type (0, 0), BuildingBlock: MIFKUJ_clean_linker_0, # of connection points: 2
#     Edge 52, Type (0, 0), BuildingBlock: MIFKUJ_clean_linker_0, # of connection points: 2
#     Edge 53, Type (0, 0), BuildingBlock: MIFKUJ_clean_linker_0, # of connection points: 2
# Relax obj value: 0.026
# Max RMSD: 0.224
# Mean RMSD: 0.204
data_MOF--net-unn--node1-KOZSID_clean_sbu_0--edge1-MIFKUJ_clean_linker_0
_symmetry_space_group_name_H-M    P1
_symmetry_Int_Tables_number       1
_symmetry_cell_setting            triclinic
loop_
_symmetry_equiv_pos_as_xyz
'x, y, z'
_cell_length_a     68.418792
_cell_length_b     68.512189
_cell_length_c     63.753922
_cell_angle_alpha  89.973269
_cell_angle_beta   90.029094
_cell_angle_gamma 119.97732
loop_
_atom_site_label
_atom_site_type_symbol
_atom_site_fract_x
_atom_site_fract_y
_atom_site_fract_z
_atom_type_partial_charge
C0 C 0.99606 0.71439 0.31169 0.0
C1 C 0.99655 0.73225 0.32241 0.0
C2 C 0.00692 0.75067 0.30952 0.0
C3 C 0.01211 0.74312 0.2916 0.0
N4 N 0.00519 0.72093 0.2921 0.0
Co5 Co 0.01164 0.70445 0.26966 0.0
N6 N 0.02145 0.72951 0.24886 0.0
C7 C 0.02621 0.7506 0.25339 0.0
C8 C 0.03164 0.76411 0.23595 0.0
C9 C 0.0303 0.75072 0.21937 0.0
C10 C 0.02425 0.72971 0.22761 0.0
N11 N 0.01872 0.68823 0.24754 0.0
C12 C 0.02238 0.69212 0.22658 0.0
C13 C 0.0274 0.67678 0.21735 0.0
C14 C 0.02653 0.66265 0.23293 0.0
C15 C 0.02122 0.67019 0.25078 0.0
N16 N 1.00146 0.67892 0.2901 0.0
C17 C 0.00472 0.66119 0.28781 0.0
C18 C 0.99698 0.64648 0.30436 0.0
C19 C 0.98864 0.65559 0.3183 0.0
C20 C 0.99178 0.67552 0.30948 0.0
N21 N 0.9805 0.69157 0.25871 0.0
C22 C 0.93798 0.67615 0.2394 0.0
C23 C 0.94756 0.66219 0.24095 0.0
C24 C 0.96865 0.67009 0.25089 0.0
C25 C 0.95006 0.69776 0.24808 0.0
C26 C 0.97112 0.70512 0.2574 0.0
N27 N 0.04298 0.71831 0.28058 0.0
C28 C 0.06802 0.73286 0.31048 0.0
C29 C 0.0867 0.74602 0.29762 0.0
C30 C 0.08307 0.74382 0.27578 0.0
C31 C 0.06122 0.72984 0.26762 0.0
C32 C 0.04667 0.71913 0.30175 0.0
H33 H 0.059 0.72904 0.25083 0.0
H34 H 0.03304 0.71008 0.3125 0.0
H35 H 0.97551 0.65897 0.25188 0.0
H36 H 0.98 0.72216 0.263 0.0
C37 C 0.02206 0.75591 0.27351 0.0
C38 C 0.98899 0.69231 0.32161 0.0
C39 C 0.02236 0.71068 0.21502 0.0
C40 C 0.01464 0.6586 0.26974 0.0
H41 H 0.99065 0.73212 0.33819 0.0
H42 H 0.0103 0.76757 0.31285 0.0
H43 H 0.03526 0.78139 0.23524 0.0
H44 H 0.03333 0.75586 0.20311 0.0
H45 H 0.03124 0.67583 0.20105 0.0
H46 H 0.02859 0.64806 0.23126 0.0
H47 H 0.9977 0.63115 0.30625 0.0
H48 H 0.98211 0.64884 0.33369 0.0
H49 H 0.9388 0.64527 0.23461 0.0
H50 H 0.94364 0.70933 0.24708 0.0
H51 H 0.06946 0.7338 0.3274 0.0
H52 H 0.0969 0.75303 0.26498 0.0
C53 C 0.29171 0.30352 0.22503 0.0
C54 C 0.27449 0.28533 0.21451 0.0
C55 C 0.26698 0.26708 0.22757 0.0
C56 C 0.2799 0.27506 0.24536 0.0
N57 N 0.29479 0.29735 0.24462 0.0
Co58 Co 0.31814 0.31438 0.26659 0.0
N59 N 0.30386 0.28945 0.28762 0.0
C60 C 0.28785 0.26813 0.28335 0.0
C61 C 0.2802 0.25484 0.30095 0.0
C62 C 0.29221 0.26861 0.31736 0.0
C63 C 0.30676 0.28962 0.30887 0.0
N64 N 0.34175 0.33123 0.28826 0.0
C65 C 0.34202 0.32763 0.30923 0.0
C66 C 0.36249 0.34329 0.31808 0.0
C67 C 0.37527 0.35737 0.30226 0.0
C68 C 0.36206 0.34948 0.28466 0.0
N69 N 0.33261 0.33977 0.24591 0.0
C70 C 0.35346 0.35784 0.24781 0.0
C71 C 0.35967 0.37249 0.23125 0.0
C72 C 0.34186 0.36294 0.21768 0.0
C73 C 0.32569 0.34282 0.22671 0.0
N74 N 0.29959 0.32673 0.27793 0.0
C75 C 0.27266 0.34146 0.29865 0.0
C76 C 0.29552 0.35653 0.29411 0.0
C77 C 0.30871 0.34881 0.28389 0.0
C78 C 0.26356 0.31919 0.29181 0.0
C79 C 0.27708 0.3123 0.28141 0.0
N80 N 0.33592 0.30099 0.25529 0.0
C81 C 0.34597 0.28632 0.22518 0.0
C82 C 0.35187 0.27336 0.23792 0.0
C83 C 0.35094 0.27581 0.25978 0.0
C84 C 0.34312 0.28976 0.2681 0.0
C85 C 0.33837 0.30001 0.23407 0.0
H86 H 0.3421 0.29073 0.28492 0.0
H87 H 0.33344 0.30887 0.22343 0.0
H88 H 0.32637 0.36055 0.28125 0.0
H89 H 0.26925 0.29496 0.27672 0.0
C90 C 0.27789 0.26249 0.26342 0.0
C91 C 0.30617 0.32559 0.21488 0.0
C92 C 0.32379 0.30909 0.32115 0.0
C93 C 0.36649 0.36088 0.26563 0.0
H94 H 0.26852 0.28512 0.19874 0.0
H95 H 0.25379 0.24999 0.22439 0.0
H96 H 0.26674 0.23748 0.30191 0.0
H97 H 0.29024 0.26371 0.33369 0.0
H98 H 0.36767 0.34448 0.33429 0.0
H99 H 0.39184 0.37216 0.30363 0.0
H100 H 0.37543 0.38809 0.22912 0.0
H101 H 0.3414 0.36952 0.20238 0.0
H102 H 0.30332 0.37397 0.29902 0.0
H103 H 0.24595 0.30699 0.29454 0.0
H104 H 0.34612 0.28521 0.20825 0.0
H105 H 0.35588 0.26677 0.27049 0.0
C106 C 0.72055 0.99712 0.22467 0.0
C107 C 0.73843 0.99757 0.21397 0.0
C108 C 0.75689 0.00801 0.22684 0.0
C109 C 0.74933 0.01326 0.24472 0.0
N110 N 0.7271 0.00631 0.24423 0.0
Co111 Co 0.71056 0.01275 0.26663 0.0
N112 N 0.73574 0.02272 0.28734 0.0
C113 C 0.75698 0.02794 0.28272 0.0
C114 C 0.77074 0.03404 0.30005 0.0
C115 C 0.75733 0.03263 0.31666 0.0
C116 C 0.73605 0.02568 0.30855 0.0
N117 N 0.69421 0.01961 0.28882 0.0
C118 C 0.69801 0.02301 0.30983 0.0
C119 C 0.68166 0.02633 0.31939 0.0
C120 C 0.66737 0.0253 0.30389 0.0
C121 C 0.6756 0.02124 0.28581 0.0
N122 N 0.68498 0.00249 0.24617 0.0
C123 C 0.66707 0.00549 0.24851 0.0
C124 C 0.65233 0.99768 0.23198 0.0
C125 C 0.66161 0.98958 0.21798 0.0
C126 C 0.68165 0.99288 0.22677 0.0
N127 N 0.6978 0.98172 0.27762 0.0
C128 C 0.68265 0.94013 0.29851 0.0
C129 C 0.66791 0.94844 0.29447 0.0
C130 C 0.67582 0.96926 0.28408 0.0
C131 C 0.70477 0.9527 0.29095 0.0
C132 C 0.71188 0.97314 0.28056 0.0
N133 N 0.7243 0.04403 0.25574 0.0
C134 C 0.739 0.06922 0.22598 0.0
C135 C 0.7521 0.08776 0.23898 0.0
C136 C 0.74976 0.08403 0.26078 0.0
C137 C 0.73567 0.06218 0.2688 0.0
C138 C 0.72526 0.04781 0.23457 0.0
H139 H 0.73471 0.0599 0.28559 0.0
H140 H 0.71632 0.03423 0.22376 0.0
H141 H 0.66431 0.97552 0.2818 0.0
H142 H 0.72914 0.98229 0.27549 0.0
C143 C 0.76227 0.02362 0.26266 0.0
C144 C 0.69847 0.99008 0.2147 0.0
C145 C 0.71712 0.02382 0.3212 0.0
C146 C 0.6641 0.0148 0.2668 0.0
H147 H 0.73831 0.99163 0.19822 0.0
H148 H 0.77383 0.01148 0.22348 0.0
H149 H 0.78824 0.03828 0.30067 0.0
H150 H 0.76261 0.03642 0.33287 0.0
H151 H 0.67996 0.0289 0.33587 0.0
H152 H 0.65212 0.0262 0.30577 0.0
H153 H 0.63681 0.99809 0.2302 0.0
H154 H 0.65482 0.98298 0.20263 0.0
H155 H 0.65061 0.93934 0.29991 0.0
H156 H 0.7167 0.94686 0.29317 0.0
H157 H 0.74007 0.07087 0.20907 0.0
H158 H 0.75898 0.09779 0.27164 0.0
C159 C 0.96828 0.21717 0.74986 0.0
C160 C 0.96013 0.19482 0.74421 0.0
C161 C 0.97434 0.18846 0.75287 0.0
C162 C 0.99045 0.20722 0.76309 0.0
N163 N 0.98747 0.22517 0.76141 0.0
Co164 Co 0.00771 0.2558 0.77331 0.0
N165 N 0.03219 0.24867 0.77922 0.0
C166 C 0.03017 0.22809 0.7783 0.0
C167 C 0.04975 0.22808 0.78274 0.0
C168 C 0.06516 0.24999 0.78711 0.0
C169 C 0.05398 0.26216 0.78525 0.0
N170 N 0.0279 0.28631 0.78558 0.0
C171 C 0.04978 0.29628 0.79211 0.0
C172 C 0.05644 0.31702 0.80131 0.0
C173 C 0.03807 0.31998 0.80091 0.0
C174 C 0.02123 0.30096 0.79152 0.0
N175 N 0.98317 0.26275 0.76709 0.0
C176 C 0.98166 0.28012 0.77513 0.0
C177 C 0.96275 0.28053 0.76856 0.0
C178 C 0.9515 0.26214 0.75571 0.0
C179 C 0.96422 0.25151 0.75512 0.0
N180 N 0.99479 0.24523 0.80152 0.0
C181 C 0.9777 0.24492 0.84172 0.0
C182 C 0.96312 0.23521 0.82454 0.0
C183 C 0.97199 0.23524 0.80466 0.0
C184 C 1.0006 0.25206 0.83871 0.0
C185 C 0.00873 0.25192 0.81863 0.0
N186 N 0.0205 0.26726 0.7453 0.0
C187 C 0.03055 0.29598 0.71892 0.0
C188 C 0.03634 0.28414 0.70473 0.0
C189 C 0.03463 0.26382 0.71154 0.0
C190 C 0.02657 0.25561 0.73186 0.0
C191 C 0.02281 0.28737 0.73892 0.0
H192 H 0.02499 0.23977 0.73656 0.0
H193 H 0.01842 0.29705 0.74911 0.0
H194 H 0.96048 0.22876 0.79159 0.0
H195 H 0.0266 0.2589 0.81691 0.0
C196 C 0.01031 0.20954 0.77135 0.0
C197 C 0.95659 0.22964 0.74482 0.0
C198 C 0.06391 0.28564 0.79222 0.0
C199 C 0.99953 0.29692 0.78673 0.0
H200 H 0.94549 0.18416 0.73474 0.0
H201 H 0.97356 0.17237 0.75113 0.0
H202 H 0.05256 0.21387 0.78262 0.0
H203 H 0.08249 0.2562 0.7918 0.0
H204 H 0.07268 0.32847 0.80819 0.0
H205 H 0.03711 0.33429 0.80681 0.0
H206 H 0.9579 0.29292 0.77235 0.0
H207 H 0.93554 0.2569 0.74798 0.0
H208 H 0.94521 0.22901 0.82605 0.0
H209 H 0.01245 0.25878 0.85161 0.0
H210 H 0.03202 0.31196 0.71465 0.0
H211 H 0.03895 0.25407 0.70112 0.0
C212 C 0.7995 0.75466 0.75031 0.0
C213 C 0.82258 0.76793 0.7469 0.0
C214 C 0.82805 0.78972 0.75061 0.0
C215 C 0.80816 0.78858 0.75615 0.0
N216 N 0.79044 0.76743 0.75652 0.0
Co217 Co 0.7587 0.7588 0.76366 0.0
N218 N 0.7682 0.78918 0.77547 0.0
C219 C 0.78812 0.80799 0.77197 0.0
C220 C 0.78986 0.8268 0.78132 0.0
C221 C 0.76975 0.81947 0.79136 0.0
C222 C 0.75684 0.79644 0.78766 0.0
N223 N 0.72713 0.75036 0.77125 0.0
C224 C 0.71929 0.76067 0.78431 0.0
C225 C 0.69591 0.74868 0.78518 0.0
C226 C 0.68892 0.7306 0.77193 0.0
C227 C 0.70835 0.7324 0.76381 0.0
N228 N 0.74926 0.7286 0.75127 0.0
C229 C 0.72799 0.7133 0.74575 0.0
C230 C 0.72641 0.69457 0.73628 0.0
C231 C 0.74809 0.69845 0.73542 0.0
C232 C 0.76176 0.71941 0.74444 0.0
N233 N 0.7619 0.74795 0.79133 0.0
C234 C 0.76408 0.73095 0.83099 0.0
C235 C 0.74628 0.71831 0.81719 0.0
C236 C 0.74547 0.72704 0.7977 0.0
C237 C 0.78086 0.75255 0.82452 0.0
C238 C 0.77955 0.76067 0.80454 0.0
N239 N 0.75452 0.7687 0.73577 0.0
C240 C 0.73088 0.77701 0.71371 0.0
C241 C 0.73635 0.76842 0.69604 0.0
C242 C 0.75327 0.7627 0.69841 0.0
C243 C 0.76208 0.76295 0.71826 0.0
C244 C 0.74044 0.77736 0.73331 0.0
H245 H 0.77378 0.75686 0.71948 0.0
H246 H 0.73507 0.78307 0.74671 0.0
H247 H 0.73122 0.71676 0.78788 0.0
H248 H 0.7927 0.7772 0.79981 0.0
C249 C 0.80587 0.80672 0.7627 0.0
C250 C 0.7866 0.73077 0.74436 0.0
C251 C 0.73344 0.78253 0.79482 0.0
C252 C 0.70983 0.7162 0.75158 0.0
H253 H 0.83414 0.76255 0.74153 0.0
H254 H 0.84458 0.8046 0.74947 0.0
H255 H 0.80429 0.84369 0.78141 0.0
H256 H 0.76511 0.83 0.80024 0.0
H257 H 0.685 0.75264 0.79428 0.0
H258 H 0.67175 0.71737 0.76907 0.0
H259 H 0.7113 0.67977 0.73081 0.0
H260 H 0.75333 0.68736 0.72853 0.0
H261 H 0.73264 0.70179 0.82157 0.0
H262 H 0.79498 0.76296 0.83468 0.0
H263 H 0.71824 0.78207 0.71282 0.0
H264 H 0.75899 0.75699 0.68517 0.0
C265 C 0.2235 0.97074 0.78901 0.0
C266 C 0.20059 0.96097 0.7933 0.0
C267 C 0.19344 0.97435 0.78417 0.0
C268 C 0.21223 0.9914 0.77475 0.0
N269 N 0.23087 0.98971 0.77732 0.0
Co270 Co 0.26123 0.01051 0.7653 0.0
N271 N 0.25303 0.03416 0.75931 0.0
C272 C 0.23204 0.03123 0.75987 0.0
C273 C 0.23124 0.05036 0.75527 0.0
C274 C 0.25305 0.06638 0.75115 0.0
C275 C 0.26597 0.056 0.75327 0.0
N276 N 0.29149 0.03128 0.75287 0.0
C277 C 0.30088 0.05311 0.74638 0.0
C278 C 0.32171 0.06031 0.73707 0.0
C279 C 0.32531 0.04235 0.73737 0.0
C280 C 0.30656 0.02519 0.74682 0.0
N281 N 0.26918 0.98675 0.77158 0.0
C282 C 0.28685 0.98578 0.76351 0.0
C283 C 0.28833 0.96769 0.77076 0.0
C284 C 0.27036 0.95643 0.7841 0.0
C285 C 0.25876 0.96823 0.78416 0.0
N286 N 0.25071 0.99726 0.73722 0.0
C287 C 0.24937 0.97963 0.69705 0.0
C288 C 0.24034 0.96535 0.7145 0.0
C289 C 0.24092 0.97446 0.73436 0.0
C290 C 0.25653 0.00254 0.69988 0.0
C291 C 0.25692 0.01094 0.71995 0.0
N292 N 0.27258 0.02358 0.79322 0.0
C293 C 0.30129 0.03382 0.81966 0.0
C294 C 0.28899 0.03887 0.83397 0.0
C295 C 0.2685 0.03684 0.8272 0.0
C296 C 0.2605 0.029 0.80677 0.0
C297 C 0.29295 0.02641 0.79954 0.0
H298 H 0.24444 0.02699 0.80207 0.0
H299 H 0.30297 0.02256 0.78926 0.0
H300 H 0.23495 0.96317 0.7476 0.0
H301 H 0.2638 0.0288 0.72152 0.0
C302 C 0.21377 0.01087 0.76636 0.0
C303 C 0.23718 0.96064 0.79517 0.0
C304 C 0.28959 0.06663 0.74641 0.0
C305 C 0.30324 0.00379 0.75171 0.0
H306 H 0.19004 0.94568 0.80201 0.0
H307 H 0.17671 0.9723 0.78494 0.0
H308 H 0.21657 0.05245 0.75504 0.0
H309 H 0.25869 0.08354 0.74636 0.0
H310 H 0.33281 0.07663 0.73018 0.0
H311 H 0.33989 0.04188 0.73142 0.0
H312 H 0.30134 0.96356 0.76731 0.0
H313 H 0.26624 0.94123 0.79269 0.0
H314 H 0.23424 0.94746 0.71317 0.0
H315 H 0.26277 0.01417 0.6868 0.0
H316 H 0.3174 0.03554 0.824 0.0
H317 H 0.25846 0.04066 0.83776 0.0
C318 C 0.6652 0.05107 0.64195 0.0
C319 C 0.6595 0.06637 0.65001 0.0
C320 C 0.65831 0.07836 0.63328 0.0
C321 C 0.66347 0.06989 0.61595 0.0
N322 N 0.66791 0.05337 0.62067 0.0
Co323 Co 0.67717 0.03746 0.60008 0.0
N324 N 0.68361 0.06002 0.5773 0.0
C325 C 0.67697 0.07553 0.57758 0.0
C326 C 0.68204 0.08792 0.55944 0.0
C327 C 0.69203 0.07938 0.54664 0.0
C328 C 0.69242 0.0621 0.55765 0.0
N329 N 0.68703 0.02159 0.57992 0.0
C330 C 0.69673 0.02757 0.56052 0.0
C331 C 0.69987 0.01064 0.55204 0.0
C332 C 0.69145 0.99338 0.56621 0.0
C333 C 0.68369 1.00061 0.58254 0.0
N334 N 0.66995 0.01444 0.62249 0.0
C335 C 0.6672 0.99376 0.61954 0.0
C336 C 0.66181 0.98114 0.63754 0.0
C337 C 0.66115 0.9947 0.65292 0.0
C338 C 0.66636 0.01498 0.64342 0.0
N339 N 0.64573 0.02019 0.58939 0.0
C340 C 0.60231 0.00497 0.57232 0.0
C341 C 0.62037 0.00824 0.55962 0.0
C342 C 0.64175 0.01588 0.56835 0.0
C343 C 0.60611 0.00804 0.59402 0.0
C344 C 0.62776 0.01516 0.60226 0.0
N345 N 0.70841 0.05549 0.61079 0.0
C346 C 0.74103 0.05871 0.62894 0.0
C347 C 0.75085 0.08227 0.63028 0.0
C348 C 0.7391 0.09199 0.6212 0.0
C349 C 0.71809 0.07845 0.61177 0.0
C350 C 0.71999 0.04569 0.61891 0.0
H351 H 0.70945 0.08676 0.60586 0.0
H352 H 0.71291 0.02768 0.61815 0.0
H353 H 0.65516 0.01928 0.55768 0.0
H354 H 0.63007 0.01748 0.61899 0.0
C355 C 0.66744 0.07897 0.59568 0.0
C356 C 0.66672 0.03384 0.65474 0.0
C357 C 0.6994 0.04688 0.54804 0.0
C358 C 0.67371 0.98839 0.60073 0.0
H359 H 0.65653 0.06867 0.66624 0.0
H360 H 0.65489 0.09216 0.63381 0.0
H361 H 0.67886 0.10153 0.55592 0.0
H362 H 0.69782 0.08483 0.53078 0.0
H363 H 0.70643 0.0102 0.53673 0.0
H364 H 0.6907 0.97729 0.5646 0.0
H365 H 0.65959 0.96445 0.63944 0.0
H366 H 0.65735 0.99016 0.66928 0.0
H367 H 0.61831 0.00604 0.54278 0.0
H368 H 0.59253 0.00525 0.60454 0.0
H369 H 0.74954 0.05039 0.63554 0.0
H370 H 0.74572 0.11001 0.62201 0.0
C371 C 0.95568 0.63336 0.56092 0.0
C372 C 0.93437 0.61931 0.55275 0.0
C373 C 0.92091 0.60718 0.56927 0.0
C374 C 0.93467 0.61448 0.58661 0.0
N375 N 0.95597 0.63042 0.5821 0.0
Co376 Co 0.98119 0.64509 0.60289 0.0
N377 N 0.96429 0.62218 0.62523 0.0
C378 C 0.94199 0.6072 0.62465 0.0
C379 C 0.9341 0.59463 0.64263 0.0
C380 C 0.95239 0.60249 0.65567 0.0
C381 C 0.97052 0.61958 0.64496 0.0
N382 N 0.00694 0.65969 0.62331 0.0
C383 C 0.01008 0.65309 0.64265 0.0
C384 C 0.0305 0.66916 0.6513 0.0
C385 C 0.04022 0.68653 0.63731 0.0
C386 C 0.02534 0.68021 0.62091 0.0
N387 N 0.99782 0.6684 0.58083 0.0
C388 C 0.01677 0.68831 0.58393 0.0
C389 C 0.025 0.70086 0.566 0.0
C390 C 0.01039 0.68813 0.55049 0.0
C391 C 0.99386 0.66848 0.55988 0.0
N392 N 0.96795 0.66306 0.61412 0.0
C393 C 0.93984 0.67798 0.63241 0.0
C394 C 0.95526 0.67489 0.64446 0.0
C395 C 0.9688 0.66734 0.63518 0.0
C396 C 0.94053 0.67546 0.61053 0.0
C397 C 0.95495 0.66846 0.60173 0.0
N398 N 0.99341 0.62639 0.59168 0.0
C399 C 0.02303 0.62229 0.57504 0.0
C400 C 0.00802 0.59933 0.57102 0.0
C401 C 0.98588 0.59019 0.5784 0.0
C402 C 0.97905 0.60381 0.58872 0.0
C403 C 0.01538 0.63552 0.58528 0.0
H404 H 0.96179 0.59598 0.59376 0.0
H405 H 0.02712 0.6532 0.58754 0.0
H406 H 0.97913 0.66405 0.64553 0.0
H407 H 0.95465 0.66638 0.58495 0.0
C408 C 0.92922 0.60483 0.60664 0.0
C409 C 0.9746 0.65057 0.54837 0.0
C410 C 0.99267 0.63414 0.65496 0.0
C411 C 0.02847 0.69278 0.60279 0.0
H412 H 0.92908 0.61812 0.53657 0.0
H413 H 0.90335 0.59412 0.5686 0.0
H414 H 0.91701 0.58146 0.64596 0.0
H415 H 0.95227 0.59679 0.67154 0.0
H416 H 0.03722 0.66899 0.66661 0.0
H417 H 0.05609 0.7021 0.63906 0.0
H418 H 0.04045 0.71683 0.56419 0.0
H419 H 0.01202 0.69271 0.53408 0.0
H420 H 0.95661 0.67769 0.66123 0.0
H421 H 0.92941 0.67791 0.60019 0.0
H422 H 0.04036 0.63018 0.56972 0.0
H423 H 0.97373 0.57251 0.57616 0.0
C424 C 0.40126 0.35993 0.64383 0.0
C425 C 0.41822 0.35842 0.65435 0.0
C426 C 0.42566 0.34776 0.64113 0.0
C427 C 0.41289 0.34328 0.62329 0.0
N428 N 0.39816 0.35091 0.62413 0.0
Co429 Co 0.37467 0.34471 0.60228 0.0
N430 N 0.38861 0.33367 0.58121 0.0
C431 C 0.40458 0.32824 0.5854 0.0
C432 C 0.41181 0.32211 0.56782 0.0
C433 C 0.39958 0.32369 0.55149 0.0
C434 C 0.38535 0.33056 0.56003 0.0
N435 N 0.35089 0.338 0.58076 0.0
C436 C 0.35031 0.33377 0.55983 0.0
C437 C 0.32995 0.32942 0.55105 0.0
C438 C 0.31756 0.33142 0.56684 0.0
C439 C 0.33087 0.33666 0.58437 0.0
N440 N 0.36067 0.35618 0.62292 0.0
C441 C 0.34025 0.35445 0.62087 0.0
C442 C 0.33483 0.36401 0.63707 0.0
C443 C 0.35266 0.37184 0.65059 0.0
C444 C 0.36792 0.36631 0.64199 0.0
N445 N 0.39333 0.37544 0.59071 0.0
C446 C 0.42043 0.41726 0.57045 0.0
C447 C 0.3976 0.40957 0.57497 0.0
C448 C 0.38432 0.38857 0.58496 0.0
C449 C 0.42941 0.40385 0.57696 0.0
C450 C 0.41579 0.38334 0.58715 0.0
N451 N 0.35679 0.31371 0.61389 0.0
C452 C 0.34669 0.28976 0.64454 0.0
C453 C 0.34253 0.27105 0.63237 0.0
C454 C 0.34355 0.27375 0.61044 0.0
C455 C 0.35045 0.2951 0.60155 0.0
C456 C 0.35366 0.31064 0.63512 0.0
H457 H 0.35173 0.29669 0.5847 0.0
H458 H 0.35759 0.32442 0.64542 0.0
H459 H 0.3667 0.38281 0.58763 0.0
H460 H 0.42352 0.37367 0.59168 0.0
C461 C 0.41467 0.33258 0.60524 0.0
C462 C 0.38673 0.36736 0.65417 0.0
C463 C 0.36822 0.33292 0.54783 0.0
C464 C 0.32698 0.34445 0.60319 0.0
H465 H 0.42401 0.36365 0.67024 0.0
H466 H 0.43858 0.34345 0.6443 0.0
H467 H 0.42508 0.31791 0.56682 0.0
H468 H 0.4011 0.32027 0.5352 0.0
H469 H 0.32464 0.32541 0.53487 0.0
H470 H 0.30122 0.33023 0.56547 0.0
H471 H 0.31959 0.36493 0.63896 0.0
H472 H 0.35378 0.37967 0.66562 0.0
H473 H 0.38989 0.41937 0.57027 0.0
H474 H 0.447 0.40917 0.5742 0.0
H475 H 0.3452 0.28854 0.66147 0.0
H476 H 0.3401 0.2598 0.60019 0.0
C477 C 0.72068 0.59566 0.12134 0.0
C478 C 0.72958 0.582 0.12668 0.0
C479 C 0.71637 0.56167 0.11722 0.0
C480 C 0.70006 0.56392 0.10685 0.0
N481 N 0.70195 0.58433 0.10924 0.0
Co482 Co 0.68117 0.59399 0.09719 0.0
N483 N 0.65775 0.5623 0.09035 0.0
C484 C 0.66109 0.54451 0.09 0.0
C485 C 0.64252 0.52482 0.08389 0.0
C486 C 0.62637 0.53043 0.07986 0.0
C487 C 0.63599 0.55339 0.08385 0.0
N488 N 0.66041 0.60354 0.08484 0.0
C489 C 0.63842 0.5912 0.0787 0.0
C490 C 0.63095 0.60505 0.07038 0.0
C491 C 0.64897 0.62658 0.0707 0.0
C492 C 0.6664 0.6248 0.07932 0.0
N493 N 0.70473 0.62559 0.10421 0.0
C494 C 0.70571 0.6443 0.09636 0.0
C495 C 0.72407 0.66379 0.1034 0.0
C496 C 0.73553 0.65694 0.11635 0.0
C497 C 0.72348 0.63357 0.11652 0.0
N498 N 0.69498 0.59759 0.06925 0.0
C499 C 0.71357 0.61526 0.02971 0.0
C500 C 0.72741 0.62014 0.04742 0.0
C501 C 0.71786 0.61074 0.06691 0.0
C502 C 0.6906 0.59941 0.03184 0.0
C503 C 0.68167 0.59078 0.05168 0.0
N504 N 0.66754 0.59148 0.12497 0.0
C505 C 0.65672 0.60927 0.15155 0.0
C506 C 0.65171 0.59179 0.16568 0.0
C507 C 0.65393 0.57353 0.15869 0.0
C508 C 0.66201 0.57375 0.13827 0.0
C509 C 0.66445 0.60877 0.1315 0.0
H510 H 0.66414 0.55986 0.13337 0.0
H511 H 0.66837 0.62281 0.12144 0.0
H512 H 0.72888 0.61549 0.08033 0.0
H513 H 0.6637 0.57994 0.05288 0.0
C514 C 0.68112 0.54642 0.09734 0.0
C515 C 0.73159 0.61967 0.12679 0.0
C516 C 0.62475 0.56634 0.07871 0.0
C517 C 0.68774 0.64282 0.08454 0.0
H518 H 0.74421 0.58628 0.13629 0.0
H519 H 0.71802 0.54679 0.11837 0.0
H520 H 0.64087 0.50831 0.08264 0.0
H521 H 0.60966 0.51894 0.07397 0.0
H522 H 0.61433 0.60009 0.06433 0.0
H523 H 0.64922 0.64175 0.06555 0.0
H524 H 0.7284 0.68094 0.09988 0.0
H525 H 0.75118 0.66785 0.12444 0.0
H526 H 0.74538 0.63182 0.04638 0.0
H527 H 0.67928 0.59492 0.01855 0.0
H528 H 0.65479 0.62348 0.156 0.0
H529 H 0.65012 0.55955 0.16908 0.0
C530 C 0.4281 0.13221 0.12276 0.0
C531 C 0.44201 0.15438 0.12913 0.0
C532 C 0.46283 0.16119 0.12085 0.0
C533 C 0.4606 0.14286 0.11011 0.0
N534 N 0.43968 0.12475 0.11111 0.0
Co535 Co 0.42986 0.09455 0.09844 0.0
N536 N 0.46171 0.1022 0.09296 0.0
C537 C 0.48017 0.12277 0.09479 0.0
C538 C 0.5 0.12306 0.09091 0.0
C539 C 0.49379 0.10136 0.08593 0.0
C540 C 0.47036 0.08905 0.08678 0.0
N541 N 0.42013 0.06451 0.08535 0.0
C542 C 0.43238 0.05498 0.07859 0.0
C543 C 0.41862 0.03453 0.06874 0.0
C544 C 0.39718 0.03131 0.06899 0.0
C545 C 0.39897 0.04989 0.07892 0.0
N546 N 0.39813 0.08704 0.10433 0.0
C547 C 0.37951 0.06977 0.09582 0.0
C548 C 0.35993 0.06889 0.10226 0.0
C549 C 0.36662 0.08687 0.11555 0.0
C550 C 0.38998 0.09775 0.1165 0.0
N551 N 0.42789 0.10585 0.07046 0.0
C552 C 0.41114 0.10618 0.03021 0.0
C553 C 0.40566 0.11521 0.04752 0.0
C554 C 0.41454 0.11526 0.06741 0.0
C555 C 0.4276 0.09993 0.03316 0.0
C556 C 0.43579 0.09999 0.05327 0.0
N557 N 0.43078 0.08232 0.12617 0.0
C558 C 0.41224 0.05223 0.15133 0.0
C559 C 0.42958 0.06365 0.16594 0.0
C560 C 0.44764 0.08485 0.16014 0.0
C561 C 0.44797 0.09384 0.14017 0.0
C562 C 0.41318 0.06172 0.13177 0.0
H563 H 0.46203 0.11009 0.13613 0.0
H564 H 0.39932 0.0523 0.12127 0.0
H565 H 0.40907 0.12123 0.08054 0.0
H566 H 0.44714 0.09354 0.05493 0.0
C567 C 0.47847 0.14096 0.10213 0.0
C568 C 0.40382 0.11939 0.12732 0.0
C569 C 0.45719 0.06587 0.07885 0.0
C570 C 0.38105 0.0535 0.08377 0.0
H571 H 0.43768 0.16459 0.13888 0.0
H572 H 0.47803 0.17726 0.1232 0.0
H573 H 0.51698 0.13729 0.09184 0.0
H574 H 0.50519 0.09541 0.08154 0.0
H575 H 0.42367 0.02345 0.06151 0.0
H576 H 0.38211 0.01712 0.06263 0.0
H577 H 0.34281 0.05645 0.09808 0.0
H578 H 0.35562 0.0917 0.12333 0.0
H579 H 0.39344 0.12078 0.04612 0.0
H580 H 0.43334 0.0939 0.02018 0.0
H581 H 0.39764 0.0361 0.15507 0.0
H582 H 0.46152 0.09434 0.17084 0.0
C583 C 0.89228 0.30606 0.12615 0.0
C584 C 0.87043 0.29799 0.13348 0.0
C585 C 0.86322 0.3118 0.12554 0.0
C586 C 0.88105 0.32765 0.11409 0.0
N587 N 0.89923 0.3249 0.11434 0.0
Co588 Co 0.929 0.34523 0.10082 0.0
N589 N 0.92096 0.36918 0.09564 0.0
C590 C 0.90037 0.36694 0.09808 0.0
C591 C 0.89982 0.38634 0.0943 0.0
C592 C 0.92135 0.40185 0.08875 0.0
C593 C 0.93381 0.39089 0.08918 0.0
N594 N 0.95865 0.36555 0.08699 0.0
C595 C 0.96789 0.38725 0.08013 0.0
C596 C 0.98812 0.39402 0.06978 0.0
C597 C 0.99151 0.37593 0.06983 0.0
C598 C 0.97323 0.35914 0.08015 0.0
N599 N 0.93687 0.32121 0.10626 0.0
C600 C 0.95395 0.31992 0.09717 0.0
C601 C 0.95508 0.3013 0.10331 0.0
C602 C 0.93747 0.28998 0.11698 0.0
C603 C 0.92654 0.30238 0.11847 0.0
N604 N 0.91679 0.33162 0.07316 0.0
C605 C 0.91457 0.31349 0.03306 0.0
C606 C 0.90582 0.29942 0.05068 0.0
C607 C 0.90677 0.30878 0.0705 0.0
C608 C 0.9216 0.33639 0.03569 0.0
C609 C 0.92241 0.34504 0.05575 0.0
N610 N 0.94206 0.35869 0.12825 0.0
C611 C 0.97247 0.36981 0.15303 0.0
C612 C 0.96155 0.37615 0.16782 0.0
C613 C 0.94047 0.37355 0.1622 0.0
C614 C 0.93104 0.36481 0.14238 0.0
C615 C 0.96263 0.36137 0.13354 0.0
H616 H 0.91483 0.36291 0.13859 0.0
H617 H 0.97172 0.35669 0.12286 0.0
H618 H 0.90106 0.29764 0.08385 0.0
H619 H 0.9293 0.36292 0.05716 0.0
C620 C 0.88252 0.34718 0.10604 0.0
C621 C 0.90515 0.29448 0.12982 0.0
C622 C 0.9568 0.40097 0.0807 0.0
C623 C 0.96985 0.3377 0.08487 0.0
H624 H 0.86066 0.28367 0.14361 0.0
H625 H 0.84726 0.31098 0.12855 0.0
H626 H 0.88556 0.389 0.09573 0.0
H627 H 0.92708 0.41913 0.08432 0.0
H628 H 0.99892 0.4101 0.06234 0.0
H629 H 0.00559 0.37511 0.06307 0.0
H630 H 0.96743 0.29666 0.09866 0.0
H631 H 0.93289 0.27416 0.12465 0.0
H632 H 0.89975 0.28152 0.04953 0.0
H633 H 0.92755 0.34787 0.02248 0.0
H634 H 0.98845 0.37085 0.15655 0.0
H635 H 0.93133 0.37834 0.17293 0.0
C636 C 0.33081 0.38595 0.97577 0.0
C637 C 0.32386 0.40026 0.9839 0.0
C638 C 0.32304 0.4127 0.9674 0.0
C639 C 0.32947 0.40533 0.95011 0.0
N640 N 0.33435 0.38906 0.95463 0.0
Co641 Co 0.34462 0.37416 0.93388 0.0
N642 N 0.35123 0.39735 0.91159 0.0
C643 C 0.34409 0.41247 0.91209 0.0
C644 C 0.34893 0.42506 0.89411 0.0
C645 C 0.35931 0.41709 0.88113 0.0
C646 C 0.36029 0.40002 0.89194 0.0
N647 N 0.3555 0.35936 0.9135 0.0
C648 C 0.36548 0.36603 0.89429 0.0
C649 C 0.37048 0.35032 0.88593 0.0
C650 C 0.36266 0.33287 0.89985 0.0
C651 C 0.35356 0.33894 0.91599 0.0
N652 N 0.33732 0.35056 0.95583 0.0
C653 C 0.33632 0.33063 0.95272 0.0
C654 C 0.33207 0.31809 0.97065 0.0
C655 C 0.33024 0.33082 0.98616 0.0
C656 C 0.33324 0.35044 0.97677 0.0
N657 N 0.31347 0.35668 0.92249 0.0
C658 C 0.27048 0.34208 0.90444 0.0
C659 C 0.2891 0.34625 0.89208 0.0
C660 C 0.31016 0.35338 0.9013 0.0
C661 C 0.27349 0.34344 0.92634 0.0
C662 C 0.295 0.35056 0.93501 0.0
N663 N 0.37556 0.3924 0.94533 0.0
C664 C 0.4081 0.39574 0.96375 0.0
C665 C 0.41752 0.41919 0.96564 0.0
C666 C 0.40564 0.42885 0.95671 0.0
C667 C 0.38483 0.41528 0.94689 0.0
C668 C 0.38733 0.38273 0.95331 0.0
H669 H 0.37602 0.42348 0.9411 0.0
H670 H 0.38066 0.36483 0.95211 0.0
H671 H 0.32386 0.35721 0.89089 0.0
H672 H 0.29681 0.35208 0.95183 0.0
C673 C 0.33382 0.415 0.93009 0.0
C674 C 0.33185 0.36834 0.98829 0.0
C675 C 0.36731 0.38504 0.88193 0.0
C676 C 0.34389 0.32629 0.93401 0.0
H677 H 0.31957 0.40138 1.00002 0.0
H678 H 0.3188 0.42594 0.96805 0.0
H679 H 0.34511 0.43828 0.89071 0.0
H680 H 0.36474 0.42264 0.86522 0.0
H681 H 0.37811 0.35098 0.87089 0.0
H682 H 0.36334 0.31749 0.89829 0.0
H683 H 0.33173 0.30222 0.97248 0.0
H684 H 0.32758 0.32629 1.00258 0.0
H685 H 0.28766 0.34457 0.87518 0.0
H686 H 0.25963 0.34006 0.93672 0.0
H687 H 0.41675 0.3875 0.97021 0.0
H688 H 0.41201 0.4468 0.9579 0.0
C689 C 0.62573 0.96972 0.89142 0.0
C690 C 0.60902 0.95167 0.8803 0.0
C691 C 0.60087 0.93325 0.89317 0.0
C692 C 0.61299 0.94092 0.91142 0.0
N693 N 0.62797 0.96322 0.91117 0.0
Co694 Co 0.65071 0.97968 0.93384 0.0
N695 N 0.63568 0.9542 0.95426 0.0
C696 C 0.61977 0.93301 0.94943 0.0
C697 C 0.61221 0.91901 0.96658 0.0
C698 C 0.62415 0.93219 0.98332 0.0
C699 C 0.63836 0.95358 0.97545 0.0
N700 N 0.67378 0.99595 0.95621 0.0
C701 C 0.67353 0.99168 0.97711 0.0
C702 C 0.69302 0.00805 0.98687 0.0
C703 C 0.70598 0.02294 0.97164 0.0
C704 C 0.69372 0.01501 0.95351 0.0
N705 N 0.66576 0.00561 0.91375 0.0
C706 C 0.68602 0.02423 0.91665 0.0
C707 C 0.69217 0.03964 0.90073 0.0
C708 C 0.67499 0.03003 0.88651 0.0
C709 C 0.65938 0.00905 0.89445 0.0
N710 N 0.63194 0.99186 0.94501 0.0
C711 C 0.60466 0.00617 0.96576 0.0
C712 C 0.62771 0.02118 0.96205 0.0
C713 C 0.64104 0.01369 0.95176 0.0
C714 C 0.59555 0.9842 0.958 0.0
C715 C 0.60928 0.97751 0.94766 0.0
N716 N 0.66871 0.96645 0.92274 0.0
C717 C 0.67924 0.95236 0.89255 0.0
C718 C 0.68308 0.93778 0.90506 0.0
C719 C 0.68166 0.93956 0.92693 0.0
C720 C 0.6747 0.95411 0.93542 0.0
C721 C 0.67225 0.96645 0.90159 0.0
H722 H 0.67307 0.95445 0.95222 0.0
H723 H 0.66866 0.97643 0.89109 0.0
H724 H 0.65878 0.02542 0.94976 0.0
H725 H 0.60147 0.96037 0.94237 0.0
C726 C 0.61039 0.9279 0.92928 0.0
C727 C 0.64091 0.9918 0.88161 0.0
C728 C 0.65542 0.97229 0.98826 0.0
C729 C 0.69836 0.02714 0.9349 0.0
H730 H 0.60388 0.95158 0.86423 0.0
H731 H 0.58792 0.91618 0.8895 0.0
H732 H 0.59911 0.90147 0.967 0.0
H733 H 0.62274 0.92668 0.99944 0.0
H734 H 0.69731 0.00939 1.00334 0.0
H735 H 0.72186 0.03841 0.97378 0.0
H736 H 0.70742 0.05587 0.89953 0.0
H737 H 0.6745 0.03721 0.87153 0.0
H738 H 0.63558 0.03838 0.96766 0.0
H739 H 0.5778 0.97206 0.95999 0.0
H740 H 0.68102 0.95251 0.87566 0.0
H741 H 0.68482 0.92902 0.93743 0.0
C742 C 0.05457 0.66381 0.893 0.0
C743 C 0.07274 0.66421 0.88291 0.0
C744 C 0.09089 0.67487 0.8961 0.0
C745 C 0.08288 0.68025 0.91358 0.0
N746 N 0.06063 0.67315 0.91255 0.0
Co747 Co 0.04348 0.6795 0.93434 0.0
N748 N 0.06818 0.68977 0.95565 0.0
C749 C 0.08951 0.69489 0.95161 0.0
C750 C 0.10262 0.70038 0.96934 0.0
C751 C 0.0887 0.6987 0.9856 0.0
C752 C 0.06779 0.69241 0.97688 0.0
N753 N 0.02658 0.68639 0.95586 0.0
C754 C 0.02993 0.69004 0.97687 0.0
C755 C 0.01428 0.69496 0.98558 0.0
C756 C 1.00048 0.69399 0.9696 0.0
C757 C 0.00851 0.68873 0.95206 0.0
N758 N 0.01828 0.66886 0.91341 0.0
C759 C 1.00043 0.67205 0.9151 0.0
C760 C 0.9861 0.66419 0.89827 0.0
C761 C 0.99562 0.65588 0.88476 0.0
C762 C 0.01539 0.65909 0.89411 0.0
N763 N 0.03074 0.64859 0.94558 0.0
C764 C 0.01566 0.60709 0.96655 0.0
C765 C 1.00082 0.61523 0.96229 0.0
C766 C 0.00871 0.63604 0.95187 0.0
C767 C 0.03782 0.61976 0.95919 0.0
C768 C 0.0449 0.64015 0.94877 0.0
N769 N 0.05724 0.71067 0.92313 0.0
C770 C 0.07175 0.73528 0.89298 0.0
C771 C 0.08576 0.75382 0.90561 0.0
C772 C 0.08357 0.7506 0.92748 0.0
C773 C 0.06909 0.72901 0.93589 0.0
C774 C 0.05783 0.71413 0.90192 0.0
H775 H 0.06837 0.72703 0.95271 0.0
H776 H 0.04844 0.70048 0.89131 0.0
H777 H 0.99716 0.64224 0.9494 0.0
H778 H 0.06221 0.64937 0.94388 0.0
C779 C 0.0953 0.69059 0.93177 0.0
C780 C 0.03265 0.65649 0.88251 0.0
C781 C 0.04825 0.69008 0.98898 0.0
C782 C 0.99736 0.68203 0.93289 0.0
H783 H 0.07301 0.65803 0.86736 0.0
H784 H 0.10791 0.6783 0.89324 0.0
H785 H 0.11994 0.70415 0.97048 0.0
H786 H 0.09342 0.70159 1.00197 0.0
H787 H 0.01292 0.69881 1.00179 0.0
H788 H 0.98577 0.69594 0.97082 0.0
H789 H 0.97079 0.66487 0.8959 0.0
H790 H 0.98924 0.64939 0.86929 0.0
H791 H 0.98347 0.60601 0.96758 0.0
H792 H 0.04983 0.61405 0.9616 0.0
H793 H 0.07189 0.73685 0.87607 0.0
H794 H 0.09369 0.76434 0.93808 0.0
C795 C 0.30486 0.88745 0.41242 0.0
C796 C 0.29703 0.86534 0.40614 0.0
C797 C 0.31124 0.8589 0.41463 0.0
C798 C 0.32703 0.87739 0.42541 0.0
N799 N 0.32383 0.89524 0.42425 0.0
Co800 Co 0.34356 0.9255 0.43707 0.0
N801 N 0.36816 0.91851 0.44285 0.0
C802 C 0.36653 0.89815 0.44108 0.0
C803 C 0.38629 0.89835 0.4452 0.0
C804 C 0.40137 0.92015 0.45029 0.0
C805 C 0.38982 0.93202 0.44924 0.0
N806 N 0.36322 0.95562 0.45031 0.0
C807 C 0.38492 0.9655 0.45737 0.0
C808 C 0.39112 0.98584 0.4672 0.0
C809 C 0.37266 0.98863 0.46666 0.0
C810 C 0.35621 0.96991 0.45656 0.0
N811 N 0.31894 0.93235 0.43091 0.0
C812 C 0.31705 0.94934 0.43935 0.0
C813 C 0.29819 0.94977 0.43267 0.0
C814 C 0.28737 0.9318 0.41929 0.0
C815 C 0.30028 0.92138 0.41854 0.0
N816 N 0.33011 0.91386 0.46491 0.0
C817 C 0.31232 0.91246 0.505 0.0
C818 C 0.29805 0.90327 0.48754 0.0
C819 C 0.30725 0.90382 0.46772 0.0
C820 C 0.33523 0.91948 0.50227 0.0
C821 C 0.34371 0.91991 0.48224 0.0
N822 N 0.3569 0.938 0.40949 0.0
C823 C 0.36817 0.96798 0.38423 0.0
C824 C 0.37491 0.95698 0.36993 0.0
C825 C 0.37233 0.93605 0.37595 0.0
C826 C 0.36335 0.92689 0.39578 0.0
C827 C 0.35938 0.95835 0.40372 0.0
H828 H 0.36158 0.91084 0.39995 0.0
H829 H 0.35436 0.96745 0.41401 0.0
H830 H 0.29598 0.89775 0.45445 0.0
H831 H 0.3616 0.92686 0.48076 0.0
C832 C 0.3469 0.8797 0.43363 0.0
C833 C 0.29307 0.8999 0.40764 0.0
C834 C 0.39918 0.95501 0.45742 0.0
C835 C 0.33456 0.96583 0.4515 0.0
H836 H 0.28261 0.85491 0.39633 0.0
H837 H 0.31071 0.84298 0.4124 0.0
H838 H 0.38942 0.88437 0.44439 0.0
H839 H 0.41873 0.92645 0.45496 0.0
H840 H 0.4071 0.99712 0.47462 0.0
H841 H 0.37136 0.00261 0.47295 0.0
H842 H 0.29311 0.96193 0.43673 0.0
H843 H 0.27156 0.92669 0.4113 0.0
H844 H 0.28013 0.89716 0.48881 0.0
H845 H 0.34685 0.92576 0.51538 0.0
H846 H 0.36921 0.98385 0.38032 0.0
H847 H 0.37738 0.92688 0.36553 0.0
C848 C 0.13655 0.42303 0.41679 0.0
C849 C 0.15957 0.43618 0.41298 0.0
C850 C 0.16637 0.4568 0.42167 0.0
C851 C 0.14731 0.4551 0.43044 0.0
N852 N 0.1288 0.4347 0.42789 0.0
Co853 Co 0.09828 0.42512 0.43963 0.0
N854 N 0.10624 0.45695 0.44532 0.0
C855 C 0.12707 0.47515 0.44422 0.0
C856 C 0.12756 0.4951 0.44785 0.0
C857 C 0.10571 0.4892 0.45193 0.0
C858 C 0.09311 0.46582 0.45091 0.0
N859 N 0.06794 0.41564 0.45197 0.0
C860 C 0.05852 0.42804 0.45857 0.0
C861 C 0.03777 0.41438 0.46802 0.0
C862 C 0.03423 0.39285 0.46763 0.0
C863 C 0.05295 0.39448 0.45805 0.0
N864 N 0.09052 0.39343 0.43343 0.0
C865 C 0.0727 0.3748 0.44129 0.0
C866 C 0.07126 0.35525 0.43405 0.0
C867 C 0.08943 0.36196 0.42096 0.0
C868 C 0.10115 0.38534 0.42105 0.0
N869 N 0.10861 0.42249 0.46789 0.0
C870 C 0.10787 0.40541 0.50826 0.0
C871 C 0.1169 0.39969 0.4911 0.0
C872 C 0.11749 0.40872 0.47117 0.0
C873 C 0.10211 0.42219 0.5051 0.0
C874 C 0.10266 0.43051 0.48494 0.0
N875 N 0.08696 0.42669 0.41162 0.0
C876 C 0.05711 0.40919 0.38605 0.0
C877 C 0.06904 0.42665 0.37172 0.0
C878 C 0.09048 0.44418 0.37779 0.0
C879 C 0.09909 0.44393 0.39785 0.0
C880 C 0.06624 0.40953 0.40565 0.0
H881 H 0.11549 0.45761 0.40219 0.0
H882 H 0.05638 0.3956 0.41591 0.0
H883 H 0.12347 0.40308 0.45818 0.0
H884 H 0.09656 0.44213 0.4831 0.0
C885 C 0.14548 0.4731 0.43815 0.0
C886 C 0.12309 0.39929 0.41053 0.0
C887 C 0.06971 0.45286 0.45848 0.0
C888 C 0.0563 0.37644 0.45306 0.0
H889 H 0.17043 0.43141 0.40485 0.0
H890 H 0.18308 0.4715 0.42105 0.0
H891 H 0.14205 0.51194 0.44744 0.0
H892 H 0.09986 0.50076 0.45597 0.0
H893 H 0.02666 0.41953 0.47504 0.0
H894 H 0.01973 0.37781 0.47364 0.0
H895 H 0.05819 0.33814 0.43739 0.0
H896 H 0.09362 0.35087 0.41247 0.0
H897 H 0.12206 0.38718 0.49262 0.0
H898 H 0.0961 0.42814 0.51794 0.0
H899 H 0.04079 0.39495 0.38207 0.0
H900 H 0.10039 0.45809 0.36727 0.0
C901 C 0.55351 0.63438 0.45219 0.0
C902 C 0.53036 0.62374 0.45561 0.0
C903 C 0.52292 0.63683 0.44639 0.0
C904 C 0.54177 0.65455 0.43773 0.0
N905 N 0.56072 0.65355 0.44084 0.0
Co906 Co 0.59121 0.67528 0.42964 0.0
N907 N 0.58219 0.69829 0.42348 0.0
C908 C 0.56098 0.69479 0.42392 0.0
C909 C 0.55971 0.7138 0.42007 0.0
C910 C 0.58144 0.73036 0.41654 0.0
C911 C 0.59478 0.72038 0.41807 0.0
N912 N 0.62157 0.69697 0.41787 0.0
C913 C 0.63047 0.71879 0.41147 0.0
C914 C 0.65156 0.72661 0.40247 0.0
C915 C 0.65587 0.70912 0.40295 0.0
C916 C 0.63724 0.69156 0.41214 0.0
N917 N 0.60001 0.65219 0.43623 0.0
C918 C 0.61833 0.65208 0.42872 0.0
C919 C 0.62043 0.63442 0.43623 0.0
C920 C 0.60218 0.62255 0.44915 0.0
C921 C 0.58979 0.63354 0.44869 0.0
N922 N 0.58181 0.66227 0.40131 0.0
C923 C 0.58265 0.64563 0.36113 0.0
C924 C 0.57378 0.63106 0.37842 0.0
C925 C 0.57317 0.63964 0.39824 0.0
C926 C 0.58843 0.6682 0.3641 0.0
C927 C 0.58784 0.67612 0.38418 0.0
N928 N 0.60151 0.68812 0.45781 0.0
C929 C 0.62987 0.69918 0.48473 0.0
C930 C 0.61651 0.70278 0.49903 0.0
C931 C 0.59567 0.69969 0.49199 0.0
C932 C 0.58842 0.69223 0.47131 0.0
C933 C 0.62217 0.692 0.46442 0.0
H934 H 0.57211 0.6894 0.4664 0.0
H935 H 0.63295 0.68911 0.45422 0.0
H936 H 0.56728 0.62815 0.41133 0.0
H937 H 0.59381 0.69382 0.3859 0.0
C938 C 0.54292 0.67398 0.42973 0.0
C939 C 0.56767 0.62503 0.459 0.0
C940 C 0.61849 0.73169 0.41127 0.0
C941 C 0.63458 0.67044 0.41717 0.0
H942 H 0.51985 0.6081 0.46383 0.0
H943 H 0.50593 0.63415 0.44663 0.0
H944 H 0.54479 0.71547 0.42002 0.0
H945 H 0.58674 0.74766 0.41255 0.0
H946 H 0.66242 0.74304 0.39565 0.0
H947 H 0.67082 0.70921 0.39728 0.0
H948 H 0.63399 0.63099 0.43324 0.0
H949 H 0.59843 0.60749 0.4578 0.0
H950 H 0.56868 0.6134 0.37707 0.0
H951 H 0.59436 0.68001 0.35116 0.0
H952 H 0.64627 0.70178 0.48923 0.0
H953 H 0.5848 0.70235 0.50251 0.0
H954 H 0.99214 0.68122 0.18643 0.0
H955 H 0.99723 0.67853 0.14862 0.0
H956 H 0.06299 0.73797 0.152 0.0
H957 H 0.058 0.74045 0.18994 0.0
H958 H 0.04034 0.73802 0.11575 0.0
H959 H 0.05727 0.68599 0.15049 0.0
H960 H 0.04934 0.6545 0.17428 0.0
H961 H 0.99174 0.60997 0.13711 0.0
H962 H 0.99909 0.64131 0.11329 0.0
H963 H 0.07748 0.72514 1.0149 0.0
H964 H 0.07447 0.72921 0.05279 0.0
H965 H 0.01392 0.66413 0.0545 0.0
H966 H 0.01771 0.65963 1.0168 0.0
H967 H 0.03467 0.66753 0.08867 0.0
H968 H 0.01568 0.71813 0.05484 0.0
H969 H 0.02126 0.7491 0.03133 0.0
H970 H 0.07976 0.79545 0.06653 0.0
H971 H 0.07472 0.76467 0.09008 0.0
C972 C 0.00753 0.69396 0.17904 0.0
C973 C 0.02445 0.7113 0.19128 0.0
C974 C 0.01053 0.69231 0.15737 0.0
C975 C 0.03063 0.70791 0.14715 0.0
C976 C 0.04728 0.7257 0.15925 0.0
C977 C 0.04434 0.72723 0.18101 0.0
C978 C 0.03454 0.70516 0.12419 0.0
C979 C 0.0394 0.7227 0.10993 0.0
C980 C 0.03282 0.68502 0.11614 0.0
C981 C 0.02862 0.66605 0.1302 0.0
C982 C 0.04283 0.66952 0.14745 0.0
C983 C 0.03845 0.65169 0.16094 0.0
C984 C 0.02002 0.63025 0.15723 0.0
C985 C 0.00599 0.62659 0.13998 0.0
C986 C 0.01026 0.64438 0.12647 0.0
C987 C 0.06389 0.71141 0.02345 0.0
C988 C 0.04812 0.69182 1.01273 0.0
C989 C 0.06188 0.71393 0.0452 0.0
C990 C 0.04365 0.69721 0.05691 0.0
C991 C 0.02819 0.67741 0.04621 0.0
C992 C 0.03036 0.6748 0.02453 0.0
C993 C 0.04041 0.70039 0.08004 0.0
C994 C 0.03567 0.6829 0.09439 0.0
C995 C 0.04196 0.72049 0.08812 0.0
C996 C 0.04495 0.73905 0.07409 0.0
C997 C 0.02982 0.7349 0.05748 0.0
C998 C 0.03288 0.75242 0.04416 0.0
C999 C 0.05089 0.77421 0.0474 0.0
C1000 C 0.06584 0.77855 0.06402 0.0
C1001 C 0.06289 0.76108 0.07737 0.0
H1002 H 0.05323 0.78776 0.03707 0.0
H1003 H 0.01664 0.61648 0.1677 0.0
H1004 H 0.35871 0.39575 0.02029 0.0
H1005 H 0.35318 0.38969 0.05834 0.0
H1006 H 0.28978 0.32887 0.04733 0.0
H1007 H 0.29483 0.33573 1.00947 0.0
H1008 H 0.28403 0.3453 0.08017 0.0
H1009 H 0.3438 0.33165 0.06026 0.0
H1010 H 0.38042 0.34107 0.04453 0.0
H1011 H 0.41455 0.39628 0.0875 0.0
H1012 H 0.37809 0.38735 0.1033 0.0
H1013 H 0.31898 0.30644 0.1839 0.0
H1014 H 0.32202 0.31381 0.14596 0.0
H1015 H 0.29664 0.35955 0.15468 0.0
H1016 H 0.29344 0.35195 0.1926 0.0
H1017 H 0.34652 0.3496 0.12306 0.0
H1018 H 0.26915 0.36161 0.11043 0.0
H1019 H 0.23092 0.34733 0.12485 0.0
H1020 H 0.2294 0.28687 0.14531 0.0
H1021 H 0.26746 0.30063 0.13076 0.0
C1022 C 0.34346 0.38128 0.02604 0.0
C1023 C 0.3274 0.36606 1.01174 0.0
C1024 C 0.34037 0.3776 0.0479 0.0
C1025 C 0.3213 0.35834 0.05617 0.0
C1026 C 0.30477 0.34377 0.04178 0.0
C1027 C 0.30769 0.34765 0.01999 0.0
C1028 C 0.31866 0.35303 0.07954 0.0
C1029 C 0.29783 0.34641 0.08945 0.0
C1030 C 0.33626 0.3538 0.09206 0.0
C1031 C 0.35821 0.35896 0.08283 0.0
C1032 C 0.35911 0.34585 0.06629 0.0
C1033 C 0.37983 0.3511 0.05736 0.0
C1034 C 0.39979 0.36929 0.06497 0.0
C1035 C 0.39908 0.38221 0.08159 0.0
C1036 C 0.37839 0.37706 0.09055 0.0
C1037 C 0.31367 0.31775 0.17765 0.0
C1038 C 0.30561 0.32831 0.1913 0.0
C1039 C 0.31563 0.32217 0.1559 0.0
C1040 C 0.30947 0.33721 0.14704 0.0
C1041 C 0.30122 0.34761 0.16075 0.0
C1042 C 0.29933 0.34324 0.18252 0.0
C1043 C 0.31203 0.34222 0.12367 0.0
C1044 C 0.33281 0.34871 0.11377 0.0
C1045 C 0.29422 0.34076 0.11105 0.0
C1046 C 0.27127 0.33229 0.11972 0.0
C1047 C 0.26063 0.34524 0.11795 0.0
C1048 C 0.23899 0.33724 0.12615 0.0
C1049 C 0.22777 0.31625 0.13606 0.0
C1050 C 0.23814 0.30317 0.13772 0.0
C1051 C 0.25976 0.31108 0.12952 0.0
H1052 H 0.21103 0.31009 0.1424 0.0
H1053 H 0.41582 0.37335 0.05802 0.0
H1054 H 0.66809 0.95193 0.19316 0.0
H1055 H 0.66025 0.94741 0.15535 0.0
H1056 H 0.71371 0.01571 0.14507 0.0
H1057 H 0.72092 0.02037 0.18298 0.0
H1058 H 0.68129 0.00986 0.12139 0.0
H1059 H 0.71692 0.96598 0.13172 0.0
H1060 H 0.72317 0.93674 0.14767 0.0
H1061 H 0.65707 0.88555 0.12822 0.0
H1062 H 0.65031 0.91453 0.11238 0.0
H1063 H 0.68461 0.9628 1.00952 0.0
H1064 H 0.69154 0.96443 0.04744 0.0
H1065 H 0.63751 0.97845 0.05807 0.0
H1066 H 0.63111 0.97745 0.02001 0.0
H1067 H 0.67162 0.94366 0.08122 0.0
H1068 H 0.64777 0.01166 0.10109 0.0
H1069 H 0.64677 0.04338 0.0838 0.0
H1070 H 0.6984 0.05077 0.04089 0.0
H1071 H 0.69995 0.01934 0.05812 0.0
C1072 C 0.67836 0.96587 0.18277 0.0
C1073 C 0.69534 0.98642 0.19117 0.0
C1074 C 0.6739 0.96329 0.16103 0.0
C1075 C 0.68648 0.98109 0.14686 0.0
C1076 C 0.70362 1.00159 0.15532 0.0
C1077 C 0.70796 0.00421 0.17708 0.0
C1078 C 0.68152 0.97859 0.12345 0.0
C1079 C 0.67913 0.99529 0.11274 0.0
C1080 C 0.67903 0.95991 0.11158 0.0
C1081 C 0.68303 0.94244 0.12105 0.0
C1082 C 0.70366 0.9485 0.13098 0.0
C1083 C 0.7073 0.93198 0.13998 0.0
C1084 C 0.6905 0.90931 0.13901 0.0
C1085 C 0.67005 0.90312 0.12899 0.0
C1086 C 0.66631 0.91958 0.11998 0.0
C1087 C 0.67405 0.96597 0.02 0.0
C1088 C 0.65734 0.97005 1.0117 0.0
C1089 C 0.67802 0.96692 0.04178 0.0
C1090 C 0.66542 0.972 0.05601 0.0
C1091 C 0.64796 0.97503 0.04769 0.0
C1092 C 0.64408 0.9742 0.02587 0.0
C1093 C 0.671 0.97472 0.07928 0.0
C1094 C 0.67359 0.95812 0.08994 0.0
C1095 C 0.67428 0.99379 0.09099 0.0
C1096 C 0.67378 0.01299 0.08077 0.0
C1097 C 0.65898 0.02013 0.08803 0.0
C1098 C 0.65831 0.03805 0.07823 0.0
C1099 C 0.67246 0.04904 0.06121 0.0
C1100 C 0.6874 0.0422 0.05403 0.0
C1101 C 0.68817 0.02433 0.0638 0.0
H1102 H 0.67188 0.06287 0.05362 0.0
H1103 H 0.69336 0.89654 0.14598 0.0
H1104 H 0.7376 0.05494 0.52635 0.0
H1105 H 0.74202 0.05167 0.48849 0.0
H1106 H 0.67308 0.03518 0.47859 0.0
H1107 H 0.66859 0.03786 0.51652 0.0
H1108 H 0.68005 0.00891 0.45482 0.0
H1109 H 0.72114 0.08852 0.46541 0.0
H1110 H 0.74949 0.12437 0.48145 0.0
H1111 H 0.80251 0.11245 0.46131 0.0
H1112 H 0.77442 0.07636 0.44538 0.0
H1113 H 0.72505 0.06161 0.3431 0.0
H1114 H 0.72326 0.06611 0.38111 0.0
H1115 H 0.71215 0.99898 0.39063 0.0
H1116 H 0.71318 0.99431 0.35246 0.0
H1117 H 0.74466 0.06759 0.41441 0.0
H1118 H 0.68038 0.97469 0.4341 0.0
H1119 H 0.64965 0.94112 0.4168 0.0
H1120 H 0.63855 0.98354 0.37466 0.0
H1121 H 0.66898 0.01733 0.39187 0.0
C1122 C 0.72349 0.05088 0.51604 0.0
C1123 C 0.70283 0.04697 0.52451 0.0
C1124 C 0.72601 0.04902 0.49428 0.0
C1125 C 0.708 0.04338 0.48022 0.0
C1126 C 0.68735 0.03955 0.48878 0.0
C1127 C 0.68482 0.04131 0.51054 0.0
C1128 C 0.7105 0.04117 0.45679 0.0
C1129 C 0.69427 0.02178 0.4461 0.0
C1130 C 0.72873 0.05794 0.44487 0.0
C1131 C 0.74566 0.07963 0.45439 0.0
C1132 C 0.73883 0.09347 0.46454 0.0
C1133 C 0.75485 0.11384 0.47359 0.0
C1134 C 0.77778 0.12066 0.47245 0.0
C1135 C 0.78474 0.10713 0.4622 0.0
C1136 C 0.76878 0.08672 0.45315 0.0
C1137 C 0.7224 0.04788 0.35335 0.0
C1138 C 0.71907 0.02753 0.34469 0.0
C1139 C 0.72139 0.05045 0.37518 0.0
C1140 C 0.71709 0.03278 0.38915 0.0
C1141 C 0.7149 0.01279 0.38048 0.0
C1142 C 0.71573 0.01017 0.35858 0.0
C1143 C 0.7144 0.03518 0.41251 0.0
C1144 C 0.73055 0.05463 0.42318 0.0
C1145 C 0.69579 0.01871 0.4243 0.0
C1146 C 0.67712 0.99852 0.41415 0.0
C1147 C 0.6713 0.97684 0.42121 0.0
C1148 C 0.65395 0.95778 0.41141 0.0
C1149 C 0.64221 0.96019 0.3946 0.0
C1150 C 0.6477 0.98168 0.38763 0.0
C1151 C 0.665 1.00079 0.3974 0.0
H1152 H 0.62882 0.94541 0.38701 0.0
H1153 H 0.79016 0.13644 0.47946 0.0
H1154 H 0.96724 0.6812 0.52704 0.0
H1155 H 0.96823 0.6876 0.48912 0.0
H1156 H 0.97855 0.63125 0.4784 0.0
H1157 H 0.97825 0.62538 0.51654 0.0
H1158 H 0.00482 0.66257 0.45301 0.0
H1159 H 0.92644 0.63075 0.46784 0.0
H1160 H 0.8928 0.62679 0.48595 0.0
H1161 H 0.90946 0.69318 0.46592 0.0
H1162 H 0.94338 0.69767 0.44793 0.0
H1163 H 0.95076 0.66262 0.34354 0.0
H1164 H 0.94668 0.65471 0.38141 0.0
H1165 H 0.01565 0.70709 0.39092 0.0
H1166 H 0.01981 0.71449 0.35304 0.0
H1167 H 0.94805 0.67501 0.4163 0.0
H1168 H 0.03967 0.6948 0.43171 0.0
H1169 H 0.0708 0.69448 0.41248 0.0
H1170 H 0.0232 0.64429 0.37038 0.0
H1171 H 0.99179 0.64404 0.38956 0.0
C1172 C 0.96947 0.67002 0.51657 0.0
C1173 C 0.97261 0.65273 0.52489 0.0
C1174 C 0.96997 0.67364 0.49475 0.0
C1175 C 0.97326 0.65984 0.48041 0.0
C1176 C 0.97603 0.64229 0.4888 0.0
C1177 C 0.97565 0.63876 0.51068 0.0
C1178 C 0.97433 0.66406 0.45689 0.0
C1179 C 0.99236 0.66531 0.44512 0.0
C1180 C 0.958 0.66729 0.446 0.0
C1181 C 0.93756 0.66461 0.4567 0.0
C1182 C 0.92301 0.64456 0.46742 0.0
C1183 C 0.90388 0.64221 0.47764 0.0
C1184 C 0.89902 0.65974 0.47712 0.0
C1185 C 0.91326 0.67963 0.46633 0.0
C1186 C 0.93243 0.68208 0.4561 0.0
C1187 C 0.96496 0.67259 0.35377 0.0
C1188 C 0.98558 0.68926 0.34518 0.0
C1189 C 0.96265 0.66806 0.37552 0.0
C1190 C 0.98092 0.67997 0.3894 0.0
C1191 C 1.00131 0.69721 0.38082 0.0
C1192 C 1.00364 0.70166 0.35908 0.0
C1193 C 0.97882 0.67405 0.41258 0.0
C1194 C 0.96057 0.6724 0.42426 0.0
C1195 C 0.99466 0.66995 0.4233 0.0
C1196 C 0.0134 0.66958 0.41196 0.0
C1197 C 0.03585 0.68361 0.41843 0.0
C1198 C 0.05354 0.68354 0.40752 0.0
C1199 C 0.04899 0.66943 0.39018 0.0
C1200 C 0.02672 0.65526 0.38378 0.0
C1201 C 0.00896 0.65523 0.39466 0.0
H1202 H 0.06271 0.66944 0.38174 0.0
H1203 H 0.88421 0.65789 0.48505 0.0
H1204 H 0.36083 0.29682 0.5227 0.0
H1205 H 0.35334 0.29207 0.4848 0.0
H1206 H 0.36126 0.35848 0.48152 0.0
H1207 H 0.36907 0.3633 0.51936 0.0
H1208 H 0.3242 0.32899 0.45991 0.0
H1209 H 0.40161 0.34663 0.46172 0.0
H1210 H 0.43343 0.34182 0.473 0.0
H1211 H 0.40016 0.27461 0.44808 0.0
H1212 H 0.36798 0.2789 0.43692 0.0
H1213 H 0.32466 0.34016 0.34868 0.0
H1214 H 0.33245 0.34384 0.38635 0.0
H1215 H 0.33504 0.28222 0.38548 0.0
H1216 H 0.32882 0.27951 0.34742 0.0
H1217 H 0.36611 0.30824 0.40972 0.0
H1218 H 0.28876 0.28944 0.40799 0.0
H1219 H 0.25606 0.29293 0.39703 0.0
H1220 H 0.28734 0.35991 0.42236 0.0
H1221 H 0.32037 0.35693 0.43324 0.0
C1222 C 0.36163 0.31066 0.51381 0.0
C1223 C 0.36619 0.33071 0.52412 0.0
C1224 C 0.35714 0.30788 0.49205 0.0
C1225 C 0.35683 0.32495 0.4799 0.0
C1226 C 0.36137 0.34497 0.49025 0.0
C1227 C 0.36604 0.34781 0.51194 0.0
C1228 C 0.35129 0.32184 0.45664 0.0
C1229 C 0.33359 0.32472 0.44894 0.0
C1230 C 0.36289 0.31557 0.44209 0.0
C1231 C 0.38228 0.31301 0.44867 0.0
C1232 C 0.401 0.33077 0.45879 0.0
C1233 C 0.41912 0.32814 0.46514 0.0
C1234 C 0.41879 0.3079 0.46131 0.0
C1235 C 0.40038 0.29027 0.45107 0.0
C1236 C 0.3822 0.29279 0.44471 0.0
C1237 C 0.32652 0.32718 0.35658 0.0
C1238 C 0.32539 0.30917 0.34494 0.0
C1239 C 0.33091 0.32922 0.37832 0.0
C1240 C 0.33388 0.31305 0.38941 0.0
C1241 C 0.33269 0.29496 0.37772 0.0
C1242 C 0.3287 0.29316 0.35587 0.0
C1243 C 0.33894 0.31539 0.41284 0.0
C1244 C 0.35659 0.3124 0.42063 0.0
C1245 C 0.32708 0.32128 0.42753 0.0
C1246 C 0.30713 0.32303 0.42126 0.0
C1247 C 0.28871 0.30495 0.41113 0.0
C1248 C 0.27012 0.30684 0.40493 0.0
C1249 C 0.26965 0.32665 0.40895 0.0
C1250 C 0.28774 0.34459 0.41924 0.0
C1251 C 0.30639 0.3428 0.42544 0.0
H1252 H 0.25525 0.32809 0.40411 0.0
H1253 H 0.43283 0.30591 0.46624 0.0
H1254 H 0.9376 0.21825 0.86285 0.0
H1255 H 0.92458 0.22706 0.89545 0.0
H1256 H 0.98636 0.291 0.89884 0.0
H1257 H 0.9994 0.28236 0.86652 0.0
H1258 H 0.97669 0.27275 0.93614 0.0
H1259 H 0.93502 0.28547 0.88218 0.0
H1260 H 0.90933 0.27518 0.85186 0.0
H1261 H 0.8561 0.22246 0.88789 0.0
H1262 H 0.88159 0.23225 0.91835 0.0
H1263 H 0.95055 0.33507 1.00641 0.0
H1264 H 0.95846 0.32086 0.97445 0.0
H1265 H 0.89625 0.25794 0.9817 0.0
H1266 H 0.88775 0.27237 1.01359 0.0
H1267 H 0.90382 0.27181 0.94039 0.0
H1268 H 0.94565 0.26167 0.99537 0.0
H1269 H 0.97172 0.27334 0.02549 0.0
H1270 H 0.02525 0.32251 0.98706 0.0
H1271 H 0.99941 0.31137 0.95678 0.0
C1272 C 0.9484 0.2342 0.87052 0.0
C1273 C 0.96967 0.24947 0.86203 0.0
C1274 C 0.94091 0.23925 0.88918 0.0
C1275 C 0.95438 0.25982 0.89965 0.0
C1276 C 0.97565 0.27496 0.89125 0.0
C1277 C 0.98316 0.26991 0.87273 0.0
C1278 C 0.94659 0.26583 0.91931 0.0
C1279 C 0.96082 0.27271 0.93694 0.0
C1280 C 0.92563 0.26529 0.92072 0.0
C1281 C 0.91028 0.25942 0.90246 0.0
C1282 C 0.91789 0.27157 0.88358 0.0
C1283 C 0.90336 0.26584 0.86638 0.0
C1284 C 0.88112 0.24813 0.86793 0.0
C1285 C 0.87335 0.23614 0.8867 0.0
C1286 C 0.88782 0.24178 0.90394 0.0
C1287 C 0.93823 0.31836 1.00109 0.0
C1288 C 0.91841 0.30495 1.0127 0.0
C1289 C 0.94296 0.31013 0.98286 0.0
C1290 C 0.92815 0.28817 0.97575 0.0
C1291 C 0.90802 0.2749 0.98689 0.0
C1292 C 0.90325 0.28313 1.00523 0.0
C1293 C 0.93413 0.27911 0.95699 0.0
C1294 C 0.91957 0.27164 0.93959 0.0
C1295 C 0.95487 0.27923 0.95571 0.0
C1296 C 0.97053 0.28579 0.97384 0.0
C1297 C 0.96294 0.27507 0.99337 0.0
C1298 C 0.97768 0.28158 1.01047 0.0
C1299 C 1.00011 0.29869 1.0082 0.0
C1300 C 0.00786 0.30928 0.9888 0.0
C1301 C 0.99318 0.30285 0.97166 0.0
H1302 H 0.0115 0.30371 0.02146 0.0
H1303 H 0.8699 0.24373 0.85459 0.0
H1304 H 0.70738 0.59866 0.98952 0.0
H1305 H 0.71997 0.62022 0.95665 0.0
H1306 H 0.75146 0.68224 0.9918 0.0
H1307 H 0.73932 0.6608 0.02468 0.0
H1308 H 0.72189 0.67988 0.95732 0.0
H1309 H 0.78483 0.66873 0.97135 0.0
H1310 H 0.8028 0.6461 0.97935 0.0
H1311 H 0.77608 0.60857 0.92241 0.0
H1312 H 0.75765 0.63076 0.91422 0.0
H1313 H 0.77334 0.7517 0.86965 0.0
H1314 H 0.76882 0.73405 0.90419 0.0
H1315 H 0.75003 0.6706 0.87431 0.0
H1316 H 0.75507 0.68821 0.83994 0.0
H1317 H 0.77499 0.67521 0.90737 0.0
H1318 H 0.71009 0.68191 0.89372 0.0
H1319 H 0.68909 0.70129 0.88454 0.0
H1320 H 0.71549 0.74324 0.9391 0.0
H1321 H 0.73694 0.72428 0.94846 0.0
C1322 C 0.71717 0.61688 0.99023 0.0
C1323 C 0.7225 0.62801 1.00971 0.0
C1324 C 0.72437 0.62918 0.97145 0.0
C1325 C 0.73668 0.65286 0.97175 0.0
C1326 C 0.74202 0.664 0.99118 0.0
C1327 C 0.73522 0.65171 1.00995 0.0
C1328 C 0.74353 0.66599 0.95179 0.0
C1329 C 0.73382 0.6792 0.94656 0.0
C1330 C 0.75853 0.66455 0.93744 0.0
C1331 C 0.76967 0.65126 0.94228 0.0
C1332 C 0.78261 0.65551 0.96063 0.0
C1333 C 0.79292 0.6428 0.96518 0.0
C1334 C 0.79054 0.62587 0.95142 0.0
C1335 C 0.77789 0.62166 0.93306 0.0
C1336 C 0.76752 0.63432 0.92845 0.0
C1337 C 0.7687 0.73411 0.87046 0.0
C1338 C 0.76435 0.72134 0.852 0.0
C1339 C 0.76589 0.72395 0.89023 0.0
C1340 C 0.75867 0.70082 0.89196 0.0
C1341 C 0.75549 0.6884 0.87351 0.0
C1342 C 0.75824 0.69849 0.85382 0.0
C1343 C 0.75339 0.68922 0.91281 0.0
C1344 C 0.76328 0.67617 0.9182 0.0
C1345 C 0.73818 0.69043 0.92714 0.0
C1346 C 0.72534 0.70188 0.92164 0.0
C1347 C 0.71158 0.6954 0.90367 0.0
C1348 C 0.69957 0.70627 0.89845 0.0
C1349 C 0.70102 0.72352 0.91119 0.0
C1350 C 0.71444 0.7299 0.92922 0.0
C1351 C 0.72652 0.71909 0.9345 0.0
H1352 H 0.69167 0.73187 0.90712 0.0
H1353 H 0.79853 0.61604 0.95497 0.0
H1354 H 0.39482 0.13107 1.01006 0.0
H1355 H 0.37302 0.12179 0.97739 0.0
H1356 H 0.37692 0.06114 0.97158 0.0
H1357 H 0.39823 0.06999 1.00413 0.0
H1358 H 0.38566 0.08235 0.93485 0.0
H1359 H 0.32863 0.06038 0.98833 0.0
H1360 H 0.31051 0.06644 0.01912 0.0
H1361 H 0.30379 0.11711 0.98553 0.0
H1362 H 0.32217 0.11157 0.95462 0.0
H1363 H 0.3042 0.01807 0.86025 0.0
H1364 H 0.32349 0.03151 0.89383 0.0
H1365 H 0.31391 0.08905 0.89056 0.0
H1366 H 0.29408 0.07531 0.85685 0.0
H1367 H 0.30929 0.07367 0.93082 0.0
H1368 H 0.36427 0.09384 0.8765 0.0
H1369 H 0.38197 0.08725 0.84568 0.0
H1370 H 0.39276 0.04006 0.88096 0.0
H1371 H 0.37481 0.0461 0.91192 0.0
C1372 C 0.39097 0.11571 1.0019 0.0
C1373 C 0.39859 0.10145 1.0098 0.0
C1374 C 0.37847 0.11041 0.98317 0.0
C1375 C 0.37317 0.09067 0.97196 0.0
C1376 C 0.38087 0.07654 0.97977 0.0
C1377 C 0.39327 0.08177 0.99841 0.0
C1378 C 0.35977 0.08455 0.95206 0.0
C1379 C 0.36889 0.08029 0.93407 0.0
C1380 C 0.3381 0.08244 0.95071 0.0
C1381 C 0.32702 0.08575 0.96926 0.0
C1382 C 0.32347 0.07295 0.98757 0.0
C1383 C 0.31311 0.07626 1.00504 0.0
C1384 C 0.30607 0.0922 1.00431 0.0
C1385 C 0.3093 0.10481 0.98609 0.0
C1386 C 0.31967 0.10158 0.96859 0.0
C1387 C 0.30601 0.0335 0.86675 0.0
C1388 C 0.29786 0.04578 0.85574 0.0
C1389 C 0.31712 0.04122 0.88595 0.0
C1390 C 0.32074 0.06164 0.89456 0.0
C1391 C 0.31152 0.07335 0.8842 0.0
C1392 C 0.30014 0.06547 0.86496 0.0
C1393 C 0.33503 0.07101 0.91379 0.0
C1394 C 0.32613 0.07593 0.93158 0.0
C1395 C 0.35697 0.07377 0.915 0.0
C1396 C 0.36805 0.07031 0.89649 0.0
C1397 C 0.3703 0.08196 0.87765 0.0
C1398 C 0.38038 0.07833 0.86016 0.0
C1399 C 0.38845 0.06322 0.86135 0.0
C1400 C 0.38649 0.05175 0.88006 0.0
C1401 C 0.37639 0.05528 0.89759 0.0
H1402 H 0.39624 0.06042 0.84778 0.0
H1403 H 0.29805 0.09473 1.01784 0.0
H1404 H 0.22199 0.93909 0.67698 0.0
H1405 H 0.2296 0.92536 0.6442 0.0
H1406 H 0.2931 0.98728 0.63825 0.0
H1407 H 0.28569 1.00101 0.6708 0.0
H1408 H 0.27305 0.97625 0.60158 0.0
H1409 H 0.28906 0.93706 0.65556 0.0
H1410 H 0.28055 0.9125 0.6865 0.0
H1411 H 0.22664 0.85769 0.65294 0.0
H1412 H 0.23465 0.88204 0.62187 0.0
H1413 H 0.33409 0.94926 0.53056 0.0
H1414 H 0.32046 0.95782 0.56254 0.0
H1415 H 0.25774 0.89506 0.55725 0.0
H1416 H 0.27159 0.88595 0.52528 0.0
H1417 H 0.27321 0.90398 0.59828 0.0
H1418 H 0.25997 0.94334 0.54307 0.0
H1419 H 0.27002 0.96833 0.51228 0.0
H1420 H 0.32014 0.02348 0.54856 0.0
H1421 H 0.31063 0.99873 0.5795 0.0
C1422 C 0.23759 0.94977 0.66872 0.0
C1423 C 0.25312 0.97126 0.67658 0.0
C1424 C 0.24195 0.94188 0.64995 0.0
C1425 C 0.26205 0.95518 0.63872 0.0
C1426 C 0.27741 0.97669 0.64645 0.0
C1427 C 0.27306 0.98459 0.6651 0.0
C1428 C 0.26734 0.94691 0.61898 0.0
C1429 C 0.27324 0.96052 0.60097 0.0
C1430 C 0.26709 0.92611 0.61785 0.0
C1431 C 0.26228 0.91144 0.63649 0.0
C1432 C 0.27527 0.91982 0.65484 0.0
C1433 C 0.27056 0.90593 0.67239 0.0
C1434 C 0.25302 0.88357 0.67171 0.0
C1435 C 0.24019 0.87503 0.65346 0.0
C1436 C 0.24481 0.88886 0.63587 0.0
C1437 C 0.31754 0.93698 0.53631 0.0
C1438 C 0.30403 0.9168 0.52525 0.0
C1439 C 0.30965 0.94207 0.55455 0.0
C1440 C 0.28793 0.92726 0.56222 0.0
C1441 C 0.27452 0.90682 0.5516 0.0
C1442 C 0.28242 0.9017 0.53323 0.0
C1443 C 0.2793 0.93355 0.58109 0.0
C1444 C 0.27278 0.91958 0.59888 0.0
C1445 C 0.2791 0.95411 0.58209 0.0
C1446 C 0.28469 0.96912 0.56357 0.0
C1447 C 0.27323 0.96076 0.54445 0.0
C1448 C 0.27882 0.97489 0.52697 0.0
C1449 C 0.29574 0.99747 0.52845 0.0
C1450 C 0.30705 0.00598 0.54743 0.0
C1451 C 0.30155 0.99192 0.56495 0.0
H1452 H 0.30005 0.00838 0.5149 0.0
H1453 H 0.2494 0.87283 0.68531 0.0
H1454 H 0.07178 0.28694 0.6816 0.0
H1455 H 0.08541 0.30504 0.64725 0.0
H1456 H 0.03152 0.32039 0.64482 0.0
H1457 H 0.01768 0.30206 0.67869 0.0
H1458 H 0.03693 0.3065 0.60736 0.0
H1459 H 0.08586 0.36006 0.65938 0.0
H1460 H 0.11276 0.37296 0.6889 0.0
H1461 H 0.15908 0.36211 0.65219 0.0
H1462 H 0.1323 0.34885 0.62253 0.0
H1463 H 0.07184 0.39388 0.53438 0.0
H1464 H 0.06185 0.37194 0.56653 0.0
H1465 H 0.12053 0.3645 0.56036 0.0
H1466 H 0.13141 0.38759 0.52846 0.0
H1467 H 0.11464 0.37143 0.60058 0.0
H1468 H 0.06715 0.32121 0.54731 0.0
H1469 H 0.04038 0.30872 0.51771 0.0
H1470 H 0.99133 0.31288 0.55654 0.0
H1471 H 0.01793 0.32571 0.5863 0.0
C1472 C 0.06268 0.2939 0.67358 0.0
C1473 C 0.04376 0.29323 0.68304 0.0
C1474 C 0.0706 0.30444 0.65402 0.0
C1475 C 0.05972 0.31444 0.64348 0.0
C1476 C 0.04033 0.31296 0.65257 0.0
C1477 C 0.03251 0.30257 0.67207 0.0
C1478 C 0.06853 0.32691 0.62325 0.0
C1479 C 0.05389 0.32078 0.60595 0.0
C1480 C 0.09086 0.3452 0.62107 0.0
C1481 C 0.10698 0.35322 0.63884 0.0
C1482 C 0.10171 0.36026 0.65767 0.0
C1483 C 0.11695 0.36766 0.67441 0.0
C1484 C 0.13759 0.36828 0.67244 0.0
C1485 C 0.14307 0.36157 0.6537 0.0
C1486 C 0.12787 0.35412 0.63692 0.0
C1487 C 0.083 0.38807 0.53996 0.0
C1488 C 0.10258 0.39275 0.52864 0.0
C1489 C 0.07701 0.37513 0.5583 0.0
C1490 C 0.09013 0.36608 0.56577 0.0
C1491 C 0.10998 0.3711 0.55488 0.0
C1492 C 0.1161 0.38421 0.5365 0.0
C1493 C 0.08287 0.35131 0.58484 0.0
C1494 C 0.09778 0.35698 0.60189 0.0
C1495 C 0.06077 0.33254 0.5868 0.0
C1496 C 0.04461 0.32458 0.569 0.0
C1497 C 0.05071 0.31959 0.5495 0.0
C1498 C 0.03556 0.31244 0.5327 0.0
C1499 C 0.01418 0.31005 0.53523 0.0
C1500 C 0.00789 0.31475 0.5546 0.0
C1501 C 0.02299 0.32194 0.57145 0.0
H1502 H 1.00248 0.30452 0.5222 0.0
H1503 H 0.14937 0.37403 0.68542 0.0
H1504 H 0.61705 0.73624 0.52357 0.0
H1505 H 0.6343 0.74876 0.55845 0.0
H1506 H 0.65192 0.69647 0.55879 0.0
H1507 H 0.63452 0.6838 0.52439 0.0
H1508 H 0.63702 0.69985 0.59654 0.0
H1509 H 0.69042 0.75151 0.54569 0.0
H1510 H 0.70284 0.77946 0.51711 0.0
H1511 H 0.69011 0.82317 0.55585 0.0
H1512 H 0.67733 0.79531 0.58458 0.0
H1513 H 0.72475 0.73328 0.66881 0.0
H1514 H 0.70252 0.72417 0.6369 0.0
H1515 H 0.69433 0.78204 0.64583 0.0
H1516 H 0.71782 0.79214 0.67744 0.0
H1517 H 0.70095 0.77777 0.60534 0.0
H1518 H 0.65137 0.72774 0.65763 0.0
H1519 H 0.63945 0.69991 0.68629 0.0
H1520 H 0.64456 0.65309 0.64511 0.0
H1521 H 0.65684 0.68076 0.61627 0.0
C1522 C 0.6243 0.72724 0.53127 0.0
C1523 C 0.62459 0.70917 0.52109 0.0
C1524 C 0.63434 0.73452 0.55112 0.0
C1525 C 0.64476 0.72378 0.56121 0.0
C1526 C 0.64413 0.70514 0.5514 0.0
C1527 C 0.63426 0.69798 0.53163 0.0
C1528 C 0.65696 0.73209 0.58163 0.0
C1529 C 0.65106 0.71686 0.5984 0.0
C1530 C 0.67493 0.75447 0.5844 0.0
C1531 C 0.68267 0.77122 0.56718 0.0
C1532 C 0.6901 0.767 0.54805 0.0
C1533 C 0.69724 0.78284 0.53183 0.0
C1534 C 0.6972 0.80305 0.53463 0.0
C1535 C 0.69009 0.80749 0.55368 0.0
C1536 C 0.6829 0.79169 0.56994 0.0
C1537 C 0.71872 0.74447 0.6639 0.0
C1538 C 0.72334 0.76359 0.67589 0.0
C1539 C 0.70559 0.73896 0.6457 0.0
C1540 C 0.69624 0.75209 0.63906 0.0
C1541 C 0.70116 0.77149 0.65065 0.0
C1542 C 0.71449 0.77715 0.66887 0.0
C1543 C 0.68134 0.74536 0.6201 0.0
C1544 C 0.6867 0.76085 0.60361 0.0
C1545 C 0.66282 0.7232 0.61758 0.0
C1546 C 0.65517 0.70639 0.63482 0.0
C1547 C 0.65007 0.71156 0.65472 0.0
C1548 C 0.64324 0.69581 0.67099 0.0
C1549 C 0.64128 0.67477 0.66753 0.0
C1550 C 0.64609 0.6694 0.64777 0.0
C1551 C 0.65296 0.6851 0.63144 0.0
H1552 H 0.63601 0.6626 0.68015 0.0
H1553 H 0.70273 0.81529 0.52207 0.0
H1554 H 0.40228 0.41525 0.85664 0.0
H1555 H 0.40694 0.41313 0.81856 0.0
H1556 H 0.34245 0.35194 0.81573 0.0
H1557 H 0.33801 0.354 0.8537 0.0
H1558 H 0.37063 0.34636 0.79251 0.0
H1559 H 0.352 0.40486 0.7972 0.0
H1560 H 0.35589 0.44076 0.80947 0.0
H1561 H 0.4226 0.47685 0.78336 0.0
H1562 H 0.41923 0.44111 0.7712 0.0
H1563 H 0.35417 0.33887 0.68177 0.0
H1564 H 0.35192 0.34273 0.71971 0.0
H1565 H 0.41654 0.40388 0.71865 0.0
H1566 H 0.41836 0.40033 0.68033 0.0
H1567 H 0.38997 0.41005 0.74402 0.0
H1568 H 0.40711 0.35042 0.73781 0.0
H1569 H 0.40181 0.31404 0.72526 0.0
H1570 H 0.33652 0.27941 0.75433 0.0
H1571 H 0.34119 0.3156 0.76665 0.0
C1572 C 0.38903 0.40148 0.84782 0.0
C1573 C 0.36975 0.38485 0.85828 0.0
C1574 C 0.39166 0.40025 0.82595 0.0
C1575 C 0.375 0.3824 0.81384 0.0
C1576 C 0.35568 0.36588 0.8244 0.0
C1577 C 0.35307 0.36712 0.84619 0.0
C1578 C 0.3777 0.38063 0.79038 0.0
C1579 C 0.37461 0.36027 0.78194 0.0
C1580 C 0.3834 0.39877 0.77627 0.0
C1581 C 0.38546 0.42028 0.78349 0.0
C1582 C 0.36757 0.42044 0.79422 0.0
C1583 C 0.36967 0.44076 0.80113 0.0
C1584 C 0.3895 0.46107 0.79725 0.0
C1585 C 0.40726 0.4611 0.78639 0.0
C1586 C 0.40526 0.44082 0.77948 0.0
C1587 C 0.36798 0.3531 0.68962 0.0
C1588 C 0.3865 0.36925 0.6779 0.0
C1589 C 0.36675 0.35526 0.71147 0.0
C1590 C 0.3842 0.37346 0.72253 0.0
C1591 C 0.40279 0.38961 0.71079 0.0
C1592 C 0.40394 0.38751 0.68883 0.0
C1593 C 0.38281 0.37573 0.74612 0.0
C1594 C 0.38612 0.39618 0.75458 0.0
C1595 C 0.37718 0.3576 0.76026 0.0
C1596 C 0.37443 0.33578 0.75299 0.0
C1597 C 0.39155 0.33506 0.74139 0.0
C1598 C 0.38864 0.31446 0.7343 0.0
C1599 C 0.36879 0.29442 0.73891 0.0
C1600 C 0.35184 0.29494 0.75068 0.0
C1601 C 0.35461 0.31549 0.75772 0.0
H1602 H 0.36657 0.27849 0.73341 0.0
H1603 H 0.3911 0.47679 0.8026 0.0
H1604 H 0.63073 0.02771 0.67931 0.0
H1605 H 0.62557 0.02082 0.71727 0.0
H1606 H 0.69185 0.02828 0.72167 0.0
H1607 H 0.69693 0.03518 0.68372 0.0
H1608 H 0.66334 0.99262 0.74368 0.0
H1609 H 0.67893 0.06903 0.7406 0.0
H1610 H 0.67361 0.10029 0.7286 0.0
H1611 H 0.60586 0.06618 0.75244 0.0
H1612 H 0.61066 0.03455 0.76433 0.0
H1613 H 0.67455 0.99691 0.85487 0.0
H1614 H 0.67825 0.0044 0.81715 0.0
H1615 H 0.61327 1.00031 0.81652 0.0
H1616 H 0.61007 0.9937 0.85467 0.0
H1617 H 0.63975 0.03348 0.7923 0.0
H1618 H 0.6245 0.95742 0.79644 0.0
H1619 H 0.62987 0.92617 0.80837 0.0
H1620 H 0.69655 0.95901 0.78209 0.0
H1621 H 0.69179 0.99068 0.7704 0.0
C1622 C 0.64444 0.0285 0.68847 0.0
C1623 C 0.6645 0.0326 0.67845 0.0
C1624 C 0.64144 0.0244 0.71027 0.0
C1625 C 0.65837 0.02416 0.72277 0.0
C1626 C 0.67844 0.02835 0.71269 0.0
C1627 C 0.68146 0.03252 0.69094 0.0
C1628 C 0.655 0.01893 0.74608 0.0
C1629 C 0.65846 1.00181 0.7543 0.0
C1630 C 0.64798 0.03029 0.76019 0.0
C1631 C 0.64508 0.04932 0.75316 0.0
C1632 C 0.66283 0.06812 0.74314 0.0
C1633 C 0.65992 0.08591 0.73638 0.0
C1634 C 0.63939 0.08519 0.7397 0.0
C1635 C 0.62174 0.0667 0.74985 0.0
C1636 C 0.62455 0.04884 0.75661 0.0
C1637 C 0.66098 0.99749 0.84669 0.0
C1638 C 0.64197 0.99462 0.85792 0.0
C1639 C 0.66302 1.00166 0.82495 0.0
C1640 C 0.64591 0.00265 0.81346 0.0
C1641 C 0.6268 0.99965 0.82469 0.0
C1642 C 0.62485 0.99567 0.84656 0.0
C1643 C 0.64823 0.00722 0.78998 0.0
C1644 C 0.64455 0.02421 0.78171 0.0
C1645 C 0.655 0.99568 0.77579 0.0
C1646 C 0.65785 0.97655 0.78272 0.0
C1647 C 0.64038 0.95807 0.79335 0.0
C1648 C 0.64332 0.94027 0.80008 0.0
C1649 C 0.66358 0.94064 0.79608 0.0
C1650 C 0.68091 0.95877 0.78527 0.0
C1651 C 0.67809 0.97665 0.77858 0.0
H1652 H 0.66583 0.92685 0.80129 0.0
H1653 H 0.63717 0.09899 0.73446 0.0
H1654 H 0.0576 0.68569 0.85075 0.0
H1655 H 0.05167 0.68079 0.81277 0.0
H1656 H 0.9946 0.61438 0.82277 0.0
H1657 H 1.00153 0.61884 0.86073 0.0
H1658 H 0.01272 0.61162 0.78948 0.0
H1659 H 0.99192 0.66596 0.8109 0.0
H1660 H 0.99784 0.701 0.82759 0.0
H1661 H 0.05277 0.74015 0.78552 0.0
H1662 H 0.04734 0.70532 0.76875 0.0
H1663 H 0.9716 0.64487 0.68586 0.0
H1664 H 0.97804 0.6473 0.72394 0.0
H1665 H 0.02776 0.62684 0.71551 0.0
H1666 H 0.02085 0.62393 0.6775 0.0
H1667 H 0.01166 0.67238 0.74812 0.0
H1668 H 0.03263 0.60087 0.75912 0.0
H1669 H 0.02261 0.56408 0.74349 0.0
H1670 H 0.95956 0.55625 0.72209 0.0
H1671 H 0.96907 0.59282 0.73783 0.0
C1672 C 0.04405 0.66987 0.84482 0.0
C1673 C 0.0301 0.65264 0.85893 0.0
C1674 C 0.04039 0.66716 0.82298 0.0
C1675 C 0.02221 0.64738 0.81443 0.0
C1676 C 0.00869 0.6299 0.82856 0.0
C1677 C 0.01263 0.63246 0.85039 0.0
C1678 C 0.01708 0.64498 0.79102 0.0
C1679 C 0.01259 0.62503 0.78054 0.0
C1680 C 0.01634 0.66206 0.77891 0.0
C1681 C 0.01933 0.68303 0.78869 0.0
C1682 C 0.0053 0.68204 0.80526 0.0
C1683 C 0.00858 0.70186 0.81474 0.0
C1684 C 0.0257 0.72278 0.80765 0.0
C1685 C 0.03953 0.72393 0.79101 0.0
C1686 C 0.03634 0.70416 0.78149 0.0
C1687 C 0.98363 0.64052 0.6922 0.0
C1688 C 0.99547 0.63389 0.67858 0.0
C1689 C 0.9875 0.64213 0.71404 0.0
C1690 C 1.00332 0.6371 0.72306 0.0
C1691 C 0.01514 0.63044 0.70936 0.0
C1692 C 0.01122 0.62879 0.68752 0.0
C1693 C 0.00763 0.63917 0.74658 0.0
C1694 C 0.01191 0.65904 0.75706 0.0
C1695 C 0.00767 0.62182 0.75879 0.0
C1696 C 1.00169 0.59969 0.74947 0.0
C1697 C 0.0166 0.59125 0.75115 0.0
C1698 C 0.01101 0.57045 0.74226 0.0
C1699 C 0.99049 0.55787 0.73174 0.0
C1700 C 0.97548 0.56604 0.73017 0.0
C1701 C 0.98097 0.58682 0.73905 0.0
H1702 H 0.98621 0.54178 0.72486 0.0
H1703 H 0.02824 0.73811 0.81503 0.0
H1704 H 0.55866 0.60404 0.34155 0.0
H1705 H 0.56833 0.59158 0.30913 0.0
H1706 H 0.6273 0.6572 0.30193 0.0
H1707 H 0.61821 0.6696 0.33438 0.0
H1708 H 0.60487 0.6426 0.2653 0.0
H1709 H 0.63143 0.61258 0.31951 0.0
H1710 H 0.62778 0.59023 0.3511 0.0
H1711 H 0.57846 0.53005 0.3199 0.0
H1712 H 0.58158 0.55212 0.2882 0.0
H1713 H 0.67167 0.62791 0.19186 0.0
H1714 H 0.6577 0.63338 0.22526 0.0
H1715 H 0.60169 0.56535 0.22249 0.0
H1716 H 0.61582 0.55972 0.18879 0.0
H1717 H 0.6183 0.57783 0.26318 0.0
H1718 H 0.59375 0.60778 0.20803 0.0
H1719 H 0.59809 0.63035 0.17642 0.0
H1720 H 0.64367 0.69083 0.20952 0.0
H1721 H 0.63989 0.66858 0.24125 0.0
C1722 C 0.57377 0.61582 0.33317 0.0
C1723 C 0.58752 0.63795 0.34072 0.0
C1724 C 0.57926 0.60865 0.31457 0.0
C1725 C 0.59864 0.6234 0.30305 0.0
C1726 C 0.61219 0.6455 0.3104 0.0
C1727 C 0.60682 0.65264 0.32898 0.0
C1728 C 0.60496 0.61608 0.28333 0.0
C1729 C 0.60796 0.62853 0.26493 0.0
C1730 C 0.60841 0.59732 0.28256 0.0
C1731 C 0.60653 0.58404 0.30158 0.0
C1732 C 0.61965 0.59461 0.31945 0.0
C1733 C 0.61771 0.58199 0.33736 0.0
C1734 C 0.60285 0.55875 0.33753 0.0
C1735 C 0.58993 0.54807 0.31976 0.0
C1736 C 0.59179 0.56062 0.30182 0.0
C1737 C 0.65646 0.61401 0.19841 0.0
C1738 C 0.64467 0.59348 0.18748 0.0
C1739 C 0.64846 0.61718 0.21753 0.0
C1740 C 0.62833 0.59998 0.22623 0.0
C1741 C 0.61718 0.57895 0.21604 0.0
C1742 C 0.62529 0.57571 0.19681 0.0
C1743 C 0.61862 0.60466 0.24531 0.0
C1744 C 0.61497 0.59173 0.26353 0.0
C1745 C 0.61453 0.623 0.24597 0.0
C1746 C 0.61666 0.63648 0.22698 0.0
C1747 C 0.60481 0.62588 0.20854 0.0
C1748 C 0.60716 0.63862 0.1906 0.0
C1749 C 0.62118 0.662 0.19095 0.0
C1750 C 0.63283 0.67271 0.20927 0.0
C1751 C 0.63058 0.66004 0.22724 0.0
H1752 H 0.62298 0.67184 0.17705 0.0
H1753 H 0.60137 0.549 0.35141 0.0
H1754 H 0.44111 0.08433 0.20472 0.0
H1755 H 0.4349 0.06629 0.23923 0.0
H1756 H 0.40802 1.00141 0.20944 0.0
H1757 H 0.41453 0.01925 0.17507 0.0
H1758 H 0.38032 1.00045 0.24038 0.0
H1759 H 0.45954 0.02639 0.23262 0.0
H1760 H 0.49947 0.05463 0.22645 0.0
H1761 H 0.49903 0.09207 0.28027 0.0
H1762 H 0.45898 0.06419 0.2866 0.0
H1763 H 0.36794 0.93601 0.33145 0.0
H1764 H 0.38028 0.9537 0.29697 0.0
H1765 H 0.41395 0.01928 0.32609 0.0
H1766 H 0.40275 1.00172 0.36054 0.0
H1767 H 0.43863 0.01975 0.29518 0.0
H1768 H 0.36017 0.99611 0.30259 0.0
H1769 H 0.3199 0.96929 0.30913 0.0
H1770 H 0.31829 0.92949 0.25645 0.0
H1771 H 0.35866 0.95593 0.24977 0.0
C1772 C 0.43429 0.06628 0.20549 0.0
C1773 C 0.42814 0.05329 0.18701 0.0
C1774 C 0.43065 0.05596 0.22527 0.0
C1775 C 0.42089 0.03242 0.22701 0.0
C1776 C 0.41536 0.01954 0.20859 0.0
C1777 C 0.41906 0.02981 0.18889 0.0
C1778 C 0.41557 0.021 0.24792 0.0
C1779 C 0.39315 0.00446 0.25224 0.0
C1780 C 0.43211 0.02659 0.2637 0.0
C1781 C 0.4562 0.04331 0.25996 0.0
C1782 C 0.46791 0.04074 0.24304 0.0
C1783 C 0.49057 0.05666 0.23953 0.0
C1784 C 0.50176 0.07516 0.25292 0.0
C1785 C 0.49033 0.07774 0.26989 0.0
C1786 C 0.46766 0.06187 0.27346 0.0
C1787 C 0.37833 0.95416 0.33058 0.0
C1788 C 0.38402 0.96738 0.3489 0.0
C1789 C 0.38516 0.96432 0.31077 0.0
C1790 C 0.39765 0.98795 0.30875 0.0
C1791 C 0.40418 1.00107 0.32707 0.0
C1792 C 0.39752 0.99095 0.34683 0.0
C1793 C 0.40335 0.99911 0.28765 0.0
C1794 C 0.4258 0.01565 0.2833 0.0
C1795 C 0.38678 0.99373 0.2719 0.0
C1796 C 0.36249 0.97786 0.27582 0.0
C1797 C 0.35126 0.98155 0.2925 0.0
C1798 C 0.32842 0.96643 0.29621 0.0
C1799 C 0.31656 0.94767 0.28325 0.0
C1800 C 0.32751 0.94402 0.2665 0.0
C1801 C 0.35037 0.95906 0.26273 0.0
H1802 H 0.29887 0.93598 0.28615 0.0
H1803 H 0.51931 0.08748 0.25018 0.0
H1804 H 0.08971 0.4375 0.33288 0.0
H1805 H 0.07164 0.43191 0.29841 0.0
H1806 H 0.00716 0.40788 0.32846 0.0
H1807 H 0.02505 0.41369 0.36275 0.0
H1808 H 1.00418 0.37955 0.2977 0.0
H1809 H 0.03453 0.45948 0.30483 0.0
H1810 H 0.06446 0.49882 0.31067 0.0
H1811 H 0.10033 0.49545 0.25682 0.0
H1812 H 0.07074 0.45596 0.25082 0.0
H1813 H 0.94076 0.36959 0.20645 0.0
H1814 H 0.9586 0.3814 0.24089 0.0
H1815 H 0.02426 0.41305 0.21175 0.0
H1816 H 0.00661 0.40278 0.17733 0.0
H1817 H 0.02638 0.43786 0.24248 0.0
H1818 H 0.99795 0.3582 0.23581 0.0
H1819 H 0.96884 0.31862 0.22951 0.0
H1820 H 0.93073 0.32083 0.28203 0.0
H1821 H 0.9595 0.36053 0.28848 0.0
C1822 C 0.07177 0.43144 0.33216 0.0
C1823 C 0.05886 0.42586 0.35068 0.0
C1824 C 0.0614 0.42816 0.31241 0.0
C1825 C 0.03794 0.41936 0.31074 0.0
C1826 C 0.02521 0.41446 0.32923 0.0
C1827 C 0.03551 0.41778 0.34889 0.0
C1828 C 0.0264 0.41442 0.28987 0.0
C1829 C 0.00886 0.3924 0.28573 0.0
C1830 C 0.03278 0.43095 0.27397 0.0
C1831 C 0.05053 0.4547 0.2775 0.0
C1832 C 0.04889 0.46707 0.29433 0.0
C1833 C 0.06577 0.4894 0.29765 0.0
C1834 C 0.08431 0.49961 0.28415 0.0
C1835 C 0.08597 0.48751 0.26727 0.0
C1836 C 0.06914 0.46516 0.2639 0.0
C1837 C 0.95898 0.37945 0.20728 0.0
C1838 C 0.97214 0.38483 0.18893 0.0
C1839 C 0.96923 0.38594 0.2271 0.0
C1840 C 0.9929 0.39763 0.22914 0.0
C1841 C 0.00601 0.40386 0.21079 0.0
C1842 C 0.99581 0.39767 0.19102 0.0
C1843 C 1.00413 0.40293 0.25024 0.0
C1844 C 0.02164 0.42499 0.25443 0.0
C1845 C 0.9979 0.38637 0.26614 0.0
C1846 C 0.98077 0.3624 0.2625 0.0
C1847 C 0.98331 0.35027 0.24595 0.0
C1848 C 0.96687 0.32782 0.24235 0.0
C1849 C 0.94791 0.31724 0.25532 0.0
C1850 C 0.9454 0.32906 0.27197 0.0
C1851 C 0.96178 0.35153 0.27562 0.0
H1852 H 0.93518 0.29987 0.25249 0.0
H1853 H 0.09737 0.5169 0.28675 0.0
H1854 H 0.28284 0.90663 0.36756 0.0
H1855 H 0.24804 0.88248 0.34763 0.0
H1856 H 0.219 0.84081 0.40233 0.0
H1857 H 0.25346 0.86517 0.42226 0.0
H1858 H 0.21716 0.81632 0.36583 0.0
H1859 H 0.19916 0.87316 0.38693 0.0
H1860 H 0.20603 0.91199 0.38971 0.0
H1861 H 0.20756 0.91745 0.32256 0.0
H1862 H 0.20104 0.87875 0.31938 0.0
H1863 H 0.10538 0.74187 0.33466 0.0
H1864 H 0.13982 0.76956 0.35187 0.0
H1865 H 0.15522 0.81471 0.29944 0.0
H1866 H 0.11967 0.78763 0.28271 0.0
H1867 H 0.16578 0.83876 0.33266 0.0
H1868 H 0.18368 0.78338 0.31014 0.0
H1869 H 0.17884 0.74548 0.30554 0.0
H1870 H 0.18036 0.73823 0.37233 0.0
H1871 H 0.18492 0.77598 0.37734 0.0
C1872 C 0.26877 0.89263 0.3754 0.0
C1873 C 0.27081 0.88777 0.39644 0.0
C1874 C 0.24893 0.87876 0.364 0.0
C1875 C 0.23085 0.85966 0.3734 0.0
C1876 C 0.23267 0.85532 0.39465 0.0
C1877 C 0.2523 0.86933 0.40608 0.0
C1878 C 0.21049 0.8435 0.36098 0.0
C1879 C 0.20578 0.82116 0.35878 0.0
C1880 C 0.19605 0.84993 0.35103 0.0
C1881 C 0.19986 0.87315 0.35293 0.0
C1882 C 0.20117 0.88271 0.37276 0.0
C1883 C 0.20496 0.90468 0.37441 0.0
C1884 C 0.20729 0.9172 0.35633 0.0
C1885 C 0.20578 0.90775 0.33655 0.0
C1886 C 0.20203 0.88579 0.33482 0.0
C1887 C 0.11584 0.75773 0.32673 0.0
C1888 C 0.10931 0.7623 0.30716 0.0
C1889 C 0.13593 0.77356 0.33655 0.0
C1890 C 0.15063 0.79433 0.32695 0.0
C1891 C 0.14438 0.79889 0.3073 0.0
C1892 C 0.12405 0.78315 0.29755 0.0
C1893 C 0.17213 0.81129 0.33769 0.0
C1894 C 0.17715 0.83383 0.33957 0.0
C1895 C 0.18715 0.80516 0.34705 0.0
C1896 C 0.18445 0.78245 0.34411 0.0
C1897 C 0.18283 0.77364 0.32385 0.0
C1898 C 0.18016 0.75219 0.32117 0.0
C1899 C 0.17924 0.73943 0.33863 0.0
C1900 C 0.18105 0.74812 0.35882 0.0
C1901 C 0.18371 0.76956 0.36159 0.0
H1902 H 0.17717 0.72283 0.33652 0.0
H1903 H 0.21022 0.93421 0.35763 0.0
H1904 H 0.26692 0.37815 0.29234 0.0
H1905 H 0.24072 0.38713 0.31035 0.0
H1906 H 0.21973 0.32942 0.35067 0.0
H1907 H 0.24511 0.31995 0.33206 0.0
H1908 H 0.18448 0.32992 0.3415 0.0
H1909 H 0.25564 0.38813 0.36646 0.0
H1910 H 0.29472 0.41981 0.36428 0.0
H1911 H 0.2719 0.45897 0.33055 0.0
H1912 H 0.23269 0.42739 0.33229 0.0
H1913 H 0.13535 0.36794 0.42166 0.0
H1914 H 0.15925 0.35705 0.40185 0.0
H1915 H 0.16261 0.39978 0.35073 0.0
H1916 H 0.13799 0.40997 0.37016 0.0
H1917 H 0.2061 0.40697 0.36538 0.0
H1918 H 0.13356 0.34664 0.34293 0.0
H1919 H 0.09515 0.31464 0.34844 0.0
H1920 H 0.1222 0.27911 0.38205 0.0
H1921 H 0.16078 0.31106 0.37701 0.0
C1922 C 0.25687 0.36753 0.30518 0.0
C1923 C 0.25817 0.34832 0.3107 0.0
C1924 C 0.24186 0.3727 0.31559 0.0
C1925 C 0.22815 0.35916 0.33223 0.0
C1926 C 0.22981 0.34018 0.33791 0.0
C1927 C 0.24447 0.33479 0.32727 0.0
C1928 C 0.21175 0.36432 0.34339 0.0
C1929 C 0.18946 0.34677 0.34692 0.0
C1930 C 0.21772 0.38629 0.35042 0.0
C1931 C 0.24126 0.4053 0.3493 0.0
C1932 C 0.25898 0.40343 0.35843 0.0
C1933 C 0.28115 0.42138 0.3573 0.0
C1934 C 0.2858 0.44136 0.34723 0.0
C1935 C 0.26827 0.44346 0.33831 0.0
C1936 C 0.24607 0.42555 0.33938 0.0
C1937 C 0.14048 0.37434 0.40588 0.0
C1938 C 0.13428 0.38941 0.39729 0.0
C1939 C 0.1544 0.36833 0.39465 0.0
C1940 C 0.16287 0.37761 0.37475 0.0
C1941 C 0.15638 0.39237 0.36602 0.0
C1942 C 0.14212 0.39802 0.37706 0.0
C1943 C 0.17911 0.37262 0.36339 0.0
C1944 C 0.2013 0.39018 0.35989 0.0
C1945 C 0.17321 0.3506 0.35683 0.0
C1946 C 0.15004 0.33134 0.35978 0.0
C1947 C 0.13131 0.33209 0.35166 0.0
C1948 C 0.1095 0.31394 0.35467 0.0
C1949 C 0.10623 0.29488 0.36564 0.0
C1950 C 0.12476 0.2939 0.37358 0.0
C1951 C 0.1466 0.31201 0.37064 0.0
H1952 H 0.08933 0.28085 0.36795 0.0
H1953 H 0.30297 0.45524 0.34638 0.0
H1954 H 0.64312 0.89918 0.29567 0.0
H1955 H 0.63295 0.86421 0.31459 0.0
H1956 H 0.69589 0.8981 0.34848 0.0
H1957 H 0.70628 0.93279 0.32927 0.0
H1958 H 0.68966 0.85944 0.33862 0.0
H1959 H 0.64221 0.8831 0.3709 0.0
H1960 H 0.61414 0.8956 0.3728 0.0
H1961 H 0.56439 0.83355 0.34456 0.0
H1962 H 0.59227 0.8208 0.34222 0.0
H1963 H 0.65444 0.77383 0.42016 0.0
H1964 H 0.66629 0.80931 0.401 0.0
H1965 H 0.61384 0.77326 0.35538 0.0
H1966 H 0.60255 0.73787 0.37403 0.0
H1967 H 0.61491 0.81297 0.37211 0.0
H1968 H 0.66476 0.79016 0.3412 0.0
H1969 H 0.69368 0.77875 0.34213 0.0
H1970 H 0.74017 0.84132 0.37176 0.0
H1971 H 0.71137 0.85296 0.37131 0.0
C1972 C 0.6547 0.89923 0.30729 0.0
C1973 C 0.67558 0.91889 0.31082 0.0
C1974 C 0.64886 0.87916 0.31819 0.0
C1975 C 0.66351 0.87829 0.33327 0.0
C1976 C 0.68425 0.89803 0.33692 0.0
C1977 C 0.69019 0.91796 0.32588 0.0
C1978 C 0.65751 0.85689 0.345 0.0
C1979 C 0.67339 0.84953 0.34616 0.0
C1980 C 0.63623 0.84352 0.35482 0.0
C1981 C 0.6194 0.8511 0.35618 0.0
C1982 C 0.62533 0.87219 0.36494 0.0
C1983 C 0.60945 0.87931 0.36613 0.0
C1984 C 0.58751 0.8654 0.35875 0.0
C1985 C 0.5814 0.84432 0.35023 0.0
C1986 C 0.59723 0.83713 0.34899 0.0
C1987 C 0.64572 0.7735 0.40586 0.0
C1988 C 0.62748 0.7531 0.39869 0.0
C1989 C 0.65241 0.79377 0.39496 0.0
C1990 C 0.64083 0.79408 0.37679 0.0
C1991 C 0.62293 0.77359 0.36941 0.0
C1992 C 0.61655 0.75335 0.38005 0.0
C1993 C 0.64702 0.81568 0.36559 0.0
C1994 C 0.63116 0.82301 0.36457 0.0
C1995 C 0.66845 0.82924 0.35628 0.0
C1996 C 0.68582 0.82232 0.35643 0.0
C1997 C 0.68108 0.8014 0.34809 0.0
C1998 C 0.69746 0.7949 0.3485 0.0
C1999 C 0.71873 0.80927 0.35705 0.0
C2000 C 0.72367 0.83019 0.36517 0.0
C2001 C 0.70733 0.83675 0.36483 0.0
H2002 H 0.7314 0.80422 0.35735 0.0
H2003 H 0.57523 0.87093 0.35968 0.0
H2004 H 0.7477 0.10756 0.2029 0.0
H2005 H 0.77597 0.14203 0.18574 0.0
H2006 H 0.82242 0.15434 0.23641 0.0
H2007 H 0.79436 0.11945 0.25355 0.0
H2008 H 0.82334 0.1937 0.22332 0.0
H2009 H 0.82851 0.13305 0.19124 0.0
H2010 H 0.81361 0.09632 0.17356 0.0
H2011 H 0.79075 0.12013 0.12204 0.0
H2012 H 0.80521 0.15691 0.13956 0.0
H2013 H 0.91499 0.28259 0.16793 0.0
H2014 H 0.89229 0.24729 0.1874 0.0
H2015 H 0.84544 0.22097 0.13564 0.0
H2016 H 0.86888 0.25559 0.11588 0.0
H2017 H 0.84698 0.18809 0.15109 0.0
H2018 H 0.8381 0.24691 0.18342 0.0
H2019 H 0.85173 0.28375 0.20057 0.0
H2020 H 0.87981 0.26378 0.25082 0.0
H2021 H 0.86653 0.22688 0.23384 0.0
C2022 C 0.76393 0.11743 0.21045 0.0
C2023 C 0.76864 0.11031 0.22962 0.0
C2024 C 0.78013 0.13729 0.20058 0.0
C2025 C 0.80158 0.15075 0.20954 0.0
C2026 C 0.80607 0.1443 0.22909 0.0
C2027 C 0.78988 0.12431 0.23896 0.0
C2028 C 0.81936 0.17111 0.19814 0.0
C2029 C 0.82874 0.19243 0.20764 0.0
C2030 C 0.82624 0.16969 0.17749 0.0
C2031 C 0.81779 0.14768 0.1668 0.0
C2032 C 0.82018 0.13041 0.1762 0.0
C2033 C 0.81182 0.10958 0.1662 0.0
C2034 C 0.8012 0.10588 0.14671 0.0
C2035 C 0.79896 0.12302 0.13714 0.0
C2036 C 0.80726 0.14387 0.14709 0.0
C2037 C 0.9001 0.26901 0.16062 0.0
C2038 C 0.89356 0.2719 0.1405 0.0
C2039 C 0.88689 0.24891 0.17186 0.0
C2040 C 0.86654 0.23146 0.16341 0.0
C2041 C 0.86083 0.23401 0.14277 0.0
C2042 C 0.87424 0.25385 0.13143 0.0
C2043 C 0.85076 0.21093 0.17604 0.0
C2044 C 0.84172 0.18948 0.16679 0.0
C2045 C 0.84398 0.21229 0.19682 0.0
C2046 C 0.85151 0.23423 0.20728 0.0
C2047 C 0.84724 0.25041 0.1981 0.0
C2048 C 0.8549 0.2713 0.20779 0.0
C2049 C 0.86667 0.27612 0.22675 0.0
C2050 C 0.87071 0.26002 0.23612 0.0
C2051 C 0.8631 0.23911 0.22649 0.0
H2052 H 0.87263 0.29231 0.23421 0.0
H2053 H 0.79473 0.08974 0.139 0.0
H2054 H 0.77189 0.62747 0.1109 0.0
H2055 H 0.80689 0.63798 0.13013 0.0
H2056 H 0.77693 0.64561 0.18673 0.0
H2057 H 0.74163 0.6346 0.16749 0.0
H2058 H 0.824 0.68027 0.18029 0.0
H2059 H 0.77753 0.59923 0.18162 0.0
H2060 H 0.75445 0.56186 0.16537 0.0
H2061 H 0.81135 0.57176 0.12875 0.0
H2062 H 0.83472 0.60932 0.14463 0.0
H2063 H 0.90262 0.68109 0.25284 0.0
H2064 H 0.86807 0.67239 0.23406 0.0
H2065 H 0.88897 0.64701 0.18193 0.0
H2066 H 0.92332 0.65503 0.20112 0.0
H2067 H 0.84623 0.6217 0.18562 0.0
H2068 H 0.8931 0.70162 0.18296 0.0
H2069 H 0.91703 0.74006 0.19674 0.0
H2070 H 0.86125 0.73419 0.23263 0.0
H2071 H 0.83705 0.69557 0.21929 0.0
C2072 C 0.77296 0.63183 0.12736 0.0
C2073 C 0.75405 0.63023 0.13772 0.0
C2074 C 0.79291 0.63769 0.13838 0.0
C2075 C 0.79457 0.64237 0.15999 0.0
C2076 C 0.77612 0.64206 0.1701 0.0
C2077 C 0.75598 0.63586 0.15911 0.0
C2078 C 0.81508 0.64639 0.17212 0.0
C2079 C 0.8287 0.66737 0.18172 0.0
C2080 C 0.82172 0.62986 0.17349 0.0
C2081 C 0.80781 0.60716 0.16417 0.0
C2082 C 0.78508 0.59349 0.17001 0.0
C2083 C 0.77197 0.57226 0.1609 0.0
C2084 C 0.78141 0.56446 0.146 0.0
C2085 C 0.80405 0.57783 0.14027 0.0
C2086 C 0.81725 0.59908 0.14935 0.0
C2087 C 0.89984 0.67356 0.2374 0.0
C2088 C 0.91591 0.66891 0.22849 0.0
C2089 C 0.88006 0.66871 0.22654 0.0
C2090 C 0.87591 0.65954 0.20618 0.0
C2091 C 0.89161 0.65418 0.19752 0.0
C2092 C 0.9113 0.65873 0.20855 0.0
C2093 C 0.85536 0.6557 0.19399 0.0
C2094 C 0.84166 0.6347 0.1843 0.0
C2095 C 0.84886 0.67238 0.19226 0.0
C2096 C 0.86333 0.69561 0.20029 0.0
C2097 C 0.88598 0.70846 0.19391 0.0
C2098 C 0.89959 0.73029 0.20163 0.0
C2099 C 0.89068 0.73954 0.2156 0.0
C2100 C 0.86813 0.72699 0.22184 0.0
C2101 C 0.85446 0.70514 0.21419 0.0
H2102 H 0.90124 0.75644 0.22155 0.0
H2103 H 0.77121 0.54805 0.13893 0.0
H2104 H 0.37406 0.27709 0.20054 0.0
H2105 H 0.38011 0.24887 0.18313 0.0
H2106 H 0.35051 0.20408 0.23571 0.0
H2107 H 0.34347 0.2319 0.25304 0.0
H2108 H 0.3904 0.20554 0.21993 0.0
H2109 H 0.31965 0.19443 0.19347 0.0
H2110 H 0.29467 0.20659 0.17744 0.0
H2111 H 0.33616 0.2282 0.12225 0.0
H2112 H 0.3616 0.21647 0.13809 0.0
H2113 H 0.38615 0.11201 0.16713 0.0
H2114 H 0.37454 0.13534 0.18693 0.0
H2115 H 0.38789 0.1778 0.1326 0.0
H2116 H 0.39835 0.15381 0.11271 0.0
H2117 H 0.35418 0.17593 0.15088 0.0
H2118 H 0.42614 0.19042 0.17633 0.0
H2119 H 0.45337 0.18067 0.1914 0.0
H2120 H 0.413 0.15591 0.24711 0.0
H2121 H 0.38533 0.16521 0.23222 0.0
C2122 C 0.36856 0.26121 0.20847 0.0
C2123 C 0.35791 0.25691 0.22825 0.0
C2124 C 0.37221 0.24506 0.19845 0.0
C2125 C 0.36555 0.22413 0.20791 0.0
C2126 C 0.35581 0.22005 0.22801 0.0
C2127 C 0.35191 0.23614 0.23799 0.0
C2128 C 0.36824 0.20641 0.1965 0.0
C2129 C 0.38219 0.1988 0.20499 0.0
C2130 C 0.35806 0.19794 0.1767 0.0
C2131 C 0.34264 0.20475 0.16704 0.0
C2132 C 0.32354 0.20192 0.17798 0.0
C2133 C 0.30928 0.20872 0.16892 0.0
C2134 C 0.31385 0.21821 0.14886 0.0
C2135 C 0.33265 0.22086 0.13779 0.0
C2136 C 0.34699 0.21413 0.1468 0.0
C2137 C 0.38607 0.12603 0.15936 0.0
C2138 C 0.39322 0.13115 0.13842 0.0
C2139 C 0.37974 0.13961 0.17075 0.0
C2140 C 0.38087 0.15892 0.16158 0.0
C2141 C 0.3869 0.16322 0.14026 0.0
C2142 C 0.39288 0.14947 0.12883 0.0
C2143 C 0.37659 0.17508 0.17416 0.0
C2144 C 0.36233 0.18249 0.16588 0.0
C2145 C 0.38684 0.18366 0.19399 0.0
C2146 C 0.40355 0.17829 0.20307 0.0
C2147 C 0.423 0.18277 0.19174 0.0
C2148 C 0.43852 0.17734 0.20025 0.0
C2149 C 0.43489 0.16763 0.22018 0.0
C2150 C 0.41577 0.1634 0.23166 0.0
C2151 C 0.40016 0.16875 0.2232 0.0
H2152 H 0.44691 0.16343 0.22674 0.0
H2153 H 0.3028 0.22347 0.14188 0.0
H2154 H 0.78641 0.12281 0.61756 0.0
H2155 H 0.82077 0.1482 0.63693 0.0
H2156 H 0.7994 0.10071 0.68802 0.0
H2157 H 0.76485 0.07516 0.66864 0.0
H2158 H 0.81459 0.14481 0.70168 0.0
H2159 H 0.84129 0.10696 0.65633 0.0
H2160 H 0.84739 0.09364 0.62236 0.0
H2161 H 0.88516 0.16189 0.60033 0.0
H2162 H 0.87901 0.17561 0.63408 0.0
H2163 H 0.91706 0.19502 0.75982 0.0
H2164 H 0.88229 0.17092 0.74044 0.0
H2165 H 0.91061 0.21262 0.68555 0.0
H2166 H 0.94593 0.2361 0.70486 0.0
H2167 H 0.89141 0.17181 0.67337 0.0
H2168 H 0.8656 0.21055 0.71732 0.0
H2169 H 0.85921 0.22524 0.75034 0.0
H2170 H 0.81936 0.1578 0.77384 0.0
H2171 H 0.82578 0.1427 0.74106 0.0
C2172 C 0.78903 0.11767 0.63288 0.0
C2173 C 0.77277 0.09685 0.64148 0.0
C2174 C 0.80879 0.13222 0.64394 0.0
C2175 C 0.81286 0.12647 0.664 0.0
C2176 C 0.79675 0.10562 0.6726 0.0
C2177 C 0.77706 0.0909 0.66141 0.0
C2178 C 0.8337 0.14238 0.67606 0.0
C2179 C 0.8314 0.15047 0.69563 0.0
C2180 C 0.85571 0.1505 0.66793 0.0
C2181 C 0.8595 0.14229 0.64766 0.0
C2182 C 0.85074 0.11912 0.64418 0.0
C2183 C 0.85424 0.1115 0.62498 0.0
C2184 C 0.86661 0.12691 0.60918 0.0
C2185 C 0.87556 0.14997 0.61257 0.0
C2186 C 0.87209 0.15768 0.63174 0.0
C2187 C 0.91567 0.19922 0.74371 0.0
C2188 C 0.93417 0.21745 0.73385 0.0
C2189 C 0.8957 0.18546 0.73259 0.0
C2190 C 0.89341 0.18988 0.71142 0.0
C2191 C 0.91174 0.20865 0.70179 0.0
C2192 C 0.93188 0.22225 0.71287 0.0
C2193 C 0.87244 0.17435 0.69916 0.0
C2194 C 0.87466 0.16629 0.6795 0.0
C2195 C 0.85033 0.16651 0.70708 0.0
C2196 C 0.84635 0.17551 0.72679 0.0
C2197 C 0.85561 0.19886 0.72958 0.0
C2198 C 0.85196 0.20726 0.74825 0.0
C2199 C 0.83893 0.19247 0.7642 0.0
C2200 C 0.82947 0.16924 0.76148 0.0
C2201 C 0.83309 0.16075 0.74285 0.0
H2202 H 0.83613 0.199 0.77864 0.0
H2203 H 0.8693 0.12097 0.59432 0.0
H2204 H 0.91892 0.701 0.61672 0.0
H2205 H 0.89091 0.7077 0.63379 0.0
H2206 H 0.89493 0.67416 0.6895 0.0
H2207 H 0.92107 0.66549 0.672 0.0
H2208 H 0.85456 0.66272 0.68577 0.0
H2209 H 0.92115 0.73594 0.6822 0.0
H2210 H 0.95293 0.76871 0.66506 0.0
H2211 H 0.90646 0.77853 0.62745 0.0
H2212 H 0.87441 0.74564 0.64421 0.0
H2213 H 0.80917 0.70982 0.7589 0.0
H2214 H 0.83322 0.69931 0.73878 0.0
H2215 H 0.81627 0.72152 0.68182 0.0
H2216 H 0.79222 0.73191 0.70199 0.0
H2217 H 0.86173 0.73838 0.68506 0.0
H2218 H 0.79506 0.6656 0.69169 0.0
H2219 H 0.76437 0.63382 0.7109 0.0
H2220 H 0.81297 0.62445 0.74543 0.0
H2221 H 0.84397 0.6564 0.72664 0.0
C2222 C 0.91373 0.69474 0.6325 0.0
C2223 C 0.92289 0.6829 0.64286 0.0
C2224 C 0.89783 0.69895 0.64247 0.0
C2225 C 0.89095 0.69198 0.6633 0.0
C2226 C 0.89985 0.67996 0.67353 0.0
C2227 C 0.91532 0.67533 0.66348 0.0
C2228 C 0.8744 0.69684 0.67449 0.0
C2229 C 0.85643 0.6794 0.68576 0.0
C2230 C 0.87618 0.71841 0.67436 0.0
C2231 C 0.89541 0.73819 0.66429 0.0
C2232 C 0.91773 0.745 0.67018 0.0
C2233 C 0.93578 0.76361 0.66054 0.0
C2234 C 0.93171 0.77566 0.64513 0.0
C2235 C 0.90958 0.76916 0.63936 0.0
C2236 C 0.89147 0.75055 0.64893 0.0
C2237 C 0.81022 0.71193 0.74203 0.0
C2238 C 0.79853 0.72127 0.73193 0.0
C2239 C 0.82402 0.70602 0.73051 0.0
C2240 C 0.82658 0.70948 0.70866 0.0
C2241 C 0.81464 0.71862 0.69859 0.0
C2242 C 0.80073 0.72436 0.71007 0.0
C2243 C 0.84225 0.70436 0.69643 0.0
C2244 C 0.85997 0.72174 0.68498 0.0
C2245 C 0.84047 0.68285 0.69669 0.0
C2246 C 0.82184 0.66352 0.70788 0.0
C2247 C 0.79921 0.65687 0.70348 0.0
C2248 C 0.78176 0.63881 0.71428 0.0
C2249 C 0.78672 0.62715 0.72941 0.0
C2250 C 0.80915 0.63351 0.73373 0.0
C2251 C 0.82667 0.65158 0.72299 0.0
H2252 H 0.77319 0.61318 0.73775 0.0
H2253 H 0.94571 0.79006 0.63769 0.0
H2254 H 0.27818 0.07032 0.70629 0.0
H2255 H 0.28863 0.10466 0.68624 0.0
H2256 H 0.3316 0.14476 0.73708 0.0
H2257 H 0.32045 0.11018 0.7574 0.0
H2258 H 0.30852 0.16314 0.7241 0.0
H2259 H 0.35232 0.13692 0.68832 0.0
H2260 H 0.35947 0.10956 0.66973 0.0
H2261 H 0.31349 0.10364 0.62098 0.0
H2262 H 0.3058 0.13074 0.63944 0.0
H2263 H 0.36192 0.26622 0.66826 0.0
H2264 H 0.35433 0.23179 0.68628 0.0
H2265 H 0.30641 0.19212 0.63833 0.0
H2266 H 0.31377 0.22677 0.62015 0.0
H2267 H 0.33252 0.17381 0.64958 0.0
H2268 H 0.28829 0.1995 0.68637 0.0
H2269 H 0.28204 0.2275 0.7049 0.0
H2270 H 0.33046 0.23515 0.75177 0.0
H2271 H 0.33716 0.20732 0.7334 0.0
C2272 C 0.29016 0.08648 0.713 0.0
C2273 C 0.29868 0.0876 0.73331 0.0
C2274 C 0.2962 0.10617 0.70151 0.0
C2275 C 0.3112 0.12755 0.7099 0.0
C2276 C 0.32004 0.1286 0.73012 0.0
C2277 C 0.31385 0.10885 0.7417 0.0
C2278 C 0.31681 0.1487 0.69796 0.0
C2279 C 0.31413 0.16554 0.70791 0.0
C2280 C 0.32363 0.1519 0.67659 0.0
C2281 C 0.32833 0.13572 0.66537 0.0
C2282 C 0.34361 0.12967 0.67371 0.0
C2283 C 0.34778 0.11422 0.66318 0.0
C2284 C 0.3369 0.10483 0.64421 0.0
C2285 C 0.32188 0.11091 0.63569 0.0
C2286 C 0.31763 0.12633 0.64617 0.0
C2287 C 0.34951 0.25025 0.66156 0.0
C2288 C 0.33818 0.2495 0.64281 0.0
C2289 C 0.34526 0.23045 0.67192 0.0
C2290 C 0.32948 0.20919 0.66397 0.0
C2291 C 0.31861 0.20826 0.64491 0.0
C2292 C 0.32287 0.22815 0.63448 0.0
C2293 C 0.32423 0.18812 0.67576 0.0
C2294 C 0.32696 0.17134 0.66578 0.0
C2295 C 0.31759 0.185 0.69714 0.0
C2296 C 0.31333 0.20145 0.70843 0.0
C2297 C 0.29768 0.20723 0.70058 0.0
C2298 C 0.29404 0.22305 0.71106 0.0
C2299 C 0.30586 0.23311 0.72949 0.0
C2300 C 0.32131 0.22733 0.7375 0.0
C2301 C 0.325 0.2115 0.72708 0.0
H2302 H 0.303 0.24535 0.73757 0.0
H2303 H 0.34015 0.09287 0.63609 0.0
H2304 H 0.22494 0.95687 0.83634 0.0
H2305 H 0.20098 0.9224 0.85624 0.0
H2306 H 0.19974 0.88245 0.80341 0.0
H2307 H 0.22292 0.91702 0.78326 0.0
H2308 H 0.15939 0.86525 0.81728 0.0
H2309 H 0.22964 0.888 0.85158 0.0
H2310 H 0.26488 0.91372 0.87019 0.0
H2311 H 0.22673 0.91979 0.92067 0.0
H2312 H 0.19125 0.89433 0.90222 0.0
H2313 H 0.11048 0.76013 0.86972 0.0
H2314 H 0.13721 0.79527 0.85265 0.0
H2315 H 0.12815 0.83296 0.90199 0.0
H2316 H 0.10077 0.79762 0.91913 0.0
H2317 H 0.17344 0.85129 0.89061 0.0
H2318 H 0.10293 0.82736 0.85528 0.0
H2319 H 0.0684 0.80002 0.83662 0.0
H2320 H 0.1085 0.79482 0.78754 0.0
H2321 H 0.1433 0.8219 0.80606 0.0
C2322 C 0.21999 0.9407 0.8292 0.0
C2323 C 0.22629 0.93968 0.80842 0.0
C2324 C 0.20624 0.92092 0.84059 0.0
C2325 C 0.1986 0.89954 0.83157 0.0
C2326 C 0.20534 0.89858 0.81089 0.0
C2327 C 0.21891 0.91838 0.79944 0.0
C2328 C 0.18268 0.87829 0.84321 0.0
C2329 C 0.16275 0.86216 0.8332 0.0
C2330 C 0.18649 0.87416 0.86425 0.0
C2331 C 0.20779 0.88943 0.87541 0.0
C2332 C 0.22876 0.89495 0.86657 0.0
C2333 C 0.24878 0.90946 0.8771 0.0
C2334 C 0.24805 0.91843 0.89657 0.0
C2335 C 0.22728 0.91286 0.90557 0.0
C2336 C 0.2072 0.89837 0.8951 0.0
C2337 C 0.1138 0.7758 0.87692 0.0
C2338 C 0.10293 0.77578 0.89575 0.0
C2339 C 0.12931 0.796 0.86712 0.0
C2340 C 0.13457 0.81691 0.87578 0.0
C2341 C 0.12438 0.81709 0.89491 0.0
C2342 C 0.10871 0.7968 0.90474 0.0
C2343 C 0.1504 0.83839 0.86459 0.0
C2344 C 0.17021 0.85451 0.87469 0.0
C2345 C 0.14663 0.84243 0.84356 0.0
C2346 C 0.12573 0.82652 0.83215 0.0
C2347 C 0.10439 0.82029 0.84056 0.0
C2348 C 0.08477 0.80485 0.83 0.0
C2349 C 0.08626 0.79564 0.81093 0.0
C2350 C 0.10738 0.80195 0.80232 0.0
C2351 C 0.12706 0.81737 0.81283 0.0
H2352 H 0.07105 0.78365 0.8028 0.0
H2353 H 0.26357 0.92966 0.9047 0.0
H2354 H 0.06797 0.27437 0.83229 0.0
H2355 H 0.10255 0.28538 0.85221 0.0
H2356 H 0.14201 0.32913 0.80154 0.0
H2357 H 0.1072 0.31743 0.78134 0.0
H2358 H 0.16089 0.30634 0.81391 0.0
H2359 H 0.13384 0.3489 0.85083 0.0
H2360 H 0.10613 0.3551 0.87001 0.0
H2361 H 0.10167 0.30905 0.91799 0.0
H2362 H 0.12913 0.30232 0.89894 0.0
H2363 H 0.26479 0.36089 0.86858 0.0
H2364 H 0.22989 0.35265 0.85097 0.0
H2365 H 0.19133 0.30486 0.89938 0.0
H2366 H 0.22645 0.31293 0.91717 0.0
H2367 H 0.17208 0.32992 0.88854 0.0
H2368 H 0.19896 0.28727 0.85103 0.0
H2369 H 0.2269 0.2815 0.83174 0.0
H2370 H 0.23189 0.32861 0.78465 0.0
H2371 H 0.2042 0.3349 0.80382 0.0
C2372 C 0.08403 0.28667 0.82561 0.0
C2373 C 0.08491 0.29523 0.80536 0.0
C2374 C 0.10386 0.29302 0.83702 0.0
C2375 C 0.12514 0.30837 0.82862 0.0
C2376 C 0.12593 0.31731 0.8085 0.0
C2377 C 0.10604 0.3108 0.797 0.0
C2378 C 0.14647 0.31418 0.84036 0.0
C2379 C 0.16341 0.31187 0.83012 0.0
C2380 C 0.14979 0.32081 0.86178 0.0
C2381 C 0.1334 0.32495 0.87335 0.0
C2382 C 0.12684 0.33997 0.8654 0.0
C2383 C 0.11119 0.3436 0.87626 0.0
C2384 C 0.1021 0.33243 0.89518 0.0
C2385 C 0.1087 0.31767 0.90332 0.0
C2386 C 0.12433 0.31396 0.89251 0.0
C2387 C 0.24896 0.34839 0.87546 0.0
C2388 C 0.24866 0.33732 0.89423 0.0
C2389 C 0.2289 0.34374 0.86533 0.0
C2390 C 0.2078 0.3278 0.87353 0.0
C2391 C 0.20732 0.31717 0.8926 0.0
C2392 C 0.22748 0.32184 0.90281 0.0
C2393 C 0.18643 0.32217 0.86201 0.0
C2394 C 0.16952 0.32446 0.87231 0.0
C2395 C 0.18314 0.3156 0.84061 0.0
C2396 C 0.19966 0.31171 0.82896 0.0
C2397 C 0.20613 0.29652 0.83664 0.0
C2398 C 0.22191 0.29314 0.82571 0.0
C2399 C 0.23121 0.30472 0.80701 0.0
C2400 C 0.22469 0.31967 0.79915 0.0
C2401 C 0.20894 0.32313 0.81003 0.0
H2402 H 0.24342 0.30209 0.79858 0.0
H2403 H 0.08998 0.33526 0.90356 0.0
H2404 H 0.74401 0.79624 0.8355 0.0
H2405 H 0.73424 0.82068 0.85551 0.0
H2406 H 0.69188 0.819 0.80457 0.0
H2407 H 0.70257 0.7954 0.78423 0.0
H2408 H 0.71553 0.85982 0.81631 0.0
H2409 H 0.6715 0.7916 0.85528 0.0
H2410 H 0.66367 0.75809 0.87607 0.0
H2411 H 0.71135 0.80037 0.92272 0.0
H2412 H 0.7197 0.83413 0.90208 0.0
H2413 H 0.6641 0.91323 0.86926 0.0
H2414 H 0.67138 0.88565 0.8523 0.0
H2415 H 0.71864 0.89425 0.90111 0.0
H2416 H 0.71149 0.92216 0.91828 0.0
H2417 H 0.69284 0.85017 0.89115 0.0
H2418 H 0.73696 0.91811 0.85193 0.0
H2419 H 0.74356 0.9517 0.83194 0.0
H2420 H 0.69466 0.90951 0.78608 0.0
H2421 H 0.6876 0.87563 0.80591 0.0
C2422 C 0.73213 0.80062 0.82884 0.0
C2423 C 0.72364 0.79342 0.80848 0.0
C2424 C 0.72651 0.81465 0.84031 0.0
C2425 C 0.712 0.82167 0.83183 0.0
C2426 C 0.70304 0.81392 0.81165 0.0
C2427 C 0.70887 0.80009 0.80009 0.0
C2428 C 0.70733 0.83816 0.84331 0.0
C2429 C 0.71019 0.85739 0.83258 0.0
C2430 C 0.70104 0.8357 0.86481 0.0
C2431 C 0.69636 0.81539 0.87703 0.0
C2432 C 0.68048 0.79374 0.86986 0.0
C2433 C 0.67592 0.77471 0.88164 0.0
C2434 C 0.68701 0.77711 0.90069 0.0
C2435 C 0.70277 0.79854 0.90796 0.0
C2436 C 0.70741 0.81763 0.89624 0.0
C2437 C 0.6763 0.90957 0.87636 0.0
C2438 C 0.68746 0.92039 0.89508 0.0
C2439 C 0.6804 0.89363 0.8666 0.0
C2440 C 0.6959 0.888 0.87511 0.0
C2441 C 0.70666 0.89827 0.8941 0.0
C2442 C 0.70252 0.91426 0.90395 0.0
C2443 C 0.70085 0.87155 0.86406 0.0
C2444 C 0.69812 0.85245 0.87487 0.0
C2445 C 0.7072 0.87406 0.84262 0.0
C2446 C 0.71164 0.89435 0.83049 0.0
C2447 C 0.72753 0.916 0.83763 0.0
C2448 C 0.73137 0.93508 0.82633 0.0
C2449 C 0.71952 0.93273 0.80777 0.0
C2450 C 0.70384 0.91129 0.80045 0.0
C2451 C 0.69994 0.89214 0.8117 0.0
H2452 H 0.72255 0.94753 0.79904 0.0
H2453 H 0.68332 0.76239 0.90988 0.0
H2454 H 0.42601 0.45946 0.57747 0.0
H2455 H 0.45207 0.4949 0.55982 0.0
H2456 H 0.47349 0.459 0.51887 0.0
H2457 H 0.44826 0.42389 0.53712 0.0
H2458 H 0.50853 0.49477 0.52835 0.0
H2459 H 0.43691 0.48135 0.50374 0.0
H2460 H 0.39772 0.47365 0.50626 0.0
H2461 H 0.42024 0.53526 0.54043 0.0
H2462 H 0.45956 0.54318 0.53834 0.0
H2463 H 0.55679 0.58175 0.44843 0.0
H2464 H 0.53348 0.54703 0.46846 0.0
H2465 H 0.52861 0.58619 0.51894 0.0
H2466 H 0.55258 0.62096 0.49924 0.0
H2467 H 0.48597 0.5497 0.50493 0.0
H2468 H 0.55887 0.56264 0.52693 0.0
H2469 H 0.59745 0.5695 0.52133 0.0
H2470 H 0.57104 0.507 0.48782 0.0
H2471 H 0.53228 0.49993 0.49295 0.0
C2472 C 0.43614 0.45913 0.56457 0.0
C2473 C 0.43499 0.43877 0.55874 0.0
C2474 C 0.45106 0.47946 0.55437 0.0
C2475 C 0.46481 0.47991 0.53765 0.0
C2476 C 0.46335 0.45943 0.5317 0.0
C2477 C 0.44878 0.43925 0.54213 0.0
C2478 C 0.481 0.50157 0.52662 0.0
C2479 C 0.50336 0.50654 0.52302 0.0
C2480 C 0.47475 0.51744 0.51977 0.0
C2481 C 0.45114 0.51273 0.52108 0.0
C2482 C 0.43348 0.49317 0.51193 0.0
C2483 C 0.41125 0.48878 0.51326 0.0
C2484 C 0.40649 0.50392 0.52355 0.0
C2485 C 0.42395 0.52352 0.53249 0.0
C2486 C 0.44622 0.52798 0.53123 0.0
C2487 C 0.55146 0.583 0.46412 0.0
C2488 C 0.55703 0.60418 0.47246 0.0
C2489 C 0.53789 0.56311 0.47548 0.0
C2490 C 0.52918 0.56388 0.49527 0.0
C2491 C 0.53506 0.58506 0.50375 0.0
C2492 C 0.54895 0.60495 0.49257 0.0
C2493 C 0.51322 0.54264 0.5067 0.0
C2494 C 0.49098 0.53782 0.51032 0.0
C2495 C 0.51942 0.5267 0.51315 0.0
C2496 C 0.54269 0.53087 0.51015 0.0
C2497 C 0.56129 0.55046 0.51821 0.0
C2498 C 0.5832 0.55436 0.51515 0.0
C2499 C 0.5867 0.53873 0.50418 0.0
C2500 C 0.5683 0.51911 0.49629 0.0
C2501 C 0.54636 0.51514 0.49929 0.0
H2502 H 0.60367 0.54178 0.50182 0.0
H2503 H 0.38926 0.5005 0.52456 0.0
H2504 H 0.5773 0.02558 0.57908 0.0
H2505 H 0.54313 0.01913 0.56074 0.0
H2506 H 0.54284 0.96525 0.52543 0.0
H2507 H 0.57765 0.97253 0.54302 0.0
H2508 H 0.53246 0.98607 0.50003 0.0
H2509 H 0.50429 0.95792 0.56858 0.0
H2510 H 0.50216 0.95875 0.60716 0.0
H2511 H 0.48925 0.01388 0.60338 0.0
H2512 H 0.49158 0.01355 0.56476 0.0
H2513 H 0.4023 0.93885 0.49556 0.0
H2514 H 0.43631 0.9488 0.51598 0.0
H2515 H 0.47606 1.00149 0.47158 0.0
H2516 H 0.44194 0.99074 0.45064 0.0
H2517 H 0.46644 0.98127 0.53696 0.0
H2518 H 0.52862 0.00841 0.46688 0.0
H2519 H 0.52786 1.00102 0.42892 0.0
H2520 H 0.46811 0.93655 0.43699 0.0
H2521 H 0.46872 0.9434 0.47501 0.0
C2522 C 0.56977 0.01217 0.56759 0.0
C2523 C 0.58017 0.99948 0.56264 0.0
C2524 C 0.55011 0.00842 0.55708 0.0
C2525 C 0.53991 0.99143 0.54173 0.0
C2526 C 0.55019 0.97854 0.53705 0.0
C2527 C 0.57009 0.98262 0.54723 0.0
C2528 C 0.51894 0.98737 0.53021 0.0
C2529 C 0.5181 0.98508 0.50822 0.0
C2530 C 0.49976 0.98562 0.5406 0.0
C2531 C 0.49834 0.98586 0.5638 0.0
C2532 C 0.50115 0.97032 0.57598 0.0
C2533 C 0.49989 0.97068 0.59785 0.0
C2534 C 0.49564 0.9864 0.60771 0.0
C2535 C 0.49258 1.00174 0.59572 0.0
C2536 C 0.49385 1.00146 0.57384 0.0
C2537 C 0.41829 0.95274 0.49032 0.0
C2538 C 0.41952 0.96392 0.47143 0.0
C2539 C 0.43778 0.95847 0.50203 0.0
C2540 C 0.45906 0.97567 0.49526 0.0
C2541 C 0.46006 0.98779 0.477 0.0
C2542 C 0.44053 0.98183 0.46511 0.0
C2543 C 0.48007 0.98006 0.50686 0.0
C2544 C 0.4809 0.98242 0.52882 0.0
C2545 C 0.49889 0.981 0.49654 0.0
C2546 C 0.4986 0.97656 0.47375 0.0
C2547 C 0.51538 0.99263 0.46055 0.0
C2548 C 0.51497 0.98853 0.43903 0.0
C2549 C 0.49791 0.96836 0.43054 0.0
C2550 C 0.48128 0.95219 0.44357 0.0
C2551 C 0.48165 0.95618 0.4651 0.0
H2552 H 0.4976 0.96525 0.41387 0.0
H2553 H 0.49467 0.98665 0.62465 0.0
H2554 H 0.03289 0.45801 0.45065 0.0
H2555 H 0.02096 0.4813 0.47006 0.0
H2556 H 0.07519 0.49938 0.51422 0.0
H2557 H 0.08613 0.47514 0.49553 0.0
H2558 H 0.04275 0.49637 0.5351 0.0
H2559 H 0.07614 0.53449 0.47069 0.0
H2560 H 0.08106 0.5389 0.43234 0.0
H2561 H 0.01372 0.52764 0.42581 0.0
H2562 H 0.00829 0.52284 0.46413 0.0
H2563 H 0.04684 0.5966 0.57475 0.0
H2564 H 0.05655 0.57121 0.55606 0.0
H2565 H 0.9944 0.54386 0.52118 0.0
H2566 H 0.98465 0.56909 0.53974 0.0
H2567 H 0.03044 0.55175 0.49572 0.0
H2568 H 0.99879 0.51488 0.56166 0.0
H2569 H 0.99611 0.51229 0.60024 0.0
H2570 H 0.06382 0.52403 0.60386 0.0
H2571 H 0.06702 0.52701 0.5653 0.0
C2572 C 0.04197 0.46669 0.4647 0.0
C2573 C 0.06058 0.46492 0.47143 0.0
C2574 C 0.03536 0.48029 0.47569 0.0
C2575 C 0.04751 0.49284 0.49344 0.0
C2576 C 0.0655 0.49017 0.50061 0.0
C2577 C 0.07182 0.47631 0.48986 0.0
C2578 C 0.04195 0.50904 0.50434 0.0
C2579 C 0.04037 0.50863 0.52639 0.0
C2580 C 0.03848 0.52507 0.49326 0.0
C2581 C 0.04174 0.52808 0.47025 0.0
C2582 C 0.06234 0.53281 0.46106 0.0
C2583 C 0.06522 0.53539 0.43934 0.0
C2584 C 0.0477 0.53349 0.42664 0.0
C2585 C 0.02727 0.52907 0.43566 0.0
C2586 C 0.02428 0.52643 0.45738 0.0
C2587 C 0.03533 0.58531 0.56299 0.0
C2588 C 0.01486 0.58485 0.55893 0.0
C2589 C 0.04083 0.57066 0.55238 0.0
C2590 C 0.02613 0.55534 0.53726 0.0
C2591 C 0.00604 0.55537 0.53276 0.0
C2592 C 1.00041 0.56977 0.54352 0.0
C2593 C 0.0314 0.53906 0.52634 0.0
C2594 C 0.03289 0.53948 0.50433 0.0
C2595 C 0.03517 0.52332 0.53745 0.0
C2596 C 0.03322 0.52139 0.56061 0.0
C2597 C 0.01317 0.51708 0.5707 0.0
C2598 C 0.01155 0.51552 0.59256 0.0
C2599 C 0.0298 0.51805 0.6045 0.0
C2600 C 0.04971 0.5221 0.5946 0.0
C2601 C 0.05143 0.52371 0.57274 0.0
H2602 H 0.02852 0.51683 0.62142 0.0
H2603 H 0.04996 0.53549 0.40982 0.0
H2604 H 0.45344 0.45958 0.95321 0.0
H2605 H 0.48788 0.48452 0.97279 0.0
H2606 H 0.46514 0.43719 0.02405 0.0
H2607 H 0.43066 0.41198 1.00437 0.0
H2608 H 0.48158 0.48313 0.0367 0.0
H2609 H 0.50567 0.44071 0.99444 0.0
H2610 H 0.51101 0.42532 0.96137 0.0
H2611 H 0.55171 0.49234 0.93718 0.0
H2612 H 0.54634 0.50813 0.97002 0.0
H2613 H 0.5843 0.53465 0.09544 0.0
H2614 H 0.54904 0.51003 0.0769 0.0
H2615 H 0.57864 0.54575 0.01928 0.0
H2616 H 0.61434 0.56929 0.03766 0.0
H2617 H 0.55786 0.50508 1.00989 0.0
H2618 H 0.53426 0.54854 0.04987 0.0
H2619 H 0.52839 0.56577 0.08144 0.0
H2620 H 0.48643 0.50015 0.10808 0.0
H2621 H 0.49229 0.48253 0.07678 0.0
C2622 C 0.45579 0.45439 0.96861 0.0
C2623 C 0.43924 0.43368 0.97715 0.0
C2624 C 0.47555 0.46869 0.9798 0.0
C2625 C 0.47925 0.46283 0.99996 0.0
C2626 C 0.46276 0.44216 1.00856 0.0
C2627 C 0.44312 0.42765 0.9972 0.0
C2628 C 0.50021 0.47839 1.01202 0.0
C2629 C 0.49827 0.48771 0.03101 0.0
C2630 C 0.52208 0.48505 1.00432 0.0
C2631 C 0.52542 0.47559 0.98462 0.0
C2632 C 0.5156 0.45216 0.98201 0.0
C2633 C 0.51867 0.44336 0.96331 0.0
C2634 C 0.53164 0.45784 0.94716 0.0
C2635 C 0.54164 0.48115 0.94969 0.0
C2636 C 0.5386 0.49003 0.96835 0.0
C2637 C 0.58307 0.5375 0.0789 0.0
C2638 C 0.60202 0.55419 0.06812 0.0
C2639 C 0.56282 0.52342 0.06823 0.0
C2640 C 0.5607 0.526 0.04654 0.0
C2641 C 0.57953 0.54319 0.03593 0.0
C2642 C 0.59993 0.55695 0.04653 0.0
C2643 C 0.53945 0.51015 0.03472 0.0
C2644 C 0.54127 0.50068 1.01571 0.0
C2645 C 0.51747 0.50371 0.04222 0.0
C2646 C 0.51391 0.51423 0.06107 0.0
C2647 C 0.52392 0.53779 0.06253 0.0
C2648 C 0.52057 0.54763 0.08037 0.0
C2649 C 0.5071 0.53406 0.09678 0.0
C2650 C 0.49689 0.51063 0.09537 0.0
C2651 C 0.50021 0.50071 0.07758 0.0
H2652 H 0.50452 0.54171 0.11057 0.0
H2653 H 0.534 0.451 0.9327 0.0
H2654 H 0.57404 0.98225 0.99658 0.0
H2655 H 0.54875 0.99165 1.01533 0.0
H2656 H 0.57623 0.05427 0.98124 0.0
H2657 H 0.60215 0.04513 0.9628 0.0
H2658 H 0.56912 0.06204 0.01918 0.0
H2659 H 0.5226 0.00556 0.96976 0.0
H2660 H 0.50601 0.96911 0.9513 0.0
H2661 H 0.47753 0.93421 1.00911 0.0
H2662 H 0.49422 0.97047 0.02798 0.0
H2663 H 0.47873 0.08211 0.0415 0.0
H2664 H 0.50285 0.07117 0.02233 0.0
H2665 H 0.48694 0.01824 0.06723 0.0
H2666 H 0.46306 0.02956 0.08674 0.0
H2667 H 0.48756 0.00551 0.02381 0.0
H2668 H 0.53465 0.06408 0.0725 0.0
H2669 H 0.54969 0.10143 0.08896 0.0
H2670 H 0.57575 0.1334 0.02952 0.0
H2671 H 0.56052 0.0962 1.01262 0.0
C2672 C 0.5747 0.99803 0.99299 0.0
C2673 C 0.59004 0.01279 0.97792 0.0
C2674 C 0.56008 0.00337 1.00372 0.0
C2675 C 0.55995 0.02347 0.99946 0.0
C2676 C 0.57574 0.03858 0.98485 0.0
C2677 C 0.59063 0.03336 0.97428 0.0
C2678 C 0.54338 0.02859 1.01023 0.0
C2679 C 0.55127 0.0497 0.01988 0.0
C2680 C 0.51995 0.01256 1.0116 0.0
C2681 C 0.50985 0.99072 1.00032 0.0
C2682 C 0.51294 0.99011 0.97857 0.0
C2683 C 0.50349 0.96948 0.96802 0.0
C2684 C 0.49077 0.94935 0.97903 0.0
C2685 C 0.48742 0.94982 1.00061 0.0
C2686 C 0.49685 0.9704 1.01123 0.0
C2687 C 0.48018 0.06797 0.04714 0.0
C2688 C 0.46913 0.05678 0.06571 0.0
C2689 C 0.49404 0.06177 0.03621 0.0
C2690 C 0.49702 0.04403 0.04341 0.0
C2691 C 0.48502 0.03202 0.06135 0.0
C2692 C 0.47133 0.03844 0.07248 0.0
C2693 C 0.5134 0.0388 0.03268 0.0
C2694 C 0.50545 0.01773 0.02306 0.0
C2695 C 0.53667 0.05496 0.03105 0.0
C2696 C 0.54627 0.07735 0.04126 0.0
C2697 C 0.54346 0.07907 0.06291 0.0
C2698 C 0.55204 0.10021 0.07233 0.0
C2699 C 0.56362 0.11978 0.06029 0.0
C2700 C 0.56674 0.11823 0.03882 0.0
C2701 C 0.55816 0.09712 0.02931 0.0
H2702 H 0.57022 0.13613 0.0676 0.0
H2703 H 0.48347 0.9334 0.97084 0.0
H2704 H 0.9768 0.56564 0.96305 0.0
H2705 H 0.96727 0.53068 0.98175 0.0
H2706 H 0.02924 0.56581 1.01697 0.0
H2707 H 0.039 0.60046 0.99799 0.0
H2708 H 0.02473 0.52792 1.00644 0.0
H2709 H 0.97431 0.54858 0.03809 0.0
H2710 H 0.9448 0.55921 0.03929 0.0
H2711 H 0.89782 0.49651 1.01015 0.0
H2712 H 0.92715 0.48563 1.00852 0.0
H2713 H 0.99324 0.44326 0.08769 0.0
H2714 H 1.00395 0.47808 0.06784 0.0
H2715 H 0.9495 0.4404 0.02443 0.0
H2716 H 0.93917 0.40569 0.04394 0.0
H2717 H 0.9501 0.47915 0.03929 0.0
H2718 H 1.00185 0.45883 1.00909 0.0
H2719 H 0.03178 0.44878 1.00992 0.0
H2720 H 0.07695 0.51214 0.03904 0.0
H2721 H 0.04715 0.52243 0.03869 0.0
C2722 C 0.98827 0.56595 0.97493 0.0
C2723 C 0.00872 0.58593 0.9789 0.0
C2724 C 0.9828 0.54589 0.9857 0.0
C2725 C 0.99741 0.54538 1.00105 0.0
C2726 C 0.01766 0.56547 1.00519 0.0
C2727 C 0.02323 0.58537 0.99429 0.0
C2728 C 0.99196 0.52401 1.01255 0.0
C2729 C 0.00848 0.5175 1.01385 0.0
C2730 C 0.97067 0.50992 0.02205 0.0
C2731 C 0.953 0.5164 0.02298 0.0
C2732 C 0.95774 0.53714 0.03179 0.0
C2733 C 0.94104 0.54319 0.03257 0.0
C2734 C 0.91947 0.52857 0.02474 0.0
C2735 C 0.91454 0.50784 1.01617 0.0
C2736 C 0.9312 0.50171 1.01533 0.0
C2737 C 0.98387 0.44243 0.07369 0.0
C2738 C 0.96536 0.42179 0.06739 0.0
C2739 C 0.98992 0.46232 0.06239 0.0
C2740 C 0.97746 0.46199 0.04464 0.0
C2741 C 0.95931 0.44123 0.0381 0.0
C2742 C 0.95349 0.42137 0.04919 0.0
C2743 C 0.98287 0.48324 0.03316 0.0
C2744 C 0.96634 0.48967 0.03188 0.0
C2745 C 1.00422 0.4974 0.02394 0.0
C2746 C 0.02219 0.4913 0.02407 0.0
C2747 C 0.0181 0.47054 1.01585 0.0
C2748 C 0.03505 0.46481 1.0162 0.0
C2749 C 0.05623 0.47979 0.02458 0.0
C2750 C 0.06052 0.50055 0.03258 0.0
C2751 C 0.04361 0.50634 0.0323 0.0
H2752 H 0.06934 0.47533 0.02483 0.0
H2753 H 0.90656 0.53329 0.02537 0.0
loop_
_geom_bond_atom_site_label_1
_geom_bond_atom_site_label_2
_geom_bond_distance
_geom_bond_site_symmetry_2
_ccdc_geom_bond_type
C0 C1 1.441 1_655 S
C0 N4 1.377 1_655 S
C0 C38 1.391 . S
C1 C0 1.441 1_455 S
C1 C2 1.340 . S
C1 H41 0.951 1_455 S
C2 C1 1.340 . S
C2 C3 1.439 . S
C2 H42 0.950 . S
C3 C2 1.439 . S
C3 N4 1.374 . S
C3 C37 1.395 . S
N4 C0 1.377 1_455 S
N4 C3 1.374 . S
N4 Co5 2.008 . S
Co5 N4 2.008 . S
Co5 N6 1.995 . S
Co5 N11 2.008 . S
Co5 N16 2.001 1_455 S
Co5 N21 2.282 1_455 S
Co5 N27 2.282 . S
N6 Co5 1.995 . S
N6 C7 1.376 . S
N6 C10 1.383 . S
C7 N6 1.376 . S
C7 C8 1.446 . S
C7 C37 1.391 . S
C8 C7 1.446 . S
C8 C9 1.339 . S
C8 H43 0.949 . S
C9 C8 1.339 . S
C9 C10 1.439 . S
C9 H44 0.950 . S
C10 N6 1.383 . S
C10 C9 1.439 . S
C10 C39 1.392 . S
N11 Co5 2.008 . S
N11 C12 1.376 . S
N11 C15 1.374 . S
C12 N11 1.376 . S
C12 C13 1.443 . S
C12 C39 1.389 . S
C13 C12 1.443 . S
C13 C14 1.340 . S
C13 H45 0.951 . S
C14 C13 1.340 . S
C14 C15 1.439 . S
C14 H46 0.950 . S
C15 N11 1.374 . S
C15 C14 1.439 . S
C15 C40 1.395 . S
N16 Co5 2.001 1_655 S
N16 C17 1.359 . S
N16 C20 1.391 . S
C17 N16 1.359 . S
C17 C18 1.446 . S
C17 C40 1.391 1_655 S
C18 C17 1.446 . S
C18 C19 1.339 . S
C18 H47 0.949 . S
C19 C18 1.339 . S
C19 C20 1.439 . S
C19 H48 0.950 . S
C20 N16 1.391 . S
C20 C19 1.439 . S
C20 C38 1.392 . S
N21 Co5 2.282 1_655 S
N21 C24 1.332 . S
N21 C26 1.332 . S
C22 C23 1.386 . S
C22 C25 1.388 . S
C23 C22 1.386 . S
C23 C24 1.382 . S
C23 H49 0.950 . S
C24 N21 1.332 . S
C24 C23 1.382 . S
C24 H35 0.952 . S
C25 C22 1.388 . S
C25 C26 1.382 . S
C25 H50 0.950 . S
C26 N21 1.332 . S
C26 C25 1.382 . S
C26 H36 0.948 . S
N27 Co5 2.282 . S
N27 C31 1.332 . S
N27 C32 1.332 . S
C28 C29 1.388 . S
C28 C32 1.382 . S
C28 H51 0.950 . S
C29 C28 1.388 . S
C29 C30 1.386 . S
C30 C29 1.386 . S
C30 C31 1.382 . S
C30 H52 0.950 . S
C31 N27 1.332 . S
C31 C30 1.382 . S
C31 H33 0.952 . S
C32 N27 1.332 . S
C32 C28 1.382 . S
C32 H34 0.948 . S
H33 C31 0.952 . S
H34 C32 0.948 . S
H35 C24 0.952 . S
H36 C26 0.948 . S
C37 C3 1.395 . S
C37 C7 1.391 . S
C38 C0 1.391 . S
C38 C20 1.392 . S
C39 C10 1.392 . S
C39 C12 1.389 . S
C40 C15 1.395 . S
C40 C17 1.391 1_455 S
H41 C1 0.951 1_655 S
H42 C2 0.950 . S
H43 C8 0.949 . S
H44 C9 0.950 . S
H45 C13 0.951 . S
H46 C14 0.950 . S
H47 C18 0.949 . S
H48 C19 0.950 . S
H49 C23 0.950 . S
H50 C25 0.950 . S
H51 C28 0.950 . S
H52 C30 0.950 . S
C53 C54 1.443 . S
C53 N57 1.376 . S
C53 C91 1.389 . S
C54 C53 1.443 . S
C54 C55 1.340 . S
C54 H94 0.951 . S
C55 C54 1.340 . S
C55 C56 1.439 . S
C55 H95 0.950 . S
C56 C55 1.439 . S
C56 N57 1.374 . S
C56 C90 1.395 . S
N57 C53 1.376 . S
N57 C56 1.374 . S
N57 Co58 2.008 . S
Co58 N57 2.008 . S
Co58 N59 1.995 . S
Co58 N64 2.008 . S
Co58 N69 1.995 . S
Co58 N74 2.282 . S
Co58 N80 2.282 . S
N59 Co58 1.995 . S
N59 C60 1.376 . S
N59 C63 1.383 . S
C60 N59 1.376 . S
C60 C61 1.446 . S
C60 C90 1.391 . S
C61 C60 1.446 . S
C61 C62 1.339 . S
C61 H96 0.949 . S
C62 C61 1.339 . S
C62 C63 1.439 . S
C62 H97 0.950 . S
C63 N59 1.383 . S
C63 C62 1.439 . S
C63 C92 1.392 . S
N64 Co58 2.008 . S
N64 C65 1.376 . S
N64 C68 1.374 . S
C65 N64 1.376 . S
C65 C66 1.443 . S
C65 C92 1.389 . S
C66 C65 1.443 . S
C66 C67 1.340 . S
C66 H98 0.951 . S
C67 C66 1.340 . S
C67 C68 1.439 . S
C67 H99 0.950 . S
C68 N64 1.374 . S
C68 C67 1.439 . S
C68 C93 1.395 . S
N69 Co58 1.995 . S
N69 C70 1.376 . S
N69 C73 1.383 . S
C70 N69 1.376 . S
C70 C71 1.446 . S
C70 C93 1.391 . S
C71 C70 1.446 . S
C71 C72 1.339 . S
C71 H100 0.949 . S
C72 C71 1.339 . S
C72 C73 1.439 . S
C72 H101 0.950 . S
C73 N69 1.383 . S
C73 C72 1.439 . S
C73 C91 1.392 . S
N74 Co58 2.282 . S
N74 C77 1.332 . S
N74 C79 1.332 . S
C75 C76 1.386 . S
C75 C78 1.388 . S
C76 C75 1.386 . S
C76 C77 1.382 . S
C76 H102 0.950 . S
C77 N74 1.332 . S
C77 C76 1.382 . S
C77 H88 0.952 . S
C78 C75 1.388 . S
C78 C79 1.382 . S
C78 H103 0.950 . S
C79 N74 1.332 . S
C79 C78 1.382 . S
C79 H89 0.948 . S
N80 Co58 2.282 . S
N80 C84 1.332 . S
N80 C85 1.332 . S
C81 C82 1.388 . S
C81 C85 1.382 . S
C81 H104 0.950 . S
C82 C81 1.388 . S
C82 C83 1.386 . S
C83 C82 1.386 . S
C83 C84 1.382 . S
C83 H105 0.950 . S
C84 N80 1.332 . S
C84 C83 1.382 . S
C84 H86 0.952 . S
C85 N80 1.332 . S
C85 C81 1.382 . S
C85 H87 0.948 . S
H86 C84 0.952 . S
H87 C85 0.948 . S
H88 C77 0.952 . S
H89 C79 0.948 . S
C90 C56 1.395 . S
C90 C60 1.391 . S
C91 C53 1.389 . S
C91 C73 1.392 . S
C92 C63 1.392 . S
C92 C65 1.389 . S
C93 C68 1.395 . S
C93 C70 1.391 . S
H94 C54 0.951 . S
H95 C55 0.950 . S
H96 C61 0.949 . S
H97 C62 0.950 . S
H98 C66 0.951 . S
H99 C67 0.950 . S
H100 C71 0.949 . S
H101 C72 0.950 . S
H102 C76 0.950 . S
H103 C78 0.950 . S
H104 C81 0.950 . S
H105 C83 0.950 . S
C106 C107 1.441 1_565 S
C106 N110 1.377 1_565 S
C106 C144 1.391 . S
C107 C106 1.441 1_545 S
C107 C108 1.340 . S
C107 H147 0.951 1_545 S
C108 C107 1.340 . S
C108 C109 1.439 . S
C108 H148 0.950 . S
C109 C108 1.439 . S
C109 N110 1.374 . S
C109 C143 1.395 . S
N110 C106 1.377 1_545 S
N110 C109 1.374 . S
N110 Co111 2.008 . S
Co111 N110 2.008 . S
Co111 N112 1.995 . S
Co111 N117 2.008 . S
Co111 N122 2.001 1_545 S
Co111 N127 2.282 1_545 S
Co111 N133 2.282 . S
N112 Co111 1.995 . S
N112 C113 1.376 . S
N112 C116 1.383 . S
C113 N112 1.376 . S
C113 C114 1.446 . S
C113 C143 1.391 . S
C114 C113 1.446 . S
C114 C115 1.339 . S
C114 H149 0.949 . S
C115 C114 1.339 . S
C115 C116 1.439 . S
C115 H150 0.950 . S
C116 N112 1.383 . S
C116 C115 1.439 . S
C116 C145 1.392 . S
N117 Co111 2.008 . S
N117 C118 1.376 . S
N117 C121 1.374 . S
C118 N117 1.376 . S
C118 C119 1.443 . S
C118 C145 1.389 . S
C119 C118 1.443 . S
C119 C120 1.340 . S
C119 H151 0.951 . S
C120 C119 1.340 . S
C120 C121 1.439 . S
C120 H152 0.950 . S
C121 N117 1.374 . S
C121 C120 1.439 . S
C121 C146 1.395 . S
N122 Co111 2.001 1_565 S
N122 C123 1.359 . S
N122 C126 1.391 . S
C123 N122 1.359 . S
C123 C124 1.446 . S
C123 C146 1.391 1_565 S
C124 C123 1.446 . S
C124 C125 1.339 . S
C124 H153 0.949 . S
C125 C124 1.339 . S
C125 C126 1.439 . S
C125 H154 0.950 . S
C126 N122 1.391 . S
C126 C125 1.439 . S
C126 C144 1.392 . S
N127 Co111 2.282 1_565 S
N127 C130 1.332 . S
N127 C132 1.332 . S
C128 C129 1.386 . S
C128 C131 1.388 . S
C129 C128 1.386 . S
C129 C130 1.382 . S
C129 H155 0.950 . S
C130 N127 1.332 . S
C130 C129 1.382 . S
C130 H141 0.952 . S
C131 C128 1.388 . S
C131 C132 1.382 . S
C131 H156 0.950 . S
C132 N127 1.332 . S
C132 C131 1.382 . S
C132 H142 0.948 . S
N133 Co111 2.282 . S
N133 C137 1.332 . S
N133 C138 1.332 . S
C134 C135 1.388 . S
C134 C138 1.382 . S
C134 H157 0.950 . S
C135 C134 1.388 . S
C135 C136 1.386 . S
C136 C135 1.386 . S
C136 C137 1.382 . S
C136 H158 0.950 . S
C137 N133 1.332 . S
C137 C136 1.382 . S
C137 H139 0.952 . S
C138 N133 1.332 . S
C138 C134 1.382 . S
C138 H140 0.948 . S
H139 C137 0.952 . S
H140 C138 0.948 . S
H141 C130 0.952 . S
H142 C132 0.948 . S
C143 C109 1.395 . S
C143 C113 1.391 . S
C144 C106 1.391 . S
C144 C126 1.392 . S
C145 C116 1.392 . S
C145 C118 1.389 . S
C146 C121 1.395 . S
C146 C123 1.391 1_545 S
H147 C107 0.951 1_565 S
H148 C108 0.950 . S
H149 C114 0.949 . S
H150 C115 0.950 . S
H151 C119 0.951 . S
H152 C120 0.950 . S
H153 C124 0.949 . S
H154 C125 0.950 . S
H155 C129 0.950 . S
H156 C131 0.950 . S
H157 C134 0.950 . S
H158 C136 0.950 . S
C159 C160 1.443 . S
C159 N163 1.376 . S
C159 C197 1.389 . S
C160 C159 1.443 . S
C160 C161 1.340 . S
C160 H200 0.951 . S
C161 C160 1.340 . S
C161 C162 1.439 . S
C161 H201 0.950 . S
C162 C161 1.439 . S
C162 N163 1.374 . S
C162 C196 1.395 1_655 S
N163 C159 1.376 . S
N163 C162 1.374 . S
N163 Co164 2.008 1_655 S
Co164 N163 2.008 1_455 S
Co164 N165 1.995 . S
Co164 N170 2.008 . S
Co164 N175 1.995 1_455 S
Co164 N180 2.282 1_455 S
Co164 N186 2.282 . S
N165 Co164 1.995 . S
N165 C166 1.376 . S
N165 C169 1.383 . S
C166 N165 1.376 . S
C166 C167 1.446 . S
C166 C196 1.391 . S
C167 C166 1.446 . S
C167 C168 1.339 . S
C167 H202 0.949 . S
C168 C167 1.339 . S
C168 C169 1.439 . S
C168 H203 0.950 . S
C169 N165 1.383 . S
C169 C168 1.439 . S
C169 C198 1.392 . S
N170 Co164 2.008 . S
N170 C171 1.376 . S
N170 C174 1.374 . S
C171 N170 1.376 . S
C171 C172 1.443 . S
C171 C198 1.389 . S
C172 C171 1.443 . S
C172 C173 1.340 . S
C172 H204 0.951 . S
C173 C172 1.340 . S
C173 C174 1.439 . S
C173 H205 0.950 . S
C174 N170 1.374 . S
C174 C173 1.439 . S
C174 C199 1.395 . S
N175 Co164 1.995 1_655 S
N175 C176 1.376 . S
N175 C179 1.383 . S
C176 N175 1.376 . S
C176 C177 1.446 . S
C176 C199 1.391 1_655 S
C177 C176 1.446 . S
C177 C178 1.339 . S
C177 H206 0.949 . S
C178 C177 1.339 . S
C178 C179 1.439 . S
C178 H207 0.950 . S
C179 N175 1.383 . S
C179 C178 1.439 . S
C179 C197 1.392 . S
N180 Co164 2.282 1_655 S
N180 C183 1.332 . S
N180 C185 1.360 . S
C181 C182 1.386 . S
C181 C184 1.388 . S
C182 C181 1.386 . S
C182 C183 1.382 . S
C182 H208 0.950 . S
C183 N180 1.332 . S
C183 C182 1.382 . S
C183 H194 0.952 . S
C184 C181 1.388 . S
C184 C185 1.388 . S
C184 H209 0.981 . S
C185 N180 1.360 . S
C185 C184 1.388 . S
C185 H195 0.914 1_655 S
N186 Co164 2.282 . S
N186 C190 1.332 . S
N186 C191 1.332 . S
C187 C188 1.388 . S
C187 C191 1.382 . S
C187 H210 0.950 . S
C188 C187 1.388 . S
C188 C189 1.386 . S
C189 C188 1.386 . S
C189 C190 1.382 . S
C189 H211 0.950 . S
C190 N186 1.332 . S
C190 C189 1.382 . S
C190 H192 0.952 . S
C191 N186 1.332 . S
C191 C187 1.382 . S
C191 H193 0.948 . S
H192 C190 0.952 . S
H193 C191 0.948 . S
H194 C183 0.952 . S
H195 C185 0.914 1_455 S
C196 C162 1.395 1_455 S
C196 C166 1.391 . S
C197 C159 1.389 . S
C197 C179 1.392 . S
C198 C169 1.392 . S
C198 C171 1.389 . S
C199 C174 1.395 . S
C199 C176 1.391 1_455 S
H200 C160 0.951 . S
H201 C161 0.950 . S
H202 C167 0.949 . S
H203 C168 0.950 . S
H204 C172 0.951 . S
H205 C173 0.950 . S
H206 C177 0.949 . S
H207 C178 0.950 . S
H208 C182 0.950 . S
H209 C184 0.981 . S
H210 C187 0.950 . S
H211 C189 0.950 . S
C212 C213 1.443 . S
C212 N216 1.376 . S
C212 C250 1.389 . S
C213 C212 1.443 . S
C213 C214 1.340 . S
C213 H253 0.951 . S
C214 C213 1.340 . S
C214 C215 1.439 . S
C214 H254 0.950 . S
C215 C214 1.439 . S
C215 N216 1.374 . S
C215 C249 1.395 . S
N216 C212 1.376 . S
N216 C215 1.374 . S
N216 Co217 2.008 . S
Co217 N216 2.008 . S
Co217 N218 1.995 . S
Co217 N223 2.008 . S
Co217 N228 1.995 . S
Co217 N233 2.282 . S
Co217 N239 2.282 . S
N218 Co217 1.995 . S
N218 C219 1.376 . S
N218 C222 1.383 . S
C219 N218 1.376 . S
C219 C220 1.446 . S
C219 C249 1.391 . S
C220 C219 1.446 . S
C220 C221 1.339 . S
C220 H255 0.949 . S
C221 C220 1.339 . S
C221 C222 1.439 . S
C221 H256 0.950 . S
C222 N218 1.383 . S
C222 C221 1.439 . S
C222 C251 1.392 . S
N223 Co217 2.008 . S
N223 C224 1.376 . S
N223 C227 1.374 . S
C224 N223 1.376 . S
C224 C225 1.443 . S
C224 C251 1.389 . S
C225 C224 1.443 . S
C225 C226 1.340 . S
C225 H257 0.951 . S
C226 C225 1.340 . S
C226 C227 1.439 . S
C226 H258 0.950 . S
C227 N223 1.374 . S
C227 C226 1.439 . S
C227 C252 1.395 . S
N228 Co217 1.995 . S
N228 C229 1.376 . S
N228 C232 1.383 . S
C229 N228 1.376 . S
C229 C230 1.446 . S
C229 C252 1.391 . S
C230 C229 1.446 . S
C230 C231 1.339 . S
C230 H259 0.949 . S
C231 C230 1.339 . S
C231 C232 1.439 . S
C231 H260 0.950 . S
C232 N228 1.383 . S
C232 C231 1.439 . S
C232 C250 1.392 . S
N233 Co217 2.282 . S
N233 C236 1.332 . S
N233 C238 1.332 . S
C234 C235 1.386 . S
C234 C237 1.388 . S
C235 C234 1.386 . S
C235 C236 1.382 . S
C235 H261 0.950 . S
C236 N233 1.332 . S
C236 C235 1.382 . S
C236 H247 0.952 . S
C237 C234 1.388 . S
C237 C238 1.382 . S
C237 H262 0.950 . S
C238 N233 1.332 . S
C238 C237 1.382 . S
C238 H248 0.948 . S
N239 Co217 2.282 . S
N239 C243 1.332 . S
N239 C244 1.332 . S
C240 C241 1.388 . S
C240 C244 1.382 . S
C240 H263 0.950 . S
C241 C240 1.388 . S
C241 C242 1.386 . S
C242 C241 1.386 . S
C242 C243 1.382 . S
C242 H264 0.950 . S
C243 N239 1.332 . S
C243 C242 1.382 . S
C243 H245 0.952 . S
C244 N239 1.332 . S
C244 C240 1.382 . S
C244 H246 0.948 . S
H245 C243 0.952 . S
H246 C244 0.948 . S
H247 C236 0.952 . S
H248 C238 0.948 . S
C249 C215 1.395 . S
C249 C219 1.391 . S
C250 C212 1.389 . S
C250 C232 1.392 . S
C251 C222 1.392 . S
C251 C224 1.389 . S
C252 C227 1.395 . S
C252 C229 1.391 . S
H253 C213 0.951 . S
H254 C214 0.950 . S
H255 C220 0.949 . S
H256 C221 0.950 . S
H257 C225 0.951 . S
H258 C226 0.950 . S
H259 C230 0.949 . S
H260 C231 0.950 . S
H261 C235 0.950 . S
H262 C237 0.950 . S
H263 C240 0.950 . S
H264 C242 0.950 . S
C265 C266 1.443 . S
C265 N269 1.376 . S
C265 C303 1.389 . S
C266 C265 1.443 . S
C266 C267 1.340 . S
C266 H306 0.951 . S
C267 C266 1.340 . S
C267 C268 1.439 . S
C267 H307 0.950 . S
C268 C267 1.439 . S
C268 N269 1.374 . S
C268 C302 1.395 1_565 S
N269 C265 1.376 . S
N269 C268 1.374 . S
N269 Co270 2.008 1_565 S
Co270 N269 2.008 1_545 S
Co270 N271 1.995 . S
Co270 N276 2.008 . S
Co270 N281 1.995 1_545 S
Co270 N286 2.282 1_545 S
Co270 N292 2.282 . S
N271 Co270 1.995 . S
N271 C272 1.376 . S
N271 C275 1.383 . S
C272 N271 1.376 . S
C272 C273 1.446 . S
C272 C302 1.391 . S
C273 C272 1.446 . S
C273 C274 1.339 . S
C273 H308 0.949 . S
C274 C273 1.339 . S
C274 C275 1.439 . S
C274 H309 0.950 . S
C275 N271 1.383 . S
C275 C274 1.439 . S
C275 C304 1.392 . S
N276 Co270 2.008 . S
N276 C277 1.376 . S
N276 C280 1.374 . S
C277 N276 1.376 . S
C277 C278 1.443 . S
C277 C304 1.389 . S
C278 C277 1.443 . S
C278 C279 1.340 . S
C278 H310 0.951 . S
C279 C278 1.340 . S
C279 C280 1.439 . S
C279 H311 0.950 . S
C280 N276 1.374 . S
C280 C279 1.439 . S
C280 C305 1.395 . S
N281 Co270 1.995 1_565 S
N281 C282 1.376 . S
N281 C285 1.383 . S
C282 N281 1.376 . S
C282 C283 1.446 . S
C282 C305 1.391 1_565 S
C283 C282 1.446 . S
C283 C284 1.339 . S
C283 H312 0.949 . S
C284 C283 1.339 . S
C284 C285 1.439 . S
C284 H313 0.950 . S
C285 N281 1.383 . S
C285 C284 1.439 . S
C285 C303 1.392 . S
N286 Co270 2.282 1_565 S
N286 C289 1.332 . S
N286 C291 1.360 . S
C287 C288 1.386 . S
C287 C290 1.388 . S
C288 C287 1.386 . S
C288 C289 1.382 . S
C288 H314 0.950 . S
C289 N286 1.332 . S
C289 C288 1.382 . S
C289 H300 0.952 . S
C290 C287 1.388 . S
C290 C291 1.388 . S
C290 H315 0.981 . S
C291 N286 1.360 . S
C291 C290 1.388 . S
C291 H301 0.914 1_565 S
N292 Co270 2.282 . S
N292 C296 1.332 . S
N292 C297 1.332 . S
C293 C294 1.388 . S
C293 C297 1.382 . S
C293 H316 0.950 . S
C294 C293 1.388 . S
C294 C295 1.386 . S
C295 C294 1.386 . S
C295 C296 1.382 . S
C295 H317 0.950 . S
C296 N292 1.332 . S
C296 C295 1.382 . S
C296 H298 0.952 . S
C297 N292 1.332 . S
C297 C293 1.382 . S
C297 H299 0.948 . S
H298 C296 0.952 . S
H299 C297 0.948 . S
H300 C289 0.952 . S
H301 C291 0.914 1_545 S
C302 C268 1.395 1_545 S
C302 C272 1.391 . S
C303 C265 1.389 . S
C303 C285 1.392 . S
C304 C275 1.392 . S
C304 C277 1.389 . S
C305 C280 1.395 . S
C305 C282 1.391 1_545 S
H306 C266 0.951 . S
H307 C267 0.950 . S
H308 C273 0.949 . S
H309 C274 0.950 . S
H310 C278 0.951 . S
H311 C279 0.950 . S
H312 C283 0.949 . S
H313 C284 0.950 . S
H314 C288 0.950 . S
H315 C290 0.981 . S
H316 C293 0.950 . S
H317 C295 0.950 . S
C318 C319 1.443 . S
C318 N322 1.376 . S
C318 C356 1.389 . S
C319 C318 1.443 . S
C319 C320 1.340 . S
C319 H359 0.951 . S
C320 C319 1.340 . S
C320 C321 1.439 . S
C320 H360 0.950 . S
C321 C320 1.439 . S
C321 N322 1.374 . S
C321 C355 1.395 . S
N322 C318 1.376 . S
N322 C321 1.374 . S
N322 Co323 2.008 . S
Co323 N322 2.008 . S
Co323 N324 1.995 . S
Co323 N329 2.008 . S
Co323 N334 1.995 . S
Co323 N339 2.282 . S
Co323 N345 2.282 . S
N324 Co323 1.995 . S
N324 C325 1.376 . S
N324 C328 1.383 . S
C325 N324 1.376 . S
C325 C326 1.446 . S
C325 C355 1.391 . S
C326 C325 1.446 . S
C326 C327 1.339 . S
C326 H361 0.949 . S
C327 C326 1.339 . S
C327 C328 1.439 . S
C327 H362 0.950 . S
C328 N324 1.383 . S
C328 C327 1.439 . S
C328 C357 1.392 . S
N329 Co323 2.008 . S
N329 C330 1.376 . S
N329 C333 1.374 . S
C330 N329 1.376 . S
C330 C331 1.443 . S
C330 C357 1.389 . S
C331 C330 1.443 . S
C331 C332 1.340 . S
C331 H363 0.951 . S
C332 C331 1.340 . S
C332 C333 1.439 . S
C332 H364 0.950 1_545 S
C333 N329 1.374 . S
C333 C332 1.439 . S
C333 C358 1.395 . S
N334 Co323 1.995 . S
N334 C335 1.376 . S
N334 C338 1.383 . S
C335 N334 1.376 . S
C335 C336 1.446 . S
C335 C358 1.391 . S
C336 C335 1.446 . S
C336 C337 1.339 . S
C336 H365 0.949 1_545 S
C337 C336 1.339 . S
C337 C338 1.439 . S
C337 H366 0.950 . S
C338 N334 1.383 . S
C338 C337 1.439 . S
C338 C356 1.392 . S
N339 Co323 2.282 . S
N339 C342 1.332 . S
N339 C344 1.332 . S
C340 C341 1.386 . S
C340 C343 1.388 . S
C341 C340 1.386 . S
C341 C342 1.382 . S
C341 H367 0.950 1_545 S
C342 N339 1.332 . S
C342 C341 1.382 . S
C342 H353 0.952 . S
C343 C340 1.388 . S
C343 C344 1.382 . S
C343 H368 0.950 . S
C344 N339 1.332 . S
C344 C343 1.382 . S
C344 H354 0.948 . S
N345 Co323 2.282 . S
N345 C349 1.332 . S
N345 C350 1.332 . S
C346 C347 1.388 . S
C346 C350 1.382 . S
C346 H369 0.950 . S
C347 C346 1.388 . S
C347 C348 1.386 . S
C348 C347 1.386 . S
C348 C349 1.382 . S
C348 H370 0.950 . S
C349 N345 1.332 . S
C349 C348 1.382 . S
C349 H351 0.952 . S
C350 N345 1.332 . S
C350 C346 1.382 . S
C350 H352 0.948 . S
H351 C349 0.952 . S
H352 C350 0.948 . S
H353 C342 0.952 . S
H354 C344 0.948 . S
C355 C321 1.395 . S
C355 C325 1.391 . S
C356 C318 1.389 . S
C356 C338 1.392 . S
C357 C328 1.392 . S
C357 C330 1.389 . S
C358 C333 1.395 . S
C358 C335 1.391 . S
H359 C319 0.951 . S
H360 C320 0.950 . S
H361 C326 0.949 . S
H362 C327 0.950 . S
H363 C331 0.951 . S
H364 C332 0.950 1_565 S
H365 C336 0.949 1_565 S
H366 C337 0.950 . S
H367 C341 0.950 1_565 S
H368 C343 0.950 . S
H369 C346 0.950 . S
H370 C348 0.950 . S
C371 C372 1.443 . S
C371 N375 1.376 . S
C371 C409 1.389 . S
C372 C371 1.443 . S
C372 C373 1.340 . S
C372 H412 0.951 . S
C373 C372 1.340 . S
C373 C374 1.439 . S
C373 H413 0.950 . S
C374 C373 1.439 . S
C374 N375 1.374 . S
C374 C408 1.395 . S
N375 C371 1.376 . S
N375 C374 1.374 . S
N375 Co376 2.008 . S
Co376 N375 2.008 . S
Co376 N377 1.995 . S
Co376 N382 2.008 . S
Co376 N387 1.995 . S
Co376 N392 2.282 . S
Co376 N398 2.282 . S
N377 Co376 1.995 . S
N377 C378 1.376 . S
N377 C381 1.383 . S
C378 N377 1.376 . S
C378 C379 1.446 . S
C378 C408 1.391 . S
C379 C378 1.446 . S
C379 C380 1.339 . S
C379 H414 0.949 . S
C380 C379 1.339 . S
C380 C381 1.439 . S
C380 H415 0.950 . S
C381 N377 1.383 . S
C381 C380 1.439 . S
C381 C410 1.392 . S
N382 Co376 2.008 . S
N382 C383 1.376 . S
N382 C386 1.374 . S
C383 N382 1.376 . S
C383 C384 1.443 . S
C383 C410 1.389 . S
C384 C383 1.443 . S
C384 C385 1.340 1_655 S
C384 H416 0.951 . S
C385 C384 1.340 1_455 S
C385 C386 1.439 1_455 S
C385 H417 0.950 . S
C386 N382 1.374 . S
C386 C385 1.439 1_655 S
C386 C411 1.395 1_655 S
N387 Co376 1.995 . S
N387 C388 1.376 . S
N387 C391 1.383 . S
C388 N387 1.376 . S
C388 C389 1.446 . S
C388 C411 1.381 1_655 S
C389 C388 1.446 . S
C389 C390 1.339 . S
C389 H418 0.949 1_655 S
C390 C389 1.339 . S
C390 C391 1.439 . S
C390 H419 0.950 . S
C391 N387 1.383 . S
C391 C390 1.439 . S
C391 C409 1.392 . S
N392 Co376 2.282 . S
N392 C395 1.332 . S
N392 C397 1.332 . S
C393 C394 1.386 . S
C393 C396 1.388 . S
C394 C393 1.386 . S
C394 C395 1.382 . S
C394 H420 0.950 . S
C395 N392 1.332 . S
C395 C394 1.382 . S
C395 H406 0.952 . S
C396 C393 1.388 . S
C396 C397 1.382 . S
C396 H421 0.950 . S
C397 N392 1.332 . S
C397 C396 1.382 . S
C397 H407 0.948 . S
N398 Co376 2.282 . S
N398 C402 1.332 . S
N398 C403 1.332 . S
C399 C400 1.388 1_455 S
C399 C403 1.382 1_455 S
C399 H422 0.950 . S
C400 C399 1.388 1_655 S
C400 C401 1.386 . S
C401 C400 1.386 . S
C401 C402 1.382 . S
C401 H423 0.950 . S
C402 N398 1.332 . S
C402 C401 1.382 . S
C402 H404 0.952 . S
C403 N398 1.332 . S
C403 C399 1.382 1_655 S
C403 H405 0.948 . S
H404 C402 0.952 . S
H405 C403 0.948 . S
H406 C395 0.952 . S
H407 C397 0.948 . S
C408 C374 1.395 . S
C408 C378 1.391 . S
C409 C371 1.389 . S
C409 C391 1.392 . S
C410 C381 1.392 . S
C410 C383 1.389 . S
C411 C386 1.395 1_455 S
C411 C388 1.381 1_455 S
H412 C372 0.951 . S
H413 C373 0.950 . S
H414 C379 0.949 . S
H415 C380 0.950 . S
H416 C384 0.951 . S
H417 C385 0.950 . S
H418 C389 0.949 1_455 S
H419 C390 0.950 . S
H420 C394 0.950 . S
H421 C396 0.950 . S
H422 C399 0.950 . S
H423 C401 0.950 . S
C424 C425 1.443 . S
C424 N428 1.376 . S
C424 C462 1.389 . S
C425 C424 1.443 . S
C425 C426 1.340 . S
C425 H465 0.951 . S
C426 C425 1.340 . S
C426 C427 1.439 . S
C426 H466 0.950 . S
C427 C426 1.439 . S
C427 N428 1.374 . S
C427 C461 1.395 . S
N428 C424 1.376 . S
N428 C427 1.374 . S
N428 Co429 2.008 . S
Co429 N428 2.008 . S
Co429 N430 1.995 . S
Co429 N435 2.008 . S
Co429 N440 1.995 . S
Co429 N445 2.282 . S
Co429 N451 2.282 . S
N430 Co429 1.995 . S
N430 C431 1.376 . S
N430 C434 1.383 . S
C431 N430 1.376 . S
C431 C432 1.446 . S
C431 C461 1.391 . S
C432 C431 1.446 . S
C432 C433 1.339 . S
C432 H467 0.949 . S
C433 C432 1.339 . S
C433 C434 1.439 . S
C433 H468 0.950 . S
C434 N430 1.383 . S
C434 C433 1.439 . S
C434 C463 1.392 . S
N435 Co429 2.008 . S
N435 C436 1.376 . S
N435 C439 1.374 . S
C436 N435 1.376 . S
C436 C437 1.443 . S
C436 C463 1.389 . S
C437 C436 1.443 . S
C437 C438 1.340 . S
C437 H469 0.951 . S
C438 C437 1.340 . S
C438 C439 1.439 . S
C438 H470 0.950 . S
C439 N435 1.374 . S
C439 C438 1.439 . S
C439 C464 1.395 . S
N440 Co429 1.995 . S
N440 C441 1.376 . S
N440 C444 1.383 . S
C441 N440 1.376 . S
C441 C442 1.446 . S
C441 C464 1.391 . S
C442 C441 1.446 . S
C442 C443 1.339 . S
C442 H471 0.949 . S
C443 C442 1.339 . S
C443 C444 1.439 . S
C443 H472 0.950 . S
C444 N440 1.383 . S
C444 C443 1.439 . S
C444 C462 1.392 . S
N445 Co429 2.282 . S
N445 C448 1.332 . S
N445 C450 1.332 . S
C446 C447 1.386 . S
C446 C449 1.388 . S
C447 C446 1.386 . S
C447 C448 1.382 . S
C447 H473 0.950 . S
C448 N445 1.332 . S
C448 C447 1.382 . S
C448 H459 0.952 . S
C449 C446 1.388 . S
C449 C450 1.382 . S
C449 H474 0.950 . S
C450 N445 1.332 . S
C450 C449 1.382 . S
C450 H460 0.948 . S
N451 Co429 2.282 . S
N451 C455 1.332 . S
N451 C456 1.332 . S
C452 C453 1.388 . S
C452 C456 1.382 . S
C452 H475 0.950 . S
C453 C452 1.388 . S
C453 C454 1.386 . S
C454 C453 1.386 . S
C454 C455 1.382 . S
C454 H476 0.950 . S
C455 N451 1.332 . S
C455 C454 1.382 . S
C455 H457 0.952 . S
C456 N451 1.332 . S
C456 C452 1.382 . S
C456 H458 0.948 . S
H457 C455 0.952 . S
H458 C456 0.948 . S
H459 C448 0.952 . S
H460 C450 0.948 . S
C461 C427 1.395 . S
C461 C431 1.391 . S
C462 C424 1.389 . S
C462 C444 1.392 . S
C463 C434 1.392 . S
C463 C436 1.389 . S
C464 C439 1.395 . S
C464 C441 1.391 . S
H465 C425 0.951 . S
H466 C426 0.950 . S
H467 C432 0.949 . S
H468 C433 0.950 . S
H469 C437 0.951 . S
H470 C438 0.950 . S
H471 C442 0.949 . S
H472 C443 0.950 . S
H473 C447 0.950 . S
H474 C449 0.950 . S
H475 C452 0.950 . S
H476 C454 0.950 . S
C477 C478 1.443 . S
C477 N481 1.376 . S
C477 C515 1.389 . S
C478 C477 1.443 . S
C478 C479 1.340 . S
C478 H518 0.951 . S
C479 C478 1.340 . S
C479 C480 1.439 . S
C479 H519 0.950 . S
C480 C479 1.439 . S
C480 N481 1.374 . S
C480 C514 1.395 . S
N481 C477 1.376 . S
N481 C480 1.374 . S
N481 Co482 2.008 . S
Co482 N481 2.008 . S
Co482 N483 1.995 . S
Co482 N488 2.008 . S
Co482 N493 1.995 . S
Co482 N498 2.282 . S
Co482 N504 2.282 . S
N483 Co482 1.995 . S
N483 C484 1.376 . S
N483 C487 1.383 . S
C484 N483 1.376 . S
C484 C485 1.446 . S
C484 C514 1.391 . S
C485 C484 1.446 . S
C485 C486 1.339 . S
C485 H520 0.949 . S
C486 C485 1.339 . S
C486 C487 1.439 . S
C486 H521 0.950 . S
C487 N483 1.383 . S
C487 C486 1.439 . S
C487 C516 1.392 . S
N488 Co482 2.008 . S
N488 C489 1.376 . S
N488 C492 1.374 . S
C489 N488 1.376 . S
C489 C490 1.443 . S
C489 C516 1.389 . S
C490 C489 1.443 . S
C490 C491 1.340 . S
C490 H522 0.951 . S
C491 C490 1.340 . S
C491 C492 1.439 . S
C491 H523 0.950 . S
C492 N488 1.374 . S
C492 C491 1.439 . S
C492 C517 1.395 . S
N493 Co482 1.995 . S
N493 C494 1.376 . S
N493 C497 1.383 . S
C494 N493 1.376 . S
C494 C495 1.446 . S
C494 C517 1.391 . S
C495 C494 1.446 . S
C495 C496 1.339 . S
C495 H524 0.949 . S
C496 C495 1.339 . S
C496 C497 1.439 . S
C496 H525 0.950 . S
C497 N493 1.383 . S
C497 C496 1.439 . S
C497 C515 1.392 . S
N498 Co482 2.282 . S
N498 C501 1.332 . S
N498 C503 1.332 . S
C499 C500 1.386 . S
C499 C502 1.388 . S
C500 C499 1.386 . S
C500 C501 1.382 . S
C500 H526 0.950 . S
C501 N498 1.332 . S
C501 C500 1.382 . S
C501 H512 0.952 . S
C502 C499 1.388 . S
C502 C503 1.382 . S
C502 H527 0.950 . S
C503 N498 1.332 . S
C503 C502 1.382 . S
C503 H513 0.948 . S
N504 Co482 2.282 . S
N504 C508 1.332 . S
N504 C509 1.332 . S
C505 C506 1.388 . S
C505 C509 1.382 . S
C505 H528 0.950 . S
C506 C505 1.388 . S
C506 C507 1.386 . S
C507 C506 1.386 . S
C507 C508 1.382 . S
C507 H529 0.950 . S
C508 N504 1.332 . S
C508 C507 1.382 . S
C508 H510 0.952 . S
C509 N504 1.332 . S
C509 C505 1.382 . S
C509 H511 0.948 . S
H510 C508 0.952 . S
H511 C509 0.948 . S
H512 C501 0.952 . S
H513 C503 0.948 . S
C514 C480 1.395 . S
C514 C484 1.391 . S
C515 C477 1.389 . S
C515 C497 1.392 . S
C516 C487 1.392 . S
C516 C489 1.389 . S
C517 C492 1.395 . S
C517 C494 1.391 . S
H518 C478 0.951 . S
H519 C479 0.950 . S
H520 C485 0.949 . S
H521 C486 0.950 . S
H522 C490 0.951 . S
H523 C491 0.950 . S
H524 C495 0.949 . S
H525 C496 0.950 . S
H526 C500 0.950 . S
H527 C502 0.950 . S
H528 C505 0.950 . S
H529 C507 0.950 . S
C530 C531 1.443 . S
C530 N534 1.376 . S
C530 C568 1.389 . S
C531 C530 1.443 . S
C531 C532 1.340 . S
C531 H571 0.951 . S
C532 C531 1.340 . S
C532 C533 1.439 . S
C532 H572 0.950 . S
C533 C532 1.439 . S
C533 N534 1.374 . S
C533 C567 1.395 . S
N534 C530 1.376 . S
N534 C533 1.374 . S
N534 Co535 2.008 . S
Co535 N534 2.008 . S
Co535 N536 1.995 . S
Co535 N541 2.008 . S
Co535 N546 1.995 . S
Co535 N551 2.282 . S
Co535 N557 2.282 . S
N536 Co535 1.995 . S
N536 C537 1.376 . S
N536 C540 1.383 . S
C537 N536 1.376 . S
C537 C538 1.446 . S
C537 C567 1.391 . S
C538 C537 1.446 . S
C538 C539 1.339 . S
C538 H573 0.949 . S
C539 C538 1.339 . S
C539 C540 1.439 . S
C539 H574 0.950 . S
C540 N536 1.383 . S
C540 C539 1.439 . S
C540 C569 1.392 . S
N541 Co535 2.008 . S
N541 C542 1.376 . S
N541 C545 1.374 . S
C542 N541 1.376 . S
C542 C543 1.443 . S
C542 C569 1.389 . S
C543 C542 1.443 . S
C543 C544 1.340 . S
C543 H575 0.951 . S
C544 C543 1.340 . S
C544 C545 1.439 . S
C544 H576 0.952 . S
C545 N541 1.374 . S
C545 C544 1.439 . S
C545 C570 1.395 . S
N546 Co535 1.995 . S
N546 C547 1.376 . S
N546 C550 1.383 . S
C547 N546 1.376 . S
C547 C548 1.446 . S
C547 C570 1.391 . S
C548 C547 1.446 . S
C548 C549 1.339 . S
C548 H577 0.949 . S
C549 C548 1.339 . S
C549 C550 1.439 . S
C549 H578 0.950 . S
C550 N546 1.383 . S
C550 C549 1.439 . S
C550 C568 1.392 . S
N551 Co535 2.282 . S
N551 C554 1.332 . S
N551 C556 1.332 . S
C552 C553 1.386 . S
C552 C555 1.388 . S
C553 C552 1.386 . S
C553 C554 1.382 . S
C553 H579 0.950 . S
C554 N551 1.332 . S
C554 C553 1.382 . S
C554 H565 0.952 . S
C555 C552 1.388 . S
C555 C556 1.382 . S
C555 H580 0.950 . S
C556 N551 1.332 . S
C556 C555 1.382 . S
C556 H566 0.948 . S
N557 Co535 2.282 . S
N557 C561 1.332 . S
N557 C562 1.332 . S
C558 C559 1.388 . S
C558 C562 1.382 . S
C558 H581 0.950 . S
C559 C558 1.388 . S
C559 C560 1.386 . S
C560 C559 1.386 . S
C560 C561 1.382 . S
C560 H582 0.950 . S
C561 N557 1.332 . S
C561 C560 1.382 . S
C561 H563 0.952 . S
C562 N557 1.332 . S
C562 C558 1.382 . S
C562 H564 0.948 . S
H563 C561 0.952 . S
H564 C562 0.948 . S
H565 C554 0.952 . S
H566 C556 0.948 . S
C567 C533 1.395 . S
C567 C537 1.391 . S
C568 C530 1.389 . S
C568 C550 1.392 . S
C569 C540 1.392 . S
C569 C542 1.389 . S
C570 C545 1.395 . S
C570 C547 1.391 . S
H571 C531 0.951 . S
H572 C532 0.950 . S
H573 C538 0.949 . S
H574 C539 0.950 . S
H575 C543 0.951 . S
H576 C544 0.952 . S
H577 C548 0.949 . S
H578 C549 0.950 . S
H579 C553 0.950 . S
H580 C555 0.950 . S
H581 C558 0.950 . S
H582 C560 0.950 . S
C583 C584 1.443 . S
C583 N587 1.376 . S
C583 C621 1.389 . S
C584 C583 1.443 . S
C584 C585 1.340 . S
C584 H624 0.951 . S
C585 C584 1.340 . S
C585 C586 1.439 . S
C585 H625 0.950 . S
C586 C585 1.439 . S
C586 N587 1.374 . S
C586 C620 1.395 . S
N587 C583 1.376 . S
N587 C586 1.374 . S
N587 Co588 2.008 . S
Co588 N587 2.008 . S
Co588 N589 1.995 . S
Co588 N594 2.008 . S
Co588 N599 1.995 . S
Co588 N604 2.282 . S
Co588 N610 2.282 . S
N589 Co588 1.995 . S
N589 C590 1.376 . S
N589 C593 1.383 . S
C590 N589 1.376 . S
C590 C591 1.446 . S
C590 C620 1.391 . S
C591 C590 1.446 . S
C591 C592 1.339 . S
C591 H626 0.949 . S
C592 C591 1.339 . S
C592 C593 1.439 . S
C592 H627 0.950 . S
C593 N589 1.383 . S
C593 C592 1.439 . S
C593 C622 1.392 . S
N594 Co588 2.008 . S
N594 C595 1.376 . S
N594 C598 1.374 . S
C595 N594 1.376 . S
C595 C596 1.443 . S
C595 C622 1.389 . S
C596 C595 1.443 . S
C596 C597 1.332 1_655 S
C596 H628 0.951 1_655 S
C597 C596 1.332 1_455 S
C597 C598 1.434 1_455 S
C597 H629 0.961 . S
C598 N594 1.374 . S
C598 C597 1.434 1_655 S
C598 C623 1.395 . S
N599 Co588 1.995 . S
N599 C600 1.376 . S
N599 C603 1.383 . S
C600 N599 1.376 . S
C600 C601 1.446 . S
C600 C623 1.391 . S
C601 C600 1.446 . S
C601 C602 1.339 . S
C601 H630 0.949 . S
C602 C601 1.339 . S
C602 C603 1.439 . S
C602 H631 0.950 . S
C603 N599 1.383 . S
C603 C602 1.439 . S
C603 C621 1.392 . S
N604 Co588 2.282 . S
N604 C607 1.332 . S
N604 C609 1.332 . S
C605 C606 1.386 . S
C605 C608 1.388 . S
C606 C605 1.386 . S
C606 C607 1.382 . S
C606 H632 0.950 . S
C607 N604 1.332 . S
C607 C606 1.382 . S
C607 H618 0.952 . S
C608 C605 1.388 . S
C608 C609 1.382 . S
C608 H633 0.950 . S
C609 N604 1.332 . S
C609 C608 1.382 . S
C609 H619 0.948 . S
N610 Co588 2.282 . S
N610 C614 1.332 . S
N610 C615 1.332 . S
C611 C612 1.388 . S
C611 C615 1.382 . S
C611 H634 0.950 . S
C612 C611 1.388 . S
C612 C613 1.386 . S
C613 C612 1.386 . S
C613 C614 1.382 . S
C613 H635 0.950 . S
C614 N610 1.332 . S
C614 C613 1.382 . S
C614 H616 0.952 . S
C615 N610 1.332 . S
C615 C611 1.382 . S
C615 H617 0.948 . S
H616 C614 0.952 . S
H617 C615 0.948 . S
H618 C607 0.952 . S
H619 C609 0.948 . S
C620 C586 1.395 . S
C620 C590 1.391 . S
C621 C583 1.389 . S
C621 C603 1.392 . S
C622 C593 1.392 . S
C622 C595 1.389 . S
C623 C598 1.395 . S
C623 C600 1.391 . S
H624 C584 0.951 . S
H625 C585 0.950 . S
H626 C591 0.949 . S
H627 C592 0.950 . S
H628 C596 0.951 1_455 S
H629 C597 0.961 . S
H630 C601 0.949 . S
H631 C602 0.950 . S
H632 C606 0.950 . S
H633 C608 0.950 . S
H634 C611 0.950 . S
H635 C613 0.950 . S
C636 C637 1.443 . S
C636 N640 1.376 . S
C636 C674 1.389 . S
C637 C636 1.443 . S
C637 C638 1.340 . S
C637 H677 0.951 . S
C638 C637 1.340 . S
C638 C639 1.439 . S
C638 H678 0.950 . S
C639 C638 1.439 . S
C639 N640 1.374 . S
C639 C673 1.395 . S
N640 C636 1.376 . S
N640 C639 1.374 . S
N640 Co641 2.008 . S
Co641 N640 2.008 . S
Co641 N642 1.995 . S
Co641 N647 2.008 . S
Co641 N652 1.995 . S
Co641 N657 2.282 . S
Co641 N663 2.282 . S
N642 Co641 1.995 . S
N642 C643 1.376 . S
N642 C646 1.383 . S
C643 N642 1.376 . S
C643 C644 1.446 . S
C643 C673 1.391 . S
C644 C643 1.446 . S
C644 C645 1.339 . S
C644 H679 0.949 . S
C645 C644 1.339 . S
C645 C646 1.439 . S
C645 H680 0.950 . S
C646 N642 1.383 . S
C646 C645 1.439 . S
C646 C675 1.392 . S
N647 Co641 2.008 . S
N647 C648 1.376 . S
N647 C651 1.374 . S
C648 N647 1.376 . S
C648 C649 1.443 . S
C648 C675 1.389 . S
C649 C648 1.443 . S
C649 C650 1.340 . S
C649 H681 0.951 . S
C650 C649 1.340 . S
C650 C651 1.439 . S
C650 H682 0.950 . S
C651 N647 1.374 . S
C651 C650 1.439 . S
C651 C676 1.395 . S
N652 Co641 1.995 . S
N652 C653 1.376 . S
N652 C656 1.383 . S
C653 N652 1.376 . S
C653 C654 1.446 . S
C653 C676 1.391 . S
C654 C653 1.446 . S
C654 C655 1.339 . S
C654 H683 0.949 . S
C655 C654 1.339 . S
C655 C656 1.439 . S
C655 H684 0.950 . S
C656 N652 1.383 . S
C656 C655 1.439 . S
C656 C674 1.392 . S
N657 Co641 2.282 . S
N657 C660 1.332 . S
N657 C662 1.332 . S
C658 C659 1.386 . S
C658 C661 1.388 . S
C659 C658 1.386 . S
C659 C660 1.382 . S
C659 H685 0.950 . S
C660 N657 1.332 . S
C660 C659 1.382 . S
C660 H671 0.952 . S
C661 C658 1.388 . S
C661 C662 1.382 . S
C661 H686 0.950 . S
C662 N657 1.332 . S
C662 C661 1.382 . S
C662 H672 0.948 . S
N663 Co641 2.282 . S
N663 C667 1.332 . S
N663 C668 1.332 . S
C664 C665 1.388 . S
C664 C668 1.382 . S
C664 H687 0.950 . S
C665 C664 1.388 . S
C665 C666 1.386 . S
C666 C665 1.386 . S
C666 C667 1.382 . S
C666 H688 0.950 . S
C667 N663 1.332 . S
C667 C666 1.382 . S
C667 H669 0.952 . S
C668 N663 1.332 . S
C668 C664 1.382 . S
C668 H670 0.948 . S
H669 C667 0.952 . S
H670 C668 0.948 . S
H671 C660 0.952 . S
H672 C662 0.948 . S
C673 C639 1.395 . S
C673 C643 1.391 . S
C674 C636 1.389 . S
C674 C656 1.392 . S
C675 C646 1.392 . S
C675 C648 1.389 . S
C676 C651 1.395 . S
C676 C653 1.391 . S
H677 C637 0.951 . S
H678 C638 0.950 . S
H679 C644 0.949 . S
H680 C645 0.950 . S
H681 C649 0.951 . S
H682 C650 0.950 . S
H683 C654 0.949 . S
H684 C655 0.950 . S
H685 C659 0.950 . S
H686 C661 0.950 . S
H687 C664 0.950 . S
H688 C666 0.950 . S
C689 C690 1.443 . S
C689 N693 1.376 . S
C689 C727 1.389 . S
C690 C689 1.443 . S
C690 C691 1.340 . S
C690 H730 0.951 . S
C691 C690 1.340 . S
C691 C692 1.439 . S
C691 H731 0.950 . S
C692 C691 1.439 . S
C692 N693 1.374 . S
C692 C726 1.395 . S
N693 C689 1.376 . S
N693 C692 1.374 . S
N693 Co694 2.008 . S
Co694 N693 2.008 . S
Co694 N695 1.995 . S
Co694 N700 2.008 . S
Co694 N705 1.995 . S
Co694 N710 2.282 . S
Co694 N716 2.282 . S
N695 Co694 1.995 . S
N695 C696 1.376 . S
N695 C699 1.383 . S
C696 N695 1.376 . S
C696 C697 1.446 . S
C696 C726 1.391 . S
C697 C696 1.446 . S
C697 C698 1.339 . S
C697 H732 0.949 . S
C698 C697 1.339 . S
C698 C699 1.439 . S
C698 H733 0.950 . S
C699 N695 1.383 . S
C699 C698 1.439 . S
C699 C728 1.392 . S
N700 Co694 2.008 . S
N700 C701 1.376 . S
N700 C704 1.374 . S
C701 N700 1.376 . S
C701 C702 1.443 . S
C701 C728 1.389 . S
C702 C701 1.443 . S
C702 C703 1.340 1_565 S
C702 H734 0.951 . S
C703 C702 1.340 1_545 S
C703 C704 1.439 1_545 S
C703 H735 0.950 . S
C704 N700 1.374 . S
C704 C703 1.439 1_565 S
C704 C729 1.395 1_565 S
N705 Co694 1.995 . S
N705 C706 1.376 . S
N705 C709 1.383 . S
C706 N705 1.376 . S
C706 C707 1.446 1_565 S
C706 C729 1.391 1_565 S
C707 C706 1.446 1_545 S
C707 C708 1.339 1_545 S
C707 H736 0.949 . S
C708 C707 1.339 1_565 S
C708 C709 1.439 . S
C708 H737 0.953 . S
C709 N705 1.383 . S
C709 C708 1.439 . S
C709 C727 1.392 . S
N710 Co694 2.282 . S
N710 C713 1.332 . S
N710 C715 1.332 . S
C711 C712 1.386 1_565 S
C711 C714 1.388 . S
C712 C711 1.386 1_545 S
C712 C713 1.382 1_545 S
C712 H738 0.950 . S
C713 N710 1.332 . S
C713 C712 1.382 1_565 S
C713 H724 0.949 1_565 S
C714 C711 1.388 . S
C714 C715 1.382 . S
C714 H739 0.950 . S
C715 N710 1.332 . S
C715 C714 1.382 . S
C715 H725 0.948 . S
N716 Co694 2.282 . S
N716 C720 1.332 . S
N716 C721 1.332 . S
C717 C718 1.388 . S
C717 C721 1.382 . S
C717 H740 0.950 . S
C718 C717 1.388 . S
C718 C719 1.386 . S
C719 C718 1.386 . S
C719 C720 1.382 . S
C719 H741 0.950 . S
C720 N716 1.332 . S
C720 C719 1.382 . S
C720 H722 0.952 . S
C721 N716 1.332 . S
C721 C717 1.382 . S
C721 H723 0.948 . S
H722 C720 0.952 . S
H723 C721 0.948 . S
H724 C713 0.949 1_545 S
H725 C715 0.948 . S
C726 C692 1.395 . S
C726 C696 1.391 . S
C727 C689 1.389 . S
C727 C709 1.392 . S
C728 C699 1.392 . S
C728 C701 1.389 . S
C729 C704 1.395 1_545 S
C729 C706 1.391 1_545 S
H730 C690 0.951 . S
H731 C691 0.950 . S
H732 C697 0.949 . S
H733 C698 0.950 . S
H734 C702 0.951 . S
H735 C703 0.950 . S
H736 C707 0.949 . S
H737 C708 0.953 . S
H738 C712 0.950 . S
H739 C714 0.950 . S
H740 C717 0.950 . S
H741 C719 0.950 . S
C742 C743 1.443 . S
C742 N746 1.376 . S
C742 C780 1.389 . S
C743 C742 1.443 . S
C743 C744 1.340 . S
C743 H783 0.951 . S
C744 C743 1.340 . S
C744 C745 1.439 . S
C744 H784 0.950 . S
C745 C744 1.439 . S
C745 N746 1.374 . S
C745 C779 1.395 . S
N746 C742 1.376 . S
N746 C745 1.374 . S
N746 Co747 2.008 . S
Co747 N746 2.008 . S
Co747 N748 1.995 . S
Co747 N753 2.008 . S
Co747 N758 1.995 . S
Co747 N763 2.282 . S
Co747 N769 2.282 . S
N748 Co747 1.995 . S
N748 C749 1.376 . S
N748 C752 1.383 . S
C749 N748 1.376 . S
C749 C750 1.446 . S
C749 C779 1.391 . S
C750 C749 1.446 . S
C750 C751 1.339 . S
C750 H785 0.949 . S
C751 C750 1.339 . S
C751 C752 1.439 . S
C751 H786 0.950 . S
C752 N748 1.383 . S
C752 C751 1.439 . S
C752 C781 1.392 . S
N753 Co747 2.008 . S
N753 C754 1.376 . S
N753 C757 1.374 . S
C754 N753 1.376 . S
C754 C755 1.443 . S
C754 C781 1.389 . S
C755 C754 1.443 . S
C755 C756 1.340 . S
C755 H787 0.951 . S
C756 C755 1.340 . S
C756 C757 1.439 . S
C756 H788 0.950 1_455 S
C757 N753 1.374 . S
C757 C756 1.439 . S
C757 C782 1.395 . S
N758 Co747 1.995 . S
N758 C759 1.376 . S
N758 C762 1.383 . S
C759 N758 1.376 . S
C759 C760 1.446 . S
C759 C782 1.391 . S
C760 C759 1.446 . S
C760 C761 1.339 . S
C760 H789 0.949 1_455 S
C761 C760 1.339 . S
C761 C762 1.439 . S
C761 H790 0.950 . S
C762 N758 1.383 . S
C762 C761 1.439 . S
C762 C780 1.392 . S
N763 Co747 2.282 . S
N763 C766 1.332 . S
N763 C768 1.332 . S
C764 C765 1.386 . S
C764 C767 1.388 . S
C765 C764 1.386 . S
C765 C766 1.382 . S
C765 H791 0.950 1_455 S
C766 N763 1.332 . S
C766 C765 1.382 . S
C766 H777 0.952 . S
C767 C764 1.388 . S
C767 C768 1.382 . S
C767 H792 0.950 . S
C768 N763 1.332 . S
C768 C767 1.382 . S
C768 H778 0.948 . S
N769 Co747 2.282 . S
N769 C773 1.332 . S
N769 C774 1.332 . S
C770 C771 1.388 . S
C770 C774 1.382 . S
C770 H793 0.950 . S
C771 C770 1.388 . S
C771 C772 1.386 . S
C772 C771 1.386 . S
C772 C773 1.382 . S
C772 H794 0.950 . S
C773 N769 1.332 . S
C773 C772 1.382 . S
C773 H775 0.952 . S
C774 N769 1.332 . S
C774 C770 1.382 . S
C774 H776 0.948 . S
H775 C773 0.952 . S
H776 C774 0.948 . S
H777 C766 0.952 . S
H778 C768 0.948 . S
C779 C745 1.395 . S
C779 C749 1.391 . S
C780 C742 1.389 . S
C780 C762 1.392 . S
C781 C752 1.392 . S
C781 C754 1.389 . S
C782 C757 1.395 . S
C782 C759 1.391 . S
H783 C743 0.951 . S
H784 C744 0.950 . S
H785 C750 0.949 . S
H786 C751 0.950 . S
H787 C755 0.951 . S
H788 C756 0.950 1_655 S
H789 C760 0.949 1_655 S
H790 C761 0.950 . S
H791 C765 0.950 1_655 S
H792 C767 0.950 . S
H793 C770 0.950 . S
H794 C772 0.950 . S
C795 C796 1.443 . S
C795 N799 1.376 . S
C795 C833 1.389 . S
C796 C795 1.443 . S
C796 C797 1.340 . S
C796 H836 0.951 . S
C797 C796 1.340 . S
C797 C798 1.439 . S
C797 H837 0.950 . S
C798 C797 1.439 . S
C798 N799 1.374 . S
C798 C832 1.395 . S
N799 C795 1.376 . S
N799 C798 1.374 . S
N799 Co800 2.008 . S
Co800 N799 2.008 . S
Co800 N801 1.995 . S
Co800 N806 2.008 . S
Co800 N811 1.995 . S
Co800 N816 2.282 . S
Co800 N822 2.282 . S
N801 Co800 1.995 . S
N801 C802 1.376 . S
N801 C805 1.383 . S
C802 N801 1.376 . S
C802 C803 1.446 . S
C802 C832 1.391 . S
C803 C802 1.446 . S
C803 C804 1.339 . S
C803 H838 0.949 . S
C804 C803 1.339 . S
C804 C805 1.439 . S
C804 H839 0.950 . S
C805 N801 1.383 . S
C805 C804 1.439 . S
C805 C834 1.392 . S
N806 Co800 2.008 . S
N806 C807 1.376 . S
N806 C810 1.374 . S
C807 N806 1.376 . S
C807 C808 1.443 . S
C807 C834 1.389 . S
C808 C807 1.443 . S
C808 C809 1.332 1_565 S
C808 H840 0.951 1_565 S
C809 C808 1.332 1_545 S
C809 C810 1.434 1_545 S
C809 H841 0.961 . S
C810 N806 1.374 . S
C810 C809 1.434 1_565 S
C810 C835 1.395 . S
N811 Co800 1.995 . S
N811 C812 1.376 . S
N811 C815 1.383 . S
C812 N811 1.376 . S
C812 C813 1.446 . S
C812 C835 1.391 . S
C813 C812 1.446 . S
C813 C814 1.339 . S
C813 H842 0.949 . S
C814 C813 1.339 . S
C814 C815 1.439 . S
C814 H843 0.950 . S
C815 N811 1.383 . S
C815 C814 1.439 . S
C815 C833 1.392 . S
N816 Co800 2.282 . S
N816 C819 1.332 . S
N816 C821 1.332 . S
C817 C818 1.386 . S
C817 C820 1.388 . S
C818 C817 1.386 . S
C818 C819 1.382 . S
C818 H844 0.950 . S
C819 N816 1.332 . S
C819 C818 1.382 . S
C819 H830 0.952 . S
C820 C817 1.388 . S
C820 C821 1.382 . S
C820 H845 0.950 . S
C821 N816 1.332 . S
C821 C820 1.382 . S
C821 H831 0.948 . S
N822 Co800 2.282 . S
N822 C826 1.332 . S
N822 C827 1.332 . S
C823 C824 1.388 . S
C823 C827 1.382 . S
C823 H846 0.950 . S
C824 C823 1.388 . S
C824 C825 1.386 . S
C825 C824 1.386 . S
C825 C826 1.382 . S
C825 H847 0.950 . S
C826 N822 1.332 . S
C826 C825 1.382 . S
C826 H828 0.952 . S
C827 N822 1.332 . S
C827 C823 1.382 . S
C827 H829 0.948 . S
H828 C826 0.952 . S
H829 C827 0.948 . S
H830 C819 0.952 . S
H831 C821 0.948 . S
C832 C798 1.395 . S
C832 C802 1.391 . S
C833 C795 1.389 . S
C833 C815 1.392 . S
C834 C805 1.392 . S
C834 C807 1.389 . S
C835 C810 1.395 . S
C835 C812 1.391 . S
H836 C796 0.951 . S
H837 C797 0.950 . S
H838 C803 0.949 . S
H839 C804 0.950 . S
H840 C808 0.951 1_545 S
H841 C809 0.961 . S
H842 C813 0.949 . S
H843 C814 0.950 . S
H844 C818 0.950 . S
H845 C820 0.950 . S
H846 C823 0.950 . S
H847 C825 0.950 . S
C848 C849 1.443 . S
C848 N852 1.376 . S
C848 C886 1.389 . S
C849 C848 1.443 . S
C849 C850 1.340 . S
C849 H889 0.951 . S
C850 C849 1.340 . S
C850 C851 1.439 . S
C850 H890 0.950 . S
C851 C850 1.439 . S
C851 N852 1.374 . S
C851 C885 1.395 . S
N852 C848 1.376 . S
N852 C851 1.374 . S
N852 Co853 2.008 . S
Co853 N852 2.008 . S
Co853 N854 1.995 . S
Co853 N859 2.008 . S
Co853 N864 1.995 . S
Co853 N869 2.282 . S
Co853 N875 2.282 . S
N854 Co853 1.995 . S
N854 C855 1.376 . S
N854 C858 1.383 . S
C855 N854 1.376 . S
C855 C856 1.446 . S
C855 C885 1.391 . S
C856 C855 1.446 . S
C856 C857 1.339 . S
C856 H891 0.949 . S
C857 C856 1.339 . S
C857 C858 1.439 . S
C857 H892 0.950 . S
C858 N854 1.383 . S
C858 C857 1.439 . S
C858 C887 1.392 . S
N859 Co853 2.008 . S
N859 C860 1.376 . S
N859 C863 1.374 . S
C860 N859 1.376 . S
C860 C861 1.443 . S
C860 C887 1.389 . S
C861 C860 1.443 . S
C861 C862 1.340 . S
C861 H893 0.951 . S
C862 C861 1.340 . S
C862 C863 1.439 . S
C862 H894 0.952 . S
C863 N859 1.374 . S
C863 C862 1.439 . S
C863 C888 1.395 . S
N864 Co853 1.995 . S
N864 C865 1.376 . S
N864 C868 1.383 . S
C865 N864 1.376 . S
C865 C866 1.446 . S
C865 C888 1.391 . S
C866 C865 1.446 . S
C866 C867 1.339 . S
C866 H895 0.949 . S
C867 C866 1.339 . S
C867 C868 1.439 . S
C867 H896 0.950 . S
C868 N864 1.383 . S
C868 C867 1.439 . S
C868 C886 1.392 . S
N869 Co853 2.282 . S
N869 C872 1.332 . S
N869 C874 1.332 . S
C870 C871 1.386 . S
C870 C873 1.388 . S
C871 C870 1.386 . S
C871 C872 1.382 . S
C871 H897 0.950 . S
C872 N869 1.332 . S
C872 C871 1.382 . S
C872 H883 0.952 . S
C873 C870 1.388 . S
C873 C874 1.382 . S
C873 H898 0.950 . S
C874 N869 1.332 . S
C874 C873 1.382 . S
C874 H884 0.948 . S
N875 Co853 2.282 . S
N875 C879 1.332 . S
N875 C880 1.332 . S
C876 C877 1.388 . S
C876 C880 1.382 . S
C876 H899 0.950 . S
C877 C876 1.388 . S
C877 C878 1.386 . S
C878 C877 1.386 . S
C878 C879 1.382 . S
C878 H900 0.950 . S
C879 N875 1.332 . S
C879 C878 1.382 . S
C879 H881 0.952 . S
C880 N875 1.332 . S
C880 C876 1.382 . S
C880 H882 0.948 . S
H881 C879 0.952 . S
H882 C880 0.948 . S
H883 C872 0.952 . S
H884 C874 0.948 . S
C885 C851 1.395 . S
C885 C855 1.391 . S
C886 C848 1.389 . S
C886 C868 1.392 . S
C887 C858 1.392 . S
C887 C860 1.389 . S
C888 C863 1.395 . S
C888 C865 1.391 . S
H889 C849 0.951 . S
H890 C850 0.950 . S
H891 C856 0.949 . S
H892 C857 0.950 . S
H893 C861 0.951 . S
H894 C862 0.952 . S
H895 C866 0.949 . S
H896 C867 0.950 . S
H897 C871 0.950 . S
H898 C873 0.950 . S
H899 C876 0.950 . S
H900 C878 0.950 . S
C901 C902 1.443 . S
C901 N905 1.376 . S
C901 C939 1.389 . S
C902 C901 1.443 . S
C902 C903 1.340 . S
C902 H942 0.951 . S
C903 C902 1.340 . S
C903 C904 1.439 . S
C903 H943 0.950 . S
C904 C903 1.439 . S
C904 N905 1.374 . S
C904 C938 1.395 . S
N905 C901 1.376 . S
N905 C904 1.374 . S
N905 Co906 2.008 . S
Co906 N905 2.008 . S
Co906 N907 1.995 . S
Co906 N912 2.008 . S
Co906 N917 1.995 . S
Co906 N922 2.282 . S
Co906 N928 2.282 . S
N907 Co906 1.995 . S
N907 C908 1.376 . S
N907 C911 1.383 . S
C908 N907 1.376 . S
C908 C909 1.446 . S
C908 C938 1.391 . S
C909 C908 1.446 . S
C909 C910 1.339 . S
C909 H944 0.949 . S
C910 C909 1.339 . S
C910 C911 1.439 . S
C910 H945 0.950 . S
C911 N907 1.383 . S
C911 C910 1.439 . S
C911 C940 1.392 . S
N912 Co906 2.008 . S
N912 C913 1.376 . S
N912 C916 1.374 . S
C913 N912 1.376 . S
C913 C914 1.443 . S
C913 C940 1.389 . S
C914 C913 1.443 . S
C914 C915 1.340 . S
C914 H946 0.951 . S
C915 C914 1.340 . S
C915 C916 1.439 . S
C915 H947 0.950 . S
C916 N912 1.374 . S
C916 C915 1.439 . S
C916 C941 1.395 . S
N917 Co906 1.995 . S
N917 C918 1.376 . S
N917 C921 1.383 . S
C918 N917 1.376 . S
C918 C919 1.446 . S
C918 C941 1.391 . S
C919 C918 1.446 . S
C919 C920 1.339 . S
C919 H948 0.949 . S
C920 C919 1.339 . S
C920 C921 1.439 . S
C920 H949 0.950 . S
C921 N917 1.383 . S
C921 C920 1.439 . S
C921 C939 1.392 . S
N922 Co906 2.282 . S
N922 C925 1.332 . S
N922 C927 1.332 . S
C923 C924 1.386 . S
C923 C926 1.388 . S
C924 C923 1.386 . S
C924 C925 1.382 . S
C924 H950 0.950 . S
C925 N922 1.332 . S
C925 C924 1.382 . S
C925 H936 0.952 . S
C926 C923 1.388 . S
C926 C927 1.382 . S
C926 H951 0.950 . S
C927 N922 1.332 . S
C927 C926 1.382 . S
C927 H937 0.948 . S
N928 Co906 2.282 . S
N928 C932 1.332 . S
N928 C933 1.332 . S
C929 C930 1.388 . S
C929 C933 1.382 . S
C929 H952 0.950 . S
C930 C929 1.388 . S
C930 C931 1.386 . S
C931 C930 1.386 . S
C931 C932 1.382 . S
C931 H953 0.950 . S
C932 N928 1.332 . S
C932 C931 1.382 . S
C932 H934 0.952 . S
C933 N928 1.332 . S
C933 C929 1.382 . S
C933 H935 0.948 . S
H934 C932 0.952 . S
H935 C933 0.948 . S
H936 C925 0.952 . S
H937 C927 0.948 . S
C938 C904 1.395 . S
C938 C908 1.391 . S
C939 C901 1.389 . S
C939 C921 1.392 . S
C940 C911 1.392 . S
C940 C913 1.389 . S
C941 C916 1.395 . S
C941 C918 1.391 . S
H942 C902 0.951 . S
H943 C903 0.950 . S
H944 C909 0.949 . S
H945 C910 0.950 . S
H946 C914 0.951 . S
H947 C915 0.950 . S
H948 C919 0.949 . S
H949 C920 0.950 . S
H950 C924 0.950 . S
H951 C926 0.950 . S
H952 C929 0.950 . S
H953 C931 0.950 . S
H954 C972 0.978 . S
H955 C974 0.951 . S
H956 C976 0.950 . S
H957 C977 0.950 . S
H958 C979 0.950 . S
H959 C982 0.950 . S
H960 C983 0.950 . S
H961 C985 0.950 . S
H962 C986 0.950 . S
H963 C987 0.951 . S
H964 C989 0.951 . S
H965 C991 0.950 . S
H966 C992 0.950 . S
H967 C994 0.950 . S
H968 C997 0.950 . S
H969 C998 0.950 . S
H970 C1000 0.950 . S
H971 C1001 0.950 . S
C972 H954 0.978 . S
C972 C973 1.366 . S
C972 C974 1.388 . S
C973 C972 1.366 . S
C973 C977 1.385 . S
C974 H955 0.951 . S
C974 C972 1.388 . S
C974 C975 1.366 . S
C975 C974 1.366 . S
C975 C976 1.414 . S
C975 C978 1.499 . S
C976 H956 0.950 . S
C976 C975 1.414 . S
C976 C977 1.374 . S
C977 H957 0.950 . S
C977 C973 1.385 . S
C977 C976 1.374 . S
C978 C975 1.499 . S
C978 C979 1.373 . S
C978 C980 1.389 . S
C979 H958 0.950 . S
C979 C978 1.373 . S
C979 C995 1.377 . S
C980 C978 1.389 . S
C980 C981 1.524 . S
C980 C994 1.377 . S
C981 C980 1.524 . S
C981 C982 1.397 . S
C981 C986 1.363 . S
C982 H959 0.950 . S
C982 C981 1.397 . S
C982 C983 1.334 . S
C983 H960 0.950 . S
C983 C982 1.334 . S
C983 C984 1.287 . S
C984 C983 1.287 . S
C984 C985 1.524 . S
C984 H1003 0.913 . S
C985 H961 0.950 . S
C985 C984 1.524 . S
C985 C986 1.415 . S
C986 H962 0.950 . S
C986 C981 1.363 . S
C986 C985 1.415 . S
C987 H963 0.951 . S
C987 C988 1.366 . S
C987 C989 1.388 . S
C988 C987 1.366 . S
C988 C992 1.385 . S
C989 H964 0.951 . S
C989 C987 1.388 . S
C989 C990 1.366 . S
C990 C989 1.366 . S
C990 C991 1.414 . S
C990 C993 1.499 . S
C991 H965 0.950 . S
C991 C990 1.414 . S
C991 C992 1.374 . S
C992 H966 0.950 . S
C992 C988 1.385 . S
C992 C991 1.374 . S
C993 C990 1.499 . S
C993 C994 1.373 . S
C993 C995 1.389 . S
C994 H967 0.950 . S
C994 C980 1.377 . S
C994 C993 1.373 . S
C995 C979 1.377 . S
C995 C993 1.389 . S
C995 C996 1.524 . S
C996 C995 1.524 . S
C996 C997 1.397 . S
C996 C1001 1.363 . S
C997 H968 0.950 . S
C997 C996 1.397 . S
C997 C998 1.334 . S
C998 H969 0.950 . S
C998 C997 1.334 . S
C998 C999 1.287 . S
C999 C998 1.287 . S
C999 C1000 1.524 . S
C999 H1002 0.999 . S
C1000 H970 0.950 . S
C1000 C999 1.524 . S
C1000 C1001 1.415 . S
C1001 H971 0.950 . S
C1001 C996 1.363 . S
C1001 C1000 1.415 . S
H1002 C999 0.999 . S
H1003 C984 0.913 . S
H1004 C1022 0.951 . S
H1005 C1024 0.951 . S
H1006 C1026 0.950 . S
H1007 C1027 0.950 1_556 S
H1008 C1029 0.950 . S
H1009 C1032 0.950 . S
H1010 C1033 0.950 . S
H1011 C1035 0.950 . S
H1012 C1036 0.950 . S
H1013 C1037 0.951 . S
H1014 C1039 0.951 . S
H1015 C1041 0.950 . S
H1016 C1042 0.950 . S
H1017 C1044 0.950 . S
H1018 C1047 0.950 . S
H1019 C1048 0.950 . S
H1020 C1050 0.950 . S
H1021 C1051 0.950 . S
C1022 H1004 0.951 . S
C1022 C1023 1.366 . S
C1022 C1024 1.388 . S
C1023 C1022 1.366 . S
C1023 C1027 1.385 . S
C1024 H1005 0.951 . S
C1024 C1022 1.388 . S
C1024 C1025 1.366 . S
C1025 C1024 1.366 . S
C1025 C1026 1.414 . S
C1025 C1028 1.499 . S
C1026 H1006 0.950 . S
C1026 C1025 1.414 . S
C1026 C1027 1.374 . S
C1027 H1007 0.950 1_554 S
C1027 C1023 1.385 . S
C1027 C1026 1.374 . S
C1028 C1025 1.499 . S
C1028 C1029 1.373 . S
C1028 C1030 1.389 . S
C1029 H1008 0.950 . S
C1029 C1028 1.373 . S
C1029 C1045 1.377 . S
C1030 C1028 1.389 . S
C1030 C1031 1.524 . S
C1030 C1044 1.377 . S
C1031 C1030 1.524 . S
C1031 C1032 1.397 . S
C1031 C1036 1.363 . S
C1032 H1009 0.950 . S
C1032 C1031 1.397 . S
C1032 C1033 1.334 . S
C1033 H1010 0.950 . S
C1033 C1032 1.334 . S
C1033 C1034 1.287 . S
C1034 C1033 1.287 . S
C1034 C1035 1.524 . S
C1034 H1053 0.913 . S
C1035 H1011 0.950 . S
C1035 C1034 1.524 . S
C1035 C1036 1.415 . S
C1036 H1012 0.950 . S
C1036 C1031 1.363 . S
C1036 C1035 1.415 . S
C1037 H1013 0.951 . S
C1037 C1038 1.366 . S
C1037 C1039 1.388 . S
C1038 C1037 1.366 . S
C1038 C1042 1.385 . S
C1039 H1014 0.951 . S
C1039 C1037 1.388 . S
C1039 C1040 1.366 . S
C1040 C1039 1.366 . S
C1040 C1041 1.414 . S
C1040 C1043 1.499 . S
C1041 H1015 0.950 . S
C1041 C1040 1.414 . S
C1041 C1042 1.374 . S
C1042 H1016 0.950 . S
C1042 C1038 1.385 . S
C1042 C1041 1.374 . S
C1043 C1040 1.499 . S
C1043 C1044 1.373 . S
C1043 C1045 1.389 . S
C1044 H1017 0.950 . S
C1044 C1030 1.377 . S
C1044 C1043 1.373 . S
C1045 C1029 1.377 . S
C1045 C1043 1.389 . S
C1045 C1046 1.524 . S
C1046 C1045 1.524 . S
C1046 C1047 1.397 . S
C1046 C1051 1.363 . S
C1047 H1018 0.950 . S
C1047 C1046 1.397 . S
C1047 C1048 1.334 . S
C1048 H1019 0.950 . S
C1048 C1047 1.334 . S
C1048 C1049 1.287 . S
C1049 C1048 1.287 . S
C1049 C1050 1.524 . S
C1049 H1052 0.999 . S
C1050 H1020 0.950 . S
C1050 C1049 1.524 . S
C1050 C1051 1.415 . S
C1051 H1021 0.950 . S
C1051 C1046 1.363 . S
C1051 C1050 1.415 . S
H1052 C1049 0.999 . S
H1053 C1034 0.913 . S
H1054 C1072 0.951 . S
H1055 C1074 0.951 . S
H1056 C1076 0.936 1_545 S
H1057 C1077 0.950 . S
H1058 C1079 0.950 1_545 S
H1059 C1082 0.950 . S
H1060 C1083 0.950 . S
H1061 C1085 0.950 . S
H1062 C1086 0.950 . S
H1063 C1087 0.951 1_556 S
H1064 C1089 0.951 . S
H1065 C1091 0.950 . S
H1066 C1092 0.950 . S
H1067 C1094 0.950 . S
H1068 C1097 0.950 1_565 S
H1069 C1098 0.950 . S
H1070 C1100 0.950 . S
H1071 C1101 0.950 . S
C1072 H1054 0.951 . S
C1072 C1073 1.366 . S
C1072 C1074 1.388 . S
C1073 C1072 1.366 . S
C1073 C1077 1.385 1_565 S
C1074 H1055 0.951 . S
C1074 C1072 1.388 . S
C1074 C1075 1.366 . S
C1075 C1074 1.366 . S
C1075 C1076 1.429 . S
C1075 C1078 1.499 . S
C1076 H1056 0.936 1_565 S
C1076 C1075 1.429 . S
C1076 C1077 1.374 1_565 S
C1077 H1057 0.950 . S
C1077 C1073 1.385 1_545 S
C1077 C1076 1.374 1_545 S
C1078 C1075 1.499 . S
C1078 C1079 1.373 . S
C1078 C1080 1.389 . S
C1079 H1058 0.950 1_565 S
C1079 C1078 1.373 . S
C1079 C1095 1.377 . S
C1080 C1078 1.389 . S
C1080 C1081 1.524 . S
C1080 C1094 1.377 . S
C1081 C1080 1.524 . S
C1081 C1082 1.397 . S
C1081 C1086 1.363 . S
C1082 H1059 0.950 . S
C1082 C1081 1.397 . S
C1082 C1083 1.334 . S
C1083 H1060 0.950 . S
C1083 C1082 1.334 . S
C1083 C1084 1.287 . S
C1084 C1083 1.287 . S
C1084 C1085 1.524 . S
C1084 H1103 0.913 . S
C1085 H1061 0.950 . S
C1085 C1084 1.524 . S
C1085 C1086 1.415 . S
C1086 H1062 0.950 . S
C1086 C1081 1.363 . S
C1086 C1085 1.415 . S
C1087 H1063 0.951 1_554 S
C1087 C1088 1.366 . S
C1087 C1089 1.388 . S
C1088 C1087 1.366 . S
C1088 C1092 1.385 . S
C1089 H1064 0.951 . S
C1089 C1087 1.388 . S
C1089 C1090 1.366 . S
C1090 C1089 1.366 . S
C1090 C1091 1.414 . S
C1090 C1093 1.499 . S
C1091 H1065 0.950 . S
C1091 C1090 1.414 . S
C1091 C1092 1.374 . S
C1092 H1066 0.950 . S
C1092 C1088 1.385 . S
C1092 C1091 1.374 . S
C1093 C1090 1.499 . S
C1093 C1094 1.373 . S
C1093 C1095 1.389 . S
C1094 H1067 0.950 . S
C1094 C1080 1.377 . S
C1094 C1093 1.373 . S
C1095 C1079 1.377 . S
C1095 C1093 1.389 . S
C1095 C1096 1.524 1_565 S
C1096 C1095 1.524 1_545 S
C1096 C1097 1.397 . S
C1096 C1101 1.363 . S
C1097 H1068 0.950 1_545 S
C1097 C1096 1.397 . S
C1097 C1098 1.334 . S
C1098 H1069 0.950 . S
C1098 C1097 1.334 . S
C1098 C1099 1.287 . S
C1099 C1098 1.287 . S
C1099 C1100 1.524 . S
C1099 H1102 0.999 . S
C1100 H1070 0.950 . S
C1100 C1099 1.524 . S
C1100 C1101 1.415 . S
C1101 H1071 0.950 . S
C1101 C1096 1.363 . S
C1101 C1100 1.415 . S
H1102 C1099 0.999 . S
H1103 C1084 0.913 . S
H1104 C1122 0.951 . S
H1105 C1124 0.951 . S
H1106 C1126 0.950 . S
H1107 C1127 0.950 . S
H1108 C1129 0.950 . S
H1109 C1132 0.950 . S
H1110 C1133 0.950 . S
H1111 C1135 0.950 . S
H1112 C1136 0.950 . S
H1113 C1137 0.951 . S
H1114 C1139 0.951 . S
H1115 C1141 0.950 . S
H1116 C1142 0.950 . S
H1117 C1144 0.950 . S
H1118 C1147 0.950 . S
H1119 C1148 0.950 . S
H1120 C1150 0.950 . S
H1121 C1151 0.950 . S
C1122 H1104 0.951 . S
C1122 C1123 1.366 . S
C1122 C1124 1.388 . S
C1123 C1122 1.366 . S
C1123 C1127 1.385 . S
C1124 H1105 0.951 . S
C1124 C1122 1.388 . S
C1124 C1125 1.366 . S
C1125 C1124 1.366 . S
C1125 C1126 1.414 . S
C1125 C1128 1.499 . S
C1126 H1106 0.950 . S
C1126 C1125 1.414 . S
C1126 C1127 1.374 . S
C1127 H1107 0.950 . S
C1127 C1123 1.385 . S
C1127 C1126 1.374 . S
C1128 C1125 1.499 . S
C1128 C1129 1.373 . S
C1128 C1130 1.389 . S
C1129 H1108 0.950 . S
C1129 C1128 1.373 . S
C1129 C1145 1.377 . S
C1130 C1128 1.389 . S
C1130 C1131 1.524 . S
C1130 C1144 1.377 . S
C1131 C1130 1.524 . S
C1131 C1132 1.397 . S
C1131 C1136 1.363 . S
C1132 H1109 0.950 . S
C1132 C1131 1.397 . S
C1132 C1133 1.334 . S
C1133 H1110 0.950 . S
C1133 C1132 1.334 . S
C1133 C1134 1.287 . S
C1134 C1133 1.287 . S
C1134 C1135 1.524 . S
C1134 H1153 0.913 . S
C1135 H1111 0.950 . S
C1135 C1134 1.524 . S
C1135 C1136 1.415 . S
C1136 H1112 0.950 . S
C1136 C1131 1.363 . S
C1136 C1135 1.415 . S
C1137 H1113 0.951 . S
C1137 C1138 1.366 . S
C1137 C1139 1.388 . S
C1138 C1137 1.366 . S
C1138 C1142 1.385 . S
C1139 H1114 0.951 . S
C1139 C1137 1.388 . S
C1139 C1140 1.366 . S
C1140 C1139 1.366 . S
C1140 C1141 1.414 . S
C1140 C1143 1.499 . S
C1141 H1115 0.950 . S
C1141 C1140 1.414 . S
C1141 C1142 1.374 . S
C1142 H1116 0.950 . S
C1142 C1138 1.385 . S
C1142 C1141 1.374 . S
C1143 C1140 1.499 . S
C1143 C1144 1.373 . S
C1143 C1145 1.389 . S
C1144 H1117 0.950 . S
C1144 C1130 1.377 . S
C1144 C1143 1.373 . S
C1145 C1129 1.377 . S
C1145 C1143 1.389 . S
C1145 C1146 1.524 . S
C1146 C1145 1.524 . S
C1146 C1147 1.397 1_545 S
C1146 C1151 1.363 . S
C1147 H1118 0.950 . S
C1147 C1146 1.397 1_565 S
C1147 C1148 1.334 . S
C1148 H1119 0.950 . S
C1148 C1147 1.334 . S
C1148 C1149 1.287 . S
C1149 C1148 1.287 . S
C1149 C1150 1.524 . S
C1149 H1152 0.999 . S
C1150 H1120 0.950 . S
C1150 C1149 1.524 . S
C1150 C1151 1.415 1_565 S
C1151 H1121 0.950 . S
C1151 C1146 1.363 . S
C1151 C1150 1.415 1_545 S
H1152 C1149 0.999 . S
H1153 C1134 0.913 . S
H1154 C1172 0.951 . S
H1155 C1174 0.951 . S
H1156 C1176 0.950 . S
H1157 C1177 0.950 . S
H1158 C1179 0.950 . S
H1159 C1182 0.950 . S
H1160 C1183 0.950 . S
H1161 C1185 0.950 . S
H1162 C1186 0.950 . S
H1163 C1187 0.951 . S
H1164 C1189 0.951 . S
H1165 C1191 0.950 . S
H1166 C1192 0.958 1_455 S
H1167 C1194 0.950 . S
H1168 C1197 0.950 . S
H1169 C1198 0.950 . S
H1170 C1200 0.950 . S
H1171 C1201 0.950 . S
C1172 H1154 0.951 . S
C1172 C1173 1.366 . S
C1172 C1174 1.388 . S
C1173 C1172 1.366 . S
C1173 C1177 1.385 . S
C1174 H1155 0.951 . S
C1174 C1172 1.388 . S
C1174 C1175 1.366 . S
C1175 C1174 1.366 . S
C1175 C1176 1.414 . S
C1175 C1178 1.499 . S
C1176 H1156 0.950 . S
C1176 C1175 1.414 . S
C1176 C1177 1.374 . S
C1177 H1157 0.950 . S
C1177 C1173 1.385 . S
C1177 C1176 1.374 . S
C1178 C1175 1.499 . S
C1178 C1179 1.373 . S
C1178 C1180 1.389 . S
C1179 H1158 0.950 . S
C1179 C1178 1.373 . S
C1179 C1195 1.377 . S
C1180 C1178 1.389 . S
C1180 C1181 1.524 . S
C1180 C1194 1.377 . S
C1181 C1180 1.524 . S
C1181 C1182 1.397 . S
C1181 C1186 1.363 . S
C1182 H1159 0.950 . S
C1182 C1181 1.397 . S
C1182 C1183 1.334 . S
C1183 H1160 0.950 . S
C1183 C1182 1.334 . S
C1183 C1184 1.287 . S
C1184 C1183 1.287 . S
C1184 C1185 1.524 . S
C1184 H1203 0.913 . S
C1185 H1161 0.950 . S
C1185 C1184 1.524 . S
C1185 C1186 1.415 . S
C1186 H1162 0.950 . S
C1186 C1181 1.363 . S
C1186 C1185 1.415 . S
C1187 H1163 0.951 . S
C1187 C1188 1.366 . S
C1187 C1189 1.388 . S
C1188 C1187 1.366 . S
C1188 C1192 1.385 . S
C1189 H1164 0.951 . S
C1189 C1187 1.388 . S
C1189 C1190 1.366 . S
C1190 C1189 1.366 . S
C1190 C1191 1.414 . S
C1190 C1193 1.499 . S
C1191 H1165 0.950 . S
C1191 C1190 1.414 . S
C1191 C1192 1.374 . S
C1192 H1166 0.958 1_655 S
C1192 C1188 1.385 . S
C1192 C1191 1.374 . S
C1193 C1190 1.499 . S
C1193 C1194 1.373 . S
C1193 C1195 1.389 . S
C1194 H1167 0.950 . S
C1194 C1180 1.377 . S
C1194 C1193 1.373 . S
C1195 C1179 1.377 . S
C1195 C1193 1.389 . S
C1195 C1196 1.524 . S
C1196 C1195 1.524 . S
C1196 C1197 1.397 1_655 S
C1196 C1201 1.363 . S
C1197 H1168 0.950 . S
C1197 C1196 1.397 1_455 S
C1197 C1198 1.334 . S
C1198 H1169 0.950 . S
C1198 C1197 1.334 . S
C1198 C1199 1.287 . S
C1199 C1198 1.287 . S
C1199 C1200 1.524 . S
C1199 H1202 0.999 . S
C1200 H1170 0.950 . S
C1200 C1199 1.524 . S
C1200 C1201 1.415 1_455 S
C1201 H1171 0.950 . S
C1201 C1196 1.363 . S
C1201 C1200 1.415 1_655 S
H1202 C1199 0.999 . S
H1203 C1184 0.913 . S
H1204 C1222 0.951 . S
H1205 C1224 0.951 . S
H1206 C1226 0.950 . S
H1207 C1227 0.950 . S
H1208 C1229 0.950 . S
H1209 C1232 0.950 . S
H1210 C1233 0.950 . S
H1211 C1235 0.950 . S
H1212 C1236 0.950 . S
H1213 C1237 0.951 . S
H1214 C1239 0.951 . S
H1215 C1241 0.950 . S
H1216 C1242 0.950 . S
H1217 C1244 0.950 . S
H1218 C1247 0.950 . S
H1219 C1248 0.950 . S
H1220 C1250 0.950 . S
H1221 C1251 0.950 . S
C1222 H1204 0.951 . S
C1222 C1223 1.366 . S
C1222 C1224 1.388 . S
C1223 C1222 1.366 . S
C1223 C1227 1.385 . S
C1224 H1205 0.951 . S
C1224 C1222 1.388 . S
C1224 C1225 1.366 . S
C1225 C1224 1.366 . S
C1225 C1226 1.414 . S
C1225 C1228 1.499 . S
C1226 H1206 0.950 . S
C1226 C1225 1.414 . S
C1226 C1227 1.374 . S
C1227 H1207 0.950 . S
C1227 C1223 1.385 . S
C1227 C1226 1.374 . S
C1228 C1225 1.499 . S
C1228 C1229 1.373 . S
C1228 C1230 1.389 . S
C1229 H1208 0.950 . S
C1229 C1228 1.373 . S
C1229 C1245 1.377 . S
C1230 C1228 1.389 . S
C1230 C1231 1.524 . S
C1230 C1244 1.377 . S
C1231 C1230 1.524 . S
C1231 C1232 1.397 . S
C1231 C1236 1.363 . S
C1232 H1209 0.950 . S
C1232 C1231 1.397 . S
C1232 C1233 1.334 . S
C1233 H1210 0.950 . S
C1233 C1232 1.334 . S
C1233 C1234 1.287 . S
C1234 C1233 1.287 . S
C1234 C1235 1.524 . S
C1234 H1253 0.913 . S
C1235 H1211 0.950 . S
C1235 C1234 1.524 . S
C1235 C1236 1.415 . S
C1236 H1212 0.950 . S
C1236 C1231 1.363 . S
C1236 C1235 1.415 . S
C1237 H1213 0.951 . S
C1237 C1238 1.366 . S
C1237 C1239 1.388 . S
C1238 C1237 1.366 . S
C1238 C1242 1.385 . S
C1239 H1214 0.951 . S
C1239 C1237 1.388 . S
C1239 C1240 1.366 . S
C1240 C1239 1.366 . S
C1240 C1241 1.414 . S
C1240 C1243 1.499 . S
C1241 H1215 0.950 . S
C1241 C1240 1.414 . S
C1241 C1242 1.374 . S
C1242 H1216 0.950 . S
C1242 C1238 1.385 . S
C1242 C1241 1.374 . S
C1243 C1240 1.499 . S
C1243 C1244 1.373 . S
C1243 C1245 1.389 . S
C1244 H1217 0.950 . S
C1244 C1230 1.377 . S
C1244 C1243 1.373 . S
C1245 C1229 1.377 . S
C1245 C1243 1.389 . S
C1245 C1246 1.524 . S
C1246 C1245 1.524 . S
C1246 C1247 1.397 . S
C1246 C1251 1.363 . S
C1247 H1218 0.950 . S
C1247 C1246 1.397 . S
C1247 C1248 1.334 . S
C1248 H1219 0.950 . S
C1248 C1247 1.334 . S
C1248 C1249 1.287 . S
C1249 C1248 1.287 . S
C1249 C1250 1.524 . S
C1249 H1252 0.999 . S
C1250 H1220 0.950 . S
C1250 C1249 1.524 . S
C1250 C1251 1.415 . S
C1251 H1221 0.950 . S
C1251 C1246 1.363 . S
C1251 C1250 1.415 . S
H1252 C1249 0.999 . S
H1253 C1234 0.913 . S
H1254 C1272 0.951 . S
H1255 C1274 0.951 . S
H1256 C1276 0.950 . S
H1257 C1277 0.950 . S
H1258 C1279 0.950 . S
H1259 C1282 0.950 . S
H1260 C1283 0.950 . S
H1261 C1285 0.950 . S
H1262 C1286 0.950 . S
H1263 C1287 0.951 . S
H1264 C1289 0.951 . S
H1265 C1291 0.950 . S
H1266 C1292 0.950 . S
H1267 C1294 0.950 . S
H1268 C1297 0.950 . S
H1269 C1298 0.950 . S
H1270 C1300 0.950 . S
H1271 C1301 0.950 . S
C1272 H1254 0.951 . S
C1272 C1273 1.366 . S
C1272 C1274 1.388 . S
C1273 C1272 1.366 . S
C1273 C1277 1.385 . S
C1274 H1255 0.951 . S
C1274 C1272 1.388 . S
C1274 C1275 1.366 . S
C1275 C1274 1.366 . S
C1275 C1276 1.414 . S
C1275 C1278 1.499 . S
C1276 H1256 0.950 . S
C1276 C1275 1.414 . S
C1276 C1277 1.374 . S
C1277 H1257 0.950 . S
C1277 C1273 1.385 . S
C1277 C1276 1.374 . S
C1278 C1275 1.499 . S
C1278 C1279 1.373 . S
C1278 C1280 1.389 . S
C1279 H1258 0.950 . S
C1279 C1278 1.373 . S
C1279 C1295 1.377 . S
C1280 C1278 1.389 . S
C1280 C1281 1.524 . S
C1280 C1294 1.377 . S
C1281 C1280 1.524 . S
C1281 C1282 1.397 . S
C1281 C1286 1.363 . S
C1282 H1259 0.950 . S
C1282 C1281 1.397 . S
C1282 C1283 1.334 . S
C1283 H1260 0.950 . S
C1283 C1282 1.334 . S
C1283 C1284 1.287 . S
C1284 C1283 1.287 . S
C1284 C1285 1.524 . S
C1284 H1303 0.913 . S
C1285 H1261 0.950 . S
C1285 C1284 1.524 . S
C1285 C1286 1.415 . S
C1286 H1262 0.950 . S
C1286 C1281 1.363 . S
C1286 C1285 1.415 . S
C1287 H1263 0.951 . S
C1287 C1288 1.366 . S
C1287 C1289 1.388 . S
C1288 C1287 1.366 . S
C1288 C1292 1.385 . S
C1289 H1264 0.951 . S
C1289 C1287 1.388 . S
C1289 C1290 1.366 . S
C1290 C1289 1.366 . S
C1290 C1291 1.414 . S
C1290 C1293 1.499 . S
C1291 H1265 0.950 . S
C1291 C1290 1.414 . S
C1291 C1292 1.374 . S
C1292 H1266 0.950 . S
C1292 C1288 1.385 . S
C1292 C1291 1.374 . S
C1293 C1290 1.499 . S
C1293 C1294 1.373 . S
C1293 C1295 1.389 . S
C1294 H1267 0.950 . S
C1294 C1280 1.377 . S
C1294 C1293 1.373 . S
C1295 C1279 1.377 . S
C1295 C1293 1.389 . S
C1295 C1296 1.524 . S
C1296 C1295 1.524 . S
C1296 C1297 1.397 . S
C1296 C1301 1.363 1_655 S
C1297 H1268 0.950 . S
C1297 C1296 1.397 . S
C1297 C1298 1.334 1_655 S
C1298 H1269 0.950 . S
C1298 C1297 1.334 1_455 S
C1298 C1299 1.287 . S
C1299 C1298 1.287 . S
C1299 C1300 1.524 . S
C1299 H1302 0.999 . S
C1300 H1270 0.950 . S
C1300 C1299 1.524 . S
C1300 C1301 1.415 . S
C1301 H1271 0.950 . S
C1301 C1296 1.363 1_455 S
C1301 C1300 1.415 . S
H1302 C1299 0.999 . S
H1303 C1284 0.913 . S
H1304 C1322 0.951 . S
H1305 C1324 0.951 . S
H1306 C1326 0.950 . S
H1307 C1327 0.949 1_554 S
H1308 C1329 0.950 . S
H1309 C1332 0.950 . S
H1310 C1333 0.950 . S
H1311 C1335 0.950 . S
H1312 C1336 0.950 . S
H1313 C1337 0.951 . S
H1314 C1339 0.951 . S
H1315 C1341 0.950 . S
H1316 C1342 0.950 . S
H1317 C1344 0.950 . S
H1318 C1347 0.950 . S
H1319 C1348 0.950 . S
H1320 C1350 0.950 . S
H1321 C1351 0.950 . S
C1322 H1304 0.951 . S
C1322 C1323 1.366 . S
C1322 C1324 1.388 . S
C1323 C1322 1.366 . S
C1323 C1327 1.385 . S
C1324 H1305 0.951 . S
C1324 C1322 1.388 . S
C1324 C1325 1.366 . S
C1325 C1324 1.366 . S
C1325 C1326 1.414 . S
C1325 C1328 1.499 . S
C1326 H1306 0.950 . S
C1326 C1325 1.414 . S
C1326 C1327 1.374 . S
C1327 H1307 0.949 1_556 S
C1327 C1323 1.385 . S
C1327 C1326 1.374 . S
C1328 C1325 1.499 . S
C1328 C1329 1.373 . S
C1328 C1330 1.389 . S
C1329 H1308 0.950 . S
C1329 C1328 1.373 . S
C1329 C1345 1.377 . S
C1330 C1328 1.389 . S
C1330 C1331 1.524 . S
C1330 C1344 1.377 . S
C1331 C1330 1.524 . S
C1331 C1332 1.397 . S
C1331 C1336 1.363 . S
C1332 H1309 0.950 . S
C1332 C1331 1.397 . S
C1332 C1333 1.334 . S
C1333 H1310 0.950 . S
C1333 C1332 1.334 . S
C1333 C1334 1.287 . S
C1334 C1333 1.287 . S
C1334 C1335 1.524 . S
C1334 H1353 0.913 . S
C1335 H1311 0.950 . S
C1335 C1334 1.524 . S
C1335 C1336 1.415 . S
C1336 H1312 0.950 . S
C1336 C1331 1.363 . S
C1336 C1335 1.415 . S
C1337 H1313 0.951 . S
C1337 C1338 1.366 . S
C1337 C1339 1.388 . S
C1338 C1337 1.366 . S
C1338 C1342 1.385 . S
C1339 H1314 0.951 . S
C1339 C1337 1.388 . S
C1339 C1340 1.366 . S
C1340 C1339 1.366 . S
C1340 C1341 1.414 . S
C1340 C1343 1.499 . S
C1341 H1315 0.950 . S
C1341 C1340 1.414 . S
C1341 C1342 1.374 . S
C1342 H1316 0.950 . S
C1342 C1338 1.385 . S
C1342 C1341 1.374 . S
C1343 C1340 1.499 . S
C1343 C1344 1.373 . S
C1343 C1345 1.389 . S
C1344 H1317 0.950 . S
C1344 C1330 1.377 . S
C1344 C1343 1.373 . S
C1345 C1329 1.377 . S
C1345 C1343 1.389 . S
C1345 C1346 1.524 . S
C1346 C1345 1.524 . S
C1346 C1347 1.397 . S
C1346 C1351 1.363 . S
C1347 H1318 0.950 . S
C1347 C1346 1.397 . S
C1347 C1348 1.334 . S
C1348 H1319 0.950 . S
C1348 C1347 1.334 . S
C1348 C1349 1.287 . S
C1349 C1348 1.287 . S
C1349 C1350 1.524 . S
C1349 H1352 0.999 . S
C1350 H1320 0.950 . S
C1350 C1349 1.524 . S
C1350 C1351 1.415 . S
C1351 H1321 0.950 . S
C1351 C1346 1.363 . S
C1351 C1350 1.415 . S
H1352 C1349 0.999 . S
H1353 C1334 0.913 . S
H1354 C1372 0.951 . S
H1355 C1374 0.951 . S
H1356 C1376 0.950 . S
H1357 C1377 0.950 . S
H1358 C1379 0.950 . S
H1359 C1382 0.950 . S
H1360 C1383 0.950 . S
H1361 C1385 0.950 . S
H1362 C1386 0.950 . S
H1363 C1387 0.955 . S
H1364 C1389 0.951 . S
H1365 C1391 0.950 . S
H1366 C1392 0.950 . S
H1367 C1394 0.950 . S
H1368 C1397 0.950 . S
H1369 C1398 0.950 . S
H1370 C1400 0.950 . S
H1371 C1401 0.950 . S
C1372 H1354 0.951 . S
C1372 C1373 1.366 . S
C1372 C1374 1.388 . S
C1373 C1372 1.366 . S
C1373 C1377 1.385 . S
C1374 H1355 0.951 . S
C1374 C1372 1.388 . S
C1374 C1375 1.366 . S
C1375 C1374 1.366 . S
C1375 C1376 1.414 . S
C1375 C1378 1.499 . S
C1376 H1356 0.950 . S
C1376 C1375 1.414 . S
C1376 C1377 1.374 . S
C1377 H1357 0.950 . S
C1377 C1373 1.385 . S
C1377 C1376 1.374 . S
C1378 C1375 1.499 . S
C1378 C1379 1.373 . S
C1378 C1380 1.389 . S
C1379 H1358 0.950 . S
C1379 C1378 1.373 . S
C1379 C1395 1.377 . S
C1380 C1378 1.389 . S
C1380 C1381 1.524 . S
C1380 C1394 1.377 . S
C1381 C1380 1.524 . S
C1381 C1382 1.397 . S
C1381 C1386 1.363 . S
C1382 H1359 0.950 . S
C1382 C1381 1.397 . S
C1382 C1383 1.334 . S
C1383 H1360 0.950 . S
C1383 C1382 1.334 . S
C1383 C1384 1.287 . S
C1384 C1383 1.287 . S
C1384 C1385 1.524 . S
C1384 H1403 0.913 . S
C1385 H1361 0.950 . S
C1385 C1384 1.524 . S
C1385 C1386 1.415 . S
C1386 H1362 0.950 . S
C1386 C1381 1.363 . S
C1386 C1385 1.415 . S
C1387 H1363 0.955 . S
C1387 C1388 1.366 . S
C1387 C1389 1.388 . S
C1388 C1387 1.366 . S
C1388 C1392 1.385 . S
C1389 H1364 0.951 . S
C1389 C1387 1.388 . S
C1389 C1390 1.366 . S
C1390 C1389 1.366 . S
C1390 C1391 1.414 . S
C1390 C1393 1.499 . S
C1391 H1365 0.950 . S
C1391 C1390 1.414 . S
C1391 C1392 1.374 . S
C1392 H1366 0.950 . S
C1392 C1388 1.385 . S
C1392 C1391 1.374 . S
C1393 C1390 1.499 . S
C1393 C1394 1.373 . S
C1393 C1395 1.389 . S
C1394 H1367 0.950 . S
C1394 C1380 1.377 . S
C1394 C1393 1.373 . S
C1395 C1379 1.377 . S
C1395 C1393 1.389 . S
C1395 C1396 1.524 . S
C1396 C1395 1.524 . S
C1396 C1397 1.397 . S
C1396 C1401 1.363 . S
C1397 H1368 0.950 . S
C1397 C1396 1.397 . S
C1397 C1398 1.334 . S
C1398 H1369 0.950 . S
C1398 C1397 1.334 . S
C1398 C1399 1.268 1_545 S
C1399 C1398 1.268 1_565 S
C1399 C1400 1.529 . S
C1399 H1402 1.015 . S
C1400 H1370 0.950 . S
C1400 C1399 1.529 . S
C1400 C1401 1.415 1_565 S
C1401 H1371 0.950 . S
C1401 C1396 1.363 . S
C1401 C1400 1.415 1_545 S
H1402 C1399 1.015 . S
H1403 C1384 0.913 . S
H1404 C1422 0.951 . S
H1405 C1424 0.951 . S
H1406 C1426 0.950 1_545 S
H1407 C1427 0.950 1_545 S
H1408 C1429 0.950 . S
H1409 C1432 0.950 . S
H1410 C1433 0.950 . S
H1411 C1435 0.950 . S
H1412 C1436 0.950 . S
H1413 C1437 0.951 . S
H1414 C1439 0.951 . S
H1415 C1441 0.950 . S
H1416 C1442 0.950 . S
H1417 C1444 0.950 . S
H1418 C1447 0.950 . S
H1419 C1448 0.950 . S
H1420 C1450 0.950 . S
H1421 C1451 0.950 . S
C1422 H1404 0.951 . S
C1422 C1423 1.366 . S
C1422 C1424 1.388 . S
C1423 C1422 1.366 . S
C1423 C1427 1.385 . S
C1424 H1405 0.951 . S
C1424 C1422 1.388 . S
C1424 C1425 1.366 . S
C1425 C1424 1.366 . S
C1425 C1426 1.414 . S
C1425 C1428 1.499 . S
C1426 H1406 0.950 1_565 S
C1426 C1425 1.414 . S
C1426 C1427 1.374 . S
C1427 H1407 0.950 1_565 S
C1427 C1423 1.385 . S
C1427 C1426 1.374 . S
C1428 C1425 1.499 . S
C1428 C1429 1.373 . S
C1428 C1430 1.389 . S
C1429 H1408 0.950 . S
C1429 C1428 1.373 . S
C1429 C1445 1.377 . S
C1430 C1428 1.389 . S
C1430 C1431 1.524 . S
C1430 C1444 1.377 . S
C1431 C1430 1.524 . S
C1431 C1432 1.397 . S
C1431 C1436 1.363 . S
C1432 H1409 0.950 . S
C1432 C1431 1.397 . S
C1432 C1433 1.334 . S
C1433 H1410 0.950 . S
C1433 C1432 1.334 . S
C1433 C1434 1.287 . S
C1434 C1433 1.287 . S
C1434 C1435 1.524 . S
C1434 H1453 0.913 . S
C1435 H1411 0.950 . S
C1435 C1434 1.524 . S
C1435 C1436 1.415 . S
C1436 H1412 0.950 . S
C1436 C1431 1.363 . S
C1436 C1435 1.415 . S
C1437 H1413 0.951 . S
C1437 C1438 1.366 . S
C1437 C1439 1.388 . S
C1438 C1437 1.366 . S
C1438 C1442 1.385 . S
C1439 H1414 0.951 . S
C1439 C1437 1.388 . S
C1439 C1440 1.366 . S
C1440 C1439 1.366 . S
C1440 C1441 1.414 . S
C1440 C1443 1.499 . S
C1441 H1415 0.950 . S
C1441 C1440 1.414 . S
C1441 C1442 1.374 . S
C1442 H1416 0.950 . S
C1442 C1438 1.385 . S
C1442 C1441 1.374 . S
C1443 C1440 1.499 . S
C1443 C1444 1.373 . S
C1443 C1445 1.389 . S
C1444 H1417 0.950 . S
C1444 C1430 1.377 . S
C1444 C1443 1.373 . S
C1445 C1429 1.377 . S
C1445 C1443 1.389 . S
C1445 C1446 1.524 . S
C1446 C1445 1.524 . S
C1446 C1447 1.397 . S
C1446 C1451 1.363 1_565 S
C1447 H1418 0.950 . S
C1447 C1446 1.397 . S
C1447 C1448 1.334 . S
C1448 H1419 0.950 . S
C1448 C1447 1.334 . S
C1448 C1449 1.287 1_565 S
C1449 C1448 1.287 1_545 S
C1449 C1450 1.524 . S
C1449 H1452 0.999 . S
C1450 H1420 0.950 . S
C1450 C1449 1.524 . S
C1450 C1451 1.415 . S
C1451 H1421 0.950 . S
C1451 C1446 1.363 1_545 S
C1451 C1450 1.415 . S
H1452 C1449 0.999 . S
H1453 C1434 0.913 . S
H1454 C1472 0.951 . S
H1455 C1474 0.951 . S
H1456 C1476 0.950 . S
H1457 C1477 0.950 . S
H1458 C1479 0.950 . S
H1459 C1482 0.950 . S
H1460 C1483 0.950 . S
H1461 C1485 0.950 . S
H1462 C1486 0.950 . S
H1463 C1487 0.951 . S
H1464 C1489 0.951 . S
H1465 C1491 0.950 . S
H1466 C1492 0.950 . S
H1467 C1494 0.950 . S
H1468 C1497 0.950 . S
H1469 C1498 0.950 . S
H1470 C1500 0.950 . S
H1471 C1501 0.950 . S
C1472 H1454 0.951 . S
C1472 C1473 1.366 . S
C1472 C1474 1.388 . S
C1473 C1472 1.366 . S
C1473 C1477 1.385 . S
C1474 H1455 0.951 . S
C1474 C1472 1.388 . S
C1474 C1475 1.366 . S
C1475 C1474 1.366 . S
C1475 C1476 1.414 . S
C1475 C1478 1.499 . S
C1476 H1456 0.950 . S
C1476 C1475 1.414 . S
C1476 C1477 1.374 . S
C1477 H1457 0.950 . S
C1477 C1473 1.385 . S
C1477 C1476 1.374 . S
C1478 C1475 1.499 . S
C1478 C1479 1.373 . S
C1478 C1480 1.389 . S
C1479 H1458 0.950 . S
C1479 C1478 1.373 . S
C1479 C1495 1.377 . S
C1480 C1478 1.389 . S
C1480 C1481 1.524 . S
C1480 C1494 1.377 . S
C1481 C1480 1.524 . S
C1481 C1482 1.397 . S
C1481 C1486 1.363 . S
C1482 H1459 0.950 . S
C1482 C1481 1.397 . S
C1482 C1483 1.334 . S
C1483 H1460 0.950 . S
C1483 C1482 1.334 . S
C1483 C1484 1.287 . S
C1484 C1483 1.287 . S
C1484 C1485 1.524 . S
C1484 H1503 0.913 . S
C1485 H1461 0.950 . S
C1485 C1484 1.524 . S
C1485 C1486 1.415 . S
C1486 H1462 0.950 . S
C1486 C1481 1.363 . S
C1486 C1485 1.415 . S
C1487 H1463 0.951 . S
C1487 C1488 1.366 . S
C1487 C1489 1.388 . S
C1488 C1487 1.366 . S
C1488 C1492 1.385 . S
C1489 H1464 0.951 . S
C1489 C1487 1.388 . S
C1489 C1490 1.366 . S
C1490 C1489 1.366 . S
C1490 C1491 1.414 . S
C1490 C1493 1.499 . S
C1491 H1465 0.950 . S
C1491 C1490 1.414 . S
C1491 C1492 1.374 . S
C1492 H1466 0.950 . S
C1492 C1488 1.385 . S
C1492 C1491 1.374 . S
C1493 C1490 1.499 . S
C1493 C1494 1.373 . S
C1493 C1495 1.389 . S
C1494 H1467 0.950 . S
C1494 C1480 1.377 . S
C1494 C1493 1.373 . S
C1495 C1479 1.377 . S
C1495 C1493 1.389 . S
C1495 C1496 1.524 . S
C1496 C1495 1.524 . S
C1496 C1497 1.397 . S
C1496 C1501 1.363 . S
C1497 H1468 0.950 . S
C1497 C1496 1.397 . S
C1497 C1498 1.334 . S
C1498 H1469 0.950 . S
C1498 C1497 1.334 . S
C1498 C1499 1.287 . S
C1499 C1498 1.287 . S
C1499 C1500 1.524 1_455 S
C1499 H1502 0.999 1_455 S
C1500 H1470 0.950 . S
C1500 C1499 1.524 1_655 S
C1500 C1501 1.415 1_655 S
C1501 H1471 0.950 . S
C1501 C1496 1.363 . S
C1501 C1500 1.415 1_455 S
H1502 C1499 0.999 1_655 S
H1503 C1484 0.913 . S
H1504 C1522 0.951 . S
H1505 C1524 0.951 . S
H1506 C1526 0.950 . S
H1507 C1527 0.950 . S
H1508 C1529 0.950 . S
H1509 C1532 0.950 . S
H1510 C1533 0.950 . S
H1511 C1535 0.950 . S
H1512 C1536 0.950 . S
H1513 C1537 0.951 . S
H1514 C1539 0.951 . S
H1515 C1541 0.950 . S
H1516 C1542 0.950 . S
H1517 C1544 0.950 . S
H1518 C1547 0.950 . S
H1519 C1548 0.950 . S
H1520 C1550 0.950 . S
H1521 C1551 0.950 . S
C1522 H1504 0.951 . S
C1522 C1523 1.366 . S
C1522 C1524 1.388 . S
C1523 C1522 1.366 . S
C1523 C1527 1.385 . S
C1524 H1505 0.951 . S
C1524 C1522 1.388 . S
C1524 C1525 1.366 . S
C1525 C1524 1.366 . S
C1525 C1526 1.414 . S
C1525 C1528 1.499 . S
C1526 H1506 0.950 . S
C1526 C1525 1.414 . S
C1526 C1527 1.374 . S
C1527 H1507 0.950 . S
C1527 C1523 1.385 . S
C1527 C1526 1.374 . S
C1528 C1525 1.499 . S
C1528 C1529 1.373 . S
C1528 C1530 1.389 . S
C1529 H1508 0.950 . S
C1529 C1528 1.373 . S
C1529 C1545 1.377 . S
C1530 C1528 1.389 . S
C1530 C1531 1.524 . S
C1530 C1544 1.377 . S
C1531 C1530 1.524 . S
C1531 C1532 1.397 . S
C1531 C1536 1.363 . S
C1532 H1509 0.950 . S
C1532 C1531 1.397 . S
C1532 C1533 1.334 . S
C1533 H1510 0.950 . S
C1533 C1532 1.334 . S
C1533 C1534 1.287 . S
C1534 C1533 1.287 . S
C1534 C1535 1.524 . S
C1534 H1553 0.913 . S
C1535 H1511 0.950 . S
C1535 C1534 1.524 . S
C1535 C1536 1.415 . S
C1536 H1512 0.950 . S
C1536 C1531 1.363 . S
C1536 C1535 1.415 . S
C1537 H1513 0.951 . S
C1537 C1538 1.366 . S
C1537 C1539 1.388 . S
C1538 C1537 1.366 . S
C1538 C1542 1.385 . S
C1539 H1514 0.951 . S
C1539 C1537 1.388 . S
C1539 C1540 1.366 . S
C1540 C1539 1.366 . S
C1540 C1541 1.414 . S
C1540 C1543 1.499 . S
C1541 H1515 0.950 . S
C1541 C1540 1.414 . S
C1541 C1542 1.374 . S
C1542 H1516 0.950 . S
C1542 C1538 1.385 . S
C1542 C1541 1.374 . S
C1543 C1540 1.499 . S
C1543 C1544 1.373 . S
C1543 C1545 1.389 . S
C1544 H1517 0.950 . S
C1544 C1530 1.377 . S
C1544 C1543 1.373 . S
C1545 C1529 1.377 . S
C1545 C1543 1.389 . S
C1545 C1546 1.524 . S
C1546 C1545 1.524 . S
C1546 C1547 1.397 . S
C1546 C1551 1.363 . S
C1547 H1518 0.950 . S
C1547 C1546 1.397 . S
C1547 C1548 1.334 . S
C1548 H1519 0.950 . S
C1548 C1547 1.334 . S
C1548 C1549 1.287 . S
C1549 C1548 1.287 . S
C1549 C1550 1.524 . S
C1549 H1552 0.999 . S
C1550 H1520 0.950 . S
C1550 C1549 1.524 . S
C1550 C1551 1.415 . S
C1551 H1521 0.950 . S
C1551 C1546 1.363 . S
C1551 C1550 1.415 . S
H1552 C1549 0.999 . S
H1553 C1534 0.913 . S
H1554 C1572 0.951 . S
H1555 C1574 0.951 . S
H1556 C1576 0.950 . S
H1557 C1577 0.950 . S
H1558 C1579 0.950 . S
H1559 C1582 0.950 . S
H1560 C1583 0.950 . S
H1561 C1585 0.950 . S
H1562 C1586 0.950 . S
H1563 C1587 0.951 . S
H1564 C1589 0.951 . S
H1565 C1591 0.950 . S
H1566 C1592 0.950 . S
H1567 C1594 0.950 . S
H1568 C1597 0.950 . S
H1569 C1598 0.950 . S
H1570 C1600 0.950 . S
H1571 C1601 0.950 . S
C1572 H1554 0.951 . S
C1572 C1573 1.366 . S
C1572 C1574 1.388 . S
C1573 C1572 1.366 . S
C1573 C1577 1.385 . S
C1574 H1555 0.951 . S
C1574 C1572 1.388 . S
C1574 C1575 1.366 . S
C1575 C1574 1.366 . S
C1575 C1576 1.414 . S
C1575 C1578 1.499 . S
C1576 H1556 0.950 . S
C1576 C1575 1.414 . S
C1576 C1577 1.374 . S
C1577 H1557 0.950 . S
C1577 C1573 1.385 . S
C1577 C1576 1.374 . S
C1578 C1575 1.499 . S
C1578 C1579 1.373 . S
C1578 C1580 1.389 . S
C1579 H1558 0.950 . S
C1579 C1578 1.373 . S
C1579 C1595 1.377 . S
C1580 C1578 1.389 . S
C1580 C1581 1.524 . S
C1580 C1594 1.377 . S
C1581 C1580 1.524 . S
C1581 C1582 1.397 . S
C1581 C1586 1.363 . S
C1582 H1559 0.950 . S
C1582 C1581 1.397 . S
C1582 C1583 1.334 . S
C1583 H1560 0.950 . S
C1583 C1582 1.334 . S
C1583 C1584 1.287 . S
C1584 C1583 1.287 . S
C1584 C1585 1.524 . S
C1584 H1603 0.913 . S
C1585 H1561 0.950 . S
C1585 C1584 1.524 . S
C1585 C1586 1.415 . S
C1586 H1562 0.950 . S
C1586 C1581 1.363 . S
C1586 C1585 1.415 . S
C1587 H1563 0.951 . S
C1587 C1588 1.366 . S
C1587 C1589 1.388 . S
C1588 C1587 1.366 . S
C1588 C1592 1.385 . S
C1589 H1564 0.951 . S
C1589 C1587 1.388 . S
C1589 C1590 1.366 . S
C1590 C1589 1.366 . S
C1590 C1591 1.414 . S
C1590 C1593 1.499 . S
C1591 H1565 0.950 . S
C1591 C1590 1.414 . S
C1591 C1592 1.374 . S
C1592 H1566 0.950 . S
C1592 C1588 1.385 . S
C1592 C1591 1.374 . S
C1593 C1590 1.499 . S
C1593 C1594 1.373 . S
C1593 C1595 1.389 . S
C1594 H1567 0.950 . S
C1594 C1580 1.377 . S
C1594 C1593 1.373 . S
C1595 C1579 1.377 . S
C1595 C1593 1.389 . S
C1595 C1596 1.524 . S
C1596 C1595 1.524 . S
C1596 C1597 1.397 . S
C1596 C1601 1.363 . S
C1597 H1568 0.950 . S
C1597 C1596 1.397 . S
C1597 C1598 1.334 . S
C1598 H1569 0.950 . S
C1598 C1597 1.334 . S
C1598 C1599 1.287 . S
C1599 C1598 1.287 . S
C1599 C1600 1.524 . S
C1599 H1602 0.999 . S
C1600 H1570 0.950 . S
C1600 C1599 1.524 . S
C1600 C1601 1.415 . S
C1601 H1571 0.950 . S
C1601 C1596 1.363 . S
C1601 C1600 1.415 . S
H1602 C1599 0.999 . S
H1603 C1584 0.913 . S
H1604 C1622 0.951 . S
H1605 C1624 0.951 . S
H1606 C1626 0.950 . S
H1607 C1627 0.950 . S
H1608 C1629 0.950 . S
H1609 C1632 0.950 . S
H1610 C1633 0.950 . S
H1611 C1635 0.950 . S
H1612 C1636 0.950 . S
H1613 C1637 0.951 . S
H1614 C1639 0.951 . S
H1615 C1641 0.950 1_545 S
H1616 C1642 0.950 . S
H1617 C1644 0.950 . S
H1618 C1647 0.950 . S
H1619 C1648 0.950 . S
H1620 C1650 0.950 . S
H1621 C1651 0.950 . S
C1622 H1604 0.951 . S
C1622 C1623 1.366 . S
C1622 C1624 1.388 . S
C1623 C1622 1.366 . S
C1623 C1627 1.385 . S
C1624 H1605 0.951 . S
C1624 C1622 1.388 . S
C1624 C1625 1.366 . S
C1625 C1624 1.366 . S
C1625 C1626 1.414 . S
C1625 C1628 1.499 . S
C1626 H1606 0.950 . S
C1626 C1625 1.414 . S
C1626 C1627 1.374 . S
C1627 H1607 0.950 . S
C1627 C1623 1.385 . S
C1627 C1626 1.374 . S
C1628 C1625 1.499 . S
C1628 C1629 1.373 1_545 S
C1628 C1630 1.389 . S
C1629 H1608 0.950 . S
C1629 C1628 1.373 1_565 S
C1629 C1645 1.377 . S
C1630 C1628 1.389 . S
C1630 C1631 1.524 . S
C1630 C1644 1.377 . S
C1631 C1630 1.524 . S
C1631 C1632 1.397 . S
C1631 C1636 1.363 . S
C1632 H1609 0.950 . S
C1632 C1631 1.397 . S
C1632 C1633 1.334 . S
C1633 H1610 0.950 . S
C1633 C1632 1.334 . S
C1633 C1634 1.287 . S
C1634 C1633 1.287 . S
C1634 C1635 1.524 . S
C1634 H1653 0.913 . S
C1635 H1611 0.950 . S
C1635 C1634 1.524 . S
C1635 C1636 1.415 . S
C1636 H1612 0.950 . S
C1636 C1631 1.363 . S
C1636 C1635 1.415 . S
C1637 H1613 0.951 . S
C1637 C1638 1.366 . S
C1637 C1639 1.388 . S
C1638 C1637 1.366 . S
C1638 C1642 1.385 . S
C1639 H1614 0.951 . S
C1639 C1637 1.388 . S
C1639 C1640 1.366 . S
C1640 C1639 1.366 . S
C1640 C1641 1.414 . S
C1640 C1643 1.499 . S
C1641 H1615 0.950 1_565 S
C1641 C1640 1.414 . S
C1641 C1642 1.374 . S
C1642 H1616 0.950 . S
C1642 C1638 1.385 . S
C1642 C1641 1.374 . S
C1643 C1640 1.499 . S
C1643 C1644 1.373 1_565 S
C1643 C1645 1.389 . S
C1644 H1617 0.950 . S
C1644 C1630 1.377 . S
C1644 C1643 1.373 1_545 S
C1645 C1629 1.377 . S
C1645 C1643 1.389 . S
C1645 C1646 1.524 . S
C1646 C1645 1.524 . S
C1646 C1647 1.397 . S
C1646 C1651 1.363 . S
C1647 H1618 0.950 . S
C1647 C1646 1.397 . S
C1647 C1648 1.334 . S
C1648 H1619 0.950 . S
C1648 C1647 1.334 . S
C1648 C1649 1.287 . S
C1649 C1648 1.287 . S
C1649 C1650 1.524 . S
C1649 H1652 0.999 . S
C1650 H1620 0.950 . S
C1650 C1649 1.524 . S
C1650 C1651 1.415 . S
C1651 H1621 0.950 . S
C1651 C1646 1.363 . S
C1651 C1650 1.415 . S
H1652 C1649 0.999 . S
H1653 C1634 0.913 . S
H1654 C1672 0.951 . S
H1655 C1674 0.951 . S
H1656 C1676 0.950 1_655 S
H1657 C1677 0.950 . S
H1658 C1679 0.956 1_655 S
H1659 C1682 0.950 . S
H1660 C1683 0.950 . S
H1661 C1685 0.950 . S
H1662 C1686 0.950 . S
H1663 C1687 0.951 . S
H1664 C1689 0.951 . S
H1665 C1691 0.950 . S
H1666 C1692 0.950 1_455 S
H1667 C1694 0.950 . S
H1668 C1697 0.950 . S
H1669 C1698 0.950 . S
H1670 C1700 0.950 . S
H1671 C1701 0.950 . S
C1672 H1654 0.951 . S
C1672 C1673 1.366 . S
C1672 C1674 1.388 . S
C1673 C1672 1.366 . S
C1673 C1677 1.385 . S
C1674 H1655 0.951 . S
C1674 C1672 1.388 . S
C1674 C1675 1.366 . S
C1675 C1674 1.366 . S
C1675 C1676 1.414 . S
C1675 C1678 1.499 . S
C1676 H1656 0.950 1_455 S
C1676 C1675 1.414 . S
C1676 C1677 1.374 . S
C1677 H1657 0.950 . S
C1677 C1673 1.385 . S
C1677 C1676 1.374 . S
C1678 C1675 1.499 . S
C1678 C1679 1.384 . S
C1678 C1680 1.389 . S
C1679 H1658 0.956 1_455 S
C1679 C1678 1.384 . S
C1679 C1695 1.364 1_455 S
C1680 C1678 1.389 . S
C1680 C1681 1.524 . S
C1680 C1694 1.377 . S
C1681 C1680 1.524 . S
C1681 C1682 1.397 . S
C1681 C1686 1.363 . S
C1682 H1659 0.950 . S
C1682 C1681 1.397 . S
C1682 C1683 1.334 . S
C1683 H1660 0.950 . S
C1683 C1682 1.334 . S
C1683 C1684 1.287 . S
C1684 C1683 1.287 . S
C1684 C1685 1.524 . S
C1684 H1703 0.913 . S
C1685 H1661 0.950 . S
C1685 C1684 1.524 . S
C1685 C1686 1.415 . S
C1686 H1662 0.950 . S
C1686 C1681 1.363 . S
C1686 C1685 1.415 . S
C1687 H1663 0.951 . S
C1687 C1688 1.366 . S
C1687 C1689 1.388 . S
C1688 C1687 1.366 . S
C1688 C1692 1.385 . S
C1689 H1664 0.951 . S
C1689 C1687 1.388 . S
C1689 C1690 1.366 . S
C1690 C1689 1.366 . S
C1690 C1691 1.414 1_655 S
C1690 C1693 1.518 . S
C1691 H1665 0.950 . S
C1691 C1690 1.414 1_455 S
C1691 C1692 1.374 1_455 S
C1692 H1666 0.950 1_655 S
C1692 C1688 1.385 . S
C1692 C1691 1.374 1_655 S
C1693 C1690 1.518 . S
C1693 C1694 1.365 1_655 S
C1693 C1695 1.385 . S
C1694 H1667 0.950 . S
C1694 C1680 1.377 . S
C1694 C1693 1.365 1_455 S
C1695 C1679 1.364 1_655 S
C1695 C1693 1.385 . S
C1695 C1696 1.524 . S
C1696 C1695 1.524 . S
C1696 C1697 1.397 . S
C1696 C1701 1.363 . S
C1697 H1668 0.950 . S
C1697 C1696 1.397 . S
C1697 C1698 1.334 . S
C1698 H1669 0.950 . S
C1698 C1697 1.334 . S
C1698 C1699 1.287 . S
C1699 C1698 1.287 . S
C1699 C1700 1.524 . S
C1699 H1702 0.999 . S
C1700 H1670 0.950 . S
C1700 C1699 1.524 . S
C1700 C1701 1.415 . S
C1701 H1671 0.950 . S
C1701 C1696 1.363 . S
C1701 C1700 1.415 . S
H1702 C1699 0.999 . S
H1703 C1684 0.913 . S
H1704 C1722 0.951 . S
H1705 C1724 0.951 . S
H1706 C1726 0.950 . S
H1707 C1727 0.950 . S
H1708 C1729 0.950 . S
H1709 C1732 0.950 . S
H1710 C1733 0.950 . S
H1711 C1735 0.950 . S
H1712 C1736 0.950 . S
H1713 C1737 0.951 . S
H1714 C1739 0.951 . S
H1715 C1741 0.950 . S
H1716 C1742 0.950 . S
H1717 C1744 0.950 . S
H1718 C1747 0.950 . S
H1719 C1748 0.950 . S
H1720 C1750 0.950 . S
H1721 C1751 0.950 . S
C1722 H1704 0.951 . S
C1722 C1723 1.366 . S
C1722 C1724 1.388 . S
C1723 C1722 1.366 . S
C1723 C1727 1.385 . S
C1724 H1705 0.951 . S
C1724 C1722 1.388 . S
C1724 C1725 1.366 . S
C1725 C1724 1.366 . S
C1725 C1726 1.414 . S
C1725 C1728 1.499 . S
C1726 H1706 0.950 . S
C1726 C1725 1.414 . S
C1726 C1727 1.374 . S
C1727 H1707 0.950 . S
C1727 C1723 1.385 . S
C1727 C1726 1.374 . S
C1728 C1725 1.499 . S
C1728 C1729 1.373 . S
C1728 C1730 1.389 . S
C1729 H1708 0.950 . S
C1729 C1728 1.373 . S
C1729 C1745 1.377 . S
C1730 C1728 1.389 . S
C1730 C1731 1.524 . S
C1730 C1744 1.377 . S
C1731 C1730 1.524 . S
C1731 C1732 1.397 . S
C1731 C1736 1.363 . S
C1732 H1709 0.950 . S
C1732 C1731 1.397 . S
C1732 C1733 1.334 . S
C1733 H1710 0.950 . S
C1733 C1732 1.334 . S
C1733 C1734 1.287 . S
C1734 C1733 1.287 . S
C1734 C1735 1.524 . S
C1734 H1753 0.913 . S
C1735 H1711 0.950 . S
C1735 C1734 1.524 . S
C1735 C1736 1.415 . S
C1736 H1712 0.950 . S
C1736 C1731 1.363 . S
C1736 C1735 1.415 . S
C1737 H1713 0.951 . S
C1737 C1738 1.366 . S
C1737 C1739 1.388 . S
C1738 C1737 1.366 . S
C1738 C1742 1.385 . S
C1739 H1714 0.951 . S
C1739 C1737 1.388 . S
C1739 C1740 1.366 . S
C1740 C1739 1.366 . S
C1740 C1741 1.414 . S
C1740 C1743 1.499 . S
C1741 H1715 0.950 . S
C1741 C1740 1.414 . S
C1741 C1742 1.374 . S
C1742 H1716 0.950 . S
C1742 C1738 1.385 . S
C1742 C1741 1.374 . S
C1743 C1740 1.499 . S
C1743 C1744 1.373 . S
C1743 C1745 1.389 . S
C1744 H1717 0.950 . S
C1744 C1730 1.377 . S
C1744 C1743 1.373 . S
C1745 C1729 1.377 . S
C1745 C1743 1.389 . S
C1745 C1746 1.524 . S
C1746 C1745 1.524 . S
C1746 C1747 1.397 . S
C1746 C1751 1.363 . S
C1747 H1718 0.950 . S
C1747 C1746 1.397 . S
C1747 C1748 1.334 . S
C1748 H1719 0.950 . S
C1748 C1747 1.334 . S
C1748 C1749 1.287 . S
C1749 C1748 1.287 . S
C1749 C1750 1.524 . S
C1749 H1752 0.999 . S
C1750 H1720 0.950 . S
C1750 C1749 1.524 . S
C1750 C1751 1.415 . S
C1751 H1721 0.950 . S
C1751 C1746 1.363 . S
C1751 C1750 1.415 . S
H1752 C1749 0.999 . S
H1753 C1734 0.913 . S
H1754 C1772 0.951 . S
H1755 C1774 0.951 . S
H1756 C1776 0.950 . S
H1757 C1777 0.950 . S
H1758 C1779 0.950 . S
H1759 C1782 0.950 . S
H1760 C1783 0.950 . S
H1761 C1785 0.950 . S
H1762 C1786 0.950 . S
H1763 C1787 0.951 . S
H1764 C1789 0.951 . S
H1765 C1791 0.950 1_545 S
H1766 C1792 0.950 . S
H1767 C1794 0.950 . S
H1768 C1797 0.950 . S
H1769 C1798 0.950 . S
H1770 C1800 0.950 . S
H1771 C1801 0.950 . S
C1772 H1754 0.951 . S
C1772 C1773 1.366 . S
C1772 C1774 1.388 . S
C1773 C1772 1.366 . S
C1773 C1777 1.385 . S
C1774 H1755 0.951 . S
C1774 C1772 1.388 . S
C1774 C1775 1.366 . S
C1775 C1774 1.366 . S
C1775 C1776 1.414 . S
C1775 C1778 1.499 . S
C1776 H1756 0.950 . S
C1776 C1775 1.414 . S
C1776 C1777 1.374 . S
C1777 H1757 0.950 . S
C1777 C1773 1.385 . S
C1777 C1776 1.374 . S
C1778 C1775 1.499 . S
C1778 C1779 1.373 . S
C1778 C1780 1.389 . S
C1779 H1758 0.950 . S
C1779 C1778 1.373 . S
C1779 C1795 1.377 1_545 S
C1780 C1778 1.389 . S
C1780 C1781 1.524 . S
C1780 C1794 1.377 . S
C1781 C1780 1.524 . S
C1781 C1782 1.397 . S
C1781 C1786 1.363 . S
C1782 H1759 0.950 . S
C1782 C1781 1.397 . S
C1782 C1783 1.334 . S
C1783 H1760 0.950 . S
C1783 C1782 1.334 . S
C1783 C1784 1.287 . S
C1784 C1783 1.287 . S
C1784 C1785 1.524 . S
C1784 H1803 0.913 . S
C1785 H1761 0.950 . S
C1785 C1784 1.524 . S
C1785 C1786 1.415 . S
C1786 H1762 0.950 . S
C1786 C1781 1.363 . S
C1786 C1785 1.415 . S
C1787 H1763 0.951 . S
C1787 C1788 1.366 . S
C1787 C1789 1.388 . S
C1788 C1787 1.366 . S
C1788 C1792 1.385 . S
C1789 H1764 0.951 . S
C1789 C1787 1.388 . S
C1789 C1790 1.366 . S
C1790 C1789 1.366 . S
C1790 C1791 1.414 . S
C1790 C1793 1.499 . S
C1791 H1765 0.950 1_565 S
C1791 C1790 1.414 . S
C1791 C1792 1.374 . S
C1792 H1766 0.950 . S
C1792 C1788 1.385 . S
C1792 C1791 1.374 . S
C1793 C1790 1.499 . S
C1793 C1794 1.373 1_565 S
C1793 C1795 1.389 . S
C1794 H1767 0.950 . S
C1794 C1780 1.377 . S
C1794 C1793 1.373 1_545 S
C1795 C1779 1.377 1_565 S
C1795 C1793 1.389 . S
C1795 C1796 1.524 . S
C1796 C1795 1.524 . S
C1796 C1797 1.397 . S
C1796 C1801 1.363 . S
C1797 H1768 0.950 . S
C1797 C1796 1.397 . S
C1797 C1798 1.334 . S
C1798 H1769 0.950 . S
C1798 C1797 1.334 . S
C1798 C1799 1.287 . S
C1799 C1798 1.287 . S
C1799 C1800 1.524 . S
C1799 H1802 0.999 . S
C1800 H1770 0.950 . S
C1800 C1799 1.524 . S
C1800 C1801 1.415 . S
C1801 H1771 0.950 . S
C1801 C1796 1.363 . S
C1801 C1800 1.415 . S
H1802 C1799 0.999 . S
H1803 C1784 0.913 . S
H1804 C1822 0.951 . S
H1805 C1824 0.951 . S
H1806 C1826 0.950 . S
H1807 C1827 0.950 . S
H1808 C1829 0.950 . S
H1809 C1832 0.950 . S
H1810 C1833 0.950 . S
H1811 C1835 0.950 . S
H1812 C1836 0.950 . S
H1813 C1837 0.951 . S
H1814 C1839 0.951 . S
H1815 C1841 0.974 . S
H1816 C1842 0.950 . S
H1817 C1844 0.950 . S
H1818 C1847 0.950 . S
H1819 C1848 0.950 . S
H1820 C1850 0.950 . S
H1821 C1851 0.950 . S
C1822 H1804 0.951 . S
C1822 C1823 1.366 . S
C1822 C1824 1.388 . S
C1823 C1822 1.366 . S
C1823 C1827 1.385 . S
C1824 H1805 0.951 . S
C1824 C1822 1.388 . S
C1824 C1825 1.366 . S
C1825 C1824 1.366 . S
C1825 C1826 1.414 . S
C1825 C1828 1.499 . S
C1826 H1806 0.950 . S
C1826 C1825 1.414 . S
C1826 C1827 1.374 . S
C1827 H1807 0.950 . S
C1827 C1823 1.385 . S
C1827 C1826 1.374 . S
C1828 C1825 1.499 . S
C1828 C1829 1.373 1_455 S
C1828 C1830 1.389 . S
C1829 H1808 0.950 . S
C1829 C1828 1.373 1_655 S
C1829 C1845 1.377 . S
C1830 C1828 1.389 . S
C1830 C1831 1.524 . S
C1830 C1844 1.377 . S
C1831 C1830 1.524 . S
C1831 C1832 1.397 . S
C1831 C1836 1.363 . S
C1832 H1809 0.950 . S
C1832 C1831 1.397 . S
C1832 C1833 1.334 . S
C1833 H1810 0.950 . S
C1833 C1832 1.334 . S
C1833 C1834 1.287 . S
C1834 C1833 1.287 . S
C1834 C1835 1.524 . S
C1834 H1853 0.913 . S
C1835 H1811 0.950 . S
C1835 C1834 1.524 . S
C1835 C1836 1.415 . S
C1836 H1812 0.950 . S
C1836 C1831 1.363 . S
C1836 C1835 1.415 . S
C1837 H1813 0.951 . S
C1837 C1838 1.366 . S
C1837 C1839 1.388 . S
C1838 C1837 1.366 . S
C1838 C1842 1.385 . S
C1839 H1814 0.951 . S
C1839 C1837 1.388 . S
C1839 C1840 1.366 . S
C1840 C1839 1.366 . S
C1840 C1841 1.414 . S
C1840 C1843 1.499 . S
C1841 H1815 0.974 . S
C1841 C1840 1.414 . S
C1841 C1842 1.374 . S
C1842 H1816 0.950 . S
C1842 C1838 1.385 . S
C1842 C1841 1.374 . S
C1843 C1840 1.499 . S
C1843 C1844 1.373 1_655 S
C1843 C1845 1.389 . S
C1844 H1817 0.950 . S
C1844 C1830 1.377 . S
C1844 C1843 1.373 1_455 S
C1845 C1829 1.377 . S
C1845 C1843 1.389 . S
C1845 C1846 1.524 . S
C1846 C1845 1.524 . S
C1846 C1847 1.397 . S
C1846 C1851 1.363 . S
C1847 H1818 0.950 . S
C1847 C1846 1.397 . S
C1847 C1848 1.334 . S
C1848 H1819 0.950 . S
C1848 C1847 1.334 . S
C1848 C1849 1.287 . S
C1849 C1848 1.287 . S
C1849 C1850 1.524 . S
C1849 H1852 0.999 . S
C1850 H1820 0.950 . S
C1850 C1849 1.524 . S
C1850 C1851 1.415 . S
C1851 H1821 0.950 . S
C1851 C1846 1.363 . S
C1851 C1850 1.415 . S
H1852 C1849 0.999 . S
H1853 C1834 0.913 . S
H1854 C1872 0.951 . S
H1855 C1874 0.951 . S
H1856 C1876 0.950 . S
H1857 C1877 0.950 . S
H1858 C1879 0.950 . S
H1859 C1882 0.950 . S
H1860 C1883 0.950 . S
H1861 C1885 0.950 . S
H1862 C1886 0.950 . S
H1863 C1887 0.951 . S
H1864 C1889 0.951 . S
H1865 C1891 0.950 . S
H1866 C1892 0.950 . S
H1867 C1894 0.950 . S
H1868 C1897 0.950 . S
H1869 C1898 0.950 . S
H1870 C1900 0.950 . S
H1871 C1901 0.950 . S
C1872 H1854 0.951 . S
C1872 C1873 1.366 . S
C1872 C1874 1.388 . S
C1873 C1872 1.366 . S
C1873 C1877 1.385 . S
C1874 H1855 0.951 . S
C1874 C1872 1.388 . S
C1874 C1875 1.366 . S
C1875 C1874 1.366 . S
C1875 C1876 1.414 . S
C1875 C1878 1.499 . S
C1876 H1856 0.950 . S
C1876 C1875 1.414 . S
C1876 C1877 1.374 . S
C1877 H1857 0.950 . S
C1877 C1873 1.385 . S
C1877 C1876 1.374 . S
C1878 C1875 1.499 . S
C1878 C1879 1.373 . S
C1878 C1880 1.389 . S
C1879 H1858 0.950 . S
C1879 C1878 1.373 . S
C1879 C1895 1.377 . S
C1880 C1878 1.389 . S
C1880 C1881 1.524 . S
C1880 C1894 1.377 . S
C1881 C1880 1.524 . S
C1881 C1882 1.397 . S
C1881 C1886 1.363 . S
C1882 H1859 0.950 . S
C1882 C1881 1.397 . S
C1882 C1883 1.334 . S
C1883 H1860 0.950 . S
C1883 C1882 1.334 . S
C1883 C1884 1.287 . S
C1884 C1883 1.287 . S
C1884 C1885 1.524 . S
C1884 H1903 0.913 . S
C1885 H1861 0.950 . S
C1885 C1884 1.524 . S
C1885 C1886 1.415 . S
C1886 H1862 0.950 . S
C1886 C1881 1.363 . S
C1886 C1885 1.415 . S
C1887 H1863 0.951 . S
C1887 C1888 1.366 . S
C1887 C1889 1.388 . S
C1888 C1887 1.366 . S
C1888 C1892 1.385 . S
C1889 H1864 0.951 . S
C1889 C1887 1.388 . S
C1889 C1890 1.366 . S
C1890 C1889 1.366 . S
C1890 C1891 1.414 . S
C1890 C1893 1.499 . S
C1891 H1865 0.950 . S
C1891 C1890 1.414 . S
C1891 C1892 1.374 . S
C1892 H1866 0.950 . S
C1892 C1888 1.385 . S
C1892 C1891 1.374 . S
C1893 C1890 1.499 . S
C1893 C1894 1.373 . S
C1893 C1895 1.389 . S
C1894 H1867 0.950 . S
C1894 C1880 1.377 . S
C1894 C1893 1.373 . S
C1895 C1879 1.377 . S
C1895 C1893 1.389 . S
C1895 C1896 1.524 . S
C1896 C1895 1.524 . S
C1896 C1897 1.397 . S
C1896 C1901 1.363 . S
C1897 H1868 0.950 . S
C1897 C1896 1.397 . S
C1897 C1898 1.334 . S
C1898 H1869 0.950 . S
C1898 C1897 1.334 . S
C1898 C1899 1.287 . S
C1899 C1898 1.287 . S
C1899 C1900 1.524 . S
C1899 H1902 0.999 . S
C1900 H1870 0.950 . S
C1900 C1899 1.524 . S
C1900 C1901 1.415 . S
C1901 H1871 0.950 . S
C1901 C1896 1.363 . S
C1901 C1900 1.415 . S
H1902 C1899 0.999 . S
H1903 C1884 0.913 . S
H1904 C1922 0.951 . S
H1905 C1924 0.951 . S
H1906 C1926 0.950 . S
H1907 C1927 0.950 . S
H1908 C1929 0.950 . S
H1909 C1932 0.950 . S
H1910 C1933 0.950 . S
H1911 C1935 0.950 . S
H1912 C1936 0.950 . S
H1913 C1937 0.951 . S
H1914 C1939 0.951 . S
H1915 C1941 0.950 . S
H1916 C1942 0.950 . S
H1917 C1944 0.950 . S
H1918 C1947 0.950 . S
H1919 C1948 0.950 . S
H1920 C1950 0.950 . S
H1921 C1951 0.950 . S
C1922 H1904 0.951 . S
C1922 C1923 1.366 . S
C1922 C1924 1.388 . S
C1923 C1922 1.366 . S
C1923 C1927 1.385 . S
C1924 H1905 0.951 . S
C1924 C1922 1.388 . S
C1924 C1925 1.366 . S
C1925 C1924 1.366 . S
C1925 C1926 1.414 . S
C1925 C1928 1.499 . S
C1926 H1906 0.950 . S
C1926 C1925 1.414 . S
C1926 C1927 1.374 . S
C1927 H1907 0.950 . S
C1927 C1923 1.385 . S
C1927 C1926 1.374 . S
C1928 C1925 1.499 . S
C1928 C1929 1.373 . S
C1928 C1930 1.389 . S
C1929 H1908 0.950 . S
C1929 C1928 1.373 . S
C1929 C1945 1.377 . S
C1930 C1928 1.389 . S
C1930 C1931 1.524 . S
C1930 C1944 1.377 . S
C1931 C1930 1.524 . S
C1931 C1932 1.397 . S
C1931 C1936 1.363 . S
C1932 H1909 0.950 . S
C1932 C1931 1.397 . S
C1932 C1933 1.334 . S
C1933 H1910 0.950 . S
C1933 C1932 1.334 . S
C1933 C1934 1.287 . S
C1934 C1933 1.287 . S
C1934 C1935 1.524 . S
C1934 H1953 0.913 . S
C1935 H1911 0.950 . S
C1935 C1934 1.524 . S
C1935 C1936 1.415 . S
C1936 H1912 0.950 . S
C1936 C1931 1.363 . S
C1936 C1935 1.415 . S
C1937 H1913 0.951 . S
C1937 C1938 1.366 . S
C1937 C1939 1.388 . S
C1938 C1937 1.366 . S
C1938 C1942 1.385 . S
C1939 H1914 0.951 . S
C1939 C1937 1.388 . S
C1939 C1940 1.366 . S
C1940 C1939 1.366 . S
C1940 C1941 1.414 . S
C1940 C1943 1.499 . S
C1941 H1915 0.950 . S
C1941 C1940 1.414 . S
C1941 C1942 1.374 . S
C1942 H1916 0.950 . S
C1942 C1938 1.385 . S
C1942 C1941 1.374 . S
C1943 C1940 1.499 . S
C1943 C1944 1.373 . S
C1943 C1945 1.389 . S
C1944 H1917 0.950 . S
C1944 C1930 1.377 . S
C1944 C1943 1.373 . S
C1945 C1929 1.377 . S
C1945 C1943 1.389 . S
C1945 C1946 1.524 . S
C1946 C1945 1.524 . S
C1946 C1947 1.397 . S
C1946 C1951 1.363 . S
C1947 H1918 0.950 . S
C1947 C1946 1.397 . S
C1947 C1948 1.334 . S
C1948 H1919 0.950 . S
C1948 C1947 1.334 . S
C1948 C1949 1.287 . S
C1949 C1948 1.287 . S
C1949 C1950 1.524 . S
C1949 H1952 0.999 . S
C1950 H1920 0.950 . S
C1950 C1949 1.524 . S
C1950 C1951 1.415 . S
C1951 H1921 0.950 . S
C1951 C1946 1.363 . S
C1951 C1950 1.415 . S
H1952 C1949 0.999 . S
H1953 C1934 0.913 . S
H1954 C1972 0.951 . S
H1955 C1974 0.951 . S
H1956 C1976 0.950 . S
H1957 C1977 0.950 . S
H1958 C1979 0.950 . S
H1959 C1982 0.950 . S
H1960 C1983 0.950 . S
H1961 C1985 0.950 . S
H1962 C1986 0.950 . S
H1963 C1987 0.951 . S
H1964 C1989 0.951 . S
H1965 C1991 0.950 . S
H1966 C1992 0.950 . S
H1967 C1994 0.950 . S
H1968 C1997 0.950 . S
H1969 C1998 0.950 . S
H1970 C2000 0.950 . S
H1971 C2001 0.950 . S
C1972 H1954 0.951 . S
C1972 C1973 1.366 . S
C1972 C1974 1.388 . S
C1973 C1972 1.366 . S
C1973 C1977 1.385 . S
C1974 H1955 0.951 . S
C1974 C1972 1.388 . S
C1974 C1975 1.366 . S
C1975 C1974 1.366 . S
C1975 C1976 1.414 . S
C1975 C1978 1.499 . S
C1976 H1956 0.950 . S
C1976 C1975 1.414 . S
C1976 C1977 1.374 . S
C1977 H1957 0.950 . S
C1977 C1973 1.385 . S
C1977 C1976 1.374 . S
C1978 C1975 1.499 . S
C1978 C1979 1.373 . S
C1978 C1980 1.389 . S
C1979 H1958 0.950 . S
C1979 C1978 1.373 . S
C1979 C1995 1.377 . S
C1980 C1978 1.389 . S
C1980 C1981 1.524 . S
C1980 C1994 1.377 . S
C1981 C1980 1.524 . S
C1981 C1982 1.397 . S
C1981 C1986 1.363 . S
C1982 H1959 0.950 . S
C1982 C1981 1.397 . S
C1982 C1983 1.334 . S
C1983 H1960 0.950 . S
C1983 C1982 1.334 . S
C1983 C1984 1.287 . S
C1984 C1983 1.287 . S
C1984 C1985 1.524 . S
C1984 H2003 0.913 . S
C1985 H1961 0.950 . S
C1985 C1984 1.524 . S
C1985 C1986 1.415 . S
C1986 H1962 0.950 . S
C1986 C1981 1.363 . S
C1986 C1985 1.415 . S
C1987 H1963 0.951 . S
C1987 C1988 1.366 . S
C1987 C1989 1.388 . S
C1988 C1987 1.366 . S
C1988 C1992 1.385 . S
C1989 H1964 0.951 . S
C1989 C1987 1.388 . S
C1989 C1990 1.366 . S
C1990 C1989 1.366 . S
C1990 C1991 1.414 . S
C1990 C1993 1.499 . S
C1991 H1965 0.950 . S
C1991 C1990 1.414 . S
C1991 C1992 1.374 . S
C1992 H1966 0.950 . S
C1992 C1988 1.385 . S
C1992 C1991 1.374 . S
C1993 C1990 1.499 . S
C1993 C1994 1.373 . S
C1993 C1995 1.389 . S
C1994 H1967 0.950 . S
C1994 C1980 1.377 . S
C1994 C1993 1.373 . S
C1995 C1979 1.377 . S
C1995 C1993 1.389 . S
C1995 C1996 1.524 . S
C1996 C1995 1.524 . S
C1996 C1997 1.397 . S
C1996 C2001 1.363 . S
C1997 H1968 0.950 . S
C1997 C1996 1.397 . S
C1997 C1998 1.334 . S
C1998 H1969 0.950 . S
C1998 C1997 1.334 . S
C1998 C1999 1.287 . S
C1999 C1998 1.287 . S
C1999 C2000 1.524 . S
C1999 H2002 0.999 . S
C2000 H1970 0.950 . S
C2000 C1999 1.524 . S
C2000 C2001 1.415 . S
C2001 H1971 0.950 . S
C2001 C1996 1.363 . S
C2001 C2000 1.415 . S
H2002 C1999 0.999 . S
H2003 C1984 0.913 . S
H2004 C2022 0.951 . S
H2005 C2024 0.951 . S
H2006 C2026 0.950 . S
H2007 C2027 0.950 . S
H2008 C2029 0.950 . S
H2009 C2032 0.950 . S
H2010 C2033 0.950 . S
H2011 C2035 0.950 . S
H2012 C2036 0.950 . S
H2013 C2037 0.951 . S
H2014 C2039 0.951 . S
H2015 C2041 0.950 . S
H2016 C2042 0.950 . S
H2017 C2044 0.950 . S
H2018 C2047 0.950 . S
H2019 C2048 0.950 . S
H2020 C2050 0.950 . S
H2021 C2051 0.950 . S
C2022 H2004 0.951 . S
C2022 C2023 1.366 . S
C2022 C2024 1.388 . S
C2023 C2022 1.366 . S
C2023 C2027 1.385 . S
C2024 H2005 0.951 . S
C2024 C2022 1.388 . S
C2024 C2025 1.366 . S
C2025 C2024 1.366 . S
C2025 C2026 1.414 . S
C2025 C2028 1.499 . S
C2026 H2006 0.950 . S
C2026 C2025 1.414 . S
C2026 C2027 1.374 . S
C2027 H2007 0.950 . S
C2027 C2023 1.385 . S
C2027 C2026 1.374 . S
C2028 C2025 1.499 . S
C2028 C2029 1.373 . S
C2028 C2030 1.389 . S
C2029 H2008 0.950 . S
C2029 C2028 1.373 . S
C2029 C2045 1.377 . S
C2030 C2028 1.389 . S
C2030 C2031 1.524 . S
C2030 C2044 1.377 . S
C2031 C2030 1.524 . S
C2031 C2032 1.397 . S
C2031 C2036 1.363 . S
C2032 H2009 0.950 . S
C2032 C2031 1.397 . S
C2032 C2033 1.334 . S
C2033 H2010 0.950 . S
C2033 C2032 1.334 . S
C2033 C2034 1.287 . S
C2034 C2033 1.287 . S
C2034 C2035 1.524 . S
C2034 H2053 0.913 . S
C2035 H2011 0.950 . S
C2035 C2034 1.524 . S
C2035 C2036 1.415 . S
C2036 H2012 0.950 . S
C2036 C2031 1.363 . S
C2036 C2035 1.415 . S
C2037 H2013 0.951 . S
C2037 C2038 1.366 . S
C2037 C2039 1.388 . S
C2038 C2037 1.366 . S
C2038 C2042 1.385 . S
C2039 H2014 0.951 . S
C2039 C2037 1.388 . S
C2039 C2040 1.366 . S
C2040 C2039 1.366 . S
C2040 C2041 1.414 . S
C2040 C2043 1.499 . S
C2041 H2015 0.950 . S
C2041 C2040 1.414 . S
C2041 C2042 1.374 . S
C2042 H2016 0.950 . S
C2042 C2038 1.385 . S
C2042 C2041 1.374 . S
C2043 C2040 1.499 . S
C2043 C2044 1.373 . S
C2043 C2045 1.389 . S
C2044 H2017 0.950 . S
C2044 C2030 1.377 . S
C2044 C2043 1.373 . S
C2045 C2029 1.377 . S
C2045 C2043 1.389 . S
C2045 C2046 1.524 . S
C2046 C2045 1.524 . S
C2046 C2047 1.397 . S
C2046 C2051 1.363 . S
C2047 H2018 0.950 . S
C2047 C2046 1.397 . S
C2047 C2048 1.334 . S
C2048 H2019 0.950 . S
C2048 C2047 1.334 . S
C2048 C2049 1.287 . S
C2049 C2048 1.287 . S
C2049 C2050 1.524 . S
C2049 H2052 0.999 . S
C2050 H2020 0.950 . S
C2050 C2049 1.524 . S
C2050 C2051 1.415 . S
C2051 H2021 0.950 . S
C2051 C2046 1.363 . S
C2051 C2050 1.415 . S
H2052 C2049 0.999 . S
H2053 C2034 0.913 . S
H2054 C2072 0.951 . S
H2055 C2074 0.951 . S
H2056 C2076 0.950 . S
H2057 C2077 0.950 . S
H2058 C2079 0.950 . S
H2059 C2082 0.950 . S
H2060 C2083 0.950 . S
H2061 C2085 0.950 . S
H2062 C2086 0.950 . S
H2063 C2087 0.951 . S
H2064 C2089 0.951 . S
H2065 C2091 0.950 . S
H2066 C2092 0.950 . S
H2067 C2094 0.950 . S
H2068 C2097 0.950 . S
H2069 C2098 0.950 . S
H2070 C2100 0.950 . S
H2071 C2101 0.950 . S
C2072 H2054 0.951 . S
C2072 C2073 1.366 . S
C2072 C2074 1.388 . S
C2073 C2072 1.366 . S
C2073 C2077 1.385 . S
C2074 H2055 0.951 . S
C2074 C2072 1.388 . S
C2074 C2075 1.366 . S
C2075 C2074 1.366 . S
C2075 C2076 1.414 . S
C2075 C2078 1.499 . S
C2076 H2056 0.950 . S
C2076 C2075 1.414 . S
C2076 C2077 1.374 . S
C2077 H2057 0.950 . S
C2077 C2073 1.385 . S
C2077 C2076 1.374 . S
C2078 C2075 1.499 . S
C2078 C2079 1.373 . S
C2078 C2080 1.389 . S
C2079 H2058 0.950 . S
C2079 C2078 1.373 . S
C2079 C2095 1.377 . S
C2080 C2078 1.389 . S
C2080 C2081 1.524 . S
C2080 C2094 1.377 . S
C2081 C2080 1.524 . S
C2081 C2082 1.397 . S
C2081 C2086 1.363 . S
C2082 H2059 0.950 . S
C2082 C2081 1.397 . S
C2082 C2083 1.334 . S
C2083 H2060 0.950 . S
C2083 C2082 1.334 . S
C2083 C2084 1.287 . S
C2084 C2083 1.287 . S
C2084 C2085 1.524 . S
C2084 H2103 0.913 . S
C2085 H2061 0.950 . S
C2085 C2084 1.524 . S
C2085 C2086 1.415 . S
C2086 H2062 0.950 . S
C2086 C2081 1.363 . S
C2086 C2085 1.415 . S
C2087 H2063 0.951 . S
C2087 C2088 1.366 . S
C2087 C2089 1.388 . S
C2088 C2087 1.366 . S
C2088 C2092 1.385 . S
C2089 H2064 0.951 . S
C2089 C2087 1.388 . S
C2089 C2090 1.366 . S
C2090 C2089 1.366 . S
C2090 C2091 1.414 . S
C2090 C2093 1.499 . S
C2091 H2065 0.950 . S
C2091 C2090 1.414 . S
C2091 C2092 1.374 . S
C2092 H2066 0.950 . S
C2092 C2088 1.385 . S
C2092 C2091 1.374 . S
C2093 C2090 1.499 . S
C2093 C2094 1.373 . S
C2093 C2095 1.389 . S
C2094 H2067 0.950 . S
C2094 C2080 1.377 . S
C2094 C2093 1.373 . S
C2095 C2079 1.377 . S
C2095 C2093 1.389 . S
C2095 C2096 1.524 . S
C2096 C2095 1.524 . S
C2096 C2097 1.397 . S
C2096 C2101 1.363 . S
C2097 H2068 0.950 . S
C2097 C2096 1.397 . S
C2097 C2098 1.334 . S
C2098 H2069 0.950 . S
C2098 C2097 1.334 . S
C2098 C2099 1.287 . S
C2099 C2098 1.287 . S
C2099 C2100 1.524 . S
C2099 H2102 0.999 . S
C2100 H2070 0.950 . S
C2100 C2099 1.524 . S
C2100 C2101 1.415 . S
C2101 H2071 0.950 . S
C2101 C2096 1.363 . S
C2101 C2100 1.415 . S
H2102 C2099 0.999 . S
H2103 C2084 0.913 . S
H2104 C2122 0.951 . S
H2105 C2124 0.951 . S
H2106 C2126 0.950 . S
H2107 C2127 0.950 . S
H2108 C2129 0.950 . S
H2109 C2132 0.950 . S
H2110 C2133 0.950 . S
H2111 C2135 0.950 . S
H2112 C2136 0.950 . S
H2113 C2137 0.951 . S
H2114 C2139 0.951 . S
H2115 C2141 0.950 . S
H2116 C2142 0.950 . S
H2117 C2144 0.950 . S
H2118 C2147 0.950 . S
H2119 C2148 0.950 . S
H2120 C2150 0.950 . S
H2121 C2151 0.950 . S
C2122 H2104 0.951 . S
C2122 C2123 1.366 . S
C2122 C2124 1.388 . S
C2123 C2122 1.366 . S
C2123 C2127 1.385 . S
C2124 H2105 0.951 . S
C2124 C2122 1.388 . S
C2124 C2125 1.366 . S
C2125 C2124 1.366 . S
C2125 C2126 1.414 . S
C2125 C2128 1.499 . S
C2126 H2106 0.950 . S
C2126 C2125 1.414 . S
C2126 C2127 1.374 . S
C2127 H2107 0.950 . S
C2127 C2123 1.385 . S
C2127 C2126 1.374 . S
C2128 C2125 1.499 . S
C2128 C2129 1.373 . S
C2128 C2130 1.389 . S
C2129 H2108 0.950 . S
C2129 C2128 1.373 . S
C2129 C2145 1.377 . S
C2130 C2128 1.389 . S
C2130 C2131 1.524 . S
C2130 C2144 1.377 . S
C2131 C2130 1.524 . S
C2131 C2132 1.397 . S
C2131 C2136 1.363 . S
C2132 H2109 0.950 . S
C2132 C2131 1.397 . S
C2132 C2133 1.334 . S
C2133 H2110 0.950 . S
C2133 C2132 1.334 . S
C2133 C2134 1.287 . S
C2134 C2133 1.287 . S
C2134 C2135 1.524 . S
C2134 H2153 0.913 . S
C2135 H2111 0.950 . S
C2135 C2134 1.524 . S
C2135 C2136 1.415 . S
C2136 H2112 0.950 . S
C2136 C2131 1.363 . S
C2136 C2135 1.415 . S
C2137 H2113 0.951 . S
C2137 C2138 1.366 . S
C2137 C2139 1.388 . S
C2138 C2137 1.366 . S
C2138 C2142 1.385 . S
C2139 H2114 0.951 . S
C2139 C2137 1.388 . S
C2139 C2140 1.366 . S
C2140 C2139 1.366 . S
C2140 C2141 1.414 . S
C2140 C2143 1.499 . S
C2141 H2115 0.950 . S
C2141 C2140 1.414 . S
C2141 C2142 1.374 . S
C2142 H2116 0.950 . S
C2142 C2138 1.385 . S
C2142 C2141 1.374 . S
C2143 C2140 1.499 . S
C2143 C2144 1.373 . S
C2143 C2145 1.389 . S
C2144 H2117 0.950 . S
C2144 C2130 1.377 . S
C2144 C2143 1.373 . S
C2145 C2129 1.377 . S
C2145 C2143 1.389 . S
C2145 C2146 1.524 . S
C2146 C2145 1.524 . S
C2146 C2147 1.397 . S
C2146 C2151 1.363 . S
C2147 H2118 0.950 . S
C2147 C2146 1.397 . S
C2147 C2148 1.334 . S
C2148 H2119 0.950 . S
C2148 C2147 1.334 . S
C2148 C2149 1.287 . S
C2149 C2148 1.287 . S
C2149 C2150 1.524 . S
C2149 H2152 0.999 . S
C2150 H2120 0.950 . S
C2150 C2149 1.524 . S
C2150 C2151 1.415 . S
C2151 H2121 0.950 . S
C2151 C2146 1.363 . S
C2151 C2150 1.415 . S
H2152 C2149 0.999 . S
H2153 C2134 0.913 . S
H2154 C2172 0.951 . S
H2155 C2174 0.951 . S
H2156 C2176 0.950 . S
H2157 C2177 0.950 . S
H2158 C2179 0.950 . S
H2159 C2182 0.950 . S
H2160 C2183 0.950 . S
H2161 C2185 0.950 . S
H2162 C2186 0.950 . S
H2163 C2187 0.951 . S
H2164 C2189 0.951 . S
H2165 C2191 0.950 . S
H2166 C2192 0.950 . S
H2167 C2194 0.950 . S
H2168 C2197 0.950 . S
H2169 C2198 0.950 . S
H2170 C2200 0.950 . S
H2171 C2201 0.950 . S
C2172 H2154 0.951 . S
C2172 C2173 1.366 . S
C2172 C2174 1.388 . S
C2173 C2172 1.366 . S
C2173 C2177 1.385 . S
C2174 H2155 0.951 . S
C2174 C2172 1.388 . S
C2174 C2175 1.366 . S
C2175 C2174 1.366 . S
C2175 C2176 1.414 . S
C2175 C2178 1.499 . S
C2176 H2156 0.950 . S
C2176 C2175 1.414 . S
C2176 C2177 1.374 . S
C2177 H2157 0.950 . S
C2177 C2173 1.385 . S
C2177 C2176 1.374 . S
C2178 C2175 1.499 . S
C2178 C2179 1.373 . S
C2178 C2180 1.389 . S
C2179 H2158 0.950 . S
C2179 C2178 1.373 . S
C2179 C2195 1.377 . S
C2180 C2178 1.389 . S
C2180 C2181 1.524 . S
C2180 C2194 1.377 . S
C2181 C2180 1.524 . S
C2181 C2182 1.397 . S
C2181 C2186 1.363 . S
C2182 H2159 0.950 . S
C2182 C2181 1.397 . S
C2182 C2183 1.334 . S
C2183 H2160 0.950 . S
C2183 C2182 1.334 . S
C2183 C2184 1.287 . S
C2184 C2183 1.287 . S
C2184 C2185 1.524 . S
C2184 H2203 0.913 . S
C2185 H2161 0.950 . S
C2185 C2184 1.524 . S
C2185 C2186 1.415 . S
C2186 H2162 0.950 . S
C2186 C2181 1.363 . S
C2186 C2185 1.415 . S
C2187 H2163 0.951 . S
C2187 C2188 1.366 . S
C2187 C2189 1.388 . S
C2188 C2187 1.366 . S
C2188 C2192 1.385 . S
C2189 H2164 0.951 . S
C2189 C2187 1.388 . S
C2189 C2190 1.366 . S
C2190 C2189 1.366 . S
C2190 C2191 1.414 . S
C2190 C2193 1.499 . S
C2191 H2165 0.950 . S
C2191 C2190 1.414 . S
C2191 C2192 1.374 . S
C2192 H2166 0.950 . S
C2192 C2188 1.385 . S
C2192 C2191 1.374 . S
C2193 C2190 1.499 . S
C2193 C2194 1.373 . S
C2193 C2195 1.389 . S
C2194 H2167 0.950 . S
C2194 C2180 1.377 . S
C2194 C2193 1.373 . S
C2195 C2179 1.377 . S
C2195 C2193 1.389 . S
C2195 C2196 1.524 . S
C2196 C2195 1.524 . S
C2196 C2197 1.397 . S
C2196 C2201 1.363 . S
C2197 H2168 0.950 . S
C2197 C2196 1.397 . S
C2197 C2198 1.334 . S
C2198 H2169 0.950 . S
C2198 C2197 1.334 . S
C2198 C2199 1.287 . S
C2199 C2198 1.287 . S
C2199 C2200 1.524 . S
C2199 H2202 0.999 . S
C2200 H2170 0.950 . S
C2200 C2199 1.524 . S
C2200 C2201 1.415 . S
C2201 H2171 0.950 . S
C2201 C2196 1.363 . S
C2201 C2200 1.415 . S
H2202 C2199 0.999 . S
H2203 C2184 0.913 . S
H2204 C2222 0.951 . S
H2205 C2224 0.951 . S
H2206 C2226 0.950 . S
H2207 C2227 0.950 . S
H2208 C2229 0.950 . S
H2209 C2232 0.950 . S
H2210 C2233 0.950 . S
H2211 C2235 0.950 . S
H2212 C2236 0.950 . S
H2213 C2237 0.951 . S
H2214 C2239 0.951 . S
H2215 C2241 0.950 . S
H2216 C2242 0.950 . S
H2217 C2244 0.950 . S
H2218 C2247 0.950 . S
H2219 C2248 0.950 . S
H2220 C2250 0.950 . S
H2221 C2251 0.950 . S
C2222 H2204 0.951 . S
C2222 C2223 1.366 . S
C2222 C2224 1.388 . S
C2223 C2222 1.366 . S
C2223 C2227 1.385 . S
C2224 H2205 0.951 . S
C2224 C2222 1.388 . S
C2224 C2225 1.366 . S
C2225 C2224 1.366 . S
C2225 C2226 1.414 . S
C2225 C2228 1.499 . S
C2226 H2206 0.950 . S
C2226 C2225 1.414 . S
C2226 C2227 1.374 . S
C2227 H2207 0.950 . S
C2227 C2223 1.385 . S
C2227 C2226 1.374 . S
C2228 C2225 1.499 . S
C2228 C2229 1.373 . S
C2228 C2230 1.389 . S
C2229 H2208 0.950 . S
C2229 C2228 1.373 . S
C2229 C2245 1.377 . S
C2230 C2228 1.389 . S
C2230 C2231 1.524 . S
C2230 C2244 1.377 . S
C2231 C2230 1.524 . S
C2231 C2232 1.397 . S
C2231 C2236 1.363 . S
C2232 H2209 0.950 . S
C2232 C2231 1.397 . S
C2232 C2233 1.334 . S
C2233 H2210 0.950 . S
C2233 C2232 1.334 . S
C2233 C2234 1.287 . S
C2234 C2233 1.287 . S
C2234 C2235 1.524 . S
C2234 H2253 0.913 . S
C2235 H2211 0.950 . S
C2235 C2234 1.524 . S
C2235 C2236 1.415 . S
C2236 H2212 0.950 . S
C2236 C2231 1.363 . S
C2236 C2235 1.415 . S
C2237 H2213 0.951 . S
C2237 C2238 1.366 . S
C2237 C2239 1.388 . S
C2238 C2237 1.366 . S
C2238 C2242 1.385 . S
C2239 H2214 0.951 . S
C2239 C2237 1.388 . S
C2239 C2240 1.366 . S
C2240 C2239 1.366 . S
C2240 C2241 1.414 . S
C2240 C2243 1.499 . S
C2241 H2215 0.950 . S
C2241 C2240 1.414 . S
C2241 C2242 1.374 . S
C2242 H2216 0.950 . S
C2242 C2238 1.385 . S
C2242 C2241 1.374 . S
C2243 C2240 1.499 . S
C2243 C2244 1.373 . S
C2243 C2245 1.389 . S
C2244 H2217 0.950 . S
C2244 C2230 1.377 . S
C2244 C2243 1.373 . S
C2245 C2229 1.377 . S
C2245 C2243 1.389 . S
C2245 C2246 1.524 . S
C2246 C2245 1.524 . S
C2246 C2247 1.397 . S
C2246 C2251 1.363 . S
C2247 H2218 0.950 . S
C2247 C2246 1.397 . S
C2247 C2248 1.334 . S
C2248 H2219 0.950 . S
C2248 C2247 1.334 . S
C2248 C2249 1.287 . S
C2249 C2248 1.287 . S
C2249 C2250 1.524 . S
C2249 H2252 0.999 . S
C2250 H2220 0.950 . S
C2250 C2249 1.524 . S
C2250 C2251 1.415 . S
C2251 H2221 0.950 . S
C2251 C2246 1.363 . S
C2251 C2250 1.415 . S
H2252 C2249 0.999 . S
H2253 C2234 0.913 . S
H2254 C2272 0.951 . S
H2255 C2274 0.951 . S
H2256 C2276 0.950 . S
H2257 C2277 0.950 . S
H2258 C2279 0.950 . S
H2259 C2282 0.950 . S
H2260 C2283 0.950 . S
H2261 C2285 0.950 . S
H2262 C2286 0.950 . S
H2263 C2287 0.951 . S
H2264 C2289 0.951 . S
H2265 C2291 0.950 . S
H2266 C2292 0.950 . S
H2267 C2294 0.950 . S
H2268 C2297 0.950 . S
H2269 C2298 0.950 . S
H2270 C2300 0.950 . S
H2271 C2301 0.950 . S
C2272 H2254 0.951 . S
C2272 C2273 1.366 . S
C2272 C2274 1.388 . S
C2273 C2272 1.366 . S
C2273 C2277 1.385 . S
C2274 H2255 0.951 . S
C2274 C2272 1.388 . S
C2274 C2275 1.366 . S
C2275 C2274 1.366 . S
C2275 C2276 1.414 . S
C2275 C2278 1.499 . S
C2276 H2256 0.950 . S
C2276 C2275 1.414 . S
C2276 C2277 1.374 . S
C2277 H2257 0.950 . S
C2277 C2273 1.385 . S
C2277 C2276 1.374 . S
C2278 C2275 1.499 . S
C2278 C2279 1.373 . S
C2278 C2280 1.389 . S
C2279 H2258 0.950 . S
C2279 C2278 1.373 . S
C2279 C2295 1.377 . S
C2280 C2278 1.389 . S
C2280 C2281 1.524 . S
C2280 C2294 1.377 . S
C2281 C2280 1.524 . S
C2281 C2282 1.397 . S
C2281 C2286 1.363 . S
C2282 H2259 0.950 . S
C2282 C2281 1.397 . S
C2282 C2283 1.334 . S
C2283 H2260 0.950 . S
C2283 C2282 1.334 . S
C2283 C2284 1.287 . S
C2284 C2283 1.287 . S
C2284 C2285 1.524 . S
C2284 H2303 0.913 . S
C2285 H2261 0.950 . S
C2285 C2284 1.524 . S
C2285 C2286 1.415 . S
C2286 H2262 0.950 . S
C2286 C2281 1.363 . S
C2286 C2285 1.415 . S
C2287 H2263 0.951 . S
C2287 C2288 1.366 . S
C2287 C2289 1.388 . S
C2288 C2287 1.366 . S
C2288 C2292 1.385 . S
C2289 H2264 0.951 . S
C2289 C2287 1.388 . S
C2289 C2290 1.366 . S
C2290 C2289 1.366 . S
C2290 C2291 1.414 . S
C2290 C2293 1.499 . S
C2291 H2265 0.950 . S
C2291 C2290 1.414 . S
C2291 C2292 1.374 . S
C2292 H2266 0.950 . S
C2292 C2288 1.385 . S
C2292 C2291 1.374 . S
C2293 C2290 1.499 . S
C2293 C2294 1.373 . S
C2293 C2295 1.389 . S
C2294 H2267 0.950 . S
C2294 C2280 1.377 . S
C2294 C2293 1.373 . S
C2295 C2279 1.377 . S
C2295 C2293 1.389 . S
C2295 C2296 1.524 . S
C2296 C2295 1.524 . S
C2296 C2297 1.397 . S
C2296 C2301 1.363 . S
C2297 H2268 0.950 . S
C2297 C2296 1.397 . S
C2297 C2298 1.334 . S
C2298 H2269 0.950 . S
C2298 C2297 1.334 . S
C2298 C2299 1.287 . S
C2299 C2298 1.287 . S
C2299 C2300 1.524 . S
C2299 H2302 0.999 . S
C2300 H2270 0.950 . S
C2300 C2299 1.524 . S
C2300 C2301 1.415 . S
C2301 H2271 0.950 . S
C2301 C2296 1.363 . S
C2301 C2300 1.415 . S
H2302 C2299 0.999 . S
H2303 C2284 0.913 . S
H2304 C2322 0.951 . S
H2305 C2324 0.951 . S
H2306 C2326 0.950 . S
H2307 C2327 0.950 . S
H2308 C2329 0.950 . S
H2309 C2332 0.950 . S
H2310 C2333 0.950 . S
H2311 C2335 0.950 . S
H2312 C2336 0.950 . S
H2313 C2337 0.951 . S
H2314 C2339 0.951 . S
H2315 C2341 0.950 . S
H2316 C2342 0.950 . S
H2317 C2344 0.950 . S
H2318 C2347 0.950 . S
H2319 C2348 0.950 . S
H2320 C2350 0.950 . S
H2321 C2351 0.950 . S
C2322 H2304 0.951 . S
C2322 C2323 1.366 . S
C2322 C2324 1.388 . S
C2323 C2322 1.366 . S
C2323 C2327 1.385 . S
C2324 H2305 0.951 . S
C2324 C2322 1.388 . S
C2324 C2325 1.366 . S
C2325 C2324 1.366 . S
C2325 C2326 1.414 . S
C2325 C2328 1.499 . S
C2326 H2306 0.950 . S
C2326 C2325 1.414 . S
C2326 C2327 1.374 . S
C2327 H2307 0.950 . S
C2327 C2323 1.385 . S
C2327 C2326 1.374 . S
C2328 C2325 1.499 . S
C2328 C2329 1.373 . S
C2328 C2330 1.389 . S
C2329 H2308 0.950 . S
C2329 C2328 1.373 . S
C2329 C2345 1.377 . S
C2330 C2328 1.389 . S
C2330 C2331 1.524 . S
C2330 C2344 1.377 . S
C2331 C2330 1.524 . S
C2331 C2332 1.397 . S
C2331 C2336 1.363 . S
C2332 H2309 0.950 . S
C2332 C2331 1.397 . S
C2332 C2333 1.334 . S
C2333 H2310 0.950 . S
C2333 C2332 1.334 . S
C2333 C2334 1.287 . S
C2334 C2333 1.287 . S
C2334 C2335 1.524 . S
C2334 H2353 0.913 . S
C2335 H2311 0.950 . S
C2335 C2334 1.524 . S
C2335 C2336 1.415 . S
C2336 H2312 0.950 . S
C2336 C2331 1.363 . S
C2336 C2335 1.415 . S
C2337 H2313 0.951 . S
C2337 C2338 1.366 . S
C2337 C2339 1.388 . S
C2338 C2337 1.366 . S
C2338 C2342 1.385 . S
C2339 H2314 0.951 . S
C2339 C2337 1.388 . S
C2339 C2340 1.366 . S
C2340 C2339 1.366 . S
C2340 C2341 1.414 . S
C2340 C2343 1.499 . S
C2341 H2315 0.950 . S
C2341 C2340 1.414 . S
C2341 C2342 1.374 . S
C2342 H2316 0.950 . S
C2342 C2338 1.385 . S
C2342 C2341 1.374 . S
C2343 C2340 1.499 . S
C2343 C2344 1.373 . S
C2343 C2345 1.389 . S
C2344 H2317 0.950 . S
C2344 C2330 1.377 . S
C2344 C2343 1.373 . S
C2345 C2329 1.377 . S
C2345 C2343 1.389 . S
C2345 C2346 1.524 . S
C2346 C2345 1.524 . S
C2346 C2347 1.397 . S
C2346 C2351 1.363 . S
C2347 H2318 0.950 . S
C2347 C2346 1.397 . S
C2347 C2348 1.334 . S
C2348 H2319 0.950 . S
C2348 C2347 1.334 . S
C2348 C2349 1.287 . S
C2349 C2348 1.287 . S
C2349 C2350 1.524 . S
C2349 H2352 0.999 . S
C2350 H2320 0.950 . S
C2350 C2349 1.524 . S
C2350 C2351 1.415 . S
C2351 H2321 0.950 . S
C2351 C2346 1.363 . S
C2351 C2350 1.415 . S
H2352 C2349 0.999 . S
H2353 C2334 0.913 . S
H2354 C2372 0.951 . S
H2355 C2374 0.951 . S
H2356 C2376 0.950 . S
H2357 C2377 0.950 . S
H2358 C2379 0.950 . S
H2359 C2382 0.950 . S
H2360 C2383 0.950 . S
H2361 C2385 0.950 . S
H2362 C2386 0.950 . S
H2363 C2387 0.951 . S
H2364 C2389 0.951 . S
H2365 C2391 0.950 . S
H2366 C2392 0.950 . S
H2367 C2394 0.950 . S
H2368 C2397 0.950 . S
H2369 C2398 0.950 . S
H2370 C2400 0.950 . S
H2371 C2401 0.950 . S
C2372 H2354 0.951 . S
C2372 C2373 1.366 . S
C2372 C2374 1.388 . S
C2373 C2372 1.366 . S
C2373 C2377 1.385 . S
C2374 H2355 0.951 . S
C2374 C2372 1.388 . S
C2374 C2375 1.366 . S
C2375 C2374 1.366 . S
C2375 C2376 1.414 . S
C2375 C2378 1.499 . S
C2376 H2356 0.950 . S
C2376 C2375 1.414 . S
C2376 C2377 1.374 . S
C2377 H2357 0.950 . S
C2377 C2373 1.385 . S
C2377 C2376 1.374 . S
C2378 C2375 1.499 . S
C2378 C2379 1.373 . S
C2378 C2380 1.389 . S
C2379 H2358 0.950 . S
C2379 C2378 1.373 . S
C2379 C2395 1.377 . S
C2380 C2378 1.389 . S
C2380 C2381 1.524 . S
C2380 C2394 1.377 . S
C2381 C2380 1.524 . S
C2381 C2382 1.397 . S
C2381 C2386 1.363 . S
C2382 H2359 0.950 . S
C2382 C2381 1.397 . S
C2382 C2383 1.334 . S
C2383 H2360 0.950 . S
C2383 C2382 1.334 . S
C2383 C2384 1.287 . S
C2384 C2383 1.287 . S
C2384 C2385 1.524 . S
C2384 H2403 0.913 . S
C2385 H2361 0.950 . S
C2385 C2384 1.524 . S
C2385 C2386 1.415 . S
C2386 H2362 0.950 . S
C2386 C2381 1.363 . S
C2386 C2385 1.415 . S
C2387 H2363 0.951 . S
C2387 C2388 1.366 . S
C2387 C2389 1.388 . S
C2388 C2387 1.366 . S
C2388 C2392 1.385 . S
C2389 H2364 0.951 . S
C2389 C2387 1.388 . S
C2389 C2390 1.366 . S
C2390 C2389 1.366 . S
C2390 C2391 1.414 . S
C2390 C2393 1.499 . S
C2391 H2365 0.950 . S
C2391 C2390 1.414 . S
C2391 C2392 1.374 . S
C2392 H2366 0.950 . S
C2392 C2388 1.385 . S
C2392 C2391 1.374 . S
C2393 C2390 1.499 . S
C2393 C2394 1.373 . S
C2393 C2395 1.389 . S
C2394 H2367 0.950 . S
C2394 C2380 1.377 . S
C2394 C2393 1.373 . S
C2395 C2379 1.377 . S
C2395 C2393 1.389 . S
C2395 C2396 1.524 . S
C2396 C2395 1.524 . S
C2396 C2397 1.397 . S
C2396 C2401 1.363 . S
C2397 H2368 0.950 . S
C2397 C2396 1.397 . S
C2397 C2398 1.334 . S
C2398 H2369 0.950 . S
C2398 C2397 1.334 . S
C2398 C2399 1.287 . S
C2399 C2398 1.287 . S
C2399 C2400 1.524 . S
C2399 H2402 0.999 . S
C2400 H2370 0.950 . S
C2400 C2399 1.524 . S
C2400 C2401 1.415 . S
C2401 H2371 0.950 . S
C2401 C2396 1.363 . S
C2401 C2400 1.415 . S
H2402 C2399 0.999 . S
H2403 C2384 0.913 . S
H2404 C2422 0.951 . S
H2405 C2424 0.951 . S
H2406 C2426 0.950 . S
H2407 C2427 0.950 . S
H2408 C2429 0.950 . S
H2409 C2432 0.950 . S
H2410 C2433 0.950 . S
H2411 C2435 0.950 . S
H2412 C2436 0.950 . S
H2413 C2437 0.951 . S
H2414 C2439 0.951 . S
H2415 C2441 0.950 . S
H2416 C2442 0.950 . S
H2417 C2444 0.950 . S
H2418 C2447 0.950 . S
H2419 C2448 0.950 . S
H2420 C2450 0.950 . S
H2421 C2451 0.950 . S
C2422 H2404 0.951 . S
C2422 C2423 1.366 . S
C2422 C2424 1.388 . S
C2423 C2422 1.366 . S
C2423 C2427 1.385 . S
C2424 H2405 0.951 . S
C2424 C2422 1.388 . S
C2424 C2425 1.366 . S
C2425 C2424 1.366 . S
C2425 C2426 1.414 . S
C2425 C2428 1.499 . S
C2426 H2406 0.950 . S
C2426 C2425 1.414 . S
C2426 C2427 1.374 . S
C2427 H2407 0.950 . S
C2427 C2423 1.385 . S
C2427 C2426 1.374 . S
C2428 C2425 1.499 . S
C2428 C2429 1.373 . S
C2428 C2430 1.389 . S
C2429 H2408 0.950 . S
C2429 C2428 1.373 . S
C2429 C2445 1.377 . S
C2430 C2428 1.389 . S
C2430 C2431 1.524 . S
C2430 C2444 1.377 . S
C2431 C2430 1.524 . S
C2431 C2432 1.397 . S
C2431 C2436 1.363 . S
C2432 H2409 0.950 . S
C2432 C2431 1.397 . S
C2432 C2433 1.334 . S
C2433 H2410 0.950 . S
C2433 C2432 1.334 . S
C2433 C2434 1.287 . S
C2434 C2433 1.287 . S
C2434 C2435 1.524 . S
C2434 H2453 0.913 . S
C2435 H2411 0.950 . S
C2435 C2434 1.524 . S
C2435 C2436 1.415 . S
C2436 H2412 0.950 . S
C2436 C2431 1.363 . S
C2436 C2435 1.415 . S
C2437 H2413 0.951 . S
C2437 C2438 1.366 . S
C2437 C2439 1.388 . S
C2438 C2437 1.366 . S
C2438 C2442 1.385 . S
C2439 H2414 0.951 . S
C2439 C2437 1.388 . S
C2439 C2440 1.366 . S
C2440 C2439 1.366 . S
C2440 C2441 1.414 . S
C2440 C2443 1.499 . S
C2441 H2415 0.950 . S
C2441 C2440 1.414 . S
C2441 C2442 1.374 . S
C2442 H2416 0.950 . S
C2442 C2438 1.385 . S
C2442 C2441 1.374 . S
C2443 C2440 1.499 . S
C2443 C2444 1.373 . S
C2443 C2445 1.389 . S
C2444 H2417 0.950 . S
C2444 C2430 1.377 . S
C2444 C2443 1.373 . S
C2445 C2429 1.377 . S
C2445 C2443 1.389 . S
C2445 C2446 1.524 . S
C2446 C2445 1.524 . S
C2446 C2447 1.397 . S
C2446 C2451 1.363 . S
C2447 H2418 0.950 . S
C2447 C2446 1.397 . S
C2447 C2448 1.334 . S
C2448 H2419 0.950 . S
C2448 C2447 1.334 . S
C2448 C2449 1.287 . S
C2449 C2448 1.287 . S
C2449 C2450 1.524 . S
C2449 H2452 0.999 . S
C2450 H2420 0.950 . S
C2450 C2449 1.524 . S
C2450 C2451 1.415 . S
C2451 H2421 0.950 . S
C2451 C2446 1.363 . S
C2451 C2450 1.415 . S
H2452 C2449 0.999 . S
H2453 C2434 0.913 . S
H2454 C2472 0.951 . S
H2455 C2474 0.951 . S
H2456 C2476 0.950 . S
H2457 C2477 0.950 . S
H2458 C2479 0.950 . S
H2459 C2482 0.950 . S
H2460 C2483 0.950 . S
H2461 C2485 0.950 . S
H2462 C2486 0.950 . S
H2463 C2487 0.951 . S
H2464 C2489 0.951 . S
H2465 C2491 0.950 . S
H2466 C2492 0.950 . S
H2467 C2494 0.950 . S
H2468 C2497 0.950 . S
H2469 C2498 0.950 . S
H2470 C2500 0.950 . S
H2471 C2501 0.950 . S
C2472 H2454 0.951 . S
C2472 C2473 1.366 . S
C2472 C2474 1.388 . S
C2473 C2472 1.366 . S
C2473 C2477 1.385 . S
C2474 H2455 0.951 . S
C2474 C2472 1.388 . S
C2474 C2475 1.366 . S
C2475 C2474 1.366 . S
C2475 C2476 1.414 . S
C2475 C2478 1.499 . S
C2476 H2456 0.950 . S
C2476 C2475 1.414 . S
C2476 C2477 1.374 . S
C2477 H2457 0.950 . S
C2477 C2473 1.385 . S
C2477 C2476 1.374 . S
C2478 C2475 1.499 . S
C2478 C2479 1.373 . S
C2478 C2480 1.389 . S
C2479 H2458 0.950 . S
C2479 C2478 1.373 . S
C2479 C2495 1.377 . S
C2480 C2478 1.389 . S
C2480 C2481 1.524 . S
C2480 C2494 1.377 . S
C2481 C2480 1.524 . S
C2481 C2482 1.397 . S
C2481 C2486 1.363 . S
C2482 H2459 0.950 . S
C2482 C2481 1.397 . S
C2482 C2483 1.334 . S
C2483 H2460 0.950 . S
C2483 C2482 1.334 . S
C2483 C2484 1.287 . S
C2484 C2483 1.287 . S
C2484 C2485 1.524 . S
C2484 H2503 0.913 . S
C2485 H2461 0.950 . S
C2485 C2484 1.524 . S
C2485 C2486 1.415 . S
C2486 H2462 0.950 . S
C2486 C2481 1.363 . S
C2486 C2485 1.415 . S
C2487 H2463 0.951 . S
C2487 C2488 1.366 . S
C2487 C2489 1.388 . S
C2488 C2487 1.366 . S
C2488 C2492 1.385 . S
C2489 H2464 0.951 . S
C2489 C2487 1.388 . S
C2489 C2490 1.366 . S
C2490 C2489 1.366 . S
C2490 C2491 1.414 . S
C2490 C2493 1.499 . S
C2491 H2465 0.950 . S
C2491 C2490 1.414 . S
C2491 C2492 1.374 . S
C2492 H2466 0.950 . S
C2492 C2488 1.385 . S
C2492 C2491 1.374 . S
C2493 C2490 1.499 . S
C2493 C2494 1.373 . S
C2493 C2495 1.389 . S
C2494 H2467 0.950 . S
C2494 C2480 1.377 . S
C2494 C2493 1.373 . S
C2495 C2479 1.377 . S
C2495 C2493 1.389 . S
C2495 C2496 1.524 . S
C2496 C2495 1.524 . S
C2496 C2497 1.397 . S
C2496 C2501 1.363 . S
C2497 H2468 0.950 . S
C2497 C2496 1.397 . S
C2497 C2498 1.334 . S
C2498 H2469 0.950 . S
C2498 C2497 1.334 . S
C2498 C2499 1.287 . S
C2499 C2498 1.287 . S
C2499 C2500 1.524 . S
C2499 H2502 0.999 . S
C2500 H2470 0.950 . S
C2500 C2499 1.524 . S
C2500 C2501 1.415 . S
C2501 H2471 0.950 . S
C2501 C2496 1.363 . S
C2501 C2500 1.415 . S
H2502 C2499 0.999 . S
H2503 C2484 0.913 . S
H2504 C2522 0.951 . S
H2505 C2524 0.951 . S
H2506 C2526 0.950 . S
H2507 C2527 0.950 . S
H2508 C2529 0.950 . S
H2509 C2532 0.950 . S
H2510 C2533 0.950 1_565 S
H2511 C2535 0.950 . S
H2512 C2536 0.950 . S
H2513 C2537 0.951 . S
H2514 C2539 0.951 . S
H2515 C2541 0.950 1_545 S
H2516 C2542 0.970 . S
H2517 C2544 0.954 1_545 S
H2518 C2547 0.950 . S
H2519 C2548 0.950 . S
H2520 C2550 0.950 . S
H2521 C2551 0.950 . S
C2522 H2504 0.951 . S
C2522 C2523 1.366 . S
C2522 C2524 1.388 . S
C2523 C2522 1.366 . S
C2523 C2527 1.385 1_545 S
C2524 H2505 0.951 . S
C2524 C2522 1.388 . S
C2524 C2525 1.366 . S
C2525 C2524 1.366 . S
C2525 C2526 1.414 1_545 S
C2525 C2528 1.499 1_545 S
C2526 H2506 0.950 . S
C2526 C2525 1.414 1_565 S
C2526 C2527 1.374 . S
C2527 H2507 0.950 . S
C2527 C2523 1.385 1_565 S
C2527 C2526 1.374 . S
C2528 C2525 1.499 1_565 S
C2528 C2529 1.373 . S
C2528 C2530 1.362 1_565 S
C2529 H2508 0.950 . S
C2529 C2528 1.373 . S
C2529 C2545 1.377 . S
C2530 C2528 1.362 1_545 S
C2530 C2531 1.542 . S
C2530 C2544 1.388 1_545 S
C2531 C2530 1.542 . S
C2531 C2532 1.397 1_545 S
C2531 C2536 1.363 . S
C2532 H2509 0.950 . S
C2532 C2531 1.397 1_565 S
C2532 C2533 1.334 1_565 S
C2533 H2510 0.950 1_545 S
C2533 C2532 1.334 1_545 S
C2533 C2534 1.287 . S
C2534 C2533 1.287 . S
C2534 C2535 1.524 . S
C2534 H2553 0.913 . S
C2535 H2511 0.950 . S
C2535 C2534 1.524 . S
C2535 C2536 1.415 . S
C2536 H2512 0.950 . S
C2536 C2531 1.363 . S
C2536 C2535 1.415 . S
C2537 H2513 0.951 . S
C2537 C2538 1.366 . S
C2537 C2539 1.388 . S
C2538 C2537 1.366 . S
C2538 C2542 1.385 . S
C2539 H2514 0.951 . S
C2539 C2537 1.388 . S
C2539 C2540 1.366 . S
C2540 C2539 1.366 . S
C2540 C2541 1.414 . S
C2540 C2543 1.499 . S
C2541 H2515 0.950 1_565 S
C2541 C2540 1.414 . S
C2541 C2542 1.374 . S
C2542 H2516 0.970 . S
C2542 C2538 1.385 . S
C2542 C2541 1.374 . S
C2543 C2540 1.499 . S
C2543 C2544 1.373 . S
C2543 C2545 1.389 . S
C2544 H2517 0.954 1_565 S
C2544 C2530 1.388 1_565 S
C2544 C2543 1.373 . S
C2545 C2529 1.377 . S
C2545 C2543 1.389 . S
C2545 C2546 1.524 . S
C2546 C2545 1.524 . S
C2546 C2547 1.397 . S
C2546 C2551 1.363 . S
C2547 H2518 0.950 . S
C2547 C2546 1.397 . S
C2547 C2548 1.334 . S
C2548 H2519 0.950 . S
C2548 C2547 1.334 . S
C2548 C2549 1.287 . S
C2549 C2548 1.287 . S
C2549 C2550 1.524 . S
C2549 H2552 0.999 . S
C2550 H2520 0.950 . S
C2550 C2549 1.524 . S
C2550 C2551 1.415 . S
C2551 H2521 0.950 . S
C2551 C2546 1.363 . S
C2551 C2550 1.415 . S
H2552 C2549 0.999 . S
H2553 C2534 0.913 . S
H2554 C2572 0.951 . S
H2555 C2574 0.951 . S
H2556 C2576 0.950 . S
H2557 C2577 0.950 . S
H2558 C2579 0.950 . S
H2559 C2582 0.950 . S
H2560 C2583 0.950 . S
H2561 C2585 0.950 . S
H2562 C2586 0.950 . S
H2563 C2587 0.951 . S
H2564 C2589 0.951 . S
H2565 C2591 0.950 . S
H2566 C2592 0.950 . S
H2567 C2594 0.950 . S
H2568 C2597 0.950 1_655 S
H2569 C2598 0.909 1_655 S
H2570 C2600 0.950 . S
H2571 C2601 0.950 . S
C2572 H2554 0.951 . S
C2572 C2573 1.366 . S
C2572 C2574 1.388 . S
C2573 C2572 1.366 . S
C2573 C2577 1.385 . S
C2574 H2555 0.951 . S
C2574 C2572 1.388 . S
C2574 C2575 1.366 . S
C2575 C2574 1.366 . S
C2575 C2576 1.414 . S
C2575 C2578 1.499 . S
C2576 H2556 0.950 . S
C2576 C2575 1.414 . S
C2576 C2577 1.374 . S
C2577 H2557 0.950 . S
C2577 C2573 1.385 . S
C2577 C2576 1.374 . S
C2578 C2575 1.499 . S
C2578 C2579 1.373 . S
C2578 C2580 1.389 . S
C2579 H2558 0.950 . S
C2579 C2578 1.373 . S
C2579 C2595 1.377 . S
C2580 C2578 1.389 . S
C2580 C2581 1.524 . S
C2580 C2594 1.377 . S
C2581 C2580 1.524 . S
C2581 C2582 1.397 . S
C2581 C2586 1.363 1_455 S
C2582 H2559 0.950 . S
C2582 C2581 1.397 . S
C2582 C2583 1.334 . S
C2583 H2560 0.950 . S
C2583 C2582 1.334 . S
C2583 C2584 1.287 . S
C2584 C2583 1.287 . S
C2584 C2585 1.524 1_455 S
C2584 H2603 0.913 . S
C2585 H2561 0.950 . S
C2585 C2584 1.524 1_655 S
C2585 C2586 1.415 . S
C2586 H2562 0.950 . S
C2586 C2581 1.363 1_655 S
C2586 C2585 1.415 . S
C2587 H2563 0.951 . S
C2587 C2588 1.369 1_455 S
C2587 C2589 1.388 . S
C2588 C2587 1.369 1_655 S
C2588 C2592 1.383 . S
C2589 H2564 0.951 . S
C2589 C2587 1.388 . S
C2589 C2590 1.366 . S
C2590 C2589 1.366 . S
C2590 C2591 1.414 1_455 S
C2590 C2593 1.499 . S
C2591 H2565 0.950 . S
C2591 C2590 1.414 1_655 S
C2591 C2592 1.374 . S
C2592 H2566 0.950 . S
C2592 C2588 1.383 . S
C2592 C2591 1.374 . S
C2593 C2590 1.499 . S
C2593 C2594 1.373 . S
C2593 C2595 1.389 . S
C2594 H2567 0.950 . S
C2594 C2580 1.377 . S
C2594 C2593 1.373 . S
C2595 C2579 1.377 . S
C2595 C2593 1.389 . S
C2595 C2596 1.524 . S
C2596 C2595 1.524 . S
C2596 C2597 1.397 . S
C2596 C2601 1.363 . S
C2597 H2568 0.950 1_455 S
C2597 C2596 1.397 . S
C2597 C2598 1.334 . S
C2598 H2569 0.909 1_455 S
C2598 C2597 1.334 . S
C2598 C2599 1.287 . S
C2599 C2598 1.287 . S
C2599 C2600 1.524 . S
C2599 H2602 0.999 . S
C2600 H2570 0.950 . S
C2600 C2599 1.524 . S
C2600 C2601 1.415 . S
C2601 H2571 0.950 . S
C2601 C2596 1.363 . S
C2601 C2600 1.415 . S
H2602 C2599 0.999 . S
H2603 C2584 0.913 . S
H2604 C2622 0.951 . S
H2605 C2624 0.951 . S
H2606 C2626 0.950 . S
H2607 C2627 0.950 . S
H2608 C2629 0.950 . S
H2609 C2632 0.950 . S
H2610 C2633 0.950 . S
H2611 C2635 0.950 . S
H2612 C2636 0.950 . S
H2613 C2637 0.951 . S
H2614 C2639 0.951 . S
H2615 C2641 0.950 . S
H2616 C2642 0.950 . S
H2617 C2644 0.950 . S
H2618 C2647 0.950 . S
H2619 C2648 0.950 . S
H2620 C2650 0.950 . S
H2621 C2651 0.950 . S
C2622 H2604 0.951 . S
C2622 C2623 1.366 . S
C2622 C2624 1.388 . S
C2623 C2622 1.366 . S
C2623 C2627 1.385 . S
C2624 H2605 0.951 . S
C2624 C2622 1.388 . S
C2624 C2625 1.366 . S
C2625 C2624 1.366 . S
C2625 C2626 1.414 . S
C2625 C2628 1.499 . S
C2626 H2606 0.950 . S
C2626 C2625 1.414 . S
C2626 C2627 1.374 . S
C2627 H2607 0.950 . S
C2627 C2623 1.385 . S
C2627 C2626 1.374 . S
C2628 C2625 1.499 . S
C2628 C2629 1.373 1_556 S
C2628 C2630 1.389 . S
C2629 H2608 0.950 . S
C2629 C2628 1.373 1_554 S
C2629 C2645 1.377 . S
C2630 C2628 1.389 . S
C2630 C2631 1.524 . S
C2630 C2644 1.377 . S
C2631 C2630 1.524 . S
C2631 C2632 1.397 . S
C2631 C2636 1.363 . S
C2632 H2609 0.950 . S
C2632 C2631 1.397 . S
C2632 C2633 1.334 . S
C2633 H2610 0.950 . S
C2633 C2632 1.334 . S
C2633 C2634 1.287 . S
C2634 C2633 1.287 . S
C2634 C2635 1.524 . S
C2634 H2653 0.913 . S
C2635 H2611 0.950 . S
C2635 C2634 1.524 . S
C2635 C2636 1.415 . S
C2636 H2612 0.950 . S
C2636 C2631 1.363 . S
C2636 C2635 1.415 . S
C2637 H2613 0.951 . S
C2637 C2638 1.366 . S
C2637 C2639 1.388 . S
C2638 C2637 1.366 . S
C2638 C2642 1.385 . S
C2639 H2614 0.951 . S
C2639 C2637 1.388 . S
C2639 C2640 1.366 . S
C2640 C2639 1.366 . S
C2640 C2641 1.414 . S
C2640 C2643 1.499 . S
C2641 H2615 0.950 . S
C2641 C2640 1.414 . S
C2641 C2642 1.374 . S
C2642 H2616 0.950 . S
C2642 C2638 1.385 . S
C2642 C2641 1.374 . S
C2643 C2640 1.499 . S
C2643 C2644 1.373 1_554 S
C2643 C2645 1.389 . S
C2644 H2617 0.950 . S
C2644 C2630 1.377 . S
C2644 C2643 1.373 1_556 S
C2645 C2629 1.377 . S
C2645 C2643 1.389 . S
C2645 C2646 1.524 . S
C2646 C2645 1.524 . S
C2646 C2647 1.397 . S
C2646 C2651 1.363 . S
C2647 H2618 0.950 . S
C2647 C2646 1.397 . S
C2647 C2648 1.334 . S
C2648 H2619 0.950 . S
C2648 C2647 1.334 . S
C2648 C2649 1.287 . S
C2649 C2648 1.287 . S
C2649 C2650 1.524 . S
C2649 H2652 0.999 . S
C2650 H2620 0.950 . S
C2650 C2649 1.524 . S
C2650 C2651 1.415 . S
C2651 H2621 0.950 . S
C2651 C2646 1.363 . S
C2651 C2650 1.415 . S
H2652 C2649 0.999 . S
H2653 C2634 0.913 . S
H2654 C2672 0.951 . S
H2655 C2674 0.951 . S
H2656 C2676 0.950 . S
H2657 C2677 0.950 . S
H2658 C2679 0.950 . S
H2659 C2682 0.950 . S
H2660 C2683 0.950 1_545 S
H2661 C2685 0.950 . S
H2662 C2686 0.950 . S
H2663 C2687 0.951 . S
H2664 C2689 0.951 . S
H2665 C2691 0.950 . S
H2666 C2692 0.950 . S
H2667 C2694 0.956 . S
H2668 C2697 0.950 . S
H2669 C2698 0.950 . S
H2670 C2700 0.950 . S
H2671 C2701 0.950 . S
C2672 H2654 0.951 . S
C2672 C2673 1.365 . S
C2672 C2674 1.388 . S
C2673 C2672 1.365 . S
C2673 C2677 1.388 1_565 S
C2674 H2655 0.951 . S
C2674 C2672 1.388 . S
C2674 C2675 1.366 1_565 S
C2675 C2674 1.366 1_545 S
C2675 C2676 1.414 . S
C2675 C2678 1.499 . S
C2676 H2656 0.950 . S
C2676 C2675 1.414 . S
C2676 C2677 1.374 . S
C2677 H2657 0.950 . S
C2677 C2673 1.388 1_545 S
C2677 C2676 1.374 . S
C2678 C2675 1.499 . S
C2678 C2679 1.373 1_556 S
C2678 C2680 1.389 . S
C2679 H2658 0.950 . S
C2679 C2678 1.373 1_554 S
C2679 C2695 1.377 . S
C2680 C2678 1.389 . S
C2680 C2681 1.524 1_545 S
C2680 C2694 1.387 . S
C2681 C2680 1.524 1_565 S
C2681 C2682 1.397 1_565 S
C2681 C2686 1.363 . S
C2682 H2659 0.950 . S
C2682 C2681 1.397 1_545 S
C2682 C2683 1.334 1_545 S
C2683 H2660 0.950 1_565 S
C2683 C2682 1.334 1_565 S
C2683 C2684 1.287 . S
C2684 C2683 1.287 . S
C2684 C2685 1.524 . S
C2684 H2703 0.913 . S
C2685 H2661 0.950 . S
C2685 C2684 1.524 . S
C2685 C2686 1.415 . S
C2686 H2662 0.950 . S
C2686 C2681 1.363 . S
C2686 C2685 1.415 . S
C2687 H2663 0.951 . S
C2687 C2688 1.366 . S
C2687 C2689 1.388 . S
C2688 C2687 1.366 . S
C2688 C2692 1.385 . S
C2689 H2664 0.951 . S
C2689 C2687 1.388 . S
C2689 C2690 1.366 . S
C2690 C2689 1.366 . S
C2690 C2691 1.414 . S
C2690 C2693 1.499 . S
C2691 H2665 0.950 . S
C2691 C2690 1.414 . S
C2691 C2692 1.374 . S
C2692 H2666 0.950 . S
C2692 C2688 1.385 . S
C2692 C2691 1.374 . S
C2693 C2690 1.499 . S
C2693 C2694 1.357 1_554 S
C2693 C2695 1.389 . S
C2694 H2667 0.956 . S
C2694 C2680 1.387 . S
C2694 C2693 1.357 1_556 S
C2695 C2679 1.377 . S
C2695 C2693 1.389 . S
C2695 C2696 1.524 . S
C2696 C2695 1.524 . S
C2696 C2697 1.397 . S
C2696 C2701 1.363 . S
C2697 H2668 0.950 . S
C2697 C2696 1.397 . S
C2697 C2698 1.334 . S
C2698 H2669 0.950 . S
C2698 C2697 1.334 . S
C2698 C2699 1.287 . S
C2699 C2698 1.287 . S
C2699 C2700 1.524 . S
C2699 H2702 0.999 . S
C2700 H2670 0.950 . S
C2700 C2699 1.524 . S
C2700 C2701 1.415 . S
C2701 H2671 0.950 . S
C2701 C2696 1.363 . S
C2701 C2700 1.415 . S
H2702 C2699 0.999 . S
H2703 C2684 0.913 . S
H2704 C2722 0.951 . S
H2705 C2724 0.951 . S
H2706 C2726 0.950 . S
H2707 C2727 0.950 . S
H2708 C2729 0.950 . S
H2709 C2732 0.950 . S
H2710 C2733 0.950 . S
H2711 C2735 0.950 . S
H2712 C2736 0.950 . S
H2713 C2737 0.972 . S
H2714 C2739 0.951 1_455 S
H2715 C2741 0.950 . S
H2716 C2742 0.950 . S
H2717 C2744 0.950 . S
H2718 C2747 0.950 1_655 S
H2719 C2748 0.950 . S
H2720 C2750 0.950 . S
H2721 C2751 0.943 1_554 S
C2722 H2704 0.951 . S
C2722 C2723 1.366 1_655 S
C2722 C2724 1.388 . S
C2723 C2722 1.366 1_455 S
C2723 C2727 1.385 . S
C2724 H2705 0.951 . S
C2724 C2722 1.388 . S
C2724 C2725 1.366 1_655 S
C2725 C2724 1.366 1_455 S
C2725 C2726 1.414 . S
C2725 C2728 1.499 1_455 S
C2726 H2706 0.950 . S
C2726 C2725 1.414 . S
C2726 C2727 1.374 . S
C2727 H2707 0.950 . S
C2727 C2723 1.385 . S
C2727 C2726 1.374 . S
C2728 C2725 1.499 1_655 S
C2728 C2729 1.373 1_655 S
C2728 C2730 1.389 1_556 S
C2729 H2708 0.950 . S
C2729 C2728 1.373 1_455 S
C2729 C2745 1.377 1_556 S
C2730 C2728 1.389 1_554 S
C2730 C2731 1.524 . S
C2730 C2744 1.377 . S
C2731 C2730 1.524 . S
C2731 C2732 1.397 . S
C2731 C2736 1.363 . S
C2732 H2709 0.950 . S
C2732 C2731 1.397 . S
C2732 C2733 1.334 . S
C2733 H2710 0.950 . S
C2733 C2732 1.334 . S
C2733 C2734 1.287 . S
C2734 C2733 1.287 . S
C2734 C2735 1.524 . S
C2734 H2753 0.913 . S
C2735 H2711 0.950 . S
C2735 C2734 1.524 . S
C2735 C2736 1.415 . S
C2736 H2712 0.950 . S
C2736 C2731 1.363 . S
C2736 C2735 1.415 . S
C2737 H2713 0.972 . S
C2737 C2738 1.366 . S
C2737 C2739 1.388 . S
C2738 C2737 1.366 . S
C2738 C2742 1.385 . S
C2739 H2714 0.951 1_655 S
C2739 C2737 1.388 . S
C2739 C2740 1.366 . S
C2740 C2739 1.366 . S
C2740 C2741 1.414 . S
C2740 C2743 1.499 . S
C2741 H2715 0.950 . S
C2741 C2740 1.414 . S
C2741 C2742 1.374 . S
C2742 H2716 0.950 . S
C2742 C2738 1.385 . S
C2742 C2741 1.374 . S
C2743 C2740 1.499 . S
C2743 C2744 1.373 . S
C2743 C2745 1.389 1_655 S
C2744 H2717 0.950 . S
C2744 C2730 1.377 . S
C2744 C2743 1.373 . S
C2745 C2729 1.377 1_554 S
C2745 C2743 1.389 1_455 S
C2745 C2746 1.524 1_554 S
C2746 C2745 1.524 1_556 S
C2746 C2747 1.397 . S
C2746 C2751 1.365 . S
C2747 H2718 0.950 1_455 S
C2747 C2746 1.397 . S
C2747 C2748 1.334 . S
C2748 H2719 0.950 . S
C2748 C2747 1.334 . S
C2748 C2749 1.287 . S
C2749 C2748 1.287 . S
C2749 C2750 1.524 . S
C2749 H2752 0.999 . S
C2750 H2720 0.950 . S
C2750 C2749 1.524 . S
C2750 C2751 1.420 . S
C2751 H2721 0.943 1_556 S
C2751 C2746 1.365 . S
C2751 C2750 1.420 . S
H2752 C2749 0.999 . S
H2753 C2734 0.913 . S
C973 C39 2.536 . S
C988 C781 2.536 1_554 S
C1023 C674 2.543 1_554 S
C1038 C91 2.542 . S
C1073 C144 2.543 . S
C1088 C728 2.535 1_554 S
C1123 C357 2.536 . S
C1138 C145 2.536 . S
C1173 C409 2.543 . S
C1188 C38 2.543 . S
C1223 C463 2.534 . S
C1238 C92 2.534 . S
C1273 C181 1.567 . S
C1288 C605 1.567 1_556 S
C1323 C499 1.566 1_556 S
C1338 C234 1.566 . S
C1373 C552 1.566 1_556 S
C1388 C294 1.559 . S
C1423 C287 1.567 . S
C1438 C817 1.567 . S
C1473 C188 1.559 . S
C1488 C870 1.566 . S
C1523 C930 1.558 . S
C1538 C241 1.559 . S
C1573 C675 2.535 . S
C1588 C462 2.543 . S
C1623 C356 2.542 . S
C1638 C727 2.542 . S
C1673 C780 2.543 . S
C1688 C410 2.535 . S
C1723 C923 1.567 . S
C1738 C506 1.559 . S
C1773 C559 1.558 . S
C1788 C824 1.558 . S
C1823 C877 1.557 . S
C1838 C612 1.557 . S
C1873 C833 1.585 . S
C1888 C29 1.589 . S
C1923 C75 1.586 . S
C1938 C886 1.585 . S
C1973 C128 1.586 . S
C1988 C940 1.589 . S
C2023 C135 1.589 . S
C2038 C621 1.586 . S
C2073 C515 1.586 . S
C2088 C22 1.586 . S
C2123 C82 1.590 . S
C2138 C568 1.586 . S
C2173 C347 1.589 . S
C2188 C197 1.586 . S
C2223 C393 1.586 . S
C2238 C250 1.586 . S
C2273 C304 1.589 . S
C2288 C453 1.589 . S
C2323 C303 1.585 . S
C2338 C771 1.589 . S
C2373 C198 1.589 . S
C2388 C658 1.586 . S
C2423 C251 1.589 . S
C2438 C718 1.589 . S
C2473 C446 1.586 . S
C2488 C939 1.586 . S
C2523 C340 1.586 . S
C2538 C834 1.589 . S
C2573 C887 1.590 . S
C2588 C400 1.588 . S
C2623 C665 1.589 . S
C2638 C516 1.589 . S
C2673 C711 1.585 . S
C2688 C569 1.590 . S
C2723 C764 1.586 . S
C2738 C622 1.589 . S
