# Generated by pormake.
# Topology yfc, (5)-cn, num edge types: 1
# Building blocks:
#     Node 0, Type 0, BuildingBlock: XOMCOT_clean_sbu_0, # of connection points: 5
#     Node 1, Type 0, BuildingBlock: XOMCOT_clean_sbu_0, # of connection points: 5
#     Node 2, Type 0, BuildingBlock: XOMCOT_clean_sbu_0, # of connection points: 5
#     Node 3, Type 0, BuildingBlock: XOMCOT_clean_sbu_0, # of connection points: 5
#     Node 4, Type 0, BuildingBlock: XOMCOT_clean_sbu_0, # of connection points: 5
#     Node 5, Type 0, BuildingBlock: XOMCOT_clean_sbu_0, # of connection points: 5
#     Node 6, Type 0, BuildingBlock: XOMCOT_clean_sbu_0, # of connection points: 5
#     Node 7, Type 0, BuildingBlock: XOMCOT_clean_sbu_0, # of connection points: 5
#     Node 8, Type 0, BuildingBlock: XOMCOT_clean_sbu_0, # of connection points: 5
#     Node 9, Type 0, BuildingBlock: XOMCOT_clean_sbu_0, # of connection points: 5
#     Node 10, Type 0, BuildingBlock: XOMCOT_clean_sbu_0, # of connection points: 5
#     Node 11, Type 0, BuildingBlock: XOMCOT_clean_sbu_0, # of connection points: 5
#     Node 12, Type 0, BuildingBlock: XOMCOT_clean_sbu_0, # of connection points: 5
#     Node 13, Type 0, BuildingBlock: XOMCOT_clean_sbu_0, # of connection points: 5
#     Node 14, Type 0, BuildingBlock: XOMCOT_clean_sbu_0, # of connection points: 5
#     Node 15, Type 0, BuildingBlock: XOMCOT_clean_sbu_0, # of connection points: 5
#     Edge 16, Type (0, 0), BuildingBlock: XIVTED_clean_linker_0, # of connection points: 2
#     Edge 17, Type (0, 0), BuildingBlock: XIVTED_clean_linker_0, # of connection points: 2
#     Edge 18, Type (0, 0), BuildingBlock: XIVTED_clean_linker_0, # of connection points: 2
#     Edge 19, Type (0, 0), BuildingBlock: XIVTED_clean_linker_0, # of connection points: 2
#     Edge 20, Type (0, 0), BuildingBlock: XIVTED_clean_linker_0, # of connection points: 2
#     Edge 21, Type (0, 0), BuildingBlock: XIVTED_clean_linker_0, # of connection points: 2
#     Edge 22, Type (0, 0), BuildingBlock: XIVTED_clean_linker_0, # of connection points: 2
#     Edge 23, Type (0, 0), BuildingBlock: XIVTED_clean_linker_0, # of connection points: 2
#     Edge 24, Type (0, 0), BuildingBlock: XIVTED_clean_linker_0, # of connection points: 2
#     Edge 25, Type (0, 0), BuildingBlock: XIVTED_clean_linker_0, # of connection points: 2
#     Edge 26, Type (0, 0), BuildingBlock: XIVTED_clean_linker_0, # of connection points: 2
#     Edge 27, Type (0, 0), BuildingBlock: XIVTED_clean_linker_0, # of connection points: 2
#     Edge 28, Type (0, 0), BuildingBlock: XIVTED_clean_linker_0, # of connection points: 2
#     Edge 29, Type (0, 0), BuildingBlock: XIVTED_clean_linker_0, # of connection points: 2
#     Edge 30, Type (0, 0), BuildingBlock: XIVTED_clean_linker_0, # of connection points: 2
#     Edge 31, Type (0, 0), BuildingBlock: XIVTED_clean_linker_0, # of connection points: 2
#     Edge 32, Type (0, 0), BuildingBlock: XIVTED_clean_linker_0, # of connection points: 2
#     Edge 33, Type (0, 0), BuildingBlock: XIVTED_clean_linker_0, # of connection points: 2
#     Edge 34, Type (0, 0), BuildingBlock: XIVTED_clean_linker_0, # of connection points: 2
#     Edge 35, Type (0, 0), BuildingBlock: XIVTED_clean_linker_0, # of connection points: 2
#     Edge 36, Type (0, 0), BuildingBlock: XIVTED_clean_linker_0, # of connection points: 2
#     Edge 37, Type (0, 0), BuildingBlock: XIVTED_clean_linker_0, # of connection points: 2
#     Edge 38, Type (0, 0), BuildingBlock: XIVTED_clean_linker_0, # of connection points: 2
#     Edge 39, Type (0, 0), BuildingBlock: XIVTED_clean_linker_0, # of connection points: 2
#     Edge 40, Type (0, 0), BuildingBlock: XIVTED_clean_linker_0, # of connection points: 2
#     Edge 41, Type (0, 0), BuildingBlock: XIVTED_clean_linker_0, # of connection points: 2
#     Edge 42, Type (0, 0), BuildingBlock: XIVTED_clean_linker_0, # of connection points: 2
#     Edge 43, Type (0, 0), BuildingBlock: XIVTED_clean_linker_0, # of connection points: 2
#     Edge 44, Type (0, 0), BuildingBlock: XIVTED_clean_linker_0, # of connection points: 2
#     Edge 45, Type (0, 0), BuildingBlock: XIVTED_clean_linker_0, # of connection points: 2
#     Edge 46, Type (0, 0), BuildingBlock: XIVTED_clean_linker_0, # of connection points: 2
#     Edge 47, Type (0, 0), BuildingBlock: XIVTED_clean_linker_0, # of connection points: 2
#     Edge 48, Type (0, 0), BuildingBlock: XIVTED_clean_linker_0, # of connection points: 2
#     Edge 49, Type (0, 0), BuildingBlock: XIVTED_clean_linker_0, # of connection points: 2
#     Edge 50, Type (0, 0), BuildingBlock: XIVTED_clean_linker_0, # of connection points: 2
#     Edge 51, Type (0, 0), BuildingBlock: XIVTED_clean_linker_0, # of connection points: 2
#     Edge 52, Type (0, 0), BuildingBlock: XIVTED_clean_linker_0, # of connection points: 2
#     Edge 53, Type (0, 0), BuildingBlock: XIVTED_clean_linker_0, # of connection points: 2
#     Edge 54, Type (0, 0), BuildingBlock: XIVTED_clean_linker_0, # of connection points: 2
#     Edge 55, Type (0, 0), BuildingBlock: XIVTED_clean_linker_0, # of connection points: 2
# Relax obj value: 0.558
# Max RMSD: 0.288
# Mean RMSD: 0.268
data_MOF--net-yfc--node1-XOMCOT_clean_sbu_0--edge1-XIVTED_clean_linker_0
_symmetry_space_group_name_H-M    P1
_symmetry_Int_Tables_number       1
_symmetry_cell_setting            triclinic
loop_
_symmetry_equiv_pos_as_xyz
'x, y, z'
_cell_length_a     40.772727
_cell_length_b     40.776511
_cell_length_c     48.514455
_cell_angle_alpha  89.959803
_cell_angle_beta   89.988389
_cell_angle_gamma 90.001327
loop_
_atom_site_label
_atom_site_type_symbol
_atom_site_fract_x
_atom_site_fract_y
_atom_site_fract_z
_atom_type_partial_charge
Co0 Co 0.72337 0.04303 0.20681 0.0
C1 C 0.73167 0.10994 0.18285 0.0
C2 C 0.69206 0.10703 0.21197 0.0
C3 C 0.69343 0.13841 0.20195 0.0
N4 N 0.71568 0.08905 0.19977 0.0
N5 N 0.71822 0.14027 0.18363 0.0
H6 H 0.75254 0.10311 0.17031 0.0
H7 H 0.67529 0.0982 0.22755 0.0
C8 C 0.64929 0.02774 0.20464 0.0
O9 O 0.64986 0.01245 0.18086 0.0
N10 N 0.73025 0.99677 0.21564 0.0
C11 C 0.75869 0.97963 0.21613 0.0
C12 C 0.7528 0.94865 0.2265 0.0
C13 C 0.70795 0.97625 0.22687 0.0
N14 N 0.72092 0.9469 0.23341 0.0
C15 C 0.74144 0.01443 0.15534 0.0
C16 C 0.69788 0.04856 0.12253 0.0
C17 C 0.72199 0.02911 0.10994 0.0
C18 C 0.74345 0.01144 0.12681 0.0
C19 C 0.69627 0.05034 0.1514 0.0
N20 N 0.71805 0.03346 0.16755 0.0
H21 H 0.76038 0.00308 0.16734 0.0
H22 H 0.67834 0.06644 0.16069 0.0
H23 H 0.7824 0.98907 0.21008 0.0
H24 H 0.6828 0.98255 0.23111 0.0
O25 O 0.77 0.05088 0.20643 0.0
O26 O 0.73816 0.05438 0.24342 0.0
O27 O 0.67539 0.03879 0.21577 0.0
C28 C 0.76725 0.05742 0.23259 0.0
H29 H 0.67821 0.15869 0.20855 0.0
H30 H 0.77073 0.92946 0.22978 0.0
H31 H 0.68092 0.06282 0.11022 0.0
H32 H 0.76313 0.99696 0.11802 0.0
Co33 Co 0.45774 0.72251 0.6982 0.0
C34 C 0.39049 0.73077 0.67503 0.0
C35 C 0.39314 0.69359 0.70637 0.0
C36 C 0.36157 0.69493 0.69679 0.0
N37 N 0.41137 0.71567 0.69251 0.0
N38 N 0.35989 0.71816 0.67705 0.0
H39 H 0.39756 0.75031 0.66114 0.0
H40 H 0.402 0.67787 0.7227 0.0
C41 C 0.47042 0.64763 0.69823 0.0
O42 O 0.48388 0.64585 0.67371 0.0
N43 N 0.50443 0.72855 0.7057 0.0
C44 C 0.5222 0.7566 0.70535 0.0
C45 C 0.55328 0.7503 0.71533 0.0
C46 C 0.52475 0.70608 0.71694 0.0
N47 N 0.5545 0.71857 0.7228 0.0
C48 C 0.48526 0.7379 0.6458 0.0
C49 C 0.44955 0.6938 0.61476 0.0
C50 C 0.46959 0.7167 0.60126 0.0
C51 C 0.48795 0.7385 0.61723 0.0
C52 C 0.44815 0.69351 0.64369 0.0
N53 N 0.46591 0.71549 0.65894 0.0
H54 H 0.49723 0.75707 0.65708 0.0
H55 H 0.43172 0.67646 0.65373 0.0
H56 H 0.5131 0.78037 0.69908 0.0
H57 H 0.51799 0.68121 0.7218 0.0
O58 O 0.45082 0.76934 0.69686 0.0
O59 O 0.44812 0.7387 0.73463 0.0
O60 O 0.46113 0.67487 0.7085 0.0
C61 C 0.44525 0.76749 0.72325 0.0
H62 H 0.34109 0.68075 0.70454 0.0
H63 H 0.57285 0.76793 0.71813 0.0
H64 H 0.43467 0.67673 0.6031 0.0
H65 H 0.50288 0.75731 0.60765 0.0
Co66 Co 0.78525 0.45817 0.20415 0.0
C67 C 0.77752 0.39144 0.17962 0.0
C68 C 0.81967 0.39531 0.206 0.0
C69 C 0.81887 0.3643 0.19523 0.0
N70 N 0.79413 0.41257 0.19591 0.0
N71 N 0.79249 0.36187 0.17868 0.0
H72 H 0.75513 0.39751 0.16878 0.0
H73 H 0.8375 0.40425 0.22065 0.0
C74 C 0.85929 0.47433 0.2026 0.0
O75 O 0.85908 0.48904 0.17854 0.0
N76 N 0.77725 0.50394 0.21411 0.0
C77 C 0.74832 0.52016 0.21568 0.0
C78 C 0.75367 0.55109 0.22634 0.0
C79 C 0.79937 0.52496 0.2249 0.0
N80 N 0.78576 0.55372 0.2323 0.0
C81 C 0.76693 0.48883 0.15355 0.0
C82 C 0.80993 0.45563 0.11962 0.0
C83 C 0.78552 0.47529 0.10764 0.0
C84 C 0.76441 0.49256 0.1251 0.0
C85 C 0.81202 0.45305 0.14842 0.0
N86 N 0.79045 0.46938 0.16515 0.0
H87 H 0.74816 0.49985 0.16597 0.0
H88 H 0.83015 0.43675 0.15716 0.0
H89 H 0.72471 0.51016 0.21 0.0
H90 H 0.82491 0.51951 0.22814 0.0
O91 O 0.73881 0.44925 0.20335 0.0
O92 O 0.77047 0.4451 0.24039 0.0
O93 O 0.83304 0.46337 0.21357 0.0
C94 C 0.74151 0.4419 0.22936 0.0
H95 H 0.83559 0.34451 0.20016 0.0
H96 H 0.73532 0.56964 0.23043 0.0
H97 H 0.8267 0.44171 0.10686 0.0
H98 H 0.74454 0.50721 0.11683 0.0
Co99 Co 0.04458 0.78746 0.70141 0.0
C100 C 0.11027 0.77938 0.67521 0.0
C101 C 0.1083 0.82054 0.7028 0.0
C102 C 0.1389 0.81948 0.6912 0.0
N103 N 0.0901 0.79581 0.69245 0.0
N104 N 0.14011 0.79373 0.67388 0.0
H105 H 0.10332 0.75757 0.66392 0.0
H106 H 0.10029 0.83794 0.71816 0.0
C107 C 0.03307 0.86272 0.7037 0.0
O108 O 0.02216 0.8665 0.67847 0.0
N109 N 0.99898 0.77992 0.7121 0.0
C110 C 0.98285 0.7511 0.71507 0.0
C111 C 0.95229 0.75699 0.72633 0.0
C112 C 0.97812 0.80262 0.72223 0.0
N113 N 0.94976 0.78938 0.73101 0.0
C114 C 0.01083 0.77313 0.65137 0.0
C115 C 0.0466 0.81406 0.61743 0.0
C116 C 0.02555 0.79088 0.60546 0.0
C117 C 0.00681 0.77103 0.62291 0.0
C118 C 0.04947 0.81581 0.6462 0.0
N119 N 0.03213 0.79503 0.66294 0.0
H120 H 0.9986 0.75507 0.66378 0.0
H121 H 0.06708 0.83271 0.65482 0.0
H122 H 0.99271 0.72724 0.71 0.0
H123 H 0.98344 0.8284 0.72401 0.0
O124 O 0.0526 0.7409 0.69859 0.0
O125 O 0.0584 0.77055 0.73665 0.0
O126 O 0.04064 0.83458 0.71327 0.0
C127 C 0.06083 0.74218 0.72451 0.0
H128 H 0.15925 0.83552 0.69606 0.0
H129 H 0.93404 0.73884 0.73183 0.0
H130 H 0.06158 0.82992 0.60468 0.0
H131 H 0.99087 0.75219 0.61465 0.0
Co132 Co 0.71807 0.46202 0.81176 0.0
C133 C 0.72483 0.39502 0.83563 0.0
C134 C 0.68265 0.39954 0.80936 0.0
C135 C 0.68335 0.36832 0.81979 0.0
N136 N 0.70828 0.4165 0.81963 0.0
N137 N 0.70977 0.36552 0.83627 0.0
H138 H 0.74729 0.4008 0.84648 0.0
H139 H 0.66494 0.40876 0.79474 0.0
C140 C 0.6429 0.47399 0.81107 0.0
O141 O 0.63969 0.4808 0.83734 0.0
N142 N 0.7267 0.50767 0.80247 0.0
C143 C 0.7535 0.52119 0.79066 0.0
C144 C 0.74692 0.55358 0.78462 0.0
C145 C 0.7046 0.5322 0.80382 0.0
N146 N 0.71607 0.56037 0.79283 0.0
C147 C 0.73459 0.49476 0.86161 0.0
C148 C 0.69581 0.4581 0.89667 0.0
C149 C 0.71938 0.47922 0.90799 0.0
C150 C 0.73817 0.49838 0.89002 0.0
C151 C 0.69257 0.45561 0.86797 0.0
N152 N 0.71219 0.47348 0.85065 0.0
H153 H 0.75184 0.50742 0.84855 0.0
H154 H 0.67539 0.43792 0.85987 0.0
H155 H 0.77604 0.50847 0.78591 0.0
H156 H 0.67997 0.52914 0.81153 0.0
O157 O 0.76438 0.4523 0.81366 0.0
O158 O 0.73378 0.4487 0.77594 0.0
O159 O 0.67097 0.46848 0.80037 0.0
C160 C 0.76223 0.44461 0.78767 0.0
H161 H 0.66659 0.34866 0.81463 0.0
H162 H 0.7633 0.5705 0.77432 0.0
H163 H 0.68074 0.44283 0.90984 0.0
H164 H 0.75725 0.5144 0.89776 0.0
Co165 Co 0.04372 0.72124 0.30939 0.0
C166 C 0.1117 0.72833 0.33146 0.0
C167 C 0.10611 0.6862 0.30531 0.0
C168 C 0.13787 0.6872 0.31443 0.0
N169 N 0.0895 0.71164 0.31627 0.0
N170 N 0.14141 0.71359 0.33086 0.0
H171 H 0.10629 0.75075 0.3425 0.0
H172 H 0.09628 0.66852 0.29095 0.0
C173 C 0.03087 0.64649 0.31106 0.0
O174 O 0.02325 0.64506 0.33729 0.0
N175 N 0.99774 0.72957 0.30107 0.0
C176 C 0.98379 0.75573 0.28863 0.0
C177 C 0.95109 0.74901 0.28399 0.0
C178 C 0.97319 0.70773 0.30415 0.0
N179 N 0.94455 0.71871 0.29369 0.0
C180 C 0.01251 0.73895 0.35963 0.0
C181 C 0.04958 0.70047 0.39461 0.0
C182 C 0.02845 0.72402 0.40598 0.0
C183 C 0.00922 0.74278 0.38804 0.0
C184 C 0.05181 0.69705 0.3659 0.0
N185 N 0.03354 0.71635 0.34863 0.0
H186 H 0.99967 0.75606 0.34656 0.0
H187 H 0.06933 0.67975 0.3577 0.0
H188 H 0.99638 0.77789 0.28254 0.0
H189 H 0.9765 0.6836 0.31279 0.0
O190 O 0.05331 0.76752 0.31038 0.0
O191 O 0.05598 0.7363 0.273 0.0
O192 O 0.037 0.67376 0.29918 0.0
C193 C 0.06039 0.76495 0.2843 0.0
H194 H 0.15733 0.67067 0.30831 0.0
H195 H 0.93378 0.76489 0.27361 0.0
H196 H 0.06494 0.68544 0.40773 0.0
H197 H 0.99327 0.76192 0.39578 0.0
Co198 Co 0.78258 0.04692 0.81236 0.0
C199 C 0.7749 0.11417 0.83512 0.0
C200 C 0.81555 0.11041 0.80713 0.0
C201 C 0.81389 0.14207 0.81653 0.0
N202 N 0.79142 0.09282 0.81904 0.0
N203 N 0.7884 0.14443 0.83412 0.0
H204 H 0.75348 0.10771 0.84714 0.0
H205 H 0.83271 0.10126 0.792 0.0
C206 C 0.85801 0.03651 0.81193 0.0
O207 O 0.86142 0.03041 0.8383 0.0
N208 N 0.77479 0.00081 0.80428 0.0
C209 C 0.74782 0.98632 0.79365 0.0
C210 C 0.75471 0.95375 0.78864 0.0
C211 C 0.79735 0.97672 0.80591 0.0
N212 N 0.78596 0.94783 0.79628 0.0
C213 C 0.76661 0.01568 0.86304 0.0
C214 C 0.80553 0.05343 0.8971 0.0
C215 C 0.78249 0.03214 0.90901 0.0
C216 C 0.76353 0.01255 0.89152 0.0
C217 C 0.80822 0.05547 0.86833 0.0
N218 N 0.78865 0.03692 0.85151 0.0
H219 H 0.74934 0.00255 0.85035 0.0
H220 H 0.82499 0.07325 0.85974 0.0
H221 H 0.72488 0.99843 0.78916 0.0
H222 H 0.82215 0.98054 0.81294 0.0
O223 O 0.73607 0.05591 0.81393 0.0
O224 O 0.76677 0.05865 0.7762 0.0
O225 O 0.82984 0.04113 0.80115 0.0
C226 C 0.73824 0.06277 0.78776 0.0
H227 H 0.8293 0.16219 0.80987 0.0
H228 H 0.7382 0.93606 0.7795 0.0
H229 H 0.82067 0.06908 0.90987 0.0
H230 H 0.74478 0.99643 0.89971 0.0
Co231 Co 0.4625 0.77804 0.30327 0.0
C232 C 0.39393 0.77314 0.32454 0.0
C233 C 0.40035 0.81221 0.29529 0.0
C234 C 0.36841 0.81244 0.30404 0.0
N235 N 0.41651 0.78797 0.30842 0.0
N236 N 0.36438 0.78803 0.32248 0.0
H237 H 0.3991 0.75223 0.33758 0.0
H238 H 0.41081 0.82835 0.27995 0.0
C239 C 0.47656 0.85238 0.30573 0.0
O240 O 0.48496 0.85283 0.33182 0.0
N241 N 0.50881 0.76927 0.29662 0.0
C242 C 0.52305 0.74267 0.28512 0.0
C243 C 0.55599 0.74898 0.28132 0.0
C244 C 0.53343 0.79095 0.30002 0.0
N245 N 0.56239 0.77946 0.29063 0.0
C246 C 0.4905 0.75984 0.35457 0.0
C247 C 0.45262 0.79935 0.38807 0.0
C248 C 0.47253 0.77528 0.40023 0.0
C249 C 0.49216 0.75597 0.38305 0.0
C250 C 0.45203 0.80278 0.3593 0.0
N251 N 0.47067 0.78293 0.34278 0.0
H252 H 0.50361 0.74242 0.34199 0.0
H253 H 0.43548 0.82056 0.35038 0.0
H254 H 0.51054 0.72048 0.27906 0.0
H255 H 0.53006 0.81533 0.30805 0.0
O256 O 0.45251 0.7319 0.30413 0.0
O257 O 0.45197 0.76292 0.26651 0.0
O258 O 0.46978 0.82558 0.29339 0.0
C259 C 0.44674 0.73438 0.27782 0.0
H260 H 0.34929 0.8286 0.29661 0.0
H261 H 0.57358 0.73272 0.27172 0.0
H262 H 0.43703 0.81483 0.40061 0.0
H263 H 0.50722 0.73646 0.3914 0.0
Co264 Co 0.28249 0.96431 0.85082 0.0
C265 C 0.31529 0.02088 0.82395 0.0
C266 C 0.32531 0.01977 0.86719 0.0
C267 C 0.34381 0.04436 0.85536 0.0
N268 N 0.30668 0.00545 0.8476 0.0
N269 N 0.33764 0.04486 0.82807 0.0
H270 H 0.30719 0.01339 0.80378 0.0
H271 H 0.32734 0.01151 0.88828 0.0
C272 C 0.26654 0.99536 0.90617 0.0
O273 O 0.25805 0.02296 0.89412 0.0
N274 N 0.25939 0.92293 0.85347 0.0
C275 C 0.23537 0.91245 0.83652 0.0
C276 C 0.22747 0.88074 0.84326 0.0
C277 C 0.26642 0.89706 0.86984 0.0
N278 N 0.24708 0.87099 0.86407 0.0
C279 C 0.23684 0.9948 0.81421 0.0
C280 C 0.18231 0.985 0.84687 0.0
C281 C 0.17776 0.99043 0.81851 0.0
C282 C 0.20562 0.99742 0.80259 0.0
C283 C 0.21402 0.98191 0.85758 0.0
N284 N 0.24098 0.9854 0.84101 0.0
H285 H 0.2574 0.99607 0.80044 0.0
H286 H 0.2164 0.97265 0.87829 0.0
H287 H 0.22523 0.92629 0.81955 0.0
H288 H 0.28604 0.89693 0.88487 0.0
O289 O 0.29703 0.95171 0.81436 0.0
O290 O 0.32367 0.94111 0.85318 0.0
O291 O 0.27587 0.97084 0.89175 0.0
C292 C 0.32206 0.93818 0.82652 0.0
H293 H 0.36212 0.05907 0.86575 0.0
H294 H 0.21014 0.86529 0.83243 0.0
H295 H 0.16168 0.98016 0.86031 0.0
H296 H 0.20389 0.0013 0.78057 0.0
Co297 Co 0.5384 0.2721 0.34396 0.0
C298 C 0.48751 0.31655 0.32099 0.0
C299 C 0.46937 0.28876 0.35529 0.0
C300 C 0.44368 0.30614 0.34392 0.0
N301 N 0.49693 0.2953 0.34093 0.0
N302 N 0.45518 0.32357 0.32236 0.0
H303 H 0.50334 0.32528 0.30469 0.0
H304 H 0.46757 0.27125 0.37197 0.0
C305 C 0.542 0.2412 0.40074 0.0
O306 O 0.56286 0.21954 0.39114 0.0
N307 N 0.58014 0.24881 0.34575 0.0
C308 C 0.58838 0.22097 0.33234 0.0
C309 C 0.62092 0.21433 0.33692 0.0
C310 C 0.60827 0.25901 0.35784 0.0
N311 N 0.63345 0.23826 0.35286 0.0
C312 C 0.51382 0.23092 0.30146 0.0
C313 C 0.50429 0.17551 0.33304 0.0
C314 C 0.50776 0.17196 0.30436 0.0
C315 C 0.50995 0.20066 0.28847 0.0
C316 C 0.5086 0.20634 0.34522 0.0
N317 N 0.51666 0.23294 0.32946 0.0
H318 H 0.51768 0.25224 0.28871 0.0
H319 H 0.50719 0.20794 0.36725 0.0
H320 H 0.57252 0.20671 0.31925 0.0
H321 H 0.6104 0.28133 0.36975 0.0
O322 O 0.55343 0.29078 0.30955 0.0
O323 O 0.56137 0.31308 0.35057 0.0
O324 O 0.52813 0.26164 0.38431 0.0
C325 C 0.56629 0.31422 0.32409 0.0
H326 H 0.41834 0.30529 0.35054 0.0
H327 H 0.63469 0.19429 0.32798 0.0
H328 H 0.50049 0.15438 0.34619 0.0
H329 H 0.51199 0.1998 0.26625 0.0
Co330 Co 0.22672 0.54157 0.84631 0.0
C331 C 0.19281 0.4856 0.81954 0.0
C332 C 0.18262 0.48734 0.86276 0.0
C333 C 0.16362 0.46308 0.85108 0.0
N334 N 0.20163 0.50104 0.8431 0.0
N335 N 0.16988 0.46218 0.82381 0.0
H336 H 0.20122 0.49268 0.79936 0.0
H337 H 0.18075 0.49584 0.88379 0.0
C338 C 0.24269 0.50915 0.90134 0.0
O339 O 0.24962 0.48113 0.88931 0.0
N340 N 0.25078 0.58238 0.84912 0.0
C341 C 0.27457 0.59287 0.83194 0.0
C342 C 0.28322 0.62425 0.83912 0.0
C343 C 0.24473 0.60785 0.86614 0.0
N344 N 0.26437 0.63375 0.8605 0.0
C345 C 0.27087 0.51205 0.80799 0.0
C346 C 0.32612 0.51786 0.8404 0.0
C347 C 0.33014 0.51438 0.81177 0.0
C348 C 0.30182 0.50932 0.79589 0.0
C349 C 0.29469 0.52138 0.85158 0.0
N350 N 0.26742 0.51986 0.8352 0.0
H351 H 0.25007 0.51231 0.79442 0.0
H352 H 0.29297 0.52936 0.87269 0.0
H353 H 0.28404 0.57934 0.81454 0.0
H354 H 0.22558 0.60784 0.8816 0.0
O355 O 0.21114 0.55538 0.81042 0.0
O356 O 0.18616 0.56552 0.85007 0.0
O357 O 0.23441 0.5341 0.88696 0.0
C358 C 0.18688 0.56916 0.82345 0.0
H359 H 0.14493 0.44891 0.86154 0.0
H360 H 0.30055 0.63969 0.82825 0.0
H361 H 0.34704 0.52095 0.85388 0.0
H362 H 0.30304 0.50692 0.77371 0.0
Co363 Co 0.9678 0.23168 0.34434 0.0
C364 C 0.02322 0.19718 0.31855 0.0
C365 C 0.02495 0.19246 0.36254 0.0
C366 C 0.04984 0.17382 0.35125 0.0
N367 N 0.00837 0.20716 0.34196 0.0
N368 N 0.04858 0.17664 0.32351 0.0
H369 H 0.01493 0.20404 0.29821 0.0
H370 H 0.01858 0.1939 0.38414 0.0
C371 C 0.96546 0.26568 0.39979 0.0
O372 O 0.94569 0.28781 0.38933 0.0
N373 N 0.92644 0.25575 0.34564 0.0
C374 C 0.91859 0.28374 0.33223 0.0
C375 C 0.88614 0.29083 0.33678 0.0
C376 C 0.89819 0.24608 0.35785 0.0
N377 N 0.87327 0.2671 0.35278 0.0
C378 C 0.99035 0.27211 0.30024 0.0
C379 C 0.0052 0.3268 0.33121 0.0
C380 C 0.99994 0.33055 0.30275 0.0
C381 C 0.99498 0.30213 0.28707 0.0
C382 C 1.00061 0.29605 0.3436 0.0
N383 N 0.99003 0.26991 0.32837 0.0
H384 H 0.98366 0.25148 0.28762 0.0
H385 H 0.00382 0.29424 0.36551 0.0
H386 H 0.93469 0.29803 0.31938 0.0
H387 H 0.89577 0.2239 0.36992 0.0
O388 O 0.95267 0.21135 0.31069 0.0
O389 O 0.94433 0.19132 0.35245 0.0
O390 O 0.97854 0.24392 0.38417 0.0
C391 C 0.93987 0.18862 0.32601 0.0
H392 H 0.06647 0.15815 0.36259 0.0
H393 H 0.87268 0.3111 0.32785 0.0
H394 H 0.01075 0.34777 0.34408 0.0
H395 H 0.99114 0.30329 0.26501 0.0
Co396 Co 0.27274 0.53458 0.1644 0.0
C397 C 0.31703 0.48322 0.18691 0.0
C398 C 0.28831 0.46529 0.1531 0.0
C399 C 0.30565 0.43945 0.16427 0.0
N400 N 0.29546 0.49281 0.16727 0.0
N401 N 0.32366 0.45082 0.18553 0.0
H402 H 0.32628 0.49901 0.20302 0.0
H403 H 0.27045 0.46364 0.1367 0.0
C404 C 0.24242 0.53899 0.10743 0.0
O405 O 0.22176 0.5611 0.1166 0.0
N406 N 0.24995 0.57662 0.16285 0.0
C407 C 0.22247 0.58511 0.17669 0.0
C408 C 0.21617 0.61775 0.17239 0.0
C409 C 0.26041 0.60478 0.15092 0.0
N410 N 0.24003 0.63015 0.15628 0.0
C411 C 0.2322 0.50916 0.20695 0.0
C412 C 0.17529 0.50414 0.17653 0.0
C413 C 0.17294 0.50614 0.20539 0.0
C414 C 0.20223 0.50603 0.22059 0.0
C415 C 0.20587 0.50755 0.16371 0.0
N416 N 0.23339 0.51334 0.17904 0.0
H417 H 0.25415 0.51143 0.21922 0.0
H418 H 0.20657 0.50766 0.14162 0.0
H419 H 0.20837 0.5694 0.19004 0.0
H420 H 0.28266 0.60681 0.13888 0.0
O421 O 0.2918 0.54929 0.19871 0.0
O422 O 0.3139 0.55698 0.15753 0.0
O423 O 0.26194 0.52435 0.12415 0.0
C424 C 0.31531 0.56183 0.184 0.0
H425 H 0.30438 0.41411 0.15774 0.0
H426 H 0.19649 0.63172 0.1817 0.0
H427 H 0.15351 0.50236 0.16386 0.0
H428 H 0.20213 0.50691 0.24289 0.0
Co429 Co 0.96155 0.28207 0.66096 0.0
C430 C 0.01806 0.31669 0.68672 0.0
C431 C 0.01558 0.3256 0.64332 0.0
C432 C 0.04014 0.34474 0.65426 0.0
N433 N 0.00212 0.30726 0.66353 0.0
N434 N 0.04162 0.33927 0.68165 0.0
H435 H 0.01074 0.30956 0.70722 0.0
H436 H 0.00687 0.3268 0.62232 0.0
C437 C 0.99333 0.26508 0.60615 0.0
O438 O 0.02089 0.25742 0.61863 0.0
N439 N 0.92072 0.25802 0.65877 0.0
C440 C 0.91047 0.23447 0.67629 0.0
C441 C 0.87897 0.22577 0.66953 0.0
C442 C 0.89495 0.26397 0.64203 0.0
N443 N 0.86916 0.24442 0.64812 0.0
C444 C 0.99268 0.23824 0.6987 0.0
C445 C 0.98341 0.18253 0.66743 0.0
C446 C 0.98824 0.17902 0.69596 0.0
C447 C 0.99509 0.20746 0.71119 0.0
C448 C 0.9804 0.21382 0.65586 0.0
N449 N 0.98347 0.24136 0.67176 0.0
H450 H 0.99384 0.25935 0.71189 0.0
H451 H 0.97138 0.21539 0.63503 0.0
H452 H 0.92428 0.22523 0.69364 0.0
H453 H 0.89467 0.28303 0.62648 0.0
O454 O 0.94853 0.29745 0.69707 0.0
O455 O 0.93739 0.32262 0.65767 0.0
O456 O 0.96842 0.27432 0.62017 0.0
C457 C 0.93429 0.32168 0.68435 0.0
H458 H 0.05481 0.36228 0.64294 0.0
H459 H 0.86365 0.20861 0.68071 0.0
H460 H 0.97884 0.16142 0.65447 0.0
H461 H 0.99866 0.20653 0.73328 0.0
Co462 Co 0.23319 0.96424 0.16784 0.0
C463 C 0.19824 0.02006 0.19306 0.0
C464 C 0.19466 0.0214 0.14896 0.0
C465 C 0.17621 0.04671 0.1597 0.0
N466 N 0.20852 0.00475 0.16992 0.0
N467 N 0.17839 0.04577 0.18747 0.0
H468 H 0.20379 0.01153 0.21363 0.0
H469 H 0.19677 0.01503 0.12742 0.0
C470 C 0.26628 0.96119 0.11189 0.0
O471 O 0.28818 0.94093 0.12201 0.0
N472 N 0.2574 0.92299 0.16678 0.0
C473 C 0.28517 0.91518 0.1805 0.0
C474 C 0.2924 0.88275 0.176 0.0
C475 C 0.24796 0.89475 0.15446 0.0
N476 N 0.26897 0.86986 0.15971 0.0
C477 C 0.27383 0.98818 0.21121 0.0
C478 C 0.32866 0.00076 0.17963 0.0
C479 C 0.33247 0.99625 0.20816 0.0
C480 C 0.30405 0.99257 0.22414 0.0
C481 C 0.29776 0.99644 0.16753 0.0
N482 N 0.27152 0.98686 0.18312 0.0
H483 H 0.25308 0.98238 0.22405 0.0
H484 H 0.29593 0.99895 0.14557 0.0
H485 H 0.29911 0.93128 0.1936 0.0
H486 H 0.226 0.89236 0.14213 0.0
O487 O 0.21338 0.94946 0.20187 0.0
O488 O 0.19287 0.94044 0.16038 0.0
O489 O 0.24496 0.97453 0.12779 0.0
C490 C 0.1906 0.9362 0.18689 0.0
H491 H 0.16186 0.06408 0.1479 0.0
H492 H 0.31256 0.86931 0.18514 0.0
H493 H 0.34969 0.00532 0.16654 0.0
H494 H 0.30534 0.98943 0.24627 0.0
Co495 Co 0.53975 0.22765 0.66193 0.0
C496 C 0.48364 0.19319 0.68832 0.0
C497 C 0.48568 0.18383 0.64498 0.0
C498 C 0.46152 0.16448 0.65633 0.0
N499 N 0.49918 0.20253 0.66489 0.0
N500 N 0.46035 0.1702 0.6837 0.0
H501 H 0.49115 0.20064 0.70868 0.0
H502 H 0.4942 0.18239 0.62394 0.0
C503 C 0.50841 0.24344 0.60655 0.0
O504 O 0.48059 0.25123 0.61857 0.0
N505 N 0.58058 0.25166 0.65939 0.0
C506 C 0.59079 0.27562 0.6765 0.0
C507 C 0.62226 0.28425 0.66955 0.0
C508 C 0.60632 0.24542 0.6427 0.0
N509 N 0.63208 0.26516 0.64843 0.0
C510 C 0.50862 0.2723 0.6989 0.0
C511 C 0.51758 0.32727 0.66659 0.0
C512 C 0.51305 0.33148 0.6951 0.0
C513 C 0.50632 0.30338 0.71086 0.0
C514 C 0.52069 0.29572 0.6556 0.0
N515 N 0.51778 0.26857 0.67201 0.0
H516 H 0.50741 0.25147 0.71243 0.0
H517 H 0.52963 0.2937 0.63477 0.0
H518 H 0.57696 0.28523 0.69369 0.0
H519 H 0.60661 0.22606 0.62744 0.0
O520 O 0.55269 0.21305 0.69831 0.0
O521 O 0.5639 0.18702 0.65935 0.0
O522 O 0.53309 0.23453 0.621 0.0
C523 C 0.56686 0.18849 0.68602 0.0
H524 H 0.44702 0.14655 0.64533 0.0
H525 H 0.63754 0.3017 0.68041 0.0
H526 H 0.52188 0.34804 0.65317 0.0
H527 H 0.50287 0.30477 0.73294 0.0
H528 H 0.67639 0.95104 0.27426 0.0
H529 H 0.61019 0.77111 0.25195 0.0
H530 H 0.72651 0.88213 0.22181 0.0
H531 H 0.58235 0.8315 0.32113 0.0
H532 H 0.65486 0.80928 0.24182 0.0
H533 H 0.64299 0.90643 0.29264 0.0
C534 C 0.68043 0.92635 0.26679 0.0
C535 C 0.70389 0.92016 0.24635 0.0
C536 C 0.63925 0.81387 0.25946 0.0
C537 C 0.66566 0.86894 0.26705 0.0
C538 C 0.61379 0.79199 0.26535 0.0
C539 C 0.59198 0.79841 0.28713 0.0
C540 C 0.64271 0.84247 0.27531 0.0
C541 C 0.59789 0.82603 0.30367 0.0
C542 C 0.66153 0.90085 0.27737 0.0
C543 C 0.7086 0.88774 0.23759 0.0
N544 N 0.62235 0.84724 0.29718 0.0
N545 N 0.68923 0.86331 0.24767 0.0
H546 H 0.66319 0.58247 0.82118 0.0
H547 H 0.61946 0.72243 0.71134 0.0
H548 H 0.72514 0.60482 0.7515 0.0
H549 H 0.54923 0.67588 0.76495 0.0
H550 H 0.66312 0.68857 0.73198 0.0
H551 H 0.62607 0.62626 0.80711 0.0
C552 C 0.66913 0.5967 0.80301 0.0
C553 C 0.69702 0.58943 0.7872 0.0
C554 C 0.63817 0.68607 0.73936 0.0
C555 C 0.65468 0.6399 0.7711 0.0
C556 C 0.61342 0.70541 0.72771 0.0
C557 C 0.58082 0.70153 0.73631 0.0
C558 C 0.63014 0.66322 0.76 0.0
C559 C 0.57402 0.67914 0.75748 0.0
C560 C 0.64796 0.62177 0.79503 0.0
C561 C 0.70393 0.60943 0.7643 0.0
N562 N 0.59844 0.66079 0.76855 0.0
N563 N 0.68268 0.63355 0.75673 0.0
H564 H 0.92406 0.66701 0.32446 0.0
H565 H 0.77845 0.61856 0.22164 0.0
H566 H 0.89765 0.72621 0.25408 0.0
H567 H 0.8313 0.54977 0.27235 0.0
H568 H 0.81224 0.6633 0.24066 0.0
H569 H 0.87985 0.62913 0.31303 0.0
C570 C 0.90887 0.67221 0.3067 0.0
C571 C 0.91518 0.69949 0.28984 0.0
C572 C 0.81611 0.63843 0.24781 0.0
C573 C 0.86414 0.65633 0.27686 0.0
C574 C 0.7968 0.61306 0.23709 0.0
C575 C 0.80249 0.58058 0.24529 0.0
C576 C 0.84072 0.63111 0.26714 0.0
C577 C 0.82658 0.57449 0.26524 0.0
C578 C 0.88354 0.65061 0.30025 0.0
C579 C 0.89387 0.70548 0.2676 0.0
N580 N 0.84485 0.59948 0.27544 0.0
N581 N 0.86951 0.68383 0.26155 0.0
H582 H 0.95692 0.83506 0.77045 0.0
H583 H 0.77531 0.90021 0.75784 0.0
H584 H 0.8842 0.78317 0.72313 0.0
H585 H 0.84079 0.92853 0.82356 0.0
H586 H 0.81293 0.8558 0.74569 0.0
H587 H 0.91376 0.86874 0.79072 0.0
C588 C 0.93169 0.8307 0.76452 0.0
C589 C 0.92397 0.80664 0.74498 0.0
C590 C 0.81878 0.87149 0.76301 0.0
C591 C 0.87437 0.84522 0.76782 0.0
C592 C 0.79724 0.89682 0.77005 0.0
C593 C 0.80515 0.91866 0.79145 0.0
C594 C 0.84853 0.86818 0.77731 0.0
C595 C 0.83408 0.91299 0.80641 0.0
C596 C 0.90703 0.84977 0.77617 0.0
C597 C 0.89095 0.80156 0.73817 0.0
N598 N 0.85488 0.88864 0.79882 0.0
N599 N 0.86728 0.82111 0.74926 0.0
H600 H 0.36593 0.10485 0.83421 0.0
H601 H 0.43185 0.10993 0.67859 0.0
H602 H 0.34826 0.02874 0.77427 0.0
H603 H 0.44515 0.18974 0.73596 0.0
H604 H 0.40098 0.08027 0.71352 0.0
H605 H 0.3953 0.13633 0.79894 0.0
C606 C 0.36822 0.09472 0.81369 0.0
C607 C 0.35441 0.06407 0.8073 0.0
C608 C 0.41057 0.10431 0.71849 0.0
C609 C 0.38796 0.10009 0.7667 0.0
C610 C 0.42814 0.12147 0.6984 0.0
C611 C 0.44131 0.15259 0.70414 0.0
C612 C 0.40603 0.11817 0.74472 0.0
C613 C 0.43593 0.16572 0.73058 0.0
C614 C 0.38487 0.11278 0.79351 0.0
C615 C 0.35791 0.05239 0.78019 0.0
N616 N 0.41879 0.14846 0.74985 0.0
N617 N 0.37436 0.07033 0.76101 0.0
H618 H 0.47517 0.3777 0.29448 0.0
H619 H 0.31299 0.38823 0.20241 0.0
H620 H 0.39251 0.31313 0.30561 0.0
H621 H 0.37849 0.47031 0.21269 0.0
H622 H 0.3453 0.35719 0.23605 0.0
H623 H 0.44338 0.40911 0.26056 0.0
C624 C 0.45035 0.37014 0.28976 0.0
C625 C 0.43643 0.34282 0.30296 0.0
C626 C 0.35262 0.38199 0.23094 0.0
C627 C 0.40004 0.37841 0.26404 0.0
C628 C 0.33435 0.39962 0.21157 0.0
C629 C 0.34308 0.43191 0.2047 0.0
C630 C 0.38017 0.39653 0.24329 0.0
C631 C 0.37076 0.44559 0.21755 0.0
C632 C 0.43218 0.38813 0.27051 0.0
C633 C 0.40406 0.33422 0.2962 0.0
N634 N 0.38842 0.42779 0.23611 0.0
N635 N 0.38706 0.35179 0.27709 0.0
H636 H 0.07151 0.3988 0.67579 0.0
H637 H 0.14031 0.40293 0.83047 0.0
H638 H 0.05742 0.31964 0.73376 0.0
H639 H 0.15953 0.47805 0.7699 0.0
H640 H 0.1097 0.37204 0.79567 0.0
H641 H 0.104 0.42777 0.71006 0.0
C642 C 0.07537 0.38727 0.69559 0.0
C643 C 0.0615 0.35654 0.70171 0.0
C644 C 0.12074 0.39523 0.78998 0.0
C645 C 0.09865 0.39016 0.74151 0.0
C646 C 0.13811 0.41296 0.8099 0.0
C647 C 0.15265 0.44318 0.80321 0.0
C648 C 0.11765 0.40783 0.76314 0.0
C649 C 0.14925 0.45472 0.77604 0.0
C650 C 0.09387 0.40402 0.7153 0.0
C651 C 0.06715 0.34338 0.72811 0.0
N652 N 0.13206 0.43713 0.75712 0.0
N653 N 0.08519 0.36025 0.74699 0.0
H654 H 0.03277 0.16339 0.27001 0.0
H655 H 0.1954 0.05883 0.24066 0.0
H656 H 0.10895 0.149 0.33064 0.0
H657 H 0.12131 0.07913 0.17947 0.0
H658 H 0.16445 0.09157 0.27396 0.0
H659 H 0.06532 0.133 0.2367 0.0
C660 C 0.05646 0.15419 0.27637 0.0
C661 C 0.06803 0.15905 0.30336 0.0
C662 C 0.15503 0.08894 0.25321 0.0
C663 C 0.10549 0.12341 0.26503 0.0
C664 C 0.17263 0.07008 0.23419 0.0
C665 C 0.16101 0.06605 0.20711 0.0
C666 C 0.12545 0.10385 0.24523 0.0
C667 C 0.13152 0.08173 0.19991 0.0
C668 C 0.07502 0.13655 0.25726 0.0
C669 C 0.09877 0.14569 0.31025 0.0
N670 N 0.11477 0.09976 0.21883 0.0
N671 N 0.11637 0.12849 0.29126 0.0
H672 H 0.59093 0.04821 0.18221 0.0
H673 H 0.54017 0.1199 0.32777 0.0
H674 H 0.63773 0.02524 0.25948 0.0
H675 H 0.4937 0.14933 0.2516 0.0
H676 H 0.56482 0.07392 0.30408 0.0
H677 H 0.5457 0.07419 0.20771 0.0
C678 C 0.59108 0.04766 0.20453 0.0
C679 C 0.61814 0.03496 0.21883 0.0
C680 C 0.54882 0.0901 0.29255 0.0
C681 C 0.56706 0.06481 0.24802 0.0
C682 C 0.53425 0.11638 0.30623 0.0
C683 C 0.51528 0.13939 0.29166 0.0
C684 C 0.545 0.08686 0.26392 0.0
C685 C 0.50908 0.13308 0.26359 0.0
C686 C 0.56545 0.06269 0.21908 0.0
C687 C 0.61743 0.03514 0.24771 0.0
N688 N 0.5245 0.10789 0.2505 0.0
N689 N 0.59259 0.0502 0.26131 0.0
H690 H 0.37848 0.55631 0.83003 0.0
H691 H 0.44686 0.58803 0.68056 0.0
H692 H 0.35507 0.49272 0.76147 0.0
H693 H 0.47673 0.64068 0.75334 0.0
H694 H 0.42154 0.54602 0.71015 0.0
H695 H 0.42295 0.57929 0.80368 0.0
C696 C 0.38297 0.54633 0.80973 0.0
C697 C 0.36203 0.52271 0.79802 0.0
C698 C 0.43441 0.56631 0.71963 0.0
C699 C 0.41288 0.55072 0.7668 0.0
C700 C 0.44906 0.59012 0.70274 0.0
C701 C 0.46349 0.61794 0.71461 0.0
C702 C 0.43433 0.57061 0.74843 0.0
C703 C 0.46542 0.61976 0.74341 0.0
C704 C 0.40844 0.55997 0.79442 0.0
C705 C 0.36956 0.51166 0.77121 0.0
N706 N 0.45061 0.59673 0.75928 0.0
N707 N 0.39383 0.52629 0.75629 0.0
H708 H 0.96918 0.38317 0.32655 0.0
H709 H 0.91838 0.45513 0.18073 0.0
H710 H 0.01403 0.35284 0.25005 0.0
H711 H 0.86985 0.47601 0.25767 0.0
H712 H 0.96362 0.42958 0.2065 0.0
H713 H 0.94447 0.42936 0.30281 0.0
C714 C 0.97475 0.38664 0.30493 0.0
C715 C 0.9932 0.36336 0.29024 0.0
C716 C 0.94347 0.44052 0.21775 0.0
C717 C 0.96364 0.41599 0.26253 0.0
C718 C 0.91781 0.45532 0.20305 0.0
C719 C 0.89028 0.46729 0.21715 0.0
C720 C 0.94143 0.43792 0.24664 0.0
C721 C 0.89051 0.46665 0.24604 0.0
C722 C 0.96019 0.41297 0.29124 0.0
C723 C 0.99912 0.36946 0.2621 0.0
N724 N 0.91541 0.45183 0.25979 0.0
N725 N 0.98379 0.39472 0.24903 0.0
H726 H 0.15077 0.01667 0.77069 0.0
H727 H 0.02603 0.86686 0.75905 0.0
H728 H 0.13186 0.9446 0.83414 0.0
H729 H 0.05884 0.92244 0.68865 0.0
H730 H 0.0521 0.90667 0.78944 0.0
H731 H 0.10611 0.99301 0.74342 0.0
C732 C 0.13706 0.99631 0.77919 0.0
C733 C 0.14589 0.98237 0.80473 0.0
C734 C 0.05314 0.91063 0.76737 0.0
C735 C 0.0942 0.95566 0.77369 0.0
C736 C 0.0381 0.88799 0.75003 0.0
C737 C 0.04065 0.89122 0.72134 0.0
C738 C 0.07143 0.93649 0.756 0.0
C739 C 0.05635 0.91911 0.7107 0.0
C740 C 0.11143 0.98294 0.76359 0.0
C741 C 0.1263 0.9566 0.81482 0.0
N742 N 0.07181 0.9404 0.72805 0.0
N743 N 0.1018 0.94394 0.79917 0.0
H744 H 0.55741 0.37824 0.67799 0.0
H745 H 0.58308 0.44927 0.82722 0.0
H746 H 0.48998 0.35742 0.74458 0.0
H747 H 0.63757 0.47991 0.75551 0.0
H748 H 0.54269 0.42299 0.79687 0.0
H749 H 0.58002 0.42273 0.70454 0.0
C750 C 0.54653 0.38333 0.69787 0.0
C751 C 0.52179 0.36318 0.70896 0.0
C752 C 0.56304 0.43618 0.78777 0.0
C753 C 0.54929 0.41408 0.74044 0.0
C754 C 0.58597 0.4514 0.8051 0.0
C755 C 0.61395 0.46637 0.79385 0.0
C756 C 0.56832 0.43595 0.7591 0.0
C757 C 0.61661 0.46818 0.76506 0.0
C758 C 0.55993 0.40881 0.71329 0.0
C759 C 0.50968 0.37135 0.73531 0.0
N760 N 0.59445 0.45273 0.74875 0.0
N761 N 0.52401 0.39566 0.75037 0.0
H762 H 0.15074 0.48868 0.25747 0.0
H763 H 0.0246 0.63701 0.25589 0.0
H764 H 0.12291 0.5441 0.18525 0.0
H765 H 0.05524 0.58802 0.33034 0.0
H766 H 0.04973 0.59344 0.22877 0.0
H767 H 0.10632 0.51518 0.28306 0.0
C768 C 0.13503 0.5059 0.24678 0.0
C769 C 0.14127 0.51457 0.21918 0.0
C770 C 0.05049 0.59176 0.25104 0.0
C771 C 0.09014 0.54483 0.24843 0.0
C772 C 0.036 0.6166 0.26654 0.0
C773 C 0.0382 0.6163 0.29538 0.0
C774 C 0.06794 0.56666 0.26441 0.0
C775 C 0.05306 0.58919 0.30812 0.0
C776 C 0.10957 0.52095 0.26144 0.0
C777 C 0.11935 0.53641 0.20638 0.0
N778 N 0.06802 0.56576 0.29253 0.0
N779 N 0.09523 0.5511 0.22119 0.0
H780 H 0.01302 0.15371 0.74501 0.0
H781 H 0.86364 0.02821 0.75662 0.0
H782 H 0.94262 0.13274 0.68075 0.0
H783 H 0.91707 0.06358 0.82729 0.0
H784 H 0.90387 0.05405 0.72644 0.0
H785 H 0.98864 0.1099 0.77285 0.0
C786 C 0.99288 0.13973 0.73646 0.0
C787 C 0.97966 0.14771 0.71046 0.0
C788 C 0.90724 0.05571 0.74854 0.0
C789 C 0.95213 0.09698 0.7422 0.0
C790 C 0.88434 0.0408 0.76579 0.0
C791 C 0.88679 0.04414 0.79449 0.0
C792 C 0.93262 0.07457 0.75999 0.0
C793 C 0.91425 0.06048 0.80526 0.0
C794 C 0.9791 0.11459 0.7524 0.0
C795 C 0.95412 0.12781 0.7004 0.0
N796 N 0.9358 0.07572 0.78798 0.0
N797 N 0.94106 0.10379 0.71636 0.0
H798 H 0.35618 0.01182 0.26003 0.0
H799 H 0.4806 0.86341 0.25056 0.0
H800 H 0.3831 0.96204 0.18482 0.0
H801 H 0.45498 0.91092 0.32695 0.0
H802 H 0.45576 0.90866 0.2252 0.0
H803 H 0.40197 0.98484 0.28345 0.0
C804 C 0.37208 0.99582 0.24825 0.0
C805 C 0.36513 0.98868 0.22049 0.0
C806 C 0.45607 0.90965 0.2475 0.0
C807 C 0.41764 0.95769 0.24725 0.0
C808 C 0.47037 0.88381 0.26199 0.0
C809 C 0.46943 0.88322 0.29088 0.0
C810 C 0.44005 0.93482 0.26197 0.0
C811 C 0.45611 0.91038 0.30466 0.0
C812 C 0.39828 0.98045 0.26166 0.0
C813 C 0.3872 0.96838 0.2062 0.0
N814 N 0.44125 0.93477 0.29008 0.0
N815 N 0.41198 0.95317 0.21985 0.0
H816 H 0.43953 0.77335 0.77917 0.0
H817 H 0.33012 0.93421 0.77066 0.0
H818 H 0.42383 0.82647 0.70336 0.0
H819 H 0.36755 0.89566 0.8473 0.0
H820 H 0.36528 0.89587 0.74553 0.0
H821 H 0.41441 0.81858 0.80462 0.0
C822 C 0.4311 0.79469 0.76791 0.0
C823 C 0.43358 0.7961 0.7391 0.0
C824 C 0.36611 0.89606 0.76784 0.0
C825 C 0.40445 0.84776 0.76803 0.0
C826 C 0.34601 0.9179 0.78218 0.0
C827 C 0.34581 0.91795 0.81109 0.0
C828 C 0.38577 0.87379 0.78253 0.0
C829 C 0.36694 0.89641 0.825 0.0
C830 C 0.4168 0.82053 0.78245 0.0
C831 C 0.42236 0.82438 0.72557 0.0
N832 N 0.38578 0.87492 0.81059 0.0
N833 N 0.40791 0.84893 0.74011 0.0
H834 H 0.73825 0.42716 0.2845 0.0
H835 H 0.56908 0.3314 0.26991 0.0
H836 H 0.68084 0.42597 0.20978 0.0
H837 H 0.61316 0.3523 0.34878 0.0
H838 H 0.60944 0.36698 0.24778 0.0
H839 H 0.69269 0.4007 0.30885 0.0
C840 C 0.71596 0.42161 0.27328 0.0
C841 C 0.71339 0.42861 0.24504 0.0
C842 C 0.61011 0.36415 0.26997 0.0
C843 C 0.66135 0.39816 0.27267 0.0
C844 C 0.58706 0.34382 0.2826 0.0
C845 C 0.58784 0.33891 0.31119 0.0
C846 C 0.63451 0.37927 0.28597 0.0
C847 C 0.61163 0.3556 0.32668 0.0
C848 C 0.68996 0.40656 0.2872 0.0
C849 C 0.68394 0.42094 0.23154 0.0
N850 N 0.63432 0.37475 0.31382 0.0
N851 N 0.65922 0.40586 0.24541 0.0
H852 H 0.08169 0.68428 0.70214 0.0
H853 H 0.14204 0.61064 0.84645 0.0
H854 H 0.07079 0.73454 0.77985 0.0
H855 H 0.17792 0.57654 0.76784 0.0
H856 H 0.10701 0.65008 0.8225 0.0
H857 H 0.10837 0.6387 0.72624 0.0
C858 C 0.08456 0.68555 0.72431 0.0
C859 C 0.07419 0.71329 0.73903 0.0
C860 C 0.12235 0.63379 0.81049 0.0
C861 C 0.1046 0.66132 0.76665 0.0
C862 C 0.14223 0.61115 0.82413 0.0
C863 C 0.16306 0.59042 0.80909 0.0
C864 C 0.1231 0.63555 0.78159 0.0
C865 C 0.16237 0.59222 0.78021 0.0
C866 C 0.09991 0.65961 0.73801 0.0
C867 C 0.07862 0.71371 0.7677 0.0
N868 N 0.14279 0.6145 0.76738 0.0
N869 N 0.09355 0.68814 0.78057 0.0
H870 H 0.939 0.16804 0.27273 0.0
H871 H 0.76967 0.07287 0.2876 0.0
H872 H 0.89246 0.15173 0.3514 0.0
H873 H 0.82868 0.07163 0.21375 0.0
H874 H 0.81486 0.09973 0.31207 0.0
H875 H 0.89965 0.13086 0.25132 0.0
C876 C 0.92067 0.15629 0.28555 0.0
C877 C 0.91888 0.16299 0.31383 0.0
C878 C 0.81804 0.09321 0.2906 0.0
C879 C 0.87336 0.12076 0.28942 0.0
C880 C 0.79225 0.0779 0.27662 0.0
C881 C 0.79534 0.07022 0.24854 0.0
C882 C 0.84694 0.10116 0.2763 0.0
C883 C 0.82515 0.07724 0.23535 0.0
C884 C 0.89821 0.13503 0.27333 0.0
C885 C 0.89473 0.14707 0.32952 0.0
N886 N 0.84963 0.0926 0.24926 0.0
N887 N 0.87259 0.12698 0.31703 0.0
H888 H 0.43288 0.73099 0.22249 0.0
H889 H 0.33288 0.5644 0.23807 0.0
H890 H 0.42959 0.67418 0.29752 0.0
H891 H 0.35427 0.60771 0.15894 0.0
H892 H 0.36965 0.60388 0.25984 0.0
H893 H 0.40557 0.68586 0.19825 0.0
C894 C 0.42673 0.70891 0.23378 0.0
C895 C 0.43332 0.70641 0.2621 0.0
C896 C 0.36666 0.60457 0.23767 0.0
C897 C 0.4019 0.65491 0.23462 0.0
C898 C 0.34565 0.58204 0.22525 0.0
C899 C 0.34053 0.58288 0.1967 0.0
C900 C 0.38228 0.62853 0.2215 0.0
C901 C 0.3577 0.60618 0.18103 0.0
C902 C 0.41118 0.68317 0.21994 0.0
C903 C 0.42487 0.67724 0.27572 0.0
N904 N 0.37753 0.62839 0.19368 0.0
N905 N 0.40933 0.65281 0.26192 0.0
H906 H 0.82056 0.423 0.80865 0.0
H907 H 0.89092 0.36556 0.66234 0.0
H908 H 0.76806 0.43497 0.73208 0.0
H909 H 0.92842 0.33028 0.74007 0.0
H910 H 0.85122 0.39936 0.68729 0.0
H911 H 0.86554 0.39695 0.7834 0.0
C912 C 0.81864 0.42043 0.78649 0.0
C913 C 0.79048 0.43101 0.77243 0.0
C914 C 0.86832 0.38443 0.69888 0.0
C915 C 0.84182 0.40131 0.74346 0.0
C916 C 0.89112 0.36528 0.68467 0.0
C917 C 0.9129 0.34498 0.69917 0.0
C918 C 0.86748 0.38347 0.7278 0.0
C919 C 0.91195 0.34546 0.72808 0.0
C920 C 0.84426 0.40546 0.77212 0.0
C921 C 0.78925 0.42699 0.74373 0.0
N922 N 0.88952 0.36431 0.74146 0.0
N923 N 0.81454 0.41241 0.73019 0.0
H924 H 0.07681 0.82533 0.30412 0.0
H925 H 0.1525 0.88972 0.1616 0.0
H926 H 0.07553 0.76832 0.22921 0.0
H927 H 0.17249 0.93326 0.24085 0.0
H928 H 0.11621 0.84989 0.1842 0.0
H929 H 0.10383 0.86984 0.2793 0.0
C930 C 0.08193 0.82228 0.28237 0.0
C931 C 0.07409 0.79298 0.26875 0.0
C932 C 0.1283 0.86839 0.19657 0.0
C933 C 0.10516 0.8439 0.24019 0.0
C934 C 0.1488 0.89124 0.18368 0.0
C935 C 0.16555 0.91473 0.19943 0.0
C936 C 0.12435 0.86931 0.22534 0.0
C937 C 0.16017 0.91543 0.22797 0.0
C938 C 0.09746 0.8477 0.26822 0.0
C939 C 0.0813 0.79045 0.24053 0.0
N940 N 0.14013 0.89301 0.24001 0.0
N941 N 0.09658 0.81554 0.22718 0.0
H942 H 0.73251 0.07039 0.73199 0.0
H943 H 0.57201 0.18081 0.74188 0.0
H944 H 0.68025 0.08608 0.80819 0.0
H945 H 0.60986 0.14364 0.66493 0.0
H946 H 0.61112 0.14611 0.76669 0.0
H947 H 0.68772 0.097 0.70701 0.0
C948 C 0.71147 0.0792 0.74343 0.0
C949 C 0.71011 0.07612 0.7722 0.0
C950 C 0.61062 0.14527 0.74439 0.0
C951 C 0.65894 0.1069 0.7438 0.0
C952 C 0.58833 0.16509 0.73022 0.0
C953 C 0.58778 0.16517 0.70131 0.0
C954 C 0.63283 0.12575 0.72952 0.0
C955 C 0.60942 0.14431 0.68724 0.0
C956 C 0.68588 0.09433 0.72916 0.0
C957 C 0.68225 0.08791 0.78599 0.0
N958 N 0.63131 0.12571 0.70147 0.0
N959 N 0.6579 0.10309 0.7717 0.0
H960 H 0.82933 0.31608 0.15337 0.0
H961 H 0.78099 0.15654 0.17128 0.0
H962 H 0.73011 0.33931 0.17662 0.0
H963 H 0.68151 0.1919 0.16726 0.0
H964 H 0.80052 0.21099 0.15916 0.0
H965 H 0.81241 0.26011 0.14279 0.0
C966 C 0.80382 0.30929 0.15592 0.0
C967 C 0.78117 0.33194 0.16641 0.0
C968 C 0.77435 0.20691 0.15996 0.0
C969 C 0.76178 0.26757 0.15578 0.0
C970 C 0.76323 0.1756 0.16696 0.0
C971 C 0.72966 0.16992 0.17078 0.0
C972 C 0.75161 0.23267 0.1567 0.0
C973 C 0.70767 0.19554 0.16518 0.0
C974 C 0.7942 0.27721 0.15024 0.0
C975 C 0.74832 0.32242 0.16876 0.0
N976 N 0.71904 0.22592 0.15891 0.0
N977 N 0.73971 0.29072 0.16402 0.0
H978 H 0.3449 0.77989 0.66049 0.0
H979 H 0.18563 0.83023 0.64787 0.0
H980 H 0.30723 0.68123 0.66368 0.0
H981 H 0.16126 0.73102 0.67026 0.0
H982 H 0.24088 0.81261 0.63589 0.0
H983 H 0.29079 0.7995 0.64772 0.0
C984 C 0.32534 0.76225 0.6577 0.0
C985 C 0.33031 0.72904 0.66378 0.0
C986 C 0.22375 0.79448 0.6434 0.0
C987 C 0.26778 0.75109 0.64912 0.0
C988 C 0.19202 0.80456 0.64989 0.0
C989 C 0.16931 0.78212 0.66061 0.0
C990 C 0.23301 0.76181 0.64844 0.0
C991 C 0.17826 0.74907 0.66227 0.0
C992 C 0.29415 0.77342 0.65036 0.0
C993 C 0.30413 0.7072 0.65992 0.0
N994 N 0.20967 0.74001 0.65684 0.0
N995 N 0.27391 0.71867 0.65333 0.0
H996 H 0.72509 0.15983 0.84525 0.0
H997 H 0.67303 0.31864 0.86034 0.0
H998 H 0.82374 0.19752 0.84942 0.0
H999 H 0.77241 0.34383 0.83903 0.0
H1000 H 0.69073 0.26303 0.87126 0.0
H1001 H 0.70421 0.21396 0.85627 0.0
C1002 C 0.74239 0.17936 0.84934 0.0
C1003 C 0.77614 0.17434 0.84593 0.0
C1004 C 0.70881 0.28045 0.86412 0.0
C1005 C 0.75257 0.23684 0.85878 0.0
C1006 C 0.6987 0.31233 0.85821 0.0
C1007 C 0.72121 0.33544 0.84822 0.0
C1008 C 0.74159 0.27148 0.85928 0.0
C1009 C 0.7543 0.32656 0.84648 0.0
C1010 C 0.73047 0.21053 0.85573 0.0
C1011 C 0.79747 0.2006 0.85119 0.0
N1012 N 0.76341 0.29505 0.85143 0.0
N1013 N 0.78531 0.23081 0.8569 0.0
H1014 H 0.31404 0.82795 0.33626 0.0
H1015 H 0.19202 0.67683 0.34908 0.0
H1016 H 0.34462 0.72673 0.33681 0.0
H1017 H 0.16101 0.77681 0.33671 0.0
H1018 H 0.24795 0.69601 0.35713 0.0
H1019 H 0.25859 0.81085 0.34864 0.0
C1020 C 0.30912 0.80211 0.3393 0.0
C1021 C 0.33372 0.77863 0.33484 0.0
C1022 C 0.22885 0.71384 0.35314 0.0
C1023 C 0.27038 0.75888 0.34907 0.0
C1024 C 0.19696 0.70291 0.34852 0.0
C1025 C 0.1721 0.72524 0.34162 0.0
C1026 C 0.23596 0.74737 0.35065 0.0
C1027 C 0.17953 0.7588 0.3418 0.0
C1028 C 0.27751 0.79238 0.34648 0.0
C1029 C 0.32632 0.74559 0.33985 0.0
N1030 N 0.21098 0.76883 0.3457 0.0
N1031 N 0.29512 0.73662 0.34624 0.0
H1032 H 0.20976 0.66587 0.87776 0.0
H1033 H 0.30282 0.83854 0.87792 0.0
H1034 H 0.31409 0.67694 0.86679 0.0
H1035 H 0.19796 0.82758 0.87183 0.0
H1036 H 0.30772 0.77933 0.88584 0.0
H1037 H 0.20564 0.72465 0.88759 0.0
C1038 C 0.2319 0.68053 0.87807 0.0
C1039 C 0.26226 0.66666 0.8711 0.0
C1040 C 0.28358 0.78997 0.88324 0.0
C1041 C 0.25773 0.73388 0.88197 0.0
C1042 C 0.28079 0.82378 0.87895 0.0
C1043 C 0.24997 0.83781 0.87389 0.0
C1044 C 0.25532 0.7702 0.88258 0.0
C1045 C 0.22219 0.81754 0.87519 0.0
C1046 C 0.22952 0.71412 0.88346 0.0
C1047 C 0.29015 0.68686 0.87157 0.0
N1048 N 0.22553 0.78473 0.87912 0.0
N1049 N 0.28718 0.7195 0.8766 0.0
H1050 H 0.82863 0.31548 0.36037 0.0
H1051 H 0.6781 0.19028 0.36156 0.0
H1052 H 0.83966 0.21028 0.36073 0.0
H1053 H 0.66681 0.29541 0.35978 0.0
H1054 H 0.7372 0.19724 0.36725 0.0
H1055 H 0.76949 0.30879 0.36608 0.0
C1056 C 0.81861 0.29096 0.36184 0.0
C1057 C 0.8391 0.2634 0.35973 0.0
C1058 C 0.72181 0.21882 0.36591 0.0
C1059 C 0.77134 0.25551 0.36632 0.0
C1060 C 0.68808 0.21485 0.36257 0.0
C1061 C 0.66755 0.24229 0.35986 0.0
C1062 C 0.73525 0.25051 0.36637 0.0
C1063 C 0.68168 0.27358 0.36186 0.0
C1064 C 0.78485 0.28715 0.36521 0.0
C1065 C 0.82486 0.23221 0.36234 0.0
N1066 N 0.71472 0.27684 0.36467 0.0
N1067 N 0.79183 0.22911 0.36518 0.0
H1068 H 0.1924 0.67499 0.14738 0.0
H1069 H 0.31762 0.82529 0.15287 0.0
H1070 H 0.29743 0.66332 0.15029 0.0
H1071 H 0.21244 0.83631 0.15034 0.0
H1072 H 0.31114 0.76626 0.14627 0.0
H1073 H 0.19961 0.73416 0.14256 0.0
C1074 C 0.21701 0.68493 0.14677 0.0
C1075 C 0.24434 0.66428 0.14956 0.0
C1076 C 0.28948 0.78161 0.14686 0.0
C1077 C 0.25286 0.73206 0.14412 0.0
C1078 C 0.29316 0.81531 0.15075 0.0
C1079 C 0.26552 0.83576 0.15249 0.0
C1080 C 0.25788 0.76813 0.14483 0.0
C1081 C 0.23444 0.82156 0.14904 0.0
C1082 C 0.22113 0.7187 0.14395 0.0
C1083 C 0.27571 0.67834 0.14813 0.0
N1084 N 0.23146 0.78859 0.14568 0.0
N1085 N 0.27911 0.71142 0.14586 0.0
H1086 H 0.67466 0.315 0.6407 0.0
H1087 H 0.82656 0.19451 0.64105 0.0
H1088 H 0.66512 0.21009 0.63386 0.0
H1089 H 0.8361 0.29932 0.63307 0.0
H1090 H 0.76766 0.19939 0.63249 0.0
H1091 H 0.73352 0.31002 0.63198 0.0
C1092 C 0.68498 0.29095 0.63691 0.0
C1093 C 0.66516 0.26289 0.63829 0.0
C1094 C 0.78264 0.22131 0.63209 0.0
C1095 C 0.7325 0.25684 0.62866 0.0
C1096 C 0.81622 0.2185 0.63703 0.0
C1097 C 0.83606 0.24657 0.63804 0.0
C1098 C 0.76867 0.25252 0.62861 0.0
C1099 C 0.82165 0.27708 0.63241 0.0
C1100 C 0.71854 0.28809 0.63188 0.0
C1101 C 0.67956 0.23232 0.63292 0.0
N1102 N 0.7887 0.27932 0.62842 0.0
N1103 N 0.71248 0.23004 0.62882 0.0
H1104 H 0.77692 0.08497 0.94373 0.0
H1105 H 0.73312 0.97634 0.07642 0.0
H1106 H 0.77192 0.9793 0.94287 0.0
H1107 H 0.72371 0.08166 0.07459 0.0
H1108 H 0.74873 0.9771 0.02779 0.0
H1109 H 0.76042 0.0845 0.99229 0.0
C1110 C 0.77282 0.06165 0.95385 0.0
C1111 C 0.77585 0.03212 0.93919 0.0
C1112 C 0.74302 1.00006 0.03791 0.0
C1113 C 0.7564 0.03143 0.99466 0.0
C1114 C 0.73406 0.99962 0.06568 0.0
C1115 C 0.7271 0.02898 0.07959 0.0
C1116 C 0.74539 0.03011 0.02389 0.0
C1117 C 0.72854 0.05843 0.0646 0.0
C1118 C 0.76303 0.06142 0.98149 0.0
C1119 C 0.76964 0.00266 0.95328 0.0
N1120 N 0.73779 0.05828 0.03762 0.0
N1121 N 0.76023 0.00307 0.98016 0.0
H1122 H 0.41846 0.77117 0.43388 0.0
H1123 H 0.52288 0.72207 0.56759 0.0
H1124 H 0.5239 0.7624 0.43492 0.0
H1125 H 0.41717 0.72065 0.56591 0.0
H1126 H 0.52335 0.73642 0.51873 0.0
H1127 H 0.41704 0.75415 0.48236 0.0
C1128 C 0.44134 0.7661 0.4444 0.0
C1129 C 0.47136 0.76825 0.43031 0.0
C1130 C 0.5 0.73273 0.5289 0.0
C1131 C 0.46988 0.74821 0.48561 0.0
C1132 C 0.49975 0.72443 0.55679 0.0
C1133 C 0.46996 0.72021 0.5708 0.0
C1134 C 0.47021 0.73721 0.51486 0.0
C1135 C 0.44068 0.72343 0.5558 0.0
C1136 C 0.44048 0.75602 0.47198 0.0
C1137 C 0.50019 0.76082 0.44486 0.0
N1138 N 0.44152 0.73205 0.52868 0.0
N1139 N 0.49871 0.75115 0.47164 0.0
H1140 H 0.78412 0.4233 0.0718 0.0
H1141 H 0.73093 0.5321 0.94152 0.0
H1142 H 0.77241 0.52837 0.07477 0.0
H1143 H 0.72605 0.42643 0.94259 0.0
H1144 H 0.74914 0.53132 0.98956 0.0
H1145 H 0.76744 0.42409 0.02327 0.0
C1146 C 0.77858 0.44659 0.06211 0.0
C1147 C 0.77965 0.47582 0.07738 0.0
C1148 C 0.74391 0.50829 0.97936 0.0
C1149 C 0.75999 0.47685 0.02198 0.0
C1150 C 0.73349 0.50873 0.95194 0.0
C1151 C 0.72687 0.47929 0.93802 0.0
C1152 C 0.7481 0.47816 0.993 0.0
C1153 C 0.73046 0.44973 0.95261 0.0
C1154 C 0.76868 0.44699 0.0345 0.0
C1155 C 0.77166 0.50523 0.06385 0.0
N1156 N 0.74103 0.44991 0.97922 0.0
N1157 N 0.76214 0.50499 0.037 0.0
H1158 H 0.08107 0.72953 0.44093 0.0
H1159 H 0.9725 0.7802 0.57191 0.0
H1160 H 0.97549 0.73637 0.4393 0.0
H1161 H 0.07812 0.78614 0.57043 0.0
H1162 H 0.97311 0.76287 0.52367 0.0
H1163 H 0.08052 0.74737 0.4891 0.0
C1164 C 0.05774 0.73431 0.45082 0.0
C1165 C 0.02827 0.73141 0.43603 0.0
C1166 C 0.99616 0.76818 0.5338 0.0
C1167 C 0.0275 0.75244 0.49107 0.0
C1168 C 0.99582 0.77812 0.56134 0.0
C1169 C 0.0253 0.78466 0.57525 0.0
C1170 C 0.02623 0.76442 0.52002 0.0
C1171 C 0.05478 0.78173 0.56046 0.0
C1172 C 0.05746 0.74487 0.47824 0.0
C1173 C 0.99881 0.73852 0.44981 0.0
N1174 N 0.05452 0.77159 0.53374 0.0
N1175 N 0.99918 0.7487 0.47649 0.0
H1176 H 0.30406 0.93186 0.07269 0.0
H1177 H 0.23978 0.03762 0.9446 0.0
H1178 H 0.23012 0.00677 0.08228 0.0
H1179 H 0.29177 0.94579 0.93752 0.0
H1180 H 0.2396 0.03102 0.99502 0.0
H1181 H 0.30403 0.94143 0.02327 0.0
C1182 C 0.28787 0.95051 0.06447 0.0
C1183 C 0.26699 0.96848 0.08184 0.0
C1184 C 0.25098 0.01237 0.98234 0.0
C1185 C 0.26682 0.97955 0.0247 0.0
C1186 C 0.25117 0.01613 0.95358 0.0
C1187 C 0.26581 0.99223 0.93671 0.0
C1188 C 0.26589 0.98471 0.99429 0.0
C1189 C 0.28012 0.96486 0.94955 0.0
C1190 C 0.28778 0.95586 0.0361 0.0
C1191 C 0.24656 0.99226 0.06972 0.0
N1192 N 0.2799 0.96197 0.97744 0.0
N1193 N 0.247 0.99715 0.04187 0.0
H1194 H 0.46526 0.26857 0.56797 0.0
H1195 H 0.57242 0.2053 0.44053 0.0
H1196 H 0.55885 0.21987 0.57532 0.0
H1197 H 0.49557 0.27703 0.42982 0.0
H1198 H 0.56304 0.20623 0.48991 0.0
H1199 H 0.47173 0.26844 0.51752 0.0
C1200 C 0.48712 0.25786 0.55905 0.0
C1201 C 0.51154 0.2442 0.57601 0.0
C1202 C 0.54814 0.22181 0.47686 0.0
C1203 C 0.51889 0.24375 0.5184 0.0
C1204 C 0.55338 0.22121 0.4485 0.0
C1205 C 0.5348 0.24117 0.43081 0.0
C1206 C 0.52394 0.24238 0.48798 0.0
C1207 C 0.51054 0.26128 0.44264 0.0
C1208 C 0.4908 0.25788 0.53027 0.0
C1209 C 0.53936 0.23074 0.56323 0.0
N1210 N 0.50576 0.26135 0.47052 0.0
N1211 N 0.54215 0.23075 0.53533 0.0
H1212 H 0.27687 0.49093 0.07912 0.0
H1213 H 0.22161 0.56084 0.93221 0.0
H1214 H 0.20842 0.57044 0.06704 0.0
H1215 H 0.26578 0.46508 0.94024 0.0
H1216 H 0.22186 0.56633 0.98203 0.0
H1217 H 0.27762 0.48209 0.02885 0.0
C1218 C 0.26193 0.5064 0.06601 0.0
C1219 C 0.24256 0.53149 0.07743 0.0
C1220 C 0.23148 0.54403 0.97301 0.0
C1221 C 0.24362 0.52175 0.02009 0.0
C1222 C 0.23147 0.54089 0.94443 0.0
C1223 C 0.24361 0.51237 0.93186 0.0
C1224 C 0.24398 0.51862 0.98949 0.0
C1225 C 0.25605 0.48745 0.94901 0.0
C1226 C 0.26236 0.50131 0.03736 0.0
C1227 C 0.22372 0.55076 0.05938 0.0
N1228 N 0.25601 0.49117 0.97699 0.0
N1229 N 0.2249 0.5456 0.03178 0.0
H1230 H 0.93585 0.30406 0.43841 0.0
H1231 H 0.03678 0.23851 0.5686 0.0
H1232 H 0.00954 0.22865 0.43026 0.0
H1233 H 0.9443 0.28966 0.57383 0.0
H1234 H 0.03176 0.23847 0.51806 0.0
H1235 H 0.94379 0.30359 0.48803 0.0
C1236 C 0.95392 0.28747 0.44699 0.0
C1237 C 0.97201 0.2663 0.42996 0.0
C1238 C 0.0126 0.2496 0.53036 0.0
C1239 C 0.98118 0.26563 0.48734 0.0
C1240 C 0.01546 0.24972 0.55919 0.0
C1241 C 0.99092 0.26411 0.57558 0.0
C1242 C 0.98525 0.2644 0.51785 0.0
C1243 C 0.96382 0.27819 0.56218 0.0
C1244 C 0.95831 0.28712 0.47547 0.0
C1245 C 0.99499 0.24535 0.44255 0.0
N1246 N 0.96184 0.27811 0.53423 0.0
N1247 N 0.99896 0.24556 0.4705 0.0
loop_
_geom_bond_atom_site_label_1
_geom_bond_atom_site_label_2
_geom_bond_distance
_geom_bond_site_symmetry_2
_ccdc_geom_bond_type
Co0 N4 2.148 . S
Co0 N10 2.128 . S
Co0 N20 2.194 . S
Co0 O25 2.351 . S
Co0 O26 2.155 . S
Co0 O27 2.096 . S
C1 N4 1.301 . S
C1 N5 1.328 . S
C1 H6 0.930 . S
C2 C3 1.333 . S
C2 N4 1.317 . S
C2 H7 0.930 . S
C3 C2 1.333 . S
C3 N5 1.350 . S
C3 H29 0.931 . S
N4 Co0 2.148 . S
N4 C1 1.301 . S
N4 C2 1.317 . S
N5 C1 1.328 . S
N5 C3 1.350 . S
H6 C1 0.930 . S
H7 C2 0.930 . S
C8 O9 1.224 . S
C8 O27 1.247 . S
O9 C8 1.224 . S
N10 Co0 2.128 . S
N10 C11 1.355 1_545 S
N10 C13 1.311 1_545 S
C11 N10 1.355 1_565 S
C11 C12 1.363 . S
C11 H23 0.929 . S
C12 C11 1.363 . S
C12 N14 1.375 . S
C12 H30 0.931 . S
C13 N10 1.311 1_565 S
C13 N14 1.347 . S
C13 H24 0.934 . S
N14 C12 1.375 . S
N14 C13 1.347 . S
C15 C18 1.365 . S
C15 N20 1.328 . S
C15 H21 0.929 . S
C16 C17 1.362 . S
C16 C19 1.378 . S
C16 H31 0.929 . S
C17 C16 1.362 . S
C17 C18 1.366 . S
C18 C15 1.365 . S
C18 C17 1.366 . S
C18 H32 0.930 . S
C19 C16 1.378 . S
C19 N20 1.315 . S
C19 H22 0.930 . S
N20 Co0 2.194 . S
N20 C15 1.328 . S
N20 C19 1.315 . S
H21 C15 0.929 . S
H22 C19 0.930 . S
H23 C11 0.929 . S
H24 C13 0.934 . S
O25 Co0 2.351 . S
O25 C28 1.244 . S
O26 Co0 2.155 . S
O26 C28 1.240 . S
O27 Co0 2.096 . S
O27 C8 1.247 . S
C28 O25 1.244 . S
C28 O26 1.240 . S
H29 C3 0.931 . S
H30 C12 0.931 . S
H31 C16 0.929 . S
H32 C18 0.930 . S
Co33 N37 2.148 . S
Co33 N43 2.128 . S
Co33 N53 2.194 . S
Co33 O58 2.351 . S
Co33 O59 2.155 . S
Co33 O60 2.096 . S
C34 N37 1.301 . S
C34 N38 1.328 . S
C34 H39 0.930 . S
C35 C36 1.333 . S
C35 N37 1.317 . S
C35 H40 0.930 . S
C36 C35 1.333 . S
C36 N38 1.350 . S
C36 H62 0.931 . S
N37 Co33 2.148 . S
N37 C34 1.301 . S
N37 C35 1.317 . S
N38 C34 1.328 . S
N38 C36 1.350 . S
H39 C34 0.930 . S
H40 C35 0.930 . S
C41 O42 1.224 . S
C41 O60 1.247 . S
O42 C41 1.224 . S
N43 Co33 2.128 . S
N43 C44 1.355 . S
N43 C46 1.311 . S
C44 N43 1.355 . S
C44 C45 1.363 . S
C44 H56 0.929 . S
C45 C44 1.363 . S
C45 N47 1.375 . S
C45 H63 0.931 . S
C46 N43 1.311 . S
C46 N47 1.347 . S
C46 H57 0.929 . S
N47 C45 1.375 . S
N47 C46 1.347 . S
C48 C51 1.365 . S
C48 N53 1.328 . S
C48 H54 0.929 . S
C49 C50 1.362 . S
C49 C52 1.378 . S
C49 H64 0.929 . S
C50 C49 1.362 . S
C50 C51 1.366 . S
C51 C48 1.365 . S
C51 C50 1.366 . S
C51 H65 0.930 . S
C52 C49 1.378 . S
C52 N53 1.315 . S
C52 H55 0.930 . S
N53 Co33 2.194 . S
N53 C48 1.328 . S
N53 C52 1.315 . S
H54 C48 0.929 . S
H55 C52 0.930 . S
H56 C44 0.929 . S
H57 C46 0.929 . S
O58 Co33 2.351 . S
O58 C61 1.244 . S
O59 Co33 2.155 . S
O59 C61 1.240 . S
O60 Co33 2.096 . S
O60 C41 1.247 . S
C61 O58 1.244 . S
C61 O59 1.240 . S
H62 C36 0.931 . S
H63 C45 0.931 . S
H64 C49 0.929 . S
H65 C51 0.930 . S
Co66 N70 2.148 . S
Co66 N76 2.128 . S
Co66 N86 2.194 . S
Co66 O91 2.351 . S
Co66 O92 2.155 . S
Co66 O93 2.096 . S
C67 N70 1.301 . S
C67 N71 1.328 . S
C67 H72 0.930 . S
C68 C69 1.333 . S
C68 N70 1.317 . S
C68 H73 0.930 . S
C69 C68 1.333 . S
C69 N71 1.350 . S
C69 H95 0.931 . S
N70 Co66 2.148 . S
N70 C67 1.301 . S
N70 C68 1.317 . S
N71 C67 1.328 . S
N71 C69 1.350 . S
H72 C67 0.930 . S
H73 C68 0.930 . S
C74 O75 1.224 . S
C74 O93 1.247 . S
O75 C74 1.224 . S
N76 Co66 2.128 . S
N76 C77 1.355 . S
N76 C79 1.311 . S
C77 N76 1.355 . S
C77 C78 1.363 . S
C77 H89 0.929 . S
C78 C77 1.363 . S
C78 N80 1.375 . S
C78 H96 0.931 . S
C79 N76 1.311 . S
C79 N80 1.347 . S
C79 H90 0.929 . S
N80 C78 1.375 . S
N80 C79 1.347 . S
C81 C84 1.365 . S
C81 N86 1.328 . S
C81 H87 0.929 . S
C82 C83 1.362 . S
C82 C85 1.378 . S
C82 H97 0.929 . S
C83 C82 1.362 . S
C83 C84 1.366 . S
C84 C81 1.365 . S
C84 C83 1.366 . S
C84 H98 0.930 . S
C85 C82 1.378 . S
C85 N86 1.315 . S
C85 H88 0.930 . S
N86 Co66 2.194 . S
N86 C81 1.328 . S
N86 C85 1.315 . S
H87 C81 0.929 . S
H88 C85 0.930 . S
H89 C77 0.929 . S
H90 C79 0.929 . S
O91 Co66 2.351 . S
O91 C94 1.244 . S
O92 Co66 2.155 . S
O92 C94 1.240 . S
O93 Co66 2.096 . S
O93 C74 1.247 . S
C94 O91 1.244 . S
C94 O92 1.240 . S
H95 C69 0.931 . S
H96 C78 0.931 . S
H97 C82 0.929 . S
H98 C84 0.930 . S
Co99 N103 2.148 . S
Co99 N109 2.128 . S
Co99 N119 2.194 . S
Co99 O124 2.351 . S
Co99 O125 2.155 . S
Co99 O126 2.096 . S
C100 N103 1.301 . S
C100 N104 1.328 . S
C100 H105 0.930 . S
C101 C102 1.333 . S
C101 N103 1.317 . S
C101 H106 0.930 . S
C102 C101 1.333 . S
C102 N104 1.350 . S
C102 H128 0.931 . S
N103 Co99 2.148 . S
N103 C100 1.301 . S
N103 C101 1.317 . S
N104 C100 1.328 . S
N104 C102 1.350 . S
H105 C100 0.930 . S
H106 C101 0.930 . S
C107 O108 1.224 . S
C107 O126 1.247 . S
O108 C107 1.224 . S
N109 Co99 2.128 . S
N109 C110 1.355 1_455 S
N109 C112 1.311 1_455 S
C110 N109 1.355 1_655 S
C110 C111 1.363 . S
C110 H122 0.929 . S
C111 C110 1.363 . S
C111 N113 1.375 . S
C111 H129 0.931 . S
C112 N109 1.311 1_655 S
C112 N113 1.347 . S
C112 H123 0.934 . S
N113 C111 1.375 . S
N113 C112 1.347 . S
C114 C117 1.365 . S
C114 N119 1.328 . S
C114 H120 0.929 . S
C115 C116 1.362 . S
C115 C118 1.378 . S
C115 H130 0.929 . S
C116 C115 1.362 . S
C116 C117 1.366 . S
C117 C114 1.365 . S
C117 C116 1.366 . S
C117 H131 0.930 . S
C118 C115 1.378 . S
C118 N119 1.315 . S
C118 H121 0.930 . S
N119 Co99 2.194 . S
N119 C114 1.328 . S
N119 C118 1.315 . S
H120 C114 0.929 . S
H121 C118 0.930 . S
H122 C110 0.929 . S
H123 C112 0.934 . S
O124 Co99 2.351 . S
O124 C127 1.244 . S
O125 Co99 2.155 . S
O125 C127 1.240 . S
O126 Co99 2.096 . S
O126 C107 1.247 . S
C127 O124 1.244 . S
C127 O125 1.240 . S
H128 C102 0.931 . S
H129 C111 0.931 . S
H130 C115 0.929 . S
H131 C117 0.930 . S
Co132 N136 2.148 . S
Co132 N142 2.128 . S
Co132 N152 2.194 . S
Co132 O157 2.351 . S
Co132 O158 2.155 . S
Co132 O159 2.096 . S
C133 N136 1.301 . S
C133 N137 1.328 . S
C133 H138 0.930 . S
C134 C135 1.333 . S
C134 N136 1.317 . S
C134 H139 0.930 . S
C135 C134 1.333 . S
C135 N137 1.350 . S
C135 H161 0.931 . S
N136 Co132 2.148 . S
N136 C133 1.301 . S
N136 C134 1.317 . S
N137 C133 1.328 . S
N137 C135 1.350 . S
H138 C133 0.930 . S
H139 C134 0.930 . S
C140 O141 1.224 . S
C140 O159 1.247 . S
O141 C140 1.224 . S
N142 Co132 2.128 . S
N142 C143 1.355 . S
N142 C145 1.311 . S
C143 N142 1.355 . S
C143 C144 1.363 . S
C143 H155 0.929 . S
C144 C143 1.363 . S
C144 N146 1.375 . S
C144 H162 0.931 . S
C145 N142 1.311 . S
C145 N146 1.347 . S
C145 H156 0.929 . S
N146 C144 1.375 . S
N146 C145 1.347 . S
C147 C150 1.365 . S
C147 N152 1.328 . S
C147 H153 0.929 . S
C148 C149 1.362 . S
C148 C151 1.378 . S
C148 H163 0.929 . S
C149 C148 1.362 . S
C149 C150 1.366 . S
C150 C147 1.365 . S
C150 C149 1.366 . S
C150 H164 0.930 . S
C151 C148 1.378 . S
C151 N152 1.315 . S
C151 H154 0.930 . S
N152 Co132 2.194 . S
N152 C147 1.328 . S
N152 C151 1.315 . S
H153 C147 0.929 . S
H154 C151 0.930 . S
H155 C143 0.929 . S
H156 C145 0.929 . S
O157 Co132 2.351 . S
O157 C160 1.244 . S
O158 Co132 2.155 . S
O158 C160 1.240 . S
O159 Co132 2.096 . S
O159 C140 1.247 . S
C160 O157 1.244 . S
C160 O158 1.240 . S
H161 C135 0.931 . S
H162 C144 0.931 . S
H163 C148 0.929 . S
H164 C150 0.930 . S
Co165 N169 2.148 . S
Co165 N175 2.128 . S
Co165 N185 2.194 . S
Co165 O190 2.351 . S
Co165 O191 2.155 . S
Co165 O192 2.096 . S
C166 N169 1.301 . S
C166 N170 1.328 . S
C166 H171 0.930 . S
C167 C168 1.333 . S
C167 N169 1.317 . S
C167 H172 0.930 . S
C168 C167 1.333 . S
C168 N170 1.350 . S
C168 H194 0.931 . S
N169 Co165 2.148 . S
N169 C166 1.301 . S
N169 C167 1.317 . S
N170 C166 1.328 . S
N170 C168 1.350 . S
H171 C166 0.930 . S
H172 C167 0.930 . S
C173 O174 1.224 . S
C173 O192 1.247 . S
O174 C173 1.224 . S
N175 Co165 2.128 . S
N175 C176 1.355 1_455 S
N175 C178 1.311 1_455 S
C176 N175 1.355 1_655 S
C176 C177 1.363 . S
C176 H188 0.929 . S
C177 C176 1.363 . S
C177 N179 1.375 . S
C177 H195 0.931 . S
C178 N175 1.311 1_655 S
C178 N179 1.347 . S
C178 H189 0.934 . S
N179 C177 1.375 . S
N179 C178 1.347 . S
C180 C183 1.365 . S
C180 N185 1.328 . S
C180 H186 0.929 . S
C181 C182 1.362 . S
C181 C184 1.378 . S
C181 H196 0.929 . S
C182 C181 1.362 . S
C182 C183 1.366 . S
C183 C180 1.365 . S
C183 C182 1.366 . S
C183 H197 0.930 . S
C184 C181 1.378 . S
C184 N185 1.315 . S
C184 H187 0.930 . S
N185 Co165 2.194 . S
N185 C180 1.328 . S
N185 C184 1.315 . S
H186 C180 0.929 . S
H187 C184 0.930 . S
H188 C176 0.929 . S
H189 C178 0.934 . S
O190 Co165 2.351 . S
O190 C193 1.244 . S
O191 Co165 2.155 . S
O191 C193 1.240 . S
O192 Co165 2.096 . S
O192 C173 1.247 . S
C193 O190 1.244 . S
C193 O191 1.240 . S
H194 C168 0.931 . S
H195 C177 0.931 . S
H196 C181 0.929 . S
H197 C183 0.930 . S
Co198 N202 2.148 . S
Co198 N208 2.128 . S
Co198 N218 2.194 . S
Co198 O223 2.351 . S
Co198 O224 2.155 . S
Co198 O225 2.096 . S
C199 N202 1.301 . S
C199 N203 1.328 . S
C199 H204 0.930 . S
C200 C201 1.333 . S
C200 N202 1.317 . S
C200 H205 0.930 . S
C201 C200 1.333 . S
C201 N203 1.350 . S
C201 H227 0.931 . S
N202 Co198 2.148 . S
N202 C199 1.301 . S
N202 C200 1.317 . S
N203 C199 1.328 . S
N203 C201 1.350 . S
H204 C199 0.930 . S
H205 C200 0.930 . S
C206 O207 1.224 . S
C206 O225 1.247 . S
O207 C206 1.224 . S
N208 Co198 2.128 . S
N208 C209 1.355 1_545 S
N208 C211 1.311 1_545 S
C209 N208 1.355 1_565 S
C209 C210 1.363 . S
C209 H221 0.929 . S
C210 C209 1.363 . S
C210 N212 1.375 . S
C210 H228 0.931 . S
C211 N208 1.311 1_565 S
C211 N212 1.347 . S
C211 H222 0.934 . S
N212 C210 1.375 . S
N212 C211 1.347 . S
C213 C216 1.365 . S
C213 N218 1.328 . S
C213 H219 0.929 . S
C214 C215 1.362 . S
C214 C217 1.378 . S
C214 H229 0.929 . S
C215 C214 1.362 . S
C215 C216 1.366 . S
C216 C213 1.365 . S
C216 C215 1.366 . S
C216 H230 0.930 . S
C217 C214 1.378 . S
C217 N218 1.315 . S
C217 H220 0.930 . S
N218 Co198 2.194 . S
N218 C213 1.328 . S
N218 C217 1.315 . S
H219 C213 0.929 . S
H220 C217 0.930 . S
H221 C209 0.929 . S
H222 C211 0.934 . S
O223 Co198 2.351 . S
O223 C226 1.244 . S
O224 Co198 2.155 . S
O224 C226 1.240 . S
O225 Co198 2.096 . S
O225 C206 1.247 . S
C226 O223 1.244 . S
C226 O224 1.240 . S
H227 C201 0.931 . S
H228 C210 0.931 . S
H229 C214 0.929 . S
H230 C216 0.930 . S
Co231 N235 2.148 . S
Co231 N241 2.128 . S
Co231 N251 2.194 . S
Co231 O256 2.351 . S
Co231 O257 2.155 . S
Co231 O258 2.096 . S
C232 N235 1.301 . S
C232 N236 1.328 . S
C232 H237 0.930 . S
C233 C234 1.333 . S
C233 N235 1.317 . S
C233 H238 0.930 . S
C234 C233 1.333 . S
C234 N236 1.350 . S
C234 H260 0.931 . S
N235 Co231 2.148 . S
N235 C232 1.301 . S
N235 C233 1.317 . S
N236 C232 1.328 . S
N236 C234 1.350 . S
H237 C232 0.930 . S
H238 C233 0.930 . S
C239 O240 1.224 . S
C239 O258 1.247 . S
O240 C239 1.224 . S
N241 Co231 2.128 . S
N241 C242 1.355 . S
N241 C244 1.311 . S
C242 N241 1.355 . S
C242 C243 1.363 . S
C242 H254 0.929 . S
C243 C242 1.363 . S
C243 N245 1.375 . S
C243 H261 0.931 . S
C244 N241 1.311 . S
C244 N245 1.347 . S
C244 H255 0.929 . S
N245 C243 1.375 . S
N245 C244 1.347 . S
C246 C249 1.365 . S
C246 N251 1.328 . S
C246 H252 0.929 . S
C247 C248 1.362 . S
C247 C250 1.378 . S
C247 H262 0.929 . S
C248 C247 1.362 . S
C248 C249 1.366 . S
C249 C246 1.365 . S
C249 C248 1.366 . S
C249 H263 0.930 . S
C250 C247 1.378 . S
C250 N251 1.315 . S
C250 H253 0.930 . S
N251 Co231 2.194 . S
N251 C246 1.328 . S
N251 C250 1.315 . S
H252 C246 0.929 . S
H253 C250 0.930 . S
H254 C242 0.929 . S
H255 C244 0.929 . S
O256 Co231 2.351 . S
O256 C259 1.244 . S
O257 Co231 2.155 . S
O257 C259 1.240 . S
O258 Co231 2.096 . S
O258 C239 1.247 . S
C259 O256 1.244 . S
C259 O257 1.240 . S
H260 C234 0.931 . S
H261 C243 0.931 . S
H262 C247 0.929 . S
H263 C249 0.930 . S
Co264 N268 2.150 . S
Co264 N274 2.128 . S
Co264 N284 2.194 . S
Co264 O289 2.351 . S
Co264 O290 2.155 . S
Co264 O291 2.096 . S
C265 N268 1.300 1_545 S
C265 N269 1.328 . S
C265 H270 0.930 . S
C266 C267 1.333 . S
C266 N268 1.316 1_545 S
C266 H271 0.930 . S
C267 C266 1.333 . S
C267 N269 1.350 . S
C267 H293 0.931 . S
N268 Co264 2.150 . S
N268 C265 1.300 1_565 S
N268 C266 1.316 1_565 S
N269 C265 1.328 . S
N269 C267 1.350 . S
H270 C265 0.930 . S
H271 C266 0.930 . S
C272 O273 1.224 . S
C272 O291 1.247 . S
O273 C272 1.224 . S
N274 Co264 2.128 . S
N274 C275 1.355 . S
N274 C277 1.311 . S
C275 N274 1.355 . S
C275 C276 1.363 . S
C275 H287 0.929 . S
C276 C275 1.363 . S
C276 N278 1.375 . S
C276 H294 0.931 . S
C277 N274 1.311 . S
C277 N278 1.347 . S
C277 H288 0.929 . S
N278 C276 1.375 . S
N278 C277 1.347 . S
C279 C282 1.365 . S
C279 N284 1.328 . S
C279 H285 0.929 . S
C280 C281 1.362 . S
C280 C283 1.378 . S
C280 H295 0.929 . S
C281 C280 1.362 . S
C281 C282 1.366 . S
C282 C279 1.365 . S
C282 C281 1.366 . S
C282 H296 0.930 . S
C283 C280 1.378 . S
C283 N284 1.315 . S
C283 H286 0.930 . S
N284 Co264 2.194 . S
N284 C279 1.328 . S
N284 C283 1.315 . S
H285 C279 0.929 . S
H286 C283 0.930 . S
H287 C275 0.929 . S
H288 C277 0.929 . S
O289 Co264 2.351 . S
O289 C292 1.244 . S
O290 Co264 2.155 . S
O290 C292 1.240 . S
O291 Co264 2.096 . S
O291 C272 1.247 . S
C292 O289 1.244 . S
C292 O290 1.240 . S
H293 C267 0.931 . S
H294 C276 0.931 . S
H295 C280 0.929 . S
H296 C282 0.930 . S
Co297 N301 2.148 . S
Co297 N307 2.128 . S
Co297 N317 2.194 . S
Co297 O322 2.351 . S
Co297 O323 2.155 . S
Co297 O324 2.096 . S
C298 N301 1.301 . S
C298 N302 1.328 . S
C298 H303 0.930 . S
C299 C300 1.333 . S
C299 N301 1.317 . S
C299 H304 0.930 . S
C300 C299 1.333 . S
C300 N302 1.350 . S
C300 H326 0.931 . S
N301 Co297 2.148 . S
N301 C298 1.301 . S
N301 C299 1.317 . S
N302 C298 1.328 . S
N302 C300 1.350 . S
H303 C298 0.930 . S
H304 C299 0.930 . S
C305 O306 1.224 . S
C305 O324 1.247 . S
O306 C305 1.224 . S
N307 Co297 2.128 . S
N307 C308 1.355 . S
N307 C310 1.311 . S
C308 N307 1.355 . S
C308 C309 1.363 . S
C308 H320 0.929 . S
C309 C308 1.363 . S
C309 N311 1.375 . S
C309 H327 0.931 . S
C310 N307 1.311 . S
C310 N311 1.347 . S
C310 H321 0.929 . S
N311 C309 1.375 . S
N311 C310 1.347 . S
C312 C315 1.365 . S
C312 N317 1.328 . S
C312 H318 0.929 . S
C313 C314 1.362 . S
C313 C316 1.378 . S
C313 H328 0.929 . S
C314 C313 1.362 . S
C314 C315 1.366 . S
C315 C312 1.365 . S
C315 C314 1.366 . S
C315 H329 0.930 . S
C316 C313 1.378 . S
C316 N317 1.315 . S
C316 H319 0.930 . S
N317 Co297 2.194 . S
N317 C312 1.328 . S
N317 C316 1.315 . S
H318 C312 0.929 . S
H319 C316 0.930 . S
H320 C308 0.929 . S
H321 C310 0.929 . S
O322 Co297 2.351 . S
O322 C325 1.244 . S
O323 Co297 2.155 . S
O323 C325 1.240 . S
O324 Co297 2.096 . S
O324 C305 1.247 . S
C325 O322 1.244 . S
C325 O323 1.240 . S
H326 C300 0.931 . S
H327 C309 0.931 . S
H328 C313 0.929 . S
H329 C315 0.930 . S
Co330 N334 2.148 . S
Co330 N340 2.128 . S
Co330 N350 2.194 . S
Co330 O355 2.351 . S
Co330 O356 2.155 . S
Co330 O357 2.096 . S
C331 N334 1.301 . S
C331 N335 1.328 . S
C331 H336 0.930 . S
C332 C333 1.333 . S
C332 N334 1.317 . S
C332 H337 0.930 . S
C333 C332 1.333 . S
C333 N335 1.350 . S
C333 H359 0.931 . S
N334 Co330 2.148 . S
N334 C331 1.301 . S
N334 C332 1.317 . S
N335 C331 1.328 . S
N335 C333 1.350 . S
H336 C331 0.930 . S
H337 C332 0.930 . S
C338 O339 1.224 . S
C338 O357 1.247 . S
O339 C338 1.224 . S
N340 Co330 2.128 . S
N340 C341 1.355 . S
N340 C343 1.311 . S
C341 N340 1.355 . S
C341 C342 1.363 . S
C341 H353 0.929 . S
C342 C341 1.363 . S
C342 N344 1.375 . S
C342 H360 0.931 . S
C343 N340 1.311 . S
C343 N344 1.347 . S
C343 H354 0.929 . S
N344 C342 1.375 . S
N344 C343 1.347 . S
C345 C348 1.365 . S
C345 N350 1.328 . S
C345 H351 0.929 . S
C346 C347 1.362 . S
C346 C349 1.378 . S
C346 H361 0.929 . S
C347 C346 1.362 . S
C347 C348 1.366 . S
C348 C345 1.365 . S
C348 C347 1.366 . S
C348 H362 0.930 . S
C349 C346 1.378 . S
C349 N350 1.315 . S
C349 H352 0.930 . S
N350 Co330 2.194 . S
N350 C345 1.328 . S
N350 C349 1.315 . S
H351 C345 0.929 . S
H352 C349 0.930 . S
H353 C341 0.929 . S
H354 C343 0.929 . S
O355 Co330 2.351 . S
O355 C358 1.244 . S
O356 Co330 2.155 . S
O356 C358 1.240 . S
O357 Co330 2.096 . S
O357 C338 1.247 . S
C358 O355 1.244 . S
C358 O356 1.240 . S
H359 C333 0.931 . S
H360 C342 0.931 . S
H361 C346 0.929 . S
H362 C348 0.930 . S
Co363 N367 2.149 . S
Co363 N373 2.128 . S
Co363 N383 2.194 . S
Co363 O388 2.351 . S
Co363 O389 2.155 . S
Co363 O390 2.096 . S
C364 N367 1.301 1_455 S
C364 N368 1.328 . S
C364 H369 0.930 . S
C365 C366 1.333 . S
C365 N367 1.316 1_455 S
C365 H370 0.930 . S
C366 C365 1.333 . S
C366 N368 1.350 . S
C366 H392 0.931 . S
N367 Co363 2.149 . S
N367 C364 1.301 1_655 S
N367 C365 1.316 1_655 S
N368 C364 1.328 . S
N368 C366 1.350 . S
H369 C364 0.930 . S
H370 C365 0.930 . S
C371 O372 1.224 . S
C371 O390 1.247 . S
O372 C371 1.224 . S
N373 Co363 2.128 . S
N373 C374 1.355 . S
N373 C376 1.311 . S
C374 N373 1.355 . S
C374 C375 1.363 . S
C374 H386 0.929 . S
C375 C374 1.363 . S
C375 N377 1.375 . S
C375 H393 0.931 . S
C376 N373 1.311 . S
C376 N377 1.347 . S
C376 H387 0.929 . S
N377 C375 1.375 . S
N377 C376 1.347 . S
C378 C381 1.365 . S
C378 N383 1.328 . S
C378 H384 0.929 . S
C379 C380 1.362 . S
C379 C382 1.378 . S
C379 H394 0.929 . S
C380 C379 1.362 . S
C380 C381 1.366 . S
C381 C378 1.365 . S
C381 C380 1.366 . S
C381 H395 0.930 . S
C382 C379 1.378 . S
C382 N383 1.315 . S
C382 H385 0.930 . S
N383 Co363 2.194 . S
N383 C378 1.328 . S
N383 C382 1.315 . S
H384 C378 0.929 . S
H385 C382 0.930 . S
H386 C374 0.929 . S
H387 C376 0.929 . S
O388 Co363 2.351 . S
O388 C391 1.244 . S
O389 Co363 2.155 . S
O389 C391 1.240 . S
O390 Co363 2.096 . S
O390 C371 1.247 . S
C391 O388 1.244 . S
C391 O389 1.240 . S
H392 C366 0.931 . S
H393 C375 0.931 . S
H394 C379 0.929 . S
H395 C381 0.930 . S
Co396 N400 2.148 . S
Co396 N406 2.128 . S
Co396 N416 2.194 . S
Co396 O421 2.351 . S
Co396 O422 2.155 . S
Co396 O423 2.096 . S
C397 N400 1.301 . S
C397 N401 1.328 . S
C397 H402 0.930 . S
C398 C399 1.333 . S
C398 N400 1.317 . S
C398 H403 0.930 . S
C399 C398 1.333 . S
C399 N401 1.350 . S
C399 H425 0.931 . S
N400 Co396 2.148 . S
N400 C397 1.301 . S
N400 C398 1.317 . S
N401 C397 1.328 . S
N401 C399 1.350 . S
H402 C397 0.930 . S
H403 C398 0.930 . S
C404 O405 1.224 . S
C404 O423 1.247 . S
O405 C404 1.224 . S
N406 Co396 2.128 . S
N406 C407 1.355 . S
N406 C409 1.311 . S
C407 N406 1.355 . S
C407 C408 1.363 . S
C407 H419 0.929 . S
C408 C407 1.363 . S
C408 N410 1.375 . S
C408 H426 0.931 . S
C409 N406 1.311 . S
C409 N410 1.347 . S
C409 H420 0.929 . S
N410 C408 1.375 . S
N410 C409 1.347 . S
C411 C414 1.365 . S
C411 N416 1.328 . S
C411 H417 0.929 . S
C412 C413 1.362 . S
C412 C415 1.378 . S
C412 H427 0.929 . S
C413 C412 1.362 . S
C413 C414 1.366 . S
C414 C411 1.365 . S
C414 C413 1.366 . S
C414 H428 0.930 . S
C415 C412 1.378 . S
C415 N416 1.315 . S
C415 H418 0.930 . S
N416 Co396 2.194 . S
N416 C411 1.328 . S
N416 C415 1.315 . S
H417 C411 0.929 . S
H418 C415 0.930 . S
H419 C407 0.929 . S
H420 C409 0.929 . S
O421 Co396 2.351 . S
O421 C424 1.244 . S
O422 Co396 2.155 . S
O422 C424 1.240 . S
O423 Co396 2.096 . S
O423 C404 1.247 . S
C424 O421 1.244 . S
C424 O422 1.240 . S
H425 C399 0.931 . S
H426 C408 0.931 . S
H427 C412 0.929 . S
H428 C414 0.930 . S
Co429 N433 2.150 . S
Co429 N439 2.128 . S
Co429 N449 2.194 . S
Co429 O454 2.351 . S
Co429 O455 2.155 . S
Co429 O456 2.096 . S
C430 N433 1.300 1_455 S
C430 N434 1.328 . S
C430 H435 0.930 . S
C431 C432 1.333 . S
C431 N433 1.316 1_455 S
C431 H436 0.930 . S
C432 C431 1.333 . S
C432 N434 1.350 . S
C432 H458 0.931 . S
N433 Co429 2.150 . S
N433 C430 1.300 1_655 S
N433 C431 1.316 1_655 S
N434 C430 1.328 . S
N434 C432 1.350 . S
H435 C430 0.930 . S
H436 C431 0.930 . S
C437 O438 1.224 . S
C437 O456 1.247 . S
O438 C437 1.224 . S
N439 Co429 2.128 . S
N439 C440 1.355 . S
N439 C442 1.311 . S
C440 N439 1.355 . S
C440 C441 1.363 . S
C440 H452 0.929 . S
C441 C440 1.363 . S
C441 N443 1.375 . S
C441 H459 0.931 . S
C442 N439 1.311 . S
C442 N443 1.347 . S
C442 H453 0.929 . S
N443 C441 1.375 . S
N443 C442 1.347 . S
C444 C447 1.365 . S
C444 N449 1.328 . S
C444 H450 0.929 . S
C445 C446 1.362 . S
C445 C448 1.378 . S
C445 H460 0.929 . S
C446 C445 1.362 . S
C446 C447 1.366 . S
C447 C444 1.365 . S
C447 C446 1.366 . S
C447 H461 0.930 . S
C448 C445 1.378 . S
C448 N449 1.315 . S
C448 H451 0.930 . S
N449 Co429 2.194 . S
N449 C444 1.328 . S
N449 C448 1.315 . S
H450 C444 0.929 . S
H451 C448 0.930 . S
H452 C440 0.929 . S
H453 C442 0.929 . S
O454 Co429 2.351 . S
O454 C457 1.244 . S
O455 Co429 2.155 . S
O455 C457 1.240 . S
O456 Co429 2.096 . S
O456 C437 1.247 . S
C457 O454 1.244 . S
C457 O455 1.240 . S
H458 C432 0.931 . S
H459 C441 0.931 . S
H460 C445 0.929 . S
H461 C447 0.930 . S
Co462 N466 2.149 . S
Co462 N472 2.128 . S
Co462 N482 2.194 . S
Co462 O487 2.351 . S
Co462 O488 2.155 . S
Co462 O489 2.096 . S
C463 N466 1.301 1_545 S
C463 N467 1.328 . S
C463 H468 0.930 . S
C464 C465 1.333 . S
C464 N466 1.316 1_545 S
C464 H469 0.930 . S
C465 C464 1.333 . S
C465 N467 1.350 . S
C465 H491 0.931 . S
N466 Co462 2.149 . S
N466 C463 1.301 1_565 S
N466 C464 1.316 1_565 S
N467 C463 1.328 . S
N467 C465 1.350 . S
H468 C463 0.930 . S
H469 C464 0.930 . S
C470 O471 1.224 . S
C470 O489 1.247 . S
O471 C470 1.224 . S
N472 Co462 2.128 . S
N472 C473 1.355 . S
N472 C475 1.311 . S
C473 N472 1.355 . S
C473 C474 1.363 . S
C473 H485 0.929 . S
C474 C473 1.363 . S
C474 N476 1.375 . S
C474 H492 0.931 . S
C475 N472 1.311 . S
C475 N476 1.347 . S
C475 H486 0.929 . S
N476 C474 1.375 . S
N476 C475 1.347 . S
C477 C480 1.365 . S
C477 N482 1.328 . S
C477 H483 0.929 . S
C478 C479 1.362 . S
C478 C481 1.378 . S
C478 H493 0.929 . S
C479 C478 1.362 . S
C479 C480 1.366 . S
C480 C477 1.365 . S
C480 C479 1.366 . S
C480 H494 0.930 . S
C481 C478 1.378 . S
C481 N482 1.315 . S
C481 H484 0.930 . S
N482 Co462 2.194 . S
N482 C477 1.328 . S
N482 C481 1.315 . S
H483 C477 0.929 . S
H484 C481 0.930 . S
H485 C473 0.929 . S
H486 C475 0.929 . S
O487 Co462 2.351 . S
O487 C490 1.244 . S
O488 Co462 2.155 . S
O488 C490 1.240 . S
O489 Co462 2.096 . S
O489 C470 1.247 . S
C490 O487 1.244 . S
C490 O488 1.240 . S
H491 C465 0.931 . S
H492 C474 0.931 . S
H493 C478 0.929 . S
H494 C480 0.930 . S
Co495 N499 2.148 . S
Co495 N505 2.128 . S
Co495 N515 2.194 . S
Co495 O520 2.351 . S
Co495 O521 2.155 . S
Co495 O522 2.096 . S
C496 N499 1.301 . S
C496 N500 1.328 . S
C496 H501 0.930 . S
C497 C498 1.333 . S
C497 N499 1.317 . S
C497 H502 0.930 . S
C498 C497 1.333 . S
C498 N500 1.350 . S
C498 H524 0.931 . S
N499 Co495 2.148 . S
N499 C496 1.301 . S
N499 C497 1.317 . S
N500 C496 1.328 . S
N500 C498 1.350 . S
H501 C496 0.930 . S
H502 C497 0.930 . S
C503 O504 1.224 . S
C503 O522 1.247 . S
O504 C503 1.224 . S
N505 Co495 2.128 . S
N505 C506 1.355 . S
N505 C508 1.311 . S
C506 N505 1.355 . S
C506 C507 1.363 . S
C506 H518 0.929 . S
C507 C506 1.363 . S
C507 N509 1.375 . S
C507 H525 0.931 . S
C508 N505 1.311 . S
C508 N509 1.347 . S
C508 H519 0.929 . S
N509 C507 1.375 . S
N509 C508 1.347 . S
C510 C513 1.365 . S
C510 N515 1.328 . S
C510 H516 0.929 . S
C511 C512 1.362 . S
C511 C514 1.378 . S
C511 H526 0.929 . S
C512 C511 1.362 . S
C512 C513 1.366 . S
C513 C510 1.365 . S
C513 C512 1.366 . S
C513 H527 0.930 . S
C514 C511 1.378 . S
C514 N515 1.315 . S
C514 H517 0.930 . S
N515 Co495 2.194 . S
N515 C510 1.328 . S
N515 C514 1.315 . S
H516 C510 0.929 . S
H517 C514 0.930 . S
H518 C506 0.929 . S
H519 C508 0.929 . S
O520 Co495 2.351 . S
O520 C523 1.244 . S
O521 Co495 2.155 . S
O521 C523 1.240 . S
O522 Co495 2.096 . S
O522 C503 1.247 . S
C523 O520 1.244 . S
C523 O521 1.240 . S
H524 C498 0.931 . S
H525 C507 0.931 . S
H526 C511 0.929 . S
H527 C513 0.930 . S
H528 C534 0.930 . S
H529 C538 0.930 . S
H530 C543 0.929 . S
H531 C541 0.929 . S
H532 C536 0.929 . S
H533 C542 0.929 . S
C534 H528 0.930 . S
C534 C535 1.367 . S
C534 C542 1.378 . S
C535 C534 1.367 . S
C535 C543 1.433 . S
C536 H532 0.929 . S
C536 C538 1.378 . S
C536 C540 1.350 . S
C537 C540 1.463 . S
C537 C542 1.350 . S
C537 N545 1.427 . S
C538 H529 0.930 . S
C538 C536 1.378 . S
C538 C539 1.367 . S
C539 C538 1.367 . S
C539 C541 1.433 . S
C540 C536 1.350 . S
C540 C537 1.463 . S
C540 N544 1.427 . S
C541 H531 0.929 . S
C541 C539 1.433 . S
C541 N544 1.384 . S
C542 H533 0.929 . S
C542 C534 1.378 . S
C542 C537 1.350 . S
C543 H530 0.929 . S
C543 C535 1.433 . S
C543 N545 1.384 . S
N544 C540 1.427 . S
N544 C541 1.384 . S
N545 C537 1.427 . S
N545 C543 1.384 . S
H546 C552 0.930 . S
H547 C556 0.930 . S
H548 C561 0.929 . S
H549 C559 0.929 . S
H550 C554 0.929 . S
H551 C560 0.929 . S
C552 H546 0.930 . S
C552 C553 1.367 . S
C552 C560 1.378 . S
C553 C552 1.367 . S
C553 C561 1.433 . S
C554 H550 0.929 . S
C554 C556 1.378 . S
C554 C558 1.350 . S
C555 C558 1.463 . S
C555 C560 1.350 . S
C555 N563 1.427 . S
C556 H547 0.930 . S
C556 C554 1.378 . S
C556 C557 1.367 . S
C557 C556 1.367 . S
C557 C559 1.433 . S
C558 C554 1.350 . S
C558 C555 1.463 . S
C558 N562 1.427 . S
C559 H549 0.929 . S
C559 C557 1.433 . S
C559 N562 1.384 . S
C560 H551 0.929 . S
C560 C552 1.378 . S
C560 C555 1.350 . S
C561 H548 0.929 . S
C561 C553 1.433 . S
C561 N563 1.384 . S
N562 C558 1.427 . S
N562 C559 1.384 . S
N563 C555 1.427 . S
N563 C561 1.384 . S
H564 C570 0.930 . S
H565 C574 0.930 . S
H566 C579 0.929 . S
H567 C577 0.929 . S
H568 C572 0.929 . S
H569 C578 0.929 . S
C570 H564 0.930 . S
C570 C571 1.367 . S
C570 C578 1.378 . S
C571 C570 1.367 . S
C571 C579 1.433 . S
C572 H568 0.929 . S
C572 C574 1.378 . S
C572 C576 1.350 . S
C573 C576 1.463 . S
C573 C578 1.350 . S
C573 N581 1.427 . S
C574 H565 0.930 . S
C574 C572 1.378 . S
C574 C575 1.367 . S
C575 C574 1.367 . S
C575 C577 1.433 . S
C576 C572 1.350 . S
C576 C573 1.463 . S
C576 N580 1.427 . S
C577 H567 0.929 . S
C577 C575 1.433 . S
C577 N580 1.384 . S
C578 H569 0.929 . S
C578 C570 1.378 . S
C578 C573 1.350 . S
C579 H566 0.929 . S
C579 C571 1.433 . S
C579 N581 1.384 . S
N580 C576 1.427 . S
N580 C577 1.384 . S
N581 C573 1.427 . S
N581 C579 1.384 . S
H582 C588 0.930 . S
H583 C592 0.930 . S
H584 C597 0.929 . S
H585 C595 0.929 . S
H586 C590 0.929 . S
H587 C596 0.929 . S
C588 H582 0.930 . S
C588 C589 1.367 . S
C588 C596 1.378 . S
C589 C588 1.367 . S
C589 C597 1.433 . S
C590 H586 0.929 . S
C590 C592 1.378 . S
C590 C594 1.350 . S
C591 C594 1.463 . S
C591 C596 1.350 . S
C591 N599 1.427 . S
C592 H583 0.930 . S
C592 C590 1.378 . S
C592 C593 1.367 . S
C593 C592 1.367 . S
C593 C595 1.433 . S
C594 C590 1.350 . S
C594 C591 1.463 . S
C594 N598 1.427 . S
C595 H585 0.929 . S
C595 C593 1.433 . S
C595 N598 1.384 . S
C596 H587 0.929 . S
C596 C588 1.378 . S
C596 C591 1.350 . S
C597 H584 0.929 . S
C597 C589 1.433 . S
C597 N599 1.384 . S
N598 C594 1.427 . S
N598 C595 1.384 . S
N599 C591 1.427 . S
N599 C597 1.384 . S
H600 C606 0.930 . S
H601 C610 0.930 . S
H602 C615 0.929 . S
H603 C613 0.929 . S
H604 C608 0.929 . S
H605 C614 0.929 . S
C606 H600 0.930 . S
C606 C607 1.367 . S
C606 C614 1.378 . S
C607 C606 1.367 . S
C607 C615 1.433 . S
C608 H604 0.929 . S
C608 C610 1.378 . S
C608 C612 1.350 . S
C609 C612 1.463 . S
C609 C614 1.350 . S
C609 N617 1.427 . S
C610 H601 0.930 . S
C610 C608 1.378 . S
C610 C611 1.367 . S
C611 C610 1.367 . S
C611 C613 1.433 . S
C612 C608 1.350 . S
C612 C609 1.463 . S
C612 N616 1.427 . S
C613 H603 0.929 . S
C613 C611 1.433 . S
C613 N616 1.384 . S
C614 H605 0.929 . S
C614 C606 1.378 . S
C614 C609 1.350 . S
C615 H602 0.929 . S
C615 C607 1.433 . S
C615 N617 1.384 . S
N616 C612 1.427 . S
N616 C613 1.384 . S
N617 C609 1.427 . S
N617 C615 1.384 . S
H618 C624 0.930 . S
H619 C628 0.930 . S
H620 C633 0.929 . S
H621 C631 0.929 . S
H622 C626 0.929 . S
H623 C632 0.929 . S
C624 H618 0.930 . S
C624 C625 1.367 . S
C624 C632 1.378 . S
C625 C624 1.367 . S
C625 C633 1.433 . S
C626 H622 0.929 . S
C626 C628 1.378 . S
C626 C630 1.350 . S
C627 C630 1.463 . S
C627 C632 1.350 . S
C627 N635 1.427 . S
C628 H619 0.930 . S
C628 C626 1.378 . S
C628 C629 1.367 . S
C629 C628 1.367 . S
C629 C631 1.433 . S
C630 C626 1.350 . S
C630 C627 1.463 . S
C630 N634 1.427 . S
C631 H621 0.929 . S
C631 C629 1.433 . S
C631 N634 1.384 . S
C632 H623 0.929 . S
C632 C624 1.378 . S
C632 C627 1.350 . S
C633 H620 0.929 . S
C633 C625 1.433 . S
C633 N635 1.384 . S
N634 C630 1.427 . S
N634 C631 1.384 . S
N635 C627 1.427 . S
N635 C633 1.384 . S
H636 C642 0.930 . S
H637 C646 0.930 . S
H638 C651 0.929 . S
H639 C649 0.929 . S
H640 C644 0.929 . S
H641 C650 0.929 . S
C642 H636 0.930 . S
C642 C643 1.367 . S
C642 C650 1.378 . S
C643 C642 1.367 . S
C643 C651 1.433 . S
C644 H640 0.929 . S
C644 C646 1.378 . S
C644 C648 1.350 . S
C645 C648 1.463 . S
C645 C650 1.350 . S
C645 N653 1.427 . S
C646 H637 0.930 . S
C646 C644 1.378 . S
C646 C647 1.367 . S
C647 C646 1.367 . S
C647 C649 1.433 . S
C648 C644 1.350 . S
C648 C645 1.463 . S
C648 N652 1.427 . S
C649 H639 0.929 . S
C649 C647 1.433 . S
C649 N652 1.384 . S
C650 H641 0.929 . S
C650 C642 1.378 . S
C650 C645 1.350 . S
C651 H638 0.929 . S
C651 C643 1.433 . S
C651 N653 1.384 . S
N652 C648 1.427 . S
N652 C649 1.384 . S
N653 C645 1.427 . S
N653 C651 1.384 . S
H654 C660 0.930 . S
H655 C664 0.930 . S
H656 C669 0.929 . S
H657 C667 0.929 . S
H658 C662 0.929 . S
H659 C668 0.929 . S
C660 H654 0.930 . S
C660 C661 1.367 . S
C660 C668 1.378 . S
C661 C660 1.367 . S
C661 C669 1.433 . S
C662 H658 0.929 . S
C662 C664 1.378 . S
C662 C666 1.350 . S
C663 C666 1.463 . S
C663 C668 1.350 . S
C663 N671 1.427 . S
C664 H655 0.930 . S
C664 C662 1.378 . S
C664 C665 1.367 . S
C665 C664 1.367 . S
C665 C667 1.433 . S
C666 C662 1.350 . S
C666 C663 1.463 . S
C666 N670 1.427 . S
C667 H657 0.929 . S
C667 C665 1.433 . S
C667 N670 1.384 . S
C668 H659 0.929 . S
C668 C660 1.378 . S
C668 C663 1.350 . S
C669 H656 0.929 . S
C669 C661 1.433 . S
C669 N671 1.384 . S
N670 C666 1.427 . S
N670 C667 1.384 . S
N671 C663 1.427 . S
N671 C669 1.384 . S
H672 C678 0.930 . S
H673 C682 0.930 . S
H674 C687 0.929 . S
H675 C685 0.929 . S
H676 C680 0.929 . S
H677 C686 0.929 . S
C678 H672 0.930 . S
C678 C679 1.367 . S
C678 C686 1.378 . S
C679 C678 1.367 . S
C679 C687 1.433 . S
C680 H676 0.929 . S
C680 C682 1.378 . S
C680 C684 1.350 . S
C681 C684 1.463 . S
C681 C686 1.350 . S
C681 N689 1.427 . S
C682 H673 0.930 . S
C682 C680 1.378 . S
C682 C683 1.367 . S
C683 C682 1.367 . S
C683 C685 1.433 . S
C684 C680 1.350 . S
C684 C681 1.463 . S
C684 N688 1.427 . S
C685 H675 0.929 . S
C685 C683 1.433 . S
C685 N688 1.384 . S
C686 H677 0.929 . S
C686 C678 1.378 . S
C686 C681 1.350 . S
C687 H674 0.929 . S
C687 C679 1.433 . S
C687 N689 1.384 . S
N688 C684 1.427 . S
N688 C685 1.384 . S
N689 C681 1.427 . S
N689 C687 1.384 . S
H690 C696 0.930 . S
H691 C700 0.930 . S
H692 C705 0.929 . S
H693 C703 0.929 . S
H694 C698 0.929 . S
H695 C704 0.929 . S
C696 H690 0.930 . S
C696 C697 1.367 . S
C696 C704 1.378 . S
C697 C696 1.367 . S
C697 C705 1.433 . S
C698 H694 0.929 . S
C698 C700 1.378 . S
C698 C702 1.350 . S
C699 C702 1.463 . S
C699 C704 1.350 . S
C699 N707 1.427 . S
C700 H691 0.930 . S
C700 C698 1.378 . S
C700 C701 1.367 . S
C701 C700 1.367 . S
C701 C703 1.433 . S
C702 C698 1.350 . S
C702 C699 1.463 . S
C702 N706 1.427 . S
C703 H693 0.929 . S
C703 C701 1.433 . S
C703 N706 1.384 . S
C704 H695 0.929 . S
C704 C696 1.378 . S
C704 C699 1.350 . S
C705 H692 0.929 . S
C705 C697 1.433 . S
C705 N707 1.384 . S
N706 C702 1.427 . S
N706 C703 1.384 . S
N707 C699 1.427 . S
N707 C705 1.384 . S
H708 C714 0.930 . S
H709 C718 0.930 . S
H710 C723 0.929 . S
H711 C721 0.929 . S
H712 C716 0.929 . S
H713 C722 0.929 . S
C714 H708 0.930 . S
C714 C715 1.367 . S
C714 C722 1.378 . S
C715 C714 1.367 . S
C715 C723 1.433 . S
C716 H712 0.929 . S
C716 C718 1.378 . S
C716 C720 1.350 . S
C717 C720 1.463 . S
C717 C722 1.350 . S
C717 N725 1.427 . S
C718 H709 0.930 . S
C718 C716 1.378 . S
C718 C719 1.367 . S
C719 C718 1.367 . S
C719 C721 1.433 . S
C720 C716 1.350 . S
C720 C717 1.463 . S
C720 N724 1.427 . S
C721 H711 0.929 . S
C721 C719 1.433 . S
C721 N724 1.384 . S
C722 H713 0.929 . S
C722 C714 1.378 . S
C722 C717 1.350 . S
C723 H710 0.929 . S
C723 C715 1.433 . S
C723 N725 1.384 . S
N724 C720 1.427 . S
N724 C721 1.384 . S
N725 C717 1.427 . S
N725 C723 1.384 . S
H726 C732 0.930 . S
H727 C736 0.930 . S
H728 C741 0.929 . S
H729 C739 0.929 . S
H730 C734 0.929 . S
H731 C740 0.929 . S
C732 H726 0.930 . S
C732 C733 1.367 . S
C732 C740 1.378 . S
C733 C732 1.367 . S
C733 C741 1.433 . S
C734 H730 0.929 . S
C734 C736 1.378 . S
C734 C738 1.350 . S
C735 C738 1.463 . S
C735 C740 1.350 . S
C735 N743 1.427 . S
C736 H727 0.930 . S
C736 C734 1.378 . S
C736 C737 1.367 . S
C737 C736 1.367 . S
C737 C739 1.433 . S
C738 C734 1.350 . S
C738 C735 1.463 . S
C738 N742 1.427 . S
C739 H729 0.929 . S
C739 C737 1.433 . S
C739 N742 1.384 . S
C740 H731 0.929 . S
C740 C732 1.378 . S
C740 C735 1.350 . S
C741 H728 0.929 . S
C741 C733 1.433 . S
C741 N743 1.384 . S
N742 C738 1.427 . S
N742 C739 1.384 . S
N743 C735 1.427 . S
N743 C741 1.384 . S
H744 C750 0.930 . S
H745 C754 0.930 . S
H746 C759 0.929 . S
H747 C757 0.929 . S
H748 C752 0.929 . S
H749 C758 0.929 . S
C750 H744 0.930 . S
C750 C751 1.367 . S
C750 C758 1.378 . S
C751 C750 1.367 . S
C751 C759 1.433 . S
C752 H748 0.929 . S
C752 C754 1.378 . S
C752 C756 1.350 . S
C753 C756 1.463 . S
C753 C758 1.350 . S
C753 N761 1.427 . S
C754 H745 0.930 . S
C754 C752 1.378 . S
C754 C755 1.367 . S
C755 C754 1.367 . S
C755 C757 1.433 . S
C756 C752 1.350 . S
C756 C753 1.463 . S
C756 N760 1.427 . S
C757 H747 0.929 . S
C757 C755 1.433 . S
C757 N760 1.384 . S
C758 H749 0.929 . S
C758 C750 1.378 . S
C758 C753 1.350 . S
C759 H746 0.929 . S
C759 C751 1.433 . S
C759 N761 1.384 . S
N760 C756 1.427 . S
N760 C757 1.384 . S
N761 C753 1.427 . S
N761 C759 1.384 . S
H762 C768 0.930 . S
H763 C772 0.930 . S
H764 C777 0.929 . S
H765 C775 0.929 . S
H766 C770 0.929 . S
H767 C776 0.929 . S
C768 H762 0.930 . S
C768 C769 1.367 . S
C768 C776 1.378 . S
C769 C768 1.367 . S
C769 C777 1.433 . S
C770 H766 0.929 . S
C770 C772 1.378 . S
C770 C774 1.350 . S
C771 C774 1.463 . S
C771 C776 1.350 . S
C771 N779 1.427 . S
C772 H763 0.930 . S
C772 C770 1.378 . S
C772 C773 1.367 . S
C773 C772 1.367 . S
C773 C775 1.433 . S
C774 C770 1.350 . S
C774 C771 1.463 . S
C774 N778 1.427 . S
C775 H765 0.929 . S
C775 C773 1.433 . S
C775 N778 1.384 . S
C776 H767 0.929 . S
C776 C768 1.378 . S
C776 C771 1.350 . S
C777 H764 0.929 . S
C777 C769 1.433 . S
C777 N779 1.384 . S
N778 C774 1.427 . S
N778 C775 1.384 . S
N779 C771 1.427 . S
N779 C777 1.384 . S
H780 C786 0.930 . S
H781 C790 0.930 . S
H782 C795 0.929 . S
H783 C793 0.929 . S
H784 C788 0.929 . S
H785 C794 0.929 . S
C786 H780 0.930 . S
C786 C787 1.367 . S
C786 C794 1.378 . S
C787 C786 1.367 . S
C787 C795 1.433 . S
C788 H784 0.929 . S
C788 C790 1.378 . S
C788 C792 1.350 . S
C789 C792 1.463 . S
C789 C794 1.350 . S
C789 N797 1.427 . S
C790 H781 0.930 . S
C790 C788 1.378 . S
C790 C791 1.367 . S
C791 C790 1.367 . S
C791 C793 1.433 . S
C792 C788 1.350 . S
C792 C789 1.463 . S
C792 N796 1.427 . S
C793 H783 0.929 . S
C793 C791 1.433 . S
C793 N796 1.384 . S
C794 H785 0.929 . S
C794 C786 1.378 . S
C794 C789 1.350 . S
C795 H782 0.929 . S
C795 C787 1.433 . S
C795 N797 1.384 . S
N796 C792 1.427 . S
N796 C793 1.384 . S
N797 C789 1.427 . S
N797 C795 1.384 . S
H798 C804 0.930 . S
H799 C808 0.930 . S
H800 C813 0.929 . S
H801 C811 0.929 . S
H802 C806 0.929 . S
H803 C812 0.929 . S
C804 H798 0.930 . S
C804 C805 1.367 . S
C804 C812 1.378 . S
C805 C804 1.367 . S
C805 C813 1.433 . S
C806 H802 0.929 . S
C806 C808 1.378 . S
C806 C810 1.350 . S
C807 C810 1.463 . S
C807 C812 1.350 . S
C807 N815 1.427 . S
C808 H799 0.930 . S
C808 C806 1.378 . S
C808 C809 1.367 . S
C809 C808 1.367 . S
C809 C811 1.433 . S
C810 C806 1.350 . S
C810 C807 1.463 . S
C810 N814 1.427 . S
C811 H801 0.929 . S
C811 C809 1.433 . S
C811 N814 1.384 . S
C812 H803 0.929 . S
C812 C804 1.378 . S
C812 C807 1.350 . S
C813 H800 0.929 . S
C813 C805 1.433 . S
C813 N815 1.384 . S
N814 C810 1.427 . S
N814 C811 1.384 . S
N815 C807 1.427 . S
N815 C813 1.384 . S
H816 C822 0.930 . S
H817 C826 0.930 . S
H818 C831 0.929 . S
H819 C829 0.929 . S
H820 C824 0.929 . S
H821 C830 0.929 . S
C822 H816 0.930 . S
C822 C823 1.367 . S
C822 C830 1.378 . S
C823 C822 1.367 . S
C823 C831 1.433 . S
C824 H820 0.929 . S
C824 C826 1.378 . S
C824 C828 1.350 . S
C825 C828 1.463 . S
C825 C830 1.350 . S
C825 N833 1.427 . S
C826 H817 0.930 . S
C826 C824 1.378 . S
C826 C827 1.367 . S
C827 C826 1.367 . S
C827 C829 1.433 . S
C828 C824 1.350 . S
C828 C825 1.463 . S
C828 N832 1.427 . S
C829 H819 0.929 . S
C829 C827 1.433 . S
C829 N832 1.384 . S
C830 H821 0.929 . S
C830 C822 1.378 . S
C830 C825 1.350 . S
C831 H818 0.929 . S
C831 C823 1.433 . S
C831 N833 1.384 . S
N832 C828 1.427 . S
N832 C829 1.384 . S
N833 C825 1.427 . S
N833 C831 1.384 . S
H834 C840 0.930 . S
H835 C844 0.930 . S
H836 C849 0.929 . S
H837 C847 0.929 . S
H838 C842 0.929 . S
H839 C848 0.929 . S
C840 H834 0.930 . S
C840 C841 1.367 . S
C840 C848 1.378 . S
C841 C840 1.367 . S
C841 C849 1.433 . S
C842 H838 0.929 . S
C842 C844 1.378 . S
C842 C846 1.350 . S
C843 C846 1.463 . S
C843 C848 1.350 . S
C843 N851 1.427 . S
C844 H835 0.930 . S
C844 C842 1.378 . S
C844 C845 1.367 . S
C845 C844 1.367 . S
C845 C847 1.433 . S
C846 C842 1.350 . S
C846 C843 1.463 . S
C846 N850 1.427 . S
C847 H837 0.929 . S
C847 C845 1.433 . S
C847 N850 1.384 . S
C848 H839 0.929 . S
C848 C840 1.378 . S
C848 C843 1.350 . S
C849 H836 0.929 . S
C849 C841 1.433 . S
C849 N851 1.384 . S
N850 C846 1.427 . S
N850 C847 1.384 . S
N851 C843 1.427 . S
N851 C849 1.384 . S
H852 C858 0.930 . S
H853 C862 0.930 . S
H854 C867 0.929 . S
H855 C865 0.929 . S
H856 C860 0.929 . S
H857 C866 0.929 . S
C858 H852 0.930 . S
C858 C859 1.367 . S
C858 C866 1.378 . S
C859 C858 1.367 . S
C859 C867 1.433 . S
C860 H856 0.929 . S
C860 C862 1.378 . S
C860 C864 1.350 . S
C861 C864 1.463 . S
C861 C866 1.350 . S
C861 N869 1.427 . S
C862 H853 0.930 . S
C862 C860 1.378 . S
C862 C863 1.367 . S
C863 C862 1.367 . S
C863 C865 1.433 . S
C864 C860 1.350 . S
C864 C861 1.463 . S
C864 N868 1.427 . S
C865 H855 0.929 . S
C865 C863 1.433 . S
C865 N868 1.384 . S
C866 H857 0.929 . S
C866 C858 1.378 . S
C866 C861 1.350 . S
C867 H854 0.929 . S
C867 C859 1.433 . S
C867 N869 1.384 . S
N868 C864 1.427 . S
N868 C865 1.384 . S
N869 C861 1.427 . S
N869 C867 1.384 . S
H870 C876 0.930 . S
H871 C880 0.930 . S
H872 C885 0.929 . S
H873 C883 0.929 . S
H874 C878 0.929 . S
H875 C884 0.929 . S
C876 H870 0.930 . S
C876 C877 1.367 . S
C876 C884 1.378 . S
C877 C876 1.367 . S
C877 C885 1.433 . S
C878 H874 0.929 . S
C878 C880 1.378 . S
C878 C882 1.350 . S
C879 C882 1.463 . S
C879 C884 1.350 . S
C879 N887 1.427 . S
C880 H871 0.930 . S
C880 C878 1.378 . S
C880 C881 1.367 . S
C881 C880 1.367 . S
C881 C883 1.433 . S
C882 C878 1.350 . S
C882 C879 1.463 . S
C882 N886 1.427 . S
C883 H873 0.929 . S
C883 C881 1.433 . S
C883 N886 1.384 . S
C884 H875 0.929 . S
C884 C876 1.378 . S
C884 C879 1.350 . S
C885 H872 0.929 . S
C885 C877 1.433 . S
C885 N887 1.384 . S
N886 C882 1.427 . S
N886 C883 1.384 . S
N887 C879 1.427 . S
N887 C885 1.384 . S
H888 C894 0.930 . S
H889 C898 0.930 . S
H890 C903 0.929 . S
H891 C901 0.929 . S
H892 C896 0.929 . S
H893 C902 0.929 . S
C894 H888 0.930 . S
C894 C895 1.367 . S
C894 C902 1.378 . S
C895 C894 1.367 . S
C895 C903 1.433 . S
C896 H892 0.929 . S
C896 C898 1.378 . S
C896 C900 1.350 . S
C897 C900 1.463 . S
C897 C902 1.350 . S
C897 N905 1.427 . S
C898 H889 0.930 . S
C898 C896 1.378 . S
C898 C899 1.367 . S
C899 C898 1.367 . S
C899 C901 1.433 . S
C900 C896 1.350 . S
C900 C897 1.463 . S
C900 N904 1.427 . S
C901 H891 0.929 . S
C901 C899 1.433 . S
C901 N904 1.384 . S
C902 H893 0.929 . S
C902 C894 1.378 . S
C902 C897 1.350 . S
C903 H890 0.929 . S
C903 C895 1.433 . S
C903 N905 1.384 . S
N904 C900 1.427 . S
N904 C901 1.384 . S
N905 C897 1.427 . S
N905 C903 1.384 . S
H906 C912 0.930 . S
H907 C916 0.930 . S
H908 C921 0.929 . S
H909 C919 0.929 . S
H910 C914 0.929 . S
H911 C920 0.929 . S
C912 H906 0.930 . S
C912 C913 1.367 . S
C912 C920 1.378 . S
C913 C912 1.367 . S
C913 C921 1.433 . S
C914 H910 0.929 . S
C914 C916 1.378 . S
C914 C918 1.350 . S
C915 C918 1.463 . S
C915 C920 1.350 . S
C915 N923 1.427 . S
C916 H907 0.930 . S
C916 C914 1.378 . S
C916 C917 1.367 . S
C917 C916 1.367 . S
C917 C919 1.433 . S
C918 C914 1.350 . S
C918 C915 1.463 . S
C918 N922 1.427 . S
C919 H909 0.929 . S
C919 C917 1.433 . S
C919 N922 1.384 . S
C920 H911 0.929 . S
C920 C912 1.378 . S
C920 C915 1.350 . S
C921 H908 0.929 . S
C921 C913 1.433 . S
C921 N923 1.384 . S
N922 C918 1.427 . S
N922 C919 1.384 . S
N923 C915 1.427 . S
N923 C921 1.384 . S
H924 C930 0.930 . S
H925 C934 0.930 . S
H926 C939 0.929 . S
H927 C937 0.929 . S
H928 C932 0.929 . S
H929 C938 0.929 . S
C930 H924 0.930 . S
C930 C931 1.367 . S
C930 C938 1.378 . S
C931 C930 1.367 . S
C931 C939 1.433 . S
C932 H928 0.929 . S
C932 C934 1.378 . S
C932 C936 1.350 . S
C933 C936 1.463 . S
C933 C938 1.350 . S
C933 N941 1.427 . S
C934 H925 0.930 . S
C934 C932 1.378 . S
C934 C935 1.367 . S
C935 C934 1.367 . S
C935 C937 1.433 . S
C936 C932 1.350 . S
C936 C933 1.463 . S
C936 N940 1.427 . S
C937 H927 0.929 . S
C937 C935 1.433 . S
C937 N940 1.384 . S
C938 H929 0.929 . S
C938 C930 1.378 . S
C938 C933 1.350 . S
C939 H926 0.929 . S
C939 C931 1.433 . S
C939 N941 1.384 . S
N940 C936 1.427 . S
N940 C937 1.384 . S
N941 C933 1.427 . S
N941 C939 1.384 . S
H942 C948 0.930 . S
H943 C952 0.930 . S
H944 C957 0.929 . S
H945 C955 0.929 . S
H946 C950 0.929 . S
H947 C956 0.929 . S
C948 H942 0.930 . S
C948 C949 1.367 . S
C948 C956 1.378 . S
C949 C948 1.367 . S
C949 C957 1.433 . S
C950 H946 0.929 . S
C950 C952 1.378 . S
C950 C954 1.350 . S
C951 C954 1.463 . S
C951 C956 1.350 . S
C951 N959 1.427 . S
C952 H943 0.930 . S
C952 C950 1.378 . S
C952 C953 1.367 . S
C953 C952 1.367 . S
C953 C955 1.433 . S
C954 C950 1.350 . S
C954 C951 1.463 . S
C954 N958 1.427 . S
C955 H945 0.929 . S
C955 C953 1.433 . S
C955 N958 1.384 . S
C956 H947 0.929 . S
C956 C948 1.378 . S
C956 C951 1.350 . S
C957 H944 0.929 . S
C957 C949 1.433 . S
C957 N959 1.384 . S
N958 C954 1.427 . S
N958 C955 1.384 . S
N959 C951 1.427 . S
N959 C957 1.384 . S
H960 C966 0.930 . S
H961 C970 0.930 . S
H962 C975 0.929 . S
H963 C973 0.929 . S
H964 C968 0.929 . S
H965 C974 0.929 . S
C966 H960 0.930 . S
C966 C967 1.367 . S
C966 C974 1.378 . S
C967 C966 1.367 . S
C967 C975 1.433 . S
C968 H964 0.929 . S
C968 C970 1.378 . S
C968 C972 1.350 . S
C969 C972 1.463 . S
C969 C974 1.350 . S
C969 N977 1.427 . S
C970 H961 0.930 . S
C970 C968 1.378 . S
C970 C971 1.367 . S
C971 C970 1.367 . S
C971 C973 1.433 . S
C972 C968 1.350 . S
C972 C969 1.463 . S
C972 N976 1.427 . S
C973 H963 0.929 . S
C973 C971 1.433 . S
C973 N976 1.384 . S
C974 H965 0.929 . S
C974 C966 1.378 . S
C974 C969 1.350 . S
C975 H962 0.929 . S
C975 C967 1.433 . S
C975 N977 1.384 . S
N976 C972 1.427 . S
N976 C973 1.384 . S
N977 C969 1.427 . S
N977 C975 1.384 . S
H978 C984 0.930 . S
H979 C988 0.930 . S
H980 C993 0.929 . S
H981 C991 0.929 . S
H982 C986 0.929 . S
H983 C992 0.929 . S
C984 H978 0.930 . S
C984 C985 1.367 . S
C984 C992 1.378 . S
C985 C984 1.367 . S
C985 C993 1.433 . S
C986 H982 0.929 . S
C986 C988 1.378 . S
C986 C990 1.350 . S
C987 C990 1.463 . S
C987 C992 1.350 . S
C987 N995 1.427 . S
C988 H979 0.930 . S
C988 C986 1.378 . S
C988 C989 1.367 . S
C989 C988 1.367 . S
C989 C991 1.433 . S
C990 C986 1.350 . S
C990 C987 1.463 . S
C990 N994 1.427 . S
C991 H981 0.929 . S
C991 C989 1.433 . S
C991 N994 1.384 . S
C992 H983 0.929 . S
C992 C984 1.378 . S
C992 C987 1.350 . S
C993 H980 0.929 . S
C993 C985 1.433 . S
C993 N995 1.384 . S
N994 C990 1.427 . S
N994 C991 1.384 . S
N995 C987 1.427 . S
N995 C993 1.384 . S
H996 C1002 0.930 . S
H997 C1006 0.930 . S
H998 C1011 0.929 . S
H999 C1009 0.929 . S
H1000 C1004 0.929 . S
H1001 C1010 0.929 . S
C1002 H996 0.930 . S
C1002 C1003 1.367 . S
C1002 C1010 1.378 . S
C1003 C1002 1.367 . S
C1003 C1011 1.433 . S
C1004 H1000 0.929 . S
C1004 C1006 1.378 . S
C1004 C1008 1.350 . S
C1005 C1008 1.463 . S
C1005 C1010 1.350 . S
C1005 N1013 1.427 . S
C1006 H997 0.930 . S
C1006 C1004 1.378 . S
C1006 C1007 1.367 . S
C1007 C1006 1.367 . S
C1007 C1009 1.433 . S
C1008 C1004 1.350 . S
C1008 C1005 1.463 . S
C1008 N1012 1.427 . S
C1009 H999 0.929 . S
C1009 C1007 1.433 . S
C1009 N1012 1.384 . S
C1010 H1001 0.929 . S
C1010 C1002 1.378 . S
C1010 C1005 1.350 . S
C1011 H998 0.929 . S
C1011 C1003 1.433 . S
C1011 N1013 1.384 . S
N1012 C1008 1.427 . S
N1012 C1009 1.384 . S
N1013 C1005 1.427 . S
N1013 C1011 1.384 . S
H1014 C1020 0.930 . S
H1015 C1024 0.930 . S
H1016 C1029 0.929 . S
H1017 C1027 0.929 . S
H1018 C1022 0.929 . S
H1019 C1028 0.929 . S
C1020 H1014 0.930 . S
C1020 C1021 1.367 . S
C1020 C1028 1.378 . S
C1021 C1020 1.367 . S
C1021 C1029 1.433 . S
C1022 H1018 0.929 . S
C1022 C1024 1.378 . S
C1022 C1026 1.350 . S
C1023 C1026 1.463 . S
C1023 C1028 1.350 . S
C1023 N1031 1.427 . S
C1024 H1015 0.930 . S
C1024 C1022 1.378 . S
C1024 C1025 1.367 . S
C1025 C1024 1.367 . S
C1025 C1027 1.433 . S
C1026 C1022 1.350 . S
C1026 C1023 1.463 . S
C1026 N1030 1.427 . S
C1027 H1017 0.929 . S
C1027 C1025 1.433 . S
C1027 N1030 1.384 . S
C1028 H1019 0.929 . S
C1028 C1020 1.378 . S
C1028 C1023 1.350 . S
C1029 H1016 0.929 . S
C1029 C1021 1.433 . S
C1029 N1031 1.384 . S
N1030 C1026 1.427 . S
N1030 C1027 1.384 . S
N1031 C1023 1.427 . S
N1031 C1029 1.384 . S
H1032 C1038 0.930 . S
H1033 C1042 0.930 . S
H1034 C1047 0.929 . S
H1035 C1045 0.929 . S
H1036 C1040 0.929 . S
H1037 C1046 0.929 . S
C1038 H1032 0.930 . S
C1038 C1039 1.367 . S
C1038 C1046 1.378 . S
C1039 C1038 1.367 . S
C1039 C1047 1.433 . S
C1040 H1036 0.929 . S
C1040 C1042 1.378 . S
C1040 C1044 1.350 . S
C1041 C1044 1.463 . S
C1041 C1046 1.350 . S
C1041 N1049 1.427 . S
C1042 H1033 0.930 . S
C1042 C1040 1.378 . S
C1042 C1043 1.367 . S
C1043 C1042 1.367 . S
C1043 C1045 1.433 . S
C1044 C1040 1.350 . S
C1044 C1041 1.463 . S
C1044 N1048 1.427 . S
C1045 H1035 0.929 . S
C1045 C1043 1.433 . S
C1045 N1048 1.384 . S
C1046 H1037 0.929 . S
C1046 C1038 1.378 . S
C1046 C1041 1.350 . S
C1047 H1034 0.929 . S
C1047 C1039 1.433 . S
C1047 N1049 1.384 . S
N1048 C1044 1.427 . S
N1048 C1045 1.384 . S
N1049 C1041 1.427 . S
N1049 C1047 1.384 . S
H1050 C1056 0.930 . S
H1051 C1060 0.930 . S
H1052 C1065 0.929 . S
H1053 C1063 0.929 . S
H1054 C1058 0.929 . S
H1055 C1064 0.929 . S
C1056 H1050 0.930 . S
C1056 C1057 1.367 . S
C1056 C1064 1.378 . S
C1057 C1056 1.367 . S
C1057 C1065 1.433 . S
C1058 H1054 0.929 . S
C1058 C1060 1.378 . S
C1058 C1062 1.350 . S
C1059 C1062 1.463 . S
C1059 C1064 1.350 . S
C1059 N1067 1.427 . S
C1060 H1051 0.930 . S
C1060 C1058 1.378 . S
C1060 C1061 1.367 . S
C1061 C1060 1.367 . S
C1061 C1063 1.433 . S
C1062 C1058 1.350 . S
C1062 C1059 1.463 . S
C1062 N1066 1.427 . S
C1063 H1053 0.929 . S
C1063 C1061 1.433 . S
C1063 N1066 1.384 . S
C1064 H1055 0.929 . S
C1064 C1056 1.378 . S
C1064 C1059 1.350 . S
C1065 H1052 0.929 . S
C1065 C1057 1.433 . S
C1065 N1067 1.384 . S
N1066 C1062 1.427 . S
N1066 C1063 1.384 . S
N1067 C1059 1.427 . S
N1067 C1065 1.384 . S
H1068 C1074 0.930 . S
H1069 C1078 0.930 . S
H1070 C1083 0.929 . S
H1071 C1081 0.929 . S
H1072 C1076 0.929 . S
H1073 C1082 0.929 . S
C1074 H1068 0.930 . S
C1074 C1075 1.367 . S
C1074 C1082 1.378 . S
C1075 C1074 1.367 . S
C1075 C1083 1.433 . S
C1076 H1072 0.929 . S
C1076 C1078 1.378 . S
C1076 C1080 1.350 . S
C1077 C1080 1.463 . S
C1077 C1082 1.350 . S
C1077 N1085 1.427 . S
C1078 H1069 0.930 . S
C1078 C1076 1.378 . S
C1078 C1079 1.367 . S
C1079 C1078 1.367 . S
C1079 C1081 1.433 . S
C1080 C1076 1.350 . S
C1080 C1077 1.463 . S
C1080 N1084 1.427 . S
C1081 H1071 0.929 . S
C1081 C1079 1.433 . S
C1081 N1084 1.384 . S
C1082 H1073 0.929 . S
C1082 C1074 1.378 . S
C1082 C1077 1.350 . S
C1083 H1070 0.929 . S
C1083 C1075 1.433 . S
C1083 N1085 1.384 . S
N1084 C1080 1.427 . S
N1084 C1081 1.384 . S
N1085 C1077 1.427 . S
N1085 C1083 1.384 . S
H1086 C1092 0.930 . S
H1087 C1096 0.930 . S
H1088 C1101 0.929 . S
H1089 C1099 0.929 . S
H1090 C1094 0.929 . S
H1091 C1100 0.929 . S
C1092 H1086 0.930 . S
C1092 C1093 1.367 . S
C1092 C1100 1.378 . S
C1093 C1092 1.367 . S
C1093 C1101 1.433 . S
C1094 H1090 0.929 . S
C1094 C1096 1.378 . S
C1094 C1098 1.350 . S
C1095 C1098 1.463 . S
C1095 C1100 1.350 . S
C1095 N1103 1.427 . S
C1096 H1087 0.930 . S
C1096 C1094 1.378 . S
C1096 C1097 1.367 . S
C1097 C1096 1.367 . S
C1097 C1099 1.433 . S
C1098 C1094 1.350 . S
C1098 C1095 1.463 . S
C1098 N1102 1.427 . S
C1099 H1089 0.929 . S
C1099 C1097 1.433 . S
C1099 N1102 1.384 . S
C1100 H1091 0.929 . S
C1100 C1092 1.378 . S
C1100 C1095 1.350 . S
C1101 H1088 0.929 . S
C1101 C1093 1.433 . S
C1101 N1103 1.384 . S
N1102 C1098 1.427 . S
N1102 C1099 1.384 . S
N1103 C1095 1.427 . S
N1103 C1101 1.384 . S
H1104 C1110 0.930 . S
H1105 C1114 0.930 . S
H1106 C1119 0.929 . S
H1107 C1117 0.929 . S
H1108 C1112 0.929 . S
H1109 C1118 0.929 . S
C1110 H1104 0.930 . S
C1110 C1111 1.367 . S
C1110 C1118 1.378 . S
C1111 C1110 1.367 . S
C1111 C1119 1.433 1_545 S
C1112 H1108 0.929 . S
C1112 C1114 1.378 . S
C1112 C1116 1.350 1_565 S
C1113 C1116 1.463 1_556 S
C1113 C1118 1.350 . S
C1113 N1121 1.427 1_545 S
C1114 H1105 0.930 . S
C1114 C1112 1.378 . S
C1114 C1115 1.367 1_565 S
C1115 C1114 1.367 1_545 S
C1115 C1117 1.433 . S
C1116 C1112 1.350 1_545 S
C1116 C1113 1.463 1_554 S
C1116 N1120 1.427 . S
C1117 H1107 0.929 . S
C1117 C1115 1.433 . S
C1117 N1120 1.384 . S
C1118 H1109 0.929 . S
C1118 C1110 1.378 . S
C1118 C1113 1.350 . S
C1119 H1106 0.929 . S
C1119 C1111 1.433 1_565 S
C1119 N1121 1.384 . S
N1120 C1116 1.427 . S
N1120 C1117 1.384 . S
N1121 C1113 1.427 1_565 S
N1121 C1119 1.384 . S
H1122 C1128 0.930 . S
H1123 C1132 0.930 . S
H1124 C1137 0.929 . S
H1125 C1135 0.929 . S
H1126 C1130 0.929 . S
H1127 C1136 0.929 . S
C1128 H1122 0.930 . S
C1128 C1129 1.367 . S
C1128 C1136 1.378 . S
C1129 C1128 1.367 . S
C1129 C1137 1.433 . S
C1130 H1126 0.929 . S
C1130 C1132 1.378 . S
C1130 C1134 1.350 . S
C1131 C1134 1.463 . S
C1131 C1136 1.350 . S
C1131 N1139 1.427 . S
C1132 H1123 0.930 . S
C1132 C1130 1.378 . S
C1132 C1133 1.367 . S
C1133 C1132 1.367 . S
C1133 C1135 1.433 . S
C1134 C1130 1.350 . S
C1134 C1131 1.463 . S
C1134 N1138 1.427 . S
C1135 H1125 0.929 . S
C1135 C1133 1.433 . S
C1135 N1138 1.384 . S
C1136 H1127 0.929 . S
C1136 C1128 1.378 . S
C1136 C1131 1.350 . S
C1137 H1124 0.929 . S
C1137 C1129 1.433 . S
C1137 N1139 1.384 . S
N1138 C1134 1.427 . S
N1138 C1135 1.384 . S
N1139 C1131 1.427 . S
N1139 C1137 1.384 . S
H1140 C1146 0.930 . S
H1141 C1150 0.930 . S
H1142 C1155 0.929 . S
H1143 C1153 0.929 . S
H1144 C1148 0.929 . S
H1145 C1154 0.929 . S
C1146 H1140 0.930 . S
C1146 C1147 1.367 . S
C1146 C1154 1.378 . S
C1147 C1146 1.367 . S
C1147 C1155 1.433 . S
C1148 H1144 0.929 . S
C1148 C1150 1.378 . S
C1148 C1152 1.350 . S
C1149 C1152 1.463 1_554 S
C1149 C1154 1.350 . S
C1149 N1157 1.427 . S
C1150 H1141 0.930 . S
C1150 C1148 1.378 . S
C1150 C1151 1.367 . S
C1151 C1150 1.367 . S
C1151 C1153 1.433 . S
C1152 C1148 1.350 . S
C1152 C1149 1.463 1_556 S
C1152 N1156 1.427 . S
C1153 H1143 0.929 . S
C1153 C1151 1.433 . S
C1153 N1156 1.384 . S
C1154 H1145 0.929 . S
C1154 C1146 1.378 . S
C1154 C1149 1.350 . S
C1155 H1142 0.929 . S
C1155 C1147 1.433 . S
C1155 N1157 1.384 . S
N1156 C1152 1.427 . S
N1156 C1153 1.384 . S
N1157 C1149 1.427 . S
N1157 C1155 1.384 . S
H1158 C1164 0.930 . S
H1159 C1168 0.930 . S
H1160 C1173 0.929 . S
H1161 C1171 0.929 . S
H1162 C1166 0.929 . S
H1163 C1172 0.929 . S
C1164 H1158 0.930 . S
C1164 C1165 1.367 . S
C1164 C1172 1.378 . S
C1165 C1164 1.367 . S
C1165 C1173 1.433 . S
C1166 H1162 0.929 . S
C1166 C1168 1.378 . S
C1166 C1170 1.350 . S
C1167 C1170 1.463 . S
C1167 C1172 1.350 . S
C1167 N1175 1.427 . S
C1168 H1159 0.930 . S
C1168 C1166 1.378 . S
C1168 C1169 1.367 . S
C1169 C1168 1.367 . S
C1169 C1171 1.433 . S
C1170 C1166 1.350 . S
C1170 C1167 1.463 . S
C1170 N1174 1.427 . S
C1171 H1161 0.929 . S
C1171 C1169 1.433 . S
C1171 N1174 1.384 . S
C1172 H1163 0.929 . S
C1172 C1164 1.378 . S
C1172 C1167 1.350 . S
C1173 H1160 0.929 . S
C1173 C1165 1.433 . S
C1173 N1175 1.384 . S
N1174 C1170 1.427 . S
N1174 C1171 1.384 . S
N1175 C1167 1.427 . S
N1175 C1173 1.384 . S
H1176 C1182 0.930 . S
H1177 C1186 0.930 1_545 S
H1178 C1191 0.929 1_545 S
H1179 C1189 0.929 . S
H1180 C1184 0.929 1_545 S
H1181 C1190 0.929 . S
C1182 H1176 0.930 . S
C1182 C1183 1.367 . S
C1182 C1190 1.378 . S
C1183 C1182 1.367 . S
C1183 C1191 1.433 . S
C1184 H1180 0.929 1_565 S
C1184 C1186 1.378 . S
C1184 C1188 1.350 . S
C1185 C1188 1.463 1_554 S
C1185 C1190 1.350 . S
C1185 N1193 1.427 . S
C1186 H1177 0.930 1_565 S
C1186 C1184 1.378 . S
C1186 C1187 1.367 . S
C1187 C1186 1.367 . S
C1187 C1189 1.433 . S
C1188 C1184 1.350 . S
C1188 C1185 1.463 1_556 S
C1188 N1192 1.427 . S
C1189 H1179 0.929 . S
C1189 C1187 1.433 . S
C1189 N1192 1.384 . S
C1190 H1181 0.929 . S
C1190 C1182 1.378 . S
C1190 C1185 1.350 . S
C1191 H1178 0.929 1_565 S
C1191 C1183 1.433 . S
C1191 N1193 1.384 . S
N1192 C1188 1.427 . S
N1192 C1189 1.384 . S
N1193 C1185 1.427 . S
N1193 C1191 1.384 . S
H1194 C1200 0.930 . S
H1195 C1204 0.930 . S
H1196 C1209 0.929 . S
H1197 C1207 0.929 . S
H1198 C1202 0.929 . S
H1199 C1208 0.929 . S
C1200 H1194 0.930 . S
C1200 C1201 1.367 . S
C1200 C1208 1.378 . S
C1201 C1200 1.367 . S
C1201 C1209 1.433 . S
C1202 H1198 0.929 . S
C1202 C1204 1.378 . S
C1202 C1206 1.350 . S
C1203 C1206 1.463 . S
C1203 C1208 1.350 . S
C1203 N1211 1.427 . S
C1204 H1195 0.930 . S
C1204 C1202 1.378 . S
C1204 C1205 1.367 . S
C1205 C1204 1.367 . S
C1205 C1207 1.433 . S
C1206 C1202 1.350 . S
C1206 C1203 1.463 . S
C1206 N1210 1.427 . S
C1207 H1197 0.929 . S
C1207 C1205 1.433 . S
C1207 N1210 1.384 . S
C1208 H1199 0.929 . S
C1208 C1200 1.378 . S
C1208 C1203 1.350 . S
C1209 H1196 0.929 . S
C1209 C1201 1.433 . S
C1209 N1211 1.384 . S
N1210 C1206 1.427 . S
N1210 C1207 1.384 . S
N1211 C1203 1.427 . S
N1211 C1209 1.384 . S
H1212 C1218 0.930 . S
H1213 C1222 0.930 . S
H1214 C1227 0.929 . S
H1215 C1225 0.929 . S
H1216 C1220 0.929 . S
H1217 C1226 0.929 . S
C1218 H1212 0.930 . S
C1218 C1219 1.367 . S
C1218 C1226 1.378 . S
C1219 C1218 1.367 . S
C1219 C1227 1.433 . S
C1220 H1216 0.929 . S
C1220 C1222 1.378 . S
C1220 C1224 1.350 . S
C1221 C1224 1.463 1_554 S
C1221 C1226 1.350 . S
C1221 N1229 1.427 . S
C1222 H1213 0.930 . S
C1222 C1220 1.378 . S
C1222 C1223 1.367 . S
C1223 C1222 1.367 . S
C1223 C1225 1.433 . S
C1224 C1220 1.350 . S
C1224 C1221 1.463 1_556 S
C1224 N1228 1.427 . S
C1225 H1215 0.929 . S
C1225 C1223 1.433 . S
C1225 N1228 1.384 . S
C1226 H1217 0.929 . S
C1226 C1218 1.378 . S
C1226 C1221 1.350 . S
C1227 H1214 0.929 . S
C1227 C1219 1.433 . S
C1227 N1229 1.384 . S
N1228 C1224 1.427 . S
N1228 C1225 1.384 . S
N1229 C1221 1.427 . S
N1229 C1227 1.384 . S
H1230 C1236 0.930 . S
H1231 C1240 0.930 . S
H1232 C1245 0.929 . S
H1233 C1243 0.929 . S
H1234 C1238 0.929 . S
H1235 C1244 0.929 . S
C1236 H1230 0.930 . S
C1236 C1237 1.367 . S
C1236 C1244 1.378 . S
C1237 C1236 1.367 . S
C1237 C1245 1.433 . S
C1238 H1234 0.929 . S
C1238 C1240 1.378 . S
C1238 C1242 1.350 . S
C1239 C1242 1.463 . S
C1239 C1244 1.350 . S
C1239 N1247 1.427 . S
C1240 H1231 0.930 . S
C1240 C1238 1.378 . S
C1240 C1241 1.367 . S
C1241 C1240 1.367 . S
C1241 C1243 1.433 . S
C1242 C1238 1.350 . S
C1242 C1239 1.463 . S
C1242 N1246 1.427 . S
C1243 H1233 0.929 . S
C1243 C1241 1.433 . S
C1243 N1246 1.384 . S
C1244 H1235 0.929 . S
C1244 C1236 1.378 . S
C1244 C1239 1.350 . S
C1245 H1232 0.929 . S
C1245 C1237 1.433 . S
C1245 N1247 1.384 . S
N1246 C1242 1.427 . S
N1246 C1243 1.384 . S
N1247 C1239 1.427 . S
N1247 C1245 1.384 . S
C535 N14 1.681 . S
C539 N245 1.682 . S
C553 N146 1.680 . S
C557 N47 1.680 . S
C571 N179 1.679 . S
C575 N80 1.680 . S
C589 N113 1.682 . S
C593 N212 1.682 . S
C607 N269 2.235 . S
C611 N500 2.233 . S
C625 N302 2.233 . S
C629 N401 2.238 . S
C643 N434 2.233 . S
C647 N335 2.238 . S
C661 N368 2.235 . S
C665 N467 2.239 . S
C679 C8 0.841 . S
C683 C314 0.808 . S
C697 C347 0.806 . S
C701 C41 0.842 . S
C715 C380 0.826 . S
C719 C74 0.836 . S
C733 C281 0.814 . S
C737 C107 0.843 . S
C751 C512 0.805 . S
C755 C140 0.843 . S
C769 C413 0.826 . S
C773 C173 0.839 . S
C787 C446 0.833 . S
C791 C206 0.836 . S
C805 C479 0.812 . S
C809 C239 0.844 . S
C823 C61 1.052 . S
C827 C292 1.099 . S
C841 C94 1.057 . S
C845 C325 1.096 . S
C859 C127 1.057 . S
C863 C358 1.096 . S
C877 C391 1.090 . S
C881 C28 1.068 . S
C895 C259 1.064 . S
C899 C424 1.092 . S
C913 C160 1.050 . S
C917 C457 1.099 . S
C931 C193 1.063 . S
C935 C490 1.092 . S
C949 C226 1.059 . S
C953 C523 1.095 . S
C967 N71 1.023 . S
C971 N5 1.007 . S
C985 N38 1.011 . S
C989 N104 1.027 . S
C1003 N203 1.014 . S
C1007 N137 1.029 . S
C1021 N236 1.018 . S
C1025 N170 1.031 . S
C1039 N344 1.032 . S
C1043 N278 1.061 . S
C1057 N377 1.036 . S
C1061 N311 1.064 . S
C1075 N410 1.035 . S
C1079 N476 1.064 . S
C1093 N509 1.064 . S
C1097 N443 1.036 . S
C1111 C215 1.334 . S
C1115 C17 1.341 . S
C1129 C248 1.340 . S
C1133 C50 1.345 . S
C1147 C83 1.336 . S
C1151 C149 1.346 . S
C1165 C182 1.337 . S
C1169 C116 1.337 . S
C1183 C470 1.444 . S
C1187 C272 1.450 . S
C1201 C503 1.443 . S
C1205 C305 1.446 . S
C1219 C404 1.448 . S
C1223 C338 1.443 . S
C1237 C371 1.445 . S
C1241 C437 1.443 . S
