# Generated by pormake.
# Topology vby, (6)-cn, num edge types: 1
# Building blocks:
#     Node 0, Type 0, BuildingBlock: BETDAH_clean_sbu_0, # of connection points: 6
#     Node 1, Type 0, BuildingBlock: BETDAH_clean_sbu_0, # of connection points: 6
#     Node 2, Type 0, BuildingBlock: BETDAH_clean_sbu_0, # of connection points: 6
#     Node 3, Type 0, BuildingBlock: BETDAH_clean_sbu_0, # of connection points: 6
#     Node 4, Type 0, BuildingBlock: BETDAH_clean_sbu_0, # of connection points: 6
#     Node 5, Type 0, BuildingBlock: BETDAH_clean_sbu_0, # of connection points: 6
#     Node 6, Type 0, BuildingBlock: BETDAH_clean_sbu_0, # of connection points: 6
#     Node 7, Type 0, BuildingBlock: BETDAH_clean_sbu_0, # of connection points: 6
#     Edge 8, Type (0, 0), BuildingBlock: UVAHIK_clean_linker_0, # of connection points: 2
#     Edge 9, Type (0, 0), BuildingBlock: UVAHIK_clean_linker_0, # of connection points: 2
#     Edge 10, Type (0, 0), BuildingBlock: UVAHIK_clean_linker_0, # of connection points: 2
#     Edge 11, Type (0, 0), BuildingBlock: UVAHIK_clean_linker_0, # of connection points: 2
#     Edge 12, Type (0, 0), BuildingBlock: UVAHIK_clean_linker_0, # of connection points: 2
#     Edge 13, Type (0, 0), BuildingBlock: UVAHIK_clean_linker_0, # of connection points: 2
#     Edge 14, Type (0, 0), BuildingBlock: UVAHIK_clean_linker_0, # of connection points: 2
#     Edge 15, Type (0, 0), BuildingBlock: UVAHIK_clean_linker_0, # of connection points: 2
#     Edge 16, Type (0, 0), BuildingBlock: UVAHIK_clean_linker_0, # of connection points: 2
#     Edge 17, Type (0, 0), BuildingBlock: UVAHIK_clean_linker_0, # of connection points: 2
#     Edge 18, Type (0, 0), BuildingBlock: UVAHIK_clean_linker_0, # of connection points: 2
#     Edge 19, Type (0, 0), BuildingBlock: UVAHIK_clean_linker_0, # of connection points: 2
#     Edge 20, Type (0, 0), BuildingBlock: UVAHIK_clean_linker_0, # of connection points: 2
#     Edge 21, Type (0, 0), BuildingBlock: UVAHIK_clean_linker_0, # of connection points: 2
#     Edge 22, Type (0, 0), BuildingBlock: UVAHIK_clean_linker_0, # of connection points: 2
#     Edge 23, Type (0, 0), BuildingBlock: UVAHIK_clean_linker_0, # of connection points: 2
#     Edge 24, Type (0, 0), BuildingBlock: UVAHIK_clean_linker_0, # of connection points: 2
#     Edge 25, Type (0, 0), BuildingBlock: UVAHIK_clean_linker_0, # of connection points: 2
#     Edge 26, Type (0, 0), BuildingBlock: UVAHIK_clean_linker_0, # of connection points: 2
#     Edge 27, Type (0, 0), BuildingBlock: UVAHIK_clean_linker_0, # of connection points: 2
#     Edge 28, Type (0, 0), BuildingBlock: UVAHIK_clean_linker_0, # of connection points: 2
#     Edge 29, Type (0, 0), BuildingBlock: UVAHIK_clean_linker_0, # of connection points: 2
#     Edge 30, Type (0, 0), BuildingBlock: UVAHIK_clean_linker_0, # of connection points: 2
#     Edge 31, Type (0, 0), BuildingBlock: UVAHIK_clean_linker_0, # of connection points: 2
# Relax obj value: 0.197
# Max RMSD: 0.214
# Mean RMSD: 0.214
data_MOF--net-vby--node1-BETDAH_clean_sbu_0--edge1-UVAHIK_clean_linker_0
_symmetry_space_group_name_H-M    P1
_symmetry_Int_Tables_number       1
_symmetry_cell_setting            triclinic
loop_
_symmetry_equiv_pos_as_xyz
'x, y, z'
_cell_length_a     20.011356
_cell_length_b     119.72208
_cell_length_c     37.774248
_cell_angle_alpha  89.954069
_cell_angle_beta   85.162546
_cell_angle_gamma 90.103667
loop_
_atom_site_label
_atom_site_type_symbol
_atom_site_fract_x
_atom_site_fract_y
_atom_site_fract_z
_atom_type_partial_charge
Ho0 Ho 0.08137 0.40093 0.01168 0.0
Ho1 Ho 0.06772 0.3764 0.02978 0.0
C2 C 0.93405 0.38989 0.02699 0.0
C3 C 0.07924 0.42103 0.98559 0.0
C4 C 0.06048 0.43274 0.99432 0.0
C5 C 0.03157 0.43924 0.96877 0.0
C6 C 1.02206 0.45073 0.97387 0.0
C7 C 0.04154 0.45603 0.00466 0.0
C8 C 0.06805 0.44939 0.03093 0.0
C9 C 0.07747 0.43788 0.02581 0.0
C10 C 0.08319 0.39628 0.08219 0.0
C11 C 0.21531 0.38708 0.01173 0.0
C12 C 0.07217 0.35625 0.05518 0.0
C13 C 0.10867 0.34553 0.04982 0.0
C14 C 0.12528 0.33946 0.07961 0.0
C15 C 0.15279 0.32873 0.0758 0.0
C16 C 0.16416 0.32377 0.04203 0.0
C17 C 0.14949 0.33005 0.01207 0.0
C18 C 0.12206 0.3408 0.01591 0.0
C19 C 0.05994 0.38135 0.96017 0.0
O20 O 0.97079 0.39736 0.00815 0.0
O21 O 0.96275 0.38203 0.04502 0.0
O22 O 0.12952 0.41685 1.00101 0.0
O23 O 0.0313 0.41375 0.98259 0.0
O24 O 0.11512 0.40446 0.06609 0.0
O25 O 0.04672 0.39167 0.06097 0.0
O26 O 0.17936 0.37941 0.02996 0.0
O27 O 0.18588 0.39521 0.99531 0.0
O28 O 0.03383 0.35927 0.03056 0.0
O29 O 0.10419 0.36469 0.06786 0.0
O30 O 1.02652 0.37344 0.97688 0.0
O31 O 0.10003 0.38567 0.98017 0.0
H32 H 1.01821 0.43549 0.94423 0.0
H33 H 1.00029 0.4555 0.95337 0.0
H34 H 0.08408 0.45316 0.05486 0.0
H35 H 0.10011 0.43308 0.04597 0.0
H36 H 0.11542 0.34291 0.10604 0.0
H37 H 0.16459 0.32428 0.09945 0.0
H38 H 0.15698 0.32651 0.98566 0.0
H39 H 0.10967 0.34528 0.99241 0.0
Ho40 Ho 0.98775 0.65636 0.01616 0.0
Ho41 Ho 0.97396 0.63182 0.03413 0.0
C42 C 0.84012 0.6457 0.03434 0.0
C43 C 0.98326 0.6765 0.99068 0.0
C44 C 0.94682 0.68722 0.99607 0.0
C45 C 0.93039 0.69332 0.96629 0.0
C46 C 0.90292 0.70404 0.97014 0.0
C47 C 0.89143 0.70898 1.00394 0.0
C48 C 0.90592 0.70268 0.03389 0.0
C49 C 0.93331 0.69193 0.03001 0.0
C50 C 0.99561 0.65144 0.08574 0.0
C51 C 0.12139 0.64284 0.01885 0.0
C52 C 0.97594 0.61168 0.05988 0.0
C53 C 0.99508 0.59999 0.05111 0.0
C54 C 1.02419 0.59351 0.07665 0.0
C55 C 0.03397 0.58202 0.07155 0.0
C56 C 1.01457 0.57671 0.04077 0.0
C57 C 0.98789 0.58333 0.01451 0.0
C58 C 0.97819 0.59483 0.01962 0.0
C59 C 0.97193 0.6366 0.96365 0.0
O60 O 0.87606 0.65336 0.01607 0.0
O61 O 0.86958 0.63756 0.05073 0.0
O62 O 1.02175 0.67349 0.01524 0.0
O63 O 0.95109 0.66806 0.97811 0.0
O64 O 0.02887 0.65936 0.06898 0.0
O65 O 0.95553 0.64707 0.06582 0.0
O66 O 0.08462 0.63535 0.0376 0.0
O67 O 0.09273 0.65073 1.00092 0.0
O68 O 0.92597 0.61586 0.0442 0.0
O69 O 1.02362 0.61898 0.0633 0.0
O70 O 0.93972 0.62844 0.97965 0.0
O71 O 1.00866 0.6411 0.98494 0.0
H72 H 0.94034 0.68988 0.93985 0.0
H73 H 0.89125 0.70851 0.94651 0.0
H74 H 0.89833 0.70621 0.06031 0.0
H75 H 0.94558 0.68743 0.05349 0.0
H76 H 0.03747 0.59727 0.10119 0.0
H77 H 0.05586 0.57727 0.09205 0.0
H78 H 0.97191 0.57955 0.99058 0.0
H79 H 0.95539 0.59961 0.99948 0.0
Ho80 Ho 0.06743 0.65668 0.52947 0.0
Ho81 Ho 0.08088 0.63219 0.51103 0.0
C82 C 0.21491 0.64612 0.51062 0.0
C83 C 0.07204 0.67676 0.55531 0.0
C84 C 0.10906 0.68744 0.55007 0.0
C85 C 0.11664 0.69431 0.57953 0.0
C86 C 0.14507 0.70497 0.57513 0.0
C87 C 0.16649 0.70904 0.54105 0.0
C88 C 0.16047 0.702 0.51161 0.0
C89 C 0.13215 0.6913 0.51606 0.0
C90 C 0.05815 0.65192 0.45999 0.0
C91 C 0.93361 0.64314 0.52668 0.0
C92 C 0.07847 0.61209 0.48496 0.0
C93 C 0.0598 0.6004 0.49397 0.0
C94 C 0.03851 0.59343 0.46728 0.0
C95 C 0.02886 0.58198 0.47337 0.0
C96 C 0.04046 0.5772 0.50637 0.0
C97 C 0.05969 0.5843 0.53351 0.0
C98 C 0.06924 0.59577 0.5274 0.0
C99 C 0.08343 0.63681 0.58158 0.0
O100 O 0.17918 0.65375 0.52902 0.0
O101 O 0.18525 0.63799 0.49428 0.0
O102 O 0.03419 0.67383 0.53038 0.0
O103 O 0.10369 0.66829 0.56792 0.0
O104 O 1.02493 0.65974 0.47711 0.0
O105 O 0.09881 0.64751 0.47951 0.0
O106 O 0.97024 0.63572 0.50772 0.0
O107 O 0.96245 0.65098 0.54479 0.0
O108 O 0.12891 0.61629 0.50025 0.0
O109 O 0.0304 0.61934 0.48222 0.0
O110 O 0.11542 0.62868 0.56539 0.0
O111 O 0.04664 0.64134 0.56042 0.0
H112 H 0.09878 0.69154 0.60597 0.0
H113 H 0.14808 0.71017 0.59839 0.0
H114 H 0.17728 0.70477 0.48504 0.0
H115 H 0.12703 0.68615 0.49288 0.0
H116 H 0.03153 0.59679 0.4412 0.0
H117 H 1.01484 0.57681 0.45168 0.0
H118 H 0.0681 0.58096 0.55941 0.0
H119 H 0.08567 0.60097 0.54847 0.0
Ho120 Ho 0.97515 0.40145 0.53478 0.0
Ho121 Ho 0.98866 0.37695 0.51654 0.0
C122 C 0.12247 0.39051 0.51897 0.0
C123 C 0.97757 0.42154 0.56085 0.0
C124 C 0.99644 0.43323 0.55189 0.0
C125 C 1.01771 0.44018 0.57863 0.0
C126 C 1.02746 0.45163 0.57261 0.0
C127 C 1.01596 0.45643 0.53962 0.0
C128 C 0.99676 0.44936 0.51242 0.0
C129 C 0.98712 0.43788 0.51848 0.0
C130 C 0.97251 0.39682 0.4643 0.0
C131 C 0.84115 0.38752 0.53522 0.0
C132 C 0.9839 0.35681 0.49116 0.0
C133 C 0.94709 0.3461 0.49649 0.0
C134 C 0.92992 0.34008 0.4667 0.0
C135 C 0.9022 0.32935 0.47047 0.0
C136 C 0.89119 0.32433 0.50419 0.0
C137 C 0.90641 0.33054 0.53417 0.0
C138 C 0.93403 0.3413 0.53037 0.0
C139 C 0.99812 0.38182 0.58597 0.0
O140 O 0.08589 0.39795 0.53789 0.0
O141 O 0.09356 0.38265 0.50098 0.0
O142 O 0.92725 0.41736 0.54542 0.0
O143 O 1.0255 0.41428 0.56372 0.0
O144 O 0.94064 0.40497 0.48046 0.0
O145 O 1.00927 0.39225 0.48539 0.0
O146 O 0.87691 0.37988 0.5169 0.0
O147 O 0.87077 0.39566 0.55153 0.0
O148 O 1.02213 0.35982 0.51585 0.0
O149 O 0.95221 0.36526 0.47838 0.0
O150 O 0.03156 0.37402 0.56891 0.0
O151 O 0.95723 0.38614 0.56641 0.0
H152 H 1.0246 0.43681 0.6047 0.0
H153 H 0.04145 0.45679 0.59433 0.0
H154 H 0.98844 0.45271 0.48653 0.0
H155 H 0.9707 0.43269 0.49736 0.0
H156 H 0.93951 0.34359 0.4403 0.0
H157 H 0.88997 0.32495 0.44683 0.0
H158 H 0.89923 0.32695 0.56053 0.0
H159 H 0.94687 0.34572 0.55387 0.0
Ho160 Ho 0.58176 0.90106 0.01154 0.0
Ho161 Ho 0.56823 0.87653 0.02967 0.0
C162 C 0.43445 0.89001 0.02689 0.0
C163 C 0.57978 0.92115 0.98536 0.0
C164 C 0.56045 0.93282 0.99413 0.0
C165 C 0.54071 0.93979 0.96706 0.0
C166 C 0.5307 0.95123 0.97302 0.0
C167 C 0.54037 0.95599 0.00628 0.0
C168 C 0.55799 0.94889 0.03379 0.0
C169 C 0.56791 0.93742 0.02779 0.0
C170 C 0.58355 0.89641 0.08206 0.0
C171 C 0.71575 0.88723 0.01158 0.0
C172 C 0.57274 0.85639 0.05511 0.0
C173 C 0.60925 0.84567 0.04977 0.0
C174 C 0.62563 0.83958 0.07957 0.0
C175 C 0.65313 0.82885 0.07576 0.0
C176 C 0.6647 0.82391 0.04197 0.0
C177 C 0.65026 0.8302 0.012 0.0
C178 C 0.62284 0.84095 0.01584 0.0
C179 C 0.56045 0.88147 0.96005 0.0
O180 O 0.47115 0.8975 0.00811 0.0
O181 O 0.46319 0.88214 0.04488 0.0
O182 O 0.6296 0.91703 1.00129 0.0
O183 O 0.53214 0.91384 0.98208 0.0
O184 O 0.6155 0.90459 0.06597 0.0
O185 O 0.54711 0.8918 0.06084 0.0
O186 O 0.67988 0.87956 0.02986 0.0
O187 O 0.68624 0.89534 0.99513 0.0
O188 O 0.53438 0.8594 0.03049 0.0
O189 O 0.60477 0.86483 0.06776 0.0
O190 O 0.52707 0.87356 0.97678 0.0
O191 O 0.60053 0.8858 0.98005 0.0
H192 H 0.53528 0.93644 0.9408 0.0
H193 H 0.51797 0.95641 0.95107 0.0
H194 H 0.56489 0.95222 0.05988 0.0
H195 H 0.58313 0.93222 0.04916 0.0
H196 H 0.61561 0.84302 0.106 0.0
H197 H 0.66475 0.82439 0.09941 0.0
H198 H 0.65791 0.82667 0.98559 0.0
H199 H 0.61062 0.84544 0.99234 0.0
Ho200 Ho 0.487 0.15621 0.01635 0.0
Ho201 Ho 0.47338 0.13166 0.03432 0.0
C202 C 0.33946 0.14552 0.03458 0.0
C203 C 0.48242 0.17634 0.99086 0.0
C204 C 0.44599 0.18706 0.99625 0.0
C205 C 0.42939 0.19314 0.96648 0.0
C206 C 0.40196 0.20388 0.97032 0.0
C207 C 0.39066 0.20883 1.00411 0.0
C208 C 0.40531 0.20254 0.03406 0.0
C209 C 0.43267 0.19179 0.03018 0.0
C210 C 0.49489 0.15129 0.08592 0.0
C211 C 0.62077 0.14269 0.01902 0.0
C212 C 0.47525 0.11152 0.06017 0.0
C213 C 0.49483 0.09987 0.05135 0.0
C214 C 0.51469 0.09291 0.07841 0.0
C215 C 0.52486 0.08147 0.07242 0.0
C216 C 0.5152 0.07671 0.03916 0.0
C217 C 0.49748 0.08381 0.01167 0.0
C218 C 0.48742 0.09527 0.01769 0.0
C219 C 0.47133 0.13645 0.96384 0.0
O220 O 0.37531 0.15318 0.0163 0.0
O221 O 0.36901 0.13739 0.05096 0.0
O222 O 0.52097 0.17333 0.0154 0.0
O223 O 0.45024 0.1679 0.97831 0.0
O224 O 0.52807 0.15922 0.06918 0.0
O225 O 0.45484 0.1469 0.06599 0.0
O226 O 0.58405 0.13518 0.03769 0.0
O227 O 0.59205 0.15059 1.00114 0.0
O228 O 0.42567 0.11566 0.04407 0.0
O229 O 0.52271 0.11885 0.06377 0.0
O230 O 0.43915 0.12827 0.97984 0.0
O231 O 0.50803 0.14095 0.98514 0.0
H232 H 0.4392 0.18969 0.94005 0.0
H233 H 0.39016 0.20833 0.9467 0.0
H234 H 0.39788 0.20608 0.06047 0.0
H235 H 0.44506 0.1873 0.05366 0.0
H236 H 0.52009 0.09625 0.10467 0.0
H237 H 0.53766 0.0763 0.09437 0.0
H238 H 0.4906 0.08048 0.98557 0.0
H239 H 0.4721 0.10047 0.99633 0.0
Ho240 Ho 0.56668 0.15666 0.52962 0.0
Ho241 Ho 0.58 0.13216 0.51125 0.0
C242 C 0.7141 0.14607 0.51081 0.0
C243 C 0.57165 0.17675 0.5553 0.0
C244 C 0.6083 0.18748 0.54991 0.0
C245 C 0.62548 0.19351 0.57965 0.0
C246 C 0.65312 0.20425 0.57582 0.0
C247 C 0.66403 0.20926 0.54207 0.0
C248 C 0.64879 0.20303 0.51213 0.0
C249 C 0.62124 0.19226 0.516 0.0
C250 C 0.5574 0.15189 0.46014 0.0
C251 C 0.43285 0.14315 0.52682 0.0
C252 C 0.57723 0.11205 0.48533 0.0
C253 C 0.55911 0.10032 0.49432 0.0
C254 C 0.52874 0.0938 0.46931 0.0
C255 C 0.51956 0.0823 0.47456 0.0
C256 C 0.54083 0.07701 0.50496 0.0
C257 C 0.56886 0.08365 0.53072 0.0
C258 C 0.57797 0.09518 0.52546 0.0
C259 C 0.58268 0.1368 0.58179 0.0
O260 O 0.6784 0.1537 0.5292 0.0
O261 O 0.68441 0.13793 0.49448 0.0
O262 O 0.53293 0.17377 0.5308 0.0
O263 O 0.60371 0.1683 0.56776 0.0
O264 O 0.5243 0.15973 0.47723 0.0
O265 O 0.59798 0.14748 0.47968 0.0
O266 O 0.46947 0.13574 0.50778 0.0
O267 O 0.46173 0.15095 0.54502 0.0
O268 O 0.6282 0.1163 0.50003 0.0
O269 O 0.52888 0.11926 0.48293 0.0
O270 O 0.61458 0.12866 0.5656 0.0
O271 O 0.54587 0.14133 0.56064 0.0
H272 H 0.61598 0.19002 0.60607 0.0
H273 H 0.66537 0.20867 0.59943 0.0
H274 H 0.6559 0.20661 0.48575 0.0
H275 H 0.6084 0.18782 0.49253 0.0
H276 H 0.51393 0.09755 0.44506 0.0
H277 H 0.4966 0.07752 0.45447 0.0
H278 H 0.58629 0.07989 0.55434 0.0
H279 H 0.60176 0.09999 0.54519 0.0
Ho280 Ho 0.47596 0.90113 0.53473 0.0
Ho281 Ho 0.48944 0.87664 0.51633 0.0
C282 C 0.62322 0.89018 0.519 0.0
C283 C 0.4786 0.92121 0.56082 0.0
C284 C 0.49676 0.93295 0.55192 0.0
C285 C 0.527 0.93946 0.57702 0.0
C286 C 0.53622 0.95096 0.57185 0.0
C287 C 0.51511 0.95627 0.54144 0.0
C288 C 0.4872 0.94964 0.5156 0.0
C289 C 0.47806 0.93811 0.52079 0.0
C290 C 0.47329 0.89655 0.46421 0.0
C291 C 0.34193 0.88719 0.53513 0.0
C292 C 0.48495 0.85653 0.4907 0.0
C293 C 0.44786 0.84586 0.49592 0.0
C294 C 0.44031 0.83899 0.46645 0.0
C295 C 0.41186 0.82833 0.47083 0.0
C296 C 0.3904 0.82425 0.50489 0.0
C297 C 0.39638 0.8313 0.53435 0.0
C298 C 0.42472 0.84199 0.52991 0.0
C299 C 0.49896 0.88147 0.58579 0.0
O300 O 0.58659 0.89759 0.53802 0.0
O301 O 0.59435 0.88235 0.50087 0.0
O302 O 0.42771 0.91698 0.546 0.0
O303 O 0.52691 0.914 0.56323 0.0
O304 O 0.44146 0.90469 0.48044 0.0
O305 O 0.51005 0.89196 0.48527 0.0
O306 O 0.37767 0.87956 0.51678 0.0
O307 O 0.37156 0.89533 0.55144 0.0
O308 O 0.52252 0.85949 0.51573 0.0
O309 O 0.45351 0.86499 0.4779 0.0
O310 O 0.5324 0.87367 0.56867 0.0
O311 O 0.45806 0.8858 0.56625 0.0
H312 H 0.54168 0.93569 0.60127 0.0
H313 H 0.55908 0.95572 0.592 0.0
H314 H 0.46989 0.95341 0.49198 0.0
H315 H 0.45437 0.93331 0.50099 0.0
H316 H 0.45821 0.84176 0.44001 0.0
H317 H 0.40887 0.82314 0.44756 0.0
H318 H 0.37953 0.82852 0.56091 0.0
H319 H 0.42982 0.84714 0.55311 0.0
C320 C 0.3287 0.39502 0.99213 0.0
C321 C 0.28964 0.38675 0.01052 0.0
C322 C 0.39841 0.39522 0.99322 0.0
C323 C 0.53192 0.38562 0.04788 0.0
H324 H 0.65017 0.3931 0.9646 0.0
C325 C 0.82041 0.38188 0.04544 0.0
C326 C 0.85988 0.39008 0.02695 0.0
C327 C 0.75088 0.38162 0.0437 0.0
C328 C 0.61784 0.39114 0.98824 0.0
H329 H 0.29379 0.37203 0.0438 0.0
H330 H 0.41535 0.37232 0.04538 0.0
H331 H 0.52948 0.39203 0.96006 0.0
H332 H 0.85671 0.40456 0.99257 0.0
H333 H 0.73535 0.4042 0.98997 0.0
H334 H 0.62013 0.38476 0.07611 0.0
C335 C 0.39192 0.37876 0.03052 0.0
C336 C 0.54858 0.3905 0.98561 0.0
C337 C 0.3222 0.37854 0.02938 0.0
C338 C 0.82793 0.39812 0.00712 0.0
C339 C 0.75833 0.39785 0.00539 0.0
C340 C 0.60113 0.38627 0.05053 0.0
C341 C 0.43085 0.38718 0.01279 0.0
C342 C 0.50472 0.38772 0.01539 0.0
C343 C 0.71894 0.38955 0.02344 0.0
C344 C 0.64505 0.38903 0.02074 0.0
H345 H 0.30537 0.4015 0.97741 0.0
H346 H 0.42668 0.40189 0.97953 0.0
H347 H 0.49957 0.38366 0.07152 0.0
H348 H 0.84327 0.37552 0.06085 0.0
H349 H 0.72237 0.37502 0.05759 0.0
C350 C 0.23511 0.6508 1.0003 0.0
C351 C 0.19557 0.64263 0.01888 0.0
C352 C 0.30464 0.65105 1.00204 0.0
C353 C 0.43755 0.6416 0.05768 0.0
H354 H 0.55598 0.64898 0.97437 0.0
C355 C 0.72674 0.63777 0.05405 0.0
C356 C 0.76578 0.64602 0.03555 0.0
C357 C 0.65702 0.63755 0.05291 0.0
C358 C 0.52359 0.64704 0.99801 0.0
H359 H 0.19863 0.62818 0.05342 0.0
H360 H 0.31999 0.62853 0.05603 0.0
H361 H 0.43544 0.64786 0.96972 0.0
H362 H 0.76161 0.66069 1.00205 0.0
H363 H 0.64007 0.66037 1.0004 0.0
H364 H 0.52584 0.64075 0.08593 0.0
C365 C 0.29706 0.63486 0.04053 0.0
C366 C 0.45439 0.64638 0.99533 0.0
C367 C 0.22746 0.63461 0.03879 0.0
C368 C 0.73321 0.6542 0.01656 0.0
C369 C 0.6635 0.65396 0.01537 0.0
C370 C 0.5068 0.64224 0.06035 0.0
C371 C 0.33652 0.64314 0.02241 0.0
C372 C 0.41041 0.64366 0.02513 0.0
C373 C 0.62458 0.64556 0.0332 0.0
C374 C 0.55072 0.64499 0.03056 0.0
H375 H 0.21231 0.65714 0.98481 0.0
H376 H 0.33321 0.65764 0.98808 0.0
H377 H 0.40517 0.63966 0.08133 0.0
H378 H 0.75007 0.63132 0.06887 0.0
H379 H 0.62877 0.63089 0.06668 0.0
C380 C 0.82006 0.65112 0.54513 0.0
C381 C 0.85942 0.64296 0.52655 0.0
C382 C 0.75056 0.65141 0.54325 0.0
C383 C 0.61755 0.64202 0.48737 0.0
H384 H 0.49904 0.64944 0.57051 0.0
C385 C 0.32818 0.63821 0.49085 0.0
C386 C 0.28929 0.64646 0.5093 0.0
C387 C 0.3979 0.638 0.49199 0.0
C388 C 0.53145 0.64749 0.54691 0.0
H389 H 0.85607 0.62857 0.49185 0.0
H390 H 0.73478 0.62898 0.48904 0.0
H391 H 0.61949 0.64829 0.57531 0.0
H392 H 0.2938 0.66114 0.54268 0.0
H393 H 0.41532 0.66083 0.54432 0.0
H394 H 0.52933 0.64118 0.45904 0.0
C395 C 0.75781 0.63527 0.50463 0.0
C396 C 0.60062 0.64682 0.54967 0.0
C397 C 0.82738 0.63498 0.50649 0.0
C398 C 0.32205 0.65465 0.52821 0.0
C399 C 0.39177 0.65442 0.52939 0.0
C400 C 0.54832 0.64268 0.48463 0.0
C401 C 0.71852 0.64354 0.52276 0.0
C402 C 0.64465 0.64409 0.51994 0.0
C403 C 0.43052 0.64601 0.51165 0.0
C404 C 0.50437 0.64544 0.51436 0.0
H405 H 0.84298 0.65743 0.56071 0.0
H406 H 0.72215 0.65798 0.55721 0.0
H407 H 0.64994 0.64008 0.46377 0.0
H408 H 0.3047 0.63175 0.4761 0.0
H409 H 0.42602 0.63134 0.47827 0.0
C410 C 0.73403 0.379 0.51755 0.0
C411 C 0.76677 0.38718 0.53648 0.0
C412 C 0.66432 0.37924 0.51631 0.0
C413 C 0.50772 0.391 0.56096 0.0
H414 H 0.43667 0.38536 0.47027 0.0
C415 C 0.22874 0.3987 0.53901 0.0
C416 C 0.19667 0.39071 0.51902 0.0
C417 C 0.29832 0.39842 0.54084 0.0
C418 C 0.45551 0.38684 0.49591 0.0
H419 H 0.75132 0.4019 0.56964 0.0
H420 H 0.63003 0.40232 0.56737 0.0
H421 H 0.55711 0.3842 0.47513 0.0
H422 H 0.21308 0.37622 0.48494 0.0
H423 H 0.33393 0.37567 0.48839 0.0
H424 H 0.40609 0.39361 0.58177 0.0
C425 C 0.65815 0.39566 0.55369 0.0
C426 C 0.52467 0.38616 0.4987 0.0
C427 C 0.72786 0.39544 0.55488 0.0
C428 C 0.23602 0.38254 0.50046 0.0
C429 C 0.30553 0.38226 0.50232 0.0
C430 C 0.43851 0.39166 0.55818 0.0
C431 C 0.62555 0.38765 0.53402 0.0
C432 C 0.55171 0.38823 0.53126 0.0
C433 C 0.33759 0.39013 0.52276 0.0
C434 C 0.41146 0.38959 0.52561 0.0
H435 H 0.7623 0.3725 0.50312 0.0
H436 H 0.64079 0.37283 0.50138 0.0
H437 H 0.52668 0.39251 0.58656 0.0
H438 H 0.20006 0.40512 0.55362 0.0
H439 H 0.32136 0.40472 0.5564 0.0
C440 C 0.82898 0.89515 0.99162 0.0
C441 C 0.7901 0.88692 0.0103 0.0
C442 C 0.8987 0.89538 0.99261 0.0
C443 C 0.04419 0.87817 0.01387 0.0
H444 H 0.12989 0.90693 0.02407 0.0
C445 C 0.3208 0.88202 0.04541 0.0
C446 C 0.36029 0.89019 0.02681 0.0
C447 C 0.25131 0.88172 0.04353 0.0
C448 C 0.1069 0.89884 0.02085 0.0
H449 H 0.79452 0.87233 0.04413 0.0
H450 H 0.91594 0.87278 0.04602 0.0
H451 H 1.00922 0.906 0.01948 0.0
H452 H 0.35721 0.90458 0.99204 0.0
H453 H 0.23606 0.90404 0.98871 0.0
H454 H 0.14189 0.87101 0.01537 0.0
C455 C 0.89261 0.87901 0.0303 0.0
C456 C 0.03765 0.8983 0.01816 0.0
C457 C 0.82285 0.87877 0.02932 0.0
C458 C 0.32838 0.89819 0.00682 0.0
C459 C 0.25881 0.89791 0.005 0.0
C460 C 0.11343 0.8787 0.0166 0.0
C461 C 0.93139 0.88739 0.01229 0.0
C462 C 1.00535 0.88796 0.01465 0.0
C463 C 0.21946 0.8896 0.02306 0.0
C464 C 0.14568 0.88905 0.02018 0.0
H465 H 0.80555 0.90154 0.9766 0.0
H466 H 0.92703 0.90185 0.97792 0.0
H467 H 1.02123 0.87007 0.01067 0.0
H468 H 0.34358 0.87573 0.06113 0.0
H469 H 0.22246 0.87532 0.05823 0.0
C470 C 0.22625 0.13757 0.05451 0.0
C471 C 0.2651 0.14582 0.0359 0.0
C472 C 0.15653 0.13733 0.05351 0.0
C473 C 1.01095 0.15455 0.03233 0.0
H474 H 0.92544 0.12578 0.02185 0.0
C475 C 0.73444 0.1507 1.00061 0.0
C476 C 0.69494 0.14251 0.0191 0.0
C477 C 0.80393 0.151 1.00252 0.0
C478 C 0.94837 0.13387 0.02515 0.0
H479 H 0.26061 0.16044 1.00219 0.0
H480 H 0.1392 0.15997 1.00028 0.0
H481 H 0.04609 0.12672 0.02653 0.0
H482 H 0.698 0.12808 0.05372 0.0
H483 H 0.81914 0.12862 0.05711 0.0
H484 H 0.91323 0.16169 0.03082 0.0
C485 C 0.16255 0.15374 0.01595 0.0
C486 C 1.01761 0.13441 0.02789 0.0
C487 C 0.23232 0.15398 0.01694 0.0
C488 C 0.72683 0.13449 0.03903 0.0
C489 C 0.79641 0.13477 0.04088 0.0
C490 C 0.94172 0.154 0.02955 0.0
C491 C 0.12381 0.14533 0.03388 0.0
C492 C 0.04985 0.14476 0.03149 0.0
C493 C 0.83577 0.1431 0.02293 0.0
C494 C 0.90954 0.14366 0.02587 0.0
H495 H 0.24971 0.13117 0.06947 0.0
H496 H 0.12824 0.13085 0.06813 0.0
H497 H 0.03385 0.16264 0.0356 0.0
H498 H 0.71168 0.157 0.98494 0.0
H499 H 0.83278 0.15742 0.9879 0.0
C500 C 0.32664 0.135 0.5066 0.0
C501 C 0.35866 0.14297 0.52667 0.0
C502 C 0.25706 0.13528 0.50475 0.0
C503 C 0.09986 0.14681 0.54982 0.0
H504 H 0.02852 0.14115 0.45921 0.0
C505 C 0.82124 0.1546 0.5284 0.0
C506 C 0.78848 0.14641 0.5095 0.0
C507 C 0.89095 0.15437 0.52957 0.0
C508 C 0.04753 0.14265 0.48479 0.0
H509 H 0.34221 0.15744 0.56084 0.0
H510 H 0.22137 0.15798 0.55735 0.0
H511 H 0.14915 0.14007 0.46391 0.0
H512 H 0.80391 0.13169 0.47632 0.0
H513 H 0.92524 0.13129 0.47848 0.0
H514 H 0.99827 0.14941 0.57068 0.0
C515 C 0.24979 0.15141 0.54338 0.0
C516 C 0.11676 0.14201 0.48752 0.0
C517 C 0.31929 0.15113 0.54526 0.0
C518 C 0.82738 0.13816 0.49107 0.0
C519 C 0.89711 0.13795 0.49219 0.0
C520 C 0.03068 0.14747 0.54707 0.0
C521 C 0.21776 0.14355 0.52289 0.0
C522 C 0.14388 0.14408 0.52007 0.0
C523 C 0.92972 0.14597 0.51183 0.0
C524 C 1.00358 0.1454 0.51453 0.0
H525 H 0.35533 0.12859 0.49196 0.0
H526 H 0.23405 0.12898 0.48915 0.0
H527 H 0.11874 0.14828 0.57544 0.0
H528 H 0.79298 0.16109 0.54285 0.0
H529 H 0.9145 0.16078 0.54448 0.0
C530 C 0.72945 0.89833 0.53919 0.0
C531 C 0.69741 0.89036 0.51911 0.0
C532 C 0.79902 0.89805 0.54104 0.0
C533 C 0.95624 0.88651 0.49598 0.0
H534 H 1.02747 0.89212 0.58665 0.0
C535 C 0.23479 0.87867 0.51749 0.0
C536 C 0.26754 0.88685 0.53643 0.0
C537 C 0.16508 0.8789 0.51628 0.0
C538 C 1.00849 0.89063 0.56105 0.0
H539 H 0.71386 0.87591 0.48488 0.0
H540 H 0.8347 0.87536 0.48836 0.0
H541 H 0.90686 0.89322 0.5819 0.0
H542 H 0.2521 0.90155 0.56966 0.0
H543 H 0.13079 0.90196 0.56746 0.0
H544 H 0.05783 0.8839 0.47515 0.0
C545 C 0.80629 0.88193 0.50235 0.0
C546 C 0.93927 0.89129 0.55829 0.0
C547 C 0.73678 0.88222 0.50048 0.0
C548 C 0.22864 0.89509 0.55489 0.0
C549 C 0.15892 0.89531 0.55374 0.0
C550 C 1.02541 0.88584 0.49875 0.0
C551 C 0.83832 0.88978 0.52288 0.0
C552 C 0.91219 0.88923 0.52571 0.0
C553 C 0.12631 0.8873 0.53404 0.0
C554 C 0.05246 0.88788 0.53132 0.0
H555 H 0.70075 0.90473 0.55387 0.0
H556 H 0.82204 0.90433 0.55667 0.0
H557 H 0.93738 0.88505 0.47033 0.0
H558 H 0.26306 0.87218 0.50301 0.0
H559 H 0.14154 0.8725 0.50133 0.0
C560 C 1.00333 0.55727 0.0664 0.0
C561 C 1.01925 0.56429 0.03694 0.0
C562 C 1.0059 0.54563 0.06289 0.0
C563 C 0.07754 0.52294 1.00438 0.0
H564 H 0.93965 0.50491 0.05518 0.0
C565 C 0.0531 0.47547 0.97907 0.0
C566 C 0.03707 0.46845 0.00851 0.0
C567 C 0.05065 0.48711 0.98259 0.0
C568 C 0.97904 0.5098 0.04112 0.0
H569 H 0.05116 0.56442 0.98064 0.0
H570 H 0.05462 0.54413 0.97439 0.0
H571 H 0.93632 0.52518 0.06096 0.0
H572 H 1.00511 0.46832 0.06481 0.0
H573 H 1.00186 0.48861 0.07108 0.0
H574 H 0.12026 0.50756 0.98453 0.0
C575 C 0.04073 0.54765 1.00037 0.0
C576 C 0.97714 0.52145 0.04443 0.0
C577 C 0.03807 0.55931 1.00386 0.0
C578 C 1.01829 0.47343 0.04159 0.0
C579 C 1.01574 0.48509 0.04511 0.0
C580 C 0.07945 0.51129 1.00106 0.0
C581 C 1.02442 0.54064 0.02982 0.0
C582 C 1.02637 0.5282 0.02612 0.0
C583 C 0.03213 0.4921 0.01567 0.0
C584 C 0.03021 0.50454 0.01937 0.0
H585 H 0.98769 0.56076 0.0922 0.0
H586 H 0.99375 0.54054 0.08627 0.0
H587 H 0.11693 0.52783 0.99031 0.0
H588 H 0.06872 0.47198 0.95326 0.0
H589 H 0.06286 0.4922 0.95922 0.0
C590 C 0.97363 0.47456 0.51574 0.0
C591 C 1.02101 0.46881 0.53435 0.0
C592 C 0.97595 0.48622 0.51253 0.0
C593 C 0.08819 0.5108 0.51981 0.0
H594 H 0.92119 0.52731 0.52963 0.0
C595 C 0.08285 0.55909 0.53033 0.0
C596 C 0.03544 0.56483 0.51171 0.0
C597 C 0.08055 0.54743 0.5336 0.0
C598 C 0.9683 0.52284 0.52643 0.0
H599 H 0.10922 0.47092 0.56334 0.0
H600 H 0.11267 0.49122 0.55822 0.0
H601 H 0.91918 0.50699 0.53337 0.0
H602 H 0.94716 0.5627 0.48278 0.0
H603 H 0.94376 0.5424 0.48799 0.0
H604 H 0.13731 0.52665 0.51286 0.0
C605 C 0.07385 0.48671 0.54587 0.0
C606 C 0.96715 0.51115 0.52854 0.0
C607 C 0.07146 0.47505 0.54913 0.0
C608 C 0.98496 0.55858 0.49699 0.0
C609 C 0.98259 0.54692 0.50031 0.0
C610 C 0.08934 0.52249 0.51769 0.0
C611 C 1.02579 0.49248 0.52778 0.0
C612 C 1.02708 0.50496 0.52525 0.0
C613 C 0.03069 0.54116 0.5184 0.0
C614 C 0.02941 0.52868 0.52097 0.0
H615 H 0.93359 0.47008 0.50432 0.0
H616 H 0.9386 0.49034 0.498 0.0
H617 H 0.13531 0.50633 0.5166 0.0
H618 H 0.12291 0.56357 0.5417 0.0
H619 H 0.11793 0.54332 0.54812 0.0
C620 C 0.58145 0.97411 0.03093 0.0
C621 C 0.53515 0.96835 0.01155 0.0
C622 C 0.57908 0.98576 0.03415 0.0
C623 C 0.46785 1.01031 0.02518 0.0
H624 H 0.63511 0.02688 0.01778 0.0
C625 C 0.47422 0.05859 0.0145 0.0
C626 C 0.5205 0.06435 0.03388 0.0
C627 C 0.47663 0.04693 0.0113 0.0
C628 C 0.5879 0.02239 0.0203 0.0
H629 H 0.44876 0.97046 0.98118 0.0
H630 H 0.44527 0.99075 0.98631 0.0
H631 H 0.63707 1.00655 0.01411 0.0
H632 H 0.60691 0.06225 0.06425 0.0
H633 H 0.61047 0.04196 0.05913 0.0
H634 H 0.41868 0.02615 0.03137 0.0
C635 C 0.48326 0.98624 0.99926 0.0
C636 C 0.58902 1.0107 0.01823 0.0
C637 C 0.48569 0.97459 0.996 0.0
C638 C 0.56999 0.05812 0.04943 0.0
C639 C 0.57247 0.04646 0.04618 0.0
C640 C 0.46673 0.02199 0.02725 0.0
C641 C 0.53028 0.99201 0.01813 0.0
C642 C 0.52901 1.00449 0.02064 0.0
C643 C 0.52545 0.04069 0.02732 0.0
C644 C 0.52674 0.02821 0.02483 0.0
H645 H 0.62072 0.96963 0.04296 0.0
H646 H 0.61559 0.98988 0.04928 0.0
H647 H 0.42064 1.00582 0.0277 0.0
H648 H 0.43493 0.06306 1.00247 0.0
H649 H 0.44013 0.04281 0.99617 0.0
C650 C 0.55089 0.05757 0.47932 0.0
C651 C 0.53653 0.06458 0.50891 0.0
C652 C 0.54853 0.04593 0.48289 0.0
C653 C 0.47983 0.02319 0.5424 0.0
H654 H 0.61496 1.00523 0.48958 0.0
C655 C 0.50506 0.97569 0.56717 0.0
C656 C 0.51947 0.9687 0.53756 0.0
C657 C 0.50747 0.98733 0.56365 0.0
C658 C 0.57632 1.01009 0.50422 0.0
H659 H 0.50766 0.06467 0.56555 0.0
H660 H 0.50458 0.04438 0.57189 0.0
H661 H 0.6182 0.02551 0.48377 0.0
H662 H 0.5485 0.96863 0.48094 0.0
H663 H 0.55164 0.98892 0.47468 0.0
H664 H 0.43795 1.00778 0.56285 0.0
C665 C 0.51706 0.04791 0.54577 0.0
C666 C 0.57818 0.02175 0.50089 0.0
C667 C 0.51953 0.05958 0.5422 0.0
C668 C 0.53658 0.97372 0.5043 0.0
C669 C 0.53909 0.98538 0.50078 0.0
C670 C 0.47798 1.01153 0.54573 0.0
C671 C 0.53177 0.04092 0.51617 0.0
C672 C 0.52993 0.02848 0.51991 0.0
C673 C 0.52432 0.99236 0.5304 0.0
C674 C 0.52621 1.00481 0.5267 0.0
H675 H 0.56512 0.06108 0.45334 0.0
H676 H 0.55941 0.04086 0.45941 0.0
H677 H 0.4412 0.02806 0.55704 0.0
H678 H 0.49075 0.97218 0.59313 0.0
H679 H 0.49654 0.9924 0.58715 0.0
C680 C 0.16567 0.30376 0.06304 0.0
C681 C 0.1888 0.31199 0.03829 0.0
C682 C 0.18749 0.29268 0.05936 0.0
C683 C 0.32279 0.27503 0.01525 0.0
H684 H 0.19578 0.25098 0.0367 0.0
C685 C 0.38924 0.22885 0.98315 0.0
C686 C 0.36608 0.22061 0.00788 0.0
C687 C 0.36746 0.23993 0.98686 0.0
C688 C 0.23219 0.25757 0.03099 0.0
H689 H 0.25401 0.31489 0.99034 0.0
H690 H 0.29109 0.29555 0.98356 0.0
H691 H 0.15872 0.27031 0.04298 0.0
H692 H 0.30089 0.21771 0.05584 0.0
H693 H 0.26389 0.23705 0.06266 0.0
H694 H 0.39626 0.2623 1.00325 0.0
C695 C 0.25648 0.2977 0.0061 0.0
C696 C 0.21088 0.26869 0.03459 0.0
C697 C 0.23459 0.3088 0.00977 0.0
C698 C 0.32032 0.22381 0.03642 0.0
C699 C 0.29847 0.2349 0.04011 0.0
C700 C 0.3441 0.26391 0.01164 0.0
C701 C 0.23309 0.28947 0.0308 0.0
C702 C 0.25586 0.27759 0.02679 0.0
C703 C 0.32188 0.24314 0.01543 0.0
C704 C 0.29912 0.25501 0.01944 0.0
H705 H 0.12972 0.30582 0.08509 0.0
H706 H 0.1689 0.28663 0.07915 0.0
H707 H 0.35919 0.28163 0.00953 0.0
H708 H 0.42517 0.22678 0.96109 0.0
H709 H 0.38606 0.24598 0.96707 0.0
C710 C 0.7353 0.80895 0.00976 0.0
C711 C 0.68933 0.81213 0.03822 0.0
C712 C 0.75719 0.79785 0.00608 0.0
C713 C 0.71142 0.76883 0.03438 0.0
H714 H 0.89696 0.76245 1.00335 0.0
C715 C 0.82088 0.72394 0.03621 0.0
C716 C 0.86682 0.72076 0.00773 0.0
C717 C 0.799 0.73504 0.03991 0.0
C718 C 0.84475 0.76406 0.01165 0.0
H719 H 0.62994 0.80594 0.08489 0.0
H720 H 0.66912 0.78675 0.07894 0.0
H721 H 0.85984 0.78178 0.00965 0.0
H722 H 0.92616 0.72695 0.96106 0.0
H723 H 0.88699 0.74614 0.96705 0.0
H724 H 0.69633 0.75111 0.03638 0.0
C725 C 0.68785 0.7928 0.0592 0.0
C726 C 0.82342 0.77518 0.01526 0.0
C727 C 0.66602 0.80389 0.06289 0.0
C728 C 0.8901 0.72901 0.98307 0.0
C729 C 0.86829 0.74009 0.98679 0.0
C730 C 0.73275 0.75771 0.03076 0.0
C731 C 0.73363 0.78961 0.0307 0.0
C732 C 0.75643 0.77773 0.02669 0.0
C733 C 0.82253 0.74328 0.0153 0.0
C734 C 0.79974 0.75516 0.01933 0.0
H735 H 0.75485 0.81505 0.99039 0.0
H736 H 0.79194 0.79571 0.98359 0.0
H737 H 0.65921 0.77044 0.04268 0.0
H738 H 0.80135 0.71783 0.05558 0.0
H739 H 0.76427 0.73718 0.06242 0.0
C740 C 0.17424 0.72741 0.50801 0.0
C741 C 0.19251 0.72073 0.53631 0.0
C742 C 0.19591 0.73853 0.50451 0.0
C743 C 0.2606 0.76201 0.55636 0.0
H744 H 0.31098 0.77461 0.46336 0.0
C745 C 0.38264 0.80588 0.53791 0.0
C746 C 0.36439 0.81257 0.50962 0.0
C747 C 0.36098 0.79476 0.5414 0.0
C748 C 0.2963 0.77129 0.48954 0.0
H749 H 0.24988 0.72052 0.58251 0.0
H750 H 0.28781 0.73985 0.57635 0.0
H751 H 0.27625 0.75512 0.46855 0.0
H752 H 0.30706 0.81277 0.4634 0.0
H753 H 0.26913 0.79345 0.46955 0.0
H754 H 0.28064 0.77818 0.57735 0.0
C755 C 0.25558 0.73656 0.5572 0.0
C756 C 0.27639 0.76007 0.49252 0.0
C757 C 0.23387 0.72545 0.56071 0.0
C758 C 0.32305 0.80785 0.48521 0.0
C759 C 0.30135 0.79673 0.48871 0.0
C760 C 0.28051 0.77323 0.55338 0.0
C761 C 0.23653 0.7433 0.52919 0.0
C762 C 0.25825 0.75526 0.52598 0.0
C763 C 0.32038 0.79 0.51671 0.0
C764 C 0.29866 0.77804 0.51992 0.0
H765 H 0.14159 0.72415 0.48902 0.0
H766 H 0.17936 0.74347 0.48289 0.0
H767 H 0.24592 0.75868 0.58254 0.0
H768 H 0.41528 0.80914 0.55691 0.0
H769 H 0.37752 0.78982 0.56302 0.0
C770 C 0.88902 0.30435 0.48294 0.0
C771 C 0.86639 0.31253 0.50788 0.0
C772 C 0.86714 0.29326 0.4866 0.0
C773 C 0.73241 0.27549 0.5312 0.0
H774 H 0.85897 0.25152 0.5089 0.0
C775 C 0.66616 0.22924 0.56323 0.0
C776 C 0.68877 0.22105 0.53832 0.0
C777 C 0.68801 0.24034 0.55952 0.0
C778 C 0.82268 0.25809 0.51485 0.0
H779 H 0.80198 0.31534 0.55614 0.0
H780 H 0.76482 0.29597 0.56288 0.0
H781 H 0.89606 0.27087 0.50258 0.0
H782 H 0.75313 0.21824 0.49004 0.0
H783 H 0.79024 0.2376 0.48322 0.0
H784 H 0.65903 0.26271 0.54348 0.0
C785 C 0.79907 0.29817 0.54021 0.0
C786 C 0.844 0.26923 0.51122 0.0
C787 C 0.82101 0.30928 0.53656 0.0
C788 C 0.7341 0.2243 0.50961 0.0
C789 C 0.75602 0.23541 0.50591 0.0
C790 C 0.71109 0.26436 0.53483 0.0
C791 C 0.82198 0.28999 0.51533 0.0
C792 C 0.79919 0.2781 0.51933 0.0
C793 C 0.73313 0.2436 0.53077 0.0
C794 C 0.75591 0.25549 0.52673 0.0
H795 H 0.92464 0.30646 0.46076 0.0
H796 H 0.88534 0.28725 0.46667 0.0
H797 H 0.69612 0.28207 0.53716 0.0
H798 H 0.63057 0.22714 0.58543 0.0
H799 H 0.66982 0.24635 0.57945 0.0
C800 C 0.10988 0.40212 0.14288 0.0
C801 C 0.07496 0.39502 0.12131 0.0
C802 C 0.09927 0.40154 0.1799 0.0
C803 C 0.03264 0.40383 0.25457 0.0
H804 H 1.01486 0.37578 0.30592 0.0
C805 C 0.94449 0.40248 0.40361 0.0
C806 C 0.9799 0.39547 0.42521 0.0
C807 C 0.95432 0.40178 0.36659 0.0
C808 C 1.02 0.38369 0.29198 0.0
H809 H 1.00321 0.38144 0.12154 0.0
H810 H 0.98438 0.38041 0.18642 0.0
H811 H 0.03813 0.37569 0.24123 0.0
H812 H 0.05169 0.38194 0.42504 0.0
H813 H 0.06919 0.38073 0.36019 0.0
H814 H 1.01542 0.41186 0.30507 0.0
C815 C 1.02015 0.38643 0.17468 0.0
C816 C 0.03273 0.38363 0.25488 0.0
C817 C 0.03066 0.38705 0.13754 0.0
C818 C 1.02388 0.38749 0.40902 0.0
C819 C 0.03361 0.38676 0.37189 0.0
C820 C 1.0196 0.40389 0.29151 0.0
C821 C 0.05357 0.3938 0.19631 0.0
C822 C 0.0395 0.39372 0.23574 0.0
C823 C 0.99969 0.39402 0.35021 0.0
C824 C 1.01311 0.39383 0.31074 0.0
H825 H 0.14477 0.40829 0.13115 0.0
H826 H 0.12679 0.40719 0.19571 0.0
H827 H 0.03671 0.41176 0.2407 0.0
H828 H 0.90984 0.40866 0.41533 0.0
H829 H 0.92645 0.40737 0.35075 0.0
C830 C 0.06006 0.65135 0.13929 0.0
C831 C 1.00071 0.64879 0.12361 0.0
C832 C 0.06476 0.64955 0.17557 0.0
C833 C 0.96931 0.65124 0.25858 0.0
H834 H 0.10514 0.63309 0.29802 0.0
C835 C 0.98665 0.65018 0.40968 0.0
C836 C 0.0499 0.64906 0.42262 0.0
C837 C 0.97821 0.64838 0.37379 0.0
C838 C 0.06747 0.63835 0.28761 0.0
H839 H 0.90005 0.64217 0.13325 0.0
H840 H 0.90724 0.6395 0.19746 0.0
H841 H 0.09597 0.63321 0.23392 0.0
H842 H 0.15394 0.64498 0.40864 0.0
H843 H 0.1408 0.64256 0.34539 0.0
H844 H 0.94341 0.65712 0.31111 0.0
C845 C 0.95043 0.64269 0.18134 0.0
C846 C 0.06187 0.63829 0.25085 0.0
C847 C 0.94636 0.6442 0.14474 0.0
C848 C 0.10457 0.64586 0.39921 0.0
C849 C 0.09666 0.6444 0.36293 0.0
C850 C 0.97593 0.65154 0.29512 0.0
C851 C 1.00962 0.64541 0.19705 0.0
C852 C 1.01275 0.64475 0.23606 0.0
C853 C 0.03339 0.64581 0.34949 0.0
C854 C 1.02519 0.64511 0.31037 0.0
H855 H 0.1028 0.65484 0.1235 0.0
H856 H 0.11071 0.65178 0.18712 0.0
H857 H 0.93175 0.65644 0.24769 0.0
H858 H 0.94345 0.65248 0.42741 0.0
H859 H 0.92819 0.64914 0.36521 0.0
C860 C 1.02469 0.64589 0.90844 0.0
C861 C 0.97996 0.63796 0.92455 0.0
C862 C 0.03494 0.64659 0.87131 0.0
C863 C 1.0208 0.62944 0.79106 0.0
H864 H 0.04069 0.65758 0.74034 0.0
C865 C 0.03172 0.6461 0.63688 0.0
C866 C 0.07561 0.63811 0.62069 0.0
C867 C 1.02161 0.64677 0.67402 0.0
C868 C 0.03494 0.64965 0.75411 0.0
H869 H 0.9091 0.62487 0.91453 0.0
H870 H 0.92664 0.62612 0.84998 0.0
H871 H 1.01737 0.65756 0.80503 0.0
H872 H 0.14505 0.62482 0.63056 0.0
H873 H 0.1277 0.626 0.69513 0.0
H874 H 0.03758 0.62151 0.74038 0.0
C875 C 0.95469 0.63168 0.86587 0.0
C876 C 1.02218 0.64964 0.79121 0.0
C877 C 0.94434 0.631 0.90288 0.0
C878 C 0.1105 0.63101 0.64228 0.0
C879 C 0.10025 0.63165 0.6793 0.0
C880 C 0.03391 0.62945 0.75413 0.0
C881 C 1.00082 0.63937 0.84957 0.0
C882 C 1.0147 0.63952 0.81013 0.0
C883 C 0.05499 0.63942 0.69569 0.0
C884 C 0.0412 0.63955 0.73513 0.0
H885 H 0.05267 0.65139 0.92452 0.0
H886 H 0.07107 0.65257 0.85965 0.0
H887 H 1.01616 0.62149 0.80475 0.0
H888 H 1.00432 0.65171 0.62087 0.0
H889 H 0.98616 0.65282 0.68574 0.0
C890 C 0.95104 0.38767 0.64685 0.0
C891 C 1.00608 0.38469 0.62336 0.0
C892 C 0.95877 0.38906 0.68318 0.0
C893 C 0.08024 0.38205 0.75072 0.0
H894 H 0.95804 0.39978 0.81265 0.0
C895 C 0.10891 0.3888 0.90139 0.0
C896 C 0.05477 0.38409 0.92236 0.0
C897 C 0.10477 0.39043 0.86485 0.0
C898 C 0.99274 0.39486 0.79552 0.0
H899 H 0.11292 0.38163 0.61846 0.0
H900 H 0.12779 0.38487 0.68076 0.0
H901 H 0.94896 0.40012 0.74855 0.0
H902 H 0.95295 0.37792 0.92226 0.0
H903 H 0.94492 0.38117 0.85875 0.0
H904 H 0.12489 0.3771 0.79795 0.0
C905 C 0.07769 0.38549 0.6722 0.0
C906 C 0.98721 0.39493 0.75875 0.0
C907 C 0.06946 0.38375 0.63626 0.0
C908 C 0.99554 0.38151 0.90659 0.0
C909 C 0.99077 0.38342 0.87037 0.0
C910 C 0.08676 0.38222 0.78728 0.0
C911 C 1.0222 0.38781 0.69658 0.0
C912 C 0.03028 0.38839 0.73572 0.0
C913 C 0.04571 0.38769 0.84904 0.0
C914 C 0.04254 0.38849 0.81005 0.0
H915 H 0.90155 0.38839 0.63745 0.0
H916 H 0.91441 0.3907 0.70078 0.0
H917 H 0.11341 0.37663 0.7345 0.0
H918 H 0.15512 0.39085 0.91296 0.0
H919 H 0.14781 0.39373 0.84885 0.0
C920 C 0.53124 0.88713 0.13737 0.0
C921 C 0.57539 0.89512 0.12118 0.0
C922 C 0.52083 0.88648 0.1745 0.0
C923 C 0.53364 0.8836 0.25464 0.0
H924 H 0.51609 0.91177 0.30515 0.0
C925 C 0.52478 0.88729 0.40883 0.0
C926 C 0.48072 0.89524 0.4251 0.0
C927 C 0.53454 0.8866 0.37169 0.0
C928 C 0.52034 0.90382 0.2915 0.0
H929 H 0.64503 0.90841 0.13108 0.0
H930 H 0.62723 0.90726 0.19563 0.0
H931 H 0.53728 0.91175 0.24078 0.0
H932 H 0.41053 0.90842 0.41537 0.0
H933 H 0.42718 0.90721 0.35077 0.0
H934 H 0.51593 0.8757 0.3056 0.0
C935 C 0.59974 0.90161 0.1798 0.0
C936 C 0.53333 0.90381 0.25456 0.0
C937 C 0.61026 0.90223 0.14278 0.0
C938 C 0.44525 0.90227 0.40359 0.0
C939 C 0.4551 0.90161 0.36655 0.0
C940 C 0.52097 0.88361 0.29174 0.0
C941 C 0.55421 0.89383 0.19617 0.0
C942 C 0.54026 0.89371 0.23561 0.0
C943 C 0.50057 0.89388 0.35009 0.0
C944 C 0.51399 0.89373 0.31062 0.0
H945 H 0.50383 0.88152 0.12134 0.0
H946 H 0.48518 0.88043 0.18621 0.0
H947 H 0.5391 0.87568 0.24091 0.0
H948 H 0.55264 0.88173 0.42479 0.0
H949 H 0.57019 0.88059 0.35993 0.0
C950 C 0.55929 0.15121 0.13948 0.0
C951 C 0.49997 0.14864 0.12379 0.0
C952 C 0.56397 0.14942 0.17577 0.0
C953 C 0.46855 0.15114 0.25873 0.0
H954 H 0.60415 0.13296 0.29828 0.0
C955 C 0.48587 0.15015 0.40983 0.0
C956 C 0.5491 0.14902 0.42278 0.0
C957 C 0.47741 0.14834 0.37395 0.0
C958 C 0.56654 0.13823 0.28784 0.0
H959 H 0.39935 0.142 0.13341 0.0
H960 H 0.40649 0.13934 0.19763 0.0
H961 H 0.59501 0.13305 0.23418 0.0
H962 H 0.6531 0.1449 0.40883 0.0
H963 H 0.63992 0.14244 0.34559 0.0
H964 H 0.4427 0.15705 0.31122 0.0
C965 C 0.44968 0.14253 0.18152 0.0
C966 C 0.56095 0.13815 0.25108 0.0
C967 C 0.44563 0.14404 0.14491 0.0
C968 C 0.60373 0.14578 0.39939 0.0
C969 C 0.5958 0.14431 0.36312 0.0
C970 C 0.47516 0.15145 0.29527 0.0
C971 C 0.50883 0.14527 0.19724 0.0
C972 C 0.51192 0.14462 0.23625 0.0
C973 C 0.53255 0.14573 0.34967 0.0
C974 C 0.52434 0.14501 0.31056 0.0
H975 H 0.60202 0.15471 0.1237 0.0
H976 H 0.60989 0.15166 0.18733 0.0
H977 H 0.43106 0.15634 0.24781 0.0
H978 H 0.4427 0.15247 0.42755 0.0
H979 H 0.42739 0.14911 0.36537 0.0
C980 C 0.52396 0.14576 0.90867 0.0
C981 C 0.4793 0.13782 0.92476 0.0
C982 C 0.53417 0.14648 0.87154 0.0
C983 C 0.52006 0.12935 0.79123 0.0
H984 H 0.53983 0.15752 0.74062 0.0
C985 C 0.53096 0.14607 0.63711 0.0
C986 C 0.57487 0.13809 0.6209 0.0
C987 C 0.52084 0.14673 0.67426 0.0
C988 C 0.53411 0.14959 0.75436 0.0
H989 H 0.40852 0.12472 0.91471 0.0
H990 H 0.42598 0.126 0.85016 0.0
H991 H 0.5165 0.15747 0.80532 0.0
H992 H 0.64438 0.12481 0.63074 0.0
H993 H 0.62701 0.12596 0.69531 0.0
H994 H 0.53689 0.12145 0.74052 0.0
C995 C 0.45401 0.13155 0.86606 0.0
C996 C 0.52134 0.14956 0.79146 0.0
C997 C 0.4437 0.13086 0.90307 0.0
C998 C 0.6098 0.13099 0.64247 0.0
C999 C 0.59954 0.13161 0.67949 0.0
C1000 C 0.53317 0.12938 0.75429 0.0
C1001 C 0.50007 0.13926 0.84978 0.0
C1002 C 0.51392 0.13943 0.81034 0.0
C1003 C 0.55424 0.13938 0.6959 0.0
C1004 C 0.54042 0.13949 0.73534 0.0
H1005 H 0.55192 0.15126 0.92476 0.0
H1006 H 0.57025 0.15247 0.8599 0.0
H1007 H 0.51547 0.1214 0.80488 0.0
H1008 H 0.50353 0.15168 0.62111 0.0
H1009 H 0.48536 0.15277 0.68599 0.0
C1010 C 0.57033 0.88333 0.6361 0.0
C1011 C 0.50701 0.88434 0.62317 0.0
C1012 C 0.57861 0.8851 0.67202 0.0
C1013 C 0.48856 0.89481 0.75837 0.0
H1014 H 0.62534 0.87688 0.79797 0.0
C1015 C 0.49618 0.8816 0.90644 0.0
C1016 C 0.55542 0.88417 0.92221 0.0
C1017 C 0.49153 0.88345 0.87019 0.0
C1018 C 0.58748 0.88203 0.78718 0.0
H1019 H 0.40267 0.8882 0.63718 0.0
H1020 H 0.41559 0.89057 0.70048 0.0
H1021 H 0.61388 0.87631 0.73453 0.0
H1022 H 0.65594 0.89086 0.91277 0.0
H1023 H 0.64884 0.89364 0.8486 0.0
H1024 H 0.4596 0.8998 0.81216 0.0
C1025 C 0.45988 0.88884 0.68292 0.0
C1026 C 0.58097 0.88179 0.75062 0.0
C1027 C 0.4521 0.88741 0.64661 0.0
C1028 C 0.60971 0.88882 0.9012 0.0
C1029 C 0.60569 0.8904 0.86463 0.0
C1030 C 0.49407 0.89481 0.79514 0.0
C1031 C 0.52323 0.88753 0.69635 0.0
C1032 C 0.53132 0.88817 0.73548 0.0
C1033 C 0.54662 0.88767 0.84882 0.0
C1034 C 0.54355 0.8884 0.80981 0.0
H1035 H 0.61369 0.88113 0.61835 0.0
H1036 H 0.62867 0.88442 0.68061 0.0
H1037 H 0.45057 0.90003 0.74806 0.0
H1038 H 0.45348 0.87805 0.92214 0.0
H1039 H 0.44567 0.88122 0.85857 0.0
loop_
_geom_bond_atom_site_label_1
_geom_bond_atom_site_label_2
_geom_bond_distance
_geom_bond_site_symmetry_2
_ccdc_geom_bond_type
Ho0 C3 2.811 . S
Ho0 O20 2.322 1_455 S
Ho0 O22 2.378 . S
Ho0 O23 2.524 1_554 S
Ho0 O24 2.381 . S
Ho0 O25 2.669 . S
Ho0 O27 2.346 . S
Ho0 O31 2.305 1_554 S
Ho1 C12 2.811 . S
Ho1 O21 2.346 1_455 S
Ho1 O25 2.305 . S
Ho1 O26 2.325 . S
Ho1 O28 2.378 1_554 S
Ho1 O29 2.524 . S
Ho1 O30 2.381 1_554 S
Ho1 O31 2.669 1_554 S
C2 O20 1.259 . S
C2 O21 1.268 . S
C3 Ho0 2.811 . S
C3 C4 1.488 1_455 S
C3 O22 1.215 . S
C3 O23 1.289 1_554 S
C4 C3 1.488 1_655 S
C4 C5 1.348 1_554 S
C4 C9 1.413 . S
C5 C4 1.348 1_556 S
C5 C6 1.442 . S
C5 H32 0.930 . S
C6 C5 1.442 . S
C6 C7 1.381 1_556 S
C6 H33 0.931 . S
C7 C6 1.381 1_554 S
C7 C8 1.321 . S
C8 C7 1.321 . S
C8 C9 1.403 . S
C8 H34 0.934 . S
C9 C4 1.413 . S
C9 C8 1.403 . S
C9 H35 0.930 . S
C10 O24 1.275 . S
C10 O25 1.256 . S
C11 O26 1.270 . S
C11 O27 1.268 . S
C12 Ho1 2.811 . S
C12 C13 1.488 . S
C12 O28 1.215 1_554 S
C12 O29 1.289 . S
C13 C12 1.488 . S
C13 C14 1.348 . S
C13 C18 1.413 1_554 S
C14 C13 1.348 . S
C14 C15 1.442 . S
C14 H36 0.930 . S
C15 C14 1.442 . S
C15 C16 1.381 . S
C15 H37 0.931 . S
C16 C15 1.381 . S
C16 C17 1.321 1_554 S
C17 C16 1.321 1_556 S
C17 C18 1.403 . S
C17 H38 0.934 . S
C18 C13 1.413 1_556 S
C18 C17 1.403 . S
C18 H39 0.930 . S
C19 O30 1.275 . S
C19 O31 1.256 . S
O20 Ho0 2.322 1_655 S
O20 C2 1.259 . S
O21 Ho1 2.346 1_655 S
O21 C2 1.268 . S
O22 Ho0 2.378 . S
O22 C3 1.215 . S
O23 Ho0 2.524 1_556 S
O23 C3 1.289 1_556 S
O24 Ho0 2.381 . S
O24 C10 1.275 . S
O25 Ho0 2.669 . S
O25 Ho1 2.305 . S
O25 C10 1.256 . S
O26 Ho1 2.325 . S
O26 C11 1.270 . S
O27 Ho0 2.346 . S
O27 C11 1.268 . S
O28 Ho1 2.378 1_556 S
O28 C12 1.215 1_556 S
O29 Ho1 2.524 . S
O29 C12 1.289 . S
O30 Ho1 2.381 1_556 S
O30 C19 1.275 . S
O31 Ho0 2.305 1_556 S
O31 Ho1 2.669 1_556 S
O31 C19 1.256 . S
H32 C5 0.930 . S
H33 C6 0.931 . S
H34 C8 0.934 . S
H35 C9 0.930 . S
H36 C14 0.930 . S
H37 C15 0.931 . S
H38 C17 0.934 . S
H39 C18 0.930 . S
Ho40 C43 2.811 . S
Ho40 O60 2.322 . S
Ho40 O62 2.378 . S
Ho40 O63 2.524 1_554 S
Ho40 O64 2.381 . S
Ho40 O65 2.669 . S
Ho40 O67 2.346 1_655 S
Ho40 O71 2.305 1_554 S
Ho41 C52 2.811 . S
Ho41 O61 2.346 . S
Ho41 O65 2.305 . S
Ho41 O66 2.322 1_655 S
Ho41 O68 2.378 1_554 S
Ho41 O69 2.524 . S
Ho41 O70 2.381 1_554 S
Ho41 O71 2.669 1_554 S
C42 O60 1.259 . S
C42 O61 1.268 . S
C43 Ho40 2.811 . S
C43 C44 1.488 . S
C43 O62 1.215 . S
C43 O63 1.289 1_554 S
C44 C43 1.488 . S
C44 C45 1.348 1_554 S
C44 C49 1.413 . S
C45 C44 1.348 1_556 S
C45 C46 1.442 . S
C45 H72 0.930 . S
C46 C45 1.442 . S
C46 C47 1.381 1_556 S
C46 H73 0.931 . S
C47 C46 1.381 1_554 S
C47 C48 1.321 . S
C48 C47 1.321 . S
C48 C49 1.403 . S
C48 H74 0.934 . S
C49 C44 1.413 . S
C49 C48 1.403 . S
C49 H75 0.930 . S
C50 O64 1.275 . S
C50 O65 1.256 . S
C51 O66 1.259 . S
C51 O67 1.268 . S
C52 Ho41 2.811 . S
C52 C53 1.488 1_655 S
C52 O68 1.215 1_554 S
C52 O69 1.289 . S
C53 C52 1.488 1_455 S
C53 C54 1.348 . S
C53 C58 1.413 1_554 S
C54 C53 1.348 . S
C54 C55 1.442 . S
C54 H76 0.930 . S
C55 C54 1.442 . S
C55 C56 1.381 . S
C55 H77 0.931 . S
C56 C55 1.381 . S
C56 C57 1.321 . S
C57 C56 1.321 . S
C57 C58 1.403 1_554 S
C57 H78 0.934 1_554 S
C58 C53 1.413 1_556 S
C58 C57 1.403 1_556 S
C58 H79 0.930 . S
C59 O70 1.275 . S
C59 O71 1.256 . S
O60 Ho40 2.322 . S
O60 C42 1.259 . S
O61 Ho41 2.346 . S
O61 C42 1.268 . S
O62 Ho40 2.378 . S
O62 C43 1.215 . S
O63 Ho40 2.524 1_556 S
O63 C43 1.289 1_556 S
O64 Ho40 2.381 . S
O64 C50 1.275 . S
O65 Ho40 2.669 . S
O65 Ho41 2.305 . S
O65 C50 1.256 . S
O66 Ho41 2.322 1_455 S
O66 C51 1.259 . S
O67 Ho40 2.346 1_455 S
O67 C51 1.268 . S
O68 Ho41 2.378 1_556 S
O68 C52 1.215 1_556 S
O69 Ho41 2.524 . S
O69 C52 1.289 . S
O70 Ho41 2.381 1_556 S
O70 C59 1.275 . S
O71 Ho40 2.305 1_556 S
O71 Ho41 2.669 1_556 S
O71 C59 1.256 . S
H72 C45 0.930 . S
H73 C46 0.931 . S
H74 C48 0.934 . S
H75 C49 0.930 . S
H76 C54 0.930 . S
H77 C55 0.931 . S
H78 C57 0.934 1_556 S
H79 C58 0.930 . S
Ho80 C83 2.811 . S
Ho80 O100 2.322 . S
Ho80 O102 2.378 . S
Ho80 O103 2.524 . S
Ho80 O104 2.381 . S
Ho80 O105 2.669 . S
Ho80 O107 2.346 1_455 S
Ho80 O111 2.305 . S
Ho81 C92 2.811 . S
Ho81 O101 2.346 . S
Ho81 O105 2.305 . S
Ho81 O106 2.322 1_455 S
Ho81 O108 2.378 . S
Ho81 O109 2.524 . S
Ho81 O110 2.381 . S
Ho81 O111 2.669 . S
C82 O100 1.259 . S
C82 O101 1.268 . S
C83 Ho80 2.811 . S
C83 C84 1.488 . S
C83 O102 1.215 . S
C83 O103 1.289 . S
C84 C83 1.488 . S
C84 C85 1.348 . S
C84 C89 1.413 . S
C85 C84 1.348 . S
C85 C86 1.442 . S
C85 H112 0.930 . S
C86 C85 1.442 . S
C86 C87 1.381 . S
C86 H113 0.931 . S
C87 C86 1.381 . S
C87 C88 1.321 . S
C88 C87 1.321 . S
C88 C89 1.403 . S
C88 H114 0.934 . S
C89 C84 1.413 . S
C89 C88 1.403 . S
C89 H115 0.930 . S
C90 O104 1.275 . S
C90 O105 1.256 . S
C91 O106 1.259 . S
C91 O107 1.268 . S
C92 Ho81 2.811 . S
C92 C93 1.488 1_455 S
C92 O108 1.215 . S
C92 O109 1.289 . S
C93 C92 1.488 1_655 S
C93 C94 1.348 . S
C93 C98 1.413 . S
C94 C93 1.348 . S
C94 C95 1.442 . S
C94 H116 0.930 . S
C95 C94 1.442 . S
C95 C96 1.381 . S
C95 H117 0.931 . S
C96 C95 1.381 . S
C96 C97 1.321 . S
C97 C96 1.321 . S
C97 C98 1.403 . S
C97 H118 0.934 . S
C98 C93 1.413 . S
C98 C97 1.403 . S
C98 H119 0.930 . S
C99 O110 1.275 . S
C99 O111 1.256 . S
O100 Ho80 2.322 . S
O100 C82 1.259 . S
O101 Ho81 2.346 . S
O101 C82 1.268 . S
O102 Ho80 2.378 . S
O102 C83 1.215 . S
O103 Ho80 2.524 . S
O103 C83 1.289 . S
O104 Ho80 2.381 . S
O104 C90 1.275 . S
O105 Ho80 2.669 . S
O105 Ho81 2.305 . S
O105 C90 1.256 . S
O106 Ho81 2.322 1_655 S
O106 C91 1.259 . S
O107 Ho80 2.346 1_655 S
O107 C91 1.268 . S
O108 Ho81 2.378 . S
O108 C92 1.215 . S
O109 Ho81 2.524 . S
O109 C92 1.289 . S
O110 Ho81 2.381 . S
O110 C99 1.275 . S
O111 Ho80 2.305 . S
O111 Ho81 2.669 . S
O111 C99 1.256 . S
H112 C85 0.930 . S
H113 C86 0.931 . S
H114 C88 0.934 . S
H115 C89 0.930 . S
H116 C94 0.930 . S
H117 C95 0.931 . S
H118 C97 0.934 . S
H119 C98 0.930 . S
Ho120 C123 2.811 . S
Ho120 O140 2.322 1_655 S
Ho120 O142 2.378 . S
Ho120 O143 2.524 . S
Ho120 O144 2.381 . S
Ho120 O145 2.669 . S
Ho120 O147 2.346 . S
Ho120 O151 2.305 . S
Ho121 C132 2.811 . S
Ho121 O141 2.346 1_655 S
Ho121 O145 2.305 . S
Ho121 O146 2.322 . S
Ho121 O148 2.378 . S
Ho121 O149 2.524 . S
Ho121 O150 2.381 . S
Ho121 O151 2.669 . S
C122 O140 1.259 . S
C122 O141 1.268 . S
C123 Ho120 2.811 . S
C123 C124 1.488 1_655 S
C123 O142 1.215 . S
C123 O143 1.289 . S
C124 C123 1.488 1_455 S
C124 C125 1.348 . S
C124 C129 1.413 . S
C125 C124 1.348 . S
C125 C126 1.442 . S
C125 H152 0.930 . S
C126 C125 1.442 . S
C126 C127 1.381 . S
C126 H153 0.931 . S
C127 C126 1.381 . S
C127 C128 1.321 . S
C128 C127 1.321 . S
C128 C129 1.403 . S
C128 H154 0.934 . S
C129 C124 1.413 . S
C129 C128 1.403 . S
C129 H155 0.930 . S
C130 O144 1.275 . S
C130 O145 1.256 . S
C131 O146 1.259 . S
C131 O147 1.268 . S
C132 Ho121 2.811 . S
C132 C133 1.488 . S
C132 O148 1.215 . S
C132 O149 1.289 . S
C133 C132 1.488 . S
C133 C134 1.348 . S
C133 C138 1.413 . S
C134 C133 1.348 . S
C134 C135 1.442 . S
C134 H156 0.930 . S
C135 C134 1.442 . S
C135 C136 1.381 . S
C135 H157 0.931 . S
C136 C135 1.381 . S
C136 C137 1.321 . S
C137 C136 1.321 . S
C137 C138 1.403 . S
C137 H158 0.934 . S
C138 C133 1.413 . S
C138 C137 1.403 . S
C138 H159 0.930 . S
C139 O150 1.275 . S
C139 O151 1.256 . S
O140 Ho120 2.322 1_455 S
O140 C122 1.259 . S
O141 Ho121 2.346 1_455 S
O141 C122 1.268 . S
O142 Ho120 2.378 . S
O142 C123 1.215 . S
O143 Ho120 2.524 . S
O143 C123 1.289 . S
O144 Ho120 2.381 . S
O144 C130 1.275 . S
O145 Ho120 2.669 . S
O145 Ho121 2.305 . S
O145 C130 1.256 . S
O146 Ho121 2.322 . S
O146 C131 1.259 . S
O147 Ho120 2.346 . S
O147 C131 1.268 . S
O148 Ho121 2.378 . S
O148 C132 1.215 . S
O149 Ho121 2.524 . S
O149 C132 1.289 . S
O150 Ho121 2.381 . S
O150 C139 1.275 . S
O151 Ho120 2.305 . S
O151 Ho121 2.669 . S
O151 C139 1.256 . S
H152 C125 0.930 . S
H153 C126 0.931 . S
H154 C128 0.934 . S
H155 C129 0.930 . S
H156 C134 0.930 . S
H157 C135 0.931 . S
H158 C137 0.934 . S
H159 C138 0.930 . S
Ho160 C163 2.811 . S
Ho160 O180 2.322 . S
Ho160 O182 2.378 . S
Ho160 O183 2.524 1_554 S
Ho160 O184 2.381 . S
Ho160 O185 2.669 . S
Ho160 O187 2.346 . S
Ho160 O191 2.305 1_554 S
Ho161 C172 2.811 . S
Ho161 O181 2.346 . S
Ho161 O185 2.305 . S
Ho161 O186 2.324 . S
Ho161 O188 2.378 1_554 S
Ho161 O189 2.524 . S
Ho161 O190 2.381 1_554 S
Ho161 O191 2.669 1_554 S
C162 O180 1.259 . S
C162 O181 1.268 . S
C163 Ho160 2.811 . S
C163 C164 1.488 . S
C163 O182 1.215 . S
C163 O183 1.289 1_554 S
C164 C163 1.488 . S
C164 C165 1.348 1_554 S
C164 C169 1.413 . S
C165 C164 1.348 1_556 S
C165 C166 1.442 . S
C165 H192 0.930 . S
C166 C165 1.442 . S
C166 C167 1.381 1_556 S
C166 H193 0.931 . S
C167 C166 1.381 1_554 S
C167 C168 1.321 . S
C168 C167 1.321 . S
C168 C169 1.403 . S
C168 H194 0.934 . S
C169 C164 1.413 . S
C169 C168 1.403 . S
C169 H195 0.930 . S
C170 O184 1.275 . S
C170 O185 1.256 . S
C171 O186 1.269 . S
C171 O187 1.268 . S
C172 Ho161 2.811 . S
C172 C173 1.488 . S
C172 O188 1.215 1_554 S
C172 O189 1.289 . S
C173 C172 1.488 . S
C173 C174 1.348 . S
C173 C178 1.413 1_554 S
C174 C173 1.348 . S
C174 C175 1.442 . S
C174 H196 0.930 . S
C175 C174 1.442 . S
C175 C176 1.381 . S
C175 H197 0.931 . S
C176 C175 1.381 . S
C176 C177 1.321 1_554 S
C177 C176 1.321 1_556 S
C177 C178 1.403 . S
C177 H198 0.934 . S
C178 C173 1.413 1_556 S
C178 C177 1.403 . S
C178 H199 0.930 . S
C179 O190 1.275 . S
C179 O191 1.256 . S
O180 Ho160 2.322 . S
O180 C162 1.259 . S
O181 Ho161 2.346 . S
O181 C162 1.268 . S
O182 Ho160 2.378 . S
O182 C163 1.215 . S
O183 Ho160 2.524 1_556 S
O183 C163 1.289 1_556 S
O184 Ho160 2.381 . S
O184 C170 1.275 . S
O185 Ho160 2.669 . S
O185 Ho161 2.305 . S
O185 C170 1.256 . S
O186 Ho161 2.324 . S
O186 C171 1.269 . S
O187 Ho160 2.346 . S
O187 C171 1.268 . S
O188 Ho161 2.378 1_556 S
O188 C172 1.215 1_556 S
O189 Ho161 2.524 . S
O189 C172 1.289 . S
O190 Ho161 2.381 1_556 S
O190 C179 1.275 . S
O191 Ho160 2.305 1_556 S
O191 Ho161 2.669 1_556 S
O191 C179 1.256 . S
H192 C165 0.930 . S
H193 C166 0.931 . S
H194 C168 0.934 . S
H195 C169 0.930 . S
H196 C174 0.930 . S
H197 C175 0.931 . S
H198 C177 0.934 . S
H199 C178 0.930 . S
Ho200 C203 2.811 . S
Ho200 O220 2.322 . S
Ho200 O222 2.378 . S
Ho200 O223 2.524 1_554 S
Ho200 O224 2.381 . S
Ho200 O225 2.669 . S
Ho200 O227 2.346 . S
Ho200 O231 2.305 1_554 S
Ho201 C212 2.811 . S
Ho201 O221 2.346 . S
Ho201 O225 2.305 . S
Ho201 O226 2.322 . S
Ho201 O228 2.378 1_554 S
Ho201 O229 2.524 . S
Ho201 O230 2.381 1_554 S
Ho201 O231 2.669 1_554 S
C202 O220 1.259 . S
C202 O221 1.268 . S
C203 Ho200 2.811 . S
C203 C204 1.488 . S
C203 O222 1.215 . S
C203 O223 1.289 1_554 S
C204 C203 1.488 . S
C204 C205 1.348 1_554 S
C204 C209 1.413 . S
C205 C204 1.348 1_556 S
C205 C206 1.442 . S
C205 H232 0.930 . S
C206 C205 1.442 . S
C206 C207 1.381 1_556 S
C206 H233 0.931 . S
C207 C206 1.381 1_554 S
C207 C208 1.321 . S
C208 C207 1.321 . S
C208 C209 1.403 . S
C208 H234 0.934 . S
C209 C204 1.413 . S
C209 C208 1.403 . S
C209 H235 0.930 . S
C210 O224 1.275 . S
C210 O225 1.256 . S
C211 O226 1.259 . S
C211 O227 1.268 . S
C212 Ho201 2.811 . S
C212 C213 1.488 . S
C212 O228 1.215 1_554 S
C212 O229 1.289 . S
C213 C212 1.488 . S
C213 C214 1.348 . S
C213 C218 1.413 1_554 S
C214 C213 1.348 . S
C214 C215 1.442 . S
C214 H236 0.930 . S
C215 C214 1.442 . S
C215 C216 1.381 . S
C215 H237 0.931 . S
C216 C215 1.381 . S
C216 C217 1.324 . S
C217 C216 1.324 . S
C217 C218 1.403 1_554 S
C217 H238 0.932 1_554 S
C218 C213 1.413 1_556 S
C218 C217 1.403 1_556 S
C218 H239 0.930 . S
C219 O230 1.275 . S
C219 O231 1.256 . S
O220 Ho200 2.322 . S
O220 C202 1.259 . S
O221 Ho201 2.346 . S
O221 C202 1.268 . S
O222 Ho200 2.378 . S
O222 C203 1.215 . S
O223 Ho200 2.524 1_556 S
O223 C203 1.289 1_556 S
O224 Ho200 2.381 . S
O224 C210 1.275 . S
O225 Ho200 2.669 . S
O225 Ho201 2.305 . S
O225 C210 1.256 . S
O226 Ho201 2.322 . S
O226 C211 1.259 . S
O227 Ho200 2.346 . S
O227 C211 1.268 . S
O228 Ho201 2.378 1_556 S
O228 C212 1.215 1_556 S
O229 Ho201 2.524 . S
O229 C212 1.289 . S
O230 Ho201 2.381 1_556 S
O230 C219 1.275 . S
O231 Ho200 2.305 1_556 S
O231 Ho201 2.669 1_556 S
O231 C219 1.256 . S
H232 C205 0.930 . S
H233 C206 0.931 . S
H234 C208 0.934 . S
H235 C209 0.930 . S
H236 C214 0.930 . S
H237 C215 0.931 . S
H238 C217 0.932 1_556 S
H239 C218 0.930 . S
Ho240 C243 2.811 . S
Ho240 O260 2.322 . S
Ho240 O262 2.378 . S
Ho240 O263 2.524 . S
Ho240 O264 2.381 . S
Ho240 O265 2.669 . S
Ho240 O267 2.346 . S
Ho240 O271 2.305 . S
Ho241 C252 2.811 . S
Ho241 O261 2.346 . S
Ho241 O265 2.305 . S
Ho241 O266 2.322 . S
Ho241 O268 2.378 . S
Ho241 O269 2.524 . S
Ho241 O270 2.381 . S
Ho241 O271 2.669 . S
C242 O260 1.259 . S
C242 O261 1.268 . S
C243 Ho240 2.811 . S
C243 C244 1.488 . S
C243 O262 1.215 . S
C243 O263 1.289 . S
C244 C243 1.488 . S
C244 C245 1.348 . S
C244 C249 1.413 . S
C245 C244 1.348 . S
C245 C246 1.442 . S
C245 H272 0.930 . S
C246 C245 1.442 . S
C246 C247 1.381 . S
C246 H273 0.931 . S
C247 C246 1.381 . S
C247 C248 1.321 . S
C248 C247 1.321 . S
C248 C249 1.403 . S
C248 H274 0.934 . S
C249 C244 1.413 . S
C249 C248 1.403 . S
C249 H275 0.930 . S
C250 O264 1.275 . S
C250 O265 1.256 . S
C251 O266 1.259 . S
C251 O267 1.268 . S
C252 Ho241 2.811 . S
C252 C253 1.488 . S
C252 O268 1.215 . S
C252 O269 1.289 . S
C253 C252 1.488 . S
C253 C254 1.348 . S
C253 C258 1.413 . S
C254 C253 1.348 . S
C254 C255 1.442 . S
C254 H276 0.930 . S
C255 C254 1.442 . S
C255 C256 1.381 . S
C255 H277 0.931 . S
C256 C255 1.381 . S
C256 C257 1.321 . S
C257 C256 1.321 . S
C257 C258 1.403 . S
C257 H278 0.934 . S
C258 C253 1.413 . S
C258 C257 1.403 . S
C258 H279 0.930 . S
C259 O270 1.275 . S
C259 O271 1.256 . S
O260 Ho240 2.322 . S
O260 C242 1.259 . S
O261 Ho241 2.346 . S
O261 C242 1.268 . S
O262 Ho240 2.378 . S
O262 C243 1.215 . S
O263 Ho240 2.524 . S
O263 C243 1.289 . S
O264 Ho240 2.381 . S
O264 C250 1.275 . S
O265 Ho240 2.669 . S
O265 Ho241 2.305 . S
O265 C250 1.256 . S
O266 Ho241 2.322 . S
O266 C251 1.259 . S
O267 Ho240 2.346 . S
O267 C251 1.268 . S
O268 Ho241 2.378 . S
O268 C252 1.215 . S
O269 Ho241 2.524 . S
O269 C252 1.289 . S
O270 Ho241 2.381 . S
O270 C259 1.275 . S
O271 Ho240 2.305 . S
O271 Ho241 2.669 . S
O271 C259 1.256 . S
H272 C245 0.930 . S
H273 C246 0.931 . S
H274 C248 0.934 . S
H275 C249 0.930 . S
H276 C254 0.930 . S
H277 C255 0.931 . S
H278 C257 0.934 . S
H279 C258 0.930 . S
Ho280 C283 2.811 . S
Ho280 O300 2.322 . S
Ho280 O302 2.378 . S
Ho280 O303 2.524 . S
Ho280 O304 2.381 . S
Ho280 O305 2.669 . S
Ho280 O307 2.346 . S
Ho280 O311 2.305 . S
Ho281 C292 2.811 . S
Ho281 O301 2.346 . S
Ho281 O305 2.305 . S
Ho281 O306 2.322 . S
Ho281 O308 2.378 . S
Ho281 O309 2.524 . S
Ho281 O310 2.381 . S
Ho281 O311 2.669 . S
C282 O300 1.259 . S
C282 O301 1.268 . S
C283 Ho280 2.811 . S
C283 C284 1.488 . S
C283 O302 1.215 . S
C283 O303 1.289 . S
C284 C283 1.488 . S
C284 C285 1.348 . S
C284 C289 1.413 . S
C285 C284 1.348 . S
C285 C286 1.442 . S
C285 H312 0.930 . S
C286 C285 1.442 . S
C286 C287 1.381 . S
C286 H313 0.931 . S
C287 C286 1.381 . S
C287 C288 1.321 . S
C288 C287 1.321 . S
C288 C289 1.403 . S
C288 H314 0.934 . S
C289 C284 1.413 . S
C289 C288 1.403 . S
C289 H315 0.930 . S
C290 O304 1.275 . S
C290 O305 1.256 . S
C291 O306 1.259 . S
C291 O307 1.268 . S
C292 Ho281 2.811 . S
C292 C293 1.488 . S
C292 O308 1.215 . S
C292 O309 1.289 . S
C293 C292 1.488 . S
C293 C294 1.348 . S
C293 C298 1.413 . S
C294 C293 1.348 . S
C294 C295 1.442 . S
C294 H316 0.930 . S
C295 C294 1.442 . S
C295 C296 1.381 . S
C295 H317 0.931 . S
C296 C295 1.381 . S
C296 C297 1.321 . S
C297 C296 1.321 . S
C297 C298 1.403 . S
C297 H318 0.934 . S
C298 C293 1.413 . S
C298 C297 1.403 . S
C298 H319 0.930 . S
C299 O310 1.275 . S
C299 O311 1.256 . S
O300 Ho280 2.322 . S
O300 C282 1.259 . S
O301 Ho281 2.346 . S
O301 C282 1.268 . S
O302 Ho280 2.378 . S
O302 C283 1.215 . S
O303 Ho280 2.524 . S
O303 C283 1.289 . S
O304 Ho280 2.381 . S
O304 C290 1.275 . S
O305 Ho280 2.669 . S
O305 Ho281 2.305 . S
O305 C290 1.256 . S
O306 Ho281 2.322 . S
O306 C291 1.259 . S
O307 Ho280 2.346 . S
O307 C291 1.268 . S
O308 Ho281 2.378 . S
O308 C292 1.215 . S
O309 Ho281 2.524 . S
O309 C292 1.289 . S
O310 Ho281 2.381 . S
O310 C299 1.275 . S
O311 Ho280 2.305 . S
O311 Ho281 2.669 . S
O311 C299 1.256 . S
H312 C285 0.930 . S
H313 C286 0.931 . S
H314 C288 0.934 . S
H315 C289 0.930 . S
H316 C294 0.930 . S
H317 C295 0.931 . S
H318 C297 0.934 . S
H319 C298 0.930 . S
C320 C321 1.349 1_556 S
C320 C322 1.327 . S
C320 H345 0.950 . S
C321 C320 1.349 1_554 S
C321 C337 1.349 . S
C322 C320 1.327 . S
C322 C341 1.429 1_556 S
C322 H346 0.950 . S
C323 C340 1.574 . S
C323 C342 1.368 . S
C323 H347 0.949 . S
H324 C328 0.949 . S
C325 C326 1.349 . S
C325 C327 1.327 . S
C325 H348 0.950 . S
C326 C325 1.349 . S
C326 C338 1.349 1_554 S
C327 C325 1.327 . S
C327 C343 1.429 . S
C327 H349 0.950 . S
C328 H324 0.949 . S
C328 C336 1.574 . S
C328 C344 1.368 1_556 S
H329 C337 0.950 . S
H330 C335 0.950 . S
H331 C336 0.949 . S
H332 C338 0.950 . S
H333 C339 0.950 . S
H334 C340 0.949 . S
C335 H330 0.950 . S
C335 C337 1.327 . S
C335 C341 1.429 . S
C336 C328 1.574 . S
C336 H331 0.949 . S
C336 C342 1.368 1_556 S
C337 C321 1.349 . S
C337 H329 0.950 . S
C337 C335 1.327 . S
C338 C326 1.349 1_556 S
C338 H332 0.950 . S
C338 C339 1.327 . S
C339 H333 0.950 . S
C339 C338 1.327 . S
C339 C343 1.429 1_556 S
C340 C323 1.574 . S
C340 H334 0.949 . S
C340 C344 1.368 . S
C341 C322 1.429 1_554 S
C341 C335 1.429 . S
C341 C342 1.523 . S
C342 C323 1.368 . S
C342 C336 1.368 1_554 S
C342 C341 1.523 . S
C343 C327 1.429 . S
C343 C339 1.429 1_554 S
C343 C344 1.523 . S
C344 C328 1.368 1_554 S
C344 C340 1.368 . S
C344 C343 1.523 . S
H345 C320 0.950 . S
H346 C322 0.950 . S
H347 C323 0.949 . S
H348 C325 0.950 . S
H349 C327 0.950 . S
C350 C351 1.349 . S
C350 C352 1.327 . S
C350 H375 0.950 1_554 S
C351 C350 1.349 . S
C351 C367 1.349 . S
C352 C350 1.327 . S
C352 C371 1.429 . S
C352 H376 0.950 1_554 S
C353 C370 1.574 . S
C353 C372 1.368 . S
C353 H377 0.949 . S
H354 C358 0.949 1_556 S
C355 C356 1.349 . S
C355 C357 1.327 . S
C355 H378 0.950 . S
C356 C355 1.349 . S
C356 C368 1.349 . S
C357 C355 1.327 . S
C357 C373 1.429 . S
C357 H379 0.950 . S
C358 H354 0.949 1_554 S
C358 C366 1.574 . S
C358 C374 1.368 . S
H359 C367 0.950 . S
H360 C365 0.950 . S
H361 C366 0.949 1_556 S
H362 C368 0.940 1_556 S
H363 C369 0.950 1_556 S
H364 C370 0.949 . S
C365 H360 0.950 . S
C365 C367 1.327 . S
C365 C371 1.429 . S
C366 C358 1.574 . S
C366 H361 0.949 1_554 S
C366 C372 1.368 . S
C367 C351 1.349 . S
C367 H359 0.950 . S
C367 C365 1.327 . S
C368 C356 1.349 . S
C368 H362 0.940 1_554 S
C368 C369 1.327 . S
C369 H363 0.950 1_554 S
C369 C368 1.327 . S
C369 C373 1.429 . S
C370 C353 1.574 . S
C370 H364 0.949 . S
C370 C374 1.368 . S
C371 C352 1.429 . S
C371 C365 1.429 . S
C371 C372 1.523 . S
C372 C353 1.368 . S
C372 C366 1.368 . S
C372 C371 1.523 . S
C373 C357 1.429 . S
C373 C369 1.429 . S
C373 C374 1.523 . S
C374 C358 1.368 . S
C374 C370 1.368 . S
C374 C373 1.523 . S
H375 C350 0.950 1_556 S
H376 C352 0.950 1_556 S
H377 C353 0.949 . S
H378 C355 0.950 . S
H379 C357 0.950 . S
C380 C381 1.349 . S
C380 C382 1.327 . S
C380 H405 0.950 . S
C381 C380 1.349 . S
C381 C397 1.349 . S
C382 C380 1.327 . S
C382 C401 1.429 . S
C382 H406 0.950 . S
C383 C400 1.574 . S
C383 C402 1.368 . S
C383 H407 0.949 . S
H384 C388 0.949 . S
C385 C386 1.349 . S
C385 C387 1.327 . S
C385 H408 0.950 . S
C386 C385 1.349 . S
C386 C398 1.349 . S
C387 C385 1.327 . S
C387 C403 1.429 . S
C387 H409 0.950 . S
C388 H384 0.949 . S
C388 C396 1.574 . S
C388 C404 1.368 . S
H389 C397 0.950 . S
H390 C395 0.950 . S
H391 C396 0.949 . S
H392 C398 0.950 . S
H393 C399 0.950 . S
H394 C400 0.949 . S
C395 H390 0.950 . S
C395 C397 1.327 . S
C395 C401 1.429 . S
C396 C388 1.574 . S
C396 H391 0.949 . S
C396 C402 1.368 . S
C397 C381 1.349 . S
C397 H389 0.950 . S
C397 C395 1.327 . S
C398 C386 1.349 . S
C398 H392 0.950 . S
C398 C399 1.327 . S
C399 H393 0.950 . S
C399 C398 1.327 . S
C399 C403 1.429 . S
C400 C383 1.574 . S
C400 H394 0.949 . S
C400 C404 1.368 . S
C401 C382 1.429 . S
C401 C395 1.429 . S
C401 C402 1.523 . S
C402 C383 1.368 . S
C402 C396 1.368 . S
C402 C401 1.523 . S
C403 C387 1.429 . S
C403 C399 1.429 . S
C403 C404 1.523 . S
C404 C388 1.368 . S
C404 C400 1.368 . S
C404 C403 1.523 . S
H405 C380 0.950 . S
H406 C382 0.950 . S
H407 C383 0.949 . S
H408 C385 0.950 . S
H409 C387 0.950 . S
C410 C411 1.349 . S
C410 C412 1.327 . S
C410 H435 0.950 . S
C411 C410 1.349 . S
C411 C427 1.349 . S
C412 C410 1.327 . S
C412 C431 1.429 . S
C412 H436 0.950 . S
C413 C430 1.574 . S
C413 C432 1.368 . S
C413 H437 0.949 . S
H414 C418 0.949 . S
C415 C416 1.349 . S
C415 C417 1.327 . S
C415 H438 0.950 . S
C416 C415 1.349 . S
C416 C428 1.349 . S
C417 C415 1.327 . S
C417 C433 1.429 . S
C417 H439 0.950 . S
C418 H414 0.949 . S
C418 C426 1.574 . S
C418 C434 1.368 . S
H419 C427 0.950 . S
H420 C425 0.950 . S
H421 C426 0.949 . S
H422 C428 0.950 . S
H423 C429 0.950 . S
H424 C430 0.949 . S
C425 H420 0.950 . S
C425 C427 1.327 . S
C425 C431 1.429 . S
C426 C418 1.574 . S
C426 H421 0.949 . S
C426 C432 1.368 . S
C427 C411 1.349 . S
C427 H419 0.950 . S
C427 C425 1.327 . S
C428 C416 1.349 . S
C428 H422 0.950 . S
C428 C429 1.327 . S
C429 H423 0.950 . S
C429 C428 1.327 . S
C429 C433 1.429 . S
C430 C413 1.574 . S
C430 H424 0.949 . S
C430 C434 1.368 . S
C431 C412 1.429 . S
C431 C425 1.429 . S
C431 C432 1.523 . S
C432 C413 1.368 . S
C432 C426 1.368 . S
C432 C431 1.523 . S
C433 C417 1.429 . S
C433 C429 1.429 . S
C433 C434 1.523 . S
C434 C418 1.368 . S
C434 C430 1.368 . S
C434 C433 1.523 . S
H435 C410 0.950 . S
H436 C412 0.950 . S
H437 C413 0.949 . S
H438 C415 0.950 . S
H439 C417 0.950 . S
C440 C441 1.349 . S
C440 C442 1.327 . S
C440 H465 0.950 . S
C441 C440 1.349 . S
C441 C457 1.349 . S
C442 C440 1.327 . S
C442 C461 1.429 . S
C442 H466 0.950 . S
C443 C460 1.574 . S
C443 C462 1.361 1_455 S
C443 H467 0.949 1_554 S
H444 C448 0.949 . S
C445 C446 1.349 . S
C445 C447 1.327 . S
C445 H468 0.943 1_554 S
C446 C445 1.349 . S
C446 C458 1.349 . S
C447 C445 1.327 . S
C447 C463 1.429 . S
C447 H469 0.950 1_554 S
C448 H444 0.949 . S
C448 C456 1.574 . S
C448 C464 1.368 . S
H449 C457 0.950 1_556 S
H450 C455 0.950 1_556 S
H451 C456 0.949 1_655 S
H452 C458 0.950 . S
H453 C459 0.950 . S
H454 C460 0.949 1_556 S
C455 H450 0.950 1_554 S
C455 C457 1.327 . S
C455 C461 1.429 . S
C456 C448 1.574 . S
C456 H451 0.949 1_455 S
C456 C462 1.364 1_455 S
C457 C441 1.349 . S
C457 H449 0.950 1_554 S
C457 C455 1.327 . S
C458 C446 1.349 . S
C458 H452 0.950 . S
C458 C459 1.327 . S
C459 H453 0.950 . S
C459 C458 1.327 . S
C459 C463 1.429 . S
C460 C443 1.574 . S
C460 H454 0.949 1_554 S
C460 C464 1.368 . S
C461 C442 1.429 . S
C461 C455 1.429 . S
C461 C462 1.539 . S
C462 C443 1.361 1_655 S
C462 C456 1.364 1_655 S
C462 C461 1.539 . S
C463 C447 1.429 . S
C463 C459 1.429 . S
C463 C464 1.523 . S
C464 C448 1.368 . S
C464 C460 1.368 . S
C464 C463 1.523 . S
H465 C440 0.950 . S
H466 C442 0.950 . S
H467 C443 0.949 1_556 S
H468 C445 0.943 1_556 S
H469 C447 0.950 1_556 S
C470 C471 1.349 . S
C470 C472 1.327 . S
C470 H495 0.950 1_554 S
C471 C470 1.349 . S
C471 C487 1.349 . S
C472 C470 1.327 . S
C472 C491 1.429 . S
C472 H496 0.950 1_554 S
C473 C490 1.574 . S
C473 C492 1.361 1_655 S
C473 H497 0.949 . S
H474 C478 0.934 1_556 S
C475 C476 1.349 . S
C475 C477 1.327 . S
C475 H498 0.950 . S
C476 C475 1.349 . S
C476 C488 1.349 . S
C477 C475 1.327 . S
C477 C493 1.429 . S
C477 H499 0.950 . S
C478 H474 0.934 1_554 S
C478 C486 1.577 . S
C478 C494 1.382 . S
H479 C487 0.950 . S
H480 C485 0.950 . S
H481 C486 0.949 1_456 S
H482 C488 0.950 1_556 S
H483 C489 0.950 1_556 S
H484 C490 0.949 . S
C485 H480 0.950 . S
C485 C487 1.327 . S
C485 C491 1.429 . S
C486 C478 1.577 . S
C486 H481 0.949 1_654 S
C486 C492 1.364 1_655 S
C487 C471 1.349 . S
C487 H479 0.950 . S
C487 C485 1.327 . S
C488 C476 1.349 . S
C488 H482 0.950 1_554 S
C488 C489 1.327 . S
C489 H483 0.950 1_554 S
C489 C488 1.327 . S
C489 C493 1.429 . S
C490 C473 1.574 . S
C490 H484 0.949 . S
C490 C494 1.368 . S
C491 C472 1.429 . S
C491 C485 1.429 . S
C491 C492 1.538 . S
C492 C473 1.361 1_455 S
C492 C486 1.364 1_455 S
C492 C491 1.538 . S
C493 C477 1.429 . S
C493 C489 1.429 . S
C493 C494 1.523 . S
C494 C478 1.382 . S
C494 C490 1.368 . S
C494 C493 1.523 . S
H495 C470 0.950 1_556 S
H496 C472 0.950 1_556 S
H497 C473 0.949 . S
H498 C475 0.950 . S
H499 C477 0.950 . S
C500 C501 1.349 . S
C500 C502 1.327 . S
C500 H525 0.950 . S
C501 C500 1.349 . S
C501 C517 1.349 . S
C502 C500 1.327 . S
C502 C521 1.429 . S
C502 H526 0.950 . S
C503 C520 1.574 . S
C503 C522 1.368 . S
C503 H527 0.949 . S
H504 C508 0.949 1_655 S
C505 C506 1.349 . S
C505 C507 1.327 . S
C505 H528 0.950 . S
C506 C505 1.349 . S
C506 C518 1.349 . S
C507 C505 1.327 . S
C507 C523 1.429 . S
C507 H529 0.950 . S
C508 H504 0.949 1_455 S
C508 C516 1.574 . S
C508 C524 1.363 1_455 S
H509 C517 0.950 . S
H510 C515 0.950 . S
H511 C516 0.949 . S
H512 C518 0.950 . S
H513 C519 0.950 . S
H514 C520 0.949 . S
C515 H510 0.950 . S
C515 C517 1.327 . S
C515 C521 1.429 . S
C516 C508 1.574 . S
C516 H511 0.949 . S
C516 C522 1.368 . S
C517 C501 1.349 . S
C517 H509 0.950 . S
C517 C515 1.327 . S
C518 C506 1.349 . S
C518 H512 0.950 . S
C518 C519 1.327 . S
C519 H513 0.950 . S
C519 C518 1.327 . S
C519 C523 1.429 . S
C520 C503 1.574 . S
C520 H514 0.949 . S
C520 C524 1.360 1_455 S
C521 C502 1.429 . S
C521 C515 1.429 . S
C521 C522 1.523 . S
C522 C503 1.368 . S
C522 C516 1.368 . S
C522 C521 1.523 . S
C523 C507 1.429 . S
C523 C519 1.429 . S
C523 C524 1.541 . S
C524 C508 1.363 1_655 S
C524 C520 1.360 1_655 S
C524 C523 1.541 . S
H525 C500 0.950 . S
H526 C502 0.950 . S
H527 C503 0.949 . S
H528 C505 0.950 . S
H529 C507 0.950 . S
C530 C531 1.349 . S
C530 C532 1.327 . S
C530 H555 0.950 . S
C531 C530 1.349 . S
C531 C547 1.349 . S
C532 C530 1.327 . S
C532 C551 1.429 . S
C532 H556 0.950 . S
C533 C550 1.574 . S
C533 C552 1.368 . S
C533 H557 0.949 . S
H534 C538 0.949 . S
C535 C536 1.349 . S
C535 C537 1.327 . S
C535 H558 0.950 . S
C536 C535 1.349 . S
C536 C548 1.349 . S
C537 C535 1.327 . S
C537 C553 1.429 . S
C537 H559 0.950 . S
C538 H534 0.949 . S
C538 C546 1.574 . S
C538 C554 1.361 1_655 S
H539 C547 0.950 . S
H540 C545 0.950 . S
H541 C546 0.949 . S
H542 C548 0.950 . S
H543 C549 0.950 . S
H544 C550 0.949 1_455 S
C545 H540 0.950 . S
C545 C547 1.327 . S
C545 C551 1.429 . S
C546 C538 1.574 . S
C546 H541 0.949 . S
C546 C552 1.368 . S
C547 C531 1.349 . S
C547 H539 0.950 . S
C547 C545 1.327 . S
C548 C536 1.349 . S
C548 H542 0.950 . S
C548 C549 1.327 . S
C549 H543 0.950 . S
C549 C548 1.327 . S
C549 C553 1.429 . S
C550 C533 1.574 . S
C550 H544 0.949 1_655 S
C550 C554 1.362 1_655 S
C551 C532 1.429 . S
C551 C545 1.429 . S
C551 C552 1.523 . S
C552 C533 1.368 . S
C552 C546 1.368 . S
C552 C551 1.523 . S
C553 C537 1.429 . S
C553 C549 1.429 . S
C553 C554 1.541 . S
C554 C538 1.361 1_455 S
C554 C550 1.362 1_455 S
C554 C553 1.541 . S
H555 C530 0.950 . S
H556 C532 0.950 . S
H557 C533 0.949 . S
H558 C535 0.950 . S
H559 C537 0.950 . S
C560 C561 1.349 . S
C560 C562 1.327 . S
C560 H585 0.950 . S
C561 C560 1.349 . S
C561 C577 1.349 1_554 S
C562 C560 1.327 . S
C562 C581 1.429 . S
C562 H586 0.950 1_455 S
C563 C580 1.574 . S
C563 C582 1.368 1_556 S
C563 H587 0.949 . S
H564 C568 0.949 . S
C565 C566 1.349 1_556 S
C565 C567 1.327 . S
C565 H588 0.950 . S
C566 C565 1.349 1_554 S
C566 C578 1.349 . S
C567 C565 1.327 . S
C567 C583 1.429 1_556 S
C567 H589 0.950 1_655 S
C568 H564 0.949 . S
C568 C576 1.574 . S
C568 C584 1.368 . S
H569 C577 0.950 . S
H570 C575 0.950 . S
H571 C576 0.949 . S
H572 C578 0.950 . S
H573 C579 0.950 . S
H574 C580 0.949 . S
C575 H570 0.950 . S
C575 C577 1.327 . S
C575 C581 1.429 1_556 S
C576 C568 1.574 . S
C576 H571 0.949 . S
C576 C582 1.368 1_655 S
C577 C561 1.349 1_556 S
C577 H569 0.950 . S
C577 C575 1.327 . S
C578 C566 1.349 . S
C578 H572 0.950 . S
C578 C579 1.327 . S
C579 H573 0.950 . S
C579 C578 1.327 . S
C579 C583 1.429 . S
C580 C563 1.574 . S
C580 H574 0.949 . S
C580 C584 1.368 1_456 S
C581 C562 1.429 . S
C581 C575 1.429 1_554 S
C581 C582 1.523 . S
C582 C563 1.368 1_554 S
C582 C576 1.368 1_455 S
C582 C581 1.523 . S
C583 C567 1.429 1_554 S
C583 C579 1.429 . S
C583 C584 1.523 . S
C584 C568 1.368 . S
C584 C580 1.368 1_654 S
C584 C583 1.523 . S
H585 C560 0.950 . S
H586 C562 0.950 1_655 S
H587 C563 0.949 . S
H588 C565 0.950 . S
H589 C567 0.950 1_455 S
C590 C591 1.349 . S
C590 C592 1.327 . S
C590 H615 0.950 . S
C591 C590 1.349 . S
C591 C607 1.349 . S
C592 C590 1.327 . S
C592 C611 1.429 . S
C592 H616 0.950 1_455 S
C593 C610 1.574 . S
C593 C612 1.368 . S
C593 H617 0.949 . S
H594 C598 0.949 . S
C595 C596 1.349 . S
C595 C597 1.327 . S
C595 H618 0.950 . S
C596 C595 1.349 . S
C596 C608 1.349 . S
C597 C595 1.327 . S
C597 C613 1.429 . S
C597 H619 0.950 1_655 S
C598 H594 0.949 . S
C598 C606 1.574 . S
C598 C614 1.368 . S
H599 C607 0.950 . S
H600 C605 0.950 . S
H601 C606 0.949 . S
H602 C608 0.950 . S
H603 C609 0.950 . S
H604 C610 0.949 . S
C605 H600 0.950 . S
C605 C607 1.327 . S
C605 C611 1.429 . S
C606 C598 1.574 . S
C606 H601 0.949 . S
C606 C612 1.368 1_655 S
C607 C591 1.349 . S
C607 H599 0.950 . S
C607 C605 1.327 . S
C608 C596 1.349 . S
C608 H602 0.950 . S
C608 C609 1.327 . S
C609 H603 0.950 . S
C609 C608 1.327 . S
C609 C613 1.429 . S
C610 C593 1.574 . S
C610 H604 0.949 . S
C610 C614 1.368 1_455 S
C611 C592 1.429 . S
C611 C605 1.429 . S
C611 C612 1.523 . S
C612 C593 1.368 . S
C612 C606 1.368 1_455 S
C612 C611 1.523 . S
C613 C597 1.429 . S
C613 C609 1.429 . S
C613 C614 1.523 . S
C614 C598 1.368 . S
C614 C610 1.368 1_655 S
C614 C613 1.523 . S
H615 C590 0.950 . S
H616 C592 0.950 1_655 S
H617 C593 0.949 . S
H618 C595 0.950 . S
H619 C597 0.950 1_455 S
C620 C621 1.349 . S
C620 C622 1.327 . S
C620 H645 0.950 . S
C621 C620 1.349 . S
C621 C637 1.349 1_554 S
C622 C620 1.327 . S
C622 C641 1.429 . S
C622 H646 0.950 . S
C623 C640 1.574 1_565 S
C623 C642 1.368 1_556 S
C623 H647 0.949 . S
H624 C628 0.949 . S
C625 C626 1.349 . S
C625 C627 1.327 1_554 S
C625 H648 0.950 1_554 S
C626 C625 1.349 . S
C626 C638 1.349 . S
C627 C625 1.327 1_556 S
C627 C643 1.429 1_556 S
C627 H649 0.950 . S
C628 H624 0.949 . S
C628 C636 1.574 1_545 S
C628 C644 1.368 . S
H629 C637 0.950 . S
H630 C635 0.950 . S
H631 C636 0.949 . S
H632 C638 0.950 . S
H633 C639 0.950 . S
H634 C640 0.949 . S
C635 H630 0.950 . S
C635 C637 1.327 . S
C635 C641 1.429 1_556 S
C636 C628 1.574 1_565 S
C636 H631 0.949 . S
C636 C642 1.368 . S
C637 C621 1.349 1_556 S
C637 H629 0.950 . S
C637 C635 1.327 . S
C638 C626 1.349 . S
C638 H632 0.950 . S
C638 C639 1.327 . S
C639 H633 0.950 . S
C639 C638 1.327 . S
C639 C643 1.429 . S
C640 C623 1.574 1_545 S
C640 H634 0.949 . S
C640 C644 1.368 1_556 S
C641 C622 1.429 . S
C641 C635 1.429 1_554 S
C641 C642 1.523 . S
C642 C623 1.368 1_554 S
C642 C636 1.368 . S
C642 C641 1.523 . S
C643 C627 1.429 1_554 S
C643 C639 1.429 . S
C643 C644 1.523 . S
C644 C628 1.368 . S
C644 C640 1.368 1_554 S
C644 C643 1.523 . S
H645 C620 0.950 . S
H646 C622 0.950 . S
H647 C623 0.949 . S
H648 C625 0.950 1_556 S
H649 C627 0.950 . S
C650 C651 1.349 . S
C650 C652 1.327 . S
C650 H675 0.950 . S
C651 C650 1.349 . S
C651 C667 1.349 . S
C652 C650 1.327 . S
C652 C671 1.429 . S
C652 H676 0.950 . S
C653 C670 1.574 1_545 S
C653 C672 1.368 . S
C653 H677 0.949 . S
H654 C658 0.949 . S
C655 C656 1.349 . S
C655 C657 1.327 . S
C655 H678 0.950 . S
C656 C655 1.349 . S
C656 C668 1.349 . S
C657 C655 1.327 . S
C657 C673 1.429 . S
C657 H679 0.950 . S
C658 H654 0.949 . S
C658 C666 1.574 1_565 S
C658 C674 1.368 . S
H659 C667 0.950 . S
H660 C665 0.950 . S
H661 C666 0.949 . S
H662 C668 0.950 . S
H663 C669 0.950 . S
H664 C670 0.949 . S
C665 H660 0.950 . S
C665 C667 1.327 . S
C665 C671 1.429 . S
C666 C658 1.574 1_545 S
C666 H661 0.949 . S
C666 C672 1.368 . S
C667 C651 1.349 . S
C667 H659 0.950 . S
C667 C665 1.327 . S
C668 C656 1.349 . S
C668 H662 0.950 . S
C668 C669 1.327 . S
C669 H663 0.950 . S
C669 C668 1.327 . S
C669 C673 1.429 . S
C670 C653 1.574 1_565 S
C670 H664 0.949 . S
C670 C674 1.368 . S
C671 C652 1.429 . S
C671 C665 1.429 . S
C671 C672 1.523 . S
C672 C653 1.368 . S
C672 C666 1.368 . S
C672 C671 1.523 . S
C673 C657 1.429 . S
C673 C669 1.429 . S
C673 C674 1.523 . S
C674 C658 1.368 . S
C674 C670 1.368 . S
C674 C673 1.523 . S
H675 C650 0.950 . S
H676 C652 0.950 . S
H677 C653 0.949 . S
H678 C655 0.950 . S
H679 C657 0.950 . S
C680 C681 1.349 . S
C680 C682 1.327 . S
C680 H705 0.950 . S
C681 C680 1.349 . S
C681 C697 1.349 1_554 S
C682 C680 1.327 . S
C682 C701 1.429 . S
C682 H706 0.950 . S
C683 C700 1.574 . S
C683 C702 1.368 1_556 S
C683 H707 0.949 . S
H684 C688 0.949 . S
C685 C686 1.349 1_556 S
C685 C687 1.327 . S
C685 H708 0.950 . S
C686 C685 1.349 1_554 S
C686 C698 1.349 . S
C687 C685 1.327 . S
C687 C703 1.429 1_556 S
C687 H709 0.950 . S
C688 H684 0.949 . S
C688 C696 1.574 . S
C688 C704 1.368 . S
H689 C697 0.950 . S
H690 C695 0.950 . S
H691 C696 0.949 . S
H692 C698 0.950 . S
H693 C699 0.950 . S
H694 C700 0.949 . S
C695 H690 0.950 . S
C695 C697 1.327 . S
C695 C701 1.429 1_556 S
C696 C688 1.574 . S
C696 H691 0.949 . S
C696 C702 1.368 . S
C697 C681 1.349 1_556 S
C697 H689 0.950 . S
C697 C695 1.327 . S
C698 C686 1.349 . S
C698 H692 0.950 . S
C698 C699 1.327 . S
C699 H693 0.950 . S
C699 C698 1.327 . S
C699 C703 1.429 . S
C700 C683 1.574 . S
C700 H694 0.949 . S
C700 C704 1.368 1_556 S
C701 C682 1.429 . S
C701 C695 1.429 1_554 S
C701 C702 1.523 . S
C702 C683 1.368 1_554 S
C702 C696 1.368 . S
C702 C701 1.523 . S
C703 C687 1.429 1_554 S
C703 C699 1.429 . S
C703 C704 1.523 . S
C704 C688 1.368 . S
C704 C700 1.368 1_554 S
C704 C703 1.523 . S
H705 C680 0.950 . S
H706 C682 0.950 . S
H707 C683 0.949 . S
H708 C685 0.950 . S
H709 C687 0.950 . S
C710 C711 1.349 1_556 S
C710 C712 1.327 . S
C710 H735 0.950 . S
C711 C710 1.349 1_554 S
C711 C727 1.349 . S
C712 C710 1.327 . S
C712 C731 1.429 1_556 S
C712 H736 0.950 . S
C713 C730 1.574 . S
C713 C732 1.368 . S
C713 H737 0.949 . S
H714 C718 0.949 . S
C715 C716 1.349 . S
C715 C717 1.327 . S
C715 H738 0.950 . S
C716 C715 1.349 . S
C716 C728 1.349 1_554 S
C717 C715 1.327 . S
C717 C733 1.429 . S
C717 H739 0.950 . S
C718 H714 0.949 . S
C718 C726 1.574 . S
C718 C734 1.368 1_556 S
H719 C727 0.950 . S
H720 C725 0.950 . S
H721 C726 0.949 . S
H722 C728 0.950 . S
H723 C729 0.950 . S
H724 C730 0.949 . S
C725 H720 0.950 . S
C725 C727 1.327 . S
C725 C731 1.429 . S
C726 C718 1.574 . S
C726 H721 0.949 . S
C726 C732 1.368 1_556 S
C727 C711 1.349 . S
C727 H719 0.950 . S
C727 C725 1.327 . S
C728 C716 1.349 1_556 S
C728 H722 0.950 . S
C728 C729 1.327 . S
C729 H723 0.950 . S
C729 C728 1.327 . S
C729 C733 1.429 1_556 S
C730 C713 1.574 . S
C730 H724 0.949 . S
C730 C734 1.368 . S
C731 C712 1.429 1_554 S
C731 C725 1.429 . S
C731 C732 1.523 . S
C732 C713 1.368 . S
C732 C726 1.368 1_554 S
C732 C731 1.523 . S
C733 C717 1.429 . S
C733 C729 1.429 1_554 S
C733 C734 1.523 . S
C734 C718 1.368 1_554 S
C734 C730 1.368 . S
C734 C733 1.523 . S
H735 C710 0.950 . S
H736 C712 0.950 . S
H737 C713 0.949 . S
H738 C715 0.950 . S
H739 C717 0.950 . S
C740 C741 1.349 . S
C740 C742 1.327 . S
C740 H765 0.950 . S
C741 C740 1.349 . S
C741 C757 1.349 . S
C742 C740 1.327 . S
C742 C761 1.429 . S
C742 H766 0.950 . S
C743 C760 1.574 . S
C743 C762 1.368 . S
C743 H767 0.949 . S
H744 C748 0.949 . S
C745 C746 1.349 . S
C745 C747 1.327 . S
C745 H768 0.950 . S
C746 C745 1.349 . S
C746 C758 1.349 . S
C747 C745 1.327 . S
C747 C763 1.429 . S
C747 H769 0.950 . S
C748 H744 0.949 . S
C748 C756 1.574 . S
C748 C764 1.368 . S
H749 C757 0.950 . S
H750 C755 0.950 . S
H751 C756 0.949 . S
H752 C758 0.950 . S
H753 C759 0.950 . S
H754 C760 0.949 . S
C755 H750 0.950 . S
C755 C757 1.327 . S
C755 C761 1.429 . S
C756 C748 1.574 . S
C756 H751 0.949 . S
C756 C762 1.368 . S
C757 C741 1.349 . S
C757 H749 0.950 . S
C757 C755 1.327 . S
C758 C746 1.349 . S
C758 H752 0.950 . S
C758 C759 1.327 . S
C759 H753 0.950 . S
C759 C758 1.327 . S
C759 C763 1.429 . S
C760 C743 1.574 . S
C760 H754 0.949 . S
C760 C764 1.368 . S
C761 C742 1.429 . S
C761 C755 1.429 . S
C761 C762 1.523 . S
C762 C743 1.368 . S
C762 C756 1.368 . S
C762 C761 1.523 . S
C763 C747 1.429 . S
C763 C759 1.429 . S
C763 C764 1.523 . S
C764 C748 1.368 . S
C764 C760 1.368 . S
C764 C763 1.523 . S
H765 C740 0.950 . S
H766 C742 0.950 . S
H767 C743 0.949 . S
H768 C745 0.950 . S
H769 C747 0.950 . S
C770 C771 1.349 . S
C770 C772 1.327 . S
C770 H795 0.950 . S
C771 C770 1.349 . S
C771 C787 1.349 . S
C772 C770 1.327 . S
C772 C791 1.429 . S
C772 H796 0.950 . S
C773 C790 1.574 . S
C773 C792 1.368 . S
C773 H797 0.949 . S
H774 C778 0.949 . S
C775 C776 1.349 . S
C775 C777 1.327 . S
C775 H798 0.950 . S
C776 C775 1.349 . S
C776 C788 1.349 . S
C777 C775 1.327 . S
C777 C793 1.429 . S
C777 H799 0.950 . S
C778 H774 0.949 . S
C778 C786 1.574 . S
C778 C794 1.368 . S
H779 C787 0.950 . S
H780 C785 0.950 . S
H781 C786 0.949 . S
H782 C788 0.950 . S
H783 C789 0.950 . S
H784 C790 0.949 . S
C785 H780 0.950 . S
C785 C787 1.327 . S
C785 C791 1.429 . S
C786 C778 1.574 . S
C786 H781 0.949 . S
C786 C792 1.368 . S
C787 C771 1.349 . S
C787 H779 0.950 . S
C787 C785 1.327 . S
C788 C776 1.349 . S
C788 H782 0.950 . S
C788 C789 1.327 . S
C789 H783 0.950 . S
C789 C788 1.327 . S
C789 C793 1.429 . S
C790 C773 1.574 . S
C790 H784 0.949 . S
C790 C794 1.368 . S
C791 C772 1.429 . S
C791 C785 1.429 . S
C791 C792 1.523 . S
C792 C773 1.368 . S
C792 C786 1.368 . S
C792 C791 1.523 . S
C793 C777 1.429 . S
C793 C789 1.429 . S
C793 C794 1.523 . S
C794 C778 1.368 . S
C794 C790 1.368 . S
C794 C793 1.523 . S
H795 C770 0.950 . S
H796 C772 0.950 . S
H797 C773 0.949 . S
H798 C775 0.950 . S
H799 C777 0.950 . S
C800 C801 1.349 . S
C800 C802 1.327 . S
C800 H825 0.950 . S
C801 C800 1.349 . S
C801 C817 1.349 . S
C802 C800 1.327 . S
C802 C821 1.429 . S
C802 H826 0.950 . S
C803 C820 1.574 . S
C803 C822 1.368 1_655 S
C803 H827 0.949 . S
H804 C808 0.949 . S
C805 C806 1.349 . S
C805 C807 1.327 . S
C805 H828 0.950 . S
C806 C805 1.349 . S
C806 C818 1.349 . S
C807 C805 1.327 . S
C807 C823 1.429 . S
C807 H829 0.950 . S
C808 H804 0.949 . S
C808 C816 1.574 . S
C808 C824 1.368 1_455 S
H809 C817 0.950 1_655 S
H810 C815 0.950 1_655 S
H811 C816 0.949 . S
H812 C818 0.950 1_455 S
H813 C819 0.950 1_455 S
H814 C820 0.949 . S
C815 H810 0.950 1_455 S
C815 C817 1.327 . S
C815 C821 1.429 . S
C816 C808 1.574 . S
C816 H811 0.949 . S
C816 C822 1.368 . S
C817 C801 1.349 . S
C817 H809 0.950 1_455 S
C817 C815 1.327 . S
C818 C806 1.349 . S
C818 H812 0.950 1_655 S
C818 C819 1.327 . S
C819 H813 0.950 1_655 S
C819 C818 1.327 . S
C819 C823 1.429 . S
C820 C803 1.574 . S
C820 H814 0.949 . S
C820 C824 1.368 . S
C821 C802 1.429 . S
C821 C815 1.429 . S
C821 C822 1.523 . S
C822 C803 1.368 1_455 S
C822 C816 1.368 . S
C822 C821 1.523 . S
C823 C807 1.429 . S
C823 C819 1.429 . S
C823 C824 1.523 . S
C824 C808 1.368 1_655 S
C824 C820 1.368 . S
C824 C823 1.523 . S
H825 C800 0.950 . S
H826 C802 0.950 . S
H827 C803 0.949 . S
H828 C805 0.950 . S
H829 C807 0.950 . S
C830 C831 1.349 . S
C830 C832 1.327 . S
C830 H855 0.950 1_655 S
C831 C830 1.349 . S
C831 C847 1.349 . S
C832 C830 1.327 . S
C832 C851 1.429 . S
C832 H856 0.950 1_655 S
C833 C850 1.574 . S
C833 C852 1.368 . S
C833 H857 0.949 . S
H834 C838 0.949 . S
C835 C836 1.349 . S
C835 C837 1.327 . S
C835 H858 0.950 1_455 S
C836 C835 1.349 . S
C836 C848 1.349 . S
C837 C835 1.327 . S
C837 C853 1.429 . S
C837 H859 0.950 1_455 S
C838 H834 0.949 . S
C838 C846 1.574 . S
C838 C854 1.368 . S
H839 C847 0.950 . S
H840 C845 0.950 . S
H841 C846 0.949 . S
H842 C848 0.950 . S
H843 C849 0.950 . S
H844 C850 0.949 . S
C845 H840 0.950 . S
C845 C847 1.327 . S
C845 C851 1.429 . S
C846 C838 1.574 . S
C846 H841 0.949 . S
C846 C852 1.368 1_455 S
C847 C831 1.349 . S
C847 H839 0.950 . S
C847 C845 1.327 . S
C848 C836 1.349 . S
C848 H842 0.950 . S
C848 C849 1.327 . S
C849 H843 0.950 . S
C849 C848 1.327 . S
C849 C853 1.429 . S
C850 C833 1.574 . S
C850 H844 0.949 . S
C850 C854 1.368 1_655 S
C851 C832 1.429 . S
C851 C845 1.429 . S
C851 C852 1.523 . S
C852 C833 1.368 . S
C852 C846 1.368 1_655 S
C852 C851 1.523 . S
C853 C837 1.429 . S
C853 C849 1.429 . S
C853 C854 1.523 . S
C854 C838 1.368 . S
C854 C850 1.368 1_455 S
C854 C853 1.523 . S
H855 C830 0.950 1_455 S
H856 C832 0.950 1_455 S
H857 C833 0.949 . S
H858 C835 0.950 1_655 S
H859 C837 0.950 1_655 S
C860 C861 1.349 . S
C860 C862 1.327 . S
C860 H885 0.950 1_655 S
C861 C860 1.349 . S
C861 C877 1.349 . S
C862 C860 1.327 . S
C862 C881 1.429 . S
C862 H886 0.950 1_655 S
C863 C880 1.574 . S
C863 C882 1.368 . S
C863 H887 0.949 . S
H864 C868 0.949 . S
C865 C866 1.349 . S
C865 C867 1.327 . S
C865 H888 0.950 1_455 S
C866 C865 1.349 . S
C866 C878 1.349 . S
C867 C865 1.327 . S
C867 C883 1.429 . S
C867 H889 0.950 1_455 S
C868 H864 0.949 . S
C868 C876 1.574 . S
C868 C884 1.368 . S
H869 C877 0.950 . S
H870 C875 0.950 . S
H871 C876 0.949 . S
H872 C878 0.950 . S
H873 C879 0.950 . S
H874 C880 0.949 . S
C875 H870 0.950 . S
C875 C877 1.327 . S
C875 C881 1.429 . S
C876 C868 1.574 . S
C876 H871 0.949 . S
C876 C882 1.368 1_455 S
C877 C861 1.349 . S
C877 H869 0.950 . S
C877 C875 1.327 . S
C878 C866 1.349 . S
C878 H872 0.950 . S
C878 C879 1.327 . S
C879 H873 0.950 . S
C879 C878 1.327 . S
C879 C883 1.429 . S
C880 C863 1.574 . S
C880 H874 0.949 . S
C880 C884 1.368 1_655 S
C881 C862 1.429 . S
C881 C875 1.429 . S
C881 C882 1.523 . S
C882 C863 1.368 . S
C882 C876 1.368 1_655 S
C882 C881 1.523 . S
C883 C867 1.429 . S
C883 C879 1.429 . S
C883 C884 1.523 . S
C884 C868 1.368 . S
C884 C880 1.368 1_455 S
C884 C883 1.523 . S
H885 C860 0.950 1_455 S
H886 C862 0.950 1_455 S
H887 C863 0.949 . S
H888 C865 0.950 1_655 S
H889 C867 0.950 1_655 S
C890 C891 1.349 . S
C890 C892 1.327 . S
C890 H915 0.950 . S
C891 C890 1.349 . S
C891 C907 1.349 . S
C892 C890 1.327 . S
C892 C911 1.429 . S
C892 H916 0.950 . S
C893 C910 1.574 . S
C893 C912 1.368 1_455 S
C893 H917 0.949 . S
H894 C898 0.949 . S
C895 C896 1.349 . S
C895 C897 1.327 . S
C895 H918 0.950 . S
C896 C895 1.349 . S
C896 C908 1.349 . S
C897 C895 1.327 . S
C897 C913 1.429 . S
C897 H919 0.950 . S
C898 H894 0.949 . S
C898 C906 1.574 . S
C898 C914 1.368 1_655 S
H899 C907 0.950 1_455 S
H900 C905 0.950 1_455 S
H901 C906 0.949 . S
H902 C908 0.950 1_655 S
H903 C909 0.950 1_655 S
H904 C910 0.949 . S
C905 H900 0.950 1_655 S
C905 C907 1.327 . S
C905 C911 1.429 . S
C906 C898 1.574 . S
C906 H901 0.949 . S
C906 C912 1.368 . S
C907 C891 1.349 . S
C907 H899 0.950 1_655 S
C907 C905 1.327 . S
C908 C896 1.349 . S
C908 H902 0.950 1_455 S
C908 C909 1.327 . S
C909 H903 0.950 1_455 S
C909 C908 1.327 . S
C909 C913 1.429 . S
C910 C893 1.574 . S
C910 H904 0.949 . S
C910 C914 1.368 . S
C911 C892 1.429 . S
C911 C905 1.429 . S
C911 C912 1.523 . S
C912 C893 1.368 1_655 S
C912 C906 1.368 . S
C912 C911 1.523 . S
C913 C897 1.429 . S
C913 C909 1.429 . S
C913 C914 1.523 . S
C914 C898 1.368 1_455 S
C914 C910 1.368 . S
C914 C913 1.523 . S
H915 C890 0.950 . S
H916 C892 0.950 . S
H917 C893 0.949 . S
H918 C895 0.950 . S
H919 C897 0.950 . S
C920 C921 1.349 . S
C920 C922 1.327 . S
C920 H945 0.950 . S
C921 C920 1.349 . S
C921 C937 1.349 . S
C922 C920 1.327 . S
C922 C941 1.429 . S
C922 H946 0.950 . S
C923 C940 1.574 . S
C923 C942 1.368 . S
C923 H947 0.949 . S
H924 C928 0.949 . S
C925 C926 1.349 . S
C925 C927 1.327 . S
C925 H948 0.950 . S
C926 C925 1.349 . S
C926 C938 1.349 . S
C927 C925 1.327 . S
C927 C943 1.429 . S
C927 H949 0.950 . S
C928 H924 0.949 . S
C928 C936 1.574 . S
C928 C944 1.368 . S
H929 C937 0.950 . S
H930 C935 0.950 . S
H931 C936 0.949 . S
H932 C938 0.950 . S
H933 C939 0.950 . S
H934 C940 0.949 . S
C935 H930 0.950 . S
C935 C937 1.327 . S
C935 C941 1.429 . S
C936 C928 1.574 . S
C936 H931 0.949 . S
C936 C942 1.368 . S
C937 C921 1.349 . S
C937 H929 0.950 . S
C937 C935 1.327 . S
C938 C926 1.349 . S
C938 H932 0.950 . S
C938 C939 1.327 . S
C939 H933 0.950 . S
C939 C938 1.327 . S
C939 C943 1.429 . S
C940 C923 1.574 . S
C940 H934 0.949 . S
C940 C944 1.368 . S
C941 C922 1.429 . S
C941 C935 1.429 . S
C941 C942 1.523 . S
C942 C923 1.368 . S
C942 C936 1.368 . S
C942 C941 1.523 . S
C943 C927 1.429 . S
C943 C939 1.429 . S
C943 C944 1.523 . S
C944 C928 1.368 . S
C944 C940 1.368 . S
C944 C943 1.523 . S
H945 C920 0.950 . S
H946 C922 0.950 . S
H947 C923 0.949 . S
H948 C925 0.950 . S
H949 C927 0.950 . S
C950 C951 1.349 . S
C950 C952 1.327 . S
C950 H975 0.950 . S
C951 C950 1.349 . S
C951 C967 1.349 . S
C952 C950 1.327 . S
C952 C971 1.429 . S
C952 H976 0.950 . S
C953 C970 1.574 . S
C953 C972 1.368 . S
C953 H977 0.949 . S
H954 C958 0.949 . S
C955 C956 1.349 . S
C955 C957 1.327 . S
C955 H978 0.950 . S
C956 C955 1.349 . S
C956 C968 1.349 . S
C957 C955 1.327 . S
C957 C973 1.429 . S
C957 H979 0.950 . S
C958 H954 0.949 . S
C958 C966 1.574 . S
C958 C974 1.368 . S
H959 C967 0.950 . S
H960 C965 0.950 . S
H961 C966 0.949 . S
H962 C968 0.950 . S
H963 C969 0.950 . S
H964 C970 0.949 . S
C965 H960 0.950 . S
C965 C967 1.327 . S
C965 C971 1.429 . S
C966 C958 1.574 . S
C966 H961 0.949 . S
C966 C972 1.368 . S
C967 C951 1.349 . S
C967 H959 0.950 . S
C967 C965 1.327 . S
C968 C956 1.349 . S
C968 H962 0.950 . S
C968 C969 1.327 . S
C969 H963 0.950 . S
C969 C968 1.327 . S
C969 C973 1.429 . S
C970 C953 1.574 . S
C970 H964 0.949 . S
C970 C974 1.368 . S
C971 C952 1.429 . S
C971 C965 1.429 . S
C971 C972 1.523 . S
C972 C953 1.368 . S
C972 C966 1.368 . S
C972 C971 1.523 . S
C973 C957 1.429 . S
C973 C969 1.429 . S
C973 C974 1.523 . S
C974 C958 1.368 . S
C974 C970 1.368 . S
C974 C973 1.523 . S
H975 C950 0.950 . S
H976 C952 0.950 . S
H977 C953 0.949 . S
H978 C955 0.950 . S
H979 C957 0.950 . S
C980 C981 1.349 . S
C980 C982 1.327 . S
C980 H1005 0.950 . S
C981 C980 1.349 . S
C981 C997 1.349 . S
C982 C980 1.327 . S
C982 C1001 1.429 . S
C982 H1006 0.950 . S
C983 C1000 1.574 . S
C983 C1002 1.368 . S
C983 H1007 0.949 . S
H984 C988 0.949 . S
C985 C986 1.349 . S
C985 C987 1.327 . S
C985 H1008 0.950 . S
C986 C985 1.349 . S
C986 C998 1.349 . S
C987 C985 1.327 . S
C987 C1003 1.429 . S
C987 H1009 0.950 . S
C988 H984 0.949 . S
C988 C996 1.574 . S
C988 C1004 1.368 . S
H989 C997 0.950 . S
H990 C995 0.950 . S
H991 C996 0.949 . S
H992 C998 0.950 . S
H993 C999 0.950 . S
H994 C1000 0.949 . S
C995 H990 0.950 . S
C995 C997 1.327 . S
C995 C1001 1.429 . S
C996 C988 1.574 . S
C996 H991 0.949 . S
C996 C1002 1.368 . S
C997 C981 1.349 . S
C997 H989 0.950 . S
C997 C995 1.327 . S
C998 C986 1.349 . S
C998 H992 0.950 . S
C998 C999 1.327 . S
C999 H993 0.950 . S
C999 C998 1.327 . S
C999 C1003 1.429 . S
C1000 C983 1.574 . S
C1000 H994 0.949 . S
C1000 C1004 1.368 . S
C1001 C982 1.429 . S
C1001 C995 1.429 . S
C1001 C1002 1.523 . S
C1002 C983 1.368 . S
C1002 C996 1.368 . S
C1002 C1001 1.523 . S
C1003 C987 1.429 . S
C1003 C999 1.429 . S
C1003 C1004 1.523 . S
C1004 C988 1.368 . S
C1004 C1000 1.368 . S
C1004 C1003 1.523 . S
H1005 C980 0.950 . S
H1006 C982 0.950 . S
H1007 C983 0.949 . S
H1008 C985 0.950 . S
H1009 C987 0.950 . S
C1010 C1011 1.349 . S
C1010 C1012 1.327 . S
C1010 H1035 0.950 . S
C1011 C1010 1.349 . S
C1011 C1027 1.349 . S
C1012 C1010 1.327 . S
C1012 C1031 1.429 . S
C1012 H1036 0.950 . S
C1013 C1030 1.574 . S
C1013 C1032 1.368 . S
C1013 H1037 0.949 . S
H1014 C1018 0.949 . S
C1015 C1016 1.349 . S
C1015 C1017 1.327 . S
C1015 H1038 0.950 . S
C1016 C1015 1.349 . S
C1016 C1028 1.349 . S
C1017 C1015 1.327 . S
C1017 C1033 1.429 . S
C1017 H1039 0.950 . S
C1018 H1014 0.949 . S
C1018 C1026 1.574 . S
C1018 C1034 1.368 . S
H1019 C1027 0.950 . S
H1020 C1025 0.950 . S
H1021 C1026 0.949 . S
H1022 C1028 0.950 . S
H1023 C1029 0.950 . S
H1024 C1030 0.949 . S
C1025 H1020 0.950 . S
C1025 C1027 1.327 . S
C1025 C1031 1.429 . S
C1026 C1018 1.574 . S
C1026 H1021 0.949 . S
C1026 C1032 1.368 . S
C1027 C1011 1.349 . S
C1027 H1019 0.950 . S
C1027 C1025 1.327 . S
C1028 C1016 1.349 . S
C1028 H1022 0.950 . S
C1028 C1029 1.327 . S
C1029 H1023 0.950 . S
C1029 C1028 1.327 . S
C1029 C1033 1.429 . S
C1030 C1013 1.574 . S
C1030 H1024 0.949 . S
C1030 C1034 1.368 . S
C1031 C1012 1.429 . S
C1031 C1025 1.429 . S
C1031 C1032 1.523 . S
C1032 C1013 1.368 . S
C1032 C1026 1.368 . S
C1032 C1031 1.523 . S
C1033 C1017 1.429 . S
C1033 C1029 1.429 . S
C1033 C1034 1.523 . S
C1034 C1018 1.368 . S
C1034 C1030 1.368 . S
C1034 C1033 1.523 . S
H1035 C1010 0.950 . S
H1036 C1012 0.950 . S
H1037 C1013 0.949 . S
H1038 C1015 0.950 . S
H1039 C1017 0.950 . S
C321 C11 2.375 . S
C326 C2 2.375 . S
C351 C51 2.375 . S
C356 C42 2.375 . S
C381 C91 2.375 . S
C386 C82 2.375 . S
C411 C131 2.375 . S
C416 C122 2.375 . S
C441 C171 2.375 . S
C446 C162 2.375 . S
C471 C202 2.375 . S
C476 C211 2.375 . S
C501 C251 2.375 . S
C506 C242 2.375 . S
C531 C282 2.375 . S
C536 C291 2.375 . S
C561 C56 2.485 . S
C566 C7 2.485 . S
C591 C127 2.485 . S
C596 C96 2.485 . S
C621 C167 2.485 . S
C626 C216 2.485 . S
C651 C256 2.486 . S
C656 C287 2.486 . S
C681 C16 1.761 . S
C686 C207 1.761 . S
C711 C176 1.761 . S
C716 C47 1.761 . S
C741 C87 1.761 . S
C746 C296 1.761 . S
C771 C136 1.761 . S
C776 C247 1.761 . S
C801 C10 1.462 . S
C806 C130 1.462 . S
C831 C50 1.628 . S
C836 C90 1.628 . S
C861 C59 1.463 . S
C866 C99 1.463 . S
C891 C139 1.628 . S
C896 C19 1.629 . S
C921 C170 1.462 . S
C926 C290 1.462 . S
C951 C210 1.628 . S
C956 C250 1.628 . S
C981 C219 1.463 . S
C986 C259 1.463 . S
C1011 C299 1.628 . S
C1016 C179 1.628 . S
