# Generated by pormake.
# Topology vbr, (6)-cn, num edge types: 1
# Building blocks:
#     Node 0, Type 0, BuildingBlock: OJICUG_clean_sbu_0, # of connection points: 6
#     Node 1, Type 0, BuildingBlock: OJICUG_clean_sbu_0, # of connection points: 6
#     Node 2, Type 0, BuildingBlock: OJICUG_clean_sbu_0, # of connection points: 6
#     Node 3, Type 0, BuildingBlock: OJICUG_clean_sbu_0, # of connection points: 6
#     Node 4, Type 0, BuildingBlock: OJICUG_clean_sbu_0, # of connection points: 6
#     Node 5, Type 0, BuildingBlock: OJICUG_clean_sbu_0, # of connection points: 6
#     Node 6, Type 0, BuildingBlock: OJICUG_clean_sbu_0, # of connection points: 6
#     Node 7, Type 0, BuildingBlock: OJICUG_clean_sbu_0, # of connection points: 6
#     Node 8, Type 0, BuildingBlock: OJICUG_clean_sbu_0, # of connection points: 6
#     Node 9, Type 0, BuildingBlock: OJICUG_clean_sbu_0, # of connection points: 6
#     Node 10, Type 0, BuildingBlock: OJICUG_clean_sbu_0, # of connection points: 6
#     Node 11, Type 0, BuildingBlock: OJICUG_clean_sbu_0, # of connection points: 6
#     Node 12, Type 0, BuildingBlock: OJICUG_clean_sbu_0, # of connection points: 6
#     Node 13, Type 0, BuildingBlock: OJICUG_clean_sbu_0, # of connection points: 6
#     Node 14, Type 0, BuildingBlock: OJICUG_clean_sbu_0, # of connection points: 6
#     Node 15, Type 0, BuildingBlock: OJICUG_clean_sbu_0, # of connection points: 6
#     Edge 16, Type (0, 0), BuildingBlock: MIFKUJ_clean_linker_0, # of connection points: 2
#     Edge 17, Type (0, 0), BuildingBlock: MIFKUJ_clean_linker_0, # of connection points: 2
#     Edge 18, Type (0, 0), BuildingBlock: MIFKUJ_clean_linker_0, # of connection points: 2
#     Edge 19, Type (0, 0), BuildingBlock: MIFKUJ_clean_linker_0, # of connection points: 2
#     Edge 20, Type (0, 0), BuildingBlock: MIFKUJ_clean_linker_0, # of connection points: 2
#     Edge 21, Type (0, 0), BuildingBlock: MIFKUJ_clean_linker_0, # of connection points: 2
#     Edge 22, Type (0, 0), BuildingBlock: MIFKUJ_clean_linker_0, # of connection points: 2
#     Edge 23, Type (0, 0), BuildingBlock: MIFKUJ_clean_linker_0, # of connection points: 2
#     Edge 24, Type (0, 0), BuildingBlock: MIFKUJ_clean_linker_0, # of connection points: 2
#     Edge 25, Type (0, 0), BuildingBlock: MIFKUJ_clean_linker_0, # of connection points: 2
#     Edge 26, Type (0, 0), BuildingBlock: MIFKUJ_clean_linker_0, # of connection points: 2
#     Edge 27, Type (0, 0), BuildingBlock: MIFKUJ_clean_linker_0, # of connection points: 2
#     Edge 28, Type (0, 0), BuildingBlock: MIFKUJ_clean_linker_0, # of connection points: 2
#     Edge 29, Type (0, 0), BuildingBlock: MIFKUJ_clean_linker_0, # of connection points: 2
#     Edge 30, Type (0, 0), BuildingBlock: MIFKUJ_clean_linker_0, # of connection points: 2
#     Edge 31, Type (0, 0), BuildingBlock: MIFKUJ_clean_linker_0, # of connection points: 2
#     Edge 32, Type (0, 0), BuildingBlock: MIFKUJ_clean_linker_0, # of connection points: 2
#     Edge 33, Type (0, 0), BuildingBlock: MIFKUJ_clean_linker_0, # of connection points: 2
#     Edge 34, Type (0, 0), BuildingBlock: MIFKUJ_clean_linker_0, # of connection points: 2
#     Edge 35, Type (0, 0), BuildingBlock: MIFKUJ_clean_linker_0, # of connection points: 2
#     Edge 36, Type (0, 0), BuildingBlock: MIFKUJ_clean_linker_0, # of connection points: 2
#     Edge 37, Type (0, 0), BuildingBlock: MIFKUJ_clean_linker_0, # of connection points: 2
#     Edge 38, Type (0, 0), BuildingBlock: MIFKUJ_clean_linker_0, # of connection points: 2
#     Edge 39, Type (0, 0), BuildingBlock: MIFKUJ_clean_linker_0, # of connection points: 2
#     Edge 40, Type (0, 0), BuildingBlock: MIFKUJ_clean_linker_0, # of connection points: 2
#     Edge 41, Type (0, 0), BuildingBlock: MIFKUJ_clean_linker_0, # of connection points: 2
#     Edge 42, Type (0, 0), BuildingBlock: MIFKUJ_clean_linker_0, # of connection points: 2
#     Edge 43, Type (0, 0), BuildingBlock: MIFKUJ_clean_linker_0, # of connection points: 2
#     Edge 44, Type (0, 0), BuildingBlock: MIFKUJ_clean_linker_0, # of connection points: 2
#     Edge 45, Type (0, 0), BuildingBlock: MIFKUJ_clean_linker_0, # of connection points: 2
#     Edge 46, Type (0, 0), BuildingBlock: MIFKUJ_clean_linker_0, # of connection points: 2
#     Edge 47, Type (0, 0), BuildingBlock: MIFKUJ_clean_linker_0, # of connection points: 2
#     Edge 48, Type (0, 0), BuildingBlock: MIFKUJ_clean_linker_0, # of connection points: 2
#     Edge 49, Type (0, 0), BuildingBlock: MIFKUJ_clean_linker_0, # of connection points: 2
#     Edge 50, Type (0, 0), BuildingBlock: MIFKUJ_clean_linker_0, # of connection points: 2
#     Edge 51, Type (0, 0), BuildingBlock: MIFKUJ_clean_linker_0, # of connection points: 2
#     Edge 52, Type (0, 0), BuildingBlock: MIFKUJ_clean_linker_0, # of connection points: 2
#     Edge 53, Type (0, 0), BuildingBlock: MIFKUJ_clean_linker_0, # of connection points: 2
#     Edge 54, Type (0, 0), BuildingBlock: MIFKUJ_clean_linker_0, # of connection points: 2
#     Edge 55, Type (0, 0), BuildingBlock: MIFKUJ_clean_linker_0, # of connection points: 2
#     Edge 56, Type (0, 0), BuildingBlock: MIFKUJ_clean_linker_0, # of connection points: 2
#     Edge 57, Type (0, 0), BuildingBlock: MIFKUJ_clean_linker_0, # of connection points: 2
#     Edge 58, Type (0, 0), BuildingBlock: MIFKUJ_clean_linker_0, # of connection points: 2
#     Edge 59, Type (0, 0), BuildingBlock: MIFKUJ_clean_linker_0, # of connection points: 2
#     Edge 60, Type (0, 0), BuildingBlock: MIFKUJ_clean_linker_0, # of connection points: 2
#     Edge 61, Type (0, 0), BuildingBlock: MIFKUJ_clean_linker_0, # of connection points: 2
#     Edge 62, Type (0, 0), BuildingBlock: MIFKUJ_clean_linker_0, # of connection points: 2
#     Edge 63, Type (0, 0), BuildingBlock: MIFKUJ_clean_linker_0, # of connection points: 2
# Relax obj value: 0.306
# Max RMSD: 0.281
# Mean RMSD: 0.281
data_MOF--net-vbr--node1-OJICUG_clean_sbu_0--edge1-MIFKUJ_clean_linker_0
_symmetry_space_group_name_H-M    P1
_symmetry_Int_Tables_number       1
_symmetry_cell_setting            triclinic
loop_
_symmetry_equiv_pos_as_xyz
'x, y, z'
_cell_length_a     55.596842
_cell_length_b     37.141934
_cell_length_c     72.456377
_cell_angle_alpha  90.011467
_cell_angle_beta   89.996551
_cell_angle_gamma 90.039746
loop_
_atom_site_label
_atom_site_type_symbol
_atom_site_fract_x
_atom_site_fract_y
_atom_site_fract_z
_atom_type_partial_charge
Sc0 Sc 0.3469 0.15981 0.10497 0.0
Sc1 Sc 0.28881 0.14411 0.12215 0.0
Sc2 Sc 0.33385 0.07827 0.12751 0.0
O3 O 0.32317 0.12738 0.11825 0.0
C4 C 0.35924 0.08327 0.08788 0.0
C5 C 0.29853 0.17221 0.08171 0.0
C6 C 0.28122 0.06015 0.1137 0.0
C7 C 0.31871 0.21731 0.12838 0.0
C8 C 0.37966 0.12581 0.13678 0.0
C9 C 0.30039 0.10678 0.16042 0.0
O10 O 0.35772 0.11732 0.0868 0.0
O11 O 0.28441 0.15842 0.09357 0.0
O12 O 0.30312 0.05177 0.11607 0.0
O13 O 0.33821 0.20569 0.12151 0.0
O14 O 0.36585 0.09939 0.14017 0.0
O15 O 0.29031 0.13133 0.15096 0.0
O16 O 0.3755 0.1484 0.12402 0.0
O17 O 0.2995 0.19865 0.12876 0.0
O18 O 0.31563 0.08478 0.1537 0.0
O19 O 0.32101 0.17579 0.08444 0.0
O20 O 0.35251 0.06572 0.10207 0.0
O21 O 0.27326 0.09189 0.11617 0.0
Sc22 Sc 0.15133 0.84603 0.60189 0.0
Sc23 Sc 0.2103 0.85596 0.61861 0.0
Sc24 Sc 0.16674 0.92281 0.62781 0.0
O25 O 0.17618 0.87493 0.61614 0.0
C26 C 0.13879 0.92645 0.58951 0.0
C27 C 0.19797 0.83854 0.57653 0.0
C28 C 0.21964 0.94042 0.61404 0.0
C29 C 0.18033 0.7825 0.621 0.0
C30 C 0.12136 0.87335 0.63658 0.0
C31 C 0.20054 0.88757 0.65867 0.0
O32 O 0.13798 0.8925 0.58764 0.0
O33 O 0.21291 0.84524 0.58942 0.0
O34 O 0.19821 0.94962 0.61779 0.0
O35 O 0.16152 0.79539 0.61365 0.0
O36 O 0.13406 0.90128 0.63939 0.0
O37 O 0.21053 0.86512 0.64785 0.0
O38 O 0.12548 0.85108 0.62366 0.0
O39 O 0.19915 0.80119 0.62374 0.0
O40 O 0.1848 0.91023 0.65339 0.0
O41 O 0.17532 0.83781 0.57902 0.0
O42 O 0.14861 0.94158 0.60331 0.0
O43 O 0.22675 0.90792 0.61417 0.0
Sc44 Sc 0.34004 0.83155 0.89595 0.0
Sc45 Sc 0.28664 0.84658 0.87151 0.0
Sc46 Sc 0.33121 0.91358 0.87283 0.0
O47 O 0.31933 0.86387 0.88012 0.0
C48 C 0.35123 0.90812 0.91394 0.0
C49 C 0.2875 0.82569 0.9138 0.0
C50 C 0.27667 0.93056 0.87784 0.0
C51 C 0.31479 0.7715 0.87208 0.0
C52 C 0.3773 0.86378 0.86701 0.0
C53 C 0.30671 0.88298 0.83582 0.0
O54 O 0.35034 0.87408 0.91406 0.0
O55 O 0.27584 0.83589 0.89957 0.0
O56 O 0.29833 0.93927 0.88099 0.0
O57 O 0.33275 0.78321 0.88095 0.0
O58 O 0.36525 0.89224 0.86383 0.0
O59 O 0.29633 0.85624 0.84337 0.0
O60 O 0.37068 0.83969 0.87843 0.0
O61 O 0.29684 0.79107 0.86814 0.0
O62 O 0.31801 0.90712 0.84486 0.0
O63 O 0.31027 0.82163 0.91412 0.0
O64 O 0.34514 0.92662 0.89995 0.0
O65 O 0.27035 0.89921 0.87284 0.0
Sc66 Sc 0.167 0.08669 0.37495 0.0
Sc67 Sc 0.21027 0.15506 0.37354 0.0
Sc68 Sc 0.15421 0.17219 0.39307 0.0
O69 O 0.17704 0.13793 0.38045 0.0
C70 C 0.1191 0.12904 0.36589 0.0
C71 C 0.19522 0.11181 0.33841 0.0
C72 C 0.17905 0.22678 0.36679 0.0
C73 C 0.22092 0.07321 0.38457 0.0
C74 C 0.1455 0.09992 0.41539 0.0
C75 C 0.20474 0.18847 0.41278 0.0
O76 O 0.13361 0.10337 0.36264 0.0
O77 O 0.20383 0.14048 0.34543 0.0
O78 O 0.15951 0.21424 0.37317 0.0
O79 O 0.19906 0.0647 0.38689 0.0
O80 O 0.14712 0.13398 0.41454 0.0
O81 O 0.21775 0.17048 0.40162 0.0
O82 O 0.15024 0.07947 0.40175 0.0
O83 O 0.22745 0.10346 0.3781 0.0
O84 O 0.18235 0.1938 0.41023 0.0
O85 O 0.18358 0.08833 0.3477 0.0
O86 O 0.12377 0.15426 0.37721 0.0
O87 O 0.1987 0.20932 0.36746 0.0
Sc88 Sc 0.66161 0.91792 0.87336 0.0
Sc89 Sc 0.70557 0.85091 0.87959 0.0
Sc90 Sc 0.64678 0.83656 0.89557 0.0
O91 O 0.67132 0.86848 0.88285 0.0
C92 C 0.63275 0.91397 0.91133 0.0
C93 C 0.71417 0.93489 0.88693 0.0
C94 C 0.69373 0.8282 0.92077 0.0
C95 C 0.69503 0.88668 0.84101 0.0
C96 C 0.61711 0.8688 0.86186 0.0
C97 C 0.67697 0.77665 0.87512 0.0
O98 O 0.64254 0.93174 0.89835 0.0
O99 O 0.72158 0.90298 0.88433 0.0
O100 O 0.67118 0.82539 0.91791 0.0
O101 O 0.68058 0.91011 0.84751 0.0
O102 O 0.62105 0.8448 0.874 0.0
O103 O 0.69566 0.79607 0.8739 0.0
O104 O 0.62964 0.89727 0.8603 0.0
O105 O 0.70428 0.86163 0.85063 0.0
O106 O 0.65737 0.78824 0.88172 0.0
O107 O 0.69231 0.94396 0.88521 0.0
O108 O 0.63262 0.87985 0.91178 0.0
O109 O 0.70862 0.83864 0.90851 0.0
Sc110 Sc 0.83646 0.17264 0.39437 0.0
Sc111 Sc 0.78328 0.16206 0.36976 0.0
Sc112 Sc 0.8227 0.08972 0.37438 0.0
O113 O 0.81425 0.14148 0.37946 0.0
C114 C 0.87291 0.12691 0.36933 0.0
C115 C 0.8191 0.2298 0.36645 0.0
C116 C 0.8002 0.11727 0.33606 0.0
C117 C 0.78418 0.19561 0.40895 0.0
C118 C 0.83933 0.09973 0.4163 0.0
C119 C 0.7677 0.08177 0.38012 0.0
O120 O 0.86828 0.15059 0.38154 0.0
O121 O 0.79841 0.21519 0.36547 0.0
O122 O 0.80865 0.09245 0.34637 0.0
O123 O 0.807 0.1988 0.40846 0.0
O124 O 0.83723 0.08063 0.40179 0.0
O125 O 0.76346 0.11184 0.37239 0.0
O126 O 0.83737 0.13379 0.41622 0.0
O127 O 0.77227 0.17767 0.39707 0.0
O128 O 0.78867 0.07178 0.38472 0.0
O129 O 0.83691 0.21426 0.37395 0.0
O130 O 0.85745 0.10409 0.36382 0.0
O131 O 0.79323 0.14757 0.34226 0.0
Sc132 Sc 0.66365 0.07449 0.12567 0.0
Sc133 Sc 0.70823 0.14047 0.11872 0.0
Sc134 Sc 0.64993 0.15372 0.10109 0.0
O135 O 0.67394 0.12294 0.11519 0.0
C136 C 0.63674 0.07501 0.08668 0.0
C137 C 0.71638 0.05603 0.11233 0.0
C138 C 0.69796 0.16195 0.07705 0.0
C139 C 0.69691 0.10652 0.15788 0.0
C140 C 0.61816 0.1237 0.13445 0.0
C141 C 0.67909 0.21465 0.12206 0.0
O142 O 0.64533 0.05864 0.10061 0.0
O143 O 0.72401 0.08818 0.11378 0.0
O144 O 0.67528 0.16426 0.07919 0.0
O145 O 0.68159 0.08398 0.15175 0.0
O146 O 0.62241 0.14636 0.12169 0.0
O147 O 0.69775 0.19534 0.12421 0.0
O148 O 0.63143 0.0965 0.13746 0.0
O149 O 0.70705 0.13005 0.14778 0.0
O150 O 0.65995 0.20274 0.11473 0.0
O151 O 0.69463 0.04734 0.11516 0.0
O152 O 0.6371 0.10903 0.08516 0.0
O153 O 0.7122 0.15249 0.0899 0.0
Sc154 Sc 0.83565 0.92269 0.63147 0.0
Sc155 Sc 0.7902 0.85742 0.62518 0.0
Sc156 Sc 0.8467 0.8465 0.6041 0.0
O157 O 0.82412 0.87546 0.62032 0.0
C158 C 0.8583 0.9269 0.59132 0.0
C159 C 0.78142 0.94169 0.6208 0.0
C160 C 0.79757 0.83926 0.58241 0.0
C161 C 0.80567 0.88876 0.66449 0.0
C162 C 0.88129 0.87135 0.63637 0.0
C163 C 0.8185 0.78339 0.62483 0.0
O164 O 0.84906 0.94183 0.6054 0.0
O165 O 0.77407 0.90932 0.61996 0.0
O166 O 0.82037 0.84174 0.5827 0.0
O167 O 0.82222 0.90928 0.65847 0.0
O168 O 0.8746 0.84832 0.62446 0.0
O169 O 0.80163 0.80319 0.63088 0.0
O170 O 0.86995 0.90047 0.63945 0.0
O171 O 0.7928 0.86893 0.65414 0.0
O172 O 0.8356 0.79546 0.61501 0.0
O173 O 0.80289 0.95004 0.62495 0.0
O174 O 0.86034 0.893 0.58983 0.0
O175 O 0.78443 0.84336 0.59665 0.0
Sc176 Sc 0.84185 0.65867 0.10279 0.0
Sc177 Sc 0.78687 0.64238 0.12445 0.0
Sc178 Sc 0.83208 0.57602 0.12512 0.0
O179 O 0.8203 0.6256 0.11747 0.0
C180 C 0.85223 0.58316 0.08387 0.0
C181 C 0.79034 0.66813 0.08336 0.0
C182 C 0.77779 0.55824 0.11717 0.0
C183 C 0.81629 0.71671 0.12699 0.0
C184 C 0.87883 0.62369 0.13131 0.0
C185 C 0.80482 0.60604 0.16108 0.0
O186 O 0.85061 0.61718 0.08374 0.0
O187 O 0.77794 0.65409 0.09626 0.0
O188 O 0.79987 0.55003 0.11594 0.0
O189 O 0.83541 0.70432 0.11996 0.0
O190 O 0.86581 0.59662 0.13524 0.0
O191 O 0.79434 0.63188 0.15284 0.0
O192 O 0.87271 0.64724 0.1195 0.0
O193 O 0.79724 0.698 0.12854 0.0
O194 O 0.81735 0.58218 0.1528 0.0
O195 O 0.81292 0.67342 0.08453 0.0
O196 O 0.84722 0.56426 0.09805 0.0
O197 O 0.77067 0.58966 0.12145 0.0
Sc198 Sc 0.64405 0.33715 0.60493 0.0
Sc199 Sc 0.70304 0.35828 0.61729 0.0
Sc200 Sc 0.6573 0.42103 0.62512 0.0
O201 O 0.66802 0.37217 0.61592 0.0
C202 C 0.62864 0.4119 0.58709 0.0
C203 C 0.68947 0.33167 0.57776 0.0
C204 C 0.70802 0.44271 0.60979 0.0
C205 C 0.67724 0.28195 0.62449 0.0
C206 C 0.6136 0.37178 0.63787 0.0
C207 C 0.69379 0.39239 0.65634 0.0
O208 O 0.63035 0.37781 0.58686 0.0
O209 O 0.70407 0.34894 0.58801 0.0
O210 O 0.68582 0.44935 0.61154 0.0
O211 O 0.65595 0.29272 0.62151 0.0
O212 O 0.6271 0.3991 0.63977 0.0
O213 O 0.70295 0.36753 0.64646 0.0
O214 O 0.61707 0.34804 0.62551 0.0
O215 O 0.69545 0.30211 0.62208 0.0
O216 O 0.67854 0.41522 0.65022 0.0
O217 O 0.66847 0.32238 0.58299 0.0
O218 O 0.63621 0.43107 0.60049 0.0
O219 O 0.71693 0.41186 0.61288 0.0
Sc220 Sc 0.84464 0.33641 0.89158 0.0
Sc221 Sc 0.78649 0.35153 0.87411 0.0
Sc222 Sc 0.83121 0.41812 0.86926 0.0
O223 O 0.82078 0.36859 0.87825 0.0
C224 C 0.85773 0.41317 0.90829 0.0
C225 C 0.79648 0.32511 0.91505 0.0
C226 C 0.77865 0.43495 0.88348 0.0
C227 C 0.81567 0.2779 0.86898 0.0
C228 C 0.87665 0.36999 0.8592 0.0
C229 C 0.79788 0.39 0.83615 0.0
O230 O 0.85698 0.3791 0.90892 0.0
O231 O 0.78226 0.33611 0.9025 0.0
O232 O 0.80041 0.44384 0.88091 0.0
O233 O 0.8348 0.28904 0.8766 0.0
O234 O 0.86331 0.39732 0.85668 0.0
O235 O 0.78786 0.36509 0.8454 0.0
O236 O 0.87235 0.34629 0.87144 0.0
O237 O 0.79701 0.29732 0.86714 0.0
O238 O 0.81303 0.41197 0.84303 0.0
O239 O 0.81917 0.32323 0.91292 0.0
O240 O 0.84978 0.43105 0.89463 0.0
O241 O 0.77082 0.40324 0.88068 0.0
Sc242 Sc 0.66935 0.58452 0.37312 0.0
Sc243 Sc 0.71505 0.64978 0.37817 0.0
Sc244 Sc 0.65812 0.66451 0.39775 0.0
O245 O 0.68085 0.63296 0.38295 0.0
C246 C 0.62373 0.63482 0.36606 0.0
C247 C 0.70051 0.61608 0.33958 0.0
C248 C 0.68672 0.72483 0.37593 0.0
C249 C 0.72302 0.56513 0.38394 0.0
C250 C 0.64554 0.58619 0.41319 0.0
C251 C 0.70746 0.67105 0.42008 0.0
O252 O 0.63626 0.60693 0.36277 0.0
O253 O 0.71169 0.63932 0.34921 0.0
O254 O 0.66776 0.71339 0.38373 0.0
O255 O 0.70104 0.55665 0.38205 0.0
O256 O 0.64605 0.62027 0.41422 0.0
O257 O 0.72108 0.66159 0.40683 0.0
O258 O 0.65295 0.56908 0.39908 0.0
O259 O 0.73059 0.59726 0.38239 0.0
O260 O 0.68476 0.67408 0.41858 0.0
O261 O 0.68535 0.59395 0.34633 0.0
O262 O 0.62937 0.65782 0.37831 0.0
O263 O 0.70496 0.70494 0.37321 0.0
Sc264 Sc 0.16277 0.41093 0.87532 0.0
Sc265 Sc 0.20637 0.34316 0.87334 0.0
Sc266 Sc 0.15025 0.32473 0.89285 0.0
O267 O 0.17305 0.35964 0.8805 0.0
C268 C 0.14025 0.39655 0.91539 0.0
C269 C 0.21667 0.42493 0.88491 0.0
C270 C 0.20085 0.30934 0.91276 0.0
C271 C 0.19128 0.38764 0.83858 0.0
C272 C 0.11569 0.367 0.86505 0.0
C273 C 0.17573 0.27126 0.86602 0.0
O274 O 0.14589 0.41752 0.90216 0.0
O275 O 0.22325 0.39455 0.87866 0.0
O276 O 0.17833 0.30445 0.91061 0.0
O277 O 0.17924 0.41033 0.84806 0.0
O278 O 0.12022 0.3414 0.87618 0.0
O279 O 0.19514 0.28932 0.86636 0.0
O280 O 0.12973 0.39364 0.86274 0.0
O281 O 0.20021 0.35902 0.84537 0.0
O282 O 0.15641 0.28259 0.87324 0.0
O283 O 0.19475 0.4332 0.88723 0.0
O284 O 0.14169 0.36255 0.91412 0.0
O285 O 0.21383 0.32639 0.90119 0.0
Sc286 Sc 0.34459 0.66329 0.39679 0.0
Sc287 Sc 0.28921 0.64748 0.37477 0.0
Sc288 Sc 0.33588 0.58382 0.3712 0.0
O289 O 0.3232 0.63152 0.38092 0.0
C290 C 0.38158 0.63515 0.36655 0.0
C291 C 0.31656 0.7237 0.37502 0.0
C292 C 0.30761 0.61676 0.33654 0.0
C293 C 0.29328 0.66801 0.41697 0.0
C294 C 0.35697 0.58487 0.4122 0.0
C295 C 0.28166 0.56212 0.3782 0.0
O296 O 0.375 0.65785 0.37866 0.0
O297 O 0.29864 0.70346 0.3717 0.0
O298 O 0.32205 0.59423 0.34382 0.0
O299 O 0.316 0.67223 0.41629 0.0
O300 O 0.35021 0.56797 0.39782 0.0
O301 O 0.27382 0.59413 0.37684 0.0
O302 O 0.35617 0.61893 0.41348 0.0
O303 O 0.28081 0.65701 0.40333 0.0
O304 O 0.30391 0.55466 0.37796 0.0
O305 O 0.33557 0.7122 0.38267 0.0
O306 O 0.36943 0.60719 0.36267 0.0
O307 O 0.29548 0.63951 0.34581 0.0
Sc308 Sc 0.1694 0.57446 0.12676 0.0
Sc309 Sc 0.21278 0.64123 0.11701 0.0
Sc310 Sc 0.1534 0.65128 0.10119 0.0
O311 O 0.17853 0.62241 0.11507 0.0
C312 C 0.14043 0.57101 0.08881 0.0
C313 C 0.22184 0.55664 0.11247 0.0
C314 C 0.19953 0.6572 0.07515 0.0
C315 C 0.2038 0.61038 0.15719 0.0
C316 C 0.12395 0.62341 0.13611 0.0
C317 C 0.18326 0.71524 0.11905 0.0
O318 O 0.15028 0.55579 0.10259 0.0
O319 O 0.22908 0.58906 0.11305 0.0
O320 O 0.17704 0.65924 0.07817 0.0
O321 O 0.18849 0.58695 0.15198 0.0
O322 O 0.12769 0.64567 0.12309 0.0
O323 O 0.20212 0.69647 0.12134 0.0
O324 O 0.13717 0.59605 0.13894 0.0
O325 O 0.21314 0.6335 0.14637 0.0
O326 O 0.16385 0.70215 0.11274 0.0
O327 O 0.20033 0.54753 0.11598 0.0
O328 O 0.13986 0.60495 0.08695 0.0
O329 O 0.21489 0.65022 0.08768 0.0
Sc330 Sc 0.32919 0.42249 0.62767 0.0
Sc331 Sc 0.28475 0.35533 0.62432 0.0
Sc332 Sc 0.34259 0.33867 0.60769 0.0
O333 O 0.31888 0.37224 0.61998 0.0
C334 C 0.35332 0.41316 0.58775 0.0
C335 C 0.27607 0.43872 0.61508 0.0
C336 C 0.29422 0.32494 0.58467 0.0
C337 C 0.29693 0.39481 0.66172 0.0
C338 C 0.37567 0.3772 0.63788 0.0
C339 C 0.31473 0.28244 0.6314 0.0
O340 O 0.34739 0.43261 0.60154 0.0
O341 O 0.26861 0.40723 0.61887 0.0
O342 O 0.31638 0.3198 0.58814 0.0
O343 O 0.31105 0.41765 0.6542 0.0
O344 O 0.37153 0.35315 0.62583 0.0
O345 O 0.29536 0.30059 0.63054 0.0
O346 O 0.36159 0.40355 0.64069 0.0
O347 O 0.28753 0.36855 0.653 0.0
O348 O 0.33475 0.29473 0.62583 0.0
O349 O 0.29812 0.4474 0.6158 0.0
O350 O 0.35209 0.37903 0.58796 0.0
O351 O 0.28014 0.34124 0.59571 0.0
H352 H 0.32079 0.21467 0.05611 0.0
H353 H 0.30374 0.23931 0.02777 0.0
H354 H 0.23662 0.18537 0.03897 0.0
H355 H 0.2533 0.16115 0.06768 0.0
H356 H 0.25555 0.17477 0.00262 0.0
H357 H 0.23538 0.26966 0.04426 0.0
H358 H 0.24023 0.31756 0.06753 0.0
H359 H 0.29098 0.3717 0.03254 0.0
H360 H 0.28656 0.32397 0.00908 0.0
H361 H 0.18076 0.26348 0.93783 0.0
H362 H 0.19905 0.23909 0.96568 0.0
H363 H 0.26471 0.29644 0.95384 0.0
H364 H 0.24664 0.32097 0.92568 0.0
H365 H 0.24692 0.30557 0.99032 0.0
H366 H 0.26888 0.2072 0.94961 0.0
H367 H 0.26185 0.16036 0.92604 0.0
H368 H 0.20536 0.11509 0.9591 0.0
H369 H 0.21258 0.161 0.98314 0.0
C370 C 0.30238 0.20802 0.05261 0.0
C371 C 0.28839 0.18598 0.0642 0.0
C372 C 0.29265 0.22234 0.03647 0.0
C373 C 0.26891 0.21439 0.03145 0.0
C374 C 0.25496 0.19194 0.04275 0.0
C375 C 0.26454 0.17812 0.05911 0.0
C376 C 0.25911 0.2282 0.01391 0.0
C377 C 0.2534 0.20335 1e-05 0.0
C378 C 0.25689 0.26552 0.01042 0.0
C379 C 0.26083 0.293 0.02499 0.0
C380 C 0.24783 0.2915 0.04162 0.0
C381 C 0.25034 0.3188 0.05478 0.0
C382 C 0.26579 0.34776 0.05146 0.0
C383 C 0.27891 0.34935 0.03504 0.0
C384 C 0.27642 0.32218 0.02181 0.0
C385 C 0.19913 0.27094 0.94106 0.0
C386 C 0.21222 0.2943 0.92952 0.0
C387 C 0.20958 0.25671 0.95692 0.0
C388 C 0.23324 0.26576 0.96166 0.0
C389 C 0.24643 0.28908 0.95029 0.0
C390 C 0.23607 0.30304 0.93424 0.0
C391 C 0.2436 0.25217 0.97905 0.0
C392 C 0.24933 0.27703 0.99293 0.0
C393 C 0.24579 0.21492 0.98256 0.0
C394 C 0.24113 0.18765 0.96807 0.0
C395 C 0.2549 0.18733 0.9518 0.0
C396 C 0.25096 0.16088 0.93841 0.0
C397 C 0.23301 0.13501 0.94097 0.0
C398 C 0.2192 0.13521 0.95709 0.0
C399 C 0.22334 0.16125 0.97068 0.0
H400 H 0.22987 0.11475 0.9305 0.0
H401 H 0.26771 0.36886 0.06167 0.0
H402 H 0.3131 0.68237 0.4506 0.0
H403 H 0.29355 0.71084 0.47696 0.0
H404 H 0.2258 0.70977 0.44806 0.0
H405 H 0.24523 0.68182 0.42135 0.0
H406 H 0.23914 0.77719 0.4624 0.0
H407 H 0.23242 0.65552 0.48242 0.0
H408 H 0.24591 0.594 0.48976 0.0
H409 H 0.29326 0.63549 0.53145 0.0
H410 H 0.2806 0.69741 0.52403 0.0
H411 H 0.17241 0.82689 0.54473 0.0
H412 H 0.18729 0.80071 0.51596 0.0
H413 H 0.25922 0.79891 0.53815 0.0
H414 H 0.24473 0.82555 0.56686 0.0
H415 H 0.24034 0.73093 0.52659 0.0
H416 H 0.25124 0.8513 0.50478 0.0
H417 H 0.24159 0.91369 0.4959 0.0
H418 H 0.18858 0.87521 0.45758 0.0
H419 H 0.19777 0.81253 0.46633 0.0
C420 C 0.29395 0.68761 0.44991 0.0
C421 C 0.28072 0.67985 0.43386 0.0
C422 C 0.28283 0.70366 0.46503 0.0
C423 C 0.25827 0.71191 0.46446 0.0
C424 C 0.24478 0.70331 0.44873 0.0
C425 C 0.25589 0.68716 0.43356 0.0
C426 C 0.24731 0.73194 0.47987 0.0
C427 C 0.23885 0.76685 0.4764 0.0
C428 C 0.2478 0.71859 0.49814 0.0
C429 C 0.2557 0.68128 0.50251 0.0
C430 C 0.24595 0.65164 0.49299 0.0
C431 C 0.25342 0.61665 0.49719 0.0
C432 C 0.27048 0.61085 0.51102 0.0
C433 C 0.28004 0.64003 0.52073 0.0
C434 C 0.27276 0.6751 0.5165 0.0
C435 C 0.19147 0.82151 0.54341 0.0
C436 C 0.20734 0.82793 0.55821 0.0
C437 C 0.19992 0.80675 0.52692 0.0
C438 C 0.22428 0.79785 0.52505 0.0
C439 C 0.24034 0.8057 0.53941 0.0
C440 C 0.232 0.82092 0.5558 0.0
C441 C 0.23248 0.77637 0.50915 0.0
C442 C 0.24036 0.74111 0.51255 0.0
C443 C 0.23161 0.78948 0.49086 0.0
C444 C 0.22493 0.82719 0.48645 0.0
C445 C 0.23725 0.85612 0.49468 0.0
C446 C 0.23202 0.89154 0.48954 0.0
C447 C 0.2145 0.89842 0.47617 0.0
C448 C 0.20215 0.86986 0.46793 0.0
C449 C 0.20736 0.83438 0.47298 0.0
H450 H 0.21043 0.92587 0.47226 0.0
H451 H 0.27624 0.58375 0.51426 0.0
H452 H 0.24525 0.6752 0.0648 0.0
H453 H 0.25751 0.70177 0.03544 0.0
H454 H 0.18576 0.68746 0.01407 0.0
H455 H 0.17322 0.66077 0.04336 0.0
H456 H 0.22613 0.67583 0.98767 0.0
H457 H 0.19456 0.76219 0.03216 0.0
H458 H 0.19369 0.78634 0.06389 0.0
H459 H 0.26831 0.81499 0.05967 0.0
H460 H 0.26973 0.79047 0.02803 0.0
H461 H 0.24084 0.80293 0.91636 0.0
H462 H 0.22174 0.77544 0.94338 0.0
H463 H 0.28523 0.79748 0.97575 0.0
H464 H 0.30427 0.82518 0.949 0.0
H465 H 0.24514 0.80557 0.99603 0.0
H466 H 0.27963 0.71868 0.95476 0.0
H467 H 0.28579 0.68842 0.92483 0.0
H468 H 0.21145 0.65708 0.9238 0.0
H469 H 0.20474 0.68778 0.95361 0.0
C470 C 0.23221 0.67683 0.05373 0.0
C471 C 0.20815 0.66656 0.05651 0.0
C472 C 0.23926 0.69199 0.03699 0.0
C473 C 0.22239 0.69692 0.02282 0.0
C474 C 0.19894 0.68389 0.02494 0.0
C475 C 0.19181 0.66893 0.04172 0.0
C476 C 0.2284 0.71984 0.00692 0.0
C477 C 0.22987 0.70432 0.98935 0.0
C478 C 0.23367 0.75678 0.00938 0.0
C479 C 0.23231 0.77416 0.02781 0.0
C480 C 0.21078 0.77363 0.03801 0.0
C481 C 0.2102 0.78731 0.05598 0.0
C482 C 0.23098 0.80188 0.06383 0.0
C483 C 0.25227 0.80348 0.0536 0.0
C484 C 0.25296 0.78977 0.03563 0.0
C485 C 0.25045 0.80269 0.92937 0.0
C486 C 0.27418 0.81552 0.93054 0.0
C487 C 0.23959 0.78686 0.94473 0.0
C488 C 0.25232 0.78384 0.96138 0.0
C489 C 0.27521 0.79934 0.96296 0.0
C490 C 0.2861 0.81494 0.94764 0.0
C491 C 0.24301 0.76162 0.97664 0.0
C492 C 0.24093 0.77726 0.99418 0.0
C493 C 0.23764 0.72463 0.97417 0.0
C494 C 0.2416 0.70595 0.9563 0.0
C495 C 0.26454 0.70563 0.94808 0.0
C496 C 0.26814 0.68836 0.93115 0.0
C497 C 0.24901 0.67094 0.92239 0.0
C498 C 0.22624 0.67068 0.93058 0.0
C499 C 0.22252 0.68802 0.94749 0.0
H500 H 0.25187 0.65759 0.9093 0.0
H501 H 0.23062 0.81188 0.07785 0.0
H502 H 0.3172 0.28092 0.56033 0.0
H503 H 0.30216 0.25765 0.5312 0.0
H504 H 0.23526 0.31425 0.53938 0.0
H505 H 0.24991 0.3369 0.56907 0.0
H506 H 0.22746 0.24788 0.52666 0.0
H507 H 0.27863 0.34663 0.50994 0.0
H508 H 0.31626 0.3818 0.51075 0.0
H509 H 0.35476 0.29261 0.48737 0.0
H510 H 0.31741 0.25668 0.48667 0.0
H511 H 0.18495 0.23811 0.43585 0.0
H512 H 0.20131 0.26118 0.46461 0.0
H513 H 0.26521 0.19703 0.45705 0.0
H514 H 0.24903 0.17385 0.42787 0.0
H515 H 0.27491 0.26629 0.46937 0.0
H516 H 0.22225 0.16829 0.48558 0.0
H517 H 0.18406 0.13444 0.48514 0.0
H518 H 0.14753 0.2245 0.50949 0.0
H519 H 0.1854 0.25913 0.50977 0.0
C520 C 0.29927 0.28855 0.55599 0.0
C521 C 0.28479 0.31097 0.56701 0.0
C522 C 0.29074 0.27525 0.53928 0.0
C523 C 0.26779 0.28475 0.53299 0.0
C524 C 0.25309 0.30672 0.544 0.0
C525 C 0.26151 0.31971 0.56092 0.0
C526 C 0.25926 0.27174 0.51485 0.0
C527 C 0.23765 0.25232 0.51409 0.0
C528 C 0.2729 0.27692 0.49856 0.0
C529 C 0.29524 0.29886 0.49839 0.0
C530 C 0.29514 0.33446 0.50503 0.0
C531 C 0.31641 0.35453 0.50548 0.0
C532 C 0.33788 0.3394 0.49916 0.0
C533 C 0.3381 0.30426 0.49227 0.0
C534 C 0.31688 0.28405 0.49182 0.0
C535 C 0.20252 0.22883 0.44021 0.0
C536 C 0.21558 0.20376 0.42966 0.0
C537 C 0.21181 0.24208 0.45668 0.0
C538 C 0.23422 0.23027 0.46308 0.0
C539 C 0.24778 0.20625 0.45233 0.0
C540 C 0.23851 0.19304 0.43572 0.0
C541 C 0.24309 0.24259 0.48121 0.0
C542 C 0.26476 0.26184 0.48196 0.0
C543 C 0.2294 0.23749 0.49748 0.0
C544 C 0.20666 0.21642 0.49757 0.0
C545 C 0.20605 0.18097 0.49073 0.0
C546 C 0.18445 0.16163 0.49052 0.0
C547 C 0.16338 0.17733 0.49726 0.0
C548 C 0.16387 0.21237 0.50426 0.0
C549 C 0.18539 0.23186 0.50447 0.0
H550 H 0.14668 0.16234 0.49711 0.0
H551 H 0.35434 0.3549 0.49961 0.0
H552 H 0.66837 0.81548 0.95243 0.0
H553 H 0.68339 0.78888 0.98102 0.0
H554 H 0.75507 0.78599 0.9583 0.0
H555 H 0.74033 0.81279 0.92969 0.0
H556 H 0.73939 0.72001 0.97211 0.0
H557 H 0.74661 0.84294 0.99247 0.0
H558 H 0.73328 0.90522 0.9983 0.0
H559 H 0.67564 0.86612 0.03227 0.0
H560 H 0.68888 0.80353 0.02685 0.0
H561 H 0.81081 0.68344 0.05015 0.0
H562 H 0.79134 0.7087 0.02298 0.0
H563 H 0.72284 0.70608 0.05091 0.0
H564 H 0.74224 0.68079 0.07838 0.0
H565 H 0.73375 0.77269 0.03492 0.0
H566 H 0.73174 0.64845 0.01709 0.0
H567 H 0.74877 0.58789 0.01227 0.0
H568 H 0.79909 0.63083 0.97306 0.0
H569 H 0.78249 0.6917 0.97775 0.0
C570 C 0.68739 0.80961 0.95358 0.0
C571 C 0.70316 0.81613 0.93876 0.0
C572 C 0.69593 0.79458 0.96995 0.0
C573 C 0.72029 0.78556 0.97167 0.0
C574 C 0.73619 0.79285 0.95714 0.0
C575 C 0.72774 0.80829 0.94086 0.0
C576 C 0.72886 0.76626 0.98816 0.0
C577 C 0.73839 0.7316 0.98584 0.0
C578 C 0.72687 0.78115 0.00602 0.0
C579 C 0.71855 0.81859 0.00907 0.0
C580 C 0.73097 0.84762 0.00106 0.0
C581 C 0.72351 0.88297 0.00436 0.0
C582 C 0.70351 0.88963 0.01553 0.0
C583 C 0.69108 0.86092 0.02358 0.0
C584 C 0.69863 0.82551 0.02047 0.0
C585 C 0.79157 0.68793 0.05051 0.0
C586 C 0.77806 0.68028 0.06644 0.0
C587 C 0.78047 0.70218 0.03493 0.0
C588 C 0.75569 0.70901 0.03497 0.0
C589 C 0.74201 0.70085 0.05068 0.0
C590 C 0.75309 0.68629 0.06629 0.0
C591 C 0.74453 0.72654 0.01887 0.0
C592 C 0.73446 0.76087 0.02123 0.0
C593 C 0.74622 0.71144 0.00101 0.0
C594 C 0.75597 0.67471 0.99788 0.0
C595 C 0.74652 0.64502 0.00751 0.0
C596 C 0.75607 0.61061 0.00477 0.0
C597 C 0.77502 0.60551 0.99239 0.0
C598 C 0.78438 0.63479 0.98263 0.0
C599 C 0.77487 0.66925 0.98529 0.0
H600 H 0.78244 0.57887 0.99036 0.0
H601 H 0.6977 0.91702 0.01798 0.0
H602 H 0.72522 0.36155 0.55674 0.0
H603 H 0.73826 0.34257 0.52591 0.0
H604 H 0.68427 0.25913 0.52583 0.0
H605 H 0.67099 0.27798 0.55646 0.0
H606 H 0.73127 0.23539 0.51722 0.0
H607 H 0.67481 0.32737 0.49935 0.0
H608 H 0.65706 0.38823 0.49909 0.0
H609 H 0.72372 0.43217 0.47941 0.0
H610 H 0.74201 0.37161 0.47983 0.0
H611 H 0.7419 0.17566 0.42525 0.0
H612 H 0.7229 0.20356 0.45227 0.0
H613 H 0.77815 0.28511 0.45323 0.0
H614 H 0.79746 0.25709 0.42651 0.0
H615 H 0.7299 0.31122 0.4608 0.0
H616 H 0.7872 0.22288 0.47997 0.0
H617 H 0.80657 0.16322 0.4796 0.0
H618 H 0.74071 0.11425 0.49775 0.0
H619 H 0.72078 0.17363 0.49785 0.0
C620 C 0.71611 0.33923 0.55012 0.0
C621 C 0.69717 0.32113 0.55904 0.0
C622 C 0.72345 0.32862 0.5325 0.0
C623 C 0.71212 0.29959 0.52366 0.0
C624 C 0.69316 0.28166 0.53247 0.0
C625 C 0.6856 0.29251 0.54993 0.0
C626 C 0.72087 0.28653 0.50565 0.0
C627 C 0.7306 0.25174 0.50482 0.0
C628 C 0.72064 0.30842 0.48969 0.0
C629 C 0.70982 0.34496 0.48972 0.0
C630 C 0.68576 0.35004 0.49513 0.0
C631 C 0.67558 0.38447 0.49491 0.0
C632 C 0.68926 0.41402 0.48921 0.0
C633 C 0.71316 0.40923 0.48379 0.0
C634 C 0.72343 0.37486 0.48399 0.0
C635 C 0.74977 0.19979 0.43109 0.0
C636 C 0.77129 0.21395 0.42401 0.0
C637 C 0.73892 0.21569 0.44645 0.0
C638 C 0.74925 0.24623 0.45469 0.0
C639 C 0.76995 0.26158 0.447 0.0
C640 C 0.78104 0.24535 0.43188 0.0
C641 C 0.73988 0.25995 0.47238 0.0
C642 C 0.7303 0.29484 0.47319 0.0
C643 C 0.74048 0.23839 0.48844 0.0
C644 C 0.7524 0.20264 0.48866 0.0
C645 C 0.77677 0.19935 0.48369 0.0
C646 C 0.78786 0.1656 0.48355 0.0
C647 C 0.77485 0.13496 0.48856 0.0
C648 C 0.75074 0.13801 0.49381 0.0
C649 C 0.73953 0.17171 0.4939 0.0
H650 H 0.78352 0.10893 0.48839 0.0
H651 H 0.68133 0.44062 0.48898 0.0
H652 H 0.74539 0.17345 0.06904 0.0
H653 H 0.76215 0.19927 0.04089 0.0
H654 H 0.69142 0.20244 0.01656 0.0
H655 H 0.67431 0.17661 0.04471 0.0
H656 H 0.7297 0.17939 0.99205 0.0
H657 H 0.71012 0.27574 0.0348 0.0
H658 H 0.71161 0.3053 0.06528 0.0
H659 H 0.7886 0.3115 0.06182 0.0
H660 H 0.78758 0.28159 0.03142 0.0
H661 H 0.74962 0.3073 0.92179 0.0
H662 H 0.73331 0.27838 0.94934 0.0
H663 H 0.80322 0.2824 0.97505 0.0
H664 H 0.81981 0.31132 0.94753 0.0
H665 H 0.76587 0.30099 -0.00113 0.0
H666 H 0.78727 0.20734 0.95728 0.0
H667 H 0.78864 0.17501 0.92759 0.0
H668 H 0.71206 0.16047 0.92928 0.0
H669 H 0.71015 0.19337 0.95887 0.0
C670 C 0.73337 0.1791 0.05764 0.0
C671 C 0.70844 0.17333 0.05922 0.0
C672 C 0.74301 0.19392 0.04159 0.0
C673 C 0.72794 0.20308 0.02682 0.0
C674 C 0.70327 0.19558 0.02789 0.0
C675 C 0.69355 0.18098 0.04401 0.0
C676 C 0.73773 0.22273 0.01081 0.0
C677 C 0.7373 0.20617 0.99343 0.0
C678 C 0.74824 0.25719 0.01287 0.0
C679 C 0.74879 0.27608 0.03092 0.0
C680 C 0.72737 0.28322 0.04059 0.0
C681 C 0.72813 0.30005 0.05785 0.0
C682 C 0.7502 0.31005 0.06553 0.0
C683 C 0.77153 0.30361 0.05588 0.0
C684 C 0.77087 0.28678 0.03863 0.0
C685 C 0.7615 0.3025 0.93338 0.0
C686 C 0.78607 0.31137 0.93242 0.0
C687 C 0.75216 0.2858 0.94905 0.0
C688 C 0.76718 0.2779 0.96405 0.0
C689 C 0.79143 0.28819 0.96353 0.0
C690 C 0.80086 0.30459 0.94779 0.0
C691 C 0.75769 0.25782 0.98003 0.0
C692 C 0.75818 0.27428 0.99743 0.0
C693 C 0.74755 0.22307 0.97801 0.0
C694 C 0.74853 0.20322 0.96021 0.0
C695 C 0.77067 0.1976 0.95125 0.0
C696 C 0.77156 0.17911 0.93445 0.0
C697 C 0.75045 0.16578 0.92654 0.0
C698 C 0.7284 0.17088 0.93542 0.0
C699 C 0.7274 0.18945 0.95222 0.0
H700 H 0.75123 0.1514 0.91356 0.0
H701 H 0.75077 0.32285 0.07894 0.0
H702 H 0.68657 0.67066 0.45405 0.0
H703 H 0.70268 0.69715 0.48239 0.0
H704 H 0.76877 0.72287 0.45413 0.0
H705 H 0.75295 0.6961 0.42575 0.0
H706 H 0.74719 0.68557 0.50325 0.0
H707 H 0.77858 0.81322 0.46555 0.0
H708 H 0.76981 0.84597 0.43667 0.0
H709 H 0.69704 0.80725 0.4378 0.0
H710 H 0.70525 0.77486 0.46683 0.0
H711 H 0.81582 0.84344 0.54755 0.0
H712 H 0.80041 0.8133 0.52 0.0
H713 H 0.73899 0.7756 0.55086 0.0
H714 H 0.75422 0.80563 0.5785 0.0
H715 H 0.75857 0.81807 0.50027 0.0
H716 H 0.7299 0.68553 0.53755 0.0
H717 H 0.74201 0.64762 0.56395 0.0
H718 H 0.81281 0.69372 0.56259 0.0
H719 H 0.8013 0.73142 0.53604 0.0
C720 C 0.7047 0.68142 0.45397 0.0
C721 C 0.71845 0.68172 0.43769 0.0
C722 C 0.71387 0.69632 0.47015 0.0
C723 C 0.73671 0.7122 0.47015 0.0
C724 C 0.75101 0.71083 0.45423 0.0
C725 C 0.74199 0.69547 0.4381 0.0
C726 C 0.74471 0.73293 0.4863 0.0
C727 C 0.74939 0.71459 0.50277 0.0
C728 C 0.74806 0.7706 0.48529 0.0
C729 C 0.74265 0.79123 0.46823 0.0
C730 C 0.76068 0.81189 0.45969 0.0
C731 C 0.7558 0.83038 0.44329 0.0
C732 C 0.73292 0.82853 0.43536 0.0
C733 C 0.71479 0.80851 0.44391 0.0
C734 C 0.71955 0.79007 0.46032 0.0
C735 C 0.79883 0.82922 0.54839 0.0
C736 C 0.78628 0.82672 0.56519 0.0
C737 C 0.79008 0.81205 0.53266 0.0
C738 C 0.76883 0.79181 0.53356 0.0
C739 C 0.75561 0.79075 0.55003 0.0
C740 C 0.76423 0.8082 0.56574 0.0
C741 C 0.76097 0.77077 0.51742 0.0
C742 C 0.75629 0.78908 0.50088 0.0
C743 C 0.75785 0.73297 0.51835 0.0
C744 C 0.76461 0.71164 0.53491 0.0
C745 C 0.74804 0.68764 0.54291 0.0
C746 C 0.75483 0.66608 0.55785 0.0
C747 C 0.7782 0.66813 0.56485 0.0
C748 C 0.79473 0.69212 0.55712 0.0
C749 C 0.78805 0.71368 0.54216 0.0
H750 H 0.78347 0.65119 0.5763 0.0
H751 H 0.7292 0.84261 0.42261 0.0
H752 H 0.36158 0.87648 0.94696 0.0
H753 H 0.36868 0.90559 0.9765 0.0
H754 H 0.36361 0.00979 0.95062 0.0
H755 H 0.35623 0.98083 0.92067 0.0
H756 H 0.40244 0.0008 0.97811 0.0
H757 H 0.31682 0.98156 0.97046 0.0
H758 H 0.28079 0.9449 0.96406 0.0
H759 H 0.29726 0.87675 0.01021 0.0
H760 H 0.33372 0.91255 0.01664 0.0
H761 H 0.37372 0.11109 0.05473 0.0
H762 H 0.37915 0.07888 0.02582 0.0
H763 H 0.36743 0.9779 0.05385 0.0
H764 H 0.36139 0.01004 0.08291 0.0
H765 H 0.33902 0.98273 0.02541 0.0
H766 H 0.42257 -0.00052 0.03467 0.0
H767 H 0.46055 0.03111 0.04144 0.0
H768 H 0.45045 0.09839 0.99389 0.0
H769 H 0.41222 0.06748 0.98696 0.0
C770 C 0.36221 0.90562 0.94737 0.0
C771 C 0.3581 0.92633 0.93138 0.0
C772 C 0.36628 0.92215 0.96433 0.0
C773 C 0.36642 0.95973 0.96572 0.0
C774 C 0.36351 0.98067 0.94975 0.0
C775 C 0.35924 0.9641 0.93269 0.0
C776 C 0.36809 0.97681 0.9841 0.0
C777 C 0.38848 0.99738 0.98842 0.0
C778 C 0.35025 0.9709 0.99769 0.0
C779 C 0.3282 0.9495 0.99389 0.0
C780 C 0.31293 0.95853 0.97912 0.0
C781 C 0.2924 0.93792 0.9755 0.0
C782 C 0.2868 0.90841 0.98667 0.0
C783 C 0.30167 0.89954 0.00153 0.0
C784 C 0.32227 0.91998 0.00516 0.0
C785 C 0.37273 0.08197 0.0549 0.0
C786 C 0.36682 0.06322 0.07117 0.0
C787 C 0.37601 0.06354 0.03831 0.0
C788 C 0.37374 0.02595 0.03764 0.0
C789 C 0.36919 0.00695 0.05404 0.0
C790 C 0.36581 0.02538 0.07066 0.0
C791 C 0.3734 0.00712 0.01958 0.0
C792 C 0.35315 0.98617 0.01523 0.0
C793 C 0.39158 0.01219 0.00612 0.0
C794 C 0.41437 0.03135 0.01039 0.0
C795 C 0.4283 0.02127 0.02576 0.0
C796 C 0.44992 0.03901 0.0296 0.0
C797 C 0.45788 0.06679 0.01812 0.0
C798 C 0.44425 0.07688 0.00278 0.0
C799 C 0.42261 0.05923 -0.00113 0.0
H800 H 0.47465 0.08045 0.0211 0.0
H801 H 0.27091 0.89248 0.98384 0.0
H802 H 0.1151 0.90405 0.55854 0.0
H803 H 0.10987 0.9375 0.52992 0.0
H804 H 0.13898 0.03266 0.55562 0.0
H805 H 0.14453 0.99935 0.58449 0.0
H806 H 0.09823 0.04308 0.52795 0.0
H807 H 0.17937 0.99612 0.53369 0.0
H808 H 0.20807 0.94841 0.54244 0.0
H809 H 0.17393 0.87534 0.50471 0.0
H810 H 0.14522 0.92291 0.49553 0.0
H811 H 0.14382 0.13312 0.44902 0.0
H812 H 0.13705 0.10565 0.47905 0.0
H813 H 0.12654 0.00232 0.45308 0.0
H814 H 0.13396 0.02947 0.42283 0.0
H815 H 0.1561 0.99646 0.4815 0.0
H816 H 0.07852 0.05173 0.47223 0.0
H817 H 0.05104 0.10188 0.46497 0.0
H818 H 0.0787 0.16199 0.51095 0.0
H819 H 0.10652 0.11234 0.51837 0.0
C820 C 0.1199 0.93232 0.55834 0.0
C821 C 0.13064 0.94883 0.57377 0.0
C822 C 0.1168 0.9514 0.54195 0.0
C823 C 0.12425 0.98735 0.54068 0.0
C824 C 0.13307 0.00491 0.55642 0.0
C825 C 0.13628 0.98577 0.57288 0.0
C826 C 0.1261 0.00447 0.52234 0.0
C827 C 0.11095 0.03323 0.51778 0.0
C828 C 0.14256 0.99125 0.50914 0.0
C829 C 0.16022 0.96295 0.51396 0.0
C830 C 0.17806 0.96988 0.52723 0.0
C831 C 0.19432 0.94294 0.53224 0.0
C832 C 0.19284 0.90894 0.5241 0.0
C833 C 0.17508 0.90177 0.51094 0.0
C834 C 0.15892 0.92878 0.50573 0.0
C835 C 0.13974 0.10462 0.44959 0.0
C836 C 0.13934 0.08352 0.43344 0.0
C837 C 0.13579 0.08898 0.46683 0.0
C838 C 0.13093 0.05203 0.46833 0.0
C839 C 0.13018 0.03094 0.45224 0.0
C840 C 0.13437 0.04651 0.43496 0.0
C841 C 0.12796 0.03516 0.48676 0.0
C842 C 0.14309 0.00633 0.49145 0.0
C843 C 0.1116 0.04872 0.50009 0.0
C844 C 0.09467 0.07839 0.4958 0.0
C845 C 0.07881 0.07571 0.48074 0.0
C846 C 0.06316 0.10404 0.47661 0.0
C847 C 0.06314 0.13511 0.48748 0.0
C848 C 0.07872 0.13789 0.50255 0.0
C849 C 0.0944 0.10964 0.50675 0.0
H850 H 0.05103 0.15703 0.48424 0.0
H851 H 0.20561 0.88829 0.52789 0.0
H852 H 0.64524 0.98126 0.92323 0.0
H853 H 0.63801 0.00648 0.95391 0.0
H854 H 0.59362 0.91518 0.96774 0.0
H855 H 0.60086 0.88954 0.93714 0.0
H856 H 0.57766 0.98451 0.98306 0.0
H857 H 0.64643 0.90576 0.97959 0.0
H858 H 0.68383 0.88456 0.9649 0.0
H859 H 0.71678 0.98742 0.97447 0.0
H860 H 0.67938 0.00951 0.98892 0.0
H861 H 0.64271 0.00284 0.07995 0.0
H862 H 0.63387 0.97072 0.05126 0.0
H863 H 0.6029 0.06732 0.02833 0.0
H864 H 0.61138 0.09946 0.0569 0.0
H865 H 0.65375 0.98679 0.0189 0.0
H866 H 0.56134 0.04541 0.99524 0.0
H867 H 0.52262 0.06365 0.00896 0.0
H868 H 0.53544 0.99435 0.05534 0.0
H869 H 0.57403 0.97521 0.04177 0.0
C870 C 0.63333 0.96706 0.93256 0.0
C871 C 0.62386 0.93319 0.92785 0.0
C872 C 0.62928 0.98147 0.9501 0.0
C873 C 0.61553 0.96241 0.96309 0.0
C874 C 0.6043 0.93021 0.95788 0.0
C875 C 0.60855 0.91557 0.94043 0.0
C876 C 0.61564 0.97358 0.98267 0.0
C877 C 0.59421 0.98515 0.99096 0.0
C878 C 0.63716 0.97309 0.99305 0.0
C879 C 0.66002 0.95941 0.98513 0.0
C880 C 0.6616 0.92394 0.97845 0.0
C881 C 0.68277 0.91178 0.97012 0.0
C882 C 0.70259 0.93472 0.96859 0.0
C883 C 0.70136 0.96975 0.97557 0.0
C884 C 0.68019 0.9821 0.98384 0.0
C885 C 0.63349 0.01703 0.06898 0.0
C886 C 0.62794 0.05383 0.0707 0.0
C887 C 0.62853 0.99866 0.05256 0.0
C888 C 0.6177 0.0166 0.03766 0.0
C889 C 0.611 0.05277 0.0397 0.0
C890 C 0.61602 0.07119 0.05605 0.0
C891 C 0.61581 0.99896 0.01935 0.0
C892 C 0.63703 0.98606 0.01119 0.0
C893 C 0.59398 0.99778 0.00926 0.0
C894 C 0.57073 0.00912 0.01754 0.0
C895 C 0.55587 0.03394 0.00833 0.0
C896 C 0.53393 0.04445 0.01609 0.0
C897 C 0.52661 0.03025 0.03303 0.0
C898 C 0.54118 0.00544 0.04224 0.0
C899 C 0.56311 0.9948 0.03454 0.0
H900 H 0.50963 0.03843 0.03902 0.0
H901 H 0.71896 0.92523 0.96215 0.0
H902 H 0.88384 0.90768 0.56054 0.0
H903 H 0.88461 0.93912 0.53092 0.0
H904 H 0.84441 0.02691 0.55466 0.0
H905 H 0.84356 0.99581 0.58435 0.0
H906 H 0.82303 0.99651 0.52341 0.0
H907 H 0.90088 0.04046 0.54219 0.0
H908 H 0.9426 0.03452 0.55333 0.0
H909 H 0.96037 0.97017 0.50602 0.0
H910 H 0.91865 0.97529 0.49473 0.0
H911 H 0.82648 0.12356 0.45043 0.0
H912 H 0.83253 0.09337 0.48005 0.0
H913 H 0.86786 0.00523 0.45237 0.0
H914 H 0.86135 0.03494 0.42251 0.0
H915 H 0.89253 0.03312 0.48476 0.0
H916 H 0.81683 0.99012 0.46486 0.0
H917 H 0.77523 0.99201 0.45329 0.0
H918 H 0.75278 0.0477 0.50225 0.0
H919 H 0.79449 0.04751 0.51384 0.0
C920 C 0.87567 0.93409 0.55961 0.0
C921 C 0.86349 0.9491 0.57481 0.0
C922 C 0.87616 0.95202 0.54266 0.0
C923 C 0.86445 0.98521 0.54061 0.0
C924 C 0.8535 0.00124 0.55599 0.0
C925 C 0.85318 0.9835 0.57299 0.0
C926 C 0.86158 0.00146 0.52209 0.0
C927 C 0.83818 0.00517 0.51507 0.0
C928 C 0.88147 0.01102 0.51095 0.0
C929 C 0.90657 0.00796 0.51771 0.0
C930 C 0.91362 0.02476 0.53425 0.0
C931 C 0.93729 0.02161 0.54057 0.0
C932 C 0.95411 0.0019 0.53041 0.0
C933 C 0.94731 0.98539 0.51388 0.0
C934 C 0.92366 0.98844 0.50751 0.0
C935 C 0.83562 0.09781 0.45064 0.0
C936 C 0.84351 0.08161 0.43417 0.0
C937 C 0.83897 0.08057 0.46755 0.0
C938 C 0.8506 0.04713 0.46833 0.0
C939 C 0.85887 0.03109 0.45198 0.0
C940 C 0.85506 0.04799 0.43498 0.0
C941 C 0.85394 0.02902 0.48631 0.0
C942 C 0.87738 0.02468 0.49315 0.0
C943 C 0.83407 0.01838 0.49722 0.0
C944 C 0.80899 0.0194 0.49009 0.0
C945 C 0.80317 0.00346 0.47302 0.0
C946 C 0.77953 0.00414 0.46647 0.0
C947 C 0.7614 0.02017 0.47698 0.0
C948 C 0.76688 0.03546 0.49409 0.0
C949 C 0.79054 0.03517 0.50063 0.0
H950 H 0.74309 0.02059 0.47191 0.0
H951 H 0.97242 -0.0005 0.53533 0.0
H952 H 0.85896 0.5108 0.07671 0.0
H953 H 0.86596 0.48282 0.04644 0.0
H954 H 0.8664 0.58764 0.0209 0.0
H955 H 0.85974 0.61572 0.05069 0.0
H956 H 0.83471 0.53901 0.00437 0.0
H957 H 0.91715 0.54598 0.02425 0.0
H958 H 0.95133 0.53544 0.04525 0.0
H959 H 0.94118 0.42122 0.04035 0.0
H960 H 0.90671 0.4311 0.01949 0.0
H961 H 0.86106 0.48624 0.91386 0.0
H962 H 0.86681 0.51705 0.94336 0.0
H963 H 0.87666 0.41471 0.97046 0.0
H964 H 0.8718 0.38384 0.94113 0.0
H965 H 0.90441 0.46354 0.98615 0.0
H966 H 0.821 0.45534 0.96828 0.0
H967 H 0.7866 0.46419 0.94727 0.0
H968 H 0.79746 0.57858 0.94902 0.0
H969 H 0.83211 0.57041 0.96992 0.0
C970 C 0.86086 0.52787 0.06468 0.0
C971 C 0.85867 0.56549 0.06619 0.0
C972 C 0.86489 0.51188 0.04743 0.0
C973 C 0.86663 0.53327 0.03149 0.0
C974 C 0.86503 0.57072 0.03304 0.0
C975 C 0.86127 0.58667 0.05017 0.0
C976 C 0.86873 0.51689 0.01297 0.0
C977 C 0.85009 0.52287 0.00029 0.0
C978 C 0.88856 0.4953 0.00786 0.0
C979 C 0.90918 0.4893 0.02048 0.0
C980 C 0.92205 0.51862 0.0278 0.0
C981 C 0.94151 0.51277 0.03964 0.0
C982 C 0.94837 0.47769 0.04417 0.0
C983 C 0.93581 0.44839 0.03685 0.0
C984 C 0.91633 0.4541 0.025 0.0
C985 C 0.86499 0.47033 0.92601 0.0
C986 C 0.86554 0.43251 0.92514 0.0
C987 C 0.86816 0.48797 0.94288 0.0
C988 C 0.87154 0.46808 0.95917 0.0
C989 C 0.87392 0.43059 0.9581 0.0
C990 C 0.87102 0.41298 0.94126 0.0
C991 C 0.87039 0.48569 0.97751 0.0
C992 C 0.8891 0.47984 0.99019 0.0
C993 C 0.85047 0.50715 0.98273 0.0
C994 C 0.8293 0.51223 0.97051 0.0
C995 C 0.81612 0.48238 0.96412 0.0
C996 C 0.79657 0.48728 0.95225 0.0
C997 C 0.78988 0.52193 0.94679 0.0
C998 C 0.80269 0.55177 0.95325 0.0
C999 C 0.82227 0.54702 0.96512 0.0
H1000 H 0.77475 0.52568 0.93759 0.0
H1001 H 0.96346 0.47321 0.05333 0.0
H1002 H 0.63782 0.51317 0.41714 0.0
H1003 H 0.62964 0.48051 0.44598 0.0
H1004 H 0.62918 0.58086 0.47585 0.0
H1005 H 0.63689 0.61362 0.44743 0.0
H1006 H 0.66162 0.52477 0.48955 0.0
H1007 H 0.57876 0.54437 0.46984 0.0
H1008 H 0.54502 0.53847 0.44795 0.0
H1009 H 0.55096 0.42329 0.45018 0.0
H1010 H 0.58498 0.42854 0.47189 0.0
H1011 H 0.62847 0.48424 0.57932 0.0
H1012 H 0.62578 0.51167 0.54878 0.0
H1013 H 0.61049 0.40788 0.52479 0.0
H1014 H 0.61258 0.38026 0.55524 0.0
H1015 H 0.58671 0.46009 0.5066 0.0
H1016 H 0.66629 0.43675 0.52647 0.0
H1017 H 0.70196 0.43765 0.54661 0.0
H1018 H 0.70523 0.55286 0.54245 0.0
H1019 H 0.66937 0.55271 0.52238 0.0
C1020 C 0.63562 0.5283 0.42981 0.0
C1021 C 0.63807 0.56604 0.42992 0.0
C1022 C 0.63096 0.50961 0.44623 0.0
C1023 C 0.62892 0.52839 0.46298 0.0
C1024 C 0.63077 0.56596 0.46305 0.0
C1025 C 0.63508 0.58462 0.44671 0.0
C1026 C 0.62615 0.5092 0.48072 0.0
C1027 C 0.64517 0.51096 0.4934 0.0
C1028 C 0.60506 0.48995 0.48531 0.0
C1029 C 0.58459 0.48686 0.47231 0.0
C1030 C 0.57303 0.5178 0.46552 0.0
C1031 C 0.55381 0.51457 0.45318 0.0
C1032 C 0.5459 0.48053 0.44763 0.0
C1033 C 0.55714 0.44964 0.45446 0.0
C1034 C 0.57637 0.45273 0.46679 0.0
C1035 C 0.62384 0.46735 0.56767 0.0
C1036 C 0.62117 0.42992 0.56975 0.0
C1037 C 0.62246 0.48305 0.55018 0.0
C1038 C 0.61855 0.46162 0.53449 0.0
C1039 C 0.61371 0.42486 0.5367 0.0
C1040 C 0.61497 0.40913 0.55417 0.0
C1041 C 0.62187 0.47684 0.51576 0.0
C1042 C 0.60316 0.47397 0.50282 0.0
C1043 C 0.64352 0.49442 0.51074 0.0
C1044 C 0.66499 0.49473 0.52298 0.0
C1045 C 0.67448 0.46232 0.52993 0.0
C1046 C 0.69477 0.46268 0.54132 0.0
C1047 C 0.70586 0.4953 0.5458 0.0
C1048 C 0.69663 0.52762 0.53894 0.0
C1049 C 0.67633 0.5274 0.52753 0.0
H1050 H 0.72163 0.49552 0.55455 0.0
H1051 H 0.53102 0.47809 0.43808 0.0
H1052 H 0.12251 0.59445 0.05586 0.0
H1053 H 0.11546 0.55928 0.02821 0.0
H1054 H 0.13126 0.46167 0.05814 0.0
H1055 H 0.1394 0.4971 0.08594 0.0
H1056 H 0.15558 0.46161 0.02823 0.0
H1057 H 0.07335 0.48181 0.04073 0.0
H1058 H 0.03672 0.51555 0.04895 0.0
H1059 H 0.04395 0.5797 -2e-05 0.0
H1060 H 0.08085 0.54673 0.99158 0.0
H1061 H 0.13143 0.36024 0.94751 0.0
H1062 H 0.12459 0.38542 0.9781 0.0
H1063 H 0.1267 0.49268 0.95545 0.0
H1064 H 0.13368 0.46779 0.92458 0.0
H1065 H 0.08976 0.48066 0.98303 0.0
H1066 H 0.17547 0.46083 0.97345 0.0
H1067 H 0.21063 0.4232 0.96584 0.0
H1068 H 0.19405 0.35266 0.01104 0.0
H1069 H 0.15849 0.38954 0.01871 0.0
C1070 C 0.12409 0.56544 0.05676 0.0
C1071 C 0.13176 0.5487 0.07316 0.0
C1072 C 0.11985 0.54524 0.04087 0.0
C1073 C 0.12263 0.50769 0.04104 0.0
C1074 C 0.12903 0.49062 0.05764 0.0
C1075 C 0.13357 0.51092 0.07356 0.0
C1076 C 0.12127 0.48709 0.02345 0.0
C1077 C 0.14086 0.46518 0.01857 0.0
C1078 C 0.10226 0.49196 0.01065 0.0
C1079 C 0.08 0.5119 0.01558 0.0
C1080 C 0.06725 0.50328 0.03177 0.0
C1081 C 0.04641 0.52225 0.03646 0.0
C1082 C 0.03804 0.54979 0.02501 0.0
C1083 C 0.05046 0.55836 0.00883 0.0
C1084 C 0.07133 0.5395 0.00409 0.0
C1085 C 0.13015 0.38921 0.94888 0.0
C1086 C 0.13334 0.41201 0.93353 0.0
C1087 C 0.12625 0.40351 0.96644 0.0
C1088 C 0.12539 0.44085 0.96903 0.0
C1089 C 0.12734 0.46373 0.95368 0.0
C1090 C 0.13141 0.44946 0.93607 0.0
C1091 C 0.12417 0.45603 0.98791 0.0
C1092 C 0.10417 0.47683 0.99292 0.0
C1093 C 0.14256 0.44958 0.00099 0.0
C1094 C 0.16414 0.42772 0.99652 0.0
C1095 C 0.17919 0.43713 0.98167 0.0
C1096 C 0.19921 0.41595 0.97736 0.0
C1097 C 0.20452 0.38547 0.98791 0.0
C1098 C 0.18987 0.37621 0.00284 0.0
C1099 C 0.16979 0.39725 0.00718 0.0
H1100 H 0.22001 0.36909 0.98454 0.0
H1101 H 0.0219 0.56443 0.02866 0.0
H1102 H 0.3507 0.38369 0.55346 0.0
H1103 H 0.35749 0.41273 0.52395 0.0
H1104 H 0.37763 0.51094 0.55184 0.0
H1105 H 0.36964 0.48222 0.58172 0.0
H1106 H 0.34966 0.52707 0.52543 0.0
H1107 H 0.41936 0.45328 0.52824 0.0
H1108 H 0.44295 0.39775 0.53261 0.0
H1109 H 0.40639 0.34848 0.48691 0.0
H1110 H 0.38239 0.40356 0.48239 0.0
H1111 H 0.38188 0.61002 0.44199 0.0
H1112 H 0.3882 0.57984 0.47148 0.0
H1113 H 0.35451 0.48388 0.45012 0.0
H1114 H 0.34841 0.51375 0.42033 0.0
H1115 H 0.39342 0.46926 0.47361 0.0
H1116 H 0.32185 0.54503 0.47337 0.0
H1117 H 0.30173 0.60349 0.46849 0.0
H1118 H 0.3461 0.65169 0.51022 0.0
H1119 H 0.36684 0.59375 0.51509 0.0
C1120 C 0.35693 0.41133 0.55342 0.0
C1121 C 0.35981 0.43057 0.57002 0.0
C1122 C 0.36094 0.4279 0.53643 0.0
C1123 C 0.36859 0.46388 0.53556 0.0
C1124 C 0.37184 0.48309 0.55212 0.0
C1125 C 0.36735 0.46666 0.5692 0.0
C1126 C 0.37157 0.48186 0.51731 0.0
C1127 C 0.35966 0.51465 0.51427 0.0
C1128 C 0.38431 0.4656 0.50252 0.0
C1129 C 0.39891 0.43249 0.50508 0.0
C1130 C 0.41623 0.43053 0.5192 0.0
C1131 C 0.42971 0.39914 0.52168 0.0
C1132 C 0.42614 0.36958 0.51007 0.0
C1133 C 0.40916 0.3714 0.4959 0.0
C1134 C 0.39564 0.40273 0.49334 0.0
C1135 C 0.37614 0.58228 0.44342 0.0
C1136 C 0.3643 0.56446 0.42887 0.0
C1137 C 0.37978 0.56509 0.46031 0.0
C1138 C 0.37137 0.52991 0.46311 0.0
C1139 C 0.36103 0.51114 0.44826 0.0
C1140 C 0.35754 0.52825 0.43125 0.0
C1141 C 0.37139 0.51398 0.48189 0.0
C1142 C 0.38372 0.48162 0.48495 0.0
C1143 C 0.35938 0.53086 0.49679 0.0
C1144 C 0.34608 0.56517 0.49444 0.0
C1145 C 0.3274 0.56815 0.48143 0.0
C1146 C 0.31596 0.6012 0.47862 0.0
C1147 C 0.32285 0.6313 0.48891 0.0
C1148 C 0.34096 0.62837 0.50217 0.0
C1149 C 0.35254 0.59545 0.50497 0.0
H1150 H 0.31397 0.6568 0.48679 0.0
H1151 H 0.43657 0.34529 0.51204 0.0
H1152 H 0.30298 0.04631 0.18201 0.0
H1153 H 0.28622 0.03834 0.2131 0.0
H1154 H 0.2637 0.14945 0.21342 0.0
H1155 H 0.28018 0.15761 0.18252 0.0
H1156 H 0.28621 0.12666 0.24625 0.0
H1157 H 0.22475 0.08574 0.20249 0.0
H1158 H 0.21017 0.0459 0.17764 0.0
H1159 H 0.2229 0.95337 0.21178 0.0
H1160 H 0.23793 0.99267 0.23674 0.0
H1161 H 0.19995 0.16048 0.31081 0.0
H1162 H 0.21786 0.15042 0.28051 0.0
H1163 H 0.22349 0.03681 0.29215 0.0
H1164 H 0.20477 0.04665 0.32245 0.0
H1165 H 0.21419 0.04951 0.25531 0.0
H1166 H 0.27106 0.08749 0.30005 0.0
H1167 H 0.28695 0.1246 0.32549 0.0
H1168 H 0.28589 0.21794 0.29054 0.0
H1169 H 0.26962 0.1815 0.26496 0.0
C1170 C 0.29474 0.06914 0.18884 0.0
C1171 C 0.2928 0.10257 0.17982 0.0
C1172 C 0.28507 0.06446 0.2065 0.0
C1173 C 0.27358 0.09324 0.2154 0.0
C1174 C 0.27247 0.12691 0.20672 0.0
C1175 C 0.28184 0.1315 0.18905 0.0
C1176 C 0.26205 0.08869 0.23361 0.0
C1177 C 0.27045 0.10985 0.24825 0.0
C1178 C 0.2421 0.06558 0.23633 0.0
C1179 C 0.23274 0.04211 0.2214 0.0
C1180 C 0.22463 0.05688 0.20465 0.0
C1181 C 0.21625 0.0344 0.19055 0.0
C1182 C 0.21569 0.99711 0.19311 0.0
C1183 C 0.2234 0.98225 0.2098 0.0
C1184 C 0.23184 0.00461 0.22393 0.0
C1185 C 0.20448 0.13324 0.30674 0.0
C1186 C 0.20126 0.10439 0.31899 0.0
C1187 C 0.21477 0.12752 0.28948 0.0
C1188 C 0.22259 0.09303 0.28434 0.0
C1189 C 0.21772 0.06366 0.29594 0.0
C1190 C 0.20701 0.06931 0.31319 0.0
C1191 C 0.23775 0.08879 0.26768 0.0
C1192 C 0.23018 0.06585 0.25343 0.0
C1193 C 0.25881 0.10977 0.26536 0.0
C1194 C 0.26899 0.13177 0.28061 0.0
C1195 C 0.27409 0.11597 0.29781 0.0
C1196 C 0.28317 0.13689 0.31226 0.0
C1197 C 0.2874 0.17362 0.30964 0.0
C1198 C 0.28261 0.18949 0.29255 0.0
C1199 C 0.27348 0.1687 0.27806 0.0
H1200 H 0.29441 0.18978 0.32085 0.0
H1201 H 0.20922 0.97975 0.18217 0.0
H1202 H 0.30261 0.94643 0.8173 0.0
H1203 H 0.28821 0.95448 0.7856 0.0
H1204 H 0.28786 0.83934 0.7779 0.0
H1205 H 0.30174 0.83102 0.80966 0.0
H1206 H 0.30431 0.88555 0.74584 0.0
H1207 H 0.23936 0.86894 0.79144 0.0
H1208 H 0.22038 0.88683 0.82082 0.0
H1209 H 0.21107 0.99442 0.8004 0.0
H1210 H 0.2304 0.97726 0.77096 0.0
H1211 H 0.22411 0.83536 0.67788 0.0
H1212 H 0.24426 0.84155 0.70758 0.0
H1213 H 0.21834 0.95065 0.71226 0.0
H1214 H 0.19769 0.94448 0.68259 0.0
H1215 H 0.21777 0.91883 0.74507 0.0
H1216 H 0.27535 0.9355 0.69798 0.0
H1217 H 0.29727 0.92307 0.66911 0.0
H1218 H 0.32333 0.82363 0.69178 0.0
H1219 H 0.30124 0.83531 0.72069 0.0
C1220 C 0.30013 0.92291 0.80866 0.0
C1221 C 0.30307 0.88808 0.8159 0.0
C1222 C 0.29189 0.92756 0.79062 0.0
C1223 C 0.28693 0.89747 0.77959 0.0
C1224 C 0.2917 0.86282 0.78628 0.0
C1225 C 0.29949 0.85811 0.8044 0.0
C1226 C 0.27377 0.90148 0.76209 0.0
C1227 C 0.2854 0.89271 0.74558 0.0
C1228 C 0.24936 0.91212 0.76188 0.0
C1229 C 0.2365 0.92191 0.77909 0.0
C1230 C 0.23331 0.89643 0.79323 0.0
C1231 C 0.22252 0.90643 0.80989 0.0
C1232 C 0.21461 0.94176 0.81249 0.0
C1233 C 0.21726 0.96708 0.79836 0.0
C1234 C 0.22811 0.95722 0.78169 0.0
C1235 C 0.22243 0.86054 0.68532 0.0
C1236 C 0.20952 0.88954 0.67781 0.0
C1237 C 0.23407 0.86412 0.70224 0.0
C1238 C 0.23337 0.89693 0.71184 0.0
C1239 C 0.21931 0.92524 0.70496 0.0
C1240 C 0.20746 0.9216 0.68805 0.0
C1241 C 0.24809 0.90169 0.72868 0.0
C1242 C 0.23677 0.9122 0.74513 0.0
C1243 C 0.27298 0.8934 0.72876 0.0
C1244 C 0.28647 0.88621 0.71146 0.0
C1245 C 0.28562 0.91089 0.69675 0.0
C1246 C 0.29809 0.90399 0.68039 0.0
C1247 C 0.31166 0.87253 0.67859 0.0
C1248 C 0.31281 0.84798 0.69318 0.0
C1249 C 0.30033 0.85476 0.70958 0.0
H1250 H 0.32131 0.8672 0.66591 0.0
H1251 H 0.20647 0.94948 0.82546 0.0
H1252 H 0.78769 0.8345 0.68552 0.0
H1253 H 0.77165 0.83919 0.71688 0.0
H1254 H 0.7924 0.95102 0.71892 0.0
H1255 H 0.80905 0.94634 0.68765 0.0
H1256 H 0.79397 0.86633 0.75191 0.0
H1257 H 0.7382 0.99109 0.7369 0.0
H1258 H 0.72186 0.02471 0.71032 0.0
H1259 H 0.71554 0.92636 0.67953 0.0
H1260 H 0.73143 0.89215 0.70603 0.0
H1261 H 0.70174 0.94842 0.82125 0.0
H1262 H 0.72273 0.95401 0.79161 0.0
H1263 H 0.72751 0.83823 0.78795 0.0
H1264 H 0.70749 0.83262 0.81777 0.0
H1265 H 0.71699 0.93339 0.75702 0.0
H1266 H 0.78072 0.81206 0.77255 0.0
H1267 H 0.79891 0.78246 0.79963 0.0
H1268 H 0.79236 0.88034 0.83077 0.0
H1269 H 0.77449 0.91069 0.80381 0.0
C1270 C 0.78927 0.85986 0.69281 0.0
C1271 C 0.79951 0.89009 0.68421 0.0
C1272 C 0.78019 0.86247 0.71067 0.0
C1273 C 0.78073 0.8955 0.72 0.0
C1274 C 0.79184 0.92537 0.71181 0.0
C1275 C 0.8014 0.92259 0.69404 0.0
C1276 C 0.76799 0.89903 0.73771 0.0
C1277 C 0.7771 0.88082 0.75309 0.0
C1278 C 0.7465 0.91912 0.73923 0.0
C1279 C 0.73632 0.93918 0.72335 0.0
C1280 C 0.73324 0.97666 0.72447 0.0
C1281 C 0.72405 0.99581 0.70943 0.0
C1282 C 0.71777 0.97771 0.69322 0.0
C1283 C 0.72052 0.94038 0.69206 0.0
C1284 C 0.72964 0.9211 0.70708 0.0
C1285 C 0.70691 0.92422 0.81391 0.0
C1286 C 0.70331 0.8901 0.82182 0.0
C1287 C 0.71894 0.92744 0.79705 0.0
C1288 C 0.72727 0.89657 0.78788 0.0
C1289 C 0.7219 0.86244 0.7951 0.0
C1290 C 0.71033 0.85923 0.81205 0.0
C1291 C 0.74255 0.89967 0.77123 0.0
C1292 C 0.73401 0.91925 0.75603 0.0
C1293 C 0.76489 0.88146 0.76998 0.0
C1294 C 0.77608 0.86356 0.78618 0.0
C1295 C 0.78329 0.82733 0.78514 0.0
C1296 C 0.79352 0.81041 0.80048 0.0
C1297 C 0.79673 0.82947 0.81693 0.0
C1298 C 0.7898 0.86556 0.81804 0.0
C1299 C 0.7796 0.88263 0.80274 0.0
H1300 H 0.80462 0.8163 0.82879 0.0
H1301 H 0.71071 0.99259 0.68157 0.0
H1302 H 0.71744 0.15886 0.17892 0.0
H1303 H 0.73671 0.15178 0.2089 0.0
H1304 H 0.71534 0.04012 0.21031 0.0
H1305 H 0.69537 0.04726 0.18036 0.0
H1306 H 0.71237 0.06963 0.24409 0.0
H1307 H 0.77185 0.06161 0.19749 0.0
H1308 H 0.79384 0.07896 0.16932 0.0
H1309 H 0.81511 0.1784 0.19479 0.0
H1310 H 0.79293 0.16191 0.22303 0.0
H1311 H 0.79378 0.05159 0.3197 0.0
H1312 H 0.77945 0.04027 0.28823 0.0
H1313 H 0.78197 0.15417 0.27678 0.0
H1314 H 0.79618 0.16572 0.30809 0.0
H1315 H 0.79741 0.11028 0.247 0.0
H1316 H 0.73151 0.11883 0.29191 0.0
H1317 H 0.71104 0.09833 0.32024 0.0
H1318 H 0.70388 0.99219 0.29738 0.0
H1319 H 0.72468 0.01196 0.26901 0.0
C1320 C 0.71654 0.1329 0.1857 0.0
C1321 C 0.70514 0.10351 0.1772 0.0
C1322 C 0.72767 0.12884 0.20279 0.0
C1323 C 0.72804 0.09515 0.21156 0.0
C1324 C 0.71544 0.06625 0.20367 0.0
C1325 C 0.704 0.07041 0.1866 0.0
C1326 C 0.74246 0.09024 0.22856 0.0
C1327 C 0.73109 0.07783 0.24464 0.0
C1328 C 0.76698 0.10064 0.22925 0.0
C1329 C 0.78059 0.11059 0.21236 0.0
C1330 C 0.7811 0.08728 0.19706 0.0
C1331 C 0.79361 0.09695 0.18107 0.0
C1332 C 0.80584 0.12978 0.18026 0.0
C1333 C 0.80563 0.15297 0.19544 0.0
C1334 C 0.79311 0.14345 0.21146 0.0
C1335 C 0.79185 0.0741 0.31032 0.0
C1336 C 0.79586 0.10959 0.31637 0.0
C1337 C 0.78358 0.06759 0.29241 0.0
C1338 C 0.77943 0.09645 0.28033 0.0
C1339 C 0.78505 0.13158 0.28594 0.0
C1340 C 0.79305 0.13814 0.30385 0.0
C1341 C 0.76704 0.09101 0.26253 0.0
C1342 C 0.77883 0.10141 0.24631 0.0
C1343 C 0.74308 0.07823 0.26167 0.0
C1344 C 0.72984 0.06676 0.27843 0.0
C1345 C 0.72566 0.09108 0.29296 0.0
C1346 C 0.71401 0.0796 0.30902 0.0
C1347 C 0.70622 0.04396 0.31063 0.0
C1348 C 0.70996 0.01978 0.29613 0.0
C1349 C 0.72167 0.0311 0.28006 0.0
H1350 H 0.69725 0.0351 0.32308 0.0
H1351 H 0.81551 0.13723 0.16787 0.0
H1352 H 0.72053 0.66757 0.31771 0.0
H1353 H 0.73687 0.65989 0.2867 0.0
H1354 H 0.713 0.54937 0.28622 0.0
H1355 H 0.69642 0.55685 0.31735 0.0
H1356 H 0.76214 0.55912 0.27663 0.0
H1357 H 0.68495 0.60417 0.25935 0.0
H1358 H 0.65025 0.64542 0.26052 0.0
H1359 H 0.69558 0.73356 0.24431 0.0
H1360 H 0.73064 0.69295 0.24331 0.0
H1361 H 0.79593 0.54431 0.18031 0.0
H1362 H 0.77822 0.5404 0.21125 0.0
H1363 H 0.78492 0.65565 0.21723 0.0
H1364 H 0.80167 0.65968 0.18618 0.0
H1365 H 0.74077 0.63612 0.2232 0.0
H1366 H 0.81852 0.59301 0.24269 0.0
H1367 H 0.85389 0.55301 0.24279 0.0
H1368 H 0.80873 0.46263 0.25574 0.0
H1369 H 0.77301 0.50199 0.25538 0.0
C1370 C 0.71843 0.64177 0.31092 0.0
C1371 C 0.70722 0.6128 0.31995 0.0
C1372 C 0.72774 0.63745 0.29321 0.0
C1373 C 0.72611 0.60407 0.28425 0.0
C1374 C 0.71439 0.57531 0.29299 0.0
C1375 C 0.70479 0.57973 0.31067 0.0
C1376 C 0.73776 0.59921 0.26612 0.0
C1377 C 0.75726 0.57538 0.26476 0.0
C1378 C 0.73155 0.62101 0.25091 0.0
C1379 C 0.71046 0.64552 0.25137 0.0
C1380 C 0.68756 0.6324 0.25617 0.0
C1381 C 0.66782 0.65566 0.25678 0.0
C1382 C 0.67072 0.6921 0.25253 0.0
C1383 C 0.69336 0.70533 0.24761 0.0
C1384 C 0.71317 0.68218 0.24699 0.0
C1385 C 0.79425 0.56859 0.18851 0.0
C1386 C 0.79998 0.60232 0.18093 0.0
C1387 C 0.78411 0.56636 0.20615 0.0
C1388 C 0.78009 0.59779 0.2165 0.0
C1389 C 0.7876 0.63111 0.20941 0.0
C1390 C 0.79728 0.63339 0.19173 0.0
C1391 C 0.76586 0.59691 0.23378 0.0
C1392 C 0.74567 0.61955 0.23494 0.0
C1393 C 0.77158 0.57415 0.24881 0.0
C1394 C 0.79303 0.55039 0.24875 0.0
C1395 C 0.81608 0.56453 0.24533 0.0
C1396 C 0.8362 0.54198 0.24548 0.0
C1397 C 0.83355 0.50528 0.24919 0.0
C1398 C 0.81076 0.49105 0.2528 0.0
C1399 C 0.79056 0.51347 0.25262 0.0
H1400 H 0.84916 0.48788 0.24933 0.0
H1401 H 0.65541 0.71006 0.25301 0.0
H1402 H 0.78368 0.3377 0.81234 0.0
H1403 H 0.76786 0.34544 0.78111 0.0
H1404 H 0.7781 0.46027 0.78533 0.0
H1405 H 0.79453 0.45263 0.81657 0.0
H1406 H 0.73011 0.43496 0.77316 0.0
H1407 H 0.8138 0.42305 0.75868 0.0
H1408 H 0.85397 0.39517 0.76045 0.0
H1409 H 0.82557 0.29677 0.73822 0.0
H1410 H 0.78513 0.32388 0.73658 0.0
H1411 H 0.69594 0.45307 0.67774 0.0
H1412 H 0.71471 0.45905 0.70818 0.0
H1413 H 0.72939 0.34492 0.70867 0.0
H1414 H 0.71152 0.3391 0.6781 0.0
H1415 H 0.76776 0.37922 0.71805 0.0
H1416 H 0.6842 0.38643 0.73544 0.0
H1417 H 0.64296 0.4108 0.73505 0.0
H1418 H 0.66941 0.5137 0.75293 0.0
H1419 H 0.71088 0.49007 0.75317 0.0
C1420 C 0.78283 0.36455 0.80653 0.0
C1421 C 0.79042 0.39455 0.81679 0.0
C1422 C 0.77382 0.36892 0.78873 0.0
C1423 C 0.77191 0.40339 0.78099 0.0
C1424 C 0.77955 0.43347 0.79112 0.0
C1425 C 0.78905 0.42904 0.80885 0.0
C1426 C 0.76123 0.40754 0.76248 0.0
C1427 C 0.73848 0.4235 0.76096 0.0
C1428 C 0.77204 0.39177 0.74681 0.0
C1429 C 0.79639 0.37544 0.74763 0.0
C1430 C 0.81607 0.39538 0.75431 0.0
C1431 C 0.8389 0.37973 0.75526 0.0
C1432 C 0.84231 0.3442 0.74948 0.0
C1433 C 0.8229 0.32428 0.7427 0.0
C1434 C 0.80003 0.3398 0.74173 0.0
C1435 C 0.70289 0.42923 0.68449 0.0
C1436 C 0.70237 0.39565 0.67554 0.0
C1437 C 0.7136 0.43266 0.70188 0.0
C1438 C 0.72345 0.40242 0.71074 0.0
C1439 C 0.72212 0.3687 0.70205 0.0
C1440 C 0.71182 0.36538 0.6846 0.0
C1441 C 0.73613 0.4057 0.72868 0.0
C1442 C 0.75939 0.39119 0.73011 0.0
C1443 C 0.72559 0.42235 0.74431 0.0
C1444 C 0.70068 0.43662 0.74407 0.0
C1445 C 0.68126 0.41436 0.73911 0.0
C1446 C 0.65783 0.42802 0.73895 0.0
C1447 C 0.65358 0.46382 0.74389 0.0
C1448 C 0.67274 0.48601 0.74906 0.0
C1449 C 0.69621 0.47249 0.74921 0.0
H1450 H 0.63543 0.47433 0.74377 0.0
H1451 H 0.85999 0.33213 0.75023 0.0
H1452 H 0.19979 0.33969 0.81108 0.0
H1453 H 0.21481 0.35247 0.78013 0.0
H1454 H 0.21122 0.46646 0.7912 0.0
H1455 H 0.19588 0.45384 0.82233 0.0
H1456 H 0.19707 0.39433 0.75022 0.0
H1457 H 0.26528 0.49999 0.77132 0.0
H1458 H 0.285 0.52312 0.79947 0.0
H1459 H 0.28229 0.41767 0.82368 0.0
H1460 H 0.26293 0.39385 0.79556 0.0
H1461 H 0.29607 0.45779 0.68158 0.0
H1462 H 0.27619 0.46769 0.71144 0.0
H1463 H 0.26049 0.35417 0.71511 0.0
H1464 H 0.27979 0.34419 0.68538 0.0
H1465 H 0.2805 0.44183 0.74723 0.0
H1466 H 0.20358 0.34193 0.72729 0.0
H1467 H 0.18268 0.32156 0.69913 0.0
H1468 H 0.20122 0.42039 0.67186 0.0
H1469 H 0.22188 0.44162 0.69994 0.0
C1470 C 0.2018 0.3675 0.80683 0.0
C1471 C 0.1968 0.39577 0.81912 0.0
C1472 C 0.21028 0.37476 0.78914 0.0
C1473 C 0.21429 0.41035 0.78349 0.0
C1474 C 0.20831 0.4388 0.79539 0.0
C1475 C 0.19946 0.43155 0.81309 0.0
C1476 C 0.22648 0.41685 0.76568 0.0
C1477 C 0.21527 0.4048 0.74951 0.0
C1478 C 0.24989 0.43175 0.76476 0.0
C1479 C 0.26242 0.4453 0.78144 0.0
C1480 C 0.26903 0.48174 0.78262 0.0
C1481 C 0.28013 0.49496 0.79857 0.0
C1482 C 0.28481 0.47191 0.81338 0.0
C1483 C 0.27858 0.43552 0.81222 0.0
C1484 C 0.26755 0.42215 0.79628 0.0
C1485 C 0.28878 0.43488 0.68896 0.0
C1486 C 0.28917 0.40028 0.68103 0.0
C1487 C 0.2774 0.44061 0.70596 0.0
C1488 C 0.26636 0.4118 0.71521 0.0
C1489 C 0.26838 0.37691 0.70796 0.0
C1490 C 0.27949 0.37124 0.69099 0.0
C1491 C 0.25144 0.41777 0.73187 0.0
C1492 C 0.26209 0.43221 0.74779 0.0
C1493 C 0.22731 0.40557 0.73254 0.0
C1494 C 0.21442 0.39327 0.71571 0.0
C1495 C 0.20306 0.35943 0.71533 0.0
C1496 C 0.19128 0.34771 0.69938 0.0
C1497 C 0.19066 0.36963 0.68371 0.0
C1498 C 0.20176 0.40339 0.68399 0.0
C1499 C 0.21352 0.41527 0.69992 0.0
H1500 H 0.18157 0.36047 0.67136 0.0
H1501 H 0.29332 0.48223 0.82574 0.0
H1502 H 0.22228 0.66546 0.17753 0.0
H1503 H 0.24193 0.6615 0.20756 0.0
H1504 H 0.22687 0.54752 0.20955 0.0
H1505 H 0.20627 0.55168 0.17978 0.0
H1506 H 0.22273 0.57262 0.24227 0.0
H1507 H 0.28349 0.57975 0.19726 0.0
H1508 H 0.30512 0.602 0.16985 0.0
H1509 H 0.31702 0.70359 0.19666 0.0
H1510 H 0.29514 0.68211 0.22416 0.0
H1511 H 0.31024 0.55702 0.31477 0.0
H1512 H 0.29568 0.55095 0.28299 0.0
H1513 H 0.27946 0.66442 0.2816 0.0
H1514 H 0.29345 0.67062 0.31348 0.0
H1515 H 0.30305 0.63024 0.24773 0.0
H1516 H 0.23634 0.61666 0.29244 0.0
H1517 H 0.21854 0.58619 0.31944 0.0
H1518 H 0.22321 0.48448 0.29149 0.0
H1519 H 0.24138 0.51434 0.26441 0.0
C1520 C 0.22291 0.63965 0.18448 0.0
C1521 C 0.21291 0.60884 0.17628 0.0
C1522 C 0.23431 0.63733 0.20156 0.0
C1523 C 0.23656 0.60397 0.21054 0.0
C1524 C 0.22556 0.57347 0.2028 0.0
C1525 C 0.21374 0.5759 0.18582 0.0
C1526 C 0.25082 0.60113 0.22778 0.0
C1527 C 0.24044 0.58474 0.24332 0.0
C1528 C 0.27417 0.61629 0.22918 0.0
C1529 C 0.28749 0.62939 0.21273 0.0
C1530 C 0.29057 0.60692 0.19727 0.0
C1531 C 0.3029 0.61939 0.18172 0.0
C1532 C 0.3124 0.65422 0.1815 0.0
C1533 C 0.30964 0.67662 0.19685 0.0
C1534 C 0.2973 0.6643 0.21244 0.0
C1535 C 0.30407 0.58081 0.30755 0.0
C1536 C 0.30283 0.61428 0.31658 0.0
C1537 C 0.29572 0.57725 0.28946 0.0
C1538 C 0.28644 0.60722 0.28012 0.0
C1539 C 0.28661 0.64106 0.28867 0.0
C1540 C 0.29451 0.64452 0.30685 0.0
C1541 C 0.27452 0.60301 0.2621 0.0
C1542 C 0.28544 0.61788 0.24646 0.0
C1543 C 0.25212 0.58529 0.26046 0.0
C1544 C 0.24043 0.56766 0.27649 0.0
C1545 C 0.23369 0.58778 0.2921 0.0
C1546 C 0.22353 0.57062 0.30741 0.0
C1547 C 0.21981 0.5334 0.30721 0.0
C1548 C 0.22613 0.5133 0.29164 0.0
C1549 C 0.23634 0.53032 0.2763 0.0
H1550 H 0.21201 0.52015 0.3191 0.0
H1551 H 0.32194 0.66383 0.16944 0.0
H1552 H 0.41372 0.1784 0.1335 0.0
H1553 H 0.45379 0.17885 0.14687 0.0
H1554 H 0.43714 0.08273 0.17776 0.0
H1555 H 0.39693 0.08152 0.1641 0.0
H1556 H 0.47673 0.17887 0.18006 0.0
H1557 H 0.48527 0.02707 0.17328 0.0
H1558 H 0.46543 0.97553 0.158 0.0
H1559 H 0.44375 0.044 0.11324 0.0
H1560 H 0.46369 0.09577 0.12817 0.0
H1561 H 0.60112 0.07893 0.16154 0.0
H1562 H 0.56162 0.08096 0.17622 0.0
H1563 H 0.54544 0.17922 0.14701 0.0
H1564 H 0.58484 0.17774 0.13247 0.0
H1565 H 0.52243 0.0742 0.15605 0.0
H1566 H 0.50371 0.2277 0.16798 0.0
H1567 H 0.5248 0.2803 0.18097 0.0
H1568 H 0.56973 0.2105 0.21321 0.0
H1569 H 0.54869 0.15746 0.20066 0.0
C1570 C 0.41834 0.15761 0.14336 0.0
C1571 C 0.40232 0.12935 0.14733 0.0
C1572 C 0.44123 0.15817 0.15116 0.0
C1573 C 0.44853 0.13054 0.16309 0.0
C1574 C 0.43189 0.10407 0.1684 0.0
C1575 C 0.40896 0.10336 0.16051 0.0
C1576 C 0.47442 0.12669 0.16725 0.0
C1577 C 0.48683 0.15593 0.17501 0.0
C1578 C 0.48744 0.09622 0.16115 0.0
C1579 C 0.47564 0.06527 0.15196 0.0
C1580 C 0.47628 0.03104 0.16017 0.0
C1581 C 0.46504 0.00182 0.15157 0.0
C1582 C 0.45325 0.00652 0.1347 0.0
C1583 C 0.4528 0.04042 0.12634 0.0
C1584 C 0.46406 0.0697 0.13486 0.0
C1585 C 0.58938 0.10145 0.15854 0.0
C1586 C 0.59598 0.12784 0.14553 0.0
C1587 C 0.56686 0.10261 0.16703 0.0
C1588 C 0.55064 0.13029 0.16279 0.0
C1589 C 0.55781 0.15793 0.15077 0.0
C1590 C 0.58029 0.1568 0.14227 0.0
C1591 C 0.52501 0.12722 0.16805 0.0
C1592 C 0.51254 0.0966 0.16196 0.0
C1593 C 0.51208 0.1566 0.17551 0.0
C1594 C 0.52461 0.18852 0.18332 0.0
C1595 C 0.51795 0.22353 0.17795 0.0
C1596 C 0.52994 0.25344 0.18522 0.0
C1597 C 0.54861 0.24874 0.19789 0.0
C1598 C 0.5553 0.21411 0.20336 0.0
C1599 C 0.54337 0.1841 0.19615 0.0
H1600 H 0.55788 0.27194 0.20348 0.0
H1601 H 0.44453 0.98388 0.12809 0.0
H1602 H 0.10174 0.80912 0.64632 0.0
H1603 H 0.06145 0.79929 0.65878 0.0
H1604 H 0.05177 0.91405 0.66423 0.0
H1605 H 0.09244 0.92401 0.65238 0.0
H1606 H 0.02408 0.87488 0.68984 0.0
H1607 H 0.04057 0.87746 0.62374 0.0
H1608 H 0.06196 0.85731 0.59575 0.0
H1609 H 0.0374 0.74911 0.60486 0.0
H1610 H 0.01617 0.7686 0.63308 0.0
H1611 H 0.91009 0.92048 0.65373 0.0
H1612 H 0.9507 0.91051 0.66537 0.0
H1613 H 0.94405 0.79696 0.65374 0.0
H1614 H 0.90367 0.80689 0.64159 0.0
H1615 H 0.98016 0.82439 0.6361 0.0
H1616 H 0.95397 0.82832 0.69831 0.0
H1617 H 0.93228 0.8513 0.72553 0.0
H1618 H 0.97334 0.94916 0.7235 0.0
H1619 H 0.99505 0.92703 0.69609 0.0
C1620 C 0.09129 0.83218 0.65073 0.0
C1621 C 0.09982 0.86736 0.64795 0.0
C1622 C 0.06839 0.82652 0.65798 0.0
C1623 C 0.05352 0.85599 0.66199 0.0
C1624 C 0.063 0.89098 0.66117 0.0
C1625 C 0.08614 0.89664 0.65426 0.0
C1626 C 0.02721 0.85103 0.66287 0.0
C1627 C 0.01433 0.86375 0.67819 0.0
C1628 C 0.01467 0.83599 0.64773 0.0
C1629 C 0.02705 0.82437 0.6306 0.0
C1630 C 0.03986 0.84934 0.61981 0.0
C1631 C 0.05195 0.83805 0.60392 0.0
C1632 C 0.0511 0.80193 0.59856 0.0
C1633 C 0.03809 0.77706 0.60905 0.0
C1634 C 0.02603 0.7882 0.625 0.0
C1635 C 0.91706 0.89326 0.65406 0.0
C1636 C 0.90395 0.86459 0.64637 0.0
C1637 C 0.9402 0.88752 0.66091 0.0
C1638 C 0.95039 0.85295 0.66045 0.0
C1639 C 0.93653 0.82385 0.65418 0.0
C1640 C 0.91354 0.82962 0.64712 0.0
C1641 C 0.97661 0.84851 0.66306 0.0
C1642 C 0.98964 0.83437 0.64816 0.0
C1643 C 0.98905 0.86255 0.67852 0.0
C1644 C 0.97607 0.87604 0.69505 0.0
C1645 C 0.95827 0.85485 0.70357 0.0
C1646 C 0.94598 0.86771 0.71906 0.0
C1647 C 0.95141 0.90168 0.72623 0.0
C1648 C 0.96917 0.92284 0.71794 0.0
C1649 C 0.9815 0.91012 0.70244 0.0
H1650 H 0.94188 0.91159 0.73822 0.0
H1651 H 0.06047 0.79323 0.58625 0.0
H1652 H 0.58857 0.9213 0.84728 0.0
H1653 H 0.54768 0.91279 0.8356 0.0
H1654 H 0.55713 0.79762 0.83777 0.0
H1655 H 0.5977 0.80588 0.84993 0.0
H1656 H 0.51771 0.87332 0.80977 0.0
H1657 H 0.51564 0.76782 0.86695 0.0
H1658 H 0.53956 0.74918 0.89404 0.0
H1659 H 0.56295 0.85832 0.902 0.0
H1660 H 0.53884 0.8776 0.87518 0.0
H1661 H 0.40168 0.80092 0.86202 0.0
H1662 H 0.4419 0.79335 0.84917 0.0
H1663 H 0.44532 0.90721 0.83752 0.0
H1664 H 0.40483 0.91485 0.84991 0.0
H1665 H 0.47843 0.82304 0.86565 0.0
H1666 H 0.48753 0.92513 0.80491 0.0
H1667 H 0.46352 0.9465 0.77848 0.0
H1668 H 0.42376 0.84737 0.77823 0.0
H1669 H 0.44775 0.82515 0.80446 0.0
C1670 C 0.58222 0.89421 0.84461 0.0
C1671 C 0.59584 0.8642 0.85005 0.0
C1672 C 0.55896 0.8894 0.83777 0.0
C1673 C 0.54935 0.8546 0.83622 0.0
C1674 C 0.56424 0.82467 0.83909 0.0
C1675 C 0.58728 0.82943 0.84622 0.0
C1676 C 0.52305 0.84988 0.83661 0.0
C1677 C 0.50895 0.86225 0.82188 0.0
C1678 C 0.51186 0.8351 0.85241 0.0
C1679 C 0.52571 0.824 0.86895 0.0
C1680 C 0.5258 0.78781 0.87456 0.0
C1681 C 0.53939 0.77715 0.88985 0.0
C1682 C 0.55283 0.80253 0.89969 0.0
C1683 C 0.55258 0.83867 0.89434 0.0
C1684 C 0.53896 0.84947 0.8791 0.0
C1685 C 0.41083 0.82426 0.85643 0.0
C1686 C 0.40032 0.85861 0.85729 0.0
C1687 C 0.43371 0.81982 0.84896 0.0
C1688 C 0.44656 0.84967 0.84235 0.0
C1689 C 0.43557 0.88368 0.84223 0.0
C1690 C 0.41252 0.88807 0.84951 0.0
C1691 C 0.47262 0.84646 0.83876 0.0
C1692 C 0.48687 0.83302 0.85314 0.0
C1693 C 0.48371 0.86058 0.82272 0.0
C1694 C 0.46937 0.87357 0.80676 0.0
C1695 C 0.47377 0.90779 0.79916 0.0
C1696 C 0.46013 0.92007 0.78422 0.0
C1697 C 0.44209 0.89834 0.77671 0.0
C1698 C 0.43769 0.86423 0.7841 0.0
C1699 C 0.45127 0.8518 0.79903 0.0
H1700 H 0.43155 0.90792 0.76516 0.0
H1701 H 0.5634 0.7942 0.91148 0.0
H1702 H 0.89231 0.0759 0.34627 0.0
H1703 H 0.93378 0.07279 0.33498 0.0
H1704 H 0.95025 0.17204 0.36322 0.0
H1705 H 0.90906 0.17562 0.3744 0.0
H1706 H 0.97151 0.16847 0.32883 0.0
H1707 H 0.96116 0.09199 0.38357 0.0
H1708 H 0.94273 0.0413 0.40045 0.0
H1709 H 0.96583 0.96812 0.35812 0.0
H1710 H 0.98414 0.01853 0.34089 0.0
H1711 H 0.08426 0.18054 0.36805 0.0
H1712 H 0.04297 0.17634 0.35748 0.0
H1713 H 0.0578 0.0728 0.33298 0.0
H1714 H 0.09938 0.0764 0.34393 0.0
H1715 H 0.02029 0.06888 0.35485 0.0
H1716 H 0.04152 0.14506 0.30552 0.0
H1717 H 0.06079 0.19622 0.28967 0.0
H1718 H 0.01823 0.27028 0.32132 0.0
H1719 H -0.00106 0.21964 0.33757 0.0
C1720 C 0.9047 0.09727 0.34992 0.0
C1721 C 0.89744 0.12578 0.36145 0.0
C1722 C 0.92834 0.09545 0.34342 0.0
C1723 C 0.94504 0.1221 0.34836 0.0
C1724 C 0.93758 0.15129 0.3592 0.0
C1725 C 0.91406 0.15309 0.36573 0.0
C1726 C 0.97083 0.11846 0.34381 0.0
C1727 C 0.98227 0.14666 0.33439 0.0
C1728 C 0.98463 0.08924 0.35045 0.0
C1729 C 0.97371 0.05902 0.36084 0.0
C1730 C 0.96213 0.06512 0.37781 0.0
C1731 C 0.95174 0.03645 0.38745 0.0
C1732 C 0.95303 0.00153 0.38033 0.0
C1733 C 0.96478 0.9952 0.36359 0.0
C1734 C 0.97517 0.02379 0.35389 0.0
C1735 C 0.07896 0.15708 0.36015 0.0
C1736 C 0.0951 0.1286 0.35705 0.0
C1737 C 0.05533 0.1549 0.35392 0.0
C1738 C 0.04733 0.12442 0.34425 0.0
C1739 C 0.06365 0.09664 0.34034 0.0
C1740 C 0.0874 0.09876 0.34662 0.0
C1741 C 0.02128 0.11992 0.34066 0.0
C1742 C 0.00968 0.09012 0.34858 0.0
C1743 C 0.00739 0.14772 0.33262 0.0
C1744 C 0.01878 0.17844 0.32279 0.0
C1745 C 0.03635 0.17225 0.30918 0.0
C1746 C 0.04727 0.20118 0.30011 0.0
C1747 C 0.04074 0.23648 0.30448 0.0
C1748 C 0.02324 0.24292 0.31792 0.0
C1749 C 0.01226 0.21409 0.32704 0.0
H1750 H 0.04923 0.25884 0.29746 0.0
H1751 H 0.94498 0.97937 0.38781 0.0
H1752 H 0.90166 0.57586 0.15438 0.0
H1753 H 0.94366 0.57832 0.16456 0.0
H1754 H 0.95209 0.68138 0.13796 0.0
H1755 H 0.91042 0.67944 0.12779 0.0
H1756 H 0.98292 0.62624 0.12521 0.0
H1757 H 0.95509 0.67934 0.18215 0.0
H1758 H 0.93104 0.68153 0.21071 0.0
H1759 H 0.96486 0.58455 0.22982 0.0
H1760 H 0.98888 0.58149 0.20122 0.0
H1761 H 0.09593 0.68328 0.13912 0.0
H1762 H 0.05413 0.68475 0.14909 0.0
H1763 H 0.05932 0.57465 0.16741 0.0
H1764 H 0.10135 0.57276 0.1575 0.0
H1765 H 0.0219 0.62801 0.18689 0.0
H1766 H 0.04587 0.57068 0.12906 0.0
H1767 H 0.07081 0.56796 0.10092 0.0
H1768 H 0.0434 0.67066 0.08369 0.0
H1769 H 0.01865 0.67426 0.11195 0.0
C1770 C 0.91231 0.59939 0.15101 0.0
C1771 C 0.90282 0.62712 0.13995 0.0
C1772 C 0.93623 0.6008 0.15694 0.0
C1773 C 0.95084 0.62995 0.15191 0.0
C1774 C 0.941 0.65864 0.14191 0.0
C1775 C 0.9172 0.65735 0.13605 0.0
C1776 C 0.97708 0.62851 0.15461 0.0
C1777 C 0.99137 0.62686 0.13872 0.0
C1778 C 0.98799 0.62811 0.17225 0.0
C1779 C 0.97357 0.62995 0.18944 0.0
C1780 C 0.95722 0.65826 0.19235 0.0
C1781 C 0.94364 0.65972 0.20857 0.0
C1782 C 0.94636 0.63313 0.22204 0.0
C1783 C 0.96273 0.60509 0.21935 0.0
C1784 C 0.97635 0.6035 0.20314 0.0
C1785 C 0.0885 0.65973 0.14585 0.0
C1786 C 0.10166 0.62752 0.14696 0.0
C1787 C 0.06469 0.66079 0.15175 0.0
C1788 C 0.05372 0.62966 0.15872 0.0
C1789 C 0.06762 0.59893 0.16211 0.0
C1790 C 0.09157 0.59785 0.15626 0.0
C1791 C 0.0274 0.62659 0.15749 0.0
C1792 C 0.01324 0.62711 0.17349 0.0
C1793 C 0.01635 0.62544 0.13994 0.0
C1794 C 0.03063 0.6229 0.12268 0.0
C1795 C 0.0453 0.59279 0.11932 0.0
C1796 C 0.05939 0.59107 0.10336 0.0
C1797 C 0.05873 0.61916 0.09054 0.0
C1798 C 0.04391 0.64895 0.09364 0.0
C1799 C 0.02985 0.65084 0.10963 0.0
H1800 H 0.06966 0.61779 0.0782 0.0
H1801 H 0.93583 0.63431 0.23459 0.0
H1802 H 0.59781 0.41939 0.66416 0.0
H1803 H 0.55828 0.42046 0.67883 0.0
H1804 H 0.54024 0.3201 0.65218 0.0
H1805 H 0.57965 0.31847 0.63774 0.0
H1806 H 0.51965 0.42745 0.65848 0.0
H1807 H 0.49692 0.27593 0.67312 0.0
H1808 H 0.51634 0.22342 0.68759 0.0
H1809 H 0.56201 0.29349 0.71913 0.0
H1810 H 0.54263 0.34649 0.70509 0.0
H1811 H 0.40974 0.32449 0.63606 0.0
H1812 H 0.44952 0.32483 0.64989 0.0
H1813 H 0.43309 0.42432 0.67791 0.0
H1814 H 0.39313 0.4247 0.66375 0.0
H1815 H 0.47081 0.32689 0.68349 0.0
H1816 H 0.4829 0.47741 0.67419 0.0
H1817 H 0.46477 0.52883 0.65766 0.0
H1818 H 0.44326 0.45855 0.61356 0.0
H1819 H 0.4615 0.40688 0.62975 0.0
C1820 C 0.58567 0.39704 0.66179 0.0
C1821 C 0.59173 0.36918 0.64946 0.0
C1822 C 0.56311 0.39767 0.67026 0.0
C1823 C 0.54631 0.37036 0.66666 0.0
C1824 C 0.55302 0.34119 0.65546 0.0
C1825 C 0.57553 0.3405 0.64701 0.0
C1826 C 0.52065 0.37525 0.6715 0.0
C1827 C 0.50907 0.40599 0.66461 0.0
C1828 C 0.5068 0.34714 0.67929 0.0
C1829 C 0.5183 0.31527 0.688 0.0
C1830 C 0.51096 0.28021 0.68326 0.0
C1831 C 0.52201 0.25032 0.69136 0.0
C1832 C 0.54041 0.25512 0.70426 0.0
C1833 C 0.54778 0.28982 0.70911 0.0
C1834 C 0.53679 0.31979 0.70106 0.0
C1835 C 0.41436 0.34628 0.64535 0.0
C1836 C 0.39842 0.37504 0.64843 0.0
C1837 C 0.43708 0.3462 0.65342 0.0
C1838 C 0.44435 0.3748 0.66475 0.0
C1839 C 0.42787 0.40218 0.66904 0.0
C1840 C 0.40509 0.4024 0.66087 0.0
C1841 C 0.47012 0.37805 0.66956 0.0
C1842 C 0.4816 0.34895 0.67822 0.0
C1843 C 0.48401 0.40748 0.66325 0.0
C1844 C 0.47323 0.43833 0.65329 0.0
C1845 C 0.47431 0.47302 0.66096 0.0
C1846 C 0.46403 0.50217 0.65165 0.0
C1847 C 0.45278 0.49693 0.63461 0.0
C1848 C 0.4519 0.46255 0.62679 0.0
C1849 C 0.46219 0.43334 0.63602 0.0
H1850 H 0.44481 0.51952 0.62743 0.0
H1851 H 0.54895 0.23194 0.7105 0.0
H1852 H 0.09937 0.41529 0.83925 0.0
H1853 H 0.05971 0.41654 0.82467 0.0
H1854 H 0.04056 0.31839 0.85293 0.0
H1855 H 0.08009 0.31647 0.86726 0.0
H1856 H 0.02097 0.32075 0.81835 0.0
H1857 H 0.02902 0.40057 0.87227 0.0
H1858 H 0.04724 0.45171 0.88895 0.0
H1859 H 0.02872 0.52257 0.84433 0.0
H1860 H 0.01063 0.47167 0.82731 0.0
H1861 H 0.90981 0.31576 0.86023 0.0
H1862 H 0.94995 0.31633 0.84707 0.0
H1863 H 0.9349 0.41765 0.82033 0.0
H1864 H 0.89461 0.41767 0.83376 0.0
H1865 H 0.97252 0.42314 0.84173 0.0
H1866 H 0.9509 0.34354 0.79423 0.0
H1867 H 0.93142 0.29154 0.77928 0.0
H1868 H 0.97387 0.21923 0.81205 0.0
H1869 H 0.99336 0.27073 0.82743 0.0
C1870 C 0.08684 0.39368 0.84216 0.0
C1871 C 0.09274 0.36615 0.85473 0.0
C1872 C 0.06425 0.39438 0.83374 0.0
C1873 C 0.04716 0.36777 0.83788 0.0
C1874 C 0.05353 0.33914 0.8495 0.0
C1875 C 0.07609 0.3383 0.85784 0.0
C1876 C 0.02172 0.37182 0.83237 0.0
C1877 C 0.01027 0.34318 0.82327 0.0
C1878 C 0.00802 0.40181 0.8382 0.0
C1879 C 0.0188 0.43233 0.84844 0.0
C1880 C 0.02899 0.42703 0.86599 0.0
C1881 C 0.03927 0.45595 0.8755 0.0
C1882 C 0.03922 0.49034 0.86768 0.0
C1883 C 0.02881 0.4959 0.85035 0.0
C1884 C 0.01856 0.46704 0.84076 0.0
C1885 C 0.91476 0.33782 0.85122 0.0
C1886 C 0.89914 0.36705 0.8484 0.0
C1887 C 0.93769 0.33789 0.84349 0.0
C1888 C 0.94541 0.36698 0.83262 0.0
C1889 C 0.92926 0.39491 0.82864 0.0
C1890 C 0.90627 0.39491 0.8364 0.0
C1891 C 0.97137 0.37102 0.8286 0.0
C1892 C 0.98306 0.40128 0.83595 0.0
C1893 C 0.98516 0.34241 0.82125 0.0
C1894 C 0.97361 0.31113 0.812 0.0
C1895 C 0.95601 0.31656 0.79834 0.0
C1896 C 0.94496 0.28715 0.78977 0.0
C1897 C 0.95141 0.2521 0.79471 0.0
C1898 C 0.96893 0.2464 0.80821 0.0
C1899 C 0.98003 0.27571 0.81683 0.0
H1900 H 0.94283 0.22937 0.78807 0.0
H1901 H 0.04717 0.51271 0.87506 0.0
H1902 H 0.40035 0.59617 0.33787 0.0
H1903 H 0.44109 0.59984 0.3254 0.0
H1904 H 0.45646 0.68922 0.36155 0.0
H1905 H 0.41573 0.68624 0.3739 0.0
H1906 H 0.47967 0.69583 0.32799 0.0
H1907 H 0.46702 0.60414 0.37578 0.0
H1908 H 0.44738 0.54983 0.38835 0.0
H1909 H 0.46976 0.48921 0.34088 0.0
H1910 H 0.48928 0.54336 0.32794 0.0
H1911 H 0.5909 0.68879 0.37051 0.0
H1912 H 0.55058 0.69176 0.35785 0.0
H1913 H 0.56395 0.59569 0.32594 0.0
H1914 H 0.60442 0.59192 0.33897 0.0
H1915 H 0.52601 0.58741 0.34622 0.0
H1916 H 0.55028 0.67714 0.30432 0.0
H1917 H 0.57092 0.73176 0.29326 0.0
H1918 H 0.52823 0.79678 0.32967 0.0
H1919 H 0.50756 0.74254 0.34119 0.0
C1920 C 0.41225 0.61702 0.34297 0.0
C1921 C 0.40496 0.64042 0.35719 0.0
C1922 C 0.43547 0.61916 0.33574 0.0
C1923 C 0.45182 0.64445 0.34275 0.0
C1924 C 0.44407 0.66952 0.35595 0.0
C1925 C 0.42082 0.66756 0.36311 0.0
C1926 C 0.47776 0.64175 0.33854 0.0
C1927 C 0.48992 0.67215 0.33183 0.0
C1928 C 0.49091 0.61034 0.34297 0.0
C1929 C 0.4793 0.57782 0.35079 0.0
C1930 C 0.4676 0.57927 0.36798 0.0
C1931 C 0.45651 0.54853 0.37517 0.0
C1932 C 0.45725 0.51612 0.36539 0.0
C1933 C 0.46914 0.51436 0.34842 0.0
C1934 C 0.48021 0.54505 0.34115 0.0
C1935 C 0.58554 0.66861 0.36053 0.0
C1936 C 0.60078 0.63972 0.35603 0.0
C1937 C 0.56248 0.67063 0.35309 0.0
C1938 C 0.55427 0.64411 0.34081 0.0
C1939 C 0.56997 0.6165 0.33536 0.0
C1940 C 0.59305 0.61433 0.34289 0.0
C1941 C 0.5283 0.64214 0.3364 0.0
C1942 C 0.51597 0.61076 0.34157 0.0
C1943 C 0.51513 0.67273 0.3306 0.0
C1944 C 0.52737 0.70564 0.32365 0.0
C1945 C 0.54536 0.70304 0.31006 0.0
C1946 C 0.55707 0.73397 0.30369 0.0
C1947 C 0.5509 0.76772 0.31076 0.0
C1948 C 0.53297 0.77062 0.32419 0.0
C1949 C 0.52121 0.73978 0.33061 0.0
H1950 H 0.56 0.79162 0.30583 0.0
H1951 H 0.44866 0.49234 0.37099 0.0
H1952 H 0.2914 0.99439 0.09904 0.0
H1953 H 0.2652 0.94187 0.0981 0.0
H1954 H 0.20635 0.00563 0.11897 0.0
H1955 H 0.23264 0.05859 0.12011 0.0
H1956 H 0.21422 0.94549 0.13953 0.0
H1957 H 0.20209 0.97071 0.07499 0.0
H1958 H 0.21496 0.98586 0.04333 0.0
H1959 H 0.25878 0.89075 0.04151 0.0
H1960 H 0.24657 0.87558 0.07331 0.0
H1961 H 0.1541 0.76652 0.10397 0.0
H1962 H 0.16134 0.83134 0.10272 0.0
H1963 H 0.22374 0.81864 0.13742 0.0
H1964 H 0.2169 0.75356 0.13854 0.0
H1965 H 0.20349 0.85985 0.08766 0.0
H1966 H 0.22852 0.89964 0.16317 0.0
H1967 H 0.21615 0.88508 0.19496 0.0
H1968 H 0.14707 0.85034 0.17533 0.0
H1969 H 0.15879 0.86541 0.14345 0.0
C1970 C 0.27275 0.9975 0.10307 0.0
C1971 C 0.26414 0.0306 0.10977 0.0
C1972 C 0.25774 0.96747 0.10241 0.0
C1973 C 0.2338 0.96989 0.10839 0.0
C1974 C 0.22477 0.00328 0.11424 0.0
C1975 C 0.23977 0.03352 0.11479 0.0
C1976 C 0.21933 0.93665 0.11041 0.0
C1977 C 0.21166 0.92683 0.12818 0.0
C1978 C 0.21583 0.91257 0.09555 0.0
C1979 C 0.22324 0.92181 0.07645 0.0
C1980 C 0.21452 0.9531 0.06785 0.0
C1981 C 0.22173 0.96174 0.04989 0.0
C1982 C 0.23763 0.93924 0.04039 0.0
C1983 C 0.24639 0.90809 0.04884 0.0
C1984 C 0.23927 0.8994 0.06681 0.0
C1985 C 0.16903 0.77753 0.11174 0.0
C1986 C 0.18499 0.7548 0.12132 0.0
C1987 C 0.17318 0.8146 0.11091 0.0
C1988 C 0.19302 0.82972 0.11999 0.0
C1989 C 0.20819 0.80747 0.13045 0.0
C1990 C 0.20429 0.77029 0.13104 0.0
C1991 C 0.19946 0.86795 0.11694 0.0
C1992 C 0.20572 0.87863 0.09899 0.0
C1993 C 0.20189 0.89263 0.13169 0.0
C1994 C 0.19467 0.8833 0.15084 0.0
C1995 C 0.21065 0.889 0.16561 0.0
C1996 C 0.20375 0.88068 0.18367 0.0
C1997 C 0.18087 0.86665 0.18715 0.0
C1998 C 0.16483 0.86104 0.17259 0.0
C1999 C 0.17161 0.86942 0.15452 0.0
H2000 H 0.17556 0.86021 0.20114 0.0
H2001 H 0.2432 0.94597 0.02649 0.0
H2002 H 0.2664 0.94028 0.62535 0.0
H2003 H 0.29235 0.99324 0.62897 0.0
H2004 H 0.23864 0.05908 0.60242 0.0
H2005 H 0.21257 0.00653 0.599 0.0
H2006 H 0.28623 0.07851 0.59323 0.0
H2007 H 0.23598 0.05206 0.64673 0.0
H2008 H 0.22151 0.01316 0.67201 0.0
H2009 H 0.29331 0.00558 0.69347 0.0
H2010 H 0.30826 0.04406 0.66813 0.0
H2011 H 0.27694 0.24655 0.64718 0.0
H2012 H 0.27023 0.18158 0.64667 0.0
H2013 H 0.34154 0.16537 0.62483 0.0
H2014 H 0.34856 0.23022 0.62538 0.0
H2015 H 0.29257 0.11618 0.65884 0.0
H2016 H 0.3325 0.11264 0.58632 0.0
H2017 H 0.3424 0.15374 0.56061 0.0
H2018 H 0.28501 0.22427 0.57694 0.0
H2019 H 0.27472 0.18348 0.60258 0.0
C2020 C 0.26051 0.96583 0.61973 0.0
C2021 C 0.23745 0.96948 0.61198 0.0
C2022 C 0.27528 0.99602 0.62191 0.0
C2023 C 0.26724 0.02999 0.61613 0.0
C2024 C 0.24513 0.03303 0.60696 0.0
C2025 C 0.23024 0.00306 0.60504 0.0
C2026 C 0.28017 0.06313 0.62149 0.0
C2027 C 0.28812 0.08642 0.60758 0.0
C2028 C 0.28222 0.07361 0.64022 0.0
C2029 C 0.27326 0.0506 0.65545 0.0
C2030 C 0.2487 0.04185 0.65676 0.0
C2031 C 0.24042 0.01994 0.6711 0.0
C2032 C 0.25649 0.00695 0.68433 0.0
C2033 C 0.28089 0.01571 0.68321 0.0
C2034 C 0.28928 0.03756 0.66887 0.0
C2035 C 0.2915 0.22914 0.64282 0.0
C2036 C 0.3131 0.24367 0.63598 0.0
C2037 C 0.28767 0.19199 0.64262 0.0
C2038 C 0.30527 0.16887 0.63544 0.0
C2039 C 0.3277 0.1829 0.63031 0.0
C2040 C 0.33165 0.22003 0.63066 0.0
C2041 C 0.29863 0.13153 0.63055 0.0
C2042 C 0.29164 0.10763 0.64454 0.0
C2043 C 0.29709 0.12064 0.61186 0.0
C2044 C 0.30308 0.14529 0.59647 0.0
C2045 C 0.32203 0.13694 0.58439 0.0
C2046 C 0.32771 0.16018 0.56984 0.0
C2047 C 0.31443 0.19169 0.56718 0.0
C2048 C 0.2954 0.2 0.57905 0.0
C2049 C 0.28966 0.17686 0.59361 0.0
H2050 H 0.31885 0.20957 0.55589 0.0
H2051 H 0.25001 0.99024 0.6955 0.0
H2052 H 0.1442 0.21669 0.87386 0.0
H2053 H 0.15341 0.15245 0.87267 0.0
H2054 H 0.21925 0.17551 0.84354 0.0
H2055 H 0.21044 0.23976 0.84485 0.0
H2056 H 0.16915 0.09522 0.84837 0.0
H2057 H 0.26296 0.14553 0.87061 0.0
H2058 H 0.28038 0.20076 0.88415 0.0
H2059 H 0.21378 0.22238 0.912 0.0
H2060 H 0.19621 0.16709 0.89898 0.0
H2061 H 0.2514 0.95064 0.84797 0.0
H2062 H 0.22677 0.0045 0.84448 0.0
H2063 H 0.23641 0.02844 0.90242 0.0
H2064 H 0.26298 0.97607 0.90536 0.0
H2065 H 0.24338 0.08457 0.88607 0.0
H2066 H 0.17961 -3e-05 0.88033 0.0
H2067 H 0.15775 0.94672 0.86882 0.0
H2068 H 0.15736 0.99122 0.81414 0.0
H2069 H 0.1796 0.04443 0.82522 0.0
C2070 C 0.16018 0.20806 0.86655 0.0
C2071 C 0.17698 0.23334 0.85992 0.0
C2072 C 0.16534 0.17126 0.86583 0.0
C2073 C 0.18723 0.1595 0.8584 0.0
C2074 C 0.20238 0.18428 0.84954 0.0
C2075 C 0.19737 0.22099 0.85038 0.0
C2076 C 0.19666 0.1236 0.86329 0.0
C2077 C 0.18537 0.09256 0.85657 0.0
C2078 C 0.21712 0.12044 0.87474 0.0
C2079 C 0.22821 0.15241 0.88365 0.0
C2080 C 0.25214 0.16195 0.87976 0.0
C2081 C 0.26201 0.19334 0.8873 0.0
C2082 C 0.24813 0.21528 0.89881 0.0
C2083 C 0.22446 0.20563 0.90298 0.0
C2084 C 0.21457 0.17422 0.89556 0.0
C2085 C 0.24782 0.96717 0.85999 0.0
C2086 C 0.25881 0.95944 0.87695 0.0
C2087 C 0.23357 0.9978 0.85805 0.0
C2088 C 0.22926 0.02044 0.87325 0.0
C2089 C 0.23945 0.01156 0.89045 0.0
C2090 C 0.25448 0.98162 0.8922 0.0
C2091 C 0.21635 0.05518 0.87075 0.0
C2092 C 0.22702 0.08647 0.87798 0.0
C2093 C 0.19477 0.0582 0.86036 0.0
C2094 C 0.1814 0.02616 0.85361 0.0
C2095 C 0.17501 0.99831 0.86582 0.0
C2096 C 0.16253 0.96813 0.85938 0.0
C2097 C 0.15616 0.9656 0.84077 0.0
C2098 C 0.16223 0.99327 0.82856 0.0
C2099 C 0.17479 0.02344 0.83492 0.0
H2100 H 0.14652 0.94219 0.8358 0.0
H2101 H 0.25577 0.23959 0.90462 0.0
H2102 H 0.34752 0.77741 0.38571 0.0
H2103 H 0.33792 0.84124 0.38907 0.0
H2104 H 0.26914 0.82338 0.36314 0.0
H2105 H 0.27836 0.75956 0.35986 0.0
H2106 H 0.32547 0.89827 0.3683 0.0
H2107 H 0.22601 0.86364 0.38911 0.0
H2108 H 0.20415 0.81466 0.40486 0.0
H2109 H 0.26944 0.78077 0.43127 0.0
H2110 H 0.29161 0.82993 0.41597 0.0
H2111 H 0.25145 0.04956 0.3584 0.0
H2112 H 0.27465 0.99397 0.35886 0.0
H2113 H 0.25447 0.97697 0.41583 0.0
H2114 H 0.22933 0.03109 0.41464 0.0
H2115 H 0.24848 0.91981 0.40109 0.0
H2116 H 0.31614 0.99571 0.39918 0.0
H2117 H 0.3423 0.04581 0.38938 0.0
H2118 H 0.34823 -0.00057 0.33529 0.0
H2119 H 0.32184 0.94928 0.34468 0.0
C2120 C 0.33057 0.78713 0.38029 0.0
C2121 C 0.31353 0.76313 0.3728 0.0
C2122 C 0.32513 0.82369 0.38227 0.0
C2123 C 0.30259 0.83679 0.37679 0.0
C2124 C 0.28644 0.81358 0.36783 0.0
C2125 C 0.29182 0.77709 0.36587 0.0
C2126 C 0.29502 0.87383 0.38166 0.0
C2127 C 0.30868 0.9032 0.37548 0.0
C2128 C 0.27383 0.88008 0.39198 0.0
C2129 C 0.26054 0.85031 0.4012 0.0
C2130 C 0.2357 0.84582 0.39831 0.0
C2131 C 0.22325 0.81802 0.40718 0.0
C2132 C 0.23542 0.79456 0.41901 0.0
C2133 C 0.26006 0.79888 0.42204 0.0
C2134 C 0.27258 0.82669 0.41326 0.0
C2135 C 0.25252 0.03433 0.37114 0.0
C2136 C 0.23886 0.04451 0.38654 0.0
C2137 C 0.26593 0.00259 0.37146 0.0
C2138 C 0.26674 0.98116 0.38747 0.0
C2139 C 0.25413 0.99272 0.40325 0.0
C2140 C 0.23994 0.02378 0.40267 0.0
C2141 C 0.27834 0.94495 0.38699 0.0
C2142 C 0.26544 0.91542 0.39406 0.0
C2143 C 0.30089 0.93877 0.37837 0.0
C2144 C 0.31688 0.9688 0.37263 0.0
C2145 C 0.3229 0.99629 0.38517 0.0
C2146 C 0.33779 0.02469 0.37969 0.0
C2147 C 0.34689 0.02583 0.36172 0.0
C2148 C 0.34117 0.99851 0.34921 0.0
C2149 C 0.32628 0.97004 0.35461 0.0
H2150 H 0.3584 0.04785 0.3575 0.0
H2151 H 0.22574 0.77307 0.42586 0.0
H2152 H 0.83675 0.2245 0.88845 0.0
H2153 H 0.82508 0.16166 0.88899 0.0
H2154 H 0.77781 0.17952 0.84255 0.0
H2155 H 0.78816 0.24363 0.84299 0.0
H2156 H 0.7541 0.14785 0.86591 0.0
H2157 H 0.83089 0.12177 0.84169 0.0
H2158 H 0.87498 0.12425 0.83828 0.0
H2159 H 0.88363 0.07949 0.8925 0.0
H2160 H 0.83959 0.07719 0.89636 0.0
H2161 H 0.75655 0.94045 0.86878 0.0
H2162 H 0.77976 0.99553 0.86424 0.0
H2163 H 0.73541 0.04998 0.90442 0.0
H2164 H 0.71111 0.99545 0.90802 0.0
H2165 H 0.8058 0.04249 0.8798 0.0
H2166 H 0.72084 0.1322 0.89067 0.0
H2167 H 0.67675 0.12638 0.88845 0.0
H2168 H 0.68474 0.03944 0.84986 0.0
H2169 H 0.72887 0.04505 0.85168 0.0
C2170 C 0.82443 0.21487 0.87796 0.0
C2171 C 0.81333 0.23893 0.86566 0.0
C2172 C 0.81782 0.17871 0.87823 0.0
C2173 C 0.80066 0.1655 0.86573 0.0
C2174 C 0.79097 0.18904 0.85244 0.0
C2175 C 0.797 0.22558 0.85258 0.0
C2176 C 0.79063 0.1287 0.86817 0.0
C2177 C 0.76552 0.12483 0.86872 0.0
C2178 C 0.80535 0.09827 0.87158 0.0
C2179 C 0.8319 0.09952 0.86935 0.0
C2180 C 0.84218 0.11268 0.85294 0.0
C2181 C 0.86718 0.11402 0.85092 0.0
C2182 C 0.8821 0.10209 0.86517 0.0
C2183 C 0.87205 0.08872 0.88147 0.0
C2184 C 0.84707 0.08734 0.88357 0.0
C2185 C 0.75221 0.96391 0.87703 0.0
C2186 C 0.73192 0.96401 0.88858 0.0
C2187 C 0.76545 0.99542 0.87439 0.0
C2188 C 0.75884 0.02722 0.88354 0.0
C2189 C 0.74032 0.02606 0.89675 0.0
C2190 C 0.7266 0.99489 0.89895 0.0
C2191 C 0.76946 0.06215 0.87784 0.0
C2192 C 0.79456 0.06559 0.87675 0.0
C2193 C 0.75476 0.0918 0.87297 0.0
C2194 C 0.72818 0.0888 0.8715 0.0
C2195 C 0.7132 0.11194 0.88167 0.0
C2196 C 0.6882 0.10866 0.88049 0.0
C2197 C 0.67795 0.08247 0.86907 0.0
C2198 C 0.69269 0.05963 0.85875 0.0
C2199 C 0.7177 0.06284 0.85985 0.0
H2200 H 0.65859 0.07994 0.8682 0.0
H2201 H 0.90144 0.10316 0.86358 0.0
H2202 H 0.75182 0.04477 0.41009 0.0
H2203 H 0.72844 0.98883 0.40951 0.0
H2204 H 0.72064 0.9987 0.35042 0.0
H2205 H 0.74222 0.05606 0.35129 0.0
H2206 H 0.68424 0.96265 0.36285 0.0
H2207 H 0.77126 0.95423 0.37182 0.0
H2208 H 0.80874 0.96845 0.38859 0.0
H2209 H 0.77958 0.92158 0.43795 0.0
H2210 H 0.74181 0.90764 0.42152 0.0
H2211 H 0.7242 0.76018 0.35943 0.0
H2212 H 0.7312 0.82497 0.35872 0.0
H2213 H 0.66192 0.84319 0.38381 0.0
H2214 H 0.65457 0.77839 0.38442 0.0
H2215 H 0.73509 0.86546 0.38898 0.0
H2216 H 0.64283 0.92899 0.37144 0.0
H2217 H 0.60697 0.91555 0.35259 0.0
H2218 H 0.64979 0.8507 0.31618 0.0
H2219 H 0.68595 0.86414 0.33465 0.0
C2220 C 0.74416 0.03563 0.39715 0.0
C2221 C 0.74874 0.05437 0.38074 0.0
C2222 C 0.73105 0.00356 0.39677 0.0
C2223 C 0.72358 0.98884 0.37982 0.0
C2224 C 0.72633 0.00931 0.36365 0.0
C2225 C 0.73866 0.04208 0.36414 0.0
C2226 C 0.71619 0.95047 0.37848 0.0
C2227 C 0.69523 0.94139 0.36869 0.0
C2228 C 0.73078 0.92258 0.38577 0.0
C2229 C 0.75375 0.92992 0.39546 0.0
C2230 C 0.77289 0.94693 0.38624 0.0
C2231 C 0.79415 0.95503 0.3957 0.0
C2232 C 0.79654 0.94594 0.41433 0.0
C2233 C 0.77772 0.92858 0.42352 0.0
C2234 C 0.7564 0.92051 0.41413 0.0
C2235 C 0.71018 0.7779 0.36444 0.0
C2236 C 0.68891 0.76394 0.37215 0.0
C2237 C 0.71428 0.81497 0.36409 0.0
C2238 C 0.69716 0.83887 0.37132 0.0
C2239 C 0.67531 0.82525 0.37804 0.0
C2240 C 0.67117 0.78812 0.37838 0.0
C2241 C 0.70317 0.87757 0.3733 0.0
C2242 C 0.72392 0.88666 0.38328 0.0
C2243 C 0.68862 0.90526 0.36588 0.0
C2244 C 0.66703 0.89725 0.35457 0.0
C2245 C 0.6446 0.91194 0.35938 0.0
C2246 C 0.62422 0.90432 0.34877 0.0
C2247 C 0.62608 0.88217 0.33324 0.0
C2248 C 0.64835 0.86771 0.32825 0.0
C2249 C 0.66878 0.87528 0.33881 0.0
H2250 H 0.61028 0.87629 0.32504 0.0
H2251 H 0.81296 0.95236 0.42164 0.0
H2252 H 0.76491 0.05691 0.11862 0.0
H2253 H 0.79176 0.0047 0.11961 0.0
H2254 H 0.73379 0.93644 0.10106 0.0
H2255 H 0.70698 0.98825 0.09992 0.0
H2256 H 0.78354 0.9478 0.14273 0.0
H2257 H 0.75615 0.86435 0.07838 0.0
H2258 H 0.74415 0.87439 0.04604 0.0
H2259 H 0.78251 0.97477 0.04555 0.0
H2260 H 0.79509 0.96507 0.0778 0.0
H2261 H 0.7809 0.75442 0.14495 0.0
H2262 H 0.77404 0.81941 0.14319 0.0
H2263 H 0.84085 0.8327 0.1138 0.0
H2264 H 0.84824 0.76814 0.1158 0.0
H2265 H 0.79665 0.85464 0.09473 0.0
H2266 H 0.8401 0.87211 0.15098 0.0
H2267 H 0.85044 0.86074 0.18355 0.0
H2268 H 0.77917 0.89146 0.20004 0.0
H2269 H 0.76827 0.90249 0.16754 0.0
C2270 C 0.75809 0.03096 0.11424 0.0
C2271 C 0.73379 0.0266 0.10933 0.0
C2272 C 0.77341 0.00117 0.11491 0.0
C2273 C 0.76475 0.96679 0.1104 0.0
C2274 C 0.74091 0.96281 0.1044 0.0
C2275 C 0.72557 0.99243 0.10385 0.0
C2276 C 0.77949 0.93442 0.11394 0.0
C2277 C 0.78674 0.92763 0.13218 0.0
C2278 C 0.78359 0.90819 0.10014 0.0
C2279 C 0.77646 0.91405 0.08059 0.0
C2280 C 0.76217 0.88847 0.07135 0.0
C2281 C 0.75523 0.89412 0.05303 0.0
C2282 C 0.76251 0.92525 0.04376 0.0
C2283 C 0.77682 0.95072 0.05277 0.0
C2284 C 0.78384 0.94518 0.07108 0.0
C2285 C 0.79451 0.77127 0.13864 0.0
C2286 C 0.81494 0.75598 0.1303 0.0
C2287 C 0.79057 0.80837 0.13766 0.0
C2288 C 0.80688 0.83057 0.12823 0.0
C2289 C 0.8281 0.81585 0.12111 0.0
C2290 C 0.83227 0.77891 0.12234 0.0
C2291 C 0.80004 0.86781 0.12355 0.0
C2292 C 0.79402 0.87527 0.10515 0.0
C2293 C 0.79685 0.89446 0.13721 0.0
C2294 C 0.80332 0.88789 0.15679 0.0
C2295 C 0.82656 0.87614 0.16153 0.0
C2296 C 0.83254 0.86982 0.17999 0.0
C2297 C 0.81546 0.87531 0.19385 0.0
C2298 C 0.79238 0.8872 0.18929 0.0
C2299 C 0.7863 0.89354 0.17085 0.0
H2300 H 0.82012 0.8704 0.20814 0.0
H2301 H 0.75709 0.92962 0.02959 0.0
H2302 H 0.64411 0.2268 0.62567 0.0
H2303 H 0.65291 0.16207 0.62494 0.0
H2304 H 0.72861 0.18492 0.63012 0.0
H2305 H 0.7202 0.24914 0.63118 0.0
H2306 H 0.70938 0.14441 0.59599 0.0
H2307 H 0.70901 0.15057 0.6637 0.0
H2308 H 0.68939 0.16107 0.69374 0.0
H2309 H 0.636 0.08133 0.68088 0.0
H2310 H 0.65513 0.07076 0.65061 0.0
H2311 H 0.79218 0.01107 0.6124 0.0
H2312 H 0.76495 0.06202 0.61106 0.0
H2313 H 0.70456 0.99155 0.62094 0.0
H2314 H 0.73204 0.93988 0.6226 0.0
H2315 H 0.7038 0.04902 0.6437 0.0
H2316 H 0.70992 0.03253 0.57935 0.0
H2317 H 0.72911 0.02119 0.54923 0.0
H2318 H 0.76968 0.11904 0.55436 0.0
H2319 H 0.75109 0.13072 0.58466 0.0
C2320 C 0.66258 0.21803 0.62717 0.0
C2321 C 0.68149 0.24325 0.6282 0.0
C2322 C 0.66753 0.18107 0.62671 0.0
C2323 C 0.69139 0.16903 0.62727 0.0
C2324 C 0.71008 0.19391 0.62957 0.0
C2325 C 0.70519 0.23063 0.63019 0.0
C2326 C 0.69754 0.13119 0.62342 0.0
C2327 C 0.70814 0.12338 0.60634 0.0
C2328 C 0.69479 0.10368 0.63668 0.0
C2329 C 0.68323 0.11034 0.65477 0.0
C2330 C 0.69289 0.13565 0.66716 0.0
C2331 C 0.68192 0.14151 0.68426 0.0
C2332 C 0.66139 0.122 0.68918 0.0
C2333 C 0.65185 0.09651 0.67702 0.0
C2334 C 0.66274 0.09058 0.6599 0.0
C2335 C 0.77308 0.00619 0.61407 0.0
C2336 C 0.76428 0.97144 0.6177 0.0
C2337 C 0.75748 0.03537 0.61314 0.0
C2338 C 0.73268 0.03053 0.61568 0.0
C2339 C 0.72364 0.99576 0.61883 0.0
C2340 C 0.73933 0.96632 0.61969 0.0
C2341 C 0.71695 0.06261 0.61656 0.0
C2342 C 0.70442 0.06949 0.63303 0.0
C2343 C 0.71777 0.0893 0.60263 0.0
C2344 C 0.72909 0.08246 0.58436 0.0
C2345 C 0.72305 0.05153 0.57413 0.0
C2346 C 0.73382 0.04505 0.55701 0.0
C2347 C 0.7506 0.06937 0.5499 0.0
C2348 C 0.75665 0.10024 0.55989 0.0
C2349 C 0.74597 0.10684 0.57703 0.0
H2350 H 0.75892 0.06432 0.53665 0.0
H2351 H 0.65294 0.12654 0.70243 0.0
H2352 H 0.71509 0.25054 0.14021 0.0
H2353 H 0.72167 0.31549 0.141 0.0
H2354 H 0.65419 0.33247 0.11298 0.0
H2355 H 0.64737 0.26756 0.11212 0.0
H2356 H 0.69186 0.36404 0.09517 0.0
H2357 H 0.65977 0.36236 0.15588 0.0
H2358 H 0.65473 0.34108 0.18787 0.0
H2359 H 0.72833 0.36762 0.19965 0.0
H2360 H 0.73392 0.38857 0.16765 0.0
H2361 H 0.73168 0.55634 0.13043 0.0
H2362 H 0.70472 0.50415 0.13135 0.0
H2363 H 0.7568 0.44174 0.10099 0.0
H2364 H 0.78378 0.4935 0.10002 0.0
H2365 H 0.71583 0.44012 0.14836 0.0
H2366 H 0.72768 0.38014 0.07472 0.0
H2367 H 0.73206 0.40145 0.04269 0.0
H2368 H 0.69605 0.49996 0.05677 0.0
H2369 H 0.6911 0.4789 0.08881 0.0
C2370 C 0.70135 0.26806 0.1346 0.0
C2371 C 0.68082 0.25374 0.12595 0.0
C2372 C 0.70511 0.30522 0.13512 0.0
C2373 C 0.68842 0.32874 0.12701 0.0
C2374 C 0.66728 0.31472 0.11929 0.0
C2375 C 0.6634 0.27758 0.11889 0.0
C2376 C 0.69447 0.36731 0.12478 0.0
C2377 C 0.69682 0.38089 0.1068 0.0
C2378 C 0.70055 0.38935 0.13999 0.0
C2379 C 0.69729 0.37688 0.1593 0.0
C2380 C 0.67493 0.36343 0.16524 0.0
C2381 C 0.67197 0.35146 0.18339 0.0
C2382 C 0.69121 0.35296 0.19578 0.0
C2383 C 0.71344 0.36649 0.19004 0.0
C2384 C 0.7165 0.37847 0.1719 0.0
C2385 C 0.73715 0.53174 0.12359 0.0
C2386 C 0.75992 0.52897 0.11523 0.0
C2387 C 0.72178 0.50194 0.12422 0.0
C2388 C 0.72875 0.46918 0.11621 0.0
C2389 C 0.75096 0.4669 0.10709 0.0
C2390 C 0.76641 0.49647 0.10662 0.0
C2391 C 0.71407 0.43628 0.11872 0.0
C2392 C 0.71029 0.42365 0.13675 0.0
C2393 C 0.70654 0.41517 0.10355 0.0
C2394 C 0.70916 0.42795 0.08422 0.0
C2395 C 0.72057 0.40622 0.07096 0.0
C2396 C 0.72317 0.41829 0.0528 0.0
C2397 C 0.71439 0.45209 0.0477 0.0
C2398 C 0.70292 0.47383 0.06075 0.0
C2399 C 0.70024 0.46184 0.07893 0.0
H2400 H 0.71644 0.46142 0.03364 0.0
H2401 H 0.68888 0.34368 0.20982 0.0
H2402 H 0.69977 0.50233 0.58877 0.0
H2403 H 0.72413 0.55719 0.5877 0.0
H2404 H 0.77576 0.50813 0.62449 0.0
H2405 H 0.75244 0.45266 0.62435 0.0
H2406 H 0.73111 0.6006 0.6126 0.0
H2407 H 0.82905 0.54694 0.62457 0.0
H2408 H 0.85473 0.49714 0.61371 0.0
H2409 H 0.81152 0.48685 0.56487 0.0
H2410 H 0.78578 0.5369 0.5753 0.0
H2411 H 0.79265 0.74464 0.65023 0.0
H2412 H 0.77931 0.68219 0.64683 0.0
H2413 H 0.82215 0.67189 0.59743 0.0
H2414 H 0.83653 0.73317 0.60131 0.0
H2415 H 0.82005 0.61061 0.61183 0.0
H2416 H 0.76232 0.70029 0.59756 0.0
H2417 H 0.73589 0.75258 0.60215 0.0
H2418 H 0.6979 0.69606 0.64485 0.0
H2419 H 0.72429 0.64335 0.6406 0.0
C2420 C 0.71674 0.50304 0.59612 0.0
C2421 C 0.72434 0.47331 0.60655 0.0
C2422 C 0.73057 0.53443 0.59563 0.0
C2423 C 0.7519 0.53701 0.606 0.0
C2424 C 0.75981 0.50676 0.61595 0.0
C2425 C 0.74638 0.47501 0.61595 0.0
C2426 C 0.76442 0.5722 0.60807 0.0
C2427 C 0.75056 0.60272 0.61228 0.0
C2428 C 0.78979 0.57546 0.60727 0.0
C2429 C 0.80535 0.54551 0.60082 0.0
C2430 C 0.82509 0.53418 0.61147 0.0
C2431 C 0.83964 0.50587 0.6054 0.0
C2432 C 0.83472 0.48878 0.58864 0.0
C2433 C 0.81526 0.50003 0.57788 0.0
C2434 C 0.80066 0.52833 0.58389 0.0
C2435 C 0.79982 0.72861 0.63901 0.0
C2436 C 0.8154 0.74396 0.62593 0.0
C2437 C 0.79203 0.69306 0.63697 0.0
C2438 C 0.79903 0.67279 0.62148 0.0
C2439 C 0.81629 0.68703 0.60939 0.0
C2440 C 0.82455 0.72219 0.61168 0.0
C2441 C 0.78671 0.63852 0.6168 0.0
C2442 C 0.8006 0.60833 0.61206 0.0
C2443 C 0.76129 0.63601 0.61615 0.0
C2444 C 0.7454 0.6678 0.61879 0.0
C2445 C 0.74837 0.69891 0.60793 0.0
C2446 C 0.7334 0.7287 0.61049 0.0
C2447 C 0.71523 0.72767 0.6238 0.0
C2448 C 0.71199 0.69682 0.63455 0.0
C2449 C 0.72695 0.66695 0.63206 0.0
H2450 H 0.70366 0.75076 0.62577 0.0
H2451 H 0.846 0.46686 0.58397 0.0
H2452 H 0.6476 0.72277 0.88738 0.0
H2453 H 0.65727 0.65872 0.88854 0.0
H2454 H 0.72143 0.67792 0.85659 0.0
H2455 H 0.71213 0.7422 0.85551 0.0
H2456 H 0.69815 0.61097 0.84866 0.0
H2457 H 0.72801 0.68219 0.89942 0.0
H2458 H 0.72444 0.72483 0.92539 0.0
H2459 H 0.67581 0.65276 0.95287 0.0
H2460 H 0.67875 0.60996 0.92688 0.0
H2461 H 0.78841 0.49936 0.89976 0.0
H2462 H 0.76273 0.55249 0.89985 0.0
H2463 H 0.70449 0.48995 0.87696 0.0
H2464 H 0.73026 0.43652 0.87663 0.0
H2465 H 0.71981 0.5757 0.91266 0.0
H2466 H 0.6813 0.54057 0.84111 0.0
H2467 H 0.69067 0.50134 0.81454 0.0
H2468 H 0.76586 0.50643 0.82782 0.0
H2469 H 0.75696 0.5461 0.85426 0.0
C2470 C 0.66338 0.7133 0.88009 0.0
C2471 C 0.67934 0.73764 0.8716 0.0
C2472 C 0.66888 0.67669 0.88083 0.0
C2473 C 0.69019 0.66388 0.87289 0.0
C2474 C 0.70491 0.68746 0.86283 0.0
C2475 C 0.69961 0.72416 0.86229 0.0
C2476 C 0.69889 0.62732 0.87716 0.0
C2477 C 0.70251 0.60295 0.86266 0.0
C2478 C 0.70511 0.61744 0.89541 0.0
C2479 C 0.7033 0.64312 0.91107 0.0
C2480 C 0.71634 0.67561 0.9109 0.0
C2481 C 0.71447 0.69978 0.92564 0.0
C2482 C 0.69983 0.69158 0.94073 0.0
C2483 C 0.68708 0.65913 0.94114 0.0
C2484 C 0.68883 0.63492 0.9264 0.0
C2485 C 0.76997 0.49669 0.89513 0.0
C2486 C 0.76149 0.46401 0.8878 0.0
C2487 C 0.75526 0.52703 0.8953 0.0
C2488 C 0.73191 0.52524 0.88805 0.0
C2489 C 0.72261 0.49188 0.88238 0.0
C2490 C 0.73731 0.46138 0.88228 0.0
C2491 C 0.71886 0.55906 0.88418 0.0
C2492 C 0.71464 0.58314 0.89873 0.0
C2493 C 0.71279 0.5691 0.8659 0.0
C2494 C 0.7184 0.54587 0.8498 0.0
C2495 C 0.69982 0.53338 0.83831 0.0
C2496 C 0.70506 0.51108 0.82327 0.0
C2497 C 0.72883 0.50125 0.81954 0.0
C2498 C 0.74744 0.51391 0.83077 0.0
C2499 C 0.74231 0.5363 0.84578 0.0
H2500 H 0.73284 0.48392 0.80793 0.0
H2501 H 0.69842 0.71031 0.95213 0.0
H2502 H 0.71447 0.49524 0.39369 0.0
H2503 H 0.74232 0.44476 0.39144 0.0
H2504 H 0.79941 0.51736 0.37589 0.0
H2505 H 0.77162 0.56821 0.37807 0.0
H2506 H 0.79331 0.46207 0.3512 0.0
H2507 H 0.80285 0.47476 0.41647 0.0
H2508 H 0.78979 0.48117 0.44883 0.0
H2509 H 0.75335 0.37936 0.44582 0.0
H2510 H 0.76587 0.37257 0.41339 0.0
H2511 H 0.85336 0.27685 0.37866 0.0
H2512 H 0.84938 0.3422 0.38007 0.0
H2513 H 0.78528 0.33644 0.34674 0.0
H2514 H 0.78881 0.27094 0.34548 0.0
H2515 H 0.80668 0.36579 0.39746 0.0
H2516 H 0.78038 0.42113 0.32492 0.0
H2517 H 0.79288 0.41418 0.29248 0.0
H2518 H 0.86281 0.37906 0.30997 0.0
H2519 H 0.85093 0.38646 0.34252 0.0
C2520 C 0.73306 0.50063 0.39016 0.0
C2521 C 0.74077 0.53573 0.38592 0.0
C2522 C 0.74899 0.47175 0.38896 0.0
C2523 C 0.77292 0.47739 0.38352 0.0
C2524 C 0.781 0.51254 0.38013 0.0
C2525 C 0.76511 0.54154 0.38147 0.0
C2526 C 0.78854 0.44613 0.37956 0.0
C2527 C 0.79654 0.44115 0.36135 0.0
C2528 C 0.7929 0.41916 0.3929 0.0
C2529 C 0.78525 0.42325 0.41244 0.0
C2530 C 0.7919 0.45387 0.42266 0.0
C2531 C 0.78461 0.45754 0.44104 0.0
C2532 C 0.77075 0.43071 0.44938 0.0
C2533 C 0.76411 0.40013 0.43936 0.0
C2534 C 0.77134 0.39633 0.42099 0.0
C2535 C 0.8389 0.28949 0.37102 0.0
C2536 C 0.8211 0.26864 0.36225 0.0
C2537 C 0.83668 0.32688 0.37189 0.0
C2538 C 0.81697 0.34399 0.36363 0.0
C2539 C 0.80069 0.32367 0.35312 0.0
C2540 C 0.80268 0.28622 0.35248 0.0
C2541 C 0.81059 0.38115 0.36895 0.0
C2542 C 0.80408 0.3871 0.38742 0.0
C2543 C 0.80738 0.40877 0.3558 0.0
C2544 C 0.81467 0.40412 0.33622 0.0
C2545 C 0.79847 0.41208 0.32187 0.0
C2546 C 0.80544 0.40805 0.30345 0.0
C2547 C 0.8286 0.3961 0.29917 0.0
C2548 C 0.84485 0.38819 0.3133 0.0
C2549 C 0.83798 0.39224 0.33175 0.0
H2550 H 0.83397 0.39302 0.28489 0.0
H2551 H 0.76519 0.43357 0.46362 0.0
H2552 H 0.33468 0.71844 0.89278 0.0
H2553 H 0.3242 0.65494 0.89242 0.0
H2554 H 0.2802 0.67198 0.84409 0.0
H2555 H 0.28952 0.73636 0.84514 0.0
H2556 H 0.25539 0.63887 0.86699 0.0
H2557 H 0.33408 0.61805 0.84448 0.0
H2558 H 0.37825 0.62304 0.84276 0.0
H2559 H 0.38463 0.57467 0.89635 0.0
H2560 H 0.34048 0.56983 0.89851 0.0
H2561 H 0.258 0.43264 0.86512 0.0
H2562 H 0.28134 0.48795 0.86155 0.0
H2563 H 0.23937 0.53821 0.90452 0.0
H2564 H 0.21531 0.48344 0.90762 0.0
H2565 H 0.3085 0.5345 0.87979 0.0
H2566 H 0.22196 0.61944 0.89134 0.0
H2567 H 0.17802 0.61198 0.88854 0.0
H2568 H 0.18827 0.52921 0.8479 0.0
H2569 H 0.23224 0.53658 0.85026 0.0
C2570 C 0.32331 0.70852 0.88174 0.0
C2571 C 0.31286 0.73236 0.86899 0.0
C2572 C 0.31739 0.67204 0.88151 0.0
C2573 C 0.30151 0.65842 0.86815 0.0
C2574 C 0.29239 0.68184 0.8546 0.0
C2575 C 0.29781 0.71857 0.85513 0.0
C2576 C 0.29216 0.62107 0.86977 0.0
C2577 C 0.26713 0.61612 0.8696 0.0
C2578 C 0.30734 0.59104 0.87293 0.0
C2579 C 0.33393 0.5938 0.8717 0.0
C2580 C 0.34489 0.6087 0.85595 0.0
C2581 C 0.36993 0.61146 0.85489 0.0
C2582 C 0.38423 0.59924 0.86945 0.0
C2583 C 0.37353 0.58414 0.88508 0.0
C2584 C 0.34849 0.58133 0.88622 0.0
C2585 C 0.25422 0.45511 0.8742 0.0
C2586 C 0.23462 0.454 0.88647 0.0
C2587 C 0.26756 0.48673 0.87211 0.0
C2588 C 0.26164 0.51745 0.88241 0.0
C2589 C 0.24381 0.51504 0.8961 0.0
C2590 C 0.23016 0.48372 0.89793 0.0
C2591 C 0.27194 0.55294 0.87742 0.0
C2592 C 0.29698 0.55742 0.87699 0.0
C2593 C 0.25687 0.58236 0.87293 0.0
C2594 C 0.2304 0.57837 0.87112 0.0
C2595 C 0.21483 0.59981 0.88174 0.0
C2596 C 0.18992 0.59556 0.88024 0.0
C2597 C 0.18036 0.57007 0.86809 0.0
C2598 C 0.19569 0.54888 0.85734 0.0
C2599 C 0.22061 0.55308 0.85876 0.0
H2600 H 0.16107 0.56677 0.86698 0.0
H2601 H 0.40362 0.60141 0.8686 0.0
H2602 H 0.23226 0.56416 0.38152 0.0
H2603 H 0.20406 0.51412 0.37631 0.0
H2604 H 0.26376 0.44231 0.36723 0.0
H2605 H 0.29189 0.49123 0.37277 0.0
H2606 H 0.22429 0.44566 0.33816 0.0
H2607 H 0.2407 0.43302 0.40487 0.0
H2608 H 0.23985 0.45599 0.4368 0.0
H2609 H 0.16354 0.47214 0.43284 0.0
H2610 H 0.16404 0.44966 0.40076 0.0
H2611 H 0.21565 0.2613 0.34897 0.0
H2612 H 0.22144 0.32592 0.34633 0.0
H2613 H 0.1507 0.34416 0.36896 0.0
H2614 H 0.14487 0.27915 0.37196 0.0
H2615 H 0.18272 0.37925 0.38827 0.0
H2616 H 0.16492 0.37383 0.32512 0.0
H2617 H 0.16477 0.35171 0.29306 0.0
H2618 H 0.24062 0.37184 0.28884 0.0
H2619 H 0.24137 0.39349 0.32098 0.0
C2620 C 0.23936 0.53758 0.37869 0.0
C2621 C 0.26437 0.53177 0.37758 0.0
C2622 C 0.22324 0.50917 0.37562 0.0
C2623 C 0.23195 0.47483 0.37117 0.0
C2624 C 0.25678 0.4688 0.37049 0.0
C2625 C 0.27282 0.49682 0.37383 0.0
C2626 C 0.21559 0.44457 0.36707 0.0
C2627 C 0.21503 0.43104 0.34901 0.0
C2628 C 0.2027 0.42676 0.38113 0.0
C2629 C 0.20246 0.4402 0.40037 0.0
C2630 C 0.22379 0.44184 0.41075 0.0
C2631 C 0.22336 0.45467 0.42888 0.0
C2632 C 0.20167 0.46566 0.43682 0.0
C2633 C 0.18034 0.46372 0.42666 0.0
C2634 C 0.18068 0.45094 0.4085 0.0
C2635 C 0.20102 0.27893 0.35294 0.0
C2636 C 0.17994 0.26499 0.36093 0.0
C2637 C 0.20429 0.31601 0.35129 0.0
C2638 C 0.18649 0.34001 0.35744 0.0
C2639 C 0.16468 0.32615 0.36414 0.0
C2640 C 0.16136 0.28894 0.36577 0.0
C2641 C 0.19244 0.3788 0.3594 0.0
C2642 C 0.19111 0.39416 0.37712 0.0
C2643 C 0.2034 0.39845 0.34492 0.0
C2644 C 0.20319 0.38521 0.32555 0.0
C2645 C 0.18162 0.37329 0.31743 0.0
C2646 C 0.18142 0.36086 0.29921 0.0
C2647 C 0.20267 0.36035 0.28892 0.0
C2648 C 0.22416 0.37228 0.29683 0.0
C2649 C 0.22448 0.38469 0.31504 0.0
H2650 H 0.20247 0.35074 0.27482 0.0
H2651 H 0.20137 0.47557 0.45087 0.0
H2652 H 0.21367 0.48945 0.09895 0.0
H2653 H 0.24025 0.43745 0.10164 0.0
H2654 H 0.29622 0.50544 0.12372 0.0
H2655 H 0.2697 0.55784 0.12096 0.0
H2656 H 0.28701 0.41726 0.09029 0.0
H2657 H 0.31674 0.45872 0.16207 0.0
H2658 H 0.3053 0.50137 0.18672 0.0
H2659 H 0.23108 0.49203 0.17104 0.0
H2660 H 0.24208 0.44909 0.14645 0.0
H2661 H 0.35253 0.26949 0.12216 0.0
H2662 H 0.3456 0.33428 0.122 0.0
H2663 H 0.27514 0.31791 0.14537 0.0
H2664 H 0.2817 0.25291 0.14545 0.0
H2665 H 0.29914 0.38522 0.15621 0.0
H2666 H 0.27937 0.31082 0.10234 0.0
H2667 H 0.2905 0.268 0.07783 0.0
H2668 H 0.34252 0.3431 0.05687 0.0
H2669 H 0.33222 0.38594 0.08169 0.0
C2670 C 0.23187 0.4935 0.10389 0.0
C2671 C 0.23955 0.52755 0.10994 0.0
C2672 C 0.24706 0.46382 0.10535 0.0
C2673 C 0.27002 0.46765 0.1131 0.0
C2674 C 0.27847 0.50205 0.11779 0.0
C2675 C 0.26335 0.53192 0.11613 0.0
C2676 C 0.28343 0.435 0.11845 0.0
C2677 C 0.29011 0.41052 0.10466 0.0
C2678 C 0.28725 0.42621 0.13724 0.0
C2679 C 0.28028 0.451 0.15235 0.0
C2680 C 0.29798 0.46566 0.16396 0.0
C2681 C 0.29158 0.48991 0.1779 0.0
C2682 C 0.2675 0.49946 0.18041 0.0
C2683 C 0.24974 0.48469 0.16904 0.0
C2684 C 0.25605 0.46041 0.15511 0.0
C2685 C 0.33584 0.2796 0.12786 0.0
C2686 C 0.31738 0.25592 0.13336 0.0
C2687 C 0.33199 0.31671 0.1278 0.0
C2688 C 0.30975 0.33065 0.13338 0.0
C2689 C 0.29242 0.30752 0.14096 0.0
C2690 C 0.29615 0.27035 0.14088 0.0
C2691 C 0.30265 0.36748 0.12804 0.0
C2692 C 0.2969 0.39251 0.14182 0.0
C2693 C 0.29961 0.37678 0.10922 0.0
C2694 C 0.30534 0.35131 0.09407 0.0
C2695 C 0.29344 0.31798 0.09268 0.0
C2696 C 0.29965 0.29365 0.07876 0.0
C2697 C 0.31737 0.30269 0.06588 0.0
C2698 C 0.32891 0.33606 0.06692 0.0
C2699 C 0.32293 0.36032 0.08094 0.0
H2700 H 0.32201 0.28405 0.05499 0.0
H2701 H 0.2626 0.51822 0.19119 0.0
H2702 H 0.14845 0.73132 0.60921 0.0
H2703 H 0.15421 0.66621 0.60919 0.0
H2704 H 0.22021 0.67906 0.63974 0.0
H2705 H 0.21479 0.74435 0.63971 0.0
H2706 H 0.19358 0.63601 0.59196 0.0
H2707 H 0.22821 0.60231 0.66582 0.0
H2708 H 0.2196 0.61974 0.69799 0.0
H2709 H 0.14779 0.64998 0.68271 0.0
H2710 H 0.15582 0.63223 0.65052 0.0
H2711 H 0.28385 0.50387 0.59875 0.0
H2712 H 0.25704 0.5558 0.5989 0.0
H2713 H 0.20174 0.49208 0.62494 0.0
H2714 H 0.22853 0.43977 0.62487 0.0
H2715 H 0.21158 0.55365 0.64401 0.0
H2716 H 0.19375 0.52158 0.58198 0.0
H2717 H 0.20163 0.50487 0.54961 0.0
H2718 H 0.23733 0.60592 0.54074 0.0
H2719 H 0.23045 0.62273 0.57312 0.0
C2720 C 0.16393 0.72036 0.61633 0.0
C2721 C 0.18134 0.74316 0.62428 0.0
C2722 C 0.16718 0.6831 0.61626 0.0
C2723 C 0.18763 0.6679 0.62442 0.0
C2724 C 0.20419 0.6903 0.63348 0.0
C2725 C 0.20112 0.72763 0.63339 0.0
C2726 C 0.19337 0.62945 0.62147 0.0
C2727 C 0.1973 0.61778 0.6033 0.0
C2728 C 0.19774 0.60567 0.6363 0.0
C2729 C 0.1927 0.61615 0.6557 0.0
C2730 C 0.21054 0.6125 0.66933 0.0
C2731 C 0.20577 0.62247 0.68757 0.0
C2732 C 0.18319 0.63604 0.69238 0.0
C2733 C 0.16531 0.63959 0.67896 0.0
C2734 C 0.16997 0.62963 0.6607 0.0
C2735 C 0.2658 0.50063 0.60414 0.0
C2736 C 0.25837 0.46776 0.61189 0.0
C2737 C 0.25045 0.53032 0.60415 0.0
C2738 C 0.2274 0.52776 0.61192 0.0
C2739 C 0.21946 0.49454 0.61886 0.0
C2740 C 0.23475 0.46466 0.6187 0.0
C2741 C 0.21285 0.56075 0.6145 0.0
C2742 C 0.20738 0.5715 0.63261 0.0
C2743 C 0.20709 0.58374 0.59958 0.0
C2744 C 0.21167 0.57334 0.58009 0.0
C2745 C 0.20356 0.54006 0.5732 0.0
C2746 C 0.20788 0.53055 0.55481 0.0
C2747 C 0.2201 0.55423 0.54312 0.0
C2748 C 0.22803 0.58746 0.54979 0.0
C2749 C 0.22392 0.59699 0.56817 0.0
H2750 H 0.22335 0.5469 0.52888 0.0
H2751 H 0.17953 0.64376 0.70651 0.0
loop_
_geom_bond_atom_site_label_1
_geom_bond_atom_site_label_2
_geom_bond_distance
_geom_bond_site_symmetry_2
_ccdc_geom_bond_type
Sc0 O3 2.025 . S
Sc0 O10 2.105 . S
Sc0 O13 2.105 . S
Sc0 O16 2.105 . S
Sc0 O19 2.105 . S
Sc1 O3 2.025 . S
Sc1 O11 2.105 . S
Sc1 O15 2.105 . S
Sc1 O17 2.105 . S
Sc1 O21 2.105 . S
Sc2 O3 2.025 . S
Sc2 O12 2.105 . S
Sc2 O14 2.105 . S
Sc2 O18 2.105 . S
Sc2 O20 2.105 . S
O3 Sc0 2.025 . S
O3 Sc1 2.025 . S
O3 Sc2 2.025 . S
C4 O10 1.268 . S
C4 O20 1.268 . S
C5 O11 1.268 . S
C5 O19 1.268 . S
C6 O12 1.268 . S
C6 O21 1.268 . S
C7 O13 1.268 . S
C7 O17 1.268 . S
C8 O14 1.268 . S
C8 O16 1.268 . S
C9 O15 1.268 . S
C9 O18 1.268 . S
O10 Sc0 2.105 . S
O10 C4 1.268 . S
O11 Sc1 2.105 . S
O11 C5 1.268 . S
O12 Sc2 2.105 . S
O12 C6 1.268 . S
O13 Sc0 2.105 . S
O13 C7 1.268 . S
O14 Sc2 2.105 . S
O14 C8 1.268 . S
O15 Sc1 2.105 . S
O15 C9 1.268 . S
O16 Sc0 2.105 . S
O16 C8 1.268 . S
O17 Sc1 2.105 . S
O17 C7 1.268 . S
O18 Sc2 2.105 . S
O18 C9 1.268 . S
O19 Sc0 2.105 . S
O19 C5 1.268 . S
O20 Sc2 2.105 . S
O20 C4 1.268 . S
O21 Sc1 2.105 . S
O21 C6 1.268 . S
Sc22 O25 2.025 . S
Sc22 O32 2.105 . S
Sc22 O35 2.105 . S
Sc22 O38 2.105 . S
Sc22 O41 2.105 . S
Sc23 O25 2.025 . S
Sc23 O33 2.105 . S
Sc23 O37 2.105 . S
Sc23 O39 2.105 . S
Sc23 O43 2.105 . S
Sc24 O25 2.025 . S
Sc24 O34 2.105 . S
Sc24 O36 2.105 . S
Sc24 O40 2.105 . S
Sc24 O42 2.105 . S
O25 Sc22 2.025 . S
O25 Sc23 2.025 . S
O25 Sc24 2.025 . S
C26 O32 1.268 . S
C26 O42 1.268 . S
C27 O33 1.268 . S
C27 O41 1.268 . S
C28 O34 1.268 . S
C28 O43 1.268 . S
C29 O35 1.268 . S
C29 O39 1.268 . S
C30 O36 1.268 . S
C30 O38 1.268 . S
C31 O37 1.268 . S
C31 O40 1.268 . S
O32 Sc22 2.105 . S
O32 C26 1.268 . S
O33 Sc23 2.105 . S
O33 C27 1.268 . S
O34 Sc24 2.105 . S
O34 C28 1.268 . S
O35 Sc22 2.105 . S
O35 C29 1.268 . S
O36 Sc24 2.105 . S
O36 C30 1.268 . S
O37 Sc23 2.105 . S
O37 C31 1.268 . S
O38 Sc22 2.105 . S
O38 C30 1.268 . S
O39 Sc23 2.105 . S
O39 C29 1.268 . S
O40 Sc24 2.105 . S
O40 C31 1.268 . S
O41 Sc22 2.105 . S
O41 C27 1.268 . S
O42 Sc24 2.105 . S
O42 C26 1.268 . S
O43 Sc23 2.105 . S
O43 C28 1.268 . S
Sc44 O47 2.025 . S
Sc44 O54 2.105 . S
Sc44 O57 2.105 . S
Sc44 O60 2.105 . S
Sc44 O63 2.105 . S
Sc45 O47 2.025 . S
Sc45 O55 2.105 . S
Sc45 O59 2.105 . S
Sc45 O61 2.105 . S
Sc45 O65 2.105 . S
Sc46 O47 2.025 . S
Sc46 O56 2.105 . S
Sc46 O58 2.105 . S
Sc46 O62 2.105 . S
Sc46 O64 2.105 . S
O47 Sc44 2.025 . S
O47 Sc45 2.025 . S
O47 Sc46 2.025 . S
C48 O54 1.268 . S
C48 O64 1.268 . S
C49 O55 1.268 . S
C49 O63 1.268 . S
C50 O56 1.268 . S
C50 O65 1.268 . S
C51 O57 1.268 . S
C51 O61 1.268 . S
C52 O58 1.268 . S
C52 O60 1.268 . S
C53 O59 1.268 . S
C53 O62 1.268 . S
O54 Sc44 2.105 . S
O54 C48 1.268 . S
O55 Sc45 2.105 . S
O55 C49 1.268 . S
O56 Sc46 2.105 . S
O56 C50 1.268 . S
O57 Sc44 2.105 . S
O57 C51 1.268 . S
O58 Sc46 2.105 . S
O58 C52 1.268 . S
O59 Sc45 2.105 . S
O59 C53 1.268 . S
O60 Sc44 2.105 . S
O60 C52 1.268 . S
O61 Sc45 2.105 . S
O61 C51 1.268 . S
O62 Sc46 2.105 . S
O62 C53 1.268 . S
O63 Sc44 2.105 . S
O63 C49 1.268 . S
O64 Sc46 2.105 . S
O64 C48 1.268 . S
O65 Sc45 2.105 . S
O65 C50 1.268 . S
Sc66 O69 2.025 . S
Sc66 O76 2.105 . S
Sc66 O79 2.105 . S
Sc66 O82 2.105 . S
Sc66 O85 2.105 . S
Sc67 O69 2.025 . S
Sc67 O77 2.105 . S
Sc67 O81 2.105 . S
Sc67 O83 2.105 . S
Sc67 O87 2.105 . S
Sc68 O69 2.025 . S
Sc68 O78 2.105 . S
Sc68 O80 2.105 . S
Sc68 O84 2.105 . S
Sc68 O86 2.105 . S
O69 Sc66 2.025 . S
O69 Sc67 2.025 . S
O69 Sc68 2.025 . S
C70 O76 1.268 . S
C70 O86 1.268 . S
C71 O77 1.268 . S
C71 O85 1.268 . S
C72 O78 1.268 . S
C72 O87 1.268 . S
C73 O79 1.268 . S
C73 O83 1.268 . S
C74 O80 1.268 . S
C74 O82 1.268 . S
C75 O81 1.268 . S
C75 O84 1.268 . S
O76 Sc66 2.105 . S
O76 C70 1.268 . S
O77 Sc67 2.105 . S
O77 C71 1.268 . S
O78 Sc68 2.105 . S
O78 C72 1.268 . S
O79 Sc66 2.105 . S
O79 C73 1.268 . S
O80 Sc68 2.105 . S
O80 C74 1.268 . S
O81 Sc67 2.105 . S
O81 C75 1.268 . S
O82 Sc66 2.105 . S
O82 C74 1.268 . S
O83 Sc67 2.105 . S
O83 C73 1.268 . S
O84 Sc68 2.105 . S
O84 C75 1.268 . S
O85 Sc66 2.105 . S
O85 C71 1.268 . S
O86 Sc68 2.105 . S
O86 C70 1.268 . S
O87 Sc67 2.105 . S
O87 C72 1.268 . S
Sc88 O91 2.025 . S
Sc88 O98 2.105 . S
Sc88 O101 2.105 . S
Sc88 O104 2.105 . S
Sc88 O107 2.105 . S
Sc89 O91 2.025 . S
Sc89 O99 2.105 . S
Sc89 O103 2.105 . S
Sc89 O105 2.105 . S
Sc89 O109 2.105 . S
Sc90 O91 2.025 . S
Sc90 O100 2.105 . S
Sc90 O102 2.105 . S
Sc90 O106 2.105 . S
Sc90 O108 2.105 . S
O91 Sc88 2.025 . S
O91 Sc89 2.025 . S
O91 Sc90 2.025 . S
C92 O98 1.268 . S
C92 O108 1.268 . S
C93 O99 1.268 . S
C93 O107 1.268 . S
C94 O100 1.268 . S
C94 O109 1.268 . S
C95 O101 1.268 . S
C95 O105 1.268 . S
C96 O102 1.268 . S
C96 O104 1.268 . S
C97 O103 1.268 . S
C97 O106 1.268 . S
O98 Sc88 2.105 . S
O98 C92 1.268 . S
O99 Sc89 2.105 . S
O99 C93 1.268 . S
O100 Sc90 2.105 . S
O100 C94 1.268 . S
O101 Sc88 2.105 . S
O101 C95 1.268 . S
O102 Sc90 2.105 . S
O102 C96 1.268 . S
O103 Sc89 2.105 . S
O103 C97 1.268 . S
O104 Sc88 2.105 . S
O104 C96 1.268 . S
O105 Sc89 2.105 . S
O105 C95 1.268 . S
O106 Sc90 2.105 . S
O106 C97 1.268 . S
O107 Sc88 2.105 . S
O107 C93 1.268 . S
O108 Sc90 2.105 . S
O108 C92 1.268 . S
O109 Sc89 2.105 . S
O109 C94 1.268 . S
Sc110 O113 2.025 . S
Sc110 O120 2.105 . S
Sc110 O123 2.105 . S
Sc110 O126 2.105 . S
Sc110 O129 2.105 . S
Sc111 O113 2.025 . S
Sc111 O121 2.105 . S
Sc111 O125 2.105 . S
Sc111 O127 2.105 . S
Sc111 O131 2.105 . S
Sc112 O113 2.025 . S
Sc112 O122 2.105 . S
Sc112 O124 2.105 . S
Sc112 O128 2.105 . S
Sc112 O130 2.105 . S
O113 Sc110 2.025 . S
O113 Sc111 2.025 . S
O113 Sc112 2.025 . S
C114 O120 1.268 . S
C114 O130 1.268 . S
C115 O121 1.268 . S
C115 O129 1.268 . S
C116 O122 1.268 . S
C116 O131 1.268 . S
C117 O123 1.268 . S
C117 O127 1.268 . S
C118 O124 1.268 . S
C118 O126 1.268 . S
C119 O125 1.268 . S
C119 O128 1.268 . S
O120 Sc110 2.105 . S
O120 C114 1.268 . S
O121 Sc111 2.105 . S
O121 C115 1.268 . S
O122 Sc112 2.105 . S
O122 C116 1.268 . S
O123 Sc110 2.105 . S
O123 C117 1.268 . S
O124 Sc112 2.105 . S
O124 C118 1.268 . S
O125 Sc111 2.105 . S
O125 C119 1.268 . S
O126 Sc110 2.105 . S
O126 C118 1.268 . S
O127 Sc111 2.105 . S
O127 C117 1.268 . S
O128 Sc112 2.105 . S
O128 C119 1.268 . S
O129 Sc110 2.105 . S
O129 C115 1.268 . S
O130 Sc112 2.105 . S
O130 C114 1.268 . S
O131 Sc111 2.105 . S
O131 C116 1.268 . S
Sc132 O135 2.025 . S
Sc132 O142 2.105 . S
Sc132 O145 2.105 . S
Sc132 O148 2.105 . S
Sc132 O151 2.105 . S
Sc133 O135 2.025 . S
Sc133 O143 2.105 . S
Sc133 O147 2.105 . S
Sc133 O149 2.105 . S
Sc133 O153 2.105 . S
Sc134 O135 2.025 . S
Sc134 O144 2.105 . S
Sc134 O146 2.105 . S
Sc134 O150 2.105 . S
Sc134 O152 2.105 . S
O135 Sc132 2.025 . S
O135 Sc133 2.025 . S
O135 Sc134 2.025 . S
C136 O142 1.268 . S
C136 O152 1.268 . S
C137 O143 1.268 . S
C137 O151 1.268 . S
C138 O144 1.268 . S
C138 O153 1.268 . S
C139 O145 1.268 . S
C139 O149 1.268 . S
C140 O146 1.268 . S
C140 O148 1.268 . S
C141 O147 1.268 . S
C141 O150 1.268 . S
O142 Sc132 2.105 . S
O142 C136 1.268 . S
O143 Sc133 2.105 . S
O143 C137 1.268 . S
O144 Sc134 2.105 . S
O144 C138 1.268 . S
O145 Sc132 2.105 . S
O145 C139 1.268 . S
O146 Sc134 2.105 . S
O146 C140 1.268 . S
O147 Sc133 2.105 . S
O147 C141 1.268 . S
O148 Sc132 2.105 . S
O148 C140 1.268 . S
O149 Sc133 2.105 . S
O149 C139 1.268 . S
O150 Sc134 2.105 . S
O150 C141 1.268 . S
O151 Sc132 2.105 . S
O151 C137 1.268 . S
O152 Sc134 2.105 . S
O152 C136 1.268 . S
O153 Sc133 2.105 . S
O153 C138 1.268 . S
Sc154 O157 2.025 . S
Sc154 O164 2.105 . S
Sc154 O167 2.105 . S
Sc154 O170 2.105 . S
Sc154 O173 2.105 . S
Sc155 O157 2.025 . S
Sc155 O165 2.105 . S
Sc155 O169 2.105 . S
Sc155 O171 2.105 . S
Sc155 O175 2.105 . S
Sc156 O157 2.025 . S
Sc156 O166 2.105 . S
Sc156 O168 2.105 . S
Sc156 O172 2.105 . S
Sc156 O174 2.105 . S
O157 Sc154 2.025 . S
O157 Sc155 2.025 . S
O157 Sc156 2.025 . S
C158 O164 1.268 . S
C158 O174 1.268 . S
C159 O165 1.268 . S
C159 O173 1.268 . S
C160 O166 1.268 . S
C160 O175 1.268 . S
C161 O167 1.268 . S
C161 O171 1.268 . S
C162 O168 1.268 . S
C162 O170 1.268 . S
C163 O169 1.268 . S
C163 O172 1.268 . S
O164 Sc154 2.105 . S
O164 C158 1.268 . S
O165 Sc155 2.105 . S
O165 C159 1.268 . S
O166 Sc156 2.105 . S
O166 C160 1.268 . S
O167 Sc154 2.105 . S
O167 C161 1.268 . S
O168 Sc156 2.105 . S
O168 C162 1.268 . S
O169 Sc155 2.105 . S
O169 C163 1.268 . S
O170 Sc154 2.105 . S
O170 C162 1.268 . S
O171 Sc155 2.105 . S
O171 C161 1.268 . S
O172 Sc156 2.105 . S
O172 C163 1.268 . S
O173 Sc154 2.105 . S
O173 C159 1.268 . S
O174 Sc156 2.105 . S
O174 C158 1.268 . S
O175 Sc155 2.105 . S
O175 C160 1.268 . S
Sc176 O179 2.025 . S
Sc176 O186 2.105 . S
Sc176 O189 2.105 . S
Sc176 O192 2.105 . S
Sc176 O195 2.105 . S
Sc177 O179 2.025 . S
Sc177 O187 2.105 . S
Sc177 O191 2.105 . S
Sc177 O193 2.105 . S
Sc177 O197 2.105 . S
Sc178 O179 2.025 . S
Sc178 O188 2.105 . S
Sc178 O190 2.105 . S
Sc178 O194 2.105 . S
Sc178 O196 2.105 . S
O179 Sc176 2.025 . S
O179 Sc177 2.025 . S
O179 Sc178 2.025 . S
C180 O186 1.268 . S
C180 O196 1.268 . S
C181 O187 1.268 . S
C181 O195 1.268 . S
C182 O188 1.268 . S
C182 O197 1.268 . S
C183 O189 1.268 . S
C183 O193 1.268 . S
C184 O190 1.268 . S
C184 O192 1.268 . S
C185 O191 1.268 . S
C185 O194 1.268 . S
O186 Sc176 2.105 . S
O186 C180 1.268 . S
O187 Sc177 2.105 . S
O187 C181 1.268 . S
O188 Sc178 2.105 . S
O188 C182 1.268 . S
O189 Sc176 2.105 . S
O189 C183 1.268 . S
O190 Sc178 2.105 . S
O190 C184 1.268 . S
O191 Sc177 2.105 . S
O191 C185 1.268 . S
O192 Sc176 2.105 . S
O192 C184 1.268 . S
O193 Sc177 2.105 . S
O193 C183 1.268 . S
O194 Sc178 2.105 . S
O194 C185 1.268 . S
O195 Sc176 2.105 . S
O195 C181 1.268 . S
O196 Sc178 2.105 . S
O196 C180 1.268 . S
O197 Sc177 2.105 . S
O197 C182 1.268 . S
Sc198 O201 2.025 . S
Sc198 O208 2.105 . S
Sc198 O211 2.105 . S
Sc198 O214 2.105 . S
Sc198 O217 2.105 . S
Sc199 O201 2.025 . S
Sc199 O209 2.105 . S
Sc199 O213 2.105 . S
Sc199 O215 2.105 . S
Sc199 O219 2.105 . S
Sc200 O201 2.025 . S
Sc200 O210 2.105 . S
Sc200 O212 2.105 . S
Sc200 O216 2.105 . S
Sc200 O218 2.105 . S
O201 Sc198 2.025 . S
O201 Sc199 2.025 . S
O201 Sc200 2.025 . S
C202 O208 1.268 . S
C202 O218 1.268 . S
C203 O209 1.268 . S
C203 O217 1.268 . S
C204 O210 1.268 . S
C204 O219 1.268 . S
C205 O211 1.268 . S
C205 O215 1.268 . S
C206 O212 1.268 . S
C206 O214 1.268 . S
C207 O213 1.268 . S
C207 O216 1.268 . S
O208 Sc198 2.105 . S
O208 C202 1.268 . S
O209 Sc199 2.105 . S
O209 C203 1.268 . S
O210 Sc200 2.105 . S
O210 C204 1.268 . S
O211 Sc198 2.105 . S
O211 C205 1.268 . S
O212 Sc200 2.105 . S
O212 C206 1.268 . S
O213 Sc199 2.105 . S
O213 C207 1.268 . S
O214 Sc198 2.105 . S
O214 C206 1.268 . S
O215 Sc199 2.105 . S
O215 C205 1.268 . S
O216 Sc200 2.105 . S
O216 C207 1.268 . S
O217 Sc198 2.105 . S
O217 C203 1.268 . S
O218 Sc200 2.105 . S
O218 C202 1.268 . S
O219 Sc199 2.105 . S
O219 C204 1.268 . S
Sc220 O223 2.025 . S
Sc220 O230 2.105 . S
Sc220 O233 2.105 . S
Sc220 O236 2.105 . S
Sc220 O239 2.105 . S
Sc221 O223 2.025 . S
Sc221 O231 2.105 . S
Sc221 O235 2.105 . S
Sc221 O237 2.105 . S
Sc221 O241 2.105 . S
Sc222 O223 2.025 . S
Sc222 O232 2.105 . S
Sc222 O234 2.105 . S
Sc222 O238 2.105 . S
Sc222 O240 2.105 . S
O223 Sc220 2.025 . S
O223 Sc221 2.025 . S
O223 Sc222 2.025 . S
C224 O230 1.268 . S
C224 O240 1.268 . S
C225 O231 1.268 . S
C225 O239 1.268 . S
C226 O232 1.268 . S
C226 O241 1.268 . S
C227 O233 1.268 . S
C227 O237 1.268 . S
C228 O234 1.268 . S
C228 O236 1.268 . S
C229 O235 1.268 . S
C229 O238 1.268 . S
O230 Sc220 2.105 . S
O230 C224 1.268 . S
O231 Sc221 2.105 . S
O231 C225 1.268 . S
O232 Sc222 2.105 . S
O232 C226 1.268 . S
O233 Sc220 2.105 . S
O233 C227 1.268 . S
O234 Sc222 2.105 . S
O234 C228 1.268 . S
O235 Sc221 2.105 . S
O235 C229 1.268 . S
O236 Sc220 2.105 . S
O236 C228 1.268 . S
O237 Sc221 2.105 . S
O237 C227 1.268 . S
O238 Sc222 2.105 . S
O238 C229 1.268 . S
O239 Sc220 2.105 . S
O239 C225 1.268 . S
O240 Sc222 2.105 . S
O240 C224 1.268 . S
O241 Sc221 2.105 . S
O241 C226 1.268 . S
Sc242 O245 2.025 . S
Sc242 O252 2.105 . S
Sc242 O255 2.105 . S
Sc242 O258 2.105 . S
Sc242 O261 2.105 . S
Sc243 O245 2.025 . S
Sc243 O253 2.105 . S
Sc243 O257 2.105 . S
Sc243 O259 2.105 . S
Sc243 O263 2.105 . S
Sc244 O245 2.025 . S
Sc244 O254 2.105 . S
Sc244 O256 2.105 . S
Sc244 O260 2.105 . S
Sc244 O262 2.105 . S
O245 Sc242 2.025 . S
O245 Sc243 2.025 . S
O245 Sc244 2.025 . S
C246 O252 1.268 . S
C246 O262 1.268 . S
C247 O253 1.268 . S
C247 O261 1.268 . S
C248 O254 1.268 . S
C248 O263 1.268 . S
C249 O255 1.268 . S
C249 O259 1.268 . S
C250 O256 1.268 . S
C250 O258 1.268 . S
C251 O257 1.268 . S
C251 O260 1.268 . S
O252 Sc242 2.105 . S
O252 C246 1.268 . S
O253 Sc243 2.105 . S
O253 C247 1.268 . S
O254 Sc244 2.105 . S
O254 C248 1.268 . S
O255 Sc242 2.105 . S
O255 C249 1.268 . S
O256 Sc244 2.105 . S
O256 C250 1.268 . S
O257 Sc243 2.105 . S
O257 C251 1.268 . S
O258 Sc242 2.105 . S
O258 C250 1.268 . S
O259 Sc243 2.105 . S
O259 C249 1.268 . S
O260 Sc244 2.105 . S
O260 C251 1.268 . S
O261 Sc242 2.105 . S
O261 C247 1.268 . S
O262 Sc244 2.105 . S
O262 C246 1.268 . S
O263 Sc243 2.105 . S
O263 C248 1.268 . S
Sc264 O267 2.025 . S
Sc264 O274 2.105 . S
Sc264 O277 2.105 . S
Sc264 O280 2.105 . S
Sc264 O283 2.105 . S
Sc265 O267 2.025 . S
Sc265 O275 2.105 . S
Sc265 O279 2.105 . S
Sc265 O281 2.105 . S
Sc265 O285 2.105 . S
Sc266 O267 2.025 . S
Sc266 O276 2.105 . S
Sc266 O278 2.105 . S
Sc266 O282 2.105 . S
Sc266 O284 2.105 . S
O267 Sc264 2.025 . S
O267 Sc265 2.025 . S
O267 Sc266 2.025 . S
C268 O274 1.268 . S
C268 O284 1.268 . S
C269 O275 1.268 . S
C269 O283 1.268 . S
C270 O276 1.268 . S
C270 O285 1.268 . S
C271 O277 1.268 . S
C271 O281 1.268 . S
C272 O278 1.268 . S
C272 O280 1.268 . S
C273 O279 1.268 . S
C273 O282 1.268 . S
O274 Sc264 2.105 . S
O274 C268 1.268 . S
O275 Sc265 2.105 . S
O275 C269 1.268 . S
O276 Sc266 2.105 . S
O276 C270 1.268 . S
O277 Sc264 2.105 . S
O277 C271 1.268 . S
O278 Sc266 2.105 . S
O278 C272 1.268 . S
O279 Sc265 2.105 . S
O279 C273 1.268 . S
O280 Sc264 2.105 . S
O280 C272 1.268 . S
O281 Sc265 2.105 . S
O281 C271 1.268 . S
O282 Sc266 2.105 . S
O282 C273 1.268 . S
O283 Sc264 2.105 . S
O283 C269 1.268 . S
O284 Sc266 2.105 . S
O284 C268 1.268 . S
O285 Sc265 2.105 . S
O285 C270 1.268 . S
Sc286 O289 2.025 . S
Sc286 O296 2.105 . S
Sc286 O299 2.105 . S
Sc286 O302 2.105 . S
Sc286 O305 2.105 . S
Sc287 O289 2.025 . S
Sc287 O297 2.105 . S
Sc287 O301 2.105 . S
Sc287 O303 2.105 . S
Sc287 O307 2.105 . S
Sc288 O289 2.025 . S
Sc288 O298 2.105 . S
Sc288 O300 2.105 . S
Sc288 O304 2.105 . S
Sc288 O306 2.105 . S
O289 Sc286 2.025 . S
O289 Sc287 2.025 . S
O289 Sc288 2.025 . S
C290 O296 1.268 . S
C290 O306 1.268 . S
C291 O297 1.268 . S
C291 O305 1.268 . S
C292 O298 1.268 . S
C292 O307 1.268 . S
C293 O299 1.268 . S
C293 O303 1.268 . S
C294 O300 1.268 . S
C294 O302 1.268 . S
C295 O301 1.268 . S
C295 O304 1.268 . S
O296 Sc286 2.105 . S
O296 C290 1.268 . S
O297 Sc287 2.105 . S
O297 C291 1.268 . S
O298 Sc288 2.105 . S
O298 C292 1.268 . S
O299 Sc286 2.105 . S
O299 C293 1.268 . S
O300 Sc288 2.105 . S
O300 C294 1.268 . S
O301 Sc287 2.105 . S
O301 C295 1.268 . S
O302 Sc286 2.105 . S
O302 C294 1.268 . S
O303 Sc287 2.105 . S
O303 C293 1.268 . S
O304 Sc288 2.105 . S
O304 C295 1.268 . S
O305 Sc286 2.105 . S
O305 C291 1.268 . S
O306 Sc288 2.105 . S
O306 C290 1.268 . S
O307 Sc287 2.105 . S
O307 C292 1.268 . S
Sc308 O311 2.025 . S
Sc308 O318 2.105 . S
Sc308 O321 2.105 . S
Sc308 O324 2.105 . S
Sc308 O327 2.105 . S
Sc309 O311 2.025 . S
Sc309 O319 2.105 . S
Sc309 O323 2.105 . S
Sc309 O325 2.105 . S
Sc309 O329 2.105 . S
Sc310 O311 2.025 . S
Sc310 O320 2.105 . S
Sc310 O322 2.105 . S
Sc310 O326 2.105 . S
Sc310 O328 2.105 . S
O311 Sc308 2.025 . S
O311 Sc309 2.025 . S
O311 Sc310 2.025 . S
C312 O318 1.268 . S
C312 O328 1.268 . S
C313 O319 1.268 . S
C313 O327 1.268 . S
C314 O320 1.268 . S
C314 O329 1.268 . S
C315 O321 1.268 . S
C315 O325 1.268 . S
C316 O322 1.268 . S
C316 O324 1.268 . S
C317 O323 1.268 . S
C317 O326 1.268 . S
O318 Sc308 2.105 . S
O318 C312 1.268 . S
O319 Sc309 2.105 . S
O319 C313 1.268 . S
O320 Sc310 2.105 . S
O320 C314 1.268 . S
O321 Sc308 2.105 . S
O321 C315 1.268 . S
O322 Sc310 2.105 . S
O322 C316 1.268 . S
O323 Sc309 2.105 . S
O323 C317 1.268 . S
O324 Sc308 2.105 . S
O324 C316 1.268 . S
O325 Sc309 2.105 . S
O325 C315 1.268 . S
O326 Sc310 2.105 . S
O326 C317 1.268 . S
O327 Sc308 2.105 . S
O327 C313 1.268 . S
O328 Sc310 2.105 . S
O328 C312 1.268 . S
O329 Sc309 2.105 . S
O329 C314 1.268 . S
Sc330 O333 2.025 . S
Sc330 O340 2.105 . S
Sc330 O343 2.105 . S
Sc330 O346 2.105 . S
Sc330 O349 2.105 . S
Sc331 O333 2.025 . S
Sc331 O341 2.105 . S
Sc331 O345 2.105 . S
Sc331 O347 2.105 . S
Sc331 O351 2.105 . S
Sc332 O333 2.025 . S
Sc332 O342 2.105 . S
Sc332 O344 2.105 . S
Sc332 O348 2.105 . S
Sc332 O350 2.105 . S
O333 Sc330 2.025 . S
O333 Sc331 2.025 . S
O333 Sc332 2.025 . S
C334 O340 1.268 . S
C334 O350 1.268 . S
C335 O341 1.268 . S
C335 O349 1.268 . S
C336 O342 1.268 . S
C336 O351 1.268 . S
C337 O343 1.268 . S
C337 O347 1.268 . S
C338 O344 1.268 . S
C338 O346 1.268 . S
C339 O345 1.268 . S
C339 O348 1.268 . S
O340 Sc330 2.105 . S
O340 C334 1.268 . S
O341 Sc331 2.105 . S
O341 C335 1.268 . S
O342 Sc332 2.105 . S
O342 C336 1.268 . S
O343 Sc330 2.105 . S
O343 C337 1.268 . S
O344 Sc332 2.105 . S
O344 C338 1.268 . S
O345 Sc331 2.105 . S
O345 C339 1.268 . S
O346 Sc330 2.105 . S
O346 C338 1.268 . S
O347 Sc331 2.105 . S
O347 C337 1.268 . S
O348 Sc332 2.105 . S
O348 C339 1.268 . S
O349 Sc330 2.105 . S
O349 C335 1.268 . S
O350 Sc332 2.105 . S
O350 C334 1.268 . S
O351 Sc331 2.105 . S
O351 C336 1.268 . S
H352 C370 0.951 . S
H353 C372 0.951 . S
H354 C374 0.950 . S
H355 C375 0.950 . S
H356 C377 0.950 . S
H357 C380 0.950 . S
H358 C381 0.950 . S
H359 C383 0.950 . S
H360 C384 0.950 . S
H361 C385 0.951 . S
H362 C387 0.951 . S
H363 C389 0.950 . S
H364 C390 0.950 . S
H365 C392 0.950 . S
H366 C395 0.950 . S
H367 C396 0.950 . S
H368 C398 0.950 . S
H369 C399 0.950 . S
C370 H352 0.951 . S
C370 C371 1.366 . S
C370 C372 1.388 . S
C371 C370 1.366 . S
C371 C375 1.385 . S
C372 H353 0.951 . S
C372 C370 1.388 . S
C372 C373 1.366 . S
C373 C372 1.366 . S
C373 C374 1.414 . S
C373 C376 1.499 . S
C374 H354 0.950 . S
C374 C373 1.414 . S
C374 C375 1.374 . S
C375 H355 0.950 . S
C375 C371 1.385 . S
C375 C374 1.374 . S
C376 C373 1.499 . S
C376 C377 1.373 . S
C376 C378 1.389 . S
C377 H356 0.950 . S
C377 C376 1.373 . S
C377 C393 1.377 1_554 S
C378 C376 1.389 . S
C378 C379 1.524 . S
C378 C392 1.377 1_554 S
C379 C378 1.524 . S
C379 C380 1.397 . S
C379 C384 1.363 . S
C380 H357 0.950 . S
C380 C379 1.397 . S
C380 C381 1.334 . S
C381 H358 0.950 . S
C381 C380 1.334 . S
C381 C382 1.287 . S
C382 C381 1.287 . S
C382 C383 1.524 . S
C382 H401 0.913 . S
C383 H359 0.950 . S
C383 C382 1.524 . S
C383 C384 1.415 . S
C384 H360 0.950 . S
C384 C379 1.363 . S
C384 C383 1.415 . S
C385 H361 0.951 . S
C385 C386 1.366 . S
C385 C387 1.388 . S
C386 C385 1.366 . S
C386 C390 1.385 . S
C387 H362 0.951 . S
C387 C385 1.388 . S
C387 C388 1.366 . S
C388 C387 1.366 . S
C388 C389 1.414 . S
C388 C391 1.499 . S
C389 H363 0.950 . S
C389 C388 1.414 . S
C389 C390 1.374 . S
C390 H364 0.950 . S
C390 C386 1.385 . S
C390 C389 1.374 . S
C391 C388 1.499 . S
C391 C392 1.373 . S
C391 C393 1.389 . S
C392 H365 0.950 . S
C392 C378 1.377 1_556 S
C392 C391 1.373 . S
C393 C377 1.377 1_556 S
C393 C391 1.389 . S
C393 C394 1.524 . S
C394 C393 1.524 . S
C394 C395 1.397 . S
C394 C399 1.363 . S
C395 H366 0.950 . S
C395 C394 1.397 . S
C395 C396 1.334 . S
C396 H367 0.950 . S
C396 C395 1.334 . S
C396 C397 1.287 . S
C397 C396 1.287 . S
C397 C398 1.524 . S
C397 H400 0.999 . S
C398 H368 0.950 . S
C398 C397 1.524 . S
C398 C399 1.415 . S
C399 H369 0.950 . S
C399 C394 1.363 . S
C399 C398 1.415 . S
H400 C397 0.999 . S
H401 C382 0.913 . S
H402 C420 0.951 . S
H403 C422 0.951 . S
H404 C424 0.950 . S
H405 C425 0.950 . S
H406 C427 0.950 . S
H407 C430 0.950 . S
H408 C431 0.950 . S
H409 C433 0.950 . S
H410 C434 0.950 . S
H411 C435 0.951 . S
H412 C437 0.951 . S
H413 C439 0.950 . S
H414 C440 0.950 . S
H415 C442 0.950 . S
H416 C445 0.950 . S
H417 C446 0.950 . S
H418 C448 0.950 . S
H419 C449 0.950 . S
C420 H402 0.951 . S
C420 C421 1.366 . S
C420 C422 1.388 . S
C421 C420 1.366 . S
C421 C425 1.385 . S
C422 H403 0.951 . S
C422 C420 1.388 . S
C422 C423 1.366 . S
C423 C422 1.366 . S
C423 C424 1.414 . S
C423 C426 1.499 . S
C424 H404 0.950 . S
C424 C423 1.414 . S
C424 C425 1.374 . S
C425 H405 0.950 . S
C425 C421 1.385 . S
C425 C424 1.374 . S
C426 C423 1.499 . S
C426 C427 1.373 . S
C426 C428 1.389 . S
C427 H406 0.950 . S
C427 C426 1.373 . S
C427 C443 1.377 . S
C428 C426 1.389 . S
C428 C429 1.524 . S
C428 C442 1.377 . S
C429 C428 1.524 . S
C429 C430 1.397 . S
C429 C434 1.363 . S
C430 H407 0.950 . S
C430 C429 1.397 . S
C430 C431 1.334 . S
C431 H408 0.950 . S
C431 C430 1.334 . S
C431 C432 1.287 . S
C432 C431 1.287 . S
C432 C433 1.524 . S
C432 H451 0.913 . S
C433 H409 0.950 . S
C433 C432 1.524 . S
C433 C434 1.415 . S
C434 H410 0.950 . S
C434 C429 1.363 . S
C434 C433 1.415 . S
C435 H411 0.951 . S
C435 C436 1.366 . S
C435 C437 1.388 . S
C436 C435 1.366 . S
C436 C440 1.385 . S
C437 H412 0.951 . S
C437 C435 1.388 . S
C437 C438 1.366 . S
C438 C437 1.366 . S
C438 C439 1.414 . S
C438 C441 1.499 . S
C439 H413 0.950 . S
C439 C438 1.414 . S
C439 C440 1.374 . S
C440 H414 0.950 . S
C440 C436 1.385 . S
C440 C439 1.374 . S
C441 C438 1.499 . S
C441 C442 1.373 . S
C441 C443 1.389 . S
C442 H415 0.950 . S
C442 C428 1.377 . S
C442 C441 1.373 . S
C443 C427 1.377 . S
C443 C441 1.389 . S
C443 C444 1.524 . S
C444 C443 1.524 . S
C444 C445 1.397 . S
C444 C449 1.363 . S
C445 H416 0.950 . S
C445 C444 1.397 . S
C445 C446 1.334 . S
C446 H417 0.950 . S
C446 C445 1.334 . S
C446 C447 1.287 . S
C447 C446 1.287 . S
C447 C448 1.524 . S
C447 H450 0.999 . S
C448 H418 0.950 . S
C448 C447 1.524 . S
C448 C449 1.415 . S
C449 H419 0.950 . S
C449 C444 1.363 . S
C449 C448 1.415 . S
H450 C447 0.999 . S
H451 C432 0.913 . S
H452 C470 0.951 . S
H453 C472 0.951 . S
H454 C474 0.950 . S
H455 C475 0.950 . S
H456 C477 0.950 . S
H457 C480 0.950 . S
H458 C481 0.950 . S
H459 C483 0.950 . S
H460 C484 0.950 . S
H461 C485 0.951 . S
H462 C487 0.951 . S
H463 C489 0.950 . S
H464 C490 0.950 . S
H465 C492 0.950 . S
H466 C495 0.950 . S
H467 C496 0.950 . S
H468 C498 0.950 . S
H469 C499 0.950 . S
C470 H452 0.951 . S
C470 C471 1.366 . S
C470 C472 1.388 . S
C471 C470 1.366 . S
C471 C475 1.385 . S
C472 H453 0.951 . S
C472 C470 1.388 . S
C472 C473 1.366 . S
C473 C472 1.366 . S
C473 C474 1.414 . S
C473 C476 1.499 . S
C474 H454 0.950 . S
C474 C473 1.414 . S
C474 C475 1.374 . S
C475 H455 0.950 . S
C475 C471 1.385 . S
C475 C474 1.374 . S
C476 C473 1.499 . S
C476 C477 1.373 . S
C476 C478 1.389 . S
C477 H456 0.950 . S
C477 C476 1.373 . S
C477 C493 1.377 1_554 S
C478 C476 1.389 . S
C478 C479 1.524 . S
C478 C492 1.377 1_554 S
C479 C478 1.524 . S
C479 C480 1.397 . S
C479 C484 1.363 . S
C480 H457 0.950 . S
C480 C479 1.397 . S
C480 C481 1.334 . S
C481 H458 0.950 . S
C481 C480 1.334 . S
C481 C482 1.287 . S
C482 C481 1.287 . S
C482 C483 1.524 . S
C482 H501 0.913 . S
C483 H459 0.950 . S
C483 C482 1.524 . S
C483 C484 1.415 . S
C484 H460 0.950 . S
C484 C479 1.363 . S
C484 C483 1.415 . S
C485 H461 0.951 . S
C485 C486 1.366 . S
C485 C487 1.388 . S
C486 C485 1.366 . S
C486 C490 1.385 . S
C487 H462 0.951 . S
C487 C485 1.388 . S
C487 C488 1.366 . S
C488 C487 1.366 . S
C488 C489 1.414 . S
C488 C491 1.499 . S
C489 H463 0.950 . S
C489 C488 1.414 . S
C489 C490 1.374 . S
C490 H464 0.950 . S
C490 C486 1.385 . S
C490 C489 1.374 . S
C491 C488 1.499 . S
C491 C492 1.373 . S
C491 C493 1.389 . S
C492 H465 0.950 . S
C492 C478 1.377 1_556 S
C492 C491 1.373 . S
C493 C477 1.377 1_556 S
C493 C491 1.389 . S
C493 C494 1.524 . S
C494 C493 1.524 . S
C494 C495 1.397 . S
C494 C499 1.363 . S
C495 H466 0.950 . S
C495 C494 1.397 . S
C495 C496 1.334 . S
C496 H467 0.950 . S
C496 C495 1.334 . S
C496 C497 1.287 . S
C497 C496 1.287 . S
C497 C498 1.524 . S
C497 H500 0.999 . S
C498 H468 0.950 . S
C498 C497 1.524 . S
C498 C499 1.415 . S
C499 H469 0.950 . S
C499 C494 1.363 . S
C499 C498 1.415 . S
H500 C497 0.999 . S
H501 C482 0.913 . S
H502 C520 0.951 . S
H503 C522 0.951 . S
H504 C524 0.950 . S
H505 C525 0.950 . S
H506 C527 0.950 . S
H507 C530 0.950 . S
H508 C531 0.950 . S
H509 C533 0.950 . S
H510 C534 0.950 . S
H511 C535 0.951 . S
H512 C537 0.951 . S
H513 C539 0.950 . S
H514 C540 0.950 . S
H515 C542 0.950 . S
H516 C545 0.950 . S
H517 C546 0.950 . S
H518 C548 0.950 . S
H519 C549 0.950 . S
C520 H502 0.951 . S
C520 C521 1.366 . S
C520 C522 1.388 . S
C521 C520 1.366 . S
C521 C525 1.385 . S
C522 H503 0.951 . S
C522 C520 1.388 . S
C522 C523 1.366 . S
C523 C522 1.366 . S
C523 C524 1.414 . S
C523 C526 1.499 . S
C524 H504 0.950 . S
C524 C523 1.414 . S
C524 C525 1.374 . S
C525 H505 0.950 . S
C525 C521 1.385 . S
C525 C524 1.374 . S
C526 C523 1.499 . S
C526 C527 1.373 . S
C526 C528 1.389 . S
C527 H506 0.950 . S
C527 C526 1.373 . S
C527 C543 1.377 . S
C528 C526 1.389 . S
C528 C529 1.524 . S
C528 C542 1.377 . S
C529 C528 1.524 . S
C529 C530 1.397 . S
C529 C534 1.363 . S
C530 H507 0.950 . S
C530 C529 1.397 . S
C530 C531 1.334 . S
C531 H508 0.950 . S
C531 C530 1.334 . S
C531 C532 1.287 . S
C532 C531 1.287 . S
C532 C533 1.524 . S
C532 H551 0.913 . S
C533 H509 0.950 . S
C533 C532 1.524 . S
C533 C534 1.415 . S
C534 H510 0.950 . S
C534 C529 1.363 . S
C534 C533 1.415 . S
C535 H511 0.951 . S
C535 C536 1.366 . S
C535 C537 1.388 . S
C536 C535 1.366 . S
C536 C540 1.385 . S
C537 H512 0.951 . S
C537 C535 1.388 . S
C537 C538 1.366 . S
C538 C537 1.366 . S
C538 C539 1.414 . S
C538 C541 1.499 . S
C539 H513 0.950 . S
C539 C538 1.414 . S
C539 C540 1.374 . S
C540 H514 0.950 . S
C540 C536 1.385 . S
C540 C539 1.374 . S
C541 C538 1.499 . S
C541 C542 1.373 . S
C541 C543 1.389 . S
C542 H515 0.950 . S
C542 C528 1.377 . S
C542 C541 1.373 . S
C543 C527 1.377 . S
C543 C541 1.389 . S
C543 C544 1.524 . S
C544 C543 1.524 . S
C544 C545 1.397 . S
C544 C549 1.363 . S
C545 H516 0.950 . S
C545 C544 1.397 . S
C545 C546 1.334 . S
C546 H517 0.950 . S
C546 C545 1.334 . S
C546 C547 1.287 . S
C547 C546 1.287 . S
C547 C548 1.524 . S
C547 H550 0.999 . S
C548 H518 0.950 . S
C548 C547 1.524 . S
C548 C549 1.415 . S
C549 H519 0.950 . S
C549 C544 1.363 . S
C549 C548 1.415 . S
H550 C547 0.999 . S
H551 C532 0.913 . S
H552 C570 0.951 . S
H553 C572 0.951 . S
H554 C574 0.950 . S
H555 C575 0.950 . S
H556 C577 0.950 . S
H557 C580 0.950 . S
H558 C581 0.950 . S
H559 C583 0.950 . S
H560 C584 0.950 . S
H561 C585 0.951 . S
H562 C587 0.951 . S
H563 C589 0.950 . S
H564 C590 0.950 . S
H565 C592 0.950 . S
H566 C595 0.950 . S
H567 C596 0.950 . S
H568 C598 0.950 . S
H569 C599 0.950 . S
C570 H552 0.951 . S
C570 C571 1.366 . S
C570 C572 1.388 . S
C571 C570 1.366 . S
C571 C575 1.385 . S
C572 H553 0.951 . S
C572 C570 1.388 . S
C572 C573 1.366 . S
C573 C572 1.366 . S
C573 C574 1.414 . S
C573 C576 1.499 . S
C574 H554 0.950 . S
C574 C573 1.414 . S
C574 C575 1.374 . S
C575 H555 0.950 . S
C575 C571 1.385 . S
C575 C574 1.374 . S
C576 C573 1.499 . S
C576 C577 1.373 . S
C576 C578 1.389 . S
C577 H556 0.950 . S
C577 C576 1.373 . S
C577 C593 1.377 1_556 S
C578 C576 1.389 . S
C578 C579 1.524 . S
C578 C592 1.377 1_556 S
C579 C578 1.524 . S
C579 C580 1.397 . S
C579 C584 1.363 1_556 S
C580 H557 0.950 . S
C580 C579 1.397 . S
C580 C581 1.334 . S
C581 H558 0.950 . S
C581 C580 1.334 . S
C581 C582 1.287 . S
C582 C581 1.287 . S
C582 C583 1.524 1_556 S
C582 H601 0.913 . S
C583 H559 0.950 . S
C583 C582 1.524 1_554 S
C583 C584 1.415 . S
C584 H560 0.950 . S
C584 C579 1.363 1_554 S
C584 C583 1.415 . S
C585 H561 0.951 . S
C585 C586 1.366 . S
C585 C587 1.388 . S
C586 C585 1.366 . S
C586 C590 1.385 . S
C587 H562 0.951 . S
C587 C585 1.388 . S
C587 C588 1.366 . S
C588 C587 1.366 . S
C588 C589 1.414 . S
C588 C591 1.499 . S
C589 H563 0.950 . S
C589 C588 1.414 . S
C589 C590 1.374 . S
C590 H564 0.950 . S
C590 C586 1.385 . S
C590 C589 1.374 . S
C591 C588 1.499 . S
C591 C592 1.373 . S
C591 C593 1.389 . S
C592 H565 0.950 . S
C592 C578 1.377 1_554 S
C592 C591 1.373 . S
C593 C577 1.377 1_554 S
C593 C591 1.389 . S
C593 C594 1.524 . S
C594 C593 1.524 . S
C594 C595 1.397 . S
C594 C599 1.363 1_554 S
C595 H566 0.950 . S
C595 C594 1.397 . S
C595 C596 1.334 . S
C596 H567 0.950 . S
C596 C595 1.334 . S
C596 C597 1.287 . S
C597 C596 1.287 . S
C597 C598 1.524 1_554 S
C597 H600 0.999 . S
C598 H568 0.950 . S
C598 C597 1.524 1_556 S
C598 C599 1.415 . S
C599 H569 0.950 . S
C599 C594 1.363 1_556 S
C599 C598 1.415 . S
H600 C597 0.999 . S
H601 C582 0.913 . S
H602 C620 0.951 . S
H603 C622 0.951 . S
H604 C624 0.950 . S
H605 C625 0.950 . S
H606 C627 0.950 . S
H607 C630 0.950 . S
H608 C631 0.950 . S
H609 C633 0.950 . S
H610 C634 0.950 . S
H611 C635 0.951 . S
H612 C637 0.951 . S
H613 C639 0.950 . S
H614 C640 0.950 . S
H615 C642 0.950 . S
H616 C645 0.950 . S
H617 C646 0.950 . S
H618 C648 0.950 . S
H619 C649 0.950 . S
C620 H602 0.951 . S
C620 C621 1.366 . S
C620 C622 1.388 . S
C621 C620 1.366 . S
C621 C625 1.385 . S
C622 H603 0.951 . S
C622 C620 1.388 . S
C622 C623 1.366 . S
C623 C622 1.366 . S
C623 C624 1.414 . S
C623 C626 1.499 . S
C624 H604 0.950 . S
C624 C623 1.414 . S
C624 C625 1.374 . S
C625 H605 0.950 . S
C625 C621 1.385 . S
C625 C624 1.374 . S
C626 C623 1.499 . S
C626 C627 1.373 . S
C626 C628 1.389 . S
C627 H606 0.950 . S
C627 C626 1.373 . S
C627 C643 1.377 . S
C628 C626 1.389 . S
C628 C629 1.524 . S
C628 C642 1.377 . S
C629 C628 1.524 . S
C629 C630 1.397 . S
C629 C634 1.363 . S
C630 H607 0.950 . S
C630 C629 1.397 . S
C630 C631 1.334 . S
C631 H608 0.950 . S
C631 C630 1.334 . S
C631 C632 1.287 . S
C632 C631 1.287 . S
C632 C633 1.524 . S
C632 H651 0.913 . S
C633 H609 0.950 . S
C633 C632 1.524 . S
C633 C634 1.415 . S
C634 H610 0.950 . S
C634 C629 1.363 . S
C634 C633 1.415 . S
C635 H611 0.951 . S
C635 C636 1.366 . S
C635 C637 1.388 . S
C636 C635 1.366 . S
C636 C640 1.385 . S
C637 H612 0.951 . S
C637 C635 1.388 . S
C637 C638 1.366 . S
C638 C637 1.366 . S
C638 C639 1.414 . S
C638 C641 1.499 . S
C639 H613 0.950 . S
C639 C638 1.414 . S
C639 C640 1.374 . S
C640 H614 0.950 . S
C640 C636 1.385 . S
C640 C639 1.374 . S
C641 C638 1.499 . S
C641 C642 1.373 . S
C641 C643 1.389 . S
C642 H615 0.950 . S
C642 C628 1.377 . S
C642 C641 1.373 . S
C643 C627 1.377 . S
C643 C641 1.389 . S
C643 C644 1.524 . S
C644 C643 1.524 . S
C644 C645 1.397 . S
C644 C649 1.363 . S
C645 H616 0.950 . S
C645 C644 1.397 . S
C645 C646 1.334 . S
C646 H617 0.950 . S
C646 C645 1.334 . S
C646 C647 1.287 . S
C647 C646 1.287 . S
C647 C648 1.524 . S
C647 H650 0.999 . S
C648 H618 0.950 . S
C648 C647 1.524 . S
C648 C649 1.415 . S
C649 H619 0.950 . S
C649 C644 1.363 . S
C649 C648 1.415 . S
H650 C647 0.999 . S
H651 C632 0.913 . S
H652 C670 0.951 . S
H653 C672 0.951 . S
H654 C674 0.950 . S
H655 C675 0.950 . S
H656 C677 0.950 . S
H657 C680 0.950 . S
H658 C681 0.950 . S
H659 C683 0.950 . S
H660 C684 0.950 . S
H661 C685 0.951 . S
H662 C687 0.951 . S
H663 C689 0.950 . S
H664 C690 0.950 . S
H665 C692 0.950 . S
H666 C695 0.950 . S
H667 C696 0.950 . S
H668 C698 0.950 . S
H669 C699 0.950 . S
C670 H652 0.951 . S
C670 C671 1.366 . S
C670 C672 1.388 . S
C671 C670 1.366 . S
C671 C675 1.385 . S
C672 H653 0.951 . S
C672 C670 1.388 . S
C672 C673 1.366 . S
C673 C672 1.366 . S
C673 C674 1.414 . S
C673 C676 1.499 . S
C674 H654 0.950 . S
C674 C673 1.414 . S
C674 C675 1.374 . S
C675 H655 0.950 . S
C675 C671 1.385 . S
C675 C674 1.374 . S
C676 C673 1.499 . S
C676 C677 1.373 . S
C676 C678 1.389 . S
C677 H656 0.950 . S
C677 C676 1.373 . S
C677 C693 1.377 1_554 S
C678 C676 1.389 . S
C678 C679 1.524 . S
C678 C692 1.377 1_554 S
C679 C678 1.524 . S
C679 C680 1.397 . S
C679 C684 1.363 . S
C680 H657 0.950 . S
C680 C679 1.397 . S
C680 C681 1.334 . S
C681 H658 0.950 . S
C681 C680 1.334 . S
C681 C682 1.287 . S
C682 C681 1.287 . S
C682 C683 1.524 . S
C682 H701 0.913 . S
C683 H659 0.950 . S
C683 C682 1.524 . S
C683 C684 1.415 . S
C684 H660 0.950 . S
C684 C679 1.363 . S
C684 C683 1.415 . S
C685 H661 0.951 . S
C685 C686 1.366 . S
C685 C687 1.388 . S
C686 C685 1.366 . S
C686 C690 1.385 . S
C687 H662 0.951 . S
C687 C685 1.388 . S
C687 C688 1.366 . S
C688 C687 1.366 . S
C688 C689 1.414 . S
C688 C691 1.499 . S
C689 H663 0.950 . S
C689 C688 1.414 . S
C689 C690 1.374 . S
C690 H664 0.950 . S
C690 C686 1.385 . S
C690 C689 1.374 . S
C691 C688 1.499 . S
C691 C692 1.373 . S
C691 C693 1.389 . S
C692 H665 0.950 . S
C692 C678 1.377 1_556 S
C692 C691 1.373 . S
C693 C677 1.377 1_556 S
C693 C691 1.389 . S
C693 C694 1.524 . S
C694 C693 1.524 . S
C694 C695 1.397 . S
C694 C699 1.363 . S
C695 H666 0.950 . S
C695 C694 1.397 . S
C695 C696 1.334 . S
C696 H667 0.950 . S
C696 C695 1.334 . S
C696 C697 1.287 . S
C697 C696 1.287 . S
C697 C698 1.524 . S
C697 H700 0.999 . S
C698 H668 0.950 . S
C698 C697 1.524 . S
C698 C699 1.415 . S
C699 H669 0.950 . S
C699 C694 1.363 . S
C699 C698 1.415 . S
H700 C697 0.999 . S
H701 C682 0.913 . S
H702 C720 0.951 . S
H703 C722 0.951 . S
H704 C724 0.950 . S
H705 C725 0.950 . S
H706 C727 0.950 . S
H707 C730 0.950 . S
H708 C731 0.950 . S
H709 C733 0.950 . S
H710 C734 0.950 . S
H711 C735 0.951 . S
H712 C737 0.951 . S
H713 C739 0.950 . S
H714 C740 0.950 . S
H715 C742 0.950 . S
H716 C745 0.950 . S
H717 C746 0.950 . S
H718 C748 0.950 . S
H719 C749 0.950 . S
C720 H702 0.951 . S
C720 C721 1.366 . S
C720 C722 1.388 . S
C721 C720 1.366 . S
C721 C725 1.385 . S
C722 H703 0.951 . S
C722 C720 1.388 . S
C722 C723 1.366 . S
C723 C722 1.366 . S
C723 C724 1.414 . S
C723 C726 1.499 . S
C724 H704 0.950 . S
C724 C723 1.414 . S
C724 C725 1.374 . S
C725 H705 0.950 . S
C725 C721 1.385 . S
C725 C724 1.374 . S
C726 C723 1.499 . S
C726 C727 1.373 . S
C726 C728 1.389 . S
C727 H706 0.950 . S
C727 C726 1.373 . S
C727 C743 1.377 . S
C728 C726 1.389 . S
C728 C729 1.524 . S
C728 C742 1.377 . S
C729 C728 1.524 . S
C729 C730 1.397 . S
C729 C734 1.363 . S
C730 H707 0.950 . S
C730 C729 1.397 . S
C730 C731 1.334 . S
C731 H708 0.950 . S
C731 C730 1.334 . S
C731 C732 1.287 . S
C732 C731 1.287 . S
C732 C733 1.524 . S
C732 H751 0.913 . S
C733 H709 0.950 . S
C733 C732 1.524 . S
C733 C734 1.415 . S
C734 H710 0.950 . S
C734 C729 1.363 . S
C734 C733 1.415 . S
C735 H711 0.951 . S
C735 C736 1.366 . S
C735 C737 1.388 . S
C736 C735 1.366 . S
C736 C740 1.385 . S
C737 H712 0.951 . S
C737 C735 1.388 . S
C737 C738 1.366 . S
C738 C737 1.366 . S
C738 C739 1.414 . S
C738 C741 1.499 . S
C739 H713 0.950 . S
C739 C738 1.414 . S
C739 C740 1.374 . S
C740 H714 0.950 . S
C740 C736 1.385 . S
C740 C739 1.374 . S
C741 C738 1.499 . S
C741 C742 1.373 . S
C741 C743 1.389 . S
C742 H715 0.950 . S
C742 C728 1.377 . S
C742 C741 1.373 . S
C743 C727 1.377 . S
C743 C741 1.389 . S
C743 C744 1.524 . S
C744 C743 1.524 . S
C744 C745 1.397 . S
C744 C749 1.363 . S
C745 H716 0.950 . S
C745 C744 1.397 . S
C745 C746 1.334 . S
C746 H717 0.950 . S
C746 C745 1.334 . S
C746 C747 1.287 . S
C747 C746 1.287 . S
C747 C748 1.524 . S
C747 H750 0.999 . S
C748 H718 0.950 . S
C748 C747 1.524 . S
C748 C749 1.415 . S
C749 H719 0.950 . S
C749 C744 1.363 . S
C749 C748 1.415 . S
H750 C747 0.999 . S
H751 C732 0.913 . S
H752 C770 0.951 . S
H753 C772 0.951 . S
H754 C774 0.950 . S
H755 C775 0.950 . S
H756 C777 0.950 . S
H757 C780 0.950 . S
H758 C781 0.950 . S
H759 C783 0.950 . S
H760 C784 0.950 . S
H761 C785 0.951 . S
H762 C787 0.951 . S
H763 C789 0.950 . S
H764 C790 0.950 . S
H765 C792 0.950 . S
H766 C795 0.950 . S
H767 C796 0.950 . S
H768 C798 0.950 . S
H769 C799 0.950 . S
C770 H752 0.951 . S
C770 C771 1.366 . S
C770 C772 1.388 . S
C771 C770 1.366 . S
C771 C775 1.385 . S
C772 H753 0.951 . S
C772 C770 1.388 . S
C772 C773 1.366 . S
C773 C772 1.366 . S
C773 C774 1.414 . S
C773 C776 1.499 . S
C774 H754 0.950 . S
C774 C773 1.414 . S
C774 C775 1.374 . S
C775 H755 0.950 . S
C775 C771 1.385 . S
C775 C774 1.374 . S
C776 C773 1.499 . S
C776 C777 1.395 . S
C776 C778 1.389 1_565 S
C777 H756 0.950 . S
C777 C776 1.395 . S
C777 C793 1.355 1_556 S
C778 C776 1.389 1_545 S
C778 C779 1.524 . S
C778 C792 1.355 1_556 S
C779 C778 1.524 . S
C779 C780 1.397 . S
C779 C784 1.363 . S
C780 H757 0.950 . S
C780 C779 1.397 . S
C780 C781 1.334 . S
C781 H758 0.950 . S
C781 C780 1.334 . S
C781 C782 1.287 . S
C782 C781 1.287 . S
C782 C783 1.524 . S
C782 H801 0.913 . S
C783 H759 0.950 . S
C783 C782 1.524 . S
C783 C784 1.415 . S
C784 H760 0.950 . S
C784 C779 1.363 . S
C784 C783 1.415 . S
C785 H761 0.951 . S
C785 C786 1.366 . S
C785 C787 1.388 . S
C786 C785 1.366 . S
C786 C790 1.385 . S
C787 H762 0.951 . S
C787 C785 1.388 . S
C787 C788 1.366 . S
C788 C787 1.366 . S
C788 C789 1.414 . S
C788 C791 1.499 . S
C789 H763 0.950 . S
C789 C788 1.414 . S
C789 C790 1.374 . S
C790 H764 0.950 . S
C790 C786 1.385 . S
C790 C789 1.374 . S
C791 C788 1.499 . S
C791 C792 1.395 . S
C791 C793 1.389 1_545 S
C792 H765 0.950 . S
C792 C778 1.355 1_554 S
C792 C791 1.395 . S
C793 C777 1.355 1_554 S
C793 C791 1.389 1_565 S
C793 C794 1.524 . S
C794 C793 1.524 . S
C794 C795 1.397 . S
C794 C799 1.363 . S
C795 H766 0.950 . S
C795 C794 1.397 . S
C795 C796 1.334 . S
C796 H767 0.950 . S
C796 C795 1.334 . S
C796 C797 1.287 . S
C797 C796 1.287 . S
C797 C798 1.524 . S
C797 H800 0.999 . S
C798 H768 0.950 . S
C798 C797 1.524 . S
C798 C799 1.415 . S
C799 H769 0.950 . S
C799 C794 1.363 . S
C799 C798 1.415 . S
H800 C797 0.999 . S
H801 C782 0.913 . S
H802 C820 0.951 . S
H803 C822 0.951 . S
H804 C824 0.950 . S
H805 C825 0.950 . S
H806 C827 0.950 . S
H807 C830 0.950 . S
H808 C831 0.950 . S
H809 C833 0.950 . S
H810 C834 0.950 . S
H811 C835 0.951 . S
H812 C837 0.951 . S
H813 C839 0.950 . S
H814 C840 0.950 . S
H815 C842 0.950 . S
H816 C845 0.950 . S
H817 C846 0.950 . S
H818 C848 0.950 . S
H819 C849 0.950 . S
C820 H802 0.951 . S
C820 C821 1.366 . S
C820 C822 1.388 . S
C821 C820 1.366 . S
C821 C825 1.385 . S
C822 H803 0.951 . S
C822 C820 1.388 . S
C822 C823 1.366 . S
C823 C822 1.366 . S
C823 C824 1.414 . S
C823 C826 1.499 . S
C824 H804 0.950 . S
C824 C823 1.414 . S
C824 C825 1.374 . S
C825 H805 0.950 . S
C825 C821 1.385 . S
C825 C824 1.374 . S
C826 C823 1.499 . S
C826 C827 1.373 1_565 S
C826 C828 1.389 . S
C827 H806 0.950 . S
C827 C826 1.373 1_545 S
C827 C843 1.377 . S
C828 C826 1.389 . S
C828 C829 1.524 . S
C828 C842 1.377 . S
C829 C828 1.524 . S
C829 C830 1.397 . S
C829 C834 1.363 . S
C830 H807 0.950 . S
C830 C829 1.397 . S
C830 C831 1.334 . S
C831 H808 0.950 . S
C831 C830 1.334 . S
C831 C832 1.287 . S
C832 C831 1.287 . S
C832 C833 1.524 . S
C832 H851 0.913 . S
C833 H809 0.950 . S
C833 C832 1.524 . S
C833 C834 1.415 . S
C834 H810 0.950 . S
C834 C829 1.363 . S
C834 C833 1.415 . S
C835 H811 0.951 . S
C835 C836 1.366 . S
C835 C837 1.388 . S
C836 C835 1.366 . S
C836 C840 1.385 . S
C837 H812 0.951 . S
C837 C835 1.388 . S
C837 C838 1.366 . S
C838 C837 1.366 . S
C838 C839 1.414 . S
C838 C841 1.499 . S
C839 H813 0.950 . S
C839 C838 1.414 . S
C839 C840 1.374 . S
C840 H814 0.950 . S
C840 C836 1.385 . S
C840 C839 1.374 . S
C841 C838 1.499 . S
C841 C842 1.373 1_545 S
C841 C843 1.389 . S
C842 H815 0.950 . S
C842 C828 1.377 . S
C842 C841 1.373 1_565 S
C843 C827 1.377 . S
C843 C841 1.389 . S
C843 C844 1.524 . S
C844 C843 1.524 . S
C844 C845 1.397 . S
C844 C849 1.363 . S
C845 H816 0.950 . S
C845 C844 1.397 . S
C845 C846 1.334 . S
C846 H817 0.950 . S
C846 C845 1.334 . S
C846 C847 1.287 . S
C847 C846 1.287 . S
C847 C848 1.524 . S
C847 H850 0.999 . S
C848 H818 0.950 . S
C848 C847 1.524 . S
C848 C849 1.415 . S
C849 H819 0.950 . S
C849 C844 1.363 . S
C849 C848 1.415 . S
H850 C847 0.999 . S
H851 C832 0.913 . S
H852 C870 0.951 . S
H853 C872 0.951 . S
H854 C874 0.950 . S
H855 C875 0.950 . S
H856 C877 0.950 . S
H857 C880 0.950 . S
H858 C881 0.950 . S
H859 C883 0.950 . S
H860 C884 0.950 . S
H861 C885 0.951 . S
H862 C887 0.951 . S
H863 C889 0.950 . S
H864 C890 0.950 . S
H865 C892 0.950 . S
H866 C895 0.950 . S
H867 C896 0.950 . S
H868 C898 0.950 . S
H869 C899 0.950 . S
C870 H852 0.951 . S
C870 C871 1.366 . S
C870 C872 1.388 . S
C871 C870 1.366 . S
C871 C875 1.385 . S
C872 H853 0.951 . S
C872 C870 1.388 . S
C872 C873 1.366 . S
C873 C872 1.366 . S
C873 C874 1.414 . S
C873 C876 1.499 . S
C874 H854 0.950 . S
C874 C873 1.414 . S
C874 C875 1.374 . S
C875 H855 0.950 . S
C875 C871 1.385 . S
C875 C874 1.374 . S
C876 C873 1.499 . S
C876 C877 1.373 . S
C876 C878 1.389 . S
C877 H856 0.950 . S
C877 C876 1.373 . S
C877 C893 1.377 1_566 S
C878 C876 1.389 . S
C878 C879 1.524 . S
C878 C892 1.377 1_566 S
C879 C878 1.524 . S
C879 C880 1.397 . S
C879 C884 1.363 1_565 S
C880 H857 0.950 . S
C880 C879 1.397 . S
C880 C881 1.334 . S
C881 H858 0.950 . S
C881 C880 1.334 . S
C881 C882 1.287 . S
C882 C881 1.287 . S
C882 C883 1.524 1_565 S
C882 H901 0.913 . S
C883 H859 0.950 . S
C883 C882 1.524 1_545 S
C883 C884 1.415 . S
C884 H860 0.950 . S
C884 C879 1.363 1_545 S
C884 C883 1.415 . S
C885 H861 0.951 . S
C885 C886 1.366 . S
C885 C887 1.388 . S
C886 C885 1.366 . S
C886 C890 1.385 . S
C887 H862 0.951 . S
C887 C885 1.388 . S
C887 C888 1.366 . S
C888 C887 1.366 . S
C888 C889 1.414 . S
C888 C891 1.499 . S
C889 H863 0.950 . S
C889 C888 1.414 . S
C889 C890 1.374 . S
C890 H864 0.950 . S
C890 C886 1.385 . S
C890 C889 1.374 . S
C891 C888 1.499 . S
C891 C892 1.373 . S
C891 C893 1.389 . S
C892 H865 0.950 . S
C892 C878 1.377 1_544 S
C892 C891 1.373 . S
C893 C877 1.377 1_544 S
C893 C891 1.389 . S
C893 C894 1.524 . S
C894 C893 1.524 . S
C894 C895 1.397 . S
C894 C899 1.363 1_545 S
C895 H866 0.950 . S
C895 C894 1.397 . S
C895 C896 1.334 . S
C896 H867 0.950 . S
C896 C895 1.334 . S
C896 C897 1.287 . S
C897 C896 1.287 . S
C897 C898 1.524 1_545 S
C897 H900 0.999 . S
C898 H868 0.950 . S
C898 C897 1.524 1_565 S
C898 C899 1.415 . S
C899 H869 0.950 . S
C899 C894 1.363 1_565 S
C899 C898 1.415 . S
H900 C897 0.999 . S
H901 C882 0.913 . S
H902 C920 0.951 . S
H903 C922 0.951 . S
H904 C924 0.950 . S
H905 C925 0.950 . S
H906 C927 0.950 . S
H907 C930 0.950 . S
H908 C931 0.950 . S
H909 C933 0.950 . S
H910 C934 0.950 . S
H911 C935 0.951 . S
H912 C937 0.951 . S
H913 C939 0.950 . S
H914 C940 0.950 . S
H915 C942 0.950 . S
H916 C945 0.950 . S
H917 C946 0.950 . S
H918 C948 0.950 . S
H919 C949 0.950 . S
C920 H902 0.951 . S
C920 C921 1.366 . S
C920 C922 1.388 . S
C921 C920 1.366 . S
C921 C925 1.385 . S
C922 H903 0.951 . S
C922 C920 1.388 . S
C922 C923 1.366 . S
C923 C922 1.366 . S
C923 C924 1.414 . S
C923 C926 1.499 . S
C924 H904 0.950 . S
C924 C923 1.414 . S
C924 C925 1.374 . S
C925 H905 0.950 . S
C925 C921 1.385 . S
C925 C924 1.374 . S
C926 C923 1.499 . S
C926 C927 1.373 . S
C926 C928 1.389 . S
C927 H906 0.950 . S
C927 C926 1.373 . S
C927 C943 1.377 1_565 S
C928 C926 1.389 . S
C928 C929 1.524 . S
C928 C942 1.377 1_565 S
C929 C928 1.524 . S
C929 C930 1.397 . S
C929 C934 1.363 . S
C930 H907 0.950 . S
C930 C929 1.397 . S
C930 C931 1.334 . S
C931 H908 0.950 . S
C931 C930 1.334 . S
C931 C932 1.287 . S
C932 C931 1.287 . S
C932 C933 1.524 . S
C932 H951 0.913 . S
C933 H909 0.950 . S
C933 C932 1.524 . S
C933 C934 1.415 . S
C934 H910 0.950 . S
C934 C929 1.363 . S
C934 C933 1.415 . S
C935 H911 0.951 . S
C935 C936 1.366 . S
C935 C937 1.388 . S
C936 C935 1.366 . S
C936 C940 1.385 . S
C937 H912 0.951 . S
C937 C935 1.388 . S
C937 C938 1.366 . S
C938 C937 1.366 . S
C938 C939 1.414 . S
C938 C941 1.499 . S
C939 H913 0.950 . S
C939 C938 1.414 . S
C939 C940 1.374 . S
C940 H914 0.950 . S
C940 C936 1.385 . S
C940 C939 1.374 . S
C941 C938 1.499 . S
C941 C942 1.373 . S
C941 C943 1.389 . S
C942 H915 0.950 . S
C942 C928 1.377 1_545 S
C942 C941 1.373 . S
C943 C927 1.377 1_545 S
C943 C941 1.389 . S
C943 C944 1.524 . S
C944 C943 1.524 . S
C944 C945 1.397 . S
C944 C949 1.363 . S
C945 H916 0.950 . S
C945 C944 1.397 . S
C945 C946 1.334 . S
C946 H917 0.950 . S
C946 C945 1.334 . S
C946 C947 1.287 . S
C947 C946 1.287 . S
C947 C948 1.524 . S
C947 H950 0.999 . S
C948 H918 0.950 . S
C948 C947 1.524 . S
C948 C949 1.415 . S
C949 H919 0.950 . S
C949 C944 1.363 . S
C949 C948 1.415 . S
H950 C947 0.999 . S
H951 C932 0.913 . S
H952 C970 0.951 . S
H953 C972 0.951 . S
H954 C974 0.950 . S
H955 C975 0.950 . S
H956 C977 0.950 . S
H957 C980 0.950 . S
H958 C981 0.950 . S
H959 C983 0.950 . S
H960 C984 0.950 . S
H961 C985 0.951 . S
H962 C987 0.951 . S
H963 C989 0.950 . S
H964 C990 0.950 . S
H965 C992 0.950 . S
H966 C995 0.950 . S
H967 C996 0.950 . S
H968 C998 0.950 . S
H969 C999 0.950 . S
C970 H952 0.951 . S
C970 C971 1.366 . S
C970 C972 1.388 . S
C971 C970 1.366 . S
C971 C975 1.385 . S
C972 H953 0.951 . S
C972 C970 1.388 . S
C972 C973 1.366 . S
C973 C972 1.366 . S
C973 C974 1.414 . S
C973 C976 1.499 . S
C974 H954 0.950 . S
C974 C973 1.414 . S
C974 C975 1.374 . S
C975 H955 0.950 . S
C975 C971 1.385 . S
C975 C974 1.374 . S
C976 C973 1.499 . S
C976 C977 1.368 1_554 S
C976 C978 1.389 . S
C977 H956 0.950 . S
C977 C976 1.368 1_556 S
C977 C993 1.381 . S
C978 C976 1.389 . S
C978 C979 1.524 . S
C978 C992 1.381 . S
C979 C978 1.524 . S
C979 C980 1.397 . S
C979 C984 1.363 . S
C980 H957 0.950 . S
C980 C979 1.397 . S
C980 C981 1.334 . S
C981 H958 0.950 . S
C981 C980 1.334 . S
C981 C982 1.287 . S
C982 C981 1.287 . S
C982 C983 1.524 . S
C982 H1001 0.913 . S
C983 H959 0.950 . S
C983 C982 1.524 . S
C983 C984 1.415 . S
C984 H960 0.950 . S
C984 C979 1.363 . S
C984 C983 1.415 . S
C985 H961 0.951 . S
C985 C986 1.366 . S
C985 C987 1.388 . S
C986 C985 1.366 . S
C986 C990 1.385 . S
C987 H962 0.951 . S
C987 C985 1.388 . S
C987 C988 1.366 . S
C988 C987 1.366 . S
C988 C989 1.414 . S
C988 C991 1.499 . S
C989 H963 0.950 . S
C989 C988 1.414 . S
C989 C990 1.374 . S
C990 H964 0.950 . S
C990 C986 1.385 . S
C990 C989 1.374 . S
C991 C988 1.499 . S
C991 C992 1.368 1_556 S
C991 C993 1.389 . S
C992 H965 0.950 . S
C992 C978 1.381 . S
C992 C991 1.368 1_554 S
C993 C977 1.381 . S
C993 C991 1.389 . S
C993 C994 1.524 . S
C994 C993 1.524 . S
C994 C995 1.397 . S
C994 C999 1.363 . S
C995 H966 0.950 . S
C995 C994 1.397 . S
C995 C996 1.334 . S
C996 H967 0.950 . S
C996 C995 1.334 . S
C996 C997 1.287 . S
C997 C996 1.287 . S
C997 C998 1.524 . S
C997 H1000 0.999 . S
C998 H968 0.950 . S
C998 C997 1.524 . S
C998 C999 1.415 . S
C999 H969 0.950 . S
C999 C994 1.363 . S
C999 C998 1.415 . S
H1000 C997 0.999 . S
H1001 C982 0.913 . S
H1002 C1020 0.951 . S
H1003 C1022 0.951 . S
H1004 C1024 0.950 . S
H1005 C1025 0.950 . S
H1006 C1027 0.950 . S
H1007 C1030 0.950 . S
H1008 C1031 0.950 . S
H1009 C1033 0.950 . S
H1010 C1034 0.950 . S
H1011 C1035 0.951 . S
H1012 C1037 0.951 . S
H1013 C1039 0.950 . S
H1014 C1040 0.950 . S
H1015 C1042 0.950 . S
H1016 C1045 0.950 . S
H1017 C1046 0.950 . S
H1018 C1048 0.950 . S
H1019 C1049 0.950 . S
C1020 H1002 0.951 . S
C1020 C1021 1.366 . S
C1020 C1022 1.388 . S
C1021 C1020 1.366 . S
C1021 C1025 1.385 . S
C1022 H1003 0.951 . S
C1022 C1020 1.388 . S
C1022 C1023 1.366 . S
C1023 C1022 1.366 . S
C1023 C1024 1.414 . S
C1023 C1026 1.499 . S
C1024 H1004 0.950 . S
C1024 C1023 1.414 . S
C1024 C1025 1.374 . S
C1025 H1005 0.950 . S
C1025 C1021 1.385 . S
C1025 C1024 1.374 . S
C1026 C1023 1.499 . S
C1026 C1027 1.373 . S
C1026 C1028 1.389 . S
C1027 H1006 0.950 . S
C1027 C1026 1.373 . S
C1027 C1043 1.377 . S
C1028 C1026 1.389 . S
C1028 C1029 1.524 . S
C1028 C1042 1.377 . S
C1029 C1028 1.524 . S
C1029 C1030 1.397 . S
C1029 C1034 1.363 . S
C1030 H1007 0.950 . S
C1030 C1029 1.397 . S
C1030 C1031 1.334 . S
C1031 H1008 0.950 . S
C1031 C1030 1.334 . S
C1031 C1032 1.287 . S
C1032 C1031 1.287 . S
C1032 C1033 1.524 . S
C1032 H1051 0.913 . S
C1033 H1009 0.950 . S
C1033 C1032 1.524 . S
C1033 C1034 1.415 . S
C1034 H1010 0.950 . S
C1034 C1029 1.363 . S
C1034 C1033 1.415 . S
C1035 H1011 0.951 . S
C1035 C1036 1.366 . S
C1035 C1037 1.388 . S
C1036 C1035 1.366 . S
C1036 C1040 1.385 . S
C1037 H1012 0.951 . S
C1037 C1035 1.388 . S
C1037 C1038 1.366 . S
C1038 C1037 1.366 . S
C1038 C1039 1.414 . S
C1038 C1041 1.499 . S
C1039 H1013 0.950 . S
C1039 C1038 1.414 . S
C1039 C1040 1.374 . S
C1040 H1014 0.950 . S
C1040 C1036 1.385 . S
C1040 C1039 1.374 . S
C1041 C1038 1.499 . S
C1041 C1042 1.373 . S
C1041 C1043 1.389 . S
C1042 H1015 0.950 . S
C1042 C1028 1.377 . S
C1042 C1041 1.373 . S
C1043 C1027 1.377 . S
C1043 C1041 1.389 . S
C1043 C1044 1.524 . S
C1044 C1043 1.524 . S
C1044 C1045 1.397 . S
C1044 C1049 1.363 . S
C1045 H1016 0.950 . S
C1045 C1044 1.397 . S
C1045 C1046 1.334 . S
C1046 H1017 0.950 . S
C1046 C1045 1.334 . S
C1046 C1047 1.287 . S
C1047 C1046 1.287 . S
C1047 C1048 1.524 . S
C1047 H1050 0.999 . S
C1048 H1018 0.950 . S
C1048 C1047 1.524 . S
C1048 C1049 1.415 . S
C1049 H1019 0.950 . S
C1049 C1044 1.363 . S
C1049 C1048 1.415 . S
H1050 C1047 0.999 . S
H1051 C1032 0.913 . S
H1052 C1070 0.951 . S
H1053 C1072 0.951 . S
H1054 C1074 0.950 . S
H1055 C1075 0.950 . S
H1056 C1077 0.950 . S
H1057 C1080 0.950 . S
H1058 C1081 0.950 . S
H1059 C1083 0.950 . S
H1060 C1084 0.949 . S
H1061 C1085 0.951 . S
H1062 C1087 0.951 . S
H1063 C1089 0.950 . S
H1064 C1090 0.950 . S
H1065 C1092 0.950 . S
H1066 C1095 0.950 . S
H1067 C1096 0.950 . S
H1068 C1098 0.950 . S
H1069 C1099 0.949 . S
C1070 H1052 0.951 . S
C1070 C1071 1.366 . S
C1070 C1072 1.388 . S
C1071 C1070 1.366 . S
C1071 C1075 1.385 . S
C1072 H1053 0.951 . S
C1072 C1070 1.388 . S
C1072 C1073 1.366 . S
C1073 C1072 1.366 . S
C1073 C1074 1.414 . S
C1073 C1076 1.499 . S
C1074 H1054 0.950 . S
C1074 C1073 1.414 . S
C1074 C1075 1.374 . S
C1075 H1055 0.950 . S
C1075 C1071 1.385 . S
C1075 C1074 1.374 . S
C1076 C1073 1.499 . S
C1076 C1077 1.373 . S
C1076 C1078 1.389 . S
C1077 H1056 0.950 . S
C1077 C1076 1.373 . S
C1077 C1093 1.377 1_554 S
C1078 C1076 1.389 . S
C1078 C1079 1.524 . S
C1078 C1092 1.377 1_554 S
C1079 C1078 1.524 . S
C1079 C1080 1.397 . S
C1079 C1084 1.363 . S
C1080 H1057 0.950 . S
C1080 C1079 1.397 . S
C1080 C1081 1.334 . S
C1081 H1058 0.950 . S
C1081 C1080 1.334 . S
C1081 C1082 1.287 . S
C1082 C1081 1.287 . S
C1082 C1083 1.524 . S
C1082 H1101 0.913 . S
C1083 H1059 0.950 . S
C1083 C1082 1.524 . S
C1083 C1084 1.415 . S
C1084 H1060 0.949 . S
C1084 C1079 1.363 . S
C1084 C1083 1.415 . S
C1085 H1061 0.951 . S
C1085 C1086 1.366 . S
C1085 C1087 1.388 . S
C1086 C1085 1.366 . S
C1086 C1090 1.385 . S
C1087 H1062 0.951 . S
C1087 C1085 1.388 . S
C1087 C1088 1.366 . S
C1088 C1087 1.366 . S
C1088 C1089 1.414 . S
C1088 C1091 1.499 . S
C1089 H1063 0.950 . S
C1089 C1088 1.414 . S
C1089 C1090 1.374 . S
C1090 H1064 0.950 . S
C1090 C1086 1.385 . S
C1090 C1089 1.374 . S
C1091 C1088 1.499 . S
C1091 C1092 1.373 . S
C1091 C1093 1.389 . S
C1092 H1065 0.950 . S
C1092 C1078 1.377 1_556 S
C1092 C1091 1.373 . S
C1093 C1077 1.377 1_556 S
C1093 C1091 1.389 . S
C1093 C1094 1.524 . S
C1094 C1093 1.524 . S
C1094 C1095 1.397 . S
C1094 C1099 1.363 . S
C1095 H1066 0.950 . S
C1095 C1094 1.397 . S
C1095 C1096 1.334 . S
C1096 H1067 0.950 . S
C1096 C1095 1.334 . S
C1096 C1097 1.287 . S
C1097 C1096 1.287 . S
C1097 C1098 1.524 . S
C1097 H1100 0.999 . S
C1098 H1068 0.950 . S
C1098 C1097 1.524 . S
C1098 C1099 1.415 . S
C1099 H1069 0.949 . S
C1099 C1094 1.363 . S
C1099 C1098 1.415 . S
H1100 C1097 0.999 . S
H1101 C1082 0.913 . S
H1102 C1120 0.951 . S
H1103 C1122 0.951 . S
H1104 C1124 0.950 . S
H1105 C1125 0.950 . S
H1106 C1127 0.950 . S
H1107 C1130 0.950 . S
H1108 C1131 0.950 . S
H1109 C1133 0.950 . S
H1110 C1134 0.950 . S
H1111 C1135 0.951 . S
H1112 C1137 0.951 . S
H1113 C1139 0.950 . S
H1114 C1140 0.950 . S
H1115 C1142 0.950 . S
H1116 C1145 0.950 . S
H1117 C1146 0.950 . S
H1118 C1148 0.950 . S
H1119 C1149 0.950 . S
C1120 H1102 0.951 . S
C1120 C1121 1.366 . S
C1120 C1122 1.388 . S
C1121 C1120 1.366 . S
C1121 C1125 1.385 . S
C1122 H1103 0.951 . S
C1122 C1120 1.388 . S
C1122 C1123 1.366 . S
C1123 C1122 1.366 . S
C1123 C1124 1.414 . S
C1123 C1126 1.499 . S
C1124 H1104 0.950 . S
C1124 C1123 1.414 . S
C1124 C1125 1.374 . S
C1125 H1105 0.950 . S
C1125 C1121 1.385 . S
C1125 C1124 1.374 . S
C1126 C1123 1.499 . S
C1126 C1127 1.373 . S
C1126 C1128 1.389 . S
C1127 H1106 0.950 . S
C1127 C1126 1.373 . S
C1127 C1143 1.377 . S
C1128 C1126 1.389 . S
C1128 C1129 1.524 . S
C1128 C1142 1.377 . S
C1129 C1128 1.524 . S
C1129 C1130 1.397 . S
C1129 C1134 1.363 . S
C1130 H1107 0.950 . S
C1130 C1129 1.397 . S
C1130 C1131 1.334 . S
C1131 H1108 0.950 . S
C1131 C1130 1.334 . S
C1131 C1132 1.287 . S
C1132 C1131 1.287 . S
C1132 C1133 1.524 . S
C1132 H1151 0.913 . S
C1133 H1109 0.950 . S
C1133 C1132 1.524 . S
C1133 C1134 1.415 . S
C1134 H1110 0.950 . S
C1134 C1129 1.363 . S
C1134 C1133 1.415 . S
C1135 H1111 0.951 . S
C1135 C1136 1.366 . S
C1135 C1137 1.388 . S
C1136 C1135 1.366 . S
C1136 C1140 1.385 . S
C1137 H1112 0.951 . S
C1137 C1135 1.388 . S
C1137 C1138 1.366 . S
C1138 C1137 1.366 . S
C1138 C1139 1.414 . S
C1138 C1141 1.499 . S
C1139 H1113 0.950 . S
C1139 C1138 1.414 . S
C1139 C1140 1.374 . S
C1140 H1114 0.950 . S
C1140 C1136 1.385 . S
C1140 C1139 1.374 . S
C1141 C1138 1.499 . S
C1141 C1142 1.373 . S
C1141 C1143 1.389 . S
C1142 H1115 0.950 . S
C1142 C1128 1.377 . S
C1142 C1141 1.373 . S
C1143 C1127 1.377 . S
C1143 C1141 1.389 . S
C1143 C1144 1.524 . S
C1144 C1143 1.524 . S
C1144 C1145 1.397 . S
C1144 C1149 1.363 . S
C1145 H1116 0.950 . S
C1145 C1144 1.397 . S
C1145 C1146 1.334 . S
C1146 H1117 0.950 . S
C1146 C1145 1.334 . S
C1146 C1147 1.287 . S
C1147 C1146 1.287 . S
C1147 C1148 1.524 . S
C1147 H1150 0.999 . S
C1148 H1118 0.950 . S
C1148 C1147 1.524 . S
C1148 C1149 1.415 . S
C1149 H1119 0.950 . S
C1149 C1144 1.363 . S
C1149 C1148 1.415 . S
H1150 C1147 0.999 . S
H1151 C1132 0.913 . S
H1152 C1170 0.951 . S
H1153 C1172 0.951 . S
H1154 C1174 0.950 . S
H1155 C1175 0.950 . S
H1156 C1177 0.950 . S
H1157 C1180 0.950 . S
H1158 C1181 0.950 . S
H1159 C1183 0.950 . S
H1160 C1184 0.950 . S
H1161 C1185 0.951 . S
H1162 C1187 0.951 . S
H1163 C1189 0.950 . S
H1164 C1190 0.950 . S
H1165 C1192 0.950 . S
H1166 C1195 0.950 . S
H1167 C1196 0.950 . S
H1168 C1198 0.950 . S
H1169 C1199 0.950 . S
C1170 H1152 0.951 . S
C1170 C1171 1.366 . S
C1170 C1172 1.388 . S
C1171 C1170 1.366 . S
C1171 C1175 1.385 . S
C1172 H1153 0.951 . S
C1172 C1170 1.388 . S
C1172 C1173 1.366 . S
C1173 C1172 1.366 . S
C1173 C1174 1.414 . S
C1173 C1176 1.499 . S
C1174 H1154 0.950 . S
C1174 C1173 1.414 . S
C1174 C1175 1.374 . S
C1175 H1155 0.950 . S
C1175 C1171 1.385 . S
C1175 C1174 1.374 . S
C1176 C1173 1.499 . S
C1176 C1177 1.373 . S
C1176 C1178 1.389 . S
C1177 H1156 0.950 . S
C1177 C1176 1.373 . S
C1177 C1193 1.377 . S
C1178 C1176 1.389 . S
C1178 C1179 1.524 . S
C1178 C1192 1.377 . S
C1179 C1178 1.524 . S
C1179 C1180 1.397 . S
C1179 C1184 1.363 . S
C1180 H1157 0.950 . S
C1180 C1179 1.397 . S
C1180 C1181 1.334 . S
C1181 H1158 0.950 . S
C1181 C1180 1.334 . S
C1181 C1182 1.287 . S
C1182 C1181 1.287 . S
C1182 C1183 1.524 . S
C1182 H1201 0.913 . S
C1183 H1159 0.950 . S
C1183 C1182 1.524 . S
C1183 C1184 1.415 . S
C1184 H1160 0.950 . S
C1184 C1179 1.363 . S
C1184 C1183 1.415 . S
C1185 H1161 0.951 . S
C1185 C1186 1.366 . S
C1185 C1187 1.388 . S
C1186 C1185 1.366 . S
C1186 C1190 1.385 . S
C1187 H1162 0.951 . S
C1187 C1185 1.388 . S
C1187 C1188 1.366 . S
C1188 C1187 1.366 . S
C1188 C1189 1.414 . S
C1188 C1191 1.499 . S
C1189 H1163 0.950 . S
C1189 C1188 1.414 . S
C1189 C1190 1.374 . S
C1190 H1164 0.950 . S
C1190 C1186 1.385 . S
C1190 C1189 1.374 . S
C1191 C1188 1.499 . S
C1191 C1192 1.373 . S
C1191 C1193 1.389 . S
C1192 H1165 0.950 . S
C1192 C1178 1.377 . S
C1192 C1191 1.373 . S
C1193 C1177 1.377 . S
C1193 C1191 1.389 . S
C1193 C1194 1.524 . S
C1194 C1193 1.524 . S
C1194 C1195 1.397 . S
C1194 C1199 1.363 . S
C1195 H1166 0.950 . S
C1195 C1194 1.397 . S
C1195 C1196 1.334 . S
C1196 H1167 0.950 . S
C1196 C1195 1.334 . S
C1196 C1197 1.287 . S
C1197 C1196 1.287 . S
C1197 C1198 1.524 . S
C1197 H1200 0.999 . S
C1198 H1168 0.950 . S
C1198 C1197 1.524 . S
C1198 C1199 1.415 . S
C1199 H1169 0.950 . S
C1199 C1194 1.363 . S
C1199 C1198 1.415 . S
H1200 C1197 0.999 . S
H1201 C1182 0.913 . S
H1202 C1220 0.951 . S
H1203 C1222 0.951 . S
H1204 C1224 0.950 . S
H1205 C1225 0.950 . S
H1206 C1227 0.950 . S
H1207 C1230 0.950 . S
H1208 C1231 0.950 . S
H1209 C1233 0.950 . S
H1210 C1234 0.950 . S
H1211 C1235 0.951 . S
H1212 C1237 0.951 . S
H1213 C1239 0.950 . S
H1214 C1240 0.950 . S
H1215 C1242 0.950 . S
H1216 C1245 0.950 . S
H1217 C1246 0.950 . S
H1218 C1248 0.950 . S
H1219 C1249 0.950 . S
C1220 H1202 0.951 . S
C1220 C1221 1.366 . S
C1220 C1222 1.388 . S
C1221 C1220 1.366 . S
C1221 C1225 1.385 . S
C1222 H1203 0.951 . S
C1222 C1220 1.388 . S
C1222 C1223 1.366 . S
C1223 C1222 1.366 . S
C1223 C1224 1.414 . S
C1223 C1226 1.499 . S
C1224 H1204 0.950 . S
C1224 C1223 1.414 . S
C1224 C1225 1.374 . S
C1225 H1205 0.950 . S
C1225 C1221 1.385 . S
C1225 C1224 1.374 . S
C1226 C1223 1.499 . S
C1226 C1227 1.373 . S
C1226 C1228 1.389 . S
C1227 H1206 0.950 . S
C1227 C1226 1.373 . S
C1227 C1243 1.377 . S
C1228 C1226 1.389 . S
C1228 C1229 1.524 . S
C1228 C1242 1.377 . S
C1229 C1228 1.524 . S
C1229 C1230 1.397 . S
C1229 C1234 1.363 . S
C1230 H1207 0.950 . S
C1230 C1229 1.397 . S
C1230 C1231 1.334 . S
C1231 H1208 0.950 . S
C1231 C1230 1.334 . S
C1231 C1232 1.287 . S
C1232 C1231 1.287 . S
C1232 C1233 1.524 . S
C1232 H1251 0.913 . S
C1233 H1209 0.950 . S
C1233 C1232 1.524 . S
C1233 C1234 1.415 . S
C1234 H1210 0.950 . S
C1234 C1229 1.363 . S
C1234 C1233 1.415 . S
C1235 H1211 0.951 . S
C1235 C1236 1.366 . S
C1235 C1237 1.388 . S
C1236 C1235 1.366 . S
C1236 C1240 1.385 . S
C1237 H1212 0.951 . S
C1237 C1235 1.388 . S
C1237 C1238 1.366 . S
C1238 C1237 1.366 . S
C1238 C1239 1.414 . S
C1238 C1241 1.499 . S
C1239 H1213 0.950 . S
C1239 C1238 1.414 . S
C1239 C1240 1.374 . S
C1240 H1214 0.950 . S
C1240 C1236 1.385 . S
C1240 C1239 1.374 . S
C1241 C1238 1.499 . S
C1241 C1242 1.373 . S
C1241 C1243 1.389 . S
C1242 H1215 0.950 . S
C1242 C1228 1.377 . S
C1242 C1241 1.373 . S
C1243 C1227 1.377 . S
C1243 C1241 1.389 . S
C1243 C1244 1.524 . S
C1244 C1243 1.524 . S
C1244 C1245 1.397 . S
C1244 C1249 1.363 . S
C1245 H1216 0.950 . S
C1245 C1244 1.397 . S
C1245 C1246 1.334 . S
C1246 H1217 0.950 . S
C1246 C1245 1.334 . S
C1246 C1247 1.287 . S
C1247 C1246 1.287 . S
C1247 C1248 1.524 . S
C1247 H1250 0.999 . S
C1248 H1218 0.950 . S
C1248 C1247 1.524 . S
C1248 C1249 1.415 . S
C1249 H1219 0.950 . S
C1249 C1244 1.363 . S
C1249 C1248 1.415 . S
H1250 C1247 0.999 . S
H1251 C1232 0.913 . S
H1252 C1270 0.951 . S
H1253 C1272 0.951 . S
H1254 C1274 0.950 . S
H1255 C1275 0.950 . S
H1256 C1277 0.950 . S
H1257 C1280 0.950 . S
H1258 C1281 0.950 . S
H1259 C1283 0.950 . S
H1260 C1284 0.950 . S
H1261 C1285 0.951 . S
H1262 C1287 0.951 . S
H1263 C1289 0.950 . S
H1264 C1290 0.950 . S
H1265 C1292 0.950 . S
H1266 C1295 0.950 . S
H1267 C1296 0.950 . S
H1268 C1298 0.950 . S
H1269 C1299 0.950 . S
C1270 H1252 0.951 . S
C1270 C1271 1.366 . S
C1270 C1272 1.388 . S
C1271 C1270 1.366 . S
C1271 C1275 1.385 . S
C1272 H1253 0.951 . S
C1272 C1270 1.388 . S
C1272 C1273 1.366 . S
C1273 C1272 1.366 . S
C1273 C1274 1.414 . S
C1273 C1276 1.499 . S
C1274 H1254 0.950 . S
C1274 C1273 1.414 . S
C1274 C1275 1.374 . S
C1275 H1255 0.950 . S
C1275 C1271 1.385 . S
C1275 C1274 1.374 . S
C1276 C1273 1.499 . S
C1276 C1277 1.373 . S
C1276 C1278 1.389 . S
C1277 H1256 0.950 . S
C1277 C1276 1.373 . S
C1277 C1293 1.377 . S
C1278 C1276 1.389 . S
C1278 C1279 1.524 . S
C1278 C1292 1.377 . S
C1279 C1278 1.524 . S
C1279 C1280 1.397 . S
C1279 C1284 1.363 . S
C1280 H1257 0.950 . S
C1280 C1279 1.397 . S
C1280 C1281 1.334 . S
C1281 H1258 0.950 . S
C1281 C1280 1.334 . S
C1281 C1282 1.287 . S
C1282 C1281 1.287 . S
C1282 C1283 1.524 . S
C1282 H1301 0.913 . S
C1283 H1259 0.950 . S
C1283 C1282 1.524 . S
C1283 C1284 1.415 . S
C1284 H1260 0.950 . S
C1284 C1279 1.363 . S
C1284 C1283 1.415 . S
C1285 H1261 0.951 . S
C1285 C1286 1.366 . S
C1285 C1287 1.388 . S
C1286 C1285 1.366 . S
C1286 C1290 1.385 . S
C1287 H1262 0.951 . S
C1287 C1285 1.388 . S
C1287 C1288 1.366 . S
C1288 C1287 1.366 . S
C1288 C1289 1.414 . S
C1288 C1291 1.499 . S
C1289 H1263 0.950 . S
C1289 C1288 1.414 . S
C1289 C1290 1.374 . S
C1290 H1264 0.950 . S
C1290 C1286 1.385 . S
C1290 C1289 1.374 . S
C1291 C1288 1.499 . S
C1291 C1292 1.373 . S
C1291 C1293 1.389 . S
C1292 H1265 0.950 . S
C1292 C1278 1.377 . S
C1292 C1291 1.373 . S
C1293 C1277 1.377 . S
C1293 C1291 1.389 . S
C1293 C1294 1.524 . S
C1294 C1293 1.524 . S
C1294 C1295 1.397 . S
C1294 C1299 1.363 . S
C1295 H1266 0.950 . S
C1295 C1294 1.397 . S
C1295 C1296 1.334 . S
C1296 H1267 0.950 . S
C1296 C1295 1.334 . S
C1296 C1297 1.287 . S
C1297 C1296 1.287 . S
C1297 C1298 1.524 . S
C1297 H1300 0.999 . S
C1298 H1268 0.950 . S
C1298 C1297 1.524 . S
C1298 C1299 1.415 . S
C1299 H1269 0.950 . S
C1299 C1294 1.363 . S
C1299 C1298 1.415 . S
H1300 C1297 0.999 . S
H1301 C1282 0.913 . S
H1302 C1320 0.951 . S
H1303 C1322 0.951 . S
H1304 C1324 0.950 . S
H1305 C1325 0.950 . S
H1306 C1327 0.950 . S
H1307 C1330 0.950 . S
H1308 C1331 0.950 . S
H1309 C1333 0.950 . S
H1310 C1334 0.950 . S
H1311 C1335 0.951 . S
H1312 C1337 0.951 . S
H1313 C1339 0.950 . S
H1314 C1340 0.950 . S
H1315 C1342 0.950 . S
H1316 C1345 0.950 . S
H1317 C1346 0.950 . S
H1318 C1348 0.950 . S
H1319 C1349 0.950 . S
C1320 H1302 0.951 . S
C1320 C1321 1.366 . S
C1320 C1322 1.388 . S
C1321 C1320 1.366 . S
C1321 C1325 1.385 . S
C1322 H1303 0.951 . S
C1322 C1320 1.388 . S
C1322 C1323 1.366 . S
C1323 C1322 1.366 . S
C1323 C1324 1.414 . S
C1323 C1326 1.499 . S
C1324 H1304 0.950 . S
C1324 C1323 1.414 . S
C1324 C1325 1.374 . S
C1325 H1305 0.950 . S
C1325 C1321 1.385 . S
C1325 C1324 1.374 . S
C1326 C1323 1.499 . S
C1326 C1327 1.373 . S
C1326 C1328 1.389 . S
C1327 H1306 0.950 . S
C1327 C1326 1.373 . S
C1327 C1343 1.377 . S
C1328 C1326 1.389 . S
C1328 C1329 1.524 . S
C1328 C1342 1.377 . S
C1329 C1328 1.524 . S
C1329 C1330 1.397 . S
C1329 C1334 1.363 . S
C1330 H1307 0.950 . S
C1330 C1329 1.397 . S
C1330 C1331 1.334 . S
C1331 H1308 0.950 . S
C1331 C1330 1.334 . S
C1331 C1332 1.287 . S
C1332 C1331 1.287 . S
C1332 C1333 1.524 . S
C1332 H1351 0.913 . S
C1333 H1309 0.950 . S
C1333 C1332 1.524 . S
C1333 C1334 1.415 . S
C1334 H1310 0.950 . S
C1334 C1329 1.363 . S
C1334 C1333 1.415 . S
C1335 H1311 0.951 . S
C1335 C1336 1.366 . S
C1335 C1337 1.388 . S
C1336 C1335 1.366 . S
C1336 C1340 1.385 . S
C1337 H1312 0.951 . S
C1337 C1335 1.388 . S
C1337 C1338 1.366 . S
C1338 C1337 1.366 . S
C1338 C1339 1.414 . S
C1338 C1341 1.499 . S
C1339 H1313 0.950 . S
C1339 C1338 1.414 . S
C1339 C1340 1.374 . S
C1340 H1314 0.950 . S
C1340 C1336 1.385 . S
C1340 C1339 1.374 . S
C1341 C1338 1.499 . S
C1341 C1342 1.373 . S
C1341 C1343 1.389 . S
C1342 H1315 0.950 . S
C1342 C1328 1.377 . S
C1342 C1341 1.373 . S
C1343 C1327 1.377 . S
C1343 C1341 1.389 . S
C1343 C1344 1.524 . S
C1344 C1343 1.524 . S
C1344 C1345 1.397 . S
C1344 C1349 1.363 . S
C1345 H1316 0.950 . S
C1345 C1344 1.397 . S
C1345 C1346 1.334 . S
C1346 H1317 0.950 . S
C1346 C1345 1.334 . S
C1346 C1347 1.287 . S
C1347 C1346 1.287 . S
C1347 C1348 1.524 . S
C1347 H1350 0.999 . S
C1348 H1318 0.950 . S
C1348 C1347 1.524 . S
C1348 C1349 1.415 . S
C1349 H1319 0.950 . S
C1349 C1344 1.363 . S
C1349 C1348 1.415 . S
H1350 C1347 0.999 . S
H1351 C1332 0.913 . S
H1352 C1370 0.951 . S
H1353 C1372 0.951 . S
H1354 C1374 0.950 . S
H1355 C1375 0.950 . S
H1356 C1377 0.950 . S
H1357 C1380 0.950 . S
H1358 C1381 0.950 . S
H1359 C1383 0.950 . S
H1360 C1384 0.950 . S
H1361 C1385 0.951 . S
H1362 C1387 0.951 . S
H1363 C1389 0.950 . S
H1364 C1390 0.950 . S
H1365 C1392 0.950 . S
H1366 C1395 0.950 . S
H1367 C1396 0.950 . S
H1368 C1398 0.950 . S
H1369 C1399 0.950 . S
C1370 H1352 0.951 . S
C1370 C1371 1.366 . S
C1370 C1372 1.388 . S
C1371 C1370 1.366 . S
C1371 C1375 1.385 . S
C1372 H1353 0.951 . S
C1372 C1370 1.388 . S
C1372 C1373 1.366 . S
C1373 C1372 1.366 . S
C1373 C1374 1.414 . S
C1373 C1376 1.499 . S
C1374 H1354 0.950 . S
C1374 C1373 1.414 . S
C1374 C1375 1.374 . S
C1375 H1355 0.950 . S
C1375 C1371 1.385 . S
C1375 C1374 1.374 . S
C1376 C1373 1.499 . S
C1376 C1377 1.373 . S
C1376 C1378 1.389 . S
C1377 H1356 0.950 . S
C1377 C1376 1.373 . S
C1377 C1393 1.377 . S
C1378 C1376 1.389 . S
C1378 C1379 1.524 . S
C1378 C1392 1.377 . S
C1379 C1378 1.524 . S
C1379 C1380 1.397 . S
C1379 C1384 1.363 . S
C1380 H1357 0.950 . S
C1380 C1379 1.397 . S
C1380 C1381 1.334 . S
C1381 H1358 0.950 . S
C1381 C1380 1.334 . S
C1381 C1382 1.287 . S
C1382 C1381 1.287 . S
C1382 C1383 1.524 . S
C1382 H1401 0.913 . S
C1383 H1359 0.950 . S
C1383 C1382 1.524 . S
C1383 C1384 1.415 . S
C1384 H1360 0.950 . S
C1384 C1379 1.363 . S
C1384 C1383 1.415 . S
C1385 H1361 0.951 . S
C1385 C1386 1.366 . S
C1385 C1387 1.388 . S
C1386 C1385 1.366 . S
C1386 C1390 1.385 . S
C1387 H1362 0.951 . S
C1387 C1385 1.388 . S
C1387 C1388 1.366 . S
C1388 C1387 1.366 . S
C1388 C1389 1.414 . S
C1388 C1391 1.499 . S
C1389 H1363 0.950 . S
C1389 C1388 1.414 . S
C1389 C1390 1.374 . S
C1390 H1364 0.950 . S
C1390 C1386 1.385 . S
C1390 C1389 1.374 . S
C1391 C1388 1.499 . S
C1391 C1392 1.373 . S
C1391 C1393 1.389 . S
C1392 H1365 0.950 . S
C1392 C1378 1.377 . S
C1392 C1391 1.373 . S
C1393 C1377 1.377 . S
C1393 C1391 1.389 . S
C1393 C1394 1.524 . S
C1394 C1393 1.524 . S
C1394 C1395 1.397 . S
C1394 C1399 1.363 . S
C1395 H1366 0.950 . S
C1395 C1394 1.397 . S
C1395 C1396 1.334 . S
C1396 H1367 0.950 . S
C1396 C1395 1.334 . S
C1396 C1397 1.287 . S
C1397 C1396 1.287 . S
C1397 C1398 1.524 . S
C1397 H1400 0.999 . S
C1398 H1368 0.950 . S
C1398 C1397 1.524 . S
C1398 C1399 1.415 . S
C1399 H1369 0.950 . S
C1399 C1394 1.363 . S
C1399 C1398 1.415 . S
H1400 C1397 0.999 . S
H1401 C1382 0.913 . S
H1402 C1420 0.951 . S
H1403 C1422 0.951 . S
H1404 C1424 0.950 . S
H1405 C1425 0.950 . S
H1406 C1427 0.950 . S
H1407 C1430 0.950 . S
H1408 C1431 0.950 . S
H1409 C1433 0.950 . S
H1410 C1434 0.950 . S
H1411 C1435 0.951 . S
H1412 C1437 0.951 . S
H1413 C1439 0.950 . S
H1414 C1440 0.950 . S
H1415 C1442 0.950 . S
H1416 C1445 0.950 . S
H1417 C1446 0.950 . S
H1418 C1448 0.950 . S
H1419 C1449 0.950 . S
C1420 H1402 0.951 . S
C1420 C1421 1.366 . S
C1420 C1422 1.388 . S
C1421 C1420 1.366 . S
C1421 C1425 1.385 . S
C1422 H1403 0.951 . S
C1422 C1420 1.388 . S
C1422 C1423 1.366 . S
C1423 C1422 1.366 . S
C1423 C1424 1.414 . S
C1423 C1426 1.499 . S
C1424 H1404 0.950 . S
C1424 C1423 1.414 . S
C1424 C1425 1.374 . S
C1425 H1405 0.950 . S
C1425 C1421 1.385 . S
C1425 C1424 1.374 . S
C1426 C1423 1.499 . S
C1426 C1427 1.373 . S
C1426 C1428 1.389 . S
C1427 H1406 0.950 . S
C1427 C1426 1.373 . S
C1427 C1443 1.377 . S
C1428 C1426 1.389 . S
C1428 C1429 1.524 . S
C1428 C1442 1.377 . S
C1429 C1428 1.524 . S
C1429 C1430 1.397 . S
C1429 C1434 1.363 . S
C1430 H1407 0.950 . S
C1430 C1429 1.397 . S
C1430 C1431 1.334 . S
C1431 H1408 0.950 . S
C1431 C1430 1.334 . S
C1431 C1432 1.287 . S
C1432 C1431 1.287 . S
C1432 C1433 1.524 . S
C1432 H1451 0.913 . S
C1433 H1409 0.950 . S
C1433 C1432 1.524 . S
C1433 C1434 1.415 . S
C1434 H1410 0.950 . S
C1434 C1429 1.363 . S
C1434 C1433 1.415 . S
C1435 H1411 0.951 . S
C1435 C1436 1.366 . S
C1435 C1437 1.388 . S
C1436 C1435 1.366 . S
C1436 C1440 1.385 . S
C1437 H1412 0.951 . S
C1437 C1435 1.388 . S
C1437 C1438 1.366 . S
C1438 C1437 1.366 . S
C1438 C1439 1.414 . S
C1438 C1441 1.499 . S
C1439 H1413 0.950 . S
C1439 C1438 1.414 . S
C1439 C1440 1.374 . S
C1440 H1414 0.950 . S
C1440 C1436 1.385 . S
C1440 C1439 1.374 . S
C1441 C1438 1.499 . S
C1441 C1442 1.373 . S
C1441 C1443 1.389 . S
C1442 H1415 0.950 . S
C1442 C1428 1.377 . S
C1442 C1441 1.373 . S
C1443 C1427 1.377 . S
C1443 C1441 1.389 . S
C1443 C1444 1.524 . S
C1444 C1443 1.524 . S
C1444 C1445 1.397 . S
C1444 C1449 1.363 . S
C1445 H1416 0.950 . S
C1445 C1444 1.397 . S
C1445 C1446 1.334 . S
C1446 H1417 0.950 . S
C1446 C1445 1.334 . S
C1446 C1447 1.287 . S
C1447 C1446 1.287 . S
C1447 C1448 1.524 . S
C1447 H1450 0.999 . S
C1448 H1418 0.950 . S
C1448 C1447 1.524 . S
C1448 C1449 1.415 . S
C1449 H1419 0.950 . S
C1449 C1444 1.363 . S
C1449 C1448 1.415 . S
H1450 C1447 0.999 . S
H1451 C1432 0.913 . S
H1452 C1470 0.951 . S
H1453 C1472 0.951 . S
H1454 C1474 0.950 . S
H1455 C1475 0.950 . S
H1456 C1477 0.950 . S
H1457 C1480 0.950 . S
H1458 C1481 0.950 . S
H1459 C1483 0.950 . S
H1460 C1484 0.950 . S
H1461 C1485 0.951 . S
H1462 C1487 0.951 . S
H1463 C1489 0.950 . S
H1464 C1490 0.950 . S
H1465 C1492 0.950 . S
H1466 C1495 0.950 . S
H1467 C1496 0.950 . S
H1468 C1498 0.950 . S
H1469 C1499 0.950 . S
C1470 H1452 0.951 . S
C1470 C1471 1.366 . S
C1470 C1472 1.388 . S
C1471 C1470 1.366 . S
C1471 C1475 1.385 . S
C1472 H1453 0.951 . S
C1472 C1470 1.388 . S
C1472 C1473 1.366 . S
C1473 C1472 1.366 . S
C1473 C1474 1.414 . S
C1473 C1476 1.499 . S
C1474 H1454 0.950 . S
C1474 C1473 1.414 . S
C1474 C1475 1.374 . S
C1475 H1455 0.950 . S
C1475 C1471 1.385 . S
C1475 C1474 1.374 . S
C1476 C1473 1.499 . S
C1476 C1477 1.373 . S
C1476 C1478 1.389 . S
C1477 H1456 0.950 . S
C1477 C1476 1.373 . S
C1477 C1493 1.377 . S
C1478 C1476 1.389 . S
C1478 C1479 1.524 . S
C1478 C1492 1.377 . S
C1479 C1478 1.524 . S
C1479 C1480 1.397 . S
C1479 C1484 1.363 . S
C1480 H1457 0.950 . S
C1480 C1479 1.397 . S
C1480 C1481 1.334 . S
C1481 H1458 0.950 . S
C1481 C1480 1.334 . S
C1481 C1482 1.287 . S
C1482 C1481 1.287 . S
C1482 C1483 1.524 . S
C1482 H1501 0.913 . S
C1483 H1459 0.950 . S
C1483 C1482 1.524 . S
C1483 C1484 1.415 . S
C1484 H1460 0.950 . S
C1484 C1479 1.363 . S
C1484 C1483 1.415 . S
C1485 H1461 0.951 . S
C1485 C1486 1.366 . S
C1485 C1487 1.388 . S
C1486 C1485 1.366 . S
C1486 C1490 1.385 . S
C1487 H1462 0.951 . S
C1487 C1485 1.388 . S
C1487 C1488 1.366 . S
C1488 C1487 1.366 . S
C1488 C1489 1.414 . S
C1488 C1491 1.499 . S
C1489 H1463 0.950 . S
C1489 C1488 1.414 . S
C1489 C1490 1.374 . S
C1490 H1464 0.950 . S
C1490 C1486 1.385 . S
C1490 C1489 1.374 . S
C1491 C1488 1.499 . S
C1491 C1492 1.373 . S
C1491 C1493 1.389 . S
C1492 H1465 0.950 . S
C1492 C1478 1.377 . S
C1492 C1491 1.373 . S
C1493 C1477 1.377 . S
C1493 C1491 1.389 . S
C1493 C1494 1.524 . S
C1494 C1493 1.524 . S
C1494 C1495 1.397 . S
C1494 C1499 1.363 . S
C1495 H1466 0.950 . S
C1495 C1494 1.397 . S
C1495 C1496 1.334 . S
C1496 H1467 0.950 . S
C1496 C1495 1.334 . S
C1496 C1497 1.287 . S
C1497 C1496 1.287 . S
C1497 C1498 1.524 . S
C1497 H1500 0.999 . S
C1498 H1468 0.950 . S
C1498 C1497 1.524 . S
C1498 C1499 1.415 . S
C1499 H1469 0.950 . S
C1499 C1494 1.363 . S
C1499 C1498 1.415 . S
H1500 C1497 0.999 . S
H1501 C1482 0.913 . S
H1502 C1520 0.951 . S
H1503 C1522 0.951 . S
H1504 C1524 0.950 . S
H1505 C1525 0.950 . S
H1506 C1527 0.950 . S
H1507 C1530 0.950 . S
H1508 C1531 0.950 . S
H1509 C1533 0.950 . S
H1510 C1534 0.950 . S
H1511 C1535 0.951 . S
H1512 C1537 0.951 . S
H1513 C1539 0.950 . S
H1514 C1540 0.950 . S
H1515 C1542 0.950 . S
H1516 C1545 0.950 . S
H1517 C1546 0.950 . S
H1518 C1548 0.950 . S
H1519 C1549 0.950 . S
C1520 H1502 0.951 . S
C1520 C1521 1.366 . S
C1520 C1522 1.388 . S
C1521 C1520 1.366 . S
C1521 C1525 1.385 . S
C1522 H1503 0.951 . S
C1522 C1520 1.388 . S
C1522 C1523 1.366 . S
C1523 C1522 1.366 . S
C1523 C1524 1.414 . S
C1523 C1526 1.499 . S
C1524 H1504 0.950 . S
C1524 C1523 1.414 . S
C1524 C1525 1.374 . S
C1525 H1505 0.950 . S
C1525 C1521 1.385 . S
C1525 C1524 1.374 . S
C1526 C1523 1.499 . S
C1526 C1527 1.373 . S
C1526 C1528 1.389 . S
C1527 H1506 0.950 . S
C1527 C1526 1.373 . S
C1527 C1543 1.377 . S
C1528 C1526 1.389 . S
C1528 C1529 1.524 . S
C1528 C1542 1.377 . S
C1529 C1528 1.524 . S
C1529 C1530 1.397 . S
C1529 C1534 1.363 . S
C1530 H1507 0.950 . S
C1530 C1529 1.397 . S
C1530 C1531 1.334 . S
C1531 H1508 0.950 . S
C1531 C1530 1.334 . S
C1531 C1532 1.287 . S
C1532 C1531 1.287 . S
C1532 C1533 1.524 . S
C1532 H1551 0.913 . S
C1533 H1509 0.950 . S
C1533 C1532 1.524 . S
C1533 C1534 1.415 . S
C1534 H1510 0.950 . S
C1534 C1529 1.363 . S
C1534 C1533 1.415 . S
C1535 H1511 0.951 . S
C1535 C1536 1.366 . S
C1535 C1537 1.388 . S
C1536 C1535 1.366 . S
C1536 C1540 1.385 . S
C1537 H1512 0.951 . S
C1537 C1535 1.388 . S
C1537 C1538 1.366 . S
C1538 C1537 1.366 . S
C1538 C1539 1.414 . S
C1538 C1541 1.499 . S
C1539 H1513 0.950 . S
C1539 C1538 1.414 . S
C1539 C1540 1.374 . S
C1540 H1514 0.950 . S
C1540 C1536 1.385 . S
C1540 C1539 1.374 . S
C1541 C1538 1.499 . S
C1541 C1542 1.373 . S
C1541 C1543 1.389 . S
C1542 H1515 0.950 . S
C1542 C1528 1.377 . S
C1542 C1541 1.373 . S
C1543 C1527 1.377 . S
C1543 C1541 1.389 . S
C1543 C1544 1.524 . S
C1544 C1543 1.524 . S
C1544 C1545 1.397 . S
C1544 C1549 1.363 . S
C1545 H1516 0.950 . S
C1545 C1544 1.397 . S
C1545 C1546 1.334 . S
C1546 H1517 0.950 . S
C1546 C1545 1.334 . S
C1546 C1547 1.287 . S
C1547 C1546 1.287 . S
C1547 C1548 1.524 . S
C1547 H1550 0.999 . S
C1548 H1518 0.950 . S
C1548 C1547 1.524 . S
C1548 C1549 1.415 . S
C1549 H1519 0.950 . S
C1549 C1544 1.363 . S
C1549 C1548 1.415 . S
H1550 C1547 0.999 . S
H1551 C1532 0.913 . S
H1552 C1570 0.951 . S
H1553 C1572 0.951 . S
H1554 C1574 0.950 . S
H1555 C1575 0.950 . S
H1556 C1577 0.950 . S
H1557 C1580 0.950 . S
H1558 C1581 0.950 . S
H1559 C1583 0.950 . S
H1560 C1584 0.950 . S
H1561 C1585 0.951 . S
H1562 C1587 0.951 . S
H1563 C1589 0.950 . S
H1564 C1590 0.950 . S
H1565 C1592 0.950 . S
H1566 C1595 0.950 . S
H1567 C1596 0.950 . S
H1568 C1598 0.950 . S
H1569 C1599 0.950 . S
C1570 H1552 0.951 . S
C1570 C1571 1.366 . S
C1570 C1572 1.388 . S
C1571 C1570 1.366 . S
C1571 C1575 1.385 . S
C1572 H1553 0.951 . S
C1572 C1570 1.388 . S
C1572 C1573 1.366 . S
C1573 C1572 1.366 . S
C1573 C1574 1.414 . S
C1573 C1576 1.499 . S
C1574 H1554 0.950 . S
C1574 C1573 1.414 . S
C1574 C1575 1.374 . S
C1575 H1555 0.950 . S
C1575 C1571 1.385 . S
C1575 C1574 1.374 . S
C1576 C1573 1.499 . S
C1576 C1577 1.373 . S
C1576 C1578 1.389 . S
C1577 H1556 0.950 . S
C1577 C1576 1.373 . S
C1577 C1593 1.377 . S
C1578 C1576 1.389 . S
C1578 C1579 1.524 . S
C1578 C1592 1.377 . S
C1579 C1578 1.524 . S
C1579 C1580 1.397 . S
C1579 C1584 1.363 . S
C1580 H1557 0.950 . S
C1580 C1579 1.397 . S
C1580 C1581 1.334 . S
C1581 H1558 0.950 . S
C1581 C1580 1.334 . S
C1581 C1582 1.287 . S
C1582 C1581 1.287 . S
C1582 C1583 1.524 . S
C1582 H1601 0.913 . S
C1583 H1559 0.950 . S
C1583 C1582 1.524 . S
C1583 C1584 1.415 . S
C1584 H1560 0.950 . S
C1584 C1579 1.363 . S
C1584 C1583 1.415 . S
C1585 H1561 0.951 . S
C1585 C1586 1.366 . S
C1585 C1587 1.388 . S
C1586 C1585 1.366 . S
C1586 C1590 1.385 . S
C1587 H1562 0.951 . S
C1587 C1585 1.388 . S
C1587 C1588 1.366 . S
C1588 C1587 1.366 . S
C1588 C1589 1.414 . S
C1588 C1591 1.499 . S
C1589 H1563 0.950 . S
C1589 C1588 1.414 . S
C1589 C1590 1.374 . S
C1590 H1564 0.950 . S
C1590 C1586 1.385 . S
C1590 C1589 1.374 . S
C1591 C1588 1.499 . S
C1591 C1592 1.373 . S
C1591 C1593 1.389 . S
C1592 H1565 0.950 . S
C1592 C1578 1.377 . S
C1592 C1591 1.373 . S
C1593 C1577 1.377 . S
C1593 C1591 1.389 . S
C1593 C1594 1.524 . S
C1594 C1593 1.524 . S
C1594 C1595 1.397 . S
C1594 C1599 1.363 . S
C1595 H1566 0.950 . S
C1595 C1594 1.397 . S
C1595 C1596 1.334 . S
C1596 H1567 0.950 . S
C1596 C1595 1.334 . S
C1596 C1597 1.287 . S
C1597 C1596 1.287 . S
C1597 C1598 1.524 . S
C1597 H1600 0.999 . S
C1598 H1568 0.950 . S
C1598 C1597 1.524 . S
C1598 C1599 1.415 . S
C1599 H1569 0.950 . S
C1599 C1594 1.363 . S
C1599 C1598 1.415 . S
H1600 C1597 0.999 . S
H1601 C1582 0.913 . S
H1602 C1620 0.951 . S
H1603 C1622 0.951 . S
H1604 C1624 0.950 . S
H1605 C1625 0.950 . S
H1606 C1627 0.950 . S
H1607 C1630 0.950 . S
H1608 C1631 0.950 . S
H1609 C1633 0.950 . S
H1610 C1634 0.950 . S
H1611 C1635 0.951 . S
H1612 C1637 0.951 . S
H1613 C1639 0.950 . S
H1614 C1640 0.950 . S
H1615 C1642 0.950 . S
H1616 C1645 0.950 . S
H1617 C1646 0.950 . S
H1618 C1648 0.950 . S
H1619 C1649 0.950 . S
C1620 H1602 0.951 . S
C1620 C1621 1.366 . S
C1620 C1622 1.388 . S
C1621 C1620 1.366 . S
C1621 C1625 1.385 . S
C1622 H1603 0.951 . S
C1622 C1620 1.388 . S
C1622 C1623 1.366 . S
C1623 C1622 1.366 . S
C1623 C1624 1.414 . S
C1623 C1626 1.499 . S
C1624 H1604 0.950 . S
C1624 C1623 1.414 . S
C1624 C1625 1.374 . S
C1625 H1605 0.950 . S
C1625 C1621 1.385 . S
C1625 C1624 1.374 . S
C1626 C1623 1.499 . S
C1626 C1627 1.373 . S
C1626 C1628 1.389 . S
C1627 H1606 0.950 . S
C1627 C1626 1.373 . S
C1627 C1643 1.377 1_455 S
C1628 C1626 1.389 . S
C1628 C1629 1.524 . S
C1628 C1642 1.377 1_455 S
C1629 C1628 1.524 . S
C1629 C1630 1.397 . S
C1629 C1634 1.363 . S
C1630 H1607 0.950 . S
C1630 C1629 1.397 . S
C1630 C1631 1.334 . S
C1631 H1608 0.950 . S
C1631 C1630 1.334 . S
C1631 C1632 1.287 . S
C1632 C1631 1.287 . S
C1632 C1633 1.524 . S
C1632 H1651 0.913 . S
C1633 H1609 0.950 . S
C1633 C1632 1.524 . S
C1633 C1634 1.415 . S
C1634 H1610 0.950 . S
C1634 C1629 1.363 . S
C1634 C1633 1.415 . S
C1635 H1611 0.951 . S
C1635 C1636 1.366 . S
C1635 C1637 1.388 . S
C1636 C1635 1.366 . S
C1636 C1640 1.385 . S
C1637 H1612 0.951 . S
C1637 C1635 1.388 . S
C1637 C1638 1.366 . S
C1638 C1637 1.366 . S
C1638 C1639 1.414 . S
C1638 C1641 1.499 . S
C1639 H1613 0.950 . S
C1639 C1638 1.414 . S
C1639 C1640 1.374 . S
C1640 H1614 0.950 . S
C1640 C1636 1.385 . S
C1640 C1639 1.374 . S
C1641 C1638 1.499 . S
C1641 C1642 1.373 . S
C1641 C1643 1.389 . S
C1642 H1615 0.950 . S
C1642 C1628 1.377 1_655 S
C1642 C1641 1.373 . S
C1643 C1627 1.377 1_655 S
C1643 C1641 1.389 . S
C1643 C1644 1.524 . S
C1644 C1643 1.524 . S
C1644 C1645 1.397 . S
C1644 C1649 1.363 . S
C1645 H1616 0.950 . S
C1645 C1644 1.397 . S
C1645 C1646 1.334 . S
C1646 H1617 0.950 . S
C1646 C1645 1.334 . S
C1646 C1647 1.287 . S
C1647 C1646 1.287 . S
C1647 C1648 1.524 . S
C1647 H1650 0.999 . S
C1648 H1618 0.950 . S
C1648 C1647 1.524 . S
C1648 C1649 1.415 . S
C1649 H1619 0.950 . S
C1649 C1644 1.363 . S
C1649 C1648 1.415 . S
H1650 C1647 0.999 . S
H1651 C1632 0.913 . S
H1652 C1670 0.951 . S
H1653 C1672 0.951 . S
H1654 C1674 0.950 . S
H1655 C1675 0.950 . S
H1656 C1677 0.950 . S
H1657 C1680 0.950 . S
H1658 C1681 0.950 . S
H1659 C1683 0.950 . S
H1660 C1684 0.950 . S
H1661 C1685 0.951 . S
H1662 C1687 0.951 . S
H1663 C1689 0.950 . S
H1664 C1690 0.950 . S
H1665 C1692 0.950 . S
H1666 C1695 0.950 . S
H1667 C1696 0.950 . S
H1668 C1698 0.950 . S
H1669 C1699 0.950 . S
C1670 H1652 0.951 . S
C1670 C1671 1.366 . S
C1670 C1672 1.388 . S
C1671 C1670 1.366 . S
C1671 C1675 1.385 . S
C1672 H1653 0.951 . S
C1672 C1670 1.388 . S
C1672 C1673 1.366 . S
C1673 C1672 1.366 . S
C1673 C1674 1.414 . S
C1673 C1676 1.499 . S
C1674 H1654 0.950 . S
C1674 C1673 1.414 . S
C1674 C1675 1.374 . S
C1675 H1655 0.950 . S
C1675 C1671 1.385 . S
C1675 C1674 1.374 . S
C1676 C1673 1.499 . S
C1676 C1677 1.373 . S
C1676 C1678 1.389 . S
C1677 H1656 0.950 . S
C1677 C1676 1.373 . S
C1677 C1693 1.377 . S
C1678 C1676 1.389 . S
C1678 C1679 1.524 . S
C1678 C1692 1.377 . S
C1679 C1678 1.524 . S
C1679 C1680 1.397 . S
C1679 C1684 1.363 . S
C1680 H1657 0.950 . S
C1680 C1679 1.397 . S
C1680 C1681 1.334 . S
C1681 H1658 0.950 . S
C1681 C1680 1.334 . S
C1681 C1682 1.287 . S
C1682 C1681 1.287 . S
C1682 C1683 1.524 . S
C1682 H1701 0.913 . S
C1683 H1659 0.950 . S
C1683 C1682 1.524 . S
C1683 C1684 1.415 . S
C1684 H1660 0.950 . S
C1684 C1679 1.363 . S
C1684 C1683 1.415 . S
C1685 H1661 0.951 . S
C1685 C1686 1.366 . S
C1685 C1687 1.388 . S
C1686 C1685 1.366 . S
C1686 C1690 1.385 . S
C1687 H1662 0.951 . S
C1687 C1685 1.388 . S
C1687 C1688 1.366 . S
C1688 C1687 1.366 . S
C1688 C1689 1.414 . S
C1688 C1691 1.499 . S
C1689 H1663 0.950 . S
C1689 C1688 1.414 . S
C1689 C1690 1.374 . S
C1690 H1664 0.950 . S
C1690 C1686 1.385 . S
C1690 C1689 1.374 . S
C1691 C1688 1.499 . S
C1691 C1692 1.373 . S
C1691 C1693 1.389 . S
C1692 H1665 0.950 . S
C1692 C1678 1.377 . S
C1692 C1691 1.373 . S
C1693 C1677 1.377 . S
C1693 C1691 1.389 . S
C1693 C1694 1.524 . S
C1694 C1693 1.524 . S
C1694 C1695 1.397 . S
C1694 C1699 1.363 . S
C1695 H1666 0.950 . S
C1695 C1694 1.397 . S
C1695 C1696 1.334 . S
C1696 H1667 0.950 . S
C1696 C1695 1.334 . S
C1696 C1697 1.287 . S
C1697 C1696 1.287 . S
C1697 C1698 1.524 . S
C1697 H1700 0.999 . S
C1698 H1668 0.950 . S
C1698 C1697 1.524 . S
C1698 C1699 1.415 . S
C1699 H1669 0.950 . S
C1699 C1694 1.363 . S
C1699 C1698 1.415 . S
H1700 C1697 0.999 . S
H1701 C1682 0.913 . S
H1702 C1720 0.951 . S
H1703 C1722 0.951 . S
H1704 C1724 0.950 . S
H1705 C1725 0.950 . S
H1706 C1727 0.950 . S
H1707 C1730 0.950 . S
H1708 C1731 0.950 . S
H1709 C1733 0.950 . S
H1710 C1734 0.950 . S
H1711 C1735 0.951 . S
H1712 C1737 0.951 . S
H1713 C1739 0.950 . S
H1714 C1740 0.950 . S
H1715 C1742 0.950 . S
H1716 C1745 0.950 . S
H1717 C1746 0.950 . S
H1718 C1748 0.950 . S
H1719 C1749 0.950 . S
C1720 H1702 0.951 . S
C1720 C1721 1.366 . S
C1720 C1722 1.388 . S
C1721 C1720 1.366 . S
C1721 C1725 1.385 . S
C1722 H1703 0.951 . S
C1722 C1720 1.388 . S
C1722 C1723 1.366 . S
C1723 C1722 1.366 . S
C1723 C1724 1.414 . S
C1723 C1726 1.499 . S
C1724 H1704 0.950 . S
C1724 C1723 1.414 . S
C1724 C1725 1.374 . S
C1725 H1705 0.950 . S
C1725 C1721 1.385 . S
C1725 C1724 1.374 . S
C1726 C1723 1.499 . S
C1726 C1727 1.373 . S
C1726 C1728 1.389 . S
C1727 H1706 0.950 . S
C1727 C1726 1.373 . S
C1727 C1743 1.377 1_655 S
C1728 C1726 1.389 . S
C1728 C1729 1.524 . S
C1728 C1742 1.377 1_655 S
C1729 C1728 1.524 . S
C1729 C1730 1.397 . S
C1729 C1734 1.363 . S
C1730 H1707 0.950 . S
C1730 C1729 1.397 . S
C1730 C1731 1.334 . S
C1731 H1708 0.950 . S
C1731 C1730 1.334 . S
C1731 C1732 1.287 . S
C1732 C1731 1.287 . S
C1732 C1733 1.524 . S
C1732 H1751 0.913 . S
C1733 H1709 0.950 . S
C1733 C1732 1.524 . S
C1733 C1734 1.415 . S
C1734 H1710 0.950 . S
C1734 C1729 1.363 . S
C1734 C1733 1.415 . S
C1735 H1711 0.951 . S
C1735 C1736 1.366 . S
C1735 C1737 1.388 . S
C1736 C1735 1.366 . S
C1736 C1740 1.385 . S
C1737 H1712 0.951 . S
C1737 C1735 1.388 . S
C1737 C1738 1.366 . S
C1738 C1737 1.366 . S
C1738 C1739 1.414 . S
C1738 C1741 1.499 . S
C1739 H1713 0.950 . S
C1739 C1738 1.414 . S
C1739 C1740 1.374 . S
C1740 H1714 0.950 . S
C1740 C1736 1.385 . S
C1740 C1739 1.374 . S
C1741 C1738 1.499 . S
C1741 C1742 1.373 . S
C1741 C1743 1.389 . S
C1742 H1715 0.950 . S
C1742 C1728 1.377 1_455 S
C1742 C1741 1.373 . S
C1743 C1727 1.377 1_455 S
C1743 C1741 1.389 . S
C1743 C1744 1.524 . S
C1744 C1743 1.524 . S
C1744 C1745 1.397 . S
C1744 C1749 1.363 . S
C1745 H1716 0.950 . S
C1745 C1744 1.397 . S
C1745 C1746 1.334 . S
C1746 H1717 0.950 . S
C1746 C1745 1.334 . S
C1746 C1747 1.287 . S
C1747 C1746 1.287 . S
C1747 C1748 1.524 . S
C1747 H1750 0.999 . S
C1748 H1718 0.950 . S
C1748 C1747 1.524 . S
C1748 C1749 1.415 . S
C1749 H1719 0.950 . S
C1749 C1744 1.363 . S
C1749 C1748 1.415 . S
H1750 C1747 0.999 . S
H1751 C1732 0.913 . S
H1752 C1770 0.951 . S
H1753 C1772 0.951 . S
H1754 C1774 0.950 . S
H1755 C1775 0.950 . S
H1756 C1777 0.950 . S
H1757 C1780 0.950 . S
H1758 C1781 0.950 . S
H1759 C1783 0.950 . S
H1760 C1784 0.950 . S
H1761 C1785 0.951 . S
H1762 C1787 0.951 . S
H1763 C1789 0.950 . S
H1764 C1790 0.950 . S
H1765 C1792 0.950 . S
H1766 C1795 0.950 . S
H1767 C1796 0.950 . S
H1768 C1798 0.950 . S
H1769 C1799 0.950 . S
C1770 H1752 0.951 . S
C1770 C1771 1.366 . S
C1770 C1772 1.388 . S
C1771 C1770 1.366 . S
C1771 C1775 1.385 . S
C1772 H1753 0.951 . S
C1772 C1770 1.388 . S
C1772 C1773 1.366 . S
C1773 C1772 1.366 . S
C1773 C1774 1.414 . S
C1773 C1776 1.499 . S
C1774 H1754 0.950 . S
C1774 C1773 1.414 . S
C1774 C1775 1.374 . S
C1775 H1755 0.950 . S
C1775 C1771 1.385 . S
C1775 C1774 1.374 . S
C1776 C1773 1.499 . S
C1776 C1777 1.373 . S
C1776 C1778 1.389 . S
C1777 H1756 0.950 . S
C1777 C1776 1.373 . S
C1777 C1793 1.377 1_655 S
C1778 C1776 1.389 . S
C1778 C1779 1.524 . S
C1778 C1792 1.377 1_655 S
C1779 C1778 1.524 . S
C1779 C1780 1.397 . S
C1779 C1784 1.363 . S
C1780 H1757 0.950 . S
C1780 C1779 1.397 . S
C1780 C1781 1.334 . S
C1781 H1758 0.950 . S
C1781 C1780 1.334 . S
C1781 C1782 1.287 . S
C1782 C1781 1.287 . S
C1782 C1783 1.524 . S
C1782 H1801 0.913 . S
C1783 H1759 0.950 . S
C1783 C1782 1.524 . S
C1783 C1784 1.415 . S
C1784 H1760 0.950 . S
C1784 C1779 1.363 . S
C1784 C1783 1.415 . S
C1785 H1761 0.951 . S
C1785 C1786 1.366 . S
C1785 C1787 1.388 . S
C1786 C1785 1.366 . S
C1786 C1790 1.385 . S
C1787 H1762 0.951 . S
C1787 C1785 1.388 . S
C1787 C1788 1.366 . S
C1788 C1787 1.366 . S
C1788 C1789 1.414 . S
C1788 C1791 1.499 . S
C1789 H1763 0.950 . S
C1789 C1788 1.414 . S
C1789 C1790 1.374 . S
C1790 H1764 0.950 . S
C1790 C1786 1.385 . S
C1790 C1789 1.374 . S
C1791 C1788 1.499 . S
C1791 C1792 1.373 . S
C1791 C1793 1.389 . S
C1792 H1765 0.950 . S
C1792 C1778 1.377 1_455 S
C1792 C1791 1.373 . S
C1793 C1777 1.377 1_455 S
C1793 C1791 1.389 . S
C1793 C1794 1.524 . S
C1794 C1793 1.524 . S
C1794 C1795 1.397 . S
C1794 C1799 1.363 . S
C1795 H1766 0.950 . S
C1795 C1794 1.397 . S
C1795 C1796 1.334 . S
C1796 H1767 0.950 . S
C1796 C1795 1.334 . S
C1796 C1797 1.287 . S
C1797 C1796 1.287 . S
C1797 C1798 1.524 . S
C1797 H1800 0.999 . S
C1798 H1768 0.950 . S
C1798 C1797 1.524 . S
C1798 C1799 1.415 . S
C1799 H1769 0.950 . S
C1799 C1794 1.363 . S
C1799 C1798 1.415 . S
H1800 C1797 0.999 . S
H1801 C1782 0.913 . S
H1802 C1820 0.951 . S
H1803 C1822 0.951 . S
H1804 C1824 0.950 . S
H1805 C1825 0.950 . S
H1806 C1827 0.950 . S
H1807 C1830 0.950 . S
H1808 C1831 0.950 . S
H1809 C1833 0.950 . S
H1810 C1834 0.950 . S
H1811 C1835 0.951 . S
H1812 C1837 0.951 . S
H1813 C1839 0.950 . S
H1814 C1840 0.950 . S
H1815 C1842 0.950 . S
H1816 C1845 0.950 . S
H1817 C1846 0.950 . S
H1818 C1848 0.950 . S
H1819 C1849 0.950 . S
C1820 H1802 0.951 . S
C1820 C1821 1.366 . S
C1820 C1822 1.388 . S
C1821 C1820 1.366 . S
C1821 C1825 1.385 . S
C1822 H1803 0.951 . S
C1822 C1820 1.388 . S
C1822 C1823 1.366 . S
C1823 C1822 1.366 . S
C1823 C1824 1.414 . S
C1823 C1826 1.499 . S
C1824 H1804 0.950 . S
C1824 C1823 1.414 . S
C1824 C1825 1.374 . S
C1825 H1805 0.950 . S
C1825 C1821 1.385 . S
C1825 C1824 1.374 . S
C1826 C1823 1.499 . S
C1826 C1827 1.373 . S
C1826 C1828 1.389 . S
C1827 H1806 0.950 . S
C1827 C1826 1.373 . S
C1827 C1843 1.377 . S
C1828 C1826 1.389 . S
C1828 C1829 1.524 . S
C1828 C1842 1.377 . S
C1829 C1828 1.524 . S
C1829 C1830 1.397 . S
C1829 C1834 1.363 . S
C1830 H1807 0.950 . S
C1830 C1829 1.397 . S
C1830 C1831 1.334 . S
C1831 H1808 0.950 . S
C1831 C1830 1.334 . S
C1831 C1832 1.287 . S
C1832 C1831 1.287 . S
C1832 C1833 1.524 . S
C1832 H1851 0.913 . S
C1833 H1809 0.950 . S
C1833 C1832 1.524 . S
C1833 C1834 1.415 . S
C1834 H1810 0.950 . S
C1834 C1829 1.363 . S
C1834 C1833 1.415 . S
C1835 H1811 0.951 . S
C1835 C1836 1.366 . S
C1835 C1837 1.388 . S
C1836 C1835 1.366 . S
C1836 C1840 1.385 . S
C1837 H1812 0.951 . S
C1837 C1835 1.388 . S
C1837 C1838 1.366 . S
C1838 C1837 1.366 . S
C1838 C1839 1.414 . S
C1838 C1841 1.499 . S
C1839 H1813 0.950 . S
C1839 C1838 1.414 . S
C1839 C1840 1.374 . S
C1840 H1814 0.950 . S
C1840 C1836 1.385 . S
C1840 C1839 1.374 . S
C1841 C1838 1.499 . S
C1841 C1842 1.373 . S
C1841 C1843 1.389 . S
C1842 H1815 0.950 . S
C1842 C1828 1.377 . S
C1842 C1841 1.373 . S
C1843 C1827 1.377 . S
C1843 C1841 1.389 . S
C1843 C1844 1.524 . S
C1844 C1843 1.524 . S
C1844 C1845 1.397 . S
C1844 C1849 1.363 . S
C1845 H1816 0.950 . S
C1845 C1844 1.397 . S
C1845 C1846 1.334 . S
C1846 H1817 0.950 . S
C1846 C1845 1.334 . S
C1846 C1847 1.287 . S
C1847 C1846 1.287 . S
C1847 C1848 1.524 . S
C1847 H1850 0.999 . S
C1848 H1818 0.950 . S
C1848 C1847 1.524 . S
C1848 C1849 1.415 . S
C1849 H1819 0.950 . S
C1849 C1844 1.363 . S
C1849 C1848 1.415 . S
H1850 C1847 0.999 . S
H1851 C1832 0.913 . S
H1852 C1870 0.951 . S
H1853 C1872 0.951 . S
H1854 C1874 0.950 . S
H1855 C1875 0.950 . S
H1856 C1877 0.950 . S
H1857 C1880 0.950 . S
H1858 C1881 0.950 . S
H1859 C1883 0.950 . S
H1860 C1884 0.950 . S
H1861 C1885 0.951 . S
H1862 C1887 0.951 . S
H1863 C1889 0.950 . S
H1864 C1890 0.950 . S
H1865 C1892 0.950 . S
H1866 C1895 0.950 . S
H1867 C1896 0.950 . S
H1868 C1898 0.950 . S
H1869 C1899 0.950 . S
C1870 H1852 0.951 . S
C1870 C1871 1.366 . S
C1870 C1872 1.388 . S
C1871 C1870 1.366 . S
C1871 C1875 1.385 . S
C1872 H1853 0.951 . S
C1872 C1870 1.388 . S
C1872 C1873 1.366 . S
C1873 C1872 1.366 . S
C1873 C1874 1.414 . S
C1873 C1876 1.499 . S
C1874 H1854 0.950 . S
C1874 C1873 1.414 . S
C1874 C1875 1.374 . S
C1875 H1855 0.950 . S
C1875 C1871 1.385 . S
C1875 C1874 1.374 . S
C1876 C1873 1.499 . S
C1876 C1877 1.373 . S
C1876 C1878 1.389 . S
C1877 H1856 0.950 . S
C1877 C1876 1.373 . S
C1877 C1893 1.377 1_455 S
C1878 C1876 1.389 . S
C1878 C1879 1.524 . S
C1878 C1892 1.377 1_455 S
C1879 C1878 1.524 . S
C1879 C1880 1.397 . S
C1879 C1884 1.363 . S
C1880 H1857 0.950 . S
C1880 C1879 1.397 . S
C1880 C1881 1.334 . S
C1881 H1858 0.950 . S
C1881 C1880 1.334 . S
C1881 C1882 1.287 . S
C1882 C1881 1.287 . S
C1882 C1883 1.524 . S
C1882 H1901 0.913 . S
C1883 H1859 0.950 . S
C1883 C1882 1.524 . S
C1883 C1884 1.415 . S
C1884 H1860 0.950 . S
C1884 C1879 1.363 . S
C1884 C1883 1.415 . S
C1885 H1861 0.951 . S
C1885 C1886 1.366 . S
C1885 C1887 1.388 . S
C1886 C1885 1.366 . S
C1886 C1890 1.385 . S
C1887 H1862 0.951 . S
C1887 C1885 1.388 . S
C1887 C1888 1.366 . S
C1888 C1887 1.366 . S
C1888 C1889 1.414 . S
C1888 C1891 1.499 . S
C1889 H1863 0.950 . S
C1889 C1888 1.414 . S
C1889 C1890 1.374 . S
C1890 H1864 0.950 . S
C1890 C1886 1.385 . S
C1890 C1889 1.374 . S
C1891 C1888 1.499 . S
C1891 C1892 1.373 . S
C1891 C1893 1.389 . S
C1892 H1865 0.950 . S
C1892 C1878 1.377 1_655 S
C1892 C1891 1.373 . S
C1893 C1877 1.377 1_655 S
C1893 C1891 1.389 . S
C1893 C1894 1.524 . S
C1894 C1893 1.524 . S
C1894 C1895 1.397 . S
C1894 C1899 1.363 . S
C1895 H1866 0.950 . S
C1895 C1894 1.397 . S
C1895 C1896 1.334 . S
C1896 H1867 0.950 . S
C1896 C1895 1.334 . S
C1896 C1897 1.287 . S
C1897 C1896 1.287 . S
C1897 C1898 1.524 . S
C1897 H1900 0.999 . S
C1898 H1868 0.950 . S
C1898 C1897 1.524 . S
C1898 C1899 1.415 . S
C1899 H1869 0.950 . S
C1899 C1894 1.363 . S
C1899 C1898 1.415 . S
H1900 C1897 0.999 . S
H1901 C1882 0.913 . S
H1902 C1920 0.951 . S
H1903 C1922 0.951 . S
H1904 C1924 0.950 . S
H1905 C1925 0.950 . S
H1906 C1927 0.950 . S
H1907 C1930 0.950 . S
H1908 C1931 0.950 . S
H1909 C1933 0.950 . S
H1910 C1934 0.950 . S
H1911 C1935 0.951 . S
H1912 C1937 0.951 . S
H1913 C1939 0.950 . S
H1914 C1940 0.950 . S
H1915 C1942 0.950 . S
H1916 C1945 0.950 . S
H1917 C1946 0.950 . S
H1918 C1948 0.950 . S
H1919 C1949 0.950 . S
C1920 H1902 0.951 . S
C1920 C1921 1.366 . S
C1920 C1922 1.388 . S
C1921 C1920 1.366 . S
C1921 C1925 1.385 . S
C1922 H1903 0.951 . S
C1922 C1920 1.388 . S
C1922 C1923 1.366 . S
C1923 C1922 1.366 . S
C1923 C1924 1.414 . S
C1923 C1926 1.499 . S
C1924 H1904 0.950 . S
C1924 C1923 1.414 . S
C1924 C1925 1.374 . S
C1925 H1905 0.950 . S
C1925 C1921 1.385 . S
C1925 C1924 1.374 . S
C1926 C1923 1.499 . S
C1926 C1927 1.373 . S
C1926 C1928 1.389 . S
C1927 H1906 0.950 . S
C1927 C1926 1.373 . S
C1927 C1943 1.377 . S
C1928 C1926 1.389 . S
C1928 C1929 1.524 . S
C1928 C1942 1.377 . S
C1929 C1928 1.524 . S
C1929 C1930 1.397 . S
C1929 C1934 1.363 . S
C1930 H1907 0.950 . S
C1930 C1929 1.397 . S
C1930 C1931 1.334 . S
C1931 H1908 0.950 . S
C1931 C1930 1.334 . S
C1931 C1932 1.287 . S
C1932 C1931 1.287 . S
C1932 C1933 1.524 . S
C1932 H1951 0.913 . S
C1933 H1909 0.950 . S
C1933 C1932 1.524 . S
C1933 C1934 1.415 . S
C1934 H1910 0.950 . S
C1934 C1929 1.363 . S
C1934 C1933 1.415 . S
C1935 H1911 0.951 . S
C1935 C1936 1.366 . S
C1935 C1937 1.388 . S
C1936 C1935 1.366 . S
C1936 C1940 1.385 . S
C1937 H1912 0.951 . S
C1937 C1935 1.388 . S
C1937 C1938 1.366 . S
C1938 C1937 1.366 . S
C1938 C1939 1.414 . S
C1938 C1941 1.499 . S
C1939 H1913 0.950 . S
C1939 C1938 1.414 . S
C1939 C1940 1.374 . S
C1940 H1914 0.950 . S
C1940 C1936 1.385 . S
C1940 C1939 1.374 . S
C1941 C1938 1.499 . S
C1941 C1942 1.373 . S
C1941 C1943 1.389 . S
C1942 H1915 0.950 . S
C1942 C1928 1.377 . S
C1942 C1941 1.373 . S
C1943 C1927 1.377 . S
C1943 C1941 1.389 . S
C1943 C1944 1.524 . S
C1944 C1943 1.524 . S
C1944 C1945 1.397 . S
C1944 C1949 1.363 . S
C1945 H1916 0.950 . S
C1945 C1944 1.397 . S
C1945 C1946 1.334 . S
C1946 H1917 0.950 . S
C1946 C1945 1.334 . S
C1946 C1947 1.287 . S
C1947 C1946 1.287 . S
C1947 C1948 1.524 . S
C1947 H1950 0.999 . S
C1948 H1918 0.950 . S
C1948 C1947 1.524 . S
C1948 C1949 1.415 . S
C1949 H1919 0.950 . S
C1949 C1944 1.363 . S
C1949 C1948 1.415 . S
H1950 C1947 0.999 . S
H1951 C1932 0.913 . S
H1952 C1970 0.951 . S
H1953 C1972 0.962 . S
H1954 C1974 0.950 . S
H1955 C1975 0.950 . S
H1956 C1977 0.950 . S
H1957 C1980 0.950 1_545 S
H1958 C1981 0.950 . S
H1959 C1983 0.950 . S
H1960 C1984 0.950 . S
H1961 C1985 0.951 . S
H1962 C1987 0.951 . S
H1963 C1989 0.950 . S
H1964 C1990 0.950 . S
H1965 C1992 0.950 . S
H1966 C1995 0.950 . S
H1967 C1996 0.950 . S
H1968 C1998 0.950 . S
H1969 C1999 0.950 . S
C1970 H1952 0.951 . S
C1970 C1971 1.366 . S
C1970 C1972 1.388 . S
C1971 C1970 1.366 . S
C1971 C1975 1.385 . S
C1972 H1953 0.962 . S
C1972 C1970 1.388 . S
C1972 C1973 1.366 . S
C1973 C1972 1.366 . S
C1973 C1974 1.414 . S
C1973 C1976 1.499 1_545 S
C1974 H1954 0.950 . S
C1974 C1973 1.414 . S
C1974 C1975 1.374 . S
C1975 H1955 0.950 . S
C1975 C1971 1.385 . S
C1975 C1974 1.374 . S
C1976 C1973 1.499 1_565 S
C1976 C1977 1.373 . S
C1976 C1978 1.389 . S
C1977 H1956 0.950 . S
C1977 C1976 1.373 . S
C1977 C1993 1.377 . S
C1978 C1976 1.389 . S
C1978 C1979 1.524 . S
C1978 C1992 1.377 . S
C1979 C1978 1.524 . S
C1979 C1980 1.397 . S
C1979 C1984 1.363 . S
C1980 H1957 0.950 1_565 S
C1980 C1979 1.397 . S
C1980 C1981 1.334 1_565 S
C1981 H1958 0.950 . S
C1981 C1980 1.334 1_545 S
C1981 C1982 1.287 1_545 S
C1982 C1981 1.287 1_565 S
C1982 C1983 1.524 . S
C1982 H2001 0.913 1_565 S
C1983 H1959 0.950 . S
C1983 C1982 1.524 . S
C1983 C1984 1.415 . S
C1984 H1960 0.950 . S
C1984 C1979 1.363 . S
C1984 C1983 1.415 . S
C1985 H1961 0.951 . S
C1985 C1986 1.366 . S
C1985 C1987 1.388 . S
C1986 C1985 1.366 . S
C1986 C1990 1.385 . S
C1987 H1962 0.951 . S
C1987 C1985 1.388 . S
C1987 C1988 1.366 . S
C1988 C1987 1.366 . S
C1988 C1989 1.414 . S
C1988 C1991 1.499 . S
C1989 H1963 0.950 . S
C1989 C1988 1.414 . S
C1989 C1990 1.374 . S
C1990 H1964 0.950 . S
C1990 C1986 1.385 . S
C1990 C1989 1.374 . S
C1991 C1988 1.499 . S
C1991 C1992 1.373 . S
C1991 C1993 1.389 . S
C1992 H1965 0.950 . S
C1992 C1978 1.377 . S
C1992 C1991 1.373 . S
C1993 C1977 1.377 . S
C1993 C1991 1.389 . S
C1993 C1994 1.524 . S
C1994 C1993 1.524 . S
C1994 C1995 1.397 . S
C1994 C1999 1.363 . S
C1995 H1966 0.950 . S
C1995 C1994 1.397 . S
C1995 C1996 1.334 . S
C1996 H1967 0.950 . S
C1996 C1995 1.334 . S
C1996 C1997 1.287 . S
C1997 C1996 1.287 . S
C1997 C1998 1.524 . S
C1997 H2000 0.999 . S
C1998 H1968 0.950 . S
C1998 C1997 1.524 . S
C1998 C1999 1.415 . S
C1999 H1969 0.950 . S
C1999 C1994 1.363 . S
C1999 C1998 1.415 . S
H2000 C1997 0.999 . S
H2001 C1982 0.913 1_545 S
H2002 C2020 0.951 . S
H2003 C2022 0.951 . S
H2004 C2024 0.950 . S
H2005 C2025 0.950 . S
H2006 C2027 0.950 . S
H2007 C2030 0.950 . S
H2008 C2031 0.951 . S
H2009 C2033 0.950 . S
H2010 C2034 0.950 . S
H2011 C2035 0.951 . S
H2012 C2037 0.951 . S
H2013 C2039 0.950 . S
H2014 C2040 0.950 . S
H2015 C2042 0.950 . S
H2016 C2045 0.950 . S
H2017 C2046 0.950 . S
H2018 C2048 0.950 . S
H2019 C2049 0.950 . S
C2020 H2002 0.951 . S
C2020 C2021 1.366 . S
C2020 C2022 1.388 . S
C2021 C2020 1.366 . S
C2021 C2025 1.385 . S
C2022 H2003 0.951 . S
C2022 C2020 1.388 . S
C2022 C2023 1.366 . S
C2023 C2022 1.366 . S
C2023 C2024 1.414 . S
C2023 C2026 1.499 1_565 S
C2024 H2004 0.950 . S
C2024 C2023 1.414 . S
C2024 C2025 1.374 . S
C2025 H2005 0.950 . S
C2025 C2021 1.385 . S
C2025 C2024 1.374 . S
C2026 C2023 1.499 1_545 S
C2026 C2027 1.373 . S
C2026 C2028 1.389 . S
C2027 H2006 0.950 . S
C2027 C2026 1.373 . S
C2027 C2043 1.377 . S
C2028 C2026 1.389 . S
C2028 C2029 1.524 . S
C2028 C2042 1.377 . S
C2029 C2028 1.524 . S
C2029 C2030 1.397 . S
C2029 C2034 1.363 . S
C2030 H2007 0.950 . S
C2030 C2029 1.397 . S
C2030 C2031 1.334 . S
C2031 H2008 0.951 . S
C2031 C2030 1.334 . S
C2031 C2032 1.287 . S
C2032 C2031 1.287 . S
C2032 C2033 1.524 . S
C2032 H2051 0.913 1_545 S
C2033 H2009 0.950 . S
C2033 C2032 1.524 . S
C2033 C2034 1.415 . S
C2034 H2010 0.950 . S
C2034 C2029 1.363 . S
C2034 C2033 1.415 . S
C2035 H2011 0.951 . S
C2035 C2036 1.366 . S
C2035 C2037 1.388 . S
C2036 C2035 1.366 . S
C2036 C2040 1.385 . S
C2037 H2012 0.951 . S
C2037 C2035 1.388 . S
C2037 C2038 1.366 . S
C2038 C2037 1.366 . S
C2038 C2039 1.414 . S
C2038 C2041 1.499 . S
C2039 H2013 0.950 . S
C2039 C2038 1.414 . S
C2039 C2040 1.374 . S
C2040 H2014 0.950 . S
C2040 C2036 1.385 . S
C2040 C2039 1.374 . S
C2041 C2038 1.499 . S
C2041 C2042 1.373 . S
C2041 C2043 1.389 . S
C2042 H2015 0.950 . S
C2042 C2028 1.377 . S
C2042 C2041 1.373 . S
C2043 C2027 1.377 . S
C2043 C2041 1.389 . S
C2043 C2044 1.524 . S
C2044 C2043 1.524 . S
C2044 C2045 1.397 . S
C2044 C2049 1.363 . S
C2045 H2016 0.950 . S
C2045 C2044 1.397 . S
C2045 C2046 1.334 . S
C2046 H2017 0.950 . S
C2046 C2045 1.334 . S
C2046 C2047 1.287 . S
C2047 C2046 1.287 . S
C2047 C2048 1.524 . S
C2047 H2050 0.999 . S
C2048 H2018 0.950 . S
C2048 C2047 1.524 . S
C2048 C2049 1.415 . S
C2049 H2019 0.950 . S
C2049 C2044 1.363 . S
C2049 C2048 1.415 . S
H2050 C2047 0.999 . S
H2051 C2032 0.913 1_565 S
H2052 C2070 0.951 . S
H2053 C2072 0.951 . S
H2054 C2074 0.950 . S
H2055 C2075 0.950 . S
H2056 C2077 0.950 . S
H2057 C2080 0.950 . S
H2058 C2081 0.950 . S
H2059 C2083 0.950 . S
H2060 C2084 0.950 . S
H2061 C2085 0.951 . S
H2062 C2087 0.951 . S
H2063 C2089 0.950 . S
H2064 C2090 0.950 . S
H2065 C2092 0.950 . S
H2066 C2095 0.950 . S
H2067 C2096 0.950 . S
H2068 C2098 0.950 . S
H2069 C2099 0.950 . S
C2070 H2052 0.951 . S
C2070 C2071 1.366 . S
C2070 C2072 1.388 . S
C2071 C2070 1.366 . S
C2071 C2075 1.385 . S
C2072 H2053 0.951 . S
C2072 C2070 1.388 . S
C2072 C2073 1.366 . S
C2073 C2072 1.366 . S
C2073 C2074 1.414 . S
C2073 C2076 1.499 . S
C2074 H2054 0.950 . S
C2074 C2073 1.414 . S
C2074 C2075 1.374 . S
C2075 H2055 0.950 . S
C2075 C2071 1.385 . S
C2075 C2074 1.374 . S
C2076 C2073 1.499 . S
C2076 C2077 1.373 . S
C2076 C2078 1.389 . S
C2077 H2056 0.950 . S
C2077 C2076 1.373 . S
C2077 C2093 1.377 . S
C2078 C2076 1.389 . S
C2078 C2079 1.524 . S
C2078 C2092 1.377 . S
C2079 C2078 1.524 . S
C2079 C2080 1.397 . S
C2079 C2084 1.363 . S
C2080 H2057 0.950 . S
C2080 C2079 1.397 . S
C2080 C2081 1.334 . S
C2081 H2058 0.950 . S
C2081 C2080 1.334 . S
C2081 C2082 1.287 . S
C2082 C2081 1.287 . S
C2082 C2083 1.524 . S
C2082 H2101 0.913 . S
C2083 H2059 0.950 . S
C2083 C2082 1.524 . S
C2083 C2084 1.415 . S
C2084 H2060 0.950 . S
C2084 C2079 1.363 . S
C2084 C2083 1.415 . S
C2085 H2061 0.951 . S
C2085 C2086 1.366 . S
C2085 C2087 1.388 . S
C2086 C2085 1.366 . S
C2086 C2090 1.385 . S
C2087 H2062 0.951 . S
C2087 C2085 1.388 . S
C2087 C2088 1.366 . S
C2088 C2087 1.366 . S
C2088 C2089 1.414 . S
C2088 C2091 1.499 1_565 S
C2089 H2063 0.950 . S
C2089 C2088 1.414 . S
C2089 C2090 1.374 . S
C2090 H2064 0.950 . S
C2090 C2086 1.385 . S
C2090 C2089 1.374 . S
C2091 C2088 1.499 1_545 S
C2091 C2092 1.373 . S
C2091 C2093 1.389 . S
C2092 H2065 0.950 . S
C2092 C2078 1.377 . S
C2092 C2091 1.373 . S
C2093 C2077 1.377 . S
C2093 C2091 1.389 . S
C2093 C2094 1.524 . S
C2094 C2093 1.524 . S
C2094 C2095 1.397 1_545 S
C2094 C2099 1.363 . S
C2095 H2066 0.950 . S
C2095 C2094 1.397 1_565 S
C2095 C2096 1.334 . S
C2096 H2067 0.950 . S
C2096 C2095 1.334 . S
C2096 C2097 1.287 . S
C2097 C2096 1.287 . S
C2097 C2098 1.524 . S
C2097 H2100 0.999 . S
C2098 H2068 0.950 . S
C2098 C2097 1.524 . S
C2098 C2099 1.415 1_565 S
C2099 H2069 0.950 . S
C2099 C2094 1.363 . S
C2099 C2098 1.415 1_545 S
H2100 C2097 0.999 . S
H2101 C2082 0.913 . S
H2102 C2120 0.951 . S
H2103 C2122 0.951 . S
H2104 C2124 0.950 . S
H2105 C2125 0.950 . S
H2106 C2127 0.950 . S
H2107 C2130 0.950 . S
H2108 C2131 0.950 . S
H2109 C2133 0.950 . S
H2110 C2134 0.950 . S
H2111 C2135 0.951 . S
H2112 C2137 0.951 . S
H2113 C2139 0.950 . S
H2114 C2140 0.950 . S
H2115 C2142 0.950 . S
H2116 C2145 0.950 . S
H2117 C2146 0.950 . S
H2118 C2148 0.950 . S
H2119 C2149 0.950 . S
C2120 H2102 0.951 . S
C2120 C2121 1.366 . S
C2120 C2122 1.388 . S
C2121 C2120 1.366 . S
C2121 C2125 1.385 . S
C2122 H2103 0.951 . S
C2122 C2120 1.388 . S
C2122 C2123 1.366 . S
C2123 C2122 1.366 . S
C2123 C2124 1.414 . S
C2123 C2126 1.499 . S
C2124 H2104 0.950 . S
C2124 C2123 1.414 . S
C2124 C2125 1.374 . S
C2125 H2105 0.950 . S
C2125 C2121 1.385 . S
C2125 C2124 1.374 . S
C2126 C2123 1.499 . S
C2126 C2127 1.373 . S
C2126 C2128 1.389 . S
C2127 H2106 0.950 . S
C2127 C2126 1.373 . S
C2127 C2143 1.377 . S
C2128 C2126 1.389 . S
C2128 C2129 1.524 . S
C2128 C2142 1.377 . S
C2129 C2128 1.524 . S
C2129 C2130 1.397 . S
C2129 C2134 1.363 . S
C2130 H2107 0.950 . S
C2130 C2129 1.397 . S
C2130 C2131 1.334 . S
C2131 H2108 0.950 . S
C2131 C2130 1.334 . S
C2131 C2132 1.287 . S
C2132 C2131 1.287 . S
C2132 C2133 1.524 . S
C2132 H2151 0.913 . S
C2133 H2109 0.950 . S
C2133 C2132 1.524 . S
C2133 C2134 1.415 . S
C2134 H2110 0.950 . S
C2134 C2129 1.363 . S
C2134 C2133 1.415 . S
C2135 H2111 0.951 . S
C2135 C2136 1.366 . S
C2135 C2137 1.388 . S
C2136 C2135 1.366 . S
C2136 C2140 1.385 . S
C2137 H2112 0.951 . S
C2137 C2135 1.388 . S
C2137 C2138 1.366 . S
C2138 C2137 1.366 . S
C2138 C2139 1.414 . S
C2138 C2141 1.499 1_545 S
C2139 H2113 0.950 . S
C2139 C2138 1.414 . S
C2139 C2140 1.374 . S
C2140 H2114 0.950 . S
C2140 C2136 1.385 . S
C2140 C2139 1.374 . S
C2141 C2138 1.499 1_565 S
C2141 C2142 1.373 . S
C2141 C2143 1.389 . S
C2142 H2115 0.950 . S
C2142 C2128 1.377 . S
C2142 C2141 1.373 . S
C2143 C2127 1.377 . S
C2143 C2141 1.389 . S
C2143 C2144 1.524 . S
C2144 C2143 1.524 . S
C2144 C2145 1.397 1_565 S
C2144 C2149 1.363 . S
C2145 H2116 0.950 . S
C2145 C2144 1.397 1_545 S
C2145 C2146 1.334 . S
C2146 H2117 0.950 . S
C2146 C2145 1.334 . S
C2146 C2147 1.287 . S
C2147 C2146 1.287 . S
C2147 C2148 1.524 . S
C2147 H2150 0.999 . S
C2148 H2118 0.950 . S
C2148 C2147 1.524 . S
C2148 C2149 1.415 1_545 S
C2149 H2119 0.950 . S
C2149 C2144 1.363 . S
C2149 C2148 1.415 1_565 S
H2150 C2147 0.999 . S
H2151 C2132 0.913 . S
H2152 C2170 0.951 . S
H2153 C2172 0.951 . S
H2154 C2174 0.950 . S
H2155 C2175 0.950 . S
H2156 C2177 0.950 . S
H2157 C2180 0.950 . S
H2158 C2181 0.950 . S
H2159 C2183 0.950 . S
H2160 C2184 0.950 . S
H2161 C2185 0.951 . S
H2162 C2187 0.951 . S
H2163 C2189 0.950 . S
H2164 C2190 0.950 . S
H2165 C2192 0.950 . S
H2166 C2195 0.950 . S
H2167 C2196 0.950 . S
H2168 C2198 0.950 . S
H2169 C2199 0.950 . S
C2170 H2152 0.951 . S
C2170 C2171 1.366 . S
C2170 C2172 1.388 . S
C2171 C2170 1.366 . S
C2171 C2175 1.385 . S
C2172 H2153 0.951 . S
C2172 C2170 1.388 . S
C2172 C2173 1.366 . S
C2173 C2172 1.366 . S
C2173 C2174 1.414 . S
C2173 C2176 1.499 . S
C2174 H2154 0.950 . S
C2174 C2173 1.414 . S
C2174 C2175 1.374 . S
C2175 H2155 0.950 . S
C2175 C2171 1.385 . S
C2175 C2174 1.374 . S
C2176 C2173 1.499 . S
C2176 C2177 1.373 . S
C2176 C2178 1.389 . S
C2177 H2156 0.950 . S
C2177 C2176 1.373 . S
C2177 C2193 1.377 . S
C2178 C2176 1.389 . S
C2178 C2179 1.524 . S
C2178 C2192 1.377 . S
C2179 C2178 1.524 . S
C2179 C2180 1.397 . S
C2179 C2184 1.363 . S
C2180 H2157 0.950 . S
C2180 C2179 1.397 . S
C2180 C2181 1.334 . S
C2181 H2158 0.950 . S
C2181 C2180 1.334 . S
C2181 C2182 1.287 . S
C2182 C2181 1.287 . S
C2182 C2183 1.524 . S
C2182 H2201 0.913 . S
C2183 H2159 0.950 . S
C2183 C2182 1.524 . S
C2183 C2184 1.415 . S
C2184 H2160 0.950 . S
C2184 C2179 1.363 . S
C2184 C2183 1.415 . S
C2185 H2161 0.951 . S
C2185 C2186 1.366 . S
C2185 C2187 1.388 . S
C2186 C2185 1.366 . S
C2186 C2190 1.385 . S
C2187 H2162 0.951 . S
C2187 C2185 1.388 . S
C2187 C2188 1.366 . S
C2188 C2187 1.366 . S
C2188 C2189 1.414 . S
C2188 C2191 1.499 1_565 S
C2189 H2163 0.950 . S
C2189 C2188 1.414 . S
C2189 C2190 1.374 . S
C2190 H2164 0.950 . S
C2190 C2186 1.385 . S
C2190 C2189 1.374 . S
C2191 C2188 1.499 1_545 S
C2191 C2192 1.373 . S
C2191 C2193 1.389 . S
C2192 H2165 0.950 . S
C2192 C2178 1.377 . S
C2192 C2191 1.373 . S
C2193 C2177 1.377 . S
C2193 C2191 1.389 . S
C2193 C2194 1.524 . S
C2194 C2193 1.524 . S
C2194 C2195 1.397 . S
C2194 C2199 1.363 . S
C2195 H2166 0.950 . S
C2195 C2194 1.397 . S
C2195 C2196 1.334 . S
C2196 H2167 0.950 . S
C2196 C2195 1.334 . S
C2196 C2197 1.287 . S
C2197 C2196 1.287 . S
C2197 C2198 1.524 . S
C2197 H2200 0.999 . S
C2198 H2168 0.950 . S
C2198 C2197 1.524 . S
C2198 C2199 1.415 . S
C2199 H2169 0.950 . S
C2199 C2194 1.363 . S
C2199 C2198 1.415 . S
H2200 C2197 0.999 . S
H2201 C2182 0.913 . S
H2202 C2220 0.951 . S
H2203 C2222 0.951 . S
H2204 C2224 0.950 . S
H2205 C2225 0.950 . S
H2206 C2227 0.950 . S
H2207 C2230 0.950 . S
H2208 C2231 0.950 . S
H2209 C2233 0.950 . S
H2210 C2234 0.950 . S
H2211 C2235 0.951 . S
H2212 C2237 0.951 . S
H2213 C2239 0.950 . S
H2214 C2240 0.950 . S
H2215 C2242 0.950 . S
H2216 C2245 0.950 . S
H2217 C2246 0.950 . S
H2218 C2248 0.950 . S
H2219 C2249 0.950 . S
C2220 H2202 0.951 . S
C2220 C2221 1.366 . S
C2220 C2222 1.388 . S
C2221 C2220 1.366 . S
C2221 C2225 1.385 . S
C2222 H2203 0.951 . S
C2222 C2220 1.388 . S
C2222 C2223 1.366 . S
C2223 C2222 1.366 . S
C2223 C2224 1.414 . S
C2223 C2226 1.499 1_545 S
C2224 H2204 0.950 . S
C2224 C2223 1.414 . S
C2224 C2225 1.374 . S
C2225 H2205 0.950 . S
C2225 C2221 1.385 . S
C2225 C2224 1.374 . S
C2226 C2223 1.499 1_565 S
C2226 C2227 1.373 . S
C2226 C2228 1.389 . S
C2227 H2206 0.950 . S
C2227 C2226 1.373 . S
C2227 C2243 1.377 . S
C2228 C2226 1.389 . S
C2228 C2229 1.524 . S
C2228 C2242 1.377 . S
C2229 C2228 1.524 . S
C2229 C2230 1.397 . S
C2229 C2234 1.363 . S
C2230 H2207 0.950 . S
C2230 C2229 1.397 . S
C2230 C2231 1.334 . S
C2231 H2208 0.950 . S
C2231 C2230 1.334 . S
C2231 C2232 1.287 . S
C2232 C2231 1.287 . S
C2232 C2233 1.524 . S
C2232 H2251 0.913 . S
C2233 H2209 0.950 . S
C2233 C2232 1.524 . S
C2233 C2234 1.415 . S
C2234 H2210 0.950 . S
C2234 C2229 1.363 . S
C2234 C2233 1.415 . S
C2235 H2211 0.951 . S
C2235 C2236 1.366 . S
C2235 C2237 1.388 . S
C2236 C2235 1.366 . S
C2236 C2240 1.385 . S
C2237 H2212 0.951 . S
C2237 C2235 1.388 . S
C2237 C2238 1.366 . S
C2238 C2237 1.366 . S
C2238 C2239 1.414 . S
C2238 C2241 1.499 . S
C2239 H2213 0.950 . S
C2239 C2238 1.414 . S
C2239 C2240 1.374 . S
C2240 H2214 0.950 . S
C2240 C2236 1.385 . S
C2240 C2239 1.374 . S
C2241 C2238 1.499 . S
C2241 C2242 1.373 . S
C2241 C2243 1.389 . S
C2242 H2215 0.950 . S
C2242 C2228 1.377 . S
C2242 C2241 1.373 . S
C2243 C2227 1.377 . S
C2243 C2241 1.389 . S
C2243 C2244 1.524 . S
C2244 C2243 1.524 . S
C2244 C2245 1.397 . S
C2244 C2249 1.363 . S
C2245 H2216 0.950 . S
C2245 C2244 1.397 . S
C2245 C2246 1.334 . S
C2246 H2217 0.950 . S
C2246 C2245 1.334 . S
C2246 C2247 1.287 . S
C2247 C2246 1.287 . S
C2247 C2248 1.524 . S
C2247 H2250 0.999 . S
C2248 H2218 0.950 . S
C2248 C2247 1.524 . S
C2248 C2249 1.415 . S
C2249 H2219 0.950 . S
C2249 C2244 1.363 . S
C2249 C2248 1.415 . S
H2250 C2247 0.999 . S
H2251 C2232 0.913 . S
H2252 C2270 0.951 . S
H2253 C2272 0.951 . S
H2254 C2274 0.950 . S
H2255 C2275 0.950 . S
H2256 C2277 0.950 . S
H2257 C2280 0.950 . S
H2258 C2281 0.950 . S
H2259 C2283 0.950 . S
H2260 C2284 0.950 . S
H2261 C2285 0.951 . S
H2262 C2287 0.951 . S
H2263 C2289 0.950 . S
H2264 C2290 0.950 . S
H2265 C2292 0.950 . S
H2266 C2295 0.950 . S
H2267 C2296 0.950 . S
H2268 C2298 0.950 . S
H2269 C2299 0.950 . S
C2270 H2252 0.951 . S
C2270 C2271 1.366 . S
C2270 C2272 1.388 . S
C2271 C2270 1.366 . S
C2271 C2275 1.385 . S
C2272 H2253 0.951 . S
C2272 C2270 1.388 . S
C2272 C2273 1.366 . S
C2273 C2272 1.366 . S
C2273 C2274 1.414 . S
C2273 C2276 1.499 1_545 S
C2274 H2254 0.950 . S
C2274 C2273 1.414 . S
C2274 C2275 1.374 . S
C2275 H2255 0.950 . S
C2275 C2271 1.385 . S
C2275 C2274 1.374 . S
C2276 C2273 1.499 1_565 S
C2276 C2277 1.373 . S
C2276 C2278 1.389 . S
C2277 H2256 0.950 . S
C2277 C2276 1.373 . S
C2277 C2293 1.377 . S
C2278 C2276 1.389 . S
C2278 C2279 1.524 . S
C2278 C2292 1.377 . S
C2279 C2278 1.524 . S
C2279 C2280 1.397 . S
C2279 C2284 1.363 . S
C2280 H2257 0.950 . S
C2280 C2279 1.397 . S
C2280 C2281 1.334 . S
C2281 H2258 0.950 . S
C2281 C2280 1.334 . S
C2281 C2282 1.287 . S
C2282 C2281 1.287 . S
C2282 C2283 1.524 . S
C2282 H2301 0.913 . S
C2283 H2259 0.950 . S
C2283 C2282 1.524 . S
C2283 C2284 1.415 . S
C2284 H2260 0.950 . S
C2284 C2279 1.363 . S
C2284 C2283 1.415 . S
C2285 H2261 0.951 . S
C2285 C2286 1.366 . S
C2285 C2287 1.388 . S
C2286 C2285 1.366 . S
C2286 C2290 1.385 . S
C2287 H2262 0.951 . S
C2287 C2285 1.388 . S
C2287 C2288 1.366 . S
C2288 C2287 1.366 . S
C2288 C2289 1.414 . S
C2288 C2291 1.499 . S
C2289 H2263 0.950 . S
C2289 C2288 1.414 . S
C2289 C2290 1.374 . S
C2290 H2264 0.950 . S
C2290 C2286 1.385 . S
C2290 C2289 1.374 . S
C2291 C2288 1.499 . S
C2291 C2292 1.373 . S
C2291 C2293 1.389 . S
C2292 H2265 0.950 . S
C2292 C2278 1.377 . S
C2292 C2291 1.373 . S
C2293 C2277 1.377 . S
C2293 C2291 1.389 . S
C2293 C2294 1.524 . S
C2294 C2293 1.524 . S
C2294 C2295 1.397 . S
C2294 C2299 1.363 . S
C2295 H2266 0.950 . S
C2295 C2294 1.397 . S
C2295 C2296 1.334 . S
C2296 H2267 0.950 . S
C2296 C2295 1.334 . S
C2296 C2297 1.287 . S
C2297 C2296 1.287 . S
C2297 C2298 1.524 . S
C2297 H2300 0.999 . S
C2298 H2268 0.950 . S
C2298 C2297 1.524 . S
C2298 C2299 1.415 . S
C2299 H2269 0.950 . S
C2299 C2294 1.363 . S
C2299 C2298 1.415 . S
H2300 C2297 0.999 . S
H2301 C2282 0.913 . S
H2302 C2320 0.951 . S
H2303 C2322 0.951 . S
H2304 C2324 0.950 . S
H2305 C2325 0.950 . S
H2306 C2327 0.950 . S
H2307 C2330 0.950 . S
H2308 C2331 0.950 . S
H2309 C2333 0.950 . S
H2310 C2334 0.950 . S
H2311 C2335 0.951 . S
H2312 C2337 0.934 1_545 S
H2313 C2339 0.950 . S
H2314 C2340 0.950 . S
H2315 C2342 0.950 . S
H2316 C2345 0.950 . S
H2317 C2346 0.950 . S
H2318 C2348 0.950 . S
H2319 C2349 0.950 . S
C2320 H2302 0.951 . S
C2320 C2321 1.366 . S
C2320 C2322 1.388 . S
C2321 C2320 1.366 . S
C2321 C2325 1.385 . S
C2322 H2303 0.951 . S
C2322 C2320 1.388 . S
C2322 C2323 1.366 . S
C2323 C2322 1.366 . S
C2323 C2324 1.414 . S
C2323 C2326 1.499 . S
C2324 H2304 0.950 . S
C2324 C2323 1.414 . S
C2324 C2325 1.374 . S
C2325 H2305 0.950 . S
C2325 C2321 1.385 . S
C2325 C2324 1.374 . S
C2326 C2323 1.499 . S
C2326 C2327 1.373 . S
C2326 C2328 1.389 . S
C2327 H2306 0.950 . S
C2327 C2326 1.373 . S
C2327 C2343 1.377 . S
C2328 C2326 1.389 . S
C2328 C2329 1.524 . S
C2328 C2342 1.377 . S
C2329 C2328 1.524 . S
C2329 C2330 1.397 . S
C2329 C2334 1.363 . S
C2330 H2307 0.950 . S
C2330 C2329 1.397 . S
C2330 C2331 1.334 . S
C2331 H2308 0.950 . S
C2331 C2330 1.334 . S
C2331 C2332 1.287 . S
C2332 C2331 1.287 . S
C2332 C2333 1.524 . S
C2332 H2351 0.913 . S
C2333 H2309 0.950 . S
C2333 C2332 1.524 . S
C2333 C2334 1.415 . S
C2334 H2310 0.950 . S
C2334 C2329 1.363 . S
C2334 C2333 1.415 . S
C2335 H2311 0.951 . S
C2335 C2336 1.366 . S
C2335 C2337 1.388 . S
C2336 C2335 1.366 . S
C2336 C2340 1.385 . S
C2337 H2312 0.934 1_565 S
C2337 C2335 1.388 . S
C2337 C2338 1.366 . S
C2338 C2337 1.366 . S
C2338 C2339 1.414 . S
C2338 C2341 1.499 1_565 S
C2339 H2313 0.950 . S
C2339 C2338 1.414 . S
C2339 C2340 1.374 . S
C2340 H2314 0.950 . S
C2340 C2336 1.385 . S
C2340 C2339 1.374 . S
C2341 C2338 1.499 1_545 S
C2341 C2342 1.373 . S
C2341 C2343 1.389 . S
C2342 H2315 0.950 . S
C2342 C2328 1.377 . S
C2342 C2341 1.373 . S
C2343 C2327 1.377 . S
C2343 C2341 1.389 . S
C2343 C2344 1.524 . S
C2344 C2343 1.524 . S
C2344 C2345 1.397 . S
C2344 C2349 1.363 . S
C2345 H2316 0.950 . S
C2345 C2344 1.397 . S
C2345 C2346 1.334 . S
C2346 H2317 0.950 . S
C2346 C2345 1.334 . S
C2346 C2347 1.287 . S
C2347 C2346 1.287 . S
C2347 C2348 1.524 . S
C2347 H2350 0.999 . S
C2348 H2318 0.950 . S
C2348 C2347 1.524 . S
C2348 C2349 1.415 . S
C2349 H2319 0.950 . S
C2349 C2344 1.363 . S
C2349 C2348 1.415 . S
H2350 C2347 0.999 . S
H2351 C2332 0.913 . S
H2352 C2370 0.951 . S
H2353 C2372 0.951 . S
H2354 C2374 0.950 . S
H2355 C2375 0.950 . S
H2356 C2377 0.950 . S
H2357 C2380 0.950 . S
H2358 C2381 0.950 . S
H2359 C2383 0.950 . S
H2360 C2384 0.950 . S
H2361 C2385 0.951 . S
H2362 C2387 0.951 . S
H2363 C2389 0.950 . S
H2364 C2390 0.950 . S
H2365 C2392 0.950 . S
H2366 C2395 0.950 . S
H2367 C2396 0.950 . S
H2368 C2398 0.950 . S
H2369 C2399 0.950 . S
C2370 H2352 0.951 . S
C2370 C2371 1.366 . S
C2370 C2372 1.388 . S
C2371 C2370 1.366 . S
C2371 C2375 1.385 . S
C2372 H2353 0.951 . S
C2372 C2370 1.388 . S
C2372 C2373 1.366 . S
C2373 C2372 1.366 . S
C2373 C2374 1.414 . S
C2373 C2376 1.499 . S
C2374 H2354 0.950 . S
C2374 C2373 1.414 . S
C2374 C2375 1.374 . S
C2375 H2355 0.950 . S
C2375 C2371 1.385 . S
C2375 C2374 1.374 . S
C2376 C2373 1.499 . S
C2376 C2377 1.373 . S
C2376 C2378 1.389 . S
C2377 H2356 0.950 . S
C2377 C2376 1.373 . S
C2377 C2393 1.377 . S
C2378 C2376 1.389 . S
C2378 C2379 1.524 . S
C2378 C2392 1.377 . S
C2379 C2378 1.524 . S
C2379 C2380 1.397 . S
C2379 C2384 1.363 . S
C2380 H2357 0.950 . S
C2380 C2379 1.397 . S
C2380 C2381 1.334 . S
C2381 H2358 0.950 . S
C2381 C2380 1.334 . S
C2381 C2382 1.287 . S
C2382 C2381 1.287 . S
C2382 C2383 1.524 . S
C2382 H2401 0.913 . S
C2383 H2359 0.950 . S
C2383 C2382 1.524 . S
C2383 C2384 1.415 . S
C2384 H2360 0.950 . S
C2384 C2379 1.363 . S
C2384 C2383 1.415 . S
C2385 H2361 0.951 . S
C2385 C2386 1.366 . S
C2385 C2387 1.388 . S
C2386 C2385 1.366 . S
C2386 C2390 1.385 . S
C2387 H2362 0.951 . S
C2387 C2385 1.388 . S
C2387 C2388 1.366 . S
C2388 C2387 1.366 . S
C2388 C2389 1.414 . S
C2388 C2391 1.499 . S
C2389 H2363 0.950 . S
C2389 C2388 1.414 . S
C2389 C2390 1.374 . S
C2390 H2364 0.950 . S
C2390 C2386 1.385 . S
C2390 C2389 1.374 . S
C2391 C2388 1.499 . S
C2391 C2392 1.373 . S
C2391 C2393 1.389 . S
C2392 H2365 0.950 . S
C2392 C2378 1.377 . S
C2392 C2391 1.373 . S
C2393 C2377 1.377 . S
C2393 C2391 1.389 . S
C2393 C2394 1.524 . S
C2394 C2393 1.524 . S
C2394 C2395 1.397 . S
C2394 C2399 1.363 . S
C2395 H2366 0.950 . S
C2395 C2394 1.397 . S
C2395 C2396 1.334 . S
C2396 H2367 0.950 . S
C2396 C2395 1.334 . S
C2396 C2397 1.287 . S
C2397 C2396 1.287 . S
C2397 C2398 1.524 . S
C2397 H2400 0.999 . S
C2398 H2368 0.950 . S
C2398 C2397 1.524 . S
C2398 C2399 1.415 . S
C2399 H2369 0.950 . S
C2399 C2394 1.363 . S
C2399 C2398 1.415 . S
H2400 C2397 0.999 . S
H2401 C2382 0.913 . S
H2402 C2420 0.951 . S
H2403 C2422 0.951 . S
H2404 C2424 0.950 . S
H2405 C2425 0.950 . S
H2406 C2427 0.950 . S
H2407 C2430 0.950 . S
H2408 C2431 0.950 . S
H2409 C2433 0.950 . S
H2410 C2434 0.950 . S
H2411 C2435 0.951 . S
H2412 C2437 0.951 . S
H2413 C2439 0.950 . S
H2414 C2440 0.950 . S
H2415 C2442 0.950 . S
H2416 C2445 0.950 . S
H2417 C2446 0.950 . S
H2418 C2448 0.950 . S
H2419 C2449 0.950 . S
C2420 H2402 0.951 . S
C2420 C2421 1.366 . S
C2420 C2422 1.388 . S
C2421 C2420 1.366 . S
C2421 C2425 1.385 . S
C2422 H2403 0.951 . S
C2422 C2420 1.388 . S
C2422 C2423 1.366 . S
C2423 C2422 1.366 . S
C2423 C2424 1.414 . S
C2423 C2426 1.499 . S
C2424 H2404 0.950 . S
C2424 C2423 1.414 . S
C2424 C2425 1.374 . S
C2425 H2405 0.950 . S
C2425 C2421 1.385 . S
C2425 C2424 1.374 . S
C2426 C2423 1.499 . S
C2426 C2427 1.373 . S
C2426 C2428 1.389 . S
C2427 H2406 0.950 . S
C2427 C2426 1.373 . S
C2427 C2443 1.377 . S
C2428 C2426 1.389 . S
C2428 C2429 1.524 . S
C2428 C2442 1.377 . S
C2429 C2428 1.524 . S
C2429 C2430 1.397 . S
C2429 C2434 1.363 . S
C2430 H2407 0.950 . S
C2430 C2429 1.397 . S
C2430 C2431 1.334 . S
C2431 H2408 0.950 . S
C2431 C2430 1.334 . S
C2431 C2432 1.287 . S
C2432 C2431 1.287 . S
C2432 C2433 1.524 . S
C2432 H2451 0.913 . S
C2433 H2409 0.950 . S
C2433 C2432 1.524 . S
C2433 C2434 1.415 . S
C2434 H2410 0.950 . S
C2434 C2429 1.363 . S
C2434 C2433 1.415 . S
C2435 H2411 0.951 . S
C2435 C2436 1.366 . S
C2435 C2437 1.388 . S
C2436 C2435 1.366 . S
C2436 C2440 1.385 . S
C2437 H2412 0.951 . S
C2437 C2435 1.388 . S
C2437 C2438 1.366 . S
C2438 C2437 1.366 . S
C2438 C2439 1.414 . S
C2438 C2441 1.499 . S
C2439 H2413 0.950 . S
C2439 C2438 1.414 . S
C2439 C2440 1.374 . S
C2440 H2414 0.950 . S
C2440 C2436 1.385 . S
C2440 C2439 1.374 . S
C2441 C2438 1.499 . S
C2441 C2442 1.373 . S
C2441 C2443 1.389 . S
C2442 H2415 0.950 . S
C2442 C2428 1.377 . S
C2442 C2441 1.373 . S
C2443 C2427 1.377 . S
C2443 C2441 1.389 . S
C2443 C2444 1.524 . S
C2444 C2443 1.524 . S
C2444 C2445 1.397 . S
C2444 C2449 1.363 . S
C2445 H2416 0.950 . S
C2445 C2444 1.397 . S
C2445 C2446 1.334 . S
C2446 H2417 0.950 . S
C2446 C2445 1.334 . S
C2446 C2447 1.287 . S
C2447 C2446 1.287 . S
C2447 C2448 1.524 . S
C2447 H2450 0.999 . S
C2448 H2418 0.950 . S
C2448 C2447 1.524 . S
C2448 C2449 1.415 . S
C2449 H2419 0.950 . S
C2449 C2444 1.363 . S
C2449 C2448 1.415 . S
H2450 C2447 0.999 . S
H2451 C2432 0.913 . S
H2452 C2470 0.951 . S
H2453 C2472 0.951 . S
H2454 C2474 0.950 . S
H2455 C2475 0.950 . S
H2456 C2477 0.950 . S
H2457 C2480 0.950 . S
H2458 C2481 0.950 . S
H2459 C2483 0.950 . S
H2460 C2484 0.950 . S
H2461 C2485 0.951 . S
H2462 C2487 0.951 . S
H2463 C2489 0.950 . S
H2464 C2490 0.950 . S
H2465 C2492 0.950 . S
H2466 C2495 0.950 . S
H2467 C2496 0.950 . S
H2468 C2498 0.950 . S
H2469 C2499 0.950 . S
C2470 H2452 0.951 . S
C2470 C2471 1.366 . S
C2470 C2472 1.388 . S
C2471 C2470 1.366 . S
C2471 C2475 1.385 . S
C2472 H2453 0.951 . S
C2472 C2470 1.388 . S
C2472 C2473 1.366 . S
C2473 C2472 1.366 . S
C2473 C2474 1.414 . S
C2473 C2476 1.499 . S
C2474 H2454 0.950 . S
C2474 C2473 1.414 . S
C2474 C2475 1.374 . S
C2475 H2455 0.950 . S
C2475 C2471 1.385 . S
C2475 C2474 1.374 . S
C2476 C2473 1.499 . S
C2476 C2477 1.373 . S
C2476 C2478 1.389 . S
C2477 H2456 0.950 . S
C2477 C2476 1.373 . S
C2477 C2493 1.377 . S
C2478 C2476 1.389 . S
C2478 C2479 1.524 . S
C2478 C2492 1.377 . S
C2479 C2478 1.524 . S
C2479 C2480 1.397 . S
C2479 C2484 1.363 . S
C2480 H2457 0.950 . S
C2480 C2479 1.397 . S
C2480 C2481 1.334 . S
C2481 H2458 0.950 . S
C2481 C2480 1.334 . S
C2481 C2482 1.287 . S
C2482 C2481 1.287 . S
C2482 C2483 1.524 . S
C2482 H2501 0.913 . S
C2483 H2459 0.950 . S
C2483 C2482 1.524 . S
C2483 C2484 1.415 . S
C2484 H2460 0.950 . S
C2484 C2479 1.363 . S
C2484 C2483 1.415 . S
C2485 H2461 0.951 . S
C2485 C2486 1.366 . S
C2485 C2487 1.388 . S
C2486 C2485 1.366 . S
C2486 C2490 1.385 . S
C2487 H2462 0.951 . S
C2487 C2485 1.388 . S
C2487 C2488 1.366 . S
C2488 C2487 1.366 . S
C2488 C2489 1.414 . S
C2488 C2491 1.499 . S
C2489 H2463 0.950 . S
C2489 C2488 1.414 . S
C2489 C2490 1.374 . S
C2490 H2464 0.950 . S
C2490 C2486 1.385 . S
C2490 C2489 1.374 . S
C2491 C2488 1.499 . S
C2491 C2492 1.373 . S
C2491 C2493 1.389 . S
C2492 H2465 0.950 . S
C2492 C2478 1.377 . S
C2492 C2491 1.373 . S
C2493 C2477 1.377 . S
C2493 C2491 1.389 . S
C2493 C2494 1.524 . S
C2494 C2493 1.524 . S
C2494 C2495 1.397 . S
C2494 C2499 1.363 . S
C2495 H2466 0.950 . S
C2495 C2494 1.397 . S
C2495 C2496 1.334 . S
C2496 H2467 0.950 . S
C2496 C2495 1.334 . S
C2496 C2497 1.287 . S
C2497 C2496 1.287 . S
C2497 C2498 1.524 . S
C2497 H2500 0.999 . S
C2498 H2468 0.950 . S
C2498 C2497 1.524 . S
C2498 C2499 1.415 . S
C2499 H2469 0.950 . S
C2499 C2494 1.363 . S
C2499 C2498 1.415 . S
H2500 C2497 0.999 . S
H2501 C2482 0.913 . S
H2502 C2520 0.951 . S
H2503 C2522 0.951 . S
H2504 C2524 0.950 . S
H2505 C2525 0.950 . S
H2506 C2527 0.950 . S
H2507 C2530 0.950 . S
H2508 C2531 0.950 . S
H2509 C2533 0.950 . S
H2510 C2534 0.950 . S
H2511 C2535 0.951 . S
H2512 C2537 0.951 . S
H2513 C2539 0.950 . S
H2514 C2540 0.950 . S
H2515 C2542 0.950 . S
H2516 C2545 0.950 . S
H2517 C2546 0.950 . S
H2518 C2548 0.950 . S
H2519 C2549 0.950 . S
C2520 H2502 0.951 . S
C2520 C2521 1.366 . S
C2520 C2522 1.388 . S
C2521 C2520 1.366 . S
C2521 C2525 1.385 . S
C2522 H2503 0.951 . S
C2522 C2520 1.388 . S
C2522 C2523 1.366 . S
C2523 C2522 1.366 . S
C2523 C2524 1.414 . S
C2523 C2526 1.499 . S
C2524 H2504 0.950 . S
C2524 C2523 1.414 . S
C2524 C2525 1.374 . S
C2525 H2505 0.950 . S
C2525 C2521 1.385 . S
C2525 C2524 1.374 . S
C2526 C2523 1.499 . S
C2526 C2527 1.373 . S
C2526 C2528 1.389 . S
C2527 H2506 0.950 . S
C2527 C2526 1.373 . S
C2527 C2543 1.377 . S
C2528 C2526 1.389 . S
C2528 C2529 1.524 . S
C2528 C2542 1.377 . S
C2529 C2528 1.524 . S
C2529 C2530 1.397 . S
C2529 C2534 1.363 . S
C2530 H2507 0.950 . S
C2530 C2529 1.397 . S
C2530 C2531 1.334 . S
C2531 H2508 0.950 . S
C2531 C2530 1.334 . S
C2531 C2532 1.287 . S
C2532 C2531 1.287 . S
C2532 C2533 1.524 . S
C2532 H2551 0.913 . S
C2533 H2509 0.950 . S
C2533 C2532 1.524 . S
C2533 C2534 1.415 . S
C2534 H2510 0.950 . S
C2534 C2529 1.363 . S
C2534 C2533 1.415 . S
C2535 H2511 0.951 . S
C2535 C2536 1.366 . S
C2535 C2537 1.388 . S
C2536 C2535 1.366 . S
C2536 C2540 1.385 . S
C2537 H2512 0.951 . S
C2537 C2535 1.388 . S
C2537 C2538 1.366 . S
C2538 C2537 1.366 . S
C2538 C2539 1.414 . S
C2538 C2541 1.499 . S
C2539 H2513 0.950 . S
C2539 C2538 1.414 . S
C2539 C2540 1.374 . S
C2540 H2514 0.950 . S
C2540 C2536 1.385 . S
C2540 C2539 1.374 . S
C2541 C2538 1.499 . S
C2541 C2542 1.373 . S
C2541 C2543 1.389 . S
C2542 H2515 0.950 . S
C2542 C2528 1.377 . S
C2542 C2541 1.373 . S
C2543 C2527 1.377 . S
C2543 C2541 1.389 . S
C2543 C2544 1.524 . S
C2544 C2543 1.524 . S
C2544 C2545 1.397 . S
C2544 C2549 1.363 . S
C2545 H2516 0.950 . S
C2545 C2544 1.397 . S
C2545 C2546 1.334 . S
C2546 H2517 0.950 . S
C2546 C2545 1.334 . S
C2546 C2547 1.287 . S
C2547 C2546 1.287 . S
C2547 C2548 1.524 . S
C2547 H2550 0.999 . S
C2548 H2518 0.950 . S
C2548 C2547 1.524 . S
C2548 C2549 1.415 . S
C2549 H2519 0.950 . S
C2549 C2544 1.363 . S
C2549 C2548 1.415 . S
H2550 C2547 0.999 . S
H2551 C2532 0.913 . S
H2552 C2570 0.951 . S
H2553 C2572 0.951 . S
H2554 C2574 0.950 . S
H2555 C2575 0.950 . S
H2556 C2577 0.950 . S
H2557 C2580 0.950 . S
H2558 C2581 0.950 . S
H2559 C2583 0.950 . S
H2560 C2584 0.950 . S
H2561 C2585 0.951 . S
H2562 C2587 0.951 . S
H2563 C2589 0.950 . S
H2564 C2590 0.950 . S
H2565 C2592 0.950 . S
H2566 C2595 0.950 . S
H2567 C2596 0.950 . S
H2568 C2598 0.950 . S
H2569 C2599 0.950 . S
C2570 H2552 0.951 . S
C2570 C2571 1.366 . S
C2570 C2572 1.388 . S
C2571 C2570 1.366 . S
C2571 C2575 1.385 . S
C2572 H2553 0.951 . S
C2572 C2570 1.388 . S
C2572 C2573 1.366 . S
C2573 C2572 1.366 . S
C2573 C2574 1.414 . S
C2573 C2576 1.499 . S
C2574 H2554 0.950 . S
C2574 C2573 1.414 . S
C2574 C2575 1.374 . S
C2575 H2555 0.950 . S
C2575 C2571 1.385 . S
C2575 C2574 1.374 . S
C2576 C2573 1.499 . S
C2576 C2577 1.373 . S
C2576 C2578 1.389 . S
C2577 H2556 0.950 . S
C2577 C2576 1.373 . S
C2577 C2593 1.377 . S
C2578 C2576 1.389 . S
C2578 C2579 1.524 . S
C2578 C2592 1.377 . S
C2579 C2578 1.524 . S
C2579 C2580 1.397 . S
C2579 C2584 1.363 . S
C2580 H2557 0.950 . S
C2580 C2579 1.397 . S
C2580 C2581 1.334 . S
C2581 H2558 0.950 . S
C2581 C2580 1.334 . S
C2581 C2582 1.287 . S
C2582 C2581 1.287 . S
C2582 C2583 1.524 . S
C2582 H2601 0.913 . S
C2583 H2559 0.950 . S
C2583 C2582 1.524 . S
C2583 C2584 1.415 . S
C2584 H2560 0.950 . S
C2584 C2579 1.363 . S
C2584 C2583 1.415 . S
C2585 H2561 0.951 . S
C2585 C2586 1.366 . S
C2585 C2587 1.388 . S
C2586 C2585 1.366 . S
C2586 C2590 1.385 . S
C2587 H2562 0.951 . S
C2587 C2585 1.388 . S
C2587 C2588 1.366 . S
C2588 C2587 1.366 . S
C2588 C2589 1.414 . S
C2588 C2591 1.499 . S
C2589 H2563 0.950 . S
C2589 C2588 1.414 . S
C2589 C2590 1.374 . S
C2590 H2564 0.950 . S
C2590 C2586 1.385 . S
C2590 C2589 1.374 . S
C2591 C2588 1.499 . S
C2591 C2592 1.373 . S
C2591 C2593 1.389 . S
C2592 H2565 0.950 . S
C2592 C2578 1.377 . S
C2592 C2591 1.373 . S
C2593 C2577 1.377 . S
C2593 C2591 1.389 . S
C2593 C2594 1.524 . S
C2594 C2593 1.524 . S
C2594 C2595 1.397 . S
C2594 C2599 1.363 . S
C2595 H2566 0.950 . S
C2595 C2594 1.397 . S
C2595 C2596 1.334 . S
C2596 H2567 0.950 . S
C2596 C2595 1.334 . S
C2596 C2597 1.287 . S
C2597 C2596 1.287 . S
C2597 C2598 1.524 . S
C2597 H2600 0.999 . S
C2598 H2568 0.950 . S
C2598 C2597 1.524 . S
C2598 C2599 1.415 . S
C2599 H2569 0.950 . S
C2599 C2594 1.363 . S
C2599 C2598 1.415 . S
H2600 C2597 0.999 . S
H2601 C2582 0.913 . S
H2602 C2620 0.951 . S
H2603 C2622 0.951 . S
H2604 C2624 0.950 . S
H2605 C2625 0.950 . S
H2606 C2627 0.950 . S
H2607 C2630 0.950 . S
H2608 C2631 0.950 . S
H2609 C2633 0.950 . S
H2610 C2634 0.950 . S
H2611 C2635 0.951 . S
H2612 C2637 0.951 . S
H2613 C2639 0.950 . S
H2614 C2640 0.950 . S
H2615 C2642 0.950 . S
H2616 C2645 0.950 . S
H2617 C2646 0.950 . S
H2618 C2648 0.950 . S
H2619 C2649 0.950 . S
C2620 H2602 0.951 . S
C2620 C2621 1.366 . S
C2620 C2622 1.388 . S
C2621 C2620 1.366 . S
C2621 C2625 1.385 . S
C2622 H2603 0.951 . S
C2622 C2620 1.388 . S
C2622 C2623 1.366 . S
C2623 C2622 1.366 . S
C2623 C2624 1.414 . S
C2623 C2626 1.499 . S
C2624 H2604 0.950 . S
C2624 C2623 1.414 . S
C2624 C2625 1.374 . S
C2625 H2605 0.950 . S
C2625 C2621 1.385 . S
C2625 C2624 1.374 . S
C2626 C2623 1.499 . S
C2626 C2627 1.373 . S
C2626 C2628 1.389 . S
C2627 H2606 0.950 . S
C2627 C2626 1.373 . S
C2627 C2643 1.377 . S
C2628 C2626 1.389 . S
C2628 C2629 1.524 . S
C2628 C2642 1.377 . S
C2629 C2628 1.524 . S
C2629 C2630 1.397 . S
C2629 C2634 1.363 . S
C2630 H2607 0.950 . S
C2630 C2629 1.397 . S
C2630 C2631 1.334 . S
C2631 H2608 0.950 . S
C2631 C2630 1.334 . S
C2631 C2632 1.287 . S
C2632 C2631 1.287 . S
C2632 C2633 1.524 . S
C2632 H2651 0.913 . S
C2633 H2609 0.950 . S
C2633 C2632 1.524 . S
C2633 C2634 1.415 . S
C2634 H2610 0.950 . S
C2634 C2629 1.363 . S
C2634 C2633 1.415 . S
C2635 H2611 0.951 . S
C2635 C2636 1.366 . S
C2635 C2637 1.388 . S
C2636 C2635 1.366 . S
C2636 C2640 1.385 . S
C2637 H2612 0.951 . S
C2637 C2635 1.388 . S
C2637 C2638 1.366 . S
C2638 C2637 1.366 . S
C2638 C2639 1.414 . S
C2638 C2641 1.499 . S
C2639 H2613 0.950 . S
C2639 C2638 1.414 . S
C2639 C2640 1.374 . S
C2640 H2614 0.950 . S
C2640 C2636 1.385 . S
C2640 C2639 1.374 . S
C2641 C2638 1.499 . S
C2641 C2642 1.373 . S
C2641 C2643 1.389 . S
C2642 H2615 0.950 . S
C2642 C2628 1.377 . S
C2642 C2641 1.373 . S
C2643 C2627 1.377 . S
C2643 C2641 1.389 . S
C2643 C2644 1.524 . S
C2644 C2643 1.524 . S
C2644 C2645 1.397 . S
C2644 C2649 1.363 . S
C2645 H2616 0.950 . S
C2645 C2644 1.397 . S
C2645 C2646 1.334 . S
C2646 H2617 0.950 . S
C2646 C2645 1.334 . S
C2646 C2647 1.287 . S
C2647 C2646 1.287 . S
C2647 C2648 1.524 . S
C2647 H2650 0.999 . S
C2648 H2618 0.950 . S
C2648 C2647 1.524 . S
C2648 C2649 1.415 . S
C2649 H2619 0.950 . S
C2649 C2644 1.363 . S
C2649 C2648 1.415 . S
H2650 C2647 0.999 . S
H2651 C2632 0.913 . S
H2652 C2670 0.951 . S
H2653 C2672 0.951 . S
H2654 C2674 0.950 . S
H2655 C2675 0.950 . S
H2656 C2677 0.950 . S
H2657 C2680 0.950 . S
H2658 C2681 0.950 . S
H2659 C2683 0.950 . S
H2660 C2684 0.950 . S
H2661 C2685 0.951 . S
H2662 C2687 0.951 . S
H2663 C2689 0.950 . S
H2664 C2690 0.950 . S
H2665 C2692 0.950 . S
H2666 C2695 0.950 . S
H2667 C2696 0.950 . S
H2668 C2698 0.950 . S
H2669 C2699 0.950 . S
C2670 H2652 0.951 . S
C2670 C2671 1.366 . S
C2670 C2672 1.388 . S
C2671 C2670 1.366 . S
C2671 C2675 1.385 . S
C2672 H2653 0.951 . S
C2672 C2670 1.388 . S
C2672 C2673 1.366 . S
C2673 C2672 1.366 . S
C2673 C2674 1.414 . S
C2673 C2676 1.499 . S
C2674 H2654 0.950 . S
C2674 C2673 1.414 . S
C2674 C2675 1.374 . S
C2675 H2655 0.950 . S
C2675 C2671 1.385 . S
C2675 C2674 1.374 . S
C2676 C2673 1.499 . S
C2676 C2677 1.373 . S
C2676 C2678 1.389 . S
C2677 H2656 0.950 . S
C2677 C2676 1.373 . S
C2677 C2693 1.377 . S
C2678 C2676 1.389 . S
C2678 C2679 1.524 . S
C2678 C2692 1.377 . S
C2679 C2678 1.524 . S
C2679 C2680 1.397 . S
C2679 C2684 1.363 . S
C2680 H2657 0.950 . S
C2680 C2679 1.397 . S
C2680 C2681 1.334 . S
C2681 H2658 0.950 . S
C2681 C2680 1.334 . S
C2681 C2682 1.287 . S
C2682 C2681 1.287 . S
C2682 C2683 1.524 . S
C2682 H2701 0.913 . S
C2683 H2659 0.950 . S
C2683 C2682 1.524 . S
C2683 C2684 1.415 . S
C2684 H2660 0.950 . S
C2684 C2679 1.363 . S
C2684 C2683 1.415 . S
C2685 H2661 0.951 . S
C2685 C2686 1.366 . S
C2685 C2687 1.388 . S
C2686 C2685 1.366 . S
C2686 C2690 1.385 . S
C2687 H2662 0.951 . S
C2687 C2685 1.388 . S
C2687 C2688 1.366 . S
C2688 C2687 1.366 . S
C2688 C2689 1.414 . S
C2688 C2691 1.499 . S
C2689 H2663 0.950 . S
C2689 C2688 1.414 . S
C2689 C2690 1.374 . S
C2690 H2664 0.950 . S
C2690 C2686 1.385 . S
C2690 C2689 1.374 . S
C2691 C2688 1.499 . S
C2691 C2692 1.373 . S
C2691 C2693 1.389 . S
C2692 H2665 0.950 . S
C2692 C2678 1.377 . S
C2692 C2691 1.373 . S
C2693 C2677 1.377 . S
C2693 C2691 1.389 . S
C2693 C2694 1.524 . S
C2694 C2693 1.524 . S
C2694 C2695 1.397 . S
C2694 C2699 1.363 . S
C2695 H2666 0.950 . S
C2695 C2694 1.397 . S
C2695 C2696 1.334 . S
C2696 H2667 0.950 . S
C2696 C2695 1.334 . S
C2696 C2697 1.287 . S
C2697 C2696 1.287 . S
C2697 C2698 1.524 . S
C2697 H2700 0.999 . S
C2698 H2668 0.950 . S
C2698 C2697 1.524 . S
C2698 C2699 1.415 . S
C2699 H2669 0.950 . S
C2699 C2694 1.363 . S
C2699 C2698 1.415 . S
H2700 C2697 0.999 . S
H2701 C2682 0.913 . S
H2702 C2720 0.951 . S
H2703 C2722 0.951 . S
H2704 C2724 0.950 . S
H2705 C2725 0.950 . S
H2706 C2727 0.950 . S
H2707 C2730 0.950 . S
H2708 C2731 0.950 . S
H2709 C2733 0.950 . S
H2710 C2734 0.950 . S
H2711 C2735 0.951 . S
H2712 C2737 0.951 . S
H2713 C2739 0.950 . S
H2714 C2740 0.950 . S
H2715 C2742 0.950 . S
H2716 C2745 0.950 . S
H2717 C2746 0.950 . S
H2718 C2748 0.950 . S
H2719 C2749 0.950 . S
C2720 H2702 0.951 . S
C2720 C2721 1.366 . S
C2720 C2722 1.388 . S
C2721 C2720 1.366 . S
C2721 C2725 1.385 . S
C2722 H2703 0.951 . S
C2722 C2720 1.388 . S
C2722 C2723 1.366 . S
C2723 C2722 1.366 . S
C2723 C2724 1.414 . S
C2723 C2726 1.499 . S
C2724 H2704 0.950 . S
C2724 C2723 1.414 . S
C2724 C2725 1.374 . S
C2725 H2705 0.950 . S
C2725 C2721 1.385 . S
C2725 C2724 1.374 . S
C2726 C2723 1.499 . S
C2726 C2727 1.373 . S
C2726 C2728 1.389 . S
C2727 H2706 0.950 . S
C2727 C2726 1.373 . S
C2727 C2743 1.377 . S
C2728 C2726 1.389 . S
C2728 C2729 1.524 . S
C2728 C2742 1.377 . S
C2729 C2728 1.524 . S
C2729 C2730 1.397 . S
C2729 C2734 1.363 . S
C2730 H2707 0.950 . S
C2730 C2729 1.397 . S
C2730 C2731 1.334 . S
C2731 H2708 0.950 . S
C2731 C2730 1.334 . S
C2731 C2732 1.287 . S
C2732 C2731 1.287 . S
C2732 C2733 1.524 . S
C2732 H2751 0.913 . S
C2733 H2709 0.950 . S
C2733 C2732 1.524 . S
C2733 C2734 1.415 . S
C2734 H2710 0.950 . S
C2734 C2729 1.363 . S
C2734 C2733 1.415 . S
C2735 H2711 0.951 . S
C2735 C2736 1.366 . S
C2735 C2737 1.388 . S
C2736 C2735 1.366 . S
C2736 C2740 1.385 . S
C2737 H2712 0.951 . S
C2737 C2735 1.388 . S
C2737 C2738 1.366 . S
C2738 C2737 1.366 . S
C2738 C2739 1.414 . S
C2738 C2741 1.499 . S
C2739 H2713 0.950 . S
C2739 C2738 1.414 . S
C2739 C2740 1.374 . S
C2740 H2714 0.950 . S
C2740 C2736 1.385 . S
C2740 C2739 1.374 . S
C2741 C2738 1.499 . S
C2741 C2742 1.373 . S
C2741 C2743 1.389 . S
C2742 H2715 0.950 . S
C2742 C2728 1.377 . S
C2742 C2741 1.373 . S
C2743 C2727 1.377 . S
C2743 C2741 1.389 . S
C2743 C2744 1.524 . S
C2744 C2743 1.524 . S
C2744 C2745 1.397 . S
C2744 C2749 1.363 . S
C2745 H2716 0.950 . S
C2745 C2744 1.397 . S
C2745 C2746 1.334 . S
C2746 H2717 0.950 . S
C2746 C2745 1.334 . S
C2746 C2747 1.287 . S
C2747 C2746 1.287 . S
C2747 C2748 1.524 . S
C2747 H2750 0.999 . S
C2748 H2718 0.950 . S
C2748 C2747 1.524 . S
C2748 C2749 1.415 . S
C2749 H2719 0.950 . S
C2749 C2744 1.363 . S
C2749 C2748 1.415 . S
H2750 C2747 0.999 . S
H2751 C2732 0.913 . S
C371 C5 0.557 . S
C386 C270 0.557 . S
C421 C293 0.556 . S
C436 C27 0.556 . S
C471 C314 0.559 . S
C486 C49 0.559 . S
C521 C336 0.559 . S
C536 C75 0.559 . S
C571 C94 0.556 . S
C586 C181 0.556 . S
C621 C203 0.557 . S
C636 C117 0.557 . S
C671 C138 0.558 . S
C686 C225 0.558 . S
C721 C251 0.559 . S
C736 C160 0.559 . S
C771 C48 1.847 . S
C786 C4 1.847 . S
C821 C26 1.847 . S
C836 C74 1.847 . S
C871 C92 1.847 . S
C886 C136 1.847 . S
C921 C158 1.847 . S
C936 C118 1.847 . S
C971 C180 1.847 . S
C986 C224 1.847 . S
C1021 C250 1.847 . S
C1036 C202 1.847 . S
C1071 C312 1.847 . S
C1086 C268 1.847 . S
C1121 C334 1.847 . S
C1136 C294 1.847 . S
C1171 C9 1.792 . S
C1186 C71 1.792 . S
C1221 C53 1.792 . S
C1236 C31 1.792 . S
C1271 C161 1.792 . S
C1286 C95 1.792 . S
C1321 C139 1.792 . S
C1336 C116 1.792 . S
C1371 C247 1.792 . S
C1386 C185 1.792 . S
C1421 C229 1.791 . S
C1436 C207 1.791 . S
C1471 C271 1.792 . S
C1486 C337 1.792 . S
C1521 C315 1.792 . S
C1536 C292 1.792 . S
C1571 C8 1.409 . S
C1586 C140 1.408 . S
C1621 C30 1.409 . S
C1636 C162 1.408 . S
C1671 C96 1.409 . S
C1686 C52 1.408 . S
C1721 C114 1.409 . S
C1736 C70 1.408 . S
C1771 C184 1.408 . S
C1786 C316 1.409 . S
C1821 C206 1.408 . S
C1836 C338 1.409 . S
C1871 C272 1.409 . S
C1886 C228 1.408 . S
C1921 C290 1.409 . S
C1936 C246 1.408 . S
C1971 C6 1.177 . S
C1986 C317 1.138 . S
C2021 C28 1.178 . S
C2036 C339 1.138 . S
C2071 C273 1.139 . S
C2086 C50 1.178 . S
C2121 C291 1.138 . S
C2136 C73 1.177 . S
C2171 C227 1.138 . S
C2186 C93 1.178 . S
C2221 C119 1.178 . S
C2236 C248 1.138 . S
C2271 C137 1.178 . S
C2286 C183 1.137 . S
C2321 C205 1.137 . S
C2336 C159 1.178 . S
C2371 C141 1.138 . S
C2386 C182 1.177 . S
C2421 C204 1.177 . S
C2436 C163 1.139 . S
C2471 C97 1.139 . S
C2486 C226 1.178 . S
C2521 C249 1.178 . S
C2536 C115 1.137 . S
C2571 C51 1.137 . S
C2586 C269 1.178 . S
C2621 C295 1.178 . S
C2636 C72 1.137 . S
C2671 C313 1.178 . S
C2686 C7 1.139 . S
C2721 C29 1.137 . S
C2736 C335 1.178 . S
