# Generated by pormake.
# Topology bto, (3)-cn, num edge types: 1
# Building blocks:
#     Node 0, Type 0, BuildingBlock: WUSLED_clean_sbu_0, # of connection points: 3
#     Node 1, Type 0, BuildingBlock: WUSLED_clean_sbu_0, # of connection points: 3
#     Node 2, Type 0, BuildingBlock: WUSLED_clean_sbu_0, # of connection points: 3
#     Node 3, Type 0, BuildingBlock: WUSLED_clean_sbu_0, # of connection points: 3
#     Node 4, Type 0, BuildingBlock: WUSLED_clean_sbu_0, # of connection points: 3
#     Node 5, Type 0, BuildingBlock: WUSLED_clean_sbu_0, # of connection points: 3
#     Edge 6, Type (0, 0), BuildingBlock: XIVTED_clean_linker_0, # of connection points: 2
#     Edge 7, Type (0, 0), BuildingBlock: XIVTED_clean_linker_0, # of connection points: 2
#     Edge 8, Type (0, 0), BuildingBlock: XIVTED_clean_linker_0, # of connection points: 2
#     Edge 9, Type (0, 0), BuildingBlock: XIVTED_clean_linker_0, # of connection points: 2
#     Edge 10, Type (0, 0), BuildingBlock: XIVTED_clean_linker_0, # of connection points: 2
#     Edge 11, Type (0, 0), BuildingBlock: XIVTED_clean_linker_0, # of connection points: 2
#     Edge 12, Type (0, 0), BuildingBlock: XIVTED_clean_linker_0, # of connection points: 2
#     Edge 13, Type (0, 0), BuildingBlock: XIVTED_clean_linker_0, # of connection points: 2
#     Edge 14, Type (0, 0), BuildingBlock: XIVTED_clean_linker_0, # of connection points: 2
# Relax obj value: 0.000
# Max RMSD: 0.003
# Mean RMSD: 0.003
data_MOF--net-bto--node1-WUSLED_clean_sbu_0--edge1-XIVTED_clean_linker_0
_symmetry_space_group_name_H-M    P1
_symmetry_Int_Tables_number       1
_symmetry_cell_setting            triclinic
loop_
_symmetry_equiv_pos_as_xyz
'x, y, z'
_cell_length_a     40.780581
_cell_length_b     40.777601
_cell_length_c     102.20147
_cell_angle_alpha  89.13762
_cell_angle_beta   90.455405
_cell_angle_gamma 119.84988
loop_
_atom_site_label
_atom_site_type_symbol
_atom_site_fract_x
_atom_site_fract_y
_atom_site_fract_z
_atom_type_partial_charge
C0 C 0.98002 0.53157 0.04491 0.0
C1 C 0.9501 0.52345 0.05348 0.0
C2 C 0.91401 0.53086 0.03558 0.0
C3 C 0.91737 0.52301 0.04885 0.0
C4 C 0.94426 0.53908 0.02709 0.0
C5 C 0.97682 0.53942 0.03171 0.0
U6 U 0.048 0.53297 0.0717 0.0
O7 O 0.08027 0.5029 0.07258 0.0
O8 O 0.11037 0.56494 0.07208 0.0
C9 C 0.11317 0.53421 0.07179 0.0
C10 C 1.01469 0.53189 0.04941 0.0
C11 C 0.14114 0.53464 0.06253 0.0
C12 C 0.15761 0.51258 0.04294 0.0
C13 C 0.13027 0.5131 0.05106 0.0
C14 C 0.207 0.55565 0.05746 0.0
C15 C 0.19638 0.53371 0.04607 0.0
C16 C 0.17971 0.55604 0.06558 0.0
C17 C 1.02319 0.53466 0.10815 0.0
C18 C 0.05282 0.52357 0.1272 0.0
C19 C 1.00897 0.54666 0.13004 0.0
C20 C 1.00399 0.54641 0.11648 0.0
C21 C 0.03333 0.53511 0.13562 0.0
C22 C 0.04785 0.52342 0.11358 0.0
C23 C 1.01614 0.53369 0.09392 0.0
O24 O 0.04033 0.56318 0.05495 0.0
O25 O 1.00987 0.5012 0.05552 0.0
O26 O 1.00877 0.50248 0.0879 0.0
O27 O 0.03882 0.56448 0.08724 0.0
H28 H 0.95207 0.51747 0.06373 0.0
H29 H 0.8949 0.51698 0.05571 0.0
H30 H 0.94258 0.5447 1.01679 0.0
H31 H 0.99955 0.54566 0.02492 0.0
H32 H 0.14838 0.49574 0.03417 0.0
H33 H 0.10069 0.49642 0.04845 0.0
H34 H 0.23643 0.57187 0.06032 0.0
H35 H 0.18877 0.57271 0.0744 0.0
H36 H 0.0721 0.51488 0.13112 0.0
H37 H 0.99302 0.55515 0.13618 0.0
H38 H 0.98472 0.55505 0.11249 0.0
H39 H 0.06308 0.51438 0.10731 0.0
C40 C 0.61349 0.10224 0.37755 0.0
C41 C 0.64244 0.12478 0.38632 0.0
C42 C 0.6793 0.1679 0.36849 0.0
C43 C 0.67503 0.1573 0.38184 0.0
C44 C 0.64989 0.14527 0.35981 0.0
C45 C 0.61742 0.11285 0.36429 0.0
U46 U 0.54594 0.0344 0.40408 0.0
O47 O 0.48377 1.00172 0.40421 0.0
O48 O 0.51622 0.97202 0.40496 0.0
C49 C 0.48262 0.96891 0.40407 0.0
C50 C 0.57926 0.06735 0.38189 0.0
C51 C 0.45565 0.94041 0.39485 0.0
C52 C 0.41969 0.92279 0.37449 0.0
C53 C 0.44726 0.95048 0.38259 0.0
C54 C 0.40914 0.87463 0.39069 0.0
C55 C 0.39993 0.88449 0.3785 0.0
C56 C 0.4366 0.90225 0.39875 0.0
C57 C 0.56917 0.06075 0.44062 0.0
C58 C 0.54565 0.01919 0.45978 0.0
C59 C 0.5788 0.08709 0.46244 0.0
C60 C 0.58317 0.09204 0.44887 0.0
C61 C 0.56038 0.05062 0.46813 0.0
C62 C 0.55001 0.02421 0.44616 0.0
C63 C 0.57633 0.06728 0.4264 0.0
O64 O 0.585 0.04212 0.38805 0.0
O65 O 0.55269 0.07189 0.3873 0.0
O66 O 0.5528 0.0742 0.41967 0.0
O67 O 0.58545 0.04472 0.42034 0.0
H68 H 0.63996 0.11706 0.39661 0.0
H69 H 0.69716 0.17374 0.38881 0.0
H70 H 0.65173 0.15278 0.34952 0.0
H71 H 0.59533 0.09593 0.35737 0.0
H72 H 0.41322 0.93157 0.36524 0.0
H73 H 0.46157 0.97976 0.37935 0.0
H74 H 0.39517 0.84545 0.39403 0.0
H75 H 0.44266 0.8938 0.40815 0.0
H76 H 0.53157 0.9907 0.46378 0.0
H77 H 0.58986 0.11197 0.46849 0.0
H78 H 0.59791 0.12048 0.4448 0.0
H79 H 0.53891 0.99959 0.43998 0.0
C80 C 0.54302 0.59478 0.71137 0.0
C81 C 0.53152 0.61467 0.71949 0.0
C82 C 0.54278 0.66036 0.70186 0.0
C83 C 0.53141 0.64715 0.71479 0.0
C84 C 0.55482 0.64052 0.69388 0.0
C85 C 0.55489 0.60814 0.69858 0.0
U86 U 0.54221 0.52508 0.73773 0.0
O87 O 0.5094 0.46269 0.73806 0.0
O88 O 0.57139 0.49196 0.73758 0.0
C89 C 0.53973 0.45934 0.73714 0.0
C90 C 0.54202 0.55958 0.71577 0.0
C91 C 0.53798 0.43133 0.72769 0.0
C92 C 0.558 0.41475 0.70763 0.0
C93 C 0.55833 0.44214 0.71588 0.0
C94 C 0.5164 0.36543 0.72273 0.0
C95 C 0.53722 0.376 0.71099 0.0
C96 C 0.51684 0.39277 0.73096 0.0
C97 C 0.5461 0.548 0.77469 0.0
C98 C 0.51391 0.51895 0.79526 0.0
C99 C 0.58125 0.56267 0.79524 0.0
C100 C 0.58024 0.56742 0.78167 0.0
C101 C 0.54805 0.53859 0.80225 0.0
C102 C 0.51291 0.52362 0.78167 0.0
C103 C 0.54506 0.55596 0.76046 0.0
O104 O 0.57302 0.56353 0.72125 0.0
O105 O 0.51106 0.53437 0.72177 0.0
O106 O 0.51336 0.53455 0.75415 0.0
O107 O 0.57528 0.56368 0.7536 0.0
H108 H 0.52224 0.60485 0.72941 0.0
H109 H 0.52166 0.66144 0.72119 0.0
H110 H 0.56446 0.65012 0.68398 0.0
H111 H 0.56404 0.59332 0.69217 0.0
H112 H 0.57398 0.42394 0.6986 0.0
H113 H 0.57481 0.47173 0.7131 0.0
H114 H 0.50049 0.33603 0.72576 0.0
H115 H 0.50112 0.38376 0.74005 0.0
H116 H 0.48785 0.49987 0.80029 0.0
H117 H 0.60796 0.57876 0.80028 0.0
H118 H 0.60619 0.58696 0.77666 0.0
H119 H 0.48599 0.50849 0.77667 0.0
C120 C 0.53998 0.95783 0.65709 0.0
C121 C 0.55109 0.93757 0.64899 0.0
C122 C 0.54001 0.89229 0.66675 0.0
C123 C 0.55111 0.90512 0.65377 0.0
C124 C 0.52839 0.91253 0.67471 0.0
C125 C 0.52842 0.94489 0.66993 0.0
U126 U 0.54144 0.02656 0.63031 0.0
O127 O 0.51235 0.05978 0.62989 0.0
O128 O 0.57435 0.08894 0.62964 0.0
C129 C 0.54404 0.09239 0.63031 0.0
C130 C 0.541 0.99293 0.65255 0.0
C131 C 0.54556 0.12066 0.63959 0.0
C132 C 0.52575 0.1377 0.6596 0.0
C133 C 0.52552 0.11014 0.65146 0.0
C134 C 0.56665 0.18663 0.64425 0.0
C135 C 0.54615 0.17634 0.65606 0.0
C136 C 0.56629 0.15911 0.63613 0.0
C137 C 0.53904 1.00147 0.59378 0.0
C138 C 0.55453 0.04422 0.57503 0.0
C139 C 0.52506 0.97676 0.57167 0.0
C140 C 0.5245 0.97086 0.58521 0.0
C141 C 0.54027 1.01353 0.56637 0.0
C142 C 0.55383 0.03824 0.58861 0.0
C143 C 0.53928 0.99416 0.60798 0.0
O144 O 0.57212 0.01805 0.6466 0.0
O145 O 0.51016 0.9888 0.64688 0.0
O146 O 0.50882 0.98735 0.61449 0.0
O147 O 0.57078 0.01629 0.61427 0.0
H148 H 0.56012 0.94706 0.63903 0.0
H149 H 0.56057 0.89055 0.64738 0.0
H150 H 0.51897 0.90323 0.68465 0.0
H151 H 0.51957 0.96001 0.67632 0.0
H152 H 0.51004 0.12874 0.66868 0.0
H153 H 0.50938 0.08064 0.65439 0.0
H154 H 0.58225 0.21594 0.64109 0.0
H155 H 0.58178 0.16788 0.62699 0.0
H156 H 0.56603 0.07287 0.57132 0.0
H157 H 0.51433 0.95249 0.56535 0.0
H158 H 0.51308 0.94227 0.589 0.0
H159 H 0.56506 0.0623 0.59506 0.0
C160 C 0.61092 0.52176 0.99164 0.0
C161 C 0.64079 0.52999 0.98304 0.0
C162 C 0.67686 0.52209 1.00084 0.0
C163 C 0.67349 0.53024 0.9876 0.0
C164 C 0.64664 0.51373 1.00936 0.0
C165 C 0.61411 0.51358 1.0048 0.0
U166 U 0.54282 0.52147 0.96507 0.0
O167 O 0.48044 0.48978 0.96481 0.0
O168 O 0.5108 0.55182 0.96452 0.0
C169 C 0.47782 0.52059 0.96527 0.0
C170 C 0.57632 0.52173 0.98723 0.0
C171 C 0.44999 0.52002 0.97464 0.0
C172 C 0.43376 0.5421 0.99428 0.0
C173 C 0.46101 0.54166 0.98608 0.0
C174 C 0.38417 0.49875 0.97987 0.0
C175 C 0.39494 0.5208 0.99124 0.0
C176 C 0.41136 0.49843 0.97168 0.0
C177 C 0.56679 0.52059 0.92842 0.0
C178 C 0.5464 0.54145 0.9091 0.0
C179 C 0.57384 0.50117 0.9067 0.0
C180 C 0.578 0.50055 0.92029 0.0
C181 C 0.55843 0.52202 0.90088 0.0
C182 C 0.55053 0.54075 0.92274 0.0
C183 C 0.57402 0.52115 0.94266 0.0
O184 O 0.58125 0.55264 0.98126 0.0
O185 O 0.55054 0.49065 0.98161 0.0
O186 O 0.55147 0.49019 0.94929 0.0
O187 O 0.5819 0.55224 0.94888 0.0
H188 H 0.63883 0.53623 0.97281 0.0
H189 H 0.69594 0.53638 0.98071 0.0
H190 H 0.64833 0.50789 0.01964 0.0
H191 H 0.59142 0.50726 1.01161 0.0
H192 H 0.44311 0.55903 1.00302 0.0
H193 H 0.49063 0.5585 0.98862 0.0
H194 H 0.3547 0.48239 0.97709 0.0
H195 H 0.40218 0.48169 0.96288 0.0
H196 H 0.53468 0.55804 0.90499 0.0
H197 H 0.58273 0.48524 0.90076 0.0
H198 H 0.59048 0.48469 0.92446 0.0
H199 H 0.54159 0.55643 0.9288 0.0
C200 C 0.97915 0.46423 0.32462 0.0
C201 C 0.95022 0.44166 0.31584 0.0
C202 C 0.91324 0.39868 0.33368 0.0
C203 C 0.91758 0.4092 0.32033 0.0
C204 C 0.94261 0.42135 0.34237 0.0
C205 C 0.97513 0.45371 0.33788 0.0
U206 U 0.04701 0.53145 0.29805 0.0
O207 O 0.07694 0.59382 0.29701 0.0
O208 O 0.10919 0.56394 0.29796 0.0
C209 C 0.11047 0.59681 0.29798 0.0
C210 C 1.01347 0.49901 0.32027 0.0
C211 C 0.1374 0.62542 0.30719 0.0
C212 C 0.17327 0.64323 0.32756 0.0
C213 C 0.14574 0.61546 0.31948 0.0
C214 C 0.18387 0.69125 0.3113 0.0
C215 C 0.19303 0.6815 0.32352 0.0
C216 C 0.15646 0.66354 0.30325 0.0
C217 C 1.02388 0.50418 0.26159 0.0
C218 C 0.05204 0.5452 0.24253 0.0
C219 C 1.01122 0.47786 0.23971 0.0
C220 C 1.00623 0.47307 0.25327 0.0
C221 C 0.03403 0.514 0.23412 0.0
C222 C 0.04707 0.54033 0.25614 0.0
C223 C 1.01661 0.49803 0.2758 0.0
O224 O 0.04005 0.49429 0.31496 0.0
O225 O 1.00787 0.52418 0.31399 0.0
O226 O 1.0077 0.52096 0.2817 0.0
O227 O 0.04007 0.49122 0.28262 0.0
H228 H 0.95277 0.4493 0.30555 0.0
H229 H 0.89548 0.39274 0.31336 0.0
H230 H 0.94071 0.4139 0.35266 0.0
H231 H 0.99721 0.47065 0.34481 0.0
H232 H 0.1797 0.63453 0.33684 0.0
H233 H 0.13143 0.58621 0.32275 0.0
H234 H 0.19784 0.72039 0.30793 0.0
H235 H 0.15043 0.6719 0.29382 0.0
H236 H 0.07013 0.57337 0.2386 0.0
H237 H 0.99643 0.45325 0.23359 0.0
H238 H 0.9881 0.44496 0.25727 0.0
H239 H 0.06108 0.56475 0.26239 0.0
H240 H 0.03736 0.58678 0.15351 0.0
H241 H 0.04125 0.46814 0.21624 0.0
H242 H 0.03882 0.48196 0.15101 0.0
H243 H 0.03593 0.57095 0.21871 0.0
H244 H 0.04382 0.47452 0.19241 0.0
H245 H 0.04027 0.58322 0.17734 0.0
C246 C 0.03825 0.56295 0.15795 0.0
C247 C 0.03756 0.53448 0.15016 0.0
C248 C 0.04224 0.49578 0.19815 0.0
C249 C 0.04124 0.53042 0.1776 0.0
C250 C 0.04058 0.49207 0.2118 0.0
C251 C 0.0381 0.51891 0.21958 0.0
C252 C 0.04137 0.52656 0.19214 0.0
C253 C 0.03813 0.5497 0.21318 0.0
C254 C 0.0401 0.56105 0.17159 0.0
C255 C 0.03958 0.50475 0.15655 0.0
N256 N 0.03952 0.55255 0.19988 0.0
N257 N 0.04112 0.5034 0.16985 0.0
H258 H 0.48673 0.97128 0.54791 0.0
H259 H 0.61321 0.09271 0.48676 0.0
H260 H 0.59754 0.06959 0.55165 0.0
H261 H 0.50069 0.99704 0.48285 0.0
H262 H 0.60766 0.08476 0.51049 0.0
H263 H 0.49117 0.98016 0.52414 0.0
C264 C 0.51206 0.99471 0.54375 0.0
C265 C 0.54186 0.01964 0.55187 0.0
C266 C 0.58413 0.06552 0.50446 0.0
C267 C 0.54701 0.03013 0.52453 0.0
C268 C 0.58717 0.07016 0.49086 0.0
C269 C 0.5573 0.04564 0.48269 0.0
C270 C 0.55098 0.03603 0.51005 0.0
C271 C 0.52464 0.01644 0.48868 0.0
C272 C 0.51448 0.99986 0.53015 0.0
C273 C 0.57366 0.04986 0.54586 0.0
N274 N 0.52236 1.01249 0.50196 0.0
N275 N 0.57544 0.05414 0.53259 0.0
H276 H 0.50161 0.5219 0.88595 0.0
H277 H 0.60229 0.53485 0.81735 0.0
H278 H 0.60945 0.52696 0.88242 0.0
H279 H 0.49622 0.53364 0.82047 0.0
H280 H 0.60454 0.53075 0.84117 0.0
H281 H 0.49847 0.52534 0.86207 0.0
C282 C 0.52472 0.52389 0.88019 0.0
C283 C 0.55581 0.52402 0.8863 0.0
C284 C 0.58072 0.53134 0.83666 0.0
C285 C 0.55217 0.52761 0.85884 0.0
C286 C 0.5795 0.53386 0.82302 0.0
C287 C 0.54907 0.53472 0.81681 0.0
C288 C 0.55133 0.52969 0.84425 0.0
C289 C 0.52005 0.53264 0.82476 0.0
C290 C 0.52278 0.52564 0.86653 0.0
C291 C 0.5846 0.52613 0.87822 0.0
N292 N 0.52196 0.53033 0.83803 0.0
N293 N 0.58208 0.52786 0.86497 0.0
H294 H 0.26698 0.59205 0.03935 0.0
H295 H 0.32452 0.46237 0.9981 0.0
H296 H 0.19293 0.47249 0.03369 0.0
H297 H 0.3984 0.58203 1.00362 0.0
H298 H 0.27618 0.46552 1.01112 0.0
H299 H 0.31539 0.58888 0.02638 0.0
C300 C 0.26086 0.56506 0.03543 0.0
C301 C 0.22567 0.53246 0.03769 0.0
C302 C 0.30297 0.4911 1.0095 0.0
C303 C 0.28122 0.5287 0.02267 0.0
C304 C 0.33061 0.48938 1.002 0.0
C305 C 0.36574 0.52202 0.99967 0.0
C306 C 0.31026 0.52574 1.01475 0.0
C307 C 0.37203 0.55602 1.00524 0.0
C308 C 0.28855 0.56332 0.02795 0.0
C309 C 0.21935 0.49848 0.03211 0.0
N310 N 0.3446 0.55699 1.01246 0.0
N311 N 0.24682 0.49748 0.02491 0.0
H312 H 0.72089 0.23711 0.38032 0.0
H313 H 0.87167 0.32944 0.32188 0.0
H314 H 0.71761 0.17727 0.34541 0.0
H315 H 0.87484 0.38938 0.35674 0.0
H316 H 0.81503 0.27369 0.33024 0.0
H317 H 0.77751 0.29289 0.37195 0.0
C318 C 0.73212 0.23553 0.37093 0.0
C319 C 0.71418 0.20223 0.36358 0.0
C320 C 0.82812 0.29904 0.33607 0.0
C321 C 0.7791 0.26649 0.35383 0.0
C322 C 0.86041 0.33105 0.33125 0.0
C323 C 0.87833 0.36438 0.33859 0.0
C324 C 0.81338 0.30014 0.34834 0.0
C325 C 0.86251 0.3643 0.35079 0.0
C326 C 0.7644 0.26756 0.36611 0.0
C327 C 0.72996 0.20234 0.35137 0.0
N328 N 0.83107 0.33281 0.35526 0.0
N329 N 0.76139 0.23384 0.34691 0.0
H330 H 0.56088 0.88107 0.69137 0.0
H331 H 0.52203 0.67169 0.67725 0.0
H332 H 0.52109 0.8256 0.65427 0.0
H333 H 0.56111 0.72676 0.71445 0.0
H334 H 0.52182 0.7278 0.66868 0.0
H335 H 0.56094 0.82491 0.69998 0.0
C336 C 0.55192 0.85704 0.68502 0.0
C337 C 0.5408 0.85825 0.67204 0.0
C338 C 0.53044 0.72765 0.67872 0.0
C339 C 0.54128 0.79363 0.68188 0.0
C340 C 0.5308 0.69562 0.68362 0.0
C341 C 0.54179 0.69434 0.69662 0.0
C342 C 0.54114 0.75891 0.68683 0.0
C343 C 0.55206 0.72613 0.70443 0.0
C344 C 0.55219 0.82499 0.68995 0.0
C345 C 0.53027 0.82632 0.66428 0.0
N346 N 0.55156 0.75704 0.69941 0.0
N347 N 0.53071 0.79541 0.66931 0.0
H348 H 0.90878 0.57893 1.01757 0.0
H349 H 0.68209 0.47371 0.01871 0.0
H350 H 0.83959 0.48155 0.042 0.0
H351 H 0.75129 0.57144 0.99442 0.0
H352 H 0.73931 0.4761 0.0273 0.0
H353 H 0.85155 0.57645 1.00893 0.0
C354 C 0.88157 0.55688 0.02109 0.0
C355 C 0.8792 0.53032 0.03053 0.0
C356 C 0.74203 0.49703 0.02009 0.0
C357 C 0.8132 0.52753 0.0207 0.0
C358 C 0.70929 0.49581 1.01521 0.0
C359 C 0.71167 0.52251 1.00583 0.0
C360 C 0.77767 0.52518 1.01561 0.0
C361 C 0.74787 0.54999 1.00152 0.0
C362 C 0.84884 0.55561 1.01619 0.0
C363 C 0.843 0.50289 0.03486 0.0
N364 N 0.77933 0.55066 1.00645 0.0
N365 N 0.81154 0.50217 0.0299 0.0
H366 H 0.39785 0.87787 0.35163 0.0
H367 H 0.19502 0.68829 0.35038 0.0
H368 H 0.33224 0.82348 0.38629 0.0
H369 H 0.26072 0.74252 0.31572 0.0
H370 H 0.24508 0.73726 0.36368 0.0
H371 H 0.34774 0.82895 0.33832 0.0
C372 C 0.37288 0.85581 0.35646 0.0
C373 C 0.36952 0.85494 0.37016 0.0
C374 C 0.24854 0.73847 0.35316 0.0
C375 C 0.31192 0.79835 0.3549 0.0
C376 C 0.22 0.71032 0.34554 0.0
C377 C 0.2234 0.71112 0.33185 0.0
C378 C 0.28095 0.76779 0.3471 0.0
C379 C 0.25638 0.74088 0.3262 0.0
C380 C 0.34431 0.8277 0.34884 0.0
C381 C 0.33655 0.82516 0.37581 0.0
N382 N 0.28375 0.76789 0.33382 0.0
N383 N 0.30916 0.79819 0.36819 0.0
H384 H 0.60468 0.24756 0.66164 0.0
H385 H 0.47851 0.30512 0.70512 0.0
H386 H 0.48619 0.17273 0.66956 0.0
H387 H 0.59727 0.3796 0.69755 0.0
H388 H 0.48074 0.25654 0.69208 0.0
H389 H 0.60243 0.29626 0.67463 0.0
C390 C 0.57812 0.24133 0.66607 0.0
C391 C 0.54554 0.20583 0.66443 0.0
C392 C 0.50632 0.28351 0.69325 0.0
C393 C 0.54285 0.26171 0.67946 0.0
C394 C 0.50513 0.3113 0.70076 0.0
C395 C 0.53779 0.34666 0.70252 0.0
C396 C 0.54045 0.2909 0.6874 0.0
C397 C 0.57125 0.35304 0.69638 0.0
C398 C 0.57691 0.26918 0.67354 0.0
C399 C 0.51215 0.1994 0.67064 0.0
N400 N 0.57172 0.32548 0.68915 0.0
N401 N 0.51166 0.22702 0.67782 0.0
loop_
_geom_bond_atom_site_label_1
_geom_bond_atom_site_label_2
_geom_bond_distance
_geom_bond_site_symmetry_2
_ccdc_geom_bond_type
C0 C1 1.264 . S
C0 C5 1.479 . S
C0 C10 1.465 . S
C1 C0 1.264 . S
C1 C3 1.339 . S
C1 H28 0.931 . S
C2 C3 1.395 . S
C2 C4 1.320 . S
C3 C1 1.339 . S
C3 C2 1.395 . S
C3 H29 0.929 . S
C4 C2 1.320 . S
C4 C5 1.405 . S
C4 H30 0.930 . S
C5 C0 1.479 . S
C5 C4 1.405 . S
C5 H31 0.931 . S
U6 O7 2.454 . S
U6 O8 2.458 . S
U6 C9 2.984 . S
U6 C10 2.847 1_455 S
U6 C23 2.882 . S
U6 O24 2.441 1_455 S
U6 O25 2.420 1_455 S
U6 O26 2.455 . S
U6 O27 2.449 1_455 S
O7 U6 2.454 . S
O7 C9 1.353 . S
O8 U6 2.458 . S
O8 C9 1.286 . S
C9 U6 2.984 . S
C9 O7 1.353 . S
C9 O8 1.286 . S
C9 C11 1.363 . S
C10 C0 1.465 . S
C10 U6 2.847 1_655 S
C10 O24 1.249 . S
C10 O25 1.202 . S
C11 C9 1.363 . S
C11 C13 1.408 . S
C11 C16 1.342 . S
C12 C13 1.310 . S
C12 C15 1.461 . S
C12 H32 0.932 . S
C13 C11 1.408 . S
C13 C12 1.310 . S
C13 H33 0.930 . S
C14 C15 1.474 . S
C14 C16 1.285 . S
C14 H34 0.929 . S
C15 C12 1.461 . S
C15 C14 1.474 . S
C16 C11 1.342 . S
C16 C14 1.285 . S
C16 H35 0.930 . S
C17 C20 1.424 1_455 S
C17 C22 1.245 . S
C17 C23 1.428 . S
C18 C21 1.260 . S
C18 C22 1.477 . S
C18 H36 0.932 . S
C19 C20 1.384 . S
C19 C21 1.479 1_655 S
C19 H37 0.929 . S
C20 C17 1.424 1_655 S
C20 C19 1.384 . S
C20 H38 0.928 . S
C21 C18 1.260 . S
C21 C19 1.479 1_455 S
C22 C17 1.245 . S
C22 C18 1.477 . S
C22 H39 0.932 . S
C23 U6 2.882 . S
C23 C17 1.428 . S
C23 O26 1.301 . S
C23 O27 1.282 1_455 S
O24 U6 2.441 1_655 S
O24 C10 1.249 . S
O25 U6 2.420 1_655 S
O25 C10 1.202 . S
O26 U6 2.455 . S
O26 C23 1.301 . S
O27 U6 2.449 1_655 S
O27 C23 1.282 1_655 S
H28 C1 0.931 . S
H29 C3 0.929 . S
H30 C4 0.930 . S
H31 C5 0.931 . S
H32 C12 0.932 . S
H33 C13 0.930 . S
H34 C14 0.929 . S
H35 C16 0.930 . S
H36 C18 0.932 . S
H37 C19 0.929 . S
H38 C20 0.928 . S
H39 C22 0.932 . S
C40 C41 1.264 . S
C40 C45 1.479 . S
C40 C50 1.465 . S
C41 C40 1.264 . S
C41 C43 1.339 . S
C41 H68 0.931 . S
C42 C43 1.395 . S
C42 C44 1.320 . S
C43 C41 1.339 . S
C43 C42 1.395 . S
C43 H69 0.929 . S
C44 C42 1.320 . S
C44 C45 1.405 . S
C44 H70 0.930 . S
C45 C40 1.479 . S
C45 C44 1.405 . S
C45 H71 0.931 . S
U46 O47 2.454 1_545 S
U46 O48 2.458 1_545 S
U46 C49 2.984 1_545 S
U46 C50 2.847 . S
U46 C63 2.882 . S
U46 O64 2.441 . S
U46 O65 2.420 . S
U46 O66 2.455 . S
U46 O67 2.449 . S
O47 U46 2.454 1_565 S
O47 C49 1.353 . S
O48 U46 2.458 1_565 S
O48 C49 1.286 . S
C49 U46 2.984 1_565 S
C49 O47 1.353 . S
C49 O48 1.286 . S
C49 C51 1.363 . S
C50 C40 1.465 . S
C50 U46 2.847 . S
C50 O64 1.249 . S
C50 O65 1.202 . S
C51 C49 1.363 . S
C51 C53 1.408 . S
C51 C56 1.342 . S
C52 C53 1.310 . S
C52 C55 1.461 . S
C52 H72 0.932 . S
C53 C51 1.408 . S
C53 C52 1.310 . S
C53 H73 0.930 . S
C54 C55 1.474 . S
C54 C56 1.285 . S
C54 H74 0.929 . S
C55 C52 1.461 . S
C55 C54 1.474 . S
C56 C51 1.342 . S
C56 C54 1.285 . S
C56 H75 0.930 . S
C57 C60 1.424 . S
C57 C62 1.246 1_545 S
C57 C63 1.428 . S
C58 C61 1.260 . S
C58 C62 1.477 1_545 S
C58 H76 0.932 1_545 S
C59 C60 1.384 . S
C59 C61 1.479 . S
C59 H77 0.929 . S
C60 C57 1.424 . S
C60 C59 1.384 . S
C60 H78 0.928 . S
C61 C58 1.260 . S
C61 C59 1.479 . S
C62 C57 1.246 1_565 S
C62 C58 1.477 1_565 S
C62 H79 0.931 . S
C63 U46 2.882 . S
C63 C57 1.428 . S
C63 O66 1.301 . S
C63 O67 1.282 . S
O64 U46 2.441 . S
O64 C50 1.249 . S
O65 U46 2.420 . S
O65 C50 1.202 . S
O66 U46 2.455 . S
O66 C63 1.301 . S
O67 U46 2.449 . S
O67 C63 1.282 . S
H68 C41 0.931 . S
H69 C43 0.929 . S
H70 C44 0.930 . S
H71 C45 0.931 . S
H72 C52 0.932 . S
H73 C53 0.930 . S
H74 C54 0.929 . S
H75 C56 0.930 . S
H76 C58 0.932 1_565 S
H77 C59 0.929 . S
H78 C60 0.928 . S
H79 C62 0.931 . S
C80 C81 1.264 . S
C80 C85 1.479 . S
C80 C90 1.465 . S
C81 C80 1.264 . S
C81 C83 1.339 . S
C81 H108 0.931 . S
C82 C83 1.395 . S
C82 C84 1.320 . S
C83 C81 1.339 . S
C83 C82 1.395 . S
C83 H109 0.929 . S
C84 C82 1.320 . S
C84 C85 1.405 . S
C84 H110 0.930 . S
C85 C80 1.479 . S
C85 C84 1.405 . S
C85 H111 0.931 . S
U86 O87 2.454 . S
U86 O88 2.458 . S
U86 C89 2.984 . S
U86 C90 2.847 . S
U86 C103 2.882 . S
U86 O104 2.441 . S
U86 O105 2.420 . S
U86 O106 2.455 . S
U86 O107 2.449 . S
O87 U86 2.454 . S
O87 C89 1.353 . S
O88 U86 2.458 . S
O88 C89 1.286 . S
C89 U86 2.984 . S
C89 O87 1.353 . S
C89 O88 1.286 . S
C89 C91 1.363 . S
C90 C80 1.465 . S
C90 U86 2.847 . S
C90 O104 1.249 . S
C90 O105 1.202 . S
C91 C89 1.363 . S
C91 C93 1.408 . S
C91 C96 1.342 . S
C92 C93 1.310 . S
C92 C95 1.461 . S
C92 H112 0.932 . S
C93 C91 1.408 . S
C93 C92 1.310 . S
C93 H113 0.930 . S
C94 C95 1.474 . S
C94 C96 1.285 . S
C94 H114 0.929 . S
C95 C92 1.461 . S
C95 C94 1.474 . S
C96 C91 1.342 . S
C96 C94 1.285 . S
C96 H115 0.930 . S
C97 C100 1.424 . S
C97 C102 1.245 . S
C97 C103 1.428 . S
C98 C101 1.260 . S
C98 C102 1.477 . S
C98 H116 0.932 . S
C99 C100 1.384 . S
C99 C101 1.479 . S
C99 H117 0.929 . S
C100 C97 1.424 . S
C100 C99 1.384 . S
C100 H118 0.928 . S
C101 C98 1.260 . S
C101 C99 1.479 . S
C102 C97 1.245 . S
C102 C98 1.477 . S
C102 H119 0.932 . S
C103 U86 2.882 . S
C103 C97 1.428 . S
C103 O106 1.301 . S
C103 O107 1.282 . S
O104 U86 2.441 . S
O104 C90 1.249 . S
O105 U86 2.420 . S
O105 C90 1.202 . S
O106 U86 2.455 . S
O106 C103 1.301 . S
O107 U86 2.449 . S
O107 C103 1.282 . S
H108 C81 0.931 . S
H109 C83 0.929 . S
H110 C84 0.930 . S
H111 C85 0.931 . S
H112 C92 0.932 . S
H113 C93 0.930 . S
H114 C94 0.929 . S
H115 C96 0.930 . S
H116 C98 0.932 . S
H117 C99 0.929 . S
H118 C100 0.928 . S
H119 C102 0.932 . S
C120 C121 1.264 . S
C120 C125 1.479 . S
C120 C130 1.465 . S
C121 C120 1.264 . S
C121 C123 1.339 . S
C121 H148 0.931 . S
C122 C123 1.395 . S
C122 C124 1.320 . S
C123 C121 1.339 . S
C123 C122 1.395 . S
C123 H149 0.929 . S
C124 C122 1.320 . S
C124 C125 1.405 . S
C124 H150 0.930 . S
C125 C120 1.479 . S
C125 C124 1.405 . S
C125 H151 0.931 . S
U126 O127 2.454 . S
U126 O128 2.458 . S
U126 C129 2.984 . S
U126 C130 2.847 1_545 S
U126 C143 2.882 . S
U126 O144 2.441 1_545 S
U126 O145 2.420 1_545 S
U126 O146 2.455 . S
U126 O147 2.449 1_545 S
O127 U126 2.454 . S
O127 C129 1.353 . S
O128 U126 2.458 . S
O128 C129 1.286 . S
C129 U126 2.984 . S
C129 O127 1.353 . S
C129 O128 1.286 . S
C129 C131 1.363 . S
C130 C120 1.465 . S
C130 U126 2.847 1_565 S
C130 O144 1.249 . S
C130 O145 1.202 . S
C131 C129 1.363 . S
C131 C133 1.408 . S
C131 C136 1.342 . S
C132 C133 1.310 . S
C132 C135 1.461 . S
C132 H152 0.932 . S
C133 C131 1.408 . S
C133 C132 1.310 . S
C133 H153 0.930 . S
C134 C135 1.474 . S
C134 C136 1.285 . S
C134 H154 0.929 . S
C135 C132 1.461 . S
C135 C134 1.474 . S
C136 C131 1.342 . S
C136 C134 1.285 . S
C136 H155 0.930 . S
C137 C140 1.424 1_545 S
C137 C142 1.245 . S
C137 C143 1.428 . S
C138 C141 1.260 . S
C138 C142 1.477 . S
C138 H156 0.932 . S
C139 C140 1.384 . S
C139 C141 1.479 1_565 S
C139 H157 0.929 . S
C140 C137 1.424 1_565 S
C140 C139 1.384 . S
C140 H158 0.928 . S
C141 C138 1.260 . S
C141 C139 1.479 1_545 S
C142 C137 1.245 . S
C142 C138 1.477 . S
C142 H159 0.932 . S
C143 U126 2.882 . S
C143 C137 1.428 . S
C143 O146 1.301 . S
C143 O147 1.282 1_545 S
O144 U126 2.441 1_565 S
O144 C130 1.249 . S
O145 U126 2.420 1_565 S
O145 C130 1.202 . S
O146 U126 2.455 . S
O146 C143 1.301 . S
O147 U126 2.449 1_565 S
O147 C143 1.282 1_565 S
H148 C121 0.931 . S
H149 C123 0.929 . S
H150 C124 0.930 . S
H151 C125 0.931 . S
H152 C132 0.932 . S
H153 C133 0.930 . S
H154 C134 0.929 . S
H155 C136 0.930 . S
H156 C138 0.932 . S
H157 C139 0.929 . S
H158 C140 0.928 . S
H159 C142 0.932 . S
C160 C161 1.264 . S
C160 C165 1.479 . S
C160 C170 1.465 . S
C161 C160 1.264 . S
C161 C163 1.339 . S
C161 H188 0.931 . S
C162 C163 1.395 . S
C162 C164 1.320 . S
C163 C161 1.339 . S
C163 C162 1.395 . S
C163 H189 0.929 . S
C164 C162 1.320 . S
C164 C165 1.405 . S
C164 H190 0.930 . S
C165 C160 1.479 . S
C165 C164 1.405 . S
C165 H191 0.931 . S
U166 O167 2.454 . S
U166 O168 2.458 . S
U166 C169 2.984 . S
U166 C170 2.847 . S
U166 C183 2.882 . S
U166 O184 2.441 . S
U166 O185 2.420 . S
U166 O186 2.455 . S
U166 O187 2.449 . S
O167 U166 2.454 . S
O167 C169 1.353 . S
O168 U166 2.458 . S
O168 C169 1.286 . S
C169 U166 2.984 . S
C169 O167 1.353 . S
C169 O168 1.286 . S
C169 C171 1.363 . S
C170 C160 1.465 . S
C170 U166 2.847 . S
C170 O184 1.249 . S
C170 O185 1.202 . S
C171 C169 1.363 . S
C171 C173 1.408 . S
C171 C176 1.342 . S
C172 C173 1.310 . S
C172 C175 1.461 . S
C172 H192 0.932 . S
C173 C171 1.408 . S
C173 C172 1.310 . S
C173 H193 0.930 . S
C174 C175 1.474 . S
C174 C176 1.285 . S
C174 H194 0.929 . S
C175 C172 1.461 . S
C175 C174 1.474 . S
C176 C171 1.342 . S
C176 C174 1.285 . S
C176 H195 0.930 . S
C177 C180 1.424 . S
C177 C182 1.245 . S
C177 C183 1.428 . S
C178 C181 1.260 . S
C178 C182 1.477 . S
C178 H196 0.932 . S
C179 C180 1.384 . S
C179 C181 1.479 . S
C179 H197 0.929 . S
C180 C177 1.424 . S
C180 C179 1.384 . S
C180 H198 0.928 . S
C181 C178 1.260 . S
C181 C179 1.479 . S
C182 C177 1.245 . S
C182 C178 1.477 . S
C182 H199 0.932 . S
C183 U166 2.882 . S
C183 C177 1.428 . S
C183 O186 1.301 . S
C183 O187 1.282 . S
O184 U166 2.441 . S
O184 C170 1.249 . S
O185 U166 2.420 . S
O185 C170 1.202 . S
O186 U166 2.455 . S
O186 C183 1.301 . S
O187 U166 2.449 . S
O187 C183 1.282 . S
H188 C161 0.931 . S
H189 C163 0.929 . S
H190 C164 0.930 . S
H191 C165 0.931 . S
H192 C172 0.932 . S
H193 C173 0.930 . S
H194 C174 0.929 . S
H195 C176 0.930 . S
H196 C178 0.932 . S
H197 C179 0.929 . S
H198 C180 0.928 . S
H199 C182 0.932 . S
C200 C201 1.264 . S
C200 C205 1.479 . S
C200 C210 1.465 . S
C201 C200 1.264 . S
C201 C203 1.339 . S
C201 H228 0.931 . S
C202 C203 1.395 . S
C202 C204 1.320 . S
C203 C201 1.339 . S
C203 C202 1.395 . S
C203 H229 0.929 . S
C204 C202 1.320 . S
C204 C205 1.405 . S
C204 H230 0.930 . S
C205 C200 1.479 . S
C205 C204 1.405 . S
C205 H231 0.931 . S
U206 O207 2.454 . S
U206 O208 2.458 . S
U206 C209 2.984 . S
U206 C210 2.847 1_455 S
U206 C223 2.882 . S
U206 O224 2.441 1_455 S
U206 O225 2.420 1_455 S
U206 O226 2.455 . S
U206 O227 2.449 1_455 S
O207 U206 2.454 . S
O207 C209 1.353 . S
O208 U206 2.458 . S
O208 C209 1.286 . S
C209 U206 2.984 . S
C209 O207 1.353 . S
C209 O208 1.286 . S
C209 C211 1.363 . S
C210 C200 1.465 . S
C210 U206 2.847 1_655 S
C210 O224 1.249 . S
C210 O225 1.202 . S
C211 C209 1.363 . S
C211 C213 1.408 . S
C211 C216 1.342 . S
C212 C213 1.310 . S
C212 C215 1.461 . S
C212 H232 0.932 . S
C213 C211 1.408 . S
C213 C212 1.310 . S
C213 H233 0.930 . S
C214 C215 1.474 . S
C214 C216 1.285 . S
C214 H234 0.929 . S
C215 C212 1.461 . S
C215 C214 1.474 . S
C216 C211 1.342 . S
C216 C214 1.285 . S
C216 H235 0.930 . S
C217 C220 1.424 1_455 S
C217 C222 1.245 . S
C217 C223 1.428 . S
C218 C221 1.260 . S
C218 C222 1.477 . S
C218 H236 0.932 . S
C219 C220 1.384 . S
C219 C221 1.479 1_655 S
C219 H237 0.929 . S
C220 C217 1.424 1_655 S
C220 C219 1.384 . S
C220 H238 0.928 . S
C221 C218 1.260 . S
C221 C219 1.479 1_455 S
C222 C217 1.245 . S
C222 C218 1.477 . S
C222 H239 0.932 . S
C223 U206 2.882 . S
C223 C217 1.428 . S
C223 O226 1.301 . S
C223 O227 1.282 1_455 S
O224 U206 2.441 1_655 S
O224 C210 1.249 . S
O225 U206 2.420 1_655 S
O225 C210 1.202 . S
O226 U206 2.455 . S
O226 C223 1.301 . S
O227 U206 2.449 1_655 S
O227 C223 1.282 1_655 S
H228 C201 0.931 . S
H229 C203 0.929 . S
H230 C204 0.930 . S
H231 C205 0.931 . S
H232 C212 0.932 . S
H233 C213 0.930 . S
H234 C214 0.929 . S
H235 C216 0.930 . S
H236 C218 0.932 . S
H237 C219 0.929 . S
H238 C220 0.928 . S
H239 C222 0.932 . S
H240 C246 0.930 . S
H241 C250 0.930 . S
H242 C255 0.929 . S
H243 C253 0.929 . S
H244 C248 0.929 . S
H245 C254 0.929 . S
C246 H240 0.930 . S
C246 C247 1.367 . S
C246 C254 1.378 . S
C247 C246 1.367 . S
C247 C255 1.433 . S
C248 H244 0.929 . S
C248 C250 1.378 . S
C248 C252 1.350 . S
C249 C252 1.463 . S
C249 C254 1.350 . S
C249 N257 1.427 . S
C250 H241 0.930 . S
C250 C248 1.378 . S
C250 C251 1.367 . S
C251 C250 1.367 . S
C251 C253 1.433 . S
C252 C248 1.350 . S
C252 C249 1.463 . S
C252 N256 1.427 . S
C253 H243 0.929 . S
C253 C251 1.433 . S
C253 N256 1.384 . S
C254 H245 0.929 . S
C254 C246 1.378 . S
C254 C249 1.350 . S
C255 H242 0.929 . S
C255 C247 1.433 . S
C255 N257 1.384 . S
N256 C252 1.427 . S
N256 C253 1.384 . S
N257 C249 1.427 . S
N257 C255 1.384 . S
H258 C264 0.930 . S
H259 C268 0.930 . S
H260 C273 0.929 . S
H261 C271 0.929 . S
H262 C266 0.929 . S
H263 C272 0.929 . S
C264 H258 0.930 . S
C264 C265 1.367 1_565 S
C264 C272 1.378 . S
C265 C264 1.367 1_545 S
C265 C273 1.433 . S
C266 H262 0.929 . S
C266 C268 1.378 . S
C266 C270 1.350 . S
C267 C270 1.463 . S
C267 C272 1.350 1_545 S
C267 N275 1.427 . S
C268 H259 0.930 . S
C268 C266 1.378 . S
C268 C269 1.367 . S
C269 C268 1.367 . S
C269 C271 1.433 1_545 S
C270 C266 1.350 . S
C270 C267 1.463 . S
C270 N274 1.427 1_545 S
C271 H261 0.929 . S
C271 C269 1.433 1_565 S
C271 N274 1.384 . S
C272 H263 0.929 . S
C272 C264 1.378 . S
C272 C267 1.350 1_565 S
C273 H260 0.929 . S
C273 C265 1.433 . S
C273 N275 1.384 . S
N274 C270 1.427 1_565 S
N274 C271 1.384 . S
N275 C267 1.427 . S
N275 C273 1.384 . S
H276 C282 0.930 . S
H277 C286 0.930 . S
H278 C291 0.929 . S
H279 C289 0.929 . S
H280 C284 0.929 . S
H281 C290 0.929 . S
C282 H276 0.930 . S
C282 C283 1.367 . S
C282 C290 1.378 . S
C283 C282 1.367 . S
C283 C291 1.433 . S
C284 H280 0.929 . S
C284 C286 1.378 . S
C284 C288 1.350 . S
C285 C288 1.463 . S
C285 C290 1.350 . S
C285 N293 1.427 . S
C286 H277 0.930 . S
C286 C284 1.378 . S
C286 C287 1.367 . S
C287 C286 1.367 . S
C287 C289 1.433 . S
C288 C284 1.350 . S
C288 C285 1.463 . S
C288 N292 1.427 . S
C289 H279 0.929 . S
C289 C287 1.433 . S
C289 N292 1.384 . S
C290 H281 0.929 . S
C290 C282 1.378 . S
C290 C285 1.350 . S
C291 H278 0.929 . S
C291 C283 1.433 . S
C291 N293 1.384 . S
N292 C288 1.427 . S
N292 C289 1.384 . S
N293 C285 1.427 . S
N293 C291 1.384 . S
H294 C300 0.930 . S
H295 C304 0.930 . S
H296 C309 0.929 . S
H297 C307 0.929 . S
H298 C302 0.929 . S
H299 C308 0.929 . S
C300 H294 0.930 . S
C300 C301 1.367 . S
C300 C308 1.378 . S
C301 C300 1.367 . S
C301 C309 1.433 . S
C302 H298 0.929 . S
C302 C304 1.378 . S
C302 C306 1.350 . S
C303 C306 1.463 1_554 S
C303 C308 1.350 . S
C303 N311 1.427 . S
C304 H295 0.930 . S
C304 C302 1.378 . S
C304 C305 1.367 . S
C305 C304 1.367 . S
C305 C307 1.433 . S
C306 C302 1.350 . S
C306 C303 1.463 1_556 S
C306 N310 1.427 . S
C307 H297 0.929 . S
C307 C305 1.433 . S
C307 N310 1.384 . S
C308 H299 0.929 . S
C308 C300 1.378 . S
C308 C303 1.350 . S
C309 H296 0.929 . S
C309 C301 1.433 . S
C309 N311 1.384 . S
N310 C306 1.427 . S
N310 C307 1.384 . S
N311 C303 1.427 . S
N311 C309 1.384 . S
H312 C318 0.930 . S
H313 C322 0.930 . S
H314 C327 0.929 . S
H315 C325 0.929 . S
H316 C320 0.929 . S
H317 C326 0.929 . S
C318 H312 0.930 . S
C318 C319 1.367 . S
C318 C326 1.378 . S
C319 C318 1.367 . S
C319 C327 1.433 . S
C320 H316 0.929 . S
C320 C322 1.378 . S
C320 C324 1.350 . S
C321 C324 1.463 . S
C321 C326 1.350 . S
C321 N329 1.427 . S
C322 H313 0.930 . S
C322 C320 1.378 . S
C322 C323 1.367 . S
C323 C322 1.367 . S
C323 C325 1.433 . S
C324 C320 1.350 . S
C324 C321 1.463 . S
C324 N328 1.427 . S
C325 H315 0.929 . S
C325 C323 1.433 . S
C325 N328 1.384 . S
C326 H317 0.929 . S
C326 C318 1.378 . S
C326 C321 1.350 . S
C327 H314 0.929 . S
C327 C319 1.433 . S
C327 N329 1.384 . S
N328 C324 1.427 . S
N328 C325 1.384 . S
N329 C321 1.427 . S
N329 C327 1.384 . S
H330 C336 0.930 . S
H331 C340 0.930 . S
H332 C345 0.929 . S
H333 C343 0.929 . S
H334 C338 0.929 . S
H335 C344 0.929 . S
C336 H330 0.930 . S
C336 C337 1.367 . S
C336 C344 1.378 . S
C337 C336 1.367 . S
C337 C345 1.433 . S
C338 H334 0.929 . S
C338 C340 1.378 . S
C338 C342 1.350 . S
C339 C342 1.463 . S
C339 C344 1.350 . S
C339 N347 1.427 . S
C340 H331 0.930 . S
C340 C338 1.378 . S
C340 C341 1.367 . S
C341 C340 1.367 . S
C341 C343 1.433 . S
C342 C338 1.350 . S
C342 C339 1.463 . S
C342 N346 1.427 . S
C343 H333 0.929 . S
C343 C341 1.433 . S
C343 N346 1.384 . S
C344 H335 0.929 . S
C344 C336 1.378 . S
C344 C339 1.350 . S
C345 H332 0.929 . S
C345 C337 1.433 . S
C345 N347 1.384 . S
N346 C342 1.427 . S
N346 C343 1.384 . S
N347 C339 1.427 . S
N347 C345 1.384 . S
H348 C354 0.930 . S
H349 C358 0.930 . S
H350 C363 0.929 . S
H351 C361 0.929 . S
H352 C356 0.986 . S
H353 C362 0.980 . S
C354 H348 0.930 . S
C354 C355 1.367 . S
C354 C362 1.348 1_554 S
C355 C354 1.367 . S
C355 C363 1.433 . S
C356 H352 0.986 . S
C356 C358 1.345 1_554 S
C356 C360 1.330 1_554 S
C357 C360 1.463 1_554 S
C357 C362 1.332 1_554 S
C357 N365 1.427 . S
C358 H349 0.930 . S
C358 C356 1.345 1_556 S
C358 C359 1.367 . S
C359 C358 1.367 . S
C359 C361 1.433 . S
C360 C356 1.330 1_556 S
C360 C357 1.463 1_556 S
C360 N364 1.427 . S
C361 H351 0.929 . S
C361 C359 1.433 . S
C361 N364 1.384 . S
C362 H353 0.980 . S
C362 C354 1.348 1_556 S
C362 C357 1.332 1_556 S
C363 H350 0.929 . S
C363 C355 1.433 . S
C363 N365 1.384 . S
N364 C360 1.427 . S
N364 C361 1.384 . S
N365 C357 1.427 . S
N365 C363 1.384 . S
H366 C372 0.930 . S
H367 C376 0.930 . S
H368 C381 0.929 . S
H369 C379 0.929 . S
H370 C374 0.929 . S
H371 C380 0.929 . S
C372 H366 0.930 . S
C372 C373 1.367 . S
C372 C380 1.378 . S
C373 C372 1.367 . S
C373 C381 1.433 . S
C374 H370 0.929 . S
C374 C376 1.378 . S
C374 C378 1.350 . S
C375 C378 1.463 . S
C375 C380 1.350 . S
C375 N383 1.427 . S
C376 H367 0.930 . S
C376 C374 1.378 . S
C376 C377 1.367 . S
C377 C376 1.367 . S
C377 C379 1.433 . S
C378 C374 1.350 . S
C378 C375 1.463 . S
C378 N382 1.427 . S
C379 H369 0.929 . S
C379 C377 1.433 . S
C379 N382 1.384 . S
C380 H371 0.929 . S
C380 C372 1.378 . S
C380 C375 1.350 . S
C381 H368 0.929 . S
C381 C373 1.433 . S
C381 N383 1.384 . S
N382 C378 1.427 . S
N382 C379 1.384 . S
N383 C375 1.427 . S
N383 C381 1.384 . S
H384 C390 0.930 . S
H385 C394 0.930 . S
H386 C399 0.929 . S
H387 C397 0.929 . S
H388 C392 0.929 . S
H389 C398 0.929 . S
C390 H384 0.930 . S
C390 C391 1.367 . S
C390 C398 1.378 . S
C391 C390 1.367 . S
C391 C399 1.433 . S
C392 H388 0.929 . S
C392 C394 1.378 . S
C392 C396 1.350 . S
C393 C396 1.463 . S
C393 C398 1.350 . S
C393 N401 1.427 . S
C394 H385 0.930 . S
C394 C392 1.378 . S
C394 C395 1.367 . S
C395 C394 1.367 . S
C395 C397 1.433 . S
C396 C392 1.350 . S
C396 C393 1.463 . S
C396 N400 1.427 . S
C397 H387 0.929 . S
C397 C395 1.433 . S
C397 N400 1.384 . S
C398 H389 0.929 . S
C398 C390 1.378 . S
C398 C393 1.350 . S
C399 H386 0.929 . S
C399 C391 1.433 . S
C399 N401 1.384 . S
N400 C396 1.427 . S
N400 C397 1.384 . S
N401 C393 1.427 . S
N401 C399 1.384 . S
C247 C21 1.492 . S
C251 C221 1.492 . S
C265 C141 1.483 . S
C269 C61 1.489 . S
C283 C181 1.487 . S
C287 C101 1.492 . S
C301 C15 1.500 . S
C305 C175 1.499 . S
C319 C42 1.488 . S
C323 C202 1.490 . S
C337 C122 1.484 . S
C341 C82 1.486 . S
C355 C2 1.488 . S
C359 C162 1.483 . S
C373 C55 1.500 . S
C377 C215 1.500 . S
C391 C135 1.500 . S
C395 C95 1.500 . S
