# Generated by pormake.
# Topology kag, (6)-cn, num edge types: 1
# Building blocks:
#     Node 0, Type 0, BuildingBlock: LEVNOQ01_clean_sbu_1, # of connection points: 6
#     Node 1, Type 0, BuildingBlock: LEVNOQ01_clean_sbu_1, # of connection points: 6
#     Node 2, Type 0, BuildingBlock: LEVNOQ01_clean_sbu_1, # of connection points: 6
#     Edge 3, Type (0, 0), BuildingBlock: FUNLAD_clean_linker_1, # of connection points: 2
#     Edge 4, Type (0, 0), BuildingBlock: FUNLAD_clean_linker_1, # of connection points: 2
#     Edge 5, Type (0, 0), BuildingBlock: FUNLAD_clean_linker_1, # of connection points: 2
#     Edge 6, Type (0, 0), BuildingBlock: FUNLAD_clean_linker_1, # of connection points: 2
#     Edge 7, Type (0, 0), BuildingBlock: FUNLAD_clean_linker_1, # of connection points: 2
#     Edge 8, Type (0, 0), BuildingBlock: FUNLAD_clean_linker_1, # of connection points: 2
#     Edge 9, Type (0, 0), BuildingBlock: FUNLAD_clean_linker_1, # of connection points: 2
#     Edge 10, Type (0, 0), BuildingBlock: FUNLAD_clean_linker_1, # of connection points: 2
#     Edge 11, Type (0, 0), BuildingBlock: FUNLAD_clean_linker_1, # of connection points: 2
# Relax obj value: 0.109
# Max RMSD: 0.157
# Mean RMSD: 0.150
data_MOF--net-kag--node1-LEVNOQ01_clean_sbu_1--edge1-FUNLAD_clean_linker_1
_symmetry_space_group_name_H-M    P1
_symmetry_Int_Tables_number       1
_symmetry_cell_setting            triclinic
loop_
_symmetry_equiv_pos_as_xyz
'x, y, z'
_cell_length_a     32.498206
_cell_length_b     31.850647
_cell_length_c     16.249224
_cell_angle_alpha  89.847039
_cell_angle_beta   102.47849
_cell_angle_gamma 120.18762
loop_
_atom_site_label
_atom_site_type_symbol
_atom_site_fract_x
_atom_site_fract_y
_atom_site_fract_z
_atom_type_partial_charge
O0 O 0.91201 0.38253 0.95648 0.0
Mg1 Mg 0.9386 0.44735 0.90509 0.0
O2 O 0.97864 0.42212 0.05986 0.0
Mg3 Mg 0.02794 0.49908 0.01643 0.0
O4 O 0.00201 0.4764 0.86392 0.0
O5 O 0.92487 0.43026 0.78111 0.0
O6 O 0.07937 0.57382 0.9649 0.0
O7 O 0.07969 0.47043 0.01179 0.0
Mg8 Mg 0.10479 0.56314 0.11353 0.0
O9 O 0.05238 0.51805 0.17171 0.0
O10 O 0.10126 0.62459 0.07574 0.0
O11 O 0.14798 0.53785 0.07422 0.0
O12 O 0.1293 0.57725 0.23925 0.0
C13 C 0.93585 0.52427 0.98493 0.0
C14 C 0.9375 0.38355 0.02757 0.0
C15 C 0.97157 0.45558 0.78923 0.0
C16 C 0.09684 0.61744 0.99772 0.0
C17 C 0.12616 0.49451 0.03731 0.0
C18 C 0.08596 0.54307 0.24171 0.0
O19 O 0.91033 0.49073 0.92344 0.0
O20 O 0.97724 0.53116 0.02649 0.0
O21 O 0.49491 0.87958 0.01937 0.0
Mg22 Mg 0.46517 0.90807 0.92277 0.0
O23 O 0.55423 0.95294 0.08311 0.0
Mg24 Mg 0.52829 0.00457 0.02107 0.0
O25 O 0.51359 0.97013 0.88341 0.0
O26 O 0.47087 0.89639 0.80452 0.0
O27 O 0.50221 0.05714 0.96019 0.0
O28 O 0.60805 0.05267 0.00319 0.0
Mg29 Mg 0.59018 0.1128 0.13587 0.0
O30 O 0.5491 0.04198 0.15399 0.0
O31 O 0.54356 0.12774 0.04555 0.0
O32 O 0.65128 0.11835 0.10075 0.0
O33 O 0.58203 0.10178 0.25921 0.0
C34 C 0.40562 0.92673 0.99671 0.0
C35 C 0.53427 0.90653 0.07567 0.0
C36 C 0.50072 0.94311 0.8121 0.0
C37 C 0.51153 0.10055 0.97898 0.0
C38 C 0.64855 0.09061 0.04135 0.0
C39 C 0.55693 0.05547 0.23325 0.0
O40 O 0.40209 0.90778 0.92579 0.0
O41 O 0.44793 0.95679 0.04477 0.0
O42 O 0.42194 0.50837 0.94895 0.0
Mg43 Mg 0.48408 0.55747 0.90733 0.0
O44 O 0.45375 0.46879 0.02503 0.0
Mg45 Mg 0.53365 0.50328 0.00657 0.0
O46 O 0.51216 0.51909 0.86977 0.0
O47 O 0.47931 0.55391 0.78037 0.0
O48 O 0.61374 0.53983 0.98413 0.0
O49 O 0.51248 0.42709 0.94498 0.0
Mg50 Mg 0.60557 0.47487 0.11741 0.0
O51 O 0.55127 0.48314 0.13901 0.0
O52 O 0.66158 0.54504 0.10704 0.0
O53 O 0.57388 0.4177 0.0145 0.0
O54 O 0.5928 0.46012 0.23635 0.0
C55 C 0.56157 0.61988 0.05762 0.0
C56 C 0.41789 0.47535 0.99595 0.0
C57 C 0.50002 0.5281 0.79323 0.0
C58 C 0.65654 0.55831 0.0341 0.0
C59 C 0.53497 0.40339 0.95585 0.0
C60 C 0.55981 0.47208 0.21483 0.0
O61 O 0.53887 0.62208 0.98558 0.0
O62 O 0.55862 0.57985 0.07733 0.0
H63 H 0.95982 0.43472 0.65509 0.0
C64 C -0.01232 0.45976 0.71023 0.0
H65 H 0.05845 0.52273 0.75077 0.0
H66 H 0.02117 0.41841 0.35761 0.0
H67 H 0.02291 0.35197 0.42881 0.0
H68 H 0.03325 0.35347 0.58397 0.0
H69 H 0.04129 0.42111 0.66872 0.0
C70 C 0.03095 0.49487 0.69876 0.0
C71 C 0.037 0.4997 0.61 0.0
C72 C 0.03416 0.46082 0.56166 0.0
C73 C 0.02964 0.46062 0.4726 0.0
C74 C 0.0254 0.42066 0.42565 0.0
C75 C 0.02628 0.38229 0.46569 0.0
C76 C 0.03196 0.38306 0.55301 0.0
C77 C 0.03609 0.42186 0.60079 0.0
H78 H 0.10777 0.55703 0.3802 0.0
C79 C 0.07664 0.53483 0.32658 0.0
H80 H 0.00124 0.47991 0.29117 0.0
H81 H 0.04467 0.58135 0.68403 0.0
H82 H 0.04321 0.64774 0.61259 0.0
H83 H 0.03465 0.64693 0.45789 0.0
H84 H 0.02784 0.57982 0.37377 0.0
C85 C 0.03318 0.50364 0.34227 0.0
C86 C 0.03 0.50023 0.4324 0.0
C87 C 0.03356 0.53949 0.48075 0.0
C88 C 0.03766 0.53953 0.56976 0.0
C89 C 0.04117 0.57925 0.61624 0.0
C90 C 0.04042 0.61765 0.57602 0.0
C91 C 0.03573 0.61726 0.48895 0.0
C92 C 0.03221 0.5787 0.44153 0.0
H93 H 0.53243 0.98284 0.27789 0.0
C94 C 0.541 0.0199 0.29427 0.0
H95 H 0.55017 0.07186 0.38722 0.0
H96 H 0.43703 0.87298 0.57033 0.0
H97 H 0.37082 0.83899 0.44266 0.0
H98 H 0.3789 0.88103 0.31446 0.0
H99 H 0.45304 0.95727 0.31312 0.0
C100 C 0.54087 0.03443 0.37168 0.0
C101 C 0.53689 0.00476 0.44331 0.0
C102 C 0.49269 0.96047 0.44284 0.0
C103 C 0.4878 0.93668 0.51737 0.0
C104 C 0.44307 0.89272 0.51578 0.0
C105 C 0.40456 0.87277 0.44285 0.0
C106 C 0.40909 0.89643 0.37064 0.0
C107 C 0.45224 0.94005 0.37056 0.0
H108 H 0.53304 0.00424 0.73723 0.0
C109 C 0.51961 0.96545 0.73921 0.0
H110 H 0.50459 0.89953 0.6765 0.0
H111 H 0.62904 0.08533 0.4612 0.0
H112 H 0.69695 0.11667 0.58664 0.0
H113 H 0.68854 0.07454 0.715 0.0
H114 H 0.61184 0.001 0.71859 0.0
C115 C 0.51766 0.93819 0.67374 0.0
C116 C 0.52658 0.95803 0.59241 0.0
C117 C 0.57211 -5e-05 0.59051 0.0
C118 C 0.57712 0.02364 0.51612 0.0
C119 C 0.62286 0.06603 0.51631 0.0
C120 C 0.66233 0.08427 0.58773 0.0
C121 C 0.65758 0.06059 0.66 0.0
C122 C 0.6132 0.01872 0.66153 0.0
H123 H 0.53538 0.49764 0.73125 0.0
C124 C 0.50801 0.50844 0.72047 0.0
H125 H 0.45536 0.5164 0.63095 0.0
H126 H 0.57198 0.56318 0.34779 0.0
H127 H 0.57784 0.6402 0.38041 0.0
H128 H 0.54644 0.65246 0.49782 0.0
H129 H 0.50952 0.58776 0.58367 0.0
C130 C 0.48292 0.50583 0.64119 0.0
C131 C 0.49631 0.49576 0.56523 0.0
C132 C 0.51647 0.53361 0.51402 0.0
C133 C 0.53332 0.52607 0.44495 0.0
C134 C 0.55641 0.56573 0.39855 0.0
C135 C 0.56056 0.61056 0.41719 0.0
C136 C 0.54297 0.61749 0.48333 0.0
C137 C 0.52164 0.57984 0.53194 0.0
H138 H 0.50408 0.48167 0.25572 0.0
C139 C 0.53399 0.47474 0.27668 0.0
H140 H 0.57936 0.46535 0.38024 0.0
H141 H 0.45146 0.41333 0.64221 0.0
H142 H 0.4405 0.33413 0.60413 0.0
H143 H 0.47036 0.32087 0.4852 0.0
H144 H 0.51017 0.38647 0.40197 0.0
C145 C 0.5498 0.4728 0.35931 0.0
C146 C 0.52823 0.47997 0.4257 0.0
C147 C 0.50581 0.44141 0.47447 0.0
C148 C 0.4895 0.44922 0.54409 0.0
C149 C 0.46579 0.40973 0.59014 0.0
C150 C 0.45909 0.36401 0.56879 0.0
C151 C 0.47573 0.35651 0.50159 0.0
C152 C 0.49872 0.39456 0.45459 0.0
H153 H 0.13753 0.44185 0.97211 0.0
C154 C 0.15439 0.47214 0.02258 0.0
H155 H 0.21776 0.51947 0.11898 0.0
H156 H 0.28325 0.3615 0.04522 0.0
H157 H 0.23001 0.31288 0.13536 0.0
H158 H 0.17751 0.33772 0.18366 0.0
H159 H 0.17767 0.41122 0.14187 0.0
C160 C 0.20053 0.48922 0.06835 0.0
C161 C 0.23205 0.47379 0.04113 0.0
C162 C 0.23167 0.43106 0.06661 0.0
C163 C 0.26246 0.41712 0.03981 0.0
C164 C 0.26115 0.37405 0.06522 0.0
C165 C 0.23065 0.34579 0.11654 0.0
C166 C 0.20101 0.35974 0.14362 0.0
C167 C 0.20137 0.40189 0.11916 0.0
H168 H 0.37405 0.45213 0.09017 0.0
C169 C 0.37171 0.44833 0.02262 0.0
H170 H 0.32825 0.43169 0.89822 0.0
H171 H 0.24213 0.55863 0.98356 0.0
H172 H 0.2935 0.60618 0.89126 0.0
H173 H 0.34387 0.5801 0.83853 0.0
H174 H 0.34353 0.50702 0.87843 0.0
C175 C 0.32935 0.43526 0.96532 0.0
C176 C 0.2933 0.44599 0.9876 0.0
C177 C 0.2922 0.48786 0.95964 0.0
C178 C 0.26241 0.50235 0.98822 0.0
C179 C 0.26365 0.54556 0.96287 0.0
C180 C 0.29301 0.57331 0.90988 0.0
C181 C 0.3214 0.55868 0.88038 0.0
C182 C 0.32107 0.51655 0.9045 0.0
H183 H 0.69809 0.12708 0.96024 0.0
C184 C 0.69345 0.10584 0.01354 0.0
H185 H 0.72706 0.08949 0.12311 0.0
H186 H 0.87993 0.26272 0.91322 0.0
H187 H 0.84836 0.19842 0.79635 0.0
H188 H 0.78784 0.11281 0.80779 0.0
H189 H 0.75821 0.0912 0.93637 0.0
C190 C 0.73294 0.11031 0.06948 0.0
C191 C 0.78209 0.15449 0.07494 0.0
C192 C 0.80119 0.16575 0.00219 0.0
C193 C 0.83632 0.21479 0.99604 0.0
C194 C 0.85295 0.22585 0.92074 0.0
C195 C 0.83534 0.18931 0.85355 0.0
C196 C 0.80125 0.14111 0.86 0.0
C197 C 0.78437 0.12922 0.93355 0.0
H198 H 0.94529 0.33378 0.11783 0.0
C199 C 0.91972 0.33873 0.06953 0.0
H200 H 0.84748 0.30841 0.99356 0.0
H201 H 0.76394 0.14274 0.23421 0.0
H202 H 0.79745 0.20657 0.35119 0.0
H203 H 0.857 0.29218 0.33852 0.0
H204 H 0.88348 0.31413 0.2081 0.0
C205 C 0.87244 0.30287 0.04233 0.0
C206 C 0.85254 0.25212 0.063 0.0
C207 C 0.83903 0.2398 0.14054 0.0
C208 C 0.80414 0.19053 0.14713 0.0
C209 C 0.78973 0.17942 0.22448 0.0
C210 C 0.80891 0.21582 0.29263 0.0
C211 C 0.84246 0.264 0.28553 0.0
C212 C 0.85737 0.27611 0.21038 0.0
H213 H 0.60084 0.90578 0.14162 0.0
C214 C 0.56099 0.88383 0.12139 0.0
H215 H 0.49806 0.81329 0.09877 0.0
H216 H 0.58984 0.71332 0.94179 0.0
H217 H 0.54967 0.73068 0.81537 0.0
H218 H 0.51591 0.78417 0.82432 0.0
H219 H 0.52239 0.82046 0.96036 0.0
C220 C 0.53791 0.83497 0.12048 0.0
C221 C 0.56409 0.80822 0.11749 0.0
C222 C 0.56099 0.788 0.03714 0.0
C223 C 0.58057 0.75731 0.03218 0.0
C224 C 0.5759 0.73695 0.95063 0.0
C225 C 0.55283 0.74664 0.87684 0.0
C226 C 0.53383 0.7767 0.88184 0.0
C227 C 0.53778 0.79725 0.96069 0.0
H228 H 0.56289 0.65954 0.16718 0.0
C229 C 0.58419 0.66262 0.12193 0.0
H230 H 0.63535 0.70897 0.05678 0.0
H231 H 0.5788 0.84403 0.2802 0.0
H232 H 0.62062 0.82805 0.4086 0.0
H233 H 0.65538 0.77528 0.40034 0.0
H234 H 0.64844 0.73799 0.26363 0.0
C235 C 0.61426 0.70691 0.10179 0.0
C236 C 0.60257 0.74623 0.10797 0.0
C237 C 0.60797 0.76862 0.18801 0.0
C238 C 0.58855 0.7996 0.19276 0.0
C239 C 0.59327 0.82052 0.27338 0.0
C240 C 0.61715 0.81164 0.34734 0.0
C241 C 0.63668 0.78186 0.3427 0.0
C242 C 0.63227 0.76052 0.26407 0.0
H243 H 0.93379 0.57652 0.07146 0.0
C244 C 0.91542 0.55254 0.01157 0.0
H245 H 0.85409 0.52235 0.905 0.0
H246 H 0.74265 0.5488 0.16928 0.0
H247 H 0.74844 0.48268 0.23205 0.0
H248 H 0.79809 0.45283 0.18758 0.0
H249 H 0.84275 0.48974 0.08093 0.0
C250 C 0.87219 0.54546 0.96581 0.0
C251 C 0.8454 0.56572 0.99684 0.0
C252 C 0.81972 0.54374 0.05971 0.0
C253 C 0.78975 0.55979 0.08303 0.0
C254 C 0.76488 0.53746 0.14683 0.0
C255 C 0.76808 0.49945 0.18401 0.0
C256 C 0.79612 0.48276 0.15917 0.0
C257 C 0.82179 0.50453 0.09798 0.0
H258 H 0.69667 0.57186 0.93514 0.0
C259 C 0.70078 0.58325 0.00086 0.0
H260 H 0.74908 0.61748 0.12054 0.0
H261 H 0.89075 0.61568 0.87557 0.0
H262 H 0.88172 0.67941 0.8068 0.0
H263 H 0.8283 0.70621 0.8452 0.0
H264 H 0.78328 0.66913 0.95254 0.0
C265 C 0.74557 0.60588 0.05526 0.0
C266 C 0.78356 0.59599 0.04015 0.0
C267 C 0.80992 0.61845 0.97842 0.0
C268 C 0.84094 0.60326 0.95676 0.0
C269 C 0.86659 0.62583 0.89422 0.0
C270 C 0.86181 0.6625 0.85445 0.0
C271 C 0.83169 0.67755 0.87604 0.0
C272 C 0.80595 0.65592 0.93736 0.0
H273 H 0.15135 0.65606 0.925 0.0
C274 C 0.12688 0.65958 0.95684 0.0
H275 H 0.10875 0.70574 0.01034 0.0
H276 H 0.32575 0.87176 0.17343 0.0
H277 H 0.28661 0.85495 0.29085 0.0
H278 H 0.20023 0.78917 0.27141 0.0
H279 H 0.15247 0.74039 0.13584 0.0
C280 C 0.13457 0.70398 0.97995 0.0
C281 C 0.18358 0.74909 0.98753 0.0
C282 C 0.2108 0.77782 0.06835 0.0
C283 C 0.26096 0.81531 0.08042 0.0
C284 C 0.28767 0.84282 0.16145 0.0
C285 C 0.26569 0.83354 0.22927 0.0
C286 C 0.21704 0.79655 0.21828 0.0
C287 C 0.18986 0.7688 0.13929 0.0
H288 H 0.34256 0.92344 0.03435 0.0
C289 C 0.36108 0.90356 0.02857 0.0
H290 H 0.35733 0.83595 0.01842 0.0
H291 H 0.13908 0.71047 0.82056 0.0
H292 H 0.17947 0.72558 0.705 0.0
H293 H 0.26838 0.78484 0.72953 0.0
H294 H 0.31675 0.83021 0.86832 0.0
C295 C 0.3381 0.85467 0.02787 0.0
C296 C 0.28401 0.82313 0.01282 0.0
C297 C 0.25629 0.7962 0.9313 0.0
C298 C 0.20565 0.76038 0.91799 0.0
C299 C 0.17827 0.73617 0.83489 0.0
C300 C 0.20087 0.74487 0.76789 0.0
C301 C 0.25085 0.7783 0.78162 0.0
C302 C 0.27829 0.80403 0.86194 0.0
H303 H 0.54026 0.3442 0.90216 0.0
C304 C 0.51426 0.35558 0.90659 0.0
H305 H 0.44025 0.33102 0.90273 0.0
H306 H 0.48205 0.15825 0.76624 0.0
H307 H 0.48027 0.19126 0.63048 0.0
H308 H 0.4652 0.2598 0.61149 0.0
H309 H 0.45191 0.29584 0.72847 0.0
C310 C 0.46631 0.32135 0.891 0.0
C311 C 0.45311 0.26926 0.88716 0.0
C312 C 0.45882 0.24746 0.81806 0.0
C313 C 0.46726 0.2079 0.82896 0.0
C314 C 0.47547 0.18836 0.76054 0.0
C315 C 0.47441 0.2069 0.6827 0.0
C316 C 0.46592 0.24552 0.67198 0.0
C317 C 0.45849 0.26593 0.73905 0.0
H318 H 0.44594 0.09411 0.88795 0.0
C319 C 0.48262 0.1195 0.92666 0.0
H320 H 0.53696 0.19282 0.97369 0.0
H321 H 0.43059 0.29465 0.02472 0.0
H322 H 0.42733 0.25841 0.15675 0.0
H323 H 0.44186 0.1896 0.17545 0.0
H324 H 0.45985 0.15671 0.06201 0.0
C325 C 0.50009 0.16795 0.93489 0.0
C326 C 0.46971 0.19045 0.90885 0.0
C327 C 0.45619 0.20711 0.97324 0.0
C328 C 0.44764 0.24655 0.96231 0.0
C329 C 0.43735 0.26467 0.02982 0.0
C330 C 0.43526 0.24413 0.10577 0.0
C331 C 0.44347 0.2054 0.11632 0.0
C332 C 0.45389 0.18699 0.05104 0.0
loop_
_geom_bond_atom_site_label_1
_geom_bond_atom_site_label_2
_geom_bond_distance
_geom_bond_site_symmetry_2
_ccdc_geom_bond_type
O0 Mg1 1.990 . S
O0 C14 1.253 . S
Mg1 O0 1.990 . S
Mg1 O4 2.180 1_655 S
Mg1 O5 2.117 . S
Mg1 O19 2.030 . S
O2 Mg3 2.072 1_655 S
O2 C14 1.260 1_554 S
Mg3 O2 2.072 1_455 S
Mg3 O4 2.099 1_554 S
Mg3 O6 2.079 . S
Mg3 O7 2.072 1_554 S
Mg3 O9 2.099 . S
Mg3 O20 2.079 1_455 S
O4 Mg1 2.180 1_455 S
O4 Mg3 2.099 1_556 S
O4 C15 1.279 . S
O5 Mg1 2.117 . S
O5 C15 1.250 1_655 S
O6 Mg3 2.079 . S
O6 C16 1.264 . S
O7 Mg3 2.072 1_556 S
O7 C17 1.260 1_556 S
Mg8 O9 2.180 . S
Mg8 O10 2.030 . S
Mg8 O11 1.990 . S
Mg8 O12 2.117 . S
O9 Mg3 2.099 . S
O9 Mg8 2.180 . S
O9 C18 1.279 . S
O10 Mg8 2.030 . S
O10 C16 1.248 . S
O11 Mg8 1.990 . S
O11 C17 1.253 . S
O12 Mg8 2.117 . S
O12 C18 1.250 . S
C13 O19 1.248 . S
C13 O20 1.264 1_556 S
C14 O0 1.253 . S
C14 O2 1.260 1_556 S
C15 O4 1.279 . S
C15 O5 1.250 1_455 S
C16 O6 1.264 . S
C16 O10 1.248 . S
C17 O7 1.260 1_554 S
C17 O11 1.253 . S
C18 O9 1.279 . S
C18 O12 1.250 . S
O19 Mg1 2.030 . S
O19 C13 1.248 . S
O20 Mg3 2.079 1_655 S
O20 C13 1.264 1_554 S
O21 Mg22 1.990 . S
O21 C35 1.253 1_556 S
Mg22 O21 1.990 . S
Mg22 O25 2.180 . S
Mg22 O26 2.117 . S
Mg22 O40 2.030 . S
O23 Mg24 2.072 1_565 S
O23 C35 1.260 . S
Mg24 O23 2.072 1_545 S
Mg24 O25 2.099 1_544 S
Mg24 O27 2.079 1_554 S
Mg24 O28 2.072 . S
Mg24 O30 2.099 . S
Mg24 O41 2.079 1_545 S
O25 Mg22 2.180 . S
O25 Mg24 2.099 1_566 S
O25 C36 1.279 . S
O26 Mg22 2.117 . S
O26 C36 1.250 . S
O27 Mg24 2.079 1_556 S
O27 C37 1.264 1_556 S
O28 Mg24 2.072 . S
O28 C38 1.260 . S
Mg29 O30 2.180 . S
Mg29 O31 2.030 . S
Mg29 O32 1.990 . S
Mg29 O33 2.117 . S
O30 Mg24 2.099 . S
O30 Mg29 2.180 . S
O30 C39 1.279 . S
O31 Mg29 2.030 . S
O31 C37 1.248 . S
O32 Mg29 1.990 . S
O32 C38 1.253 . S
O33 Mg29 2.117 . S
O33 C39 1.250 . S
C34 O40 1.248 . S
C34 O41 1.264 1_556 S
C35 O21 1.253 1_554 S
C35 O23 1.260 . S
C36 O25 1.279 . S
C36 O26 1.250 . S
C37 O27 1.264 1_554 S
C37 O31 1.248 . S
C38 O28 1.260 . S
C38 O32 1.253 . S
C39 O30 1.279 . S
C39 O33 1.250 . S
O40 Mg22 2.030 . S
O40 C34 1.248 . S
O41 Mg24 2.079 1_565 S
O41 C34 1.264 1_554 S
O42 Mg43 1.990 . S
O42 C56 1.253 . S
Mg43 O42 1.990 . S
Mg43 O46 2.180 . S
Mg43 O47 2.117 . S
Mg43 O61 2.030 . S
O44 Mg45 2.072 . S
O44 C56 1.260 1_554 S
Mg45 O44 2.072 . S
Mg45 O46 2.099 1_554 S
Mg45 O48 2.079 . S
Mg45 O49 2.072 1_554 S
Mg45 O51 2.099 . S
Mg45 O62 2.079 . S
O46 Mg43 2.180 . S
O46 Mg45 2.099 1_556 S
O46 C57 1.279 . S
O47 Mg43 2.117 . S
O47 C57 1.250 . S
O48 Mg45 2.079 . S
O48 C58 1.264 . S
O49 Mg45 2.072 1_556 S
O49 C59 1.260 1_556 S
Mg50 O51 2.180 . S
Mg50 O52 2.030 . S
Mg50 O53 1.990 . S
Mg50 O54 2.117 . S
O51 Mg45 2.099 . S
O51 Mg50 2.180 . S
O51 C60 1.279 . S
O52 Mg50 2.030 . S
O52 C58 1.248 . S
O53 Mg50 1.990 . S
O53 C59 1.253 . S
O54 Mg50 2.117 . S
O54 C60 1.250 . S
C55 O61 1.248 1_554 S
C55 O62 1.264 . S
C56 O42 1.253 . S
C56 O44 1.260 1_556 S
C57 O46 1.279 . S
C57 O47 1.250 . S
C58 O48 1.264 . S
C58 O52 1.248 . S
C59 O49 1.260 1_554 S
C59 O53 1.253 . S
C60 O51 1.279 . S
C60 O54 1.250 . S
O61 Mg43 2.030 . S
O61 C55 1.248 1_556 S
O62 Mg45 2.079 . S
O62 C55 1.264 . S
H63 C64 0.951 . S
C64 H63 0.951 . S
C64 C70 1.265 . S
H65 C70 0.950 . S
H66 C74 0.949 . S
H67 C75 0.950 . S
H68 C76 0.951 . S
H69 C77 0.951 . S
C70 C64 1.265 . S
C70 H65 0.950 . S
C70 C71 1.478 . S
C71 C70 1.478 . S
C71 C72 1.397 . S
C71 C88 1.394 . S
C72 C71 1.397 . S
C72 C73 1.438 . S
C72 C77 1.429 . S
C73 C72 1.438 . S
C73 C74 1.428 . S
C73 C86 1.394 . S
C74 H66 0.949 . S
C74 C73 1.428 . S
C74 C75 1.345 . S
C75 H67 0.950 . S
C75 C74 1.345 . S
C75 C76 1.424 . S
C76 H68 0.951 . S
C76 C75 1.424 . S
C76 C77 1.347 . S
C77 H69 0.951 . S
C77 C72 1.429 . S
C77 C76 1.347 . S
H78 C79 0.951 . S
C79 H78 0.951 . S
C79 C85 1.265 . S
H80 C85 0.950 1_655 S
H81 C89 0.949 . S
H82 C90 0.950 . S
H83 C91 0.951 . S
H84 C92 0.951 . S
C85 C79 1.265 . S
C85 H80 0.950 1_455 S
C85 C86 1.478 . S
C86 C73 1.394 . S
C86 C85 1.478 . S
C86 C87 1.397 . S
C87 C86 1.397 . S
C87 C88 1.438 . S
C87 C92 1.429 . S
C88 C71 1.394 . S
C88 C87 1.438 . S
C88 C89 1.428 . S
C89 H81 0.949 . S
C89 C88 1.428 . S
C89 C90 1.345 . S
C90 H82 0.950 . S
C90 C89 1.345 . S
C90 C91 1.424 . S
C91 H83 0.951 . S
C91 C90 1.424 . S
C91 C92 1.347 . S
C92 H84 0.951 . S
C92 C87 1.429 . S
C92 C91 1.347 . S
H93 C94 0.954 . S
C94 H93 0.954 . S
C94 C100 1.265 . S
H95 C100 0.950 . S
H96 C104 0.949 . S
H97 C105 0.950 . S
H98 C106 0.951 . S
H99 C107 0.951 . S
C100 C94 1.265 . S
C100 H95 0.950 . S
C100 C101 1.478 . S
C101 C100 1.478 . S
C101 C102 1.397 1_545 S
C101 C118 1.394 . S
C102 C101 1.397 1_565 S
C102 C103 1.438 . S
C102 C107 1.429 . S
C103 C102 1.438 . S
C103 C104 1.428 . S
C103 C116 1.394 1_565 S
C104 H96 0.949 . S
C104 C103 1.428 . S
C104 C105 1.345 . S
C105 H97 0.950 . S
C105 C104 1.345 . S
C105 C106 1.424 . S
C106 H98 0.951 . S
C106 C105 1.424 . S
C106 C107 1.347 . S
C107 H99 0.951 . S
C107 C102 1.429 . S
C107 C106 1.347 . S
H108 C109 0.951 . S
C109 H108 0.951 . S
C109 C115 1.265 . S
H110 C115 0.950 . S
H111 C119 0.949 . S
H112 C120 0.950 . S
H113 C121 0.951 . S
H114 C122 0.951 . S
C115 C109 1.265 . S
C115 H110 0.950 . S
C115 C116 1.478 . S
C116 C103 1.394 1_545 S
C116 C115 1.478 . S
C116 C117 1.397 . S
C117 C116 1.397 . S
C117 C118 1.438 . S
C117 C122 1.429 . S
C118 C101 1.394 . S
C118 C117 1.438 . S
C118 C119 1.428 . S
C119 H111 0.949 . S
C119 C118 1.428 . S
C119 C120 1.345 . S
C120 H112 0.950 . S
C120 C119 1.345 . S
C120 C121 1.424 . S
C121 H113 0.951 . S
C121 C120 1.424 . S
C121 C122 1.347 . S
C122 H114 0.951 . S
C122 C117 1.429 . S
C122 C121 1.347 . S
H123 C124 0.951 . S
C124 H123 0.951 . S
C124 C130 1.265 . S
H125 C130 0.950 . S
H126 C134 0.949 . S
H127 C135 0.950 . S
H128 C136 0.951 . S
H129 C137 0.951 . S
C130 C124 1.265 . S
C130 H125 0.950 . S
C130 C131 1.478 . S
C131 C130 1.478 . S
C131 C132 1.397 . S
C131 C148 1.394 . S
C132 C131 1.397 . S
C132 C133 1.438 . S
C132 C137 1.429 . S
C133 C132 1.438 . S
C133 C134 1.428 . S
C133 C146 1.394 . S
C134 H126 0.949 . S
C134 C133 1.428 . S
C134 C135 1.345 . S
C135 H127 0.950 . S
C135 C134 1.345 . S
C135 C136 1.424 . S
C136 H128 0.951 . S
C136 C135 1.424 . S
C136 C137 1.347 . S
C137 H129 0.951 . S
C137 C132 1.429 . S
C137 C136 1.347 . S
H138 C139 0.951 . S
C139 H138 0.951 . S
C139 C145 1.265 . S
H140 C145 0.950 . S
H141 C149 0.949 . S
H142 C150 0.950 . S
H143 C151 0.951 . S
H144 C152 0.951 . S
C145 C139 1.265 . S
C145 H140 0.950 . S
C145 C146 1.478 . S
C146 C133 1.394 . S
C146 C145 1.478 . S
C146 C147 1.397 . S
C147 C146 1.397 . S
C147 C148 1.438 . S
C147 C152 1.429 . S
C148 C131 1.394 . S
C148 C147 1.438 . S
C148 C149 1.428 . S
C149 H141 0.949 . S
C149 C148 1.428 . S
C149 C150 1.345 . S
C150 H142 0.950 . S
C150 C149 1.345 . S
C150 C151 1.424 . S
C151 H143 0.951 . S
C151 C150 1.424 . S
C151 C152 1.347 . S
C152 H144 0.951 . S
C152 C147 1.429 . S
C152 C151 1.347 . S
H153 C154 0.937 1_556 S
C154 H153 0.937 1_554 S
C154 C160 1.272 . S
H155 C160 0.950 . S
H156 C164 0.949 . S
H157 C165 0.950 . S
H158 C166 0.951 . S
H159 C167 0.951 . S
C160 C154 1.272 . S
C160 H155 0.950 . S
C160 C161 1.478 . S
C161 C160 1.478 . S
C161 C162 1.397 . S
C161 C178 1.394 1_554 S
C162 C161 1.397 . S
C162 C163 1.438 . S
C162 C167 1.429 . S
C163 C162 1.438 . S
C163 C164 1.428 . S
C163 C176 1.394 1_554 S
C164 H156 0.949 . S
C164 C163 1.428 . S
C164 C165 1.345 . S
C165 H157 0.950 . S
C165 C164 1.345 . S
C165 C166 1.424 . S
C166 H158 0.951 . S
C166 C165 1.424 . S
C166 C167 1.347 . S
C167 H159 0.951 . S
C167 C162 1.429 . S
C167 C166 1.347 . S
H168 C169 0.951 . S
C169 H168 0.951 . S
C169 C175 1.265 1_554 S
H170 C175 0.950 . S
H171 C179 0.949 . S
H172 C180 0.950 . S
H173 C181 0.951 . S
H174 C182 0.951 . S
C175 C169 1.265 1_556 S
C175 H170 0.950 . S
C175 C176 1.478 . S
C176 C163 1.394 1_556 S
C176 C175 1.478 . S
C176 C177 1.397 . S
C177 C176 1.397 . S
C177 C178 1.438 . S
C177 C182 1.429 . S
C178 C161 1.394 1_556 S
C178 C177 1.438 . S
C178 C179 1.428 . S
C179 H171 0.949 . S
C179 C178 1.428 . S
C179 C180 1.345 . S
C180 H172 0.950 . S
C180 C179 1.345 . S
C180 C181 1.424 . S
C181 H173 0.951 . S
C181 C180 1.424 . S
C181 C182 1.347 . S
C182 H174 0.951 . S
C182 C177 1.429 . S
C182 C181 1.347 . S
H183 C184 0.951 . S
C184 H183 0.951 . S
C184 C190 1.265 . S
H185 C190 0.950 . S
H186 C194 0.949 . S
H187 C195 0.950 . S
H188 C196 0.951 . S
H189 C197 0.951 . S
C190 C184 1.265 . S
C190 H185 0.950 . S
C190 C191 1.478 . S
C191 C190 1.478 . S
C191 C192 1.397 1_554 S
C191 C208 1.394 . S
C192 C191 1.397 1_556 S
C192 C193 1.438 . S
C192 C197 1.429 . S
C193 C192 1.438 . S
C193 C194 1.428 . S
C193 C206 1.394 1_556 S
C194 H186 0.949 . S
C194 C193 1.428 . S
C194 C195 1.345 . S
C195 H187 0.950 . S
C195 C194 1.345 . S
C195 C196 1.424 . S
C196 H188 0.951 . S
C196 C195 1.424 . S
C196 C197 1.347 . S
C197 H189 0.951 . S
C197 C192 1.429 . S
C197 C196 1.347 . S
H198 C199 0.951 . S
C199 H198 0.951 . S
C199 C205 1.265 . S
H200 C205 0.950 . S
H201 C209 0.949 . S
H202 C210 0.950 . S
H203 C211 0.951 . S
H204 C212 0.951 . S
C205 C199 1.265 . S
C205 H200 0.950 . S
C205 C206 1.478 . S
C206 C193 1.394 1_554 S
C206 C205 1.478 . S
C206 C207 1.397 . S
C207 C206 1.397 . S
C207 C208 1.438 . S
C207 C212 1.429 . S
C208 C191 1.394 . S
C208 C207 1.438 . S
C208 C209 1.428 . S
C209 H201 0.949 . S
C209 C208 1.428 . S
C209 C210 1.345 . S
C210 H202 0.950 . S
C210 C209 1.345 . S
C210 C211 1.424 . S
C211 H203 0.951 . S
C211 C210 1.424 . S
C211 C212 1.347 . S
C212 H204 0.951 . S
C212 C207 1.429 . S
C212 C211 1.347 . S
H213 C214 0.951 . S
C214 H213 0.951 . S
C214 C220 1.265 . S
H215 C220 0.950 . S
H216 C224 0.949 . S
H217 C225 0.950 . S
H218 C226 0.951 . S
H219 C227 0.951 . S
C220 C214 1.265 . S
C220 H215 0.950 . S
C220 C221 1.478 . S
C221 C220 1.478 . S
C221 C222 1.397 1_554 S
C221 C238 1.394 . S
C222 C221 1.397 1_556 S
C222 C223 1.438 . S
C222 C227 1.429 . S
C223 C222 1.438 . S
C223 C224 1.428 . S
C223 C236 1.394 1_556 S
C224 H216 0.949 . S
C224 C223 1.428 . S
C224 C225 1.345 . S
C225 H217 0.950 . S
C225 C224 1.345 . S
C225 C226 1.424 . S
C226 H218 0.951 . S
C226 C225 1.424 . S
C226 C227 1.347 . S
C227 H219 0.951 . S
C227 C222 1.429 . S
C227 C226 1.347 . S
H228 C229 0.951 . S
C229 H228 0.951 . S
C229 C235 1.265 . S
H230 C235 0.950 . S
H231 C239 0.949 . S
H232 C240 0.950 . S
H233 C241 0.951 . S
H234 C242 0.951 . S
C235 C229 1.265 . S
C235 H230 0.950 . S
C235 C236 1.478 . S
C236 C223 1.394 1_554 S
C236 C235 1.478 . S
C236 C237 1.397 . S
C237 C236 1.397 . S
C237 C238 1.438 . S
C237 C242 1.429 . S
C238 C221 1.394 . S
C238 C237 1.438 . S
C238 C239 1.428 . S
C239 H231 0.949 . S
C239 C238 1.428 . S
C239 C240 1.345 . S
C240 H232 0.950 . S
C240 C239 1.345 . S
C240 C241 1.424 . S
C241 H233 0.951 . S
C241 C240 1.424 . S
C241 C242 1.347 . S
C242 H234 0.951 . S
C242 C237 1.429 . S
C242 C241 1.347 . S
H243 C244 0.951 . S
C244 H243 0.951 . S
C244 C250 1.265 1_554 S
H245 C250 0.950 . S
H246 C254 0.949 . S
H247 C255 0.950 . S
H248 C256 0.951 . S
H249 C257 0.951 . S
C250 C244 1.265 1_556 S
C250 H245 0.950 . S
C250 C251 1.478 1_556 S
C251 C250 1.478 1_554 S
C251 C252 1.397 . S
C251 C268 1.394 1_554 S
C252 C251 1.397 . S
C252 C253 1.438 . S
C252 C257 1.429 . S
C253 C252 1.438 . S
C253 C254 1.428 . S
C253 C266 1.394 . S
C254 H246 0.949 . S
C254 C253 1.428 . S
C254 C255 1.345 . S
C255 H247 0.950 . S
C255 C254 1.345 . S
C255 C256 1.424 . S
C256 H248 0.951 . S
C256 C255 1.424 . S
C256 C257 1.347 . S
C257 H249 0.951 . S
C257 C252 1.429 . S
C257 C256 1.347 . S
H258 C259 0.951 1_556 S
C259 H258 0.951 1_554 S
C259 C265 1.265 . S
H260 C265 0.950 . S
H261 C269 0.949 . S
H262 C270 0.950 . S
H263 C271 0.951 . S
H264 C272 0.951 . S
C265 C259 1.265 . S
C265 H260 0.950 . S
C265 C266 1.478 . S
C266 C253 1.394 . S
C266 C265 1.478 . S
C266 C267 1.397 1_554 S
C267 C266 1.397 1_556 S
C267 C268 1.438 . S
C267 C272 1.429 . S
C268 C251 1.394 1_556 S
C268 C267 1.438 . S
C268 C269 1.428 . S
C269 H261 0.949 . S
C269 C268 1.428 . S
C269 C270 1.345 . S
C270 H262 0.950 . S
C270 C269 1.345 . S
C270 C271 1.424 . S
C271 H263 0.951 . S
C271 C270 1.424 . S
C271 C272 1.347 . S
C272 H264 0.951 . S
C272 C267 1.429 . S
C272 C271 1.347 . S
H273 C274 0.951 . S
C274 H273 0.951 . S
C274 C280 1.265 . S
H275 C280 0.950 . S
H276 C284 0.949 . S
H277 C285 0.950 . S
H278 C286 0.951 . S
H279 C287 0.951 . S
C280 C274 1.265 . S
C280 H275 0.950 . S
C280 C281 1.478 . S
C281 C280 1.478 . S
C281 C282 1.397 . S
C281 C298 1.394 1_554 S
C282 C281 1.397 . S
C282 C283 1.438 . S
C282 C287 1.429 . S
C283 C282 1.438 . S
C283 C284 1.428 . S
C283 C296 1.394 . S
C284 H276 0.949 . S
C284 C283 1.428 . S
C284 C285 1.345 . S
C285 H277 0.950 . S
C285 C284 1.345 . S
C285 C286 1.424 . S
C286 H278 0.951 . S
C286 C285 1.424 . S
C286 C287 1.347 . S
C287 H279 0.951 . S
C287 C282 1.429 . S
C287 C286 1.347 . S
H288 C289 0.951 . S
C289 H288 0.951 . S
C289 C295 1.265 . S
H290 C295 0.952 . S
H291 C299 0.949 . S
H292 C300 0.950 . S
H293 C301 0.951 . S
H294 C302 0.951 . S
C295 C289 1.265 . S
C295 H290 0.952 . S
C295 C296 1.478 . S
C296 C283 1.394 . S
C296 C295 1.478 . S
C296 C297 1.397 1_554 S
C297 C296 1.397 1_556 S
C297 C298 1.438 . S
C297 C302 1.429 . S
C298 C281 1.394 1_556 S
C298 C297 1.438 . S
C298 C299 1.428 . S
C299 H291 0.949 . S
C299 C298 1.428 . S
C299 C300 1.345 . S
C300 H292 0.950 . S
C300 C299 1.345 . S
C300 C301 1.424 . S
C301 H293 0.951 . S
C301 C300 1.424 . S
C301 C302 1.347 . S
C302 H294 0.951 . S
C302 C297 1.429 . S
C302 C301 1.347 . S
H303 C304 0.951 1_554 S
C304 H303 0.951 1_556 S
C304 C310 1.265 . S
H305 C310 0.950 . S
H306 C314 0.949 . S
H307 C315 0.950 . S
H308 C316 0.951 . S
H309 C317 0.951 . S
C310 C304 1.265 . S
C310 H305 0.950 . S
C310 C311 1.478 . S
C311 C310 1.478 . S
C311 C312 1.397 . S
C311 C328 1.394 1_556 S
C312 C311 1.397 . S
C312 C313 1.438 . S
C312 C317 1.429 . S
C313 C312 1.438 . S
C313 C314 1.428 . S
C313 C326 1.404 . S
C314 H306 0.949 . S
C314 C313 1.428 . S
C314 C315 1.345 . S
C315 H307 0.950 . S
C315 C314 1.345 . S
C315 C316 1.424 . S
C316 H308 0.951 . S
C316 C315 1.424 . S
C316 C317 1.347 . S
C317 H309 0.951 . S
C317 C312 1.429 . S
C317 C316 1.347 . S
H318 C319 0.951 . S
C319 H318 0.951 . S
C319 C325 1.265 1_556 S
H320 C325 0.950 . S
H321 C329 0.949 . S
H322 C330 0.950 . S
H323 C331 0.951 . S
H324 C332 0.951 . S
C325 C319 1.265 1_554 S
C325 H320 0.950 . S
C325 C326 1.478 1_554 S
C326 C313 1.404 . S
C326 C325 1.478 1_556 S
C326 C327 1.387 1_556 S
C327 C326 1.387 1_554 S
C327 C328 1.438 . S
C327 C332 1.429 . S
C328 C311 1.394 1_554 S
C328 C327 1.438 . S
C328 C329 1.428 . S
C329 H321 0.949 . S
C329 C328 1.428 . S
C329 C330 1.345 . S
C330 H322 0.950 . S
C330 C329 1.345 . S
C330 C331 1.424 . S
C331 H323 0.951 . S
C331 C330 1.424 . S
C331 C332 1.347 . S
C332 H324 0.951 . S
C332 C327 1.429 . S
C332 C331 1.347 . S
C64 C15 1.203 . S
C79 C18 1.203 . S
C94 C39 1.289 . S
C109 C36 1.289 1_545 S
C124 C57 1.354 . S
C139 C60 1.355 . S
C154 C17 1.224 . S
C169 C56 1.218 1_554 S
C184 C38 1.128 . S
C199 C14 1.186 1_554 S
C214 C35 1.166 . S
C229 C55 1.095 . S
C244 C13 1.185 1_554 S
C259 C58 1.099 . S
C274 C16 1.071 . S
C289 C34 1.173 1_554 S
C304 C59 1.096 1_556 S
C319 C37 1.194 1_556 S
