# Generated by pormake.
# Topology uow, (4)-cn, num edge types: 1
# Building blocks:
#     Node 0, Type 0, BuildingBlock: KUFVIS_clean_sbu_0, # of connection points: 4
#     Node 1, Type 0, BuildingBlock: KUFVIS_clean_sbu_0, # of connection points: 4
#     Node 2, Type 0, BuildingBlock: KUFVIS_clean_sbu_0, # of connection points: 4
#     Node 3, Type 0, BuildingBlock: KUFVIS_clean_sbu_0, # of connection points: 4
#     Node 4, Type 0, BuildingBlock: KUFVIS_clean_sbu_0, # of connection points: 4
#     Node 5, Type 0, BuildingBlock: KUFVIS_clean_sbu_0, # of connection points: 4
#     Node 6, Type 0, BuildingBlock: KUFVIS_clean_sbu_0, # of connection points: 4
#     Node 7, Type 0, BuildingBlock: KUFVIS_clean_sbu_0, # of connection points: 4
#     Node 8, Type 0, BuildingBlock: KUFVIS_clean_sbu_0, # of connection points: 4
#     Node 9, Type 0, BuildingBlock: KUFVIS_clean_sbu_0, # of connection points: 4
#     Node 10, Type 0, BuildingBlock: KUFVIS_clean_sbu_0, # of connection points: 4
#     Node 11, Type 0, BuildingBlock: KUFVIS_clean_sbu_0, # of connection points: 4
#     Node 12, Type 0, BuildingBlock: KUFVIS_clean_sbu_0, # of connection points: 4
#     Node 13, Type 0, BuildingBlock: KUFVIS_clean_sbu_0, # of connection points: 4
#     Node 14, Type 0, BuildingBlock: KUFVIS_clean_sbu_0, # of connection points: 4
#     Node 15, Type 0, BuildingBlock: KUFVIS_clean_sbu_0, # of connection points: 4
#     Node 16, Type 0, BuildingBlock: KUFVIS_clean_sbu_0, # of connection points: 4
#     Node 17, Type 0, BuildingBlock: KUFVIS_clean_sbu_0, # of connection points: 4
#     Node 18, Type 0, BuildingBlock: KUFVIS_clean_sbu_0, # of connection points: 4
#     Node 19, Type 0, BuildingBlock: KUFVIS_clean_sbu_0, # of connection points: 4
#     Node 20, Type 0, BuildingBlock: KUFVIS_clean_sbu_0, # of connection points: 4
#     Node 21, Type 0, BuildingBlock: KUFVIS_clean_sbu_0, # of connection points: 4
#     Node 22, Type 0, BuildingBlock: KUFVIS_clean_sbu_0, # of connection points: 4
#     Node 23, Type 0, BuildingBlock: KUFVIS_clean_sbu_0, # of connection points: 4
#     Node 24, Type 0, BuildingBlock: KUFVIS_clean_sbu_0, # of connection points: 4
#     Node 25, Type 0, BuildingBlock: KUFVIS_clean_sbu_0, # of connection points: 4
#     Node 26, Type 0, BuildingBlock: KUFVIS_clean_sbu_0, # of connection points: 4
#     Node 27, Type 0, BuildingBlock: KUFVIS_clean_sbu_0, # of connection points: 4
#     Node 28, Type 0, BuildingBlock: KUFVIS_clean_sbu_0, # of connection points: 4
#     Node 29, Type 0, BuildingBlock: KUFVIS_clean_sbu_0, # of connection points: 4
#     Node 30, Type 0, BuildingBlock: KUFVIS_clean_sbu_0, # of connection points: 4
#     Node 31, Type 0, BuildingBlock: KUFVIS_clean_sbu_0, # of connection points: 4
#     Edge 32, Type (0, 0), BuildingBlock: AJUNOK_clean_linker_0, # of connection points: 2
#     Edge 33, Type (0, 0), BuildingBlock: AJUNOK_clean_linker_0, # of connection points: 2
#     Edge 34, Type (0, 0), BuildingBlock: AJUNOK_clean_linker_0, # of connection points: 2
#     Edge 35, Type (0, 0), BuildingBlock: AJUNOK_clean_linker_0, # of connection points: 2
#     Edge 36, Type (0, 0), BuildingBlock: AJUNOK_clean_linker_0, # of connection points: 2
#     Edge 37, Type (0, 0), BuildingBlock: AJUNOK_clean_linker_0, # of connection points: 2
#     Edge 38, Type (0, 0), BuildingBlock: AJUNOK_clean_linker_0, # of connection points: 2
#     Edge 39, Type (0, 0), BuildingBlock: AJUNOK_clean_linker_0, # of connection points: 2
#     Edge 40, Type (0, 0), BuildingBlock: AJUNOK_clean_linker_0, # of connection points: 2
#     Edge 41, Type (0, 0), BuildingBlock: AJUNOK_clean_linker_0, # of connection points: 2
#     Edge 42, Type (0, 0), BuildingBlock: AJUNOK_clean_linker_0, # of connection points: 2
#     Edge 43, Type (0, 0), BuildingBlock: AJUNOK_clean_linker_0, # of connection points: 2
#     Edge 44, Type (0, 0), BuildingBlock: AJUNOK_clean_linker_0, # of connection points: 2
#     Edge 45, Type (0, 0), BuildingBlock: AJUNOK_clean_linker_0, # of connection points: 2
#     Edge 46, Type (0, 0), BuildingBlock: AJUNOK_clean_linker_0, # of connection points: 2
#     Edge 47, Type (0, 0), BuildingBlock: AJUNOK_clean_linker_0, # of connection points: 2
#     Edge 48, Type (0, 0), BuildingBlock: AJUNOK_clean_linker_0, # of connection points: 2
#     Edge 49, Type (0, 0), BuildingBlock: AJUNOK_clean_linker_0, # of connection points: 2
#     Edge 50, Type (0, 0), BuildingBlock: AJUNOK_clean_linker_0, # of connection points: 2
#     Edge 51, Type (0, 0), BuildingBlock: AJUNOK_clean_linker_0, # of connection points: 2
#     Edge 52, Type (0, 0), BuildingBlock: AJUNOK_clean_linker_0, # of connection points: 2
#     Edge 53, Type (0, 0), BuildingBlock: AJUNOK_clean_linker_0, # of connection points: 2
#     Edge 54, Type (0, 0), BuildingBlock: AJUNOK_clean_linker_0, # of connection points: 2
#     Edge 55, Type (0, 0), BuildingBlock: AJUNOK_clean_linker_0, # of connection points: 2
#     Edge 56, Type (0, 0), BuildingBlock: AJUNOK_clean_linker_0, # of connection points: 2
#     Edge 57, Type (0, 0), BuildingBlock: AJUNOK_clean_linker_0, # of connection points: 2
#     Edge 58, Type (0, 0), BuildingBlock: AJUNOK_clean_linker_0, # of connection points: 2
#     Edge 59, Type (0, 0), BuildingBlock: AJUNOK_clean_linker_0, # of connection points: 2
#     Edge 60, Type (0, 0), BuildingBlock: AJUNOK_clean_linker_0, # of connection points: 2
#     Edge 61, Type (0, 0), BuildingBlock: AJUNOK_clean_linker_0, # of connection points: 2
#     Edge 62, Type (0, 0), BuildingBlock: AJUNOK_clean_linker_0, # of connection points: 2
#     Edge 63, Type (0, 0), BuildingBlock: AJUNOK_clean_linker_0, # of connection points: 2
#     Edge 64, Type (0, 0), BuildingBlock: AJUNOK_clean_linker_0, # of connection points: 2
#     Edge 65, Type (0, 0), BuildingBlock: AJUNOK_clean_linker_0, # of connection points: 2
#     Edge 66, Type (0, 0), BuildingBlock: AJUNOK_clean_linker_0, # of connection points: 2
#     Edge 67, Type (0, 0), BuildingBlock: AJUNOK_clean_linker_0, # of connection points: 2
#     Edge 68, Type (0, 0), BuildingBlock: AJUNOK_clean_linker_0, # of connection points: 2
#     Edge 69, Type (0, 0), BuildingBlock: AJUNOK_clean_linker_0, # of connection points: 2
#     Edge 70, Type (0, 0), BuildingBlock: AJUNOK_clean_linker_0, # of connection points: 2
#     Edge 71, Type (0, 0), BuildingBlock: AJUNOK_clean_linker_0, # of connection points: 2
#     Edge 72, Type (0, 0), BuildingBlock: AJUNOK_clean_linker_0, # of connection points: 2
#     Edge 73, Type (0, 0), BuildingBlock: AJUNOK_clean_linker_0, # of connection points: 2
#     Edge 74, Type (0, 0), BuildingBlock: AJUNOK_clean_linker_0, # of connection points: 2
#     Edge 75, Type (0, 0), BuildingBlock: AJUNOK_clean_linker_0, # of connection points: 2
#     Edge 76, Type (0, 0), BuildingBlock: AJUNOK_clean_linker_0, # of connection points: 2
#     Edge 77, Type (0, 0), BuildingBlock: AJUNOK_clean_linker_0, # of connection points: 2
#     Edge 78, Type (0, 0), BuildingBlock: AJUNOK_clean_linker_0, # of connection points: 2
#     Edge 79, Type (0, 0), BuildingBlock: AJUNOK_clean_linker_0, # of connection points: 2
#     Edge 80, Type (0, 0), BuildingBlock: AJUNOK_clean_linker_0, # of connection points: 2
#     Edge 81, Type (0, 0), BuildingBlock: AJUNOK_clean_linker_0, # of connection points: 2
#     Edge 82, Type (0, 0), BuildingBlock: AJUNOK_clean_linker_0, # of connection points: 2
#     Edge 83, Type (0, 0), BuildingBlock: AJUNOK_clean_linker_0, # of connection points: 2
#     Edge 84, Type (0, 0), BuildingBlock: AJUNOK_clean_linker_0, # of connection points: 2
#     Edge 85, Type (0, 0), BuildingBlock: AJUNOK_clean_linker_0, # of connection points: 2
#     Edge 86, Type (0, 0), BuildingBlock: AJUNOK_clean_linker_0, # of connection points: 2
#     Edge 87, Type (0, 0), BuildingBlock: AJUNOK_clean_linker_0, # of connection points: 2
#     Edge 88, Type (0, 0), BuildingBlock: AJUNOK_clean_linker_0, # of connection points: 2
#     Edge 89, Type (0, 0), BuildingBlock: AJUNOK_clean_linker_0, # of connection points: 2
#     Edge 90, Type (0, 0), BuildingBlock: AJUNOK_clean_linker_0, # of connection points: 2
#     Edge 91, Type (0, 0), BuildingBlock: AJUNOK_clean_linker_0, # of connection points: 2
#     Edge 92, Type (0, 0), BuildingBlock: AJUNOK_clean_linker_0, # of connection points: 2
#     Edge 93, Type (0, 0), BuildingBlock: AJUNOK_clean_linker_0, # of connection points: 2
#     Edge 94, Type (0, 0), BuildingBlock: AJUNOK_clean_linker_0, # of connection points: 2
#     Edge 95, Type (0, 0), BuildingBlock: AJUNOK_clean_linker_0, # of connection points: 2
# Relax obj value: 0.133
# Max RMSD: 0.180
# Mean RMSD: 0.166
data_MOF--net-uow--node1-KUFVIS_clean_sbu_0--edge1-AJUNOK_clean_linker_0
_symmetry_space_group_name_H-M    P1
_symmetry_Int_Tables_number       1
_symmetry_cell_setting            triclinic
loop_
_symmetry_equiv_pos_as_xyz
'x, y, z'
_cell_length_a     44.641511
_cell_length_b     46.381966
_cell_length_c     30.010078
_cell_angle_alpha  89.962986
_cell_angle_beta   89.989603
_cell_angle_gamma 90.005364
loop_
_atom_site_label
_atom_site_type_symbol
_atom_site_fract_x
_atom_site_fract_y
_atom_site_fract_z
_atom_type_partial_charge
Mn0 Mn 0.05179 0.38027 0.28972 0.0
Mn1 Mn 0.9946 0.39125 0.21948 0.0
C2 C 0.00319 0.38287 0.31661 0.0
C3 C 0.08116 0.34691 0.32709 0.0
C4 C 0.03859 0.43796 0.24736 0.0
O5 O 0.07005 0.37177 0.22857 0.0
O6 O 0.02825 0.373 0.18606 0.0
C7 C 0.97874 0.3301 0.20411 0.0
N8 N 0.97052 0.35717 0.21662 0.0
C9 C 0.92113 0.34079 0.23661 0.0
C10 C 0.92873 0.313 0.22213 0.0
C11 C 0.95775 0.3076 0.20611 0.0
C12 C 0.94287 0.36246 0.23315 0.0
H13 H 0.00136 0.32559 0.19389 0.0
C14 C 0.05636 0.3682 0.19151 0.0
O15 O 0.09068 0.3732 0.32172 0.0
O16 O 0.05625 0.33991 0.30808 0.0
N17 N 0.96082 0.4085 0.24847 0.0
C18 C 0.95798 0.43573 0.265 0.0
C19 C 0.93084 0.4442 0.28465 0.0
C20 C 0.90694 0.42459 0.2873 0.0
C21 C 0.91032 0.39673 0.26991 0.0
C22 C 0.93771 0.38968 0.2499 0.0
H23 H 0.97631 0.45087 0.26339 0.0
O24 O 0.02562 0.38705 0.34322 0.0
O25 O 0.01034 0.37764 0.27563 0.0
O26 O 0.05276 0.42335 0.2766 0.0
O27 O 0.01789 0.4276 0.22253 0.0
C28 C 0.88784 0.37549 0.27259 0.0
C29 C 0.89326 0.34752 0.25604 0.0
H30 H 0.91274 0.29549 0.22432 0.0
H31 H 0.96408 0.28603 0.19608 0.0
H32 H 0.92843 0.46572 0.29811 0.0
H33 H 0.8862 0.43106 0.30314 0.0
H34 H 0.86649 0.38028 0.28807 0.0
H35 H 0.87605 0.33119 0.25922 0.0
Mn36 Mn 0.87364 0.80484 0.55331 0.0
Mn37 Mn 0.85024 0.87354 0.5478 0.0
C38 C 0.90405 0.84082 0.58381 0.0
C39 C 0.87435 0.76046 0.59053 0.0
C40 C 0.87589 0.84071 0.46906 0.0
O41 O 0.82935 0.80124 0.53653 0.0
O42 O 0.81502 0.8472 0.54775 0.0
C43 C 0.82076 0.87776 0.63595 0.0
N44 N 0.84077 0.88804 0.60565 0.0
C45 C 0.85214 0.92892 0.65188 0.0
C46 C 0.83094 0.91926 0.68301 0.0
C47 C 0.81555 0.8933 0.67535 0.0
C48 C 0.85695 0.91206 0.6139 0.0
H49 H 0.80907 0.85778 0.63011 0.0
C50 C 0.80921 0.82065 0.53967 0.0
O51 O 0.87961 0.76226 0.54804 0.0
O52 O 0.86708 0.78419 0.61058 0.0
N53 N 0.88121 0.90208 0.54704 0.0
C54 C 0.89978 0.90931 0.51264 0.0
C55 C 0.91757 0.93419 0.51575 0.0
C56 C 0.91536 0.95199 0.55342 0.0
C57 C 0.89508 0.94493 0.58737 0.0
C58 C 0.87821 0.91962 0.58273 0.0
H59 H 0.90112 0.89627 0.48299 0.0
O60 O 0.91456 0.81567 0.57332 0.0
O61 O 0.87545 0.84408 0.57651 0.0
O62 O 0.88393 0.81836 0.49062 0.0
O63 O 0.86057 0.86111 0.48634 0.0
C64 C 0.8902 0.96253 0.62488 0.0
C65 C 0.86856 0.95468 0.65687 0.0
H66 H 0.82654 0.93142 0.71311 0.0
H67 H 0.79955 0.88542 0.69956 0.0
H68 H 0.9327 0.93982 0.48893 0.0
H69 H 0.92888 0.97134 0.55549 0.0
H70 H 0.90272 0.98235 0.62921 0.0
H71 H 0.86475 0.96865 0.68522 0.0
Mn72 Mn 0.44932 0.6232 0.79518 0.0
Mn73 Mn 0.50717 0.61228 0.72592 0.0
C74 C 0.49744 0.61862 0.82299 0.0
C75 C 0.42046 0.65589 0.83481 0.0
C76 C 0.46188 0.56585 0.75018 0.0
O77 O 0.43252 0.63514 0.73462 0.0
O78 O 0.47429 0.63167 0.69247 0.0
C79 C 0.52416 0.67332 0.71162 0.0
N80 N 0.53164 0.64616 0.72481 0.0
C81 C 0.5807 0.66191 0.74753 0.0
C82 C 0.5738 0.68983 0.73286 0.0
C83 C 0.54535 0.69558 0.715 0.0
C84 C 0.55884 0.64047 0.74262 0.0
H85 H 0.50199 0.67811 0.69949 0.0
C86 C 0.44674 0.63879 0.69798 0.0
O87 O 0.41022 0.63017 0.82663 0.0
O88 O 0.44589 0.66286 0.81732 0.0
N89 N 0.54031 0.5943 0.7555 0.0
C90 C 0.54251 0.56691 0.77166 0.0
C91 C 0.56907 0.55807 0.79266 0.0
C92 C 0.59302 0.57749 0.79705 0.0
C93 C 0.59026 0.60555 0.78013 0.0
C94 C 0.56344 0.613 0.75882 0.0
H95 H 0.5241 0.55194 0.76884 0.0
O96 O 0.4746 0.61361 0.84854 0.0
O97 O 0.49091 0.62514 0.78222 0.0
O98 O 0.44699 0.58063 0.77837 0.0
O99 O 0.48353 0.57601 0.72697 0.0
C100 C 0.6128 0.6266 0.78454 0.0
C101 C 0.60802 0.65477 0.76829 0.0
H102 H 0.58993 0.70716 0.73606 0.0
H103 H 0.53962 0.71722 0.70449 0.0
H104 H 0.57097 0.53642 0.80583 0.0
H105 H 0.6133 0.57072 0.81389 0.0
H106 H 0.63372 0.6215 0.80104 0.0
H107 H 0.6253 0.67092 0.77265 0.0
Mn108 Mn 0.6269 0.20044 0.04796 0.0
Mn109 Mn 0.65265 0.13185 0.04846 0.0
C110 C 0.59989 0.1649 0.08455 0.0
C111 C 0.62371 0.247 0.07691 0.0
C112 C 0.61762 0.15662 0.97187 0.0
O113 O 0.67005 0.20599 0.02676 0.0
O114 O 0.68292 0.15924 0.0256 0.0
C115 C 0.69727 0.1424 0.11956 0.0
N116 N 0.67338 0.12727 0.10371 0.0
C117 C 0.67365 0.09604 0.16765 0.0
C118 C 0.69825 0.11124 0.18469 0.0
C119 C 0.70996 0.13468 0.16069 0.0
C120 C 0.6612 0.10544 0.12736 0.0
H121 H 0.70664 0.16016 0.10094 0.0
C122 C 0.68857 0.18582 0.01855 0.0
O123 O 0.61725 0.24151 0.03563 0.0
O124 O 0.63371 0.22573 0.10081 0.0
N125 N 0.62697 0.10169 0.06913 0.0
C126 C 0.60721 0.08602 0.04441 0.0
C127 C 0.59382 0.06135 0.06281 0.0
C128 C 0.60257 0.05176 0.10517 0.0
C129 C 0.62516 0.06656 0.12812 0.0
C130 C 0.63685 0.09166 0.10881 0.0
H131 H 0.60164 0.09233 0.01077 0.0
O132 O 0.58753 0.18896 0.07284 0.0
O133 O 0.62854 0.16248 0.07648 0.0
O134 O 0.61546 0.18199 0.98817 0.0
O135 O 0.63064 0.13558 0.99151 0.0
C136 C 0.63784 0.05628 0.16796 0.0
C137 C 0.66168 0.07131 0.18822 0.0
H138 H 0.70852 0.10492 0.2159 0.0
H139 H 0.72898 0.14651 0.17355 0.0
H140 H 0.57738 0.04935 0.0439 0.0
H141 H 0.59277 0.03231 0.11885 0.0
H142 H 0.62981 0.03643 0.18275 0.0
H143 H 0.67122 0.06317 0.21895 0.0
Mn144 Mn 0.05019 0.62082 0.20612 0.0
Mn145 Mn 0.99501 0.60787 0.27931 0.0
C146 C 0.00094 0.61906 0.18222 0.0
C147 C 0.07918 0.65476 0.1697 0.0
C148 C 0.03765 0.56187 0.24486 0.0
O149 O 0.07018 0.62778 0.26629 0.0
O150 O 0.02988 0.62463 0.31167 0.0
C151 C 0.98018 0.66799 0.30396 0.0
N152 N 0.97156 0.64199 0.28727 0.0
C153 C 0.92195 0.65978 0.27203 0.0
C154 C 0.93018 0.68659 0.28979 0.0
C155 C 0.95945 0.69072 0.30573 0.0
C156 C 0.94348 0.63781 0.27166 0.0
H157 H 0.00281 0.67146 0.3153 0.0
C158 C 0.05769 0.62996 0.30446 0.0
O159 O 0.08838 0.62822 0.17278 0.0
O160 O 0.05459 0.66155 0.18983 0.0
N161 N 0.96014 0.59216 0.25113 0.0
C162 C 0.95642 0.56573 0.2321 0.0
C163 C 0.9287 0.55852 0.21304 0.0
C164 C 0.90514 0.57858 0.21355 0.0
C165 C 0.90944 0.6056 0.23346 0.0
C166 C 0.93741 0.6114 0.25261 0.0
H167 H 0.97451 0.55031 0.23118 0.0
O168 O 0.02261 0.61546 0.154 0.0
O169 O 0.00913 0.62332 0.2231 0.0
O170 O 0.05139 0.57746 0.21643 0.0
O171 O 0.0176 0.57141 0.27155 0.0
C172 C 0.88729 0.62722 0.23418 0.0
C173 C 0.89354 0.6543 0.25342 0.0
H174 H 0.91436 0.70429 0.29069 0.0
H175 H 0.9661 0.71147 0.31892 0.0
H176 H 0.92559 0.53766 0.19758 0.0
H177 H 0.88393 0.57309 0.1982 0.0
H178 H 0.8655 0.6234 0.21944 0.0
H179 H 0.87649 0.67091 0.25312 0.0
Mn180 Mn 0.62558 0.7996 0.45382 0.0
Mn181 Mn 0.64959 0.8687 0.45351 0.0
C182 C 0.59665 0.83518 0.42007 0.0
C183 C 0.62286 0.75319 0.42293 0.0
C184 C 0.61786 0.84232 0.53213 0.0
O185 O 0.66954 0.79473 0.47153 0.0
O186 O 0.68092 0.8418 0.47439 0.0
C187 C 0.69311 0.86 0.38036 0.0
N188 N 0.66927 0.87449 0.39773 0.0
C189 C 0.66947 0.90821 0.33696 0.0
C190 C 0.694 0.89369 0.31833 0.0
C191 C 0.70567 0.86927 0.33992 0.0
C192 C 0.657 0.89716 0.37622 0.0
H193 H 0.7026 0.84163 0.39737 0.0
C194 C 0.68752 0.8153 0.48011 0.0
O195 O 0.61772 0.75775 0.46491 0.0
O196 O 0.63091 0.7754 0.39948 0.0
N197 N 0.62292 0.89861 0.43494 0.0
C198 C 0.60277 0.91303 0.46077 0.0
C199 C 0.58911 0.93817 0.4445 0.0
C200 C 0.59804 0.94956 0.40331 0.0
C201 C 0.62088 0.93592 0.37924 0.0
C202 C 0.63266 0.91014 0.39615 0.0
H203 H 0.5972 0.90546 0.49377 0.0
O204 O 0.58509 0.81084 0.43234 0.0
O205 O 0.62546 0.83793 0.42611 0.0
O206 O 0.61629 0.81694 0.51558 0.0
O207 O 0.62892 0.86383 0.51106 0.0
C208 C 0.63377 0.94797 0.34075 0.0
C209 C 0.65769 0.93387 0.31912 0.0
H210 H 0.70425 0.90128 0.28778 0.0
H211 H 0.72466 0.85797 0.32587 0.0
H212 H 0.57243 0.94923 0.46431 0.0
H213 H 0.58813 0.96945 0.39142 0.0
H214 H 0.62577 0.96841 0.32797 0.0
H215 H 0.66738 0.94336 0.28945 0.0
Mn216 Mn 0.44575 0.38367 0.7008 0.0
Mn217 Mn 0.50249 0.39393 0.77247 0.0
C218 C 0.49482 0.38386 0.67546 0.0
C219 C 0.41501 0.35082 0.66442 0.0
C220 C 0.46057 0.44169 0.74148 0.0
O221 O 0.42659 0.37631 0.76163 0.0
O222 O 0.46775 0.37758 0.80552 0.0
C223 C 0.51636 0.33335 0.79601 0.0
N224 N 0.52511 0.35911 0.77851 0.0
C225 C 0.57395 0.34029 0.76094 0.0
C226 C 0.56556 0.31369 0.7793 0.0
C227 C 0.53663 0.31021 0.79692 0.0
C228 C 0.55293 0.3627 0.76155 0.0
H229 H 0.49398 0.33038 0.80866 0.0
C230 C 0.4397 0.37303 0.79921 0.0
O231 O 0.40679 0.3776 0.66842 0.0
O232 O 0.43977 0.34321 0.68329 0.0
N233 N 0.53726 0.40908 0.74327 0.0
C234 C 0.54143 0.4357 0.72504 0.0
C235 C 0.56903 0.44247 0.70518 0.0
C236 C 0.59203 0.42181 0.70418 0.0
C237 C 0.58725 0.39459 0.72323 0.0
C238 C 0.5594 0.38919 0.74305 0.0
H239 H 0.52381 0.45163 0.72547 0.0
O240 O 0.47296 0.38871 0.64801 0.0
O241 O 0.48688 0.37973 0.71645 0.0
O242 O 0.44612 0.4271 0.71255 0.0
O243 O 0.48078 0.43106 0.76691 0.0
C244 C 0.60881 0.37241 0.72252 0.0
C245 C 0.60216 0.34528 0.74134 0.0
H246 H 0.58101 0.29568 0.77954 0.0
H247 H 0.52986 0.28965 0.81067 0.0
H248 H 0.57252 0.46351 0.69046 0.0
H249 H 0.61317 0.42701 0.6884 0.0
H250 H 0.63048 0.37591 0.70719 0.0
H251 H 0.61881 0.32831 0.74019 0.0
Mn252 Mn 0.87438 0.1956 0.94107 0.0
Mn253 Mn 0.84825 0.12739 0.94459 0.0
C254 C 0.90355 0.15818 0.91297 0.0
C255 C 0.87904 0.23977 0.9045 0.0
C256 C 0.87679 0.15701 0.02404 0.0
O257 O 0.83001 0.20193 0.95527 0.0
O258 O 0.81557 0.1556 0.95388 0.0
C259 C 0.81292 0.13211 0.86147 0.0
N260 N 0.83398 0.11823 0.88633 0.0
C261 C 0.83964 0.08146 0.8307 0.0
C262 C 0.81746 0.09491 0.80496 0.0
C263 C 0.80437 0.12062 0.82012 0.0
C264 C 0.84801 0.09451 0.87082 0.0
H265 H 0.80285 0.15187 0.873 0.0
C266 C 0.80997 0.18246 0.95818 0.0
O267 O 0.88272 0.23776 0.94733 0.0
O268 O 0.87089 0.2166 0.88367 0.0
N269 N 0.8762 0.09663 0.93601 0.0
C270 C 0.8941 0.08411 0.96732 0.0
C271 C 0.90922 0.05838 0.95723 0.0
C272 C 0.9045 0.04488 0.91601 0.0
C273 C 0.88406 0.05685 0.88578 0.0
C274 C 0.87023 0.08293 0.89723 0.0
H275 H 0.89698 0.09374 0.99979 0.0
O276 O 0.91527 0.18277 0.9235 0.0
O277 O 0.87459 0.15636 0.91755 0.0
O278 O 0.88185 0.181 0.00448 0.0
O279 O 0.86383 0.13558 0.00526 0.0
C280 C 0.87553 0.043 0.84603 0.0
C281 C 0.85325 0.05528 0.8186 0.0
H282 H 0.8104 0.08576 0.77346 0.0
H283 H 0.78751 0.13137 0.80023 0.0
H284 H 0.92408 0.04871 0.98151 0.0
H285 H 0.91577 0.02476 0.90866 0.0
H286 H 0.8855 0.02259 0.8367 0.0
H287 H 0.84635 0.04418 0.78858 0.0
Mn288 Mn 0.94776 0.62496 0.71841 0.0
Mn289 Mn 0.00089 0.60755 0.79359 0.0
C290 C 0.99691 0.61989 0.69491 0.0
C291 C 0.91937 0.66074 0.68388 0.0
C292 C 0.95652 0.56431 0.75564 0.0
O293 O 0.92751 0.63305 0.77755 0.0
O294 O 0.96569 0.62434 0.8245 0.0
C295 C 0.01679 0.66554 0.82734 0.0
N296 N 0.02509 0.64019 0.80803 0.0
C297 C 0.07714 0.65351 0.8105 0.0
C298 C 0.06918 0.67971 0.83059 0.0
C299 C 0.03884 0.68585 0.83863 0.0
C300 C 0.05414 0.63426 0.79946 0.0
H301 H 0.99353 0.67019 0.83417 0.0
C302 C 0.9389 0.6326 0.81645 0.0
O303 O 0.91008 0.6342 0.68495 0.0
O304 O 0.9448 0.66638 0.70266 0.0
N305 N 0.0365 0.59145 0.76862 0.0
C306 C 0.04036 0.56519 0.74914 0.0
C307 C 0.06944 0.5556 0.73939 0.0
C308 C 0.09415 0.57309 0.7499 0.0
C309 C 0.0896 0.60024 0.76904 0.0
C310 C 0.06017 0.60848 0.77854 0.0
H311 H 0.02147 0.5514 0.74207 0.0
O312 O 0.97471 0.61807 0.66716 0.0
O313 O 0.98968 0.62519 0.73629 0.0
O314 O 0.94353 0.58122 0.72817 0.0
O315 O 0.97765 0.57226 0.7815 0.0
C316 C 0.11318 0.61914 0.78005 0.0
C317 C 0.10694 0.64584 0.80056 0.0
H318 H 0.08613 0.69537 0.83961 0.0
H319 H 0.03247 0.70614 0.85364 0.0
H320 H 0.07283 0.53454 0.72474 0.0
H321 H 0.11658 0.56527 0.74414 0.0
H322 H 0.1362 0.61334 0.77291 0.0
H323 H 0.12522 0.66027 0.80865 0.0
Mn324 Mn 0.12495 0.20444 0.44911 0.0
Mn325 Mn 0.1353 0.25715 0.52456 0.0
C326 C 0.12902 0.25183 0.42626 0.0
C327 C 0.09157 0.17669 0.40803 0.0
C328 C 0.1847 0.21683 0.49424 0.0
O329 O 0.11325 0.18514 0.50735 0.0
O330 O 0.11892 0.2224 0.55487 0.0
C331 C 0.07208 0.26837 0.54899 0.0
N332 N 0.09858 0.27787 0.53189 0.0
C333 C 0.07818 0.32515 0.51886 0.0
C334 C 0.05073 0.31592 0.53657 0.0
C335 C 0.04766 0.28738 0.55159 0.0
C336 C 0.1018 0.3053 0.51743 0.0
H337 H 0.06955 0.24643 0.56045 0.0
C338 C 0.11176 0.19622 0.54622 0.0
O339 O 0.1188 0.16772 0.41481 0.0
O340 O 0.08375 0.2007 0.42652 0.0
N341 N 0.15045 0.29194 0.49864 0.0
C342 C 0.17816 0.29721 0.48141 0.0
C343 C 0.18467 0.3246 0.46394 0.0
C344 C 0.16267 0.34625 0.4644 0.0
C345 C 0.13437 0.34036 0.48255 0.0
C346 C 0.12925 0.31275 0.49981 0.0
H347 H 0.19508 0.28058 0.48071 0.0
O348 O 0.13439 0.231 0.39858 0.0
O349 O 0.12173 0.244 0.46638 0.0
O350 O 0.16936 0.20253 0.46594 0.0
O351 O 0.17413 0.23728 0.51806 0.0
C352 C 0.11095 0.36071 0.48371 0.0
C353 C 0.08289 0.35312 0.50192 0.0
H354 H 0.0318 0.33048 0.53845 0.0
H355 H 0.0265 0.28005 0.56509 0.0
H356 H 0.20655 0.32896 0.44994 0.0
H357 H 0.16771 0.36727 0.45056 0.0
H358 H 0.11422 0.38221 0.47048 0.0
H359 H 0.065 0.3689 0.50241 0.0
Mn360 Mn 0.54491 0.3761 0.21255 0.0
Mn361 Mn 0.49235 0.38929 0.29075 0.0
C362 C 0.49546 0.38095 0.19107 0.0
C363 C 0.57372 0.34324 0.17241 0.0
C364 C 0.53361 0.4355 0.2539 0.0
O365 O 0.56594 0.3652 0.26984 0.0
O366 O 0.52931 0.37397 0.3194 0.0
C367 C 0.48137 0.32963 0.32223 0.0
N368 N 0.47084 0.35484 0.3049 0.0
C369 C 0.41993 0.33804 0.30946 0.0
C370 C 0.43021 0.312 0.32766 0.0
C371 C 0.46109 0.30769 0.33364 0.0
C372 C 0.44123 0.35905 0.2984 0.0
H373 H 0.50504 0.32629 0.3274 0.0
C374 C 0.55561 0.36507 0.30935 0.0
O375 O 0.58273 0.36963 0.17787 0.0
O376 O 0.54852 0.33596 0.19054 0.0
N377 N 0.45506 0.40341 0.26833 0.0
C378 C 0.44892 0.42933 0.24904 0.0
C379 C 0.41905 0.43672 0.23983 0.0
C380 C 0.39591 0.41742 0.25072 0.0
C381 C 0.4028 0.39075 0.26997 0.0
C382 C 0.4329 0.38468 0.27873 0.0
H383 H 0.46663 0.4444 0.24134 0.0
O384 O 0.51727 0.38506 0.16317 0.0
O385 O 0.50325 0.37382 0.23162 0.0
O386 O 0.54813 0.4194 0.22701 0.0
O387 O 0.51263 0.42635 0.27908 0.0
C388 C 0.3809 0.37011 0.28128 0.0
C389 C 0.38947 0.34374 0.30094 0.0
H390 H 0.41464 0.29504 0.33662 0.0
H391 H 0.46923 0.28753 0.34718 0.0
H392 H 0.41386 0.45742 0.2251 0.0
H393 H 0.37285 0.42333 0.2449 0.0
H394 H 0.35742 0.37425 0.2748 0.0
H395 H 0.37249 0.32791 0.30909 0.0
Mn396 Mn 0.37398 0.79692 0.95645 0.0
Mn397 Mn 0.36545 0.74529 0.03422 0.0
C398 C 0.37067 0.74925 0.9354 0.0
C399 C 0.40612 0.82497 0.91412 0.0
C400 C 0.31519 0.78453 0.00377 0.0
O401 O 0.38593 0.81712 0.01347 0.0
O402 O 0.38179 0.78068 0.06297 0.0
C403 C 0.42881 0.73481 0.0587 0.0
N404 N 0.40245 0.72502 0.04154 0.0
C405 C 0.42327 0.67781 0.02946 0.0
C406 C 0.45061 0.68736 0.04713 0.0
C407 C 0.45337 0.71598 0.06185 0.0
C408 C 0.39946 0.69743 0.02774 0.0
H409 H 0.43111 0.75682 0.0699 0.0
C410 C 0.38853 0.80673 0.05262 0.0
O411 O 0.37874 0.83337 0.92122 0.0
O412 O 0.41474 0.80122 0.9327 0.0
N413 N 0.35047 0.71005 0.00961 0.0
C414 C 0.32276 0.70437 0.99276 0.0
C415 C 0.31651 0.67682 0.97577 0.0
C416 C 0.33879 0.65543 0.97628 0.0
C417 C 0.3671 0.66175 0.99398 0.0
C418 C 0.37198 0.68953 0.01071 0.0
H419 H 0.30563 0.72081 0.99196 0.0
O420 O 0.36446 0.7696 0.90718 0.0
O421 O 0.37826 0.75772 0.97511 0.0
O422 O 0.32994 0.79839 0.97435 0.0
O423 O 0.32629 0.76462 0.02815 0.0
C424 C 0.39079 0.64169 0.99518 0.0
C425 C 0.41883 0.64969 0.01302 0.0
H426 H 0.46967 0.67298 0.04927 0.0
H427 H 0.47441 0.72354 0.07543 0.0
H428 H 0.29462 0.67213 0.96207 0.0
H429 H 0.33394 0.63428 0.96282 0.0
H430 H 0.38772 0.62007 0.98233 0.0
H431 H 0.43688 0.63409 0.01367 0.0
Mn432 Mn 0.95318 0.37958 0.78529 0.0
Mn433 Mn 0.00273 0.40207 0.70869 0.0
C434 C 0.00245 0.38636 0.80729 0.0
C435 C 0.92738 0.34092 0.81692 0.0
C436 C 0.95549 0.44073 0.75062 0.0
O437 O 0.93236 0.3727 0.72625 0.0
O438 O 0.9703 0.38017 0.6783 0.0
C439 C 0.02803 0.34807 0.67203 0.0
N440 N 0.03198 0.37369 0.69345 0.0
C441 C 0.08562 0.3689 0.68995 0.0
C442 C 0.08212 0.34236 0.66817 0.0
C443 C 0.0532 0.33184 0.65942 0.0
C444 C 0.05971 0.38392 0.70232 0.0
H445 H 0.00585 0.34016 0.66446 0.0
C446 C 0.9438 0.37133 0.68743 0.0
O447 O 0.91669 0.36695 0.81898 0.0
O448 O 0.95287 0.33754 0.797 0.0
N449 N 0.03529 0.42322 0.73398 0.0
C450 C 0.03477 0.44968 0.75371 0.0
C451 C 0.06181 0.46392 0.76259 0.0
C452 C 0.08904 0.45085 0.75097 0.0
C453 C 0.08913 0.42318 0.73222 0.0
C454 C 0.06144 0.41017 0.72368 0.0
H455 H 0.01393 0.46029 0.76145 0.0
O456 O 0.98065 0.38593 0.83591 0.0
O457 O 0.99464 0.38233 0.76574 0.0
O458 O 0.94637 0.42319 0.78037 0.0
O459 O 0.97446 0.43386 0.72072 0.0
C460 C 0.11552 0.40844 0.72024 0.0
C461 C 0.11377 0.3812 0.69945 0.0
H462 H 0.10147 0.32989 0.658 0.0
H463 H 0.05033 0.31136 0.64274 0.0
H464 H 0.06165 0.48524 0.77724 0.0
H465 H 0.10965 0.46264 0.75557 0.0
H466 H 0.13728 0.41793 0.7266 0.0
H467 H 0.13422 0.3701 0.69032 0.0
Mn468 Mn 0.37365 0.20621 0.54613 0.0
Mn469 Mn 0.36141 0.25919 0.47159 0.0
C470 C 0.36876 0.25338 0.56984 0.0
C471 C 0.4077 0.17811 0.58533 0.0
C472 C 0.3132 0.21774 0.50263 0.0
O473 O 0.38494 0.18757 0.48723 0.0
O474 O 0.37879 0.22518 0.44051 0.0
C475 C 0.42437 0.27226 0.44801 0.0
N476 N 0.39738 0.28105 0.46427 0.0
C477 C 0.41623 0.32888 0.47765 0.0
C478 C 0.44414 0.32039 0.46069 0.0
C479 C 0.44825 0.29192 0.44601 0.0
C480 C 0.3932 0.30838 0.47859 0.0
H481 H 0.42771 0.25035 0.4369 0.0
C482 C 0.38634 0.19902 0.4486 0.0
O483 O 0.38044 0.16914 0.57905 0.0
O484 O 0.41515 0.20256 0.56775 0.0
N485 N 0.34518 0.29335 0.49801 0.0
C486 C 0.31747 0.29758 0.51589 0.0
C487 C 0.3101 0.32466 0.53368 0.0
C488 C 0.33127 0.34707 0.53292 0.0
C489 C 0.35958 0.34224 0.5141 0.0
C490 C 0.36554 0.31491 0.49642 0.0
H491 H 0.3012 0.28036 0.51696 0.0
O492 O 0.36438 0.23224 0.59742 0.0
O493 O 0.37588 0.24602 0.52945 0.0
O494 O 0.32916 0.20377 0.53053 0.0
O495 O 0.32315 0.23818 0.47816 0.0
C496 C 0.3823 0.36332 0.51295 0.0
C497 C 0.41059 0.35665 0.49471 0.0
H498 H 0.46267 0.33545 0.4593 0.0
H499 H 0.46982 0.28512 0.43337 0.0
H500 H 0.28824 0.32819 0.54829 0.0
H501 H 0.32561 0.36782 0.54717 0.0
H502 H 0.37836 0.38463 0.52649 0.0
H503 H 0.42799 0.37293 0.49452 0.0
Mn504 Mn 0.54652 0.61861 0.29711 0.0
Mn505 Mn 0.49148 0.60727 0.22296 0.0
C506 C 0.49762 0.61403 0.32415 0.0
C507 C 0.57606 0.65211 0.33531 0.0
C508 C 0.53392 0.56014 0.25421 0.0
O509 O 0.56605 0.63075 0.23904 0.0
O510 O 0.52729 0.62355 0.1932 0.0
C511 C 0.48019 0.66855 0.20034 0.0
N512 N 0.46981 0.64239 0.2141 0.0
C513 C 0.419 0.65962 0.21474 0.0
C514 C 0.4291 0.68671 0.2004 0.0
C515 C 0.45986 0.69122 0.19335 0.0
C516 C 0.44038 0.63797 0.22168 0.0
H517 H 0.50378 0.67208 0.19456 0.0
C518 C 0.55414 0.63161 0.20065 0.0
O519 O 0.58515 0.62569 0.33013 0.0
O520 O 0.55025 0.65877 0.31888 0.0
N521 N 0.45449 0.59181 0.24405 0.0
C522 C 0.44831 0.56414 0.25632 0.0
C523 C 0.41839 0.55559 0.26211 0.0
C524 C 0.39514 0.57552 0.25511 0.0
C525 C 0.40199 0.60384 0.24257 0.0
C526 C 0.43217 0.61095 0.23623 0.0
H527 H 0.46602 0.54854 0.26073 0.0
O528 O 0.52092 0.60779 0.34802 0.0
O529 O 0.50373 0.62129 0.28285 0.0
O530 O 0.5494 0.5758 0.28055 0.0
O531 O 0.51227 0.56983 0.23068 0.0
C532 C 0.38003 0.6252 0.23564 0.0
C533 C 0.38856 0.65316 0.22209 0.0
H534 H 0.41346 0.70416 0.19458 0.0
H535 H 0.46784 0.71206 0.18223 0.0
H536 H 0.41323 0.5336 0.27145 0.0
H537 H 0.37207 0.56881 0.25902 0.0
H538 H 0.35653 0.62036 0.24068 0.0
H539 H 0.3715 0.66944 0.21696 0.0
Mn540 Mn 0.12622 0.79917 0.0539 0.0
Mn541 Mn 0.13766 0.74596 0.97953 0.0
C542 C 0.12868 0.75182 0.07721 0.0
C543 C 0.09233 0.82777 0.09243 0.0
C544 C 0.18686 0.7854 0.0129 0.0
O545 O 0.11699 0.81852 0.99481 0.0
O546 O 0.12289 0.78088 0.94811 0.0
C547 C 0.07483 0.73595 0.95199 0.0
N548 N 0.10076 0.72592 0.9702 0.0
C549 C 0.07911 0.67903 0.98218 0.0
C550 C 0.05225 0.6888 0.96322 0.0
C551 C 0.05007 0.71743 0.94827 0.0
C552 C 0.10308 0.69844 0.98482 0.0
H553 H 0.07299 0.75796 0.94059 0.0
C554 C 0.11637 0.80729 0.95601 0.0
O555 O 0.11994 0.83612 0.08746 0.0
O556 O 0.08448 0.80389 0.07355 0.0
N557 N 0.15145 0.71096 0.00641 0.0
C558 C 0.17863 0.70518 0.025 0.0
C559 C 0.18423 0.67765 0.04262 0.0
C560 C 0.16184 0.65638 0.04093 0.0
C561 C 0.13411 0.66278 0.02135 0.0
C562 C 0.12993 0.6905 0.00394 0.0
H563 H 0.19584 0.72151 0.02664 0.0
O564 O 0.13344 0.7726 0.10523 0.0
O565 O 0.12275 0.75965 0.03664 0.0
O566 O 0.17103 0.80008 0.04009 0.0
O567 O 0.17661 0.7652 0.98828 0.0
C568 C 0.11033 0.64287 0.01893 0.0
C569 C 0.08286 0.65098 0.99932 0.0
H570 H 0.03306 0.67462 0.96047 0.0
H571 H 0.02931 0.72523 0.93408 0.0
H572 H 0.20568 0.67288 0.05772 0.0
H573 H 0.16615 0.63525 0.05493 0.0
H574 H 0.11286 0.6213 0.03229 0.0
H575 H 0.06468 0.63554 0.99794 0.0
Mn576 Mn 0.55095 0.88023 0.79659 0.0
Mn577 Mn 0.49504 0.8897 0.72279 0.0
C578 C 0.50169 0.88114 0.82028 0.0
C579 C 0.5809 0.8484 0.83653 0.0
C580 C 0.53591 0.93797 0.75407 0.0
O581 O 0.571 0.87142 0.73701 0.0
O582 O 0.53095 0.87482 0.69092 0.0
C583 C 0.48357 0.82912 0.69683 0.0
N584 N 0.47382 0.85421 0.7154 0.0
C585 C 0.42556 0.8335 0.73139 0.0
C586 C 0.4351 0.80745 0.71242 0.0
C587 C 0.46422 0.80528 0.69499 0.0
C588 C 0.44572 0.85663 0.7318 0.0
H589 H 0.50595 0.82731 0.68363 0.0
C590 C 0.55863 0.86937 0.69873 0.0
O591 O 0.58931 0.87499 0.83083 0.0
O592 O 0.55654 0.84023 0.81704 0.0
N593 N 0.45924 0.90351 0.75073 0.0
C594 C 0.45379 0.92988 0.769 0.0
C595 C 0.42574 0.93549 0.78831 0.0
C596 C 0.40364 0.91393 0.78875 0.0
C597 C 0.40974 0.88698 0.76964 0.0
C598 C 0.43798 0.88275 0.7504 0.0
H599 H 0.47077 0.94645 0.7691 0.0
O600 O 0.52319 0.88673 0.848 0.0
O601 O 0.50998 0.87588 0.77969 0.0
O602 O 0.55097 0.92339 0.78237 0.0
O603 O 0.51527 0.92737 0.72949 0.0
C604 C 0.38909 0.86401 0.76961 0.0
C605 C 0.39699 0.83729 0.75048 0.0
H606 H 0.42034 0.78892 0.71135 0.0
H607 H 0.4718 0.78522 0.68044 0.0
H608 H 0.42123 0.95632 0.8031 0.0
H609 H 0.38214 0.91824 0.80411 0.0
H610 H 0.36714 0.86659 0.78447 0.0
H611 H 0.38099 0.81973 0.75089 0.0
Mn612 Mn 0.3741 0.30421 0.04529 0.0
Mn613 Mn 0.34882 0.3728 0.04143 0.0
C614 C 0.40256 0.34086 0.07773 0.0
C615 C 0.37757 0.2592 0.08025 0.0
C616 C 0.37849 0.34337 0.96315 0.0
O617 O 0.33014 0.29848 0.02861 0.0
O618 O 0.31616 0.34507 0.02912 0.0
C619 C 0.31004 0.3699 0.12128 0.0
N620 N 0.33297 0.38253 0.09856 0.0
C621 C 0.33812 0.41939 0.15431 0.0
C622 C 0.31455 0.40682 0.17836 0.0
C623 C 0.30064 0.3818 0.16197 0.0
C624 C 0.34729 0.40591 0.11489 0.0
H625 H 0.29895 0.35099 0.10828 0.0
C626 C 0.31062 0.31826 0.02373 0.0
O627 O 0.38242 0.2621 0.03782 0.0
O628 O 0.36915 0.28207 0.10166 0.0
N629 N 0.37714 0.40297 0.05147 0.0
C630 C 0.39631 0.41487 0.02115 0.0
C631 C 0.41179 0.44029 0.03193 0.0
C632 C 0.40628 0.45404 0.07277 0.0
C633 C 0.38478 0.44263 0.10192 0.0
C634 C 0.3705 0.41691 0.08977 0.0
H635 H 0.40003 0.40493 0.98911 0.0
O636 O 0.41436 0.31662 0.06544 0.0
O637 O 0.3738 0.34317 0.07065 0.0
O638 O 0.38337 0.31933 0.98255 0.0
O639 O 0.3655 0.36466 0.98188 0.0
C640 C 0.3758 0.45666 0.1413 0.0
C641 C 0.35239 0.44514 0.16732 0.0
H642 H 0.30684 0.41629 0.2093 0.0
H643 H 0.28243 0.37198 0.18031 0.0
H644 H 0.4276 0.44947 0.00855 0.0
H645 H 0.4179 0.47389 0.08069 0.0
H646 H 0.38631 0.47668 0.15138 0.0
H647 H 0.34533 0.45643 0.19711 0.0
Mn648 Mn 0.94578 0.12312 0.28808 0.0
Mn649 Mn 0.00231 0.11237 0.21635 0.0
C650 C 0.99481 0.12256 0.31341 0.0
C651 C 0.91597 0.15619 0.32525 0.0
C652 C 0.96081 0.06478 0.24894 0.0
O653 O 0.92618 0.12993 0.22744 0.0
O654 O 0.96706 0.12764 0.18308 0.0
C655 C 0.01477 0.17298 0.19134 0.0
N656 N 0.02422 0.14752 0.20906 0.0
C657 C 0.07263 0.16754 0.22604 0.0
C658 C 0.06355 0.19384 0.20735 0.0
C659 C 0.03447 0.19656 0.18997 0.0
C660 C 0.05215 0.14467 0.22594 0.0
H661 H 0.99227 0.17536 0.17885 0.0
C662 C 0.93901 0.13216 0.18948 0.0
O663 O 0.90726 0.12953 0.3214 0.0
O664 O 0.94024 0.16364 0.30486 0.0
N665 N 0.03756 0.09816 0.24535 0.0
C666 C 0.0424 0.07176 0.26397 0.0
C667 C 0.07022 0.06572 0.28371 0.0
C668 C 0.09272 0.08688 0.28423 0.0
C669 C 0.08726 0.11386 0.26473 0.0
C670 C 0.05926 0.1185 0.24497 0.0
H671 H 0.02513 0.05546 0.26397 0.0
O672 O 0.97287 0.11805 0.34079 0.0
O673 O 0.98702 0.12696 0.27235 0.0
O674 O 0.946 0.07974 0.277 0.0
O675 O 0.98125 0.07504 0.22353 0.0
C676 C 0.10831 0.1365 0.2649 0.0
C677 C 0.10099 0.16333 0.2456 0.0
H678 H 0.07855 0.21219 0.20673 0.0
H679 H 0.02716 0.2169 0.176 0.0
H680 H 0.07423 0.04487 0.29878 0.0
H681 H 0.11402 0.08226 0.29997 0.0
H682 H 0.13008 0.1336 0.28017 0.0
H683 H 0.11723 0.18067 0.24636 0.0
Mn684 Mn 0.12369 0.69329 0.55218 0.0
Mn685 Mn 0.144 0.62343 0.54759 0.0
C686 C 0.09177 0.65843 0.58284 0.0
C687 C 0.12353 0.73816 0.58793 0.0
C688 C 0.12006 0.65684 0.46827 0.0
O689 O 0.16844 0.69529 0.53679 0.0
O690 O 0.18002 0.6484 0.54548 0.0
C691 C 0.17449 0.61951 0.63495 0.0
N692 N 0.1538 0.6094 0.60557 0.0
C693 C 0.14233 0.56906 0.65287 0.0
C694 C 0.1644 0.57838 0.68288 0.0
C695 C 0.18013 0.60404 0.67429 0.0
C696 C 0.1372 0.58582 0.61486 0.0
H697 H 0.18643 0.63927 0.62839 0.0
C698 C 0.18741 0.67469 0.53859 0.0
O699 O 0.11916 0.73593 0.54532 0.0
O700 O 0.12975 0.71455 0.6092 0.0
N701 N 0.11216 0.59586 0.54863 0.0
C702 C 0.09311 0.58866 0.51483 0.0
C703 C 0.07479 0.56419 0.51904 0.0
C704 C 0.07705 0.54669 0.55708 0.0
C705 C 0.09793 0.55361 0.59029 0.0
C706 C 0.11525 0.57854 0.58462 0.0
H707 H 0.09176 0.60147 0.48489 0.0
O708 O 0.08217 0.68375 0.57135 0.0
O709 O 0.12028 0.65418 0.57606 0.0
O710 O 0.11381 0.67988 0.48929 0.0
O711 O 0.13337 0.6354 0.48616 0.0
C712 C 0.10302 0.53614 0.62794 0.0
C713 C 0.12539 0.54372 0.65896 0.0
H714 H 0.16919 0.56622 0.71287 0.0
H715 H 0.19674 0.6117 0.69773 0.0
H716 H 0.05925 0.55862 0.49274 0.0
H717 H 0.06316 0.52764 0.55996 0.0
H718 H 0.09013 0.51663 0.63307 0.0
H719 H 0.12932 0.52989 0.68746 0.0
Mn720 Mn 0.55085 0.12072 0.70941 0.0
Mn721 Mn 0.49129 0.10943 0.77543 0.0
C722 C 0.50292 0.12039 0.67963 0.0
C723 C 0.58254 0.15372 0.6752 0.0
C724 C 0.53422 0.06205 0.74688 0.0
O725 O 0.56757 0.12773 0.77197 0.0
O726 O 0.52495 0.12443 0.81225 0.0
C727 C 0.47804 0.17021 0.79835 0.0
N728 N 0.46912 0.14457 0.78069 0.0
C729 C 0.42134 0.16448 0.7598 0.0
C730 C 0.42972 0.19084 0.77893 0.0
C731 C 0.45824 0.19373 0.79816 0.0
C732 C 0.44184 0.14165 0.76165 0.0
H733 H 0.50029 0.17286 0.81164 0.0
C734 C 0.55312 0.12955 0.80874 0.0
O735 O 0.59085 0.12703 0.68012 0.0
O736 O 0.55726 0.16126 0.69259 0.0
N737 N 0.45739 0.09532 0.74296 0.0
C738 C 0.45345 0.06903 0.72359 0.0
C739 C 0.42644 0.06295 0.70153 0.0
C740 C 0.40383 0.08396 0.69951 0.0
C741 C 0.40837 0.11084 0.71976 0.0
C742 C 0.43557 0.11552 0.74185 0.0
H743 H 0.47081 0.05285 0.72477 0.0
O744 O 0.5259 0.11576 0.65423 0.0
O745 O 0.50909 0.12439 0.72133 0.0
O746 O 0.5503 0.07728 0.72072 0.0
O747 O 0.5126 0.07211 0.77019 0.0
C748 C 0.38725 0.13338 0.71805 0.0
C749 C 0.39375 0.16019 0.73799 0.0
H750 H 0.41468 0.20916 0.77825 0.0
H751 H 0.46513 0.21418 0.81216 0.0
H752 H 0.42315 0.04218 0.68586 0.0
H753 H 0.38318 0.07931 0.68198 0.0
H754 H 0.3661 0.13045 0.70097 0.0
H755 H 0.37751 0.17749 0.73589 0.0
Mn756 Mn 0.12513 0.30394 0.9446 0.0
Mn757 Mn 0.1499 0.37261 0.94994 0.0
C758 C 0.09623 0.34101 0.91384 0.0
C759 C 0.1221 0.25921 0.90904 0.0
C760 C 0.12006 0.34215 0.02748 0.0
O761 O 0.16926 0.29836 0.9612 0.0
O762 O 0.18297 0.34495 0.95973 0.0
C763 C 0.18635 0.36936 0.86772 0.0
N764 N 0.16494 0.38277 0.89249 0.0
C765 C 0.15954 0.4202 0.83781 0.0
C766 C 0.18221 0.40734 0.81231 0.0
C767 C 0.19534 0.38152 0.82701 0.0
C768 C 0.15084 0.40655 0.87732 0.0
H769 H 0.19628 0.34942 0.87878 0.0
C770 C 0.18891 0.31819 0.96451 0.0
O771 O 0.11734 0.26178 0.95151 0.0
O772 O 0.13008 0.28231 0.88772 0.0
N773 N 0.12147 0.40294 0.94123 0.0
C774 C 0.10248 0.4145 0.97205 0.0
C775 C 0.08699 0.44006 0.96211 0.0
C776 C 0.09241 0.45437 0.92167 0.0
C777 C 0.11376 0.44331 0.89201 0.0
C778 C 0.12799 0.41739 0.90326 0.0
H779 H 0.09887 0.40414 0.00382 0.0
O780 O 0.08461 0.31636 0.92448 0.0
O781 O 0.12494 0.34323 0.92074 0.0
O782 O 0.11585 0.31831 0.00731 0.0
O783 O 0.13353 0.3637 0.00993 0.0
C784 C 0.12264 0.4578 0.8529 0.0
C785 C 0.14563 0.44629 0.82598 0.0
H786 H 0.18953 0.41697 0.78127 0.0
H787 H 0.2125 0.37115 0.8072 0.0
H788 H 0.07127 0.44895 0.98587 0.0
H789 H 0.0808 0.47434 0.91443 0.0
H790 H 0.11232 0.47807 0.84364 0.0
H791 H 0.15283 0.45787 0.79653 0.0
Mn792 Mn 0.9459 0.88213 0.20882 0.0
Mn793 Mn 0.00187 0.89327 0.28124 0.0
C794 C 0.99504 0.88327 0.18405 0.0
C795 C 0.91645 0.84895 0.17159 0.0
C796 C 0.96016 0.94057 0.24832 0.0
O797 O 0.92615 0.87458 0.26903 0.0
O798 O 0.96669 0.8772 0.31389 0.0
C799 C 0.01509 0.83265 0.30533 0.0
N800 N 0.02426 0.85838 0.28822 0.0
C801 C 0.07299 0.83908 0.27121 0.0
C802 C 0.0642 0.81254 0.28937 0.0
C803 C 0.0351 0.80931 0.30645 0.0
C804 C 0.0522 0.8617 0.27159 0.0
H805 H 0.99254 0.82983 0.31743 0.0
C806 C 0.93881 0.87203 0.30703 0.0
O807 O 0.90749 0.87552 0.17548 0.0
O808 O 0.94091 0.84169 0.19163 0.0
N809 N 0.03703 0.90813 0.2527 0.0
C810 C 0.04153 0.93466 0.23433 0.0
C811 C 0.06931 0.94115 0.2148 0.0
C812 C 0.09212 0.92031 0.21422 0.0
C813 C 0.087 0.89318 0.2334 0.0
C814 C 0.05901 0.88808 0.25297 0.0
H815 H 0.02403 0.95072 0.23434 0.0
O816 O 0.97321 0.88773 0.15644 0.0
O817 O 0.98703 0.87874 0.22497 0.0
O818 O 0.94553 0.92539 0.22037 0.0
O819 O 0.98037 0.93045 0.27427 0.0
C820 C 0.10835 0.87081 0.23304 0.0
C821 C 0.10134 0.84378 0.25189 0.0
H822 H 0.07944 0.79437 0.28975 0.0
H823 H 0.02799 0.78877 0.31993 0.0
H824 H 0.07306 0.96211 0.19994 0.0
H825 H 0.11339 0.92528 0.19863 0.0
H826 H 0.13012 0.87408 0.2179 0.0
H827 H 0.11781 0.82665 0.25094 0.0
Mn828 Mn 0.36953 0.70567 0.45319 0.0
Mn829 Mn 0.35968 0.63369 0.46491 0.0
C830 C 0.40453 0.67416 0.42371 0.0
C831 C 0.36566 0.74891 0.41375 0.0
C832 C 0.38416 0.67126 0.53796 0.0
O833 O 0.32547 0.70344 0.47117 0.0
O834 O 0.32231 0.6552 0.47852 0.0
C835 C 0.31721 0.62422 0.39061 0.0
N836 N 0.34332 0.61764 0.41169 0.0
C837 C 0.35191 0.57718 0.36324 0.0
C838 C 0.32507 0.58346 0.34097 0.0
C839 C 0.30778 0.60724 0.35448 0.0
C840 C 0.36039 0.59515 0.39844 0.0
H841 H 0.30359 0.64211 0.40161 0.0
C842 C 0.31108 0.68056 0.48118 0.0
O843 O 0.37001 0.74866 0.45653 0.0
O844 O 0.36017 0.72425 0.39508 0.0
N845 N 0.39367 0.60978 0.45355 0.0
C846 C 0.41994 0.60801 0.47651 0.0
C847 C 0.44087 0.58667 0.46502 0.0
C848 C 0.43418 0.56689 0.43099 0.0
C849 C 0.40675 0.56887 0.4084 0.0
C850 C 0.38706 0.59094 0.4207 0.0
H851 H 0.42495 0.62291 0.50315 0.0
O852 O 0.41106 0.70073 0.43254 0.0
O853 O 0.37685 0.66635 0.43138 0.0
O854 O 0.38262 0.69526 0.51719 0.0
O855 O 0.37662 0.64717 0.5212 0.0
C856 C 0.39821 0.5499 0.37405 0.0
C857 C 0.37061 0.55383 0.35192 0.0
H858 H 0.31761 0.57028 0.31332 0.0
H859 H 0.28706 0.61225 0.33743 0.0
H860 H 0.46197 0.58529 0.48263 0.0
H861 H 0.45029 0.55033 0.4224 0.0
H862 H 0.41275 0.53233 0.36422 0.0
H863 H 0.36423 0.53902 0.32571 0.0
Mn864 Mn 0.45434 0.12452 0.20887 0.0
Mn865 Mn 0.50641 0.10782 0.28589 0.0
C866 C 0.50332 0.11711 0.18459 0.0
C867 C 0.42689 0.1604 0.17248 0.0
C868 C 0.46055 0.06497 0.25048 0.0
O869 O 0.43421 0.13472 0.26714 0.0
O870 O 0.4723 0.12816 0.31476 0.0
C871 C 0.52614 0.16604 0.31386 0.0
N872 N 0.53279 0.13922 0.29827 0.0
C873 C 0.58567 0.14777 0.30621 0.0
C874 C 0.57943 0.17551 0.32236 0.0
C875 C 0.54954 0.18473 0.32598 0.0
C876 C 0.56144 0.13023 0.29432 0.0
H877 H 0.50317 0.173 0.31739 0.0
C878 C 0.44573 0.13664 0.30572 0.0
O879 O 0.41683 0.13417 0.17514 0.0
O880 O 0.4526 0.16566 0.19071 0.0
N881 N 0.54112 0.08825 0.26433 0.0
C882 C 0.54325 0.06107 0.24745 0.0
C883 C 0.57154 0.04817 0.24328 0.0
C884 C 0.59724 0.06329 0.25678 0.0
C885 C 0.59463 0.09163 0.27237 0.0
C886 C 0.56584 0.10316 0.27654 0.0
H887 H 0.52345 0.04897 0.23861 0.0
O888 O 0.48039 0.11547 0.15823 0.0
O889 O 0.49687 0.12382 0.22606 0.0
O890 O 0.44876 0.08115 0.22087 0.0
O891 O 0.48112 0.07343 0.27687 0.0
C892 C 0.6194 0.10862 0.28497 0.0
C893 C 0.61493 0.1368 0.30144 0.0
H894 H 0.5974 0.1899 0.33205 0.0
H895 H 0.54454 0.20606 0.33854 0.0
H896 H 0.57349 0.02637 0.23078 0.0
H897 H 0.61884 0.05279 0.25578 0.0
H898 H 0.64197 0.10028 0.28196 0.0
H899 H 0.63415 0.14977 0.31059 0.0
Mn900 Mn 0.62232 0.70573 0.95989 0.0
Mn901 Mn 0.63073 0.75823 0.03627 0.0
C902 C 0.6256 0.75313 0.93733 0.0
C903 C 0.59081 0.67603 0.91952 0.0
C904 C 0.68143 0.7198 0.0053 0.0
O905 O 0.61112 0.68596 0.01762 0.0
O906 O 0.61533 0.72274 0.06618 0.0
C907 C 0.567 0.76733 0.05993 0.0
N908 N 0.59335 0.7778 0.04367 0.0
C909 C 0.57165 0.8247 0.03197 0.0
C910 C 0.54435 0.81447 0.04888 0.0
C911 C 0.54202 0.78565 0.06286 0.0
C912 C 0.59586 0.80553 0.03027 0.0
H913 H 0.56503 0.74516 0.07053 0.0
C914 C 0.60891 0.69649 0.05666 0.0
O915 O 0.61846 0.66858 0.92664 0.0
O916 O 0.58159 0.70015 0.93637 0.0
N917 N 0.64492 0.7937 0.01134 0.0
C918 C 0.67247 0.79988 0.99426 0.0
C919 C 0.67821 0.82761 0.97751 0.0
C920 C 0.65563 0.84868 0.97859 0.0
C921 C 0.62753 0.84188 0.99667 0.0
C922 C 0.62317 0.81395 0.01317 0.0
H923 H 0.68983 0.78369 0.99299 0.0
O924 O 0.63137 0.73239 0.9096 0.0
O925 O 0.61773 0.74528 0.97732 0.0
O926 O 0.66638 0.70518 0.97722 0.0
O927 O 0.67034 0.73966 0.02977 0.0
C928 C 0.60354 0.86159 0.99834 0.0
C929 C 0.57564 0.85303 0.01606 0.0
H930 H 0.52499 0.82849 0.05098 0.0
H931 H 0.521 0.77756 0.07579 0.0
H932 H 0.69992 0.83267 0.96349 0.0
H933 H 0.66006 0.86996 0.96524 0.0
H934 H 0.60623 0.88333 0.98576 0.0
H935 H 0.5573 0.86831 0.01686 0.0
Mn936 Mn 0.04952 0.87564 0.71231 0.0
Mn937 Mn 0.99808 0.89395 0.78959 0.0
C938 C -2e-05 0.88099 0.69093 0.0
C939 C 0.07701 0.83893 0.6779 0.0
C940 C 0.04225 0.93654 0.74908 0.0
O941 O 0.07077 0.86801 0.77065 0.0
O942 O 0.03359 0.87676 0.81934 0.0
C943 C 0.98192 0.8365 0.82541 0.0
N944 N 0.97368 0.8617 0.80553 0.0
C945 C 0.92152 0.8489 0.80975 0.0
C946 C 0.92944 0.82286 0.8304 0.0
C947 C 0.9598 0.81656 0.83796 0.0
C948 C 0.94458 0.86785 0.79769 0.0
H949 H 0.0052 0.83169 0.83181 0.0
C950 C 0.0601 0.86816 0.80997 0.0
O951 O 0.08653 0.86542 0.67764 0.0
O952 O 0.05179 0.83396 0.69775 0.0
N953 N 0.96224 0.91033 0.76563 0.0
C954 C 0.95838 0.93635 0.74534 0.0
C955 C 0.92927 0.94595 0.73567 0.0
C956 C 0.90455 0.92874 0.74719 0.0
C957 C 0.90909 0.90184 0.7672 0.0
C958 C 0.93855 0.89354 0.77642 0.0
H959 H 0.97732 0.9499 0.73739 0.0
O960 O 0.0216 0.88226 0.66209 0.0
O961 O 0.00804 0.87598 0.73206 0.0
O962 O 0.05436 0.91948 0.72093 0.0
O963 O 0.02164 0.92886 0.77608 0.0
C964 C 0.88547 0.8832 0.77913 0.0
C965 C 0.8917 0.85668 0.80023 0.0
H966 H 0.91244 0.80745 0.84027 0.0
H967 H 0.96612 0.79643 0.85359 0.0
H968 H 0.92587 0.96677 0.72018 0.0
H969 H 0.8821 0.93653 0.74145 0.0
H970 H 0.86244 0.88906 0.77222 0.0
H971 H 0.87338 0.84246 0.80906 0.0
Mn972 Mn 0.87328 0.2989 0.4483 0.0
Mn973 Mn 0.86374 0.24583 0.52361 0.0
C974 C 0.86987 0.2516 0.42515 0.0
C975 C 0.90592 0.32798 0.40837 0.0
C976 C 0.81376 0.28538 0.49326 0.0
O977 O 0.88461 0.31812 0.50653 0.0
O978 O 0.87952 0.28079 0.55412 0.0
C979 C 0.92692 0.23531 0.54898 0.0
N980 N 0.90073 0.2256 0.53117 0.0
C981 C 0.92173 0.17851 0.51871 0.0
C982 C 0.94888 0.18797 0.53711 0.0
C983 C 0.95148 0.2165 0.55229 0.0
C984 C 0.89792 0.19813 0.51676 0.0
H985 H 0.92908 0.25725 0.56059 0.0
C986 C 0.88625 0.30707 0.54537 0.0
O987 O 0.87841 0.33609 0.41508 0.0
O988 O 0.91433 0.3037 0.42551 0.0
N989 N 0.84917 0.21088 0.49755 0.0
C990 C 0.8216 0.20528 0.4801 0.0
C991 C 0.81553 0.17782 0.46258 0.0
C992 C 0.83783 0.15645 0.46322 0.0
C993 C 0.86596 0.16268 0.48162 0.0
C994 C 0.87065 0.19035 0.49888 0.0
H995 H 0.80445 0.22169 0.47925 0.0
O996 O 0.86426 0.27248 0.39758 0.0
O997 O 0.8772 0.2593 0.46534 0.0
O998 O 0.82895 0.30003 0.46524 0.0
O999 O 0.8246 0.26509 0.51715 0.0
C1000 C 0.88964 0.14261 0.48309 0.0
C1001 C 0.91747 0.1505 0.50172 0.0
H1002 H 0.96793 0.17359 0.53944 0.0
H1003 H 0.97239 0.224 0.56639 0.0
H1004 H 0.79378 0.1732 0.44838 0.0
H1005 H 0.83313 0.13538 0.44935 0.0
H1006 H 0.88671 0.12107 0.46986 0.0
H1007 H 0.93553 0.1349 0.50255 0.0
Mn1008 Mn 0.45167 0.88082 0.29256 0.0
Mn1009 Mn 0.50618 0.89811 0.21968 0.0
C1010 C 0.50038 0.88587 0.32016 0.0
C1011 C 0.42145 0.84508 0.3241 0.0
C1012 C 0.46029 0.94103 0.25486 0.0
O1013 O 0.43285 0.87298 0.23232 0.0
O1014 O 0.47293 0.8785 0.18816 0.0
C1015 C 0.52638 0.84035 0.19028 0.0
N1016 N 0.53272 0.86686 0.20732 0.0
C1017 C 0.58571 0.85882 0.19995 0.0
C1018 C 0.5798 0.83137 0.18242 0.0
C1019 C 0.55001 0.82202 0.17786 0.0
C1020 C 0.56127 0.87589 0.21245 0.0
H1021 H 0.50348 0.8334 0.18576 0.0
C1022 C 0.44572 0.87112 0.19463 0.0
O1023 O 0.41277 0.87179 0.32289 0.0
O1024 O 0.44764 0.8393 0.30774 0.0
N1025 N 0.54037 0.91717 0.24388 0.0
C1026 C 0.54212 0.94426 0.26121 0.0
C1027 C 0.5702 0.95756 0.26534 0.0
C1028 C 0.59608 0.94293 0.25136 0.0
C1029 C 0.59392 0.91459 0.23566 0.0
C1030 C 0.5653 0.90267 0.23145 0.0
H1031 H 0.52217 0.95608 0.27011 0.0
O1032 O 0.47683 0.88741 0.34536 0.0
O1033 O 0.49472 0.88077 0.27792 0.0
O1034 O 0.44784 0.92456 0.2834 0.0
O1035 O 0.48085 0.93257 0.22846 0.0
C1036 C 0.61891 0.89808 0.22249 0.0
C1037 C 0.61483 0.87005 0.20523 0.0
H1038 H 0.59795 0.81732 0.17225 0.0
H1039 H 0.54527 0.80091 0.16422 0.0
H1040 H 0.57182 0.97935 0.27799 0.0
H1041 H 0.61746 0.95385 0.25207 0.0
H1042 H 0.64136 0.90673 0.22553 0.0
H1043 H 0.63421 0.85746 0.19558 0.0
Mn1044 Mn 0.86942 0.70433 0.05749 0.0
Mn1045 Mn 0.86074 0.75634 0.98017 0.0
C1046 C 0.86773 0.75203 0.07871 0.0
C1047 C 0.90182 0.67478 0.09698 0.0
C1048 C 0.81004 0.7185 0.01318 0.0
O1049 O 0.87913 0.6839 0.99966 0.0
O1050 O 0.87573 0.7207 0.95081 0.0
C1051 C 0.92406 0.76529 0.95416 0.0
N1052 N 0.89804 0.77581 0.97145 0.0
C1053 C 0.91989 0.82279 0.98156 0.0
C1054 C 0.94685 0.8125 0.9636 0.0
C1055 C 0.94895 0.78361 0.94997 0.0
C1056 C 0.89575 0.8036 0.98458 0.0
H1057 H 0.92583 0.74308 0.94372 0.0
C1058 C 0.88154 0.69436 0.96054 0.0
O1059 O 0.87393 0.66747 0.09174 0.0
O1060 O 0.91069 0.69862 0.0789 0.0
N1061 N 0.84692 0.79194 0.00501 0.0
C1062 C 0.81952 0.79831 0.02244 0.0
C1063 C 0.81398 0.82619 0.03868 0.0
C1064 C 0.83661 0.84721 0.03676 0.0
C1065 C 0.86455 0.8402 0.01837 0.0
C1066 C 0.86871 0.81213 0.0024 0.0
H1067 H 0.80211 0.78219 0.02422 0.0
O1068 O 0.86209 0.73182 0.10745 0.0
O1069 O 0.87426 0.74345 0.03868 0.0
O1070 O 0.82487 0.70431 0.04215 0.0
O1071 O 0.82132 0.73783 0.98789 0.0
C1072 C 0.88853 0.85988 0.01568 0.0
C1073 C 0.91616 0.85119 0.99721 0.0
H1074 H 0.96615 0.82652 0.9605 0.0
H1075 H 0.96975 0.77545 0.93637 0.0
H1076 H 0.79236 0.83143 0.05286 0.0
H1077 H 0.83231 0.86863 0.04964 0.0
H1078 H 0.88601 0.88171 0.0279 0.0
H1079 H 0.93447 0.86648 0.9955 0.0
Mn1080 Mn 0.04881 0.12034 0.78695 0.0
Mn1081 Mn 0.997 0.09993 0.71221 0.0
C1082 C 0.00043 0.11177 0.81279 0.0
C1083 C 0.07533 0.15817 0.8199 0.0
C1084 C 0.04549 0.06017 0.74817 0.0
O1085 O 0.06775 0.12932 0.72727 0.0
O1086 O 0.02849 0.12301 0.68159 0.0
C1087 C 0.97095 0.15587 0.68445 0.0
N1088 N 0.96738 0.12871 0.70089 0.0
C1089 C 0.9137 0.13262 0.69716 0.0
C1090 C 0.91676 0.16069 0.68027 0.0
C1091 C 0.94551 0.1724 0.67411 0.0
C1092 C 0.93984 0.11734 0.70736 0.0
H1093 H 0.99304 0.16472 0.679 0.0
C1094 C 0.05519 0.13171 0.68943 0.0
O1095 O 0.0863 0.13223 0.8188 0.0
O1096 O 0.04925 0.16204 0.80197 0.0
N1097 N 0.96496 0.07754 0.73634 0.0
C1098 C 0.96597 0.05045 0.75388 0.0
C1099 C 0.93924 0.03516 0.76041 0.0
C1100 C 0.91181 0.04783 0.74871 0.0
C1101 C 0.91118 0.07616 0.7324 0.0
C1102 C 0.93858 0.09016 0.72592 0.0
H1103 H 0.98702 0.04018 0.76153 0.0
O1104 O 0.02353 0.112 0.83898 0.0
O1105 O 0.00637 0.11745 0.77085 0.0
O1106 O 0.05573 0.07697 0.77814 0.0
O1107 O 0.02555 0.06781 0.72016 0.0
C1108 C 0.88454 0.09081 0.72123 0.0
C1109 C 0.88578 0.11917 0.70423 0.0
H1110 H 0.89721 0.17343 0.67193 0.0
H1111 H 0.94805 0.194 0.66096 0.0
H1112 H 0.93982 0.01337 0.77333 0.0
H1113 H 0.89148 0.03536 0.75174 0.0
H1114 H 0.86298 0.08051 0.72569 0.0
H1115 H 0.86515 0.13034 0.69634 0.0
Mn1116 Mn 0.62589 0.29576 0.55089 0.0
Mn1117 Mn 0.63671 0.2418 0.47778 0.0
C1118 C 0.63013 0.24885 0.57605 0.0
C1119 C 0.59209 0.32457 0.58915 0.0
C1120 C 0.68562 0.28319 0.50644 0.0
O1121 O 0.61489 0.31398 0.49161 0.0
O1122 O 0.61969 0.27573 0.44592 0.0
C1123 C 0.57379 0.22891 0.45377 0.0
N1124 N 0.60043 0.22027 0.47142 0.0
C1125 C 0.58106 0.17282 0.48635 0.0
C1126 C 0.55345 0.18118 0.4682 0.0
C1127 C 0.54982 0.20934 0.45178 0.0
C1128 C 0.60426 0.19314 0.48687 0.0
H1129 H 0.57085 0.25057 0.44129 0.0
C1130 C 0.61301 0.3022 0.45331 0.0
O1131 O 0.61946 0.33327 0.58281 0.0
O1132 O 0.5845 0.3 0.57222 0.0
N1133 N 0.65259 0.2078 0.50516 0.0
C1134 C 0.68034 0.20344 0.52284 0.0
C1135 C 0.68738 0.17655 0.54164 0.0
C1136 C 0.66586 0.15446 0.54206 0.0
C1137 C 0.63753 0.15939 0.52338 0.0
C1138 C 0.63187 0.18654 0.50477 0.0
H1139 H 0.69687 0.22044 0.52297 0.0
O1140 O 0.63493 0.27027 0.60289 0.0
O1141 O 0.62291 0.2558 0.53548 0.0
O1142 O 0.67034 0.29747 0.53479 0.0
O1143 O 0.67516 0.26248 0.48309 0.0
C1144 C 0.61453 0.13858 0.52311 0.0
C1145 C 0.58634 0.14527 0.50452 0.0
H1146 H 0.53483 0.16622 0.46691 0.0
H1147 H 0.52857 0.21596 0.43774 0.0
H1148 H 0.70927 0.17294 0.5561 0.0
H1149 H 0.67128 0.13385 0.55702 0.0
H1150 H 0.61822 0.11742 0.53739 0.0
H1151 H 0.56879 0.12914 0.50474 0.0
C1152 C 0.10258 0.37025 0.14389 0.0
C1153 C 0.07379 0.35896 0.15192 0.0
C1154 C 0.11791 0.36431 0.10396 0.0
C1155 C 0.10536 0.34616 0.07134 0.0
H1156 H 0.11279 0.38475 0.16776 0.0
H1157 H 0.13955 0.37425 0.09834 0.0
S1158 S 0.03121 0.31005 0.0773 0.0
N1159 N 0.03378 0.32829 0.1243 0.0
N1160 N 0.06277 0.31635 0.05042 0.0
C1161 C 0.07709 0.3339 0.07983 0.0
C1162 C 0.06126 0.34051 0.11979 0.0
C1163 C 0.93418 0.84444 0.37804 0.0
C1164 C 0.92077 0.86206 0.34553 0.0
C1165 C 0.91861 0.83606 0.41638 0.0
C1166 C 0.88919 0.84558 0.42444 0.0
H1167 H 0.95713 0.83736 0.37431 0.0
H1168 H 0.93037 0.82323 0.44098 0.0
S1169 S 0.84341 0.89116 0.34907 0.0
N1170 N 0.87574 0.88764 0.32283 0.0
N1171 N 0.84674 0.87274 0.39595 0.0
C1172 C 0.87517 0.86265 0.39177 0.0
C1173 C 0.89086 0.87065 0.35205 0.0
C1174 C 0.3991 0.64868 0.65632 0.0
C1175 C 0.43048 0.65128 0.65924 0.0
C1176 C 0.38364 0.65731 0.61785 0.0
C1177 C 0.39884 0.66977 0.58165 0.0
H1178 H 0.38653 0.63849 0.68289 0.0
H1179 H 0.3598 0.65309 0.61559 0.0
S1180 S 0.48029 0.68339 0.57302 0.0
N1181 N 0.47589 0.66848 0.62256 0.0
N1182 N 0.44639 0.6855 0.55132 0.0
C1183 C 0.42979 0.67404 0.58494 0.0
C1184 C 0.44573 0.6646 0.62348 0.0
C1185 C 0.60045 0.13142 0.85417 0.0
C1186 C 0.56963 0.13754 0.84999 0.0
C1187 C 0.61604 0.13747 0.89381 0.0
C1188 C 0.60154 0.15067 0.93 0.0
H1189 H 0.61247 0.12125 0.82705 0.0
H1190 H 0.63959 0.13201 0.89606 0.0
S1191 S 0.52147 0.17107 0.93684 0.0
N1192 N 0.52532 0.15711 0.8866 0.0
N1193 N 0.55502 0.16952 0.95977 0.0
C1194 C 0.57102 0.15727 0.92619 0.0
C1195 C 0.55495 0.15044 0.88653 0.0
C1196 C 0.06354 0.65797 0.37467 0.0
C1197 C 0.07595 0.63913 0.343 0.0
C1198 C 0.07901 0.66506 0.4137 0.0
C1199 C 0.1072 0.65296 0.4232 0.0
H1200 H 0.04142 0.66695 0.36972 0.0
H1201 H 0.06801 0.67894 0.43768 0.0
S1202 S 0.15011 0.60344 0.35013 0.0
N1203 N 0.1188 0.60969 0.32241 0.0
N1204 N 0.14756 0.62221 0.39675 0.0
C1205 C 0.12029 0.63472 0.39123 0.0
C1206 C 0.10477 0.62803 0.35086 0.0
C1207 C 0.60582 0.87592 0.59519 0.0
C1208 C 0.60518 0.84775 0.57734 0.0
C1209 C 0.59191 0.88246 0.6358 0.0
C1210 C 0.57707 0.86109 0.66032 0.0
H1211 H 0.61642 0.89339 0.57716 0.0
H1212 H 0.5919 0.90459 0.64739 0.0
S1213 S 0.57031 0.7838 0.6314 0.0
N1214 N 0.58942 0.79797 0.58964 0.0
N1215 N 0.56351 0.81065 0.66607 0.0
C1216 C 0.57706 0.83275 0.64421 0.0
C1217 C 0.59113 0.82596 0.60275 0.0
C1218 C 0.42015 0.33719 0.90892 0.0
C1219 C 0.39154 0.34817 0.91848 0.0
C1220 C 0.43522 0.34493 0.8698 0.0
C1221 C 0.42198 0.36335 0.83814 0.0
H1222 H 0.43164 0.32362 0.93284 0.0
H1223 H 0.45766 0.33676 0.86477 0.0
S1224 S 0.3464 0.39614 0.84583 0.0
N1225 N 0.34987 0.3774 0.89238 0.0
N1226 N 0.37789 0.3912 0.81793 0.0
C1227 C 0.39277 0.37338 0.84625 0.0
C1228 C 0.37766 0.36602 0.88668 0.0
C1229 C 0.91776 0.16559 0.07875 0.0
C1230 C 0.89004 0.15266 0.06884 0.0
C1231 C 0.93304 0.15925 0.11828 0.0
C1232 C 0.9209 0.14032 0.15012 0.0
H1233 H 0.92845 0.17979 0.05488 0.0
H1234 H 0.95477 0.16901 0.12359 0.0
S1235 S 0.84823 0.102 0.14159 0.0
N1236 N 0.8506 0.1206 0.09474 0.0
N1237 N 0.87898 0.10945 0.16998 0.0
C1238 C 0.89265 0.1281 0.14159 0.0
C1239 C 0.87735 0.13403 0.1007 0.0
C1240 C 0.90023 0.66672 0.84512 0.0
C1241 C 0.92145 0.64498 0.85371 0.0
C1242 C 0.8867 0.68195 0.87997 0.0
C1243 C 0.89347 0.67572 0.92473 0.0
H1244 H 0.89504 0.67299 0.81121 0.0
H1245 H 0.87129 0.69919 0.87169 0.0
S1246 S 0.94555 0.619 0.96513 0.0
N1247 N 0.94717 0.61668 0.9103 0.0
N1248 N 0.9215 0.64512 0.97584 0.0
C1249 C 0.91349 0.65302 0.93386 0.0
C1250 C 0.92755 0.63774 0.89834 0.0
C1251 C 0.07848 0.15667 0.57394 0.0
C1252 C 0.09957 0.17846 0.58302 0.0
C1253 C 0.06456 0.14134 0.6085 0.0
C1254 C 0.07161 0.14682 0.65341 0.0
H1255 H 0.07192 0.15204 0.53994 0.0
H1256 H 0.04797 0.12522 0.59993 0.0
S1257 S 0.1264 0.20081 0.6949 0.0
N1258 N 0.12755 0.20411 0.64016 0.0
N1259 N 0.10169 0.17516 0.70501 0.0
C1260 C 0.09332 0.16798 0.66288 0.0
C1261 C 0.10719 0.18384 0.62774 0.0
C1262 C 0.58292 0.3438 0.42444 0.0
C1263 C 0.60113 0.31964 0.4158 0.0
C1264 C 0.56914 0.35907 0.38971 0.0
C1265 C 0.57346 0.35112 0.34494 0.0
H1266 H 0.57833 0.3504 0.45839 0.0
H1267 H 0.55451 0.3769 0.39807 0.0
S1268 S 0.62025 0.2904 0.30422 0.0
N1269 N 0.6237 0.28922 0.35892 0.0
N1270 N 0.59799 0.31799 0.29374 0.0
C1271 C 0.59252 0.32769 0.33571 0.0
C1272 C 0.60625 0.31192 0.37109 0.0
C1273 C 0.40644 0.83731 0.1666 0.0
C1274 C 0.42934 0.85733 0.15742 0.0
C1275 C 0.39296 0.82138 0.1324 0.0
C1276 C 0.40146 0.82527 0.08769 0.0
H1277 H 0.39961 0.83305 0.20062 0.0
H1278 H 0.37597 0.80568 0.14112 0.0
S1279 S 0.45944 0.8758 0.04559 0.0
N1280 N 0.45932 0.88073 0.10007 0.0
N1281 N 0.43369 0.85106 0.03582 0.0
C1282 C 0.42363 0.84587 0.07784 0.0
C1283 C 0.43766 0.86181 0.11269 0.0
C1284 C 0.93369 0.36193 0.60672 0.0
C1285 C 0.92651 0.35683 0.65172 0.0
C1286 C 0.91968 0.34652 0.57243 0.0
C1287 C 0.89833 0.32505 0.58185 0.0
H1288 H 0.95063 0.37765 0.59787 0.0
H1289 H 0.92646 0.35076 0.53838 0.0
S1290 S 0.87027 0.30433 0.69377 0.0
N1291 N 0.8954 0.32964 0.70361 0.0
N1292 N 0.86948 0.30045 0.63912 0.0
C1293 C 0.89032 0.32023 0.62654 0.0
C1294 C 0.90425 0.3362 0.66146 0.0
C1295 C 0.43402 0.14451 0.38636 0.0
C1296 C 0.42832 0.15105 0.34137 0.0
C1297 C 0.41948 0.15939 0.42078 0.0
C1298 C 0.39909 0.18177 0.41157 0.0
H1299 H 0.4501 0.12795 0.39512 0.0
H1300 H 0.42508 0.15393 0.45489 0.0
S1301 S 0.3758 0.20687 0.29924 0.0
N1302 N 0.40022 0.18093 0.2894 0.0
N1303 N 0.3732 0.20909 0.354 0.0
C1304 C 0.39276 0.18817 0.36668 0.0
C1305 C 0.40726 0.17275 0.33164 0.0
C1306 C 0.59137 0.66747 0.17218 0.0
C1307 C 0.57075 0.64523 0.16345 0.0
C1308 C 0.60404 0.68361 0.13742 0.0
C1309 C 0.59699 0.67779 0.0926 0.0
H1310 H 0.59679 0.67333 0.20619 0.0
H1311 H 0.61917 0.70105 0.14581 0.0
S1312 S 0.54573 0.62048 0.05183 0.0
N1313 N 0.54494 0.61729 0.10661 0.0
N1314 N 0.56895 0.64733 0.04136 0.0
C1315 C 0.57733 0.65481 0.08336 0.0
C1316 C 0.56416 0.63863 0.11874 0.0
C1317 C 0.07182 0.86255 0.8909 0.0
C1318 C 0.07802 0.85526 0.84633 0.0
C1319 C 0.0855 0.84788 0.92624 0.0
C1320 C 0.10554 0.82504 0.91834 0.0
H1321 H 0.05566 0.87925 0.89862 0.0
H1322 H 0.07924 0.85365 0.95996 0.0
S1323 S 0.13103 0.79882 0.80775 0.0
N1324 N 0.10699 0.82479 0.79623 0.0
N1325 N 0.13255 0.79714 0.86264 0.0
C1326 C 0.11291 0.81832 0.87394 0.0
C1327 C 0.09923 0.83347 0.83795 0.0
C1328 C 0.12577 0.31971 0.3561 0.0
C1329 C 0.09508 0.32631 0.35805 0.0
C1330 C 0.13738 0.29616 0.38016 0.0
C1331 C 0.11876 0.27944 0.40783 0.0
H1332 H 0.1404 0.33162 0.33394 0.0
H1333 H 0.16075 0.29045 0.37614 0.0
S1334 S 0.03716 0.28891 0.42531 0.0
N1335 N 0.04667 0.31514 0.39095 0.0
N1336 N 0.06843 0.2712 0.4358 0.0
C1337 C 0.08838 0.28672 0.41132 0.0
C1338 C 0.07658 0.31022 0.38666 0.0
C1339 C 0.93789 0.88133 0.60698 0.0
C1340 C 0.92088 0.85698 0.61831 0.0
C1341 C 0.96078 0.89157 0.63483 0.0
C1342 C 0.96934 0.87641 0.6734 0.0
H1343 H 0.93585 0.89085 0.57454 0.0
H1344 H 0.97408 0.90968 0.62341 0.0
S1345 S 0.93561 0.8081 0.71336 0.0
N1346 N 0.9146 0.81757 0.67058 0.0
N1347 N 0.96114 0.83362 0.71823 0.0
C1348 C 0.95282 0.85176 0.68495 0.0
C1349 C 0.92796 0.84271 0.65838 0.0
C1350 C 0.36319 0.70483 0.88942 0.0
C1351 C 0.38144 0.72172 0.91734 0.0
C1352 C 0.37533 0.68183 0.86474 0.0
C1353 C 0.40619 0.67593 0.86633 0.0
H1354 H 0.3397 0.71009 0.88549 0.0
H1355 H 0.36094 0.66985 0.84234 0.0
S1356 S 0.46324 0.71371 0.93465 0.0
N1357 N 0.43159 0.73069 0.94549 0.0
N1358 N 0.45431 0.68766 0.89966 0.0
C1359 C 0.42431 0.69203 0.89542 0.0
C1360 C 0.41198 0.71501 0.92068 0.0
C1361 C 0.57994 0.1491 0.15762 0.0
C1362 C 0.58189 0.14467 0.11138 0.0
C1363 C 0.55536 0.1387 0.18225 0.0
C1364 C 0.53319 0.12127 0.1627 0.0
H1365 H 0.59551 0.16363 0.17385 0.0
H1366 H 0.5521 0.14719 0.2151 0.0
S1367 S 0.52749 0.10471 0.04175 0.0
N1368 N 0.55737 0.12544 0.04596 0.0
N1369 N 0.51586 0.09949 0.09331 0.0
C1370 C 0.53639 0.11497 0.11675 0.0
C1371 C 0.55947 0.12826 0.09094 0.0
C1372 C 0.12407 0.68275 0.14423 0.0
C1373 C 0.09345 0.67618 0.14062 0.0
C1374 C 0.13605 0.7069 0.12213 0.0
C1375 C 0.11788 0.72421 0.09473 0.0
H1376 H 0.13834 0.67026 0.16613 0.0
H1377 H 0.15936 0.71247 0.12725 0.0
S1378 S 0.03658 0.71535 0.07393 0.0
N1379 N 0.04552 0.68828 0.10707 0.0
N1380 N 0.06803 0.73325 0.06549 0.0
C1381 C 0.08755 0.71712 0.0898 0.0
C1382 C 0.07536 0.69305 0.11261 0.0
C1383 C 0.55209 0.86332 0.32295 0.0
C1384 C 0.52969 0.88022 0.34307 0.0
C1385 C 0.57634 0.8521 0.34749 0.0
C1386 C 0.57779 0.85522 0.39402 0.0
H1387 H 0.54935 0.85603 0.28933 0.0
H1388 H 0.59223 0.83822 0.33061 0.0
S1389 S 0.52276 0.89342 0.46492 0.0
N1390 N 0.51147 0.89982 0.41351 0.0
N1391 N 0.5527 0.87282 0.46009 0.0
C1392 C 0.55507 0.87096 0.41503 0.0
C1393 C 0.53221 0.88493 0.38957 0.0
C1394 C 0.40634 0.29164 0.58056 0.0
C1395 C 0.37709 0.28169 0.58801 0.0
C1396 C 0.41753 0.31541 0.60365 0.0
C1397 C 0.39988 0.33014 0.635 0.0
H1398 H 0.42126 0.28006 0.5584 0.0
H1399 H 0.44067 0.3216 0.59828 0.0
S1400 S 0.32149 0.31329 0.66547 0.0
N1401 N 0.33038 0.28853 0.62812 0.0
N1402 N 0.35138 0.33403 0.67109 0.0
C1403 C 0.37016 0.32129 0.64146 0.0
C1404 C 0.35884 0.29666 0.6183 0.0
C1405 C 0.94811 0.13242 0.81513 0.0
C1406 C 0.97047 0.11513 0.83452 0.0
C1407 C 0.92358 0.14262 0.83996 0.0
C1408 C 0.92184 0.13814 0.88623 0.0
H1409 H 0.95123 0.14108 0.78228 0.0
H1410 H 0.90787 0.1571 0.82388 0.0
S1411 S 0.97659 0.09801 0.95513 0.0
N1412 N 0.98817 0.09315 0.90347 0.0
N1413 N 0.94653 0.11855 0.95134 0.0
C1414 C 0.94429 0.12161 0.90643 0.0
C1415 C 0.96741 0.10859 0.88037 0.0
C1416 C 0.89722 0.68315 0.6158 0.0
C1417 C 0.90241 0.68396 0.66191 0.0
C1418 C 0.88657 0.70761 0.59307 0.0
C1419 C 0.88031 0.7335 0.61588 0.0
H1420 H 0.90309 0.6641 0.59682 0.0
H1421 H 0.88438 0.70655 0.55716 0.0
S1422 S 0.88657 0.74477 0.7382 0.0
N1423 N 0.8984 0.71144 0.73028 0.0
N1424 N 0.87727 0.75702 0.6884 0.0
C1425 C 0.88345 0.73367 0.66265 0.0
C1426 C 0.89488 0.70901 0.68544 0.0
C1427 C 0.04153 0.11863 0.35929 0.0
C1428 C 0.02259 0.13485 0.33146 0.0
C1429 C 0.06551 0.13181 0.38193 0.0
C1430 C 0.07022 0.16172 0.37868 0.0
H1431 H 0.03738 0.09585 0.36428 0.0
H1432 H 0.07928 0.1189 0.40396 0.0
S1433 S 0.0262 0.21358 0.31113 0.0
N1434 N 0.01007 0.1821 0.30207 0.0
N1435 N 0.05446 0.20693 0.34506 0.0
C1436 C 0.05164 0.17793 0.35041 0.0
C1437 C 0.02785 0.1645 0.32685 0.0
C1438 C 0.58869 0.28849 0.08256 0.0
C1439 C 0.61487 0.27466 0.09759 0.0
C1440 C 0.57626 0.31161 0.10617 0.0
C1441 C 0.59008 0.32235 0.14472 0.0
H1442 H 0.57665 0.28028 0.0539 0.0
H1443 H 0.55515 0.3206 0.09495 0.0
S1444 S 0.66064 0.29606 0.19519 0.0
N1445 N 0.65521 0.27459 0.152 0.0
N1446 N 0.63242 0.31913 0.19517 0.0
C1447 C 0.61721 0.31003 0.15861 0.0
C1448 C 0.62948 0.28588 0.1353 0.0
C1449 C 0.43117 0.87042 0.88857 0.0
C1450 C 0.4269 0.84049 0.88469 0.0
C1451 C 0.45494 0.88411 0.86619 0.0
C1452 C 0.47415 0.86834 0.8382 0.0
H1453 H 0.41725 0.88292 0.91093 0.0
H1454 H 0.45875 0.90691 0.87154 0.0
S1455 S 0.47162 0.78972 0.81637 0.0
N1456 N 0.44319 0.79577 0.85025 0.0
N1457 N 0.48738 0.82145 0.80802 0.0
C1458 C 0.46931 0.83866 0.83299 0.0
C1459 C 0.44565 0.82475 0.85613 0.0
C1460 C 0.88646 0.29338 0.90007 0.0
C1461 C 0.88777 0.26608 0.87969 0.0
C1462 C 0.89785 0.31801 0.87854 0.0
C1463 C 0.91177 0.3159 0.83662 0.0
H1464 H 0.87705 0.29564 0.93316 0.0
H1465 H 0.89703 0.33854 0.89569 0.0
S1466 S 0.92008 0.2497 0.76848 0.0
N1467 N 0.90281 0.23879 0.81412 0.0
N1468 N 0.92524 0.2847 0.77482 0.0
C1469 C 0.91262 0.28889 0.81555 0.0
C1470 C 0.90033 0.26406 0.83678 0.0
C1471 C 0.45718 0.11844 0.63109 0.0
C1472 C 0.4763 0.13383 0.6597 0.0
C1473 C 0.43358 0.13249 0.60877 0.0
C1474 C 0.42946 0.16243 0.61312 0.0
H1475 H 0.46066 0.0956 0.6257 0.0
H1476 H 0.41942 0.12016 0.58651 0.0
S1477 S 0.4745 0.21234 0.68255 0.0
N1478 N 0.48986 0.1804 0.69064 0.0
N1479 N 0.44625 0.20681 0.64813 0.0
C1480 C 0.44847 0.17786 0.64173 0.0
C1481 C 0.47184 0.16356 0.665 0.0
C1482 C 0.61395 0.72356 0.35458 0.0
C1483 C 0.61616 0.725 0.40137 0.0
C1484 C 0.60268 0.69896 0.33324 0.0
C1485 C 0.59393 0.67455 0.35768 0.0
H1486 H 0.61938 0.74215 0.33425 0.0
H1487 H 0.59965 0.69945 0.29741 0.0
S1488 S 0.59712 0.66596 0.48019 0.0
N1489 N 0.60999 0.69887 0.47123 0.0
N1490 N 0.58938 0.65247 0.43057 0.0
C1491 C 0.59751 0.6749 0.40407 0.0
C1492 C 0.60855 0.70016 0.42605 0.0
C1493 C 0.06637 0.87303 0.1172 0.0
C1494 C 0.07063 0.84308 0.12074 0.0
C1495 C 0.04226 0.88656 0.13906 0.0
C1496 C 0.02274 0.87061 0.16638 0.0
H1497 H 0.08067 0.88573 0.09562 0.0
H1498 H 0.03852 0.90939 0.13397 0.0
S1499 S 0.02499 0.79185 0.18706 0.0
N1500 N 0.05378 0.79811 0.15396 0.0
N1501 N 0.00918 0.82354 0.19553 0.0
C1502 C 0.02751 0.84089 0.1712 0.0
C1503 C 0.05142 0.82713 0.14842 0.0
C1504 C 0.58811 0.79129 0.92441 0.0
C1505 C 0.61762 0.7815 0.91897 0.0
C1506 C 0.57721 0.8144 0.89936 0.0
C1507 C 0.59545 0.82861 0.8681 0.0
H1508 H 0.57276 0.77989 0.94616 0.0
H1509 H 0.55386 0.82037 0.90301 0.0
S1510 S 0.67485 0.81233 0.8433 0.0
N1511 N 0.66528 0.78825 0.88137 0.0
N1512 N 0.64484 0.83251 0.83484 0.0
C1513 C 0.62546 0.82015 0.86401 0.0
C1514 C 0.63647 0.79619 0.88912 0.0
C1515 C 0.4573 0.39143 0.1335 0.0
C1516 C 0.46539 0.37574 0.1718 0.0
C1517 C 0.43543 0.38115 0.10401 0.0
C1518 C 0.41847 0.3565 0.11367 0.0
H1519 H 0.47042 0.41001 0.12346 0.0
H1520 H 0.43435 0.39083 0.07161 0.0
S1521 S 0.43245 0.30587 0.20671 0.0
N1522 N 0.45739 0.33173 0.21388 0.0
N1523 N 0.41198 0.31594 0.16369 0.0
C1524 C 0.42503 0.34157 0.15334 0.0
C1525 C 0.44924 0.35048 0.18134 0.0
C1526 C 0.86071 0.20756 0.37886 0.0
C1527 C 0.87967 0.22387 0.40659 0.0
C1528 C 0.87184 0.18386 0.35469 0.0
C1529 C 0.90237 0.17668 0.35663 0.0
H1530 H 0.83746 0.21371 0.37487 0.0
H1531 H 0.85699 0.17231 0.33242 0.0
S1532 S 0.96111 0.21292 0.4237 0.0
N1533 N 0.93019 0.23116 0.43441 0.0
N1534 N 0.95103 0.18692 0.38933 0.0
C1535 C 0.92121 0.19236 0.38524 0.0
C1536 C 0.9099 0.21603 0.41 0.0
C1537 C 0.05698 0.61905 0.60779 0.0
C1538 C 0.07446 0.64327 0.61795 0.0
C1539 C 0.0347 0.60908 0.63692 0.0
C1540 C 0.02711 0.62446 0.67572 0.0
H1541 H 0.05822 0.60933 0.57544 0.0
H1542 H 0.02109 0.59095 0.62647 0.0
S1543 S 0.06213 0.69286 0.71283 0.0
N1544 N 0.08206 0.68304 0.66911 0.0
N1545 N 0.03654 0.66752 0.71939 0.0
C1546 C 0.04395 0.64917 0.68595 0.0
C1547 C 0.06825 0.65794 0.65796 0.0
C1548 C 0.59188 0.21149 0.58885 0.0
C1549 C 0.62139 0.22097 0.59539 0.0
C1550 C 0.58031 0.18848 0.61338 0.0
C1551 C 0.59782 0.17405 0.64528 0.0
H1552 H 0.57709 0.22291 0.56629 0.0
H1553 H 0.55702 0.18261 0.60853 0.0
S1554 S 0.67683 0.18973 0.67351 0.0
N1555 N 0.66821 0.21393 0.63512 0.0
N1556 N 0.6465 0.16977 0.68067 0.0
C1557 C 0.62778 0.18234 0.65078 0.0
C1558 C 0.63949 0.20624 0.62619 0.0
C1559 C 0.03971 0.39361 0.86709 0.0
C1560 C 0.03294 0.38131 0.82538 0.0
C1561 C 0.06144 0.3815 0.89516 0.0
C1562 C 0.07975 0.35876 0.88097 0.0
H1563 H 0.02554 0.41047 0.88053 0.0
H1564 H 0.0616 0.38809 0.92951 0.0
S1565 S 0.06983 0.31665 0.77746 0.0
N1566 N 0.04391 0.34196 0.77461 0.0
N1567 N 0.08897 0.3234 0.82329 0.0
C1568 C 0.07458 0.34734 0.83828 0.0
C1569 C 0.05051 0.35785 0.81124 0.0
C1570 C 0.85982 0.79739 0.12222 0.0
C1571 C 0.87827 0.77992 0.09546 0.0
C1572 C 0.87161 0.82154 0.1445 0.0
C1573 C 0.90228 0.82802 0.14162 0.0
H1574 H 0.83647 0.79184 0.12693 0.0
H1575 H 0.85716 0.83401 0.16616 0.0
S1576 S 0.9598 0.78866 0.07645 0.0
N1577 N 0.92842 0.77075 0.06748 0.0
N1578 N 0.95051 0.81587 0.10904 0.0
C1579 C 0.9206 0.81116 0.11392 0.0
C1580 C 0.90864 0.78701 0.09107 0.0
C1581 C 0.42019 0.63749 0.36625 0.0
C1582 C 0.42749 0.65641 0.40112 0.0
C1583 C 0.44265 0.62248 0.3429 0.0
C1584 C 0.47315 0.62842 0.3497 0.0
H1585 H 0.39705 0.63419 0.35698 0.0
H1586 H 0.43589 0.60561 0.32088 0.0
S1587 S 0.50404 0.67687 0.43735 0.0
N1588 N 0.46741 0.67904 0.44346 0.0
N1589 N 0.50931 0.65463 0.39524 0.0
C1590 C 0.4806 0.64778 0.38432 0.0
C1591 C 0.4579 0.66121 0.41036 0.0
C1592 C 0.40783 0.21071 0.17116 0.0
C1593 C 0.4102 0.18377 0.15013 0.0
C1594 C 0.3953 0.23444 0.14909 0.0
C1595 C 0.38568 0.23243 0.10452 0.0
H1596 H 0.41626 0.21361 0.20471 0.0
H1597 H 0.39457 0.25488 0.16645 0.0
S1598 S 0.38596 0.1662 0.03527 0.0
N1599 N 0.40041 0.1558 0.08336 0.0
N1600 N 0.37812 0.20084 0.04086 0.0
C1601 C 0.38719 0.20536 0.08349 0.0
C1602 C 0.39914 0.18091 0.10656 0.0
C1603 C 0.53045 0.66001 0.83647 0.0
C1604 C 0.5245 0.63063 0.84344 0.0
C1605 C 0.553 0.67406 0.86007 0.0
C1606 C 0.57052 0.65919 0.89131 0.0
H1607 H 0.51673 0.67259 0.81389 0.0
H1608 H 0.55623 0.69695 0.85464 0.0
S1609 S 0.56396 0.58207 0.92172 0.0
N1610 N 0.53755 0.58707 0.88387 0.0
N1611 N 0.58106 0.61346 0.92763 0.0
C1612 C 0.56553 0.6296 0.89776 0.0
C1613 C 0.54201 0.61534 0.8742 0.0
C1614 C 0.09446 0.788 0.67788 0.0
C1615 C 0.09353 0.81499 0.6566 0.0
C1616 C 0.10631 0.76372 0.65639 0.0
C1617 C 0.11682 0.76527 0.61223 0.0
H1618 H 0.08528 0.78547 0.71109 0.0
H1619 H 0.10564 0.74325 0.67376 0.0
S1620 S 0.12107 0.83143 0.54292 0.0
N1621 N 0.10604 0.84245 0.59026 0.0
N1622 N 0.12723 0.79652 0.54898 0.0
C1623 C 0.11707 0.79241 0.59118 0.0
C1624 C 0.10571 0.81736 0.61361 0.0
C1625 C 0.94505 0.32892 0.35057 0.0
C1626 C 0.92707 0.34431 0.38067 0.0
C1627 C 0.96864 0.34231 0.32821 0.0
C1628 C 0.97523 0.37152 0.33535 0.0
H1629 H 0.94138 0.30608 0.34519 0.0
H1630 H 0.98264 0.32935 0.30655 0.0
S1631 S 0.93497 0.42134 0.41075 0.0
N1632 N 0.91682 0.39043 0.41584 0.0
N1633 N 0.96228 0.41551 0.37465 0.0
C1634 C 0.95729 0.38734 0.3649 0.0
C1635 C 0.93271 0.37379 0.3871 0.0
C1636 C 0.38868 0.82553 0.38484 0.0
C1637 C 0.40268 0.82193 0.34326 0.0
C1638 C 0.37487 0.80213 0.40653 0.0
C1639 C 0.37385 0.77459 0.38674 0.0
H1640 H 0.38996 0.84608 0.40188 0.0
H1641 H 0.36603 0.80535 0.43978 0.0
S1642 S 0.40415 0.75526 0.27528 0.0
N1643 N 0.41271 0.78966 0.28145 0.0
N1644 N 0.38596 0.74602 0.32102 0.0
C1645 C 0.38591 0.77143 0.34359 0.0
C1646 C 0.4006 0.79501 0.32219 0.0
C1647 C 0.96494 0.65901 0.17563 0.0
C1648 C 0.97231 0.63031 0.16566 0.0
C1649 C 0.94079 0.6726 0.1549 0.0
C1650 C 0.92304 0.65792 0.12371 0.0
H1651 H 0.9788 0.6715 0.19812 0.0
H1652 H 0.9366 0.69513 0.1622 0.0
S1653 S 0.93286 0.58246 0.08632 0.0
N1654 N 0.96024 0.58759 0.12256 0.0
N1655 N 0.91383 0.61302 0.08442 0.0
C1656 C 0.92942 0.6289 0.1145 0.0
C1657 C 0.95452 0.61517 0.13505 0.0
C1658 C 0.10229 0.23418 0.84178 0.0
C1659 C 0.11452 0.23234 0.88491 0.0
C1660 C 0.09043 0.20982 0.82051 0.0
C1661 C 0.09121 0.18255 0.84096 0.0
H1662 H 0.10043 0.25486 0.8252 0.0
H1663 H 0.08005 0.21244 0.78812 0.0
S1664 S 0.12295 0.16566 0.95202 0.0
N1665 N 0.12786 0.2008 0.9465 0.0
N1666 N 0.10669 0.15473 0.90554 0.0
C1667 C 0.1048 0.18007 0.88298 0.0
C1668 C 0.11614 0.20505 0.90525 0.0
C1669 C 0.56662 0.37075 0.61076 0.0
C1670 C 0.57013 0.34078 0.61577 0.0
C1671 C 0.54244 0.38518 0.63101 0.0
C1672 C 0.52203 0.37012 0.65804 0.0
H1673 H 0.58167 0.38278 0.5894 0.0
H1674 H 0.53947 0.40804 0.62511 0.0
S1675 S 0.52194 0.2917 0.68204 0.0
N1676 N 0.55156 0.29678 0.65008 0.0
N1677 N 0.5067 0.32385 0.68836 0.0
C1678 C 0.52591 0.34037 0.66414 0.0
C1679 C 0.54997 0.32572 0.64312 0.0
C1680 C 0.04522 0.48511 0.28533 0.0
C1681 C 0.04366 0.46928 0.24545 0.0
C1682 C 0.04445 0.5153 0.28488 0.0
C1683 C 0.04296 0.53057 0.2445 0.0
H1684 H 0.04525 0.47411 0.3172 0.0
H1685 H 0.0442 0.52675 0.31634 0.0
S1686 S 0.04087 0.49914 0.13098 0.0
N1687 N 0.04203 0.47095 0.16459 0.0
N1688 N 0.04159 0.52779 0.16362 0.0
C1689 C 0.04311 0.51503 0.20434 0.0
C1690 C 0.04317 0.48431 0.20485 0.0
C1691 C 0.76958 0.79624 0.49353 0.0
C1692 C 0.77747 0.81316 0.53079 0.0
C1693 C 0.73961 0.79465 0.47875 0.0
C1694 C 0.71681 0.80972 0.50117 0.0
H1695 H 0.78687 0.78596 0.47382 0.0
H1696 H 0.73465 0.78337 0.44803 0.0
S1697 S 0.72491 0.85256 0.60465 0.0
N1698 N 0.75929 0.842 0.59268 0.0
N1699 N 0.70341 0.83882 0.56529 0.0
C1700 C 0.72412 0.82453 0.54045 0.0
C1701 C 0.75436 0.8263 0.5552 0.0
C1702 C 0.45756 0.48976 0.70461 0.0
C1703 C 0.45577 0.47309 0.74366 0.0
C1704 C 0.45832 0.51999 0.70669 0.0
C1705 C 0.4564 0.53447 0.74776 0.0
H1706 H 0.4601 0.47937 0.6725 0.0
H1707 H 0.46121 0.53209 0.67609 0.0
S1708 S 0.44924 0.50045 0.8592 0.0
N1709 N 0.45084 0.47302 0.8242 0.0
N1710 N 0.45118 0.5298 0.82814 0.0
C1711 C 0.45298 0.51798 0.78679 0.0
C1712 C 0.45298 0.48727 0.78473 0.0
C1713 C 0.75582 0.17371 0.94645 0.0
C1714 C 0.77833 0.19007 0.9673 0.0
C1715 C 0.72618 0.17468 0.96109 0.0
C1716 C 0.7177 0.19198 0.99732 0.0
H1717 H 0.76138 0.15866 0.92018 0.0
H1718 H 0.71005 0.16037 0.94559 0.0
S1719 S 0.76718 0.24111 0.06088 0.0
N1720 N 0.78963 0.22605 0.02375 0.0
N1721 N 0.73343 0.2277 0.05162 0.0
C1722 C 0.73932 0.21018 0.01646 0.0
C1723 C 0.76979 0.20926 0.00133 0.0
C1724 C 0.94522 0.48813 0.71415 0.0
C1725 C 0.94765 0.47169 0.75351 0.0
C1726 C 0.94549 0.5184 0.71528 0.0
C1727 C 0.94893 0.53324 0.75575 0.0
H1728 H 0.94471 0.47749 0.68202 0.0
H1729 H 0.94525 0.53012 0.68404 0.0
S1730 S 0.95313 0.50051 0.86841 0.0
N1731 N 0.95081 0.47266 0.83432 0.0
N1732 N 0.95198 0.52946 0.83641 0.0
C1733 C 0.94944 0.51713 0.79551 0.0
C1734 C 0.94857 0.48636 0.79441 0.0
C1735 C 0.26576 0.21147 0.45999 0.0
C1736 C 0.28077 0.21215 0.50117 0.0
C1737 C 0.2344 0.21075 0.45801 0.0
C1738 C 0.21713 0.21157 0.49715 0.0
H1739 H 0.27835 0.21239 0.42914 0.0
H1740 H 0.22362 0.21138 0.42568 0.0
S1741 S 0.24566 0.21216 0.6131 0.0
N1742 N 0.27613 0.21199 0.58186 0.0
N1743 N 0.21712 0.21167 0.57809 0.0
C1744 C 0.23187 0.21123 0.53847 0.0
C1745 C 0.26376 0.21123 0.5405 0.0
C1746 C 0.53704 0.51289 0.21387 0.0
C1747 C 0.53904 0.52856 0.25394 0.0
C1748 C 0.53758 0.48257 0.21376 0.0
C1749 C 0.53924 0.46692 0.25385 0.0
H1750 H 0.53425 0.52415 0.1825 0.0
H1751 H 0.53491 0.47133 0.18238 0.0
S1752 S 0.54559 0.49755 0.36749 0.0
N1753 N 0.54405 0.52604 0.3345 0.0
N1754 N 0.54386 0.46918 0.33434 0.0
C1755 C 0.54202 0.4823 0.29393 0.0
C1756 C 0.54227 0.51309 0.29397 0.0
C1757 C 0.23418 0.79121 0.97039 0.0
C1758 C 0.21931 0.79028 0.01163 0.0
C1759 C 0.26549 0.79134 0.96823 0.0
C1760 C 0.28281 0.78968 0.00724 0.0
H1761 H 0.2215 0.79099 0.9396 0.0
H1762 H 0.27615 0.79104 0.93579 0.0
S1763 S 0.25456 0.78834 0.12334 0.0
N1764 N 0.22403 0.7894 0.09228 0.0
N1765 N 0.28305 0.78866 0.0882 0.0
C1766 C 0.26822 0.78977 0.04869 0.0
C1767 C 0.23636 0.79035 0.0509 0.0
C1768 C 0.53914 0.9858 0.79117 0.0
C1769 C 0.54044 0.96936 0.7519 0.0
C1770 C 0.53812 0.016 0.7894 0.0
C1771 C 0.53924 0.03066 0.7484 0.0
H1772 H 0.53724 0.97524 0.82327 0.0
H1773 H 0.53575 0.02794 0.82022 0.0
S1774 S 0.54492 0.99737 0.63645 0.0
N1775 N 0.54403 0.96973 0.67117 0.0
N1776 N 0.54325 0.02656 0.66787 0.0
C1777 C 0.54213 0.01447 0.7091 0.0
C1778 C 0.5424 0.98375 0.71085 0.0
C1779 C 0.27245 0.32698 0.96638 0.0
C1780 C 0.28111 0.31149 0.00442 0.0
C1781 C 0.24284 0.32686 0.95164 0.0
C1782 C 0.22057 0.31118 0.97421 0.0
H1783 H 0.28843 0.34065 0.9492 0.0
H1784 H 0.23713 0.34058 0.92377 0.0
S1785 S 0.23231 0.26471 0.07323 0.0
N1786 N 0.26589 0.27811 0.06253 0.0
N1787 N 0.20967 0.27778 0.03456 0.0
C1788 C 0.2293 0.29377 0.01039 0.0
C1789 C 0.25976 0.29396 0.0256 0.0
C1790 C 0.95598 0.0178 0.28832 0.0
C1791 C 0.9561 0.03339 0.24814 0.0
C1792 C 0.95625 0.98758 0.28825 0.0
C1793 C 0.95577 0.97206 0.24803 0.0
H1794 H 0.95727 0.029 0.31993 0.0
H1795 H 0.95752 0.97628 0.31981 0.0
S1796 S 0.95378 0.00301 0.13406 0.0
N1797 N 0.95448 0.03135 0.16734 0.0
N1798 N 0.95396 0.97451 0.1671 0.0
C1799 C 0.95434 0.98746 0.20772 0.0
C1800 C 0.95481 0.01818 0.2078 0.0
C1801 C 0.25877 0.70144 0.48229 0.0
C1802 C 0.28048 0.68265 0.50004 0.0
C1803 C 0.22873 0.70025 0.49689 0.0
C1804 C 0.21964 0.6803 0.52971 0.0
H1805 H 0.26467 0.71607 0.45554 0.0
H1806 H 0.2123 0.71386 0.48067 0.0
S1807 S 0.26936 0.63048 0.59237 0.0
N1808 N 0.29171 0.64656 0.55633 0.0
N1809 N 0.23582 0.6442 0.58334 0.0
C1810 C 0.24176 0.66302 0.54976 0.0
C1811 C 0.27203 0.66423 0.53504 0.0
C1812 C 0.45279 0.01769 0.21238 0.0
C1813 C 0.45301 0.03388 0.25194 0.0
C1814 C 0.45325 0.98741 0.21357 0.0
C1815 C 0.45319 0.97226 0.2543 0.0
H1816 H 0.45452 0.02842 0.18041 0.0
H1817 H 0.45501 0.97576 0.18239 0.0
S1818 S 0.45048 0.00476 0.36703 0.0
N1819 N 0.45094 0.03267 0.33282 0.0
N1820 N 0.45092 0.97582 0.33498 0.0
C1821 C 0.45113 0.98822 0.29394 0.0
C1822 C 0.45131 0.01902 0.29276 0.0
C1823 C 0.76037 0.71501 0.05007 0.0
C1824 C 0.77751 0.71428 0.01082 0.0
C1825 C 0.72903 0.71595 0.04818 0.0
C1826 C 0.71399 0.71536 0.00706 0.0
H1827 H 0.77125 0.71641 0.08227 0.0
H1828 H 0.71651 0.71773 0.07899 0.0
S1829 S 0.74886 0.71153 0.89506 0.0
N1830 N 0.77745 0.71189 0.92998 0.0
N1831 N 0.71846 0.71269 0.92639 0.0
C1832 C 0.7309 0.71319 0.96772 0.0
C1833 C 0.76275 0.71293 0.96962 0.0
C1834 C 0.05321 0.01317 0.70898 0.0
C1835 C 0.053 0.02903 0.74906 0.0
C1836 C 0.05235 0.98289 0.70908 0.0
C1837 C 0.05054 0.96746 0.74929 0.0
H1838 H 0.05238 0.02431 0.67725 0.0
H1839 H 0.05083 0.97165 0.67752 0.0
S1840 S 0.0524 0.99842 0.86322 0.0
N1841 N 0.0537 0.02677 0.82995 0.0
N1842 N 0.05141 0.96998 0.83016 0.0
C1843 C 0.05227 0.98294 0.78953 0.0
C1844 C 0.05374 0.0137 0.78943 0.0
C1845 C 0.73569 0.28982 0.54098 0.0
C1846 C 0.71782 0.28908 0.50248 0.0
C1847 C 0.76699 0.28994 0.53777 0.0
C1848 C 0.78127 0.29015 0.496 0.0
H1849 H 0.72547 0.28854 0.57368 0.0
H1850 H 0.78012 0.28896 0.5681 0.0
S1851 S 0.74426 0.29083 0.38548 0.0
N1852 N 0.71634 0.2901 0.42159 0.0
N1853 N 0.77526 0.29133 0.41552 0.0
C1854 C 0.76359 0.29118 0.45736 0.0
C1855 C 0.73178 0.29034 0.46062 0.0
loop_
_geom_bond_atom_site_label_1
_geom_bond_atom_site_label_2
_geom_bond_distance
_geom_bond_site_symmetry_2
_ccdc_geom_bond_type
Mn0 O5 2.095 . S
Mn0 O15 2.162 . S
Mn0 O16 2.297 . S
Mn0 O24 2.385 . S
Mn0 O25 2.209 . S
Mn0 O26 2.094 . S
Mn1 O6 2.121 . S
Mn1 N8 2.257 1_455 S
Mn1 N17 2.282 1_455 S
Mn1 O25 2.215 . S
Mn1 O27 2.117 . S
C2 O24 1.234 . S
C2 O25 1.283 . S
C3 O15 1.281 . S
C3 O16 1.236 . S
C4 O26 1.240 . S
C4 O27 1.264 . S
O5 Mn0 2.095 . S
O5 C14 1.250 . S
O6 Mn1 2.121 . S
O6 C14 1.258 . S
C7 N8 1.326 . S
C7 C11 1.460 . S
C7 H13 0.929 1_655 S
N8 Mn1 2.257 1_655 S
N8 C7 1.326 . S
N8 C12 1.362 . S
C9 C10 1.258 . S
C9 C12 1.431 . S
C9 C29 1.449 . S
C10 C9 1.258 . S
C10 C11 1.477 . S
C10 H30 0.931 . S
C11 C7 1.460 . S
C11 C10 1.477 . S
C11 H31 0.930 . S
C12 N8 1.362 . S
C12 C9 1.431 . S
C12 C22 1.476 . S
H13 C7 0.929 1_455 S
C14 O5 1.250 . S
C14 O6 1.258 . S
O15 Mn0 2.162 . S
O15 C3 1.281 . S
O16 Mn0 2.297 . S
O16 C3 1.236 . S
N17 Mn1 2.282 1_655 S
N17 C18 1.328 . S
N17 C22 1.318 . S
C18 N17 1.328 . S
C18 C19 1.457 . S
C18 H23 0.929 1_655 S
C19 C18 1.457 . S
C19 C20 1.291 . S
C19 H32 0.931 . S
C20 C19 1.291 . S
C20 C21 1.373 . S
C20 H33 0.929 . S
C21 C20 1.373 . S
C21 C22 1.396 . S
C21 C28 1.403 . S
C22 C12 1.476 . S
C22 N17 1.318 . S
C22 C21 1.396 . S
H23 C18 0.929 1_455 S
O24 Mn0 2.385 . S
O24 C2 1.234 . S
O25 Mn0 2.209 . S
O25 Mn1 2.215 . S
O25 C2 1.283 . S
O26 Mn0 2.094 . S
O26 C4 1.240 . S
O27 Mn1 2.117 . S
O27 C4 1.264 . S
C28 C21 1.403 . S
C28 C29 1.399 . S
C28 H34 0.929 . S
C29 C9 1.449 . S
C29 C28 1.399 . S
C29 H35 0.930 . S
H30 C10 0.931 . S
H31 C11 0.930 . S
H32 C19 0.931 . S
H33 C20 0.929 . S
H34 C28 0.929 . S
H35 C29 0.930 . S
Mn36 O41 2.095 . S
Mn36 O51 2.162 . S
Mn36 O52 2.297 . S
Mn36 O60 2.385 . S
Mn36 O61 2.209 . S
Mn36 O62 2.094 . S
Mn37 O42 2.121 . S
Mn37 N44 2.257 . S
Mn37 N53 2.282 . S
Mn37 O61 2.215 . S
Mn37 O63 2.117 . S
C38 O60 1.234 . S
C38 O61 1.283 . S
C39 O51 1.281 . S
C39 O52 1.236 . S
C40 O62 1.240 . S
C40 O63 1.264 . S
O41 Mn36 2.095 . S
O41 C50 1.250 . S
O42 Mn37 2.121 . S
O42 C50 1.258 . S
C43 N44 1.326 . S
C43 C47 1.460 . S
C43 H49 0.929 . S
N44 Mn37 2.257 . S
N44 C43 1.326 . S
N44 C48 1.362 . S
C45 C46 1.258 . S
C45 C48 1.431 . S
C45 C65 1.449 . S
C46 C45 1.258 . S
C46 C47 1.477 . S
C46 H66 0.931 . S
C47 C43 1.460 . S
C47 C46 1.477 . S
C47 H67 0.930 . S
C48 N44 1.362 . S
C48 C45 1.431 . S
C48 C58 1.476 . S
H49 C43 0.929 . S
C50 O41 1.250 . S
C50 O42 1.258 . S
O51 Mn36 2.162 . S
O51 C39 1.281 . S
O52 Mn36 2.297 . S
O52 C39 1.236 . S
N53 Mn37 2.282 . S
N53 C54 1.328 . S
N53 C58 1.318 . S
C54 N53 1.328 . S
C54 C55 1.457 . S
C54 H59 0.929 . S
C55 C54 1.457 . S
C55 C56 1.291 . S
C55 H68 0.931 . S
C56 C55 1.291 . S
C56 C57 1.373 . S
C56 H69 0.929 . S
C57 C56 1.373 . S
C57 C58 1.396 . S
C57 C64 1.403 . S
C58 C48 1.476 . S
C58 N53 1.318 . S
C58 C57 1.396 . S
H59 C54 0.929 . S
O60 Mn36 2.385 . S
O60 C38 1.234 . S
O61 Mn36 2.209 . S
O61 Mn37 2.215 . S
O61 C38 1.283 . S
O62 Mn36 2.094 . S
O62 C40 1.240 . S
O63 Mn37 2.117 . S
O63 C40 1.264 . S
C64 C57 1.403 . S
C64 C65 1.399 . S
C64 H70 0.929 . S
C65 C45 1.449 . S
C65 C64 1.399 . S
C65 H71 0.930 . S
H66 C46 0.931 . S
H67 C47 0.930 . S
H68 C55 0.931 . S
H69 C56 0.929 . S
H70 C64 0.929 . S
H71 C65 0.930 . S
Mn72 O77 2.095 . S
Mn72 O87 2.162 . S
Mn72 O88 2.297 . S
Mn72 O96 2.385 . S
Mn72 O97 2.209 . S
Mn72 O98 2.094 . S
Mn73 O78 2.121 . S
Mn73 N80 2.257 . S
Mn73 N89 2.282 . S
Mn73 O97 2.215 . S
Mn73 O99 2.117 . S
C74 O96 1.234 . S
C74 O97 1.283 . S
C75 O87 1.281 . S
C75 O88 1.236 . S
C76 O98 1.240 . S
C76 O99 1.264 . S
O77 Mn72 2.095 . S
O77 C86 1.250 . S
O78 Mn73 2.121 . S
O78 C86 1.258 . S
C79 N80 1.326 . S
C79 C83 1.460 . S
C79 H85 0.929 . S
N80 Mn73 2.257 . S
N80 C79 1.326 . S
N80 C84 1.362 . S
C81 C82 1.258 . S
C81 C84 1.431 . S
C81 C101 1.449 . S
C82 C81 1.258 . S
C82 C83 1.477 . S
C82 H102 0.931 . S
C83 C79 1.460 . S
C83 C82 1.477 . S
C83 H103 0.930 . S
C84 N80 1.362 . S
C84 C81 1.431 . S
C84 C94 1.476 . S
H85 C79 0.929 . S
C86 O77 1.250 . S
C86 O78 1.258 . S
O87 Mn72 2.162 . S
O87 C75 1.281 . S
O88 Mn72 2.297 . S
O88 C75 1.236 . S
N89 Mn73 2.282 . S
N89 C90 1.328 . S
N89 C94 1.318 . S
C90 N89 1.328 . S
C90 C91 1.457 . S
C90 H95 0.929 . S
C91 C90 1.457 . S
C91 C92 1.291 . S
C91 H104 0.931 . S
C92 C91 1.291 . S
C92 C93 1.373 . S
C92 H105 0.929 . S
C93 C92 1.373 . S
C93 C94 1.396 . S
C93 C100 1.403 . S
C94 C84 1.476 . S
C94 N89 1.318 . S
C94 C93 1.396 . S
H95 C90 0.929 . S
O96 Mn72 2.385 . S
O96 C74 1.234 . S
O97 Mn72 2.209 . S
O97 Mn73 2.215 . S
O97 C74 1.283 . S
O98 Mn72 2.094 . S
O98 C76 1.240 . S
O99 Mn73 2.117 . S
O99 C76 1.264 . S
C100 C93 1.403 . S
C100 C101 1.399 . S
C100 H106 0.929 . S
C101 C81 1.449 . S
C101 C100 1.399 . S
C101 H107 0.930 . S
H102 C82 0.931 . S
H103 C83 0.930 . S
H104 C91 0.931 . S
H105 C92 0.929 . S
H106 C100 0.929 . S
H107 C101 0.930 . S
Mn108 O113 2.095 . S
Mn108 O123 2.162 . S
Mn108 O124 2.297 . S
Mn108 O132 2.385 . S
Mn108 O133 2.209 . S
Mn108 O134 2.094 1_554 S
Mn109 O114 2.121 . S
Mn109 N116 2.257 . S
Mn109 N125 2.282 . S
Mn109 O133 2.215 . S
Mn109 O135 2.117 1_554 S
C110 O132 1.234 . S
C110 O133 1.283 . S
C111 O123 1.281 . S
C111 O124 1.236 . S
C112 O134 1.240 . S
C112 O135 1.264 . S
O113 Mn108 2.095 . S
O113 C122 1.250 . S
O114 Mn109 2.121 . S
O114 C122 1.258 . S
C115 N116 1.326 . S
C115 C119 1.460 . S
C115 H121 0.929 . S
N116 Mn109 2.257 . S
N116 C115 1.326 . S
N116 C120 1.362 . S
C117 C118 1.258 . S
C117 C120 1.431 . S
C117 C137 1.449 . S
C118 C117 1.258 . S
C118 C119 1.477 . S
C118 H138 0.931 . S
C119 C115 1.460 . S
C119 C118 1.477 . S
C119 H139 0.930 . S
C120 N116 1.362 . S
C120 C117 1.431 . S
C120 C130 1.476 . S
H121 C115 0.929 . S
C122 O113 1.250 . S
C122 O114 1.258 . S
O123 Mn108 2.162 . S
O123 C111 1.281 . S
O124 Mn108 2.297 . S
O124 C111 1.236 . S
N125 Mn109 2.282 . S
N125 C126 1.328 . S
N125 C130 1.318 . S
C126 N125 1.328 . S
C126 C127 1.457 . S
C126 H131 0.929 1_554 S
C127 C126 1.457 . S
C127 C128 1.291 . S
C127 H140 0.931 . S
C128 C127 1.291 . S
C128 C129 1.373 . S
C128 H141 0.929 . S
C129 C128 1.373 . S
C129 C130 1.396 . S
C129 C136 1.403 . S
C130 C120 1.476 . S
C130 N125 1.318 . S
C130 C129 1.396 . S
H131 C126 0.929 1_556 S
O132 Mn108 2.385 . S
O132 C110 1.234 . S
O133 Mn108 2.209 . S
O133 Mn109 2.215 . S
O133 C110 1.283 . S
O134 Mn108 2.094 1_556 S
O134 C112 1.240 . S
O135 Mn109 2.117 1_556 S
O135 C112 1.264 . S
C136 C129 1.403 . S
C136 C137 1.399 . S
C136 H142 0.929 . S
C137 C117 1.449 . S
C137 C136 1.399 . S
C137 H143 0.930 . S
H138 C118 0.931 . S
H139 C119 0.930 . S
H140 C127 0.931 . S
H141 C128 0.929 . S
H142 C136 0.929 . S
H143 C137 0.930 . S
Mn144 O149 2.095 . S
Mn144 O159 2.162 . S
Mn144 O160 2.297 . S
Mn144 O168 2.385 . S
Mn144 O169 2.209 . S
Mn144 O170 2.094 . S
Mn145 O150 2.121 . S
Mn145 N152 2.257 1_455 S
Mn145 N161 2.282 1_455 S
Mn145 O169 2.215 . S
Mn145 O171 2.117 . S
C146 O168 1.234 . S
C146 O169 1.283 . S
C147 O159 1.281 . S
C147 O160 1.236 . S
C148 O170 1.240 . S
C148 O171 1.264 . S
O149 Mn144 2.095 . S
O149 C158 1.250 . S
O150 Mn145 2.121 . S
O150 C158 1.258 . S
C151 N152 1.326 . S
C151 C155 1.460 . S
C151 H157 0.929 1_655 S
N152 Mn145 2.257 1_655 S
N152 C151 1.326 . S
N152 C156 1.362 . S
C153 C154 1.258 . S
C153 C156 1.431 . S
C153 C173 1.449 . S
C154 C153 1.258 . S
C154 C155 1.477 . S
C154 H174 0.931 . S
C155 C151 1.460 . S
C155 C154 1.477 . S
C155 H175 0.930 . S
C156 N152 1.362 . S
C156 C153 1.431 . S
C156 C166 1.476 . S
H157 C151 0.929 1_455 S
C158 O149 1.250 . S
C158 O150 1.258 . S
O159 Mn144 2.162 . S
O159 C147 1.281 . S
O160 Mn144 2.297 . S
O160 C147 1.236 . S
N161 Mn145 2.282 1_655 S
N161 C162 1.328 . S
N161 C166 1.318 . S
C162 N161 1.328 . S
C162 C163 1.457 . S
C162 H167 0.929 1_655 S
C163 C162 1.457 . S
C163 C164 1.291 . S
C163 H176 0.931 . S
C164 C163 1.291 . S
C164 C165 1.373 . S
C164 H177 0.929 . S
C165 C164 1.373 . S
C165 C166 1.396 . S
C165 C172 1.403 . S
C166 C156 1.476 . S
C166 N161 1.318 . S
C166 C165 1.396 . S
H167 C162 0.929 1_455 S
O168 Mn144 2.385 . S
O168 C146 1.234 . S
O169 Mn144 2.209 . S
O169 Mn145 2.215 . S
O169 C146 1.283 . S
O170 Mn144 2.094 . S
O170 C148 1.240 . S
O171 Mn145 2.117 . S
O171 C148 1.264 . S
C172 C165 1.403 . S
C172 C173 1.399 . S
C172 H178 0.929 . S
C173 C153 1.449 . S
C173 C172 1.399 . S
C173 H179 0.930 . S
H174 C154 0.931 . S
H175 C155 0.930 . S
H176 C163 0.931 . S
H177 C164 0.929 . S
H178 C172 0.929 . S
H179 C173 0.930 . S
Mn180 O185 2.095 . S
Mn180 O195 2.162 . S
Mn180 O196 2.297 . S
Mn180 O204 2.385 . S
Mn180 O205 2.209 . S
Mn180 O206 2.094 . S
Mn181 O186 2.121 . S
Mn181 N188 2.257 . S
Mn181 N197 2.282 . S
Mn181 O205 2.215 . S
Mn181 O207 2.117 . S
C182 O204 1.234 . S
C182 O205 1.283 . S
C183 O195 1.281 . S
C183 O196 1.236 . S
C184 O206 1.240 . S
C184 O207 1.264 . S
O185 Mn180 2.095 . S
O185 C194 1.250 . S
O186 Mn181 2.121 . S
O186 C194 1.258 . S
C187 N188 1.326 . S
C187 C191 1.460 . S
C187 H193 0.929 . S
N188 Mn181 2.257 . S
N188 C187 1.326 . S
N188 C192 1.362 . S
C189 C190 1.258 . S
C189 C192 1.431 . S
C189 C209 1.449 . S
C190 C189 1.258 . S
C190 C191 1.477 . S
C190 H210 0.931 . S
C191 C187 1.460 . S
C191 C190 1.477 . S
C191 H211 0.930 . S
C192 N188 1.362 . S
C192 C189 1.431 . S
C192 C202 1.476 . S
H193 C187 0.929 . S
C194 O185 1.250 . S
C194 O186 1.258 . S
O195 Mn180 2.162 . S
O195 C183 1.281 . S
O196 Mn180 2.297 . S
O196 C183 1.236 . S
N197 Mn181 2.282 . S
N197 C198 1.328 . S
N197 C202 1.318 . S
C198 N197 1.328 . S
C198 C199 1.457 . S
C198 H203 0.929 . S
C199 C198 1.457 . S
C199 C200 1.291 . S
C199 H212 0.931 . S
C200 C199 1.291 . S
C200 C201 1.373 . S
C200 H213 0.929 . S
C201 C200 1.373 . S
C201 C202 1.396 . S
C201 C208 1.403 . S
C202 C192 1.476 . S
C202 N197 1.318 . S
C202 C201 1.396 . S
H203 C198 0.929 . S
O204 Mn180 2.385 . S
O204 C182 1.234 . S
O205 Mn180 2.209 . S
O205 Mn181 2.215 . S
O205 C182 1.283 . S
O206 Mn180 2.094 . S
O206 C184 1.240 . S
O207 Mn181 2.117 . S
O207 C184 1.264 . S
C208 C201 1.403 . S
C208 C209 1.399 . S
C208 H214 0.929 . S
C209 C189 1.449 . S
C209 C208 1.399 . S
C209 H215 0.930 . S
H210 C190 0.931 . S
H211 C191 0.930 . S
H212 C199 0.931 . S
H213 C200 0.929 . S
H214 C208 0.929 . S
H215 C209 0.930 . S
Mn216 O221 2.095 . S
Mn216 O231 2.162 . S
Mn216 O232 2.297 . S
Mn216 O240 2.385 . S
Mn216 O241 2.209 . S
Mn216 O242 2.094 . S
Mn217 O222 2.121 . S
Mn217 N224 2.257 . S
Mn217 N233 2.282 . S
Mn217 O241 2.215 . S
Mn217 O243 2.117 . S
C218 O240 1.234 . S
C218 O241 1.283 . S
C219 O231 1.281 . S
C219 O232 1.236 . S
C220 O242 1.240 . S
C220 O243 1.264 . S
O221 Mn216 2.095 . S
O221 C230 1.250 . S
O222 Mn217 2.121 . S
O222 C230 1.258 . S
C223 N224 1.326 . S
C223 C227 1.460 . S
C223 H229 0.929 . S
N224 Mn217 2.257 . S
N224 C223 1.326 . S
N224 C228 1.362 . S
C225 C226 1.258 . S
C225 C228 1.431 . S
C225 C245 1.449 . S
C226 C225 1.258 . S
C226 C227 1.477 . S
C226 H246 0.931 . S
C227 C223 1.460 . S
C227 C226 1.477 . S
C227 H247 0.930 . S
C228 N224 1.362 . S
C228 C225 1.431 . S
C228 C238 1.476 . S
H229 C223 0.929 . S
C230 O221 1.250 . S
C230 O222 1.258 . S
O231 Mn216 2.162 . S
O231 C219 1.281 . S
O232 Mn216 2.297 . S
O232 C219 1.236 . S
N233 Mn217 2.282 . S
N233 C234 1.328 . S
N233 C238 1.318 . S
C234 N233 1.328 . S
C234 C235 1.457 . S
C234 H239 0.929 . S
C235 C234 1.457 . S
C235 C236 1.291 . S
C235 H248 0.931 . S
C236 C235 1.291 . S
C236 C237 1.373 . S
C236 H249 0.929 . S
C237 C236 1.373 . S
C237 C238 1.396 . S
C237 C244 1.403 . S
C238 C228 1.476 . S
C238 N233 1.318 . S
C238 C237 1.396 . S
H239 C234 0.929 . S
O240 Mn216 2.385 . S
O240 C218 1.234 . S
O241 Mn216 2.209 . S
O241 Mn217 2.215 . S
O241 C218 1.283 . S
O242 Mn216 2.094 . S
O242 C220 1.240 . S
O243 Mn217 2.117 . S
O243 C220 1.264 . S
C244 C237 1.403 . S
C244 C245 1.399 . S
C244 H250 0.929 . S
C245 C225 1.449 . S
C245 C244 1.399 . S
C245 H251 0.930 . S
H246 C226 0.931 . S
H247 C227 0.930 . S
H248 C235 0.931 . S
H249 C236 0.929 . S
H250 C244 0.929 . S
H251 C245 0.930 . S
Mn252 O257 2.095 . S
Mn252 O267 2.162 . S
Mn252 O268 2.297 . S
Mn252 O276 2.385 . S
Mn252 O277 2.209 . S
Mn252 O278 2.094 1_556 S
Mn253 O258 2.121 . S
Mn253 N260 2.257 . S
Mn253 N269 2.282 . S
Mn253 O277 2.215 . S
Mn253 O279 2.117 1_556 S
C254 O276 1.234 . S
C254 O277 1.283 . S
C255 O267 1.281 . S
C255 O268 1.236 . S
C256 O278 1.240 . S
C256 O279 1.264 . S
O257 Mn252 2.095 . S
O257 C266 1.250 . S
O258 Mn253 2.121 . S
O258 C266 1.258 . S
C259 N260 1.326 . S
C259 C263 1.460 . S
C259 H265 0.929 . S
N260 Mn253 2.257 . S
N260 C259 1.326 . S
N260 C264 1.362 . S
C261 C262 1.258 . S
C261 C264 1.431 . S
C261 C281 1.449 . S
C262 C261 1.258 . S
C262 C263 1.477 . S
C262 H282 0.931 . S
C263 C259 1.460 . S
C263 C262 1.477 . S
C263 H283 0.930 . S
C264 N260 1.362 . S
C264 C261 1.431 . S
C264 C274 1.476 . S
H265 C259 0.929 . S
C266 O257 1.250 . S
C266 O258 1.258 . S
O267 Mn252 2.162 . S
O267 C255 1.281 . S
O268 Mn252 2.297 . S
O268 C255 1.236 . S
N269 Mn253 2.282 . S
N269 C270 1.328 . S
N269 C274 1.318 . S
C270 N269 1.328 . S
C270 C271 1.457 . S
C270 H275 0.929 1_556 S
C271 C270 1.457 . S
C271 C272 1.291 . S
C271 H284 0.931 . S
C272 C271 1.291 . S
C272 C273 1.373 . S
C272 H285 0.929 . S
C273 C272 1.373 . S
C273 C274 1.396 . S
C273 C280 1.403 . S
C274 C264 1.476 . S
C274 N269 1.318 . S
C274 C273 1.396 . S
H275 C270 0.929 1_554 S
O276 Mn252 2.385 . S
O276 C254 1.234 . S
O277 Mn252 2.209 . S
O277 Mn253 2.215 . S
O277 C254 1.283 . S
O278 Mn252 2.094 1_554 S
O278 C256 1.240 . S
O279 Mn253 2.117 1_554 S
O279 C256 1.264 . S
C280 C273 1.403 . S
C280 C281 1.399 . S
C280 H286 0.929 . S
C281 C261 1.449 . S
C281 C280 1.399 . S
C281 H287 0.930 . S
H282 C262 0.931 . S
H283 C263 0.930 . S
H284 C271 0.931 . S
H285 C272 0.929 . S
H286 C280 0.929 . S
H287 C281 0.930 . S
Mn288 O293 2.095 . S
Mn288 O303 2.162 . S
Mn288 O304 2.297 . S
Mn288 O312 2.385 . S
Mn288 O313 2.209 . S
Mn288 O314 2.094 . S
Mn289 O294 2.121 . S
Mn289 N296 2.257 1_655 S
Mn289 N305 2.282 1_655 S
Mn289 O313 2.215 . S
Mn289 O315 2.117 . S
C290 O312 1.234 . S
C290 O313 1.283 . S
C291 O303 1.281 . S
C291 O304 1.236 . S
C292 O314 1.240 . S
C292 O315 1.264 . S
O293 Mn288 2.095 . S
O293 C302 1.250 . S
O294 Mn289 2.121 . S
O294 C302 1.258 . S
C295 N296 1.326 . S
C295 C299 1.460 . S
C295 H301 0.929 . S
N296 Mn289 2.257 1_455 S
N296 C295 1.326 . S
N296 C300 1.362 . S
C297 C298 1.258 . S
C297 C300 1.431 . S
C297 C317 1.449 . S
C298 C297 1.258 . S
C298 C299 1.477 . S
C298 H318 0.931 . S
C299 C295 1.460 . S
C299 C298 1.477 . S
C299 H319 0.930 . S
C300 N296 1.362 . S
C300 C297 1.431 . S
C300 C310 1.476 . S
H301 C295 0.929 . S
C302 O293 1.250 . S
C302 O294 1.258 . S
O303 Mn288 2.162 . S
O303 C291 1.281 . S
O304 Mn288 2.297 . S
O304 C291 1.236 . S
N305 Mn289 2.282 1_455 S
N305 C306 1.328 . S
N305 C310 1.318 . S
C306 N305 1.328 . S
C306 C307 1.457 . S
C306 H311 0.929 . S
C307 C306 1.457 . S
C307 C308 1.291 . S
C307 H320 0.931 . S
C308 C307 1.291 . S
C308 C309 1.373 . S
C308 H321 0.929 . S
C309 C308 1.373 . S
C309 C310 1.396 . S
C309 C316 1.403 . S
C310 C300 1.476 . S
C310 N305 1.318 . S
C310 C309 1.396 . S
H311 C306 0.929 . S
O312 Mn288 2.385 . S
O312 C290 1.234 . S
O313 Mn288 2.209 . S
O313 Mn289 2.215 . S
O313 C290 1.283 . S
O314 Mn288 2.094 . S
O314 C292 1.240 . S
O315 Mn289 2.117 . S
O315 C292 1.264 . S
C316 C309 1.403 . S
C316 C317 1.399 . S
C316 H322 0.929 . S
C317 C297 1.449 . S
C317 C316 1.399 . S
C317 H323 0.930 . S
H318 C298 0.931 . S
H319 C299 0.930 . S
H320 C307 0.931 . S
H321 C308 0.929 . S
H322 C316 0.929 . S
H323 C317 0.930 . S
Mn324 O329 2.095 . S
Mn324 O339 2.162 . S
Mn324 O340 2.297 . S
Mn324 O348 2.385 . S
Mn324 O349 2.209 . S
Mn324 O350 2.094 . S
Mn325 O330 2.121 . S
Mn325 N332 2.257 . S
Mn325 N341 2.282 . S
Mn325 O349 2.215 . S
Mn325 O351 2.117 . S
C326 O348 1.234 . S
C326 O349 1.283 . S
C327 O339 1.281 . S
C327 O340 1.236 . S
C328 O350 1.240 . S
C328 O351 1.264 . S
O329 Mn324 2.095 . S
O329 C338 1.250 . S
O330 Mn325 2.121 . S
O330 C338 1.258 . S
C331 N332 1.326 . S
C331 C335 1.460 . S
C331 H337 0.929 . S
N332 Mn325 2.257 . S
N332 C331 1.326 . S
N332 C336 1.362 . S
C333 C334 1.258 . S
C333 C336 1.431 . S
C333 C353 1.449 . S
C334 C333 1.258 . S
C334 C335 1.477 . S
C334 H354 0.931 . S
C335 C331 1.460 . S
C335 C334 1.477 . S
C335 H355 0.930 . S
C336 N332 1.362 . S
C336 C333 1.431 . S
C336 C346 1.476 . S
H337 C331 0.929 . S
C338 O329 1.250 . S
C338 O330 1.258 . S
O339 Mn324 2.162 . S
O339 C327 1.281 . S
O340 Mn324 2.297 . S
O340 C327 1.236 . S
N341 Mn325 2.282 . S
N341 C342 1.328 . S
N341 C346 1.318 . S
C342 N341 1.328 . S
C342 C343 1.457 . S
C342 H347 0.929 . S
C343 C342 1.457 . S
C343 C344 1.291 . S
C343 H356 0.931 . S
C344 C343 1.291 . S
C344 C345 1.373 . S
C344 H357 0.929 . S
C345 C344 1.373 . S
C345 C346 1.396 . S
C345 C352 1.403 . S
C346 C336 1.476 . S
C346 N341 1.318 . S
C346 C345 1.396 . S
H347 C342 0.929 . S
O348 Mn324 2.385 . S
O348 C326 1.234 . S
O349 Mn324 2.209 . S
O349 Mn325 2.215 . S
O349 C326 1.283 . S
O350 Mn324 2.094 . S
O350 C328 1.240 . S
O351 Mn325 2.117 . S
O351 C328 1.264 . S
C352 C345 1.403 . S
C352 C353 1.399 . S
C352 H358 0.929 . S
C353 C333 1.449 . S
C353 C352 1.399 . S
C353 H359 0.930 . S
H354 C334 0.931 . S
H355 C335 0.930 . S
H356 C343 0.931 . S
H357 C344 0.929 . S
H358 C352 0.929 . S
H359 C353 0.930 . S
Mn360 O365 2.095 . S
Mn360 O375 2.162 . S
Mn360 O376 2.297 . S
Mn360 O384 2.385 . S
Mn360 O385 2.209 . S
Mn360 O386 2.094 . S
Mn361 O366 2.121 . S
Mn361 N368 2.257 . S
Mn361 N377 2.282 . S
Mn361 O385 2.215 . S
Mn361 O387 2.117 . S
C362 O384 1.234 . S
C362 O385 1.283 . S
C363 O375 1.281 . S
C363 O376 1.236 . S
C364 O386 1.240 . S
C364 O387 1.264 . S
O365 Mn360 2.095 . S
O365 C374 1.250 . S
O366 Mn361 2.121 . S
O366 C374 1.258 . S
C367 N368 1.326 . S
C367 C371 1.460 . S
C367 H373 0.929 . S
N368 Mn361 2.257 . S
N368 C367 1.326 . S
N368 C372 1.362 . S
C369 C370 1.258 . S
C369 C372 1.431 . S
C369 C389 1.449 . S
C370 C369 1.258 . S
C370 C371 1.477 . S
C370 H390 0.931 . S
C371 C367 1.460 . S
C371 C370 1.477 . S
C371 H391 0.930 . S
C372 N368 1.362 . S
C372 C369 1.431 . S
C372 C382 1.476 . S
H373 C367 0.929 . S
C374 O365 1.250 . S
C374 O366 1.258 . S
O375 Mn360 2.162 . S
O375 C363 1.281 . S
O376 Mn360 2.297 . S
O376 C363 1.236 . S
N377 Mn361 2.282 . S
N377 C378 1.328 . S
N377 C382 1.318 . S
C378 N377 1.328 . S
C378 C379 1.457 . S
C378 H383 0.929 . S
C379 C378 1.457 . S
C379 C380 1.291 . S
C379 H392 0.931 . S
C380 C379 1.291 . S
C380 C381 1.373 . S
C380 H393 0.929 . S
C381 C380 1.373 . S
C381 C382 1.396 . S
C381 C388 1.403 . S
C382 C372 1.476 . S
C382 N377 1.318 . S
C382 C381 1.396 . S
H383 C378 0.929 . S
O384 Mn360 2.385 . S
O384 C362 1.234 . S
O385 Mn360 2.209 . S
O385 Mn361 2.215 . S
O385 C362 1.283 . S
O386 Mn360 2.094 . S
O386 C364 1.240 . S
O387 Mn361 2.117 . S
O387 C364 1.264 . S
C388 C381 1.403 . S
C388 C389 1.399 . S
C388 H394 0.929 . S
C389 C369 1.449 . S
C389 C388 1.399 . S
C389 H395 0.930 . S
H390 C370 0.931 . S
H391 C371 0.930 . S
H392 C379 0.931 . S
H393 C380 0.929 . S
H394 C388 0.929 . S
H395 C389 0.930 . S
Mn396 O401 2.095 1_556 S
Mn396 O411 2.162 . S
Mn396 O412 2.297 . S
Mn396 O420 2.385 . S
Mn396 O421 2.209 . S
Mn396 O422 2.094 . S
Mn397 O402 2.121 . S
Mn397 N404 2.257 . S
Mn397 N413 2.282 1_554 S
Mn397 O421 2.215 1_554 S
Mn397 O423 2.117 1_554 S
C398 O420 1.234 . S
C398 O421 1.283 . S
C399 O411 1.281 . S
C399 O412 1.236 . S
C400 O422 1.240 . S
C400 O423 1.264 . S
O401 Mn396 2.095 1_554 S
O401 C410 1.250 . S
O402 Mn397 2.121 . S
O402 C410 1.258 . S
C403 N404 1.326 . S
C403 C407 1.460 . S
C403 H409 0.929 . S
N404 Mn397 2.257 . S
N404 C403 1.326 . S
N404 C408 1.362 . S
C405 C406 1.258 . S
C405 C408 1.431 . S
C405 C425 1.449 . S
C406 C405 1.258 . S
C406 C407 1.477 . S
C406 H426 0.931 . S
C407 C403 1.460 . S
C407 C406 1.477 . S
C407 H427 0.930 . S
C408 N404 1.362 . S
C408 C405 1.431 . S
C408 C418 1.476 1_554 S
H409 C403 0.929 . S
C410 O401 1.250 . S
C410 O402 1.258 . S
O411 Mn396 2.162 . S
O411 C399 1.281 . S
O412 Mn396 2.297 . S
O412 C399 1.236 . S
N413 Mn397 2.282 1_556 S
N413 C414 1.328 . S
N413 C418 1.318 . S
C414 N413 1.328 . S
C414 C415 1.457 . S
C414 H419 0.929 . S
C415 C414 1.457 . S
C415 C416 1.291 . S
C415 H428 0.931 . S
C416 C415 1.291 . S
C416 C417 1.373 . S
C416 H429 0.929 . S
C417 C416 1.373 . S
C417 C418 1.396 . S
C417 C424 1.403 . S
C418 C408 1.476 1_556 S
C418 N413 1.318 . S
C418 C417 1.396 . S
H419 C414 0.929 . S
O420 Mn396 2.385 . S
O420 C398 1.234 . S
O421 Mn396 2.209 . S
O421 Mn397 2.215 1_556 S
O421 C398 1.283 . S
O422 Mn396 2.094 . S
O422 C400 1.240 . S
O423 Mn397 2.117 1_556 S
O423 C400 1.264 . S
C424 C417 1.403 . S
C424 C425 1.399 1_556 S
C424 H430 0.929 . S
C425 C405 1.449 . S
C425 C424 1.399 1_554 S
C425 H431 0.930 . S
H426 C406 0.931 . S
H427 C407 0.930 . S
H428 C415 0.931 . S
H429 C416 0.929 . S
H430 C424 0.929 . S
H431 C425 0.930 . S
Mn432 O437 2.095 . S
Mn432 O447 2.162 . S
Mn432 O448 2.297 . S
Mn432 O456 2.385 . S
Mn432 O457 2.209 . S
Mn432 O458 2.094 . S
Mn433 O438 2.121 . S
Mn433 N440 2.257 1_655 S
Mn433 N449 2.282 1_655 S
Mn433 O457 2.215 . S
Mn433 O459 2.117 . S
C434 O456 1.234 . S
C434 O457 1.283 . S
C435 O447 1.281 . S
C435 O448 1.236 . S
C436 O458 1.240 . S
C436 O459 1.264 . S
O437 Mn432 2.095 . S
O437 C446 1.250 . S
O438 Mn433 2.121 . S
O438 C446 1.258 . S
C439 N440 1.326 . S
C439 C443 1.460 . S
C439 H445 0.929 . S
N440 Mn433 2.257 1_455 S
N440 C439 1.326 . S
N440 C444 1.362 . S
C441 C442 1.258 . S
C441 C444 1.431 . S
C441 C461 1.449 . S
C442 C441 1.258 . S
C442 C443 1.477 . S
C442 H462 0.931 . S
C443 C439 1.460 . S
C443 C442 1.477 . S
C443 H463 0.930 . S
C444 N440 1.362 . S
C444 C441 1.431 . S
C444 C454 1.476 . S
H445 C439 0.929 . S
C446 O437 1.250 . S
C446 O438 1.258 . S
O447 Mn432 2.162 . S
O447 C435 1.281 . S
O448 Mn432 2.297 . S
O448 C435 1.236 . S
N449 Mn433 2.282 1_455 S
N449 C450 1.328 . S
N449 C454 1.318 . S
C450 N449 1.328 . S
C450 C451 1.457 . S
C450 H455 0.929 . S
C451 C450 1.457 . S
C451 C452 1.291 . S
C451 H464 0.931 . S
C452 C451 1.291 . S
C452 C453 1.373 . S
C452 H465 0.929 . S
C453 C452 1.373 . S
C453 C454 1.396 . S
C453 C460 1.403 . S
C454 C444 1.476 . S
C454 N449 1.318 . S
C454 C453 1.396 . S
H455 C450 0.929 . S
O456 Mn432 2.385 . S
O456 C434 1.234 . S
O457 Mn432 2.209 . S
O457 Mn433 2.215 . S
O457 C434 1.283 . S
O458 Mn432 2.094 . S
O458 C436 1.240 . S
O459 Mn433 2.117 . S
O459 C436 1.264 . S
C460 C453 1.403 . S
C460 C461 1.399 . S
C460 H466 0.929 . S
C461 C441 1.449 . S
C461 C460 1.399 . S
C461 H467 0.930 . S
H462 C442 0.931 . S
H463 C443 0.930 . S
H464 C451 0.931 . S
H465 C452 0.929 . S
H466 C460 0.929 . S
H467 C461 0.930 . S
Mn468 O473 2.095 . S
Mn468 O483 2.162 . S
Mn468 O484 2.297 . S
Mn468 O492 2.385 . S
Mn468 O493 2.209 . S
Mn468 O494 2.094 . S
Mn469 O474 2.121 . S
Mn469 N476 2.257 . S
Mn469 N485 2.282 . S
Mn469 O493 2.215 . S
Mn469 O495 2.117 . S
C470 O492 1.234 . S
C470 O493 1.283 . S
C471 O483 1.281 . S
C471 O484 1.236 . S
C472 O494 1.240 . S
C472 O495 1.264 . S
O473 Mn468 2.095 . S
O473 C482 1.250 . S
O474 Mn469 2.121 . S
O474 C482 1.258 . S
C475 N476 1.326 . S
C475 C479 1.460 . S
C475 H481 0.929 . S
N476 Mn469 2.257 . S
N476 C475 1.326 . S
N476 C480 1.362 . S
C477 C478 1.258 . S
C477 C480 1.431 . S
C477 C497 1.449 . S
C478 C477 1.258 . S
C478 C479 1.477 . S
C478 H498 0.931 . S
C479 C475 1.460 . S
C479 C478 1.477 . S
C479 H499 0.930 . S
C480 N476 1.362 . S
C480 C477 1.431 . S
C480 C490 1.476 . S
H481 C475 0.929 . S
C482 O473 1.250 . S
C482 O474 1.258 . S
O483 Mn468 2.162 . S
O483 C471 1.281 . S
O484 Mn468 2.297 . S
O484 C471 1.236 . S
N485 Mn469 2.282 . S
N485 C486 1.328 . S
N485 C490 1.318 . S
C486 N485 1.328 . S
C486 C487 1.457 . S
C486 H491 0.929 . S
C487 C486 1.457 . S
C487 C488 1.291 . S
C487 H500 0.931 . S
C488 C487 1.291 . S
C488 C489 1.373 . S
C488 H501 0.929 . S
C489 C488 1.373 . S
C489 C490 1.396 . S
C489 C496 1.403 . S
C490 C480 1.476 . S
C490 N485 1.318 . S
C490 C489 1.396 . S
H491 C486 0.929 . S
O492 Mn468 2.385 . S
O492 C470 1.234 . S
O493 Mn468 2.209 . S
O493 Mn469 2.215 . S
O493 C470 1.283 . S
O494 Mn468 2.094 . S
O494 C472 1.240 . S
O495 Mn469 2.117 . S
O495 C472 1.264 . S
C496 C489 1.403 . S
C496 C497 1.399 . S
C496 H502 0.929 . S
C497 C477 1.449 . S
C497 C496 1.399 . S
C497 H503 0.930 . S
H498 C478 0.931 . S
H499 C479 0.930 . S
H500 C487 0.931 . S
H501 C488 0.929 . S
H502 C496 0.929 . S
H503 C497 0.930 . S
Mn504 O509 2.095 . S
Mn504 O519 2.162 . S
Mn504 O520 2.297 . S
Mn504 O528 2.385 . S
Mn504 O529 2.209 . S
Mn504 O530 2.094 . S
Mn505 O510 2.121 . S
Mn505 N512 2.257 . S
Mn505 N521 2.282 . S
Mn505 O529 2.215 . S
Mn505 O531 2.117 . S
C506 O528 1.234 . S
C506 O529 1.283 . S
C507 O519 1.281 . S
C507 O520 1.236 . S
C508 O530 1.240 . S
C508 O531 1.264 . S
O509 Mn504 2.095 . S
O509 C518 1.250 . S
O510 Mn505 2.121 . S
O510 C518 1.258 . S
C511 N512 1.326 . S
C511 C515 1.460 . S
C511 H517 0.929 . S
N512 Mn505 2.257 . S
N512 C511 1.326 . S
N512 C516 1.362 . S
C513 C514 1.258 . S
C513 C516 1.431 . S
C513 C533 1.449 . S
C514 C513 1.258 . S
C514 C515 1.477 . S
C514 H534 0.931 . S
C515 C511 1.460 . S
C515 C514 1.477 . S
C515 H535 0.930 . S
C516 N512 1.362 . S
C516 C513 1.431 . S
C516 C526 1.476 . S
H517 C511 0.929 . S
C518 O509 1.250 . S
C518 O510 1.258 . S
O519 Mn504 2.162 . S
O519 C507 1.281 . S
O520 Mn504 2.297 . S
O520 C507 1.236 . S
N521 Mn505 2.282 . S
N521 C522 1.328 . S
N521 C526 1.318 . S
C522 N521 1.328 . S
C522 C523 1.457 . S
C522 H527 0.929 . S
C523 C522 1.457 . S
C523 C524 1.291 . S
C523 H536 0.931 . S
C524 C523 1.291 . S
C524 C525 1.373 . S
C524 H537 0.929 . S
C525 C524 1.373 . S
C525 C526 1.396 . S
C525 C532 1.403 . S
C526 C516 1.476 . S
C526 N521 1.318 . S
C526 C525 1.396 . S
H527 C522 0.929 . S
O528 Mn504 2.385 . S
O528 C506 1.234 . S
O529 Mn504 2.209 . S
O529 Mn505 2.215 . S
O529 C506 1.283 . S
O530 Mn504 2.094 . S
O530 C508 1.240 . S
O531 Mn505 2.117 . S
O531 C508 1.264 . S
C532 C525 1.403 . S
C532 C533 1.399 . S
C532 H538 0.929 . S
C533 C513 1.449 . S
C533 C532 1.399 . S
C533 H539 0.930 . S
H534 C514 0.931 . S
H535 C515 0.930 . S
H536 C523 0.931 . S
H537 C524 0.929 . S
H538 C532 0.929 . S
H539 C533 0.930 . S
Mn540 O545 2.095 1_554 S
Mn540 O555 2.162 . S
Mn540 O556 2.297 . S
Mn540 O564 2.385 . S
Mn540 O565 2.209 . S
Mn540 O566 2.094 . S
Mn541 O546 2.121 . S
Mn541 N548 2.257 . S
Mn541 N557 2.282 1_556 S
Mn541 O565 2.215 1_556 S
Mn541 O567 2.117 1_556 S
C542 O564 1.234 . S
C542 O565 1.283 . S
C543 O555 1.281 . S
C543 O556 1.236 . S
C544 O566 1.240 . S
C544 O567 1.264 . S
O545 Mn540 2.095 1_556 S
O545 C554 1.250 . S
O546 Mn541 2.121 . S
O546 C554 1.258 . S
C547 N548 1.326 . S
C547 C551 1.460 . S
C547 H553 0.929 . S
N548 Mn541 2.257 . S
N548 C547 1.326 . S
N548 C552 1.362 . S
C549 C550 1.258 . S
C549 C552 1.431 . S
C549 C569 1.449 . S
C550 C549 1.258 . S
C550 C551 1.477 . S
C550 H570 0.931 . S
C551 C547 1.460 . S
C551 C550 1.477 . S
C551 H571 0.930 . S
C552 N548 1.362 . S
C552 C549 1.431 . S
C552 C562 1.476 1_556 S
H553 C547 0.929 . S
C554 O545 1.250 . S
C554 O546 1.258 . S
O555 Mn540 2.162 . S
O555 C543 1.281 . S
O556 Mn540 2.297 . S
O556 C543 1.236 . S
N557 Mn541 2.282 1_554 S
N557 C558 1.328 . S
N557 C562 1.318 . S
C558 N557 1.328 . S
C558 C559 1.457 . S
C558 H563 0.929 . S
C559 C558 1.457 . S
C559 C560 1.291 . S
C559 H572 0.931 . S
C560 C559 1.291 . S
C560 C561 1.373 . S
C560 H573 0.929 . S
C561 C560 1.373 . S
C561 C562 1.396 . S
C561 C568 1.403 . S
C562 C552 1.476 1_554 S
C562 N557 1.318 . S
C562 C561 1.396 . S
H563 C558 0.929 . S
O564 Mn540 2.385 . S
O564 C542 1.234 . S
O565 Mn540 2.209 . S
O565 Mn541 2.215 1_554 S
O565 C542 1.283 . S
O566 Mn540 2.094 . S
O566 C544 1.240 . S
O567 Mn541 2.117 1_554 S
O567 C544 1.264 . S
C568 C561 1.403 . S
C568 C569 1.399 1_554 S
C568 H574 0.929 . S
C569 C549 1.449 . S
C569 C568 1.399 1_556 S
C569 H575 0.930 . S
H570 C550 0.931 . S
H571 C551 0.930 . S
H572 C559 0.931 . S
H573 C560 0.929 . S
H574 C568 0.929 . S
H575 C569 0.930 . S
Mn576 O581 2.095 . S
Mn576 O591 2.162 . S
Mn576 O592 2.297 . S
Mn576 O600 2.385 . S
Mn576 O601 2.209 . S
Mn576 O602 2.094 . S
Mn577 O582 2.121 . S
Mn577 N584 2.257 . S
Mn577 N593 2.282 . S
Mn577 O601 2.215 . S
Mn577 O603 2.117 . S
C578 O600 1.234 . S
C578 O601 1.283 . S
C579 O591 1.281 . S
C579 O592 1.236 . S
C580 O602 1.240 . S
C580 O603 1.264 . S
O581 Mn576 2.095 . S
O581 C590 1.250 . S
O582 Mn577 2.121 . S
O582 C590 1.258 . S
C583 N584 1.326 . S
C583 C587 1.460 . S
C583 H589 0.929 . S
N584 Mn577 2.257 . S
N584 C583 1.326 . S
N584 C588 1.362 . S
C585 C586 1.258 . S
C585 C588 1.431 . S
C585 C605 1.449 . S
C586 C585 1.258 . S
C586 C587 1.477 . S
C586 H606 0.931 . S
C587 C583 1.460 . S
C587 C586 1.477 . S
C587 H607 0.930 . S
C588 N584 1.362 . S
C588 C585 1.431 . S
C588 C598 1.476 . S
H589 C583 0.929 . S
C590 O581 1.250 . S
C590 O582 1.258 . S
O591 Mn576 2.162 . S
O591 C579 1.281 . S
O592 Mn576 2.297 . S
O592 C579 1.236 . S
N593 Mn577 2.282 . S
N593 C594 1.328 . S
N593 C598 1.318 . S
C594 N593 1.328 . S
C594 C595 1.457 . S
C594 H599 0.929 . S
C595 C594 1.457 . S
C595 C596 1.291 . S
C595 H608 0.931 . S
C596 C595 1.291 . S
C596 C597 1.373 . S
C596 H609 0.929 . S
C597 C596 1.373 . S
C597 C598 1.396 . S
C597 C604 1.403 . S
C598 C588 1.476 . S
C598 N593 1.318 . S
C598 C597 1.396 . S
H599 C594 0.929 . S
O600 Mn576 2.385 . S
O600 C578 1.234 . S
O601 Mn576 2.209 . S
O601 Mn577 2.215 . S
O601 C578 1.283 . S
O602 Mn576 2.094 . S
O602 C580 1.240 . S
O603 Mn577 2.117 . S
O603 C580 1.264 . S
C604 C597 1.403 . S
C604 C605 1.399 . S
C604 H610 0.929 . S
C605 C585 1.449 . S
C605 C604 1.399 . S
C605 H611 0.930 . S
H606 C586 0.931 . S
H607 C587 0.930 . S
H608 C595 0.931 . S
H609 C596 0.929 . S
H610 C604 0.929 . S
H611 C605 0.930 . S
Mn612 O617 2.095 . S
Mn612 O627 2.162 . S
Mn612 O628 2.297 . S
Mn612 O636 2.385 . S
Mn612 O637 2.209 . S
Mn612 O638 2.094 1_554 S
Mn613 O618 2.121 . S
Mn613 N620 2.257 . S
Mn613 N629 2.282 . S
Mn613 O637 2.215 . S
Mn613 O639 2.117 1_554 S
C614 O636 1.234 . S
C614 O637 1.283 . S
C615 O627 1.281 . S
C615 O628 1.236 . S
C616 O638 1.240 . S
C616 O639 1.264 . S
O617 Mn612 2.095 . S
O617 C626 1.250 . S
O618 Mn613 2.121 . S
O618 C626 1.258 . S
C619 N620 1.326 . S
C619 C623 1.460 . S
C619 H625 0.929 . S
N620 Mn613 2.257 . S
N620 C619 1.326 . S
N620 C624 1.362 . S
C621 C622 1.258 . S
C621 C624 1.431 . S
C621 C641 1.449 . S
C622 C621 1.258 . S
C622 C623 1.477 . S
C622 H642 0.931 . S
C623 C619 1.460 . S
C623 C622 1.477 . S
C623 H643 0.930 . S
C624 N620 1.362 . S
C624 C621 1.431 . S
C624 C634 1.476 . S
H625 C619 0.929 . S
C626 O617 1.250 . S
C626 O618 1.258 . S
O627 Mn612 2.162 . S
O627 C615 1.281 . S
O628 Mn612 2.297 . S
O628 C615 1.236 . S
N629 Mn613 2.282 . S
N629 C630 1.328 . S
N629 C634 1.318 . S
C630 N629 1.328 . S
C630 C631 1.457 . S
C630 H635 0.929 1_554 S
C631 C630 1.457 . S
C631 C632 1.291 . S
C631 H644 0.931 . S
C632 C631 1.291 . S
C632 C633 1.373 . S
C632 H645 0.929 . S
C633 C632 1.373 . S
C633 C634 1.396 . S
C633 C640 1.403 . S
C634 C624 1.476 . S
C634 N629 1.318 . S
C634 C633 1.396 . S
H635 C630 0.929 1_556 S
O636 Mn612 2.385 . S
O636 C614 1.234 . S
O637 Mn612 2.209 . S
O637 Mn613 2.215 . S
O637 C614 1.283 . S
O638 Mn612 2.094 1_556 S
O638 C616 1.240 . S
O639 Mn613 2.117 1_556 S
O639 C616 1.264 . S
C640 C633 1.403 . S
C640 C641 1.399 . S
C640 H646 0.929 . S
C641 C621 1.449 . S
C641 C640 1.399 . S
C641 H647 0.930 . S
H642 C622 0.931 . S
H643 C623 0.930 . S
H644 C631 0.931 . S
H645 C632 0.929 . S
H646 C640 0.929 . S
H647 C641 0.930 . S
Mn648 O653 2.095 . S
Mn648 O663 2.162 . S
Mn648 O664 2.297 . S
Mn648 O672 2.385 . S
Mn648 O673 2.209 . S
Mn648 O674 2.094 . S
Mn649 O654 2.121 . S
Mn649 N656 2.257 1_655 S
Mn649 N665 2.282 1_655 S
Mn649 O673 2.215 . S
Mn649 O675 2.117 . S
C650 O672 1.234 . S
C650 O673 1.283 . S
C651 O663 1.281 . S
C651 O664 1.236 . S
C652 O674 1.240 . S
C652 O675 1.264 . S
O653 Mn648 2.095 . S
O653 C662 1.250 . S
O654 Mn649 2.121 . S
O654 C662 1.258 . S
C655 N656 1.326 . S
C655 C659 1.460 . S
C655 H661 0.929 1_455 S
N656 Mn649 2.257 1_455 S
N656 C655 1.326 . S
N656 C660 1.362 . S
C657 C658 1.258 . S
C657 C660 1.431 . S
C657 C677 1.449 . S
C658 C657 1.258 . S
C658 C659 1.477 . S
C658 H678 0.931 . S
C659 C655 1.460 . S
C659 C658 1.477 . S
C659 H679 0.930 . S
C660 N656 1.362 . S
C660 C657 1.431 . S
C660 C670 1.476 . S
H661 C655 0.929 1_655 S
C662 O653 1.250 . S
C662 O654 1.258 . S
O663 Mn648 2.162 . S
O663 C651 1.281 . S
O664 Mn648 2.297 . S
O664 C651 1.236 . S
N665 Mn649 2.282 1_455 S
N665 C666 1.328 . S
N665 C670 1.318 . S
C666 N665 1.328 . S
C666 C667 1.457 . S
C666 H671 0.929 1_455 S
C667 C666 1.457 . S
C667 C668 1.291 . S
C667 H680 0.931 . S
C668 C667 1.291 . S
C668 C669 1.373 . S
C668 H681 0.929 . S
C669 C668 1.373 . S
C669 C670 1.396 . S
C669 C676 1.403 . S
C670 C660 1.476 . S
C670 N665 1.318 . S
C670 C669 1.396 . S
H671 C666 0.929 1_655 S
O672 Mn648 2.385 . S
O672 C650 1.234 . S
O673 Mn648 2.209 . S
O673 Mn649 2.215 . S
O673 C650 1.283 . S
O674 Mn648 2.094 . S
O674 C652 1.240 . S
O675 Mn649 2.117 . S
O675 C652 1.264 . S
C676 C669 1.403 . S
C676 C677 1.399 . S
C676 H682 0.929 . S
C677 C657 1.449 . S
C677 C676 1.399 . S
C677 H683 0.930 . S
H678 C658 0.931 . S
H679 C659 0.930 . S
H680 C667 0.931 . S
H681 C668 0.929 . S
H682 C676 0.929 . S
H683 C677 0.930 . S
Mn684 O689 2.095 . S
Mn684 O699 2.162 . S
Mn684 O700 2.297 . S
Mn684 O708 2.385 . S
Mn684 O709 2.209 . S
Mn684 O710 2.094 . S
Mn685 O690 2.121 . S
Mn685 N692 2.257 . S
Mn685 N701 2.282 . S
Mn685 O709 2.215 . S
Mn685 O711 2.117 . S
C686 O708 1.234 . S
C686 O709 1.283 . S
C687 O699 1.281 . S
C687 O700 1.236 . S
C688 O710 1.240 . S
C688 O711 1.264 . S
O689 Mn684 2.095 . S
O689 C698 1.250 . S
O690 Mn685 2.121 . S
O690 C698 1.258 . S
C691 N692 1.326 . S
C691 C695 1.460 . S
C691 H697 0.929 . S
N692 Mn685 2.257 . S
N692 C691 1.326 . S
N692 C696 1.362 . S
C693 C694 1.258 . S
C693 C696 1.431 . S
C693 C713 1.449 . S
C694 C693 1.258 . S
C694 C695 1.477 . S
C694 H714 0.931 . S
C695 C691 1.460 . S
C695 C694 1.477 . S
C695 H715 0.930 . S
C696 N692 1.362 . S
C696 C693 1.431 . S
C696 C706 1.476 . S
H697 C691 0.929 . S
C698 O689 1.250 . S
C698 O690 1.258 . S
O699 Mn684 2.162 . S
O699 C687 1.281 . S
O700 Mn684 2.297 . S
O700 C687 1.236 . S
N701 Mn685 2.282 . S
N701 C702 1.328 . S
N701 C706 1.318 . S
C702 N701 1.328 . S
C702 C703 1.457 . S
C702 H707 0.929 . S
C703 C702 1.457 . S
C703 C704 1.291 . S
C703 H716 0.931 . S
C704 C703 1.291 . S
C704 C705 1.373 . S
C704 H717 0.929 . S
C705 C704 1.373 . S
C705 C706 1.396 . S
C705 C712 1.403 . S
C706 C696 1.476 . S
C706 N701 1.318 . S
C706 C705 1.396 . S
H707 C702 0.929 . S
O708 Mn684 2.385 . S
O708 C686 1.234 . S
O709 Mn684 2.209 . S
O709 Mn685 2.215 . S
O709 C686 1.283 . S
O710 Mn684 2.094 . S
O710 C688 1.240 . S
O711 Mn685 2.117 . S
O711 C688 1.264 . S
C712 C705 1.403 . S
C712 C713 1.399 . S
C712 H718 0.929 . S
C713 C693 1.449 . S
C713 C712 1.399 . S
C713 H719 0.930 . S
H714 C694 0.931 . S
H715 C695 0.930 . S
H716 C703 0.931 . S
H717 C704 0.929 . S
H718 C712 0.929 . S
H719 C713 0.930 . S
Mn720 O725 2.095 . S
Mn720 O735 2.162 . S
Mn720 O736 2.297 . S
Mn720 O744 2.385 . S
Mn720 O745 2.209 . S
Mn720 O746 2.094 . S
Mn721 O726 2.121 . S
Mn721 N728 2.257 . S
Mn721 N737 2.282 . S
Mn721 O745 2.215 . S
Mn721 O747 2.117 . S
C722 O744 1.234 . S
C722 O745 1.283 . S
C723 O735 1.281 . S
C723 O736 1.236 . S
C724 O746 1.240 . S
C724 O747 1.264 . S
O725 Mn720 2.095 . S
O725 C734 1.250 . S
O726 Mn721 2.121 . S
O726 C734 1.258 . S
C727 N728 1.326 . S
C727 C731 1.460 . S
C727 H733 0.929 . S
N728 Mn721 2.257 . S
N728 C727 1.326 . S
N728 C732 1.362 . S
C729 C730 1.258 . S
C729 C732 1.431 . S
C729 C749 1.449 . S
C730 C729 1.258 . S
C730 C731 1.477 . S
C730 H750 0.931 . S
C731 C727 1.460 . S
C731 C730 1.477 . S
C731 H751 0.930 . S
C732 N728 1.362 . S
C732 C729 1.431 . S
C732 C742 1.476 . S
H733 C727 0.929 . S
C734 O725 1.250 . S
C734 O726 1.258 . S
O735 Mn720 2.162 . S
O735 C723 1.281 . S
O736 Mn720 2.297 . S
O736 C723 1.236 . S
N737 Mn721 2.282 . S
N737 C738 1.328 . S
N737 C742 1.318 . S
C738 N737 1.328 . S
C738 C739 1.457 . S
C738 H743 0.929 . S
C739 C738 1.457 . S
C739 C740 1.291 . S
C739 H752 0.931 . S
C740 C739 1.291 . S
C740 C741 1.373 . S
C740 H753 0.929 . S
C741 C740 1.373 . S
C741 C742 1.396 . S
C741 C748 1.403 . S
C742 C732 1.476 . S
C742 N737 1.318 . S
C742 C741 1.396 . S
H743 C738 0.929 . S
O744 Mn720 2.385 . S
O744 C722 1.234 . S
O745 Mn720 2.209 . S
O745 Mn721 2.215 . S
O745 C722 1.283 . S
O746 Mn720 2.094 . S
O746 C724 1.240 . S
O747 Mn721 2.117 . S
O747 C724 1.264 . S
C748 C741 1.403 . S
C748 C749 1.399 . S
C748 H754 0.929 . S
C749 C729 1.449 . S
C749 C748 1.399 . S
C749 H755 0.930 . S
H750 C730 0.931 . S
H751 C731 0.930 . S
H752 C739 0.931 . S
H753 C740 0.929 . S
H754 C748 0.929 . S
H755 C749 0.930 . S
Mn756 O761 2.095 . S
Mn756 O771 2.162 . S
Mn756 O772 2.297 . S
Mn756 O780 2.385 . S
Mn756 O781 2.209 . S
Mn756 O782 2.094 1_556 S
Mn757 O762 2.121 . S
Mn757 N764 2.257 . S
Mn757 N773 2.282 . S
Mn757 O781 2.215 . S
Mn757 O783 2.117 1_556 S
C758 O780 1.234 . S
C758 O781 1.283 . S
C759 O771 1.281 . S
C759 O772 1.236 . S
C760 O782 1.240 . S
C760 O783 1.264 . S
O761 Mn756 2.095 . S
O761 C770 1.250 . S
O762 Mn757 2.121 . S
O762 C770 1.258 . S
C763 N764 1.326 . S
C763 C767 1.460 . S
C763 H769 0.929 . S
N764 Mn757 2.257 . S
N764 C763 1.326 . S
N764 C768 1.362 . S
C765 C766 1.258 . S
C765 C768 1.431 . S
C765 C785 1.449 . S
C766 C765 1.258 . S
C766 C767 1.477 . S
C766 H786 0.931 . S
C767 C763 1.460 . S
C767 C766 1.477 . S
C767 H787 0.930 . S
C768 N764 1.362 . S
C768 C765 1.431 . S
C768 C778 1.476 . S
H769 C763 0.929 . S
C770 O761 1.250 . S
C770 O762 1.258 . S
O771 Mn756 2.162 . S
O771 C759 1.281 . S
O772 Mn756 2.297 . S
O772 C759 1.236 . S
N773 Mn757 2.282 . S
N773 C774 1.328 . S
N773 C778 1.318 . S
C774 N773 1.328 . S
C774 C775 1.457 . S
C774 H779 0.929 1_556 S
C775 C774 1.457 . S
C775 C776 1.291 . S
C775 H788 0.931 . S
C776 C775 1.291 . S
C776 C777 1.373 . S
C776 H789 0.929 . S
C777 C776 1.373 . S
C777 C778 1.396 . S
C777 C784 1.403 . S
C778 C768 1.476 . S
C778 N773 1.318 . S
C778 C777 1.396 . S
H779 C774 0.929 1_554 S
O780 Mn756 2.385 . S
O780 C758 1.234 . S
O781 Mn756 2.209 . S
O781 Mn757 2.215 . S
O781 C758 1.283 . S
O782 Mn756 2.094 1_554 S
O782 C760 1.240 . S
O783 Mn757 2.117 1_554 S
O783 C760 1.264 . S
C784 C777 1.403 . S
C784 C785 1.399 . S
C784 H790 0.929 . S
C785 C765 1.449 . S
C785 C784 1.399 . S
C785 H791 0.930 . S
H786 C766 0.931 . S
H787 C767 0.930 . S
H788 C775 0.931 . S
H789 C776 0.929 . S
H790 C784 0.929 . S
H791 C785 0.930 . S
Mn792 O797 2.095 . S
Mn792 O807 2.162 . S
Mn792 O808 2.297 . S
Mn792 O816 2.385 . S
Mn792 O817 2.209 . S
Mn792 O818 2.094 . S
Mn793 O798 2.121 . S
Mn793 N800 2.257 1_655 S
Mn793 N809 2.282 1_655 S
Mn793 O817 2.215 . S
Mn793 O819 2.117 . S
C794 O816 1.234 . S
C794 O817 1.283 . S
C795 O807 1.281 . S
C795 O808 1.236 . S
C796 O818 1.240 . S
C796 O819 1.264 . S
O797 Mn792 2.095 . S
O797 C806 1.250 . S
O798 Mn793 2.121 . S
O798 C806 1.258 . S
C799 N800 1.326 . S
C799 C803 1.460 . S
C799 H805 0.929 1_455 S
N800 Mn793 2.257 1_455 S
N800 C799 1.326 . S
N800 C804 1.362 . S
C801 C802 1.258 . S
C801 C804 1.431 . S
C801 C821 1.449 . S
C802 C801 1.258 . S
C802 C803 1.477 . S
C802 H822 0.931 . S
C803 C799 1.460 . S
C803 C802 1.477 . S
C803 H823 0.930 . S
C804 N800 1.362 . S
C804 C801 1.431 . S
C804 C814 1.476 . S
H805 C799 0.929 1_655 S
C806 O797 1.250 . S
C806 O798 1.258 . S
O807 Mn792 2.162 . S
O807 C795 1.281 . S
O808 Mn792 2.297 . S
O808 C795 1.236 . S
N809 Mn793 2.282 1_455 S
N809 C810 1.328 . S
N809 C814 1.318 . S
C810 N809 1.328 . S
C810 C811 1.457 . S
C810 H815 0.929 1_455 S
C811 C810 1.457 . S
C811 C812 1.291 . S
C811 H824 0.931 . S
C812 C811 1.291 . S
C812 C813 1.373 . S
C812 H825 0.929 . S
C813 C812 1.373 . S
C813 C814 1.396 . S
C813 C820 1.403 . S
C814 C804 1.476 . S
C814 N809 1.318 . S
C814 C813 1.396 . S
H815 C810 0.929 1_655 S
O816 Mn792 2.385 . S
O816 C794 1.234 . S
O817 Mn792 2.209 . S
O817 Mn793 2.215 . S
O817 C794 1.283 . S
O818 Mn792 2.094 . S
O818 C796 1.240 . S
O819 Mn793 2.117 . S
O819 C796 1.264 . S
C820 C813 1.403 . S
C820 C821 1.399 . S
C820 H826 0.929 . S
C821 C801 1.449 . S
C821 C820 1.399 . S
C821 H827 0.930 . S
H822 C802 0.931 . S
H823 C803 0.930 . S
H824 C811 0.931 . S
H825 C812 0.929 . S
H826 C820 0.929 . S
H827 C821 0.930 . S
Mn828 O833 2.095 . S
Mn828 O843 2.162 . S
Mn828 O844 2.297 . S
Mn828 O852 2.385 . S
Mn828 O853 2.209 . S
Mn828 O854 2.094 . S
Mn829 O834 2.121 . S
Mn829 N836 2.257 . S
Mn829 N845 2.282 . S
Mn829 O853 2.215 . S
Mn829 O855 2.117 . S
C830 O852 1.234 . S
C830 O853 1.283 . S
C831 O843 1.281 . S
C831 O844 1.236 . S
C832 O854 1.240 . S
C832 O855 1.264 . S
O833 Mn828 2.095 . S
O833 C842 1.250 . S
O834 Mn829 2.121 . S
O834 C842 1.258 . S
C835 N836 1.326 . S
C835 C839 1.460 . S
C835 H841 0.929 . S
N836 Mn829 2.257 . S
N836 C835 1.326 . S
N836 C840 1.362 . S
C837 C838 1.258 . S
C837 C840 1.431 . S
C837 C857 1.449 . S
C838 C837 1.258 . S
C838 C839 1.477 . S
C838 H858 0.931 . S
C839 C835 1.460 . S
C839 C838 1.477 . S
C839 H859 0.930 . S
C840 N836 1.362 . S
C840 C837 1.431 . S
C840 C850 1.476 . S
H841 C835 0.929 . S
C842 O833 1.250 . S
C842 O834 1.258 . S
O843 Mn828 2.162 . S
O843 C831 1.281 . S
O844 Mn828 2.297 . S
O844 C831 1.236 . S
N845 Mn829 2.282 . S
N845 C846 1.328 . S
N845 C850 1.318 . S
C846 N845 1.328 . S
C846 C847 1.457 . S
C846 H851 0.929 . S
C847 C846 1.457 . S
C847 C848 1.291 . S
C847 H860 0.931 . S
C848 C847 1.291 . S
C848 C849 1.373 . S
C848 H861 0.929 . S
C849 C848 1.373 . S
C849 C850 1.396 . S
C849 C856 1.403 . S
C850 C840 1.476 . S
C850 N845 1.318 . S
C850 C849 1.396 . S
H851 C846 0.929 . S
O852 Mn828 2.385 . S
O852 C830 1.234 . S
O853 Mn828 2.209 . S
O853 Mn829 2.215 . S
O853 C830 1.283 . S
O854 Mn828 2.094 . S
O854 C832 1.240 . S
O855 Mn829 2.117 . S
O855 C832 1.264 . S
C856 C849 1.403 . S
C856 C857 1.399 . S
C856 H862 0.929 . S
C857 C837 1.449 . S
C857 C856 1.399 . S
C857 H863 0.930 . S
H858 C838 0.931 . S
H859 C839 0.930 . S
H860 C847 0.931 . S
H861 C848 0.929 . S
H862 C856 0.929 . S
H863 C857 0.930 . S
Mn864 O869 2.095 . S
Mn864 O879 2.162 . S
Mn864 O880 2.297 . S
Mn864 O888 2.385 . S
Mn864 O889 2.209 . S
Mn864 O890 2.094 . S
Mn865 O870 2.121 . S
Mn865 N872 2.257 . S
Mn865 N881 2.282 . S
Mn865 O889 2.215 . S
Mn865 O891 2.117 . S
C866 O888 1.234 . S
C866 O889 1.283 . S
C867 O879 1.281 . S
C867 O880 1.236 . S
C868 O890 1.240 . S
C868 O891 1.264 . S
O869 Mn864 2.095 . S
O869 C878 1.250 . S
O870 Mn865 2.121 . S
O870 C878 1.258 . S
C871 N872 1.326 . S
C871 C875 1.460 . S
C871 H877 0.929 . S
N872 Mn865 2.257 . S
N872 C871 1.326 . S
N872 C876 1.362 . S
C873 C874 1.258 . S
C873 C876 1.431 . S
C873 C893 1.449 . S
C874 C873 1.258 . S
C874 C875 1.477 . S
C874 H894 0.931 . S
C875 C871 1.460 . S
C875 C874 1.477 . S
C875 H895 0.930 . S
C876 N872 1.362 . S
C876 C873 1.431 . S
C876 C886 1.476 . S
H877 C871 0.929 . S
C878 O869 1.250 . S
C878 O870 1.258 . S
O879 Mn864 2.162 . S
O879 C867 1.281 . S
O880 Mn864 2.297 . S
O880 C867 1.236 . S
N881 Mn865 2.282 . S
N881 C882 1.328 . S
N881 C886 1.318 . S
C882 N881 1.328 . S
C882 C883 1.457 . S
C882 H887 0.929 . S
C883 C882 1.457 . S
C883 C884 1.291 . S
C883 H896 0.931 . S
C884 C883 1.291 . S
C884 C885 1.373 . S
C884 H897 0.929 . S
C885 C884 1.373 . S
C885 C886 1.396 . S
C885 C892 1.403 . S
C886 C876 1.476 . S
C886 N881 1.318 . S
C886 C885 1.396 . S
H887 C882 0.929 . S
O888 Mn864 2.385 . S
O888 C866 1.234 . S
O889 Mn864 2.209 . S
O889 Mn865 2.215 . S
O889 C866 1.283 . S
O890 Mn864 2.094 . S
O890 C868 1.240 . S
O891 Mn865 2.117 . S
O891 C868 1.264 . S
C892 C885 1.403 . S
C892 C893 1.399 . S
C892 H898 0.929 . S
C893 C873 1.449 . S
C893 C892 1.399 . S
C893 H899 0.930 . S
H894 C874 0.931 . S
H895 C875 0.930 . S
H896 C883 0.931 . S
H897 C884 0.929 . S
H898 C892 0.929 . S
H899 C893 0.930 . S
Mn900 O905 2.095 1_556 S
Mn900 O915 2.162 . S
Mn900 O916 2.297 . S
Mn900 O924 2.385 . S
Mn900 O925 2.209 . S
Mn900 O926 2.094 . S
Mn901 O906 2.121 . S
Mn901 N908 2.257 . S
Mn901 N917 2.282 1_554 S
Mn901 O925 2.215 1_554 S
Mn901 O927 2.117 1_554 S
C902 O924 1.234 . S
C902 O925 1.283 . S
C903 O915 1.281 . S
C903 O916 1.236 . S
C904 O926 1.240 . S
C904 O927 1.264 . S
O905 Mn900 2.095 1_554 S
O905 C914 1.250 . S
O906 Mn901 2.121 . S
O906 C914 1.258 . S
C907 N908 1.326 . S
C907 C911 1.460 . S
C907 H913 0.929 . S
N908 Mn901 2.257 . S
N908 C907 1.326 . S
N908 C912 1.362 . S
C909 C910 1.258 . S
C909 C912 1.431 . S
C909 C929 1.449 . S
C910 C909 1.258 . S
C910 C911 1.477 . S
C910 H930 0.931 . S
C911 C907 1.460 . S
C911 C910 1.477 . S
C911 H931 0.930 . S
C912 N908 1.362 . S
C912 C909 1.431 . S
C912 C922 1.476 1_554 S
H913 C907 0.929 . S
C914 O905 1.250 . S
C914 O906 1.258 . S
O915 Mn900 2.162 . S
O915 C903 1.281 . S
O916 Mn900 2.297 . S
O916 C903 1.236 . S
N917 Mn901 2.282 1_556 S
N917 C918 1.328 . S
N917 C922 1.318 . S
C918 N917 1.328 . S
C918 C919 1.457 . S
C918 H923 0.929 . S
C919 C918 1.457 . S
C919 C920 1.291 . S
C919 H932 0.931 . S
C920 C919 1.291 . S
C920 C921 1.373 . S
C920 H933 0.929 . S
C921 C920 1.373 . S
C921 C922 1.396 . S
C921 C928 1.403 . S
C922 C912 1.476 1_556 S
C922 N917 1.318 . S
C922 C921 1.396 . S
H923 C918 0.929 . S
O924 Mn900 2.385 . S
O924 C902 1.234 . S
O925 Mn900 2.209 . S
O925 Mn901 2.215 1_556 S
O925 C902 1.283 . S
O926 Mn900 2.094 . S
O926 C904 1.240 . S
O927 Mn901 2.117 1_556 S
O927 C904 1.264 . S
C928 C921 1.403 . S
C928 C929 1.399 1_556 S
C928 H934 0.929 . S
C929 C909 1.449 . S
C929 C928 1.399 1_554 S
C929 H935 0.930 . S
H930 C910 0.931 . S
H931 C911 0.930 . S
H932 C919 0.931 . S
H933 C920 0.929 . S
H934 C928 0.929 . S
H935 C929 0.930 . S
Mn936 O941 2.095 . S
Mn936 O951 2.162 . S
Mn936 O952 2.297 . S
Mn936 O960 2.385 . S
Mn936 O961 2.209 . S
Mn936 O962 2.094 . S
Mn937 O942 2.121 . S
Mn937 N944 2.257 1_455 S
Mn937 N953 2.282 1_455 S
Mn937 O961 2.215 . S
Mn937 O963 2.117 . S
C938 O960 1.234 . S
C938 O961 1.283 . S
C939 O951 1.281 . S
C939 O952 1.236 . S
C940 O962 1.240 . S
C940 O963 1.264 . S
O941 Mn936 2.095 . S
O941 C950 1.250 . S
O942 Mn937 2.121 . S
O942 C950 1.258 . S
C943 N944 1.326 . S
C943 C947 1.460 . S
C943 H949 0.929 . S
N944 Mn937 2.257 1_655 S
N944 C943 1.326 . S
N944 C948 1.362 . S
C945 C946 1.258 . S
C945 C948 1.431 . S
C945 C965 1.449 . S
C946 C945 1.258 . S
C946 C947 1.477 . S
C946 H966 0.931 . S
C947 C943 1.460 . S
C947 C946 1.477 . S
C947 H967 0.930 . S
C948 N944 1.362 . S
C948 C945 1.431 . S
C948 C958 1.476 . S
H949 C943 0.929 . S
C950 O941 1.250 . S
C950 O942 1.258 . S
O951 Mn936 2.162 . S
O951 C939 1.281 . S
O952 Mn936 2.297 . S
O952 C939 1.236 . S
N953 Mn937 2.282 1_655 S
N953 C954 1.328 . S
N953 C958 1.318 . S
C954 N953 1.328 . S
C954 C955 1.457 . S
C954 H959 0.929 . S
C955 C954 1.457 . S
C955 C956 1.291 . S
C955 H968 0.931 . S
C956 C955 1.291 . S
C956 C957 1.373 . S
C956 H969 0.929 . S
C957 C956 1.373 . S
C957 C958 1.396 . S
C957 C964 1.403 . S
C958 C948 1.476 . S
C958 N953 1.318 . S
C958 C957 1.396 . S
H959 C954 0.929 . S
O960 Mn936 2.385 . S
O960 C938 1.234 . S
O961 Mn936 2.209 . S
O961 Mn937 2.215 . S
O961 C938 1.283 . S
O962 Mn936 2.094 . S
O962 C940 1.240 . S
O963 Mn937 2.117 . S
O963 C940 1.264 . S
C964 C957 1.403 . S
C964 C965 1.399 . S
C964 H970 0.929 . S
C965 C945 1.449 . S
C965 C964 1.399 . S
C965 H971 0.930 . S
H966 C946 0.931 . S
H967 C947 0.930 . S
H968 C955 0.931 . S
H969 C956 0.929 . S
H970 C964 0.929 . S
H971 C965 0.930 . S
Mn972 O977 2.095 . S
Mn972 O987 2.162 . S
Mn972 O988 2.297 . S
Mn972 O996 2.385 . S
Mn972 O997 2.209 . S
Mn972 O998 2.094 . S
Mn973 O978 2.121 . S
Mn973 N980 2.257 . S
Mn973 N989 2.282 . S
Mn973 O997 2.215 . S
Mn973 O999 2.117 . S
C974 O996 1.234 . S
C974 O997 1.283 . S
C975 O987 1.281 . S
C975 O988 1.236 . S
C976 O998 1.240 . S
C976 O999 1.264 . S
O977 Mn972 2.095 . S
O977 C986 1.250 . S
O978 Mn973 2.121 . S
O978 C986 1.258 . S
C979 N980 1.326 . S
C979 C983 1.460 . S
C979 H985 0.929 . S
N980 Mn973 2.257 . S
N980 C979 1.326 . S
N980 C984 1.362 . S
C981 C982 1.258 . S
C981 C984 1.431 . S
C981 C1001 1.449 . S
C982 C981 1.258 . S
C982 C983 1.477 . S
C982 H1002 0.931 . S
C983 C979 1.460 . S
C983 C982 1.477 . S
C983 H1003 0.930 . S
C984 N980 1.362 . S
C984 C981 1.431 . S
C984 C994 1.476 . S
H985 C979 0.929 . S
C986 O977 1.250 . S
C986 O978 1.258 . S
O987 Mn972 2.162 . S
O987 C975 1.281 . S
O988 Mn972 2.297 . S
O988 C975 1.236 . S
N989 Mn973 2.282 . S
N989 C990 1.328 . S
N989 C994 1.318 . S
C990 N989 1.328 . S
C990 C991 1.457 . S
C990 H995 0.929 . S
C991 C990 1.457 . S
C991 C992 1.291 . S
C991 H1004 0.931 . S
C992 C991 1.291 . S
C992 C993 1.373 . S
C992 H1005 0.929 . S
C993 C992 1.373 . S
C993 C994 1.396 . S
C993 C1000 1.403 . S
C994 C984 1.476 . S
C994 N989 1.318 . S
C994 C993 1.396 . S
H995 C990 0.929 . S
O996 Mn972 2.385 . S
O996 C974 1.234 . S
O997 Mn972 2.209 . S
O997 Mn973 2.215 . S
O997 C974 1.283 . S
O998 Mn972 2.094 . S
O998 C976 1.240 . S
O999 Mn973 2.117 . S
O999 C976 1.264 . S
C1000 C993 1.403 . S
C1000 C1001 1.399 . S
C1000 H1006 0.929 . S
C1001 C981 1.449 . S
C1001 C1000 1.399 . S
C1001 H1007 0.930 . S
H1002 C982 0.931 . S
H1003 C983 0.930 . S
H1004 C991 0.931 . S
H1005 C992 0.929 . S
H1006 C1000 0.929 . S
H1007 C1001 0.930 . S
Mn1008 O1013 2.095 . S
Mn1008 O1023 2.162 . S
Mn1008 O1024 2.297 . S
Mn1008 O1032 2.385 . S
Mn1008 O1033 2.209 . S
Mn1008 O1034 2.094 . S
Mn1009 O1014 2.121 . S
Mn1009 N1016 2.257 . S
Mn1009 N1025 2.282 . S
Mn1009 O1033 2.215 . S
Mn1009 O1035 2.117 . S
C1010 O1032 1.234 . S
C1010 O1033 1.283 . S
C1011 O1023 1.281 . S
C1011 O1024 1.236 . S
C1012 O1034 1.240 . S
C1012 O1035 1.264 . S
O1013 Mn1008 2.095 . S
O1013 C1022 1.250 . S
O1014 Mn1009 2.121 . S
O1014 C1022 1.258 . S
C1015 N1016 1.326 . S
C1015 C1019 1.460 . S
C1015 H1021 0.929 . S
N1016 Mn1009 2.257 . S
N1016 C1015 1.326 . S
N1016 C1020 1.362 . S
C1017 C1018 1.258 . S
C1017 C1020 1.431 . S
C1017 C1037 1.449 . S
C1018 C1017 1.258 . S
C1018 C1019 1.477 . S
C1018 H1038 0.931 . S
C1019 C1015 1.460 . S
C1019 C1018 1.477 . S
C1019 H1039 0.930 . S
C1020 N1016 1.362 . S
C1020 C1017 1.431 . S
C1020 C1030 1.476 . S
H1021 C1015 0.929 . S
C1022 O1013 1.250 . S
C1022 O1014 1.258 . S
O1023 Mn1008 2.162 . S
O1023 C1011 1.281 . S
O1024 Mn1008 2.297 . S
O1024 C1011 1.236 . S
N1025 Mn1009 2.282 . S
N1025 C1026 1.328 . S
N1025 C1030 1.318 . S
C1026 N1025 1.328 . S
C1026 C1027 1.457 . S
C1026 H1031 0.929 . S
C1027 C1026 1.457 . S
C1027 C1028 1.291 . S
C1027 H1040 0.931 . S
C1028 C1027 1.291 . S
C1028 C1029 1.373 . S
C1028 H1041 0.929 . S
C1029 C1028 1.373 . S
C1029 C1030 1.396 . S
C1029 C1036 1.403 . S
C1030 C1020 1.476 . S
C1030 N1025 1.318 . S
C1030 C1029 1.396 . S
H1031 C1026 0.929 . S
O1032 Mn1008 2.385 . S
O1032 C1010 1.234 . S
O1033 Mn1008 2.209 . S
O1033 Mn1009 2.215 . S
O1033 C1010 1.283 . S
O1034 Mn1008 2.094 . S
O1034 C1012 1.240 . S
O1035 Mn1009 2.117 . S
O1035 C1012 1.264 . S
C1036 C1029 1.403 . S
C1036 C1037 1.399 . S
C1036 H1042 0.929 . S
C1037 C1017 1.449 . S
C1037 C1036 1.399 . S
C1037 H1043 0.930 . S
H1038 C1018 0.931 . S
H1039 C1019 0.930 . S
H1040 C1027 0.931 . S
H1041 C1028 0.929 . S
H1042 C1036 0.929 . S
H1043 C1037 0.930 . S
Mn1044 O1049 2.095 1_554 S
Mn1044 O1059 2.162 . S
Mn1044 O1060 2.297 . S
Mn1044 O1068 2.385 . S
Mn1044 O1069 2.209 . S
Mn1044 O1070 2.094 . S
Mn1045 O1050 2.121 . S
Mn1045 N1052 2.257 . S
Mn1045 N1061 2.282 1_556 S
Mn1045 O1069 2.215 1_556 S
Mn1045 O1071 2.117 1_556 S
C1046 O1068 1.234 . S
C1046 O1069 1.283 . S
C1047 O1059 1.281 . S
C1047 O1060 1.236 . S
C1048 O1070 1.240 . S
C1048 O1071 1.264 . S
O1049 Mn1044 2.095 1_556 S
O1049 C1058 1.250 . S
O1050 Mn1045 2.121 . S
O1050 C1058 1.258 . S
C1051 N1052 1.326 . S
C1051 C1055 1.460 . S
C1051 H1057 0.929 . S
N1052 Mn1045 2.257 . S
N1052 C1051 1.326 . S
N1052 C1056 1.362 . S
C1053 C1054 1.258 . S
C1053 C1056 1.431 . S
C1053 C1073 1.449 . S
C1054 C1053 1.258 . S
C1054 C1055 1.477 . S
C1054 H1074 0.931 . S
C1055 C1051 1.460 . S
C1055 C1054 1.477 . S
C1055 H1075 0.930 . S
C1056 N1052 1.362 . S
C1056 C1053 1.431 . S
C1056 C1066 1.476 1_556 S
H1057 C1051 0.929 . S
C1058 O1049 1.250 . S
C1058 O1050 1.258 . S
O1059 Mn1044 2.162 . S
O1059 C1047 1.281 . S
O1060 Mn1044 2.297 . S
O1060 C1047 1.236 . S
N1061 Mn1045 2.282 1_554 S
N1061 C1062 1.328 . S
N1061 C1066 1.318 . S
C1062 N1061 1.328 . S
C1062 C1063 1.457 . S
C1062 H1067 0.929 . S
C1063 C1062 1.457 . S
C1063 C1064 1.291 . S
C1063 H1076 0.931 . S
C1064 C1063 1.291 . S
C1064 C1065 1.373 . S
C1064 H1077 0.929 . S
C1065 C1064 1.373 . S
C1065 C1066 1.396 . S
C1065 C1072 1.403 . S
C1066 C1056 1.476 1_554 S
C1066 N1061 1.318 . S
C1066 C1065 1.396 . S
H1067 C1062 0.929 . S
O1068 Mn1044 2.385 . S
O1068 C1046 1.234 . S
O1069 Mn1044 2.209 . S
O1069 Mn1045 2.215 1_554 S
O1069 C1046 1.283 . S
O1070 Mn1044 2.094 . S
O1070 C1048 1.240 . S
O1071 Mn1045 2.117 1_554 S
O1071 C1048 1.264 . S
C1072 C1065 1.403 . S
C1072 C1073 1.399 1_554 S
C1072 H1078 0.929 . S
C1073 C1053 1.449 . S
C1073 C1072 1.399 1_556 S
C1073 H1079 0.930 . S
H1074 C1054 0.931 . S
H1075 C1055 0.930 . S
H1076 C1063 0.931 . S
H1077 C1064 0.929 . S
H1078 C1072 0.929 . S
H1079 C1073 0.930 . S
Mn1080 O1085 2.095 . S
Mn1080 O1095 2.162 . S
Mn1080 O1096 2.297 . S
Mn1080 O1104 2.385 . S
Mn1080 O1105 2.209 . S
Mn1080 O1106 2.094 . S
Mn1081 O1086 2.121 . S
Mn1081 N1088 2.257 1_455 S
Mn1081 N1097 2.282 1_455 S
Mn1081 O1105 2.215 . S
Mn1081 O1107 2.117 . S
C1082 O1104 1.234 . S
C1082 O1105 1.283 . S
C1083 O1095 1.281 . S
C1083 O1096 1.236 . S
C1084 O1106 1.240 . S
C1084 O1107 1.264 . S
O1085 Mn1080 2.095 . S
O1085 C1094 1.250 . S
O1086 Mn1081 2.121 . S
O1086 C1094 1.258 . S
C1087 N1088 1.326 . S
C1087 C1091 1.460 . S
C1087 H1093 0.929 . S
N1088 Mn1081 2.257 1_655 S
N1088 C1087 1.326 . S
N1088 C1092 1.362 . S
C1089 C1090 1.258 . S
C1089 C1092 1.431 . S
C1089 C1109 1.449 . S
C1090 C1089 1.258 . S
C1090 C1091 1.477 . S
C1090 H1110 0.931 . S
C1091 C1087 1.460 . S
C1091 C1090 1.477 . S
C1091 H1111 0.930 . S
C1092 N1088 1.362 . S
C1092 C1089 1.431 . S
C1092 C1102 1.476 . S
H1093 C1087 0.929 . S
C1094 O1085 1.250 . S
C1094 O1086 1.258 . S
O1095 Mn1080 2.162 . S
O1095 C1083 1.281 . S
O1096 Mn1080 2.297 . S
O1096 C1083 1.236 . S
N1097 Mn1081 2.282 1_655 S
N1097 C1098 1.328 . S
N1097 C1102 1.318 . S
C1098 N1097 1.328 . S
C1098 C1099 1.457 . S
C1098 H1103 0.929 . S
C1099 C1098 1.457 . S
C1099 C1100 1.291 . S
C1099 H1112 0.931 . S
C1100 C1099 1.291 . S
C1100 C1101 1.373 . S
C1100 H1113 0.929 . S
C1101 C1100 1.373 . S
C1101 C1102 1.396 . S
C1101 C1108 1.403 . S
C1102 C1092 1.476 . S
C1102 N1097 1.318 . S
C1102 C1101 1.396 . S
H1103 C1098 0.929 . S
O1104 Mn1080 2.385 . S
O1104 C1082 1.234 . S
O1105 Mn1080 2.209 . S
O1105 Mn1081 2.215 . S
O1105 C1082 1.283 . S
O1106 Mn1080 2.094 . S
O1106 C1084 1.240 . S
O1107 Mn1081 2.117 . S
O1107 C1084 1.264 . S
C1108 C1101 1.403 . S
C1108 C1109 1.399 . S
C1108 H1114 0.929 . S
C1109 C1089 1.449 . S
C1109 C1108 1.399 . S
C1109 H1115 0.930 . S
H1110 C1090 0.931 . S
H1111 C1091 0.930 . S
H1112 C1099 0.931 . S
H1113 C1100 0.929 . S
H1114 C1108 0.929 . S
H1115 C1109 0.930 . S
Mn1116 O1121 2.095 . S
Mn1116 O1131 2.162 . S
Mn1116 O1132 2.297 . S
Mn1116 O1140 2.385 . S
Mn1116 O1141 2.209 . S
Mn1116 O1142 2.094 . S
Mn1117 O1122 2.121 . S
Mn1117 N1124 2.257 . S
Mn1117 N1133 2.282 . S
Mn1117 O1141 2.215 . S
Mn1117 O1143 2.117 . S
C1118 O1140 1.234 . S
C1118 O1141 1.283 . S
C1119 O1131 1.281 . S
C1119 O1132 1.236 . S
C1120 O1142 1.240 . S
C1120 O1143 1.264 . S
O1121 Mn1116 2.095 . S
O1121 C1130 1.250 . S
O1122 Mn1117 2.121 . S
O1122 C1130 1.258 . S
C1123 N1124 1.326 . S
C1123 C1127 1.460 . S
C1123 H1129 0.929 . S
N1124 Mn1117 2.257 . S
N1124 C1123 1.326 . S
N1124 C1128 1.362 . S
C1125 C1126 1.258 . S
C1125 C1128 1.431 . S
C1125 C1145 1.449 . S
C1126 C1125 1.258 . S
C1126 C1127 1.477 . S
C1126 H1146 0.931 . S
C1127 C1123 1.460 . S
C1127 C1126 1.477 . S
C1127 H1147 0.930 . S
C1128 N1124 1.362 . S
C1128 C1125 1.431 . S
C1128 C1138 1.476 . S
H1129 C1123 0.929 . S
C1130 O1121 1.250 . S
C1130 O1122 1.258 . S
O1131 Mn1116 2.162 . S
O1131 C1119 1.281 . S
O1132 Mn1116 2.297 . S
O1132 C1119 1.236 . S
N1133 Mn1117 2.282 . S
N1133 C1134 1.328 . S
N1133 C1138 1.318 . S
C1134 N1133 1.328 . S
C1134 C1135 1.457 . S
C1134 H1139 0.929 . S
C1135 C1134 1.457 . S
C1135 C1136 1.291 . S
C1135 H1148 0.931 . S
C1136 C1135 1.291 . S
C1136 C1137 1.373 . S
C1136 H1149 0.929 . S
C1137 C1136 1.373 . S
C1137 C1138 1.396 . S
C1137 C1144 1.403 . S
C1138 C1128 1.476 . S
C1138 N1133 1.318 . S
C1138 C1137 1.396 . S
H1139 C1134 0.929 . S
O1140 Mn1116 2.385 . S
O1140 C1118 1.234 . S
O1141 Mn1116 2.209 . S
O1141 Mn1117 2.215 . S
O1141 C1118 1.283 . S
O1142 Mn1116 2.094 . S
O1142 C1120 1.240 . S
O1143 Mn1117 2.117 . S
O1143 C1120 1.264 . S
C1144 C1137 1.403 . S
C1144 C1145 1.399 . S
C1144 H1150 0.929 . S
C1145 C1125 1.449 . S
C1145 C1144 1.399 . S
C1145 H1151 0.930 . S
H1146 C1126 0.931 . S
H1147 C1127 0.930 . S
H1148 C1135 0.931 . S
H1149 C1136 0.929 . S
H1150 C1144 0.929 . S
H1151 C1145 0.930 . S
C1152 C1153 1.369 . S
C1152 C1154 1.419 . S
C1152 H1156 0.930 . S
C1153 C1152 1.369 . S
C1153 C1162 1.429 . S
C1154 C1152 1.419 . S
C1154 C1155 1.363 . S
C1154 H1157 0.929 . S
C1155 C1154 1.363 . S
C1155 C1161 1.428 . S
H1156 C1152 0.930 . S
H1157 C1154 0.929 . S
S1158 N1159 1.613 . S
S1158 N1160 1.610 . S
N1159 S1158 1.613 . S
N1159 C1162 1.350 . S
N1160 S1158 1.610 . S
N1160 C1161 1.351 . S
C1161 C1155 1.428 . S
C1161 N1160 1.351 . S
C1161 C1162 1.434 . S
C1162 C1153 1.429 . S
C1162 N1159 1.350 . S
C1162 C1161 1.434 . S
C1163 C1164 1.369 . S
C1163 C1165 1.419 . S
C1163 H1167 0.930 . S
C1164 C1163 1.369 . S
C1164 C1173 1.429 . S
C1165 C1163 1.419 . S
C1165 C1166 1.363 . S
C1165 H1168 0.929 . S
C1166 C1165 1.363 . S
C1166 C1172 1.428 . S
H1167 C1163 0.930 . S
H1168 C1165 0.929 . S
S1169 N1170 1.613 . S
S1169 N1171 1.610 . S
N1170 S1169 1.613 . S
N1170 C1173 1.350 . S
N1171 S1169 1.610 . S
N1171 C1172 1.351 . S
C1172 C1166 1.428 . S
C1172 N1171 1.351 . S
C1172 C1173 1.434 . S
C1173 C1164 1.429 . S
C1173 N1170 1.350 . S
C1173 C1172 1.434 . S
C1174 C1175 1.369 . S
C1174 C1176 1.419 . S
C1174 H1178 0.930 . S
C1175 C1174 1.369 . S
C1175 C1184 1.429 . S
C1176 C1174 1.419 . S
C1176 C1177 1.363 . S
C1176 H1179 0.929 . S
C1177 C1176 1.363 . S
C1177 C1183 1.428 . S
H1178 C1174 0.930 . S
H1179 C1176 0.929 . S
S1180 N1181 1.613 . S
S1180 N1182 1.610 . S
N1181 S1180 1.613 . S
N1181 C1184 1.350 . S
N1182 S1180 1.610 . S
N1182 C1183 1.351 . S
C1183 C1177 1.428 . S
C1183 N1182 1.351 . S
C1183 C1184 1.434 . S
C1184 C1175 1.429 . S
C1184 N1181 1.350 . S
C1184 C1183 1.434 . S
C1185 C1186 1.369 . S
C1185 C1187 1.419 . S
C1185 H1189 0.930 . S
C1186 C1185 1.369 . S
C1186 C1195 1.429 . S
C1187 C1185 1.419 . S
C1187 C1188 1.363 . S
C1187 H1190 0.929 . S
C1188 C1187 1.363 . S
C1188 C1194 1.428 . S
H1189 C1185 0.930 . S
H1190 C1187 0.929 . S
S1191 N1192 1.613 . S
S1191 N1193 1.610 . S
N1192 S1191 1.613 . S
N1192 C1195 1.350 . S
N1193 S1191 1.610 . S
N1193 C1194 1.351 . S
C1194 C1188 1.428 . S
C1194 N1193 1.351 . S
C1194 C1195 1.434 . S
C1195 C1186 1.429 . S
C1195 N1192 1.350 . S
C1195 C1194 1.434 . S
C1196 C1197 1.369 . S
C1196 C1198 1.419 . S
C1196 H1200 0.930 . S
C1197 C1196 1.369 . S
C1197 C1206 1.429 . S
C1198 C1196 1.419 . S
C1198 C1199 1.363 . S
C1198 H1201 0.929 . S
C1199 C1198 1.363 . S
C1199 C1205 1.428 . S
H1200 C1196 0.930 . S
H1201 C1198 0.929 . S
S1202 N1203 1.613 . S
S1202 N1204 1.610 . S
N1203 S1202 1.613 . S
N1203 C1206 1.350 . S
N1204 S1202 1.610 . S
N1204 C1205 1.351 . S
C1205 C1199 1.428 . S
C1205 N1204 1.351 . S
C1205 C1206 1.434 . S
C1206 C1197 1.429 . S
C1206 N1203 1.350 . S
C1206 C1205 1.434 . S
C1207 C1208 1.369 . S
C1207 C1209 1.419 . S
C1207 H1211 0.930 . S
C1208 C1207 1.369 . S
C1208 C1217 1.429 . S
C1209 C1207 1.419 . S
C1209 C1210 1.363 . S
C1209 H1212 0.929 . S
C1210 C1209 1.363 . S
C1210 C1216 1.428 . S
H1211 C1207 0.930 . S
H1212 C1209 0.929 . S
S1213 N1214 1.613 . S
S1213 N1215 1.610 . S
N1214 S1213 1.613 . S
N1214 C1217 1.350 . S
N1215 S1213 1.610 . S
N1215 C1216 1.351 . S
C1216 C1210 1.428 . S
C1216 N1215 1.351 . S
C1216 C1217 1.434 . S
C1217 C1208 1.429 . S
C1217 N1214 1.350 . S
C1217 C1216 1.434 . S
C1218 C1219 1.369 . S
C1218 C1220 1.419 . S
C1218 H1222 0.930 . S
C1219 C1218 1.369 . S
C1219 C1228 1.429 . S
C1220 C1218 1.419 . S
C1220 C1221 1.363 . S
C1220 H1223 0.929 . S
C1221 C1220 1.363 . S
C1221 C1227 1.428 . S
H1222 C1218 0.930 . S
H1223 C1220 0.929 . S
S1224 N1225 1.613 . S
S1224 N1226 1.610 . S
N1225 S1224 1.613 . S
N1225 C1228 1.350 . S
N1226 S1224 1.610 . S
N1226 C1227 1.351 . S
C1227 C1221 1.428 . S
C1227 N1226 1.351 . S
C1227 C1228 1.434 . S
C1228 C1219 1.429 . S
C1228 N1225 1.350 . S
C1228 C1227 1.434 . S
C1229 C1230 1.369 . S
C1229 C1231 1.419 . S
C1229 H1233 0.930 . S
C1230 C1229 1.369 . S
C1230 C1239 1.429 . S
C1231 C1229 1.419 . S
C1231 C1232 1.363 . S
C1231 H1234 0.929 . S
C1232 C1231 1.363 . S
C1232 C1238 1.428 . S
H1233 C1229 0.930 . S
H1234 C1231 0.929 . S
S1235 N1236 1.613 . S
S1235 N1237 1.610 . S
N1236 S1235 1.613 . S
N1236 C1239 1.350 . S
N1237 S1235 1.610 . S
N1237 C1238 1.351 . S
C1238 C1232 1.428 . S
C1238 N1237 1.351 . S
C1238 C1239 1.434 . S
C1239 C1230 1.429 . S
C1239 N1236 1.350 . S
C1239 C1238 1.434 . S
C1240 C1241 1.369 . S
C1240 C1242 1.419 . S
C1240 H1244 0.930 . S
C1241 C1240 1.369 . S
C1241 C1250 1.429 . S
C1242 C1240 1.419 . S
C1242 C1243 1.363 . S
C1242 H1245 0.929 . S
C1243 C1242 1.363 . S
C1243 C1249 1.428 . S
H1244 C1240 0.930 . S
H1245 C1242 0.929 . S
S1246 N1247 1.613 . S
S1246 N1248 1.610 . S
N1247 S1246 1.613 . S
N1247 C1250 1.350 . S
N1248 S1246 1.610 . S
N1248 C1249 1.351 . S
C1249 C1243 1.428 . S
C1249 N1248 1.351 . S
C1249 C1250 1.434 . S
C1250 C1241 1.429 . S
C1250 N1247 1.350 . S
C1250 C1249 1.434 . S
C1251 C1252 1.369 . S
C1251 C1253 1.419 . S
C1251 H1255 0.930 . S
C1252 C1251 1.369 . S
C1252 C1261 1.429 . S
C1253 C1251 1.419 . S
C1253 C1254 1.363 . S
C1253 H1256 0.929 . S
C1254 C1253 1.363 . S
C1254 C1260 1.428 . S
H1255 C1251 0.930 . S
H1256 C1253 0.929 . S
S1257 N1258 1.613 . S
S1257 N1259 1.610 . S
N1258 S1257 1.613 . S
N1258 C1261 1.350 . S
N1259 S1257 1.610 . S
N1259 C1260 1.351 . S
C1260 C1254 1.428 . S
C1260 N1259 1.351 . S
C1260 C1261 1.434 . S
C1261 C1252 1.429 . S
C1261 N1258 1.350 . S
C1261 C1260 1.434 . S
C1262 C1263 1.369 . S
C1262 C1264 1.419 . S
C1262 H1266 0.930 . S
C1263 C1262 1.369 . S
C1263 C1272 1.429 . S
C1264 C1262 1.419 . S
C1264 C1265 1.363 . S
C1264 H1267 0.929 . S
C1265 C1264 1.363 . S
C1265 C1271 1.428 . S
H1266 C1262 0.930 . S
H1267 C1264 0.929 . S
S1268 N1269 1.613 . S
S1268 N1270 1.610 . S
N1269 S1268 1.613 . S
N1269 C1272 1.350 . S
N1270 S1268 1.610 . S
N1270 C1271 1.351 . S
C1271 C1265 1.428 . S
C1271 N1270 1.351 . S
C1271 C1272 1.434 . S
C1272 C1263 1.429 . S
C1272 N1269 1.350 . S
C1272 C1271 1.434 . S
C1273 C1274 1.369 . S
C1273 C1275 1.419 . S
C1273 H1277 0.930 . S
C1274 C1273 1.369 . S
C1274 C1283 1.429 . S
C1275 C1273 1.419 . S
C1275 C1276 1.363 . S
C1275 H1278 0.929 . S
C1276 C1275 1.363 . S
C1276 C1282 1.428 . S
H1277 C1273 0.930 . S
H1278 C1275 0.929 . S
S1279 N1280 1.613 . S
S1279 N1281 1.610 . S
N1280 S1279 1.613 . S
N1280 C1283 1.350 . S
N1281 S1279 1.610 . S
N1281 C1282 1.351 . S
C1282 C1276 1.428 . S
C1282 N1281 1.351 . S
C1282 C1283 1.434 . S
C1283 C1274 1.429 . S
C1283 N1280 1.350 . S
C1283 C1282 1.434 . S
C1284 C1285 1.369 . S
C1284 C1286 1.419 . S
C1284 H1288 0.930 . S
C1285 C1284 1.369 . S
C1285 C1294 1.429 . S
C1286 C1284 1.419 . S
C1286 C1287 1.363 . S
C1286 H1289 0.929 . S
C1287 C1286 1.363 . S
C1287 C1293 1.428 . S
H1288 C1284 0.930 . S
H1289 C1286 0.929 . S
S1290 N1291 1.613 . S
S1290 N1292 1.610 . S
N1291 S1290 1.613 . S
N1291 C1294 1.350 . S
N1292 S1290 1.610 . S
N1292 C1293 1.351 . S
C1293 C1287 1.428 . S
C1293 N1292 1.351 . S
C1293 C1294 1.434 . S
C1294 C1285 1.429 . S
C1294 N1291 1.350 . S
C1294 C1293 1.434 . S
C1295 C1296 1.369 . S
C1295 C1297 1.419 . S
C1295 H1299 0.930 . S
C1296 C1295 1.369 . S
C1296 C1305 1.429 . S
C1297 C1295 1.419 . S
C1297 C1298 1.363 . S
C1297 H1300 0.929 . S
C1298 C1297 1.363 . S
C1298 C1304 1.428 . S
H1299 C1295 0.930 . S
H1300 C1297 0.929 . S
S1301 N1302 1.613 . S
S1301 N1303 1.610 . S
N1302 S1301 1.613 . S
N1302 C1305 1.350 . S
N1303 S1301 1.610 . S
N1303 C1304 1.351 . S
C1304 C1298 1.428 . S
C1304 N1303 1.351 . S
C1304 C1305 1.434 . S
C1305 C1296 1.429 . S
C1305 N1302 1.350 . S
C1305 C1304 1.434 . S
C1306 C1307 1.369 . S
C1306 C1308 1.419 . S
C1306 H1310 0.930 . S
C1307 C1306 1.369 . S
C1307 C1316 1.429 . S
C1308 C1306 1.419 . S
C1308 C1309 1.363 . S
C1308 H1311 0.929 . S
C1309 C1308 1.363 . S
C1309 C1315 1.428 . S
H1310 C1306 0.930 . S
H1311 C1308 0.929 . S
S1312 N1313 1.613 . S
S1312 N1314 1.610 . S
N1313 S1312 1.613 . S
N1313 C1316 1.350 . S
N1314 S1312 1.610 . S
N1314 C1315 1.351 . S
C1315 C1309 1.428 . S
C1315 N1314 1.351 . S
C1315 C1316 1.434 . S
C1316 C1307 1.429 . S
C1316 N1313 1.350 . S
C1316 C1315 1.434 . S
C1317 C1318 1.369 . S
C1317 C1319 1.419 . S
C1317 H1321 0.930 . S
C1318 C1317 1.369 . S
C1318 C1327 1.429 . S
C1319 C1317 1.419 . S
C1319 C1320 1.363 . S
C1319 H1322 0.929 . S
C1320 C1319 1.363 . S
C1320 C1326 1.428 . S
H1321 C1317 0.930 . S
H1322 C1319 0.929 . S
S1323 N1324 1.613 . S
S1323 N1325 1.610 . S
N1324 S1323 1.613 . S
N1324 C1327 1.350 . S
N1325 S1323 1.610 . S
N1325 C1326 1.351 . S
C1326 C1320 1.428 . S
C1326 N1325 1.351 . S
C1326 C1327 1.434 . S
C1327 C1318 1.429 . S
C1327 N1324 1.350 . S
C1327 C1326 1.434 . S
C1328 C1329 1.369 . S
C1328 C1330 1.419 . S
C1328 H1332 0.930 . S
C1329 C1328 1.369 . S
C1329 C1338 1.429 . S
C1330 C1328 1.419 . S
C1330 C1331 1.363 . S
C1330 H1333 0.929 . S
C1331 C1330 1.363 . S
C1331 C1337 1.428 . S
H1332 C1328 0.930 . S
H1333 C1330 0.929 . S
S1334 N1335 1.613 . S
S1334 N1336 1.610 . S
N1335 S1334 1.613 . S
N1335 C1338 1.350 . S
N1336 S1334 1.610 . S
N1336 C1337 1.351 . S
C1337 C1331 1.428 . S
C1337 N1336 1.351 . S
C1337 C1338 1.434 . S
C1338 C1329 1.429 . S
C1338 N1335 1.350 . S
C1338 C1337 1.434 . S
C1339 C1340 1.369 . S
C1339 C1341 1.419 . S
C1339 H1343 0.930 . S
C1340 C1339 1.369 . S
C1340 C1349 1.429 . S
C1341 C1339 1.419 . S
C1341 C1342 1.363 . S
C1341 H1344 0.929 . S
C1342 C1341 1.363 . S
C1342 C1348 1.428 . S
H1343 C1339 0.930 . S
H1344 C1341 0.929 . S
S1345 N1346 1.613 . S
S1345 N1347 1.610 . S
N1346 S1345 1.613 . S
N1346 C1349 1.350 . S
N1347 S1345 1.610 . S
N1347 C1348 1.351 . S
C1348 C1342 1.428 . S
C1348 N1347 1.351 . S
C1348 C1349 1.434 . S
C1349 C1340 1.429 . S
C1349 N1346 1.350 . S
C1349 C1348 1.434 . S
C1350 C1351 1.369 . S
C1350 C1352 1.419 . S
C1350 H1354 0.930 . S
C1351 C1350 1.369 . S
C1351 C1360 1.429 . S
C1352 C1350 1.419 . S
C1352 C1353 1.363 . S
C1352 H1355 0.929 . S
C1353 C1352 1.363 . S
C1353 C1359 1.428 . S
H1354 C1350 0.930 . S
H1355 C1352 0.929 . S
S1356 N1357 1.613 . S
S1356 N1358 1.610 . S
N1357 S1356 1.613 . S
N1357 C1360 1.350 . S
N1358 S1356 1.610 . S
N1358 C1359 1.351 . S
C1359 C1353 1.428 . S
C1359 N1358 1.351 . S
C1359 C1360 1.434 . S
C1360 C1351 1.429 . S
C1360 N1357 1.350 . S
C1360 C1359 1.434 . S
C1361 C1362 1.369 . S
C1361 C1363 1.419 . S
C1361 H1365 0.930 . S
C1362 C1361 1.369 . S
C1362 C1371 1.429 . S
C1363 C1361 1.419 . S
C1363 C1364 1.363 . S
C1363 H1366 0.929 . S
C1364 C1363 1.363 . S
C1364 C1370 1.428 . S
H1365 C1361 0.930 . S
H1366 C1363 0.929 . S
S1367 N1368 1.613 . S
S1367 N1369 1.610 . S
N1368 S1367 1.613 . S
N1368 C1371 1.350 . S
N1369 S1367 1.610 . S
N1369 C1370 1.351 . S
C1370 C1364 1.428 . S
C1370 N1369 1.351 . S
C1370 C1371 1.434 . S
C1371 C1362 1.429 . S
C1371 N1368 1.350 . S
C1371 C1370 1.434 . S
C1372 C1373 1.369 . S
C1372 C1374 1.419 . S
C1372 H1376 0.930 . S
C1373 C1372 1.369 . S
C1373 C1382 1.429 . S
C1374 C1372 1.419 . S
C1374 C1375 1.363 . S
C1374 H1377 0.929 . S
C1375 C1374 1.363 . S
C1375 C1381 1.428 . S
H1376 C1372 0.930 . S
H1377 C1374 0.929 . S
S1378 N1379 1.613 . S
S1378 N1380 1.610 . S
N1379 S1378 1.613 . S
N1379 C1382 1.350 . S
N1380 S1378 1.610 . S
N1380 C1381 1.351 . S
C1381 C1375 1.428 . S
C1381 N1380 1.351 . S
C1381 C1382 1.434 . S
C1382 C1373 1.429 . S
C1382 N1379 1.350 . S
C1382 C1381 1.434 . S
C1383 C1384 1.369 . S
C1383 C1385 1.419 . S
C1383 H1387 0.930 . S
C1384 C1383 1.369 . S
C1384 C1393 1.429 . S
C1385 C1383 1.419 . S
C1385 C1386 1.363 . S
C1385 H1388 0.929 . S
C1386 C1385 1.363 . S
C1386 C1392 1.428 . S
H1387 C1383 0.930 . S
H1388 C1385 0.929 . S
S1389 N1390 1.613 . S
S1389 N1391 1.610 . S
N1390 S1389 1.613 . S
N1390 C1393 1.350 . S
N1391 S1389 1.610 . S
N1391 C1392 1.351 . S
C1392 C1386 1.428 . S
C1392 N1391 1.351 . S
C1392 C1393 1.434 . S
C1393 C1384 1.429 . S
C1393 N1390 1.350 . S
C1393 C1392 1.434 . S
C1394 C1395 1.369 . S
C1394 C1396 1.419 . S
C1394 H1398 0.930 . S
C1395 C1394 1.369 . S
C1395 C1404 1.429 . S
C1396 C1394 1.419 . S
C1396 C1397 1.363 . S
C1396 H1399 0.929 . S
C1397 C1396 1.363 . S
C1397 C1403 1.428 . S
H1398 C1394 0.930 . S
H1399 C1396 0.929 . S
S1400 N1401 1.613 . S
S1400 N1402 1.610 . S
N1401 S1400 1.613 . S
N1401 C1404 1.350 . S
N1402 S1400 1.610 . S
N1402 C1403 1.351 . S
C1403 C1397 1.428 . S
C1403 N1402 1.351 . S
C1403 C1404 1.434 . S
C1404 C1395 1.429 . S
C1404 N1401 1.350 . S
C1404 C1403 1.434 . S
C1405 C1406 1.369 . S
C1405 C1407 1.419 . S
C1405 H1409 0.930 . S
C1406 C1405 1.369 . S
C1406 C1415 1.429 . S
C1407 C1405 1.419 . S
C1407 C1408 1.363 . S
C1407 H1410 0.929 . S
C1408 C1407 1.363 . S
C1408 C1414 1.428 . S
H1409 C1405 0.930 . S
H1410 C1407 0.929 . S
S1411 N1412 1.613 1_655 S
S1411 N1413 1.610 . S
N1412 S1411 1.613 1_455 S
N1412 C1415 1.350 1_455 S
N1413 S1411 1.610 . S
N1413 C1414 1.351 . S
C1414 C1408 1.428 . S
C1414 N1413 1.351 . S
C1414 C1415 1.434 . S
C1415 C1406 1.429 . S
C1415 N1412 1.350 1_655 S
C1415 C1414 1.434 . S
C1416 C1417 1.369 . S
C1416 C1418 1.419 . S
C1416 H1420 0.930 . S
C1417 C1416 1.369 . S
C1417 C1426 1.429 . S
C1418 C1416 1.419 . S
C1418 C1419 1.363 . S
C1418 H1421 0.929 . S
C1419 C1418 1.363 . S
C1419 C1425 1.428 . S
H1420 C1416 0.930 . S
H1421 C1418 0.929 . S
S1422 N1423 1.613 . S
S1422 N1424 1.610 . S
N1423 S1422 1.613 . S
N1423 C1426 1.350 . S
N1424 S1422 1.610 . S
N1424 C1425 1.351 . S
C1425 C1419 1.428 . S
C1425 N1424 1.351 . S
C1425 C1426 1.434 . S
C1426 C1417 1.429 . S
C1426 N1423 1.350 . S
C1426 C1425 1.434 . S
C1427 C1428 1.369 . S
C1427 C1429 1.419 . S
C1427 H1431 0.930 . S
C1428 C1427 1.369 . S
C1428 C1437 1.429 . S
C1429 C1427 1.419 . S
C1429 C1430 1.363 . S
C1429 H1432 0.929 . S
C1430 C1429 1.363 . S
C1430 C1436 1.428 . S
H1431 C1427 0.930 . S
H1432 C1429 0.929 . S
S1433 N1434 1.613 . S
S1433 N1435 1.610 . S
N1434 S1433 1.613 . S
N1434 C1437 1.350 . S
N1435 S1433 1.610 . S
N1435 C1436 1.351 . S
C1436 C1430 1.428 . S
C1436 N1435 1.351 . S
C1436 C1437 1.434 . S
C1437 C1428 1.429 . S
C1437 N1434 1.350 . S
C1437 C1436 1.434 . S
C1438 C1439 1.369 . S
C1438 C1440 1.419 . S
C1438 H1442 0.930 . S
C1439 C1438 1.369 . S
C1439 C1448 1.429 . S
C1440 C1438 1.419 . S
C1440 C1441 1.363 . S
C1440 H1443 0.929 . S
C1441 C1440 1.363 . S
C1441 C1447 1.428 . S
H1442 C1438 0.930 . S
H1443 C1440 0.929 . S
S1444 N1445 1.613 . S
S1444 N1446 1.610 . S
N1445 S1444 1.613 . S
N1445 C1448 1.350 . S
N1446 S1444 1.610 . S
N1446 C1447 1.351 . S
C1447 C1441 1.428 . S
C1447 N1446 1.351 . S
C1447 C1448 1.434 . S
C1448 C1439 1.429 . S
C1448 N1445 1.350 . S
C1448 C1447 1.434 . S
C1449 C1450 1.369 . S
C1449 C1451 1.419 . S
C1449 H1453 0.930 . S
C1450 C1449 1.369 . S
C1450 C1459 1.429 . S
C1451 C1449 1.419 . S
C1451 C1452 1.363 . S
C1451 H1454 0.929 . S
C1452 C1451 1.363 . S
C1452 C1458 1.428 . S
H1453 C1449 0.930 . S
H1454 C1451 0.929 . S
S1455 N1456 1.613 . S
S1455 N1457 1.610 . S
N1456 S1455 1.613 . S
N1456 C1459 1.350 . S
N1457 S1455 1.610 . S
N1457 C1458 1.351 . S
C1458 C1452 1.428 . S
C1458 N1457 1.351 . S
C1458 C1459 1.434 . S
C1459 C1450 1.429 . S
C1459 N1456 1.350 . S
C1459 C1458 1.434 . S
C1460 C1461 1.369 . S
C1460 C1462 1.419 . S
C1460 H1464 0.930 . S
C1461 C1460 1.369 . S
C1461 C1470 1.429 . S
C1462 C1460 1.419 . S
C1462 C1463 1.363 . S
C1462 H1465 0.929 . S
C1463 C1462 1.363 . S
C1463 C1469 1.428 . S
H1464 C1460 0.930 . S
H1465 C1462 0.929 . S
S1466 N1467 1.613 . S
S1466 N1468 1.610 . S
N1467 S1466 1.613 . S
N1467 C1470 1.350 . S
N1468 S1466 1.610 . S
N1468 C1469 1.351 . S
C1469 C1463 1.428 . S
C1469 N1468 1.351 . S
C1469 C1470 1.434 . S
C1470 C1461 1.429 . S
C1470 N1467 1.350 . S
C1470 C1469 1.434 . S
C1471 C1472 1.369 . S
C1471 C1473 1.419 . S
C1471 H1475 0.930 . S
C1472 C1471 1.369 . S
C1472 C1481 1.429 . S
C1473 C1471 1.419 . S
C1473 C1474 1.363 . S
C1473 H1476 0.929 . S
C1474 C1473 1.363 . S
C1474 C1480 1.428 . S
H1475 C1471 0.930 . S
H1476 C1473 0.929 . S
S1477 N1478 1.613 . S
S1477 N1479 1.610 . S
N1478 S1477 1.613 . S
N1478 C1481 1.350 . S
N1479 S1477 1.610 . S
N1479 C1480 1.351 . S
C1480 C1474 1.428 . S
C1480 N1479 1.351 . S
C1480 C1481 1.434 . S
C1481 C1472 1.429 . S
C1481 N1478 1.350 . S
C1481 C1480 1.434 . S
C1482 C1483 1.369 . S
C1482 C1484 1.419 . S
C1482 H1486 0.930 . S
C1483 C1482 1.369 . S
C1483 C1492 1.429 . S
C1484 C1482 1.419 . S
C1484 C1485 1.363 . S
C1484 H1487 0.929 . S
C1485 C1484 1.363 . S
C1485 C1491 1.428 . S
H1486 C1482 0.930 . S
H1487 C1484 0.929 . S
S1488 N1489 1.613 . S
S1488 N1490 1.610 . S
N1489 S1488 1.613 . S
N1489 C1492 1.350 . S
N1490 S1488 1.610 . S
N1490 C1491 1.351 . S
C1491 C1485 1.428 . S
C1491 N1490 1.351 . S
C1491 C1492 1.434 . S
C1492 C1483 1.429 . S
C1492 N1489 1.350 . S
C1492 C1491 1.434 . S
C1493 C1494 1.369 . S
C1493 C1495 1.419 . S
C1493 H1497 0.930 . S
C1494 C1493 1.369 . S
C1494 C1503 1.429 . S
C1495 C1493 1.419 . S
C1495 C1496 1.363 . S
C1495 H1498 0.929 1_455 S
C1496 C1495 1.363 . S
C1496 C1502 1.428 . S
H1497 C1493 0.930 . S
H1498 C1495 0.929 1_655 S
S1499 N1500 1.613 . S
S1499 N1501 1.610 . S
N1500 S1499 1.613 . S
N1500 C1503 1.350 . S
N1501 S1499 1.610 . S
N1501 C1502 1.351 . S
C1502 C1496 1.428 . S
C1502 N1501 1.351 . S
C1502 C1503 1.434 . S
C1503 C1494 1.429 . S
C1503 N1500 1.350 . S
C1503 C1502 1.434 . S
C1504 C1505 1.369 . S
C1504 C1506 1.419 . S
C1504 H1508 0.930 . S
C1505 C1504 1.369 . S
C1505 C1514 1.429 . S
C1506 C1504 1.419 . S
C1506 C1507 1.363 . S
C1506 H1509 0.929 . S
C1507 C1506 1.363 . S
C1507 C1513 1.428 . S
H1508 C1504 0.930 . S
H1509 C1506 0.929 . S
S1510 N1511 1.613 . S
S1510 N1512 1.610 . S
N1511 S1510 1.613 . S
N1511 C1514 1.350 . S
N1512 S1510 1.610 . S
N1512 C1513 1.351 . S
C1513 C1507 1.428 . S
C1513 N1512 1.351 . S
C1513 C1514 1.434 . S
C1514 C1505 1.429 . S
C1514 N1511 1.350 . S
C1514 C1513 1.434 . S
C1515 C1516 1.369 . S
C1515 C1517 1.419 . S
C1515 H1519 0.930 . S
C1516 C1515 1.369 . S
C1516 C1525 1.429 . S
C1517 C1515 1.419 . S
C1517 C1518 1.363 . S
C1517 H1520 0.929 . S
C1518 C1517 1.363 . S
C1518 C1524 1.428 . S
H1519 C1515 0.930 . S
H1520 C1517 0.929 . S
S1521 N1522 1.613 . S
S1521 N1523 1.610 . S
N1522 S1521 1.613 . S
N1522 C1525 1.350 . S
N1523 S1521 1.610 . S
N1523 C1524 1.351 . S
C1524 C1518 1.428 . S
C1524 N1523 1.351 . S
C1524 C1525 1.434 . S
C1525 C1516 1.429 . S
C1525 N1522 1.350 . S
C1525 C1524 1.434 . S
C1526 C1527 1.369 . S
C1526 C1528 1.419 . S
C1526 H1530 0.930 . S
C1527 C1526 1.369 . S
C1527 C1536 1.429 . S
C1528 C1526 1.419 . S
C1528 C1529 1.363 . S
C1528 H1531 0.929 . S
C1529 C1528 1.363 . S
C1529 C1535 1.428 . S
H1530 C1526 0.930 . S
H1531 C1528 0.929 . S
S1532 N1533 1.613 . S
S1532 N1534 1.610 . S
N1533 S1532 1.613 . S
N1533 C1536 1.350 . S
N1534 S1532 1.610 . S
N1534 C1535 1.351 . S
C1535 C1529 1.428 . S
C1535 N1534 1.351 . S
C1535 C1536 1.434 . S
C1536 C1527 1.429 . S
C1536 N1533 1.350 . S
C1536 C1535 1.434 . S
C1537 C1538 1.369 . S
C1537 C1539 1.419 . S
C1537 H1541 0.930 . S
C1538 C1537 1.369 . S
C1538 C1547 1.429 . S
C1539 C1537 1.419 . S
C1539 C1540 1.363 . S
C1539 H1542 0.929 . S
C1540 C1539 1.363 . S
C1540 C1546 1.428 . S
H1541 C1537 0.930 . S
H1542 C1539 0.929 . S
S1543 N1544 1.613 . S
S1543 N1545 1.610 . S
N1544 S1543 1.613 . S
N1544 C1547 1.350 . S
N1545 S1543 1.610 . S
N1545 C1546 1.351 . S
C1546 C1540 1.428 . S
C1546 N1545 1.351 . S
C1546 C1547 1.434 . S
C1547 C1538 1.429 . S
C1547 N1544 1.350 . S
C1547 C1546 1.434 . S
C1548 C1549 1.369 . S
C1548 C1550 1.419 . S
C1548 H1552 0.930 . S
C1549 C1548 1.369 . S
C1549 C1558 1.429 . S
C1550 C1548 1.419 . S
C1550 C1551 1.363 . S
C1550 H1553 0.929 . S
C1551 C1550 1.363 . S
C1551 C1557 1.428 . S
H1552 C1548 0.930 . S
H1553 C1550 0.929 . S
S1554 N1555 1.613 . S
S1554 N1556 1.610 . S
N1555 S1554 1.613 . S
N1555 C1558 1.350 . S
N1556 S1554 1.610 . S
N1556 C1557 1.351 . S
C1557 C1551 1.428 . S
C1557 N1556 1.351 . S
C1557 C1558 1.434 . S
C1558 C1549 1.429 . S
C1558 N1555 1.350 . S
C1558 C1557 1.434 . S
C1559 C1560 1.369 . S
C1559 C1561 1.419 . S
C1559 H1563 0.930 . S
C1560 C1559 1.369 . S
C1560 C1569 1.429 . S
C1561 C1559 1.419 . S
C1561 C1562 1.363 . S
C1561 H1564 0.929 . S
C1562 C1561 1.363 . S
C1562 C1568 1.428 . S
H1563 C1559 0.930 . S
H1564 C1561 0.929 . S
S1565 N1566 1.613 . S
S1565 N1567 1.610 . S
N1566 S1565 1.613 . S
N1566 C1569 1.350 . S
N1567 S1565 1.610 . S
N1567 C1568 1.351 . S
C1568 C1562 1.428 . S
C1568 N1567 1.351 . S
C1568 C1569 1.434 . S
C1569 C1560 1.429 . S
C1569 N1566 1.350 . S
C1569 C1568 1.434 . S
C1570 C1571 1.369 . S
C1570 C1572 1.419 . S
C1570 H1574 0.930 . S
C1571 C1570 1.369 . S
C1571 C1580 1.429 . S
C1572 C1570 1.419 . S
C1572 C1573 1.363 . S
C1572 H1575 0.929 . S
C1573 C1572 1.363 . S
C1573 C1579 1.428 . S
H1574 C1570 0.930 . S
H1575 C1572 0.929 . S
S1576 N1577 1.613 . S
S1576 N1578 1.610 . S
N1577 S1576 1.613 . S
N1577 C1580 1.350 . S
N1578 S1576 1.610 . S
N1578 C1579 1.351 . S
C1579 C1573 1.428 . S
C1579 N1578 1.351 . S
C1579 C1580 1.434 . S
C1580 C1571 1.429 . S
C1580 N1577 1.350 . S
C1580 C1579 1.434 . S
C1581 C1582 1.369 . S
C1581 C1583 1.419 . S
C1581 H1585 0.930 . S
C1582 C1581 1.369 . S
C1582 C1591 1.429 . S
C1583 C1581 1.419 . S
C1583 C1584 1.363 . S
C1583 H1586 0.929 . S
C1584 C1583 1.363 . S
C1584 C1590 1.428 . S
H1585 C1581 0.930 . S
H1586 C1583 0.929 . S
S1587 N1588 1.613 . S
S1587 N1589 1.610 . S
N1588 S1587 1.613 . S
N1588 C1591 1.350 . S
N1589 S1587 1.610 . S
N1589 C1590 1.351 . S
C1590 C1584 1.428 . S
C1590 N1589 1.351 . S
C1590 C1591 1.434 . S
C1591 C1582 1.429 . S
C1591 N1588 1.350 . S
C1591 C1590 1.434 . S
C1592 C1593 1.369 . S
C1592 C1594 1.419 . S
C1592 H1596 0.930 . S
C1593 C1592 1.369 . S
C1593 C1602 1.429 . S
C1594 C1592 1.419 . S
C1594 C1595 1.363 . S
C1594 H1597 0.929 . S
C1595 C1594 1.363 . S
C1595 C1601 1.428 . S
H1596 C1592 0.930 . S
H1597 C1594 0.929 . S
S1598 N1599 1.613 . S
S1598 N1600 1.610 . S
N1599 S1598 1.613 . S
N1599 C1602 1.350 . S
N1600 S1598 1.610 . S
N1600 C1601 1.351 . S
C1601 C1595 1.428 . S
C1601 N1600 1.351 . S
C1601 C1602 1.434 . S
C1602 C1593 1.429 . S
C1602 N1599 1.350 . S
C1602 C1601 1.434 . S
C1603 C1604 1.369 . S
C1603 C1605 1.419 . S
C1603 H1607 0.930 . S
C1604 C1603 1.369 . S
C1604 C1613 1.429 . S
C1605 C1603 1.419 . S
C1605 C1606 1.363 . S
C1605 H1608 0.929 . S
C1606 C1605 1.363 . S
C1606 C1612 1.428 . S
H1607 C1603 0.930 . S
H1608 C1605 0.929 . S
S1609 N1610 1.613 . S
S1609 N1611 1.610 . S
N1610 S1609 1.613 . S
N1610 C1613 1.350 . S
N1611 S1609 1.610 . S
N1611 C1612 1.351 . S
C1612 C1606 1.428 . S
C1612 N1611 1.351 . S
C1612 C1613 1.434 . S
C1613 C1604 1.429 . S
C1613 N1610 1.350 . S
C1613 C1612 1.434 . S
C1614 C1615 1.369 . S
C1614 C1616 1.419 . S
C1614 H1618 0.930 . S
C1615 C1614 1.369 . S
C1615 C1624 1.429 . S
C1616 C1614 1.419 . S
C1616 C1617 1.363 . S
C1616 H1619 0.929 . S
C1617 C1616 1.363 . S
C1617 C1623 1.428 . S
H1618 C1614 0.930 . S
H1619 C1616 0.929 . S
S1620 N1621 1.613 . S
S1620 N1622 1.610 . S
N1621 S1620 1.613 . S
N1621 C1624 1.350 . S
N1622 S1620 1.610 . S
N1622 C1623 1.351 . S
C1623 C1617 1.428 . S
C1623 N1622 1.351 . S
C1623 C1624 1.434 . S
C1624 C1615 1.429 . S
C1624 N1621 1.350 . S
C1624 C1623 1.434 . S
C1625 C1626 1.369 . S
C1625 C1627 1.419 . S
C1625 H1629 0.930 . S
C1626 C1625 1.369 . S
C1626 C1635 1.429 . S
C1627 C1625 1.419 . S
C1627 C1628 1.363 . S
C1627 H1630 0.929 . S
C1628 C1627 1.363 . S
C1628 C1634 1.428 . S
H1629 C1625 0.930 . S
H1630 C1627 0.929 . S
S1631 N1632 1.646 . S
S1631 N1633 1.596 1_655 S
N1632 S1631 1.646 . S
N1632 C1635 1.350 . S
N1633 S1631 1.596 1_455 S
N1633 C1634 1.351 1_455 S
C1634 C1628 1.428 . S
C1634 N1633 1.351 1_655 S
C1634 C1635 1.434 . S
C1635 C1626 1.429 . S
C1635 N1632 1.350 . S
C1635 C1634 1.434 . S
C1636 C1637 1.369 . S
C1636 C1638 1.419 . S
C1636 H1640 0.930 . S
C1637 C1636 1.369 . S
C1637 C1646 1.429 . S
C1638 C1636 1.419 . S
C1638 C1639 1.363 . S
C1638 H1641 0.929 . S
C1639 C1638 1.363 . S
C1639 C1645 1.428 . S
H1640 C1636 0.930 . S
H1641 C1638 0.929 . S
S1642 N1643 1.613 . S
S1642 N1644 1.610 . S
N1643 S1642 1.613 . S
N1643 C1646 1.350 . S
N1644 S1642 1.610 . S
N1644 C1645 1.351 . S
C1645 C1639 1.428 . S
C1645 N1644 1.351 . S
C1645 C1646 1.434 . S
C1646 C1637 1.429 . S
C1646 N1643 1.350 . S
C1646 C1645 1.434 . S
C1647 C1648 1.369 . S
C1647 C1649 1.419 . S
C1647 H1651 0.930 . S
C1648 C1647 1.369 . S
C1648 C1657 1.429 . S
C1649 C1647 1.419 . S
C1649 C1650 1.363 . S
C1649 H1652 0.929 . S
C1650 C1649 1.363 . S
C1650 C1656 1.428 . S
H1651 C1647 0.930 . S
H1652 C1649 0.929 . S
S1653 N1654 1.613 . S
S1653 N1655 1.610 . S
N1654 S1653 1.613 . S
N1654 C1657 1.350 . S
N1655 S1653 1.610 . S
N1655 C1656 1.351 . S
C1656 C1650 1.428 . S
C1656 N1655 1.351 . S
C1656 C1657 1.434 . S
C1657 C1648 1.429 . S
C1657 N1654 1.350 . S
C1657 C1656 1.434 . S
C1658 C1659 1.369 . S
C1658 C1660 1.419 . S
C1658 H1662 0.930 . S
C1659 C1658 1.369 . S
C1659 C1668 1.429 . S
C1660 C1658 1.419 . S
C1660 C1661 1.363 . S
C1660 H1663 0.929 . S
C1661 C1660 1.363 . S
C1661 C1667 1.428 . S
H1662 C1658 0.930 . S
H1663 C1660 0.929 . S
S1664 N1665 1.613 . S
S1664 N1666 1.610 . S
N1665 S1664 1.613 . S
N1665 C1668 1.350 . S
N1666 S1664 1.610 . S
N1666 C1667 1.351 . S
C1667 C1661 1.428 . S
C1667 N1666 1.351 . S
C1667 C1668 1.434 . S
C1668 C1659 1.429 . S
C1668 N1665 1.350 . S
C1668 C1667 1.434 . S
C1669 C1670 1.369 . S
C1669 C1671 1.419 . S
C1669 H1673 0.930 . S
C1670 C1669 1.369 . S
C1670 C1679 1.429 . S
C1671 C1669 1.419 . S
C1671 C1672 1.363 . S
C1671 H1674 0.929 . S
C1672 C1671 1.363 . S
C1672 C1678 1.428 . S
H1673 C1669 0.930 . S
H1674 C1671 0.929 . S
S1675 N1676 1.613 . S
S1675 N1677 1.610 . S
N1676 S1675 1.613 . S
N1676 C1679 1.350 . S
N1677 S1675 1.610 . S
N1677 C1678 1.351 . S
C1678 C1672 1.428 . S
C1678 N1677 1.351 . S
C1678 C1679 1.434 . S
C1679 C1670 1.429 . S
C1679 N1676 1.350 . S
C1679 C1678 1.434 . S
C1680 C1681 1.369 . S
C1680 C1682 1.419 . S
C1680 H1684 0.930 . S
C1681 C1680 1.369 . S
C1681 C1690 1.429 . S
C1682 C1680 1.419 . S
C1682 C1683 1.363 . S
C1682 H1685 0.929 . S
C1683 C1682 1.363 . S
C1683 C1689 1.428 . S
H1684 C1680 0.930 . S
H1685 C1682 0.929 . S
S1686 N1687 1.613 . S
S1686 N1688 1.610 . S
N1687 S1686 1.613 . S
N1687 C1690 1.350 . S
N1688 S1686 1.610 . S
N1688 C1689 1.351 . S
C1689 C1683 1.428 . S
C1689 N1688 1.351 . S
C1689 C1690 1.434 . S
C1690 C1681 1.429 . S
C1690 N1687 1.350 . S
C1690 C1689 1.434 . S
C1691 C1692 1.369 . S
C1691 C1693 1.419 . S
C1691 H1695 0.930 . S
C1692 C1691 1.369 . S
C1692 C1701 1.429 . S
C1693 C1691 1.419 . S
C1693 C1694 1.363 . S
C1693 H1696 0.929 . S
C1694 C1693 1.363 . S
C1694 C1700 1.428 . S
H1695 C1691 0.930 . S
H1696 C1693 0.929 . S
S1697 N1698 1.613 . S
S1697 N1699 1.610 . S
N1698 S1697 1.613 . S
N1698 C1701 1.350 . S
N1699 S1697 1.610 . S
N1699 C1700 1.351 . S
C1700 C1694 1.428 . S
C1700 N1699 1.351 . S
C1700 C1701 1.434 . S
C1701 C1692 1.429 . S
C1701 N1698 1.350 . S
C1701 C1700 1.434 . S
C1702 C1703 1.369 . S
C1702 C1704 1.419 . S
C1702 H1706 0.930 . S
C1703 C1702 1.369 . S
C1703 C1712 1.429 . S
C1704 C1702 1.419 . S
C1704 C1705 1.363 . S
C1704 H1707 0.929 . S
C1705 C1704 1.363 . S
C1705 C1711 1.428 . S
H1706 C1702 0.930 . S
H1707 C1704 0.929 . S
S1708 N1709 1.613 . S
S1708 N1710 1.610 . S
N1709 S1708 1.613 . S
N1709 C1712 1.350 . S
N1710 S1708 1.610 . S
N1710 C1711 1.351 . S
C1711 C1705 1.428 . S
C1711 N1710 1.351 . S
C1711 C1712 1.434 . S
C1712 C1703 1.429 . S
C1712 N1709 1.350 . S
C1712 C1711 1.434 . S
C1713 C1714 1.369 . S
C1713 C1715 1.419 . S
C1713 H1717 0.930 . S
C1714 C1713 1.369 . S
C1714 C1723 1.429 1_556 S
C1715 C1713 1.419 . S
C1715 C1716 1.363 1_556 S
C1715 H1718 0.929 . S
C1716 C1715 1.363 1_554 S
C1716 C1722 1.428 . S
H1717 C1713 0.930 . S
H1718 C1715 0.929 . S
S1719 N1720 1.613 . S
S1719 N1721 1.610 . S
N1720 S1719 1.613 . S
N1720 C1723 1.350 . S
N1721 S1719 1.610 . S
N1721 C1722 1.351 . S
C1722 C1716 1.428 . S
C1722 N1721 1.351 . S
C1722 C1723 1.434 . S
C1723 C1714 1.429 1_554 S
C1723 N1720 1.350 . S
C1723 C1722 1.434 . S
C1724 C1725 1.369 . S
C1724 C1726 1.419 . S
C1724 H1728 0.930 . S
C1725 C1724 1.369 . S
C1725 C1734 1.429 . S
C1726 C1724 1.419 . S
C1726 C1727 1.363 . S
C1726 H1729 0.929 . S
C1727 C1726 1.363 . S
C1727 C1733 1.428 . S
H1728 C1724 0.930 . S
H1729 C1726 0.929 . S
S1730 N1731 1.613 . S
S1730 N1732 1.610 . S
N1731 S1730 1.613 . S
N1731 C1734 1.350 . S
N1732 S1730 1.610 . S
N1732 C1733 1.351 . S
C1733 C1727 1.428 . S
C1733 N1732 1.351 . S
C1733 C1734 1.434 . S
C1734 C1725 1.429 . S
C1734 N1731 1.350 . S
C1734 C1733 1.434 . S
C1735 C1736 1.369 . S
C1735 C1737 1.419 . S
C1735 H1739 0.930 . S
C1736 C1735 1.369 . S
C1736 C1745 1.429 . S
C1737 C1735 1.419 . S
C1737 C1738 1.363 . S
C1737 H1740 0.929 . S
C1738 C1737 1.363 . S
C1738 C1744 1.428 . S
H1739 C1735 0.930 . S
H1740 C1737 0.929 . S
S1741 N1742 1.613 . S
S1741 N1743 1.610 . S
N1742 S1741 1.613 . S
N1742 C1745 1.350 . S
N1743 S1741 1.610 . S
N1743 C1744 1.351 . S
C1744 C1738 1.428 . S
C1744 N1743 1.351 . S
C1744 C1745 1.434 . S
C1745 C1736 1.429 . S
C1745 N1742 1.350 . S
C1745 C1744 1.434 . S
C1746 C1747 1.369 . S
C1746 C1748 1.419 . S
C1746 H1750 0.930 . S
C1747 C1746 1.369 . S
C1747 C1756 1.429 . S
C1748 C1746 1.419 . S
C1748 C1749 1.363 . S
C1748 H1751 0.929 . S
C1749 C1748 1.363 . S
C1749 C1755 1.428 . S
H1750 C1746 0.930 . S
H1751 C1748 0.929 . S
S1752 N1753 1.613 . S
S1752 N1754 1.610 . S
N1753 S1752 1.613 . S
N1753 C1756 1.350 . S
N1754 S1752 1.610 . S
N1754 C1755 1.351 . S
C1755 C1749 1.428 . S
C1755 N1754 1.351 . S
C1755 C1756 1.434 . S
C1756 C1747 1.429 . S
C1756 N1753 1.350 . S
C1756 C1755 1.434 . S
C1757 C1758 1.369 1_556 S
C1757 C1759 1.419 . S
C1757 H1761 0.930 . S
C1758 C1757 1.369 1_554 S
C1758 C1767 1.429 . S
C1759 C1757 1.419 . S
C1759 C1760 1.363 . S
C1759 H1762 0.929 . S
C1760 C1759 1.363 . S
C1760 C1766 1.428 1_556 S
H1761 C1757 0.930 . S
H1762 C1759 0.929 . S
S1763 N1764 1.613 . S
S1763 N1765 1.610 . S
N1764 S1763 1.613 . S
N1764 C1767 1.350 . S
N1765 S1763 1.610 . S
N1765 C1766 1.351 . S
C1766 C1760 1.428 1_554 S
C1766 N1765 1.351 . S
C1766 C1767 1.434 . S
C1767 C1758 1.429 . S
C1767 N1764 1.350 . S
C1767 C1766 1.434 . S
C1768 C1769 1.374 . S
C1768 C1770 1.414 1_565 S
C1768 H1772 0.929 1_565 S
C1769 C1768 1.374 . S
C1769 C1778 1.429 . S
C1770 C1768 1.414 1_545 S
C1770 C1771 1.363 . S
C1770 H1773 0.929 . S
C1771 C1770 1.363 . S
C1771 C1777 1.408 1_545 S
H1772 C1768 0.929 1_545 S
H1773 C1770 0.929 . S
S1774 N1775 1.613 . S
S1774 N1776 1.610 . S
N1775 S1774 1.613 . S
N1775 C1778 1.350 . S
N1776 S1774 1.610 . S
N1776 C1777 1.354 . S
C1777 C1771 1.408 1_565 S
C1777 N1776 1.354 . S
C1777 C1778 1.453 . S
C1778 C1769 1.429 . S
C1778 N1775 1.350 . S
C1778 C1777 1.453 . S
C1779 C1780 1.369 1_556 S
C1779 C1781 1.419 . S
C1779 H1783 0.930 . S
C1780 C1779 1.369 1_554 S
C1780 C1789 1.429 . S
C1781 C1779 1.419 . S
C1781 C1782 1.363 . S
C1781 H1784 0.929 . S
C1782 C1781 1.363 . S
C1782 C1788 1.428 1_556 S
H1783 C1779 0.930 . S
H1784 C1781 0.929 . S
S1785 N1786 1.613 . S
S1785 N1787 1.610 . S
N1786 S1785 1.613 . S
N1786 C1789 1.350 . S
N1787 S1785 1.610 . S
N1787 C1788 1.351 . S
C1788 C1782 1.428 1_554 S
C1788 N1787 1.351 . S
C1788 C1789 1.434 . S
C1789 C1780 1.429 . S
C1789 N1786 1.350 . S
C1789 C1788 1.434 . S
C1790 C1791 1.352 1_565 S
C1790 C1792 1.434 . S
C1790 H1794 0.932 . S
C1791 C1790 1.352 1_545 S
C1791 C1800 1.429 . S
C1792 C1790 1.434 . S
C1792 C1793 1.363 . S
C1792 H1795 0.929 . S
C1793 C1792 1.363 . S
C1793 C1799 1.428 1_565 S
H1794 C1790 0.932 . S
H1795 C1792 0.929 . S
S1796 N1797 1.613 . S
S1796 N1798 1.610 . S
N1797 S1796 1.613 . S
N1797 C1800 1.350 . S
N1798 S1796 1.610 . S
N1798 C1799 1.351 . S
C1799 C1793 1.428 1_545 S
C1799 N1798 1.351 . S
C1799 C1800 1.434 . S
C1800 C1791 1.429 . S
C1800 N1797 1.350 . S
C1800 C1799 1.434 . S
C1801 C1802 1.369 . S
C1801 C1803 1.419 . S
C1801 H1805 0.930 . S
C1802 C1801 1.369 . S
C1802 C1811 1.429 . S
C1803 C1801 1.419 . S
C1803 C1804 1.363 . S
C1803 H1806 0.929 . S
C1804 C1803 1.363 . S
C1804 C1810 1.428 . S
H1805 C1801 0.930 . S
H1806 C1803 0.929 . S
S1807 N1808 1.613 . S
S1807 N1809 1.610 . S
N1808 S1807 1.613 . S
N1808 C1811 1.350 . S
N1809 S1807 1.610 . S
N1809 C1810 1.351 . S
C1810 C1804 1.428 . S
C1810 N1809 1.351 . S
C1810 C1811 1.434 . S
C1811 C1802 1.429 . S
C1811 N1808 1.350 . S
C1811 C1810 1.434 . S
C1812 C1813 1.369 . S
C1812 C1814 1.419 1_545 S
C1812 H1816 0.930 . S
C1813 C1812 1.369 . S
C1813 C1822 1.429 . S
C1814 C1812 1.419 1_565 S
C1814 C1815 1.363 . S
C1814 H1817 0.929 . S
C1815 C1814 1.363 . S
C1815 C1821 1.463 . S
H1816 C1812 0.930 . S
H1817 C1814 0.929 . S
S1818 N1819 1.613 . S
S1818 N1820 1.610 . S
N1819 S1818 1.613 . S
N1819 C1822 1.350 . S
N1820 S1818 1.610 . S
N1820 C1821 1.348 1_545 S
C1821 C1815 1.463 . S
C1821 N1820 1.348 1_565 S
C1821 C1822 1.399 1_565 S
C1822 C1813 1.429 . S
C1822 N1819 1.350 . S
C1822 C1821 1.399 1_545 S
C1823 C1824 1.369 . S
C1823 C1825 1.419 . S
C1823 H1827 0.930 . S
C1824 C1823 1.369 . S
C1824 C1833 1.429 1_554 S
C1825 C1823 1.419 . S
C1825 C1826 1.363 1_554 S
C1825 H1828 0.929 . S
C1826 C1825 1.363 1_556 S
C1826 C1832 1.428 . S
H1827 C1823 0.930 . S
H1828 C1825 0.929 . S
S1829 N1830 1.613 . S
S1829 N1831 1.610 . S
N1830 S1829 1.613 . S
N1830 C1833 1.350 . S
N1831 S1829 1.610 . S
N1831 C1832 1.351 . S
C1832 C1826 1.428 . S
C1832 N1831 1.351 . S
C1832 C1833 1.434 . S
C1833 C1824 1.429 1_556 S
C1833 N1830 1.350 . S
C1833 C1832 1.434 . S
C1834 C1835 1.369 . S
C1834 C1836 1.419 1_545 S
C1834 H1838 0.930 . S
C1835 C1834 1.369 . S
C1835 C1844 1.429 . S
C1836 C1834 1.419 1_565 S
C1836 C1837 1.363 . S
C1836 H1839 0.929 . S
C1837 C1836 1.363 . S
C1837 C1843 1.428 . S
H1838 C1834 0.930 . S
H1839 C1836 0.929 . S
S1840 N1841 1.613 1_565 S
S1840 N1842 1.610 . S
N1841 S1840 1.613 1_545 S
N1841 C1844 1.350 . S
N1842 S1840 1.610 . S
N1842 C1843 1.351 . S
C1843 C1837 1.428 . S
C1843 N1842 1.351 . S
C1843 C1844 1.434 1_565 S
C1844 C1835 1.429 . S
C1844 N1841 1.350 . S
C1844 C1843 1.434 1_545 S
C1845 C1846 1.369 . S
C1845 C1847 1.419 . S
C1845 H1849 0.930 . S
C1846 C1845 1.369 . S
C1846 C1855 1.429 . S
C1847 C1845 1.419 . S
C1847 C1848 1.363 . S
C1847 H1850 0.929 . S
C1848 C1847 1.363 . S
C1848 C1854 1.428 . S
H1849 C1845 0.930 . S
H1850 C1847 0.929 . S
S1851 N1852 1.613 . S
S1851 N1853 1.610 . S
N1852 S1851 1.613 . S
N1852 C1855 1.350 . S
N1853 S1851 1.610 . S
N1853 C1854 1.351 . S
C1854 C1848 1.428 . S
C1854 N1853 1.351 . S
C1854 C1855 1.434 . S
C1855 C1846 1.429 . S
C1855 N1852 1.350 . S
C1855 C1854 1.434 . S
C1153 C14 1.276 . S
C1155 C760 1.303 . S
C1164 C806 1.277 . S
C1166 C40 1.303 . S
C1175 C86 1.281 . S
C1177 C832 1.304 . S
C1186 C734 1.279 . S
C1188 C112 1.304 . S
C1197 C158 1.274 . S
C1199 C688 1.302 . S
C1208 C184 1.305 . S
C1210 C590 1.281 . S
C1219 C616 1.301 . S
C1221 C230 1.275 . S
C1230 C256 1.305 . S
C1232 C662 1.281 . S
C1241 C302 1.396 . S
C1243 C1058 1.399 . S
C1252 C338 1.394 . S
C1254 C1094 1.401 . S
C1263 C1130 1.396 . S
C1265 C374 1.399 . S
C1274 C1022 1.398 . S
C1276 C410 1.397 . S
C1285 C446 1.400 . S
C1287 C986 1.395 . S
C1296 C878 1.402 . S
C1298 C482 1.394 . S
C1307 C518 1.396 . S
C1309 C914 1.399 . S
C1318 C950 1.400 . S
C1320 C554 1.396 . S
C1329 C3 1.465 . S
C1331 C326 1.490 . S
C1340 C38 1.404 . S
C1342 C938 1.466 1_655 S
C1351 C398 1.491 . S
C1353 C75 1.464 . S
C1362 C110 1.397 . S
C1364 C866 1.463 . S
C1373 C147 1.459 . S
C1375 C542 1.490 . S
C1384 C1010 1.462 . S
C1386 C182 1.395 . S
C1395 C470 1.489 . S
C1397 C219 1.464 . S
C1406 C1082 1.462 1_655 S
C1408 C254 1.396 . S
C1417 C291 1.329 . S
C1419 C39 1.345 . S
C1428 C650 1.311 1_455 S
C1430 C327 1.297 . S
C1439 C111 1.346 . S
C1441 C363 1.331 . S
C1450 C399 1.294 . S
C1452 C578 1.310 . S
C1461 C255 1.343 . S
C1463 C435 1.330 . S
C1472 C722 1.311 . S
C1474 C471 1.299 . S
C1483 C183 1.346 . S
C1485 C507 1.332 . S
C1494 C543 1.297 . S
C1496 C794 1.311 1_455 S
C1505 C902 1.488 . S
C1507 C579 1.461 . S
C1516 C362 1.465 . S
C1518 C614 1.395 . S
C1527 C974 1.490 . S
C1529 C651 1.460 . S
C1538 C686 1.404 . S
C1540 C290 1.466 1_455 S
C1549 C1118 1.488 . S
C1551 C723 1.460 . S
C1560 C434 1.467 1_455 S
C1562 C758 1.398 . S
C1571 C1046 1.491 . S
C1573 C795 1.464 . S
C1582 C830 1.394 . S
C1584 C506 1.465 . S
C1593 C867 1.334 . S
C1595 C615 1.344 . S
C1604 C74 1.308 . S
C1606 C903 1.294 . S
C1615 C939 1.334 . S
C1617 C687 1.344 . S
C1626 C975 1.295 . S
C1628 C2 1.308 1_655 S
C1637 C1011 1.328 . S
C1639 C831 1.344 . S
C1648 C146 1.309 1_655 S
C1650 C1047 1.298 . S
C1659 C759 1.343 . S
C1661 C1083 1.332 . S
C1670 C1119 1.295 . S
C1672 C218 1.310 . S
C1681 C4 1.404 . S
C1683 C148 1.412 . S
C1692 C50 1.359 . S
C1694 C194 1.349 . S
C1703 C220 1.410 . S
C1705 C76 1.414 . S
C1714 C266 1.349 . S
C1716 C122 1.361 . S
C1725 C436 1.324 . S
C1727 C292 1.316 . S
C1736 C472 1.347 . S
C1738 C328 1.348 . S
C1747 C508 1.320 . S
C1749 C364 1.321 . S
C1758 C544 1.351 . S
C1760 C400 1.342 . S
C1769 C580 1.409 . S
C1771 C724 1.414 . S
C1780 C626 1.362 . S
C1782 C770 1.354 . S
C1791 C652 1.405 . S
C1793 C796 1.414 . S
C1802 C842 1.354 . S
C1804 C698 1.351 . S
C1813 C868 1.313 . S
C1815 C1012 1.323 . S
C1824 C1048 1.340 . S
C1826 C904 1.349 . S
C1835 C1084 1.323 . S
C1837 C940 1.314 . S
C1846 C1120 1.343 . S
C1848 C976 1.343 . S
