# Generated by pormake.
# Topology lcy-a, (4)-cn, num edge types: 1
# Building blocks:
#     Node 0, Type 0, BuildingBlock: ICAMEG_clean_sbu_1, # of connection points: 4
#     Node 1, Type 0, BuildingBlock: ICAMEG_clean_sbu_1, # of connection points: 4
#     Node 2, Type 0, BuildingBlock: ICAMEG_clean_sbu_1, # of connection points: 4
#     Node 3, Type 0, BuildingBlock: ICAMEG_clean_sbu_1, # of connection points: 4
#     Node 4, Type 0, BuildingBlock: ICAMEG_clean_sbu_1, # of connection points: 4
#     Node 5, Type 0, BuildingBlock: ICAMEG_clean_sbu_1, # of connection points: 4
#     Node 6, Type 0, BuildingBlock: ICAMEG_clean_sbu_1, # of connection points: 4
#     Node 7, Type 0, BuildingBlock: ICAMEG_clean_sbu_1, # of connection points: 4
#     Node 8, Type 0, BuildingBlock: ICAMEG_clean_sbu_1, # of connection points: 4
#     Node 9, Type 0, BuildingBlock: ICAMEG_clean_sbu_1, # of connection points: 4
#     Node 10, Type 0, BuildingBlock: ICAMEG_clean_sbu_1, # of connection points: 4
#     Node 11, Type 0, BuildingBlock: ICAMEG_clean_sbu_1, # of connection points: 4
#     Node 12, Type 0, BuildingBlock: ICAMEG_clean_sbu_1, # of connection points: 4
#     Node 13, Type 0, BuildingBlock: ICAMEG_clean_sbu_1, # of connection points: 4
#     Node 14, Type 0, BuildingBlock: ICAMEG_clean_sbu_1, # of connection points: 4
#     Node 15, Type 0, BuildingBlock: ICAMEG_clean_sbu_1, # of connection points: 4
#     Node 16, Type 0, BuildingBlock: ICAMEG_clean_sbu_1, # of connection points: 4
#     Node 17, Type 0, BuildingBlock: ICAMEG_clean_sbu_1, # of connection points: 4
#     Node 18, Type 0, BuildingBlock: ICAMEG_clean_sbu_1, # of connection points: 4
#     Node 19, Type 0, BuildingBlock: ICAMEG_clean_sbu_1, # of connection points: 4
#     Node 20, Type 0, BuildingBlock: ICAMEG_clean_sbu_1, # of connection points: 4
#     Node 21, Type 0, BuildingBlock: ICAMEG_clean_sbu_1, # of connection points: 4
#     Node 22, Type 0, BuildingBlock: ICAMEG_clean_sbu_1, # of connection points: 4
#     Node 23, Type 0, BuildingBlock: ICAMEG_clean_sbu_1, # of connection points: 4
#     Edge 24, Type (0, 0), BuildingBlock: ZUJKAS_clean_linker_0, # of connection points: 2
#     Edge 25, Type (0, 0), BuildingBlock: ZUJKAS_clean_linker_0, # of connection points: 2
#     Edge 26, Type (0, 0), BuildingBlock: ZUJKAS_clean_linker_0, # of connection points: 2
#     Edge 27, Type (0, 0), BuildingBlock: ZUJKAS_clean_linker_0, # of connection points: 2
#     Edge 28, Type (0, 0), BuildingBlock: ZUJKAS_clean_linker_0, # of connection points: 2
#     Edge 29, Type (0, 0), BuildingBlock: ZUJKAS_clean_linker_0, # of connection points: 2
#     Edge 30, Type (0, 0), BuildingBlock: ZUJKAS_clean_linker_0, # of connection points: 2
#     Edge 31, Type (0, 0), BuildingBlock: ZUJKAS_clean_linker_0, # of connection points: 2
#     Edge 32, Type (0, 0), BuildingBlock: ZUJKAS_clean_linker_0, # of connection points: 2
#     Edge 33, Type (0, 0), BuildingBlock: ZUJKAS_clean_linker_0, # of connection points: 2
#     Edge 34, Type (0, 0), BuildingBlock: ZUJKAS_clean_linker_0, # of connection points: 2
#     Edge 35, Type (0, 0), BuildingBlock: ZUJKAS_clean_linker_0, # of connection points: 2
#     Edge 36, Type (0, 0), BuildingBlock: ZUJKAS_clean_linker_0, # of connection points: 2
#     Edge 37, Type (0, 0), BuildingBlock: ZUJKAS_clean_linker_0, # of connection points: 2
#     Edge 38, Type (0, 0), BuildingBlock: ZUJKAS_clean_linker_0, # of connection points: 2
#     Edge 39, Type (0, 0), BuildingBlock: ZUJKAS_clean_linker_0, # of connection points: 2
#     Edge 40, Type (0, 0), BuildingBlock: ZUJKAS_clean_linker_0, # of connection points: 2
#     Edge 41, Type (0, 0), BuildingBlock: ZUJKAS_clean_linker_0, # of connection points: 2
#     Edge 42, Type (0, 0), BuildingBlock: ZUJKAS_clean_linker_0, # of connection points: 2
#     Edge 43, Type (0, 0), BuildingBlock: ZUJKAS_clean_linker_0, # of connection points: 2
#     Edge 44, Type (0, 0), BuildingBlock: ZUJKAS_clean_linker_0, # of connection points: 2
#     Edge 45, Type (0, 0), BuildingBlock: ZUJKAS_clean_linker_0, # of connection points: 2
#     Edge 46, Type (0, 0), BuildingBlock: ZUJKAS_clean_linker_0, # of connection points: 2
#     Edge 47, Type (0, 0), BuildingBlock: ZUJKAS_clean_linker_0, # of connection points: 2
#     Edge 48, Type (0, 0), BuildingBlock: ZUJKAS_clean_linker_0, # of connection points: 2
#     Edge 49, Type (0, 0), BuildingBlock: ZUJKAS_clean_linker_0, # of connection points: 2
#     Edge 50, Type (0, 0), BuildingBlock: ZUJKAS_clean_linker_0, # of connection points: 2
#     Edge 51, Type (0, 0), BuildingBlock: ZUJKAS_clean_linker_0, # of connection points: 2
#     Edge 52, Type (0, 0), BuildingBlock: ZUJKAS_clean_linker_0, # of connection points: 2
#     Edge 53, Type (0, 0), BuildingBlock: ZUJKAS_clean_linker_0, # of connection points: 2
#     Edge 54, Type (0, 0), BuildingBlock: ZUJKAS_clean_linker_0, # of connection points: 2
#     Edge 55, Type (0, 0), BuildingBlock: ZUJKAS_clean_linker_0, # of connection points: 2
#     Edge 56, Type (0, 0), BuildingBlock: ZUJKAS_clean_linker_0, # of connection points: 2
#     Edge 57, Type (0, 0), BuildingBlock: ZUJKAS_clean_linker_0, # of connection points: 2
#     Edge 58, Type (0, 0), BuildingBlock: ZUJKAS_clean_linker_0, # of connection points: 2
#     Edge 59, Type (0, 0), BuildingBlock: ZUJKAS_clean_linker_0, # of connection points: 2
#     Edge 60, Type (0, 0), BuildingBlock: ZUJKAS_clean_linker_0, # of connection points: 2
#     Edge 61, Type (0, 0), BuildingBlock: ZUJKAS_clean_linker_0, # of connection points: 2
#     Edge 62, Type (0, 0), BuildingBlock: ZUJKAS_clean_linker_0, # of connection points: 2
#     Edge 63, Type (0, 0), BuildingBlock: ZUJKAS_clean_linker_0, # of connection points: 2
#     Edge 64, Type (0, 0), BuildingBlock: ZUJKAS_clean_linker_0, # of connection points: 2
#     Edge 65, Type (0, 0), BuildingBlock: ZUJKAS_clean_linker_0, # of connection points: 2
#     Edge 66, Type (0, 0), BuildingBlock: ZUJKAS_clean_linker_0, # of connection points: 2
#     Edge 67, Type (0, 0), BuildingBlock: ZUJKAS_clean_linker_0, # of connection points: 2
#     Edge 68, Type (0, 0), BuildingBlock: ZUJKAS_clean_linker_0, # of connection points: 2
#     Edge 69, Type (0, 0), BuildingBlock: ZUJKAS_clean_linker_0, # of connection points: 2
#     Edge 70, Type (0, 0), BuildingBlock: ZUJKAS_clean_linker_0, # of connection points: 2
#     Edge 71, Type (0, 0), BuildingBlock: ZUJKAS_clean_linker_0, # of connection points: 2
# Relax obj value: 0.383
# Max RMSD: 0.165
# Mean RMSD: 0.165
data_MOF--net-lcy-a--node1-ICAMEG_clean_sbu_1--edge1-ZUJKAS_clean_linker_0
_symmetry_space_group_name_H-M    P1
_symmetry_Int_Tables_number       1
_symmetry_cell_setting            triclinic
loop_
_symmetry_equiv_pos_as_xyz
'x, y, z'
_cell_length_a     76.744652
_cell_length_b     76.75035
_cell_length_c     76.741439
_cell_angle_alpha  90.006794
_cell_angle_beta   90.001419
_cell_angle_gamma 89.99476
loop_
_atom_site_label
_atom_site_type_symbol
_atom_site_fract_x
_atom_site_fract_y
_atom_site_fract_z
_atom_type_partial_charge
Co0 Co 0.22278 0.30913 0.39063 0.0
Co1 Co 0.18105 0.29692 0.38365 0.0
O2 O 0.19957 0.30385 0.39969 0.0
C3 C 0.21661 0.33692 0.41725 0.0
O4 O 0.20131 0.34042 0.41044 0.0
C5 C 0.17874 0.27098 0.41189 0.0
O6 O 0.19562 0.26875 0.4103 0.0
O7 O 0.19574 0.27703 0.37576 0.0
O8 O 0.22 0.2923 0.37084 0.0
H9 H 0.15707 0.2767 0.3262 0.0
H10 H 0.21869 0.29825 0.42751 0.0
O11 O 0.22653 0.3256 0.41033 0.0
H12 H 0.25955 0.25587 0.40173 0.0
H13 H 0.28666 0.3234 0.39572 0.0
H14 H 0.23731 0.31556 0.35534 0.0
H15 H 0.24789 0.28006 0.38414 0.0
H16 H 0.25757 0.31556 0.40686 0.0
O17 O 0.1708 0.28184 0.40221 0.0
H18 H 0.18003 0.28632 0.34654 0.0
H19 H 0.14277 0.29114 0.38716 0.0
H20 H 0.26618 0.32332 0.34366 0.0
H21 H 0.23034 0.27445 0.44569 0.0
H22 H 0.29113 0.32727 0.3639 0.0
H23 H 0.25083 0.25297 0.43277 0.0
O24 O 0.21251 0.32782 0.37601 0.0
H25 H 0.15431 0.33572 0.42906 0.0
H26 H 0.16038 0.32482 0.36602 0.0
H27 H 0.14296 0.34986 0.37614 0.0
H28 H 0.1398 0.35541 0.40787 0.0
H29 H 0.17174 0.31091 0.41837 0.0
H30 H 0.11943 0.28141 0.36732 0.0
H31 H 0.12651 0.27419 0.33657 0.0
O32 O 0.19076 0.3121 0.36459 0.0
C33 C 0.21106 0.27838 0.36954 0.0
C34 C 0.15381 0.27987 0.33955 0.0
C35 C 0.13268 0.2825 0.36263 0.0
N36 N 0.16271 0.28947 0.36795 0.0
C37 C 0.16674 0.28539 0.3511 0.0
C38 C 0.14596 0.28797 0.37382 0.0
C39 C 0.13667 0.27845 0.34538 0.0
C40 C 0.22776 0.28908 0.42185 0.0
N41 N 0.23255 0.29054 0.40476 0.0
C42 C 0.23426 0.27558 0.43219 0.0
C43 C 0.24574 0.26353 0.42493 0.0
C44 C 0.25063 0.26514 0.40751 0.0
C45 C 0.24392 0.27883 0.3976 0.0
C46 C 0.27589 0.3217 0.38677 0.0
C47 C 0.24808 0.31722 0.36425 0.0
C48 C 0.25937 0.31731 0.393 0.0
N49 N 0.24573 0.31504 0.38177 0.0
C50 C 0.26441 0.32163 0.35755 0.0
C51 C 0.2784 0.32386 0.36891 0.0
C52 C 0.20128 0.32501 0.36408 0.0
C53 C 0.15555 0.33341 0.41521 0.0
C54 C 0.15913 0.32719 0.37985 0.0
C55 C 0.14921 0.34136 0.3855 0.0
C56 C 0.14743 0.34447 0.40331 0.0
N57 N 0.16701 0.31638 0.39161 0.0
C58 C 0.16535 0.31935 0.40908 0.0
Co59 Co 0.93591 0.96839 0.63971 0.0
Co60 Co 0.95146 0.92767 0.63198 0.0
O61 O 0.94226 0.94513 0.64816 0.0
C62 C 0.91087 0.96011 0.66909 0.0
O63 O 0.91554 0.94368 0.66937 0.0
C64 C 0.97612 0.92639 0.66139 0.0
O65 O 0.97704 0.94344 0.66037 0.0
O66 O 0.97068 0.94391 0.62572 0.0
O67 O 0.95438 0.9676 0.62127 0.0
H68 H 0.97596 0.90714 0.57486 0.0
H69 H 0.94517 0.96296 0.6771 0.0
O70 O 0.91721 0.97056 0.65786 0.0
H71 H 0.98504 0.00869 0.65607 0.0
H72 H 0.91719 0.03103 0.6459 0.0
H73 H 0.93172 0.98407 0.60455 0.0
H74 H 0.96314 0.9959 0.63643 0.0
H75 H 0.92575 0.00199 0.65659 0.0
O76 O 0.96631 0.91794 0.65103 0.0
H77 H 0.96372 0.92865 0.59539 0.0
H78 H 0.96007 0.88985 0.63468 0.0
H79 H 0.92337 0.01295 0.59332 0.0
H80 H 0.96663 0.97564 0.69727 0.0
H81 H 0.91604 0.0367 0.61405 0.0
H82 H 0.98685 0.99862 0.68678 0.0
O83 O 0.91915 0.95761 0.62329 0.0
H84 H 0.91329 0.89534 0.67421 0.0
H85 H 0.92582 0.90611 0.61213 0.0
H86 H 0.90185 0.88632 0.6202 0.0
H87 H 0.89548 0.88078 0.65145 0.0
H88 H 0.93703 0.9152 0.66555 0.0
H89 H 0.97241 0.86796 0.61464 0.0
H90 H 0.98037 0.87655 0.58446 0.0
O91 O 0.93664 0.93692 0.61241 0.0
C92 C 0.96874 0.9594 0.62019 0.0
C93 C 0.97249 0.90323 0.58796 0.0
C94 C 0.97052 0.88124 0.61029 0.0
N95 N 0.96106 0.91047 0.61616 0.0
C96 C 0.96552 0.91534 0.59963 0.0
C97 C 0.96358 0.8937 0.62159 0.0
C98 C 0.97498 0.88607 0.59336 0.0
C99 C 0.95364 0.97317 0.67248 0.0
N100 N 0.95268 0.97879 0.65562 0.0
C101 C 0.96589 0.98022 0.68395 0.0
C102 C 0.97726 0.99309 0.67805 0.0
C103 C 0.97625 0.99875 0.66084 0.0
C104 C 0.96382 0.99142 0.64976 0.0
C105 C 0.92033 0.02079 0.63673 0.0
C106 C 0.92856 0.99431 0.61367 0.0
C107 C 0.92511 0.00428 0.64271 0.0
N108 N 0.92921 0.99129 0.63121 0.0
C109 C 0.92383 0.01065 0.60723 0.0
C110 C 0.91971 0.02396 0.61887 0.0
C111 C 0.92324 0.94679 0.61135 0.0
C112 C 0.91593 0.89765 0.66056 0.0
C113 C 0.92302 0.90393 0.62575 0.0
C114 C 0.90948 0.89263 0.63024 0.0
C115 C 0.90593 0.88951 0.64778 0.0
N116 N 0.93274 0.91192 0.63837 0.0
C117 C 0.92937 0.90887 0.65557 0.0
Co118 Co 0.28026 0.68678 0.8912 0.0
Co119 Co 0.32073 0.70237 0.88309 0.0
O120 O 0.3036 0.69294 0.89951 0.0
C121 C 0.28842 0.66174 0.92063 0.0
O122 O 0.30479 0.66661 0.9212 0.0
C123 C 0.32349 0.72607 0.91329 0.0
O124 O 0.30646 0.7276 0.91286 0.0
O125 O 0.30447 0.72191 0.87796 0.0
O126 O 0.28101 0.70548 0.87294 0.0
H127 H 0.3398 0.72879 0.82633 0.0
H128 H 0.28614 0.69603 0.92853 0.0
O129 O 0.2781 0.66794 0.9092 0.0
H130 H 0.23985 0.73562 0.90822 0.0
H131 H 0.21761 0.66805 0.89739 0.0
H132 H 0.26459 0.68256 0.85605 0.0
H133 H 0.25254 0.71388 0.88834 0.0
H134 H 0.24663 0.6767 0.90809 0.0
O135 O 0.33129 0.7164 0.9023 0.0
H136 H 0.31877 0.71609 0.84706 0.0
H137 H 0.35876 0.71026 0.88486 0.0
H138 H 0.23574 0.67411 0.84482 0.0
H139 H 0.27356 0.71733 0.94893 0.0
H140 H 0.21198 0.6668 0.86554 0.0
H141 H 0.25029 0.73741 0.93881 0.0
O142 O 0.291 0.67012 0.87467 0.0
H143 H 0.35356 0.66224 0.92305 0.0
H144 H 0.34144 0.6772 0.86175 0.0
H145 H 0.3611 0.65269 0.86845 0.0
H146 H 0.3673 0.64508 0.89929 0.0
H147 H 0.33385 0.68656 0.91577 0.0
H148 H 0.3802 0.72304 0.86461 0.0
H149 H 0.37077 0.73233 0.83507 0.0
O150 O 0.31072 0.6883 0.86326 0.0
C151 C 0.28894 0.72004 0.87251 0.0
C152 C 0.34408 0.72473 0.83914 0.0
C153 C 0.36675 0.72153 0.86063 0.0
N154 N 0.33757 0.71228 0.86707 0.0
C155 C 0.33225 0.71749 0.85091 0.0
C156 C 0.35455 0.71433 0.87205 0.0
C157 C 0.36145 0.72673 0.84406 0.0
C158 C 0.2758 0.70443 0.92408 0.0
N159 N 0.26995 0.70346 0.90729 0.0
C160 C 0.26881 0.71659 0.93567 0.0
C161 C 0.25578 0.72788 0.92998 0.0
C162 C 0.24991 0.72688 0.91283 0.0
C163 C 0.25718 0.71453 0.90162 0.0
C164 C 0.22786 0.67121 0.88823 0.0
C165 C 0.25435 0.67943 0.86518 0.0
C166 C 0.24435 0.67605 0.89421 0.0
N167 N 0.25734 0.68016 0.88272 0.0
C168 C 0.23802 0.67464 0.85873 0.0
C169 C 0.2247 0.67052 0.87036 0.0
C170 C 0.3012 0.67465 0.86236 0.0
C171 C 0.35094 0.66541 0.90956 0.0
C172 C 0.34394 0.67388 0.87521 0.0
C173 C 0.35515 0.66003 0.87892 0.0
C174 C 0.35864 0.65579 0.89623 0.0
N175 N 0.3364 0.68324 0.88837 0.0
C176 C 0.33981 0.67918 0.90536 0.0
Co177 Co 0.56294 0.0317 0.14511 0.0
Co178 Co 0.54819 0.07225 0.13497 0.0
O179 O 0.55739 0.05561 0.15204 0.0
C180 C 0.58915 0.04117 0.17319 0.0
O181 O 0.58379 0.05738 0.17383 0.0
C182 C 0.52455 0.07639 0.165 0.0
O183 O 0.52281 0.05937 0.16508 0.0
O184 O 0.52834 0.05629 0.13021 0.0
O185 O 0.54354 0.0315 0.12762 0.0
H186 H 0.52209 0.08991 0.07759 0.0
H187 H 0.55524 0.0402 0.18235 0.0
O188 O 0.58254 0.03042 0.16239 0.0
H189 H 0.51381 0.99382 0.16647 0.0
H190 H 0.58098 0.96932 0.15492 0.0
H191 H 0.56573 0.01367 0.11101 0.0
H192 H 0.53509 0.00463 0.14504 0.0
H193 H 0.57306 0.99912 0.16392 0.0
O194 O 0.53434 0.08371 0.1538 0.0
H195 H 0.53436 0.06934 0.09902 0.0
H196 H 0.54112 0.11046 0.13543 0.0
H197 H 0.57345 0.984 0.10146 0.0
H198 H 0.53444 0.02953 0.20425 0.0
H199 H 0.58114 0.96157 0.12349 0.0
H200 H 0.51344 0.00621 0.19637 0.0
O201 O 0.57921 0.04087 0.12728 0.0
H202 H 0.58886 0.10587 0.17375 0.0
H203 H 0.57389 0.09147 0.11294 0.0
H204 H 0.5988 0.11085 0.11892 0.0
H205 H 0.60641 0.1182 0.14951 0.0
H206 H 0.56415 0.0864 0.16718 0.0
H207 H 0.52877 0.13146 0.11446 0.0
H208 H 0.51923 0.12123 0.08527 0.0
O209 O 0.56192 0.06122 0.11554 0.0
C210 C 0.52966 0.04039 0.12573 0.0
C211 C 0.52626 0.09454 0.09024 0.0
C212 C 0.52999 0.11786 0.11094 0.0
N213 N 0.53862 0.08872 0.11838 0.0
C214 C 0.53327 0.08296 0.1024 0.0
C215 C 0.53694 0.1059 0.12277 0.0
C216 C 0.52465 0.11211 0.09457 0.0
C217 C 0.54648 0.02981 0.17887 0.0
N218 N 0.5467 0.02286 0.16248 0.0
C219 C 0.53458 0.02391 0.19131 0.0
C220 C 0.52277 0.01086 0.18688 0.0
C221 C 0.52297 0.0039 0.17011 0.0
C222 C 0.53507 0.0101 0.15803 0.0
C223 C 0.57764 0.97897 0.1452 0.0
C224 C 0.569 0.00398 0.12069 0.0
C225 C 0.57319 0.99589 0.15021 0.0
N226 N 0.56886 0.00814 0.13801 0.0
C227 C 0.57339 0.9872 0.1152 0.0
C228 C 0.57772 0.97463 0.12757 0.0
C229 C 0.57497 0.0509 0.11474 0.0
C230 C 0.58568 0.10275 0.16037 0.0
C231 C 0.57721 0.09446 0.1263 0.0
C232 C 0.59129 0.10551 0.1296 0.0
C233 C 0.59553 0.10965 0.14676 0.0
N234 N 0.56764 0.0877 0.13972 0.0
C235 C 0.57169 0.09175 0.15657 0.0
Co236 Co 0.72241 0.19276 0.61002 0.0
Co237 Co 0.67953 0.20155 0.61645 0.0
O238 O 0.69875 0.19544 0.6009 0.0
C239 C 0.71836 0.16304 0.58509 0.0
O240 O 0.70311 0.15914 0.59178 0.0
C241 C 0.67565 0.22633 0.58739 0.0
O242 O 0.6923 0.22984 0.58916 0.0
O243 O 0.69235 0.22289 0.62391 0.0
O244 O 0.71833 0.21056 0.6286 0.0
H245 H 0.65313 0.22113 0.67306 0.0
H246 H 0.71702 0.2005 0.57249 0.0
O247 O 0.72749 0.17529 0.5915 0.0
H248 H 0.75435 0.24794 0.5945 0.0
H249 H 0.78737 0.18465 0.60497 0.0
H250 H 0.73787 0.19069 0.64546 0.0
H251 H 0.74473 0.22433 0.61401 0.0
H252 H 0.75749 0.18819 0.59375 0.0
O253 O 0.6684 0.21515 0.59725 0.0
H254 H 0.67709 0.21284 0.6533 0.0
H255 H 0.64098 0.20435 0.61222 0.0
H256 H 0.76755 0.18739 0.65721 0.0
H257 H 0.72651 0.22374 0.55242 0.0
H258 H 0.79258 0.18437 0.63691 0.0
H259 H 0.74525 0.24773 0.56342 0.0
O260 O 0.71407 0.17434 0.62615 0.0
H261 H 0.65645 0.15935 0.57206 0.0
H262 H 0.66095 0.17265 0.63477 0.0
H263 H 0.64569 0.146 0.62532 0.0
H264 H 0.64332 0.13923 0.59375 0.0
H265 H 0.67175 0.18578 0.58211 0.0
H266 H 0.61664 0.21272 0.63148 0.0
H267 H 0.62265 0.22111 0.66217 0.0
O268 O 0.69015 0.18785 0.6361 0.0
C269 C 0.70773 0.22321 0.63008 0.0
C270 C 0.65034 0.21746 0.65973 0.0
C271 C 0.62987 0.21276 0.63639 0.0
N272 N 0.66042 0.208 0.63167 0.0
C273 C 0.66385 0.21271 0.6485 0.0
C274 C 0.6437 0.20808 0.62553 0.0
C275 C 0.63324 0.21746 0.6536 0.0
C276 C 0.72531 0.2108 0.57733 0.0
N277 N 0.73031 0.21105 0.59441 0.0
C278 C 0.73059 0.22396 0.56592 0.0
C279 C 0.74109 0.23743 0.57211 0.0
C280 C 0.7462 0.23756 0.58953 0.0
C281 C 0.74067 0.22418 0.60054 0.0
C282 C 0.77657 0.18595 0.61395 0.0
C283 C 0.74866 0.18939 0.63652 0.0
C284 C 0.7596 0.18786 0.60767 0.0
N285 N 0.7459 0.18965 0.61892 0.0
C286 C 0.76546 0.18751 0.64326 0.0
C287 C 0.77949 0.18581 0.63187 0.0
C288 C 0.70213 0.17636 0.63756 0.0
C289 C 0.65735 0.16218 0.58585 0.0
C290 C 0.66006 0.16975 0.62102 0.0
C291 C 0.65135 0.15467 0.61574 0.0
C292 C 0.65001 0.15088 0.59803 0.0
N293 N 0.6672 0.18078 0.60899 0.0
C294 C 0.66595 0.17715 0.59161 0.0
Co295 Co 0.06476 0.46791 0.85853 0.0
Co296 Co 0.04831 0.42761 0.86601 0.0
O297 O 0.05854 0.44466 0.85001 0.0
C298 C 0.09087 0.45918 0.83021 0.0
O299 O 0.08541 0.44301 0.82927 0.0
C300 C 0.0256 0.42514 0.835 0.0
O301 O 0.02409 0.44217 0.83542 0.0
O302 O 0.0288 0.44409 0.87058 0.0
O303 O 0.04524 0.46754 0.8759 0.0
H304 H 0.01954 0.40863 0.92166 0.0
H305 H 0.05708 0.46212 0.8208 0.0
O306 O 0.08448 0.46967 0.84139 0.0
H307 H 0.01712 0.50879 0.83944 0.0
H308 H 0.08501 0.53015 0.85307 0.0
H309 H 0.06752 0.48366 0.8938 0.0
H310 H 0.03788 0.49591 0.86021 0.0
H311 H 0.07626 0.50127 0.84204 0.0
O312 O 0.03488 0.41729 0.84627 0.0
H313 H 0.03324 0.42959 0.90151 0.0
H314 H 0.04011 0.38968 0.8638 0.0
H315 H 0.07609 0.51234 0.90535 0.0
H316 H 0.0368 0.47489 0.79953 0.0
H317 H 0.0849 0.53586 0.88493 0.0
H318 H 0.01653 0.49836 0.8088 0.0
O319 O 0.08049 0.457 0.87586 0.0
H320 H 0.08939 0.39431 0.8274 0.0
H321 H 0.07252 0.40664 0.88816 0.0
H322 H 0.09702 0.38671 0.8823 0.0
H323 H 0.10559 0.3804 0.85173 0.0
H324 H 0.06507 0.41429 0.83386 0.0
H325 H 0.02635 0.36831 0.88347 0.0
H326 H 0.01603 0.37773 0.91266 0.0
O327 O 0.06169 0.43739 0.88636 0.0
C328 C 0.03068 0.45958 0.87617 0.0
C329 C 0.02405 0.40435 0.90899 0.0
C330 C 0.02785 0.38172 0.88755 0.0
N331 N 0.03763 0.41083 0.88158 0.0
C332 C 0.03186 0.41615 0.89755 0.0
C333 C 0.0356 0.39389 0.87646 0.0
C334 C 0.02206 0.38702 0.90393 0.0
C335 C 0.04863 0.47256 0.8249 0.0
N336 N 0.04897 0.47842 0.84171 0.0
C337 C 0.03703 0.47966 0.81281 0.0
C338 C 0.02563 0.49279 0.81802 0.0
C339 C 0.02596 0.49865 0.8352 0.0
C340 C 0.03776 0.49128 0.84691 0.0
C341 C 0.0812 0.52001 0.8621 0.0
C342 C 0.07132 0.49379 0.8848 0.0
C343 C 0.07629 0.5036 0.85593 0.0
N344 N 0.07137 0.49075 0.86725 0.0
C345 C 0.07617 0.51003 0.89143 0.0
C346 C 0.08112 0.52321 0.87997 0.0
C347 C 0.07527 0.4469 0.88797 0.0
C348 C 0.0858 0.39697 0.84078 0.0
C349 C 0.07627 0.4041 0.87483 0.0
C350 C 0.0901 0.39273 0.87159 0.0
C351 C 0.09489 0.38918 0.85443 0.0
N352 N 0.06744 0.41173 0.86136 0.0
C353 C 0.07202 0.40826 0.84452 0.0
Co354 Co 0.7804 0.81521 0.10604 0.0
Co355 Co 0.82038 0.79885 0.11569 0.0
O356 O 0.80389 0.80845 0.09871 0.0
C357 C 0.79032 0.84023 0.07708 0.0
O358 O 0.80644 0.83456 0.07666 0.0
C359 C 0.82299 0.77439 0.08613 0.0
O360 O 0.80592 0.77343 0.08631 0.0
O361 O 0.8036 0.77986 0.12106 0.0
O362 O 0.77982 0.7964 0.12415 0.0
H363 H 0.83774 0.77308 0.17331 0.0
H364 H 0.78755 0.80623 0.06884 0.0
O365 O 0.7795 0.83428 0.08817 0.0
H366 H 0.74003 0.76709 0.08702 0.0
H367 H 0.71859 0.83553 0.09713 0.0
H368 H 0.76335 0.81983 0.14047 0.0
H369 H 0.75228 0.78844 0.1076 0.0
H370 H 0.74781 0.82608 0.08769 0.0
O371 O 0.83091 0.78411 0.09698 0.0
H372 H 0.81742 0.78587 0.15194 0.0
H373 H 0.85823 0.79004 0.11481 0.0
H374 H 0.73428 0.8291 0.15044 0.0
H375 H 0.77541 0.78538 0.04776 0.0
H376 H 0.71164 0.83703 0.12871 0.0
H377 H 0.75152 0.76552 0.0568 0.0
O378 O 0.79072 0.83156 0.12318 0.0
H379 H 0.85515 0.83717 0.07557 0.0
H380 H 0.84115 0.82405 0.1369 0.0
H381 H 0.86155 0.84791 0.1301 0.0
H382 H 0.86871 0.85458 0.09925 0.0
H383 H 0.83468 0.81352 0.08295 0.0
H384 H 0.87897 0.77715 0.13571 0.0
H385 H 0.86877 0.76865 0.16523 0.0
O386 O 0.81031 0.81348 0.135 0.0
C387 C 0.78787 0.78198 0.12588 0.0
C388 C 0.84236 0.77679 0.16051 0.0
C389 C 0.8655 0.77906 0.1394 0.0
N390 N 0.83667 0.78886 0.13223 0.0
C391 C 0.83092 0.78409 0.14838 0.0
C392 C 0.85369 0.78632 0.12762 0.0
C393 C 0.85977 0.77429 0.15597 0.0
C394 C 0.77692 0.79797 0.07282 0.0
N395 N 0.77046 0.79887 0.08939 0.0
C396 C 0.77019 0.78604 0.06084 0.0
C397 C 0.75682 0.77487 0.06594 0.0
C398 C 0.75037 0.77575 0.08288 0.0
C399 C 0.75739 0.78787 0.09449 0.0
C400 C 0.72834 0.8321 0.10673 0.0
C401 C 0.75358 0.82319 0.13091 0.0
C402 C 0.74493 0.82678 0.10147 0.0
N403 N 0.75729 0.82234 0.11351 0.0
C404 C 0.73713 0.82847 0.13665 0.0
C405 C 0.72445 0.83293 0.12444 0.0
C406 C 0.80068 0.82706 0.13569 0.0
C407 C 0.85213 0.8344 0.08907 0.0
C408 C 0.84406 0.82697 0.12343 0.0
C409 C 0.85569 0.84045 0.11967 0.0
C410 C 0.85972 0.84417 0.10236 0.0
N411 N 0.83663 0.81747 0.11031 0.0
C412 C 0.84056 0.82101 0.09332 0.0
Co413 Co 0.44215 0.52789 0.35786 0.0
Co414 Co 0.45281 0.57021 0.36423 0.0
O415 O 0.44648 0.55117 0.34851 0.0
C416 C 0.41367 0.53281 0.33172 0.0
O417 O 0.40981 0.54809 0.33839 0.0
C418 C 0.47845 0.57296 0.33582 0.0
O419 O 0.48118 0.55618 0.33772 0.0
O420 O 0.47332 0.55646 0.37223 0.0
O421 O 0.45927 0.53143 0.37729 0.0
H422 H 0.47242 0.59592 0.42114 0.0
H423 H 0.45226 0.5321 0.32079 0.0
O424 O 0.42546 0.52338 0.33851 0.0
H425 H 0.49616 0.4925 0.34598 0.0
H426 H 0.42984 0.46353 0.3537 0.0
H427 H 0.437 0.5135 0.39343 0.0
H428 H 0.47209 0.50375 0.364 0.0
H429 H 0.43651 0.49274 0.34211 0.0
O430 O 0.46736 0.58073 0.34538 0.0
H431 H 0.46362 0.57226 0.40125 0.0
H432 H 0.45703 0.60861 0.36005 0.0
H433 H 0.43041 0.48452 0.40555 0.0
H434 H 0.476 0.52094 0.30222 0.0
H435 H 0.4268 0.45927 0.38564 0.0
H436 H 0.49822 0.50107 0.31483 0.0
O437 O 0.42337 0.53761 0.37268 0.0
H438 H 0.41268 0.59475 0.31873 0.0
H439 H 0.42419 0.58994 0.38177 0.0
H440 H 0.3984 0.60619 0.3716 0.0
H441 H 0.39254 0.60872 0.33987 0.0
H442 H 0.43824 0.57848 0.32948 0.0
H443 H 0.46593 0.63266 0.37945 0.0
H444 H 0.47362 0.62638 0.41026 0.0
O445 O 0.43822 0.56018 0.38361 0.0
C446 C 0.47261 0.54121 0.37869 0.0
C447 C 0.46904 0.59883 0.40777 0.0
C448 C 0.46541 0.61945 0.38436 0.0
N449 N 0.45963 0.58908 0.37958 0.0
C450 C 0.46398 0.5855 0.39646 0.0
C451 C 0.46042 0.60578 0.37343 0.0
C452 C 0.46972 0.61592 0.40165 0.0
C453 C 0.46178 0.52332 0.32633 0.0
N454 N 0.46079 0.51862 0.34347 0.0
C455 C 0.47523 0.51709 0.31576 0.0
C456 C 0.4877 0.50596 0.32285 0.0
C457 C 0.48656 0.50114 0.34032 0.0
C458 C 0.47292 0.50761 0.35048 0.0
C459 C 0.43139 0.47443 0.36251 0.0
C460 C 0.43549 0.5026 0.38466 0.0
C461 C 0.43511 0.49102 0.35602 0.0
N462 N 0.43719 0.50484 0.36707 0.0
C463 C 0.43174 0.48621 0.39161 0.0
C464 C 0.42969 0.47205 0.38043 0.0
C465 C 0.42588 0.54902 0.3845 0.0
C466 C 0.41513 0.59379 0.33259 0.0
C467 C 0.42169 0.59092 0.36794 0.0
C468 C 0.40709 0.60018 0.36226 0.0
C469 C 0.40381 0.6016 0.34445 0.0
N470 N 0.43274 0.58333 0.35621 0.0
C471 C 0.42961 0.58465 0.33874 0.0
Co472 Co 0.39327 0.22094 0.31627 0.0
Co473 Co 0.3848 0.18058 0.29967 0.0
O474 O 0.40104 0.19752 0.30969 0.0
C475 C 0.42103 0.21081 0.34244 0.0
O476 O 0.42112 0.19462 0.33701 0.0
C477 C 0.41476 0.17928 0.27556 0.0
O478 O 0.41395 0.19635 0.27465 0.0
O479 O 0.37897 0.19731 0.28073 0.0
O480 O 0.37594 0.22145 0.29679 0.0
H481 H 0.32792 0.16141 0.27354 0.0
H482 H 0.43086 0.21399 0.30892 0.0
O483 O 0.41042 0.22186 0.33604 0.0
H484 H 0.41406 0.26126 0.26886 0.0
H485 H 0.40123 0.2827 0.3371 0.0
H486 H 0.35868 0.23806 0.31913 0.0
H487 H 0.39266 0.24895 0.28936 0.0
H488 H 0.41108 0.25349 0.3281 0.0
O489 O 0.40402 0.17092 0.28503 0.0
H490 H 0.34846 0.18234 0.2867 0.0
H491 H 0.38717 0.14294 0.29023 0.0
H492 H 0.34829 0.26714 0.32791 0.0
H493 H 0.45271 0.22616 0.2889 0.0
H494 H 0.36963 0.28971 0.33699 0.0
H495 H 0.44438 0.24993 0.2686 0.0
O496 O 0.37542 0.21063 0.3319 0.0
H497 H 0.42577 0.14647 0.3377 0.0
H498 H 0.36413 0.15883 0.32447 0.0
H499 H 0.37141 0.13831 0.34807 0.0
H500 H 0.40242 0.13196 0.3548 0.0
H501 H 0.41791 0.16709 0.31436 0.0
H502 H 0.36711 0.12162 0.27697 0.0
H503 H 0.33722 0.1308 0.2686 0.0
O504 O 0.36509 0.18979 0.31421 0.0
C505 C 0.37402 0.21303 0.28263 0.0
C506 C 0.3409 0.15724 0.27718 0.0
C507 C 0.3629 0.13491 0.27908 0.0
N508 N 0.36894 0.16384 0.28935 0.0
C509 C 0.35257 0.16902 0.28467 0.0
C510 C 0.37421 0.14705 0.28655 0.0
C511 C 0.34612 0.14007 0.27439 0.0
C512 C 0.42716 0.22456 0.30045 0.0
N513 N 0.41053 0.23093 0.30062 0.0
C514 C 0.43959 0.23131 0.28899 0.0
C515 C 0.43489 0.24462 0.27758 0.0
C516 C 0.41789 0.25097 0.27772 0.0
C517 C 0.40582 0.24392 0.28936 0.0
C518 C 0.3918 0.27298 0.33318 0.0
C519 C 0.36806 0.2478 0.32302 0.0
C520 C 0.3973 0.25638 0.32813 0.0
N521 N 0.38547 0.24404 0.32309 0.0
C522 C 0.3621 0.26425 0.328 0.0
C523 C 0.37407 0.27691 0.33311 0.0
C524 C 0.36359 0.19982 0.32742 0.0
C525 C 0.4122 0.14914 0.33492 0.0
C526 C 0.37766 0.15633 0.32745 0.0
C527 C 0.3817 0.1446 0.34076 0.0
C528 C 0.3991 0.14102 0.34451 0.0
N529 N 0.39059 0.1643 0.31814 0.0
C530 C 0.40767 0.16079 0.32169 0.0
Co531 Co 0.02757 0.14313 0.55898 0.0
Co532 Co 0.06968 0.13539 0.54857 0.0
O533 O 0.05121 0.15172 0.55497 0.0
C534 C 0.03285 0.16899 0.58773 0.0
O535 O 0.04772 0.1617 0.59206 0.0
C536 C 0.07383 0.1639 0.52319 0.0
O537 O 0.05703 0.16274 0.52021 0.0
O538 O 0.05579 0.12814 0.52785 0.0
O539 O 0.03066 0.12366 0.54184 0.0
H540 H 0.09334 0.07777 0.52844 0.0
H541 H 0.03321 0.1801 0.54906 0.0
O542 O 0.02349 0.16258 0.57567 0.0
H543 H 0.99318 0.15647 0.50469 0.0
H544 H 0.96312 0.14945 0.56987 0.0
H545 H 0.01187 0.10807 0.56368 0.0
H546 H 0.00363 0.13799 0.52878 0.0
H547 H 0.99291 0.16008 0.56424 0.0
O548 O 0.08104 0.15395 0.53432 0.0
H549 H 0.0704 0.09845 0.53735 0.0
H550 H 0.10826 0.13813 0.54465 0.0
H551 H 0.98228 0.0969 0.56915 0.0
H552 H 0.02291 0.19915 0.52531 0.0
H553 H 0.95763 0.11764 0.57224 0.0
H554 H 0.00282 0.18733 0.50286 0.0
O555 O 0.03656 0.12784 0.57779 0.0
H556 H 0.09551 0.17948 0.58945 0.0
H557 H 0.08864 0.11681 0.57706 0.0
H558 H 0.10506 0.12608 0.60308 0.0
H559 H 0.10862 0.15762 0.60939 0.0
H560 H 0.07905 0.16963 0.56364 0.0
H561 H 0.1316 0.11794 0.53566 0.0
H562 H 0.1242 0.08749 0.52756 0.0
O563 O 0.05885 0.11629 0.56291 0.0
C564 C 0.04035 0.12214 0.52847 0.0
C565 C 0.09674 0.09098 0.53201 0.0
C566 C 0.11821 0.11353 0.53604 0.0
N567 N 0.08801 0.11941 0.54169 0.0
C568 C 0.08381 0.10273 0.53712 0.0
C569 C 0.10494 0.12492 0.54108 0.0
C570 C 0.11405 0.09645 0.5315 0.0
C571 C 0.02434 0.17491 0.53943 0.0
N572 N 0.01904 0.15793 0.5403 0.0
C573 C 0.0186 0.18574 0.52598 0.0
C574 C 0.00734 0.17909 0.51337 0.0
C575 C 0.00193 0.16179 0.51439 0.0
C576 C 0.00793 0.15136 0.52803 0.0
C577 C 0.97375 0.14028 0.56853 0.0
C578 C 0.00124 0.1172 0.56498 0.0
C579 C 0.99067 0.14622 0.56541 0.0
N580 N 0.00414 0.13471 0.56356 0.0
C581 C 0.9845 0.11079 0.5681 0.0
C582 C 0.97068 0.12243 0.56985 0.0
C583 C 0.04768 0.11573 0.57527 0.0
C584 C 0.09409 0.1657 0.58682 0.0
C585 C 0.09007 0.13056 0.57975 0.0
C586 C 0.09942 0.13573 0.59448 0.0
C587 C 0.10142 0.15343 0.59801 0.0
N588 N 0.08296 0.14268 0.56881 0.0
C589 C 0.08484 0.16005 0.5722 0.0
Co590 Co 0.10456 0.7864 0.81469 0.0
Co591 Co 0.11866 0.82441 0.79702 0.0
O592 O 0.10006 0.81008 0.80674 0.0
C593 C 0.0859 0.78584 0.84847 0.0
O594 O 0.10084 0.78239 0.85608 0.0
C595 C 0.09041 0.82741 0.77126 0.0
O596 O 0.08987 0.81031 0.77109 0.0
O597 O 0.12369 0.80606 0.77936 0.0
O598 O 0.1233 0.78277 0.79692 0.0
H599 H 0.1786 0.83577 0.77329 0.0
H600 H 0.06852 0.79672 0.80513 0.0
O601 O 0.08552 0.7894 0.83227 0.0
H602 H 0.08283 0.7474 0.76651 0.0
H603 H 0.08739 0.72659 0.83581 0.0
H604 H 0.1364 0.76599 0.82268 0.0
H605 H 0.10403 0.75772 0.7883 0.0
H606 H 0.08195 0.75625 0.82475 0.0
O607 O 0.1014 0.8353 0.78085 0.0
H608 H 0.15518 0.81795 0.7862 0.0
H609 H 0.12105 0.86151 0.78574 0.0
H610 H 0.14242 0.73642 0.83365 0.0
H611 H 0.0468 0.78658 0.78375 0.0
H612 H 0.11781 0.71649 0.84031 0.0
H613 H 0.05394 0.76181 0.76417 0.0
O614 O 0.12233 0.79556 0.83119 0.0
H615 H 0.0795 0.86347 0.83206 0.0
H616 H 0.1403 0.84552 0.8215 0.0
H617 H 0.13403 0.86775 0.84384 0.0
H618 H 0.10345 0.87691 0.8492 0.0
H619 H 0.08635 0.84117 0.80994 0.0
H620 H 0.14405 0.87977 0.77266 0.0
H621 H 0.1731 0.86692 0.76643 0.0
O622 O 0.13629 0.81384 0.81317 0.0
C623 C 0.12692 0.79008 0.78244 0.0
C624 C 0.16602 0.84153 0.776 0.0
C625 C 0.14662 0.86622 0.77563 0.0
N626 N 0.13684 0.83873 0.78689 0.0
C627 C 0.15273 0.83152 0.78337 0.0
C628 C 0.13364 0.85581 0.783 0.0
C629 C 0.16292 0.85901 0.77214 0.0
C630 C 0.07164 0.78577 0.79685 0.0
N631 N 0.08751 0.77779 0.79806 0.0
C632 C 0.05932 0.78015 0.78469 0.0
C633 C 0.06334 0.76627 0.77369 0.0
C634 C 0.07955 0.75819 0.77498 0.0
C635 C 0.09153 0.76415 0.78732 0.0
C636 C 0.09822 0.73515 0.83296 0.0
C637 C 0.12561 0.75741 0.82554 0.0
C638 C 0.09523 0.75197 0.82671 0.0
N639 N 0.10885 0.76289 0.82311 0.0
C640 C 0.1291 0.74067 0.83174 0.0
C641 C 0.11529 0.72949 0.83548 0.0
C642 C 0.13571 0.80451 0.82696 0.0
C643 C 0.09289 0.85962 0.82981 0.0
C644 C 0.12695 0.84938 0.8238 0.0
C645 C 0.12348 0.86201 0.83644 0.0
C646 C 0.10632 0.86714 0.83944 0.0
N647 N 0.1137 0.84212 0.81436 0.0
C648 C 0.09684 0.84703 0.81728 0.0
Co649 Co 0.46758 0.85746 0.06536 0.0
Co650 Co 0.42722 0.86564 0.04929 0.0
O651 O 0.44431 0.84924 0.05885 0.0
C652 C 0.45876 0.82829 0.09044 0.0
O653 O 0.44258 0.82768 0.085 0.0
C654 C 0.4251 0.83558 0.02543 0.0
O655 O 0.44215 0.83616 0.0243 0.0
O656 O 0.44367 0.87106 0.03001 0.0
O657 O 0.46721 0.8756 0.04654 0.0
H658 H 0.40812 0.92244 0.02297 0.0
H659 H 0.46185 0.82003 0.05636 0.0
O660 O 0.46935 0.83957 0.08441 0.0
H661 H 0.50827 0.8402 0.01686 0.0
H662 H 0.52986 0.8511 0.08523 0.0
H663 H 0.4834 0.89256 0.06947 0.0
H664 H 0.49547 0.86017 0.03845 0.0
H665 H 0.50094 0.84047 0.07616 0.0
O666 O 0.41699 0.84645 0.03497 0.0
H667 H 0.42913 0.90177 0.03581 0.0
H668 H 0.38931 0.86369 0.04092 0.0
H669 H 0.51214 0.90371 0.07838 0.0
H670 H 0.47455 0.79954 0.03524 0.0
H671 H 0.53564 0.88292 0.08632 0.0
H672 H 0.49788 0.80959 0.01519 0.0
O673 O 0.45671 0.87412 0.08178 0.0
H674 H 0.39388 0.82526 0.08858 0.0
H675 H 0.40623 0.8867 0.07444 0.0
H676 H 0.38627 0.87976 0.09863 0.0
H677 H 0.37995 0.84884 0.10582 0.0
H678 H 0.41391 0.83278 0.0646 0.0
H679 H 0.36791 0.88388 0.028 0.0
H680 H 0.37726 0.91353 0.019 0.0
O681 O 0.43699 0.88543 0.06355 0.0
C682 C 0.45919 0.8765 0.03205 0.0
C683 C 0.40387 0.90959 0.0269 0.0
C684 C 0.38131 0.88794 0.0297 0.0
N685 N 0.41041 0.88162 0.03927 0.0
C686 C 0.41569 0.89785 0.03423 0.0
C687 C 0.39349 0.87655 0.03699 0.0
C688 C 0.38656 0.90457 0.02466 0.0
C689 C 0.47223 0.82446 0.04801 0.0
N690 N 0.47805 0.84125 0.04891 0.0
C691 C 0.47929 0.81281 0.03593 0.0
C692 C 0.49235 0.81846 0.02466 0.0
C693 C 0.49818 0.83562 0.02559 0.0
C694 C 0.49085 0.84688 0.03785 0.0
C695 C 0.51973 0.86028 0.0818 0.0
C696 C 0.49352 0.8834 0.07289 0.0
C697 C 0.50329 0.85435 0.07672 0.0
N698 N 0.49045 0.86587 0.07227 0.0
C699 C 0.50979 0.88981 0.07793 0.0
C700 C 0.52296 0.87814 0.0824 0.0
C701 C 0.4466 0.88645 0.07713 0.0
C702 C 0.39655 0.83878 0.08559 0.0
C703 C 0.4037 0.87321 0.07759 0.0
C704 C 0.39231 0.86936 0.09125 0.0
C705 C 0.38875 0.85202 0.09526 0.0
N706 N 0.41134 0.86014 0.06819 0.0
C707 C 0.40786 0.84312 0.07201 0.0
Co708 Co 0.89236 0.281 0.68505 0.0
Co709 Co 0.88334 0.32022 0.70337 0.0
O710 O 0.89996 0.30419 0.69248 0.0
C711 C 0.92106 0.29159 0.66 0.0
O712 O 0.92191 0.30741 0.6664 0.0
C713 C 0.91398 0.32209 0.72656 0.0
O714 O 0.9139 0.30499 0.72703 0.0
O715 O 0.87877 0.30265 0.7219 0.0
O716 O 0.87489 0.27971 0.70439 0.0
H717 H 0.82673 0.33633 0.73202 0.0
H718 H 0.92979 0.28794 0.69353 0.0
O719 O 0.90964 0.28083 0.66542 0.0
H720 H 0.91291 0.23817 0.73034 0.0
H721 H 0.90043 0.2201 0.66182 0.0
H722 H 0.85776 0.26416 0.68094 0.0
H723 H 0.89163 0.25159 0.71043 0.0
H724 H 0.91025 0.24886 0.67221 0.0
O725 O 0.9026 0.33025 0.7177 0.0
H726 H 0.84762 0.31661 0.7176 0.0
H727 H 0.88448 0.35769 0.71366 0.0
H728 H 0.84741 0.23553 0.67076 0.0
H729 H 0.95149 0.27473 0.71301 0.0
H730 H 0.86881 0.21325 0.6611 0.0
H731 H 0.94311 0.24968 0.73169 0.0
O732 O 0.87468 0.292 0.66972 0.0
H733 H 0.92181 0.35648 0.66475 0.0
H734 H 0.8611 0.34196 0.67995 0.0
H735 H 0.86688 0.36329 0.65664 0.0
H736 H 0.89743 0.3707 0.64892 0.0
H737 H 0.91544 0.3351 0.68787 0.0
H738 H 0.86406 0.37782 0.72818 0.0
H739 H 0.83491 0.36718 0.73739 0.0
O740 O 0.86351 0.31069 0.68912 0.0
C741 C 0.87381 0.28705 0.71924 0.0
C742 C 0.83937 0.34114 0.72801 0.0
C743 C 0.86032 0.36442 0.72587 0.0
N744 N 0.86718 0.33603 0.71464 0.0
C745 C 0.85123 0.33004 0.7198 0.0
C746 C 0.87185 0.35295 0.71769 0.0
C747 C 0.84397 0.35844 0.73104 0.0
C748 C 0.92606 0.27683 0.70125 0.0
N749 N 0.9095 0.27036 0.70045 0.0
C750 C 0.93841 0.26949 0.71243 0.0
C751 C 0.93369 0.25547 0.72295 0.0
C752 C 0.91674 0.24903 0.72221 0.0
C753 C 0.90475 0.2567 0.71088 0.0
C754 C 0.89098 0.2297 0.66599 0.0
C755 C 0.86717 0.25454 0.67682 0.0
C756 C 0.89645 0.24604 0.67184 0.0
N757 N 0.8846 0.25821 0.67722 0.0
C758 C 0.86122 0.23835 0.67104 0.0
C759 C 0.87324 0.22586 0.66561 0.0
C760 C 0.86232 0.3017 0.67514 0.0
C761 C 0.90845 0.35334 0.66798 0.0
C762 C 0.87443 0.34499 0.67657 0.0
C763 C 0.87762 0.35714 0.66341 0.0
C764 C 0.89476 0.36131 0.6591 0.0
N765 N 0.88793 0.3372 0.6852 0.0
C766 C 0.90476 0.34126 0.68108 0.0
Co767 Co 0.96776 0.64249 0.93549 0.0
Co768 Co 0.92869 0.63232 0.95341 0.0
O769 O 0.94452 0.64955 0.94323 0.0
C770 C 0.95701 0.67236 0.91194 0.0
O771 O 0.94173 0.67384 0.91947 0.0
C772 C 0.92612 0.6621 0.97772 0.0
O773 O 0.94321 0.66218 0.97849 0.0
O774 O 0.94627 0.62749 0.97183 0.0
O775 O 0.96925 0.62431 0.95422 0.0
H776 H 0.91341 0.57458 0.98021 0.0
H777 H 0.96046 0.67948 0.94595 0.0
O778 O 0.96765 0.66043 0.91643 0.0
H779 H 0.01059 0.66116 0.98156 0.0
H780 H 0.02842 0.65194 0.91218 0.0
H781 H 0.98493 0.60821 0.93017 0.0
H782 H 0.99737 0.64091 0.96052 0.0
H783 H 0.99962 0.66111 0.92304 0.0
O784 O 0.91824 0.65096 0.96829 0.0
H785 H 0.93284 0.59624 0.96654 0.0
H786 H 0.89115 0.63251 0.96352 0.0
H787 H 0.01361 0.5985 0.9195 0.0
H788 H 0.97353 0.70022 0.96648 0.0
H789 H 0.03561 0.62043 0.91041 0.0
H790 H 0.99876 0.69113 0.98458 0.0
O791 O 0.95687 0.62539 0.91949 0.0
H792 H 0.89215 0.67143 0.91572 0.0
H793 H 0.90735 0.61049 0.92924 0.0
H794 H 0.88607 0.61668 0.90598 0.0
H795 H 0.87831 0.64734 0.89911 0.0
H796 H 0.91347 0.66465 0.93879 0.0
H797 H 0.87131 0.61131 0.9773 0.0
H798 H 0.8824 0.58207 0.98566 0.0
O799 O 0.93862 0.61307 0.93857 0.0
C800 C 0.96195 0.62285 0.96907 0.0
C801 C 0.90841 0.58725 0.97656 0.0
C802 C 0.88478 0.60787 0.97495 0.0
N803 N 0.91309 0.61554 0.96408 0.0
C804 C 0.91933 0.59955 0.96877 0.0
C805 C 0.89609 0.61983 0.96718 0.0
C806 C 0.89101 0.59147 0.97963 0.0
C807 C 0.97168 0.67547 0.95333 0.0
N808 N 0.97835 0.65906 0.95156 0.0
C809 C 0.97893 0.68727 0.96514 0.0
C810 C 0.99305 0.68215 0.97533 0.0
C811 C 0.99969 0.66535 0.97364 0.0
C812 C 0.99213 0.65393 0.96166 0.0
C813 C 0.01895 0.64226 0.91611 0.0
C814 C 0.99443 0.61786 0.9263 0.0
C815 C 0.00259 0.64737 0.92222 0.0
N816 N 0.99059 0.63522 0.9273 0.0
C817 C 0.01065 0.61226 0.92024 0.0
C818 C 0.02298 0.62458 0.91513 0.0
C819 C 0.94747 0.61264 0.92447 0.0
C820 C 0.89543 0.65802 0.91858 0.0
C821 C 0.90416 0.62387 0.92623 0.0
C822 C 0.89204 0.62729 0.9131 0.0
C823 C 0.88768 0.6445 0.90926 0.0
N824 N 0.91173 0.63721 0.9353 0.0
C825 C 0.90749 0.6541 0.93164 0.0
Co826 Co 0.60732 0.71871 0.18392 0.0
Co827 Co 0.6162 0.67762 0.19838 0.0
O828 O 0.59974 0.69494 0.18935 0.0
C829 C 0.57953 0.70972 0.15736 0.0
O830 O 0.57948 0.6933 0.16204 0.0
C831 C 0.5864 0.67495 0.22247 0.0
O832 O 0.58693 0.69198 0.22387 0.0
O833 O 0.62194 0.69337 0.21813 0.0
O834 O 0.62479 0.71835 0.20331 0.0
H835 H 0.67336 0.65763 0.22325 0.0
H836 H 0.56981 0.71126 0.19111 0.0
O837 O 0.59006 0.72052 0.16432 0.0
H838 H 0.58669 0.75646 0.23347 0.0
H839 H 0.59896 0.78141 0.16629 0.0
H840 H 0.64182 0.73606 0.18159 0.0
H841 H 0.60798 0.74536 0.21219 0.0
H842 H 0.58928 0.75174 0.17389 0.0
O843 O 0.59717 0.66705 0.21263 0.0
H844 H 0.65257 0.67904 0.2113 0.0
H845 H 0.61423 0.63952 0.20577 0.0
H846 H 0.65203 0.76559 0.17419 0.0
H847 H 0.54805 0.72226 0.21191 0.0
H848 H 0.63053 0.78852 0.16647 0.0
H849 H 0.55644 0.74497 0.23338 0.0
O850 O 0.62506 0.70928 0.16767 0.0
H851 H 0.57536 0.64517 0.15879 0.0
H852 H 0.63694 0.65748 0.17231 0.0
H853 H 0.62973 0.63817 0.14768 0.0
H854 H 0.59874 0.63186 0.14081 0.0
H855 H 0.58315 0.66459 0.18318 0.0
H856 H 0.63454 0.61771 0.21781 0.0
H857 H 0.66437 0.62671 0.22657 0.0
O858 O 0.63577 0.68777 0.18425 0.0
C859 C 0.62677 0.70917 0.21698 0.0
C860 C 0.66041 0.65353 0.21943 0.0
C861 C 0.63862 0.63113 0.2164 0.0
N862 N 0.63226 0.6605 0.20772 0.0
C863 C 0.6486 0.66559 0.21262 0.0
C864 C 0.62716 0.64355 0.20963 0.0
C865 C 0.65536 0.63619 0.2213 0.0
C866 C 0.57352 0.7214 0.2001 0.0
N867 N 0.59012 0.72783 0.20016 0.0
C868 C 0.56115 0.72748 0.21199 0.0
C869 C 0.56587 0.74019 0.22406 0.0
C870 C 0.58284 0.74664 0.22412 0.0
C871 C 0.59485 0.74027 0.21202 0.0
C872 C 0.60845 0.77153 0.16964 0.0
C873 C 0.63237 0.74596 0.1783 0.0
C874 C 0.60306 0.75468 0.17389 0.0
N875 N 0.61497 0.74215 0.17821 0.0
C876 C 0.63824 0.76266 0.17409 0.0
C877 C 0.62617 0.77552 0.16975 0.0
C878 C 0.63706 0.69845 0.17154 0.0
C879 C 0.58891 0.64783 0.16165 0.0
C880 C 0.62342 0.65497 0.16929 0.0
C881 C 0.61942 0.64394 0.15538 0.0
C882 C 0.60203 0.64038 0.15155 0.0
N883 N 0.61047 0.66229 0.1791 0.0
C884 C 0.5934 0.65879 0.17546 0.0
Co885 Co 0.53241 0.35747 0.43396 0.0
Co886 Co 0.57231 0.36514 0.4515 0.0
O887 O 0.55547 0.34908 0.44099 0.0
C888 C 0.54212 0.32907 0.40833 0.0
O889 O 0.55816 0.32844 0.41418 0.0
C890 C 0.57356 0.33454 0.47473 0.0
O891 O 0.55647 0.33507 0.47525 0.0
O892 O 0.55531 0.37026 0.47036 0.0
O893 O 0.53205 0.37496 0.45341 0.0
H894 H 0.59087 0.42117 0.47982 0.0
H895 H 0.53805 0.31978 0.4419 0.0
O896 O 0.53133 0.34019 0.4143 0.0
H897 H 0.49024 0.33841 0.48049 0.0
H898 H 0.47089 0.35161 0.4117 0.0
H899 H 0.51666 0.39264 0.43035 0.0
H900 H 0.50367 0.35917 0.46006 0.0
H901 H 0.49947 0.34075 0.42158 0.0
O902 O 0.58198 0.3456 0.4657 0.0
H903 H 0.57017 0.40093 0.46585 0.0
H904 H 0.60995 0.36278 0.46094 0.0
H905 H 0.48827 0.40402 0.42063 0.0
H906 H 0.52474 0.29853 0.46183 0.0
H907 H 0.46512 0.38345 0.41123 0.0
H908 H 0.5007 0.30779 0.48141 0.0
O909 O 0.54372 0.37474 0.41845 0.0
H910 H 0.60677 0.32547 0.41243 0.0
H911 H 0.59413 0.38664 0.42747 0.0
H912 H 0.61482 0.38014 0.40377 0.0
H913 H 0.62129 0.34936 0.39613 0.0
H914 H 0.58602 0.33256 0.43593 0.0
H915 H 0.63105 0.38254 0.475 0.0
H916 H 0.62156 0.412 0.48447 0.0
O917 O 0.56311 0.38529 0.43747 0.0
C918 C 0.53986 0.37577 0.46803 0.0
C919 C 0.59518 0.40839 0.47569 0.0
C920 C 0.61773 0.3867 0.473 0.0
N921 N 0.58889 0.38078 0.46242 0.0
C922 C 0.58353 0.3969 0.46772 0.0
C923 C 0.60571 0.37556 0.46507 0.0
C924 C 0.61239 0.40323 0.47831 0.0
C925 C 0.52737 0.32388 0.45003 0.0
N926 N 0.52149 0.34068 0.4495 0.0
C927 C 0.51997 0.31179 0.46145 0.0
C928 C 0.50651 0.317 0.47246 0.0
C929 C 0.50063 0.33417 0.47194 0.0
C930 C 0.50832 0.34588 0.46033 0.0
C931 C 0.48087 0.3607 0.41577 0.0
C932 C 0.50668 0.38358 0.42632 0.0
C933 C 0.49711 0.35463 0.42133 0.0
N934 N 0.50976 0.36604 0.42657 0.0
C935 C 0.49061 0.39012 0.42081 0.0
C936 C 0.47764 0.37857 0.41552 0.0
C937 C 0.55381 0.38683 0.42374 0.0
C938 C 0.60405 0.33893 0.41562 0.0
C939 C 0.59673 0.37321 0.42411 0.0
C940 C 0.60853 0.36961 0.41073 0.0
C941 C 0.61217 0.35234 0.40647 0.0
N942 N 0.58876 0.35998 0.43299 0.0
C943 C 0.59233 0.34303 0.42893 0.0
Co944 Co 0.31208 0.39064 0.21932 0.0
Co945 Co 0.29816 0.38295 0.17801 0.0
O946 O 0.30685 0.39909 0.19578 0.0
C947 C 0.33805 0.41945 0.21199 0.0
O948 O 0.33438 0.41944 0.1953 0.0
C949 C 0.27409 0.41279 0.17545 0.0
O950 O 0.27241 0.41198 0.19245 0.0
O951 O 0.27816 0.37706 0.19344 0.0
O952 O 0.29341 0.37248 0.2178 0.0
H953 H 0.27364 0.32611 0.15676 0.0
H954 H 0.30371 0.42814 0.21342 0.0
O955 O 0.33091 0.40853 0.22226 0.0
H956 H 0.26157 0.40794 0.25746 0.0
H957 H 0.32803 0.39675 0.28275 0.0
H958 H 0.31521 0.35548 0.23522 0.0
H959 H 0.28362 0.38788 0.24561 0.0
H960 H 0.32093 0.40748 0.25332 0.0
O961 O 0.28405 0.40215 0.16754 0.0
H962 H 0.28529 0.34656 0.17866 0.0
H963 H 0.29125 0.38554 0.13984 0.0
H964 H 0.32208 0.34422 0.26448 0.0
H965 H 0.2821 0.44873 0.22516 0.0
H966 H 0.32854 0.36491 0.28851 0.0
H967 H 0.26074 0.43866 0.24729 0.0
O968 O 0.32905 0.37396 0.20931 0.0
H969 H 0.33833 0.42439 0.14713 0.0
H970 H 0.32439 0.36258 0.15767 0.0
H971 H 0.34929 0.37017 0.13886 0.0
H972 H 0.35638 0.40127 0.13344 0.0
H973 H 0.31365 0.41621 0.16602 0.0
H974 H 0.27952 0.36557 0.11755 0.0
H975 H 0.27069 0.33559 0.12595 0.0
O976 O 0.31227 0.3632 0.18799 0.0
C977 C 0.2794 0.37151 0.209 0.0
C978 C 0.27749 0.33912 0.15293 0.0
C979 C 0.28077 0.36128 0.13092 0.0
N980 N 0.28907 0.36717 0.1605 0.0
C981 C 0.28413 0.35074 0.16526 0.0
C982 C 0.28736 0.37254 0.14361 0.0
C983 C 0.27582 0.34446 0.13564 0.0
C984 C 0.29472 0.4237 0.22326 0.0
N985 N 0.29513 0.40684 0.22894 0.0
C986 C 0.2824 0.43541 0.22978 0.0
C987 C 0.27039 0.42975 0.24217 0.0
C988 C 0.27085 0.41253 0.24788 0.0
C989 C 0.28337 0.40121 0.24109 0.0
C990 C 0.32525 0.3876 0.27238 0.0
C991 C 0.31799 0.36459 0.24558 0.0
C992 C 0.32131 0.3936 0.25566 0.0
N993 N 0.31767 0.38213 0.24251 0.0
C994 C 0.32188 0.35812 0.26214 0.0
C995 C 0.32552 0.36974 0.27561 0.0
C996 C 0.32525 0.36202 0.19839 0.0
C997 C 0.33538 0.41079 0.1494 0.0
C998 C 0.32749 0.37614 0.15554 0.0
C999 C 0.34156 0.38036 0.14479 0.0
C1000 C 0.34551 0.39782 0.14174 0.0
N1001 N 0.31764 0.38895 0.16305 0.0
C1002 C 0.32141 0.40608 0.16006 0.0
Co1003 Co 0.80876 0.10797 0.77706 0.0
Co1004 Co 0.79813 0.11467 0.81939 0.0
O1005 O 0.80419 0.09881 0.80041 0.0
C1006 C 0.83656 0.08114 0.78218 0.0
O1007 O 0.84031 0.0876 0.79757 0.0
C1008 C 0.77148 0.0871 0.82193 0.0
O1009 O 0.76888 0.08905 0.80514 0.0
O1010 O 0.77798 0.12336 0.80545 0.0
O1011 O 0.79226 0.12786 0.7805 0.0
H1012 H 0.78065 0.17235 0.84491 0.0
H1013 H 0.7979 0.07111 0.78132 0.0
O1014 O 0.82501 0.08822 0.77265 0.0
H1015 H 0.7541 0.0973 0.74228 0.0
H1016 H 0.82078 0.10288 0.71272 0.0
H1017 H 0.81437 0.1433 0.76223 0.0
H1018 H 0.77872 0.11476 0.75321 0.0
H1019 H 0.81402 0.09175 0.74208 0.0
O1020 O 0.78283 0.09633 0.82974 0.0
H1021 H 0.78899 0.15212 0.82136 0.0
H1022 H 0.79307 0.11062 0.85773 0.0
H1023 H 0.82102 0.15498 0.73309 0.0
H1024 H 0.77362 0.05309 0.77044 0.0
H1025 H 0.82428 0.13471 0.70806 0.0
H1026 H 0.75144 0.06621 0.75086 0.0
O1027 O 0.82789 0.12248 0.78663 0.0
H1028 H 0.83639 0.06777 0.84427 0.0
H1029 H 0.82702 0.13117 0.83963 0.0
H1030 H 0.85223 0.12008 0.85619 0.0
H1031 H 0.85702 0.08817 0.85862 0.0
H1032 H 0.81143 0.07943 0.82769 0.0
H1033 H 0.78461 0.13035 0.88166 0.0
H1034 H 0.77841 0.16148 0.87532 0.0
O1035 O 0.81357 0.13345 0.80959 0.0
C1036 C 0.7789 0.12966 0.79014 0.0
C1037 C 0.78336 0.15882 0.84785 0.0
C1038 C 0.78557 0.13525 0.86847 0.0
N1039 N 0.79163 0.13025 0.83819 0.0
C1040 C 0.78813 0.14732 0.83457 0.0
C1041 C 0.7903 0.12412 0.85486 0.0
C1042 C 0.7821 0.15271 0.8649 0.0
C1043 C 0.78842 0.07686 0.77265 0.0
N1044 N 0.78974 0.09398 0.76794 0.0
C1045 C 0.77465 0.06661 0.76659 0.0
C1046 C 0.76219 0.07399 0.75562 0.0
C1047 C 0.76367 0.09144 0.75081 0.0
C1048 C 0.77762 0.10127 0.7571 0.0
C1049 C 0.81942 0.11184 0.72352 0.0
C1050 C 0.81574 0.13438 0.75144 0.0
C1051 C 0.81566 0.10561 0.74021 0.0
N1052 N 0.81384 0.11685 0.75391 0.0
C1053 C 0.81952 0.14108 0.73495 0.0
C1054 C 0.82136 0.1297 0.72092 0.0
C1055 C 0.82593 0.13405 0.79843 0.0
C1056 C 0.83442 0.0817 0.84334 0.0
C1057 C 0.82906 0.11726 0.84056 0.0
C1058 C 0.84333 0.11106 0.84999 0.0
C1059 C 0.846 0.09316 0.85137 0.0
N1060 N 0.81774 0.10595 0.83274 0.0
C1061 C 0.82028 0.08838 0.83402 0.0
Co1062 Co 0.14134 0.55865 0.02825 0.0
Co1063 Co 0.13455 0.54889 0.07085 0.0
O1064 O 0.15035 0.5547 0.05175 0.0
C1065 C 0.16727 0.58729 0.03313 0.0
O1066 O 0.16015 0.59152 0.0481 0.0
C1067 C 0.16235 0.52263 0.07371 0.0
O1068 O 0.16035 0.51988 0.05695 0.0
O1069 O 0.126 0.5284 0.0574 0.0
O1070 O 0.12182 0.5417 0.03179 0.0
H1071 H 0.07712 0.53136 0.09688 0.0
H1072 H 0.17838 0.54867 0.03314 0.0
O1073 O 0.16079 0.57523 0.0238 0.0
H1074 H 0.15366 0.50381 0.99434 0.0
H1075 H 0.14679 0.56962 0.96375 0.0
H1076 H 0.10606 0.56334 0.01303 0.0
H1077 H 0.13551 0.52815 0.00478 0.0
H1078 H 0.1578 0.56369 0.99335 0.0
O1079 O 0.15306 0.53397 0.08146 0.0
H1080 H 0.0972 0.53938 0.0731 0.0
H1081 H 0.13874 0.54475 0.10927 0.0
H1082 H 0.09451 0.56915 0.98365 0.0
H1083 H 0.19709 0.52468 0.02278 0.0
H1084 H 0.11493 0.57232 0.95874 0.0
H1085 H 0.18471 0.50197 0.00332 0.0
O1086 O 0.1263 0.57763 0.03729 0.0
H1087 H 0.18109 0.58816 0.09482 0.0
H1088 H 0.11778 0.5781 0.09038 0.0
H1089 H 0.12863 0.6038 0.10633 0.0
H1090 H 0.1605 0.60894 0.10867 0.0
H1091 H 0.16967 0.5627 0.07885 0.0
H1092 H 0.11916 0.53662 0.13343 0.0
H1093 H 0.08808 0.52993 0.12731 0.0
O1094 O 0.11559 0.56388 0.06071 0.0
C1095 C 0.11981 0.5288 0.04203 0.0
C1096 C 0.09062 0.53429 0.09972 0.0
C1097 C 0.11422 0.53722 0.12023 0.0
N1098 N 0.11907 0.54266 0.08981 0.0
C1099 C 0.10203 0.53889 0.08632 0.0
C1100 C 0.12525 0.54178 0.1065 0.0
C1101 C 0.09678 0.53348 0.11679 0.0
C1102 C 0.17295 0.53895 0.02452 0.0
N1103 N 0.15586 0.53981 0.0196 0.0
C1104 C 0.18359 0.52535 0.01875 0.0
C1105 C 0.17663 0.5126 0.00785 0.0
C1106 C 0.15922 0.51362 0.00281 0.0
C1107 C 0.14898 0.52741 0.00882 0.0
C1108 C 0.13776 0.56826 0.9745 0.0
C1109 C 0.11505 0.56466 0.00228 0.0
C1110 C 0.14392 0.56497 0.99131 0.0
N1111 N 0.13259 0.56314 0.00494 0.0
C1112 C 0.10842 0.56798 0.98566 0.0
C1113 C 0.11989 0.56977 0.97169 0.0
C1114 C 0.11475 0.57581 0.04912 0.0
C1115 C 0.16718 0.58603 0.09393 0.0
C1116 C 0.13167 0.58028 0.09127 0.0
C1117 C 0.13773 0.59483 0.10036 0.0
C1118 C 0.15562 0.5977 0.10168 0.0
N1119 N 0.1431 0.56888 0.08374 0.0
C1120 C 0.16064 0.57161 0.08496 0.0
Co1121 Co 0.68544 0.89128 0.28068 0.0
Co1122 Co 0.70057 0.88375 0.32149 0.0
O1123 O 0.69122 0.8999 0.30402 0.0
C1124 C 0.65902 0.91944 0.2887 0.0
O1125 O 0.66246 0.91881 0.30542 0.0
C1126 C 0.72411 0.91404 0.32391 0.0
O1127 O 0.72549 0.91344 0.30687 0.0
O1128 O 0.72031 0.87839 0.30555 0.0
O1129 O 0.7043 0.87322 0.28182 0.0
H1130 H 0.727 0.82739 0.34169 0.0
H1131 H 0.69356 0.92883 0.28601 0.0
O1132 O 0.66649 0.90908 0.2781 0.0
H1133 H 0.73502 0.9086 0.2413 0.0
H1134 H 0.66766 0.8967 0.21768 0.0
H1135 H 0.68187 0.85594 0.26524 0.0
H1136 H 0.71332 0.88848 0.25369 0.0
H1137 H 0.67572 0.90775 0.24674 0.0
O1138 O 0.71449 0.90314 0.33188 0.0
H1139 H 0.71443 0.84774 0.32022 0.0
H1140 H 0.70804 0.88612 0.35958 0.0
H1141 H 0.674 0.84437 0.23637 0.0
H1142 H 0.71482 0.94949 0.27371 0.0
H1143 H 0.66683 0.8648 0.21232 0.0
H1144 H 0.73583 0.9394 0.25125 0.0
O1145 O 0.66883 0.87468 0.29132 0.0
H1146 H 0.66019 0.92409 0.35357 0.0
H1147 H 0.67517 0.86267 0.34214 0.0
H1148 H 0.65051 0.86958 0.36154 0.0
H1149 H 0.64291 0.90049 0.36741 0.0
H1150 H 0.68462 0.91659 0.33409 0.0
H1151 H 0.72069 0.86625 0.38144 0.0
H1152 H 0.7302 0.83662 0.37255 0.0
O1153 O 0.68669 0.86375 0.3116 0.0
C1154 C 0.71867 0.87269 0.29008 0.0
C1155 C 0.72285 0.84024 0.34574 0.0
C1156 C 0.71932 0.86206 0.36804 0.0
N1157 N 0.71034 0.86802 0.33868 0.0
C1158 C 0.71567 0.8518 0.33365 0.0
C1159 C 0.7122 0.87327 0.3556 0.0
C1160 C 0.72465 0.84544 0.36305 0.0
C1161 C 0.70242 0.92439 0.27604 0.0
N1162 N 0.70204 0.90748 0.27049 0.0
C1163 C 0.71453 0.93613 0.2692 0.0
C1164 C 0.72634 0.93045 0.25662 0.0
C1165 C 0.72589 0.91319 0.25103 0.0
C1166 C 0.71358 0.90184 0.25813 0.0
C1167 C 0.67075 0.88767 0.22806 0.0
C1168 C 0.67878 0.86494 0.25488 0.0
C1169 C 0.67525 0.89385 0.24457 0.0
N1170 N 0.67927 0.88252 0.25773 0.0
C1171 C 0.67432 0.8583 0.23854 0.0
C1172 C 0.67029 0.86976 0.22505 0.0
C1173 C 0.67333 0.86252 0.3017 0.0
C1174 C 0.66337 0.91058 0.35111 0.0
C1175 C 0.67184 0.87615 0.34448 0.0
C1176 C 0.65791 0.87998 0.35555 0.0
C1177 C 0.65367 0.89733 0.35886 0.0
N1178 N 0.68127 0.88923 0.3369 0.0
C1179 C 0.67722 0.90625 0.34012 0.0
Co1180 Co 0.35621 0.43711 0.53089 0.0
Co1181 Co 0.3649 0.45198 0.57164 0.0
O1182 O 0.34828 0.44305 0.5544 0.0
C1183 C 0.32705 0.41179 0.53925 0.0
O1184 O 0.32661 0.41655 0.55566 0.0
C1185 C 0.33511 0.47608 0.57455 0.0
O1186 O 0.33563 0.4777 0.55753 0.0
O1187 O 0.37052 0.47164 0.55572 0.0
O1188 O 0.37435 0.45592 0.53145 0.0
H1189 H 0.42206 0.47719 0.5912 0.0
H1190 H 0.31893 0.44603 0.53748 0.0
O1191 O 0.33829 0.4182 0.52885 0.0
H1192 H 0.33822 0.4863 0.49135 0.0
H1193 H 0.34909 0.41865 0.46824 0.0
H1194 H 0.3911 0.43308 0.51465 0.0
H1195 H 0.35848 0.4646 0.50351 0.0
H1196 H 0.33881 0.42732 0.49741 0.0
O1197 O 0.34592 0.46621 0.58233 0.0
H1198 H 0.40117 0.46515 0.56994 0.0
H1199 H 0.3632 0.4593 0.60978 0.0
H1200 H 0.40193 0.42456 0.48566 0.0
H1201 H 0.29817 0.4673 0.52546 0.0
H1202 H 0.38086 0.41727 0.46219 0.0
H1203 H 0.30778 0.48772 0.50226 0.0
O1204 O 0.37296 0.42036 0.54111 0.0
H1205 H 0.32423 0.41223 0.60408 0.0
H1206 H 0.38577 0.42604 0.59182 0.0
H1207 H 0.37865 0.40139 0.61114 0.0
H1208 H 0.34769 0.39437 0.61742 0.0
H1209 H 0.33193 0.43667 0.58468 0.0
H1210 H 0.38362 0.47142 0.63144 0.0
H1211 H 0.41332 0.48038 0.62221 0.0
O1212 O 0.38449 0.43782 0.56139 0.0
C1213 C 0.37575 0.47002 0.54008 0.0
C1214 C 0.40918 0.47326 0.5954 0.0
C1215 C 0.3876 0.47004 0.61798 0.0
N1216 N 0.38106 0.46136 0.58865 0.0
C1217 C 0.39732 0.46639 0.58343 0.0
C1218 C 0.37608 0.46322 0.60565 0.0
C1219 C 0.40426 0.47507 0.61279 0.0
C1220 C 0.32316 0.45458 0.52716 0.0
N1221 N 0.33986 0.4538 0.52104 0.0
C1222 C 0.31136 0.46672 0.52049 0.0
C1223 C 0.31677 0.4782 0.50751 0.0
C1224 C 0.33383 0.47741 0.50138 0.0
C1225 C 0.34525 0.46508 0.50834 0.0
C1226 C 0.3584 0.4218 0.47836 0.0
C1227 C 0.38183 0.42998 0.50453 0.0
C1228 C 0.35266 0.42666 0.49493 0.0
N1229 N 0.36433 0.43073 0.50776 0.0
C1230 C 0.38805 0.42514 0.48813 0.0
C1231 C 0.37623 0.42104 0.47497 0.0
C1232 C 0.38534 0.42457 0.55134 0.0
C1233 C 0.33777 0.41515 0.60143 0.0
C1234 C 0.37226 0.42297 0.59433 0.0
C1235 C 0.36831 0.40904 0.60537 0.0
C1236 C 0.35094 0.40512 0.6089 0.0
N1237 N 0.35926 0.43272 0.58702 0.0
C1238 C 0.34221 0.42899 0.59048 0.0
Co1239 Co 0.18604 0.60884 0.72011 0.0
Co1240 Co 0.19962 0.61585 0.67855 0.0
O1241 O 0.19089 0.60004 0.69662 0.0
C1242 C 0.15887 0.58113 0.71314 0.0
O1243 O 0.16153 0.58184 0.69628 0.0
C1244 C 0.22338 0.58577 0.67627 0.0
O1245 O 0.22519 0.58688 0.69324 0.0
O1246 O 0.21982 0.62182 0.6937 0.0
O1247 O 0.20493 0.62674 0.71821 0.0
H1248 H 0.2245 0.67214 0.65628 0.0
H1249 H 0.1934 0.57114 0.71478 0.0
O1250 O 0.16703 0.59125 0.72345 0.0
H1251 H 0.23709 0.5912 0.75739 0.0
H1252 H 0.17075 0.60363 0.78377 0.0
H1253 H 0.18357 0.64422 0.73567 0.0
H1254 H 0.21512 0.61151 0.74578 0.0
H1255 H 0.17742 0.59249 0.75439 0.0
O1256 O 0.21346 0.59635 0.66824 0.0
H1257 H 0.21281 0.65213 0.67856 0.0
H1258 H 0.20622 0.61263 0.64036 0.0
H1259 H 0.17712 0.65589 0.76486 0.0
H1260 H 0.21492 0.5503 0.72631 0.0
H1261 H 0.17065 0.63554 0.78918 0.0
H1262 H 0.23705 0.5603 0.7477 0.0
O1263 O 0.1692 0.62563 0.7101 0.0
H1264 H 0.15887 0.57439 0.64844 0.0
H1265 H 0.17341 0.6362 0.65819 0.0
H1266 H 0.14834 0.62861 0.63959 0.0
H1267 H 0.14096 0.5975 0.63457 0.0
H1268 H 0.1837 0.58257 0.66713 0.0
H1269 H 0.21799 0.63215 0.6177 0.0
H1270 H 0.22715 0.66217 0.6256 0.0
O1271 O 0.1858 0.63588 0.6884 0.0
C1272 C 0.21879 0.62761 0.70918 0.0
C1273 C 0.2205 0.65911 0.65267 0.0
C1274 C 0.21687 0.63665 0.63102 0.0
N1275 N 0.20871 0.63129 0.66074 0.0
C1276 C 0.21383 0.64774 0.66521 0.0
C1277 C 0.21025 0.62565 0.64391 0.0
C1278 C 0.222 0.6535 0.63546 0.0
C1279 C 0.20277 0.57555 0.7243 0.0
N1280 N 0.20287 0.59251 0.72968 0.0
C1281 C 0.21501 0.5637 0.7307 0.0
C1282 C 0.22745 0.56933 0.74267 0.0
C1283 C 0.22748 0.58665 0.74811 0.0
C1284 C 0.21502 0.59811 0.74146 0.0
C1285 C 0.17353 0.61263 0.77327 0.0
C1286 C 0.18078 0.63526 0.74615 0.0
C1287 C 0.17723 0.6064 0.75658 0.0
N1288 N 0.18086 0.61769 0.74327 0.0
C1289 C 0.17713 0.64195 0.76267 0.0
C1290 C 0.17349 0.63053 0.77631 0.0
C1291 C 0.17302 0.63739 0.699 0.0
C1292 C 0.16195 0.58799 0.65053 0.0
C1293 C 0.17018 0.62264 0.65623 0.0
C1294 C 0.15602 0.61842 0.64561 0.0
C1295 C 0.15189 0.60096 0.64277 0.0
N1296 N 0.17996 0.60983 0.66383 0.0
C1297 C 0.17602 0.5927 0.66107 0.0
Co1298 Co 0.64184 0.93606 0.96881 0.0
Co1299 Co 0.63301 0.95145 0.92832 0.0
O1300 O 0.64968 0.9421 0.94527 0.0
C1301 C 0.67016 0.91007 0.95983 0.0
O1302 O 0.66992 0.9145 0.94333 0.0
C1303 C 0.66304 0.97528 0.92523 0.0
O1304 O 0.66288 0.97663 0.94228 0.0
O1305 O 0.62787 0.97102 0.94452 0.0
O1306 O 0.62375 0.95492 0.96842 0.0
H1307 H 0.57593 0.97757 0.90974 0.0
H1308 H 0.67921 0.94439 0.96235 0.0
O1309 O 0.65966 0.91702 0.97065 0.0
H1310 H 0.66021 0.98541 0.00799 0.0
H1311 H 0.64932 0.91793 0.03149 0.0
H1312 H 0.60703 0.9322 0.98528 0.0
H1313 H 0.6398 0.96373 0.99606 0.0
H1314 H 0.65942 0.9261 0.00211 0.0
O1315 O 0.65201 0.96559 0.91753 0.0
H1316 H 0.59693 0.96504 0.9306 0.0
H1317 H 0.63433 0.95917 0.89024 0.0
H1318 H 0.5964 0.92424 0.0145 0.0
H1319 H 0.70016 0.96562 0.97418 0.0
H1320 H 0.61761 0.91705 0.03787 0.0
H1321 H 0.69069 0.98641 0.9971 0.0
O1322 O 0.62492 0.91949 0.95857 0.0
H1323 H 0.67282 0.91159 0.89496 0.0
H1324 H 0.61159 0.926 0.90806 0.0
H1325 H 0.6182 0.90149 0.88837 0.0
H1326 H 0.649 0.89416 0.88167 0.0
H1327 H 0.66563 0.93588 0.91474 0.0
H1328 H 0.6138 0.97179 0.86897 0.0
H1329 H 0.58433 0.98102 0.87867 0.0
O1330 O 0.61337 0.93736 0.93862 0.0
C1331 C 0.62265 0.96924 0.96014 0.0
C1332 C 0.58871 0.97354 0.90534 0.0
C1333 C 0.60997 0.97032 0.88246 0.0
N1334 N 0.61676 0.96122 0.91161 0.0
C1335 C 0.60063 0.96638 0.91708 0.0
C1336 C 0.62155 0.96321 0.89457 0.0
C1337 C 0.59344 0.97549 0.88791 0.0
C1338 C 0.67505 0.95313 0.97254 0.0
N1339 N 0.65832 0.95262 0.97862 0.0
C1340 C 0.68695 0.96524 0.97911 0.0
C1341 C 0.68162 0.97693 0.99194 0.0
C1342 C 0.66454 0.97637 0.99806 0.0
C1343 C 0.65302 0.96406 0.99122 0.0
C1344 C 0.63995 0.92104 0.02142 0.0
C1345 C 0.61636 0.92913 0.99536 0.0
C1346 C 0.64559 0.92562 0.00473 0.0
N1347 N 0.63384 0.92968 0.99196 0.0
C1348 C 0.61025 0.92461 0.01189 0.0
C1349 C 0.62216 0.92056 0.02499 0.0
C1350 C 0.61254 0.9239 0.94841 0.0
C1351 C 0.65935 0.91464 0.89779 0.0
C1352 C 0.62504 0.9228 0.90536 0.0
C1353 C 0.62869 0.90895 0.89412 0.0
C1354 C 0.64598 0.90486 0.89035 0.0
N1355 N 0.63823 0.9323 0.91264 0.0
C1356 C 0.6552 0.9284 0.90895 0.0
Co1357 Co 0.85728 0.06331 0.46911 0.0
Co1358 Co 0.86586 0.04688 0.42899 0.0
O1359 O 0.84934 0.05669 0.44579 0.0
C1360 C 0.82786 0.08823 0.4602 0.0
O1361 O 0.82655 0.08228 0.44423 0.0
C1362 C 0.83571 0.02308 0.42662 0.0
O1363 O 0.83616 0.02179 0.44368 0.0
O1364 O 0.87111 0.02772 0.44565 0.0
O1365 O 0.87521 0.04431 0.46922 0.0
H1366 H 0.92269 0.02006 0.41064 0.0
H1367 H 0.8199 0.05427 0.46267 0.0
O1368 O 0.83961 0.08253 0.47047 0.0
H1369 H 0.83893 0.01554 0.51018 0.0
H1370 H 0.8501 0.0839 0.53106 0.0
H1371 H 0.89216 0.06754 0.48534 0.0
H1372 H 0.85929 0.03674 0.49737 0.0
H1373 H 0.83986 0.0744 0.50214 0.0
O1374 O 0.8467 0.03262 0.41868 0.0
H1375 H 0.9019 0.0332 0.43134 0.0
H1376 H 0.86422 0.03822 0.39112 0.0
H1377 H 0.90294 0.07685 0.5141 0.0
H1378 H 0.79904 0.03356 0.47536 0.0
H1379 H 0.88185 0.08512 0.53722 0.0
H1380 H 0.8085 0.01391 0.49926 0.0
O1381 O 0.87432 0.0795 0.45837 0.0
H1382 H 0.82595 0.08627 0.39519 0.0
H1383 H 0.88722 0.07165 0.40786 0.0
H1384 H 0.88057 0.09573 0.38767 0.0
H1385 H 0.84974 0.10315 0.38118 0.0
H1386 H 0.83319 0.06238 0.41542 0.0
H1387 H 0.88453 0.02499 0.37002 0.0
H1388 H 0.91404 0.01588 0.37973 0.0
O1389 O 0.8856 0.06111 0.43877 0.0
C1390 C 0.87634 0.02979 0.46125 0.0
C1391 C 0.90989 0.02403 0.40623 0.0
C1392 C 0.88847 0.02678 0.38344 0.0
N1393 N 0.88194 0.03664 0.4124 0.0
C1394 C 0.89809 0.03153 0.41788 0.0
C1395 C 0.87702 0.03424 0.39546 0.0
C1396 C 0.90503 0.02168 0.3889 0.0
C1397 C 0.82408 0.04613 0.47331 0.0
N1398 N 0.84076 0.04708 0.47946 0.0
C1399 C 0.81221 0.03426 0.48035 0.0
C1400 C 0.81754 0.02321 0.49373 0.0
C1401 C 0.8346 0.02412 0.49985 0.0
C1402 C 0.84608 0.03617 0.49252 0.0
C1403 C 0.85942 0.08032 0.5211 0.0
C1404 C 0.88288 0.07105 0.49532 0.0
C1405 C 0.8537 0.07498 0.50467 0.0
N1406 N 0.86539 0.07036 0.49204 0.0
C1407 C 0.88907 0.07634 0.51159 0.0
C1408 C 0.87724 0.08099 0.52455 0.0
C1409 C 0.88662 0.07476 0.44825 0.0
C1410 C 0.83943 0.08317 0.39792 0.0
C1411 C 0.87377 0.07489 0.40524 0.0
C1412 C 0.87009 0.0885 0.39372 0.0
C1413 C 0.85279 0.09264 0.39007 0.0
N1414 N 0.86059 0.06567 0.41291 0.0
C1415 C 0.84361 0.06964 0.40936 0.0
H1416 H 0.10914 0.16772 0.5247 0.0
H1417 H 0.12736 0.18712 0.5073 0.0
H1418 H 0.08165 0.20725 0.48156 0.0
H1419 H 0.0632 0.18789 0.49898 0.0
H1420 H 0.12862 0.18724 0.46991 0.0
H1421 H 0.10908 0.2513 0.49751 0.0
H1422 H 0.10533 0.23097 0.50875 0.0
H1423 H 0.09148 0.23729 0.49099 0.0
C1424 C 0.1029 0.17636 0.51545 0.0
C1425 C 0.0847 0.17625 0.5132 0.0
C1426 C 0.11335 0.18742 0.50553 0.0
C1427 C 0.10582 0.19868 0.49331 0.0
C1428 C 0.08766 0.1988 0.49114 0.0
H1429 H 0.14348 0.27042 0.41614 0.0
H1430 H 0.12661 0.25277 0.43645 0.0
C1431 C 0.07716 0.18768 0.50103 0.0
C1432 C 0.11708 0.20964 0.48221 0.0
H1433 H 0.12703 0.25181 0.47236 0.0
C1434 C 0.12839 0.20136 0.47049 0.0
C1435 C 0.11665 0.22802 0.48305 0.0
C1436 C 0.1051 0.23749 0.49584 0.0
C1437 C 0.13902 0.21101 0.45919 0.0
C1438 C 0.13857 0.22942 0.45998 0.0
C1439 C 0.12736 0.23769 0.47184 0.0
C1440 C 0.14908 0.24034 0.44808 0.0
C1441 C 0.1502 0.20142 0.44616 0.0
C1442 C 0.16735 0.23937 0.44807 0.0
C1443 C 0.17708 0.24938 0.43636 0.0
C1444 C 0.16867 0.26063 0.42461 0.0
C1445 C 0.15038 0.26185 0.42497 0.0
C1446 C 0.1407 0.25179 0.4366 0.0
H1447 H 0.14584 0.18773 0.44436 0.0
H1448 H 0.15001 0.20805 0.4333 0.0
H1449 H 0.16386 0.20115 0.45088 0.0
H1450 H 0.17408 0.23087 0.4571 0.0
H1451 H 0.19115 0.24828 0.43651 0.0
H1452 H 0.99926 0.93975 0.68506 0.0
H1453 H 0.01818 0.92346 0.70494 0.0
H1454 H 0.99667 0.87512 0.68599 0.0
H1455 H 0.9776 0.89121 0.66628 0.0
H1456 H 0.99971 0.8769 0.72259 0.0
H1457 H 0.06121 0.89554 0.68912 0.0
H1458 H 0.04762 0.91344 0.69569 0.0
H1459 H 0.04005 0.89854 0.6793 0.0
C1460 C 0.99852 0.92566 0.68516 0.0
C1461 C 0.98703 0.91677 0.674 0.0
C1462 C 0.00939 0.91638 0.69645 0.0
C1463 C 0.00898 0.8981 0.69669 0.0
C1464 C 0.99722 0.88923 0.68591 0.0
H1465 H 0.06489 0.81524 0.7495 0.0
H1466 H 0.04472 0.83247 0.73178 0.0
C1467 C 0.98636 0.89847 0.67464 0.0
C1468 C 0.02091 0.88812 0.70804 0.0
H1469 H 0.06388 0.87911 0.71503 0.0
C1470 C 0.01375 0.87736 0.72096 0.0
C1471 C 0.03919 0.88875 0.7058 0.0
C1472 C 0.04753 0.89956 0.69164 0.0
C1473 C 0.02442 0.86732 0.73189 0.0
C1474 C 0.04269 0.8679 0.72959 0.0
C1475 C 0.04985 0.87873 0.71673 0.0
C1476 C 0.05466 0.85741 0.74043 0.0
C1477 C 0.01609 0.85643 0.74598 0.0
C1478 C 0.06714 0.86574 0.75083 0.0
C1479 C 0.07874 0.85597 0.76084 0.0
C1480 C 0.07813 0.83765 0.76056 0.0
C1481 C 0.06566 0.82932 0.75003 0.0
C1482 C 0.05406 0.83914 0.74 0.0
H1483 H 0.00257 0.86075 0.74883 0.0
H1484 H 0.01556 0.84265 0.74164 0.0
H1485 H 0.02382 0.85699 0.7582 0.0
H1486 H 0.06786 0.87984 0.75125 0.0
H1487 H 0.08819 0.86281 0.7688 0.0
H1488 H 0.31187 0.7493 0.93783 0.0
H1489 H 0.3296 0.7667 0.95792 0.0
H1490 H 0.3762 0.74252 0.93793 0.0
H1491 H 0.35874 0.72524 0.91777 0.0
H1492 H 0.35423 0.75554 0.98393 0.0
H1493 H 0.38502 0.79524 0.93178 0.0
H1494 H 0.36568 0.78236 0.92813 0.0
H1495 H 0.3867 0.77208 0.92883 0.0
C1496 C 0.32589 0.74767 0.93773 0.0
C1497 C 0.3339 0.73602 0.92608 0.0
C1498 C 0.33597 0.75759 0.94922 0.0
C1499 C 0.35419 0.75607 0.94916 0.0
C1500 C 0.36218 0.74411 0.93792 0.0
H1501 H 0.43761 0.81061 0.00317 0.0
H1502 H 0.42061 0.79014 0.98552 0.0
C1503 C 0.35214 0.7342 0.92645 0.0
C1504 C 0.36494 0.7671 0.96073 0.0
H1505 H 0.39596 0.79895 0.96036 0.0
C1506 C 0.36333 0.76507 0.97882 0.0
C1507 C 0.37682 0.77944 0.95396 0.0
C1508 C 0.37861 0.78257 0.93462 0.0
C1509 C 0.37348 0.77497 0.99037 0.0
C1510 C 0.38529 0.78739 0.98359 0.0
C1511 C 0.38695 0.78934 0.9655 0.0
C1512 C 0.39559 0.79902 0.99501 0.0
C1513 C 0.37168 0.77185 0.0097 0.0
C1514 C 0.38712 0.81081 0.0061 0.0
C1515 C 0.39675 0.82247 0.01617 0.0
C1516 C 0.41506 0.82268 0.01524 0.0
C1517 C 0.42353 0.81077 0.00419 0.0
C1518 C 0.41386 0.79908 0.99411 0.0
H1519 H 0.36602 0.75882 0.0125 0.0
H1520 H 0.38448 0.77289 0.01637 0.0
H1521 H 0.36284 0.78183 0.01531 0.0
H1522 H 0.37302 0.81123 0.00669 0.0
H1523 H 0.38979 0.8315 0.02449 0.0
H1524 H 0.50161 0.06573 0.19021 0.0
H1525 H 0.48443 0.08419 0.2098 0.0
H1526 H 0.50826 0.13002 0.18773 0.0
H1527 H 0.52533 0.11181 0.16804 0.0
H1528 H 0.49602 0.10969 0.2347 0.0
H1529 H 0.45544 0.13867 0.18214 0.0
H1530 H 0.46827 0.11921 0.17895 0.0
H1531 H 0.47856 0.14023 0.17887 0.0
C1532 C 0.50321 0.07973 0.18954 0.0
C1533 C 0.51471 0.0873 0.17745 0.0
C1534 C 0.49341 0.09024 0.20075 0.0
C1535 C 0.49491 0.10845 0.19998 0.0
C1536 C 0.5067 0.11601 0.18827 0.0
H1537 H 0.43921 0.19223 0.25294 0.0
H1538 H 0.46001 0.17557 0.23532 0.0
C1539 C 0.51648 0.10555 0.17708 0.0
C1540 C 0.48405 0.11958 0.21134 0.0
H1541 H 0.45177 0.15016 0.21048 0.0
C1542 C 0.48632 0.11854 0.22944 0.0
C1543 C 0.4715 0.13115 0.20437 0.0
C1544 C 0.46813 0.13234 0.18503 0.0
C1545 C 0.47641 0.12887 0.24081 0.0
C1546 C 0.46371 0.14027 0.23386 0.0
C1547 C 0.46158 0.14145 0.21574 0.0
C1548 C 0.45185 0.15044 0.24515 0.0
C1549 C 0.47975 0.12762 0.26015 0.0
C1550 C 0.44034 0.14179 0.25638 0.0
C1551 C 0.42848 0.15122 0.26641 0.0
C1552 C 0.42781 0.16951 0.26531 0.0
C1553 C 0.43942 0.17817 0.2541 0.0
C1554 C 0.4513 0.16869 0.24403 0.0
H1555 H 0.49295 0.12237 0.26295 0.0
H1556 H 0.47843 0.14055 0.26652 0.0
H1557 H 0.47006 0.11866 0.26607 0.0
H1558 H 0.44028 0.1277 0.25714 0.0
H1559 H 0.4197 0.14411 0.27487 0.0
H1560 H 0.64066 0.22336 0.5818 0.0
H1561 H 0.62278 0.23976 0.56123 0.0
H1562 H 0.6684 0.26714 0.54318 0.0
H1563 H 0.6865 0.2507 0.56368 0.0
H1564 H 0.61954 0.27659 0.56049 0.0
H1565 H 0.64448 0.25018 0.49788 0.0
H1566 H 0.64786 0.2393 0.51849 0.0
H1567 H 0.66096 0.25781 0.51268 0.0
C1568 C 0.64695 0.23276 0.57337 0.0
C1569 C 0.66502 0.23575 0.57439 0.0
C1570 C 0.6367 0.24211 0.56163 0.0
C1571 C 0.64431 0.2545 0.55059 0.0
C1572 C 0.66234 0.25741 0.55141 0.0
H1573 H 0.60881 0.33132 0.47773 0.0
H1574 H 0.62501 0.31103 0.49602 0.0
C1575 C 0.67264 0.24808 0.56319 0.0
C1576 C 0.63321 0.26502 0.5389 0.0
H1577 H 0.62584 0.27484 0.49618 0.0
C1578 C 0.62079 0.27613 0.54642 0.0
C1579 C 0.63494 0.26435 0.52059 0.0
C1580 C 0.64767 0.25217 0.51186 0.0
C1581 C 0.61036 0.28702 0.5361 0.0
C1582 C 0.61218 0.28647 0.51777 0.0
C1583 C 0.62445 0.27518 0.51024 0.0
C1584 C 0.60211 0.29816 0.50622 0.0
C1585 C 0.59793 0.29944 0.54494 0.0
C1586 C 0.58383 0.29743 0.50567 0.0
C1587 C 0.57447 0.30911 0.49528 0.0
C1588 C 0.58327 0.3216 0.48517 0.0
C1589 C 0.6016 0.32192 0.48541 0.0
C1590 C 0.61091 0.31031 0.49582 0.0
H1591 H 0.60103 0.30111 0.55898 0.0
H1592 H 0.59822 0.31243 0.53857 0.0
H1593 H 0.58448 0.29425 0.54392 0.0
H1594 H 0.57682 0.28789 0.51335 0.0
H1595 H 0.56037 0.30843 0.49526 0.0
H1596 H 0.94053 0.30955 0.74694 0.0
H1597 H 0.96141 0.32655 0.76411 0.0
H1598 H 0.93766 0.37418 0.74608 0.0
H1599 H 0.91698 0.35743 0.72874 0.0
H1600 H 0.97421 0.37477 0.74525 0.0
H1601 H 0.94889 0.35234 0.80932 0.0
H1602 H 0.95518 0.33525 0.79461 0.0
H1603 H 0.93709 0.34911 0.78924 0.0
C1604 C 0.93977 0.32364 0.74662 0.0
C1605 C 0.927 0.33213 0.73659 0.0
C1606 C 0.95166 0.33332 0.75648 0.0
C1607 C 0.95088 0.35159 0.75654 0.0
C1608 C 0.93842 0.36008 0.74624 0.0
H1609 H 0.00215 0.4366 0.81057 0.0
H1610 H 0.98487 0.41873 0.79053 0.0
C1611 C 0.92658 0.35046 0.73638 0.0
C1612 C 0.96284 0.36199 0.7675 0.0
H1613 H 0.9737 0.3705 0.80975 0.0
C1614 C 0.97414 0.37385 0.75936 0.0
C1615 C 0.96261 0.36078 0.78588 0.0
C1616 C 0.9502 0.34881 0.79534 0.0
C1617 C 0.98539 0.38444 0.76914 0.0
C1618 C 0.9851 0.38326 0.78752 0.0
C1619 C 0.97388 0.37133 0.79564 0.0
C1620 C 0.9963 0.39427 0.79869 0.0
C1621 C 0.99766 0.39659 0.75976 0.0
C1622 C 0.00831 0.3864 0.80996 0.0
C1623 C 0.01808 0.39652 0.82146 0.0
C1624 C 0.01595 0.41472 0.82199 0.0
C1625 C 0.00412 0.42262 0.81045 0.0
C1626 C 0.99432 0.41245 0.79893 0.0
H1627 H 0.99935 0.39285 0.74587 0.0
H1628 H 0.99229 0.41001 0.76016 0.0
H1629 H 0.01065 0.39677 0.76614 0.0
H1630 H 0.00999 0.37238 0.80999 0.0
H1631 H 0.02712 0.38999 0.83012 0.0
H1632 H 0.81092 0.75165 0.06136 0.0
H1633 H 0.82827 0.73331 0.04182 0.0
H1634 H 0.87552 0.75461 0.06354 0.0
H1635 H 0.85839 0.77311 0.08291 0.0
H1636 H 0.87568 0.75251 0.02697 0.0
H1637 H 0.85561 0.69001 0.05754 0.0
H1638 H 0.83794 0.70363 0.05047 0.0
H1639 H 0.85194 0.71085 0.06779 0.0
C1640 C 0.825 0.75245 0.06196 0.0
C1641 C 0.83327 0.76374 0.07379 0.0
C1642 C 0.83488 0.74192 0.05085 0.0
C1643 C 0.85316 0.74243 0.05146 0.0
C1644 C 0.86142 0.75397 0.06294 0.0
H1645 H 0.93796 0.68725 0.00019 0.0
H1646 H 0.92041 0.70736 0.01771 0.0
C1647 C 0.85159 0.76451 0.07402 0.0
C1648 C 0.86375 0.73087 0.04025 0.0
H1649 H 0.873 0.68814 0.03216 0.0
C1650 C 0.87513 0.73843 0.02809 0.0
C1651 C 0.86303 0.71253 0.04184 0.0
C1652 C 0.8516 0.70372 0.05521 0.0
C1653 C 0.88563 0.7281 0.01725 0.0
C1654 C 0.88489 0.70977 0.01884 0.0
C1655 C 0.87351 0.70221 0.03099 0.0
C1656 C 0.89564 0.69809 0.00789 0.0
C1657 C 0.89717 0.73687 0.00395 0.0
C1658 C 0.88751 0.68608 0.9968 0.0
C1659 C 0.89746 0.67454 0.9869 0.0
C1660 C 0.91576 0.67471 0.98796 0.0
C1661 C 0.9239 0.68682 0.99904 0.0
C1662 C 0.91391 0.69838 0.00897 0.0
H1663 H 0.89314 0.75056 0.00153 0.0
H1664 H 0.91078 0.73701 0.00883 0.0
H1665 H 0.89697 0.72966 0.9914 0.0
H1666 H 0.87343 0.68562 0.99584 0.0
H1667 H 0.89075 0.6654 0.97849 0.0
H1668 H 0.58317 0.63958 0.22357 0.0
H1669 H 0.56346 0.62241 0.24166 0.0
H1670 H 0.54167 0.66957 0.26304 0.0
H1671 H 0.56132 0.68698 0.24488 0.0
H1672 H 0.56216 0.62389 0.27882 0.0
H1673 H 0.49859 0.64031 0.24817 0.0
H1674 H 0.51917 0.64373 0.23727 0.0
H1675 H 0.51212 0.65854 0.25396 0.0
C1676 C 0.5741 0.64635 0.232 0.0
C1677 C 0.57383 0.66467 0.23281 0.0
C1678 C 0.56286 0.6365 0.24232 0.0
C1679 C 0.55104 0.64474 0.25353 0.0
C1680 C 0.55054 0.663 0.25425 0.0
H1681 H 0.47763 0.6081 0.33047 0.0
H1682 H 0.49527 0.62509 0.31019 0.0
C1683 C 0.56183 0.67291 0.24394 0.0
C1684 C 0.53993 0.63413 0.26512 0.0
H1685 H 0.49769 0.62363 0.27413 0.0
C1686 C 0.54806 0.62375 0.27778 0.0
C1687 C 0.52158 0.63408 0.2637 0.0
C1688 C 0.51228 0.64464 0.24997 0.0
C1689 C 0.53829 0.61349 0.2893 0.0
C1690 C 0.51992 0.61334 0.28782 0.0
C1691 C 0.51178 0.62373 0.27516 0.0
C1692 C 0.5089 0.6028 0.29961 0.0
C1693 C 0.54769 0.60326 0.30322 0.0
C1694 C 0.51052 0.58459 0.30015 0.0
C1695 C 0.50052 0.57481 0.31181 0.0
C1696 C 0.48863 0.5831 0.323 0.0
C1697 C 0.48672 0.60131 0.32207 0.0
C1698 C 0.49676 0.61105 0.31047 0.0
H1699 H 0.56112 0.60822 0.30539 0.0
H1700 H 0.5405 0.60376 0.31577 0.0
H1701 H 0.54867 0.58943 0.29913 0.0
H1702 H 0.51957 0.57795 0.29159 0.0
H1703 H 0.50217 0.5608 0.31209 0.0
H1704 H 0.27365 0.41669 0.14013 0.0
H1705 H 0.25584 0.43668 0.12299 0.0
H1706 H 0.23351 0.45752 0.17016 0.0
H1707 H 0.25139 0.43757 0.18753 0.0
H1708 H 0.21863 0.43788 0.12382 0.0
H1709 H 0.24883 0.50118 0.14201 0.0
H1710 H 0.25972 0.48055 0.14523 0.0
H1711 H 0.24276 0.48729 0.15987 0.0
C1712 C 0.26507 0.42561 0.14691 0.0
C1713 C 0.26391 0.42552 0.16521 0.0
C1714 C 0.25491 0.43701 0.13708 0.0
C1715 C 0.24351 0.44864 0.14533 0.0
C1716 C 0.24245 0.44879 0.16359 0.0
H1717 H 0.16724 0.52282 0.10893 0.0
H1718 H 0.18723 0.50481 0.12587 0.0
C1719 C 0.2526 0.43734 0.17347 0.0
C1720 C 0.2321 0.45993 0.13472 0.0
H1721 H 0.22315 0.50235 0.12493 0.0
C1722 C 0.21964 0.45198 0.12398 0.0
C1723 C 0.23347 0.47828 0.13507 0.0
C1724 C 0.24699 0.4874 0.14605 0.0
C1725 C 0.20826 0.46192 0.11373 0.0
C1726 C 0.20968 0.4803 0.11397 0.0
C1727 C 0.22216 0.48825 0.12473 0.0
C1728 C 0.19803 0.4915 0.10348 0.0
C1729 C 0.19452 0.45269 0.1031 0.0
C1730 C 0.1977 0.49019 0.08524 0.0
C1731 C 0.18619 0.50039 0.07549 0.0
C1732 C 0.17496 0.5122 0.08384 0.0
C1733 C 0.17568 0.51381 0.10209 0.0
C1734 C 0.18711 0.50355 0.11181 0.0
H1735 H 0.19228 0.43918 0.1078 0.0
H1736 H 0.18196 0.45986 0.10348 0.0
H1737 H 0.19887 0.45193 0.08933 0.0
H1738 H 0.20631 0.48123 0.07855 0.0
H1739 H 0.18607 0.49898 0.06145 0.0
H1740 H 0.66581 0.97608 0.88981 0.0
H1741 H 0.68542 0.99387 0.87222 0.0
H1742 H 0.70794 0.01554 0.91891 0.0
H1743 H 0.68839 0.99767 0.93674 0.0
H1744 H 0.6871 0.03088 0.87306 0.0
H1745 H 0.75057 9e-05 0.88949 0.0
H1746 H 0.72994 0.98944 0.89335 0.0
H1747 H 0.73733 0.0063 0.90779 0.0
C1748 C 0.67501 0.98452 0.89639 0.0
C1749 C 0.67553 0.98548 0.9147 0.0
C1750 C 0.6862 0.99467 0.8863 0.0
C1751 C 0.6982 0.00586 0.89428 0.0
C1752 C 0.69893 0.00675 0.91253 0.0
H1753 H 0.77197 0.08193 0.8571 0.0
H1754 H 0.75406 0.06189 0.87406 0.0
C1755 C 0.6877 0.99661 0.92268 0.0
C1756 C 0.70931 0.01723 0.88341 0.0
H1757 H 0.75155 0.02597 0.87268 0.0
C1758 C 0.70119 0.02978 0.87289 0.0
C1759 C 0.72766 0.01573 0.8833 0.0
C1760 C 0.73695 0.00208 0.89396 0.0
C1761 C 0.71097 0.04116 0.86247 0.0
C1762 C 0.72934 0.03964 0.86231 0.0
C1763 C 0.73746 0.02704 0.8728 0.0
C1764 C 0.7404 0.05139 0.85176 0.0
C1765 C 0.70159 0.05499 0.85211 0.0
C1766 C 0.73883 0.05193 0.83354 0.0
C1767 C 0.74899 0.06346 0.82376 0.0
C1768 C 0.76099 0.07453 0.83206 0.0
C1769 C 0.7628 0.07363 0.85028 0.0
C1770 C 0.75261 0.06217 0.86002 0.0
H1771 H 0.68815 0.0572 0.85703 0.0
H1772 H 0.70878 0.06754 0.85252 0.0
H1773 H 0.70064 0.05078 0.83831 0.0
H1774 H 0.72973 0.04343 0.82688 0.0
H1775 H 0.7474 0.06373 0.80974 0.0
H1776 H 0.74635 0.93917 0.31171 0.0
H1777 H 0.7642 0.95922 0.32897 0.0
H1778 H 0.74291 0.93768 0.3763 0.0
H1779 H 0.72486 0.91783 0.35926 0.0
H1780 H 0.74481 0.97415 0.3764 0.0
H1781 H 0.80751 0.94393 0.35638 0.0
H1782 H 0.79391 0.95093 0.33866 0.0
H1783 H 0.78673 0.93358 0.35265 0.0
C1784 C 0.74542 0.93874 0.32579 0.0
C1785 C 0.73431 0.9268 0.33411 0.0
C1786 C 0.75568 0.95014 0.33562 0.0
C1787 C 0.75507 0.9497 0.3539 0.0
C1788 C 0.74362 0.93816 0.36221 0.0
H1789 H 0.81066 0.00055 0.43856 0.0
H1790 H 0.79027 0.98329 0.42106 0.0
C1791 C 0.73335 0.9268 0.35243 0.0
C1792 C 0.76654 0.96102 0.36445 0.0
H1793 H 0.80922 0.96938 0.37366 0.0
C1794 C 0.7589 0.97313 0.37584 0.0
C1795 C 0.7849 0.95954 0.36372 0.0
C1796 C 0.79379 0.9462 0.35232 0.0
C1797 C 0.76917 0.98402 0.38635 0.0
C1798 C 0.78751 0.98255 0.38557 0.0
C1799 C 0.79514 0.97046 0.37418 0.0
C1800 C 0.79913 0.99353 0.39631 0.0
C1801 C 0.76035 0.99721 0.39796 0.0
C1802 C 0.81093 0.00481 0.38816 0.0
C1803 C 0.82261 0.01458 0.39807 0.0
C1804 C 0.82279 0.01316 0.41635 0.0
C1805 C 0.81083 0.00196 0.42452 0.0
C1806 C 0.79911 0.99217 0.41455 0.0
H1807 H 0.74658 0.99944 0.39409 0.0
H1808 H 0.76046 0.99238 0.41158 0.0
H1809 H 0.76739 0.00985 0.39764 0.0
H1810 H 0.81117 0.00598 0.37409 0.0
H1811 H 0.83163 0.0231 0.39134 0.0
H1812 H 0.22322 0.58084 0.64106 0.0
H1813 H 0.24091 0.56054 0.62421 0.0
H1814 H 0.26384 0.54088 0.6716 0.0
H1815 H 0.24631 0.56139 0.68866 0.0
H1816 H 0.2881 0.54977 0.64621 0.0
H1817 H 0.23621 0.50792 0.61827 0.0
H1818 H 0.23281 0.53078 0.61471 0.0
H1819 H 0.23245 0.52226 0.63654 0.0
C1820 C 0.23189 0.5721 0.64795 0.0
C1821 C 0.23338 0.57274 0.66622 0.0
C1822 C 0.24191 0.56041 0.63828 0.0
C1823 C 0.25347 0.54904 0.64668 0.0
C1824 C 0.25488 0.5495 0.66491 0.0
H1825 H 0.33108 0.47581 0.60986 0.0
H1826 H 0.31094 0.49317 0.62728 0.0
C1827 C 0.24487 0.56121 0.67462 0.0
C1828 C 0.2649 0.53749 0.63631 0.0
H1829 H 0.26458 0.505 0.60591 0.0
C1830 C 0.28298 0.53987 0.63752 0.0
C1831 C 0.25813 0.52469 0.62491 0.0
C1832 C 0.23885 0.52111 0.62361 0.0
C1833 C 0.29451 0.53001 0.62735 0.0
C1834 C 0.28774 0.51728 0.61588 0.0
C1835 C 0.26967 0.51483 0.6147 0.0
C1836 C 0.29932 0.50623 0.60518 0.0
C1837 C 0.31381 0.53355 0.62866 0.0
C1838 C 0.29906 0.50749 0.58694 0.0
C1839 C 0.31055 0.49754 0.57689 0.0
C1840 C 0.32239 0.48612 0.58495 0.0
C1841 C 0.32223 0.48458 0.60323 0.0
C1842 C 0.31078 0.49453 0.61323 0.0
H1843 H 0.31654 0.54636 0.63484 0.0
H1844 H 0.31999 0.52328 0.63674 0.0
H1845 H 0.32 0.53329 0.61558 0.0
H1846 H 0.2902 0.51642 0.58053 0.0
H1847 H 0.31028 0.49895 0.56285 0.0
H1848 H 0.32646 0.39572 0.50774 0.0
H1849 H 0.30109 0.38457 0.49227 0.0
H1850 H 0.26888 0.3947 0.53716 0.0
H1851 H 0.29439 0.40605 0.5529 0.0
H1852 H 0.26299 0.3611 0.51835 0.0
H1853 H 0.26192 0.41913 0.47551 0.0
H1854 H 0.28316 0.40947 0.47736 0.0
H1855 H 0.273 0.41883 0.49629 0.0
C1856 C 0.31406 0.39539 0.51447 0.0
C1857 C 0.31241 0.40195 0.53149 0.0
C1858 C 0.29956 0.38909 0.50557 0.0
C1859 C 0.28309 0.38924 0.51345 0.0
C1860 C 0.28149 0.39469 0.53083 0.0
H1861 H 0.20317 0.36582 0.43399 0.0
H1862 H 0.21461 0.37971 0.46059 0.0
C1863 C 0.29608 0.40104 0.53982 0.0
C1864 C 0.26771 0.38411 0.50303 0.0
H1865 H 0.24794 0.3933 0.46431 0.0
C1866 C 0.25934 0.36832 0.50676 0.0
C1867 C 0.26269 0.39377 0.48816 0.0
C1868 C 0.27053 0.41135 0.48416 0.0
C1869 C 0.24723 0.36115 0.49507 0.0
C1870 C 0.24368 0.36991 0.47922 0.0
C1871 C 0.25079 0.3865 0.47636 0.0
C1872 C 0.23531 0.36092 0.46432 0.0
C1873 C 0.23895 0.34387 0.49941 0.0
C1874 C 0.24327 0.34596 0.45756 0.0
C1875 C 0.23696 0.3382 0.44246 0.0
C1876 C 0.22253 0.34525 0.43361 0.0
C1877 C 0.2143 0.3601 0.44051 0.0
C1878 C 0.22077 0.368 0.4557 0.0
H1879 H 0.23761 0.34222 0.51374 0.0
H1880 H 0.2259 0.34256 0.49329 0.0
H1881 H 0.24741 0.3332 0.49455 0.0
H1882 H 0.25478 0.34054 0.46369 0.0
H1883 H 0.2436 0.32672 0.43762 0.0
H1884 H 0.90589 0.94654 0.70187 0.0
H1885 H 0.89443 0.96208 0.72743 0.0
H1886 H 0.88294 0.00662 0.69517 0.0
H1887 H 0.89432 0.99136 0.66977 0.0
H1888 H 0.90495 0.0128 0.72591 0.0
H1889 H 0.84312 0.97749 0.74038 0.0
H1890 H 0.86279 0.96522 0.73659 0.0
H1891 H 0.85288 0.97689 0.71896 0.0
C1892 C 0.90052 0.95948 0.70018 0.0
C1893 C 0.90107 0.96776 0.68382 0.0
C1894 C 0.89406 0.96835 0.71479 0.0
C1895 C 0.88796 0.98551 0.71316 0.0
C1896 C 0.88771 0.99341 0.6967 0.0
H1897 H 0.82752 0.06258 0.75349 0.0
H1898 H 0.84168 0.03712 0.74135 0.0
C1899 C 0.89416 0.98464 0.68218 0.0
C1900 C 0.88272 0.99593 0.7285 0.0
H1901 H 0.84825 0.00361 0.75546 0.0
C1902 C 0.89275 0.01063 0.73272 0.0
C1903 C 0.86687 0.99292 0.73733 0.0
C1904 C 0.85567 0.97732 0.73316 0.0
C1905 C 0.88672 0.02313 0.74462 0.0
C1906 C 0.87031 0.02071 0.75263 0.0
C1907 C 0.86087 0.00536 0.74935 0.0
C1908 C 0.8613 0.0353 0.76148 0.0
C1909 C 0.89729 0.03947 0.74746 0.0
C1910 C 0.86755 0.0427 0.77704 0.0
C1911 C 0.85946 0.05754 0.78408 0.0
C1912 C 0.8451 0.06513 0.77559 0.0
C1913 C 0.83869 0.05729 0.7603 0.0
C1914 C 0.84668 0.04258 0.75337 0.0
H1915 H 0.90894 0.04004 0.7389 0.0
H1916 H 0.88916 0.05118 0.74499 0.0
H1917 H 0.90173 0.04 0.76121 0.0
H1918 H 0.87875 0.03716 0.78358 0.0
H1919 H 0.86461 0.06319 0.79595 0.0
H1920 H 0.25707 0.64532 0.92108 0.0
H1921 H 0.24139 0.63448 0.94646 0.0
H1922 H 0.2857 0.64579 0.97908 0.0
H1923 H 0.30167 0.65677 0.95357 0.0
H1924 H 0.26785 0.6127 0.98601 0.0
H1925 H 0.22295 0.66909 0.98415 0.0
H1926 H 0.22509 0.65859 0.96335 0.0
H1927 H 0.24372 0.669 0.97305 0.0
C1928 C 0.26363 0.64531 0.93359 0.0
C1929 C 0.28056 0.65208 0.93534 0.0
C1930 C 0.25459 0.6392 0.94809 0.0
C1931 C 0.26223 0.63979 0.96467 0.0
C1932 C 0.27954 0.64545 0.96638 0.0
H1933 H 0.18287 0.61748 0.04497 0.0
H1934 H 0.20902 0.63165 0.03289 0.0
C1935 C 0.28866 0.65159 0.95179 0.0
C1936 C 0.2517 0.63485 0.98004 0.0
H1937 H 0.21245 0.64346 0.99903 0.0
C1938 C 0.25594 0.61962 0.98918 0.0
C1939 C 0.23641 0.64415 0.98447 0.0
C1940 C 0.23184 0.66122 0.97587 0.0
C1941 C 0.24441 0.61259 0.00153 0.0
C1942 C 0.22821 0.62089 0.00454 0.0
C1943 C 0.22477 0.63698 0.99659 0.0
C1944 C 0.21363 0.61181 0.01336 0.0
C1945 C 0.24937 0.59594 0.01071 0.0
C1946 C 0.20751 0.59614 0.00629 0.0
C1947 C 0.19265 0.58821 0.01297 0.0
C1948 C 0.18343 0.59579 0.02689 0.0
C1949 C 0.1897 0.61135 0.03426 0.0
C1950 C 0.20463 0.61941 0.02741 0.0
H1951 H 0.26373 0.59494 0.01223 0.0
H1952 H 0.24319 0.59504 0.02376 0.0
H1953 H 0.24501 0.58466 0.00277 0.0
H1954 H 0.21392 0.59028 0.99516 0.0
H1955 H 0.1883 0.57618 0.00701 0.0
H1956 H 0.59405 0.05386 0.20626 0.0
H1957 H 0.60797 0.03856 0.23071 0.0
H1958 H 0.62238 0.99662 0.1962 0.0
H1959 H 0.60863 0.0117 0.17189 0.0
H1960 H 0.59715 0.00483 0.24182 0.0
H1961 H 0.66705 0.00501 0.22436 0.0
H1962 H 0.65167 0.02032 0.21521 0.0
H1963 H 0.6535 0.99866 0.2064 0.0
C1964 C 0.60065 0.04162 0.20382 0.0
C1965 C 0.60029 0.03398 0.18716 0.0
C1966 C 0.60848 0.03287 0.21781 0.0
C1967 C 0.61633 0.01654 0.21523 0.0
C1968 C 0.61668 0.00934 0.19844 0.0
H1969 H 0.64489 0.92149 0.25631 0.0
H1970 H 0.63381 0.94744 0.24173 0.0
C1971 C 0.60875 0.01795 0.18455 0.0
C1972 C 0.62264 0.00599 0.23011 0.0
H1973 H 0.65735 0.98135 0.24288 0.0
C1974 C 0.61044 6e-05 0.24241 0.0
C1975 C 0.63997 -0.00018 0.23085 0.0
C1976 C 0.65384 0.00642 0.2186 0.0
C1977 C 0.61483 0.98708 0.25456 0.0
C1978 C 0.63179 0.98 0.25437 0.0
C1979 C 0.6443 0.98677 0.24289 0.0
C1980 C 0.63628 0.96413 0.26428 0.0
C1981 C 0.6011 0.98013 0.26677 0.0
C1982 C 0.64084 0.96487 0.28197 0.0
C1983 C 0.64719 0.94996 0.29044 0.0
C1984 C 0.64916 0.93423 0.28122 0.0
C1985 C 0.64366 0.93343 0.26376 0.0
C1986 C 0.63733 0.94823 0.25538 0.0
H1987 H 0.58857 0.98729 0.26556 0.0
H1988 H 0.59877 0.96613 0.26396 0.0
H1989 H 0.60575 0.98112 0.28043 0.0
H1990 H 0.64014 0.97709 0.289 0.0
H1991 H 0.65142 0.95102 0.30386 0.0
H1992 H 0.7055 0.13373 0.56855 0.0
H1993 H 0.7177 0.11935 0.54255 0.0
H1994 H 0.7582 0.1582 0.54009 0.0
H1995 H 0.74628 0.17253 0.56559 0.0
H1996 H 0.74231 0.15002 0.50709 0.0
H1997 H 0.76457 0.0917 0.54436 0.0
H1998 H 0.74197 0.09787 0.54565 0.0
H1999 H 0.75829 0.1116 0.5552 0.0
C2000 C 0.71697 0.13918 0.5624 0.0
C2001 C 0.72503 0.15413 0.5693 0.0
C2002 C 0.7239 0.13098 0.54758 0.0
C2003 C 0.73889 0.13771 0.53947 0.0
C2004 C 0.74661 0.15283 0.54611 0.0
H2005 H 0.82918 0.10755 0.48979 0.0
H2006 H 0.80464 0.11907 0.50632 0.0
C2007 C 0.73982 0.16092 0.56083 0.0
C2008 C 0.7475 0.12879 0.52468 0.0
H2009 H 0.77556 0.09538 0.51618 0.0
C2010 C 0.74924 0.13782 0.50885 0.0
C2011 C 0.7566 0.11297 0.52713 0.0
C2012 C 0.75541 0.10291 0.54399 0.0
C2013 C 0.76068 0.13198 0.4958 0.0
C2014 C 0.77053 0.11673 0.49872 0.0
C2015 C 0.76795 0.10711 0.51406 0.0
C2016 C 0.78521 0.11172 0.48727 0.0
C2017 C 0.76309 0.14269 0.47951 0.0
C2018 C 0.78244 0.10432 0.47078 0.0
C2019 C 0.79654 0.09777 0.46118 0.0
C2020 C 0.81353 0.09844 0.46807 0.0
C2021 C 0.81626 0.10676 0.48415 0.0
C2022 C 0.80225 0.1133 0.49365 0.0
H2023 H 0.75507 0.15474 0.47963 0.0
H2024 H 0.77701 0.14635 0.47804 0.0
H2025 H 0.75941 0.13482 0.46795 0.0
H2026 H 0.76935 0.10292 0.4657 0.0
H2027 H 0.79401 0.09128 0.4489 0.0
H2028 H 0.15011 0.54969 0.6983 0.0
H2029 H 0.13878 0.52389 0.71359 0.0
H2030 H 0.13469 0.55374 0.76099 0.0
H2031 H 0.14584 0.57942 0.74598 0.0
H2032 H 0.15747 0.51927 0.75902 0.0
H2033 H 0.08776 0.515 0.73895 0.0
H2034 H 0.10449 0.52086 0.72347 0.0
H2035 H 0.09849 0.53591 0.74026 0.0
C2036 C 0.14636 0.55086 0.71186 0.0
C2037 C 0.14898 0.56655 0.72097 0.0
C2038 C 0.13998 0.53611 0.72057 0.0
C2039 C 0.13603 0.53698 0.7384 0.0
C2040 C 0.13773 0.55285 0.74723 0.0
H2041 H 0.11028 0.48874 0.83146 0.0
H2042 H 0.12337 0.50422 0.80699 0.0
C2043 C 0.14409 0.5675 0.73861 0.0
C2044 C 0.13154 0.52122 0.74849 0.0
H2045 H 0.09686 0.49707 0.76222 0.0
C2046 C 0.14431 0.51413 0.75949 0.0
C2047 C 0.11442 0.51454 0.74893 0.0
C2048 C 0.10039 0.52187 0.7373 0.0
C2049 C 0.14015 0.50112 0.77162 0.0
C2050 C 0.12274 0.49529 0.77295 0.0
C2051 C 0.11021 0.50158 0.76117 0.0
C2052 C 0.11682 0.48456 0.78785 0.0
C2053 C 0.1543 0.49415 0.78334 0.0
C2054 C 0.10896 0.46826 0.78525 0.0
C2055 C 0.10155 0.45927 0.79931 0.0
C2056 C 0.10162 0.46665 0.81609 0.0
C2057 C 0.11008 0.48268 0.81871 0.0
C2058 C 0.11761 0.49152 0.80474 0.0
H2059 H 0.16737 0.49564 0.77729 0.0
H2060 H 0.15429 0.50159 0.79575 0.0
H2061 H 0.15213 0.48018 0.78643 0.0
H2062 H 0.10812 0.46275 0.77228 0.0
H2063 H 0.09494 0.44704 0.79685 0.0
H2064 H 0.67091 0.89309 0.99086 0.0
H2065 H 0.69616 0.88018 0.00519 0.0
H2066 H 0.72755 0.89052 0.95976 0.0
H2067 H 0.7022 0.9036 0.94521 0.0
H2068 H 0.71994 0.85232 0.99476 0.0
H2069 H 0.75132 0.91757 0.00118 0.0
H2070 H 0.72845 0.91523 0.9962 0.0
H2071 H 0.74448 0.91051 0.97987 0.0
C2072 C 0.6831 0.89237 0.98376 0.0
C2073 C 0.6846 0.89948 0.96694 0.0
C2074 C 0.69751 0.88497 0.99197 0.0
C2075 C 0.71374 0.88463 0.98362 0.0
C2076 C 0.71514 0.89085 0.96647 0.0
H2077 H 0.80317 0.84319 0.04382 0.0
H2078 H 0.7875 0.85475 0.01837 0.0
C2079 C 0.70063 0.89818 0.95814 0.0
C2080 C 0.72919 0.87876 0.99357 0.0
H2081 H 0.7637 0.89446 0.01697 0.0
C2082 C 0.72978 0.86141 0.99926 0.0
C2083 C 0.7419 0.89073 0.99953 0.0
C2084 C 0.7416 0.9096 0.99401 0.0
C2085 C 0.74229 0.85589 0.01139 0.0
C2086 C 0.7544 0.86807 0.01802 0.0
C2087 C 0.75441 0.88519 0.01171 0.0
C2088 C 0.76531 0.86369 0.03325 0.0
C2089 C 0.74192 0.83734 0.01787 0.0
C2090 C 0.75821 0.86548 0.04996 0.0
C2091 C 0.76703 0.85892 0.06441 0.0
C2092 C 0.78317 0.85048 0.06242 0.0
C2093 C 0.79083 0.84975 0.04578 0.0
C2094 C 0.78188 0.85625 0.03123 0.0
H2095 H 0.73294 0.82903 0.01013 0.0
H2096 H 0.75521 0.83162 0.01737 0.0
H2097 H 0.73762 0.83717 0.03168 0.0
H2098 H 0.74541 0.8712 0.05171 0.0
H2099 H 0.76081 0.85972 0.07707 0.0
H2100 H 0.35226 0.42069 0.24437 0.0
H2101 H 0.36333 0.44621 0.25963 0.0
H2102 H 0.35632 0.47729 0.21337 0.0
H2103 H 0.34513 0.45161 0.19782 0.0
H2104 H 0.38836 0.48357 0.23225 0.0
H2105 H 0.33052 0.48627 0.27513 0.0
H2106 H 0.34002 0.46492 0.27447 0.0
H2107 H 0.33083 0.47412 0.25496 0.0
C2108 C 0.35322 0.43288 0.23733 0.0
C2109 C 0.34763 0.43416 0.21993 0.0
C2110 C 0.35945 0.44748 0.24612 0.0
C2111 C 0.36015 0.46371 0.23777 0.0
C2112 C 0.35563 0.4649 0.22009 0.0
H2113 H 0.38431 0.54547 0.31515 0.0
H2114 H 0.37011 0.53322 0.28909 0.0
C2115 C 0.34937 0.4502 0.2112 0.0
C2116 C 0.36546 0.47924 0.24788 0.0
H2117 H 0.35665 0.5 0.28619 0.0
C2118 C 0.38124 0.48749 0.24382 0.0
C2119 C 0.35593 0.48468 0.2627 0.0
C2120 C 0.33828 0.47716 0.26698 0.0
C2121 C 0.38854 0.49988 0.25514 0.0
C2122 C 0.37994 0.50382 0.27099 0.0
C2123 C 0.36336 0.49683 0.27416 0.0
C2124 C 0.38906 0.51261 0.28557 0.0
C2125 C 0.40576 0.50806 0.2504 0.0
C2126 C 0.40421 0.50498 0.29229 0.0
C2127 C 0.41216 0.51177 0.30709 0.0
C2128 C 0.4051 0.52636 0.31567 0.0
C2129 C 0.39004 0.53423 0.30883 0.0
C2130 C 0.38197 0.52729 0.29394 0.0
H2131 H 0.4072 0.50911 0.23603 0.0
H2132 H 0.40716 0.52123 0.25623 0.0
H2133 H 0.4165 0.4997 0.25527 0.0
H2134 H 0.40965 0.49337 0.28637 0.0
H2135 H 0.42379 0.50538 0.31189 0.0
H2136 H 0.55372 0.29538 0.40714 0.0
H2137 H 0.53792 0.27021 0.3953 0.0
H2138 H 0.49828 0.30451 0.37512 0.0
H2139 H 0.51377 0.32963 0.38711 0.0
H2140 H 0.50003 0.26483 0.40636 0.0
H2141 H 0.51059 0.268 0.33479 0.0
H2142 H 0.52592 0.27689 0.35033 0.0
H2143 H 0.50618 0.28844 0.34542 0.0
C2144 C 0.54192 0.29759 0.39972 0.0
C2145 C 0.53497 0.31447 0.39801 0.0
C2146 C 0.53287 0.2832 0.39307 0.0
C2147 C 0.517 0.28556 0.38431 0.0
C2148 C 0.51061 0.30247 0.3817 0.0
H2149 H 0.42109 0.23952 0.36316 0.0
H2150 H 0.44653 0.25437 0.37528 0.0
C2151 C 0.51946 0.31679 0.38855 0.0
C2152 C 0.50601 0.27048 0.37953 0.0
H2153 H 0.48651 0.25094 0.34468 0.0
C2154 C 0.49733 0.26149 0.39289 0.0
C2155 C 0.50256 0.26621 0.36197 0.0
C2156 C 0.51187 0.27527 0.34724 0.0
C2157 C 0.4845 0.24903 0.38908 0.0
C2158 C 0.48035 0.24548 0.37151 0.0
C2159 C 0.48976 0.25371 0.35816 0.0
C2160 C 0.46499 0.2349 0.36668 0.0
C2161 C 0.47497 0.24019 0.40381 0.0
C2162 C 0.46696 0.21882 0.35822 0.0
C2163 C 0.45238 0.21013 0.3515 0.0
C2164 C 0.43571 0.21765 0.35284 0.0
C2165 C 0.43376 0.23338 0.36201 0.0
C2166 C 0.44827 0.24188 0.36893 0.0
H2167 H 0.4821 0.24144 0.41635 0.0
H2168 H 0.46194 0.24627 0.40537 0.0
H2169 H 0.47298 0.22615 0.40089 0.0
H2170 H 0.47981 0.21332 0.35627 0.0
H2171 H 0.4543 0.19814 0.34431 0.0
H2172 H 0.00796 0.19088 0.57559 0.0
H2173 H 0.99627 0.21679 0.58931 0.0
H2174 H 0.03194 0.21056 0.63228 0.0
H2175 H 0.0439 0.18414 0.61848 0.0
H2176 H 0.9973 0.21472 0.64237 0.0
H2177 H 0.01475 0.26611 0.59527 0.0
H2178 H 0.00539 0.24769 0.58436 0.0
H2179 H 0.02572 0.24527 0.59587 0.0
C2180 C 0.01352 0.19501 0.5879 0.0
C2181 C 0.02681 0.18534 0.59602 0.0
C2182 C 0.00693 0.21002 0.59561 0.0
C2183 C 0.01346 0.21584 0.61163 0.0
C2184 C 0.0269 0.2064 0.61977 0.0
H2185 H 0.95459 0.30398 0.65768 0.0
H2186 H 0.98003 0.28785 0.64679 0.0
C2187 C 0.03368 0.19132 0.61192 0.0
C2188 C 0.00462 0.2306 0.62041 0.0
H2189 H 0.98791 0.27097 0.61183 0.0
C2190 C 0.99566 0.22722 0.63597 0.0
C2191 C 0.0026 0.24699 0.61218 0.0
C2192 C 0.0128 0.25179 0.59609 0.0
C2193 C 0.98354 0.23917 0.64262 0.0
C2194 C 0.98021 0.25475 0.63337 0.0
C2195 C 0.99029 0.25885 0.61871 0.0
C2196 C 0.96503 0.26579 0.63773 0.0
C2197 C 0.97371 0.23464 0.65904 0.0
C2198 C 0.94821 0.25907 0.63539 0.0
C2199 C 0.93375 0.26822 0.64143 0.0
C2200 C 0.93581 0.28431 0.64994 0.0
C2201 C 0.95258 0.29165 0.65111 0.0
C2202 C 0.96713 0.28242 0.64502 0.0
H2203 H 0.98088 0.2249 0.66701 0.0
H2204 H 0.97133 0.24644 0.66708 0.0
H2205 H 0.9609 0.22896 0.65549 0.0
H2206 H 0.94634 0.24637 0.6295 0.0
H2207 H 0.92101 0.26226 0.64021 0.0
H2208 H 0.95329 0.70695 0.91865 0.0
H2209 H 0.97202 0.73029 0.90772 0.0
H2210 H 0.99632 0.69408 0.87217 0.0
H2211 H 0.9783 0.67057 0.88385 0.0
H2212 H 0.01978 0.70914 0.89062 0.0
H2213 H 0.97594 0.76094 0.86622 0.0
H2214 H 0.97115 0.75499 0.88829 0.0
H2215 H 0.96826 0.73927 0.87111 0.0
C2216 C 0.96217 0.70416 0.90804 0.0
C2217 C 0.9643 0.68703 0.90196 0.0
C2218 C 0.97289 0.71753 0.90178 0.0
C2219 C 0.98556 0.71403 0.88902 0.0
C2220 C 0.9867 0.69713 0.88205 0.0
H2221 H 0.05385 0.78237 0.83336 0.0
H2222 H 0.02887 0.76691 0.84513 0.0
C2223 C 0.97631 0.68372 0.88859 0.0
C2224 C 0.99911 0.72715 0.88454 0.0
H2225 H 0.00573 0.76892 0.8706 0.0
C2226 C 0.01666 0.72218 0.88613 0.0
C2227 C 0.9951 0.74419 0.87873 0.0
C2228 C 0.97659 0.75012 0.87581 0.0
C2229 C 0.03027 0.73353 0.88176 0.0
C2230 C 0.02631 0.75074 0.87643 0.0
C2231 C 0.00877 0.75584 0.87501 0.0
C2232 C 0.04018 0.76296 0.87066 0.0
C2233 C 0.0487 0.72662 0.8822 0.0
C2234 C 0.05453 0.7668 0.88138 0.0
C2235 C 0.06911 0.77539 0.87455 0.0
C2236 C 0.06937 0.78065 0.85701 0.0
C2237 C 0.05422 0.7784 0.8469 0.0
C2238 C 0.03984 0.76954 0.85362 0.0
H2239 H 0.04903 0.71214 0.88211 0.0
H2240 H 0.05634 0.7314 0.87089 0.0
H2241 H 0.05519 0.73107 0.89433 0.0
H2242 H 0.05484 0.76237 0.89477 0.0
H2243 H 0.08046 0.77713 0.88276 0.0
H2244 H 0.54642 0.69687 0.1541 0.0
H2245 H 0.52111 0.71224 0.14193 0.0
H2246 H 0.55446 0.75438 0.12563 0.0
H2247 H 0.57969 0.73934 0.13798 0.0
H2248 H 0.5142 0.75048 0.15454 0.0
H2249 H 0.51988 0.74105 0.08291 0.0
H2250 H 0.52822 0.72544 0.09848 0.0
H2251 H 0.53979 0.74536 0.09457 0.0
C2252 C 0.54842 0.70918 0.14748 0.0
C2253 C 0.56503 0.71692 0.14696 0.0
C2254 C 0.53395 0.71796 0.14064 0.0
C2255 C 0.536 0.73437 0.13288 0.0
C2256 C 0.55269 0.74164 0.13147 0.0
H2257 H 0.48758 0.82891 0.11099 0.0
H2258 H 0.50314 0.80387 0.12307 0.0
C2259 C 0.56707 0.73304 0.13852 0.0
C2260 C 0.5207 0.74491 0.12782 0.0
H2261 H 0.50148 0.7641 0.09263 0.0
C2262 C 0.51112 0.75319 0.14102 0.0
C2263 C 0.5168 0.74839 0.11018 0.0
C2264 C 0.5266 0.73954 0.09564 0.0
C2265 C 0.49836 0.76567 0.13698 0.0
C2266 C 0.49513 0.76984 0.11936 0.0
C2267 C 0.504 0.76082 0.10615 0.0
C2268 C 0.4842 0.7849 0.1144 0.0
C2269 C 0.48887 0.77483 0.15154 0.0
C2270 C 0.4682 0.78249 0.10589 0.0
C2271 C 0.45912 0.79684 0.0992 0.0
C2272 C 0.46615 0.81371 0.10061 0.0
C2273 C 0.48183 0.81607 0.10977 0.0
C2274 C 0.49073 0.8018 0.11667 0.0
H2275 H 0.49018 0.76776 0.16411 0.0
H2276 H 0.49438 0.7881 0.1532 0.0
H2277 H 0.47482 0.77623 0.14835 0.0
H2278 H 0.46306 0.76949 0.10394 0.0
H2279 H 0.44717 0.79459 0.09202 0.0
H2280 H 0.21804 0.35604 0.35814 0.0
H2281 H 0.22479 0.369 0.32981 0.0
H2282 H 0.19614 0.3279 0.30425 0.0
H2283 H 0.18851 0.31563 0.33231 0.0
H2284 H 0.24437 0.35508 0.30766 0.0
H2285 H 0.18255 0.36612 0.27318 0.0
H2286 H 0.18323 0.36183 0.29629 0.0
H2287 H 0.18296 0.3441 0.28083 0.0
C2288 C 0.21271 0.35013 0.34649 0.0
C2289 C 0.20281 0.33477 0.34751 0.0
C2290 C 0.21659 0.35752 0.33028 0.0
C2291 C 0.21086 0.34956 0.31479 0.0
C2292 C 0.20029 0.33468 0.3159 0.0
H2293 H 0.27571 0.34094 0.22592 0.0
H2294 H 0.256 0.33592 0.25045 0.0
C2295 C 0.19608 0.32753 0.33206 0.0
C2296 C 0.21809 0.35499 0.29765 0.0
H2297 H 0.20781 0.36004 0.25457 0.0
C2298 C 0.23627 0.35652 0.29617 0.0
C2299 C 0.20764 0.35715 0.28256 0.0
C2300 C 0.18801 0.35741 0.28338 0.0
C2301 C 0.24429 0.35918 0.28002 0.0
C2302 C 0.23395 0.35957 0.26475 0.0
C2303 C 0.21574 0.35913 0.26624 0.0
C2304 C 0.24211 0.36027 0.24728 0.0
C2305 C 0.26384 0.36148 0.2795 0.0
C2306 C 0.23961 0.37475 0.23639 0.0
C2307 C 0.25045 0.37728 0.22194 0.0
C2308 C 0.26399 0.36546 0.21848 0.0
C2309 C 0.26524 0.35011 0.2283 0.0
C2310 C 0.25417 0.3474 0.24244 0.0
H2311 H 0.26898 0.36617 0.2922 0.0
H2312 H 0.27009 0.34876 0.27666 0.0
H2313 H 0.26775 0.37088 0.26922 0.0
H2314 H 0.2303 0.38478 0.23987 0.0
H2315 H 0.24951 0.38938 0.21472 0.0
H2316 H 0.9005 0.03107 0.48687 0.0
H2317 H 0.90759 0.00822 0.50768 0.0
H2318 H 0.87447 0.97231 0.47986 0.0
H2319 H 0.86723 0.99539 0.45881 0.0
H2320 H 0.86665 0.97529 0.51545 0.0
H2321 H 0.93711 0.96405 0.50647 0.0
H2322 H 0.93229 0.98689 0.50762 0.0
H2323 H 0.92371 0.97409 0.48991 0.0
C2324 C 0.8951 0.01818 0.48487 0.0
C2325 C 0.88337 0.01496 0.47121 0.0
C2326 C 0.89923 0.0051 0.49674 0.0
C2327 C 0.89172 0.98851 0.49521 0.0
C2328 C 0.88054 0.98499 0.48114 0.0
H2329 H 0.92763 0.92572 0.58289 0.0
H2330 H 0.91707 0.93096 0.55335 0.0
C2331 C 0.87652 0.99811 0.46908 0.0
C2332 C 0.89411 0.97586 0.50957 0.0
H2333 H 0.92585 0.95913 0.53569 0.0
C2334 C 0.87954 0.97131 0.51966 0.0
C2335 C 0.91087 0.97045 0.51491 0.0
C2336 C 0.92685 0.97397 0.50403 0.0
C2337 C 0.88149 0.96278 0.53573 0.0
C2338 C 0.89843 0.95901 0.54193 0.0
C2339 C 0.91284 0.96221 0.53109 0.0
C2340 C 0.90183 0.95366 0.5602 0.0
C2341 C 0.8654 0.9584 0.54613 0.0
C2342 C 0.89634 0.96436 0.574 0.0
C2343 C 0.90224 0.96134 0.59095 0.0
C2344 C 0.91404 0.94775 0.59438 0.0
C2345 C 0.91866 0.9364 0.58072 0.0
C2346 C 0.91264 0.93936 0.56379 0.0
H2347 H 0.85413 0.95584 0.5374 0.0
H2348 H 0.8675 0.94683 0.55456 0.0
H2349 H 0.86195 0.96966 0.55451 0.0
H2350 H 0.88834 0.97572 0.57153 0.0
H2351 H 0.89839 0.97034 0.60112 0.0
H2352 H 0.2494 0.61066 0.71404 0.0
H2353 H 0.26959 0.6162 0.73824 0.0
H2354 H 0.24257 0.66412 0.74971 0.0
H2355 H 0.22204 0.65825 0.72606 0.0
H2356 H 0.29175 0.64327 0.75167 0.0
H2357 H 0.23285 0.63247 0.79194 0.0
H2358 H 0.23354 0.62764 0.76895 0.0
H2359 H 0.22999 0.64962 0.77631 0.0
C2360 C 0.24835 0.62277 0.72122 0.0
C2361 C 0.23429 0.6341 0.71825 0.0
C2362 C 0.25977 0.62584 0.73513 0.0
C2363 C 0.25727 0.64035 0.74598 0.0
C2364 C 0.24449 0.65269 0.74166 0.0
H2365 H 0.3111 0.68696 0.83052 0.0
H2366 H 0.30299 0.67546 0.80218 0.0
C2367 C 0.23292 0.64946 0.72804 0.0
C2368 C 0.26618 0.64151 0.76305 0.0
H2369 H 0.25746 0.64455 0.80647 0.0
C2370 C 0.28434 0.64338 0.76371 0.0
C2371 C 0.25654 0.64097 0.77876 0.0
C2372 C 0.23718 0.63737 0.77902 0.0
C2373 C 0.29301 0.64579 0.77969 0.0
C2374 C 0.28314 0.6468 0.79528 0.0
C2375 C 0.26508 0.64396 0.79458 0.0
C2376 C 0.29079 0.65209 0.81228 0.0
C2377 C 0.31261 0.64718 0.77963 0.0
C2378 C 0.28666 0.64287 0.82756 0.0
C2379 C 0.29086 0.64971 0.84392 0.0
C2380 C 0.29945 0.66582 0.8453 0.0
C2381 C 0.30458 0.67446 0.82996 0.0
C2382 C 0.30009 0.66779 0.81365 0.0
H2383 H 0.31832 0.63947 0.76878 0.0
H2384 H 0.31639 0.66098 0.7776 0.0
H2385 H 0.31833 0.64258 0.7921 0.0
H2386 H 0.27947 0.63075 0.82687 0.0
H2387 H 0.28678 0.64272 0.85548 0.0
H2388 H 0.60646 0.03542 0.10811 0.0
H2389 H 0.61849 0.02776 0.07961 0.0
H2390 H 0.57438 0.05201 0.05451 0.0
H2391 H 0.56286 0.06048 0.08274 0.0
H2392 H 0.60488 0.00611 0.05881 0.0
H2393 H 0.6109 0.06725 0.02175 0.0
H2394 H 0.60749 0.06709 0.04502 0.0
H2395 H 0.58926 0.06545 0.03025 0.0
C2396 C 0.5996 0.03955 0.09648 0.0
C2397 C 0.5837 0.04853 0.09771 0.0
C2398 C 0.60648 0.03516 0.08019 0.0
C2399 C 0.59748 0.03946 0.06481 0.0
C2400 C 0.58191 0.04899 0.06605 0.0
H2401 H 0.59231 0.97148 0.97771 0.0
H2402 H 0.5863 0.99138 0.00186 0.0
C2403 C 0.57523 0.05369 0.08229 0.0
C2404 C 0.60292 0.0319 0.04782 0.0
H2405 H 0.60707 0.04089 0.00436 0.0
C2406 C 0.60567 0.01384 0.047 0.0
C2407 C 0.60421 0.0419 0.03234 0.0
C2408 C 0.603 0.06152 0.03244 0.0
C2409 C 0.60884 0.00542 0.03114 0.0
C2410 C 0.60854 0.0152 0.01551 0.0
C2411 C 0.60676 0.03337 0.01632 0.0
C2412 C 0.60988 0.00647 0.99836 0.0
C2413 C 0.61242 0.98605 0.03129 0.0
C2414 C 0.6243 0.00938 0.9875 0.0
C2415 C 0.62743 0.99834 0.9733 0.0
C2416 C 0.61624 0.98424 0.97005 0.0
C2417 C 0.601 0.98238 0.97994 0.0
C2418 C 0.5977 0.99359 0.99384 0.0
H2419 H 0.61732 0.98166 0.04419 0.0
H2420 H 0.60015 0.9789 0.02857 0.0
H2421 H 0.62214 0.98243 0.0212 0.0
H2422 H 0.63381 0.0193 0.99075 0.0
H2423 H 0.63944 -0.00024 0.96602 0.0
H2424 H 0.72911 0.15596 0.64921 0.0
H2425 H 0.73394 0.14589 0.67895 0.0
H2426 H 0.68362 0.16578 0.69412 0.0
H2427 H 0.67878 0.17624 0.6645 0.0
H2428 H 0.70896 0.17823 0.71461 0.0
H2429 H 0.71642 0.10687 0.70953 0.0
H2430 H 0.7301 0.11783 0.6941 0.0
H2431 H 0.70677 0.11976 0.69235 0.0
C2432 C 0.71886 0.15783 0.65873 0.0
C2433 C 0.70364 0.16709 0.65446 0.0
C2434 C 0.7216 0.15195 0.67575 0.0
C2435 C 0.70907 0.15495 0.68876 0.0
C2436 C 0.69344 0.16329 0.68429 0.0
H2437 H 0.74541 0.11798 0.79061 0.0
H2438 H 0.7231 0.12518 0.76881 0.0
C2439 C 0.69072 0.16925 0.66732 0.0
C2440 C 0.71331 0.15144 0.70729 0.0
H2441 H 0.73084 0.12066 0.73412 0.0
C2442 C 0.71335 0.16553 0.71899 0.0
C2443 C 0.71874 0.13484 0.71316 0.0
C2444 C 0.71782 0.11894 0.70165 0.0
C2445 C 0.71998 0.16376 0.73593 0.0
C2446 C 0.72696 0.14757 0.74121 0.0
C2447 C 0.72562 0.13314 0.73002 0.0
C2448 C 0.73807 0.14591 0.75692 0.0
C2449 C 0.72004 0.17943 0.74779 0.0
C2450 C 0.75355 0.15559 0.75784 0.0
C2451 C 0.76621 0.15151 0.77019 0.0
C2452 C 0.7636 0.13769 0.78188 0.0
C2453 C 0.74753 0.12895 0.78198 0.0
C2454 C 0.73488 0.13292 0.76942 0.0
H2455 H 0.70903 0.18832 0.74472 0.0
H2456 H 0.71919 0.17555 0.76171 0.0
H2457 H 0.73232 0.18682 0.74583 0.0
H2458 H 0.75649 0.16538 0.74811 0.0
H2459 H 0.77862 0.15824 0.7697 0.0
H2460 H 0.0874 0.52606 0.02869 0.0
H2461 H 0.07874 0.50542 0.00605 0.0
H2462 H 0.12726 0.47778 0.01289 0.0
H2463 H 0.13529 0.49776 0.03634 0.0
H2464 H 0.09654 0.50618 0.97766 0.0
H2465 H 0.09651 0.43783 0.00052 0.0
H2466 H 0.096 0.45605 0.01539 0.0
H2467 H 0.11632 0.4489 0.00608 0.0
C2468 C 0.09564 0.5149 0.02608 0.0
C2469 C 0.11185 0.51327 0.03433 0.0
C2470 C 0.09083 0.50323 0.01301 0.0
C2471 C 0.10237 0.49005 0.00765 0.0
C2472 C 0.11792 0.48753 0.01699 0.0
H2473 H 0.10508 0.46435 0.89726 0.0
H2474 H 0.1139 0.47261 0.92675 0.0
C2475 C 0.1225 0.49893 0.03045 0.0
C2476 C 0.09963 0.4814 0.99054 0.0
H2477 H 0.09885 0.44213 0.96957 0.0
C2478 C 0.09686 0.49215 0.97598 0.0
C2479 C 0.10015 0.46311 0.98826 0.0
C2480 C 0.10223 0.45081 0.00344 0.0
C2481 C 0.09444 0.4852 0.9593 0.0
C2482 C 0.0956 0.46696 0.95688 0.0
C2483 C 0.09832 0.45614 0.9714 0.0
C2484 C 0.09275 0.45898 0.93951 0.0
C2485 C 0.09012 0.49752 0.94455 0.0
C2486 C 0.0788 0.44746 0.93702 0.0
C2487 C 0.07396 0.4424 0.92024 0.0
C2488 C 0.08288 0.44894 0.90559 0.0
C2489 C 0.09777 0.45929 0.90822 0.0
C2490 C 0.10276 0.46412 0.92507 0.0
H2491 H 0.08515 0.51022 0.94943 0.0
H2492 H 0.10206 0.50014 0.93684 0.0
H2493 H 0.08016 0.49183 0.93572 0.0
H2494 H 0.07099 0.4432 0.94799 0.0
H2495 H 0.06254 0.43426 0.91875 0.0
H2496 H 0.74917 0.88984 0.28496 0.0
H2497 H 0.76895 0.88498 0.26026 0.0
H2498 H 0.74155 0.83752 0.24776 0.0
H2499 H 0.7214 0.84275 0.27188 0.0
H2500 H 0.79089 0.85874 0.24617 0.0
H2501 H 0.73191 0.86945 0.2061 0.0
H2502 H 0.73246 0.87376 0.22919 0.0
H2503 H 0.72912 0.85192 0.22129 0.0
C2504 C 0.74791 0.87799 0.27738 0.0
C2505 C 0.73387 0.86662 0.28023 0.0
C2506 C 0.75909 0.87531 0.2632 0.0
C2507 C 0.75639 0.86114 0.25196 0.0
C2508 C 0.7436 0.84874 0.25608 0.0
H2509 H 0.81071 0.81519 0.16765 0.0
H2510 H 0.80242 0.82679 0.19587 0.0
C2511 C 0.73224 0.8516 0.26996 0.0
C2512 C 0.76527 0.86028 0.23485 0.0
H2513 H 0.7565 0.8573 0.19143 0.0
C2514 C 0.78345 0.85861 0.23415 0.0
C2515 C 0.7556 0.86081 0.21915 0.0
C2516 C 0.73622 0.86429 0.21892 0.0
C2517 C 0.79212 0.85635 0.21815 0.0
C2518 C 0.78223 0.85525 0.20257 0.0
C2519 C 0.76415 0.85794 0.2033 0.0
C2520 C 0.78989 0.8499 0.18559 0.0
C2521 C 0.81173 0.85521 0.21817 0.0
C2522 C 0.7856 0.85892 0.17022 0.0
C2523 C 0.78989 0.85199 0.15391 0.0
C2524 C 0.79874 0.83601 0.15267 0.0
C2525 C 0.80399 0.82759 0.16809 0.0
C2526 C 0.7994 0.83433 0.18434 0.0
H2527 H 0.81735 0.86309 0.22894 0.0
H2528 H 0.8157 0.84148 0.22034 0.0
H2529 H 0.81738 0.85978 0.20566 0.0
H2530 H 0.77823 0.87094 0.17081 0.0
H2531 H 0.7857 0.85883 0.1423 0.0
H2532 H 0.40825 0.47376 0.52722 0.0
H2533 H 0.41669 0.49338 0.50357 0.0
H2534 H 0.36591 0.51754 0.5057 0.0
H2535 H 0.35802 0.49869 0.53015 0.0
H2536 H 0.40169 0.49054 0.47397 0.0
H2537 H 0.39425 0.55927 0.49426 0.0
H2538 H 0.39487 0.54162 0.50978 0.0
H2539 H 0.37493 0.54687 0.49856 0.0
C2540 C 0.39933 0.48396 0.52324 0.0
C2541 C 0.38267 0.48504 0.5306 0.0
C2542 C 0.40404 0.49503 0.50962 0.0
C2543 C 0.39196 0.507 0.50279 0.0
C2544 C 0.37566 0.5088 0.51095 0.0
H2545 H 0.3971 0.52905 0.39163 0.0
H2546 H 0.38636 0.5208 0.42048 0.0
C2547 C 0.37114 0.49804 0.52495 0.0
C2548 C 0.39539 0.51531 0.48564 0.0
H2549 H 0.39471 0.55388 0.46341 0.0
C2550 C 0.40033 0.50443 0.47177 0.0
C2551 C 0.39359 0.53342 0.48266 0.0
C2552 C 0.38929 0.54598 0.49716 0.0
C2553 C 0.40363 0.51108 0.45511 0.0
C2554 C 0.40114 0.52908 0.45193 0.0
C2555 C 0.39626 0.54003 0.46578 0.0
C2556 C 0.40483 0.5368 0.4346 0.0
C2557 C 0.41034 0.49878 0.44126 0.0
C2558 C 0.41774 0.54961 0.43296 0.0
C2559 C 0.42359 0.55468 0.41651 0.0
C2560 C 0.41678 0.54685 0.40138 0.0
C2561 C 0.4028 0.53513 0.40303 0.0
C2562 C 0.39674 0.5303 0.41951 0.0
H2563 H 0.41598 0.48676 0.44704 0.0
H2564 H 0.39941 0.49482 0.43267 0.0
H2565 H 0.4205 0.50511 0.43312 0.0
H2566 H 0.42404 0.55494 0.44442 0.0
H2567 H 0.43427 0.56387 0.41576 0.0
H2568 H 0.23399 0.27835 0.34285 0.0
H2569 H 0.25522 0.25571 0.33637 0.0
H2570 H 0.23067 0.22172 0.37381 0.0
H2571 H 0.20927 0.24459 0.38043 0.0
H2572 H 0.26529 0.22692 0.38051 0.0
H2573 H 0.25742 0.20947 0.3113 0.0
H2574 H 0.25753 0.23268 0.31383 0.0
H2575 H 0.24035 0.22001 0.32363 0.0
C2576 C 0.23267 0.26579 0.34917 0.0
C2577 C 0.21996 0.26315 0.36204 0.0
C2578 C 0.2448 0.25283 0.34543 0.0
C2579 C 0.24445 0.23695 0.35448 0.0
C2580 C 0.23105 0.23382 0.36656 0.0
H2581 H 0.33617 0.17737 0.32357 0.0
H2582 H 0.30623 0.18175 0.33327 0.0
C2583 C 0.21875 0.24681 0.37021 0.0
C2584 C 0.2596 0.22507 0.35305 0.0
H2585 H 0.28707 0.2078 0.32277 0.0
C2586 C 0.26985 0.22228 0.36796 0.0
C2587 C 0.26545 0.21877 0.33677 0.0
C2588 C 0.25448 0.22023 0.32053 0.0
C2589 C 0.28645 0.21469 0.36674 0.0
C2590 C 0.29306 0.21012 0.35015 0.0
C2591 C 0.28217 0.21154 0.33549 0.0
C2592 C 0.31166 0.2056 0.34729 0.0
C2593 C 0.29688 0.21211 0.3832 0.0
C2594 C 0.32483 0.21726 0.35239 0.0
C2595 C 0.34205 0.21469 0.34704 0.0
C2596 C 0.34636 0.20061 0.33613 0.0
C2597 C 0.33332 0.18843 0.33186 0.0
C2598 C 0.31616 0.1909 0.33739 0.0
H2599 H 0.28818 0.2097 0.39452 0.0
H2600 H 0.30612 0.20104 0.38198 0.0
H2601 H 0.30441 0.22413 0.38598 0.0
H2602 H 0.32166 0.22893 0.35966 0.0
H2603 H 0.35172 0.22433 0.35058 0.0
H2604 H 0.99885 0.96537 0.63762 0.0
H2605 H 0.0176 0.99089 0.63325 0.0
H2606 H 0.99061 0.00238 0.58529 0.0
H2607 H 0.97134 0.97747 0.59014 0.0
H2608 H 0.03939 0.006 0.60901 0.0
H2609 H 0.97847 0.0438 0.61577 0.0
H2610 H 0.97954 0.02073 0.62003 0.0
H2611 H 0.97712 0.02863 0.59806 0.0
C2612 C 0.99749 0.97292 0.62577 0.0
C2613 C 0.98375 0.96955 0.61417 0.0
C2614 C 0.00807 0.98758 0.62338 0.0
C2615 C 0.00509 0.99881 0.60924 0.0
C2616 C 0.99277 0.99414 0.59655 0.0
H2617 H 0.05969 0.08383 0.56548 0.0
H2618 H 0.0514 0.05576 0.57728 0.0
C2619 C 0.98196 0.97979 0.59915 0.0
C2620 C 0.01329 0.01627 0.60863 0.0
H2621 H 0.00303 0.05925 0.60441 0.0
C2622 C 0.0315 0.0177 0.60819 0.0
C2623 C 0.00301 0.03159 0.60837 0.0
C2624 C 0.98347 0.03115 0.6108 0.0
C2625 C 0.03966 0.034 0.60631 0.0
C2626 C 0.02927 0.04914 0.60423 0.0
C2627 C 0.01109 0.04772 0.60576 0.0
C2628 C 0.0366 0.06628 0.5989 0.0
C2629 C 0.0593 0.03474 0.60666 0.0
C2630 C 0.03096 0.08177 0.60693 0.0
C2631 C 0.03522 0.098 0.5998 0.0
C2632 C 0.04543 0.09903 0.58464 0.0
C2633 C 0.05193 0.08356 0.57726 0.0
C2634 C 0.04734 0.06739 0.58414 0.0
H2635 H 0.06468 0.02448 0.61535 0.0
H2636 H 0.06439 0.03222 0.59336 0.0
H2637 H 0.06412 0.04761 0.61116 0.0
H2638 H 0.02262 0.0813 0.61831 0.0
H2639 H 0.03003 0.10968 0.60579 0.0
H2640 H 0.28408 0.75026 0.89021 0.0
H2641 H 0.25906 0.76987 0.88648 0.0
H2642 H 0.24512 0.74292 0.83915 0.0
H2643 H 0.26952 0.72287 0.84332 0.0
H2644 H 0.24452 0.79209 0.86213 0.0
H2645 H 0.20379 0.73338 0.87072 0.0
H2646 H 0.22699 0.73329 0.87447 0.0
H2647 H 0.21847 0.73086 0.85273 0.0
C2648 C 0.27606 0.74904 0.87865 0.0
C2649 C 0.27863 0.73515 0.86702 0.0
C2650 C 0.2617 0.76012 0.87662 0.0
C2651 C 0.24996 0.75747 0.86283 0.0
C2652 C 0.25375 0.74485 0.85015 0.0
H2653 H 0.16836 0.8146 0.81729 0.0
H2654 H 0.19579 0.80544 0.82988 0.0
C2655 C 0.26781 0.73358 0.85238 0.0
C2656 C 0.23293 0.76655 0.86245 0.0
H2657 H 0.18945 0.75841 0.85867 0.0
C2658 C 0.23243 0.78479 0.86159 0.0
C2659 C 0.21711 0.75706 0.86255 0.0
C2660 C 0.21658 0.73759 0.86539 0.0
C2661 C 0.21656 0.79372 0.85953 0.0
C2662 C 0.20091 0.78406 0.85771 0.0
C2663 C 0.20139 0.76589 0.85979 0.0
C2664 C 0.18424 0.79209 0.85191 0.0
C2665 C 0.21682 0.81337 0.8593 0.0
C2666 C 0.16838 0.78759 0.85993 0.0
C2667 C 0.15248 0.79236 0.85238 0.0
C2668 C 0.15215 0.8019 0.83674 0.0
C2669 C 0.16805 0.80731 0.82937 0.0
C2670 C 0.18387 0.80225 0.83671 0.0
H2671 H 0.22727 0.81846 0.86794 0.0
H2672 H 0.21971 0.81794 0.84589 0.0
H2673 H 0.20418 0.81897 0.86355 0.0
H2674 H 0.16828 0.77971 0.87165 0.0
H2675 H 0.14049 0.78801 0.85842 0.0
H2676 H 0.52602 0.02721 0.09336 0.0
H2677 H 0.50571 0.00416 0.08479 0.0
H2678 H 0.48091 0.00742 0.13518 0.0
H2679 H 0.50063 0.03115 0.1433 0.0
H2680 H 0.50718 0.97439 0.1006 0.0
H2681 H 0.43918 0.99789 0.10545 0.0
H2682 H 0.45756 0.01256 0.10487 0.0
H2683 H 0.45139 0.00209 0.12493 0.0
C2684 C 0.5156 0.02358 0.10219 0.0
C2685 C 0.51455 0.03106 0.1188 0.0
C2686 C 0.50412 0.01033 0.09739 0.0
C2687 C 0.49171 0.00405 0.1093 0.0
C2688 C 0.49001 0.0123 0.12557 0.0
H2689 H 0.46453 0.8943 0.10703 0.0
H2690 H 0.47333 0.92327 0.11689 0.0
C2691 C 0.50126 0.02586 0.13022 0.0
C2692 C 0.48275 0.98726 0.10578 0.0
H2693 H 0.44318 0.96685 0.10525 0.0
C2694 C 0.49316 0.97283 0.10147 0.0
C2695 C 0.46446 0.98516 0.10693 0.0
C2696 C 0.45249 0.0003 0.11063 0.0
C2697 C 0.48587 0.95643 0.09826 0.0
C2698 C 0.46766 0.95415 0.10007 0.0
C2699 C 0.45717 0.96856 0.10422 0.0
C2700 C 0.45938 0.93705 0.09662 0.0
C2701 C 0.49775 0.94182 0.09248 0.0
C2702 C 0.44756 0.9353 0.0828 0.0
C2703 C 0.44225 0.91879 0.07732 0.0
C2704 C 0.44881 0.90372 0.08548 0.0
C2705 C 0.45944 0.90561 0.10029 0.0
C2706 C 0.46456 0.92216 0.10589 0.0
H2707 H 0.51034 0.94683 0.08736 0.0
H2708 H 0.50067 0.93328 0.10377 0.0
H2709 H 0.49151 0.93378 0.08219 0.0
H2710 H 0.44328 0.94665 0.07557 0.0
H2711 H 0.43391 0.91786 0.06598 0.0
H2712 H 0.71274 0.25378 0.61334 0.0
H2713 H 0.73701 0.27349 0.61981 0.0
H2714 H 0.74462 0.24782 0.66922 0.0
H2715 H 0.721 0.22758 0.66234 0.0
H2716 H 0.7507 0.29589 0.64543 0.0
H2717 H 0.78756 0.23394 0.64101 0.0
H2718 H 0.76479 0.23546 0.63556 0.0
H2719 H 0.77147 0.2336 0.65795 0.0
C2720 C 0.71897 0.25301 0.62599 0.0
C2721 C 0.7151 0.23923 0.63737 0.0
C2722 C 0.73297 0.26415 0.62959 0.0
C2723 C 0.74293 0.26171 0.64474 0.0
C2724 C 0.73734 0.24961 0.65726 0.0
H2725 H 0.83129 0.31434 0.68719 0.0
H2726 H 0.8023 0.30685 0.67701 0.0
C2727 C 0.72367 0.23825 0.65348 0.0
C2728 C 0.76049 0.26962 0.64622 0.0
H2729 H 0.80331 0.25869 0.65073 0.0
C2730 C 0.76224 0.28781 0.6465 0.0
C2731 C 0.7756 0.25904 0.64695 0.0
C2732 C 0.77483 0.23944 0.64516 0.0
C2733 C 0.7787 0.2957 0.64833 0.0
C2734 C 0.79366 0.28506 0.65032 0.0
C2735 C 0.79189 0.2669 0.64932 0.0
C2736 C 0.81116 0.29217 0.6546 0.0
C2737 C 0.77983 0.31531 0.64796 0.0
C2738 C 0.82597 0.28647 0.64542 0.0
C2739 C 0.8427 0.29038 0.65149 0.0
C2740 C 0.84495 0.30015 0.66682 0.0
C2741 C 0.83011 0.30679 0.67532 0.0
C2742 C 0.81342 0.30266 0.6694 0.0
H2743 H 0.76916 0.321 0.63999 0.0
H2744 H 0.7784 0.32041 0.66141 0.0
H2745 H 0.79251 0.31982 0.64263 0.0
H2746 H 0.82458 0.27833 0.63398 0.0
H2747 H 0.85383 0.2851 0.6446 0.0
H2748 H -3e-05 0.46459 0.85926 0.0
H2749 H 0.97988 0.48902 0.86437 0.0
H2750 H 0.00804 0.50227 0.91118 0.0
H2751 H 0.02839 0.47838 0.90577 0.0
H2752 H 0.95826 0.50257 0.89179 0.0
H2753 H 0.01572 0.54403 0.87842 0.0
H2754 H 0.01553 0.52091 0.87415 0.0
H2755 H 0.0196 0.52891 0.89582 0.0
C2756 C 0.00136 0.47231 0.871 0.0
C2757 C 0.01561 0.46969 0.88217 0.0
C2758 C 0.98999 0.48631 0.87383 0.0
C2759 C 0.99276 0.49765 0.88792 0.0
C2760 C 0.00591 0.49385 0.90005 0.0
H2761 H 0.93894 0.5804 0.93675 0.0
H2762 H 0.94726 0.55243 0.92455 0.0
C2763 C 0.0174 0.48012 0.89707 0.0
C2764 C 0.98348 0.51452 0.88902 0.0
H2765 H 0.99133 0.55812 0.89169 0.0
C2766 C 0.96539 0.51477 0.89156 0.0
C2767 C 0.99273 0.53044 0.88806 0.0
C2768 C 0.01193 0.53112 0.88376 0.0
C2769 C 0.95646 0.53054 0.89431 0.0
C2770 C 0.96601 0.54635 0.89499 0.0
C2771 C 0.98395 0.54607 0.89138 0.0
C2772 C 0.95823 0.56311 0.90083 0.0
C2773 C 0.93694 0.53004 0.89646 0.0
C2774 C 0.96163 0.57861 0.89167 0.0
C2775 C 0.95732 0.59477 0.8989 0.0
C2776 C 0.94935 0.59573 0.91536 0.0
C2777 C 0.94496 0.58017 0.92399 0.0
C2778 C 0.94957 0.56406 0.91691 0.0
H2779 H 0.93118 0.51915 0.88885 0.0
H2780 H 0.93375 0.52775 0.91038 0.0
H2781 H 0.93076 0.54242 0.89225 0.0
H2782 H 0.96833 0.57825 0.87925 0.0
H2783 H 0.96082 0.60651 0.8919 0.0
H2784 H 0.64752 0.72313 0.14792 0.0
H2785 H 0.67719 0.72892 0.13827 0.0
H2786 H 0.69528 0.68328 0.16562 0.0
H2787 H 0.66567 0.67754 0.17567 0.0
H2788 H 0.71287 0.7117 0.17526 0.0
H2789 H 0.71126 0.70929 0.10344 0.0
H2790 H 0.69405 0.7228 0.11162 0.0
H2791 H 0.69424 0.69988 0.11672 0.0
C2792 C 0.6577 0.71404 0.15154 0.0
C2793 C 0.65419 0.69998 0.16275 0.0
C2794 C 0.67469 0.71731 0.14589 0.0
C2795 C 0.68847 0.70645 0.15109 0.0
C2796 C 0.68485 0.6918 0.1614 0.0
H2797 H 0.7903 0.74749 0.11719 0.0
H2798 H 0.76909 0.72458 0.12447 0.0
C2799 C 0.66788 0.68856 0.16714 0.0
C2800 C 0.70674 0.71183 0.14783 0.0
H2801 H 0.73341 0.72817 0.11625 0.0
C2802 C 0.71753 0.71487 0.1623 0.0
C2803 C 0.71299 0.7157 0.13093 0.0
C2804 C 0.70257 0.71155 0.1148 0.0
C2805 C 0.73376 0.72304 0.16044 0.0
C2806 C 0.73921 0.72849 0.14373 0.0
C2807 C 0.72913 0.72412 0.1291 0.0
C2808 C 0.75369 0.74101 0.14145 0.0
C2809 C 0.7446 0.72643 0.17648 0.0
C2810 C 0.75218 0.75766 0.14882 0.0
C2811 C 0.76412 0.77066 0.14464 0.0
C2812 C 0.77785 0.76727 0.13304 0.0
C2813 C 0.77997 0.75034 0.12638 0.0
C2814 C 0.76783 0.73732 0.13042 0.0
H2815 H 0.74195 0.71659 0.18676 0.0
H2816 H 0.75874 0.72631 0.1734 0.0
H2817 H 0.74121 0.73943 0.18183 0.0
H2818 H 0.74119 0.7609 0.15706 0.0
H2819 H 0.76213 0.78363 0.14988 0.0
H2820 H 0.47539 0.52752 0.41094 0.0
H2821 H 0.49595 0.50472 0.41939 0.0
H2822 H 0.5234 0.51163 0.37077 0.0
H2823 H 0.5035 0.53522 0.36293 0.0
H2824 H 0.49506 0.47637 0.40142 0.0
H2825 H 0.56345 0.49919 0.40147 0.0
H2826 H 0.54524 0.51406 0.40209 0.0
H2827 H 0.5523 0.5048 0.38172 0.0
C2828 C 0.48649 0.52486 0.40261 0.0
C2829 C 0.48809 0.53318 0.38644 0.0
C2830 C 0.49811 0.51171 0.40731 0.0
C2831 C 0.51122 0.50634 0.39569 0.0
C2832 C 0.51371 0.51573 0.38016 0.0
H2833 H 0.53685 0.39592 0.39358 0.0
H2834 H 0.52881 0.42536 0.38441 0.0
C2835 C 0.50234 0.52927 0.37569 0.0
C2836 C 0.51986 0.48923 0.39838 0.0
H2837 H 0.55912 0.46826 0.39938 0.0
C2838 C 0.5091 0.47468 0.40115 0.0
C2839 C 0.53815 0.48695 0.39792 0.0
C2840 C 0.55045 0.50212 0.39581 0.0
C2841 C 0.51603 0.45801 0.40366 0.0
C2842 C 0.53428 0.45559 0.40259 0.0
C2843 C 0.54512 0.4701 0.39985 0.0
C2844 C 0.54224 0.43824 0.40562 0.0
C2845 C 0.5037 0.44328 0.40799 0.0
C2846 C 0.5536 0.43584 0.41972 0.0
C2847 C 0.55854 0.41907 0.42476 0.0
C2848 C 0.55203 0.40438 0.4159 0.0
C2849 C 0.54188 0.40693 0.40085 0.0
C2850 C 0.53718 0.42374 0.39566 0.0
H2851 H 0.49095 0.44817 0.41282 0.0
H2852 H 0.50118 0.43548 0.39608 0.0
H2853 H 0.50932 0.43453 0.41806 0.0
H2854 H 0.55781 0.44685 0.42749 0.0
H2855 H 0.56653 0.41765 0.4363 0.0
H2856 H 0.34973 0.23849 0.28408 0.0
H2857 H 0.34195 0.25889 0.26108 0.0
H2858 H 0.37443 0.23075 0.22484 0.0
H2859 H 0.38232 0.21008 0.24805 0.0
H2860 H 0.3822 0.26652 0.22749 0.0
H2861 H 0.31163 0.25702 0.21732 0.0
H2862 H 0.31685 0.25827 0.24007 0.0
H2863 H 0.32531 0.24058 0.22717 0.0
C2864 C 0.35482 0.23633 0.27109 0.0
C2865 C 0.36658 0.22269 0.26781 0.0
C2866 C 0.35031 0.24795 0.25792 0.0
C2867 C 0.35746 0.24622 0.2412 0.0
C2868 C 0.36864 0.23217 0.23763 0.0
H2869 H 0.3209 0.33329 0.17767 0.0
H2870 H 0.3314 0.30379 0.18328 0.0
C2871 C 0.37303 0.22034 0.25083 0.0
C2872 C 0.3548 0.26044 0.22845 0.0
H2873 H 0.32266 0.28623 0.21194 0.0
C2874 C 0.36923 0.2706 0.22364 0.0
C2875 C 0.33793 0.26564 0.22323 0.0
C2876 C 0.32208 0.25468 0.22707 0.0
C2877 C 0.36706 0.28661 0.21505 0.0
C2878 C 0.35002 0.29266 0.21145 0.0
C2879 C 0.33573 0.28174 0.2149 0.0
C2880 C 0.34646 0.31086 0.20604 0.0
C2881 C 0.383 0.29713 0.21045 0.0
C2882 C 0.3518 0.32475 0.2167 0.0
C2883 C 0.34589 0.34166 0.2135 0.0
C2884 C 0.33427 0.34498 0.19973 0.0
C2885 C 0.32974 0.33121 0.18847 0.0
C2886 C 0.33573 0.31431 0.19164 0.0
H2887 H 0.39437 0.28852 0.20796 0.0
H2888 H 0.38073 0.30537 0.19877 0.0
H2889 H 0.38639 0.30573 0.22157 0.0
H2890 H 0.35973 0.32237 0.22813 0.0
H2891 H 0.34964 0.35191 0.22245 0.0
H2892 H 0.82669 0.16105 0.82173 0.0
H2893 H 0.83779 0.19041 0.81655 0.0
H2894 H 0.8586 0.17388 0.76704 0.0
H2895 H 0.84807 0.14436 0.77231 0.0
H2896 H 0.8794 0.19864 0.78357 0.0
H2897 H 0.80977 0.21911 0.7817 0.0
H2898 H 0.81716 0.20954 0.80173 0.0
H2899 H 0.81618 0.19652 0.7823 0.0
C2900 C 0.83399 0.16352 0.80991 0.0
C2901 C 0.83609 0.15043 0.79721 0.0
C2902 C 0.84025 0.18036 0.80695 0.0
C2903 C 0.84854 0.18442 0.79119 0.0
C2904 C 0.85208 0.17104 0.77924 0.0
H2905 H 0.8501 0.26111 0.71704 0.0
H2906 H 0.8439 0.23896 0.73887 0.0
C2907 C 0.846 0.15415 0.78226 0.0
C2908 C 0.8518 0.20277 0.78612 0.0
H2909 H 0.83054 0.23971 0.77333 0.0
C2910 C 0.8688 0.20779 0.78166 0.0
C2911 C 0.83786 0.2146 0.78354 0.0
C2912 C 0.81919 0.20971 0.78742 0.0
C2913 C 0.87213 0.22399 0.77382 0.0
C2914 C 0.85809 0.23551 0.77062 0.0
C2915 C 0.84126 0.2309 0.77601 0.0
C2916 C 0.86003 0.25064 0.75884 0.0
C2917 C 0.89039 0.22813 0.76781 0.0
C2918 C 0.8706 0.26497 0.76309 0.0
C2919 C 0.87411 0.27781 0.75057 0.0
C2920 C 0.86715 0.27631 0.73369 0.0
C2921 C 0.85569 0.26255 0.72993 0.0
C2922 C 0.85213 0.24989 0.74239 0.0
H2923 H 0.89944 0.21697 0.76963 0.0
H2924 H 0.89033 0.2318 0.75382 0.0
H2925 H 0.89549 0.23938 0.77532 0.0
H2926 H 0.87665 0.26585 0.77581 0.0
H2927 H 0.88309 0.28822 0.75373 0.0
H2928 H 0.98763 0.59882 0.96687 0.0
H2929 H 0.00972 0.59234 0.98876 0.0
H2930 H 0.9838 0.62631 0.02528 0.0
H2931 H 0.96139 0.6328 0.00327 0.0
H2932 H 0.02006 0.63388 0.01885 0.0
H2933 H 0.00987 0.56433 0.0348 0.0
H2934 H 0.00923 0.56846 0.01178 0.0
H2935 H 0.99289 0.5779 0.02569 0.0
C2936 C 0.98633 0.60451 0.97973 0.0
C2937 C 0.97278 0.61622 0.98345 0.0
C2938 C 0.99893 0.60076 0.99224 0.0
C2939 C 0.99829 0.60873 0.00867 0.0
C2940 C 0.98439 0.61991 0.01271 0.0
H2941 H 0.087 0.57549 0.07152 0.0
H2942 H 0.05778 0.58671 0.06597 0.0
C2943 C 0.97157 0.6235 0.00021 0.0
C2944 C 0.01329 0.60669 0.02058 0.0
H2945 H 0.03914 0.57534 0.03844 0.0
C2946 C 0.02406 0.62117 0.02357 0.0
C2947 C 0.01838 0.59016 0.02685 0.0
C2948 C 0.00689 0.57435 0.02478 0.0
C2949 C 0.04044 0.61928 0.03149 0.0
C2950 C 0.0462 0.60246 0.03633 0.0
C2951 C 0.03482 0.58823 0.03458 0.0
C2952 C 0.06448 0.59886 0.04144 0.0
C2953 C 0.05163 0.63521 0.03411 0.0
C2954 C 0.07809 0.60243 0.02975 0.0
C2955 C 0.09486 0.59607 0.03288 0.0
C2956 C 0.09826 0.58579 0.04766 0.0
C2957 C 0.08485 0.58323 0.05992 0.0
C2958 C 0.0681 0.58965 0.05679 0.0
H2959 H 0.04351 0.6471 0.03563 0.0
H2960 H 0.06014 0.63384 0.04574 0.0
H2961 H 0.06003 0.63707 0.02249 0.0
H2962 H 0.07554 0.60921 0.01764 0.0
H2963 H 0.10485 0.59832 0.02316 0.0
H2964 H 0.68496 0.83122 0.31419 0.0
H2965 H 0.67581 0.80236 0.30463 0.0
H2966 H 0.63401 0.82531 0.2749 0.0
H2967 H 0.64346 0.85437 0.28387 0.0
H2968 H 0.64665 0.78156 0.30453 0.0
H2969 H 0.66381 0.80277 0.23756 0.0
H2970 H 0.6688 0.81568 0.25653 0.0
H2971 H 0.64718 0.81588 0.24744 0.0
C2972 C 0.6736 0.83017 0.30589 0.0
C2973 C 0.6652 0.84516 0.29946 0.0
C2974 C 0.66837 0.81361 0.30046 0.0
C2975 C 0.65456 0.81174 0.28866 0.0
C2976 C 0.64502 0.82653 0.28364 0.0
H2977 H 0.60945 0.71741 0.24645 0.0
H2978 H 0.61737 0.74087 0.26654 0.0
C2979 C 0.65038 0.84312 0.28887 0.0
C2980 C 0.65142 0.79468 0.28018 0.0
H2981 H 0.65107 0.77495 0.2404 0.0
C2982 C 0.64763 0.78005 0.29051 0.0
C2983 C 0.65319 0.79267 0.26194 0.0
C2984 C 0.65864 0.80753 0.25022 0.0
C2985 C 0.64524 0.76349 0.28301 0.0
C2986 C 0.64631 0.76166 0.26469 0.0
C2987 C 0.65026 0.7763 0.25445 0.0
C2988 C 0.64304 0.74494 0.25551 0.0
C2989 C 0.64196 0.74813 0.29481 0.0
C2990 C 0.65493 0.73911 0.24285 0.0
C2991 C 0.65023 0.72602 0.23115 0.0
C2992 C 0.63376 0.71823 0.23223 0.0
C2993 C 0.62243 0.72293 0.24577 0.0
C2994 C 0.62696 0.73635 0.25725 0.0
H2995 H 0.64723 0.75045 0.30809 0.0
H2996 H 0.6277 0.74607 0.29604 0.0
H2997 H 0.64788 0.73604 0.28951 0.0
H2998 H 0.66739 0.74554 0.24123 0.0
H2999 H 0.65898 0.72278 0.22054 0.0
H3000 H 0.41709 0.43577 0.56299 0.0
H3001 H 0.44558 0.4256 0.55336 0.0
H3002 H 0.4212 0.38364 0.52502 0.0
H3003 H 0.39249 0.39416 0.534 0.0
H3004 H 0.46557 0.39639 0.5541 0.0
H3005 H 0.44429 0.41097 0.48652 0.0
H3006 H 0.43148 0.41687 0.50528 0.0
H3007 H 0.43106 0.39489 0.49711 0.0
C3008 C 0.41774 0.42418 0.55497 0.0
C3009 C 0.40246 0.41601 0.54893 0.0
C3010 C 0.43408 0.41837 0.5495 0.0
C3011 C 0.43547 0.40418 0.53806 0.0
C3012 C 0.42037 0.39494 0.53344 0.0
H3013 H 0.53114 0.35859 0.49754 0.0
H3014 H 0.50693 0.36611 0.51694 0.0
C3015 C 0.40398 0.4009 0.53867 0.0
C3016 C 0.4524 0.4003 0.52962 0.0
H3017 H 0.47205 0.39829 0.48984 0.0
C3018 C 0.46704 0.3968 0.54005 0.0
C3019 C 0.45437 0.40128 0.51131 0.0
C3020 C 0.43953 0.40638 0.4994 0.0
C3021 C 0.48358 0.39409 0.53262 0.0
C3022 C 0.48539 0.39451 0.51427 0.0
C3023 C 0.47071 0.39799 0.50391 0.0
C3024 C 0.5022 0.39137 0.50523 0.0
C3025 C 0.49897 0.39129 0.54452 0.0
C3026 C 0.50784 0.40313 0.49237 0.0
C3027 C 0.52133 0.39864 0.48106 0.0
C3028 C 0.52973 0.38252 0.48272 0.0
C3029 C 0.52512 0.37132 0.49641 0.0
C3030 C 0.51128 0.37562 0.50748 0.0
H3031 H 0.49657 0.39681 0.55768 0.0
H3032 H 0.50125 0.37709 0.54605 0.0
H3033 H 0.51098 0.39727 0.5391 0.0
H3034 H 0.50105 0.41535 0.49037 0.0
H3035 H 0.52453 0.40731 0.47038 0.0
H3036 H 0.17786 0.66613 0.67835 0.0
H3037 H 0.16878 0.69598 0.68471 0.0
H3038 H 0.14047 0.67788 0.72973 0.0
H3039 H 0.14911 0.64799 0.72334 0.0
H3040 H 0.12383 0.70547 0.71195 0.0
H3041 H 0.19372 0.71953 0.72579 0.0
H3042 H 0.18866 0.7118 0.70428 0.0
H3043 H 0.18573 0.69766 0.72269 0.0
C3044 C 0.16938 0.66841 0.6894 0.0
C3045 C 0.16453 0.65467 0.70056 0.0
C3046 C 0.16427 0.68551 0.69303 0.0
C3047 C 0.15433 0.68916 0.70792 0.0
C3048 C 0.14825 0.67533 0.71823 0.0
H3049 H 0.14623 0.7609 0.78695 0.0
H3050 H 0.15376 0.73923 0.76503 0.0
C3051 C 0.15325 0.65823 0.71456 0.0
C3052 C 0.15173 0.70729 0.71397 0.0
H3053 H 0.17348 0.74113 0.733 0.0
C3054 C 0.13467 0.71348 0.71621 0.0
C3055 C 0.16595 0.71759 0.71965 0.0
C3056 C 0.18456 0.71134 0.71814 0.0
C3057 C 0.1314 0.72932 0.72478 0.0
C3058 C 0.14561 0.73925 0.73104 0.0
C3059 C 0.16268 0.73352 0.72797 0.0
C3060 C 0.14296 0.75376 0.74343 0.0
C3061 C 0.1128 0.73473 0.72816 0.0
C3062 C 0.13494 0.76942 0.73841 0.0
C3063 C 0.13068 0.78198 0.75098 0.0
C3064 C 0.1343 0.77888 0.76868 0.0
C3065 C 0.1432 0.7636 0.77343 0.0
C3066 C 0.14753 0.75121 0.76092 0.0
H3067 H 0.10329 0.72471 0.72385 0.0
H3068 H 0.11081 0.73724 0.74227 0.0
H3069 H 0.11 0.74702 0.72107 0.0
H3070 H 0.13146 0.77166 0.72492 0.0
H3071 H 0.12374 0.7936 0.747 0.0
H3072 H 0.46382 0.86054 0.00081 0.0
H3073 H 0.48821 0.86594 0.98078 0.0
H3074 H 0.50217 0.91172 0.01027 0.0
H3075 H 0.47833 0.90595 0.0306 0.0
H3076 H 0.50201 0.89311 0.95987 0.0
H3077 H 0.54363 0.87881 0.01697 0.0
H3078 H 0.52046 0.87489 0.01692 0.0
H3079 H 0.52882 0.8964 0.02114 0.0
C3080 C 0.47169 0.87214 0.00253 0.0
C3081 C 0.4693 0.88288 0.01714 0.0
C3082 C 0.48568 0.87512 0.99119 0.0
C3083 C 0.49721 0.88897 0.99434 0.0
C3084 C 0.49361 0.90075 0.00786 0.0
H3085 H 0.58052 0.93672 0.93997 0.0
H3086 H 0.55237 0.92507 0.94849 0.0
C3087 C 0.47991 0.89758 0.01934 0.0
C3088 C 0.51406 0.89008 0.98502 0.0
H3089 H 0.55773 0.89217 0.99265 0.0
C3090 C 0.51425 0.89272 0.96693 0.0
C3091 C 0.53001 0.88888 0.99417 0.0
C3092 C 0.53077 0.88439 0.01333 0.0
C3093 C 0.53 0.89527 0.95793 0.0
C3094 C 0.54587 0.8957 0.9674 0.0
C3095 C 0.54564 0.89205 0.98533 0.0
C3096 C 0.56269 0.90123 0.95953 0.0
C3097 C 0.52942 0.89746 0.93841 0.0
C3098 C 0.57805 0.89181 0.96291 0.0
C3099 C 0.59431 0.89875 0.95851 0.0
C3100 C 0.59551 0.91512 0.95042 0.0
C3101 C 0.58008 0.924 0.94604 0.0
C3102 C 0.56388 0.91724 0.95078 0.0
H3103 H 0.51839 0.89002 0.9327 0.0
H3104 H 0.52732 0.91142 0.93525 0.0
H3105 H 0.5417 0.89307 0.93216 0.0
H3106 H 0.57751 0.87944 0.96968 0.0
H3107 H 0.60596 0.89158 0.96201 0.0
H3108 H 0.89405 0.10624 0.46348 0.0
H3109 H 0.9229 0.11782 0.4704 0.0
H3110 H 0.94673 0.07373 0.44489 0.0
H3111 H 0.91815 0.06264 0.43716 0.0
H3112 H 0.94373 0.10314 0.49145 0.0
H3113 H 0.97996 0.11 0.42987 0.0
H3114 H 0.95664 0.10701 0.43034 0.0
H3115 H 0.97108 0.08848 0.43136 0.0
C3116 C 0.90545 0.09931 0.45888 0.0
C3117 C 0.90376 0.08347 0.44986 0.0
C3118 C 0.92196 0.10593 0.46286 0.0
C3119 C 0.93708 0.09676 0.45806 0.0
C3120 C 0.93538 0.08137 0.44832 0.0
H3121 H 0.02467 0.09082 0.52563 0.0
H3122 H 0.00106 0.08415 0.50531 0.0
C3123 C 0.91892 0.07492 0.44406 0.0
C3124 C 0.9543 0.1017 0.46545 0.0
H3125 H 0.99767 0.1055 0.45588 0.0
C3126 C 0.95543 0.10395 0.48356 0.0
C3127 C 0.96964 0.10297 0.45524 0.0
C3128 C 0.96922 0.10217 0.43561 0.0
C3129 C 0.97145 0.1067 0.49181 0.0
C3130 C 0.98694 0.10649 0.48178 0.0
C3131 C 0.98583 0.10512 0.46359 0.0
C3132 C 0.00423 0.10779 0.49026 0.0
C3133 C 0.97158 0.10983 0.51126 0.0
C3134 C 0.01493 0.12234 0.48735 0.0
C3135 C 0.02889 0.1258 0.49858 0.0
C3136 C 0.03201 0.11487 0.51291 0.0
C3137 C 0.02255 0.09933 0.51457 0.0
C3138 C 0.00892 0.09567 0.50313 0.0
H3139 H 0.95875 0.11463 0.51597 0.0
H3140 H 0.97442 0.09741 0.51809 0.0
H3141 H 0.9817 0.11947 0.51493 0.0
H3142 H 0.01158 0.1318 0.47742 0.0
H3143 H 0.03584 0.13802 0.49728 0.0
loop_
_geom_bond_atom_site_label_1
_geom_bond_atom_site_label_2
_geom_bond_distance
_geom_bond_site_symmetry_2
_ccdc_geom_bond_type
Co0 O2 2.143 . S
Co0 O8 2.074 . S
Co0 O11 2.093 . S
Co0 O24 2.097 . S
Co0 N41 2.151 . S
Co0 N49 2.214 . S
Co1 O2 2.160 . S
Co1 O7 2.058 . S
Co1 O17 2.057 . S
Co1 O32 2.037 . S
Co1 N36 2.145 . S
Co1 N57 2.257 . S
O2 Co0 2.143 . S
O2 Co1 2.160 . S
C3 O4 1.278 . S
C3 O11 1.224 . S
O4 C3 1.278 . S
C5 O6 1.245 . S
C5 O17 1.232 . S
O6 C5 1.245 . S
O7 Co1 2.058 . S
O7 C33 1.269 . S
O8 Co0 2.074 . S
O8 C33 1.257 . S
H9 C34 0.930 . S
H10 C40 0.930 . S
O11 Co0 2.093 . S
O11 C3 1.224 . S
H12 C44 0.929 . S
H13 C46 0.930 . S
H14 C47 0.930 . S
H15 C45 0.929 . S
H16 C48 0.928 . S
O17 Co1 2.057 . S
O17 C5 1.232 . S
H18 C37 0.929 . S
H19 C38 0.929 . S
H20 C50 0.931 . S
H21 C42 0.929 . S
H22 C51 0.930 . S
H23 C43 0.931 . S
O24 Co0 2.097 . S
O24 C52 1.214 . S
H25 C53 0.929 . S
H26 C54 0.929 . S
H27 C55 0.930 . S
H28 C56 0.929 . S
H29 C58 0.930 . S
H30 C35 0.930 . S
H31 C39 0.930 . S
O32 Co1 2.037 . S
O32 C52 1.234 . S
C33 O7 1.269 . S
C33 O8 1.257 . S
C34 H9 0.930 . S
C34 C37 1.388 . S
C34 C39 1.418 . S
C35 H30 0.930 . S
C35 C38 1.404 . S
C35 C39 1.353 . S
N36 Co1 2.145 . S
N36 C37 1.397 . S
N36 C38 1.334 . S
C37 H18 0.929 . S
C37 C34 1.388 . S
C37 N36 1.397 . S
C38 H19 0.929 . S
C38 C35 1.404 . S
C38 N36 1.334 . S
C39 H31 0.930 . S
C39 C34 1.418 . S
C39 C35 1.353 . S
C40 H10 0.930 . S
C40 N41 1.330 . S
C40 C42 1.446 . S
N41 Co0 2.151 . S
N41 C40 1.330 . S
N41 C45 1.418 . S
C42 H21 0.929 . S
C42 C40 1.446 . S
C42 C43 1.332 . S
C43 H23 0.931 . S
C43 C42 1.332 . S
C43 C44 1.267 . S
C44 H12 0.929 . S
C44 C43 1.267 . S
C44 C45 1.251 . S
C45 H15 0.929 . S
C45 N41 1.418 . S
C45 C44 1.251 . S
C46 H13 0.930 . S
C46 C48 1.406 . S
C46 C51 1.261 . S
C47 H14 0.930 . S
C47 N49 1.325 . S
C47 C50 1.357 . S
C48 H16 0.928 . S
C48 C46 1.406 . S
C48 N49 1.261 . S
N49 Co0 2.214 . S
N49 C47 1.325 . S
N49 C48 1.261 . S
C50 H20 0.931 . S
C50 C47 1.357 . S
C50 C51 1.312 . S
C51 H22 0.930 . S
C51 C46 1.261 . S
C51 C50 1.312 . S
C52 O24 1.214 . S
C52 O32 1.234 . S
C53 H25 0.929 . S
C53 C56 1.391 . S
C53 C58 1.391 . S
C54 H26 0.929 . S
C54 C55 1.390 . S
C54 N57 1.391 . S
C55 H27 0.930 . S
C55 C54 1.390 . S
C55 C56 1.392 . S
C56 H28 0.929 . S
C56 C53 1.391 . S
C56 C55 1.392 . S
N57 Co1 2.257 . S
N57 C54 1.391 . S
N57 C58 1.388 . S
C58 H29 0.930 . S
C58 C53 1.391 . S
C58 N57 1.388 . S
Co59 O61 2.143 . S
Co59 O67 2.074 . S
Co59 O70 2.093 . S
Co59 O83 2.097 . S
Co59 N100 2.151 . S
Co59 N108 2.214 . S
Co60 O61 2.160 . S
Co60 O66 2.058 . S
Co60 O76 2.057 . S
Co60 O91 2.037 . S
Co60 N95 2.145 . S
Co60 N116 2.257 . S
O61 Co59 2.143 . S
O61 Co60 2.160 . S
C62 O63 1.278 . S
C62 O70 1.224 . S
O63 C62 1.278 . S
C64 O65 1.245 . S
C64 O76 1.232 . S
O65 C64 1.245 . S
O66 Co60 2.058 . S
O66 C92 1.269 . S
O67 Co59 2.074 . S
O67 C92 1.257 . S
H68 C93 0.930 . S
H69 C99 0.930 . S
O70 Co59 2.093 . S
O70 C62 1.224 . S
H71 C103 0.929 . S
H72 C105 0.930 . S
H73 C106 0.930 . S
H74 C104 0.929 . S
H75 C107 0.928 . S
O76 Co60 2.057 . S
O76 C64 1.232 . S
H77 C96 0.929 . S
H78 C97 0.929 . S
H79 C109 0.931 . S
H80 C101 0.929 . S
H81 C110 0.930 . S
H82 C102 0.931 1_545 S
O83 Co59 2.097 . S
O83 C111 1.214 . S
H84 C112 0.929 . S
H85 C113 0.929 . S
H86 C114 0.930 . S
H87 C115 0.929 . S
H88 C117 0.930 . S
H89 C94 0.930 . S
H90 C98 0.930 . S
O91 Co60 2.037 . S
O91 C111 1.234 . S
C92 O66 1.269 . S
C92 O67 1.257 . S
C93 H68 0.930 . S
C93 C96 1.388 . S
C93 C98 1.418 . S
C94 H89 0.930 . S
C94 C97 1.404 . S
C94 C98 1.353 . S
N95 Co60 2.145 . S
N95 C96 1.397 . S
N95 C97 1.334 . S
C96 H77 0.929 . S
C96 C93 1.388 . S
C96 N95 1.397 . S
C97 H78 0.929 . S
C97 C94 1.404 . S
C97 N95 1.334 . S
C98 H90 0.930 . S
C98 C93 1.418 . S
C98 C94 1.353 . S
C99 H69 0.930 . S
C99 N100 1.330 . S
C99 C101 1.446 . S
N100 Co59 2.151 . S
N100 C99 1.330 . S
N100 C104 1.418 . S
C101 H80 0.929 . S
C101 C99 1.446 . S
C101 C102 1.331 . S
C102 H82 0.931 1_565 S
C102 C101 1.331 . S
C102 C103 1.267 1_565 S
C103 H71 0.929 . S
C103 C102 1.267 1_545 S
C103 C104 1.251 1_545 S
C104 H74 0.929 . S
C104 N100 1.418 . S
C104 C103 1.251 1_565 S
C105 H72 0.930 . S
C105 C107 1.406 . S
C105 C110 1.261 . S
C106 H73 0.930 . S
C106 N108 1.325 . S
C106 C109 1.357 1_565 S
C107 H75 0.928 . S
C107 C105 1.406 . S
C107 N108 1.261 1_545 S
N108 Co59 2.214 . S
N108 C106 1.325 . S
N108 C107 1.261 1_565 S
C109 H79 0.931 . S
C109 C106 1.357 1_545 S
C109 C110 1.312 . S
C110 H81 0.930 . S
C110 C105 1.261 . S
C110 C109 1.312 . S
C111 O83 1.214 . S
C111 O91 1.234 . S
C112 H84 0.929 . S
C112 C115 1.391 . S
C112 C117 1.391 . S
C113 H85 0.929 . S
C113 C114 1.390 . S
C113 N116 1.391 . S
C114 H86 0.930 . S
C114 C113 1.390 . S
C114 C115 1.392 . S
C115 H87 0.929 . S
C115 C112 1.391 . S
C115 C114 1.392 . S
N116 Co60 2.257 . S
N116 C113 1.391 . S
N116 C117 1.388 . S
C117 H88 0.930 . S
C117 C112 1.391 . S
C117 N116 1.388 . S
Co118 O120 2.143 . S
Co118 O126 2.074 . S
Co118 O129 2.093 . S
Co118 O142 2.097 . S
Co118 N159 2.151 . S
Co118 N167 2.214 . S
Co119 O120 2.160 . S
Co119 O125 2.058 . S
Co119 O135 2.057 . S
Co119 O150 2.037 . S
Co119 N154 2.145 . S
Co119 N175 2.257 . S
O120 Co118 2.143 . S
O120 Co119 2.160 . S
C121 O122 1.278 . S
C121 O129 1.224 . S
O122 C121 1.278 . S
C123 O124 1.245 . S
C123 O135 1.232 . S
O124 C123 1.245 . S
O125 Co119 2.058 . S
O125 C151 1.269 . S
O126 Co118 2.074 . S
O126 C151 1.257 . S
H127 C152 0.930 . S
H128 C158 0.930 . S
O129 Co118 2.093 . S
O129 C121 1.224 . S
H130 C162 0.929 . S
H131 C164 0.930 . S
H132 C165 0.930 . S
H133 C163 0.929 . S
H134 C166 0.928 . S
O135 Co119 2.057 . S
O135 C123 1.232 . S
H136 C155 0.929 . S
H137 C156 0.929 . S
H138 C168 0.931 . S
H139 C160 0.929 . S
H140 C169 0.930 . S
H141 C161 0.931 . S
O142 Co118 2.097 . S
O142 C170 1.214 . S
H143 C171 0.929 . S
H144 C172 0.929 . S
H145 C173 0.930 . S
H146 C174 0.929 . S
H147 C176 0.930 . S
H148 C153 0.930 . S
H149 C157 0.930 . S
O150 Co119 2.037 . S
O150 C170 1.234 . S
C151 O125 1.269 . S
C151 O126 1.257 . S
C152 H127 0.930 . S
C152 C155 1.388 . S
C152 C157 1.418 . S
C153 H148 0.930 . S
C153 C156 1.404 . S
C153 C157 1.353 . S
N154 Co119 2.145 . S
N154 C155 1.397 . S
N154 C156 1.334 . S
C155 H136 0.929 . S
C155 C152 1.388 . S
C155 N154 1.397 . S
C156 H137 0.929 . S
C156 C153 1.404 . S
C156 N154 1.334 . S
C157 H149 0.930 . S
C157 C152 1.418 . S
C157 C153 1.353 . S
C158 H128 0.930 . S
C158 N159 1.330 . S
C158 C160 1.446 . S
N159 Co118 2.151 . S
N159 C158 1.330 . S
N159 C163 1.418 . S
C160 H139 0.929 . S
C160 C158 1.446 . S
C160 C161 1.332 . S
C161 H141 0.931 . S
C161 C160 1.332 . S
C161 C162 1.267 . S
C162 H130 0.929 . S
C162 C161 1.267 . S
C162 C163 1.251 . S
C163 H133 0.929 . S
C163 N159 1.418 . S
C163 C162 1.251 . S
C164 H131 0.930 . S
C164 C166 1.406 . S
C164 C169 1.261 . S
C165 H132 0.930 . S
C165 N167 1.325 . S
C165 C168 1.357 . S
C166 H134 0.928 . S
C166 C164 1.406 . S
C166 N167 1.261 . S
N167 Co118 2.214 . S
N167 C165 1.325 . S
N167 C166 1.261 . S
C168 H138 0.931 . S
C168 C165 1.357 . S
C168 C169 1.312 . S
C169 H140 0.930 . S
C169 C164 1.261 . S
C169 C168 1.312 . S
C170 O142 1.214 . S
C170 O150 1.234 . S
C171 H143 0.929 . S
C171 C174 1.391 . S
C171 C176 1.391 . S
C172 H144 0.929 . S
C172 C173 1.390 . S
C172 N175 1.391 . S
C173 H145 0.930 . S
C173 C172 1.390 . S
C173 C174 1.392 . S
C174 H146 0.929 . S
C174 C171 1.391 . S
C174 C173 1.392 . S
N175 Co119 2.257 . S
N175 C172 1.391 . S
N175 C176 1.388 . S
C176 H147 0.930 . S
C176 C171 1.391 . S
C176 N175 1.388 . S
Co177 O179 2.143 . S
Co177 O185 2.074 . S
Co177 O188 2.093 . S
Co177 O201 2.097 . S
Co177 N218 2.151 . S
Co177 N226 2.214 . S
Co178 O179 2.160 . S
Co178 O184 2.058 . S
Co178 O194 2.057 . S
Co178 O209 2.037 . S
Co178 N213 2.145 . S
Co178 N234 2.257 . S
O179 Co177 2.143 . S
O179 Co178 2.160 . S
C180 O181 1.278 . S
C180 O188 1.224 . S
O181 C180 1.278 . S
C182 O183 1.245 . S
C182 O194 1.232 . S
O183 C182 1.245 . S
O184 Co178 2.058 . S
O184 C210 1.269 . S
O185 Co177 2.074 . S
O185 C210 1.257 . S
H186 C211 0.930 . S
H187 C217 0.930 . S
O188 Co177 2.093 . S
O188 C180 1.224 . S
H189 C221 0.929 . S
H190 C223 0.930 . S
H191 C224 0.930 . S
H192 C222 0.929 . S
H193 C225 0.928 . S
O194 Co178 2.057 . S
O194 C182 1.232 . S
H195 C214 0.929 . S
H196 C215 0.929 . S
H197 C227 0.931 . S
H198 C219 0.929 . S
H199 C228 0.930 . S
H200 C220 0.931 1_565 S
O201 Co177 2.097 . S
O201 C229 1.214 . S
H202 C230 0.929 . S
H203 C231 0.929 . S
H204 C232 0.930 . S
H205 C233 0.929 . S
H206 C235 0.930 . S
H207 C212 0.930 . S
H208 C216 0.930 . S
O209 Co178 2.037 . S
O209 C229 1.234 . S
C210 O184 1.269 . S
C210 O185 1.257 . S
C211 H186 0.930 . S
C211 C214 1.388 . S
C211 C216 1.418 . S
C212 H207 0.930 . S
C212 C215 1.404 . S
C212 C216 1.353 . S
N213 Co178 2.145 . S
N213 C214 1.397 . S
N213 C215 1.334 . S
C214 H195 0.929 . S
C214 C211 1.388 . S
C214 N213 1.397 . S
C215 H196 0.929 . S
C215 C212 1.404 . S
C215 N213 1.334 . S
C216 H208 0.930 . S
C216 C211 1.418 . S
C216 C212 1.353 . S
C217 H187 0.930 . S
C217 N218 1.330 . S
C217 C219 1.446 . S
N218 Co177 2.151 . S
N218 C217 1.330 . S
N218 C222 1.418 . S
C219 H198 0.929 . S
C219 C217 1.446 . S
C219 C220 1.331 . S
C220 H200 0.931 1_545 S
C220 C219 1.331 . S
C220 C221 1.267 1_545 S
C221 H189 0.929 . S
C221 C220 1.267 1_565 S
C221 C222 1.251 1_565 S
C222 H192 0.929 . S
C222 N218 1.418 . S
C222 C221 1.251 1_545 S
C223 H190 0.930 . S
C223 C225 1.406 . S
C223 C228 1.261 . S
C224 H191 0.930 . S
C224 N226 1.325 . S
C224 C227 1.357 1_545 S
C225 H193 0.928 . S
C225 C223 1.406 . S
C225 N226 1.261 1_565 S
N226 Co177 2.214 . S
N226 C224 1.325 . S
N226 C225 1.261 1_545 S
C227 H197 0.931 . S
C227 C224 1.357 1_565 S
C227 C228 1.312 . S
C228 H199 0.930 . S
C228 C223 1.261 . S
C228 C227 1.312 . S
C229 O201 1.214 . S
C229 O209 1.234 . S
C230 H202 0.929 . S
C230 C233 1.391 . S
C230 C235 1.391 . S
C231 H203 0.929 . S
C231 C232 1.390 . S
C231 N234 1.391 . S
C232 H204 0.930 . S
C232 C231 1.390 . S
C232 C233 1.392 . S
C233 H205 0.929 . S
C233 C230 1.391 . S
C233 C232 1.392 . S
N234 Co178 2.257 . S
N234 C231 1.391 . S
N234 C235 1.388 . S
C235 H206 0.930 . S
C235 C230 1.391 . S
C235 N234 1.388 . S
Co236 O238 2.143 . S
Co236 O244 2.074 . S
Co236 O247 2.093 . S
Co236 O260 2.097 . S
Co236 N277 2.151 . S
Co236 N285 2.214 . S
Co237 O238 2.160 . S
Co237 O243 2.058 . S
Co237 O253 2.057 . S
Co237 O268 2.037 . S
Co237 N272 2.145 . S
Co237 N293 2.257 . S
O238 Co236 2.143 . S
O238 Co237 2.160 . S
C239 O240 1.278 . S
C239 O247 1.224 . S
O240 C239 1.278 . S
C241 O242 1.245 . S
C241 O253 1.232 . S
O242 C241 1.245 . S
O243 Co237 2.058 . S
O243 C269 1.269 . S
O244 Co236 2.074 . S
O244 C269 1.257 . S
H245 C270 0.930 . S
H246 C276 0.930 . S
O247 Co236 2.093 . S
O247 C239 1.224 . S
H248 C280 0.929 . S
H249 C282 0.930 . S
H250 C283 0.930 . S
H251 C281 0.929 . S
H252 C284 0.928 . S
O253 Co237 2.057 . S
O253 C241 1.232 . S
H254 C273 0.929 . S
H255 C274 0.929 . S
H256 C286 0.931 . S
H257 C278 0.929 . S
H258 C287 0.930 . S
H259 C279 0.931 . S
O260 Co236 2.097 . S
O260 C288 1.214 . S
H261 C289 0.929 . S
H262 C290 0.929 . S
H263 C291 0.930 . S
H264 C292 0.929 . S
H265 C294 0.930 . S
H266 C271 0.930 . S
H267 C275 0.930 . S
O268 Co237 2.037 . S
O268 C288 1.234 . S
C269 O243 1.269 . S
C269 O244 1.257 . S
C270 H245 0.930 . S
C270 C273 1.388 . S
C270 C275 1.418 . S
C271 H266 0.930 . S
C271 C274 1.404 . S
C271 C275 1.353 . S
N272 Co237 2.145 . S
N272 C273 1.397 . S
N272 C274 1.334 . S
C273 H254 0.929 . S
C273 C270 1.388 . S
C273 N272 1.397 . S
C274 H255 0.929 . S
C274 C271 1.404 . S
C274 N272 1.334 . S
C275 H267 0.930 . S
C275 C270 1.418 . S
C275 C271 1.353 . S
C276 H246 0.930 . S
C276 N277 1.330 . S
C276 C278 1.446 . S
N277 Co236 2.151 . S
N277 C276 1.330 . S
N277 C281 1.418 . S
C278 H257 0.929 . S
C278 C276 1.446 . S
C278 C279 1.332 . S
C279 H259 0.931 . S
C279 C278 1.332 . S
C279 C280 1.267 . S
C280 H248 0.929 . S
C280 C279 1.267 . S
C280 C281 1.251 . S
C281 H251 0.929 . S
C281 N277 1.418 . S
C281 C280 1.251 . S
C282 H249 0.930 . S
C282 C284 1.406 . S
C282 C287 1.261 . S
C283 H250 0.930 . S
C283 N285 1.325 . S
C283 C286 1.357 . S
C284 H252 0.928 . S
C284 C282 1.406 . S
C284 N285 1.261 . S
N285 Co236 2.214 . S
N285 C283 1.325 . S
N285 C284 1.261 . S
C286 H256 0.931 . S
C286 C283 1.357 . S
C286 C287 1.312 . S
C287 H258 0.930 . S
C287 C282 1.261 . S
C287 C286 1.312 . S
C288 O260 1.214 . S
C288 O268 1.234 . S
C289 H261 0.929 . S
C289 C292 1.391 . S
C289 C294 1.391 . S
C290 H262 0.929 . S
C290 C291 1.390 . S
C290 N293 1.391 . S
C291 H263 0.930 . S
C291 C290 1.390 . S
C291 C292 1.392 . S
C292 H264 0.929 . S
C292 C289 1.391 . S
C292 C291 1.392 . S
N293 Co237 2.257 . S
N293 C290 1.391 . S
N293 C294 1.388 . S
C294 H265 0.930 . S
C294 C289 1.391 . S
C294 N293 1.388 . S
Co295 O297 2.143 . S
Co295 O303 2.074 . S
Co295 O306 2.093 . S
Co295 O319 2.097 . S
Co295 N336 2.151 . S
Co295 N344 2.214 . S
Co296 O297 2.160 . S
Co296 O302 2.058 . S
Co296 O312 2.057 . S
Co296 O327 2.037 . S
Co296 N331 2.145 . S
Co296 N352 2.257 . S
O297 Co295 2.143 . S
O297 Co296 2.160 . S
C298 O299 1.278 . S
C298 O306 1.224 . S
O299 C298 1.278 . S
C300 O301 1.245 . S
C300 O312 1.232 . S
O301 C300 1.245 . S
O302 Co296 2.058 . S
O302 C328 1.269 . S
O303 Co295 2.074 . S
O303 C328 1.257 . S
H304 C329 0.930 . S
H305 C335 0.930 . S
O306 Co295 2.093 . S
O306 C298 1.224 . S
H307 C339 0.929 . S
H308 C341 0.930 . S
H309 C342 0.930 . S
H310 C340 0.929 . S
H311 C343 0.928 . S
O312 Co296 2.057 . S
O312 C300 1.232 . S
H313 C332 0.929 . S
H314 C333 0.929 . S
H315 C345 0.931 . S
H316 C337 0.929 . S
H317 C346 0.930 . S
H318 C338 0.931 . S
O319 Co295 2.097 . S
O319 C347 1.214 . S
H320 C348 0.929 . S
H321 C349 0.929 . S
H322 C350 0.930 . S
H323 C351 0.929 . S
H324 C353 0.930 . S
H325 C330 0.930 . S
H326 C334 0.930 . S
O327 Co296 2.037 . S
O327 C347 1.234 . S
C328 O302 1.269 . S
C328 O303 1.257 . S
C329 H304 0.930 . S
C329 C332 1.388 . S
C329 C334 1.418 . S
C330 H325 0.930 . S
C330 C333 1.404 . S
C330 C334 1.353 . S
N331 Co296 2.145 . S
N331 C332 1.397 . S
N331 C333 1.334 . S
C332 H313 0.929 . S
C332 C329 1.388 . S
C332 N331 1.397 . S
C333 H314 0.929 . S
C333 C330 1.404 . S
C333 N331 1.334 . S
C334 H326 0.930 . S
C334 C329 1.418 . S
C334 C330 1.353 . S
C335 H305 0.930 . S
C335 N336 1.330 . S
C335 C337 1.446 . S
N336 Co295 2.151 . S
N336 C335 1.330 . S
N336 C340 1.418 . S
C337 H316 0.929 . S
C337 C335 1.446 . S
C337 C338 1.332 . S
C338 H318 0.931 . S
C338 C337 1.332 . S
C338 C339 1.267 . S
C339 H307 0.929 . S
C339 C338 1.267 . S
C339 C340 1.251 . S
C340 H310 0.929 . S
C340 N336 1.418 . S
C340 C339 1.251 . S
C341 H308 0.930 . S
C341 C343 1.406 . S
C341 C346 1.261 . S
C342 H309 0.930 . S
C342 N344 1.325 . S
C342 C345 1.357 . S
C343 H311 0.928 . S
C343 C341 1.406 . S
C343 N344 1.261 . S
N344 Co295 2.214 . S
N344 C342 1.325 . S
N344 C343 1.261 . S
C345 H315 0.931 . S
C345 C342 1.357 . S
C345 C346 1.312 . S
C346 H317 0.930 . S
C346 C341 1.261 . S
C346 C345 1.312 . S
C347 O319 1.214 . S
C347 O327 1.234 . S
C348 H320 0.929 . S
C348 C351 1.391 . S
C348 C353 1.391 . S
C349 H321 0.929 . S
C349 C350 1.390 . S
C349 N352 1.391 . S
C350 H322 0.930 . S
C350 C349 1.390 . S
C350 C351 1.392 . S
C351 H323 0.929 . S
C351 C348 1.391 . S
C351 C350 1.392 . S
N352 Co296 2.257 . S
N352 C349 1.391 . S
N352 C353 1.388 . S
C353 H324 0.930 . S
C353 C348 1.391 . S
C353 N352 1.388 . S
Co354 O356 2.143 . S
Co354 O362 2.074 . S
Co354 O365 2.093 . S
Co354 O378 2.097 . S
Co354 N395 2.151 . S
Co354 N403 2.214 . S
Co355 O356 2.160 . S
Co355 O361 2.058 . S
Co355 O371 2.057 . S
Co355 O386 2.037 . S
Co355 N390 2.145 . S
Co355 N411 2.257 . S
O356 Co354 2.143 . S
O356 Co355 2.160 . S
C357 O358 1.278 . S
C357 O365 1.224 . S
O358 C357 1.278 . S
C359 O360 1.245 . S
C359 O371 1.232 . S
O360 C359 1.245 . S
O361 Co355 2.058 . S
O361 C387 1.269 . S
O362 Co354 2.074 . S
O362 C387 1.257 . S
H363 C388 0.930 . S
H364 C394 0.930 . S
O365 Co354 2.093 . S
O365 C357 1.224 . S
H366 C398 0.929 . S
H367 C400 0.930 . S
H368 C401 0.930 . S
H369 C399 0.929 . S
H370 C402 0.928 . S
O371 Co355 2.057 . S
O371 C359 1.232 . S
H372 C391 0.929 . S
H373 C392 0.929 . S
H374 C404 0.931 . S
H375 C396 0.929 . S
H376 C405 0.930 . S
H377 C397 0.931 . S
O378 Co354 2.097 . S
O378 C406 1.214 . S
H379 C407 0.929 . S
H380 C408 0.929 . S
H381 C409 0.930 . S
H382 C410 0.929 . S
H383 C412 0.930 . S
H384 C389 0.930 . S
H385 C393 0.930 . S
O386 Co355 2.037 . S
O386 C406 1.234 . S
C387 O361 1.269 . S
C387 O362 1.257 . S
C388 H363 0.930 . S
C388 C391 1.388 . S
C388 C393 1.418 . S
C389 H384 0.930 . S
C389 C392 1.404 . S
C389 C393 1.353 . S
N390 Co355 2.145 . S
N390 C391 1.397 . S
N390 C392 1.334 . S
C391 H372 0.929 . S
C391 C388 1.388 . S
C391 N390 1.397 . S
C392 H373 0.929 . S
C392 C389 1.404 . S
C392 N390 1.334 . S
C393 H385 0.930 . S
C393 C388 1.418 . S
C393 C389 1.353 . S
C394 H364 0.930 . S
C394 N395 1.330 . S
C394 C396 1.446 . S
N395 Co354 2.151 . S
N395 C394 1.330 . S
N395 C399 1.418 . S
C396 H375 0.929 . S
C396 C394 1.446 . S
C396 C397 1.332 . S
C397 H377 0.931 . S
C397 C396 1.332 . S
C397 C398 1.267 . S
C398 H366 0.929 . S
C398 C397 1.267 . S
C398 C399 1.251 . S
C399 H369 0.929 . S
C399 N395 1.418 . S
C399 C398 1.251 . S
C400 H367 0.930 . S
C400 C402 1.406 . S
C400 C405 1.261 . S
C401 H368 0.930 . S
C401 N403 1.325 . S
C401 C404 1.357 . S
C402 H370 0.928 . S
C402 C400 1.406 . S
C402 N403 1.261 . S
N403 Co354 2.214 . S
N403 C401 1.325 . S
N403 C402 1.261 . S
C404 H374 0.931 . S
C404 C401 1.357 . S
C404 C405 1.312 . S
C405 H376 0.930 . S
C405 C400 1.261 . S
C405 C404 1.312 . S
C406 O378 1.214 . S
C406 O386 1.234 . S
C407 H379 0.929 . S
C407 C410 1.391 . S
C407 C412 1.391 . S
C408 H380 0.929 . S
C408 C409 1.390 . S
C408 N411 1.391 . S
C409 H381 0.930 . S
C409 C408 1.390 . S
C409 C410 1.392 . S
C410 H382 0.929 . S
C410 C407 1.391 . S
C410 C409 1.392 . S
N411 Co355 2.257 . S
N411 C408 1.391 . S
N411 C412 1.388 . S
C412 H383 0.930 . S
C412 C407 1.391 . S
C412 N411 1.388 . S
Co413 O415 2.143 . S
Co413 O421 2.074 . S
Co413 O424 2.093 . S
Co413 O437 2.097 . S
Co413 N454 2.151 . S
Co413 N462 2.214 . S
Co414 O415 2.160 . S
Co414 O420 2.058 . S
Co414 O430 2.057 . S
Co414 O445 2.037 . S
Co414 N449 2.145 . S
Co414 N470 2.257 . S
O415 Co413 2.143 . S
O415 Co414 2.160 . S
C416 O417 1.278 . S
C416 O424 1.224 . S
O417 C416 1.278 . S
C418 O419 1.245 . S
C418 O430 1.232 . S
O419 C418 1.245 . S
O420 Co414 2.058 . S
O420 C446 1.269 . S
O421 Co413 2.074 . S
O421 C446 1.257 . S
H422 C447 0.930 . S
H423 C453 0.930 . S
O424 Co413 2.093 . S
O424 C416 1.224 . S
H425 C457 0.929 . S
H426 C459 0.930 . S
H427 C460 0.930 . S
H428 C458 0.929 . S
H429 C461 0.928 . S
O430 Co414 2.057 . S
O430 C418 1.232 . S
H431 C450 0.929 . S
H432 C451 0.929 . S
H433 C463 0.931 . S
H434 C455 0.929 . S
H435 C464 0.930 . S
H436 C456 0.931 . S
O437 Co413 2.097 . S
O437 C465 1.214 . S
H438 C466 0.929 . S
H439 C467 0.929 . S
H440 C468 0.930 . S
H441 C469 0.929 . S
H442 C471 0.930 . S
H443 C448 0.930 . S
H444 C452 0.930 . S
O445 Co414 2.037 . S
O445 C465 1.234 . S
C446 O420 1.269 . S
C446 O421 1.257 . S
C447 H422 0.930 . S
C447 C450 1.388 . S
C447 C452 1.418 . S
C448 H443 0.930 . S
C448 C451 1.404 . S
C448 C452 1.353 . S
N449 Co414 2.145 . S
N449 C450 1.397 . S
N449 C451 1.334 . S
C450 H431 0.929 . S
C450 C447 1.388 . S
C450 N449 1.397 . S
C451 H432 0.929 . S
C451 C448 1.404 . S
C451 N449 1.334 . S
C452 H444 0.930 . S
C452 C447 1.418 . S
C452 C448 1.353 . S
C453 H423 0.930 . S
C453 N454 1.330 . S
C453 C455 1.446 . S
N454 Co413 2.151 . S
N454 C453 1.330 . S
N454 C458 1.418 . S
C455 H434 0.929 . S
C455 C453 1.446 . S
C455 C456 1.332 . S
C456 H436 0.931 . S
C456 C455 1.332 . S
C456 C457 1.267 . S
C457 H425 0.929 . S
C457 C456 1.267 . S
C457 C458 1.251 . S
C458 H428 0.929 . S
C458 N454 1.418 . S
C458 C457 1.251 . S
C459 H426 0.930 . S
C459 C461 1.406 . S
C459 C464 1.261 . S
C460 H427 0.930 . S
C460 N462 1.325 . S
C460 C463 1.357 . S
C461 H429 0.928 . S
C461 C459 1.406 . S
C461 N462 1.261 . S
N462 Co413 2.214 . S
N462 C460 1.325 . S
N462 C461 1.261 . S
C463 H433 0.931 . S
C463 C460 1.357 . S
C463 C464 1.312 . S
C464 H435 0.930 . S
C464 C459 1.261 . S
C464 C463 1.312 . S
C465 O437 1.214 . S
C465 O445 1.234 . S
C466 H438 0.929 . S
C466 C469 1.391 . S
C466 C471 1.391 . S
C467 H439 0.929 . S
C467 C468 1.390 . S
C467 N470 1.391 . S
C468 H440 0.930 . S
C468 C467 1.390 . S
C468 C469 1.392 . S
C469 H441 0.929 . S
C469 C466 1.391 . S
C469 C468 1.392 . S
N470 Co414 2.257 . S
N470 C467 1.391 . S
N470 C471 1.388 . S
C471 H442 0.930 . S
C471 C466 1.391 . S
C471 N470 1.388 . S
Co472 O474 2.143 . S
Co472 O480 2.074 . S
Co472 O483 2.093 . S
Co472 O496 2.097 . S
Co472 N513 2.151 . S
Co472 N521 2.214 . S
Co473 O474 2.160 . S
Co473 O479 2.058 . S
Co473 O489 2.057 . S
Co473 O504 2.037 . S
Co473 N508 2.145 . S
Co473 N529 2.257 . S
O474 Co472 2.143 . S
O474 Co473 2.160 . S
C475 O476 1.278 . S
C475 O483 1.224 . S
O476 C475 1.278 . S
C477 O478 1.245 . S
C477 O489 1.232 . S
O478 C477 1.245 . S
O479 Co473 2.058 . S
O479 C505 1.269 . S
O480 Co472 2.074 . S
O480 C505 1.257 . S
H481 C506 0.930 . S
H482 C512 0.930 . S
O483 Co472 2.093 . S
O483 C475 1.224 . S
H484 C516 0.929 . S
H485 C518 0.930 . S
H486 C519 0.930 . S
H487 C517 0.929 . S
H488 C520 0.928 . S
O489 Co473 2.057 . S
O489 C477 1.232 . S
H490 C509 0.929 . S
H491 C510 0.929 . S
H492 C522 0.931 . S
H493 C514 0.929 . S
H494 C523 0.930 . S
H495 C515 0.931 . S
O496 Co472 2.097 . S
O496 C524 1.214 . S
H497 C525 0.929 . S
H498 C526 0.929 . S
H499 C527 0.930 . S
H500 C528 0.929 . S
H501 C530 0.930 . S
H502 C507 0.930 . S
H503 C511 0.930 . S
O504 Co473 2.037 . S
O504 C524 1.234 . S
C505 O479 1.269 . S
C505 O480 1.257 . S
C506 H481 0.930 . S
C506 C509 1.388 . S
C506 C511 1.418 . S
C507 H502 0.930 . S
C507 C510 1.404 . S
C507 C511 1.353 . S
N508 Co473 2.145 . S
N508 C509 1.397 . S
N508 C510 1.334 . S
C509 H490 0.929 . S
C509 C506 1.388 . S
C509 N508 1.397 . S
C510 H491 0.929 . S
C510 C507 1.404 . S
C510 N508 1.334 . S
C511 H503 0.930 . S
C511 C506 1.418 . S
C511 C507 1.353 . S
C512 H482 0.930 . S
C512 N513 1.330 . S
C512 C514 1.446 . S
N513 Co472 2.151 . S
N513 C512 1.330 . S
N513 C517 1.418 . S
C514 H493 0.929 . S
C514 C512 1.446 . S
C514 C515 1.332 . S
C515 H495 0.931 . S
C515 C514 1.332 . S
C515 C516 1.267 . S
C516 H484 0.929 . S
C516 C515 1.267 . S
C516 C517 1.251 . S
C517 H487 0.929 . S
C517 N513 1.418 . S
C517 C516 1.251 . S
C518 H485 0.930 . S
C518 C520 1.406 . S
C518 C523 1.261 . S
C519 H486 0.930 . S
C519 N521 1.325 . S
C519 C522 1.357 . S
C520 H488 0.928 . S
C520 C518 1.406 . S
C520 N521 1.261 . S
N521 Co472 2.214 . S
N521 C519 1.325 . S
N521 C520 1.261 . S
C522 H492 0.931 . S
C522 C519 1.357 . S
C522 C523 1.312 . S
C523 H494 0.930 . S
C523 C518 1.261 . S
C523 C522 1.312 . S
C524 O496 1.214 . S
C524 O504 1.234 . S
C525 H497 0.929 . S
C525 C528 1.391 . S
C525 C530 1.391 . S
C526 H498 0.929 . S
C526 C527 1.390 . S
C526 N529 1.391 . S
C527 H499 0.930 . S
C527 C526 1.390 . S
C527 C528 1.392 . S
C528 H500 0.929 . S
C528 C525 1.391 . S
C528 C527 1.392 . S
N529 Co473 2.257 . S
N529 C526 1.391 . S
N529 C530 1.388 . S
C530 H501 0.930 . S
C530 C525 1.391 . S
C530 N529 1.388 . S
Co531 O533 2.143 . S
Co531 O539 2.074 . S
Co531 O542 2.093 . S
Co531 O555 2.097 . S
Co531 N572 2.151 . S
Co531 N580 2.214 . S
Co532 O533 2.160 . S
Co532 O538 2.058 . S
Co532 O548 2.057 . S
Co532 O563 2.037 . S
Co532 N567 2.145 . S
Co532 N588 2.257 . S
O533 Co531 2.143 . S
O533 Co532 2.160 . S
C534 O535 1.278 . S
C534 O542 1.224 . S
O535 C534 1.278 . S
C536 O537 1.245 . S
C536 O548 1.232 . S
O537 C536 1.245 . S
O538 Co532 2.058 . S
O538 C564 1.269 . S
O539 Co531 2.074 . S
O539 C564 1.257 . S
H540 C565 0.930 . S
H541 C571 0.930 . S
O542 Co531 2.093 . S
O542 C534 1.224 . S
H543 C575 0.929 . S
H544 C577 0.930 . S
H545 C578 0.930 . S
H546 C576 0.929 . S
H547 C579 0.928 . S
O548 Co532 2.057 . S
O548 C536 1.232 . S
H549 C568 0.929 . S
H550 C569 0.929 . S
H551 C581 0.931 . S
H552 C573 0.929 . S
H553 C582 0.930 . S
H554 C574 0.931 1_655 S
O555 Co531 2.097 . S
O555 C583 1.214 . S
H556 C584 0.929 . S
H557 C585 0.929 . S
H558 C586 0.930 . S
H559 C587 0.929 . S
H560 C589 0.930 . S
H561 C566 0.930 . S
H562 C570 0.930 . S
O563 Co532 2.037 . S
O563 C583 1.234 . S
C564 O538 1.269 . S
C564 O539 1.257 . S
C565 H540 0.930 . S
C565 C568 1.388 . S
C565 C570 1.418 . S
C566 H561 0.930 . S
C566 C569 1.404 . S
C566 C570 1.353 . S
N567 Co532 2.145 . S
N567 C568 1.397 . S
N567 C569 1.334 . S
C568 H549 0.929 . S
C568 C565 1.388 . S
C568 N567 1.397 . S
C569 H550 0.929 . S
C569 C566 1.404 . S
C569 N567 1.334 . S
C570 H562 0.930 . S
C570 C565 1.418 . S
C570 C566 1.353 . S
C571 H541 0.930 . S
C571 N572 1.330 . S
C571 C573 1.446 . S
N572 Co531 2.151 . S
N572 C571 1.330 . S
N572 C576 1.418 . S
C573 H552 0.929 . S
C573 C571 1.446 . S
C573 C574 1.331 . S
C574 H554 0.931 1_455 S
C574 C573 1.331 . S
C574 C575 1.267 1_455 S
C575 H543 0.929 . S
C575 C574 1.267 1_655 S
C575 C576 1.251 1_655 S
C576 H546 0.929 . S
C576 N572 1.418 . S
C576 C575 1.251 1_455 S
C577 H544 0.930 . S
C577 C579 1.406 . S
C577 C582 1.261 . S
C578 H545 0.930 . S
C578 N580 1.325 . S
C578 C581 1.357 1_455 S
C579 H547 0.928 . S
C579 C577 1.406 . S
C579 N580 1.261 1_655 S
N580 Co531 2.214 . S
N580 C578 1.325 . S
N580 C579 1.261 1_455 S
C581 H551 0.931 . S
C581 C578 1.357 1_655 S
C581 C582 1.312 . S
C582 H553 0.930 . S
C582 C577 1.261 . S
C582 C581 1.312 . S
C583 O555 1.214 . S
C583 O563 1.234 . S
C584 H556 0.929 . S
C584 C587 1.391 . S
C584 C589 1.391 . S
C585 H557 0.929 . S
C585 C586 1.390 . S
C585 N588 1.391 . S
C586 H558 0.930 . S
C586 C585 1.390 . S
C586 C587 1.392 . S
C587 H559 0.929 . S
C587 C584 1.391 . S
C587 C586 1.392 . S
N588 Co532 2.257 . S
N588 C585 1.391 . S
N588 C589 1.388 . S
C589 H560 0.930 . S
C589 C584 1.391 . S
C589 N588 1.388 . S
Co590 O592 2.143 . S
Co590 O598 2.074 . S
Co590 O601 2.093 . S
Co590 O614 2.097 . S
Co590 N631 2.151 . S
Co590 N639 2.214 . S
Co591 O592 2.160 . S
Co591 O597 2.058 . S
Co591 O607 2.057 . S
Co591 O622 2.037 . S
Co591 N626 2.145 . S
Co591 N647 2.257 . S
O592 Co590 2.143 . S
O592 Co591 2.160 . S
C593 O594 1.278 . S
C593 O601 1.224 . S
O594 C593 1.278 . S
C595 O596 1.245 . S
C595 O607 1.232 . S
O596 C595 1.245 . S
O597 Co591 2.058 . S
O597 C623 1.269 . S
O598 Co590 2.074 . S
O598 C623 1.257 . S
H599 C624 0.930 . S
H600 C630 0.930 . S
O601 Co590 2.093 . S
O601 C593 1.224 . S
H602 C634 0.929 . S
H603 C636 0.930 . S
H604 C637 0.930 . S
H605 C635 0.929 . S
H606 C638 0.928 . S
O607 Co591 2.057 . S
O607 C595 1.232 . S
H608 C627 0.929 . S
H609 C628 0.929 . S
H610 C640 0.931 . S
H611 C632 0.929 . S
H612 C641 0.930 . S
H613 C633 0.931 . S
O614 Co590 2.097 . S
O614 C642 1.214 . S
H615 C643 0.929 . S
H616 C644 0.929 . S
H617 C645 0.930 . S
H618 C646 0.929 . S
H619 C648 0.930 . S
H620 C625 0.930 . S
H621 C629 0.930 . S
O622 Co591 2.037 . S
O622 C642 1.234 . S
C623 O597 1.269 . S
C623 O598 1.257 . S
C624 H599 0.930 . S
C624 C627 1.388 . S
C624 C629 1.418 . S
C625 H620 0.930 . S
C625 C628 1.404 . S
C625 C629 1.353 . S
N626 Co591 2.145 . S
N626 C627 1.397 . S
N626 C628 1.334 . S
C627 H608 0.929 . S
C627 C624 1.388 . S
C627 N626 1.397 . S
C628 H609 0.929 . S
C628 C625 1.404 . S
C628 N626 1.334 . S
C629 H621 0.930 . S
C629 C624 1.418 . S
C629 C625 1.353 . S
C630 H600 0.930 . S
C630 N631 1.330 . S
C630 C632 1.446 . S
N631 Co590 2.151 . S
N631 C630 1.330 . S
N631 C635 1.418 . S
C632 H611 0.929 . S
C632 C630 1.446 . S
C632 C633 1.332 . S
C633 H613 0.931 . S
C633 C632 1.332 . S
C633 C634 1.267 . S
C634 H602 0.929 . S
C634 C633 1.267 . S
C634 C635 1.251 . S
C635 H605 0.929 . S
C635 N631 1.418 . S
C635 C634 1.251 . S
C636 H603 0.930 . S
C636 C638 1.406 . S
C636 C641 1.261 . S
C637 H604 0.930 . S
C637 N639 1.325 . S
C637 C640 1.357 . S
C638 H606 0.928 . S
C638 C636 1.406 . S
C638 N639 1.261 . S
N639 Co590 2.214 . S
N639 C637 1.325 . S
N639 C638 1.261 . S
C640 H610 0.931 . S
C640 C637 1.357 . S
C640 C641 1.312 . S
C641 H612 0.930 . S
C641 C636 1.261 . S
C641 C640 1.312 . S
C642 O614 1.214 . S
C642 O622 1.234 . S
C643 H615 0.929 . S
C643 C646 1.391 . S
C643 C648 1.391 . S
C644 H616 0.929 . S
C644 C645 1.390 . S
C644 N647 1.391 . S
C645 H617 0.930 . S
C645 C644 1.390 . S
C645 C646 1.392 . S
C646 H618 0.929 . S
C646 C643 1.391 . S
C646 C645 1.392 . S
N647 Co591 2.257 . S
N647 C644 1.391 . S
N647 C648 1.388 . S
C648 H619 0.930 . S
C648 C643 1.391 . S
C648 N647 1.388 . S
Co649 O651 2.143 . S
Co649 O657 2.074 . S
Co649 O660 2.093 . S
Co649 O673 2.097 . S
Co649 N690 2.151 . S
Co649 N698 2.214 . S
Co650 O651 2.160 . S
Co650 O656 2.058 . S
Co650 O666 2.057 . S
Co650 O681 2.037 . S
Co650 N685 2.145 . S
Co650 N706 2.257 . S
O651 Co649 2.143 . S
O651 Co650 2.160 . S
C652 O653 1.278 . S
C652 O660 1.224 . S
O653 C652 1.278 . S
C654 O655 1.245 . S
C654 O666 1.232 . S
O655 C654 1.245 . S
O656 Co650 2.058 . S
O656 C682 1.269 . S
O657 Co649 2.074 . S
O657 C682 1.257 . S
H658 C683 0.930 . S
H659 C689 0.930 . S
O660 Co649 2.093 . S
O660 C652 1.224 . S
H661 C693 0.929 . S
H662 C695 0.930 . S
H663 C696 0.930 . S
H664 C694 0.929 . S
H665 C697 0.928 . S
O666 Co650 2.057 . S
O666 C654 1.232 . S
H667 C686 0.929 . S
H668 C687 0.929 . S
H669 C699 0.931 . S
H670 C691 0.929 . S
H671 C700 0.930 . S
H672 C692 0.931 . S
O673 Co649 2.097 . S
O673 C701 1.214 . S
H674 C702 0.929 . S
H675 C703 0.929 . S
H676 C704 0.930 . S
H677 C705 0.929 . S
H678 C707 0.930 . S
H679 C684 0.930 . S
H680 C688 0.930 . S
O681 Co650 2.037 . S
O681 C701 1.234 . S
C682 O656 1.269 . S
C682 O657 1.257 . S
C683 H658 0.930 . S
C683 C686 1.388 . S
C683 C688 1.418 . S
C684 H679 0.930 . S
C684 C687 1.404 . S
C684 C688 1.353 . S
N685 Co650 2.145 . S
N685 C686 1.397 . S
N685 C687 1.334 . S
C686 H667 0.929 . S
C686 C683 1.388 . S
C686 N685 1.397 . S
C687 H668 0.929 . S
C687 C684 1.404 . S
C687 N685 1.334 . S
C688 H680 0.930 . S
C688 C683 1.418 . S
C688 C684 1.353 . S
C689 H659 0.930 . S
C689 N690 1.330 . S
C689 C691 1.446 . S
N690 Co649 2.151 . S
N690 C689 1.330 . S
N690 C694 1.418 . S
C691 H670 0.929 . S
C691 C689 1.446 . S
C691 C692 1.332 . S
C692 H672 0.931 . S
C692 C691 1.332 . S
C692 C693 1.267 . S
C693 H661 0.929 . S
C693 C692 1.267 . S
C693 C694 1.251 . S
C694 H664 0.929 . S
C694 N690 1.418 . S
C694 C693 1.251 . S
C695 H662 0.930 . S
C695 C697 1.406 . S
C695 C700 1.261 . S
C696 H663 0.930 . S
C696 N698 1.325 . S
C696 C699 1.357 . S
C697 H665 0.928 . S
C697 C695 1.406 . S
C697 N698 1.261 . S
N698 Co649 2.214 . S
N698 C696 1.325 . S
N698 C697 1.261 . S
C699 H669 0.931 . S
C699 C696 1.357 . S
C699 C700 1.312 . S
C700 H671 0.930 . S
C700 C695 1.261 . S
C700 C699 1.312 . S
C701 O673 1.214 . S
C701 O681 1.234 . S
C702 H674 0.929 . S
C702 C705 1.391 . S
C702 C707 1.391 . S
C703 H675 0.929 . S
C703 C704 1.390 . S
C703 N706 1.391 . S
C704 H676 0.930 . S
C704 C703 1.390 . S
C704 C705 1.392 . S
C705 H677 0.929 . S
C705 C702 1.391 . S
C705 C704 1.392 . S
N706 Co650 2.257 . S
N706 C703 1.391 . S
N706 C707 1.388 . S
C707 H678 0.930 . S
C707 C702 1.391 . S
C707 N706 1.388 . S
Co708 O710 2.143 . S
Co708 O716 2.074 . S
Co708 O719 2.093 . S
Co708 O732 2.097 . S
Co708 N749 2.151 . S
Co708 N757 2.214 . S
Co709 O710 2.160 . S
Co709 O715 2.058 . S
Co709 O725 2.057 . S
Co709 O740 2.037 . S
Co709 N744 2.145 . S
Co709 N765 2.257 . S
O710 Co708 2.143 . S
O710 Co709 2.160 . S
C711 O712 1.278 . S
C711 O719 1.224 . S
O712 C711 1.278 . S
C713 O714 1.245 . S
C713 O725 1.232 . S
O714 C713 1.245 . S
O715 Co709 2.058 . S
O715 C741 1.269 . S
O716 Co708 2.074 . S
O716 C741 1.257 . S
H717 C742 0.930 . S
H718 C748 0.930 . S
O719 Co708 2.093 . S
O719 C711 1.224 . S
H720 C752 0.929 . S
H721 C754 0.930 . S
H722 C755 0.930 . S
H723 C753 0.929 . S
H724 C756 0.928 . S
O725 Co709 2.057 . S
O725 C713 1.232 . S
H726 C745 0.929 . S
H727 C746 0.929 . S
H728 C758 0.931 . S
H729 C750 0.929 . S
H730 C759 0.930 . S
H731 C751 0.931 . S
O732 Co708 2.097 . S
O732 C760 1.214 . S
H733 C761 0.929 . S
H734 C762 0.929 . S
H735 C763 0.930 . S
H736 C764 0.929 . S
H737 C766 0.930 . S
H738 C743 0.930 . S
H739 C747 0.930 . S
O740 Co709 2.037 . S
O740 C760 1.234 . S
C741 O715 1.269 . S
C741 O716 1.257 . S
C742 H717 0.930 . S
C742 C745 1.388 . S
C742 C747 1.418 . S
C743 H738 0.930 . S
C743 C746 1.404 . S
C743 C747 1.353 . S
N744 Co709 2.145 . S
N744 C745 1.397 . S
N744 C746 1.334 . S
C745 H726 0.929 . S
C745 C742 1.388 . S
C745 N744 1.397 . S
C746 H727 0.929 . S
C746 C743 1.404 . S
C746 N744 1.334 . S
C747 H739 0.930 . S
C747 C742 1.418 . S
C747 C743 1.353 . S
C748 H718 0.930 . S
C748 N749 1.330 . S
C748 C750 1.446 . S
N749 Co708 2.151 . S
N749 C748 1.330 . S
N749 C753 1.418 . S
C750 H729 0.929 . S
C750 C748 1.446 . S
C750 C751 1.332 . S
C751 H731 0.931 . S
C751 C750 1.332 . S
C751 C752 1.267 . S
C752 H720 0.929 . S
C752 C751 1.267 . S
C752 C753 1.251 . S
C753 H723 0.929 . S
C753 N749 1.418 . S
C753 C752 1.251 . S
C754 H721 0.930 . S
C754 C756 1.406 . S
C754 C759 1.261 . S
C755 H722 0.930 . S
C755 N757 1.325 . S
C755 C758 1.357 . S
C756 H724 0.928 . S
C756 C754 1.406 . S
C756 N757 1.261 . S
N757 Co708 2.214 . S
N757 C755 1.325 . S
N757 C756 1.261 . S
C758 H728 0.931 . S
C758 C755 1.357 . S
C758 C759 1.312 . S
C759 H730 0.930 . S
C759 C754 1.261 . S
C759 C758 1.312 . S
C760 O732 1.214 . S
C760 O740 1.234 . S
C761 H733 0.929 . S
C761 C764 1.391 . S
C761 C766 1.391 . S
C762 H734 0.929 . S
C762 C763 1.390 . S
C762 N765 1.391 . S
C763 H735 0.930 . S
C763 C762 1.390 . S
C763 C764 1.392 . S
C764 H736 0.929 . S
C764 C761 1.391 . S
C764 C763 1.392 . S
N765 Co709 2.257 . S
N765 C762 1.391 . S
N765 C766 1.388 . S
C766 H737 0.930 . S
C766 C761 1.391 . S
C766 N765 1.388 . S
Co767 O769 2.143 . S
Co767 O775 2.074 . S
Co767 O778 2.093 . S
Co767 O791 2.097 . S
Co767 N808 2.151 . S
Co767 N816 2.214 . S
Co768 O769 2.160 . S
Co768 O774 2.058 . S
Co768 O784 2.057 . S
Co768 O799 2.037 . S
Co768 N803 2.145 . S
Co768 N824 2.257 . S
O769 Co767 2.143 . S
O769 Co768 2.160 . S
C770 O771 1.278 . S
C770 O778 1.224 . S
O771 C770 1.278 . S
C772 O773 1.245 . S
C772 O784 1.232 . S
O773 C772 1.245 . S
O774 Co768 2.058 . S
O774 C800 1.269 . S
O775 Co767 2.074 . S
O775 C800 1.257 . S
H776 C801 0.930 . S
H777 C807 0.930 . S
O778 Co767 2.093 . S
O778 C770 1.224 . S
H779 C811 0.929 . S
H780 C813 0.930 . S
H781 C814 0.930 . S
H782 C812 0.929 . S
H783 C815 0.928 . S
O784 Co768 2.057 . S
O784 C772 1.232 . S
H785 C804 0.929 . S
H786 C805 0.929 . S
H787 C817 0.931 . S
H788 C809 0.929 . S
H789 C818 0.930 . S
H790 C810 0.931 1_455 S
O791 Co767 2.097 . S
O791 C819 1.214 . S
H792 C820 0.929 . S
H793 C821 0.929 . S
H794 C822 0.930 . S
H795 C823 0.929 . S
H796 C825 0.930 . S
H797 C802 0.930 . S
H798 C806 0.930 . S
O799 Co768 2.037 . S
O799 C819 1.234 . S
C800 O774 1.269 . S
C800 O775 1.257 . S
C801 H776 0.930 . S
C801 C804 1.388 . S
C801 C806 1.418 . S
C802 H797 0.930 . S
C802 C805 1.404 . S
C802 C806 1.353 . S
N803 Co768 2.145 . S
N803 C804 1.397 . S
N803 C805 1.334 . S
C804 H785 0.929 . S
C804 C801 1.388 . S
C804 N803 1.397 . S
C805 H786 0.929 . S
C805 C802 1.404 . S
C805 N803 1.334 . S
C806 H798 0.930 . S
C806 C801 1.418 . S
C806 C802 1.353 . S
C807 H777 0.930 . S
C807 N808 1.330 . S
C807 C809 1.446 . S
N808 Co767 2.151 . S
N808 C807 1.330 . S
N808 C812 1.418 . S
C809 H788 0.929 . S
C809 C807 1.446 . S
C809 C810 1.331 . S
C810 H790 0.931 1_655 S
C810 C809 1.331 . S
C810 C811 1.267 1_655 S
C811 H779 0.929 . S
C811 C810 1.267 1_455 S
C811 C812 1.251 1_455 S
C812 H782 0.929 . S
C812 N808 1.418 . S
C812 C811 1.251 1_655 S
C813 H780 0.930 . S
C813 C815 1.406 . S
C813 C818 1.261 . S
C814 H781 0.930 . S
C814 N816 1.325 . S
C814 C817 1.357 1_655 S
C815 H783 0.928 . S
C815 C813 1.406 . S
C815 N816 1.261 1_455 S
N816 Co767 2.214 . S
N816 C814 1.325 . S
N816 C815 1.261 1_655 S
C817 H787 0.931 . S
C817 C814 1.357 1_455 S
C817 C818 1.312 . S
C818 H789 0.930 . S
C818 C813 1.261 . S
C818 C817 1.312 . S
C819 O791 1.214 . S
C819 O799 1.234 . S
C820 H792 0.929 . S
C820 C823 1.391 . S
C820 C825 1.391 . S
C821 H793 0.929 . S
C821 C822 1.390 . S
C821 N824 1.391 . S
C822 H794 0.930 . S
C822 C821 1.390 . S
C822 C823 1.392 . S
C823 H795 0.929 . S
C823 C820 1.391 . S
C823 C822 1.392 . S
N824 Co768 2.257 . S
N824 C821 1.391 . S
N824 C825 1.388 . S
C825 H796 0.930 . S
C825 C820 1.391 . S
C825 N824 1.388 . S
Co826 O828 2.143 . S
Co826 O834 2.074 . S
Co826 O837 2.093 . S
Co826 O850 2.097 . S
Co826 N867 2.151 . S
Co826 N875 2.214 . S
Co827 O828 2.160 . S
Co827 O833 2.058 . S
Co827 O843 2.057 . S
Co827 O858 2.037 . S
Co827 N862 2.145 . S
Co827 N883 2.257 . S
O828 Co826 2.143 . S
O828 Co827 2.160 . S
C829 O830 1.278 . S
C829 O837 1.224 . S
O830 C829 1.278 . S
C831 O832 1.245 . S
C831 O843 1.232 . S
O832 C831 1.245 . S
O833 Co827 2.058 . S
O833 C859 1.269 . S
O834 Co826 2.074 . S
O834 C859 1.257 . S
H835 C860 0.930 . S
H836 C866 0.930 . S
O837 Co826 2.093 . S
O837 C829 1.224 . S
H838 C870 0.929 . S
H839 C872 0.930 . S
H840 C873 0.930 . S
H841 C871 0.929 . S
H842 C874 0.928 . S
O843 Co827 2.057 . S
O843 C831 1.232 . S
H844 C863 0.929 . S
H845 C864 0.929 . S
H846 C876 0.931 . S
H847 C868 0.929 . S
H848 C877 0.930 . S
H849 C869 0.931 . S
O850 Co826 2.097 . S
O850 C878 1.214 . S
H851 C879 0.929 . S
H852 C880 0.929 . S
H853 C881 0.930 . S
H854 C882 0.929 . S
H855 C884 0.930 . S
H856 C861 0.930 . S
H857 C865 0.930 . S
O858 Co827 2.037 . S
O858 C878 1.234 . S
C859 O833 1.269 . S
C859 O834 1.257 . S
C860 H835 0.930 . S
C860 C863 1.388 . S
C860 C865 1.418 . S
C861 H856 0.930 . S
C861 C864 1.404 . S
C861 C865 1.353 . S
N862 Co827 2.145 . S
N862 C863 1.397 . S
N862 C864 1.334 . S
C863 H844 0.929 . S
C863 C860 1.388 . S
C863 N862 1.397 . S
C864 H845 0.929 . S
C864 C861 1.404 . S
C864 N862 1.334 . S
C865 H857 0.930 . S
C865 C860 1.418 . S
C865 C861 1.353 . S
C866 H836 0.930 . S
C866 N867 1.330 . S
C866 C868 1.446 . S
N867 Co826 2.151 . S
N867 C866 1.330 . S
N867 C871 1.418 . S
C868 H847 0.929 . S
C868 C866 1.446 . S
C868 C869 1.332 . S
C869 H849 0.931 . S
C869 C868 1.332 . S
C869 C870 1.267 . S
C870 H838 0.929 . S
C870 C869 1.267 . S
C870 C871 1.251 . S
C871 H841 0.929 . S
C871 N867 1.418 . S
C871 C870 1.251 . S
C872 H839 0.930 . S
C872 C874 1.406 . S
C872 C877 1.261 . S
C873 H840 0.930 . S
C873 N875 1.325 . S
C873 C876 1.357 . S
C874 H842 0.928 . S
C874 C872 1.406 . S
C874 N875 1.261 . S
N875 Co826 2.214 . S
N875 C873 1.325 . S
N875 C874 1.261 . S
C876 H846 0.931 . S
C876 C873 1.357 . S
C876 C877 1.312 . S
C877 H848 0.930 . S
C877 C872 1.261 . S
C877 C876 1.312 . S
C878 O850 1.214 . S
C878 O858 1.234 . S
C879 H851 0.929 . S
C879 C882 1.391 . S
C879 C884 1.391 . S
C880 H852 0.929 . S
C880 C881 1.390 . S
C880 N883 1.391 . S
C881 H853 0.930 . S
C881 C880 1.390 . S
C881 C882 1.392 . S
C882 H854 0.929 . S
C882 C879 1.391 . S
C882 C881 1.392 . S
N883 Co827 2.257 . S
N883 C880 1.391 . S
N883 C884 1.388 . S
C884 H855 0.930 . S
C884 C879 1.391 . S
C884 N883 1.388 . S
Co885 O887 2.143 . S
Co885 O893 2.074 . S
Co885 O896 2.093 . S
Co885 O909 2.097 . S
Co885 N926 2.151 . S
Co885 N934 2.214 . S
Co886 O887 2.160 . S
Co886 O892 2.058 . S
Co886 O902 2.057 . S
Co886 O917 2.037 . S
Co886 N921 2.145 . S
Co886 N942 2.257 . S
O887 Co885 2.143 . S
O887 Co886 2.160 . S
C888 O889 1.278 . S
C888 O896 1.224 . S
O889 C888 1.278 . S
C890 O891 1.245 . S
C890 O902 1.232 . S
O891 C890 1.245 . S
O892 Co886 2.058 . S
O892 C918 1.269 . S
O893 Co885 2.074 . S
O893 C918 1.257 . S
H894 C919 0.930 . S
H895 C925 0.930 . S
O896 Co885 2.093 . S
O896 C888 1.224 . S
H897 C929 0.929 . S
H898 C931 0.930 . S
H899 C932 0.930 . S
H900 C930 0.929 . S
H901 C933 0.928 . S
O902 Co886 2.057 . S
O902 C890 1.232 . S
H903 C922 0.929 . S
H904 C923 0.929 . S
H905 C935 0.931 . S
H906 C927 0.929 . S
H907 C936 0.930 . S
H908 C928 0.931 . S
O909 Co885 2.097 . S
O909 C937 1.214 . S
H910 C938 0.929 . S
H911 C939 0.929 . S
H912 C940 0.930 . S
H913 C941 0.929 . S
H914 C943 0.930 . S
H915 C920 0.930 . S
H916 C924 0.930 . S
O917 Co886 2.037 . S
O917 C937 1.234 . S
C918 O892 1.269 . S
C918 O893 1.257 . S
C919 H894 0.930 . S
C919 C922 1.388 . S
C919 C924 1.418 . S
C920 H915 0.930 . S
C920 C923 1.404 . S
C920 C924 1.353 . S
N921 Co886 2.145 . S
N921 C922 1.397 . S
N921 C923 1.334 . S
C922 H903 0.929 . S
C922 C919 1.388 . S
C922 N921 1.397 . S
C923 H904 0.929 . S
C923 C920 1.404 . S
C923 N921 1.334 . S
C924 H916 0.930 . S
C924 C919 1.418 . S
C924 C920 1.353 . S
C925 H895 0.930 . S
C925 N926 1.330 . S
C925 C927 1.446 . S
N926 Co885 2.151 . S
N926 C925 1.330 . S
N926 C930 1.418 . S
C927 H906 0.929 . S
C927 C925 1.446 . S
C927 C928 1.332 . S
C928 H908 0.931 . S
C928 C927 1.332 . S
C928 C929 1.267 . S
C929 H897 0.929 . S
C929 C928 1.267 . S
C929 C930 1.251 . S
C930 H900 0.929 . S
C930 N926 1.418 . S
C930 C929 1.251 . S
C931 H898 0.930 . S
C931 C933 1.406 . S
C931 C936 1.261 . S
C932 H899 0.930 . S
C932 N934 1.325 . S
C932 C935 1.357 . S
C933 H901 0.928 . S
C933 C931 1.406 . S
C933 N934 1.261 . S
N934 Co885 2.214 . S
N934 C932 1.325 . S
N934 C933 1.261 . S
C935 H905 0.931 . S
C935 C932 1.357 . S
C935 C936 1.312 . S
C936 H907 0.930 . S
C936 C931 1.261 . S
C936 C935 1.312 . S
C937 O909 1.214 . S
C937 O917 1.234 . S
C938 H910 0.929 . S
C938 C941 1.391 . S
C938 C943 1.391 . S
C939 H911 0.929 . S
C939 C940 1.390 . S
C939 N942 1.391 . S
C940 H912 0.930 . S
C940 C939 1.390 . S
C940 C941 1.392 . S
C941 H913 0.929 . S
C941 C938 1.391 . S
C941 C940 1.392 . S
N942 Co886 2.257 . S
N942 C939 1.391 . S
N942 C943 1.388 . S
C943 H914 0.930 . S
C943 C938 1.391 . S
C943 N942 1.388 . S
Co944 O946 2.143 . S
Co944 O952 2.074 . S
Co944 O955 2.093 . S
Co944 O968 2.097 . S
Co944 N985 2.151 . S
Co944 N993 2.214 . S
Co945 O946 2.160 . S
Co945 O951 2.058 . S
Co945 O961 2.057 . S
Co945 O976 2.037 . S
Co945 N980 2.145 . S
Co945 N1001 2.257 . S
O946 Co944 2.143 . S
O946 Co945 2.160 . S
C947 O948 1.278 . S
C947 O955 1.224 . S
O948 C947 1.278 . S
C949 O950 1.245 . S
C949 O961 1.232 . S
O950 C949 1.245 . S
O951 Co945 2.058 . S
O951 C977 1.269 . S
O952 Co944 2.074 . S
O952 C977 1.257 . S
H953 C978 0.930 . S
H954 C984 0.930 . S
O955 Co944 2.093 . S
O955 C947 1.224 . S
H956 C988 0.929 . S
H957 C990 0.930 . S
H958 C991 0.930 . S
H959 C989 0.929 . S
H960 C992 0.928 . S
O961 Co945 2.057 . S
O961 C949 1.232 . S
H962 C981 0.929 . S
H963 C982 0.929 . S
H964 C994 0.931 . S
H965 C986 0.929 . S
H966 C995 0.930 . S
H967 C987 0.931 . S
O968 Co944 2.097 . S
O968 C996 1.214 . S
H969 C997 0.929 . S
H970 C998 0.929 . S
H971 C999 0.930 . S
H972 C1000 0.929 . S
H973 C1002 0.930 . S
H974 C979 0.930 . S
H975 C983 0.930 . S
O976 Co945 2.037 . S
O976 C996 1.234 . S
C977 O951 1.269 . S
C977 O952 1.257 . S
C978 H953 0.930 . S
C978 C981 1.388 . S
C978 C983 1.418 . S
C979 H974 0.930 . S
C979 C982 1.404 . S
C979 C983 1.353 . S
N980 Co945 2.145 . S
N980 C981 1.397 . S
N980 C982 1.334 . S
C981 H962 0.929 . S
C981 C978 1.388 . S
C981 N980 1.397 . S
C982 H963 0.929 . S
C982 C979 1.404 . S
C982 N980 1.334 . S
C983 H975 0.930 . S
C983 C978 1.418 . S
C983 C979 1.353 . S
C984 H954 0.930 . S
C984 N985 1.330 . S
C984 C986 1.446 . S
N985 Co944 2.151 . S
N985 C984 1.330 . S
N985 C989 1.418 . S
C986 H965 0.929 . S
C986 C984 1.446 . S
C986 C987 1.332 . S
C987 H967 0.931 . S
C987 C986 1.332 . S
C987 C988 1.267 . S
C988 H956 0.929 . S
C988 C987 1.267 . S
C988 C989 1.251 . S
C989 H959 0.929 . S
C989 N985 1.418 . S
C989 C988 1.251 . S
C990 H957 0.930 . S
C990 C992 1.406 . S
C990 C995 1.261 . S
C991 H958 0.930 . S
C991 N993 1.325 . S
C991 C994 1.357 . S
C992 H960 0.928 . S
C992 C990 1.406 . S
C992 N993 1.261 . S
N993 Co944 2.214 . S
N993 C991 1.325 . S
N993 C992 1.261 . S
C994 H964 0.931 . S
C994 C991 1.357 . S
C994 C995 1.312 . S
C995 H966 0.930 . S
C995 C990 1.261 . S
C995 C994 1.312 . S
C996 O968 1.214 . S
C996 O976 1.234 . S
C997 H969 0.929 . S
C997 C1000 1.391 . S
C997 C1002 1.391 . S
C998 H970 0.929 . S
C998 C999 1.390 . S
C998 N1001 1.391 . S
C999 H971 0.930 . S
C999 C998 1.390 . S
C999 C1000 1.392 . S
C1000 H972 0.929 . S
C1000 C997 1.391 . S
C1000 C999 1.392 . S
N1001 Co945 2.257 . S
N1001 C998 1.391 . S
N1001 C1002 1.388 . S
C1002 H973 0.930 . S
C1002 C997 1.391 . S
C1002 N1001 1.388 . S
Co1003 O1005 2.143 . S
Co1003 O1011 2.074 . S
Co1003 O1014 2.093 . S
Co1003 O1027 2.097 . S
Co1003 N1044 2.151 . S
Co1003 N1052 2.214 . S
Co1004 O1005 2.160 . S
Co1004 O1010 2.058 . S
Co1004 O1020 2.057 . S
Co1004 O1035 2.037 . S
Co1004 N1039 2.145 . S
Co1004 N1060 2.257 . S
O1005 Co1003 2.143 . S
O1005 Co1004 2.160 . S
C1006 O1007 1.278 . S
C1006 O1014 1.224 . S
O1007 C1006 1.278 . S
C1008 O1009 1.245 . S
C1008 O1020 1.232 . S
O1009 C1008 1.245 . S
O1010 Co1004 2.058 . S
O1010 C1036 1.269 . S
O1011 Co1003 2.074 . S
O1011 C1036 1.257 . S
H1012 C1037 0.930 . S
H1013 C1043 0.930 . S
O1014 Co1003 2.093 . S
O1014 C1006 1.224 . S
H1015 C1047 0.929 . S
H1016 C1049 0.930 . S
H1017 C1050 0.930 . S
H1018 C1048 0.929 . S
H1019 C1051 0.928 . S
O1020 Co1004 2.057 . S
O1020 C1008 1.232 . S
H1021 C1040 0.929 . S
H1022 C1041 0.929 . S
H1023 C1053 0.931 . S
H1024 C1045 0.929 . S
H1025 C1054 0.930 . S
H1026 C1046 0.931 . S
O1027 Co1003 2.097 . S
O1027 C1055 1.214 . S
H1028 C1056 0.929 . S
H1029 C1057 0.929 . S
H1030 C1058 0.930 . S
H1031 C1059 0.929 . S
H1032 C1061 0.930 . S
H1033 C1038 0.930 . S
H1034 C1042 0.930 . S
O1035 Co1004 2.037 . S
O1035 C1055 1.234 . S
C1036 O1010 1.269 . S
C1036 O1011 1.257 . S
C1037 H1012 0.930 . S
C1037 C1040 1.388 . S
C1037 C1042 1.418 . S
C1038 H1033 0.930 . S
C1038 C1041 1.404 . S
C1038 C1042 1.353 . S
N1039 Co1004 2.145 . S
N1039 C1040 1.397 . S
N1039 C1041 1.334 . S
C1040 H1021 0.929 . S
C1040 C1037 1.388 . S
C1040 N1039 1.397 . S
C1041 H1022 0.929 . S
C1041 C1038 1.404 . S
C1041 N1039 1.334 . S
C1042 H1034 0.930 . S
C1042 C1037 1.418 . S
C1042 C1038 1.353 . S
C1043 H1013 0.930 . S
C1043 N1044 1.330 . S
C1043 C1045 1.446 . S
N1044 Co1003 2.151 . S
N1044 C1043 1.330 . S
N1044 C1048 1.418 . S
C1045 H1024 0.929 . S
C1045 C1043 1.446 . S
C1045 C1046 1.332 . S
C1046 H1026 0.931 . S
C1046 C1045 1.332 . S
C1046 C1047 1.267 . S
C1047 H1015 0.929 . S
C1047 C1046 1.267 . S
C1047 C1048 1.251 . S
C1048 H1018 0.929 . S
C1048 N1044 1.418 . S
C1048 C1047 1.251 . S
C1049 H1016 0.930 . S
C1049 C1051 1.406 . S
C1049 C1054 1.261 . S
C1050 H1017 0.930 . S
C1050 N1052 1.325 . S
C1050 C1053 1.357 . S
C1051 H1019 0.928 . S
C1051 C1049 1.406 . S
C1051 N1052 1.261 . S
N1052 Co1003 2.214 . S
N1052 C1050 1.325 . S
N1052 C1051 1.261 . S
C1053 H1023 0.931 . S
C1053 C1050 1.357 . S
C1053 C1054 1.312 . S
C1054 H1025 0.930 . S
C1054 C1049 1.261 . S
C1054 C1053 1.312 . S
C1055 O1027 1.214 . S
C1055 O1035 1.234 . S
C1056 H1028 0.929 . S
C1056 C1059 1.391 . S
C1056 C1061 1.391 . S
C1057 H1029 0.929 . S
C1057 C1058 1.390 . S
C1057 N1060 1.391 . S
C1058 H1030 0.930 . S
C1058 C1057 1.390 . S
C1058 C1059 1.392 . S
C1059 H1031 0.929 . S
C1059 C1056 1.391 . S
C1059 C1058 1.392 . S
N1060 Co1004 2.257 . S
N1060 C1057 1.391 . S
N1060 C1061 1.388 . S
C1061 H1032 0.930 . S
C1061 C1056 1.391 . S
C1061 N1060 1.388 . S
Co1062 O1064 2.143 . S
Co1062 O1070 2.074 . S
Co1062 O1073 2.093 . S
Co1062 O1086 2.097 . S
Co1062 N1103 2.151 . S
Co1062 N1111 2.214 . S
Co1063 O1064 2.160 . S
Co1063 O1069 2.058 . S
Co1063 O1079 2.057 . S
Co1063 O1094 2.037 . S
Co1063 N1098 2.145 . S
Co1063 N1119 2.257 . S
O1064 Co1062 2.143 . S
O1064 Co1063 2.160 . S
C1065 O1066 1.278 . S
C1065 O1073 1.224 . S
O1066 C1065 1.278 . S
C1067 O1068 1.245 . S
C1067 O1079 1.232 . S
O1068 C1067 1.245 . S
O1069 Co1063 2.058 . S
O1069 C1095 1.269 . S
O1070 Co1062 2.074 . S
O1070 C1095 1.257 . S
H1071 C1096 0.930 . S
H1072 C1102 0.930 . S
O1073 Co1062 2.093 . S
O1073 C1065 1.224 . S
H1074 C1106 0.929 . S
H1075 C1108 0.930 . S
H1076 C1109 0.930 . S
H1077 C1107 0.929 . S
H1078 C1110 0.928 . S
O1079 Co1063 2.057 . S
O1079 C1067 1.232 . S
H1080 C1099 0.929 . S
H1081 C1100 0.929 . S
H1082 C1112 0.931 . S
H1083 C1104 0.929 . S
H1084 C1113 0.930 . S
H1085 C1105 0.931 1_556 S
O1086 Co1062 2.097 . S
O1086 C1114 1.214 . S
H1087 C1115 0.929 . S
H1088 C1116 0.929 . S
H1089 C1117 0.930 . S
H1090 C1118 0.929 . S
H1091 C1120 0.930 . S
H1092 C1097 0.930 . S
H1093 C1101 0.930 . S
O1094 Co1063 2.037 . S
O1094 C1114 1.234 . S
C1095 O1069 1.269 . S
C1095 O1070 1.257 . S
C1096 H1071 0.930 . S
C1096 C1099 1.388 . S
C1096 C1101 1.418 . S
C1097 H1092 0.930 . S
C1097 C1100 1.404 . S
C1097 C1101 1.353 . S
N1098 Co1063 2.145 . S
N1098 C1099 1.397 . S
N1098 C1100 1.334 . S
C1099 H1080 0.929 . S
C1099 C1096 1.388 . S
C1099 N1098 1.397 . S
C1100 H1081 0.929 . S
C1100 C1097 1.404 . S
C1100 N1098 1.334 . S
C1101 H1093 0.930 . S
C1101 C1096 1.418 . S
C1101 C1097 1.353 . S
C1102 H1072 0.930 . S
C1102 N1103 1.330 . S
C1102 C1104 1.446 . S
N1103 Co1062 2.151 . S
N1103 C1102 1.330 . S
N1103 C1107 1.418 . S
C1104 H1083 0.929 . S
C1104 C1102 1.446 . S
C1104 C1105 1.331 . S
C1105 H1085 0.931 1_554 S
C1105 C1104 1.331 . S
C1105 C1106 1.267 1_554 S
C1106 H1074 0.929 . S
C1106 C1105 1.267 1_556 S
C1106 C1107 1.251 1_556 S
C1107 H1077 0.929 . S
C1107 N1103 1.418 . S
C1107 C1106 1.251 1_554 S
C1108 H1075 0.930 . S
C1108 C1110 1.406 . S
C1108 C1113 1.261 . S
C1109 H1076 0.930 . S
C1109 N1111 1.325 . S
C1109 C1112 1.357 1_554 S
C1110 H1078 0.928 . S
C1110 C1108 1.406 . S
C1110 N1111 1.261 1_556 S
N1111 Co1062 2.214 . S
N1111 C1109 1.325 . S
N1111 C1110 1.261 1_554 S
C1112 H1082 0.931 . S
C1112 C1109 1.357 1_556 S
C1112 C1113 1.312 . S
C1113 H1084 0.930 . S
C1113 C1108 1.261 . S
C1113 C1112 1.312 . S
C1114 O1086 1.214 . S
C1114 O1094 1.234 . S
C1115 H1087 0.929 . S
C1115 C1118 1.391 . S
C1115 C1120 1.391 . S
C1116 H1088 0.929 . S
C1116 C1117 1.390 . S
C1116 N1119 1.391 . S
C1117 H1089 0.930 . S
C1117 C1116 1.390 . S
C1117 C1118 1.392 . S
C1118 H1090 0.929 . S
C1118 C1115 1.391 . S
C1118 C1117 1.392 . S
N1119 Co1063 2.257 . S
N1119 C1116 1.391 . S
N1119 C1120 1.388 . S
C1120 H1091 0.930 . S
C1120 C1115 1.391 . S
C1120 N1119 1.388 . S
Co1121 O1123 2.143 . S
Co1121 O1129 2.074 . S
Co1121 O1132 2.093 . S
Co1121 O1145 2.097 . S
Co1121 N1162 2.151 . S
Co1121 N1170 2.214 . S
Co1122 O1123 2.160 . S
Co1122 O1128 2.058 . S
Co1122 O1138 2.057 . S
Co1122 O1153 2.037 . S
Co1122 N1157 2.145 . S
Co1122 N1178 2.257 . S
O1123 Co1121 2.143 . S
O1123 Co1122 2.160 . S
C1124 O1125 1.278 . S
C1124 O1132 1.224 . S
O1125 C1124 1.278 . S
C1126 O1127 1.245 . S
C1126 O1138 1.232 . S
O1127 C1126 1.245 . S
O1128 Co1122 2.058 . S
O1128 C1154 1.269 . S
O1129 Co1121 2.074 . S
O1129 C1154 1.257 . S
H1130 C1155 0.930 . S
H1131 C1161 0.930 . S
O1132 Co1121 2.093 . S
O1132 C1124 1.224 . S
H1133 C1165 0.929 . S
H1134 C1167 0.930 . S
H1135 C1168 0.930 . S
H1136 C1166 0.929 . S
H1137 C1169 0.928 . S
O1138 Co1122 2.057 . S
O1138 C1126 1.232 . S
H1139 C1158 0.929 . S
H1140 C1159 0.929 . S
H1141 C1171 0.931 . S
H1142 C1163 0.929 . S
H1143 C1172 0.930 . S
H1144 C1164 0.931 . S
O1145 Co1121 2.097 . S
O1145 C1173 1.214 . S
H1146 C1174 0.929 . S
H1147 C1175 0.929 . S
H1148 C1176 0.930 . S
H1149 C1177 0.929 . S
H1150 C1179 0.930 . S
H1151 C1156 0.930 . S
H1152 C1160 0.930 . S
O1153 Co1122 2.037 . S
O1153 C1173 1.234 . S
C1154 O1128 1.269 . S
C1154 O1129 1.257 . S
C1155 H1130 0.930 . S
C1155 C1158 1.388 . S
C1155 C1160 1.418 . S
C1156 H1151 0.930 . S
C1156 C1159 1.404 . S
C1156 C1160 1.353 . S
N1157 Co1122 2.145 . S
N1157 C1158 1.397 . S
N1157 C1159 1.334 . S
C1158 H1139 0.929 . S
C1158 C1155 1.388 . S
C1158 N1157 1.397 . S
C1159 H1140 0.929 . S
C1159 C1156 1.404 . S
C1159 N1157 1.334 . S
C1160 H1152 0.930 . S
C1160 C1155 1.418 . S
C1160 C1156 1.353 . S
C1161 H1131 0.930 . S
C1161 N1162 1.330 . S
C1161 C1163 1.446 . S
N1162 Co1121 2.151 . S
N1162 C1161 1.330 . S
N1162 C1166 1.418 . S
C1163 H1142 0.929 . S
C1163 C1161 1.446 . S
C1163 C1164 1.332 . S
C1164 H1144 0.931 . S
C1164 C1163 1.332 . S
C1164 C1165 1.267 . S
C1165 H1133 0.929 . S
C1165 C1164 1.267 . S
C1165 C1166 1.251 . S
C1166 H1136 0.929 . S
C1166 N1162 1.418 . S
C1166 C1165 1.251 . S
C1167 H1134 0.930 . S
C1167 C1169 1.406 . S
C1167 C1172 1.261 . S
C1168 H1135 0.930 . S
C1168 N1170 1.325 . S
C1168 C1171 1.357 . S
C1169 H1137 0.928 . S
C1169 C1167 1.406 . S
C1169 N1170 1.261 . S
N1170 Co1121 2.214 . S
N1170 C1168 1.325 . S
N1170 C1169 1.261 . S
C1171 H1141 0.931 . S
C1171 C1168 1.357 . S
C1171 C1172 1.312 . S
C1172 H1143 0.930 . S
C1172 C1167 1.261 . S
C1172 C1171 1.312 . S
C1173 O1145 1.214 . S
C1173 O1153 1.234 . S
C1174 H1146 0.929 . S
C1174 C1177 1.391 . S
C1174 C1179 1.391 . S
C1175 H1147 0.929 . S
C1175 C1176 1.390 . S
C1175 N1178 1.391 . S
C1176 H1148 0.930 . S
C1176 C1175 1.390 . S
C1176 C1177 1.392 . S
C1177 H1149 0.929 . S
C1177 C1174 1.391 . S
C1177 C1176 1.392 . S
N1178 Co1122 2.257 . S
N1178 C1175 1.391 . S
N1178 C1179 1.388 . S
C1179 H1150 0.930 . S
C1179 C1174 1.391 . S
C1179 N1178 1.388 . S
Co1180 O1182 2.143 . S
Co1180 O1188 2.074 . S
Co1180 O1191 2.093 . S
Co1180 O1204 2.097 . S
Co1180 N1221 2.151 . S
Co1180 N1229 2.214 . S
Co1181 O1182 2.160 . S
Co1181 O1187 2.058 . S
Co1181 O1197 2.057 . S
Co1181 O1212 2.037 . S
Co1181 N1216 2.145 . S
Co1181 N1237 2.257 . S
O1182 Co1180 2.143 . S
O1182 Co1181 2.160 . S
C1183 O1184 1.278 . S
C1183 O1191 1.224 . S
O1184 C1183 1.278 . S
C1185 O1186 1.245 . S
C1185 O1197 1.232 . S
O1186 C1185 1.245 . S
O1187 Co1181 2.058 . S
O1187 C1213 1.269 . S
O1188 Co1180 2.074 . S
O1188 C1213 1.257 . S
H1189 C1214 0.930 . S
H1190 C1220 0.930 . S
O1191 Co1180 2.093 . S
O1191 C1183 1.224 . S
H1192 C1224 0.929 . S
H1193 C1226 0.930 . S
H1194 C1227 0.930 . S
H1195 C1225 0.929 . S
H1196 C1228 0.928 . S
O1197 Co1181 2.057 . S
O1197 C1185 1.232 . S
H1198 C1217 0.929 . S
H1199 C1218 0.929 . S
H1200 C1230 0.931 . S
H1201 C1222 0.929 . S
H1202 C1231 0.930 . S
H1203 C1223 0.931 . S
O1204 Co1180 2.097 . S
O1204 C1232 1.214 . S
H1205 C1233 0.929 . S
H1206 C1234 0.929 . S
H1207 C1235 0.930 . S
H1208 C1236 0.929 . S
H1209 C1238 0.930 . S
H1210 C1215 0.930 . S
H1211 C1219 0.930 . S
O1212 Co1181 2.037 . S
O1212 C1232 1.234 . S
C1213 O1187 1.269 . S
C1213 O1188 1.257 . S
C1214 H1189 0.930 . S
C1214 C1217 1.388 . S
C1214 C1219 1.418 . S
C1215 H1210 0.930 . S
C1215 C1218 1.404 . S
C1215 C1219 1.353 . S
N1216 Co1181 2.145 . S
N1216 C1217 1.397 . S
N1216 C1218 1.334 . S
C1217 H1198 0.929 . S
C1217 C1214 1.388 . S
C1217 N1216 1.397 . S
C1218 H1199 0.929 . S
C1218 C1215 1.404 . S
C1218 N1216 1.334 . S
C1219 H1211 0.930 . S
C1219 C1214 1.418 . S
C1219 C1215 1.353 . S
C1220 H1190 0.930 . S
C1220 N1221 1.330 . S
C1220 C1222 1.446 . S
N1221 Co1180 2.151 . S
N1221 C1220 1.330 . S
N1221 C1225 1.418 . S
C1222 H1201 0.929 . S
C1222 C1220 1.446 . S
C1222 C1223 1.332 . S
C1223 H1203 0.931 . S
C1223 C1222 1.332 . S
C1223 C1224 1.267 . S
C1224 H1192 0.929 . S
C1224 C1223 1.267 . S
C1224 C1225 1.251 . S
C1225 H1195 0.929 . S
C1225 N1221 1.418 . S
C1225 C1224 1.251 . S
C1226 H1193 0.930 . S
C1226 C1228 1.406 . S
C1226 C1231 1.261 . S
C1227 H1194 0.930 . S
C1227 N1229 1.325 . S
C1227 C1230 1.357 . S
C1228 H1196 0.928 . S
C1228 C1226 1.406 . S
C1228 N1229 1.261 . S
N1229 Co1180 2.214 . S
N1229 C1227 1.325 . S
N1229 C1228 1.261 . S
C1230 H1200 0.931 . S
C1230 C1227 1.357 . S
C1230 C1231 1.312 . S
C1231 H1202 0.930 . S
C1231 C1226 1.261 . S
C1231 C1230 1.312 . S
C1232 O1204 1.214 . S
C1232 O1212 1.234 . S
C1233 H1205 0.929 . S
C1233 C1236 1.391 . S
C1233 C1238 1.391 . S
C1234 H1206 0.929 . S
C1234 C1235 1.390 . S
C1234 N1237 1.391 . S
C1235 H1207 0.930 . S
C1235 C1234 1.390 . S
C1235 C1236 1.392 . S
C1236 H1208 0.929 . S
C1236 C1233 1.391 . S
C1236 C1235 1.392 . S
N1237 Co1181 2.257 . S
N1237 C1234 1.391 . S
N1237 C1238 1.388 . S
C1238 H1209 0.930 . S
C1238 C1233 1.391 . S
C1238 N1237 1.388 . S
Co1239 O1241 2.143 . S
Co1239 O1247 2.074 . S
Co1239 O1250 2.093 . S
Co1239 O1263 2.097 . S
Co1239 N1280 2.151 . S
Co1239 N1288 2.214 . S
Co1240 O1241 2.160 . S
Co1240 O1246 2.058 . S
Co1240 O1256 2.057 . S
Co1240 O1271 2.037 . S
Co1240 N1275 2.145 . S
Co1240 N1296 2.257 . S
O1241 Co1239 2.143 . S
O1241 Co1240 2.160 . S
C1242 O1243 1.278 . S
C1242 O1250 1.224 . S
O1243 C1242 1.278 . S
C1244 O1245 1.245 . S
C1244 O1256 1.232 . S
O1245 C1244 1.245 . S
O1246 Co1240 2.058 . S
O1246 C1272 1.269 . S
O1247 Co1239 2.074 . S
O1247 C1272 1.257 . S
H1248 C1273 0.930 . S
H1249 C1279 0.930 . S
O1250 Co1239 2.093 . S
O1250 C1242 1.224 . S
H1251 C1283 0.929 . S
H1252 C1285 0.930 . S
H1253 C1286 0.930 . S
H1254 C1284 0.929 . S
H1255 C1287 0.928 . S
O1256 Co1240 2.057 . S
O1256 C1244 1.232 . S
H1257 C1276 0.929 . S
H1258 C1277 0.929 . S
H1259 C1289 0.931 . S
H1260 C1281 0.929 . S
H1261 C1290 0.930 . S
H1262 C1282 0.931 . S
O1263 Co1239 2.097 . S
O1263 C1291 1.214 . S
H1264 C1292 0.929 . S
H1265 C1293 0.929 . S
H1266 C1294 0.930 . S
H1267 C1295 0.929 . S
H1268 C1297 0.930 . S
H1269 C1274 0.930 . S
H1270 C1278 0.930 . S
O1271 Co1240 2.037 . S
O1271 C1291 1.234 . S
C1272 O1246 1.269 . S
C1272 O1247 1.257 . S
C1273 H1248 0.930 . S
C1273 C1276 1.388 . S
C1273 C1278 1.418 . S
C1274 H1269 0.930 . S
C1274 C1277 1.404 . S
C1274 C1278 1.353 . S
N1275 Co1240 2.145 . S
N1275 C1276 1.397 . S
N1275 C1277 1.334 . S
C1276 H1257 0.929 . S
C1276 C1273 1.388 . S
C1276 N1275 1.397 . S
C1277 H1258 0.929 . S
C1277 C1274 1.404 . S
C1277 N1275 1.334 . S
C1278 H1270 0.930 . S
C1278 C1273 1.418 . S
C1278 C1274 1.353 . S
C1279 H1249 0.930 . S
C1279 N1280 1.330 . S
C1279 C1281 1.446 . S
N1280 Co1239 2.151 . S
N1280 C1279 1.330 . S
N1280 C1284 1.418 . S
C1281 H1260 0.929 . S
C1281 C1279 1.446 . S
C1281 C1282 1.332 . S
C1282 H1262 0.931 . S
C1282 C1281 1.332 . S
C1282 C1283 1.267 . S
C1283 H1251 0.929 . S
C1283 C1282 1.267 . S
C1283 C1284 1.251 . S
C1284 H1254 0.929 . S
C1284 N1280 1.418 . S
C1284 C1283 1.251 . S
C1285 H1252 0.930 . S
C1285 C1287 1.406 . S
C1285 C1290 1.261 . S
C1286 H1253 0.930 . S
C1286 N1288 1.325 . S
C1286 C1289 1.357 . S
C1287 H1255 0.928 . S
C1287 C1285 1.406 . S
C1287 N1288 1.261 . S
N1288 Co1239 2.214 . S
N1288 C1286 1.325 . S
N1288 C1287 1.261 . S
C1289 H1259 0.931 . S
C1289 C1286 1.357 . S
C1289 C1290 1.312 . S
C1290 H1261 0.930 . S
C1290 C1285 1.261 . S
C1290 C1289 1.312 . S
C1291 O1263 1.214 . S
C1291 O1271 1.234 . S
C1292 H1264 0.929 . S
C1292 C1295 1.391 . S
C1292 C1297 1.391 . S
C1293 H1265 0.929 . S
C1293 C1294 1.390 . S
C1293 N1296 1.391 . S
C1294 H1266 0.930 . S
C1294 C1293 1.390 . S
C1294 C1295 1.392 . S
C1295 H1267 0.929 . S
C1295 C1292 1.391 . S
C1295 C1294 1.392 . S
N1296 Co1240 2.257 . S
N1296 C1293 1.391 . S
N1296 C1297 1.388 . S
C1297 H1268 0.930 . S
C1297 C1292 1.391 . S
C1297 N1296 1.388 . S
Co1298 O1300 2.143 . S
Co1298 O1306 2.074 . S
Co1298 O1309 2.093 . S
Co1298 O1322 2.097 . S
Co1298 N1339 2.151 . S
Co1298 N1347 2.214 . S
Co1299 O1300 2.160 . S
Co1299 O1305 2.058 . S
Co1299 O1315 2.057 . S
Co1299 O1330 2.037 . S
Co1299 N1334 2.145 . S
Co1299 N1355 2.257 . S
O1300 Co1298 2.143 . S
O1300 Co1299 2.160 . S
C1301 O1302 1.278 . S
C1301 O1309 1.224 . S
O1302 C1301 1.278 . S
C1303 O1304 1.245 . S
C1303 O1315 1.232 . S
O1304 C1303 1.245 . S
O1305 Co1299 2.058 . S
O1305 C1331 1.269 . S
O1306 Co1298 2.074 . S
O1306 C1331 1.257 . S
H1307 C1332 0.930 . S
H1308 C1338 0.930 . S
O1309 Co1298 2.093 . S
O1309 C1301 1.224 . S
H1310 C1342 0.929 . S
H1311 C1344 0.930 . S
H1312 C1345 0.930 . S
H1313 C1343 0.929 . S
H1314 C1346 0.928 . S
O1315 Co1299 2.057 . S
O1315 C1303 1.232 . S
H1316 C1335 0.929 . S
H1317 C1336 0.929 . S
H1318 C1348 0.931 . S
H1319 C1340 0.929 . S
H1320 C1349 0.930 . S
H1321 C1341 0.931 1_554 S
O1322 Co1298 2.097 . S
O1322 C1350 1.214 . S
H1323 C1351 0.929 . S
H1324 C1352 0.929 . S
H1325 C1353 0.930 . S
H1326 C1354 0.929 . S
H1327 C1356 0.930 . S
H1328 C1333 0.930 . S
H1329 C1337 0.930 . S
O1330 Co1299 2.037 . S
O1330 C1350 1.234 . S
C1331 O1305 1.269 . S
C1331 O1306 1.257 . S
C1332 H1307 0.930 . S
C1332 C1335 1.388 . S
C1332 C1337 1.418 . S
C1333 H1328 0.930 . S
C1333 C1336 1.404 . S
C1333 C1337 1.353 . S
N1334 Co1299 2.145 . S
N1334 C1335 1.397 . S
N1334 C1336 1.334 . S
C1335 H1316 0.929 . S
C1335 C1332 1.388 . S
C1335 N1334 1.397 . S
C1336 H1317 0.929 . S
C1336 C1333 1.404 . S
C1336 N1334 1.334 . S
C1337 H1329 0.930 . S
C1337 C1332 1.418 . S
C1337 C1333 1.353 . S
C1338 H1308 0.930 . S
C1338 N1339 1.330 . S
C1338 C1340 1.446 . S
N1339 Co1298 2.151 . S
N1339 C1338 1.330 . S
N1339 C1343 1.418 . S
C1340 H1319 0.929 . S
C1340 C1338 1.446 . S
C1340 C1341 1.331 . S
C1341 H1321 0.931 1_556 S
C1341 C1340 1.331 . S
C1341 C1342 1.267 1_556 S
C1342 H1310 0.929 . S
C1342 C1341 1.267 1_554 S
C1342 C1343 1.251 1_554 S
C1343 H1313 0.929 . S
C1343 N1339 1.418 . S
C1343 C1342 1.251 1_556 S
C1344 H1311 0.930 . S
C1344 C1346 1.406 . S
C1344 C1349 1.261 . S
C1345 H1312 0.930 . S
C1345 N1347 1.325 . S
C1345 C1348 1.357 1_556 S
C1346 H1314 0.928 . S
C1346 C1344 1.406 . S
C1346 N1347 1.261 1_554 S
N1347 Co1298 2.214 . S
N1347 C1345 1.325 . S
N1347 C1346 1.261 1_556 S
C1348 H1318 0.931 . S
C1348 C1345 1.357 1_554 S
C1348 C1349 1.312 . S
C1349 H1320 0.930 . S
C1349 C1344 1.261 . S
C1349 C1348 1.312 . S
C1350 O1322 1.214 . S
C1350 O1330 1.234 . S
C1351 H1323 0.929 . S
C1351 C1354 1.391 . S
C1351 C1356 1.391 . S
C1352 H1324 0.929 . S
C1352 C1353 1.390 . S
C1352 N1355 1.391 . S
C1353 H1325 0.930 . S
C1353 C1352 1.390 . S
C1353 C1354 1.392 . S
C1354 H1326 0.929 . S
C1354 C1351 1.391 . S
C1354 C1353 1.392 . S
N1355 Co1299 2.257 . S
N1355 C1352 1.391 . S
N1355 C1356 1.388 . S
C1356 H1327 0.930 . S
C1356 C1351 1.391 . S
C1356 N1355 1.388 . S
Co1357 O1359 2.143 . S
Co1357 O1365 2.074 . S
Co1357 O1368 2.093 . S
Co1357 O1381 2.097 . S
Co1357 N1398 2.151 . S
Co1357 N1406 2.214 . S
Co1358 O1359 2.160 . S
Co1358 O1364 2.058 . S
Co1358 O1374 2.057 . S
Co1358 O1389 2.037 . S
Co1358 N1393 2.145 . S
Co1358 N1414 2.257 . S
O1359 Co1357 2.143 . S
O1359 Co1358 2.160 . S
C1360 O1361 1.278 . S
C1360 O1368 1.224 . S
O1361 C1360 1.278 . S
C1362 O1363 1.245 . S
C1362 O1374 1.232 . S
O1363 C1362 1.245 . S
O1364 Co1358 2.058 . S
O1364 C1390 1.269 . S
O1365 Co1357 2.074 . S
O1365 C1390 1.257 . S
H1366 C1391 0.930 . S
H1367 C1397 0.930 . S
O1368 Co1357 2.093 . S
O1368 C1360 1.224 . S
H1369 C1401 0.929 . S
H1370 C1403 0.930 . S
H1371 C1404 0.930 . S
H1372 C1402 0.929 . S
H1373 C1405 0.928 . S
O1374 Co1358 2.057 . S
O1374 C1362 1.232 . S
H1375 C1394 0.929 . S
H1376 C1395 0.929 . S
H1377 C1407 0.931 . S
H1378 C1399 0.929 . S
H1379 C1408 0.930 . S
H1380 C1400 0.931 . S
O1381 Co1357 2.097 . S
O1381 C1409 1.214 . S
H1382 C1410 0.929 . S
H1383 C1411 0.929 . S
H1384 C1412 0.930 . S
H1385 C1413 0.929 . S
H1386 C1415 0.930 . S
H1387 C1392 0.930 . S
H1388 C1396 0.930 . S
O1389 Co1358 2.037 . S
O1389 C1409 1.234 . S
C1390 O1364 1.269 . S
C1390 O1365 1.257 . S
C1391 H1366 0.930 . S
C1391 C1394 1.388 . S
C1391 C1396 1.418 . S
C1392 H1387 0.930 . S
C1392 C1395 1.404 . S
C1392 C1396 1.353 . S
N1393 Co1358 2.145 . S
N1393 C1394 1.397 . S
N1393 C1395 1.334 . S
C1394 H1375 0.929 . S
C1394 C1391 1.388 . S
C1394 N1393 1.397 . S
C1395 H1376 0.929 . S
C1395 C1392 1.404 . S
C1395 N1393 1.334 . S
C1396 H1388 0.930 . S
C1396 C1391 1.418 . S
C1396 C1392 1.353 . S
C1397 H1367 0.930 . S
C1397 N1398 1.330 . S
C1397 C1399 1.446 . S
N1398 Co1357 2.151 . S
N1398 C1397 1.330 . S
N1398 C1402 1.418 . S
C1399 H1378 0.929 . S
C1399 C1397 1.446 . S
C1399 C1400 1.332 . S
C1400 H1380 0.931 . S
C1400 C1399 1.332 . S
C1400 C1401 1.267 . S
C1401 H1369 0.929 . S
C1401 C1400 1.267 . S
C1401 C1402 1.251 . S
C1402 H1372 0.929 . S
C1402 N1398 1.418 . S
C1402 C1401 1.251 . S
C1403 H1370 0.930 . S
C1403 C1405 1.406 . S
C1403 C1408 1.261 . S
C1404 H1371 0.930 . S
C1404 N1406 1.325 . S
C1404 C1407 1.357 . S
C1405 H1373 0.928 . S
C1405 C1403 1.406 . S
C1405 N1406 1.261 . S
N1406 Co1357 2.214 . S
N1406 C1404 1.325 . S
N1406 C1405 1.261 . S
C1407 H1377 0.931 . S
C1407 C1404 1.357 . S
C1407 C1408 1.312 . S
C1408 H1379 0.930 . S
C1408 C1403 1.261 . S
C1408 C1407 1.312 . S
C1409 O1381 1.214 . S
C1409 O1389 1.234 . S
C1410 H1382 0.929 . S
C1410 C1413 1.391 . S
C1410 C1415 1.391 . S
C1411 H1383 0.929 . S
C1411 C1412 1.390 . S
C1411 N1414 1.391 . S
C1412 H1384 0.930 . S
C1412 C1411 1.390 . S
C1412 C1413 1.392 . S
C1413 H1385 0.929 . S
C1413 C1410 1.391 . S
C1413 C1412 1.392 . S
N1414 Co1358 2.257 . S
N1414 C1411 1.391 . S
N1414 C1415 1.388 . S
C1415 H1386 0.930 . S
C1415 C1410 1.391 . S
C1415 N1414 1.388 . S
H1416 C1424 0.929 . S
H1417 C1426 0.930 . S
H1418 C1428 0.930 . S
H1419 C1431 0.929 . S
H1420 C1434 0.930 . S
H1421 C1436 0.960 . S
H1422 C1436 0.960 . S
H1423 C1436 0.960 . S
C1424 H1416 0.929 . S
C1424 C1425 1.377 . S
C1424 C1426 1.384 . S
C1425 C1424 1.377 . S
C1425 C1431 1.390 . S
C1426 H1417 0.930 . S
C1426 C1424 1.384 . S
C1426 C1427 1.372 . S
C1427 C1426 1.372 . S
C1427 C1428 1.400 . S
C1427 C1432 1.490 . S
C1428 H1418 0.930 . S
C1428 C1427 1.400 . S
C1428 C1431 1.386 . S
H1429 C1445 0.930 . S
H1430 C1446 0.931 . S
C1431 H1419 0.929 . S
C1431 C1425 1.390 . S
C1431 C1428 1.386 . S
C1432 C1427 1.490 . S
C1432 C1434 1.395 . S
C1432 C1435 1.403 . S
H1433 C1439 0.930 . S
C1434 H1420 0.930 . S
C1434 C1432 1.395 . S
C1434 C1437 1.403 . S
C1435 C1432 1.403 . S
C1435 C1436 1.524 . S
C1435 C1439 1.400 . S
C1436 H1421 0.960 . S
C1436 H1422 0.960 . S
C1436 H1423 0.960 . S
C1436 C1435 1.524 . S
C1437 C1434 1.403 . S
C1437 C1438 1.392 . S
C1437 C1441 1.495 . S
C1438 C1437 1.392 . S
C1438 C1439 1.385 . S
C1438 C1440 1.478 . S
C1439 H1433 0.930 . S
C1439 C1435 1.400 . S
C1439 C1438 1.385 . S
C1440 C1438 1.478 . S
C1440 C1442 1.381 . S
C1440 C1446 1.383 . S
C1441 C1437 1.495 . S
C1441 H1447 0.959 . S
C1441 H1448 0.961 . S
C1441 H1449 0.960 . S
C1442 C1440 1.381 . S
C1442 C1443 1.394 . S
C1442 H1450 0.930 . S
C1443 C1442 1.394 . S
C1443 C1444 1.383 . S
C1443 H1451 0.929 . S
C1444 C1443 1.383 . S
C1444 C1445 1.377 . S
C1445 H1429 0.930 . S
C1445 C1444 1.377 . S
C1445 C1446 1.379 . S
C1446 H1430 0.931 . S
C1446 C1440 1.383 . S
C1446 C1445 1.379 . S
H1447 C1441 0.959 . S
H1448 C1441 0.961 . S
H1449 C1441 0.960 . S
H1450 C1442 0.930 . S
H1451 C1443 0.929 . S
H1452 C1460 0.929 . S
H1453 C1462 0.930 . S
H1454 C1464 0.930 . S
H1455 C1467 0.933 . S
H1456 C1470 0.930 . S
H1457 C1472 0.960 . S
H1458 C1472 0.960 . S
H1459 C1472 0.960 . S
C1460 H1452 0.929 . S
C1460 C1461 1.377 . S
C1460 C1462 1.384 . S
C1461 C1460 1.377 . S
C1461 C1467 1.390 . S
C1462 H1453 0.930 . S
C1462 C1460 1.384 . S
C1462 C1463 1.372 1_655 S
C1463 C1462 1.372 1_455 S
C1463 C1464 1.400 . S
C1463 C1468 1.490 . S
C1464 H1454 0.930 . S
C1464 C1463 1.400 . S
C1464 C1467 1.386 1_455 S
H1465 C1481 0.930 . S
H1466 C1482 0.931 . S
C1467 H1455 0.933 . S
C1467 C1461 1.390 . S
C1467 C1464 1.386 1_655 S
C1468 C1463 1.490 . S
C1468 C1470 1.395 . S
C1468 C1471 1.403 . S
H1469 C1475 0.930 . S
C1470 H1456 0.930 . S
C1470 C1468 1.395 . S
C1470 C1473 1.403 . S
C1471 C1468 1.403 . S
C1471 C1472 1.524 . S
C1471 C1475 1.400 . S
C1472 H1457 0.960 . S
C1472 H1458 0.960 . S
C1472 H1459 0.960 . S
C1472 C1471 1.524 . S
C1473 C1470 1.403 . S
C1473 C1474 1.392 . S
C1473 C1477 1.495 . S
C1474 C1473 1.392 . S
C1474 C1475 1.385 . S
C1474 C1476 1.478 . S
C1475 H1469 0.930 . S
C1475 C1471 1.400 . S
C1475 C1474 1.385 . S
C1476 C1474 1.478 . S
C1476 C1478 1.381 . S
C1476 C1482 1.383 . S
C1477 C1473 1.495 . S
C1477 H1483 0.959 . S
C1477 H1484 0.961 . S
C1477 H1485 0.960 . S
C1478 C1476 1.381 . S
C1478 C1479 1.394 . S
C1478 H1486 0.930 . S
C1479 C1478 1.394 . S
C1479 C1480 1.383 . S
C1479 H1487 0.929 . S
C1480 C1479 1.383 . S
C1480 C1481 1.377 . S
C1481 H1465 0.930 . S
C1481 C1480 1.377 . S
C1481 C1482 1.379 . S
C1482 H1466 0.931 . S
C1482 C1476 1.383 . S
C1482 C1481 1.379 . S
H1483 C1477 0.959 . S
H1484 C1477 0.961 . S
H1485 C1477 0.960 . S
H1486 C1478 0.930 . S
H1487 C1479 0.929 . S
H1488 C1496 0.929 . S
H1489 C1498 0.930 . S
H1490 C1500 0.930 . S
H1491 C1503 0.929 . S
H1492 C1506 0.930 . S
H1493 C1508 0.960 . S
H1494 C1508 0.960 . S
H1495 C1508 0.960 . S
C1496 H1488 0.929 . S
C1496 C1497 1.377 . S
C1496 C1498 1.384 . S
C1497 C1496 1.377 . S
C1497 C1503 1.390 . S
C1498 H1489 0.930 . S
C1498 C1496 1.384 . S
C1498 C1499 1.372 . S
C1499 C1498 1.372 . S
C1499 C1500 1.400 . S
C1499 C1504 1.490 . S
C1500 H1490 0.930 . S
C1500 C1499 1.400 . S
C1500 C1503 1.386 . S
H1501 C1517 0.930 . S
H1502 C1518 0.931 . S
C1503 H1491 0.929 . S
C1503 C1497 1.390 . S
C1503 C1500 1.386 . S
C1504 C1499 1.490 . S
C1504 C1506 1.395 . S
C1504 C1507 1.403 . S
H1505 C1511 0.930 . S
C1506 H1492 0.930 . S
C1506 C1504 1.395 . S
C1506 C1509 1.403 . S
C1507 C1504 1.403 . S
C1507 C1508 1.524 . S
C1507 C1511 1.400 . S
C1508 H1493 0.960 . S
C1508 H1494 0.960 . S
C1508 H1495 0.960 . S
C1508 C1507 1.524 . S
C1509 C1506 1.403 . S
C1509 C1510 1.392 . S
C1509 C1513 1.495 . S
C1510 C1509 1.392 . S
C1510 C1511 1.385 . S
C1510 C1512 1.478 . S
C1511 H1505 0.930 . S
C1511 C1507 1.400 . S
C1511 C1510 1.385 . S
C1512 C1510 1.478 . S
C1512 C1514 1.381 . S
C1512 C1518 1.383 1_556 S
C1513 C1509 1.495 . S
C1513 H1519 0.959 . S
C1513 H1520 0.961 1_556 S
C1513 H1521 0.960 . S
C1514 C1512 1.381 . S
C1514 C1515 1.394 1_556 S
C1514 H1522 0.930 . S
C1515 C1514 1.394 1_554 S
C1515 C1516 1.383 . S
C1515 H1523 0.929 . S
C1516 C1515 1.383 . S
C1516 C1517 1.377 . S
C1517 H1501 0.930 . S
C1517 C1516 1.377 . S
C1517 C1518 1.379 . S
C1518 H1502 0.931 . S
C1518 C1512 1.383 1_554 S
C1518 C1517 1.379 . S
H1519 C1513 0.959 . S
H1520 C1513 0.961 1_554 S
H1521 C1513 0.960 . S
H1522 C1514 0.930 . S
H1523 C1515 0.929 . S
H1524 C1532 0.929 . S
H1525 C1534 0.930 . S
H1526 C1536 0.930 . S
H1527 C1539 0.929 . S
H1528 C1542 0.930 . S
H1529 C1544 0.960 . S
H1530 C1544 0.960 . S
H1531 C1544 0.960 . S
C1532 H1524 0.929 . S
C1532 C1533 1.377 . S
C1532 C1534 1.384 . S
C1533 C1532 1.377 . S
C1533 C1539 1.390 . S
C1534 H1525 0.930 . S
C1534 C1532 1.384 . S
C1534 C1535 1.372 . S
C1535 C1534 1.372 . S
C1535 C1536 1.400 . S
C1535 C1540 1.490 . S
C1536 H1526 0.930 . S
C1536 C1535 1.400 . S
C1536 C1539 1.386 . S
H1537 C1553 0.930 . S
H1538 C1554 0.931 . S
C1539 H1527 0.929 . S
C1539 C1533 1.390 . S
C1539 C1536 1.386 . S
C1540 C1535 1.490 . S
C1540 C1542 1.395 . S
C1540 C1543 1.403 . S
H1541 C1547 0.930 . S
C1542 H1528 0.930 . S
C1542 C1540 1.395 . S
C1542 C1545 1.403 . S
C1543 C1540 1.403 . S
C1543 C1544 1.524 . S
C1543 C1547 1.400 . S
C1544 H1529 0.960 . S
C1544 H1530 0.960 . S
C1544 H1531 0.960 . S
C1544 C1543 1.524 . S
C1545 C1542 1.403 . S
C1545 C1546 1.392 . S
C1545 C1549 1.495 . S
C1546 C1545 1.392 . S
C1546 C1547 1.385 . S
C1546 C1548 1.478 . S
C1547 H1541 0.930 . S
C1547 C1543 1.400 . S
C1547 C1546 1.385 . S
C1548 C1546 1.478 . S
C1548 C1550 1.381 . S
C1548 C1554 1.383 . S
C1549 C1545 1.495 . S
C1549 H1555 0.959 . S
C1549 H1556 0.961 . S
C1549 H1557 0.960 . S
C1550 C1548 1.381 . S
C1550 C1551 1.394 . S
C1550 H1558 0.930 . S
C1551 C1550 1.394 . S
C1551 C1552 1.383 . S
C1551 H1559 0.929 . S
C1552 C1551 1.383 . S
C1552 C1553 1.377 . S
C1553 H1537 0.930 . S
C1553 C1552 1.377 . S
C1553 C1554 1.379 . S
C1554 H1538 0.931 . S
C1554 C1548 1.383 . S
C1554 C1553 1.379 . S
H1555 C1549 0.959 . S
H1556 C1549 0.961 . S
H1557 C1549 0.960 . S
H1558 C1550 0.930 . S
H1559 C1551 0.929 . S
H1560 C1568 0.929 . S
H1561 C1570 0.930 . S
H1562 C1572 0.930 . S
H1563 C1575 0.929 . S
H1564 C1578 0.930 . S
H1565 C1580 0.960 . S
H1566 C1580 0.960 . S
H1567 C1580 0.960 . S
C1568 H1560 0.929 . S
C1568 C1569 1.377 . S
C1568 C1570 1.384 . S
C1569 C1568 1.377 . S
C1569 C1575 1.390 . S
C1570 H1561 0.930 . S
C1570 C1568 1.384 . S
C1570 C1571 1.372 . S
C1571 C1570 1.372 . S
C1571 C1572 1.400 . S
C1571 C1576 1.490 . S
C1572 H1562 0.930 . S
C1572 C1571 1.400 . S
C1572 C1575 1.386 . S
H1573 C1589 0.930 . S
H1574 C1590 0.931 . S
C1575 H1563 0.929 . S
C1575 C1569 1.390 . S
C1575 C1572 1.386 . S
C1576 C1571 1.490 . S
C1576 C1578 1.395 . S
C1576 C1579 1.403 . S
H1577 C1583 0.930 . S
C1578 H1564 0.930 . S
C1578 C1576 1.395 . S
C1578 C1581 1.403 . S
C1579 C1576 1.403 . S
C1579 C1580 1.524 . S
C1579 C1583 1.400 . S
C1580 H1565 0.960 . S
C1580 H1566 0.960 . S
C1580 H1567 0.960 . S
C1580 C1579 1.524 . S
C1581 C1578 1.403 . S
C1581 C1582 1.392 . S
C1581 C1585 1.495 . S
C1582 C1581 1.392 . S
C1582 C1583 1.385 . S
C1582 C1584 1.478 . S
C1583 H1577 0.930 . S
C1583 C1579 1.400 . S
C1583 C1582 1.385 . S
C1584 C1582 1.478 . S
C1584 C1586 1.381 . S
C1584 C1590 1.383 . S
C1585 C1581 1.495 . S
C1585 H1591 0.959 . S
C1585 H1592 0.961 . S
C1585 H1593 0.960 . S
C1586 C1584 1.381 . S
C1586 C1587 1.394 . S
C1586 H1594 0.930 . S
C1587 C1586 1.394 . S
C1587 C1588 1.383 . S
C1587 H1595 0.929 . S
C1588 C1587 1.383 . S
C1588 C1589 1.377 . S
C1589 H1573 0.930 . S
C1589 C1588 1.377 . S
C1589 C1590 1.379 . S
C1590 H1574 0.931 . S
C1590 C1584 1.383 . S
C1590 C1589 1.379 . S
H1591 C1585 0.959 . S
H1592 C1585 0.961 . S
H1593 C1585 0.960 . S
H1594 C1586 0.930 . S
H1595 C1587 0.929 . S
H1596 C1604 0.929 . S
H1597 C1606 0.930 . S
H1598 C1608 0.930 . S
H1599 C1611 0.929 . S
H1600 C1614 0.930 . S
H1601 C1616 0.960 . S
H1602 C1616 0.960 . S
H1603 C1616 0.960 . S
C1604 H1596 0.929 . S
C1604 C1605 1.377 . S
C1604 C1606 1.384 . S
C1605 C1604 1.377 . S
C1605 C1611 1.390 . S
C1606 H1597 0.930 . S
C1606 C1604 1.384 . S
C1606 C1607 1.372 . S
C1607 C1606 1.372 . S
C1607 C1608 1.400 . S
C1607 C1612 1.490 . S
C1608 H1598 0.930 . S
C1608 C1607 1.400 . S
C1608 C1611 1.386 . S
H1609 C1625 0.930 . S
H1610 C1626 0.931 . S
C1611 H1599 0.929 . S
C1611 C1605 1.390 . S
C1611 C1608 1.386 . S
C1612 C1607 1.490 . S
C1612 C1614 1.395 . S
C1612 C1615 1.403 . S
H1613 C1619 0.930 . S
C1614 H1600 0.930 . S
C1614 C1612 1.395 . S
C1614 C1617 1.403 . S
C1615 C1612 1.403 . S
C1615 C1616 1.524 . S
C1615 C1619 1.400 . S
C1616 H1601 0.960 . S
C1616 H1602 0.960 . S
C1616 H1603 0.960 . S
C1616 C1615 1.524 . S
C1617 C1614 1.403 . S
C1617 C1618 1.392 . S
C1617 C1621 1.495 . S
C1618 C1617 1.392 . S
C1618 C1619 1.385 . S
C1618 C1620 1.478 . S
C1619 H1613 0.930 . S
C1619 C1615 1.400 . S
C1619 C1618 1.385 . S
C1620 C1618 1.478 . S
C1620 C1622 1.381 1_655 S
C1620 C1626 1.383 . S
C1621 C1617 1.495 . S
C1621 H1627 0.959 . S
C1621 H1628 0.961 . S
C1621 H1629 0.899 1_655 S
C1622 C1620 1.381 1_455 S
C1622 C1623 1.394 . S
C1622 H1630 0.930 . S
C1623 C1622 1.394 . S
C1623 C1624 1.383 . S
C1623 H1631 0.929 . S
C1624 C1623 1.383 . S
C1624 C1625 1.377 1_455 S
C1625 H1609 0.930 . S
C1625 C1624 1.377 1_655 S
C1625 C1626 1.379 . S
C1626 H1610 0.931 . S
C1626 C1620 1.383 . S
C1626 C1625 1.379 . S
H1627 C1621 0.959 . S
H1628 C1621 0.961 . S
H1629 C1621 0.899 1_455 S
H1630 C1622 0.930 . S
H1631 C1623 0.929 . S
H1632 C1640 0.929 . S
H1633 C1642 0.930 . S
H1634 C1644 0.930 . S
H1635 C1647 0.929 . S
H1636 C1650 0.930 . S
H1637 C1652 0.960 . S
H1638 C1652 0.960 . S
H1639 C1652 0.960 . S
C1640 H1632 0.929 . S
C1640 C1641 1.377 . S
C1640 C1642 1.384 . S
C1641 C1640 1.377 . S
C1641 C1647 1.390 . S
C1642 H1633 0.930 . S
C1642 C1640 1.384 . S
C1642 C1643 1.372 . S
C1643 C1642 1.372 . S
C1643 C1644 1.400 . S
C1643 C1648 1.490 . S
C1644 H1634 0.930 . S
C1644 C1643 1.400 . S
C1644 C1647 1.386 . S
H1645 C1661 0.930 . S
H1646 C1662 0.931 . S
C1647 H1635 0.929 . S
C1647 C1641 1.390 . S
C1647 C1644 1.386 . S
C1648 C1643 1.490 . S
C1648 C1650 1.395 . S
C1648 C1651 1.403 . S
H1649 C1655 0.930 . S
C1650 H1636 0.930 . S
C1650 C1648 1.395 . S
C1650 C1653 1.403 . S
C1651 C1648 1.403 . S
C1651 C1652 1.524 . S
C1651 C1655 1.400 . S
C1652 H1637 0.960 . S
C1652 H1638 0.960 . S
C1652 H1639 0.960 . S
C1652 C1651 1.524 . S
C1653 C1650 1.403 . S
C1653 C1654 1.392 . S
C1653 C1657 1.495 . S
C1654 C1653 1.392 . S
C1654 C1655 1.385 . S
C1654 C1656 1.478 . S
C1655 H1649 0.930 . S
C1655 C1651 1.400 . S
C1655 C1654 1.385 . S
C1656 C1654 1.478 . S
C1656 C1658 1.381 1_554 S
C1656 C1662 1.383 . S
C1657 C1653 1.495 . S
C1657 H1663 0.959 . S
C1657 H1664 0.961 . S
C1657 H1665 0.960 1_554 S
C1658 C1656 1.381 1_556 S
C1658 C1659 1.394 . S
C1658 H1666 0.930 . S
C1659 C1658 1.394 . S
C1659 C1660 1.383 . S
C1659 H1667 0.929 . S
C1660 C1659 1.383 . S
C1660 C1661 1.377 1_556 S
C1661 H1645 0.930 . S
C1661 C1660 1.377 1_554 S
C1661 C1662 1.379 . S
C1662 H1646 0.931 . S
C1662 C1656 1.383 . S
C1662 C1661 1.379 . S
H1663 C1657 0.959 . S
H1664 C1657 0.961 . S
H1665 C1657 0.960 1_556 S
H1666 C1658 0.930 . S
H1667 C1659 0.929 . S
H1668 C1676 0.929 . S
H1669 C1678 0.930 . S
H1670 C1680 0.930 . S
H1671 C1683 0.929 . S
H1672 C1686 0.930 . S
H1673 C1688 0.960 . S
H1674 C1688 0.960 . S
H1675 C1688 0.960 . S
C1676 H1668 0.929 . S
C1676 C1677 1.377 . S
C1676 C1678 1.384 . S
C1677 C1676 1.377 . S
C1677 C1683 1.390 . S
C1678 H1669 0.930 . S
C1678 C1676 1.384 . S
C1678 C1679 1.372 . S
C1679 C1678 1.372 . S
C1679 C1680 1.400 . S
C1679 C1684 1.490 . S
C1680 H1670 0.930 . S
C1680 C1679 1.400 . S
C1680 C1683 1.386 . S
H1681 C1697 0.930 . S
H1682 C1698 0.931 . S
C1683 H1671 0.929 . S
C1683 C1677 1.390 . S
C1683 C1680 1.386 . S
C1684 C1679 1.490 . S
C1684 C1686 1.395 . S
C1684 C1687 1.403 . S
H1685 C1691 0.930 . S
C1686 H1672 0.930 . S
C1686 C1684 1.395 . S
C1686 C1689 1.403 . S
C1687 C1684 1.403 . S
C1687 C1688 1.524 . S
C1687 C1691 1.400 . S
C1688 H1673 0.960 . S
C1688 H1674 0.960 . S
C1688 H1675 0.960 . S
C1688 C1687 1.524 . S
C1689 C1686 1.403 . S
C1689 C1690 1.392 . S
C1689 C1693 1.495 . S
C1690 C1689 1.392 . S
C1690 C1691 1.385 . S
C1690 C1692 1.478 . S
C1691 H1685 0.930 . S
C1691 C1687 1.400 . S
C1691 C1690 1.385 . S
C1692 C1690 1.478 . S
C1692 C1694 1.381 . S
C1692 C1698 1.383 . S
C1693 C1689 1.495 . S
C1693 H1699 0.959 . S
C1693 H1700 0.961 . S
C1693 H1701 0.960 . S
C1694 C1692 1.381 . S
C1694 C1695 1.394 . S
C1694 H1702 0.930 . S
C1695 C1694 1.394 . S
C1695 C1696 1.383 . S
C1695 H1703 0.929 . S
C1696 C1695 1.383 . S
C1696 C1697 1.377 . S
C1697 H1681 0.930 . S
C1697 C1696 1.377 . S
C1697 C1698 1.379 . S
C1698 H1682 0.931 . S
C1698 C1692 1.383 . S
C1698 C1697 1.379 . S
H1699 C1693 0.959 . S
H1700 C1693 0.961 . S
H1701 C1693 0.960 . S
H1702 C1694 0.930 . S
H1703 C1695 0.929 . S
H1704 C1712 0.929 . S
H1705 C1714 0.930 . S
H1706 C1716 0.930 . S
H1707 C1719 0.929 . S
H1708 C1722 0.930 . S
H1709 C1724 0.960 . S
H1710 C1724 0.960 . S
H1711 C1724 0.960 . S
C1712 H1704 0.929 . S
C1712 C1713 1.377 . S
C1712 C1714 1.384 . S
C1713 C1712 1.377 . S
C1713 C1719 1.390 . S
C1714 H1705 0.930 . S
C1714 C1712 1.384 . S
C1714 C1715 1.372 . S
C1715 C1714 1.372 . S
C1715 C1716 1.400 . S
C1715 C1720 1.490 . S
C1716 H1706 0.930 . S
C1716 C1715 1.400 . S
C1716 C1719 1.386 . S
H1717 C1733 0.930 . S
H1718 C1734 0.931 . S
C1719 H1707 0.929 . S
C1719 C1713 1.390 . S
C1719 C1716 1.386 . S
C1720 C1715 1.490 . S
C1720 C1722 1.395 . S
C1720 C1723 1.403 . S
H1721 C1727 0.930 . S
C1722 H1708 0.930 . S
C1722 C1720 1.395 . S
C1722 C1725 1.403 . S
C1723 C1720 1.403 . S
C1723 C1724 1.524 . S
C1723 C1727 1.400 . S
C1724 H1709 0.960 . S
C1724 H1710 0.960 . S
C1724 H1711 0.960 . S
C1724 C1723 1.524 . S
C1725 C1722 1.403 . S
C1725 C1726 1.392 . S
C1725 C1729 1.495 . S
C1726 C1725 1.392 . S
C1726 C1727 1.385 . S
C1726 C1728 1.478 . S
C1727 H1721 0.930 . S
C1727 C1723 1.400 . S
C1727 C1726 1.385 . S
C1728 C1726 1.478 . S
C1728 C1730 1.381 . S
C1728 C1734 1.383 . S
C1729 C1725 1.495 . S
C1729 H1735 0.959 . S
C1729 H1736 0.961 . S
C1729 H1737 0.960 . S
C1730 C1728 1.381 . S
C1730 C1731 1.394 . S
C1730 H1738 0.930 . S
C1731 C1730 1.394 . S
C1731 C1732 1.383 . S
C1731 H1739 0.929 . S
C1732 C1731 1.383 . S
C1732 C1733 1.377 . S
C1733 H1717 0.930 . S
C1733 C1732 1.377 . S
C1733 C1734 1.379 . S
C1734 H1718 0.931 . S
C1734 C1728 1.383 . S
C1734 C1733 1.379 . S
H1735 C1729 0.959 . S
H1736 C1729 0.961 . S
H1737 C1729 0.960 . S
H1738 C1730 0.930 . S
H1739 C1731 0.929 . S
H1740 C1748 0.929 . S
H1741 C1750 0.930 . S
H1742 C1752 0.930 . S
H1743 C1755 0.929 . S
H1744 C1758 0.930 . S
H1745 C1760 0.960 . S
H1746 C1760 0.960 1_565 S
H1747 C1760 0.960 . S
C1748 H1740 0.929 . S
C1748 C1749 1.377 . S
C1748 C1750 1.384 . S
C1749 C1748 1.377 . S
C1749 C1755 1.390 . S
C1750 H1741 0.930 . S
C1750 C1748 1.384 . S
C1750 C1751 1.372 1_565 S
C1751 C1750 1.372 1_545 S
C1751 C1752 1.400 . S
C1751 C1756 1.490 . S
C1752 H1742 0.930 . S
C1752 C1751 1.400 . S
C1752 C1755 1.386 1_545 S
H1753 C1769 0.930 . S
H1754 C1770 0.931 . S
C1755 H1743 0.929 . S
C1755 C1749 1.390 . S
C1755 C1752 1.386 1_565 S
C1756 C1751 1.490 . S
C1756 C1758 1.395 . S
C1756 C1759 1.403 . S
H1757 C1763 0.930 . S
C1758 H1744 0.930 . S
C1758 C1756 1.395 . S
C1758 C1761 1.403 . S
C1759 C1756 1.403 . S
C1759 C1760 1.524 . S
C1759 C1763 1.400 . S
C1760 H1745 0.960 . S
C1760 H1746 0.960 1_545 S
C1760 H1747 0.960 . S
C1760 C1759 1.524 . S
C1761 C1758 1.403 . S
C1761 C1762 1.392 . S
C1761 C1765 1.495 . S
C1762 C1761 1.392 . S
C1762 C1763 1.385 . S
C1762 C1764 1.478 . S
C1763 H1757 0.930 . S
C1763 C1759 1.400 . S
C1763 C1762 1.385 . S
C1764 C1762 1.478 . S
C1764 C1766 1.381 . S
C1764 C1770 1.383 . S
C1765 C1761 1.495 . S
C1765 H1771 0.959 . S
C1765 H1772 0.961 . S
C1765 H1773 0.960 . S
C1766 C1764 1.381 . S
C1766 C1767 1.394 . S
C1766 H1774 0.930 . S
C1767 C1766 1.394 . S
C1767 C1768 1.383 . S
C1767 H1775 0.929 . S
C1768 C1767 1.383 . S
C1768 C1769 1.377 . S
C1769 H1753 0.930 . S
C1769 C1768 1.377 . S
C1769 C1770 1.379 . S
C1770 H1754 0.931 . S
C1770 C1764 1.383 . S
C1770 C1769 1.379 . S
H1771 C1765 0.959 . S
H1772 C1765 0.961 . S
H1773 C1765 0.960 . S
H1774 C1766 0.930 . S
H1775 C1767 0.929 . S
H1776 C1784 0.929 . S
H1777 C1786 0.930 . S
H1778 C1788 0.930 . S
H1779 C1791 0.929 . S
H1780 C1794 0.930 . S
H1781 C1796 0.960 . S
H1782 C1796 0.960 . S
H1783 C1796 0.960 . S
C1784 H1776 0.929 . S
C1784 C1785 1.377 . S
C1784 C1786 1.384 . S
C1785 C1784 1.377 . S
C1785 C1791 1.390 . S
C1786 H1777 0.930 . S
C1786 C1784 1.384 . S
C1786 C1787 1.372 . S
C1787 C1786 1.372 . S
C1787 C1788 1.400 . S
C1787 C1792 1.490 . S
C1788 H1778 0.930 . S
C1788 C1787 1.400 . S
C1788 C1791 1.386 . S
H1789 C1805 0.930 . S
H1790 C1806 0.931 . S
C1791 H1779 0.929 . S
C1791 C1785 1.390 . S
C1791 C1788 1.386 . S
C1792 C1787 1.490 . S
C1792 C1794 1.395 . S
C1792 C1795 1.403 . S
H1793 C1799 0.930 . S
C1794 H1780 0.930 . S
C1794 C1792 1.395 . S
C1794 C1797 1.403 . S
C1795 C1792 1.403 . S
C1795 C1796 1.524 . S
C1795 C1799 1.400 . S
C1796 H1781 0.960 . S
C1796 H1782 0.960 . S
C1796 H1783 0.960 . S
C1796 C1795 1.524 . S
C1797 C1794 1.403 . S
C1797 C1798 1.392 . S
C1797 C1801 1.495 . S
C1798 C1797 1.392 . S
C1798 C1799 1.385 . S
C1798 C1800 1.478 . S
C1799 H1793 0.930 . S
C1799 C1795 1.400 . S
C1799 C1798 1.385 . S
C1800 C1798 1.478 . S
C1800 C1802 1.381 1_565 S
C1800 C1806 1.383 . S
C1801 C1797 1.495 . S
C1801 H1807 0.959 . S
C1801 H1808 0.961 . S
C1801 H1809 0.960 1_565 S
C1802 C1800 1.381 1_545 S
C1802 C1803 1.394 . S
C1802 H1810 0.930 . S
C1803 C1802 1.394 . S
C1803 C1804 1.383 . S
C1803 H1811 0.929 . S
C1804 C1803 1.383 . S
C1804 C1805 1.377 1_545 S
C1805 H1789 0.930 . S
C1805 C1804 1.377 1_565 S
C1805 C1806 1.379 . S
C1806 H1790 0.931 . S
C1806 C1800 1.383 . S
C1806 C1805 1.379 . S
H1807 C1801 0.959 . S
H1808 C1801 0.961 . S
H1809 C1801 0.960 1_545 S
H1810 C1802 0.930 . S
H1811 C1803 0.929 . S
H1812 C1820 0.929 . S
H1813 C1822 0.930 . S
H1814 C1824 0.930 . S
H1815 C1827 0.929 . S
H1816 C1830 0.930 . S
H1817 C1832 0.960 . S
H1818 C1832 0.960 . S
H1819 C1832 0.960 . S
C1820 H1812 0.929 . S
C1820 C1821 1.377 . S
C1820 C1822 1.384 . S
C1821 C1820 1.377 . S
C1821 C1827 1.390 . S
C1822 H1813 0.930 . S
C1822 C1820 1.384 . S
C1822 C1823 1.372 . S
C1823 C1822 1.372 . S
C1823 C1824 1.400 . S
C1823 C1828 1.490 . S
C1824 H1814 0.930 . S
C1824 C1823 1.400 . S
C1824 C1827 1.386 . S
H1825 C1841 0.930 . S
H1826 C1842 0.931 . S
C1827 H1815 0.929 . S
C1827 C1821 1.390 . S
C1827 C1824 1.386 . S
C1828 C1823 1.490 . S
C1828 C1830 1.395 . S
C1828 C1831 1.403 . S
H1829 C1835 0.930 . S
C1830 H1816 0.930 . S
C1830 C1828 1.395 . S
C1830 C1833 1.403 . S
C1831 C1828 1.403 . S
C1831 C1832 1.524 . S
C1831 C1835 1.400 . S
C1832 H1817 0.960 . S
C1832 H1818 0.960 . S
C1832 H1819 0.960 . S
C1832 C1831 1.524 . S
C1833 C1830 1.403 . S
C1833 C1834 1.392 . S
C1833 C1837 1.495 . S
C1834 C1833 1.392 . S
C1834 C1835 1.385 . S
C1834 C1836 1.478 . S
C1835 H1829 0.930 . S
C1835 C1831 1.400 . S
C1835 C1834 1.385 . S
C1836 C1834 1.478 . S
C1836 C1838 1.381 . S
C1836 C1842 1.383 . S
C1837 C1833 1.495 . S
C1837 H1843 0.959 . S
C1837 H1844 0.961 . S
C1837 H1845 0.960 . S
C1838 C1836 1.381 . S
C1838 C1839 1.394 . S
C1838 H1846 0.930 . S
C1839 C1838 1.394 . S
C1839 C1840 1.383 . S
C1839 H1847 0.929 . S
C1840 C1839 1.383 . S
C1840 C1841 1.377 . S
C1841 H1825 0.930 . S
C1841 C1840 1.377 . S
C1841 C1842 1.379 . S
C1842 H1826 0.931 . S
C1842 C1836 1.383 . S
C1842 C1841 1.379 . S
H1843 C1837 0.959 . S
H1844 C1837 0.961 . S
H1845 C1837 0.960 . S
H1846 C1838 0.930 . S
H1847 C1839 0.929 . S
H1848 C1856 0.929 . S
H1849 C1858 0.930 . S
H1850 C1860 0.930 . S
H1851 C1863 0.929 . S
H1852 C1866 0.930 . S
H1853 C1868 0.960 . S
H1854 C1868 0.960 . S
H1855 C1868 0.960 . S
C1856 H1848 0.929 . S
C1856 C1857 1.377 . S
C1856 C1858 1.384 . S
C1857 C1856 1.377 . S
C1857 C1863 1.390 . S
C1858 H1849 0.930 . S
C1858 C1856 1.384 . S
C1858 C1859 1.372 . S
C1859 C1858 1.372 . S
C1859 C1860 1.400 . S
C1859 C1864 1.490 . S
C1860 H1850 0.930 . S
C1860 C1859 1.400 . S
C1860 C1863 1.386 . S
H1861 C1877 0.930 . S
H1862 C1878 0.931 . S
C1863 H1851 0.929 . S
C1863 C1857 1.390 . S
C1863 C1860 1.386 . S
C1864 C1859 1.490 . S
C1864 C1866 1.395 . S
C1864 C1867 1.403 . S
H1865 C1871 0.930 . S
C1866 H1852 0.930 . S
C1866 C1864 1.395 . S
C1866 C1869 1.403 . S
C1867 C1864 1.403 . S
C1867 C1868 1.524 . S
C1867 C1871 1.400 . S
C1868 H1853 0.960 . S
C1868 H1854 0.960 . S
C1868 H1855 0.960 . S
C1868 C1867 1.524 . S
C1869 C1866 1.403 . S
C1869 C1870 1.392 . S
C1869 C1873 1.495 . S
C1870 C1869 1.392 . S
C1870 C1871 1.385 . S
C1870 C1872 1.478 . S
C1871 H1865 0.930 . S
C1871 C1867 1.400 . S
C1871 C1870 1.385 . S
C1872 C1870 1.478 . S
C1872 C1874 1.381 . S
C1872 C1878 1.383 . S
C1873 C1869 1.495 . S
C1873 H1879 0.959 . S
C1873 H1880 0.961 . S
C1873 H1881 0.960 . S
C1874 C1872 1.381 . S
C1874 C1875 1.394 . S
C1874 H1882 0.930 . S
C1875 C1874 1.394 . S
C1875 C1876 1.383 . S
C1875 H1883 0.929 . S
C1876 C1875 1.383 . S
C1876 C1877 1.377 . S
C1877 H1861 0.930 . S
C1877 C1876 1.377 . S
C1877 C1878 1.379 . S
C1878 H1862 0.931 . S
C1878 C1872 1.383 . S
C1878 C1877 1.379 . S
H1879 C1873 0.959 . S
H1880 C1873 0.961 . S
H1881 C1873 0.960 . S
H1882 C1874 0.930 . S
H1883 C1875 0.929 . S
H1884 C1892 0.929 . S
H1885 C1894 0.930 . S
H1886 C1896 0.930 . S
H1887 C1899 0.929 . S
H1888 C1902 0.930 . S
H1889 C1904 0.960 . S
H1890 C1904 0.960 . S
H1891 C1904 0.960 . S
C1892 H1884 0.929 . S
C1892 C1893 1.377 . S
C1892 C1894 1.384 . S
C1893 C1892 1.377 . S
C1893 C1899 1.390 . S
C1894 H1885 0.930 . S
C1894 C1892 1.384 . S
C1894 C1895 1.372 . S
C1895 C1894 1.372 . S
C1895 C1896 1.400 . S
C1895 C1900 1.490 1_565 S
C1896 H1886 0.930 . S
C1896 C1895 1.400 . S
C1896 C1899 1.386 . S
H1897 C1913 0.930 . S
H1898 C1914 0.931 . S
C1899 H1887 0.929 . S
C1899 C1893 1.390 . S
C1899 C1896 1.386 . S
C1900 C1895 1.490 1_545 S
C1900 C1902 1.395 . S
C1900 C1903 1.405 . S
H1901 C1907 0.930 . S
C1902 H1888 0.930 . S
C1902 C1900 1.395 . S
C1902 C1905 1.403 . S
C1903 C1900 1.405 . S
C1903 C1904 1.510 1_545 S
C1903 C1907 1.412 . S
C1904 H1889 0.960 . S
C1904 H1890 0.960 . S
C1904 H1891 0.960 . S
C1904 C1903 1.510 1_565 S
C1905 C1902 1.403 . S
C1905 C1906 1.392 . S
C1905 C1909 1.495 . S
C1906 C1905 1.392 . S
C1906 C1907 1.385 . S
C1906 C1908 1.478 . S
C1907 H1901 0.930 . S
C1907 C1903 1.412 . S
C1907 C1906 1.385 . S
C1908 C1906 1.478 . S
C1908 C1910 1.381 . S
C1908 C1914 1.383 . S
C1909 C1905 1.495 . S
C1909 H1915 0.959 . S
C1909 H1916 0.961 . S
C1909 H1917 0.960 . S
C1910 C1908 1.381 . S
C1910 C1911 1.394 . S
C1910 H1918 0.930 . S
C1911 C1910 1.394 . S
C1911 C1912 1.383 . S
C1911 H1919 0.929 . S
C1912 C1911 1.383 . S
C1912 C1913 1.377 . S
C1913 H1897 0.930 . S
C1913 C1912 1.377 . S
C1913 C1914 1.379 . S
C1914 H1898 0.931 . S
C1914 C1908 1.383 . S
C1914 C1913 1.379 . S
H1915 C1909 0.959 . S
H1916 C1909 0.961 . S
H1917 C1909 0.960 . S
H1918 C1910 0.930 . S
H1919 C1911 0.929 . S
H1920 C1928 0.929 . S
H1921 C1930 0.930 . S
H1922 C1932 0.930 . S
H1923 C1935 0.929 . S
H1924 C1938 0.930 . S
H1925 C1940 0.960 . S
H1926 C1940 0.960 . S
H1927 C1940 0.960 . S
C1928 H1920 0.929 . S
C1928 C1929 1.377 . S
C1928 C1930 1.384 . S
C1929 C1928 1.377 . S
C1929 C1935 1.390 . S
C1930 H1921 0.930 . S
C1930 C1928 1.384 . S
C1930 C1931 1.372 . S
C1931 C1930 1.372 . S
C1931 C1932 1.400 . S
C1931 C1936 1.490 . S
C1932 H1922 0.930 . S
C1932 C1931 1.400 . S
C1932 C1935 1.386 . S
H1933 C1949 0.930 . S
H1934 C1950 0.931 . S
C1935 H1923 0.929 . S
C1935 C1929 1.390 . S
C1935 C1932 1.386 . S
C1936 C1931 1.490 . S
C1936 C1938 1.395 . S
C1936 C1939 1.403 . S
H1937 C1943 0.930 . S
C1938 H1924 0.930 . S
C1938 C1936 1.395 . S
C1938 C1941 1.403 . S
C1939 C1936 1.403 . S
C1939 C1940 1.524 . S
C1939 C1943 1.400 . S
C1940 H1925 0.960 . S
C1940 H1926 0.960 . S
C1940 H1927 0.960 . S
C1940 C1939 1.524 . S
C1941 C1938 1.403 . S
C1941 C1942 1.392 . S
C1941 C1945 1.495 1_556 S
C1942 C1941 1.392 . S
C1942 C1943 1.385 . S
C1942 C1944 1.478 1_556 S
C1943 H1937 0.930 . S
C1943 C1939 1.400 . S
C1943 C1942 1.385 . S
C1944 C1942 1.478 1_554 S
C1944 C1946 1.381 . S
C1944 C1950 1.383 . S
C1945 C1941 1.495 1_554 S
C1945 H1951 0.959 . S
C1945 H1952 0.961 . S
C1945 H1953 0.960 . S
C1946 C1944 1.381 . S
C1946 C1947 1.394 . S
C1946 H1954 0.930 . S
C1947 C1946 1.394 . S
C1947 C1948 1.383 . S
C1947 H1955 0.929 . S
C1948 C1947 1.383 . S
C1948 C1949 1.377 . S
C1949 H1933 0.930 . S
C1949 C1948 1.377 . S
C1949 C1950 1.379 . S
C1950 H1934 0.931 . S
C1950 C1944 1.383 . S
C1950 C1949 1.379 . S
H1951 C1945 0.959 . S
H1952 C1945 0.961 . S
H1953 C1945 0.960 . S
H1954 C1946 0.930 . S
H1955 C1947 0.929 . S
H1956 C1964 0.929 . S
H1957 C1966 0.930 . S
H1958 C1968 0.930 1_565 S
H1959 C1971 0.929 . S
H1960 C1974 0.930 . S
H1961 C1976 0.947 1_565 S
H1962 C1976 0.960 . S
H1963 C1976 0.960 . S
C1964 H1956 0.929 . S
C1964 C1965 1.377 . S
C1964 C1966 1.384 . S
C1965 C1964 1.377 . S
C1965 C1971 1.390 . S
C1966 H1957 0.930 . S
C1966 C1964 1.384 . S
C1966 C1967 1.372 . S
C1967 C1966 1.372 . S
C1967 C1968 1.400 . S
C1967 C1972 1.490 1_545 S
C1968 H1958 0.930 1_545 S
C1968 C1967 1.400 . S
C1968 C1971 1.386 . S
H1969 C1985 0.930 . S
H1970 C1986 0.931 . S
C1971 H1959 0.929 . S
C1971 C1965 1.390 . S
C1971 C1968 1.386 . S
C1972 C1967 1.490 1_565 S
C1972 C1974 1.395 . S
C1972 C1975 1.403 . S
H1973 C1979 0.930 . S
C1974 H1960 0.930 . S
C1974 C1972 1.395 . S
C1974 C1977 1.403 . S
C1975 C1972 1.403 . S
C1975 C1976 1.524 1_565 S
C1975 C1979 1.400 . S
C1976 H1961 0.947 1_545 S
C1976 H1962 0.960 . S
C1976 H1963 0.960 . S
C1976 C1975 1.524 1_545 S
C1977 C1974 1.403 . S
C1977 C1978 1.392 . S
C1977 C1981 1.495 . S
C1978 C1977 1.392 . S
C1978 C1979 1.385 . S
C1978 C1980 1.478 . S
C1979 H1973 0.930 . S
C1979 C1975 1.400 . S
C1979 C1978 1.385 . S
C1980 C1978 1.478 . S
C1980 C1982 1.381 . S
C1980 C1986 1.383 . S
C1981 C1977 1.495 . S
C1981 H1987 0.959 . S
C1981 H1988 0.961 . S
C1981 H1989 0.960 . S
C1982 C1980 1.381 . S
C1982 C1983 1.394 . S
C1982 H1990 0.930 . S
C1983 C1982 1.394 . S
C1983 C1984 1.383 . S
C1983 H1991 0.929 . S
C1984 C1983 1.383 . S
C1984 C1985 1.377 . S
C1985 H1969 0.930 . S
C1985 C1984 1.377 . S
C1985 C1986 1.379 . S
C1986 H1970 0.931 . S
C1986 C1980 1.383 . S
C1986 C1985 1.379 . S
H1987 C1981 0.959 . S
H1988 C1981 0.961 . S
H1989 C1981 0.960 . S
H1990 C1982 0.930 . S
H1991 C1983 0.929 . S
H1992 C2000 0.929 . S
H1993 C2002 0.930 . S
H1994 C2004 0.930 . S
H1995 C2007 0.929 . S
H1996 C2010 0.930 . S
H1997 C2012 0.960 . S
H1998 C2012 0.960 . S
H1999 C2012 0.960 . S
C2000 H1992 0.929 . S
C2000 C2001 1.377 . S
C2000 C2002 1.384 . S
C2001 C2000 1.377 . S
C2001 C2007 1.390 . S
C2002 H1993 0.930 . S
C2002 C2000 1.384 . S
C2002 C2003 1.372 . S
C2003 C2002 1.372 . S
C2003 C2004 1.400 . S
C2003 C2008 1.490 . S
C2004 H1994 0.930 . S
C2004 C2003 1.400 . S
C2004 C2007 1.386 . S
H2005 C2021 0.930 . S
H2006 C2022 0.931 . S
C2007 H1995 0.929 . S
C2007 C2001 1.390 . S
C2007 C2004 1.386 . S
C2008 C2003 1.490 . S
C2008 C2010 1.395 . S
C2008 C2011 1.403 . S
H2009 C2015 0.930 . S
C2010 H1996 0.930 . S
C2010 C2008 1.395 . S
C2010 C2013 1.403 . S
C2011 C2008 1.403 . S
C2011 C2012 1.524 . S
C2011 C2015 1.400 . S
C2012 H1997 0.960 . S
C2012 H1998 0.960 . S
C2012 H1999 0.960 . S
C2012 C2011 1.524 . S
C2013 C2010 1.403 . S
C2013 C2014 1.392 . S
C2013 C2017 1.495 . S
C2014 C2013 1.392 . S
C2014 C2015 1.385 . S
C2014 C2016 1.478 . S
C2015 H2009 0.930 . S
C2015 C2011 1.400 . S
C2015 C2014 1.385 . S
C2016 C2014 1.478 . S
C2016 C2018 1.381 . S
C2016 C2022 1.383 . S
C2017 C2013 1.495 . S
C2017 H2023 0.959 . S
C2017 H2024 0.961 . S
C2017 H2025 0.960 . S
C2018 C2016 1.381 . S
C2018 C2019 1.394 . S
C2018 H2026 0.930 . S
C2019 C2018 1.394 . S
C2019 C2020 1.383 . S
C2019 H2027 0.929 . S
C2020 C2019 1.383 . S
C2020 C2021 1.377 . S
C2021 H2005 0.930 . S
C2021 C2020 1.377 . S
C2021 C2022 1.379 . S
C2022 H2006 0.931 . S
C2022 C2016 1.383 . S
C2022 C2021 1.379 . S
H2023 C2017 0.959 . S
H2024 C2017 0.961 . S
H2025 C2017 0.960 . S
H2026 C2018 0.930 . S
H2027 C2019 0.929 . S
H2028 C2036 0.929 . S
H2029 C2038 0.930 . S
H2030 C2040 0.930 . S
H2031 C2043 0.929 . S
H2032 C2046 0.930 . S
H2033 C2048 0.960 . S
H2034 C2048 0.960 . S
H2035 C2048 0.960 . S
C2036 H2028 0.929 . S
C2036 C2037 1.377 . S
C2036 C2038 1.384 . S
C2037 C2036 1.377 . S
C2037 C2043 1.390 . S
C2038 H2029 0.930 . S
C2038 C2036 1.384 . S
C2038 C2039 1.372 . S
C2039 C2038 1.372 . S
C2039 C2040 1.400 . S
C2039 C2044 1.490 . S
C2040 H2030 0.930 . S
C2040 C2039 1.400 . S
C2040 C2043 1.386 . S
H2041 C2057 0.930 . S
H2042 C2058 0.931 . S
C2043 H2031 0.929 . S
C2043 C2037 1.390 . S
C2043 C2040 1.386 . S
C2044 C2039 1.490 . S
C2044 C2046 1.395 . S
C2044 C2047 1.403 . S
H2045 C2051 0.930 . S
C2046 H2032 0.930 . S
C2046 C2044 1.395 . S
C2046 C2049 1.403 . S
C2047 C2044 1.403 . S
C2047 C2048 1.524 . S
C2047 C2051 1.400 . S
C2048 H2033 0.960 . S
C2048 H2034 0.960 . S
C2048 H2035 0.960 . S
C2048 C2047 1.524 . S
C2049 C2046 1.403 . S
C2049 C2050 1.392 . S
C2049 C2053 1.495 . S
C2050 C2049 1.392 . S
C2050 C2051 1.385 . S
C2050 C2052 1.478 . S
C2051 H2045 0.930 . S
C2051 C2047 1.400 . S
C2051 C2050 1.385 . S
C2052 C2050 1.478 . S
C2052 C2054 1.381 . S
C2052 C2058 1.383 . S
C2053 C2049 1.495 . S
C2053 H2059 0.959 . S
C2053 H2060 0.961 . S
C2053 H2061 0.960 . S
C2054 C2052 1.381 . S
C2054 C2055 1.394 . S
C2054 H2062 0.930 . S
C2055 C2054 1.394 . S
C2055 C2056 1.383 . S
C2055 H2063 0.929 . S
C2056 C2055 1.383 . S
C2056 C2057 1.377 . S
C2057 H2041 0.930 . S
C2057 C2056 1.377 . S
C2057 C2058 1.379 . S
C2058 H2042 0.931 . S
C2058 C2052 1.383 . S
C2058 C2057 1.379 . S
H2059 C2053 0.959 . S
H2060 C2053 0.961 . S
H2061 C2053 0.960 . S
H2062 C2054 0.930 . S
H2063 C2055 0.929 . S
H2064 C2072 0.929 . S
H2065 C2074 0.930 1_554 S
H2066 C2076 0.930 . S
H2067 C2079 0.929 . S
H2068 C2082 0.930 . S
H2069 C2084 0.960 . S
H2070 C2084 0.960 . S
H2071 C2084 0.960 . S
C2072 H2064 0.929 . S
C2072 C2073 1.377 . S
C2072 C2074 1.384 . S
C2073 C2072 1.377 . S
C2073 C2079 1.390 . S
C2074 H2065 0.930 1_556 S
C2074 C2072 1.384 . S
C2074 C2075 1.372 . S
C2075 C2074 1.372 . S
C2075 C2076 1.400 . S
C2075 C2080 1.490 1_556 S
C2076 H2066 0.930 . S
C2076 C2075 1.400 . S
C2076 C2079 1.386 . S
H2077 C2093 0.930 . S
H2078 C2094 0.931 . S
C2079 H2067 0.929 . S
C2079 C2073 1.390 . S
C2079 C2076 1.386 . S
C2080 C2075 1.490 1_554 S
C2080 C2082 1.395 . S
C2080 C2083 1.403 . S
H2081 C2087 0.930 . S
C2082 H2068 0.930 . S
C2082 C2080 1.395 . S
C2082 C2085 1.403 . S
C2083 C2080 1.403 . S
C2083 C2084 1.524 1_554 S
C2083 C2087 1.400 . S
C2084 H2069 0.960 . S
C2084 H2070 0.960 . S
C2084 H2071 0.960 . S
C2084 C2083 1.524 1_556 S
C2085 C2082 1.403 . S
C2085 C2086 1.392 . S
C2085 C2089 1.495 . S
C2086 C2085 1.392 . S
C2086 C2087 1.385 . S
C2086 C2088 1.478 . S
C2087 H2081 0.930 . S
C2087 C2083 1.400 . S
C2087 C2086 1.385 . S
C2088 C2086 1.478 . S
C2088 C2090 1.381 . S
C2088 C2094 1.383 . S
C2089 C2085 1.495 . S
C2089 H2095 0.959 . S
C2089 H2096 0.961 . S
C2089 H2097 0.960 . S
C2090 C2088 1.381 . S
C2090 C2091 1.394 . S
C2090 H2098 0.930 . S
C2091 C2090 1.394 . S
C2091 C2092 1.383 . S
C2091 H2099 0.929 . S
C2092 C2091 1.383 . S
C2092 C2093 1.377 . S
C2093 H2077 0.930 . S
C2093 C2092 1.377 . S
C2093 C2094 1.379 . S
C2094 H2078 0.931 . S
C2094 C2088 1.383 . S
C2094 C2093 1.379 . S
H2095 C2089 0.959 . S
H2096 C2089 0.961 . S
H2097 C2089 0.960 . S
H2098 C2090 0.930 . S
H2099 C2091 0.929 . S
H2100 C2108 0.929 . S
H2101 C2110 0.930 . S
H2102 C2112 0.930 . S
H2103 C2115 0.929 . S
H2104 C2118 0.930 . S
H2105 C2120 0.960 . S
H2106 C2120 0.960 . S
H2107 C2120 0.960 . S
C2108 H2100 0.929 . S
C2108 C2109 1.377 . S
C2108 C2110 1.384 . S
C2109 C2108 1.377 . S
C2109 C2115 1.390 . S
C2110 H2101 0.930 . S
C2110 C2108 1.384 . S
C2110 C2111 1.372 . S
C2111 C2110 1.372 . S
C2111 C2112 1.400 . S
C2111 C2116 1.490 . S
C2112 H2102 0.930 . S
C2112 C2111 1.400 . S
C2112 C2115 1.386 . S
H2113 C2129 0.930 . S
H2114 C2130 0.931 . S
C2115 H2103 0.929 . S
C2115 C2109 1.390 . S
C2115 C2112 1.386 . S
C2116 C2111 1.490 . S
C2116 C2118 1.395 . S
C2116 C2119 1.403 . S
H2117 C2123 0.930 . S
C2118 H2104 0.930 . S
C2118 C2116 1.395 . S
C2118 C2121 1.403 . S
C2119 C2116 1.403 . S
C2119 C2120 1.524 . S
C2119 C2123 1.400 . S
C2120 H2105 0.960 . S
C2120 H2106 0.960 . S
C2120 H2107 0.960 . S
C2120 C2119 1.524 . S
C2121 C2118 1.403 . S
C2121 C2122 1.392 . S
C2121 C2125 1.495 . S
C2122 C2121 1.392 . S
C2122 C2123 1.385 . S
C2122 C2124 1.478 . S
C2123 H2117 0.930 . S
C2123 C2119 1.400 . S
C2123 C2122 1.385 . S
C2124 C2122 1.478 . S
C2124 C2126 1.381 . S
C2124 C2130 1.383 . S
C2125 C2121 1.495 . S
C2125 H2131 0.959 . S
C2125 H2132 0.961 . S
C2125 H2133 0.960 . S
C2126 C2124 1.381 . S
C2126 C2127 1.394 . S
C2126 H2134 0.930 . S
C2127 C2126 1.394 . S
C2127 C2128 1.383 . S
C2127 H2135 0.929 . S
C2128 C2127 1.383 . S
C2128 C2129 1.377 . S
C2129 H2113 0.930 . S
C2129 C2128 1.377 . S
C2129 C2130 1.379 . S
C2130 H2114 0.931 . S
C2130 C2124 1.383 . S
C2130 C2129 1.379 . S
H2131 C2125 0.959 . S
H2132 C2125 0.961 . S
H2133 C2125 0.960 . S
H2134 C2126 0.930 . S
H2135 C2127 0.929 . S
H2136 C2144 0.929 . S
H2137 C2146 0.930 . S
H2138 C2148 0.930 . S
H2139 C2151 0.929 . S
H2140 C2154 0.930 . S
H2141 C2156 0.960 . S
H2142 C2156 0.960 . S
H2143 C2156 0.960 . S
C2144 H2136 0.929 . S
C2144 C2145 1.377 . S
C2144 C2146 1.384 . S
C2145 C2144 1.377 . S
C2145 C2151 1.390 . S
C2146 H2137 0.930 . S
C2146 C2144 1.384 . S
C2146 C2147 1.372 . S
C2147 C2146 1.372 . S
C2147 C2148 1.400 . S
C2147 C2152 1.490 . S
C2148 H2138 0.930 . S
C2148 C2147 1.400 . S
C2148 C2151 1.386 . S
H2149 C2165 0.930 . S
H2150 C2166 0.931 . S
C2151 H2139 0.929 . S
C2151 C2145 1.390 . S
C2151 C2148 1.386 . S
C2152 C2147 1.490 . S
C2152 C2154 1.395 . S
C2152 C2155 1.403 . S
H2153 C2159 0.930 . S
C2154 H2140 0.930 . S
C2154 C2152 1.395 . S
C2154 C2157 1.403 . S
C2155 C2152 1.403 . S
C2155 C2156 1.524 . S
C2155 C2159 1.400 . S
C2156 H2141 0.960 . S
C2156 H2142 0.960 . S
C2156 H2143 0.960 . S
C2156 C2155 1.524 . S
C2157 C2154 1.403 . S
C2157 C2158 1.392 . S
C2157 C2161 1.495 . S
C2158 C2157 1.392 . S
C2158 C2159 1.385 . S
C2158 C2160 1.478 . S
C2159 H2153 0.930 . S
C2159 C2155 1.400 . S
C2159 C2158 1.385 . S
C2160 C2158 1.478 . S
C2160 C2162 1.381 . S
C2160 C2166 1.383 . S
C2161 C2157 1.495 . S
C2161 H2167 0.959 . S
C2161 H2168 0.961 . S
C2161 H2169 0.960 . S
C2162 C2160 1.381 . S
C2162 C2163 1.394 . S
C2162 H2170 0.930 . S
C2163 C2162 1.394 . S
C2163 C2164 1.383 . S
C2163 H2171 0.929 . S
C2164 C2163 1.383 . S
C2164 C2165 1.377 . S
C2165 H2149 0.930 . S
C2165 C2164 1.377 . S
C2165 C2166 1.379 . S
C2166 H2150 0.931 . S
C2166 C2160 1.383 . S
C2166 C2165 1.379 . S
H2167 C2161 0.959 . S
H2168 C2161 0.961 . S
H2169 C2161 0.960 . S
H2170 C2162 0.930 . S
H2171 C2163 0.929 . S
H2172 C2180 0.929 . S
H2173 C2182 0.930 1_655 S
H2174 C2184 0.930 . S
H2175 C2187 0.929 . S
H2176 C2190 0.930 . S
H2177 C2192 0.960 . S
H2178 C2192 0.960 . S
H2179 C2192 0.960 . S
C2180 H2172 0.929 . S
C2180 C2181 1.377 . S
C2180 C2182 1.384 . S
C2181 C2180 1.377 . S
C2181 C2187 1.390 . S
C2182 H2173 0.930 1_455 S
C2182 C2180 1.384 . S
C2182 C2183 1.372 . S
C2183 C2182 1.372 . S
C2183 C2184 1.400 . S
C2183 C2188 1.490 1_455 S
C2184 H2174 0.930 . S
C2184 C2183 1.400 . S
C2184 C2187 1.386 . S
H2185 C2201 0.930 . S
H2186 C2202 0.931 . S
C2187 H2175 0.929 . S
C2187 C2181 1.390 . S
C2187 C2184 1.386 . S
C2188 C2183 1.490 1_655 S
C2188 C2190 1.395 . S
C2188 C2191 1.403 . S
H2189 C2195 0.930 . S
C2190 H2176 0.930 . S
C2190 C2188 1.395 . S
C2190 C2193 1.403 . S
C2191 C2188 1.403 . S
C2191 C2192 1.524 1_655 S
C2191 C2195 1.400 . S
C2192 H2177 0.960 . S
C2192 H2178 0.960 . S
C2192 H2179 0.960 . S
C2192 C2191 1.524 1_455 S
C2193 C2190 1.403 . S
C2193 C2194 1.392 . S
C2193 C2197 1.495 . S
C2194 C2193 1.392 . S
C2194 C2195 1.385 . S
C2194 C2196 1.478 . S
C2195 H2189 0.930 . S
C2195 C2191 1.400 . S
C2195 C2194 1.385 . S
C2196 C2194 1.478 . S
C2196 C2198 1.381 . S
C2196 C2202 1.383 . S
C2197 C2193 1.495 . S
C2197 H2203 0.959 . S
C2197 H2204 0.961 . S
C2197 H2205 0.960 . S
C2198 C2196 1.381 . S
C2198 C2199 1.394 . S
C2198 H2206 0.930 . S
C2199 C2198 1.394 . S
C2199 C2200 1.383 . S
C2199 H2207 0.929 . S
C2200 C2199 1.383 . S
C2200 C2201 1.377 . S
C2201 H2185 0.930 . S
C2201 C2200 1.377 . S
C2201 C2202 1.379 . S
C2202 H2186 0.931 . S
C2202 C2196 1.383 . S
C2202 C2201 1.379 . S
H2203 C2197 0.959 . S
H2204 C2197 0.961 . S
H2205 C2197 0.960 . S
H2206 C2198 0.930 . S
H2207 C2199 0.929 . S
H2208 C2216 0.929 . S
H2209 C2218 0.930 . S
H2210 C2220 0.930 . S
H2211 C2223 0.929 . S
H2212 C2226 0.930 . S
H2213 C2228 0.960 . S
H2214 C2228 0.960 . S
H2215 C2228 0.960 . S
C2216 H2208 0.929 . S
C2216 C2217 1.377 . S
C2216 C2218 1.384 . S
C2217 C2216 1.377 . S
C2217 C2223 1.390 . S
C2218 H2209 0.930 . S
C2218 C2216 1.384 . S
C2218 C2219 1.372 . S
C2219 C2218 1.372 . S
C2219 C2220 1.400 . S
C2219 C2224 1.490 1_655 S
C2220 H2210 0.930 . S
C2220 C2219 1.400 . S
C2220 C2223 1.386 . S
H2221 C2237 0.930 . S
H2222 C2238 0.931 . S
C2223 H2211 0.929 . S
C2223 C2217 1.390 . S
C2223 C2220 1.386 . S
C2224 C2219 1.490 1_455 S
C2224 C2226 1.395 . S
C2224 C2227 1.403 1_455 S
H2225 C2231 0.930 . S
C2226 H2212 0.930 . S
C2226 C2224 1.395 . S
C2226 C2229 1.403 . S
C2227 C2224 1.403 1_655 S
C2227 C2228 1.524 . S
C2227 C2231 1.400 1_655 S
C2228 H2213 0.960 . S
C2228 H2214 0.960 . S
C2228 H2215 0.960 . S
C2228 C2227 1.524 . S
C2229 C2226 1.403 . S
C2229 C2230 1.392 . S
C2229 C2233 1.495 . S
C2230 C2229 1.392 . S
C2230 C2231 1.385 . S
C2230 C2232 1.478 . S
C2231 H2225 0.930 . S
C2231 C2227 1.400 1_455 S
C2231 C2230 1.385 . S
C2232 C2230 1.478 . S
C2232 C2234 1.381 . S
C2232 C2238 1.383 . S
C2233 C2229 1.495 . S
C2233 H2239 0.959 . S
C2233 H2240 0.961 . S
C2233 H2241 0.960 . S
C2234 C2232 1.381 . S
C2234 C2235 1.394 . S
C2234 H2242 0.930 . S
C2235 C2234 1.394 . S
C2235 C2236 1.383 . S
C2235 H2243 0.929 . S
C2236 C2235 1.383 . S
C2236 C2237 1.377 . S
C2237 H2221 0.930 . S
C2237 C2236 1.377 . S
C2237 C2238 1.379 . S
C2238 H2222 0.931 . S
C2238 C2232 1.383 . S
C2238 C2237 1.379 . S
H2239 C2233 0.959 . S
H2240 C2233 0.961 . S
H2241 C2233 0.960 . S
H2242 C2234 0.930 . S
H2243 C2235 0.929 . S
H2244 C2252 0.929 . S
H2245 C2254 0.930 . S
H2246 C2256 0.930 . S
H2247 C2259 0.929 . S
H2248 C2262 0.930 . S
H2249 C2264 0.960 . S
H2250 C2264 0.960 . S
H2251 C2264 0.960 . S
C2252 H2244 0.929 . S
C2252 C2253 1.377 . S
C2252 C2254 1.384 . S
C2253 C2252 1.377 . S
C2253 C2259 1.390 . S
C2254 H2245 0.930 . S
C2254 C2252 1.384 . S
C2254 C2255 1.372 . S
C2255 C2254 1.372 . S
C2255 C2256 1.400 . S
C2255 C2260 1.490 . S
C2256 H2246 0.930 . S
C2256 C2255 1.400 . S
C2256 C2259 1.386 . S
H2257 C2273 0.930 . S
H2258 C2274 0.931 . S
C2259 H2247 0.929 . S
C2259 C2253 1.390 . S
C2259 C2256 1.386 . S
C2260 C2255 1.490 . S
C2260 C2262 1.395 . S
C2260 C2263 1.403 . S
H2261 C2267 0.930 . S
C2262 H2248 0.930 . S
C2262 C2260 1.395 . S
C2262 C2265 1.403 . S
C2263 C2260 1.403 . S
C2263 C2264 1.524 . S
C2263 C2267 1.400 . S
C2264 H2249 0.960 . S
C2264 H2250 0.960 . S
C2264 H2251 0.960 . S
C2264 C2263 1.524 . S
C2265 C2262 1.403 . S
C2265 C2266 1.392 . S
C2265 C2269 1.495 . S
C2266 C2265 1.392 . S
C2266 C2267 1.385 . S
C2266 C2268 1.478 . S
C2267 H2261 0.930 . S
C2267 C2263 1.400 . S
C2267 C2266 1.385 . S
C2268 C2266 1.478 . S
C2268 C2270 1.381 . S
C2268 C2274 1.383 . S
C2269 C2265 1.495 . S
C2269 H2275 0.959 . S
C2269 H2276 0.961 . S
C2269 H2277 0.960 . S
C2270 C2268 1.381 . S
C2270 C2271 1.394 . S
C2270 H2278 0.930 . S
C2271 C2270 1.394 . S
C2271 C2272 1.383 . S
C2271 H2279 0.929 . S
C2272 C2271 1.383 . S
C2272 C2273 1.377 . S
C2273 H2257 0.930 . S
C2273 C2272 1.377 . S
C2273 C2274 1.379 . S
C2274 H2258 0.931 . S
C2274 C2268 1.383 . S
C2274 C2273 1.379 . S
H2275 C2269 0.959 . S
H2276 C2269 0.961 . S
H2277 C2269 0.960 . S
H2278 C2270 0.930 . S
H2279 C2271 0.929 . S
H2280 C2288 0.929 . S
H2281 C2290 0.930 . S
H2282 C2292 0.930 . S
H2283 C2295 0.929 . S
H2284 C2298 0.930 . S
H2285 C2300 0.960 . S
H2286 C2300 0.960 . S
H2287 C2300 0.960 . S
C2288 H2280 0.929 . S
C2288 C2289 1.377 . S
C2288 C2290 1.384 . S
C2289 C2288 1.377 . S
C2289 C2295 1.390 . S
C2290 H2281 0.930 . S
C2290 C2288 1.384 . S
C2290 C2291 1.372 . S
C2291 C2290 1.372 . S
C2291 C2292 1.400 . S
C2291 C2296 1.490 . S
C2292 H2282 0.930 . S
C2292 C2291 1.400 . S
C2292 C2295 1.386 . S
H2293 C2309 0.930 . S
H2294 C2310 0.931 . S
C2295 H2283 0.929 . S
C2295 C2289 1.390 . S
C2295 C2292 1.386 . S
C2296 C2291 1.490 . S
C2296 C2298 1.395 . S
C2296 C2299 1.403 . S
H2297 C2303 0.930 . S
C2298 H2284 0.930 . S
C2298 C2296 1.395 . S
C2298 C2301 1.403 . S
C2299 C2296 1.403 . S
C2299 C2300 1.524 . S
C2299 C2303 1.400 . S
C2300 H2285 0.960 . S
C2300 H2286 0.960 . S
C2300 H2287 0.960 . S
C2300 C2299 1.524 . S
C2301 C2298 1.403 . S
C2301 C2302 1.392 . S
C2301 C2305 1.495 . S
C2302 C2301 1.392 . S
C2302 C2303 1.385 . S
C2302 C2304 1.478 . S
C2303 H2297 0.930 . S
C2303 C2299 1.400 . S
C2303 C2302 1.385 . S
C2304 C2302 1.478 . S
C2304 C2306 1.381 . S
C2304 C2310 1.383 . S
C2305 C2301 1.495 . S
C2305 H2311 0.959 . S
C2305 H2312 0.961 . S
C2305 H2313 0.960 . S
C2306 C2304 1.381 . S
C2306 C2307 1.394 . S
C2306 H2314 0.930 . S
C2307 C2306 1.394 . S
C2307 C2308 1.383 . S
C2307 H2315 0.929 . S
C2308 C2307 1.383 . S
C2308 C2309 1.377 . S
C2309 H2293 0.930 . S
C2309 C2308 1.377 . S
C2309 C2310 1.379 . S
C2310 H2294 0.931 . S
C2310 C2304 1.383 . S
C2310 C2309 1.379 . S
H2311 C2305 0.959 . S
H2312 C2305 0.961 . S
H2313 C2305 0.960 . S
H2314 C2306 0.930 . S
H2315 C2307 0.929 . S
H2316 C2324 0.929 . S
H2317 C2326 0.930 . S
H2318 C2328 0.930 . S
H2319 C2331 0.956 . S
H2320 C2334 0.930 . S
H2321 C2336 0.960 . S
H2322 C2336 0.960 1_545 S
H2323 C2336 0.960 . S
C2324 H2316 0.929 . S
C2324 C2325 1.377 . S
C2324 C2326 1.384 . S
C2325 C2324 1.377 . S
C2325 C2331 1.340 1_545 S
C2326 H2317 0.930 . S
C2326 C2324 1.384 . S
C2326 C2327 1.372 1_545 S
C2327 C2326 1.372 1_565 S
C2327 C2328 1.400 . S
C2327 C2332 1.490 . S
C2328 H2318 0.930 . S
C2328 C2327 1.400 . S
C2328 C2331 1.413 . S
H2329 C2345 0.930 . S
H2330 C2346 0.931 . S
C2331 H2319 0.956 . S
C2331 C2325 1.340 1_565 S
C2331 C2328 1.413 . S
C2332 C2327 1.490 . S
C2332 C2334 1.395 . S
C2332 C2335 1.403 . S
H2333 C2339 0.930 . S
C2334 H2320 0.930 . S
C2334 C2332 1.395 . S
C2334 C2337 1.403 . S
C2335 C2332 1.403 . S
C2335 C2336 1.524 . S
C2335 C2339 1.400 . S
C2336 H2321 0.960 . S
C2336 H2322 0.960 1_565 S
C2336 H2323 0.960 . S
C2336 C2335 1.524 . S
C2337 C2334 1.403 . S
C2337 C2338 1.392 . S
C2337 C2341 1.495 . S
C2338 C2337 1.392 . S
C2338 C2339 1.385 . S
C2338 C2340 1.478 . S
C2339 H2333 0.930 . S
C2339 C2335 1.400 . S
C2339 C2338 1.385 . S
C2340 C2338 1.478 . S
C2340 C2342 1.381 . S
C2340 C2346 1.383 . S
C2341 C2337 1.495 . S
C2341 H2347 0.959 . S
C2341 H2348 0.961 . S
C2341 H2349 0.960 . S
C2342 C2340 1.381 . S
C2342 C2343 1.394 . S
C2342 H2350 0.930 . S
C2343 C2342 1.394 . S
C2343 C2344 1.383 . S
C2343 H2351 0.929 . S
C2344 C2343 1.383 . S
C2344 C2345 1.377 . S
C2345 H2329 0.930 . S
C2345 C2344 1.377 . S
C2345 C2346 1.379 . S
C2346 H2330 0.931 . S
C2346 C2340 1.383 . S
C2346 C2345 1.379 . S
H2347 C2341 0.959 . S
H2348 C2341 0.961 . S
H2349 C2341 0.960 . S
H2350 C2342 0.930 . S
H2351 C2343 0.929 . S
H2352 C2360 0.929 . S
H2353 C2362 0.930 . S
H2354 C2364 0.930 . S
H2355 C2367 0.929 . S
H2356 C2370 0.930 . S
H2357 C2372 0.960 . S
H2358 C2372 0.960 . S
H2359 C2372 0.960 . S
C2360 H2352 0.929 . S
C2360 C2361 1.377 . S
C2360 C2362 1.384 . S
C2361 C2360 1.377 . S
C2361 C2367 1.390 . S
C2362 H2353 0.930 . S
C2362 C2360 1.384 . S
C2362 C2363 1.372 . S
C2363 C2362 1.372 . S
C2363 C2364 1.400 . S
C2363 C2368 1.490 . S
C2364 H2354 0.930 . S
C2364 C2363 1.400 . S
C2364 C2367 1.386 . S
H2365 C2381 0.930 . S
H2366 C2382 0.931 . S
C2367 H2355 0.929 . S
C2367 C2361 1.390 . S
C2367 C2364 1.386 . S
C2368 C2363 1.490 . S
C2368 C2370 1.395 . S
C2368 C2371 1.403 . S
H2369 C2375 0.930 . S
C2370 H2356 0.930 . S
C2370 C2368 1.395 . S
C2370 C2373 1.403 . S
C2371 C2368 1.403 . S
C2371 C2372 1.524 . S
C2371 C2375 1.400 . S
C2372 H2357 0.960 . S
C2372 H2358 0.960 . S
C2372 H2359 0.960 . S
C2372 C2371 1.524 . S
C2373 C2370 1.403 . S
C2373 C2374 1.392 . S
C2373 C2377 1.495 . S
C2374 C2373 1.392 . S
C2374 C2375 1.385 . S
C2374 C2376 1.478 . S
C2375 H2369 0.930 . S
C2375 C2371 1.400 . S
C2375 C2374 1.385 . S
C2376 C2374 1.478 . S
C2376 C2378 1.381 . S
C2376 C2382 1.383 . S
C2377 C2373 1.495 . S
C2377 H2383 0.959 . S
C2377 H2384 0.961 . S
C2377 H2385 0.960 . S
C2378 C2376 1.381 . S
C2378 C2379 1.394 . S
C2378 H2386 0.930 . S
C2379 C2378 1.394 . S
C2379 C2380 1.383 . S
C2379 H2387 0.929 . S
C2380 C2379 1.383 . S
C2380 C2381 1.377 . S
C2381 H2365 0.930 . S
C2381 C2380 1.377 . S
C2381 C2382 1.379 . S
C2382 H2366 0.931 . S
C2382 C2376 1.383 . S
C2382 C2381 1.379 . S
H2383 C2377 0.959 . S
H2384 C2377 0.961 . S
H2385 C2377 0.960 . S
H2386 C2378 0.930 . S
H2387 C2379 0.929 . S
H2388 C2396 0.929 . S
H2389 C2398 0.930 . S
H2390 C2400 0.930 . S
H2391 C2403 0.929 . S
H2392 C2406 0.936 . S
H2393 C2408 0.960 . S
H2394 C2408 0.960 . S
H2395 C2408 0.960 . S
C2396 H2388 0.929 . S
C2396 C2397 1.377 . S
C2396 C2398 1.384 . S
C2397 C2396 1.377 . S
C2397 C2403 1.390 . S
C2398 H2389 0.930 . S
C2398 C2396 1.384 . S
C2398 C2399 1.372 . S
C2399 C2398 1.372 . S
C2399 C2400 1.400 . S
C2399 C2404 1.490 . S
C2400 H2390 0.930 . S
C2400 C2399 1.400 . S
C2400 C2403 1.386 . S
H2401 C2417 0.930 . S
H2402 C2418 0.931 . S
C2403 H2391 0.929 . S
C2403 C2397 1.390 . S
C2403 C2400 1.386 . S
C2404 C2399 1.490 . S
C2404 C2406 1.395 . S
C2404 C2407 1.403 . S
H2405 C2411 0.930 . S
C2406 H2392 0.936 . S
C2406 C2404 1.395 . S
C2406 C2409 1.403 1_545 S
C2407 C2404 1.403 . S
C2407 C2408 1.524 . S
C2407 C2411 1.400 . S
C2408 H2393 0.960 . S
C2408 H2394 0.960 . S
C2408 H2395 0.960 . S
C2408 C2407 1.524 . S
C2409 C2406 1.403 1_565 S
C2409 C2410 1.392 1_565 S
C2409 C2413 1.495 . S
C2410 C2409 1.392 1_545 S
C2410 C2411 1.385 . S
C2410 C2412 1.451 1_545 S
C2411 H2405 0.930 . S
C2411 C2407 1.400 . S
C2411 C2410 1.385 . S
C2412 C2410 1.451 1_565 S
C2412 C2414 1.419 . S
C2412 C2418 1.373 1_564 S
C2413 C2409 1.495 . S
C2413 H2419 0.959 . S
C2413 H2420 0.961 . S
C2413 H2421 0.960 . S
C2414 C2412 1.419 . S
C2414 C2415 1.394 1_554 S
C2414 H2422 0.930 . S
C2415 C2414 1.394 1_556 S
C2415 C2416 1.383 . S
C2415 H2423 0.929 . S
C2416 C2415 1.383 . S
C2416 C2417 1.377 . S
C2417 H2401 0.930 . S
C2417 C2416 1.377 . S
C2417 C2418 1.379 1_565 S
C2418 H2402 0.931 . S
C2418 C2412 1.373 1_546 S
C2418 C2417 1.379 1_545 S
H2419 C2413 0.959 . S
H2420 C2413 0.961 . S
H2421 C2413 0.960 . S
H2422 C2414 0.930 . S
H2423 C2415 0.929 . S
H2424 C2432 0.929 . S
H2425 C2434 0.930 . S
H2426 C2436 0.930 . S
H2427 C2439 0.929 . S
H2428 C2442 0.930 . S
H2429 C2444 0.960 . S
H2430 C2444 0.960 . S
H2431 C2444 0.960 . S
C2432 H2424 0.929 . S
C2432 C2433 1.377 . S
C2432 C2434 1.384 . S
C2433 C2432 1.377 . S
C2433 C2439 1.390 . S
C2434 H2425 0.930 . S
C2434 C2432 1.384 . S
C2434 C2435 1.372 . S
C2435 C2434 1.372 . S
C2435 C2436 1.400 . S
C2435 C2440 1.490 . S
C2436 H2426 0.930 . S
C2436 C2435 1.400 . S
C2436 C2439 1.386 . S
H2437 C2453 0.930 . S
H2438 C2454 0.931 . S
C2439 H2427 0.929 . S
C2439 C2433 1.390 . S
C2439 C2436 1.386 . S
C2440 C2435 1.490 . S
C2440 C2442 1.395 . S
C2440 C2443 1.403 . S
H2441 C2447 0.930 . S
C2442 H2428 0.930 . S
C2442 C2440 1.395 . S
C2442 C2445 1.403 . S
C2443 C2440 1.403 . S
C2443 C2444 1.524 . S
C2443 C2447 1.400 . S
C2444 H2429 0.960 . S
C2444 H2430 0.960 . S
C2444 H2431 0.960 . S
C2444 C2443 1.524 . S
C2445 C2442 1.403 . S
C2445 C2446 1.392 . S
C2445 C2449 1.495 . S
C2446 C2445 1.392 . S
C2446 C2447 1.385 . S
C2446 C2448 1.478 . S
C2447 H2441 0.930 . S
C2447 C2443 1.400 . S
C2447 C2446 1.385 . S
C2448 C2446 1.478 . S
C2448 C2450 1.381 . S
C2448 C2454 1.383 . S
C2449 C2445 1.495 . S
C2449 H2455 0.959 . S
C2449 H2456 0.961 . S
C2449 H2457 0.960 . S
C2450 C2448 1.381 . S
C2450 C2451 1.394 . S
C2450 H2458 0.930 . S
C2451 C2450 1.394 . S
C2451 C2452 1.383 . S
C2451 H2459 0.929 . S
C2452 C2451 1.383 . S
C2452 C2453 1.377 . S
C2453 H2437 0.930 . S
C2453 C2452 1.377 . S
C2453 C2454 1.379 . S
C2454 H2438 0.931 . S
C2454 C2448 1.383 . S
C2454 C2453 1.379 . S
H2455 C2449 0.959 . S
H2456 C2449 0.961 . S
H2457 C2449 0.960 . S
H2458 C2450 0.930 . S
H2459 C2451 0.929 . S
H2460 C2468 0.929 . S
H2461 C2470 0.930 1_556 S
H2462 C2472 0.930 . S
H2463 C2475 0.929 . S
H2464 C2478 0.930 . S
H2465 C2480 0.960 . S
H2466 C2480 0.960 1_554 S
H2467 C2480 0.960 1_554 S
C2468 H2460 0.929 . S
C2468 C2469 1.377 . S
C2468 C2470 1.384 . S
C2469 C2468 1.377 . S
C2469 C2475 1.390 . S
C2470 H2461 0.930 1_554 S
C2470 C2468 1.384 . S
C2470 C2471 1.372 1_554 S
C2471 C2470 1.372 1_556 S
C2471 C2472 1.400 1_556 S
C2471 C2476 1.490 . S
C2472 H2462 0.930 . S
C2472 C2471 1.400 1_554 S
C2472 C2475 1.386 . S
H2473 C2489 0.930 . S
H2474 C2490 0.931 . S
C2475 H2463 0.929 . S
C2475 C2469 1.390 . S
C2475 C2472 1.386 . S
C2476 C2471 1.490 . S
C2476 C2478 1.395 . S
C2476 C2479 1.403 . S
H2477 C2483 0.930 . S
C2478 H2464 0.930 . S
C2478 C2476 1.395 . S
C2478 C2481 1.403 . S
C2479 C2476 1.403 . S
C2479 C2480 1.524 . S
C2479 C2483 1.400 . S
C2480 H2465 0.960 . S
C2480 H2466 0.960 1_556 S
C2480 H2467 0.960 1_556 S
C2480 C2479 1.524 . S
C2481 C2478 1.403 . S
C2481 C2482 1.392 . S
C2481 C2485 1.495 . S
C2482 C2481 1.392 . S
C2482 C2483 1.385 . S
C2482 C2484 1.478 . S
C2483 H2477 0.930 . S
C2483 C2479 1.400 . S
C2483 C2482 1.385 . S
C2484 C2482 1.478 . S
C2484 C2486 1.381 . S
C2484 C2490 1.383 . S
C2485 C2481 1.495 . S
C2485 H2491 0.959 . S
C2485 H2492 0.961 . S
C2485 H2493 0.960 . S
C2486 C2484 1.381 . S
C2486 C2487 1.394 . S
C2486 H2494 0.930 . S
C2487 C2486 1.394 . S
C2487 C2488 1.383 . S
C2487 H2495 0.929 . S
C2488 C2487 1.383 . S
C2488 C2489 1.377 . S
C2489 H2473 0.930 . S
C2489 C2488 1.377 . S
C2489 C2490 1.379 . S
C2490 H2474 0.931 . S
C2490 C2484 1.383 . S
C2490 C2489 1.379 . S
H2491 C2485 0.959 . S
H2492 C2485 0.961 . S
H2493 C2485 0.960 . S
H2494 C2486 0.930 . S
H2495 C2487 0.929 . S
H2496 C2504 0.929 . S
H2497 C2506 0.930 . S
H2498 C2508 0.930 . S
H2499 C2511 0.929 . S
H2500 C2514 0.930 . S
H2501 C2516 0.960 . S
H2502 C2516 0.960 . S
H2503 C2516 0.960 . S
C2504 H2496 0.929 . S
C2504 C2505 1.377 . S
C2504 C2506 1.384 . S
C2505 C2504 1.377 . S
C2505 C2511 1.390 . S
C2506 H2497 0.930 . S
C2506 C2504 1.384 . S
C2506 C2507 1.372 . S
C2507 C2506 1.372 . S
C2507 C2508 1.400 . S
C2507 C2512 1.490 . S
C2508 H2498 0.930 . S
C2508 C2507 1.400 . S
C2508 C2511 1.386 . S
H2509 C2525 0.930 . S
H2510 C2526 0.931 . S
C2511 H2499 0.929 . S
C2511 C2505 1.390 . S
C2511 C2508 1.386 . S
C2512 C2507 1.490 . S
C2512 C2514 1.395 . S
C2512 C2515 1.403 . S
H2513 C2519 0.930 . S
C2514 H2500 0.930 . S
C2514 C2512 1.395 . S
C2514 C2517 1.403 . S
C2515 C2512 1.403 . S
C2515 C2516 1.524 . S
C2515 C2519 1.400 . S
C2516 H2501 0.960 . S
C2516 H2502 0.960 . S
C2516 H2503 0.960 . S
C2516 C2515 1.524 . S
C2517 C2514 1.403 . S
C2517 C2518 1.392 . S
C2517 C2521 1.495 . S
C2518 C2517 1.392 . S
C2518 C2519 1.385 . S
C2518 C2520 1.478 . S
C2519 H2513 0.930 . S
C2519 C2515 1.400 . S
C2519 C2518 1.385 . S
C2520 C2518 1.478 . S
C2520 C2522 1.381 . S
C2520 C2526 1.383 . S
C2521 C2517 1.495 . S
C2521 H2527 0.959 . S
C2521 H2528 0.961 . S
C2521 H2529 0.960 . S
C2522 C2520 1.381 . S
C2522 C2523 1.394 . S
C2522 H2530 0.930 . S
C2523 C2522 1.394 . S
C2523 C2524 1.383 . S
C2523 H2531 0.929 . S
C2524 C2523 1.383 . S
C2524 C2525 1.377 . S
C2525 H2509 0.930 . S
C2525 C2524 1.377 . S
C2525 C2526 1.379 . S
C2526 H2510 0.931 . S
C2526 C2520 1.383 . S
C2526 C2525 1.379 . S
H2527 C2521 0.959 . S
H2528 C2521 0.961 . S
H2529 C2521 0.960 . S
H2530 C2522 0.930 . S
H2531 C2523 0.929 . S
H2532 C2540 0.929 . S
H2533 C2542 0.930 . S
H2534 C2544 0.930 . S
H2535 C2547 0.929 . S
H2536 C2550 0.930 . S
H2537 C2552 0.960 . S
H2538 C2552 0.960 . S
H2539 C2552 0.960 . S
C2540 H2532 0.929 . S
C2540 C2541 1.377 . S
C2540 C2542 1.384 . S
C2541 C2540 1.377 . S
C2541 C2547 1.390 . S
C2542 H2533 0.930 . S
C2542 C2540 1.384 . S
C2542 C2543 1.372 . S
C2543 C2542 1.372 . S
C2543 C2544 1.400 . S
C2543 C2548 1.490 . S
C2544 H2534 0.930 . S
C2544 C2543 1.400 . S
C2544 C2547 1.386 . S
H2545 C2561 0.930 . S
H2546 C2562 0.931 . S
C2547 H2535 0.929 . S
C2547 C2541 1.390 . S
C2547 C2544 1.386 . S
C2548 C2543 1.490 . S
C2548 C2550 1.395 . S
C2548 C2551 1.403 . S
H2549 C2555 0.930 . S
C2550 H2536 0.930 . S
C2550 C2548 1.395 . S
C2550 C2553 1.403 . S
C2551 C2548 1.403 . S
C2551 C2552 1.524 . S
C2551 C2555 1.400 . S
C2552 H2537 0.960 . S
C2552 H2538 0.960 . S
C2552 H2539 0.960 . S
C2552 C2551 1.524 . S
C2553 C2550 1.403 . S
C2553 C2554 1.392 . S
C2553 C2557 1.495 . S
C2554 C2553 1.392 . S
C2554 C2555 1.385 . S
C2554 C2556 1.478 . S
C2555 H2549 0.930 . S
C2555 C2551 1.400 . S
C2555 C2554 1.385 . S
C2556 C2554 1.478 . S
C2556 C2558 1.381 . S
C2556 C2562 1.383 . S
C2557 C2553 1.495 . S
C2557 H2563 0.959 . S
C2557 H2564 0.961 . S
C2557 H2565 0.960 . S
C2558 C2556 1.381 . S
C2558 C2559 1.394 . S
C2558 H2566 0.930 . S
C2559 C2558 1.394 . S
C2559 C2560 1.383 . S
C2559 H2567 0.929 . S
C2560 C2559 1.383 . S
C2560 C2561 1.377 . S
C2561 H2545 0.930 . S
C2561 C2560 1.377 . S
C2561 C2562 1.379 . S
C2562 H2546 0.931 . S
C2562 C2556 1.383 . S
C2562 C2561 1.379 . S
H2563 C2557 0.959 . S
H2564 C2557 0.961 . S
H2565 C2557 0.960 . S
H2566 C2558 0.930 . S
H2567 C2559 0.929 . S
H2568 C2576 0.929 . S
H2569 C2578 0.930 . S
H2570 C2580 0.930 . S
H2571 C2583 0.929 . S
H2572 C2586 0.930 . S
H2573 C2588 0.960 . S
H2574 C2588 0.960 . S
H2575 C2588 0.960 . S
C2576 H2568 0.929 . S
C2576 C2577 1.377 . S
C2576 C2578 1.384 . S
C2577 C2576 1.377 . S
C2577 C2583 1.390 . S
C2578 H2569 0.930 . S
C2578 C2576 1.384 . S
C2578 C2579 1.372 . S
C2579 C2578 1.372 . S
C2579 C2580 1.400 . S
C2579 C2584 1.490 . S
C2580 H2570 0.930 . S
C2580 C2579 1.400 . S
C2580 C2583 1.386 . S
H2581 C2597 0.930 . S
H2582 C2598 0.931 . S
C2583 H2571 0.929 . S
C2583 C2577 1.390 . S
C2583 C2580 1.386 . S
C2584 C2579 1.490 . S
C2584 C2586 1.395 . S
C2584 C2587 1.403 . S
H2585 C2591 0.930 . S
C2586 H2572 0.930 . S
C2586 C2584 1.395 . S
C2586 C2589 1.403 . S
C2587 C2584 1.403 . S
C2587 C2588 1.524 . S
C2587 C2591 1.400 . S
C2588 H2573 0.960 . S
C2588 H2574 0.960 . S
C2588 H2575 0.960 . S
C2588 C2587 1.524 . S
C2589 C2586 1.403 . S
C2589 C2590 1.392 . S
C2589 C2593 1.495 . S
C2590 C2589 1.392 . S
C2590 C2591 1.385 . S
C2590 C2592 1.478 . S
C2591 H2585 0.930 . S
C2591 C2587 1.400 . S
C2591 C2590 1.385 . S
C2592 C2590 1.478 . S
C2592 C2594 1.381 . S
C2592 C2598 1.383 . S
C2593 C2589 1.495 . S
C2593 H2599 0.959 . S
C2593 H2600 0.961 . S
C2593 H2601 0.960 . S
C2594 C2592 1.381 . S
C2594 C2595 1.394 . S
C2594 H2602 0.930 . S
C2595 C2594 1.394 . S
C2595 C2596 1.383 . S
C2595 H2603 0.929 . S
C2596 C2595 1.383 . S
C2596 C2597 1.377 . S
C2597 H2581 0.930 . S
C2597 C2596 1.377 . S
C2597 C2598 1.379 . S
C2598 H2582 0.931 . S
C2598 C2592 1.383 . S
C2598 C2597 1.379 . S
H2599 C2593 0.959 . S
H2600 C2593 0.961 . S
H2601 C2593 0.960 . S
H2602 C2594 0.930 . S
H2603 C2595 0.929 . S
H2604 C2612 0.929 . S
H2605 C2614 0.930 . S
H2606 C2616 0.930 1_545 S
H2607 C2619 0.929 . S
H2608 C2622 0.930 . S
H2609 C2624 0.960 . S
H2610 C2624 0.960 . S
H2611 C2624 0.960 . S
C2612 H2604 0.929 . S
C2612 C2613 1.377 1_455 S
C2612 C2614 1.384 . S
C2613 C2612 1.377 1_655 S
C2613 C2619 1.390 . S
C2614 H2605 0.930 . S
C2614 C2612 1.384 . S
C2614 C2615 1.372 1_565 S
C2615 C2614 1.372 1_545 S
C2615 C2616 1.400 1_445 S
C2615 C2620 1.490 . S
C2616 H2606 0.930 1_565 S
C2616 C2615 1.400 1_665 S
C2616 C2619 1.386 . S
H2617 C2633 0.930 . S
H2618 C2634 0.931 . S
C2619 H2607 0.929 . S
C2619 C2613 1.390 . S
C2619 C2616 1.386 . S
C2620 C2615 1.490 . S
C2620 C2622 1.395 . S
C2620 C2623 1.403 . S
H2621 C2627 0.930 . S
C2622 H2608 0.930 . S
C2622 C2620 1.395 . S
C2622 C2625 1.403 . S
C2623 C2620 1.403 . S
C2623 C2624 1.524 1_455 S
C2623 C2627 1.400 . S
C2624 H2609 0.960 . S
C2624 H2610 0.960 . S
C2624 H2611 0.960 . S
C2624 C2623 1.524 1_655 S
C2625 C2622 1.403 . S
C2625 C2626 1.392 . S
C2625 C2629 1.495 . S
C2626 C2625 1.392 . S
C2626 C2627 1.385 . S
C2626 C2628 1.478 . S
C2627 H2621 0.930 . S
C2627 C2623 1.400 . S
C2627 C2626 1.385 . S
C2628 C2626 1.478 . S
C2628 C2630 1.381 . S
C2628 C2634 1.383 . S
C2629 C2625 1.495 . S
C2629 H2635 0.959 . S
C2629 H2636 0.961 . S
C2629 H2637 0.960 . S
C2630 C2628 1.381 . S
C2630 C2631 1.394 . S
C2630 H2638 0.930 . S
C2631 C2630 1.394 . S
C2631 C2632 1.383 . S
C2631 H2639 0.929 . S
C2632 C2631 1.383 . S
C2632 C2633 1.377 . S
C2633 H2617 0.930 . S
C2633 C2632 1.377 . S
C2633 C2634 1.379 . S
C2634 H2618 0.931 . S
C2634 C2628 1.383 . S
C2634 C2633 1.379 . S
H2635 C2629 0.959 . S
H2636 C2629 0.961 . S
H2637 C2629 0.960 . S
H2638 C2630 0.930 . S
H2639 C2631 0.929 . S
H2640 C2648 0.929 . S
H2641 C2650 0.930 . S
H2642 C2652 0.930 . S
H2643 C2655 0.929 . S
H2644 C2658 0.930 . S
H2645 C2660 0.960 . S
H2646 C2660 0.960 . S
H2647 C2660 0.960 . S
C2648 H2640 0.929 . S
C2648 C2649 1.377 . S
C2648 C2650 1.384 . S
C2649 C2648 1.377 . S
C2649 C2655 1.390 . S
C2650 H2641 0.930 . S
C2650 C2648 1.384 . S
C2650 C2651 1.372 . S
C2651 C2650 1.372 . S
C2651 C2652 1.400 . S
C2651 C2656 1.490 . S
C2652 H2642 0.930 . S
C2652 C2651 1.400 . S
C2652 C2655 1.386 . S
H2653 C2669 0.930 . S
H2654 C2670 0.931 . S
C2655 H2643 0.929 . S
C2655 C2649 1.390 . S
C2655 C2652 1.386 . S
C2656 C2651 1.490 . S
C2656 C2658 1.395 . S
C2656 C2659 1.403 . S
H2657 C2663 0.930 . S
C2658 H2644 0.930 . S
C2658 C2656 1.395 . S
C2658 C2661 1.403 . S
C2659 C2656 1.403 . S
C2659 C2660 1.524 . S
C2659 C2663 1.400 . S
C2660 H2645 0.960 . S
C2660 H2646 0.960 . S
C2660 H2647 0.960 . S
C2660 C2659 1.524 . S
C2661 C2658 1.403 . S
C2661 C2662 1.392 . S
C2661 C2665 1.495 . S
C2662 C2661 1.392 . S
C2662 C2663 1.385 . S
C2662 C2664 1.478 . S
C2663 H2657 0.930 . S
C2663 C2659 1.400 . S
C2663 C2662 1.385 . S
C2664 C2662 1.478 . S
C2664 C2666 1.381 . S
C2664 C2670 1.383 . S
C2665 C2661 1.495 . S
C2665 H2671 0.959 . S
C2665 H2672 0.961 . S
C2665 H2673 0.960 . S
C2666 C2664 1.381 . S
C2666 C2667 1.394 . S
C2666 H2674 0.930 . S
C2667 C2666 1.394 . S
C2667 C2668 1.383 . S
C2667 H2675 0.929 . S
C2668 C2667 1.383 . S
C2668 C2669 1.377 . S
C2669 H2653 0.930 . S
C2669 C2668 1.377 . S
C2669 C2670 1.379 . S
C2670 H2654 0.931 . S
C2670 C2664 1.383 . S
C2670 C2669 1.379 . S
H2671 C2665 0.959 . S
H2672 C2665 0.961 . S
H2673 C2665 0.960 . S
H2674 C2666 0.930 . S
H2675 C2667 0.929 . S
H2676 C2684 0.929 . S
H2677 C2686 0.930 . S
H2678 C2688 0.930 1_565 S
H2679 C2691 0.929 . S
H2680 C2694 0.930 . S
H2681 C2696 0.960 . S
H2682 C2696 0.988 . S
H2683 C2696 0.960 . S
C2684 H2676 0.929 . S
C2684 C2685 1.377 . S
C2684 C2686 1.384 . S
C2685 C2684 1.377 . S
C2685 C2691 1.390 . S
C2686 H2677 0.930 . S
C2686 C2684 1.384 . S
C2686 C2687 1.372 1_545 S
C2687 C2686 1.372 1_565 S
C2687 C2688 1.400 1_565 S
C2687 C2692 1.490 . S
C2688 H2678 0.930 1_545 S
C2688 C2687 1.400 1_545 S
C2688 C2691 1.386 . S
H2689 C2705 0.930 . S
H2690 C2706 0.931 . S
C2691 H2679 0.929 . S
C2691 C2685 1.390 . S
C2691 C2688 1.386 . S
C2692 C2687 1.490 . S
C2692 C2694 1.395 . S
C2692 C2695 1.403 . S
H2693 C2699 0.930 . S
C2694 H2680 0.930 . S
C2694 C2692 1.395 . S
C2694 C2697 1.403 . S
C2695 C2692 1.403 . S
C2695 C2696 1.524 . S
C2695 C2699 1.400 . S
C2696 H2681 0.960 . S
C2696 H2682 0.988 . S
C2696 H2683 0.960 . S
C2696 C2695 1.524 . S
C2697 C2694 1.403 . S
C2697 C2698 1.392 . S
C2697 C2701 1.495 . S
C2698 C2697 1.392 . S
C2698 C2699 1.385 . S
C2698 C2700 1.478 . S
C2699 H2693 0.930 . S
C2699 C2695 1.400 . S
C2699 C2698 1.385 . S
C2700 C2698 1.478 . S
C2700 C2702 1.381 . S
C2700 C2706 1.383 . S
C2701 C2697 1.495 . S
C2701 H2707 0.959 . S
C2701 H2708 0.961 . S
C2701 H2709 0.960 . S
C2702 C2700 1.381 . S
C2702 C2703 1.394 . S
C2702 H2710 0.930 . S
C2703 C2702 1.394 . S
C2703 C2704 1.383 . S
C2703 H2711 0.929 . S
C2704 C2703 1.383 . S
C2704 C2705 1.377 . S
C2705 H2689 0.930 . S
C2705 C2704 1.377 . S
C2705 C2706 1.379 . S
C2706 H2690 0.931 . S
C2706 C2700 1.383 . S
C2706 C2705 1.379 . S
H2707 C2701 0.959 . S
H2708 C2701 0.961 . S
H2709 C2701 0.960 . S
H2710 C2702 0.930 . S
H2711 C2703 0.929 . S
H2712 C2720 0.929 . S
H2713 C2722 0.930 . S
H2714 C2724 0.930 . S
H2715 C2727 0.929 . S
H2716 C2730 0.930 . S
H2717 C2732 0.960 . S
H2718 C2732 0.960 . S
H2719 C2732 0.960 . S
C2720 H2712 0.929 . S
C2720 C2721 1.377 . S
C2720 C2722 1.384 . S
C2721 C2720 1.377 . S
C2721 C2727 1.390 . S
C2722 H2713 0.930 . S
C2722 C2720 1.384 . S
C2722 C2723 1.372 . S
C2723 C2722 1.372 . S
C2723 C2724 1.400 . S
C2723 C2728 1.490 . S
C2724 H2714 0.930 . S
C2724 C2723 1.400 . S
C2724 C2727 1.386 . S
H2725 C2741 0.930 . S
H2726 C2742 0.931 . S
C2727 H2715 0.929 . S
C2727 C2721 1.390 . S
C2727 C2724 1.386 . S
C2728 C2723 1.490 . S
C2728 C2730 1.395 . S
C2728 C2731 1.403 . S
H2729 C2735 0.930 . S
C2730 H2716 0.930 . S
C2730 C2728 1.395 . S
C2730 C2733 1.403 . S
C2731 C2728 1.403 . S
C2731 C2732 1.524 . S
C2731 C2735 1.400 . S
C2732 H2717 0.960 . S
C2732 H2718 0.960 . S
C2732 H2719 0.960 . S
C2732 C2731 1.524 . S
C2733 C2730 1.403 . S
C2733 C2734 1.392 . S
C2733 C2737 1.495 . S
C2734 C2733 1.392 . S
C2734 C2735 1.385 . S
C2734 C2736 1.478 . S
C2735 H2729 0.930 . S
C2735 C2731 1.400 . S
C2735 C2734 1.385 . S
C2736 C2734 1.478 . S
C2736 C2738 1.381 . S
C2736 C2742 1.383 . S
C2737 C2733 1.495 . S
C2737 H2743 0.959 . S
C2737 H2744 0.961 . S
C2737 H2745 0.960 . S
C2738 C2736 1.381 . S
C2738 C2739 1.394 . S
C2738 H2746 0.930 . S
C2739 C2738 1.394 . S
C2739 C2740 1.383 . S
C2739 H2747 0.929 . S
C2740 C2739 1.383 . S
C2740 C2741 1.377 . S
C2741 H2725 0.930 . S
C2741 C2740 1.377 . S
C2741 C2742 1.379 . S
C2742 H2726 0.931 . S
C2742 C2736 1.383 . S
C2742 C2741 1.379 . S
H2743 C2737 0.959 . S
H2744 C2737 0.961 . S
H2745 C2737 0.960 . S
H2746 C2738 0.930 . S
H2747 C2739 0.929 . S
H2748 C2756 0.938 . S
H2749 C2758 0.930 . S
H2750 C2760 0.930 . S
H2751 C2763 0.929 . S
H2752 C2766 0.930 . S
H2753 C2768 0.960 . S
H2754 C2768 0.960 . S
H2755 C2768 0.960 . S
C2756 H2748 0.938 . S
C2756 C2757 1.357 1_655 S
C2756 C2758 1.396 . S
C2757 C2756 1.357 1_455 S
C2757 C2763 1.390 . S
C2758 H2749 0.930 . S
C2758 C2756 1.396 . S
C2758 C2759 1.372 . S
C2759 C2758 1.372 . S
C2759 C2760 1.400 1_655 S
C2759 C2764 1.490 . S
C2760 H2750 0.930 . S
C2760 C2759 1.400 1_455 S
C2760 C2763 1.386 . S
H2761 C2777 0.930 . S
H2762 C2778 0.931 . S
C2763 H2751 0.929 . S
C2763 C2757 1.390 . S
C2763 C2760 1.386 . S
C2764 C2759 1.490 . S
C2764 C2766 1.395 . S
C2764 C2767 1.403 . S
H2765 C2771 0.930 . S
C2766 H2752 0.930 . S
C2766 C2764 1.395 . S
C2766 C2769 1.403 . S
C2767 C2764 1.403 . S
C2767 C2768 1.524 1_655 S
C2767 C2771 1.400 . S
C2768 H2753 0.960 . S
C2768 H2754 0.960 . S
C2768 H2755 0.960 . S
C2768 C2767 1.524 1_455 S
C2769 C2766 1.403 . S
C2769 C2770 1.392 . S
C2769 C2773 1.495 . S
C2770 C2769 1.392 . S
C2770 C2771 1.385 . S
C2770 C2772 1.478 . S
C2771 H2765 0.930 . S
C2771 C2767 1.400 . S
C2771 C2770 1.385 . S
C2772 C2770 1.478 . S
C2772 C2774 1.381 . S
C2772 C2778 1.383 . S
C2773 C2769 1.495 . S
C2773 H2779 0.959 . S
C2773 H2780 0.961 . S
C2773 H2781 0.960 . S
C2774 C2772 1.381 . S
C2774 C2775 1.394 . S
C2774 H2782 0.930 . S
C2775 C2774 1.394 . S
C2775 C2776 1.383 . S
C2775 H2783 0.929 . S
C2776 C2775 1.383 . S
C2776 C2777 1.377 . S
C2777 H2761 0.930 . S
C2777 C2776 1.377 . S
C2777 C2778 1.379 . S
C2778 H2762 0.931 . S
C2778 C2772 1.383 . S
C2778 C2777 1.379 . S
H2779 C2773 0.959 . S
H2780 C2773 0.961 . S
H2781 C2773 0.960 . S
H2782 C2774 0.930 . S
H2783 C2775 0.929 . S
H2784 C2792 0.929 . S
H2785 C2794 0.930 . S
H2786 C2796 0.930 . S
H2787 C2799 0.929 . S
H2788 C2802 0.930 . S
H2789 C2804 0.960 . S
H2790 C2804 0.960 . S
H2791 C2804 0.960 . S
C2792 H2784 0.929 . S
C2792 C2793 1.377 . S
C2792 C2794 1.384 . S
C2793 C2792 1.377 . S
C2793 C2799 1.390 . S
C2794 H2785 0.930 . S
C2794 C2792 1.384 . S
C2794 C2795 1.372 . S
C2795 C2794 1.372 . S
C2795 C2796 1.400 . S
C2795 C2800 1.490 . S
C2796 H2786 0.930 . S
C2796 C2795 1.400 . S
C2796 C2799 1.386 . S
H2797 C2813 0.930 . S
H2798 C2814 0.931 . S
C2799 H2787 0.929 . S
C2799 C2793 1.390 . S
C2799 C2796 1.386 . S
C2800 C2795 1.490 . S
C2800 C2802 1.395 . S
C2800 C2803 1.403 . S
H2801 C2807 0.930 . S
C2802 H2788 0.930 . S
C2802 C2800 1.395 . S
C2802 C2805 1.403 . S
C2803 C2800 1.403 . S
C2803 C2804 1.524 . S
C2803 C2807 1.400 . S
C2804 H2789 0.960 . S
C2804 H2790 0.960 . S
C2804 H2791 0.960 . S
C2804 C2803 1.524 . S
C2805 C2802 1.403 . S
C2805 C2806 1.392 . S
C2805 C2809 1.495 . S
C2806 C2805 1.392 . S
C2806 C2807 1.385 . S
C2806 C2808 1.478 . S
C2807 H2801 0.930 . S
C2807 C2803 1.400 . S
C2807 C2806 1.385 . S
C2808 C2806 1.478 . S
C2808 C2810 1.381 . S
C2808 C2814 1.383 . S
C2809 C2805 1.495 . S
C2809 H2815 0.959 . S
C2809 H2816 0.961 . S
C2809 H2817 0.960 . S
C2810 C2808 1.381 . S
C2810 C2811 1.394 . S
C2810 H2818 0.930 . S
C2811 C2810 1.394 . S
C2811 C2812 1.383 . S
C2811 H2819 0.929 . S
C2812 C2811 1.383 . S
C2812 C2813 1.377 . S
C2813 H2797 0.930 . S
C2813 C2812 1.377 . S
C2813 C2814 1.379 . S
C2814 H2798 0.931 . S
C2814 C2808 1.383 . S
C2814 C2813 1.379 . S
H2815 C2809 0.959 . S
H2816 C2809 0.961 . S
H2817 C2809 0.960 . S
H2818 C2810 0.930 . S
H2819 C2811 0.929 . S
H2820 C2828 0.929 . S
H2821 C2830 0.930 . S
H2822 C2832 0.930 . S
H2823 C2835 0.929 . S
H2824 C2838 0.930 . S
H2825 C2840 0.960 . S
H2826 C2840 0.960 . S
H2827 C2840 0.960 . S
C2828 H2820 0.929 . S
C2828 C2829 1.377 . S
C2828 C2830 1.384 . S
C2829 C2828 1.377 . S
C2829 C2835 1.390 . S
C2830 H2821 0.930 . S
C2830 C2828 1.384 . S
C2830 C2831 1.372 . S
C2831 C2830 1.372 . S
C2831 C2832 1.400 . S
C2831 C2836 1.490 . S
C2832 H2822 0.930 . S
C2832 C2831 1.400 . S
C2832 C2835 1.386 . S
H2833 C2849 0.930 . S
H2834 C2850 0.931 . S
C2835 H2823 0.929 . S
C2835 C2829 1.390 . S
C2835 C2832 1.386 . S
C2836 C2831 1.490 . S
C2836 C2838 1.395 . S
C2836 C2839 1.403 . S
H2837 C2843 0.930 . S
C2838 H2824 0.930 . S
C2838 C2836 1.395 . S
C2838 C2841 1.403 . S
C2839 C2836 1.403 . S
C2839 C2840 1.524 . S
C2839 C2843 1.400 . S
C2840 H2825 0.960 . S
C2840 H2826 0.960 . S
C2840 H2827 0.960 . S
C2840 C2839 1.524 . S
C2841 C2838 1.403 . S
C2841 C2842 1.392 . S
C2841 C2845 1.495 . S
C2842 C2841 1.392 . S
C2842 C2843 1.385 . S
C2842 C2844 1.478 . S
C2843 H2837 0.930 . S
C2843 C2839 1.400 . S
C2843 C2842 1.385 . S
C2844 C2842 1.478 . S
C2844 C2846 1.381 . S
C2844 C2850 1.383 . S
C2845 C2841 1.495 . S
C2845 H2851 0.959 . S
C2845 H2852 0.961 . S
C2845 H2853 0.960 . S
C2846 C2844 1.381 . S
C2846 C2847 1.394 . S
C2846 H2854 0.930 . S
C2847 C2846 1.394 . S
C2847 C2848 1.383 . S
C2847 H2855 0.929 . S
C2848 C2847 1.383 . S
C2848 C2849 1.377 . S
C2849 H2833 0.930 . S
C2849 C2848 1.377 . S
C2849 C2850 1.379 . S
C2850 H2834 0.931 . S
C2850 C2844 1.383 . S
C2850 C2849 1.379 . S
H2851 C2845 0.959 . S
H2852 C2845 0.961 . S
H2853 C2845 0.960 . S
H2854 C2846 0.930 . S
H2855 C2847 0.929 . S
H2856 C2864 0.929 . S
H2857 C2866 0.930 . S
H2858 C2868 0.930 . S
H2859 C2871 0.929 . S
H2860 C2874 0.930 . S
H2861 C2876 0.960 . S
H2862 C2876 0.960 . S
H2863 C2876 0.960 . S
C2864 H2856 0.929 . S
C2864 C2865 1.377 . S
C2864 C2866 1.384 . S
C2865 C2864 1.377 . S
C2865 C2871 1.390 . S
C2866 H2857 0.930 . S
C2866 C2864 1.384 . S
C2866 C2867 1.372 . S
C2867 C2866 1.372 . S
C2867 C2868 1.400 . S
C2867 C2872 1.490 . S
C2868 H2858 0.930 . S
C2868 C2867 1.400 . S
C2868 C2871 1.386 . S
H2869 C2885 0.930 . S
H2870 C2886 0.931 . S
C2871 H2859 0.929 . S
C2871 C2865 1.390 . S
C2871 C2868 1.386 . S
C2872 C2867 1.490 . S
C2872 C2874 1.395 . S
C2872 C2875 1.403 . S
H2873 C2879 0.930 . S
C2874 H2860 0.930 . S
C2874 C2872 1.395 . S
C2874 C2877 1.403 . S
C2875 C2872 1.403 . S
C2875 C2876 1.524 . S
C2875 C2879 1.400 . S
C2876 H2861 0.960 . S
C2876 H2862 0.960 . S
C2876 H2863 0.960 . S
C2876 C2875 1.524 . S
C2877 C2874 1.403 . S
C2877 C2878 1.392 . S
C2877 C2881 1.495 . S
C2878 C2877 1.392 . S
C2878 C2879 1.385 . S
C2878 C2880 1.478 . S
C2879 H2873 0.930 . S
C2879 C2875 1.400 . S
C2879 C2878 1.385 . S
C2880 C2878 1.478 . S
C2880 C2882 1.381 . S
C2880 C2886 1.383 . S
C2881 C2877 1.495 . S
C2881 H2887 0.959 . S
C2881 H2888 0.961 . S
C2881 H2889 0.960 . S
C2882 C2880 1.381 . S
C2882 C2883 1.394 . S
C2882 H2890 0.930 . S
C2883 C2882 1.394 . S
C2883 C2884 1.383 . S
C2883 H2891 0.929 . S
C2884 C2883 1.383 . S
C2884 C2885 1.377 . S
C2885 H2869 0.930 . S
C2885 C2884 1.377 . S
C2885 C2886 1.379 . S
C2886 H2870 0.931 . S
C2886 C2880 1.383 . S
C2886 C2885 1.379 . S
H2887 C2881 0.959 . S
H2888 C2881 0.961 . S
H2889 C2881 0.960 . S
H2890 C2882 0.930 . S
H2891 C2883 0.929 . S
H2892 C2900 0.929 . S
H2893 C2902 0.930 . S
H2894 C2904 0.930 . S
H2895 C2907 0.929 . S
H2896 C2910 0.930 . S
H2897 C2912 0.960 . S
H2898 C2912 0.960 . S
H2899 C2912 0.960 . S
C2900 H2892 0.929 . S
C2900 C2901 1.377 . S
C2900 C2902 1.384 . S
C2901 C2900 1.377 . S
C2901 C2907 1.390 . S
C2902 H2893 0.930 . S
C2902 C2900 1.384 . S
C2902 C2903 1.372 . S
C2903 C2902 1.372 . S
C2903 C2904 1.400 . S
C2903 C2908 1.490 . S
C2904 H2894 0.930 . S
C2904 C2903 1.400 . S
C2904 C2907 1.386 . S
H2905 C2921 0.930 . S
H2906 C2922 0.931 . S
C2907 H2895 0.929 . S
C2907 C2901 1.390 . S
C2907 C2904 1.386 . S
C2908 C2903 1.490 . S
C2908 C2910 1.395 . S
C2908 C2911 1.403 . S
H2909 C2915 0.930 . S
C2910 H2896 0.930 . S
C2910 C2908 1.395 . S
C2910 C2913 1.403 . S
C2911 C2908 1.403 . S
C2911 C2912 1.524 . S
C2911 C2915 1.400 . S
C2912 H2897 0.960 . S
C2912 H2898 0.960 . S
C2912 H2899 0.960 . S
C2912 C2911 1.524 . S
C2913 C2910 1.403 . S
C2913 C2914 1.392 . S
C2913 C2917 1.495 . S
C2914 C2913 1.392 . S
C2914 C2915 1.385 . S
C2914 C2916 1.478 . S
C2915 H2909 0.930 . S
C2915 C2911 1.400 . S
C2915 C2914 1.385 . S
C2916 C2914 1.478 . S
C2916 C2918 1.381 . S
C2916 C2922 1.383 . S
C2917 C2913 1.495 . S
C2917 H2923 0.959 . S
C2917 H2924 0.961 . S
C2917 H2925 0.960 . S
C2918 C2916 1.381 . S
C2918 C2919 1.394 . S
C2918 H2926 0.930 . S
C2919 C2918 1.394 . S
C2919 C2920 1.383 . S
C2919 H2927 0.929 . S
C2920 C2919 1.383 . S
C2920 C2921 1.377 . S
C2921 H2905 0.930 . S
C2921 C2920 1.377 . S
C2921 C2922 1.379 . S
C2922 H2906 0.931 . S
C2922 C2916 1.383 . S
C2922 C2921 1.379 . S
H2923 C2917 0.959 . S
H2924 C2917 0.961 . S
H2925 C2917 0.960 . S
H2926 C2918 0.930 . S
H2927 C2919 0.929 . S
H2928 C2936 0.929 . S
H2929 C2938 0.930 . S
H2930 C2940 0.930 . S
H2931 C2943 0.929 . S
H2932 C2946 0.930 . S
H2933 C2948 0.960 . S
H2934 C2948 0.960 1_556 S
H2935 C2948 0.923 1_655 S
C2936 H2928 0.929 . S
C2936 C2937 1.377 . S
C2936 C2938 1.384 1_655 S
C2937 C2936 1.377 . S
C2937 C2943 1.390 1_556 S
C2938 H2929 0.930 . S
C2938 C2936 1.384 1_455 S
C2938 C2939 1.372 1_556 S
C2939 C2938 1.372 1_554 S
C2939 C2940 1.400 1_455 S
C2939 C2944 1.490 . S
C2940 H2930 0.930 . S
C2940 C2939 1.400 1_655 S
C2940 C2943 1.386 . S
H2941 C2957 0.930 . S
H2942 C2958 0.931 . S
C2943 H2931 0.929 . S
C2943 C2937 1.390 1_554 S
C2943 C2940 1.386 . S
C2944 C2939 1.490 . S
C2944 C2946 1.395 . S
C2944 C2947 1.403 . S
H2945 C2951 0.930 . S
C2946 H2932 0.930 . S
C2946 C2944 1.395 . S
C2946 C2949 1.403 . S
C2947 C2944 1.403 . S
C2947 C2948 1.524 . S
C2947 C2951 1.400 . S
C2948 H2933 0.960 . S
C2948 H2934 0.960 1_554 S
C2948 H2935 0.923 1_455 S
C2948 C2947 1.524 . S
C2949 C2946 1.403 . S
C2949 C2950 1.392 . S
C2949 C2953 1.495 . S
C2950 C2949 1.392 . S
C2950 C2951 1.385 . S
C2950 C2952 1.478 . S
C2951 H2945 0.930 . S
C2951 C2947 1.400 . S
C2951 C2950 1.385 . S
C2952 C2950 1.478 . S
C2952 C2954 1.381 . S
C2952 C2958 1.383 . S
C2953 C2949 1.495 . S
C2953 H2959 0.959 . S
C2953 H2960 0.961 . S
C2953 H2961 0.960 . S
C2954 C2952 1.381 . S
C2954 C2955 1.394 . S
C2954 H2962 0.930 . S
C2955 C2954 1.394 . S
C2955 C2956 1.383 . S
C2955 H2963 0.929 . S
C2956 C2955 1.383 . S
C2956 C2957 1.377 . S
C2957 H2941 0.930 . S
C2957 C2956 1.377 . S
C2957 C2958 1.379 . S
C2958 H2942 0.931 . S
C2958 C2952 1.383 . S
C2958 C2957 1.379 . S
H2959 C2953 0.959 . S
H2960 C2953 0.961 . S
H2961 C2953 0.960 . S
H2962 C2954 0.930 . S
H2963 C2955 0.929 . S
H2964 C2972 0.929 . S
H2965 C2974 0.930 . S
H2966 C2976 0.930 . S
H2967 C2979 0.929 . S
H2968 C2982 0.930 . S
H2969 C2984 0.960 . S
H2970 C2984 0.960 . S
H2971 C2984 0.960 . S
C2972 H2964 0.929 . S
C2972 C2973 1.377 . S
C2972 C2974 1.384 . S
C2973 C2972 1.377 . S
C2973 C2979 1.390 . S
C2974 H2965 0.930 . S
C2974 C2972 1.384 . S
C2974 C2975 1.372 . S
C2975 C2974 1.372 . S
C2975 C2976 1.400 . S
C2975 C2980 1.490 . S
C2976 H2966 0.930 . S
C2976 C2975 1.400 . S
C2976 C2979 1.386 . S
H2977 C2993 0.930 . S
H2978 C2994 0.931 . S
C2979 H2967 0.929 . S
C2979 C2973 1.390 . S
C2979 C2976 1.386 . S
C2980 C2975 1.490 . S
C2980 C2982 1.395 . S
C2980 C2983 1.403 . S
H2981 C2987 0.930 . S
C2982 H2968 0.930 . S
C2982 C2980 1.395 . S
C2982 C2985 1.403 . S
C2983 C2980 1.403 . S
C2983 C2984 1.524 . S
C2983 C2987 1.400 . S
C2984 H2969 0.960 . S
C2984 H2970 0.960 . S
C2984 H2971 0.960 . S
C2984 C2983 1.524 . S
C2985 C2982 1.403 . S
C2985 C2986 1.392 . S
C2985 C2989 1.495 . S
C2986 C2985 1.392 . S
C2986 C2987 1.385 . S
C2986 C2988 1.478 . S
C2987 H2981 0.930 . S
C2987 C2983 1.400 . S
C2987 C2986 1.385 . S
C2988 C2986 1.478 . S
C2988 C2990 1.381 . S
C2988 C2994 1.383 . S
C2989 C2985 1.495 . S
C2989 H2995 0.959 . S
C2989 H2996 0.961 . S
C2989 H2997 0.960 . S
C2990 C2988 1.381 . S
C2990 C2991 1.394 . S
C2990 H2998 0.930 . S
C2991 C2990 1.394 . S
C2991 C2992 1.383 . S
C2991 H2999 0.929 . S
C2992 C2991 1.383 . S
C2992 C2993 1.377 . S
C2993 H2977 0.930 . S
C2993 C2992 1.377 . S
C2993 C2994 1.379 . S
C2994 H2978 0.931 . S
C2994 C2988 1.383 . S
C2994 C2993 1.379 . S
H2995 C2989 0.959 . S
H2996 C2989 0.961 . S
H2997 C2989 0.960 . S
H2998 C2990 0.930 . S
H2999 C2991 0.929 . S
H3000 C3008 0.929 . S
H3001 C3010 0.930 . S
H3002 C3012 0.930 . S
H3003 C3015 0.929 . S
H3004 C3018 0.930 . S
H3005 C3020 0.960 . S
H3006 C3020 0.960 . S
H3007 C3020 0.960 . S
C3008 H3000 0.929 . S
C3008 C3009 1.377 . S
C3008 C3010 1.384 . S
C3009 C3008 1.377 . S
C3009 C3015 1.390 . S
C3010 H3001 0.930 . S
C3010 C3008 1.384 . S
C3010 C3011 1.372 . S
C3011 C3010 1.372 . S
C3011 C3012 1.400 . S
C3011 C3016 1.490 . S
C3012 H3002 0.930 . S
C3012 C3011 1.400 . S
C3012 C3015 1.386 . S
H3013 C3029 0.930 . S
H3014 C3030 0.931 . S
C3015 H3003 0.929 . S
C3015 C3009 1.390 . S
C3015 C3012 1.386 . S
C3016 C3011 1.490 . S
C3016 C3018 1.395 . S
C3016 C3019 1.403 . S
H3017 C3023 0.930 . S
C3018 H3004 0.930 . S
C3018 C3016 1.395 . S
C3018 C3021 1.403 . S
C3019 C3016 1.403 . S
C3019 C3020 1.524 . S
C3019 C3023 1.400 . S
C3020 H3005 0.960 . S
C3020 H3006 0.960 . S
C3020 H3007 0.960 . S
C3020 C3019 1.524 . S
C3021 C3018 1.403 . S
C3021 C3022 1.392 . S
C3021 C3025 1.495 . S
C3022 C3021 1.392 . S
C3022 C3023 1.385 . S
C3022 C3024 1.478 . S
C3023 H3017 0.930 . S
C3023 C3019 1.400 . S
C3023 C3022 1.385 . S
C3024 C3022 1.478 . S
C3024 C3026 1.381 . S
C3024 C3030 1.383 . S
C3025 C3021 1.495 . S
C3025 H3031 0.959 . S
C3025 H3032 0.961 . S
C3025 H3033 0.960 . S
C3026 C3024 1.381 . S
C3026 C3027 1.394 . S
C3026 H3034 0.930 . S
C3027 C3026 1.394 . S
C3027 C3028 1.383 . S
C3027 H3035 0.929 . S
C3028 C3027 1.383 . S
C3028 C3029 1.377 . S
C3029 H3013 0.930 . S
C3029 C3028 1.377 . S
C3029 C3030 1.379 . S
C3030 H3014 0.931 . S
C3030 C3024 1.383 . S
C3030 C3029 1.379 . S
H3031 C3025 0.959 . S
H3032 C3025 0.961 . S
H3033 C3025 0.960 . S
H3034 C3026 0.930 . S
H3035 C3027 0.929 . S
H3036 C3044 0.929 . S
H3037 C3046 0.930 . S
H3038 C3048 0.930 . S
H3039 C3051 0.929 . S
H3040 C3054 0.930 . S
H3041 C3056 0.960 . S
H3042 C3056 0.960 . S
H3043 C3056 0.960 . S
C3044 H3036 0.929 . S
C3044 C3045 1.377 . S
C3044 C3046 1.384 . S
C3045 C3044 1.377 . S
C3045 C3051 1.390 . S
C3046 H3037 0.930 . S
C3046 C3044 1.384 . S
C3046 C3047 1.372 . S
C3047 C3046 1.372 . S
C3047 C3048 1.400 . S
C3047 C3052 1.490 . S
C3048 H3038 0.930 . S
C3048 C3047 1.400 . S
C3048 C3051 1.386 . S
H3049 C3065 0.930 . S
H3050 C3066 0.931 . S
C3051 H3039 0.929 . S
C3051 C3045 1.390 . S
C3051 C3048 1.386 . S
C3052 C3047 1.490 . S
C3052 C3054 1.395 . S
C3052 C3055 1.403 . S
H3053 C3059 0.930 . S
C3054 H3040 0.930 . S
C3054 C3052 1.395 . S
C3054 C3057 1.403 . S
C3055 C3052 1.403 . S
C3055 C3056 1.524 . S
C3055 C3059 1.400 . S
C3056 H3041 0.960 . S
C3056 H3042 0.960 . S
C3056 H3043 0.960 . S
C3056 C3055 1.524 . S
C3057 C3054 1.403 . S
C3057 C3058 1.392 . S
C3057 C3061 1.495 . S
C3058 C3057 1.392 . S
C3058 C3059 1.385 . S
C3058 C3060 1.478 . S
C3059 H3053 0.930 . S
C3059 C3055 1.400 . S
C3059 C3058 1.385 . S
C3060 C3058 1.478 . S
C3060 C3062 1.381 . S
C3060 C3066 1.383 . S
C3061 C3057 1.495 . S
C3061 H3067 0.959 . S
C3061 H3068 0.961 . S
C3061 H3069 0.960 . S
C3062 C3060 1.381 . S
C3062 C3063 1.394 . S
C3062 H3070 0.930 . S
C3063 C3062 1.394 . S
C3063 C3064 1.383 . S
C3063 H3071 0.929 . S
C3064 C3063 1.383 . S
C3064 C3065 1.377 . S
C3065 H3049 0.930 . S
C3065 C3064 1.377 . S
C3065 C3066 1.379 . S
C3066 H3050 0.931 . S
C3066 C3060 1.383 . S
C3066 C3065 1.379 . S
H3067 C3061 0.959 . S
H3068 C3061 0.961 . S
H3069 C3061 0.960 . S
H3070 C3062 0.930 . S
H3071 C3063 0.929 . S
H3072 C3080 0.929 . S
H3073 C3082 0.930 . S
H3074 C3084 0.930 . S
H3075 C3087 0.929 . S
H3076 C3090 0.930 . S
H3077 C3092 0.960 . S
H3078 C3092 0.960 . S
H3079 C3092 0.960 . S
C3080 H3072 0.929 . S
C3080 C3081 1.377 1_556 S
C3080 C3082 1.384 . S
C3081 C3080 1.377 1_554 S
C3081 C3087 1.390 . S
C3082 H3073 0.930 . S
C3082 C3080 1.384 . S
C3082 C3083 1.372 . S
C3083 C3082 1.372 . S
C3083 C3084 1.400 1_556 S
C3083 C3088 1.490 . S
C3084 H3074 0.930 . S
C3084 C3083 1.400 1_554 S
C3084 C3087 1.386 . S
H3085 C3101 0.930 . S
H3086 C3102 0.931 . S
C3087 H3075 0.929 . S
C3087 C3081 1.390 . S
C3087 C3084 1.386 . S
C3088 C3083 1.490 . S
C3088 C3090 1.395 . S
C3088 C3091 1.403 . S
H3089 C3095 0.930 . S
C3090 H3076 0.930 . S
C3090 C3088 1.395 . S
C3090 C3093 1.403 . S
C3091 C3088 1.403 . S
C3091 C3092 1.524 1_556 S
C3091 C3095 1.400 . S
C3092 H3077 0.960 . S
C3092 H3078 0.960 . S
C3092 H3079 0.960 . S
C3092 C3091 1.524 1_554 S
C3093 C3090 1.403 . S
C3093 C3094 1.392 . S
C3093 C3097 1.495 . S
C3094 C3093 1.392 . S
C3094 C3095 1.385 . S
C3094 C3096 1.478 . S
C3095 H3089 0.930 . S
C3095 C3091 1.400 . S
C3095 C3094 1.385 . S
C3096 C3094 1.478 . S
C3096 C3098 1.381 . S
C3096 C3102 1.383 . S
C3097 C3093 1.495 . S
C3097 H3103 0.959 . S
C3097 H3104 0.961 . S
C3097 H3105 0.960 . S
C3098 C3096 1.381 . S
C3098 C3099 1.394 . S
C3098 H3106 0.930 . S
C3099 C3098 1.394 . S
C3099 C3100 1.383 . S
C3099 H3107 0.929 . S
C3100 C3099 1.383 . S
C3100 C3101 1.377 . S
C3101 H3085 0.930 . S
C3101 C3100 1.377 . S
C3101 C3102 1.379 . S
C3102 H3086 0.931 . S
C3102 C3096 1.383 . S
C3102 C3101 1.379 . S
H3103 C3097 0.959 . S
H3104 C3097 0.961 . S
H3105 C3097 0.960 . S
H3106 C3098 0.930 . S
H3107 C3099 0.929 . S
H3108 C3116 0.929 . S
H3109 C3118 0.930 . S
H3110 C3120 0.930 . S
H3111 C3123 0.929 . S
H3112 C3126 0.930 . S
H3113 C3128 0.960 . S
H3114 C3128 0.960 . S
H3115 C3128 0.960 . S
C3116 H3108 0.929 . S
C3116 C3117 1.377 . S
C3116 C3118 1.384 . S
C3117 C3116 1.377 . S
C3117 C3123 1.390 . S
C3118 H3109 0.930 . S
C3118 C3116 1.384 . S
C3118 C3119 1.372 . S
C3119 C3118 1.372 . S
C3119 C3120 1.400 . S
C3119 C3124 1.490 . S
C3120 H3110 0.930 . S
C3120 C3119 1.400 . S
C3120 C3123 1.386 . S
H3121 C3137 0.930 . S
H3122 C3138 0.931 . S
C3123 H3111 0.929 . S
C3123 C3117 1.390 . S
C3123 C3120 1.386 . S
C3124 C3119 1.490 . S
C3124 C3126 1.395 . S
C3124 C3127 1.403 . S
H3125 C3131 0.930 . S
C3126 H3112 0.930 . S
C3126 C3124 1.395 . S
C3126 C3129 1.403 . S
C3127 C3124 1.403 . S
C3127 C3128 1.524 . S
C3127 C3131 1.400 . S
C3128 H3113 0.960 . S
C3128 H3114 0.960 . S
C3128 H3115 0.960 . S
C3128 C3127 1.524 . S
C3129 C3126 1.403 . S
C3129 C3130 1.392 . S
C3129 C3133 1.495 . S
C3130 C3129 1.392 . S
C3130 C3131 1.385 . S
C3130 C3132 1.478 . S
C3131 H3125 0.930 . S
C3131 C3127 1.400 . S
C3131 C3130 1.385 . S
C3132 C3130 1.478 . S
C3132 C3134 1.368 1_655 S
C3132 C3138 1.383 1_655 S
C3133 C3129 1.495 . S
C3133 H3139 0.959 . S
C3133 H3140 0.961 . S
C3133 H3141 0.960 . S
C3134 C3132 1.368 1_455 S
C3134 C3135 1.451 . S
C3134 H3142 0.889 1_455 S
C3135 C3134 1.451 . S
C3135 C3136 1.383 . S
C3135 H3143 0.929 . S
C3136 C3135 1.383 . S
C3136 C3137 1.377 . S
C3137 H3121 0.930 . S
C3137 C3136 1.377 . S
C3137 C3138 1.379 . S
C3138 H3122 0.931 . S
C3138 C3132 1.383 1_455 S
C3138 C3137 1.379 . S
H3139 C3133 0.959 . S
H3140 C3133 0.961 . S
H3141 C3133 0.960 . S
H3142 C3134 0.889 1_655 S
H3143 C3135 0.929 . S
C1425 C536 1.051 . S
C1444 C5 1.034 . S
C1461 C64 1.043 . S
C1480 C595 1.033 . S
C1497 C123 1.049 . S
C1516 C654 1.070 . S
C1533 C182 1.044 . S
C1552 C477 1.052 . S
C1569 C241 1.050 . S
C1588 C890 1.028 . S
C1605 C713 1.043 . S
C1624 C300 1.028 . S
C1641 C359 1.043 . S
C1660 C772 1.030 . S
C1677 C831 1.052 . S
C1696 C418 1.043 . S
C1713 C949 1.046 . S
C1732 C1067 1.021 . S
C1749 C1303 1.051 . S
C1768 C1008 1.033 . S
C1785 C1126 1.043 . S
C1804 C1362 1.032 . S
C1821 C1244 1.053 . S
C1840 C1185 1.053 . S
C1857 C1183 1.989 . S
C1876 C3 1.989 . S
C1893 C62 1.997 . S
C1912 C1006 1.986 . S
C1929 C121 1.991 . S
C1948 C1065 1.999 . S
C1965 C180 1.997 . S
C1984 C1124 1.999 . S
C2001 C239 1.993 . S
C2020 C1360 2.008 . S
C2037 C1242 1.997 . S
C2056 C298 1.996 . S
C2073 C1301 1.990 . S
C2092 C357 1.969 . S
C2109 C947 1.990 . S
C2128 C416 1.995 . S
C2145 C888 1.997 . S
C2164 C475 1.996 . S
C2181 C534 1.991 . S
C2200 C711 1.969 . S
C2217 C770 1.995 . S
C2236 C593 1.975 . S
C2253 C829 1.997 . S
C2272 C652 1.997 . S
C2289 C52 1.152 . S
C2308 C977 1.109 . S
C2325 C1390 1.127 . S
C2344 C111 1.166 . S
C2361 C1272 1.126 . S
C2380 C170 1.167 . S
C2397 C229 1.153 . S
C2416 C1331 1.106 . S
C2433 C288 1.147 . S
C2452 C1036 1.144 . S
C2469 C1095 1.134 . S
C2488 C347 1.142 . S
C2505 C1154 1.126 . S
C2524 C406 1.171 . S
C2541 C1213 1.138 . S
C2560 C465 1.126 . S
C2577 C33 1.130 . S
C2596 C524 1.157 . S
C2613 C92 1.131 . S
C2632 C583 1.149 . S
C2649 C151 1.128 . S
C2668 C642 1.162 . S
C2685 C210 1.139 . S
C2704 C701 1.122 . S
C2721 C269 1.130 . S
C2740 C760 1.154 . S
C2757 C328 1.128 . S
C2776 C819 1.162 . S
C2793 C878 1.147 . S
C2812 C387 1.143 . S
C2829 C446 1.139 . S
C2848 C937 1.122 . S
C2865 C505 1.129 . S
C2884 C996 1.161 . S
C2901 C1055 1.150 . S
C2920 C741 1.117 . S
C2937 C800 1.129 . S
C2956 C1114 1.160 . S
C2973 C1173 1.144 . S
C2992 C859 1.163 . S
C3009 C1232 1.143 . S
C3028 C918 1.164 . S
C3045 C1291 1.149 . S
C3064 C623 1.127 . S
C3081 C682 1.131 . S
C3100 C1350 1.151 . S
C3117 C1409 1.154 . S
C3136 C564 1.097 . S
