# Generated by pormake.
# Topology umk, (4)-cn, num edge types: 1
# Building blocks:
#     Node 0, Type 0, BuildingBlock: QUQFOY_clean_sbu_3, # of connection points: 4
#     Node 1, Type 0, BuildingBlock: QUQFOY_clean_sbu_3, # of connection points: 4
#     Node 2, Type 0, BuildingBlock: QUQFOY_clean_sbu_3, # of connection points: 4
#     Node 3, Type 0, BuildingBlock: QUQFOY_clean_sbu_3, # of connection points: 4
#     Node 4, Type 0, BuildingBlock: QUQFOY_clean_sbu_3, # of connection points: 4
#     Node 5, Type 0, BuildingBlock: QUQFOY_clean_sbu_3, # of connection points: 4
#     Node 6, Type 0, BuildingBlock: QUQFOY_clean_sbu_3, # of connection points: 4
#     Node 7, Type 0, BuildingBlock: QUQFOY_clean_sbu_3, # of connection points: 4
#     Node 8, Type 0, BuildingBlock: QUQFOY_clean_sbu_3, # of connection points: 4
#     Node 9, Type 0, BuildingBlock: QUQFOY_clean_sbu_3, # of connection points: 4
#     Node 10, Type 0, BuildingBlock: QUQFOY_clean_sbu_3, # of connection points: 4
#     Node 11, Type 0, BuildingBlock: QUQFOY_clean_sbu_3, # of connection points: 4
#     Node 12, Type 0, BuildingBlock: QUQFOY_clean_sbu_3, # of connection points: 4
#     Node 13, Type 0, BuildingBlock: QUQFOY_clean_sbu_3, # of connection points: 4
#     Node 14, Type 0, BuildingBlock: QUQFOY_clean_sbu_3, # of connection points: 4
#     Node 15, Type 0, BuildingBlock: QUQFOY_clean_sbu_3, # of connection points: 4
#     Node 16, Type 0, BuildingBlock: QUQFOY_clean_sbu_3, # of connection points: 4
#     Node 17, Type 0, BuildingBlock: QUQFOY_clean_sbu_3, # of connection points: 4
#     Node 18, Type 0, BuildingBlock: QUQFOY_clean_sbu_3, # of connection points: 4
#     Node 19, Type 0, BuildingBlock: QUQFOY_clean_sbu_3, # of connection points: 4
#     Node 20, Type 0, BuildingBlock: QUQFOY_clean_sbu_3, # of connection points: 4
#     Node 21, Type 0, BuildingBlock: QUQFOY_clean_sbu_3, # of connection points: 4
#     Node 22, Type 0, BuildingBlock: QUQFOY_clean_sbu_3, # of connection points: 4
#     Node 23, Type 0, BuildingBlock: QUQFOY_clean_sbu_3, # of connection points: 4
#     Edge 24, Type (0, 0), BuildingBlock: TEMPAE_clean_linker_10, # of connection points: 2
#     Edge 25, Type (0, 0), BuildingBlock: TEMPAE_clean_linker_10, # of connection points: 2
#     Edge 26, Type (0, 0), BuildingBlock: TEMPAE_clean_linker_10, # of connection points: 2
#     Edge 27, Type (0, 0), BuildingBlock: TEMPAE_clean_linker_10, # of connection points: 2
#     Edge 28, Type (0, 0), BuildingBlock: TEMPAE_clean_linker_10, # of connection points: 2
#     Edge 29, Type (0, 0), BuildingBlock: TEMPAE_clean_linker_10, # of connection points: 2
#     Edge 30, Type (0, 0), BuildingBlock: TEMPAE_clean_linker_10, # of connection points: 2
#     Edge 31, Type (0, 0), BuildingBlock: TEMPAE_clean_linker_10, # of connection points: 2
#     Edge 32, Type (0, 0), BuildingBlock: TEMPAE_clean_linker_10, # of connection points: 2
#     Edge 33, Type (0, 0), BuildingBlock: TEMPAE_clean_linker_10, # of connection points: 2
#     Edge 34, Type (0, 0), BuildingBlock: TEMPAE_clean_linker_10, # of connection points: 2
#     Edge 35, Type (0, 0), BuildingBlock: TEMPAE_clean_linker_10, # of connection points: 2
#     Edge 36, Type (0, 0), BuildingBlock: TEMPAE_clean_linker_10, # of connection points: 2
#     Edge 37, Type (0, 0), BuildingBlock: TEMPAE_clean_linker_10, # of connection points: 2
#     Edge 38, Type (0, 0), BuildingBlock: TEMPAE_clean_linker_10, # of connection points: 2
#     Edge 39, Type (0, 0), BuildingBlock: TEMPAE_clean_linker_10, # of connection points: 2
#     Edge 40, Type (0, 0), BuildingBlock: TEMPAE_clean_linker_10, # of connection points: 2
#     Edge 41, Type (0, 0), BuildingBlock: TEMPAE_clean_linker_10, # of connection points: 2
#     Edge 42, Type (0, 0), BuildingBlock: TEMPAE_clean_linker_10, # of connection points: 2
#     Edge 43, Type (0, 0), BuildingBlock: TEMPAE_clean_linker_10, # of connection points: 2
#     Edge 44, Type (0, 0), BuildingBlock: TEMPAE_clean_linker_10, # of connection points: 2
#     Edge 45, Type (0, 0), BuildingBlock: TEMPAE_clean_linker_10, # of connection points: 2
#     Edge 46, Type (0, 0), BuildingBlock: TEMPAE_clean_linker_10, # of connection points: 2
#     Edge 47, Type (0, 0), BuildingBlock: TEMPAE_clean_linker_10, # of connection points: 2
#     Edge 48, Type (0, 0), BuildingBlock: TEMPAE_clean_linker_10, # of connection points: 2
#     Edge 49, Type (0, 0), BuildingBlock: TEMPAE_clean_linker_10, # of connection points: 2
#     Edge 50, Type (0, 0), BuildingBlock: TEMPAE_clean_linker_10, # of connection points: 2
#     Edge 51, Type (0, 0), BuildingBlock: TEMPAE_clean_linker_10, # of connection points: 2
#     Edge 52, Type (0, 0), BuildingBlock: TEMPAE_clean_linker_10, # of connection points: 2
#     Edge 53, Type (0, 0), BuildingBlock: TEMPAE_clean_linker_10, # of connection points: 2
#     Edge 54, Type (0, 0), BuildingBlock: TEMPAE_clean_linker_10, # of connection points: 2
#     Edge 55, Type (0, 0), BuildingBlock: TEMPAE_clean_linker_10, # of connection points: 2
#     Edge 56, Type (0, 0), BuildingBlock: TEMPAE_clean_linker_10, # of connection points: 2
#     Edge 57, Type (0, 0), BuildingBlock: TEMPAE_clean_linker_10, # of connection points: 2
#     Edge 58, Type (0, 0), BuildingBlock: TEMPAE_clean_linker_10, # of connection points: 2
#     Edge 59, Type (0, 0), BuildingBlock: TEMPAE_clean_linker_10, # of connection points: 2
#     Edge 60, Type (0, 0), BuildingBlock: TEMPAE_clean_linker_10, # of connection points: 2
#     Edge 61, Type (0, 0), BuildingBlock: TEMPAE_clean_linker_10, # of connection points: 2
#     Edge 62, Type (0, 0), BuildingBlock: TEMPAE_clean_linker_10, # of connection points: 2
#     Edge 63, Type (0, 0), BuildingBlock: TEMPAE_clean_linker_10, # of connection points: 2
#     Edge 64, Type (0, 0), BuildingBlock: TEMPAE_clean_linker_10, # of connection points: 2
#     Edge 65, Type (0, 0), BuildingBlock: TEMPAE_clean_linker_10, # of connection points: 2
#     Edge 66, Type (0, 0), BuildingBlock: TEMPAE_clean_linker_10, # of connection points: 2
#     Edge 67, Type (0, 0), BuildingBlock: TEMPAE_clean_linker_10, # of connection points: 2
#     Edge 68, Type (0, 0), BuildingBlock: TEMPAE_clean_linker_10, # of connection points: 2
#     Edge 69, Type (0, 0), BuildingBlock: TEMPAE_clean_linker_10, # of connection points: 2
#     Edge 70, Type (0, 0), BuildingBlock: TEMPAE_clean_linker_10, # of connection points: 2
#     Edge 71, Type (0, 0), BuildingBlock: TEMPAE_clean_linker_10, # of connection points: 2
# Relax obj value: 0.059
# Max RMSD: 0.041
# Mean RMSD: 0.041
data_MOF--net-umk--node1-QUQFOY_clean_sbu_3--edge1-TEMPAE_clean_linker_10
_symmetry_space_group_name_H-M    P1
_symmetry_Int_Tables_number       1
_symmetry_cell_setting            triclinic
loop_
_symmetry_equiv_pos_as_xyz
'x, y, z'
_cell_length_a     68.638572
_cell_length_b     68.665374
_cell_length_c     45.119985
_cell_angle_alpha  90.00194
_cell_angle_beta   90.016945
_cell_angle_gamma 120.0016
loop_
_atom_site_label
_atom_site_type_symbol
_atom_site_fract_x
_atom_site_fract_y
_atom_site_fract_z
_atom_type_partial_charge
C0 C 0.338 0.47993 0.14165 0.0
O1 O 0.35678 0.49773 0.13772 0.0
Cd2 Cd 0.37618 0.50863 0.09187 0.0
O3 O 0.3269 0.46751 0.11985 0.0
Cd4 Cd 0.32931 0.46893 0.06479 0.0
C5 C 0.37153 0.4578 0.071 0.0
O6 O 0.34959 0.50928 0.05894 0.0
O7 O 0.34861 0.49075 0.02008 0.0
O8 O 0.29145 0.46231 0.06368 0.0
C9 C 0.3548 0.50969 0.03198 0.0
O10 O 0.38339 0.47784 0.08063 0.0
C11 C 0.28368 0.44567 0.04608 0.0
O12 O 0.35098 0.44986 0.06393 0.0
O13 O 0.29721 0.43928 0.03741 0.0
C14 C 0.85279 0.33929 0.64246 0.0
O15 O 0.85348 0.35754 0.63558 0.0
Cd16 Cd 0.8581 0.37197 0.58686 0.0
O17 O 0.85282 0.32604 0.62268 0.0
Cd18 Cd 0.85058 0.32306 0.56764 0.0
C19 C 0.90325 0.36656 0.56296 0.0
O20 O 0.82865 0.34116 0.56127 0.0
O21 O 0.84286 0.33727 0.52097 0.0
O22 O 0.82117 0.28443 0.57267 0.0
C23 C 0.83064 0.34385 0.53355 0.0
O24 O 0.89538 0.37898 0.57144 0.0
C25 C 0.83019 0.27629 0.55595 0.0
O26 O 0.89069 0.3454 0.56032 0.0
O27 O 0.84924 0.29004 0.54495 0.0
C28 C 0.50657 0.849 0.12268 0.0
O29 O 0.48964 0.85077 0.11547 0.0
Cd30 Cd 0.48113 0.8572 0.06661 0.0
O31 O 0.52005 0.84912 0.10315 0.0
Cd32 Cd 0.52231 0.84954 0.04819 0.0
C33 C 0.53296 0.90276 0.04814 0.0
O34 O 0.48255 0.82888 0.03873 0.0
O35 O 0.50233 0.84689 0.00104 0.0
O36 O 0.52968 0.81877 0.05037 0.0
C37 C 0.48301 0.83358 0.01161 0.0
O38 O 0.51193 0.8946 0.05249 0.0
C39 C 0.547 0.82774 0.03393 0.0
O40 O 0.54172 0.89023 0.04776 0.0
O41 O 0.5534 0.84748 0.02453 0.0
C42 C 0.64785 0.52628 0.63604 0.0
O43 O 0.62769 0.51134 0.63035 0.0
Cd44 Cd 0.61262 0.49826 0.58203 0.0
O45 O 0.66188 0.53635 0.61525 0.0
Cd46 Cd 0.66106 0.5362 0.56059 0.0
C47 C 0.619 0.5479 0.55681 0.0
O48 O 0.64127 0.49564 0.55593 0.0
O49 O 0.64401 0.51348 0.51559 0.0
O50 O 0.6991 0.54379 0.5651 0.0
C51 C 0.63799 0.49484 0.52828 0.0
O52 O 0.60576 0.52705 0.56153 0.0
C53 C 0.70744 0.55908 0.54554 0.0
O54 O 0.64026 0.55643 0.55819 0.0
O55 O 0.69413 0.56444 0.5332 0.0
C56 C 0.13655 0.65057 0.14704 0.0
O57 O 0.13498 0.63168 0.14178 0.0
Cd58 Cd 0.12806 0.61489 0.09419 0.0
O59 O 0.13669 0.66309 0.1261 0.0
Cd60 Cd 0.13822 0.66349 0.071 0.0
C61 C 0.08427 0.62253 0.07017 0.0
O62 O 0.1577 0.64267 0.06507 0.0
O63 O 0.1423 0.64585 0.02536 0.0
O64 O 0.17001 0.70117 0.07236 0.0
C65 C 0.15421 0.63877 0.03765 0.0
O66 O 0.09122 0.60957 0.07962 0.0
C67 C 0.16138 0.70979 0.05578 0.0
O68 O 0.09782 0.64332 0.06562 0.0
O69 O 0.14151 0.69679 0.04651 0.0
C70 C 0.47854 0.13351 0.63577 0.0
O71 O 0.4952 0.13126 0.62872 0.0
Cd72 Cd 0.50481 0.12657 0.57969 0.0
O73 O 0.46569 0.13445 0.61611 0.0
Cd74 Cd 0.46491 0.1354 0.56109 0.0
C75 C 0.45386 0.08217 0.55681 0.0
O76 O 0.50507 0.15687 0.55448 0.0
O77 O 0.48689 0.14078 0.51492 0.0
O78 O 0.45662 0.16552 0.56517 0.0
C79 C 0.50568 0.1539 0.52699 0.0
O80 O 0.47474 0.08998 0.56187 0.0
C81 C 0.44074 0.15765 0.54637 0.0
O82 O 0.44522 0.09478 0.5576 0.0
O83 O 0.43538 0.13868 0.53503 0.0
C84 C 0.52232 0.64953 0.84268 0.0
O85 O 0.50731 0.62951 0.84883 0.0
Cd86 Cd 0.49496 0.61519 0.8976 0.0
O87 O 0.5329 0.66373 0.86313 0.0
Cd88 Cd 0.53381 0.66354 0.91786 0.0
C89 C 0.54457 0.62083 0.92189 0.0
O90 O 0.49338 0.64441 0.92371 0.0
O91 O 0.51164 0.64726 0.9636 0.0
O92 O 0.54197 0.70183 0.91368 0.0
C93 C 0.49285 0.64127 0.95135 0.0
O94 O 0.52362 0.60793 0.9174 0.0
C95 C 0.55763 0.71 0.93277 0.0
O96 O 0.5535 0.64212 0.92031 0.0
O97 O 0.56298 0.69651 0.94454 0.0
C98 C 0.84864 0.51249 0.35264 0.0
O99 O 0.85004 0.49498 0.35705 0.0
Cd100 Cd 0.85668 0.48369 0.40371 0.0
O101 O 0.84866 0.52453 0.37417 0.0
Cd102 Cd 0.84728 0.52216 0.42927 0.0
C103 C 0.90112 0.53442 0.42848 0.0
O104 O 0.82712 0.48179 0.43298 0.0
O105 O 0.84253 0.49879 0.47357 0.0
O106 O 0.81593 0.52872 0.42888 0.0
C107 C 0.8303 0.48033 0.46025 0.0
O108 O 0.89384 0.51461 0.41844 0.0
C109 C 0.82461 0.54545 0.44634 0.0
O110 O 0.88779 0.5418 0.43393 0.0
O111 O 0.84434 0.55176 0.45575 0.0
C112 C 0.32364 0.85433 0.84235 0.0
O113 O 0.34336 0.85717 0.84379 0.0
Cd114 Cd 0.36604 0.86687 0.88672 0.0
O115 O 0.31336 0.85511 0.86543 0.0
Cd116 Cd 0.32046 0.85737 0.91992 0.0
C117 C 0.36091 0.91139 0.91375 0.0
O118 O 0.34162 0.838 0.91941 0.0
O119 O 0.34281 0.85387 0.96082 0.0
O120 O 0.28286 0.82603 0.92361 0.0
C121 C 0.34835 0.84173 0.94593 0.0
O122 O 0.37278 0.90408 0.90164 0.0
C123 C 0.27638 0.83422 0.94399 0.0
O124 O 0.3408 0.89803 0.9219 0.0
O125 O 0.29051 0.85381 0.95312 0.0
C126 C 0.47029 0.34025 0.34627 0.0
O127 O 0.48504 0.36062 0.35104 0.0
Cd128 Cd 0.49935 0.37748 0.39783 0.0
O129 O 0.46147 0.32632 0.36755 0.0
Cd130 Cd 0.46451 0.32765 0.42256 0.0
C131 C 0.44887 0.36699 0.42749 0.0
O132 O 0.50501 0.35079 0.42446 0.0
O133 O 0.48832 0.34624 0.46624 0.0
O134 O 0.46028 0.29052 0.4226 0.0
C135 C 0.50669 0.35441 0.45205 0.0
O136 O 0.46832 0.38094 0.41761 0.0
C137 C 0.44383 0.28193 0.44052 0.0
O138 O 0.44261 0.34625 0.43047 0.0
O139 O 0.43656 0.2946 0.44973 0.0
C140 C 0.13018 0.47014 0.85043 0.0
O141 O 0.12882 0.48756 0.85583 0.0
Cd142 Cd 0.12252 0.49798 0.90322 0.0
O143 O 0.13025 0.45767 0.87132 0.0
Cd144 Cd 0.13201 0.45923 0.92661 0.0
C145 C 0.07824 0.44677 0.92723 0.0
O146 O 0.15235 0.49964 0.93155 0.0
O147 O 0.13682 0.48189 0.97166 0.0
O148 O 0.16348 0.45301 0.92302 0.0
C149 C 0.14923 0.50058 0.95896 0.0
O150 O 0.08567 0.46678 0.9179 0.0
C151 C 0.15635 0.43718 0.94183 0.0
O152 O 0.09142 0.43907 0.93187 0.0
O153 O 0.13717 0.43091 0.95322 0.0
C154 C 0.66296 0.14505 0.34714 0.0
O155 O 0.64399 0.14376 0.35056 0.0
Cd156 Cd 0.6231 0.13433 0.3952 0.0
O157 O 0.6734 0.1428 0.36904 0.0
Cd158 Cd 0.6689 0.13932 0.42384 0.0
C159 C 0.62554 0.0868 0.4154 0.0
O160 O 0.64984 0.16051 0.42879 0.0
O161 O 0.64922 0.14259 0.46801 0.0
O162 O 0.70743 0.16872 0.42672 0.0
C163 C 0.64387 0.15579 0.4555 0.0
O164 O 0.61431 0.0957 0.40583 0.0
C165 C 0.71375 0.15875 0.44467 0.0
O166 O 0.64608 0.0988 0.42284 0.0
O167 O 0.69903 0.13909 0.45283 0.0
C168 C 0.65643 0.50804 0.84698 0.0
O169 O 0.63697 0.49075 0.84823 0.0
Cd170 Cd 0.61401 0.47835 0.89099 0.0
O171 O 0.66639 0.51912 0.87022 0.0
Cd172 Cd 0.66005 0.51444 0.92482 0.0
C173 C 0.62075 0.52937 0.91583 0.0
O174 O 0.63757 0.47416 0.92536 0.0
O175 O 0.63663 0.48993 0.96596 0.0
O176 O 0.69662 0.51829 0.93094 0.0
C177 C 0.63035 0.47187 0.9516 0.0
O178 O 0.60871 0.51018 0.90378 0.0
C179 C 0.70408 0.53463 0.94901 0.0
O180 O 0.64047 0.53556 0.92525 0.0
O181 O 0.69097 0.54199 0.95583 0.0
C182 C 0.1167 0.64788 0.36352 0.0
O183 O 0.11176 0.62823 0.37164 0.0
Cd184 Cd 0.11122 0.61681 0.42161 0.0
O185 O 0.12117 0.66331 0.38246 0.0
Cd186 Cd 0.12204 0.66661 0.4371 0.0
C187 C 0.06829 0.62488 0.44415 0.0
O188 O 0.14299 0.64746 0.44426 0.0
O189 O 0.12843 0.6517 0.48403 0.0
O190 O 0.15249 0.70414 0.42801 0.0
C191 C 0.14096 0.64526 0.47205 0.0
O192 O 0.07595 0.61149 0.44134 0.0
C193 C 0.14661 0.71387 0.44693 0.0
O194 O 0.08094 0.64602 0.44073 0.0
O195 O 0.12845 0.70158 0.46098 0.0
C196 C 0.47036 0.12691 0.85521 0.0
O197 O 0.48484 0.12197 0.86441 0.0
Cd198 Cd 0.49516 0.12137 0.9147 0.0
O199 O 0.45905 0.13164 0.87325 0.0
Cd200 Cd 0.45559 0.13229 0.92782 0.0
C201 C 0.44364 0.07838 0.93472 0.0
O202 O 0.49535 0.15257 0.93762 0.0
O203 O 0.47501 0.13749 0.9761 0.0
O204 O 0.44849 0.16323 0.92319 0.0
C205 C 0.49449 0.14982 0.96535 0.0
O206 O 0.46471 0.08576 0.93299 0.0
C207 C 0.43061 0.1544 0.93858 0.0
O208 O 0.43558 0.09135 0.93096 0.0
O209 O 0.42382 0.13471 0.94846 0.0
C210 C 0.33928 0.46224 0.35547 0.0
O211 O 0.36004 0.47508 0.36096 0.0
Cd212 Cd 0.37563 0.49289 0.40726 0.0
O213 O 0.3246 0.45655 0.37588 0.0
Cd214 Cd 0.32604 0.4627 0.43005 0.0
C215 C 0.36304 0.44523 0.44437 0.0
O216 O 0.34965 0.50303 0.42625 0.0
O217 O 0.34564 0.49008 0.47053 0.0
O218 O 0.2894 0.45946 0.42603 0.0
C219 C 0.35305 0.50708 0.45364 0.0
O220 O 0.37831 0.46496 0.43722 0.0
C221 C 0.28039 0.4453 0.44686 0.0
O222 O 0.34233 0.43891 0.44074 0.0
O223 O 0.29257 0.43871 0.45961 0.0
C224 C 0.86636 0.34409 0.8607 0.0
O225 O 0.87233 0.36405 0.86862 0.0
Cd226 Cd 0.8719 0.37576 0.91822 0.0
O227 O 0.86005 0.32837 0.87971 0.0
Cd228 Cd 0.85693 0.32513 0.93426 0.0
C229 C 0.91156 0.36408 0.94405 0.0
O230 O 0.83814 0.34664 0.93938 0.0
O231 O 0.85065 0.34114 0.98022 0.0
O232 O 0.82476 0.28828 0.92604 0.0
C233 C 0.83942 0.34871 0.96722 0.0
O234 O 0.90552 0.3787 0.94052 0.0
C235 C 0.83031 0.27806 0.94465 0.0
O236 O 0.89774 0.34322 0.94023 0.0
O237 O 0.84889 0.28973 0.95813 0.0
C238 C 0.51724 0.86785 0.34029 0.0
O239 O 0.50276 0.87329 0.34774 0.0
Cd240 Cd 0.49148 0.87486 0.39728 0.0
O241 O 0.5281 0.86368 0.35974 0.0
Cd242 Cd 0.53055 0.86499 0.41441 0.0
C243 C 0.54168 0.9186 0.4193 0.0
O244 O 0.4904 0.84383 0.42224 0.0
O245 O 0.50965 0.85962 0.46134 0.0
O246 O 0.53885 0.83488 0.41061 0.0
C247 C 0.49056 0.84665 0.44992 0.0
O248 O 0.5206 0.91078 0.41657 0.0
C249 C 0.55548 0.84329 0.42827 0.0
O250 O 0.55027 0.90601 0.41636 0.0
O251 O 0.56116 0.86252 0.43901 0.0
C252 C 0.46865 0.32854 0.12962 0.0
O253 O 0.48651 0.34641 0.12234 0.0
Cd254 Cd 0.49497 0.36268 0.0743 0.0
O255 O 0.45373 0.31679 0.11039 0.0
Cd256 Cd 0.44948 0.31685 0.05566 0.0
C257 C 0.44556 0.36344 0.06115 0.0
O258 O 0.48859 0.33191 0.04442 0.0
O259 O 0.4693 0.33341 0.00811 0.0
O260 O 0.43745 0.27757 0.05885 0.0
C261 C 0.48819 0.33697 0.01763 0.0
O262 O 0.46689 0.37403 0.06421 0.0
C263 C 0.42133 0.27085 0.04054 0.0
O264 O 0.43439 0.34205 0.05977 0.0
O265 O 0.41743 0.28569 0.0298 0.0
C266 C 0.1117 0.46219 0.6362 0.0
O267 O 0.10481 0.47604 0.63205 0.0
Cd268 Cd 0.10651 0.49474 0.58668 0.0
O269 O 0.11957 0.45607 0.61488 0.0
Cd270 Cd 0.12363 0.46294 0.56095 0.0
C271 C 0.06922 0.44758 0.55011 0.0
O272 O 0.14129 0.50342 0.56446 0.0
O273 O 0.13069 0.49008 0.52065 0.0
O274 O 0.15658 0.45894 0.5635 0.0
C275 C 0.14081 0.50725 0.53716 0.0
O276 O 0.07461 0.46745 0.55797 0.0
C277 C 0.15105 0.44502 0.5423 0.0
O278 O 0.08311 0.44048 0.55213 0.0
O279 O 0.13218 0.43881 0.52999 0.0
C280 C 0.65031 0.12167 0.13792 0.0
O281 O 0.6298 0.11654 0.13691 0.0
Cd282 Cd 0.6085 0.11243 0.09374 0.0
O283 O 0.6619 0.12549 0.11437 0.0
Cd284 Cd 0.65521 0.12513 0.06014 0.0
C285 C 0.61516 0.07022 0.06305 0.0
O286 O 0.63291 0.14331 0.06321 0.0
O287 O 0.63305 0.12969 0.02039 0.0
O288 O 0.69197 0.15803 0.05789 0.0
C289 C 0.62684 0.14078 0.03638 0.0
O290 O 0.6028 0.07685 0.07532 0.0
C291 C 0.69965 0.15109 0.03744 0.0
O292 O 0.63541 0.08406 0.05576 0.0
O293 O 0.68663 0.13142 0.02749 0.0
C294 C 0.51111 0.66399 0.62774 0.0
O295 O 0.49285 0.64603 0.62209 0.0
Cd296 Cd 0.48346 0.62817 0.57521 0.0
O297 O 0.5249 0.67535 0.60719 0.0
Cd298 Cd 0.52584 0.67525 0.55191 0.0
C299 C 0.53447 0.63155 0.55747 0.0
O300 O 0.48597 0.65664 0.54333 0.0
O301 O 0.50526 0.65721 0.50565 0.0
O302 O 0.53439 0.71373 0.55238 0.0
C303 C 0.4861 0.6515 0.51648 0.0
O304 O 0.51396 0.62008 0.56553 0.0
C305 C 0.55142 0.72123 0.53547 0.0
O306 O 0.5435 0.6524 0.55155 0.0
O307 O 0.55711 0.70722 0.52654 0.0
C308 C 0.87292 0.52741 0.13929 0.0
O309 O 0.87889 0.51298 0.13406 0.0
Cd310 Cd 0.87796 0.49714 0.08666 0.0
O311 O 0.86665 0.53549 0.11839 0.0
Cd312 Cd 0.86393 0.53201 0.06396 0.0
C313 C 0.918 0.54567 0.05508 0.0
O314 O 0.84424 0.49135 0.06397 0.0
O315 O 0.85624 0.50642 0.02131 0.0
O316 O 0.83277 0.53853 0.07005 0.0
C317 C 0.845 0.48863 0.0364 0.0
O318 O 0.91146 0.52524 0.0613 0.0
C319 C 0.83802 0.55243 0.04888 0.0
O320 O 0.90475 0.55355 0.05729 0.0
O321 O 0.85604 0.55753 0.03493 0.0
C322 C 0.33591 0.8632 0.6313 0.0
O323 O 0.3556 0.86613 0.62841 0.0
Cd324 Cd 0.37486 0.86989 0.58333 0.0
O325 O 0.32376 0.86096 0.60877 0.0
Cd326 Cd 0.32699 0.86047 0.55392 0.0
C327 C 0.36942 0.9143 0.55709 0.0
O328 O 0.34799 0.84102 0.55252 0.0
O329 O 0.3465 0.8556 0.51106 0.0
O330 O 0.28963 0.82847 0.55348 0.0
C331 C 0.35317 0.84411 0.52536 0.0
O332 O 0.38131 0.90646 0.56763 0.0
C333 C 0.28136 0.83639 0.53517 0.0
O334 O 0.34875 0.90151 0.55057 0.0
O335 O 0.29438 0.85617 0.52558 0.0
C336 C 0.31755 0.4502 0.17988 0.0
C337 C 0.33002 0.47302 0.17222 0.0
C338 C 0.31371 0.4436 0.20976 0.0
C339 C 0.32237 0.46027 0.23215 0.0
C340 C 0.33318 0.48331 0.22431 0.0
C341 C 0.33701 0.48939 0.19442 0.0
C342 C 0.30199 0.41888 0.21725 0.0
C343 C 0.34227 0.50165 0.2475 0.0
C344 C 0.31151 0.45286 0.3145 0.0
C345 C 0.33223 0.45596 0.32445 0.0
C346 C 0.30696 0.4521 0.28405 0.0
C347 C 0.32345 0.45428 0.26342 0.0
C348 C 0.34329 0.4549 0.27352 0.0
C349 C 0.34752 0.45592 0.30396 0.0
C350 C 0.28551 0.45115 0.27412 0.0
C351 C 0.36109 0.45669 0.25221 0.0
H352 H 0.31207 0.43751 0.16268 0.0
H353 H 0.34632 0.50705 0.18846 0.0
H354 H 0.31477 0.41411 0.22297 0.0
H355 H 0.29079 0.41505 0.23673 0.0
H356 H 0.29192 0.40833 0.19828 0.0
H357 H 0.34786 0.5185 0.23778 0.0
H358 H 0.32931 0.49821 0.26456 0.0
H359 H 0.35685 0.50212 0.25884 0.0
H360 H 0.29958 0.45274 0.33034 0.0
H361 H 0.36336 0.45787 0.31167 0.0
H362 H 0.27856 0.44052 0.25406 0.0
H363 H 0.28913 0.46835 0.26835 0.0
H364 H 0.27253 0.44451 0.29184 0.0
H365 H 0.35334 0.44441 0.23387 0.0
H366 H 0.37382 0.45374 0.26335 0.0
H367 H 0.36986 0.47377 0.24229 0.0
C368 C 0.86493 0.32444 0.68472 0.0
C369 C 0.85227 0.33379 0.674 0.0
C370 C 0.86718 0.32247 0.71534 0.0
C371 C 0.85605 0.32956 0.73531 0.0
C372 C 0.84186 0.33739 0.72436 0.0
C373 C 0.84041 0.3397 0.6938 0.0
C374 C 0.88265 0.31432 0.72625 0.0
C375 C 0.82927 0.3446 0.74494 0.0
C376 C 0.85034 0.31781 0.81776 0.0
C377 C 0.86587 0.33908 0.82889 0.0
C378 C 0.84771 0.31392 0.7871 0.0
C379 C 0.86123 0.33165 0.76741 0.0
C380 C 0.87805 0.35263 0.77868 0.0
C381 C 0.88 0.35617 0.80932 0.0
C382 C 0.82946 0.29142 0.77585 0.0
C383 C 0.89312 0.37182 0.75837 0.0
H384 H 0.87413 0.31992 0.66928 0.0
H385 H 0.83036 0.34665 0.68537 0.0
H386 H 0.8983 0.32879 0.73503 0.0
H387 H 0.87475 0.30211 0.74463 0.0
H388 H 0.88727 0.3063 0.7083 0.0
H389 H 0.81688 0.3476 0.73291 0.0
H390 H 0.82025 0.33164 0.7622 0.0
H391 H 0.84137 0.36038 0.7564 0.0
H392 H 0.83941 0.30457 0.83292 0.0
H393 H 0.89226 0.37252 0.81795 0.0
H394 H 0.83575 0.28539 0.7574 0.0
H395 H 0.81533 0.29322 0.76707 0.0
H396 H 0.82284 0.27849 0.79361 0.0
H397 H 0.90039 0.36595 0.74095 0.0
H398 H 0.90709 0.38597 0.77057 0.0
H399 H 0.88309 0.37824 0.7471 0.0
C400 C 0.52518 0.84886 0.29874 0.0
C401 C 0.52079 0.86564 0.30862 0.0
C402 C 0.52559 0.84478 0.26832 0.0
C403 C 0.52204 0.85817 0.2476 0.0
C404 C 0.51913 0.8761 0.25758 0.0
C405 C 0.51822 0.87941 0.28801 0.0
C406 C 0.52837 0.8253 0.25849 0.0
C407 C 0.51584 0.89113 0.23614 0.0
C408 C 0.53314 0.85966 0.16522 0.0
C409 C 0.51109 0.84802 0.15432 0.0
C410 C 0.53723 0.8621 0.19586 0.0
C411 C 0.51882 0.85219 0.21572 0.0
C412 C 0.49669 0.83882 0.20468 0.0
C413 C 0.49306 0.83718 0.17405 0.0
C414 C 0.56102 0.8767 0.20682 0.0
C415 C 0.47665 0.82747 0.22517 0.0
H416 H 0.5271 0.83817 0.31476 0.0
H417 H 0.51512 0.89257 0.29573 0.0
H418 H 0.512 0.81156 0.2502 0.0
H419 H 0.54059 0.83034 0.23999 0.0
H420 H 0.53408 0.81859 0.27688 0.0
H421 H 0.51642 0.90581 0.24737 0.0
H422 H 0.52898 0.89737 0.21868 0.0
H423 H 0.49928 0.88138 0.225 0.0
H424 H 0.54707 0.86809 0.14986 0.0
H425 H 0.47603 0.82792 0.16551 0.0
H426 H 0.56458 0.86867 0.22578 0.0
H427 H 0.56315 0.89295 0.21479 0.0
H428 H 0.5736 0.88024 0.18911 0.0
H429 H 0.47994 0.81851 0.24321 0.0
H430 H 0.46112 0.81526 0.21326 0.0
H431 H 0.47362 0.84035 0.23561 0.0
C432 C 0.67462 0.53875 0.80987 0.0
C433 C 0.66625 0.51619 0.81758 0.0
C434 C 0.67757 0.54525 0.77996 0.0
C435 C 0.67228 0.52878 0.75774 0.0
C436 C 0.66668 0.50666 0.76583 0.0
C437 C 0.66343 0.50055 0.79573 0.0
C438 C 0.68386 0.56905 0.7722 0.0
C439 C 0.66156 0.48873 0.74285 0.0
C440 C 0.63931 0.5257 0.68958 0.0
C441 C 0.65525 0.53087 0.66719 0.0
C442 C 0.64522 0.52677 0.71942 0.0
C443 C 0.66758 0.53283 0.727 0.0
C444 C 0.68414 0.53958 0.70462 0.0
C445 C 0.67778 0.53862 0.67483 0.0
C446 C 0.6271 0.51988 0.74269 0.0
C447 C 0.70814 0.54621 0.71182 0.0
H448 H 0.67682 0.55083 0.8269 0.0
H449 H 0.65724 0.48316 0.80191 0.0
H450 H 0.69499 0.57507 0.75248 0.0
H451 H 0.66838 0.56961 0.76677 0.0
H452 H 0.69242 0.58074 0.79097 0.0
H453 H 0.66121 0.4737 0.7526 0.0
H454 H 0.64486 0.48337 0.73281 0.0
H455 H 0.67422 0.49537 0.72481 0.0
H456 H 0.62197 0.5201 0.68372 0.0
H457 H 0.69019 0.54271 0.65752 0.0
H458 H 0.63291 0.53246 0.76084 0.0
H459 H 0.62331 0.50355 0.75253 0.0
H460 H 0.61127 0.51804 0.73339 0.0
H461 H 0.71386 0.55624 0.73252 0.0
H462 H 0.71977 0.55604 0.69354 0.0
H463 H 0.70927 0.5308 0.71523 0.0
C464 C 0.10523 0.63582 0.31155 0.0
C465 C 0.11835 0.65296 0.33164 0.0
C466 C 0.10845 0.63939 0.281 0.0
C467 C 0.1256 0.66046 0.27039 0.0
C468 C 0.13813 0.67822 0.29053 0.0
C469 C 0.13418 0.6743 0.32106 0.0
C470 C 0.09435 0.62017 0.26018 0.0
C471 C 0.15672 0.7008 0.28004 0.0
C472 C 0.14864 0.65189 0.19902 0.0
C473 C 0.13711 0.65731 0.17804 0.0
C474 C 0.14655 0.65479 0.2293 0.0
C475 C 0.13201 0.66263 0.23871 0.0
C476 C 0.12139 0.66942 0.21751 0.0
C477 C 0.12429 0.66691 0.18723 0.0
C478 C 0.15868 0.64794 0.25122 0.0
C479 C 0.10557 0.6776 0.22673 0.0
H480 H 0.09276 0.6194 0.31976 0.0
H481 H 0.14437 0.68756 0.33665 0.0
H482 H 0.08766 0.62593 0.24188 0.0
H483 H 0.10496 0.61394 0.25011 0.0
H484 H 0.08001 0.60591 0.27169 0.0
H485 H 0.16236 0.71375 0.29774 0.0
H486 H 0.17134 0.69918 0.27299 0.0
H487 H 0.15122 0.70669 0.26057 0.0
H488 H 0.15878 0.64472 0.19176 0.0
H489 H 0.11533 0.67102 0.17088 0.0
H490 H 0.14637 0.63206 0.26229 0.0
H491 H 0.16688 0.66094 0.26866 0.0
H492 H 0.17166 0.64524 0.24036 0.0
H493 H 0.08956 0.6631 0.23464 0.0
H494 H 0.1017 0.68569 0.20808 0.0
H495 H 0.11273 0.68974 0.24532 0.0
C496 C 0.4698 0.11243 0.80473 0.0
C497 C 0.46683 0.12716 0.8231 0.0
C498 C 0.46845 0.11352 0.77391 0.0
C499 C 0.46463 0.13016 0.7612 0.0
C500 C 0.46074 0.14454 0.77967 0.0
C501 C 0.46162 0.14267 0.81058 0.0
C502 C 0.47216 0.09752 0.75496 0.0
C503 C 0.45701 0.16272 0.76686 0.0
C504 C 0.49247 0.14728 0.68638 0.0
C505 C 0.47427 0.13509 0.66731 0.0
C506 C 0.48924 0.14718 0.71698 0.0
C507 C 0.46734 0.13393 0.72876 0.0
C508 C 0.44872 0.12233 0.70947 0.0
C509 C 0.4524 0.12331 0.67876 0.0
C510 C 0.50945 0.16027 0.73677 0.0
C511 C 0.42521 0.1077 0.72129 0.0
H512 H 0.47348 0.10019 0.81449 0.0
H513 H 0.45934 0.15408 0.82486 0.0
H514 H 0.45886 0.08972 0.73779 0.0
H515 H 0.48854 0.10691 0.74334 0.0
H516 H 0.47223 0.08393 0.76826 0.0
H517 H 0.45145 0.17055 0.78395 0.0
H518 H 0.47295 0.17603 0.75697 0.0
H519 H 0.44429 0.1559 0.74889 0.0
H520 H 0.50935 0.15662 0.67734 0.0
H521 H 0.43837 0.11384 0.66386 0.0
H522 H 0.51303 0.14844 0.74914 0.0
H523 H 0.50604 0.17015 0.75331 0.0
H524 H 0.52473 0.17194 0.72399 0.0
H525 H 0.42396 0.09247 0.73169 0.0
H526 H 0.41232 0.1023 0.70353 0.0
H527 H 0.42133 0.11668 0.73867 0.0
C528 C 0.49979 0.66539 0.67945 0.0
C529 C 0.51695 0.67036 0.65895 0.0
C530 C 0.50404 0.66677 0.70991 0.0
C531 C 0.52586 0.67273 0.71997 0.0
C532 C 0.54366 0.6795 0.69939 0.0
C533 C 0.53901 0.67842 0.66894 0.0
C534 C 0.48471 0.65998 0.73119 0.0
C535 C 0.5671 0.68586 0.70929 0.0
C536 C 0.53349 0.67878 0.8033 0.0
C537 C 0.52658 0.65653 0.8114 0.0
C538 C 0.5345 0.68477 0.77336 0.0
C539 C 0.52883 0.66816 0.75126 0.0
C540 C 0.52337 0.64608 0.75936 0.0
C541 C 0.52208 0.64048 0.78937 0.0
C542 C 0.54019 0.7084 0.76555 0.0
C543 C 0.51766 0.62798 0.7364 0.0
H544 H 0.48279 0.65943 0.67163 0.0
H545 H 0.55227 0.68222 0.65301 0.0
H546 H 0.47966 0.64317 0.74055 0.0
H547 H 0.48984 0.67202 0.74993 0.0
H548 H 0.46982 0.65912 0.72018 0.0
H549 H 0.5797 0.69463 0.6915 0.0
H550 H 0.57209 0.69683 0.72916 0.0
H551 H 0.56749 0.67041 0.71543 0.0
H552 H 0.53695 0.69121 0.82037 0.0
H553 H 0.51704 0.62335 0.79563 0.0
H554 H 0.52462 0.70834 0.75876 0.0
H555 H 0.55202 0.7149 0.74657 0.0
H556 H 0.54772 0.7201 0.78458 0.0
H557 H 0.5014 0.62355 0.72571 0.0
H558 H 0.51621 0.61246 0.74619 0.0
H559 H 0.53068 0.63415 0.7188 0.0
C560 C 0.86078 0.54204 0.31364 0.0
C561 C 0.84833 0.51937 0.32191 0.0
C562 C 0.86448 0.54812 0.28359 0.0
C563 C 0.85518 0.53108 0.2617 0.0
C564 C 0.84078 0.50842 0.27011 0.0
C565 C 0.83775 0.50282 0.30017 0.0
C566 C 0.87986 0.57244 0.27545 0.0
C567 C 0.83006 0.48979 0.24743 0.0
C568 C 0.8552 0.53882 0.17882 0.0
C569 C 0.87149 0.5333 0.17026 0.0
C570 C 0.85076 0.54003 0.20892 0.0
C571 C 0.86314 0.53591 0.23063 0.0
C572 C 0.88108 0.53256 0.22197 0.0
C573 C 0.88489 0.53108 0.19184 0.0
C574 C 0.83157 0.54372 0.2173 0.0
C575 C 0.89505 0.52863 0.24448 0.0
H576 H 0.86895 0.55483 0.33056 0.0
H577 H 0.82783 0.48531 0.30669 0.0
H578 H 0.89679 0.57506 0.27015 0.0
H579 H 0.87364 0.57712 0.25553 0.0
H580 H 0.88163 0.5839 0.29394 0.0
H581 H 0.81707 0.47369 0.25741 0.0
H582 H 0.82216 0.49447 0.22944 0.0
H583 H 0.84319 0.48702 0.23722 0.0
H584 H 0.84488 0.54065 0.16211 0.0
H585 H 0.89778 0.52723 0.18519 0.0
H586 H 0.8358 0.55463 0.23716 0.0
H587 H 0.81659 0.5273 0.2228 0.0
H588 H 0.82701 0.55142 0.19887 0.0
H589 H 0.90054 0.54125 0.26253 0.0
H590 H 0.91018 0.52942 0.23435 0.0
H591 H 0.88473 0.51176 0.25462 0.0
C592 C 0.30437 0.84997 0.668 0.0
C593 C 0.32739 0.8626 0.66143 0.0
C594 C 0.29684 0.84727 0.6975 0.0
C595 C 0.31276 0.85762 0.72056 0.0
C596 C 0.33579 0.87182 0.71362 0.0
C597 C 0.3428 0.87399 0.68418 0.0
C598 C 0.27214 0.8322 0.70394 0.0
C599 C 0.35337 0.88357 0.73744 0.0
C600 C 0.30635 0.86501 0.80169 0.0
C601 C 0.31309 0.85035 0.8131 0.0
C602 C 0.30309 0.86571 0.77105 0.0
C603 C 0.3066 0.85134 0.75201 0.0
C604 C 0.31019 0.8344 0.76418 0.0
C605 C 0.31373 0.83433 0.79466 0.0
C606 C 0.29866 0.88359 0.75891 0.0
C607 C 0.31336 0.81828 0.74476 0.0
H608 H 0.29239 0.84128 0.65035 0.0
H609 H 0.36056 0.8842 0.67903 0.0
H610 H 0.2689 0.81502 0.70896 0.0
H611 H 0.26677 0.8382 0.72342 0.0
H612 H 0.26163 0.83107 0.68456 0.0
H613 H 0.37014 0.89559 0.72807 0.0
H614 H 0.34826 0.89289 0.75265 0.0
H615 H 0.35507 0.87092 0.75079 0.0
H616 H 0.30577 0.87731 0.81617 0.0
H617 H 0.31864 0.8228 0.80379 0.0
H618 H 0.28758 0.87741 0.73914 0.0
H619 H 0.31484 0.89835 0.75203 0.0
H620 H 0.29081 0.88924 0.77585 0.0
H621 H 0.30075 0.81174 0.72665 0.0
H622 H 0.31197 0.80384 0.75761 0.0
H623 H 0.33031 0.82727 0.73445 0.0
C624 C 0.46511 0.34848 0.29439 0.0
C625 C 0.46382 0.3329 0.31541 0.0
C626 C 0.46196 0.34307 0.26427 0.0
C627 C 0.45784 0.32166 0.25492 0.0
C628 C 0.45518 0.30535 0.27619 0.0
C629 C 0.45805 0.31114 0.30639 0.0
C630 C 0.46448 0.36083 0.24234 0.0
C631 C 0.45086 0.28239 0.26702 0.0
C632 C 0.44335 0.31222 0.17343 0.0
C633 C 0.46496 0.32218 0.16111 0.0
C634 C 0.44037 0.31015 0.20429 0.0
C635 C 0.45945 0.31791 0.22289 0.0
C636 C 0.48102 0.3259 0.21028 0.0
C637 C 0.48353 0.32817 0.17952 0.0
C638 C 0.41713 0.30152 0.21693 0.0
C639 C 0.50174 0.33388 0.22933 0.0
H640 H 0.46919 0.36521 0.30145 0.0
H641 H 0.45702 0.29907 0.32271 0.0
H642 H 0.48024 0.36674 0.2295 0.0
H643 H 0.4503 0.35373 0.22635 0.0
H644 H 0.46512 0.37559 0.25341 0.0
H645 H 0.44502 0.27043 0.28592 0.0
H646 H 0.43816 0.27534 0.24903 0.0
H647 H 0.46667 0.28387 0.25832 0.0
H648 H 0.42896 0.3075 0.15913 0.0
H649 H 0.50021 0.33549 0.16991 0.0
H650 H 0.41549 0.31597 0.22472 0.0
H651 H 0.41424 0.29043 0.23627 0.0
H652 H 0.40383 0.29212 0.20014 0.0
H653 H 0.50592 0.3501 0.23992 0.0
H654 H 0.51654 0.33642 0.21623 0.0
H655 H 0.49866 0.32162 0.24727 0.0
C656 C 0.09715 0.45459 0.68772 0.0
C657 C 0.11213 0.45466 0.66663 0.0
C658 C 0.09994 0.45187 0.71784 0.0
C659 C 0.11843 0.44959 0.72703 0.0
C660 C 0.13235 0.44753 0.70562 0.0
C661 C 0.12894 0.44997 0.67548 0.0
C662 C 0.08435 0.45359 0.73995 0.0
C663 C 0.15208 0.44489 0.71456 0.0
C664 C 0.14092 0.4814 0.79827 0.0
C665 C 0.13084 0.4642 0.81929 0.0
C666 C 0.13858 0.47657 0.76798 0.0
C667 C 0.12546 0.45396 0.75852 0.0
C668 C 0.11664 0.43636 0.77965 0.0
C669 C 0.11957 0.44171 0.80999 0.0
C670 C 0.14872 0.49585 0.74617 0.0
C671 C 0.10266 0.41207 0.7704 0.0
H672 H 0.08384 0.45774 0.6808 0.0
H673 H 0.14046 0.44985 0.65913 0.0
H674 H 0.07915 0.44042 0.75723 0.0
H675 H 0.09329 0.47018 0.75119 0.0
H676 H 0.06902 0.45192 0.7292 0.0
H677 H 0.15796 0.43855 0.69593 0.0
H678 H 0.16622 0.46148 0.72149 0.0
H679 H 0.14774 0.43326 0.73365 0.0
H680 H 0.14998 0.49878 0.80554 0.0
H681 H 0.11181 0.42839 0.82632 0.0
H682 H 0.13511 0.49762 0.73551 0.0
H683 H 0.15785 0.49253 0.72842 0.0
H684 H 0.16056 0.51207 0.75701 0.0
H685 H 0.08537 0.40839 0.76504 0.0
H686 H 0.10153 0.40048 0.78835 0.0
H687 H 0.10966 0.40857 0.75026 0.0
C688 C 0.66517 0.1576 0.29522 0.0
C689 C 0.67188 0.14755 0.31686 0.0
C690 C 0.6688 0.15567 0.26519 0.0
C691 C 0.67918 0.14315 0.25667 0.0
C692 C 0.68835 0.13527 0.27853 0.0
C693 C 0.68459 0.13759 0.3086 0.0
C694 C 0.65923 0.16486 0.2426 0.0
C695 C 0.7001 0.12245 0.27031 0.0
C696 C 0.6475 0.10993 0.19014 0.0
C697 C 0.66065 0.12404 0.16717 0.0
C698 C 0.65473 0.11465 0.21953 0.0
C699 C 0.67547 0.13424 0.22603 0.0
C700 C 0.68989 0.14723 0.20266 0.0
C701 C 0.68229 0.1419 0.17325 0.0
C702 C 0.63903 0.09996 0.24372 0.0
C703 C 0.71232 0.16792 0.20867 0.0
H704 H 0.65585 0.16583 0.30169 0.0
H705 H 0.69007 0.13007 0.32538 0.0
H706 H 0.67151 0.17369 0.22457 0.0
H707 H 0.64393 0.15076 0.23248 0.0
H708 H 0.65456 0.17673 0.25268 0.0
H709 H 0.71151 0.1232 0.2883 0.0
H710 H 0.68735 0.10453 0.26656 0.0
H711 H 0.70994 0.12905 0.24958 0.0
H712 H 0.63094 0.09583 0.18524 0.0
H713 H 0.69253 0.15271 0.15536 0.0
H714 H 0.63168 0.1091 0.25517 0.0
H715 H 0.6483 0.09592 0.26047 0.0
H716 H 0.62503 0.08395 0.23487 0.0
H717 H 0.70976 0.18244 0.21255 0.0
H718 H 0.72389 0.17203 0.1895 0.0
H719 H 0.72043 0.16576 0.2287 0.0
C720 C 0.19341 0.43904 0.94267 0.0
C721 C 0.17112 0.4288 0.95266 0.0
C722 C 0.20938 0.43567 0.95746 0.0
C723 C 0.20276 0.42135 0.9825 0.0
C724 C 0.17975 0.40878 0.99036 0.0
C725 C 0.16414 0.41285 0.97552 0.0
C726 C 0.23374 0.44935 0.94817 0.0
C727 C 0.1719 0.39249 0.01598 0.0
C728 C 0.25213 0.418 0.01386 0.0
C729 C 0.26067 0.43594 0.03405 0.0
C730 C 0.23188 0.41139 -0.0013 0.0
C731 C 0.22039 0.42343 0.0034 0.0
C732 C 0.22807 0.44037 0.02544 0.0
C733 C 0.24799 0.44623 0.04068 0.0
C734 C 0.2237 0.39259 0.97633 0.0
C735 C 0.21636 0.45369 0.0312 0.0
H736 H 0.19883 0.45107 0.92463 0.0
H737 H 0.14681 0.40451 0.98296 0.0
H738 H 0.24331 0.4623 0.96527 0.0
H739 H 0.24138 0.43849 0.94632 0.0
H740 H 0.23576 0.45798 0.92661 0.0
H741 H 0.15364 0.38007 0.01432 0.0
H742 H 0.18141 0.38336 0.01703 0.0
H743 H 0.17482 0.40188 0.03705 0.0
H744 H 0.26169 0.40971 0.009 0.0
H745 H 0.25432 0.45991 0.05656 0.0
H746 H 0.22998 0.39976 0.95402 0.0
H747 H 0.20505 0.38287 0.97539 0.0
H748 H 0.23004 0.38092 0.98156 0.0
H749 H 0.21768 0.46376 0.01127 0.0
H750 H 0.22373 0.46534 0.05032 0.0
H751 H 0.19824 0.44224 0.03563 0.0
C752 C 0.74286 0.16068 0.48002 0.0
C753 C 0.73638 0.17076 0.45805 0.0
C754 C 0.76222 0.17366 0.49717 0.0
C755 C 0.77477 0.19718 0.49263 0.0
C756 C 0.76955 0.20692 0.46842 0.0
C757 C 0.75056 0.19349 0.45122 0.0
C758 C 0.76806 0.16238 0.52147 0.0
C759 C 0.78254 0.23195 0.46251 0.0
C760 C 0.79468 0.23968 0.55352 0.0
C761 C 0.81754 0.25259 0.54641 0.0
C762 C 0.78069 0.21975 0.53828 0.0
C763 C 0.79 0.21238 0.51592 0.0
C764 C 0.81359 0.22348 0.51197 0.0
C765 C 0.82715 0.2438 0.52696 0.0
C766 C 0.75562 0.20823 0.54361 0.0
C767 C 0.82428 0.21516 0.48994 0.0
H768 H 0.73224 0.14295 0.48493 0.0
H769 H 0.74592 0.20127 0.43378 0.0
H770 H 0.78627 0.17182 0.52689 0.0
H771 H 0.75847 0.16133 0.54177 0.0
H772 H 0.76332 0.14494 0.51504 0.0
H773 H 0.77695 0.23657 0.44191 0.0
H774 H 0.78031 0.24106 0.48134 0.0
H775 H 0.80076 0.2379 0.46053 0.0
H776 H 0.78725 0.24612 0.56911 0.0
H777 H 0.84498 0.2534 0.52203 0.0
H778 H 0.74861 0.18992 0.54676 0.0
H779 H 0.74723 0.21056 0.524 0.0
H780 H 0.75135 0.21501 0.56338 0.0
H781 H 0.81464 0.19654 0.48809 0.0
H782 H 0.8419 0.22055 0.49629 0.0
H783 H 0.82462 0.2223 0.46777 0.0
C784 C 0.5466 0.79154 0.02939 0.0
C785 C 0.55739 0.81464 0.02352 0.0
C786 C 0.5531 0.77771 0.01489 0.0
C787 C 0.57122 0.78733 -0.00549 0.0
C788 C 0.58374 0.81096 0.99094 0.0
C789 C 0.57646 0.82438 0.00521 0.0
C790 C 0.5392 0.75255 0.0194 0.0
C791 C 0.60381 0.82199 0.97055 0.0
C792 C 0.58156 0.74135 0.96772 0.0
C793 C 0.56664 0.73323 0.94365 0.0
C794 C 0.58562 0.76096 0.98271 0.0
C795 C 0.57403 0.77218 0.97373 0.0
C796 C 0.56103 0.76546 0.94744 0.0
C797 C 0.55769 0.74617 0.93255 0.0
C798 C 0.60066 0.76844 0.00964 0.0
C799 C 0.54853 0.77706 0.93684 0.0
H800 H 0.53203 0.78394 0.04383 0.0
H801 H 0.58514 0.84232 0.001 0.0
H802 H 0.53022 0.74442 -0.00145 0.0
H803 H 0.55019 0.74554 0.025 0.0
H804 H 0.52654 0.74795 0.03732 0.0
H805 H 0.61565 0.83954 0.97758 0.0
H806 H 0.61296 0.81248 0.9698 0.0
H807 H 0.59805 0.82259 0.94777 0.0
H808 H 0.58896 0.73169 0.97602 0.0
H809 H 0.54654 0.74026 0.91353 0.0
H810 H 0.59024 0.76162 0.02988 0.0
H811 H 0.6101 0.78705 0.01149 0.0
H812 H 0.61281 0.76223 0.00896 0.0
H813 H 0.5349 0.77381 0.95276 0.0
H814 H 0.54089 0.77109 0.9146 0.0
H815 H 0.55998 0.7955 0.9358 0.0
C816 C 0.73879 0.5817 0.51002 0.0
C817 C 0.73065 0.56763 0.53491 0.0
C818 C 0.75833 0.58511 0.49546 0.0
C819 C 0.76945 0.57375 0.50576 0.0
C820 C 0.76275 0.56173 0.53281 0.0
C821 C 0.74352 0.559 0.54721 0.0
C822 C 0.76581 0.59912 0.46762 0.0
C823 C 0.77428 0.54953 0.5448 0.0
C824 C 0.78817 0.54441 0.45216 0.0
C825 C 0.8114 0.55554 0.45729 0.0
C826 C 0.77449 0.55123 0.46638 0.0
C827 C 0.78438 0.57001 0.4857 0.0
C828 C 0.80805 0.58263 0.48876 0.0
C829 C 0.82133 0.57503 0.47483 0.0
C830 C 0.74928 0.53716 0.46253 0.0
C831 C 0.81933 0.60331 0.50809 0.0
H832 H 0.72918 0.58887 0.50078 0.0
H833 H 0.7376 0.54854 0.56686 0.0
H834 H 0.78443 0.60859 0.46589 0.0
H835 H 0.75913 0.58795 0.44799 0.0
H836 H 0.75949 0.61118 0.46687 0.0
H837 H 0.76848 0.54289 0.5675 0.0
H838 H 0.77073 0.5352 0.53001 0.0
H839 H 0.79276 0.56086 0.54533 0.0
H840 H 0.78043 0.52947 0.43839 0.0
H841 H 0.83936 0.58393 0.47846 0.0
H842 H 0.7422 0.54791 0.4559 0.0
H843 H 0.74139 0.52908 0.48392 0.0
H844 H 0.74443 0.52377 0.44559 0.0
H845 H 0.80986 0.6125 0.5082 0.0
H846 H 0.83682 0.61491 0.50057 0.0
H847 H 0.82017 0.59825 0.53119 0.0
C848 C 0.2407 0.79803 0.94944 0.0
C849 C 0.25437 0.82038 0.95845 0.0
C850 C 0.22234 0.78296 0.96654 0.0
C851 C 0.21728 0.79059 -0.00697 0.0
C852 C 0.2294 0.81371 0.0004 0.0
C853 C 0.24807 0.82838 0.98314 0.0
C854 C 0.20979 0.75844 0.95771 0.0
C855 C 0.22381 0.82265 0.02768 0.0
C856 C 0.1652 0.74287 0.02741 0.0
C857 C 0.17487 0.73314 0.04512 0.0
C858 C 0.17878 0.76327 0.01262 0.0
C859 C 0.20245 0.77364 0.01506 0.0
C860 C 0.21209 0.76491 0.03503 0.0
C861 C 0.19813 0.74487 0.05007 0.0
C862 C 0.16785 0.7727 0.9927 0.0
C863 C 0.23728 0.77543 0.03833 0.0
H864 H 0.24523 0.79184 0.93004 0.0
H865 H 0.25833 0.84578 0.98989 0.0
H866 H 0.21332 0.74847 0.974 0.0
H867 H 0.1914 0.75187 0.95782 0.0
H868 H 0.2147 0.75562 0.93535 0.0
H869 H 0.23002 0.84096 0.02572 0.0
H870 H 0.20539 0.81373 0.03173 0.0
H871 H 0.23197 0.82002 0.04728 0.0
H872 H 0.14715 0.73408 0.02401 0.0
H873 H 0.20567 0.7376 0.06408 0.0
H874 H 0.1674 0.76684 0.96967 0.0
H875 H 0.17746 0.79136 0.99259 0.0
H876 H 0.15027 0.76695 -0.00032 0.0
H877 H 0.24453 0.77342 0.01734 0.0
H878 H 0.24196 0.76764 0.05652 0.0
H879 H 0.24512 0.7937 0.0428 0.0
C880 C 0.41602 0.16399 0.51161 0.0
C881 C 0.43143 0.17152 0.53516 0.0
C882 C 0.41143 0.17901 0.49618 0.0
C883 C 0.42289 0.20199 0.50426 0.0
C884 C 0.43655 0.20908 0.52996 0.0
C885 C 0.44049 0.19367 0.54527 0.0
C886 C 0.39592 0.17064 0.46973 0.0
C887 C 0.44898 0.23344 0.53951 0.0
C888 C 0.447 0.24768 0.44662 0.0
C889 C 0.43525 0.25906 0.45244 0.0
C890 C 0.44197 0.22802 0.46196 0.0
C891 C 0.42445 0.2193 0.48323 0.0
C892 C 0.41107 0.22946 0.48707 0.0
C893 C 0.41681 0.24946 0.47184 0.0
C894 C 0.4567 0.21771 0.45714 0.0
C895 C 0.39168 0.22016 0.50864 0.0
H896 H 0.4086 0.14674 0.50404 0.0
H897 H 0.45209 0.1995 0.56382 0.0
H898 H 0.38597 0.1793 0.46796 0.0
H899 H 0.40604 0.17424 0.44919 0.0
H900 H 0.3842 0.15221 0.47093 0.0
H901 H 0.45706 0.23574 0.56157 0.0
H902 H 0.46227 0.24351 0.52304 0.0
H903 H 0.43739 0.24027 0.54045 0.0
H904 H 0.46111 0.25488 0.4314 0.0
H905 H 0.40742 0.25801 0.47605 0.0
H906 H 0.44623 0.19946 0.45261 0.0
H907 H 0.46658 0.21968 0.47753 0.0
H908 H 0.46862 0.22566 0.43842 0.0
H909 H 0.3827 0.2015 0.50901 0.0
H910 H 0.3795 0.22578 0.50307 0.0
H911 H 0.39818 0.22622 0.53128 0.0
C912 C 0.80132 0.55123 0.05275 0.0
C913 C 0.82218 0.55964 0.0386 0.0
C914 C 0.78373 0.55269 0.03927 0.0
C915 C 0.78727 0.56307 0.01117 0.0
C916 C 0.8091 0.57416 -0.00133 0.0
C917 C 0.82635 0.57216 0.01246 0.0
C918 C 0.76075 0.54082 0.05352 0.0
C919 C 0.8137 0.58623 0.96935 0.0
C920 C 0.7378 0.53145 0.95987 0.0
C921 C 0.72649 0.54359 0.96263 0.0
C922 C 0.75803 0.53819 0.97478 0.0
C923 C 0.76747 0.55786 0.99248 0.0
C924 C 0.75683 0.57095 -0.00595 0.0
C925 C 0.73622 0.56347 0.97937 0.0
C926 C 0.76871 0.52358 0.97267 0.0
C927 C 0.76666 0.59233 0.01202 0.0
H928 H 0.79811 0.54193 0.0733 0.0
H929 H 0.84261 0.57912 0.00171 0.0
H930 H 0.75281 0.55145 0.05265 0.0
H931 H 0.74973 0.5251 0.04113 0.0
H932 H 0.76149 0.53636 0.077 0.0
H933 H 0.83196 0.598 0.96602 0.0
H934 H 0.80763 0.57372 0.9511 0.0
H935 H 0.80459 0.59575 0.96774 0.0
H936 H 0.7304 0.5161 0.9469 0.0
H937 H 0.72761 0.57303 0.98133 0.0
H938 H 0.76921 0.51697 -0.00506 0.0
H939 H 0.7863 0.53364 0.96473 0.0
H940 H 0.75944 0.5091 0.95743 0.0
H941 H 0.76235 0.58808 0.03572 0.0
H942 H 0.75988 0.60327 0.0049 0.0
H943 H 0.78528 0.60195 0.0102 0.0
C944 C 0.1576 0.74731 0.47956 0.0
C945 C 0.16201 0.73761 0.45498 0.0
C946 C 0.17464 0.76752 0.49178 0.0
C947 C 0.1965 0.77783 0.47937 0.0
C948 C 0.2002 0.76947 0.45258 0.0
C949 C 0.18283 0.74953 0.44058 0.0
C950 C 0.1698 0.77662 0.51952 0.0
C951 C 0.2232 0.78004 0.43841 0.0
C952 C 0.24805 0.83128 0.50573 0.0
C953 C 0.25818 0.82232 0.52397 0.0
C954 C 0.22696 0.81723 0.49263 0.0
C955 C 0.21625 0.79371 0.4973 0.0
C956 C 0.22596 0.7848 0.51686 0.0
C957 C 0.24665 0.79924 0.53018 0.0
C958 C 0.2168 0.82749 0.47278 0.0
C959 C 0.21524 0.75979 0.52234 0.0
H960 H 0.14138 0.73842 0.49046 0.0
H961 H 0.1862 0.74238 0.42116 0.0
H962 H 0.17573 0.77129 0.53913 0.0
H963 H 0.17885 0.79528 0.51923 0.0
H964 H 0.1515 0.77025 0.5222 0.0
H965 H 0.22264 0.77321 0.41591 0.0
H966 H 0.23066 0.79852 0.43674 0.0
H967 H 0.23454 0.77675 0.45245 0.0
H968 H 0.25678 0.84918 0.50115 0.0
H969 H 0.25431 0.7922 0.5444 0.0
H970 H 0.19817 0.81822 0.47431 0.0
H971 H 0.22144 0.82672 0.44944 0.0
H972 H 0.22319 0.84542 0.47843 0.0
H973 H 0.19772 0.75288 0.5303 0.0
H974 H 0.22463 0.75572 0.53895 0.0
H975 H 0.21454 0.75108 0.50131 0.0
C976 C 0.43189 0.19099 0.94372 0.0
C977 C 0.42004 0.16764 0.94766 0.0
C978 C 0.42498 0.20465 0.9578 0.0
C979 C 0.40534 0.19463 0.9756 0.0
C980 C 0.39186 0.17092 0.97677 0.0
C981 C 0.39959 0.15764 0.96316 0.0
C982 C 0.43998 0.22989 0.95589 0.0
C983 C 0.37014 0.1595 -0.00598 0.0
C984 C 0.41677 0.2327 0.04054 0.0
C985 C 0.41046 0.24765 0.0289 0.0
C986 C 0.41284 0.21357 0.02471 0.0
C987 C 0.40188 0.2091 -0.00312 0.0
C988 C 0.39239 0.22218 0.98733 0.0
C989 C 0.39704 0.2416 0.00333 0.0
C990 C 0.4229 0.19982 0.0361 0.0
C991 C 0.37924 0.21698 0.95882 0.0
H992 H 0.44756 0.1988 0.93143 0.0
H993 H 0.39009 0.13952 0.96576 0.0
H994 H 0.4301 0.23788 0.94904 0.0
H995 H 0.44728 0.23669 0.97803 0.0
H996 H 0.45401 0.23492 0.93991 0.0
H997 H 0.35811 0.14305 0.98387 0.0
H998 H 0.37358 0.15618 0.01694 0.0
H999 H 0.3621 0.17004 -0.00476 0.0
H1000 H 0.4266 0.23696 0.06076 0.0
H1001 H 0.39161 0.25282 -0.00542 0.0
H1002 H 0.43719 0.20261 0.02171 0.0
H1003 H 0.41028 0.18165 0.03539 0.0
H1004 H 0.42916 0.20434 0.0592 0.0
H1005 H 0.39105 0.22464 0.93997 0.0
H1006 H 0.36775 0.22399 0.95899 0.0
H1007 H 0.36925 0.19857 0.95495 0.0
C1008 C 0.16069 0.42258 0.50766 0.0
C1009 C 0.16692 0.43826 0.53076 0.0
C1010 C 0.17674 0.41872 0.49372 0.0
C1011 C 0.1995 0.43118 0.50278 0.0
C1012 C 0.20555 0.44596 0.5273 0.0
C1013 C 0.18913 0.44915 0.54115 0.0
C1014 C 0.16957 0.40231 0.46824 0.0
C1015 C 0.22968 0.45969 0.53756 0.0
C1016 C 0.24709 0.42184 0.47916 0.0
C1017 C 0.2576 0.43864 0.45759 0.0
C1018 C 0.22695 0.41784 0.49255 0.0
C1019 C 0.21754 0.43132 0.48458 0.0
C1020 C 0.22735 0.44731 0.4615 0.0
C1021 C 0.24715 0.45062 0.4481 0.0
C1022 C 0.21655 0.40015 0.51641 0.0
C1023 C 0.21793 0.46217 0.45249 0.0
H1024 H 0.14346 0.4139 0.49978 0.0
H1025 H 0.19403 0.46117 0.55914 0.0
H1026 H 0.1748 0.41172 0.44703 0.0
H1027 H 0.17783 0.39198 0.46964 0.0
H1028 H 0.15104 0.39096 0.46771 0.0
H1029 H 0.2313 0.4692 0.55822 0.0
H1030 H 0.23693 0.44868 0.54154 0.0
H1031 H 0.2399 0.47188 0.52001 0.0
H1032 H 0.25496 0.41233 0.4863 0.0
H1033 H 0.25513 0.46354 0.4313 0.0
H1034 H 0.19798 0.39042 0.51403 0.0
H1035 H 0.22037 0.4084 0.53846 0.0
H1036 H 0.22316 0.38832 0.5159 0.0
H1037 H 0.19971 0.45187 0.44759 0.0
H1038 H 0.22655 0.47256 0.4327 0.0
H1039 H 0.21988 0.47361 0.47107 0.0
C1040 C 0.81999 0.24358 0.97476 0.0
C1041 C 0.81449 0.25443 0.95273 0.0
C1042 C 0.80343 0.22309 0.98687 0.0
C1043 C 0.7809 0.21363 0.97706 0.0
C1044 C 0.77578 0.2234 0.95286 0.0
C1045 C 0.7927 0.24361 0.94082 0.0
C1046 C 0.80968 0.21263 0.01183 0.0
C1047 C 0.75199 0.21384 0.94164 0.0
C1048 C 0.73119 0.15843 0.0027 0.0
C1049 C 0.72207 0.16608 0.02454 0.0
C1050 C 0.75136 0.17346 0.98827 0.0
C1051 C 0.76219 0.19662 -0.00455 0.0
C1052 C 0.75359 0.20416 0.0185 0.0
C1053 C 0.73377 0.18876 0.03291 0.0
C1054 C 0.76041 0.16468 0.96447 0.0
C1055 C 0.76452 0.22875 0.02679 0.0
H1056 H 0.83692 0.25166 0.98368 0.0
H1057 H 0.7884 0.25172 0.92345 0.0
H1058 H 0.8049 0.21694 0.03329 0.0
H1059 H 0.80051 0.19402 0.00986 0.0
H1060 H 0.82805 0.21883 0.01226 0.0
H1061 H 0.75126 0.22184 0.92058 0.0
H1062 H 0.74405 0.19547 0.93804 0.0
H1063 H 0.74183 0.2166 0.95851 0.0
H1064 H 0.72233 0.14085 -0.00363 0.0
H1065 H 0.72692 0.19478 0.04992 0.0
H1066 H 0.77905 0.17336 0.96519 0.0
H1067 H 0.75548 0.16791 0.9424 0.0
H1068 H 0.75361 0.14628 0.96666 0.0
H1069 H 0.7825 0.23545 0.03233 0.0
H1070 H 0.75618 0.23166 0.04601 0.0
H1071 H 0.7638 0.23854 0.00766 0.0
C1072 C 0.55541 0.80717 0.43065 0.0
C1073 C 0.56538 0.82981 0.43894 0.0
C1074 C 0.56013 0.79236 0.44609 0.0
C1075 C 0.57561 0.80056 0.46996 0.0
C1076 C 0.58801 0.82394 0.47569 0.0
C1077 C 0.58251 0.83835 0.46035 0.0
C1078 C 0.54662 0.76755 0.43897 0.0
C1079 C 0.60565 0.83351 0.49969 0.0
C1080 C 0.55269 0.75785 0.53104 0.0
C1081 C 0.56207 0.74442 0.52391 0.0
C1082 C 0.55861 0.77754 0.51526 0.0
C1083 C 0.5747 0.78423 0.4922 0.0
C1084 C 0.58629 0.77229 0.48745 0.0
C1085 C 0.57961 0.75226 0.50314 0.0
C1086 C 0.54587 0.78982 0.52128 0.0
C1087 C 0.60446 0.77959 0.46428 0.0
H1088 H 0.5425 0.80055 0.41367 0.0
H1089 H 0.5907 0.85598 0.46637 0.0
H1090 H 0.55786 0.7604 0.43652 0.0
H1091 H 0.53484 0.75854 0.45746 0.0
H1092 H 0.53666 0.7642 0.41828 0.0
H1093 H 0.61819 0.85141 0.49523 0.0
H1094 H 0.5975 0.83269 0.52124 0.0
H1095 H 0.61455 0.82381 0.5018 0.0
H1096 H 0.53946 0.75213 0.54751 0.0
H1097 H 0.5873 0.74219 0.49799 0.0
H1098 H 0.53505 0.78797 0.50196 0.0
H1099 H 0.55772 0.80802 0.52447 0.0
H1100 H 0.53501 0.7833 0.54124 0.0
H1101 H 0.59672 0.77193 0.44267 0.0
H1102 H 0.61655 0.77391 0.4701 0.0
H1103 H 0.6138 0.79814 0.46153 0.0
C1104 C 0.39785 0.44549 0.08927 0.0
C1105 C 0.38177 0.44346 0.06851 0.0
C1106 C 0.40752 0.43175 0.08759 0.0
C1107 C 0.40149 0.41618 0.06399 0.0
C1108 C 0.38549 0.41431 0.0427 0.0
C1109 C 0.37551 0.42775 0.04551 0.0
C1110 C 0.42405 0.43376 0.11119 0.0
C1111 C 0.37918 0.39839 0.01675 0.0
C1112 C 0.44388 0.39764 0.04723 0.0
C1113 C 0.43365 0.37627 0.06026 0.0
C1114 C 0.43317 0.41048 0.04729 0.0
C1115 C 0.41211 0.40199 0.0616 0.0
C1116 C 0.40166 0.38035 0.07466 0.0
C1117 C 0.41243 0.36757 0.07341 0.0
C1118 C 0.44451 0.43321 0.03236 0.0
C1119 C 0.37952 0.37103 0.09085 0.0
H1120 H 0.40251 0.45752 0.10722 0.0
H1121 H 0.36317 0.42634 0.02935 0.0
H1122 H 0.41831 0.41713 0.12162 0.0
H1123 H 0.44072 0.43922 0.10108 0.0
H1124 H 0.42613 0.44598 0.12878 0.0
H1125 H 0.36685 0.39936 0.00175 0.0
H1126 H 0.39445 0.4023 0.00379 0.0
H1127 H 0.37185 0.38085 0.02478 0.0
H1128 H 0.46023 0.40427 0.03684 0.0
H1129 H 0.40463 0.3511 0.0837 0.0
H1130 H 0.44916 0.44662 0.04915 0.0
H1131 H 0.43275 0.43437 0.01654 0.0
H1132 H 0.45995 0.43654 0.02021 0.0
H1133 H 0.38135 0.38218 0.10974 0.0
H1134 H 0.37352 0.35379 0.09949 0.0
H1135 H 0.36647 0.37058 0.07593 0.0
C1136 C 0.03335 0.43955 0.52634 0.0
C1137 C 0.04555 0.43197 0.5428 0.0
C1138 C 0.00984 0.42679 0.52477 0.0
C1139 C -0.00162 0.4065 0.54104 0.0
C1140 C 0.01076 0.39807 0.55603 0.0
C1141 C 0.03432 0.41081 0.55634 0.0
C1142 C -0.00275 0.43591 0.5076 0.0
C1143 C -0.00082 0.37677 0.57419 0.0
C1144 C 0.94294 0.39484 0.57416 0.0
C1145 C 0.92745 0.37682 0.55686 0.0
C1146 C 0.96608 0.40436 0.56946 0.0
C1147 C 0.97385 0.39612 0.54619 0.0
C1148 C 0.95823 0.3782 0.52819 0.0
C1149 C 0.93514 0.36847 0.5341 0.0
C1150 C 0.98223 0.42308 0.58964 0.0
C1151 C 0.9659 0.36956 0.50257 0.0
H1152 H 0.04214 0.4559 0.51574 0.0
H1153 H 0.04383 0.4051 0.56929 0.0
H1154 H 0.98313 0.42229 0.49499 0.0
H1155 H 0.99 0.44305 0.52324 0.0
H1156 H 0.00842 0.44936 0.49191 0.0
H1157 H 0.01098 0.37097 0.58115 0.0
H1158 H 0.9919 0.37988 0.59438 0.0
H1159 H 0.98514 0.36308 0.56161 0.0
H1160 H 0.93693 0.40113 0.59192 0.0
H1161 H 0.92307 0.3546 0.52058 0.0
H1162 H 0.99229 0.43868 0.57663 0.0
H1163 H -0.00584 0.41857 0.59985 0.0
H1164 H 0.97344 0.42669 0.60762 0.0
H1165 H 0.97592 0.38348 0.48686 0.0
H1166 H 0.95157 0.35578 0.49039 0.0
H1167 H 0.97701 0.36327 0.51065 0.0
C1168 C 0.53875 0.94028 0.03357 0.0
C1169 C 0.54748 0.9273 0.04515 0.0
C1170 C 0.55169 0.9638 0.03313 0.0
C1171 C 0.57362 0.97453 0.04538 0.0
C1172 C 0.58284 0.96147 0.05609 0.0
C1173 C 0.56971 0.93794 0.05549 0.0
C1174 C 0.54149 0.97716 0.02087 0.0
C1175 C 0.60594 0.97231 0.06995 0.0
C1176 C 0.61121 0.03748 0.03377 0.0
C1177 C 0.60583 0.04591 0.0588 0.0
C1178 C 0.60099 0.01417 0.02905 0.0
C1179 C 0.58565 -0.00081 0.05033 0.0
C1180 C 0.58093 0.00774 0.0762 0.0
C1181 C 0.59084 0.03099 0.07989 0.0
C1182 C 0.60599 0.0056 0.00091 0.0
C1183 C 0.56513 0.99233 0.09982 0.0
H1184 H 0.52164 0.93203 0.02522 0.0
H1185 H 0.57645 0.9279 0.06457 0.0
H1186 H 0.5378 0.98551 0.0393 0.0
H1187 H 0.55352 0.99054 0.00578 0.0
H1188 H 0.52561 0.96639 0.00862 0.0
H1189 H 0.61156 0.95995 0.0743 0.0
H1190 H 0.61848 0.98581 0.05547 0.0
H1191 H 0.6057 0.98022 0.09129 0.0
H1192 H 0.62276 0.04909 0.01743 0.0
H1193 H 0.58692 0.03756 0.09946 0.0
H1194 H 0.5904 -0.00349 0.98751 0.0
H1195 H 0.61166 0.99344 0.00617 0.0
H1196 H 0.6191 0.0194 0.98727 0.0
H1197 H 0.54786 0.9825 0.09068 0.0
H1198 H 0.56459 0.00171 0.11957 0.0
H1199 H 0.57034 0.98015 0.10702 0.0
C1200 C 0.5891 0.55428 0.53618 0.0
C1201 C 0.60925 0.56243 0.55199 0.0
C1202 C 0.57811 0.56679 0.53435 0.0
C1203 C 0.58713 0.58753 0.5496 0.0
C1204 C 0.60787 0.59616 0.56485 0.0
C1205 C 0.61889 0.58362 0.56546 0.0
C1206 C 0.55639 0.55739 0.5171 0.0
C1207 C 0.6177 0.61793 0.58201 0.0
C1208 C 0.56476 0.62705 0.53367 0.0
C1209 C 0.54806 0.62049 0.55541 0.0
C1210 C 0.57752 0.61631 0.53124 0.0
C1211 C 0.57391 0.59919 0.55168 0.0
C1212 C 0.55735 0.59285 0.57404 0.0
C1213 C 0.54436 0.60334 0.57532 0.0
C1214 C 0.59454 0.62298 0.50657 0.0
C1215 C 0.55343 0.57506 0.59672 0.0
H1216 H 0.58176 0.53793 0.52559 0.0
H1217 H 0.63439 0.58978 0.57791 0.0
H1218 H 0.54212 0.55224 0.53263 0.0
H1219 H 0.55675 0.57042 0.50221 0.0
H1220 H 0.55316 0.54254 0.50358 0.0
H1221 H 0.63464 0.62302 0.59104 0.0
H1222 H 0.61896 0.63166 0.56774 0.0
H1223 H 0.60639 0.616 0.60074 0.0
H1224 H 0.56748 0.64023 0.51814 0.0
H1225 H 0.53157 0.59844 0.5923 0.0
H1226 H 0.59036 0.60813 0.4925 0.0
H1227 H 0.61154 0.62891 0.5159 0.0
H1228 H 0.59513 0.63647 0.49234 0.0
H1229 H 0.54754 0.55866 0.58555 0.0
H1230 H 0.54075 0.57298 0.61361 0.0
H1231 H 0.56943 0.57948 0.60818 0.0
C1232 C 0.95345 0.58188 0.06269 0.0
C1233 C 0.94205 0.56073 0.0491 0.0
C1234 C 0.97704 0.59416 0.06319 0.0
C1235 C 0.9893 0.58524 0.04903 0.0
C1236 C 0.97776 0.5649 0.03289 0.0
C1237 C 0.95422 0.55266 0.03356 0.0
C1238 C 0.98871 0.61557 0.08111 0.0
C1239 C 0.99025 0.55522 0.01669 0.0
C1240 C 0.05271 0.62177 0.04175 0.0
C1241 C 0.06009 0.61333 0.06477 0.0
C1242 C 0.02966 0.61272 0.0361 0.0
C1243 C 0.01378 0.59538 0.05454 0.0
C1244 C 0.02122 0.58718 0.07824 0.0
C1245 C 0.04431 0.59602 0.08275 0.0
C1246 C 0.02231 0.62136 0.01011 0.0
C1247 C 0.00479 0.56905 0.09886 0.0
H1248 H 0.94399 0.588 0.07493 0.0
H1249 H 0.94531 0.53634 0.02288 0.0
H1250 H -0.00438 0.61245 0.10166 0.0
H1251 H 0.00304 0.629 0.06862 0.0
H1252 H 0.97708 0.62171 0.08745 0.0
H1253 H 0.9791 0.54149 0.00132 0.0
H1254 H 0.00451 0.5685 0.00388 0.0
H1255 H -0.00267 0.54832 0.03298 0.0
H1256 H 0.06498 0.63508 0.02772 0.0
H1257 H 0.05006 0.58966 0.10073 0.0
H1258 H 0.01108 0.62763 0.01771 0.0
H1259 H 0.01253 0.60741 -0.00567 0.0
H1260 H 0.0368 0.63512 -0.00186 0.0
H1261 H -0.0069 0.5741 0.10852 0.0
H1262 H 0.01337 0.56555 0.11724 0.0
H1263 H -0.00551 0.55325 0.08632 0.0
C1264 C 0.44813 0.04556 0.53802 0.0
C1265 C 0.43933 0.05788 0.55151 0.0
C1266 C 0.43511 0.02214 0.53525 0.0
C1267 C 0.41306 0.01079 0.54711 0.0
C1268 C 0.40381 0.02325 0.55974 0.0
C1269 C 0.417 0.04674 0.56142 0.0
C1270 C 0.44533 0.00946 0.5209 0.0
C1271 C 0.38059 0.01172 0.57331 0.0
C1272 C 0.37473 0.94862 0.53056 0.0
C1273 C 0.37971 0.93884 0.55447 0.0
C1274 C 0.38551 0.97214 0.52767 0.0
C1275 C 0.40095 0.98593 0.54974 0.0
C1276 C 0.40539 0.976 0.57439 0.0
C1277 C 0.39498 0.95258 0.57619 0.0
C1278 C 0.38086 0.9822 0.50072 0.0
C1279 C 0.42126 0.9901 0.59883 0.0
H1280 H 0.46532 0.05423 0.52999 0.0
H1281 H 0.41022 0.05628 0.57194 0.0
H1282 H 0.449 0.00019 0.5381 0.0
H1283 H 0.43335 -0.00312 0.50493 0.0
H1284 H 0.46124 0.02086 0.5091 0.0
H1285 H 0.37502 0.02384 0.57947 0.0
H1286 H 0.36813 -0.00086 0.55778 0.0
H1287 H 0.38061 0.00255 0.59356 0.0
H1288 H 0.36297 0.93791 0.51373 0.0
H1289 H 0.39859 0.94496 0.59488 0.0
H1290 H 0.39664 0.99211 0.48793 0.0
H1291 H 0.375 0.99394 0.50751 0.0
H1292 H 0.36801 0.96916 0.48594 0.0
H1293 H 0.43855 0.00031 0.58988 0.0
H1294 H 0.42172 0.97969 0.61737 0.0
H1295 H 0.41616 0.00195 0.60776 0.0
C1296 C 0.54964 0.58968 0.94085 0.0
C1297 C 0.55869 0.61055 0.92662 0.0
C1298 C 0.56155 0.57806 0.94197 0.0
C1299 C 0.58271 0.58727 0.92776 0.0
C1300 C 0.59238 0.60882 0.91451 0.0
C1301 C 0.58032 0.62037 0.91443 0.0
C1302 C 0.55095 0.55539 0.95704 0.0
C1303 C 0.61472 0.619 0.89866 0.0
C1304 C 0.61852 0.56032 0.94184 0.0
C1305 C 0.61168 0.54474 0.91856 0.0
C1306 C 0.60935 0.57446 0.94512 0.0
C1307 C 0.59347 0.57331 0.92416 0.0
C1308 C 0.58703 0.55804 0.90013 0.0
C1309 C 0.596 0.54372 0.89787 0.0
C1310 C 0.61616 0.59014 0.97139 0.0
C1311 C 0.5705 0.55667 0.87695 0.0
H1312 H 0.53298 0.5822 0.95054 0.0
H1313 H 0.58725 0.63646 0.90325 0.0
H1314 H 0.54576 0.54198 0.94011 0.0
H1315 H 0.56327 0.55433 0.97189 0.0
H1316 H 0.5359 0.55198 0.97023 0.0
H1317 H 0.62094 0.63675 0.89216 0.0
H1318 H 0.62756 0.6183 0.91283 0.0
H1319 H 0.61291 0.60911 0.87835 0.0
H1320 H 0.63059 0.56103 0.95795 0.0
H1321 H 0.59089 0.53185 0.87966 0.0
H1322 H 0.60124 0.58556 0.98549 0.0
H1323 H 0.62264 0.60768 0.96384 0.0
H1324 H 0.62927 0.58952 0.98515 0.0
H1325 H 0.55382 0.55083 0.88728 0.0
H1326 H 0.56846 0.54499 0.85862 0.0
H1327 H 0.57615 0.57357 0.86744 0.0
C1328 C 0.94087 0.5468 0.41555 0.0
C1329 C 0.92546 0.54919 0.43328 0.0
C1330 C 0.96407 0.56093 0.41937 0.0
C1331 C 0.97201 0.5774 0.44206 0.0
C1332 C 0.95651 0.57974 0.46025 0.0
C1333 C 0.93336 0.56578 0.45535 0.0
C1334 C 0.98008 0.55825 0.39907 0.0
C1335 C 0.96439 0.59669 0.48515 0.0
C1336 C 0.0317 0.59518 0.46428 0.0
C1337 C 0.04389 0.61515 0.44818 0.0
C1338 C 0.00813 0.58353 0.46423 0.0
C1339 C -0.00341 0.59173 0.4469 0.0
C1340 C 0.00883 0.61249 0.43176 0.0
C1341 C 0.03242 0.62414 0.43292 0.0
C1342 C -0.00435 0.56179 0.48136 0.0
C1343 C -0.00287 0.62153 0.41256 0.0
H1344 H 0.93477 0.53412 0.39828 0.0
H1345 H 0.92141 0.56753 0.46919 0.0
H1346 H 0.99168 0.57454 0.38828 0.0
H1347 H 0.99052 0.55319 0.41212 0.0
H1348 H 0.97115 0.54545 0.38155 0.0
H1349 H 0.95016 0.59643 0.49723 0.0
H1350 H 0.97454 0.59317 0.50113 0.0
H1351 H 0.97543 0.61387 0.47635 0.0
H1352 H 0.04062 0.58833 0.47625 0.0
H1353 H 0.04189 0.63949 0.42025 0.0
H1354 H 0.98821 0.54741 0.46571 0.0
H1355 H 0.98163 0.56134 0.49416 0.0
H1356 H 0.00686 0.55942 0.4969 0.0
H1357 H 0.98973 0.61047 0.39295 0.0
H1358 H 0.00883 0.63889 0.40469 0.0
H1359 H 0.98313 0.62153 0.42482 0.0
C1360 C 0.43591 0.04071 0.95186 0.0
C1361 C 0.4284 0.05397 0.93786 0.0
C1362 C 0.42306 0.0172 0.95099 0.0
C1363 C 0.40254 0.00679 0.93508 0.0
C1364 C 0.39433 0.0201 0.9222 0.0
C1365 C 0.40728 0.0436 0.92406 0.0
C1366 C 0.43206 0.00354 0.9657 0.0
C1367 C 0.37271 0.00961 0.90463 0.0
C1368 C 0.38791 0.95105 0.89999 0.0
C1369 C 0.37083 0.93575 0.91869 0.0
C1370 C 0.39791 0.97425 0.90469 0.0
C1371 C 0.39105 0.98228 0.92916 0.0
C1372 C 0.37377 0.96691 0.94813 0.0
C1373 C 0.36364 0.94377 0.94243 0.0
C1374 C 0.41596 0.99016 0.88357 0.0
C1375 C 0.36642 0.97488 0.97481 0.0
H1376 H 0.45215 0.04874 0.9628 0.0
H1377 H 0.40151 0.05384 0.91307 0.0
H1378 H 0.41869 0.98966 0.9789 0.0
H1379 H 0.43763 -0.00416 0.9485 0.0
H1380 H 0.44656 0.01397 0.98047 0.0
H1381 H 0.36749 0.02205 0.89873 0.0
H1382 H 0.37499 0.00233 0.88386 0.0
H1383 H 0.35892 -0.0043 0.91725 0.0
H1384 H 0.39335 0.94487 0.88147 0.0
H1385 H 0.35052 0.93191 0.95705 0.0
H1386 H 0.43218 -0.00024 0.89553 0.0
H1387 H 0.41154 0.00252 0.87464 0.0
H1388 H 0.41841 0.98122 0.86469 0.0
H1389 H 0.38081 0.98387 0.99025 0.0
H1390 H 0.35236 0.96078 0.98694 0.0
H1391 H 0.36105 0.98699 0.96796 0.0
C1392 C 0.38969 0.43588 0.46889 0.0
C1393 C 0.36993 0.42884 0.45257 0.0
C1394 C 0.39973 0.42248 0.47048 0.0
C1395 C 0.39015 0.40203 0.45445 0.0
C1396 C 0.36907 0.39391 0.44027 0.0
C1397 C 0.35902 0.40737 0.43984 0.0
C1398 C 0.42178 0.43133 0.48675 0.0
C1399 C 0.35843 0.37235 0.42261 0.0
C1400 C 0.43387 0.39241 0.41718 0.0
C1401 C 0.43315 0.37506 0.43425 0.0
C1402 C 0.41941 0.40075 0.4231 0.0
C1403 C 0.4043 0.39195 0.44729 0.0
C1404 C 0.40342 0.37435 0.46464 0.0
C1405 C 0.41771 0.36585 0.45762 0.0
C1406 C 0.42052 0.41916 0.40355 0.0
C1407 C 0.38797 0.36504 0.49105 0.0
H1408 H 0.39796 0.45242 0.47904 0.0
H1409 H 0.34375 0.40198 0.42714 0.0
H1410 H 0.42247 0.41759 0.49878 0.0
H1411 H 0.43582 0.43852 0.47055 0.0
H1412 H 0.4245 0.44472 0.50283 0.0
H1413 H 0.34042 0.36632 0.41779 0.0
H1414 H 0.36747 0.37532 0.40121 0.0
H1415 H 0.35976 0.35892 0.43446 0.0
H1416 H 0.44564 0.39933 0.39888 0.0
H1417 H 0.4173 0.35249 0.4709 0.0
H1418 H 0.42642 0.43478 0.41667 0.0
H1419 H 0.40354 0.41425 0.39491 0.0
H1420 H 0.43208 0.42296 0.38444 0.0
H1421 H 0.39341 0.37822 0.50838 0.0
H1422 H 0.38795 0.35016 0.50073 0.0
H1423 H 0.3705 0.36023 0.48478 0.0
C1424 C 0.04584 0.41606 0.95474 0.0
C1425 C 0.0539 0.4323 0.93223 0.0
C1426 C 0.02265 0.40288 0.96028 0.0
C1427 C 0.00732 0.40565 0.94226 0.0
C1428 C 0.01543 0.42161 0.91897 0.0
C1429 C 0.03865 0.43498 0.91454 0.0
C1430 C 0.01461 0.38647 0.98578 0.0
C1431 C -0.0004 0.4247 0.8988 0.0
C1432 C 0.94587 0.36148 0.93436 0.0
C1433 C 0.93559 0.37201 0.9489 0.0
C1434 C 0.96939 0.37163 0.93337 0.0
C1435 C 0.98276 0.39244 0.94794 0.0
C1436 C 0.97234 0.40208 0.96485 0.0
C1437 C 0.94884 0.39191 0.96473 0.0
C1438 C 0.97985 0.36106 0.91463 0.0
C1439 C 0.98601 0.42392 0.98141 0.0
H1440 H 0.05768 0.41411 0.96855 0.0
H1441 H 0.04489 0.44738 0.89693 0.0
H1442 H 0.00567 0.39126 0.00214 0.0
H1443 H 0.00242 0.36932 0.97783 0.0
H1444 H 0.02867 0.38592 -0.00279 0.0
H1445 H 0.0086 0.43681 0.88061 0.0
H1446 H 0.98716 0.40833 0.88889 0.0
H1447 H 0.99008 0.43091 0.91177 0.0
H1448 H 0.93561 0.34616 0.92191 0.0
H1449 H 0.94085 0.39995 0.97618 0.0
H1450 H -0.00622 0.36078 0.92671 0.0
H1451 H 0.98711 0.37127 0.89431 0.0
H1452 H 0.96738 0.34361 0.9079 0.0
H1453 H -0.00015 0.42375 -0.00607 0.0
H1454 H 0.97554 0.42723 -0.00289 0.0
H1455 H -0.00622 0.43804 0.96538 0.0
C1456 C 0.57731 0.95432 0.40949 0.0
C1457 C 0.55633 0.94296 0.42353 0.0
C1458 C 0.58993 0.97788 0.40966 0.0
C1459 C 0.58158 0.99019 0.42497 0.0
C1460 C 0.56107 0.9787 0.44077 0.0
C1461 C 0.54849 0.95518 0.43946 0.0
C1462 C 0.61148 0.98958 0.39201 0.0
C1463 C 0.55197 0.99124 0.45807 0.0
C1464 C 0.62131 0.05223 0.43959 0.0
C1465 C 0.61455 0.06215 0.41777 0.0
C1466 C 0.61062 0.02877 0.44242 0.0
C1467 C 0.59325 0.01504 0.42239 0.0
C1468 C 0.58668 0.02501 0.39996 0.0
C1469 C 0.5972 0.04848 0.3982 0.0
C1470 C 0.6176 0.01869 0.4671 0.0
C1471 C 0.56857 0.01089 0.37776 0.0
H1472 H 0.58326 0.94483 0.39697 0.0
H1473 H 0.53232 0.94633 0.45053 0.0
H1474 H 0.60932 -0.00128 0.37316 0.0
H1475 H 0.62541 0.00222 0.40589 0.0
H1476 H 0.61644 0.9776 0.38308 0.0
H1477 H 0.53728 0.97981 0.47196 0.0
H1478 H 0.56523 0.00405 0.47262 0.0
H1479 H 0.54668 0.00026 0.44254 0.0
H1480 H 0.63463 0.06283 0.45488 0.0
H1481 H 0.59211 0.05617 0.38116 0.0
H1482 H 0.62332 0.00744 0.45781 0.0
H1483 H 0.60296 0.00826 0.4816 0.0
H1484 H 0.63135 0.03174 0.48089 0.0
H1485 H 0.57284 -0.0008 0.36633 0.0
H1486 H 0.56626 0.0213 0.3608 0.0
H1487 H 0.55232 0.0005 0.38933 0.0
C1488 C 0.45099 0.62155 0.95316 0.0
C1489 C 0.47136 0.62599 0.96616 0.0
C1490 C 0.43036 0.60449 0.96418 0.0
C1491 C 0.43022 0.59134 0.98839 0.0
C1492 C 0.45068 0.59654 0.00258 0.0
C1493 C 0.47103 0.61399 0.99144 0.0
C1494 C 0.40885 0.59981 0.94897 0.0
C1495 C 0.45121 0.58278 0.02835 0.0
C1496 C 0.37745 0.55159 0.03092 0.0
C1497 C 0.37197 0.53085 0.01814 0.0
C1498 C 0.39576 0.57167 0.02052 0.0
C1499 C 0.40907 0.57085 -0.00283 0.0
C1500 C 0.40303 0.55005 0.98336 0.0
C1501 C 0.3844 0.53031 -0.00615 0.0
C1502 C 0.40137 0.5936 0.03528 0.0
C1503 C 0.41692 0.54849 0.9585 0.0
H1504 H 0.4512 0.63097 0.93376 0.0
H1505 H 0.48675 0.61735 0.00155 0.0
H1506 H 0.4019 0.58383 0.93638 0.0
H1507 H 0.39602 0.59778 0.96553 0.0
H1508 H 0.41156 0.61344 0.93332 0.0
H1509 H 0.46829 0.58995 0.03816 0.0
H1510 H 0.43938 0.58163 0.04591 0.0
H1511 H 0.44567 0.56539 0.02079 0.0
H1512 H 0.36775 0.55208 0.04958 0.0
H1513 H 0.38024 0.51432 0.98391 0.0
H1514 H 0.40423 0.60652 0.0184 0.0
H1515 H 0.41717 0.59996 0.04817 0.0
H1516 H 0.38785 0.59173 0.05055 0.0
H1517 H 0.41873 0.56012 0.94028 0.0
H1518 H 0.4094 0.53119 0.94932 0.0
H1519 H 0.43407 0.55365 0.96672 0.0
C1520 C 0.83747 0.37233 0.49455 0.0
C1521 C 0.82516 0.3598 0.51916 0.0
C1522 C 0.83558 0.39063 0.48445 0.0
C1523 C 0.82071 0.39618 0.49901 0.0
C1524 C 0.80701 0.38252 0.52244 0.0
C1525 C 0.80956 0.3646 0.53243 0.0
C1526 C 0.85058 0.4049 0.45948 0.0
C1527 C 0.79055 0.38756 0.538 0.0
C1528 C 0.83791 0.4579 0.49718 0.0
C1529 C 0.82545 0.45858 0.47302 0.0
C1530 C 0.83604 0.43753 0.50638 0.0
C1531 C 0.82103 0.41737 0.4914 0.0
C1532 C 0.80742 0.41779 0.46817 0.0
C1533 C 0.80995 0.43846 0.45905 0.0
C1534 C 0.85096 0.43776 0.53116 0.0
C1535 C 0.79084 0.39657 0.45218 0.0
H1536 H 0.8496 0.36872 0.4843 0.0
H1537 H 0.79989 0.3548 0.55136 0.0
H1538 H 0.84048 0.40718 0.44207 0.0
H1539 H 0.86283 0.42185 0.46805 0.0
H1540 H 0.86005 0.39744 0.44919 0.0
H1541 H 0.77907 0.37365 0.55292 0.0
H1542 H 0.7999 0.40308 0.55142 0.0
H1543 H 0.78031 0.39061 0.52162 0.0
H1544 H 0.84996 0.47343 0.50795 0.0
H1545 H 0.80018 0.43893 0.44047 0.0
H1546 H 0.86262 0.43231 0.52252 0.0
H1547 H 0.84067 0.42571 0.54875 0.0
H1548 H 0.86108 0.45469 0.54125 0.0
H1549 H 0.80007 0.39013 0.43901 0.0
H1550 H 0.77977 0.3994 0.43698 0.0
H1551 H 0.78018 0.38328 0.46833 0.0
C1552 C 0.37067 0.82246 0.93939 0.0
C1553 C 0.36583 0.83674 0.95614 0.0
C1554 C 0.38878 0.81937 0.94678 0.0
C1555 C 0.4025 0.83104 0.97131 0.0
C1556 C 0.39729 0.84495 0.98886 0.0
C1557 C 0.37889 0.84752 0.98116 0.0
C1558 C 0.39361 0.80412 0.92788 0.0
C1559 C 0.4116 0.85773 0.01517 0.0
C1560 C 0.44128 0.81411 0.00837 0.0
C1561 C 0.46228 0.83025 -0.00287 0.0
C1562 C 0.42147 0.81339 -0.001 0.0
C1563 C 0.42278 0.8294 0.97819 0.0
C1564 C 0.4438 0.84493 0.96553 0.0
C1565 C 0.46333 0.84506 0.975 0.0
C1566 C 0.39931 0.79628 0.01254 0.0
C1567 C 0.44585 0.86232 0.94333 0.0
H1568 H 0.36052 0.81398 0.9201 0.0
H1569 H 0.37525 0.85861 -0.00587 0.0
H1570 H 0.40999 0.81416 0.91645 0.0
H1571 H 0.39496 0.79161 0.94196 0.0
H1572 H 0.38039 0.79503 0.91088 0.0
H1573 H 0.40495 0.86738 0.02694 0.0
H1574 H 0.41259 0.84594 0.03109 0.0
H1575 H 0.42901 0.86962 0.00771 0.0
H1576 H 0.44043 0.80255 0.02538 0.0
H1577 H 0.47954 0.85763 0.96635 0.0
H1578 H 0.38645 0.78765 -0.00497 0.0
H1579 H 0.3931 0.80491 0.02733 0.0
H1580 H 0.40082 0.78342 0.02571 0.0
H1581 H 0.43378 0.85418 0.92486 0.0
H1582 H 0.46309 0.87208 0.93399 0.0
H1583 H 0.44158 0.87421 0.95421 0.0
C1584 C 0.52783 0.38381 0.4902 0.0
C1585 C 0.52803 0.37202 0.46497 0.0
C1586 C 0.54751 0.40287 0.49997 0.0
C1587 C 0.56794 0.40995 0.48451 0.0
C1588 C 0.5685 0.39726 0.46017 0.0
C1589 C 0.54844 0.37857 0.45044 0.0
C1590 C 0.54618 0.41612 0.52585 0.0
C1591 C 0.59009 0.40393 0.4437 0.0
C1592 C 0.60943 0.4724 0.48974 0.0
C1593 C 0.62266 0.4732 0.51386 0.0
C1594 C 0.59204 0.45178 0.47919 0.0
C1595 C 0.5882 0.43153 0.49268 0.0
C1596 C 0.60256 0.4322 0.51563 0.0
C1597 C 0.61948 0.45308 0.52622 0.0
C1598 C 0.5769 0.45176 0.45487 0.0
C1599 C 0.59939 0.41094 0.52996 0.0
H1600 H 0.51206 0.37885 0.50142 0.0
H1601 H 0.54865 0.36935 0.43104 0.0
H1602 H 0.55867 0.41831 0.54304 0.0
H1603 H 0.55035 0.43315 0.51828 0.0
H1604 H 0.52921 0.40787 0.53614 0.0
H1605 H 0.58824 0.39077 0.42777 0.0
H1606 H 0.59533 0.41972 0.43124 0.0
H1607 H 0.6038 0.40724 0.4595 0.0
H1608 H 0.61181 0.48796 0.4802 0.0
H1609 H 0.62983 0.45368 0.54473 0.0
H1610 H 0.55966 0.44531 0.46373 0.0
H1611 H 0.57571 0.44039 0.43663 0.0
H1612 H 0.58294 0.46882 0.44557 0.0
H1613 H 0.58386 0.40328 0.54358 0.0
H1614 H 0.61378 0.41417 0.54448 0.0
H1615 H 0.59733 0.39845 0.51282 0.0
C1616 C 0.17024 0.54246 0.95948 0.0
C1617 C 0.15452 0.52214 0.97279 0.0
C1618 C 0.17329 0.56307 0.96978 0.0
C1619 C 0.15997 0.56326 -0.00643 0.0
C1620 C 0.14473 0.54286 0.00788 0.0
C1621 C 0.14234 0.52253 -0.00253 0.0
C1622 C 0.19008 0.58453 0.95445 0.0
C1623 C 0.13009 0.54238 0.03318 0.0
C1624 C 0.17326 0.61599 0.03631 0.0
C1625 C 0.15821 0.62173 0.02345 0.0
C1626 C 0.17488 0.59762 0.02584 0.0
C1627 C 0.16078 0.58449 0.00234 0.0
C1628 C 0.14627 0.5908 0.98842 0.0
C1629 C 0.14532 0.60952 -0.00102 0.0
C1630 C 0.19095 0.59172 0.04073 0.0
C1631 C 0.13084 0.57709 0.96343 0.0
H1632 H 0.1798 0.54221 0.9405 0.0
H1633 H 0.13012 0.50686 0.00776 0.0
H1634 H 0.18105 0.59159 0.9421 0.0
H1635 H 0.20104 0.59731 0.97098 0.0
H1636 H 0.20086 0.58176 0.93861 0.0
H1637 H 0.11985 0.52528 0.04276 0.0
H1638 H 0.14061 0.55402 0.05102 0.0
H1639 H 0.11856 0.54821 0.02526 0.0
H1640 H 0.18337 0.62552 0.05513 0.0
H1641 H 0.13361 0.61385 0.98903 0.0
H1642 H 0.2011 0.58892 0.02393 0.0
H1643 H 0.18131 0.57584 0.05335 0.0
H1644 H 0.20253 0.60507 0.05627 0.0
H1645 H 0.14063 0.575 0.94539 0.0
H1646 H 0.1214 0.58489 0.95404 0.0
H1647 H 0.11856 0.56003 0.97162 0.0
C1648 C 0.5276 0.14696 0.48846 0.0
C1649 C 0.5272 0.15935 0.51286 0.0
C1650 C 0.54791 0.14897 0.47861 0.0
C1651 C 0.56823 0.16399 0.49327 0.0
C1652 C 0.56808 0.1777 0.51653 0.0
C1653 C 0.54751 0.17511 0.52619 0.0
C1654 C 0.54743 0.13402 0.45373 0.0
C1655 C 0.58946 0.19423 0.53229 0.0
C1656 C 0.61327 0.14746 0.49186 0.0
C1657 C 0.62657 0.1602 0.46798 0.0
C1658 C 0.59453 0.14901 0.50084 0.0
C1659 C 0.58925 0.16391 0.48584 0.0
C1660 C 0.60338 0.17775 0.46285 0.0
C1661 C 0.62181 0.17562 0.45405 0.0
C1662 C 0.5798 0.13393 0.52545 0.0
C1663 C 0.59853 0.19415 0.44679 0.0
H1664 H 0.51193 0.13473 0.47813 0.0
H1665 H 0.54725 0.18486 0.54494 0.0
H1666 H 0.55987 0.14416 0.43642 0.0
H1667 H 0.55218 0.12185 0.46244 0.0
H1668 H 0.53055 0.12446 0.44328 0.0
H1669 H 0.58685 0.20558 0.54725 0.0
H1670 H 0.5957 0.18494 0.5457 0.0
H1671 H 0.60278 0.2046 0.51603 0.0
H1672 H 0.61685 0.1355 0.50267 0.0
H1673 H 0.63217 0.18561 0.43568 0.0
H1674 H 0.56279 0.12212 0.51661 0.0
H1675 H 0.57774 0.14407 0.543 0.0
H1676 H 0.58676 0.12397 0.53567 0.0
H1677 H 0.58286 0.18479 0.43362 0.0
H1678 H 0.6124 0.20529 0.43157 0.0
H1679 H 0.59578 0.20476 0.46289 0.0
C1680 C 0.52979 0.35539 0.0134 0.0
C1681 C 0.50943 0.35277 0.00269 0.0
C1682 C 0.55047 0.37318 0.00374 0.0
C1683 C 0.55072 0.38879 0.9831 0.0
C1684 C 0.53027 0.38543 0.9708 0.0
C1685 C 0.50981 0.36732 0.98063 0.0
C1686 C 0.57194 0.37598 0.01695 0.0
C1687 C 0.52991 0.40175 0.94869 0.0
C1688 C 0.59878 0.44905 0.98655 0.0
C1689 C 0.61141 0.45013 0.96159 0.0
C1690 C 0.57914 0.42904 -0.00597 0.0
C1691 C 0.57216 0.40964 0.97627 0.0
C1692 C 0.58532 0.41038 0.95175 0.0
C1693 C 0.60477 0.43066 0.94463 0.0
C1694 C 0.56549 0.42886 0.02039 0.0
C1695 C 0.57855 0.38995 0.93257 0.0
H1696 H 0.52955 0.34404 0.0303 0.0
H1697 H 0.49412 0.36538 0.97231 0.0
H1698 H 0.58441 0.37909 -0.00071 0.0
H1699 H 0.57948 0.39082 0.03187 0.0
H1700 H 0.56902 0.361 0.02992 0.0
H1701 H 0.51285 0.39568 0.93933 0.0
H1702 H 0.53555 0.41819 0.95966 0.0
H1703 H 0.54174 0.4047 0.93022 0.0
H1704 H 0.60381 0.46404 -0.00031 0.0
H1705 H 0.61454 0.43138 0.92536 0.0
H1706 H 0.56319 0.41548 0.03618 0.0
H1707 H 0.54851 0.42499 0.01297 0.0
H1708 H 0.57352 0.4452 0.03231 0.0
H1709 H 0.57577 0.37544 0.94645 0.0
H1710 H 0.5914 0.39293 0.9155 0.0
H1711 H 0.56242 0.38517 0.92124 0.0
C1712 C 0.13245 0.61534 0.50939 0.0
C1713 C 0.14648 0.62958 0.48702 0.0
C1714 C 0.13442 0.59698 0.51902 0.0
C1715 C 0.15115 0.5932 0.50643 0.0
C1716 C 0.16658 0.60868 0.4857 0.0
C1717 C 0.16386 0.62656 0.47594 0.0
C1718 C 0.1175 0.5807 0.54096 0.0
C1719 C 0.18505 0.6056 0.47247 0.0
C1720 C 0.15951 0.54871 0.54455 0.0
C1721 C 0.14606 0.52977 0.52704 0.0
C1722 C 0.16224 0.56981 0.53737 0.0
C1723 C 0.15083 0.5718 0.51248 0.0
C1724 C 0.13793 0.5529 0.49409 0.0
C1725 C 0.1359 0.53213 0.50143 0.0
C1726 C 0.17662 0.58972 0.557 0.0
C1727 C 0.12535 0.55433 0.46746 0.0
H1728 H 0.11892 0.61758 0.51785 0.0
H1729 H 0.1748 0.63769 0.45875 0.0
H1730 H 0.10646 0.56442 0.52976 0.0
H1731 H 0.12615 0.57736 0.55935 0.0
H1732 H 0.10677 0.58702 0.55045 0.0
H1733 H 0.19767 0.62086 0.46046 0.0
H1734 H 0.19377 0.60148 0.48997 0.0
H1735 H 0.17767 0.59133 0.45662 0.0
H1736 H 0.16751 0.54694 0.56425 0.0
H1737 H 0.12541 0.51749 0.48788 0.0
H1738 H 0.16577 0.59465 0.56932 0.0
H1739 H 0.18845 0.60438 0.54342 0.0
H1740 H 0.18644 0.58598 0.5733 0.0
H1741 H 0.1127 0.55888 0.47473 0.0
H1742 H 0.11656 0.53822 0.45502 0.0
H1743 H 0.13711 0.56771 0.45218 0.0
C1744 C 0.59655 0.13564 0.00128 0.0
C1745 C 0.60967 0.14625 0.02631 0.0
C1746 C 0.57857 0.13879 -0.00663 0.0
C1747 C 0.57393 0.15325 0.01059 0.0
C1748 C 0.58774 0.16478 0.03513 0.0
C1749 C 0.60535 0.16096 0.04289 0.0
C1750 C 0.56407 0.12604 0.96717 0.0
C1751 C 0.58362 0.18073 0.05353 0.0
C1752 C 0.53612 0.16997 0.97058 0.0
C1753 C 0.51492 0.154 0.98146 0.0
C1754 C 0.55577 0.17107 0.98147 0.0
C1755 C 0.55405 0.15551 0.0033 0.0
C1756 C 0.53282 0.14036 0.01578 0.0
C1757 C 0.51347 0.13995 0.00488 0.0
C1758 C 0.57816 0.18786 0.96819 0.0
C1759 C 0.5303 0.1234 0.03896 0.0
H1760 H 0.59979 0.1242 0.98848 0.0
H1761 H 0.61558 0.1693 0.06216 0.0
H1762 H 0.54649 0.11485 0.97459 0.0
H1763 H 0.5638 0.13793 0.95077 0.0
H1764 H 0.57009 0.11563 0.95594 0.0
H1765 H 0.59702 0.18979 0.07031 0.0
H1766 H 0.58261 0.19326 0.03906 0.0
H1767 H 0.56725 0.17126 0.06518 0.0
H1768 H 0.53726 0.18099 0.95261 0.0
H1769 H 0.4971 0.12753 0.01328 0.0
H1770 H 0.58412 0.179 0.95343 0.0
H1771 H 0.59099 0.19624 0.98581 0.0
H1772 H 0.57704 0.20093 0.95501 0.0
H1773 H 0.53399 0.11085 0.02886 0.0
H1774 H 0.51306 0.11435 0.04845 0.0
H1775 H 0.54251 0.13172 0.05723 0.0
C1776 C 0.44431 0.62952 0.51342 0.0
C1777 C 0.46524 0.6338 0.50266 0.0
C1778 C 0.42438 0.61035 0.50447 0.0
C1779 C 0.42554 0.59493 0.4848 0.0
C1780 C 0.44653 0.59978 0.47267 0.0
C1781 C 0.46615 0.61932 0.48153 0.0
C1782 C 0.40224 0.60605 0.51723 0.0
C1783 C 0.44847 0.58364 0.45179 0.0
C1784 C 0.3818 0.53304 0.48991 0.0
C1785 C 0.36948 0.52992 0.46387 0.0
C1786 C 0.39978 0.55431 0.49739 0.0
C1787 C 0.40519 0.5729 0.47866 0.0
C1788 C 0.39196 0.57006 0.45325 0.0
C1789 C 0.37438 0.54853 0.44599 0.0
C1790 C 0.41366 0.55666 0.52455 0.0
C1791 C 0.39688 0.58959 0.43316 0.0
H1792 H 0.44357 0.6408 0.52964 0.0
H1793 H 0.48231 0.62252 0.47325 0.0
H1794 H 0.38947 0.60124 0.49943 0.0
H1795 H 0.39584 0.59181 0.53308 0.0
H1796 H 0.40386 0.62098 0.52906 0.0
H1797 H 0.46579 0.59053 0.44295 0.0
H1798 H 0.4437 0.56769 0.46359 0.0
H1799 H 0.43671 0.57948 0.43289 0.0
H1800 H 0.37812 0.51866 0.5037 0.0
H1801 H 0.36475 0.54616 0.42592 0.0
H1802 H 0.41455 0.57 0.5393 0.0
H1803 H 0.43114 0.56179 0.51783 0.0
H1804 H 0.40673 0.54075 0.53737 0.0
H1805 H 0.39855 0.604 0.44631 0.0
H1806 H 0.38355 0.58505 0.4162 0.0
H1807 H 0.41312 0.59532 0.42161 0.0
C1808 C 0.81855 0.36963 0.96896 0.0
C1809 C 0.83454 0.36509 0.98152 0.0
C1810 C 0.81651 0.38793 0.97865 0.0
C1811 C 0.83124 0.40229 0.00085 0.0
C1812 C 0.84657 0.39704 0.01473 0.0
C1813 C 0.84785 0.37829 0.00511 0.0
C1814 C 0.79948 0.39258 0.964 0.0
C1815 C 0.86274 0.41211 0.03828 0.0
C1816 C 0.84967 0.4643 -0.00057 0.0
C1817 C 0.83878 0.46626 0.02453 0.0
C1818 C 0.84678 0.44338 0.99094 0.0
C1819 C 0.83227 0.42395 0.00759 0.0
C1820 C 0.82009 0.42563 0.03177 0.0
C1821 C 0.8237 0.44685 0.04018 0.0
C1822 C 0.86024 0.44228 0.96515 0.0
C1823 C 0.80398 0.4052 0.04949 0.0
H1824 H 0.80814 0.3593 0.95082 0.0
H1825 H 0.86031 0.37488 0.01473 0.0
H1826 H 0.79026 0.39663 0.98085 0.0
H1827 H 0.80826 0.40739 0.94921 0.0
H1828 H 0.78711 0.37808 0.95057 0.0
H1829 H 0.87254 0.40487 0.04821 0.0
H1830 H 0.87469 0.42868 0.02843 0.0
H1831 H 0.85353 0.41514 0.0562 0.0
H1832 H 0.8614 0.47928 0.98737 0.0
H1833 H 0.81513 0.44833 0.0595 0.0
H1834 H 0.84892 0.42969 0.9487 0.0
H1835 H 0.87205 0.43681 0.97312 0.0
H1836 H 0.8701 0.45876 0.95382 0.0
H1837 H 0.79255 0.39134 0.03451 0.0
H1838 H 0.79368 0.40889 0.06501 0.0
H1839 H 0.81356 0.39911 0.06256 0.0
C1840 C 0.46964 0.85388 0.48956 0.0
C1841 C 0.46946 0.84095 0.46543 0.0
C1842 C 0.44952 0.85163 0.50059 0.0
C1843 C 0.4288 0.83577 0.48752 0.0
C1844 C 0.42845 0.82143 0.46477 0.0
C1845 C 0.44884 0.82436 0.45377 0.0
C1846 C 0.45057 0.86734 0.52477 0.0
C1847 C 0.40666 0.80391 0.45084 0.0
C1848 C 0.37623 0.82535 0.52862 0.0
C1849 C 0.37067 0.83976 0.5135 0.0
C1850 C 0.39459 0.82311 0.5197 0.0
C1851 C 0.40789 0.83592 0.49547 0.0
C1852 C 0.40189 0.84992 0.47952 0.0
C1853 C 0.38319 0.85149 0.48856 0.0
C1854 C 0.40017 0.8076 0.53675 0.0
C1855 C 0.41579 0.86401 0.45369 0.0
H1856 H 0.48556 0.86676 0.49859 0.0
H1857 H 0.44868 0.8142 0.43527 0.0
H1858 H 0.44541 0.8791 0.51565 0.0
H1859 H 0.43871 0.85776 0.5429 0.0
H1860 H 0.46774 0.87738 0.53426 0.0
H1861 H 0.40901 0.79201 0.43668 0.0
H1862 H 0.39399 0.79422 0.46816 0.0
H1863 H 0.39971 0.81232 0.4369 0.0
H1864 H 0.36647 0.81614 0.54782 0.0
H1865 H 0.379 0.8627 0.47686 0.0
H1866 H 0.41619 0.81765 0.54897 0.0
H1867 H 0.4026 0.79641 0.52132 0.0
H1868 H 0.38682 0.79706 0.55293 0.0
H1869 H 0.43309 0.8761 0.46132 0.0
H1870 H 0.40852 0.87359 0.44321 0.0
H1871 H 0.4172 0.85315 0.43662 0.0
loop_
_geom_bond_atom_site_label_1
_geom_bond_atom_site_label_2
_geom_bond_distance
_geom_bond_site_symmetry_2
_ccdc_geom_bond_type
C0 O1 1.306 . S
C0 O3 1.160 . S
O1 C0 1.306 . S
O1 Cd2 2.228 . S
Cd2 O1 2.228 . S
Cd2 O6 2.273 . S
Cd2 O10 2.277 . S
O3 C0 1.160 . S
O3 Cd4 2.203 . S
Cd4 O3 2.203 . S
Cd4 O6 2.411 . S
Cd4 O7 2.333 . S
Cd4 O8 2.352 . S
Cd4 O12 2.277 . S
Cd4 O13 2.356 . S
C5 O10 1.209 . S
C5 O12 1.226 . S
O6 Cd2 2.273 . S
O6 Cd4 2.411 . S
O6 C9 1.320 . S
O7 Cd4 2.333 . S
O7 C9 1.214 . S
O8 Cd4 2.352 . S
O8 C11 1.258 . S
C9 O6 1.320 . S
C9 O7 1.214 . S
O10 Cd2 2.277 . S
O10 C5 1.209 . S
C11 O8 1.258 . S
C11 O13 1.282 . S
O12 Cd4 2.277 . S
O12 C5 1.226 . S
O13 Cd4 2.356 . S
O13 C11 1.282 . S
C14 O15 1.306 . S
C14 O17 1.160 . S
O15 C14 1.306 . S
O15 Cd16 2.228 . S
Cd16 O15 2.228 . S
Cd16 O20 2.273 . S
Cd16 O24 2.277 . S
O17 C14 1.160 . S
O17 Cd18 2.203 . S
Cd18 O17 2.203 . S
Cd18 O20 2.411 . S
Cd18 O21 2.333 . S
Cd18 O22 2.352 . S
Cd18 O26 2.277 . S
Cd18 O27 2.356 . S
C19 O24 1.209 . S
C19 O26 1.226 . S
O20 Cd16 2.273 . S
O20 Cd18 2.411 . S
O20 C23 1.320 . S
O21 Cd18 2.333 . S
O21 C23 1.214 . S
O22 Cd18 2.352 . S
O22 C25 1.258 . S
C23 O20 1.320 . S
C23 O21 1.214 . S
O24 Cd16 2.277 . S
O24 C19 1.209 . S
C25 O22 1.258 . S
C25 O27 1.282 . S
O26 Cd18 2.277 . S
O26 C19 1.226 . S
O27 Cd18 2.356 . S
O27 C25 1.282 . S
C28 O29 1.306 . S
C28 O31 1.160 . S
O29 C28 1.306 . S
O29 Cd30 2.228 . S
Cd30 O29 2.228 . S
Cd30 O34 2.273 . S
Cd30 O38 2.277 . S
O31 C28 1.160 . S
O31 Cd32 2.203 . S
Cd32 O31 2.203 . S
Cd32 O34 2.411 . S
Cd32 O35 2.333 . S
Cd32 O36 2.352 . S
Cd32 O40 2.277 . S
Cd32 O41 2.356 . S
C33 O38 1.209 . S
C33 O40 1.226 . S
O34 Cd30 2.273 . S
O34 Cd32 2.411 . S
O34 C37 1.320 . S
O35 Cd32 2.333 . S
O35 C37 1.214 . S
O36 Cd32 2.352 . S
O36 C39 1.258 . S
C37 O34 1.320 . S
C37 O35 1.214 . S
O38 Cd30 2.277 . S
O38 C33 1.209 . S
C39 O36 1.258 . S
C39 O41 1.282 . S
O40 Cd32 2.277 . S
O40 C33 1.226 . S
O41 Cd32 2.356 . S
O41 C39 1.282 . S
C42 O43 1.306 . S
C42 O45 1.160 . S
O43 C42 1.306 . S
O43 Cd44 2.228 . S
Cd44 O43 2.228 . S
Cd44 O48 2.273 . S
Cd44 O52 2.277 . S
O45 C42 1.160 . S
O45 Cd46 2.203 . S
Cd46 O45 2.203 . S
Cd46 O48 2.411 . S
Cd46 O49 2.333 . S
Cd46 O50 2.352 . S
Cd46 O54 2.277 . S
Cd46 O55 2.356 . S
C47 O52 1.209 . S
C47 O54 1.226 . S
O48 Cd44 2.273 . S
O48 Cd46 2.411 . S
O48 C51 1.320 . S
O49 Cd46 2.333 . S
O49 C51 1.214 . S
O50 Cd46 2.352 . S
O50 C53 1.258 . S
C51 O48 1.320 . S
C51 O49 1.214 . S
O52 Cd44 2.277 . S
O52 C47 1.209 . S
C53 O50 1.258 . S
C53 O55 1.282 . S
O54 Cd46 2.277 . S
O54 C47 1.226 . S
O55 Cd46 2.356 . S
O55 C53 1.282 . S
C56 O57 1.306 . S
C56 O59 1.160 . S
O57 C56 1.306 . S
O57 Cd58 2.228 . S
Cd58 O57 2.228 . S
Cd58 O62 2.273 . S
Cd58 O66 2.277 . S
O59 C56 1.160 . S
O59 Cd60 2.203 . S
Cd60 O59 2.203 . S
Cd60 O62 2.411 . S
Cd60 O63 2.333 . S
Cd60 O64 2.352 . S
Cd60 O68 2.277 . S
Cd60 O69 2.356 . S
C61 O66 1.209 . S
C61 O68 1.226 . S
O62 Cd58 2.273 . S
O62 Cd60 2.411 . S
O62 C65 1.320 . S
O63 Cd60 2.333 . S
O63 C65 1.214 . S
O64 Cd60 2.352 . S
O64 C67 1.258 . S
C65 O62 1.320 . S
C65 O63 1.214 . S
O66 Cd58 2.277 . S
O66 C61 1.209 . S
C67 O64 1.258 . S
C67 O69 1.282 . S
O68 Cd60 2.277 . S
O68 C61 1.226 . S
O69 Cd60 2.356 . S
O69 C67 1.282 . S
C70 O71 1.306 . S
C70 O73 1.160 . S
O71 C70 1.306 . S
O71 Cd72 2.228 . S
Cd72 O71 2.228 . S
Cd72 O76 2.273 . S
Cd72 O80 2.277 . S
O73 C70 1.160 . S
O73 Cd74 2.203 . S
Cd74 O73 2.203 . S
Cd74 O76 2.411 . S
Cd74 O77 2.333 . S
Cd74 O78 2.352 . S
Cd74 O82 2.277 . S
Cd74 O83 2.356 . S
C75 O80 1.209 . S
C75 O82 1.226 . S
O76 Cd72 2.273 . S
O76 Cd74 2.411 . S
O76 C79 1.320 . S
O77 Cd74 2.333 . S
O77 C79 1.214 . S
O78 Cd74 2.352 . S
O78 C81 1.258 . S
C79 O76 1.320 . S
C79 O77 1.214 . S
O80 Cd72 2.277 . S
O80 C75 1.209 . S
C81 O78 1.258 . S
C81 O83 1.282 . S
O82 Cd74 2.277 . S
O82 C75 1.226 . S
O83 Cd74 2.356 . S
O83 C81 1.282 . S
C84 O85 1.306 . S
C84 O87 1.160 . S
O85 C84 1.306 . S
O85 Cd86 2.228 . S
Cd86 O85 2.228 . S
Cd86 O90 2.273 . S
Cd86 O94 2.277 . S
O87 C84 1.160 . S
O87 Cd88 2.203 . S
Cd88 O87 2.203 . S
Cd88 O90 2.411 . S
Cd88 O91 2.333 . S
Cd88 O92 2.352 . S
Cd88 O96 2.277 . S
Cd88 O97 2.356 . S
C89 O94 1.209 . S
C89 O96 1.226 . S
O90 Cd86 2.273 . S
O90 Cd88 2.411 . S
O90 C93 1.320 . S
O91 Cd88 2.333 . S
O91 C93 1.214 . S
O92 Cd88 2.352 . S
O92 C95 1.258 . S
C93 O90 1.320 . S
C93 O91 1.214 . S
O94 Cd86 2.277 . S
O94 C89 1.209 . S
C95 O92 1.258 . S
C95 O97 1.282 . S
O96 Cd88 2.277 . S
O96 C89 1.226 . S
O97 Cd88 2.356 . S
O97 C95 1.282 . S
C98 O99 1.306 . S
C98 O101 1.160 . S
O99 C98 1.306 . S
O99 Cd100 2.228 . S
Cd100 O99 2.228 . S
Cd100 O104 2.273 . S
Cd100 O108 2.277 . S
O101 C98 1.160 . S
O101 Cd102 2.203 . S
Cd102 O101 2.203 . S
Cd102 O104 2.411 . S
Cd102 O105 2.333 . S
Cd102 O106 2.352 . S
Cd102 O110 2.277 . S
Cd102 O111 2.356 . S
C103 O108 1.209 . S
C103 O110 1.226 . S
O104 Cd100 2.273 . S
O104 Cd102 2.411 . S
O104 C107 1.320 . S
O105 Cd102 2.333 . S
O105 C107 1.214 . S
O106 Cd102 2.352 . S
O106 C109 1.258 . S
C107 O104 1.320 . S
C107 O105 1.214 . S
O108 Cd100 2.277 . S
O108 C103 1.209 . S
C109 O106 1.258 . S
C109 O111 1.282 . S
O110 Cd102 2.277 . S
O110 C103 1.226 . S
O111 Cd102 2.356 . S
O111 C109 1.282 . S
C112 O113 1.306 . S
C112 O115 1.160 . S
O113 C112 1.306 . S
O113 Cd114 2.228 . S
Cd114 O113 2.228 . S
Cd114 O118 2.273 . S
Cd114 O122 2.277 . S
O115 C112 1.160 . S
O115 Cd116 2.203 . S
Cd116 O115 2.203 . S
Cd116 O118 2.411 . S
Cd116 O119 2.333 . S
Cd116 O120 2.352 . S
Cd116 O124 2.277 . S
Cd116 O125 2.356 . S
C117 O122 1.209 . S
C117 O124 1.226 . S
O118 Cd114 2.273 . S
O118 Cd116 2.411 . S
O118 C121 1.320 . S
O119 Cd116 2.333 . S
O119 C121 1.214 . S
O120 Cd116 2.352 . S
O120 C123 1.258 . S
C121 O118 1.320 . S
C121 O119 1.214 . S
O122 Cd114 2.277 . S
O122 C117 1.209 . S
C123 O120 1.258 . S
C123 O125 1.282 . S
O124 Cd116 2.277 . S
O124 C117 1.226 . S
O125 Cd116 2.356 . S
O125 C123 1.282 . S
C126 O127 1.306 . S
C126 O129 1.160 . S
O127 C126 1.306 . S
O127 Cd128 2.228 . S
Cd128 O127 2.228 . S
Cd128 O132 2.273 . S
Cd128 O136 2.277 . S
O129 C126 1.160 . S
O129 Cd130 2.203 . S
Cd130 O129 2.203 . S
Cd130 O132 2.411 . S
Cd130 O133 2.333 . S
Cd130 O134 2.352 . S
Cd130 O138 2.277 . S
Cd130 O139 2.356 . S
C131 O136 1.209 . S
C131 O138 1.226 . S
O132 Cd128 2.273 . S
O132 Cd130 2.411 . S
O132 C135 1.320 . S
O133 Cd130 2.333 . S
O133 C135 1.214 . S
O134 Cd130 2.352 . S
O134 C137 1.258 . S
C135 O132 1.320 . S
C135 O133 1.214 . S
O136 Cd128 2.277 . S
O136 C131 1.209 . S
C137 O134 1.258 . S
C137 O139 1.282 . S
O138 Cd130 2.277 . S
O138 C131 1.226 . S
O139 Cd130 2.356 . S
O139 C137 1.282 . S
C140 O141 1.306 . S
C140 O143 1.160 . S
O141 C140 1.306 . S
O141 Cd142 2.228 . S
Cd142 O141 2.228 . S
Cd142 O146 2.273 . S
Cd142 O150 2.277 . S
O143 C140 1.160 . S
O143 Cd144 2.203 . S
Cd144 O143 2.203 . S
Cd144 O146 2.411 . S
Cd144 O147 2.333 . S
Cd144 O148 2.352 . S
Cd144 O152 2.277 . S
Cd144 O153 2.356 . S
C145 O150 1.209 . S
C145 O152 1.226 . S
O146 Cd142 2.273 . S
O146 Cd144 2.411 . S
O146 C149 1.320 . S
O147 Cd144 2.333 . S
O147 C149 1.214 . S
O148 Cd144 2.352 . S
O148 C151 1.258 . S
C149 O146 1.320 . S
C149 O147 1.214 . S
O150 Cd142 2.277 . S
O150 C145 1.209 . S
C151 O148 1.258 . S
C151 O153 1.282 . S
O152 Cd144 2.277 . S
O152 C145 1.226 . S
O153 Cd144 2.356 . S
O153 C151 1.282 . S
C154 O155 1.306 . S
C154 O157 1.160 . S
O155 C154 1.306 . S
O155 Cd156 2.228 . S
Cd156 O155 2.228 . S
Cd156 O160 2.273 . S
Cd156 O164 2.277 . S
O157 C154 1.160 . S
O157 Cd158 2.203 . S
Cd158 O157 2.203 . S
Cd158 O160 2.411 . S
Cd158 O161 2.333 . S
Cd158 O162 2.352 . S
Cd158 O166 2.277 . S
Cd158 O167 2.356 . S
C159 O164 1.209 . S
C159 O166 1.226 . S
O160 Cd156 2.273 . S
O160 Cd158 2.411 . S
O160 C163 1.320 . S
O161 Cd158 2.333 . S
O161 C163 1.214 . S
O162 Cd158 2.352 . S
O162 C165 1.258 . S
C163 O160 1.320 . S
C163 O161 1.214 . S
O164 Cd156 2.277 . S
O164 C159 1.209 . S
C165 O162 1.258 . S
C165 O167 1.282 . S
O166 Cd158 2.277 . S
O166 C159 1.226 . S
O167 Cd158 2.356 . S
O167 C165 1.282 . S
C168 O169 1.306 . S
C168 O171 1.160 . S
O169 C168 1.306 . S
O169 Cd170 2.228 . S
Cd170 O169 2.228 . S
Cd170 O174 2.273 . S
Cd170 O178 2.277 . S
O171 C168 1.160 . S
O171 Cd172 2.203 . S
Cd172 O171 2.203 . S
Cd172 O174 2.411 . S
Cd172 O175 2.333 . S
Cd172 O176 2.352 . S
Cd172 O180 2.277 . S
Cd172 O181 2.356 . S
C173 O178 1.209 . S
C173 O180 1.226 . S
O174 Cd170 2.273 . S
O174 Cd172 2.411 . S
O174 C177 1.320 . S
O175 Cd172 2.333 . S
O175 C177 1.214 . S
O176 Cd172 2.352 . S
O176 C179 1.258 . S
C177 O174 1.320 . S
C177 O175 1.214 . S
O178 Cd170 2.277 . S
O178 C173 1.209 . S
C179 O176 1.258 . S
C179 O181 1.282 . S
O180 Cd172 2.277 . S
O180 C173 1.226 . S
O181 Cd172 2.356 . S
O181 C179 1.282 . S
C182 O183 1.306 . S
C182 O185 1.160 . S
O183 C182 1.306 . S
O183 Cd184 2.228 . S
Cd184 O183 2.228 . S
Cd184 O188 2.273 . S
Cd184 O192 2.277 . S
O185 C182 1.160 . S
O185 Cd186 2.203 . S
Cd186 O185 2.203 . S
Cd186 O188 2.411 . S
Cd186 O189 2.333 . S
Cd186 O190 2.352 . S
Cd186 O194 2.277 . S
Cd186 O195 2.356 . S
C187 O192 1.209 . S
C187 O194 1.226 . S
O188 Cd184 2.273 . S
O188 Cd186 2.411 . S
O188 C191 1.320 . S
O189 Cd186 2.333 . S
O189 C191 1.214 . S
O190 Cd186 2.352 . S
O190 C193 1.258 . S
C191 O188 1.320 . S
C191 O189 1.214 . S
O192 Cd184 2.277 . S
O192 C187 1.209 . S
C193 O190 1.258 . S
C193 O195 1.282 . S
O194 Cd186 2.277 . S
O194 C187 1.226 . S
O195 Cd186 2.356 . S
O195 C193 1.282 . S
C196 O197 1.306 . S
C196 O199 1.160 . S
O197 C196 1.306 . S
O197 Cd198 2.228 . S
Cd198 O197 2.228 . S
Cd198 O202 2.273 . S
Cd198 O206 2.277 . S
O199 C196 1.160 . S
O199 Cd200 2.203 . S
Cd200 O199 2.203 . S
Cd200 O202 2.411 . S
Cd200 O203 2.333 . S
Cd200 O204 2.352 . S
Cd200 O208 2.277 . S
Cd200 O209 2.356 . S
C201 O206 1.209 . S
C201 O208 1.226 . S
O202 Cd198 2.273 . S
O202 Cd200 2.411 . S
O202 C205 1.320 . S
O203 Cd200 2.333 . S
O203 C205 1.214 . S
O204 Cd200 2.352 . S
O204 C207 1.258 . S
C205 O202 1.320 . S
C205 O203 1.214 . S
O206 Cd198 2.277 . S
O206 C201 1.209 . S
C207 O204 1.258 . S
C207 O209 1.282 . S
O208 Cd200 2.277 . S
O208 C201 1.226 . S
O209 Cd200 2.356 . S
O209 C207 1.282 . S
C210 O211 1.306 . S
C210 O213 1.160 . S
O211 C210 1.306 . S
O211 Cd212 2.228 . S
Cd212 O211 2.228 . S
Cd212 O216 2.273 . S
Cd212 O220 2.277 . S
O213 C210 1.160 . S
O213 Cd214 2.203 . S
Cd214 O213 2.203 . S
Cd214 O216 2.411 . S
Cd214 O217 2.333 . S
Cd214 O218 2.352 . S
Cd214 O222 2.277 . S
Cd214 O223 2.356 . S
C215 O220 1.209 . S
C215 O222 1.226 . S
O216 Cd212 2.273 . S
O216 Cd214 2.411 . S
O216 C219 1.320 . S
O217 Cd214 2.333 . S
O217 C219 1.214 . S
O218 Cd214 2.352 . S
O218 C221 1.258 . S
C219 O216 1.320 . S
C219 O217 1.214 . S
O220 Cd212 2.277 . S
O220 C215 1.209 . S
C221 O218 1.258 . S
C221 O223 1.282 . S
O222 Cd214 2.277 . S
O222 C215 1.226 . S
O223 Cd214 2.356 . S
O223 C221 1.282 . S
C224 O225 1.306 . S
C224 O227 1.160 . S
O225 C224 1.306 . S
O225 Cd226 2.228 . S
Cd226 O225 2.228 . S
Cd226 O230 2.273 . S
Cd226 O234 2.277 . S
O227 C224 1.160 . S
O227 Cd228 2.203 . S
Cd228 O227 2.203 . S
Cd228 O230 2.411 . S
Cd228 O231 2.333 . S
Cd228 O232 2.352 . S
Cd228 O236 2.277 . S
Cd228 O237 2.356 . S
C229 O234 1.209 . S
C229 O236 1.226 . S
O230 Cd226 2.273 . S
O230 Cd228 2.411 . S
O230 C233 1.320 . S
O231 Cd228 2.333 . S
O231 C233 1.214 . S
O232 Cd228 2.352 . S
O232 C235 1.258 . S
C233 O230 1.320 . S
C233 O231 1.214 . S
O234 Cd226 2.277 . S
O234 C229 1.209 . S
C235 O232 1.258 . S
C235 O237 1.282 . S
O236 Cd228 2.277 . S
O236 C229 1.226 . S
O237 Cd228 2.356 . S
O237 C235 1.282 . S
C238 O239 1.306 . S
C238 O241 1.160 . S
O239 C238 1.306 . S
O239 Cd240 2.228 . S
Cd240 O239 2.228 . S
Cd240 O244 2.273 . S
Cd240 O248 2.277 . S
O241 C238 1.160 . S
O241 Cd242 2.203 . S
Cd242 O241 2.203 . S
Cd242 O244 2.411 . S
Cd242 O245 2.333 . S
Cd242 O246 2.352 . S
Cd242 O250 2.277 . S
Cd242 O251 2.356 . S
C243 O248 1.209 . S
C243 O250 1.226 . S
O244 Cd240 2.273 . S
O244 Cd242 2.411 . S
O244 C247 1.320 . S
O245 Cd242 2.333 . S
O245 C247 1.214 . S
O246 Cd242 2.352 . S
O246 C249 1.258 . S
C247 O244 1.320 . S
C247 O245 1.214 . S
O248 Cd240 2.277 . S
O248 C243 1.209 . S
C249 O246 1.258 . S
C249 O251 1.282 . S
O250 Cd242 2.277 . S
O250 C243 1.226 . S
O251 Cd242 2.356 . S
O251 C249 1.282 . S
C252 O253 1.306 . S
C252 O255 1.160 . S
O253 C252 1.306 . S
O253 Cd254 2.228 . S
Cd254 O253 2.228 . S
Cd254 O258 2.273 . S
Cd254 O262 2.277 . S
O255 C252 1.160 . S
O255 Cd256 2.203 . S
Cd256 O255 2.203 . S
Cd256 O258 2.411 . S
Cd256 O259 2.333 . S
Cd256 O260 2.352 . S
Cd256 O264 2.277 . S
Cd256 O265 2.356 . S
C257 O262 1.209 . S
C257 O264 1.226 . S
O258 Cd254 2.273 . S
O258 Cd256 2.411 . S
O258 C261 1.320 . S
O259 Cd256 2.333 . S
O259 C261 1.214 . S
O260 Cd256 2.352 . S
O260 C263 1.258 . S
C261 O258 1.320 . S
C261 O259 1.214 . S
O262 Cd254 2.277 . S
O262 C257 1.209 . S
C263 O260 1.258 . S
C263 O265 1.282 . S
O264 Cd256 2.277 . S
O264 C257 1.226 . S
O265 Cd256 2.356 . S
O265 C263 1.282 . S
C266 O267 1.306 . S
C266 O269 1.160 . S
O267 C266 1.306 . S
O267 Cd268 2.228 . S
Cd268 O267 2.228 . S
Cd268 O272 2.273 . S
Cd268 O276 2.277 . S
O269 C266 1.160 . S
O269 Cd270 2.203 . S
Cd270 O269 2.203 . S
Cd270 O272 2.411 . S
Cd270 O273 2.333 . S
Cd270 O274 2.352 . S
Cd270 O278 2.277 . S
Cd270 O279 2.356 . S
C271 O276 1.209 . S
C271 O278 1.226 . S
O272 Cd268 2.273 . S
O272 Cd270 2.411 . S
O272 C275 1.320 . S
O273 Cd270 2.333 . S
O273 C275 1.214 . S
O274 Cd270 2.352 . S
O274 C277 1.258 . S
C275 O272 1.320 . S
C275 O273 1.214 . S
O276 Cd268 2.277 . S
O276 C271 1.209 . S
C277 O274 1.258 . S
C277 O279 1.282 . S
O278 Cd270 2.277 . S
O278 C271 1.226 . S
O279 Cd270 2.356 . S
O279 C277 1.282 . S
C280 O281 1.306 . S
C280 O283 1.160 . S
O281 C280 1.306 . S
O281 Cd282 2.228 . S
Cd282 O281 2.228 . S
Cd282 O286 2.273 . S
Cd282 O290 2.277 . S
O283 C280 1.160 . S
O283 Cd284 2.203 . S
Cd284 O283 2.203 . S
Cd284 O286 2.411 . S
Cd284 O287 2.333 . S
Cd284 O288 2.352 . S
Cd284 O292 2.277 . S
Cd284 O293 2.356 . S
C285 O290 1.209 . S
C285 O292 1.226 . S
O286 Cd282 2.273 . S
O286 Cd284 2.411 . S
O286 C289 1.320 . S
O287 Cd284 2.333 . S
O287 C289 1.214 . S
O288 Cd284 2.352 . S
O288 C291 1.258 . S
C289 O286 1.320 . S
C289 O287 1.214 . S
O290 Cd282 2.277 . S
O290 C285 1.209 . S
C291 O288 1.258 . S
C291 O293 1.282 . S
O292 Cd284 2.277 . S
O292 C285 1.226 . S
O293 Cd284 2.356 . S
O293 C291 1.282 . S
C294 O295 1.306 . S
C294 O297 1.160 . S
O295 C294 1.306 . S
O295 Cd296 2.228 . S
Cd296 O295 2.228 . S
Cd296 O300 2.273 . S
Cd296 O304 2.277 . S
O297 C294 1.160 . S
O297 Cd298 2.203 . S
Cd298 O297 2.203 . S
Cd298 O300 2.411 . S
Cd298 O301 2.333 . S
Cd298 O302 2.352 . S
Cd298 O306 2.277 . S
Cd298 O307 2.356 . S
C299 O304 1.209 . S
C299 O306 1.226 . S
O300 Cd296 2.273 . S
O300 Cd298 2.411 . S
O300 C303 1.320 . S
O301 Cd298 2.333 . S
O301 C303 1.214 . S
O302 Cd298 2.352 . S
O302 C305 1.258 . S
C303 O300 1.320 . S
C303 O301 1.214 . S
O304 Cd296 2.277 . S
O304 C299 1.209 . S
C305 O302 1.258 . S
C305 O307 1.282 . S
O306 Cd298 2.277 . S
O306 C299 1.226 . S
O307 Cd298 2.356 . S
O307 C305 1.282 . S
C308 O309 1.306 . S
C308 O311 1.160 . S
O309 C308 1.306 . S
O309 Cd310 2.228 . S
Cd310 O309 2.228 . S
Cd310 O314 2.273 . S
Cd310 O318 2.277 . S
O311 C308 1.160 . S
O311 Cd312 2.203 . S
Cd312 O311 2.203 . S
Cd312 O314 2.411 . S
Cd312 O315 2.333 . S
Cd312 O316 2.352 . S
Cd312 O320 2.277 . S
Cd312 O321 2.356 . S
C313 O318 1.209 . S
C313 O320 1.226 . S
O314 Cd310 2.273 . S
O314 Cd312 2.411 . S
O314 C317 1.320 . S
O315 Cd312 2.333 . S
O315 C317 1.214 . S
O316 Cd312 2.352 . S
O316 C319 1.258 . S
C317 O314 1.320 . S
C317 O315 1.214 . S
O318 Cd310 2.277 . S
O318 C313 1.209 . S
C319 O316 1.258 . S
C319 O321 1.282 . S
O320 Cd312 2.277 . S
O320 C313 1.226 . S
O321 Cd312 2.356 . S
O321 C319 1.282 . S
C322 O323 1.306 . S
C322 O325 1.160 . S
O323 C322 1.306 . S
O323 Cd324 2.228 . S
Cd324 O323 2.228 . S
Cd324 O328 2.273 . S
Cd324 O332 2.277 . S
O325 C322 1.160 . S
O325 Cd326 2.203 . S
Cd326 O325 2.203 . S
Cd326 O328 2.411 . S
Cd326 O329 2.333 . S
Cd326 O330 2.352 . S
Cd326 O334 2.277 . S
Cd326 O335 2.356 . S
C327 O332 1.209 . S
C327 O334 1.226 . S
O328 Cd324 2.273 . S
O328 Cd326 2.411 . S
O328 C331 1.320 . S
O329 Cd326 2.333 . S
O329 C331 1.214 . S
O330 Cd326 2.352 . S
O330 C333 1.258 . S
C331 O328 1.320 . S
C331 O329 1.214 . S
O332 Cd324 2.277 . S
O332 C327 1.209 . S
C333 O330 1.258 . S
C333 O335 1.282 . S
O334 Cd326 2.277 . S
O334 C327 1.226 . S
O335 Cd326 2.356 . S
O335 C333 1.282 . S
C336 C337 1.391 . S
C336 C338 1.394 . S
C336 H352 0.931 . S
C337 C336 1.391 . S
C337 C341 1.376 . S
C338 C336 1.394 . S
C338 C339 1.369 . S
C338 C342 1.531 . S
C339 C338 1.369 . S
C339 C340 1.410 . S
C339 C347 1.503 . S
C340 C339 1.410 . S
C340 C341 1.392 . S
C340 C343 1.511 . S
C341 C337 1.376 . S
C341 C340 1.392 . S
C341 H353 0.929 . S
C342 C338 1.531 . S
C342 H354 0.960 . S
C342 H355 0.962 . S
C342 H356 0.960 . S
C343 C340 1.511 . S
C343 H357 0.961 . S
C343 H358 0.961 . S
C343 H359 0.961 . S
C344 C345 1.370 . S
C344 C346 1.363 . S
C344 H360 0.931 . S
C345 C344 1.370 . S
C345 C349 1.408 . S
C346 C344 1.363 . S
C346 C347 1.370 . S
C346 C350 1.524 . S
C347 C339 1.503 . S
C347 C346 1.370 . S
C347 C348 1.403 . S
C348 C347 1.403 . S
C348 C349 1.404 . S
C348 C351 1.539 . S
C349 C345 1.408 . S
C349 C348 1.404 . S
C349 H361 0.930 . S
C350 C346 1.524 . S
C350 H362 0.956 . S
C350 H363 0.961 . S
C350 H364 0.961 . S
C351 C348 1.539 . S
C351 H365 0.958 . S
C351 H366 0.961 . S
C351 H367 0.960 . S
H352 C336 0.931 . S
H353 C341 0.929 . S
H354 C342 0.960 . S
H355 C342 0.962 . S
H356 C342 0.960 . S
H357 C343 0.961 . S
H358 C343 0.961 . S
H359 C343 0.961 . S
H360 C344 0.931 . S
H361 C349 0.930 . S
H362 C350 0.956 . S
H363 C350 0.961 . S
H364 C350 0.961 . S
H365 C351 0.958 . S
H366 C351 0.961 . S
H367 C351 0.960 . S
C368 C369 1.391 . S
C368 C370 1.394 . S
C368 H384 0.931 . S
C369 C368 1.391 . S
C369 C373 1.376 . S
C370 C368 1.394 . S
C370 C371 1.369 . S
C370 C374 1.531 . S
C371 C370 1.369 . S
C371 C372 1.410 . S
C371 C379 1.503 . S
C372 C371 1.410 . S
C372 C373 1.392 . S
C372 C375 1.511 . S
C373 C369 1.376 . S
C373 C372 1.392 . S
C373 H385 0.929 . S
C374 C370 1.531 . S
C374 H386 0.960 . S
C374 H387 0.962 . S
C374 H388 0.960 . S
C375 C372 1.511 . S
C375 H389 0.961 . S
C375 H390 0.961 . S
C375 H391 0.961 . S
C376 C377 1.370 . S
C376 C378 1.363 . S
C376 H392 0.931 . S
C377 C376 1.370 . S
C377 C381 1.408 . S
C378 C376 1.363 . S
C378 C379 1.370 . S
C378 C382 1.524 . S
C379 C371 1.503 . S
C379 C378 1.370 . S
C379 C380 1.403 . S
C380 C379 1.403 . S
C380 C381 1.404 . S
C380 C383 1.539 . S
C381 C377 1.408 . S
C381 C380 1.404 . S
C381 H393 0.930 . S
C382 C378 1.524 . S
C382 H394 0.956 . S
C382 H395 0.961 . S
C382 H396 0.961 . S
C383 C380 1.539 . S
C383 H397 0.958 . S
C383 H398 0.961 . S
C383 H399 0.960 . S
H384 C368 0.931 . S
H385 C373 0.929 . S
H386 C374 0.960 . S
H387 C374 0.962 . S
H388 C374 0.960 . S
H389 C375 0.961 . S
H390 C375 0.961 . S
H391 C375 0.961 . S
H392 C376 0.931 . S
H393 C381 0.930 . S
H394 C382 0.956 . S
H395 C382 0.961 . S
H396 C382 0.961 . S
H397 C383 0.958 . S
H398 C383 0.961 . S
H399 C383 0.960 . S
C400 C401 1.391 . S
C400 C402 1.394 . S
C400 H416 0.931 . S
C401 C400 1.391 . S
C401 C405 1.376 . S
C402 C400 1.394 . S
C402 C403 1.369 . S
C402 C406 1.531 . S
C403 C402 1.369 . S
C403 C404 1.410 . S
C403 C411 1.503 . S
C404 C403 1.410 . S
C404 C405 1.392 . S
C404 C407 1.511 . S
C405 C401 1.376 . S
C405 C404 1.392 . S
C405 H417 0.929 . S
C406 C402 1.531 . S
C406 H418 0.960 . S
C406 H419 0.962 . S
C406 H420 0.960 . S
C407 C404 1.511 . S
C407 H421 0.961 . S
C407 H422 0.961 . S
C407 H423 0.961 . S
C408 C409 1.370 . S
C408 C410 1.363 . S
C408 H424 0.931 . S
C409 C408 1.370 . S
C409 C413 1.408 . S
C410 C408 1.363 . S
C410 C411 1.370 . S
C410 C414 1.524 . S
C411 C403 1.503 . S
C411 C410 1.370 . S
C411 C412 1.403 . S
C412 C411 1.403 . S
C412 C413 1.404 . S
C412 C415 1.539 . S
C413 C409 1.408 . S
C413 C412 1.404 . S
C413 H425 0.930 . S
C414 C410 1.524 . S
C414 H426 0.956 . S
C414 H427 0.961 . S
C414 H428 0.961 . S
C415 C412 1.539 . S
C415 H429 0.958 . S
C415 H430 0.961 . S
C415 H431 0.960 . S
H416 C400 0.931 . S
H417 C405 0.929 . S
H418 C406 0.960 . S
H419 C406 0.962 . S
H420 C406 0.960 . S
H421 C407 0.961 . S
H422 C407 0.961 . S
H423 C407 0.961 . S
H424 C408 0.931 . S
H425 C413 0.930 . S
H426 C414 0.956 . S
H427 C414 0.961 . S
H428 C414 0.961 . S
H429 C415 0.958 . S
H430 C415 0.961 . S
H431 C415 0.960 . S
C432 C433 1.391 . S
C432 C434 1.394 . S
C432 H448 0.931 . S
C433 C432 1.391 . S
C433 C437 1.376 . S
C434 C432 1.394 . S
C434 C435 1.369 . S
C434 C438 1.531 . S
C435 C434 1.369 . S
C435 C436 1.410 . S
C435 C443 1.503 . S
C436 C435 1.410 . S
C436 C437 1.392 . S
C436 C439 1.511 . S
C437 C433 1.376 . S
C437 C436 1.392 . S
C437 H449 0.929 . S
C438 C434 1.531 . S
C438 H450 0.960 . S
C438 H451 0.962 . S
C438 H452 0.960 . S
C439 C436 1.511 . S
C439 H453 0.961 . S
C439 H454 0.961 . S
C439 H455 0.961 . S
C440 C441 1.370 . S
C440 C442 1.363 . S
C440 H456 0.931 . S
C441 C440 1.370 . S
C441 C445 1.408 . S
C442 C440 1.363 . S
C442 C443 1.370 . S
C442 C446 1.524 . S
C443 C435 1.503 . S
C443 C442 1.370 . S
C443 C444 1.403 . S
C444 C443 1.403 . S
C444 C445 1.404 . S
C444 C447 1.539 . S
C445 C441 1.408 . S
C445 C444 1.404 . S
C445 H457 0.930 . S
C446 C442 1.524 . S
C446 H458 0.956 . S
C446 H459 0.961 . S
C446 H460 0.961 . S
C447 C444 1.539 . S
C447 H461 0.958 . S
C447 H462 0.961 . S
C447 H463 0.960 . S
H448 C432 0.931 . S
H449 C437 0.929 . S
H450 C438 0.960 . S
H451 C438 0.962 . S
H452 C438 0.960 . S
H453 C439 0.961 . S
H454 C439 0.961 . S
H455 C439 0.961 . S
H456 C440 0.931 . S
H457 C445 0.930 . S
H458 C446 0.956 . S
H459 C446 0.961 . S
H460 C446 0.961 . S
H461 C447 0.958 . S
H462 C447 0.961 . S
H463 C447 0.960 . S
C464 C465 1.391 . S
C464 C466 1.394 . S
C464 H480 0.931 . S
C465 C464 1.391 . S
C465 C469 1.376 . S
C466 C464 1.394 . S
C466 C467 1.369 . S
C466 C470 1.531 . S
C467 C466 1.369 . S
C467 C468 1.410 . S
C467 C475 1.503 . S
C468 C467 1.410 . S
C468 C469 1.392 . S
C468 C471 1.511 . S
C469 C465 1.376 . S
C469 C468 1.392 . S
C469 H481 0.929 . S
C470 C466 1.531 . S
C470 H482 0.960 . S
C470 H483 0.962 . S
C470 H484 0.960 . S
C471 C468 1.511 . S
C471 H485 0.961 . S
C471 H486 0.961 . S
C471 H487 0.961 . S
C472 C473 1.370 . S
C472 C474 1.363 . S
C472 H488 0.931 . S
C473 C472 1.370 . S
C473 C477 1.408 . S
C474 C472 1.363 . S
C474 C475 1.370 . S
C474 C478 1.524 . S
C475 C467 1.503 . S
C475 C474 1.370 . S
C475 C476 1.403 . S
C476 C475 1.403 . S
C476 C477 1.404 . S
C476 C479 1.539 . S
C477 C473 1.408 . S
C477 C476 1.404 . S
C477 H489 0.930 . S
C478 C474 1.524 . S
C478 H490 0.956 . S
C478 H491 0.961 . S
C478 H492 0.961 . S
C479 C476 1.539 . S
C479 H493 0.958 . S
C479 H494 0.961 . S
C479 H495 0.960 . S
H480 C464 0.931 . S
H481 C469 0.929 . S
H482 C470 0.960 . S
H483 C470 0.962 . S
H484 C470 0.960 . S
H485 C471 0.961 . S
H486 C471 0.961 . S
H487 C471 0.961 . S
H488 C472 0.931 . S
H489 C477 0.930 . S
H490 C478 0.956 . S
H491 C478 0.961 . S
H492 C478 0.961 . S
H493 C479 0.958 . S
H494 C479 0.961 . S
H495 C479 0.960 . S
C496 C497 1.391 . S
C496 C498 1.394 . S
C496 H512 0.931 . S
C497 C496 1.391 . S
C497 C501 1.376 . S
C498 C496 1.394 . S
C498 C499 1.369 . S
C498 C502 1.531 . S
C499 C498 1.369 . S
C499 C500 1.410 . S
C499 C507 1.503 . S
C500 C499 1.410 . S
C500 C501 1.392 . S
C500 C503 1.511 . S
C501 C497 1.376 . S
C501 C500 1.392 . S
C501 H513 0.929 . S
C502 C498 1.531 . S
C502 H514 0.960 . S
C502 H515 0.962 . S
C502 H516 0.960 . S
C503 C500 1.511 . S
C503 H517 0.961 . S
C503 H518 0.961 . S
C503 H519 0.961 . S
C504 C505 1.370 . S
C504 C506 1.363 . S
C504 H520 0.931 . S
C505 C504 1.370 . S
C505 C509 1.408 . S
C506 C504 1.363 . S
C506 C507 1.370 . S
C506 C510 1.524 . S
C507 C499 1.503 . S
C507 C506 1.370 . S
C507 C508 1.403 . S
C508 C507 1.403 . S
C508 C509 1.404 . S
C508 C511 1.539 . S
C509 C505 1.408 . S
C509 C508 1.404 . S
C509 H521 0.930 . S
C510 C506 1.524 . S
C510 H522 0.956 . S
C510 H523 0.961 . S
C510 H524 0.961 . S
C511 C508 1.539 . S
C511 H525 0.958 . S
C511 H526 0.961 . S
C511 H527 0.960 . S
H512 C496 0.931 . S
H513 C501 0.929 . S
H514 C502 0.960 . S
H515 C502 0.962 . S
H516 C502 0.960 . S
H517 C503 0.961 . S
H518 C503 0.961 . S
H519 C503 0.961 . S
H520 C504 0.931 . S
H521 C509 0.930 . S
H522 C510 0.956 . S
H523 C510 0.961 . S
H524 C510 0.961 . S
H525 C511 0.958 . S
H526 C511 0.961 . S
H527 C511 0.960 . S
C528 C529 1.391 . S
C528 C530 1.394 . S
C528 H544 0.931 . S
C529 C528 1.391 . S
C529 C533 1.376 . S
C530 C528 1.394 . S
C530 C531 1.369 . S
C530 C534 1.531 . S
C531 C530 1.369 . S
C531 C532 1.410 . S
C531 C539 1.503 . S
C532 C531 1.410 . S
C532 C533 1.392 . S
C532 C535 1.511 . S
C533 C529 1.376 . S
C533 C532 1.392 . S
C533 H545 0.929 . S
C534 C530 1.531 . S
C534 H546 0.960 . S
C534 H547 0.962 . S
C534 H548 0.960 . S
C535 C532 1.511 . S
C535 H549 0.961 . S
C535 H550 0.961 . S
C535 H551 0.961 . S
C536 C537 1.370 . S
C536 C538 1.363 . S
C536 H552 0.931 . S
C537 C536 1.370 . S
C537 C541 1.408 . S
C538 C536 1.363 . S
C538 C539 1.370 . S
C538 C542 1.524 . S
C539 C531 1.503 . S
C539 C538 1.370 . S
C539 C540 1.403 . S
C540 C539 1.403 . S
C540 C541 1.404 . S
C540 C543 1.539 . S
C541 C537 1.408 . S
C541 C540 1.404 . S
C541 H553 0.930 . S
C542 C538 1.524 . S
C542 H554 0.956 . S
C542 H555 0.961 . S
C542 H556 0.961 . S
C543 C540 1.539 . S
C543 H557 0.958 . S
C543 H558 0.961 . S
C543 H559 0.960 . S
H544 C528 0.931 . S
H545 C533 0.929 . S
H546 C534 0.960 . S
H547 C534 0.962 . S
H548 C534 0.960 . S
H549 C535 0.961 . S
H550 C535 0.961 . S
H551 C535 0.961 . S
H552 C536 0.931 . S
H553 C541 0.930 . S
H554 C542 0.956 . S
H555 C542 0.961 . S
H556 C542 0.961 . S
H557 C543 0.958 . S
H558 C543 0.961 . S
H559 C543 0.960 . S
C560 C561 1.391 . S
C560 C562 1.394 . S
C560 H576 0.931 . S
C561 C560 1.391 . S
C561 C565 1.376 . S
C562 C560 1.394 . S
C562 C563 1.369 . S
C562 C566 1.531 . S
C563 C562 1.369 . S
C563 C564 1.410 . S
C563 C571 1.503 . S
C564 C563 1.410 . S
C564 C565 1.392 . S
C564 C567 1.511 . S
C565 C561 1.376 . S
C565 C564 1.392 . S
C565 H577 0.929 . S
C566 C562 1.531 . S
C566 H578 0.960 . S
C566 H579 0.962 . S
C566 H580 0.960 . S
C567 C564 1.511 . S
C567 H581 0.961 . S
C567 H582 0.961 . S
C567 H583 0.961 . S
C568 C569 1.370 . S
C568 C570 1.363 . S
C568 H584 0.931 . S
C569 C568 1.370 . S
C569 C573 1.408 . S
C570 C568 1.363 . S
C570 C571 1.370 . S
C570 C574 1.524 . S
C571 C563 1.503 . S
C571 C570 1.370 . S
C571 C572 1.403 . S
C572 C571 1.403 . S
C572 C573 1.404 . S
C572 C575 1.539 . S
C573 C569 1.408 . S
C573 C572 1.404 . S
C573 H585 0.930 . S
C574 C570 1.524 . S
C574 H586 0.956 . S
C574 H587 0.961 . S
C574 H588 0.961 . S
C575 C572 1.539 . S
C575 H589 0.958 . S
C575 H590 0.961 . S
C575 H591 0.960 . S
H576 C560 0.931 . S
H577 C565 0.929 . S
H578 C566 0.960 . S
H579 C566 0.962 . S
H580 C566 0.960 . S
H581 C567 0.961 . S
H582 C567 0.961 . S
H583 C567 0.961 . S
H584 C568 0.931 . S
H585 C573 0.930 . S
H586 C574 0.956 . S
H587 C574 0.961 . S
H588 C574 0.961 . S
H589 C575 0.958 . S
H590 C575 0.961 . S
H591 C575 0.960 . S
C592 C593 1.391 . S
C592 C594 1.394 . S
C592 H608 0.931 . S
C593 C592 1.391 . S
C593 C597 1.376 . S
C594 C592 1.394 . S
C594 C595 1.369 . S
C594 C598 1.531 . S
C595 C594 1.369 . S
C595 C596 1.410 . S
C595 C603 1.503 . S
C596 C595 1.410 . S
C596 C597 1.392 . S
C596 C599 1.511 . S
C597 C593 1.376 . S
C597 C596 1.392 . S
C597 H609 0.929 . S
C598 C594 1.531 . S
C598 H610 0.960 . S
C598 H611 0.962 . S
C598 H612 0.960 . S
C599 C596 1.511 . S
C599 H613 0.961 . S
C599 H614 0.961 . S
C599 H615 0.961 . S
C600 C601 1.370 . S
C600 C602 1.363 . S
C600 H616 0.931 . S
C601 C600 1.370 . S
C601 C605 1.408 . S
C602 C600 1.363 . S
C602 C603 1.370 . S
C602 C606 1.524 . S
C603 C595 1.503 . S
C603 C602 1.370 . S
C603 C604 1.403 . S
C604 C603 1.403 . S
C604 C605 1.404 . S
C604 C607 1.539 . S
C605 C601 1.408 . S
C605 C604 1.404 . S
C605 H617 0.930 . S
C606 C602 1.524 . S
C606 H618 0.956 . S
C606 H619 0.961 . S
C606 H620 0.961 . S
C607 C604 1.539 . S
C607 H621 0.958 . S
C607 H622 0.961 . S
C607 H623 0.960 . S
H608 C592 0.931 . S
H609 C597 0.929 . S
H610 C598 0.960 . S
H611 C598 0.962 . S
H612 C598 0.960 . S
H613 C599 0.961 . S
H614 C599 0.961 . S
H615 C599 0.961 . S
H616 C600 0.931 . S
H617 C605 0.930 . S
H618 C606 0.956 . S
H619 C606 0.961 . S
H620 C606 0.961 . S
H621 C607 0.958 . S
H622 C607 0.961 . S
H623 C607 0.960 . S
C624 C625 1.391 . S
C624 C626 1.394 . S
C624 H640 0.931 . S
C625 C624 1.391 . S
C625 C629 1.376 . S
C626 C624 1.394 . S
C626 C627 1.369 . S
C626 C630 1.531 . S
C627 C626 1.369 . S
C627 C628 1.410 . S
C627 C635 1.503 . S
C628 C627 1.410 . S
C628 C629 1.392 . S
C628 C631 1.511 . S
C629 C625 1.376 . S
C629 C628 1.392 . S
C629 H641 0.929 . S
C630 C626 1.531 . S
C630 H642 0.960 . S
C630 H643 0.962 . S
C630 H644 0.960 . S
C631 C628 1.511 . S
C631 H645 0.961 . S
C631 H646 0.961 . S
C631 H647 0.961 . S
C632 C633 1.370 . S
C632 C634 1.363 . S
C632 H648 0.931 . S
C633 C632 1.370 . S
C633 C637 1.408 . S
C634 C632 1.363 . S
C634 C635 1.370 . S
C634 C638 1.524 . S
C635 C627 1.503 . S
C635 C634 1.370 . S
C635 C636 1.403 . S
C636 C635 1.403 . S
C636 C637 1.404 . S
C636 C639 1.539 . S
C637 C633 1.408 . S
C637 C636 1.404 . S
C637 H649 0.930 . S
C638 C634 1.524 . S
C638 H650 0.956 . S
C638 H651 0.961 . S
C638 H652 0.961 . S
C639 C636 1.539 . S
C639 H653 0.958 . S
C639 H654 0.961 . S
C639 H655 0.960 . S
H640 C624 0.931 . S
H641 C629 0.929 . S
H642 C630 0.960 . S
H643 C630 0.962 . S
H644 C630 0.960 . S
H645 C631 0.961 . S
H646 C631 0.961 . S
H647 C631 0.961 . S
H648 C632 0.931 . S
H649 C637 0.930 . S
H650 C638 0.956 . S
H651 C638 0.961 . S
H652 C638 0.961 . S
H653 C639 0.958 . S
H654 C639 0.961 . S
H655 C639 0.960 . S
C656 C657 1.391 . S
C656 C658 1.394 . S
C656 H672 0.931 . S
C657 C656 1.391 . S
C657 C661 1.376 . S
C658 C656 1.394 . S
C658 C659 1.369 . S
C658 C662 1.531 . S
C659 C658 1.369 . S
C659 C660 1.410 . S
C659 C667 1.503 . S
C660 C659 1.410 . S
C660 C661 1.392 . S
C660 C663 1.511 . S
C661 C657 1.376 . S
C661 C660 1.392 . S
C661 H673 0.929 . S
C662 C658 1.531 . S
C662 H674 0.960 . S
C662 H675 0.962 . S
C662 H676 0.960 . S
C663 C660 1.511 . S
C663 H677 0.961 . S
C663 H678 0.961 . S
C663 H679 0.961 . S
C664 C665 1.370 . S
C664 C666 1.363 . S
C664 H680 0.931 . S
C665 C664 1.370 . S
C665 C669 1.408 . S
C666 C664 1.363 . S
C666 C667 1.370 . S
C666 C670 1.524 . S
C667 C659 1.503 . S
C667 C666 1.370 . S
C667 C668 1.403 . S
C668 C667 1.403 . S
C668 C669 1.404 . S
C668 C671 1.539 . S
C669 C665 1.408 . S
C669 C668 1.404 . S
C669 H681 0.930 . S
C670 C666 1.524 . S
C670 H682 0.956 . S
C670 H683 0.961 . S
C670 H684 0.961 . S
C671 C668 1.539 . S
C671 H685 0.958 . S
C671 H686 0.961 . S
C671 H687 0.960 . S
H672 C656 0.931 . S
H673 C661 0.929 . S
H674 C662 0.960 . S
H675 C662 0.962 . S
H676 C662 0.960 . S
H677 C663 0.961 . S
H678 C663 0.961 . S
H679 C663 0.961 . S
H680 C664 0.931 . S
H681 C669 0.930 . S
H682 C670 0.956 . S
H683 C670 0.961 . S
H684 C670 0.961 . S
H685 C671 0.958 . S
H686 C671 0.961 . S
H687 C671 0.960 . S
C688 C689 1.391 . S
C688 C690 1.394 . S
C688 H704 0.931 . S
C689 C688 1.391 . S
C689 C693 1.376 . S
C690 C688 1.394 . S
C690 C691 1.369 . S
C690 C694 1.531 . S
C691 C690 1.369 . S
C691 C692 1.410 . S
C691 C699 1.503 . S
C692 C691 1.410 . S
C692 C693 1.392 . S
C692 C695 1.511 . S
C693 C689 1.376 . S
C693 C692 1.392 . S
C693 H705 0.929 . S
C694 C690 1.531 . S
C694 H706 0.960 . S
C694 H707 0.962 . S
C694 H708 0.960 . S
C695 C692 1.511 . S
C695 H709 0.961 . S
C695 H710 0.961 . S
C695 H711 0.961 . S
C696 C697 1.370 . S
C696 C698 1.363 . S
C696 H712 0.931 . S
C697 C696 1.370 . S
C697 C701 1.408 . S
C698 C696 1.363 . S
C698 C699 1.370 . S
C698 C702 1.524 . S
C699 C691 1.503 . S
C699 C698 1.370 . S
C699 C700 1.403 . S
C700 C699 1.403 . S
C700 C701 1.404 . S
C700 C703 1.539 . S
C701 C697 1.408 . S
C701 C700 1.404 . S
C701 H713 0.930 . S
C702 C698 1.524 . S
C702 H714 0.956 . S
C702 H715 0.961 . S
C702 H716 0.961 . S
C703 C700 1.539 . S
C703 H717 0.958 . S
C703 H718 0.961 . S
C703 H719 0.960 . S
H704 C688 0.931 . S
H705 C693 0.929 . S
H706 C694 0.960 . S
H707 C694 0.962 . S
H708 C694 0.960 . S
H709 C695 0.961 . S
H710 C695 0.961 . S
H711 C695 0.961 . S
H712 C696 0.931 . S
H713 C701 0.930 . S
H714 C702 0.956 . S
H715 C702 0.961 . S
H716 C702 0.961 . S
H717 C703 0.958 . S
H718 C703 0.961 . S
H719 C703 0.960 . S
C720 C721 1.391 . S
C720 C722 1.394 . S
C720 H736 0.931 . S
C721 C720 1.391 . S
C721 C725 1.376 . S
C722 C720 1.394 . S
C722 C723 1.369 . S
C722 C726 1.531 . S
C723 C722 1.369 . S
C723 C724 1.410 1_556 S
C723 C731 1.503 1_556 S
C724 C723 1.410 1_554 S
C724 C725 1.392 1_554 S
C724 C727 1.511 . S
C725 C721 1.376 . S
C725 C724 1.392 1_556 S
C725 H737 0.929 . S
C726 C722 1.531 . S
C726 H738 0.960 . S
C726 H739 0.962 . S
C726 H740 0.960 . S
C727 C724 1.511 . S
C727 H741 0.961 . S
C727 H742 0.961 . S
C727 H743 0.961 . S
C728 C729 1.370 . S
C728 C730 1.372 . S
C728 H744 0.931 . S
C729 C728 1.370 . S
C729 C733 1.408 . S
C730 C728 1.372 . S
C730 C731 1.377 . S
C730 C734 1.509 1_554 S
C731 C723 1.503 1_554 S
C731 C730 1.377 . S
C731 C732 1.403 . S
C732 C731 1.403 . S
C732 C733 1.404 . S
C732 C735 1.539 . S
C733 C729 1.408 . S
C733 C732 1.404 . S
C733 H745 0.930 . S
C734 C730 1.509 1_556 S
C734 H746 0.956 . S
C734 H747 0.961 . S
C734 H748 0.961 . S
C735 C732 1.539 . S
C735 H749 0.958 . S
C735 H750 0.961 . S
C735 H751 0.960 . S
H736 C720 0.931 . S
H737 C725 0.929 . S
H738 C726 0.960 . S
H739 C726 0.962 . S
H740 C726 0.960 . S
H741 C727 0.961 . S
H742 C727 0.961 . S
H743 C727 0.961 . S
H744 C728 0.931 . S
H745 C733 0.930 . S
H746 C734 0.956 . S
H747 C734 0.961 . S
H748 C734 0.961 . S
H749 C735 0.958 . S
H750 C735 0.961 . S
H751 C735 0.960 . S
C752 C753 1.391 . S
C752 C754 1.394 . S
C752 H768 0.931 . S
C753 C752 1.391 . S
C753 C757 1.376 . S
C754 C752 1.394 . S
C754 C755 1.369 . S
C754 C758 1.531 . S
C755 C754 1.369 . S
C755 C756 1.410 . S
C755 C763 1.503 . S
C756 C755 1.410 . S
C756 C757 1.392 . S
C756 C759 1.511 . S
C757 C753 1.376 . S
C757 C756 1.392 . S
C757 H769 0.929 . S
C758 C754 1.531 . S
C758 H770 0.960 . S
C758 H771 0.962 . S
C758 H772 0.960 . S
C759 C756 1.511 . S
C759 H773 0.961 . S
C759 H774 0.961 . S
C759 H775 0.961 . S
C760 C761 1.370 . S
C760 C762 1.363 . S
C760 H776 0.931 . S
C761 C760 1.370 . S
C761 C765 1.408 . S
C762 C760 1.363 . S
C762 C763 1.370 . S
C762 C766 1.524 . S
C763 C755 1.503 . S
C763 C762 1.370 . S
C763 C764 1.403 . S
C764 C763 1.403 . S
C764 C765 1.404 . S
C764 C767 1.539 . S
C765 C761 1.408 . S
C765 C764 1.404 . S
C765 H777 0.930 . S
C766 C762 1.524 . S
C766 H778 0.956 . S
C766 H779 0.961 . S
C766 H780 0.961 . S
C767 C764 1.539 . S
C767 H781 0.958 . S
C767 H782 0.961 . S
C767 H783 0.960 . S
H768 C752 0.931 . S
H769 C757 0.929 . S
H770 C758 0.960 . S
H771 C758 0.962 . S
H772 C758 0.960 . S
H773 C759 0.961 . S
H774 C759 0.961 . S
H775 C759 0.961 . S
H776 C760 0.931 . S
H777 C765 0.930 . S
H778 C766 0.956 . S
H779 C766 0.961 . S
H780 C766 0.961 . S
H781 C767 0.958 . S
H782 C767 0.961 . S
H783 C767 0.960 . S
C784 C785 1.391 . S
C784 C786 1.394 . S
C784 H800 0.931 . S
C785 C784 1.391 . S
C785 C789 1.376 . S
C786 C784 1.394 . S
C786 C787 1.369 . S
C786 C790 1.531 1_554 S
C787 C786 1.369 . S
C787 C788 1.410 . S
C787 C795 1.503 1_554 S
C788 C787 1.410 . S
C788 C789 1.392 . S
C788 C791 1.511 . S
C789 C785 1.376 . S
C789 C788 1.392 . S
C789 H801 0.929 . S
C790 C786 1.531 1_556 S
C790 H802 0.960 . S
C790 H803 0.962 . S
C790 H804 0.960 . S
C791 C788 1.511 . S
C791 H805 0.961 . S
C791 H806 0.961 . S
C791 H807 0.961 1_554 S
C792 C793 1.370 . S
C792 C794 1.363 1_556 S
C792 H808 0.915 1_556 S
C793 C792 1.370 . S
C793 C797 1.408 . S
C794 C792 1.363 1_554 S
C794 C795 1.370 1_554 S
C794 C798 1.524 . S
C795 C787 1.503 1_556 S
C795 C794 1.370 1_556 S
C795 C796 1.403 . S
C796 C795 1.403 . S
C796 C797 1.404 . S
C796 C799 1.539 . S
C797 C793 1.408 . S
C797 C796 1.404 . S
C797 H809 0.930 . S
C798 C794 1.524 . S
C798 H810 0.956 . S
C798 H811 0.961 . S
C798 H812 0.961 . S
C799 C796 1.539 . S
C799 H813 0.958 . S
C799 H814 0.961 . S
C799 H815 0.960 . S
H800 C784 0.931 . S
H801 C789 0.929 . S
H802 C790 0.960 . S
H803 C790 0.962 . S
H804 C790 0.960 . S
H805 C791 0.961 . S
H806 C791 0.961 . S
H807 C791 0.961 1_556 S
H808 C792 0.915 1_554 S
H809 C797 0.930 . S
H810 C798 0.956 . S
H811 C798 0.961 . S
H812 C798 0.961 . S
H813 C799 0.958 . S
H814 C799 0.961 . S
H815 C799 0.960 . S
C816 C817 1.391 . S
C816 C818 1.394 . S
C816 H832 0.931 . S
C817 C816 1.391 . S
C817 C821 1.376 . S
C818 C816 1.394 . S
C818 C819 1.369 . S
C818 C822 1.531 . S
C819 C818 1.369 . S
C819 C820 1.410 . S
C819 C827 1.503 . S
C820 C819 1.410 . S
C820 C821 1.392 . S
C820 C823 1.511 . S
C821 C817 1.376 . S
C821 C820 1.392 . S
C821 H833 0.929 . S
C822 C818 1.531 . S
C822 H834 0.960 . S
C822 H835 0.962 . S
C822 H836 0.960 . S
C823 C820 1.511 . S
C823 H837 0.961 . S
C823 H838 0.961 . S
C823 H839 0.961 . S
C824 C825 1.370 . S
C824 C826 1.363 . S
C824 H840 0.931 . S
C825 C824 1.370 . S
C825 C829 1.408 . S
C826 C824 1.363 . S
C826 C827 1.370 . S
C826 C830 1.524 . S
C827 C819 1.503 . S
C827 C826 1.370 . S
C827 C828 1.403 . S
C828 C827 1.403 . S
C828 C829 1.404 . S
C828 C831 1.539 . S
C829 C825 1.408 . S
C829 C828 1.404 . S
C829 H841 0.930 . S
C830 C826 1.524 . S
C830 H842 0.956 . S
C830 H843 0.961 . S
C830 H844 0.961 . S
C831 C828 1.539 . S
C831 H845 0.958 . S
C831 H846 0.961 . S
C831 H847 0.960 . S
H832 C816 0.931 . S
H833 C821 0.929 . S
H834 C822 0.960 . S
H835 C822 0.962 . S
H836 C822 0.960 . S
H837 C823 0.961 . S
H838 C823 0.961 . S
H839 C823 0.961 . S
H840 C824 0.931 . S
H841 C829 0.930 . S
H842 C830 0.956 . S
H843 C830 0.961 . S
H844 C830 0.961 . S
H845 C831 0.958 . S
H846 C831 0.961 . S
H847 C831 0.960 . S
C848 C849 1.391 . S
C848 C850 1.394 . S
C848 H864 0.931 . S
C849 C848 1.391 . S
C849 C853 1.376 . S
C850 C848 1.394 . S
C850 C851 1.369 . S
C850 C854 1.531 . S
C851 C850 1.369 . S
C851 C852 1.410 1_556 S
C851 C859 1.503 1_556 S
C852 C851 1.410 1_554 S
C852 C853 1.392 1_554 S
C852 C855 1.511 . S
C853 C849 1.376 . S
C853 C852 1.392 1_556 S
C853 H865 0.929 . S
C854 C850 1.531 . S
C854 H866 0.960 . S
C854 H867 0.962 . S
C854 H868 0.960 . S
C855 C852 1.511 . S
C855 H869 0.961 . S
C855 H870 0.961 . S
C855 H871 0.961 . S
C856 C857 1.370 . S
C856 C858 1.363 . S
C856 H872 0.931 . S
C857 C856 1.370 . S
C857 C861 1.408 . S
C858 C856 1.363 . S
C858 C859 1.370 . S
C858 C862 1.524 . S
C859 C851 1.503 1_554 S
C859 C858 1.370 . S
C859 C860 1.403 . S
C860 C859 1.403 . S
C860 C861 1.404 . S
C860 C863 1.539 1_554 S
C861 C857 1.408 . S
C861 C860 1.404 . S
C861 H873 0.930 . S
C862 C858 1.524 . S
C862 H874 0.956 . S
C862 H875 0.961 . S
C862 H876 0.961 . S
C863 C860 1.539 1_556 S
C863 H877 0.958 . S
C863 H878 0.978 . S
C863 H879 0.960 . S
H864 C848 0.931 . S
H865 C853 0.929 . S
H866 C854 0.960 . S
H867 C854 0.962 . S
H868 C854 0.960 . S
H869 C855 0.961 . S
H870 C855 0.961 . S
H871 C855 0.961 . S
H872 C856 0.931 . S
H873 C861 0.930 . S
H874 C862 0.956 . S
H875 C862 0.961 . S
H876 C862 0.961 . S
H877 C863 0.958 . S
H878 C863 0.978 . S
H879 C863 0.960 . S
C880 C881 1.391 . S
C880 C882 1.394 . S
C880 H896 0.931 . S
C881 C880 1.391 . S
C881 C885 1.376 . S
C882 C880 1.394 . S
C882 C883 1.369 . S
C882 C886 1.531 . S
C883 C882 1.369 . S
C883 C884 1.410 . S
C883 C891 1.503 . S
C884 C883 1.410 . S
C884 C885 1.392 . S
C884 C887 1.511 . S
C885 C881 1.376 . S
C885 C884 1.392 . S
C885 H897 0.929 . S
C886 C882 1.531 . S
C886 H898 0.960 . S
C886 H899 0.962 . S
C886 H900 0.960 . S
C887 C884 1.511 . S
C887 H901 0.961 . S
C887 H902 0.961 . S
C887 H903 0.961 . S
C888 C889 1.370 . S
C888 C890 1.363 . S
C888 H904 0.931 . S
C889 C888 1.370 . S
C889 C893 1.408 . S
C890 C888 1.363 . S
C890 C891 1.370 . S
C890 C894 1.524 . S
C891 C883 1.503 . S
C891 C890 1.370 . S
C891 C892 1.403 . S
C892 C891 1.403 . S
C892 C893 1.404 . S
C892 C895 1.539 . S
C893 C889 1.408 . S
C893 C892 1.404 . S
C893 H905 0.930 . S
C894 C890 1.524 . S
C894 H906 0.956 . S
C894 H907 0.961 . S
C894 H908 0.961 . S
C895 C892 1.539 . S
C895 H909 0.958 . S
C895 H910 0.961 . S
C895 H911 0.960 . S
H896 C880 0.931 . S
H897 C885 0.929 . S
H898 C886 0.960 . S
H899 C886 0.962 . S
H900 C886 0.960 . S
H901 C887 0.961 . S
H902 C887 0.961 . S
H903 C887 0.961 . S
H904 C888 0.931 . S
H905 C893 0.930 . S
H906 C894 0.956 . S
H907 C894 0.961 . S
H908 C894 0.961 . S
H909 C895 0.958 . S
H910 C895 0.961 . S
H911 C895 0.960 . S
C912 C913 1.391 . S
C912 C914 1.394 . S
C912 H928 0.931 . S
C913 C912 1.391 . S
C913 C917 1.376 . S
C914 C912 1.394 . S
C914 C915 1.369 . S
C914 C918 1.531 . S
C915 C914 1.369 . S
C915 C916 1.410 1_554 S
C915 C923 1.503 1_554 S
C916 C915 1.410 1_556 S
C916 C917 1.392 1_556 S
C916 C919 1.511 . S
C917 C913 1.376 . S
C917 C916 1.392 1_554 S
C917 H929 0.930 1_554 S
C918 C914 1.531 . S
C918 H930 0.960 . S
C918 H931 0.962 . S
C918 H932 0.960 . S
C919 C916 1.511 . S
C919 H933 0.961 . S
C919 H934 0.961 . S
C919 H935 0.961 . S
C920 C921 1.370 . S
C920 C922 1.363 . S
C920 H936 0.931 . S
C921 C920 1.370 . S
C921 C925 1.408 . S
C922 C920 1.363 . S
C922 C923 1.370 . S
C922 C926 1.524 1_556 S
C923 C915 1.503 1_556 S
C923 C922 1.370 . S
C923 C924 1.403 . S
C924 C923 1.403 . S
C924 C925 1.404 . S
C924 C927 1.539 . S
C925 C921 1.408 . S
C925 C924 1.404 . S
C925 H937 0.930 . S
C926 C922 1.524 1_554 S
C926 H938 0.956 . S
C926 H939 0.961 . S
C926 H940 0.961 . S
C927 C924 1.539 . S
C927 H941 0.958 . S
C927 H942 0.961 . S
C927 H943 0.960 . S
H928 C912 0.931 . S
H929 C917 0.930 1_556 S
H930 C918 0.960 . S
H931 C918 0.962 . S
H932 C918 0.960 . S
H933 C919 0.961 . S
H934 C919 0.961 . S
H935 C919 0.961 . S
H936 C920 0.931 . S
H937 C925 0.930 . S
H938 C926 0.956 . S
H939 C926 0.961 . S
H940 C926 0.961 . S
H941 C927 0.958 . S
H942 C927 0.961 . S
H943 C927 0.960 . S
C944 C945 1.391 . S
C944 C946 1.394 . S
C944 H960 0.931 . S
C945 C944 1.391 . S
C945 C949 1.376 . S
C946 C944 1.394 . S
C946 C947 1.369 . S
C946 C950 1.531 . S
C947 C946 1.369 . S
C947 C948 1.410 . S
C947 C955 1.503 . S
C948 C947 1.410 . S
C948 C949 1.392 . S
C948 C951 1.511 . S
C949 C945 1.376 . S
C949 C948 1.392 . S
C949 H961 0.929 . S
C950 C946 1.531 . S
C950 H962 0.960 . S
C950 H963 0.962 . S
C950 H964 0.960 . S
C951 C948 1.511 . S
C951 H965 0.961 . S
C951 H966 0.961 . S
C951 H967 0.961 . S
C952 C953 1.370 . S
C952 C954 1.363 . S
C952 H968 0.931 . S
C953 C952 1.370 . S
C953 C957 1.408 . S
C954 C952 1.363 . S
C954 C955 1.370 . S
C954 C958 1.524 . S
C955 C947 1.503 . S
C955 C954 1.370 . S
C955 C956 1.403 . S
C956 C955 1.403 . S
C956 C957 1.404 . S
C956 C959 1.539 . S
C957 C953 1.408 . S
C957 C956 1.404 . S
C957 H969 0.930 . S
C958 C954 1.524 . S
C958 H970 0.956 . S
C958 H971 0.961 . S
C958 H972 0.961 . S
C959 C956 1.539 . S
C959 H973 0.958 . S
C959 H974 0.961 . S
C959 H975 0.960 . S
H960 C944 0.931 . S
H961 C949 0.929 . S
H962 C950 0.960 . S
H963 C950 0.962 . S
H964 C950 0.960 . S
H965 C951 0.961 . S
H966 C951 0.961 . S
H967 C951 0.961 . S
H968 C952 0.931 . S
H969 C957 0.930 . S
H970 C958 0.956 . S
H971 C958 0.961 . S
H972 C958 0.961 . S
H973 C959 0.958 . S
H974 C959 0.961 . S
H975 C959 0.960 . S
C976 C977 1.391 . S
C976 C978 1.394 . S
C976 H992 0.931 . S
C977 C976 1.391 . S
C977 C981 1.376 . S
C978 C976 1.394 . S
C978 C979 1.369 . S
C978 C982 1.531 . S
C979 C978 1.369 . S
C979 C980 1.410 . S
C979 C987 1.503 1_556 S
C980 C979 1.410 . S
C980 C981 1.392 . S
C980 C983 1.511 . S
C981 C977 1.376 . S
C981 C980 1.392 . S
C981 H993 0.929 . S
C982 C978 1.531 . S
C982 H994 0.960 . S
C982 H995 0.962 1_556 S
C982 H996 0.960 . S
C983 C980 1.511 . S
C983 H997 0.961 . S
C983 H998 0.961 . S
C983 H999 0.961 . S
C984 C985 1.370 . S
C984 C986 1.363 . S
C984 H1000 0.931 . S
C985 C984 1.370 . S
C985 C989 1.408 . S
C986 C984 1.363 . S
C986 C987 1.370 . S
C986 C990 1.524 . S
C987 C979 1.503 1_554 S
C987 C986 1.370 . S
C987 C988 1.403 1_554 S
C988 C987 1.403 1_556 S
C988 C989 1.404 1_556 S
C988 C991 1.539 . S
C989 C985 1.408 . S
C989 C988 1.404 1_554 S
C989 H1001 0.930 1_554 S
C990 C986 1.524 . S
C990 H1002 0.956 . S
C990 H1003 0.961 . S
C990 H1004 0.961 . S
C991 C988 1.539 . S
C991 H1005 0.958 . S
C991 H1006 0.961 . S
C991 H1007 0.960 . S
H992 C976 0.931 . S
H993 C981 0.929 . S
H994 C982 0.960 . S
H995 C982 0.962 1_554 S
H996 C982 0.960 . S
H997 C983 0.961 . S
H998 C983 0.961 . S
H999 C983 0.961 . S
H1000 C984 0.931 . S
H1001 C989 0.930 1_556 S
H1002 C990 0.956 . S
H1003 C990 0.961 . S
H1004 C990 0.961 . S
H1005 C991 0.958 . S
H1006 C991 0.961 . S
H1007 C991 0.960 . S
C1008 C1009 1.391 . S
C1008 C1010 1.394 . S
C1008 H1024 0.931 . S
C1009 C1008 1.391 . S
C1009 C1013 1.376 . S
C1010 C1008 1.394 . S
C1010 C1011 1.369 . S
C1010 C1014 1.531 . S
C1011 C1010 1.369 . S
C1011 C1012 1.410 . S
C1011 C1019 1.503 . S
C1012 C1011 1.410 . S
C1012 C1013 1.392 . S
C1012 C1015 1.511 . S
C1013 C1009 1.376 . S
C1013 C1012 1.392 . S
C1013 H1025 0.929 . S
C1014 C1010 1.531 . S
C1014 H1026 0.960 . S
C1014 H1027 0.962 . S
C1014 H1028 0.960 . S
C1015 C1012 1.511 . S
C1015 H1029 0.961 . S
C1015 H1030 0.961 . S
C1015 H1031 0.961 . S
C1016 C1017 1.370 . S
C1016 C1018 1.363 . S
C1016 H1032 0.931 . S
C1017 C1016 1.370 . S
C1017 C1021 1.408 . S
C1018 C1016 1.363 . S
C1018 C1019 1.370 . S
C1018 C1022 1.524 . S
C1019 C1011 1.503 . S
C1019 C1018 1.370 . S
C1019 C1020 1.403 . S
C1020 C1019 1.403 . S
C1020 C1021 1.404 . S
C1020 C1023 1.539 . S
C1021 C1017 1.408 . S
C1021 C1020 1.404 . S
C1021 H1033 0.930 . S
C1022 C1018 1.524 . S
C1022 H1034 0.956 . S
C1022 H1035 0.961 . S
C1022 H1036 0.961 . S
C1023 C1020 1.539 . S
C1023 H1037 0.958 . S
C1023 H1038 0.961 . S
C1023 H1039 0.960 . S
H1024 C1008 0.931 . S
H1025 C1013 0.929 . S
H1026 C1014 0.960 . S
H1027 C1014 0.962 . S
H1028 C1014 0.960 . S
H1029 C1015 0.961 . S
H1030 C1015 0.961 . S
H1031 C1015 0.961 . S
H1032 C1016 0.931 . S
H1033 C1021 0.930 . S
H1034 C1022 0.956 . S
H1035 C1022 0.961 . S
H1036 C1022 0.961 . S
H1037 C1023 0.958 . S
H1038 C1023 0.961 . S
H1039 C1023 0.960 . S
C1040 C1041 1.391 . S
C1040 C1042 1.394 1_556 S
C1040 H1056 0.931 . S
C1041 C1040 1.391 . S
C1041 C1045 1.376 . S
C1042 C1040 1.394 1_554 S
C1042 C1043 1.369 1_554 S
C1042 C1046 1.531 . S
C1043 C1042 1.369 1_556 S
C1043 C1044 1.410 . S
C1043 C1051 1.503 1_556 S
C1044 C1043 1.410 . S
C1044 C1045 1.392 . S
C1044 C1047 1.511 . S
C1045 C1041 1.376 . S
C1045 C1044 1.392 . S
C1045 H1057 0.929 . S
C1046 C1042 1.531 . S
C1046 H1058 0.960 . S
C1046 H1059 0.962 . S
C1046 H1060 0.960 . S
C1047 C1044 1.511 . S
C1047 H1061 0.961 . S
C1047 H1062 0.961 . S
C1047 H1063 0.961 . S
C1048 C1049 1.370 . S
C1048 C1050 1.363 . S
C1048 H1064 0.931 . S
C1049 C1048 1.370 . S
C1049 C1053 1.408 . S
C1050 C1048 1.363 . S
C1050 C1051 1.370 . S
C1050 C1054 1.524 1_554 S
C1051 C1043 1.503 1_554 S
C1051 C1050 1.370 . S
C1051 C1052 1.403 . S
C1052 C1051 1.403 . S
C1052 C1053 1.404 . S
C1052 C1055 1.539 . S
C1053 C1049 1.408 . S
C1053 C1052 1.404 . S
C1053 H1065 0.930 . S
C1054 C1050 1.524 1_556 S
C1054 H1066 0.956 . S
C1054 H1067 0.961 . S
C1054 H1068 0.961 . S
C1055 C1052 1.539 . S
C1055 H1069 0.958 . S
C1055 H1070 0.961 . S
C1055 H1071 0.960 . S
H1056 C1040 0.931 . S
H1057 C1045 0.929 . S
H1058 C1046 0.960 . S
H1059 C1046 0.962 . S
H1060 C1046 0.960 . S
H1061 C1047 0.961 . S
H1062 C1047 0.961 . S
H1063 C1047 0.961 . S
H1064 C1048 0.931 . S
H1065 C1053 0.930 . S
H1066 C1054 0.956 . S
H1067 C1054 0.961 . S
H1068 C1054 0.961 . S
H1069 C1055 0.958 . S
H1070 C1055 0.961 . S
H1071 C1055 0.960 . S
C1072 C1073 1.391 . S
C1072 C1074 1.394 . S
C1072 H1088 0.931 . S
C1073 C1072 1.391 . S
C1073 C1077 1.376 . S
C1074 C1072 1.394 . S
C1074 C1075 1.369 . S
C1074 C1078 1.531 . S
C1075 C1074 1.369 . S
C1075 C1076 1.410 . S
C1075 C1083 1.503 . S
C1076 C1075 1.410 . S
C1076 C1077 1.392 . S
C1076 C1079 1.511 . S
C1077 C1073 1.376 . S
C1077 C1076 1.392 . S
C1077 H1089 0.929 . S
C1078 C1074 1.531 . S
C1078 H1090 0.960 . S
C1078 H1091 0.962 . S
C1078 H1092 0.960 . S
C1079 C1076 1.511 . S
C1079 H1093 0.961 . S
C1079 H1094 0.961 . S
C1079 H1095 0.961 . S
C1080 C1081 1.370 . S
C1080 C1082 1.363 . S
C1080 H1096 0.931 . S
C1081 C1080 1.370 . S
C1081 C1085 1.408 . S
C1082 C1080 1.363 . S
C1082 C1083 1.370 . S
C1082 C1086 1.524 . S
C1083 C1075 1.503 . S
C1083 C1082 1.370 . S
C1083 C1084 1.403 . S
C1084 C1083 1.403 . S
C1084 C1085 1.404 . S
C1084 C1087 1.539 . S
C1085 C1081 1.408 . S
C1085 C1084 1.404 . S
C1085 H1097 0.930 . S
C1086 C1082 1.524 . S
C1086 H1098 0.956 . S
C1086 H1099 0.961 . S
C1086 H1100 0.961 . S
C1087 C1084 1.539 . S
C1087 H1101 0.958 . S
C1087 H1102 0.961 . S
C1087 H1103 0.960 . S
H1088 C1072 0.931 . S
H1089 C1077 0.929 . S
H1090 C1078 0.960 . S
H1091 C1078 0.962 . S
H1092 C1078 0.960 . S
H1093 C1079 0.961 . S
H1094 C1079 0.961 . S
H1095 C1079 0.961 . S
H1096 C1080 0.931 . S
H1097 C1085 0.930 . S
H1098 C1086 0.956 . S
H1099 C1086 0.961 . S
H1100 C1086 0.961 . S
H1101 C1087 0.958 . S
H1102 C1087 0.961 . S
H1103 C1087 0.960 . S
C1104 C1105 1.391 . S
C1104 C1106 1.394 . S
C1104 H1120 0.931 . S
C1105 C1104 1.391 . S
C1105 C1109 1.376 . S
C1106 C1104 1.394 . S
C1106 C1107 1.369 . S
C1106 C1110 1.531 . S
C1107 C1106 1.369 . S
C1107 C1108 1.410 . S
C1107 C1115 1.503 . S
C1108 C1107 1.410 . S
C1108 C1109 1.392 . S
C1108 C1111 1.511 . S
C1109 C1105 1.376 . S
C1109 C1108 1.392 . S
C1109 H1121 0.929 . S
C1110 C1106 1.531 . S
C1110 H1122 0.960 . S
C1110 H1123 0.962 . S
C1110 H1124 0.960 . S
C1111 C1108 1.511 . S
C1111 H1125 0.961 . S
C1111 H1126 0.961 . S
C1111 H1127 0.961 . S
C1112 C1113 1.370 . S
C1112 C1114 1.363 . S
C1112 H1128 0.931 . S
C1113 C1112 1.370 . S
C1113 C1117 1.408 . S
C1114 C1112 1.363 . S
C1114 C1115 1.370 . S
C1114 C1118 1.524 . S
C1115 C1107 1.503 . S
C1115 C1114 1.370 . S
C1115 C1116 1.403 . S
C1116 C1115 1.403 . S
C1116 C1117 1.404 . S
C1116 C1119 1.539 . S
C1117 C1113 1.408 . S
C1117 C1116 1.404 . S
C1117 H1129 0.930 . S
C1118 C1114 1.524 . S
C1118 H1130 0.956 . S
C1118 H1131 0.961 . S
C1118 H1132 0.961 . S
C1119 C1116 1.539 . S
C1119 H1133 0.958 . S
C1119 H1134 0.961 . S
C1119 H1135 0.960 . S
H1120 C1104 0.931 . S
H1121 C1109 0.929 . S
H1122 C1110 0.960 . S
H1123 C1110 0.962 . S
H1124 C1110 0.960 . S
H1125 C1111 0.961 . S
H1126 C1111 0.961 . S
H1127 C1111 0.961 . S
H1128 C1112 0.931 . S
H1129 C1117 0.930 . S
H1130 C1118 0.956 . S
H1131 C1118 0.961 . S
H1132 C1118 0.961 . S
H1133 C1119 0.958 . S
H1134 C1119 0.961 . S
H1135 C1119 0.960 . S
C1136 C1137 1.391 . S
C1136 C1138 1.394 . S
C1136 H1152 0.931 . S
C1137 C1136 1.391 . S
C1137 C1141 1.376 . S
C1138 C1136 1.394 . S
C1138 C1139 1.369 . S
C1138 C1142 1.531 . S
C1139 C1138 1.369 . S
C1139 C1140 1.410 . S
C1139 C1147 1.503 1_455 S
C1140 C1139 1.410 . S
C1140 C1141 1.392 . S
C1140 C1143 1.511 . S
C1141 C1137 1.376 . S
C1141 C1140 1.392 . S
C1141 H1153 0.929 . S
C1142 C1138 1.531 . S
C1142 H1154 0.960 1_455 S
C1142 H1155 0.962 . S
C1142 H1156 0.960 . S
C1143 C1140 1.511 . S
C1143 H1157 0.961 . S
C1143 H1158 0.961 1_455 S
C1143 H1159 0.961 . S
C1144 C1145 1.370 . S
C1144 C1146 1.363 . S
C1144 H1160 0.931 . S
C1145 C1144 1.370 . S
C1145 C1149 1.408 . S
C1146 C1144 1.363 . S
C1146 C1147 1.370 . S
C1146 C1150 1.524 . S
C1147 C1139 1.503 1_655 S
C1147 C1146 1.370 . S
C1147 C1148 1.403 . S
C1148 C1147 1.403 . S
C1148 C1149 1.404 . S
C1148 C1151 1.539 . S
C1149 C1145 1.408 . S
C1149 C1148 1.404 . S
C1149 H1161 0.930 . S
C1150 C1146 1.524 . S
C1150 H1162 0.956 . S
C1150 H1163 0.961 1_655 S
C1150 H1164 0.961 . S
C1151 C1148 1.539 . S
C1151 H1165 0.958 . S
C1151 H1166 0.961 . S
C1151 H1167 0.972 . S
H1152 C1136 0.931 . S
H1153 C1141 0.929 . S
H1154 C1142 0.960 1_655 S
H1155 C1142 0.962 . S
H1156 C1142 0.960 . S
H1157 C1143 0.961 . S
H1158 C1143 0.961 1_655 S
H1159 C1143 0.961 . S
H1160 C1144 0.931 . S
H1161 C1149 0.930 . S
H1162 C1150 0.956 . S
H1163 C1150 0.961 1_455 S
H1164 C1150 0.961 . S
H1165 C1151 0.958 . S
H1166 C1151 0.961 . S
H1167 C1151 0.972 . S
C1168 C1169 1.391 . S
C1168 C1170 1.394 . S
C1168 H1184 0.931 . S
C1169 C1168 1.391 . S
C1169 C1173 1.376 . S
C1170 C1168 1.394 . S
C1170 C1171 1.369 . S
C1170 C1174 1.531 . S
C1171 C1170 1.369 . S
C1171 C1172 1.410 . S
C1171 C1179 1.503 1_565 S
C1172 C1171 1.410 . S
C1172 C1173 1.392 . S
C1172 C1175 1.511 . S
C1173 C1169 1.376 . S
C1173 C1172 1.392 . S
C1173 H1185 0.929 . S
C1174 C1170 1.531 . S
C1174 H1186 0.960 1_565 S
C1174 H1187 0.962 . S
C1174 H1188 0.960 . S
C1175 C1172 1.511 . S
C1175 H1189 0.961 . S
C1175 H1190 0.961 1_565 S
C1175 H1191 0.961 . S
C1176 C1177 1.370 . S
C1176 C1178 1.363 . S
C1176 H1192 0.931 . S
C1177 C1176 1.370 . S
C1177 C1181 1.408 . S
C1178 C1176 1.363 . S
C1178 C1179 1.370 . S
C1178 C1182 1.524 . S
C1179 C1171 1.503 1_545 S
C1179 C1178 1.370 . S
C1179 C1180 1.403 . S
C1180 C1179 1.403 . S
C1180 C1181 1.404 . S
C1180 C1183 1.539 . S
C1181 C1177 1.408 . S
C1181 C1180 1.404 . S
C1181 H1193 0.930 . S
C1182 C1178 1.524 . S
C1182 H1194 0.956 . S
C1182 H1195 0.961 1_545 S
C1182 H1196 0.961 . S
C1183 C1180 1.539 . S
C1183 H1197 0.958 . S
C1183 H1198 0.961 . S
C1183 H1199 0.973 . S
H1184 C1168 0.931 . S
H1185 C1173 0.929 . S
H1186 C1174 0.960 1_545 S
H1187 C1174 0.962 . S
H1188 C1174 0.960 . S
H1189 C1175 0.961 . S
H1190 C1175 0.961 1_545 S
H1191 C1175 0.961 . S
H1192 C1176 0.931 . S
H1193 C1181 0.930 . S
H1194 C1182 0.956 . S
H1195 C1182 0.961 1_565 S
H1196 C1182 0.961 . S
H1197 C1183 0.958 . S
H1198 C1183 0.961 . S
H1199 C1183 0.973 . S
C1200 C1201 1.391 . S
C1200 C1202 1.394 . S
C1200 H1216 0.931 . S
C1201 C1200 1.391 . S
C1201 C1205 1.376 . S
C1202 C1200 1.394 . S
C1202 C1203 1.369 . S
C1202 C1206 1.531 . S
C1203 C1202 1.369 . S
C1203 C1204 1.410 . S
C1203 C1211 1.503 . S
C1204 C1203 1.410 . S
C1204 C1205 1.392 . S
C1204 C1207 1.511 . S
C1205 C1201 1.376 . S
C1205 C1204 1.392 . S
C1205 H1217 0.929 . S
C1206 C1202 1.531 . S
C1206 H1218 0.960 . S
C1206 H1219 0.962 . S
C1206 H1220 0.960 . S
C1207 C1204 1.511 . S
C1207 H1221 0.961 . S
C1207 H1222 0.961 . S
C1207 H1223 0.961 . S
C1208 C1209 1.370 . S
C1208 C1210 1.363 . S
C1208 H1224 0.931 . S
C1209 C1208 1.370 . S
C1209 C1213 1.408 . S
C1210 C1208 1.363 . S
C1210 C1211 1.370 . S
C1210 C1214 1.524 . S
C1211 C1203 1.503 . S
C1211 C1210 1.370 . S
C1211 C1212 1.403 . S
C1212 C1211 1.403 . S
C1212 C1213 1.404 . S
C1212 C1215 1.539 . S
C1213 C1209 1.408 . S
C1213 C1212 1.404 . S
C1213 H1225 0.930 . S
C1214 C1210 1.524 . S
C1214 H1226 0.956 . S
C1214 H1227 0.961 . S
C1214 H1228 0.961 . S
C1215 C1212 1.539 . S
C1215 H1229 0.958 . S
C1215 H1230 0.961 . S
C1215 H1231 0.960 . S
H1216 C1200 0.931 . S
H1217 C1205 0.929 . S
H1218 C1206 0.960 . S
H1219 C1206 0.962 . S
H1220 C1206 0.960 . S
H1221 C1207 0.961 . S
H1222 C1207 0.961 . S
H1223 C1207 0.961 . S
H1224 C1208 0.931 . S
H1225 C1213 0.930 . S
H1226 C1214 0.956 . S
H1227 C1214 0.961 . S
H1228 C1214 0.961 . S
H1229 C1215 0.958 . S
H1230 C1215 0.961 . S
H1231 C1215 0.960 . S
C1232 C1233 1.391 . S
C1232 C1234 1.394 . S
C1232 H1248 0.931 . S
C1233 C1232 1.391 . S
C1233 C1237 1.376 . S
C1234 C1232 1.394 . S
C1234 C1235 1.369 . S
C1234 C1238 1.531 . S
C1235 C1234 1.369 . S
C1235 C1236 1.410 . S
C1235 C1243 1.503 1_655 S
C1236 C1235 1.410 . S
C1236 C1237 1.392 . S
C1236 C1239 1.511 . S
C1237 C1233 1.376 . S
C1237 C1236 1.392 . S
C1237 H1249 0.929 . S
C1238 C1234 1.531 . S
C1238 H1250 0.960 1_655 S
C1238 H1251 0.962 . S
C1238 H1252 0.960 . S
C1239 C1236 1.511 . S
C1239 H1253 0.961 . S
C1239 H1254 0.961 1_655 S
C1239 H1255 0.961 . S
C1240 C1241 1.370 . S
C1240 C1242 1.363 . S
C1240 H1256 0.931 . S
C1241 C1240 1.370 . S
C1241 C1245 1.408 . S
C1242 C1240 1.363 . S
C1242 C1243 1.370 . S
C1242 C1246 1.524 . S
C1243 C1235 1.503 1_455 S
C1243 C1242 1.370 . S
C1243 C1244 1.403 . S
C1244 C1243 1.403 . S
C1244 C1245 1.404 . S
C1244 C1247 1.539 . S
C1245 C1241 1.408 . S
C1245 C1244 1.404 . S
C1245 H1257 0.930 . S
C1246 C1242 1.524 . S
C1246 H1258 0.956 . S
C1246 H1259 0.961 1_455 S
C1246 H1260 0.961 . S
C1247 C1244 1.539 . S
C1247 H1261 0.958 . S
C1247 H1262 0.961 . S
C1247 H1263 0.968 . S
H1248 C1232 0.931 . S
H1249 C1237 0.929 . S
H1250 C1238 0.960 1_455 S
H1251 C1238 0.962 . S
H1252 C1238 0.960 . S
H1253 C1239 0.961 . S
H1254 C1239 0.961 1_455 S
H1255 C1239 0.961 . S
H1256 C1240 0.931 . S
H1257 C1245 0.930 . S
H1258 C1246 0.956 . S
H1259 C1246 0.961 1_655 S
H1260 C1246 0.961 . S
H1261 C1247 0.958 . S
H1262 C1247 0.961 . S
H1263 C1247 0.968 . S
C1264 C1265 1.391 . S
C1264 C1266 1.394 . S
C1264 H1280 0.931 . S
C1265 C1264 1.391 . S
C1265 C1269 1.376 . S
C1266 C1264 1.394 . S
C1266 C1267 1.369 . S
C1266 C1270 1.531 . S
C1267 C1266 1.369 . S
C1267 C1268 1.410 . S
C1267 C1275 1.503 1_545 S
C1268 C1267 1.410 . S
C1268 C1269 1.392 . S
C1268 C1271 1.511 . S
C1269 C1265 1.376 . S
C1269 C1268 1.392 . S
C1269 H1281 0.929 . S
C1270 C1266 1.531 . S
C1270 H1282 0.960 1_545 S
C1270 H1283 0.962 . S
C1270 H1284 0.960 . S
C1271 C1268 1.511 . S
C1271 H1285 0.961 . S
C1271 H1286 0.961 1_545 S
C1271 H1287 0.961 . S
C1272 C1273 1.370 . S
C1272 C1274 1.363 . S
C1272 H1288 0.931 . S
C1273 C1272 1.370 . S
C1273 C1277 1.408 . S
C1274 C1272 1.363 . S
C1274 C1275 1.370 . S
C1274 C1278 1.524 . S
C1275 C1267 1.503 1_565 S
C1275 C1274 1.370 . S
C1275 C1276 1.403 . S
C1276 C1275 1.403 . S
C1276 C1277 1.404 . S
C1276 C1279 1.539 . S
C1277 C1273 1.408 . S
C1277 C1276 1.404 . S
C1277 H1289 0.930 . S
C1278 C1274 1.524 . S
C1278 H1290 0.956 . S
C1278 H1291 0.961 1_565 S
C1278 H1292 0.961 . S
C1279 C1276 1.539 . S
C1279 H1293 0.958 . S
C1279 H1294 0.961 . S
C1279 H1295 0.973 . S
H1280 C1264 0.931 . S
H1281 C1269 0.929 . S
H1282 C1270 0.960 1_565 S
H1283 C1270 0.962 . S
H1284 C1270 0.960 . S
H1285 C1271 0.961 . S
H1286 C1271 0.961 1_565 S
H1287 C1271 0.961 . S
H1288 C1272 0.931 . S
H1289 C1277 0.930 . S
H1290 C1278 0.956 . S
H1291 C1278 0.961 1_545 S
H1292 C1278 0.961 . S
H1293 C1279 0.958 . S
H1294 C1279 0.961 . S
H1295 C1279 0.973 . S
C1296 C1297 1.391 . S
C1296 C1298 1.394 . S
C1296 H1312 0.931 . S
C1297 C1296 1.391 . S
C1297 C1301 1.376 . S
C1298 C1296 1.394 . S
C1298 C1299 1.369 . S
C1298 C1302 1.531 . S
C1299 C1298 1.369 . S
C1299 C1300 1.410 . S
C1299 C1307 1.503 . S
C1300 C1299 1.410 . S
C1300 C1301 1.392 . S
C1300 C1303 1.511 . S
C1301 C1297 1.376 . S
C1301 C1300 1.392 . S
C1301 H1313 0.929 . S
C1302 C1298 1.531 . S
C1302 H1314 0.960 . S
C1302 H1315 0.962 . S
C1302 H1316 0.960 . S
C1303 C1300 1.511 . S
C1303 H1317 0.961 . S
C1303 H1318 0.961 . S
C1303 H1319 0.961 . S
C1304 C1305 1.370 . S
C1304 C1306 1.363 . S
C1304 H1320 0.931 . S
C1305 C1304 1.370 . S
C1305 C1309 1.408 . S
C1306 C1304 1.363 . S
C1306 C1307 1.370 . S
C1306 C1310 1.524 . S
C1307 C1299 1.503 . S
C1307 C1306 1.370 . S
C1307 C1308 1.403 . S
C1308 C1307 1.403 . S
C1308 C1309 1.404 . S
C1308 C1311 1.539 . S
C1309 C1305 1.408 . S
C1309 C1308 1.404 . S
C1309 H1321 0.930 . S
C1310 C1306 1.524 . S
C1310 H1322 0.956 . S
C1310 H1323 0.961 . S
C1310 H1324 0.961 . S
C1311 C1308 1.539 . S
C1311 H1325 0.958 . S
C1311 H1326 0.961 . S
C1311 H1327 0.960 . S
H1312 C1296 0.931 . S
H1313 C1301 0.929 . S
H1314 C1302 0.960 . S
H1315 C1302 0.962 . S
H1316 C1302 0.960 . S
H1317 C1303 0.961 . S
H1318 C1303 0.961 . S
H1319 C1303 0.961 . S
H1320 C1304 0.931 . S
H1321 C1309 0.930 . S
H1322 C1310 0.956 . S
H1323 C1310 0.961 . S
H1324 C1310 0.961 . S
H1325 C1311 0.958 . S
H1326 C1311 0.961 . S
H1327 C1311 0.960 . S
C1328 C1329 1.391 . S
C1328 C1330 1.394 . S
C1328 H1344 0.931 . S
C1329 C1328 1.391 . S
C1329 C1333 1.376 . S
C1330 C1328 1.394 . S
C1330 C1331 1.369 . S
C1330 C1334 1.531 . S
C1331 C1330 1.369 . S
C1331 C1332 1.410 . S
C1331 C1339 1.503 1_655 S
C1332 C1331 1.410 . S
C1332 C1333 1.392 . S
C1332 C1335 1.511 . S
C1333 C1329 1.376 . S
C1333 C1332 1.392 . S
C1333 H1345 0.929 . S
C1334 C1330 1.531 . S
C1334 H1346 0.960 1_655 S
C1334 H1347 0.962 . S
C1334 H1348 0.960 . S
C1335 C1332 1.511 . S
C1335 H1349 0.961 . S
C1335 H1350 0.961 1_655 S
C1335 H1351 0.961 . S
C1336 C1337 1.370 . S
C1336 C1338 1.363 . S
C1336 H1352 0.931 . S
C1337 C1336 1.370 . S
C1337 C1341 1.408 . S
C1338 C1336 1.363 . S
C1338 C1339 1.370 . S
C1338 C1342 1.524 . S
C1339 C1331 1.503 1_455 S
C1339 C1338 1.370 . S
C1339 C1340 1.403 . S
C1340 C1339 1.403 . S
C1340 C1341 1.404 . S
C1340 C1343 1.539 . S
C1341 C1337 1.408 . S
C1341 C1340 1.404 . S
C1341 H1353 0.930 . S
C1342 C1338 1.524 . S
C1342 H1354 0.956 . S
C1342 H1355 0.961 1_455 S
C1342 H1356 0.961 . S
C1343 C1340 1.539 . S
C1343 H1357 0.958 . S
C1343 H1358 0.961 . S
C1343 H1359 0.973 . S
H1344 C1328 0.931 . S
H1345 C1333 0.929 . S
H1346 C1334 0.960 1_455 S
H1347 C1334 0.962 . S
H1348 C1334 0.960 . S
H1349 C1335 0.961 . S
H1350 C1335 0.961 1_455 S
H1351 C1335 0.961 . S
H1352 C1336 0.931 . S
H1353 C1341 0.930 . S
H1354 C1342 0.956 . S
H1355 C1342 0.961 1_655 S
H1356 C1342 0.961 . S
H1357 C1343 0.958 . S
H1358 C1343 0.961 . S
H1359 C1343 0.973 . S
C1360 C1361 1.391 . S
C1360 C1362 1.394 . S
C1360 H1376 0.931 . S
C1361 C1360 1.391 . S
C1361 C1365 1.376 . S
C1362 C1360 1.394 . S
C1362 C1363 1.369 . S
C1362 C1366 1.531 . S
C1363 C1362 1.369 . S
C1363 C1364 1.410 . S
C1363 C1371 1.503 1_545 S
C1364 C1363 1.410 . S
C1364 C1365 1.392 . S
C1364 C1367 1.511 . S
C1365 C1361 1.376 . S
C1365 C1364 1.392 . S
C1365 H1377 0.929 . S
C1366 C1362 1.531 . S
C1366 H1378 0.960 1_545 S
C1366 H1379 0.962 . S
C1366 H1380 0.960 . S
C1367 C1364 1.511 . S
C1367 H1381 0.961 . S
C1367 H1382 0.961 1_545 S
C1367 H1383 0.961 . S
C1368 C1369 1.370 . S
C1368 C1370 1.363 . S
C1368 H1384 0.931 . S
C1369 C1368 1.370 . S
C1369 C1373 1.408 . S
C1370 C1368 1.363 . S
C1370 C1371 1.370 . S
C1370 C1374 1.524 . S
C1371 C1363 1.503 1_565 S
C1371 C1370 1.370 . S
C1371 C1372 1.403 . S
C1372 C1371 1.403 . S
C1372 C1373 1.404 . S
C1372 C1375 1.539 . S
C1373 C1369 1.408 . S
C1373 C1372 1.404 . S
C1373 H1385 0.930 . S
C1374 C1370 1.524 . S
C1374 H1386 0.956 . S
C1374 H1387 0.961 1_565 S
C1374 H1388 0.961 . S
C1375 C1372 1.539 . S
C1375 H1389 0.958 . S
C1375 H1390 0.961 . S
C1375 H1391 0.973 . S
H1376 C1360 0.931 . S
H1377 C1365 0.929 . S
H1378 C1366 0.960 1_565 S
H1379 C1366 0.962 . S
H1380 C1366 0.960 . S
H1381 C1367 0.961 . S
H1382 C1367 0.961 1_565 S
H1383 C1367 0.961 . S
H1384 C1368 0.931 . S
H1385 C1373 0.930 . S
H1386 C1374 0.956 . S
H1387 C1374 0.961 1_545 S
H1388 C1374 0.961 . S
H1389 C1375 0.958 . S
H1390 C1375 0.961 . S
H1391 C1375 0.973 . S
C1392 C1393 1.391 . S
C1392 C1394 1.394 . S
C1392 H1408 0.931 . S
C1393 C1392 1.391 . S
C1393 C1397 1.376 . S
C1394 C1392 1.394 . S
C1394 C1395 1.369 . S
C1394 C1398 1.531 . S
C1395 C1394 1.369 . S
C1395 C1396 1.410 . S
C1395 C1403 1.503 . S
C1396 C1395 1.410 . S
C1396 C1397 1.392 . S
C1396 C1399 1.511 . S
C1397 C1393 1.376 . S
C1397 C1396 1.392 . S
C1397 H1409 0.929 . S
C1398 C1394 1.531 . S
C1398 H1410 0.960 . S
C1398 H1411 0.962 . S
C1398 H1412 0.960 . S
C1399 C1396 1.511 . S
C1399 H1413 0.961 . S
C1399 H1414 0.961 . S
C1399 H1415 0.961 . S
C1400 C1401 1.370 . S
C1400 C1402 1.363 . S
C1400 H1416 0.931 . S
C1401 C1400 1.370 . S
C1401 C1405 1.408 . S
C1402 C1400 1.363 . S
C1402 C1403 1.370 . S
C1402 C1406 1.524 . S
C1403 C1395 1.503 . S
C1403 C1402 1.370 . S
C1403 C1404 1.403 . S
C1404 C1403 1.403 . S
C1404 C1405 1.404 . S
C1404 C1407 1.539 . S
C1405 C1401 1.408 . S
C1405 C1404 1.404 . S
C1405 H1417 0.930 . S
C1406 C1402 1.524 . S
C1406 H1418 0.956 . S
C1406 H1419 0.961 . S
C1406 H1420 0.961 . S
C1407 C1404 1.539 . S
C1407 H1421 0.958 . S
C1407 H1422 0.961 . S
C1407 H1423 0.960 . S
H1408 C1392 0.931 . S
H1409 C1397 0.929 . S
H1410 C1398 0.960 . S
H1411 C1398 0.962 . S
H1412 C1398 0.960 . S
H1413 C1399 0.961 . S
H1414 C1399 0.961 . S
H1415 C1399 0.961 . S
H1416 C1400 0.931 . S
H1417 C1405 0.930 . S
H1418 C1406 0.956 . S
H1419 C1406 0.961 . S
H1420 C1406 0.961 . S
H1421 C1407 0.958 . S
H1422 C1407 0.961 . S
H1423 C1407 0.960 . S
C1424 C1425 1.391 . S
C1424 C1426 1.394 . S
C1424 H1440 0.931 . S
C1425 C1424 1.391 . S
C1425 C1429 1.376 . S
C1426 C1424 1.394 . S
C1426 C1427 1.369 . S
C1426 C1430 1.531 . S
C1427 C1426 1.369 . S
C1427 C1428 1.410 . S
C1427 C1435 1.503 1_455 S
C1428 C1427 1.410 . S
C1428 C1429 1.392 . S
C1428 C1431 1.511 . S
C1429 C1425 1.376 . S
C1429 C1428 1.392 . S
C1429 H1441 0.929 . S
C1430 C1426 1.531 . S
C1430 H1442 0.960 1_455 S
C1430 H1443 0.962 . S
C1430 H1444 0.960 . S
C1431 C1428 1.511 . S
C1431 H1445 0.961 . S
C1431 H1446 0.961 1_455 S
C1431 H1447 0.961 . S
C1432 C1433 1.370 . S
C1432 C1434 1.363 . S
C1432 H1448 0.931 . S
C1433 C1432 1.370 . S
C1433 C1437 1.408 . S
C1434 C1432 1.363 . S
C1434 C1435 1.370 . S
C1434 C1438 1.524 . S
C1435 C1427 1.503 1_655 S
C1435 C1434 1.370 . S
C1435 C1436 1.403 . S
C1436 C1435 1.403 . S
C1436 C1437 1.404 . S
C1436 C1439 1.539 . S
C1437 C1433 1.408 . S
C1437 C1436 1.404 . S
C1437 H1449 0.930 . S
C1438 C1434 1.524 . S
C1438 H1450 0.956 . S
C1438 H1451 0.961 1_655 S
C1438 H1452 0.961 . S
C1439 C1436 1.539 . S
C1439 H1453 0.958 . S
C1439 H1454 0.961 . S
C1439 H1455 0.968 . S
H1440 C1424 0.931 . S
H1441 C1429 0.929 . S
H1442 C1430 0.960 1_655 S
H1443 C1430 0.962 . S
H1444 C1430 0.960 . S
H1445 C1431 0.961 . S
H1446 C1431 0.961 1_655 S
H1447 C1431 0.961 . S
H1448 C1432 0.931 . S
H1449 C1437 0.930 . S
H1450 C1438 0.956 . S
H1451 C1438 0.961 1_455 S
H1452 C1438 0.961 . S
H1453 C1439 0.958 . S
H1454 C1439 0.961 . S
H1455 C1439 0.968 . S
C1456 C1457 1.391 . S
C1456 C1458 1.394 . S
C1456 H1472 0.931 . S
C1457 C1456 1.391 . S
C1457 C1461 1.376 . S
C1458 C1456 1.394 . S
C1458 C1459 1.369 . S
C1458 C1462 1.531 . S
C1459 C1458 1.369 . S
C1459 C1460 1.410 . S
C1459 C1467 1.503 1_565 S
C1460 C1459 1.410 . S
C1460 C1461 1.392 . S
C1460 C1463 1.511 . S
C1461 C1457 1.376 . S
C1461 C1460 1.392 . S
C1461 H1473 0.929 . S
C1462 C1458 1.531 . S
C1462 H1474 0.960 1_565 S
C1462 H1475 0.962 . S
C1462 H1476 0.960 . S
C1463 C1460 1.511 . S
C1463 H1477 0.961 . S
C1463 H1478 0.961 1_565 S
C1463 H1479 0.961 . S
C1464 C1465 1.370 . S
C1464 C1466 1.363 . S
C1464 H1480 0.931 . S
C1465 C1464 1.370 . S
C1465 C1469 1.408 . S
C1466 C1464 1.363 . S
C1466 C1467 1.370 . S
C1466 C1470 1.524 . S
C1467 C1459 1.503 1_545 S
C1467 C1466 1.370 . S
C1467 C1468 1.403 . S
C1468 C1467 1.403 . S
C1468 C1469 1.404 . S
C1468 C1471 1.539 . S
C1469 C1465 1.408 . S
C1469 C1468 1.404 . S
C1469 H1481 0.930 . S
C1470 C1466 1.524 . S
C1470 H1482 0.956 . S
C1470 H1483 0.961 1_545 S
C1470 H1484 0.961 . S
C1471 C1468 1.539 . S
C1471 H1485 0.958 . S
C1471 H1486 0.961 . S
C1471 H1487 0.968 . S
H1472 C1456 0.931 . S
H1473 C1461 0.929 . S
H1474 C1462 0.960 1_545 S
H1475 C1462 0.962 . S
H1476 C1462 0.960 . S
H1477 C1463 0.961 . S
H1478 C1463 0.961 1_545 S
H1479 C1463 0.961 . S
H1480 C1464 0.931 . S
H1481 C1469 0.930 . S
H1482 C1470 0.956 . S
H1483 C1470 0.961 1_565 S
H1484 C1470 0.961 . S
H1485 C1471 0.958 . S
H1486 C1471 0.961 . S
H1487 C1471 0.968 . S
C1488 C1489 1.391 . S
C1488 C1490 1.394 . S
C1488 H1504 0.931 . S
C1489 C1488 1.391 . S
C1489 C1493 1.376 . S
C1490 C1488 1.394 . S
C1490 C1491 1.369 . S
C1490 C1494 1.531 . S
C1491 C1490 1.369 . S
C1491 C1492 1.410 . S
C1491 C1499 1.503 1_556 S
C1492 C1491 1.410 . S
C1492 C1493 1.392 . S
C1492 C1495 1.511 . S
C1493 C1489 1.376 . S
C1493 C1492 1.392 . S
C1493 H1505 0.929 . S
C1494 C1490 1.531 . S
C1494 H1506 0.960 . S
C1494 H1507 0.962 . S
C1494 H1508 0.960 . S
C1495 C1492 1.511 . S
C1495 H1509 0.961 1_556 S
C1495 H1510 0.961 1_556 S
C1495 H1511 0.961 . S
C1496 C1497 1.370 . S
C1496 C1498 1.363 . S
C1496 H1512 0.931 . S
C1497 C1496 1.370 . S
C1497 C1501 1.410 1_554 S
C1498 C1496 1.363 . S
C1498 C1499 1.370 . S
C1498 C1502 1.524 . S
C1499 C1491 1.503 1_554 S
C1499 C1498 1.370 . S
C1499 C1500 1.403 1_554 S
C1500 C1499 1.403 1_556 S
C1500 C1501 1.403 . S
C1500 C1503 1.539 . S
C1501 C1497 1.410 1_556 S
C1501 C1500 1.403 . S
C1501 H1513 0.929 . S
C1502 C1498 1.524 . S
C1502 H1514 0.956 . S
C1502 H1515 0.961 . S
C1502 H1516 0.961 . S
C1503 C1500 1.539 . S
C1503 H1517 0.958 . S
C1503 H1518 0.961 . S
C1503 H1519 0.960 . S
H1504 C1488 0.931 . S
H1505 C1493 0.929 . S
H1506 C1494 0.960 . S
H1507 C1494 0.962 . S
H1508 C1494 0.960 . S
H1509 C1495 0.961 1_554 S
H1510 C1495 0.961 1_554 S
H1511 C1495 0.961 . S
H1512 C1496 0.931 . S
H1513 C1501 0.929 . S
H1514 C1502 0.956 . S
H1515 C1502 0.961 . S
H1516 C1502 0.961 . S
H1517 C1503 0.958 . S
H1518 C1503 0.961 . S
H1519 C1503 0.960 . S
C1520 C1521 1.391 . S
C1520 C1522 1.394 . S
C1520 H1536 0.931 . S
C1521 C1520 1.391 . S
C1521 C1525 1.376 . S
C1522 C1520 1.394 . S
C1522 C1523 1.369 . S
C1522 C1526 1.531 . S
C1523 C1522 1.369 . S
C1523 C1524 1.410 . S
C1523 C1531 1.503 . S
C1524 C1523 1.410 . S
C1524 C1525 1.392 . S
C1524 C1527 1.511 . S
C1525 C1521 1.376 . S
C1525 C1524 1.392 . S
C1525 H1537 0.929 . S
C1526 C1522 1.531 . S
C1526 H1538 0.960 . S
C1526 H1539 0.962 . S
C1526 H1540 0.960 . S
C1527 C1524 1.511 . S
C1527 H1541 0.961 . S
C1527 H1542 0.961 . S
C1527 H1543 0.961 . S
C1528 C1529 1.370 . S
C1528 C1530 1.363 . S
C1528 H1544 0.931 . S
C1529 C1528 1.370 . S
C1529 C1533 1.408 . S
C1530 C1528 1.363 . S
C1530 C1531 1.370 . S
C1530 C1534 1.524 . S
C1531 C1523 1.503 . S
C1531 C1530 1.370 . S
C1531 C1532 1.403 . S
C1532 C1531 1.403 . S
C1532 C1533 1.404 . S
C1532 C1535 1.539 . S
C1533 C1529 1.408 . S
C1533 C1532 1.404 . S
C1533 H1545 0.930 . S
C1534 C1530 1.524 . S
C1534 H1546 0.956 . S
C1534 H1547 0.961 . S
C1534 H1548 0.961 . S
C1535 C1532 1.539 . S
C1535 H1549 0.958 . S
C1535 H1550 0.961 . S
C1535 H1551 0.960 . S
H1536 C1520 0.931 . S
H1537 C1525 0.929 . S
H1538 C1526 0.960 . S
H1539 C1526 0.962 . S
H1540 C1526 0.960 . S
H1541 C1527 0.961 . S
H1542 C1527 0.961 . S
H1543 C1527 0.961 . S
H1544 C1528 0.931 . S
H1545 C1533 0.930 . S
H1546 C1534 0.956 . S
H1547 C1534 0.961 . S
H1548 C1534 0.961 . S
H1549 C1535 0.958 . S
H1550 C1535 0.961 . S
H1551 C1535 0.960 . S
C1552 C1553 1.391 . S
C1552 C1554 1.394 . S
C1552 H1568 0.931 . S
C1553 C1552 1.391 . S
C1553 C1557 1.376 . S
C1554 C1552 1.394 . S
C1554 C1555 1.369 . S
C1554 C1558 1.531 . S
C1555 C1554 1.369 . S
C1555 C1556 1.410 1_556 S
C1555 C1563 1.503 1_556 S
C1556 C1555 1.410 1_554 S
C1556 C1557 1.392 1_554 S
C1556 C1559 1.511 . S
C1557 C1553 1.376 . S
C1557 C1556 1.392 1_556 S
C1557 H1569 0.929 1_556 S
C1558 C1554 1.531 . S
C1558 H1570 0.960 . S
C1558 H1571 0.962 . S
C1558 H1572 0.960 . S
C1559 C1556 1.511 . S
C1559 H1573 0.961 . S
C1559 H1574 0.961 . S
C1559 H1575 0.961 . S
C1560 C1561 1.370 . S
C1560 C1562 1.363 . S
C1560 H1576 0.931 . S
C1561 C1560 1.370 . S
C1561 C1565 1.408 . S
C1562 C1560 1.363 . S
C1562 C1563 1.370 . S
C1562 C1566 1.524 . S
C1563 C1555 1.503 1_554 S
C1563 C1562 1.370 . S
C1563 C1564 1.403 . S
C1564 C1563 1.403 . S
C1564 C1565 1.404 . S
C1564 C1567 1.539 . S
C1565 C1561 1.408 . S
C1565 C1564 1.404 . S
C1565 H1577 0.930 . S
C1566 C1562 1.524 . S
C1566 H1578 0.956 1_554 S
C1566 H1579 0.961 . S
C1566 H1580 0.961 . S
C1567 C1564 1.539 . S
C1567 H1581 0.958 1_554 S
C1567 H1582 0.961 . S
C1567 H1583 0.960 . S
H1568 C1552 0.931 . S
H1569 C1557 0.929 1_554 S
H1570 C1558 0.960 . S
H1571 C1558 0.962 . S
H1572 C1558 0.960 . S
H1573 C1559 0.961 . S
H1574 C1559 0.961 . S
H1575 C1559 0.961 . S
H1576 C1560 0.931 . S
H1577 C1565 0.930 . S
H1578 C1566 0.956 1_556 S
H1579 C1566 0.961 . S
H1580 C1566 0.961 . S
H1581 C1567 0.958 1_556 S
H1582 C1567 0.961 . S
H1583 C1567 0.960 . S
C1584 C1585 1.391 . S
C1584 C1586 1.394 . S
C1584 H1600 0.931 . S
C1585 C1584 1.391 . S
C1585 C1589 1.376 . S
C1586 C1584 1.394 . S
C1586 C1587 1.369 . S
C1586 C1590 1.531 . S
C1587 C1586 1.369 . S
C1587 C1588 1.410 . S
C1587 C1595 1.503 . S
C1588 C1587 1.410 . S
C1588 C1589 1.392 . S
C1588 C1591 1.511 . S
C1589 C1585 1.376 . S
C1589 C1588 1.392 . S
C1589 H1601 0.929 . S
C1590 C1586 1.531 . S
C1590 H1602 0.960 . S
C1590 H1603 0.962 . S
C1590 H1604 0.960 . S
C1591 C1588 1.511 . S
C1591 H1605 0.961 . S
C1591 H1606 0.961 . S
C1591 H1607 0.961 . S
C1592 C1593 1.370 . S
C1592 C1594 1.363 . S
C1592 H1608 0.931 . S
C1593 C1592 1.370 . S
C1593 C1597 1.408 . S
C1594 C1592 1.363 . S
C1594 C1595 1.370 . S
C1594 C1598 1.524 . S
C1595 C1587 1.503 . S
C1595 C1594 1.370 . S
C1595 C1596 1.403 . S
C1596 C1595 1.403 . S
C1596 C1597 1.404 . S
C1596 C1599 1.539 . S
C1597 C1593 1.408 . S
C1597 C1596 1.404 . S
C1597 H1609 0.930 . S
C1598 C1594 1.524 . S
C1598 H1610 0.956 . S
C1598 H1611 0.961 . S
C1598 H1612 0.961 . S
C1599 C1596 1.539 . S
C1599 H1613 0.958 . S
C1599 H1614 0.961 . S
C1599 H1615 0.960 . S
H1600 C1584 0.931 . S
H1601 C1589 0.929 . S
H1602 C1590 0.960 . S
H1603 C1590 0.962 . S
H1604 C1590 0.960 . S
H1605 C1591 0.961 . S
H1606 C1591 0.961 . S
H1607 C1591 0.961 . S
H1608 C1592 0.931 . S
H1609 C1597 0.930 . S
H1610 C1598 0.956 . S
H1611 C1598 0.961 . S
H1612 C1598 0.961 . S
H1613 C1599 0.958 . S
H1614 C1599 0.961 . S
H1615 C1599 0.960 . S
C1616 C1617 1.391 . S
C1616 C1618 1.394 . S
C1616 H1632 0.931 . S
C1617 C1616 1.391 . S
C1617 C1621 1.376 . S
C1618 C1616 1.394 . S
C1618 C1619 1.369 . S
C1618 C1622 1.531 . S
C1619 C1618 1.369 . S
C1619 C1620 1.410 1_556 S
C1619 C1627 1.503 1_556 S
C1620 C1619 1.410 1_554 S
C1620 C1621 1.392 1_554 S
C1620 C1623 1.511 . S
C1621 C1617 1.376 . S
C1621 C1620 1.392 1_556 S
C1621 H1633 0.929 1_556 S
C1622 C1618 1.531 . S
C1622 H1634 0.960 . S
C1622 H1635 0.962 . S
C1622 H1636 0.960 . S
C1623 C1620 1.511 . S
C1623 H1637 0.961 . S
C1623 H1638 0.961 . S
C1623 H1639 0.961 . S
C1624 C1625 1.370 . S
C1624 C1626 1.363 . S
C1624 H1640 0.931 . S
C1625 C1624 1.370 . S
C1625 C1629 1.408 . S
C1626 C1624 1.363 . S
C1626 C1627 1.370 . S
C1626 C1630 1.524 . S
C1627 C1619 1.503 1_554 S
C1627 C1626 1.370 . S
C1627 C1628 1.399 1_554 S
C1628 C1627 1.399 1_556 S
C1628 C1629 1.393 1_556 S
C1628 C1631 1.553 . S
C1629 C1625 1.408 . S
C1629 C1628 1.393 1_554 S
C1629 H1641 0.930 . S
C1630 C1626 1.524 . S
C1630 H1642 0.956 . S
C1630 H1643 0.961 . S
C1630 H1644 0.961 . S
C1631 C1628 1.553 . S
C1631 H1645 0.958 . S
C1631 H1646 0.961 . S
C1631 H1647 0.960 . S
H1632 C1616 0.931 . S
H1633 C1621 0.929 1_554 S
H1634 C1622 0.960 . S
H1635 C1622 0.962 . S
H1636 C1622 0.960 . S
H1637 C1623 0.961 . S
H1638 C1623 0.961 . S
H1639 C1623 0.961 . S
H1640 C1624 0.931 . S
H1641 C1629 0.930 . S
H1642 C1630 0.956 . S
H1643 C1630 0.961 . S
H1644 C1630 0.961 . S
H1645 C1631 0.958 . S
H1646 C1631 0.961 . S
H1647 C1631 0.960 . S
C1648 C1649 1.391 . S
C1648 C1650 1.394 . S
C1648 H1664 0.931 . S
C1649 C1648 1.391 . S
C1649 C1653 1.376 . S
C1650 C1648 1.394 . S
C1650 C1651 1.369 . S
C1650 C1654 1.531 . S
C1651 C1650 1.369 . S
C1651 C1652 1.410 . S
C1651 C1659 1.503 . S
C1652 C1651 1.410 . S
C1652 C1653 1.392 . S
C1652 C1655 1.511 . S
C1653 C1649 1.376 . S
C1653 C1652 1.392 . S
C1653 H1665 0.929 . S
C1654 C1650 1.531 . S
C1654 H1666 0.960 . S
C1654 H1667 0.962 . S
C1654 H1668 0.960 . S
C1655 C1652 1.511 . S
C1655 H1669 0.961 . S
C1655 H1670 0.961 . S
C1655 H1671 0.961 . S
C1656 C1657 1.370 . S
C1656 C1658 1.363 . S
C1656 H1672 0.931 . S
C1657 C1656 1.370 . S
C1657 C1661 1.408 . S
C1658 C1656 1.363 . S
C1658 C1659 1.370 . S
C1658 C1662 1.524 . S
C1659 C1651 1.503 . S
C1659 C1658 1.370 . S
C1659 C1660 1.403 . S
C1660 C1659 1.403 . S
C1660 C1661 1.404 . S
C1660 C1663 1.539 . S
C1661 C1657 1.408 . S
C1661 C1660 1.404 . S
C1661 H1673 0.930 . S
C1662 C1658 1.524 . S
C1662 H1674 0.956 . S
C1662 H1675 0.961 . S
C1662 H1676 0.961 . S
C1663 C1660 1.539 . S
C1663 H1677 0.958 . S
C1663 H1678 0.961 . S
C1663 H1679 0.960 . S
H1664 C1648 0.931 . S
H1665 C1653 0.929 . S
H1666 C1654 0.960 . S
H1667 C1654 0.962 . S
H1668 C1654 0.960 . S
H1669 C1655 0.961 . S
H1670 C1655 0.961 . S
H1671 C1655 0.961 . S
H1672 C1656 0.931 . S
H1673 C1661 0.930 . S
H1674 C1662 0.956 . S
H1675 C1662 0.961 . S
H1676 C1662 0.961 . S
H1677 C1663 0.958 . S
H1678 C1663 0.961 . S
H1679 C1663 0.960 . S
C1680 C1681 1.391 . S
C1680 C1682 1.394 . S
C1680 H1696 0.931 . S
C1681 C1680 1.391 . S
C1681 C1685 1.376 . S
C1682 C1680 1.394 . S
C1682 C1683 1.372 . S
C1682 C1686 1.539 . S
C1683 C1682 1.372 . S
C1683 C1684 1.412 . S
C1683 C1691 1.499 1_554 S
C1684 C1683 1.412 . S
C1684 C1685 1.392 . S
C1684 C1687 1.511 1_554 S
C1685 C1681 1.376 . S
C1685 C1684 1.392 . S
C1685 H1697 0.929 . S
C1686 C1682 1.539 . S
C1686 H1698 0.930 1_554 S
C1686 H1699 0.990 . S
C1686 H1700 0.956 1_554 S
C1687 C1684 1.511 1_556 S
C1687 H1701 0.961 1_556 S
C1687 H1702 0.961 . S
C1687 H1703 0.961 . S
C1688 C1689 1.370 . S
C1688 C1690 1.363 1_556 S
C1688 H1704 0.931 1_556 S
C1689 C1688 1.370 . S
C1689 C1693 1.408 . S
C1690 C1688 1.363 1_554 S
C1690 C1691 1.370 1_554 S
C1690 C1694 1.524 . S
C1691 C1683 1.499 1_556 S
C1691 C1690 1.370 1_556 S
C1691 C1692 1.403 . S
C1692 C1691 1.403 . S
C1692 C1693 1.404 . S
C1692 C1695 1.539 . S
C1693 C1689 1.408 . S
C1693 C1692 1.404 . S
C1693 H1705 0.930 . S
C1694 C1690 1.524 . S
C1694 H1706 0.956 . S
C1694 H1707 0.961 . S
C1694 H1708 0.961 . S
C1695 C1692 1.539 . S
C1695 H1709 0.958 . S
C1695 H1710 0.961 . S
C1695 H1711 0.960 . S
H1696 C1680 0.931 . S
H1697 C1685 0.929 . S
H1698 C1686 0.930 1_556 S
H1699 C1686 0.990 . S
H1700 C1686 0.956 1_556 S
H1701 C1687 0.961 1_554 S
H1702 C1687 0.961 . S
H1703 C1687 0.961 . S
H1704 C1688 0.931 1_554 S
H1705 C1693 0.930 . S
H1706 C1694 0.956 . S
H1707 C1694 0.961 . S
H1708 C1694 0.961 . S
H1709 C1695 0.958 . S
H1710 C1695 0.961 . S
H1711 C1695 0.960 . S
C1712 C1713 1.391 . S
C1712 C1714 1.394 . S
C1712 H1728 0.931 . S
C1713 C1712 1.391 . S
C1713 C1717 1.376 . S
C1714 C1712 1.394 . S
C1714 C1715 1.369 . S
C1714 C1718 1.531 . S
C1715 C1714 1.369 . S
C1715 C1716 1.410 . S
C1715 C1723 1.503 . S
C1716 C1715 1.410 . S
C1716 C1717 1.392 . S
C1716 C1719 1.511 . S
C1717 C1713 1.376 . S
C1717 C1716 1.392 . S
C1717 H1729 0.929 . S
C1718 C1714 1.531 . S
C1718 H1730 0.960 . S
C1718 H1731 0.962 . S
C1718 H1732 0.960 . S
C1719 C1716 1.511 . S
C1719 H1733 0.961 . S
C1719 H1734 0.961 . S
C1719 H1735 0.961 . S
C1720 C1721 1.370 . S
C1720 C1722 1.363 . S
C1720 H1736 0.931 . S
C1721 C1720 1.370 . S
C1721 C1725 1.408 . S
C1722 C1720 1.363 . S
C1722 C1723 1.370 . S
C1722 C1726 1.524 . S
C1723 C1715 1.503 . S
C1723 C1722 1.370 . S
C1723 C1724 1.403 . S
C1724 C1723 1.403 . S
C1724 C1725 1.404 . S
C1724 C1727 1.539 . S
C1725 C1721 1.408 . S
C1725 C1724 1.404 . S
C1725 H1737 0.930 . S
C1726 C1722 1.524 . S
C1726 H1738 0.956 . S
C1726 H1739 0.961 . S
C1726 H1740 0.961 . S
C1727 C1724 1.539 . S
C1727 H1741 0.958 . S
C1727 H1742 0.961 . S
C1727 H1743 0.960 . S
H1728 C1712 0.931 . S
H1729 C1717 0.929 . S
H1730 C1718 0.960 . S
H1731 C1718 0.962 . S
H1732 C1718 0.960 . S
H1733 C1719 0.961 . S
H1734 C1719 0.961 . S
H1735 C1719 0.961 . S
H1736 C1720 0.931 . S
H1737 C1725 0.930 . S
H1738 C1726 0.956 . S
H1739 C1726 0.961 . S
H1740 C1726 0.961 . S
H1741 C1727 0.958 . S
H1742 C1727 0.961 . S
H1743 C1727 0.960 . S
C1744 C1745 1.391 . S
C1744 C1746 1.394 . S
C1744 H1760 0.931 . S
C1745 C1744 1.391 . S
C1745 C1749 1.376 . S
C1746 C1744 1.394 . S
C1746 C1747 1.369 . S
C1746 C1750 1.531 1_554 S
C1747 C1746 1.369 . S
C1747 C1748 1.410 . S
C1747 C1755 1.503 1_554 S
C1748 C1747 1.410 . S
C1748 C1749 1.392 . S
C1748 C1751 1.511 . S
C1749 C1745 1.376 . S
C1749 C1748 1.392 . S
C1749 H1761 0.929 . S
C1750 C1746 1.531 1_556 S
C1750 H1762 0.960 . S
C1750 H1763 0.962 . S
C1750 H1764 0.960 . S
C1751 C1748 1.511 . S
C1751 H1765 0.961 . S
C1751 H1766 0.961 . S
C1751 H1767 0.961 . S
C1752 C1753 1.370 . S
C1752 C1754 1.363 . S
C1752 H1768 0.931 . S
C1753 C1752 1.370 . S
C1753 C1757 1.408 . S
C1754 C1752 1.363 . S
C1754 C1755 1.370 . S
C1754 C1758 1.524 . S
C1755 C1747 1.503 1_556 S
C1755 C1754 1.370 . S
C1755 C1756 1.403 1_556 S
C1756 C1755 1.403 1_554 S
C1756 C1757 1.404 1_554 S
C1756 C1759 1.539 . S
C1757 C1753 1.408 . S
C1757 C1756 1.404 1_556 S
C1757 H1769 0.930 1_556 S
C1758 C1754 1.524 . S
C1758 H1770 0.956 . S
C1758 H1771 0.961 . S
C1758 H1772 0.961 . S
C1759 C1756 1.539 . S
C1759 H1773 0.958 . S
C1759 H1774 0.961 . S
C1759 H1775 0.960 . S
H1760 C1744 0.931 . S
H1761 C1749 0.929 . S
H1762 C1750 0.960 . S
H1763 C1750 0.962 . S
H1764 C1750 0.960 . S
H1765 C1751 0.961 . S
H1766 C1751 0.961 . S
H1767 C1751 0.961 . S
H1768 C1752 0.931 . S
H1769 C1757 0.930 1_554 S
H1770 C1758 0.956 . S
H1771 C1758 0.961 . S
H1772 C1758 0.961 . S
H1773 C1759 0.958 . S
H1774 C1759 0.961 . S
H1775 C1759 0.960 . S
C1776 C1777 1.391 . S
C1776 C1778 1.394 . S
C1776 H1792 0.931 . S
C1777 C1776 1.391 . S
C1777 C1781 1.376 . S
C1778 C1776 1.394 . S
C1778 C1779 1.369 . S
C1778 C1782 1.531 . S
C1779 C1778 1.369 . S
C1779 C1780 1.410 . S
C1779 C1787 1.503 . S
C1780 C1779 1.410 . S
C1780 C1781 1.392 . S
C1780 C1783 1.511 . S
C1781 C1777 1.376 . S
C1781 C1780 1.392 . S
C1781 H1793 0.929 . S
C1782 C1778 1.531 . S
C1782 H1794 0.960 . S
C1782 H1795 0.962 . S
C1782 H1796 0.960 . S
C1783 C1780 1.511 . S
C1783 H1797 0.961 . S
C1783 H1798 0.961 . S
C1783 H1799 0.961 . S
C1784 C1785 1.370 . S
C1784 C1786 1.363 . S
C1784 H1800 0.931 . S
C1785 C1784 1.370 . S
C1785 C1789 1.408 . S
C1786 C1784 1.363 . S
C1786 C1787 1.370 . S
C1786 C1790 1.524 . S
C1787 C1779 1.503 . S
C1787 C1786 1.370 . S
C1787 C1788 1.403 . S
C1788 C1787 1.403 . S
C1788 C1789 1.404 . S
C1788 C1791 1.539 . S
C1789 C1785 1.408 . S
C1789 C1788 1.404 . S
C1789 H1801 0.930 . S
C1790 C1786 1.524 . S
C1790 H1802 0.956 . S
C1790 H1803 0.961 . S
C1790 H1804 0.961 . S
C1791 C1788 1.539 . S
C1791 H1805 0.958 . S
C1791 H1806 0.961 . S
C1791 H1807 0.960 . S
H1792 C1776 0.931 . S
H1793 C1781 0.929 . S
H1794 C1782 0.960 . S
H1795 C1782 0.962 . S
H1796 C1782 0.960 . S
H1797 C1783 0.961 . S
H1798 C1783 0.961 . S
H1799 C1783 0.961 . S
H1800 C1784 0.931 . S
H1801 C1789 0.930 . S
H1802 C1790 0.956 . S
H1803 C1790 0.961 . S
H1804 C1790 0.961 . S
H1805 C1791 0.958 . S
H1806 C1791 0.961 . S
H1807 C1791 0.960 . S
C1808 C1809 1.391 . S
C1808 C1810 1.394 1_556 S
C1808 H1824 0.931 . S
C1809 C1808 1.391 . S
C1809 C1813 1.376 . S
C1810 C1808 1.394 1_554 S
C1810 C1811 1.366 1_554 S
C1810 C1814 1.531 . S
C1811 C1810 1.366 1_556 S
C1811 C1812 1.428 . S
C1811 C1819 1.492 1_556 S
C1812 C1811 1.428 . S
C1812 C1813 1.392 . S
C1812 C1815 1.511 . S
C1813 C1809 1.376 . S
C1813 C1812 1.392 . S
C1813 H1825 0.929 . S
C1814 C1810 1.531 . S
C1814 H1826 0.960 . S
C1814 H1827 0.962 . S
C1814 H1828 0.960 . S
C1815 C1812 1.511 . S
C1815 H1829 0.961 . S
C1815 H1830 0.961 . S
C1815 H1831 0.961 . S
C1816 C1817 1.370 . S
C1816 C1818 1.363 1_554 S
C1816 H1832 0.931 1_554 S
C1817 C1816 1.370 . S
C1817 C1821 1.408 . S
C1818 C1816 1.363 1_556 S
C1818 C1819 1.370 1_556 S
C1818 C1822 1.524 . S
C1819 C1811 1.492 1_554 S
C1819 C1818 1.370 1_554 S
C1819 C1820 1.403 . S
C1820 C1819 1.403 . S
C1820 C1821 1.404 . S
C1820 C1823 1.539 . S
C1821 C1817 1.408 . S
C1821 C1820 1.404 . S
C1821 H1833 0.930 . S
C1822 C1818 1.524 . S
C1822 H1834 0.956 . S
C1822 H1835 0.961 . S
C1822 H1836 0.961 . S
C1823 C1820 1.539 . S
C1823 H1837 0.958 . S
C1823 H1838 0.961 . S
C1823 H1839 0.960 . S
H1824 C1808 0.931 . S
H1825 C1813 0.929 . S
H1826 C1814 0.960 . S
H1827 C1814 0.962 . S
H1828 C1814 0.960 . S
H1829 C1815 0.961 . S
H1830 C1815 0.961 . S
H1831 C1815 0.961 . S
H1832 C1816 0.931 1_556 S
H1833 C1821 0.930 . S
H1834 C1822 0.956 . S
H1835 C1822 0.961 . S
H1836 C1822 0.961 . S
H1837 C1823 0.958 . S
H1838 C1823 0.961 . S
H1839 C1823 0.960 . S
C1840 C1841 1.391 . S
C1840 C1842 1.394 . S
C1840 H1856 0.931 . S
C1841 C1840 1.391 . S
C1841 C1845 1.376 . S
C1842 C1840 1.394 . S
C1842 C1843 1.369 . S
C1842 C1846 1.531 . S
C1843 C1842 1.369 . S
C1843 C1844 1.410 . S
C1843 C1851 1.503 . S
C1844 C1843 1.410 . S
C1844 C1845 1.392 . S
C1844 C1847 1.511 . S
C1845 C1841 1.376 . S
C1845 C1844 1.392 . S
C1845 H1857 0.929 . S
C1846 C1842 1.531 . S
C1846 H1858 0.960 . S
C1846 H1859 0.962 . S
C1846 H1860 0.960 . S
C1847 C1844 1.511 . S
C1847 H1861 0.961 . S
C1847 H1862 0.961 . S
C1847 H1863 0.961 . S
C1848 C1849 1.370 . S
C1848 C1850 1.363 . S
C1848 H1864 0.931 . S
C1849 C1848 1.370 . S
C1849 C1853 1.408 . S
C1850 C1848 1.363 . S
C1850 C1851 1.370 . S
C1850 C1854 1.524 . S
C1851 C1843 1.503 . S
C1851 C1850 1.370 . S
C1851 C1852 1.403 . S
C1852 C1851 1.403 . S
C1852 C1853 1.404 . S
C1852 C1855 1.539 . S
C1853 C1849 1.408 . S
C1853 C1852 1.404 . S
C1853 H1865 0.930 . S
C1854 C1850 1.524 . S
C1854 H1866 0.956 . S
C1854 H1867 0.961 . S
C1854 H1868 0.961 . S
C1855 C1852 1.539 . S
C1855 H1869 0.958 . S
C1855 H1870 0.961 . S
C1855 H1871 0.960 . S
H1856 C1840 0.931 . S
H1857 C1845 0.929 . S
H1858 C1846 0.960 . S
H1859 C1846 0.962 . S
H1860 C1846 0.960 . S
H1861 C1847 0.961 . S
H1862 C1847 0.961 . S
H1863 C1847 0.961 . S
H1864 C1848 0.931 . S
H1865 C1853 0.930 . S
H1866 C1854 0.956 . S
H1867 C1854 0.961 . S
H1868 C1854 0.961 . S
H1869 C1855 0.958 . S
H1870 C1855 0.961 . S
H1871 C1855 0.960 . S
C337 C0 1.469 . S
C345 C210 1.479 . S
C369 C14 1.462 . S
C377 C224 1.478 . S
C401 C238 1.471 . S
C409 C28 1.479 . S
C433 C168 1.500 . S
C441 C42 1.493 . S
C465 C182 1.465 . S
C473 C56 1.479 . S
C497 C196 1.472 . S
C505 C70 1.482 . S
C529 C294 1.461 . S
C537 C84 1.477 . S
C561 C98 1.461 . S
C569 C308 1.476 . S
C593 C322 1.480 . S
C601 C112 1.483 . S
C625 C126 1.482 . S
C633 C252 1.486 . S
C657 C266 1.496 . S
C665 C140 1.492 . S
C689 C154 1.495 . S
C697 C280 1.492 . S
C721 C151 1.347 . S
C729 C11 1.366 . S
C753 C165 1.365 . S
C761 C25 1.358 . S
C785 C39 1.345 . S
C793 C95 1.366 . S
C817 C53 1.363 . S
C825 C109 1.359 . S
C849 C123 1.362 . S
C857 C67 1.359 . S
C881 C81 1.371 . S
C889 C137 1.356 . S
C913 C319 1.353 . S
C921 C179 1.365 . S
C945 C193 1.365 . S
C953 C333 1.357 . S
C977 C207 1.371 . S
C985 C263 1.355 . S
C1009 C277 1.358 . S
C1017 C221 1.359 . S
C1041 C235 1.348 . S
C1049 C291 1.364 . S
C1073 C249 1.368 . S
C1081 C305 1.358 . S
C1105 C5 1.405 . S
C1113 C257 1.403 . S
C1137 C271 1.406 . S
C1145 C19 1.403 . S
C1169 C33 1.384 . S
C1177 C285 1.394 . S
C1201 C47 1.384 . S
C1209 C299 1.394 . S
C1233 C313 1.384 . S
C1241 C61 1.394 . S
C1265 C75 1.388 . S
C1273 C327 1.396 . S
C1297 C89 1.387 . S
C1305 C173 1.396 . S
C1329 C103 1.396 . S
C1337 C187 1.400 . S
C1361 C201 1.401 . S
C1369 C117 1.402 . S
C1393 C215 1.405 . S
C1401 C131 1.403 . S
C1425 C145 1.390 . S
C1433 C229 1.395 . S
C1457 C243 1.384 . S
C1465 C159 1.394 . S
C1489 C93 1.513 . S
C1497 C9 1.516 . S
C1521 C23 1.513 . S
C1529 C107 1.517 . S
C1553 C121 1.511 . S
C1561 C37 1.516 . S
C1585 C135 1.512 . S
C1593 C51 1.517 . S
C1617 C149 1.512 . S
C1625 C65 1.516 . S
C1649 C79 1.514 . S
C1657 C163 1.517 . S
C1681 C261 1.512 . S
C1689 C177 1.517 . S
C1713 C191 1.514 . S
C1721 C275 1.517 . S
C1745 C289 1.512 . S
C1753 C205 1.516 . S
C1777 C303 1.513 . S
C1785 C219 1.517 . S
C1809 C233 1.512 . S
C1817 C317 1.517 . S
C1841 C247 1.511 . S
C1849 C331 1.516 . S
