# Generated by pormake.
# Topology snz, (6)-cn, num edge types: 1
# Building blocks:
#     Node 0, Type 0, BuildingBlock: CUWYAW_clean_sbu_0, # of connection points: 6
#     Node 1, Type 0, BuildingBlock: CUWYAW_clean_sbu_0, # of connection points: 6
#     Node 2, Type 0, BuildingBlock: CUWYAW_clean_sbu_0, # of connection points: 6
#     Node 3, Type 0, BuildingBlock: CUWYAW_clean_sbu_0, # of connection points: 6
#     Node 4, Type 0, BuildingBlock: CUWYAW_clean_sbu_0, # of connection points: 6
#     Node 5, Type 0, BuildingBlock: CUWYAW_clean_sbu_0, # of connection points: 6
#     Node 6, Type 0, BuildingBlock: CUWYAW_clean_sbu_0, # of connection points: 6
#     Node 7, Type 0, BuildingBlock: CUWYAW_clean_sbu_0, # of connection points: 6
#     Node 8, Type 0, BuildingBlock: CUWYAW_clean_sbu_0, # of connection points: 6
#     Edge 9, Type (0, 0), BuildingBlock: OJICUG_clean_linker_0, # of connection points: 2
#     Edge 10, Type (0, 0), BuildingBlock: OJICUG_clean_linker_0, # of connection points: 2
#     Edge 11, Type (0, 0), BuildingBlock: OJICUG_clean_linker_0, # of connection points: 2
#     Edge 12, Type (0, 0), BuildingBlock: OJICUG_clean_linker_0, # of connection points: 2
#     Edge 13, Type (0, 0), BuildingBlock: OJICUG_clean_linker_0, # of connection points: 2
#     Edge 14, Type (0, 0), BuildingBlock: OJICUG_clean_linker_0, # of connection points: 2
#     Edge 15, Type (0, 0), BuildingBlock: OJICUG_clean_linker_0, # of connection points: 2
#     Edge 16, Type (0, 0), BuildingBlock: OJICUG_clean_linker_0, # of connection points: 2
#     Edge 17, Type (0, 0), BuildingBlock: OJICUG_clean_linker_0, # of connection points: 2
#     Edge 18, Type (0, 0), BuildingBlock: OJICUG_clean_linker_0, # of connection points: 2
#     Edge 19, Type (0, 0), BuildingBlock: OJICUG_clean_linker_0, # of connection points: 2
#     Edge 20, Type (0, 0), BuildingBlock: OJICUG_clean_linker_0, # of connection points: 2
#     Edge 21, Type (0, 0), BuildingBlock: OJICUG_clean_linker_0, # of connection points: 2
#     Edge 22, Type (0, 0), BuildingBlock: OJICUG_clean_linker_0, # of connection points: 2
#     Edge 23, Type (0, 0), BuildingBlock: OJICUG_clean_linker_0, # of connection points: 2
#     Edge 24, Type (0, 0), BuildingBlock: OJICUG_clean_linker_0, # of connection points: 2
#     Edge 25, Type (0, 0), BuildingBlock: OJICUG_clean_linker_0, # of connection points: 2
#     Edge 26, Type (0, 0), BuildingBlock: OJICUG_clean_linker_0, # of connection points: 2
#     Edge 27, Type (0, 0), BuildingBlock: OJICUG_clean_linker_0, # of connection points: 2
#     Edge 28, Type (0, 0), BuildingBlock: OJICUG_clean_linker_0, # of connection points: 2
#     Edge 29, Type (0, 0), BuildingBlock: OJICUG_clean_linker_0, # of connection points: 2
#     Edge 30, Type (0, 0), BuildingBlock: OJICUG_clean_linker_0, # of connection points: 2
#     Edge 31, Type (0, 0), BuildingBlock: OJICUG_clean_linker_0, # of connection points: 2
#     Edge 32, Type (0, 0), BuildingBlock: OJICUG_clean_linker_0, # of connection points: 2
#     Edge 33, Type (0, 0), BuildingBlock: OJICUG_clean_linker_0, # of connection points: 2
#     Edge 34, Type (0, 0), BuildingBlock: OJICUG_clean_linker_0, # of connection points: 2
#     Edge 35, Type (0, 0), BuildingBlock: OJICUG_clean_linker_0, # of connection points: 2
# Relax obj value: 0.186
# Max RMSD: 0.227
# Mean RMSD: 0.224
data_MOF--net-snz--node1-CUWYAW_clean_sbu_0--edge1-OJICUG_clean_linker_0
_symmetry_space_group_name_H-M    P1
_symmetry_Int_Tables_number       1
_symmetry_cell_setting            triclinic
loop_
_symmetry_equiv_pos_as_xyz
'x, y, z'
_cell_length_a     53.219387
_cell_length_b     53.262091
_cell_length_c     10.732002
_cell_angle_alpha  89.837942
_cell_angle_beta   90.075076
_cell_angle_gamma 120.08811
loop_
_atom_site_label
_atom_site_type_symbol
_atom_site_fract_x
_atom_site_fract_y
_atom_site_fract_z
_atom_type_partial_charge
C0 C 0.13738 0.4714 0.91658 0.0
Eu1 Eu 0.17929 0.46593 0.00695 0.0
C2 C 0.126 0.49124 0.92838 0.0
C3 C 0.10924 0.49029 0.03135 0.0
C4 C 0.0971 0.5082 0.03443 0.0
C5 C 0.10162 0.52706 0.93464 0.0
C6 C 0.11956 0.52898 0.83526 0.0
C7 C 0.13144 0.51107 0.83168 0.0
C8 C 0.19442 0.46504 0.25423 0.0
C9 C 0.23616 0.52759 0.05855 0.0
C10 C 0.28613 0.46613 0.12197 0.0
Eu11 Eu 0.24082 0.46686 0.02898 0.0
C12 C 0.31104 0.46034 0.12934 0.0
C13 C 0.3352 0.47382 0.04869 0.0
C14 C 0.36028 0.47163 0.06977 0.0
C15 C 0.3622 0.45604 0.17273 0.0
C16 C 0.33746 0.44182 0.25047 0.0
C17 C 0.31255 0.4441 0.22959 0.0
C18 C 0.22704 0.46951 0.78244 0.0
C19 C 0.17806 0.40556 0.95845 0.0
O20 O 0.16312 0.48276 0.86514 0.0
O21 O 0.13369 0.45395 0.01031 0.0
O22 O 0.17086 0.46461 0.21832 0.0
O23 O 0.2078 0.46544 0.15609 0.0
O24 O 0.20944 0.51337 0.01563 0.0
O25 O 0.25154 0.51429 0.08175 0.0
O26 O 0.25925 0.44568 0.14492 0.0
O27 O 0.28782 0.48648 0.04725 0.0
O28 O 0.25076 0.47029 0.81862 0.0
O29 O 0.21317 0.46825 0.88046 0.0
O30 O 0.20622 0.41759 0.9923 0.0
O31 O 0.16441 0.42039 0.95391 0.0
H32 H 0.10494 0.47533 0.10769 0.0
H33 H 0.08333 0.50652 0.11201 0.0
H34 H 0.12384 0.54388 0.75855 0.0
H35 H 0.14446 0.51236 0.75168 0.0
H36 H 0.33511 0.48682 0.9711 0.0
H37 H 0.37854 0.48307 0.00733 0.0
H38 H 0.3372 0.42888 0.32888 0.0
H39 H 0.29462 0.4337 0.29462 0.0
C40 C 0.82395 0.60775 0.90645 0.0
Eu41 Eu 0.82959 0.65496 0.9974 0.0
C42 C 0.80602 0.57649 0.92202 0.0
C43 C 0.80266 0.56276 0.03772 0.0
C44 C 0.78587 0.53261 0.04628 0.0
C45 C 0.77233 0.51619 0.93946 0.0
C46 C 0.77484 0.53025 0.8255 0.0
C47 C 0.79173 0.56014 0.81679 0.0
C48 C 0.83165 0.67126 0.24437 0.0
C49 C 0.77017 0.65392 0.05192 0.0
C50 C 0.83621 0.76591 0.08907 0.0
Eu51 Eu 0.8329 0.71749 0.01747 0.0
C52 C 0.83758 0.79391 0.12274 0.0
C53 C 0.82895 0.80832 0.03741 0.0
C54 C 0.83113 0.83516 0.06708 0.0
C55 C 0.84155 0.84839 0.18436 0.0
C56 C 0.84931 0.83315 0.27057 0.0
C57 C 0.84778 0.80674 0.23963 0.0
C58 C 0.82949 0.7004 0.77134 0.0
C59 C 0.89208 0.71265 0.95179 0.0
O60 O 0.81024 0.62054 0.86221 0.0
O61 O 0.8428 0.62246 0.99448 0.0
O62 O 0.83019 0.64727 0.2084 0.0
O63 O 0.83222 0.68492 0.1466 0.0
O64 O 0.78245 0.63992 1.00488 0.0
O65 O 0.78522 0.68256 0.07626 0.0
O66 O 0.8539 0.75742 0.13253 0.0
O67 O 0.81657 0.74771 0.01104 0.0
O68 O 0.83037 0.72409 0.80642 0.0
O69 O 0.82977 0.68752 0.87004 0.0
O70 O 0.88168 0.72996 0.98755 0.0
O71 O 0.87548 0.68434 0.94234 0.0
H72 H 0.81318 0.57518 0.12062 0.0
H73 H 0.78401 0.52215 0.13521 0.0
H74 H 0.76383 0.51813 0.74261 0.0
H75 H 0.79375 0.57053 0.72739 0.0
H76 H 0.82105 0.79912 0.94606 0.0
H77 H 0.82518 0.8457 0.99623 0.0
H78 H 0.85649 0.84131 0.36362 0.0
H79 H 0.85434 0.79618 0.30816 0.0
C80 C 0.69049 0.15977 0.00708 0.0
Eu81 Eu 0.63838 0.11571 0.02858 0.0
C82 C 0.72029 0.16557 1.0003 0.0
C83 C 0.7414 0.18785 0.07379 0.0
C84 C 0.77048 0.19591 0.06089 0.0
C85 C 0.7787 0.18178 0.97382 0.0
C86 C 0.75734 0.15837 0.90507 0.0
C87 C 0.72822 0.1502 0.91853 0.0
C88 C 0.6144 0.09895 0.26149 0.0
C89 C 0.64487 0.06048 0.05167 0.0
C90 C 0.53328 1.01579 0.08141 0.0
Eu91 Eu 0.58419 0.06103 0.02978 0.0
C92 C 0.5042 0.98953 0.10962 0.0
C93 C 0.49607 0.96221 0.05765 0.0
C94 C 0.46916 0.9374 0.08674 0.0
C95 C 0.44917 0.93896 0.16844 0.0
C96 C 0.45735 0.96663 0.21836 0.0
C97 C 0.48436 0.99129 0.19035 0.0
C98 C 0.60674 0.07583 0.79557 0.0
C99 C 0.58579 0.1248 0.97486 0.0
O100 O 0.67366 0.14668 0.91181 0.0
O101 O 0.67749 0.15031 0.11406 0.0
O102 O 0.62456 0.12476 0.21564 0.0
O103 O 0.61611 0.08273 0.1807 0.0
O104 O 0.65505 0.08521 0.99264 0.0
O105 O 0.61787 0.04788 0.09627 0.0
O106 O 0.54325 0.04087 0.1375 0.0
O107 O 0.55082 1.01561 0.99667 0.0
O108 O 0.59422 0.04963 0.84 0.0
O109 O 0.6063 0.09287 0.87618 0.0
O110 O 0.56945 0.09631 1.00186 0.0
O111 O 0.61403 0.13705 0.97079 0.0
H112 H 0.73548 0.19967 0.13812 0.0
H113 H 0.78662 0.21415 0.11414 0.0
H114 H 0.76328 0.14699 0.83839 0.0
H115 H 0.71213 0.13255 0.86247 0.0
H116 H 0.51073 0.95985 0.99526 0.0
H117 H 0.46442 0.91689 0.04647 0.0
H118 H 0.44279 0.9696 0.27867 0.0
H119 H 0.48964 1.01187 0.23194 0.0
C120 C 0.81605 1.02839 0.22645 0.0
Eu121 Eu 0.86124 1.0277 0.32116 0.0
C122 C 0.79145 1.03467 0.22115 0.0
C123 C 0.76446 1.01619 0.27845 0.0
C124 C 0.73997 1.01922 0.25532 0.0
C125 C 0.74151 0.04081 0.17363 0.0
C126 C 0.76895 0.05992 0.12037 0.0
C127 C 0.79329 0.05674 0.14279 0.0
C128 C 0.87505 1.02519 0.56741 0.0
C129 C 0.92364 0.08917 0.3924 0.0
C130 C 0.96551 1.02366 0.42476 0.0
Eu131 Eu 0.92312 1.02933 0.34248 0.0
C132 C 0.97502 1.00241 0.40728 0.0
C133 C 1.0009 1.01033 0.34299 0.0
C134 C 1.01158 0.99123 0.33742 0.0
C135 C 0.99656 0.96424 0.39716 0.0
C136 C 0.96989 0.95562 0.45511 0.0
C137 C 0.95912 0.97451 0.45994 0.0
C138 C 0.90764 1.02997 0.09541 0.0
C139 C 0.86629 0.96734 0.29525 0.0
O140 O 0.84301 0.04893 0.20542 0.0
O141 O 0.81421 1.0078 0.30004 0.0
O142 O 0.8512 1.02416 0.53115 0.0
O143 O 0.88907 1.02658 0.46964 0.0
O144 O 0.89545 0.07691 0.35917 0.0
O145 O 0.9377 0.07472 0.39577 0.0
O146 O 0.94099 1.0143 0.48485 0.0
O147 O 0.96841 0.04039 0.32939 0.0
O148 O 0.93133 1.03072 0.13095 0.0
O149 O 0.89428 1.02939 0.1938 0.0
O150 O 0.89301 0.98187 0.33795 0.0
O151 O 0.85074 0.98035 0.27045 0.0
H152 H 0.7619 0.99861 0.33799 0.0
H153 H 0.71957 1.00382 0.2982 0.0
H154 H 0.77183 0.07743 0.05973 0.0
H155 H 0.81346 0.07117 0.09543 0.0
H156 H 1.01337 1.03164 0.30108 0.0
H157 H 1.03231 0.99816 0.2929 0.0
H158 H 0.958 0.9347 0.50104 0.0
H159 H 0.93889 0.96755 0.50895 0.0
C160 C 0.26694 0.72986 0.2626 0.0
Eu161 Eu 0.27171 0.78032 0.31352 0.0
C162 C 0.26422 0.70093 0.2336 0.0
C163 C 0.27069 0.68553 0.32296 0.0
C164 C 0.26852 0.6586 0.29414 0.0
C165 C 0.26027 0.64625 0.17396 0.0
C166 C 0.25453 0.66237 0.08435 0.0
C167 C 0.2561 0.68886 0.11401 0.0
C168 C 0.27935 0.803 0.54689 0.0
C169 C 0.20893 0.78087 0.36784 0.0
C170 C 0.27688 0.88535 0.33142 0.0
Eu171 Eu 0.27024 0.83388 0.31248 0.0
C172 C 0.30031 0.91544 0.3361 0.0
C173 C 0.29884 0.93563 0.25718 0.0
C174 C 0.31907 0.96498 0.26828 0.0
C175 C 0.34089 0.97437 0.35901 0.0
C176 C 0.34336 0.95397 0.43326 0.0
C177 C 0.32321 0.92458 0.42164 0.0
C178 C 0.26344 0.80978 0.08078 0.0
C179 C 0.33274 0.84173 0.29213 0.0
O180 O 0.25413 0.74105 0.19689 0.0
O181 O 0.28179 0.74585 0.35725 0.0
O182 O 0.29358 0.7911 0.50262 0.0
O183 O 0.26161 0.80214 0.46614 0.0
O184 O 0.22139 0.76487 0.34061 0.0
O185 O 0.22467 0.80908 0.37179 0.0
O186 O 0.27396 0.86897 0.42756 0.0
O187 O 0.27331 0.87219 0.22509 0.0
O188 O 0.24721 0.81926 0.12592 0.0
O189 O 0.28165 0.81209 0.16192 0.0
O190 O 0.31773 0.85179 0.34774 0.0
O191 O 0.31883 0.81448 0.25056 0.0
H192 H 0.27718 0.69418 0.41611 0.0
H193 H 0.27293 0.64737 0.36743 0.0
H194 H 0.24911 0.65493 0.98931 0.0
H195 H 0.25142 0.70019 0.04188 0.0
H196 H 0.2814 0.92878 0.18998 0.0
H197 H 0.31672 0.9804 0.21059 0.0
H198 H 0.36035 0.96085 0.50271 0.0
H199 H 0.32503 0.90923 0.48203 0.0
C200 C 0.5683 0.48153 0.22941 0.0
Eu201 Eu 0.52162 0.43649 0.32035 0.0
C202 C 0.59881 0.50688 0.22032 0.0
C203 C 0.60824 0.53241 0.29075 0.0
C204 C 0.63534 0.55757 0.26724 0.0
C205 C 0.65395 0.5582 0.1719 0.0
C206 C 0.64467 0.5322 0.10452 0.0
C207 C 0.61763 0.50719 0.12775 0.0
C208 C 0.50469 0.42356 0.56732 0.0
C209 C 0.51601 0.37212 0.38915 0.0
C210 C 0.40992 0.33595 0.42586 0.0
Eu211 Eu 0.45866 0.37732 0.34349 0.0
C212 C 0.37966 0.32652 0.3995 0.0
C213 C 0.35866 0.29752 0.41912 0.0
C214 C 0.32939 0.28886 0.40784 0.0
C215 C 0.32095 0.30924 0.37692 0.0
C216 C 0.34215 0.33804 0.3512 0.0
C217 C 0.37141 0.34663 0.36184 0.0
C218 C 0.4753 0.39174 0.09559 0.0
C219 C 0.458 0.4356 0.28762 0.0
O220 O 0.56206 0.45463 0.20942 0.0
O221 O 0.54924 0.48335 0.30055 0.0
O222 O 0.52862 0.44625 0.53088 0.0
O223 O 0.4915 0.4102 0.46944 0.0
O224 O 0.53351 0.39978 0.3514 0.0
O225 O 0.4877 0.36055 0.39992 0.0
O226 O 0.42438 0.36132 0.48017 0.0
O227 O 0.42441 0.33203 0.33655 0.0
O228 O 0.4512 0.3693 0.13176 0.0
O229 O 0.48876 0.40453 0.19379 0.0
O230 O 0.44403 0.40966 0.33806 0.0
O231 O 0.48649 0.44879 0.26071 0.0
H232 H 0.5943 0.5333 0.36189 0.0
H233 H 0.64117 0.57684 0.32139 0.0
H234 H 0.65823 0.53101 0.03248 0.0
H235 H 0.6111 0.48819 0.07041 0.0
H236 H 0.36486 0.28184 0.44759 0.0
H237 H 0.31339 0.26659 0.42963 0.0
H238 H 0.33608 0.35403 0.32637 0.0
H239 H 0.38747 0.36914 0.34494 0.0
C240 C 0.47253 0.16954 0.65703 0.0
Eu241 Eu 0.51692 0.22096 0.65941 0.0
C242 C 0.45042 0.14793 0.57542 0.0
C243 C 0.42165 0.13383 0.61662 0.0
C244 C 0.40139 0.10781 0.56252 0.0
C245 C 0.40989 0.0955 0.4678 0.0
C246 C 0.43793 0.11122 0.41742 0.0
C247 C 0.45815 0.13748 0.4707 0.0
C248 C 0.52368 0.27326 0.57161 0.0
C249 C 0.55991 0.24194 0.43119 0.0
C250 C 0.62739 0.32532 0.70188 0.0
Eu251 Eu 0.58302 0.27386 0.69509 0.0
C252 C 0.64949 0.34574 0.78797 0.0
C253 C 0.67803 0.35114 0.77928 0.0
C254 C 0.70044 0.37526 0.83775 0.0
C255 C 0.69463 0.39465 0.90289 0.0
C256 C 0.6657 0.38755 0.92176 0.0
C257 C 0.64328 0.36319 0.86523 0.0
C258 C 0.57632 0.22167 0.78357 0.0
C259 C 0.53981 0.25299 0.92309 0.0
O260 O 0.49918 0.17513 0.63828 0.0
O261 O 0.47044 0.19231 0.68729 0.0
O262 O 0.49974 0.24836 0.56388 0.0
O263 O 0.54176 0.26805 0.62504 0.0
O264 O 0.53833 0.21915 0.48553 0.0
O265 O 0.57858 0.26561 0.49112 0.0
O266 O 0.60075 0.31953 0.72263 0.0
O267 O 0.62926 0.30282 0.66446 0.0
O268 O 0.60027 0.24655 0.79058 0.0
O269 O 0.55816 0.22681 0.73045 0.0
O270 O 0.56156 0.27566 0.86895 0.0
O271 O 0.52109 0.22937 0.86314 0.0
H272 H 0.41538 0.14173 0.69695 0.0
H273 H 0.37965 0.09624 0.60101 0.0
H274 H 0.44498 0.10213 0.3444 0.0
H275 H 0.48029 0.14826 0.43644 0.0
H276 H 0.68332 0.3379 0.72069 0.0
H277 H 0.72253 0.37992 0.82397 0.0
H278 H 0.66042 0.4021 0.9704 0.0
H279 H 0.6214 0.35946 0.87442 0.0
C280 C 0.12018 0.23098 0.66679 0.0
Eu281 Eu 0.07433 0.23585 0.66449 0.0
C282 C 0.14835 0.2443 0.60677 0.0
C283 C 0.16177 0.22771 0.59389 0.0
C284 C 0.18854 0.2394 0.5355 0.0
C285 C 0.20214 0.26786 0.48858 0.0
C286 C 0.18826 0.2843 0.49897 0.0
C287 C 0.1613 0.27248 0.5575 0.0
C288 C 1.01887 0.1924 0.59751 0.0
C289 C 0.06061 0.26341 0.43368 0.0
C290 C 0.97842 0.25687 0.67309 0.0
Eu291 Eu 1.02692 0.25712 0.69019 0.0
C292 C 0.95379 0.25203 0.74898 0.0
C293 C 0.93751 0.26446 0.70912 0.0
C294 C 0.91047 0.25549 0.76124 0.0
C295 C 0.89941 0.23382 0.85332 0.0
C296 C 0.91682 0.22314 0.90095 0.0
C297 C 0.94405 0.23223 0.84876 0.0
C298 C 0.082 0.30071 0.76065 0.0
C299 C 1.0422 0.23101 0.92595 0.0
O300 O 0.1158 0.2468 0.7477 0.0
O301 O 0.09823 0.21617 0.59205 0.0
O302 O 1.04192 0.19007 0.59251 0.0
O303 O 1.02723 0.21728 0.64239 0.0
O304 O 0.08173 0.2622 0.49277 0.0
O305 O 1.03772 0.26139 0.4899 0.0
O306 O 0.98093 0.23401 0.65316 0.0
O307 O 1.00317 0.28062 0.69333 0.0
O308 O 0.05837 0.30214 0.77037 0.0
O309 O 0.0743 0.27617 0.71181 0.0
O310 O 1.02254 0.23564 0.87223 0.0
O311 O 0.06348 0.23021 0.86636 0.0
H312 H 0.15163 0.20576 0.63014 0.0
H313 H 0.19898 0.22643 0.53075 0.0
H314 H 0.19832 0.30624 0.46273 0.0
H315 H 0.15069 0.28527 0.56492 0.0
H316 H 0.94493 0.27981 0.63242 0.0
H317 H 0.89751 0.26432 0.72473 0.0
H318 H 0.90861 0.20638 0.97198 0.0
H319 H 0.9566 0.22254 0.88077 0.0
C320 C 1.05252 0.82491 0.64684 0.0
Eu321 Eu 0.05822 0.77982 0.64772 0.0
C322 C 0.05549 0.84907 0.57166 0.0
C323 C 0.07058 0.87683 0.62336 0.0
C324 C 0.06665 0.89885 0.57557 0.0
C325 C 1.04732 0.89315 0.47642 0.0
C326 C 1.03473 0.86625 0.41576 0.0
C327 C 1.03888 0.84423 0.46304 0.0
C328 C 0.10331 0.77243 0.55964 0.0
C329 C 1.03534 0.73696 0.4206 0.0
C330 C 1.05025 0.66875 0.68955 0.0
Eu331 Eu 1.04413 0.71363 0.68436 0.0
C332 C 1.04794 0.64589 0.77249 0.0
C333 C 1.02757 0.61704 0.74484 0.0
C334 C 1.03005 0.59466 0.79898 0.0
C335 C 1.05336 0.60097 0.87915 0.0
C336 C 0.07186 0.62971 0.91709 0.0
C337 C 0.06907 0.65206 0.86456 0.0
C338 C 0.99885 0.72076 0.7717 0.0
C339 C 0.06669 0.75637 0.91212 0.0
O340 O 1.03167 0.79896 0.61526 0.0
O341 O 0.07629 0.8258 0.68705 0.0
O342 O 0.10263 0.79647 0.55088 0.0
O343 O 0.08002 0.75465 0.614 0.0
O344 O 1.03414 0.7584 0.47544 0.0
O345 O 1.04043 0.71834 0.48045 0.0
O346 O 0.07141 0.69513 0.71287 0.0
O347 O 1.0261 0.66742 0.65174 0.0
O348 O 0.99951 0.69671 0.77881 0.0
O349 O 1.02234 0.73889 0.71943 0.0
O350 O 0.06779 0.73485 0.85768 0.0
O351 O 0.0616 0.77495 0.85189 0.0
H352 H 0.08345 0.88087 0.7071 0.0
H353 H 0.07681 0.91963 0.62257 0.0
H354 H 1.01965 0.8614 0.33939 0.0
H355 H 1.02715 0.82291 0.42097 0.0
H356 H 1.01106 0.61183 0.67448 0.0
H357 H 1.01514 0.57258 0.77027 0.0
H358 H 0.09012 0.63526 0.97824 0.0
H359 H 0.08495 0.6742 0.8887 0.0
C360 C 0.23781 0.4712 0.55148 0.0
C361 C 0.21851 0.46877 0.64758 0.0
H362 H 0.24574 0.47189 0.35384 0.0
C363 C 0.19135 0.46479 0.61186 0.0
H364 H 0.25892 0.47411 0.57464 0.0
C365 C 0.18389 0.46367 0.48485 0.0
C366 C 0.20316 0.46607 0.3888 0.0
H367 H 0.17563 0.46215 0.68174 0.0
H368 H 0.16275 0.46069 0.46182 0.0
C369 C 0.23027 0.46984 0.42427 0.0
C370 C 0.82874 0.71005 0.54097 0.0
C371 C 0.82953 0.69222 0.63707 0.0
H372 H 0.82885 0.71785 0.34349 0.0
C373 C 0.83119 0.66772 0.60183 0.0
H374 H 0.82757 0.72923 0.56396 0.0
C375 C 0.83182 0.66119 0.47487 0.0
C376 C 0.83113 0.67907 0.37881 0.0
H377 H 0.83231 0.65374 0.67205 0.0
H378 H 0.83305 0.64204 0.45187 0.0
C379 C 0.82955 0.70363 0.41398 0.0
C380 C 0.60473 0.06023 0.57247 0.0
C381 C 0.60975 0.08207 0.65908 0.0
H382 H 0.60199 0.04828 0.37971 0.0
C383 C 0.61612 0.10944 0.61354 0.0
H384 H 0.59971 0.03888 0.60423 0.0
C385 C 0.61719 0.11474 0.48478 0.0
C386 C 0.612 0.09285 0.39814 0.0
H387 H 0.62001 0.12672 0.67749 0.0
H388 H 0.6222 0.13608 0.45309 0.0
C389 C 0.60587 0.06555 0.44368 0.0
C390 C 0.91078 1.03026 0.7381 0.0
C391 C 0.88355 1.02606 0.70226 0.0
H392 H 0.93943 1.03462 0.8882 0.0
C393 C 0.86416 1.02349 0.79819 0.0
H394 H 0.92655 1.033 0.66832 0.0
C395 C 0.87168 1.02492 0.92543 0.0
C396 C 0.89887 1.0289 0.96097 0.0
H397 H 0.843 1.02041 0.77486 0.0
H398 H 0.85615 1.02275 0.99578 0.0
C399 C 0.91823 1.03147 0.86508 0.0
C400 C 0.25449 0.81137 0.72858 0.0
C401 C 0.27601 0.80578 0.68335 0.0
H402 H 0.23341 0.8166 0.88866 0.0
C403 C 0.29323 0.80128 0.77022 0.0
H404 H 0.24077 0.81482 0.66444 0.0
C405 C 0.28894 0.80219 0.89898 0.0
C406 C 0.26726 0.80756 0.9442 0.0
H407 H 0.30995 0.79686 0.7387 0.0
H408 H 0.30265 0.79875 0.96318 0.0
C409 C 0.25015 0.81219 0.85726 0.0
C410 C 0.51448 0.4338 0.79823 0.0
C411 C 0.4966 0.41529 0.70216 0.0
H412 H 0.52225 0.44128 0.99586 0.0
C413 C 0.472 0.38909 0.73786 0.0
H414 H 0.53374 0.45416 0.77502 0.0
C415 C 0.46541 0.38179 0.86491 0.0
C416 C 0.48331 0.40027 0.96096 0.0
H417 H 0.45798 0.37404 0.66785 0.0
H418 H 0.44618 0.3614 0.88799 0.0
C419 C 0.508 0.42643 0.92545 0.0
C420 C 0.53846 0.21978 0.22943 0.0
C421 C 0.55738 0.24445 0.29793 0.0
H422 H 0.51671 0.20327 0.05757 0.0
C423 C 0.56874 0.27218 0.24485 0.0
H424 H 0.52914 0.19821 0.26927 0.0
C425 C 0.561 0.27518 0.12508 0.0
C426 C 0.54213 0.25051 0.05649 0.0
H427 H 0.58277 0.29169 0.29692 0.0
H428 H 0.57034 0.29674 0.08519 0.0
C429 C 0.53072 0.22278 0.10967 0.0
C430 C 1.03114 0.25093 0.24293 0.0
C431 C 0.05749 0.25761 0.30055 0.0
H432 H 1.00445 0.23466 0.08267 0.0
C433 C 0.07755 0.25257 0.23735 0.0
H434 H 1.01485 0.25398 0.28982 0.0
C435 C 0.07138 0.24119 0.11789 0.0
C436 C 1.04513 0.23487 0.06018 0.0
H437 H 0.09775 0.25692 0.2806 0.0
H438 H 0.08771 0.23849 0.06946 0.0
C439 C 1.02481 0.23918 0.1249 0.0
C440 C 1.03738 0.7606 0.22051 0.0
C441 C 1.0403 0.73956 0.28717 0.0
H442 H 1.04513 0.78378 0.05065 0.0
C443 C 1.05397 0.72566 0.23204 0.0
H444 H 1.02728 0.77192 0.26164 0.0
C445 C 0.06493 0.73301 0.1125 0.0
C446 C 0.06192 0.75397 0.04568 0.0
H447 H 0.05716 0.7098 0.28223 0.0
H448 H 0.07504 0.72169 0.07143 0.0
C449 C 1.04832 0.76793 0.1009 0.0
C450 C 0.43298 0.45261 0.13469 0.0
C451 C 0.43903 0.44829 0.25824 0.0
H452 H 0.40421 0.45782 0.00984 0.0
C453 C 0.42069 0.44835 0.35254 0.0
H454 H 0.44582 0.45152 0.05891 0.0
C455 C 0.39681 0.45189 0.32507 0.0
C456 C 0.38967 0.45486 0.20124 0.0
H457 H 0.42412 0.44433 0.44837 0.0
H458 H 0.38362 0.45171 0.40205 0.0
C459 C 0.40873 0.45589 0.10662 0.0
C460 C 0.86556 0.89552 0.30738 0.0
C461 C 0.8454 0.8781 0.2158 0.0
H462 H 0.88629 0.93525 0.40723 0.0
C463 C 0.82994 0.88998 0.15472 0.0
H464 H 0.87889 0.88857 0.35542 0.0
C465 C 0.83512 0.91829 0.18265 0.0
C466 C 0.85572 0.9355 0.27345 0.0
H467 H 0.81392 0.87762 0.08436 0.0
H468 H 0.82374 0.92696 0.13048 0.0
C469 C 0.87021 0.92311 0.3365 0.0
C470 C 0.40567 0.8879 0.12241 0.0
C471 C 0.42025 0.9122 0.20263 0.0
H472 H 0.36723 0.8464 0.08731 0.0
C473 C 0.4065 0.91082 0.31683 0.0
H474 H 0.4149 0.88774 0.0329 0.0
C475 C 0.37907 0.88722 0.34682 0.0
C476 C 0.36418 0.86345 0.26576 0.0
H477 H 0.41672 0.92811 0.38434 0.0
H478 H 0.36912 0.88794 0.43376 0.0
C479 C 0.37816 0.86388 0.15372 0.0
C480 C 0.59011 0.17318 1.00005 0.0
C481 C 0.57479 0.14537 0.94596 0.0
H482 H 0.6025 0.21809 0.99193 0.0
C483 C 0.55668 0.14195 0.84327 0.0
H484 H 0.6049 0.1771 0.07673 0.0
C485 C 0.55511 0.16604 0.794 0.0
C486 C 0.57214 0.19419 0.84462 0.0
H487 H 0.54545 0.1213 0.79554 0.0
H488 H 0.54223 0.16302 0.71133 0.0
C489 C 0.58898 0.19697 0.9502 0.0
C490 C 0.10765 0.3343 0.93815 0.0
C491 C 0.10987 0.32227 0.82488 0.0
H492 H 0.12767 0.36877 0.07094 0.0
C493 C 0.13742 0.33551 0.76678 0.0
H494 H 0.08686 0.32528 0.98494 0.0
C495 C 0.16135 0.36117 0.81694 0.0
C496 C 0.15844 0.37388 0.92758 0.0
H497 H 0.13988 0.32749 0.6777 0.0
H498 H 0.18131 0.37229 0.76387 0.0
C499 C 0.13133 0.35933 0.98848 0.0
C500 C 0.96544 0.74314 0.78132 0.0
C501 C 0.97535 0.72493 0.83034 0.0
H502 H 0.93128 0.75415 0.78121 0.0
C503 C 0.95998 0.70711 0.93188 0.0
H504 H 0.97637 0.75689 0.70192 0.0
C505 C 0.93497 0.70621 0.97905 0.0
C506 C 0.92367 0.72276 0.92613 0.0
H507 H 0.96666 0.69272 0.97248 0.0
H508 H 0.92314 0.69076 0.05262 0.0
C509 C 0.93968 0.74183 0.82779 0.0
C510 C 0.07402 0.5777 0.01681 0.0
C511 C 0.06175 0.57893 0.90255 0.0
H512 H 0.09661 0.56008 0.11676 0.0
C513 C 0.0609 0.56142 0.80326 0.0
H514 H 0.07495 0.59104 0.09462 0.0
C515 C 0.07286 0.54372 0.81639 0.0
C516 C 0.08634 0.5435 0.92826 0.0
H517 H 1.05231 0.56239 0.71294 0.0
H518 H 0.07234 0.53082 0.73746 0.0
C519 C 0.08624 0.55999 0.02969 0.0
C520 C 0.75858 0.46856 0.84648 0.0
C521 C 0.75575 0.48439 0.94413 0.0
H522 H 0.74112 0.42792 0.75569 0.0
C523 C 0.73547 0.4698 0.03917 0.0
H524 H 0.77446 0.47933 0.77325 0.0
C525 C 0.71685 0.4399 0.03166 0.0
C526 C 0.71819 0.42441 0.92846 0.0
H527 H 0.73293 0.48163 0.1154 0.0
H528 H 0.70053 0.42918 0.10326 0.0
C529 C 0.7398 0.43894 0.83791 0.0
C530 C 0.85964 0.21465 0.01167 0.0
C531 C 0.8686 0.21999 0.88688 0.0
H532 H 0.82356 0.19797 0.13759 0.0
C533 C 0.84785 0.21149 0.7916 0.0
H534 H 0.87539 0.22098 0.08629 0.0
C535 C 0.81858 0.19842 0.82046 0.0
C536 C 0.80953 0.19351 0.94512 0.0
H537 H 0.85427 0.21492 0.69444 0.0
H538 H 0.80307 0.1928 0.74523 0.0
C539 C 0.8302 0.20161 0.04075 0.0
C540 C 0.68929 0.05808 0.99447 0.0
C541 C 0.66625 0.05046 0.07857 0.0
H542 H 0.72959 0.06027 0.95451 0.0
C543 C 0.66726 0.03807 0.19326 0.0
H544 H 0.6895 0.06782 0.90538 0.0
C545 C 0.69122 1.0345 0.22404 0.0
C546 C 0.71483 0.04306 0.14075 0.0
H547 H 0.65035 1.03253 0.2618 0.0
H548 H 0.69162 1.026 0.31524 0.0
C549 C 0.71282 0.05421 0.02411 0.0
C550 C 0.27092 0.60406 0.20791 0.0
C551 C 0.25668 0.61662 0.14206 0.0
H552 H 0.27637 0.56666 0.23451 0.0
C553 C 0.23807 0.59999 0.04447 0.0
H554 H 0.28572 0.61579 0.28312 0.0
C555 C 0.2337 0.57253 0.01433 0.0
C556 C 0.24696 0.55947 0.08176 0.0
H557 H 0.2257 0.60749 0.9923 0.0
H558 H 0.21871 0.56094 0.93924 0.0
C559 C 0.26605 0.57589 0.17859 0.0
C560 C 0.72708 0.63075 0.20138 0.0
C561 C 0.73837 0.63475 0.07963 0.0
H562 H 0.69234 0.60369 0.32717 0.0
C563 C 0.7208 0.61455 0.98844 0.0
H564 H 0.74029 0.64516 0.27525 0.0
C565 C 0.69343 0.59074 0.01762 0.0
C566 C 0.68247 0.58561 0.14038 0.0
H567 H 0.72889 0.61646 0.89424 0.0
H568 H 0.68113 0.57602 0.94309 0.0
C569 C 0.69953 0.60659 0.23125 0.0
C570 C 1.03252 0.92023 0.33129 0.0
C571 C 1.03617 0.91289 0.45301 0.0
H572 H 1.01702 0.94289 0.21776 0.0
C573 C 1.02686 0.92262 0.55478 0.0
H574 H 1.03933 0.91262 0.25178 0.0
C575 C 1.01405 0.93939 0.53545 0.0
C576 C 1.01031 0.94667 0.41415 0.0
H577 H 1.02877 0.91662 0.64944 0.0
H578 H 1.007 0.94666 0.61541 0.0
C579 C 1.01986 0.93737 0.31194 0.0
C580 C 0.37832 0.04452 0.53391 0.0
C581 C 0.39133 0.06473 0.43687 0.0
H582 H 0.35201 1.00003 0.58445 0.0
C583 C 0.38821 0.05506 0.31335 0.0
H584 H 0.38101 0.05137 0.63036 0.0
C585 C 0.37201 1.0255 0.28734 0.0
C586 C 0.35905 1.00541 0.38477 0.0
H587 H 0.39825 0.07031 0.23732 0.0
H588 H 0.36974 1.01832 0.19155 0.0
C589 C 0.36223 1.01513 0.50803 0.0
C590 C 0.23966 0.26421 0.36459 0.0
C591 C 0.23179 0.28079 0.43915 0.0
H592 H 0.27446 0.26055 0.28478 0.0
C593 C 0.25317 0.3084 0.47931 0.0
H594 H 0.22345 0.24299 0.33126 0.0
C595 C 0.28222 0.31844 0.45232 0.0
C596 C 0.29023 0.30098 0.38497 0.0
H597 H 0.24769 0.32142 0.53841 0.0
H598 H 0.2985 0.33902 0.49103 0.0
C599 C 0.26872 0.27421 0.33801 0.0
C600 C 0.54602 0.32907 0.56144 0.0
C601 C 0.52784 0.30095 0.51256 0.0
H602 H 0.55716 0.37427 0.56074 0.0
C603 C 0.51012 0.29852 0.41078 0.0
H604 H 0.55962 0.33186 0.64122 0.0
C605 C 0.50932 0.32268 0.3631 0.0
C606 C 0.52593 0.35055 0.41555 0.0
H607 H 0.49573 0.27745 0.37036 0.0
H608 H 0.49393 0.31908 0.28938 0.0
C609 C 0.54485 0.35355 0.51432 0.0
C610 C 0.93993 0.13218 0.53976 0.0
C611 C 0.94272 0.12067 0.42545 0.0
H612 H 0.9615 0.16454 0.68369 0.0
C613 C 0.96954 0.13607 0.36289 0.0
H614 H 0.92021 0.12029 0.59386 0.0
C615 C 0.99318 0.16078 0.41526 0.0
C616 C 0.99108 0.1715 0.53211 0.0
H617 H 0.97308 0.12745 0.27751 0.0
H618 H 1.01388 0.1705 0.36724 0.0
C619 C 0.96377 0.15748 0.59198 0.0
C620 C 0.1377 0.75128 0.55241 0.0
C621 C 0.12619 0.76767 0.49857 0.0
H622 H 0.17303 0.74198 0.5533 0.0
C623 C 0.13962 0.78346 0.38979 0.0
H624 H 0.12836 0.73926 0.63759 0.0
C625 C 0.16433 0.7842 0.33971 0.0
C626 C 0.17728 0.76959 0.39683 0.0
H627 H 0.13171 0.79651 0.34568 0.0
H628 H 0.1748 0.7983 0.26048 0.0
C629 C 0.1632 0.75253 0.50304 0.0
loop_
_geom_bond_atom_site_label_1
_geom_bond_atom_site_label_2
_geom_bond_distance
_geom_bond_site_symmetry_2
_ccdc_geom_bond_type
C0 Eu1 2.835 . S
C0 C2 1.500 . S
C0 O20 1.257 . S
C0 O21 1.260 . S
Eu1 C0 2.835 . S
Eu1 O20 2.473 . S
Eu1 O21 2.480 . S
Eu1 O22 2.430 . S
Eu1 O23 2.670 . S
Eu1 O24 2.394 . S
Eu1 O29 2.355 1_554 S
Eu1 O31 2.374 . S
C2 C0 1.500 . S
C2 C3 1.377 . S
C2 C7 1.377 1_554 S
C3 C2 1.377 . S
C3 C4 1.395 . S
C3 H32 0.931 . S
C4 C3 1.395 . S
C4 C5 1.383 . S
C4 H33 0.931 . S
C5 C4 1.383 . S
C5 C6 1.394 1_554 S
C6 C5 1.394 1_556 S
C6 C7 1.378 . S
C6 H34 0.931 . S
C7 C2 1.377 1_556 S
C7 C6 1.378 . S
C7 H35 0.931 . S
C8 O22 1.259 . S
C8 O23 1.270 . S
C9 O24 1.251 . S
C9 O25 1.251 . S
C10 Eu11 2.835 . S
C10 C12 1.500 . S
C10 O26 1.257 . S
C10 O27 1.260 . S
Eu11 C10 2.835 . S
Eu11 O23 2.355 . S
Eu11 O25 2.374 . S
Eu11 O26 2.473 . S
Eu11 O27 2.480 . S
Eu11 O28 2.430 1_554 S
Eu11 O29 2.670 1_554 S
Eu11 O30 2.394 . S
C12 C10 1.500 . S
C12 C13 1.377 . S
C12 C17 1.377 . S
C13 C12 1.377 . S
C13 C14 1.395 . S
C13 H36 0.931 . S
C14 C13 1.395 . S
C14 C15 1.383 . S
C14 H37 0.931 . S
C15 C14 1.383 . S
C15 C16 1.394 . S
C16 C15 1.394 . S
C16 C17 1.378 . S
C16 H38 0.931 . S
C17 C12 1.377 . S
C17 C16 1.378 . S
C17 H39 0.931 . S
C18 O28 1.259 . S
C18 O29 1.270 . S
C19 O30 1.251 . S
C19 O31 1.251 . S
O20 C0 1.257 . S
O20 Eu1 2.473 . S
O21 C0 1.260 . S
O21 Eu1 2.480 . S
O22 Eu1 2.430 . S
O22 C8 1.259 . S
O23 Eu1 2.670 . S
O23 C8 1.270 . S
O23 Eu11 2.355 . S
O24 Eu1 2.394 . S
O24 C9 1.251 . S
O25 C9 1.251 . S
O25 Eu11 2.374 . S
O26 C10 1.257 . S
O26 Eu11 2.473 . S
O27 C10 1.260 . S
O27 Eu11 2.480 . S
O28 Eu11 2.430 1_556 S
O28 C18 1.259 . S
O29 Eu1 2.355 1_556 S
O29 Eu11 2.670 1_556 S
O29 C18 1.270 . S
O30 Eu11 2.394 . S
O30 C19 1.251 . S
O31 Eu1 2.374 . S
O31 C19 1.251 . S
H32 C3 0.931 . S
H33 C4 0.931 . S
H34 C6 0.931 . S
H35 C7 0.931 . S
H36 C13 0.931 . S
H37 C14 0.931 . S
H38 C16 0.931 . S
H39 C17 0.931 . S
C40 Eu41 2.835 . S
C40 C42 1.500 . S
C40 O60 1.257 . S
C40 O61 1.260 . S
Eu41 C40 2.835 . S
Eu41 O60 2.473 . S
Eu41 O61 2.480 . S
Eu41 O62 2.430 . S
Eu41 O63 2.670 . S
Eu41 O64 2.394 . S
Eu41 O69 2.355 1_554 S
Eu41 O71 2.374 . S
C42 C40 1.500 . S
C42 C43 1.377 . S
C42 C47 1.377 1_554 S
C43 C42 1.377 . S
C43 C44 1.395 . S
C43 H72 0.931 . S
C44 C43 1.395 . S
C44 C45 1.383 . S
C44 H73 0.931 . S
C45 C44 1.383 . S
C45 C46 1.394 1_554 S
C46 C45 1.394 1_556 S
C46 C47 1.378 . S
C46 H74 0.931 . S
C47 C42 1.377 1_556 S
C47 C46 1.378 . S
C47 H75 0.931 . S
C48 O62 1.259 . S
C48 O63 1.270 . S
C49 O64 1.251 . S
C49 O65 1.251 . S
C50 Eu51 2.835 . S
C50 C52 1.500 . S
C50 O66 1.257 . S
C50 O67 1.260 . S
Eu51 C50 2.835 . S
Eu51 O63 2.355 . S
Eu51 O65 2.374 . S
Eu51 O66 2.473 . S
Eu51 O67 2.480 . S
Eu51 O68 2.430 1_554 S
Eu51 O69 2.670 1_554 S
Eu51 O70 2.394 . S
C52 C50 1.500 . S
C52 C53 1.377 . S
C52 C57 1.377 . S
C53 C52 1.377 . S
C53 C54 1.395 . S
C53 H76 0.931 . S
C54 C53 1.395 . S
C54 C55 1.383 . S
C54 H77 0.931 . S
C55 C54 1.383 . S
C55 C56 1.394 . S
C56 C55 1.394 . S
C56 C57 1.378 . S
C56 H78 0.931 . S
C57 C52 1.377 . S
C57 C56 1.378 . S
C57 H79 0.931 . S
C58 O68 1.259 . S
C58 O69 1.270 . S
C59 O70 1.251 . S
C59 O71 1.251 . S
O60 C40 1.257 . S
O60 Eu41 2.473 . S
O61 C40 1.260 . S
O61 Eu41 2.480 . S
O62 Eu41 2.430 . S
O62 C48 1.259 . S
O63 Eu41 2.670 . S
O63 C48 1.270 . S
O63 Eu51 2.355 . S
O64 Eu41 2.394 . S
O64 C49 1.251 . S
O65 C49 1.251 . S
O65 Eu51 2.374 . S
O66 C50 1.257 . S
O66 Eu51 2.473 . S
O67 C50 1.260 . S
O67 Eu51 2.480 . S
O68 Eu51 2.430 1_556 S
O68 C58 1.259 . S
O69 Eu41 2.355 1_556 S
O69 Eu51 2.670 1_556 S
O69 C58 1.270 . S
O70 Eu51 2.394 . S
O70 C59 1.251 . S
O71 Eu41 2.374 . S
O71 C59 1.251 . S
H72 C43 0.931 . S
H73 C44 0.931 . S
H74 C46 0.931 . S
H75 C47 0.931 . S
H76 C53 0.931 . S
H77 C54 0.931 . S
H78 C56 0.931 . S
H79 C57 0.931 . S
C80 Eu81 2.835 . S
C80 C82 1.500 . S
C80 O100 1.257 . S
C80 O101 1.260 . S
Eu81 C80 2.835 . S
Eu81 O100 2.473 . S
Eu81 O101 2.480 . S
Eu81 O102 2.430 . S
Eu81 O103 2.670 . S
Eu81 O104 2.394 . S
Eu81 O109 2.355 1_554 S
Eu81 O111 2.374 . S
C82 C80 1.500 . S
C82 C83 1.377 . S
C82 C87 1.377 1_554 S
C83 C82 1.377 . S
C83 C84 1.395 . S
C83 H112 0.931 . S
C84 C83 1.395 . S
C84 C85 1.383 . S
C84 H113 0.931 . S
C85 C84 1.383 . S
C85 C86 1.394 1_554 S
C86 C85 1.394 1_556 S
C86 C87 1.378 . S
C86 H114 0.931 . S
C87 C82 1.377 1_556 S
C87 C86 1.378 . S
C87 H115 0.931 . S
C88 O102 1.259 . S
C88 O103 1.270 . S
C89 O104 1.251 . S
C89 O105 1.251 . S
C90 Eu91 2.835 . S
C90 C92 1.500 1_545 S
C90 O106 1.257 . S
C90 O107 1.260 . S
Eu91 C90 2.835 . S
Eu91 O103 2.355 . S
Eu91 O105 2.374 . S
Eu91 O106 2.473 . S
Eu91 O107 2.480 . S
Eu91 O108 2.430 1_554 S
Eu91 O109 2.670 1_554 S
Eu91 O110 2.394 . S
C92 C90 1.500 1_565 S
C92 C93 1.377 . S
C92 C97 1.377 1_565 S
C93 C92 1.377 . S
C93 C94 1.395 . S
C93 H116 0.931 . S
C94 C93 1.395 . S
C94 C95 1.383 . S
C94 H117 0.931 . S
C95 C94 1.383 . S
C95 C96 1.394 . S
C96 C95 1.394 . S
C96 C97 1.378 1_565 S
C96 H118 0.931 . S
C97 C92 1.377 1_545 S
C97 C96 1.378 1_545 S
C97 H119 0.931 . S
C98 O108 1.259 . S
C98 O109 1.270 . S
C99 O110 1.251 . S
C99 O111 1.251 . S
O100 C80 1.257 . S
O100 Eu81 2.473 . S
O101 C80 1.260 . S
O101 Eu81 2.480 . S
O102 Eu81 2.430 . S
O102 C88 1.259 . S
O103 Eu81 2.670 . S
O103 C88 1.270 . S
O103 Eu91 2.355 . S
O104 Eu81 2.394 . S
O104 C89 1.251 . S
O105 C89 1.251 . S
O105 Eu91 2.374 . S
O106 C90 1.257 . S
O106 Eu91 2.473 . S
O107 C90 1.260 . S
O107 Eu91 2.480 . S
O108 Eu91 2.430 1_556 S
O108 C98 1.259 . S
O109 Eu81 2.355 1_556 S
O109 Eu91 2.670 1_556 S
O109 C98 1.270 . S
O110 Eu91 2.394 . S
O110 C99 1.251 . S
O111 Eu81 2.374 . S
O111 C99 1.251 . S
H112 C83 0.931 . S
H113 C84 0.931 . S
H114 C86 0.931 . S
H115 C87 0.931 . S
H116 C93 0.931 . S
H117 C94 0.931 . S
H118 C96 0.931 . S
H119 C97 0.931 . S
C120 Eu121 2.835 1_545 S
C120 C122 1.500 . S
C120 O140 1.257 . S
C120 O141 1.260 . S
Eu121 C120 2.835 1_565 S
Eu121 O140 2.473 1_565 S
Eu121 O141 2.480 1_565 S
Eu121 O142 2.430 . S
Eu121 O143 2.670 . S
Eu121 O144 2.394 1_565 S
Eu121 O149 2.355 . S
Eu121 O151 2.374 . S
C122 C120 1.500 . S
C122 C123 1.377 . S
C122 C127 1.377 . S
C123 C122 1.377 . S
C123 C124 1.395 . S
C123 H152 0.931 . S
C124 C123 1.395 . S
C124 C125 1.383 . S
C124 H153 0.931 . S
C125 C124 1.383 . S
C125 C126 1.394 . S
C126 C125 1.394 . S
C126 C127 1.378 . S
C126 H154 0.931 1_554 S
C127 C122 1.377 . S
C127 C126 1.378 . S
C127 H155 0.931 1_554 S
C128 O142 1.259 . S
C128 O143 1.270 . S
C129 O144 1.251 . S
C129 O145 1.251 . S
C130 Eu131 2.835 . S
C130 C132 1.500 . S
C130 O146 1.257 . S
C130 O147 1.260 . S
Eu131 C130 2.835 . S
Eu131 O143 2.355 . S
Eu131 O145 2.374 1_565 S
Eu131 O146 2.473 . S
Eu131 O147 2.480 . S
Eu131 O148 2.430 1_554 S
Eu131 O149 2.670 . S
Eu131 O150 2.394 . S
C132 C130 1.500 . S
C132 C133 1.377 . S
C132 C137 1.377 . S
C133 C132 1.377 . S
C133 C134 1.395 . S
C133 H156 0.931 . S
C134 C133 1.395 . S
C134 C135 1.383 . S
C134 H157 0.931 . S
C135 C134 1.383 . S
C135 C136 1.394 . S
C136 C135 1.394 . S
C136 C137 1.378 . S
C136 H158 0.931 . S
C137 C132 1.377 . S
C137 C136 1.378 . S
C137 H159 0.931 . S
C138 O148 1.259 . S
C138 O149 1.270 1_556 S
C139 O150 1.251 . S
C139 O151 1.251 . S
O140 C120 1.257 . S
O140 Eu121 2.473 1_545 S
O141 C120 1.260 . S
O141 Eu121 2.480 1_545 S
O142 Eu121 2.430 . S
O142 C128 1.259 . S
O143 Eu121 2.670 . S
O143 C128 1.270 . S
O143 Eu131 2.355 . S
O144 Eu121 2.394 1_545 S
O144 C129 1.251 . S
O145 C129 1.251 . S
O145 Eu131 2.374 1_545 S
O146 C130 1.257 . S
O146 Eu131 2.473 . S
O147 C130 1.260 . S
O147 Eu131 2.480 . S
O148 Eu131 2.430 1_556 S
O148 C138 1.259 . S
O149 Eu121 2.355 . S
O149 Eu131 2.670 . S
O149 C138 1.270 1_554 S
O150 Eu131 2.394 . S
O150 C139 1.251 . S
O151 Eu121 2.374 . S
O151 C139 1.251 . S
H152 C123 0.931 . S
H153 C124 0.931 . S
H154 C126 0.931 1_556 S
H155 C127 0.931 1_556 S
H156 C133 0.931 . S
H157 C134 0.931 . S
H158 C136 0.931 . S
H159 C137 0.931 . S
C160 Eu161 2.835 . S
C160 C162 1.500 . S
C160 O180 1.257 . S
C160 O181 1.260 . S
Eu161 C160 2.835 . S
Eu161 O180 2.473 . S
Eu161 O181 2.480 . S
Eu161 O182 2.430 . S
Eu161 O183 2.670 . S
Eu161 O184 2.394 . S
Eu161 O189 2.355 . S
Eu161 O191 2.374 . S
C162 C160 1.500 . S
C162 C163 1.377 . S
C162 C167 1.377 . S
C163 C162 1.377 . S
C163 C164 1.395 . S
C163 H192 0.931 . S
C164 C163 1.395 . S
C164 C165 1.383 . S
C164 H193 0.931 . S
C165 C164 1.383 . S
C165 C166 1.394 . S
C166 C165 1.394 . S
C166 C167 1.378 . S
C166 H194 0.931 1_554 S
C167 C162 1.377 . S
C167 C166 1.378 . S
C167 H195 0.931 1_554 S
C168 O182 1.259 . S
C168 O183 1.270 . S
C169 O184 1.251 . S
C169 O185 1.251 . S
C170 Eu171 2.835 . S
C170 C172 1.500 . S
C170 O186 1.257 . S
C170 O187 1.260 . S
Eu171 C170 2.835 . S
Eu171 O183 2.355 . S
Eu171 O185 2.374 . S
Eu171 O186 2.473 . S
Eu171 O187 2.480 . S
Eu171 O188 2.430 1_554 S
Eu171 O189 2.670 . S
Eu171 O190 2.394 . S
C172 C170 1.500 . S
C172 C173 1.377 . S
C172 C177 1.377 . S
C173 C172 1.377 . S
C173 C174 1.395 . S
C173 H196 0.931 . S
C174 C173 1.395 . S
C174 C175 1.383 . S
C174 H197 0.931 . S
C175 C174 1.383 . S
C175 C176 1.394 . S
C176 C175 1.394 . S
C176 C177 1.378 . S
C176 H198 0.931 . S
C177 C172 1.377 . S
C177 C176 1.378 . S
C177 H199 0.931 . S
C178 O188 1.259 . S
C178 O189 1.270 1_556 S
C179 O190 1.251 . S
C179 O191 1.251 . S
O180 C160 1.257 . S
O180 Eu161 2.473 . S
O181 C160 1.260 . S
O181 Eu161 2.480 . S
O182 Eu161 2.430 . S
O182 C168 1.259 . S
O183 Eu161 2.670 . S
O183 C168 1.270 . S
O183 Eu171 2.355 . S
O184 Eu161 2.394 . S
O184 C169 1.251 . S
O185 C169 1.251 . S
O185 Eu171 2.374 . S
O186 C170 1.257 . S
O186 Eu171 2.473 . S
O187 C170 1.260 . S
O187 Eu171 2.480 . S
O188 Eu171 2.430 1_556 S
O188 C178 1.259 . S
O189 Eu161 2.355 . S
O189 Eu171 2.670 . S
O189 C178 1.270 1_554 S
O190 Eu171 2.394 . S
O190 C179 1.251 . S
O191 Eu161 2.374 . S
O191 C179 1.251 . S
H192 C163 0.931 . S
H193 C164 0.931 . S
H194 C166 0.931 1_556 S
H195 C167 0.931 1_556 S
H196 C173 0.931 . S
H197 C174 0.931 . S
H198 C176 0.931 . S
H199 C177 0.931 . S
C200 Eu201 2.835 . S
C200 C202 1.500 . S
C200 O220 1.257 . S
C200 O221 1.260 . S
Eu201 C200 2.835 . S
Eu201 O220 2.473 . S
Eu201 O221 2.480 . S
Eu201 O222 2.430 . S
Eu201 O223 2.670 . S
Eu201 O224 2.394 . S
Eu201 O229 2.355 . S
Eu201 O231 2.374 . S
C202 C200 1.500 . S
C202 C203 1.377 . S
C202 C207 1.377 . S
C203 C202 1.377 . S
C203 C204 1.395 . S
C203 H232 0.931 . S
C204 C203 1.395 . S
C204 C205 1.383 . S
C204 H233 0.931 . S
C205 C204 1.383 . S
C205 C206 1.394 . S
C206 C205 1.394 . S
C206 C207 1.378 . S
C206 H234 0.931 1_554 S
C207 C202 1.377 . S
C207 C206 1.378 . S
C207 H235 0.931 1_554 S
C208 O222 1.259 . S
C208 O223 1.270 . S
C209 O224 1.251 . S
C209 O225 1.251 . S
C210 Eu211 2.835 . S
C210 C212 1.500 . S
C210 O226 1.257 . S
C210 O227 1.260 . S
Eu211 C210 2.835 . S
Eu211 O223 2.355 . S
Eu211 O225 2.374 . S
Eu211 O226 2.473 . S
Eu211 O227 2.480 . S
Eu211 O228 2.430 1_554 S
Eu211 O229 2.670 . S
Eu211 O230 2.394 . S
C212 C210 1.500 . S
C212 C213 1.377 . S
C212 C217 1.377 . S
C213 C212 1.377 . S
C213 C214 1.395 . S
C213 H236 0.931 . S
C214 C213 1.395 . S
C214 C215 1.383 . S
C214 H237 0.931 . S
C215 C214 1.383 . S
C215 C216 1.394 . S
C216 C215 1.394 . S
C216 C217 1.378 . S
C216 H238 0.931 . S
C217 C212 1.377 . S
C217 C216 1.378 . S
C217 H239 0.931 . S
C218 O228 1.259 . S
C218 O229 1.270 1_556 S
C219 O230 1.251 . S
C219 O231 1.251 . S
O220 C200 1.257 . S
O220 Eu201 2.473 . S
O221 C200 1.260 . S
O221 Eu201 2.480 . S
O222 Eu201 2.430 . S
O222 C208 1.259 . S
O223 Eu201 2.670 . S
O223 C208 1.270 . S
O223 Eu211 2.355 . S
O224 Eu201 2.394 . S
O224 C209 1.251 . S
O225 C209 1.251 . S
O225 Eu211 2.374 . S
O226 C210 1.257 . S
O226 Eu211 2.473 . S
O227 C210 1.260 . S
O227 Eu211 2.480 . S
O228 Eu211 2.430 1_556 S
O228 C218 1.259 . S
O229 Eu201 2.355 . S
O229 Eu211 2.670 . S
O229 C218 1.270 1_554 S
O230 Eu211 2.394 . S
O230 C219 1.251 . S
O231 Eu201 2.374 . S
O231 C219 1.251 . S
H232 C203 0.931 . S
H233 C204 0.931 . S
H234 C206 0.931 1_556 S
H235 C207 0.931 1_556 S
H236 C213 0.931 . S
H237 C214 0.931 . S
H238 C216 0.931 . S
H239 C217 0.931 . S
C240 Eu241 2.835 . S
C240 C242 1.500 . S
C240 O260 1.257 . S
C240 O261 1.260 . S
Eu241 C240 2.835 . S
Eu241 O260 2.473 . S
Eu241 O261 2.480 . S
Eu241 O262 2.430 . S
Eu241 O263 2.670 . S
Eu241 O264 2.394 . S
Eu241 O269 2.355 . S
Eu241 O271 2.374 . S
C242 C240 1.500 . S
C242 C243 1.377 . S
C242 C247 1.377 . S
C243 C242 1.377 . S
C243 C244 1.395 . S
C243 H272 0.931 . S
C244 C243 1.395 . S
C244 C245 1.383 . S
C244 H273 0.931 . S
C245 C244 1.383 . S
C245 C246 1.394 . S
C246 C245 1.394 . S
C246 C247 1.378 . S
C246 H274 0.931 . S
C247 C242 1.377 . S
C247 C246 1.378 . S
C247 H275 0.931 . S
C248 O262 1.259 . S
C248 O263 1.270 . S
C249 O264 1.251 . S
C249 O265 1.251 . S
C250 Eu251 2.835 . S
C250 C252 1.500 . S
C250 O266 1.257 . S
C250 O267 1.260 . S
Eu251 C250 2.835 . S
Eu251 O263 2.355 . S
Eu251 O265 2.374 . S
Eu251 O266 2.473 . S
Eu251 O267 2.480 . S
Eu251 O268 2.430 . S
Eu251 O269 2.670 . S
Eu251 O270 2.394 . S
C252 C250 1.500 . S
C252 C253 1.377 . S
C252 C257 1.377 . S
C253 C252 1.377 . S
C253 C254 1.395 . S
C253 H276 0.931 . S
C254 C253 1.395 . S
C254 C255 1.383 . S
C254 H277 0.931 . S
C255 C254 1.383 . S
C255 C256 1.394 . S
C256 C255 1.394 . S
C256 C257 1.378 . S
C256 H278 0.931 . S
C257 C252 1.377 . S
C257 C256 1.378 . S
C257 H279 0.931 . S
C258 O268 1.259 . S
C258 O269 1.270 . S
C259 O270 1.251 . S
C259 O271 1.251 . S
O260 C240 1.257 . S
O260 Eu241 2.473 . S
O261 C240 1.260 . S
O261 Eu241 2.480 . S
O262 Eu241 2.430 . S
O262 C248 1.259 . S
O263 Eu241 2.670 . S
O263 C248 1.270 . S
O263 Eu251 2.355 . S
O264 Eu241 2.394 . S
O264 C249 1.251 . S
O265 C249 1.251 . S
O265 Eu251 2.374 . S
O266 C250 1.257 . S
O266 Eu251 2.473 . S
O267 C250 1.260 . S
O267 Eu251 2.480 . S
O268 Eu251 2.430 . S
O268 C258 1.259 . S
O269 Eu241 2.355 . S
O269 Eu251 2.670 . S
O269 C258 1.270 . S
O270 Eu251 2.394 . S
O270 C259 1.251 . S
O271 Eu241 2.374 . S
O271 C259 1.251 . S
H272 C243 0.931 . S
H273 C244 0.931 . S
H274 C246 0.931 . S
H275 C247 0.931 . S
H276 C253 0.931 . S
H277 C254 0.931 . S
H278 C256 0.931 . S
H279 C257 0.931 . S
C280 Eu281 2.835 . S
C280 C282 1.500 . S
C280 O300 1.257 . S
C280 O301 1.260 . S
Eu281 C280 2.835 . S
Eu281 O300 2.473 . S
Eu281 O301 2.480 . S
Eu281 O302 2.430 1_455 S
Eu281 O303 2.670 1_455 S
Eu281 O304 2.394 . S
Eu281 O309 2.355 . S
Eu281 O311 2.374 . S
C282 C280 1.500 . S
C282 C283 1.377 . S
C282 C287 1.377 . S
C283 C282 1.377 . S
C283 C284 1.395 . S
C283 H312 0.931 . S
C284 C283 1.395 . S
C284 C285 1.383 . S
C284 H313 0.931 . S
C285 C284 1.383 . S
C285 C286 1.394 . S
C286 C285 1.394 . S
C286 C287 1.378 . S
C286 H314 0.931 . S
C287 C282 1.377 . S
C287 C286 1.378 . S
C287 H315 0.931 . S
C288 O302 1.259 . S
C288 O303 1.270 . S
C289 O304 1.251 . S
C289 O305 1.251 1_455 S
C290 Eu291 2.835 . S
C290 C292 1.500 . S
C290 O306 1.257 . S
C290 O307 1.260 . S
Eu291 C290 2.835 . S
Eu291 O303 2.355 . S
Eu291 O305 2.374 . S
Eu291 O306 2.473 . S
Eu291 O307 2.480 . S
Eu291 O308 2.430 . S
Eu291 O309 2.670 1_655 S
Eu291 O310 2.394 . S
C292 C290 1.500 . S
C292 C293 1.377 . S
C292 C297 1.377 . S
C293 C292 1.377 . S
C293 C294 1.395 . S
C293 H316 0.931 . S
C294 C293 1.395 . S
C294 C295 1.383 . S
C294 H317 0.931 . S
C295 C294 1.383 . S
C295 C296 1.394 . S
C296 C295 1.394 . S
C296 C297 1.378 . S
C296 H318 0.931 . S
C297 C292 1.377 . S
C297 C296 1.378 . S
C297 H319 0.931 . S
C298 O308 1.259 1_455 S
C298 O309 1.270 . S
C299 O310 1.251 . S
C299 O311 1.251 1_655 S
O300 C280 1.257 . S
O300 Eu281 2.473 . S
O301 C280 1.260 . S
O301 Eu281 2.480 . S
O302 Eu281 2.430 1_655 S
O302 C288 1.259 . S
O303 Eu281 2.670 1_655 S
O303 C288 1.270 . S
O303 Eu291 2.355 . S
O304 Eu281 2.394 . S
O304 C289 1.251 . S
O305 C289 1.251 1_655 S
O305 Eu291 2.374 . S
O306 C290 1.257 . S
O306 Eu291 2.473 . S
O307 C290 1.260 . S
O307 Eu291 2.480 . S
O308 Eu291 2.430 . S
O308 C298 1.259 1_655 S
O309 Eu281 2.355 . S
O309 Eu291 2.670 1_455 S
O309 C298 1.270 . S
O310 Eu291 2.394 . S
O310 C299 1.251 . S
O311 Eu281 2.374 . S
O311 C299 1.251 1_455 S
H312 C283 0.931 . S
H313 C284 0.931 . S
H314 C286 0.931 . S
H315 C287 0.931 . S
H316 C293 0.931 . S
H317 C294 0.931 . S
H318 C296 0.931 . S
H319 C297 0.931 . S
C320 Eu321 2.835 1_655 S
C320 C322 1.500 . S
C320 O340 1.257 . S
C320 O341 1.260 1_655 S
Eu321 C320 2.835 1_455 S
Eu321 O340 2.473 1_455 S
Eu321 O341 2.480 . S
Eu321 O342 2.430 . S
Eu321 O343 2.670 . S
Eu321 O344 2.394 1_455 S
Eu321 O349 2.355 1_455 S
Eu321 O351 2.374 . S
C322 C320 1.500 . S
C322 C323 1.377 . S
C322 C327 1.377 . S
C323 C322 1.377 . S
C323 C324 1.395 . S
C323 H352 0.931 1_655 S
C324 C323 1.395 . S
C324 C325 1.383 . S
C324 H353 0.926 1_655 S
C325 C324 1.383 . S
C325 C326 1.394 . S
C326 C325 1.394 . S
C326 C327 1.378 . S
C326 H354 0.931 . S
C327 C322 1.377 . S
C327 C326 1.378 . S
C327 H355 0.931 . S
C328 O342 1.259 . S
C328 O343 1.270 . S
C329 O344 1.251 . S
C329 O345 1.251 . S
C330 Eu331 2.835 1_455 S
C330 C332 1.500 . S
C330 O346 1.257 . S
C330 O347 1.260 1_455 S
Eu331 C330 2.835 1_655 S
Eu331 O343 2.355 1_655 S
Eu331 O345 2.374 . S
Eu331 O346 2.473 1_655 S
Eu331 O347 2.480 . S
Eu331 O348 2.430 . S
Eu331 O349 2.670 . S
Eu331 O350 2.394 . S
C332 C330 1.500 . S
C332 C333 1.377 1_455 S
C332 C337 1.377 . S
C333 C332 1.377 1_655 S
C333 C334 1.395 1_655 S
C333 H356 0.931 . S
C334 C333 1.395 1_455 S
C334 C335 1.383 . S
C334 H357 0.931 1_455 S
C335 C334 1.383 . S
C335 C336 1.394 . S
C336 C335 1.394 . S
C336 C337 1.378 . S
C336 H358 0.931 . S
C337 C332 1.377 . S
C337 C336 1.378 . S
C337 H359 0.931 . S
C338 O348 1.259 . S
C338 O349 1.270 . S
C339 O350 1.251 1_455 S
C339 O351 1.251 . S
O340 C320 1.257 . S
O340 Eu321 2.473 1_655 S
O341 C320 1.260 1_455 S
O341 Eu321 2.480 . S
O342 Eu321 2.430 . S
O342 C328 1.259 . S
O343 Eu321 2.670 . S
O343 C328 1.270 . S
O343 Eu331 2.355 1_455 S
O344 Eu321 2.394 1_655 S
O344 C329 1.251 . S
O345 C329 1.251 . S
O345 Eu331 2.374 . S
O346 C330 1.257 . S
O346 Eu331 2.473 1_455 S
O347 C330 1.260 1_655 S
O347 Eu331 2.480 . S
O348 Eu331 2.430 . S
O348 C338 1.259 . S
O349 Eu321 2.355 1_655 S
O349 Eu331 2.670 . S
O349 C338 1.270 . S
O350 Eu331 2.394 . S
O350 C339 1.251 1_655 S
O351 Eu321 2.374 . S
O351 C339 1.251 . S
H352 C323 0.931 1_455 S
H353 C324 0.926 1_455 S
H354 C326 0.931 . S
H355 C327 0.931 . S
H356 C333 0.931 . S
H357 C334 0.931 1_655 S
H358 C336 0.931 . S
H359 C337 0.931 . S
C360 C361 1.387 . S
C360 H364 0.950 . S
C360 C369 1.390 . S
C361 C360 1.387 . S
C361 C363 1.387 . S
H362 C369 0.950 . S
C363 C361 1.387 . S
C363 C365 1.390 . S
C363 H367 0.950 . S
H364 C360 0.950 . S
C365 C363 1.390 . S
C365 C366 1.387 . S
C365 H368 0.950 . S
C366 C365 1.387 . S
C366 C369 1.387 . S
H367 C363 0.950 . S
H368 C365 0.950 . S
C369 C360 1.390 . S
C369 H362 0.950 . S
C369 C366 1.387 . S
C370 C371 1.387 . S
C370 H374 0.950 . S
C370 C379 1.390 . S
C371 C370 1.387 . S
C371 C373 1.387 . S
H372 C379 0.950 . S
C373 C371 1.387 . S
C373 C375 1.390 . S
C373 H377 0.950 . S
H374 C370 0.950 . S
C375 C373 1.390 . S
C375 C376 1.387 . S
C375 H378 0.950 . S
C376 C375 1.387 . S
C376 C379 1.387 . S
H377 C373 0.950 . S
H378 C375 0.950 . S
C379 C370 1.390 . S
C379 H372 0.950 . S
C379 C376 1.387 . S
C380 C381 1.387 . S
C380 H384 0.950 . S
C380 C389 1.390 . S
C381 C380 1.387 . S
C381 C383 1.387 . S
H382 C389 0.950 . S
C383 C381 1.387 . S
C383 C385 1.390 . S
C383 H387 0.950 . S
H384 C380 0.950 . S
C385 C383 1.390 . S
C385 C386 1.387 . S
C385 H388 0.950 . S
C386 C385 1.387 . S
C386 C389 1.387 . S
H387 C383 0.950 . S
H388 C385 0.950 . S
C389 C380 1.390 . S
C389 H382 0.950 . S
C389 C386 1.387 . S
C390 C391 1.387 . S
C390 H394 0.950 . S
C390 C399 1.390 . S
C391 C390 1.387 . S
C391 C393 1.387 . S
H392 C399 0.950 . S
C393 C391 1.387 . S
C393 C395 1.390 1_565 S
C393 H397 0.950 1_565 S
H394 C390 0.950 . S
C395 C393 1.390 1_545 S
C395 C396 1.386 1_545 S
C395 H398 0.951 . S
C396 C395 1.386 1_565 S
C396 C399 1.387 . S
H397 C393 0.950 1_545 S
H398 C395 0.951 . S
C399 C390 1.390 . S
C399 H392 0.950 . S
C399 C396 1.387 . S
C400 C401 1.387 . S
C400 H404 0.950 . S
C400 C409 1.390 . S
C401 C400 1.387 . S
C401 C403 1.387 . S
H402 C409 0.950 . S
C403 C401 1.387 . S
C403 C405 1.390 . S
C403 H407 0.950 . S
H404 C400 0.950 . S
C405 C403 1.390 . S
C405 C406 1.387 . S
C405 H408 0.950 . S
C406 C405 1.387 . S
C406 C409 1.387 . S
H407 C403 0.950 . S
H408 C405 0.950 . S
C409 C400 1.390 . S
C409 H402 0.950 . S
C409 C406 1.387 . S
C410 C411 1.387 . S
C410 H414 0.950 . S
C410 C419 1.390 . S
C411 C410 1.387 . S
C411 C413 1.387 . S
H412 C419 0.950 . S
C413 C411 1.387 . S
C413 C415 1.390 . S
C413 H417 0.950 . S
H414 C410 0.950 . S
C415 C413 1.390 . S
C415 C416 1.387 . S
C415 H418 0.950 . S
C416 C415 1.387 . S
C416 C419 1.387 . S
H417 C413 0.950 . S
H418 C415 0.950 . S
C419 C410 1.390 . S
C419 H412 0.950 . S
C419 C416 1.387 . S
C420 C421 1.387 . S
C420 H424 0.950 . S
C420 C429 1.390 . S
C421 C420 1.387 . S
C421 C423 1.387 . S
H422 C429 0.950 1_556 S
C423 C421 1.387 . S
C423 C425 1.390 . S
C423 H427 0.950 . S
H424 C420 0.950 . S
C425 C423 1.390 . S
C425 C426 1.387 . S
C425 H428 0.950 . S
C426 C425 1.387 . S
C426 C429 1.387 . S
H427 C423 0.950 . S
H428 C425 0.950 . S
C429 C420 1.390 . S
C429 H422 0.950 1_554 S
C429 C426 1.387 . S
C430 C431 1.387 1_655 S
C430 H434 0.950 . S
C430 C439 1.390 . S
C431 C430 1.387 1_455 S
C431 C433 1.387 . S
H432 C439 0.950 . S
C433 C431 1.387 . S
C433 C435 1.390 1_455 S
C433 H437 0.950 . S
H434 C430 0.950 . S
C435 C433 1.390 1_655 S
C435 C436 1.387 . S
C435 H438 0.950 . S
C436 C435 1.387 . S
C436 C439 1.387 . S
H437 C433 0.950 . S
H438 C435 0.950 . S
C439 C430 1.390 . S
C439 H432 0.950 . S
C439 C436 1.387 . S
C440 C441 1.387 1_455 S
C440 H444 0.950 . S
C440 C449 1.390 . S
C441 C440 1.387 1_655 S
C441 C443 1.387 . S
H442 C449 0.950 . S
C443 C441 1.387 . S
C443 C445 1.390 . S
C443 H447 0.950 . S
H444 C440 0.950 . S
C445 C443 1.390 . S
C445 C446 1.387 1_655 S
C445 H448 0.950 . S
C446 C445 1.387 1_455 S
C446 C449 1.387 . S
H447 C443 0.950 . S
H448 C445 0.950 . S
C449 C440 1.390 . S
C449 H442 0.950 . S
C449 C446 1.387 . S
C450 C451 1.387 . S
C450 H454 0.950 . S
C450 C459 1.390 . S
C451 C450 1.387 . S
C451 C453 1.387 . S
H452 C459 0.950 . S
C453 C451 1.387 . S
C453 C455 1.390 . S
C453 H457 0.950 . S
H454 C450 0.950 . S
C455 C453 1.390 . S
C455 C456 1.387 . S
C455 H458 0.950 . S
C456 C455 1.387 . S
C456 C459 1.387 . S
H457 C453 0.950 . S
H458 C455 0.950 . S
C459 C450 1.390 . S
C459 H452 0.950 . S
C459 C456 1.387 . S
C460 C461 1.387 . S
C460 H464 0.950 . S
C460 C469 1.390 . S
C461 C460 1.387 . S
C461 C463 1.387 . S
H462 C469 0.950 . S
C463 C461 1.387 . S
C463 C465 1.390 . S
C463 H467 0.950 . S
H464 C460 0.950 . S
C465 C463 1.390 . S
C465 C466 1.387 . S
C465 H468 0.950 . S
C466 C465 1.387 . S
C466 C469 1.387 . S
H467 C463 0.950 . S
H468 C465 0.950 . S
C469 C460 1.390 . S
C469 H462 0.950 . S
C469 C466 1.387 . S
C470 C471 1.387 . S
C470 H474 0.950 . S
C470 C479 1.390 . S
C471 C470 1.387 . S
C471 C473 1.387 . S
H472 C479 0.950 . S
C473 C471 1.387 . S
C473 C475 1.390 . S
C473 H477 0.950 . S
H474 C470 0.950 . S
C475 C473 1.390 . S
C475 C476 1.387 . S
C475 H478 0.950 . S
C476 C475 1.387 . S
C476 C479 1.387 . S
H477 C473 0.950 . S
H478 C475 0.950 . S
C479 C470 1.390 . S
C479 H472 0.950 . S
C479 C476 1.387 . S
C480 C481 1.386 1_556 S
C480 H484 0.950 . S
C480 C489 1.390 . S
C481 C480 1.386 1_554 S
C481 C483 1.387 1_554 S
H482 C489 0.950 . S
C483 C481 1.387 1_556 S
C483 C485 1.390 . S
C483 H487 0.950 1_556 S
H484 C480 0.950 . S
C485 C483 1.390 . S
C485 C486 1.387 . S
C485 H488 0.950 . S
C486 C485 1.387 . S
C486 C489 1.387 . S
H487 C483 0.950 1_554 S
H488 C485 0.950 . S
C489 C480 1.390 . S
C489 H482 0.950 . S
C489 C486 1.387 . S
C490 C491 1.387 . S
C490 H494 0.950 . S
C490 C499 1.390 1_556 S
C491 C490 1.387 . S
C491 C493 1.387 . S
H492 C499 0.950 . S
C493 C491 1.387 . S
C493 C495 1.390 . S
C493 H497 0.950 . S
H494 C490 0.950 . S
C495 C493 1.390 . S
C495 C496 1.387 1_556 S
C495 H498 0.950 . S
C496 C495 1.387 1_554 S
C496 C499 1.388 . S
H497 C493 0.950 . S
H498 C495 0.950 . S
C499 C490 1.390 1_554 S
C499 H492 0.950 . S
C499 C496 1.388 . S
C500 C501 1.387 . S
C500 H504 0.950 . S
C500 C509 1.390 . S
C501 C500 1.387 . S
C501 C503 1.387 . S
H502 C509 0.950 . S
C503 C501 1.387 . S
C503 C505 1.390 . S
C503 H507 0.950 . S
H504 C500 0.950 . S
C505 C503 1.390 . S
C505 C506 1.389 . S
C505 H508 0.950 . S
C506 C505 1.389 . S
C506 C509 1.389 . S
H507 C503 0.950 . S
H508 C505 0.950 . S
C509 C500 1.390 . S
C509 H502 0.950 . S
C509 C506 1.389 . S
C510 C511 1.387 . S
C510 H514 0.950 . S
C510 C519 1.390 . S
C511 C510 1.387 . S
C511 C513 1.387 1_554 S
H512 C519 0.950 . S
C513 C511 1.387 1_556 S
C513 C515 1.390 . S
C513 H517 0.950 . S
H514 C510 0.950 . S
C515 C513 1.390 . S
C515 C516 1.387 1_556 S
C515 H518 0.950 . S
C516 C515 1.387 1_554 S
C516 C519 1.387 . S
H517 C513 0.950 . S
H518 C515 0.950 . S
C519 C510 1.390 . S
C519 H512 0.950 . S
C519 C516 1.387 . S
C520 C521 1.387 1_556 S
C520 H524 0.950 . S
C520 C529 1.390 . S
C521 C520 1.387 1_554 S
C521 C523 1.387 . S
H522 C529 0.950 . S
C523 C521 1.387 . S
C523 C525 1.390 . S
C523 H527 0.950 . S
H524 C520 0.950 . S
C525 C523 1.390 . S
C525 C526 1.387 . S
C525 H528 0.950 . S
C526 C525 1.387 . S
C526 C529 1.387 1_554 S
H527 C523 0.950 . S
H528 C525 0.950 . S
C529 C520 1.390 . S
C529 H522 0.950 . S
C529 C526 1.387 1_556 S
C530 C531 1.387 . S
C530 H534 0.950 . S
C530 C539 1.390 . S
C531 C530 1.387 . S
C531 C533 1.387 1_554 S
H532 C539 0.950 . S
C533 C531 1.387 1_556 S
C533 C535 1.390 . S
C533 H537 0.950 . S
H534 C530 0.950 . S
C535 C533 1.390 . S
C535 C536 1.387 1_556 S
C535 H538 0.950 . S
C536 C535 1.387 1_554 S
C536 C539 1.387 . S
H537 C533 0.950 . S
H538 C535 0.950 . S
C539 C530 1.390 . S
C539 H532 0.950 . S
C539 C536 1.387 . S
C540 C541 1.387 . S
C540 H544 0.950 1_554 S
C540 C549 1.390 . S
C541 C540 1.387 . S
C541 C543 1.387 . S
H542 C549 0.950 1_556 S
C543 C541 1.387 . S
C543 C545 1.390 . S
C543 H547 0.950 . S
H544 C540 0.950 1_556 S
C545 C543 1.390 . S
C545 C546 1.387 . S
C545 H548 0.950 . S
C546 C545 1.387 . S
C546 C549 1.387 . S
H547 C543 0.950 . S
H548 C545 0.950 . S
C549 C540 1.390 . S
C549 H542 0.950 1_554 S
C549 C546 1.387 . S
C550 C551 1.387 . S
C550 H554 0.950 . S
C550 C559 1.390 . S
C551 C550 1.387 . S
C551 C553 1.387 . S
H552 C559 0.950 . S
C553 C551 1.387 . S
C553 C555 1.390 . S
C553 H557 0.950 1_554 S
H554 C550 0.950 . S
C555 C553 1.390 . S
C555 C556 1.387 . S
C555 H558 0.950 1_554 S
C556 C555 1.387 . S
C556 C559 1.387 . S
H557 C553 0.950 1_556 S
H558 C555 0.950 1_556 S
C559 C550 1.390 . S
C559 H552 0.950 . S
C559 C556 1.387 . S
C560 C561 1.387 . S
C560 H564 0.950 . S
C560 C569 1.390 . S
C561 C560 1.387 . S
C561 C563 1.387 . S
H562 C569 0.950 . S
C563 C561 1.387 . S
C563 C565 1.390 . S
C563 H567 0.950 1_554 S
H564 C560 0.950 . S
C565 C563 1.390 . S
C565 C566 1.387 . S
C565 H568 0.950 1_554 S
C566 C565 1.387 . S
C566 C569 1.387 . S
H567 C563 0.950 1_556 S
H568 C565 0.950 1_556 S
C569 C560 1.390 . S
C569 H562 0.950 . S
C569 C566 1.387 . S
C570 C571 1.387 . S
C570 H574 0.950 . S
C570 C579 1.390 . S
C571 C570 1.387 . S
C571 C573 1.387 . S
H572 C579 0.950 . S
C573 C571 1.387 . S
C573 C575 1.390 . S
C573 H577 0.950 . S
H574 C570 0.950 . S
C575 C573 1.390 . S
C575 C576 1.387 . S
C575 H578 0.950 . S
C576 C575 1.387 . S
C576 C579 1.387 . S
H577 C573 0.950 . S
H578 C575 0.950 . S
C579 C570 1.390 . S
C579 H572 0.950 . S
C579 C576 1.387 . S
C580 C581 1.387 . S
C580 H584 0.950 . S
C580 C589 1.390 1_545 S
C581 C580 1.387 . S
C581 C583 1.387 . S
H582 C589 0.950 . S
C583 C581 1.387 . S
C583 C585 1.373 1_545 S
C583 H587 0.950 . S
H584 C580 0.950 . S
C585 C583 1.373 1_565 S
C585 C586 1.396 . S
C585 H588 0.959 . S
C586 C585 1.396 . S
C586 C589 1.387 . S
H587 C583 0.950 . S
H588 C585 0.959 . S
C589 C580 1.390 1_565 S
C589 H582 0.950 . S
C589 C586 1.387 . S
C590 C591 1.387 . S
C590 H594 0.950 . S
C590 C599 1.390 . S
C591 C590 1.387 . S
C591 C593 1.387 . S
H592 C599 0.950 . S
C593 C591 1.387 . S
C593 C595 1.390 . S
C593 H597 0.950 . S
H594 C590 0.950 . S
C595 C593 1.390 . S
C595 C596 1.387 . S
C595 H598 0.950 . S
C596 C595 1.387 . S
C596 C599 1.387 . S
H597 C593 0.950 . S
H598 C595 0.950 . S
C599 C590 1.390 . S
C599 H592 0.950 . S
C599 C596 1.387 . S
C600 C601 1.387 . S
C600 H604 0.950 . S
C600 C609 1.390 . S
C601 C600 1.387 . S
C601 C603 1.387 . S
H602 C609 0.950 . S
C603 C601 1.387 . S
C603 C605 1.390 . S
C603 H607 0.950 . S
H604 C600 0.950 . S
C605 C603 1.390 . S
C605 C606 1.387 . S
C605 H608 0.950 . S
C606 C605 1.387 . S
C606 C609 1.387 . S
H607 C603 0.950 . S
H608 C605 0.950 . S
C609 C600 1.390 . S
C609 H602 0.950 . S
C609 C606 1.387 . S
C610 C611 1.387 . S
C610 H614 0.950 . S
C610 C619 1.390 . S
C611 C610 1.387 . S
C611 C613 1.387 . S
H612 C619 0.950 . S
C613 C611 1.387 . S
C613 C615 1.390 . S
C613 H617 0.950 . S
H614 C610 0.950 . S
C615 C613 1.390 . S
C615 C616 1.387 . S
C615 H618 0.950 . S
C616 C615 1.387 . S
C616 C619 1.387 . S
H617 C613 0.950 . S
H618 C615 0.950 . S
C619 C610 1.390 . S
C619 H612 0.950 . S
C619 C616 1.387 . S
C620 C621 1.387 . S
C620 H624 0.950 . S
C620 C629 1.390 . S
C621 C620 1.387 . S
C621 C623 1.387 . S
H622 C629 0.950 . S
C623 C621 1.387 . S
C623 C625 1.390 . S
C623 H627 0.950 . S
H624 C620 0.950 . S
C625 C623 1.390 . S
C625 C626 1.387 . S
C625 H628 0.950 . S
C626 C625 1.387 . S
C626 C629 1.387 . S
H627 C623 0.950 . S
H628 C625 0.950 . S
C629 C620 1.390 . S
C629 H622 0.950 . S
C629 C626 1.387 . S
C361 C18 1.576 . S
C366 C8 1.576 . S
C371 C58 1.576 . S
C376 C48 1.576 . S
C381 C98 1.577 . S
C386 C88 1.577 . S
C391 C128 1.576 . S
C396 C138 1.576 . S
C401 C168 1.577 . S
C406 C178 1.577 . S
C411 C208 1.577 . S
C416 C218 1.577 . S
C421 C249 1.480 . S
C426 C259 1.480 1_554 S
C431 C289 1.479 . S
C436 C299 1.479 1_554 S
C441 C329 1.484 . S
C446 C339 1.484 1_554 S
C451 C219 2.684 . S
C456 C15 2.605 . S
C461 C55 2.602 . S
C466 C139 2.682 . S
C471 C95 2.605 . S
C476 C179 2.684 . S
C481 C99 2.306 . S
C486 C258 2.534 . S
C491 C298 2.534 . S
C496 C19 2.306 . S
C501 C338 2.534 . S
C506 C59 2.301 1_556 S
C511 C335 1.125 1_554 S
C516 C5 1.117 . S
C521 C45 1.114 . S
C526 C255 1.123 1_554 S
C531 C295 1.125 1_554 S
C536 C85 1.117 . S
C541 C89 2.684 . S
C546 C125 2.605 . S
C551 C165 2.602 . S
C556 C9 2.682 . S
C561 C49 2.682 . S
C566 C205 2.602 . S
C571 C325 1.123 . S
C576 C135 1.113 . S
C581 C245 1.125 . S
C586 C175 1.117 . S
C591 C285 1.123 . S
C596 C215 1.113 . S
C601 C248 2.534 . S
C606 C209 2.305 . S
C611 C129 2.305 . S
C616 C288 2.534 . S
C621 C328 2.535 . S
C626 C169 2.305 . S
