# Generated by pormake.
# Topology bsn, (6)-cn, num edge types: 1
# Building blocks:
#     Node 0, Type 0, BuildingBlock: JUFBIX_clean_sbu_0, # of connection points: 6
#     Node 1, Type 0, BuildingBlock: JUFBIX_clean_sbu_0, # of connection points: 6
#     Node 2, Type 0, BuildingBlock: JUFBIX_clean_sbu_0, # of connection points: 6
#     Node 3, Type 0, BuildingBlock: JUFBIX_clean_sbu_0, # of connection points: 6
#     Edge 4, Type (0, 0), BuildingBlock: KIFKEQ_clean_linker_1, # of connection points: 2
#     Edge 5, Type (0, 0), BuildingBlock: KIFKEQ_clean_linker_1, # of connection points: 2
#     Edge 6, Type (0, 0), BuildingBlock: KIFKEQ_clean_linker_1, # of connection points: 2
#     Edge 7, Type (0, 0), BuildingBlock: KIFKEQ_clean_linker_1, # of connection points: 2
#     Edge 8, Type (0, 0), BuildingBlock: KIFKEQ_clean_linker_1, # of connection points: 2
#     Edge 9, Type (0, 0), BuildingBlock: KIFKEQ_clean_linker_1, # of connection points: 2
#     Edge 10, Type (0, 0), BuildingBlock: KIFKEQ_clean_linker_1, # of connection points: 2
#     Edge 11, Type (0, 0), BuildingBlock: KIFKEQ_clean_linker_1, # of connection points: 2
#     Edge 12, Type (0, 0), BuildingBlock: KIFKEQ_clean_linker_1, # of connection points: 2
#     Edge 13, Type (0, 0), BuildingBlock: KIFKEQ_clean_linker_1, # of connection points: 2
#     Edge 14, Type (0, 0), BuildingBlock: KIFKEQ_clean_linker_1, # of connection points: 2
#     Edge 15, Type (0, 0), BuildingBlock: KIFKEQ_clean_linker_1, # of connection points: 2
# Relax obj value: 0.099
# Max RMSD: 0.163
# Mean RMSD: 0.163
data_MOF--net-bsn--node1-JUFBIX_clean_sbu_0--edge1-KIFKEQ_clean_linker_1
_symmetry_space_group_name_H-M    P1
_symmetry_Int_Tables_number       1
_symmetry_cell_setting            triclinic
loop_
_symmetry_equiv_pos_as_xyz
'x, y, z'
_cell_length_a     29.172686
_cell_length_b     38.836505
_cell_length_c     15.168984
_cell_angle_alpha  87.49954
_cell_angle_beta   91.687067
_cell_angle_gamma 99.667601
loop_
_atom_site_label
_atom_site_type_symbol
_atom_site_fract_x
_atom_site_fract_y
_atom_site_fract_z
_atom_type_partial_charge
Co0 Co 0.03587 0.26925 0.32523 0.0
C1 C 0.04159 0.30059 0.48906 0.0
Co2 Co 0.04548 0.32728 0.31878 0.0
C3 C 0.04166 0.19337 0.31857 0.0
C4 C 0.9822 0.20521 0.38281 0.0
N5 N 1.02057 0.22046 0.33934 0.0
N6 N 1.0171 0.16211 0.34616 0.0
C7 C 0.97985 0.16979 0.38648 0.0
H8 H 0.07452 0.19652 0.28532 0.0
H9 H 0.95794 0.219 0.41322 0.0
C10 C 0.03957 0.2958 0.15502 0.0
N11 N 0.05876 0.37589 0.3082 0.0
C12 C 0.04203 0.39983 0.35471 0.0
C13 C 0.08905 0.39486 0.25223 0.0
N14 N 0.06074 0.43306 0.33001 0.0
C15 C 0.09036 0.42983 0.26538 0.0
C16 C 0.12722 0.29713 0.32163 0.0
O17 O 0.03656 0.26717 0.20054 0.0
O18 O 0.04293 0.32452 0.19398 0.0
O19 O 0.11004 0.32522 0.31819 0.0
O20 O 0.10034 0.26781 0.33022 0.0
O21 O 0.04785 0.32922 0.44376 0.0
H22 H 0.10938 0.38392 0.2055 0.0
H23 H 1.01649 0.39287 0.40552 0.0
O24 O 0.03534 0.27193 0.44973 0.0
O25 O 0.97186 0.27175 0.31697 0.0
O26 O 0.98072 0.32879 0.31707 0.0
C27 C 0.95413 0.29941 0.31348 0.0
H28 H 0.95376 0.15116 0.42034 0.0
H29 H 0.11236 0.45114 0.23114 0.0
Co30 Co 1.02542 0.76297 0.61067 0.0
C31 C 0.03306 0.79163 0.77502 0.0
Co32 Co 0.03848 0.82105 0.60422 0.0
C33 C 1.0264 0.69084 0.56441 0.0
C34 C 0.98203 0.69479 0.67203 0.0
N35 N 1.01135 0.71429 0.61525 0.0
N36 N 1.00745 0.65745 0.58715 0.0
C37 C 0.97963 0.66005 0.65517 0.0
H38 H 0.05021 0.69827 0.51087 0.0
H39 H 0.96342 0.70521 0.72252 0.0
C40 C 0.03069 0.7922 0.44012 0.0
N41 N 0.05347 0.86979 0.60103 0.0
C42 C 0.04482 0.89382 0.53807 0.0
C43 C 0.07978 0.88848 0.66252 0.0
N44 N 0.06483 0.92678 0.55794 0.0
C45 C 0.0865 0.92321 0.63683 0.0
C46 C 0.11798 0.78973 0.61328 0.0
O47 O 1.02326 0.76354 0.48533 0.0
O48 O 0.03865 0.82092 0.47943 0.0
O49 O 0.10273 0.81855 0.60863 0.0
O50 O 0.08951 0.76113 0.61181 0.0
O51 O 0.03788 0.82021 0.72965 0.0
H52 H 0.09408 0.87754 0.72188 0.0
H53 H 1.02514 0.88703 0.47798 0.0
O54 O 1.02781 0.76297 0.73578 0.0
O55 O 0.96145 0.76557 0.61214 0.0
O56 O 0.97391 0.82302 0.60193 0.0
C57 C 0.94582 0.79426 0.6102 0.0
H58 H 0.95924 0.63841 0.69123 0.0
H59 H 0.10592 0.94409 0.6743 0.0
Co60 Co 0.5299 0.76896 0.82915 0.0
C61 C 0.53724 0.79769 -0.00647 0.0
Co62 Co 0.54343 0.82701 0.82331 0.0
C63 C 0.52709 0.69612 0.89167 0.0
C64 C 0.48669 0.70164 0.77356 0.0
N65 N 0.51518 0.72027 0.83214 0.0
N66 N 0.50705 0.66308 0.87247 0.0
C67 C 0.48187 0.66679 0.79759 0.0
H68 H 0.54938 0.70289 0.94866 0.0
H69 H 0.46987 0.71271 0.71723 0.0
C70 C 0.53617 0.79853 0.65868 0.0
N71 N 0.55728 0.87569 0.81933 0.0
C72 C 0.53895 0.89912 0.86492 0.0
C73 C 0.5897 0.8952 0.76845 0.0
N74 N 0.55865 0.93254 0.84424 0.0
C75 C 0.59065 0.92995 0.78352 0.0
C76 C 0.62272 0.79524 0.82503 0.0
O77 O 0.52894 0.76987 0.7037 0.0
O78 O 0.54366 0.82716 0.69823 0.0
O79 O 0.6083 0.8244 0.82636 0.0
O80 O 0.59361 0.76697 0.82899 0.0
O81 O 0.54304 0.82638 0.94834 0.0
H82 H 0.61158 0.88477 0.72362 0.0
H83 H 0.51147 0.89171 0.91186 0.0
O84 O 0.53121 0.76895 0.95425 0.0
O85 O 0.4664 0.77127 0.82695 0.0
O86 O 0.47844 0.82862 0.81786 0.0
C87 C 0.45046 0.7997 0.81859 0.0
H88 H 0.46137 0.64595 0.76156 0.0
H89 H 0.61392 0.95156 0.75313 0.0
Co90 Co 0.52668 0.26357 0.10961 0.0
C91 C 0.53688 0.29443 0.27354 0.0
Co92 Co 0.54466 0.3216 0.10335 0.0
C93 C 0.52432 0.19067 0.0711 0.0
C94 C 0.47726 0.19694 0.17242 0.0
N95 N 0.50893 0.21517 0.11782 0.0
N96 N 0.50346 0.1578 0.09421 0.0
C97 C 0.47384 0.16182 0.15822 0.0
H98 H 0.54994 0.19703 0.02022 0.0
H99 H 0.45789 0.20846 0.21968 0.0
C100 C 0.53436 0.29096 0.93931 0.0
N101 N 0.56382 0.3702 0.09112 0.0
C102 C 0.54248 0.39764 0.10763 0.0
C103 C 0.6038 0.38495 0.05217 0.0
N104 N 0.56808 0.42868 0.08128 0.0
C105 C 0.60661 0.42046 0.04664 0.0
C106 C 0.62049 0.28585 0.11428 0.0
O107 O 0.52707 0.26233 -0.01543 0.0
O108 O 0.54203 0.31964 -0.02135 0.0
O109 O 0.60751 0.31536 0.10564 0.0
O110 O 0.59014 0.25829 0.11685 0.0
O111 O 0.54704 0.32301 0.2284 0.0
H112 H 0.62867 0.37084 0.02499 0.0
H113 H 0.50843 0.39487 0.13613 0.0
O114 O 0.52662 0.26575 0.23425 0.0
O115 O 0.4632 0.26929 0.10489 0.0
O116 O 0.48142 0.32661 0.10401 0.0
C117 C 0.45074 0.29913 0.10671 0.0
H118 H 0.4516 0.14093 0.1934 0.0
H119 H 0.63381 0.43866 0.01449 0.0
H120 H 1.02642 0.4418 0.49119 0.0
H121 H 0.07547 0.4981 0.25092 0.0
H122 H 1.01352 0.49631 0.5521 0.0
H123 H 0.063 0.55251 0.31231 0.0
H124 H 0.08124 0.64738 0.491 0.0
H125 H 0.09386 0.59307 0.42795 0.0
H126 H 0.96295 0.54046 0.53064 0.0
H127 H 0.95006 0.59454 0.59271 0.0
C128 C 0.03411 0.46563 0.45088 0.0
C129 C 0.05213 0.46529 0.36593 0.0
C130 C 1.02676 0.49699 0.48598 0.0
C131 C 0.03735 0.52888 0.43723 0.0
C132 C 0.05519 0.52856 0.35229 0.0
C133 C 0.06235 0.49722 0.31705 0.0
C134 C 0.05491 0.62438 0.49949 0.0
C135 C 1.01474 0.62554 0.54768 0.0
C136 C 0.06218 0.59316 0.46334 0.0
C137 C 0.02954 0.56228 0.47464 0.0
C138 C 0.98924 0.56353 0.52206 0.0
C139 C 0.98189 0.59469 0.55782 0.0
H140 H 0.65738 0.74033 0.7647 0.0
H141 H 0.69757 0.84827 0.83272 0.0
H142 H 0.7335 0.74058 0.70577 0.0
H143 H 0.77548 0.84799 0.77847 0.0
H144 H 0.89545 0.84804 0.59387 0.0
H145 H 0.81745 0.84811 0.64837 0.0
H146 H 0.81046 0.74035 0.74037 0.0
H147 H 0.88624 0.73976 0.68141 0.0
C148 C 0.683 0.76389 0.7694 0.0
C149 C 0.67151 0.79425 0.8038 0.0
C150 C 0.72689 0.76404 0.73553 0.0
C151 C 0.76093 0.79434 0.73694 0.0
C152 C 0.74992 0.8244 0.77443 0.0
C153 C 0.70551 0.82444 0.80682 0.0
C154 C 0.87665 0.82425 0.62419 0.0
C155 C 0.89681 0.79385 0.63253 0.0
C156 C 0.83225 0.82438 0.65663 0.0
C157 C 0.80752 0.79428 0.69945 0.0
C158 C 0.82774 0.76384 0.7064 0.0
C159 C 0.87148 0.76352 0.67253 0.0
H160 H 0.48128 0.44602 0.07038 0.0
H161 H 0.62716 0.49017 0.08358 0.0
H162 H 0.46238 0.50435 0.03924 0.0
H163 H 0.60897 0.54767 0.04689 0.0
H164 H 0.56882 0.65242 0.00621 0.0
H165 H 0.57864 0.59715 0.07902 0.0
H166 H 0.46674 0.54364 0.91751 0.0
H167 H 0.45471 0.59869 0.84958 0.0
C168 C 0.50926 0.46817 0.06788 0.0
C169 C 0.5558 0.46326 0.07774 0.0
C170 C 0.49855 0.50165 0.04875 0.0
C171 C 0.53415 0.53092 0.03858 0.0
C172 C 0.58041 0.5261 0.05442 0.0
C173 C 0.59099 0.49286 0.07432 0.0
C174 C 0.5457 0.62908 -0.01301 0.0
C175 C 0.51147 0.63051 0.92012 0.0
C176 C 0.55165 0.59711 0.02848 0.0
C177 C 0.52391 0.56556 0.00376 0.0
C178 C 0.48859 0.56719 0.93944 0.0
C179 C 0.48226 0.59909 0.89885 0.0
H180 H 0.90172 0.35201 0.30196 0.0
H181 H 0.89303 0.24052 0.2787 0.0
H182 H 0.82048 0.34721 0.25289 0.0
H183 H 0.81338 0.23603 0.22575 0.0
H184 H 0.65711 0.23481 0.20661 0.0
H185 H 0.73675 0.23818 0.26267 0.0
H186 H 0.77492 0.33768 0.12174 0.0
H187 H 0.69479 0.33493 0.06945 0.0
C188 C 0.88244 0.32652 0.2869 0.0
C189 C 0.90383 0.29673 0.29411 0.0
C190 C 0.83608 0.32378 0.25774 0.0
C191 C 0.81048 0.29126 0.23423 0.0
C192 C 0.83167 0.2614 0.24413 0.0
C193 C 0.8776 0.26406 0.27429 0.0
C194 C 0.68279 0.25705 0.18644 0.0
C195 C 0.66988 0.28459 0.13378 0.0
C196 C 0.72844 0.2591 0.21875 0.0
C197 C 0.76223 0.28847 0.19776 0.0
C198 C 0.74959 0.31517 0.14136 0.0
C199 C 0.70383 0.31337 0.11028 0.0
H200 H 0.37416 0.24859 0.08902 0.0
H201 H 0.41819 0.35389 0.17457 0.0
H202 H 0.29671 0.24891 0.14445 0.0
H203 H 0.34183 0.35367 0.2342 0.0
H204 H 0.1873 0.35384 0.26096 0.0
H205 H 0.26391 0.35516 0.2027 0.0
H206 H 0.25694 0.24571 0.27801 0.0
H207 H 0.17864 0.24401 0.33217 0.0
C208 C 0.36712 0.27192 0.11899 0.0
C209 C 0.40216 0.30126 0.12701 0.0
C210 C 0.32293 0.27194 0.15206 0.0
C211 C 0.31301 0.30111 0.19523 0.0
C212 C 0.34782 0.33085 0.20061 0.0
C213 C 0.39173 0.33103 0.16622 0.0
C214 C 0.20227 0.33011 0.26631 0.0
C215 C 0.17678 0.29876 0.30115 0.0
C216 C 0.24645 0.33089 0.23285 0.0
C217 C 0.2667 0.30048 0.23467 0.0
C218 C 0.24203 0.26946 0.27336 0.0
C219 C 0.19739 0.26855 0.30565 0.0
H220 H 0.38978 0.74294 0.76889 0.0
H221 H 0.39906 0.85298 0.81506 0.0
H222 H 0.31112 0.74053 0.71322 0.0
H223 H 0.31827 0.85012 0.76389 0.0
H224 H 0.19069 0.84256 0.5827 0.0
H225 H 0.27101 0.84511 0.63496 0.0
H226 H 0.23541 0.74065 0.75158 0.0
H227 H 0.15636 0.73752 0.6947 0.0
C228 C 0.37456 0.76653 0.76927 0.0
C229 C 0.40062 0.79819 0.79672 0.0
C230 C 0.32915 0.76509 0.73742 0.0
C231 C 0.30808 0.79509 0.73392 0.0
C232 C 0.33368 0.82663 0.76401 0.0
C233 C 0.37973 0.82823 0.79442 0.0
C234 C 0.20049 0.81995 0.61802 0.0
C235 C 0.16753 0.78972 0.63394 0.0
C236 C 0.2463 0.82157 0.64916 0.0
C237 C 0.25977 0.79322 0.69829 0.0
C238 C 0.22671 0.76279 0.71273 0.0
C239 C 0.18127 0.76093 0.68003 0.0
H240 H 0.51957 0.94029 0.0017 0.0
H241 H 0.57496 0.99783 0.76743 0.0
H242 H 0.50574 0.9947 0.06274 0.0
H243 H 0.56155 0.05194 0.82865 0.0
H244 H 0.57911 0.14573 0.0068 0.0
H245 H 0.59142 0.09097 0.94672 0.0
H246 H 0.45743 1.04056 0.04016 0.0
H247 H 0.4448 0.09531 0.09956 0.0
C248 C 0.52845 0.96438 0.96277 0.0
C249 C 0.54874 0.96448 0.8797 0.0
C250 C 0.52057 0.99564 -0.00211 0.0
C251 C 0.53287 1.0278 0.95093 0.0
C252 C 0.55253 1.0278 0.86747 0.0
C253 C 0.56024 0.99663 0.83232 0.0
C254 C 0.552 0.12316 0.01396 0.0
C255 C 0.51091 0.12525 0.05831 0.0
C256 C 0.55911 0.09165 -0.02051 0.0
C257 C 0.52541 0.06128 -0.01145 0.0
C258 C 0.48442 0.06327 0.03308 0.0
C259 C 0.47721 0.0948 0.06725 0.0
H260 H 0.11979 0.99005 0.58126 0.0
H261 H 1.008 0.93801 0.41664 0.0
H262 H 0.1122 0.04531 0.50886 0.0
H263 H 1.00279 0.99336 0.33933 0.0
H264 H 0.95721 0.10171 0.33318 0.0
H265 H 0.97332 1.04346 0.36765 0.0
H266 H 0.12034 0.08477 0.38732 0.0
H267 H 0.10326 0.14386 0.3578 0.0
C268 C 0.09372 0.99009 0.52923 0.0
C269 C 0.06364 0.95918 0.50715 0.0
C270 C 0.09002 1.02206 0.48605 0.0
C271 C 0.05659 1.02422 0.41829 0.0
C272 C 1.02833 0.99302 0.39247 0.0
C273 C 0.03161 0.96102 0.43656 0.0
C274 C 0.99306 0.09831 0.34394 0.0
C275 C 1.02883 0.12749 0.34486 0.0
C276 C 1.00247 0.06469 0.36276 0.0
C277 C 0.04815 0.05913 0.38199 0.0
C278 C 0.08454 0.08805 0.37517 0.0
C279 C 0.07495 0.12192 0.35696 0.0
H280 H 1.02454 0.34892 0.04052 0.0
H281 H 0.05439 0.24356 0.04958 0.0
H282 H 1.02433 0.35003 0.88019 0.0
H283 H 0.05635 0.24514 0.88889 0.0
H284 H 1.01 0.24553 0.60082 0.0
H285 H 1.00868 0.24438 0.76101 0.0
H286 H 0.073 0.35319 0.75816 0.0
H287 H 0.07227 0.35465 0.59728 0.0
C288 C 0.03143 0.32605 0.00814 0.0
C289 C 0.03938 0.2961 0.05762 0.0
C290 C 0.03166 0.32678 0.91608 0.0
C291 C 0.04049 0.29774 0.87118 0.0
C292 C 0.04863 0.2678 0.92097 0.0
C293 C 0.04776 0.26691 0.01316 0.0
C294 C 1.02383 0.26923 0.63443 0.0
C295 C 0.04124 0.30021 0.58646 0.0
C296 C 1.02339 0.26851 0.72646 0.0
C297 C 0.0409 0.29863 0.77295 0.0
C298 C 0.05851 0.32962 0.72473 0.0
C299 C 0.05838 0.33045 0.63246 0.0
H300 H 0.04435 0.73816 0.89204 0.0
H301 H 1.02145 0.84532 0.87747 0.0
H302 H 0.0447 0.73848 0.05254 0.0
H303 H 1.01945 0.84522 0.03769 0.0
H304 H 0.06455 0.84609 0.32612 0.0
H305 H 0.06631 0.84573 0.16596 0.0
H306 H 0.99646 0.73822 0.1739 0.0
H307 H 0.99688 0.73819 0.33441 0.0
C308 C 0.039 0.7617 0.92325 0.0
C309 C 0.033 0.79174 0.87228 0.0
C310 C 0.03885 0.76183 0.01531 0.0
C311 C 0.032 0.79186 0.05847 0.0
C312 C 1.0257 0.82183 0.00706 0.0
C313 C 1.02656 0.82185 0.91508 0.0
C314 C 0.0496 0.82238 0.29356 0.0
C315 C 0.03064 0.79215 0.3428 0.0
C316 C 0.05032 0.82222 0.20158 0.0
C317 C 0.03146 0.79196 0.15657 0.0
C318 C 1.0121 0.76181 0.20614 0.0
C319 C 1.01201 0.76184 0.29822 0.0
H320 H 0.54677 0.74381 0.11056 0.0
H321 H 0.52754 0.85183 0.09612 0.0
H322 H 0.54757 0.74423 0.27106 0.0
H323 H 0.52608 0.85188 0.2564 0.0
H324 H 0.5719 0.85192 0.54477 0.0
H325 H 0.57329 0.8515 0.38444 0.0
H326 H 0.4997 0.74502 0.39261 0.0
H327 H 0.50038 0.74504 0.55309 0.0
C328 C 0.5423 0.76756 0.14178 0.0
C329 C 0.53721 0.7978 0.09084 0.0
C330 C 0.54244 0.76777 0.23385 0.0
C331 C 0.53681 0.79808 0.27707 0.0
C332 C 0.53139 0.82825 0.2257 0.0
C333 C 0.53192 0.82818 0.13369 0.0
C334 C 0.55605 0.82844 0.51216 0.0
C335 C 0.53611 0.7985 0.5614 0.0
C336 C 0.55657 0.82824 0.42014 0.0
C337 C 0.53654 0.79824 0.37518 0.0
C338 C 0.51624 0.76839 0.4248 0.0
C339 C 0.51633 0.76844 0.51686 0.0
H340 H 0.49679 0.24188 0.38511 0.0
H341 H 0.57615 0.34636 0.3818 0.0
H342 H 0.49535 0.24116 0.54529 0.0
H343 H 0.57664 0.34514 0.54263 0.0
H344 H 0.53974 0.23645 0.83418 0.0
H345 H 0.54181 0.23755 0.67359 0.0
H346 H 0.52892 0.34699 0.66415 0.0
H347 H 0.52904 0.34616 0.82451 0.0
C348 C 0.51433 0.2646 0.41878 0.0
C349 C 0.53656 0.2942 0.3709 0.0
C350 C 0.51379 0.26411 0.5108 0.0
C351 C 0.53601 0.29303 0.55732 0.0
C352 C 0.55847 0.3226 0.50916 0.0
C353 C 0.55846 0.32327 0.41694 0.0
C354 C 0.53735 0.2607 0.79763 0.0
C355 C 0.53429 0.29121 0.84191 0.0
C356 C 0.53827 0.26134 0.70549 0.0
C357 C 0.53551 0.29238 0.65552 0.0
C358 C 0.53203 0.32278 0.70021 0.0
C359 C 0.53174 0.32225 0.79227 0.0
loop_
_geom_bond_atom_site_label_1
_geom_bond_atom_site_label_2
_geom_bond_distance
_geom_bond_site_symmetry_2
_ccdc_geom_bond_type
Co0 N5 2.055 . S
Co0 O17 2.020 . S
Co0 O20 2.036 1_655 S
Co0 O24 2.116 1_655 S
Co0 O25 2.046 . S
C1 O21 1.259 . S
C1 O24 1.258 . S
Co2 N11 2.057 . S
Co2 O18 2.117 . S
Co2 O19 2.020 . S
Co2 O21 2.021 . S
Co2 O26 2.062 1_455 S
C3 N5 1.310 1_455 S
C3 N6 1.350 . S
C3 H8 0.933 . S
C4 N5 1.375 . S
C4 C7 1.350 . S
C4 H9 0.930 . S
N5 Co0 2.055 . S
N5 C3 1.310 1_655 S
N5 C4 1.375 . S
N6 C3 1.350 . S
N6 C7 1.373 1_455 S
C7 C4 1.350 . S
C7 N6 1.373 1_655 S
C7 H28 0.931 . S
H8 C3 0.933 . S
H9 C4 0.930 . S
C10 O17 1.259 1_455 S
C10 O18 1.258 . S
N11 Co2 2.057 . S
N11 C12 1.316 . S
N11 C13 1.375 . S
C12 N11 1.316 . S
C12 N14 1.347 . S
C12 H23 0.931 . S
C13 N11 1.375 . S
C13 C15 1.350 . S
C13 H22 0.930 . S
N14 C12 1.347 . S
N14 C15 1.373 . S
C15 C13 1.350 . S
C15 N14 1.373 . S
C15 H29 0.931 . S
C16 O19 1.256 . S
C16 O20 1.255 . S
O17 Co0 2.020 . S
O17 C10 1.259 1_655 S
O18 Co2 2.117 . S
O18 C10 1.258 . S
O19 Co2 2.020 . S
O19 C16 1.256 . S
O20 Co0 2.036 1_455 S
O20 C16 1.255 . S
O21 C1 1.259 . S
O21 Co2 2.021 . S
H22 C13 0.930 . S
H23 C12 0.931 . S
O24 Co0 2.116 1_455 S
O24 C1 1.258 . S
O25 Co0 2.046 . S
O25 C27 1.256 . S
O26 Co2 2.062 1_655 S
O26 C27 1.255 . S
C27 O25 1.256 . S
C27 O26 1.255 . S
H28 C7 0.931 . S
H29 C15 0.931 . S
Co30 N35 2.057 . S
Co30 O47 2.021 . S
Co30 O50 2.062 1_655 S
Co30 O54 2.117 1_655 S
Co30 O55 2.020 . S
C31 O51 1.259 . S
C31 O54 1.258 . S
Co32 N41 2.057 . S
Co32 O48 2.117 . S
Co32 O49 2.020 . S
Co32 O51 2.021 . S
Co32 O56 2.062 1_455 S
C33 N35 1.316 . S
C33 N36 1.347 1_655 S
C33 H38 0.931 1_655 S
C34 N35 1.375 . S
C34 C37 1.350 . S
C34 H39 0.930 . S
N35 Co30 2.057 . S
N35 C33 1.316 . S
N35 C34 1.375 . S
N36 C33 1.347 1_455 S
N36 C37 1.373 1_455 S
C37 C34 1.350 . S
C37 N36 1.373 1_655 S
C37 H58 0.931 . S
H38 C33 0.931 1_455 S
H39 C34 0.930 . S
C40 O47 1.259 1_455 S
C40 O48 1.258 . S
N41 Co32 2.057 . S
N41 C42 1.316 . S
N41 C43 1.375 . S
C42 N41 1.316 . S
C42 N44 1.347 . S
C42 H53 0.931 . S
C43 N41 1.375 . S
C43 C45 1.350 . S
C43 H52 0.930 . S
N44 C42 1.347 . S
N44 C45 1.373 . S
C45 C43 1.350 . S
C45 N44 1.373 . S
C45 H59 0.931 . S
C46 O49 1.256 . S
C46 O50 1.255 . S
O47 Co30 2.021 . S
O47 C40 1.259 1_655 S
O48 Co32 2.117 . S
O48 C40 1.258 . S
O49 Co32 2.020 . S
O49 C46 1.256 . S
O50 Co30 2.062 1_455 S
O50 C46 1.255 . S
O51 C31 1.259 . S
O51 Co32 2.021 . S
H52 C43 0.930 . S
H53 C42 0.931 . S
O54 Co30 2.117 1_455 S
O54 C31 1.258 . S
O55 Co30 2.020 . S
O55 C57 1.256 . S
O56 Co32 2.062 1_655 S
O56 C57 1.255 . S
C57 O55 1.256 . S
C57 O56 1.255 . S
H58 C37 0.931 . S
H59 C45 0.931 . S
Co60 N65 2.057 . S
Co60 O77 2.021 . S
Co60 O80 2.062 . S
Co60 O84 2.117 1_556 S
Co60 O85 2.020 . S
C61 O81 1.259 . S
C61 O84 1.258 . S
Co62 N71 2.057 . S
Co62 O78 2.117 . S
Co62 O79 2.020 . S
Co62 O81 2.021 1_556 S
Co62 O86 2.062 . S
C63 N65 1.316 . S
C63 N66 1.347 . S
C63 H68 0.931 . S
C64 N65 1.375 . S
C64 C67 1.350 . S
C64 H69 0.930 1_556 S
N65 Co60 2.057 . S
N65 C63 1.316 . S
N65 C64 1.375 . S
N66 C63 1.347 . S
N66 C67 1.373 . S
C67 C64 1.350 . S
C67 N66 1.373 . S
C67 H88 0.931 1_556 S
H68 C63 0.931 . S
H69 C64 0.930 1_554 S
C70 O77 1.259 . S
C70 O78 1.258 . S
N71 Co62 2.057 . S
N71 C72 1.316 . S
N71 C73 1.375 . S
C72 N71 1.316 . S
C72 N74 1.347 . S
C72 H83 0.931 . S
C73 N71 1.375 . S
C73 C75 1.350 . S
C73 H82 0.930 . S
N74 C72 1.347 . S
N74 C75 1.373 . S
C75 C73 1.350 . S
C75 N74 1.373 . S
C75 H89 0.931 . S
C76 O79 1.256 . S
C76 O80 1.255 . S
O77 Co60 2.021 . S
O77 C70 1.259 . S
O78 Co62 2.117 . S
O78 C70 1.258 . S
O79 Co62 2.020 . S
O79 C76 1.256 . S
O80 Co60 2.062 . S
O80 C76 1.255 . S
O81 C61 1.259 . S
O81 Co62 2.021 1_554 S
H82 C73 0.930 . S
H83 C72 0.931 . S
O84 Co60 2.117 1_554 S
O84 C61 1.258 . S
O85 Co60 2.020 . S
O85 C87 1.256 . S
O86 Co62 2.062 . S
O86 C87 1.255 . S
C87 O85 1.256 . S
C87 O86 1.255 . S
H88 C67 0.931 1_554 S
H89 C75 0.931 . S
Co90 N95 2.057 . S
Co90 O107 2.021 1_554 S
Co90 O110 2.062 . S
Co90 O114 2.117 . S
Co90 O115 2.020 . S
C91 O111 1.259 . S
C91 O114 1.258 . S
Co92 N101 2.057 . S
Co92 O108 2.117 1_554 S
Co92 O109 2.020 . S
Co92 O111 2.021 . S
Co92 O116 2.062 . S
C93 N95 1.316 . S
C93 N96 1.347 . S
C93 H98 0.931 . S
C94 N95 1.375 . S
C94 C97 1.350 . S
C94 H99 0.930 . S
N95 Co90 2.057 . S
N95 C93 1.316 . S
N95 C94 1.375 . S
N96 C93 1.347 . S
N96 C97 1.373 . S
C97 C94 1.350 . S
C97 N96 1.373 . S
C97 H118 0.931 . S
H98 C93 0.931 . S
H99 C94 0.930 . S
C100 O107 1.259 . S
C100 O108 1.258 . S
N101 Co92 2.057 . S
N101 C102 1.316 . S
N101 C103 1.375 . S
C102 N101 1.316 . S
C102 N104 1.347 . S
C102 H113 0.931 . S
C103 N101 1.375 . S
C103 C105 1.350 . S
C103 H112 0.930 1_554 S
N104 C102 1.347 . S
N104 C105 1.373 . S
C105 C103 1.350 . S
C105 N104 1.373 . S
C105 H119 0.931 1_554 S
C106 O109 1.256 . S
C106 O110 1.255 . S
O107 Co90 2.021 1_556 S
O107 C100 1.259 . S
O108 Co92 2.117 1_556 S
O108 C100 1.258 . S
O109 Co92 2.020 . S
O109 C106 1.256 . S
O110 Co90 2.062 . S
O110 C106 1.255 . S
O111 C91 1.259 . S
O111 Co92 2.021 . S
H112 C103 0.930 1_556 S
H113 C102 0.931 . S
O114 Co90 2.117 . S
O114 C91 1.258 . S
O115 Co90 2.020 . S
O115 C117 1.256 . S
O116 Co92 2.062 . S
O116 C117 1.255 . S
C117 O115 1.256 . S
C117 O116 1.255 . S
H118 C97 0.931 . S
H119 C105 0.931 1_556 S
H120 C128 0.950 . S
H121 C133 0.950 . S
H122 C130 0.950 . S
H123 C132 0.950 . S
H124 C134 0.950 . S
H125 C136 0.950 . S
H126 C138 0.950 . S
H127 C139 0.950 . S
C128 H120 0.950 . S
C128 C129 1.386 1_655 S
C128 C130 1.391 . S
C129 C128 1.386 1_455 S
C129 C133 1.393 . S
C130 H122 0.950 . S
C130 C128 1.391 . S
C130 C131 1.400 1_655 S
C131 C130 1.400 1_455 S
C131 C132 1.398 . S
C131 C137 1.491 . S
C132 H123 0.950 . S
C132 C131 1.398 . S
C132 C133 1.391 . S
C133 H121 0.950 . S
C133 C129 1.393 . S
C133 C132 1.391 . S
C134 H124 0.950 . S
C134 C135 1.386 . S
C134 C136 1.391 . S
C135 C134 1.386 . S
C135 C139 1.393 1_455 S
C136 H125 0.950 . S
C136 C134 1.391 . S
C136 C137 1.400 . S
C137 C131 1.491 . S
C137 C136 1.400 . S
C137 C138 1.398 1_455 S
C138 H126 0.950 . S
C138 C137 1.398 1_655 S
C138 C139 1.391 . S
C139 H127 0.950 . S
C139 C135 1.393 1_655 S
C139 C138 1.391 . S
H140 C148 0.950 . S
H141 C153 0.950 . S
H142 C150 0.950 . S
H143 C152 0.950 . S
H144 C154 0.950 . S
H145 C156 0.950 . S
H146 C158 0.950 . S
H147 C159 0.950 . S
C148 H140 0.950 . S
C148 C149 1.386 . S
C148 C150 1.391 . S
C149 C148 1.386 . S
C149 C153 1.393 . S
C150 H142 0.950 . S
C150 C148 1.391 . S
C150 C151 1.400 . S
C151 C150 1.400 . S
C151 C152 1.398 . S
C151 C157 1.491 . S
C152 H143 0.950 . S
C152 C151 1.398 . S
C152 C153 1.391 . S
C153 H141 0.950 . S
C153 C149 1.393 . S
C153 C152 1.391 . S
C154 H144 0.950 . S
C154 C155 1.386 . S
C154 C156 1.391 . S
C155 C154 1.386 . S
C155 C159 1.393 . S
C156 H145 0.950 . S
C156 C154 1.391 . S
C156 C157 1.400 . S
C157 C151 1.491 . S
C157 C156 1.400 . S
C157 C158 1.398 . S
C158 H146 0.950 . S
C158 C157 1.398 . S
C158 C159 1.391 . S
C159 H147 0.950 . S
C159 C155 1.393 . S
C159 C158 1.391 . S
H160 C168 0.950 . S
H161 C173 0.950 . S
H162 C170 0.950 1_556 S
H163 C172 0.950 . S
H164 C174 0.950 . S
H165 C176 0.950 1_554 S
H166 C178 0.950 . S
H167 C179 0.950 . S
C168 H160 0.950 . S
C168 C169 1.386 . S
C168 C170 1.391 . S
C169 C168 1.386 . S
C169 C173 1.393 . S
C170 H162 0.950 1_554 S
C170 C168 1.391 . S
C170 C171 1.400 . S
C171 C170 1.400 . S
C171 C172 1.398 . S
C171 C177 1.491 1_554 S
C172 H163 0.950 . S
C172 C171 1.398 . S
C172 C173 1.391 . S
C173 H161 0.950 . S
C173 C169 1.393 . S
C173 C172 1.391 . S
C174 H164 0.950 . S
C174 C175 1.386 . S
C174 C176 1.391 . S
C175 C174 1.386 . S
C175 C179 1.393 . S
C176 H165 0.950 1_556 S
C176 C174 1.391 . S
C176 C177 1.400 . S
C177 C171 1.491 1_556 S
C177 C176 1.400 . S
C177 C178 1.398 . S
C178 H166 0.950 . S
C178 C177 1.398 . S
C178 C179 1.391 . S
C179 H167 0.950 . S
C179 C175 1.393 . S
C179 C178 1.391 . S
H180 C188 0.950 . S
H181 C193 0.950 . S
H182 C190 0.950 . S
H183 C192 0.950 . S
H184 C194 0.950 . S
H185 C196 0.950 . S
H186 C198 0.950 . S
H187 C199 0.950 . S
C188 H180 0.950 . S
C188 C189 1.386 . S
C188 C190 1.391 . S
C189 C188 1.386 . S
C189 C193 1.393 . S
C190 H182 0.950 . S
C190 C188 1.391 . S
C190 C191 1.400 . S
C191 C190 1.400 . S
C191 C192 1.398 . S
C191 C197 1.491 . S
C192 H183 0.950 . S
C192 C191 1.398 . S
C192 C193 1.391 . S
C193 H181 0.950 . S
C193 C189 1.393 . S
C193 C192 1.391 . S
C194 H184 0.950 . S
C194 C195 1.386 . S
C194 C196 1.391 . S
C195 C194 1.386 . S
C195 C199 1.393 . S
C196 H185 0.950 . S
C196 C194 1.391 . S
C196 C197 1.400 . S
C197 C191 1.491 . S
C197 C196 1.400 . S
C197 C198 1.398 . S
C198 H186 0.950 . S
C198 C197 1.398 . S
C198 C199 1.391 . S
C199 H187 0.950 . S
C199 C195 1.393 . S
C199 C198 1.391 . S
H200 C208 0.950 . S
H201 C213 0.950 . S
H202 C210 0.950 . S
H203 C212 0.950 . S
H204 C214 0.950 . S
H205 C216 0.950 . S
H206 C218 0.950 . S
H207 C219 0.950 . S
C208 H200 0.950 . S
C208 C209 1.386 . S
C208 C210 1.391 . S
C209 C208 1.386 . S
C209 C213 1.393 . S
C210 H202 0.950 . S
C210 C208 1.391 . S
C210 C211 1.400 . S
C211 C210 1.400 . S
C211 C212 1.398 . S
C211 C217 1.491 . S
C212 H203 0.950 . S
C212 C211 1.398 . S
C212 C213 1.391 . S
C213 H201 0.950 . S
C213 C209 1.393 . S
C213 C212 1.391 . S
C214 H204 0.950 . S
C214 C215 1.386 . S
C214 C216 1.391 . S
C215 C214 1.386 . S
C215 C219 1.393 . S
C216 H205 0.950 . S
C216 C214 1.391 . S
C216 C217 1.400 . S
C217 C211 1.491 . S
C217 C216 1.400 . S
C217 C218 1.398 . S
C218 H206 0.950 . S
C218 C217 1.398 . S
C218 C219 1.391 . S
C219 H207 0.950 . S
C219 C215 1.393 . S
C219 C218 1.391 . S
H220 C228 0.950 . S
H221 C233 0.950 . S
H222 C230 0.950 . S
H223 C232 0.950 . S
H224 C234 0.950 . S
H225 C236 0.950 . S
H226 C238 0.950 . S
H227 C239 0.950 . S
C228 H220 0.950 . S
C228 C229 1.386 . S
C228 C230 1.391 . S
C229 C228 1.386 . S
C229 C233 1.393 . S
C230 H222 0.950 . S
C230 C228 1.391 . S
C230 C231 1.400 . S
C231 C230 1.400 . S
C231 C232 1.398 . S
C231 C237 1.491 . S
C232 H223 0.950 . S
C232 C231 1.398 . S
C232 C233 1.391 . S
C233 H221 0.950 . S
C233 C229 1.393 . S
C233 C232 1.391 . S
C234 H224 0.950 . S
C234 C235 1.386 . S
C234 C236 1.391 . S
C235 C234 1.386 . S
C235 C239 1.393 . S
C236 H225 0.950 . S
C236 C234 1.391 . S
C236 C237 1.400 . S
C237 C231 1.491 . S
C237 C236 1.400 . S
C237 C238 1.398 . S
C238 H226 0.950 . S
C238 C237 1.398 . S
C238 C239 1.391 . S
C239 H227 0.950 . S
C239 C235 1.393 . S
C239 C238 1.391 . S
H240 C248 0.950 . S
H241 C253 0.950 . S
H242 C250 0.950 . S
H243 C252 0.950 . S
H244 C254 0.950 . S
H245 C256 0.950 . S
H246 C258 0.950 . S
H247 C259 0.950 . S
C248 H240 0.950 . S
C248 C249 1.386 . S
C248 C250 1.391 . S
C249 C248 1.386 . S
C249 C253 1.393 . S
C250 H242 0.950 . S
C250 C248 1.391 . S
C250 C251 1.400 . S
C251 C250 1.400 . S
C251 C252 1.398 . S
C251 C257 1.491 1_566 S
C252 H243 0.950 . S
C252 C251 1.398 . S
C252 C253 1.391 . S
C253 H241 0.950 . S
C253 C249 1.393 . S
C253 C252 1.391 . S
C254 H244 0.950 . S
C254 C255 1.386 . S
C254 C256 1.391 . S
C255 C254 1.386 . S
C255 C259 1.393 . S
C256 H245 0.950 . S
C256 C254 1.391 . S
C256 C257 1.400 . S
C257 C251 1.491 1_544 S
C257 C256 1.400 . S
C257 C258 1.398 . S
C258 H246 0.950 . S
C258 C257 1.398 . S
C258 C259 1.391 . S
C259 H247 0.950 . S
C259 C255 1.393 . S
C259 C258 1.391 . S
H260 C268 0.950 . S
H261 C273 0.950 . S
H262 C270 0.950 . S
H263 C272 0.950 . S
H264 C274 0.950 . S
H265 C276 0.950 . S
H266 C278 0.950 . S
H267 C279 0.950 . S
C268 H260 0.950 . S
C268 C269 1.386 . S
C268 C270 1.391 . S
C269 C268 1.386 . S
C269 C273 1.393 1_455 S
C270 H262 0.950 . S
C270 C268 1.391 . S
C270 C271 1.400 . S
C271 C270 1.400 . S
C271 C272 1.398 1_455 S
C271 C277 1.491 1_565 S
C272 H263 0.950 . S
C272 C271 1.398 1_655 S
C272 C273 1.391 . S
C273 H261 0.950 . S
C273 C269 1.393 1_655 S
C273 C272 1.391 . S
C274 H264 0.950 . S
C274 C275 1.386 1_655 S
C274 C276 1.391 . S
C275 C274 1.386 1_455 S
C275 C279 1.393 . S
C276 H265 0.950 . S
C276 C274 1.391 . S
C276 C277 1.400 1_655 S
C277 C271 1.491 1_545 S
C277 C276 1.400 1_455 S
C277 C278 1.398 . S
C278 H266 0.950 . S
C278 C277 1.398 . S
C278 C279 1.391 . S
C279 H267 0.950 . S
C279 C275 1.393 . S
C279 C278 1.391 . S
H280 C288 0.950 . S
H281 C293 0.950 . S
H282 C290 0.950 . S
H283 C292 0.950 . S
H284 C294 0.950 . S
H285 C296 0.950 . S
H286 C298 0.950 . S
H287 C299 0.950 . S
C288 H280 0.950 . S
C288 C289 1.386 . S
C288 C290 1.391 1_554 S
C289 C288 1.386 . S
C289 C293 1.393 1_455 S
C290 H282 0.950 . S
C290 C288 1.391 1_556 S
C290 C291 1.400 . S
C291 C290 1.400 . S
C291 C292 1.398 1_455 S
C291 C297 1.491 . S
C292 H283 0.950 . S
C292 C291 1.398 1_655 S
C292 C293 1.391 1_556 S
C293 H281 0.950 . S
C293 C289 1.393 1_655 S
C293 C292 1.391 1_554 S
C294 H284 0.950 . S
C294 C295 1.386 1_655 S
C294 C296 1.391 . S
C295 C294 1.386 1_455 S
C295 C299 1.393 . S
C296 H285 0.950 . S
C296 C294 1.391 . S
C296 C297 1.400 1_655 S
C297 C291 1.491 . S
C297 C296 1.400 1_455 S
C297 C298 1.398 . S
C298 H286 0.950 . S
C298 C297 1.398 . S
C298 C299 1.391 . S
C299 H287 0.950 . S
C299 C295 1.393 . S
C299 C298 1.391 . S
H300 C308 0.950 . S
H301 C313 0.950 . S
H302 C310 0.950 . S
H303 C312 0.950 . S
H304 C314 0.950 . S
H305 C316 0.950 . S
H306 C318 0.950 . S
H307 C319 0.950 . S
C308 H300 0.950 . S
C308 C309 1.386 1_655 S
C308 C310 1.391 1_556 S
C309 C308 1.386 1_455 S
C309 C313 1.393 . S
C310 H302 0.950 . S
C310 C308 1.391 1_554 S
C310 C311 1.400 1_655 S
C311 C310 1.400 1_455 S
C311 C312 1.398 . S
C311 C317 1.491 . S
C312 H303 0.950 . S
C312 C311 1.398 . S
C312 C313 1.391 1_554 S
C313 H301 0.950 . S
C313 C309 1.393 . S
C313 C312 1.391 1_556 S
C314 H304 0.950 . S
C314 C315 1.386 . S
C314 C316 1.391 . S
C315 C314 1.386 . S
C315 C319 1.393 1_455 S
C316 H305 0.950 . S
C316 C314 1.391 . S
C316 C317 1.400 . S
C317 C311 1.491 . S
C317 C316 1.400 . S
C317 C318 1.398 1_455 S
C318 H306 0.950 . S
C318 C317 1.398 1_655 S
C318 C319 1.391 . S
C319 H307 0.950 . S
C319 C315 1.393 1_655 S
C319 C318 1.391 . S
H320 C328 0.950 . S
H321 C333 0.950 . S
H322 C330 0.950 . S
H323 C332 0.950 . S
H324 C334 0.950 . S
H325 C336 0.950 . S
H326 C338 0.950 . S
H327 C339 0.950 . S
C328 H320 0.950 . S
C328 C329 1.386 . S
C328 C330 1.391 . S
C329 C328 1.386 . S
C329 C333 1.393 . S
C330 H322 0.950 . S
C330 C328 1.391 . S
C330 C331 1.400 . S
C331 C330 1.400 . S
C331 C332 1.398 . S
C331 C337 1.491 . S
C332 H323 0.950 . S
C332 C331 1.398 . S
C332 C333 1.391 . S
C333 H321 0.950 . S
C333 C329 1.393 . S
C333 C332 1.391 . S
C334 H324 0.950 . S
C334 C335 1.386 . S
C334 C336 1.391 . S
C335 C334 1.386 . S
C335 C339 1.393 . S
C336 H325 0.950 . S
C336 C334 1.391 . S
C336 C337 1.400 . S
C337 C331 1.491 . S
C337 C336 1.400 . S
C337 C338 1.398 . S
C338 H326 0.950 . S
C338 C337 1.398 . S
C338 C339 1.391 . S
C339 H327 0.950 . S
C339 C335 1.393 . S
C339 C338 1.391 . S
H340 C348 0.950 . S
H341 C353 0.950 . S
H342 C350 0.950 . S
H343 C352 0.950 . S
H344 C354 0.950 . S
H345 C356 0.950 . S
H346 C358 0.950 . S
H347 C359 0.950 . S
C348 H340 0.950 . S
C348 C349 1.386 . S
C348 C350 1.391 . S
C349 C348 1.386 . S
C349 C353 1.393 . S
C350 H342 0.950 . S
C350 C348 1.391 . S
C350 C351 1.400 . S
C351 C350 1.400 . S
C351 C352 1.398 . S
C351 C357 1.491 . S
C352 H343 0.950 . S
C352 C351 1.398 . S
C352 C353 1.391 . S
C353 H341 0.950 . S
C353 C349 1.393 . S
C353 C352 1.391 . S
C354 H344 0.950 . S
C354 C355 1.386 . S
C354 C356 1.391 . S
C355 C354 1.386 . S
C355 C359 1.393 . S
C356 H345 0.950 . S
C356 C354 1.391 . S
C356 C357 1.400 . S
C357 C351 1.491 . S
C357 C356 1.400 . S
C357 C358 1.398 . S
C358 H346 0.950 . S
C358 C357 1.398 . S
C358 C359 1.391 . S
C359 H347 0.950 . S
C359 C355 1.393 . S
C359 C358 1.391 . S
C129 N14 1.837 . S
C135 N36 1.837 . S
C149 C76 1.795 . S
C155 C57 1.795 . S
C169 N104 1.633 . S
C175 N66 1.633 . S
C189 C27 1.696 . S
C195 C106 1.696 . S
C209 C117 1.794 . S
C215 C16 1.794 . S
C229 C87 1.703 . S
C235 C46 1.703 . S
C249 N74 1.839 . S
C255 N96 1.839 . S
C269 N44 1.601 . S
C275 N6 1.601 . S
C289 C10 0.889 . S
C295 C1 0.889 . S
C309 C31 0.891 . S
C315 C40 0.891 . S
C329 C61 0.890 . S
C335 C70 0.890 . S
C349 C91 0.898 . S
C355 C100 0.898 . S
