# Generated by pormake.
# Topology uns, (4)-cn, num edge types: 1
# Building blocks:
#     Node 0, Type 0, BuildingBlock: QUQFOY_clean_sbu_1, # of connection points: 4
#     Node 1, Type 0, BuildingBlock: QUQFOY_clean_sbu_1, # of connection points: 4
#     Node 2, Type 0, BuildingBlock: QUQFOY_clean_sbu_1, # of connection points: 4
#     Node 3, Type 0, BuildingBlock: QUQFOY_clean_sbu_1, # of connection points: 4
#     Node 4, Type 0, BuildingBlock: QUQFOY_clean_sbu_1, # of connection points: 4
#     Node 5, Type 0, BuildingBlock: QUQFOY_clean_sbu_1, # of connection points: 4
#     Node 6, Type 0, BuildingBlock: QUQFOY_clean_sbu_1, # of connection points: 4
#     Node 7, Type 0, BuildingBlock: QUQFOY_clean_sbu_1, # of connection points: 4
#     Node 8, Type 0, BuildingBlock: QUQFOY_clean_sbu_1, # of connection points: 4
#     Node 9, Type 0, BuildingBlock: QUQFOY_clean_sbu_1, # of connection points: 4
#     Node 10, Type 0, BuildingBlock: QUQFOY_clean_sbu_1, # of connection points: 4
#     Node 11, Type 0, BuildingBlock: QUQFOY_clean_sbu_1, # of connection points: 4
#     Node 12, Type 0, BuildingBlock: QUQFOY_clean_sbu_1, # of connection points: 4
#     Node 13, Type 0, BuildingBlock: QUQFOY_clean_sbu_1, # of connection points: 4
#     Node 14, Type 0, BuildingBlock: QUQFOY_clean_sbu_1, # of connection points: 4
#     Node 15, Type 0, BuildingBlock: QUQFOY_clean_sbu_1, # of connection points: 4
#     Node 16, Type 0, BuildingBlock: QUQFOY_clean_sbu_1, # of connection points: 4
#     Node 17, Type 0, BuildingBlock: QUQFOY_clean_sbu_1, # of connection points: 4
#     Node 18, Type 0, BuildingBlock: QUQFOY_clean_sbu_1, # of connection points: 4
#     Node 19, Type 0, BuildingBlock: QUQFOY_clean_sbu_1, # of connection points: 4
#     Node 20, Type 0, BuildingBlock: QUQFOY_clean_sbu_1, # of connection points: 4
#     Node 21, Type 0, BuildingBlock: QUQFOY_clean_sbu_1, # of connection points: 4
#     Node 22, Type 0, BuildingBlock: QUQFOY_clean_sbu_1, # of connection points: 4
#     Node 23, Type 0, BuildingBlock: QUQFOY_clean_sbu_1, # of connection points: 4
#     Node 24, Type 0, BuildingBlock: QUQFOY_clean_sbu_1, # of connection points: 4
#     Node 25, Type 0, BuildingBlock: QUQFOY_clean_sbu_1, # of connection points: 4
#     Node 26, Type 0, BuildingBlock: QUQFOY_clean_sbu_1, # of connection points: 4
#     Node 27, Type 0, BuildingBlock: QUQFOY_clean_sbu_1, # of connection points: 4
#     Node 28, Type 0, BuildingBlock: QUQFOY_clean_sbu_1, # of connection points: 4
#     Node 29, Type 0, BuildingBlock: QUQFOY_clean_sbu_1, # of connection points: 4
#     Node 30, Type 0, BuildingBlock: QUQFOY_clean_sbu_1, # of connection points: 4
#     Node 31, Type 0, BuildingBlock: QUQFOY_clean_sbu_1, # of connection points: 4
#     Node 32, Type 0, BuildingBlock: QUQFOY_clean_sbu_1, # of connection points: 4
#     Node 33, Type 0, BuildingBlock: QUQFOY_clean_sbu_1, # of connection points: 4
#     Node 34, Type 0, BuildingBlock: QUQFOY_clean_sbu_1, # of connection points: 4
#     Node 35, Type 0, BuildingBlock: QUQFOY_clean_sbu_1, # of connection points: 4
#     Edge 36, Type (0, 0), BuildingBlock: CIFDUS_clean_linker_0, # of connection points: 2
#     Edge 37, Type (0, 0), BuildingBlock: CIFDUS_clean_linker_0, # of connection points: 2
#     Edge 38, Type (0, 0), BuildingBlock: CIFDUS_clean_linker_0, # of connection points: 2
#     Edge 39, Type (0, 0), BuildingBlock: CIFDUS_clean_linker_0, # of connection points: 2
#     Edge 40, Type (0, 0), BuildingBlock: CIFDUS_clean_linker_0, # of connection points: 2
#     Edge 41, Type (0, 0), BuildingBlock: CIFDUS_clean_linker_0, # of connection points: 2
#     Edge 42, Type (0, 0), BuildingBlock: CIFDUS_clean_linker_0, # of connection points: 2
#     Edge 43, Type (0, 0), BuildingBlock: CIFDUS_clean_linker_0, # of connection points: 2
#     Edge 44, Type (0, 0), BuildingBlock: CIFDUS_clean_linker_0, # of connection points: 2
#     Edge 45, Type (0, 0), BuildingBlock: CIFDUS_clean_linker_0, # of connection points: 2
#     Edge 46, Type (0, 0), BuildingBlock: CIFDUS_clean_linker_0, # of connection points: 2
#     Edge 47, Type (0, 0), BuildingBlock: CIFDUS_clean_linker_0, # of connection points: 2
#     Edge 48, Type (0, 0), BuildingBlock: CIFDUS_clean_linker_0, # of connection points: 2
#     Edge 49, Type (0, 0), BuildingBlock: CIFDUS_clean_linker_0, # of connection points: 2
#     Edge 50, Type (0, 0), BuildingBlock: CIFDUS_clean_linker_0, # of connection points: 2
#     Edge 51, Type (0, 0), BuildingBlock: CIFDUS_clean_linker_0, # of connection points: 2
#     Edge 52, Type (0, 0), BuildingBlock: CIFDUS_clean_linker_0, # of connection points: 2
#     Edge 53, Type (0, 0), BuildingBlock: CIFDUS_clean_linker_0, # of connection points: 2
#     Edge 54, Type (0, 0), BuildingBlock: CIFDUS_clean_linker_0, # of connection points: 2
#     Edge 55, Type (0, 0), BuildingBlock: CIFDUS_clean_linker_0, # of connection points: 2
#     Edge 56, Type (0, 0), BuildingBlock: CIFDUS_clean_linker_0, # of connection points: 2
#     Edge 57, Type (0, 0), BuildingBlock: CIFDUS_clean_linker_0, # of connection points: 2
#     Edge 58, Type (0, 0), BuildingBlock: CIFDUS_clean_linker_0, # of connection points: 2
#     Edge 59, Type (0, 0), BuildingBlock: CIFDUS_clean_linker_0, # of connection points: 2
#     Edge 60, Type (0, 0), BuildingBlock: CIFDUS_clean_linker_0, # of connection points: 2
#     Edge 61, Type (0, 0), BuildingBlock: CIFDUS_clean_linker_0, # of connection points: 2
#     Edge 62, Type (0, 0), BuildingBlock: CIFDUS_clean_linker_0, # of connection points: 2
#     Edge 63, Type (0, 0), BuildingBlock: CIFDUS_clean_linker_0, # of connection points: 2
#     Edge 64, Type (0, 0), BuildingBlock: CIFDUS_clean_linker_0, # of connection points: 2
#     Edge 65, Type (0, 0), BuildingBlock: CIFDUS_clean_linker_0, # of connection points: 2
#     Edge 66, Type (0, 0), BuildingBlock: CIFDUS_clean_linker_0, # of connection points: 2
#     Edge 67, Type (0, 0), BuildingBlock: CIFDUS_clean_linker_0, # of connection points: 2
#     Edge 68, Type (0, 0), BuildingBlock: CIFDUS_clean_linker_0, # of connection points: 2
#     Edge 69, Type (0, 0), BuildingBlock: CIFDUS_clean_linker_0, # of connection points: 2
#     Edge 70, Type (0, 0), BuildingBlock: CIFDUS_clean_linker_0, # of connection points: 2
#     Edge 71, Type (0, 0), BuildingBlock: CIFDUS_clean_linker_0, # of connection points: 2
#     Edge 72, Type (0, 0), BuildingBlock: CIFDUS_clean_linker_0, # of connection points: 2
#     Edge 73, Type (0, 0), BuildingBlock: CIFDUS_clean_linker_0, # of connection points: 2
#     Edge 74, Type (0, 0), BuildingBlock: CIFDUS_clean_linker_0, # of connection points: 2
#     Edge 75, Type (0, 0), BuildingBlock: CIFDUS_clean_linker_0, # of connection points: 2
#     Edge 76, Type (0, 0), BuildingBlock: CIFDUS_clean_linker_0, # of connection points: 2
#     Edge 77, Type (0, 0), BuildingBlock: CIFDUS_clean_linker_0, # of connection points: 2
#     Edge 78, Type (0, 0), BuildingBlock: CIFDUS_clean_linker_0, # of connection points: 2
#     Edge 79, Type (0, 0), BuildingBlock: CIFDUS_clean_linker_0, # of connection points: 2
#     Edge 80, Type (0, 0), BuildingBlock: CIFDUS_clean_linker_0, # of connection points: 2
#     Edge 81, Type (0, 0), BuildingBlock: CIFDUS_clean_linker_0, # of connection points: 2
#     Edge 82, Type (0, 0), BuildingBlock: CIFDUS_clean_linker_0, # of connection points: 2
#     Edge 83, Type (0, 0), BuildingBlock: CIFDUS_clean_linker_0, # of connection points: 2
#     Edge 84, Type (0, 0), BuildingBlock: CIFDUS_clean_linker_0, # of connection points: 2
#     Edge 85, Type (0, 0), BuildingBlock: CIFDUS_clean_linker_0, # of connection points: 2
#     Edge 86, Type (0, 0), BuildingBlock: CIFDUS_clean_linker_0, # of connection points: 2
#     Edge 87, Type (0, 0), BuildingBlock: CIFDUS_clean_linker_0, # of connection points: 2
#     Edge 88, Type (0, 0), BuildingBlock: CIFDUS_clean_linker_0, # of connection points: 2
#     Edge 89, Type (0, 0), BuildingBlock: CIFDUS_clean_linker_0, # of connection points: 2
#     Edge 90, Type (0, 0), BuildingBlock: CIFDUS_clean_linker_0, # of connection points: 2
#     Edge 91, Type (0, 0), BuildingBlock: CIFDUS_clean_linker_0, # of connection points: 2
#     Edge 92, Type (0, 0), BuildingBlock: CIFDUS_clean_linker_0, # of connection points: 2
#     Edge 93, Type (0, 0), BuildingBlock: CIFDUS_clean_linker_0, # of connection points: 2
#     Edge 94, Type (0, 0), BuildingBlock: CIFDUS_clean_linker_0, # of connection points: 2
#     Edge 95, Type (0, 0), BuildingBlock: CIFDUS_clean_linker_0, # of connection points: 2
#     Edge 96, Type (0, 0), BuildingBlock: CIFDUS_clean_linker_0, # of connection points: 2
#     Edge 97, Type (0, 0), BuildingBlock: CIFDUS_clean_linker_0, # of connection points: 2
#     Edge 98, Type (0, 0), BuildingBlock: CIFDUS_clean_linker_0, # of connection points: 2
#     Edge 99, Type (0, 0), BuildingBlock: CIFDUS_clean_linker_0, # of connection points: 2
#     Edge 100, Type (0, 0), BuildingBlock: CIFDUS_clean_linker_0, # of connection points: 2
#     Edge 101, Type (0, 0), BuildingBlock: CIFDUS_clean_linker_0, # of connection points: 2
#     Edge 102, Type (0, 0), BuildingBlock: CIFDUS_clean_linker_0, # of connection points: 2
#     Edge 103, Type (0, 0), BuildingBlock: CIFDUS_clean_linker_0, # of connection points: 2
#     Edge 104, Type (0, 0), BuildingBlock: CIFDUS_clean_linker_0, # of connection points: 2
#     Edge 105, Type (0, 0), BuildingBlock: CIFDUS_clean_linker_0, # of connection points: 2
#     Edge 106, Type (0, 0), BuildingBlock: CIFDUS_clean_linker_0, # of connection points: 2
#     Edge 107, Type (0, 0), BuildingBlock: CIFDUS_clean_linker_0, # of connection points: 2
# Relax obj value: 0.035
# Max RMSD: 0.164
# Mean RMSD: 0.164
data_MOF--net-uns--node1-QUQFOY_clean_sbu_1--edge1-CIFDUS_clean_linker_0
_symmetry_space_group_name_H-M    P1
_symmetry_Int_Tables_number       1
_symmetry_cell_setting            triclinic
loop_
_symmetry_equiv_pos_as_xyz
'x, y, z'
_cell_length_a     46.026056
_cell_length_b     46.005748
_cell_length_c     58.782864
_cell_angle_alpha  90.00372
_cell_angle_beta   90.032853
_cell_angle_gamma 120.03309
loop_
_atom_site_label
_atom_site_type_symbol
_atom_site_fract_x
_atom_site_fract_y
_atom_site_fract_z
_atom_type_partial_charge
O0 O 0.28787 0.21696 0.04986 0.0
Cd1 Cd 0.32014 0.20041 0.05986 0.0
Cd2 Cd 0.30089 0.21123 0.10103 0.0
O3 O 0.26377 0.21465 0.08283 0.0
O4 O 0.32 0.17166 0.03422 0.0
O5 O 0.29935 0.15175 0.06839 0.0
C6 C 0.3042 0.14613 0.04756 0.0
C7 C 0.29935 0.18786 0.13638 0.0
C8 C 0.26583 0.21948 0.06138 0.0
C9 C 0.37257 0.25612 0.08652 0.0
O10 O 0.34784 0.25152 0.0986 0.0
O11 O 0.36849 0.23681 0.06981 0.0
O12 O 0.29305 0.21209 0.13434 0.0
O13 O 0.30145 0.17357 0.11799 0.0
O14 O 0.80277 0.07251 0.05169 0.0
Cd15 Cd 0.82257 0.12126 0.06412 0.0
Cd16 Cd 0.80739 0.08613 0.10174 0.0
O17 O 0.80827 0.04869 0.08272 0.0
O18 O 0.85125 0.15195 0.03913 0.0
O19 O 0.87181 0.14526 0.07152 0.0
C20 C 0.87706 0.1585 0.05147 0.0
C21 C 0.82989 0.11189 0.13629 0.0
C22 C 0.80172 0.04731 0.06154 0.0
C23 C 0.76658 0.11551 0.09167 0.0
O24 O 0.76499 0.08839 0.09781 0.0
O25 O 0.79089 0.1364 0.07939 0.0
O26 O 0.80826 0.08015 0.1353 0.0
O27 O 0.84256 0.12762 0.11739 0.0
O28 O 0.9547 0.74198 0.05523 0.0
Cd29 Cd 0.90458 0.70922 0.06246 0.0
Cd30 Cd 0.92746 0.7308 0.10481 0.0
O31 O 0.96902 0.76876 0.08811 0.0
O32 O 0.87753 0.7098 0.03579 0.0
O33 O 0.87617 0.72984 0.0698 0.0
C34 C 0.86683 0.7252 0.04871 0.0
C35 C 0.90378 0.73174 0.13958 0.0
C36 C 0.97629 0.76561 0.06765 0.0
C37 C 0.9062 0.65934 0.09269 0.0
O38 O 0.92415 0.68519 0.10459 0.0
O39 O 0.89234 0.66149 0.07449 0.0
O40 O 0.9349 0.73994 0.13809 0.0
O41 O 0.88757 0.72825 0.12087 0.0
O42 O 0.22154 0.28794 0.50527 0.0
Cd43 Cd 0.2055 0.32098 0.49612 0.0
Cd44 Cd 0.21576 0.30157 0.45399 0.0
O45 O 0.21918 0.26427 0.47205 0.0
O46 O 0.18131 0.3238 0.52358 0.0
O47 O 0.15575 0.30091 0.49113 0.0
C48 C 0.1537 0.30761 0.51224 0.0
C49 C 0.19329 0.30062 0.41829 0.0
C50 C 0.22395 0.26602 0.49351 0.0
C51 C 0.26119 0.37301 0.46897 0.0
O52 O 0.25619 0.34829 0.4567 0.0
O53 O 0.24215 0.36904 0.48579 0.0
O54 O 0.21731 0.29408 0.42065 0.0
O55 O 0.17865 0.30264 0.43652 0.0
O56 O 0.72848 0.939 0.49739 0.0
Cd57 Cd 0.69793 0.88952 0.48759 0.0
Cd58 Cd 0.72043 0.91838 0.44682 0.0
O59 O 0.75543 0.96017 0.46507 0.0
O60 O 0.69829 0.86089 0.5132 0.0
O61 O 0.72124 0.86401 0.47952 0.0
C62 C 0.71565 0.85273 0.50014 0.0
C63 C 0.72386 0.89296 0.41372 0.0
C64 C 0.75128 0.96349 0.48618 0.0
C65 C 0.64736 0.89003 0.45747 0.0
O66 O 0.67317 0.91076 0.44652 0.0
O67 O 0.65003 0.87531 0.47502 0.0
O68 O 0.72882 0.92318 0.41341 0.0
O69 O 0.72275 0.87959 0.43329 0.0
O70 O 0.07066 0.79724 0.49968 0.0
Cd71 Cd 0.12103 0.81334 0.49513 0.0
Cd72 Cd 0.10077 0.80915 0.45029 0.0
O73 O 0.058 0.80585 0.465 0.0
O74 O 0.14344 0.83567 0.52444 0.0
O75 O 0.15257 0.86329 0.49204 0.0
C76 C 0.15761 0.86397 0.51374 0.0
C77 C 0.12416 0.83119 0.41477 0.0
C78 C 0.04972 0.79766 0.48572 0.0
C79 C 0.12081 0.75957 0.46769 0.0
O80 O 0.10525 0.76761 0.45356 0.0
O81 O 0.13248 0.77625 0.48601 0.0
O82 O 0.09356 0.80719 0.41669 0.0
O83 O 0.14006 0.84591 0.43319 0.0
O84 O 0.74312 0.79695 0.99302 0.0
Cd85 Cd 0.71025 0.81445 0.98631 0.0
Cd86 Cd 0.73415 0.81721 0.94496 0.0
O87 O 0.77241 0.81339 0.96118 0.0
O88 O 0.70581 0.83482 1.01532 0.0
O89 O 0.73096 0.86475 0.98465 0.0
C90 C 0.72286 0.86392 1.00581 0.0
C91 C 0.7327 0.84798 0.91417 0.0
C92 C 0.76799 0.80093 0.98115 0.0
C93 C 0.66306 0.76535 0.95347 0.0
O94 O 0.68997 0.77361 0.94281 0.0
O95 O 0.66368 0.78057 0.97173 0.0
O96 O 0.74225 0.82612 0.91175 0.0
O97 O 0.72975 0.85652 0.93464 0.0
O98 O 0.22527 0.94765 0.99568 0.0
Cd99 Cd 0.20721 0.89729 0.98951 0.0
Cd100 Cd 0.21552 0.91988 0.94563 0.0
O101 O 0.22096 0.96329 0.96091 0.0
O102 O 0.17798 0.87241 1.01601 0.0
O103 O 0.15858 0.86875 0.98099 0.0
C104 C 0.15266 0.86096 1.00231 0.0
C105 C 0.19391 0.89855 0.90964 0.0
C106 C 0.22753 0.9701 0.98198 0.0
C107 C 0.26067 0.89469 0.96412 0.0
O108 O 0.25461 0.9115 0.94974 0.0
O109 O 0.24306 0.88361 0.98209 0.0
O110 O 0.21931 0.92829 0.91214 0.0
O111 O 0.17789 0.88262 0.92772 0.0
O112 O 0.07365 0.28173 0.99811 0.0
Cd113 Cd 0.12407 0.31471 0.99258 0.0
Cd114 Cd 0.1015 0.29742 0.94768 0.0
O115 O 0.05853 0.25987 0.96368 0.0
O116 O 0.14705 0.31555 1.02171 0.0
O117 O 0.15417 0.29479 0.98961 0.0
C118 C 0.16013 0.30025 1.01116 0.0
C119 C 0.12196 0.29612 0.91151 0.0
C120 C 0.05157 0.26052 0.98463 0.0
C121 C 0.12612 0.36862 0.96439 0.0
O122 O 0.10934 0.3448 0.95062 0.0
O123 O 0.13736 0.36339 0.9828 0.0
O124 O 0.09212 0.29134 0.91428 0.0
O125 O 0.13852 0.29694 0.92949 0.0
O126 O 0.7976 0.73601 0.55181 0.0
Cd127 Cd 0.8155 0.70365 0.55831 0.0
Cd128 Cd 0.80853 0.71927 0.60185 0.0
O129 O 0.80283 0.75685 0.58639 0.0
O130 O 0.84569 0.70765 0.5325 0.0
O131 O 0.86369 0.72384 0.56774 0.0
C132 C 0.87045 0.72159 0.54666 0.0
C133 C 0.83086 0.72023 0.63761 0.0
C134 C 0.79572 0.75656 0.56538 0.0
C135 C 0.76254 0.64845 0.5845 0.0
O136 O 0.76913 0.67181 0.59856 0.0
O137 O 0.77962 0.65432 0.56633 0.0
O138 O 0.80559 0.72478 0.63529 0.0
O139 O 0.84645 0.7199 0.61942 0.0
O140 O 0.2888 0.07514 0.55299 0.0
Cd141 Cd 0.31948 0.12479 0.56279 0.0
Cd142 Cd 0.29549 0.09535 0.60288 0.0
O143 O 0.25902 0.05478 0.5844 0.0
O144 O 0.32474 0.15228 0.535 0.0
O145 O 0.29657 0.15222 0.56548 0.0
C146 C 0.30594 0.162 0.54479 0.0
C147 C 0.29507 0.12399 0.63521 0.0
C148 C 0.26445 0.05117 0.56358 0.0
C149 C 0.36755 0.12138 0.59424 0.0
O150 O 0.34095 0.09875 0.60346 0.0
O151 O 0.36608 0.13864 0.57781 0.0
O152 O 0.28708 0.0928 0.63628 0.0
O153 O 0.29754 0.137 0.61527 0.0
O154 O 0.93986 0.22044 0.54386 0.0
Cd155 Cd 0.89001 0.20338 0.55129 0.0
Cd156 Cd 0.91655 0.21176 0.59433 0.0
O157 O 0.95951 0.21825 0.57778 0.0
O158 O 0.8653 0.17989 0.52294 0.0
O159 O 0.86031 0.15337 0.55533 0.0
C160 C 0.85319 0.15193 0.53393 0.0
C161 C 0.89216 0.18516 0.62844 0.0
C162 C 0.96378 0.22349 0.5564 0.0
C163 C 0.88982 0.25678 0.57893 0.0
O164 O 0.90793 0.2508 0.59216 0.0
O165 O 0.87732 0.23932 0.56103 0.0
O166 O 0.92169 0.21143 0.628 0.0
O167 O 0.8787 0.17109 0.60924 0.0
O168 O 0.94799 0.54959 0.38605 0.0
Cd169 Cd 0.98209 0.53318 0.38978 0.0
Cd170 Cd 0.96616 0.53633 0.43483 0.0
O171 O 0.9273 0.54162 0.42088 0.0
O172 O 0.98208 0.5125 0.35973 0.0
O173 O 0.96352 0.48305 0.39143 0.0
C174 C 0.96781 0.4836 0.36965 0.0
C175 C 0.9674 0.51044 0.46869 0.0
C176 C 0.92713 0.54982 0.40015 0.0
C177 C 0.03607 0.58598 0.41751 0.0
O178 O 0.01269 0.57725 0.4319 0.0
O179 O 0.03076 0.5701 0.39881 0.0
O180 O 0.963 0.53599 0.46873 0.0
O181 O 0.96622 0.49659 0.4493 0.0
O182 O 0.46744 0.40102 0.38791 0.0
Cd183 Cd 0.48489 0.45133 0.39389 0.0
Cd184 Cd 0.47659 0.42891 0.43812 0.0
O185 O 0.47175 0.38576 0.42281 0.0
O186 O 0.51424 0.47669 0.36756 0.0
O187 O 0.53326 0.48018 0.40268 0.0
C188 C 0.53939 0.48835 0.38143 0.0
C189 C 0.49725 0.44957 0.47442 0.0
C190 C 0.46543 0.37881 0.40172 0.0
C191 C 0.43152 0.45408 0.41921 0.0
O192 O 0.43765 0.43749 0.43372 0.0
O193 O 0.44893 0.46483 0.40114 0.0
O194 O 0.47189 0.41991 0.47156 0.0
O195 O 0.51377 0.4658 0.45656 0.0
O196 O 0.61949 0.06853 0.38588 0.0
Cd197 Cd 0.56921 0.03859 0.39446 0.0
Cd198 Cd 0.59583 0.05846 0.43612 0.0
O199 O 0.63708 0.09531 0.41862 0.0
O200 O 0.54175 0.04021 0.36849 0.0
O201 O 0.54424 0.06261 0.40231 0.0
C202 C 0.53343 0.05746 0.38155 0.0
C203 C 0.57382 0.05986 0.47142 0.0
C204 C 0.6426 0.09161 0.39785 0.0
C205 C 0.56789 0.98647 0.4239 0.0
O206 O 0.58973 0.01177 0.43478 0.0
O207 O 0.55291 0.99013 0.40688 0.0
O208 O 0.60454 0.06684 0.46941 0.0
O209 O 0.55734 0.05747 0.45302 0.0
O210 O 0.88705 0.60858 0.83029 0.0
Cd211 Cd 0.87045 0.64225 0.82479 0.0
Cd212 Cd 0.87735 0.62811 0.78062 0.0
O213 O 0.88149 0.58909 0.79527 0.0
O214 O 0.84079 0.63816 0.85102 0.0
O215 O 0.82227 0.62369 0.81571 0.0
C216 C 0.81586 0.62536 0.83695 0.0
C217 C 0.85587 0.62877 0.7448 0.0
C218 C 0.8883 0.58823 0.81621 0.0
C219 C 0.92456 0.69786 0.79934 0.0
O220 O 0.91749 0.67503 0.78472 0.0
O221 O 0.90738 0.69153 0.81751 0.0
O222 O 0.88077 0.62363 0.7471 0.0
O223 O 0.8402 0.62898 0.76297 0.0
O224 O 0.40082 0.27321 0.83333 0.0
Cd225 Cd 0.36775 0.22354 0.82553 0.0
Cd226 Cd 0.38473 0.25171 0.78299 0.0
O227 O 0.42273 0.29391 0.79962 0.0
O228 O 0.36617 0.19872 0.85391 0.0
O229 O 0.38787 0.19365 0.82165 0.0
C230 C 0.38202 0.18655 0.84304 0.0
C231 C 0.38347 0.22449 0.74935 0.0
C232 C 0.42195 0.29745 0.82112 0.0
C233 C 0.31389 0.22522 0.79934 0.0
O234 O 0.33784 0.24472 0.78646 0.0
O235 O 0.31901 0.21101 0.81621 0.0
O236 O 0.38854 0.25476 0.74911 0.0
O237 O 0.38445 0.21185 0.76882 0.0
O238 O 0.7434 0.12516 0.83022 0.0
Cd239 Cd 0.7941 0.14364 0.825 0.0
Cd240 Cd 0.77452 0.14178 0.78059 0.0
O241 O 0.72956 0.13268 0.79558 0.0
O242 O 0.81955 0.17349 0.8512 0.0
O243 O 0.82154 0.19202 0.8161 0.0
C244 C 0.83024 0.19849 0.83725 0.0
C245 C 0.7979 0.16825 0.74609 0.0
C246 C 0.72165 0.12405 0.81632 0.0
C247 C 0.80048 0.0954 0.7963 0.0
O248 O 0.78532 0.10407 0.7823 0.0
O249 O 0.80877 0.10905 0.81583 0.0
O250 O 0.76912 0.14111 0.74685 0.0
O251 O 0.81101 0.18314 0.76513 0.0
O252 O 0.41106 0.13272 0.32971 0.0
Cd253 Cd 0.37708 0.14874 0.32374 0.0
Cd254 Cd 0.39179 0.14139 0.27972 0.0
O255 O 0.43082 0.13753 0.29484 0.0
O256 O 0.37991 0.1773 0.35031 0.0
O257 O 0.39533 0.1971 0.31536 0.0
C258 C 0.39291 0.20271 0.33665 0.0
C259 C 0.39071 0.16286 0.24392 0.0
C260 C 0.43157 0.13125 0.31592 0.0
C261 C 0.3221 0.09403 0.29828 0.0
O262 O 0.3451 0.10101 0.28384 0.0
O263 O 0.3281 0.11151 0.31628 0.0
O264 O 0.39637 0.13828 0.24614 0.0
O265 O 0.39026 0.17832 0.26216 0.0
O266 O 0.88512 0.27479 0.3243 0.0
Cd267 Cd 0.86684 0.22622 0.31251 0.0
Cd268 Cd 0.87522 0.25855 0.27364 0.0
O269 O 0.87775 0.29748 0.29333 0.0
O270 O 0.83996 0.19615 0.33826 0.0
O271 O 0.81736 0.19966 0.30585 0.0
C272 C 0.81339 0.18777 0.32626 0.0
C273 C 0.84876 0.23264 0.23994 0.0
C274 C 0.88547 0.29955 0.31436 0.0
C275 C 0.92095 0.23236 0.28262 0.0
O276 O 0.91758 0.25561 0.27378 0.0
O277 O 0.90103 0.21385 0.29819 0.0
O278 O 0.8706 0.26433 0.24044 0.0
O279 O 0.83791 0.2172 0.25915 0.0
O280 O 0.73835 0.61151 0.33165 0.0
Cd281 Cd 0.78863 0.64487 0.32603 0.0
Cd282 Cd 0.76654 0.631 0.28183 0.0
O283 O 0.72378 0.5917 0.29674 0.0
O284 O 0.81403 0.64053 0.3523 0.0
O285 O 0.81765 0.62567 0.31702 0.0
C286 C 0.82573 0.6273 0.33827 0.0
C287 C 0.78855 0.63306 0.24575 0.0
C288 C 0.7165 0.591 0.31775 0.0
C289 C 0.78997 0.70061 0.30099 0.0
O290 O 0.77326 0.67773 0.28659 0.0
O291 O 0.80156 0.6943 0.3188 0.0
O292 O 0.75829 0.62719 0.2483 0.0
O293 O 0.80469 0.63299 0.26373 0.0
O294 O 0.47201 0.06402 0.88002 0.0
Cd295 Cd 0.48833 0.03144 0.88983 0.0
Cd296 Cd 0.4765 0.04972 0.93141 0.0
O297 O 0.47222 0.08641 0.91333 0.0
O298 O 0.51798 0.03223 0.86458 0.0
O299 O 0.53665 0.05159 0.89919 0.0
C300 C 0.543 0.04729 0.87842 0.0
C301 C 0.49854 0.05175 0.96738 0.0
C302 C 0.46828 0.08513 0.8918 0.0
C303 C 0.43217 0.97813 0.91576 0.0
O304 O 0.437 1.00241 0.92845 0.0
O305 O 0.45133 0.9828 0.89886 0.0
O306 O 0.4738 0.05709 0.96462 0.0
O307 O 0.51393 0.05023 0.94941 0.0
O308 O 0.95065 0.39919 0.88484 0.0
Cd309 Cd 0.98381 0.44981 0.88959 0.0
Cd310 Cd 0.97099 0.42985 0.93363 0.0
O311 O 0.93232 0.38528 0.92011 0.0
O312 O 0.97836 0.47448 0.86337 0.0
O313 O 0.96471 0.47879 0.89885 0.0
C314 C 0.96564 0.48647 0.87759 0.0
C315 C 0.97339 0.45656 0.96775 0.0
C316 C 0.93107 0.37744 0.89916 0.0
C317 C 0.04059 0.45349 0.91437 0.0
O318 O 0.01816 0.43775 0.9292 0.0
O319 O 0.03358 0.4635 0.8961 0.0
O320 O 0.96977 0.42691 0.9675 0.0
O321 O 0.97041 0.46882 0.94867 0.0
O322 O 0.6163 0.55106 0.88531 0.0
Cd323 Cd 0.56582 0.5345 0.89002 0.0
Cd324 Cd 0.58474 0.53294 0.93423 0.0
O325 O 0.62837 0.53873 0.91911 0.0
O326 O 0.54235 0.51283 0.86082 0.0
O327 O 0.53531 0.48451 0.89271 0.0
C328 C 0.52914 0.48428 0.87121 0.0
C329 C 0.55822 0.5059 0.96787 0.0
C330 C 0.63701 0.54915 0.89874 0.0
C331 C 0.56438 0.584 0.92085 0.0
O332 O 0.5796 0.5742 0.93393 0.0
O333 O 0.55362 0.57011 0.90157 0.0
O334 O 0.5886 0.53071 0.96791 0.0
O335 O 0.54485 0.49295 0.94841 0.0
O336 O 0.6199 0.88647 0.72184 0.0
Cd337 Cd 0.64865 0.86597 0.73354 0.0
Cd338 Cd 0.63126 0.88361 0.7715 0.0
O339 O 0.59271 0.8837 0.75344 0.0
O340 O 0.64929 0.83679 0.70832 0.0
O341 O 0.62299 0.81677 0.74103 0.0
C342 C 0.63027 0.81117 0.72088 0.0
C343 C 0.63577 0.85821 0.80423 0.0
C344 C 0.59688 0.88906 0.73209 0.0
C345 C 0.70115 0.92199 0.76009 0.0
O346 O 0.67647 0.92488 0.76647 0.0
O347 O 0.69632 0.8969 0.74811 0.0
O348 O 0.62834 0.88182 0.80543 0.0
O349 O 0.63532 0.84569 0.78442 0.0
O350 O 0.13675 0.74188 0.71461 0.0
Cd351 Cd 0.15296 0.79082 0.72428 0.0
Cd352 Cd 0.1426 0.76161 0.76581 0.0
O353 O 0.13792 0.72031 0.74796 0.0
O354 O 0.18246 0.81958 0.69893 0.0
O355 O 0.20133 0.81923 0.73353 0.0
C356 C 0.20756 0.82968 0.71271 0.0
C357 C 0.16607 0.78288 0.80127 0.0
C358 C 0.1334 0.71727 0.72648 0.0
C359 C 0.09702 0.78753 0.75068 0.0
O360 O 0.1026 0.76866 0.76341 0.0
O361 O 0.11569 0.80194 0.73354 0.0
O362 O 0.14141 0.7526 0.79909 0.0
O363 O 0.18059 0.79932 0.78296 0.0
O364 O 0.27548 0.3956 0.71399 0.0
Cd365 Cd 0.22598 0.36223 0.7219 0.0
Cd366 Cd 0.25415 0.38063 0.76522 0.0
O367 O 0.29553 0.41798 0.74773 0.0
O368 O 0.20051 0.35989 0.69367 0.0
O369 O 0.19558 0.38166 0.72597 0.0
C370 C 0.18806 0.37542 0.70465 0.0
C371 C 0.23393 0.38225 0.8013 0.0
C372 C 0.2994 0.41699 0.7263 0.0
C373 C 0.22786 0.30921 0.74908 0.0
O374 O 0.24653 0.33337 0.76212 0.0
O375 O 0.21423 0.31393 0.7317 0.0
O376 O 0.26398 0.38754 0.79852 0.0
O377 O 0.21707 0.38085 0.78332 0.0
O378 O 0.56239 0.95373 0.163 0.0
Cd379 Cd 0.54332 0.98528 0.15709 0.0
Cd380 Cd 0.54639 0.96714 0.11302 0.0
O381 O 0.5533 0.93051 0.12891 0.0
O382 O 0.51436 0.98152 0.18365 0.0
O383 O 0.49453 0.96345 0.14898 0.0
C384 C 0.48884 0.96629 0.1702 0.0
C385 C 0.52354 0.96443 0.07708 0.0
C386 C 0.56257 0.93212 0.14956 0.0
C387 C 0.59267 0.03929 0.12845 0.0
O388 O 0.58525 0.01507 0.11497 0.0
O389 O 0.57746 0.03445 0.14734 0.0
O390 O 0.54901 0.9603 0.0797 0.0
O391 O 0.50797 0.96523 0.09515 0.0
O392 O 0.07872 0.61482 0.16165 0.0
Cd393 Cd 0.04475 0.56481 0.15494 0.0
Cd394 Cd 0.06736 0.58594 0.11266 0.0
O395 O 0.10555 0.62811 0.12876 0.0
O396 O 0.04453 0.53744 0.1817 0.0
O397 O 0.06449 0.53567 0.14778 0.0
C398 C 0.05962 0.52632 0.16884 0.0
C399 C 0.06743 0.55757 0.08005 0.0
C400 C 0.1026 0.63587 0.14914 0.0
C401 C 0.99599 0.5667 0.12373 0.0
O402 O 0.02209 0.58327 0.11178 0.0
O403 O 0.99752 0.55365 0.14249 0.0
O404 O 0.07492 0.58858 0.07918 0.0
O405 O 0.06555 0.54454 0.09986 0.0
O406 O 0.40625 0.46309 0.16719 0.0
Cd407 Cd 0.45679 0.47977 0.16321 0.0
Cd408 Cd 0.43655 0.47346 0.11794 0.0
O409 O 0.39242 0.46815 0.13196 0.0
O410 O 0.47862 0.50291 0.1924 0.0
O411 O 0.4877 0.52962 0.15959 0.0
C412 C 0.49265 0.5309 0.18132 0.0
C413 C 0.46238 0.49731 0.08336 0.0
C414 C 0.38466 0.46152 0.15294 0.0
C415 C 0.4594 0.42662 0.13705 0.0
O416 O 0.44401 0.43388 0.12228 0.0
O417 O 0.46955 0.44332 0.15546 0.0
O418 O 0.43272 0.4713 0.08403 0.0
O419 O 0.47529 0.51269 0.10231 0.0
O420 O 0.05962 0.45944 0.66972 0.0
Cd421 Cd 0.02768 0.4772 0.66147 0.0
Cd422 Cd 0.04653 0.46831 0.61914 0.0
O423 O 0.08303 0.4625 0.6363 0.0
O424 O 0.02611 0.50104 0.6895 0.0
O425 O 0.04931 0.52729 0.65731 0.0
C426 C 0.04305 0.52893 0.67858 0.0
C427 C 0.04859 0.49533 0.58528 0.0
C428 C 0.08116 0.45685 0.65766 0.0
C429 C 0.97455 0.42377 0.63358 0.0
O430 O 0.99901 0.4289 0.62102 0.0
O431 O 0.97911 0.44193 0.65104 0.0
O432 O 0.05258 0.46949 0.58549 0.0
O433 O 0.04868 0.50887 0.6046 0.0
O434 O 0.5565 0.61358 0.66919 0.0
Cd435 Cd 0.53973 0.56327 0.66359 0.0
Cd436 Cd 0.54457 0.58514 0.61905 0.0
O437 O 0.54938 0.62804 0.63466 0.0
O438 O 0.51627 0.53934 0.69216 0.0
O439 O 0.48996 0.53285 0.65942 0.0
C440 C 0.48842 0.52628 0.68093 0.0
C441 C 0.52233 0.56372 0.58318 0.0
C442 C 0.55702 0.63534 0.65557 0.0
C443 C 0.5923 0.56216 0.63576 0.0
O444 O 0.58482 0.57843 0.62187 0.0
O445 O 0.57588 0.55084 0.65416 0.0
O446 O 0.54712 0.59382 0.58562 0.0
O447 O 0.50706 0.54738 0.60134 0.0
O448 O 0.40729 0.9521 0.66313 0.0
Cd449 Cd 0.45812 0.9843 0.65772 0.0
Cd450 Cd 0.43673 0.96454 0.61364 0.0
O451 O 0.39385 0.92711 0.62957 0.0
O452 O 0.48091 0.98601 0.68714 0.0
O453 O 0.4875 0.96334 0.6558 0.0
C454 C 0.49353 0.96977 0.67727 0.0
C455 C 0.4593 0.96335 0.57838 0.0
C456 C 0.38589 0.9295 0.65 0.0
C457 C 0.46054 0.03627 0.62737 0.0
O458 O 0.44275 0.01126 0.61473 0.0
O459 O 0.47257 0.03261 0.64595 0.0
O460 O 0.42872 0.95678 0.58023 0.0
O461 O 0.47543 0.96543 0.59688 0.0
O462 O 0.13532 0.40497 0.22298 0.0
Cd463 Cd 0.15334 0.37264 0.22942 0.0
Cd464 Cd 0.14732 0.38963 0.27353 0.0
O465 O 0.14122 0.42675 0.25735 0.0
O466 O 0.18233 0.37552 0.20305 0.0
O467 O 0.20196 0.39312 0.23779 0.0
C468 C 0.20774 0.38993 0.21666 0.0
C469 C 0.16938 0.39089 0.30958 0.0
C470 C 0.13378 0.42594 0.23633 0.0
C471 C 0.10171 0.31812 0.25697 0.0
O472 O 0.10836 0.3419 0.27067 0.0
O473 O 0.11811 0.32351 0.23853 0.0
O474 O 0.14422 0.39556 0.30698 0.0
O475 O 0.18515 0.39045 0.29151 0.0
O476 O 0.62112 0.74344 0.21623 0.0
Cd477 Cd 0.65488 0.79258 0.22493 0.0
Cd478 Cd 0.63626 0.76491 0.26662 0.0
O479 O 0.59848 0.72302 0.24981 0.0
O480 O 0.65424 0.82079 0.19914 0.0
O481 O 0.63586 0.82185 0.23376 0.0
C482 C 0.63988 0.83171 0.21282 0.0
C483 C 0.63645 0.79202 0.29993 0.0
C484 C 0.59955 0.71937 0.22836 0.0
C485 C 0.70741 0.78943 0.25144 0.0
O486 O 0.68293 0.77099 0.26429 0.0
O487 O 0.70323 0.80352 0.2341 0.0
O488 O 0.63111 0.76166 0.30036 0.0
O489 O 0.63633 0.80483 0.28037 0.0
O490 O 0.29023 0.88365 0.22212 0.0
Cd491 Cd 0.23987 0.86591 0.22805 0.0
Cd492 Cd 0.2627 0.8749 0.2721 0.0
O493 O 0.30606 0.88004 0.25699 0.0
O494 O 0.21508 0.83709 0.20133 0.0
O495 O 0.21061 0.81728 0.23629 0.0
C496 C 0.20296 0.81164 0.21494 0.0
C497 C 0.24107 0.85402 0.30814 0.0
C498 C 0.31276 0.88623 0.23588 0.0
C499 C 0.23769 0.9199 0.25305 0.0
O500 O 0.25453 0.91403 0.26751 0.0
O501 O 0.22646 0.902 0.2352 0.0
O502 O 0.27092 0.87921 0.30564 0.0
O503 O 0.22524 0.8377 0.29009 0.0
H504 H 0.33817 0.15972 0.14421 0.0
H505 H 0.28684 0.20392 0.17857 0.0
H506 H 0.31296 0.2029 0.21457 0.0
H507 H 0.35137 0.19051 0.23622 0.0
H508 H 0.40261 0.14629 0.2018 0.0
H509 H 0.37632 0.14713 0.16585 0.0
C510 C 0.33214 0.16849 0.15966 0.0
C511 C 0.31018 0.18146 0.15871 0.0
C512 C 0.348 0.1687 0.18021 0.0
C513 C 0.30333 0.19345 0.17884 0.0
C514 C 0.31854 0.1932 0.1994 0.0
C515 C 0.3573 0.18168 0.22076 0.0
C516 C 0.37934 0.16881 0.22166 0.0
C517 C 0.34134 0.18137 0.20023 0.0
C518 C 0.38606 0.15668 0.20155 0.0
C519 C 0.37076 0.15684 0.18102 0.0
H520 H 0.8496 0.17795 0.14155 0.0
H521 H 0.8192 0.08702 0.17957 0.0
H522 H 0.81905 0.11546 0.2147 0.0
H523 H 0.82729 0.16614 0.23464 0.0
H524 H 0.85768 0.25707 0.19659 0.0
H525 H 0.85715 0.22842 0.16142 0.0
C526 C 0.84357 0.16452 0.15759 0.0
C527 C 0.83501 0.13051 0.15795 0.0
C528 C 0.84265 0.18081 0.17765 0.0
C529 C 0.82634 0.11329 0.17883 0.0
C530 C 0.82593 0.12947 0.1989 0.0
C531 C 0.83309 0.17952 0.21859 0.0
C532 C 0.84207 0.21366 0.21827 0.0
C533 C 0.83366 0.16312 0.19849 0.0
C534 C 0.85029 0.23073 0.19733 0.0
C535 C 0.85034 0.21444 0.17723 0.0
H536 H 0.8548 0.6762 0.23862 0.0
H537 H 0.76032 0.62024 0.20347 0.0
H538 H 0.78694 0.64838 0.1678 0.0
H539 H 0.83707 0.68935 0.14664 0.0
H540 H 0.93133 0.74585 0.18204 0.0
H541 H 0.90461 0.71787 0.21765 0.0
C542 C 0.8402 0.66966 0.22305 0.0
C543 C 0.80575 0.64566 0.22362 0.0
C544 C 0.85544 0.68677 0.20277 0.0
C545 C 0.78698 0.63824 0.20342 0.0
C546 C 0.80211 0.6546 0.18307 0.0
C547 C 0.85161 0.6961 0.16224 0.0
C548 C 0.88612 0.72 0.16169 0.0
C549 C 0.83624 0.67924 0.18259 0.0
C550 C 0.90469 0.72784 0.18201 0.0
C551 C 0.8895 0.71156 0.20234 0.0
H552 H 0.16549 0.33968 0.40983 0.0
H553 H 0.21017 0.28813 0.37639 0.0
H554 H 0.20973 0.31406 0.34019 0.0
H555 H 0.19746 0.35213 0.31803 0.0
H556 H 0.15251 0.40343 0.35143 0.0
H557 H 0.15313 0.37766 0.38767 0.0
C558 C 0.17451 0.33358 0.39454 0.0
C559 C 0.18742 0.31157 0.39582 0.0
C560 C 0.175 0.3493 0.37385 0.0
C561 C 0.19974 0.30464 0.37588 0.0
C562 C 0.19982 0.31975 0.3552 0.0
C563 C 0.18845 0.35823 0.33334 0.0
C564 C 0.17544 0.38014 0.33206 0.0
C565 C 0.18797 0.3425 0.35403 0.0
C566 C 0.16305 0.38702 0.35197 0.0
C567 C 0.16307 0.372 0.37267 0.0
H568 H 0.66044 0.77975 0.33881 0.0
H569 H 0.64204 0.85344 0.30681 0.0
H570 H 0.6704 0.89237 0.33826 0.0
H571 H 0.70095 0.9057 0.37456 0.0
H572 H 0.7192 0.83196 0.40664 0.0
H573 H 0.69125 0.79319 0.37504 0.0
C574 C 0.66208 0.8041 0.33888 0.0
C575 C 0.64867 0.81345 0.32057 0.0
C576 C 0.6792 0.82668 0.35672 0.0
C577 C 0.65174 0.84542 0.32077 0.0
C578 C 0.66827 0.86782 0.33865 0.0
C579 C 0.69944 0.88141 0.37446 0.0
C580 C 0.71262 0.87196 0.39285 0.0
C581 C 0.68247 0.85888 0.35656 0.0
C582 C 0.70969 0.84006 0.39261 0.0
C583 C 0.69337 0.81773 0.37465 0.0
H584 H 0.1913 0.85908 0.40737 0.0
H585 H 0.09601 0.81418 0.37256 0.0
H586 H 0.12333 0.81428 0.33692 0.0
H587 H 0.17416 0.82617 0.31567 0.0
H588 H 0.26958 0.87161 0.35026 0.0
H589 H 0.24228 0.87138 0.38601 0.0
C590 C 0.17662 0.84995 0.39189 0.0
C591 C 0.14168 0.83702 0.39261 0.0
C592 C 0.1924 0.84931 0.37151 0.0
C593 C 0.12297 0.82459 0.37246 0.0
C594 C 0.13853 0.82432 0.3521 0.0
C595 C 0.18888 0.83538 0.33113 0.0
C596 C 0.22381 0.84838 0.33036 0.0
C597 C 0.17314 0.83613 0.35148 0.0
C598 C 0.24261 0.86106 0.35044 0.0
C599 C 0.22706 0.86126 0.37085 0.0
H600 H 0.65861 0.89312 0.84399 0.0
H601 H 0.64718 0.8057 0.80871 0.0
H602 H 0.67891 0.79694 0.83858 0.0
H603 H 0.71054 0.81437 0.87434 0.0
H604 H 0.72102 0.90074 0.91044 0.0
H605 H 0.68979 0.91017 0.88031 0.0
C606 C 0.66251 0.87178 0.84303 0.0
C607 C 0.65012 0.84986 0.82418 0.0
C608 C 0.68137 0.86722 0.86012 0.0
C609 C 0.65607 0.82276 0.82307 0.0
C610 C 0.67451 0.81791 0.84006 0.0
C611 C 0.7066 0.83568 0.87545 0.0
C612 C 0.7187 0.85721 0.89447 0.0
C613 C 0.68766 0.84022 0.85849 0.0
C614 C 0.71246 0.8841 0.89586 0.0
C615 C 0.69429 0.88928 0.87874 0.0
H616 H 0.16459 0.83155 0.90144 0.0
H617 H 0.21127 0.92771 0.86775 0.0
H618 H 0.2097 0.90075 0.83157 0.0
H619 H 0.19579 0.84992 0.80954 0.0
H620 H 0.1493 0.75375 0.84324 0.0
H621 H 0.15097 0.78072 0.87943 0.0
C622 C 0.17379 0.84652 0.88609 0.0
C623 C 0.18755 0.88156 0.88725 0.0
C624 C 0.1737 0.83094 0.86544 0.0
C625 C 0.20017 0.90067 0.86729 0.0
C626 C 0.1996 0.8853 0.84663 0.0
C627 C 0.18666 0.83493 0.82489 0.0
C628 C 0.17284 0.79987 0.8237 0.0
C629 C 0.18686 0.85051 0.84555 0.0
C630 C 0.16041 0.78079 0.8437 0.0
C631 C 0.16103 0.79617 0.86437 0.0
H632 H 0.18873 0.33361 0.90227 0.0
H633 H 0.09149 0.28342 0.87002 0.0
H634 H 0.11719 0.30811 0.83343 0.0
H635 H 0.16722 0.34476 0.81061 0.0
H636 H 0.2645 0.39497 0.84281 0.0
H637 H 0.23881 0.37028 0.87941 0.0
C638 C 0.17324 0.32753 0.88714 0.0
C639 C 0.13825 0.30628 0.88886 0.0
C640 C 0.18812 0.34258 0.86623 0.0
C641 C 0.1185 0.29937 0.86916 0.0
C642 C 0.13315 0.31376 0.84825 0.0
C643 C 0.18273 0.35084 0.82572 0.0
C644 C 0.21772 0.3721 0.82399 0.0
C645 C 0.16787 0.3358 0.84663 0.0
C646 C 0.23749 0.37902 0.84368 0.0
C647 C 0.22284 0.36463 0.8646 0.0
H648 H 0.85988 0.6823 0.6454 0.0
H649 H 0.81368 0.73176 0.67965 0.0
H650 H 0.81449 0.70531 0.71554 0.0
H651 H 0.82727 0.66717 0.73708 0.0
H652 H 0.87335 0.61762 0.70277 0.0
H653 H 0.87274 0.64424 0.66693 0.0
C654 C 0.85066 0.68786 0.66081 0.0
C655 C 0.83719 0.70938 0.6599 0.0
C656 C 0.85028 0.67176 0.68127 0.0
C657 C 0.82455 0.71562 0.67994 0.0
C658 C 0.82467 0.70021 0.70042 0.0
C659 C 0.83655 0.66166 0.72167 0.0
C660 C 0.8499 0.64004 0.72255 0.0
C661 C 0.83698 0.67781 0.70122 0.0
C662 C 0.86258 0.63385 0.70251 0.0
C663 C 0.86256 0.64935 0.68205 0.0
H664 H 0.36172 0.23803 0.70974 0.0
H665 H 0.37516 0.16185 0.74287 0.0
H666 H 0.34646 0.12324 0.71136 0.0
H667 H 0.31668 0.11069 0.67476 0.0
H668 H 0.30381 0.18695 0.64128 0.0
H669 H 0.33237 0.22563 0.67287 0.0
C670 C 0.3589 0.21318 0.70993 0.0
C671 C 0.37098 0.20305 0.72864 0.0
C672 C 0.3417 0.19081 0.69195 0.0
C673 C 0.36648 0.17049 0.72867 0.0
C674 C 0.34976 0.14826 0.71073 0.0
C675 C 0.31952 0.13556 0.67453 0.0
C676 C 0.30753 0.14566 0.65579 0.0
C677 C 0.33685 0.15798 0.69244 0.0
C678 C 0.31232 0.17832 0.65559 0.0
C679 C 0.32896 0.20057 0.67356 0.0
H680 H 0.90559 0.2217 0.6673 0.0
H681 H 0.83277 0.12756 0.637 0.0
H682 H 0.79604 0.11543 0.66999 0.0
H683 H 0.7843 0.1319 0.70711 0.0
H684 H 0.85706 0.2261 0.73739 0.0
H685 H 0.89374 0.23828 0.70438 0.0
C686 C 0.88194 0.19823 0.66804 0.0
C687 C 0.87218 0.17534 0.64977 0.0
C688 C 0.86058 0.19183 0.6868 0.0
C689 C 0.84109 0.14543 0.65089 0.0
C690 C 0.81994 0.13863 0.66967 0.0
C691 C 0.80793 0.15539 0.70637 0.0
C692 C 0.8177 0.17824 0.72467 0.0
C693 C 0.82925 0.16184 0.68758 0.0
C694 C 0.84872 0.20823 0.7235 0.0
C695 C 0.86985 0.21506 0.70471 0.0
H696 H 0.9899 0.5464 0.50784 0.0
H697 H 0.97289 0.45457 0.47612 0.0
H698 H 0.99912 0.44335 0.5086 0.0
H699 H 0.02727 0.45985 0.54582 0.0
H700 H 0.04422 0.5517 0.57749 0.0
H701 H 0.01843 0.56312 0.54488 0.0
C702 C 0.99144 0.52364 0.50814 0.0
C703 C 0.97899 0.50112 0.48962 0.0
C704 C 1.00726 0.51776 0.52662 0.0
C705 C 0.98187 0.47213 0.4902 0.0
C706 C 0.99715 0.46586 0.50869 0.0
C707 C 0.02589 0.4827 0.54545 0.0
C708 C 0.03807 0.50509 0.56405 0.0
C709 C 1.01026 0.48868 0.52688 0.0
C710 C 0.03541 0.53421 0.56337 0.0
C711 C 0.02036 0.54059 0.5448 0.0
H712 H 0.5264 0.5164 0.48306 0.0
H713 H 0.47872 0.41973 0.51607 0.0
H714 H 0.47937 0.44615 0.55231 0.0
H715 H 0.49279 0.49673 0.57458 0.0
H716 H 0.54016 0.59334 0.54145 0.0
H717 H 0.53944 0.56688 0.50525 0.0
C718 C 0.51678 0.5012 0.49828 0.0
C719 C 0.50301 0.46618 0.49691 0.0
C720 C 0.51633 0.51647 0.51894 0.0
C721 C 0.48983 0.44677 0.5167 0.0
C722 C 0.48988 0.46183 0.53739 0.0
C723 C 0.50232 0.51191 0.55935 0.0
C724 C 0.51612 0.54695 0.5607 0.0
C725 C 0.50264 0.49661 0.53866 0.0
C726 C 0.52907 0.5663 0.54086 0.0
C727 C 0.52899 0.55122 0.52018 0.0
H728 H 0.50757 0.01658 0.47878 0.0
H729 H 0.60187 0.07481 0.51378 0.0
H730 H 0.57548 0.04752 0.54969 0.0
H731 H 0.52571 1.00639 0.5711 0.0
H732 H 0.43148 0.94816 0.53602 0.0
H733 H 0.45793 0.97535 0.50012 0.0
C734 C 0.52218 0.02384 0.49435 0.0
C735 C 0.55655 0.04817 0.49364 0.0
C736 C 0.50706 1.00728 0.51483 0.0
C737 C 0.57529 0.05654 0.5139 0.0
C738 C 0.56029 0.04065 0.5344 0.0
C739 C 0.51115 0.9991 0.55551 0.0
C740 C 0.47675 0.97485 0.5562 0.0
C741 C 0.52631 0.01561 0.53502 0.0
C742 C 0.45807 0.9664 0.53592 0.0
C743 C 0.4731 0.98223 0.51542 0.0
H744 H 0.52667 0.0133 0.97641 0.0
H745 H 0.48138 0.06489 1.00899 0.0
H746 H 0.48201 0.03973 0.0455 0.0
H747 H 0.49476 1.00239 0.06814 0.0
H748 H 0.54001 0.95083 0.03548 0.0
H749 H 0.53914 0.97581 0.99897 0.0
C750 C 0.51757 0.01959 0.99159 0.0
C751 C 0.50447 0.04139 0.99001 0.0
C752 C 0.51711 1.00425 1.01241 0.0
C753 C 0.49198 0.04854 1.00977 0.0
C754 C 0.49201 0.03386 0.03062 0.0
C755 C 0.50374 0.99604 0.05294 0.0
C756 C 0.51698 0.97435 0.0545 0.0
C757 C 0.50407 0.0113 0.03209 0.0
C758 C 0.52932 0.96711 0.03471 0.0
C759 C 0.52917 0.98168 1.01387 0.0
H760 H 0.99773 0.44344 1.0062 0.0
H761 H 0.98099 0.51876 0.97499 0.0
H762 H 1.01144 0.55764 1.00602 0.0
H763 H 0.0436 0.57059 0.04156 0.0
H764 H 0.05957 0.49513 0.07323 0.0
H765 H 0.02945 0.45624 0.04204 0.0
C766 C 1.00021 0.46816 1.00634 0.0
C767 C 0.98674 0.47801 0.98833 0.0
C768 C 0.0184 0.49066 1.02399 0.0
C769 C 0.99076 0.51036 0.98869 0.0
C770 C 1.00848 0.53274 1.00632 0.0
C771 C 0.0411 0.54586 0.04145 0.0
C772 C 0.05437 0.53599 0.05955 0.0
C773 C 0.02282 0.52332 1.02387 0.0
C774 C 0.05005 0.50352 0.05938 0.0
C775 C 0.03252 0.48118 0.04166 0.0
H776 H 0.57259 0.54279 1.00655 0.0
H777 H 0.49642 0.45076 0.97581 0.0
H778 H 0.45915 0.44131 1.00813 0.0
H779 H 0.4479 0.45977 0.04476 0.0
H780 H 0.52399 0.55227 0.07512 0.0
H781 H 0.56126 0.5614 0.04294 0.0
C782 C 0.54806 0.52032 1.00706 0.0
C783 C 0.53754 0.49724 0.98887 0.0
C784 C 0.52644 0.51558 0.02536 0.0
C785 C 0.50534 0.4687 0.98966 0.0
C786 C 0.4839 0.46347 1.00805 0.0
C787 C 0.47244 0.48223 0.04421 0.0
C788 C 0.48295 0.50549 0.06231 0.0
C789 C 0.49403 0.48697 0.02585 0.0
C790 C 0.51507 0.53412 0.06139 0.0
C791 C 0.53653 0.5392 0.04307 0.0
H792 H 0.23827 0.99117 0.02609 0.0
H793 H 0.24627 0.02751 0.95736 0.0
H794 H 0.27181 0.08512 0.97152 0.0
H795 H 0.29284 0.12536 1.00341 0.0
H796 H 0.28312 0.08862 0.07213 0.0
H797 H 0.25765 0.03104 0.05793 0.0
C798 C 0.24541 0.01162 1.01415 0.0
C799 C 0.24033 1.00485 0.99063 0.0
C800 C 0.26013 0.0447 1.02241 0.0
C801 C 0.2497 0.03182 0.97552 0.0
C802 C 0.2645 0.06484 0.98362 0.0
C803 C 0.28539 0.10478 1.01528 0.0
C804 C 0.29022 0.11137 0.03882 0.0
C805 C 0.27012 0.07162 1.00701 0.0
C806 C 0.27986 0.08432 0.05395 0.0
C807 C 0.26521 0.05136 0.04584 0.0
H808 H 0.03157 0.24757 0.02885 0.0
H809 H 0.99358 0.22355 0.96018 0.0
H810 H 0.93625 0.19099 0.97477 0.0
H811 H 0.8967 0.17025 1.0071 0.0
H812 H 0.93524 0.19237 0.07566 0.0
H813 H 0.99249 0.22502 0.06103 0.0
C814 C 1.01081 0.2351 1.01702 0.0
C815 C 0.017 0.23817 0.9934 0.0
C816 C 0.97792 0.21632 0.02553 0.0
C817 C 0.98968 0.22156 0.97842 0.0
C818 C 0.95683 0.20308 0.98676 0.0
C819 C 0.91763 0.18242 1.01883 0.0
C820 C 0.91165 0.17919 0.04247 0.0
C821 C 0.95061 0.20054 1.01028 0.0
C822 C 0.9391 0.19458 0.05743 0.0
C823 C 0.97186 0.2132 0.04906 0.0
H824 H 0.86249 0.74135 1.00466 0.0
H825 H 0.82474 0.74019 0.07199 0.0
H826 H 0.79153 0.76403 0.05714 0.0
H827 H 0.77303 0.78508 1.02507 0.0
H828 H 0.81274 0.78901 0.95794 0.0
H829 H 0.84565 0.7647 0.97269 0.0
C830 C 0.8468 0.7461 1.01604 0.0
C831 C 0.84582 0.73861 0.03939 0.0
C832 C 0.82836 0.76064 1.00745 0.0
C833 C 0.82586 0.74555 0.05397 0.0
C834 C 0.8069 0.75926 0.04548 0.0
C835 C 0.78899 0.78078 1.01363 0.0
C836 C 0.79026 0.78884 0.99036 0.0
C837 C 0.80799 0.76696 1.02226 0.0
C838 C 0.81133 0.78326 0.97591 0.0
C839 C 0.83003 0.76915 0.98433 0.0
H840 H 0.02618 0.25896 0.5757 0.0
H841 H 0.97576 0.21424 0.51254 0.0
H842 H 0.02965 0.23671 0.49321 0.0
H843 H 0.09119 0.27005 0.49386 0.0
H844 H 0.14199 0.31634 0.55662 0.0
H845 H 0.08816 0.29273 0.57627 0.0
C846 C 0.02706 0.25381 0.55778 0.0
C847 C 0.99694 0.23477 0.54564 0.0
C848 C 0.05827 0.26752 0.54656 0.0
C849 C 0.99853 0.2288 0.52232 0.0
C850 C 0.02936 0.24174 0.5112 0.0
C851 C 0.09052 0.27518 0.5118 0.0
C852 C 0.1207 0.2951 0.52366 0.0
C853 C 0.05941 0.26143 0.52307 0.0
C854 C 0.11922 0.30126 0.54697 0.0
C855 C 0.08839 0.28761 0.55829 0.0
H856 H 0.78471 0.76668 0.52131 0.0
H857 H 0.77624 0.79448 0.5901 0.0
H858 H 0.74956 0.82549 0.57607 0.0
H859 H 0.72751 0.84381 0.54426 0.0
H860 H 0.73792 0.81753 0.4755 0.0
H861 H 0.76457 0.78651 0.48956 0.0
C862 C 0.77723 0.77966 0.53328 0.0
C863 C 0.78249 0.77812 0.55678 0.0
C864 C 0.76187 0.79743 0.5251 0.0
C865 C 0.7727 0.7953 0.57194 0.0
C866 C 0.75723 0.81289 0.56393 0.0
C867 C 0.73538 0.83106 0.53238 0.0
C868 C 0.73039 0.83268 0.50886 0.0
C869 C 0.75138 0.81386 0.54057 0.0
C870 C 0.7413 0.81655 0.49367 0.0
C871 C 0.75663 0.79888 0.5017 0.0
H872 H 0.22927 0.98771 0.58147 0.0
H873 H 0.25377 0.042 0.51802 0.0
H874 H 0.22355 0.98936 0.49701 0.0
H875 H 0.19085 0.92766 0.49639 0.0
H876 H 0.16791 0.87294 0.55963 0.0
H877 H 0.19694 0.92563 0.58078 0.0
C878 C 0.22766 0.98799 0.56307 0.0
C879 C 0.24364 0.01885 0.55139 0.0
C880 C 0.2108 0.95742 0.55095 0.0
C881 C 0.24173 0.01867 0.52749 0.0
C882 C 0.2245 0.98853 0.51541 0.0
C883 C 0.19233 0.92721 0.51479 0.0
C884 C 0.17721 0.89623 0.52631 0.0
C885 C 0.20916 0.9577 0.52692 0.0
C886 C 0.17939 0.89631 0.55021 0.0
C887 C 0.1959 0.9265 0.56238 0.0
H888 H 0.75656 0.92879 0.9906 0.0
H889 H 0.7163 0.86967 0.05153 0.0
H890 H 0.73878 0.92079 0.0743 0.0
H891 H 0.76999 0.98265 0.0771 0.0
H892 H 0.80796 0.04165 1.01596 0.0
H893 H 0.78671 0.99049 0.99328 0.0
C894 C 0.75253 0.92706 1.00884 0.0
C895 C 0.73466 0.8953 1.01925 0.0
C896 C 0.76546 0.95667 1.02191 0.0
C897 C 0.72977 0.89368 0.04296 0.0
C898 C 0.74279 0.92297 0.05607 0.0
C899 C 0.77392 0.98428 0.05885 0.0
C900 C 0.79082 0.01599 0.04829 0.0
C901 C 0.76082 0.95464 0.04577 0.0
C902 C 0.79513 0.0176 1.02454 0.0
C903 C 0.78289 0.98832 1.01153 0.0
H904 H 0.13098 0.85771 0.0458 0.0
H905 H 0.09583 0.8199 0.97819 0.0
H906 H 0.03818 0.78804 0.99228 0.0
H907 H 0.99783 0.77044 1.02385 0.0
H908 H 0.03269 0.8099 0.09124 0.0
H909 H 0.09023 0.84192 0.07711 0.0
C910 C 0.11073 0.84233 0.03417 0.0
C911 C 0.1178 0.8409 1.011 0.0
C912 C 0.07752 0.82461 0.04231 0.0
C913 C 0.09115 0.82133 0.9961 0.0
C914 C 0.05815 0.80315 1.00415 0.0
C915 C 0.01794 0.78619 0.03547 0.0
C916 C 1.01079 0.7876 0.05864 0.0
C917 C 0.05103 0.8046 0.02722 0.0
C918 C 0.03729 0.80835 0.07334 0.0
C919 C 0.0703 0.82656 0.06528 0.0
H920 H 0.18811 0.26448 0.99449 0.0
H921 H 0.17552 0.30718 0.0565 0.0
H922 H 0.20494 0.28418 0.07785 0.0
H923 H 0.23505 0.25231 0.07896 0.0
H924 H 0.24874 0.21109 1.01663 0.0
H925 H 0.21784 0.23265 0.99558 0.0
C926 C 0.19192 0.26891 1.01266 0.0
C927 C 0.17968 0.2877 1.02379 0.0
C928 C 0.20886 0.25555 1.0249 0.0
C929 C 0.18477 0.29298 0.0474 0.0
C930 C 0.2015 0.27969 0.05968 0.0
C931 C 0.23088 0.2477 0.06083 0.0
C932 C 0.2441 0.22996 0.04944 0.0
C933 C 0.21363 0.26085 0.04864 0.0
C934 C 0.23888 0.22466 0.02586 0.0
C935 C 0.22128 0.23708 1.01375 0.0
H936 H 0.89407 0.73686 0.50321 0.0
H937 H 0.92613 0.7392 0.57252 0.0
H938 H 0.98433 0.76404 0.55986 0.0
H939 H 0.02603 0.78446 0.52918 0.0
H940 H 0.9945 0.78368 0.45989 0.0
H941 H 0.93631 0.75935 0.47254 0.0
C942 C 0.91377 0.74264 0.51554 0.0
C943 C 0.90565 0.73585 0.53878 0.0
C944 C 0.94734 0.75749 0.50817 0.0
C945 C 0.9316 0.74401 0.55454 0.0
C946 C 0.96493 0.75829 0.54731 0.0
C947 C 1.00652 0.77919 0.5168 0.0
C948 C 0.01479 0.78589 0.49355 0.0
C949 C 0.97309 0.76512 0.52418 0.0
C950 C 0.98903 0.77896 0.47787 0.0
C951 C 0.95566 0.76484 0.48509 0.0
H952 H 0.26119 0.23948 0.47674 0.0
H953 H 0.21053 0.24411 0.53716 0.0
H954 H 0.23155 0.21284 0.55841 0.0
H955 H 0.2656 0.18547 0.5603 0.0
H956 H 0.31824 0.18252 0.50041 0.0
H957 H 0.29562 0.21202 0.47872 0.0
C958 C 0.2544 0.2332 0.49446 0.0
C959 C 0.2341 0.24392 0.50528 0.0
C960 C 0.26737 0.21591 0.50683 0.0
C961 C 0.22605 0.23612 0.52839 0.0
C962 C 0.23817 0.21833 0.54061 0.0
C963 C 0.27228 0.19141 0.54254 0.0
C964 C 0.29374 0.18183 0.5321 0.0
C965 C 0.25918 0.20844 0.5301 0.0
C966 C 0.30195 0.1897 0.50899 0.0
C967 C 0.28888 0.20646 0.49649 0.0
H968 H 0.7815 0.02654 0.4678 0.0
H969 H 0.76578 0.97375 0.53131 0.0
H970 H 0.79519 0.027 0.55176 0.0
H971 H 0.8247 0.08872 0.55185 0.0
H972 H 0.83869 0.14168 0.48856 0.0
H973 H 0.81045 0.08849 0.46798 0.0
C974 C 0.78487 0.02675 0.48607 0.0
C975 C 0.77164 0.99617 0.49795 0.0
C976 C 0.80117 0.05757 0.49787 0.0
C977 C 0.77573 0.99689 0.52171 0.0
C978 C 0.79248 0.02736 0.53346 0.0
C979 C 0.82141 0.08865 0.53357 0.0
C980 C 0.83379 0.11928 0.52185 0.0
C981 C 0.80507 0.05788 0.52177 0.0
C982 C 0.82932 0.11857 0.49812 0.0
C983 C 0.81328 0.08811 0.48626 0.0
H984 H 0.93513 0.41883 0.38509 0.0
H985 H 0.97073 0.47743 0.32357 0.0
H986 H 0.94666 0.42611 0.30089 0.0
H987 H 0.9156 0.36413 0.29835 0.0
H988 H 0.88178 0.30585 0.36007 0.0
H989 H 0.90453 0.35718 0.38262 0.0
C990 C 0.93781 0.42041 0.36674 0.0
C991 C 0.95489 0.45209 0.35615 0.0
C992 C 0.92385 0.3907 0.35371 0.0
C993 C 0.95791 0.4535 0.33228 0.0
C994 C 0.94398 0.42409 0.31922 0.0
C995 C 0.91286 0.36271 0.31671 0.0
C996 C 0.89678 0.33111 0.32745 0.0
C997 C 0.92676 0.3925 0.32972 0.0
C998 C 0.89398 0.32978 0.35132 0.0
C999 C 0.90709 0.35917 0.36427 0.0
H1000 H 0.56142 0.49668 0.33758 0.0
H1001 H 0.59604 0.52639 0.40648 0.0
H1002 H 0.65378 0.55958 0.39292 0.0
H1003 H 0.69436 0.58063 0.36158 0.0
H1004 H 0.66023 0.55015 0.29264 0.0
H1005 H 0.60249 0.51644 0.3062 0.0
C1006 C 0.58158 0.51056 0.34962 0.0
C1007 C 0.57431 0.50926 0.37302 0.0
C1008 C 0.61486 0.52923 0.34172 0.0
C1009 C 0.60084 0.52703 0.3884 0.0
C1010 C 0.6339 0.54597 0.38065 0.0
C1011 C 0.67438 0.56649 0.34946 0.0
C1012 C 0.68179 0.56808 0.32606 0.0
C1013 C 0.64121 0.54725 0.35736 0.0
C1014 C 0.65542 0.54939 0.31073 0.0
C1015 C 0.62231 0.53022 0.31847 0.0
H1016 H 0.52301 0.06763 0.33728 0.0
H1017 H 0.49906 0.08082 0.40609 0.0
H1018 H 0.46671 0.10594 0.39188 0.0
H1019 H 0.44453 0.12342 0.36001 0.0
H1020 H 0.46962 0.11195 0.2911 0.0
H1021 H 0.5026 0.08741 0.30528 0.0
C1022 C 0.51056 0.07585 0.34916 0.0
C1023 C 0.51319 0.07201 0.37274 0.0
C1024 C 0.49244 0.09087 0.34086 0.0
C1025 C 0.49736 0.08332 0.38789 0.0
C1026 C 0.47889 0.09775 0.37976 0.0
C1027 C 0.45736 0.11577 0.34803 0.0
C1028 C 0.45443 0.1195 0.32446 0.0
C1029 C 0.47623 0.10163 0.3563 0.0
C1030 C 0.47146 0.10956 0.3093 0.0
C1031 C 0.49019 0.09531 0.31741 0.0
H1032 H 0.66082 0.56524 0.85542 0.0
H1033 H 0.69209 0.56088 0.92398 0.0
H1034 H 0.75016 0.58496 0.91106 0.0
H1035 H 0.79235 0.6083 0.88034 0.0
H1036 H 0.7604 0.61079 0.8117 0.0
H1037 H 0.70242 0.58671 0.82467 0.0
C1038 C 0.68025 0.56938 0.86758 0.0
C1039 C 0.67194 0.56126 0.8907 0.0
C1040 C 0.7136 0.58321 0.86003 0.0
C1041 C 0.6976 0.56672 0.9061 0.0
C1042 C 0.7309 0.58067 0.89873 0.0
C1043 C 0.77272 0.60376 0.86824 0.0
C1044 C 0.78082 0.61166 0.84508 0.0
C1045 C 0.73925 0.58928 0.87577 0.0
C1046 C 0.75496 0.60509 0.8296 0.0
C1047 C 0.72175 0.59125 0.83701 0.0
H1048 H 0.42026 0.16151 0.82595 0.0
H1049 H 0.37388 0.16858 0.88789 0.0
H1050 H 0.39826 0.14011 0.90881 0.0
H1051 H 0.43257 0.11262 0.9096 0.0
H1052 H 0.47753 0.10426 0.84739 0.0
H1053 H 0.45441 0.1341 0.82672 0.0
C1054 C 0.41529 0.15664 0.84399 0.0
C1055 C 0.39509 0.1671 0.85524 0.0
C1056 C 0.42951 0.1403 0.85601 0.0
C1057 C 0.38916 0.16071 0.8787 0.0
C1058 C 0.40325 0.14454 0.89075 0.0
C1059 C 0.43766 0.11774 0.89159 0.0
C1060 C 0.45694 0.10637 0.88012 0.0
C1061 C 0.42359 0.13431 0.87962 0.0
C1062 C 0.46282 0.11274 0.85667 0.0
C1063 C 0.44949 0.12972 0.84479 0.0
H1064 H 0.91964 0.35425 0.85561 0.0
H1065 H 0.89243 0.3213 0.92505 0.0
H1066 H 0.85958 0.26306 0.9121 0.0
H1067 H 0.83961 0.22127 0.88105 0.0
H1068 H 0.86623 0.25491 0.81168 0.0
H1069 H 0.89854 0.31302 0.82469 0.0
C1070 C 0.90641 0.33442 0.86797 0.0
C1071 C 0.90865 0.34231 0.89133 0.0
C1072 C 0.8877 0.301 0.86043 0.0
C1073 C 0.89114 0.31611 0.90699 0.0
C1074 C 0.87247 0.28273 0.8996 0.0
C1075 C 0.85264 0.2413 0.86878 0.0
C1076 C 0.8507 0.23364 0.84541 0.0
C1077 C 0.87082 0.27484 0.87637 0.0
C1078 C 0.86736 0.26 0.82975 0.0
C1079 C 0.8858 0.29329 0.83718 0.0
H1080 H 0.40559 0.22403 0.38072 0.0
H1081 H 0.4108 0.25959 0.31208 0.0
H1082 H 0.43453 0.31705 0.32611 0.0
H1083 H 0.45361 0.35717 0.35775 0.0
H1084 H 0.4497 0.32213 0.42643 0.0
H1085 H 0.42606 0.26461 0.41244 0.0
C1086 C 0.41172 0.24432 0.36883 0.0
C1087 C 0.40613 0.2374 0.34536 0.0
C1088 C 0.42587 0.27746 0.377 0.0
C1089 C 0.41469 0.26411 0.33021 0.0
C1090 C 0.42834 0.29702 0.33822 0.0
C1091 C 0.44777 0.33704 0.36972 0.0
C1092 C 0.45346 0.34414 0.39318 0.0
C1093 C 0.4341 0.304 0.36157 0.0
C1094 C 0.44575 0.31757 0.40831 0.0
C1095 C 0.43205 0.28458 0.40032 0.0
H1096 H 0.66029 0.09838 0.35302 0.0
H1097 H 0.70169 0.13176 0.42017 0.0
H1098 H 0.75811 0.1629 0.40408 0.0
H1099 H 0.79594 0.18035 0.37095 0.0
H1100 H 0.75432 0.14958 0.30365 0.0
H1101 H 0.69787 0.1175 0.31978 0.0
C1102 C 0.68161 0.11256 0.36416 0.0
C1103 C 0.67662 0.1126 0.38783 0.0
C1104 C 0.71405 0.13067 0.35476 0.0
C1105 C 0.70464 0.13135 0.40192 0.0
C1106 C 0.737 0.14905 0.39273 0.0
C1107 C 0.77453 0.16637 0.35983 0.0
C1108 C 0.77938 0.16702 0.33613 0.0
C1109 C 0.74204 0.14872 0.36919 0.0
C1110 C 0.7513 0.14935 0.32194 0.0
C1111 C 0.719 0.13107 0.33116 0.0
H1112 H 0.91722 0.5634 0.35671 0.0
H1113 H 0.88623 0.56459 0.42584 0.0
H1114 H 0.85291 0.58945 0.4129 0.0
H1115 H 0.83359 0.61209 0.38194 0.0
H1116 H 0.86401 0.60954 0.31288 0.0
H1117 H 0.89681 0.5843 0.32589 0.0
C1118 C 0.90308 0.56889 0.36902 0.0
C1119 C 0.90439 0.56212 0.39229 0.0
C1120 C 0.8841 0.58329 0.36147 0.0
C1121 C 0.88567 0.56936 0.40785 0.0
C1122 C 0.86673 0.58377 0.40046 0.0
C1123 C 0.84756 0.6062 0.36975 0.0
C1124 C 0.84654 0.61301 0.34645 0.0
C1125 C 0.86602 0.59115 0.37733 0.0
C1126 C 0.86442 0.60472 0.33088 0.0
C1127 C 0.88314 0.5902 0.33831 0.0
H1128 H 0.56571 0.05993 0.83472 0.0
H1129 H 0.59923 0.06628 0.90405 0.0
H1130 H 0.65728 0.09104 0.89099 0.0
H1131 H 0.69853 0.11104 0.85996 0.0
H1132 H 0.66543 0.10671 0.79067 0.0
H1133 H 0.60732 0.08141 0.80368 0.0
C1134 C 0.58569 0.06649 0.84697 0.0
C1135 C 0.57805 0.06093 0.87035 0.0
C1136 C 0.61915 0.08139 0.83936 0.0
C1137 C 0.60434 0.07013 0.88598 0.0
C1138 C 0.63757 0.08437 0.87851 0.0
C1139 C 0.67868 0.1047 0.84765 0.0
C1140 C 0.68652 0.1108 0.82431 0.0
C1141 C 0.64529 0.09022 0.85526 0.0
C1142 C 0.66031 0.10249 0.80872 0.0
C1143 C 0.62699 0.08784 0.81614 0.0
H1144 H 0.94989 0.49419 0.83412 0.0
H1145 H 0.94822 0.52485 0.90326 0.0
H1146 H 0.92302 0.55781 0.89048 0.0
H1147 H 0.90203 0.57843 0.85972 0.0
H1148 H 0.90254 0.54704 0.79057 0.0
H1149 H 0.92717 0.51353 0.80337 0.0
C1150 C 0.94418 0.50823 0.84638 0.0
C1151 C 0.95123 0.50725 0.86962 0.0
C1152 C 0.9292 0.52678 0.83894 0.0
C1153 C 0.94321 0.52523 0.88529 0.0
C1154 C 0.92872 0.54405 0.87799 0.0
C1155 C 0.9073 0.56412 0.84741 0.0
C1156 C 0.90042 0.5654 0.82416 0.0
C1157 C 0.9216 0.545 0.85487 0.0
C1158 C 0.90741 0.54653 0.80855 0.0
C1159 C 0.92169 0.52747 0.81585 0.0
H1160 H 0.50322 0.42045 0.88725 0.0
H1161 H 0.51077 0.47599 0.82628 0.0
H1162 H 0.48045 0.42357 0.80487 0.0
H1163 H 0.45079 0.36133 0.80352 0.0
H1164 H 0.44284 0.30656 0.86498 0.0
H1165 H 0.47454 0.359 0.88587 0.0
C1166 C 0.49812 0.42114 0.86931 0.0
C1167 C 0.50917 0.45223 0.8585 0.0
C1168 C 0.48078 0.39087 0.85703 0.0
C1169 C 0.50247 0.45249 0.83515 0.0
C1170 C 0.4852 0.42246 0.82282 0.0
C1171 C 0.45642 0.36095 0.82139 0.0
C1172 C 0.44447 0.32996 0.8326 0.0
C1173 C 0.47424 0.39143 0.83356 0.0
C1174 C 0.45162 0.32997 0.85589 0.0
C1175 C 0.4697 0.36 0.86792 0.0
H1176 H 0.56466 0.65621 0.69962 0.0
H1177 H 0.57708 0.6927 0.63064 0.0
H1178 H 0.60182 0.75032 0.6447 0.0
H1179 H 0.62126 0.7906 0.67666 0.0
H1180 H 0.60651 0.75354 0.74555 0.0
H1181 H 0.58168 0.69599 0.73144 0.0
C1182 C 0.57259 0.67671 0.68761 0.0
C1183 C 0.56906 0.67002 0.66406 0.0
C1184 C 0.58672 0.70978 0.69582 0.0
C1185 C 0.57931 0.69699 0.64883 0.0
C1186 C 0.59368 0.73002 0.65687 0.0
C1187 C 0.61279 0.76992 0.68857 0.0
C1188 C 0.61608 0.7764 0.71214 0.0
C1189 C 0.59782 0.73675 0.68032 0.0
C1190 C 0.60441 0.74928 0.72735 0.0
C1191 C 0.59015 0.71634 0.71928 0.0
H1192 H 0.23028 0.83712 0.66916 0.0
H1193 H 0.26367 0.86903 0.73796 0.0
H1194 H 0.32169 0.90209 0.72472 0.0
H1195 H 0.36295 0.9219 0.69362 0.0
H1196 H 0.3299 0.88799 0.625 0.0
H1197 H 0.27188 0.85544 0.6382 0.0
C1198 C 0.25023 0.85153 0.68124 0.0
C1199 C 0.24256 0.85089 0.70451 0.0
C1200 C 0.28366 0.86986 0.67356 0.0
C1201 C 0.26881 0.8692 0.71997 0.0
C1202 C 0.30202 0.88805 0.7124 0.0
C1203 C 0.34312 0.90729 0.68152 0.0
C1204 C 0.35094 0.90754 0.65829 0.0
C1205 C 0.30976 0.88849 0.68925 0.0
C1206 C 0.32478 0.88823 0.64296 0.0
C1207 C 0.29151 0.86972 0.65049 0.0
H1208 H 0.16094 0.41143 0.72229 0.0
H1209 H 0.17003 0.36749 0.65976 0.0
H1210 H 0.1398 0.39041 0.63931 0.0
H1211 H 0.11026 0.42292 0.63911 0.0
H1212 H 0.10008 0.46532 0.70201 0.0
H1213 H 0.13146 0.44351 0.72215 0.0
C1214 C 0.15615 0.40667 0.70421 0.0
C1215 C 0.1677 0.38761 0.69267 0.0
C1216 C 0.13877 0.42001 0.69249 0.0
C1217 C 0.16135 0.38191 0.66918 0.0
C1218 C 0.14415 0.39517 0.6574 0.0
C1219 C 0.11528 0.42769 0.65716 0.0
C1220 C 0.10293 0.44587 0.66898 0.0
C1221 C 0.13282 0.41439 0.66884 0.0
C1222 C 0.10924 0.45139 0.69247 0.0
C1223 C 0.12714 0.43884 0.70405 0.0
H1224 H 0.33379 0.89748 0.19181 0.0
H1225 H 0.37026 0.90489 0.26046 0.0
H1226 H 0.42788 0.93107 0.24627 0.0
H1227 H 0.46812 0.9532 0.21439 0.0
H1228 H 0.43111 0.94447 0.1458 0.0
H1229 H 0.37356 0.91781 0.16002 0.0
C1230 C 0.35426 0.9046 0.20373 0.0
C1231 C 0.34752 0.89919 0.22723 0.0
C1232 C 0.38734 0.91977 0.19547 0.0
C1233 C 0.37453 0.90856 0.2423 0.0
C1234 C 0.40757 0.92374 0.2342 0.0
C1235 C 0.44748 0.94565 0.20256 0.0
C1236 C 0.45401 0.95114 0.17904 0.0
C1237 C 0.41431 0.92979 0.21084 0.0
C1238 C 0.42688 0.94071 0.16396 0.0
C1239 C 0.39392 0.92537 0.17208 0.0
H1240 H 0.12169 0.43442 0.19212 0.0
H1241 H 0.1167 0.46651 0.2603 0.0
H1242 H 0.09207 0.49914 0.24561 0.0
H1243 H 0.07132 0.51818 0.21333 0.0
H1244 H 0.0782 0.48725 0.1452 0.0
H1245 H 0.10232 0.45432 0.15999 0.0
C1246 C 0.11538 0.44863 0.20383 0.0
C1247 C 0.12111 0.44788 0.22735 0.0
C1248 C 0.10122 0.46736 0.19527 0.0
C1249 C 0.11279 0.46665 0.24214 0.0
C1250 C 0.09851 0.48522 0.23375 0.0
C1251 C 0.07784 0.50401 0.20174 0.0
C1252 C 0.07264 0.50498 0.17817 0.0
C1253 C 0.09239 0.48559 0.21035 0.0
C1254 C 0.08178 0.48688 0.16339 0.0
C1255 C 0.09567 0.46809 0.17185 0.0
H1256 H 0.56857 0.65634 0.24713 0.0
H1257 H 0.58143 0.7089 0.18382 0.0
H1258 H 0.55013 0.65567 0.1637 0.0
H1259 H 0.52046 0.59406 0.16363 0.0
H1260 H 0.50825 0.54099 0.22662 0.0
H1261 H 0.53804 0.59423 0.2471 0.0
C1262 C 0.56411 0.6561 0.229 0.0
C1263 C 0.5773 0.68666 0.21706 0.0
C1264 C 0.54655 0.62521 0.21733 0.0
C1265 C 0.57165 0.68582 0.19347 0.0
C1266 C 0.55381 0.65534 0.18189 0.0
C1267 C 0.52443 0.5941 0.18182 0.0
C1268 C 0.51223 0.56346 0.19348 0.0
C1269 C 0.54151 0.62487 0.19356 0.0
C1270 C 0.51746 0.56413 0.21712 0.0
C1271 C 0.53442 0.59462 0.22891 0.0
H1272 H 0.09636 0.65441 0.74454 0.0
H1273 H 0.14289 0.70662 0.68229 0.0
H1274 H 0.11869 0.65332 0.66186 0.0
H1275 H 0.08302 0.59184 0.66131 0.0
H1276 H 0.03488 0.5396 0.72325 0.0
H1277 H 0.06052 0.59272 0.74395 0.0
C1278 C 0.10158 0.65404 0.72658 0.0
C1279 C 0.12163 0.68447 0.71502 0.0
C1280 C 0.08682 0.62325 0.71474 0.0
C1281 C 0.12762 0.68358 0.69163 0.0
C1282 C 0.11366 0.65309 0.67989 0.0
C1283 C 0.07795 0.59206 0.6793 0.0
C1284 C 0.05688 0.56166 0.69062 0.0
C1285 C 0.09288 0.62278 0.69119 0.0
C1286 C 0.05082 0.56254 0.71401 0.0
C1287 C 0.06563 0.59295 0.72594 0.0
H1288 H 0.36212 0.44753 0.74548 0.0
H1289 H 0.31044 0.43594 0.68193 0.0
H1290 H 0.36394 0.46809 0.66228 0.0
H1291 H 0.42554 0.49839 0.66273 0.0
H1292 H 0.47769 0.50908 0.72594 0.0
H1293 H 0.42418 0.47829 0.74593 0.0
C1294 C 0.36261 0.45242 0.7274 0.0
C1295 C 0.33223 0.4394 0.71525 0.0
C1296 C 0.39364 0.47045 0.71601 0.0
C1297 C 0.33338 0.4456 0.69173 0.0
C1298 C 0.36401 0.46393 0.68042 0.0
C1299 C 0.42524 0.49387 0.68086 0.0
C1300 C 0.4557 0.50598 0.69273 0.0
C1301 C 0.39431 0.47617 0.69231 0.0
C1302 C 0.4547 0.49997 0.71628 0.0
C1303 C 0.42405 0.48244 0.72779 0.0
H1304 H 0.56428 0.92097 0.748 0.0
H1305 H 0.58478 0.88328 0.6865 0.0
H1306 H 0.55517 0.90505 0.66409 0.0
H1307 H 0.52413 0.93569 0.66172 0.0
H1308 H 0.50538 0.97524 0.72304 0.0
H1309 H 0.53375 0.95225 0.74555 0.0
C1310 C 0.56195 0.91722 0.72973 0.0
C1311 C 0.57659 0.9003 0.719 0.0
C1312 C 0.54547 0.93052 0.7168 0.0
C1313 C 0.57376 0.89616 0.69523 0.0
C1314 C 0.55687 0.90869 0.68236 0.0
C1315 C 0.52637 0.93943 0.67999 0.0
C1316 C 0.51262 0.95729 0.69058 0.0
C1317 C 0.54285 0.92616 0.69292 0.0
C1318 C 0.51579 0.96176 0.71433 0.0
C1319 C 0.53192 0.94848 0.72729 0.0
H1320 H 0.22938 0.40106 0.17254 0.0
H1321 H 0.26464 0.4102 0.24167 0.0
H1322 H 0.32222 0.43406 0.22804 0.0
H1323 H 0.36253 0.45189 0.19669 0.0
H1324 H 0.32812 0.44414 0.12744 0.0
H1325 H 0.27036 0.42062 0.14097 0.0
C1326 C 0.24965 0.40811 0.18462 0.0
C1327 C 0.24258 0.40356 0.20813 0.0
C1328 C 0.28291 0.42233 0.17666 0.0
C1329 C 0.26926 0.41329 0.22352 0.0
C1330 C 0.30225 0.42701 0.21573 0.0
C1331 C 0.34249 0.44523 0.18448 0.0
C1332 C 0.34983 0.44978 0.16101 0.0
C1333 C 0.30936 0.43165 0.19237 0.0
C1334 C 0.32337 0.44108 0.14557 0.0
C1335 C 0.29026 0.42745 0.1533 0.0
H1336 H 0.57746 0.9243 0.19323 0.0
H1337 H 0.57774 0.89113 0.12456 0.0
H1338 H 0.60299 0.85846 0.13793 0.0
H1339 H 0.62556 0.83966 0.1691 0.0
H1340 H 0.62321 0.87119 0.23786 0.0
H1341 H 0.59857 0.90441 0.22442 0.0
C1342 C 0.5829 0.90984 0.18114 0.0
C1343 C 0.57568 0.9103 0.15787 0.0
C1344 C 0.59737 0.89103 0.18895 0.0
C1345 C 0.58284 0.89121 0.14256 0.0
C1346 C 0.59746 0.87263 0.15018 0.0
C1347 C 0.61992 0.85404 0.18112 0.0
C1348 C 0.62655 0.8532 0.20445 0.0
C1349 C 0.60505 0.87252 0.17332 0.0
C1350 C 0.61852 0.8715 0.21983 0.0
C1351 C 0.60434 0.89044 0.21215 0.0
H1352 H 0.19869 0.79 0.17128 0.0
H1353 H 0.16102 0.75509 0.23892 0.0
H1354 H 0.12756 0.69767 0.22465 0.0
H1355 H 0.10853 0.65748 0.19295 0.0
H1356 H 0.14763 0.69187 0.12547 0.0
H1357 H 0.18131 0.74926 0.13976 0.0
C1358 C 0.18301 0.76985 0.18288 0.0
C1359 C 0.1821 0.77693 0.20612 0.0
C1360 C 0.16431 0.73674 0.17462 0.0
C1361 C 0.16209 0.75041 0.22096 0.0
C1362 C 0.14299 0.71754 0.21281 0.0
C1363 C 0.12454 0.67746 0.18134 0.0
C1364 C 0.12538 0.67024 0.15811 0.0
C1365 C 0.14389 0.71041 0.18968 0.0
C1366 C 0.1465 0.69654 0.14342 0.0
C1367 C 0.16566 0.72945 0.15157 0.0
H1368 H 0.39972 0.27572 0.12794 0.0
H1369 H 0.41677 0.30384 0.05722 0.0
H1370 H 0.45575 0.36217 0.06798 0.0
H1371 H 0.4709 0.40569 0.09717 0.0
H1372 H 0.44892 0.37768 0.1677 0.0
H1373 H 0.42696 0.3187 0.1576 0.0
C1374 C 0.41317 0.29446 0.11492 0.0
C1375 C 0.40511 0.28591 0.09186 0.0
C1376 C 0.43416 0.328 0.12131 0.0
C1377 C 0.42265 0.30999 0.07504 0.0
C1378 C 0.44456 0.34338 0.08124 0.0
C1379 C 0.46259 0.38674 0.11041 0.0
C1380 C 0.46074 0.39569 0.13306 0.0
C1381 C 0.44851 0.35289 0.10428 0.0
C1382 C 0.45045 0.37129 0.15017 0.0
C1383 C 0.43745 0.33753 0.14432 0.0
H1384 H 0.64858 0.07965 0.15302 0.0
H1385 H 0.60144 0.07004 0.08803 0.0
H1386 H 0.65602 0.10376 0.07008 0.0
H1387 H 0.71556 0.1191 0.07126 0.0
H1388 H 0.76246 0.12638 0.13599 0.0
H1389 H 0.71026 0.11158 0.15572 0.0
C1390 C 0.6503 0.08669 0.13525 0.0
C1391 C 0.62131 0.07191 0.12174 0.0
C1392 C 0.68197 0.10497 0.12483 0.0
C1393 C 0.62366 0.08099 0.09867 0.0
C1394 C 0.65491 0.0999 0.08832 0.0
C1395 C 0.71472 0.11933 0.0897 0.0
C1396 C 0.74239 0.12332 0.1022 0.0
C1397 C 0.68419 0.1096 0.1009 0.0
C1398 C 0.74118 0.12325 0.1261 0.0
C1399 C 0.71123 0.11439 0.13738 0.0
H1400 H 0.91531 0.6143 0.06814 0.0
H1401 H 0.89396 0.63545 0.13548 0.0
H1402 H 0.91326 0.59956 0.15211 0.0
H1403 H 0.95036 0.57563 0.14776 0.0
H1404 H 0.97398 0.55676 0.08042 0.0
H1405 H 0.93909 0.5771 0.06361 0.0
C1406 C 0.91334 0.60963 0.08632 0.0
C1407 C 0.90386 0.62783 0.1006 0.0
C1408 C 0.92573 0.58988 0.09587 0.0
C1409 C 0.90158 0.62184 0.12419 0.0
C1410 C 0.91292 0.60156 0.13375 0.0
C1411 C 0.94649 0.57448 0.1295 0.0
C1412 C 0.96516 0.56544 0.11533 0.0
C1413 C 0.92724 0.58739 0.11986 0.0
C1414 C 0.96011 0.56413 0.09164 0.0
C1415 C 0.94036 0.57602 0.08198 0.0
H1416 H 0.28153 0.40074 0.42777 0.0
H1417 H 0.30926 0.41588 0.49861 0.0
H1418 H 0.36807 0.45296 0.48814 0.0
H1419 H 0.41135 0.46625 0.45913 0.0
H1420 H 0.38353 0.44603 0.38844 0.0
H1421 H 0.32498 0.42669 0.39831 0.0
C1422 C 0.30035 0.41344 0.44089 0.0
C1423 C 0.29147 0.40527 0.46388 0.0
C1424 C 0.33412 0.43323 0.43465 0.0
C1425 C 0.31565 0.42186 0.48084 0.0
C1426 C 0.34931 0.44265 0.4748 0.0
C1427 C 0.39261 0.45892 0.44582 0.0
C1428 C 0.40135 0.45677 0.42318 0.0
C1429 C 0.35894 0.44637 0.4518 0.0
C1430 C 0.37725 0.44774 0.40597 0.0
C1431 C 0.34372 0.43626 0.41168 0.0
H1432 H 0.57071 0.93707 0.40027 0.0
H1433 H 0.55202 0.96365 0.46669 0.0
H1434 H 0.56671 0.92492 0.48451 0.0
H1435 H 0.60164 0.8985 0.48124 0.0
H1436 H 0.62311 0.87441 0.41487 0.0
H1437 H 0.58966 0.8957 0.39703 0.0
C1438 C 0.56809 0.93289 0.41851 0.0
C1439 C 0.56102 0.95348 0.43222 0.0
C1440 C 0.57788 0.91144 0.42873 0.0
C1441 C 0.55781 0.94814 0.45587 0.0
C1442 C 0.56655 0.92624 0.4661 0.0
C1443 C 0.59726 0.89611 0.46302 0.0
C1444 C 0.61518 0.88561 0.44933 0.0
C1445 C 0.57916 0.90984 0.45279 0.0
C1446 C 0.60962 0.88274 0.42569 0.0
C1447 C 0.59087 0.89536 0.41544 0.0
H1448 H 0.1282 0.73793 0.42679 0.0
H1449 H 0.11279 0.71066 0.49774 0.0
H1450 H 0.09215 0.65187 0.4876 0.0
H1451 H 0.06524 0.60805 0.4584 0.0
H1452 H 0.07615 0.63528 0.38746 0.0
H1453 H 0.11275 0.69435 0.39761 0.0
C1454 C 0.12146 0.71923 0.44006 0.0
C1455 C 0.12129 0.72831 0.46294 0.0
C1456 C 0.10834 0.68546 0.434 0.0
C1457 C 0.11303 0.70419 0.48004 0.0
C1458 C 0.10084 0.67053 0.47419 0.0
C1459 C 0.07671 0.62683 0.44513 0.0
C1460 C 0.06753 0.61758 0.42224 0.0
C1461 C 0.09637 0.66074 0.4512 0.0
C1462 C 0.08279 0.64185 0.40515 0.0
C1463 C 0.10334 0.67566 0.41101 0.0
H1464 H 0.57902 0.63948 0.89602 0.0
H1465 H 0.54933 0.59616 0.96283 0.0
H1466 H 0.57138 0.65176 0.97957 0.0
H1467 H 0.61285 0.71208 0.97609 0.0
H1468 H 0.6451 0.75498 0.90936 0.0
H1469 H 0.6079 0.70086 0.89175 0.0
C1470 C 0.57585 0.64221 0.91404 0.0
C1471 C 0.56322 0.61402 0.92823 0.0
C1472 C 0.58996 0.67446 0.92371 0.0
C1473 C 0.55936 0.61775 0.95162 0.0
C1474 C 0.57231 0.64958 0.96126 0.0
C1475 C 0.61049 0.7098 0.95772 0.0
C1476 C 0.63209 0.73709 0.94404 0.0
C1477 C 0.58984 0.67818 0.94767 0.0
C1478 C 0.62897 0.73397 0.92022 0.0
C1479 C 0.60785 0.70298 0.91011 0.0
H1480 H 0.28181 0.88392 0.9241 0.0
H1481 H 0.30823 0.90223 0.99509 0.0
H1482 H 0.36705 0.92229 0.98562 0.0
H1483 H 0.41105 0.94924 0.95659 0.0
H1484 H 0.3847 0.93595 0.8855 0.0
H1485 H 0.32573 0.89836 0.89537 0.0
C1486 C 0.30032 0.89099 0.93755 0.0
C1487 C 0.29106 0.89237 0.96019 0.0
C1488 C 0.33415 0.90395 0.93181 0.0
C1489 C 0.31488 0.90108 0.97757 0.0
C1490 C 0.34857 0.91298 0.97208 0.0
C1491 C 0.39251 0.93684 0.94327 0.0
C1492 C 0.40184 0.94567 0.92039 0.0
C1493 C 0.35864 0.91674 0.94918 0.0
C1494 C 0.37799 0.92946 0.90319 0.0
C1495 C 0.34423 0.90839 0.90889 0.0
H1496 H 0.13403 0.39662 0.92311 0.0
H1497 H 0.12153 0.41209 0.99392 0.0
H1498 H 0.10176 0.45073 0.98332 0.0
H1499 H 0.07319 0.46559 0.95419 0.0
H1500 H 0.07981 0.44436 0.88358 0.0
H1501 H 0.11773 0.42346 0.89358 0.0
C1502 C 0.12821 0.40954 0.93621 0.0
C1503 C 0.12835 0.40102 0.95922 0.0
C1504 C 0.11527 0.43021 0.92991 0.0
C1505 C 0.1214 0.41816 0.97613 0.0
C1506 C 0.10969 0.4399 0.97002 0.0
C1507 C 0.08414 0.45768 0.94091 0.0
C1508 C 0.07325 0.45568 0.91826 0.0
C1509 C 0.10426 0.44403 0.94699 0.0
C1510 C 0.08777 0.44595 0.90111 0.0
C1511 C 0.10904 0.43355 0.9069 0.0
H1512 H 0.74274 0.61798 0.62505 0.0
H1513 H 0.71382 0.6074 0.55446 0.0
H1514 H 0.65527 0.56928 0.56502 0.0
H1515 H 0.61236 0.55345 0.59468 0.0
H1516 H 0.6413 0.56924 0.66534 0.0
H1517 H 0.69981 0.58996 0.65458 0.0
C1518 C 0.72373 0.60614 0.61194 0.0
C1519 C 0.73222 0.6159 0.58908 0.0
C1520 C 0.69009 0.58576 0.61828 0.0
C1521 C 0.70776 0.60028 0.57214 0.0
C1522 C 0.67424 0.57888 0.57824 0.0
C1523 C 0.63137 0.56019 0.60774 0.0
C1524 C 0.62289 0.56064 0.63072 0.0
C1525 C 0.66499 0.57354 0.60132 0.0
C1526 C 0.64735 0.56885 0.64757 0.0
C1527 C 0.68084 0.5811 0.64137 0.0
H1528 H 0.418 0.11926 0.5717 0.0
H1529 H 0.3864 0.13191 0.63808 0.0
H1530 H 0.4228 0.11432 0.6561 0.0
H1531 H 0.44917 0.07941 0.65215 0.0
H1532 H 0.47787 0.06363 0.58561 0.0
H1533 H 0.45842 0.09916 0.56858 0.0
C1534 C 0.42058 0.11988 0.59007 0.0
C1535 C 0.39933 0.12625 0.60358 0.0
C1536 C 0.44058 0.10834 0.60032 0.0
C1537 C 0.4025 0.12677 0.62739 0.0
C1538 C 0.42305 0.11637 0.63772 0.0
C1539 C 0.45282 0.08533 0.63415 0.0
C1540 C 0.46423 0.06855 0.62007 0.0
C1541 C 0.44017 0.10465 0.62431 0.0
C1542 C 0.46874 0.07614 0.5967 0.0
C1543 C 0.45726 0.09615 0.5869 0.0
H1544 H 0.9463 0.40636 0.59227 0.0
H1545 H 0.9313 0.37435 0.66226 0.0
H1546 H 0.89298 0.31644 0.65033 0.0
H1547 H 0.87831 0.27471 0.61989 0.0
H1548 H 0.89808 0.30667 0.54994 0.0
H1549 H 0.91901 0.36487 0.56172 0.0
C1550 C 0.93336 0.38685 0.60492 0.0
C1551 C 0.94189 0.39424 0.62804 0.0
C1552 C 0.91275 0.35357 0.59781 0.0
C1553 C 0.92504 0.36913 0.64439 0.0
C1554 C 0.90352 0.33597 0.63751 0.0
C1555 C 0.88579 0.29431 0.60719 0.0
C1556 C 0.88733 0.28676 0.58415 0.0
C1557 C 0.89926 0.32773 0.61424 0.0
C1558 C 0.89672 0.312 0.56774 0.0
C1559 C 0.90915 0.34532 0.57454 0.0
H1560 H 0.94616 0.72958 0.75925 0.0
H1561 H 0.97262 0.73749 0.83023 0.0
H1562 H 0.03145 0.77638 0.82075 0.0
H1563 H 0.0755 0.7942 0.79168 0.0
H1564 H 0.04911 0.78163 0.72059 0.0
H1565 H 0.99004 0.75941 0.73054 0.0
C1566 C 0.96468 0.74093 0.7727 0.0
C1567 C 0.95541 0.73026 0.79535 0.0
C1568 C 0.99849 0.76196 0.76696 0.0
C1569 C 0.97927 0.74529 0.81271 0.0
C1570 C 0.01295 0.76718 0.80722 0.0
C1571 C 0.05691 0.78793 0.77838 0.0
C1572 C 0.06631 0.78888 0.75547 0.0
C1573 C 0.02299 0.77371 0.78432 0.0
C1574 C 0.04237 0.78107 0.73831 0.0
C1575 C 1.00855 0.76791 0.74404 0.0
H1576 H 0.21875 0.27989 0.78992 0.0
H1577 H 0.23427 0.26744 0.71913 0.0
H1578 H 0.25507 0.22957 0.72952 0.0
H1579 H 0.28349 0.21473 0.75885 0.0
H1580 H 0.27268 0.23188 0.82959 0.0
H1581 H 0.23442 0.25227 0.81933 0.0
C1582 C 0.22532 0.26763 0.77676 0.0
C1583 C 0.2257 0.27678 0.75385 0.0
C1584 C 0.23866 0.24726 0.78298 0.0
C1585 C 0.23386 0.26073 0.73684 0.0
C1586 C 0.24618 0.23947 0.74284 0.0
C1587 C 0.27146 0.22151 0.77204 0.0
C1588 C 0.28116 0.22247 0.79487 0.0
C1589 C 0.25091 0.23465 0.76587 0.0
C1590 C 0.26549 0.23098 0.81194 0.0
C1591 C 0.24403 0.24309 0.806 0.0
H1592 H 0.75586 0.97219 0.73922 0.0
H1593 H 0.71736 0.92556 0.80416 0.0
H1594 H 0.7554 0.97775 0.82372 0.0
H1595 H 0.78514 0.03947 0.82092 0.0
H1596 H 0.82199 0.08627 0.75575 0.0
H1597 H 0.80057 0.03155 0.73785 0.0
C1598 C 0.75735 0.97304 0.75765 0.0
C1599 C 0.73375 0.94549 0.77027 0.0
C1600 C 0.77856 1.00357 0.76877 0.0
C1601 C 0.73546 0.94673 0.79417 0.0
C1602 C 0.7569 0.97671 0.80536 0.0
C1603 C 0.79019 0.03767 0.80311 0.0
C1604 C 0.80421 0.0666 0.78953 0.0
C1605 C 0.77658 1.00592 0.79272 0.0
C1606 C 0.81072 0.06409 0.76644 0.0
C1607 C 0.79809 0.03277 0.75611 0.0
H1608 H 0.22883 0.94263 0.29302 0.0
H1609 H 0.24337 0.9661 0.22148 0.0
H1610 H 0.2634 0.02523 0.23003 0.0
H1611 H 0.29132 0.0705 0.25811 0.0
H1612 H 0.28216 0.04712 0.32967 0.0
H1613 H 0.24455 0.98768 0.32104 0.0
C1614 C 0.23513 0.96056 0.27927 0.0
C1615 C 0.23547 0.95041 0.25671 0.0
C1616 C 0.24817 0.99459 0.28445 0.0
C1617 C 0.24309 0.97346 0.23895 0.0
C1618 C 0.25496 1.00732 0.2439 0.0
C1619 C 0.27997 0.05248 0.27184 0.0
C1620 C 0.29 0.06282 0.29445 0.0
C1621 C 0.25985 0.01834 0.26663 0.0
C1622 C 0.27489 0.03963 0.31217 0.0
C1623 C 0.25375 1.00561 0.30718 0.0
H1624 H 0.97114 0.23178 0.30665 0.0
H1625 H 0.93327 0.22598 0.23881 0.0
H1626 H 0.98864 0.24419 0.22288 0.0
H1627 H 0.04947 0.2777 0.22953 0.0
H1628 H 0.08767 0.28694 0.29763 0.0
H1629 H 0.03109 0.25061 0.31207 0.0
C1630 C 0.97477 0.23283 0.28837 0.0
C1631 C 0.9486 0.22823 0.27391 0.0
C1632 C 1.00711 0.24473 0.27937 0.0
C1633 C 0.9534 0.22981 0.25022 0.0
C1634 C 0.98513 0.24053 0.24111 0.0
C1635 C 0.04548 0.27019 0.24728 0.0
C1636 C 0.07236 0.28538 0.26259 0.0
C1637 C 0.01262 0.2505 0.25563 0.0
C1638 C 0.06706 0.2757 0.2856 0.0
C1639 C 0.03466 0.25523 0.29392 0.0
H1640 H 0.80132 0.73278 0.26107 0.0
H1641 H 0.78133 0.74011 0.33182 0.0
H1642 H 0.76125 0.77879 0.32203 0.0
H1643 H 0.73509 0.79621 0.29266 0.0
H1644 H 0.75 0.78381 0.22174 0.0
H1645 H 0.78731 0.76231 0.23211 0.0
C1646 C 0.79386 0.74402 0.27441 0.0
C1647 C 0.79207 0.73323 0.29706 0.0
C1648 C 0.78089 0.7648 0.26848 0.0
C1649 C 0.78282 0.74805 0.3143 0.0
C1650 C 0.77092 0.76978 0.30863 0.0
C1651 C 0.74771 0.7901 0.27949 0.0
C1652 C 0.73945 0.79087 0.2565 0.0
C1653 C 0.76766 0.77628 0.28567 0.0
C1654 C 0.75601 0.78334 0.23951 0.0
C1655 C 0.77694 0.77061 0.24549 0.0
loop_
_geom_bond_atom_site_label_1
_geom_bond_atom_site_label_2
_geom_bond_distance
_geom_bond_site_symmetry_2
_ccdc_geom_bond_type
O0 Cd1 2.223 . S
O0 C8 1.315 . S
Cd1 O0 2.223 . S
Cd1 O4 2.297 . S
Cd1 O5 2.439 . S
Cd1 O11 2.240 . S
Cd2 O3 2.240 . S
Cd2 O10 2.223 . S
Cd2 O12 2.297 . S
Cd2 O13 2.439 . S
O3 Cd2 2.240 . S
O3 C8 1.279 . S
O4 Cd1 2.297 . S
O4 C6 1.247 . S
O5 Cd1 2.439 . S
O5 C6 1.208 . S
C6 O4 1.247 . S
C6 O5 1.208 . S
C7 O12 1.247 . S
C7 O13 1.208 . S
C8 O0 1.315 . S
C8 O3 1.279 . S
C9 O10 1.315 . S
C9 O11 1.279 . S
O10 Cd2 2.223 . S
O10 C9 1.315 . S
O11 Cd1 2.240 . S
O11 C9 1.279 . S
O12 Cd2 2.297 . S
O12 C7 1.247 . S
O13 Cd2 2.439 . S
O13 C7 1.208 . S
O14 Cd15 2.223 . S
O14 C22 1.315 . S
Cd15 O14 2.223 . S
Cd15 O18 2.297 . S
Cd15 O19 2.439 . S
Cd15 O25 2.240 . S
Cd16 O17 2.240 . S
Cd16 O24 2.223 . S
Cd16 O26 2.297 . S
Cd16 O27 2.439 . S
O17 Cd16 2.240 . S
O17 C22 1.279 . S
O18 Cd15 2.297 . S
O18 C20 1.247 . S
O19 Cd15 2.439 . S
O19 C20 1.208 . S
C20 O18 1.247 . S
C20 O19 1.208 . S
C21 O26 1.247 . S
C21 O27 1.208 . S
C22 O14 1.315 . S
C22 O17 1.279 . S
C23 O24 1.315 . S
C23 O25 1.279 . S
O24 Cd16 2.223 . S
O24 C23 1.315 . S
O25 Cd15 2.240 . S
O25 C23 1.279 . S
O26 Cd16 2.297 . S
O26 C21 1.247 . S
O27 Cd16 2.439 . S
O27 C21 1.208 . S
O28 Cd29 2.223 . S
O28 C36 1.315 . S
Cd29 O28 2.223 . S
Cd29 O32 2.297 . S
Cd29 O33 2.439 . S
Cd29 O39 2.240 . S
Cd30 O31 2.240 . S
Cd30 O38 2.223 . S
Cd30 O40 2.297 . S
Cd30 O41 2.439 . S
O31 Cd30 2.240 . S
O31 C36 1.279 . S
O32 Cd29 2.297 . S
O32 C34 1.247 . S
O33 Cd29 2.439 . S
O33 C34 1.208 . S
C34 O32 1.247 . S
C34 O33 1.208 . S
C35 O40 1.247 . S
C35 O41 1.208 . S
C36 O28 1.315 . S
C36 O31 1.279 . S
C37 O38 1.315 . S
C37 O39 1.279 . S
O38 Cd30 2.223 . S
O38 C37 1.315 . S
O39 Cd29 2.240 . S
O39 C37 1.279 . S
O40 Cd30 2.297 . S
O40 C35 1.247 . S
O41 Cd30 2.439 . S
O41 C35 1.208 . S
O42 Cd43 2.223 . S
O42 C50 1.315 . S
Cd43 O42 2.223 . S
Cd43 O46 2.297 . S
Cd43 O47 2.439 . S
Cd43 O53 2.240 . S
Cd44 O45 2.240 . S
Cd44 O52 2.223 . S
Cd44 O54 2.297 . S
Cd44 O55 2.439 . S
O45 Cd44 2.240 . S
O45 C50 1.279 . S
O46 Cd43 2.297 . S
O46 C48 1.247 . S
O47 Cd43 2.439 . S
O47 C48 1.208 . S
C48 O46 1.247 . S
C48 O47 1.208 . S
C49 O54 1.247 . S
C49 O55 1.208 . S
C50 O42 1.315 . S
C50 O45 1.279 . S
C51 O52 1.315 . S
C51 O53 1.279 . S
O52 Cd44 2.223 . S
O52 C51 1.315 . S
O53 Cd43 2.240 . S
O53 C51 1.279 . S
O54 Cd44 2.297 . S
O54 C49 1.247 . S
O55 Cd44 2.439 . S
O55 C49 1.208 . S
O56 Cd57 2.223 . S
O56 C64 1.315 . S
Cd57 O56 2.223 . S
Cd57 O60 2.297 . S
Cd57 O61 2.439 . S
Cd57 O67 2.240 . S
Cd58 O59 2.240 . S
Cd58 O66 2.223 . S
Cd58 O68 2.297 . S
Cd58 O69 2.439 . S
O59 Cd58 2.240 . S
O59 C64 1.279 . S
O60 Cd57 2.297 . S
O60 C62 1.247 . S
O61 Cd57 2.439 . S
O61 C62 1.208 . S
C62 O60 1.247 . S
C62 O61 1.208 . S
C63 O68 1.247 . S
C63 O69 1.208 . S
C64 O56 1.315 . S
C64 O59 1.279 . S
C65 O66 1.315 . S
C65 O67 1.279 . S
O66 Cd58 2.223 . S
O66 C65 1.315 . S
O67 Cd57 2.240 . S
O67 C65 1.279 . S
O68 Cd58 2.297 . S
O68 C63 1.247 . S
O69 Cd58 2.439 . S
O69 C63 1.208 . S
O70 Cd71 2.223 . S
O70 C78 1.315 . S
Cd71 O70 2.223 . S
Cd71 O74 2.297 . S
Cd71 O75 2.439 . S
Cd71 O81 2.240 . S
Cd72 O73 2.240 . S
Cd72 O80 2.223 . S
Cd72 O82 2.297 . S
Cd72 O83 2.439 . S
O73 Cd72 2.240 . S
O73 C78 1.279 . S
O74 Cd71 2.297 . S
O74 C76 1.247 . S
O75 Cd71 2.439 . S
O75 C76 1.208 . S
C76 O74 1.247 . S
C76 O75 1.208 . S
C77 O82 1.247 . S
C77 O83 1.208 . S
C78 O70 1.315 . S
C78 O73 1.279 . S
C79 O80 1.315 . S
C79 O81 1.279 . S
O80 Cd72 2.223 . S
O80 C79 1.315 . S
O81 Cd71 2.240 . S
O81 C79 1.279 . S
O82 Cd72 2.297 . S
O82 C77 1.247 . S
O83 Cd72 2.439 . S
O83 C77 1.208 . S
O84 Cd85 2.223 . S
O84 C92 1.315 . S
Cd85 O84 2.223 . S
Cd85 O88 2.297 . S
Cd85 O89 2.439 . S
Cd85 O95 2.240 . S
Cd86 O87 2.240 . S
Cd86 O94 2.223 . S
Cd86 O96 2.297 . S
Cd86 O97 2.439 . S
O87 Cd86 2.240 . S
O87 C92 1.279 . S
O88 Cd85 2.297 . S
O88 C90 1.247 . S
O89 Cd85 2.439 . S
O89 C90 1.208 . S
C90 O88 1.247 . S
C90 O89 1.208 . S
C91 O96 1.247 . S
C91 O97 1.208 . S
C92 O84 1.315 . S
C92 O87 1.279 . S
C93 O94 1.315 . S
C93 O95 1.279 . S
O94 Cd86 2.223 . S
O94 C93 1.315 . S
O95 Cd85 2.240 . S
O95 C93 1.279 . S
O96 Cd86 2.297 . S
O96 C91 1.247 . S
O97 Cd86 2.439 . S
O97 C91 1.208 . S
O98 Cd99 2.223 . S
O98 C106 1.315 . S
Cd99 O98 2.223 . S
Cd99 O102 2.297 . S
Cd99 O103 2.439 . S
Cd99 O109 2.240 . S
Cd100 O101 2.240 . S
Cd100 O108 2.223 . S
Cd100 O110 2.297 . S
Cd100 O111 2.439 . S
O101 Cd100 2.240 . S
O101 C106 1.279 . S
O102 Cd99 2.297 . S
O102 C104 1.247 . S
O103 Cd99 2.439 . S
O103 C104 1.208 . S
C104 O102 1.247 . S
C104 O103 1.208 . S
C105 O110 1.247 . S
C105 O111 1.208 . S
C106 O98 1.315 . S
C106 O101 1.279 . S
C107 O108 1.315 . S
C107 O109 1.279 . S
O108 Cd100 2.223 . S
O108 C107 1.315 . S
O109 Cd99 2.240 . S
O109 C107 1.279 . S
O110 Cd100 2.297 . S
O110 C105 1.247 . S
O111 Cd100 2.439 . S
O111 C105 1.208 . S
O112 Cd113 2.223 . S
O112 C120 1.315 . S
Cd113 O112 2.223 . S
Cd113 O116 2.297 . S
Cd113 O117 2.439 . S
Cd113 O123 2.240 . S
Cd114 O115 2.240 . S
Cd114 O122 2.223 . S
Cd114 O124 2.297 . S
Cd114 O125 2.439 . S
O115 Cd114 2.240 . S
O115 C120 1.279 . S
O116 Cd113 2.297 . S
O116 C118 1.247 . S
O117 Cd113 2.439 . S
O117 C118 1.208 . S
C118 O116 1.247 . S
C118 O117 1.208 . S
C119 O124 1.247 . S
C119 O125 1.208 . S
C120 O112 1.315 . S
C120 O115 1.279 . S
C121 O122 1.315 . S
C121 O123 1.279 . S
O122 Cd114 2.223 . S
O122 C121 1.315 . S
O123 Cd113 2.240 . S
O123 C121 1.279 . S
O124 Cd114 2.297 . S
O124 C119 1.247 . S
O125 Cd114 2.439 . S
O125 C119 1.208 . S
O126 Cd127 2.223 . S
O126 C134 1.315 . S
Cd127 O126 2.223 . S
Cd127 O130 2.297 . S
Cd127 O131 2.439 . S
Cd127 O137 2.240 . S
Cd128 O129 2.240 . S
Cd128 O136 2.223 . S
Cd128 O138 2.297 . S
Cd128 O139 2.439 . S
O129 Cd128 2.240 . S
O129 C134 1.279 . S
O130 Cd127 2.297 . S
O130 C132 1.247 . S
O131 Cd127 2.439 . S
O131 C132 1.208 . S
C132 O130 1.247 . S
C132 O131 1.208 . S
C133 O138 1.247 . S
C133 O139 1.208 . S
C134 O126 1.315 . S
C134 O129 1.279 . S
C135 O136 1.315 . S
C135 O137 1.279 . S
O136 Cd128 2.223 . S
O136 C135 1.315 . S
O137 Cd127 2.240 . S
O137 C135 1.279 . S
O138 Cd128 2.297 . S
O138 C133 1.247 . S
O139 Cd128 2.439 . S
O139 C133 1.208 . S
O140 Cd141 2.223 . S
O140 C148 1.315 . S
Cd141 O140 2.223 . S
Cd141 O144 2.297 . S
Cd141 O145 2.439 . S
Cd141 O151 2.240 . S
Cd142 O143 2.240 . S
Cd142 O150 2.223 . S
Cd142 O152 2.297 . S
Cd142 O153 2.439 . S
O143 Cd142 2.240 . S
O143 C148 1.279 . S
O144 Cd141 2.297 . S
O144 C146 1.247 . S
O145 Cd141 2.439 . S
O145 C146 1.208 . S
C146 O144 1.247 . S
C146 O145 1.208 . S
C147 O152 1.247 . S
C147 O153 1.208 . S
C148 O140 1.315 . S
C148 O143 1.279 . S
C149 O150 1.315 . S
C149 O151 1.279 . S
O150 Cd142 2.223 . S
O150 C149 1.315 . S
O151 Cd141 2.240 . S
O151 C149 1.279 . S
O152 Cd142 2.297 . S
O152 C147 1.247 . S
O153 Cd142 2.439 . S
O153 C147 1.208 . S
O154 Cd155 2.223 . S
O154 C162 1.315 . S
Cd155 O154 2.223 . S
Cd155 O158 2.297 . S
Cd155 O159 2.439 . S
Cd155 O165 2.240 . S
Cd156 O157 2.240 . S
Cd156 O164 2.223 . S
Cd156 O166 2.297 . S
Cd156 O167 2.439 . S
O157 Cd156 2.240 . S
O157 C162 1.279 . S
O158 Cd155 2.297 . S
O158 C160 1.247 . S
O159 Cd155 2.439 . S
O159 C160 1.208 . S
C160 O158 1.247 . S
C160 O159 1.208 . S
C161 O166 1.247 . S
C161 O167 1.208 . S
C162 O154 1.315 . S
C162 O157 1.279 . S
C163 O164 1.315 . S
C163 O165 1.279 . S
O164 Cd156 2.223 . S
O164 C163 1.315 . S
O165 Cd155 2.240 . S
O165 C163 1.279 . S
O166 Cd156 2.297 . S
O166 C161 1.247 . S
O167 Cd156 2.439 . S
O167 C161 1.208 . S
O168 Cd169 2.223 . S
O168 C176 1.315 . S
Cd169 O168 2.223 . S
Cd169 O172 2.297 . S
Cd169 O173 2.439 . S
Cd169 O179 2.240 . S
Cd170 O171 2.240 . S
Cd170 O178 2.223 . S
Cd170 O180 2.297 . S
Cd170 O181 2.439 . S
O171 Cd170 2.240 . S
O171 C176 1.279 . S
O172 Cd169 2.297 . S
O172 C174 1.247 . S
O173 Cd169 2.439 . S
O173 C174 1.208 . S
C174 O172 1.247 . S
C174 O173 1.208 . S
C175 O180 1.247 . S
C175 O181 1.208 . S
C176 O168 1.315 . S
C176 O171 1.279 . S
C177 O178 1.315 . S
C177 O179 1.279 . S
O178 Cd170 2.223 . S
O178 C177 1.315 . S
O179 Cd169 2.240 . S
O179 C177 1.279 . S
O180 Cd170 2.297 . S
O180 C175 1.247 . S
O181 Cd170 2.439 . S
O181 C175 1.208 . S
O182 Cd183 2.223 . S
O182 C190 1.315 . S
Cd183 O182 2.223 . S
Cd183 O186 2.297 . S
Cd183 O187 2.439 . S
Cd183 O193 2.240 . S
Cd184 O185 2.240 . S
Cd184 O192 2.223 . S
Cd184 O194 2.297 . S
Cd184 O195 2.439 . S
O185 Cd184 2.240 . S
O185 C190 1.279 . S
O186 Cd183 2.297 . S
O186 C188 1.247 . S
O187 Cd183 2.439 . S
O187 C188 1.208 . S
C188 O186 1.247 . S
C188 O187 1.208 . S
C189 O194 1.247 . S
C189 O195 1.208 . S
C190 O182 1.315 . S
C190 O185 1.279 . S
C191 O192 1.315 . S
C191 O193 1.279 . S
O192 Cd184 2.223 . S
O192 C191 1.315 . S
O193 Cd183 2.240 . S
O193 C191 1.279 . S
O194 Cd184 2.297 . S
O194 C189 1.247 . S
O195 Cd184 2.439 . S
O195 C189 1.208 . S
O196 Cd197 2.223 . S
O196 C204 1.315 . S
Cd197 O196 2.223 . S
Cd197 O200 2.297 . S
Cd197 O201 2.439 . S
Cd197 O207 2.240 . S
Cd198 O199 2.240 . S
Cd198 O206 2.223 . S
Cd198 O208 2.297 . S
Cd198 O209 2.439 . S
O199 Cd198 2.240 . S
O199 C204 1.279 . S
O200 Cd197 2.297 . S
O200 C202 1.247 . S
O201 Cd197 2.439 . S
O201 C202 1.208 . S
C202 O200 1.247 . S
C202 O201 1.208 . S
C203 O208 1.247 . S
C203 O209 1.208 . S
C204 O196 1.315 . S
C204 O199 1.279 . S
C205 O206 1.315 . S
C205 O207 1.279 . S
O206 Cd198 2.223 . S
O206 C205 1.315 . S
O207 Cd197 2.240 . S
O207 C205 1.279 . S
O208 Cd198 2.297 . S
O208 C203 1.247 . S
O209 Cd198 2.439 . S
O209 C203 1.208 . S
O210 Cd211 2.223 . S
O210 C218 1.315 . S
Cd211 O210 2.223 . S
Cd211 O214 2.297 . S
Cd211 O215 2.439 . S
Cd211 O221 2.240 . S
Cd212 O213 2.240 . S
Cd212 O220 2.223 . S
Cd212 O222 2.297 . S
Cd212 O223 2.439 . S
O213 Cd212 2.240 . S
O213 C218 1.279 . S
O214 Cd211 2.297 . S
O214 C216 1.247 . S
O215 Cd211 2.439 . S
O215 C216 1.208 . S
C216 O214 1.247 . S
C216 O215 1.208 . S
C217 O222 1.247 . S
C217 O223 1.208 . S
C218 O210 1.315 . S
C218 O213 1.279 . S
C219 O220 1.315 . S
C219 O221 1.279 . S
O220 Cd212 2.223 . S
O220 C219 1.315 . S
O221 Cd211 2.240 . S
O221 C219 1.279 . S
O222 Cd212 2.297 . S
O222 C217 1.247 . S
O223 Cd212 2.439 . S
O223 C217 1.208 . S
O224 Cd225 2.223 . S
O224 C232 1.315 . S
Cd225 O224 2.223 . S
Cd225 O228 2.297 . S
Cd225 O229 2.439 . S
Cd225 O235 2.240 . S
Cd226 O227 2.240 . S
Cd226 O234 2.223 . S
Cd226 O236 2.297 . S
Cd226 O237 2.439 . S
O227 Cd226 2.240 . S
O227 C232 1.279 . S
O228 Cd225 2.297 . S
O228 C230 1.247 . S
O229 Cd225 2.439 . S
O229 C230 1.208 . S
C230 O228 1.247 . S
C230 O229 1.208 . S
C231 O236 1.247 . S
C231 O237 1.208 . S
C232 O224 1.315 . S
C232 O227 1.279 . S
C233 O234 1.315 . S
C233 O235 1.279 . S
O234 Cd226 2.223 . S
O234 C233 1.315 . S
O235 Cd225 2.240 . S
O235 C233 1.279 . S
O236 Cd226 2.297 . S
O236 C231 1.247 . S
O237 Cd226 2.439 . S
O237 C231 1.208 . S
O238 Cd239 2.223 . S
O238 C246 1.315 . S
Cd239 O238 2.223 . S
Cd239 O242 2.297 . S
Cd239 O243 2.439 . S
Cd239 O249 2.240 . S
Cd240 O241 2.240 . S
Cd240 O248 2.223 . S
Cd240 O250 2.297 . S
Cd240 O251 2.439 . S
O241 Cd240 2.240 . S
O241 C246 1.279 . S
O242 Cd239 2.297 . S
O242 C244 1.247 . S
O243 Cd239 2.439 . S
O243 C244 1.208 . S
C244 O242 1.247 . S
C244 O243 1.208 . S
C245 O250 1.247 . S
C245 O251 1.208 . S
C246 O238 1.315 . S
C246 O241 1.279 . S
C247 O248 1.315 . S
C247 O249 1.279 . S
O248 Cd240 2.223 . S
O248 C247 1.315 . S
O249 Cd239 2.240 . S
O249 C247 1.279 . S
O250 Cd240 2.297 . S
O250 C245 1.247 . S
O251 Cd240 2.439 . S
O251 C245 1.208 . S
O252 Cd253 2.223 . S
O252 C260 1.315 . S
Cd253 O252 2.223 . S
Cd253 O256 2.297 . S
Cd253 O257 2.439 . S
Cd253 O263 2.240 . S
Cd254 O255 2.240 . S
Cd254 O262 2.223 . S
Cd254 O264 2.297 . S
Cd254 O265 2.439 . S
O255 Cd254 2.240 . S
O255 C260 1.279 . S
O256 Cd253 2.297 . S
O256 C258 1.247 . S
O257 Cd253 2.439 . S
O257 C258 1.208 . S
C258 O256 1.247 . S
C258 O257 1.208 . S
C259 O264 1.247 . S
C259 O265 1.208 . S
C260 O252 1.315 . S
C260 O255 1.279 . S
C261 O262 1.315 . S
C261 O263 1.279 . S
O262 Cd254 2.223 . S
O262 C261 1.315 . S
O263 Cd253 2.240 . S
O263 C261 1.279 . S
O264 Cd254 2.297 . S
O264 C259 1.247 . S
O265 Cd254 2.439 . S
O265 C259 1.208 . S
O266 Cd267 2.223 . S
O266 C274 1.315 . S
Cd267 O266 2.223 . S
Cd267 O270 2.297 . S
Cd267 O271 2.439 . S
Cd267 O277 2.240 . S
Cd268 O269 2.240 . S
Cd268 O276 2.223 . S
Cd268 O278 2.297 . S
Cd268 O279 2.439 . S
O269 Cd268 2.240 . S
O269 C274 1.279 . S
O270 Cd267 2.297 . S
O270 C272 1.247 . S
O271 Cd267 2.439 . S
O271 C272 1.208 . S
C272 O270 1.247 . S
C272 O271 1.208 . S
C273 O278 1.247 . S
C273 O279 1.208 . S
C274 O266 1.315 . S
C274 O269 1.279 . S
C275 O276 1.315 . S
C275 O277 1.279 . S
O276 Cd268 2.223 . S
O276 C275 1.315 . S
O277 Cd267 2.240 . S
O277 C275 1.279 . S
O278 Cd268 2.297 . S
O278 C273 1.247 . S
O279 Cd268 2.439 . S
O279 C273 1.208 . S
O280 Cd281 2.223 . S
O280 C288 1.315 . S
Cd281 O280 2.223 . S
Cd281 O284 2.297 . S
Cd281 O285 2.439 . S
Cd281 O291 2.240 . S
Cd282 O283 2.240 . S
Cd282 O290 2.223 . S
Cd282 O292 2.297 . S
Cd282 O293 2.439 . S
O283 Cd282 2.240 . S
O283 C288 1.279 . S
O284 Cd281 2.297 . S
O284 C286 1.247 . S
O285 Cd281 2.439 . S
O285 C286 1.208 . S
C286 O284 1.247 . S
C286 O285 1.208 . S
C287 O292 1.247 . S
C287 O293 1.208 . S
C288 O280 1.315 . S
C288 O283 1.279 . S
C289 O290 1.315 . S
C289 O291 1.279 . S
O290 Cd282 2.223 . S
O290 C289 1.315 . S
O291 Cd281 2.240 . S
O291 C289 1.279 . S
O292 Cd282 2.297 . S
O292 C287 1.247 . S
O293 Cd282 2.439 . S
O293 C287 1.208 . S
O294 Cd295 2.223 . S
O294 C302 1.315 . S
Cd295 O294 2.223 . S
Cd295 O298 2.297 . S
Cd295 O299 2.439 . S
Cd295 O305 2.240 . S
Cd296 O297 2.240 . S
Cd296 O304 2.223 . S
Cd296 O306 2.297 . S
Cd296 O307 2.439 . S
O297 Cd296 2.240 . S
O297 C302 1.279 . S
O298 Cd295 2.297 . S
O298 C300 1.247 . S
O299 Cd295 2.439 . S
O299 C300 1.208 . S
C300 O298 1.247 . S
C300 O299 1.208 . S
C301 O306 1.247 . S
C301 O307 1.208 . S
C302 O294 1.315 . S
C302 O297 1.279 . S
C303 O304 1.315 . S
C303 O305 1.279 . S
O304 Cd296 2.223 . S
O304 C303 1.315 . S
O305 Cd295 2.240 . S
O305 C303 1.279 . S
O306 Cd296 2.297 . S
O306 C301 1.247 . S
O307 Cd296 2.439 . S
O307 C301 1.208 . S
O308 Cd309 2.223 . S
O308 C316 1.315 . S
Cd309 O308 2.223 . S
Cd309 O312 2.297 . S
Cd309 O313 2.439 . S
Cd309 O319 2.240 . S
Cd310 O311 2.240 . S
Cd310 O318 2.223 . S
Cd310 O320 2.297 . S
Cd310 O321 2.439 . S
O311 Cd310 2.240 . S
O311 C316 1.279 . S
O312 Cd309 2.297 . S
O312 C314 1.247 . S
O313 Cd309 2.439 . S
O313 C314 1.208 . S
C314 O312 1.247 . S
C314 O313 1.208 . S
C315 O320 1.247 . S
C315 O321 1.208 . S
C316 O308 1.315 . S
C316 O311 1.279 . S
C317 O318 1.315 . S
C317 O319 1.279 . S
O318 Cd310 2.223 . S
O318 C317 1.315 . S
O319 Cd309 2.240 . S
O319 C317 1.279 . S
O320 Cd310 2.297 . S
O320 C315 1.247 . S
O321 Cd310 2.439 . S
O321 C315 1.208 . S
O322 Cd323 2.223 . S
O322 C330 1.315 . S
Cd323 O322 2.223 . S
Cd323 O326 2.297 . S
Cd323 O327 2.439 . S
Cd323 O333 2.240 . S
Cd324 O325 2.240 . S
Cd324 O332 2.223 . S
Cd324 O334 2.297 . S
Cd324 O335 2.439 . S
O325 Cd324 2.240 . S
O325 C330 1.279 . S
O326 Cd323 2.297 . S
O326 C328 1.247 . S
O327 Cd323 2.439 . S
O327 C328 1.208 . S
C328 O326 1.247 . S
C328 O327 1.208 . S
C329 O334 1.247 . S
C329 O335 1.208 . S
C330 O322 1.315 . S
C330 O325 1.279 . S
C331 O332 1.315 . S
C331 O333 1.279 . S
O332 Cd324 2.223 . S
O332 C331 1.315 . S
O333 Cd323 2.240 . S
O333 C331 1.279 . S
O334 Cd324 2.297 . S
O334 C329 1.247 . S
O335 Cd324 2.439 . S
O335 C329 1.208 . S
O336 Cd337 2.223 . S
O336 C344 1.315 . S
Cd337 O336 2.223 . S
Cd337 O340 2.297 . S
Cd337 O341 2.439 . S
Cd337 O347 2.240 . S
Cd338 O339 2.240 . S
Cd338 O346 2.223 . S
Cd338 O348 2.297 . S
Cd338 O349 2.439 . S
O339 Cd338 2.240 . S
O339 C344 1.279 . S
O340 Cd337 2.297 . S
O340 C342 1.247 . S
O341 Cd337 2.439 . S
O341 C342 1.208 . S
C342 O340 1.247 . S
C342 O341 1.208 . S
C343 O348 1.247 . S
C343 O349 1.208 . S
C344 O336 1.315 . S
C344 O339 1.279 . S
C345 O346 1.315 . S
C345 O347 1.279 . S
O346 Cd338 2.223 . S
O346 C345 1.315 . S
O347 Cd337 2.240 . S
O347 C345 1.279 . S
O348 Cd338 2.297 . S
O348 C343 1.247 . S
O349 Cd338 2.439 . S
O349 C343 1.208 . S
O350 Cd351 2.223 . S
O350 C358 1.315 . S
Cd351 O350 2.223 . S
Cd351 O354 2.297 . S
Cd351 O355 2.439 . S
Cd351 O361 2.240 . S
Cd352 O353 2.240 . S
Cd352 O360 2.223 . S
Cd352 O362 2.297 . S
Cd352 O363 2.439 . S
O353 Cd352 2.240 . S
O353 C358 1.279 . S
O354 Cd351 2.297 . S
O354 C356 1.247 . S
O355 Cd351 2.439 . S
O355 C356 1.208 . S
C356 O354 1.247 . S
C356 O355 1.208 . S
C357 O362 1.247 . S
C357 O363 1.208 . S
C358 O350 1.315 . S
C358 O353 1.279 . S
C359 O360 1.315 . S
C359 O361 1.279 . S
O360 Cd352 2.223 . S
O360 C359 1.315 . S
O361 Cd351 2.240 . S
O361 C359 1.279 . S
O362 Cd352 2.297 . S
O362 C357 1.247 . S
O363 Cd352 2.439 . S
O363 C357 1.208 . S
O364 Cd365 2.223 . S
O364 C372 1.315 . S
Cd365 O364 2.223 . S
Cd365 O368 2.297 . S
Cd365 O369 2.439 . S
Cd365 O375 2.240 . S
Cd366 O367 2.240 . S
Cd366 O374 2.223 . S
Cd366 O376 2.297 . S
Cd366 O377 2.439 . S
O367 Cd366 2.240 . S
O367 C372 1.279 . S
O368 Cd365 2.297 . S
O368 C370 1.247 . S
O369 Cd365 2.439 . S
O369 C370 1.208 . S
C370 O368 1.247 . S
C370 O369 1.208 . S
C371 O376 1.247 . S
C371 O377 1.208 . S
C372 O364 1.315 . S
C372 O367 1.279 . S
C373 O374 1.315 . S
C373 O375 1.279 . S
O374 Cd366 2.223 . S
O374 C373 1.315 . S
O375 Cd365 2.240 . S
O375 C373 1.279 . S
O376 Cd366 2.297 . S
O376 C371 1.247 . S
O377 Cd366 2.439 . S
O377 C371 1.208 . S
O378 Cd379 2.223 . S
O378 C386 1.315 . S
Cd379 O378 2.223 . S
Cd379 O382 2.297 . S
Cd379 O383 2.439 . S
Cd379 O389 2.240 . S
Cd380 O381 2.240 . S
Cd380 O388 2.223 . S
Cd380 O390 2.297 . S
Cd380 O391 2.439 . S
O381 Cd380 2.240 . S
O381 C386 1.279 . S
O382 Cd379 2.297 . S
O382 C384 1.247 . S
O383 Cd379 2.439 . S
O383 C384 1.208 . S
C384 O382 1.247 . S
C384 O383 1.208 . S
C385 O390 1.247 . S
C385 O391 1.208 . S
C386 O378 1.315 . S
C386 O381 1.279 . S
C387 O388 1.315 . S
C387 O389 1.279 . S
O388 Cd380 2.223 . S
O388 C387 1.315 . S
O389 Cd379 2.240 . S
O389 C387 1.279 . S
O390 Cd380 2.297 . S
O390 C385 1.247 . S
O391 Cd380 2.439 . S
O391 C385 1.208 . S
O392 Cd393 2.223 . S
O392 C400 1.315 . S
Cd393 O392 2.223 . S
Cd393 O396 2.297 . S
Cd393 O397 2.439 . S
Cd393 O403 2.240 . S
Cd394 O395 2.240 . S
Cd394 O402 2.223 . S
Cd394 O404 2.297 . S
Cd394 O405 2.439 . S
O395 Cd394 2.240 . S
O395 C400 1.279 . S
O396 Cd393 2.297 . S
O396 C398 1.247 . S
O397 Cd393 2.439 . S
O397 C398 1.208 . S
C398 O396 1.247 . S
C398 O397 1.208 . S
C399 O404 1.247 . S
C399 O405 1.208 . S
C400 O392 1.315 . S
C400 O395 1.279 . S
C401 O402 1.315 . S
C401 O403 1.279 . S
O402 Cd394 2.223 . S
O402 C401 1.315 . S
O403 Cd393 2.240 . S
O403 C401 1.279 . S
O404 Cd394 2.297 . S
O404 C399 1.247 . S
O405 Cd394 2.439 . S
O405 C399 1.208 . S
O406 Cd407 2.223 . S
O406 C414 1.315 . S
Cd407 O406 2.223 . S
Cd407 O410 2.297 . S
Cd407 O411 2.439 . S
Cd407 O417 2.240 . S
Cd408 O409 2.240 . S
Cd408 O416 2.223 . S
Cd408 O418 2.297 . S
Cd408 O419 2.439 . S
O409 Cd408 2.240 . S
O409 C414 1.279 . S
O410 Cd407 2.297 . S
O410 C412 1.247 . S
O411 Cd407 2.439 . S
O411 C412 1.208 . S
C412 O410 1.247 . S
C412 O411 1.208 . S
C413 O418 1.247 . S
C413 O419 1.208 . S
C414 O406 1.315 . S
C414 O409 1.279 . S
C415 O416 1.315 . S
C415 O417 1.279 . S
O416 Cd408 2.223 . S
O416 C415 1.315 . S
O417 Cd407 2.240 . S
O417 C415 1.279 . S
O418 Cd408 2.297 . S
O418 C413 1.247 . S
O419 Cd408 2.439 . S
O419 C413 1.208 . S
O420 Cd421 2.223 . S
O420 C428 1.315 . S
Cd421 O420 2.223 . S
Cd421 O424 2.297 . S
Cd421 O425 2.439 . S
Cd421 O431 2.240 . S
Cd422 O423 2.240 . S
Cd422 O430 2.223 . S
Cd422 O432 2.297 . S
Cd422 O433 2.439 . S
O423 Cd422 2.240 . S
O423 C428 1.279 . S
O424 Cd421 2.297 . S
O424 C426 1.247 . S
O425 Cd421 2.439 . S
O425 C426 1.208 . S
C426 O424 1.247 . S
C426 O425 1.208 . S
C427 O432 1.247 . S
C427 O433 1.208 . S
C428 O420 1.315 . S
C428 O423 1.279 . S
C429 O430 1.315 . S
C429 O431 1.279 . S
O430 Cd422 2.223 . S
O430 C429 1.315 . S
O431 Cd421 2.240 . S
O431 C429 1.279 . S
O432 Cd422 2.297 . S
O432 C427 1.247 . S
O433 Cd422 2.439 . S
O433 C427 1.208 . S
O434 Cd435 2.223 . S
O434 C442 1.315 . S
Cd435 O434 2.223 . S
Cd435 O438 2.297 . S
Cd435 O439 2.439 . S
Cd435 O445 2.240 . S
Cd436 O437 2.240 . S
Cd436 O444 2.223 . S
Cd436 O446 2.297 . S
Cd436 O447 2.439 . S
O437 Cd436 2.240 . S
O437 C442 1.279 . S
O438 Cd435 2.297 . S
O438 C440 1.247 . S
O439 Cd435 2.439 . S
O439 C440 1.208 . S
C440 O438 1.247 . S
C440 O439 1.208 . S
C441 O446 1.247 . S
C441 O447 1.208 . S
C442 O434 1.315 . S
C442 O437 1.279 . S
C443 O444 1.315 . S
C443 O445 1.279 . S
O444 Cd436 2.223 . S
O444 C443 1.315 . S
O445 Cd435 2.240 . S
O445 C443 1.279 . S
O446 Cd436 2.297 . S
O446 C441 1.247 . S
O447 Cd436 2.439 . S
O447 C441 1.208 . S
O448 Cd449 2.223 . S
O448 C456 1.315 . S
Cd449 O448 2.223 . S
Cd449 O452 2.297 . S
Cd449 O453 2.439 . S
Cd449 O459 2.240 . S
Cd450 O451 2.240 . S
Cd450 O458 2.223 . S
Cd450 O460 2.297 . S
Cd450 O461 2.439 . S
O451 Cd450 2.240 . S
O451 C456 1.279 . S
O452 Cd449 2.297 . S
O452 C454 1.247 . S
O453 Cd449 2.439 . S
O453 C454 1.208 . S
C454 O452 1.247 . S
C454 O453 1.208 . S
C455 O460 1.247 . S
C455 O461 1.208 . S
C456 O448 1.315 . S
C456 O451 1.279 . S
C457 O458 1.315 . S
C457 O459 1.279 . S
O458 Cd450 2.223 . S
O458 C457 1.315 . S
O459 Cd449 2.240 . S
O459 C457 1.279 . S
O460 Cd450 2.297 . S
O460 C455 1.247 . S
O461 Cd450 2.439 . S
O461 C455 1.208 . S
O462 Cd463 2.223 . S
O462 C470 1.315 . S
Cd463 O462 2.223 . S
Cd463 O466 2.297 . S
Cd463 O467 2.439 . S
Cd463 O473 2.240 . S
Cd464 O465 2.240 . S
Cd464 O472 2.223 . S
Cd464 O474 2.297 . S
Cd464 O475 2.439 . S
O465 Cd464 2.240 . S
O465 C470 1.279 . S
O466 Cd463 2.297 . S
O466 C468 1.247 . S
O467 Cd463 2.439 . S
O467 C468 1.208 . S
C468 O466 1.247 . S
C468 O467 1.208 . S
C469 O474 1.247 . S
C469 O475 1.208 . S
C470 O462 1.315 . S
C470 O465 1.279 . S
C471 O472 1.315 . S
C471 O473 1.279 . S
O472 Cd464 2.223 . S
O472 C471 1.315 . S
O473 Cd463 2.240 . S
O473 C471 1.279 . S
O474 Cd464 2.297 . S
O474 C469 1.247 . S
O475 Cd464 2.439 . S
O475 C469 1.208 . S
O476 Cd477 2.223 . S
O476 C484 1.315 . S
Cd477 O476 2.223 . S
Cd477 O480 2.297 . S
Cd477 O481 2.439 . S
Cd477 O487 2.240 . S
Cd478 O479 2.240 . S
Cd478 O486 2.223 . S
Cd478 O488 2.297 . S
Cd478 O489 2.439 . S
O479 Cd478 2.240 . S
O479 C484 1.279 . S
O480 Cd477 2.297 . S
O480 C482 1.247 . S
O481 Cd477 2.439 . S
O481 C482 1.208 . S
C482 O480 1.247 . S
C482 O481 1.208 . S
C483 O488 1.247 . S
C483 O489 1.208 . S
C484 O476 1.315 . S
C484 O479 1.279 . S
C485 O486 1.315 . S
C485 O487 1.279 . S
O486 Cd478 2.223 . S
O486 C485 1.315 . S
O487 Cd477 2.240 . S
O487 C485 1.279 . S
O488 Cd478 2.297 . S
O488 C483 1.247 . S
O489 Cd478 2.439 . S
O489 C483 1.208 . S
O490 Cd491 2.223 . S
O490 C498 1.315 . S
Cd491 O490 2.223 . S
Cd491 O494 2.297 . S
Cd491 O495 2.439 . S
Cd491 O501 2.240 . S
Cd492 O493 2.240 . S
Cd492 O500 2.223 . S
Cd492 O502 2.297 . S
Cd492 O503 2.439 . S
O493 Cd492 2.240 . S
O493 C498 1.279 . S
O494 Cd491 2.297 . S
O494 C496 1.247 . S
O495 Cd491 2.439 . S
O495 C496 1.208 . S
C496 O494 1.247 . S
C496 O495 1.208 . S
C497 O502 1.247 . S
C497 O503 1.208 . S
C498 O490 1.315 . S
C498 O493 1.279 . S
C499 O500 1.315 . S
C499 O501 1.279 . S
O500 Cd492 2.223 . S
O500 C499 1.315 . S
O501 Cd491 2.240 . S
O501 C499 1.279 . S
O502 Cd492 2.297 . S
O502 C497 1.247 . S
O503 Cd492 2.439 . S
O503 C497 1.208 . S
H504 C510 0.930 . S
H505 C513 0.930 . S
H506 C514 0.930 . S
H507 C515 0.930 . S
H508 C518 0.930 . S
H509 C519 0.930 . S
C510 H504 0.930 . S
C510 C511 1.355 . S
C510 C512 1.415 . S
C511 C510 1.355 . S
C511 C513 1.419 . S
C512 C510 1.415 . S
C512 C517 1.425 . S
C512 C519 1.409 . S
C513 H505 0.930 . S
C513 C511 1.419 . S
C513 C514 1.362 . S
C514 H506 0.930 . S
C514 C513 1.362 . S
C514 C517 1.409 . S
C515 H507 0.930 . S
C515 C516 1.355 . S
C515 C517 1.415 . S
C516 C515 1.355 . S
C516 C518 1.419 . S
C517 C512 1.425 . S
C517 C514 1.409 . S
C517 C515 1.415 . S
C518 H508 0.930 . S
C518 C516 1.419 . S
C518 C519 1.362 . S
C519 H509 0.930 . S
C519 C512 1.409 . S
C519 C518 1.362 . S
H520 C526 0.930 . S
H521 C529 0.930 . S
H522 C530 0.930 . S
H523 C531 0.930 . S
H524 C534 0.930 . S
H525 C535 0.930 . S
C526 H520 0.930 . S
C526 C527 1.355 . S
C526 C528 1.415 . S
C527 C526 1.355 . S
C527 C529 1.419 . S
C528 C526 1.415 . S
C528 C533 1.425 . S
C528 C535 1.409 . S
C529 H521 0.930 . S
C529 C527 1.419 . S
C529 C530 1.362 . S
C530 H522 0.930 . S
C530 C529 1.362 . S
C530 C533 1.409 . S
C531 H523 0.930 . S
C531 C532 1.355 . S
C531 C533 1.415 . S
C532 C531 1.355 . S
C532 C534 1.419 . S
C533 C528 1.425 . S
C533 C530 1.409 . S
C533 C531 1.415 . S
C534 H524 0.930 . S
C534 C532 1.419 . S
C534 C535 1.362 . S
C535 H525 0.930 . S
C535 C528 1.409 . S
C535 C534 1.362 . S
H536 C542 0.930 . S
H537 C545 0.930 . S
H538 C546 0.930 . S
H539 C547 0.930 . S
H540 C550 0.930 . S
H541 C551 0.930 . S
C542 H536 0.930 . S
C542 C543 1.355 . S
C542 C544 1.415 . S
C543 C542 1.355 . S
C543 C545 1.419 . S
C544 C542 1.415 . S
C544 C549 1.425 . S
C544 C551 1.409 . S
C545 H537 0.930 . S
C545 C543 1.419 . S
C545 C546 1.362 . S
C546 H538 0.930 . S
C546 C545 1.362 . S
C546 C549 1.409 . S
C547 H539 0.930 . S
C547 C548 1.355 . S
C547 C549 1.415 . S
C548 C547 1.355 . S
C548 C550 1.419 . S
C549 C544 1.425 . S
C549 C546 1.409 . S
C549 C547 1.415 . S
C550 H540 0.930 . S
C550 C548 1.419 . S
C550 C551 1.362 . S
C551 H541 0.930 . S
C551 C544 1.409 . S
C551 C550 1.362 . S
H552 C558 0.930 . S
H553 C561 0.930 . S
H554 C562 0.930 . S
H555 C563 0.930 . S
H556 C566 0.930 . S
H557 C567 0.930 . S
C558 H552 0.930 . S
C558 C559 1.355 . S
C558 C560 1.415 . S
C559 C558 1.355 . S
C559 C561 1.419 . S
C560 C558 1.415 . S
C560 C565 1.425 . S
C560 C567 1.409 . S
C561 H553 0.930 . S
C561 C559 1.419 . S
C561 C562 1.362 . S
C562 H554 0.930 . S
C562 C561 1.362 . S
C562 C565 1.409 . S
C563 H555 0.930 . S
C563 C564 1.355 . S
C563 C565 1.415 . S
C564 C563 1.355 . S
C564 C566 1.419 . S
C565 C560 1.425 . S
C565 C562 1.409 . S
C565 C563 1.415 . S
C566 H556 0.930 . S
C566 C564 1.419 . S
C566 C567 1.362 . S
C567 H557 0.930 . S
C567 C560 1.409 . S
C567 C566 1.362 . S
H568 C574 0.930 . S
H569 C577 0.930 . S
H570 C578 0.930 . S
H571 C579 0.930 . S
H572 C582 0.930 . S
H573 C583 0.930 . S
C574 H568 0.930 . S
C574 C575 1.355 . S
C574 C576 1.415 . S
C575 C574 1.355 . S
C575 C577 1.419 . S
C576 C574 1.415 . S
C576 C581 1.425 . S
C576 C583 1.409 . S
C577 H569 0.930 . S
C577 C575 1.419 . S
C577 C578 1.362 . S
C578 H570 0.930 . S
C578 C577 1.362 . S
C578 C581 1.409 . S
C579 H571 0.930 . S
C579 C580 1.355 . S
C579 C581 1.415 . S
C580 C579 1.355 . S
C580 C582 1.419 . S
C581 C576 1.425 . S
C581 C578 1.409 . S
C581 C579 1.415 . S
C582 H572 0.930 . S
C582 C580 1.419 . S
C582 C583 1.362 . S
C583 H573 0.930 . S
C583 C576 1.409 . S
C583 C582 1.362 . S
H584 C590 0.930 . S
H585 C593 0.930 . S
H586 C594 0.930 . S
H587 C595 0.930 . S
H588 C598 0.930 . S
H589 C599 0.930 . S
C590 H584 0.930 . S
C590 C591 1.355 . S
C590 C592 1.415 . S
C591 C590 1.355 . S
C591 C593 1.419 . S
C592 C590 1.415 . S
C592 C597 1.425 . S
C592 C599 1.409 . S
C593 H585 0.930 . S
C593 C591 1.419 . S
C593 C594 1.362 . S
C594 H586 0.930 . S
C594 C593 1.362 . S
C594 C597 1.409 . S
C595 H587 0.930 . S
C595 C596 1.355 . S
C595 C597 1.415 . S
C596 C595 1.355 . S
C596 C598 1.419 . S
C597 C592 1.425 . S
C597 C594 1.409 . S
C597 C595 1.415 . S
C598 H588 0.930 . S
C598 C596 1.419 . S
C598 C599 1.362 . S
C599 H589 0.930 . S
C599 C592 1.409 . S
C599 C598 1.362 . S
H600 C606 0.930 . S
H601 C609 0.930 . S
H602 C610 0.930 . S
H603 C611 0.930 . S
H604 C614 0.930 . S
H605 C615 0.930 . S
C606 H600 0.930 . S
C606 C607 1.355 . S
C606 C608 1.415 . S
C607 C606 1.355 . S
C607 C609 1.419 . S
C608 C606 1.415 . S
C608 C613 1.425 . S
C608 C615 1.409 . S
C609 H601 0.930 . S
C609 C607 1.419 . S
C609 C610 1.362 . S
C610 H602 0.930 . S
C610 C609 1.362 . S
C610 C613 1.409 . S
C611 H603 0.930 . S
C611 C612 1.355 . S
C611 C613 1.415 . S
C612 C611 1.355 . S
C612 C614 1.419 . S
C613 C608 1.425 . S
C613 C610 1.409 . S
C613 C611 1.415 . S
C614 H604 0.930 . S
C614 C612 1.419 . S
C614 C615 1.362 . S
C615 H605 0.930 . S
C615 C608 1.409 . S
C615 C614 1.362 . S
H616 C622 0.930 . S
H617 C625 0.930 . S
H618 C626 0.930 . S
H619 C627 0.930 . S
H620 C630 0.930 . S
H621 C631 0.930 . S
C622 H616 0.930 . S
C622 C623 1.355 . S
C622 C624 1.415 . S
C623 C622 1.355 . S
C623 C625 1.419 . S
C624 C622 1.415 . S
C624 C629 1.425 . S
C624 C631 1.409 . S
C625 H617 0.930 . S
C625 C623 1.419 . S
C625 C626 1.362 . S
C626 H618 0.930 . S
C626 C625 1.362 . S
C626 C629 1.409 . S
C627 H619 0.930 . S
C627 C628 1.355 . S
C627 C629 1.415 . S
C628 C627 1.355 . S
C628 C630 1.419 . S
C629 C624 1.425 . S
C629 C626 1.409 . S
C629 C627 1.415 . S
C630 H620 0.930 . S
C630 C628 1.419 . S
C630 C631 1.362 . S
C631 H621 0.930 . S
C631 C624 1.409 . S
C631 C630 1.362 . S
H632 C638 0.930 . S
H633 C641 0.930 . S
H634 C642 0.930 . S
H635 C643 0.930 . S
H636 C646 0.930 . S
H637 C647 0.930 . S
C638 H632 0.930 . S
C638 C639 1.355 . S
C638 C640 1.415 . S
C639 C638 1.355 . S
C639 C641 1.419 . S
C640 C638 1.415 . S
C640 C645 1.425 . S
C640 C647 1.409 . S
C641 H633 0.930 . S
C641 C639 1.419 . S
C641 C642 1.362 . S
C642 H634 0.930 . S
C642 C641 1.362 . S
C642 C645 1.409 . S
C643 H635 0.930 . S
C643 C644 1.355 . S
C643 C645 1.415 . S
C644 C643 1.355 . S
C644 C646 1.419 . S
C645 C640 1.425 . S
C645 C642 1.409 . S
C645 C643 1.415 . S
C646 H636 0.930 . S
C646 C644 1.419 . S
C646 C647 1.362 . S
C647 H637 0.930 . S
C647 C640 1.409 . S
C647 C646 1.362 . S
H648 C654 0.930 . S
H649 C657 0.930 . S
H650 C658 0.930 . S
H651 C659 0.930 . S
H652 C662 0.930 . S
H653 C663 0.930 . S
C654 H648 0.930 . S
C654 C655 1.355 . S
C654 C656 1.415 . S
C655 C654 1.355 . S
C655 C657 1.419 . S
C656 C654 1.415 . S
C656 C661 1.425 . S
C656 C663 1.409 . S
C657 H649 0.930 . S
C657 C655 1.419 . S
C657 C658 1.362 . S
C658 H650 0.930 . S
C658 C657 1.362 . S
C658 C661 1.409 . S
C659 H651 0.930 . S
C659 C660 1.355 . S
C659 C661 1.415 . S
C660 C659 1.355 . S
C660 C662 1.419 . S
C661 C656 1.425 . S
C661 C658 1.409 . S
C661 C659 1.415 . S
C662 H652 0.930 . S
C662 C660 1.419 . S
C662 C663 1.362 . S
C663 H653 0.930 . S
C663 C656 1.409 . S
C663 C662 1.362 . S
H664 C670 0.930 . S
H665 C673 0.930 . S
H666 C674 0.930 . S
H667 C675 0.930 . S
H668 C678 0.930 . S
H669 C679 0.930 . S
C670 H664 0.930 . S
C670 C671 1.355 . S
C670 C672 1.415 . S
C671 C670 1.355 . S
C671 C673 1.419 . S
C672 C670 1.415 . S
C672 C677 1.425 . S
C672 C679 1.409 . S
C673 H665 0.930 . S
C673 C671 1.419 . S
C673 C674 1.362 . S
C674 H666 0.930 . S
C674 C673 1.362 . S
C674 C677 1.409 . S
C675 H667 0.930 . S
C675 C676 1.355 . S
C675 C677 1.415 . S
C676 C675 1.355 . S
C676 C678 1.419 . S
C677 C672 1.425 . S
C677 C674 1.409 . S
C677 C675 1.415 . S
C678 H668 0.930 . S
C678 C676 1.419 . S
C678 C679 1.362 . S
C679 H669 0.930 . S
C679 C672 1.409 . S
C679 C678 1.362 . S
H680 C686 0.930 . S
H681 C689 0.930 . S
H682 C690 0.930 . S
H683 C691 0.930 . S
H684 C694 0.930 . S
H685 C695 0.930 . S
C686 H680 0.930 . S
C686 C687 1.355 . S
C686 C688 1.415 . S
C687 C686 1.355 . S
C687 C689 1.419 . S
C688 C686 1.415 . S
C688 C693 1.425 . S
C688 C695 1.409 . S
C689 H681 0.930 . S
C689 C687 1.419 . S
C689 C690 1.362 . S
C690 H682 0.930 . S
C690 C689 1.362 . S
C690 C693 1.409 . S
C691 H683 0.930 . S
C691 C692 1.355 . S
C691 C693 1.415 . S
C692 C691 1.355 . S
C692 C694 1.419 . S
C693 C688 1.425 . S
C693 C690 1.409 . S
C693 C691 1.415 . S
C694 H684 0.930 . S
C694 C692 1.419 . S
C694 C695 1.362 . S
C695 H685 0.930 . S
C695 C688 1.409 . S
C695 C694 1.362 . S
H696 C702 0.930 . S
H697 C705 0.930 . S
H698 C706 0.930 . S
H699 C707 0.930 . S
H700 C710 0.930 . S
H701 C711 0.930 . S
C702 H696 0.930 . S
C702 C703 1.355 . S
C702 C704 1.415 . S
C703 C702 1.355 . S
C703 C705 1.419 . S
C704 C702 1.415 . S
C704 C709 1.425 1_655 S
C704 C711 1.409 . S
C705 H697 0.930 . S
C705 C703 1.419 . S
C705 C706 1.362 1_655 S
C706 H698 0.930 . S
C706 C705 1.362 1_455 S
C706 C709 1.409 . S
C707 H699 0.930 . S
C707 C708 1.355 . S
C707 C709 1.415 . S
C708 C707 1.355 . S
C708 C710 1.419 . S
C709 C704 1.425 1_455 S
C709 C706 1.409 . S
C709 C707 1.415 . S
C710 H700 0.930 . S
C710 C708 1.419 . S
C710 C711 1.362 1_455 S
C711 H701 0.930 . S
C711 C704 1.409 . S
C711 C710 1.362 1_655 S
H712 C718 0.930 . S
H713 C721 0.930 . S
H714 C722 0.930 . S
H715 C723 0.930 . S
H716 C726 0.930 . S
H717 C727 0.930 . S
C718 H712 0.930 . S
C718 C719 1.355 . S
C718 C720 1.415 . S
C719 C718 1.355 . S
C719 C721 1.419 . S
C720 C718 1.415 . S
C720 C725 1.425 . S
C720 C727 1.409 . S
C721 H713 0.930 . S
C721 C719 1.419 . S
C721 C722 1.362 . S
C722 H714 0.930 . S
C722 C721 1.362 . S
C722 C725 1.409 . S
C723 H715 0.930 . S
C723 C724 1.355 . S
C723 C725 1.415 . S
C724 C723 1.355 . S
C724 C726 1.419 . S
C725 C720 1.425 . S
C725 C722 1.409 . S
C725 C723 1.415 . S
C726 H716 0.930 . S
C726 C724 1.419 . S
C726 C727 1.362 . S
C727 H717 0.930 . S
C727 C720 1.409 . S
C727 C726 1.362 . S
H728 C734 0.930 1_565 S
H729 C737 0.930 . S
H730 C738 0.930 . S
H731 C739 0.930 1_545 S
H732 C742 0.930 . S
H733 C743 0.930 . S
C734 H728 0.930 1_545 S
C734 C735 1.355 . S
C734 C736 1.415 1_545 S
C735 C734 1.355 . S
C735 C737 1.419 . S
C736 C734 1.415 1_565 S
C736 C741 1.425 1_565 S
C736 C743 1.409 . S
C737 H729 0.930 . S
C737 C735 1.419 . S
C737 C738 1.362 . S
C738 H730 0.930 . S
C738 C737 1.362 . S
C738 C741 1.409 . S
C739 H731 0.930 1_565 S
C739 C740 1.355 . S
C739 C741 1.415 1_565 S
C740 C739 1.355 . S
C740 C742 1.419 . S
C741 C736 1.425 1_545 S
C741 C738 1.409 . S
C741 C739 1.415 1_545 S
C742 H732 0.930 . S
C742 C740 1.419 . S
C742 C743 1.362 . S
C743 H733 0.930 . S
C743 C736 1.409 . S
C743 C742 1.362 . S
H744 C750 0.930 1_565 S
H745 C753 0.930 . S
H746 C754 0.930 . S
H747 C755 0.930 1_545 S
H748 C758 0.930 . S
H749 C759 0.930 . S
C750 H744 0.930 1_545 S
C750 C751 1.355 . S
C750 C752 1.415 1_545 S
C751 C750 1.355 . S
C751 C753 1.419 . S
C752 C750 1.415 1_565 S
C752 C757 1.425 1_566 S
C752 C759 1.409 . S
C753 H745 0.930 . S
C753 C751 1.419 . S
C753 C754 1.362 1_556 S
C754 H746 0.930 . S
C754 C753 1.362 1_554 S
C754 C757 1.409 . S
C755 H747 0.930 1_565 S
C755 C756 1.355 . S
C755 C757 1.415 1_565 S
C756 C755 1.355 . S
C756 C758 1.419 . S
C757 C752 1.425 1_544 S
C757 C754 1.409 . S
C757 C755 1.415 1_545 S
C758 H748 0.930 . S
C758 C756 1.419 . S
C758 C759 1.362 1_554 S
C759 H749 0.930 . S
C759 C752 1.409 . S
C759 C758 1.362 1_556 S
H760 C766 0.930 . S
H761 C769 0.930 . S
H762 C770 0.930 . S
H763 C771 0.930 . S
H764 C774 0.930 . S
H765 C775 0.930 . S
C766 H760 0.930 . S
C766 C767 1.355 . S
C766 C768 1.415 1_556 S
C767 C766 1.355 . S
C767 C769 1.419 . S
C768 C766 1.415 1_554 S
C768 C773 1.425 1_654 S
C768 C775 1.409 . S
C769 H761 0.930 . S
C769 C767 1.419 . S
C769 C770 1.362 1_655 S
C770 H762 0.930 . S
C770 C769 1.362 1_455 S
C770 C773 1.409 . S
C771 H763 0.930 . S
C771 C772 1.355 . S
C771 C773 1.415 1_554 S
C772 C771 1.355 . S
C772 C774 1.419 . S
C773 C768 1.425 1_456 S
C773 C770 1.409 . S
C773 C771 1.415 1_556 S
C774 H764 0.930 . S
C774 C772 1.419 . S
C774 C775 1.362 1_455 S
C775 H765 0.930 . S
C775 C768 1.409 . S
C775 C774 1.362 1_655 S
H776 C782 0.930 . S
H777 C785 0.930 . S
H778 C786 0.930 . S
H779 C787 0.930 . S
H780 C790 0.930 . S
H781 C791 0.930 . S
C782 H776 0.930 . S
C782 C783 1.355 . S
C782 C784 1.415 1_556 S
C783 C782 1.355 . S
C783 C785 1.419 . S
C784 C782 1.415 1_554 S
C784 C789 1.425 1_554 S
C784 C791 1.409 . S
C785 H777 0.930 . S
C785 C783 1.419 . S
C785 C786 1.362 . S
C786 H778 0.930 . S
C786 C785 1.362 . S
C786 C789 1.409 . S
C787 H779 0.930 . S
C787 C788 1.355 . S
C787 C789 1.415 1_554 S
C788 C787 1.355 . S
C788 C790 1.419 . S
C789 C784 1.425 1_556 S
C789 C786 1.409 . S
C789 C787 1.415 1_556 S
C790 H780 0.930 . S
C790 C788 1.419 . S
C790 C791 1.362 . S
C791 H781 0.930 . S
C791 C784 1.409 . S
C791 C790 1.362 . S
H792 C798 0.930 . S
H793 C801 0.933 . S
H794 C802 0.930 . S
H795 C803 0.930 . S
H796 C806 0.930 . S
H797 C807 0.930 . S
C798 H792 0.930 . S
C798 C799 1.355 1_545 S
C798 C800 1.415 . S
C799 C798 1.355 1_565 S
C799 C801 1.432 . S
C800 C798 1.415 . S
C800 C805 1.425 . S
C800 C807 1.409 . S
C801 H793 0.933 . S
C801 C799 1.432 . S
C801 C802 1.346 1_565 S
C802 H794 0.930 . S
C802 C801 1.346 1_545 S
C802 C805 1.409 . S
C803 H795 0.930 . S
C803 C804 1.355 . S
C803 C805 1.415 1_554 S
C804 C803 1.355 . S
C804 C806 1.419 . S
C805 C800 1.425 . S
C805 C802 1.409 . S
C805 C803 1.415 1_556 S
C806 H796 0.930 . S
C806 C804 1.419 . S
C806 C807 1.362 1_554 S
C807 H797 0.930 . S
C807 C800 1.409 . S
C807 C806 1.362 1_556 S
H808 C814 0.930 . S
H809 C817 0.930 . S
H810 C818 0.930 . S
H811 C819 0.930 . S
H812 C822 0.930 . S
H813 C823 0.930 . S
C814 H808 0.930 . S
C814 C815 1.355 1_655 S
C814 C816 1.415 . S
C815 C814 1.355 1_455 S
C815 C817 1.419 . S
C816 C814 1.415 . S
C816 C821 1.425 . S
C816 C823 1.409 . S
C817 H809 0.930 . S
C817 C815 1.419 . S
C817 C818 1.362 1_455 S
C818 H810 0.930 . S
C818 C817 1.362 1_655 S
C818 C821 1.409 . S
C819 H811 0.930 . S
C819 C820 1.355 . S
C819 C821 1.415 1_554 S
C820 C819 1.355 . S
C820 C822 1.419 . S
C821 C816 1.425 . S
C821 C818 1.409 . S
C821 C819 1.415 1_556 S
C822 H812 0.930 . S
C822 C820 1.419 . S
C822 C823 1.362 1_554 S
C823 H813 0.930 . S
C823 C816 1.409 . S
C823 C822 1.362 1_556 S
H824 C830 0.930 . S
H825 C833 0.930 . S
H826 C834 0.930 . S
H827 C835 0.930 . S
H828 C838 0.930 . S
H829 C839 0.930 . S
C830 H824 0.930 . S
C830 C831 1.355 . S
C830 C832 1.415 1_554 S
C831 C830 1.355 . S
C831 C833 1.419 . S
C832 C830 1.415 1_556 S
C832 C837 1.425 . S
C832 C839 1.409 . S
C833 H825 0.930 . S
C833 C831 1.419 . S
C833 C834 1.362 1_554 S
C834 H826 0.930 . S
C834 C833 1.362 1_556 S
C834 C837 1.409 . S
C835 H827 0.930 . S
C835 C836 1.355 . S
C835 C837 1.415 . S
C836 C835 1.355 . S
C836 C838 1.419 . S
C837 C832 1.425 . S
C837 C834 1.409 . S
C837 C835 1.415 . S
C838 H828 0.930 . S
C838 C836 1.419 . S
C838 C839 1.362 . S
C839 H829 0.930 . S
C839 C832 1.409 . S
C839 C838 1.362 . S
H840 C846 0.930 . S
H841 C849 0.930 . S
H842 C850 0.930 . S
H843 C851 0.930 . S
H844 C854 0.930 . S
H845 C855 0.930 . S
C846 H840 0.930 . S
C846 C847 1.355 1_455 S
C846 C848 1.415 . S
C847 C846 1.355 1_655 S
C847 C849 1.419 . S
C848 C846 1.415 . S
C848 C853 1.425 . S
C848 C855 1.409 . S
C849 H841 0.930 . S
C849 C847 1.419 . S
C849 C850 1.362 1_655 S
C850 H842 0.930 . S
C850 C849 1.362 1_455 S
C850 C853 1.409 . S
C851 H843 0.930 . S
C851 C852 1.355 . S
C851 C853 1.415 . S
C852 C851 1.355 . S
C852 C854 1.419 . S
C853 C848 1.425 . S
C853 C850 1.409 . S
C853 C851 1.415 . S
C854 H844 0.930 . S
C854 C852 1.419 . S
C854 C855 1.362 . S
C855 H845 0.930 . S
C855 C848 1.409 . S
C855 C854 1.362 . S
H856 C862 0.930 . S
H857 C865 0.930 . S
H858 C866 0.930 . S
H859 C867 0.930 . S
H860 C870 0.930 . S
H861 C871 0.930 . S
C862 H856 0.930 . S
C862 C863 1.355 . S
C862 C864 1.415 . S
C863 C862 1.355 . S
C863 C865 1.419 . S
C864 C862 1.415 . S
C864 C869 1.425 . S
C864 C871 1.409 . S
C865 H857 0.930 . S
C865 C863 1.419 . S
C865 C866 1.362 . S
C866 H858 0.930 . S
C866 C865 1.362 . S
C866 C869 1.409 . S
C867 H859 0.930 . S
C867 C868 1.355 . S
C867 C869 1.415 . S
C868 C867 1.355 . S
C868 C870 1.419 . S
C869 C864 1.425 . S
C869 C866 1.409 . S
C869 C867 1.415 . S
C870 H860 0.930 . S
C870 C868 1.419 . S
C870 C871 1.362 . S
C871 H861 0.930 . S
C871 C864 1.409 . S
C871 C870 1.362 . S
H872 C878 0.930 . S
H873 C881 0.930 . S
H874 C882 0.930 . S
H875 C883 0.930 . S
H876 C886 0.930 . S
H877 C887 0.930 . S
C878 H872 0.930 . S
C878 C879 1.355 1_565 S
C878 C880 1.415 . S
C879 C878 1.355 1_545 S
C879 C881 1.419 . S
C880 C878 1.415 . S
C880 C885 1.425 . S
C880 C887 1.409 . S
C881 H873 0.930 . S
C881 C879 1.419 . S
C881 C882 1.362 1_545 S
C882 H874 0.930 . S
C882 C881 1.362 1_565 S
C882 C885 1.409 . S
C883 H875 0.930 . S
C883 C884 1.355 . S
C883 C885 1.415 . S
C884 C883 1.355 . S
C884 C886 1.419 . S
C885 C880 1.425 . S
C885 C882 1.409 . S
C885 C883 1.415 . S
C886 H876 0.930 . S
C886 C884 1.419 . S
C886 C887 1.362 . S
C887 H877 0.930 . S
C887 C880 1.409 . S
C887 C886 1.362 . S
H888 C894 0.930 . S
H889 C897 0.930 . S
H890 C898 0.930 . S
H891 C899 0.930 . S
H892 C902 0.930 . S
H893 C903 0.931 . S
C894 H888 0.930 . S
C894 C895 1.355 . S
C894 C896 1.415 . S
C895 C894 1.355 . S
C895 C897 1.419 1_556 S
C896 C894 1.415 . S
C896 C901 1.425 1_556 S
C896 C903 1.409 . S
C897 H889 0.930 . S
C897 C895 1.419 1_554 S
C897 C898 1.362 . S
C898 H890 0.930 . S
C898 C897 1.362 . S
C898 C901 1.409 . S
C899 H891 0.930 . S
C899 C900 1.355 1_565 S
C899 C901 1.415 . S
C900 C899 1.355 1_545 S
C900 C902 1.419 . S
C901 C896 1.425 1_554 S
C901 C898 1.409 . S
C901 C899 1.415 . S
C902 H892 0.930 . S
C902 C900 1.419 . S
C902 C903 1.362 1_544 S
C903 H893 0.931 . S
C903 C896 1.409 . S
C903 C902 1.362 1_566 S
H904 C910 0.930 . S
H905 C913 0.930 . S
H906 C914 0.930 . S
H907 C915 0.930 1_655 S
H908 C918 0.930 . S
H909 C919 0.930 . S
C910 H904 0.930 . S
C910 C911 1.355 1_554 S
C910 C912 1.415 . S
C911 C910 1.355 1_556 S
C911 C913 1.419 . S
C912 C910 1.415 . S
C912 C917 1.425 . S
C912 C919 1.409 . S
C913 H905 0.930 . S
C913 C911 1.419 . S
C913 C914 1.362 . S
C914 H906 0.930 . S
C914 C913 1.362 . S
C914 C917 1.409 1_556 S
C915 H907 0.930 1_455 S
C915 C916 1.355 1_455 S
C915 C917 1.415 . S
C916 C915 1.355 1_655 S
C916 C918 1.419 1_655 S
C917 C912 1.425 . S
C917 C914 1.409 1_554 S
C917 C915 1.415 . S
C918 H908 0.930 . S
C918 C916 1.419 1_455 S
C918 C919 1.362 . S
C919 H909 0.930 . S
C919 C912 1.409 . S
C919 C918 1.362 . S
H920 C926 0.930 . S
H921 C929 0.930 . S
H922 C930 0.930 . S
H923 C931 0.930 . S
H924 C934 0.930 . S
H925 C935 0.930 . S
C926 H920 0.930 . S
C926 C927 1.355 . S
C926 C928 1.414 . S
C927 C926 1.355 . S
C927 C929 1.419 1_556 S
C928 C926 1.414 . S
C928 C933 1.426 1_556 S
C928 C935 1.409 . S
C929 H921 0.930 . S
C929 C927 1.419 1_554 S
C929 C930 1.362 . S
C930 H922 0.930 . S
C930 C929 1.362 . S
C930 C933 1.409 . S
C931 H923 0.930 . S
C931 C932 1.355 . S
C931 C933 1.415 . S
C932 C931 1.355 . S
C932 C934 1.419 . S
C933 C928 1.426 1_554 S
C933 C930 1.409 . S
C933 C931 1.415 . S
C934 H924 0.930 . S
C934 C932 1.419 . S
C934 C935 1.362 1_554 S
C935 H925 0.930 . S
C935 C928 1.409 . S
C935 C934 1.362 1_556 S
H936 C942 0.930 . S
H937 C945 0.930 . S
H938 C946 0.930 . S
H939 C947 0.930 1_455 S
H940 C950 0.930 1_455 S
H941 C951 0.930 . S
C942 H936 0.930 . S
C942 C943 1.355 . S
C942 C944 1.415 . S
C943 C942 1.355 . S
C943 C945 1.419 . S
C944 C942 1.415 . S
C944 C949 1.425 . S
C944 C951 1.409 . S
C945 H937 0.930 . S
C945 C943 1.419 . S
C945 C946 1.362 . S
C946 H938 0.930 . S
C946 C945 1.362 . S
C946 C949 1.409 . S
C947 H939 0.930 1_655 S
C947 C948 1.355 1_655 S
C947 C949 1.415 . S
C948 C947 1.355 1_455 S
C948 C950 1.419 1_455 S
C949 C944 1.425 . S
C949 C946 1.409 . S
C949 C947 1.415 . S
C950 H940 0.930 1_655 S
C950 C948 1.419 1_655 S
C950 C951 1.362 . S
C951 H941 0.930 . S
C951 C944 1.409 . S
C951 C950 1.362 . S
H952 C958 0.930 . S
H953 C961 0.930 . S
H954 C962 0.930 . S
H955 C963 0.930 . S
H956 C966 0.930 . S
H957 C967 0.930 . S
C958 H952 0.930 . S
C958 C959 1.355 . S
C958 C960 1.415 . S
C959 C958 1.355 . S
C959 C961 1.419 . S
C960 C958 1.415 . S
C960 C965 1.425 . S
C960 C967 1.409 . S
C961 H953 0.930 . S
C961 C959 1.419 . S
C961 C962 1.362 . S
C962 H954 0.930 . S
C962 C961 1.362 . S
C962 C965 1.409 . S
C963 H955 0.930 . S
C963 C964 1.355 . S
C963 C965 1.415 . S
C964 C963 1.355 . S
C964 C966 1.419 . S
C965 C960 1.425 . S
C965 C962 1.409 . S
C965 C963 1.415 . S
C966 H956 0.930 . S
C966 C964 1.419 . S
C966 C967 1.362 . S
C967 H957 0.930 . S
C967 C960 1.409 . S
C967 C966 1.362 . S
H968 C974 0.930 . S
H969 C977 0.930 . S
H970 C978 0.930 . S
H971 C979 0.930 . S
H972 C982 0.930 . S
H973 C983 0.930 . S
C974 H968 0.930 . S
C974 C975 1.355 1_545 S
C974 C976 1.415 . S
C975 C974 1.355 1_565 S
C975 C977 1.419 . S
C976 C974 1.415 . S
C976 C981 1.425 . S
C976 C983 1.409 . S
C977 H969 0.930 . S
C977 C975 1.419 . S
C977 C978 1.362 1_565 S
C978 H970 0.930 . S
C978 C977 1.362 1_545 S
C978 C981 1.409 . S
C979 H971 0.930 . S
C979 C980 1.355 . S
C979 C981 1.415 . S
C980 C979 1.355 . S
C980 C982 1.419 . S
C981 C976 1.425 . S
C981 C978 1.409 . S
C981 C979 1.415 . S
C982 H972 0.930 . S
C982 C980 1.419 . S
C982 C983 1.362 . S
C983 H973 0.930 . S
C983 C976 1.409 . S
C983 C982 1.362 . S
H984 C990 0.930 . S
H985 C993 0.930 . S
H986 C994 0.930 . S
H987 C995 0.930 . S
H988 C998 0.930 . S
H989 C999 0.930 . S
C990 H984 0.930 . S
C990 C991 1.355 . S
C990 C992 1.415 . S
C991 C990 1.355 . S
C991 C993 1.419 . S
C992 C990 1.415 . S
C992 C997 1.425 . S
C992 C999 1.409 . S
C993 H985 0.930 . S
C993 C991 1.419 . S
C993 C994 1.362 . S
C994 H986 0.930 . S
C994 C993 1.362 . S
C994 C997 1.409 . S
C995 H987 0.930 . S
C995 C996 1.355 . S
C995 C997 1.415 . S
C996 C995 1.355 . S
C996 C998 1.419 . S
C997 C992 1.425 . S
C997 C994 1.409 . S
C997 C995 1.415 . S
C998 H988 0.930 . S
C998 C996 1.419 . S
C998 C999 1.362 . S
C999 H989 0.930 . S
C999 C992 1.409 . S
C999 C998 1.362 . S
H1000 C1006 0.930 . S
H1001 C1009 0.930 . S
H1002 C1010 0.930 . S
H1003 C1011 0.930 . S
H1004 C1014 0.930 . S
H1005 C1015 0.930 . S
C1006 H1000 0.930 . S
C1006 C1007 1.355 . S
C1006 C1008 1.415 . S
C1007 C1006 1.355 . S
C1007 C1009 1.419 . S
C1008 C1006 1.415 . S
C1008 C1013 1.425 . S
C1008 C1015 1.409 . S
C1009 H1001 0.930 . S
C1009 C1007 1.419 . S
C1009 C1010 1.362 . S
C1010 H1002 0.930 . S
C1010 C1009 1.362 . S
C1010 C1013 1.409 . S
C1011 H1003 0.930 . S
C1011 C1012 1.355 . S
C1011 C1013 1.415 . S
C1012 C1011 1.355 . S
C1012 C1014 1.419 . S
C1013 C1008 1.425 . S
C1013 C1010 1.409 . S
C1013 C1011 1.415 . S
C1014 H1004 0.930 . S
C1014 C1012 1.419 . S
C1014 C1015 1.362 . S
C1015 H1005 0.930 . S
C1015 C1008 1.409 . S
C1015 C1014 1.362 . S
H1016 C1022 0.930 . S
H1017 C1025 0.930 . S
H1018 C1026 0.930 . S
H1019 C1027 0.930 . S
H1020 C1030 0.930 . S
H1021 C1031 0.930 . S
C1022 H1016 0.930 . S
C1022 C1023 1.355 . S
C1022 C1024 1.415 . S
C1023 C1022 1.355 . S
C1023 C1025 1.419 . S
C1024 C1022 1.415 . S
C1024 C1029 1.425 . S
C1024 C1031 1.409 . S
C1025 H1017 0.930 . S
C1025 C1023 1.419 . S
C1025 C1026 1.362 . S
C1026 H1018 0.930 . S
C1026 C1025 1.362 . S
C1026 C1029 1.409 . S
C1027 H1019 0.930 . S
C1027 C1028 1.355 . S
C1027 C1029 1.415 . S
C1028 C1027 1.355 . S
C1028 C1030 1.419 . S
C1029 C1024 1.425 . S
C1029 C1026 1.409 . S
C1029 C1027 1.415 . S
C1030 H1020 0.930 . S
C1030 C1028 1.419 . S
C1030 C1031 1.362 . S
C1031 H1021 0.930 . S
C1031 C1024 1.409 . S
C1031 C1030 1.362 . S
H1032 C1038 0.930 . S
H1033 C1041 0.930 . S
H1034 C1042 0.930 . S
H1035 C1043 0.930 . S
H1036 C1046 0.930 . S
H1037 C1047 0.930 . S
C1038 H1032 0.930 . S
C1038 C1039 1.355 . S
C1038 C1040 1.415 . S
C1039 C1038 1.355 . S
C1039 C1041 1.419 . S
C1040 C1038 1.415 . S
C1040 C1045 1.425 . S
C1040 C1047 1.409 . S
C1041 H1033 0.930 . S
C1041 C1039 1.419 . S
C1041 C1042 1.362 . S
C1042 H1034 0.930 . S
C1042 C1041 1.362 . S
C1042 C1045 1.409 . S
C1043 H1035 0.930 . S
C1043 C1044 1.355 . S
C1043 C1045 1.415 . S
C1044 C1043 1.355 . S
C1044 C1046 1.419 . S
C1045 C1040 1.425 . S
C1045 C1042 1.409 . S
C1045 C1043 1.415 . S
C1046 H1036 0.930 . S
C1046 C1044 1.419 . S
C1046 C1047 1.362 . S
C1047 H1037 0.930 . S
C1047 C1040 1.409 . S
C1047 C1046 1.362 . S
H1048 C1054 0.930 . S
H1049 C1057 0.930 . S
H1050 C1058 0.930 . S
H1051 C1059 0.930 . S
H1052 C1062 0.930 . S
H1053 C1063 0.930 . S
C1054 H1048 0.930 . S
C1054 C1055 1.355 . S
C1054 C1056 1.415 . S
C1055 C1054 1.355 . S
C1055 C1057 1.419 . S
C1056 C1054 1.415 . S
C1056 C1061 1.425 . S
C1056 C1063 1.409 . S
C1057 H1049 0.930 . S
C1057 C1055 1.419 . S
C1057 C1058 1.362 . S
C1058 H1050 0.930 . S
C1058 C1057 1.362 . S
C1058 C1061 1.409 . S
C1059 H1051 0.930 . S
C1059 C1060 1.355 . S
C1059 C1061 1.415 . S
C1060 C1059 1.355 . S
C1060 C1062 1.419 . S
C1061 C1056 1.425 . S
C1061 C1058 1.409 . S
C1061 C1059 1.415 . S
C1062 H1052 0.930 . S
C1062 C1060 1.419 . S
C1062 C1063 1.362 . S
C1063 H1053 0.930 . S
C1063 C1056 1.409 . S
C1063 C1062 1.362 . S
H1064 C1070 0.930 . S
H1065 C1073 0.930 . S
H1066 C1074 0.930 . S
H1067 C1075 0.930 . S
H1068 C1078 0.930 . S
H1069 C1079 0.930 . S
C1070 H1064 0.930 . S
C1070 C1071 1.355 . S
C1070 C1072 1.415 . S
C1071 C1070 1.355 . S
C1071 C1073 1.419 . S
C1072 C1070 1.415 . S
C1072 C1077 1.425 . S
C1072 C1079 1.409 . S
C1073 H1065 0.930 . S
C1073 C1071 1.419 . S
C1073 C1074 1.362 . S
C1074 H1066 0.930 . S
C1074 C1073 1.362 . S
C1074 C1077 1.409 . S
C1075 H1067 0.930 . S
C1075 C1076 1.355 . S
C1075 C1077 1.415 . S
C1076 C1075 1.355 . S
C1076 C1078 1.419 . S
C1077 C1072 1.425 . S
C1077 C1074 1.409 . S
C1077 C1075 1.415 . S
C1078 H1068 0.930 . S
C1078 C1076 1.419 . S
C1078 C1079 1.362 . S
C1079 H1069 0.930 . S
C1079 C1072 1.409 . S
C1079 C1078 1.362 . S
H1080 C1086 0.930 . S
H1081 C1089 0.930 . S
H1082 C1090 0.930 . S
H1083 C1091 0.930 . S
H1084 C1094 0.930 . S
H1085 C1095 0.930 . S
C1086 H1080 0.930 . S
C1086 C1087 1.355 . S
C1086 C1088 1.415 . S
C1087 C1086 1.355 . S
C1087 C1089 1.419 . S
C1088 C1086 1.415 . S
C1088 C1093 1.425 . S
C1088 C1095 1.409 . S
C1089 H1081 0.930 . S
C1089 C1087 1.419 . S
C1089 C1090 1.362 . S
C1090 H1082 0.930 . S
C1090 C1089 1.362 . S
C1090 C1093 1.409 . S
C1091 H1083 0.930 . S
C1091 C1092 1.355 . S
C1091 C1093 1.415 . S
C1092 C1091 1.355 . S
C1092 C1094 1.419 . S
C1093 C1088 1.425 . S
C1093 C1090 1.409 . S
C1093 C1091 1.415 . S
C1094 H1084 0.930 . S
C1094 C1092 1.419 . S
C1094 C1095 1.362 . S
C1095 H1085 0.930 . S
C1095 C1088 1.409 . S
C1095 C1094 1.362 . S
H1096 C1102 0.930 . S
H1097 C1105 0.930 . S
H1098 C1106 0.930 . S
H1099 C1107 0.930 . S
H1100 C1110 0.930 . S
H1101 C1111 0.930 . S
C1102 H1096 0.930 . S
C1102 C1103 1.355 . S
C1102 C1104 1.415 . S
C1103 C1102 1.355 . S
C1103 C1105 1.419 . S
C1104 C1102 1.415 . S
C1104 C1109 1.425 . S
C1104 C1111 1.409 . S
C1105 H1097 0.930 . S
C1105 C1103 1.419 . S
C1105 C1106 1.362 . S
C1106 H1098 0.930 . S
C1106 C1105 1.362 . S
C1106 C1109 1.409 . S
C1107 H1099 0.930 . S
C1107 C1108 1.355 . S
C1107 C1109 1.415 . S
C1108 C1107 1.355 . S
C1108 C1110 1.419 . S
C1109 C1104 1.425 . S
C1109 C1106 1.409 . S
C1109 C1107 1.415 . S
C1110 H1100 0.930 . S
C1110 C1108 1.419 . S
C1110 C1111 1.362 . S
C1111 H1101 0.930 . S
C1111 C1104 1.409 . S
C1111 C1110 1.362 . S
H1112 C1118 0.930 . S
H1113 C1121 0.930 . S
H1114 C1122 0.930 . S
H1115 C1123 0.930 . S
H1116 C1126 0.930 . S
H1117 C1127 0.930 . S
C1118 H1112 0.930 . S
C1118 C1119 1.355 . S
C1118 C1120 1.415 . S
C1119 C1118 1.355 . S
C1119 C1121 1.419 . S
C1120 C1118 1.415 . S
C1120 C1125 1.425 . S
C1120 C1127 1.409 . S
C1121 H1113 0.930 . S
C1121 C1119 1.419 . S
C1121 C1122 1.362 . S
C1122 H1114 0.930 . S
C1122 C1121 1.362 . S
C1122 C1125 1.409 . S
C1123 H1115 0.930 . S
C1123 C1124 1.355 . S
C1123 C1125 1.415 . S
C1124 C1123 1.355 . S
C1124 C1126 1.419 . S
C1125 C1120 1.425 . S
C1125 C1122 1.409 . S
C1125 C1123 1.415 . S
C1126 H1116 0.930 . S
C1126 C1124 1.419 . S
C1126 C1127 1.362 . S
C1127 H1117 0.930 . S
C1127 C1120 1.409 . S
C1127 C1126 1.362 . S
H1128 C1134 0.930 . S
H1129 C1137 0.930 . S
H1130 C1138 0.930 . S
H1131 C1139 0.930 . S
H1132 C1142 0.930 . S
H1133 C1143 0.930 . S
C1134 H1128 0.930 . S
C1134 C1135 1.355 . S
C1134 C1136 1.415 . S
C1135 C1134 1.355 . S
C1135 C1137 1.419 . S
C1136 C1134 1.415 . S
C1136 C1141 1.425 . S
C1136 C1143 1.409 . S
C1137 H1129 0.930 . S
C1137 C1135 1.419 . S
C1137 C1138 1.362 . S
C1138 H1130 0.930 . S
C1138 C1137 1.362 . S
C1138 C1141 1.409 . S
C1139 H1131 0.930 . S
C1139 C1140 1.355 . S
C1139 C1141 1.415 . S
C1140 C1139 1.355 . S
C1140 C1142 1.419 . S
C1141 C1136 1.425 . S
C1141 C1138 1.409 . S
C1141 C1139 1.415 . S
C1142 H1132 0.930 . S
C1142 C1140 1.419 . S
C1142 C1143 1.362 . S
C1143 H1133 0.930 . S
C1143 C1136 1.409 . S
C1143 C1142 1.362 . S
H1144 C1150 0.930 . S
H1145 C1153 0.930 . S
H1146 C1154 0.930 . S
H1147 C1155 0.930 . S
H1148 C1158 0.930 . S
H1149 C1159 0.930 . S
C1150 H1144 0.930 . S
C1150 C1151 1.355 . S
C1150 C1152 1.415 . S
C1151 C1150 1.355 . S
C1151 C1153 1.419 . S
C1152 C1150 1.415 . S
C1152 C1157 1.425 . S
C1152 C1159 1.409 . S
C1153 H1145 0.930 . S
C1153 C1151 1.419 . S
C1153 C1154 1.362 . S
C1154 H1146 0.930 . S
C1154 C1153 1.362 . S
C1154 C1157 1.409 . S
C1155 H1147 0.930 . S
C1155 C1156 1.355 . S
C1155 C1157 1.415 . S
C1156 C1155 1.355 . S
C1156 C1158 1.419 . S
C1157 C1152 1.425 . S
C1157 C1154 1.409 . S
C1157 C1155 1.415 . S
C1158 H1148 0.930 . S
C1158 C1156 1.419 . S
C1158 C1159 1.362 . S
C1159 H1149 0.930 . S
C1159 C1152 1.409 . S
C1159 C1158 1.362 . S
H1160 C1166 0.930 . S
H1161 C1169 0.930 . S
H1162 C1170 0.930 . S
H1163 C1171 0.930 . S
H1164 C1174 0.930 . S
H1165 C1175 0.930 . S
C1166 H1160 0.930 . S
C1166 C1167 1.355 . S
C1166 C1168 1.415 . S
C1167 C1166 1.355 . S
C1167 C1169 1.419 . S
C1168 C1166 1.415 . S
C1168 C1173 1.425 . S
C1168 C1175 1.409 . S
C1169 H1161 0.930 . S
C1169 C1167 1.419 . S
C1169 C1170 1.362 . S
C1170 H1162 0.930 . S
C1170 C1169 1.362 . S
C1170 C1173 1.409 . S
C1171 H1163 0.930 . S
C1171 C1172 1.355 . S
C1171 C1173 1.415 . S
C1172 C1171 1.355 . S
C1172 C1174 1.419 . S
C1173 C1168 1.425 . S
C1173 C1170 1.409 . S
C1173 C1171 1.415 . S
C1174 H1164 0.930 . S
C1174 C1172 1.419 . S
C1174 C1175 1.362 . S
C1175 H1165 0.930 . S
C1175 C1168 1.409 . S
C1175 C1174 1.362 . S
H1176 C1182 0.930 . S
H1177 C1185 0.930 . S
H1178 C1186 0.930 . S
H1179 C1187 0.930 . S
H1180 C1190 0.930 . S
H1181 C1191 0.930 . S
C1182 H1176 0.930 . S
C1182 C1183 1.355 . S
C1182 C1184 1.415 . S
C1183 C1182 1.355 . S
C1183 C1185 1.419 . S
C1184 C1182 1.415 . S
C1184 C1189 1.425 . S
C1184 C1191 1.409 . S
C1185 H1177 0.930 . S
C1185 C1183 1.419 . S
C1185 C1186 1.362 . S
C1186 H1178 0.930 . S
C1186 C1185 1.362 . S
C1186 C1189 1.409 . S
C1187 H1179 0.930 . S
C1187 C1188 1.355 . S
C1187 C1189 1.415 . S
C1188 C1187 1.355 . S
C1188 C1190 1.419 . S
C1189 C1184 1.425 . S
C1189 C1186 1.409 . S
C1189 C1187 1.415 . S
C1190 H1180 0.930 . S
C1190 C1188 1.419 . S
C1190 C1191 1.362 . S
C1191 H1181 0.930 . S
C1191 C1184 1.409 . S
C1191 C1190 1.362 . S
H1192 C1198 0.930 . S
H1193 C1201 0.930 . S
H1194 C1202 0.930 . S
H1195 C1203 0.930 . S
H1196 C1206 0.930 . S
H1197 C1207 0.930 . S
C1198 H1192 0.930 . S
C1198 C1199 1.355 . S
C1198 C1200 1.415 . S
C1199 C1198 1.355 . S
C1199 C1201 1.419 . S
C1200 C1198 1.415 . S
C1200 C1205 1.425 . S
C1200 C1207 1.409 . S
C1201 H1193 0.930 . S
C1201 C1199 1.419 . S
C1201 C1202 1.362 . S
C1202 H1194 0.930 . S
C1202 C1201 1.362 . S
C1202 C1205 1.409 . S
C1203 H1195 0.930 . S
C1203 C1204 1.355 . S
C1203 C1205 1.415 . S
C1204 C1203 1.355 . S
C1204 C1206 1.419 . S
C1205 C1200 1.425 . S
C1205 C1202 1.409 . S
C1205 C1203 1.415 . S
C1206 H1196 0.930 . S
C1206 C1204 1.419 . S
C1206 C1207 1.362 . S
C1207 H1197 0.930 . S
C1207 C1200 1.409 . S
C1207 C1206 1.362 . S
H1208 C1214 0.930 . S
H1209 C1217 0.930 . S
H1210 C1218 0.930 . S
H1211 C1219 0.930 . S
H1212 C1222 0.930 . S
H1213 C1223 0.930 . S
C1214 H1208 0.930 . S
C1214 C1215 1.355 . S
C1214 C1216 1.415 . S
C1215 C1214 1.355 . S
C1215 C1217 1.419 . S
C1216 C1214 1.415 . S
C1216 C1221 1.425 . S
C1216 C1223 1.409 . S
C1217 H1209 0.930 . S
C1217 C1215 1.419 . S
C1217 C1218 1.362 . S
C1218 H1210 0.930 . S
C1218 C1217 1.362 . S
C1218 C1221 1.409 . S
C1219 H1211 0.930 . S
C1219 C1220 1.355 . S
C1219 C1221 1.415 . S
C1220 C1219 1.355 . S
C1220 C1222 1.419 . S
C1221 C1216 1.425 . S
C1221 C1218 1.409 . S
C1221 C1219 1.415 . S
C1222 H1212 0.930 . S
C1222 C1220 1.419 . S
C1222 C1223 1.362 . S
C1223 H1213 0.930 . S
C1223 C1216 1.409 . S
C1223 C1222 1.362 . S
H1224 C1230 0.930 . S
H1225 C1233 0.930 . S
H1226 C1234 0.930 . S
H1227 C1235 0.930 . S
H1228 C1238 0.930 . S
H1229 C1239 0.930 . S
C1230 H1224 0.930 . S
C1230 C1231 1.355 . S
C1230 C1232 1.415 . S
C1231 C1230 1.355 . S
C1231 C1233 1.419 . S
C1232 C1230 1.415 . S
C1232 C1237 1.425 . S
C1232 C1239 1.409 . S
C1233 H1225 0.930 . S
C1233 C1231 1.419 . S
C1233 C1234 1.362 . S
C1234 H1226 0.930 . S
C1234 C1233 1.362 . S
C1234 C1237 1.409 . S
C1235 H1227 0.930 . S
C1235 C1236 1.355 . S
C1235 C1237 1.415 . S
C1236 C1235 1.355 . S
C1236 C1238 1.419 . S
C1237 C1232 1.425 . S
C1237 C1234 1.409 . S
C1237 C1235 1.415 . S
C1238 H1228 0.930 . S
C1238 C1236 1.419 . S
C1238 C1239 1.362 . S
C1239 H1229 0.930 . S
C1239 C1232 1.409 . S
C1239 C1238 1.362 . S
H1240 C1246 0.930 . S
H1241 C1249 0.930 . S
H1242 C1250 0.930 . S
H1243 C1251 0.930 . S
H1244 C1254 0.930 . S
H1245 C1255 0.930 . S
C1246 H1240 0.930 . S
C1246 C1247 1.355 . S
C1246 C1248 1.415 . S
C1247 C1246 1.355 . S
C1247 C1249 1.419 . S
C1248 C1246 1.415 . S
C1248 C1253 1.425 . S
C1248 C1255 1.409 . S
C1249 H1241 0.930 . S
C1249 C1247 1.419 . S
C1249 C1250 1.362 . S
C1250 H1242 0.930 . S
C1250 C1249 1.362 . S
C1250 C1253 1.409 . S
C1251 H1243 0.930 . S
C1251 C1252 1.355 . S
C1251 C1253 1.415 . S
C1252 C1251 1.355 . S
C1252 C1254 1.419 . S
C1253 C1248 1.425 . S
C1253 C1250 1.409 . S
C1253 C1251 1.415 . S
C1254 H1244 0.930 . S
C1254 C1252 1.419 . S
C1254 C1255 1.362 . S
C1255 H1245 0.930 . S
C1255 C1248 1.409 . S
C1255 C1254 1.362 . S
H1256 C1262 0.930 . S
H1257 C1265 0.930 . S
H1258 C1266 0.930 . S
H1259 C1267 0.930 . S
H1260 C1270 0.930 . S
H1261 C1271 0.930 . S
C1262 H1256 0.930 . S
C1262 C1263 1.355 . S
C1262 C1264 1.415 . S
C1263 C1262 1.355 . S
C1263 C1265 1.419 . S
C1264 C1262 1.415 . S
C1264 C1269 1.425 . S
C1264 C1271 1.409 . S
C1265 H1257 0.930 . S
C1265 C1263 1.419 . S
C1265 C1266 1.362 . S
C1266 H1258 0.930 . S
C1266 C1265 1.362 . S
C1266 C1269 1.409 . S
C1267 H1259 0.930 . S
C1267 C1268 1.355 . S
C1267 C1269 1.415 . S
C1268 C1267 1.355 . S
C1268 C1270 1.419 . S
C1269 C1264 1.425 . S
C1269 C1266 1.409 . S
C1269 C1267 1.415 . S
C1270 H1260 0.930 . S
C1270 C1268 1.419 . S
C1270 C1271 1.362 . S
C1271 H1261 0.930 . S
C1271 C1264 1.409 . S
C1271 C1270 1.362 . S
H1272 C1278 0.930 . S
H1273 C1281 0.930 . S
H1274 C1282 0.930 . S
H1275 C1283 0.930 . S
H1276 C1286 0.930 . S
H1277 C1287 0.930 . S
C1278 H1272 0.930 . S
C1278 C1279 1.355 . S
C1278 C1280 1.415 . S
C1279 C1278 1.355 . S
C1279 C1281 1.419 . S
C1280 C1278 1.415 . S
C1280 C1285 1.425 . S
C1280 C1287 1.409 . S
C1281 H1273 0.930 . S
C1281 C1279 1.419 . S
C1281 C1282 1.362 . S
C1282 H1274 0.930 . S
C1282 C1281 1.362 . S
C1282 C1285 1.409 . S
C1283 H1275 0.930 . S
C1283 C1284 1.355 . S
C1283 C1285 1.415 . S
C1284 C1283 1.355 . S
C1284 C1286 1.419 . S
C1285 C1280 1.425 . S
C1285 C1282 1.409 . S
C1285 C1283 1.415 . S
C1286 H1276 0.930 . S
C1286 C1284 1.419 . S
C1286 C1287 1.362 . S
C1287 H1277 0.930 . S
C1287 C1280 1.409 . S
C1287 C1286 1.362 . S
H1288 C1294 0.930 . S
H1289 C1297 0.930 . S
H1290 C1298 0.930 . S
H1291 C1299 0.930 . S
H1292 C1302 0.930 . S
H1293 C1303 0.930 . S
C1294 H1288 0.930 . S
C1294 C1295 1.355 . S
C1294 C1296 1.415 . S
C1295 C1294 1.355 . S
C1295 C1297 1.419 . S
C1296 C1294 1.415 . S
C1296 C1301 1.425 . S
C1296 C1303 1.409 . S
C1297 H1289 0.930 . S
C1297 C1295 1.419 . S
C1297 C1298 1.362 . S
C1298 H1290 0.930 . S
C1298 C1297 1.362 . S
C1298 C1301 1.409 . S
C1299 H1291 0.930 . S
C1299 C1300 1.355 . S
C1299 C1301 1.415 . S
C1300 C1299 1.355 . S
C1300 C1302 1.419 . S
C1301 C1296 1.425 . S
C1301 C1298 1.409 . S
C1301 C1299 1.415 . S
C1302 H1292 0.930 . S
C1302 C1300 1.419 . S
C1302 C1303 1.362 . S
C1303 H1293 0.930 . S
C1303 C1296 1.409 . S
C1303 C1302 1.362 . S
H1304 C1310 0.930 . S
H1305 C1313 0.930 . S
H1306 C1314 0.930 . S
H1307 C1315 0.930 . S
H1308 C1318 0.930 . S
H1309 C1319 0.930 . S
C1310 H1304 0.930 . S
C1310 C1311 1.355 . S
C1310 C1312 1.415 . S
C1311 C1310 1.355 . S
C1311 C1313 1.419 . S
C1312 C1310 1.415 . S
C1312 C1317 1.425 . S
C1312 C1319 1.409 . S
C1313 H1305 0.930 . S
C1313 C1311 1.419 . S
C1313 C1314 1.362 . S
C1314 H1306 0.930 . S
C1314 C1313 1.362 . S
C1314 C1317 1.409 . S
C1315 H1307 0.930 . S
C1315 C1316 1.355 . S
C1315 C1317 1.415 . S
C1316 C1315 1.355 . S
C1316 C1318 1.419 . S
C1317 C1312 1.425 . S
C1317 C1314 1.409 . S
C1317 C1315 1.415 . S
C1318 H1308 0.930 . S
C1318 C1316 1.419 . S
C1318 C1319 1.362 . S
C1319 H1309 0.930 . S
C1319 C1312 1.409 . S
C1319 C1318 1.362 . S
H1320 C1326 0.930 . S
H1321 C1329 0.930 . S
H1322 C1330 0.930 . S
H1323 C1331 0.930 . S
H1324 C1334 0.930 . S
H1325 C1335 0.930 . S
C1326 H1320 0.930 . S
C1326 C1327 1.355 . S
C1326 C1328 1.415 . S
C1327 C1326 1.355 . S
C1327 C1329 1.419 . S
C1328 C1326 1.415 . S
C1328 C1333 1.425 . S
C1328 C1335 1.409 . S
C1329 H1321 0.930 . S
C1329 C1327 1.419 . S
C1329 C1330 1.362 . S
C1330 H1322 0.930 . S
C1330 C1329 1.362 . S
C1330 C1333 1.409 . S
C1331 H1323 0.930 . S
C1331 C1332 1.355 . S
C1331 C1333 1.415 . S
C1332 C1331 1.355 . S
C1332 C1334 1.419 . S
C1333 C1328 1.425 . S
C1333 C1330 1.409 . S
C1333 C1331 1.415 . S
C1334 H1324 0.930 . S
C1334 C1332 1.419 . S
C1334 C1335 1.362 . S
C1335 H1325 0.930 . S
C1335 C1328 1.409 . S
C1335 C1334 1.362 . S
H1336 C1342 0.930 . S
H1337 C1345 0.930 . S
H1338 C1346 0.930 . S
H1339 C1347 0.930 . S
H1340 C1350 0.930 . S
H1341 C1351 0.930 . S
C1342 H1336 0.930 . S
C1342 C1343 1.355 . S
C1342 C1344 1.415 . S
C1343 C1342 1.355 . S
C1343 C1345 1.419 . S
C1344 C1342 1.415 . S
C1344 C1349 1.425 . S
C1344 C1351 1.409 . S
C1345 H1337 0.930 . S
C1345 C1343 1.419 . S
C1345 C1346 1.362 . S
C1346 H1338 0.930 . S
C1346 C1345 1.362 . S
C1346 C1349 1.409 . S
C1347 H1339 0.930 . S
C1347 C1348 1.355 . S
C1347 C1349 1.415 . S
C1348 C1347 1.355 . S
C1348 C1350 1.419 . S
C1349 C1344 1.425 . S
C1349 C1346 1.409 . S
C1349 C1347 1.415 . S
C1350 H1340 0.930 . S
C1350 C1348 1.419 . S
C1350 C1351 1.362 . S
C1351 H1341 0.930 . S
C1351 C1344 1.409 . S
C1351 C1350 1.362 . S
H1352 C1358 0.930 . S
H1353 C1361 0.930 . S
H1354 C1362 0.930 . S
H1355 C1363 0.930 . S
H1356 C1366 0.930 . S
H1357 C1367 0.930 . S
C1358 H1352 0.930 . S
C1358 C1359 1.355 . S
C1358 C1360 1.415 . S
C1359 C1358 1.355 . S
C1359 C1361 1.419 . S
C1360 C1358 1.415 . S
C1360 C1365 1.425 . S
C1360 C1367 1.409 . S
C1361 H1353 0.930 . S
C1361 C1359 1.419 . S
C1361 C1362 1.362 . S
C1362 H1354 0.930 . S
C1362 C1361 1.362 . S
C1362 C1365 1.409 . S
C1363 H1355 0.930 . S
C1363 C1364 1.355 . S
C1363 C1365 1.415 . S
C1364 C1363 1.355 . S
C1364 C1366 1.419 . S
C1365 C1360 1.425 . S
C1365 C1362 1.409 . S
C1365 C1363 1.415 . S
C1366 H1356 0.930 . S
C1366 C1364 1.419 . S
C1366 C1367 1.362 . S
C1367 H1357 0.930 . S
C1367 C1360 1.409 . S
C1367 C1366 1.362 . S
H1368 C1374 0.930 . S
H1369 C1377 0.930 . S
H1370 C1378 0.930 . S
H1371 C1379 0.930 . S
H1372 C1382 0.930 . S
H1373 C1383 0.930 . S
C1374 H1368 0.930 . S
C1374 C1375 1.355 . S
C1374 C1376 1.415 . S
C1375 C1374 1.355 . S
C1375 C1377 1.419 . S
C1376 C1374 1.415 . S
C1376 C1381 1.425 . S
C1376 C1383 1.409 . S
C1377 H1369 0.930 . S
C1377 C1375 1.419 . S
C1377 C1378 1.362 . S
C1378 H1370 0.930 . S
C1378 C1377 1.362 . S
C1378 C1381 1.409 . S
C1379 H1371 0.930 . S
C1379 C1380 1.355 . S
C1379 C1381 1.415 . S
C1380 C1379 1.355 . S
C1380 C1382 1.419 . S
C1381 C1376 1.425 . S
C1381 C1378 1.409 . S
C1381 C1379 1.415 . S
C1382 H1372 0.930 . S
C1382 C1380 1.419 . S
C1382 C1383 1.362 . S
C1383 H1373 0.930 . S
C1383 C1376 1.409 . S
C1383 C1382 1.362 . S
H1384 C1390 0.930 . S
H1385 C1393 0.930 . S
H1386 C1394 0.930 . S
H1387 C1395 0.930 . S
H1388 C1398 0.930 . S
H1389 C1399 0.930 . S
C1390 H1384 0.930 . S
C1390 C1391 1.355 . S
C1390 C1392 1.415 1_565 S
C1391 C1390 1.355 . S
C1391 C1393 1.419 1_565 S
C1392 C1390 1.415 1_545 S
C1392 C1397 1.425 . S
C1392 C1399 1.409 . S
C1393 H1385 0.930 . S
C1393 C1391 1.419 1_545 S
C1393 C1394 1.362 . S
C1394 H1386 0.930 . S
C1394 C1393 1.362 . S
C1394 C1397 1.409 . S
C1395 H1387 0.930 . S
C1395 C1396 1.355 . S
C1395 C1397 1.415 . S
C1396 C1395 1.355 . S
C1396 C1398 1.419 . S
C1397 C1392 1.425 . S
C1397 C1394 1.409 . S
C1397 C1395 1.415 . S
C1398 H1388 0.930 . S
C1398 C1396 1.419 . S
C1398 C1399 1.362 . S
C1399 H1389 0.930 . S
C1399 C1392 1.409 . S
C1399 C1398 1.362 . S
H1400 C1406 0.930 . S
H1401 C1409 0.930 . S
H1402 C1410 0.930 . S
H1403 C1411 0.930 . S
H1404 C1414 0.930 . S
H1405 C1415 0.930 . S
C1406 H1400 0.930 . S
C1406 C1407 1.355 . S
C1406 C1408 1.415 . S
C1407 C1406 1.355 . S
C1407 C1409 1.419 . S
C1408 C1406 1.415 . S
C1408 C1413 1.425 . S
C1408 C1415 1.409 1_655 S
C1409 H1401 0.930 . S
C1409 C1407 1.419 . S
C1409 C1410 1.362 . S
C1410 H1402 0.930 . S
C1410 C1409 1.362 . S
C1410 C1413 1.409 . S
C1411 H1403 0.930 . S
C1411 C1412 1.355 1_655 S
C1411 C1413 1.415 . S
C1412 C1411 1.355 1_455 S
C1412 C1414 1.419 . S
C1413 C1408 1.425 . S
C1413 C1410 1.409 . S
C1413 C1411 1.415 . S
C1414 H1404 0.930 . S
C1414 C1412 1.419 . S
C1414 C1415 1.362 . S
C1415 H1405 0.930 . S
C1415 C1408 1.409 1_455 S
C1415 C1414 1.362 . S
H1416 C1422 0.930 . S
H1417 C1425 0.930 . S
H1418 C1426 0.930 . S
H1419 C1427 0.930 . S
H1420 C1430 0.930 . S
H1421 C1431 0.930 . S
C1422 H1416 0.930 . S
C1422 C1423 1.355 . S
C1422 C1424 1.415 . S
C1423 C1422 1.355 . S
C1423 C1425 1.419 . S
C1424 C1422 1.415 . S
C1424 C1429 1.425 . S
C1424 C1431 1.409 . S
C1425 H1417 0.930 . S
C1425 C1423 1.419 . S
C1425 C1426 1.362 . S
C1426 H1418 0.930 . S
C1426 C1425 1.362 . S
C1426 C1429 1.409 . S
C1427 H1419 0.930 . S
C1427 C1428 1.355 . S
C1427 C1429 1.415 . S
C1428 C1427 1.355 . S
C1428 C1430 1.419 . S
C1429 C1424 1.425 . S
C1429 C1426 1.409 . S
C1429 C1427 1.415 . S
C1430 H1420 0.930 . S
C1430 C1428 1.419 . S
C1430 C1431 1.362 . S
C1431 H1421 0.930 . S
C1431 C1424 1.409 . S
C1431 C1430 1.362 . S
H1432 C1438 0.930 . S
H1433 C1441 0.930 . S
H1434 C1442 0.930 . S
H1435 C1443 0.930 . S
H1436 C1446 0.930 . S
H1437 C1447 0.930 . S
C1438 H1432 0.930 . S
C1438 C1439 1.355 1_565 S
C1438 C1440 1.415 . S
C1439 C1438 1.355 1_545 S
C1439 C1441 1.419 . S
C1440 C1438 1.415 . S
C1440 C1445 1.425 . S
C1440 C1447 1.409 . S
C1441 H1433 0.930 . S
C1441 C1439 1.419 . S
C1441 C1442 1.362 . S
C1442 H1434 0.930 . S
C1442 C1441 1.362 . S
C1442 C1445 1.409 1_545 S
C1443 H1435 0.930 . S
C1443 C1444 1.355 . S
C1443 C1445 1.415 . S
C1444 C1443 1.355 . S
C1444 C1446 1.419 . S
C1445 C1440 1.425 . S
C1445 C1442 1.409 1_565 S
C1445 C1443 1.415 . S
C1446 H1436 0.930 . S
C1446 C1444 1.419 . S
C1446 C1447 1.362 . S
C1447 H1437 0.930 . S
C1447 C1440 1.409 . S
C1447 C1446 1.362 . S
H1448 C1454 0.930 . S
H1449 C1457 0.930 . S
H1450 C1458 0.930 1_655 S
H1451 C1459 0.930 . S
H1452 C1462 0.930 . S
H1453 C1463 0.930 . S
C1454 H1448 0.930 . S
C1454 C1455 1.355 . S
C1454 C1456 1.415 . S
C1455 C1454 1.355 . S
C1455 C1457 1.419 . S
C1456 C1454 1.415 . S
C1456 C1461 1.425 . S
C1456 C1463 1.409 . S
C1457 H1449 0.930 . S
C1457 C1455 1.419 . S
C1457 C1458 1.362 . S
C1458 H1450 0.930 1_455 S
C1458 C1457 1.362 . S
C1458 C1461 1.409 . S
C1459 H1451 0.930 . S
C1459 C1460 1.355 . S
C1459 C1461 1.415 1_655 S
C1460 C1459 1.355 . S
C1460 C1462 1.419 1_655 S
C1461 C1456 1.425 . S
C1461 C1458 1.409 . S
C1461 C1459 1.415 1_455 S
C1462 H1452 0.930 . S
C1462 C1460 1.419 1_455 S
C1462 C1463 1.362 . S
C1463 H1453 0.930 . S
C1463 C1456 1.409 . S
C1463 C1462 1.362 . S
H1464 C1470 0.930 . S
H1465 C1473 0.930 . S
H1466 C1474 0.930 . S
H1467 C1475 0.930 . S
H1468 C1478 0.930 . S
H1469 C1479 0.930 . S
C1470 H1464 0.930 . S
C1470 C1471 1.355 . S
C1470 C1472 1.415 . S
C1471 C1470 1.355 . S
C1471 C1473 1.419 . S
C1472 C1470 1.415 . S
C1472 C1477 1.425 . S
C1472 C1479 1.409 . S
C1473 H1465 0.930 . S
C1473 C1471 1.419 . S
C1473 C1474 1.362 . S
C1474 H1466 0.930 . S
C1474 C1473 1.362 . S
C1474 C1477 1.409 . S
C1475 H1467 0.930 . S
C1475 C1476 1.355 . S
C1475 C1477 1.415 . S
C1476 C1475 1.355 . S
C1476 C1478 1.419 . S
C1477 C1472 1.425 . S
C1477 C1474 1.409 . S
C1477 C1475 1.415 . S
C1478 H1468 0.930 . S
C1478 C1476 1.419 . S
C1478 C1479 1.362 . S
C1479 H1469 0.930 . S
C1479 C1472 1.409 . S
C1479 C1478 1.362 . S
H1480 C1486 0.930 . S
H1481 C1489 0.930 . S
H1482 C1490 0.930 . S
H1483 C1491 0.930 . S
H1484 C1494 0.930 . S
H1485 C1495 0.930 . S
C1486 H1480 0.930 . S
C1486 C1487 1.355 . S
C1486 C1488 1.415 . S
C1487 C1486 1.355 . S
C1487 C1489 1.419 . S
C1488 C1486 1.415 . S
C1488 C1493 1.425 . S
C1488 C1495 1.409 . S
C1489 H1481 0.930 . S
C1489 C1487 1.419 . S
C1489 C1490 1.362 1_565 S
C1490 H1482 0.930 . S
C1490 C1489 1.362 1_545 S
C1490 C1493 1.409 1_545 S
C1491 H1483 0.930 . S
C1491 C1492 1.355 . S
C1491 C1493 1.415 1_545 S
C1492 C1491 1.355 . S
C1492 C1494 1.419 1_545 S
C1493 C1488 1.425 . S
C1493 C1490 1.409 1_565 S
C1493 C1491 1.415 1_565 S
C1494 H1484 0.930 . S
C1494 C1492 1.419 1_565 S
C1494 C1495 1.362 . S
C1495 H1485 0.930 . S
C1495 C1488 1.409 . S
C1495 C1494 1.362 . S
H1496 C1502 0.930 . S
H1497 C1505 0.930 . S
H1498 C1506 0.930 . S
H1499 C1507 0.930 . S
H1500 C1510 0.930 . S
H1501 C1511 0.930 . S
C1502 H1496 0.930 . S
C1502 C1503 1.355 . S
C1502 C1504 1.415 . S
C1503 C1502 1.355 . S
C1503 C1505 1.419 . S
C1504 C1502 1.415 . S
C1504 C1509 1.425 . S
C1504 C1511 1.409 1_455 S
C1505 H1497 0.930 . S
C1505 C1503 1.419 . S
C1505 C1506 1.362 . S
C1506 H1498 0.930 . S
C1506 C1505 1.362 . S
C1506 C1509 1.409 . S
C1507 H1499 0.930 . S
C1507 C1508 1.355 1_455 S
C1507 C1509 1.415 . S
C1508 C1507 1.355 1_655 S
C1508 C1510 1.419 . S
C1509 C1504 1.425 . S
C1509 C1506 1.409 . S
C1509 C1507 1.415 . S
C1510 H1500 0.930 . S
C1510 C1508 1.419 . S
C1510 C1511 1.362 . S
C1511 H1501 0.930 . S
C1511 C1504 1.409 1_655 S
C1511 C1510 1.362 . S
H1512 C1518 0.930 . S
H1513 C1521 0.930 . S
H1514 C1522 0.930 . S
H1515 C1523 0.930 . S
H1516 C1526 0.930 . S
H1517 C1527 0.930 . S
C1518 H1512 0.930 . S
C1518 C1519 1.355 . S
C1518 C1520 1.415 . S
C1519 C1518 1.355 . S
C1519 C1521 1.419 . S
C1520 C1518 1.415 . S
C1520 C1525 1.425 . S
C1520 C1527 1.409 . S
C1521 H1513 0.930 . S
C1521 C1519 1.419 . S
C1521 C1522 1.362 . S
C1522 H1514 0.930 . S
C1522 C1521 1.362 . S
C1522 C1525 1.409 . S
C1523 H1515 0.930 . S
C1523 C1524 1.355 . S
C1523 C1525 1.415 . S
C1524 C1523 1.355 . S
C1524 C1526 1.419 . S
C1525 C1520 1.425 . S
C1525 C1522 1.409 . S
C1525 C1523 1.415 . S
C1526 H1516 0.930 . S
C1526 C1524 1.419 . S
C1526 C1527 1.362 . S
C1527 H1517 0.930 . S
C1527 C1520 1.409 . S
C1527 C1526 1.362 . S
H1528 C1534 0.930 . S
H1529 C1537 0.930 . S
H1530 C1538 0.930 . S
H1531 C1539 0.930 . S
H1532 C1542 0.930 1_565 S
H1533 C1543 0.930 . S
C1534 H1528 0.930 . S
C1534 C1535 1.355 . S
C1534 C1536 1.415 . S
C1535 C1534 1.355 . S
C1535 C1537 1.419 . S
C1536 C1534 1.415 . S
C1536 C1541 1.425 . S
C1536 C1543 1.409 . S
C1537 H1529 0.930 . S
C1537 C1535 1.419 . S
C1537 C1538 1.362 . S
C1538 H1530 0.930 . S
C1538 C1537 1.362 . S
C1538 C1541 1.409 . S
C1539 H1531 0.930 . S
C1539 C1540 1.355 1_545 S
C1539 C1541 1.415 . S
C1540 C1539 1.355 1_565 S
C1540 C1542 1.419 1_565 S
C1541 C1536 1.425 . S
C1541 C1538 1.409 . S
C1541 C1539 1.415 . S
C1542 H1532 0.930 1_545 S
C1542 C1540 1.419 1_545 S
C1542 C1543 1.362 . S
C1543 H1533 0.930 . S
C1543 C1536 1.409 . S
C1543 C1542 1.362 . S
H1544 C1550 0.930 . S
H1545 C1553 0.930 . S
H1546 C1554 0.930 . S
H1547 C1555 0.930 . S
H1548 C1558 0.930 . S
H1549 C1559 0.930 . S
C1550 H1544 0.930 . S
C1550 C1551 1.355 1_655 S
C1550 C1552 1.415 . S
C1551 C1550 1.355 1_455 S
C1551 C1553 1.419 . S
C1552 C1550 1.415 . S
C1552 C1557 1.425 . S
C1552 C1559 1.409 . S
C1553 H1545 0.930 . S
C1553 C1551 1.419 . S
C1553 C1554 1.362 . S
C1554 H1546 0.930 . S
C1554 C1553 1.362 . S
C1554 C1557 1.409 1_455 S
C1555 H1547 0.930 . S
C1555 C1556 1.355 . S
C1555 C1557 1.415 . S
C1556 C1555 1.355 . S
C1556 C1558 1.419 . S
C1557 C1552 1.425 . S
C1557 C1554 1.409 1_655 S
C1557 C1555 1.415 . S
C1558 H1548 0.930 . S
C1558 C1556 1.419 . S
C1558 C1559 1.362 . S
C1559 H1549 0.930 . S
C1559 C1552 1.409 . S
C1559 C1558 1.362 . S
H1560 C1566 0.930 . S
H1561 C1569 0.930 . S
H1562 C1570 0.930 . S
H1563 C1571 0.930 . S
H1564 C1574 0.930 . S
H1565 C1575 0.930 . S
C1566 H1560 0.930 . S
C1566 C1567 1.355 . S
C1566 C1568 1.415 . S
C1567 C1566 1.355 . S
C1567 C1569 1.419 . S
C1568 C1566 1.415 . S
C1568 C1573 1.425 1_655 S
C1568 C1575 1.409 1_655 S
C1569 H1561 0.930 . S
C1569 C1567 1.419 . S
C1569 C1570 1.362 . S
C1570 H1562 0.930 . S
C1570 C1569 1.362 . S
C1570 C1573 1.409 1_655 S
C1571 H1563 0.930 . S
C1571 C1572 1.355 . S
C1571 C1573 1.415 . S
C1572 C1571 1.355 . S
C1572 C1574 1.419 . S
C1573 C1568 1.425 1_455 S
C1573 C1570 1.409 1_455 S
C1573 C1571 1.415 . S
C1574 H1564 0.930 . S
C1574 C1572 1.419 . S
C1574 C1575 1.362 . S
C1575 H1565 0.930 . S
C1575 C1568 1.409 1_455 S
C1575 C1574 1.362 . S
H1576 C1582 0.930 . S
H1577 C1585 0.930 . S
H1578 C1586 0.930 . S
H1579 C1587 0.930 . S
H1580 C1590 0.930 . S
H1581 C1591 0.930 . S
C1582 H1576 0.930 . S
C1582 C1583 1.355 . S
C1582 C1584 1.415 . S
C1583 C1582 1.355 . S
C1583 C1585 1.419 . S
C1584 C1582 1.415 . S
C1584 C1589 1.425 . S
C1584 C1591 1.409 . S
C1585 H1577 0.930 . S
C1585 C1583 1.419 . S
C1585 C1586 1.362 . S
C1586 H1578 0.930 . S
C1586 C1585 1.362 . S
C1586 C1589 1.409 . S
C1587 H1579 0.930 . S
C1587 C1588 1.355 . S
C1587 C1589 1.415 . S
C1588 C1587 1.355 . S
C1588 C1590 1.419 . S
C1589 C1584 1.425 . S
C1589 C1586 1.409 . S
C1589 C1587 1.415 . S
C1590 H1580 0.930 . S
C1590 C1588 1.419 . S
C1590 C1591 1.362 . S
C1591 H1581 0.930 . S
C1591 C1584 1.409 . S
C1591 C1590 1.362 . S
H1592 C1598 0.930 . S
H1593 C1601 0.930 . S
H1594 C1602 0.930 . S
H1595 C1603 0.930 . S
H1596 C1606 0.930 . S
H1597 C1607 0.930 . S
C1598 H1592 0.930 . S
C1598 C1599 1.355 . S
C1598 C1600 1.401 1_565 S
C1599 C1598 1.355 . S
C1599 C1601 1.419 . S
C1600 C1598 1.401 1_545 S
C1600 C1605 1.427 1_545 S
C1600 C1607 1.423 . S
C1601 H1593 0.930 . S
C1601 C1599 1.419 . S
C1601 C1602 1.362 . S
C1602 H1594 0.930 . S
C1602 C1601 1.362 . S
C1602 C1605 1.423 . S
C1603 H1595 0.930 . S
C1603 C1604 1.355 . S
C1603 C1605 1.400 1_545 S
C1604 C1603 1.355 . S
C1604 C1606 1.419 . S
C1605 C1600 1.427 1_565 S
C1605 C1602 1.423 . S
C1605 C1603 1.400 1_565 S
C1606 H1596 0.930 . S
C1606 C1604 1.419 . S
C1606 C1607 1.362 . S
C1607 H1597 0.930 . S
C1607 C1600 1.423 . S
C1607 C1606 1.362 . S
H1608 C1614 0.930 . S
H1609 C1617 0.930 . S
H1610 C1618 0.910 1_545 S
H1611 C1619 0.930 . S
H1612 C1622 0.930 . S
H1613 C1623 0.930 1_565 S
C1614 H1608 0.930 . S
C1614 C1615 1.355 . S
C1614 C1616 1.415 . S
C1615 C1614 1.355 . S
C1615 C1617 1.419 . S
C1616 C1614 1.415 . S
C1616 C1621 1.425 1_565 S
C1616 C1623 1.409 1_565 S
C1617 H1609 0.930 . S
C1617 C1615 1.419 . S
C1617 C1618 1.397 . S
C1618 H1610 0.910 1_565 S
C1618 C1617 1.397 . S
C1618 C1621 1.395 1_565 S
C1619 H1611 0.930 . S
C1619 C1620 1.355 . S
C1619 C1621 1.415 . S
C1620 C1619 1.355 . S
C1620 C1622 1.419 . S
C1621 C1616 1.425 1_545 S
C1621 C1618 1.395 1_545 S
C1621 C1619 1.415 . S
C1622 H1612 0.930 . S
C1622 C1620 1.419 . S
C1622 C1623 1.362 . S
C1623 H1613 0.930 1_545 S
C1623 C1616 1.409 1_545 S
C1623 C1622 1.362 . S
H1624 C1630 0.930 . S
H1625 C1633 0.930 . S
H1626 C1634 0.930 . S
H1627 C1635 0.930 . S
H1628 C1638 0.930 . S
H1629 C1639 0.930 . S
C1630 H1624 0.930 . S
C1630 C1631 1.355 . S
C1630 C1632 1.430 . S
C1631 C1630 1.355 . S
C1631 C1633 1.419 . S
C1632 C1630 1.430 . S
C1632 C1637 1.415 1_655 S
C1632 C1639 1.399 1_655 S
C1633 H1625 0.930 . S
C1633 C1631 1.419 . S
C1633 C1634 1.362 . S
C1634 H1626 0.930 . S
C1634 C1633 1.362 . S
C1634 C1637 1.399 1_655 S
C1635 H1627 0.930 . S
C1635 C1636 1.355 . S
C1635 C1637 1.431 . S
C1636 C1635 1.355 . S
C1636 C1638 1.419 . S
C1637 C1632 1.415 1_455 S
C1637 C1634 1.399 1_455 S
C1637 C1635 1.431 . S
C1638 H1628 0.930 . S
C1638 C1636 1.419 . S
C1638 C1639 1.362 . S
C1639 H1629 0.930 . S
C1639 C1632 1.399 1_455 S
C1639 C1638 1.362 . S
H1640 C1646 0.930 . S
H1641 C1649 0.930 . S
H1642 C1650 0.930 . S
H1643 C1651 0.930 . S
H1644 C1654 0.930 . S
H1645 C1655 0.930 . S
C1646 H1640 0.930 . S
C1646 C1647 1.355 . S
C1646 C1648 1.415 . S
C1647 C1646 1.355 . S
C1647 C1649 1.419 . S
C1648 C1646 1.415 . S
C1648 C1653 1.425 . S
C1648 C1655 1.409 . S
C1649 H1641 0.930 . S
C1649 C1647 1.419 . S
C1649 C1650 1.362 . S
C1650 H1642 0.930 . S
C1650 C1649 1.362 . S
C1650 C1653 1.409 . S
C1651 H1643 0.930 . S
C1651 C1652 1.355 . S
C1651 C1653 1.415 . S
C1652 C1651 1.355 . S
C1652 C1654 1.419 . S
C1653 C1648 1.425 . S
C1653 C1650 1.409 . S
C1653 C1651 1.415 . S
C1654 H1644 0.930 . S
C1654 C1652 1.419 . S
C1654 C1655 1.362 . S
C1655 H1645 0.930 . S
C1655 C1648 1.409 . S
C1655 C1654 1.362 . S
C511 C7 1.378 . S
C516 C259 1.378 . S
C527 C21 1.384 . S
C532 C273 1.384 . S
C543 C287 1.344 . S
C548 C35 1.344 . S
C559 C49 1.342 . S
C564 C469 1.342 . S
C575 C483 1.374 . S
C580 C63 1.374 . S
C591 C77 1.349 . S
C596 C497 1.349 . S
C607 C343 1.368 . S
C612 C91 1.368 . S
C623 C105 1.342 . S
C628 C357 1.342 . S
C639 C119 1.351 . S
C644 C371 1.351 . S
C655 C133 1.352 . S
C660 C217 1.352 . S
C671 C231 1.357 . S
C676 C147 1.357 . S
C687 C161 1.376 . S
C692 C245 1.376 . S
C703 C175 1.376 . S
C708 C427 1.376 . S
C719 C189 1.374 . S
C724 C441 1.374 . S
C735 C203 1.383 . S
C740 C455 1.383 . S
C751 C301 1.360 . S
C756 C385 1.360 . S
C767 C315 1.386 . S
C772 C399 1.386 . S
C783 C329 1.378 . S
C788 C413 1.378 . S
C799 C106 1.427 . S
C804 C6 1.461 . S
C815 C120 1.425 . S
C820 C20 1.459 . S
C831 C34 1.443 . S
C836 C92 1.389 . S
C847 C162 1.386 . S
C852 C48 1.440 . S
C863 C134 1.444 . S
C868 C62 1.473 . S
C879 C148 1.391 . S
C884 C76 1.445 . S
C895 C90 1.440 . S
C900 C22 1.386 . S
C911 C104 1.471 . S
C916 C36 1.440 . S
C927 C118 1.441 . S
C932 C8 1.386 . S
C943 C132 1.469 . S
C948 C78 1.442 . S
C959 C50 1.424 . S
C964 C146 1.459 . S
C975 C64 1.441 . S
C980 C160 1.468 . S
C991 C174 1.446 . S
C996 C274 1.399 . S
C1007 C188 1.479 . S
C1012 C288 1.457 . S
C1023 C202 1.474 . S
C1028 C260 1.447 . S
C1039 C330 1.450 . S
C1044 C216 1.476 . S
C1055 C230 1.465 . S
C1060 C302 1.436 . S
C1071 C316 1.451 . S
C1076 C244 1.476 . S
C1087 C258 1.478 . S
C1092 C190 1.457 . S
C1103 C204 1.433 . S
C1108 C272 1.467 . S
C1119 C176 1.457 . S
C1124 C286 1.478 . S
C1135 C300 1.472 . S
C1140 C246 1.447 . S
C1151 C314 1.461 . S
C1156 C218 1.428 . S
C1167 C328 1.441 . S
C1172 C232 1.386 . S
C1183 C442 1.446 . S
C1188 C342 1.474 . S
C1199 C356 1.458 . S
C1204 C456 1.415 . S
C1215 C370 1.440 . S
C1220 C428 1.386 . S
C1231 C498 1.432 . S
C1236 C384 1.466 . S
C1247 C470 1.416 . S
C1252 C398 1.458 . S
C1263 C484 1.385 . S
C1268 C412 1.441 . S
C1279 C358 1.430 . S
C1284 C426 1.462 . S
C1295 C372 1.386 . S
C1300 C440 1.440 . S
C1311 C344 1.399 . S
C1316 C454 1.446 . S
C1327 C468 1.478 . S
C1332 C414 1.456 . S
C1343 C386 1.391 . S
C1348 C482 1.444 . S
C1359 C496 1.462 . S
C1364 C400 1.429 . S
C1375 C9 1.189 . S
C1380 C415 1.223 . S
C1391 C387 1.161 . S
C1396 C23 1.123 . S
C1407 C37 1.188 . S
C1412 C401 1.142 . S
C1423 C51 1.201 . S
C1428 C191 1.155 . S
C1439 C205 1.120 . S
C1444 C65 1.123 . S
C1455 C79 1.178 . S
C1460 C177 1.218 . S
C1471 C331 1.117 . S
C1476 C93 1.133 . S
C1487 C107 1.152 . S
C1492 C303 1.198 . S
C1503 C121 1.149 . S
C1508 C317 1.118 . S
C1519 C135 1.227 . S
C1524 C443 1.201 . S
C1535 C149 1.117 . S
C1540 C457 1.143 . S
C1551 C429 1.189 . S
C1556 C163 1.223 . S
C1567 C219 1.194 . S
C1572 C359 1.147 . S
C1583 C373 1.134 . S
C1588 C233 1.179 . S
C1599 C345 1.129 . S
C1604 C247 1.118 . S
C1615 C499 1.226 . S
C1620 C261 1.217 . S
C1631 C275 1.130 . S
C1636 C471 1.117 . S
C1647 C289 1.225 . S
C1652 C485 1.218 . S
