# Generated by pormake.
# Topology wme, (6)-cn, num edge types: 1
# Building blocks:
#     Node 0, Type 0, BuildingBlock: CUWYAW_clean_sbu_0, # of connection points: 6
#     Node 1, Type 0, BuildingBlock: CUWYAW_clean_sbu_0, # of connection points: 6
#     Node 2, Type 0, BuildingBlock: CUWYAW_clean_sbu_0, # of connection points: 6
#     Node 3, Type 0, BuildingBlock: CUWYAW_clean_sbu_0, # of connection points: 6
#     Node 4, Type 0, BuildingBlock: CUWYAW_clean_sbu_0, # of connection points: 6
#     Node 5, Type 0, BuildingBlock: CUWYAW_clean_sbu_0, # of connection points: 6
#     Node 6, Type 0, BuildingBlock: CUWYAW_clean_sbu_0, # of connection points: 6
#     Node 7, Type 0, BuildingBlock: CUWYAW_clean_sbu_0, # of connection points: 6
#     Node 8, Type 0, BuildingBlock: CUWYAW_clean_sbu_0, # of connection points: 6
#     Node 9, Type 0, BuildingBlock: CUWYAW_clean_sbu_0, # of connection points: 6
#     Node 10, Type 0, BuildingBlock: CUWYAW_clean_sbu_0, # of connection points: 6
#     Node 11, Type 0, BuildingBlock: CUWYAW_clean_sbu_0, # of connection points: 6
#     Edge 12, Type (0, 0), BuildingBlock: AJUNOK_clean_linker_0, # of connection points: 2
#     Edge 13, Type (0, 0), BuildingBlock: AJUNOK_clean_linker_0, # of connection points: 2
#     Edge 14, Type (0, 0), BuildingBlock: AJUNOK_clean_linker_0, # of connection points: 2
#     Edge 15, Type (0, 0), BuildingBlock: AJUNOK_clean_linker_0, # of connection points: 2
#     Edge 16, Type (0, 0), BuildingBlock: AJUNOK_clean_linker_0, # of connection points: 2
#     Edge 17, Type (0, 0), BuildingBlock: AJUNOK_clean_linker_0, # of connection points: 2
#     Edge 18, Type (0, 0), BuildingBlock: AJUNOK_clean_linker_0, # of connection points: 2
#     Edge 19, Type (0, 0), BuildingBlock: AJUNOK_clean_linker_0, # of connection points: 2
#     Edge 20, Type (0, 0), BuildingBlock: AJUNOK_clean_linker_0, # of connection points: 2
#     Edge 21, Type (0, 0), BuildingBlock: AJUNOK_clean_linker_0, # of connection points: 2
#     Edge 22, Type (0, 0), BuildingBlock: AJUNOK_clean_linker_0, # of connection points: 2
#     Edge 23, Type (0, 0), BuildingBlock: AJUNOK_clean_linker_0, # of connection points: 2
#     Edge 24, Type (0, 0), BuildingBlock: AJUNOK_clean_linker_0, # of connection points: 2
#     Edge 25, Type (0, 0), BuildingBlock: AJUNOK_clean_linker_0, # of connection points: 2
#     Edge 26, Type (0, 0), BuildingBlock: AJUNOK_clean_linker_0, # of connection points: 2
#     Edge 27, Type (0, 0), BuildingBlock: AJUNOK_clean_linker_0, # of connection points: 2
#     Edge 28, Type (0, 0), BuildingBlock: AJUNOK_clean_linker_0, # of connection points: 2
#     Edge 29, Type (0, 0), BuildingBlock: AJUNOK_clean_linker_0, # of connection points: 2
#     Edge 30, Type (0, 0), BuildingBlock: AJUNOK_clean_linker_0, # of connection points: 2
#     Edge 31, Type (0, 0), BuildingBlock: AJUNOK_clean_linker_0, # of connection points: 2
#     Edge 32, Type (0, 0), BuildingBlock: AJUNOK_clean_linker_0, # of connection points: 2
#     Edge 33, Type (0, 0), BuildingBlock: AJUNOK_clean_linker_0, # of connection points: 2
#     Edge 34, Type (0, 0), BuildingBlock: AJUNOK_clean_linker_0, # of connection points: 2
#     Edge 35, Type (0, 0), BuildingBlock: AJUNOK_clean_linker_0, # of connection points: 2
#     Edge 36, Type (0, 0), BuildingBlock: AJUNOK_clean_linker_0, # of connection points: 2
#     Edge 37, Type (0, 0), BuildingBlock: AJUNOK_clean_linker_0, # of connection points: 2
#     Edge 38, Type (0, 0), BuildingBlock: AJUNOK_clean_linker_0, # of connection points: 2
#     Edge 39, Type (0, 0), BuildingBlock: AJUNOK_clean_linker_0, # of connection points: 2
#     Edge 40, Type (0, 0), BuildingBlock: AJUNOK_clean_linker_0, # of connection points: 2
#     Edge 41, Type (0, 0), BuildingBlock: AJUNOK_clean_linker_0, # of connection points: 2
#     Edge 42, Type (0, 0), BuildingBlock: AJUNOK_clean_linker_0, # of connection points: 2
#     Edge 43, Type (0, 0), BuildingBlock: AJUNOK_clean_linker_0, # of connection points: 2
#     Edge 44, Type (0, 0), BuildingBlock: AJUNOK_clean_linker_0, # of connection points: 2
#     Edge 45, Type (0, 0), BuildingBlock: AJUNOK_clean_linker_0, # of connection points: 2
#     Edge 46, Type (0, 0), BuildingBlock: AJUNOK_clean_linker_0, # of connection points: 2
#     Edge 47, Type (0, 0), BuildingBlock: AJUNOK_clean_linker_0, # of connection points: 2
# Relax obj value: 0.096
# Max RMSD: 0.210
# Mean RMSD: 0.210
data_MOF--net-wme--node1-CUWYAW_clean_sbu_0--edge1-AJUNOK_clean_linker_0
_symmetry_space_group_name_H-M    P1
_symmetry_Int_Tables_number       1
_symmetry_cell_setting            triclinic
loop_
_symmetry_equiv_pos_as_xyz
'x, y, z'
_cell_length_a     31.978826
_cell_length_b     31.984044
_cell_length_c     36.428119
_cell_angle_alpha  89.791976
_cell_angle_beta   89.950827
_cell_angle_gamma 120.09024
loop_
_atom_site_label
_atom_site_type_symbol
_atom_site_fract_x
_atom_site_fract_y
_atom_site_fract_z
_atom_type_partial_charge
C0 C 0.29473 0.25941 0.16138 0.0
Eu1 Eu 0.28233 0.33219 0.1463 0.0
C2 C 0.26564 0.20654 0.15628 0.0
C3 C 0.26374 0.1754 0.18427 0.0
C4 C 0.23818 0.12528 0.1792 0.0
C5 C 0.21434 0.10546 0.14591 0.0
C6 C 0.21475 0.1366 0.11841 0.0
C7 C 0.24001 0.18668 0.12358 0.0
C8 C 0.26367 0.38362 0.19592 0.0
C9 C 0.1691 0.29159 0.12758 0.0
C10 C 0.23321 0.46323 0.08879 0.0
Eu11 Eu 0.25181 0.39572 0.1101 0.0
C12 C 0.2126 0.49305 0.10188 0.0
C13 C 0.18979 0.50833 0.07666 0.0
C14 C 0.17558 0.54162 0.08691 0.0
C15 C 0.18413 0.56067 0.12264 0.0
C16 C 0.20478 0.5434 0.14845 0.0
C17 C 0.21893 0.50999 0.13817 0.0
C18 C 0.28158 0.34737 0.06344 0.0
C19 C 0.36128 0.44305 0.13977 0.0
O20 O 0.31123 0.28569 0.13158 0.0
O21 O 0.27841 0.27815 0.18531 0.0
O22 O 0.29842 0.37388 0.19855 0.0
O23 O 0.23897 0.36474 0.1671 0.0
O24 O 0.20422 0.28112 0.12769 0.0
O25 O 0.17976 0.33688 0.12876 0.0
O26 O 0.2741 0.47177 0.10323 0.0
O27 O 0.20373 0.41717 0.08345 0.0
O28 O 0.24561 0.35394 0.05634 0.0
O29 O 0.30001 0.36814 0.09285 0.0
O30 O 0.32403 0.4494 0.13459 0.0
O31 O 0.35617 0.39937 0.14076 0.0
H32 H 0.28287 0.1899 0.20981 0.0
H33 H 0.23864 0.10209 0.20076 0.0
H34 H 0.19627 0.1222 0.09264 0.0
H35 H 0.24021 0.20986 0.10173 0.0
H36 H 0.18455 0.49586 0.04852 0.0
H37 H 0.15993 0.5542 0.06635 0.0
H38 H 0.21104 0.55661 0.17638 0.0
H39 H 0.23616 0.49858 0.15828 0.0
C40 C 0.07861 0.29582 0.63165 0.0
Eu41 Eu 0.98831 0.27212 0.63911 0.0
C42 C 0.10865 0.27301 0.6372 0.0
C43 C 0.11541 0.25809 0.67197 0.0
C44 C 0.14344 0.2358 0.67574 0.0
C45 C 0.16497 0.22784 0.64483 0.0
C46 C 0.15756 0.2422 0.61013 0.0
C47 C 0.12999 0.26474 0.6064 0.0
C48 C 0.93186 0.2445 0.69965 0.0
C49 C 0.91358 0.15516 0.63783 0.0
C50 C 0.79534 0.20041 0.59117 0.0
Eu51 Eu 0.88432 0.22932 0.61127 0.0
C52 C 0.74558 0.18146 0.60478 0.0
C53 C 0.70731 0.1594 0.57979 0.0
C54 C 0.65978 0.14323 0.59103 0.0
C55 C 0.64938 0.1485 0.62767 0.0
C56 C 0.68783 0.16968 0.65294 0.0
C57 C 0.73556 0.18594 0.64161 0.0
C58 C 0.95678 0.25699 0.55998 0.0
C59 C 0.94172 0.34108 0.638 0.0
O60 O 1.04643 0.27656 0.60563 0.0
O61 O 0.06235 0.308 0.66044 0.0
O62 O 0.97867 0.26507 0.70008 0.0
O63 O 0.91628 0.23966 0.66693 0.0
O64 O 0.95903 0.19019 0.63298 0.0
O65 O 0.8784 0.16494 0.63919 0.0
O66 O 0.81336 0.17181 0.5937 0.0
O67 O 0.82711 0.24539 0.59846 0.0
O68 O 0.91636 0.21665 0.5582 0.0
O69 O 0.95625 0.27887 0.58803 0.0
O70 O 0.89946 0.30122 0.63352 0.0
O71 O 0.98325 0.34087 0.63672 0.0
H72 H 0.09906 0.26351 0.69619 0.0
H73 H 0.14822 0.2247 0.70279 0.0
H74 H 0.17404 0.23695 0.5859 0.0
H75 H 0.12527 0.27576 0.57926 0.0
H76 H 0.71435 0.15574 0.55122 0.0
H77 H 0.63144 0.12847 0.5706 0.0
H78 H 0.68105 0.17442 0.68133 0.0
H79 H 0.76463 0.20272 0.66137 0.0
C80 C 0.81301 0.05313 0.15793 0.0
Eu81 Eu 0.74455 0.96389 0.14754 0.0
C82 C 0.86606 0.08275 0.15553 0.0
C83 C 0.88952 0.12715 0.17378 0.0
C84 C 0.93913 0.15826 0.1691 0.0
C85 C 0.96623 0.14559 0.146 0.0
C86 C 0.94314 0.1001 0.129 0.0
C87 C 0.89327 0.06895 0.13358 0.0
C88 C 0.69678 0.89668 0.20002 0.0
C89 C 0.78626 0.89032 0.13332 0.0
C90 C 0.61762 0.78365 0.09204 0.0
Eu91 Eu 0.68298 0.86977 0.11416 0.0
C92 C 0.5873 0.73342 0.10594 0.0
C93 C 0.6017 0.69884 0.10087 0.0
C94 C 0.57076 0.65032 0.11047 0.0
C95 C 0.5245 0.63519 0.12492 0.0
C96 C 0.5108 0.67008 0.13101 0.0
C97 C 0.54171 0.7185 0.12157 0.0
C98 C 0.72684 0.94678 0.06584 0.0
C99 C 0.63107 0.92481 0.14628 0.0
O100 O 0.79017 0.03698 0.12687 0.0
O101 O 0.79498 1.02098 0.18427 0.0
O102 O 0.70616 0.94114 0.20131 0.0
O103 O 0.71442 0.88934 0.17101 0.0
O104 O 0.79725 0.93627 0.13289 0.0
O105 O 0.74076 0.85617 0.13359 0.0
O106 O 0.6641 0.80067 0.08871 0.0
O107 O 0.60766 0.81618 0.10392 0.0
O108 O 0.72465 0.90583 0.06041 0.0
O109 O 0.70616 0.9443 0.09538 0.0
O110 O 0.62783 0.88245 0.14218 0.0
O111 O 0.67373 0.96505 0.14459 0.0
H112 H 0.8692 0.13835 0.1909 0.0
H113 H 0.95623 0.19283 0.18295 0.0
H114 H 0.96326 0.0895 0.11111 0.0
H115 H 0.87575 0.03479 0.11921 0.0
H116 H 0.63646 0.70904 0.0887 0.0
H117 H 0.58276 0.62453 0.10602 0.0
H118 H 0.47527 0.65963 0.14176 0.0
H119 H 0.52915 0.74395 0.12555 0.0
C120 C 0.78371 0.79644 0.66717 0.0
Eu121 Eu 0.80558 0.72944 0.6537 0.0
C122 C 0.80828 0.84969 0.66533 0.0
C123 C 0.78639 0.87354 0.68159 0.0
C124 C 0.80723 0.92365 0.67808 0.0
C125 C 0.85044 0.95093 0.65821 0.0
C126 C 0.87347 0.92729 0.64316 0.0
C127 C 0.85241 0.87697 0.64656 0.0
C128 C 0.82332 0.6784 0.7044 0.0
C129 C 0.9223 0.77766 0.64165 0.0
C130 C 0.87131 0.61016 0.59742 0.0
Eu131 Eu 0.84606 0.67254 0.6194 0.0
C132 C 0.89069 0.5788 0.60912 0.0
C133 C 0.90982 0.56156 0.58238 0.0
C134 C 0.92401 0.52793 0.59153 0.0
C135 C 0.9193 0.51058 0.62771 0.0
C136 C 0.9021 0.52962 0.65487 0.0
C137 C 0.88774 0.56329 0.64564 0.0
C138 C 0.82035 0.72271 0.57146 0.0
C139 C 0.73377 0.61656 0.64389 0.0
O140 O 0.77545 0.77393 0.63579 0.0
O141 O 0.79869 0.77782 0.69233 0.0
O142 O 0.78654 0.68519 0.70493 0.0
O143 O 0.85043 0.69979 0.67689 0.0
O144 O 0.88528 0.78531 0.6424 0.0
O145 O 0.91543 0.73367 0.63975 0.0
O146 O 0.90058 0.65684 0.59738 0.0
O147 O 0.82784 0.59826 0.60841 0.0
O148 O 0.85586 0.71514 0.56576 0.0
O149 O 0.79778 0.69899 0.59909 0.0
O150 O 0.77384 0.61452 0.64101 0.0
O151 O 0.73515 0.6587 0.64463 0.0
H152 H 0.75252 0.85326 0.69634 0.0
H153 H 0.78896 0.94106 0.6902 0.0
H154 H 0.90664 0.94744 0.62758 0.0
H155 H 0.86995 0.85929 0.63377 0.0
H156 H 0.91239 0.573 0.55403 0.0
H157 H 0.93678 0.51395 0.56989 0.0
H158 H 0.89891 0.51783 0.68315 0.0
H159 H 0.87336 0.57634 0.6668 0.0
C160 C 1.00847 0.74869 0.14078 0.0
Eu161 Eu 0.10188 0.78901 0.14215 0.0
C162 C 0.97685 0.77019 0.14218 0.0
C163 C 0.98645 0.80857 0.16598 0.0
C164 C 0.95878 0.8315 0.16424 0.0
C165 C 0.9214 0.8169 0.13836 0.0
C166 C 0.91252 0.77894 0.11432 0.0
C167 C 0.93985 0.75592 0.11623 0.0
C168 C 0.1632 0.83444 0.19869 0.0
C169 C 0.15921 0.905 0.13315 0.0
C170 C 0.30068 0.88443 0.10796 0.0
Eu171 Eu 0.20745 0.84216 0.11871 0.0
C172 C 0.34692 0.88868 0.12018 0.0
C173 C 0.36023 0.85456 0.11014 0.0
C174 C 0.40643 0.86244 0.11838 0.0
C175 C 0.44045 0.90471 0.13662 0.0
C176 C 0.4266 0.93809 0.14755 0.0
C177 C 0.38049 0.93026 0.13927 0.0
C178 C 0.13957 0.81849 0.06462 0.0
C179 C 0.15755 0.72752 0.13919 0.0
O180 O 1.0351 0.75973 0.11115 0.0
O181 O 1.03221 0.75006 0.1706 0.0
O182 O 0.1205 0.82931 0.19547 0.0
O183 O 0.17122 0.81317 0.17274 0.0
O184 O 0.11728 0.86514 0.12803 0.0
O185 O 0.19918 0.9037 0.13764 0.0
O186 O 0.28004 0.90063 0.13033 0.0
O187 O 0.2694 0.84585 0.08997 0.0
O188 O 0.17946 0.85958 0.06537 0.0
O189 O 0.13896 0.79323 0.09092 0.0
O190 O 0.1978 0.76896 0.13269 0.0
O191 O 0.11484 0.72487 0.14276 0.0
H192 H 1.01558 0.82116 0.1857 0.0
H193 H 0.96615 0.86006 0.18352 0.0
H194 H 0.88439 0.7671 0.0938 0.0
H195 H 0.93262 0.72739 0.09691 0.0
H196 H 0.33547 0.82235 0.09515 0.0
H197 H 0.41604 0.83606 0.1095 0.0
H198 H 0.45151 0.97045 0.1623 0.0
H199 H 0.37148 0.95744 0.14713 0.0
C200 C 0.27829 1.00453 0.67428 0.0
Eu201 Eu 0.34809 0.0912 0.65732 0.0
C202 C 0.22517 0.97719 0.67044 0.0
C203 C 0.19727 0.9384 0.69426 0.0
C204 C 0.14708 0.91066 0.68986 0.0
C205 C 0.12414 0.92103 0.66132 0.0
C206 C 0.15184 0.96059 0.63806 0.0
C207 C 0.2019 0.98886 0.64289 0.0
C208 C 0.40177 0.16189 0.70607 0.0
C209 C 0.30458 0.16227 0.64424 0.0
C210 C 0.47254 0.27505 0.59951 0.0
Eu211 Eu 0.40839 0.1876 0.62103 0.0
C212 C 0.50094 0.32596 0.61174 0.0
C213 C 0.51116 0.36319 0.58652 0.0
C214 C 0.54295 0.41158 0.59561 0.0
C215 C 0.56499 0.42395 0.63036 0.0
C216 C 0.55304 0.3866 0.65614 0.0
C217 C 0.52161 0.33815 0.64688 0.0
C218 C 0.35742 0.11117 0.57387 0.0
C219 C 0.46005 0.1276 0.64694 0.0
O220 O 0.30352 1.01488 0.64391 0.0
O221 O 0.29587 0.0407 0.69718 0.0
O222 O 0.39251 0.11754 0.70875 0.0
O223 O 0.38053 0.16668 0.67834 0.0
O224 O 0.29501 0.11706 0.64145 0.0
O225 O 0.34959 0.19787 0.64446 0.0
O226 O 0.42604 0.25649 0.59487 0.0
O227 O 0.48342 0.24418 0.61384 0.0
O228 O 0.36693 0.15482 0.56731 0.0
O229 O 0.37947 0.11163 0.60228 0.0
O230 O 0.46446 0.17049 0.64187 0.0
O231 O 0.417 0.08794 0.64923 0.0
H232 H 0.21442 0.92907 0.71589 0.0
H233 H 0.12634 0.88013 0.70797 0.0
H234 H 0.13478 0.96919 0.61591 0.0
H235 H 0.22246 1.01936 0.6248 0.0
H236 H 0.49608 0.35467 0.55912 0.0
H237 H 0.55214 0.43897 0.57468 0.0
H238 H 0.56921 0.39474 0.68318 0.0
H239 H 0.51474 0.31019 0.66679 0.0
C240 C 0.81559 0.76815 0.37866 0.0
Eu241 Eu 0.74421 0.78447 0.38858 0.0
C242 C 0.86879 0.79512 0.38075 0.0
C243 C 0.89521 0.78063 0.35883 0.0
C244 C 0.94533 0.80273 0.36253 0.0
C245 C 0.97005 0.83994 0.38815 0.0
C246 C 0.9438 0.85578 0.40915 0.0
C247 C 0.89346 0.83342 0.40555 0.0
C248 C 0.69523 0.80195 0.33592 0.0
C249 C 0.78513 0.89983 0.40133 0.0
C250 C 0.61175 0.83853 0.43571 0.0
Eu251 Eu 0.67965 0.81836 0.41976 0.0
C252 C 0.58879 0.86701 0.42439 0.0
C253 C 0.57538 0.8893 0.45142 0.0
C254 C 0.54665 0.9096 0.44256 0.0
C255 C 0.53082 0.90837 0.40632 0.0
C256 C 0.54638 0.88815 0.37894 0.0
C257 C 0.57482 0.86753 0.38788 0.0
C258 C 0.72604 0.79134 0.47018 0.0
C259 C 0.63279 0.70515 0.3969 0.0
O260 O 0.79231 0.76053 0.40974 0.0
O261 O 0.79589 0.77964 0.35196 0.0
O262 O 0.70466 0.76688 0.33501 0.0
O263 O 0.71345 0.82752 0.36438 0.0
O264 O 0.7955 0.86457 0.40288 0.0
O265 O 0.73979 0.88939 0.40018 0.0
O266 O 0.65491 0.86124 0.45023 0.0
O267 O 0.60559 0.80311 0.41438 0.0
O268 O 0.71955 0.82783 0.47477 0.0
O269 O 0.70619 0.77089 0.44095 0.0
O270 O 0.6258 0.74198 0.40227 0.0
O271 O 0.67667 0.71083 0.39472 0.0
H272 H 0.8769 0.75126 0.33951 0.0
H273 H 0.96475 0.78993 0.34595 0.0
H274 H 0.96188 0.88395 0.4294 0.0
H275 H 0.8737 0.8451 0.42283 0.0
H276 H 0.58513 0.88886 0.47985 0.0
H277 H 0.5345 0.92364 0.46457 0.0
H278 H 0.53498 0.88661 0.35075 0.0
H279 H 0.58411 0.85022 0.36645 0.0
C280 C 0.0725 0.79942 0.87466 0.0
Eu281 Eu 0.98514 0.73052 0.89031 0.0
C282 C 0.09858 0.85297 0.87356 0.0
C283 C 0.12246 0.87718 0.84122 0.0
C284 C 0.15014 0.92766 0.84024 0.0
C285 C 0.1551 0.95506 0.87176 0.0
C286 C 0.12919 0.93096 0.9036 0.0
C287 C 0.10118 0.88041 0.90452 0.0
C288 C 0.91533 0.67842 0.8408 0.0
C289 C 0.91534 0.77668 0.90118 0.0
C290 C 0.80465 0.61296 0.953 0.0
Eu291 Eu 0.89061 0.6745 0.92673 0.0
C292 C 0.75406 0.58018 0.94175 0.0
C293 C 0.71778 0.5604 0.96871 0.0
C294 C 0.67024 0.52592 0.95946 0.0
C295 C 0.65789 0.51043 0.92296 0.0
C296 C 0.694 0.53206 0.89569 0.0
C297 C 0.7417 0.56629 0.90505 0.0
C298 C 0.96867 0.72598 0.9723 0.0
C299 C 0.94575 0.61863 0.9012 0.0
O300 O 0.05965 0.77864 0.90693 0.0
O301 O 1.03924 0.77701 0.84979 0.0
O302 O 0.95913 0.68579 0.8395 0.0
O303 O 0.91 0.69977 0.86829 0.0
O304 O 0.96046 0.78557 0.90235 0.0
O305 O 0.87954 0.73188 0.9024 0.0
O306 O 0.83658 0.60117 0.943 0.0
O307 O 0.82127 0.65937 0.95032 0.0
O308 O 0.92761 0.72399 0.97667 0.0
O309 O 0.96556 0.7004 0.94559 0.0
O310 O 0.90355 0.61628 0.90448 0.0
O311 O 0.98635 0.66093 0.90003 0.0
H312 H 0.12056 0.85696 0.81687 0.0
H313 H 0.16877 0.94523 0.81503 0.0
H314 H 0.13224 0.95106 0.92829 0.0
H315 H 0.08262 0.86287 0.92976 0.0
H316 H 0.72654 0.57059 0.99721 0.0
H317 H 0.64355 0.50996 0.98116 0.0
H318 H 0.6856 0.52185 0.86718 0.0
H319 H 0.76912 0.58103 0.88381 0.0
C320 C 0.30575 0.05955 0.38049 0.0
Eu321 Eu 0.28893 0.97154 0.3905 0.0
C322 C 0.27748 0.08469 0.37833 0.0
C323 C 0.286 0.11694 0.34931 0.0
C324 C 0.26321 0.14459 0.34852 0.0
C325 C 0.23145 0.14073 0.37684 0.0
C326 C 0.22142 0.10697 0.40516 0.0
C327 C 0.24412 0.07915 0.40587 0.0
C328 C 0.26217 0.90336 0.33747 0.0
C329 C 0.17342 0.90044 0.40794 0.0
C330 C 0.23263 0.7859 0.43876 0.0
Eu331 Eu 0.25404 0.87431 0.42209 0.0
C332 C 0.20428 0.73432 0.42763 0.0
C333 C 0.17192 0.69994 0.45282 0.0
C334 C 0.15111 0.65039 0.44589 0.0
C335 C 0.16221 0.63389 0.41357 0.0
C336 C 0.19263 0.66833 0.38744 0.0
C337 C 0.21343 0.71797 0.39437 0.0
C338 C 0.28694 0.94833 0.4724 0.0
C339 C 0.36455 0.9348 0.3933 0.0
O340 O 0.30754 0.04187 0.41248 0.0
O341 O 0.30132 1.03087 0.35343 0.0
O342 O 0.29977 0.9465 0.33559 0.0
O343 O 0.24015 0.8979 0.36768 0.0
O344 O 0.20975 0.94567 0.40677 0.0
O345 O 0.18229 0.86455 0.40737 0.0
O346 O 0.20961 0.8065 0.45235 0.0
O347 O 0.26927 0.81532 0.41823 0.0
O348 O 0.24967 0.90599 0.47776 0.0
O349 O 0.30563 0.94827 0.44228 0.0
O350 O 0.32559 0.89191 0.39691 0.0
O351 O 0.36158 0.97463 0.39482 0.0
H352 H 0.31139 0.1218 0.32771 0.0
H353 H 0.27151 0.17008 0.32621 0.0
H354 H 0.19777 0.10361 0.42768 0.0
H355 H 0.23659 0.05439 0.42858 0.0
H356 H 0.16441 0.71136 0.47875 0.0
H357 H 0.12778 0.62487 0.46655 0.0
H358 H 0.20274 0.65703 0.3626 0.0
H359 H 0.2384 0.74344 0.3744 0.0
C360 C 0.29064 0.3063 0.88684 0.0
Eu361 Eu 0.35145 0.27522 0.89002 0.0
C362 C 0.23822 0.28131 0.89429 0.0
C363 C 0.21656 0.30675 0.9081 0.0
C364 C 0.1665 0.28306 0.91385 0.0
C365 C 0.13741 0.23349 0.90601 0.0
C366 C 0.15934 0.20805 0.89266 0.0
C367 C 0.2092 0.23167 0.88696 0.0
C368 C 0.40131 0.26268 0.83482 0.0
C369 C 0.3004 0.15721 0.89098 0.0
C370 C 0.45069 0.17545 0.93623 0.0
Eu371 Eu 0.40891 0.22612 0.92206 0.0
C372 C 0.49387 0.17054 0.93019 0.0
C373 C 0.5168 0.16424 0.96079 0.0
C374 C 0.55601 0.15679 0.95634 0.0
C375 C 0.57328 0.15544 0.92113 0.0
C376 C 0.54991 0.16096 0.89036 0.0
C377 C 0.51058 0.16857 0.89482 0.0
C378 C 0.36398 0.25561 0.97134 0.0
C379 C 0.46724 0.33938 0.90486 0.0
O380 O 0.31901 0.3144 0.91515 0.0
O381 O 0.30333 0.29052 0.85823 0.0
O382 O 0.37561 0.28339 0.83062 0.0
O383 O 0.40091 0.2523 0.86831 0.0
O384 O 0.29481 0.19509 0.88521 0.0
O385 O 0.34004 0.16085 0.905 0.0
O386 O 0.4214 0.16696 0.90861 0.0
O387 O 0.45532 0.21081 0.95705 0.0
O388 O 0.40468 0.25715 0.97743 0.0
O389 O 0.34807 0.23602 0.94073 0.0
O390 O 0.46887 0.29884 0.90423 0.0
O391 O 0.42548 0.33932 0.90602 0.0
H392 H 0.23821 0.345 0.91391 0.0
H393 H 0.15039 0.30376 0.92361 0.0
H394 H 0.13786 0.16988 0.88651 0.0
H395 H 0.22487 0.2111 0.87624 0.0
H396 H 0.5041 0.16471 0.98829 0.0
H397 H 0.57291 0.15205 0.98053 0.0
H398 H 0.56264 0.1603 0.86292 0.0
H399 H 0.49331 0.17283 0.87066 0.0
C400 C 1.01286 0.26016 0.37143 0.0
Eu401 Eu 0.10085 0.3308 0.38184 0.0
C402 C 0.98525 0.20712 0.37815 0.0
C403 C 0.98993 0.17452 0.35499 0.0
C404 C 0.96149 0.12449 0.36067 0.0
C405 C 0.92784 0.10596 0.38967 0.0
C406 C 0.92416 0.13867 0.4133 0.0
C407 C 0.95232 0.18852 0.40753 0.0
C408 C 0.16876 0.38432 0.33076 0.0
C409 C 0.17267 0.2863 0.38975 0.0
C410 C 0.28756 0.45432 0.43304 0.0
Eu411 Eu 0.19914 0.38918 0.4151 0.0
C412 C 0.33892 0.48119 0.42066 0.0
C413 C 0.3724 0.46794 0.43297 0.0
C414 C 0.42204 0.49767 0.42589 0.0
C415 C 0.43944 0.54172 0.40678 0.0
C416 C 0.40565 0.55386 0.39332 0.0
C417 C 0.35622 0.52414 0.40017 0.0
C418 C 0.12476 0.33599 0.46325 0.0
C419 C 0.13581 0.44164 0.39787 0.0
O420 O 1.0262 0.28782 0.40047 0.0
O421 O 1.04618 0.27651 0.34583 0.0
O422 O 0.12437 0.37545 0.33027 0.0
O423 O 0.175 0.36296 0.35787 0.0
O424 O 0.12757 0.27708 0.39349 0.0
O425 O 0.20834 0.3313 0.38928 0.0
O426 O 0.25717 0.46393 0.41633 0.0
O427 O 0.26791 0.40866 0.4422 0.0
O428 O 0.16792 0.34279 0.46759 0.0
O429 O 0.12494 0.36051 0.43654 0.0
O430 O 0.17827 0.446 0.40492 0.0
O431 O 0.09728 0.39935 0.3903 0.0
H432 H 1.01481 0.18752 0.33199 0.0
H433 H 0.96458 0.10037 0.34152 0.0
H434 H 0.89884 0.12563 0.43604 0.0
H435 H 0.94783 0.21256 0.42591 0.0
H436 H 0.36043 0.43533 0.44908 0.0
H437 H 0.44685 0.48661 0.43602 0.0
H438 H 0.41757 0.58762 0.37881 0.0
H439 H 0.33178 0.536 0.39061 0.0
C440 C 0.79546 1.01259 0.86885 0.0
Eu441 Eu 0.81824 0.10009 0.88718 0.0
C442 C 0.8171 0.98178 0.8734 0.0
C443 C 0.80064 0.94055 0.85164 0.0
C444 C 0.82066 0.91074 0.85541 0.0
C445 C 0.85755 0.9216 0.88109 0.0
C446 C 0.87475 0.96361 0.90239 0.0
C447 C 0.85476 0.99362 0.89846 0.0
C448 C 0.83413 0.17027 0.83783 0.0
C449 C 0.93119 0.15865 0.91316 0.0
C450 C 0.90502 0.28701 0.94026 0.0
Eu451 Eu 0.85646 0.19526 0.92315 0.0
C452 C 0.91088 0.33468 0.9302 0.0
C453 C 0.87677 0.34778 0.94088 0.0
C454 C 0.88481 0.39422 0.93346 0.0
C455 C 0.92719 0.42874 0.91538 0.0
C456 C 0.96093 0.4154 0.90423 0.0
C457 C 0.95294 0.36896 0.91169 0.0
C458 C 0.81219 0.11717 0.96958 0.0
C459 C 0.74784 0.14279 0.90216 0.0
O460 O 0.7793 1.02268 0.89862 0.0
O461 O 0.81914 0.05004 0.84732 0.0
O462 O 0.79657 0.12716 0.8378 0.0
O463 O 0.86089 0.17478 0.86499 0.0
O464 O 0.89888 0.1247 0.89143 0.0
O465 O 0.92065 0.18691 0.93219 0.0
O466 O 0.91976 0.26689 0.91632 0.0
O467 O 0.86531 0.25547 0.957 0.0
O468 O 0.8082 0.15546 0.97262 0.0
O469 O 0.84057 0.12313 0.94373 0.0
O470 O 0.78772 0.18493 0.89961 0.0
O471 O 0.74978 0.10225 0.90307 0.0
H472 H 0.77205 0.93123 0.83183 0.0
H473 H 0.80692 0.87879 0.83845 0.0
H474 H 0.90261 0.97252 0.92275 0.0
H475 H 0.86834 1.02574 0.91519 0.0
H476 H 0.84418 0.32248 0.95545 0.0
H477 H 0.8582 0.40347 0.94255 0.0
H478 H 0.99346 0.4408 0.88965 0.0
H479 H 0.98003 0.36003 0.90331 0.0
C480 C 0.14571 0.96895 0.16026 0.0
C481 C 0.16378 0.95311 0.13165 0.0
C482 C 0.16051 1.01825 0.16396 0.0
C483 C 0.19323 0.05294 0.13886 0.0
H484 H 0.12253 0.94365 0.18111 0.0
H485 H 0.14763 1.02957 0.18728 0.0
S486 S 0.2484 1.02862 0.05809 0.0
N487 N 0.2141 0.97503 0.07711 0.0
N488 N 0.2413 0.06722 0.08359 0.0
C489 C 0.20935 0.03684 0.1091 0.0
C490 C 0.1948 0.987 0.10565 0.0
C491 C 0.22412 0.15185 0.62619 0.0
C492 C 0.26562 0.17415 0.64829 0.0
C493 C 0.19077 0.16839 0.62599 0.0
C494 C 0.19728 0.20701 0.64849 0.0
H495 H 0.2186 0.12308 0.60769 0.0
H496 H 0.16019 0.15152 0.60755 0.0
S497 S 0.29766 0.27404 0.71404 0.0
N498 N 0.3096 0.23435 0.69509 0.0
N499 N 0.24696 0.26495 0.69499 0.0
C500 C 0.23734 0.22776 0.67207 0.0
C501 C 0.27151 0.21146 0.67187 0.0
C502 C 0.05453 0.17027 0.14439 0.0
C503 C 1.01772 0.18137 0.13815 0.0
C504 C 0.10358 0.20554 0.13976 0.0
C505 C 0.11736 0.253 0.12862 0.0
H506 H 1.04541 0.1346 0.15404 0.0
H507 H 0.13083 0.19595 0.14606 0.0
S508 S 1.03391 0.2977 0.10343 0.0
N509 N 0.99796 0.24125 0.11658 0.0
N510 N 0.08939 0.30727 0.10775 0.0
C511 C 0.0805 0.26352 0.12047 0.0
C512 C 1.03091 0.2278 0.12526 0.0
C513 C 0.91549 0.03918 0.66066 0.0
C514 C 0.86853 1.00301 0.65063 0.0
C515 C 0.93099 0.08866 0.65553 0.0
C516 C 0.89994 0.10335 0.64021 0.0
H517 H 0.93982 1.02921 0.67346 0.0
H518 H 0.96676 0.11545 0.66465 0.0
S519 S 0.77635 1.02206 0.60411 0.0
N520 N 0.79345 0.98512 0.62111 0.0
N521 N 0.822 0.07704 0.61129 0.0
C522 C 0.85387 0.06715 0.6284 0.0
C523 C 0.83831 1.01728 0.63367 0.0
C524 C 0.83896 0.80706 0.13596 0.0
C525 C 0.88915 0.83827 0.13765 0.0
C526 C 0.80694 0.82475 0.13456 0.0
C527 C 0.82322 0.87475 0.13482 0.0
H528 H 0.82401 0.76825 0.136 0.0
H529 H 0.76875 0.79837 0.13326 0.0
S530 S 0.95157 0.97241 0.13879 0.0
N531 N 0.95417 0.92208 0.13926 0.0
N532 N 0.89357 0.95549 0.137 0.0
C533 C 0.87344 0.90669 0.1367 0.0
C534 C 0.9064 0.88846 0.13814 0.0
C535 C 0.98727 0.8515 0.67284 0.0
C536 C 0.97253 0.81823 0.64382 0.0
C537 C 1.0365 0.88555 0.67816 0.0
C538 C 0.0721 0.88804 0.65403 0.0
H539 H 0.96094 0.84972 0.69247 0.0
H540 H 0.04689 0.90949 0.70156 0.0
S541 S 0.05157 0.81135 0.57246 0.0
N542 N 0.99707 0.79115 0.59002 0.0
N543 N 0.08904 0.8561 0.59926 0.0
C544 C 0.05746 0.85635 0.62412 0.0
C545 C 1.00775 0.82117 0.6192 0.0
C546 C 0.08565 0.83917 0.40824 0.0
C547 C 0.122 0.88819 0.40578 0.0
C548 C 1.03697 0.82449 0.40294 0.0
C549 C 1.02208 0.85806 0.39526 0.0
H550 H 0.0947 0.81132 0.41365 0.0
H551 H 1.01065 0.78627 0.4047 0.0
S552 S 0.10163 0.99088 0.38739 0.0
N553 N 0.13912 0.97069 0.39616 0.0
N554 N 0.04692 0.94275 0.3866 0.0
C555 C 0.05746 0.90737 0.39389 0.0
C556 C 0.10753 0.9225 0.39903 0.0
C557 C 0.17834 0.04113 0.8871 0.0
C558 C 0.19077 1.0079 0.87263 0.0
C559 C 0.21321 0.09044 0.89107 0.0
C560 C 0.26176 0.10779 0.88132 0.0
H561 H 0.14161 1.02874 0.89599 0.0
H562 H 0.20261 0.11454 0.90337 0.0
S563 S 0.31261 0.03656 0.84053 0.0
N564 N 0.25496 0.9968 0.84736 0.0
N565 N 0.31984 0.08876 0.85458 0.0
C566 C 0.27415 0.0753 0.86566 0.0
C567 C 0.23887 1.02555 0.86139 0.0
C568 C 0.23276 0.26002 0.37714 0.0
C569 C 0.18468 0.24715 0.3854 0.0
C570 C 0.24684 0.22527 0.3739 0.0
C571 C 0.21366 0.17582 0.37879 0.0
H572 H 0.26031 0.29753 0.37334 0.0
H573 H 0.28454 0.23752 0.36828 0.0
S574 S 0.08277 0.12204 0.39913 0.0
N575 N 0.10324 0.1808 0.39733 0.0
N576 N 0.12988 0.11524 0.39108 0.0
C577 C 0.16521 0.16202 0.38658 0.0
C578 C 0.15068 0.19766 0.38979 0.0
C579 C 0.05369 0.18178 0.88109 0.0
C580 C 0.08406 0.2088 0.91027 0.0
C581 C 1.00341 0.16233 0.8831 0.0
C582 C 0.98189 0.16933 0.91436 0.0
H583 H 0.06909 0.17753 0.85585 0.0
H584 H 0.98173 0.14419 0.85925 0.0
S585 S 1.04468 0.2299 1.00065 0.0
N586 N 0.08839 0.23606 0.97302 0.0
N587 N 0.99422 0.19985 0.97694 0.0
C588 C 1.0116 0.1934 0.94466 0.0
C589 C 0.06262 0.21315 0.94256 0.0
C590 C 0.84393 0.03664 0.39846 0.0
C591 C 0.89338 0.05299 0.39354 0.0
C592 C 0.80993 0.98737 0.40126 0.0
C593 C 0.82356 0.95178 0.39933 0.0
H594 H 0.83109 0.06217 0.3995 0.0
H595 H 0.77238 0.97729 0.40477 0.0
S596 S 0.94904 0.97548 0.38777 0.0
N597 N 0.95479 1.02978 0.38782 0.0
N598 N 0.89066 0.9368 0.39272 0.0
C599 C 0.87306 0.96753 0.39477 0.0
C600 C 0.90792 1.0181 0.39185 0.0
C601 C 0.85428 0.80298 0.89659 0.0
C602 C 0.90334 0.81575 0.89715 0.0
C603 C 0.84036 0.83759 0.89177 0.0
C604 C 0.87473 0.88671 0.88726 0.0
H605 H 0.82587 0.76569 0.89973 0.0
H606 H 0.8021 0.82565 0.89167 0.0
S607 S 1.008 0.93999 0.88687 0.0
N608 N 0.98668 0.88156 0.89322 0.0
N609 N 0.96024 0.94692 0.88386 0.0
C610 C 0.92403 0.90049 0.88826 0.0
C611 C 0.93838 0.86496 0.89318 0.0
C612 C 0.12438 0.63872 0.12697 0.0
C613 C 0.1616 0.683 0.14058 0.0
C614 C 0.13122 0.59876 0.1223 0.0
C615 C 0.17521 0.60122 0.13168 0.0
H616 H 0.09059 0.63559 0.11815 0.0
H617 H 0.10219 0.56598 0.11051 0.0
S618 S 0.2829 0.70782 0.17079 0.0
N619 N 0.24314 0.72586 0.16531 0.0
N620 N 0.25579 0.6513 0.15657 0.0
C621 C 0.21183 0.64462 0.14684 0.0
C622 C 0.20508 0.68529 0.15126 0.0
C623 C 0.59351 0.17217 0.65692 0.0
C624 C 0.59962 0.13722 0.63819 0.0
C625 C 0.54762 0.16682 0.66175 0.0
C626 C 0.50568 0.12612 0.64838 0.0
H627 H 0.62467 0.20538 0.66605 0.0
H628 H 0.54522 0.19598 0.67474 0.0
S629 S 0.50106 1.02123 0.60153 0.0
N630 N 0.55917 0.05801 0.60943 0.0
N631 N 0.47276 0.04825 0.61841 0.0
C632 C 0.51074 0.08929 0.63185 0.0
C633 C 0.55772 0.09486 0.62667 0.0
C634 C 0.46003 0.5687 0.16346 0.0
C635 C 0.48894 0.58304 0.13152 0.0
C636 C 0.42067 0.5216 0.16744 0.0
C637 C 0.40941 0.48682 0.14003 0.0
H638 H 0.46656 0.59471 0.18486 0.0
H639 H 0.3975 0.51297 0.19133 0.0
S640 S 0.47335 0.50495 0.05147 0.0
N641 N 0.50335 0.55779 0.07214 0.0
N642 N 0.43013 0.46919 0.08031 0.0
C643 C 0.43922 0.49973 0.10888 0.0
C644 C 0.47893 0.54783 0.1045 0.0
C645 C 0.97013 0.47055 0.62179 0.0
C646 C 0.92872 0.47006 0.63591 0.0
C647 C 0.97619 0.42992 0.62485 0.0
C648 C 0.94076 0.387 0.64175 0.0
H649 H 0.99741 0.50214 0.60727 0.0
H650 H 1.00745 0.43127 0.61208 0.0
S651 S 0.82748 0.3678 0.68562 0.0
N652 N 0.8531 0.42342 0.66921 0.0
N653 N 0.86464 0.34783 0.6753 0.0
C654 C 0.90048 0.38693 0.65759 0.0
C655 C 0.89443 0.42819 0.65462 0.0
C656 C 0.54294 0.882 0.16067 0.0
C657 C 0.58479 0.92499 0.14974 0.0
C658 C 0.49682 0.87654 0.15759 0.0
C659 C 0.49033 0.91384 0.14351 0.0
H660 H 0.54555 0.85139 0.17055 0.0
H661 H 0.46582 0.8423 0.16552 0.0
S662 S 0.58795 0.03491 0.11327 0.0
N663 N 0.61681 1.00669 0.1264 0.0
N664 N 0.52995 0.99635 0.12017 0.0
C665 C 0.53194 0.95799 0.13424 0.0
C666 C 0.57917 0.96361 0.13751 0.0
C667 C 0.68841 0.52802 0.65705 0.0
C668 C 0.68748 0.56956 0.64525 0.0
C669 C 0.64805 0.48168 0.65361 0.0
C670 C 0.60467 0.47444 0.63805 0.0
H671 H 0.72128 0.53107 0.66809 0.0
H672 H 0.65178 0.45108 0.66168 0.0
S673 S 0.58144 0.57133 0.60591 0.0
N674 N 0.63832 0.60069 0.61957 0.0
N675 N 0.56198 0.51344 0.61341 0.0
C676 C 0.60233 0.51581 0.62771 0.0
C677 C 0.64369 0.56332 0.63137 0.0
C678 C 0.41211 0.89622 0.37432 0.0
C679 C 0.41148 0.93579 0.39058 0.0
C680 C 0.45193 0.88941 0.37785 0.0
C681 C 0.493 0.92164 0.39811 0.0
H682 H 0.38053 0.8689 0.36001 0.0
H683 H 0.44922 0.85696 0.36633 0.0
S684 S 0.51191 0.03403 0.44282 0.0
N685 N 0.45708 1.00991 0.42521 0.0
N686 N 0.53232 0.99737 0.43181 0.0
C687 C 0.49408 0.96298 0.41275 0.0
C688 C 0.45338 0.9701 0.40888 0.0
C689 C 0.5667 0.46708 0.92912 0.0
C690 C 0.60855 0.46925 0.91423 0.0
C691 C 0.52049 0.42613 0.92436 0.0
C692 C 0.51446 0.38552 0.90494 0.0
H693 H 0.56981 0.49691 0.94522 0.0
H694 H 0.48969 0.42547 0.93736 0.0
S695 S 0.61166 0.37367 0.85874 0.0
N696 N 0.64015 0.42743 0.87808 0.0
N697 N 0.55396 0.35143 0.86866 0.0
C698 C 0.55574 0.38805 0.88873 0.0
C699 C 0.60253 0.4296 0.89346 0.0
C700 C 0.15637 0.55839 0.43911 0.0
C701 C 0.14774 0.58179 0.40974 0.0
C702 C 0.14937 0.51171 0.43539 0.0
C703 C 0.13263 0.48593 0.40241 0.0
H704 H 0.17108 0.57721 0.4647 0.0
H705 H 0.15887 0.49627 0.45821 0.0
S706 S 0.10109 0.5287 0.31797 0.0
N707 N 0.11886 0.57414 0.34696 0.0
N708 N 0.10542 0.48594 0.34029 0.0
C709 C 0.1216 0.50762 0.37332 0.0
C710 C 0.12933 0.55567 0.37689 0.0
C711 C 0.65874 0.11051 0.89103 0.0
C712 C 0.70221 0.14329 0.90844 0.0
C713 C 0.617 0.11465 0.89488 0.0
C714 C 0.61724 0.15098 0.9169 0.0
H715 H 0.65735 0.0825 0.87358 0.0
H716 H 0.58431 0.08918 0.88071 0.0
S717 S 0.72147 0.2443 0.96941 0.0
N718 N 0.74236 0.21225 0.94934 0.0
N719 N 0.66452 0.21967 0.95654 0.0
C720 C 0.66026 0.18315 0.93494 0.0
C721 C 0.70254 0.17935 0.93075 0.0
C722 C 0.51063 0.60253 0.36941 0.0
C723 C 0.49242 0.57696 0.4027 0.0
C724 C 0.55799 0.64192 0.36673 0.0
C725 C 0.58933 0.65663 0.39694 0.0
H726 H 0.48738 0.59342 0.34564 0.0
H727 H 0.56937 0.66251 0.34136 0.0
S728 S 0.56121 0.60166 0.4898 0.0
N729 N 0.51092 0.56915 0.46636 0.0
N730 N 0.60009 0.64224 0.46065 0.0
C731 C 0.57283 0.63005 0.42971 0.0
C732 C 0.52442 0.59031 0.43271 0.0
C733 C 0.90291 0.52986 0.88998 0.0
C734 C 0.94561 0.57211 0.90031 0.0
C735 C 0.89802 0.48406 0.89387 0.0
C736 C 0.93558 0.47832 0.90831 0.0
H737 H 0.87229 0.53198 0.87956 0.0
H738 H 0.86411 0.45272 0.88607 0.0
S739 S 0.05545 0.5772 0.93863 0.0
N740 N 1.02689 0.60533 0.92452 0.0
N741 N 1.01762 0.519 0.93217 0.0
C742 C 0.97924 0.5203 0.91751 0.0
C743 C 0.98428 0.56721 0.91341 0.0
C744 C 0.24088 0.39395 0.29667 0.0
C745 C 0.19731 0.39467 0.29632 0.0
C746 C 0.2638 0.39376 0.26391 0.0
C747 C 0.24379 0.39369 0.22942 0.0
H748 H 0.25628 0.3912 0.32243 0.0
H749 H 0.29612 0.39097 0.2658 0.0
S750 S 0.13511 0.40435 0.21324 0.0
N751 N 0.13872 0.40239 0.2584 0.0
N752 N 0.18149 0.40095 0.1969 0.0
C753 C 0.20241 0.39832 0.22861 0.0
C754 C 0.17927 0.39911 0.26204 0.0
C755 C 0.85531 0.1928 0.73515 0.0
C756 C 0.90285 0.2319 0.73383 0.0
C757 C 0.83149 0.17514 0.769 0.0
C758 C 0.85444 0.19614 0.80257 0.0
H759 H 0.83756 0.17393 0.7102 0.0
H760 H 0.79601 0.14305 0.76889 0.0
S761 S 0.97484 0.30572 0.81304 0.0
N762 N 0.96911 0.29569 0.7684 0.0
N763 N 0.92434 0.26264 0.8316 0.0
C764 C 0.90013 0.23798 0.80115 0.0
C765 C 0.92438 0.25575 0.76688 0.0
C766 C 0.69006 0.82549 0.23433 0.0
C767 C 0.68719 0.86791 0.23424 0.0
C768 C 0.68944 0.80249 0.26739 0.0
C769 C 0.68651 0.8214 0.3016 0.0
H770 H 0.69494 0.81109 0.20883 0.0
H771 H 0.69385 0.77109 0.26609 0.0
S772 S 0.67104 0.92746 0.3162 0.0
N773 N 0.67513 0.92442 0.27122 0.0
N774 N 0.67543 0.88188 0.33312 0.0
C775 C 0.68033 0.86182 0.30176 0.0
C776 C 0.68028 0.88488 0.26814 0.0
C777 C 0.88628 0.67033 0.73929 0.0
C778 C 0.84155 0.66865 0.73897 0.0
C779 C 0.9084 0.67011 0.77247 0.0
C780 C 0.88697 0.66899 0.8066 0.0
H781 H 0.90536 0.67395 0.71381 0.0
H782 H 0.94383 0.67353 0.77125 0.0
S783 S 0.76671 0.65694 0.82085 0.0
N784 N 0.77361 0.65936 0.77582 0.0
N785 N 0.81629 0.66081 0.83795 0.0
C786 C 0.84085 0.66398 0.80663 0.0
C787 C 0.81784 0.6633 0.77287 0.0
C788 C 0.23923 0.87354 0.23592 0.0
C789 C 0.1886 0.84602 0.23434 0.0
C790 C 0.26309 0.88972 0.26977 0.0
C791 C 0.23718 0.87807 0.30319 0.0
H792 H 0.26032 0.88459 0.21081 0.0
H793 H 0.30199 0.91302 0.26964 0.0
S794 S 0.10425 0.80025 0.31372 0.0
N795 N 0.11356 0.80362 0.26896 0.0
N796 N 0.15822 0.83244 0.33231 0.0
C797 C 0.18674 0.84745 0.3019 0.0
C798 C 0.16249 0.83192 0.26752 0.0
C799 C 0.41424 0.19935 0.8059 0.0
C800 C 0.41627 0.24414 0.80343 0.0
C801 C 0.41333 0.1743 0.77402 0.0
C802 C 0.41429 0.19327 0.73878 0.0
H803 H 0.40937 0.18179 0.83231 0.0
H804 H 0.40843 0.13841 0.77711 0.0
S805 S 0.43095 0.31427 0.71828 0.0
N806 N 0.4276 0.31011 0.76351 0.0
N807 N 0.42567 0.26298 0.70376 0.0
C808 C 0.42135 0.24015 0.73626 0.0
C809 C 0.42241 0.26562 0.7686 0.0
C810 C 0.29543 0.27019 0.989 0.0
C811 C 0.34249 0.27816 0.99515 0.0
C812 C 0.2759 0.29305 1.01058 0.0
C813 C 0.30224 0.32387 0.03974 0.0
H814 H 0.27356 0.24628 0.96721 0.0
H815 H 0.23978 0.28608 1.00464 0.0
S816 S 0.42638 0.35544 0.06808 0.0
N817 N 0.41439 0.31879 0.03295 0.0
N818 N 0.37775 0.36018 0.07374 0.0
C819 C 0.34891 0.33122 0.04649 0.0
C820 C 0.3689 0.30865 0.02431 0.0
C821 C 0.07293 0.34444 0.51019 0.0
C822 C 0.08458 0.31423 0.49016 0.0
C823 C 1.03152 0.32525 0.53253 0.0
C824 C 0.99921 0.27507 0.53488 0.0
H825 H 0.09582 0.38334 0.50829 0.0
H826 H 1.02437 0.35007 0.54773 0.0
S827 S 1.0135 0.18047 0.48755 0.0
N828 N 0.06102 0.23174 0.4741 0.0
N829 N 0.98234 0.19549 0.51541 0.0
C830 C 1.01034 0.24439 0.51478 0.0
C831 C 0.05324 0.26403 0.49259 0.0
C832 C 0.77826 0.9943 1.0116 0.0
C833 C 0.74748 0.98972 0.04085 0.0
C834 C 0.79914 0.03565 0.98883 0.0
C835 C 0.78968 0.07386 0.99412 0.0
H836 H 0.78686 0.96608 1.00657 0.0
H837 H 0.82312 0.03777 0.96701 0.0
S838 S 0.71045 0.07912 0.06606 0.0
N839 N 0.70794 1.02693 0.0733 0.0
N840 N 0.74676 0.10383 0.03049 0.0
C841 C 0.7586 0.06945 0.02298 0.0
C842 C 0.73761 1.02763 0.04628 0.0
C843 C 0.80401 0.7871 0.54819 0.0
C844 C 0.79937 0.74121 0.54401 0.0
C845 C 0.7802 0.80328 0.52437 0.0
C846 C 0.75078 0.77399 0.49563 0.0
H847 H 0.82586 0.8105 0.57022 0.0
H848 H 0.78488 0.83889 0.52852 0.0
S849 S 0.72517 0.64963 0.47461 0.0
N850 N 0.7624 0.66633 0.50992 0.0
N851 N 0.71741 0.69589 0.46548 0.0
C852 C 0.74583 0.72783 0.4915 0.0
C853 C 0.77017 0.71165 0.5156 0.0
C854 C 0.04721 0.73714 0.99504 0.0
C855 C 1.0131 0.75274 0.99487 0.0
C856 C 0.08928 0.76036 1.01638 0.0
C857 C 0.10003 0.80129 0.03735 0.0
H858 H 1.04066 0.70569 0.97937 0.0
H859 H 0.11319 0.74552 1.01707 0.0
S860 S 1.02401 0.8582 0.0454 0.0
N861 N 0.99337 0.81224 1.01735 0.0
N862 N 0.0738 0.85733 0.05607 0.0
C863 C 0.06725 0.81848 0.03649 0.0
C864 C 1.02345 0.79383 1.01562 0.0
C865 C 0.27857 0.9887 0.52902 0.0
C866 C 0.3054 0.99056 0.49775 0.0
C867 C 0.29522 1.02829 0.55306 0.0
C868 C 0.33896 0.07144 0.54663 0.0
H869 H 0.24446 0.9564 0.53504 0.0
H870 H 0.27363 1.02513 0.57685 0.0
S871 S 0.42407 0.09475 0.46991 0.0
N872 N 0.37932 0.0392 0.46271 0.0
N873 N 0.40944 0.11345 0.50741 0.0
C874 C 0.36613 0.07394 0.5156 0.0
C875 C 0.34965 0.03355 0.49133 0.0
loop_
_geom_bond_atom_site_label_1
_geom_bond_atom_site_label_2
_geom_bond_distance
_geom_bond_site_symmetry_2
_ccdc_geom_bond_type
C0 Eu1 2.835 . S
C0 C2 1.500 . S
C0 O20 1.257 . S
C0 O21 1.260 . S
Eu1 C0 2.835 . S
Eu1 O20 2.473 . S
Eu1 O21 2.480 . S
Eu1 O22 2.430 . S
Eu1 O23 2.670 . S
Eu1 O24 2.394 . S
Eu1 O29 2.355 . S
Eu1 O31 2.374 . S
C2 C0 1.500 . S
C2 C3 1.377 . S
C2 C7 1.377 . S
C3 C2 1.377 . S
C3 C4 1.395 . S
C3 H32 0.931 . S
C4 C3 1.395 . S
C4 C5 1.383 . S
C4 H33 0.931 . S
C5 C4 1.383 . S
C5 C6 1.394 . S
C6 C5 1.394 . S
C6 C7 1.378 . S
C6 H34 0.931 . S
C7 C2 1.377 . S
C7 C6 1.378 . S
C7 H35 0.931 . S
C8 O22 1.259 . S
C8 O23 1.270 . S
C9 O24 1.251 . S
C9 O25 1.251 . S
C10 Eu11 2.835 . S
C10 C12 1.500 . S
C10 O26 1.257 . S
C10 O27 1.260 . S
Eu11 C10 2.835 . S
Eu11 O23 2.355 . S
Eu11 O25 2.374 . S
Eu11 O26 2.473 . S
Eu11 O27 2.480 . S
Eu11 O28 2.430 . S
Eu11 O29 2.670 . S
Eu11 O30 2.394 . S
C12 C10 1.500 . S
C12 C13 1.377 . S
C12 C17 1.377 . S
C13 C12 1.377 . S
C13 C14 1.395 . S
C13 H36 0.931 . S
C14 C13 1.395 . S
C14 C15 1.383 . S
C14 H37 0.931 . S
C15 C14 1.383 . S
C15 C16 1.394 . S
C16 C15 1.394 . S
C16 C17 1.378 . S
C16 H38 0.931 . S
C17 C12 1.377 . S
C17 C16 1.378 . S
C17 H39 0.931 . S
C18 O28 1.259 . S
C18 O29 1.270 . S
C19 O30 1.251 . S
C19 O31 1.251 . S
O20 C0 1.257 . S
O20 Eu1 2.473 . S
O21 C0 1.260 . S
O21 Eu1 2.480 . S
O22 Eu1 2.430 . S
O22 C8 1.259 . S
O23 Eu1 2.670 . S
O23 C8 1.270 . S
O23 Eu11 2.355 . S
O24 Eu1 2.394 . S
O24 C9 1.251 . S
O25 C9 1.251 . S
O25 Eu11 2.374 . S
O26 C10 1.257 . S
O26 Eu11 2.473 . S
O27 C10 1.260 . S
O27 Eu11 2.480 . S
O28 Eu11 2.430 . S
O28 C18 1.259 . S
O29 Eu1 2.355 . S
O29 Eu11 2.670 . S
O29 C18 1.270 . S
O30 Eu11 2.394 . S
O30 C19 1.251 . S
O31 Eu1 2.374 . S
O31 C19 1.251 . S
H32 C3 0.931 . S
H33 C4 0.931 . S
H34 C6 0.931 . S
H35 C7 0.931 . S
H36 C13 0.931 . S
H37 C14 0.931 . S
H38 C16 0.931 . S
H39 C17 0.931 . S
C40 Eu41 2.835 . S
C40 C42 1.500 1_655 S
C40 O60 1.257 . S
C40 O61 1.260 . S
Eu41 C40 2.835 . S
Eu41 O60 2.473 . S
Eu41 O61 2.480 . S
Eu41 O62 2.430 . S
Eu41 O63 2.670 . S
Eu41 O64 2.394 . S
Eu41 O69 2.355 . S
Eu41 O71 2.374 . S
C42 C40 1.500 1_455 S
C42 C43 1.377 . S
C42 C47 1.377 . S
C43 C42 1.377 . S
C43 C44 1.395 . S
C43 H72 0.931 . S
C44 C43 1.395 . S
C44 C45 1.383 . S
C44 H73 0.931 . S
C45 C44 1.383 . S
C45 C46 1.394 . S
C46 C45 1.394 . S
C46 C47 1.378 . S
C46 H74 0.931 . S
C47 C42 1.377 . S
C47 C46 1.378 . S
C47 H75 0.931 . S
C48 O62 1.259 . S
C48 O63 1.270 . S
C49 O64 1.251 . S
C49 O65 1.251 . S
C50 Eu51 2.835 . S
C50 C52 1.500 . S
C50 O66 1.257 . S
C50 O67 1.260 . S
Eu51 C50 2.835 . S
Eu51 O63 2.355 . S
Eu51 O65 2.374 . S
Eu51 O66 2.473 . S
Eu51 O67 2.480 . S
Eu51 O68 2.430 . S
Eu51 O69 2.670 . S
Eu51 O70 2.394 . S
C52 C50 1.500 . S
C52 C53 1.377 . S
C52 C57 1.377 . S
C53 C52 1.377 . S
C53 C54 1.395 . S
C53 H76 0.931 . S
C54 C53 1.395 . S
C54 C55 1.383 . S
C54 H77 0.931 . S
C55 C54 1.383 . S
C55 C56 1.394 . S
C56 C55 1.394 . S
C56 C57 1.378 . S
C56 H78 0.931 . S
C57 C52 1.377 . S
C57 C56 1.378 . S
C57 H79 0.931 . S
C58 O68 1.259 . S
C58 O69 1.270 . S
C59 O70 1.251 . S
C59 O71 1.251 . S
O60 C40 1.257 . S
O60 Eu41 2.473 . S
O61 C40 1.260 . S
O61 Eu41 2.480 . S
O62 Eu41 2.430 . S
O62 C48 1.259 . S
O63 Eu41 2.670 . S
O63 C48 1.270 . S
O63 Eu51 2.355 . S
O64 Eu41 2.394 . S
O64 C49 1.251 . S
O65 C49 1.251 . S
O65 Eu51 2.374 . S
O66 C50 1.257 . S
O66 Eu51 2.473 . S
O67 C50 1.260 . S
O67 Eu51 2.480 . S
O68 Eu51 2.430 . S
O68 C58 1.259 . S
O69 Eu41 2.355 . S
O69 Eu51 2.670 . S
O69 C58 1.270 . S
O70 Eu51 2.394 . S
O70 C59 1.251 . S
O71 Eu41 2.374 . S
O71 C59 1.251 . S
H72 C43 0.931 . S
H73 C44 0.931 . S
H74 C46 0.931 . S
H75 C47 0.931 . S
H76 C53 0.931 . S
H77 C54 0.931 . S
H78 C56 0.931 . S
H79 C57 0.931 . S
C80 Eu81 2.835 . S
C80 C82 1.500 1_565 S
C80 O100 1.257 . S
C80 O101 1.260 . S
Eu81 C80 2.835 . S
Eu81 O100 2.473 . S
Eu81 O101 2.480 . S
Eu81 O102 2.430 . S
Eu81 O103 2.670 . S
Eu81 O104 2.394 . S
Eu81 O109 2.355 . S
Eu81 O111 2.374 . S
C82 C80 1.500 1_545 S
C82 C83 1.377 . S
C82 C87 1.377 . S
C83 C82 1.377 . S
C83 C84 1.395 . S
C83 H112 0.931 . S
C84 C83 1.395 . S
C84 C85 1.383 . S
C84 H113 0.931 . S
C85 C84 1.383 . S
C85 C86 1.394 . S
C86 C85 1.394 . S
C86 C87 1.378 . S
C86 H114 0.931 . S
C87 C82 1.377 . S
C87 C86 1.378 . S
C87 H115 0.931 . S
C88 O102 1.259 . S
C88 O103 1.270 . S
C89 O104 1.251 . S
C89 O105 1.251 . S
C90 Eu91 2.835 . S
C90 C92 1.500 . S
C90 O106 1.257 . S
C90 O107 1.260 . S
Eu91 C90 2.835 . S
Eu91 O103 2.355 . S
Eu91 O105 2.374 . S
Eu91 O106 2.473 . S
Eu91 O107 2.480 . S
Eu91 O108 2.430 . S
Eu91 O109 2.670 . S
Eu91 O110 2.394 . S
C92 C90 1.500 . S
C92 C93 1.377 . S
C92 C97 1.377 . S
C93 C92 1.377 . S
C93 C94 1.395 . S
C93 H116 0.931 . S
C94 C93 1.395 . S
C94 C95 1.383 . S
C94 H117 0.931 . S
C95 C94 1.383 . S
C95 C96 1.394 . S
C96 C95 1.394 . S
C96 C97 1.378 . S
C96 H118 0.931 . S
C97 C92 1.377 . S
C97 C96 1.378 . S
C97 H119 0.931 . S
C98 O108 1.259 . S
C98 O109 1.270 . S
C99 O110 1.251 . S
C99 O111 1.251 . S
O100 C80 1.257 . S
O100 Eu81 2.473 . S
O101 C80 1.260 . S
O101 Eu81 2.480 . S
O102 Eu81 2.430 . S
O102 C88 1.259 . S
O103 Eu81 2.670 . S
O103 C88 1.270 . S
O103 Eu91 2.355 . S
O104 Eu81 2.394 . S
O104 C89 1.251 . S
O105 C89 1.251 . S
O105 Eu91 2.374 . S
O106 C90 1.257 . S
O106 Eu91 2.473 . S
O107 C90 1.260 . S
O107 Eu91 2.480 . S
O108 Eu91 2.430 . S
O108 C98 1.259 . S
O109 Eu81 2.355 . S
O109 Eu91 2.670 . S
O109 C98 1.270 . S
O110 Eu91 2.394 . S
O110 C99 1.251 . S
O111 Eu81 2.374 . S
O111 C99 1.251 . S
H112 C83 0.931 . S
H113 C84 0.931 . S
H114 C86 0.931 . S
H115 C87 0.931 . S
H116 C93 0.931 . S
H117 C94 0.931 . S
H118 C96 0.931 . S
H119 C97 0.931 . S
C120 Eu121 2.835 . S
C120 C122 1.500 . S
C120 O140 1.257 . S
C120 O141 1.260 . S
Eu121 C120 2.835 . S
Eu121 O140 2.473 . S
Eu121 O141 2.480 . S
Eu121 O142 2.430 . S
Eu121 O143 2.670 . S
Eu121 O144 2.394 . S
Eu121 O149 2.355 . S
Eu121 O151 2.374 . S
C122 C120 1.500 . S
C122 C123 1.377 . S
C122 C127 1.377 . S
C123 C122 1.377 . S
C123 C124 1.395 . S
C123 H152 0.931 . S
C124 C123 1.395 . S
C124 C125 1.383 . S
C124 H153 0.931 . S
C125 C124 1.383 . S
C125 C126 1.394 . S
C126 C125 1.394 . S
C126 C127 1.378 . S
C126 H154 0.931 . S
C127 C122 1.377 . S
C127 C126 1.378 . S
C127 H155 0.931 . S
C128 O142 1.259 . S
C128 O143 1.270 . S
C129 O144 1.251 . S
C129 O145 1.251 . S
C130 Eu131 2.835 . S
C130 C132 1.500 . S
C130 O146 1.257 . S
C130 O147 1.260 . S
Eu131 C130 2.835 . S
Eu131 O143 2.355 . S
Eu131 O145 2.374 . S
Eu131 O146 2.473 . S
Eu131 O147 2.480 . S
Eu131 O148 2.430 . S
Eu131 O149 2.670 . S
Eu131 O150 2.394 . S
C132 C130 1.500 . S
C132 C133 1.377 . S
C132 C137 1.377 . S
C133 C132 1.377 . S
C133 C134 1.395 . S
C133 H156 0.931 . S
C134 C133 1.395 . S
C134 C135 1.383 . S
C134 H157 0.931 . S
C135 C134 1.383 . S
C135 C136 1.394 . S
C136 C135 1.394 . S
C136 C137 1.378 . S
C136 H158 0.931 . S
C137 C132 1.377 . S
C137 C136 1.378 . S
C137 H159 0.931 . S
C138 O148 1.259 . S
C138 O149 1.270 . S
C139 O150 1.251 . S
C139 O151 1.251 . S
O140 C120 1.257 . S
O140 Eu121 2.473 . S
O141 C120 1.260 . S
O141 Eu121 2.480 . S
O142 Eu121 2.430 . S
O142 C128 1.259 . S
O143 Eu121 2.670 . S
O143 C128 1.270 . S
O143 Eu131 2.355 . S
O144 Eu121 2.394 . S
O144 C129 1.251 . S
O145 C129 1.251 . S
O145 Eu131 2.374 . S
O146 C130 1.257 . S
O146 Eu131 2.473 . S
O147 C130 1.260 . S
O147 Eu131 2.480 . S
O148 Eu131 2.430 . S
O148 C138 1.259 . S
O149 Eu121 2.355 . S
O149 Eu131 2.670 . S
O149 C138 1.270 . S
O150 Eu131 2.394 . S
O150 C139 1.251 . S
O151 Eu121 2.374 . S
O151 C139 1.251 . S
H152 C123 0.931 . S
H153 C124 0.931 . S
H154 C126 0.931 . S
H155 C127 0.931 . S
H156 C133 0.931 . S
H157 C134 0.931 . S
H158 C136 0.931 . S
H159 C137 0.931 . S
C160 Eu161 2.835 . S
C160 C162 1.500 1_455 S
C160 O180 1.257 . S
C160 O181 1.260 . S
Eu161 C160 2.835 . S
Eu161 O180 2.473 . S
Eu161 O181 2.480 . S
Eu161 O182 2.430 . S
Eu161 O183 2.670 . S
Eu161 O184 2.394 . S
Eu161 O189 2.355 . S
Eu161 O191 2.374 . S
C162 C160 1.500 1_655 S
C162 C163 1.377 . S
C162 C167 1.377 . S
C163 C162 1.377 . S
C163 C164 1.395 . S
C163 H192 0.931 . S
C164 C163 1.395 . S
C164 C165 1.383 . S
C164 H193 0.931 . S
C165 C164 1.383 . S
C165 C166 1.394 . S
C166 C165 1.394 . S
C166 C167 1.378 . S
C166 H194 0.931 . S
C167 C162 1.377 . S
C167 C166 1.378 . S
C167 H195 0.931 . S
C168 O182 1.259 . S
C168 O183 1.270 . S
C169 O184 1.251 . S
C169 O185 1.251 . S
C170 Eu171 2.835 . S
C170 C172 1.500 . S
C170 O186 1.257 . S
C170 O187 1.260 . S
Eu171 C170 2.835 . S
Eu171 O183 2.355 . S
Eu171 O185 2.374 . S
Eu171 O186 2.473 . S
Eu171 O187 2.480 . S
Eu171 O188 2.430 . S
Eu171 O189 2.670 . S
Eu171 O190 2.394 . S
C172 C170 1.500 . S
C172 C173 1.377 . S
C172 C177 1.377 . S
C173 C172 1.377 . S
C173 C174 1.395 . S
C173 H196 0.931 . S
C174 C173 1.395 . S
C174 C175 1.383 . S
C174 H197 0.931 . S
C175 C174 1.383 . S
C175 C176 1.394 . S
C176 C175 1.394 . S
C176 C177 1.378 . S
C176 H198 0.931 . S
C177 C172 1.377 . S
C177 C176 1.378 . S
C177 H199 0.931 . S
C178 O188 1.259 . S
C178 O189 1.270 . S
C179 O190 1.251 . S
C179 O191 1.251 . S
O180 C160 1.257 . S
O180 Eu161 2.473 . S
O181 C160 1.260 . S
O181 Eu161 2.480 . S
O182 Eu161 2.430 . S
O182 C168 1.259 . S
O183 Eu161 2.670 . S
O183 C168 1.270 . S
O183 Eu171 2.355 . S
O184 Eu161 2.394 . S
O184 C169 1.251 . S
O185 C169 1.251 . S
O185 Eu171 2.374 . S
O186 C170 1.257 . S
O186 Eu171 2.473 . S
O187 C170 1.260 . S
O187 Eu171 2.480 . S
O188 Eu171 2.430 . S
O188 C178 1.259 . S
O189 Eu161 2.355 . S
O189 Eu171 2.670 . S
O189 C178 1.270 . S
O190 Eu171 2.394 . S
O190 C179 1.251 . S
O191 Eu161 2.374 . S
O191 C179 1.251 . S
H192 C163 0.931 . S
H193 C164 0.931 . S
H194 C166 0.931 . S
H195 C167 0.931 . S
H196 C173 0.931 . S
H197 C174 0.931 . S
H198 C176 0.931 . S
H199 C177 0.931 . S
C200 Eu201 2.835 . S
C200 C202 1.500 1_545 S
C200 O220 1.257 . S
C200 O221 1.260 . S
Eu201 C200 2.835 . S
Eu201 O220 2.473 . S
Eu201 O221 2.480 . S
Eu201 O222 2.430 . S
Eu201 O223 2.670 . S
Eu201 O224 2.394 . S
Eu201 O229 2.355 . S
Eu201 O231 2.374 . S
C202 C200 1.500 1_565 S
C202 C203 1.377 . S
C202 C207 1.377 . S
C203 C202 1.377 . S
C203 C204 1.395 . S
C203 H232 0.931 . S
C204 C203 1.395 . S
C204 C205 1.383 . S
C204 H233 0.931 . S
C205 C204 1.383 . S
C205 C206 1.394 . S
C206 C205 1.394 . S
C206 C207 1.378 . S
C206 H234 0.931 . S
C207 C202 1.377 . S
C207 C206 1.378 . S
C207 H235 0.931 . S
C208 O222 1.259 . S
C208 O223 1.270 . S
C209 O224 1.251 . S
C209 O225 1.251 . S
C210 Eu211 2.835 . S
C210 C212 1.500 . S
C210 O226 1.257 . S
C210 O227 1.260 . S
Eu211 C210 2.835 . S
Eu211 O223 2.355 . S
Eu211 O225 2.374 . S
Eu211 O226 2.473 . S
Eu211 O227 2.480 . S
Eu211 O228 2.430 . S
Eu211 O229 2.670 . S
Eu211 O230 2.394 . S
C212 C210 1.500 . S
C212 C213 1.377 . S
C212 C217 1.377 . S
C213 C212 1.377 . S
C213 C214 1.395 . S
C213 H236 0.931 . S
C214 C213 1.395 . S
C214 C215 1.383 . S
C214 H237 0.931 . S
C215 C214 1.383 . S
C215 C216 1.394 . S
C216 C215 1.394 . S
C216 C217 1.378 . S
C216 H238 0.931 . S
C217 C212 1.377 . S
C217 C216 1.378 . S
C217 H239 0.931 . S
C218 O228 1.259 . S
C218 O229 1.270 . S
C219 O230 1.251 . S
C219 O231 1.251 . S
O220 C200 1.257 . S
O220 Eu201 2.473 . S
O221 C200 1.260 . S
O221 Eu201 2.480 . S
O222 Eu201 2.430 . S
O222 C208 1.259 . S
O223 Eu201 2.670 . S
O223 C208 1.270 . S
O223 Eu211 2.355 . S
O224 Eu201 2.394 . S
O224 C209 1.251 . S
O225 C209 1.251 . S
O225 Eu211 2.374 . S
O226 C210 1.257 . S
O226 Eu211 2.473 . S
O227 C210 1.260 . S
O227 Eu211 2.480 . S
O228 Eu211 2.430 . S
O228 C218 1.259 . S
O229 Eu201 2.355 . S
O229 Eu211 2.670 . S
O229 C218 1.270 . S
O230 Eu211 2.394 . S
O230 C219 1.251 . S
O231 Eu201 2.374 . S
O231 C219 1.251 . S
H232 C203 0.931 . S
H233 C204 0.931 . S
H234 C206 0.931 . S
H235 C207 0.931 . S
H236 C213 0.931 . S
H237 C214 0.931 . S
H238 C216 0.931 . S
H239 C217 0.931 . S
C240 Eu241 2.835 . S
C240 C242 1.500 . S
C240 O260 1.257 . S
C240 O261 1.260 . S
Eu241 C240 2.835 . S
Eu241 O260 2.473 . S
Eu241 O261 2.480 . S
Eu241 O262 2.430 . S
Eu241 O263 2.670 . S
Eu241 O264 2.394 . S
Eu241 O269 2.355 . S
Eu241 O271 2.374 . S
C242 C240 1.500 . S
C242 C243 1.377 . S
C242 C247 1.377 . S
C243 C242 1.377 . S
C243 C244 1.395 . S
C243 H272 0.931 . S
C244 C243 1.395 . S
C244 C245 1.383 . S
C244 H273 0.931 . S
C245 C244 1.383 . S
C245 C246 1.394 . S
C246 C245 1.394 . S
C246 C247 1.378 . S
C246 H274 0.931 . S
C247 C242 1.377 . S
C247 C246 1.378 . S
C247 H275 0.931 . S
C248 O262 1.259 . S
C248 O263 1.270 . S
C249 O264 1.251 . S
C249 O265 1.251 . S
C250 Eu251 2.835 . S
C250 C252 1.500 . S
C250 O266 1.257 . S
C250 O267 1.260 . S
Eu251 C250 2.835 . S
Eu251 O263 2.355 . S
Eu251 O265 2.374 . S
Eu251 O266 2.473 . S
Eu251 O267 2.480 . S
Eu251 O268 2.430 . S
Eu251 O269 2.670 . S
Eu251 O270 2.394 . S
C252 C250 1.500 . S
C252 C253 1.377 . S
C252 C257 1.377 . S
C253 C252 1.377 . S
C253 C254 1.395 . S
C253 H276 0.931 . S
C254 C253 1.395 . S
C254 C255 1.383 . S
C254 H277 0.931 . S
C255 C254 1.383 . S
C255 C256 1.394 . S
C256 C255 1.394 . S
C256 C257 1.378 . S
C256 H278 0.931 . S
C257 C252 1.377 . S
C257 C256 1.378 . S
C257 H279 0.931 . S
C258 O268 1.259 . S
C258 O269 1.270 . S
C259 O270 1.251 . S
C259 O271 1.251 . S
O260 C240 1.257 . S
O260 Eu241 2.473 . S
O261 C240 1.260 . S
O261 Eu241 2.480 . S
O262 Eu241 2.430 . S
O262 C248 1.259 . S
O263 Eu241 2.670 . S
O263 C248 1.270 . S
O263 Eu251 2.355 . S
O264 Eu241 2.394 . S
O264 C249 1.251 . S
O265 C249 1.251 . S
O265 Eu251 2.374 . S
O266 C250 1.257 . S
O266 Eu251 2.473 . S
O267 C250 1.260 . S
O267 Eu251 2.480 . S
O268 Eu251 2.430 . S
O268 C258 1.259 . S
O269 Eu241 2.355 . S
O269 Eu251 2.670 . S
O269 C258 1.270 . S
O270 Eu251 2.394 . S
O270 C259 1.251 . S
O271 Eu241 2.374 . S
O271 C259 1.251 . S
H272 C243 0.931 . S
H273 C244 0.931 . S
H274 C246 0.931 . S
H275 C247 0.931 . S
H276 C253 0.931 . S
H277 C254 0.931 . S
H278 C256 0.931 . S
H279 C257 0.931 . S
C280 Eu281 2.835 . S
C280 C282 1.500 1_655 S
C280 O300 1.257 . S
C280 O301 1.260 . S
Eu281 C280 2.835 . S
Eu281 O300 2.473 . S
Eu281 O301 2.480 . S
Eu281 O302 2.430 . S
Eu281 O303 2.670 . S
Eu281 O304 2.394 . S
Eu281 O309 2.355 . S
Eu281 O311 2.374 . S
C282 C280 1.500 1_455 S
C282 C283 1.377 . S
C282 C287 1.377 . S
C283 C282 1.377 . S
C283 C284 1.395 . S
C283 H312 0.931 . S
C284 C283 1.395 . S
C284 C285 1.383 . S
C284 H313 0.931 . S
C285 C284 1.383 . S
C285 C286 1.394 . S
C286 C285 1.394 . S
C286 C287 1.378 . S
C286 H314 0.931 . S
C287 C282 1.377 . S
C287 C286 1.378 . S
C287 H315 0.931 . S
C288 O302 1.259 . S
C288 O303 1.270 . S
C289 O304 1.251 . S
C289 O305 1.251 . S
C290 Eu291 2.835 . S
C290 C292 1.500 . S
C290 O306 1.257 . S
C290 O307 1.260 . S
Eu291 C290 2.835 . S
Eu291 O303 2.355 . S
Eu291 O305 2.374 . S
Eu291 O306 2.473 . S
Eu291 O307 2.480 . S
Eu291 O308 2.430 . S
Eu291 O309 2.670 . S
Eu291 O310 2.394 . S
C292 C290 1.500 . S
C292 C293 1.377 . S
C292 C297 1.377 . S
C293 C292 1.377 . S
C293 C294 1.395 . S
C293 H316 0.931 . S
C294 C293 1.395 . S
C294 C295 1.383 . S
C294 H317 0.931 . S
C295 C294 1.383 . S
C295 C296 1.394 . S
C296 C295 1.394 . S
C296 C297 1.378 . S
C296 H318 0.931 . S
C297 C292 1.377 . S
C297 C296 1.378 . S
C297 H319 0.931 . S
C298 O308 1.259 . S
C298 O309 1.270 . S
C299 O310 1.251 . S
C299 O311 1.251 . S
O300 C280 1.257 . S
O300 Eu281 2.473 . S
O301 C280 1.260 . S
O301 Eu281 2.480 . S
O302 Eu281 2.430 . S
O302 C288 1.259 . S
O303 Eu281 2.670 . S
O303 C288 1.270 . S
O303 Eu291 2.355 . S
O304 Eu281 2.394 . S
O304 C289 1.251 . S
O305 C289 1.251 . S
O305 Eu291 2.374 . S
O306 C290 1.257 . S
O306 Eu291 2.473 . S
O307 C290 1.260 . S
O307 Eu291 2.480 . S
O308 Eu291 2.430 . S
O308 C298 1.259 . S
O309 Eu281 2.355 . S
O309 Eu291 2.670 . S
O309 C298 1.270 . S
O310 Eu291 2.394 . S
O310 C299 1.251 . S
O311 Eu281 2.374 . S
O311 C299 1.251 . S
H312 C283 0.931 . S
H313 C284 0.931 . S
H314 C286 0.931 . S
H315 C287 0.931 . S
H316 C293 0.931 . S
H317 C294 0.931 . S
H318 C296 0.931 . S
H319 C297 0.931 . S
C320 Eu321 2.835 . S
C320 C322 1.500 1_565 S
C320 O340 1.257 . S
C320 O341 1.260 . S
Eu321 C320 2.835 . S
Eu321 O340 2.473 . S
Eu321 O341 2.480 . S
Eu321 O342 2.430 . S
Eu321 O343 2.670 . S
Eu321 O344 2.394 . S
Eu321 O349 2.355 . S
Eu321 O351 2.374 . S
C322 C320 1.500 1_545 S
C322 C323 1.377 . S
C322 C327 1.377 . S
C323 C322 1.377 . S
C323 C324 1.395 . S
C323 H352 0.931 . S
C324 C323 1.395 . S
C324 C325 1.383 . S
C324 H353 0.931 . S
C325 C324 1.383 . S
C325 C326 1.394 . S
C326 C325 1.394 . S
C326 C327 1.378 . S
C326 H354 0.931 . S
C327 C322 1.377 . S
C327 C326 1.378 . S
C327 H355 0.931 . S
C328 O342 1.259 . S
C328 O343 1.270 . S
C329 O344 1.251 . S
C329 O345 1.251 . S
C330 Eu331 2.835 . S
C330 C332 1.500 . S
C330 O346 1.257 . S
C330 O347 1.260 . S
Eu331 C330 2.835 . S
Eu331 O343 2.355 . S
Eu331 O345 2.374 . S
Eu331 O346 2.473 . S
Eu331 O347 2.480 . S
Eu331 O348 2.430 . S
Eu331 O349 2.670 . S
Eu331 O350 2.394 . S
C332 C330 1.500 . S
C332 C333 1.377 . S
C332 C337 1.377 . S
C333 C332 1.377 . S
C333 C334 1.395 . S
C333 H356 0.931 . S
C334 C333 1.395 . S
C334 C335 1.383 . S
C334 H357 0.931 . S
C335 C334 1.383 . S
C335 C336 1.394 . S
C336 C335 1.394 . S
C336 C337 1.378 . S
C336 H358 0.931 . S
C337 C332 1.377 . S
C337 C336 1.378 . S
C337 H359 0.931 . S
C338 O348 1.259 . S
C338 O349 1.270 . S
C339 O350 1.251 . S
C339 O351 1.251 . S
O340 C320 1.257 . S
O340 Eu321 2.473 . S
O341 C320 1.260 . S
O341 Eu321 2.480 . S
O342 Eu321 2.430 . S
O342 C328 1.259 . S
O343 Eu321 2.670 . S
O343 C328 1.270 . S
O343 Eu331 2.355 . S
O344 Eu321 2.394 . S
O344 C329 1.251 . S
O345 C329 1.251 . S
O345 Eu331 2.374 . S
O346 C330 1.257 . S
O346 Eu331 2.473 . S
O347 C330 1.260 . S
O347 Eu331 2.480 . S
O348 Eu331 2.430 . S
O348 C338 1.259 . S
O349 Eu321 2.355 . S
O349 Eu331 2.670 . S
O349 C338 1.270 . S
O350 Eu331 2.394 . S
O350 C339 1.251 . S
O351 Eu321 2.374 . S
O351 C339 1.251 . S
H352 C323 0.931 . S
H353 C324 0.931 . S
H354 C326 0.931 . S
H355 C327 0.931 . S
H356 C333 0.931 . S
H357 C334 0.931 . S
H358 C336 0.931 . S
H359 C337 0.931 . S
C360 Eu361 2.835 . S
C360 C362 1.500 . S
C360 O380 1.257 . S
C360 O381 1.260 . S
Eu361 C360 2.835 . S
Eu361 O380 2.473 . S
Eu361 O381 2.480 . S
Eu361 O382 2.430 . S
Eu361 O383 2.670 . S
Eu361 O384 2.394 . S
Eu361 O389 2.355 . S
Eu361 O391 2.374 . S
C362 C360 1.500 . S
C362 C363 1.377 . S
C362 C367 1.377 . S
C363 C362 1.377 . S
C363 C364 1.395 . S
C363 H392 0.931 . S
C364 C363 1.395 . S
C364 C365 1.383 . S
C364 H393 0.931 . S
C365 C364 1.383 . S
C365 C366 1.394 . S
C366 C365 1.394 . S
C366 C367 1.378 . S
C366 H394 0.931 . S
C367 C362 1.377 . S
C367 C366 1.378 . S
C367 H395 0.931 . S
C368 O382 1.259 . S
C368 O383 1.270 . S
C369 O384 1.251 . S
C369 O385 1.251 . S
C370 Eu371 2.835 . S
C370 C372 1.500 . S
C370 O386 1.257 . S
C370 O387 1.260 . S
Eu371 C370 2.835 . S
Eu371 O383 2.355 . S
Eu371 O385 2.374 . S
Eu371 O386 2.473 . S
Eu371 O387 2.480 . S
Eu371 O388 2.430 . S
Eu371 O389 2.670 . S
Eu371 O390 2.394 . S
C372 C370 1.500 . S
C372 C373 1.377 . S
C372 C377 1.377 . S
C373 C372 1.377 . S
C373 C374 1.395 . S
C373 H396 0.931 . S
C374 C373 1.395 . S
C374 C375 1.383 . S
C374 H397 0.931 . S
C375 C374 1.383 . S
C375 C376 1.394 . S
C376 C375 1.394 . S
C376 C377 1.378 . S
C376 H398 0.931 . S
C377 C372 1.377 . S
C377 C376 1.378 . S
C377 H399 0.931 . S
C378 O388 1.259 . S
C378 O389 1.270 . S
C379 O390 1.251 . S
C379 O391 1.251 . S
O380 C360 1.257 . S
O380 Eu361 2.473 . S
O381 C360 1.260 . S
O381 Eu361 2.480 . S
O382 Eu361 2.430 . S
O382 C368 1.259 . S
O383 Eu361 2.670 . S
O383 C368 1.270 . S
O383 Eu371 2.355 . S
O384 Eu361 2.394 . S
O384 C369 1.251 . S
O385 C369 1.251 . S
O385 Eu371 2.374 . S
O386 C370 1.257 . S
O386 Eu371 2.473 . S
O387 C370 1.260 . S
O387 Eu371 2.480 . S
O388 Eu371 2.430 . S
O388 C378 1.259 . S
O389 Eu361 2.355 . S
O389 Eu371 2.670 . S
O389 C378 1.270 . S
O390 Eu371 2.394 . S
O390 C379 1.251 . S
O391 Eu361 2.374 . S
O391 C379 1.251 . S
H392 C363 0.931 . S
H393 C364 0.931 . S
H394 C366 0.931 . S
H395 C367 0.931 . S
H396 C373 0.931 . S
H397 C374 0.931 . S
H398 C376 0.931 . S
H399 C377 0.931 . S
C400 Eu401 2.835 . S
C400 C402 1.500 1_455 S
C400 O420 1.257 . S
C400 O421 1.260 . S
Eu401 C400 2.835 . S
Eu401 O420 2.473 . S
Eu401 O421 2.480 . S
Eu401 O422 2.430 . S
Eu401 O423 2.670 . S
Eu401 O424 2.394 . S
Eu401 O429 2.355 . S
Eu401 O431 2.374 . S
C402 C400 1.500 1_655 S
C402 C403 1.377 . S
C402 C407 1.377 . S
C403 C402 1.377 . S
C403 C404 1.395 . S
C403 H432 0.931 . S
C404 C403 1.395 . S
C404 C405 1.383 . S
C404 H433 0.931 . S
C405 C404 1.383 . S
C405 C406 1.394 . S
C406 C405 1.394 . S
C406 C407 1.378 . S
C406 H434 0.931 . S
C407 C402 1.377 . S
C407 C406 1.378 . S
C407 H435 0.931 . S
C408 O422 1.259 . S
C408 O423 1.270 . S
C409 O424 1.251 . S
C409 O425 1.251 . S
C410 Eu411 2.835 . S
C410 C412 1.500 . S
C410 O426 1.257 . S
C410 O427 1.260 . S
Eu411 C410 2.835 . S
Eu411 O423 2.355 . S
Eu411 O425 2.374 . S
Eu411 O426 2.473 . S
Eu411 O427 2.480 . S
Eu411 O428 2.430 . S
Eu411 O429 2.670 . S
Eu411 O430 2.394 . S
C412 C410 1.500 . S
C412 C413 1.377 . S
C412 C417 1.377 . S
C413 C412 1.377 . S
C413 C414 1.395 . S
C413 H436 0.931 . S
C414 C413 1.395 . S
C414 C415 1.383 . S
C414 H437 0.931 . S
C415 C414 1.383 . S
C415 C416 1.394 . S
C416 C415 1.394 . S
C416 C417 1.378 . S
C416 H438 0.931 . S
C417 C412 1.377 . S
C417 C416 1.378 . S
C417 H439 0.931 . S
C418 O428 1.259 . S
C418 O429 1.270 . S
C419 O430 1.251 . S
C419 O431 1.251 . S
O420 C400 1.257 . S
O420 Eu401 2.473 . S
O421 C400 1.260 . S
O421 Eu401 2.480 . S
O422 Eu401 2.430 . S
O422 C408 1.259 . S
O423 Eu401 2.670 . S
O423 C408 1.270 . S
O423 Eu411 2.355 . S
O424 Eu401 2.394 . S
O424 C409 1.251 . S
O425 C409 1.251 . S
O425 Eu411 2.374 . S
O426 C410 1.257 . S
O426 Eu411 2.473 . S
O427 C410 1.260 . S
O427 Eu411 2.480 . S
O428 Eu411 2.430 . S
O428 C418 1.259 . S
O429 Eu401 2.355 . S
O429 Eu411 2.670 . S
O429 C418 1.270 . S
O430 Eu411 2.394 . S
O430 C419 1.251 . S
O431 Eu401 2.374 . S
O431 C419 1.251 . S
H432 C403 0.931 . S
H433 C404 0.931 . S
H434 C406 0.931 . S
H435 C407 0.931 . S
H436 C413 0.931 . S
H437 C414 0.931 . S
H438 C416 0.931 . S
H439 C417 0.931 . S
C440 Eu441 2.835 . S
C440 C442 1.500 1_545 S
C440 O460 1.257 . S
C440 O461 1.260 . S
Eu441 C440 2.835 . S
Eu441 O460 2.473 . S
Eu441 O461 2.480 . S
Eu441 O462 2.430 . S
Eu441 O463 2.670 . S
Eu441 O464 2.394 . S
Eu441 O469 2.355 . S
Eu441 O471 2.374 . S
C442 C440 1.500 1_565 S
C442 C443 1.377 . S
C442 C447 1.377 . S
C443 C442 1.377 . S
C443 C444 1.395 . S
C443 H472 0.931 . S
C444 C443 1.395 . S
C444 C445 1.383 . S
C444 H473 0.931 . S
C445 C444 1.383 . S
C445 C446 1.394 . S
C446 C445 1.394 . S
C446 C447 1.378 . S
C446 H474 0.931 . S
C447 C442 1.377 . S
C447 C446 1.378 . S
C447 H475 0.931 . S
C448 O462 1.259 . S
C448 O463 1.270 . S
C449 O464 1.251 . S
C449 O465 1.251 . S
C450 Eu451 2.835 . S
C450 C452 1.500 . S
C450 O466 1.257 . S
C450 O467 1.260 . S
Eu451 C450 2.835 . S
Eu451 O463 2.355 . S
Eu451 O465 2.374 . S
Eu451 O466 2.473 . S
Eu451 O467 2.480 . S
Eu451 O468 2.430 . S
Eu451 O469 2.670 . S
Eu451 O470 2.394 . S
C452 C450 1.500 . S
C452 C453 1.377 . S
C452 C457 1.377 . S
C453 C452 1.377 . S
C453 C454 1.395 . S
C453 H476 0.931 . S
C454 C453 1.395 . S
C454 C455 1.383 . S
C454 H477 0.931 . S
C455 C454 1.383 . S
C455 C456 1.394 . S
C456 C455 1.394 . S
C456 C457 1.378 . S
C456 H478 0.931 . S
C457 C452 1.377 . S
C457 C456 1.378 . S
C457 H479 0.931 . S
C458 O468 1.259 . S
C458 O469 1.270 . S
C459 O470 1.251 . S
C459 O471 1.251 . S
O460 C440 1.257 . S
O460 Eu441 2.473 . S
O461 C440 1.260 . S
O461 Eu441 2.480 . S
O462 Eu441 2.430 . S
O462 C448 1.259 . S
O463 Eu441 2.670 . S
O463 C448 1.270 . S
O463 Eu451 2.355 . S
O464 Eu441 2.394 . S
O464 C449 1.251 . S
O465 C449 1.251 . S
O465 Eu451 2.374 . S
O466 C450 1.257 . S
O466 Eu451 2.473 . S
O467 C450 1.260 . S
O467 Eu451 2.480 . S
O468 Eu451 2.430 . S
O468 C458 1.259 . S
O469 Eu441 2.355 . S
O469 Eu451 2.670 . S
O469 C458 1.270 . S
O470 Eu451 2.394 . S
O470 C459 1.251 . S
O471 Eu441 2.374 . S
O471 C459 1.251 . S
H472 C443 0.931 . S
H473 C444 0.931 . S
H474 C446 0.931 . S
H475 C447 0.931 . S
H476 C453 0.931 . S
H477 C454 0.931 . S
H478 C456 0.931 . S
H479 C457 0.931 . S
C480 C481 1.369 . S
C480 C482 1.419 . S
C480 H484 0.930 . S
C481 C480 1.369 . S
C481 C490 1.429 . S
C482 C480 1.419 . S
C482 C483 1.363 1_565 S
C482 H485 0.929 . S
C483 C482 1.363 1_545 S
C483 C489 1.428 . S
H484 C480 0.930 . S
H485 C482 0.929 . S
S486 N487 1.613 1_545 S
S486 N488 1.610 . S
N487 S486 1.613 1_565 S
N487 C490 1.350 . S
N488 S486 1.610 . S
N488 C489 1.351 . S
C489 C483 1.428 . S
C489 N488 1.351 . S
C489 C490 1.434 1_545 S
C490 C481 1.429 . S
C490 N487 1.350 . S
C490 C489 1.434 1_565 S
C491 C492 1.369 . S
C491 C493 1.419 . S
C491 H495 0.930 . S
C492 C491 1.369 . S
C492 C501 1.429 . S
C493 C491 1.419 . S
C493 C494 1.363 . S
C493 H496 0.929 . S
C494 C493 1.363 . S
C494 C500 1.428 . S
H495 C491 0.930 . S
H496 C493 0.929 . S
S497 N498 1.613 . S
S497 N499 1.610 . S
N498 S497 1.613 . S
N498 C501 1.350 . S
N499 S497 1.610 . S
N499 C500 1.351 . S
C500 C494 1.428 . S
C500 N499 1.351 . S
C500 C501 1.434 . S
C501 C492 1.429 . S
C501 N498 1.350 . S
C501 C500 1.434 . S
C502 C503 1.369 1_455 S
C502 C504 1.419 . S
C502 H506 0.925 . S
C503 C502 1.369 1_655 S
C503 C512 1.429 . S
C504 C502 1.419 . S
C504 C505 1.363 . S
C504 H507 0.929 . S
C505 C504 1.363 . S
C505 C511 1.428 . S
H506 C502 0.925 . S
H507 C504 0.929 . S
S508 N509 1.613 . S
S508 N510 1.610 1_655 S
N509 S508 1.613 . S
N509 C512 1.350 . S
N510 S508 1.610 1_455 S
N510 C511 1.351 . S
C511 C505 1.428 . S
C511 N510 1.351 . S
C511 C512 1.434 1_455 S
C512 C503 1.429 . S
C512 N509 1.350 . S
C512 C511 1.434 1_655 S
C513 C514 1.369 1_545 S
C513 C515 1.419 . S
C513 H517 0.930 . S
C514 C513 1.369 1_565 S
C514 C523 1.429 . S
C515 C513 1.419 . S
C515 C516 1.363 . S
C515 H518 0.929 . S
C516 C515 1.363 . S
C516 C522 1.428 . S
H517 C513 0.930 . S
H518 C515 0.929 . S
S519 N520 1.613 . S
S519 N521 1.610 1_565 S
N520 S519 1.613 . S
N520 C523 1.350 . S
N521 S519 1.610 1_545 S
N521 C522 1.351 . S
C522 C516 1.428 . S
C522 N521 1.351 . S
C522 C523 1.434 1_545 S
C523 C514 1.429 . S
C523 N520 1.350 . S
C523 C522 1.434 1_565 S
C524 C525 1.369 . S
C524 C526 1.419 . S
C524 H528 0.930 . S
C525 C524 1.369 . S
C525 C534 1.429 . S
C526 C524 1.419 . S
C526 C527 1.363 . S
C526 H529 0.929 . S
C527 C526 1.363 . S
C527 C533 1.428 . S
H528 C524 0.930 . S
H529 C526 0.929 . S
S530 N531 1.613 . S
S530 N532 1.610 . S
N531 S530 1.613 . S
N531 C534 1.350 . S
N532 S530 1.610 . S
N532 C533 1.351 . S
C533 C527 1.428 . S
C533 N532 1.351 . S
C533 C534 1.434 . S
C534 C525 1.429 . S
C534 N531 1.350 . S
C534 C533 1.434 . S
C535 C536 1.369 . S
C535 C537 1.419 . S
C535 H539 0.930 . S
C536 C535 1.369 . S
C536 C545 1.429 . S
C537 C535 1.419 . S
C537 C538 1.363 1_655 S
C537 H540 0.929 . S
C538 C537 1.363 1_455 S
C538 C544 1.428 . S
H539 C535 0.930 . S
H540 C537 0.929 . S
S541 N542 1.613 1_455 S
S541 N543 1.610 . S
N542 S541 1.613 1_655 S
N542 C545 1.350 . S
N543 S541 1.610 . S
N543 C544 1.351 . S
C544 C538 1.428 . S
C544 N543 1.351 . S
C544 C545 1.434 1_455 S
C545 C536 1.429 . S
C545 N542 1.350 . S
C545 C544 1.434 1_655 S
C546 C547 1.369 . S
C546 C548 1.419 . S
C546 H550 0.930 . S
C547 C546 1.369 . S
C547 C556 1.429 . S
C548 C546 1.419 . S
C548 C549 1.363 1_455 S
C548 H551 0.927 1_455 S
C549 C548 1.363 1_655 S
C549 C555 1.428 . S
H550 C546 0.930 . S
H551 C548 0.927 1_655 S
S552 N553 1.613 1_655 S
S552 N554 1.610 . S
N553 S552 1.613 1_455 S
N553 C556 1.350 . S
N554 S552 1.610 . S
N554 C555 1.351 . S
C555 C549 1.428 . S
C555 N554 1.351 . S
C555 C556 1.434 1_655 S
C556 C547 1.429 . S
C556 N553 1.350 . S
C556 C555 1.434 1_455 S
C557 C558 1.376 . S
C557 C559 1.411 1_565 S
C557 H561 0.930 . S
C558 C557 1.376 . S
C558 C567 1.428 1_565 S
C559 C557 1.411 1_545 S
C559 C560 1.363 . S
C559 H562 0.929 . S
C560 C559 1.363 . S
C560 C566 1.428 . S
H561 C557 0.930 . S
H562 C559 0.929 . S
S563 N564 1.613 1_545 S
S563 N565 1.610 . S
N564 S563 1.613 1_565 S
N564 C567 1.344 1_565 S
N565 S563 1.610 . S
N565 C566 1.351 . S
C566 C560 1.428 . S
C566 N565 1.351 . S
C566 C567 1.440 . S
C567 C558 1.428 1_545 S
C567 N564 1.344 1_545 S
C567 C566 1.440 . S
C568 C569 1.369 . S
C568 C570 1.419 . S
C568 H572 0.930 . S
C569 C568 1.369 . S
C569 C578 1.429 . S
C570 C568 1.419 . S
C570 C571 1.363 . S
C570 H573 0.929 . S
C571 C570 1.363 . S
C571 C577 1.428 . S
H572 C568 0.930 . S
H573 C570 0.929 . S
S574 N575 1.613 . S
S574 N576 1.610 . S
N575 S574 1.613 . S
N575 C578 1.350 . S
N576 S574 1.610 . S
N576 C577 1.351 . S
C577 C571 1.428 . S
C577 N576 1.351 . S
C577 C578 1.434 . S
C578 C569 1.429 . S
C578 N575 1.350 . S
C578 C577 1.434 . S
C579 C580 1.369 1_655 S
C579 C581 1.419 . S
C579 H583 0.930 1_655 S
C580 C579 1.369 1_455 S
C580 C589 1.429 . S
C581 C579 1.419 . S
C581 C582 1.363 . S
C581 H584 0.929 . S
C582 C581 1.363 . S
C582 C588 1.428 . S
H583 C579 0.930 1_455 S
H584 C581 0.929 . S
S585 N586 1.613 1_655 S
S585 N587 1.610 . S
N586 S585 1.613 1_455 S
N586 C589 1.350 . S
N587 S585 1.610 . S
N587 C588 1.351 . S
C588 C582 1.428 . S
C588 N587 1.351 . S
C588 C589 1.434 1_655 S
C589 C580 1.429 . S
C589 N586 1.350 . S
C589 C588 1.434 1_455 S
C590 C591 1.369 . S
C590 C592 1.419 1_545 S
C590 H594 0.930 . S
C591 C590 1.369 . S
C591 C600 1.429 1_545 S
C592 C590 1.419 1_565 S
C592 C593 1.363 . S
C592 H595 0.929 . S
C593 C592 1.363 . S
C593 C599 1.428 . S
H594 C590 0.930 . S
H595 C592 0.929 . S
S596 N597 1.613 . S
S596 N598 1.610 . S
N597 S596 1.613 . S
N597 C600 1.350 . S
N598 S596 1.610 . S
N598 C599 1.351 . S
C599 C593 1.428 . S
C599 N598 1.351 . S
C599 C600 1.434 . S
C600 C591 1.429 1_565 S
C600 N597 1.350 . S
C600 C599 1.434 . S
C601 C602 1.369 . S
C601 C603 1.419 . S
C601 H605 0.930 . S
C602 C601 1.369 . S
C602 C611 1.429 . S
C603 C601 1.419 . S
C603 C604 1.363 . S
C603 H606 0.929 . S
C604 C603 1.363 . S
C604 C610 1.428 . S
H605 C601 0.930 . S
H606 C603 0.929 . S
S607 N608 1.613 . S
S607 N609 1.610 . S
N608 S607 1.613 . S
N608 C611 1.350 . S
N609 S607 1.610 . S
N609 C610 1.351 . S
C610 C604 1.428 . S
C610 N609 1.351 . S
C610 C611 1.434 . S
C611 C602 1.429 . S
C611 N608 1.350 . S
C611 C610 1.434 . S
C612 C613 1.369 . S
C612 C614 1.419 . S
C612 H616 0.930 . S
C613 C612 1.369 . S
C613 C622 1.429 . S
C614 C612 1.419 . S
C614 C615 1.363 . S
C614 H617 0.929 . S
C615 C614 1.363 . S
C615 C621 1.428 . S
H616 C612 0.930 . S
H617 C614 0.929 . S
S618 N619 1.613 . S
S618 N620 1.610 . S
N619 S618 1.613 . S
N619 C622 1.350 . S
N620 S618 1.610 . S
N620 C621 1.351 . S
C621 C615 1.428 . S
C621 N620 1.351 . S
C621 C622 1.434 . S
C622 C613 1.429 . S
C622 N619 1.350 . S
C622 C621 1.434 . S
C623 C624 1.369 . S
C623 C625 1.419 . S
C623 H627 0.930 . S
C624 C623 1.369 . S
C624 C633 1.429 . S
C625 C623 1.419 . S
C625 C626 1.363 . S
C625 H628 0.929 . S
C626 C625 1.363 . S
C626 C632 1.428 . S
H627 C623 0.930 . S
H628 C625 0.929 . S
S629 N630 1.613 . S
S629 N631 1.610 . S
N630 S629 1.613 . S
N630 C633 1.350 . S
N631 S629 1.610 . S
N631 C632 1.351 . S
C632 C626 1.428 . S
C632 N631 1.351 . S
C632 C633 1.434 . S
C633 C624 1.429 . S
C633 N630 1.350 . S
C633 C632 1.434 . S
C634 C635 1.369 . S
C634 C636 1.419 . S
C634 H638 0.930 . S
C635 C634 1.369 . S
C635 C644 1.429 . S
C636 C634 1.419 . S
C636 C637 1.363 . S
C636 H639 0.929 . S
C637 C636 1.363 . S
C637 C643 1.428 . S
H638 C634 0.930 . S
H639 C636 0.929 . S
S640 N641 1.613 . S
S640 N642 1.610 . S
N641 S640 1.613 . S
N641 C644 1.350 . S
N642 S640 1.610 . S
N642 C643 1.351 . S
C643 C637 1.428 . S
C643 N642 1.351 . S
C643 C644 1.434 . S
C644 C635 1.429 . S
C644 N641 1.350 . S
C644 C643 1.434 . S
C645 C646 1.369 . S
C645 C647 1.419 . S
C645 H649 0.930 . S
C646 C645 1.369 . S
C646 C655 1.429 . S
C647 C645 1.419 . S
C647 C648 1.363 . S
C647 H650 0.929 . S
C648 C647 1.363 . S
C648 C654 1.428 . S
H649 C645 0.930 . S
H650 C647 0.929 . S
S651 N652 1.613 . S
S651 N653 1.610 . S
N652 S651 1.613 . S
N652 C655 1.350 . S
N653 S651 1.610 . S
N653 C654 1.351 . S
C654 C648 1.428 . S
C654 N653 1.351 . S
C654 C655 1.434 . S
C655 C646 1.429 . S
C655 N652 1.350 . S
C655 C654 1.434 . S
C656 C657 1.369 . S
C656 C658 1.419 . S
C656 H660 0.930 . S
C657 C656 1.369 . S
C657 C666 1.429 . S
C658 C656 1.419 . S
C658 C659 1.363 . S
C658 H661 0.929 . S
C659 C658 1.363 . S
C659 C665 1.428 . S
H660 C656 0.930 . S
H661 C658 0.929 . S
S662 N663 1.613 . S
S662 N664 1.610 . S
N663 S662 1.613 . S
N663 C666 1.350 . S
N664 S662 1.610 . S
N664 C665 1.351 . S
C665 C659 1.428 . S
C665 N664 1.351 . S
C665 C666 1.434 . S
C666 C657 1.429 . S
C666 N663 1.350 . S
C666 C665 1.434 . S
C667 C668 1.369 . S
C667 C669 1.419 . S
C667 H671 0.930 . S
C668 C667 1.369 . S
C668 C677 1.429 . S
C669 C667 1.419 . S
C669 C670 1.363 . S
C669 H672 0.929 . S
C670 C669 1.363 . S
C670 C676 1.428 . S
H671 C667 0.930 . S
H672 C669 0.929 . S
S673 N674 1.613 . S
S673 N675 1.610 . S
N674 S673 1.613 . S
N674 C677 1.350 . S
N675 S673 1.610 . S
N675 C676 1.351 . S
C676 C670 1.428 . S
C676 N675 1.351 . S
C676 C677 1.434 . S
C677 C668 1.429 . S
C677 N674 1.350 . S
C677 C676 1.434 . S
C678 C679 1.369 . S
C678 C680 1.419 . S
C678 H682 0.930 . S
C679 C678 1.369 . S
C679 C688 1.429 . S
C680 C678 1.419 . S
C680 C681 1.363 . S
C680 H683 0.929 . S
C681 C680 1.363 . S
C681 C687 1.428 . S
H682 C678 0.930 . S
H683 C680 0.929 . S
S684 N685 1.613 . S
S684 N686 1.610 . S
N685 S684 1.613 . S
N685 C688 1.350 . S
N686 S684 1.610 . S
N686 C687 1.351 . S
C687 C681 1.428 . S
C687 N686 1.351 . S
C687 C688 1.434 . S
C688 C679 1.429 . S
C688 N685 1.350 . S
C688 C687 1.434 . S
C689 C690 1.369 . S
C689 C691 1.419 . S
C689 H693 0.930 . S
C690 C689 1.369 . S
C690 C699 1.429 . S
C691 C689 1.419 . S
C691 C692 1.363 . S
C691 H694 0.929 . S
C692 C691 1.363 . S
C692 C698 1.428 . S
H693 C689 0.930 . S
H694 C691 0.929 . S
S695 N696 1.613 . S
S695 N697 1.610 . S
N696 S695 1.613 . S
N696 C699 1.350 . S
N697 S695 1.610 . S
N697 C698 1.351 . S
C698 C692 1.428 . S
C698 N697 1.351 . S
C698 C699 1.434 . S
C699 C690 1.429 . S
C699 N696 1.350 . S
C699 C698 1.434 . S
C700 C701 1.369 . S
C700 C702 1.419 . S
C700 H704 0.930 . S
C701 C700 1.369 . S
C701 C710 1.429 . S
C702 C700 1.419 . S
C702 C703 1.363 . S
C702 H705 0.929 . S
C703 C702 1.363 . S
C703 C709 1.428 . S
H704 C700 0.930 . S
H705 C702 0.929 . S
S706 N707 1.613 . S
S706 N708 1.610 . S
N707 S706 1.613 . S
N707 C710 1.350 . S
N708 S706 1.610 . S
N708 C709 1.351 . S
C709 C703 1.428 . S
C709 N708 1.351 . S
C709 C710 1.434 . S
C710 C701 1.429 . S
C710 N707 1.350 . S
C710 C709 1.434 . S
C711 C712 1.369 . S
C711 C713 1.419 . S
C711 H715 0.930 . S
C712 C711 1.369 . S
C712 C721 1.429 . S
C713 C711 1.419 . S
C713 C714 1.363 . S
C713 H716 0.929 . S
C714 C713 1.363 . S
C714 C720 1.428 . S
H715 C711 0.930 . S
H716 C713 0.929 . S
S717 N718 1.613 . S
S717 N719 1.610 . S
N718 S717 1.613 . S
N718 C721 1.350 . S
N719 S717 1.610 . S
N719 C720 1.351 . S
C720 C714 1.428 . S
C720 N719 1.351 . S
C720 C721 1.434 . S
C721 C712 1.429 . S
C721 N718 1.350 . S
C721 C720 1.434 . S
C722 C723 1.369 . S
C722 C724 1.419 . S
C722 H726 0.930 . S
C723 C722 1.369 . S
C723 C732 1.429 . S
C724 C722 1.419 . S
C724 C725 1.363 . S
C724 H727 0.929 . S
C725 C724 1.363 . S
C725 C731 1.428 . S
H726 C722 0.930 . S
H727 C724 0.929 . S
S728 N729 1.613 . S
S728 N730 1.610 . S
N729 S728 1.613 . S
N729 C732 1.350 . S
N730 S728 1.610 . S
N730 C731 1.351 . S
C731 C725 1.428 . S
C731 N730 1.351 . S
C731 C732 1.434 . S
C732 C723 1.429 . S
C732 N729 1.350 . S
C732 C731 1.434 . S
C733 C734 1.369 . S
C733 C735 1.419 . S
C733 H737 0.930 . S
C734 C733 1.369 . S
C734 C743 1.429 . S
C735 C733 1.419 . S
C735 C736 1.363 . S
C735 H738 0.929 . S
C736 C735 1.363 . S
C736 C742 1.428 . S
H737 C733 0.930 . S
H738 C735 0.929 . S
S739 N740 1.613 . S
S739 N741 1.610 . S
N740 S739 1.613 . S
N740 C743 1.350 . S
N741 S739 1.610 . S
N741 C742 1.351 . S
C742 C736 1.428 . S
C742 N741 1.351 . S
C742 C743 1.434 . S
C743 C734 1.429 . S
C743 N740 1.350 . S
C743 C742 1.434 . S
C744 C745 1.369 . S
C744 C746 1.419 . S
C744 H748 0.930 . S
C745 C744 1.369 . S
C745 C754 1.429 . S
C746 C744 1.419 . S
C746 C747 1.363 . S
C746 H749 0.929 . S
C747 C746 1.363 . S
C747 C753 1.428 . S
H748 C744 0.930 . S
H749 C746 0.929 . S
S750 N751 1.613 . S
S750 N752 1.610 . S
N751 S750 1.613 . S
N751 C754 1.350 . S
N752 S750 1.610 . S
N752 C753 1.351 . S
C753 C747 1.428 . S
C753 N752 1.351 . S
C753 C754 1.434 . S
C754 C745 1.429 . S
C754 N751 1.350 . S
C754 C753 1.434 . S
C755 C756 1.369 . S
C755 C757 1.419 . S
C755 H759 0.930 . S
C756 C755 1.369 . S
C756 C765 1.429 . S
C757 C755 1.419 . S
C757 C758 1.363 . S
C757 H760 0.929 . S
C758 C757 1.363 . S
C758 C764 1.428 . S
H759 C755 0.930 . S
H760 C757 0.929 . S
S761 N762 1.613 . S
S761 N763 1.610 . S
N762 S761 1.613 . S
N762 C765 1.350 . S
N763 S761 1.610 . S
N763 C764 1.351 . S
C764 C758 1.428 . S
C764 N763 1.351 . S
C764 C765 1.434 . S
C765 C756 1.429 . S
C765 N762 1.350 . S
C765 C764 1.434 . S
C766 C767 1.369 . S
C766 C768 1.419 . S
C766 H770 0.930 . S
C767 C766 1.369 . S
C767 C776 1.429 . S
C768 C766 1.419 . S
C768 C769 1.363 . S
C768 H771 0.929 . S
C769 C768 1.363 . S
C769 C775 1.428 . S
H770 C766 0.930 . S
H771 C768 0.929 . S
S772 N773 1.613 . S
S772 N774 1.610 . S
N773 S772 1.613 . S
N773 C776 1.350 . S
N774 S772 1.610 . S
N774 C775 1.351 . S
C775 C769 1.428 . S
C775 N774 1.351 . S
C775 C776 1.434 . S
C776 C767 1.429 . S
C776 N773 1.350 . S
C776 C775 1.434 . S
C777 C778 1.369 . S
C777 C779 1.419 . S
C777 H781 0.930 . S
C778 C777 1.369 . S
C778 C787 1.429 . S
C779 C777 1.419 . S
C779 C780 1.363 . S
C779 H782 0.929 . S
C780 C779 1.363 . S
C780 C786 1.428 . S
H781 C777 0.930 . S
H782 C779 0.929 . S
S783 N784 1.613 . S
S783 N785 1.610 . S
N784 S783 1.613 . S
N784 C787 1.350 . S
N785 S783 1.610 . S
N785 C786 1.351 . S
C786 C780 1.428 . S
C786 N785 1.351 . S
C786 C787 1.434 . S
C787 C778 1.429 . S
C787 N784 1.350 . S
C787 C786 1.434 . S
C788 C789 1.369 . S
C788 C790 1.419 . S
C788 H792 0.930 . S
C789 C788 1.369 . S
C789 C798 1.429 . S
C790 C788 1.419 . S
C790 C791 1.363 . S
C790 H793 0.929 . S
C791 C790 1.363 . S
C791 C797 1.428 . S
H792 C788 0.930 . S
H793 C790 0.929 . S
S794 N795 1.613 . S
S794 N796 1.610 . S
N795 S794 1.613 . S
N795 C798 1.350 . S
N796 S794 1.610 . S
N796 C797 1.351 . S
C797 C791 1.428 . S
C797 N796 1.351 . S
C797 C798 1.434 . S
C798 C789 1.429 . S
C798 N795 1.350 . S
C798 C797 1.434 . S
C799 C800 1.369 . S
C799 C801 1.419 . S
C799 H803 0.930 . S
C800 C799 1.369 . S
C800 C809 1.429 . S
C801 C799 1.419 . S
C801 C802 1.363 . S
C801 H804 0.929 . S
C802 C801 1.363 . S
C802 C808 1.428 . S
H803 C799 0.930 . S
H804 C801 0.929 . S
S805 N806 1.613 . S
S805 N807 1.610 . S
N806 S805 1.613 . S
N806 C809 1.350 . S
N807 S805 1.610 . S
N807 C808 1.351 . S
C808 C802 1.428 . S
C808 N807 1.351 . S
C808 C809 1.434 . S
C809 C800 1.429 . S
C809 N806 1.350 . S
C809 C808 1.434 . S
C810 C811 1.369 . S
C810 C812 1.419 . S
C810 H814 0.930 . S
C811 C810 1.369 . S
C811 C820 1.429 1_556 S
C812 C810 1.419 . S
C812 C813 1.363 1_556 S
C812 H815 0.929 . S
C813 C812 1.363 1_554 S
C813 C819 1.428 . S
H814 C810 0.930 . S
H815 C812 0.929 . S
S816 N817 1.613 . S
S816 N818 1.610 . S
N817 S816 1.613 . S
N817 C820 1.350 . S
N818 S816 1.610 . S
N818 C819 1.351 . S
C819 C813 1.428 . S
C819 N818 1.351 . S
C819 C820 1.434 . S
C820 C811 1.429 1_554 S
C820 N817 1.350 . S
C820 C819 1.434 . S
C821 C822 1.369 . S
C821 C823 1.419 1_455 S
C821 H825 0.930 . S
C822 C821 1.369 . S
C822 C831 1.429 . S
C823 C821 1.419 1_655 S
C823 C824 1.363 . S
C823 H826 0.929 . S
C824 C823 1.363 . S
C824 C830 1.428 . S
H825 C821 0.930 . S
H826 C823 0.929 . S
S827 N828 1.613 . S
S827 N829 1.610 1_455 S
N828 S827 1.613 . S
N828 C831 1.350 . S
N829 S827 1.610 1_655 S
N829 C830 1.351 . S
C830 C824 1.428 . S
C830 N829 1.351 . S
C830 C831 1.434 1_655 S
C831 C822 1.429 . S
C831 N828 1.350 . S
C831 C830 1.434 1_455 S
C832 C833 1.369 1_556 S
C832 C834 1.419 1_565 S
C832 H836 0.930 . S
C833 C832 1.369 1_554 S
C833 C842 1.429 . S
C834 C832 1.419 1_545 S
C834 C835 1.363 . S
C834 H837 0.929 . S
C835 C834 1.363 . S
C835 C841 1.428 1_556 S
H836 C832 0.930 . S
H837 C834 0.929 . S
S838 N839 1.613 1_545 S
S838 N840 1.610 . S
N839 S838 1.613 1_565 S
N839 C842 1.350 . S
N840 S838 1.610 . S
N840 C841 1.351 . S
C841 C835 1.428 1_554 S
C841 N840 1.351 . S
C841 C842 1.434 1_545 S
C842 C833 1.429 . S
C842 N839 1.350 . S
C842 C841 1.434 1_565 S
C843 C844 1.369 . S
C843 C845 1.419 . S
C843 H847 0.930 . S
C844 C843 1.369 . S
C844 C853 1.429 . S
C845 C843 1.419 . S
C845 C846 1.363 . S
C845 H848 0.929 . S
C846 C845 1.363 . S
C846 C852 1.428 . S
H847 C843 0.930 . S
H848 C845 0.929 . S
S849 N850 1.613 . S
S849 N851 1.610 . S
N850 S849 1.613 . S
N850 C853 1.350 . S
N851 S849 1.610 . S
N851 C852 1.351 . S
C852 C846 1.428 . S
C852 N851 1.351 . S
C852 C853 1.434 . S
C853 C844 1.429 . S
C853 N850 1.350 . S
C853 C852 1.434 . S
C854 C855 1.369 1_554 S
C854 C856 1.419 1_655 S
C854 H858 0.930 . S
C855 C854 1.369 1_556 S
C855 C864 1.429 . S
C856 C854 1.419 1_455 S
C856 C857 1.363 . S
C856 H859 0.929 . S
C857 C856 1.363 . S
C857 C863 1.428 1_554 S
H858 C854 0.930 . S
H859 C856 0.929 . S
S860 N861 1.613 1_455 S
S860 N862 1.610 . S
N861 S860 1.613 1_655 S
N861 C864 1.350 . S
N862 S860 1.610 . S
N862 C863 1.351 . S
C863 C857 1.428 1_556 S
C863 N862 1.351 . S
C863 C864 1.434 1_455 S
C864 C855 1.429 . S
C864 N861 1.350 . S
C864 C863 1.434 1_655 S
C865 C866 1.369 . S
C865 C867 1.419 1_565 S
C865 H869 0.930 . S
C866 C865 1.369 . S
C866 C875 1.429 . S
C867 C865 1.419 1_545 S
C867 C868 1.363 . S
C867 H870 0.929 . S
C868 C867 1.363 . S
C868 C874 1.428 . S
H869 C865 0.930 . S
H870 C867 0.929 . S
S871 N872 1.613 1_545 S
S871 N873 1.610 . S
N872 S871 1.613 1_565 S
N872 C875 1.350 . S
N873 S871 1.610 . S
N873 C874 1.351 . S
C874 C868 1.428 . S
C874 N873 1.351 . S
C874 C875 1.434 1_545 S
C875 C866 1.429 . S
C875 N872 1.350 . S
C875 C874 1.434 1_565 S
C481 C169 1.337 . S
C483 C5 1.398 . S
C492 C209 1.335 . S
C494 C45 1.400 . S
C503 C85 1.397 . S
C505 C9 1.338 . S
C514 C125 1.395 . S
C516 C49 1.341 . S
C525 C165 1.397 . S
C527 C89 1.340 . S
C536 C129 1.340 . S
C538 C205 1.396 . S
C547 C329 1.344 . S
C549 C245 1.394 . S
C558 C285 1.400 . S
C560 C369 1.335 . S
C569 C409 1.346 . S
C571 C325 1.394 . S
C580 C365 1.399 . S
C582 C449 1.336 . S
C591 C405 1.400 . S
C593 C249 1.336 . S
C602 C289 1.346 . S
C604 C445 1.394 . S
C613 C179 1.769 . S
C615 C15 1.768 . S
C624 C55 1.763 . S
C626 C219 1.770 . S
C635 C95 1.769 . S
C637 C19 1.767 . S
C646 C135 1.763 . S
C648 C59 1.772 . S
C657 C99 1.773 . S
C659 C175 1.763 . S
C668 C139 1.770 . S
C670 C215 1.763 . S
C679 C339 1.768 . S
C681 C255 1.766 . S
C690 C295 1.767 . S
C692 C379 1.770 . S
C701 C335 1.762 . S
C703 C419 1.772 . S
C712 C459 1.766 . S
C714 C375 1.767 . S
C723 C415 1.769 . S
C725 C259 1.767 . S
C734 C299 1.773 . S
C736 C455 1.763 . S
C745 C408 1.588 . S
C747 C8 1.592 . S
C756 C48 1.586 . S
C758 C448 1.597 . S
C767 C88 1.589 . S
C769 C248 1.591 . S
C778 C128 1.589 . S
C780 C288 1.596 . S
C789 C168 1.586 . S
C791 C328 1.597 . S
C800 C368 1.590 . S
C802 C208 1.595 . S
C811 C378 2.347 . S
C813 C18 2.344 . S
C822 C418 2.344 . S
C824 C58 2.344 . S
C833 C98 2.345 . S
C835 C458 2.346 . S
C844 C138 2.346 . S
C846 C258 2.343 . S
C855 C298 2.343 . S
C857 C178 2.346 . S
C866 C338 2.343 . S
C868 C218 2.347 . S
