# Generated by pormake.
# Topology wmx, (6)-cn, num edge types: 1
# Building blocks:
#     Node 0, Type 0, BuildingBlock: VOLQOD_clean_sbu_1, # of connection points: 6
#     Node 1, Type 0, BuildingBlock: VOLQOD_clean_sbu_1, # of connection points: 6
#     Node 2, Type 0, BuildingBlock: VOLQOD_clean_sbu_1, # of connection points: 6
#     Node 3, Type 0, BuildingBlock: VOLQOD_clean_sbu_1, # of connection points: 6
#     Node 4, Type 0, BuildingBlock: VOLQOD_clean_sbu_1, # of connection points: 6
#     Node 5, Type 0, BuildingBlock: VOLQOD_clean_sbu_1, # of connection points: 6
#     Node 6, Type 0, BuildingBlock: VOLQOD_clean_sbu_1, # of connection points: 6
#     Node 7, Type 0, BuildingBlock: VOLQOD_clean_sbu_1, # of connection points: 6
#     Node 8, Type 0, BuildingBlock: VOLQOD_clean_sbu_1, # of connection points: 6
#     Node 9, Type 0, BuildingBlock: VOLQOD_clean_sbu_1, # of connection points: 6
#     Node 10, Type 0, BuildingBlock: VOLQOD_clean_sbu_1, # of connection points: 6
#     Node 11, Type 0, BuildingBlock: VOLQOD_clean_sbu_1, # of connection points: 6
#     Node 12, Type 0, BuildingBlock: VOLQOD_clean_sbu_1, # of connection points: 6
#     Node 13, Type 0, BuildingBlock: VOLQOD_clean_sbu_1, # of connection points: 6
#     Node 14, Type 0, BuildingBlock: VOLQOD_clean_sbu_1, # of connection points: 6
#     Node 15, Type 0, BuildingBlock: VOLQOD_clean_sbu_1, # of connection points: 6
#     Node 16, Type 0, BuildingBlock: VOLQOD_clean_sbu_1, # of connection points: 6
#     Node 17, Type 0, BuildingBlock: VOLQOD_clean_sbu_1, # of connection points: 6
#     Node 18, Type 0, BuildingBlock: VOLQOD_clean_sbu_1, # of connection points: 6
#     Node 19, Type 0, BuildingBlock: VOLQOD_clean_sbu_1, # of connection points: 6
#     Node 20, Type 0, BuildingBlock: VOLQOD_clean_sbu_1, # of connection points: 6
#     Node 21, Type 0, BuildingBlock: VOLQOD_clean_sbu_1, # of connection points: 6
#     Node 22, Type 0, BuildingBlock: VOLQOD_clean_sbu_1, # of connection points: 6
#     Node 23, Type 0, BuildingBlock: VOLQOD_clean_sbu_1, # of connection points: 6
#     Node 24, Type 0, BuildingBlock: VOLQOD_clean_sbu_1, # of connection points: 6
#     Node 25, Type 0, BuildingBlock: VOLQOD_clean_sbu_1, # of connection points: 6
#     Node 26, Type 0, BuildingBlock: VOLQOD_clean_sbu_1, # of connection points: 6
#     Node 27, Type 0, BuildingBlock: VOLQOD_clean_sbu_1, # of connection points: 6
#     Node 28, Type 0, BuildingBlock: VOLQOD_clean_sbu_1, # of connection points: 6
#     Node 29, Type 0, BuildingBlock: VOLQOD_clean_sbu_1, # of connection points: 6
#     Node 30, Type 0, BuildingBlock: VOLQOD_clean_sbu_1, # of connection points: 6
#     Node 31, Type 0, BuildingBlock: VOLQOD_clean_sbu_1, # of connection points: 6
#     Node 32, Type 0, BuildingBlock: VOLQOD_clean_sbu_1, # of connection points: 6
#     Node 33, Type 0, BuildingBlock: VOLQOD_clean_sbu_1, # of connection points: 6
#     Node 34, Type 0, BuildingBlock: VOLQOD_clean_sbu_1, # of connection points: 6
#     Node 35, Type 0, BuildingBlock: VOLQOD_clean_sbu_1, # of connection points: 6
#     Edge 36, Type (0, 0), BuildingBlock: OJICUG_clean_linker_0, # of connection points: 2
#     Edge 37, Type (0, 0), BuildingBlock: OJICUG_clean_linker_0, # of connection points: 2
#     Edge 38, Type (0, 0), BuildingBlock: OJICUG_clean_linker_0, # of connection points: 2
#     Edge 39, Type (0, 0), BuildingBlock: OJICUG_clean_linker_0, # of connection points: 2
#     Edge 40, Type (0, 0), BuildingBlock: OJICUG_clean_linker_0, # of connection points: 2
#     Edge 41, Type (0, 0), BuildingBlock: OJICUG_clean_linker_0, # of connection points: 2
#     Edge 42, Type (0, 0), BuildingBlock: OJICUG_clean_linker_0, # of connection points: 2
#     Edge 43, Type (0, 0), BuildingBlock: OJICUG_clean_linker_0, # of connection points: 2
#     Edge 44, Type (0, 0), BuildingBlock: OJICUG_clean_linker_0, # of connection points: 2
#     Edge 45, Type (0, 0), BuildingBlock: OJICUG_clean_linker_0, # of connection points: 2
#     Edge 46, Type (0, 0), BuildingBlock: OJICUG_clean_linker_0, # of connection points: 2
#     Edge 47, Type (0, 0), BuildingBlock: OJICUG_clean_linker_0, # of connection points: 2
#     Edge 48, Type (0, 0), BuildingBlock: OJICUG_clean_linker_0, # of connection points: 2
#     Edge 49, Type (0, 0), BuildingBlock: OJICUG_clean_linker_0, # of connection points: 2
#     Edge 50, Type (0, 0), BuildingBlock: OJICUG_clean_linker_0, # of connection points: 2
#     Edge 51, Type (0, 0), BuildingBlock: OJICUG_clean_linker_0, # of connection points: 2
#     Edge 52, Type (0, 0), BuildingBlock: OJICUG_clean_linker_0, # of connection points: 2
#     Edge 53, Type (0, 0), BuildingBlock: OJICUG_clean_linker_0, # of connection points: 2
#     Edge 54, Type (0, 0), BuildingBlock: OJICUG_clean_linker_0, # of connection points: 2
#     Edge 55, Type (0, 0), BuildingBlock: OJICUG_clean_linker_0, # of connection points: 2
#     Edge 56, Type (0, 0), BuildingBlock: OJICUG_clean_linker_0, # of connection points: 2
#     Edge 57, Type (0, 0), BuildingBlock: OJICUG_clean_linker_0, # of connection points: 2
#     Edge 58, Type (0, 0), BuildingBlock: OJICUG_clean_linker_0, # of connection points: 2
#     Edge 59, Type (0, 0), BuildingBlock: OJICUG_clean_linker_0, # of connection points: 2
#     Edge 60, Type (0, 0), BuildingBlock: OJICUG_clean_linker_0, # of connection points: 2
#     Edge 61, Type (0, 0), BuildingBlock: OJICUG_clean_linker_0, # of connection points: 2
#     Edge 62, Type (0, 0), BuildingBlock: OJICUG_clean_linker_0, # of connection points: 2
#     Edge 63, Type (0, 0), BuildingBlock: OJICUG_clean_linker_0, # of connection points: 2
#     Edge 64, Type (0, 0), BuildingBlock: OJICUG_clean_linker_0, # of connection points: 2
#     Edge 65, Type (0, 0), BuildingBlock: OJICUG_clean_linker_0, # of connection points: 2
#     Edge 66, Type (0, 0), BuildingBlock: OJICUG_clean_linker_0, # of connection points: 2
#     Edge 67, Type (0, 0), BuildingBlock: OJICUG_clean_linker_0, # of connection points: 2
#     Edge 68, Type (0, 0), BuildingBlock: OJICUG_clean_linker_0, # of connection points: 2
#     Edge 69, Type (0, 0), BuildingBlock: OJICUG_clean_linker_0, # of connection points: 2
#     Edge 70, Type (0, 0), BuildingBlock: OJICUG_clean_linker_0, # of connection points: 2
#     Edge 71, Type (0, 0), BuildingBlock: OJICUG_clean_linker_0, # of connection points: 2
#     Edge 72, Type (0, 0), BuildingBlock: OJICUG_clean_linker_0, # of connection points: 2
#     Edge 73, Type (0, 0), BuildingBlock: OJICUG_clean_linker_0, # of connection points: 2
#     Edge 74, Type (0, 0), BuildingBlock: OJICUG_clean_linker_0, # of connection points: 2
#     Edge 75, Type (0, 0), BuildingBlock: OJICUG_clean_linker_0, # of connection points: 2
#     Edge 76, Type (0, 0), BuildingBlock: OJICUG_clean_linker_0, # of connection points: 2
#     Edge 77, Type (0, 0), BuildingBlock: OJICUG_clean_linker_0, # of connection points: 2
#     Edge 78, Type (0, 0), BuildingBlock: OJICUG_clean_linker_0, # of connection points: 2
#     Edge 79, Type (0, 0), BuildingBlock: OJICUG_clean_linker_0, # of connection points: 2
#     Edge 80, Type (0, 0), BuildingBlock: OJICUG_clean_linker_0, # of connection points: 2
#     Edge 81, Type (0, 0), BuildingBlock: OJICUG_clean_linker_0, # of connection points: 2
#     Edge 82, Type (0, 0), BuildingBlock: OJICUG_clean_linker_0, # of connection points: 2
#     Edge 83, Type (0, 0), BuildingBlock: OJICUG_clean_linker_0, # of connection points: 2
#     Edge 84, Type (0, 0), BuildingBlock: OJICUG_clean_linker_0, # of connection points: 2
#     Edge 85, Type (0, 0), BuildingBlock: OJICUG_clean_linker_0, # of connection points: 2
#     Edge 86, Type (0, 0), BuildingBlock: OJICUG_clean_linker_0, # of connection points: 2
#     Edge 87, Type (0, 0), BuildingBlock: OJICUG_clean_linker_0, # of connection points: 2
#     Edge 88, Type (0, 0), BuildingBlock: OJICUG_clean_linker_0, # of connection points: 2
#     Edge 89, Type (0, 0), BuildingBlock: OJICUG_clean_linker_0, # of connection points: 2
#     Edge 90, Type (0, 0), BuildingBlock: OJICUG_clean_linker_0, # of connection points: 2
#     Edge 91, Type (0, 0), BuildingBlock: OJICUG_clean_linker_0, # of connection points: 2
#     Edge 92, Type (0, 0), BuildingBlock: OJICUG_clean_linker_0, # of connection points: 2
#     Edge 93, Type (0, 0), BuildingBlock: OJICUG_clean_linker_0, # of connection points: 2
#     Edge 94, Type (0, 0), BuildingBlock: OJICUG_clean_linker_0, # of connection points: 2
#     Edge 95, Type (0, 0), BuildingBlock: OJICUG_clean_linker_0, # of connection points: 2
#     Edge 96, Type (0, 0), BuildingBlock: OJICUG_clean_linker_0, # of connection points: 2
#     Edge 97, Type (0, 0), BuildingBlock: OJICUG_clean_linker_0, # of connection points: 2
#     Edge 98, Type (0, 0), BuildingBlock: OJICUG_clean_linker_0, # of connection points: 2
#     Edge 99, Type (0, 0), BuildingBlock: OJICUG_clean_linker_0, # of connection points: 2
#     Edge 100, Type (0, 0), BuildingBlock: OJICUG_clean_linker_0, # of connection points: 2
#     Edge 101, Type (0, 0), BuildingBlock: OJICUG_clean_linker_0, # of connection points: 2
#     Edge 102, Type (0, 0), BuildingBlock: OJICUG_clean_linker_0, # of connection points: 2
#     Edge 103, Type (0, 0), BuildingBlock: OJICUG_clean_linker_0, # of connection points: 2
#     Edge 104, Type (0, 0), BuildingBlock: OJICUG_clean_linker_0, # of connection points: 2
#     Edge 105, Type (0, 0), BuildingBlock: OJICUG_clean_linker_0, # of connection points: 2
#     Edge 106, Type (0, 0), BuildingBlock: OJICUG_clean_linker_0, # of connection points: 2
#     Edge 107, Type (0, 0), BuildingBlock: OJICUG_clean_linker_0, # of connection points: 2
#     Edge 108, Type (0, 0), BuildingBlock: OJICUG_clean_linker_0, # of connection points: 2
#     Edge 109, Type (0, 0), BuildingBlock: OJICUG_clean_linker_0, # of connection points: 2
#     Edge 110, Type (0, 0), BuildingBlock: OJICUG_clean_linker_0, # of connection points: 2
#     Edge 111, Type (0, 0), BuildingBlock: OJICUG_clean_linker_0, # of connection points: 2
#     Edge 112, Type (0, 0), BuildingBlock: OJICUG_clean_linker_0, # of connection points: 2
#     Edge 113, Type (0, 0), BuildingBlock: OJICUG_clean_linker_0, # of connection points: 2
#     Edge 114, Type (0, 0), BuildingBlock: OJICUG_clean_linker_0, # of connection points: 2
#     Edge 115, Type (0, 0), BuildingBlock: OJICUG_clean_linker_0, # of connection points: 2
#     Edge 116, Type (0, 0), BuildingBlock: OJICUG_clean_linker_0, # of connection points: 2
#     Edge 117, Type (0, 0), BuildingBlock: OJICUG_clean_linker_0, # of connection points: 2
#     Edge 118, Type (0, 0), BuildingBlock: OJICUG_clean_linker_0, # of connection points: 2
#     Edge 119, Type (0, 0), BuildingBlock: OJICUG_clean_linker_0, # of connection points: 2
#     Edge 120, Type (0, 0), BuildingBlock: OJICUG_clean_linker_0, # of connection points: 2
#     Edge 121, Type (0, 0), BuildingBlock: OJICUG_clean_linker_0, # of connection points: 2
#     Edge 122, Type (0, 0), BuildingBlock: OJICUG_clean_linker_0, # of connection points: 2
#     Edge 123, Type (0, 0), BuildingBlock: OJICUG_clean_linker_0, # of connection points: 2
#     Edge 124, Type (0, 0), BuildingBlock: OJICUG_clean_linker_0, # of connection points: 2
#     Edge 125, Type (0, 0), BuildingBlock: OJICUG_clean_linker_0, # of connection points: 2
#     Edge 126, Type (0, 0), BuildingBlock: OJICUG_clean_linker_0, # of connection points: 2
#     Edge 127, Type (0, 0), BuildingBlock: OJICUG_clean_linker_0, # of connection points: 2
#     Edge 128, Type (0, 0), BuildingBlock: OJICUG_clean_linker_0, # of connection points: 2
#     Edge 129, Type (0, 0), BuildingBlock: OJICUG_clean_linker_0, # of connection points: 2
#     Edge 130, Type (0, 0), BuildingBlock: OJICUG_clean_linker_0, # of connection points: 2
#     Edge 131, Type (0, 0), BuildingBlock: OJICUG_clean_linker_0, # of connection points: 2
#     Edge 132, Type (0, 0), BuildingBlock: OJICUG_clean_linker_0, # of connection points: 2
#     Edge 133, Type (0, 0), BuildingBlock: OJICUG_clean_linker_0, # of connection points: 2
#     Edge 134, Type (0, 0), BuildingBlock: OJICUG_clean_linker_0, # of connection points: 2
#     Edge 135, Type (0, 0), BuildingBlock: OJICUG_clean_linker_0, # of connection points: 2
#     Edge 136, Type (0, 0), BuildingBlock: OJICUG_clean_linker_0, # of connection points: 2
#     Edge 137, Type (0, 0), BuildingBlock: OJICUG_clean_linker_0, # of connection points: 2
#     Edge 138, Type (0, 0), BuildingBlock: OJICUG_clean_linker_0, # of connection points: 2
#     Edge 139, Type (0, 0), BuildingBlock: OJICUG_clean_linker_0, # of connection points: 2
#     Edge 140, Type (0, 0), BuildingBlock: OJICUG_clean_linker_0, # of connection points: 2
#     Edge 141, Type (0, 0), BuildingBlock: OJICUG_clean_linker_0, # of connection points: 2
#     Edge 142, Type (0, 0), BuildingBlock: OJICUG_clean_linker_0, # of connection points: 2
#     Edge 143, Type (0, 0), BuildingBlock: OJICUG_clean_linker_0, # of connection points: 2
# Relax obj value: 0.736
# Max RMSD: 0.287
# Mean RMSD: 0.287
data_MOF--net-wmx--node1-VOLQOD_clean_sbu_1--edge1-OJICUG_clean_linker_0
_symmetry_space_group_name_H-M    P1
_symmetry_Int_Tables_number       1
_symmetry_cell_setting            triclinic
loop_
_symmetry_equiv_pos_as_xyz
'x, y, z'
_cell_length_a     40.940498
_cell_length_b     40.962986
_cell_length_c     40.633752
_cell_angle_alpha  89.827281
_cell_angle_beta   90.124151
_cell_angle_gamma 120.02977
loop_
_atom_site_label
_atom_site_type_symbol
_atom_site_fract_x
_atom_site_fract_y
_atom_site_fract_z
_atom_type_partial_charge
O0 O 0.15779 0.10953 0.17731 0.0
Zn1 Zn 0.1764 0.10286 0.13238 0.0
O2 O 0.17785 0.13786 0.10083 0.0
Zn3 Zn 0.15151 0.11534 0.06025 0.0
Zn4 Zn 0.16016 0.16835 0.12046 0.0
Zn5 Zn 0.22811 0.17002 0.08593 0.0
O6 O 0.18622 0.12755 0.02067 0.0
O7 O 0.23778 0.14317 0.04946 0.0
O8 O 0.1462 0.05018 0.11403 0.0
O9 O 0.12889 0.05993 0.06466 0.0
O10 O 0.10781 0.12432 0.05411 0.0
O11 O 0.11036 0.15262 0.10154 0.0
O12 O 0.1948 0.22149 0.10659 0.0
O13 O 0.22923 0.11517 0.13975 0.0
O14 O 0.22742 0.21558 0.06671 0.0
O15 O 0.26386 0.17443 0.12167 0.0
C16 C 0.15234 0.13551 0.18863 0.0
C17 C 0.21865 0.13047 0.0232 0.0
C18 C 0.0937 0.13722 0.07477 0.0
C19 C 0.12945 0.03791 0.08647 0.0
C20 C 0.20601 0.22784 0.07685 0.0
C21 C 0.26061 0.14583 0.13743 0.0
O22 O 0.15436 0.16153 0.16992 0.0
O23 O 0.86682 0.03818 0.17624 0.0
Zn24 Zn 0.87233 0.06128 0.13018 0.0
O25 O 0.83721 0.02678 0.09954 0.0
Zn26 Zn 0.85868 0.02366 0.05811 0.0
Zn27 Zn 0.8083 0.97918 0.12064 0.0
Zn28 Zn 0.803 0.0428 0.08613 0.0
O29 O 0.84854 0.0505 0.01983 0.0
O30 O 0.82833 0.08128 0.05051 0.0
O31 O 0.92435 0.08342 0.11136 0.0
O32 O 0.914 0.05525 0.06256 0.0
O33 O 0.84884 0.97031 0.05133 0.0
O34 O 0.82286 0.94528 0.09989 0.0
O35 O 0.75444 0.96123 0.11089 0.0
O36 O 0.85992 0.10156 0.13586 0.0
O37 O 0.75822 -0.00506 0.06782 0.0
O38 O 0.7984 0.07163 0.12374 0.0
C39 C 0.84235 0.00621 0.18804 0.0
C40 C 0.84316 0.07837 0.02407 0.0
C41 C 0.83686 0.94356 0.07247 0.0
C42 C 0.93621 0.07824 0.08395 0.0
C43 C 0.74642 0.96253 0.0809 0.0
C44 C 0.8277 0.09907 0.13694 0.0
O45 O 0.81734 0.98091 0.1696 0.0
O46 O 0.93363 0.81663 0.17803 0.0
Zn47 Zn 0.91089 0.79755 0.13228 0.0
O48 O 0.94585 0.79641 0.10237 0.0
Zn49 Zn 0.95076 0.82204 0.06091 0.0
Zn50 Zn -0.00705 0.81442 0.12429 0.0
Zn51 Zn 0.92947 0.74612 0.08881 0.0
O52 O 0.92567 0.78613 0.02193 0.0
O53 O 0.89291 0.73449 0.05166 0.0
O54 O 0.88856 0.82684 0.11172 0.0
O55 O 0.91917 0.84592 0.064 0.0
O56 O 0.00435 0.86543 0.05527 0.0
O57 O 0.02821 0.86334 0.10408 0.0
O58 O 0.0106 0.77787 0.11601 0.0
O59 O 0.87126 0.74468 0.13974 0.0
O60 O 0.97752 0.74826 0.07248 0.0
O61 O 0.89858 0.71138 0.12527 0.0
C62 C 0.96504 0.82329 0.19051 0.0
C63 C 0.89721 0.75304 0.02532 0.0
C64 C 0.03068 0.8797 0.07678 0.0
C65 C 0.89503 0.84451 0.08439 0.0
C66 C 0.0096 0.76711 0.08656 0.0
C67 C 0.87224 0.71409 0.13963 0.0
O68 O -0.00985 0.82214 0.17292 0.0
O69 O 0.10961 0.15707 0.33988 0.0
Zn70 Zn 0.10307 0.17524 0.38501 0.0
O71 O 0.13947 0.17882 0.41648 0.0
Zn72 Zn 0.11781 0.15366 0.45812 0.0
Zn73 Zn 0.16961 0.16049 0.39651 0.0
Zn74 Zn 0.17157 0.23049 0.42931 0.0
O75 O 0.12816 0.18954 0.49703 0.0
O76 O 0.14699 0.24105 0.46715 0.0
O77 O 0.05114 0.14412 0.40406 0.0
O78 O 0.06226 0.12957 0.45412 0.0
O79 O 0.12703 0.10998 0.46491 0.0
O80 O 0.15594 0.11183 0.41793 0.0
O81 O 0.22273 0.19985 0.40536 0.0
O82 O 0.11185 0.22671 0.37746 0.0
O83 O 0.22109 0.23496 0.44472 0.0
O84 O 0.1712 0.26438 0.39398 0.0
C85 C 0.13494 0.15056 0.3287 0.0
C86 C 0.13312 0.22273 0.49361 0.0
C87 C 0.14005 0.09543 0.44474 0.0
C88 C 0.03966 0.12849 0.43213 0.0
C89 C 0.23078 0.21146 0.43481 0.0
C90 C 0.14118 0.25914 0.37947 0.0
O91 O 0.16056 0.15191 0.34749 0.0
O92 O 0.81523 0.94399 0.34031 0.0
Zn93 Zn 0.79497 0.91966 0.38529 0.0
O94 O 0.79513 0.95384 0.41669 0.0
Zn95 Zn 0.8198 0.95569 0.45808 0.0
Zn96 Zn 0.81581 0.00221 0.39628 0.0
Zn97 Zn 0.74507 0.93847 0.43122 0.0
O98 O 0.78393 0.93106 0.49732 0.0
O99 O 0.73251 0.90024 0.46714 0.0
O100 O 0.82187 0.89429 0.40417 0.0
O101 O 0.83987 0.92127 0.45339 0.0
O102 O 0.86583 0.00737 0.4645 0.0
O103 O 0.86506 0.0343 0.41695 0.0
O104 O 0.78089 0.0208 0.4075 0.0
O105 O 0.74176 0.88151 0.3781 0.0
O106 O 0.74958 0.98692 0.44995 0.0
O107 O 0.70867 0.90805 0.39534 0.0
C108 C 0.82345 0.97621 0.32866 0.0
C109 C 0.75055 0.90323 0.49347 0.0
C110 C 0.88119 0.03447 0.44379 0.0
C111 C 0.83796 0.89794 0.43193 0.0
C112 C 0.77286 0.01921 0.43786 0.0
C113 C 0.7109 0.88177 0.38033 0.0
O114 O 0.82324 0.00129 0.34703 0.0
O115 O 0.02472 0.86457 0.34271 0.0
Zn116 Zn 0.05022 0.87129 0.38736 0.0
O117 O 0.01725 0.83578 0.41891 0.0
Zn118 Zn 0.01296 0.85875 0.45896 0.0
Zn119 Zn 0.96922 0.80428 0.39902 0.0
Zn120 Zn 0.03672 0.8047 0.43431 0.0
O121 O 0.0332 0.84528 0.49934 0.0
O122 O 0.0713 0.8317 0.47183 0.0
O123 O 0.07341 0.92381 0.40577 0.0
O124 O 0.04718 0.91439 0.45536 0.0
O125 O 0.96031 0.84993 0.46353 0.0
O126 O 0.9342 0.81911 0.41706 0.0
O127 O 0.95223 0.75157 0.41346 0.0
O128 O 0.09134 0.86034 0.37974 0.0
O129 O -0.00834 0.75722 0.45244 0.0
O130 O 0.07072 0.80259 0.40006 0.0
C131 C -0.00606 0.83777 0.33104 0.0
C132 C 0.06335 0.84344 0.4978 0.0
C133 C 0.93299 0.83559 0.44309 0.0
C134 C 0.06991 0.93621 0.43353 0.0
C135 C 0.95779 0.7458 0.44322 0.0
C136 C 0.09466 0.8313 0.38355 0.0
O137 O 0.9705 0.81091 0.34941 0.0
O138 O 0.78799 0.80086 0.84917 0.0
Zn139 Zn 0.76836 0.79267 0.89613 0.0
O140 O 0.79686 0.83757 0.92105 0.0
Zn141 Zn 0.80774 0.82812 0.96465 0.0
Zn142 Zn 0.84036 0.86903 0.89747 0.0
Zn143 Zn 0.77106 0.86314 0.9268 0.0
O144 O 0.79362 0.85797 0.99784 0.0
O145 O 0.74396 0.84938 0.96913 0.0
O146 O 0.77819 0.75404 0.92054 0.0
O147 O 0.77311 0.77257 0.97018 0.0
O148 O 0.86198 0.83629 0.96373 0.0
O149 O 0.87515 0.85217 0.91068 0.0
O150 O 0.86051 0.92144 0.91421 0.0
O151 O 0.7159 0.78636 0.88897 0.0
O152 O 0.807 0.91848 0.92964 0.0
O153 O 0.73524 0.84798 0.89106 0.0
C154 C 0.81004 0.83069 0.83305 0.0
C155 C 0.76311 0.85948 0.99551 0.0
C156 C 0.8821 0.84154 0.93793 0.0
C157 C 0.77943 0.75118 0.95186 0.0
C158 C 0.84266 0.93657 0.92638 0.0
C159 C 0.71221 0.81478 0.88123 0.0
O160 O 0.83097 0.86181 0.84797 0.0
O161 O 0.16019 0.97599 0.8518 0.0
Zn162 Zn 0.16509 0.95423 0.89557 0.0
O163 O 0.11852 0.93001 0.91875 0.0
Zn164 Zn 0.11765 0.94865 0.96114 0.0
Zn165 Zn 0.0807 0.92455 0.88829 0.0
Zn166 Zn 0.10228 0.8806 0.93065 0.0
O167 O 0.10019 0.90689 0.99676 0.0
O168 O 0.12358 0.87517 0.9724 0.0
O169 O 0.20273 -0.00095 0.92364 0.0
O170 O 0.16947 -0.00932 0.96966 0.0
O171 O 0.08587 0.97341 0.95667 0.0
O172 O 0.06728 0.96147 0.90401 0.0
O173 O 0.03291 0.87496 0.89215 0.0
O174 O 0.17414 0.91153 0.88138 0.0
O175 O 0.04646 0.85449 0.93764 0.0
O176 O 0.11788 0.86172 0.89435 0.0
C177 C 0.13241 0.96297 0.83187 0.0
C178 C 0.10911 0.88108 0.9976 0.0
C179 C 0.06951 0.97741 0.93142 0.0
C180 C 0.1994 0.00919 0.95265 0.0
C181 C 0.02247 0.8539 0.91752 0.0
C182 C 0.14855 0.87677 0.87814 0.0
O183 O 0.0994 0.93812 0.84109 0.0
O184 O -0.00827 0.18533 0.8447 0.0
Zn185 Zn 0.00784 0.20204 0.89229 0.0
O186 O 0.02014 0.16925 0.91483 0.0
Zn187 Zn 0.00829 0.16388 0.96089 0.0
Zn188 Zn -0.0128 0.12362 0.89475 0.0
Zn189 Zn 0.06905 0.17945 0.90974 0.0
O190 O 0.05602 0.18204 0.98987 0.0
O191 O 0.09919 0.20147 0.95046 0.0
O192 O 0.96263 0.19629 0.91988 0.0
O193 O -0.01305 0.19762 0.96877 0.0
O194 O 0.96623 0.10852 0.96721 0.0
O195 O 0.93974 0.1048 0.91866 0.0
O196 O 0.00703 0.08975 0.90347 0.0
O197 O 0.05895 0.24915 0.88661 0.0
O198 O 0.06881 0.13062 0.90402 0.0
O199 O 0.09073 0.21885 0.8756 0.0
C200 C 0.98358 0.15476 0.82991 0.0
C201 C 0.09059 0.19854 0.98079 0.0
C202 C 0.93823 0.09186 0.94739 0.0
C203 C 0.95963 0.1943 0.95131 0.0
C204 C 0.04096 0.097 0.90564 0.0
C205 C 0.08743 0.24826 0.87427 0.0
O206 O 0.98119 0.12699 0.84599 0.0
O207 O 0.787 0.79233 0.67502 0.0
Zn208 Zn 0.78649 0.77576 0.62732 0.0
O209 O 0.83252 0.80776 0.60527 0.0
Zn210 Zn 0.82663 0.81281 0.55897 0.0
Zn211 Zn 0.84554 0.8537 0.6252 0.0
Zn212 Zn 0.87054 0.79669 0.61115 0.0
O213 O 0.85553 0.79375 0.53064 0.0
O214 O 0.88055 0.77598 0.57035 0.0
O215 O 0.74852 0.7835 0.59889 0.0
O216 O 0.77142 0.78048 0.55057 0.0
O217 O 0.84207 0.86835 0.55191 0.0
O218 O 0.81889 0.87365 0.59959 0.0
O219 O 0.89997 0.88676 0.6196 0.0
O220 O 0.78838 0.72755 0.63404 0.0
O221 O 0.91895 0.84438 0.62048 0.0
O222 O 0.85065 0.75682 0.64454 0.0
C223 C 0.80947 0.82293 0.68978 0.0
C224 C 0.87445 0.77825 0.53996 0.0
C225 C 0.83134 0.88605 0.57095 0.0
C226 C 0.74812 0.78546 0.5674 0.0
C227 C 0.92595 0.87842 0.61982 0.0
C228 C 0.81747 0.7283 0.647 0.0
O229 O 0.83481 0.85058 0.67365 0.0
O230 O 0.16921 -0.00069 0.67575 0.0
Zn231 Zn 0.19298 0.01744 0.63022 0.0
O232 O 0.17513 0.04713 0.60912 0.0
Zn233 Zn 0.15093 0.02798 0.56809 0.0
Zn234 Zn 0.14456 0.05304 0.64125 0.0
Zn235 Zn 0.21193 0.09556 0.59554 0.0
O236 O 0.16926 0.06962 0.53288 0.0
O237 O 0.22854 0.09862 0.54895 0.0
O238 O 0.17792 0.97107 0.60173 0.0
O239 O 0.15987 0.98629 0.55496 0.0
O240 O 0.09544 0.00235 0.57658 0.0
O241 O 0.0927 0.01422 0.62987 0.0
O242 O 0.14509 0.1014 0.63532 0.0
O243 O 0.24838 0.05348 0.63957 0.0
O244 O 0.18745 0.12773 0.59554 0.0
O245 O 0.25415 0.10933 0.62551 0.0
C246 C 0.1591 0.01566 0.69672 0.0
C247 C 0.20391 0.09357 0.52746 0.0
C248 C 0.07703 -0.00227 0.60311 0.0
C249 C 0.16644 0.96398 0.57193 0.0
C250 C 0.16109 0.1263 0.61306 0.0
C251 C 0.26649 0.08958 0.63921 0.0
O252 O 0.15402 0.04276 0.68818 0.0
O253 O 0.98019 0.17652 0.67081 0.0
Zn254 Zn 0.96787 0.18486 0.62409 0.0
O255 O 0.95159 0.14008 0.59899 0.0
Zn256 Zn 0.97301 0.14941 0.55584 0.0
Zn257 Zn 0.96301 0.10819 0.62278 0.0
Zn258 Zn 0.90037 0.11526 0.5914 0.0
O259 O 0.92995 0.11807 0.52189 0.0
O260 O 0.88859 0.1284 0.54782 0.0
O261 O 0.01593 0.224 0.59949 0.0
O262 O -0.00818 0.20451 0.55009 0.0
O263 O 0.02049 0.14335 0.55864 0.0
O264 O 0.01519 0.12525 0.61123 0.0
O265 O 0.93053 0.05598 0.60557 0.0
O266 O 0.92154 0.19083 0.63183 0.0
O267 O 0.88077 0.0602 0.58949 0.0
O268 O 0.87797 0.13007 0.62577 0.0
C269 C 0.97185 0.14651 0.68693 0.0
C270 C 0.89817 0.11722 0.52246 0.0
C271 C 0.03426 0.13735 0.58488 0.0
C272 C 0.01962 0.22654 0.56813 0.0
C273 C 0.89765 0.04151 0.59309 0.0
C274 C 0.88845 0.16265 0.6373 0.0
O275 O 0.96046 0.11516 0.67208 0.0
O276 O 0.82461 0.45015 0.51149 0.0
Zn277 Zn 0.84115 0.44051 0.46663 0.0
O278 O 0.84456 0.47544 0.43394 0.0
Zn279 Zn 0.81636 0.45241 0.39417 0.0
Zn280 Zn 0.82976 0.5087 0.45296 0.0
Zn281 Zn 0.89489 0.50418 0.41737 0.0
O282 O 0.84885 0.46239 0.35325 0.0
O283 O 0.90058 0.47505 0.38043 0.0
O284 O 0.80955 0.38759 0.44935 0.0
O285 O 0.79317 0.39705 0.39945 0.0
O286 O 0.77351 0.46282 0.38924 0.0
O287 O 0.7797 0.49472 0.4353 0.0
O288 O 0.86653 0.56036 0.43692 0.0
O289 O 0.89271 0.44952 0.47371 0.0
O290 O 0.89781 0.55141 0.3977 0.0
O291 O 0.93118 0.50606 0.45172 0.0
C292 C 0.8219 0.47802 0.52221 0.0
C293 C 0.88036 0.46315 0.35467 0.0
C294 C 0.76138 0.47805 0.4095 0.0
C295 C 0.79317 0.37517 0.42169 0.0
C296 C 0.87684 0.56457 0.40693 0.0
C297 C 0.92557 0.47755 0.46907 0.0
O298 O 0.82545 0.5042 0.50284 0.0
O299 O 0.53554 0.37736 0.51087 0.0
Zn300 Zn 0.53976 0.40176 0.46579 0.0
O301 O 0.50507 0.36754 0.43466 0.0
Zn302 Zn 0.52732 0.36499 0.39333 0.0
Zn303 Zn 0.47661 0.3195 0.45513 0.0
Zn304 Zn 0.47026 0.38283 0.42093 0.0
O305 O 0.51663 0.39103 0.35484 0.0
O306 O 0.49567 0.42126 0.38529 0.0
O307 O 0.59204 0.4259 0.44689 0.0
O308 O 0.58233 0.39789 0.39811 0.0
O309 O 0.51941 0.31226 0.38643 0.0
O310 O 0.49214 0.2865 0.43433 0.0
O311 O 0.42256 0.30042 0.44531 0.0
O312 O 0.52539 0.44044 0.47309 0.0
O313 O 0.42629 0.3343 0.40228 0.0
O314 O 0.46488 0.41253 0.45774 0.0
C315 C 0.51148 0.34501 0.52224 0.0
C316 C 0.51092 0.4187 0.359 0.0
C317 C 0.50716 0.2853 0.40735 0.0
C318 C 0.60422 0.42122 0.41945 0.0
C319 C 0.41443 0.30185 0.41537 0.0
C320 C 0.49372 0.43923 0.47219 0.0
O321 O 0.48601 0.32019 0.50382 0.0
O322 O 0.60888 0.16111 0.51476 0.0
Zn323 Zn 0.5826 0.14088 0.47023 0.0
O324 O 0.61466 0.13569 0.43892 0.0
Zn325 Zn 0.61866 0.16049 0.39707 0.0
Zn326 Zn 0.66293 0.15233 0.45895 0.0
Zn327 Zn 0.5937 0.08382 0.42643 0.0
O328 O 0.59203 0.12434 0.35851 0.0
O329 O 0.55778 0.07366 0.38895 0.0
O330 O 0.56198 0.17189 0.44996 0.0
O331 O 0.58857 0.18594 0.40034 0.0
O332 O 0.67204 0.20312 0.39046 0.0
O333 O 0.69927 0.19976 0.43693 0.0
O334 O 0.67402 0.11091 0.45167 0.0
O335 O 0.53994 0.08962 0.47998 0.0
O336 O 0.63739 0.07665 0.41197 0.0
O337 O 0.56111 0.05185 0.46283 0.0
C338 C 0.64051 0.16668 0.52586 0.0
C339 C 0.56277 0.09188 0.3623 0.0
C340 C 0.70001 0.21658 0.41032 0.0
C341 C 0.56691 0.18754 0.42176 0.0
C342 C 0.67067 0.09949 0.42221 0.0
C343 C 0.53729 0.05734 0.47853 0.0
O344 O 0.66352 0.16296 0.50738 0.0
O345 O 0.77733 0.4989 0.67298 0.0
Zn346 Zn 0.76828 0.51644 0.71758 0.0
O347 O 0.80287 0.51904 0.75017 0.0
Zn348 Zn 0.77984 0.49071 0.78977 0.0
Zn349 Zn 0.83685 0.50533 0.73105 0.0
Zn350 Zn 0.83165 0.56871 0.76706 0.0
O351 O 0.78872 0.5232 0.83048 0.0
O352 O 0.80157 0.57485 0.80303 0.0
O353 O 0.71504 0.48546 0.73511 0.0
O354 O 0.72442 0.46678 0.78401 0.0
O355 O 0.79181 0.44887 0.7951 0.0
O356 O 0.82368 0.45557 0.74886 0.0
O357 O 0.88894 0.54131 0.74721 0.0
O358 O 0.77965 0.5688 0.70968 0.0
O359 O 0.87725 0.56965 0.78757 0.0
O360 O 0.83664 0.60505 0.73184 0.0
C361 C 0.8053 0.49643 0.66208 0.0
C362 C 0.78921 0.55456 0.82876 0.0
C363 C 0.80761 0.4373 0.77488 0.0
C364 C 0.70253 0.46781 0.76231 0.0
C365 C 0.89386 0.55237 0.77702 0.0
C366 C 0.80914 0.60082 0.71379 0.0
O367 O 0.83194 0.50065 0.6812 0.0
O368 O 0.49161 0.27916 0.67295 0.0
Zn369 Zn 0.4717 0.25277 0.7173 0.0
O370 O 0.46445 0.28357 0.74849 0.0
Zn371 Zn 0.4906 0.28953 0.79004 0.0
Zn372 Zn 0.47888 0.33123 0.72792 0.0
Zn373 Zn 0.41222 0.26031 0.76162 0.0
O374 O 0.45564 0.26232 0.82932 0.0
O375 O 0.40458 0.22629 0.79994 0.0
O376 O 0.50415 0.23396 0.73768 0.0
O377 O 0.51812 0.26142 0.78689 0.0
O378 O 0.53203 0.34375 0.79544 0.0
O379 O 0.52613 0.36959 0.74909 0.0
O380 O 0.43552 0.33943 0.73505 0.0
O381 O 0.4215 0.20897 0.70722 0.0
O382 O 0.40254 0.30272 0.77526 0.0
O383 O 0.38004 0.22448 0.72671 0.0
C384 C 0.49516 0.30983 0.66144 0.0
C385 C 0.42352 0.23241 0.82627 0.0
C386 C 0.54406 0.37142 0.7753 0.0
C387 C 0.52035 0.23995 0.76568 0.0
C388 C 0.4244 0.3361 0.76461 0.0
C389 C 0.38798 0.2029 0.71013 0.0
O390 O 0.48948 0.33185 0.6795 0.0
O391 O 0.71008 0.21023 0.67565 0.0
Zn392 Zn 0.73606 0.21621 0.72031 0.0
O393 O 0.70326 0.18157 0.75232 0.0
Zn394 Zn 0.70086 0.20386 0.79363 0.0
Zn395 Zn 0.65469 0.15211 0.73293 0.0
Zn396 Zn 0.72009 0.14802 0.76608 0.0
O397 O 0.72716 0.19331 0.83207 0.0
O398 O 0.75877 0.17398 0.80153 0.0
O399 O 0.75931 0.26877 0.73858 0.0
O400 O 0.73326 0.25884 0.78833 0.0
O401 O 0.64813 0.19595 0.80088 0.0
O402 O 0.62212 0.16846 0.75316 0.0
O403 O 0.63548 0.09865 0.7452 0.0
O404 O 0.77571 0.20318 0.71225 0.0
O405 O 0.67251 0.10407 0.78628 0.0
O406 O 0.74971 0.14313 0.72869 0.0
C407 C 0.67792 0.18495 0.66485 0.0
C408 C 0.7553 0.18828 0.82806 0.0
C409 C 0.62112 0.18372 0.78003 0.0
C410 C 0.75531 0.28089 0.76633 0.0
C411 C 0.63917 0.09207 0.77514 0.0
C412 C 0.77544 0.17198 0.71337 0.0
O413 O 0.65408 0.15933 0.68386 0.0
O414 O 0.46546 0.14445 0.18303 0.0
Zn415 Zn 0.44133 0.13482 0.22841 0.0
O416 O 0.46743 0.17894 0.25466 0.0
Zn417 Zn 0.47511 0.16755 0.29879 0.0
Zn418 Zn 0.51265 0.21095 0.23336 0.0
Zn419 Zn 0.44166 0.20476 0.25905 0.0
O420 O 0.46026 0.19711 0.33162 0.0
O421 O 0.41311 0.19157 0.30073 0.0
O422 O 0.44873 0.09515 0.25391 0.0
O423 O 0.43909 0.11217 0.30256 0.0
O424 O 0.52831 0.17339 0.30011 0.0
O425 O 0.5452 0.19258 0.24817 0.0
O426 O 0.53233 0.26265 0.25116 0.0
O427 O 0.38963 0.12877 0.21811 0.0
O428 O 0.47799 0.2599 0.26297 0.0
O429 O 0.40697 0.18985 0.22216 0.0
C430 C 0.48937 0.17436 0.16794 0.0
C431 C 0.43072 0.20016 0.32795 0.0
C432 C 0.5497 0.17954 0.27509 0.0
C433 C 0.44724 0.09138 0.28526 0.0
C434 C 0.51386 0.27769 0.26208 0.0
C435 C 0.38517 0.15689 0.21105 0.0
O436 O 0.50858 0.20536 0.18349 0.0
O437 O 0.8244 0.29664 0.17867 0.0
Zn438 Zn 0.82831 0.2828 0.22651 0.0
O439 O 0.78055 0.261 0.24783 0.0
Zn440 Zn 0.77756 0.28268 0.28806 0.0
Zn441 Zn 0.74348 0.25526 0.21627 0.0
Zn442 Zn 0.76578 0.21365 0.26552 0.0
O443 O 0.75355 0.2429 0.32505 0.0
O444 O 0.78366 0.21347 0.31109 0.0
O445 O 0.86323 0.3311 0.25293 0.0
O446 O 0.8296 0.32263 0.29885 0.0
O447 O 0.74967 0.31038 0.27871 0.0
O448 O 0.7321 0.29559 0.22625 0.0
O449 O 0.69472 0.2075 0.22368 0.0
O450 O 0.8398 0.2398 0.22042 0.0
O451 O 0.71003 0.18678 0.26822 0.0
O452 O 0.78426 0.19097 0.23566 0.0
C453 C 0.79641 0.28362 0.15883 0.0
C454 C 0.76418 0.2192 0.33197 0.0
C455 C 0.73488 0.31398 0.25227 0.0
C456 C 0.85936 0.34156 0.28171 0.0
C457 C 0.68543 0.18635 0.249 0.0
C458 C 0.81541 0.20442 0.22046 0.0
O459 O 0.76271 0.26335 0.16937 0.0
O460 O 0.6538 0.52381 0.17925 0.0
Zn461 Zn 0.67354 0.54118 0.22614 0.0
O462 O 0.68605 0.50783 0.24811 0.0
Zn463 Zn 0.67692 0.50424 0.29486 0.0
Zn464 Zn 0.6507 0.46173 0.22958 0.0
Zn465 Zn 0.73453 0.51697 0.24123 0.0
O466 O 0.72556 0.52202 0.32212 0.0
O467 O 0.76676 0.53671 0.28157 0.0
O468 O 0.6303 0.53701 0.25548 0.0
O469 O 0.65652 0.53865 0.30345 0.0
O470 O 0.6356 0.44942 0.30372 0.0
O471 O 0.60556 0.44409 0.25692 0.0
O472 O 0.67093 0.42716 0.23404 0.0
O473 O 0.72448 0.58783 0.21839 0.0
O474 O 0.73268 0.46819 0.23169 0.0
O475 O 0.75584 0.55702 0.20785 0.0
C476 C 0.64186 0.4919 0.16548 0.0
C477 C 0.75953 0.53556 0.31212 0.0
C478 C 0.60619 0.4321 0.2856 0.0
C479 C 0.62855 0.53527 0.28697 0.0
C480 C 0.70498 0.43451 0.23301 0.0
C481 C 0.75251 0.58634 0.20577 0.0
O482 O 0.63915 0.46423 0.18194 0.0
O483 O 0.47616 0.1395 1.01031 0.0
Zn484 Zn 0.47042 0.11755 0.96429 0.0
O485 O 0.51528 0.14652 0.93961 0.0
Zn486 Zn 0.50478 0.15255 0.89473 0.0
Zn487 Zn 0.54211 0.19234 0.96162 0.0
Zn488 Zn 0.54576 0.12559 0.93814 0.0
O489 O 0.53649 0.13925 0.8628 0.0
O490 O 0.53978 0.09825 0.89651 0.0
O491 O 0.43005 0.1225 0.93739 0.0
O492 O 0.45026 0.11391 0.88997 0.0
O493 O 0.5072 0.20421 0.89193 0.0
O494 O 0.51951 0.22048 0.94498 0.0
O495 O 0.5949 0.21755 0.94557 0.0
O496 O 0.46816 0.06745 0.97314 0.0
O497 O 0.59941 0.16657 0.93628 0.0
O498 O 0.53054 0.08984 0.97452 0.0
C499 C 0.50419 0.1653 0.0261 0.0
C500 C 0.54428 0.11295 0.86811 0.0
C501 C 0.50854 0.22423 0.9167 0.0
C502 C 0.42768 0.12075 0.90596 0.0
C503 C 0.61359 0.20221 0.93597 0.0
C504 C 0.49694 0.06492 0.9821 0.0
O505 O 0.53493 0.18755 1.01126 0.0
O506 O 0.85412 0.33369 1.00634 0.0
Zn507 Zn 0.87325 0.35441 0.96005 0.0
O508 O 0.84128 0.36788 0.93766 0.0
Zn509 Zn 0.83764 0.35929 0.89093 0.0
Zn510 Zn 0.79404 0.33188 0.95446 0.0
Zn511 Zn 0.85108 0.4168 0.94404 0.0
O512 O 0.86044 0.40805 0.86393 0.0
O513 O 0.8735 0.44937 0.90396 0.0
O514 O 0.86958 0.31132 0.93096 0.0
O515 O 0.86363 0.33034 0.88101 0.0
O516 O 0.78158 0.32472 0.88147 0.0
O517 O 0.77668 0.28902 0.92393 0.0
O518 O 0.76078 0.35381 0.9509 0.0
O519 O 0.91996 0.40481 0.96927 0.0
O520 O 0.802 0.41556 0.95168 0.0
O521 O 0.88979 0.43704 0.97878 0.0
C522 C 0.82139 0.32 0.01899 0.0
C523 C 0.87424 0.44206 0.87365 0.0
C524 C 0.76361 0.29358 0.89708 0.0
C525 C 0.86558 0.30635 0.89972 0.0
C526 C 0.76822 0.38791 0.95101 0.0
C527 C 0.91855 0.43285 0.98189 0.0
O528 O 0.79405 0.3168 1.00168 0.0
O529 O 0.62233 0.49892 1.00544 0.0
Zn530 Zn 0.60891 0.50279 0.95735 0.0
O531 O 0.58705 0.45505 0.936 0.0
Zn532 Zn 0.60947 0.45317 0.89572 0.0
Zn533 Zn 0.58365 0.41881 0.96722 0.0
Zn534 Zn 0.53893 0.43922 0.91898 0.0
O535 O 0.56903 0.42592 0.85982 0.0
O536 O 0.53795 0.45479 0.87261 0.0
O537 O 0.65741 0.53719 0.93088 0.0
O538 O 0.64619 0.50604 0.88323 0.0
O539 O 0.641 0.42906 0.90526 0.0
O540 O 0.62602 0.41041 0.95746 0.0
O541 O 0.53759 0.36922 0.95961 0.0
O542 O 0.56616 0.51476 0.96298 0.0
O543 O 0.51159 0.38318 0.91795 0.0
O544 O 0.51684 0.45941 0.94816 0.0
C545 C 0.6094 0.47065 0.02499 0.0
C546 C 0.5442 0.43495 0.85252 0.0
C547 C 0.64538 0.41479 0.9317 0.0
C548 C 0.66662 0.53457 0.90124 0.0
C549 C 0.51377 0.35924 0.93628 0.0
C550 C 0.53062 0.49085 0.96292 0.0
O551 O 0.59 0.43711 0.01404 0.0
O552 O 0.48597 0.77813 0.85084 0.0
Zn553 Zn 0.5043 0.77059 0.80594 0.0
O554 O 0.50763 0.8061 0.77369 0.0
Zn555 Zn 0.48164 0.78394 0.73266 0.0
Zn556 Zn 0.49064 0.8376 0.79318 0.0
Zn557 Zn 0.55878 0.83686 0.75898 0.0
O558 O 0.51595 0.79289 0.69295 0.0
O559 O 0.56767 0.80978 0.72192 0.0
O560 O 0.47308 0.71823 0.78755 0.0
O561 O 0.45733 0.72871 0.73774 0.0
O562 O 0.43873 0.79397 0.72605 0.0
O563 O 0.4421 0.82493 0.77209 0.0
O564 O 0.53079 0.88983 0.78285 0.0
O565 O 0.55617 0.78029 0.81381 0.0
O566 O 0.56197 0.88519 0.74151 0.0
O567 O 0.5935 0.83857 0.79462 0.0
C568 C 0.48025 0.80416 0.86156 0.0
C569 C 0.5485 0.79614 0.6958 0.0
C570 C 0.42518 0.80846 0.74567 0.0
C571 C 0.45673 0.7064 0.75978 0.0
C572 C 0.54004 0.89629 0.75273 0.0
C573 C 0.58853 0.80962 0.81088 0.0
O574 O 0.4824 0.82982 0.84234 0.0
O575 O 0.19419 0.70293 0.84678 0.0
Zn576 Zn 0.20086 0.72537 0.80038 0.0
O577 O 0.16615 0.69046 0.76961 0.0
Zn578 Zn 0.18942 0.6853 0.73004 0.0
Zn579 Zn 0.13543 0.6435 0.79142 0.0
Zn580 Zn 0.13353 0.70709 0.75302 0.0
O581 O 0.18008 0.70848 0.68903 0.0
O582 O 0.16001 0.74213 0.7155 0.0
O583 O 0.25357 0.74775 0.78273 0.0
O584 O 0.2449 0.71773 0.73512 0.0
O585 O 0.17853 0.63173 0.72585 0.0
O586 O 0.15002 0.60809 0.77383 0.0
O587 O 0.08161 0.62379 0.77886 0.0
O588 O 0.18873 0.76599 0.80408 0.0
O589 O 0.08815 0.65938 0.73596 0.0
O590 O 0.12907 0.74001 0.78676 0.0
C591 C 0.16867 0.67171 0.85899 0.0
C592 C 0.1753 0.73693 0.69041 0.0
C593 C 0.16485 0.60533 0.74728 0.0
C594 C 0.26639 0.74195 0.75614 0.0
C595 C 0.07345 0.6267 0.74916 0.0
C596 C 0.15813 0.76661 0.80094 0.0
O597 O 0.14308 0.64656 0.84081 0.0
O598 O 0.27034 0.48583 0.85086 0.0
Zn599 Zn 0.24484 0.46373 0.80655 0.0
O600 O 0.27857 0.46327 0.77495 0.0
Zn601 Zn 0.28136 0.48861 0.73377 0.0
Zn602 Zn 0.32671 0.48249 0.79527 0.0
Zn603 Zn 0.26259 0.41361 0.75992 0.0
O604 O 0.25669 0.45348 0.6943 0.0
O605 O 0.22401 0.40205 0.72415 0.0
O606 O 0.219 0.49019 0.78712 0.0
O607 O 0.24771 0.50958 0.73864 0.0
O608 O 0.33364 0.53365 0.72735 0.0
O609 O 0.35958 0.53174 0.77505 0.0
O610 O 0.34603 0.44809 0.78382 0.0
O611 O 0.20777 0.41037 0.81569 0.0
O612 O 0.31109 0.41862 0.74097 0.0
O613 O 0.23368 0.37746 0.79643 0.0
C614 C 0.30226 0.49294 0.86247 0.0
C615 C 0.22797 0.42063 0.69789 0.0
C616 C 0.36057 0.54827 0.74823 0.0
C617 C 0.2237 0.50719 0.75965 0.0
C618 C 0.34381 0.43856 0.75379 0.0
C619 C 0.20854 0.37976 0.81333 0.0
O620 O 0.32637 0.49058 0.84435 0.0
O621 O 0.44025 0.83193 0.01215 0.0
Zn622 Zn 0.43484 0.8519 0.057 0.0
O623 O 0.46886 0.85227 0.08895 0.0
Zn624 Zn 0.44602 0.8272 0.13004 0.0
Zn625 Zn 0.49806 0.83308 0.06932 0.0
Zn626 Zn 0.50278 0.90195 0.10363 0.0
O627 O 0.45631 0.86296 0.1689 0.0
O628 O 0.47642 0.91451 0.13886 0.0
O629 O 0.38196 0.82349 0.07549 0.0
O630 O 0.39105 0.8049 0.12455 0.0
O631 O 0.45438 0.78306 0.13755 0.0
O632 O 0.48154 0.78395 0.08982 0.0
O633 O 0.55188 0.86676 0.0815 0.0
O634 O 0.45009 0.90536 0.04921 0.0
O635 O 0.54605 0.89711 0.1234 0.0
O636 O 0.50985 0.93749 0.06677 0.0
C637 C 0.4651 0.82457 1.00116 0.0
C638 C 0.46148 0.89619 0.16512 0.0
C639 C 0.46656 0.76811 0.11699 0.0
C640 C 0.36939 0.80635 0.10289 0.0
C641 C 0.55924 0.87726 0.11132 0.0
C642 C 0.48188 0.93569 0.05098 0.0
O643 O 0.49047 0.82559 0.02009 0.0
O644 O 0.14851 0.61324 0.01235 0.0
Zn645 Zn 0.12935 0.58886 0.05759 0.0
O646 O 0.12802 0.62286 0.0884 0.0
Zn647 Zn 0.15475 0.62762 0.12908 0.0
Zn648 Zn 0.14484 0.6703 0.06733 0.0
Zn649 Zn 0.07807 0.6053 0.10332 0.0
O650 O 0.12018 0.60273 0.16882 0.0
O651 O 0.0682 0.56847 0.13995 0.0
O652 O 0.15851 0.5657 0.07712 0.0
O653 O 0.17842 0.5959 0.12489 0.0
O654 O 0.19778 0.68122 0.13446 0.0
O655 O 0.19458 0.70528 0.08609 0.0
O656 O 0.11018 0.68937 0.07962 0.0
O657 O 0.07638 0.54943 0.04974 0.0
O658 O 0.08008 0.65241 0.1215 0.0
O659 O 0.04237 0.57486 0.06726 0.0
C660 C 0.15335 0.64413 1.00008 0.0
C661 C 0.08748 0.57356 0.16596 0.0
C662 C 0.21147 0.70769 0.11306 0.0
C663 C 0.1765 0.57177 0.10423 0.0
C664 C 0.09845 0.68552 0.10914 0.0
C665 C 0.04539 0.54957 0.05135 0.0
O666 O 0.15076 0.66827 0.01796 0.0
O667 O 0.36709 0.54146 0.0138 0.0
Zn668 Zn 0.3908 0.5474 0.05978 0.0
O669 O 0.3567 0.51166 0.0905 0.0
Zn670 Zn 0.35259 0.53252 0.1319 0.0
Zn671 Zn 0.30917 0.48171 0.0696 0.0
Zn672 Zn 0.37396 0.47854 0.10385 0.0
O673 O 0.37901 0.5224 0.17037 0.0
O674 O 0.41198 0.50459 0.13982 0.0
O675 O 0.41208 0.59921 0.07911 0.0
O676 O 0.38355 0.58796 0.12788 0.0
O677 O 0.29899 0.52189 0.1384 0.0
O678 O 0.27425 0.49545 0.09001 0.0
O679 O 0.29196 0.42781 0.07881 0.0
O680 O 0.43191 0.53604 0.05331 0.0
O681 O 0.32645 0.43299 0.12187 0.0
O682 O 0.40277 0.47462 0.0657 0.0
C683 C 0.33529 0.51625 1.00225 0.0
C684 C 0.40782 0.51846 0.16636 0.0
C685 C 0.27225 0.50955 0.11727 0.0
C686 C 0.40646 0.61059 0.10662 0.0
C687 C 0.29396 0.41886 0.10837 0.0
C688 C 0.4295 0.50388 0.05178 0.0
O689 O 0.31064 0.4908 0.02084 0.0
O690 O 0.12441 0.46473 0.5163 0.0
Zn691 Zn 0.10178 0.45891 0.56219 0.0
O692 O 0.12783 0.50468 0.58643 0.0
Zn693 Zn 0.13458 0.4973 0.63198 0.0
Zn694 Zn 0.17454 0.53031 0.56596 0.0
Zn695 Zn 0.10682 0.53542 0.58372 0.0
O696 O 0.11374 0.52352 0.66184 0.0
O697 O 0.07989 0.53386 0.62482 0.0
O698 O 0.11141 0.42206 0.59026 0.0
O699 O 0.10421 0.44153 0.6389 0.0
O700 O 0.19029 0.51219 0.6386 0.0
O701 O 0.20399 0.51034 0.58576 0.0
O702 O 0.19763 0.58371 0.57905 0.0
O703 O 0.05037 0.4532 0.55087 0.0
O704 O 0.14667 0.58987 0.57956 0.0
O705 O 0.07137 0.51531 0.5474 0.0
C706 C 0.15077 0.49292 0.50115 0.0
C707 C 0.08943 0.5334 0.65455 0.0
C708 C 0.21091 0.50977 0.61616 0.0
C709 C 0.11176 0.42019 0.62176 0.0
C710 C 0.18212 0.6037 0.5823 0.0
C711 C 0.04801 0.48133 0.53958 0.0
O712 O 0.17249 0.52322 0.51661 0.0
O713 O 0.49542 0.64481 0.51773 0.0
Zn714 Zn 0.5048 0.6303 0.56317 0.0
O715 O 0.46083 0.61244 0.5896 0.0
Zn716 Zn 0.47185 0.63167 0.63373 0.0
Zn717 Zn 0.42856 0.62507 0.56781 0.0
Zn718 Zn 0.43549 0.56075 0.59473 0.0
O719 O 0.44414 0.58721 0.66705 0.0
O720 O 0.44992 0.54598 0.63613 0.0
O721 O 0.54427 0.67784 0.58791 0.0
O722 O 0.52765 0.65319 0.63752 0.0
O723 O 0.46291 0.67715 0.63551 0.0
O724 O 0.44488 0.67545 0.58325 0.0
O725 O 0.37683 0.59174 0.58522 0.0
O726 O 0.51064 0.58452 0.553 0.0
O727 O 0.38026 0.54098 0.59928 0.0
O728 O 0.44961 0.54081 0.55779 0.0
C729 C 0.46581 0.63928 0.50243 0.0
C730 C 0.44191 0.55502 0.66354 0.0
C731 C 0.45632 0.69233 0.61061 0.0
C732 C 0.54827 0.68132 0.6192 0.0
C733 C 0.36217 0.55863 0.59718 0.0
C734 C 0.48238 0.55189 0.54629 0.0
O735 O 0.43468 0.62755 0.51779 0.0
O736 O 0.33522 0.85405 0.51634 0.0
Zn737 Zn 0.34756 0.8728 0.56386 0.0
O738 O 0.36748 0.84639 0.58768 0.0
Zn739 Zn 0.34619 0.8308 0.63073 0.0
Zn740 Zn 0.35995 0.80558 0.56125 0.0
Zn741 Zn 0.41839 0.87616 0.59802 0.0
O742 O 0.38829 0.84338 0.66496 0.0
O743 O 0.42763 0.89843 0.64286 0.0
O744 O 0.29864 0.85899 0.58855 0.0
O745 O 0.31917 0.85946 0.63909 0.0
O746 O 0.30614 0.77531 0.62832 0.0
O747 O 0.31093 0.76401 0.57524 0.0
O748 O 0.39913 0.79229 0.57318 0.0
O749 O 0.39044 0.92704 0.55815 0.0
O750 O 0.44247 0.84415 0.59859 0.0
O751 O 0.43808 0.91554 0.56528 0.0
C752 C 0.34271 0.83266 0.499 0.0
C753 C 0.41834 0.87556 0.66681 0.0
C754 C 0.29383 0.7546 0.6027 0.0
C755 C 0.29283 0.85502 0.61961 0.0
C756 C 0.43017 0.81063 0.5887 0.0
C757 C 0.42473 0.93531 0.55363 0.0
O758 O 0.3562 0.81371 0.51238 0.0
O759 O 0.13468 0.46276 0.34264 0.0
Zn760 Zn 0.12685 0.44189 0.29599 0.0
O761 O 0.17232 0.46738 0.27165 0.0
Zn762 Zn 0.16669 0.47962 0.22747 0.0
Zn763 Zn 0.20406 0.51079 0.29523 0.0
Zn764 Zn 0.19672 0.43995 0.26806 0.0
O765 O 0.19193 0.45956 0.19543 0.0
O766 O 0.18453 0.41166 0.22635 0.0
O767 O 0.09106 0.4545 0.27009 0.0
O768 O 0.11092 0.45336 0.21956 0.0
O769 O 0.18587 0.53677 0.22588 0.0
O770 O 0.19158 0.54808 0.27999 0.0
O771 O 0.25625 0.52829 0.27971 0.0
O772 O 0.11758 0.38856 0.30463 0.0
O773 O 0.25253 0.47409 0.26571 0.0
O774 O 0.17877 0.4053 0.30472 0.0
C775 C 0.16415 0.48505 0.35904 0.0
C776 C 0.19297 0.42898 0.19896 0.0
C777 C 0.18911 0.55743 0.25068 0.0
C778 C 0.08894 0.45773 0.23887 0.0
C779 C 0.271 0.50974 0.26838 0.0
C780 C 0.14488 0.38371 0.31391 0.0
O781 O 0.1959 0.50449 0.34465 0.0
O782 O 0.50518 0.66513 0.34566 0.0
Zn783 Zn 0.52836 0.68174 0.30011 0.0
O784 O 0.50034 0.69828 0.27479 0.0
Zn785 Zn 0.49502 0.68339 0.22955 0.0
Zn786 Zn 0.4536 0.67883 0.29541 0.0
Zn787 Zn 0.52208 0.7499 0.27481 0.0
O788 O 0.51333 0.72999 0.19865 0.0
O789 O 0.55168 0.77317 0.23437 0.0
O790 O 0.52214 0.63594 0.27365 0.0
O791 O 0.52973 0.66254 0.22493 0.0
O792 O 0.44064 0.63877 0.22372 0.0
O793 O 0.42407 0.62897 0.27682 0.0
O794 O 0.4304 0.70881 0.27962 0.0
O795 O 0.57887 0.72924 0.30985 0.0
O796 O 0.48255 0.76428 0.2731 0.0
O797 O 0.55542 0.76816 0.31259 0.0
C798 C 0.47834 0.6661 0.36073 0.0
C799 C 0.53952 0.76373 0.20515 0.0
C800 C 0.41926 0.618 0.2471 0.0
C801 C 0.52284 0.63387 0.24224 0.0
C802 C 0.44688 0.74354 0.27178 0.0
C803 C 0.58061 0.75983 0.31987 0.0
O804 O 0.45609 0.67415 0.34525 0.0
O805 O 0.31165 0.84835 0.34298 0.0
Zn806 Zn 0.29364 0.85289 0.29707 0.0
O807 O 0.27506 0.80752 0.27313 0.0
Zn808 Zn 0.28849 0.81297 0.22758 0.0
Zn809 Zn 0.29918 0.78448 0.29285 0.0
Zn810 Zn 0.22401 0.7748 0.27632 0.0
O811 O 0.24114 0.78812 0.198 0.0
O812 O 0.19686 0.7747 0.23559 0.0
O813 O 0.33953 0.89033 0.26897 0.0
O814 O 0.31776 0.86844 0.21889 0.0
O815 O 0.32547 0.79304 0.22175 0.0
O816 O 0.34854 0.80927 0.27224 0.0
O817 O 0.27153 0.73083 0.27856 0.0
O818 O 0.24657 0.85623 0.3077 0.0
O819 O 0.2132 0.72163 0.27959 0.0
O820 O 0.20774 0.79374 0.31282 0.0
C821 C 0.31239 0.82126 0.35789 0.0
C822 C 0.20675 0.77678 0.20565 0.0
C823 C 0.35164 0.80092 0.24285 0.0
C824 C 0.34394 0.89194 0.23763 0.0
C825 C 0.23606 0.70945 0.27542 0.0
C826 C 0.21667 0.82764 0.31931 0.0
O827 O 0.30531 0.79147 0.34229 0.0
C828 C 0.15846 0.12055 0.24769 0.0
C829 C 0.14509 0.13656 0.22441 0.0
H830 H 0.16613 0.11275 0.29879 0.0
C831 C 0.12632 0.15524 0.23578 0.0
H832 H 0.17316 0.1061 0.23981 0.0
C833 C 0.12157 0.15836 0.26959 0.0
C834 C 0.13629 0.14367 0.29289 0.0
H835 H 0.11555 0.16777 0.21851 0.0
H836 H 0.10757 0.17349 0.27747 0.0
C837 C 0.15452 0.12447 0.28151 0.0
C838 C 0.82292 0.96158 0.23617 0.0
C839 C 0.84108 -0.00119 0.22408 0.0
H840 H 0.80378 0.92528 0.27843 0.0
C841 C 0.85543 0.02863 0.24685 0.0
H842 H 0.8116 0.93794 0.21934 0.0
C843 C 0.85032 0.02133 0.28079 0.0
C844 C 0.83144 0.98406 0.29283 0.0
H845 H 0.86936 0.05761 0.23841 0.0
H846 H 0.86078 0.04494 0.2976 0.0
C847 C 0.81852 0.95431 0.27009 0.0
C848 C 0.016 0.85447 0.27256 0.0
C849 C -0.01386 0.83678 0.29517 0.0
H850 H 0.03275 0.86377 0.22187 0.0
C851 C 0.94898 0.81669 0.283 0.0
H852 H 0.04494 0.87005 0.28107 0.0
C853 C 0.94193 0.81382 0.24901 0.0
C854 C 0.97194 0.83017 0.22643 0.0
H855 H 0.92534 0.80286 0.29976 0.0
H856 H 0.91308 0.79752 0.24042 0.0
C857 C 0.00901 0.8508 0.23862 0.0
C858 C 0.78459 0.79556 0.77977 0.0
C859 C 0.80982 0.82905 0.79634 0.0
H860 H 0.7643 0.7674 0.73355 0.0
C861 C 0.83394 0.86091 0.77738 0.0
H862 H 0.76536 0.77045 0.79342 0.0
C863 C 0.8332 0.85915 0.74288 0.0
C864 C 0.80822 0.82553 0.72635 0.0
H865 H 0.8536 0.88724 0.78917 0.0
H866 H 0.85257 0.88415 0.72918 0.0
C867 C 0.78377 0.79383 0.7453 0.0
C868 C 0.16084 0.01524 0.7902 0.0
C869 C 0.13886 0.97655 0.79733 0.0
H870 H 0.18352 0.05805 0.75265 0.0
C871 C 0.12363 0.95087 0.77115 0.0
H872 H 0.17287 0.03561 0.80995 0.0
C873 C 0.13088 0.96358 0.73845 0.0
C874 C 0.15228 0.00231 0.73132 0.0
H875 H 0.10679 0.92089 0.77598 0.0
H876 H 0.1192 0.94317 0.7187 0.0
C877 C 0.16686 0.02806 0.7575 0.0
C878 C -0.01407 0.18385 0.77463 0.0
C879 C 0.97903 0.15215 0.79342 0.0
H880 H -0.01064 0.20707 0.72667 0.0
C881 C 0.96947 0.11837 0.77681 0.0
H882 H -0.00649 0.21038 0.78646 0.0
C883 C 0.96713 0.11645 0.74236 0.0
C884 C 0.97444 0.14829 0.72356 0.0
H885 H 0.96403 0.09336 0.79041 0.0
H886 H 0.95977 0.09 0.73048 0.0
C887 C -0.01627 0.18197 0.74022 0.0
C888 C 0.79231 0.50344 0.60262 0.0
C889 C 0.80769 0.48984 0.62632 0.0
H890 H 0.78536 0.51102 0.55126 0.0
C891 C 0.82662 0.47113 0.61544 0.0
H892 H 0.77776 0.51815 0.61014 0.0
C893 C 0.83013 0.46619 0.58171 0.0
C894 C 0.81579 0.48084 0.558 0.0
H895 H 0.83871 0.46025 0.63306 0.0
H896 H 0.84507 0.45187 0.57418 0.0
C897 C 0.79681 0.49949 0.56888 0.0
C898 C 0.52462 0.36538 0.58138 0.0
C899 C 0.51143 0.33647 0.55782 0.0
H900 H 0.52946 0.37957 0.63261 0.0
C901 C 0.49559 0.29892 0.56873 0.0
H902 H 0.53681 0.39455 0.57379 0.0
C903 C 0.49209 0.29038 0.60242 0.0
C904 C 0.5035 0.31913 0.62596 0.0
H905 H 0.48529 0.27601 0.55118 0.0
H906 H 0.47891 0.26112 0.60998 0.0
C907 C 0.52028 0.35677 0.61506 0.0
C908 C 0.68792 0.19388 0.57177 0.0
C909 C 0.65004 0.17518 0.56133 0.0
H910 H 0.72647 0.21239 0.61254 0.0
C911 C 0.6215 0.16212 0.58529 0.0
H912 H 0.7106 0.20436 0.55393 0.0
C913 C 0.6306 0.16602 0.61889 0.0
C914 C 0.66848 0.1839 0.62933 0.0
H915 H 0.59206 0.14743 0.57811 0.0
H916 H 0.60791 0.15453 0.63674 0.0
C917 C 0.69705 0.19859 0.60536 0.0
C918 C 0.52408 0.20212 0.11445 0.0
C919 C 0.49374 0.1727 0.13164 0.0
H920 H 0.5515 0.22288 0.0678 0.0
C921 C 0.46705 0.14122 0.1137 0.0
H922 H 0.54519 0.22677 0.12744 0.0
C923 C 0.47043 0.13918 0.07963 0.0
C924 C 0.50084 0.16836 0.06238 0.0
H925 H 0.44319 0.11806 0.12595 0.0
H926 H 0.44921 0.1144 0.06685 0.0
C927 C 0.52773 0.19985 0.08025 0.0
C928 C 0.83974 0.31052 0.1097 0.0
C929 C 0.80301 0.29218 0.12291 0.0
H930 H 0.87441 0.3333 0.06674 0.0
C931 C 0.77247 0.28212 0.10136 0.0
H932 H 0.86397 0.31858 0.12545 0.0
C933 C 0.77848 0.29066 0.06773 0.0
C934 C 0.81518 0.30928 0.05453 0.0
H935 H 0.74378 0.26795 0.11051 0.0
H936 H 0.75421 0.28282 0.05208 0.0
C937 C 0.84574 0.31883 0.07594 0.0
C938 C 0.6418 0.51794 0.10896 0.0
C939 C 0.63229 0.48687 0.12973 0.0
H940 H 0.64239 0.5374 0.0597 0.0
C941 C 0.61469 0.45062 0.11574 0.0
H942 H 0.6555 0.54628 0.11882 0.0
C943 C 0.60709 0.44552 0.08198 0.0
C944 C 0.61709 0.47654 0.06104 0.0
H945 H 0.60688 0.42597 0.13087 0.0
H946 H 0.59367 0.41712 0.07226 0.0
C947 C 0.63443 0.51285 0.075 0.0
C948 C 0.45497 0.82572 0.90803 0.0
C949 C 0.47316 0.8062 0.89727 0.0
H950 H 0.4374 0.84609 0.94908 0.0
C951 C 0.48663 0.79086 0.9211 0.0
H952 H 0.44418 0.83783 0.89035 0.0
C953 C 0.48342 0.79627 0.95477 0.0
C954 C 0.46585 0.81638 0.96552 0.0
H955 H 0.50094 0.77585 0.91373 0.0
H956 H 0.49509 0.785 0.97243 0.0
C957 C 0.45096 0.83035 0.94172 0.0
C958 C 0.15009 0.62788 0.90767 0.0
C959 C 0.16756 0.66489 0.89512 0.0
H960 H 0.13271 0.59235 0.95049 0.0
C961 C 0.18214 0.69509 0.91749 0.0
H962 H 0.13867 0.60397 0.89114 0.0
C963 C 0.17802 0.68839 0.95154 0.0
C964 C 0.16009 0.65135 0.96408 0.0
H965 H 0.1956 0.72392 0.90866 0.0
H966 H 0.18865 0.71225 0.96807 0.0
C967 C 0.14682 0.62121 0.94172 0.0
C968 C 0.35662 0.52741 0.94311 0.0
C969 C 0.3273 0.51442 0.96633 0.0
H970 H 0.37173 0.53038 0.89219 0.0
C971 C 0.28981 0.49654 0.95488 0.0
H972 H 0.38577 0.54103 0.95109 0.0
C973 C 0.28177 0.49097 0.92114 0.0
C974 C 0.31097 0.50235 0.89799 0.0
H975 H 0.26655 0.48624 0.97211 0.0
H976 H 0.25255 0.47643 0.9133 0.0
C977 C 0.34853 0.52106 0.90936 0.0
C978 C 0.18708 0.51837 0.44811 0.0
C979 C 0.15495 0.49077 0.4649 0.0
H980 H 0.21542 0.53818 0.40174 0.0
C981 C 0.12616 0.46138 0.44649 0.0
H982 H 0.20981 0.54142 0.46146 0.0
C983 C 0.12916 0.4598 0.41228 0.0
C984 C 0.16125 0.48731 0.39545 0.0
H985 H 0.10092 0.43971 0.45845 0.0
H986 H 0.10629 0.43676 0.39905 0.0
C987 C 0.19031 0.51651 0.41385 0.0
C988 C 0.43906 0.64703 0.44847 0.0
C989 C 0.46811 0.64587 0.46613 0.0
H990 H 0.41944 0.65461 0.40147 0.0
C991 C 0.50005 0.65112 0.44868 0.0
H992 H 0.41407 0.64313 0.46106 0.0
C993 C 0.50296 0.65731 0.41468 0.0
C994 C 0.47419 0.65882 0.39694 0.0
H995 H 0.52297 0.65027 0.46126 0.0
H996 H 0.52812 0.66125 0.40236 0.0
C997 C 0.44217 0.65367 0.41429 0.0
C998 C 0.33591 0.80127 0.44395 0.0
C999 C 0.33552 0.82989 0.46278 0.0
H1000 H 0.32869 0.77586 0.39639 0.0
C1001 C 0.32787 0.85578 0.44664 0.0
H1002 H 0.34161 0.78077 0.45549 0.0
C1003 C 0.32083 0.85319 0.41269 0.0
C1004 C 0.32079 0.82434 0.3939 0.0
H1005 H 0.32744 0.87828 0.46021 0.0
H1006 H 0.31499 0.87364 0.40124 0.0
C1007 C 0.3284 0.79839 0.41001 0.0
C1008 C 0.3272 0.18227 0.15636 0.0
C1009 C 0.29342 0.14787 0.15412 0.0
H1010 H 0.38284 0.21176 0.17588 0.0
C1011 C 0.29089 0.11537 0.16867 0.0
H1012 H 0.33014 0.20764 0.14516 0.0
C1013 C 0.32123 0.11764 0.18627 0.0
C1014 C 0.35429 0.15247 0.18975 0.0
H1015 H 0.26525 0.08826 0.16697 0.0
H1016 H 0.31833 0.09256 0.19804 0.0
C1017 C 0.35731 0.18455 0.17405 0.0
C1018 C 0.85696 0.16189 0.16401 0.0
C1019 C 0.82454 0.12724 0.15642 0.0
H1020 H 0.8797 0.21395 0.19057 0.0
C1021 C 0.78971 0.11863 0.16963 0.0
H1022 H 0.88424 0.16916 0.15388 0.0
C1023 C 0.78737 0.14372 0.19087 0.0
C1024 C 0.81975 0.17821 0.19899 0.0
H1025 H 0.76442 0.0921 0.1643 0.0
H1026 H 0.75985 0.136 0.2007 0.0
C1027 C 0.85452 0.18742 0.18503 0.0
C1028 C 0.8123 0.68434 0.1716 0.0
C1029 C 0.84164 0.68137 0.15648 0.0
H1030 H 0.7609 0.65654 0.19902 0.0
C1031 C 0.84114 0.64699 0.15743 0.0
H1032 H 0.81184 0.71055 0.17122 0.0
C1033 C 0.81195 0.61615 0.17334 0.0
C1034 C 0.78267 0.61911 0.18859 0.0
H1035 H 0.86325 0.64382 0.14595 0.0
H1036 H 0.81248 0.58998 0.17364 0.0
C1037 C 0.78302 0.65344 0.18749 0.0
C1038 C 0.10883 0.31593 0.32982 0.0
C1039 C 0.13891 0.35238 0.33507 0.0
H1040 H 0.08632 0.25723 0.33953 0.0
C1041 C 0.16781 0.35832 0.35718 0.0
H1042 H 0.08648 0.31088 0.31266 0.0
C1043 C 0.16825 0.32802 0.372 0.0
C1044 C 0.13959 0.29124 0.36517 0.0
H1045 H 0.19115 0.38646 0.36181 0.0
H1046 H 0.1915 0.33345 0.38818 0.0
C1047 C 0.10916 0.28541 0.34483 0.0
C1048 C 0.64195 0.84726 0.36871 0.0
C1049 C 0.67716 0.84974 0.36601 0.0
H1050 H 0.58352 0.81607 0.35689 0.0
C1051 C 0.67992 0.82059 0.35021 0.0
H1052 H 0.63883 0.8689 0.38114 0.0
C1053 C 0.64818 0.7901 0.33643 0.0
C1054 C 0.6133 0.78846 0.33809 0.0
H1055 H 0.70671 0.82145 0.34807 0.0
H1056 H 0.65122 0.76867 0.32352 0.0
C1057 C 0.6103 0.81687 0.35492 0.0
C1058 C 0.16536 0.80253 0.36026 0.0
C1059 C 0.18945 0.83215 0.33915 0.0
H1060 H 0.11625 0.77876 0.39051 0.0
C1061 C 0.1838 0.86278 0.33445 0.0
H1062 H 0.1695 0.77873 0.36463 0.0
C1063 C 0.15304 0.86266 0.34923 0.0
C1064 C 0.12773 0.83194 0.36894 0.0
H1065 H 0.20194 0.88579 0.3182 0.0
H1066 H 0.14863 0.88621 0.34451 0.0
C1067 C 0.13472 0.80236 0.37495 0.0
C1068 C 0.64593 0.77793 0.86057 0.0
C1069 C 0.68122 0.81082 0.86041 0.0
H1070 H 0.58842 0.7519 0.84516 0.0
C1071 C 0.68649 0.84227 0.84205 0.0
H1072 H 0.64132 0.75341 0.87454 0.0
C1073 C 0.65655 0.84166 0.82547 0.0
C1074 C 0.6207 0.80955 0.82691 0.0
H1075 H 0.71374 0.86787 0.84108 0.0
H1076 H 0.66141 0.86665 0.81214 0.0
C1077 C 0.61575 0.77734 0.84399 0.0
C1078 C 0.11973 0.82287 0.84015 0.0
C1079 C 0.15257 0.85259 0.85422 0.0
H1080 H 0.09573 0.7723 0.81191 0.0
C1081 C 0.18775 0.85665 0.84709 0.0
H1082 H 0.09225 0.8198 0.84472 0.0
C1083 C 0.18968 0.82934 0.82826 0.0
C1084 C 0.15644 0.79799 0.81627 0.0
H1085 H 0.21335 0.87961 0.85745 0.0
H1086 H 0.21708 0.83208 0.82417 0.0
C1087 C 0.12164 0.79579 0.82123 0.0
C1088 C 0.14928 0.34855 0.84615 0.0
C1089 C 0.17824 0.3462 0.8296 0.0
H1090 H 0.09765 0.31937 0.87305 0.0
C1091 C 0.17698 0.31147 0.82781 0.0
H1092 H 0.14935 0.37496 0.8479 0.0
C1093 C 0.14726 0.27964 0.84224 0.0
C1094 C 0.11821 0.28197 0.85864 0.0
H1095 H 0.19877 0.30877 0.81515 0.0
H1096 H 0.14707 0.25318 0.84037 0.0
C1097 C 0.11949 0.3167 0.86046 0.0
C1098 C 0.84469 0.69983 0.68401 0.0
C1099 C 0.814 0.69566 0.66506 0.0
H1100 H 0.86729 0.6732 0.71416 0.0
C1101 C 0.78132 0.66028 0.66289 0.0
H1102 H 0.87024 0.72691 0.68647 0.0
C1103 C 0.77975 0.62937 0.67882 0.0
C1104 C 0.81079 0.63351 0.69728 0.0
H1105 H 0.75732 0.65633 0.64847 0.0
H1106 H 0.75425 0.60223 0.6765 0.0
C1107 C 0.84309 0.66907 0.69996 0.0
C1108 C 0.36478 0.15621 0.66465 0.0
C1109 C 0.35772 0.16968 0.69402 0.0
H1110 H 0.34019 0.11868 0.62371 0.0
C1111 C 0.32148 0.15139 0.7077 0.0
H1112 H 0.39271 0.1699 0.65383 0.0
C1113 C 0.2921 0.12144 0.69116 0.0
C1114 C 0.29865 0.10994 0.66065 0.0
H1115 H 0.31565 0.16093 0.73063 0.0
H1116 H 0.26373 0.10913 0.70094 0.0
C1117 C 0.33512 0.1267 0.64773 0.0
C1118 C 0.86462 0.20117 0.66495 0.0
C1119 C 0.86113 0.16611 0.65819 0.0
H1120 H 0.83995 0.23048 0.68784 0.0
C1121 C 0.83032 0.13315 0.67122 0.0
H1122 H 0.88815 0.22693 0.65541 0.0
C1123 C 0.80288 0.13502 0.68981 0.0
C1124 C 0.80555 0.16988 0.69561 0.0
H1125 H 0.82714 0.10562 0.66689 0.0
H1126 H 0.77924 0.10911 0.699 0.0
C1127 C 0.83692 0.20303 0.68342 0.0
C1128 C -0.00565 0.50561 0.47933 0.0
C1129 C 0.95741 0.47632 0.48452 0.0
H1130 H 0.05224 0.52922 0.49216 0.0
C1131 C 0.951 0.44568 0.5049 0.0
H1132 H 0.00028 0.52913 0.46331 0.0
C1133 C 0.98088 0.4456 0.52139 0.0
C1134 C 0.01738 0.4762 0.51773 0.0
H1135 H 0.92276 0.4223 0.509 0.0
H1136 H 0.97517 0.42283 0.53827 0.0
C1137 C 0.02405 0.5055 0.49573 0.0
C1138 C 0.45615 0.46707 0.49353 0.0
C1139 C 0.49113 0.46949 0.48905 0.0
H1140 H 0.42619 0.49162 0.51492 0.0
C1141 C 0.52398 0.50087 0.50158 0.0
H1142 H 0.43049 0.44349 0.48392 0.0
C1143 C 0.52163 0.52863 0.51939 0.0
C1144 C 0.4864 0.52524 0.52507 0.0
H1145 H 0.55154 0.50378 0.49812 0.0
H1146 H 0.54711 0.55198 0.52949 0.0
C1147 C 0.4538 0.49466 0.5114 0.0
C1148 C 0.47447 0.96034 0.51191 0.0
C1149 C 0.4496 0.96587 0.5317 0.0
H1150 H 0.5216 0.98484 0.47965 0.0
C1151 C 0.45151 0.0009 0.53206 0.0
H1152 H 0.47295 0.93317 0.51084 0.0
C1153 C 0.47978 0.03085 0.51417 0.0
C1154 C 0.50597 0.02569 0.4957 0.0
H1155 H 0.43244 0.00551 0.5472 0.0
H1156 H 0.48167 0.05815 0.5155 0.0
C1157 C 0.50237 -0.01008 0.49407 0.0
C1158 C 0.5207 0.0022 0.0322 0.0
C1159 C 0.48557 0.9692 0.03432 0.0
H1160 H 0.55167 0.05845 0.0142 0.0
C1161 C 0.45362 0.9683 0.02029 0.0
H1162 H 0.54571 0.00381 0.04293 0.0
C1163 C 0.45692 -0.00032 1.00387 0.0
C1164 C 0.49225 0.03232 1.00105 0.0
H1165 H 0.42599 0.94328 0.02179 0.0
H1166 H 0.43204 -0.00191 0.99288 0.0
C1167 C 0.52402 0.03345 0.01568 0.0
C1168 C 0.97838 0.5192 0.03312 0.0
C1169 C 0.01266 0.51943 0.03413 0.0
H1170 H 0.92171 0.49154 0.01589 0.0
C1171 C 0.01566 0.49045 0.01838 0.0
H1172 H 0.9752 0.54105 0.04508 0.0
C1173 C -0.01499 0.46195 1.00165 0.0
C1174 C 0.95087 0.46201 1.00028 0.0
H1175 H 0.04175 0.48973 0.01884 0.0
H1176 H -0.0118 0.44018 0.98956 0.0
C1177 C 0.94778 0.49078 0.01633 0.0
C1178 C 0.5162 0.52973 1.00128 0.0
C1179 C 0.50479 0.49585 0.98455 0.0
H1180 H 0.50093 0.55871 0.03629 0.0
C1181 C 0.46888 0.46449 0.991 0.0
H1182 H 0.54378 0.55413 0.99707 0.0
C1183 C 0.44507 0.46672 0.0139 0.0
C1184 C 0.45626 0.50055 0.03035 0.0
H1185 H 0.45918 0.43768 0.97884 0.0
H1186 H 0.41754 0.44221 0.01811 0.0
C1187 C 0.49187 0.53216 0.02385 0.0
C1188 C -0.00849 0.0864 0.05159 0.0
C1189 C 0.97681 0.09849 0.07702 0.0
H1190 H 0.04093 0.08993 0.03037 0.0
C1191 C 0.00143 0.12892 0.09679 0.0
H1192 H 0.97306 0.0635 0.03544 0.0
C1193 C 0.04015 0.14445 0.09347 0.0
C1194 C 0.0548 0.12935 0.0707 0.0
H1195 H -0.00916 0.13964 0.11584 0.0
H1196 H 0.05845 0.16651 0.11039 0.0
C1197 C 0.03036 0.10173 0.04846 0.0
C1198 C 0.87295 0.91579 0.04714 0.0
C1199 C 0.84449 0.91234 0.06845 0.0
H1200 H 0.91161 0.8968 0.03564 0.0
C1201 C 0.82858 0.88226 0.09108 0.0
H1202 H 0.88551 0.9385 0.0293 0.0
C1203 C 0.84388 0.85897 0.09518 0.0
C1204 C 0.87504 0.86499 0.07641 0.0
H1205 H 0.806 0.87836 0.10742 0.0
H1206 H 0.83243 0.83746 0.11415 0.0
C1207 C 0.88811 0.89215 0.05106 0.0
C1208 C 0.09047 0.93366 0.09736 0.0
C1209 C 0.06191 0.9188 0.07328 0.0
H1210 H 0.13391 0.98303 0.12069 0.0
C1211 C 0.05984 0.94329 0.05024 0.0
H1212 H 0.09335 0.91544 0.11508 0.0
C1213 C 0.08332 0.98221 0.05347 0.0
C1214 C 0.109 -0.00292 0.07986 0.0
H1215 H 0.03839 0.93268 0.03123 0.0
H1216 H 0.07974 0.00058 0.03645 0.0
C1217 C 0.11359 0.97242 0.10077 0.0
C1218 C 0.14221 0.03924 0.42486 0.0
C1219 C 0.12966 0.05555 0.44845 0.0
H1220 H 0.13259 0.9887 0.40119 0.0
C1221 C 0.10117 0.03196 0.47056 0.0
H1222 H 0.16464 0.05663 0.40783 0.0
C1223 C 0.0828 -0.00715 0.46672 0.0
C1224 C 0.09256 0.97687 0.44064 0.0
H1225 H 0.09109 0.04362 0.48921 0.0
H1226 H 0.05952 0.97537 0.48296 0.0
C1227 C 0.12359 0.0003 0.42078 0.0
C1228 C 0.94514 0.05879 0.46843 0.0
C1229 C 0.92085 0.06408 0.44753 0.0
H1230 H 0.00241 0.07517 0.47967 0.0
C1231 C 0.9361 0.09442 0.42517 0.0
H1232 H 0.93417 0.03583 0.48606 0.0
C1233 C 0.97487 0.1162 0.42096 0.0
C1234 C -0.00088 0.10855 0.43951 0.0
H1235 H 0.91804 0.09978 0.40922 0.0
H1236 H -0.01426 0.1381 0.40233 0.0
C1237 C -0.01585 0.08104 0.4645 0.0
C1238 C 0.90365 0.86923 0.46976 0.0
C1239 C 0.90184 0.84335 0.4463 0.0
H1240 H 0.88458 0.90708 0.48349 0.0
C1241 C 0.87378 0.83036 0.42183 0.0
H1242 H 0.92449 0.87918 0.48928 0.0
C1243 C 0.85144 0.8468 0.41811 0.0
C1244 C 0.8564 0.87592 0.43917 0.0
H1245 H 0.871 0.8096 0.4039 0.0
H1246 H 0.83175 0.83805 0.39772 0.0
C1247 C 0.88097 0.88539 0.46624 0.0
C1248 C 0.95515 0.82252 0.9031 0.0
C1249 C 0.98294 0.83746 0.92745 0.0
H1250 H 0.90069 0.81133 0.88807 0.0
C1251 C 0.97425 0.84638 0.95851 0.0
H1252 H 0.96127 0.81548 0.87906 0.0
C1253 C 0.93965 0.84489 0.96356 0.0
C1254 C 0.91372 0.83415 0.93762 0.0
H1255 H -0.00442 0.85835 0.97759 0.0
H1256 H 0.93465 0.8551 0.98649 0.0
C1257 C 0.92077 0.8207 0.9082 0.0
C1258 C 0.07921 0.07268 0.93248 0.0
C1259 C 0.0475 0.06597 0.91385 0.0
H1260 H 0.11006 0.04864 0.95431 0.0
C1261 C 0.02041 0.0289 0.90544 0.0
H1262 H 0.09993 0.10098 0.94001 0.0
C1263 C 0.0261 -0.00081 0.91375 0.0
C1264 C 0.05849 0.00609 0.9312 0.0
H1265 H -0.00461 0.023 0.8916 0.0
H1266 H 0.00604 0.97103 0.90535 0.0
C1267 C 0.08449 0.04278 0.94139 0.0
C1268 C 0.9193 0.02643 0.96388 0.0
C1269 C 0.90911 0.05232 0.95206 0.0
H1270 H 0.90637 0.96878 0.96361 0.0
C1271 C 0.87455 0.03896 0.93549 0.0
H1272 H 0.94619 0.03605 0.97598 0.0
C1273 C 0.8516 0.00075 0.92908 0.0
C1274 C 0.86378 0.97557 0.93775 0.0
H1275 H 0.86695 0.05835 0.92459 0.0
H1276 H 0.82598 -0.00861 0.91493 0.0
C1277 C 0.897 0.98821 0.95622 0.0
C1278 C 0.82352 0.94088 0.5809 0.0
C1279 C 0.84418 0.92602 0.56597 0.0
H1280 H 0.82443 -0.01049 0.60084 0.0
C1281 C 0.88158 0.95046 0.55627 0.0
H1282 H 0.79545 0.9225 0.59025 0.0
C1283 C 0.8991 0.9886 0.5646 0.0
C1284 C 0.87887 0.0026 0.58159 0.0
H1285 H 0.89836 0.93956 0.54544 0.0
H1286 H 0.92868 0.00683 0.55883 0.0
C1287 C 0.84049 0.97905 0.58796 0.0
C1288 C -0.01028 0.90353 0.59613 0.0
C1289 C 0.9647 0.90891 0.61579 0.0
H1290 H 0.04517 0.92866 0.57553 0.0
C1291 C 0.97598 0.94449 0.62923 0.0
H1292 H 0.98118 0.8764 0.585 0.0
C1293 C 0.01244 0.9741 0.62404 0.0
C1294 C 0.03749 0.96866 0.60454 0.0
H1295 H 0.95681 0.94919 0.64413 0.0
H1296 H 0.02124 0.00111 0.63551 0.0
C1297 C 0.02586 0.93344 0.59019 0.0
C1298 C 0.12555 0.15895 0.62407 0.0
C1299 C 0.13987 0.14408 0.60107 0.0
H1300 H 0.08086 0.1692 0.6362 0.0
C1301 C 0.1235 0.13447 0.56943 0.0
H1302 H 0.13738 0.16609 0.64863 0.0
C1303 C 0.09039 0.13533 0.56242 0.0
C1304 C 0.0737 0.14598 0.58701 0.0
H1305 H 0.13346 0.1219 0.55154 0.0
H1306 H 0.07615 0.12443 0.53914 0.0
C1307 C 0.09287 0.16008 0.61703 0.0
C1308 C 0.66979 0.47032 0.43386 0.0
C1309 C 0.64489 0.44175 0.41262 0.0
H1310 H 0.72689 0.50562 0.44857 0.0
C1311 C 0.6594 0.43123 0.38588 0.0
H1312 H 0.65942 0.47982 0.45405 0.0
C1313 C 0.69813 0.44591 0.38274 0.0
C1314 C 0.72276 0.47135 0.40626 0.0
H1315 H 0.64083 0.40989 0.36857 0.0
H1316 H 0.7084 0.43523 0.36339 0.0
C1317 C 0.70847 0.48524 0.43054 0.0
C1318 C 0.51561 0.20192 0.43164 0.0
C1319 C 0.54733 0.20834 0.41356 0.0
H1320 H 0.47652 0.2202 0.44239 0.0
C1321 C 0.56075 0.23552 0.38823 0.0
H1322 H 0.50391 0.18033 0.45053 0.0
C1323 C 0.54512 0.25869 0.38354 0.0
C1324 C 0.51575 0.25463 0.40399 0.0
H1325 H 0.58476 0.24046 0.37339 0.0
H1326 H 0.55787 0.28142 0.36574 0.0
C1327 C 0.49974 0.22459 0.42668 0.0
C1328 C 0.75936 0.27153 0.43042 0.0
C1329 C 0.73046 0.25602 0.40669 0.0
H1330 H 0.80123 0.32147 0.45436 0.0
C1331 C 0.7264 0.2802 0.38464 0.0
H1332 H 0.76374 0.25364 0.44741 0.0
C1333 C 0.74803 0.31917 0.38865 0.0
C1334 C 0.77385 0.33445 0.41486 0.0
H1335 H 0.70464 0.26914 0.36589 0.0
H1336 H 0.74293 0.33715 0.37238 0.0
C1337 C 0.78058 0.3104 0.43471 0.0
C1338 C 0.80268 0.34682 0.75108 0.0
C1339 C 0.77483 0.32161 0.77273 0.0
H1340 H 0.83632 0.40393 0.73572 0.0
C1341 C 0.76386 0.33576 0.79943 0.0
H1342 H 0.81247 0.33675 0.73087 0.0
C1343 C 0.77738 0.37432 0.80219 0.0
C1344 C 0.80211 0.39915 0.77834 0.0
H1345 H 0.743 0.31697 0.81702 0.0
H1346 H 0.76635 0.38421 0.82155 0.0
C1347 C 0.81646 0.38534 0.75403 0.0
C1348 C 0.64703 0.4231 0.79628 0.0
C1349 C 0.66168 0.44783 0.76923 0.0
H1350 H 0.59774 0.37991 0.82018 0.0
C1351 C 0.63685 0.45261 0.74865 0.0
H1352 H 0.66549 0.41946 0.81315 0.0
C1353 C 0.59801 0.43055 0.75318 0.0
C1354 C 0.58327 0.40279 0.778 0.0
H1355 H 0.64731 0.47229 0.72823 0.0
H1356 H 0.5796 0.43338 0.73565 0.0
C1357 C 0.60814 0.4007 0.8006 0.0
C1358 C 0.55929 0.17435 0.76193 0.0
C1359 C 0.59021 0.19192 0.78358 0.0
H1360 H 0.51345 0.17632 0.73882 0.0
C1361 C 0.59456 0.22207 0.80302 0.0
H1362 H 0.5547 0.15048 0.74709 0.0
C1363 C 0.57059 0.23678 0.79831 0.0
C1364 C 0.54233 0.22164 0.77395 0.0
H1365 H 0.61802 0.23603 0.81998 0.0
H1366 H 0.57564 0.26135 0.81231 0.0
C1367 C 0.53583 0.18931 0.75691 0.0
C1368 C 0.58343 0.15327 0.24555 0.0
C1369 C 0.57923 0.16939 0.27464 0.0
H1370 H 0.62103 0.14511 0.21481 0.0
C1371 C 0.60728 0.18217 0.29879 0.0
H1372 H 0.56178 0.14289 0.22669 0.0
C1373 C 0.64117 0.18302 0.29198 0.0
C1374 C 0.64688 0.17102 0.26108 0.0
H1375 H 0.60464 0.19495 0.32118 0.0
H1376 H 0.66428 0.19725 0.3092 0.0
C1377 C 0.61707 0.15418 0.23876 0.0
C1378 C 0.68734 0.36756 0.22538 0.0
C1379 C 0.71255 0.40355 0.23761 0.0
H1380 H 0.67494 0.31043 0.22055 0.0
C1381 C 0.74358 0.40919 0.25668 0.0
H1382 H 0.66298 0.36262 0.21099 0.0
C1383 C 0.74954 0.37921 0.26318 0.0
C1384 C 0.72506 0.34355 0.24999 0.0
H1385 H 0.76291 0.43663 0.26694 0.0
H1386 H 0.77406 0.38425 0.2774 0.0
C1387 C 0.69393 0.33781 0.23109 0.0
C1388 C 0.54226 0.37842 0.27726 0.0
C1389 C 0.57822 0.39245 0.2913 0.0
H1390 H 0.49346 0.33077 0.25726 0.0
C1391 C 0.59051 0.36723 0.30013 0.0
H1392 H 0.53295 0.39735 0.26862 0.0
C1393 C 0.56891 0.32925 0.29146 0.0
C1394 C 0.53439 0.31615 0.27491 0.0
H1395 H 0.61846 0.37741 0.31028 0.0
H1396 H 0.57988 0.31052 0.29638 0.0
C1397 C 0.52015 0.34042 0.26975 0.0
C1398 C 0.51184 0.2806 0.89 0.0
C1399 C 0.49738 0.25294 0.91452 0.0
H1400 H 0.52817 0.33755 0.87811 0.0
C1401 C 0.47904 0.25744 0.94196 0.0
H1402 H 0.52643 0.2778 0.86893 0.0
C1403 C 0.47946 0.29114 0.94702 0.0
C1404 C 0.49804 0.32062 0.92461 0.0
H1405 H 0.46745 0.23614 0.96111 0.0
H1406 H 0.46886 0.29551 0.97002 0.0
C1407 C 0.51232 0.31455 0.89514 0.0
C1408 C 0.70747 0.23107 0.89704 0.0
C1409 C 0.72288 0.27004 0.89378 0.0
H1410 H 0.66128 0.17908 0.91368 0.0
C1411 C 0.70046 0.28618 0.90058 0.0
H1412 H 0.72447 0.21831 0.89242 0.0
C1413 C 0.66461 0.26411 0.91417 0.0
C1414 C 0.65068 0.22557 0.9205 0.0
H1415 H 0.71203 0.31639 0.89869 0.0
H1416 H 0.64854 0.27754 0.92087 0.0
C1417 C 0.67165 0.20891 0.91015 0.0
C1418 C 0.67067 0.37498 0.95247 0.0
C1419 C 0.67594 0.40632 0.93415 0.0
H1420 H 0.69613 0.3445 0.9721 0.0
C1421 C 0.71173 0.43181 0.92162 0.0
H1422 H 0.64321 0.35514 0.96246 0.0
C1423 C 0.74221 0.42653 0.92816 0.0
C1424 C 0.73696 0.39521 0.94659 0.0
H1425 H 0.71637 0.45646 0.90781 0.0
H1426 H 0.76969 0.44656 0.91834 0.0
C1427 C 0.70088 0.36914 0.95823 0.0
C1428 C 0.33092 0.79468 0.76912 0.0
C1429 C 0.30714 0.76379 0.74932 0.0
H1430 H 0.38753 0.83469 0.78224 0.0
C1431 C 0.32279 0.75344 0.72338 0.0
H1432 H 0.3196 0.80415 0.78858 0.0
C1433 C 0.36183 0.77099 0.71967 0.0
C1434 C 0.38569 0.79917 0.74183 0.0
H1435 H 0.30506 0.73037 0.70708 0.0
H1436 H 0.37316 0.76048 0.7011 0.0
C1437 C 0.36986 0.81244 0.76522 0.0
C1438 C 0.1583 0.54585 0.76944 0.0
C1439 C 0.17167 0.5735 0.74454 0.0
H1440 H 0.16478 0.50334 0.79409 0.0
C1441 C 0.19699 0.57415 0.72106 0.0
H1442 H 0.13793 0.54397 0.78743 0.0
C1443 C 0.21223 0.55067 0.72486 0.0
C1444 C 0.20239 0.5264 0.75224 0.0
H1445 H 0.20728 0.59468 0.70127 0.0
H1446 H 0.23353 0.5534 0.70754 0.0
C1447 C 0.17378 0.52267 0.77342 0.0
C1448 C 0.42039 0.60251 0.76797 0.0
C1449 C 0.39085 0.58769 0.74481 0.0
H1450 H 0.46392 0.65178 0.79131 0.0
C1451 C 0.3869 0.61227 0.72322 0.0
H1452 H 0.42472 0.5842 0.7845 0.0
C1453 C 0.40963 0.65117 0.72711 0.0
C1454 C 0.43633 0.66581 0.75276 0.0
H1455 H 0.3646 0.60165 0.70498 0.0
H1456 H 0.40477 0.66964 0.71128 0.0
C1457 C 0.44268 0.64121 0.77212 0.0
C1458 C 0.45821 0.67581 0.09559 0.0
C1459 C 0.42646 0.65106 0.11402 0.0
H1460 H 0.49726 0.73291 0.08346 0.0
C1461 C 0.41316 0.66552 0.1387 0.0
H1462 H 0.46982 0.66538 0.0772 0.0
C1463 C 0.42885 0.70438 0.14233 0.0
C1464 C 0.45806 0.72904 0.12136 0.0
H1465 H 0.38913 0.64692 0.15378 0.0
H1466 H 0.41618 0.71485 0.15964 0.0
C1467 C 0.47408 0.71447 0.09943 0.0
C1468 C 0.31379 0.76099 0.13627 0.0
C1469 C 0.3286 0.78626 0.10956 0.0
H1470 H 0.2644 0.71634 0.15888 0.0
C1471 C 0.30393 0.79058 0.08848 0.0
H1472 H 0.33218 0.75768 0.15349 0.0
C1473 C 0.26515 0.76742 0.09201 0.0
C1474 C 0.25043 0.73911 0.11633 0.0
H1475 H 0.31451 0.81061 0.06832 0.0
H1476 H 0.24687 0.77 0.07415 0.0
C1477 C 0.27493 0.7375 0.13961 0.0
C1478 C 0.21203 0.50328 0.09747 0.0
C1479 C 0.24144 0.51795 0.12077 0.0
H1480 H 0.16887 0.50931 0.07352 0.0
C1481 C 0.24515 0.54638 0.14221 0.0
H1482 H 0.20792 0.48077 0.08101 0.0
C1483 C 0.22261 0.56272 0.13789 0.0
C1484 C 0.19622 0.55092 0.11198 0.0
H1485 H 0.26734 0.55808 0.16054 0.0
H1486 H 0.22749 0.58608 0.15358 0.0
C1487 C 0.18985 0.51984 0.09292 0.0
C1488 C 0.27513 0.54692 0.63847 0.0
C1489 C 0.24767 0.51382 0.62325 0.0
H1490 H 0.33406 0.58808 0.6408 0.0
C1491 C 0.25884 0.49248 0.60422 0.0
H1492 H 0.26714 0.56434 0.65241 0.0
C1493 C 0.29677 0.50554 0.59812 0.0
C1494 C 0.32376 0.54093 0.60976 0.0
H1495 H 0.23819 0.46787 0.59093 0.0
H1496 H 0.30463 0.48989 0.58161 0.0
C1497 C 0.31317 0.56082 0.63124 0.0
C1498 C 0.43941 0.77173 0.63013 0.0
C1499 C 0.44887 0.79016 0.59942 0.0
H1500 H 0.43513 0.72532 0.65853 0.0
C1501 C 0.46875 0.78176 0.57643 0.0
H1502 H 0.42375 0.77801 0.64804 0.0
C1503 C 0.47557 0.75234 0.58255 0.0
C1504 C 0.46189 0.73053 0.61143 0.0
H1505 H 0.47606 0.79567 0.55266 0.0
H1506 H 0.48835 0.74428 0.56323 0.0
C1507 C 0.44596 0.74182 0.6362 0.0
C1508 C 0.231 0.65221 0.61817 0.0
C1509 C 0.20572 0.64301 0.59174 0.0
H1510 H 0.2785 0.69634 0.6436 0.0
C1511 C 0.20522 0.67154 0.57322 0.0
H1512 H 0.23117 0.63024 0.63299 0.0
C1513 C 0.2325 0.70893 0.5789 0.0
C1514 C 0.2595 0.71801 0.60385 0.0
H1515 H 0.18569 0.66477 0.5529 0.0
H1516 H 0.23399 0.73057 0.56252 0.0
C1517 C 0.25757 0.68976 0.62453 0.0
C1518 C 0.2425 0.66128 0.24321 0.0
C1519 C 0.2212 0.67053 0.26436 0.0
H1520 H 0.24719 0.61676 0.22009 0.0
C1521 C 0.18537 0.6424 0.27451 0.0
H1522 H 0.26991 0.68283 0.23444 0.0
C1523 C 0.17265 0.605 0.26641 0.0
C1524 C 0.19485 0.59532 0.247 0.0
H1525 H 0.16832 0.64897 0.29052 0.0
H1526 H 0.14691 0.58337 0.27768 0.0
C1527 C 0.22916 0.62379 0.23427 0.0
C1528 C 0.35557 0.58362 0.22329 0.0
C1529 C 0.38437 0.58265 0.2411 0.0
H1530 H 0.29584 0.56106 0.21926 0.0
C1531 C 0.37529 0.55283 0.26327 0.0
H1532 H 0.36188 0.60686 0.20678 0.0
C1533 C 0.33785 0.52646 0.26998 0.0
C1534 C 0.30926 0.5306 0.25547 0.0
H1535 H 0.39702 0.55234 0.27814 0.0
H1536 H 0.33143 0.50539 0.28888 0.0
C1537 C 0.31799 0.55796 0.23089 0.0
C1538 C 0.36928 0.75294 0.23052 0.0
C1539 C 0.38049 0.79045 0.23818 0.0
H1540 H 0.38122 0.70792 0.23666 0.0
C1541 C 0.41554 0.81323 0.25334 0.0
H1542 H 0.3419 0.7346 0.21962 0.0
C1543 C 0.43785 0.79825 0.26299 0.0
C1544 C 0.42483 0.75982 0.25865 0.0
H1545 H 0.4237 0.84146 0.26122 0.0
H1546 H 0.4639 0.8161 0.27608 0.0
C1547 C 0.39119 0.7375 0.24113 0.0
C1548 C 0.23933 0.05601 0.99439 0.0
C1549 C 0.223 0.04857 0.96297 0.0
H1550 H 0.25213 0.08941 0.03793 0.0
C1551 C 0.21465 0.07479 0.9485 0.0
H1552 H 0.24515 0.03578 1.00634 0.0
C1553 C 0.21663 0.10439 0.96716 0.0
C1554 C 0.22865 0.1091 1.00002 0.0
H1555 H 0.20121 0.06919 0.92455 0.0
H1556 H 0.2056 0.12137 0.95688 0.0
C1557 C 0.24282 0.08654 0.01259 0.0
C1558 C 0.86415 0.1113 0.96921 0.0
C1559 C 0.86469 0.11267 1.00367 0.0
H1560 H 0.89344 0.13787 0.92451 0.0
C1561 C 0.89076 0.14635 0.01928 0.0
H1562 H 0.84308 0.08625 0.95676 0.0
C1563 C 0.91909 0.17602 1.00113 0.0
C1564 C 0.92185 0.17272 0.96695 0.0
H1565 H 0.89159 0.14839 0.04589 0.0
H1566 H 0.94114 0.19987 0.0143 0.0
C1567 C 0.89241 0.14128 0.95084 0.0
C1568 C 0.82833 0.72764 0.01778 0.0
C1569 C 0.86406 0.74099 1.00344 0.0
H1570 H 0.77285 0.71991 0.01223 0.0
C1571 C 0.86807 0.7483 0.96948 0.0
H1572 H 0.82425 0.72167 0.04392 0.0
C1573 C 0.83795 0.74604 0.95096 0.0
C1574 C 0.80384 0.73766 0.96644 0.0
H1575 H 0.8951 0.75793 0.95775 0.0
H1576 H 0.84282 0.75484 0.92543 0.0
C1577 C 0.79871 0.72642 0.99959 0.0
C1578 C 0.11054 0.22894 0.54976 0.0
C1579 C 0.11285 0.2354 0.5157 0.0
H1580 H 0.08008 0.22369 0.59428 0.0
C1581 C 0.09048 0.2489 0.50152 0.0
H1582 H 0.12817 0.21946 0.56137 0.0
C1583 C 0.06279 0.25084 0.52005 0.0
C1584 C 0.05739 0.24015 0.55334 0.0
H1585 H 0.09173 0.25437 0.47531 0.0
H1586 H 0.04327 0.2573 0.50758 0.0
C1587 C 0.08338 0.23192 0.56861 0.0
C1588 C 0.72882 0.8055 0.51661 0.0
C1589 C 0.73371 0.80829 0.55096 0.0
H1590 H 0.73033 0.83362 0.47169 0.0
C1591 C 0.73566 0.83977 0.56689 0.0
H1592 H 0.72708 0.78166 0.50354 0.0
C1593 C 0.73801 0.86999 0.54837 0.0
C1594 C 0.73803 0.86893 0.51389 0.0
H1595 H 0.73926 0.84284 0.59332 0.0
H1596 H 0.74162 0.89489 0.56078 0.0
C1597 C 0.7309 0.83543 0.49831 0.0
C1598 C 0.11219 0.89984 0.57319 0.0
C1599 C 0.14785 0.92504 0.55996 0.0
H1600 H 0.05651 0.85397 0.56332 0.0
C1601 C 0.15773 0.9174 0.52915 0.0
H1602 H 0.10367 0.90578 0.59662 0.0
C1603 C 0.13107 0.88713 0.51046 0.0
C1604 C 0.09372 0.86513 0.52181 0.0
H1605 H 0.18471 0.93697 0.51819 0.0
H1606 H 0.13856 0.88385 0.48562 0.0
C1607 C 0.08505 0.87044 0.55402 0.0
C1608 C 0.74309 0.89982 0.07206 0.0
C1609 C 0.7434 0.932 0.05893 0.0
H1610 H 0.7503 0.85202 0.0625 0.0
C1611 C 0.74702 0.9376 0.0247 0.0
H1612 H 0.7401 0.89436 0.09829 0.0
C1613 C 0.75285 0.91345 1.00456 0.0
C1614 C 0.75542 0.88314 0.01798 0.0
H1615 H 0.74715 0.96169 0.01351 0.0
H1616 H 0.75667 0.9193 0.97839 0.0
C1617 C 0.74948 0.87583 0.05177 0.0
C1618 C 0.09494 0.85553 0.05526 0.0
C1619 C 0.09011 0.84979 0.02127 0.0
H1620 H 0.0748 0.83245 0.10313 0.0
C1621 C 0.06381 0.81387 1.00935 0.0
H1622 H 0.11552 0.88282 0.06494 0.0
C1623 C 0.03985 0.78529 0.03093 0.0
C1624 C 0.04208 0.7919 0.06498 0.0
H1625 H 0.05988 0.80866 0.98311 0.0
H1626 H 0.01785 0.75896 0.02076 0.0
C1627 C 0.07169 0.82648 0.07701 0.0
C1628 C 0.11704 0.21862 0.03829 0.0
C1629 C 0.12191 0.21224 1.00518 0.0
H1630 H 0.14059 0.23048 0.08692 0.0
C1631 C 0.1573 0.21784 0.99526 0.0
H1632 H 0.09045 0.21534 0.04662 0.0
C1633 C 0.1859 0.22629 0.0182 0.0
C1634 C 0.18009 0.22955 0.05183 0.0
H1635 H 0.16243 0.21379 0.96987 0.0
H1636 H 0.21181 0.22805 1.00973 0.0
C1637 C 0.14602 0.22765 0.06131 0.0
C1638 C 0.94292 0.75225 0.50203 0.0
C1639 C 0.93185 0.74638 0.46877 0.0
H1640 H 0.93384 0.76706 0.5501 0.0
C1641 C 0.89866 0.74667 0.45989 0.0
H1642 H 0.96794 0.75183 0.5101 0.0
C1643 C 0.87928 0.75621 0.48297 0.0
C1644 C 0.89214 0.76472 0.51562 0.0
H1645 H 0.88889 0.74181 0.43463 0.0
H1646 H 0.85494 0.75799 0.47503 0.0
C1647 C 0.92333 0.76119 0.52507 0.0
C1648 C 0.21773 0.18459 0.492 0.0
C1649 C 0.2292 0.18383 0.45956 0.0
H1650 H 0.20059 0.15641 0.53829 0.0
C1651 C 0.23479 0.15381 0.45017 0.0
H1652 H 0.21331 0.20715 0.50038 0.0
C1653 C 0.22694 0.12424 0.47216 0.0
C1654 C 0.21345 0.12434 0.5038 0.0
H1655 H 0.24378 0.15242 0.42542 0.0
H1656 H 0.23045 0.10097 0.46421 0.0
C1657 C 0.20993 0.15518 0.51373 0.0
C1658 C 0.86508 0.10369 0.46748 0.0
C1659 C 0.86716 0.09283 0.49982 0.0
H1660 H 0.83297 0.08934 0.42263 0.0
C1661 C 0.83664 0.0596 0.51247 0.0
H1662 H 0.8878 0.12971 0.45749 0.0
C1663 C 0.80525 0.0368 0.49296 0.0
C1664 C 0.80336 0.04662 0.4601 0.0
H1665 H 0.83712 0.05105 0.53762 0.0
H1666 H 0.78296 0.01087 0.5035 0.0
C1667 C 0.83341 0.08082 0.4478 0.0
C1668 C 0.90451 0.41964 0.34113 0.0
C1669 C 0.88839 0.44118 0.33035 0.0
H1670 H 0.90851 0.37002 0.33307 0.0
C1671 C 0.87354 0.43552 0.29838 0.0
H1672 H 0.91607 0.42323 0.36572 0.0
C1673 C 0.87108 0.40614 0.27903 0.0
C1674 C 0.88207 0.38114 0.29186 0.0
H1675 H 0.86097 0.45168 0.28942 0.0
H1676 H 0.8557 0.39982 0.256 0.0
C1677 C 0.90073 0.38939 0.32226 0.0
C1678 C 0.53166 0.45402 0.30511 0.0
C1679 C 0.53348 0.45351 0.33954 0.0
H1680 H 0.56028 0.48187 0.26056 0.0
C1681 C 0.5614 0.4856 0.35583 0.0
H1682 H 0.50916 0.43036 0.29223 0.0
C1683 C 0.58997 0.51541 0.33804 0.0
C1684 C 0.59131 0.51374 0.30355 0.0
H1685 H 0.56317 0.48617 0.38247 0.0
H1686 H 0.61312 0.53796 0.35149 0.0
C1687 C 0.56038 0.48401 0.28712 0.0
C1688 C 0.49469 0.07042 0.35459 0.0
C1689 C 0.52978 0.08053 0.34035 0.0
H1690 H 0.44044 0.06534 0.34794 0.0
C1691 C 0.53358 0.08487 0.30606 0.0
H1692 H 0.49078 0.06669 0.38098 0.0
C1693 C 0.50401 0.08287 0.28682 0.0
C1694 C 0.47079 0.07787 0.30182 0.0
H1695 H 0.56009 0.09188 0.29445 0.0
H1696 H 0.50873 0.08907 0.26078 0.0
C1697 C 0.46568 0.06947 0.33561 0.0
C1698 C 0.73095 0.54498 0.90376 0.0
C1699 C 0.70624 0.5562 0.89068 0.0
H1700 H 0.77659 0.53481 0.89393 0.0
C1701 C 0.71481 0.57474 0.86017 0.0
H1702 H 0.72437 0.52966 0.92686 0.0
C1703 C 0.74526 0.57845 0.84159 0.0
C1704 C 0.7667 0.56236 0.85272 0.0
H1705 H 0.69567 0.5827 0.84918 0.0
H1706 H 0.74917 0.59004 0.81697 0.0
C1707 C 0.76055 0.5474 0.8847 0.0
C1708 C 0.41502 0.20306 0.8827 0.0
C1709 C 0.41378 0.19987 0.84831 0.0
H1710 H 0.41796 0.17875 0.92879 0.0
C1711 C 0.40773 0.16599 0.83423 0.0
H1712 H 0.41869 0.22854 0.89409 0.0
C1713 C 0.40768 0.13784 0.85379 0.0
C1714 C 0.41315 0.14263 0.88798 0.0
H1715 H 0.40632 0.16257 0.80774 0.0
H1716 H 0.40656 0.11371 0.84179 0.0
C1717 C 0.41412 0.17433 0.90249 0.0
C1718 C 0.8526 0.26342 0.85243 0.0
C1719 C 0.8476 0.26771 0.88602 0.0
H1720 H 0.82685 0.23427 0.80777 0.0
C1721 C 0.8155 0.2389 0.90197 0.0
H1722 H 0.87689 0.28517 0.83942 0.0
C1723 C 0.78626 0.21005 0.8836 0.0
C1724 C 0.78906 0.20931 0.84924 0.0
H1725 H 0.81071 0.24131 0.92784 0.0
H1726 H 0.76046 0.19002 0.89592 0.0
C1727 C 0.82366 0.23439 0.83423 0.0
C1728 C 0.41086 0.27534 0.35898 0.0
C1729 C 0.41056 0.27101 0.3933 0.0
H1730 H 0.41776 0.25649 0.3119 0.0
C1731 C 0.41304 0.24013 0.40602 0.0
H1732 H 0.40879 0.29843 0.34815 0.0
C1733 C 0.41932 0.21656 0.38509 0.0
C1734 C 0.42193 0.22263 0.35103 0.0
H1735 H 0.4126 0.23559 0.43232 0.0
H1736 H 0.42275 0.19409 0.39551 0.0
C1737 C 0.41626 0.25136 0.33818 0.0
C1738 C 0.73411 0.15459 0.40668 0.0
C1739 C 0.69676 0.12763 0.39795 0.0
H1740 H 0.78508 0.20532 0.39258 0.0
C1741 C 0.68315 0.13057 0.367 0.0
H1742 H 0.74546 0.15304 0.43036 0.0
C1743 C 0.70528 0.16067 0.34624 0.0
C1744 C 0.7418 0.18842 0.35536 0.0
H1745 H 0.65474 0.1105 0.35917 0.0
H1746 H 0.69339 0.16215 0.32307 0.0
C1747 C 0.75664 0.18464 0.38534 0.0
C1748 C 0.81794 0.56645 0.39106 0.0
C1749 C 0.85025 0.56476 0.3817 0.0
H1750 H 0.76341 0.55755 0.37685 0.0
C1751 C 0.8539 0.55762 0.34846 0.0
H1752 H 0.81421 0.57226 0.41632 0.0
C1753 C 0.82498 0.54954 0.32591 0.0
C1754 C 0.79137 0.54812 0.33587 0.0
H1755 H 0.87836 0.55642 0.34005 0.0
H1756 H 0.82837 0.54271 0.30088 0.0
C1757 C 0.78862 0.55775 0.3685 0.0
C1758 C 0.57842 0.09166 0.78802 0.0
C1759 C 0.61032 0.08988 0.79897 0.0
H1760 H 0.53312 0.10172 0.80097 0.0
C1761 C 0.61752 0.09223 0.83295 0.0
H1762 H 0.57169 0.0897 0.76205 0.0
C1763 C 0.59523 0.09871 0.85499 0.0
C1764 C 0.56528 0.10344 0.8438 0.0
H1765 H 0.64151 0.09081 0.8425 0.0
H1766 H 0.60257 0.10167 0.88088 0.0
C1767 C 0.5565 0.099 0.81017 0.0
C1768 C 0.8997 0.53648 0.83563 0.0
C1769 C 0.90059 0.52948 0.80187 0.0
H1770 H 0.89086 0.51459 0.88461 0.0
C1771 C 0.89947 0.49578 0.79257 0.0
H1772 H 0.90092 0.56221 0.84385 0.0
C1773 C 0.89276 0.4679 0.81601 0.0
C1774 C 0.88806 0.47351 0.84937 0.0
H1775 H 0.90052 0.48944 0.76687 0.0
H1776 H 0.88933 0.44124 0.80774 0.0
C1777 C 0.89364 0.50892 0.85906 0.0
C1778 C 0.4877 0.37383 0.83912 0.0
C1779 C 0.51343 0.41095 0.8297 0.0
H1780 H 0.439 0.32156 0.82701 0.0
C1781 C 0.50751 0.42485 0.80005 0.0
H1782 H 0.49084 0.36265 0.8621 0.0
C1783 C 0.47745 0.40095 0.77931 0.0
C1784 C 0.45249 0.36313 0.78836 0.0
H1785 H 0.52656 0.45369 0.79259 0.0
H1786 H 0.47427 0.41169 0.75586 0.0
C1787 C 0.45749 0.3503 0.81899 0.0
C1788 C 0.57371 0.75282 0.68611 0.0
C1789 C 0.55949 0.77506 0.67298 0.0
H1790 H 0.58172 0.70549 0.67891 0.0
C1791 C 0.55059 0.77189 0.63934 0.0
H1792 H 0.58089 0.7546 0.71197 0.0
C1793 C 0.55241 0.74447 0.61999 0.0
C1794 C 0.56186 0.71892 0.63433 0.0
H1795 H 0.54013 0.78911 0.62853 0.0
H1796 H 0.54255 0.74071 0.59479 0.0
C1797 C 0.57442 0.72475 0.66712 0.0
C1798 C 0.20543 0.76311 0.63551 0.0
C1799 C 0.1966 0.76894 0.66752 0.0
H1800 H 0.24183 0.78746 0.59385 0.0
C1801 C 0.21409 0.80601 0.67989 0.0
H1802 H 0.19239 0.73491 0.62537 0.0
C1803 C 0.24314 0.83577 0.66235 0.0
C1804 C 0.25422 0.82932 0.63157 0.0
H1805 H 0.20808 0.81148 0.70457 0.0
H1806 H 0.259 0.8631 0.67401 0.0
C1807 C 0.23351 0.79326 0.61741 0.0
C1808 C 0.168 0.41087 0.62313 0.0
C1809 C 0.13519 0.40657 0.6384 0.0
H1810 H 0.22362 0.41842 0.63029 0.0
C1811 C 0.13073 0.39914 0.6724 0.0
H1812 H 0.17236 0.4166 0.597 0.0
C1813 C 0.15993 0.40017 0.69119 0.0
C1814 C 0.19451 0.40919 0.67651 0.0
H1815 H 0.10589 0.39573 0.68497 0.0
H1816 H 0.15662 0.39726 0.71767 0.0
C1817 C 0.1976 0.41257 0.64215 0.0
C1818 C 0.38737 0.91969 0.18994 0.0
C1819 C 0.38242 0.90946 0.22339 0.0
H1820 H 0.41701 0.92399 0.14534 0.0
C1821 C 0.41002 0.90395 0.23908 0.0
H1822 H 0.36652 0.92389 0.17711 0.0
C1823 C 0.43864 0.90324 0.2206 0.0
C1824 C 0.44038 0.90858 0.18643 0.0
H1825 H 0.40699 0.89582 0.26477 0.0
H1826 H 0.45793 0.89614 0.23252 0.0
C1827 C 0.41622 0.9195 0.17169 0.0
C1828 C 0.08577 0.51677 0.24033 0.0
C1829 C 0.0741 0.48151 0.2257 0.0
H1830 H 0.09991 0.57439 0.23253 0.0
C1831 C 0.05946 0.47517 0.19361 0.0
H1832 H 0.09739 0.52244 0.26497 0.0
C1833 C 0.06004 0.50452 0.17542 0.0
C1834 C 0.07642 0.54115 0.18858 0.0
H1835 H 0.05075 0.44848 0.18156 0.0
H1836 H 0.05117 0.49934 0.1499 0.0
C1837 C 0.08763 0.54659 0.22171 0.0
C1838 C 0.47579 0.56573 0.17311 0.0
C1839 C 0.44121 0.54002 0.18776 0.0
H1840 H 0.52957 0.61556 0.17935 0.0
C1841 C 0.43803 0.53996 0.22211 0.0
H1842 H 0.47916 0.56632 0.14663 0.0
C1843 C 0.46742 0.56792 0.24112 0.0
C1844 C 0.50005 0.59675 0.22582 0.0
H1845 H 0.41206 0.51956 0.23393 0.0
H1846 H 0.46292 0.56911 0.26723 0.0
C1847 C 0.50479 0.59392 0.1919 0.0
C1848 C 0.07783 0.54407 0.71348 0.0
C1849 C 0.07603 0.55024 0.67972 0.0
H1850 H 0.07543 0.56167 0.76249 0.0
C1851 C 0.06452 0.57594 0.6698 0.0
H1852 H 0.08583 0.52393 0.72192 0.0
C1853 C 0.05941 0.5982 0.69289 0.0
C1854 C 0.0651 0.59491 0.72653 0.0
H1855 H 0.06228 0.5811 0.64396 0.0
H1856 H 0.05389 0.61999 0.68415 0.0
C1857 C 0.0716 0.56565 0.73671 0.0
C1858 C 0.42721 0.52897 0.72145 0.0
C1859 C 0.42114 0.52402 0.68745 0.0
H1860 H 0.4091 0.50466 0.76937 0.0
C1861 C 0.39359 0.4885 0.67554 0.0
H1862 H 0.44875 0.55579 0.73119 0.0
C1863 C 0.37045 0.4595 0.69714 0.0
C1864 C 0.37456 0.46502 0.73132 0.0
H1865 H 0.38848 0.48371 0.64935 0.0
H1866 H 0.34799 0.43344 0.687 0.0
C1867 C 0.40465 0.49944 0.74319 0.0
C1868 C 0.45361 0.89826 0.72032 0.0
C1869 C 0.44881 0.8811 0.68952 0.0
H1870 H 0.4869 0.91713 0.76448 0.0
C1871 C 0.47566 0.87186 0.67863 0.0
H1872 H 0.43357 0.90624 0.72892 0.0
C1873 C 0.50635 0.87866 0.69835 0.0
C1874 C 0.51083 0.89463 0.72979 0.0
H1875 H 0.47287 0.85908 0.65481 0.0
H1876 H 0.52581 0.87015 0.68926 0.0
C1877 C 0.48434 0.90486 0.74037 0.0
C1878 C 0.20814 0.42009 0.14087 0.0
C1879 C 0.213 0.41842 0.17481 0.0
H1880 H 0.22827 0.4185 0.09274 0.0
C1881 C 0.24 0.40936 0.18623 0.0
H1882 H 0.18713 0.42642 0.13149 0.0
C1883 C 0.26429 0.40586 0.16429 0.0
C1884 C 0.26167 0.41064 0.13036 0.0
H1885 H 0.24422 0.40766 0.21238 0.0
H1886 H 0.28669 0.40189 0.17411 0.0
C1887 C 0.23165 0.41528 0.11878 0.0
C1888 C 0.56086 0.83082 0.19121 0.0
C1889 C 0.55183 0.79455 0.18052 0.0
H1890 H 0.57093 0.88565 0.17783 0.0
C1891 C 0.55256 0.78831 0.1467 0.0
H1892 H 0.56091 0.83678 0.21718 0.0
C1893 C 0.55957 0.81703 0.12399 0.0
C1894 C 0.56448 0.85203 0.13465 0.0
H1895 H 0.5465 0.76095 0.1378 0.0
H1896 H 0.55811 0.81063 0.09801 0.0
C1897 C 0.56683 0.85907 0.16861 0.0
C1898 C 0.15706 0.74662 0.12305 0.0
C1899 C 0.12145 0.71659 0.13261 0.0
H1900 H 0.21264 0.78858 0.13862 0.0
C1901 C 0.1123 0.71201 0.16623 0.0
H1902 H 0.16502 0.75154 0.09734 0.0
C1903 C 0.1394 0.73383 0.18978 0.0
C1904 C 0.17651 0.76041 0.18033 0.0
H1905 H 0.08509 0.68959 0.17453 0.0
H1906 H 0.13194 0.72769 0.21552 0.0
C1907 C 0.18457 0.76781 0.14669 0.0
loop_
_geom_bond_atom_site_label_1
_geom_bond_atom_site_label_2
_geom_bond_distance
_geom_bond_site_symmetry_2
_ccdc_geom_bond_type
O0 Zn1 1.953 . S
O0 C16 1.225 . S
Zn1 O0 1.953 . S
Zn1 O2 1.949 . S
Zn1 O8 1.919 . S
Zn1 O13 1.924 . S
O2 Zn1 1.949 . S
O2 Zn3 1.923 . S
O2 Zn4 1.950 . S
O2 Zn5 1.945 . S
Zn3 O2 1.923 . S
Zn3 O6 1.933 . S
Zn3 O9 1.941 . S
Zn3 O10 1.965 . S
Zn4 O2 1.950 . S
Zn4 O11 1.938 . S
Zn4 O12 1.906 . S
Zn4 O22 1.953 . S
Zn5 O2 1.945 . S
Zn5 O7 1.932 . S
Zn5 O14 1.977 . S
Zn5 O15 1.910 . S
O6 Zn3 1.933 . S
O6 C17 1.226 . S
O7 Zn5 1.932 . S
O7 C17 1.307 . S
O8 Zn1 1.919 . S
O8 C19 1.253 . S
O9 Zn3 1.941 . S
O9 C19 1.283 . S
O10 Zn3 1.965 . S
O10 C18 1.303 . S
O11 Zn4 1.938 . S
O11 C18 1.247 . S
O12 Zn4 1.906 . S
O12 C20 1.304 . S
O13 Zn1 1.924 . S
O13 C21 1.311 . S
O14 Zn5 1.977 . S
O14 C20 1.272 . S
O15 Zn5 1.910 . S
O15 C21 1.231 . S
C16 O0 1.225 . S
C16 O22 1.298 . S
C17 O6 1.226 . S
C17 O7 1.307 . S
C18 O10 1.303 . S
C18 O11 1.247 . S
C19 O8 1.253 . S
C19 O9 1.283 . S
C20 O12 1.304 . S
C20 O14 1.272 . S
C21 O13 1.311 . S
C21 O15 1.231 . S
O22 Zn4 1.953 . S
O22 C16 1.298 . S
O23 Zn24 1.953 . S
O23 C39 1.225 . S
Zn24 O23 1.953 . S
Zn24 O25 1.949 . S
Zn24 O31 1.919 . S
Zn24 O36 1.924 . S
O25 Zn24 1.949 . S
O25 Zn26 1.923 . S
O25 Zn27 1.950 . S
O25 Zn28 1.945 . S
Zn26 O25 1.923 . S
Zn26 O29 1.933 . S
Zn26 O32 1.941 . S
Zn26 O33 1.965 . S
Zn27 O25 1.950 . S
Zn27 O34 1.938 1_545 S
Zn27 O35 1.906 1_545 S
Zn27 O45 1.953 1_545 S
Zn28 O25 1.945 . S
Zn28 O30 1.932 . S
Zn28 O37 1.977 . S
Zn28 O38 1.910 . S
O29 Zn26 1.933 . S
O29 C40 1.226 . S
O30 Zn28 1.932 . S
O30 C40 1.307 . S
O31 Zn24 1.919 . S
O31 C42 1.253 . S
O32 Zn26 1.941 . S
O32 C42 1.283 . S
O33 Zn26 1.965 . S
O33 C41 1.303 1_545 S
O34 Zn27 1.938 1_565 S
O34 C41 1.247 . S
O35 Zn27 1.906 1_565 S
O35 C43 1.304 1_565 S
O36 Zn24 1.924 . S
O36 C44 1.311 . S
O37 Zn28 1.977 . S
O37 C43 1.272 . S
O38 Zn28 1.910 . S
O38 C44 1.231 . S
C39 O23 1.225 . S
C39 O45 1.298 1_545 S
C40 O29 1.226 . S
C40 O30 1.307 . S
C41 O33 1.303 1_565 S
C41 O34 1.247 . S
C42 O31 1.253 . S
C42 O32 1.283 . S
C43 O35 1.304 1_545 S
C43 O37 1.272 . S
C44 O36 1.311 . S
C44 O38 1.231 . S
O45 Zn27 1.953 1_565 S
O45 C39 1.298 1_565 S
O46 Zn47 1.953 . S
O46 C62 1.225 . S
Zn47 O46 1.953 . S
Zn47 O48 1.949 . S
Zn47 O54 1.919 . S
Zn47 O59 1.924 . S
O48 Zn47 1.949 . S
O48 Zn49 1.923 . S
O48 Zn50 1.950 . S
O48 Zn51 1.945 . S
Zn49 O48 1.923 . S
Zn49 O52 1.933 . S
Zn49 O55 1.941 . S
Zn49 O56 1.965 . S
Zn50 O48 1.950 . S
Zn50 O57 1.938 1_655 S
Zn50 O58 1.906 1_655 S
Zn50 O68 1.953 1_655 S
Zn51 O48 1.945 . S
Zn51 O53 1.932 . S
Zn51 O60 1.977 . S
Zn51 O61 1.910 . S
O52 Zn49 1.933 . S
O52 C63 1.226 . S
O53 Zn51 1.932 . S
O53 C63 1.307 . S
O54 Zn47 1.919 . S
O54 C65 1.253 . S
O55 Zn49 1.941 . S
O55 C65 1.283 . S
O56 Zn49 1.965 . S
O56 C64 1.303 1_655 S
O57 Zn50 1.938 1_455 S
O57 C64 1.247 . S
O58 Zn50 1.906 1_455 S
O58 C66 1.304 1_455 S
O59 Zn47 1.924 . S
O59 C67 1.311 . S
O60 Zn51 1.977 . S
O60 C66 1.272 . S
O61 Zn51 1.910 . S
O61 C67 1.231 . S
C62 O46 1.225 . S
C62 O68 1.298 1_655 S
C63 O52 1.226 . S
C63 O53 1.307 . S
C64 O56 1.303 1_455 S
C64 O57 1.247 . S
C65 O54 1.253 . S
C65 O55 1.283 . S
C66 O58 1.304 1_655 S
C66 O60 1.272 . S
C67 O59 1.311 . S
C67 O61 1.231 . S
O68 Zn50 1.953 1_455 S
O68 C62 1.298 1_455 S
O69 Zn70 1.953 . S
O69 C85 1.225 . S
Zn70 O69 1.953 . S
Zn70 O71 1.949 . S
Zn70 O77 1.919 . S
Zn70 O82 1.924 . S
O71 Zn70 1.949 . S
O71 Zn72 1.923 . S
O71 Zn73 1.950 . S
O71 Zn74 1.945 . S
Zn72 O71 1.923 . S
Zn72 O75 1.933 . S
Zn72 O78 1.941 . S
Zn72 O79 1.965 . S
Zn73 O71 1.950 . S
Zn73 O80 1.938 . S
Zn73 O81 1.906 . S
Zn73 O91 1.953 . S
Zn74 O71 1.945 . S
Zn74 O76 1.932 . S
Zn74 O83 1.977 . S
Zn74 O84 1.910 . S
O75 Zn72 1.933 . S
O75 C86 1.226 . S
O76 Zn74 1.932 . S
O76 C86 1.307 . S
O77 Zn70 1.919 . S
O77 C88 1.253 . S
O78 Zn72 1.941 . S
O78 C88 1.283 . S
O79 Zn72 1.965 . S
O79 C87 1.303 . S
O80 Zn73 1.938 . S
O80 C87 1.247 . S
O81 Zn73 1.906 . S
O81 C89 1.304 . S
O82 Zn70 1.924 . S
O82 C90 1.311 . S
O83 Zn74 1.977 . S
O83 C89 1.272 . S
O84 Zn74 1.910 . S
O84 C90 1.231 . S
C85 O69 1.225 . S
C85 O91 1.298 . S
C86 O75 1.226 . S
C86 O76 1.307 . S
C87 O79 1.303 . S
C87 O80 1.247 . S
C88 O77 1.253 . S
C88 O78 1.283 . S
C89 O81 1.304 . S
C89 O83 1.272 . S
C90 O82 1.311 . S
C90 O84 1.231 . S
O91 Zn73 1.953 . S
O91 C85 1.298 . S
O92 Zn93 1.953 . S
O92 C108 1.225 . S
Zn93 O92 1.953 . S
Zn93 O94 1.949 . S
Zn93 O100 1.919 . S
Zn93 O105 1.924 . S
O94 Zn93 1.949 . S
O94 Zn95 1.923 . S
O94 Zn96 1.950 . S
O94 Zn97 1.945 . S
Zn95 O94 1.923 . S
Zn95 O98 1.933 . S
Zn95 O101 1.941 . S
Zn95 O102 1.965 . S
Zn96 O94 1.950 . S
Zn96 O103 1.938 1_565 S
Zn96 O104 1.906 1_565 S
Zn96 O114 1.953 1_565 S
Zn97 O94 1.945 . S
Zn97 O99 1.932 . S
Zn97 O106 1.977 . S
Zn97 O107 1.910 . S
O98 Zn95 1.933 . S
O98 C109 1.226 . S
O99 Zn97 1.932 . S
O99 C109 1.307 . S
O100 Zn93 1.919 . S
O100 C111 1.253 . S
O101 Zn95 1.941 . S
O101 C111 1.283 . S
O102 Zn95 1.965 . S
O102 C110 1.303 1_565 S
O103 Zn96 1.938 1_545 S
O103 C110 1.247 . S
O104 Zn96 1.906 1_545 S
O104 C112 1.304 1_545 S
O105 Zn93 1.924 . S
O105 C113 1.311 . S
O106 Zn97 1.977 . S
O106 C112 1.272 . S
O107 Zn97 1.910 . S
O107 C113 1.231 . S
C108 O92 1.225 . S
C108 O114 1.298 1_565 S
C109 O98 1.226 . S
C109 O99 1.307 . S
C110 O102 1.303 1_545 S
C110 O103 1.247 . S
C111 O100 1.253 . S
C111 O101 1.283 . S
C112 O104 1.304 1_565 S
C112 O106 1.272 . S
C113 O105 1.311 . S
C113 O107 1.231 . S
O114 Zn96 1.953 1_545 S
O114 C108 1.298 1_545 S
O115 Zn116 1.953 . S
O115 C131 1.225 . S
Zn116 O115 1.953 . S
Zn116 O117 1.949 . S
Zn116 O123 1.919 . S
Zn116 O128 1.924 . S
O117 Zn116 1.949 . S
O117 Zn118 1.923 . S
O117 Zn119 1.950 . S
O117 Zn120 1.945 . S
Zn118 O117 1.923 . S
Zn118 O121 1.933 . S
Zn118 O124 1.941 . S
Zn118 O125 1.965 . S
Zn119 O117 1.950 . S
Zn119 O126 1.938 1_455 S
Zn119 O127 1.906 1_455 S
Zn119 O137 1.953 1_455 S
Zn120 O117 1.945 . S
Zn120 O122 1.932 . S
Zn120 O129 1.977 . S
Zn120 O130 1.910 . S
O121 Zn118 1.933 . S
O121 C132 1.226 . S
O122 Zn120 1.932 . S
O122 C132 1.307 . S
O123 Zn116 1.919 . S
O123 C134 1.253 . S
O124 Zn118 1.941 . S
O124 C134 1.283 . S
O125 Zn118 1.965 . S
O125 C133 1.303 1_455 S
O126 Zn119 1.938 1_655 S
O126 C133 1.247 . S
O127 Zn119 1.906 1_655 S
O127 C135 1.304 1_655 S
O128 Zn116 1.924 . S
O128 C136 1.311 . S
O129 Zn120 1.977 . S
O129 C135 1.272 . S
O130 Zn120 1.910 . S
O130 C136 1.231 . S
C131 O115 1.225 . S
C131 O137 1.298 1_455 S
C132 O121 1.226 . S
C132 O122 1.307 . S
C133 O125 1.303 1_655 S
C133 O126 1.247 . S
C134 O123 1.253 . S
C134 O124 1.283 . S
C135 O127 1.304 1_455 S
C135 O129 1.272 . S
C136 O128 1.311 . S
C136 O130 1.231 . S
O137 Zn119 1.953 1_655 S
O137 C131 1.298 1_655 S
O138 Zn139 1.953 . S
O138 C154 1.225 . S
Zn139 O138 1.953 . S
Zn139 O140 1.949 . S
Zn139 O146 1.919 . S
Zn139 O151 1.924 . S
O140 Zn139 1.949 . S
O140 Zn141 1.923 . S
O140 Zn142 1.950 . S
O140 Zn143 1.945 . S
Zn141 O140 1.923 . S
Zn141 O144 1.933 . S
Zn141 O147 1.941 . S
Zn141 O148 1.965 . S
Zn142 O140 1.950 . S
Zn142 O149 1.938 . S
Zn142 O150 1.906 . S
Zn142 O160 1.953 . S
Zn143 O140 1.945 . S
Zn143 O145 1.932 . S
Zn143 O152 1.977 . S
Zn143 O153 1.910 . S
O144 Zn141 1.933 . S
O144 C155 1.226 . S
O145 Zn143 1.932 . S
O145 C155 1.307 . S
O146 Zn139 1.919 . S
O146 C157 1.253 . S
O147 Zn141 1.941 . S
O147 C157 1.283 . S
O148 Zn141 1.965 . S
O148 C156 1.303 . S
O149 Zn142 1.938 . S
O149 C156 1.247 . S
O150 Zn142 1.906 . S
O150 C158 1.304 . S
O151 Zn139 1.924 . S
O151 C159 1.311 . S
O152 Zn143 1.977 . S
O152 C158 1.272 . S
O153 Zn143 1.910 . S
O153 C159 1.231 . S
C154 O138 1.225 . S
C154 O160 1.298 . S
C155 O144 1.226 . S
C155 O145 1.307 . S
C156 O148 1.303 . S
C156 O149 1.247 . S
C157 O146 1.253 . S
C157 O147 1.283 . S
C158 O150 1.304 . S
C158 O152 1.272 . S
C159 O151 1.311 . S
C159 O153 1.231 . S
O160 Zn142 1.953 . S
O160 C154 1.298 . S
O161 Zn162 1.953 . S
O161 C177 1.225 . S
Zn162 O161 1.953 . S
Zn162 O163 1.949 . S
Zn162 O169 1.919 . S
Zn162 O174 1.924 . S
O163 Zn162 1.949 . S
O163 Zn164 1.923 . S
O163 Zn165 1.950 . S
O163 Zn166 1.945 . S
Zn164 O163 1.923 . S
Zn164 O167 1.933 . S
Zn164 O170 1.941 1_565 S
Zn164 O171 1.965 1_565 S
Zn165 O163 1.950 . S
Zn165 O172 1.927 1_565 S
Zn165 O173 1.906 . S
Zn165 O183 1.953 . S
Zn166 O163 1.945 . S
Zn166 O168 1.932 . S
Zn166 O175 1.977 . S
Zn166 O176 1.910 . S
O167 Zn164 1.933 . S
O167 C178 1.226 . S
O168 Zn166 1.932 . S
O168 C178 1.307 . S
O169 Zn162 1.919 . S
O169 C180 1.252 1_565 S
O170 Zn164 1.941 1_545 S
O170 C180 1.284 . S
O171 Zn164 1.965 1_545 S
O171 C179 1.303 . S
O172 Zn165 1.927 1_545 S
O172 C179 1.253 . S
O173 Zn165 1.906 . S
O173 C181 1.304 . S
O174 Zn162 1.924 . S
O174 C182 1.311 . S
O175 Zn166 1.977 . S
O175 C181 1.272 . S
O176 Zn166 1.910 . S
O176 C182 1.231 . S
C177 O161 1.225 . S
C177 O183 1.298 . S
C178 O167 1.226 . S
C178 O168 1.307 . S
C179 O171 1.303 . S
C179 O172 1.253 . S
C180 O169 1.252 1_545 S
C180 O170 1.284 . S
C181 O173 1.304 . S
C181 O175 1.272 . S
C182 O174 1.311 . S
C182 O176 1.231 . S
O183 Zn165 1.953 . S
O183 C177 1.298 . S
O184 Zn185 1.953 . S
O184 C200 1.225 . S
Zn185 O184 1.953 . S
Zn185 O186 1.949 . S
Zn185 O192 1.919 . S
Zn185 O197 1.924 . S
O186 Zn185 1.949 . S
O186 Zn187 1.923 . S
O186 Zn188 1.950 . S
O186 Zn189 1.945 . S
Zn187 O186 1.923 . S
Zn187 O190 1.933 . S
Zn187 O193 1.941 1_455 S
Zn187 O194 1.965 1_455 S
Zn188 O186 1.950 . S
Zn188 O195 1.933 1_455 S
Zn188 O196 1.906 . S
Zn188 O206 1.953 . S
Zn189 O186 1.945 . S
Zn189 O191 1.932 . S
Zn189 O198 1.977 . S
Zn189 O199 1.910 . S
O190 Zn187 1.933 . S
O190 C201 1.226 . S
O191 Zn189 1.932 . S
O191 C201 1.307 . S
O192 Zn185 1.919 . S
O192 C203 1.253 1_455 S
O193 Zn187 1.941 1_655 S
O193 C203 1.282 . S
O194 Zn187 1.965 1_655 S
O194 C202 1.303 . S
O195 Zn188 1.933 1_655 S
O195 C202 1.252 . S
O196 Zn188 1.906 . S
O196 C204 1.304 . S
O197 Zn185 1.924 . S
O197 C205 1.311 . S
O198 Zn189 1.977 . S
O198 C204 1.272 . S
O199 Zn189 1.910 . S
O199 C205 1.231 . S
C200 O184 1.225 . S
C200 O206 1.298 . S
C201 O190 1.226 . S
C201 O191 1.307 . S
C202 O194 1.303 . S
C202 O195 1.252 . S
C203 O192 1.253 1_655 S
C203 O193 1.282 . S
C204 O196 1.304 . S
C204 O198 1.272 . S
C205 O197 1.311 . S
C205 O199 1.231 . S
O206 Zn188 1.953 . S
O206 C200 1.298 . S
O207 Zn208 1.953 . S
O207 C223 1.225 . S
Zn208 O207 1.953 . S
Zn208 O209 1.949 . S
Zn208 O215 1.919 . S
Zn208 O220 1.924 . S
O209 Zn208 1.949 . S
O209 Zn210 1.923 . S
O209 Zn211 1.950 . S
O209 Zn212 1.945 . S
Zn210 O209 1.923 . S
Zn210 O213 1.933 . S
Zn210 O216 1.941 . S
Zn210 O217 1.965 . S
Zn211 O209 1.950 . S
Zn211 O218 1.938 . S
Zn211 O219 1.906 . S
Zn211 O229 1.953 . S
Zn212 O209 1.945 . S
Zn212 O214 1.932 . S
Zn212 O221 1.977 . S
Zn212 O222 1.910 . S
O213 Zn210 1.933 . S
O213 C224 1.226 . S
O214 Zn212 1.932 . S
O214 C224 1.307 . S
O215 Zn208 1.919 . S
O215 C226 1.253 . S
O216 Zn210 1.941 . S
O216 C226 1.283 . S
O217 Zn210 1.965 . S
O217 C225 1.303 . S
O218 Zn211 1.938 . S
O218 C225 1.247 . S
O219 Zn211 1.906 . S
O219 C227 1.304 . S
O220 Zn208 1.924 . S
O220 C228 1.311 . S
O221 Zn212 1.977 . S
O221 C227 1.272 . S
O222 Zn212 1.910 . S
O222 C228 1.231 . S
C223 O207 1.225 . S
C223 O229 1.298 . S
C224 O213 1.226 . S
C224 O214 1.307 . S
C225 O217 1.303 . S
C225 O218 1.247 . S
C226 O215 1.253 . S
C226 O216 1.283 . S
C227 O219 1.304 . S
C227 O221 1.272 . S
C228 O220 1.311 . S
C228 O222 1.231 . S
O229 Zn211 1.953 . S
O229 C223 1.298 . S
O230 Zn231 1.953 . S
O230 C246 1.225 . S
Zn231 O230 1.953 . S
Zn231 O232 1.949 . S
Zn231 O238 1.919 . S
Zn231 O243 1.924 . S
O232 Zn231 1.949 . S
O232 Zn233 1.923 . S
O232 Zn234 1.950 . S
O232 Zn235 1.945 . S
Zn233 O232 1.923 . S
Zn233 O236 1.933 . S
Zn233 O239 1.941 1_545 S
Zn233 O240 1.965 1_545 S
Zn234 O232 1.950 . S
Zn234 O241 1.933 1_545 S
Zn234 O242 1.906 . S
Zn234 O252 1.953 . S
Zn235 O232 1.945 . S
Zn235 O237 1.932 . S
Zn235 O244 1.977 . S
Zn235 O245 1.910 . S
O236 Zn233 1.933 . S
O236 C247 1.226 . S
O237 Zn235 1.932 . S
O237 C247 1.307 . S
O238 Zn231 1.919 . S
O238 C249 1.253 1_545 S
O239 Zn233 1.941 1_565 S
O239 C249 1.282 . S
O240 Zn233 1.965 1_565 S
O240 C248 1.303 . S
O241 Zn234 1.933 1_565 S
O241 C248 1.252 . S
O242 Zn234 1.906 . S
O242 C250 1.304 . S
O243 Zn231 1.924 . S
O243 C251 1.311 . S
O244 Zn235 1.977 . S
O244 C250 1.272 . S
O245 Zn235 1.910 . S
O245 C251 1.231 . S
C246 O230 1.225 . S
C246 O252 1.298 . S
C247 O236 1.226 . S
C247 O237 1.307 . S
C248 O240 1.303 . S
C248 O241 1.252 . S
C249 O238 1.253 1_565 S
C249 O239 1.282 . S
C250 O242 1.304 . S
C250 O244 1.272 . S
C251 O243 1.311 . S
C251 O245 1.231 . S
O252 Zn234 1.953 . S
O252 C246 1.298 . S
O253 Zn254 1.953 . S
O253 C269 1.225 . S
Zn254 O253 1.953 . S
Zn254 O255 1.949 . S
Zn254 O261 1.919 . S
Zn254 O266 1.924 . S
O255 Zn254 1.949 . S
O255 Zn256 1.923 . S
O255 Zn257 1.950 . S
O255 Zn258 1.945 . S
Zn256 O255 1.923 . S
Zn256 O259 1.933 . S
Zn256 O262 1.941 1_655 S
Zn256 O263 1.965 1_655 S
Zn257 O255 1.950 . S
Zn257 O264 1.927 1_655 S
Zn257 O265 1.906 . S
Zn257 O275 1.953 . S
Zn258 O255 1.945 . S
Zn258 O260 1.932 . S
Zn258 O267 1.977 . S
Zn258 O268 1.910 . S
O259 Zn256 1.933 . S
O259 C270 1.226 . S
O260 Zn258 1.932 . S
O260 C270 1.307 . S
O261 Zn254 1.919 . S
O261 C272 1.252 1_655 S
O262 Zn256 1.941 1_455 S
O262 C272 1.284 . S
O263 Zn256 1.965 1_455 S
O263 C271 1.303 . S
O264 Zn257 1.927 1_455 S
O264 C271 1.253 . S
O265 Zn257 1.906 . S
O265 C273 1.304 . S
O266 Zn254 1.924 . S
O266 C274 1.311 . S
O267 Zn258 1.977 . S
O267 C273 1.272 . S
O268 Zn258 1.910 . S
O268 C274 1.231 . S
C269 O253 1.225 . S
C269 O275 1.298 . S
C270 O259 1.226 . S
C270 O260 1.307 . S
C271 O263 1.303 . S
C271 O264 1.253 . S
C272 O261 1.252 1_455 S
C272 O262 1.284 . S
C273 O265 1.304 . S
C273 O267 1.272 . S
C274 O266 1.311 . S
C274 O268 1.231 . S
O275 Zn257 1.953 . S
O275 C269 1.298 . S
O276 Zn277 1.953 . S
O276 C292 1.225 . S
Zn277 O276 1.953 . S
Zn277 O278 1.949 . S
Zn277 O284 1.919 . S
Zn277 O289 1.924 . S
O278 Zn277 1.949 . S
O278 Zn279 1.923 . S
O278 Zn280 1.950 . S
O278 Zn281 1.945 . S
Zn279 O278 1.923 . S
Zn279 O282 1.933 . S
Zn279 O285 1.941 . S
Zn279 O286 1.965 . S
Zn280 O278 1.950 . S
Zn280 O287 1.938 . S
Zn280 O288 1.906 . S
Zn280 O298 1.953 . S
Zn281 O278 1.945 . S
Zn281 O283 1.932 . S
Zn281 O290 1.977 . S
Zn281 O291 1.910 . S
O282 Zn279 1.933 . S
O282 C293 1.226 . S
O283 Zn281 1.932 . S
O283 C293 1.307 . S
O284 Zn277 1.919 . S
O284 C295 1.253 . S
O285 Zn279 1.941 . S
O285 C295 1.283 . S
O286 Zn279 1.965 . S
O286 C294 1.303 . S
O287 Zn280 1.938 . S
O287 C294 1.247 . S
O288 Zn280 1.906 . S
O288 C296 1.304 . S
O289 Zn277 1.924 . S
O289 C297 1.311 . S
O290 Zn281 1.977 . S
O290 C296 1.272 . S
O291 Zn281 1.910 . S
O291 C297 1.231 . S
C292 O276 1.225 . S
C292 O298 1.298 . S
C293 O282 1.226 . S
C293 O283 1.307 . S
C294 O286 1.303 . S
C294 O287 1.247 . S
C295 O284 1.253 . S
C295 O285 1.283 . S
C296 O288 1.304 . S
C296 O290 1.272 . S
C297 O289 1.311 . S
C297 O291 1.231 . S
O298 Zn280 1.953 . S
O298 C292 1.298 . S
O299 Zn300 1.953 . S
O299 C315 1.225 . S
Zn300 O299 1.953 . S
Zn300 O301 1.949 . S
Zn300 O307 1.919 . S
Zn300 O312 1.924 . S
O301 Zn300 1.949 . S
O301 Zn302 1.923 . S
O301 Zn303 1.950 . S
O301 Zn304 1.945 . S
Zn302 O301 1.923 . S
Zn302 O305 1.933 . S
Zn302 O308 1.941 . S
Zn302 O309 1.965 . S
Zn303 O301 1.950 . S
Zn303 O310 1.938 . S
Zn303 O311 1.906 . S
Zn303 O321 1.953 . S
Zn304 O301 1.945 . S
Zn304 O306 1.932 . S
Zn304 O313 1.977 . S
Zn304 O314 1.910 . S
O305 Zn302 1.933 . S
O305 C316 1.226 . S
O306 Zn304 1.932 . S
O306 C316 1.307 . S
O307 Zn300 1.919 . S
O307 C318 1.253 . S
O308 Zn302 1.941 . S
O308 C318 1.283 . S
O309 Zn302 1.965 . S
O309 C317 1.303 . S
O310 Zn303 1.938 . S
O310 C317 1.247 . S
O311 Zn303 1.906 . S
O311 C319 1.304 . S
O312 Zn300 1.924 . S
O312 C320 1.311 . S
O313 Zn304 1.977 . S
O313 C319 1.272 . S
O314 Zn304 1.910 . S
O314 C320 1.231 . S
C315 O299 1.225 . S
C315 O321 1.298 . S
C316 O305 1.226 . S
C316 O306 1.307 . S
C317 O309 1.303 . S
C317 O310 1.247 . S
C318 O307 1.253 . S
C318 O308 1.283 . S
C319 O311 1.304 . S
C319 O313 1.272 . S
C320 O312 1.311 . S
C320 O314 1.231 . S
O321 Zn303 1.953 . S
O321 C315 1.298 . S
O322 Zn323 1.953 . S
O322 C338 1.225 . S
Zn323 O322 1.953 . S
Zn323 O324 1.949 . S
Zn323 O330 1.919 . S
Zn323 O335 1.924 . S
O324 Zn323 1.949 . S
O324 Zn325 1.923 . S
O324 Zn326 1.950 . S
O324 Zn327 1.945 . S
Zn325 O324 1.923 . S
Zn325 O328 1.933 . S
Zn325 O331 1.941 . S
Zn325 O332 1.965 . S
Zn326 O324 1.950 . S
Zn326 O333 1.938 . S
Zn326 O334 1.906 . S
Zn326 O344 1.953 . S
Zn327 O324 1.945 . S
Zn327 O329 1.932 . S
Zn327 O336 1.977 . S
Zn327 O337 1.910 . S
O328 Zn325 1.933 . S
O328 C339 1.226 . S
O329 Zn327 1.932 . S
O329 C339 1.307 . S
O330 Zn323 1.919 . S
O330 C341 1.253 . S
O331 Zn325 1.941 . S
O331 C341 1.283 . S
O332 Zn325 1.965 . S
O332 C340 1.303 . S
O333 Zn326 1.938 . S
O333 C340 1.247 . S
O334 Zn326 1.906 . S
O334 C342 1.304 . S
O335 Zn323 1.924 . S
O335 C343 1.311 . S
O336 Zn327 1.977 . S
O336 C342 1.272 . S
O337 Zn327 1.910 . S
O337 C343 1.231 . S
C338 O322 1.225 . S
C338 O344 1.298 . S
C339 O328 1.226 . S
C339 O329 1.307 . S
C340 O332 1.303 . S
C340 O333 1.247 . S
C341 O330 1.253 . S
C341 O331 1.283 . S
C342 O334 1.304 . S
C342 O336 1.272 . S
C343 O335 1.311 . S
C343 O337 1.231 . S
O344 Zn326 1.953 . S
O344 C338 1.298 . S
O345 Zn346 1.953 . S
O345 C361 1.225 . S
Zn346 O345 1.953 . S
Zn346 O347 1.949 . S
Zn346 O353 1.919 . S
Zn346 O358 1.924 . S
O347 Zn346 1.949 . S
O347 Zn348 1.923 . S
O347 Zn349 1.950 . S
O347 Zn350 1.945 . S
Zn348 O347 1.923 . S
Zn348 O351 1.933 . S
Zn348 O354 1.941 . S
Zn348 O355 1.965 . S
Zn349 O347 1.950 . S
Zn349 O356 1.938 . S
Zn349 O357 1.906 . S
Zn349 O367 1.953 . S
Zn350 O347 1.945 . S
Zn350 O352 1.932 . S
Zn350 O359 1.977 . S
Zn350 O360 1.910 . S
O351 Zn348 1.933 . S
O351 C362 1.226 . S
O352 Zn350 1.932 . S
O352 C362 1.307 . S
O353 Zn346 1.919 . S
O353 C364 1.253 . S
O354 Zn348 1.941 . S
O354 C364 1.283 . S
O355 Zn348 1.965 . S
O355 C363 1.303 . S
O356 Zn349 1.938 . S
O356 C363 1.247 . S
O357 Zn349 1.906 . S
O357 C365 1.304 . S
O358 Zn346 1.924 . S
O358 C366 1.311 . S
O359 Zn350 1.977 . S
O359 C365 1.272 . S
O360 Zn350 1.910 . S
O360 C366 1.231 . S
C361 O345 1.225 . S
C361 O367 1.298 . S
C362 O351 1.226 . S
C362 O352 1.307 . S
C363 O355 1.303 . S
C363 O356 1.247 . S
C364 O353 1.253 . S
C364 O354 1.283 . S
C365 O357 1.304 . S
C365 O359 1.272 . S
C366 O358 1.311 . S
C366 O360 1.231 . S
O367 Zn349 1.953 . S
O367 C361 1.298 . S
O368 Zn369 1.953 . S
O368 C384 1.225 . S
Zn369 O368 1.953 . S
Zn369 O370 1.949 . S
Zn369 O376 1.919 . S
Zn369 O381 1.924 . S
O370 Zn369 1.949 . S
O370 Zn371 1.923 . S
O370 Zn372 1.950 . S
O370 Zn373 1.945 . S
Zn371 O370 1.923 . S
Zn371 O374 1.933 . S
Zn371 O377 1.941 . S
Zn371 O378 1.965 . S
Zn372 O370 1.950 . S
Zn372 O379 1.938 . S
Zn372 O380 1.906 . S
Zn372 O390 1.953 . S
Zn373 O370 1.945 . S
Zn373 O375 1.932 . S
Zn373 O382 1.977 . S
Zn373 O383 1.910 . S
O374 Zn371 1.933 . S
O374 C385 1.226 . S
O375 Zn373 1.932 . S
O375 C385 1.307 . S
O376 Zn369 1.919 . S
O376 C387 1.253 . S
O377 Zn371 1.941 . S
O377 C387 1.283 . S
O378 Zn371 1.965 . S
O378 C386 1.303 . S
O379 Zn372 1.938 . S
O379 C386 1.247 . S
O380 Zn372 1.906 . S
O380 C388 1.304 . S
O381 Zn369 1.924 . S
O381 C389 1.311 . S
O382 Zn373 1.977 . S
O382 C388 1.272 . S
O383 Zn373 1.910 . S
O383 C389 1.231 . S
C384 O368 1.225 . S
C384 O390 1.298 . S
C385 O374 1.226 . S
C385 O375 1.307 . S
C386 O378 1.303 . S
C386 O379 1.247 . S
C387 O376 1.253 . S
C387 O377 1.283 . S
C388 O380 1.304 . S
C388 O382 1.272 . S
C389 O381 1.311 . S
C389 O383 1.231 . S
O390 Zn372 1.953 . S
O390 C384 1.298 . S
O391 Zn392 1.953 . S
O391 C407 1.225 . S
Zn392 O391 1.953 . S
Zn392 O393 1.949 . S
Zn392 O399 1.919 . S
Zn392 O404 1.924 . S
O393 Zn392 1.949 . S
O393 Zn394 1.923 . S
O393 Zn395 1.950 . S
O393 Zn396 1.945 . S
Zn394 O393 1.923 . S
Zn394 O397 1.933 . S
Zn394 O400 1.941 . S
Zn394 O401 1.965 . S
Zn395 O393 1.950 . S
Zn395 O402 1.938 . S
Zn395 O403 1.906 . S
Zn395 O413 1.953 . S
Zn396 O393 1.945 . S
Zn396 O398 1.932 . S
Zn396 O405 1.977 . S
Zn396 O406 1.910 . S
O397 Zn394 1.933 . S
O397 C408 1.226 . S
O398 Zn396 1.932 . S
O398 C408 1.307 . S
O399 Zn392 1.919 . S
O399 C410 1.253 . S
O400 Zn394 1.941 . S
O400 C410 1.283 . S
O401 Zn394 1.965 . S
O401 C409 1.303 . S
O402 Zn395 1.938 . S
O402 C409 1.247 . S
O403 Zn395 1.906 . S
O403 C411 1.304 . S
O404 Zn392 1.924 . S
O404 C412 1.311 . S
O405 Zn396 1.977 . S
O405 C411 1.272 . S
O406 Zn396 1.910 . S
O406 C412 1.231 . S
C407 O391 1.225 . S
C407 O413 1.298 . S
C408 O397 1.226 . S
C408 O398 1.307 . S
C409 O401 1.303 . S
C409 O402 1.247 . S
C410 O399 1.253 . S
C410 O400 1.283 . S
C411 O403 1.304 . S
C411 O405 1.272 . S
C412 O404 1.311 . S
C412 O406 1.231 . S
O413 Zn395 1.953 . S
O413 C407 1.298 . S
O414 Zn415 1.953 . S
O414 C430 1.225 . S
Zn415 O414 1.953 . S
Zn415 O416 1.949 . S
Zn415 O422 1.919 . S
Zn415 O427 1.924 . S
O416 Zn415 1.949 . S
O416 Zn417 1.923 . S
O416 Zn418 1.950 . S
O416 Zn419 1.945 . S
Zn417 O416 1.923 . S
Zn417 O420 1.933 . S
Zn417 O423 1.941 . S
Zn417 O424 1.965 . S
Zn418 O416 1.950 . S
Zn418 O425 1.938 . S
Zn418 O426 1.906 . S
Zn418 O436 1.953 . S
Zn419 O416 1.945 . S
Zn419 O421 1.932 . S
Zn419 O428 1.977 . S
Zn419 O429 1.910 . S
O420 Zn417 1.933 . S
O420 C431 1.226 . S
O421 Zn419 1.932 . S
O421 C431 1.307 . S
O422 Zn415 1.919 . S
O422 C433 1.253 . S
O423 Zn417 1.941 . S
O423 C433 1.283 . S
O424 Zn417 1.965 . S
O424 C432 1.303 . S
O425 Zn418 1.938 . S
O425 C432 1.247 . S
O426 Zn418 1.906 . S
O426 C434 1.304 . S
O427 Zn415 1.924 . S
O427 C435 1.311 . S
O428 Zn419 1.977 . S
O428 C434 1.272 . S
O429 Zn419 1.910 . S
O429 C435 1.231 . S
C430 O414 1.225 . S
C430 O436 1.298 . S
C431 O420 1.226 . S
C431 O421 1.307 . S
C432 O424 1.303 . S
C432 O425 1.247 . S
C433 O422 1.253 . S
C433 O423 1.283 . S
C434 O426 1.304 . S
C434 O428 1.272 . S
C435 O427 1.311 . S
C435 O429 1.231 . S
O436 Zn418 1.953 . S
O436 C430 1.298 . S
O437 Zn438 1.953 . S
O437 C453 1.225 . S
Zn438 O437 1.953 . S
Zn438 O439 1.949 . S
Zn438 O445 1.919 . S
Zn438 O450 1.924 . S
O439 Zn438 1.949 . S
O439 Zn440 1.923 . S
O439 Zn441 1.950 . S
O439 Zn442 1.945 . S
Zn440 O439 1.923 . S
Zn440 O443 1.933 . S
Zn440 O446 1.941 . S
Zn440 O447 1.965 . S
Zn441 O439 1.950 . S
Zn441 O448 1.938 . S
Zn441 O449 1.906 . S
Zn441 O459 1.953 . S
Zn442 O439 1.945 . S
Zn442 O444 1.932 . S
Zn442 O451 1.977 . S
Zn442 O452 1.910 . S
O443 Zn440 1.933 . S
O443 C454 1.226 . S
O444 Zn442 1.932 . S
O444 C454 1.307 . S
O445 Zn438 1.919 . S
O445 C456 1.253 . S
O446 Zn440 1.941 . S
O446 C456 1.283 . S
O447 Zn440 1.965 . S
O447 C455 1.303 . S
O448 Zn441 1.938 . S
O448 C455 1.247 . S
O449 Zn441 1.906 . S
O449 C457 1.304 . S
O450 Zn438 1.924 . S
O450 C458 1.311 . S
O451 Zn442 1.977 . S
O451 C457 1.272 . S
O452 Zn442 1.910 . S
O452 C458 1.231 . S
C453 O437 1.225 . S
C453 O459 1.298 . S
C454 O443 1.226 . S
C454 O444 1.307 . S
C455 O447 1.303 . S
C455 O448 1.247 . S
C456 O445 1.253 . S
C456 O446 1.283 . S
C457 O449 1.304 . S
C457 O451 1.272 . S
C458 O450 1.311 . S
C458 O452 1.231 . S
O459 Zn441 1.953 . S
O459 C453 1.298 . S
O460 Zn461 1.953 . S
O460 C476 1.225 . S
Zn461 O460 1.953 . S
Zn461 O462 1.949 . S
Zn461 O468 1.919 . S
Zn461 O473 1.924 . S
O462 Zn461 1.949 . S
O462 Zn463 1.923 . S
O462 Zn464 1.950 . S
O462 Zn465 1.945 . S
Zn463 O462 1.923 . S
Zn463 O466 1.933 . S
Zn463 O469 1.941 . S
Zn463 O470 1.965 . S
Zn464 O462 1.950 . S
Zn464 O471 1.938 . S
Zn464 O472 1.906 . S
Zn464 O482 1.953 . S
Zn465 O462 1.945 . S
Zn465 O467 1.932 . S
Zn465 O474 1.977 . S
Zn465 O475 1.910 . S
O466 Zn463 1.933 . S
O466 C477 1.226 . S
O467 Zn465 1.932 . S
O467 C477 1.307 . S
O468 Zn461 1.919 . S
O468 C479 1.253 . S
O469 Zn463 1.941 . S
O469 C479 1.283 . S
O470 Zn463 1.965 . S
O470 C478 1.303 . S
O471 Zn464 1.938 . S
O471 C478 1.247 . S
O472 Zn464 1.906 . S
O472 C480 1.304 . S
O473 Zn461 1.924 . S
O473 C481 1.311 . S
O474 Zn465 1.977 . S
O474 C480 1.272 . S
O475 Zn465 1.910 . S
O475 C481 1.231 . S
C476 O460 1.225 . S
C476 O482 1.298 . S
C477 O466 1.226 . S
C477 O467 1.307 . S
C478 O470 1.303 . S
C478 O471 1.247 . S
C479 O468 1.253 . S
C479 O469 1.283 . S
C480 O472 1.304 . S
C480 O474 1.272 . S
C481 O473 1.311 . S
C481 O475 1.231 . S
O482 Zn464 1.953 . S
O482 C476 1.298 . S
O483 Zn484 1.950 . S
O483 C499 1.228 1_556 S
Zn484 O483 1.950 . S
Zn484 O485 1.949 . S
Zn484 O491 1.919 . S
Zn484 O496 1.924 . S
O485 Zn484 1.949 . S
O485 Zn486 1.923 . S
O485 Zn487 1.950 . S
O485 Zn488 1.945 . S
Zn486 O485 1.923 . S
Zn486 O489 1.933 . S
Zn486 O492 1.941 . S
Zn486 O493 1.965 . S
Zn487 O485 1.950 . S
Zn487 O494 1.938 . S
Zn487 O495 1.906 . S
Zn487 O505 1.953 1_556 S
Zn488 O485 1.945 . S
Zn488 O490 1.932 . S
Zn488 O497 1.977 . S
Zn488 O498 1.910 . S
O489 Zn486 1.933 . S
O489 C500 1.226 . S
O490 Zn488 1.932 . S
O490 C500 1.307 . S
O491 Zn484 1.919 . S
O491 C502 1.253 . S
O492 Zn486 1.941 . S
O492 C502 1.283 . S
O493 Zn486 1.965 . S
O493 C501 1.303 . S
O494 Zn487 1.938 . S
O494 C501 1.247 . S
O495 Zn487 1.906 . S
O495 C503 1.304 . S
O496 Zn484 1.924 . S
O496 C504 1.311 . S
O497 Zn488 1.977 . S
O497 C503 1.272 . S
O498 Zn488 1.910 . S
O498 C504 1.231 . S
C499 O483 1.228 1_554 S
C499 O505 1.298 . S
C500 O489 1.226 . S
C500 O490 1.307 . S
C501 O493 1.303 . S
C501 O494 1.247 . S
C502 O491 1.253 . S
C502 O492 1.283 . S
C503 O495 1.304 . S
C503 O497 1.272 . S
C504 O496 1.311 . S
C504 O498 1.231 . S
O505 Zn487 1.953 1_554 S
O505 C499 1.298 . S
O506 Zn507 1.950 . S
O506 C522 1.228 1_556 S
Zn507 O506 1.950 . S
Zn507 O508 1.949 . S
Zn507 O514 1.919 . S
Zn507 O519 1.924 . S
O508 Zn507 1.949 . S
O508 Zn509 1.923 . S
O508 Zn510 1.950 . S
O508 Zn511 1.945 . S
Zn509 O508 1.923 . S
Zn509 O512 1.933 . S
Zn509 O515 1.941 . S
Zn509 O516 1.965 . S
Zn510 O508 1.950 . S
Zn510 O517 1.938 . S
Zn510 O518 1.906 . S
Zn510 O528 1.953 1_556 S
Zn511 O508 1.945 . S
Zn511 O513 1.932 . S
Zn511 O520 1.977 . S
Zn511 O521 1.910 . S
O512 Zn509 1.933 . S
O512 C523 1.226 . S
O513 Zn511 1.932 . S
O513 C523 1.307 . S
O514 Zn507 1.919 . S
O514 C525 1.253 . S
O515 Zn509 1.941 . S
O515 C525 1.283 . S
O516 Zn509 1.965 . S
O516 C524 1.303 . S
O517 Zn510 1.938 . S
O517 C524 1.247 . S
O518 Zn510 1.906 . S
O518 C526 1.304 . S
O519 Zn507 1.924 . S
O519 C527 1.311 . S
O520 Zn511 1.977 . S
O520 C526 1.272 . S
O521 Zn511 1.910 . S
O521 C527 1.231 . S
C522 O506 1.228 1_554 S
C522 O528 1.298 . S
C523 O512 1.226 . S
C523 O513 1.307 . S
C524 O516 1.303 . S
C524 O517 1.247 . S
C525 O514 1.253 . S
C525 O515 1.283 . S
C526 O518 1.304 . S
C526 O520 1.272 . S
C527 O519 1.311 . S
C527 O521 1.231 . S
O528 Zn510 1.953 1_554 S
O528 C522 1.298 . S
O529 Zn530 1.950 . S
O529 C545 1.228 1_556 S
Zn530 O529 1.950 . S
Zn530 O531 1.949 . S
Zn530 O537 1.919 . S
Zn530 O542 1.924 . S
O531 Zn530 1.949 . S
O531 Zn532 1.923 . S
O531 Zn533 1.950 . S
O531 Zn534 1.945 . S
Zn532 O531 1.923 . S
Zn532 O535 1.933 . S
Zn532 O538 1.941 . S
Zn532 O539 1.965 . S
Zn533 O531 1.950 . S
Zn533 O540 1.938 . S
Zn533 O541 1.906 . S
Zn533 O551 1.953 1_556 S
Zn534 O531 1.945 . S
Zn534 O536 1.932 . S
Zn534 O543 1.977 . S
Zn534 O544 1.910 . S
O535 Zn532 1.933 . S
O535 C546 1.226 . S
O536 Zn534 1.932 . S
O536 C546 1.307 . S
O537 Zn530 1.919 . S
O537 C548 1.253 . S
O538 Zn532 1.941 . S
O538 C548 1.283 . S
O539 Zn532 1.965 . S
O539 C547 1.303 . S
O540 Zn533 1.938 . S
O540 C547 1.247 . S
O541 Zn533 1.906 . S
O541 C549 1.304 . S
O542 Zn530 1.924 . S
O542 C550 1.311 . S
O543 Zn534 1.977 . S
O543 C549 1.272 . S
O544 Zn534 1.910 . S
O544 C550 1.231 . S
C545 O529 1.228 1_554 S
C545 O551 1.298 . S
C546 O535 1.226 . S
C546 O536 1.307 . S
C547 O539 1.303 . S
C547 O540 1.247 . S
C548 O537 1.253 . S
C548 O538 1.283 . S
C549 O541 1.304 . S
C549 O543 1.272 . S
C550 O542 1.311 . S
C550 O544 1.231 . S
O551 Zn533 1.953 1_554 S
O551 C545 1.298 . S
O552 Zn553 1.953 . S
O552 C568 1.225 . S
Zn553 O552 1.953 . S
Zn553 O554 1.949 . S
Zn553 O560 1.919 . S
Zn553 O565 1.924 . S
O554 Zn553 1.949 . S
O554 Zn555 1.923 . S
O554 Zn556 1.950 . S
O554 Zn557 1.945 . S
Zn555 O554 1.923 . S
Zn555 O558 1.933 . S
Zn555 O561 1.941 . S
Zn555 O562 1.965 . S
Zn556 O554 1.950 . S
Zn556 O563 1.938 . S
Zn556 O564 1.906 . S
Zn556 O574 1.953 . S
Zn557 O554 1.945 . S
Zn557 O559 1.932 . S
Zn557 O566 1.977 . S
Zn557 O567 1.910 . S
O558 Zn555 1.933 . S
O558 C569 1.226 . S
O559 Zn557 1.932 . S
O559 C569 1.307 . S
O560 Zn553 1.919 . S
O560 C571 1.253 . S
O561 Zn555 1.941 . S
O561 C571 1.283 . S
O562 Zn555 1.965 . S
O562 C570 1.303 . S
O563 Zn556 1.938 . S
O563 C570 1.247 . S
O564 Zn556 1.906 . S
O564 C572 1.304 . S
O565 Zn553 1.924 . S
O565 C573 1.311 . S
O566 Zn557 1.977 . S
O566 C572 1.272 . S
O567 Zn557 1.910 . S
O567 C573 1.231 . S
C568 O552 1.225 . S
C568 O574 1.298 . S
C569 O558 1.226 . S
C569 O559 1.307 . S
C570 O562 1.303 . S
C570 O563 1.247 . S
C571 O560 1.253 . S
C571 O561 1.283 . S
C572 O564 1.304 . S
C572 O566 1.272 . S
C573 O565 1.311 . S
C573 O567 1.231 . S
O574 Zn556 1.953 . S
O574 C568 1.298 . S
O575 Zn576 1.953 . S
O575 C591 1.225 . S
Zn576 O575 1.953 . S
Zn576 O577 1.949 . S
Zn576 O583 1.919 . S
Zn576 O588 1.924 . S
O577 Zn576 1.949 . S
O577 Zn578 1.923 . S
O577 Zn579 1.950 . S
O577 Zn580 1.945 . S
Zn578 O577 1.923 . S
Zn578 O581 1.933 . S
Zn578 O584 1.941 . S
Zn578 O585 1.965 . S
Zn579 O577 1.950 . S
Zn579 O586 1.938 . S
Zn579 O587 1.906 . S
Zn579 O597 1.953 . S
Zn580 O577 1.945 . S
Zn580 O582 1.932 . S
Zn580 O589 1.977 . S
Zn580 O590 1.910 . S
O581 Zn578 1.933 . S
O581 C592 1.226 . S
O582 Zn580 1.932 . S
O582 C592 1.307 . S
O583 Zn576 1.919 . S
O583 C594 1.253 . S
O584 Zn578 1.941 . S
O584 C594 1.283 . S
O585 Zn578 1.965 . S
O585 C593 1.303 . S
O586 Zn579 1.938 . S
O586 C593 1.247 . S
O587 Zn579 1.906 . S
O587 C595 1.304 . S
O588 Zn576 1.924 . S
O588 C596 1.311 . S
O589 Zn580 1.977 . S
O589 C595 1.272 . S
O590 Zn580 1.910 . S
O590 C596 1.231 . S
C591 O575 1.225 . S
C591 O597 1.298 . S
C592 O581 1.226 . S
C592 O582 1.307 . S
C593 O585 1.303 . S
C593 O586 1.247 . S
C594 O583 1.253 . S
C594 O584 1.283 . S
C595 O587 1.304 . S
C595 O589 1.272 . S
C596 O588 1.311 . S
C596 O590 1.231 . S
O597 Zn579 1.953 . S
O597 C591 1.298 . S
O598 Zn599 1.953 . S
O598 C614 1.225 . S
Zn599 O598 1.953 . S
Zn599 O600 1.949 . S
Zn599 O606 1.919 . S
Zn599 O611 1.924 . S
O600 Zn599 1.949 . S
O600 Zn601 1.923 . S
O600 Zn602 1.950 . S
O600 Zn603 1.945 . S
Zn601 O600 1.923 . S
Zn601 O604 1.933 . S
Zn601 O607 1.941 . S
Zn601 O608 1.965 . S
Zn602 O600 1.950 . S
Zn602 O609 1.938 . S
Zn602 O610 1.906 . S
Zn602 O620 1.953 . S
Zn603 O600 1.945 . S
Zn603 O605 1.932 . S
Zn603 O612 1.977 . S
Zn603 O613 1.910 . S
O604 Zn601 1.933 . S
O604 C615 1.226 . S
O605 Zn603 1.932 . S
O605 C615 1.307 . S
O606 Zn599 1.919 . S
O606 C617 1.253 . S
O607 Zn601 1.941 . S
O607 C617 1.283 . S
O608 Zn601 1.965 . S
O608 C616 1.303 . S
O609 Zn602 1.938 . S
O609 C616 1.247 . S
O610 Zn602 1.906 . S
O610 C618 1.304 . S
O611 Zn599 1.924 . S
O611 C619 1.311 . S
O612 Zn603 1.977 . S
O612 C618 1.272 . S
O613 Zn603 1.910 . S
O613 C619 1.231 . S
C614 O598 1.225 . S
C614 O620 1.298 . S
C615 O604 1.226 . S
C615 O605 1.307 . S
C616 O608 1.303 . S
C616 O609 1.247 . S
C617 O606 1.253 . S
C617 O607 1.283 . S
C618 O610 1.304 . S
C618 O612 1.272 . S
C619 O611 1.311 . S
C619 O613 1.231 . S
O620 Zn602 1.953 . S
O620 C614 1.298 . S
O621 Zn622 1.953 1_556 S
O621 C637 1.225 . S
Zn622 O621 1.953 1_554 S
Zn622 O623 1.949 . S
Zn622 O629 1.919 . S
Zn622 O634 1.924 . S
O623 Zn622 1.949 . S
O623 Zn624 1.923 . S
O623 Zn625 1.950 . S
O623 Zn626 1.945 . S
Zn624 O623 1.923 . S
Zn624 O627 1.933 . S
Zn624 O630 1.941 . S
Zn624 O631 1.965 . S
Zn625 O623 1.950 . S
Zn625 O632 1.938 . S
Zn625 O633 1.906 . S
Zn625 O643 1.953 . S
Zn626 O623 1.945 . S
Zn626 O628 1.932 . S
Zn626 O635 1.977 . S
Zn626 O636 1.910 . S
O627 Zn624 1.933 . S
O627 C638 1.226 . S
O628 Zn626 1.932 . S
O628 C638 1.307 . S
O629 Zn622 1.919 . S
O629 C640 1.253 . S
O630 Zn624 1.941 . S
O630 C640 1.283 . S
O631 Zn624 1.965 . S
O631 C639 1.303 . S
O632 Zn625 1.938 . S
O632 C639 1.247 . S
O633 Zn625 1.906 . S
O633 C641 1.304 . S
O634 Zn622 1.924 . S
O634 C642 1.311 . S
O635 Zn626 1.977 . S
O635 C641 1.272 . S
O636 Zn626 1.910 . S
O636 C642 1.231 . S
C637 O621 1.225 . S
C637 O643 1.298 1_556 S
C638 O627 1.226 . S
C638 O628 1.307 . S
C639 O631 1.303 . S
C639 O632 1.247 . S
C640 O629 1.253 . S
C640 O630 1.283 . S
C641 O633 1.304 . S
C641 O635 1.272 . S
C642 O634 1.311 . S
C642 O636 1.231 . S
O643 Zn625 1.953 . S
O643 C637 1.298 1_554 S
O644 Zn645 1.953 1_556 S
O644 C660 1.225 . S
Zn645 O644 1.953 1_554 S
Zn645 O646 1.949 . S
Zn645 O652 1.919 . S
Zn645 O657 1.924 . S
O646 Zn645 1.949 . S
O646 Zn647 1.923 . S
O646 Zn648 1.950 . S
O646 Zn649 1.945 . S
Zn647 O646 1.923 . S
Zn647 O650 1.933 . S
Zn647 O653 1.941 . S
Zn647 O654 1.965 . S
Zn648 O646 1.950 . S
Zn648 O655 1.938 . S
Zn648 O656 1.906 . S
Zn648 O666 1.953 . S
Zn649 O646 1.945 . S
Zn649 O651 1.932 . S
Zn649 O658 1.977 . S
Zn649 O659 1.910 . S
O650 Zn647 1.933 . S
O650 C661 1.226 . S
O651 Zn649 1.932 . S
O651 C661 1.307 . S
O652 Zn645 1.919 . S
O652 C663 1.253 . S
O653 Zn647 1.941 . S
O653 C663 1.283 . S
O654 Zn647 1.965 . S
O654 C662 1.303 . S
O655 Zn648 1.938 . S
O655 C662 1.247 . S
O656 Zn648 1.906 . S
O656 C664 1.304 . S
O657 Zn645 1.924 . S
O657 C665 1.311 . S
O658 Zn649 1.977 . S
O658 C664 1.272 . S
O659 Zn649 1.910 . S
O659 C665 1.231 . S
C660 O644 1.225 . S
C660 O666 1.298 1_556 S
C661 O650 1.226 . S
C661 O651 1.307 . S
C662 O654 1.303 . S
C662 O655 1.247 . S
C663 O652 1.253 . S
C663 O653 1.283 . S
C664 O656 1.304 . S
C664 O658 1.272 . S
C665 O657 1.311 . S
C665 O659 1.231 . S
O666 Zn648 1.953 . S
O666 C660 1.298 1_554 S
O667 Zn668 1.953 1_556 S
O667 C683 1.225 . S
Zn668 O667 1.953 1_554 S
Zn668 O669 1.949 . S
Zn668 O675 1.919 . S
Zn668 O680 1.924 . S
O669 Zn668 1.949 . S
O669 Zn670 1.923 . S
O669 Zn671 1.950 . S
O669 Zn672 1.945 . S
Zn670 O669 1.923 . S
Zn670 O673 1.933 . S
Zn670 O676 1.941 . S
Zn670 O677 1.965 . S
Zn671 O669 1.950 . S
Zn671 O678 1.938 . S
Zn671 O679 1.906 . S
Zn671 O689 1.953 . S
Zn672 O669 1.945 . S
Zn672 O674 1.932 . S
Zn672 O681 1.977 . S
Zn672 O682 1.910 . S
O673 Zn670 1.933 . S
O673 C684 1.226 . S
O674 Zn672 1.932 . S
O674 C684 1.307 . S
O675 Zn668 1.919 . S
O675 C686 1.253 . S
O676 Zn670 1.941 . S
O676 C686 1.283 . S
O677 Zn670 1.965 . S
O677 C685 1.303 . S
O678 Zn671 1.938 . S
O678 C685 1.247 . S
O679 Zn671 1.906 . S
O679 C687 1.304 . S
O680 Zn668 1.924 . S
O680 C688 1.311 . S
O681 Zn672 1.977 . S
O681 C687 1.272 . S
O682 Zn672 1.910 . S
O682 C688 1.231 . S
C683 O667 1.225 . S
C683 O689 1.298 1_556 S
C684 O673 1.226 . S
C684 O674 1.307 . S
C685 O677 1.303 . S
C685 O678 1.247 . S
C686 O675 1.253 . S
C686 O676 1.283 . S
C687 O679 1.304 . S
C687 O681 1.272 . S
C688 O680 1.311 . S
C688 O682 1.231 . S
O689 Zn671 1.953 . S
O689 C683 1.298 1_554 S
O690 Zn691 1.953 . S
O690 C706 1.225 . S
Zn691 O690 1.953 . S
Zn691 O692 1.949 . S
Zn691 O698 1.919 . S
Zn691 O703 1.924 . S
O692 Zn691 1.949 . S
O692 Zn693 1.923 . S
O692 Zn694 1.950 . S
O692 Zn695 1.945 . S
Zn693 O692 1.923 . S
Zn693 O696 1.933 . S
Zn693 O699 1.941 . S
Zn693 O700 1.965 . S
Zn694 O692 1.950 . S
Zn694 O701 1.938 . S
Zn694 O702 1.906 . S
Zn694 O712 1.953 . S
Zn695 O692 1.945 . S
Zn695 O697 1.932 . S
Zn695 O704 1.977 . S
Zn695 O705 1.910 . S
O696 Zn693 1.933 . S
O696 C707 1.226 . S
O697 Zn695 1.932 . S
O697 C707 1.307 . S
O698 Zn691 1.919 . S
O698 C709 1.253 . S
O699 Zn693 1.941 . S
O699 C709 1.283 . S
O700 Zn693 1.965 . S
O700 C708 1.303 . S
O701 Zn694 1.938 . S
O701 C708 1.247 . S
O702 Zn694 1.906 . S
O702 C710 1.304 . S
O703 Zn691 1.924 . S
O703 C711 1.311 . S
O704 Zn695 1.977 . S
O704 C710 1.272 . S
O705 Zn695 1.910 . S
O705 C711 1.231 . S
C706 O690 1.225 . S
C706 O712 1.298 . S
C707 O696 1.226 . S
C707 O697 1.307 . S
C708 O700 1.303 . S
C708 O701 1.247 . S
C709 O698 1.253 . S
C709 O699 1.283 . S
C710 O702 1.304 . S
C710 O704 1.272 . S
C711 O703 1.311 . S
C711 O705 1.231 . S
O712 Zn694 1.953 . S
O712 C706 1.298 . S
O713 Zn714 1.953 . S
O713 C729 1.225 . S
Zn714 O713 1.953 . S
Zn714 O715 1.949 . S
Zn714 O721 1.919 . S
Zn714 O726 1.924 . S
O715 Zn714 1.949 . S
O715 Zn716 1.923 . S
O715 Zn717 1.950 . S
O715 Zn718 1.945 . S
Zn716 O715 1.923 . S
Zn716 O719 1.933 . S
Zn716 O722 1.941 . S
Zn716 O723 1.965 . S
Zn717 O715 1.950 . S
Zn717 O724 1.938 . S
Zn717 O725 1.906 . S
Zn717 O735 1.953 . S
Zn718 O715 1.945 . S
Zn718 O720 1.932 . S
Zn718 O727 1.977 . S
Zn718 O728 1.910 . S
O719 Zn716 1.933 . S
O719 C730 1.226 . S
O720 Zn718 1.932 . S
O720 C730 1.307 . S
O721 Zn714 1.919 . S
O721 C732 1.253 . S
O722 Zn716 1.941 . S
O722 C732 1.283 . S
O723 Zn716 1.965 . S
O723 C731 1.303 . S
O724 Zn717 1.938 . S
O724 C731 1.247 . S
O725 Zn717 1.906 . S
O725 C733 1.304 . S
O726 Zn714 1.924 . S
O726 C734 1.311 . S
O727 Zn718 1.977 . S
O727 C733 1.272 . S
O728 Zn718 1.910 . S
O728 C734 1.231 . S
C729 O713 1.225 . S
C729 O735 1.298 . S
C730 O719 1.226 . S
C730 O720 1.307 . S
C731 O723 1.303 . S
C731 O724 1.247 . S
C732 O721 1.253 . S
C732 O722 1.283 . S
C733 O725 1.304 . S
C733 O727 1.272 . S
C734 O726 1.311 . S
C734 O728 1.231 . S
O735 Zn717 1.953 . S
O735 C729 1.298 . S
O736 Zn737 1.953 . S
O736 C752 1.225 . S
Zn737 O736 1.953 . S
Zn737 O738 1.949 . S
Zn737 O744 1.919 . S
Zn737 O749 1.924 . S
O738 Zn737 1.949 . S
O738 Zn739 1.923 . S
O738 Zn740 1.950 . S
O738 Zn741 1.945 . S
Zn739 O738 1.923 . S
Zn739 O742 1.933 . S
Zn739 O745 1.941 . S
Zn739 O746 1.965 . S
Zn740 O738 1.950 . S
Zn740 O747 1.938 . S
Zn740 O748 1.906 . S
Zn740 O758 1.953 . S
Zn741 O738 1.945 . S
Zn741 O743 1.932 . S
Zn741 O750 1.977 . S
Zn741 O751 1.910 . S
O742 Zn739 1.933 . S
O742 C753 1.226 . S
O743 Zn741 1.932 . S
O743 C753 1.307 . S
O744 Zn737 1.919 . S
O744 C755 1.253 . S
O745 Zn739 1.941 . S
O745 C755 1.283 . S
O746 Zn739 1.965 . S
O746 C754 1.303 . S
O747 Zn740 1.938 . S
O747 C754 1.247 . S
O748 Zn740 1.906 . S
O748 C756 1.304 . S
O749 Zn737 1.924 . S
O749 C757 1.311 . S
O750 Zn741 1.977 . S
O750 C756 1.272 . S
O751 Zn741 1.910 . S
O751 C757 1.231 . S
C752 O736 1.225 . S
C752 O758 1.298 . S
C753 O742 1.226 . S
C753 O743 1.307 . S
C754 O746 1.303 . S
C754 O747 1.247 . S
C755 O744 1.253 . S
C755 O745 1.283 . S
C756 O748 1.304 . S
C756 O750 1.272 . S
C757 O749 1.311 . S
C757 O751 1.231 . S
O758 Zn740 1.953 . S
O758 C752 1.298 . S
O759 Zn760 1.953 . S
O759 C775 1.225 . S
Zn760 O759 1.953 . S
Zn760 O761 1.949 . S
Zn760 O767 1.919 . S
Zn760 O772 1.924 . S
O761 Zn760 1.949 . S
O761 Zn762 1.923 . S
O761 Zn763 1.950 . S
O761 Zn764 1.945 . S
Zn762 O761 1.923 . S
Zn762 O765 1.933 . S
Zn762 O768 1.941 . S
Zn762 O769 1.965 . S
Zn763 O761 1.950 . S
Zn763 O770 1.938 . S
Zn763 O771 1.906 . S
Zn763 O781 1.953 . S
Zn764 O761 1.945 . S
Zn764 O766 1.932 . S
Zn764 O773 1.977 . S
Zn764 O774 1.910 . S
O765 Zn762 1.933 . S
O765 C776 1.226 . S
O766 Zn764 1.932 . S
O766 C776 1.307 . S
O767 Zn760 1.919 . S
O767 C778 1.253 . S
O768 Zn762 1.941 . S
O768 C778 1.283 . S
O769 Zn762 1.965 . S
O769 C777 1.303 . S
O770 Zn763 1.938 . S
O770 C777 1.247 . S
O771 Zn763 1.906 . S
O771 C779 1.304 . S
O772 Zn760 1.924 . S
O772 C780 1.311 . S
O773 Zn764 1.977 . S
O773 C779 1.272 . S
O774 Zn764 1.910 . S
O774 C780 1.231 . S
C775 O759 1.225 . S
C775 O781 1.298 . S
C776 O765 1.226 . S
C776 O766 1.307 . S
C777 O769 1.303 . S
C777 O770 1.247 . S
C778 O767 1.253 . S
C778 O768 1.283 . S
C779 O771 1.304 . S
C779 O773 1.272 . S
C780 O772 1.311 . S
C780 O774 1.231 . S
O781 Zn763 1.953 . S
O781 C775 1.298 . S
O782 Zn783 1.953 . S
O782 C798 1.225 . S
Zn783 O782 1.953 . S
Zn783 O784 1.949 . S
Zn783 O790 1.919 . S
Zn783 O795 1.924 . S
O784 Zn783 1.949 . S
O784 Zn785 1.923 . S
O784 Zn786 1.950 . S
O784 Zn787 1.945 . S
Zn785 O784 1.923 . S
Zn785 O788 1.933 . S
Zn785 O791 1.941 . S
Zn785 O792 1.965 . S
Zn786 O784 1.950 . S
Zn786 O793 1.938 . S
Zn786 O794 1.906 . S
Zn786 O804 1.953 . S
Zn787 O784 1.945 . S
Zn787 O789 1.932 . S
Zn787 O796 1.977 . S
Zn787 O797 1.910 . S
O788 Zn785 1.933 . S
O788 C799 1.226 . S
O789 Zn787 1.932 . S
O789 C799 1.307 . S
O790 Zn783 1.919 . S
O790 C801 1.253 . S
O791 Zn785 1.941 . S
O791 C801 1.283 . S
O792 Zn785 1.965 . S
O792 C800 1.303 . S
O793 Zn786 1.938 . S
O793 C800 1.247 . S
O794 Zn786 1.906 . S
O794 C802 1.304 . S
O795 Zn783 1.924 . S
O795 C803 1.311 . S
O796 Zn787 1.977 . S
O796 C802 1.272 . S
O797 Zn787 1.910 . S
O797 C803 1.231 . S
C798 O782 1.225 . S
C798 O804 1.298 . S
C799 O788 1.226 . S
C799 O789 1.307 . S
C800 O792 1.303 . S
C800 O793 1.247 . S
C801 O790 1.253 . S
C801 O791 1.283 . S
C802 O794 1.304 . S
C802 O796 1.272 . S
C803 O795 1.311 . S
C803 O797 1.231 . S
O804 Zn786 1.953 . S
O804 C798 1.298 . S
O805 Zn806 1.953 . S
O805 C821 1.225 . S
Zn806 O805 1.953 . S
Zn806 O807 1.949 . S
Zn806 O813 1.919 . S
Zn806 O818 1.924 . S
O807 Zn806 1.949 . S
O807 Zn808 1.923 . S
O807 Zn809 1.950 . S
O807 Zn810 1.945 . S
Zn808 O807 1.923 . S
Zn808 O811 1.933 . S
Zn808 O814 1.941 . S
Zn808 O815 1.965 . S
Zn809 O807 1.950 . S
Zn809 O816 1.938 . S
Zn809 O817 1.906 . S
Zn809 O827 1.953 . S
Zn810 O807 1.945 . S
Zn810 O812 1.932 . S
Zn810 O819 1.977 . S
Zn810 O820 1.910 . S
O811 Zn808 1.933 . S
O811 C822 1.226 . S
O812 Zn810 1.932 . S
O812 C822 1.307 . S
O813 Zn806 1.919 . S
O813 C824 1.253 . S
O814 Zn808 1.941 . S
O814 C824 1.283 . S
O815 Zn808 1.965 . S
O815 C823 1.303 . S
O816 Zn809 1.938 . S
O816 C823 1.247 . S
O817 Zn809 1.906 . S
O817 C825 1.304 . S
O818 Zn806 1.924 . S
O818 C826 1.311 . S
O819 Zn810 1.977 . S
O819 C825 1.272 . S
O820 Zn810 1.910 . S
O820 C826 1.231 . S
C821 O805 1.225 . S
C821 O827 1.298 . S
C822 O811 1.226 . S
C822 O812 1.307 . S
C823 O815 1.303 . S
C823 O816 1.247 . S
C824 O813 1.253 . S
C824 O814 1.283 . S
C825 O817 1.304 . S
C825 O819 1.272 . S
C826 O818 1.311 . S
C826 O820 1.231 . S
O827 Zn809 1.953 . S
O827 C821 1.298 . S
C828 C829 1.387 . S
C828 H832 0.950 . S
C828 C837 1.390 . S
C829 C828 1.387 . S
C829 C831 1.387 . S
H830 C837 0.950 . S
C831 C829 1.387 . S
C831 C833 1.390 . S
C831 H835 0.950 . S
H832 C828 0.950 . S
C833 C831 1.390 . S
C833 C834 1.387 . S
C833 H836 0.950 . S
C834 C833 1.387 . S
C834 C837 1.387 . S
H835 C831 0.950 . S
H836 C833 0.950 . S
C837 C828 1.390 . S
C837 H830 0.950 . S
C837 C834 1.387 . S
C838 C839 1.387 1_565 S
C838 H842 0.950 . S
C838 C847 1.390 . S
C839 C838 1.387 1_545 S
C839 C841 1.387 . S
H840 C847 0.950 . S
C841 C839 1.387 . S
C841 C843 1.390 . S
C841 H845 0.950 . S
H842 C838 0.950 . S
C843 C841 1.390 . S
C843 C844 1.387 1_545 S
C843 H846 0.950 . S
C844 C843 1.387 1_565 S
C844 C847 1.387 . S
H845 C841 0.950 . S
H846 C843 0.950 . S
C847 C838 1.390 . S
C847 H840 0.950 . S
C847 C844 1.387 . S
C848 C849 1.387 . S
C848 H852 0.950 . S
C848 C857 1.390 . S
C849 C848 1.387 . S
C849 C851 1.387 1_455 S
H850 C857 0.950 . S
C851 C849 1.387 1_655 S
C851 C853 1.390 . S
C851 H855 0.950 . S
H852 C848 0.950 . S
C853 C851 1.390 . S
C853 C854 1.387 . S
C853 H856 0.950 . S
C854 C853 1.387 . S
C854 C857 1.387 1_655 S
H855 C851 0.950 . S
H856 C853 0.950 . S
C857 C848 1.390 . S
C857 H850 0.950 . S
C857 C854 1.387 1_455 S
C858 C859 1.387 . S
C858 H862 0.950 . S
C858 C867 1.390 . S
C859 C858 1.387 . S
C859 C861 1.387 . S
H860 C867 0.950 . S
C861 C859 1.387 . S
C861 C863 1.390 . S
C861 H865 0.950 . S
H862 C858 0.950 . S
C863 C861 1.390 . S
C863 C864 1.387 . S
C863 H866 0.950 . S
C864 C863 1.387 . S
C864 C867 1.387 . S
H865 C861 0.950 . S
H866 C863 0.950 . S
C867 C858 1.390 . S
C867 H860 0.950 . S
C867 C864 1.387 . S
C868 C869 1.387 . S
C868 H872 0.950 . S
C868 C877 1.390 1_565 S
C869 C868 1.387 . S
C869 C871 1.387 . S
H870 C877 0.950 . S
C871 C869 1.387 . S
C871 C873 1.390 1_565 S
C871 H875 0.950 . S
H872 C868 0.950 . S
C873 C871 1.390 1_545 S
C873 C874 1.387 . S
C873 H876 0.950 . S
C874 C873 1.387 . S
C874 C877 1.387 . S
H875 C871 0.950 . S
H876 C873 0.950 . S
C877 C868 1.390 1_545 S
C877 H870 0.950 . S
C877 C874 1.387 . S
C878 C879 1.387 . S
C878 H882 0.950 . S
C878 C887 1.394 . S
C879 C878 1.387 . S
C879 C881 1.368 1_455 S
H880 C887 0.966 . S
C881 C879 1.368 1_655 S
C881 C883 1.394 . S
C881 H885 0.966 . S
H882 C878 0.950 . S
C883 C881 1.394 . S
C883 C884 1.387 . S
C883 H886 0.950 . S
C884 C883 1.387 . S
C884 C887 1.368 1_655 S
H885 C881 0.966 . S
H886 C883 0.950 . S
C887 C878 1.394 . S
C887 H880 0.966 . S
C887 C884 1.368 1_455 S
C888 C889 1.387 . S
C888 H892 0.950 . S
C888 C897 1.390 . S
C889 C888 1.387 . S
C889 C891 1.387 . S
H890 C897 0.950 . S
C891 C889 1.387 . S
C891 C893 1.390 . S
C891 H895 0.950 . S
H892 C888 0.950 . S
C893 C891 1.390 . S
C893 C894 1.387 . S
C893 H896 0.950 . S
C894 C893 1.387 . S
C894 C897 1.387 . S
H895 C891 0.950 . S
H896 C893 0.950 . S
C897 C888 1.390 . S
C897 H890 0.950 . S
C897 C894 1.387 . S
C898 C899 1.387 . S
C898 H902 0.950 . S
C898 C907 1.390 . S
C899 C898 1.387 . S
C899 C901 1.387 . S
H900 C907 0.950 . S
C901 C899 1.387 . S
C901 C903 1.390 . S
C901 H905 0.950 . S
H902 C898 0.950 . S
C903 C901 1.390 . S
C903 C904 1.387 . S
C903 H906 0.950 . S
C904 C903 1.387 . S
C904 C907 1.387 . S
H905 C901 0.950 . S
H906 C903 0.950 . S
C907 C898 1.390 . S
C907 H900 0.950 . S
C907 C904 1.387 . S
C908 C909 1.387 . S
C908 H912 0.950 . S
C908 C917 1.390 . S
C909 C908 1.387 . S
C909 C911 1.387 . S
H910 C917 0.950 . S
C911 C909 1.387 . S
C911 C913 1.390 . S
C911 H915 0.950 . S
H912 C908 0.950 . S
C913 C911 1.390 . S
C913 C914 1.387 . S
C913 H916 0.950 . S
C914 C913 1.387 . S
C914 C917 1.387 . S
H915 C911 0.950 . S
H916 C913 0.950 . S
C917 C908 1.390 . S
C917 H910 0.950 . S
C917 C914 1.387 . S
C918 C919 1.387 . S
C918 H922 0.950 . S
C918 C927 1.390 . S
C919 C918 1.387 . S
C919 C921 1.387 . S
H920 C927 0.950 . S
C921 C919 1.387 . S
C921 C923 1.390 . S
C921 H925 0.950 . S
H922 C918 0.950 . S
C923 C921 1.390 . S
C923 C924 1.387 . S
C923 H926 0.950 . S
C924 C923 1.387 . S
C924 C927 1.387 . S
H925 C921 0.950 . S
H926 C923 0.950 . S
C927 C918 1.390 . S
C927 H920 0.950 . S
C927 C924 1.387 . S
C928 C929 1.387 . S
C928 H932 0.950 . S
C928 C937 1.390 . S
C929 C928 1.387 . S
C929 C931 1.387 . S
H930 C937 0.950 . S
C931 C929 1.387 . S
C931 C933 1.390 . S
C931 H935 0.950 . S
H932 C928 0.950 . S
C933 C931 1.390 . S
C933 C934 1.387 . S
C933 H936 0.950 . S
C934 C933 1.387 . S
C934 C937 1.387 . S
H935 C931 0.950 . S
H936 C933 0.950 . S
C937 C928 1.390 . S
C937 H930 0.950 . S
C937 C934 1.387 . S
C938 C939 1.387 . S
C938 H942 0.950 . S
C938 C947 1.390 . S
C939 C938 1.387 . S
C939 C941 1.387 . S
H940 C947 0.950 . S
C941 C939 1.387 . S
C941 C943 1.390 . S
C941 H945 0.950 . S
H942 C938 0.950 . S
C943 C941 1.390 . S
C943 C944 1.387 . S
C943 H946 0.950 . S
C944 C943 1.387 . S
C944 C947 1.387 . S
H945 C941 0.950 . S
H946 C943 0.950 . S
C947 C938 1.390 . S
C947 H940 0.950 . S
C947 C944 1.387 . S
C948 C949 1.387 . S
C948 H952 0.950 . S
C948 C957 1.390 . S
C949 C948 1.387 . S
C949 C951 1.387 . S
H950 C957 0.950 . S
C951 C949 1.387 . S
C951 C953 1.390 . S
C951 H955 0.950 . S
H952 C948 0.950 . S
C953 C951 1.390 . S
C953 C954 1.387 . S
C953 H956 0.950 . S
C954 C953 1.387 . S
C954 C957 1.387 . S
H955 C951 0.950 . S
H956 C953 0.950 . S
C957 C948 1.390 . S
C957 H950 0.950 . S
C957 C954 1.387 . S
C958 C959 1.387 . S
C958 H962 0.950 . S
C958 C967 1.390 . S
C959 C958 1.387 . S
C959 C961 1.387 . S
H960 C967 0.950 . S
C961 C959 1.387 . S
C961 C963 1.390 . S
C961 H965 0.950 . S
H962 C958 0.950 . S
C963 C961 1.390 . S
C963 C964 1.387 . S
C963 H966 0.950 . S
C964 C963 1.387 . S
C964 C967 1.387 . S
H965 C961 0.950 . S
H966 C963 0.950 . S
C967 C958 1.390 . S
C967 H960 0.950 . S
C967 C964 1.387 . S
C968 C969 1.387 . S
C968 H972 0.950 . S
C968 C977 1.390 . S
C969 C968 1.387 . S
C969 C971 1.387 . S
H970 C977 0.950 . S
C971 C969 1.387 . S
C971 C973 1.390 . S
C971 H975 0.950 . S
H972 C968 0.950 . S
C973 C971 1.390 . S
C973 C974 1.387 . S
C973 H976 0.950 . S
C974 C973 1.387 . S
C974 C977 1.387 . S
H975 C971 0.950 . S
H976 C973 0.950 . S
C977 C968 1.390 . S
C977 H970 0.950 . S
C977 C974 1.387 . S
C978 C979 1.387 . S
C978 H982 0.950 . S
C978 C987 1.390 . S
C979 C978 1.387 . S
C979 C981 1.387 . S
H980 C987 0.950 . S
C981 C979 1.387 . S
C981 C983 1.390 . S
C981 H985 0.950 . S
H982 C978 0.950 . S
C983 C981 1.390 . S
C983 C984 1.387 . S
C983 H986 0.950 . S
C984 C983 1.387 . S
C984 C987 1.387 . S
H985 C981 0.950 . S
H986 C983 0.950 . S
C987 C978 1.390 . S
C987 H980 0.950 . S
C987 C984 1.387 . S
C988 C989 1.387 . S
C988 H992 0.950 . S
C988 C997 1.390 . S
C989 C988 1.387 . S
C989 C991 1.387 . S
H990 C997 0.950 . S
C991 C989 1.387 . S
C991 C993 1.390 . S
C991 H995 0.950 . S
H992 C988 0.950 . S
C993 C991 1.390 . S
C993 C994 1.387 . S
C993 H996 0.950 . S
C994 C993 1.387 . S
C994 C997 1.387 . S
H995 C991 0.950 . S
H996 C993 0.950 . S
C997 C988 1.390 . S
C997 H990 0.950 . S
C997 C994 1.387 . S
C998 C999 1.387 . S
C998 H1002 0.950 . S
C998 C1007 1.390 . S
C999 C998 1.387 . S
C999 C1001 1.387 . S
H1000 C1007 0.950 . S
C1001 C999 1.387 . S
C1001 C1003 1.390 . S
C1001 H1005 0.950 . S
H1002 C998 0.950 . S
C1003 C1001 1.390 . S
C1003 C1004 1.387 . S
C1003 H1006 0.950 . S
C1004 C1003 1.387 . S
C1004 C1007 1.387 . S
H1005 C1001 0.950 . S
H1006 C1003 0.950 . S
C1007 C998 1.390 . S
C1007 H1000 0.950 . S
C1007 C1004 1.387 . S
C1008 C1009 1.387 . S
C1008 H1012 0.950 . S
C1008 C1017 1.390 . S
C1009 C1008 1.387 . S
C1009 C1011 1.387 . S
H1010 C1017 0.950 . S
C1011 C1009 1.387 . S
C1011 C1013 1.390 . S
C1011 H1015 0.950 . S
H1012 C1008 0.950 . S
C1013 C1011 1.390 . S
C1013 C1014 1.387 . S
C1013 H1016 0.950 . S
C1014 C1013 1.387 . S
C1014 C1017 1.387 . S
H1015 C1011 0.950 . S
H1016 C1013 0.950 . S
C1017 C1008 1.390 . S
C1017 H1010 0.950 . S
C1017 C1014 1.387 . S
C1018 C1019 1.387 . S
C1018 H1022 0.950 . S
C1018 C1027 1.390 . S
C1019 C1018 1.387 . S
C1019 C1021 1.387 . S
H1020 C1027 0.950 . S
C1021 C1019 1.387 . S
C1021 C1023 1.390 . S
C1021 H1025 0.950 . S
H1022 C1018 0.950 . S
C1023 C1021 1.390 . S
C1023 C1024 1.387 . S
C1023 H1026 0.950 . S
C1024 C1023 1.387 . S
C1024 C1027 1.387 . S
H1025 C1021 0.950 . S
H1026 C1023 0.950 . S
C1027 C1018 1.390 . S
C1027 H1020 0.950 . S
C1027 C1024 1.387 . S
C1028 C1029 1.387 . S
C1028 H1032 0.950 . S
C1028 C1037 1.390 . S
C1029 C1028 1.387 . S
C1029 C1031 1.387 . S
H1030 C1037 0.950 . S
C1031 C1029 1.387 . S
C1031 C1033 1.390 . S
C1031 H1035 0.950 . S
H1032 C1028 0.950 . S
C1033 C1031 1.390 . S
C1033 C1034 1.387 . S
C1033 H1036 0.950 . S
C1034 C1033 1.387 . S
C1034 C1037 1.387 . S
H1035 C1031 0.950 . S
H1036 C1033 0.950 . S
C1037 C1028 1.390 . S
C1037 H1030 0.950 . S
C1037 C1034 1.387 . S
C1038 C1039 1.387 . S
C1038 H1042 0.950 . S
C1038 C1047 1.390 . S
C1039 C1038 1.387 . S
C1039 C1041 1.387 . S
H1040 C1047 0.950 . S
C1041 C1039 1.387 . S
C1041 C1043 1.390 . S
C1041 H1045 0.950 . S
H1042 C1038 0.950 . S
C1043 C1041 1.390 . S
C1043 C1044 1.387 . S
C1043 H1046 0.950 . S
C1044 C1043 1.387 . S
C1044 C1047 1.387 . S
H1045 C1041 0.950 . S
H1046 C1043 0.950 . S
C1047 C1038 1.390 . S
C1047 H1040 0.950 . S
C1047 C1044 1.387 . S
C1048 C1049 1.387 . S
C1048 H1052 0.950 . S
C1048 C1057 1.390 . S
C1049 C1048 1.387 . S
C1049 C1051 1.387 . S
H1050 C1057 0.950 . S
C1051 C1049 1.387 . S
C1051 C1053 1.390 . S
C1051 H1055 0.950 . S
H1052 C1048 0.950 . S
C1053 C1051 1.390 . S
C1053 C1054 1.387 . S
C1053 H1056 0.950 . S
C1054 C1053 1.387 . S
C1054 C1057 1.387 . S
H1055 C1051 0.950 . S
H1056 C1053 0.950 . S
C1057 C1048 1.390 . S
C1057 H1050 0.950 . S
C1057 C1054 1.387 . S
C1058 C1059 1.387 . S
C1058 H1062 0.950 . S
C1058 C1067 1.390 . S
C1059 C1058 1.387 . S
C1059 C1061 1.387 . S
H1060 C1067 0.950 . S
C1061 C1059 1.387 . S
C1061 C1063 1.390 . S
C1061 H1065 0.950 . S
H1062 C1058 0.950 . S
C1063 C1061 1.390 . S
C1063 C1064 1.387 . S
C1063 H1066 0.950 . S
C1064 C1063 1.387 . S
C1064 C1067 1.387 . S
H1065 C1061 0.950 . S
H1066 C1063 0.950 . S
C1067 C1058 1.390 . S
C1067 H1060 0.950 . S
C1067 C1064 1.387 . S
C1068 C1069 1.387 . S
C1068 H1072 0.950 . S
C1068 C1077 1.390 . S
C1069 C1068 1.387 . S
C1069 C1071 1.387 . S
H1070 C1077 0.950 . S
C1071 C1069 1.387 . S
C1071 C1073 1.390 . S
C1071 H1075 0.950 . S
H1072 C1068 0.950 . S
C1073 C1071 1.390 . S
C1073 C1074 1.387 . S
C1073 H1076 0.950 . S
C1074 C1073 1.387 . S
C1074 C1077 1.387 . S
H1075 C1071 0.950 . S
H1076 C1073 0.950 . S
C1077 C1068 1.390 . S
C1077 H1070 0.950 . S
C1077 C1074 1.387 . S
C1078 C1079 1.387 . S
C1078 H1082 0.950 . S
C1078 C1087 1.390 . S
C1079 C1078 1.387 . S
C1079 C1081 1.387 . S
H1080 C1087 0.950 . S
C1081 C1079 1.387 . S
C1081 C1083 1.390 . S
C1081 H1085 0.950 . S
H1082 C1078 0.950 . S
C1083 C1081 1.390 . S
C1083 C1084 1.387 . S
C1083 H1086 0.950 . S
C1084 C1083 1.387 . S
C1084 C1087 1.387 . S
H1085 C1081 0.950 . S
H1086 C1083 0.950 . S
C1087 C1078 1.390 . S
C1087 H1080 0.950 . S
C1087 C1084 1.387 . S
C1088 C1089 1.387 . S
C1088 H1092 0.950 . S
C1088 C1097 1.390 . S
C1089 C1088 1.387 . S
C1089 C1091 1.387 . S
H1090 C1097 0.950 . S
C1091 C1089 1.387 . S
C1091 C1093 1.390 . S
C1091 H1095 0.950 . S
H1092 C1088 0.950 . S
C1093 C1091 1.390 . S
C1093 C1094 1.387 . S
C1093 H1096 0.950 . S
C1094 C1093 1.387 . S
C1094 C1097 1.387 . S
H1095 C1091 0.950 . S
H1096 C1093 0.950 . S
C1097 C1088 1.390 . S
C1097 H1090 0.950 . S
C1097 C1094 1.387 . S
C1098 C1099 1.387 . S
C1098 H1102 0.950 . S
C1098 C1107 1.390 . S
C1099 C1098 1.387 . S
C1099 C1101 1.387 . S
H1100 C1107 0.950 . S
C1101 C1099 1.387 . S
C1101 C1103 1.390 . S
C1101 H1105 0.950 . S
H1102 C1098 0.950 . S
C1103 C1101 1.390 . S
C1103 C1104 1.387 . S
C1103 H1106 0.950 . S
C1104 C1103 1.387 . S
C1104 C1107 1.387 . S
H1105 C1101 0.950 . S
H1106 C1103 0.950 . S
C1107 C1098 1.390 . S
C1107 H1100 0.950 . S
C1107 C1104 1.387 . S
C1108 C1109 1.387 . S
C1108 H1112 0.950 . S
C1108 C1117 1.390 . S
C1109 C1108 1.387 . S
C1109 C1111 1.387 . S
H1110 C1117 0.950 . S
C1111 C1109 1.387 . S
C1111 C1113 1.390 . S
C1111 H1115 0.950 . S
H1112 C1108 0.950 . S
C1113 C1111 1.390 . S
C1113 C1114 1.387 . S
C1113 H1116 0.950 . S
C1114 C1113 1.387 . S
C1114 C1117 1.387 . S
H1115 C1111 0.950 . S
H1116 C1113 0.950 . S
C1117 C1108 1.390 . S
C1117 H1110 0.950 . S
C1117 C1114 1.387 . S
C1118 C1119 1.387 . S
C1118 H1122 0.950 . S
C1118 C1127 1.390 . S
C1119 C1118 1.387 . S
C1119 C1121 1.387 . S
H1120 C1127 0.950 . S
C1121 C1119 1.387 . S
C1121 C1123 1.390 . S
C1121 H1125 0.950 . S
H1122 C1118 0.950 . S
C1123 C1121 1.390 . S
C1123 C1124 1.387 . S
C1123 H1126 0.950 . S
C1124 C1123 1.387 . S
C1124 C1127 1.387 . S
H1125 C1121 0.950 . S
H1126 C1123 0.950 . S
C1127 C1118 1.390 . S
C1127 H1120 0.950 . S
C1127 C1124 1.387 . S
C1128 C1129 1.387 1_455 S
C1128 H1132 0.950 . S
C1128 C1137 1.390 . S
C1129 C1128 1.387 1_655 S
C1129 C1131 1.387 . S
H1130 C1137 0.950 . S
C1131 C1129 1.387 . S
C1131 C1133 1.390 . S
C1131 H1135 0.950 . S
H1132 C1128 0.950 . S
C1133 C1131 1.390 . S
C1133 C1134 1.387 1_655 S
C1133 H1136 0.950 . S
C1134 C1133 1.387 1_455 S
C1134 C1137 1.387 . S
H1135 C1131 0.950 . S
H1136 C1133 0.950 . S
C1137 C1128 1.390 . S
C1137 H1130 0.950 . S
C1137 C1134 1.387 . S
C1138 C1139 1.387 . S
C1138 H1142 0.950 . S
C1138 C1147 1.390 . S
C1139 C1138 1.387 . S
C1139 C1141 1.387 . S
H1140 C1147 0.950 . S
C1141 C1139 1.387 . S
C1141 C1143 1.390 . S
C1141 H1145 0.950 . S
H1142 C1138 0.950 . S
C1143 C1141 1.390 . S
C1143 C1144 1.387 . S
C1143 H1146 0.950 . S
C1144 C1143 1.387 . S
C1144 C1147 1.387 . S
H1145 C1141 0.950 . S
H1146 C1143 0.950 . S
C1147 C1138 1.390 . S
C1147 H1140 0.950 . S
C1147 C1144 1.387 . S
C1148 C1149 1.387 . S
C1148 H1152 0.950 . S
C1148 C1157 1.390 1_565 S
C1149 C1148 1.387 . S
C1149 C1151 1.387 . S
H1150 C1157 0.950 . S
C1151 C1149 1.387 . S
C1151 C1153 1.390 1_565 S
C1151 H1155 0.950 . S
H1152 C1148 0.950 . S
C1153 C1151 1.390 1_545 S
C1153 C1154 1.387 . S
C1153 H1156 0.950 . S
C1154 C1153 1.387 . S
C1154 C1157 1.387 . S
H1155 C1151 0.950 . S
H1156 C1153 0.950 . S
C1157 C1148 1.390 1_545 S
C1157 H1150 0.950 . S
C1157 C1154 1.387 . S
C1158 C1159 1.387 1_545 S
C1158 H1162 0.950 . S
C1158 C1167 1.390 . S
C1159 C1158 1.387 1_565 S
C1159 C1161 1.387 1_554 S
H1160 C1167 0.950 . S
C1161 C1159 1.387 1_556 S
C1161 C1163 1.390 . S
C1161 H1165 0.950 . S
H1162 C1158 0.950 . S
C1163 C1161 1.390 . S
C1163 C1164 1.387 1_565 S
C1163 H1166 0.950 . S
C1164 C1163 1.387 1_545 S
C1164 C1167 1.387 1_556 S
H1165 C1161 0.950 . S
H1166 C1163 0.950 . S
C1167 C1158 1.390 . S
C1167 H1160 0.950 . S
C1167 C1164 1.387 1_554 S
C1168 C1169 1.387 1_655 S
C1168 H1172 0.950 . S
C1168 C1177 1.390 . S
C1169 C1168 1.387 1_455 S
C1169 C1171 1.387 1_554 S
H1170 C1177 0.950 . S
C1171 C1169 1.387 1_556 S
C1171 C1173 1.390 . S
C1171 H1175 0.950 . S
H1172 C1168 0.950 . S
C1173 C1171 1.390 . S
C1173 C1174 1.387 1_455 S
C1173 H1176 0.950 . S
C1174 C1173 1.387 1_655 S
C1174 C1177 1.387 1_556 S
H1175 C1171 0.950 . S
H1176 C1173 0.950 . S
C1177 C1168 1.390 . S
C1177 H1170 0.950 . S
C1177 C1174 1.387 1_554 S
C1178 C1179 1.387 . S
C1178 H1182 0.950 . S
C1178 C1187 1.390 1_556 S
C1179 C1178 1.387 . S
C1179 C1181 1.387 . S
H1180 C1187 0.950 . S
C1181 C1179 1.387 . S
C1181 C1183 1.390 1_556 S
C1181 H1185 0.950 . S
H1182 C1178 0.950 . S
C1183 C1181 1.390 1_554 S
C1183 C1184 1.387 . S
C1183 H1186 0.950 . S
C1184 C1183 1.387 . S
C1184 C1187 1.387 . S
H1185 C1181 0.950 . S
H1186 C1183 0.950 . S
C1187 C1178 1.390 1_554 S
C1187 H1180 0.950 . S
C1187 C1184 1.387 . S
C1188 C1189 1.390 . S
C1188 H1192 0.952 . S
C1188 C1197 1.385 1_655 S
C1189 C1188 1.390 . S
C1189 C1191 1.387 1_655 S
H1190 C1197 0.950 . S
C1191 C1189 1.387 1_455 S
C1191 C1193 1.390 . S
C1191 H1195 0.950 . S
H1192 C1188 0.952 . S
C1193 C1191 1.390 . S
C1193 C1194 1.387 . S
C1193 H1196 0.950 . S
C1194 C1193 1.387 . S
C1194 C1197 1.387 . S
H1195 C1191 0.950 . S
H1196 C1193 0.950 . S
C1197 C1188 1.385 1_455 S
C1197 H1190 0.950 . S
C1197 C1194 1.387 . S
C1198 C1199 1.387 . S
C1198 H1202 0.950 . S
C1198 C1207 1.390 . S
C1199 C1198 1.387 . S
C1199 C1201 1.387 . S
H1200 C1207 0.950 . S
C1201 C1199 1.387 . S
C1201 C1203 1.390 . S
C1201 H1205 0.950 . S
H1202 C1198 0.950 . S
C1203 C1201 1.390 . S
C1203 C1204 1.387 . S
C1203 H1206 0.950 . S
C1204 C1203 1.387 . S
C1204 C1207 1.387 . S
H1205 C1201 0.950 . S
H1206 C1203 0.950 . S
C1207 C1198 1.390 . S
C1207 H1200 0.950 . S
C1207 C1204 1.387 . S
C1208 C1209 1.387 . S
C1208 H1212 0.950 . S
C1208 C1217 1.390 . S
C1209 C1208 1.387 . S
C1209 C1211 1.387 . S
H1210 C1217 0.950 . S
C1211 C1209 1.387 . S
C1211 C1213 1.390 1_565 S
C1211 H1215 0.950 . S
H1212 C1208 0.950 . S
C1213 C1211 1.390 1_545 S
C1213 C1214 1.387 . S
C1213 H1216 0.950 . S
C1214 C1213 1.387 . S
C1214 C1217 1.387 1_545 S
H1215 C1211 0.950 . S
H1216 C1213 0.950 . S
C1217 C1208 1.390 . S
C1217 H1210 0.950 . S
C1217 C1214 1.387 1_565 S
C1218 C1219 1.387 . S
C1218 H1222 0.950 . S
C1218 C1227 1.390 . S
C1219 C1218 1.387 . S
C1219 C1221 1.387 . S
H1220 C1227 0.950 . S
C1221 C1219 1.387 . S
C1221 C1223 1.390 1_545 S
C1221 H1225 0.950 . S
H1222 C1218 0.950 . S
C1223 C1221 1.390 1_565 S
C1223 C1224 1.387 . S
C1223 H1226 0.950 . S
C1224 C1223 1.387 . S
C1224 C1227 1.387 1_565 S
H1225 C1221 0.950 . S
H1226 C1223 0.950 . S
C1227 C1218 1.390 . S
C1227 H1220 0.950 . S
C1227 C1224 1.387 1_545 S
C1228 C1229 1.387 . S
C1228 H1232 0.950 . S
C1228 C1237 1.390 . S
C1229 C1228 1.387 . S
C1229 C1231 1.387 . S
H1230 C1237 0.950 1_455 S
C1231 C1229 1.387 . S
C1231 C1233 1.390 . S
C1231 H1235 0.950 . S
H1232 C1228 0.950 . S
C1233 C1231 1.390 . S
C1233 C1234 1.387 1_655 S
C1233 H1236 0.950 . S
C1234 C1233 1.387 1_455 S
C1234 C1237 1.387 1_455 S
H1235 C1231 0.950 . S
H1236 C1233 0.950 . S
C1237 C1228 1.390 . S
C1237 H1230 0.950 1_655 S
C1237 C1234 1.387 1_655 S
C1238 C1239 1.387 . S
C1238 H1242 0.950 . S
C1238 C1247 1.390 . S
C1239 C1238 1.387 . S
C1239 C1241 1.387 . S
H1240 C1247 0.950 . S
C1241 C1239 1.387 . S
C1241 C1243 1.390 . S
C1241 H1245 0.950 . S
H1242 C1238 0.950 . S
C1243 C1241 1.390 . S
C1243 C1244 1.387 . S
C1243 H1246 0.950 . S
C1244 C1243 1.387 . S
C1244 C1247 1.387 . S
H1245 C1241 0.950 . S
H1246 C1243 0.950 . S
C1247 C1238 1.390 . S
C1247 H1240 0.950 . S
C1247 C1244 1.387 . S
C1248 C1249 1.382 . S
C1248 H1252 0.950 . S
C1248 C1257 1.390 1_455 S
C1249 C1248 1.382 . S
C1249 C1251 1.382 1_455 S
H1250 C1257 0.950 . S
C1251 C1249 1.382 1_655 S
C1251 C1253 1.390 . S
C1251 H1255 0.950 . S
H1252 C1248 0.950 . S
C1253 C1251 1.390 . S
C1253 C1254 1.387 . S
C1253 H1256 0.950 . S
C1254 C1253 1.387 . S
C1254 C1257 1.387 . S
H1255 C1251 0.950 . S
H1256 C1253 0.950 . S
C1257 C1248 1.390 1_655 S
C1257 H1250 0.950 . S
C1257 C1254 1.387 . S
C1258 C1259 1.387 . S
C1258 H1262 0.950 . S
C1258 C1267 1.390 . S
C1259 C1258 1.387 . S
C1259 C1261 1.387 . S
H1260 C1267 0.950 . S
C1261 C1259 1.387 . S
C1261 C1263 1.390 . S
C1261 H1265 0.950 . S
H1262 C1258 0.950 . S
C1263 C1261 1.390 . S
C1263 C1264 1.387 . S
C1263 H1266 0.950 . S
C1264 C1263 1.387 . S
C1264 C1267 1.387 . S
H1265 C1261 0.950 . S
H1266 C1263 0.950 . S
C1267 C1258 1.390 . S
C1267 H1260 0.950 . S
C1267 C1264 1.387 . S
C1268 C1269 1.387 . S
C1268 H1272 0.950 . S
C1268 C1277 1.390 . S
C1269 C1268 1.387 . S
C1269 C1271 1.387 . S
H1270 C1277 0.950 1_565 S
C1271 C1269 1.387 . S
C1271 C1273 1.390 . S
C1271 H1275 0.950 . S
H1272 C1268 0.950 . S
C1273 C1271 1.390 . S
C1273 C1274 1.386 1_545 S
C1273 H1276 0.950 . S
C1274 C1273 1.386 1_565 S
C1274 C1277 1.388 1_565 S
H1275 C1271 0.950 . S
H1276 C1273 0.950 . S
C1277 C1268 1.390 . S
C1277 H1270 0.950 1_545 S
C1277 C1274 1.388 1_545 S
C1278 C1279 1.387 . S
C1278 H1282 0.950 . S
C1278 C1287 1.390 1_565 S
C1279 C1278 1.387 . S
C1279 C1281 1.387 . S
H1280 C1287 0.950 . S
C1281 C1279 1.387 . S
C1281 C1283 1.390 . S
C1281 H1285 0.950 . S
H1282 C1278 0.950 . S
C1283 C1281 1.390 . S
C1283 C1284 1.382 1_565 S
C1283 H1286 0.950 . S
C1284 C1283 1.382 1_545 S
C1284 C1287 1.382 . S
H1285 C1281 0.950 . S
H1286 C1283 0.950 . S
C1287 C1278 1.390 1_545 S
C1287 H1280 0.950 . S
C1287 C1284 1.382 . S
C1288 C1289 1.386 1_455 S
C1288 H1292 0.950 . S
C1288 C1297 1.390 . S
C1289 C1288 1.386 1_655 S
C1289 C1291 1.388 1_655 S
H1290 C1297 0.950 . S
C1291 C1289 1.388 1_455 S
C1291 C1293 1.390 . S
C1291 H1295 0.950 1_455 S
H1292 C1288 0.950 . S
C1293 C1291 1.390 . S
C1293 C1294 1.387 . S
C1293 H1296 0.950 . S
C1294 C1293 1.387 . S
C1294 C1297 1.387 . S
H1295 C1291 0.950 1_655 S
H1296 C1293 0.950 . S
C1297 C1288 1.390 . S
C1297 H1290 0.950 . S
C1297 C1294 1.387 . S
C1298 C1299 1.387 . S
C1298 H1302 0.950 . S
C1298 C1307 1.390 . S
C1299 C1298 1.387 . S
C1299 C1301 1.387 . S
H1300 C1307 0.950 . S
C1301 C1299 1.387 . S
C1301 C1303 1.390 . S
C1301 H1305 0.950 . S
H1302 C1298 0.950 . S
C1303 C1301 1.390 . S
C1303 C1304 1.387 . S
C1303 H1306 0.950 . S
C1304 C1303 1.387 . S
C1304 C1307 1.387 . S
H1305 C1301 0.950 . S
H1306 C1303 0.950 . S
C1307 C1298 1.390 . S
C1307 H1300 0.950 . S
C1307 C1304 1.387 . S
C1308 C1309 1.387 . S
C1308 H1312 0.950 . S
C1308 C1317 1.390 . S
C1309 C1308 1.387 . S
C1309 C1311 1.387 . S
H1310 C1317 0.950 . S
C1311 C1309 1.387 . S
C1311 C1313 1.390 . S
C1311 H1315 0.950 . S
H1312 C1308 0.950 . S
C1313 C1311 1.390 . S
C1313 C1314 1.387 . S
C1313 H1316 0.950 . S
C1314 C1313 1.387 . S
C1314 C1317 1.387 . S
H1315 C1311 0.950 . S
H1316 C1313 0.950 . S
C1317 C1308 1.390 . S
C1317 H1310 0.950 . S
C1317 C1314 1.387 . S
C1318 C1319 1.387 . S
C1318 H1322 0.950 . S
C1318 C1327 1.390 . S
C1319 C1318 1.387 . S
C1319 C1321 1.387 . S
H1320 C1327 0.950 . S
C1321 C1319 1.387 . S
C1321 C1323 1.390 . S
C1321 H1325 0.950 . S
H1322 C1318 0.950 . S
C1323 C1321 1.390 . S
C1323 C1324 1.387 . S
C1323 H1326 0.950 . S
C1324 C1323 1.387 . S
C1324 C1327 1.387 . S
H1325 C1321 0.950 . S
H1326 C1323 0.950 . S
C1327 C1318 1.390 . S
C1327 H1320 0.950 . S
C1327 C1324 1.387 . S
C1328 C1329 1.387 . S
C1328 H1332 0.950 . S
C1328 C1337 1.390 . S
C1329 C1328 1.387 . S
C1329 C1331 1.387 . S
H1330 C1337 0.950 . S
C1331 C1329 1.387 . S
C1331 C1333 1.390 . S
C1331 H1335 0.950 . S
H1332 C1328 0.950 . S
C1333 C1331 1.390 . S
C1333 C1334 1.387 . S
C1333 H1336 0.950 . S
C1334 C1333 1.387 . S
C1334 C1337 1.387 . S
H1335 C1331 0.950 . S
H1336 C1333 0.950 . S
C1337 C1328 1.390 . S
C1337 H1330 0.950 . S
C1337 C1334 1.387 . S
C1338 C1339 1.387 . S
C1338 H1342 0.950 . S
C1338 C1347 1.390 . S
C1339 C1338 1.387 . S
C1339 C1341 1.387 . S
H1340 C1347 0.950 . S
C1341 C1339 1.387 . S
C1341 C1343 1.390 . S
C1341 H1345 0.950 . S
H1342 C1338 0.950 . S
C1343 C1341 1.390 . S
C1343 C1344 1.387 . S
C1343 H1346 0.950 . S
C1344 C1343 1.387 . S
C1344 C1347 1.387 . S
H1345 C1341 0.950 . S
H1346 C1343 0.950 . S
C1347 C1338 1.390 . S
C1347 H1340 0.950 . S
C1347 C1344 1.387 . S
C1348 C1349 1.387 . S
C1348 H1352 0.950 . S
C1348 C1357 1.390 . S
C1349 C1348 1.387 . S
C1349 C1351 1.387 . S
H1350 C1357 0.950 . S
C1351 C1349 1.387 . S
C1351 C1353 1.390 . S
C1351 H1355 0.950 . S
H1352 C1348 0.950 . S
C1353 C1351 1.390 . S
C1353 C1354 1.387 . S
C1353 H1356 0.950 . S
C1354 C1353 1.387 . S
C1354 C1357 1.387 . S
H1355 C1351 0.950 . S
H1356 C1353 0.950 . S
C1357 C1348 1.390 . S
C1357 H1350 0.950 . S
C1357 C1354 1.387 . S
C1358 C1359 1.387 . S
C1358 H1362 0.950 . S
C1358 C1367 1.390 . S
C1359 C1358 1.387 . S
C1359 C1361 1.387 . S
H1360 C1367 0.950 . S
C1361 C1359 1.387 . S
C1361 C1363 1.390 . S
C1361 H1365 0.950 . S
H1362 C1358 0.950 . S
C1363 C1361 1.390 . S
C1363 C1364 1.387 . S
C1363 H1366 0.950 . S
C1364 C1363 1.387 . S
C1364 C1367 1.387 . S
H1365 C1361 0.950 . S
H1366 C1363 0.950 . S
C1367 C1358 1.390 . S
C1367 H1360 0.950 . S
C1367 C1364 1.387 . S
C1368 C1369 1.387 . S
C1368 H1372 0.950 . S
C1368 C1377 1.390 . S
C1369 C1368 1.387 . S
C1369 C1371 1.387 . S
H1370 C1377 0.950 . S
C1371 C1369 1.387 . S
C1371 C1373 1.390 . S
C1371 H1375 0.950 . S
H1372 C1368 0.950 . S
C1373 C1371 1.390 . S
C1373 C1374 1.387 . S
C1373 H1376 0.950 . S
C1374 C1373 1.387 . S
C1374 C1377 1.387 . S
H1375 C1371 0.950 . S
H1376 C1373 0.950 . S
C1377 C1368 1.390 . S
C1377 H1370 0.950 . S
C1377 C1374 1.387 . S
C1378 C1379 1.387 . S
C1378 H1382 0.950 . S
C1378 C1387 1.390 . S
C1379 C1378 1.387 . S
C1379 C1381 1.387 . S
H1380 C1387 0.950 . S
C1381 C1379 1.387 . S
C1381 C1383 1.390 . S
C1381 H1385 0.950 . S
H1382 C1378 0.950 . S
C1383 C1381 1.390 . S
C1383 C1384 1.387 . S
C1383 H1386 0.950 . S
C1384 C1383 1.387 . S
C1384 C1387 1.387 . S
H1385 C1381 0.950 . S
H1386 C1383 0.950 . S
C1387 C1378 1.390 . S
C1387 H1380 0.950 . S
C1387 C1384 1.387 . S
C1388 C1389 1.387 . S
C1388 H1392 0.950 . S
C1388 C1397 1.390 . S
C1389 C1388 1.387 . S
C1389 C1391 1.387 . S
H1390 C1397 0.950 . S
C1391 C1389 1.387 . S
C1391 C1393 1.390 . S
C1391 H1395 0.950 . S
H1392 C1388 0.950 . S
C1393 C1391 1.390 . S
C1393 C1394 1.387 . S
C1393 H1396 0.950 . S
C1394 C1393 1.387 . S
C1394 C1397 1.387 . S
H1395 C1391 0.950 . S
H1396 C1393 0.950 . S
C1397 C1388 1.390 . S
C1397 H1390 0.950 . S
C1397 C1394 1.387 . S
C1398 C1399 1.387 . S
C1398 H1402 0.950 . S
C1398 C1407 1.390 . S
C1399 C1398 1.387 . S
C1399 C1401 1.387 . S
H1400 C1407 0.950 . S
C1401 C1399 1.387 . S
C1401 C1403 1.390 . S
C1401 H1405 0.950 1_556 S
H1402 C1398 0.950 . S
C1403 C1401 1.390 . S
C1403 C1404 1.387 . S
C1403 H1406 0.950 1_556 S
C1404 C1403 1.387 . S
C1404 C1407 1.387 . S
H1405 C1401 0.950 1_554 S
H1406 C1403 0.950 1_554 S
C1407 C1398 1.390 . S
C1407 H1400 0.950 . S
C1407 C1404 1.387 . S
C1408 C1409 1.387 . S
C1408 H1412 0.950 1_556 S
C1408 C1417 1.390 . S
C1409 C1408 1.387 . S
C1409 C1411 1.387 . S
H1410 C1417 0.950 1_554 S
C1411 C1409 1.387 . S
C1411 C1413 1.390 . S
C1411 H1415 0.950 . S
H1412 C1408 0.950 1_554 S
C1413 C1411 1.390 . S
C1413 C1414 1.387 . S
C1413 H1416 0.950 . S
C1414 C1413 1.387 . S
C1414 C1417 1.387 . S
H1415 C1411 0.950 . S
H1416 C1413 0.950 . S
C1417 C1408 1.390 . S
C1417 H1410 0.950 1_556 S
C1417 C1414 1.387 . S
C1418 C1419 1.387 . S
C1418 H1422 0.950 . S
C1418 C1427 1.390 . S
C1419 C1418 1.387 . S
C1419 C1421 1.387 . S
H1420 C1427 0.950 . S
C1421 C1419 1.387 . S
C1421 C1423 1.390 . S
C1421 H1425 0.950 . S
H1422 C1418 0.950 . S
C1423 C1421 1.390 . S
C1423 C1424 1.387 . S
C1423 H1426 0.950 . S
C1424 C1423 1.387 . S
C1424 C1427 1.387 . S
H1425 C1421 0.950 . S
H1426 C1423 0.950 . S
C1427 C1418 1.390 . S
C1427 H1420 0.950 . S
C1427 C1424 1.387 . S
C1428 C1429 1.387 . S
C1428 H1432 0.950 . S
C1428 C1437 1.390 . S
C1429 C1428 1.387 . S
C1429 C1431 1.387 . S
H1430 C1437 0.950 . S
C1431 C1429 1.387 . S
C1431 C1433 1.390 . S
C1431 H1435 0.950 . S
H1432 C1428 0.950 . S
C1433 C1431 1.390 . S
C1433 C1434 1.387 . S
C1433 H1436 0.950 . S
C1434 C1433 1.387 . S
C1434 C1437 1.387 . S
H1435 C1431 0.950 . S
H1436 C1433 0.950 . S
C1437 C1428 1.390 . S
C1437 H1430 0.950 . S
C1437 C1434 1.387 . S
C1438 C1439 1.387 . S
C1438 H1442 0.950 . S
C1438 C1447 1.390 . S
C1439 C1438 1.387 . S
C1439 C1441 1.387 . S
H1440 C1447 0.950 . S
C1441 C1439 1.387 . S
C1441 C1443 1.390 . S
C1441 H1445 0.950 . S
H1442 C1438 0.950 . S
C1443 C1441 1.390 . S
C1443 C1444 1.387 . S
C1443 H1446 0.950 . S
C1444 C1443 1.387 . S
C1444 C1447 1.387 . S
H1445 C1441 0.950 . S
H1446 C1443 0.950 . S
C1447 C1438 1.390 . S
C1447 H1440 0.950 . S
C1447 C1444 1.387 . S
C1448 C1449 1.387 . S
C1448 H1452 0.950 . S
C1448 C1457 1.390 . S
C1449 C1448 1.387 . S
C1449 C1451 1.387 . S
H1450 C1457 0.950 . S
C1451 C1449 1.387 . S
C1451 C1453 1.390 . S
C1451 H1455 0.950 . S
H1452 C1448 0.950 . S
C1453 C1451 1.390 . S
C1453 C1454 1.387 . S
C1453 H1456 0.950 . S
C1454 C1453 1.387 . S
C1454 C1457 1.387 . S
H1455 C1451 0.950 . S
H1456 C1453 0.950 . S
C1457 C1448 1.390 . S
C1457 H1450 0.950 . S
C1457 C1454 1.387 . S
C1458 C1459 1.387 . S
C1458 H1462 0.950 1_554 S
C1458 C1467 1.390 . S
C1459 C1458 1.387 . S
C1459 C1461 1.387 . S
H1460 C1467 0.929 1_556 S
C1461 C1459 1.387 . S
C1461 C1463 1.390 . S
C1461 H1465 0.950 . S
H1462 C1458 0.950 1_556 S
C1463 C1461 1.390 . S
C1463 C1464 1.387 . S
C1463 H1466 0.950 . S
C1464 C1463 1.387 . S
C1464 C1467 1.387 . S
H1465 C1461 0.950 . S
H1466 C1463 0.950 . S
C1467 C1458 1.390 . S
C1467 H1460 0.929 1_554 S
C1467 C1464 1.387 . S
C1468 C1469 1.387 . S
C1468 H1472 0.950 . S
C1468 C1477 1.390 . S
C1469 C1468 1.387 . S
C1469 C1471 1.387 . S
H1470 C1477 0.950 . S
C1471 C1469 1.387 . S
C1471 C1473 1.390 . S
C1471 H1475 0.950 1_554 S
H1472 C1468 0.950 . S
C1473 C1471 1.390 . S
C1473 C1474 1.387 . S
C1473 H1476 0.950 1_554 S
C1474 C1473 1.387 . S
C1474 C1477 1.387 . S
H1475 C1471 0.950 1_556 S
H1476 C1473 0.950 1_556 S
C1477 C1468 1.390 . S
C1477 H1470 0.950 . S
C1477 C1474 1.387 . S
C1478 C1479 1.387 . S
C1478 H1482 0.950 . S
C1478 C1487 1.390 . S
C1479 C1478 1.387 . S
C1479 C1481 1.387 . S
H1480 C1487 0.950 . S
C1481 C1479 1.387 . S
C1481 C1483 1.390 . S
C1481 H1485 0.950 . S
H1482 C1478 0.950 . S
C1483 C1481 1.390 . S
C1483 C1484 1.387 . S
C1483 H1486 0.950 . S
C1484 C1483 1.387 . S
C1484 C1487 1.387 . S
H1485 C1481 0.950 . S
H1486 C1483 0.950 . S
C1487 C1478 1.390 . S
C1487 H1480 0.950 . S
C1487 C1484 1.387 . S
C1488 C1489 1.387 . S
C1488 H1492 0.950 . S
C1488 C1497 1.390 . S
C1489 C1488 1.387 . S
C1489 C1491 1.387 . S
H1490 C1497 0.950 . S
C1491 C1489 1.387 . S
C1491 C1493 1.390 . S
C1491 H1495 0.950 . S
H1492 C1488 0.950 . S
C1493 C1491 1.390 . S
C1493 C1494 1.387 . S
C1493 H1496 0.950 . S
C1494 C1493 1.387 . S
C1494 C1497 1.387 . S
H1495 C1491 0.950 . S
H1496 C1493 0.950 . S
C1497 C1488 1.390 . S
C1497 H1490 0.950 . S
C1497 C1494 1.387 . S
C1498 C1499 1.387 . S
C1498 H1502 0.950 . S
C1498 C1507 1.390 . S
C1499 C1498 1.387 . S
C1499 C1501 1.387 . S
H1500 C1507 0.950 . S
C1501 C1499 1.387 . S
C1501 C1503 1.390 . S
C1501 H1505 0.950 . S
H1502 C1498 0.950 . S
C1503 C1501 1.390 . S
C1503 C1504 1.387 . S
C1503 H1506 0.950 . S
C1504 C1503 1.387 . S
C1504 C1507 1.387 . S
H1505 C1501 0.950 . S
H1506 C1503 0.950 . S
C1507 C1498 1.390 . S
C1507 H1500 0.950 . S
C1507 C1504 1.387 . S
C1508 C1509 1.387 . S
C1508 H1512 0.950 . S
C1508 C1517 1.390 . S
C1509 C1508 1.387 . S
C1509 C1511 1.387 . S
H1510 C1517 0.950 . S
C1511 C1509 1.387 . S
C1511 C1513 1.390 . S
C1511 H1515 0.950 . S
H1512 C1508 0.950 . S
C1513 C1511 1.390 . S
C1513 C1514 1.387 . S
C1513 H1516 0.950 . S
C1514 C1513 1.387 . S
C1514 C1517 1.387 . S
H1515 C1511 0.950 . S
H1516 C1513 0.950 . S
C1517 C1508 1.390 . S
C1517 H1510 0.950 . S
C1517 C1514 1.387 . S
C1518 C1519 1.387 . S
C1518 H1522 0.950 . S
C1518 C1527 1.390 . S
C1519 C1518 1.387 . S
C1519 C1521 1.387 . S
H1520 C1527 0.950 . S
C1521 C1519 1.387 . S
C1521 C1523 1.390 . S
C1521 H1525 0.950 . S
H1522 C1518 0.950 . S
C1523 C1521 1.390 . S
C1523 C1524 1.387 . S
C1523 H1526 0.950 . S
C1524 C1523 1.387 . S
C1524 C1527 1.387 . S
H1525 C1521 0.950 . S
H1526 C1523 0.950 . S
C1527 C1518 1.390 . S
C1527 H1520 0.950 . S
C1527 C1524 1.387 . S
C1528 C1529 1.387 . S
C1528 H1532 0.950 . S
C1528 C1537 1.390 . S
C1529 C1528 1.387 . S
C1529 C1531 1.387 . S
H1530 C1537 0.950 . S
C1531 C1529 1.387 . S
C1531 C1533 1.390 . S
C1531 H1535 0.950 . S
H1532 C1528 0.950 . S
C1533 C1531 1.390 . S
C1533 C1534 1.387 . S
C1533 H1536 0.950 . S
C1534 C1533 1.387 . S
C1534 C1537 1.387 . S
H1535 C1531 0.950 . S
H1536 C1533 0.950 . S
C1537 C1528 1.390 . S
C1537 H1530 0.950 . S
C1537 C1534 1.387 . S
C1538 C1539 1.387 . S
C1538 H1542 0.950 . S
C1538 C1547 1.390 . S
C1539 C1538 1.387 . S
C1539 C1541 1.387 . S
H1540 C1547 0.950 . S
C1541 C1539 1.387 . S
C1541 C1543 1.390 . S
C1541 H1545 0.950 . S
H1542 C1538 0.950 . S
C1543 C1541 1.390 . S
C1543 C1544 1.387 . S
C1543 H1546 0.950 . S
C1544 C1543 1.387 . S
C1544 C1547 1.387 . S
H1545 C1541 0.950 . S
H1546 C1543 0.950 . S
C1547 C1538 1.390 . S
C1547 H1540 0.950 . S
C1547 C1544 1.387 . S
C1548 C1549 1.387 . S
C1548 H1552 0.950 1_545 S
C1548 C1557 1.390 . S
C1549 C1548 1.387 . S
C1549 C1551 1.387 . S
H1550 C1557 0.950 1_554 S
C1551 C1549 1.387 . S
C1551 C1553 1.390 . S
C1551 H1555 0.950 . S
H1552 C1548 0.950 1_565 S
C1553 C1551 1.390 . S
C1553 C1554 1.387 1_556 S
C1553 H1556 0.952 . S
C1554 C1553 1.387 1_554 S
C1554 C1557 1.387 1_554 S
H1555 C1551 0.950 . S
H1556 C1553 0.952 . S
C1557 C1548 1.390 . S
C1557 H1550 0.950 1_556 S
C1557 C1554 1.387 1_556 S
C1558 C1559 1.387 1_556 S
C1558 H1562 0.950 . S
C1558 C1567 1.390 . S
C1559 C1558 1.387 1_554 S
C1559 C1561 1.387 . S
H1560 C1567 0.950 . S
C1561 C1559 1.387 . S
C1561 C1563 1.390 1_554 S
C1561 H1565 0.950 . S
H1562 C1558 0.950 . S
C1563 C1561 1.390 1_556 S
C1563 C1564 1.386 . S
C1563 H1566 0.951 1_655 S
C1564 C1563 1.386 . S
C1564 C1567 1.387 . S
H1565 C1561 0.950 . S
H1566 C1563 0.951 1_455 S
C1567 C1558 1.390 . S
C1567 H1560 0.950 . S
C1567 C1564 1.387 . S
C1568 C1569 1.387 1_556 S
C1568 H1572 0.950 . S
C1568 C1577 1.390 . S
C1569 C1568 1.387 1_554 S
C1569 C1571 1.383 1_554 S
H1570 C1577 0.950 . S
C1571 C1569 1.383 1_556 S
C1571 C1573 1.404 . S
C1571 H1575 0.941 1_556 S
H1572 C1568 0.950 . S
C1573 C1571 1.404 . S
C1573 C1574 1.387 . S
C1573 H1576 0.950 . S
C1574 C1573 1.387 . S
C1574 C1577 1.387 . S
H1575 C1571 0.941 1_554 S
H1576 C1573 0.950 . S
C1577 C1568 1.390 . S
C1577 H1570 0.950 . S
C1577 C1574 1.387 . S
C1578 C1579 1.387 . S
C1578 H1582 0.950 . S
C1578 C1587 1.390 . S
C1579 C1578 1.387 . S
C1579 C1581 1.387 . S
H1580 C1587 0.950 . S
C1581 C1579 1.387 . S
C1581 C1583 1.390 . S
C1581 H1585 0.950 . S
H1582 C1578 0.950 . S
C1583 C1581 1.390 . S
C1583 C1584 1.387 . S
C1583 H1586 0.950 1_455 S
C1584 C1583 1.387 . S
C1584 C1587 1.387 . S
H1585 C1581 0.950 . S
H1586 C1583 0.950 1_655 S
C1587 C1578 1.390 . S
C1587 H1580 0.950 . S
C1587 C1584 1.387 . S
C1588 C1589 1.387 . S
C1588 H1592 0.950 . S
C1588 C1597 1.390 . S
C1589 C1588 1.387 . S
C1589 C1591 1.387 . S
H1590 C1597 0.950 . S
C1591 C1589 1.387 . S
C1591 C1593 1.390 . S
C1591 H1595 0.950 . S
H1592 C1588 0.950 . S
C1593 C1591 1.390 . S
C1593 C1594 1.387 . S
C1593 H1596 0.950 . S
C1594 C1593 1.387 . S
C1594 C1597 1.387 . S
H1595 C1591 0.950 . S
H1596 C1593 0.950 . S
C1597 C1588 1.390 . S
C1597 H1590 0.950 . S
C1597 C1594 1.387 . S
C1598 C1599 1.387 . S
C1598 H1602 0.950 . S
C1598 C1607 1.390 . S
C1599 C1598 1.387 . S
C1599 C1601 1.387 . S
H1600 C1607 0.950 . S
C1601 C1599 1.387 . S
C1601 C1603 1.390 . S
C1601 H1605 0.947 1_565 S
H1602 C1598 0.950 . S
C1603 C1601 1.390 . S
C1603 C1604 1.387 . S
C1603 H1606 0.950 . S
C1604 C1603 1.387 . S
C1604 C1607 1.387 . S
H1605 C1601 0.947 1_545 S
H1606 C1603 0.950 . S
C1607 C1598 1.390 . S
C1607 H1600 0.950 . S
C1607 C1604 1.387 . S
C1608 C1609 1.387 . S
C1608 H1612 0.950 . S
C1608 C1617 1.390 . S
C1609 C1608 1.387 . S
C1609 C1611 1.387 . S
H1610 C1617 0.950 . S
C1611 C1609 1.387 . S
C1611 C1613 1.390 1_554 S
C1611 H1615 0.950 1_564 S
H1612 C1608 0.950 . S
C1613 C1611 1.390 1_556 S
C1613 C1614 1.387 . S
C1613 H1616 0.950 . S
C1614 C1613 1.387 . S
C1614 C1617 1.387 1_556 S
H1615 C1611 0.950 1_546 S
H1616 C1613 0.950 . S
C1617 C1608 1.390 . S
C1617 H1610 0.950 . S
C1617 C1614 1.387 1_554 S
C1618 C1619 1.387 . S
C1618 H1622 0.950 . S
C1618 C1627 1.390 1_556 S
C1619 C1618 1.387 . S
C1619 C1621 1.387 1_556 S
H1620 C1627 0.950 . S
C1621 C1619 1.387 1_554 S
C1621 C1623 1.390 . S
C1621 H1625 0.950 . S
H1622 C1618 0.950 . S
C1623 C1621 1.390 . S
C1623 C1624 1.387 . S
C1623 H1626 0.950 1_455 S
C1624 C1623 1.387 . S
C1624 C1627 1.387 . S
H1625 C1621 0.950 . S
H1626 C1623 0.950 1_655 S
C1627 C1618 1.390 1_554 S
C1627 H1620 0.950 . S
C1627 C1624 1.387 . S
C1628 C1629 1.387 1_554 S
C1628 H1632 0.950 . S
C1628 C1637 1.390 . S
C1629 C1628 1.387 1_556 S
C1629 C1631 1.387 . S
H1630 C1637 0.950 . S
C1631 C1629 1.387 . S
C1631 C1633 1.390 1_556 S
C1631 H1635 0.950 . S
H1632 C1628 0.950 . S
C1633 C1631 1.390 1_554 S
C1633 C1634 1.387 . S
C1633 H1636 0.950 1_554 S
C1634 C1633 1.387 . S
C1634 C1637 1.387 . S
H1635 C1631 0.950 . S
H1636 C1633 0.950 1_556 S
C1637 C1628 1.390 . S
C1637 H1630 0.950 . S
C1637 C1634 1.387 . S
C1638 C1639 1.387 . S
C1638 H1642 0.950 . S
C1638 C1647 1.390 . S
C1639 C1638 1.387 . S
C1639 C1641 1.387 . S
H1640 C1647 0.950 . S
C1641 C1639 1.387 . S
C1641 C1643 1.390 . S
C1641 H1645 0.950 . S
H1642 C1638 0.950 . S
C1643 C1641 1.390 . S
C1643 C1644 1.387 . S
C1643 H1646 0.950 . S
C1644 C1643 1.387 . S
C1644 C1647 1.387 . S
H1645 C1641 0.950 . S
H1646 C1643 0.950 . S
C1647 C1638 1.390 . S
C1647 H1640 0.950 . S
C1647 C1644 1.387 . S
C1648 C1649 1.387 . S
C1648 H1652 0.950 . S
C1648 C1657 1.390 . S
C1649 C1648 1.387 . S
C1649 C1651 1.387 . S
H1650 C1657 0.950 . S
C1651 C1649 1.387 . S
C1651 C1653 1.390 . S
C1651 H1655 0.950 . S
H1652 C1648 0.950 . S
C1653 C1651 1.390 . S
C1653 C1654 1.387 . S
C1653 H1656 0.950 . S
C1654 C1653 1.387 . S
C1654 C1657 1.387 . S
H1655 C1651 0.950 . S
H1656 C1653 0.950 . S
C1657 C1648 1.390 . S
C1657 H1650 0.950 . S
C1657 C1654 1.387 . S
C1658 C1659 1.387 . S
C1658 H1662 0.950 . S
C1658 C1667 1.390 . S
C1659 C1658 1.387 . S
C1659 C1661 1.387 . S
H1660 C1667 0.950 . S
C1661 C1659 1.387 . S
C1661 C1663 1.390 . S
C1661 H1665 0.950 . S
H1662 C1658 0.950 . S
C1663 C1661 1.390 . S
C1663 C1664 1.387 . S
C1663 H1666 0.950 1_545 S
C1664 C1663 1.387 . S
C1664 C1667 1.387 . S
H1665 C1661 0.950 . S
H1666 C1663 0.950 1_565 S
C1667 C1658 1.390 . S
C1667 H1660 0.950 . S
C1667 C1664 1.387 . S
C1668 C1669 1.387 . S
C1668 H1672 0.950 . S
C1668 C1677 1.390 . S
C1669 C1668 1.387 . S
C1669 C1671 1.387 . S
H1670 C1677 0.950 . S
C1671 C1669 1.387 . S
C1671 C1673 1.390 . S
C1671 H1675 0.950 . S
H1672 C1668 0.950 . S
C1673 C1671 1.390 . S
C1673 C1674 1.387 . S
C1673 H1676 0.950 . S
C1674 C1673 1.387 . S
C1674 C1677 1.387 . S
H1675 C1671 0.950 . S
H1676 C1673 0.950 . S
C1677 C1668 1.390 . S
C1677 H1670 0.950 . S
C1677 C1674 1.387 . S
C1678 C1679 1.387 . S
C1678 H1682 0.950 . S
C1678 C1687 1.390 . S
C1679 C1678 1.387 . S
C1679 C1681 1.387 . S
H1680 C1687 0.950 . S
C1681 C1679 1.387 . S
C1681 C1683 1.390 . S
C1681 H1685 0.950 . S
H1682 C1678 0.950 . S
C1683 C1681 1.390 . S
C1683 C1684 1.387 . S
C1683 H1686 0.950 . S
C1684 C1683 1.387 . S
C1684 C1687 1.387 . S
H1685 C1681 0.950 . S
H1686 C1683 0.950 . S
C1687 C1678 1.390 . S
C1687 H1680 0.950 . S
C1687 C1684 1.387 . S
C1688 C1689 1.387 . S
C1688 H1692 0.950 . S
C1688 C1697 1.390 . S
C1689 C1688 1.387 . S
C1689 C1691 1.387 . S
H1690 C1697 0.950 . S
C1691 C1689 1.387 . S
C1691 C1693 1.390 . S
C1691 H1695 0.950 . S
H1692 C1688 0.950 . S
C1693 C1691 1.390 . S
C1693 C1694 1.387 . S
C1693 H1696 0.950 . S
C1694 C1693 1.387 . S
C1694 C1697 1.387 . S
H1695 C1691 0.950 . S
H1696 C1693 0.950 . S
C1697 C1688 1.390 . S
C1697 H1690 0.950 . S
C1697 C1694 1.387 . S
C1698 C1699 1.387 . S
C1698 H1702 0.950 . S
C1698 C1707 1.390 . S
C1699 C1698 1.387 . S
C1699 C1701 1.387 . S
H1700 C1707 0.950 . S
C1701 C1699 1.387 . S
C1701 C1703 1.390 . S
C1701 H1705 0.950 . S
H1702 C1698 0.950 . S
C1703 C1701 1.390 . S
C1703 C1704 1.387 . S
C1703 H1706 0.950 . S
C1704 C1703 1.387 . S
C1704 C1707 1.387 . S
H1705 C1701 0.950 . S
H1706 C1703 0.950 . S
C1707 C1698 1.390 . S
C1707 H1700 0.950 . S
C1707 C1704 1.387 . S
C1708 C1709 1.387 . S
C1708 H1712 0.950 . S
C1708 C1717 1.390 . S
C1709 C1708 1.387 . S
C1709 C1711 1.387 . S
H1710 C1717 0.950 . S
C1711 C1709 1.387 . S
C1711 C1713 1.390 . S
C1711 H1715 0.950 . S
H1712 C1708 0.950 . S
C1713 C1711 1.390 . S
C1713 C1714 1.387 . S
C1713 H1716 0.950 . S
C1714 C1713 1.387 . S
C1714 C1717 1.387 . S
H1715 C1711 0.950 . S
H1716 C1713 0.950 . S
C1717 C1708 1.390 . S
C1717 H1710 0.950 . S
C1717 C1714 1.387 . S
C1718 C1719 1.387 . S
C1718 H1722 0.950 . S
C1718 C1727 1.390 . S
C1719 C1718 1.387 . S
C1719 C1721 1.387 . S
H1720 C1727 0.950 . S
C1721 C1719 1.387 . S
C1721 C1723 1.390 . S
C1721 H1725 0.950 . S
H1722 C1718 0.950 . S
C1723 C1721 1.390 . S
C1723 C1724 1.387 . S
C1723 H1726 0.950 . S
C1724 C1723 1.387 . S
C1724 C1727 1.387 . S
H1725 C1721 0.950 . S
H1726 C1723 0.950 . S
C1727 C1718 1.390 . S
C1727 H1720 0.950 . S
C1727 C1724 1.387 . S
C1728 C1729 1.387 . S
C1728 H1732 0.950 . S
C1728 C1737 1.390 . S
C1729 C1728 1.387 . S
C1729 C1731 1.387 . S
H1730 C1737 0.950 . S
C1731 C1729 1.387 . S
C1731 C1733 1.390 . S
C1731 H1735 0.950 . S
H1732 C1728 0.950 . S
C1733 C1731 1.390 . S
C1733 C1734 1.387 . S
C1733 H1736 0.950 . S
C1734 C1733 1.387 . S
C1734 C1737 1.387 . S
H1735 C1731 0.950 . S
H1736 C1733 0.950 . S
C1737 C1728 1.390 . S
C1737 H1730 0.950 . S
C1737 C1734 1.387 . S
C1738 C1739 1.387 . S
C1738 H1742 0.950 . S
C1738 C1747 1.390 . S
C1739 C1738 1.387 . S
C1739 C1741 1.387 . S
H1740 C1747 0.950 . S
C1741 C1739 1.387 . S
C1741 C1743 1.390 . S
C1741 H1745 0.950 . S
H1742 C1738 0.950 . S
C1743 C1741 1.390 . S
C1743 C1744 1.387 . S
C1743 H1746 0.950 . S
C1744 C1743 1.387 . S
C1744 C1747 1.387 . S
H1745 C1741 0.950 . S
H1746 C1743 0.950 . S
C1747 C1738 1.390 . S
C1747 H1740 0.950 . S
C1747 C1744 1.387 . S
C1748 C1749 1.387 . S
C1748 H1752 0.950 . S
C1748 C1757 1.390 . S
C1749 C1748 1.387 . S
C1749 C1751 1.387 . S
H1750 C1757 0.950 . S
C1751 C1749 1.387 . S
C1751 C1753 1.390 . S
C1751 H1755 0.950 . S
H1752 C1748 0.950 . S
C1753 C1751 1.390 . S
C1753 C1754 1.387 . S
C1753 H1756 0.950 . S
C1754 C1753 1.387 . S
C1754 C1757 1.387 . S
H1755 C1751 0.950 . S
H1756 C1753 0.950 . S
C1757 C1748 1.390 . S
C1757 H1750 0.950 . S
C1757 C1754 1.387 . S
C1758 C1759 1.387 . S
C1758 H1762 0.950 . S
C1758 C1767 1.390 . S
C1759 C1758 1.387 . S
C1759 C1761 1.387 . S
H1760 C1767 0.950 . S
C1761 C1759 1.387 . S
C1761 C1763 1.390 . S
C1761 H1765 0.950 . S
H1762 C1758 0.950 . S
C1763 C1761 1.390 . S
C1763 C1764 1.387 . S
C1763 H1766 0.950 . S
C1764 C1763 1.387 . S
C1764 C1767 1.387 . S
H1765 C1761 0.950 . S
H1766 C1763 0.950 . S
C1767 C1758 1.390 . S
C1767 H1760 0.950 . S
C1767 C1764 1.387 . S
C1768 C1769 1.387 . S
C1768 H1772 0.950 . S
C1768 C1777 1.390 . S
C1769 C1768 1.387 . S
C1769 C1771 1.387 . S
H1770 C1777 0.950 . S
C1771 C1769 1.387 . S
C1771 C1773 1.390 . S
C1771 H1775 0.950 . S
H1772 C1768 0.950 . S
C1773 C1771 1.390 . S
C1773 C1774 1.387 . S
C1773 H1776 0.950 . S
C1774 C1773 1.387 . S
C1774 C1777 1.387 . S
H1775 C1771 0.950 . S
H1776 C1773 0.950 . S
C1777 C1768 1.390 . S
C1777 H1770 0.950 . S
C1777 C1774 1.387 . S
C1778 C1779 1.387 . S
C1778 H1782 0.950 . S
C1778 C1787 1.390 . S
C1779 C1778 1.387 . S
C1779 C1781 1.387 . S
H1780 C1787 0.950 . S
C1781 C1779 1.387 . S
C1781 C1783 1.390 . S
C1781 H1785 0.950 . S
H1782 C1778 0.950 . S
C1783 C1781 1.390 . S
C1783 C1784 1.387 . S
C1783 H1786 0.950 . S
C1784 C1783 1.387 . S
C1784 C1787 1.387 . S
H1785 C1781 0.950 . S
H1786 C1783 0.950 . S
C1787 C1778 1.390 . S
C1787 H1780 0.950 . S
C1787 C1784 1.387 . S
C1788 C1789 1.387 . S
C1788 H1792 0.950 . S
C1788 C1797 1.390 . S
C1789 C1788 1.387 . S
C1789 C1791 1.387 . S
H1790 C1797 0.950 . S
C1791 C1789 1.387 . S
C1791 C1793 1.390 . S
C1791 H1795 0.950 . S
H1792 C1788 0.950 . S
C1793 C1791 1.390 . S
C1793 C1794 1.387 . S
C1793 H1796 0.950 . S
C1794 C1793 1.387 . S
C1794 C1797 1.387 . S
H1795 C1791 0.950 . S
H1796 C1793 0.950 . S
C1797 C1788 1.390 . S
C1797 H1790 0.950 . S
C1797 C1794 1.387 . S
C1798 C1799 1.387 . S
C1798 H1802 0.950 . S
C1798 C1807 1.390 . S
C1799 C1798 1.387 . S
C1799 C1801 1.387 . S
H1800 C1807 0.950 . S
C1801 C1799 1.387 . S
C1801 C1803 1.390 . S
C1801 H1805 0.950 . S
H1802 C1798 0.950 . S
C1803 C1801 1.390 . S
C1803 C1804 1.387 . S
C1803 H1806 0.950 . S
C1804 C1803 1.387 . S
C1804 C1807 1.387 . S
H1805 C1801 0.950 . S
H1806 C1803 0.950 . S
C1807 C1798 1.390 . S
C1807 H1800 0.950 . S
C1807 C1804 1.387 . S
C1808 C1809 1.387 . S
C1808 H1812 0.950 . S
C1808 C1817 1.390 . S
C1809 C1808 1.387 . S
C1809 C1811 1.387 . S
H1810 C1817 0.950 . S
C1811 C1809 1.387 . S
C1811 C1813 1.390 . S
C1811 H1815 0.950 . S
H1812 C1808 0.950 . S
C1813 C1811 1.390 . S
C1813 C1814 1.387 . S
C1813 H1816 0.950 . S
C1814 C1813 1.387 . S
C1814 C1817 1.387 . S
H1815 C1811 0.950 . S
H1816 C1813 0.950 . S
C1817 C1808 1.390 . S
C1817 H1810 0.950 . S
C1817 C1814 1.387 . S
C1818 C1819 1.387 . S
C1818 H1822 0.950 . S
C1818 C1827 1.390 . S
C1819 C1818 1.387 . S
C1819 C1821 1.387 . S
H1820 C1827 0.950 . S
C1821 C1819 1.387 . S
C1821 C1823 1.390 . S
C1821 H1825 0.950 . S
H1822 C1818 0.950 . S
C1823 C1821 1.390 . S
C1823 C1824 1.387 . S
C1823 H1826 0.950 . S
C1824 C1823 1.387 . S
C1824 C1827 1.387 . S
H1825 C1821 0.950 . S
H1826 C1823 0.950 . S
C1827 C1818 1.390 . S
C1827 H1820 0.950 . S
C1827 C1824 1.387 . S
C1828 C1829 1.387 . S
C1828 H1832 0.950 . S
C1828 C1837 1.390 . S
C1829 C1828 1.387 . S
C1829 C1831 1.387 . S
H1830 C1837 0.950 . S
C1831 C1829 1.387 . S
C1831 C1833 1.390 . S
C1831 H1835 0.950 . S
H1832 C1828 0.950 . S
C1833 C1831 1.390 . S
C1833 C1834 1.387 . S
C1833 H1836 0.950 . S
C1834 C1833 1.387 . S
C1834 C1837 1.387 . S
H1835 C1831 0.950 . S
H1836 C1833 0.950 . S
C1837 C1828 1.390 . S
C1837 H1830 0.950 . S
C1837 C1834 1.387 . S
C1838 C1839 1.387 . S
C1838 H1842 0.950 . S
C1838 C1847 1.390 . S
C1839 C1838 1.387 . S
C1839 C1841 1.387 . S
H1840 C1847 0.950 . S
C1841 C1839 1.387 . S
C1841 C1843 1.390 . S
C1841 H1845 0.950 . S
H1842 C1838 0.950 . S
C1843 C1841 1.390 . S
C1843 C1844 1.387 . S
C1843 H1846 0.950 . S
C1844 C1843 1.387 . S
C1844 C1847 1.387 . S
H1845 C1841 0.950 . S
H1846 C1843 0.950 . S
C1847 C1838 1.390 . S
C1847 H1840 0.950 . S
C1847 C1844 1.387 . S
C1848 C1849 1.387 . S
C1848 H1852 0.950 . S
C1848 C1857 1.390 . S
C1849 C1848 1.387 . S
C1849 C1851 1.387 . S
H1850 C1857 0.950 . S
C1851 C1849 1.387 . S
C1851 C1853 1.390 . S
C1851 H1855 0.950 . S
H1852 C1848 0.950 . S
C1853 C1851 1.390 . S
C1853 C1854 1.387 . S
C1853 H1856 0.950 . S
C1854 C1853 1.387 . S
C1854 C1857 1.387 . S
H1855 C1851 0.950 . S
H1856 C1853 0.950 . S
C1857 C1848 1.390 . S
C1857 H1850 0.950 . S
C1857 C1854 1.387 . S
C1858 C1859 1.387 . S
C1858 H1862 0.950 . S
C1858 C1867 1.390 . S
C1859 C1858 1.387 . S
C1859 C1861 1.387 . S
H1860 C1867 0.950 . S
C1861 C1859 1.387 . S
C1861 C1863 1.390 . S
C1861 H1865 0.950 . S
H1862 C1858 0.950 . S
C1863 C1861 1.390 . S
C1863 C1864 1.387 . S
C1863 H1866 0.950 . S
C1864 C1863 1.387 . S
C1864 C1867 1.387 . S
H1865 C1861 0.950 . S
H1866 C1863 0.950 . S
C1867 C1858 1.390 . S
C1867 H1860 0.950 . S
C1867 C1864 1.387 . S
C1868 C1869 1.387 . S
C1868 H1872 0.950 . S
C1868 C1877 1.390 . S
C1869 C1868 1.387 . S
C1869 C1871 1.387 . S
H1870 C1877 0.950 . S
C1871 C1869 1.387 . S
C1871 C1873 1.390 . S
C1871 H1875 0.950 . S
H1872 C1868 0.950 . S
C1873 C1871 1.390 . S
C1873 C1874 1.387 . S
C1873 H1876 0.950 . S
C1874 C1873 1.387 . S
C1874 C1877 1.387 . S
H1875 C1871 0.950 . S
H1876 C1873 0.950 . S
C1877 C1868 1.390 . S
C1877 H1870 0.950 . S
C1877 C1874 1.387 . S
C1878 C1879 1.387 . S
C1878 H1882 0.950 . S
C1878 C1887 1.390 . S
C1879 C1878 1.387 . S
C1879 C1881 1.387 . S
H1880 C1887 0.950 . S
C1881 C1879 1.387 . S
C1881 C1883 1.390 . S
C1881 H1885 0.950 . S
H1882 C1878 0.950 . S
C1883 C1881 1.390 . S
C1883 C1884 1.387 . S
C1883 H1886 0.950 . S
C1884 C1883 1.387 . S
C1884 C1887 1.387 . S
H1885 C1881 0.950 . S
H1886 C1883 0.950 . S
C1887 C1878 1.390 . S
C1887 H1880 0.950 . S
C1887 C1884 1.387 . S
C1888 C1889 1.387 . S
C1888 H1892 0.950 . S
C1888 C1897 1.390 . S
C1889 C1888 1.387 . S
C1889 C1891 1.387 . S
H1890 C1897 0.950 . S
C1891 C1889 1.387 . S
C1891 C1893 1.390 . S
C1891 H1895 0.950 . S
H1892 C1888 0.950 . S
C1893 C1891 1.390 . S
C1893 C1894 1.387 . S
C1893 H1896 0.950 . S
C1894 C1893 1.387 . S
C1894 C1897 1.387 . S
H1895 C1891 0.950 . S
H1896 C1893 0.950 . S
C1897 C1888 1.390 . S
C1897 H1890 0.950 . S
C1897 C1894 1.387 . S
C1898 C1899 1.387 . S
C1898 H1902 0.950 . S
C1898 C1907 1.390 . S
C1899 C1898 1.387 . S
C1899 C1901 1.387 . S
H1900 C1907 0.950 . S
C1901 C1899 1.387 . S
C1901 C1903 1.390 . S
C1901 H1905 0.950 . S
H1902 C1898 0.950 . S
C1903 C1901 1.390 . S
C1903 C1904 1.387 . S
C1903 H1906 0.950 . S
C1904 C1903 1.387 . S
C1904 C1907 1.387 . S
H1905 C1901 0.950 . S
H1906 C1903 0.950 . S
C1907 C1898 1.390 . S
C1907 H1900 0.950 . S
C1907 C1904 1.387 . S
C829 C16 1.199 . S
C834 C85 1.201 . S
C839 C39 1.198 . S
C844 C108 1.198 . S
C849 C131 1.200 . S
C854 C62 1.201 . S
C859 C154 1.230 . S
C864 C223 1.231 . S
C869 C177 1.229 . S
C874 C246 1.229 . S
C879 C200 1.229 . S
C884 C269 1.229 . S
C889 C361 1.197 . S
C894 C292 1.198 . S
C899 C315 1.200 . S
C904 C384 1.201 . S
C909 C338 1.201 . S
C914 C407 1.200 . S
C919 C430 1.229 . S
C924 C499 1.229 . S
C929 C453 1.231 . S
C934 C522 1.231 . S
C939 C476 1.231 . S
C944 C545 1.230 . S
C949 C568 1.199 . S
C954 C637 1.197 . S
C959 C591 1.198 . S
C964 C660 1.198 . S
C969 C683 1.200 . S
C974 C614 1.201 . S
C979 C706 1.229 . S
C984 C775 1.229 . S
C989 C729 1.229 . S
C994 C798 1.229 . S
C999 C752 1.229 . S
C1004 C821 1.230 . S
C1009 C21 1.002 . S
C1014 C435 1.024 . S
C1019 C44 0.998 . S
C1024 C458 1.023 . S
C1029 C67 1.002 . S
C1034 C481 1.024 . S
C1039 C780 1.023 . S
C1044 C90 1.000 . S
C1049 C113 1.003 . S
C1054 C803 1.025 . S
C1059 C826 1.024 . S
C1064 C136 1.002 . S
C1069 C159 1.023 . S
C1074 C573 1.000 . S
C1079 C182 1.024 . S
C1084 C596 1.002 . S
C1089 C619 1.001 . S
C1094 C205 1.024 . S
C1099 C228 1.025 . S
C1104 C366 1.003 . S
C1109 C389 1.003 . S
C1114 C251 1.025 . S
C1119 C274 1.023 . S
C1124 C412 1.000 . S
C1129 C297 1.001 . S
C1134 C711 1.024 . S
C1139 C320 1.002 . S
C1144 C734 1.024 . S
C1149 C757 1.025 . S
C1154 C343 1.003 . S
C1159 C642 1.000 . S
C1164 C504 1.023 . S
C1169 C665 0.999 . S
C1174 C527 1.023 . S
C1179 C550 1.023 . S
C1184 C688 1.000 . S
C1189 C42 1.211 . S
C1194 C18 1.348 . S
C1199 C41 1.347 . S
C1204 C65 1.209 . S
C1209 C64 1.349 . S
C1214 C19 1.209 . S
C1219 C87 1.349 . S
C1224 C134 1.210 . S
C1229 C110 1.347 . S
C1234 C88 1.205 . S
C1239 C133 1.348 . S
C1244 C111 1.210 . S
C1249 C181 1.333 . S
C1254 C156 1.413 . S
C1259 C204 1.324 . S
C1264 C179 1.413 . S
C1269 C202 1.413 . S
C1274 C158 1.328 . S
C1279 C225 1.413 . S
C1284 C273 1.333 . S
C1289 C227 1.328 . S
C1294 C248 1.413 . S
C1299 C250 1.321 . S
C1304 C271 1.413 . S
C1309 C318 1.206 . S
C1314 C294 1.348 . S
C1319 C341 1.205 . S
C1324 C317 1.347 . S
C1329 C340 1.349 . S
C1334 C295 1.211 . S
C1339 C410 1.211 . S
C1344 C363 1.349 . S
C1349 C364 1.208 . S
C1354 C386 1.347 . S
C1359 C409 1.348 . S
C1364 C387 1.206 . S
C1369 C432 1.414 . S
C1374 C457 1.323 . S
C1379 C480 1.321 . S
C1384 C455 1.414 . S
C1389 C478 1.414 . S
C1394 C434 1.322 . S
C1399 C501 1.413 . S
C1404 C549 1.325 . S
C1409 C524 1.414 . S
C1414 C503 1.322 . S
C1419 C547 1.413 . S
C1424 C526 1.322 . S
C1429 C594 1.207 . S
C1434 C570 1.348 . S
C1439 C593 1.349 . S
C1444 C617 1.211 . S
C1449 C616 1.349 . S
C1454 C571 1.211 . S
C1459 C686 1.211 . S
C1464 C639 1.349 . S
C1469 C640 1.205 . S
C1474 C662 1.347 . S
C1479 C685 1.348 . S
C1484 C663 1.210 . S
C1489 C708 1.414 . S
C1494 C733 1.325 . S
C1499 C756 1.325 . S
C1504 C731 1.413 . S
C1509 C710 1.326 . S
C1514 C754 1.414 . S
C1519 C825 1.324 . S
C1524 C777 1.413 . S
C1529 C800 1.413 . S
C1534 C779 1.326 . S
C1539 C823 1.414 . S
C1544 C802 1.325 . S
C1549 C180 1.524 . S
C1554 C17 1.871 . S
C1559 C40 1.873 . S
C1564 C203 1.530 . S
C1569 C63 1.871 . S
C1574 C157 1.524 . S
C1579 C86 1.872 . S
C1584 C272 1.529 . S
C1589 C226 1.523 . S
C1594 C109 1.871 . S
C1599 C249 1.528 . S
C1604 C132 1.873 . S
C1609 C43 1.646 1_565 S
C1614 C155 1.868 . S
C1619 C178 1.868 . S
C1624 C66 1.647 1_455 S
C1629 C201 1.868 . S
C1634 C20 1.647 . S
C1639 C135 1.649 1_655 S
C1644 C224 1.868 . S
C1649 C89 1.650 . S
C1654 C247 1.869 . S
C1659 C270 1.868 . S
C1664 C112 1.646 1_545 S
C1669 C293 1.871 . S
C1674 C456 1.523 . S
C1679 C316 1.873 . S
C1684 C479 1.528 . S
C1689 C339 1.871 . S
C1694 C433 1.525 . S
C1699 C548 1.526 . S
C1704 C362 1.872 . S
C1709 C385 1.873 . S
C1714 C502 1.528 . S
C1719 C525 1.523 . S
C1724 C408 1.871 . S
C1729 C319 1.650 . S
C1734 C431 1.869 . S
C1739 C342 1.647 . S
C1744 C454 1.868 . S
C1749 C296 1.647 . S
C1754 C477 1.867 . S
C1759 C411 1.647 . S
C1764 C500 1.867 . S
C1769 C365 1.650 . S
C1774 C523 1.869 . S
C1779 C546 1.870 . S
C1784 C388 1.650 . S
C1789 C569 1.871 . S
C1794 C732 1.523 . S
C1799 C592 1.872 . S
C1804 C755 1.527 . S
C1809 C709 1.528 . S
C1814 C615 1.872 . S
C1819 C824 1.524 . S
C1824 C638 1.871 . S
C1829 C778 1.528 . S
C1834 C661 1.873 . S
C1839 C684 1.871 . S
C1844 C801 1.523 . S
C1849 C707 1.868 . S
C1854 C595 1.647 . S
C1859 C730 1.867 . S
C1864 C618 1.646 . S
C1869 C753 1.868 . S
C1874 C572 1.648 . S
C1879 C776 1.868 . S
C1884 C687 1.647 . S
C1889 C799 1.869 . S
C1894 C641 1.650 . S
C1899 C664 1.646 . S
C1904 C822 1.868 . S
