# Generated by pormake.
# Topology wjd, (6)-cn, num edge types: 1
# Building blocks:
#     Node 0, Type 0, BuildingBlock: MIDCAF_clean_sbu_0, # of connection points: 6
#     Node 1, Type 0, BuildingBlock: MIDCAF_clean_sbu_0, # of connection points: 6
#     Node 2, Type 0, BuildingBlock: MIDCAF_clean_sbu_0, # of connection points: 6
#     Node 3, Type 0, BuildingBlock: MIDCAF_clean_sbu_0, # of connection points: 6
#     Node 4, Type 0, BuildingBlock: MIDCAF_clean_sbu_0, # of connection points: 6
#     Node 5, Type 0, BuildingBlock: MIDCAF_clean_sbu_0, # of connection points: 6
#     Node 6, Type 0, BuildingBlock: MIDCAF_clean_sbu_0, # of connection points: 6
#     Node 7, Type 0, BuildingBlock: MIDCAF_clean_sbu_0, # of connection points: 6
#     Node 8, Type 0, BuildingBlock: MIDCAF_clean_sbu_0, # of connection points: 6
#     Node 9, Type 0, BuildingBlock: MIDCAF_clean_sbu_0, # of connection points: 6
#     Node 10, Type 0, BuildingBlock: MIDCAF_clean_sbu_0, # of connection points: 6
#     Node 11, Type 0, BuildingBlock: MIDCAF_clean_sbu_0, # of connection points: 6
#     Edge 12, Type (0, 0), BuildingBlock: EYOCIG_clean_linker_4, # of connection points: 2
#     Edge 13, Type (0, 0), BuildingBlock: EYOCIG_clean_linker_4, # of connection points: 2
#     Edge 14, Type (0, 0), BuildingBlock: EYOCIG_clean_linker_4, # of connection points: 2
#     Edge 15, Type (0, 0), BuildingBlock: EYOCIG_clean_linker_4, # of connection points: 2
#     Edge 16, Type (0, 0), BuildingBlock: EYOCIG_clean_linker_4, # of connection points: 2
#     Edge 17, Type (0, 0), BuildingBlock: EYOCIG_clean_linker_4, # of connection points: 2
#     Edge 18, Type (0, 0), BuildingBlock: EYOCIG_clean_linker_4, # of connection points: 2
#     Edge 19, Type (0, 0), BuildingBlock: EYOCIG_clean_linker_4, # of connection points: 2
#     Edge 20, Type (0, 0), BuildingBlock: EYOCIG_clean_linker_4, # of connection points: 2
#     Edge 21, Type (0, 0), BuildingBlock: EYOCIG_clean_linker_4, # of connection points: 2
#     Edge 22, Type (0, 0), BuildingBlock: EYOCIG_clean_linker_4, # of connection points: 2
#     Edge 23, Type (0, 0), BuildingBlock: EYOCIG_clean_linker_4, # of connection points: 2
#     Edge 24, Type (0, 0), BuildingBlock: EYOCIG_clean_linker_4, # of connection points: 2
#     Edge 25, Type (0, 0), BuildingBlock: EYOCIG_clean_linker_4, # of connection points: 2
#     Edge 26, Type (0, 0), BuildingBlock: EYOCIG_clean_linker_4, # of connection points: 2
#     Edge 27, Type (0, 0), BuildingBlock: EYOCIG_clean_linker_4, # of connection points: 2
#     Edge 28, Type (0, 0), BuildingBlock: EYOCIG_clean_linker_4, # of connection points: 2
#     Edge 29, Type (0, 0), BuildingBlock: EYOCIG_clean_linker_4, # of connection points: 2
#     Edge 30, Type (0, 0), BuildingBlock: EYOCIG_clean_linker_4, # of connection points: 2
#     Edge 31, Type (0, 0), BuildingBlock: EYOCIG_clean_linker_4, # of connection points: 2
#     Edge 32, Type (0, 0), BuildingBlock: EYOCIG_clean_linker_4, # of connection points: 2
#     Edge 33, Type (0, 0), BuildingBlock: EYOCIG_clean_linker_4, # of connection points: 2
#     Edge 34, Type (0, 0), BuildingBlock: EYOCIG_clean_linker_4, # of connection points: 2
#     Edge 35, Type (0, 0), BuildingBlock: EYOCIG_clean_linker_4, # of connection points: 2
#     Edge 36, Type (0, 0), BuildingBlock: EYOCIG_clean_linker_4, # of connection points: 2
#     Edge 37, Type (0, 0), BuildingBlock: EYOCIG_clean_linker_4, # of connection points: 2
#     Edge 38, Type (0, 0), BuildingBlock: EYOCIG_clean_linker_4, # of connection points: 2
#     Edge 39, Type (0, 0), BuildingBlock: EYOCIG_clean_linker_4, # of connection points: 2
#     Edge 40, Type (0, 0), BuildingBlock: EYOCIG_clean_linker_4, # of connection points: 2
#     Edge 41, Type (0, 0), BuildingBlock: EYOCIG_clean_linker_4, # of connection points: 2
#     Edge 42, Type (0, 0), BuildingBlock: EYOCIG_clean_linker_4, # of connection points: 2
#     Edge 43, Type (0, 0), BuildingBlock: EYOCIG_clean_linker_4, # of connection points: 2
#     Edge 44, Type (0, 0), BuildingBlock: EYOCIG_clean_linker_4, # of connection points: 2
#     Edge 45, Type (0, 0), BuildingBlock: EYOCIG_clean_linker_4, # of connection points: 2
#     Edge 46, Type (0, 0), BuildingBlock: EYOCIG_clean_linker_4, # of connection points: 2
#     Edge 47, Type (0, 0), BuildingBlock: EYOCIG_clean_linker_4, # of connection points: 2
# Relax obj value: 0.343
# Max RMSD: 0.250
# Mean RMSD: 0.250
data_MOF--net-wjd--node1-MIDCAF_clean_sbu_0--edge1-EYOCIG_clean_linker_4
_symmetry_space_group_name_H-M    P1
_symmetry_Int_Tables_number       1
_symmetry_cell_setting            triclinic
loop_
_symmetry_equiv_pos_as_xyz
'x, y, z'
_cell_length_a     23.590965
_cell_length_b     23.589272
_cell_length_c     48.137109
_cell_angle_alpha  89.981214
_cell_angle_beta   90.013761
_cell_angle_gamma 119.97569
loop_
_atom_site_label
_atom_site_type_symbol
_atom_site_fract_x
_atom_site_fract_y
_atom_site_fract_z
_atom_type_partial_charge
Zn0 Zn 0.20335 0.04162 0.16069 0.0
Zn1 Zn 0.38126 0.13243 0.08895 0.0
Zn2 Zn 0.29148 0.07647 0.12458 0.0
C3 C 0.37869 0.23189 0.11658 0.0
C4 C 0.41835 0.06627 0.12607 0.0
O5 O 0.21047 -0.01428 0.10786 0.0
O6 O 0.15658 0.94982 0.14747 0.0
C7 C 0.20358 0.14356 0.13394 0.0
O8 O 0.32382 0.18198 0.12363 0.0
O9 O 0.41858 0.22475 0.1017 0.0
O10 O 0.42806 0.08661 0.10134 0.0
O11 O 0.37224 0.06545 0.14057 0.0
O12 O 0.16469 0.09638 0.14902 0.0
O13 O 0.2585 0.14917 0.12647 0.0
O14 O 0.3308 0.05734 0.1631 0.0
O15 O 0.26295 0.06327 0.19314 0.0
C16 C 0.31392 0.06018 0.18827 0.0
O17 O 0.25313 0.02139 0.08552 0.0
O18 O 0.32203 0.097 0.05628 0.0
C19 C 0.16494 0.94002 0.12244 0.0
C20 C 0.27055 0.04307 0.06061 0.0
Zn21 Zn 0.69533 0.54853 0.4116 0.0
Zn22 Zn 0.78235 0.72663 0.33986 0.0
Zn23 Zn 0.72916 0.63842 0.37598 0.0
C24 C 0.69046 0.6161 0.31226 0.0
C25 C 0.88411 0.72641 0.36657 0.0
O26 O 0.7123 0.67666 0.41505 0.0
O27 O 0.71895 0.60768 0.44429 0.0
C28 C 0.59221 0.51148 0.37443 0.0
O29 O 0.67079 0.59915 0.33744 0.0
O30 O 0.74445 0.66712 0.30739 0.0
O31 O 0.87577 0.76529 0.35149 0.0
O32 O 0.83484 0.67149 0.37407 0.0
O33 O 0.6028 0.5017 0.39917 0.0
O34 O 0.63749 0.55766 0.35996 0.0
O35 O 0.8024 0.60617 0.37694 0.0
O36 O 0.75049 0.51136 0.39887 0.0
C37 C 0.79751 0.55131 0.384 0.0
O38 O 0.71929 0.71935 0.39272 0.0
O39 O 0.7373 0.77336 0.35313 0.0
C40 C 0.71649 0.65918 0.43997 0.0
C41 C 0.7191 0.76492 0.37816 0.0
Zn42 Zn 0.88818 0.14759 0.16068 0.0
Zn43 Zn 0.79724 0.23496 0.08899 0.0
Zn44 Zn 0.85322 0.20095 0.12459 0.0
C45 C 0.69782 0.13276 0.11656 0.0
C46 C 0.86334 0.338 0.12618 0.0
O47 O 0.94399 0.21079 0.10784 0.0
O48 O -0.02006 0.19261 0.14741 0.0
C49 C 0.78619 0.04597 0.13397 0.0
O50 O 0.74777 0.12781 0.12361 0.0
O51 O 0.70493 0.17986 0.10172 0.0
O52 O 0.84299 0.32748 0.10144 0.0
O53 O 0.8642 0.29265 0.14064 0.0
O54 O 0.83339 0.0542 0.14903 0.0
O55 O 0.78059 0.0953 0.1265 0.0
O56 O 0.87236 0.25927 0.16314 0.0
O57 O 0.86662 0.1855 0.19316 0.0
C58 C 0.86963 0.23954 0.18831 0.0
O59 O 0.90829 0.21778 0.08552 0.0
O60 O 0.83272 0.2113 0.0563 0.0
C61 C -0.01028 0.2109 0.12239 0.0
C62 C 0.88662 0.21364 0.06061 0.0
Zn63 Zn 0.38172 0.13252 0.41142 0.0
Zn64 Zn 0.20366 0.04177 0.33972 0.0
Zn65 Zn 0.29189 0.07666 0.37581 0.0
C66 C 0.31417 0.06032 0.31211 0.0
C67 C 0.20397 0.14375 0.36646 0.0
O68 O 0.25356 0.02156 0.41487 0.0
O69 O 0.32255 0.09712 0.4441 0.0
C70 C 0.41876 0.06643 0.37427 0.0
O71 O 0.33112 0.05752 0.33728 0.0
O72 O 0.26318 0.06339 0.30725 0.0
O73 O 0.16505 0.09656 0.3514 0.0
O74 O 0.25892 0.14936 0.37391 0.0
O75 O 0.42849 0.08671 0.39901 0.0
O76 O 0.37264 0.06565 0.35979 0.0
O77 O 0.32423 0.18215 0.37677 0.0
O78 O 0.41903 0.22486 0.39868 0.0
C79 C 0.37911 0.23204 0.38382 0.0
O80 O 0.21093 -0.01412 0.39254 0.0
O81 O 0.15692 0.94997 0.35296 0.0
C82 C 0.27102 0.04323 0.43979 0.0
C83 C 0.16537 0.94017 0.37799 0.0
Zn84 Zn 0.69494 0.54844 0.08911 0.0
Zn85 Zn 0.78195 0.72646 0.16076 0.0
Zn86 Zn 0.72871 0.63823 0.1247 0.0
C87 C 0.69015 0.61592 0.18841 0.0
C88 C 0.88366 0.72629 0.13403 0.0
O89 O 0.71186 0.6765 0.08563 0.0
O90 O 0.71863 0.60759 0.05641 0.0
C91 C 0.59177 0.51131 0.12624 0.0
O92 O 0.67039 0.59895 0.16324 0.0
O93 O 0.74417 0.66694 0.19325 0.0
O94 O 0.87534 0.76519 0.14908 0.0
O95 O 0.8344 0.67132 0.12658 0.0
O96 O 0.60238 0.50162 0.1015 0.0
O97 O 0.63704 0.55744 0.14073 0.0
O98 O 0.80197 0.606 0.12376 0.0
O99 O 0.75001 0.51117 0.10187 0.0
C100 C 0.79705 0.55112 0.11673 0.0
O101 O 0.71878 0.71915 0.10795 0.0
O102 O 0.73679 0.77314 0.14753 0.0
C103 C 0.71613 0.65906 0.06072 0.0
C104 C 0.71857 0.7647 0.1225 0.0
Zn105 Zn 0.7976 0.23496 0.41145 0.0
Zn106 Zn 0.88855 0.14781 0.33981 0.0
Zn107 Zn 0.85363 0.20114 0.37588 0.0
C108 C 0.86987 0.23971 0.31217 0.0
C109 C 0.78668 0.04617 0.36657 0.0
O110 O 0.90871 0.21793 0.41495 0.0
O111 O 0.83301 0.21117 0.44415 0.0
C112 C 0.86376 0.33817 0.37434 0.0
O113 O 0.87271 0.25949 0.33734 0.0
O114 O 0.86682 0.18566 0.30734 0.0
O115 O 0.83387 0.05443 0.35151 0.0
O116 O 0.78102 0.09549 0.37401 0.0
O117 O 0.8434 0.32754 0.39907 0.0
O118 O 0.8646 0.29288 0.35985 0.0
O119 O 0.74817 0.12797 0.37681 0.0
O120 O 0.7053 0.17998 0.39869 0.0
C121 C 0.69821 0.13293 0.38384 0.0
O122 O 0.94443 0.21097 0.39263 0.0
O123 O -0.01965 0.19291 0.35304 0.0
C124 C 0.88697 0.21365 0.43986 0.0
C125 C -0.00985 0.21115 0.37807 0.0
Zn126 Zn 0.11853 0.3958 0.58902 0.0
Zn127 Zn 0.0278 0.2177 0.66068 0.0
Zn128 Zn 0.06264 0.30593 0.62461 0.0
C129 C 0.04635 0.32817 0.68831 0.0
C130 C 0.12973 0.21799 0.63391 0.0
O131 O 0.00759 0.26762 0.58554 0.0
O132 O 0.08321 0.33662 0.55633 0.0
C133 C 0.05234 0.43275 0.62615 0.0
O134 O 0.04349 0.34512 0.66315 0.0
O135 O 0.04948 0.2772 0.69316 0.0
O136 O 0.08254 0.17904 0.64896 0.0
O137 O 0.13536 0.27297 0.62648 0.0
O138 O 0.07262 0.44249 0.60141 0.0
O139 O 0.05159 0.38664 0.64063 0.0
O140 O 0.16814 0.33829 0.62367 0.0
O141 O 0.21083 0.43315 0.6018 0.0
C142 C 0.21802 0.39322 0.61665 0.0
O143 O -0.02812 0.22497 0.60787 0.0
O144 O 0.93599 0.17099 0.64746 0.0
C145 C 0.02931 0.28509 0.56064 0.0
C146 C 0.92618 0.17943 0.62244 0.0
Zn147 Zn 0.22071 0.81124 0.91146 0.0
Zn148 Zn 0.13343 0.9023 0.83983 0.0
Zn149 Zn 0.18678 0.86729 0.87589 0.0
C150 C 0.2253 0.88366 0.81217 0.0
C151 C 0.03181 0.80036 0.86658 0.0
O152 O 0.20359 0.92231 0.91496 0.0
O153 O 0.19695 0.84662 0.94417 0.0
C154 C 0.3238 0.87743 0.87431 0.0
O155 O 0.24507 0.88643 0.83733 0.0
O156 O 0.17125 0.88064 0.80734 0.0
O157 O 0.04006 0.84759 0.85153 0.0
O158 O 0.08112 0.79468 0.87401 0.0
O159 O 0.31325 0.85707 0.89904 0.0
O160 O 0.27847 0.87827 0.85984 0.0
O161 O 0.11361 0.76183 0.87683 0.0
O162 O 0.16568 0.71896 0.89869 0.0
C163 C 0.11859 0.71188 0.88384 0.0
O164 O 0.19667 0.95807 0.89265 0.0
O165 O 0.17856 -0.00592 0.85308 0.0
C166 C 0.19936 0.90056 0.93987 0.0
C167 C 0.19684 0.00383 0.8781 0.0
Zn168 Zn 0.53445 0.70951 0.58904 0.0
Zn169 Zn 0.71256 0.7965 0.66072 0.0
Zn170 Zn 0.62429 0.74331 0.62464 0.0
C171 C 0.60204 0.70465 0.68836 0.0
C172 C 0.71233 0.89825 0.634 0.0
O173 O 0.6625 0.72644 0.58557 0.0
O174 O 0.59355 0.73315 0.55633 0.0
C175 C 0.49738 0.60636 0.6262 0.0
O176 O 0.58505 0.68495 0.66319 0.0
O177 O 0.65308 0.75865 0.69321 0.0
O178 O 0.75123 0.8899 0.64906 0.0
O179 O 0.65737 0.84899 0.62654 0.0
O180 O 0.48763 0.61696 0.60146 0.0
O181 O 0.54354 0.65163 0.64068 0.0
O182 O 0.59205 0.81656 0.62369 0.0
O183 O 0.49724 0.76463 0.60178 0.0
C184 C 0.53718 0.81166 0.61664 0.0
O185 O 0.70519 0.73339 0.60789 0.0
O186 O 0.75924 0.75138 0.64746 0.0
C187 C 0.64503 0.73065 0.56065 0.0
C188 C 0.75076 0.73318 0.62243 0.0
Zn189 Zn 0.02762 0.21744 0.83982 0.0
Zn190 Zn 0.11847 0.39553 0.91148 0.0
Zn191 Zn 0.06256 0.30568 0.87589 0.0
C192 C 0.21795 0.39291 0.88389 0.0
C193 C 0.05231 0.43253 0.87432 0.0
O194 O -0.0282 0.22472 0.89264 0.0
O195 O 0.93584 0.17072 0.85306 0.0
C196 C 0.12961 0.21774 0.86656 0.0
O197 O 0.16805 0.33801 0.87685 0.0
O198 O 0.21079 0.43283 0.89875 0.0
O199 O 0.07264 0.44229 0.89906 0.0
O200 O 0.05151 0.3864 0.85985 0.0
O201 O 0.0824 0.17881 0.85151 0.0
O202 O 0.13524 0.2727 0.874 0.0
O203 O 0.04342 0.34492 0.83734 0.0
O204 O 0.04925 0.27696 0.80733 0.0
C205 C 0.0462 0.32797 0.81218 0.0
O206 O 0.00749 0.26739 0.91496 0.0
O207 O 0.08308 0.33638 0.94418 0.0
C208 C 0.92608 0.17916 0.87809 0.0
C209 C 0.02917 0.28487 0.93987 0.0
Zn210 Zn 0.22085 0.81154 0.58902 0.0
Zn211 Zn 0.13361 0.90259 0.6606 0.0
Zn212 Zn 0.18692 0.86758 0.62456 0.0
C213 C 0.22543 0.88389 0.68828 0.0
C214 C 0.03197 0.80066 0.63388 0.0
O215 O 0.20376 0.92262 0.58547 0.0
O216 O 0.19713 0.84693 0.5563 0.0
C217 C 0.32396 0.87773 0.62617 0.0
O218 O 0.24522 0.88667 0.66312 0.0
O219 O 0.1714 0.8809 0.69311 0.0
O220 O 0.04024 0.8479 0.64891 0.0
O221 O 0.08127 0.79497 0.62645 0.0
O222 O 0.3134 0.85736 0.60144 0.0
O223 O 0.27863 0.87857 0.64063 0.0
O224 O 0.11375 0.76211 0.62362 0.0
O225 O 0.16582 0.71925 0.6018 0.0
C226 C 0.11872 0.71216 0.61662 0.0
O227 O 0.1968 0.95837 0.60778 0.0
O228 O 0.17874 -0.00563 0.64734 0.0
C229 C 0.19955 0.90088 0.56057 0.0
C230 C 0.19699 0.00413 0.62231 0.0
Zn231 Zn 0.53432 0.70918 0.91151 0.0
Zn232 Zn 0.71241 0.79627 0.83989 0.0
Zn233 Zn 0.62419 0.74303 0.87595 0.0
C234 C 0.60194 0.70449 0.81223 0.0
C235 C 0.71223 0.89799 0.86662 0.0
O236 O 0.66241 0.72617 0.91503 0.0
O237 O 0.59342 0.7329 0.94422 0.0
C238 C 0.49732 0.60604 0.87438 0.0
O239 O 0.58496 0.68472 0.8374 0.0
O240 O 0.65295 0.75852 0.8074 0.0
O241 O 0.75113 0.88965 0.85157 0.0
O242 O 0.65725 0.84872 0.87406 0.0
O243 O 0.48757 0.61661 0.89912 0.0
O244 O 0.54345 0.65135 0.85991 0.0
O245 O 0.59193 0.81627 0.87687 0.0
O246 O 0.49706 0.76423 0.89872 0.0
C247 C 0.53702 0.81131 0.88387 0.0
O248 O 0.70509 0.73311 0.89272 0.0
O249 O 0.75907 0.7511 0.85314 0.0
C250 C 0.64492 0.73042 0.93993 0.0
C251 C 0.75063 0.73289 0.87817 0.0
C252 C 0.10329 0.22767 0.10945 0.0
C253 C 0.05079 0.2244 0.11055 0.0
C254 C 0.15323 0.21307 0.11503 0.0
C255 C 0.18233 0.18578 0.1223 0.0
C256 C 0.06851 0.82666 0.39096 0.0
C257 C 0.11775 0.87913 0.38983 0.0
C258 C 0.00397 0.77675 0.38541 0.0
C259 C 0.94758 0.74766 0.37817 0.0
C260 C 0.71658 0.92615 0.1151 0.0
C261 C 0.74392 -0.01747 0.12236 0.0
C262 C 0.7019 0.86159 0.10954 0.0
C263 C 0.70513 0.81233 0.11065 0.0
C264 C 0.15366 0.21326 0.38538 0.0
C265 C 0.18275 0.18597 0.3781 0.0
C266 C 0.10374 0.22786 0.39097 0.0
C267 C 0.05124 0.22461 0.38989 0.0
C268 C 0.06799 0.82652 0.10953 0.0
C269 C 0.11726 0.87898 0.11062 0.0
C270 C 0.00347 0.77664 0.11512 0.0
C271 C 0.94711 0.74754 0.1224 0.0
C272 C 0.70248 0.86183 0.39109 0.0
C273 C 0.70569 0.81256 0.39 0.0
C274 C 0.71715 0.92638 0.3855 0.0
C275 C 0.74445 -0.01726 0.37821 0.0
C276 C 0.21378 0.11773 0.60937 0.0
C277 C 0.2105 0.06522 0.61047 0.0
C278 C 0.19921 0.16768 0.61496 0.0
C279 C 0.17194 0.19678 0.62225 0.0
C280 C 0.91204 0.73084 0.88551 0.0
C281 C -0.03161 0.75814 0.87822 0.0
C282 C 0.84751 0.7162 0.89111 0.0
C283 C 0.79825 0.71944 0.89001 0.0
C284 C 0.7627 0.01809 0.6151 0.0
C285 C 0.73358 0.96171 0.62237 0.0
C286 C 0.81262 0.0826 0.60952 0.0
C287 C 0.86511 0.13182 0.61062 0.0
C288 C 0.19913 0.16741 0.88547 0.0
C289 C 0.17185 0.19653 0.8782 0.0
C290 C 0.21369 0.11744 0.89105 0.0
C291 C 0.21038 0.06492 0.88994 0.0
C292 C 0.91215 0.73111 0.615 0.0
C293 C -0.03147 0.75841 0.62226 0.0
C294 C 0.8476 0.71648 0.60945 0.0
C295 C 0.79836 0.71973 0.61058 0.0
C296 C 0.81255 0.08233 0.89105 0.0
C297 C 0.86503 0.13156 0.88993 0.0
C298 C 0.76261 0.01782 0.8855 0.0
C299 C 0.73348 0.96144 0.87824 0.0
C300 C 0.36752 0.05908 0.26487 0.0
C301 C 0.35118 0.05919 0.28862 0.0
C302 C 0.36745 0.05904 0.23549 0.0
C303 C 0.35102 0.0591 0.21175 0.0
C304 C 0.63582 0.56262 0.26505 0.0
C305 C 0.65231 0.57903 0.28879 0.0
C306 C 0.63573 0.56256 0.23567 0.0
C307 C 0.65209 0.57889 0.21191 0.0
C308 C 0.87086 0.29416 0.23554 0.0
C309 C 0.87075 0.27768 0.2118 0.0
C310 C 0.87092 0.29421 0.26492 0.0
C311 C 0.8709 0.27781 0.28867 0.0
C312 C 0.04511 0.38149 0.73556 0.0
C313 C 0.04521 0.36516 0.71181 0.0
C314 C 0.04508 0.38144 0.76493 0.0
C315 C 0.04513 0.36503 0.78868 0.0
C316 C 0.27985 0.88488 0.76492 0.0
C317 C 0.2634 0.88477 0.78867 0.0
C318 C 0.27989 0.88493 0.73555 0.0
C319 C 0.26349 0.88491 0.71179 0.0
C320 C 0.54861 0.65009 0.7356 0.0
C321 C 0.56499 0.66654 0.71185 0.0
C322 C 0.54858 0.65004 0.76497 0.0
C323 C 0.56492 0.66642 0.78873 0.0
C324 C 0.2032 0.96031 0.98641 0.0
C325 C 0.20143 0.93813 0.96366 0.0
C326 C 0.21464 -0.01676 0.01408 0.0
C327 C 0.23503 0.00544 0.03683 0.0
C328 C 0.71243 0.71508 0.48648 0.0
C329 C 0.7143 0.69467 0.46374 0.0
C330 C 0.70092 0.7266 0.51413 0.0
C331 C 0.68051 0.72846 0.53687 0.0
C332 C -0.03064 0.22897 0.98641 0.0
C333 C -0.00844 0.24936 0.96365 0.0
C334 C 0.94643 0.21751 0.01408 0.0
C335 C 0.92422 0.21572 0.03683 0.0
C336 C 0.21502 -0.01651 0.48632 0.0
C337 C 0.23545 0.00566 0.46356 0.0
C338 C 0.20351 0.96062 0.514 0.0
C339 C 0.20168 0.93846 0.53677 0.0
C340 C 0.71219 0.71497 0.01417 0.0
C341 C 0.71399 0.69457 0.03693 0.0
C342 C 0.70074 0.72645 0.98649 0.0
C343 C 0.68038 0.72827 0.96373 0.0
C344 C -0.03037 0.22911 0.51409 0.0
C345 C -0.00823 0.24954 0.53685 0.0
C346 C 0.94676 0.21761 0.48641 0.0
C347 C 0.92459 0.21579 0.46365 0.0
C348 C 0.57805 0.06122 0.13484 0.0
C349 C 0.63463 0.08906 0.12795 0.0
C350 C 0.51339 0.0469 0.13958 0.0
C351 C 0.46488 0.05128 0.13789 0.0
C352 C 0.47787 0.41652 0.36086 0.0
C353 C 0.53074 0.465 0.36259 0.0
C354 C 0.42748 0.35187 0.36556 0.0
C355 C 0.39866 0.29528 0.37244 0.0
C356 C 0.8828 0.45238 0.13975 0.0
C357 C 0.87838 0.39948 0.13803 0.0
C358 C 0.86855 0.5028 0.13503 0.0
C359 C 0.84076 0.53161 0.12814 0.0
C360 C 0.51381 0.04712 0.36075 0.0
C361 C 0.46529 0.05148 0.36244 0.0
C362 C 0.57847 0.06144 0.3655 0.0
C363 C 0.63504 0.08926 0.37242 0.0
C364 C 0.42707 0.35164 0.13494 0.0
C365 C 0.39828 0.29508 0.12802 0.0
C366 C 0.47743 0.41627 0.13972 0.0
C367 C 0.53029 0.46478 0.13805 0.0
C368 C 0.86897 0.503 0.36564 0.0
C369 C 0.84117 0.53178 0.37256 0.0
C370 C 0.88322 0.45261 0.36086 0.0
C371 C 0.87881 0.3997 0.36253 0.0
C372 C 0.04721 0.5924 0.63493 0.0
C373 C 0.07502 0.64898 0.62803 0.0
C374 C 0.03293 0.52774 0.63968 0.0
C375 C 0.03733 0.47924 0.63798 0.0
C376 C 0.43822 0.89695 0.86077 0.0
C377 C 0.38531 0.8925 0.86247 0.0
C378 C 0.48866 0.88274 0.86553 0.0
C379 C 0.51749 0.85498 0.87244 0.0
C380 C 0.40241 0.492 0.63973 0.0
C381 C 0.45089 0.54487 0.63803 0.0
C382 C 0.33779 0.44161 0.63498 0.0
C383 C 0.28122 0.41279 0.62807 0.0
C384 C 0.04711 0.59214 0.86552 0.0
C385 C 0.07491 0.64871 0.87243 0.0
C386 C 0.03285 0.52749 0.86078 0.0
C387 C 0.03727 0.479 0.86248 0.0
C388 C 0.4384 0.89729 0.63971 0.0
C389 C 0.38547 0.89282 0.63801 0.0
C390 C 0.48883 0.88309 0.63497 0.0
C391 C 0.51766 0.85532 0.62807 0.0
C392 C 0.40236 0.49168 0.86086 0.0
C393 C 0.45084 0.54456 0.86256 0.0
C394 C 0.33773 0.44128 0.86559 0.0
C395 C 0.28116 0.41247 0.87249 0.0
loop_
_geom_bond_atom_site_label_1
_geom_bond_atom_site_label_2
_geom_bond_distance
_geom_bond_site_symmetry_2
_ccdc_geom_bond_type
Zn0 O6 1.920 1_545 S
Zn0 O12 1.898 . S
Zn0 O15 1.905 . S
Zn1 O9 1.905 . S
Zn1 O10 1.898 . S
Zn1 O18 1.920 . S
Zn2 O5 2.080 1_545 S
Zn2 O8 2.114 . S
Zn2 O11 2.120 . S
Zn2 O13 2.120 . S
Zn2 O14 2.114 . S
Zn2 O17 2.080 . S
C3 O8 1.166 . S
C3 O9 1.182 . S
C4 O10 1.167 . S
C4 O11 1.299 . S
O5 Zn2 2.080 1_565 S
O5 C19 1.305 . S
O6 Zn0 1.920 1_565 S
O6 C19 1.234 . S
C7 O12 1.167 . S
C7 O13 1.299 . S
O8 Zn2 2.114 . S
O8 C3 1.166 . S
O9 Zn1 1.905 . S
O9 C3 1.182 . S
O10 Zn1 1.898 . S
O10 C4 1.167 . S
O11 Zn2 2.120 . S
O11 C4 1.299 . S
O12 Zn0 1.898 . S
O12 C7 1.167 . S
O13 Zn2 2.120 . S
O13 C7 1.299 . S
O14 Zn2 2.114 . S
O14 C16 1.166 . S
O15 Zn0 1.905 . S
O15 C16 1.182 . S
C16 O14 1.166 . S
C16 O15 1.182 . S
O17 Zn2 2.080 . S
O17 C20 1.305 . S
O18 Zn1 1.920 . S
O18 C20 1.234 . S
C19 O5 1.305 . S
C19 O6 1.234 . S
C20 O17 1.305 . S
C20 O18 1.234 . S
Zn21 O27 1.920 . S
Zn21 O33 1.898 . S
Zn21 O36 1.905 . S
Zn22 O30 1.905 . S
Zn22 O31 1.898 . S
Zn22 O39 1.920 . S
Zn23 O26 2.080 . S
Zn23 O29 2.114 . S
Zn23 O32 2.120 . S
Zn23 O34 2.120 . S
Zn23 O35 2.114 . S
Zn23 O38 2.080 . S
C24 O29 1.166 . S
C24 O30 1.182 . S
C25 O31 1.167 . S
C25 O32 1.299 . S
O26 Zn23 2.080 . S
O26 C40 1.305 . S
O27 Zn21 1.920 . S
O27 C40 1.234 . S
C28 O33 1.167 . S
C28 O34 1.299 . S
O29 Zn23 2.114 . S
O29 C24 1.166 . S
O30 Zn22 1.905 . S
O30 C24 1.182 . S
O31 Zn22 1.898 . S
O31 C25 1.167 . S
O32 Zn23 2.120 . S
O32 C25 1.299 . S
O33 Zn21 1.898 . S
O33 C28 1.167 . S
O34 Zn23 2.120 . S
O34 C28 1.299 . S
O35 Zn23 2.114 . S
O35 C37 1.166 . S
O36 Zn21 1.905 . S
O36 C37 1.182 . S
C37 O35 1.166 . S
C37 O36 1.182 . S
O38 Zn23 2.080 . S
O38 C41 1.305 . S
O39 Zn22 1.920 . S
O39 C41 1.234 . S
C40 O26 1.305 . S
C40 O27 1.234 . S
C41 O38 1.305 . S
C41 O39 1.234 . S
Zn42 O48 1.920 1_655 S
Zn42 O54 1.898 . S
Zn42 O57 1.905 . S
Zn43 O51 1.905 . S
Zn43 O52 1.898 . S
Zn43 O60 1.920 . S
Zn44 O47 2.080 1_655 S
Zn44 O50 2.114 . S
Zn44 O53 2.120 . S
Zn44 O55 2.120 . S
Zn44 O56 2.114 . S
Zn44 O59 2.080 . S
C45 O50 1.166 . S
C45 O51 1.182 . S
C46 O52 1.167 . S
C46 O53 1.299 . S
O47 Zn44 2.080 1_455 S
O47 C61 1.305 . S
O48 Zn42 1.920 1_455 S
O48 C61 1.234 . S
C49 O54 1.167 . S
C49 O55 1.299 . S
O50 Zn44 2.114 . S
O50 C45 1.166 . S
O51 Zn43 1.905 . S
O51 C45 1.182 . S
O52 Zn43 1.898 . S
O52 C46 1.167 . S
O53 Zn44 2.120 . S
O53 C46 1.299 . S
O54 Zn42 1.898 . S
O54 C49 1.167 . S
O55 Zn44 2.120 . S
O55 C49 1.299 . S
O56 Zn44 2.114 . S
O56 C58 1.166 . S
O57 Zn42 1.905 . S
O57 C58 1.182 . S
C58 O56 1.166 . S
C58 O57 1.182 . S
O59 Zn44 2.080 . S
O59 C62 1.305 . S
O60 Zn43 1.920 . S
O60 C62 1.234 . S
C61 O47 1.305 . S
C61 O48 1.234 . S
C62 O59 1.305 . S
C62 O60 1.234 . S
Zn63 O69 1.920 . S
Zn63 O75 1.898 . S
Zn63 O78 1.905 . S
Zn64 O72 1.905 . S
Zn64 O73 1.898 . S
Zn64 O81 1.920 1_545 S
Zn65 O68 2.080 . S
Zn65 O71 2.114 . S
Zn65 O74 2.120 . S
Zn65 O76 2.120 . S
Zn65 O77 2.114 . S
Zn65 O80 2.080 1_545 S
C66 O71 1.166 . S
C66 O72 1.182 . S
C67 O73 1.167 . S
C67 O74 1.299 . S
O68 Zn65 2.080 . S
O68 C82 1.305 . S
O69 Zn63 1.920 . S
O69 C82 1.234 . S
C70 O75 1.167 . S
C70 O76 1.299 . S
O71 Zn65 2.114 . S
O71 C66 1.166 . S
O72 Zn64 1.905 . S
O72 C66 1.182 . S
O73 Zn64 1.898 . S
O73 C67 1.167 . S
O74 Zn65 2.120 . S
O74 C67 1.299 . S
O75 Zn63 1.898 . S
O75 C70 1.167 . S
O76 Zn65 2.120 . S
O76 C70 1.299 . S
O77 Zn65 2.114 . S
O77 C79 1.166 . S
O78 Zn63 1.905 . S
O78 C79 1.182 . S
C79 O77 1.166 . S
C79 O78 1.182 . S
O80 Zn65 2.080 1_565 S
O80 C83 1.305 . S
O81 Zn64 1.920 1_565 S
O81 C83 1.234 . S
C82 O68 1.305 . S
C82 O69 1.234 . S
C83 O80 1.305 . S
C83 O81 1.234 . S
Zn84 O90 1.920 . S
Zn84 O96 1.898 . S
Zn84 O99 1.905 . S
Zn85 O93 1.905 . S
Zn85 O94 1.898 . S
Zn85 O102 1.920 . S
Zn86 O89 2.080 . S
Zn86 O92 2.114 . S
Zn86 O95 2.120 . S
Zn86 O97 2.120 . S
Zn86 O98 2.114 . S
Zn86 O101 2.080 . S
C87 O92 1.166 . S
C87 O93 1.182 . S
C88 O94 1.167 . S
C88 O95 1.299 . S
O89 Zn86 2.080 . S
O89 C103 1.305 . S
O90 Zn84 1.920 . S
O90 C103 1.234 . S
C91 O96 1.167 . S
C91 O97 1.299 . S
O92 Zn86 2.114 . S
O92 C87 1.166 . S
O93 Zn85 1.905 . S
O93 C87 1.182 . S
O94 Zn85 1.898 . S
O94 C88 1.167 . S
O95 Zn86 2.120 . S
O95 C88 1.299 . S
O96 Zn84 1.898 . S
O96 C91 1.167 . S
O97 Zn86 2.120 . S
O97 C91 1.299 . S
O98 Zn86 2.114 . S
O98 C100 1.166 . S
O99 Zn84 1.905 . S
O99 C100 1.182 . S
C100 O98 1.166 . S
C100 O99 1.182 . S
O101 Zn86 2.080 . S
O101 C104 1.305 . S
O102 Zn85 1.920 . S
O102 C104 1.234 . S
C103 O89 1.305 . S
C103 O90 1.234 . S
C104 O101 1.305 . S
C104 O102 1.234 . S
Zn105 O111 1.920 . S
Zn105 O117 1.898 . S
Zn105 O120 1.905 . S
Zn106 O114 1.905 . S
Zn106 O115 1.898 . S
Zn106 O123 1.920 1_655 S
Zn107 O110 2.080 . S
Zn107 O113 2.114 . S
Zn107 O116 2.120 . S
Zn107 O118 2.120 . S
Zn107 O119 2.114 . S
Zn107 O122 2.080 1_655 S
C108 O113 1.166 . S
C108 O114 1.182 . S
C109 O115 1.167 . S
C109 O116 1.299 . S
O110 Zn107 2.080 . S
O110 C124 1.305 . S
O111 Zn105 1.920 . S
O111 C124 1.234 . S
C112 O117 1.167 . S
C112 O118 1.299 . S
O113 Zn107 2.114 . S
O113 C108 1.166 . S
O114 Zn106 1.905 . S
O114 C108 1.182 . S
O115 Zn106 1.898 . S
O115 C109 1.167 . S
O116 Zn107 2.120 . S
O116 C109 1.299 . S
O117 Zn105 1.898 . S
O117 C112 1.167 . S
O118 Zn107 2.120 . S
O118 C112 1.299 . S
O119 Zn107 2.114 . S
O119 C121 1.166 . S
O120 Zn105 1.905 . S
O120 C121 1.182 . S
C121 O119 1.166 . S
C121 O120 1.182 . S
O122 Zn107 2.080 1_455 S
O122 C125 1.305 . S
O123 Zn106 1.920 1_455 S
O123 C125 1.234 . S
C124 O110 1.305 . S
C124 O111 1.234 . S
C125 O122 1.305 . S
C125 O123 1.234 . S
Zn126 O132 1.920 . S
Zn126 O138 1.898 . S
Zn126 O141 1.905 . S
Zn127 O135 1.905 . S
Zn127 O136 1.898 . S
Zn127 O144 1.920 1_455 S
Zn128 O131 2.080 . S
Zn128 O134 2.114 . S
Zn128 O137 2.120 . S
Zn128 O139 2.120 . S
Zn128 O140 2.114 . S
Zn128 O143 2.080 1_455 S
C129 O134 1.166 . S
C129 O135 1.182 . S
C130 O136 1.167 . S
C130 O137 1.299 . S
O131 Zn128 2.080 . S
O131 C145 1.305 . S
O132 Zn126 1.920 . S
O132 C145 1.234 . S
C133 O138 1.167 . S
C133 O139 1.299 . S
O134 Zn128 2.114 . S
O134 C129 1.166 . S
O135 Zn127 1.905 . S
O135 C129 1.182 . S
O136 Zn127 1.898 . S
O136 C130 1.167 . S
O137 Zn128 2.120 . S
O137 C130 1.299 . S
O138 Zn126 1.898 . S
O138 C133 1.167 . S
O139 Zn128 2.120 . S
O139 C133 1.299 . S
O140 Zn128 2.114 . S
O140 C142 1.166 . S
O141 Zn126 1.905 . S
O141 C142 1.182 . S
C142 O140 1.166 . S
C142 O141 1.182 . S
O143 Zn128 2.080 1_655 S
O143 C146 1.305 . S
O144 Zn127 1.920 1_655 S
O144 C146 1.234 . S
C145 O131 1.305 . S
C145 O132 1.234 . S
C146 O143 1.305 . S
C146 O144 1.234 . S
Zn147 O153 1.920 . S
Zn147 O159 1.898 . S
Zn147 O162 1.905 . S
Zn148 O156 1.905 . S
Zn148 O157 1.898 . S
Zn148 O165 1.920 1_565 S
Zn149 O152 2.080 . S
Zn149 O155 2.114 . S
Zn149 O158 2.120 . S
Zn149 O160 2.120 . S
Zn149 O161 2.114 . S
Zn149 O164 2.080 1_565 S
C150 O155 1.166 . S
C150 O156 1.182 . S
C151 O157 1.167 . S
C151 O158 1.299 . S
O152 Zn149 2.080 . S
O152 C166 1.305 . S
O153 Zn147 1.920 . S
O153 C166 1.234 . S
C154 O159 1.167 . S
C154 O160 1.299 . S
O155 Zn149 2.114 . S
O155 C150 1.166 . S
O156 Zn148 1.905 . S
O156 C150 1.182 . S
O157 Zn148 1.898 . S
O157 C151 1.167 . S
O158 Zn149 2.120 . S
O158 C151 1.299 . S
O159 Zn147 1.898 . S
O159 C154 1.167 . S
O160 Zn149 2.120 . S
O160 C154 1.299 . S
O161 Zn149 2.114 . S
O161 C163 1.166 . S
O162 Zn147 1.905 . S
O162 C163 1.182 . S
C163 O161 1.166 . S
C163 O162 1.182 . S
O164 Zn149 2.080 1_545 S
O164 C167 1.305 . S
O165 Zn148 1.920 1_545 S
O165 C167 1.234 . S
C166 O152 1.305 . S
C166 O153 1.234 . S
C167 O164 1.305 . S
C167 O165 1.234 . S
Zn168 O174 1.920 . S
Zn168 O180 1.898 . S
Zn168 O183 1.905 . S
Zn169 O177 1.905 . S
Zn169 O178 1.898 . S
Zn169 O186 1.920 . S
Zn170 O173 2.080 . S
Zn170 O176 2.114 . S
Zn170 O179 2.120 . S
Zn170 O181 2.120 . S
Zn170 O182 2.114 . S
Zn170 O185 2.080 . S
C171 O176 1.166 . S
C171 O177 1.182 . S
C172 O178 1.167 . S
C172 O179 1.299 . S
O173 Zn170 2.080 . S
O173 C187 1.305 . S
O174 Zn168 1.920 . S
O174 C187 1.234 . S
C175 O180 1.167 . S
C175 O181 1.299 . S
O176 Zn170 2.114 . S
O176 C171 1.166 . S
O177 Zn169 1.905 . S
O177 C171 1.182 . S
O178 Zn169 1.898 . S
O178 C172 1.167 . S
O179 Zn170 2.120 . S
O179 C172 1.299 . S
O180 Zn168 1.898 . S
O180 C175 1.167 . S
O181 Zn170 2.120 . S
O181 C175 1.299 . S
O182 Zn170 2.114 . S
O182 C184 1.166 . S
O183 Zn168 1.905 . S
O183 C184 1.182 . S
C184 O182 1.166 . S
C184 O183 1.182 . S
O185 Zn170 2.080 . S
O185 C188 1.305 . S
O186 Zn169 1.920 . S
O186 C188 1.234 . S
C187 O173 1.305 . S
C187 O174 1.234 . S
C188 O185 1.305 . S
C188 O186 1.234 . S
Zn189 O195 1.920 1_455 S
Zn189 O201 1.898 . S
Zn189 O204 1.905 . S
Zn190 O198 1.905 . S
Zn190 O199 1.898 . S
Zn190 O207 1.920 . S
Zn191 O194 2.080 1_455 S
Zn191 O197 2.114 . S
Zn191 O200 2.120 . S
Zn191 O202 2.120 . S
Zn191 O203 2.114 . S
Zn191 O206 2.080 . S
C192 O197 1.166 . S
C192 O198 1.182 . S
C193 O199 1.167 . S
C193 O200 1.299 . S
O194 Zn191 2.080 1_655 S
O194 C208 1.305 . S
O195 Zn189 1.920 1_655 S
O195 C208 1.234 . S
C196 O201 1.167 . S
C196 O202 1.299 . S
O197 Zn191 2.114 . S
O197 C192 1.166 . S
O198 Zn190 1.905 . S
O198 C192 1.182 . S
O199 Zn190 1.898 . S
O199 C193 1.167 . S
O200 Zn191 2.120 . S
O200 C193 1.299 . S
O201 Zn189 1.898 . S
O201 C196 1.167 . S
O202 Zn191 2.120 . S
O202 C196 1.299 . S
O203 Zn191 2.114 . S
O203 C205 1.166 . S
O204 Zn189 1.905 . S
O204 C205 1.182 . S
C205 O203 1.166 . S
C205 O204 1.182 . S
O206 Zn191 2.080 . S
O206 C209 1.305 . S
O207 Zn190 1.920 . S
O207 C209 1.234 . S
C208 O194 1.305 . S
C208 O195 1.234 . S
C209 O206 1.305 . S
C209 O207 1.234 . S
Zn210 O216 1.920 . S
Zn210 O222 1.898 . S
Zn210 O225 1.905 . S
Zn211 O219 1.905 . S
Zn211 O220 1.898 . S
Zn211 O228 1.920 1_565 S
Zn212 O215 2.080 . S
Zn212 O218 2.114 . S
Zn212 O221 2.120 . S
Zn212 O223 2.120 . S
Zn212 O224 2.114 . S
Zn212 O227 2.080 1_565 S
C213 O218 1.166 . S
C213 O219 1.182 . S
C214 O220 1.167 . S
C214 O221 1.299 . S
O215 Zn212 2.080 . S
O215 C229 1.305 . S
O216 Zn210 1.920 . S
O216 C229 1.234 . S
C217 O222 1.167 . S
C217 O223 1.299 . S
O218 Zn212 2.114 . S
O218 C213 1.166 . S
O219 Zn211 1.905 . S
O219 C213 1.182 . S
O220 Zn211 1.898 . S
O220 C214 1.167 . S
O221 Zn212 2.120 . S
O221 C214 1.299 . S
O222 Zn210 1.898 . S
O222 C217 1.167 . S
O223 Zn212 2.120 . S
O223 C217 1.299 . S
O224 Zn212 2.114 . S
O224 C226 1.166 . S
O225 Zn210 1.905 . S
O225 C226 1.182 . S
C226 O224 1.166 . S
C226 O225 1.182 . S
O227 Zn212 2.080 1_545 S
O227 C230 1.305 . S
O228 Zn211 1.920 1_545 S
O228 C230 1.234 . S
C229 O215 1.305 . S
C229 O216 1.234 . S
C230 O227 1.305 . S
C230 O228 1.234 . S
Zn231 O237 1.920 . S
Zn231 O243 1.898 . S
Zn231 O246 1.905 . S
Zn232 O240 1.905 . S
Zn232 O241 1.898 . S
Zn232 O249 1.920 . S
Zn233 O236 2.080 . S
Zn233 O239 2.114 . S
Zn233 O242 2.120 . S
Zn233 O244 2.120 . S
Zn233 O245 2.114 . S
Zn233 O248 2.080 . S
C234 O239 1.166 . S
C234 O240 1.182 . S
C235 O241 1.167 . S
C235 O242 1.299 . S
O236 Zn233 2.080 . S
O236 C250 1.305 . S
O237 Zn231 1.920 . S
O237 C250 1.234 . S
C238 O243 1.167 . S
C238 O244 1.299 . S
O239 Zn233 2.114 . S
O239 C234 1.166 . S
O240 Zn232 1.905 . S
O240 C234 1.182 . S
O241 Zn232 1.898 . S
O241 C235 1.167 . S
O242 Zn233 2.120 . S
O242 C235 1.299 . S
O243 Zn231 1.898 . S
O243 C238 1.167 . S
O244 Zn233 2.120 . S
O244 C238 1.299 . S
O245 Zn233 2.114 . S
O245 C247 1.166 . S
O246 Zn231 1.905 . S
O246 C247 1.182 . S
C247 O245 1.166 . S
C247 O246 1.182 . S
O248 Zn233 2.080 . S
O248 C251 1.305 . S
O249 Zn232 1.920 . S
O249 C251 1.234 . S
C250 O236 1.305 . S
C250 O237 1.234 . S
C251 O248 1.305 . S
C251 O249 1.234 . S
C252 C253 1.170 . S
C252 C254 1.380 . S
C253 C252 1.170 . S
C254 C252 1.380 . S
C254 C255 1.170 . S
C255 C254 1.170 . S
C256 C257 1.170 . S
C256 C258 1.380 . S
C257 C256 1.170 . S
C258 C256 1.380 . S
C258 C259 1.170 1_455 S
C259 C258 1.170 1_655 S
C260 C261 1.170 1_565 S
C260 C262 1.380 . S
C261 C260 1.170 1_545 S
C262 C260 1.380 . S
C262 C263 1.170 . S
C263 C262 1.170 . S
C264 C265 1.170 . S
C264 C266 1.380 . S
C265 C264 1.170 . S
C266 C264 1.380 . S
C266 C267 1.170 . S
C267 C266 1.170 . S
C268 C269 1.170 . S
C268 C270 1.380 . S
C269 C268 1.170 . S
C270 C268 1.380 . S
C270 C271 1.170 1_455 S
C271 C270 1.170 1_655 S
C272 C273 1.170 . S
C272 C274 1.380 . S
C273 C272 1.170 . S
C274 C272 1.380 . S
C274 C275 1.170 1_565 S
C275 C274 1.170 1_545 S
C276 C277 1.170 . S
C276 C278 1.380 . S
C277 C276 1.170 . S
C278 C276 1.380 . S
C278 C279 1.170 . S
C279 C278 1.170 . S
C280 C281 1.170 1_655 S
C280 C282 1.380 . S
C281 C280 1.170 1_455 S
C282 C280 1.380 . S
C282 C283 1.170 . S
C283 C282 1.170 . S
C284 C285 1.170 1_545 S
C284 C286 1.380 . S
C285 C284 1.170 1_565 S
C286 C284 1.380 . S
C286 C287 1.170 . S
C287 C286 1.170 . S
C288 C289 1.170 . S
C288 C290 1.380 . S
C289 C288 1.170 . S
C290 C288 1.380 . S
C290 C291 1.170 . S
C291 C290 1.170 . S
C292 C293 1.170 1_655 S
C292 C294 1.380 . S
C293 C292 1.170 1_455 S
C294 C292 1.380 . S
C294 C295 1.170 . S
C295 C294 1.170 . S
C296 C297 1.170 . S
C296 C298 1.380 . S
C297 C296 1.170 . S
C298 C296 1.380 . S
C298 C299 1.170 1_545 S
C299 C298 1.170 1_565 S
C300 C301 1.170 . S
C300 C302 1.380 . S
C301 C300 1.170 . S
C302 C300 1.380 . S
C302 C303 1.170 . S
C303 C302 1.170 . S
C304 C305 1.170 . S
C304 C306 1.380 . S
C305 C304 1.170 . S
C306 C304 1.380 . S
C306 C307 1.170 . S
C307 C306 1.170 . S
C308 C309 1.170 . S
C308 C310 1.380 . S
C309 C308 1.170 . S
C310 C308 1.380 . S
C310 C311 1.170 . S
C311 C310 1.170 . S
C312 C313 1.170 . S
C312 C314 1.380 . S
C313 C312 1.170 . S
C314 C312 1.380 . S
C314 C315 1.170 . S
C315 C314 1.170 . S
C316 C317 1.170 . S
C316 C318 1.380 . S
C317 C316 1.170 . S
C318 C316 1.380 . S
C318 C319 1.170 . S
C319 C318 1.170 . S
C320 C321 1.170 . S
C320 C322 1.380 . S
C321 C320 1.170 . S
C322 C320 1.380 . S
C322 C323 1.170 . S
C323 C322 1.170 . S
C324 C325 1.170 . S
C324 C326 1.380 1_566 S
C325 C324 1.170 . S
C326 C324 1.380 1_544 S
C326 C327 1.170 . S
C327 C326 1.170 . S
C328 C329 1.170 . S
C328 C330 1.380 . S
C329 C328 1.170 . S
C330 C328 1.380 . S
C330 C331 1.170 . S
C331 C330 1.170 . S
C332 C333 1.170 . S
C332 C334 1.380 1_456 S
C333 C332 1.170 . S
C334 C332 1.380 1_654 S
C334 C335 1.170 . S
C335 C334 1.170 . S
C336 C337 1.170 . S
C336 C338 1.380 1_545 S
C337 C336 1.170 . S
C338 C336 1.380 1_565 S
C338 C339 1.170 . S
C339 C338 1.170 . S
C340 C341 1.170 . S
C340 C342 1.380 1_554 S
C341 C340 1.170 . S
C342 C340 1.380 1_556 S
C342 C343 1.170 . S
C343 C342 1.170 . S
C344 C345 1.170 . S
C344 C346 1.380 1_455 S
C345 C344 1.170 . S
C346 C344 1.380 1_655 S
C346 C347 1.170 . S
C347 C346 1.170 . S
C348 C349 1.170 . S
C348 C350 1.380 . S
C349 C348 1.170 . S
C350 C348 1.380 . S
C350 C351 1.170 . S
C351 C350 1.170 . S
C352 C353 1.170 . S
C352 C354 1.380 . S
C353 C352 1.170 . S
C354 C352 1.380 . S
C354 C355 1.170 . S
C355 C354 1.170 . S
C356 C357 1.170 . S
C356 C358 1.380 . S
C357 C356 1.170 . S
C358 C356 1.380 . S
C358 C359 1.170 . S
C359 C358 1.170 . S
C360 C361 1.170 . S
C360 C362 1.380 . S
C361 C360 1.170 . S
C362 C360 1.380 . S
C362 C363 1.170 . S
C363 C362 1.170 . S
C364 C365 1.170 . S
C364 C366 1.380 . S
C365 C364 1.170 . S
C366 C364 1.380 . S
C366 C367 1.170 . S
C367 C366 1.170 . S
C368 C369 1.170 . S
C368 C370 1.380 . S
C369 C368 1.170 . S
C370 C368 1.380 . S
C370 C371 1.170 . S
C371 C370 1.170 . S
C372 C373 1.170 . S
C372 C374 1.380 . S
C373 C372 1.170 . S
C374 C372 1.380 . S
C374 C375 1.170 . S
C375 C374 1.170 . S
C376 C377 1.170 . S
C376 C378 1.380 . S
C377 C376 1.170 . S
C378 C376 1.380 . S
C378 C379 1.170 . S
C379 C378 1.170 . S
C380 C381 1.170 . S
C380 C382 1.380 . S
C381 C380 1.170 . S
C382 C380 1.380 . S
C382 C383 1.170 . S
C383 C382 1.170 . S
C384 C385 1.170 . S
C384 C386 1.380 . S
C385 C384 1.170 . S
C386 C384 1.380 . S
C386 C387 1.170 . S
C387 C386 1.170 . S
C388 C389 1.170 . S
C388 C390 1.380 . S
C389 C388 1.170 . S
C390 C388 1.380 . S
C390 C391 1.170 . S
C391 C390 1.170 . S
C392 C393 1.170 . S
C392 C394 1.380 . S
C393 C392 1.170 . S
C394 C392 1.380 . S
C394 C395 1.170 . S
C395 C394 1.170 . S
C253 C61 1.028 . S
C255 C7 1.133 . S
C257 C83 1.031 . S
C259 C25 1.158 . S
C261 C49 1.146 . S
C263 C104 0.953 . S
C265 C67 1.162 . S
C267 C125 1.035 . S
C269 C19 1.045 . S
C271 C88 1.153 . S
C273 C41 0.997 . S
C275 C109 1.135 . S
C277 C230 1.043 . S
C279 C130 1.169 . S
C281 C151 1.176 . S
C283 C251 1.019 . S
C285 C172 1.114 . S
C287 C146 0.961 . S
C289 C196 1.153 . S
C291 C167 0.961 . S
C293 C214 1.146 . S
C295 C188 0.986 . S
C297 C208 1.047 . S
C299 C235 1.159 . S
C301 C66 1.353 . S
C303 C16 1.370 . S
C305 C24 1.313 . S
C307 C87 1.324 . S
C309 C58 1.340 . S
C311 C108 1.359 . S
C313 C129 1.346 . S
C315 C205 1.364 . S
C317 C150 1.314 . S
C319 C213 1.314 . S
C321 C171 1.378 . S
C323 C234 1.375 . S
C325 C166 1.375 . S
C327 C20 1.413 . S
C329 C40 1.365 . S
C331 C187 1.360 . S
C333 C209 1.412 . S
C335 C62 1.370 . S
C337 C82 1.362 . S
C339 C229 1.377 . S
C341 C103 1.409 . S
C343 C250 1.364 . S
C345 C145 1.395 . S
C347 C124 1.410 . S
C349 C45 1.265 . S
C351 C4 0.932 . S
C353 C28 1.044 . S
C355 C79 1.293 . S
C357 C46 1.045 . S
C359 C100 1.269 . S
C361 C70 1.007 . S
C363 C121 1.265 . S
C365 C3 1.273 . S
C367 C91 1.044 . S
C369 C37 1.239 . S
C371 C112 0.932 . S
C373 C226 1.291 . S
C375 C133 1.045 . S
C377 C154 0.973 . S
C379 C247 1.292 . S
C381 C175 0.976 . S
C383 C142 1.250 . S
C385 C163 1.271 . S
C387 C193 1.045 . S
C389 C217 0.953 . S
C391 C184 1.255 . S
C393 C238 1.024 . S
C395 C192 1.288 . S
