# Generated by pormake.
# Topology snp, (6)-cn, num edge types: 1
# Building blocks:
#     Node 0, Type 0, BuildingBlock: FUNLAD_clean_sbu_0, # of connection points: 6
#     Node 1, Type 0, BuildingBlock: FUNLAD_clean_sbu_0, # of connection points: 6
#     Node 2, Type 0, BuildingBlock: FUNLAD_clean_sbu_0, # of connection points: 6
#     Node 3, Type 0, BuildingBlock: FUNLAD_clean_sbu_0, # of connection points: 6
#     Edge 4, Type (0, 0), BuildingBlock: ZUJKAS_clean_linker_0, # of connection points: 2
#     Edge 5, Type (0, 0), BuildingBlock: ZUJKAS_clean_linker_0, # of connection points: 2
#     Edge 6, Type (0, 0), BuildingBlock: ZUJKAS_clean_linker_0, # of connection points: 2
#     Edge 7, Type (0, 0), BuildingBlock: ZUJKAS_clean_linker_0, # of connection points: 2
#     Edge 8, Type (0, 0), BuildingBlock: ZUJKAS_clean_linker_0, # of connection points: 2
#     Edge 9, Type (0, 0), BuildingBlock: ZUJKAS_clean_linker_0, # of connection points: 2
#     Edge 10, Type (0, 0), BuildingBlock: ZUJKAS_clean_linker_0, # of connection points: 2
#     Edge 11, Type (0, 0), BuildingBlock: ZUJKAS_clean_linker_0, # of connection points: 2
#     Edge 12, Type (0, 0), BuildingBlock: ZUJKAS_clean_linker_0, # of connection points: 2
#     Edge 13, Type (0, 0), BuildingBlock: ZUJKAS_clean_linker_0, # of connection points: 2
#     Edge 14, Type (0, 0), BuildingBlock: ZUJKAS_clean_linker_0, # of connection points: 2
#     Edge 15, Type (0, 0), BuildingBlock: ZUJKAS_clean_linker_0, # of connection points: 2
# Relax obj value: 1.115
# Max RMSD: 0.253
# Mean RMSD: 0.253
data_MOF--net-snp--node1-FUNLAD_clean_sbu_0--edge1-ZUJKAS_clean_linker_0
_symmetry_space_group_name_H-M    P1
_symmetry_Int_Tables_number       1
_symmetry_cell_setting            triclinic
loop_
_symmetry_equiv_pos_as_xyz
'x, y, z'
_cell_length_a     42.898916
_cell_length_b     42.911448
_cell_length_c     28.541136
_cell_angle_alpha  90.911199
_cell_angle_beta   90.404288
_cell_angle_gamma 90.095203
loop_
_atom_site_label
_atom_site_type_symbol
_atom_site_fract_x
_atom_site_fract_y
_atom_site_fract_z
_atom_type_partial_charge
C0 C 0.22239 0.02581 0.93897 0.0
N1 N 0.30313 0.06645 1.00422 0.0
C2 C 0.31754 0.03821 1.00332 0.0
C3 C 0.35011 0.03628 1.0016 0.0
C4 C 0.36818 0.06366 1.00072 0.0
C5 C 0.35257 0.09246 1.00125 0.0
C6 C 0.32 0.09332 1.00304 0.0
Zn7 Zn 0.25516 0.0692 0.009 0.0
C8 C 0.22757 0.11693 0.94252 0.0
N9 N 0.15629 0.07614 0.01755 0.0
C10 C 0.14499 0.10364 0.03486 0.0
C11 C 0.13993 0.04919 0.02146 0.0
C12 C 0.11395 0.04829 0.05033 0.0
C13 C 0.10555 0.07521 0.07583 0.0
C14 C 0.11981 0.1036 0.06552 0.0
Zn15 Zn 0.20332 0.0725 0.00929 0.0
O16 O 0.24933 0.03343 0.95473 0.0
C17 C 0.22769 0.02399 0.07513 0.0
O18 O 0.19845 0.03935 0.95547 0.0
H19 H 0.14939 0.02758 0.00775 0.0
H20 H 0.30376 0.01709 1.00418 0.0
H21 H 0.15805 0.12496 0.0305 0.0
O22 O 0.25451 0.03326 0.06225 0.0
O23 O 0.20364 0.03681 0.05817 0.0
H24 H 0.30816 0.11555 1.00398 0.0
O25 O 0.20861 0.10561 0.06277 0.0
O26 O 0.25958 0.1049 0.06413 0.0
O27 O 0.2027 0.10738 0.96119 0.0
O28 O 0.25365 0.1051 0.95479 0.0
C29 C 0.23401 0.11588 0.07951 0.0
H30 H 0.361 0.01353 1.00063 0.0
H31 H 0.3654 0.11421 1.00127 0.0
H32 H 0.10352 0.0259 0.05781 0.0
H33 H 0.11382 0.12473 0.08466 0.0
C34 C 0.06996 0.25706 0.43438 0.0
N35 N 0.02208 0.31835 0.52424 0.0
C36 C 0.04995 0.33353 0.52686 0.0
C37 C 0.05107 0.36602 0.53152 0.0
C38 C 0.02327 0.38329 0.53351 0.0
C39 C 0.99485 0.36687 0.53301 0.0
C40 C 0.99479 0.3343 0.52822 0.0
Zn41 Zn 0.02181 0.27161 0.50538 0.0
C42 C 0.97803 0.25717 0.42807 0.0
N43 N 0.0228 0.17638 0.46222 0.0
C44 C 0.02737 0.17444 0.41515 0.0
C45 C 0.01918 0.15028 0.48802 0.0
C46 C 0.02192 0.12078 0.46658 0.0
C47 C 0.02911 0.11829 0.41843 0.0
C48 C 0.03094 0.14585 0.39276 0.0
Zn49 Zn 0.02254 0.22106 0.488 0.0
O50 O 0.05667 0.28096 0.45198 0.0
C51 C 0.06689 0.23371 0.56406 0.0
O52 O 0.0606 0.23025 0.44524 0.0
H53 H 0.01493 0.15231 0.52526 0.0
H54 H 0.07141 0.32053 0.5235 0.0
H55 H 0.0295 0.19527 0.39465 0.0
O56 O 0.05878 0.26159 0.55483 0.0
O57 O 0.054 0.21102 0.54214 0.0
H58 H 0.97286 0.32189 0.52571 0.0
O59 O 0.98538 0.21176 0.53236 0.0
O60 O 0.98766 0.2601 0.55925 0.0
O61 O 0.99129 0.2313 0.43428 0.0
O62 O 0.98472 0.28018 0.4549 0.0
C63 C 0.9762 0.2326 0.56121 0.0
H64 H 0.07355 0.37755 0.53258 0.0
H65 H 0.9728 0.3791 0.53408 0.0
H66 H 0.01948 0.10032 0.48793 0.0
H67 H 0.03705 0.14591 0.35608 0.0
C68 C 0.85796 0.06316 0.94999 0.0
N69 N 0.76968 0.037 0.00905 0.0
C70 C 0.75773 0.06631 1.00649 0.0
C71 C 0.72536 0.07087 1.0038 0.0
C72 C 0.70508 0.04503 1.00389 0.0
C73 C 0.71826 0.01511 1.00549 0.0
C74 C 0.75058 0.01163 0.00819 0.0
Zn75 Zn 0.81678 0.02865 0.0183 0.0
C76 C 0.83884 0.97433 0.95946 0.0
N77 N 0.9131 0.00644 0.04004 0.0
C78 C 0.93108 0.99139 1.00756 0.0
C79 C 0.92136 0.00712 0.08616 0.0
C80 C 0.94707 0.99053 0.10169 0.0
C81 C 0.96476 0.9732 0.06959 0.0
C82 C 0.95749 0.97461 0.02174 0.0
Zn83 Zn 0.86766 0.01863 0.02697 0.0
O84 O 0.82953 0.05957 0.96205 0.0
C85 C 0.84752 0.0732 0.08594 0.0
O86 O 0.87927 0.0483 0.97151 0.0
H87 H 0.90666 0.01855 0.11173 0.0
H88 H 0.77324 0.08621 1.00746 0.0
H89 H 0.92395 0.99076 0.97113 0.0
O90 O 0.82081 0.06696 0.06823 0.0
O91 O 0.87079 0.0567 0.074 0.0
H92 H 0.7604 0.98851 0.01039 0.0
O93 O 0.85595 0.98935 0.08136 0.0
O94 O 0.80575 0.99765 0.07598 0.0
O95 O 0.86398 0.98116 0.98066 0.0
O96 O 0.81445 0.99042 0.9673 0.0
C97 C 0.82869 0.9843 0.09572 0.0
H98 H 0.71634 0.0944 1.00298 0.0
H99 H 0.70375 0.99443 1.00476 0.0
H100 H 0.95256 0.99043 0.13882 0.0
H101 H 0.97115 0.96187 0.99609 0.0
C102 C 0.09899 0.85542 0.44191 0.0
N103 N 0.07542 0.9288 0.52925 0.0
C104 C 0.07458 0.94584 0.48959 0.0
C105 C 0.09652 0.96919 0.48304 0.0
C106 C 0.11978 0.9745 0.51703 0.0
C107 C 0.11767 0.95965 0.56009 0.0
C108 C 0.0943 0.9373 0.56608 0.0
Zn109 Zn 0.06303 0.88276 0.52126 0.0
C110 C 0.00957 0.87059 0.4572 0.0
N111 N 0.04599 0.78412 0.50751 0.0
C112 C 0.07097 0.76496 0.50177 0.0
C113 C 0.01674 0.77219 0.51198 0.0
C114 C 0.01192 0.73984 0.51158 0.0
C115 C 0.03743 0.71947 0.50654 0.0
C116 C 0.06722 0.73258 0.50118 0.0
Zn117 Zn 0.05449 0.83147 0.51405 0.0
O118 O 0.09253 0.88044 0.46368 0.0
C119 C 0.10779 0.84503 0.57788 0.0
O120 O 0.08685 0.82983 0.4549 0.0
H121 H 0.99716 0.78776 0.51665 0.0
H122 H 0.05998 0.93862 0.46037 0.0
H123 H 0.09408 0.77479 0.49874 0.0
O124 O 0.1005 0.87188 0.56429 0.0
O125 O 0.09194 0.82167 0.56363 0.0
H126 H 0.09413 0.92404 0.59797 0.0
O127 O 0.02233 0.83543 0.57193 0.0
O128 O 0.03346 0.88534 0.57879 0.0
O129 O 0.01689 0.84241 0.46594 0.0
O130 O 0.02502 0.89269 0.47661 0.0
C131 C 0.01833 0.86173 0.59252 0.0
H132 H 0.09791 0.97999 0.4492 0.0
H133 H 0.13529 0.96328 0.58701 0.0
H134 H 0.98846 0.73092 0.51526 0.0
H135 H 0.0877 0.718 0.49795 0.0
H136 H 0.96173 0.92048 0.12089 0.0
H137 H 0.99915 0.90917 0.1836 0.0
H138 H 0.0639 0.97388 0.12252 0.0
H139 H 0.02636 0.98545 0.06155 0.0
H140 H 0.09457 0.93677 0.19065 0.0
H141 H 0.9892 0.97714 0.27907 0.0
H142 H 0.9926 0.93888 0.25251 0.0
H143 H 0.98106 0.97191 0.21769 0.0
C144 C 0.98463 0.93107 0.12006 0.0
C145 C 0.99091 0.95475 0.08798 0.0
C146 C 0.00599 0.92465 0.15591 0.0
C147 C 0.03361 0.94207 0.15975 0.0
C148 C 0.04239 0.96062 0.12154 0.0
H149 H 0.04708 0.05283 0.08985 0.0
H150 H 0.03231 0.0237 0.1584 0.0
C151 C 0.02093 0.9673 0.08618 0.0
C152 C 0.04739 0.95007 0.20646 0.0
H153 H 0.026 0.0187 0.25637 0.0
C154 C 0.07988 0.95397 0.20779 0.0
C155 C 0.02967 0.97055 0.23521 0.0
C156 C 0.99622 0.96411 0.24689 0.0
C157 C 0.09237 0.98342 0.21942 0.0
C158 C 0.07143 0.00822 0.22876 0.0
C159 C 0.04166 1.0004 0.24468 0.0
C160 C 0.07356 0.03629 0.19924 0.0
C161 C 0.12671 0.98885 0.21342 0.0
C162 C 0.0995 0.05616 0.20132 0.0
C163 C 0.10746 0.07356 0.16218 0.0
C164 C 0.08962 0.07095 0.12073 0.0
C165 C 0.06113 0.05513 0.12142 0.0
C166 C 0.05291 0.03829 0.16074 0.0
H167 H 0.13987 0.96686 0.21805 0.0
H168 H 0.13114 0.9977 0.17774 0.0
H169 H 0.13554 0.00617 0.23952 0.0
H170 H 0.11525 0.05591 0.23102 0.0
H171 H 0.12962 0.08572 0.16236 0.0
H172 H 0.17193 0.94527 0.48764 0.0
H173 H 0.19394 0.96113 0.41356 0.0
H174 H 0.15424 0.05262 0.43413 0.0
H175 H 0.13162 0.03633 0.50664 0.0
H176 H 0.14098 0.9619 0.36958 0.0
H177 H 0.19075 0.06921 0.30977 0.0
H178 H 0.20989 0.04688 0.35503 0.0
H179 H 0.18302 0.07791 0.37008 0.0
C180 C 0.17011 0.96955 0.47809 0.0
C181 C 0.1488 0.98922 0.50126 0.0
C182 C 0.18282 0.97866 0.43541 0.0
C183 C 0.17377 0.00725 0.41621 0.0
C184 C 0.16066 0.02983 0.44671 0.0
H185 H 0.05762 0.06878 0.46098 0.0
H186 H 0.08951 0.03001 0.4232 0.0
C187 C 0.1475 0.02058 0.48885 0.0
C188 C 0.16243 0.00756 0.36677 0.0
H189 H 0.12883 0.07062 0.31814 0.0
C190 C 0.13905 0.98535 0.35625 0.0
C191 C 0.1609 0.03624 0.34343 0.0
C192 C 0.18788 0.05864 0.34476 0.0
C193 C 0.10964 0.99537 0.34125 0.0
C194 C 0.10527 0.02742 0.3331 0.0
C195 C 0.13171 0.04634 0.32726 0.0
C196 C 0.07766 0.04326 0.35253 0.0
C197 C 0.08275 0.9727 0.34165 0.0
C198 C 0.05904 0.06274 0.32534 0.0
C199 C 0.0393 0.08433 0.34706 0.0
C200 C 0.03974 0.08842 0.39631 0.0
C201 C 0.05624 0.06672 0.42321 0.0
C202 C 0.07473 0.04426 0.40146 0.0
H203 H 0.08643 0.95462 0.31402 0.0
H204 H 0.08203 0.96034 0.37544 0.0
H205 H 0.05994 0.98411 0.33554 0.0
H206 H 0.06121 0.0628 0.28769 0.0
H207 H 0.02576 0.09952 0.32491 0.0
H208 H 0.66161 0.01201 0.0527 0.0
H209 H 0.60495 0.0168 0.04996 0.0
H210 H 0.61297 0.0925 0.95325 0.0
H211 H 0.66983 0.08715 0.95448 0.0
H212 H 0.56741 0.06648 0.07374 0.0
H213 H 0.55123 0.03473 0.88575 0.0
H214 H 0.58744 0.02834 0.91668 0.0
H215 H 0.5776 0.06662 0.89668 0.0
C216 C 0.65141 0.02943 0.03028 0.0
C217 C 0.67044 0.04893 1.00333 0.0
C218 C 0.61893 0.0323 0.02906 0.0
C219 C 0.60457 0.05464 1.0008 0.0
C220 C 0.62343 0.07463 0.97459 0.0
H221 H 0.40867 0.10036 0.95155 0.0
H222 H 0.46571 0.0991 0.95245 0.0
C223 C 0.65601 0.07178 0.97577 0.0
C224 C 0.56991 0.05712 0.99954 0.0
H225 H 0.5063 0.05108 0.92698 0.0
C226 C 0.55406 0.06308 0.04164 0.0
C227 C 0.55243 0.05272 0.95766 0.0
C228 C 0.56794 0.04497 0.91165 0.0
C229 C 0.52135 0.065 0.04298 0.0
C230 C 0.50386 0.06029 1.0012 0.0
C231 C 0.51969 0.05466 0.959 0.0
C232 C 0.46912 0.06085 1.00066 0.0
C233 C 0.50584 0.07257 0.08906 0.0
C234 C 0.45194 0.03947 0.02689 0.0
C235 C 0.41929 0.04022 0.02667 0.0
C236 C 0.40301 0.06231 0.99999 0.0
C237 C 0.42034 0.08336 0.97311 0.0
C238 C 0.453 0.08255 0.97333 0.0
H239 H 0.52233 0.08373 0.11442 0.0
H240 H 0.48562 0.08832 0.08402 0.0
H241 H 0.49724 0.05069 0.10471 0.0
H242 H 0.4638 0.02211 0.04757 0.0
H243 H 0.40683 0.02379 0.04806 0.0
H244 H 0.06139 0.42119 0.48289 0.0
H245 H 0.06178 0.47809 0.4806 0.0
H246 H 0.98631 0.48156 0.57944 0.0
H247 H 0.98623 0.4245 0.58282 0.0
H248 H 0.0122 0.51747 0.45392 0.0
H249 H 0.05089 0.5426 0.63689 0.0
H250 H 0.05505 0.50463 0.6095 0.0
H251 H 0.01774 0.51715 0.63081 0.0
C252 C 0.0452 0.43399 0.50483 0.0
C253 C 0.02394 0.41813 0.53336 0.0
C254 C 0.0453 0.46657 0.50316 0.0
C255 C 0.02433 0.48417 0.53021 0.0
C256 C 1.00305 0.46852 0.55878 0.0
H257 H 0.99828 0.68574 0.56257 0.0
H258 H 0.99312 0.62903 0.56684 0.0
C259 C 1.00284 0.43586 0.56034 0.0
C260 C 0.02424 0.51881 0.52725 0.0
H261 H 0.0371 0.58584 0.59091 0.0
C262 C 0.01766 0.53243 0.48387 0.0
C263 C 0.03119 0.53835 0.56638 0.0
C264 C 0.03938 0.52506 0.61351 0.0
C265 C 0.01767 0.56497 0.47858 0.0
C266 C 0.02517 0.58453 0.5175 0.0
C267 C 0.03136 0.57091 0.56106 0.0
C268 C 0.02747 0.61909 0.51354 0.0
C269 C 0.00911 0.57806 0.43146 0.0
C270 C 0.04855 0.63253 0.48228 0.0
C271 C 0.05133 0.66496 0.47939 0.0
C272 C 0.03332 0.68485 0.50807 0.0
C273 C 0.01218 0.67129 0.53938 0.0
C274 C 0.00938 0.6388 0.54217 0.0
H275 H 0.99506 0.56122 0.41016 0.0
H276 H 0.99571 0.60006 0.43534 0.0
H277 H 0.03073 0.58309 0.41184 0.0
H278 H 0.06325 0.61792 0.46047 0.0
H279 H 0.06766 0.67444 0.45459 0.0
H280 H 0.06984 0.27219 0.34203 0.0
H281 H 0.11005 0.25679 0.2852 0.0
H282 H 0.16953 0.22714 0.39839 0.0
H283 H 0.12927 0.24206 0.45489 0.0
H284 H 0.17688 0.26816 0.27177 0.0
H285 H 0.1497 0.14641 0.3224 0.0
H286 H 0.12523 0.17891 0.3387 0.0
H287 H 0.16121 0.17229 0.36952 0.0
C288 C 0.09209 0.26375 0.35473 0.0
C289 C 0.0968 0.25882 0.40274 0.0
C290 C 0.11492 0.25466 0.3223 0.0
C291 C 0.14258 0.24032 0.33754 0.0
C292 C 0.14825 0.2378 0.38581 0.0
H293 H 0.26323 0.11894 0.16562 0.0
H294 H 0.24797 0.15307 0.23189 0.0
C295 C 0.12544 0.24671 0.41808 0.0
C296 C 0.16365 0.22488 0.30315 0.0
H297 H 0.18729 0.15303 0.26417 0.0
C298 C 0.1794 0.24302 0.27034 0.0
C299 C 0.16702 0.19202 0.30138 0.0
C300 C 0.14976 0.17114 0.33456 0.0
C301 C 0.19803 0.22916 0.23537 0.0
C302 C 0.20055 0.19626 0.23266 0.0
C303 C 0.18566 0.17823 0.2665 0.0
C304 C 0.2147 0.17981 0.19172 0.0
C305 C 0.21459 0.24986 0.20132 0.0
C306 C 0.20164 0.18391 0.14707 0.0
C307 C 0.21021 0.16452 0.10969 0.0
C308 C 0.23216 0.14064 0.11589 0.0
C309 C 0.24676 0.1376 0.15974 0.0
C310 C 0.23786 0.15692 0.19759 0.0
H311 H 0.21951 0.27318 0.21718 0.0
H312 H 0.23687 0.23932 0.18948 0.0
H313 H 0.19943 0.25329 0.17016 0.0
H314 H 0.18323 0.20075 0.14174 0.0
H315 H 0.1983 0.16705 0.07634 0.0
H316 H 0.93292 0.18636 0.55834 0.0
H317 H 0.90643 0.1628 0.62438 0.0
H318 H 0.94762 0.23147 0.71797 0.0
H319 H 0.97341 0.25585 0.65136 0.0
H320 H 0.93579 0.13527 0.69274 0.0
H321 H 0.86126 0.22718 0.7712 0.0
H322 H 0.87806 0.23061 0.71369 0.0
H323 H 0.90109 0.23922 0.76525 0.0
C324 C 0.9356 0.19704 0.5928 0.0
C325 C 0.95521 0.22304 0.59959 0.0
C326 C 0.92052 0.18344 0.63064 0.0
C327 C 0.92486 0.19526 0.67641 0.0
C328 C 0.94327 0.2222 0.68304 0.0
H329 H 0.91646 0.07944 0.92204 0.0
H330 H 0.93121 0.11243 0.85703 0.0
C331 C 0.95807 0.23615 0.64489 0.0
C332 C 0.91304 0.17719 0.71701 0.0
H333 H 0.87036 0.18209 0.81779 0.0
C334 C 0.92128 0.14557 0.71982 0.0
C335 C 0.89387 0.19034 0.75238 0.0
C336 C 0.88277 0.22362 0.75035 0.0
C337 C 0.91138 0.12696 0.75694 0.0
C338 C 0.89331 0.14039 0.79331 0.0
C339 C 0.88448 0.17184 0.79022 0.0
C340 C 0.88391 0.12208 0.83493 0.0
C341 C 0.92006 0.09287 0.75642 0.0
C342 C 0.8523 0.11734 0.84549 0.0
C343 C 0.8437 0.09855 0.88315 0.0
C344 C 0.86656 0.08418 0.91106 0.0
C345 C 0.89816 0.08976 0.90109 0.0
C346 C 0.90669 0.10859 0.86372 0.0
H347 H 0.92569 0.08438 0.72049 0.0
H348 H 0.94104 0.08953 0.77873 0.0
H349 H 0.90092 0.07833 0.77035 0.0
H350 H 0.83428 0.12763 0.82396 0.0
H351 H 0.81916 0.09491 0.88993 0.0
H352 H 0.99541 0.92718 0.42043 0.0
H353 H 0.9543 0.93971 0.3643 0.0
H354 H 0.92396 0.8439 0.36222 0.0
H355 H 0.96545 0.83093 0.41851 0.0
H356 H 0.94833 0.9078 0.27203 0.0
H357 H 0.84205 0.89953 0.38198 0.0
H358 H 0.8802 0.9069 0.40714 0.0
H359 H 0.87056 0.86878 0.38493 0.0
C360 C 0.97989 0.90872 0.40848 0.0
C361 C 0.98378 0.878 0.4241 0.0
C362 C 0.95633 0.91598 0.3764 0.0
C363 C 0.9358 0.89285 0.35957 0.0
C364 C 0.93927 0.8622 0.37534 0.0
H365 H 0.83504 0.92183 0.0997 0.0
H366 H 0.8544 0.89412 0.16834 0.0
C367 C 0.96311 0.8548 0.40725 0.0
C368 C 0.91248 0.90076 0.32286 0.0
H369 H 0.83482 0.91393 0.30297 0.0
C370 C 0.92353 0.90902 0.2787 0.0
C371 C 0.8801 0.90226 0.33177 0.0
C372 C 0.86727 0.89407 0.37903 0.0
C373 C 0.90327 0.91939 0.24347 0.0
C374 C 0.87085 0.92096 0.25214 0.0
C375 C 0.85961 0.91237 0.29621 0.0
C376 C 0.84923 0.9334 0.21605 0.0
C377 C 0.91687 0.92966 0.19761 0.0
C378 C 0.83758 0.96384 0.22093 0.0
C379 C 0.82587 0.97949 0.1818 0.0
C380 C 0.82568 0.96485 0.13743 0.0
C381 C 0.83419 0.93334 0.13374 0.0
C382 C 0.84557 0.91761 0.17287 0.0
H383 H 0.94252 0.93221 0.19986 0.0
H384 H 0.91141 0.91203 0.1699 0.0
H385 H 0.90675 0.95226 0.1868 0.0
H386 H 0.84037 0.97653 0.25381 0.0
H387 H 0.82032 1.00404 0.18525 0.0
H388 H 0.16823 0.86065 0.56849 0.0
H389 H 0.20144 0.8806 0.63211 0.0
H390 H 0.13342 0.85082 0.73269 0.0
H391 H 0.10081 0.82987 0.66896 0.0
H392 H 0.17872 0.92838 0.67925 0.0
H393 H 0.2123 0.83928 0.80776 0.0
H394 H 0.19956 0.8292 0.74895 0.0
H395 H 0.17147 0.83753 0.79403 0.0
C396 C 0.16142 0.85655 0.60437 0.0
C397 C 0.13229 0.84323 0.61397 0.0
C398 C 0.18022 0.86829 0.64074 0.0
C399 C 0.17002 0.86734 0.68736 0.0
C400 C 0.14226 0.85129 0.69727 0.0
H401 H 0.16832 0.00838 0.89542 0.0
H402 H 0.16064 0.96868 0.83451 0.0
C403 C 0.12361 0.83913 0.66078 0.0
C404 C 0.18455 0.8884 0.72335 0.0
H405 H 0.20994 0.8927 0.83718 0.0
C406 C 0.18622 0.92035 0.71337 0.0
C407 C 0.19433 0.87816 0.76802 0.0
C408 C 0.19463 0.84411 0.78017 0.0
C409 C 0.19587 0.94234 0.74731 0.0
C410 C 0.20378 0.93232 0.79274 0.0
C411 C 0.20368 0.90032 0.80231 0.0
C412 C 0.20911 0.95521 0.83145 0.0
C413 C 0.19655 0.97638 0.73482 0.0
C414 C 0.239 0.9606 0.85031 0.0
C415 C 0.24361 0.98361 0.88525 0.0
C416 C 0.21832 1.00134 0.90201 0.0
C417 C 0.1884 0.99534 0.88335 0.0
C418 C 0.1839 0.97259 0.84851 0.0
H419 H 0.19683 0.97963 0.69627 0.0
H420 H 0.17542 0.98798 0.74894 0.0
H421 H 0.21728 0.98813 0.75058 0.0
H422 H 0.25876 0.94739 0.83749 0.0
H423 H 0.2669 0.98753 0.89903 0.0
H424 H 0.8591 0.91508 0.96738 0.0
H425 H 0.88077 0.88327 0.90361 0.0
H426 H 0.84798 0.95014 0.80348 0.0
H427 H 0.82505 0.9813 0.86724 0.0
H428 H 0.85112 0.88846 0.76593 0.0
H429 H 0.96059 0.92423 0.85765 0.0
H430 H 0.93454 0.90144 0.89219 0.0
H431 H 0.92308 0.93967 0.8738 0.0
C432 C 0.85511 0.92207 0.93151 0.0
C433 C 0.84038 0.95049 0.92202 0.0
C434 C 0.86778 0.90409 0.89516 0.0
C435 C 0.86679 0.91483 0.84899 0.0
C436 C 0.84912 0.94149 0.8389 0.0
H437 H 0.00574 0.91506 0.64136 0.0
H438 H 0.96755 0.92333 0.70267 0.0
C439 C 0.83584 0.95919 0.87528 0.0
C440 C 0.88829 0.90168 0.81325 0.0
H441 H 0.96577 0.89489 0.7883 0.0
C442 C 0.87619 0.88951 0.7709 0.0
C443 C 0.92105 0.90358 0.81958 0.0
C444 C 0.93569 0.91817 0.86301 0.0
C445 C 0.89602 0.87963 0.73445 0.0
C446 C 0.92871 0.88166 0.7409 0.0
C447 C 0.9407 0.89309 0.78365 0.0
C448 C 0.95105 0.87567 0.7023 0.0
C449 C 0.88193 0.86844 0.68863 0.0
C450 C 0.9547 0.84593 0.68171 0.0
C451 C 0.97675 0.84103 0.64619 0.0
C452 C 0.99552 0.86579 0.63099 0.0
C453 C 0.99179 0.89539 0.65208 0.0
C454 C 0.96988 0.90022 0.68722 0.0
H455 H 0.85649 0.8731 0.68665 0.0
H456 H 0.89348 0.87989 0.65873 0.0
H457 H 0.88557 0.84294 0.68474 0.0
H458 H 0.94078 0.82651 0.69339 0.0
H459 H 0.97904 0.81796 0.63066 0.0
H460 H 0.17555 0.98936 0.08626 0.0
H461 H 0.1648 0.95083 0.14525 0.0
H462 H 0.2583 0.96115 0.1999 0.0
H463 H 0.26942 1.00025 0.13998 0.0
H464 H 0.1882 0.89555 0.17094 0.0
H465 H 0.21013 0.98121 0.31651 0.0
H466 H 0.20294 0.99393 0.25738 0.0
H467 H 0.23946 0.97628 0.27301 0.0
C468 C 0.19398 0.98355 0.11076 0.0
C469 C 0.2232 0.99846 0.10901 0.0
C470 C 0.18774 0.9614 0.14463 0.0
C471 C 0.2102 0.95396 0.17853 0.0
C472 C 0.2401 0.9674 0.17536 0.0
H473 H 0.16162 0.86318 0.44182 0.0
H474 H 0.19323 0.88175 0.37661 0.0
C475 C 0.24657 0.98951 0.14083 0.0
C476 C 0.20111 0.9333 0.2178 0.0
H477 H 0.18675 0.9342 0.33539 0.0
C478 C 0.18825 0.90386 0.20703 0.0
C479 C 0.20126 0.94394 0.26504 0.0
C480 C 0.21397 0.9756 0.27895 0.0
C481 C 0.1747 0.88531 0.24169 0.0
C482 C 0.17324 0.89674 0.28847 0.0
C483 C 0.18752 0.92547 0.29961 0.0
C484 C 0.15546 0.88048 0.32585 0.0
C485 C 0.1621 0.85367 0.2276 0.0
C486 C 0.12379 0.87281 0.31917 0.0
C487 C 0.10599 0.86135 0.35617 0.0
C488 C 0.11937 0.85771 0.40074 0.0
C489 C 0.1511 0.86468 0.4073 0.0
C490 C 0.16904 0.8757 0.37017 0.0
H491 H 0.17491 0.84384 0.19709 0.0
H492 H 0.16365 0.83698 0.25684 0.0
H493 H 0.13728 0.856 0.217 0.0
H494 H 0.11229 0.87735 0.2861 0.0
H495 H 0.08125 0.85748 0.35083 0.0
H496 H 0.11329 0.27285 0.59615 0.0
H497 H 0.15469 0.26099 0.65291 0.0
H498 H 0.11572 0.16916 0.67043 0.0
H499 H 0.07559 0.1803 0.61235 0.0
H500 H 0.15471 0.24929 0.7401 0.0
H501 H 0.20362 0.145 0.65466 0.0
H502 H 0.17631 0.16988 0.62486 0.0
H503 H 0.16267 0.13892 0.66169 0.0
C504 C 0.11378 0.25007 0.61195 0.0
C505 C 0.09135 0.22741 0.59952 0.0
C506 C 0.13749 0.24327 0.64427 0.0
C507 C 0.13904 0.2138 0.66508 0.0
C508 C 0.11602 0.19157 0.65354 0.0
H509 H 0.18061 0.15784 0.93114 0.0
H510 H 0.16789 0.18715 0.86196 0.0
C511 C 0.09278 0.19811 0.62067 0.0
C512 C 0.16319 0.20667 0.70119 0.0
H513 H 0.20882 0.14726 0.74032 0.0
C514 C 0.16709 0.22728 0.73954 0.0
C515 C 0.18057 0.17859 0.7001 0.0
C516 C 0.18083 0.15711 0.65774 0.0
C517 C 0.18536 0.2192 0.77853 0.0
C518 C 0.19911 0.18923 0.78012 0.0
C519 C 0.19775 0.16996 0.73991 0.0
C520 C 0.2103 0.17553 0.82485 0.0
C521 C 0.18899 0.24266 0.81812 0.0
C522 C 0.23853 0.15887 0.82763 0.0
C523 C 0.24574 0.14139 0.86753 0.0
C524 C 0.22461 0.14012 0.90487 0.0
C525 C 0.19738 0.15825 0.90294 0.0
C526 C 0.19021 0.17545 0.8634 0.0
H527 H 0.19029 0.26669 0.80429 0.0
H528 H 0.16823 0.24162 0.84103 0.0
H529 H 0.2102 0.23825 0.8395 0.0
H530 H 0.25432 0.15834 0.79819 0.0
H531 H 0.26676 0.12746 0.8679 0.0
H532 H 0.80561 0.11832 0.11504 0.0
H533 H 0.81495 0.16061 0.17295 0.0
H534 H 0.90911 0.12827 0.19283 0.0
H535 H 0.90025 0.08649 0.13571 0.0
H536 H 0.86929 0.13928 0.27844 0.0
H537 H 0.87762 0.23881 0.156 0.0
H538 H 0.84634 0.21084 0.14966 0.0
H539 H 0.88547 0.19937 0.13642 0.0
C540 C 0.82829 0.12031 0.13175 0.0
C541 C 0.85217 0.09901 0.12061 0.0
C542 C 0.8336 0.1445 0.16465 0.0
C543 C 0.86278 0.1476 0.18692 0.0
C544 C 0.88646 0.12633 0.17594 0.0
H545 H 0.98987 0.2527 0.336 0.0
H546 H 0.95337 0.23308 0.27641 0.0
C547 C 0.8813 0.10243 0.14315 0.0
C548 C 0.86921 0.17231 0.22265 0.0
H549 H 0.89404 0.24778 0.23396 0.0
C550 C 0.87389 0.16326 0.26915 0.0
C551 C 0.87547 0.20341 0.2101 0.0
C552 C 0.87109 0.21397 0.16037 0.0
C553 C 0.88636 0.18399 0.30295 0.0
C554 C 0.89399 0.21481 0.28999 0.0
C555 C 0.88781 0.22432 0.24397 0.0
C556 C 0.91309 0.23523 0.32152 0.0
C557 C 0.89349 0.17199 0.35132 0.0
C558 C 0.90219 0.24499 0.36573 0.0
C559 C 0.92312 0.25659 0.3998 0.0
C560 C 0.95504 0.25869 0.38979 0.0
C561 C 0.96524 0.25192 0.34415 0.0
C562 C 0.94441 0.2405 0.31019 0.0
H563 H 0.89005 0.14639 0.3536 0.0
H564 H 0.91793 0.17755 0.36153 0.0
H565 H 0.87787 0.18349 0.37712 0.0
H566 H 0.87805 0.24134 0.37508 0.0
H567 H 0.91488 0.26094 0.43509 0.0
loop_
_geom_bond_atom_site_label_1
_geom_bond_atom_site_label_2
_geom_bond_distance
_geom_bond_site_symmetry_2
_ccdc_geom_bond_type
C0 O16 1.251 . S
C0 O18 1.254 . S
N1 C2 1.333 1_554 S
N1 C6 1.307 . S
N1 Zn7 2.020 . S
C2 N1 1.333 1_556 S
C2 C3 1.379 . S
C2 H20 0.952 . S
C3 C2 1.379 . S
C3 C4 1.390 1_556 S
C3 H30 0.949 . S
C4 C3 1.390 1_554 S
C4 C5 1.357 . S
C5 C4 1.357 . S
C5 C6 1.370 . S
C5 H31 0.950 . S
C6 N1 1.307 . S
C6 C5 1.370 . S
C6 H24 0.948 . S
Zn7 N1 2.020 . S
Zn7 O16 2.039 1_554 S
Zn7 O22 2.034 . S
Zn7 O26 2.025 . S
Zn7 O28 2.024 1_554 S
C8 O27 1.246 . S
C8 O28 1.249 . S
N9 C10 1.307 1_554 S
N9 C11 1.333 . S
N9 Zn15 2.020 . S
C10 N9 1.307 1_556 S
C10 C14 1.370 . S
C10 H21 0.948 . S
C11 N9 1.333 . S
C11 C12 1.379 . S
C11 H19 0.952 . S
C12 C11 1.379 . S
C12 C13 1.390 . S
C12 H32 0.949 . S
C13 C12 1.390 . S
C13 C14 1.357 1_554 S
C14 C10 1.370 . S
C14 C13 1.357 1_556 S
C14 H33 0.950 . S
Zn15 N9 2.020 . S
Zn15 O18 2.025 1_554 S
Zn15 O23 2.024 . S
Zn15 O25 2.039 . S
Zn15 O27 2.034 1_554 S
O16 C0 1.251 . S
O16 Zn7 2.039 1_556 S
C17 O22 1.246 . S
C17 O23 1.249 . S
O18 C0 1.254 . S
O18 Zn15 2.025 1_556 S
H19 C11 0.952 . S
H20 C2 0.952 . S
H21 C10 0.948 . S
O22 Zn7 2.034 . S
O22 C17 1.246 . S
O23 Zn15 2.024 . S
O23 C17 1.249 . S
H24 C6 0.948 . S
O25 Zn15 2.039 . S
O25 C29 1.251 . S
O26 Zn7 2.025 . S
O26 C29 1.254 . S
O27 C8 1.246 . S
O27 Zn15 2.034 1_556 S
O28 Zn7 2.024 1_556 S
O28 C8 1.249 . S
C29 O25 1.251 . S
C29 O26 1.254 . S
H30 C3 0.949 . S
H31 C5 0.950 . S
H32 C12 0.949 . S
H33 C14 0.950 . S
C34 O50 1.251 . S
C34 O52 1.254 . S
N35 C36 1.333 . S
N35 C40 1.307 1_455 S
N35 Zn41 2.020 . S
C36 N35 1.333 . S
C36 C37 1.379 . S
C36 H54 0.952 . S
C37 C36 1.379 . S
C37 C38 1.390 . S
C37 H64 0.949 . S
C38 C37 1.390 . S
C38 C39 1.357 1_455 S
C39 C38 1.357 1_655 S
C39 C40 1.370 . S
C39 H65 0.950 . S
C40 N35 1.307 1_655 S
C40 C39 1.370 . S
C40 H58 0.948 . S
Zn41 N35 2.020 . S
Zn41 O50 2.039 . S
Zn41 O56 2.034 . S
Zn41 O60 2.025 1_455 S
Zn41 O62 2.024 1_455 S
C42 O61 1.246 . S
C42 O62 1.249 . S
N43 C44 1.307 . S
N43 C45 1.350 . S
N43 Zn49 2.020 . S
C44 N43 1.307 . S
C44 C48 1.370 . S
C44 H55 0.948 . S
C45 N43 1.350 . S
C45 C46 1.378 1_455 S
C45 H53 0.935 1_455 S
C46 C45 1.378 1_655 S
C46 C47 1.390 1_655 S
C46 H66 0.949 . S
C47 C46 1.390 1_455 S
C47 C48 1.357 . S
C48 C44 1.370 . S
C48 C47 1.357 . S
C48 H67 0.950 . S
Zn49 N43 2.020 . S
Zn49 O52 2.025 . S
Zn49 O57 2.024 . S
Zn49 O59 2.039 1_455 S
Zn49 O61 2.034 1_455 S
O50 C34 1.251 . S
O50 Zn41 2.039 . S
C51 O56 1.246 . S
C51 O57 1.249 . S
O52 C34 1.254 . S
O52 Zn49 2.025 . S
H53 C45 0.935 1_655 S
H54 C36 0.952 . S
H55 C44 0.948 . S
O56 Zn41 2.034 . S
O56 C51 1.246 . S
O57 Zn49 2.024 . S
O57 C51 1.249 . S
H58 C40 0.948 . S
O59 Zn49 2.039 1_655 S
O59 C63 1.251 . S
O60 Zn41 2.025 1_655 S
O60 C63 1.254 . S
O61 C42 1.246 . S
O61 Zn49 2.034 1_655 S
O62 Zn41 2.024 1_655 S
O62 C42 1.249 . S
C63 O59 1.251 . S
C63 O60 1.254 . S
H64 C37 0.949 . S
H65 C39 0.950 . S
H66 C46 0.949 . S
H67 C48 0.950 . S
C68 O84 1.251 . S
C68 O86 1.254 . S
N69 C70 1.333 1_554 S
N69 C74 1.307 1_545 S
N69 Zn75 2.020 . S
C70 N69 1.333 1_556 S
C70 C71 1.379 . S
C70 H88 0.952 . S
C71 C70 1.379 . S
C71 C72 1.390 1_556 S
C71 H98 0.949 . S
C72 C71 1.390 1_554 S
C72 C73 1.357 1_545 S
C73 C72 1.357 1_565 S
C73 C74 1.370 . S
C73 H99 0.950 . S
C74 N69 1.307 1_565 S
C74 C73 1.370 . S
C74 H92 0.948 . S
Zn75 N69 2.020 . S
Zn75 O84 2.039 1_554 S
Zn75 O90 2.034 . S
Zn75 O94 2.025 1_545 S
Zn75 O96 2.024 1_544 S
C76 O95 1.246 . S
C76 O96 1.249 . S
N77 C78 1.307 1_554 S
N77 C79 1.333 . S
N77 Zn83 2.020 . S
C78 N77 1.307 1_556 S
C78 C82 1.370 . S
C78 H89 0.948 . S
C79 N77 1.333 . S
C79 C80 1.379 1_545 S
C79 H87 0.952 1_545 S
C80 C79 1.379 1_565 S
C80 C81 1.390 1_565 S
C80 H100 0.949 . S
C81 C80 1.390 1_545 S
C81 C82 1.357 1_554 S
C82 C78 1.370 . S
C82 C81 1.357 1_556 S
C82 H101 0.950 . S
Zn83 N77 2.020 . S
Zn83 O86 2.025 1_554 S
Zn83 O91 2.024 . S
Zn83 O93 2.039 1_545 S
Zn83 O95 2.034 1_544 S
O84 C68 1.251 . S
O84 Zn75 2.039 1_556 S
C85 O90 1.246 . S
C85 O91 1.249 . S
O86 C68 1.254 . S
O86 Zn83 2.025 1_556 S
H87 C79 0.952 1_565 S
H88 C70 0.952 . S
H89 C78 0.948 . S
O90 Zn75 2.034 . S
O90 C85 1.246 . S
O91 Zn83 2.024 . S
O91 C85 1.249 . S
H92 C74 0.948 . S
O93 Zn83 2.039 1_565 S
O93 C97 1.251 . S
O94 Zn75 2.025 1_565 S
O94 C97 1.254 . S
O95 C76 1.246 . S
O95 Zn83 2.034 1_566 S
O96 Zn75 2.024 1_566 S
O96 C76 1.249 . S
C97 O93 1.251 . S
C97 O94 1.254 . S
H98 C71 0.949 . S
H99 C73 0.950 . S
H100 C80 0.949 . S
H101 C82 0.950 . S
C102 O118 1.251 . S
C102 O120 1.254 . S
N103 C104 1.333 . S
N103 C108 1.307 . S
N103 Zn109 2.020 . S
C104 N103 1.333 . S
C104 C105 1.379 . S
C104 H122 0.952 . S
C105 C104 1.379 . S
C105 C106 1.390 . S
C105 H132 0.949 . S
C106 C105 1.390 . S
C106 C107 1.357 . S
C107 C106 1.357 . S
C107 C108 1.370 . S
C107 H133 0.950 . S
C108 N103 1.307 . S
C108 C107 1.370 . S
C108 H126 0.948 . S
Zn109 N103 2.020 . S
Zn109 O118 2.039 . S
Zn109 O124 2.034 . S
Zn109 O128 2.025 . S
Zn109 O130 2.024 . S
C110 O129 1.246 . S
C110 O130 1.249 . S
N111 C112 1.307 . S
N111 C113 1.333 . S
N111 Zn117 2.020 . S
C112 N111 1.307 . S
C112 C116 1.370 . S
C112 H123 0.948 . S
C113 N111 1.333 . S
C113 C114 1.379 . S
C113 H121 0.952 . S
C114 C113 1.379 . S
C114 C115 1.390 . S
C114 H134 0.949 . S
C115 C114 1.390 . S
C115 C116 1.357 . S
C116 C112 1.370 . S
C116 C115 1.357 . S
C116 H135 0.950 . S
Zn117 N111 2.020 . S
Zn117 O120 2.025 . S
Zn117 O125 2.024 . S
Zn117 O127 2.039 . S
Zn117 O129 2.034 . S
O118 C102 1.251 . S
O118 Zn109 2.039 . S
C119 O124 1.246 . S
C119 O125 1.249 . S
O120 C102 1.254 . S
O120 Zn117 2.025 . S
H121 C113 0.952 . S
H122 C104 0.952 . S
H123 C112 0.948 . S
O124 Zn109 2.034 . S
O124 C119 1.246 . S
O125 Zn117 2.024 . S
O125 C119 1.249 . S
H126 C108 0.948 . S
O127 Zn117 2.039 . S
O127 C131 1.251 . S
O128 Zn109 2.025 . S
O128 C131 1.254 . S
O129 C110 1.246 . S
O129 Zn117 2.034 . S
O130 Zn109 2.024 . S
O130 C110 1.249 . S
C131 O127 1.251 . S
C131 O128 1.254 . S
H132 C105 0.949 . S
H133 C107 0.950 . S
H134 C114 0.949 . S
H135 C116 0.950 . S
H136 C144 0.929 . S
H137 C146 0.930 . S
H138 C148 0.930 . S
H139 C151 0.929 . S
H140 C154 0.930 1_565 S
H141 C156 0.960 1_455 S
H142 C156 0.960 1_554 S
H143 C156 0.960 . S
C144 H136 0.929 . S
C144 C145 1.377 . S
C144 C146 1.384 1_565 S
C145 C144 1.377 . S
C145 C151 1.390 1_564 S
C146 H137 0.930 . S
C146 C144 1.384 1_545 S
C146 C147 1.372 . S
C147 C146 1.372 . S
C147 C148 1.400 1_554 S
C147 C152 1.490 1_655 S
C148 H138 0.930 . S
C148 C147 1.400 1_556 S
C148 C151 1.386 . S
H149 C165 0.930 . S
H150 C166 0.931 . S
C151 H139 0.929 . S
C151 C145 1.390 1_546 S
C151 C148 1.386 . S
C152 C147 1.490 1_455 S
C152 C154 1.395 . S
C152 C155 1.403 . S
H153 C159 0.930 1_556 S
C154 H140 0.930 1_545 S
C154 C152 1.395 . S
C154 C157 1.403 . S
C155 C152 1.403 . S
C155 C156 1.524 1_454 S
C155 C159 1.400 . S
C156 H141 0.960 1_655 S
C156 H142 0.960 1_556 S
C156 H143 0.960 . S
C156 C155 1.524 1_656 S
C157 C154 1.403 . S
C157 C158 1.392 . S
C157 C161 1.495 1_545 S
C158 C157 1.392 . S
C158 C159 1.385 . S
C158 C160 1.478 . S
C159 H153 0.930 1_554 S
C159 C155 1.400 . S
C159 C158 1.385 . S
C160 C158 1.478 . S
C160 C162 1.381 . S
C160 C166 1.383 1_554 S
C161 C157 1.495 1_565 S
C161 H167 0.959 . S
C161 H168 0.961 . S
C161 H169 0.960 1_565 S
C162 C160 1.381 . S
C162 C163 1.394 . S
C162 H170 0.930 . S
C163 C162 1.394 . S
C163 C164 1.383 . S
C163 H171 0.929 . S
C164 C163 1.383 . S
C164 C165 1.377 1_554 S
C165 H149 0.930 . S
C165 C164 1.377 1_556 S
C165 C166 1.379 . S
C166 H150 0.931 . S
C166 C160 1.383 1_556 S
C166 C165 1.379 . S
H167 C161 0.959 . S
H168 C161 0.961 . S
H169 C161 0.960 1_545 S
H170 C162 0.930 . S
H171 C163 0.929 . S
H172 C180 0.929 . S
H173 C182 0.930 . S
H174 C184 0.930 . S
H175 C187 0.929 . S
H176 C190 0.930 1_565 S
H177 C192 0.960 . S
H178 C192 0.960 . S
H179 C192 0.960 . S
C180 H172 0.929 . S
C180 C181 1.377 . S
C180 C182 1.384 . S
C181 C180 1.377 . S
C181 C187 1.390 . S
C182 H173 0.930 . S
C182 C180 1.384 . S
C182 C183 1.372 . S
C183 C182 1.372 . S
C183 C184 1.400 . S
C183 C188 1.490 1_565 S
C184 H174 0.930 . S
C184 C183 1.400 . S
C184 C187 1.386 . S
H185 C201 0.930 . S
H186 C202 0.931 . S
C187 H175 0.929 . S
C187 C181 1.390 . S
C187 C184 1.386 . S
C188 C183 1.490 1_545 S
C188 C190 1.395 . S
C188 C191 1.403 . S
H189 C195 0.930 . S
C190 H176 0.930 1_545 S
C190 C188 1.395 . S
C190 C193 1.403 . S
C191 C188 1.403 . S
C191 C192 1.524 . S
C191 C195 1.400 . S
C192 H177 0.960 . S
C192 H178 0.960 . S
C192 H179 0.960 . S
C192 C191 1.524 . S
C193 C190 1.403 . S
C193 C194 1.392 . S
C193 C197 1.495 1_455 S
C194 C193 1.392 . S
C194 C195 1.385 . S
C194 C196 1.478 . S
C195 H189 0.930 . S
C195 C191 1.400 . S
C195 C194 1.385 . S
C196 C194 1.478 . S
C196 C198 1.381 . S
C196 C202 1.383 . S
C197 C193 1.495 1_655 S
C197 H203 0.959 . S
C197 H204 0.961 . S
C197 H205 0.960 . S
C198 C196 1.381 . S
C198 C199 1.394 1_455 S
C198 H206 0.930 . S
C199 C198 1.394 1_655 S
C199 C200 1.383 . S
C199 H207 0.929 . S
C200 C199 1.383 . S
C200 C201 1.377 . S
C201 H185 0.930 . S
C201 C200 1.377 . S
C201 C202 1.379 1_655 S
C202 H186 0.931 . S
C202 C196 1.383 . S
C202 C201 1.379 1_455 S
H203 C197 0.959 . S
H204 C197 0.961 . S
H205 C197 0.960 . S
H206 C198 0.930 . S
H207 C199 0.929 . S
H208 C216 0.907 1_565 S
H209 C218 0.930 1_565 S
H210 C220 0.930 . S
H211 C223 0.929 . S
H212 C226 0.930 . S
H213 C228 0.960 . S
H214 C228 0.960 1_565 S
H215 C228 0.960 . S
C216 H208 0.907 1_545 S
C216 C217 1.395 . S
C216 C218 1.389 . S
C217 C216 1.395 . S
C217 C223 1.390 1_554 S
C218 H209 0.930 1_545 S
C218 C216 1.389 . S
C218 C219 1.372 . S
C219 C218 1.372 . S
C219 C220 1.400 1_554 S
C219 C224 1.490 . S
C220 H210 0.930 . S
C220 C219 1.400 1_556 S
C220 C223 1.386 . S
H221 C237 0.930 . S
H222 C238 0.931 . S
C223 H211 0.929 . S
C223 C217 1.390 1_556 S
C223 C220 1.386 . S
C224 C219 1.490 . S
C224 C226 1.395 . S
C224 C227 1.403 1_554 S
H225 C231 0.930 . S
C226 H212 0.930 . S
C226 C224 1.395 . S
C226 C229 1.403 . S
C227 C224 1.403 1_556 S
C227 C228 1.524 . S
C227 C231 1.400 . S
C228 H213 0.960 . S
C228 H214 0.960 1_545 S
C228 H215 0.960 . S
C228 C227 1.524 . S
C229 C226 1.403 . S
C229 C230 1.392 . S
C229 C233 1.495 . S
C230 C229 1.392 . S
C230 C231 1.385 1_554 S
C230 C232 1.478 . S
C231 H225 0.930 . S
C231 C227 1.400 . S
C231 C230 1.385 1_556 S
C232 C230 1.478 . S
C232 C234 1.381 . S
C232 C238 1.383 1_554 S
C233 C229 1.495 . S
C233 H239 0.959 . S
C233 H240 0.961 . S
C233 H241 0.960 . S
C234 C232 1.381 . S
C234 C235 1.394 . S
C234 H242 0.930 . S
C235 C234 1.394 . S
C235 C236 1.383 . S
C235 H243 0.929 . S
C236 C235 1.383 . S
C236 C237 1.377 1_554 S
C237 H221 0.930 . S
C237 C236 1.377 1_556 S
C237 C238 1.379 . S
C238 H222 0.931 . S
C238 C232 1.383 1_556 S
C238 C237 1.379 . S
H239 C233 0.959 . S
H240 C233 0.961 . S
H241 C233 0.960 . S
H242 C234 0.930 . S
H243 C235 0.929 . S
H244 C252 0.929 . S
H245 C254 0.930 . S
H246 C256 0.930 . S
H247 C259 0.929 1_655 S
H248 C262 0.930 . S
H249 C264 0.960 . S
H250 C264 0.960 . S
H251 C264 0.960 . S
C252 H244 0.929 . S
C252 C253 1.377 . S
C252 C254 1.384 . S
C253 C252 1.377 . S
C253 C259 1.390 . S
C254 H245 0.930 . S
C254 C252 1.384 . S
C254 C255 1.372 . S
C255 C254 1.372 . S
C255 C256 1.400 . S
C255 C260 1.490 . S
C256 H246 0.930 . S
C256 C255 1.400 . S
C256 C259 1.386 . S
H257 C273 0.930 . S
H258 C274 0.931 . S
C259 H247 0.929 1_455 S
C259 C253 1.390 . S
C259 C256 1.386 . S
C260 C255 1.490 . S
C260 C262 1.395 . S
C260 C263 1.403 . S
H261 C267 0.930 . S
C262 H248 0.930 . S
C262 C260 1.395 . S
C262 C265 1.403 . S
C263 C260 1.403 . S
C263 C264 1.524 . S
C263 C267 1.400 . S
C264 H249 0.960 . S
C264 H250 0.960 . S
C264 H251 0.960 . S
C264 C263 1.524 . S
C265 C262 1.403 . S
C265 C266 1.392 . S
C265 C269 1.495 . S
C266 C265 1.392 . S
C266 C267 1.385 . S
C266 C268 1.478 . S
C267 H261 0.930 . S
C267 C263 1.400 . S
C267 C266 1.385 . S
C268 C266 1.478 . S
C268 C270 1.381 . S
C268 C274 1.383 . S
C269 C265 1.495 . S
C269 H275 0.959 . S
C269 H276 0.961 . S
C269 H277 0.960 . S
C270 C268 1.381 . S
C270 C271 1.394 . S
C270 H278 0.930 . S
C271 C270 1.394 . S
C271 C272 1.383 . S
C271 H279 0.929 . S
C272 C271 1.383 . S
C272 C273 1.377 . S
C273 H257 0.930 . S
C273 C272 1.377 . S
C273 C274 1.379 . S
C274 H258 0.931 . S
C274 C268 1.383 . S
C274 C273 1.379 . S
H275 C269 0.959 . S
H276 C269 0.961 . S
H277 C269 0.960 . S
H278 C270 0.930 . S
H279 C271 0.929 . S
H280 C288 0.929 . S
H281 C290 0.930 . S
H282 C292 0.930 . S
H283 C295 0.929 . S
H284 C298 0.930 . S
H285 C300 0.960 . S
H286 C300 0.960 . S
H287 C300 0.960 . S
C288 H280 0.929 . S
C288 C289 1.377 . S
C288 C290 1.384 . S
C289 C288 1.377 . S
C289 C295 1.390 . S
C290 H281 0.930 . S
C290 C288 1.384 . S
C290 C291 1.372 . S
C291 C290 1.372 . S
C291 C292 1.400 . S
C291 C296 1.490 . S
C292 H282 0.930 . S
C292 C291 1.400 . S
C292 C295 1.386 . S
H293 C309 0.930 . S
H294 C310 0.931 . S
C295 H283 0.929 . S
C295 C289 1.390 . S
C295 C292 1.386 . S
C296 C291 1.490 . S
C296 C298 1.395 . S
C296 C299 1.403 . S
H297 C303 0.930 . S
C298 H284 0.930 . S
C298 C296 1.395 . S
C298 C301 1.403 . S
C299 C296 1.403 . S
C299 C300 1.524 . S
C299 C303 1.400 . S
C300 H285 0.960 . S
C300 H286 0.960 . S
C300 H287 0.960 . S
C300 C299 1.524 . S
C301 C298 1.403 . S
C301 C302 1.392 . S
C301 C305 1.495 . S
C302 C301 1.392 . S
C302 C303 1.385 . S
C302 C304 1.478 . S
C303 H297 0.930 . S
C303 C299 1.400 . S
C303 C302 1.385 . S
C304 C302 1.478 . S
C304 C306 1.381 . S
C304 C310 1.383 . S
C305 C301 1.495 . S
C305 H311 0.959 . S
C305 H312 0.961 . S
C305 H313 0.960 . S
C306 C304 1.381 . S
C306 C307 1.394 . S
C306 H314 0.930 . S
C307 C306 1.394 . S
C307 C308 1.383 . S
C307 H315 0.929 . S
C308 C307 1.383 . S
C308 C309 1.377 . S
C309 H293 0.930 . S
C309 C308 1.377 . S
C309 C310 1.379 . S
C310 H294 0.931 . S
C310 C304 1.383 . S
C310 C309 1.379 . S
H311 C305 0.959 . S
H312 C305 0.961 . S
H313 C305 0.960 . S
H314 C306 0.930 . S
H315 C307 0.929 . S
H316 C324 0.929 . S
H317 C326 0.930 . S
H318 C328 0.930 . S
H319 C331 0.929 . S
H320 C334 0.930 . S
H321 C336 0.960 . S
H322 C336 0.960 . S
H323 C336 0.960 . S
C324 H316 0.929 . S
C324 C325 1.377 . S
C324 C326 1.384 . S
C325 C324 1.377 . S
C325 C331 1.390 . S
C326 H317 0.930 . S
C326 C324 1.384 . S
C326 C327 1.372 . S
C327 C326 1.372 . S
C327 C328 1.400 . S
C327 C332 1.490 . S
C328 H318 0.930 . S
C328 C327 1.400 . S
C328 C331 1.386 . S
H329 C345 0.930 . S
H330 C346 0.931 . S
C331 H319 0.929 . S
C331 C325 1.390 . S
C331 C328 1.386 . S
C332 C327 1.490 . S
C332 C334 1.395 . S
C332 C335 1.403 . S
H333 C339 0.930 . S
C334 H320 0.930 . S
C334 C332 1.395 . S
C334 C337 1.403 . S
C335 C332 1.403 . S
C335 C336 1.524 . S
C335 C339 1.400 . S
C336 H321 0.960 . S
C336 H322 0.960 . S
C336 H323 0.960 . S
C336 C335 1.524 . S
C337 C334 1.403 . S
C337 C338 1.392 . S
C337 C341 1.495 . S
C338 C337 1.392 . S
C338 C339 1.385 . S
C338 C340 1.478 . S
C339 H333 0.930 . S
C339 C335 1.400 . S
C339 C338 1.385 . S
C340 C338 1.478 . S
C340 C342 1.381 . S
C340 C346 1.383 . S
C341 C337 1.495 . S
C341 H347 0.959 . S
C341 H348 0.961 . S
C341 H349 0.960 . S
C342 C340 1.381 . S
C342 C343 1.394 . S
C342 H350 0.930 . S
C343 C342 1.394 . S
C343 C344 1.383 . S
C343 H351 0.929 . S
C344 C343 1.383 . S
C344 C345 1.377 . S
C345 H329 0.930 . S
C345 C344 1.377 . S
C345 C346 1.379 . S
C346 H330 0.931 . S
C346 C340 1.383 . S
C346 C345 1.379 . S
H347 C341 0.959 . S
H348 C341 0.961 . S
H349 C341 0.960 . S
H350 C342 0.930 . S
H351 C343 0.929 . S
H352 C360 0.929 . S
H353 C362 0.930 . S
H354 C364 0.930 . S
H355 C367 0.929 . S
H356 C370 0.930 . S
H357 C372 0.960 . S
H358 C372 0.960 . S
H359 C372 0.960 . S
C360 H352 0.929 . S
C360 C361 1.377 . S
C360 C362 1.384 . S
C361 C360 1.377 . S
C361 C367 1.390 . S
C362 H353 0.930 . S
C362 C360 1.384 . S
C362 C363 1.372 . S
C363 C362 1.372 . S
C363 C364 1.400 . S
C363 C368 1.490 . S
C364 H354 0.930 . S
C364 C363 1.400 . S
C364 C367 1.386 . S
H365 C381 0.930 . S
H366 C382 0.931 . S
C367 H355 0.929 . S
C367 C361 1.390 . S
C367 C364 1.386 . S
C368 C363 1.490 . S
C368 C370 1.395 . S
C368 C371 1.403 . S
H369 C375 0.930 . S
C370 H356 0.930 . S
C370 C368 1.395 . S
C370 C373 1.403 . S
C371 C368 1.403 . S
C371 C372 1.524 . S
C371 C375 1.400 . S
C372 H357 0.960 . S
C372 H358 0.960 . S
C372 H359 0.960 . S
C372 C371 1.524 . S
C373 C370 1.403 . S
C373 C374 1.392 . S
C373 C377 1.495 . S
C374 C373 1.392 . S
C374 C375 1.385 . S
C374 C376 1.478 . S
C375 H369 0.930 . S
C375 C371 1.400 . S
C375 C374 1.385 . S
C376 C374 1.478 . S
C376 C378 1.381 . S
C376 C382 1.383 . S
C377 C373 1.495 . S
C377 H383 0.959 . S
C377 H384 0.961 . S
C377 H385 0.960 . S
C378 C376 1.381 . S
C378 C379 1.394 . S
C378 H386 0.930 . S
C379 C378 1.394 . S
C379 C380 1.383 . S
C379 H387 0.929 . S
C380 C379 1.383 . S
C380 C381 1.377 . S
C381 H365 0.930 . S
C381 C380 1.377 . S
C381 C382 1.379 . S
C382 H366 0.931 . S
C382 C376 1.383 . S
C382 C381 1.379 . S
H383 C377 0.959 . S
H384 C377 0.961 . S
H385 C377 0.960 . S
H386 C378 0.930 . S
H387 C379 0.929 . S
H388 C396 0.929 . S
H389 C398 0.930 . S
H390 C400 0.930 . S
H391 C403 0.929 . S
H392 C406 0.930 . S
H393 C408 0.960 . S
H394 C408 0.960 . S
H395 C408 0.960 . S
C396 H388 0.929 . S
C396 C397 1.377 . S
C396 C398 1.384 . S
C397 C396 1.377 . S
C397 C403 1.390 . S
C398 H389 0.930 . S
C398 C396 1.384 . S
C398 C399 1.372 . S
C399 C398 1.372 . S
C399 C400 1.400 . S
C399 C404 1.490 . S
C400 H390 0.930 . S
C400 C399 1.400 . S
C400 C403 1.386 . S
H401 C417 0.930 1_545 S
H402 C418 0.931 . S
C403 H391 0.929 . S
C403 C397 1.390 . S
C403 C400 1.386 . S
C404 C399 1.490 . S
C404 C406 1.395 . S
C404 C407 1.403 . S
H405 C411 0.930 . S
C406 H392 0.930 . S
C406 C404 1.395 . S
C406 C409 1.403 . S
C407 C404 1.403 . S
C407 C408 1.524 . S
C407 C411 1.400 . S
C408 H393 0.960 . S
C408 H394 0.960 . S
C408 H395 0.960 . S
C408 C407 1.524 . S
C409 C406 1.403 . S
C409 C410 1.392 . S
C409 C413 1.495 . S
C410 C409 1.392 . S
C410 C411 1.385 . S
C410 C412 1.478 . S
C411 H405 0.930 . S
C411 C407 1.400 . S
C411 C410 1.385 . S
C412 C410 1.478 . S
C412 C414 1.381 . S
C412 C418 1.383 . S
C413 C409 1.495 . S
C413 H419 0.959 . S
C413 H420 0.984 . S
C413 H421 0.960 . S
C414 C412 1.381 . S
C414 C415 1.394 . S
C414 H422 0.930 . S
C415 C414 1.394 . S
C415 C416 1.383 . S
C415 H423 0.929 . S
C416 C415 1.383 . S
C416 C417 1.377 . S
C417 H401 0.930 1_565 S
C417 C416 1.377 . S
C417 C418 1.379 . S
C418 H402 0.931 . S
C418 C412 1.383 . S
C418 C417 1.379 . S
H419 C413 0.959 . S
H420 C413 0.984 . S
H421 C413 0.960 . S
H422 C414 0.930 . S
H423 C415 0.929 . S
H424 C432 0.929 . S
H425 C434 0.930 . S
H426 C436 0.930 . S
H427 C439 0.929 . S
H428 C442 0.930 . S
H429 C444 0.960 . S
H430 C444 0.960 . S
H431 C444 0.960 . S
C432 H424 0.929 . S
C432 C433 1.377 . S
C432 C434 1.384 . S
C433 C432 1.377 . S
C433 C439 1.390 . S
C434 H425 0.930 . S
C434 C432 1.384 . S
C434 C435 1.372 . S
C435 C434 1.372 . S
C435 C436 1.400 . S
C435 C440 1.490 . S
C436 H426 0.930 . S
C436 C435 1.400 . S
C436 C439 1.386 . S
H437 C453 0.930 . S
H438 C454 0.931 . S
C439 H427 0.929 . S
C439 C433 1.390 . S
C439 C436 1.386 . S
C440 C435 1.490 . S
C440 C442 1.395 . S
C440 C443 1.403 . S
H441 C447 0.930 . S
C442 H428 0.930 . S
C442 C440 1.395 . S
C442 C445 1.403 . S
C443 C440 1.403 . S
C443 C444 1.524 . S
C443 C447 1.400 . S
C444 H429 0.960 . S
C444 H430 0.960 . S
C444 H431 0.960 . S
C444 C443 1.524 . S
C445 C442 1.403 . S
C445 C446 1.392 . S
C445 C449 1.495 . S
C446 C445 1.392 . S
C446 C447 1.385 . S
C446 C448 1.478 . S
C447 H441 0.930 . S
C447 C443 1.400 . S
C447 C446 1.385 . S
C448 C446 1.478 . S
C448 C450 1.381 . S
C448 C454 1.383 . S
C449 C445 1.495 . S
C449 H455 0.959 . S
C449 H456 0.961 . S
C449 H457 0.960 . S
C450 C448 1.381 . S
C450 C451 1.394 . S
C450 H458 0.930 . S
C451 C450 1.394 . S
C451 C452 1.383 . S
C451 H459 0.929 . S
C452 C451 1.383 . S
C452 C453 1.377 1_655 S
C453 H437 0.930 . S
C453 C452 1.377 1_455 S
C453 C454 1.379 1_455 S
C454 H438 0.931 . S
C454 C448 1.383 . S
C454 C453 1.379 1_655 S
H455 C449 0.959 . S
H456 C449 0.961 . S
H457 C449 0.960 . S
H458 C450 0.930 . S
H459 C451 0.929 . S
H460 C468 0.929 1_545 S
H461 C470 0.930 . S
H462 C472 0.930 . S
H463 C475 0.929 . S
H464 C478 0.930 . S
H465 C480 0.960 . S
H466 C480 0.960 . S
H467 C480 0.960 . S
C468 H460 0.929 1_565 S
C468 C469 1.377 . S
C468 C470 1.384 . S
C469 C468 1.377 . S
C469 C475 1.390 . S
C470 H461 0.930 . S
C470 C468 1.384 . S
C470 C471 1.372 . S
C471 C470 1.372 . S
C471 C472 1.400 . S
C471 C476 1.490 . S
C472 H462 0.930 . S
C472 C471 1.400 . S
C472 C475 1.386 . S
H473 C489 0.930 . S
H474 C490 0.931 . S
C475 H463 0.929 . S
C475 C469 1.390 . S
C475 C472 1.386 . S
C476 C471 1.490 . S
C476 C478 1.395 . S
C476 C479 1.403 . S
H477 C483 0.930 . S
C478 H464 0.930 . S
C478 C476 1.395 . S
C478 C481 1.403 . S
C479 C476 1.403 . S
C479 C480 1.524 . S
C479 C483 1.400 . S
C480 H465 0.960 . S
C480 H466 0.960 . S
C480 H467 0.960 . S
C480 C479 1.524 . S
C481 C478 1.403 . S
C481 C482 1.392 . S
C481 C485 1.495 . S
C482 C481 1.392 . S
C482 C483 1.385 . S
C482 C484 1.478 . S
C483 H477 0.930 . S
C483 C479 1.400 . S
C483 C482 1.385 . S
C484 C482 1.478 . S
C484 C486 1.381 . S
C484 C490 1.383 . S
C485 C481 1.495 . S
C485 H491 0.959 . S
C485 H492 0.961 . S
C485 H493 0.960 . S
C486 C484 1.381 . S
C486 C487 1.394 . S
C486 H494 0.930 . S
C487 C486 1.394 . S
C487 C488 1.383 . S
C487 H495 0.929 . S
C488 C487 1.383 . S
C488 C489 1.377 . S
C489 H473 0.930 . S
C489 C488 1.377 . S
C489 C490 1.379 . S
C490 H474 0.931 . S
C490 C484 1.383 . S
C490 C489 1.379 . S
H491 C485 0.959 . S
H492 C485 0.961 . S
H493 C485 0.960 . S
H494 C486 0.930 . S
H495 C487 0.929 . S
H496 C504 0.929 . S
H497 C506 0.930 . S
H498 C508 0.930 . S
H499 C511 0.929 . S
H500 C514 0.930 . S
H501 C516 0.960 . S
H502 C516 0.960 . S
H503 C516 0.960 . S
C504 H496 0.929 . S
C504 C505 1.377 . S
C504 C506 1.384 . S
C505 C504 1.377 . S
C505 C511 1.390 . S
C506 H497 0.930 . S
C506 C504 1.384 . S
C506 C507 1.372 . S
C507 C506 1.372 . S
C507 C508 1.400 . S
C507 C512 1.490 . S
C508 H498 0.930 . S
C508 C507 1.400 . S
C508 C511 1.386 . S
H509 C525 0.930 . S
H510 C526 0.931 . S
C511 H499 0.929 . S
C511 C505 1.390 . S
C511 C508 1.386 . S
C512 C507 1.490 . S
C512 C514 1.395 . S
C512 C515 1.403 . S
H513 C519 0.930 . S
C514 H500 0.930 . S
C514 C512 1.395 . S
C514 C517 1.403 . S
C515 C512 1.403 . S
C515 C516 1.524 . S
C515 C519 1.400 . S
C516 H501 0.960 . S
C516 H502 0.960 . S
C516 H503 0.960 . S
C516 C515 1.524 . S
C517 C514 1.403 . S
C517 C518 1.392 . S
C517 C521 1.495 . S
C518 C517 1.392 . S
C518 C519 1.385 . S
C518 C520 1.478 . S
C519 H513 0.930 . S
C519 C515 1.400 . S
C519 C518 1.385 . S
C520 C518 1.478 . S
C520 C522 1.381 . S
C520 C526 1.383 . S
C521 C517 1.495 . S
C521 H527 0.959 . S
C521 H528 0.961 . S
C521 H529 0.960 . S
C522 C520 1.381 . S
C522 C523 1.394 . S
C522 H530 0.930 . S
C523 C522 1.394 . S
C523 C524 1.383 . S
C523 H531 0.929 . S
C524 C523 1.383 . S
C524 C525 1.377 . S
C525 H509 0.930 . S
C525 C524 1.377 . S
C525 C526 1.379 . S
C526 H510 0.931 . S
C526 C520 1.383 . S
C526 C525 1.379 . S
H527 C521 0.959 . S
H528 C521 0.961 . S
H529 C521 0.960 . S
H530 C522 0.930 . S
H531 C523 0.929 . S
H532 C540 0.929 . S
H533 C542 0.930 . S
H534 C544 0.930 . S
H535 C547 0.929 . S
H536 C550 0.930 . S
H537 C552 0.960 . S
H538 C552 0.960 . S
H539 C552 0.960 . S
C540 H532 0.929 . S
C540 C541 1.377 . S
C540 C542 1.384 . S
C541 C540 1.377 . S
C541 C547 1.390 . S
C542 H533 0.930 . S
C542 C540 1.384 . S
C542 C543 1.372 . S
C543 C542 1.372 . S
C543 C544 1.400 . S
C543 C548 1.490 . S
C544 H534 0.930 . S
C544 C543 1.400 . S
C544 C547 1.386 . S
H545 C561 0.930 . S
H546 C562 0.931 . S
C547 H535 0.929 . S
C547 C541 1.390 . S
C547 C544 1.386 . S
C548 C543 1.490 . S
C548 C550 1.395 . S
C548 C551 1.403 . S
H549 C555 0.930 . S
C550 H536 0.930 . S
C550 C548 1.395 . S
C550 C553 1.403 . S
C551 C548 1.403 . S
C551 C552 1.524 . S
C551 C555 1.400 . S
C552 H537 0.960 . S
C552 H538 0.960 . S
C552 H539 0.960 . S
C552 C551 1.524 . S
C553 C550 1.403 . S
C553 C554 1.392 . S
C553 C557 1.495 . S
C554 C553 1.392 . S
C554 C555 1.385 . S
C554 C556 1.478 . S
C555 H549 0.930 . S
C555 C551 1.400 . S
C555 C554 1.385 . S
C556 C554 1.478 . S
C556 C558 1.381 . S
C556 C562 1.383 . S
C557 C553 1.495 . S
C557 H563 0.959 . S
C557 H564 0.961 . S
C557 H565 0.960 . S
C558 C556 1.381 . S
C558 C559 1.394 . S
C558 H566 0.930 . S
C559 C558 1.394 . S
C559 C560 1.383 . S
C559 H567 0.929 . S
C560 C559 1.383 . S
C560 C561 1.377 . S
C561 H545 0.930 . S
C561 C560 1.377 . S
C561 C562 1.379 . S
C562 H546 0.931 . S
C562 C556 1.383 . S
C562 C561 1.379 . S
H563 C557 0.959 . S
H564 C557 0.961 . S
H565 C557 0.960 . S
H566 C558 0.930 . S
H567 C559 0.929 . S
C145 C81 3.025 1_565 S
C164 C13 3.025 . S
C181 C106 3.031 . S
C200 C47 3.044 1_655 S
C217 C72 0.960 . S
C236 C4 0.953 . S
C253 C38 0.956 . S
C272 C115 0.948 . S
C289 C34 1.686 . S
C308 C29 1.696 . S
C325 C63 1.764 . S
C344 C68 1.743 . S
C361 C110 1.743 1_655 S
C380 C97 1.727 . S
C397 C119 1.724 . S
C416 C0 1.708 1_565 S
C433 C76 1.722 . S
C452 C131 1.706 1_655 S
C469 C17 1.749 1_565 S
C488 C102 1.758 . S
C505 C51 1.765 . S
C524 C8 1.789 . S
C541 C85 1.701 . S
C560 C42 1.707 . S
