# Generated by pormake.
# Topology sxa, (6)-cn, num edge types: 1
# Building blocks:
#     Node 0, Type 0, BuildingBlock: UKALOJ_clean_sbu_0, # of connection points: 6
#     Node 1, Type 0, BuildingBlock: UKALOJ_clean_sbu_0, # of connection points: 6
#     Node 2, Type 0, BuildingBlock: UKALOJ_clean_sbu_0, # of connection points: 6
#     Node 3, Type 0, BuildingBlock: UKALOJ_clean_sbu_0, # of connection points: 6
#     Edge 4, Type (0, 0), BuildingBlock: UVAHIK_clean_linker_0, # of connection points: 2
#     Edge 5, Type (0, 0), BuildingBlock: UVAHIK_clean_linker_0, # of connection points: 2
#     Edge 6, Type (0, 0), BuildingBlock: UVAHIK_clean_linker_0, # of connection points: 2
#     Edge 7, Type (0, 0), BuildingBlock: UVAHIK_clean_linker_0, # of connection points: 2
#     Edge 8, Type (0, 0), BuildingBlock: UVAHIK_clean_linker_0, # of connection points: 2
#     Edge 9, Type (0, 0), BuildingBlock: UVAHIK_clean_linker_0, # of connection points: 2
#     Edge 10, Type (0, 0), BuildingBlock: UVAHIK_clean_linker_0, # of connection points: 2
#     Edge 11, Type (0, 0), BuildingBlock: UVAHIK_clean_linker_0, # of connection points: 2
#     Edge 12, Type (0, 0), BuildingBlock: UVAHIK_clean_linker_0, # of connection points: 2
#     Edge 13, Type (0, 0), BuildingBlock: UVAHIK_clean_linker_0, # of connection points: 2
#     Edge 14, Type (0, 0), BuildingBlock: UVAHIK_clean_linker_0, # of connection points: 2
#     Edge 15, Type (0, 0), BuildingBlock: UVAHIK_clean_linker_0, # of connection points: 2
# Relax obj value: 0.150
# Max RMSD: 0.199
# Mean RMSD: 0.199
data_MOF--net-sxa--node1-UKALOJ_clean_sbu_0--edge1-UVAHIK_clean_linker_0
_symmetry_space_group_name_H-M    P1
_symmetry_Int_Tables_number       1
_symmetry_cell_setting            triclinic
loop_
_symmetry_equiv_pos_as_xyz
'x, y, z'
_cell_length_a     30.650443
_cell_length_b     46.435211
_cell_length_c     19.399166
_cell_angle_alpha  90.049393
_cell_angle_beta   90.082724
_cell_angle_gamma 90.003777
loop_
_atom_site_label
_atom_site_type_symbol
_atom_site_fract_x
_atom_site_fract_y
_atom_site_fract_z
_atom_type_partial_charge
Zn0 Zn 0.98533 0.81804 0.23155 0.0
O1 O 0.00718 0.8207 0.33534 0.0
C2 C 0.07484 0.80134 0.19517 0.0
Zn3 Zn -0.0061 0.7697 0.23427 0.0
C4 C 0.01909 0.79793 0.36708 0.0
O5 O 0.0149 0.77345 0.33786 0.0
C6 C 0.96464 0.79011 0.09745 0.0
O7 O 0.9287 0.76393 0.26737 0.0
O8 O 0.91993 0.81083 0.26492 0.0
N9 N 0.00502 0.72549 0.23233 0.0
C10 C 0.9851 0.70423 0.19632 0.0
C11 C 0.04212 0.68613 0.24154 0.0
N12 N 0.04033 0.71406 0.2606 0.0
N13 N 0.00809 0.67934 0.20042 0.0
C14 C -0.0052 0.88567 0.20569 0.0
C15 C 0.92799 0.89803 0.20944 0.0
N16 N 0.97177 0.86206 0.22457 0.0
N17 N 0.93034 0.87006 0.22719 0.0
N18 N 0.96793 0.90847 0.19485 0.0
H19 H 0.05727 0.87417 0.24651 0.0
H20 H 0.05555 0.90928 0.20736 0.0
H21 H 0.05497 0.8774 0.15379 0.0
C22 C 0.04353 0.88682 0.20314 0.0
C23 C 0.94209 0.70752 0.16019 0.0
H24 H 0.92217 0.72464 0.1841 0.0
H25 H 0.92359 0.68699 0.16139 0.0
H26 H 0.94772 0.71348 0.1057 0.0
O27 O 0.97482 0.7676 0.13074 0.0
O28 O 0.96535 0.81435 0.12776 0.0
C29 C 0.90446 0.78584 0.27616 0.0
O30 O 0.05052 0.8234 0.20048 0.0
O31 O 0.05869 0.77641 0.20389 0.0
Zn32 Zn 0.49425 0.25887 0.22421 0.0
O33 O 0.47325 0.25579 0.32833 0.0
C34 C 0.40493 0.27577 0.19059 0.0
Zn35 Zn 0.48677 0.30725 0.22906 0.0
C36 C 0.46233 0.27849 0.36125 0.0
O37 O 0.46697 0.30309 0.33296 0.0
C38 C 0.5144 0.28744 0.09091 0.0
O39 O 0.55259 0.313 0.26074 0.0
O40 O 0.55971 0.26597 0.25651 0.0
N41 N 0.47531 0.35136 0.22916 0.0
C42 C 0.49549 0.37339 0.19644 0.0
C43 C 0.43558 0.38973 0.23574 0.0
N44 N 0.43827 0.36176 0.254 0.0
N45 N 0.47118 0.39765 0.19977 0.0
C46 C 0.48448 0.19112 0.19907 0.0
C47 C 0.55137 0.17884 0.20073 0.0
N48 N 0.50777 0.21487 0.21625 0.0
N49 N 0.54925 0.20693 0.21753 0.0
N50 N 0.51121 0.16826 0.18811 0.0
H51 H 0.42263 0.20284 0.24165 0.0
H52 H 0.42379 0.16749 0.20342 0.0
H53 H 0.42351 0.19909 0.14901 0.0
C54 C 0.43572 0.18993 0.19821 0.0
C55 C 0.53672 0.37066 0.15551 0.0
H56 H 0.55344 0.34998 0.16541 0.0
H57 H 0.55921 0.38855 0.16864 0.0
H58 H 0.5289 0.37249 0.09985 0.0
O59 O 0.50458 0.30979 0.12513 0.0
O60 O 0.5135 0.26301 0.12025 0.0
C61 C 0.57614 0.29065 0.26828 0.0
O62 O 0.42901 0.25355 0.19415 0.0
O63 O 0.4215 0.30054 0.20009 0.0
Zn64 Zn -0.00376 0.31815 0.8013 0.0
O65 O 0.97441 0.3204 0.69744 0.0
C66 C 0.90678 0.30133 0.83723 0.0
Zn67 Zn 0.98816 0.26976 0.79956 0.0
C68 C 0.96326 0.29738 0.66596 0.0
O69 O 0.96793 0.27304 0.69559 0.0
C70 C 0.01661 0.29082 0.93619 0.0
O71 O 0.05358 0.26401 0.76761 0.0
O72 O 0.06176 0.31097 0.7682 0.0
N73 N 0.97727 0.22553 0.80201 0.0
C74 C -0.00297 0.20441 0.83865 0.0
C75 C 0.94069 0.18598 0.79201 0.0
N76 N 0.94239 0.21389 0.77287 0.0
N77 N 0.97435 0.1794 0.83404 0.0
C78 C 0.98665 0.38576 0.82723 0.0
C79 C 0.05332 0.39831 0.82158 0.0
N80 N 0.0096 0.36222 0.80758 0.0
N81 N 0.05094 0.37034 0.80378 0.0
N82 N 0.01349 0.40864 0.83739 0.0
H83 H 0.92385 0.37432 0.78764 0.0
H84 H 0.92575 0.40924 0.82778 0.0
H85 H 0.92705 0.37712 0.8804 0.0
C86 C 0.93795 0.38679 0.83107 0.0
C87 C 0.0396 0.20798 0.87591 0.0
H88 H 0.05953 0.22521 0.85253 0.0
H89 H 0.05838 0.18755 0.87518 0.0
H90 H 0.0333 0.21393 0.93024 0.0
O91 O 0.00653 0.26814 0.90343 0.0
O92 O 0.01609 0.31489 0.90521 0.0
C93 C 0.07756 0.28598 0.75802 0.0
O94 O 0.93101 0.32344 0.83207 0.0
O95 O 0.92308 0.27643 0.82876 0.0
Zn96 Zn 0.49481 0.80693 0.80317 0.0
O97 O 0.42926 0.81308 0.77182 0.0
C98 C 0.46648 0.78716 0.94064 0.0
Zn99 Zn 0.48614 0.75862 0.80675 0.0
C100 C 0.40504 0.79114 0.76299 0.0
O101 O 0.42066 0.76614 0.77372 0.0
C102 C 0.57591 0.77499 0.84138 0.0
O103 O 0.50742 0.7555 0.70286 0.0
O104 O 0.51452 0.80277 0.69917 0.0
N105 N 0.47219 0.71468 0.81453 0.0
C106 C 0.49542 0.69086 0.83129 0.0
C107 C 0.42843 0.67881 0.83096 0.0
N108 N 0.43064 0.70688 0.81406 0.0
N109 N 0.4686 0.66811 0.84284 0.0
C110 C 0.48645 0.87308 0.83593 0.0
C111 C 0.54657 0.88928 0.79712 0.0
N112 N 0.50669 0.85098 0.80345 0.0
N113 N 0.54385 0.86129 0.77894 0.0
N114 N 0.51086 0.89729 0.83271 0.0
H115 H 0.42847 0.84972 0.86715 0.0
H116 H 0.42257 0.88824 0.86271 0.0
H117 H 0.4527 0.87264 0.93224 0.0
C118 C 0.44509 0.87048 0.87655 0.0
C119 C 0.54417 0.6895 0.83126 0.0
H120 H 0.55711 0.70254 0.78799 0.0
H121 H 0.55584 0.66703 0.82524 0.0
H122 H 0.55678 0.69837 0.88054 0.0
O123 O 0.55141 0.75297 0.83739 0.0
O124 O 0.55983 0.79989 0.83202 0.0
C125 C 0.51878 0.7782 0.67042 0.0
O126 O 0.47711 0.80948 0.90704 0.0
O127 O 0.46661 0.76284 0.91067 0.0
C128 C 0.97572 0.44023 0.9222 0.0
C129 C 0.00542 0.43666 0.86762 0.0
C130 C 0.97183 0.4668 0.95617 0.0
C131 C 0.00389 0.5448 0.94321 0.0
H132 H 0.9807 0.54422 0.13948 0.0
C133 C 0.98721 0.65129 0.09603 0.0
C134 C 0.0023 0.65222 0.16452 0.0
C135 C 0.98418 0.62513 0.06032 0.0
C136 C 0.98769 0.54489 0.08483 0.0
H137 H 0.05491 0.45816 0.80724 0.0
H138 H 0.04941 0.50402 0.8674 0.0
H139 H 0.98255 0.49909 0.07624 0.0
H140 H 0.02768 0.62627 0.24795 0.0
H141 H 0.02414 0.58076 0.18519 0.0
H142 H 0.0115 0.59036 0.95236 0.0
C143 C 0.02776 0.48676 0.88267 0.0
C144 C 0.98799 0.51887 0.04805 0.0
C145 C 0.0312 0.46033 0.84825 0.0
C146 C 0.01519 0.62625 0.1957 0.0
C147 C 0.01278 0.60008 0.15969 0.0
C148 C 0.00416 0.57075 0.98011 0.0
C149 C -0.00177 0.49042 0.93761 0.0
C150 C -0.00375 0.51836 0.97662 0.0
C151 C -0.00268 0.59908 0.09122 0.0
C152 C -0.00385 0.57127 0.05161 0.0
H153 H 0.95658 0.42226 0.94057 0.0
H154 H 0.94838 0.46864 0.99759 0.0
H155 H 0.00971 0.54558 0.88823 0.0
H156 H 0.97898 0.67082 0.06882 0.0
H157 H 0.97172 0.62549 1.0081 0.0
C158 C 0.51182 0.44228 0.17195 0.0
C159 C 0.47596 0.424 0.16126 0.0
C160 C 0.51548 0.46823 0.13523 0.0
C161 C 0.47823 0.50475 0.97636 0.0
H162 H 0.50365 0.57554 0.07446 0.0
C163 C 0.45071 0.61638 0.8515 0.0
C164 C 0.47729 0.63973 0.87061 0.0
C165 C 0.45477 0.5896 0.88405 0.0
C166 C 0.49735 0.55599 0.04569 0.0
H167 H 0.41599 0.41825 0.10428 0.0
H168 H 0.42248 0.46326 0.03925 0.0
H169 H 0.50341 0.52988 0.13648 0.0
H170 H 0.52844 0.65315 0.94087 0.0
H171 H 0.53739 0.60617 0.99495 0.0
H172 H 0.47264 0.53052 0.88544 0.0
C173 C 0.44788 0.45766 0.07573 0.0
C174 C 0.49706 0.52976 0.08155 0.0
C175 C 0.44396 0.43202 0.11314 0.0
C176 C 0.50851 0.63546 0.92284 0.0
C177 C 0.51292 0.60855 0.95507 0.0
C178 C 0.47906 0.53089 0.94032 0.0
C179 C 0.48359 0.47619 0.08644 0.0
C180 C 0.48685 0.50386 0.04754 0.0
C181 C 0.48567 0.58527 0.9369 0.0
C182 C 0.48795 0.55704 0.97454 0.0
H183 H 0.53658 0.43668 0.20947 0.0
H184 H 0.54342 0.48198 0.1446 0.0
H185 H 0.4709 0.48514 0.94837 0.0
H186 H 0.4259 0.61908 0.81224 0.0
H187 H 0.43249 0.5726 0.86919 0.0
C188 C 0.47005 0.94198 0.8595 0.0
C189 C 0.50588 0.92375 0.87084 0.0
C190 C 0.46613 0.96799 0.89598 0.0
C191 C 0.50212 1.00475 0.05525 0.0
H192 H 0.47762 0.07541 0.95637 0.0
C193 C 0.52882 0.11648 0.18024 0.0
C194 C 0.50254 0.13986 0.1604 0.0
C195 C 0.52491 0.08966 0.14775 0.0
C196 C 0.48364 0.0559 0.98534 0.0
H197 H 0.56554 0.91815 0.92871 0.0
H198 H 0.55856 0.96328 0.99337 0.0
H199 H 0.47834 1.02967 0.89452 0.0
H200 H 0.45208 0.15328 0.08898 0.0
H201 H 0.44335 0.10622 0.03497 0.0
H202 H 0.50691 1.03063 0.1462 0.0
C203 C 0.5334 0.95759 0.95653 0.0
C204 C 0.48423 1.02962 0.94959 0.0
C205 C 0.5376 0.93188 0.91935 0.0
C206 C 0.47175 0.13557 0.10753 0.0
C207 C 0.46748 0.10861 0.07537 0.0
C208 C 0.50098 1.03093 0.09119 0.0
C209 C 0.49771 0.97605 0.94518 0.0
C210 C 0.49413 1.00377 0.9839 0.0
C211 C 0.49447 0.08531 0.09425 0.0
C212 C 0.49242 0.05703 0.05668 0.0
H213 H 0.44551 0.93627 0.82169 0.0
H214 H 0.43821 0.98169 0.88613 0.0
H215 H 0.5092 0.98517 0.08346 0.0
H216 H 0.55331 0.1192 0.22002 0.0
H217 H 0.54699 0.07264 0.16318 0.0
C218 C 0.00647 0.94029 0.11149 0.0
C219 C 0.97617 0.93655 0.16515 0.0
C220 C 0.01052 0.9669 0.07785 0.0
C221 C 0.97767 0.04477 0.09054 0.0
H222 H 0.00275 0.04441 0.89485 0.0
C223 C -0.00536 0.15144 0.93876 0.0
C224 C 0.98013 0.1523 0.86996 0.0
C225 C -0.00236 0.12528 0.97439 0.0
C226 C -0.00476 0.04501 0.94933 0.0
H227 H 0.92585 0.95783 0.22432 0.0
H228 H 0.93167 1.00376 0.16476 0.0
H229 H 0.00075 0.99923 0.95773 0.0
H230 H 0.95579 0.12624 0.78584 0.0
H231 H 0.95929 0.08074 0.84841 0.0
H232 H 0.96971 0.09031 0.08152 0.0
C233 C 0.95362 0.9866 0.14995 0.0
C234 C -0.00515 1.01897 0.98592 0.0
C235 C 0.95 0.96012 0.18401 0.0
C236 C 0.96781 0.12628 0.83835 0.0
C237 C 0.97021 0.10011 0.87427 0.0
C238 C 0.97751 0.07074 0.05382 0.0
C239 C 0.98372 0.99041 0.09587 0.0
C240 C 0.98587 1.01838 0.05714 0.0
C241 C 0.98507 0.09917 0.94306 0.0
C242 C 0.98619 0.07134 0.98252 0.0
H243 H 0.02597 0.9224 0.09351 0.0
H244 H 0.03442 0.96886 0.0371 0.0
H245 H 0.97129 0.04549 0.14538 0.0
H246 H 0.00242 0.171 0.96624 0.0
H247 H 0.00963 0.12567 0.02689 0.0
C248 C 0.34206 0.82192 0.72489 0.0
C249 C 0.35949 0.79448 0.73838 0.0
C250 C 0.29988 0.82487 0.69809 0.0
C251 C 0.19563 0.78535 0.66987 0.0
H252 H 0.18193 0.83829 0.517 0.0
C253 C 0.0608 0.77513 0.46378 0.0
C254 C 0.04492 0.80016 0.4316 0.0
C255 C 0.09326 0.77688 0.5143 0.0
C256 C 0.18478 0.82382 0.56054 0.0
H257 H 0.34569 0.74865 0.73594 0.0
H258 H 0.27256 0.75378 0.68854 0.0
H259 H 0.25065 0.83678 0.57963 0.0
H260 H 0.04827 0.84684 0.43152 0.0
H261 H 0.10448 0.84987 0.52035 0.0
H262 H 0.13005 0.7718 0.64919 0.0
C263 C 0.2912 0.77307 0.69939 0.0
C264 C 0.22432 0.82293 0.59646 0.0
C265 C 0.33334 0.77012 0.72613 0.0
C266 C 0.05982 0.8271 0.455 0.0
C267 C 0.09238 0.82884 0.50548 0.0
C268 C 0.15604 0.78623 0.63387 0.0
C269 C 0.2741 0.80046 0.68426 0.0
C270 C 0.23055 0.8033 0.65075 0.0
C271 C 0.11063 0.8037 0.53386 0.0
C272 C 0.15041 0.80513 0.57794 0.0
H273 H 0.36121 0.84115 0.73415 0.0
H274 H 0.28752 0.8463 0.68787 0.0
H275 H 0.19906 0.77032 0.7122 0.0
H276 H 0.05004 0.75401 0.44714 0.0
H277 H 0.10665 0.75706 0.53473 0.0
C278 C 0.14042 0.25518 0.7198 0.0
C279 C 0.12303 0.28264 0.73322 0.0
C280 C 0.1825 0.25218 0.69286 0.0
C281 C 0.28678 0.29144 0.6645 0.0
H282 H 0.29974 0.23853 0.51124 0.0
C283 C 0.4216 0.30121 0.45898 0.0
C284 C 0.43689 0.27619 0.42602 0.0
C285 C 0.38927 0.29953 0.50955 0.0
C286 C 0.29711 0.25297 0.5549 0.0
H287 H 0.13682 0.32846 0.73051 0.0
H288 H 0.20986 0.32324 0.68293 0.0
H289 H 0.23115 0.24027 0.57387 0.0
H290 H 0.4327 0.22954 0.42473 0.0
H291 H 0.37679 0.22661 0.51379 0.0
H292 H 0.35248 0.30469 0.64407 0.0
C293 C 0.19121 0.30398 0.6939 0.0
C294 C 0.25764 0.25401 0.5908 0.0
C295 C 0.14914 0.30698 0.72075 0.0
C296 C 0.4216 0.24927 0.44881 0.0
C297 C 0.38919 0.2476 0.4994 0.0
C298 C 0.32632 0.29039 0.62857 0.0
C299 C 0.20824 0.27656 0.67884 0.0
C300 C 0.25168 0.27362 0.64523 0.0
C301 C 0.37145 0.27277 0.52846 0.0
C302 C 0.33171 0.2715 0.5725 0.0
H303 H 0.12131 0.23596 0.72921 0.0
H304 H 0.19482 0.23074 0.68268 0.0
H305 H 0.28353 0.30646 0.70693 0.0
H306 H 0.43267 0.32231 0.44284 0.0
H307 H 0.3763 0.31938 0.53048 0.0
C308 C 0.92702 0.27368 0.56523 0.0
C309 C 0.93741 0.29899 0.60147 0.0
C310 C 0.89414 0.27372 0.51528 0.0
C311 C 0.81874 0.32017 0.41288 0.0
H312 H 0.73936 0.25618 0.44013 0.0
C313 C 0.63897 0.31932 0.31611 0.0
C314 C 0.6218 0.29293 0.29303 0.0
C315 C 0.68104 0.3207 0.34433 0.0
C316 C 0.76142 0.27397 0.43081 0.0
H317 H 0.92376 0.34471 0.60962 0.0
H318 H 0.86607 0.3447 0.52308 0.0
H319 H 0.80792 0.25741 0.50248 0.0
H320 H 0.63625 0.24758 0.27836 0.0
H321 H 0.70943 0.25008 0.32641 0.0
H322 H 0.77127 0.33697 0.34212 0.0
C323 C 0.88352 0.32483 0.53283 0.0
C324 C 0.80092 0.27466 0.46656 0.0
C325 C 0.91668 0.32483 0.58254 0.0
C326 C 0.6482 0.26821 0.29637 0.0
C327 C 0.69016 0.26962 0.32425 0.0
C328 C 0.77903 0.31948 0.37694 0.0
C329 C 0.87061 0.29901 0.50074 0.0
C330 C 0.83009 0.29777 0.45833 0.0
C331 C 0.70682 0.29573 0.34989 0.0
C332 C 0.74982 0.29639 0.38572 0.0
H333 H 0.94263 0.25344 0.57809 0.0
H334 H 0.88581 0.2536 0.49022 0.0
H335 H 0.84054 0.33822 0.40507 0.0
H336 H 0.61951 0.33878 0.31414 0.0
H337 H 0.69272 0.34113 0.36402 0.0
C338 C 0.84178 0.75497 0.31466 0.0
C339 C 0.85901 0.78244 0.301 0.0
C340 C 0.79963 0.75193 0.34132 0.0
C341 C 0.69504 0.79103 0.36834 0.0
H342 H 0.68167 0.73832 0.52168 0.0
C343 C 0.55969 0.80092 0.57299 0.0
C344 C 0.5443 0.7759 0.60574 0.0
C345 C 0.59214 0.79921 0.52259 0.0
C346 C 0.68442 0.75271 0.47799 0.0
H347 H 0.84493 0.82823 0.30305 0.0
H348 H 0.77181 0.82294 0.35022 0.0
H349 H 0.7505 0.74009 0.45973 0.0
H350 H 0.54838 0.72925 0.60681 0.0
H351 H 0.60452 0.72629 0.5181 0.0
H352 H 0.62923 0.80422 0.38813 0.0
C353 C 0.79061 0.8037 0.33961 0.0
C354 C 0.72403 0.75376 0.44248 0.0
C355 C 0.83272 0.80674 0.31301 0.0
C356 C 0.55957 0.74897 0.58289 0.0
C357 C 0.5921 0.74728 0.53249 0.0
C358 C 0.65537 0.78998 0.40391 0.0
C359 C 0.77369 0.77628 0.35484 0.0
C360 C 0.73013 0.77331 0.38804 0.0
C361 C 0.60995 0.77245 0.50368 0.0
C362 C 0.64984 0.77116 0.45999 0.0
H363 H 0.86103 0.73577 0.30558 0.0
H364 H 0.78742 0.73047 0.35164 0.0
H365 H 0.69839 0.806 0.32589 0.0
H366 H 0.54864 0.82202 0.58918 0.0
H367 H 0.6052 0.81906 0.50182 0.0
C368 C 0.42496 0.76737 0.04014 0.0
C369 C 0.44818 0.79022 1.0104 0.0
C370 C 0.39697 0.77249 0.09533 0.0
C371 C 0.32595 0.83114 0.13443 0.0
H372 H 0.27437 0.77425 0.25545 0.0
C373 C 0.14239 0.83161 0.19629 0.0
C374 C 0.1225 0.80452 0.18863 0.0
C375 C 0.18776 0.83399 0.19885 0.0
C376 C 0.28852 0.79047 0.2222 0.0
H377 H 0.46648 0.8351 0.02233 0.0
H378 H 0.41739 0.84405 0.1187 0.0
H379 H 0.35167 0.77081 0.22609 0.0
H380 H 0.1346 0.75874 0.17638 0.0
H381 H 0.21353 0.76301 0.17834 0.0
H382 H 0.26242 0.84954 0.12607 0.0
C383 C 0.41991 0.82239 0.0983 0.0
C384 C 0.33276 0.78862 0.20587 0.0
C385 C 0.44783 0.81728 0.04293 0.0
C386 C 0.14888 0.77994 0.18229 0.0
C387 C 0.19414 0.78233 0.18462 0.0
C388 C 0.28181 0.83295 0.15063 0.0
C389 C 0.39191 0.80054 0.1216 0.0
C390 C 0.35122 0.80794 0.15852 0.0
C391 C 0.21407 0.80933 0.19357 0.0
C392 C 0.26217 0.81166 0.19139 0.0
H393 H 0.42518 0.74614 0.01693 0.0
H394 H 0.37594 0.75512 0.11208 0.0
H395 H 0.33896 0.84629 0.09735 0.0
H396 H 0.12304 0.85092 0.20206 0.0
H397 H 0.20222 0.85509 0.20564 0.0
C398 C 0.05855 0.31135 0.03459 0.0
C399 C 0.03421 0.28857 1.00663 0.0
C400 C 0.08556 0.30659 0.09126 0.0
C401 C 0.15293 0.24733 0.137 0.0
H402 H 0.20647 0.3051 0.25391 0.0
C403 C 0.33697 0.24601 0.19485 0.0
C404 C 0.35717 0.27289 0.18544 0.0
C405 C 0.29161 0.24398 0.19894 0.0
C406 C 0.19177 0.28862 0.22186 0.0
H407 H 0.01248 0.24467 0.02329 0.0
H408 H 0.06039 0.23619 0.1217 0.0
H409 H 0.12928 0.30922 0.22407 0.0
H410 H 0.34568 0.31865 0.17166 0.0
H411 H 0.26673 0.31497 0.17597 0.0
H412 H 0.21587 0.22804 0.12973 0.0
C413 C 0.05942 0.25747 0.0989 0.0
C414 C 0.14758 0.29086 0.20534 0.0
C415 C 0.03236 0.26225 0.04219 0.0
C416 C 0.33112 0.2976 0.1789 0.0
C417 C 0.28587 0.29556 0.18261 0.0
C418 C 0.19706 0.24516 0.15325 0.0
C419 C 0.08854 0.27898 0.12069 0.0
C420 C 0.12851 0.27123 0.15919 0.0
C421 C 0.26562 0.26878 0.19333 0.0
C422 C 0.21745 0.26677 0.19229 0.0
H423 H 0.05997 0.33207 1.00903 0.0
H424 H 0.10752 0.32368 0.10679 0.0
H425 H 0.13937 0.2319 0.10095 0.0
H426 H 0.3561 0.22662 0.20092 0.0
H427 H 0.27693 0.22305 0.2071 0.0
C428 C 0.55581 0.26756 0.99132 0.0
C429 C 0.53278 0.29049 0.0212 0.0
C430 C 0.584 0.27263 0.93637 0.0
C431 C 0.65566 0.33107 0.89827 0.0
H432 H 0.70705 0.27419 0.77678 0.0
C433 C 0.83915 0.33153 0.83631 0.0
C434 C 0.85908 0.30444 0.84352 0.0
C435 C 0.79378 0.33389 0.83381 0.0
C436 C 0.69296 0.2904 0.81019 0.0
H437 H 0.51495 0.33545 1.00966 0.0
H438 H 0.56436 0.34431 0.91367 0.0
H439 H 0.62971 0.27088 0.80601 0.0
H440 H 0.84704 0.25862 0.85493 0.0
H441 H 0.76809 0.26285 0.85313 0.0
H442 H 0.71926 0.34935 0.90687 0.0
C443 C 0.56158 0.32263 0.93383 0.0
C444 C 0.6487 0.28862 0.82645 0.0
C445 C 0.53348 0.31758 0.98898 0.0
C446 C 0.83273 0.27983 0.84939 0.0
C447 C 0.78746 0.2822 0.84716 0.0
C448 C 0.69983 0.33281 0.88215 0.0
C449 C 0.58942 0.30069 0.91046 0.0
C450 C 0.63028 0.30796 0.87388 0.0
C451 C 0.76749 0.30921 0.83875 0.0
C452 C 0.71939 0.31154 0.84116 0.0
H453 H 0.55533 0.24631 1.01431 0.0
H454 H 0.60489 0.25518 0.91957 0.0
H455 H 0.6427 0.34623 0.93545 0.0
H456 H 0.85847 0.35087 0.83093 0.0
H457 H 0.7793 0.35499 0.8274 0.0
C458 C 0.94834 0.76094 0.99246 0.0
C459 C 0.94671 0.78747 0.02728 0.0
C460 C 0.92108 0.75587 0.93612 0.0
C461 C 0.8333 0.78887 0.82849 0.0
H462 H 0.76437 0.72659 0.90502 0.0
C463 C 0.64994 0.79636 0.85389 0.0
C464 C 0.6236 0.77179 0.84706 0.0
C465 C 0.69517 0.79408 0.85062 0.0
C466 C 0.78339 0.74355 0.88127 0.0
H467 H 0.92104 0.83097 0.02391 0.0
H468 H 0.87319 0.8221 0.92667 0.0
H469 H 0.84084 0.73045 0.93447 0.0
H470 H 0.62414 0.7255 0.83169 0.0
H471 H 0.70337 0.7215 0.82651 0.0
H472 H 0.77467 0.80299 0.77904 0.0
C473 C 0.89514 0.80507 0.94256 0.0
C474 C 0.82748 0.74571 0.8979 0.0
C475 C 0.92231 0.81011 0.99892 0.0
C476 C 0.6435 0.74479 0.83794 0.0
C477 C 0.68887 0.74251 0.83441 0.0
C478 C 0.78917 0.78663 0.81161 0.0
C479 C 0.89202 0.77731 0.91385 0.0
C480 C 0.8521 0.76945 0.87533 0.0
C481 C 0.71513 0.76719 0.84015 0.0
C482 C 0.76327 0.765 0.8415 0.0
H483 H 0.96826 0.74345 1.01166 0.0
H484 H 0.92 0.73447 0.91388 0.0
H485 H 0.85177 0.80709 0.80945 0.0
H486 H 0.63564 0.81749 0.86096 0.0
H487 H 0.71451 0.8134 0.85738 0.0
loop_
_geom_bond_atom_site_label_1
_geom_bond_atom_site_label_2
_geom_bond_distance
_geom_bond_site_symmetry_2
_ccdc_geom_bond_type
Zn0 O1 2.055 1_655 S
Zn0 O8 2.046 . S
Zn0 N16 2.036 . S
Zn0 O28 2.053 . S
Zn0 O30 2.066 1_655 S
O1 Zn0 2.055 1_455 S
O1 C4 1.259 . S
C2 O30 1.256 . S
C2 O31 1.244 . S
Zn3 O5 2.046 . S
Zn3 O7 2.055 1_455 S
Zn3 N9 2.036 . S
Zn3 O27 2.066 1_455 S
Zn3 O31 2.053 . S
C4 O1 1.259 . S
C4 O5 1.254 . S
O5 Zn3 2.046 . S
O5 C4 1.254 . S
C6 O27 1.256 . S
C6 O28 1.244 . S
O7 Zn3 2.055 1_655 S
O7 C29 1.259 . S
O8 Zn0 2.046 . S
O8 C29 1.254 . S
N9 Zn3 2.036 . S
N9 C10 1.298 1_455 S
N9 N12 1.398 . S
C10 N9 1.298 1_655 S
C10 N13 1.367 . S
C10 C23 1.481 . S
C11 N12 1.299 . S
C11 N13 1.379 1_455 S
N12 N9 1.398 . S
N12 C11 1.299 . S
N13 C10 1.367 . S
N13 C11 1.379 1_655 S
C14 N16 1.298 1_455 S
C14 N18 1.367 . S
C14 C22 1.481 . S
C15 N17 1.299 . S
C15 N18 1.379 1_655 S
N16 Zn0 2.036 . S
N16 C14 1.298 1_655 S
N16 N17 1.398 . S
N17 C15 1.299 . S
N17 N16 1.398 . S
N18 C14 1.367 . S
N18 C15 1.379 1_455 S
H19 C22 0.980 . S
H20 C22 0.981 . S
H21 C22 0.981 . S
C22 C14 1.481 . S
C22 H19 0.980 . S
C22 H20 0.981 . S
C22 H21 0.981 . S
C23 C10 1.481 . S
C23 H24 0.980 . S
C23 H25 0.981 . S
C23 H26 0.981 . S
H24 C23 0.980 . S
H25 C23 0.981 . S
H26 C23 0.981 . S
O27 Zn3 2.066 1_655 S
O27 C6 1.256 . S
O28 Zn0 2.053 . S
O28 C6 1.244 . S
C29 O7 1.259 . S
C29 O8 1.254 . S
O30 Zn0 2.066 1_455 S
O30 C2 1.256 . S
O31 C2 1.244 . S
O31 Zn3 2.053 . S
Zn32 O33 2.055 . S
Zn32 O40 2.046 . S
Zn32 N48 2.036 . S
Zn32 O60 2.053 . S
Zn32 O62 2.066 . S
O33 Zn32 2.055 . S
O33 C36 1.259 . S
C34 O62 1.256 . S
C34 O63 1.244 . S
Zn35 O37 2.046 . S
Zn35 O39 2.055 . S
Zn35 N41 2.036 . S
Zn35 O59 2.066 . S
Zn35 O63 2.053 . S
C36 O33 1.259 . S
C36 O37 1.254 . S
O37 Zn35 2.046 . S
O37 C36 1.254 . S
C38 O59 1.256 . S
C38 O60 1.244 . S
O39 Zn35 2.055 . S
O39 C61 1.259 . S
O40 Zn32 2.046 . S
O40 C61 1.254 . S
N41 Zn35 2.036 . S
N41 C42 1.298 . S
N41 N44 1.398 . S
C42 N41 1.298 . S
C42 N45 1.367 . S
C42 C55 1.481 . S
C43 N44 1.299 . S
C43 N45 1.379 . S
N44 N41 1.398 . S
N44 C43 1.299 . S
N45 C42 1.367 . S
N45 C43 1.379 . S
C46 N48 1.298 . S
C46 N50 1.367 . S
C46 C54 1.481 . S
C47 N49 1.299 . S
C47 N50 1.379 . S
N48 Zn32 2.036 . S
N48 C46 1.298 . S
N48 N49 1.398 . S
N49 C47 1.299 . S
N49 N48 1.398 . S
N50 C46 1.367 . S
N50 C47 1.379 . S
H51 C54 0.980 . S
H52 C54 0.981 . S
H53 C54 0.981 . S
C54 C46 1.481 . S
C54 H51 0.980 . S
C54 H52 0.981 . S
C54 H53 0.981 . S
C55 C42 1.481 . S
C55 H56 0.980 . S
C55 H57 0.981 . S
C55 H58 0.981 . S
H56 C55 0.980 . S
H57 C55 0.981 . S
H58 C55 0.981 . S
O59 Zn35 2.066 . S
O59 C38 1.256 . S
O60 Zn32 2.053 . S
O60 C38 1.244 . S
C61 O39 1.259 . S
C61 O40 1.254 . S
O62 Zn32 2.066 . S
O62 C34 1.256 . S
O63 C34 1.244 . S
O63 Zn35 2.053 . S
Zn64 O65 2.055 1_455 S
Zn64 O72 2.046 . S
Zn64 N80 2.036 . S
Zn64 O92 2.053 . S
Zn64 O94 2.066 1_455 S
O65 Zn64 2.055 1_655 S
O65 C68 1.259 . S
C66 O94 1.256 . S
C66 O95 1.244 . S
Zn67 O69 2.046 . S
Zn67 O71 2.055 1_655 S
Zn67 N73 2.036 . S
Zn67 O91 2.066 1_655 S
Zn67 O95 2.053 . S
C68 O65 1.259 . S
C68 O69 1.254 . S
O69 Zn67 2.046 . S
O69 C68 1.254 . S
C70 O91 1.256 . S
C70 O92 1.244 . S
O71 Zn67 2.055 1_455 S
O71 C93 1.259 . S
O72 Zn64 2.046 . S
O72 C93 1.254 . S
N73 Zn67 2.036 . S
N73 C74 1.298 1_655 S
N73 N76 1.398 . S
C74 N73 1.298 1_455 S
C74 N77 1.367 . S
C74 C87 1.481 . S
C75 N76 1.299 . S
C75 N77 1.379 1_655 S
N76 N73 1.398 . S
N76 C75 1.299 . S
N77 C74 1.367 . S
N77 C75 1.379 1_455 S
C78 N80 1.298 1_655 S
C78 N82 1.367 . S
C78 C86 1.481 . S
C79 N81 1.299 . S
C79 N82 1.379 1_455 S
N80 Zn64 2.036 . S
N80 C78 1.298 1_455 S
N80 N81 1.398 . S
N81 C79 1.299 . S
N81 N80 1.398 . S
N82 C78 1.367 . S
N82 C79 1.379 1_655 S
H83 C86 0.980 . S
H84 C86 0.981 . S
H85 C86 0.981 . S
C86 C78 1.481 . S
C86 H83 0.980 . S
C86 H84 0.981 . S
C86 H85 0.981 . S
C87 C74 1.481 . S
C87 H88 0.980 . S
C87 H89 0.981 . S
C87 H90 0.981 . S
H88 C87 0.980 . S
H89 C87 0.981 . S
H90 C87 0.981 . S
O91 Zn67 2.066 1_455 S
O91 C70 1.256 . S
O92 Zn64 2.053 . S
O92 C70 1.244 . S
C93 O71 1.259 . S
C93 O72 1.254 . S
O94 Zn64 2.066 1_655 S
O94 C66 1.256 . S
O95 C66 1.244 . S
O95 Zn67 2.053 . S
Zn96 O97 2.055 . S
Zn96 O104 2.046 . S
Zn96 N112 2.036 . S
Zn96 O124 2.053 . S
Zn96 O126 2.066 . S
O97 Zn96 2.055 . S
O97 C100 1.259 . S
C98 O126 1.256 . S
C98 O127 1.244 . S
Zn99 O101 2.046 . S
Zn99 O103 2.055 . S
Zn99 N105 2.036 . S
Zn99 O123 2.066 . S
Zn99 O127 2.053 . S
C100 O97 1.259 . S
C100 O101 1.254 . S
O101 Zn99 2.046 . S
O101 C100 1.254 . S
C102 O123 1.256 . S
C102 O124 1.244 . S
O103 Zn99 2.055 . S
O103 C125 1.259 . S
O104 Zn96 2.046 . S
O104 C125 1.254 . S
N105 Zn99 2.036 . S
N105 C106 1.298 . S
N105 N108 1.398 . S
C106 N105 1.298 . S
C106 N109 1.367 . S
C106 C119 1.481 . S
C107 N108 1.299 . S
C107 N109 1.379 . S
N108 N105 1.398 . S
N108 C107 1.299 . S
N109 C106 1.367 . S
N109 C107 1.379 . S
C110 N112 1.298 . S
C110 N114 1.367 . S
C110 C118 1.481 . S
C111 N113 1.299 . S
C111 N114 1.379 . S
N112 Zn96 2.036 . S
N112 C110 1.298 . S
N112 N113 1.398 . S
N113 C111 1.299 . S
N113 N112 1.398 . S
N114 C110 1.367 . S
N114 C111 1.379 . S
H115 C118 0.980 . S
H116 C118 0.981 . S
H117 C118 0.981 . S
C118 C110 1.481 . S
C118 H115 0.980 . S
C118 H116 0.981 . S
C118 H117 0.981 . S
C119 C106 1.481 . S
C119 H120 0.980 . S
C119 H121 0.981 . S
C119 H122 0.981 . S
H120 C119 0.980 . S
H121 C119 0.981 . S
H122 C119 0.981 . S
O123 Zn99 2.066 . S
O123 C102 1.256 . S
O124 Zn96 2.053 . S
O124 C102 1.244 . S
C125 O103 1.259 . S
C125 O104 1.254 . S
O126 Zn96 2.066 . S
O126 C98 1.256 . S
O127 C98 1.244 . S
O127 Zn99 2.053 . S
C128 C129 1.349 . S
C128 C130 1.327 . S
C128 H153 0.950 . S
C129 C128 1.349 . S
C129 C145 1.349 . S
C130 C128 1.327 . S
C130 C149 1.429 . S
C130 H154 0.950 1_556 S
C131 C148 1.574 . S
C131 C150 1.368 . S
C131 H155 0.949 . S
H132 C136 0.949 . S
C133 C134 1.349 . S
C133 C135 1.327 . S
C133 H156 0.950 . S
C134 C133 1.349 . S
C134 C146 1.349 . S
C135 C133 1.327 . S
C135 C151 1.429 . S
C135 H157 0.950 1_554 S
C136 H132 0.949 . S
C136 C144 1.574 . S
C136 C152 1.368 . S
H137 C145 0.950 . S
H138 C143 0.950 . S
H139 C144 0.949 . S
H140 C146 0.950 . S
H141 C147 0.950 . S
H142 C148 0.949 . S
C143 H138 0.950 . S
C143 C145 1.327 . S
C143 C149 1.429 . S
C144 C136 1.574 . S
C144 H139 0.949 . S
C144 C150 1.368 1_554 S
C145 C129 1.349 . S
C145 H137 0.950 . S
C145 C143 1.327 . S
C146 C134 1.349 . S
C146 H140 0.950 . S
C146 C147 1.327 . S
C147 H141 0.950 . S
C147 C146 1.327 . S
C147 C151 1.429 . S
C148 C131 1.574 . S
C148 H142 0.949 . S
C148 C152 1.368 1_556 S
C149 C130 1.429 . S
C149 C143 1.429 . S
C149 C150 1.523 . S
C150 C131 1.368 . S
C150 C144 1.368 1_556 S
C150 C149 1.523 . S
C151 C135 1.429 . S
C151 C147 1.429 . S
C151 C152 1.523 . S
C152 C136 1.368 . S
C152 C148 1.368 1_554 S
C152 C151 1.523 . S
H153 C128 0.950 . S
H154 C130 0.950 1_554 S
H155 C131 0.949 . S
H156 C133 0.950 . S
H157 C135 0.950 1_556 S
C158 C159 1.349 . S
C158 C160 1.327 . S
C158 H183 0.950 . S
C159 C158 1.349 . S
C159 C175 1.349 . S
C160 C158 1.327 . S
C160 C179 1.429 . S
C160 H184 0.950 . S
C161 C178 1.574 . S
C161 C180 1.368 1_556 S
C161 H185 0.949 . S
H162 C166 0.949 . S
C163 C164 1.349 . S
C163 C165 1.327 . S
C163 H186 0.950 . S
C164 C163 1.349 . S
C164 C176 1.349 . S
C165 C163 1.327 . S
C165 C181 1.429 . S
C165 H187 0.950 . S
C166 H162 0.949 . S
C166 C174 1.574 . S
C166 C182 1.368 1_554 S
H167 C175 0.950 . S
H168 C173 0.950 1_556 S
H169 C174 0.949 . S
H170 C176 0.950 . S
H171 C177 0.950 1_554 S
H172 C178 0.949 . S
C173 H168 0.950 1_554 S
C173 C175 1.327 . S
C173 C179 1.429 . S
C174 C166 1.574 . S
C174 H169 0.949 . S
C174 C180 1.368 . S
C175 C159 1.349 . S
C175 H167 0.950 . S
C175 C173 1.327 . S
C176 C164 1.349 . S
C176 H170 0.950 . S
C176 C177 1.327 . S
C177 H171 0.950 1_556 S
C177 C176 1.327 . S
C177 C181 1.429 . S
C178 C161 1.574 . S
C178 H172 0.949 . S
C178 C182 1.368 . S
C179 C160 1.429 . S
C179 C173 1.429 . S
C179 C180 1.523 . S
C180 C161 1.368 1_554 S
C180 C174 1.368 . S
C180 C179 1.523 . S
C181 C165 1.429 . S
C181 C177 1.429 . S
C181 C182 1.523 . S
C182 C166 1.368 1_556 S
C182 C178 1.368 . S
C182 C181 1.523 . S
H183 C158 0.950 . S
H184 C160 0.950 . S
H185 C161 0.949 . S
H186 C163 0.950 . S
H187 C165 0.950 . S
C188 C189 1.349 . S
C188 C190 1.327 . S
C188 H213 0.950 . S
C189 C188 1.349 . S
C189 C205 1.349 . S
C190 C188 1.327 . S
C190 C209 1.429 . S
C190 H214 0.950 . S
C191 C208 1.574 1_565 S
C191 C210 1.368 1_554 S
C191 H215 0.949 . S
H192 C196 0.949 . S
C193 C194 1.349 . S
C193 C195 1.327 . S
C193 H216 0.950 . S
C194 C193 1.349 . S
C194 C206 1.349 . S
C195 C193 1.327 . S
C195 C211 1.429 . S
C195 H217 0.950 . S
C196 H192 0.949 . S
C196 C204 1.574 1_545 S
C196 C212 1.368 1_556 S
H197 C205 0.950 . S
H198 C203 0.951 1_554 S
H199 C204 0.949 . S
H200 C206 0.950 . S
H201 C207 0.951 1_556 S
H202 C208 0.949 . S
C203 H198 0.951 1_556 S
C203 C205 1.327 . S
C203 C209 1.429 . S
C204 C196 1.574 1_565 S
C204 H199 0.949 . S
C204 C210 1.368 . S
C205 C189 1.349 . S
C205 H197 0.950 . S
C205 C203 1.327 . S
C206 C194 1.349 . S
C206 H200 0.950 . S
C206 C207 1.327 . S
C207 H201 0.951 1_554 S
C207 C206 1.327 . S
C207 C211 1.429 . S
C208 C191 1.574 1_545 S
C208 H202 0.949 . S
C208 C212 1.368 . S
C209 C190 1.429 . S
C209 C203 1.429 . S
C209 C210 1.523 . S
C210 C191 1.368 1_556 S
C210 C204 1.368 . S
C210 C209 1.523 . S
C211 C195 1.429 . S
C211 C207 1.429 . S
C211 C212 1.523 . S
C212 C196 1.368 1_554 S
C212 C208 1.368 . S
C212 C211 1.523 . S
H213 C188 0.950 . S
H214 C190 0.950 . S
H215 C191 0.949 . S
H216 C193 0.950 . S
H217 C195 0.950 . S
C218 C219 1.349 . S
C218 C220 1.327 . S
C218 H243 0.950 1_455 S
C219 C218 1.349 . S
C219 C235 1.349 . S
C220 C218 1.327 . S
C220 C239 1.429 . S
C220 H244 0.950 1_454 S
C221 C238 1.574 1_565 S
C221 C240 1.368 . S
C221 H245 0.949 . S
H222 C226 0.949 1_655 S
C223 C224 1.349 . S
C223 C225 1.327 . S
C223 H246 0.950 . S
C224 C223 1.349 . S
C224 C236 1.349 . S
C225 C223 1.327 . S
C225 C241 1.429 . S
C225 H247 0.950 1_556 S
C226 H222 0.949 1_455 S
C226 C234 1.574 1_545 S
C226 C242 1.368 . S
H227 C235 0.950 . S
H228 C233 0.950 . S
H229 C234 0.949 1_655 S
H230 C236 0.950 1_655 S
H231 C237 0.950 1_655 S
H232 C238 0.949 . S
C233 H228 0.950 . S
C233 C235 1.327 . S
C233 C239 1.429 . S
C234 C226 1.574 1_565 S
C234 H229 0.949 1_455 S
C234 C240 1.368 1_556 S
C235 C219 1.349 . S
C235 H227 0.950 . S
C235 C233 1.327 . S
C236 C224 1.349 . S
C236 H230 0.950 1_455 S
C236 C237 1.327 . S
C237 H231 0.950 1_455 S
C237 C236 1.327 . S
C237 C241 1.429 . S
C238 C221 1.574 1_545 S
C238 H232 0.949 . S
C238 C242 1.368 1_554 S
C239 C220 1.429 . S
C239 C233 1.429 . S
C239 C240 1.523 . S
C240 C221 1.368 . S
C240 C234 1.368 1_554 S
C240 C239 1.523 . S
C241 C225 1.429 . S
C241 C237 1.429 . S
C241 C242 1.523 . S
C242 C226 1.368 . S
C242 C238 1.368 1_556 S
C242 C241 1.523 . S
H243 C218 0.950 1_655 S
H244 C220 0.950 1_656 S
H245 C221 0.949 . S
H246 C223 0.950 . S
H247 C225 0.950 1_554 S
C248 C249 1.349 . S
C248 C250 1.327 . S
C248 H273 0.950 . S
C249 C248 1.349 . S
C249 C265 1.349 . S
C250 C248 1.327 . S
C250 C269 1.429 . S
C250 H274 0.950 . S
C251 C268 1.574 . S
C251 C270 1.368 . S
C251 H275 0.949 . S
H252 C256 0.949 . S
C253 C254 1.349 . S
C253 C255 1.327 . S
C253 H276 0.950 . S
C254 C253 1.349 . S
C254 C266 1.349 . S
C255 C253 1.327 . S
C255 C271 1.429 . S
C255 H277 0.950 . S
C256 H252 0.949 . S
C256 C264 1.574 . S
C256 C272 1.368 . S
H257 C265 0.950 . S
H258 C263 0.950 . S
H259 C264 0.949 . S
H260 C266 0.950 . S
H261 C267 0.950 . S
H262 C268 0.949 . S
C263 H258 0.950 . S
C263 C265 1.327 . S
C263 C269 1.429 . S
C264 C256 1.574 . S
C264 H259 0.949 . S
C264 C270 1.368 . S
C265 C249 1.349 . S
C265 H257 0.950 . S
C265 C263 1.327 . S
C266 C254 1.349 . S
C266 H260 0.950 . S
C266 C267 1.327 . S
C267 H261 0.950 . S
C267 C266 1.327 . S
C267 C271 1.429 . S
C268 C251 1.574 . S
C268 H262 0.949 . S
C268 C272 1.368 . S
C269 C250 1.429 . S
C269 C263 1.429 . S
C269 C270 1.523 . S
C270 C251 1.368 . S
C270 C264 1.368 . S
C270 C269 1.523 . S
C271 C255 1.429 . S
C271 C267 1.429 . S
C271 C272 1.523 . S
C272 C256 1.368 . S
C272 C268 1.368 . S
C272 C271 1.523 . S
H273 C248 0.950 . S
H274 C250 0.950 . S
H275 C251 0.949 . S
H276 C253 0.950 . S
H277 C255 0.950 . S
C278 C279 1.349 . S
C278 C280 1.327 . S
C278 H303 0.950 . S
C279 C278 1.349 . S
C279 C295 1.349 . S
C280 C278 1.327 . S
C280 C299 1.429 . S
C280 H304 0.950 . S
C281 C298 1.574 . S
C281 C300 1.368 . S
C281 H305 0.949 . S
H282 C286 0.949 . S
C283 C284 1.349 . S
C283 C285 1.327 . S
C283 H306 0.950 . S
C284 C283 1.349 . S
C284 C296 1.349 . S
C285 C283 1.327 . S
C285 C301 1.429 . S
C285 H307 0.950 . S
C286 H282 0.949 . S
C286 C294 1.574 . S
C286 C302 1.368 . S
H287 C295 0.950 . S
H288 C293 0.950 . S
H289 C294 0.949 . S
H290 C296 0.950 . S
H291 C297 0.950 . S
H292 C298 0.949 . S
C293 H288 0.950 . S
C293 C295 1.327 . S
C293 C299 1.429 . S
C294 C286 1.574 . S
C294 H289 0.949 . S
C294 C300 1.368 . S
C295 C279 1.349 . S
C295 H287 0.950 . S
C295 C293 1.327 . S
C296 C284 1.349 . S
C296 H290 0.950 . S
C296 C297 1.327 . S
C297 H291 0.950 . S
C297 C296 1.327 . S
C297 C301 1.429 . S
C298 C281 1.574 . S
C298 H292 0.949 . S
C298 C302 1.368 . S
C299 C280 1.429 . S
C299 C293 1.429 . S
C299 C300 1.523 . S
C300 C281 1.368 . S
C300 C294 1.368 . S
C300 C299 1.523 . S
C301 C285 1.429 . S
C301 C297 1.429 . S
C301 C302 1.523 . S
C302 C286 1.368 . S
C302 C298 1.368 . S
C302 C301 1.523 . S
H303 C278 0.950 . S
H304 C280 0.950 . S
H305 C281 0.949 . S
H306 C283 0.950 . S
H307 C285 0.950 . S
C308 C309 1.349 . S
C308 C310 1.327 . S
C308 H333 0.950 . S
C309 C308 1.349 . S
C309 C325 1.349 . S
C310 C308 1.327 . S
C310 C329 1.429 . S
C310 H334 0.950 . S
C311 C328 1.574 . S
C311 C330 1.368 . S
C311 H335 0.949 . S
H312 C316 0.949 . S
C313 C314 1.349 . S
C313 C315 1.327 . S
C313 H336 0.950 . S
C314 C313 1.349 . S
C314 C326 1.349 . S
C315 C313 1.327 . S
C315 C331 1.429 . S
C315 H337 0.950 . S
C316 H312 0.949 . S
C316 C324 1.574 . S
C316 C332 1.368 . S
H317 C325 0.950 . S
H318 C323 0.950 . S
H319 C324 0.949 . S
H320 C326 0.950 . S
H321 C327 0.950 . S
H322 C328 0.949 . S
C323 H318 0.950 . S
C323 C325 1.327 . S
C323 C329 1.429 . S
C324 C316 1.574 . S
C324 H319 0.949 . S
C324 C330 1.368 . S
C325 C309 1.349 . S
C325 H317 0.950 . S
C325 C323 1.327 . S
C326 C314 1.349 . S
C326 H320 0.950 . S
C326 C327 1.327 . S
C327 H321 0.950 . S
C327 C326 1.327 . S
C327 C331 1.429 . S
C328 C311 1.574 . S
C328 H322 0.949 . S
C328 C332 1.368 . S
C329 C310 1.429 . S
C329 C323 1.429 . S
C329 C330 1.523 . S
C330 C311 1.368 . S
C330 C324 1.368 . S
C330 C329 1.523 . S
C331 C315 1.429 . S
C331 C327 1.429 . S
C331 C332 1.523 . S
C332 C316 1.368 . S
C332 C328 1.368 . S
C332 C331 1.523 . S
H333 C308 0.950 . S
H334 C310 0.950 . S
H335 C311 0.949 . S
H336 C313 0.950 . S
H337 C315 0.950 . S
C338 C339 1.349 . S
C338 C340 1.327 . S
C338 H363 0.950 . S
C339 C338 1.349 . S
C339 C355 1.349 . S
C340 C338 1.327 . S
C340 C359 1.429 . S
C340 H364 0.950 . S
C341 C358 1.574 . S
C341 C360 1.368 . S
C341 H365 0.949 . S
H342 C346 0.949 . S
C343 C344 1.349 . S
C343 C345 1.327 . S
C343 H366 0.950 . S
C344 C343 1.349 . S
C344 C356 1.349 . S
C345 C343 1.327 . S
C345 C361 1.429 . S
C345 H367 0.950 . S
C346 H342 0.949 . S
C346 C354 1.574 . S
C346 C362 1.368 . S
H347 C355 0.950 . S
H348 C353 0.950 . S
H349 C354 0.949 . S
H350 C356 0.950 . S
H351 C357 0.950 . S
H352 C358 0.949 . S
C353 H348 0.950 . S
C353 C355 1.327 . S
C353 C359 1.429 . S
C354 C346 1.574 . S
C354 H349 0.949 . S
C354 C360 1.368 . S
C355 C339 1.349 . S
C355 H347 0.950 . S
C355 C353 1.327 . S
C356 C344 1.349 . S
C356 H350 0.950 . S
C356 C357 1.327 . S
C357 H351 0.950 . S
C357 C356 1.327 . S
C357 C361 1.429 . S
C358 C341 1.574 . S
C358 H352 0.949 . S
C358 C362 1.368 . S
C359 C340 1.429 . S
C359 C353 1.429 . S
C359 C360 1.523 . S
C360 C341 1.368 . S
C360 C354 1.368 . S
C360 C359 1.523 . S
C361 C345 1.429 . S
C361 C357 1.429 . S
C361 C362 1.523 . S
C362 C346 1.368 . S
C362 C358 1.368 . S
C362 C361 1.523 . S
H363 C338 0.950 . S
H364 C340 0.950 . S
H365 C341 0.949 . S
H366 C343 0.950 . S
H367 C345 0.950 . S
C368 C369 1.349 . S
C368 C370 1.327 . S
C368 H393 0.950 . S
C369 C368 1.349 . S
C369 C385 1.349 . S
C370 C368 1.327 . S
C370 C389 1.429 . S
C370 H394 0.950 1_556 S
C371 C388 1.574 . S
C371 C390 1.368 . S
C371 H395 0.949 . S
H372 C376 0.949 . S
C373 C374 1.349 . S
C373 C375 1.327 . S
C373 H396 0.950 . S
C374 C373 1.349 . S
C374 C386 1.349 . S
C375 C373 1.327 . S
C375 C391 1.429 . S
C375 H397 0.950 1_554 S
C376 H372 0.949 . S
C376 C384 1.574 . S
C376 C392 1.368 . S
H377 C385 0.950 . S
H378 C383 0.950 . S
H379 C384 0.949 . S
H380 C386 0.950 . S
H381 C387 0.950 . S
H382 C388 0.949 . S
C383 H378 0.950 . S
C383 C385 1.327 . S
C383 C389 1.429 . S
C384 C376 1.574 . S
C384 H379 0.949 . S
C384 C390 1.368 1_554 S
C385 C369 1.349 . S
C385 H377 0.950 . S
C385 C383 1.327 . S
C386 C374 1.349 . S
C386 H380 0.950 . S
C386 C387 1.327 . S
C387 H381 0.950 . S
C387 C386 1.327 . S
C387 C391 1.429 . S
C388 C371 1.574 . S
C388 H382 0.949 . S
C388 C392 1.368 1_556 S
C389 C370 1.429 . S
C389 C383 1.429 . S
C389 C390 1.523 . S
C390 C371 1.368 . S
C390 C384 1.368 1_556 S
C390 C389 1.523 . S
C391 C375 1.429 . S
C391 C387 1.429 . S
C391 C392 1.523 . S
C392 C376 1.368 . S
C392 C388 1.368 1_554 S
C392 C391 1.523 . S
H393 C368 0.950 . S
H394 C370 0.950 1_554 S
H395 C371 0.949 . S
H396 C373 0.950 . S
H397 C375 0.950 1_556 S
C398 C399 1.349 . S
C398 C400 1.327 . S
C398 H423 0.950 . S
C399 C398 1.349 . S
C399 C415 1.349 . S
C400 C398 1.327 . S
C400 C419 1.429 . S
C400 H424 0.950 1_556 S
C401 C418 1.574 . S
C401 C420 1.368 . S
C401 H425 0.949 . S
H402 C406 0.949 . S
C403 C404 1.349 . S
C403 C405 1.327 . S
C403 H426 0.950 . S
C404 C403 1.349 . S
C404 C416 1.349 . S
C405 C403 1.327 . S
C405 C421 1.429 . S
C405 H427 0.950 1_554 S
C406 H402 0.949 . S
C406 C414 1.574 . S
C406 C422 1.368 . S
H407 C415 0.950 . S
H408 C413 0.950 . S
H409 C414 0.949 . S
H410 C416 0.950 . S
H411 C417 0.950 . S
H412 C418 0.949 . S
C413 H408 0.950 . S
C413 C415 1.327 . S
C413 C419 1.429 . S
C414 C406 1.574 . S
C414 H409 0.949 . S
C414 C420 1.368 1_554 S
C415 C399 1.349 . S
C415 H407 0.950 . S
C415 C413 1.327 . S
C416 C404 1.349 . S
C416 H410 0.950 . S
C416 C417 1.327 . S
C417 H411 0.950 . S
C417 C416 1.327 . S
C417 C421 1.429 . S
C418 C401 1.574 . S
C418 H412 0.949 . S
C418 C422 1.368 1_556 S
C419 C400 1.429 . S
C419 C413 1.429 . S
C419 C420 1.523 . S
C420 C401 1.368 . S
C420 C414 1.368 1_556 S
C420 C419 1.523 . S
C421 C405 1.429 . S
C421 C417 1.429 . S
C421 C422 1.523 . S
C422 C406 1.368 . S
C422 C418 1.368 1_554 S
C422 C421 1.523 . S
H423 C398 0.950 . S
H424 C400 0.950 1_554 S
H425 C401 0.949 . S
H426 C403 0.950 . S
H427 C405 0.950 1_556 S
C428 C429 1.349 . S
C428 C430 1.327 . S
C428 H453 0.950 . S
C429 C428 1.349 . S
C429 C445 1.349 . S
C430 C428 1.327 . S
C430 C449 1.429 . S
C430 H454 0.950 1_554 S
C431 C448 1.574 . S
C431 C450 1.368 . S
C431 H455 0.949 . S
H432 C436 0.949 . S
C433 C434 1.349 . S
C433 C435 1.327 . S
C433 H456 0.950 . S
C434 C433 1.349 . S
C434 C446 1.349 . S
C435 C433 1.327 . S
C435 C451 1.429 . S
C435 H457 0.950 1_556 S
C436 H432 0.949 . S
C436 C444 1.574 . S
C436 C452 1.368 . S
H437 C445 0.950 . S
H438 C443 0.950 . S
H439 C444 0.949 . S
H440 C446 0.950 . S
H441 C447 0.950 . S
H442 C448 0.949 . S
C443 H438 0.950 . S
C443 C445 1.327 . S
C443 C449 1.429 . S
C444 C436 1.574 . S
C444 H439 0.949 . S
C444 C450 1.368 1_556 S
C445 C429 1.349 . S
C445 H437 0.950 . S
C445 C443 1.327 . S
C446 C434 1.349 . S
C446 H440 0.950 . S
C446 C447 1.327 . S
C447 H441 0.950 . S
C447 C446 1.327 . S
C447 C451 1.429 . S
C448 C431 1.574 . S
C448 H442 0.949 . S
C448 C452 1.368 1_554 S
C449 C430 1.429 . S
C449 C443 1.429 . S
C449 C450 1.523 . S
C450 C431 1.368 . S
C450 C444 1.368 1_554 S
C450 C449 1.523 . S
C451 C435 1.429 . S
C451 C447 1.429 . S
C451 C452 1.523 . S
C452 C436 1.368 . S
C452 C448 1.368 1_556 S
C452 C451 1.523 . S
H453 C428 0.950 . S
H454 C430 0.950 1_556 S
H455 C431 0.949 . S
H456 C433 0.950 . S
H457 C435 0.950 1_554 S
C458 C459 1.349 . S
C458 C460 1.327 . S
C458 H483 0.950 . S
C459 C458 1.349 . S
C459 C475 1.349 . S
C460 C458 1.327 . S
C460 C479 1.429 . S
C460 H484 0.950 . S
C461 C478 1.574 . S
C461 C480 1.368 1_556 S
C461 H485 0.949 . S
H462 C466 0.949 . S
C463 C464 1.349 . S
C463 C465 1.327 . S
C463 H486 0.950 . S
C464 C463 1.349 . S
C464 C476 1.349 . S
C465 C463 1.327 . S
C465 C481 1.429 . S
C465 H487 0.950 . S
C466 H462 0.949 . S
C466 C474 1.574 . S
C466 C482 1.368 1_554 S
H467 C475 0.950 . S
H468 C473 0.950 1_556 S
H469 C474 0.949 . S
H470 C476 0.950 . S
H471 C477 0.950 1_554 S
H472 C478 0.949 . S
C473 H468 0.950 1_554 S
C473 C475 1.327 . S
C473 C479 1.429 . S
C474 C466 1.574 . S
C474 H469 0.949 . S
C474 C480 1.368 . S
C475 C459 1.349 . S
C475 H467 0.950 . S
C475 C473 1.327 . S
C476 C464 1.349 . S
C476 H470 0.950 . S
C476 C477 1.327 . S
C477 H471 0.950 1_556 S
C477 C476 1.327 . S
C477 C481 1.429 . S
C478 C461 1.574 . S
C478 H472 0.949 . S
C478 C482 1.368 . S
C479 C460 1.429 . S
C479 C473 1.429 . S
C479 C480 1.523 . S
C480 C461 1.368 1_554 S
C480 C474 1.368 . S
C480 C479 1.523 . S
C481 C465 1.429 . S
C481 C477 1.429 . S
C481 C482 1.523 . S
C482 C466 1.368 1_556 S
C482 C478 1.368 . S
C482 C481 1.523 . S
H483 C458 0.950 . S
H484 C460 0.950 . S
H485 C461 0.949 . S
H486 C463 0.950 . S
H487 C465 0.950 . S
C129 N82 1.997 . S
C134 N13 1.997 . S
C159 N45 1.997 . S
C164 N109 1.997 . S
C189 N114 1.997 . S
C194 N50 1.997 . S
C219 N18 1.997 . S
C224 N77 1.997 . S
C249 C100 1.601 . S
C254 C4 1.601 . S
C279 C93 1.601 . S
C284 C36 1.601 . S
C309 C68 1.601 . S
C314 C61 1.601 . S
C339 C29 1.601 . S
C344 C125 1.601 . S
C369 C98 0.475 . S
C374 C2 0.475 . S
C399 C70 0.475 . S
C404 C34 0.475 . S
C429 C38 0.475 . S
C434 C66 0.475 . S
C459 C6 0.475 . S
C464 C102 0.475 . S
