# Generated by pormake.
# Topology qtz-e, (6)-cn, num edge types: 1
# Building blocks:
#     Node 0, Type 0, BuildingBlock: GEDQOX_clean_sbu_0, # of connection points: 6
#     Node 1, Type 0, BuildingBlock: GEDQOX_clean_sbu_0, # of connection points: 6
#     Node 2, Type 0, BuildingBlock: GEDQOX_clean_sbu_0, # of connection points: 6
#     Node 3, Type 0, BuildingBlock: GEDQOX_clean_sbu_0, # of connection points: 6
#     Node 4, Type 0, BuildingBlock: GEDQOX_clean_sbu_0, # of connection points: 6
#     Node 5, Type 0, BuildingBlock: GEDQOX_clean_sbu_0, # of connection points: 6
#     Edge 6, Type (0, 0), BuildingBlock: FUNLAD_clean_linker_0, # of connection points: 2
#     Edge 7, Type (0, 0), BuildingBlock: FUNLAD_clean_linker_0, # of connection points: 2
#     Edge 8, Type (0, 0), BuildingBlock: FUNLAD_clean_linker_0, # of connection points: 2
#     Edge 9, Type (0, 0), BuildingBlock: FUNLAD_clean_linker_0, # of connection points: 2
#     Edge 10, Type (0, 0), BuildingBlock: FUNLAD_clean_linker_0, # of connection points: 2
#     Edge 11, Type (0, 0), BuildingBlock: FUNLAD_clean_linker_0, # of connection points: 2
#     Edge 12, Type (0, 0), BuildingBlock: FUNLAD_clean_linker_0, # of connection points: 2
#     Edge 13, Type (0, 0), BuildingBlock: FUNLAD_clean_linker_0, # of connection points: 2
#     Edge 14, Type (0, 0), BuildingBlock: FUNLAD_clean_linker_0, # of connection points: 2
#     Edge 15, Type (0, 0), BuildingBlock: FUNLAD_clean_linker_0, # of connection points: 2
#     Edge 16, Type (0, 0), BuildingBlock: FUNLAD_clean_linker_0, # of connection points: 2
#     Edge 17, Type (0, 0), BuildingBlock: FUNLAD_clean_linker_0, # of connection points: 2
#     Edge 18, Type (0, 0), BuildingBlock: FUNLAD_clean_linker_0, # of connection points: 2
#     Edge 19, Type (0, 0), BuildingBlock: FUNLAD_clean_linker_0, # of connection points: 2
#     Edge 20, Type (0, 0), BuildingBlock: FUNLAD_clean_linker_0, # of connection points: 2
#     Edge 21, Type (0, 0), BuildingBlock: FUNLAD_clean_linker_0, # of connection points: 2
#     Edge 22, Type (0, 0), BuildingBlock: FUNLAD_clean_linker_0, # of connection points: 2
#     Edge 23, Type (0, 0), BuildingBlock: FUNLAD_clean_linker_0, # of connection points: 2
# Relax obj value: 0.090
# Max RMSD: 0.170
# Mean RMSD: 0.170
data_MOF--net-qtz-e--node1-GEDQOX_clean_sbu_0--edge1-FUNLAD_clean_linker_0
_symmetry_space_group_name_H-M    P1
_symmetry_Int_Tables_number       1
_symmetry_cell_setting            triclinic
loop_
_symmetry_equiv_pos_as_xyz
'x, y, z'
_cell_length_a     30.158503
_cell_length_b     30.119821
_cell_length_c     58.166031
_cell_angle_alpha  89.963557
_cell_angle_beta   90.113068
_cell_angle_gamma 120.11907
loop_
_atom_site_label
_atom_site_type_symbol
_atom_site_fract_x
_atom_site_fract_y
_atom_site_fract_z
_atom_type_partial_charge
Nd0 Nd 0.1582 0.35633 0.0547 0.0
Nd1 Nd 0.25067 0.45852 0.04164 0.0
C2 C 0.07249 0.28284 0.07326 0.0
C3 C 0.04855 0.27374 0.09632 0.0
C4 C 0.04245 0.31168 0.10753 0.0
C5 C 0.0219 0.30334 0.12974 0.0
C6 C 0.00685 0.25681 0.1413 0.0
C7 C 0.01261 0.21874 0.12991 0.0
C8 C 0.03321 0.22715 0.1077 0.0
C9 C 0.25317 0.36817 0.06357 0.0
C10 C 0.20673 0.45297 0.09171 0.0
C11 C 0.33858 0.52986 0.02443 0.0
C12 C 0.35215 0.54807 1.00061 0.0
C13 C 0.40177 0.56542 0.99233 0.0
C14 C 0.41348 0.57984 0.96925 0.0
C15 C 0.37566 0.57711 0.95409 0.0
C16 C 0.32602 0.55984 0.96262 0.0
C17 C 0.31433 0.54513 0.98556 0.0
C18 C 0.16007 0.45457 0.033 0.0
C19 C 0.1998 0.36174 1.00379 0.0
O20 O 0.0747 0.32049 0.06107 0.0
O21 O 0.11452 0.28045 0.07192 0.0
O22 O 0.21656 0.32687 0.05413 0.0
O23 O 0.23852 0.3995 0.06742 0.0
O24 O 0.16489 0.41252 0.08363 0.0
O25 O 0.25001 0.47369 0.08 0.0
O26 O 0.32832 0.48275 0.02809 0.0
O27 O 0.30593 0.54019 0.03443 0.0
O28 O 0.20121 0.4954 0.03988 0.0
O29 O 0.1681 0.41783 0.02939 0.0
O30 O 0.23999 0.40513 1.01085 0.0
O31 O 0.1586 0.33663 1.01678 0.0
H32 H 0.05379 0.348 0.09921 0.0
H33 H 0.01741 0.33328 0.13775 0.0
H34 H 0.0021 0.1827 0.13833 0.0
H35 H 0.03774 0.19738 0.09949 0.0
H36 H 0.43122 0.56714 1.00362 0.0
H37 H 0.45188 0.59221 0.96321 0.0
H38 H 0.29612 0.55795 0.95161 0.0
H39 H 0.27549 0.53113 0.9915 0.0
Nd40 Nd 0.78741 0.17568 0.38787 0.0
Nd41 Nd 0.7866 0.27382 0.37614 0.0
C42 C 0.76596 0.08564 0.40486 0.0
C43 C 0.75445 0.06588 0.4286 0.0
C44 C 0.73301 0.01334 0.43309 0.0
C45 C 0.72047 -0.00526 0.45565 0.0
C46 C 0.72896 0.02841 0.47412 0.0
C47 C 0.75077 0.08115 0.46944 0.0
C48 C 0.76336 0.09963 0.44695 0.0
C49 C 0.87032 0.26587 0.40265 0.0
C50 C 0.73539 0.22183 0.42399 0.0
C51 C 0.81094 0.3667 0.36193 0.0
C52 C 0.8193 0.39029 0.33899 0.0
C53 C 0.83716 0.37283 0.32082 0.0
C54 C 0.84077 0.39194 0.29861 0.0
C55 C 0.82614 0.42865 0.29405 0.0
C56 C 0.80905 0.44674 0.31237 0.0
C57 C 0.80571 0.42771 0.33466 0.0
C58 C 0.70042 0.18676 0.36238 0.0
C59 C 0.83787 0.2261 0.33995 0.0
O60 O 0.7315 0.09385 0.39519 0.0
O61 O 0.81278 0.12305 0.40123 0.0
O62 O 0.87527 0.22954 0.39323 0.0
O63 O 0.82421 0.25348 0.40368 0.0
O64 O 0.73419 0.18064 0.4153 0.0
O65 O 0.76109 0.26677 0.41361 0.0
O66 O 0.84497 0.35479 0.36896 0.0
O67 O 0.76387 0.33076 0.36626 0.0
O68 O 0.7005 0.22723 0.36998 0.0
O69 O 0.74527 0.1939 0.36077 0.0
O70 O 0.83816 0.26707 0.34841 0.0
O71 O 0.81313 0.18122 0.35046 0.0
H72 H 0.72551 0.98666 0.41913 0.0
H73 H 0.70315 0.95385 0.45855 0.0
H74 H 0.75848 0.10832 0.4832 0.0
H75 H 0.77989 0.14039 0.44387 0.0
H76 H 0.84719 0.34348 0.32365 0.0
H77 H 0.85337 0.37664 0.28487 0.0
H78 H 0.79796 0.47536 0.30945 0.0
H79 H 0.79153 0.44144 0.34842 0.0
Nd80 Nd 0.61983 0.79477 0.72007 0.0
Nd81 Nd 0.51668 0.78254 0.70772 0.0
C82 C 0.69568 0.78516 0.73772 0.0
C83 C 0.70753 0.77261 0.76084 0.0
C84 C 0.67353 0.72648 0.77204 0.0
C85 C 0.68405 0.71641 0.7943 0.0
C86 C 0.72904 0.75202 0.80591 0.0
C87 C 0.7634 0.79781 0.79449 0.0
C88 C 0.75274 0.80794 0.77225 0.0
C89 C 0.60391 0.87321 0.733 0.0
C90 C 0.5224 0.73587 0.75604 0.0
C91 C 0.4429 0.79787 0.69247 0.0
C92 C 0.42457 0.80047 0.66913 0.0
C93 C 0.45657 0.83839 0.6533 0.0
C94 C 0.44079 0.83667 0.63051 0.0
C95 C 0.3926 0.79712 0.62306 0.0
C96 C 0.35987 0.76049 0.63919 0.0
C97 C 0.37567 0.7622 0.66194 0.0
C98 C 0.52502 0.70011 0.69514 0.0
C99 C 0.61428 0.8377 0.67072 0.0
O100 O 0.65707 0.74837 0.72647 0.0
O101 O 0.69747 0.82928 0.73577 0.0
O102 O 0.64563 0.88156 0.72281 0.0
O103 O 0.5733 0.82628 0.73511 0.0
O104 O 0.56443 0.73884 0.74751 0.0
O105 O 0.49962 0.75779 0.7454 0.0
O106 O 0.48814 0.83535 0.69865 0.0
O107 O 0.43508 0.75277 0.69876 0.0
O108 O 0.4831 0.69719 0.70246 0.0
O109 O 0.56094 0.7461 0.69322 0.0
O110 O 0.5706 0.83272 0.67831 0.0
O111 O 0.63932 0.81981 0.68262 0.0
H112 H 0.63838 0.69832 0.76375 0.0
H113 H 0.6563 0.68106 0.80258 0.0
H114 H 0.7988 0.82581 0.80267 0.0
H115 H 0.77977 0.84368 0.76399 0.0
H116 H 0.49436 0.86866 0.65831 0.0
H117 H 0.46708 0.86536 0.61855 0.0
H118 H 0.3221 0.73012 0.63416 0.0
H119 H 0.35009 0.73274 0.67382 0.0
Nd120 Nd 0.81299 0.62242 0.05402 0.0
Nd121 Nd 0.72157 0.51832 0.04315 0.0
C122 C 0.89918 0.6978 0.07153 0.0
C123 C 0.92047 0.70903 0.09512 0.0
C124 C 0.97318 0.7414 0.0987 0.0
C125 C -0.00635 0.75095 0.12102 0.0
C126 C 0.96178 0.72822 0.14027 0.0
C127 C 0.90885 0.69569 0.13651 0.0
C128 C 0.88847 0.6862 0.1142 0.0
C129 C 0.71789 0.60839 0.06474 0.0
C130 C 0.77081 0.52898 0.09255 0.0
C131 C 0.63339 0.44368 0.02753 0.0
C132 C 0.61871 0.42199 1.00421 0.0
C133 C 0.57019 0.40796 0.99532 0.0
C134 C 0.55789 0.39125 0.9725 0.0
C135 C 0.59401 0.38832 0.9582 0.0
C136 C 0.64236 0.40184 0.96737 0.0
C137 C 0.65469 0.41884 0.99004 0.0
C138 C 0.81226 0.52477 0.03182 0.0
C139 C 0.76539 0.61241 1.00407 0.0
O140 O 0.89608 0.65721 0.06177 0.0
O141 O 0.85819 0.70134 0.06806 0.0
O142 O 0.75305 0.64975 0.0548 0.0
O143 O 0.73422 0.57832 0.06844 0.0
O144 O 0.81092 0.56937 0.08344 0.0
O145 O 0.72646 0.50591 0.0816 0.0
O146 O 0.64297 0.49091 0.02979 0.0
O147 O 0.66696 0.43551 0.03814 0.0
O148 O 0.77289 0.48387 0.0398 0.0
O149 O 0.80254 0.56055 0.02875 0.0
O150 O 0.72642 0.56983 1.0125 0.0
O151 O 0.80855 0.6386 1.01581 0.0
H152 H -0.00139 0.75902 0.08421 0.0
H153 H 0.03464 0.77552 0.12313 0.0
H154 H 0.88291 0.67791 0.15081 0.0
H155 H 0.84764 0.66085 0.11185 0.0
H156 H 0.5422 0.4109 1.00587 0.0
H157 H 0.52055 0.38182 0.96593 0.0
H158 H 0.67085 0.39931 0.95705 0.0
H159 H 0.69272 0.43014 0.99639 0.0
Nd160 Nd 0.19754 0.82471 0.3849 0.0
Nd161 Nd 0.20699 0.73138 0.37319 0.0
C162 C 0.21169 0.91254 0.40164 0.0
C163 C 0.22857 0.93744 0.42451 0.0
C164 C 0.27596 0.94832 0.43395 0.0
C165 C 0.28937 0.96712 0.45639 0.0
C166 C 0.25592 0.97588 0.46996 0.0
C167 C 0.20923 0.96658 0.46024 0.0
C168 C 0.19569 0.94748 0.43778 0.0
C169 C 0.12068 0.73152 0.4005 0.0
C170 C 0.26007 0.78828 0.42006 0.0
C171 C 0.18835 0.63987 0.35964 0.0
C172 C 0.18197 0.61739 0.33663 0.0
C173 C 0.17971 0.64422 0.31737 0.0
C174 C 0.17587 0.62449 0.29532 0.0
C175 C 0.17505 0.57782 0.292 0.0
C176 C 0.17675 0.55071 0.31142 0.0
C177 C 0.18014 0.57038 0.33358 0.0
C178 C 0.28756 0.82092 0.35774 0.0
C179 C 0.14624 0.76997 0.33736 0.0
O180 O 0.24587 0.90903 0.38913 0.0
O181 O 0.16681 0.87068 0.40098 0.0
O182 O 0.11138 0.76506 0.39103 0.0
O183 O 0.16778 0.74798 0.40116 0.0
O184 O 0.25664 0.82701 0.41128 0.0
O185 O 0.23635 0.74259 0.41023 0.0
O186 O 0.15229 0.64926 0.3661 0.0
O187 O 0.23439 0.67773 0.36426 0.0
O188 O 0.29141 0.78236 0.36507 0.0
O189 O 0.24147 0.81063 0.35712 0.0
O190 O 0.15168 0.73194 0.34557 0.0
O191 O 0.16669 0.81474 0.34804 0.0
H192 H 0.30244 0.94146 0.42417 0.0
H193 H 0.326 0.97467 0.46315 0.0
H194 H 0.1824 0.97256 0.47022 0.0
H195 H 0.15893 0.9394 0.43096 0.0
H196 H 0.18158 0.68084 0.31936 0.0
H197 H 0.17371 0.64599 0.28085 0.0
H198 H 0.17676 0.51496 0.30948 0.0
H199 H 0.1822 0.54937 0.34828 0.0
Nd200 Nd 0.3563 0.1852 0.72046 0.0
Nd201 Nd 0.45847 0.19305 0.70975 0.0
C202 C 0.28292 0.1991 0.73762 0.0
C203 C 0.27483 0.21617 0.76038 0.0
C204 C 0.3121 0.26295 0.7701 0.0
C205 C 0.30605 0.27662 0.79237 0.0
C206 C 0.26251 0.24399 0.80551 0.0
C207 C 0.22453 0.19786 0.7955 0.0
C208 C 0.23069 0.18411 0.7732 0.0
C209 C 0.36564 0.10136 0.73102 0.0
C210 C 0.45013 0.23416 0.75891 0.0
C211 C 0.53011 0.17436 0.69465 0.0
C212 C 0.54661 0.17228 0.6711 0.0
C213 C 0.58632 0.16199 0.66697 0.0
C214 C 0.6024 0.16155 0.64441 0.0
C215 C 0.57876 0.17117 0.62563 0.0
C216 C 0.53832 0.18058 0.63001 0.0
C217 C 0.52281 0.18159 0.65248 0.0
C218 C 0.45689 0.28056 0.69994 0.0
C219 C 0.36414 0.14732 0.67046 0.0
O220 O 0.32039 0.23335 0.72494 0.0
O221 O 0.28019 0.15438 0.73716 0.0
O222 O 0.32595 0.09709 0.7202 0.0
O223 O 0.39729 0.14739 0.73495 0.0
O224 O 0.41069 0.23548 0.74966 0.0
O225 O 0.47189 0.21138 0.74817 0.0
O226 O 0.48377 0.13802 0.70001 0.0
O227 O 0.5397 0.21973 0.70145 0.0
O228 O 0.49658 0.27974 0.70799 0.0
O229 O 0.4201 0.23585 0.69594 0.0
O230 O 0.40621 0.14932 0.67857 0.0
O231 O 0.33913 0.16486 0.68252 0.0
H232 H 0.34657 0.28868 0.76071 0.0
H233 H 0.3357 0.31282 0.79934 0.0
H234 H 0.19069 0.17163 0.80514 0.0
H235 H 0.20141 0.14781 0.76615 0.0
H236 H 0.60525 0.15492 0.68117 0.0
H237 H 0.634 0.15472 0.64173 0.0
H238 H 0.51843 0.18711 0.61607 0.0
H239 H 0.49235 0.19005 0.65533 0.0
C240 C 0.20226 0.59299 0.25063 0.0
C241 C 0.17393 0.55856 0.26833 0.0
C242 C 0.20122 0.57543 0.22832 0.0
C243 C 0.17236 0.52269 0.22317 0.0
C244 C 0.14368 0.48832 0.2408 0.0
C245 C 0.14454 0.50597 0.26314 0.0
C246 C 0.17013 0.50232 0.19961 0.0
C247 C 0.20606 0.52792 0.1834 0.0
C248 C 0.20457 0.50794 0.15984 0.0
C249 C 0.25009 0.52981 0.14699 0.0
C250 C 0.25074 0.51242 0.12479 0.0
C251 C 0.2057 0.47282 0.11487 0.0
H252 H 0.12287 0.45217 0.1586 0.0
C253 C 0.15987 0.45157 0.12751 0.0
C254 C 0.15919 0.46899 0.14971 0.0
H255 H 0.12436 0.42141 0.1203 0.0
H256 H 0.22569 0.63372 0.25401 0.0
H257 H 0.22259 0.60362 0.21523 0.0
H258 H 0.12059 0.44758 0.23731 0.0
H259 H 0.12162 0.47846 0.27625 0.0
H260 H 0.13884 0.4639 0.196 0.0
H261 H 0.23965 0.56433 0.18773 0.0
H262 H 0.28552 0.56022 0.15422 0.0
H263 H 0.28671 0.52978 0.11553 0.0
C264 C 0.59752 0.20823 0.58573 0.0
C265 C 0.59654 0.17249 0.6016 0.0
C266 C 0.61308 0.20918 0.56305 0.0
C267 C 0.62909 0.17492 0.55564 0.0
C268 C 0.62804 0.13914 0.5715 0.0
C269 C 0.61203 0.13793 0.59419 0.0
C270 C 0.64598 0.17434 0.53157 0.0
C271 C 0.65874 0.21272 0.51631 0.0
C272 C 0.67637 0.21298 0.49234 0.0
C273 C 0.70036 0.25971 0.48027 0.0
C274 C 0.7184 0.26243 0.45791 0.0
C275 C 0.71269 0.2183 0.44697 0.0
H276 H 0.64975 0.13126 0.48935 0.0
C277 C 0.68747 0.17118 0.45875 0.0
C278 C 0.66936 0.16844 0.48113 0.0
H279 H 0.68207 0.1363 0.45078 0.0
H280 H 0.58647 0.23589 0.59082 0.0
H281 H 0.61167 0.23654 0.5515 0.0
H282 H 0.6396 0.11188 0.56632 0.0
H283 H 0.61104 0.10933 0.6058 0.0
H284 H 0.64974 0.14162 0.52672 0.0
H285 H 0.65865 0.24711 0.52169 0.0
H286 H 0.70589 0.29459 0.48831 0.0
H287 H 0.73759 0.29935 0.44936 0.0
C288 C 0.43502 0.63436 0.9231 0.0
C289 C 0.3876 0.59211 0.92949 0.0
C290 C 0.44567 0.64912 0.90006 0.0
C291 C 0.40908 0.62192 0.88284 0.0
C292 C 0.36164 0.58003 0.8892 0.0
C293 C 0.35115 0.56495 0.9122 0.0
C294 C 0.41869 0.63738 0.85828 0.0
C295 C 0.46578 0.65931 0.84891 0.0
C296 C 0.4766 0.67532 0.82444 0.0
C297 C 0.52009 0.6784 0.8142 0.0
C298 C 0.53371 0.69632 0.79175 0.0
C299 C 0.50461 0.71244 0.77904 0.0
H300 H 0.41346 0.68961 0.81913 0.0
C301 C 0.46058 0.70877 0.78914 0.0
C302 C 0.44662 0.69033 0.81163 0.0
H303 H 0.43748 0.72115 0.77987 0.0
H304 H 0.46357 0.65686 0.93597 0.0
H305 H 0.48209 0.68262 0.89589 0.0
H306 H 0.33274 0.55853 0.87629 0.0
H307 H 0.31451 0.53174 0.91639 0.0
H308 H 0.38572 0.62796 0.84746 0.0
H309 H 0.49777 0.66389 0.85932 0.0
H310 H 0.544 0.66734 0.82369 0.0
H311 H 0.56789 0.69868 0.78461 0.0
C312 C 0.78541 0.45062 0.26163 0.0
C313 C 0.82668 0.44613 0.27009 0.0
C314 C 0.78444 0.46419 0.23872 0.0
C315 C 0.82474 0.4734 0.2237 0.0
C316 C 0.86666 0.47041 0.23235 0.0
C317 C 0.86752 0.45662 0.25523 0.0
C318 C 0.82491 0.48732 0.19913 0.0
C319 C 0.78174 0.47337 0.18697 0.0
C320 C 0.78114 0.48693 0.16238 0.0
C321 C 0.73566 0.45887 0.14968 0.0
C322 C 0.73255 0.47164 0.12684 0.0
C323 C 0.7749 0.513 0.11619 0.0
H324 H 0.85904 0.55191 0.16087 0.0
C325 C 0.82064 0.54081 0.12879 0.0
C326 C 0.82369 0.5282 0.15164 0.0
H327 H 0.85396 0.57313 0.12119 0.0
H328 H 0.75326 0.4426 0.2726 0.0
H329 H 0.75224 0.46775 0.23297 0.0
H330 H 0.89856 0.47802 0.22127 0.0
H331 H 0.90023 0.45423 0.26131 0.0
H332 H 0.86187 0.50734 0.19064 0.0
H333 H 0.7448 0.44924 0.19504 0.0
H334 H 0.70217 0.4271 0.1575 0.0
H335 H 0.69668 0.44951 0.11767 0.0
C336 C 0.38797 0.83683 0.58561 0.0
C337 C 0.37713 0.79296 0.59846 0.0
C338 C 0.3733 0.83259 0.56248 0.0
C339 C 0.34773 0.78424 0.55161 0.0
C340 C 0.33692 0.74054 0.56452 0.0
C341 C 0.35155 0.74479 0.58758 0.0
C342 C 0.32968 0.77705 0.52727 0.0
C343 C 0.34757 0.81474 0.51137 0.0
C344 C 0.32727 0.80703 0.48743 0.0
C345 C 0.33178 0.84946 0.47534 0.0
C346 C 0.31129 0.84362 0.45324 0.0
C347 C 0.28601 0.79518 0.44258 0.0
H348 H 0.30122 0.7255 0.48471 0.0
C349 C 0.28332 0.75303 0.45426 0.0
C350 C 0.30382 0.75886 0.47641 0.0
H351 H 0.26456 0.71524 0.44649 0.0
H352 H 0.40692 0.87444 0.59355 0.0
H353 H 0.38112 0.8672 0.55351 0.0
H354 H 0.31719 0.70279 0.5567 0.0
H355 H 0.34326 0.71025 0.59683 0.0
H356 H 0.29997 0.73867 0.52245 0.0
H357 H 0.37692 0.85334 0.51606 0.0
H358 H 0.35018 0.88715 0.48323 0.0
H359 H 0.31462 0.87704 0.44468 0.0
C360 C 0.53283 0.33228 0.9273 0.0
C361 C 0.58185 0.37191 0.93373 0.0
C362 C 0.52187 0.31646 0.90436 0.0
C363 C 0.55975 0.34 0.8873 0.0
C364 C 0.60875 0.37923 0.89374 0.0
C365 C 0.6196 0.39533 0.91661 0.0
C366 C 0.54986 0.32363 0.86283 0.0
C367 C 0.50337 0.30437 0.85297 0.0
C368 C 0.49289 0.28878 0.82842 0.0
C369 C 0.45156 0.28922 0.81758 0.0
C370 C 0.4388 0.27284 0.79487 0.0
C371 C 0.4666 0.25482 0.78246 0.0
H372 H 0.55271 0.26935 0.82394 0.0
C373 C 0.50824 0.25457 0.79323 0.0
C374 C 0.52134 0.27142 0.81599 0.0
H375 H 0.53024 0.2406 0.78422 0.0
H376 H 0.50314 0.31268 0.94006 0.0
H377 H 0.48407 0.28502 0.90017 0.0
H378 H 0.63866 0.39792 0.88097 0.0
H379 H 0.65755 0.42651 0.92082 0.0
H380 H 0.58253 0.33051 0.85238 0.0
H381 H 0.47195 0.30233 0.86294 0.0
H382 H 0.42884 0.30214 0.82675 0.0
H383 H 0.40643 0.27346 0.78722 0.0
C384 C 0.34085 0.42933 0.07611 0.0
C385 C 0.30808 0.38526 0.06337 0.0
C386 C 0.39351 0.45349 0.07323 0.0
C387 C 0.41478 0.43383 0.05769 0.0
C388 C 0.38247 0.38771 0.04606 0.0
C389 C 0.3291 0.36368 0.04869 0.0
C390 C 0.47088 0.46028 0.0547 0.0
C391 C 0.49969 0.51192 0.0549 0.0
C392 C 0.55582 0.53865 0.05794 0.0
C393 C 0.58747 0.58607 0.04717 0.0
C394 C 0.64081 0.6111 0.0501 0.0
C395 C 0.66253 0.58926 0.06425 0.0
H396 H 0.55408 0.48304 0.08219 0.0
C397 C 0.63037 0.54359 0.07611 0.0
C398 C 0.57768 0.51839 0.07288 0.0
H399 H 0.6461 0.52625 0.08737 0.0
H400 H 0.32562 0.44636 0.08781 0.0
H401 H 0.41759 0.48774 0.08318 0.0
H402 H 0.39839 0.37137 0.03438 0.0
H403 H 0.30446 0.32982 0.03864 0.0
H404 H 0.48895 0.43694 0.0534 0.0
H405 H 0.48148 0.53519 0.05391 0.0
H406 H 0.57106 0.60287 0.03599 0.0
H407 H 0.66493 0.64621 0.04074 0.0
C408 C 0.10022 0.64718 0.416 0.0
C409 C 0.0836 0.67704 0.40432 0.0
C410 C 0.06944 0.59414 0.41693 0.0
C411 C 0.02123 0.56981 0.40623 0.0
C412 C 0.00314 0.59981 0.39576 0.0
C413 C 0.03434 0.65327 0.39467 0.0
C414 C -0.01092 0.51332 0.40629 0.0
C415 C 0.00925 0.48224 0.40571 0.0
C416 C 0.97676 0.42585 0.40692 0.0
C417 C -0.00983 0.39425 0.39453 0.0
C418 C 0.95715 0.34098 0.39409 0.0
C419 C 0.91087 0.31915 0.40628 0.0
H420 H 0.92191 0.42644 0.43085 0.0
C421 C 0.89958 0.3505 0.42 0.0
C422 C 0.93218 0.40329 0.42035 0.0
H423 H 0.86436 0.33434 0.42982 0.0
H424 H 0.13782 0.66472 0.42391 0.0
H425 H 0.08362 0.57231 0.42596 0.0
H426 H 0.9656 0.58174 0.38776 0.0
H427 H 0.0208 0.67561 0.38558 0.0
H428 H 0.94773 0.49695 0.40603 0.0
H429 H 0.05023 0.49827 0.40337 0.0
H430 H 0.02495 0.41097 0.38439 0.0
H431 H 0.96642 0.31741 0.38334 0.0
C432 C 0.41727 0.06951 0.7494 0.0
C433 C 0.38165 0.06288 0.73232 0.0
C434 C 0.44474 0.04394 0.74808 0.0
C435 C 0.43666 0.01029 0.72973 0.0
C436 C 0.39896 0.00162 0.7132 0.0
C437 C 0.37138 0.02765 0.71451 0.0
C438 C 0.46962 0.98707 0.72664 0.0
C439 C 0.49585 0.98164 0.74413 0.0
C440 C 0.52943 0.9594 0.74142 0.0
C441 C 0.533 0.93125 0.75978 0.0
C442 C 0.56097 0.90628 0.75746 0.0
C443 C 0.58723 0.9104 0.73702 0.0
H444 H 0.5568 0.98837 0.70704 0.0
C445 C 0.58689 0.94143 0.71913 0.0
C446 C 0.5578 0.96567 0.72125 0.0
H447 H 0.60612 0.94407 0.70304 0.0
H448 H 0.42638 0.09722 0.76309 0.0
H449 H 0.47429 0.05334 0.76082 0.0
H450 H 0.39221 0.97615 0.69881 0.0
H451 H 0.34488 0.02295 0.70086 0.0
H452 H 0.47165 0.97337 0.70961 0.0
H453 H 0.48988 0.9902 0.76158 0.0
H454 H 0.51201 0.92644 0.77557 0.0
H455 H 0.56023 0.88178 0.7713 0.0
C456 C 0.47829 0.61599 0.67565 0.0
C457 C 0.5247 0.65622 0.68414 0.0
C458 C 0.47519 0.57083 0.66795 0.0
C459 C 0.51821 0.56449 0.6693 0.0
C460 C 0.56568 0.60646 0.67595 0.0
C461 C 0.56899 0.65227 0.68325 0.0
C462 C 0.51378 0.51351 0.6666 0.0
C463 C 0.47005 0.46949 0.67136 0.0
C464 C 0.46844 0.42052 0.67629 0.0
C465 C 0.42158 0.37419 0.67449 0.0
C466 C 0.41749 0.32807 0.68187 0.0
C467 C 0.46015 0.32797 0.69143 0.0
H468 H 0.5474 0.45489 0.68818 0.0
C469 C 0.507 0.37415 0.69306 0.0
C470 C 0.51118 0.41993 0.68559 0.0
H471 H 0.54049 0.37519 0.70048 0.0
H472 H 0.44389 0.61888 0.67549 0.0
H473 H 0.43857 0.54052 0.66176 0.0
H474 H 0.5996 0.6028 0.67682 0.0
H475 H 0.60531 0.68327 0.68941 0.0
H476 H 0.54897 0.51279 0.6637 0.0
H477 H 0.43454 0.46958 0.67408 0.0
H478 H 0.38788 0.37384 0.66775 0.0
H479 H 0.38093 0.29284 0.68048 0.0
C480 C 0.11603 0.50354 0.02527 0.0
C481 C 0.11517 0.45658 0.0247 0.0
C482 C 0.07381 0.50667 0.01798 0.0
C483 C 0.02965 0.46275 1.0099 0.0
C484 C 0.02892 0.41574 1.00914 0.0
C485 C 0.07159 0.41269 1.01634 0.0
C486 C 0.98187 0.46369 1.00541 0.0
C487 C 0.98139 0.50688 0.99976 0.0
C488 C 0.93582 0.51233 1.00353 0.0
C489 C 0.94318 0.56089 1.00938 0.0
C490 C 0.90236 0.5658 0.01767 0.0
C491 C 0.85398 0.52207 0.02033 0.0
H492 H 0.87823 0.43199 0.99858 0.0
C493 C 0.84571 0.47431 1.01272 0.0
C494 C 0.88605 0.46955 1.00406 0.0
H495 H 0.80815 0.44024 1.01388 0.0
H496 H 0.14911 0.53798 0.03175 0.0
H497 H 0.07531 0.54314 0.01978 0.0
H498 H -0.00506 0.38118 1.00339 0.0
H499 H 0.07014 0.37603 1.01578 0.0
H500 H 0.9465 0.4287 1.00946 0.0
H501 H 0.01706 0.54143 0.99549 0.0
H502 H 0.9811 0.59459 1.00883 0.0
H503 H 0.9092 0.60312 0.02312 0.0
C504 C 0.37274 0.86186 0.33923 0.0
C505 C 0.33059 0.86557 0.34679 0.0
C506 C 0.41701 0.90525 0.33168 0.0
C507 C 0.42054 0.95357 0.33228 0.0
C508 C 0.37676 0.95646 0.338 0.0
C509 C 0.33185 0.91259 0.34512 0.0
C510 C 0.47022 0.00182 0.32955 0.0
C511 C 0.51526 0.00501 0.33495 0.0
C512 C 0.56327 0.05408 0.33911 0.0
C513 C 0.61015 0.05464 0.33878 0.0
C514 C 0.65537 0.09823 0.34583 0.0
C515 C 0.65413 0.14167 0.35355 0.0
H516 H 0.5272 0.09903 0.34765 0.0
C517 C 0.60757 0.14157 0.35343 0.0
C518 C 0.56257 0.09827 0.34633 0.0
H519 H 0.60559 0.17461 0.35939 0.0
H520 H 0.37202 0.82554 0.33968 0.0
H521 H 0.4488 0.9008 0.32618 0.0
H522 H 0.3782 -0.00687 0.33823 0.0
H523 H 0.29934 0.91601 0.35047 0.0
H524 H 0.46892 0.03645 0.3258 0.0
H525 H 0.51684 0.97053 0.33863 0.0
H526 H 0.61158 0.02082 0.3336 0.0
H527 H 0.69091 0.09748 0.34579 0.0
C528 C 0.21022 0.24884 0.83831 0.0
C529 C 0.25754 0.25765 0.82968 0.0
C530 C 0.20611 0.26264 0.86091 0.0
C531 C 0.24929 0.28527 0.87553 0.0
C532 C 0.29638 0.29373 0.86687 0.0
C533 C 0.30047 0.28002 0.84433 0.0
C534 C 0.24795 0.30286 0.89943 0.0
C535 C 0.20485 0.28805 0.9118 0.0
C536 C 0.20486 0.30726 0.93552 0.0
C537 C 0.16247 0.27855 0.94994 0.0
C538 C 0.16072 0.2958 0.97214 0.0
C539 C 0.20128 0.34247 0.98042 0.0
H540 H 0.27774 0.37873 0.93307 0.0
C541 C 0.24346 0.37146 0.9659 0.0
C542 C 0.24516 0.35429 0.94376 0.0
H543 H 0.27518 0.40795 0.97151 0.0
H544 H 0.17651 0.23234 0.82742 0.0
H545 H 0.16932 0.25653 0.86654 0.0
H546 H 0.33039 0.31113 0.87759 0.0
H547 H 0.33736 0.28667 0.83845 0.0
H548 H 0.28481 0.32817 0.90735 0.0
H549 H 0.1681 0.25944 0.90481 0.0
H550 H 0.13058 0.24246 0.94405 0.0
H551 H 0.12752 0.27258 0.98277 0.0
C552 C 0.85349 0.1885 0.30418 0.0
C553 C 0.86472 0.23143 0.31784 0.0
C554 C 0.87714 0.19468 0.28271 0.0
C555 C 0.91279 0.24403 0.27452 0.0
C556 C 0.92497 0.28658 0.28855 0.0
C557 C 0.90109 0.28046 0.30981 0.0
C558 C 0.939 0.25323 0.25179 0.0
C559 C 0.91946 0.22132 0.23356 0.0
C560 C 0.94393 0.23177 0.21027 0.0
C561 C 0.92425 0.19191 0.19396 0.0
C562 C 0.94466 0.19986 0.17174 0.0
C563 C 0.98538 0.24811 0.1651 0.0
H564 H 0.00085 0.3126 0.21517 0.0
C565 C 0.00518 0.28809 0.18137 0.0
C566 C 0.98473 0.28019 0.2036 0.0
H567 H 0.03685 0.32566 0.177 0.0
H568 H 0.82582 0.15018 0.30991 0.0
H569 H 0.86775 0.16072 0.27277 0.0
H570 H 0.95262 0.32499 0.28289 0.0
H571 H 0.91131 0.31437 0.31999 0.0
H572 H 0.97492 0.28901 0.25007 0.0
H573 H 0.88314 0.1859 0.2355 0.0
H574 H 0.89264 0.15432 0.19838 0.0
H575 H 0.92783 0.16831 0.15962 0.0
C576 C 0.60457 0.87628 0.63413 0.0
C577 C 0.6336 0.86165 0.64783 0.0
C578 C 0.62131 0.89709 0.61222 0.0
C579 C 0.668 0.90438 0.60344 0.0
C580 C 0.697 0.88974 0.61714 0.0
C581 C 0.68014 0.86876 0.63908 0.0
C582 C 0.68644 0.92475 0.5798 0.0
C583 C 0.67029 0.95231 0.56768 0.0
C584 C 0.68719 0.97167 0.54379 0.0
C585 C 0.67889 0.0107 0.53543 0.0
C586 C 0.69251 0.0291 0.51296 0.0
C587 C 0.71464 0.00875 0.49812 0.0
H588 H 0.715 0.92003 0.53432 0.0
C589 C 0.7227 0.96944 0.5064 0.0
C590 C 0.70907 0.95101 0.52891 0.0
H591 H 0.7399 0.95305 0.49551 0.0
H592 H 0.56826 0.87086 0.64013 0.0
H593 H 0.5967 0.90607 0.60212 0.0
H594 H 0.73288 0.8944 0.61082 0.0
H595 H 0.70344 0.85778 0.64908 0.0
H596 H 0.71555 0.91784 0.57255 0.0
H597 H 0.64451 0.96289 0.57576 0.0
H598 H 0.66159 0.02704 0.54632 0.0
H599 H 0.68487 0.05877 0.50711 0.0
C600 C 0.72741 0.69175 0.83657 0.0
C601 C 0.73977 0.74157 0.82985 0.0
C602 C 0.73657 0.6817 0.85908 0.0
C603 C 0.75814 0.72123 0.8756 0.0
C604 C 0.77145 0.77117 0.86878 0.0
C605 C 0.7622 0.7812 0.84627 0.0
C606 C 0.76813 0.71204 0.89987 0.0
C607 C 0.74142 0.66607 0.91043 0.0
C608 C 0.74898 0.65549 0.93483 0.0
C609 C 0.70974 0.6112 0.94533 0.0
C610 C 0.71503 0.59806 0.96779 0.0
C611 C 0.76007 0.62861 0.98049 0.0
H612 H 0.82584 0.72038 0.93998 0.0
C613 C 0.79956 0.67315 0.97011 0.0
C614 C 0.79414 0.6865 0.94752 0.0
H615 H 0.83489 0.69741 0.97931 0.0
H616 H 0.71125 0.66045 0.82431 0.0
H617 H 0.72744 0.64303 0.86327 0.0
H618 H 0.78842 0.80251 0.88101 0.0
H619 H 0.77184 0.81997 0.84188 0.0
H620 H 0.79634 0.74495 0.90958 0.0
H621 H 0.71033 0.63456 0.90112 0.0
H622 H 0.67462 0.58634 0.93607 0.0
H623 H 0.68371 0.56334 0.97505 0.0
C624 C 0.11661 0.80198 0.3037 0.0
C625 C 0.11868 0.7618 0.31507 0.0
C626 C 0.09257 0.79389 0.28213 0.0
C627 C 0.07015 0.74532 0.27139 0.0
C628 C 0.07141 0.70516 0.28309 0.0
C629 C 0.09531 0.71321 0.30452 0.0
C630 C 0.04447 0.73396 0.24833 0.0
C631 C 0.04969 0.76975 0.23283 0.0
C632 C 0.02582 0.75754 0.20933 0.0
C633 C 0.04441 0.79667 0.19269 0.0
C634 C 0.02377 0.78725 0.17044 0.0
C635 C 0.98364 0.73832 0.16412 0.0
H636 H 0.96825 0.6775 0.21536 0.0
C637 C 0.96449 0.69923 0.18083 0.0
C638 C 0.98504 0.70867 0.20313 0.0
H639 H 0.93384 0.66094 0.17665 0.0
H640 H 0.13396 0.83984 0.31135 0.0
H641 H 0.09152 0.82576 0.27414 0.0
H642 H 0.05424 0.66722 0.27551 0.0
H643 H 0.09565 0.68108 0.31271 0.0
H644 H 0.02236 0.69375 0.24362 0.0
H645 H 0.07457 0.81002 0.23688 0.0
H646 H 0.07532 0.83484 0.19688 0.0
H647 H 0.03896 0.81867 0.15826 0.0
C648 C 0.37405 0.11012 0.63346 0.0
C649 C 0.34623 0.12651 0.64694 0.0
C650 C 0.35854 0.09218 0.61102 0.0
C651 C 0.31424 0.08947 0.60148 0.0
C652 C 0.28647 0.10582 0.615 0.0
C653 C 0.30214 0.12401 0.63743 0.0
C654 C 0.29681 0.07185 0.57738 0.0
C655 C 0.31196 0.04411 0.56479 0.0
C656 C 0.29563 0.02687 0.54055 0.0
C657 C 0.30538 0.98952 0.53127 0.0
C658 C 0.29237 0.97297 0.50852 0.0
C659 C 0.26931 -0.00654 0.49429 0.0
H660 H 0.26546 0.07728 0.53234 0.0
C661 C 0.25938 0.03078 0.50349 0.0
C662 C 0.27257 0.04752 0.52629 0.0
H663 H 0.24235 0.04792 0.49292 0.0
H664 H 0.40836 0.11168 0.64011 0.0
H665 H 0.38224 0.08164 0.60119 0.0
H666 H 0.25245 0.10465 0.60816 0.0
H667 H 0.27982 0.13643 0.64723 0.0
H668 H 0.26919 0.08103 0.57018 0.0
H669 H 0.33656 0.03174 0.57269 0.0
H670 H 0.32317 0.97289 0.5417 0.0
H671 H 0.29998 0.94366 0.50215 0.0
loop_
_geom_bond_atom_site_label_1
_geom_bond_atom_site_label_2
_geom_bond_distance
_geom_bond_site_symmetry_2
_ccdc_geom_bond_type
Nd0 C2 2.836 . S
Nd0 O20 2.500 . S
Nd0 O21 2.492 . S
Nd0 O22 2.487 . S
Nd0 O23 2.682 . S
Nd0 O24 2.410 . S
Nd0 O29 2.414 . S
Nd0 O31 2.424 . S
Nd1 C11 2.836 1_554 S
Nd1 O23 2.414 . S
Nd1 O25 2.424 . S
Nd1 O26 2.500 1_554 S
Nd1 O27 2.492 1_554 S
Nd1 O28 2.487 . S
Nd1 O29 2.682 . S
Nd1 O30 2.410 1_554 S
C2 Nd0 2.836 . S
C2 C3 1.498 . S
C2 O20 1.258 . S
C2 O21 1.239 . S
C3 C2 1.498 . S
C3 C4 1.366 . S
C3 C8 1.407 . S
C4 C3 1.366 . S
C4 C5 1.392 . S
C4 H32 0.930 . S
C5 C4 1.392 . S
C5 C6 1.398 . S
C5 H33 0.929 . S
C6 C5 1.398 . S
C6 C7 1.352 . S
C7 C6 1.352 . S
C7 C8 1.384 . S
C7 H34 0.930 . S
C8 C3 1.407 . S
C8 C7 1.384 . S
C8 H35 0.929 . S
C9 O22 1.241 . S
C9 O23 1.273 . S
C10 O24 1.251 . S
C10 O25 1.268 . S
C11 Nd1 2.836 1_556 S
C11 C12 1.498 . S
C11 O26 1.258 . S
C11 O27 1.239 . S
C12 C11 1.498 . S
C12 C13 1.366 . S
C12 C17 1.407 . S
C13 C12 1.366 . S
C13 C14 1.392 . S
C13 H36 0.930 . S
C14 C13 1.392 . S
C14 C15 1.398 . S
C14 H37 0.929 . S
C15 C14 1.398 . S
C15 C16 1.352 . S
C16 C15 1.352 . S
C16 C17 1.384 . S
C16 H38 0.930 . S
C17 C12 1.407 . S
C17 C16 1.384 . S
C17 H39 0.929 . S
C18 O28 1.241 . S
C18 O29 1.273 . S
C19 O30 1.251 . S
C19 O31 1.268 1_556 S
O20 Nd0 2.500 . S
O20 C2 1.258 . S
O21 Nd0 2.492 . S
O21 C2 1.239 . S
O22 Nd0 2.487 . S
O22 C9 1.241 . S
O23 Nd0 2.682 . S
O23 Nd1 2.414 . S
O23 C9 1.273 . S
O24 Nd0 2.410 . S
O24 C10 1.251 . S
O25 Nd1 2.424 . S
O25 C10 1.268 . S
O26 Nd1 2.500 1_556 S
O26 C11 1.258 . S
O27 Nd1 2.492 1_556 S
O27 C11 1.239 . S
O28 Nd1 2.487 . S
O28 C18 1.241 . S
O29 Nd0 2.414 . S
O29 Nd1 2.682 . S
O29 C18 1.273 . S
O30 Nd1 2.410 1_556 S
O30 C19 1.251 . S
O31 Nd0 2.424 . S
O31 C19 1.268 1_554 S
H32 C4 0.930 . S
H33 C5 0.929 . S
H34 C7 0.930 . S
H35 C8 0.929 . S
H36 C13 0.930 . S
H37 C14 0.929 . S
H38 C16 0.930 . S
H39 C17 0.929 . S
Nd40 C42 2.836 . S
Nd40 O60 2.500 . S
Nd40 O61 2.492 . S
Nd40 O62 2.487 . S
Nd40 O63 2.682 . S
Nd40 O64 2.410 . S
Nd40 O69 2.414 . S
Nd40 O71 2.424 . S
Nd41 C51 2.836 . S
Nd41 O63 2.414 . S
Nd41 O65 2.424 . S
Nd41 O66 2.500 . S
Nd41 O67 2.492 . S
Nd41 O68 2.487 . S
Nd41 O69 2.682 . S
Nd41 O70 2.410 . S
C42 Nd40 2.836 . S
C42 C43 1.498 . S
C42 O60 1.258 . S
C42 O61 1.239 . S
C43 C42 1.498 . S
C43 C44 1.366 . S
C43 C48 1.407 . S
C44 C43 1.366 . S
C44 C45 1.392 . S
C44 H72 0.930 . S
C45 C44 1.392 . S
C45 C46 1.398 . S
C45 H73 0.929 . S
C46 C45 1.398 . S
C46 C47 1.352 . S
C47 C46 1.352 . S
C47 C48 1.384 . S
C47 H74 0.930 . S
C48 C43 1.407 . S
C48 C47 1.384 . S
C48 H75 0.929 . S
C49 O62 1.241 . S
C49 O63 1.273 . S
C50 O64 1.251 . S
C50 O65 1.268 . S
C51 Nd41 2.836 . S
C51 C52 1.498 . S
C51 O66 1.258 . S
C51 O67 1.239 . S
C52 C51 1.498 . S
C52 C53 1.366 . S
C52 C57 1.407 . S
C53 C52 1.366 . S
C53 C54 1.392 . S
C53 H76 0.930 . S
C54 C53 1.392 . S
C54 C55 1.398 . S
C54 H77 0.929 . S
C55 C54 1.398 . S
C55 C56 1.352 . S
C56 C55 1.352 . S
C56 C57 1.384 . S
C56 H78 0.930 . S
C57 C52 1.407 . S
C57 C56 1.384 . S
C57 H79 0.929 . S
C58 O68 1.241 . S
C58 O69 1.273 . S
C59 O70 1.251 . S
C59 O71 1.268 . S
O60 Nd40 2.500 . S
O60 C42 1.258 . S
O61 Nd40 2.492 . S
O61 C42 1.239 . S
O62 Nd40 2.487 . S
O62 C49 1.241 . S
O63 Nd40 2.682 . S
O63 Nd41 2.414 . S
O63 C49 1.273 . S
O64 Nd40 2.410 . S
O64 C50 1.251 . S
O65 Nd41 2.424 . S
O65 C50 1.268 . S
O66 Nd41 2.500 . S
O66 C51 1.258 . S
O67 Nd41 2.492 . S
O67 C51 1.239 . S
O68 Nd41 2.487 . S
O68 C58 1.241 . S
O69 Nd40 2.414 . S
O69 Nd41 2.682 . S
O69 C58 1.273 . S
O70 Nd41 2.410 . S
O70 C59 1.251 . S
O71 Nd40 2.424 . S
O71 C59 1.268 . S
H72 C44 0.930 . S
H73 C45 0.929 . S
H74 C47 0.930 . S
H75 C48 0.929 . S
H76 C53 0.930 . S
H77 C54 0.929 . S
H78 C56 0.930 . S
H79 C57 0.929 . S
Nd80 C82 2.836 . S
Nd80 O100 2.500 . S
Nd80 O101 2.492 . S
Nd80 O102 2.487 . S
Nd80 O103 2.682 . S
Nd80 O104 2.410 . S
Nd80 O109 2.414 . S
Nd80 O111 2.424 . S
Nd81 C91 2.836 . S
Nd81 O103 2.414 . S
Nd81 O105 2.424 . S
Nd81 O106 2.500 . S
Nd81 O107 2.492 . S
Nd81 O108 2.487 . S
Nd81 O109 2.682 . S
Nd81 O110 2.410 . S
C82 Nd80 2.836 . S
C82 C83 1.498 . S
C82 O100 1.258 . S
C82 O101 1.239 . S
C83 C82 1.498 . S
C83 C84 1.366 . S
C83 C88 1.407 . S
C84 C83 1.366 . S
C84 C85 1.392 . S
C84 H112 0.930 . S
C85 C84 1.392 . S
C85 C86 1.398 . S
C85 H113 0.929 . S
C86 C85 1.398 . S
C86 C87 1.352 . S
C87 C86 1.352 . S
C87 C88 1.384 . S
C87 H114 0.930 . S
C88 C83 1.407 . S
C88 C87 1.384 . S
C88 H115 0.929 . S
C89 O102 1.241 . S
C89 O103 1.273 . S
C90 O104 1.251 . S
C90 O105 1.268 . S
C91 Nd81 2.836 . S
C91 C92 1.498 . S
C91 O106 1.258 . S
C91 O107 1.239 . S
C92 C91 1.498 . S
C92 C93 1.366 . S
C92 C97 1.407 . S
C93 C92 1.366 . S
C93 C94 1.392 . S
C93 H116 0.930 . S
C94 C93 1.392 . S
C94 C95 1.398 . S
C94 H117 0.929 . S
C95 C94 1.398 . S
C95 C96 1.352 . S
C96 C95 1.352 . S
C96 C97 1.384 . S
C96 H118 0.930 . S
C97 C92 1.407 . S
C97 C96 1.384 . S
C97 H119 0.929 . S
C98 O108 1.241 . S
C98 O109 1.273 . S
C99 O110 1.251 . S
C99 O111 1.268 . S
O100 Nd80 2.500 . S
O100 C82 1.258 . S
O101 Nd80 2.492 . S
O101 C82 1.239 . S
O102 Nd80 2.487 . S
O102 C89 1.241 . S
O103 Nd80 2.682 . S
O103 Nd81 2.414 . S
O103 C89 1.273 . S
O104 Nd80 2.410 . S
O104 C90 1.251 . S
O105 Nd81 2.424 . S
O105 C90 1.268 . S
O106 Nd81 2.500 . S
O106 C91 1.258 . S
O107 Nd81 2.492 . S
O107 C91 1.239 . S
O108 Nd81 2.487 . S
O108 C98 1.241 . S
O109 Nd80 2.414 . S
O109 Nd81 2.682 . S
O109 C98 1.273 . S
O110 Nd81 2.410 . S
O110 C99 1.251 . S
O111 Nd80 2.424 . S
O111 C99 1.268 . S
H112 C84 0.930 . S
H113 C85 0.929 . S
H114 C87 0.930 . S
H115 C88 0.929 . S
H116 C93 0.930 . S
H117 C94 0.929 . S
H118 C96 0.930 . S
H119 C97 0.929 . S
Nd120 C122 2.836 . S
Nd120 O140 2.500 . S
Nd120 O141 2.492 . S
Nd120 O142 2.487 . S
Nd120 O143 2.682 . S
Nd120 O144 2.410 . S
Nd120 O149 2.414 . S
Nd120 O151 2.424 . S
Nd121 C131 2.836 1_554 S
Nd121 O143 2.414 . S
Nd121 O145 2.424 . S
Nd121 O146 2.500 1_554 S
Nd121 O147 2.492 1_554 S
Nd121 O148 2.487 . S
Nd121 O149 2.682 . S
Nd121 O150 2.410 1_554 S
C122 Nd120 2.836 . S
C122 C123 1.498 . S
C122 O140 1.258 . S
C122 O141 1.239 . S
C123 C122 1.498 . S
C123 C124 1.366 . S
C123 C128 1.407 . S
C124 C123 1.366 . S
C124 C125 1.392 . S
C124 H152 0.930 . S
C125 C124 1.392 . S
C125 C126 1.398 . S
C125 H153 0.929 . S
C126 C125 1.398 . S
C126 C127 1.352 . S
C127 C126 1.352 . S
C127 C128 1.384 . S
C127 H154 0.930 . S
C128 C123 1.407 . S
C128 C127 1.384 . S
C128 H155 0.929 . S
C129 O142 1.241 . S
C129 O143 1.273 . S
C130 O144 1.251 . S
C130 O145 1.268 . S
C131 Nd121 2.836 1_556 S
C131 C132 1.498 . S
C131 O146 1.258 . S
C131 O147 1.239 . S
C132 C131 1.498 . S
C132 C133 1.366 . S
C132 C137 1.407 . S
C133 C132 1.366 . S
C133 C134 1.392 . S
C133 H156 0.930 . S
C134 C133 1.392 . S
C134 C135 1.398 . S
C134 H157 0.929 . S
C135 C134 1.398 . S
C135 C136 1.352 . S
C136 C135 1.352 . S
C136 C137 1.384 . S
C136 H158 0.930 . S
C137 C132 1.407 . S
C137 C136 1.384 . S
C137 H159 0.929 . S
C138 O148 1.241 . S
C138 O149 1.273 . S
C139 O150 1.251 . S
C139 O151 1.268 1_556 S
O140 Nd120 2.500 . S
O140 C122 1.258 . S
O141 Nd120 2.492 . S
O141 C122 1.239 . S
O142 Nd120 2.487 . S
O142 C129 1.241 . S
O143 Nd120 2.682 . S
O143 Nd121 2.414 . S
O143 C129 1.273 . S
O144 Nd120 2.410 . S
O144 C130 1.251 . S
O145 Nd121 2.424 . S
O145 C130 1.268 . S
O146 Nd121 2.500 1_556 S
O146 C131 1.258 . S
O147 Nd121 2.492 1_556 S
O147 C131 1.239 . S
O148 Nd121 2.487 . S
O148 C138 1.241 . S
O149 Nd120 2.414 . S
O149 Nd121 2.682 . S
O149 C138 1.273 . S
O150 Nd121 2.410 1_556 S
O150 C139 1.251 . S
O151 Nd120 2.424 . S
O151 C139 1.268 1_554 S
H152 C124 0.930 . S
H153 C125 0.929 . S
H154 C127 0.930 . S
H155 C128 0.929 . S
H156 C133 0.930 . S
H157 C134 0.929 . S
H158 C136 0.930 . S
H159 C137 0.929 . S
Nd160 C162 2.836 . S
Nd160 O180 2.500 . S
Nd160 O181 2.492 . S
Nd160 O182 2.487 . S
Nd160 O183 2.682 . S
Nd160 O184 2.410 . S
Nd160 O189 2.414 . S
Nd160 O191 2.424 . S
Nd161 C171 2.836 . S
Nd161 O183 2.414 . S
Nd161 O185 2.424 . S
Nd161 O186 2.500 . S
Nd161 O187 2.492 . S
Nd161 O188 2.487 . S
Nd161 O189 2.682 . S
Nd161 O190 2.410 . S
C162 Nd160 2.836 . S
C162 C163 1.498 . S
C162 O180 1.258 . S
C162 O181 1.239 . S
C163 C162 1.498 . S
C163 C164 1.366 . S
C163 C168 1.407 . S
C164 C163 1.366 . S
C164 C165 1.392 . S
C164 H192 0.930 . S
C165 C164 1.392 . S
C165 C166 1.398 . S
C165 H193 0.929 . S
C166 C165 1.398 . S
C166 C167 1.352 . S
C167 C166 1.352 . S
C167 C168 1.384 . S
C167 H194 0.930 . S
C168 C163 1.407 . S
C168 C167 1.384 . S
C168 H195 0.929 . S
C169 O182 1.241 . S
C169 O183 1.273 . S
C170 O184 1.251 . S
C170 O185 1.268 . S
C171 Nd161 2.836 . S
C171 C172 1.498 . S
C171 O186 1.258 . S
C171 O187 1.239 . S
C172 C171 1.498 . S
C172 C173 1.366 . S
C172 C177 1.407 . S
C173 C172 1.366 . S
C173 C174 1.392 . S
C173 H196 0.930 . S
C174 C173 1.392 . S
C174 C175 1.398 . S
C174 H197 0.929 . S
C175 C174 1.398 . S
C175 C176 1.352 . S
C176 C175 1.352 . S
C176 C177 1.384 . S
C176 H198 0.930 . S
C177 C172 1.407 . S
C177 C176 1.384 . S
C177 H199 0.929 . S
C178 O188 1.241 . S
C178 O189 1.273 . S
C179 O190 1.251 . S
C179 O191 1.268 . S
O180 Nd160 2.500 . S
O180 C162 1.258 . S
O181 Nd160 2.492 . S
O181 C162 1.239 . S
O182 Nd160 2.487 . S
O182 C169 1.241 . S
O183 Nd160 2.682 . S
O183 Nd161 2.414 . S
O183 C169 1.273 . S
O184 Nd160 2.410 . S
O184 C170 1.251 . S
O185 Nd161 2.424 . S
O185 C170 1.268 . S
O186 Nd161 2.500 . S
O186 C171 1.258 . S
O187 Nd161 2.492 . S
O187 C171 1.239 . S
O188 Nd161 2.487 . S
O188 C178 1.241 . S
O189 Nd160 2.414 . S
O189 Nd161 2.682 . S
O189 C178 1.273 . S
O190 Nd161 2.410 . S
O190 C179 1.251 . S
O191 Nd160 2.424 . S
O191 C179 1.268 . S
H192 C164 0.930 . S
H193 C165 0.929 . S
H194 C167 0.930 . S
H195 C168 0.929 . S
H196 C173 0.930 . S
H197 C174 0.929 . S
H198 C176 0.930 . S
H199 C177 0.929 . S
Nd200 C202 2.836 . S
Nd200 O220 2.500 . S
Nd200 O221 2.492 . S
Nd200 O222 2.487 . S
Nd200 O223 2.682 . S
Nd200 O224 2.410 . S
Nd200 O229 2.414 . S
Nd200 O231 2.424 . S
Nd201 C211 2.836 . S
Nd201 O223 2.414 . S
Nd201 O225 2.424 . S
Nd201 O226 2.500 . S
Nd201 O227 2.492 . S
Nd201 O228 2.487 . S
Nd201 O229 2.682 . S
Nd201 O230 2.410 . S
C202 Nd200 2.836 . S
C202 C203 1.498 . S
C202 O220 1.258 . S
C202 O221 1.239 . S
C203 C202 1.498 . S
C203 C204 1.366 . S
C203 C208 1.407 . S
C204 C203 1.366 . S
C204 C205 1.392 . S
C204 H232 0.930 . S
C205 C204 1.392 . S
C205 C206 1.398 . S
C205 H233 0.929 . S
C206 C205 1.398 . S
C206 C207 1.352 . S
C207 C206 1.352 . S
C207 C208 1.384 . S
C207 H234 0.930 . S
C208 C203 1.407 . S
C208 C207 1.384 . S
C208 H235 0.929 . S
C209 O222 1.241 . S
C209 O223 1.273 . S
C210 O224 1.251 . S
C210 O225 1.268 . S
C211 Nd201 2.836 . S
C211 C212 1.498 . S
C211 O226 1.258 . S
C211 O227 1.239 . S
C212 C211 1.498 . S
C212 C213 1.366 . S
C212 C217 1.407 . S
C213 C212 1.366 . S
C213 C214 1.392 . S
C213 H236 0.930 . S
C214 C213 1.392 . S
C214 C215 1.398 . S
C214 H237 0.929 . S
C215 C214 1.398 . S
C215 C216 1.352 . S
C216 C215 1.352 . S
C216 C217 1.384 . S
C216 H238 0.930 . S
C217 C212 1.407 . S
C217 C216 1.384 . S
C217 H239 0.929 . S
C218 O228 1.241 . S
C218 O229 1.273 . S
C219 O230 1.251 . S
C219 O231 1.268 . S
O220 Nd200 2.500 . S
O220 C202 1.258 . S
O221 Nd200 2.492 . S
O221 C202 1.239 . S
O222 Nd200 2.487 . S
O222 C209 1.241 . S
O223 Nd200 2.682 . S
O223 Nd201 2.414 . S
O223 C209 1.273 . S
O224 Nd200 2.410 . S
O224 C210 1.251 . S
O225 Nd201 2.424 . S
O225 C210 1.268 . S
O226 Nd201 2.500 . S
O226 C211 1.258 . S
O227 Nd201 2.492 . S
O227 C211 1.239 . S
O228 Nd201 2.487 . S
O228 C218 1.241 . S
O229 Nd200 2.414 . S
O229 Nd201 2.682 . S
O229 C218 1.273 . S
O230 Nd201 2.410 . S
O230 C219 1.251 . S
O231 Nd200 2.424 . S
O231 C219 1.268 . S
H232 C204 0.930 . S
H233 C205 0.929 . S
H234 C207 0.930 . S
H235 C208 0.929 . S
H236 C213 0.930 . S
H237 C214 0.929 . S
H238 C216 0.930 . S
H239 C217 0.929 . S
C240 C241 1.386 . S
C240 C242 1.383 . S
C240 H256 0.951 . S
C241 C240 1.386 . S
C241 C245 1.383 . S
C242 C240 1.383 . S
C242 C243 1.402 . S
C242 H257 0.951 . S
C243 C242 1.402 . S
C243 C244 1.375 . S
C243 C246 1.481 . S
C244 C243 1.375 . S
C244 C245 1.367 . S
C244 H258 0.951 . S
C245 C241 1.383 . S
C245 C244 1.367 . S
C245 H259 0.950 . S
C246 C243 1.481 . S
C246 C247 1.297 . S
C246 H260 0.950 . S
C247 C246 1.297 . S
C247 C248 1.479 . S
C247 H261 0.950 . S
C248 C247 1.479 . S
C248 C249 1.375 . S
C248 C254 1.404 . S
C249 C248 1.375 . S
C249 C250 1.369 . S
C249 H262 0.950 . S
C250 C249 1.369 . S
C250 C251 1.392 . S
C250 H263 0.951 . S
C251 C250 1.392 . S
C251 C253 1.384 . S
H252 C254 0.949 . S
C253 C251 1.384 . S
C253 C254 1.385 . S
C253 H255 0.950 . S
C254 C248 1.404 . S
C254 H252 0.949 . S
C254 C253 1.385 . S
H255 C253 0.950 . S
H256 C240 0.951 . S
H257 C242 0.951 . S
H258 C244 0.951 . S
H259 C245 0.950 . S
H260 C246 0.950 . S
H261 C247 0.950 . S
H262 C249 0.950 . S
H263 C250 0.951 . S
C264 C265 1.386 . S
C264 C266 1.383 . S
C264 H280 0.951 . S
C265 C264 1.386 . S
C265 C269 1.383 . S
C266 C264 1.383 . S
C266 C267 1.402 . S
C266 H281 0.951 . S
C267 C266 1.402 . S
C267 C268 1.375 . S
C267 C270 1.481 . S
C268 C267 1.375 . S
C268 C269 1.367 . S
C268 H282 0.951 . S
C269 C265 1.383 . S
C269 C268 1.367 . S
C269 H283 0.950 . S
C270 C267 1.481 . S
C270 C271 1.297 . S
C270 H284 0.950 . S
C271 C270 1.297 . S
C271 C272 1.479 . S
C271 H285 0.950 . S
C272 C271 1.479 . S
C272 C273 1.375 . S
C272 C278 1.404 . S
C273 C272 1.375 . S
C273 C274 1.369 . S
C273 H286 0.950 . S
C274 C273 1.369 . S
C274 C275 1.392 . S
C274 H287 0.951 . S
C275 C274 1.392 . S
C275 C277 1.384 . S
H276 C278 0.949 . S
C277 C275 1.384 . S
C277 C278 1.385 . S
C277 H279 0.950 . S
C278 C272 1.404 . S
C278 H276 0.949 . S
C278 C277 1.385 . S
H279 C277 0.950 . S
H280 C264 0.951 . S
H281 C266 0.951 . S
H282 C268 0.951 . S
H283 C269 0.950 . S
H284 C270 0.950 . S
H285 C271 0.950 . S
H286 C273 0.950 . S
H287 C274 0.951 . S
C288 C289 1.386 . S
C288 C290 1.383 . S
C288 H304 0.951 . S
C289 C288 1.386 . S
C289 C293 1.383 . S
C290 C288 1.383 . S
C290 C291 1.402 . S
C290 H305 0.951 . S
C291 C290 1.402 . S
C291 C292 1.375 . S
C291 C294 1.481 . S
C292 C291 1.375 . S
C292 C293 1.367 . S
C292 H306 0.951 . S
C293 C289 1.383 . S
C293 C292 1.367 . S
C293 H307 0.950 . S
C294 C291 1.481 . S
C294 C295 1.297 . S
C294 H308 0.950 . S
C295 C294 1.297 . S
C295 C296 1.479 . S
C295 H309 0.950 . S
C296 C295 1.479 . S
C296 C297 1.375 . S
C296 C302 1.404 . S
C297 C296 1.375 . S
C297 C298 1.369 . S
C297 H310 0.950 . S
C298 C297 1.369 . S
C298 C299 1.392 . S
C298 H311 0.951 . S
C299 C298 1.392 . S
C299 C301 1.384 . S
H300 C302 0.949 . S
C301 C299 1.384 . S
C301 C302 1.385 . S
C301 H303 0.950 . S
C302 C296 1.404 . S
C302 H300 0.949 . S
C302 C301 1.385 . S
H303 C301 0.950 . S
H304 C288 0.951 . S
H305 C290 0.951 . S
H306 C292 0.951 . S
H307 C293 0.950 . S
H308 C294 0.950 . S
H309 C295 0.950 . S
H310 C297 0.950 . S
H311 C298 0.951 . S
C312 C313 1.386 . S
C312 C314 1.383 . S
C312 H328 0.951 . S
C313 C312 1.386 . S
C313 C317 1.383 . S
C314 C312 1.383 . S
C314 C315 1.402 . S
C314 H329 0.951 . S
C315 C314 1.402 . S
C315 C316 1.375 . S
C315 C318 1.481 . S
C316 C315 1.375 . S
C316 C317 1.367 . S
C316 H330 0.951 . S
C317 C313 1.383 . S
C317 C316 1.367 . S
C317 H331 0.950 . S
C318 C315 1.481 . S
C318 C319 1.297 . S
C318 H332 0.950 . S
C319 C318 1.297 . S
C319 C320 1.479 . S
C319 H333 0.950 . S
C320 C319 1.479 . S
C320 C321 1.375 . S
C320 C326 1.404 . S
C321 C320 1.375 . S
C321 C322 1.369 . S
C321 H334 0.950 . S
C322 C321 1.369 . S
C322 C323 1.392 . S
C322 H335 0.951 . S
C323 C322 1.392 . S
C323 C325 1.384 . S
H324 C326 0.949 . S
C325 C323 1.384 . S
C325 C326 1.385 . S
C325 H327 0.950 . S
C326 C320 1.404 . S
C326 H324 0.949 . S
C326 C325 1.385 . S
H327 C325 0.950 . S
H328 C312 0.951 . S
H329 C314 0.951 . S
H330 C316 0.951 . S
H331 C317 0.950 . S
H332 C318 0.950 . S
H333 C319 0.950 . S
H334 C321 0.950 . S
H335 C322 0.951 . S
C336 C337 1.386 . S
C336 C338 1.383 . S
C336 H352 0.951 . S
C337 C336 1.386 . S
C337 C341 1.383 . S
C338 C336 1.383 . S
C338 C339 1.402 . S
C338 H353 0.951 . S
C339 C338 1.402 . S
C339 C340 1.375 . S
C339 C342 1.481 . S
C340 C339 1.375 . S
C340 C341 1.367 . S
C340 H354 0.951 . S
C341 C337 1.383 . S
C341 C340 1.367 . S
C341 H355 0.950 . S
C342 C339 1.481 . S
C342 C343 1.297 . S
C342 H356 0.950 . S
C343 C342 1.297 . S
C343 C344 1.479 . S
C343 H357 0.950 . S
C344 C343 1.479 . S
C344 C345 1.375 . S
C344 C350 1.404 . S
C345 C344 1.375 . S
C345 C346 1.369 . S
C345 H358 0.950 . S
C346 C345 1.369 . S
C346 C347 1.392 . S
C346 H359 0.951 . S
C347 C346 1.392 . S
C347 C349 1.384 . S
H348 C350 0.949 . S
C349 C347 1.384 . S
C349 C350 1.385 . S
C349 H351 0.950 . S
C350 C344 1.404 . S
C350 H348 0.949 . S
C350 C349 1.385 . S
H351 C349 0.950 . S
H352 C336 0.951 . S
H353 C338 0.951 . S
H354 C340 0.951 . S
H355 C341 0.950 . S
H356 C342 0.950 . S
H357 C343 0.950 . S
H358 C345 0.950 . S
H359 C346 0.951 . S
C360 C361 1.386 . S
C360 C362 1.383 . S
C360 H376 0.951 . S
C361 C360 1.386 . S
C361 C365 1.383 . S
C362 C360 1.383 . S
C362 C363 1.402 . S
C362 H377 0.951 . S
C363 C362 1.402 . S
C363 C364 1.375 . S
C363 C366 1.481 . S
C364 C363 1.375 . S
C364 C365 1.367 . S
C364 H378 0.951 . S
C365 C361 1.383 . S
C365 C364 1.367 . S
C365 H379 0.950 . S
C366 C363 1.481 . S
C366 C367 1.297 . S
C366 H380 0.950 . S
C367 C366 1.297 . S
C367 C368 1.479 . S
C367 H381 0.950 . S
C368 C367 1.479 . S
C368 C369 1.375 . S
C368 C374 1.404 . S
C369 C368 1.375 . S
C369 C370 1.369 . S
C369 H382 0.950 . S
C370 C369 1.369 . S
C370 C371 1.392 . S
C370 H383 0.951 . S
C371 C370 1.392 . S
C371 C373 1.384 . S
H372 C374 0.949 . S
C373 C371 1.384 . S
C373 C374 1.385 . S
C373 H375 0.950 . S
C374 C368 1.404 . S
C374 H372 0.949 . S
C374 C373 1.385 . S
H375 C373 0.950 . S
H376 C360 0.951 . S
H377 C362 0.951 . S
H378 C364 0.951 . S
H379 C365 0.950 . S
H380 C366 0.950 . S
H381 C367 0.950 . S
H382 C369 0.950 . S
H383 C370 0.951 . S
C384 C385 1.386 . S
C384 C386 1.383 . S
C384 H400 0.951 . S
C385 C384 1.386 . S
C385 C389 1.383 . S
C386 C384 1.383 . S
C386 C387 1.402 . S
C386 H401 0.951 . S
C387 C386 1.402 . S
C387 C388 1.375 . S
C387 C390 1.481 . S
C388 C387 1.375 . S
C388 C389 1.367 . S
C388 H402 0.951 . S
C389 C385 1.383 . S
C389 C388 1.367 . S
C389 H403 0.950 . S
C390 C387 1.481 . S
C390 C391 1.297 . S
C390 H404 0.950 . S
C391 C390 1.297 . S
C391 C392 1.479 . S
C391 H405 0.950 . S
C392 C391 1.479 . S
C392 C393 1.375 . S
C392 C398 1.404 . S
C393 C392 1.375 . S
C393 C394 1.369 . S
C393 H406 0.950 . S
C394 C393 1.369 . S
C394 C395 1.392 . S
C394 H407 0.951 . S
C395 C394 1.392 . S
C395 C397 1.384 . S
H396 C398 0.949 . S
C397 C395 1.384 . S
C397 C398 1.385 . S
C397 H399 0.950 . S
C398 C392 1.404 . S
C398 H396 0.949 . S
C398 C397 1.385 . S
H399 C397 0.950 . S
H400 C384 0.951 . S
H401 C386 0.951 . S
H402 C388 0.951 . S
H403 C389 0.950 . S
H404 C390 0.950 . S
H405 C391 0.950 . S
H406 C393 0.950 . S
H407 C394 0.951 . S
C408 C409 1.386 . S
C408 C410 1.383 . S
C408 H424 0.951 . S
C409 C408 1.386 . S
C409 C413 1.383 . S
C410 C408 1.383 . S
C410 C411 1.402 . S
C410 H425 0.951 . S
C411 C410 1.402 . S
C411 C412 1.375 . S
C411 C414 1.481 1_455 S
C412 C411 1.375 . S
C412 C413 1.367 . S
C412 H426 0.951 1_455 S
C413 C409 1.383 . S
C413 C412 1.367 . S
C413 H427 0.950 . S
C414 C411 1.481 1_655 S
C414 C415 1.297 1_655 S
C414 H428 0.950 . S
C415 C414 1.297 1_455 S
C415 C416 1.479 1_455 S
C415 H429 0.950 . S
C416 C415 1.479 1_655 S
C416 C417 1.375 . S
C416 C422 1.404 . S
C417 C416 1.375 . S
C417 C418 1.369 . S
C417 H430 0.950 1_655 S
C418 C417 1.369 . S
C418 C419 1.392 . S
C418 H431 0.951 . S
C419 C418 1.392 . S
C419 C421 1.384 . S
H420 C422 0.949 . S
C421 C419 1.384 . S
C421 C422 1.385 . S
C421 H423 0.950 . S
C422 C416 1.404 . S
C422 H420 0.949 . S
C422 C421 1.385 . S
H423 C421 0.950 . S
H424 C408 0.951 . S
H425 C410 0.951 . S
H426 C412 0.951 1_655 S
H427 C413 0.950 . S
H428 C414 0.950 . S
H429 C415 0.950 . S
H430 C417 0.950 1_455 S
H431 C418 0.951 . S
C432 C433 1.386 . S
C432 C434 1.383 . S
C432 H448 0.951 . S
C433 C432 1.386 . S
C433 C437 1.383 . S
C434 C432 1.383 . S
C434 C435 1.402 . S
C434 H449 0.951 . S
C435 C434 1.402 . S
C435 C436 1.375 . S
C435 C438 1.481 1_545 S
C436 C435 1.375 . S
C436 C437 1.367 . S
C436 H450 0.951 . S
C437 C433 1.383 . S
C437 C436 1.367 . S
C437 H451 0.950 . S
C438 C435 1.481 1_565 S
C438 C439 1.297 . S
C438 H452 0.950 . S
C439 C438 1.297 . S
C439 C440 1.479 . S
C439 H453 0.950 . S
C440 C439 1.479 . S
C440 C441 1.375 . S
C440 C446 1.404 . S
C441 C440 1.375 . S
C441 C442 1.369 . S
C441 H454 0.950 . S
C442 C441 1.369 . S
C442 C443 1.392 . S
C442 H455 0.951 . S
C443 C442 1.392 . S
C443 C445 1.384 . S
H444 C446 0.949 . S
C445 C443 1.384 . S
C445 C446 1.385 . S
C445 H447 0.950 . S
C446 C440 1.404 . S
C446 H444 0.949 . S
C446 C445 1.385 . S
H447 C445 0.950 . S
H448 C432 0.951 . S
H449 C434 0.951 . S
H450 C436 0.951 . S
H451 C437 0.950 . S
H452 C438 0.950 . S
H453 C439 0.950 . S
H454 C441 0.950 . S
H455 C442 0.951 . S
C456 C457 1.386 . S
C456 C458 1.383 . S
C456 H472 0.951 . S
C457 C456 1.386 . S
C457 C461 1.383 . S
C458 C456 1.383 . S
C458 C459 1.402 . S
C458 H473 0.951 . S
C459 C458 1.402 . S
C459 C460 1.375 . S
C459 C462 1.481 . S
C460 C459 1.375 . S
C460 C461 1.367 . S
C460 H474 0.951 . S
C461 C457 1.383 . S
C461 C460 1.367 . S
C461 H475 0.950 . S
C462 C459 1.481 . S
C462 C463 1.297 . S
C462 H476 0.950 . S
C463 C462 1.297 . S
C463 C464 1.479 . S
C463 H477 0.950 . S
C464 C463 1.479 . S
C464 C465 1.375 . S
C464 C470 1.404 . S
C465 C464 1.375 . S
C465 C466 1.369 . S
C465 H478 0.950 . S
C466 C465 1.369 . S
C466 C467 1.392 . S
C466 H479 0.951 . S
C467 C466 1.392 . S
C467 C469 1.384 . S
H468 C470 0.949 . S
C469 C467 1.384 . S
C469 C470 1.385 . S
C469 H471 0.950 . S
C470 C464 1.404 . S
C470 H468 0.949 . S
C470 C469 1.385 . S
H471 C469 0.950 . S
H472 C456 0.951 . S
H473 C458 0.951 . S
H474 C460 0.951 . S
H475 C461 0.950 . S
H476 C462 0.950 . S
H477 C463 0.950 . S
H478 C465 0.950 . S
H479 C466 0.951 . S
C480 C481 1.386 . S
C480 C482 1.383 . S
C480 H496 0.951 . S
C481 C480 1.386 . S
C481 C485 1.383 1_554 S
C482 C480 1.383 . S
C482 C483 1.402 . S
C482 H497 0.951 . S
C483 C482 1.402 . S
C483 C484 1.375 1_554 S
C483 C486 1.481 . S
C484 C483 1.375 1_556 S
C484 C485 1.367 . S
C484 H498 0.951 . S
C485 C481 1.383 1_556 S
C485 C484 1.367 . S
C485 H499 0.950 . S
C486 C483 1.481 . S
C486 C487 1.297 . S
C486 H500 0.950 1_554 S
C487 C486 1.297 . S
C487 C488 1.479 1_455 S
C487 H501 0.950 . S
C488 C487 1.479 1_655 S
C488 C489 1.375 . S
C488 C494 1.404 . S
C489 C488 1.375 . S
C489 C490 1.369 . S
C489 H502 0.950 . S
C490 C489 1.369 . S
C490 C491 1.392 . S
C490 H503 0.951 . S
C491 C490 1.392 . S
C491 C493 1.384 . S
H492 C494 0.949 1_556 S
C493 C491 1.384 . S
C493 C494 1.385 . S
C493 H495 0.950 1_554 S
C494 C488 1.404 . S
C494 H492 0.949 1_554 S
C494 C493 1.385 . S
H495 C493 0.950 1_556 S
H496 C480 0.951 . S
H497 C482 0.951 . S
H498 C484 0.951 . S
H499 C485 0.950 . S
H500 C486 0.950 1_556 S
H501 C487 0.950 . S
H502 C489 0.950 . S
H503 C490 0.951 . S
C504 C505 1.386 . S
C504 C506 1.383 . S
C504 H520 0.951 . S
C505 C504 1.386 . S
C505 C509 1.383 . S
C506 C504 1.383 . S
C506 C507 1.402 . S
C506 H521 0.951 . S
C507 C506 1.402 . S
C507 C508 1.375 . S
C507 C510 1.481 1_565 S
C508 C507 1.375 . S
C508 C509 1.367 . S
C508 H522 0.951 . S
C509 C505 1.383 . S
C509 C508 1.367 . S
C509 H523 0.950 . S
C510 C507 1.481 1_545 S
C510 C511 1.297 . S
C510 H524 0.950 . S
C511 C510 1.297 . S
C511 C512 1.479 . S
C511 H525 0.950 . S
C512 C511 1.479 . S
C512 C513 1.375 . S
C512 C518 1.404 . S
C513 C512 1.375 . S
C513 C514 1.369 . S
C513 H526 0.950 . S
C514 C513 1.369 . S
C514 C515 1.392 . S
C514 H527 0.951 . S
C515 C514 1.392 . S
C515 C517 1.384 . S
H516 C518 0.949 . S
C517 C515 1.384 . S
C517 C518 1.385 . S
C517 H519 0.950 . S
C518 C512 1.404 . S
C518 H516 0.949 . S
C518 C517 1.385 . S
H519 C517 0.950 . S
H520 C504 0.951 . S
H521 C506 0.951 . S
H522 C508 0.951 . S
H523 C509 0.950 . S
H524 C510 0.950 . S
H525 C511 0.950 . S
H526 C513 0.950 . S
H527 C514 0.951 . S
C528 C529 1.386 . S
C528 C530 1.383 . S
C528 H544 0.951 . S
C529 C528 1.386 . S
C529 C533 1.383 . S
C530 C528 1.383 . S
C530 C531 1.402 . S
C530 H545 0.951 . S
C531 C530 1.402 . S
C531 C532 1.375 . S
C531 C534 1.481 . S
C532 C531 1.375 . S
C532 C533 1.367 . S
C532 H546 0.951 . S
C533 C529 1.383 . S
C533 C532 1.367 . S
C533 H547 0.950 . S
C534 C531 1.481 . S
C534 C535 1.297 . S
C534 H548 0.950 . S
C535 C534 1.297 . S
C535 C536 1.479 . S
C535 H549 0.950 . S
C536 C535 1.479 . S
C536 C537 1.375 . S
C536 C542 1.404 . S
C537 C536 1.375 . S
C537 C538 1.369 . S
C537 H550 0.950 . S
C538 C537 1.369 . S
C538 C539 1.392 . S
C538 H551 0.951 . S
C539 C538 1.392 . S
C539 C541 1.384 . S
H540 C542 0.949 . S
C541 C539 1.384 . S
C541 C542 1.385 . S
C541 H543 0.950 . S
C542 C536 1.404 . S
C542 H540 0.949 . S
C542 C541 1.385 . S
H543 C541 0.950 . S
H544 C528 0.951 . S
H545 C530 0.951 . S
H546 C532 0.951 . S
H547 C533 0.950 . S
H548 C534 0.950 . S
H549 C535 0.950 . S
H550 C537 0.950 . S
H551 C538 0.951 . S
C552 C553 1.386 . S
C552 C554 1.383 . S
C552 H568 0.951 . S
C553 C552 1.386 . S
C553 C557 1.383 . S
C554 C552 1.383 . S
C554 C555 1.402 . S
C554 H569 0.951 . S
C555 C554 1.402 . S
C555 C556 1.375 . S
C555 C558 1.481 . S
C556 C555 1.375 . S
C556 C557 1.367 . S
C556 H570 0.951 . S
C557 C553 1.383 . S
C557 C556 1.367 . S
C557 H571 0.950 . S
C558 C555 1.481 . S
C558 C559 1.297 . S
C558 H572 0.950 . S
C559 C558 1.297 . S
C559 C560 1.479 . S
C559 H573 0.950 . S
C560 C559 1.479 . S
C560 C561 1.375 . S
C560 C566 1.404 . S
C561 C560 1.375 . S
C561 C562 1.369 1_655 S
C561 H574 0.950 . S
C562 C561 1.369 1_455 S
C562 C563 1.392 . S
C562 H575 0.951 . S
C563 C562 1.392 . S
C563 C565 1.384 . S
H564 C566 0.949 . S
C565 C563 1.384 . S
C565 C566 1.385 1_455 S
C565 H567 0.950 . S
C566 C560 1.404 . S
C566 H564 0.949 . S
C566 C565 1.385 1_655 S
H567 C565 0.950 . S
H568 C552 0.951 . S
H569 C554 0.951 . S
H570 C556 0.951 . S
H571 C557 0.950 . S
H572 C558 0.950 . S
H573 C559 0.950 . S
H574 C561 0.950 . S
H575 C562 0.951 . S
C576 C577 1.386 . S
C576 C578 1.383 . S
C576 H592 0.951 . S
C577 C576 1.386 . S
C577 C581 1.383 . S
C578 C576 1.383 . S
C578 C579 1.402 . S
C578 H593 0.951 . S
C579 C578 1.402 . S
C579 C580 1.375 . S
C579 C582 1.481 . S
C580 C579 1.375 . S
C580 C581 1.367 . S
C580 H594 0.951 . S
C581 C577 1.383 . S
C581 C580 1.367 . S
C581 H595 0.950 . S
C582 C579 1.481 . S
C582 C583 1.297 . S
C582 H596 0.950 . S
C583 C582 1.297 . S
C583 C584 1.479 1_565 S
C583 H597 0.950 1_565 S
C584 C583 1.479 1_545 S
C584 C585 1.375 . S
C584 C590 1.404 1_545 S
C585 C584 1.375 . S
C585 C586 1.369 . S
C585 H598 0.950 . S
C586 C585 1.369 . S
C586 C587 1.392 . S
C586 H599 0.951 . S
C587 C586 1.392 . S
C587 C589 1.384 1_545 S
H588 C590 0.949 . S
C589 C587 1.384 1_565 S
C589 C590 1.385 . S
C589 H591 0.950 . S
C590 C584 1.404 1_565 S
C590 H588 0.949 . S
C590 C589 1.385 . S
H591 C589 0.950 . S
H592 C576 0.951 . S
H593 C578 0.951 . S
H594 C580 0.951 . S
H595 C581 0.950 . S
H596 C582 0.950 . S
H597 C583 0.950 1_545 S
H598 C585 0.950 . S
H599 C586 0.951 . S
C600 C601 1.386 . S
C600 C602 1.383 . S
C600 H616 0.951 . S
C601 C600 1.386 . S
C601 C605 1.383 . S
C602 C600 1.383 . S
C602 C603 1.402 . S
C602 H617 0.951 . S
C603 C602 1.402 . S
C603 C604 1.375 . S
C603 C606 1.481 . S
C604 C603 1.375 . S
C604 C605 1.367 . S
C604 H618 0.951 . S
C605 C601 1.383 . S
C605 C604 1.367 . S
C605 H619 0.950 . S
C606 C603 1.481 . S
C606 C607 1.297 . S
C606 H620 0.950 . S
C607 C606 1.297 . S
C607 C608 1.479 . S
C607 H621 0.950 . S
C608 C607 1.479 . S
C608 C609 1.375 . S
C608 C614 1.404 . S
C609 C608 1.375 . S
C609 C610 1.369 . S
C609 H622 0.950 . S
C610 C609 1.369 . S
C610 C611 1.392 . S
C610 H623 0.951 . S
C611 C610 1.392 . S
C611 C613 1.384 . S
H612 C614 0.949 . S
C613 C611 1.384 . S
C613 C614 1.385 . S
C613 H615 0.950 . S
C614 C608 1.404 . S
C614 H612 0.949 . S
C614 C613 1.385 . S
H615 C613 0.950 . S
H616 C600 0.951 . S
H617 C602 0.951 . S
H618 C604 0.951 . S
H619 C605 0.950 . S
H620 C606 0.950 . S
H621 C607 0.950 . S
H622 C609 0.950 . S
H623 C610 0.951 . S
C624 C625 1.386 . S
C624 C626 1.383 . S
C624 H640 0.951 . S
C625 C624 1.386 . S
C625 C629 1.383 . S
C626 C624 1.383 . S
C626 C627 1.402 . S
C626 H641 0.951 . S
C627 C626 1.402 . S
C627 C628 1.375 . S
C627 C630 1.481 . S
C628 C627 1.375 . S
C628 C629 1.367 . S
C628 H642 0.951 . S
C629 C625 1.383 . S
C629 C628 1.367 . S
C629 H643 0.950 . S
C630 C627 1.481 . S
C630 C631 1.297 . S
C630 H644 0.950 . S
C631 C630 1.297 . S
C631 C632 1.479 . S
C631 H645 0.950 . S
C632 C631 1.479 . S
C632 C633 1.375 . S
C632 C638 1.404 1_455 S
C633 C632 1.375 . S
C633 C634 1.369 . S
C633 H646 0.950 . S
C634 C633 1.369 . S
C634 C635 1.392 1_455 S
C634 H647 0.951 . S
C635 C634 1.392 1_655 S
C635 C637 1.384 . S
H636 C638 0.949 . S
C637 C635 1.384 . S
C637 C638 1.385 . S
C637 H639 0.950 . S
C638 C632 1.404 1_655 S
C638 H636 0.949 . S
C638 C637 1.385 . S
H639 C637 0.950 . S
H640 C624 0.951 . S
H641 C626 0.951 . S
H642 C628 0.951 . S
H643 C629 0.950 . S
H644 C630 0.950 . S
H645 C631 0.950 . S
H646 C633 0.950 . S
H647 C634 0.951 . S
C648 C649 1.386 . S
C648 C650 1.383 . S
C648 H664 0.951 . S
C649 C648 1.386 . S
C649 C653 1.383 . S
C650 C648 1.383 . S
C650 C651 1.402 . S
C650 H665 0.951 . S
C651 C650 1.402 . S
C651 C652 1.375 . S
C651 C654 1.481 . S
C652 C651 1.375 . S
C652 C653 1.367 . S
C652 H666 0.951 . S
C653 C649 1.383 . S
C653 C652 1.367 . S
C653 H667 0.950 . S
C654 C651 1.481 . S
C654 C655 1.297 . S
C654 H668 0.950 . S
C655 C654 1.297 . S
C655 C656 1.479 1_545 S
C655 H669 0.950 . S
C656 C655 1.479 1_565 S
C656 C657 1.375 . S
C656 C662 1.404 . S
C657 C656 1.375 . S
C657 C658 1.369 . S
C657 H670 0.950 . S
C658 C657 1.369 . S
C658 C659 1.392 . S
C658 H671 0.951 . S
C659 C658 1.392 . S
C659 C661 1.384 . S
H660 C662 0.949 . S
C661 C659 1.384 . S
C661 C662 1.385 . S
C661 H663 0.950 . S
C662 C656 1.404 . S
C662 H660 0.949 . S
C662 C661 1.385 . S
H663 C661 0.950 . S
H664 C648 0.951 . S
H665 C650 0.951 . S
H666 C652 0.951 . S
H667 C653 0.950 . S
H668 C654 0.950 . S
H669 C655 0.950 . S
H670 C657 0.950 . S
H671 C658 0.951 . S
C241 C175 1.176 . S
C251 C10 1.147 . S
C265 C215 1.179 . S
C275 C50 1.161 . S
C289 C15 1.181 . S
C299 C90 1.193 . S
C313 C55 1.176 . S
C323 C130 1.142 . S
C337 C95 1.180 . S
C347 C170 1.190 . S
C361 C135 1.180 . S
C371 C210 1.187 . S
C385 C9 0.826 . S
C395 C129 0.820 . S
C409 C169 0.828 . S
C419 C49 0.816 . S
C433 C209 0.849 . S
C443 C89 0.819 . S
C457 C98 0.885 . S
C467 C218 0.675 . S
C481 C18 0.758 . S
C491 C138 0.946 . S
C505 C178 0.869 . S
C515 C58 0.678 . S
C529 C206 1.289 . S
C539 C19 1.306 . S
C553 C59 1.316 . S
C563 C6 1.274 . S
C577 C99 1.307 . S
C587 C46 1.323 . S
C601 C86 1.316 . S
C611 C139 1.297 . S
C625 C179 1.319 . S
C635 C126 1.251 . S
C649 C219 1.311 . S
C659 C166 1.295 . S
