# Generated by pormake.
# Topology atn, (4)-cn, num edge types: 1
# Building blocks:
#     Node 0, Type 0, BuildingBlock: TATPOV_clean_sbu_0, # of connection points: 4
#     Node 1, Type 0, BuildingBlock: TATPOV_clean_sbu_0, # of connection points: 4
#     Node 2, Type 0, BuildingBlock: TATPOV_clean_sbu_0, # of connection points: 4
#     Node 3, Type 0, BuildingBlock: TATPOV_clean_sbu_0, # of connection points: 4
#     Node 4, Type 0, BuildingBlock: TATPOV_clean_sbu_0, # of connection points: 4
#     Node 5, Type 0, BuildingBlock: TATPOV_clean_sbu_0, # of connection points: 4
#     Node 6, Type 0, BuildingBlock: TATPOV_clean_sbu_0, # of connection points: 4
#     Node 7, Type 0, BuildingBlock: TATPOV_clean_sbu_0, # of connection points: 4
#     Node 8, Type 0, BuildingBlock: TATPOV_clean_sbu_0, # of connection points: 4
#     Node 9, Type 0, BuildingBlock: TATPOV_clean_sbu_0, # of connection points: 4
#     Node 10, Type 0, BuildingBlock: TATPOV_clean_sbu_0, # of connection points: 4
#     Node 11, Type 0, BuildingBlock: TATPOV_clean_sbu_0, # of connection points: 4
#     Node 12, Type 0, BuildingBlock: TATPOV_clean_sbu_0, # of connection points: 4
#     Node 13, Type 0, BuildingBlock: TATPOV_clean_sbu_0, # of connection points: 4
#     Node 14, Type 0, BuildingBlock: TATPOV_clean_sbu_0, # of connection points: 4
#     Node 15, Type 0, BuildingBlock: TATPOV_clean_sbu_0, # of connection points: 4
#     Edge 16, Type (0, 0), BuildingBlock: KIFKEQ_clean_linker_1, # of connection points: 2
#     Edge 17, Type (0, 0), BuildingBlock: KIFKEQ_clean_linker_1, # of connection points: 2
#     Edge 18, Type (0, 0), BuildingBlock: KIFKEQ_clean_linker_1, # of connection points: 2
#     Edge 19, Type (0, 0), BuildingBlock: KIFKEQ_clean_linker_1, # of connection points: 2
#     Edge 20, Type (0, 0), BuildingBlock: KIFKEQ_clean_linker_1, # of connection points: 2
#     Edge 21, Type (0, 0), BuildingBlock: KIFKEQ_clean_linker_1, # of connection points: 2
#     Edge 22, Type (0, 0), BuildingBlock: KIFKEQ_clean_linker_1, # of connection points: 2
#     Edge 23, Type (0, 0), BuildingBlock: KIFKEQ_clean_linker_1, # of connection points: 2
#     Edge 24, Type (0, 0), BuildingBlock: KIFKEQ_clean_linker_1, # of connection points: 2
#     Edge 25, Type (0, 0), BuildingBlock: KIFKEQ_clean_linker_1, # of connection points: 2
#     Edge 26, Type (0, 0), BuildingBlock: KIFKEQ_clean_linker_1, # of connection points: 2
#     Edge 27, Type (0, 0), BuildingBlock: KIFKEQ_clean_linker_1, # of connection points: 2
#     Edge 28, Type (0, 0), BuildingBlock: KIFKEQ_clean_linker_1, # of connection points: 2
#     Edge 29, Type (0, 0), BuildingBlock: KIFKEQ_clean_linker_1, # of connection points: 2
#     Edge 30, Type (0, 0), BuildingBlock: KIFKEQ_clean_linker_1, # of connection points: 2
#     Edge 31, Type (0, 0), BuildingBlock: KIFKEQ_clean_linker_1, # of connection points: 2
#     Edge 32, Type (0, 0), BuildingBlock: KIFKEQ_clean_linker_1, # of connection points: 2
#     Edge 33, Type (0, 0), BuildingBlock: KIFKEQ_clean_linker_1, # of connection points: 2
#     Edge 34, Type (0, 0), BuildingBlock: KIFKEQ_clean_linker_1, # of connection points: 2
#     Edge 35, Type (0, 0), BuildingBlock: KIFKEQ_clean_linker_1, # of connection points: 2
#     Edge 36, Type (0, 0), BuildingBlock: KIFKEQ_clean_linker_1, # of connection points: 2
#     Edge 37, Type (0, 0), BuildingBlock: KIFKEQ_clean_linker_1, # of connection points: 2
#     Edge 38, Type (0, 0), BuildingBlock: KIFKEQ_clean_linker_1, # of connection points: 2
#     Edge 39, Type (0, 0), BuildingBlock: KIFKEQ_clean_linker_1, # of connection points: 2
#     Edge 40, Type (0, 0), BuildingBlock: KIFKEQ_clean_linker_1, # of connection points: 2
#     Edge 41, Type (0, 0), BuildingBlock: KIFKEQ_clean_linker_1, # of connection points: 2
#     Edge 42, Type (0, 0), BuildingBlock: KIFKEQ_clean_linker_1, # of connection points: 2
#     Edge 43, Type (0, 0), BuildingBlock: KIFKEQ_clean_linker_1, # of connection points: 2
#     Edge 44, Type (0, 0), BuildingBlock: KIFKEQ_clean_linker_1, # of connection points: 2
#     Edge 45, Type (0, 0), BuildingBlock: KIFKEQ_clean_linker_1, # of connection points: 2
#     Edge 46, Type (0, 0), BuildingBlock: KIFKEQ_clean_linker_1, # of connection points: 2
#     Edge 47, Type (0, 0), BuildingBlock: KIFKEQ_clean_linker_1, # of connection points: 2
# Relax obj value: 0.075
# Max RMSD: 0.103
# Mean RMSD: 0.103
data_MOF--net-atn--node1-TATPOV_clean_sbu_0--edge1-KIFKEQ_clean_linker_1
_symmetry_space_group_name_H-M    P1
_symmetry_Int_Tables_number       1
_symmetry_cell_setting            triclinic
loop_
_symmetry_equiv_pos_as_xyz
'x, y, z'
_cell_length_a     61.810795
_cell_length_b     61.817742
_cell_length_c     27.331079
_cell_angle_alpha  89.638811
_cell_angle_beta   90.231669
_cell_angle_gamma 90.04043
loop_
_atom_site_label
_atom_site_type_symbol
_atom_site_fract_x
_atom_site_fract_y
_atom_site_fract_z
_atom_type_partial_charge
Zn0 Zn 0.19461 0.33801 0.9158 0.0
Zn1 Zn 0.20516 0.37922 0.93166 0.0
O2 O 0.19014 0.37981 0.86381 0.0
O3 O 0.17758 0.34657 0.85671 0.0
O4 O 0.21191 0.41071 0.94429 0.0
O5 O 0.17886 0.33652 0.97959 0.0
O6 O 0.18503 0.37133 -0.01108 0.0
C7 C 0.17899 0.36576 0.8409 0.0
C8 C 0.24056 0.34468 0.92455 0.0
O9 O 0.23485 0.36388 0.9354 0.0
O10 O 0.22651 0.33087 0.91185 0.0
C11 C 0.21887 0.42327 0.91083 0.0
O12 O 0.22237 0.41544 0.86699 0.0
C13 C 0.17628 0.35377 0.00354 0.0
Zn14 Zn 0.66664 0.17892 0.96229 0.0
Zn15 Zn 0.6298 0.20063 0.97279 0.0
O16 O 0.62431 0.17937 0.91612 0.0
O17 O 0.65329 0.15873 0.91416 0.0
O18 O 0.60017 0.21399 0.98172 0.0
O19 O 0.66697 0.17004 0.0322 0.0
O20 O 0.63547 0.18622 0.03995 0.0
C21 C 0.63449 0.16322 0.89891 0.0
C22 C 0.67064 0.22513 0.94359 0.0
O23 O 0.65082 0.22581 0.95649 0.0
O24 O 0.68035 0.20711 0.94141 0.0
C25 C 0.58817 0.21853 0.94513 0.0
O26 O 0.59594 0.2161 0.90082 0.0
C27 C 0.65082 0.17492 0.05809 0.0
Zn28 Zn 0.81354 0.66509 0.92868 0.0
Zn29 Zn 0.80209 0.62424 0.9402 0.0
O30 O 0.81831 0.62494 0.87368 0.0
O31 O 0.83066 0.65832 0.86983 0.0
O32 O 0.79435 0.59262 0.94916 0.0
O33 O 0.82904 0.66492 -0.00725 0.0
O34 O 0.82168 0.6302 -0.00019 0.0
C35 C 0.82958 0.63948 0.85238 0.0
C36 C 0.76766 0.66 0.93342 0.0
O37 O 0.77265 0.6404 0.94302 0.0
O38 O 0.78225 0.67365 0.9232 0.0
C39 C 0.78883 0.58079 0.91328 0.0
O40 O 0.78744 0.5895 0.8694 0.0
C41 C 0.83092 0.64721 0.0158 0.0
Zn42 Zn 0.34096 0.81054 0.98038 0.0
Zn43 Zn 0.38266 0.80231 -0.00806 0.0
O44 O 0.38144 0.82134 0.92903 0.0
O45 O 0.34708 0.83057 0.92523 0.0
O46 O 0.41462 0.79726 0.00228 0.0
O47 O 0.33915 0.8232 0.04736 0.0
O48 O 0.37431 0.81846 0.0546 0.0
C49 C 0.36614 0.83209 0.90898 0.0
C50 C 0.35039 0.76523 0.97617 0.0
O51 O 0.36939 0.77151 -0.01235 0.0
O52 O 0.33551 0.77891 0.96848 0.0
C53 C 0.42723 0.7913 0.96828 0.0
O54 O 0.41921 0.78772 0.92448 0.0
C55 C 0.35648 0.82547 0.07157 0.0
Zn56 Zn 0.19877 0.66749 0.00472 0.0
Zn57 Zn 0.2068 0.62568 -0.00254 0.0
O58 O 0.1864 0.62831 0.05744 0.0
O59 O 0.17764 0.6628 0.05803 0.0
O60 O 0.21114 0.59339 -0.00717 0.0
O61 O 0.18747 0.66832 0.93615 0.0
O62 O 0.19238 0.63312 0.93158 0.0
C63 C 0.17553 0.64392 0.07532 0.0
C64 C 0.24388 0.65773 0.01494 0.0
O65 O 0.23768 0.63863 0.00432 0.0
O66 O 0.23019 0.67277 0.01979 0.0
C67 C 0.22455 0.58477 0.96368 0.0
O68 O 0.23675 0.59729 0.93623 0.0
C69 C 0.18581 0.65083 0.91264 0.0
Zn70 Zn 0.34477 0.1981 0.03417 0.0
Zn71 Zn 0.38594 0.20866 0.0245 0.0
O72 O 0.38387 0.19508 0.09396 0.0
O73 O 0.35029 0.18329 0.09728 0.0
O74 O 0.41796 0.21495 0.01916 0.0
O75 O 0.34582 0.18021 0.97374 0.0
O76 O 0.38068 0.18706 0.9685 0.0
C77 C 0.36889 0.18485 0.11624 0.0
C78 C 0.35081 0.24366 0.02023 0.0
O79 O 0.3705 0.23821 0.01378 0.0
O80 O 0.33682 0.2296 0.03187 0.0
C81 C 0.42646 0.22634 -0.01456 0.0
O82 O 0.41392 0.23536 0.95217 0.0
C83 C 0.36381 0.17738 0.95288 0.0
Zn84 Zn 0.82732 0.34058 0.95417 0.0
Zn85 Zn 0.809 0.37852 0.96836 0.0
O86 O 0.82365 0.37139 0.03447 0.0
O87 O 0.83576 0.33823 0.02455 0.0
O88 O 0.79847 0.40919 0.97686 0.0
O89 O 0.84892 0.3528 0.90749 0.0
O90 O 0.82952 0.3826 0.90953 0.0
C91 C 0.8331 0.35458 0.05144 0.0
C92 C 0.78098 0.34069 0.93707 0.0
O93 O 0.78194 0.35976 0.95449 0.0
O94 O 0.79813 0.32989 0.93049 0.0
C95 C 0.7871 0.41839 0.94393 0.0
O96 O 0.78063 0.40706 0.90607 0.0
C97 C 0.84513 0.37171 0.89194 0.0
Zn98 Zn 0.67416 0.8157 0.02504 0.0
Zn99 Zn 0.63248 0.80702 0.01162 0.0
O100 O 0.6331 0.8211 0.08014 0.0
O101 O 0.66713 0.83139 0.08613 0.0
O102 O 0.60072 0.80158 -0.00073 0.0
O103 O 0.67527 0.83299 0.96291 0.0
O104 O 0.64011 0.8282 0.956 0.0
C105 C 0.64813 0.83095 0.10307 0.0
C106 C 0.66601 0.77035 0.01461 0.0
O107 O 0.6468 0.77678 0.00555 0.0
O108 O 0.68055 0.78378 0.02643 0.0
C109 C 0.58844 0.79238 0.03027 0.0
O110 O 0.59669 0.78559 0.072 0.0
C111 C 0.65762 0.83681 0.9409 0.0
Zn112 Zn 0.69645 0.84677 0.52746 0.0
Zn113 Zn 0.70685 0.88761 0.51283 0.0
O114 O 0.68612 0.88047 0.45573 0.0
O115 O 0.67993 0.84562 0.46468 0.0
O116 O 0.71283 0.91946 0.50264 0.0
O117 O 0.68023 0.85395 0.58753 0.0
O118 O 0.69263 0.88725 0.5814 0.0
C119 C 0.67711 0.86308 0.44117 0.0
C120 C 0.74227 0.85311 0.51853 0.0
O121 O 0.73674 0.87246 0.50782 0.0
O122 O 0.72812 0.83932 0.53085 0.0
C123 C 0.72571 0.92989 0.5302 0.0
O124 O 0.73623 0.91944 0.56489 0.0
C125 C 0.68184 0.87287 0.6044 0.0
Zn126 Zn 0.16821 0.69652 0.47322 0.0
Zn127 Zn 0.12662 0.70501 0.48417 0.0
O128 O 0.12788 0.68575 0.4222 0.0
O129 O 0.16215 0.67627 0.41896 0.0
O130 O 0.09458 0.71001 0.49236 0.0
O131 O 0.16995 0.68419 0.54092 0.0
O132 O 0.13486 0.6893 0.54807 0.0
C133 C 0.14305 0.67484 0.40266 0.0
C134 C 0.15902 0.74189 0.46736 0.0
O135 O 0.14002 0.73574 0.47904 0.0
O136 O 0.17377 0.72811 0.46002 0.0
C137 C 0.08333 0.71976 0.46004 0.0
O138 O 0.09296 0.72741 0.42078 0.0
C139 C 0.15272 0.68229 0.5654 0.0
Zn140 Zn 0.31581 0.17215 0.54104 0.0
Zn141 Zn 0.30781 0.13049 0.52836 0.0
O142 O 0.32782 0.13838 0.47099 0.0
O143 O 0.33205 0.17359 0.47794 0.0
O144 O 0.30298 0.09845 0.51919 0.0
O145 O 0.33268 0.16579 0.60128 0.0
O146 O 0.32301 0.1316 0.59594 0.0
C147 C 0.3358 0.15616 0.4555 0.0
C148 C 0.27052 0.1633 0.53244 0.0
O149 O 0.27721 0.14426 0.52304 0.0
O150 O 0.28382 0.17799 0.54403 0.0
C151 C 0.28949 0.08782 0.54484 0.0
O152 O 0.27779 0.09809 0.5773 0.0
C153 C 0.33291 0.14674 0.61827 0.0
Zn154 Zn 0.84144 0.32574 0.50518 0.0
Zn155 Zn 0.87923 0.30658 0.49552 0.0
O156 O 0.87363 0.31989 0.42709 0.0
O157 O 0.84056 0.33271 0.43395 0.0
O158 O 0.90984 0.29508 0.49279 0.0
O159 O 0.85285 0.34819 0.55048 0.0
O160 O 0.88246 0.32848 0.55203 0.0
C161 C 0.85718 0.32928 0.40828 0.0
C162 C 0.84032 0.27994 0.52713 0.0
O163 O 0.85963 0.28022 0.5109 0.0
O164 O 0.82974 0.29738 0.53119 0.0
C165 C 0.91964 0.28857 0.4548 0.0
O166 O 0.90915 0.2878 0.41294 0.0
C167 C 0.87151 0.34449 0.56752 0.0
Zn168 Zn 0.67542 0.17012 0.51135 0.0
Zn169 Zn 0.69617 0.13271 0.50194 0.0
O170 O 0.67465 0.12805 0.55859 0.0
O171 O 0.65487 0.15762 0.56002 0.0
O172 O 0.70911 0.10282 0.49529 0.0
O173 O 0.66665 0.17003 0.4414 0.0
O174 O 0.68212 0.13813 0.43437 0.0
C175 C 0.6588 0.13875 0.57564 0.0
C176 C 0.72164 0.17316 0.52958 0.0
O177 O 0.72176 0.15327 0.51738 0.0
O178 O 0.7039 0.18337 0.53162 0.0
C179 C 0.71497 0.09231 0.53324 0.0
O180 O 0.71397 0.10179 0.57607 0.0
C181 C 0.67118 0.15367 0.41589 0.0
Zn182 Zn 0.83549 0.6974 0.43537 0.0
Zn183 Zn 0.87737 0.70603 0.4422 0.0
O184 O 0.87221 0.68574 0.50111 0.0
O185 O 0.83696 0.68074 0.49824 0.0
O186 O 0.90953 0.71178 0.44354 0.0
O187 O 0.83958 0.681 0.37404 0.0
O188 O 0.87385 0.69064 0.37565 0.0
C189 C 0.85507 0.67723 0.51851 0.0
C190 C 0.84388 0.74278 0.44191 0.0
O191 O 0.86331 0.73644 0.44857 0.0
O192 O 0.82903 0.72923 0.43322 0.0
C193 C 0.92029 0.71603 0.48204 0.0
O194 O 0.91016 0.71733 0.52409 0.0
C195 C 0.85815 0.68087 0.35493 0.0
Zn196 Zn 0.31134 0.84046 0.50651 0.0
Zn197 Zn 0.30254 0.88221 0.49988 0.0
O198 O 0.32274 0.87911 0.56067 0.0
O199 O 0.33171 0.84468 0.56165 0.0
O200 O 0.29683 0.91439 0.49723 0.0
O201 O 0.32351 0.84108 0.43892 0.0
O202 O 0.31762 0.87618 0.43441 0.0
C203 C 0.33354 0.86346 0.57916 0.0
C204 C 0.26602 0.84897 0.51338 0.0
O205 O 0.27199 0.86831 0.50407 0.0
O206 O 0.27992 0.83411 0.51872 0.0
C207 C 0.29151 0.92451 0.53571 0.0
O208 O 0.28913 0.91362 0.57678 0.0
C209 C 0.3249 0.85881 0.41576 0.0
Zn210 Zn 0.16607 0.31125 0.43117 0.0
Zn211 Zn 0.12483 0.29853 0.4341 0.0
O212 O 0.12763 0.31863 0.49383 0.0
O213 O 0.16159 0.32951 0.49037 0.0
O214 O 0.09293 0.29131 0.43226 0.0
O215 O 0.16242 0.32542 0.36669 0.0
O216 O 0.12885 0.3135 0.3664 0.0
C217 C 0.14322 0.32995 0.51053 0.0
C218 C 0.16086 0.26491 0.44196 0.0
O219 O 0.14072 0.2693 0.44382 0.0
O220 O 0.17465 0.27981 0.43558 0.0
C221 C 0.08253 0.28282 0.46754 0.0
O222 O 0.09296 0.27751 0.50784 0.0
C223 C 0.14425 0.32379 0.34573 0.0
H224 H 0.25249 0.56087 0.9084 0.0
H225 H 0.19863 0.55463 0.00779 0.0
H226 H 0.25296 0.52172 0.89791 0.0
H227 H 0.19869 0.51565 -0.00374 0.0
H228 H 0.21509 0.44439 -0.00186 0.0
H229 H 0.21832 0.48308 0.01309 0.0
H230 H 0.23182 0.4939 0.85985 0.0
H231 H 0.22921 0.45518 0.84521 0.0
C232 C 0.24075 0.55116 0.92803 0.0
C233 C 0.2255 0.56091 0.95885 0.0
C234 C 0.24093 0.5287 0.92179 0.0
C235 C 0.22581 0.51548 0.94609 0.0
C236 C 0.21078 0.52525 0.9775 0.0
C237 C 0.21066 0.54767 -0.01611 0.0
C238 C 0.2189 0.45501 0.96769 0.0
C239 C 0.22182 0.44667 0.92044 0.0
C240 C 0.22062 0.47723 0.97621 0.0
C241 C 0.22522 0.49168 0.93765 0.0
C242 C 0.22854 0.48326 0.89057 0.0
C243 C 0.22691 0.46103 0.88209 0.0
H244 H 0.45018 0.24999 0.91955 0.0
H245 H 0.45687 0.2069 0.04378 0.0
H246 H 0.48947 0.25143 0.91166 0.0
H247 H 0.49598 0.20786 0.03511 0.0
H248 H 0.56666 0.22472 0.03142 0.0
H249 H 0.52787 0.22961 0.04295 0.0
H250 H 0.5183 0.22818 0.88629 0.0
H251 H 0.55706 0.22392 0.87476 0.0
C252 C 0.46002 0.24087 0.94526 0.0
C253 C 0.45035 0.22826 -0.01784 0.0
C254 C 0.48256 0.24161 0.94058 0.0
C255 C 0.49596 0.22971 0.97263 0.0
C256 C 0.48625 0.2175 0.01019 0.0
C257 C 0.46375 0.21682 0.01496 0.0
C258 C 0.5563 0.22574 -0.00059 0.0
C259 C 0.56498 0.22379 0.95217 0.0
C260 C 0.53403 0.22839 0.00603 0.0
C261 C 0.51987 0.22908 0.96559 0.0
C262 C 0.52868 0.22795 0.9183 0.0
C263 C 0.55095 0.22539 0.91168 0.0
H264 H 0.76107 0.4427 0.884 0.0
H265 H 0.80572 0.44788 0.00535 0.0
H266 H 0.75852 0.482 0.87965 0.0
H267 H 0.80384 0.48712 -9e-05 0.0
H268 H 0.78675 0.55803 -0.00047 0.0
H269 H 0.78309 0.51901 0.01043 0.0
H270 H 0.78049 0.51122 0.85344 0.0
H271 H 0.78335 0.55016 0.84274 0.0
C272 C 0.77026 0.45222 0.90994 0.0
C273 C 0.7837 0.44213 0.94481 0.0
C274 C 0.76893 0.47479 0.90722 0.0
C275 C 0.78117 0.48784 0.93903 0.0
C276 C 0.79398 0.47768 0.97511 0.0
C277 C 0.79515 0.45511 0.97811 0.0
C278 C 0.7852 0.54798 0.96738 0.0
C279 C 0.78542 0.55722 0.92025 0.0
C280 C 0.78322 0.52557 0.97361 0.0
C281 C 0.78157 0.51185 0.93285 0.0
C282 C 0.78136 0.52121 0.88578 0.0
C283 C 0.78316 0.54361 0.87958 0.0
H284 H 0.56627 0.80534 0.94838 0.0
H285 H 0.55736 0.77475 0.08949 0.0
H286 H 0.52744 0.80359 0.93352 0.0
H287 H 0.51851 0.77263 0.07415 0.0
H288 H 0.44897 0.79833 0.0541 0.0
H289 H 0.48786 0.79714 0.06836 0.0
H290 H 0.49786 0.7786 0.91801 0.0
H291 H 0.45893 0.78018 0.90342 0.0
C292 C 0.55606 0.79806 0.97608 0.0
C293 C 0.56494 0.79027 0.02024 0.0
C294 C 0.53378 0.79694 0.9674 0.0
C295 C 0.51983 0.788 0.00267 0.0
C296 C 0.52876 0.77988 0.04649 0.0
C297 C 0.55106 0.78099 0.05517 0.0
C298 C 0.45943 0.79389 0.02409 0.0
C299 C 0.45081 0.78944 0.97754 0.0
C300 C 0.48175 0.79308 0.03238 0.0
C301 C 0.49601 0.78781 -0.00568 0.0
C302 C 0.48736 0.783 0.94796 0.0
C303 C 0.46502 0.78379 0.93967 0.0
H304 H 0.72429 0.06446 0.6084 0.0
H305 H 0.71773 0.06727 0.45103 0.0
H306 H 0.72928 0.0255 0.60447 0.0
H307 H 0.72331 0.02825 0.44697 0.0
H308 H 0.70303 0.9568 0.46889 0.0
H309 H 0.70321 0.99616 0.46737 0.0
H310 H 0.75255 0.99654 0.57983 0.0
H311 H 0.75194 0.95711 0.58228 0.0
C312 C 0.72426 0.05682 0.57284 0.0
C313 C 0.72044 0.069 0.53007 0.0
C314 C 0.72726 0.03444 0.57056 0.0
C315 C 0.7266 0.02365 0.5254 0.0
C316 C 0.72357 0.03596 0.48243 0.0
C317 C 0.72051 0.05837 0.48473 0.0
C318 C 0.71407 0.96525 0.49301 0.0
C319 C 0.72735 0.95377 0.526 0.0
C320 C 0.71428 0.98787 0.49191 0.0
C321 C 0.72783 0.99959 0.52364 0.0
C322 C 0.74165 0.98806 0.55545 0.0
C323 C 0.74139 0.96543 0.55666 0.0
H324 H 0.94604 0.7133 0.40125 0.0
H325 H 0.94856 0.72437 0.55714 0.0
H326 H 0.98528 0.71569 0.3974 0.0
H327 H 0.9879 0.72723 0.55307 0.0
H328 H 0.05818 0.70343 0.53373 0.0
H329 H 0.01887 0.70403 0.53967 0.0
H330 H 0.01522 0.74062 0.40469 0.0
H331 H 0.05453 0.7396 0.39814 0.0
C332 C 0.95495 0.71644 0.43468 0.0
C333 C 0.94413 0.71856 0.47955 0.0
C334 C 0.97748 0.71796 0.4324 0.0
C335 C 0.98979 0.72166 0.47492 0.0
C336 C 0.97894 0.7241 0.51971 0.0
C337 C 0.95637 0.72258 0.522 0.0
C338 C 0.04901 0.71171 0.50543 0.0
C339 C 0.05952 0.72136 0.46529 0.0
C340 C 0.02645 0.71217 0.50901 0.0
C341 C 0.01385 0.7223 0.47257 0.0
C342 C 0.0244 0.73238 0.43301 0.0
C343 C 0.04697 0.7319 0.4294 0.0
H344 H 0.26164 0.06033 0.59188 0.0
H345 H 0.31393 0.06128 0.48745 0.0
H346 H 0.2603 0.02099 0.58721 0.0
H347 H 0.31298 0.02196 0.48376 0.0
H348 H 0.29444 0.95199 0.45692 0.0
H349 H 0.29212 0.99138 0.45667 0.0
H350 H 0.28164 0.99045 0.6129 0.0
H351 H 0.2834 0.95113 0.61294 0.0
C352 C 0.27284 0.05216 0.56788 0.0
C353 C 0.28794 0.06398 0.54018 0.0
C354 C 0.27215 0.02958 0.56542 0.0
C355 C 0.2866 0.01824 0.5353 0.0
C356 C 0.30142 0.03012 0.50688 0.0
C357 C 0.30206 0.05271 0.50923 0.0
C358 C 0.2915 0.96019 0.49116 0.0
C359 C 0.28916 0.94839 0.53497 0.0
C360 C 0.29029 0.98279 0.49107 0.0
C361 C 0.28677 0.99414 0.53479 0.0
C362 C 0.28407 0.98227 0.57843 0.0
C363 C 0.28522 0.95969 0.5785 0.0
H364 H 0.05506 0.26534 0.53566 0.0
H365 H 0.05592 0.29497 0.39206 0.0
H366 H 0.01566 0.26352 0.53209 0.0
H367 H 0.01662 0.29368 0.38906 0.0
H368 H 0.94614 0.27515 0.38074 0.0
H369 H 0.98536 0.27072 0.38322 0.0
H370 H 0.98572 0.28814 0.53608 0.0
H371 H 0.94659 0.29199 0.53395 0.0
C372 C 0.04687 0.2714 0.50326 0.0
C373 C 0.05868 0.2804 0.46427 0.0
C374 C 0.02425 0.27046 0.50132 0.0
C375 C 0.01289 0.27854 0.46038 0.0
C376 C 0.02478 0.28703 0.42089 0.0
C377 C 0.04737 0.28791 0.42277 0.0
C378 C 0.95457 0.27779 0.41501 0.0
C379 C 0.9432 0.28404 0.45706 0.0
C380 C 0.97709 0.27538 0.41636 0.0
C381 C 0.98878 0.27921 0.45977 0.0
C382 C 0.97728 0.28479 0.50216 0.0
C383 C 0.9548 0.28714 0.50084 0.0
H384 H 0.26209 0.31438 0.87231 0.0
H385 H 0.26949 0.35793 -0.00592 0.0
H386 H 0.29577 0.29636 0.89508 0.0
H387 H 0.3031 0.33945 0.01768 0.0
H388 H 0.32425 0.26777 0.07606 0.0
H389 H 0.30338 0.29922 0.04942 0.0
H390 H 0.3376 0.29972 0.91205 0.0
H391 H 0.35903 0.26845 0.93959 0.0
C392 C 0.27127 0.32047 0.90315 0.0
C393 C 0.26313 0.33742 0.93167 0.0
C394 C 0.29063 0.31025 0.916 0.0
C395 C 0.302 0.31648 0.95823 0.0
C396 C 0.29464 0.33439 -0.0151 0.0
C397 C 0.27547 0.34497 0.97134 0.0
C398 C 0.32794 0.2752 0.04104 0.0
C399 C 0.34319 0.26578 0.00983 0.0
C400 C 0.31605 0.29323 0.02583 0.0
C401 C 0.31881 0.30183 0.97858 0.0
C402 C 0.33521 0.2934 0.94868 0.0
C403 C 0.34752 0.27562 0.96449 0.0
H404 H 0.74475 0.34064 -0.00581 0.0
H405 H 0.77056 0.31598 0.85925 0.0
H406 H 0.71443 0.31524 -0.01162 0.0
H407 H 0.73984 0.29156 0.85167 0.0
H408 H 0.71066 0.22786 0.90376 0.0
H409 H 0.73344 0.25928 0.89515 0.0
H410 H 0.68223 0.29978 0.95064 0.0
H411 H 0.65925 0.26765 0.96075 0.0
C412 C 0.74345 0.33037 0.96234 0.0
C413 C 0.76008 0.32997 0.92751 0.0
C414 C 0.72607 0.31583 0.9589 0.0
C415 C 0.72495 0.30093 0.92016 0.0
C416 C 0.74052 0.30228 0.88282 0.0
C417 C 0.75804 0.31639 0.88686 0.0
C418 C 0.70404 0.24343 0.91374 0.0
C419 C 0.68313 0.24515 0.9333 0.0
C420 C 0.71711 0.26162 0.90826 0.0
C421 C 0.7097 0.28221 0.92186 0.0
C422 C 0.6885 0.28415 0.94006 0.0
C423 C 0.67529 0.26578 0.94557 0.0
H424 H 0.7466 0.68857 0.87489 0.0
H425 H 0.73916 0.65034 0.00636 0.0
H426 H 0.7144 0.70931 0.89561 0.0
H427 H 0.70709 0.6716 0.02797 0.0
H428 H 0.69279 0.74654 0.07195 0.0
H429 H 0.71065 0.71278 0.05033 0.0
H430 H 0.67293 0.70986 0.91726 0.0
H431 H 0.65452 0.74354 0.93982 0.0
C432 C 0.73759 0.68414 0.90738 0.0
C433 C 0.74534 0.66796 0.93915 0.0
C434 C 0.7191 0.69594 0.91915 0.0
C435 C 0.70832 0.69212 0.96351 0.0
C436 C 0.71511 0.67481 -0.00649 0.0
C437 C 0.73337 0.66262 0.98107 0.0
C438 C 0.68774 0.73824 0.03902 0.0
C439 C 0.67239 0.74761 0.00742 0.0
C440 C 0.69786 0.71885 0.02675 0.0
C441 C 0.6932 0.70875 -0.01795 0.0
C442 C 0.67674 0.71732 0.952 0.0
C443 C 0.66619 0.73651 0.96494 0.0
H444 H 0.26425 0.68185 0.0832 0.0
H445 H 0.2748 0.64808 0.94781 0.0
H446 H 0.29842 0.70103 0.07283 0.0
H447 H 0.3089 0.66784 0.93648 0.0
H448 H 0.3265 0.74407 0.90862 0.0
H449 H 0.30776 0.70972 0.92026 0.0
H450 H 0.34042 0.70077 0.05881 0.0
H451 H 0.35976 0.73507 0.04625 0.0
C452 C 0.27437 0.67792 0.05222 0.0
C453 C 0.26697 0.66358 0.01626 0.0
C454 C 0.29397 0.68883 0.04631 0.0
C455 C 0.30625 0.68601 0.00368 0.0
C456 C 0.29975 0.67025 0.96971 0.0
C457 C 0.28032 0.6589 0.97628 0.0
C458 C 0.33038 0.73428 0.94049 0.0
C459 C 0.34447 0.74215 0.9766 0.0
C460 C 0.31974 0.71456 0.9471 0.0
C461 C 0.32257 0.70263 -0.00944 0.0
C462 C 0.33802 0.70965 0.02493 0.0
C463 C 0.34912 0.72919 0.01768 0.0
H464 H 0.81701 0.76584 0.3835 0.0
H465 H 0.85598 0.77064 0.51425 0.0
H466 H 0.7993 0.79989 0.40308 0.0
H467 H 0.83774 0.80469 0.5348 0.0
H468 H 0.76452 0.82617 0.57859 0.0
H469 H 0.79689 0.80567 0.5582 0.0
H470 H 0.80216 0.84104 0.42207 0.0
H471 H 0.76987 0.86204 0.44328 0.0
C472 C 0.82226 0.77461 0.41563 0.0
C473 C 0.83774 0.76566 0.4475 0.0
C474 C 0.81222 0.79417 0.42673 0.0
C475 C 0.8171 0.8049 0.47055 0.0
C476 C 0.83374 0.79675 0.50073 0.0
C477 C 0.8442 0.77735 0.48893 0.0
C478 C 0.77312 0.83016 0.54525 0.0
C479 C 0.7647 0.84555 0.51236 0.0
C480 C 0.79171 0.81851 0.53367 0.0
C481 C 0.80197 0.82168 0.48842 0.0
C482 C 0.79455 0.83831 0.45721 0.0
C483 C 0.77616 0.85036 0.46939 0.0
H484 H 0.24528 0.82375 0.57935 0.0
H485 H 0.23571 0.85892 0.44423 0.0
H486 H 0.21122 0.80462 0.5665 0.0
H487 H 0.20176 0.83918 0.43037 0.0
H488 H 0.18374 0.76307 0.4011 0.0
H489 H 0.20284 0.79712 0.41387 0.0
H490 H 0.16906 0.80582 0.55024 0.0
H491 H 0.14936 0.77188 0.53653 0.0
C492 C 0.23541 0.82795 0.54784 0.0
C493 C 0.24303 0.84274 0.51277 0.0
C494 C 0.21588 0.81708 0.54053 0.0
C495 C 0.2039 0.82038 0.49733 0.0
C496 C 0.21067 0.83643 0.46405 0.0
C497 C 0.23001 0.84776 0.47206 0.0
C498 C 0.1797 0.77276 0.43267 0.0
C499 C 0.16518 0.76491 0.46789 0.0
C500 C 0.19056 0.79229 0.43993 0.0
C501 C 0.1875 0.80404 0.48318 0.0
C502 C 0.17164 0.79708 0.51654 0.0
C503 C 0.16034 0.77775 0.50862 0.0
H504 H 0.24357 0.15145 0.45793 0.0
H505 H 0.24665 0.19 0.58881 0.0
H506 H 0.21003 0.16998 0.43378 0.0
H507 H 0.21302 0.20801 0.56555 0.0
H508 H 0.1508 0.23715 0.51651 0.0
H509 H 0.17178 0.20509 0.54122 0.0
H510 H 0.21042 0.2114 0.41067 0.0
H511 H 0.19001 0.2436 0.38706 0.0
C512 C 0.23656 0.16318 0.48251 0.0
C513 C 0.24769 0.16945 0.52501 0.0
C514 C 0.21745 0.17381 0.46864 0.0
C515 C 0.20898 0.19045 0.49776 0.0
C516 C 0.21903 0.19511 0.54266 0.0
C517 C 0.23833 0.18489 0.55586 0.0
C518 C 0.16326 0.23113 0.49238 0.0
C519 C 0.16891 0.24275 0.45002 0.0
C520 C 0.17528 0.21289 0.50654 0.0
C521 C 0.1927 0.20578 0.47782 0.0
C522 C 0.19693 0.21632 0.4332 0.0
C523 C 0.18533 0.2348 0.41977 0.0
H524 H 0.83917 0.243 0.47274 0.0
H525 H 0.8156 0.27127 0.6061 0.0
H526 H 0.81291 0.21353 0.4811 0.0
H527 H 0.79032 0.24138 0.61629 0.0
H528 H 0.76376 0.16027 0.51287 0.0
H529 H 0.79658 0.18234 0.52121 0.0
H530 H 0.75776 0.23541 0.5738 0.0
H531 H 0.72563 0.21352 0.56695 0.0
C532 C 0.82895 0.2424 0.50483 0.0
C533 C 0.82913 0.25947 0.53846 0.0
C534 C 0.81392 0.22551 0.50974 0.0
C535 C 0.79908 0.22534 0.54876 0.0
C536 C 0.80099 0.24134 0.58495 0.0
C537 C 0.81559 0.25837 0.57943 0.0
C538 C 0.7624 0.17653 0.52705 0.0
C539 C 0.74204 0.18515 0.53899 0.0
C540 C 0.78117 0.18921 0.53154 0.0
C541 C 0.77991 0.21067 0.54837 0.0
C542 C 0.75957 0.21887 0.56172 0.0
C543 C 0.74099 0.20631 0.55726 0.0
H544 H 0.11437 0.31338 0.27499 0.0
H545 H 0.16858 0.35549 0.30508 0.0
H546 H 0.11504 0.32485 0.189 0.0
H547 H 0.16953 0.36652 0.22008 0.0
H548 H 0.16882 0.38688 0.06757 0.0
H549 H 0.15351 0.38395 0.14953 0.0
H550 H 0.14147 0.3159 0.12638 0.0
H551 H 0.15612 0.3189 0.0445 0.0
C552 C 0.12609 0.3254 0.26348 0.0
C553 C 0.14171 0.3332 0.29636 0.0
C554 C 0.12653 0.33191 0.21433 0.0
C555 C 0.14248 0.34643 0.19763 0.0
C556 C 0.1569 0.35548 0.23163 0.0
C557 C 0.15653 0.34893 0.28037 0.0
C558 C 0.1625 0.37141 0.07966 0.0
C559 C 0.16416 0.35301 0.05 0.0
C560 C 0.15372 0.36974 0.12656 0.0
C561 C 0.14654 0.34963 0.14467 0.0
C562 C 0.14667 0.33166 0.11351 0.0
C563 C 0.15535 0.33334 0.06667 0.0
H564 H 0.64866 0.18474 0.36661 0.0
H565 H 0.67787 0.12176 0.34833 0.0
H566 H 0.64037 0.18625 0.28006 0.0
H567 H 0.66889 0.12303 0.26123 0.0
H568 H 0.6819 0.15242 0.10741 0.0
H569 H 0.68319 0.14382 0.19391 0.0
H570 H 0.61983 0.17211 0.21248 0.0
H571 H 0.61878 0.18138 0.12552 0.0
C572 C 0.65302 0.17102 0.34423 0.0
C573 C 0.66426 0.15326 0.36419 0.0
C574 C 0.64801 0.1718 0.29459 0.0
C575 C 0.65403 0.1548 0.26373 0.0
C576 C 0.66432 0.13652 0.28406 0.0
C577 C 0.66942 0.13577 0.33389 0.0
C578 C 0.66811 0.15666 0.12973 0.0
C579 C 0.65037 0.16791 0.10976 0.0
C580 C 0.66876 0.15149 0.17933 0.0
C581 C 0.65165 0.15735 0.2101 0.0
C582 C 0.6334 0.16766 0.18973 0.0
C583 C 0.63279 0.17294 0.13998 0.0
H584 H 0.89122 0.6856 0.2889 0.0
H585 H 0.83147 0.65108 0.31461 0.0
H586 H 0.89205 0.67158 0.20533 0.0
H587 H 0.83204 0.63758 0.23182 0.0
H588 H 0.83357 0.61424 0.08321 0.0
H589 H 0.84778 0.61667 0.16654 0.0
H590 H 0.86879 0.68219 0.13745 0.0
H591 H 0.85524 0.6796 0.0545 0.0
C592 C 0.87853 0.67471 0.27705 0.0
C593 C 0.861 0.66987 0.30773 0.0
C594 C 0.87899 0.6667 0.2293 0.0
C595 C 0.86199 0.65366 0.21181 0.0
C596 C 0.8455 0.6474 0.2441 0.0
C597 C 0.845 0.65543 0.29146 0.0
C598 C 0.84171 0.62895 0.09434 0.0
C599 C 0.84275 0.64693 0.0628 0.0
C600 C 0.84984 0.63034 0.14199 0.0
C601 C 0.8591 0.64974 0.15879 0.0
C602 C 0.86189 0.66696 0.1257 0.0
C603 C 0.85382 0.66557 0.07822 0.0
H604 H 0.32044 0.88937 0.3433 0.0
H605 H 0.3509 0.8281 0.37694 0.0
H606 H 0.33236 0.88628 0.25825 0.0
H607 H 0.36256 0.825 0.29262 0.0
H608 H 0.38828 0.82668 0.14161 0.0
H609 H 0.38498 0.84 0.22528 0.0
H610 H 0.31951 0.86051 0.19448 0.0
H611 H 0.32279 0.84749 0.1112 0.0
C612 C 0.33 0.87548 0.33277 0.0
C613 C 0.33443 0.8588 0.36643 0.0
C614 C 0.33677 0.8737 0.2842 0.0
C615 C 0.34829 0.85536 0.26887 0.0
C616 C 0.35391 0.83943 0.30342 0.0
C617 C 0.347 0.8411 0.35163 0.0
C618 C 0.37333 0.83437 0.15252 0.0
C619 C 0.35566 0.83568 0.12015 0.0
C620 C 0.37146 0.84198 0.20033 0.0
C621 C 0.35196 0.85119 0.21636 0.0
C622 C 0.33481 0.85371 0.18304 0.0
C623 C 0.33662 0.84599 0.13547 0.0
H624 H 0.12192 0.68346 0.63707 0.0
H625 H 0.18596 0.65933 0.60539 0.0
H626 H 0.12593 0.67134 0.72197 0.0
H627 H 0.18995 0.64747 0.68986 0.0
H628 H 0.16218 0.68315 0.87116 0.0
H629 H 0.15028 0.68626 0.78666 0.0
H630 H 0.17649 0.62299 0.75653 0.0
H631 H 0.18861 0.61984 0.84168 0.0
C632 C 0.13668 0.67528 0.64799 0.0
C633 C 0.15377 0.67267 0.61485 0.0
C634 C 0.13897 0.66838 0.69651 0.0
C635 C 0.15829 0.65858 0.71244 0.0
C636 C 0.1748 0.65478 0.67851 0.0
C637 C 0.17259 0.6618 0.63024 0.0
C638 C 0.1652 0.66976 0.84674 0.0
C639 C 0.17661 0.65138 0.86281 0.0
C640 C 0.15814 0.67145 0.79845 0.0
C641 C 0.16249 0.65487 0.76509 0.0
C642 C 0.17305 0.63604 0.78157 0.0
C643 C 0.17995 0.63424 0.8302 0.0
H644 H 0.32602 0.11406 0.68502 0.0
H645 H 0.36519 0.17067 0.65715 0.0
H646 H 0.33962 0.11284 0.76934 0.0
H647 H 0.37826 0.16983 0.74051 0.0
H648 H 0.39804 0.17117 0.89084 0.0
H649 H 0.39665 0.15467 0.80993 0.0
H650 H 0.32974 0.1373 0.83382 0.0
H651 H 0.33133 0.15299 0.91454 0.0
C652 C 0.33791 0.12588 0.69655 0.0
C653 C 0.3441 0.14281 0.66516 0.0
C654 C 0.34567 0.12522 0.74474 0.0
C655 C 0.35976 0.14144 0.76191 0.0
C656 C 0.36756 0.15699 0.72871 0.0
C657 C 0.35979 0.15767 0.68094 0.0
C658 C 0.38324 0.16331 0.87922 0.0
C659 C 0.3646 0.16397 0.9084 0.0
C660 C 0.38244 0.15385 0.83293 0.0
C661 C 0.36296 0.14505 0.81503 0.0
C662 C 0.34504 0.14381 0.84635 0.0
C663 C 0.34587 0.15315 0.89253 0.0
H664 H 0.82905 0.39511 0.81592 0.0
H665 H 0.88749 0.36517 0.87011 0.0
H666 H 0.84419 0.39666 0.73455 0.0
H667 H 0.90362 0.36815 0.78914 0.0
H668 H 0.89583 0.32998 0.64373 0.0
H669 H 0.89715 0.34576 0.72431 0.0
H670 H 0.86579 0.40349 0.66827 0.0
H671 H 0.86316 0.3867 0.58804 0.0
C672 C 0.8456 0.38985 0.81075 0.0
C673 C 0.85689 0.37944 0.84863 0.0
C674 C 0.85446 0.39082 0.76392 0.0
C675 C 0.87498 0.38178 0.75453 0.0
C676 C 0.88745 0.37442 0.79446 0.0
C677 C 0.87832 0.37287 0.84096 0.0
C678 C 0.88986 0.34631 0.64833 0.0
C679 C 0.87881 0.35687 0.61029 0.0
C680 C 0.89071 0.35556 0.69472 0.0
C681 C 0.88086 0.37574 0.70357 0.0
C682 C 0.87273 0.38758 0.6634 0.0
C683 C 0.87136 0.37806 0.61732 0.0
H684 H 0.6924 0.85583 0.89728 0.0
H685 H 0.62299 0.84905 0.88422 0.0
H686 H 0.69358 0.87333 0.81784 0.0
H687 H 0.62412 0.86729 0.80482 0.0
H688 H 0.64721 0.85301 0.64441 0.0
H689 H 0.63736 0.85238 0.72991 0.0
H690 H 0.68502 0.90187 0.75976 0.0
H691 H 0.69524 0.90211 0.67322 0.0
C692 C 0.6773 0.85852 0.87793 0.0
C693 C 0.65767 0.85049 0.8964 0.0
C694 C 0.67795 0.86888 0.83255 0.0
C695 C 0.65896 0.87152 0.8047 0.0
C696 C 0.63907 0.86517 0.82511 0.0
C697 C 0.63843 0.85467 0.8705 0.0
C698 C 0.65521 0.86418 0.66897 0.0
C699 C 0.67237 0.87718 0.65263 0.0
C700 C 0.64938 0.86402 0.71804 0.0
C701 C 0.66067 0.87682 0.75188 0.0
C702 C 0.67629 0.89156 0.73457 0.0
C703 C 0.68207 0.89179 0.68511 0.0
H704 H 0.82169 0.65549 0.56072 0.0
H705 H 0.8902 0.66787 0.57683 0.0
H706 H 0.82121 0.63771 0.63961 0.0
H707 H 0.88986 0.64925 0.65598 0.0
H708 H 0.81917 0.60931 0.78285 0.0
H709 H 0.83091 0.61001 0.6974 0.0
H710 H 0.87524 0.66207 0.73095 0.0
H711 H 0.86405 0.66086 0.81551 0.0
C712 C 0.8368 0.65402 0.58071 0.0
C713 C 0.85587 0.66366 0.56315 0.0
C714 C 0.83659 0.64345 0.6258 0.0
C715 C 0.85546 0.64219 0.65445 0.0
C716 C 0.87496 0.65025 0.63506 0.0
C717 C 0.87516 0.66095 0.58982 0.0
C718 C 0.83197 0.62031 0.77209 0.0
C719 C 0.84025 0.63548 0.80523 0.0
C720 C 0.83863 0.62081 0.72321 0.0
C721 C 0.85362 0.63647 0.70707 0.0
C722 C 0.86369 0.64978 0.74182 0.0
C723 C 0.85706 0.64928 0.79036 0.0
H724 H 0.33498 0.89811 0.64176 0.0
H725 H 0.36325 0.83535 0.61561 0.0
H726 H 0.35187 0.89865 0.72281 0.0
H727 H 0.3792 0.83543 0.69622 0.0
H728 H 0.40027 0.83071 0.84479 0.0
H729 H 0.40097 0.84663 0.76262 0.0
H730 H 0.34016 0.87861 0.7915 0.0
H731 H 0.33998 0.86355 0.87306 0.0
C732 C 0.34515 0.88467 0.65286 0.0
C733 C 0.34719 0.86638 0.62309 0.0
C734 C 0.3548 0.88494 0.69929 0.0
C735 C 0.36647 0.86685 0.71665 0.0
C736 C 0.37042 0.8497 0.68443 0.0
C737 C 0.36092 0.84949 0.63821 0.0
C738 C 0.38748 0.84172 0.83391 0.0
C739 C 0.36971 0.84531 0.8646 0.0
C740 C 0.38781 0.8508 0.78684 0.0
C741 C 0.37033 0.86346 0.76987 0.0
C742 C 0.35394 0.869 0.80294 0.0
C743 C 0.35365 0.86005 0.84972 0.0
H744 H 0.15995 0.36952 0.5299 0.0
H745 H 0.12162 0.31819 0.59281 0.0
H746 H 0.16277 0.38674 0.60961 0.0
H747 H 0.12569 0.33421 0.67314 0.0
H748 H 0.13699 0.35993 0.8168 0.0
H749 H 0.12189 0.35904 0.73431 0.0
H750 H 0.18388 0.37948 0.67682 0.0
H751 H 0.19807 0.38197 0.7596 0.0
C752 C 0.15187 0.36213 0.5609 0.0
C753 C 0.14081 0.34244 0.55569 0.0
C754 C 0.15363 0.37186 0.60667 0.0
C755 C 0.14501 0.36166 0.64843 0.0
C756 C 0.13244 0.3428 0.64214 0.0
C757 C 0.13016 0.33343 0.59604 0.0
C758 C 0.14698 0.36505 0.78635 0.0
C759 C 0.16864 0.3709 0.794 0.0
C760 C 0.13848 0.36428 0.73905 0.0
C761 C 0.15177 0.36851 0.69842 0.0
C762 C 0.17296 0.37622 0.70681 0.0
C763 C 0.18124 0.37761 0.75432 0.0
H764 H 0.64033 0.12074 0.87732 0.0
H765 H 0.61004 0.17929 0.82453 0.0
H766 H 0.63633 0.10457 0.79673 0.0
H767 H 0.60738 0.16404 0.74352 0.0
H768 H 0.61651 0.146 0.59712 0.0
H769 H 0.60002 0.14237 0.67757 0.0
H770 H 0.65843 0.11148 0.7311 0.0
H771 H 0.67396 0.11381 0.65022 0.0
C772 C 0.63232 0.12992 0.84861 0.0
C773 C 0.62604 0.15143 0.85643 0.0
C774 C 0.63015 0.12075 0.80235 0.0
C775 C 0.62242 0.13324 0.76281 0.0
C776 C 0.61352 0.15378 0.77261 0.0
C777 C 0.61515 0.16271 0.81922 0.0
C778 C 0.62537 0.13768 0.62587 0.0
C779 C 0.64669 0.13073 0.61818 0.0
C780 C 0.61601 0.13571 0.67205 0.0
C781 C 0.62815 0.12749 0.71163 0.0
C782 C 0.64844 0.118 0.70197 0.0
C783 C 0.65753 0.11944 0.65544 0.0
H784 H 0.82595 0.35237 0.36108 0.0
H785 H 0.88783 0.32153 0.33804 0.0
H786 H 0.82363 0.36114 0.27477 0.0
H787 H 0.88565 0.33082 0.25101 0.0
H788 H 0.82903 0.38568 0.12187 0.0
H789 H 0.8387 0.38254 0.20833 0.0
H790 H 0.86312 0.31807 0.18347 0.0
H791 H 0.85399 0.32134 0.09732 0.0
C792 C 0.83922 0.34767 0.33767 0.0
C793 C 0.85697 0.336 0.35634 0.0
C794 C 0.83797 0.35294 0.28817 0.0
C795 C 0.85445 0.34668 0.25606 0.0
C796 C 0.8726 0.33567 0.2749 0.0
C797 C 0.87388 0.3304 0.32467 0.0
C798 C 0.8367 0.37096 0.13479 0.0
C799 C 0.84047 0.35366 0.10288 0.0
C800 C 0.8422 0.36914 0.18428 0.0
C801 C 0.85155 0.35 0.20273 0.0
C802 C 0.85618 0.33312 0.17033 0.0
C803 C 0.85072 0.33493 0.12097 0.0
H804 H 0.61649 0.82181 0.17047 0.0
H805 H 0.67104 0.86375 0.14247 0.0
H806 H 0.61537 0.83462 0.25516 0.0
H807 H 0.67027 0.87609 0.22614 0.0
H808 H 0.66967 0.89646 0.37662 0.0
H809 H 0.654 0.89376 0.29474 0.0
H810 H 0.64074 0.82597 0.32022 0.0
H811 H 0.65566 0.82879 0.40193 0.0
C812 C 0.62786 0.83412 0.18207 0.0
C813 C 0.64419 0.84141 0.15046 0.0
C814 C 0.62728 0.8414 0.23046 0.0
C815 C 0.64291 0.85616 0.24758 0.0
C816 C 0.65787 0.86487 0.21432 0.0
C817 C 0.65851 0.85755 0.16638 0.0
C818 C 0.66294 0.88113 0.36507 0.0
C819 C 0.66445 0.8627 0.39521 0.0
C820 C 0.65395 0.87958 0.31822 0.0
C821 C 0.64644 0.85957 0.30067 0.0
C822 C 0.64621 0.84167 0.33255 0.0
C823 C 0.65508 0.84323 0.37932 0.0
H824 H 0.10875 0.67641 0.33831 0.0
H825 H 0.16884 0.64311 0.36798 0.0
H826 H 0.10773 0.66048 0.25662 0.0
H827 H 0.16835 0.62803 0.28686 0.0
H828 H 0.17353 0.60894 0.13789 0.0
H829 H 0.15641 0.6082 0.21838 0.0
H830 H 0.12952 0.67167 0.19029 0.0
H831 H 0.1457 0.67196 0.1102 0.0
C832 C 0.12143 0.66529 0.32786 0.0
C833 C 0.13925 0.66158 0.35875 0.0
C834 C 0.12091 0.65621 0.28106 0.0
C835 C 0.13825 0.64342 0.26456 0.0
C836 C 0.15467 0.63774 0.29792 0.0
C837 C 0.15514 0.6467 0.34445 0.0
C838 C 0.16339 0.62239 0.1485 0.0
C839 C 0.16158 0.64083 0.11854 0.0
C840 C 0.15361 0.62201 0.19461 0.0
C841 C 0.14204 0.64012 0.21145 0.0
C842 C 0.13823 0.65739 0.1789 0.0
C843 C 0.14786 0.65771 0.133 0.0
H844 H 0.34603 0.12254 0.39488 0.0
H845 H 0.35485 0.19139 0.41356 0.0
H846 H 0.36266 0.12505 0.31417 0.0
H847 H 0.37079 0.19395 0.33292 0.0
H848 H 0.34696 0.15147 0.15654 0.0
H849 H 0.34653 0.14065 0.24169 0.0
H850 H 0.39835 0.18565 0.27245 0.0
H851 H 0.39846 0.19686 0.18623 0.0
C852 C 0.35178 0.13813 0.38212 0.0
C853 C 0.34862 0.15685 0.41003 0.0
C854 C 0.36134 0.13956 0.33597 0.0
C855 C 0.36779 0.15974 0.3169 0.0
C856 C 0.3662 0.17812 0.34658 0.0
C857 C 0.35675 0.17669 0.39266 0.0
C858 C 0.35859 0.15876 0.18123 0.0
C859 C 0.37237 0.17539 0.16518 0.0
C860 C 0.35855 0.15234 0.23004 0.0
C861 C 0.37224 0.16247 0.264 0.0
C862 C 0.38741 0.17777 0.24712 0.0
C863 C 0.38754 0.18414 0.19788 0.0
loop_
_geom_bond_atom_site_label_1
_geom_bond_atom_site_label_2
_geom_bond_distance
_geom_bond_site_symmetry_2
_ccdc_geom_bond_type
Zn0 O3 2.031 1_554 S
Zn0 O5 2.049 . S
Zn0 O10 2.067 . S
Zn1 O2 1.962 . S
Zn1 O4 1.986 1_556 S
Zn1 O6 1.996 1_556 S
Zn1 O9 1.942 1_556 S
O2 Zn1 1.962 . S
O2 C7 1.254 . S
O3 Zn0 2.031 1_556 S
O3 C7 1.269 . S
O4 Zn1 1.986 1_554 S
O4 C11 1.262 1_554 S
O5 Zn0 2.049 . S
O5 C13 1.260 . S
O6 Zn1 1.996 1_554 S
O6 C13 1.257 . S
C7 O2 1.254 . S
C7 O3 1.269 . S
C8 O9 1.251 . S
C8 O10 1.270 . S
O9 Zn1 1.942 1_554 S
O9 C8 1.251 . S
O10 Zn0 2.067 . S
O10 C8 1.270 . S
C11 O4 1.262 1_556 S
C11 O12 1.232 . S
O12 C11 1.232 . S
C13 O5 1.260 . S
C13 O6 1.257 . S
Zn14 O17 2.031 1_554 S
Zn14 O19 2.049 . S
Zn14 O24 2.067 . S
Zn15 O16 1.962 . S
Zn15 O18 1.986 1_556 S
Zn15 O20 1.996 1_556 S
Zn15 O23 1.942 1_556 S
O16 Zn15 1.962 . S
O16 C21 1.254 . S
O17 Zn14 2.031 1_556 S
O17 C21 1.269 . S
O18 Zn15 1.986 1_554 S
O18 C25 1.262 1_554 S
O19 Zn14 2.049 . S
O19 C27 1.260 . S
O20 Zn15 1.996 1_554 S
O20 C27 1.257 . S
C21 O16 1.254 . S
C21 O17 1.269 . S
C22 O23 1.251 . S
C22 O24 1.270 . S
O23 Zn15 1.942 1_554 S
O23 C22 1.251 . S
O24 Zn14 2.067 . S
O24 C22 1.270 . S
C25 O18 1.262 1_556 S
C25 O26 1.232 . S
O26 C25 1.232 . S
C27 O19 1.260 . S
C27 O20 1.257 . S
Zn28 O31 2.031 1_554 S
Zn28 O33 2.049 . S
Zn28 O38 2.067 . S
Zn29 O30 1.962 . S
Zn29 O32 1.986 1_556 S
Zn29 O34 1.996 1_556 S
Zn29 O37 1.942 1_556 S
O30 Zn29 1.962 . S
O30 C35 1.254 . S
O31 Zn28 2.031 1_556 S
O31 C35 1.269 . S
O32 Zn29 1.986 1_554 S
O32 C39 1.262 1_554 S
O33 Zn28 2.049 . S
O33 C41 1.260 . S
O34 Zn29 1.996 1_554 S
O34 C41 1.257 . S
C35 O30 1.254 . S
C35 O31 1.269 . S
C36 O37 1.251 . S
C36 O38 1.270 . S
O37 Zn29 1.942 1_554 S
O37 C36 1.251 . S
O38 Zn28 2.067 . S
O38 C36 1.270 . S
C39 O32 1.262 1_556 S
C39 O40 1.232 . S
O40 C39 1.232 . S
C41 O33 1.260 . S
C41 O34 1.257 . S
Zn42 O45 2.031 1_554 S
Zn42 O47 2.049 . S
Zn42 O52 2.067 . S
Zn43 O44 1.962 . S
Zn43 O46 1.986 1_556 S
Zn43 O48 1.996 1_556 S
Zn43 O51 1.942 1_556 S
O44 Zn43 1.962 . S
O44 C49 1.254 . S
O45 Zn42 2.031 1_556 S
O45 C49 1.269 . S
O46 Zn43 1.986 1_554 S
O46 C53 1.262 1_554 S
O47 Zn42 2.049 . S
O47 C55 1.260 . S
O48 Zn43 1.996 1_554 S
O48 C55 1.257 . S
C49 O44 1.254 . S
C49 O45 1.269 . S
C50 O51 1.251 . S
C50 O52 1.270 . S
O51 Zn43 1.942 1_554 S
O51 C50 1.251 . S
O52 Zn42 2.067 . S
O52 C50 1.270 . S
C53 O46 1.262 1_556 S
C53 O54 1.232 . S
O54 C53 1.232 . S
C55 O47 1.260 . S
C55 O48 1.257 . S
Zn56 O59 2.031 1_556 S
Zn56 O61 2.049 . S
Zn56 O66 2.067 . S
Zn57 O58 1.962 . S
Zn57 O60 1.986 1_554 S
Zn57 O62 1.996 1_554 S
Zn57 O65 1.943 . S
O58 Zn57 1.962 . S
O58 C63 1.254 . S
O59 Zn56 2.031 1_554 S
O59 C63 1.269 . S
O60 Zn57 1.986 1_556 S
O60 C67 1.262 1_556 S
O61 Zn56 2.049 . S
O61 C69 1.260 . S
O62 Zn57 1.996 1_556 S
O62 C69 1.257 . S
C63 O58 1.254 . S
C63 O59 1.269 . S
C64 O65 1.248 1_556 S
C64 O66 1.270 . S
O65 Zn57 1.943 . S
O65 C64 1.248 1_554 S
O66 Zn56 2.067 . S
O66 C64 1.270 . S
C67 O60 1.262 1_554 S
C67 O68 1.232 . S
O68 C67 1.232 . S
C69 O61 1.260 . S
C69 O62 1.257 . S
Zn70 O73 2.031 1_556 S
Zn70 O75 2.049 . S
Zn70 O80 2.067 . S
Zn71 O72 1.962 . S
Zn71 O74 1.986 1_554 S
Zn71 O76 1.996 1_554 S
Zn71 O79 1.943 . S
O72 Zn71 1.962 . S
O72 C77 1.254 . S
O73 Zn70 2.031 1_554 S
O73 C77 1.269 . S
O74 Zn71 1.986 1_556 S
O74 C81 1.262 1_556 S
O75 Zn70 2.049 . S
O75 C83 1.260 . S
O76 Zn71 1.996 1_556 S
O76 C83 1.257 . S
C77 O72 1.254 . S
C77 O73 1.269 . S
C78 O79 1.248 1_556 S
C78 O80 1.270 . S
O79 Zn71 1.943 . S
O79 C78 1.248 1_554 S
O80 Zn70 2.067 . S
O80 C78 1.270 . S
C81 O74 1.262 1_554 S
C81 O82 1.232 . S
O82 C81 1.232 . S
C83 O75 1.260 . S
C83 O76 1.257 . S
Zn84 O87 2.031 1_556 S
Zn84 O89 2.049 . S
Zn84 O94 2.067 . S
Zn85 O86 1.962 . S
Zn85 O88 1.986 1_554 S
Zn85 O90 1.996 1_554 S
Zn85 O93 1.943 . S
O86 Zn85 1.962 . S
O86 C91 1.254 . S
O87 Zn84 2.031 1_554 S
O87 C91 1.269 . S
O88 Zn85 1.986 1_556 S
O88 C95 1.262 1_556 S
O89 Zn84 2.049 . S
O89 C97 1.260 . S
O90 Zn85 1.996 1_556 S
O90 C97 1.257 . S
C91 O86 1.254 . S
C91 O87 1.269 . S
C92 O93 1.248 1_556 S
C92 O94 1.270 . S
O93 Zn85 1.943 . S
O93 C92 1.248 1_554 S
O94 Zn84 2.067 . S
O94 C92 1.270 . S
C95 O88 1.262 1_554 S
C95 O96 1.232 . S
O96 C95 1.232 . S
C97 O89 1.260 . S
C97 O90 1.257 . S
Zn98 O101 2.031 1_556 S
Zn98 O103 2.049 . S
Zn98 O108 2.067 . S
Zn99 O100 1.962 . S
Zn99 O102 1.986 1_554 S
Zn99 O104 1.996 1_554 S
Zn99 O107 1.943 . S
O100 Zn99 1.962 . S
O100 C105 1.254 . S
O101 Zn98 2.031 1_554 S
O101 C105 1.269 . S
O102 Zn99 1.986 1_556 S
O102 C109 1.262 1_556 S
O103 Zn98 2.049 . S
O103 C111 1.260 . S
O104 Zn99 1.996 1_556 S
O104 C111 1.257 . S
C105 O100 1.254 . S
C105 O101 1.269 . S
C106 O107 1.248 1_556 S
C106 O108 1.270 . S
O107 Zn99 1.943 . S
O107 C106 1.248 1_554 S
O108 Zn98 2.067 . S
O108 C106 1.270 . S
C109 O102 1.262 1_554 S
C109 O110 1.232 . S
O110 C109 1.232 . S
C111 O103 1.260 . S
C111 O104 1.257 . S
Zn112 O115 2.031 . S
Zn112 O117 2.049 . S
Zn112 O122 2.067 . S
Zn113 O114 1.962 . S
Zn113 O116 1.986 . S
Zn113 O118 1.996 . S
Zn113 O121 1.943 . S
O114 Zn113 1.962 . S
O114 C119 1.254 . S
O115 Zn112 2.031 . S
O115 C119 1.269 . S
O116 Zn113 1.986 . S
O116 C123 1.262 . S
O117 Zn112 2.049 . S
O117 C125 1.260 . S
O118 Zn113 1.996 . S
O118 C125 1.257 . S
C119 O114 1.254 . S
C119 O115 1.269 . S
C120 O121 1.249 . S
C120 O122 1.270 . S
O121 Zn113 1.943 . S
O121 C120 1.249 . S
O122 Zn112 2.067 . S
O122 C120 1.270 . S
C123 O116 1.262 . S
C123 O124 1.232 . S
O124 C123 1.232 . S
C125 O117 1.260 . S
C125 O118 1.257 . S
Zn126 O129 2.031 . S
Zn126 O131 2.049 . S
Zn126 O136 2.067 . S
Zn127 O128 1.962 . S
Zn127 O130 1.986 . S
Zn127 O132 1.996 . S
Zn127 O135 1.943 . S
O128 Zn127 1.962 . S
O128 C133 1.254 . S
O129 Zn126 2.031 . S
O129 C133 1.269 . S
O130 Zn127 1.986 . S
O130 C137 1.262 . S
O131 Zn126 2.049 . S
O131 C139 1.260 . S
O132 Zn127 1.996 . S
O132 C139 1.257 . S
C133 O128 1.254 . S
C133 O129 1.269 . S
C134 O135 1.249 . S
C134 O136 1.270 . S
O135 Zn127 1.943 . S
O135 C134 1.249 . S
O136 Zn126 2.067 . S
O136 C134 1.270 . S
C137 O130 1.262 . S
C137 O138 1.232 . S
O138 C137 1.232 . S
C139 O131 1.260 . S
C139 O132 1.257 . S
Zn140 O143 2.031 . S
Zn140 O145 2.049 . S
Zn140 O150 2.067 . S
Zn141 O142 1.962 . S
Zn141 O144 1.986 . S
Zn141 O146 1.996 . S
Zn141 O149 1.943 . S
O142 Zn141 1.962 . S
O142 C147 1.254 . S
O143 Zn140 2.031 . S
O143 C147 1.269 . S
O144 Zn141 1.986 . S
O144 C151 1.262 . S
O145 Zn140 2.049 . S
O145 C153 1.260 . S
O146 Zn141 1.996 . S
O146 C153 1.257 . S
C147 O142 1.254 . S
C147 O143 1.269 . S
C148 O149 1.249 . S
C148 O150 1.270 . S
O149 Zn141 1.943 . S
O149 C148 1.249 . S
O150 Zn140 2.067 . S
O150 C148 1.270 . S
C151 O144 1.262 . S
C151 O152 1.232 . S
O152 C151 1.232 . S
C153 O145 1.260 . S
C153 O146 1.257 . S
Zn154 O157 2.031 . S
Zn154 O159 2.049 . S
Zn154 O164 2.067 . S
Zn155 O156 1.962 . S
Zn155 O158 1.986 . S
Zn155 O160 1.996 . S
Zn155 O163 1.943 . S
O156 Zn155 1.962 . S
O156 C161 1.254 . S
O157 Zn154 2.031 . S
O157 C161 1.269 . S
O158 Zn155 1.986 . S
O158 C165 1.262 . S
O159 Zn154 2.049 . S
O159 C167 1.260 . S
O160 Zn155 1.996 . S
O160 C167 1.257 . S
C161 O156 1.254 . S
C161 O157 1.269 . S
C162 O163 1.249 . S
C162 O164 1.270 . S
O163 Zn155 1.943 . S
O163 C162 1.249 . S
O164 Zn154 2.067 . S
O164 C162 1.270 . S
C165 O158 1.262 . S
C165 O166 1.232 . S
O166 C165 1.232 . S
C167 O159 1.260 . S
C167 O160 1.257 . S
Zn168 O171 2.031 . S
Zn168 O173 2.049 . S
Zn168 O178 2.067 . S
Zn169 O170 1.962 . S
Zn169 O172 1.986 . S
Zn169 O174 1.996 . S
Zn169 O177 1.943 . S
O170 Zn169 1.962 . S
O170 C175 1.254 . S
O171 Zn168 2.031 . S
O171 C175 1.269 . S
O172 Zn169 1.986 . S
O172 C179 1.262 . S
O173 Zn168 2.049 . S
O173 C181 1.260 . S
O174 Zn169 1.996 . S
O174 C181 1.257 . S
C175 O170 1.254 . S
C175 O171 1.269 . S
C176 O177 1.249 . S
C176 O178 1.270 . S
O177 Zn169 1.943 . S
O177 C176 1.249 . S
O178 Zn168 2.067 . S
O178 C176 1.270 . S
C179 O172 1.262 . S
C179 O180 1.232 . S
O180 C179 1.232 . S
C181 O173 1.260 . S
C181 O174 1.257 . S
Zn182 O185 2.031 . S
Zn182 O187 2.049 . S
Zn182 O192 2.067 . S
Zn183 O184 1.962 . S
Zn183 O186 1.986 . S
Zn183 O188 1.996 . S
Zn183 O191 1.943 . S
O184 Zn183 1.962 . S
O184 C189 1.254 . S
O185 Zn182 2.031 . S
O185 C189 1.269 . S
O186 Zn183 1.986 . S
O186 C193 1.262 . S
O187 Zn182 2.049 . S
O187 C195 1.260 . S
O188 Zn183 1.996 . S
O188 C195 1.257 . S
C189 O184 1.254 . S
C189 O185 1.269 . S
C190 O191 1.249 . S
C190 O192 1.270 . S
O191 Zn183 1.943 . S
O191 C190 1.249 . S
O192 Zn182 2.067 . S
O192 C190 1.270 . S
C193 O186 1.262 . S
C193 O194 1.232 . S
O194 C193 1.232 . S
C195 O187 1.260 . S
C195 O188 1.257 . S
Zn196 O199 2.031 . S
Zn196 O201 2.049 . S
Zn196 O206 2.067 . S
Zn197 O198 1.962 . S
Zn197 O200 1.986 . S
Zn197 O202 1.996 . S
Zn197 O205 1.943 . S
O198 Zn197 1.962 . S
O198 C203 1.254 . S
O199 Zn196 2.031 . S
O199 C203 1.269 . S
O200 Zn197 1.986 . S
O200 C207 1.262 . S
O201 Zn196 2.049 . S
O201 C209 1.260 . S
O202 Zn197 1.996 . S
O202 C209 1.257 . S
C203 O198 1.254 . S
C203 O199 1.269 . S
C204 O205 1.249 . S
C204 O206 1.270 . S
O205 Zn197 1.943 . S
O205 C204 1.249 . S
O206 Zn196 2.067 . S
O206 C204 1.270 . S
C207 O200 1.262 . S
C207 O208 1.232 . S
O208 C207 1.232 . S
C209 O201 1.260 . S
C209 O202 1.257 . S
Zn210 O213 2.031 . S
Zn210 O215 2.049 . S
Zn210 O220 2.067 . S
Zn211 O212 1.962 . S
Zn211 O214 1.986 . S
Zn211 O216 1.996 . S
Zn211 O219 1.943 . S
O212 Zn211 1.962 . S
O212 C217 1.254 . S
O213 Zn210 2.031 . S
O213 C217 1.269 . S
O214 Zn211 1.986 . S
O214 C221 1.262 . S
O215 Zn210 2.049 . S
O215 C223 1.260 . S
O216 Zn211 1.996 . S
O216 C223 1.257 . S
C217 O212 1.254 . S
C217 O213 1.269 . S
C218 O219 1.249 . S
C218 O220 1.270 . S
O219 Zn211 1.943 . S
O219 C218 1.249 . S
O220 Zn210 2.067 . S
O220 C218 1.270 . S
C221 O214 1.262 . S
C221 O222 1.232 . S
O222 C221 1.232 . S
C223 O215 1.260 . S
C223 O216 1.257 . S
H224 C232 0.950 . S
H225 C237 0.950 . S
H226 C234 0.950 . S
H227 C236 0.950 . S
H228 C238 0.950 . S
H229 C240 0.950 . S
H230 C242 0.950 . S
H231 C243 0.950 . S
C232 H224 0.950 . S
C232 C233 1.384 1_556 S
C232 C234 1.391 . S
C233 C232 1.384 1_554 S
C233 C237 1.395 . S
C234 H226 0.950 . S
C234 C232 1.391 . S
C234 C235 1.400 1_556 S
C235 C234 1.400 1_554 S
C235 C236 1.398 . S
C235 C241 1.491 . S
C236 H227 0.950 . S
C236 C235 1.398 . S
C236 C237 1.391 . S
C237 H225 0.950 . S
C237 C233 1.395 . S
C237 C236 1.391 . S
C238 H228 0.950 . S
C238 C239 1.394 . S
C238 C240 1.391 . S
C239 C238 1.394 . S
C239 C243 1.385 1_554 S
C240 H229 0.950 . S
C240 C238 1.391 . S
C240 C241 1.401 . S
C241 C235 1.491 . S
C241 C240 1.401 . S
C241 C242 1.398 1_554 S
C242 H230 0.950 . S
C242 C241 1.398 1_556 S
C242 C243 1.391 . S
C243 H231 0.950 . S
C243 C239 1.385 1_556 S
C243 C242 1.391 . S
H244 C252 0.950 . S
H245 C257 0.950 . S
H246 C254 0.950 . S
H247 C256 0.950 . S
H248 C258 0.950 . S
H249 C260 0.950 . S
H250 C262 0.950 . S
H251 C263 0.950 . S
C252 H244 0.950 . S
C252 C253 1.384 1_556 S
C252 C254 1.391 . S
C253 C252 1.384 1_554 S
C253 C257 1.395 . S
C254 H246 0.950 . S
C254 C252 1.391 . S
C254 C255 1.400 1_556 S
C255 C254 1.400 1_554 S
C255 C256 1.398 . S
C255 C261 1.491 . S
C256 H247 0.950 . S
C256 C255 1.398 . S
C256 C257 1.391 . S
C257 H245 0.950 . S
C257 C253 1.395 . S
C257 C256 1.391 . S
C258 H248 0.950 . S
C258 C259 1.393 . S
C258 C260 1.391 . S
C259 C258 1.393 . S
C259 C263 1.385 1_554 S
C260 H249 0.950 . S
C260 C258 1.391 . S
C260 C261 1.401 . S
C261 C255 1.491 . S
C261 C260 1.401 . S
C261 C262 1.398 1_554 S
C262 H250 0.950 . S
C262 C261 1.398 1_556 S
C262 C263 1.391 . S
C263 H251 0.950 . S
C263 C259 1.385 1_556 S
C263 C262 1.391 . S
H264 C272 0.950 . S
H265 C277 0.950 . S
H266 C274 0.950 . S
H267 C276 0.950 . S
H268 C278 0.950 . S
H269 C280 0.950 . S
H270 C282 0.950 . S
H271 C283 0.950 . S
C272 H264 0.950 . S
C272 C273 1.384 1_556 S
C272 C274 1.391 . S
C273 C272 1.384 1_554 S
C273 C277 1.395 . S
C274 H266 0.950 . S
C274 C272 1.391 . S
C274 C275 1.400 1_556 S
C275 C274 1.400 1_554 S
C275 C276 1.398 . S
C275 C281 1.491 . S
C276 H267 0.950 . S
C276 C275 1.398 . S
C276 C277 1.391 . S
C277 H265 0.950 . S
C277 C273 1.395 . S
C277 C276 1.391 . S
C278 H268 0.950 . S
C278 C279 1.390 . S
C278 C280 1.391 . S
C279 C278 1.390 . S
C279 C283 1.388 1_554 S
C280 H269 0.950 . S
C280 C278 1.391 . S
C280 C281 1.400 . S
C281 C275 1.491 . S
C281 C280 1.400 . S
C281 C282 1.398 1_554 S
C282 H270 0.950 . S
C282 C281 1.398 1_556 S
C282 C283 1.391 . S
C283 H271 0.950 . S
C283 C279 1.388 1_556 S
C283 C282 1.391 . S
H284 C292 0.950 . S
H285 C297 0.950 . S
H286 C294 0.950 . S
H287 C296 0.950 . S
H288 C298 0.950 . S
H289 C300 0.950 . S
H290 C302 0.950 . S
H291 C303 0.950 . S
C292 H284 0.950 . S
C292 C293 1.391 . S
C292 C294 1.391 . S
C293 C292 1.391 . S
C293 C297 1.387 1_556 S
C294 H286 0.950 . S
C294 C292 1.391 . S
C294 C295 1.387 1_556 S
C295 C294 1.387 1_554 S
C295 C296 1.411 . S
C295 C301 1.491 . S
C296 H287 0.950 . S
C296 C295 1.411 . S
C296 C297 1.391 . S
C297 H285 0.950 . S
C297 C293 1.387 1_554 S
C297 C296 1.391 . S
C298 H288 0.950 . S
C298 C299 1.386 . S
C298 C300 1.391 . S
C299 C298 1.386 . S
C299 C303 1.393 1_554 S
C300 H289 0.950 . S
C300 C298 1.391 . S
C300 C301 1.409 . S
C301 C295 1.491 . S
C301 C300 1.409 . S
C301 C302 1.389 1_554 S
C302 H290 0.950 . S
C302 C301 1.389 1_556 S
C302 C303 1.391 . S
C303 H291 0.950 . S
C303 C299 1.393 1_556 S
C303 C302 1.391 . S
H304 C312 0.950 . S
H305 C317 0.950 . S
H306 C314 0.950 . S
H307 C316 0.950 . S
H308 C318 0.950 . S
H309 C320 0.950 . S
H310 C322 0.950 . S
H311 C323 0.950 . S
C312 H304 0.950 . S
C312 C313 1.386 . S
C312 C314 1.391 . S
C313 C312 1.386 . S
C313 C317 1.393 . S
C314 H306 0.950 . S
C314 C312 1.391 . S
C314 C315 1.400 . S
C315 C314 1.400 . S
C315 C316 1.398 . S
C315 C321 1.491 1_545 S
C316 H307 0.950 . S
C316 C315 1.398 . S
C316 C317 1.391 . S
C317 H305 0.950 . S
C317 C313 1.393 . S
C317 C316 1.391 . S
C318 H308 0.950 . S
C318 C319 1.386 . S
C318 C320 1.391 . S
C319 C318 1.386 . S
C319 C323 1.393 . S
C320 H309 0.950 . S
C320 C318 1.391 . S
C320 C321 1.400 . S
C321 C315 1.491 1_565 S
C321 C320 1.400 . S
C321 C322 1.398 . S
C322 H310 0.950 . S
C322 C321 1.398 . S
C322 C323 1.391 . S
C323 H311 0.950 . S
C323 C319 1.393 . S
C323 C322 1.391 . S
H324 C332 0.950 . S
H325 C337 0.950 . S
H326 C334 0.950 . S
H327 C336 0.950 . S
H328 C338 0.950 . S
H329 C340 0.950 . S
H330 C342 0.950 . S
H331 C343 0.950 . S
C332 H324 0.950 . S
C332 C333 1.386 . S
C332 C334 1.391 . S
C333 C332 1.386 . S
C333 C337 1.393 . S
C334 H326 0.950 . S
C334 C332 1.391 . S
C334 C335 1.400 . S
C335 C334 1.400 . S
C335 C336 1.398 . S
C335 C341 1.491 1_655 S
C336 H327 0.950 . S
C336 C335 1.398 . S
C336 C337 1.391 . S
C337 H325 0.950 . S
C337 C333 1.393 . S
C337 C336 1.391 . S
C338 H328 0.950 . S
C338 C339 1.386 . S
C338 C340 1.391 . S
C339 C338 1.386 . S
C339 C343 1.393 . S
C340 H329 0.950 . S
C340 C338 1.391 . S
C340 C341 1.400 . S
C341 C335 1.491 1_455 S
C341 C340 1.400 . S
C341 C342 1.398 . S
C342 H330 0.950 . S
C342 C341 1.398 . S
C342 C343 1.391 . S
C343 H331 0.950 . S
C343 C339 1.393 . S
C343 C342 1.391 . S
H344 C352 0.950 . S
H345 C357 0.950 . S
H346 C354 0.950 . S
H347 C356 0.950 . S
H348 C358 0.950 . S
H349 C360 0.950 . S
H350 C362 0.950 . S
H351 C363 0.950 . S
C352 H344 0.950 . S
C352 C353 1.386 . S
C352 C354 1.391 . S
C353 C352 1.386 . S
C353 C357 1.393 . S
C354 H346 0.950 . S
C354 C352 1.391 . S
C354 C355 1.400 . S
C355 C354 1.400 . S
C355 C356 1.398 . S
C355 C361 1.491 1_545 S
C356 H347 0.950 . S
C356 C355 1.398 . S
C356 C357 1.391 . S
C357 H345 0.950 . S
C357 C353 1.393 . S
C357 C356 1.391 . S
C358 H348 0.950 . S
C358 C359 1.386 . S
C358 C360 1.391 . S
C359 C358 1.386 . S
C359 C363 1.393 . S
C360 H349 0.950 . S
C360 C358 1.391 . S
C360 C361 1.400 . S
C361 C355 1.491 1_565 S
C361 C360 1.400 . S
C361 C362 1.398 . S
C362 H350 0.950 . S
C362 C361 1.398 . S
C362 C363 1.391 . S
C363 H351 0.950 . S
C363 C359 1.393 . S
C363 C362 1.391 . S
H364 C372 0.950 . S
H365 C377 0.950 . S
H366 C374 0.950 . S
H367 C376 0.950 . S
H368 C378 0.950 . S
H369 C380 0.950 . S
H370 C382 0.950 . S
H371 C383 0.950 . S
C372 H364 0.950 . S
C372 C373 1.386 . S
C372 C374 1.391 . S
C373 C372 1.386 . S
C373 C377 1.393 . S
C374 H366 0.950 . S
C374 C372 1.391 . S
C374 C375 1.400 . S
C375 C374 1.400 . S
C375 C376 1.398 . S
C375 C381 1.491 1_455 S
C376 H367 0.950 . S
C376 C375 1.398 . S
C376 C377 1.391 . S
C377 H365 0.950 . S
C377 C373 1.393 . S
C377 C376 1.391 . S
C378 H368 0.950 . S
C378 C379 1.386 . S
C378 C380 1.391 . S
C379 C378 1.386 . S
C379 C383 1.393 . S
C380 H369 0.950 . S
C380 C378 1.391 . S
C380 C381 1.400 . S
C381 C375 1.491 1_655 S
C381 C380 1.400 . S
C381 C382 1.398 . S
C382 H370 0.950 . S
C382 C381 1.398 . S
C382 C383 1.391 . S
C383 H371 0.950 . S
C383 C379 1.393 . S
C383 C382 1.391 . S
H384 C392 0.950 . S
H385 C397 0.950 . S
H386 C394 0.950 . S
H387 C396 0.950 . S
H388 C398 0.950 . S
H389 C400 0.950 . S
H390 C402 0.950 . S
H391 C403 0.950 . S
C392 H384 0.950 . S
C392 C393 1.386 . S
C392 C394 1.391 . S
C393 C392 1.386 . S
C393 C397 1.393 1_556 S
C394 H386 0.950 . S
C394 C392 1.391 . S
C394 C395 1.409 . S
C395 C394 1.409 . S
C395 C396 1.390 1_556 S
C395 C401 1.490 1_556 S
C396 H387 0.950 . S
C396 C395 1.390 1_554 S
C396 C397 1.391 . S
C397 H385 0.950 . S
C397 C393 1.393 1_554 S
C397 C396 1.391 . S
C398 H388 0.950 . S
C398 C399 1.386 . S
C398 C400 1.391 . S
C399 C398 1.386 . S
C399 C403 1.393 1_554 S
C400 H389 0.950 . S
C400 C398 1.391 . S
C400 C401 1.400 . S
C401 C395 1.490 1_554 S
C401 C400 1.400 . S
C401 C402 1.398 1_554 S
C402 H390 0.950 . S
C402 C401 1.398 1_556 S
C402 C403 1.391 . S
C403 H391 0.950 . S
C403 C399 1.393 1_556 S
C403 C402 1.391 . S
H404 C412 0.950 . S
H405 C417 0.950 . S
H406 C414 0.950 . S
H407 C416 0.950 . S
H408 C418 0.950 . S
H409 C420 0.950 . S
H410 C422 0.950 . S
H411 C423 0.950 . S
C412 H404 0.950 . S
C412 C413 1.386 . S
C412 C414 1.391 . S
C413 C412 1.386 . S
C413 C417 1.393 1_554 S
C414 H406 0.950 . S
C414 C412 1.391 . S
C414 C415 1.413 . S
C415 C414 1.413 . S
C415 C416 1.386 1_554 S
C415 C421 1.491 . S
C416 H407 0.950 . S
C416 C415 1.386 1_556 S
C416 C417 1.391 . S
C417 H405 0.950 . S
C417 C413 1.393 1_556 S
C417 C416 1.391 . S
C418 H408 0.950 . S
C418 C419 1.386 . S
C418 C420 1.391 . S
C419 C418 1.386 . S
C419 C423 1.393 1_556 S
C420 H409 0.950 . S
C420 C418 1.391 . S
C420 C421 1.394 1_556 S
C421 C415 1.491 . S
C421 C420 1.394 1_554 S
C421 C422 1.404 . S
C422 H410 0.950 . S
C422 C421 1.404 . S
C422 C423 1.391 . S
C423 H411 0.950 . S
C423 C419 1.393 1_554 S
C423 C422 1.391 . S
H424 C432 0.950 . S
H425 C437 0.950 . S
H426 C434 0.950 . S
H427 C436 0.950 . S
H428 C438 0.950 . S
H429 C440 0.950 . S
H430 C442 0.950 . S
H431 C443 0.950 . S
C432 H424 0.950 . S
C432 C433 1.386 . S
C432 C434 1.391 . S
C433 C432 1.386 . S
C433 C437 1.393 1_556 S
C434 H426 0.950 . S
C434 C432 1.391 . S
C434 C435 1.394 1_556 S
C435 C434 1.394 1_554 S
C435 C436 1.404 . S
C435 C441 1.491 . S
C436 H427 0.950 . S
C436 C435 1.404 . S
C436 C437 1.391 . S
C437 H425 0.950 . S
C437 C433 1.393 1_554 S
C437 C436 1.391 . S
C438 H428 0.950 . S
C438 C439 1.386 . S
C438 C440 1.391 . S
C439 C438 1.386 . S
C439 C443 1.393 1_554 S
C440 H429 0.950 . S
C440 C438 1.391 . S
C440 C441 1.412 . S
C441 C435 1.491 . S
C441 C440 1.412 . S
C441 C442 1.387 1_554 S
C442 H430 0.950 . S
C442 C441 1.387 1_556 S
C442 C443 1.391 . S
C443 H431 0.950 . S
C443 C439 1.393 1_556 S
C443 C442 1.391 . S
H444 C452 0.950 . S
H445 C457 0.950 . S
H446 C454 0.950 . S
H447 C456 0.950 . S
H448 C458 0.950 . S
H449 C460 0.950 . S
H450 C462 0.950 . S
H451 C463 0.950 . S
C452 H444 0.950 . S
C452 C453 1.386 . S
C452 C454 1.391 . S
C453 C452 1.386 . S
C453 C457 1.393 1_554 S
C454 H446 0.950 . S
C454 C452 1.391 . S
C454 C455 1.400 . S
C455 C454 1.400 . S
C455 C456 1.398 1_554 S
C455 C461 1.490 1_554 S
C456 H447 0.950 . S
C456 C455 1.398 1_556 S
C456 C457 1.391 . S
C457 H445 0.950 . S
C457 C453 1.393 1_556 S
C457 C456 1.391 . S
C458 H448 0.950 . S
C458 C459 1.386 . S
C458 C460 1.391 . S
C459 C458 1.386 . S
C459 C463 1.393 1_556 S
C460 H449 0.950 . S
C460 C458 1.391 . S
C460 C461 1.412 . S
C461 C455 1.490 1_556 S
C461 C460 1.412 . S
C461 C462 1.387 1_556 S
C462 H450 0.950 . S
C462 C461 1.387 1_554 S
C462 C463 1.391 . S
C463 H451 0.950 . S
C463 C459 1.393 1_554 S
C463 C462 1.391 . S
H464 C472 0.950 . S
H465 C477 0.950 . S
H466 C474 0.950 . S
H467 C476 0.950 . S
H468 C478 0.950 . S
H469 C480 0.950 . S
H470 C482 0.950 . S
H471 C483 0.950 . S
C472 H464 0.950 . S
C472 C473 1.386 . S
C472 C474 1.391 . S
C473 C472 1.386 . S
C473 C477 1.393 . S
C474 H466 0.950 . S
C474 C472 1.391 . S
C474 C475 1.400 . S
C475 C474 1.400 . S
C475 C476 1.398 . S
C475 C481 1.491 . S
C476 H467 0.950 . S
C476 C475 1.398 . S
C476 C477 1.391 . S
C477 H465 0.950 . S
C477 C473 1.393 . S
C477 C476 1.391 . S
C478 H468 0.950 . S
C478 C479 1.386 . S
C478 C480 1.391 . S
C479 C478 1.386 . S
C479 C483 1.393 . S
C480 H469 0.950 . S
C480 C478 1.391 . S
C480 C481 1.400 . S
C481 C475 1.491 . S
C481 C480 1.400 . S
C481 C482 1.398 . S
C482 H470 0.950 . S
C482 C481 1.398 . S
C482 C483 1.391 . S
C483 H471 0.950 . S
C483 C479 1.393 . S
C483 C482 1.391 . S
H484 C492 0.950 . S
H485 C497 0.950 . S
H486 C494 0.950 . S
H487 C496 0.950 . S
H488 C498 0.950 . S
H489 C500 0.950 . S
H490 C502 0.950 . S
H491 C503 0.950 . S
C492 H484 0.950 . S
C492 C493 1.386 . S
C492 C494 1.391 . S
C493 C492 1.386 . S
C493 C497 1.393 . S
C494 H486 0.950 . S
C494 C492 1.391 . S
C494 C495 1.400 . S
C495 C494 1.400 . S
C495 C496 1.398 . S
C495 C501 1.491 . S
C496 H487 0.950 . S
C496 C495 1.398 . S
C496 C497 1.391 . S
C497 H485 0.950 . S
C497 C493 1.393 . S
C497 C496 1.391 . S
C498 H488 0.950 . S
C498 C499 1.386 . S
C498 C500 1.391 . S
C499 C498 1.386 . S
C499 C503 1.393 . S
C500 H489 0.950 . S
C500 C498 1.391 . S
C500 C501 1.400 . S
C501 C495 1.491 . S
C501 C500 1.400 . S
C501 C502 1.398 . S
C502 H490 0.950 . S
C502 C501 1.398 . S
C502 C503 1.391 . S
C503 H491 0.950 . S
C503 C499 1.393 . S
C503 C502 1.391 . S
H504 C512 0.950 . S
H505 C517 0.950 . S
H506 C514 0.950 . S
H507 C516 0.950 . S
H508 C518 0.950 . S
H509 C520 0.950 . S
H510 C522 0.950 . S
H511 C523 0.950 . S
C512 H504 0.950 . S
C512 C513 1.386 . S
C512 C514 1.391 . S
C513 C512 1.386 . S
C513 C517 1.393 . S
C514 H506 0.950 . S
C514 C512 1.391 . S
C514 C515 1.400 . S
C515 C514 1.400 . S
C515 C516 1.398 . S
C515 C521 1.491 . S
C516 H507 0.950 . S
C516 C515 1.398 . S
C516 C517 1.391 . S
C517 H505 0.950 . S
C517 C513 1.393 . S
C517 C516 1.391 . S
C518 H508 0.950 . S
C518 C519 1.386 . S
C518 C520 1.391 . S
C519 C518 1.386 . S
C519 C523 1.393 . S
C520 H509 0.950 . S
C520 C518 1.391 . S
C520 C521 1.400 . S
C521 C515 1.491 . S
C521 C520 1.400 . S
C521 C522 1.398 . S
C522 H510 0.950 . S
C522 C521 1.398 . S
C522 C523 1.391 . S
C523 H511 0.950 . S
C523 C519 1.393 . S
C523 C522 1.391 . S
H524 C532 0.950 . S
H525 C537 0.950 . S
H526 C534 0.950 . S
H527 C536 0.950 . S
H528 C538 0.950 . S
H529 C540 0.950 . S
H530 C542 0.950 . S
H531 C543 0.950 . S
C532 H524 0.950 . S
C532 C533 1.386 . S
C532 C534 1.391 . S
C533 C532 1.386 . S
C533 C537 1.393 . S
C534 H526 0.950 . S
C534 C532 1.391 . S
C534 C535 1.400 . S
C535 C534 1.400 . S
C535 C536 1.398 . S
C535 C541 1.491 . S
C536 H527 0.950 . S
C536 C535 1.398 . S
C536 C537 1.391 . S
C537 H525 0.950 . S
C537 C533 1.393 . S
C537 C536 1.391 . S
C538 H528 0.950 . S
C538 C539 1.386 . S
C538 C540 1.391 . S
C539 C538 1.386 . S
C539 C543 1.393 . S
C540 H529 0.950 . S
C540 C538 1.391 . S
C540 C541 1.400 . S
C541 C535 1.491 . S
C541 C540 1.400 . S
C541 C542 1.398 . S
C542 H530 0.950 . S
C542 C541 1.398 . S
C542 C543 1.391 . S
C543 H531 0.950 . S
C543 C539 1.393 . S
C543 C542 1.391 . S
H544 C552 0.950 . S
H545 C557 0.950 . S
H546 C554 0.950 . S
H547 C556 0.950 . S
H548 C558 0.950 . S
H549 C560 0.950 . S
H550 C562 0.950 . S
H551 C563 0.950 . S
C552 H544 0.950 . S
C552 C553 1.386 . S
C552 C554 1.391 . S
C553 C552 1.386 . S
C553 C557 1.393 . S
C554 H546 0.950 . S
C554 C552 1.391 . S
C554 C555 1.400 . S
C555 C554 1.400 . S
C555 C556 1.398 . S
C555 C561 1.491 . S
C556 H547 0.950 . S
C556 C555 1.398 . S
C556 C557 1.391 . S
C557 H545 0.950 . S
C557 C553 1.393 . S
C557 C556 1.391 . S
C558 H548 0.950 . S
C558 C559 1.386 . S
C558 C560 1.391 . S
C559 C558 1.386 . S
C559 C563 1.393 . S
C560 H549 0.950 . S
C560 C558 1.391 . S
C560 C561 1.400 . S
C561 C555 1.491 . S
C561 C560 1.400 . S
C561 C562 1.398 . S
C562 H550 0.950 . S
C562 C561 1.398 . S
C562 C563 1.391 . S
C563 H551 0.950 . S
C563 C559 1.393 . S
C563 C562 1.391 . S
H564 C572 0.950 . S
H565 C577 0.950 . S
H566 C574 0.950 . S
H567 C576 0.950 . S
H568 C578 0.950 . S
H569 C580 0.950 . S
H570 C582 0.950 . S
H571 C583 0.950 . S
C572 H564 0.950 . S
C572 C573 1.386 . S
C572 C574 1.391 . S
C573 C572 1.386 . S
C573 C577 1.393 . S
C574 H566 0.950 . S
C574 C572 1.391 . S
C574 C575 1.400 . S
C575 C574 1.400 . S
C575 C576 1.398 . S
C575 C581 1.491 . S
C576 H567 0.950 . S
C576 C575 1.398 . S
C576 C577 1.391 . S
C577 H565 0.950 . S
C577 C573 1.393 . S
C577 C576 1.391 . S
C578 H568 0.950 . S
C578 C579 1.386 . S
C578 C580 1.391 . S
C579 C578 1.386 . S
C579 C583 1.393 . S
C580 H569 0.950 . S
C580 C578 1.391 . S
C580 C581 1.400 . S
C581 C575 1.491 . S
C581 C580 1.400 . S
C581 C582 1.398 . S
C582 H570 0.950 . S
C582 C581 1.398 . S
C582 C583 1.391 . S
C583 H571 0.950 . S
C583 C579 1.393 . S
C583 C582 1.391 . S
H584 C592 0.950 . S
H585 C597 0.950 . S
H586 C594 0.950 . S
H587 C596 0.950 . S
H588 C598 0.950 . S
H589 C600 0.950 . S
H590 C602 0.950 . S
H591 C603 0.950 . S
C592 H584 0.950 . S
C592 C593 1.386 . S
C592 C594 1.391 . S
C593 C592 1.386 . S
C593 C597 1.393 . S
C594 H586 0.950 . S
C594 C592 1.391 . S
C594 C595 1.400 . S
C595 C594 1.400 . S
C595 C596 1.398 . S
C595 C601 1.491 . S
C596 H587 0.950 . S
C596 C595 1.398 . S
C596 C597 1.391 . S
C597 H585 0.950 . S
C597 C593 1.393 . S
C597 C596 1.391 . S
C598 H588 0.950 . S
C598 C599 1.386 . S
C598 C600 1.391 . S
C599 C598 1.386 . S
C599 C603 1.393 . S
C600 H589 0.950 . S
C600 C598 1.391 . S
C600 C601 1.400 . S
C601 C595 1.491 . S
C601 C600 1.400 . S
C601 C602 1.398 . S
C602 H590 0.950 . S
C602 C601 1.398 . S
C602 C603 1.391 . S
C603 H591 0.950 . S
C603 C599 1.393 . S
C603 C602 1.391 . S
H604 C612 0.950 . S
H605 C617 0.950 . S
H606 C614 0.950 . S
H607 C616 0.950 . S
H608 C618 0.950 . S
H609 C620 0.950 . S
H610 C622 0.950 . S
H611 C623 0.950 . S
C612 H604 0.950 . S
C612 C613 1.386 . S
C612 C614 1.391 . S
C613 C612 1.386 . S
C613 C617 1.393 . S
C614 H606 0.950 . S
C614 C612 1.391 . S
C614 C615 1.400 . S
C615 C614 1.400 . S
C615 C616 1.398 . S
C615 C621 1.491 . S
C616 H607 0.950 . S
C616 C615 1.398 . S
C616 C617 1.391 . S
C617 H605 0.950 . S
C617 C613 1.393 . S
C617 C616 1.391 . S
C618 H608 0.950 . S
C618 C619 1.386 . S
C618 C620 1.391 . S
C619 C618 1.386 . S
C619 C623 1.393 . S
C620 H609 0.950 . S
C620 C618 1.391 . S
C620 C621 1.400 . S
C621 C615 1.491 . S
C621 C620 1.400 . S
C621 C622 1.398 . S
C622 H610 0.950 . S
C622 C621 1.398 . S
C622 C623 1.391 . S
C623 H611 0.950 . S
C623 C619 1.393 . S
C623 C622 1.391 . S
H624 C632 0.950 . S
H625 C637 0.950 . S
H626 C634 0.950 . S
H627 C636 0.950 . S
H628 C638 0.950 . S
H629 C640 0.950 . S
H630 C642 0.950 . S
H631 C643 0.950 . S
C632 H624 0.950 . S
C632 C633 1.386 . S
C632 C634 1.391 . S
C633 C632 1.386 . S
C633 C637 1.393 . S
C634 H626 0.950 . S
C634 C632 1.391 . S
C634 C635 1.400 . S
C635 C634 1.400 . S
C635 C636 1.398 . S
C635 C641 1.491 . S
C636 H627 0.950 . S
C636 C635 1.398 . S
C636 C637 1.391 . S
C637 H625 0.950 . S
C637 C633 1.393 . S
C637 C636 1.391 . S
C638 H628 0.950 . S
C638 C639 1.386 . S
C638 C640 1.391 . S
C639 C638 1.386 . S
C639 C643 1.393 . S
C640 H629 0.950 . S
C640 C638 1.391 . S
C640 C641 1.400 . S
C641 C635 1.491 . S
C641 C640 1.400 . S
C641 C642 1.398 . S
C642 H630 0.950 . S
C642 C641 1.398 . S
C642 C643 1.391 . S
C643 H631 0.950 . S
C643 C639 1.393 . S
C643 C642 1.391 . S
H644 C652 0.950 . S
H645 C657 0.950 . S
H646 C654 0.950 . S
H647 C656 0.950 . S
H648 C658 0.950 . S
H649 C660 0.950 . S
H650 C662 0.950 . S
H651 C663 0.950 . S
C652 H644 0.950 . S
C652 C653 1.386 . S
C652 C654 1.391 . S
C653 C652 1.386 . S
C653 C657 1.393 . S
C654 H646 0.950 . S
C654 C652 1.391 . S
C654 C655 1.400 . S
C655 C654 1.400 . S
C655 C656 1.398 . S
C655 C661 1.491 . S
C656 H647 0.950 . S
C656 C655 1.398 . S
C656 C657 1.391 . S
C657 H645 0.950 . S
C657 C653 1.393 . S
C657 C656 1.391 . S
C658 H648 0.950 . S
C658 C659 1.386 . S
C658 C660 1.391 . S
C659 C658 1.386 . S
C659 C663 1.393 . S
C660 H649 0.950 . S
C660 C658 1.391 . S
C660 C661 1.400 . S
C661 C655 1.491 . S
C661 C660 1.400 . S
C661 C662 1.398 . S
C662 H650 0.950 . S
C662 C661 1.398 . S
C662 C663 1.391 . S
C663 H651 0.950 . S
C663 C659 1.393 . S
C663 C662 1.391 . S
H664 C672 0.950 . S
H665 C677 0.950 . S
H666 C674 0.950 . S
H667 C676 0.950 . S
H668 C678 0.950 . S
H669 C680 0.950 . S
H670 C682 0.950 . S
H671 C683 0.950 . S
C672 H664 0.950 . S
C672 C673 1.386 . S
C672 C674 1.391 . S
C673 C672 1.386 . S
C673 C677 1.393 . S
C674 H666 0.950 . S
C674 C672 1.391 . S
C674 C675 1.400 . S
C675 C674 1.400 . S
C675 C676 1.398 . S
C675 C681 1.491 . S
C676 H667 0.950 . S
C676 C675 1.398 . S
C676 C677 1.391 . S
C677 H665 0.950 . S
C677 C673 1.393 . S
C677 C676 1.391 . S
C678 H668 0.950 . S
C678 C679 1.386 . S
C678 C680 1.391 . S
C679 C678 1.386 . S
C679 C683 1.393 . S
C680 H669 0.950 . S
C680 C678 1.391 . S
C680 C681 1.400 . S
C681 C675 1.491 . S
C681 C680 1.400 . S
C681 C682 1.398 . S
C682 H670 0.950 . S
C682 C681 1.398 . S
C682 C683 1.391 . S
C683 H671 0.950 . S
C683 C679 1.393 . S
C683 C682 1.391 . S
H684 C692 0.950 . S
H685 C697 0.950 . S
H686 C694 0.950 . S
H687 C696 0.950 . S
H688 C698 0.950 . S
H689 C700 0.950 . S
H690 C702 0.950 . S
H691 C703 0.950 . S
C692 H684 0.950 . S
C692 C693 1.386 . S
C692 C694 1.391 . S
C693 C692 1.386 . S
C693 C697 1.393 . S
C694 H686 0.950 . S
C694 C692 1.391 . S
C694 C695 1.400 . S
C695 C694 1.400 . S
C695 C696 1.398 . S
C695 C701 1.491 . S
C696 H687 0.950 . S
C696 C695 1.398 . S
C696 C697 1.391 . S
C697 H685 0.950 . S
C697 C693 1.393 . S
C697 C696 1.391 . S
C698 H688 0.950 . S
C698 C699 1.386 . S
C698 C700 1.391 . S
C699 C698 1.386 . S
C699 C703 1.393 . S
C700 H689 0.950 . S
C700 C698 1.391 . S
C700 C701 1.400 . S
C701 C695 1.491 . S
C701 C700 1.400 . S
C701 C702 1.398 . S
C702 H690 0.950 . S
C702 C701 1.398 . S
C702 C703 1.391 . S
C703 H691 0.950 . S
C703 C699 1.393 . S
C703 C702 1.391 . S
H704 C712 0.950 . S
H705 C717 0.950 . S
H706 C714 0.950 . S
H707 C716 0.950 . S
H708 C718 0.950 . S
H709 C720 0.950 . S
H710 C722 0.950 . S
H711 C723 0.950 . S
C712 H704 0.950 . S
C712 C713 1.386 . S
C712 C714 1.391 . S
C713 C712 1.386 . S
C713 C717 1.393 . S
C714 H706 0.950 . S
C714 C712 1.391 . S
C714 C715 1.400 . S
C715 C714 1.400 . S
C715 C716 1.398 . S
C715 C721 1.491 . S
C716 H707 0.950 . S
C716 C715 1.398 . S
C716 C717 1.391 . S
C717 H705 0.950 . S
C717 C713 1.393 . S
C717 C716 1.391 . S
C718 H708 0.950 . S
C718 C719 1.386 . S
C718 C720 1.391 . S
C719 C718 1.386 . S
C719 C723 1.393 . S
C720 H709 0.950 . S
C720 C718 1.391 . S
C720 C721 1.400 . S
C721 C715 1.491 . S
C721 C720 1.400 . S
C721 C722 1.398 . S
C722 H710 0.950 . S
C722 C721 1.398 . S
C722 C723 1.391 . S
C723 H711 0.950 . S
C723 C719 1.393 . S
C723 C722 1.391 . S
H724 C732 0.950 . S
H725 C737 0.950 . S
H726 C734 0.950 . S
H727 C736 0.950 . S
H728 C738 0.950 . S
H729 C740 0.950 . S
H730 C742 0.950 . S
H731 C743 0.950 . S
C732 H724 0.950 . S
C732 C733 1.386 . S
C732 C734 1.391 . S
C733 C732 1.386 . S
C733 C737 1.393 . S
C734 H726 0.950 . S
C734 C732 1.391 . S
C734 C735 1.400 . S
C735 C734 1.400 . S
C735 C736 1.398 . S
C735 C741 1.491 . S
C736 H727 0.950 . S
C736 C735 1.398 . S
C736 C737 1.391 . S
C737 H725 0.950 . S
C737 C733 1.393 . S
C737 C736 1.391 . S
C738 H728 0.950 . S
C738 C739 1.386 . S
C738 C740 1.391 . S
C739 C738 1.386 . S
C739 C743 1.393 . S
C740 H729 0.950 . S
C740 C738 1.391 . S
C740 C741 1.400 . S
C741 C735 1.491 . S
C741 C740 1.400 . S
C741 C742 1.398 . S
C742 H730 0.950 . S
C742 C741 1.398 . S
C742 C743 1.391 . S
C743 H731 0.950 . S
C743 C739 1.393 . S
C743 C742 1.391 . S
H744 C752 0.950 . S
H745 C757 0.950 . S
H746 C754 0.950 . S
H747 C756 0.950 . S
H748 C758 0.950 . S
H749 C760 0.950 . S
H750 C762 0.950 . S
H751 C763 0.950 . S
C752 H744 0.950 . S
C752 C753 1.386 . S
C752 C754 1.391 . S
C753 C752 1.386 . S
C753 C757 1.393 . S
C754 H746 0.950 . S
C754 C752 1.391 . S
C754 C755 1.400 . S
C755 C754 1.400 . S
C755 C756 1.398 . S
C755 C761 1.491 . S
C756 H747 0.950 . S
C756 C755 1.398 . S
C756 C757 1.391 . S
C757 H745 0.950 . S
C757 C753 1.393 . S
C757 C756 1.391 . S
C758 H748 0.950 . S
C758 C759 1.386 . S
C758 C760 1.391 . S
C759 C758 1.386 . S
C759 C763 1.393 . S
C760 H749 0.950 . S
C760 C758 1.391 . S
C760 C761 1.400 . S
C761 C755 1.491 . S
C761 C760 1.400 . S
C761 C762 1.398 . S
C762 H750 0.950 . S
C762 C761 1.398 . S
C762 C763 1.391 . S
C763 H751 0.950 . S
C763 C759 1.393 . S
C763 C762 1.391 . S
H764 C772 0.950 . S
H765 C777 0.950 . S
H766 C774 0.950 . S
H767 C776 0.950 . S
H768 C778 0.950 . S
H769 C780 0.950 . S
H770 C782 0.950 . S
H771 C783 0.950 . S
C772 H764 0.950 . S
C772 C773 1.386 . S
C772 C774 1.391 . S
C773 C772 1.386 . S
C773 C777 1.393 . S
C774 H766 0.950 . S
C774 C772 1.391 . S
C774 C775 1.400 . S
C775 C774 1.400 . S
C775 C776 1.398 . S
C775 C781 1.491 . S
C776 H767 0.950 . S
C776 C775 1.398 . S
C776 C777 1.391 . S
C777 H765 0.950 . S
C777 C773 1.393 . S
C777 C776 1.391 . S
C778 H768 0.950 . S
C778 C779 1.386 . S
C778 C780 1.391 . S
C779 C778 1.386 . S
C779 C783 1.393 . S
C780 H769 0.950 . S
C780 C778 1.391 . S
C780 C781 1.400 . S
C781 C775 1.491 . S
C781 C780 1.400 . S
C781 C782 1.398 . S
C782 H770 0.950 . S
C782 C781 1.398 . S
C782 C783 1.391 . S
C783 H771 0.950 . S
C783 C779 1.393 . S
C783 C782 1.391 . S
H784 C792 0.950 . S
H785 C797 0.950 . S
H786 C794 0.950 . S
H787 C796 0.950 . S
H788 C798 0.950 . S
H789 C800 0.950 . S
H790 C802 0.950 . S
H791 C803 0.950 . S
C792 H784 0.950 . S
C792 C793 1.386 . S
C792 C794 1.391 . S
C793 C792 1.386 . S
C793 C797 1.393 . S
C794 H786 0.950 . S
C794 C792 1.391 . S
C794 C795 1.400 . S
C795 C794 1.400 . S
C795 C796 1.398 . S
C795 C801 1.491 . S
C796 H787 0.950 . S
C796 C795 1.398 . S
C796 C797 1.391 . S
C797 H785 0.950 . S
C797 C793 1.393 . S
C797 C796 1.391 . S
C798 H788 0.950 . S
C798 C799 1.386 . S
C798 C800 1.391 . S
C799 C798 1.386 . S
C799 C803 1.393 . S
C800 H789 0.950 . S
C800 C798 1.391 . S
C800 C801 1.400 . S
C801 C795 1.491 . S
C801 C800 1.400 . S
C801 C802 1.398 . S
C802 H790 0.950 . S
C802 C801 1.398 . S
C802 C803 1.391 . S
C803 H791 0.950 . S
C803 C799 1.393 . S
C803 C802 1.391 . S
H804 C812 0.950 . S
H805 C817 0.950 . S
H806 C814 0.950 . S
H807 C816 0.950 . S
H808 C818 0.950 . S
H809 C820 0.950 . S
H810 C822 0.950 . S
H811 C823 0.950 . S
C812 H804 0.950 . S
C812 C813 1.386 . S
C812 C814 1.391 . S
C813 C812 1.386 . S
C813 C817 1.393 . S
C814 H806 0.950 . S
C814 C812 1.391 . S
C814 C815 1.400 . S
C815 C814 1.400 . S
C815 C816 1.398 . S
C815 C821 1.491 . S
C816 H807 0.950 . S
C816 C815 1.398 . S
C816 C817 1.391 . S
C817 H805 0.950 . S
C817 C813 1.393 . S
C817 C816 1.391 . S
C818 H808 0.950 . S
C818 C819 1.386 . S
C818 C820 1.391 . S
C819 C818 1.386 . S
C819 C823 1.393 . S
C820 H809 0.950 . S
C820 C818 1.391 . S
C820 C821 1.400 . S
C821 C815 1.491 . S
C821 C820 1.400 . S
C821 C822 1.398 . S
C822 H810 0.950 . S
C822 C821 1.398 . S
C822 C823 1.391 . S
C823 H811 0.950 . S
C823 C819 1.393 . S
C823 C822 1.391 . S
H824 C832 0.950 . S
H825 C837 0.950 . S
H826 C834 0.950 . S
H827 C836 0.950 . S
H828 C838 0.950 . S
H829 C840 0.950 . S
H830 C842 0.950 . S
H831 C843 0.950 . S
C832 H824 0.950 . S
C832 C833 1.386 . S
C832 C834 1.391 . S
C833 C832 1.386 . S
C833 C837 1.393 . S
C834 H826 0.950 . S
C834 C832 1.391 . S
C834 C835 1.400 . S
C835 C834 1.400 . S
C835 C836 1.398 . S
C835 C841 1.491 . S
C836 H827 0.950 . S
C836 C835 1.398 . S
C836 C837 1.391 . S
C837 H825 0.950 . S
C837 C833 1.393 . S
C837 C836 1.391 . S
C838 H828 0.950 . S
C838 C839 1.386 . S
C838 C840 1.391 . S
C839 C838 1.386 . S
C839 C843 1.393 . S
C840 H829 0.950 . S
C840 C838 1.391 . S
C840 C841 1.400 . S
C841 C835 1.491 . S
C841 C840 1.400 . S
C841 C842 1.398 . S
C842 H830 0.950 . S
C842 C841 1.398 . S
C842 C843 1.391 . S
C843 H831 0.950 . S
C843 C839 1.393 . S
C843 C842 1.391 . S
H844 C852 0.950 . S
H845 C857 0.950 . S
H846 C854 0.950 . S
H847 C856 0.950 . S
H848 C858 0.950 . S
H849 C860 0.950 . S
H850 C862 0.950 . S
H851 C863 0.950 . S
C852 H844 0.950 . S
C852 C853 1.386 . S
C852 C854 1.391 . S
C853 C852 1.386 . S
C853 C857 1.393 . S
C854 H846 0.950 . S
C854 C852 1.391 . S
C854 C855 1.400 . S
C855 C854 1.400 . S
C855 C856 1.398 . S
C855 C861 1.491 . S
C856 H847 0.950 . S
C856 C855 1.398 . S
C856 C857 1.391 . S
C857 H845 0.950 . S
C857 C853 1.393 . S
C857 C856 1.391 . S
C858 H848 0.950 . S
C858 C859 1.386 . S
C858 C860 1.391 . S
C859 C858 1.386 . S
C859 C863 1.393 . S
C860 H849 0.950 . S
C860 C858 1.391 . S
C860 C861 1.400 . S
C861 C855 1.491 . S
C861 C860 1.400 . S
C861 C862 1.398 . S
C862 H850 0.950 . S
C862 C861 1.398 . S
C862 C863 1.391 . S
C863 H851 0.950 . S
C863 C859 1.393 . S
C863 C862 1.391 . S
C233 C67 1.235 . S
C239 C11 1.230 1_554 S
C253 C81 1.235 . S
C259 C25 1.230 1_554 S
C273 C95 1.234 . S
C279 C39 1.231 1_554 S
C293 C109 1.239 1_556 S
C299 C53 1.231 1_554 S
C313 C179 1.231 . S
C319 C123 1.238 . S
C333 C193 1.240 . S
C339 C137 1.231 . S
C353 C151 1.235 . S
C359 C207 1.231 . S
C373 C221 1.239 . S
C379 C165 1.246 . S
C393 C8 1.189 1_556 S
C399 C78 1.157 1_554 S
C413 C92 1.173 1_554 S
C419 C22 1.152 1_556 S
C433 C36 1.173 1_556 S
C439 C106 1.153 1_554 S
C453 C64 1.190 1_554 S
C459 C50 1.161 1_556 S
C473 C190 1.156 . S
C479 C120 1.166 . S
C493 C204 1.173 . S
C499 C134 1.152 . S
C513 C148 1.190 . S
C519 C218 1.166 . S
C533 C162 1.183 . S
C539 C176 1.180 . S
C553 C223 1.327 . S
C559 C13 1.317 . S
C573 C181 1.316 . S
C579 C27 1.333 . S
C593 C195 1.356 . S
C599 C41 1.337 . S
C613 C209 1.356 . S
C619 C55 1.345 . S
C633 C139 1.340 . S
C639 C69 1.318 . S
C653 C153 1.356 . S
C659 C83 1.341 . S
C673 C97 1.345 . S
C679 C167 1.321 . S
C693 C111 1.353 . S
C699 C125 1.351 . S
C713 C189 1.533 . S
C719 C35 1.538 . S
C733 C203 1.533 . S
C739 C49 1.535 . S
C753 C217 1.541 . S
C759 C7 1.534 . S
C773 C21 1.542 . S
C779 C175 1.535 . S
C793 C161 1.533 . S
C799 C91 1.537 . S
C813 C105 1.534 . S
C819 C119 1.533 . S
C833 C133 1.534 . S
C839 C63 1.534 . S
C853 C147 1.544 . S
C859 C77 1.539 . S
