# Generated by pormake.
# Topology yft, (5)-cn, num edge types: 1
# Building blocks:
#     Node 0, Type 0, BuildingBlock: BEQFEK_clean_sbu_0, # of connection points: 5
#     Node 1, Type 0, BuildingBlock: BEQFEK_clean_sbu_0, # of connection points: 5
#     Node 2, Type 0, BuildingBlock: BEQFEK_clean_sbu_0, # of connection points: 5
#     Node 3, Type 0, BuildingBlock: BEQFEK_clean_sbu_0, # of connection points: 5
#     Node 4, Type 0, BuildingBlock: BEQFEK_clean_sbu_0, # of connection points: 5
#     Node 5, Type 0, BuildingBlock: BEQFEK_clean_sbu_0, # of connection points: 5
#     Node 6, Type 0, BuildingBlock: BEQFEK_clean_sbu_0, # of connection points: 5
#     Node 7, Type 0, BuildingBlock: BEQFEK_clean_sbu_0, # of connection points: 5
#     Node 8, Type 0, BuildingBlock: BEQFEK_clean_sbu_0, # of connection points: 5
#     Node 9, Type 0, BuildingBlock: BEQFEK_clean_sbu_0, # of connection points: 5
#     Node 10, Type 0, BuildingBlock: BEQFEK_clean_sbu_0, # of connection points: 5
#     Node 11, Type 0, BuildingBlock: BEQFEK_clean_sbu_0, # of connection points: 5
#     Node 12, Type 0, BuildingBlock: BEQFEK_clean_sbu_0, # of connection points: 5
#     Node 13, Type 0, BuildingBlock: BEQFEK_clean_sbu_0, # of connection points: 5
#     Node 14, Type 0, BuildingBlock: BEQFEK_clean_sbu_0, # of connection points: 5
#     Node 15, Type 0, BuildingBlock: BEQFEK_clean_sbu_0, # of connection points: 5
#     Node 16, Type 0, BuildingBlock: BEQFEK_clean_sbu_0, # of connection points: 5
#     Node 17, Type 0, BuildingBlock: BEQFEK_clean_sbu_0, # of connection points: 5
#     Node 18, Type 0, BuildingBlock: BEQFEK_clean_sbu_0, # of connection points: 5
#     Node 19, Type 0, BuildingBlock: BEQFEK_clean_sbu_0, # of connection points: 5
#     Node 20, Type 0, BuildingBlock: BEQFEK_clean_sbu_0, # of connection points: 5
#     Node 21, Type 0, BuildingBlock: BEQFEK_clean_sbu_0, # of connection points: 5
#     Node 22, Type 0, BuildingBlock: BEQFEK_clean_sbu_0, # of connection points: 5
#     Node 23, Type 0, BuildingBlock: BEQFEK_clean_sbu_0, # of connection points: 5
#     Node 24, Type 0, BuildingBlock: BEQFEK_clean_sbu_0, # of connection points: 5
#     Node 25, Type 0, BuildingBlock: BEQFEK_clean_sbu_0, # of connection points: 5
#     Node 26, Type 0, BuildingBlock: BEQFEK_clean_sbu_0, # of connection points: 5
#     Node 27, Type 0, BuildingBlock: BEQFEK_clean_sbu_0, # of connection points: 5
#     Node 28, Type 0, BuildingBlock: BEQFEK_clean_sbu_0, # of connection points: 5
#     Node 29, Type 0, BuildingBlock: BEQFEK_clean_sbu_0, # of connection points: 5
#     Node 30, Type 0, BuildingBlock: BEQFEK_clean_sbu_0, # of connection points: 5
#     Node 31, Type 0, BuildingBlock: BEQFEK_clean_sbu_0, # of connection points: 5
#     Edge 32, Type (0, 0), BuildingBlock: UVAHIK_clean_linker_0, # of connection points: 2
#     Edge 33, Type (0, 0), BuildingBlock: UVAHIK_clean_linker_0, # of connection points: 2
#     Edge 34, Type (0, 0), BuildingBlock: UVAHIK_clean_linker_0, # of connection points: 2
#     Edge 35, Type (0, 0), BuildingBlock: UVAHIK_clean_linker_0, # of connection points: 2
#     Edge 36, Type (0, 0), BuildingBlock: UVAHIK_clean_linker_0, # of connection points: 2
#     Edge 37, Type (0, 0), BuildingBlock: UVAHIK_clean_linker_0, # of connection points: 2
#     Edge 38, Type (0, 0), BuildingBlock: UVAHIK_clean_linker_0, # of connection points: 2
#     Edge 39, Type (0, 0), BuildingBlock: UVAHIK_clean_linker_0, # of connection points: 2
#     Edge 40, Type (0, 0), BuildingBlock: UVAHIK_clean_linker_0, # of connection points: 2
#     Edge 41, Type (0, 0), BuildingBlock: UVAHIK_clean_linker_0, # of connection points: 2
#     Edge 42, Type (0, 0), BuildingBlock: UVAHIK_clean_linker_0, # of connection points: 2
#     Edge 43, Type (0, 0), BuildingBlock: UVAHIK_clean_linker_0, # of connection points: 2
#     Edge 44, Type (0, 0), BuildingBlock: UVAHIK_clean_linker_0, # of connection points: 2
#     Edge 45, Type (0, 0), BuildingBlock: UVAHIK_clean_linker_0, # of connection points: 2
#     Edge 46, Type (0, 0), BuildingBlock: UVAHIK_clean_linker_0, # of connection points: 2
#     Edge 47, Type (0, 0), BuildingBlock: UVAHIK_clean_linker_0, # of connection points: 2
#     Edge 48, Type (0, 0), BuildingBlock: UVAHIK_clean_linker_0, # of connection points: 2
#     Edge 49, Type (0, 0), BuildingBlock: UVAHIK_clean_linker_0, # of connection points: 2
#     Edge 50, Type (0, 0), BuildingBlock: UVAHIK_clean_linker_0, # of connection points: 2
#     Edge 51, Type (0, 0), BuildingBlock: UVAHIK_clean_linker_0, # of connection points: 2
#     Edge 52, Type (0, 0), BuildingBlock: UVAHIK_clean_linker_0, # of connection points: 2
#     Edge 53, Type (0, 0), BuildingBlock: UVAHIK_clean_linker_0, # of connection points: 2
#     Edge 54, Type (0, 0), BuildingBlock: UVAHIK_clean_linker_0, # of connection points: 2
#     Edge 55, Type (0, 0), BuildingBlock: UVAHIK_clean_linker_0, # of connection points: 2
#     Edge 56, Type (0, 0), BuildingBlock: UVAHIK_clean_linker_0, # of connection points: 2
#     Edge 57, Type (0, 0), BuildingBlock: UVAHIK_clean_linker_0, # of connection points: 2
#     Edge 58, Type (0, 0), BuildingBlock: UVAHIK_clean_linker_0, # of connection points: 2
#     Edge 59, Type (0, 0), BuildingBlock: UVAHIK_clean_linker_0, # of connection points: 2
#     Edge 60, Type (0, 0), BuildingBlock: UVAHIK_clean_linker_0, # of connection points: 2
#     Edge 61, Type (0, 0), BuildingBlock: UVAHIK_clean_linker_0, # of connection points: 2
#     Edge 62, Type (0, 0), BuildingBlock: UVAHIK_clean_linker_0, # of connection points: 2
#     Edge 63, Type (0, 0), BuildingBlock: UVAHIK_clean_linker_0, # of connection points: 2
#     Edge 64, Type (0, 0), BuildingBlock: UVAHIK_clean_linker_0, # of connection points: 2
#     Edge 65, Type (0, 0), BuildingBlock: UVAHIK_clean_linker_0, # of connection points: 2
#     Edge 66, Type (0, 0), BuildingBlock: UVAHIK_clean_linker_0, # of connection points: 2
#     Edge 67, Type (0, 0), BuildingBlock: UVAHIK_clean_linker_0, # of connection points: 2
#     Edge 68, Type (0, 0), BuildingBlock: UVAHIK_clean_linker_0, # of connection points: 2
#     Edge 69, Type (0, 0), BuildingBlock: UVAHIK_clean_linker_0, # of connection points: 2
#     Edge 70, Type (0, 0), BuildingBlock: UVAHIK_clean_linker_0, # of connection points: 2
#     Edge 71, Type (0, 0), BuildingBlock: UVAHIK_clean_linker_0, # of connection points: 2
#     Edge 72, Type (0, 0), BuildingBlock: UVAHIK_clean_linker_0, # of connection points: 2
#     Edge 73, Type (0, 0), BuildingBlock: UVAHIK_clean_linker_0, # of connection points: 2
#     Edge 74, Type (0, 0), BuildingBlock: UVAHIK_clean_linker_0, # of connection points: 2
#     Edge 75, Type (0, 0), BuildingBlock: UVAHIK_clean_linker_0, # of connection points: 2
#     Edge 76, Type (0, 0), BuildingBlock: UVAHIK_clean_linker_0, # of connection points: 2
#     Edge 77, Type (0, 0), BuildingBlock: UVAHIK_clean_linker_0, # of connection points: 2
#     Edge 78, Type (0, 0), BuildingBlock: UVAHIK_clean_linker_0, # of connection points: 2
#     Edge 79, Type (0, 0), BuildingBlock: UVAHIK_clean_linker_0, # of connection points: 2
#     Edge 80, Type (0, 0), BuildingBlock: UVAHIK_clean_linker_0, # of connection points: 2
#     Edge 81, Type (0, 0), BuildingBlock: UVAHIK_clean_linker_0, # of connection points: 2
#     Edge 82, Type (0, 0), BuildingBlock: UVAHIK_clean_linker_0, # of connection points: 2
#     Edge 83, Type (0, 0), BuildingBlock: UVAHIK_clean_linker_0, # of connection points: 2
#     Edge 84, Type (0, 0), BuildingBlock: UVAHIK_clean_linker_0, # of connection points: 2
#     Edge 85, Type (0, 0), BuildingBlock: UVAHIK_clean_linker_0, # of connection points: 2
#     Edge 86, Type (0, 0), BuildingBlock: UVAHIK_clean_linker_0, # of connection points: 2
#     Edge 87, Type (0, 0), BuildingBlock: UVAHIK_clean_linker_0, # of connection points: 2
#     Edge 88, Type (0, 0), BuildingBlock: UVAHIK_clean_linker_0, # of connection points: 2
#     Edge 89, Type (0, 0), BuildingBlock: UVAHIK_clean_linker_0, # of connection points: 2
#     Edge 90, Type (0, 0), BuildingBlock: UVAHIK_clean_linker_0, # of connection points: 2
#     Edge 91, Type (0, 0), BuildingBlock: UVAHIK_clean_linker_0, # of connection points: 2
#     Edge 92, Type (0, 0), BuildingBlock: UVAHIK_clean_linker_0, # of connection points: 2
#     Edge 93, Type (0, 0), BuildingBlock: UVAHIK_clean_linker_0, # of connection points: 2
#     Edge 94, Type (0, 0), BuildingBlock: UVAHIK_clean_linker_0, # of connection points: 2
#     Edge 95, Type (0, 0), BuildingBlock: UVAHIK_clean_linker_0, # of connection points: 2
#     Edge 96, Type (0, 0), BuildingBlock: UVAHIK_clean_linker_0, # of connection points: 2
#     Edge 97, Type (0, 0), BuildingBlock: UVAHIK_clean_linker_0, # of connection points: 2
#     Edge 98, Type (0, 0), BuildingBlock: UVAHIK_clean_linker_0, # of connection points: 2
#     Edge 99, Type (0, 0), BuildingBlock: UVAHIK_clean_linker_0, # of connection points: 2
#     Edge 100, Type (0, 0), BuildingBlock: UVAHIK_clean_linker_0, # of connection points: 2
#     Edge 101, Type (0, 0), BuildingBlock: UVAHIK_clean_linker_0, # of connection points: 2
#     Edge 102, Type (0, 0), BuildingBlock: UVAHIK_clean_linker_0, # of connection points: 2
#     Edge 103, Type (0, 0), BuildingBlock: UVAHIK_clean_linker_0, # of connection points: 2
#     Edge 104, Type (0, 0), BuildingBlock: UVAHIK_clean_linker_0, # of connection points: 2
#     Edge 105, Type (0, 0), BuildingBlock: UVAHIK_clean_linker_0, # of connection points: 2
#     Edge 106, Type (0, 0), BuildingBlock: UVAHIK_clean_linker_0, # of connection points: 2
#     Edge 107, Type (0, 0), BuildingBlock: UVAHIK_clean_linker_0, # of connection points: 2
#     Edge 108, Type (0, 0), BuildingBlock: UVAHIK_clean_linker_0, # of connection points: 2
#     Edge 109, Type (0, 0), BuildingBlock: UVAHIK_clean_linker_0, # of connection points: 2
#     Edge 110, Type (0, 0), BuildingBlock: UVAHIK_clean_linker_0, # of connection points: 2
#     Edge 111, Type (0, 0), BuildingBlock: UVAHIK_clean_linker_0, # of connection points: 2
# Relax obj value: 0.342
# Max RMSD: 0.199
# Mean RMSD: 0.199
data_MOF--net-yft--node1-BEQFEK_clean_sbu_0--edge1-UVAHIK_clean_linker_0
_symmetry_space_group_name_H-M    P1
_symmetry_Int_Tables_number       1
_symmetry_cell_setting            triclinic
loop_
_symmetry_equiv_pos_as_xyz
'x, y, z'
_cell_length_a     59.963035
_cell_length_b     59.964589
_cell_length_c     103.29402
_cell_angle_alpha  90.00943
_cell_angle_beta   89.995558
_cell_angle_gamma 89.98565
loop_
_atom_site_label
_atom_site_type_symbol
_atom_site_fract_x
_atom_site_fract_y
_atom_site_fract_z
_atom_type_partial_charge
Co0 Co 0.36521 0.17949 0.18482 0.0
Co1 Co 0.32381 0.15927 0.1706 0.0
C2 C 0.36902 0.13876 0.16814 0.0
O3 O 0.37734 0.15329 0.17571 0.0
O4 O 0.34836 0.13895 0.16528 0.0
C5 C 0.40378 0.18044 0.2015 0.0
O6 O 0.40299 0.1586 0.20059 0.0
C7 C 0.29022 0.12734 0.16129 0.0
C8 C 0.26227 0.14991 0.15646 0.0
C9 C 0.26864 0.12771 0.15645 0.0
N10 N 0.29629 0.14838 0.16403 0.0
N11 N 0.27957 0.16179 0.16105 0.0
C12 C 0.30451 0.10739 0.16387 0.0
H13 H 0.31541 0.11051 0.17237 0.0
H14 H 0.29414 0.09235 0.16562 0.0
H15 H 0.31531 0.10431 0.15534 0.0
C16 C 0.33371 0.17987 0.20639 0.0
N17 N 0.33973 0.17243 0.19463 0.0
N18 N 0.32237 0.16344 0.18885 0.0
C19 C 0.30476 0.16456 0.19692 0.0
C20 C 0.31119 0.1754 0.20822 0.0
C21 C 0.34804 0.19515 0.21431 0.0
H22 H 0.35362 0.20933 0.20822 0.0
H23 H 0.36309 0.18595 0.21753 0.0
H24 H 0.33925 0.20174 0.22293 0.0
O25 O 0.35774 0.2027 0.172 0.0
O26 O 0.32812 0.18856 0.16209 0.0
H27 H 0.27457 0.17122 0.18665 0.0
H28 H 0.27058 0.15729 0.20194 0.0
C29 C 0.28144 0.15837 0.19325 0.0
H30 H 0.28142 0.14208 0.18818 0.0
H31 H 0.27997 0.17908 0.16216 0.0
O32 O 0.38905 0.1921 0.19581 0.0
C33 C 0.34231 0.20413 0.16358 0.0
Co34 Co 0.06975 0.11404 0.43515 0.0
Co35 Co 0.09029 0.07348 0.42009 0.0
C36 C 0.10968 0.11908 0.4178 0.0
O37 O 0.09518 0.12712 0.42552 0.0
O38 O 0.10995 0.09842 0.41497 0.0
C39 C 0.06675 0.15451 0.45044 0.0
O40 O 0.08756 0.15787 0.44697 0.0
C41 C 0.12083 0.04084 0.408 0.0
C42 C 0.09758 0.01286 0.40447 0.0
C43 C 0.11942 0.01963 0.40261 0.0
N44 N 0.10071 0.04614 0.41289 0.0
N45 N 0.08695 0.02935 0.41075 0.0
C46 C 0.13969 0.05711 0.40706 0.0
H47 H 0.13446 0.07121 0.40082 0.0
H48 H 0.1434 0.06395 0.41681 0.0
H49 H 0.15491 0.0497 0.40281 0.0
C50 C 0.07132 0.08203 0.45638 0.0
N51 N 0.078 0.08844 0.44453 0.0
N52 N 0.0868 0.07134 0.4384 0.0
C53 C 0.08635 0.05351 0.44635 0.0
C54 C 0.07607 0.0595 0.4579 0.0
C55 C 0.05636 0.096 0.46471 0.0
H56 H 0.04117 0.10052 0.45916 0.0
H57 H 0.06512 0.11167 0.46729 0.0
H58 H 0.05134 0.08736 0.47373 0.0
O59 O 0.04571 0.10606 0.42292 0.0
O60 O 0.06091 0.07824 0.41183 0.0
H61 H 0.07933 0.02303 0.43644 0.0
H62 H 0.09533 0.01965 0.45105 0.0
C63 C 0.0928 0.03038 0.44242 0.0
H64 H 0.10837 0.03081 0.43663 0.0
H65 H 0.07009 0.02942 0.41324 0.0
O66 O 0.05678 0.13698 0.44669 0.0
C67 C 0.04475 0.09145 0.41401 0.0
Co68 Co 0.13227 0.81536 0.68375 0.0
Co69 Co 0.17195 0.84046 0.67049 0.0
C70 C 0.12571 0.85792 0.66862 0.0
O71 O 0.11847 0.84153 0.67524 0.0
O72 O 0.14642 0.86007 0.66613 0.0
C73 C 0.09247 0.80939 0.69922 0.0
O74 O 0.08932 0.83084 0.69741 0.0
C75 C 0.20447 0.87406 0.6615 0.0
C76 C 0.23364 0.85253 0.65756 0.0
C77 C 0.22636 0.87442 0.65713 0.0
N78 N 0.19914 0.85287 0.66441 0.0
N79 N 0.2166 0.84011 0.66194 0.0
C80 C 0.18914 0.89346 0.66338 0.0
H81 H 0.1781 0.89047 0.67183 0.0
H82 H 0.19869 0.90912 0.66483 0.0
H83 H 0.1785 0.8953 0.65466 0.0
C84 C 0.16321 0.81563 0.70556 0.0
N85 N 0.15698 0.8234 0.6939 0.0
N86 N 0.1737 0.8342 0.68856 0.0
C87 C 0.19107 0.83397 0.69684 0.0
C88 C 0.18518 0.82187 0.7078 0.0
C89 C 0.14988 0.79876 0.71296 0.0
H90 H 0.14568 0.78458 0.7065 0.0
H91 H 0.13402 0.80651 0.71617 0.0
H92 H 0.15885 0.79231 0.72155 0.0
O93 O 0.14177 0.79369 0.6705 0.0
O94 O 0.16883 0.8123 0.66062 0.0
H95 H 0.22256 0.83084 0.68734 0.0
H96 H 0.22381 0.84485 0.70274 0.0
C97 C 0.21381 0.84277 0.69378 0.0
H98 H 0.21243 0.85906 0.68877 0.0
H99 H 0.21685 0.82286 0.66325 0.0
O100 O 0.10957 0.80004 0.69439 0.0
C101 C 0.15661 0.79507 0.66174 0.0
Co102 Co 0.42813 0.88452 0.93489 0.0
Co103 Co 0.40528 0.92371 0.91986 0.0
C104 C 0.38763 0.87716 0.91856 0.0
O105 O 0.40256 0.86999 0.92626 0.0
O106 O 0.38678 0.89757 0.91523 0.0
C107 C 0.43288 0.8467 0.95207 0.0
O108 O 0.41101 0.84558 0.95155 0.0
C109 C 0.37047 0.95347 0.90989 0.0
C110 C 0.39001 0.98339 0.90466 0.0
C111 C 0.36864 0.97464 0.90462 0.0
N112 N 0.39196 0.94985 0.9129 0.0
N113 N 0.40357 0.96776 0.9097 0.0
C114 C 0.35211 0.93719 0.91249 0.0
H115 H 0.35122 0.92509 0.90438 0.0
H116 H 0.35564 0.9278 0.92152 0.0
H117 H 0.33579 0.94581 0.91336 0.0
C118 C 0.42625 0.91688 0.95596 0.0
N119 N 0.4194 0.90992 0.94425 0.0
N120 N 0.40973 0.92652 0.9381 0.0
C121 C 0.40987 0.94459 0.94586 0.0
C122 C 0.42067 0.93924 0.95736 0.0
C123 C 0.44201 0.9037 0.96423 0.0
H124 H 0.45685 0.899 0.95841 0.0
H125 H 0.43367 0.88811 0.96737 0.0
H126 H 0.44756 0.91301 0.97291 0.0
O127 O 0.45077 0.89335 0.92198 0.0
O128 O 0.43436 0.92064 0.91099 0.0
H129 H 0.41525 0.97444 0.93504 0.0
H130 H 0.40102 0.97867 0.95022 0.0
C131 C 0.40267 0.96739 0.94175 0.0
H132 H 0.38643 0.96641 0.93665 0.0
H133 H 0.42078 0.96925 0.91089 0.0
O134 O 0.44291 0.86223 0.94607 0.0
C135 C 0.45097 0.90792 0.91302 0.0
Co136 Co 0.36654 0.81857 0.31127 0.0
Co137 Co 0.32389 0.8381 0.32463 0.0
C138 C 0.36887 0.85879 0.32831 0.0
O139 O 0.37815 0.84459 0.3209 0.0
O140 O 0.34799 0.85829 0.33052 0.0
C141 C 0.40862 0.81478 0.2974 0.0
O142 O 0.41215 0.8356 0.3008 0.0
C143 C 0.29 0.87019 0.33329 0.0
C144 C 0.26161 0.84787 0.33759 0.0
C145 C 0.26821 0.86999 0.33778 0.0
N146 N 0.29599 0.84912 0.33056 0.0
N147 N 0.27899 0.83585 0.33322 0.0
C148 C 0.30471 0.88999 0.33116 0.0
H149 H 0.31576 0.88707 0.32271 0.0
H150 H 0.29466 0.9053 0.32958 0.0
H151 H 0.31536 0.89243 0.33983 0.0
C152 C 0.33717 0.81888 0.28885 0.0
N153 N 0.34195 0.82603 0.30085 0.0
N154 N 0.32371 0.83379 0.30632 0.0
C155 C 0.30669 0.83176 0.29785 0.0
C156 C 0.31456 0.82177 0.2866 0.0
C157 C 0.35299 0.80564 0.28067 0.0
H158 H 0.36876 0.81507 0.27949 0.0
H159 H 0.34586 0.80211 0.27097 0.0
H160 H 0.35688 0.78966 0.2856 0.0
O161 O 0.35759 0.79489 0.32359 0.0
O162 O 0.32798 0.80923 0.33346 0.0
H163 H 0.27739 0.82104 0.3078 0.0
H164 H 0.27191 0.83488 0.29265 0.0
C165 C 0.2827 0.83487 0.30138 0.0
H166 H 0.28053 0.85088 0.30658 0.0
H167 H 0.27932 0.81856 0.33212 0.0
O168 O 0.39061 0.80524 0.30073 0.0
C169 C 0.34201 0.79356 0.33191 0.0
Co170 Co 0.42808 0.1166 0.56095 0.0
Co171 Co 0.40621 0.07565 0.5749 0.0
C172 C 0.38696 0.12119 0.57745 0.0
O173 O 0.40202 0.1294 0.57017 0.0
O174 O 0.38637 0.10043 0.57999 0.0
C175 C 0.43067 0.15525 0.54417 0.0
O176 O 0.40878 0.15534 0.54476 0.0
C177 C 0.37497 0.04288 0.58618 0.0
C178 C 0.39764 0.01424 0.5892 0.0
C179 C 0.37594 0.02136 0.59117 0.0
N180 N 0.3952 0.04803 0.58141 0.0
N181 N 0.40861 0.03083 0.58322 0.0
C182 C 0.35647 0.05949 0.58749 0.0
H183 H 0.36182 0.07276 0.59428 0.0
H184 H 0.35326 0.06741 0.57796 0.0
H185 H 0.34092 0.05204 0.59129 0.0
C186 C 0.42824 0.08527 0.53933 0.0
N187 N 0.42059 0.09141 0.55103 0.0
N188 N 0.41075 0.07434 0.55663 0.0
C189 C 0.41114 0.05692 0.54839 0.0
C190 C 0.42268 0.06303 0.53726 0.0
C191 C 0.44456 0.09904 0.53178 0.0
H192 H 0.45791 0.10507 0.53835 0.0
H193 H 0.43583 0.11384 0.52781 0.0
H194 H 0.45235 0.08972 0.52372 0.0
O195 O 0.45125 0.10801 0.5735 0.0
O196 O 0.43518 0.07983 0.58387 0.0
H197 H 0.4151 0.02521 0.55757 0.0
H198 H 0.39978 0.0243 0.5426 0.0
C199 C 0.40264 0.03411 0.55157 0.0
H200 H 0.38683 0.03536 0.55709 0.0
H201 H 0.42548 0.03071 0.58075 0.0
O202 O 0.4415 0.14017 0.55009 0.0
C203 C 0.45156 0.093 0.58219 0.0
Co204 Co 0.13368 0.18297 0.80959 0.0
Co205 Co 0.17171 0.15829 0.82468 0.0
C206 C 0.12474 0.14269 0.82617 0.0
O207 O 0.11852 0.15841 0.81873 0.0
O208 O 0.14514 0.14029 0.82928 0.0
C209 C 0.09489 0.18732 0.79345 0.0
O210 O 0.09278 0.16582 0.79555 0.0
C211 C 0.20106 0.12304 0.83466 0.0
C212 C 0.2312 0.14228 0.83985 0.0
C213 C 0.22226 0.121 0.83988 0.0
N214 N 0.19762 0.14458 0.83169 0.0
N215 N 0.21565 0.156 0.83488 0.0
C216 C 0.18463 0.10482 0.83203 0.0
H217 H 0.17273 0.10378 0.84023 0.0
H218 H 0.17504 0.10863 0.82311 0.0
H219 H 0.19316 0.08849 0.83096 0.0
C220 C 0.16574 0.17937 0.78855 0.0
N221 N 0.15855 0.17285 0.80027 0.0
N222 N 0.17474 0.16254 0.80643 0.0
C223 C 0.19279 0.16195 0.79866 0.0
C224 C 0.18788 0.17295 0.78716 0.0
C225 C 0.15318 0.19567 0.78031 0.0
H226 H 0.1494 0.21081 0.78608 0.0
H227 H 0.13708 0.1881 0.77735 0.0
H228 H 0.16251 0.20059 0.77151 0.0
O229 O 0.1435 0.20571 0.82217 0.0
O230 O 0.16932 0.18762 0.83348 0.0
H231 H 0.22282 0.16635 0.80948 0.0
H232 H 0.22655 0.15191 0.79433 0.0
C233 C 0.21533 0.15398 0.8028 0.0
H234 H 0.21378 0.13781 0.80792 0.0
H235 H 0.21731 0.1732 0.83369 0.0
O236 O 0.11152 0.19762 0.79819 0.0
C237 C 0.15775 0.20501 0.83129 0.0
Co238 Co 0.0674 0.88212 0.0617 0.0
Co239 Co 0.08867 0.92175 0.07732 0.0
C240 C 0.10774 0.87597 0.0786 0.0
O241 O 0.09307 0.86848 0.07083 0.0
O242 O 0.10814 0.89639 0.08194 0.0
C243 C 0.06422 0.84241 0.04585 0.0
O244 O 0.08524 0.83937 0.04897 0.0
C245 C 0.11956 0.95383 0.08974 0.0
C246 C 0.09655 0.98204 0.09325 0.0
C247 C 0.11835 0.97511 0.09508 0.0
N248 N 0.09939 0.9487 0.08486 0.0
N249 N 0.08576 0.9656 0.08704 0.0
C250 C 0.13841 0.93752 0.09058 0.0
H251 H 0.13258 0.92229 0.09563 0.0
H252 H 0.14358 0.9326 0.08067 0.0
H253 H 0.15288 0.94421 0.09598 0.0
C254 C 0.06927 0.91505 0.04093 0.0
N255 N 0.07578 0.90805 0.0527 0.0
N256 N 0.08496 0.92472 0.05904 0.0
C257 C 0.08495 0.94283 0.05131 0.0
C258 C 0.07458 0.9375 0.03968 0.0
C259 C 0.05411 0.90169 0.03239 0.0
H260 H 0.03892 0.89703 0.0379 0.0
H261 H 0.0627 0.88607 0.02951 0.0
H262 H 0.04912 0.91087 0.02355 0.0
O263 O 0.04366 0.88979 0.07422 0.0
O264 O 0.05935 0.91698 0.0856 0.0
H265 H 0.07873 0.97325 0.06146 0.0
H266 H 0.09501 0.97652 0.04696 0.0
C267 C 0.09205 0.96564 0.05548 0.0
H268 H 0.10753 0.96458 0.06132 0.0
H269 H 0.06891 0.9657 0.08451 0.0
O270 O 0.05409 0.85966 0.04993 0.0
C271 C 0.043 0.90407 0.08332 0.0
Co272 Co 0.63278 0.81832 0.81135 0.0
Co273 Co 0.67323 0.83883 0.82646 0.0
C274 C 0.62767 0.85807 0.82889 0.0
O275 O 0.61969 0.84362 0.82114 0.0
O276 O 0.64832 0.85834 0.83173 0.0
C277 C 0.59425 0.81765 0.7946 0.0
O278 O 0.59439 0.8394 0.79613 0.0
C279 C 0.70584 0.86951 0.8384 0.0
C280 C 0.73381 0.84632 0.84212 0.0
C281 C 0.72707 0.86822 0.84378 0.0
N282 N 0.70051 0.84928 0.8337 0.0
N283 N 0.71729 0.83554 0.83596 0.0
C284 C 0.68962 0.88845 0.83913 0.0
H285 H 0.6754 0.8834 0.84533 0.0
H286 H 0.68296 0.892 0.82932 0.0
H287 H 0.697 0.90373 0.84333 0.0
C288 C 0.665 0.82002 0.79017 0.0
N289 N 0.65836 0.82675 0.80197 0.0
N290 N 0.67532 0.83575 0.80814 0.0
C291 C 0.69323 0.83548 0.80026 0.0
C292 C 0.68749 0.82502 0.78872 0.0
C293 C 0.65135 0.80479 0.78184 0.0
H294 H 0.64627 0.78998 0.78757 0.0
H295 H 0.63596 0.81361 0.7788 0.0
H296 H 0.66047 0.7992 0.77309 0.0
O297 O 0.6409 0.79399 0.82336 0.0
O298 O 0.6687 0.80919 0.83446 0.0
H299 H 0.72365 0.82874 0.81029 0.0
H300 H 0.72707 0.84472 0.79568 0.0
C301 C 0.71625 0.84213 0.80427 0.0
H302 H 0.71562 0.85772 0.81003 0.0
H303 H 0.71722 0.81863 0.83358 0.0
O304 O 0.60942 0.80599 0.79989 0.0
C305 C 0.65564 0.79295 0.83219 0.0
Co306 Co 0.93179 0.88339 0.56055 0.0
Co307 Co 0.9081 0.92259 0.57517 0.0
C308 C 0.89073 0.87594 0.57648 0.0
O309 O 0.90613 0.86904 0.56902 0.0
O310 O 0.8894 0.89638 0.57974 0.0
C311 C 0.9368 0.84423 0.54458 0.0
O312 O 0.91534 0.84159 0.54662 0.0
C313 C 0.87325 0.95263 0.58494 0.0
C314 C 0.89297 0.98244 0.59016 0.0
C315 C 0.87154 0.97385 0.59017 0.0
N316 N 0.89474 0.94885 0.58198 0.0
N317 N 0.90644 0.9667 0.58518 0.0
C318 C 0.8548 0.93645 0.58235 0.0
H319 H 0.85366 0.92456 0.59055 0.0
H320 H 0.85842 0.92682 0.57341 0.0
H321 H 0.83858 0.9452 0.58132 0.0
C322 C 0.93036 0.91559 0.5394 0.0
N323 N 0.92318 0.90871 0.55106 0.0
N324 N 0.91305 0.92526 0.557 0.0
C325 C 0.9133 0.94323 0.54918 0.0
C326 C 0.92462 0.93787 0.53785 0.0
C327 C 0.94649 0.90245 0.53135 0.0
H328 H 0.96138 0.89833 0.53726 0.0
H329 H 0.93854 0.88654 0.5284 0.0
H330 H 0.95187 0.91155 0.52256 0.0
O331 O 0.95388 0.89204 0.57383 0.0
O332 O 0.93717 0.91985 0.58415 0.0
H333 H 0.91821 0.97331 0.55988 0.0
H334 H 0.90426 0.97716 0.54458 0.0
C335 C 0.90582 0.96604 0.55313 0.0
H336 H 0.88949 0.96499 0.55812 0.0
H337 H 0.92368 0.96805 0.58404 0.0
O338 O 0.94667 0.86109 0.54935 0.0
C339 C 0.95382 0.90696 0.5826 0.0
Co340 Co 0.86478 0.17912 0.31246 0.0
Co341 Co 0.82286 0.1583 0.32599 0.0
C342 C 0.86826 0.1386 0.32933 0.0
O343 O 0.87696 0.15302 0.32183 0.0
O344 O 0.84745 0.13866 0.33177 0.0
C345 C 0.90383 0.18087 0.29603 0.0
O346 O 0.90353 0.159 0.29681 0.0
C347 C 0.78957 0.12767 0.33733 0.0
C348 C 0.76086 0.15053 0.33959 0.0
C349 C 0.76783 0.12891 0.34198 0.0
N350 N 0.79497 0.14766 0.33232 0.0
N351 N 0.77775 0.1612 0.33371 0.0
C352 C 0.8061 0.10923 0.33919 0.0
H353 H 0.81953 0.11516 0.3457 0.0
H354 H 0.81383 0.10499 0.32974 0.0
H355 H 0.79863 0.09415 0.34358 0.0
C356 C 0.83419 0.17907 0.2904 0.0
N357 N 0.83979 0.17171 0.30226 0.0
N358 N 0.82237 0.16221 0.3077 0.0
C359 C 0.80525 0.16272 0.29925 0.0
C360 C 0.81195 0.17387 0.28812 0.0
C361 C 0.84848 0.19482 0.28278 0.0
H362 H 0.85378 0.20883 0.28908 0.0
H363 H 0.8637 0.18592 0.27953 0.0
H364 H 0.83978 0.20163 0.27418 0.0
O365 O 0.85635 0.20242 0.32508 0.0
O366 O 0.82656 0.18765 0.33444 0.0
H367 H 0.77339 0.16836 0.30793 0.0
H368 H 0.77246 0.15229 0.29325 0.0
C369 C 0.78204 0.15523 0.30229 0.0
H370 H 0.78248 0.13967 0.30808 0.0
H371 H 0.7778 0.17796 0.33101 0.0
O372 O 0.88879 0.1921 0.30174 0.0
C373 C 0.84047 0.20352 0.33323 0.0
Co374 Co 0.56686 0.11458 0.06135 0.0
Co375 Co 0.58721 0.07326 0.07551 0.0
C376 C 0.60774 0.11854 0.07773 0.0
O377 O 0.59345 0.12693 0.07004 0.0
O378 O 0.60716 0.09801 0.08087 0.0
C379 C 0.5647 0.15289 0.04436 0.0
O380 O 0.58659 0.15266 0.04492 0.0
C381 C 0.61942 0.04033 0.08521 0.0
C382 C 0.59735 0.01166 0.08934 0.0
C383 C 0.61932 0.01866 0.0899 0.0
N384 N 0.59842 0.04585 0.08202 0.0
N385 N 0.5853 0.0287 0.08457 0.0
C386 C 0.6391 0.05529 0.08332 0.0
H387 H 0.63666 0.06574 0.07457 0.0
H388 H 0.65471 0.04549 0.08237 0.0
H389 H 0.6406 0.06654 0.09181 0.0
C390 C 0.56654 0.08311 0.03971 0.0
N391 N 0.57387 0.08912 0.0515 0.0
N392 N 0.58303 0.07182 0.05725 0.0
C393 C 0.58217 0.05427 0.04911 0.0
C394 C 0.57131 0.06067 0.03782 0.0
C395 C 0.55118 0.09733 0.03178 0.0
H396 H 0.53701 0.10294 0.03788 0.0
H397 H 0.56032 0.11237 0.02849 0.0
H398 H 0.54456 0.08846 0.0232 0.0
O399 O 0.54379 0.10695 0.07432 0.0
O400 O 0.55796 0.07718 0.08403 0.0
H401 H 0.57581 0.02368 0.05905 0.0
H402 H 0.59038 0.0204 0.04391 0.0
C403 C 0.58876 0.031 0.05268 0.0
H404 H 0.60486 0.0312 0.05794 0.0
H405 H 0.56809 0.02867 0.08311 0.0
O406 O 0.55367 0.13809 0.05039 0.0
C407 C 0.54237 0.09136 0.08264 0.0
Co408 Co 0.63381 0.182 0.68244 0.0
Co409 Co 0.67437 0.15765 0.66958 0.0
C410 C 0.62799 0.14039 0.66668 0.0
O411 O 0.62014 0.15603 0.67366 0.0
O412 O 0.64877 0.13896 0.66435 0.0
C413 C 0.59569 0.1857 0.6991 0.0
O414 O 0.59662 0.16381 0.6992 0.0
C415 C 0.70472 0.12236 0.66084 0.0
C416 C 0.73537 0.14146 0.65658 0.0
C417 C 0.7263 0.12024 0.65619 0.0
N418 N 0.70116 0.14389 0.6638 0.0
N419 N 0.71954 0.15522 0.66121 0.0
C420 C 0.68791 0.10425 0.66279 0.0
H421 H 0.67655 0.10375 0.65432 0.0
H422 H 0.67779 0.10776 0.67155 0.0
H423 H 0.69615 0.08776 0.66379 0.0
C424 C 0.66402 0.18169 0.70463 0.0
N425 N 0.65816 0.17385 0.69292 0.0
N426 N 0.67514 0.16323 0.68773 0.0
C427 C 0.69229 0.16359 0.69616 0.0
C428 C 0.68599 0.17563 0.70707 0.0
C429 C 0.65046 0.19861 0.71186 0.0
H430 H 0.64532 0.21212 0.70516 0.0
H431 H 0.63513 0.19049 0.71559 0.0
H432 H 0.65964 0.20605 0.7201 0.0
O433 O 0.64398 0.2039 0.66938 0.0
O434 O 0.67233 0.18624 0.66007 0.0
H435 H 0.72373 0.16714 0.68666 0.0
H436 H 0.72524 0.15352 0.70219 0.0
C437 C 0.71522 0.1552 0.6932 0.0
H438 H 0.7142 0.13878 0.6883 0.0
H439 H 0.72115 0.17242 0.66244 0.0
O440 O 0.61021 0.19661 0.69277 0.0
C441 C 0.65962 0.20316 0.66105 0.0
Co442 Co 0.57015 0.88075 0.43464 0.0
Co443 Co 0.58831 0.92318 0.42046 0.0
C444 C 0.61023 0.87859 0.41748 0.0
O445 O 0.59631 0.86931 0.42507 0.0
O446 O 0.60916 0.89934 0.41496 0.0
C447 C 0.56722 0.83877 0.44868 0.0
O448 O 0.58775 0.83516 0.44476 0.0
C449 C 0.61947 0.95758 0.41143 0.0
C450 C 0.59632 0.98477 0.4061 0.0
C451 C 0.61867 0.97902 0.40641 0.0
N452 N 0.59852 0.95099 0.41396 0.0
N453 N 0.58475 0.96726 0.4107 0.0
C454 C 0.6397 0.94381 0.41423 0.0
H455 H 0.63666 0.93304 0.42279 0.0
H456 H 0.65446 0.95455 0.41597 0.0
H457 H 0.64315 0.93286 0.4058 0.0
C458 C 0.56983 0.9113 0.45652 0.0
N459 N 0.57712 0.90609 0.44461 0.0
N460 N 0.58402 0.9243 0.43875 0.0
C461 C 0.5811 0.94178 0.44679 0.0
C462 C 0.57146 0.93421 0.45823 0.0
C463 C 0.55795 0.89523 0.46521 0.0
H464 H 0.56816 0.87993 0.46633 0.0
H465 H 0.55483 0.90259 0.4749 0.0
H466 H 0.54181 0.89044 0.46074 0.0
O467 O 0.54596 0.88855 0.42231 0.0
O468 O 0.5595 0.91794 0.41187 0.0
H469 H 0.56904 0.9695 0.43589 0.0
H470 H 0.58209 0.9772 0.45094 0.0
C471 C 0.58293 0.96559 0.4426 0.0
H472 H 0.59895 0.96822 0.43748 0.0
H473 H 0.56744 0.96637 0.41155 0.0
O474 O 0.55753 0.85685 0.44561 0.0
C475 C 0.54415 0.90369 0.41374 0.0
Co476 Co 0.86397 0.82139 0.18586 0.0
Co477 Co 0.82207 0.8395 0.17117 0.0
C478 C 0.867 0.86109 0.16858 0.0
O479 O 0.87588 0.84771 0.17664 0.0
O480 O 0.84644 0.85963 0.1656 0.0
C481 C 0.90541 0.81797 0.20034 0.0
O482 O 0.90929 0.83848 0.19648 0.0
C483 C 0.78879 0.87092 0.16117 0.0
C484 C 0.76078 0.84832 0.15654 0.0
C485 C 0.76735 0.87044 0.15616 0.0
N486 N 0.79462 0.85001 0.16436 0.0
N487 N 0.77786 0.83657 0.16151 0.0
C488 C 0.80326 0.89088 0.16337 0.0
H489 H 0.81361 0.88841 0.17216 0.0
H490 H 0.79305 0.90622 0.16443 0.0
H491 H 0.8146 0.89294 0.15496 0.0
C492 C 0.83213 0.82103 0.20731 0.0
N493 N 0.83811 0.8281 0.19545 0.0
N494 N 0.82054 0.83617 0.18945 0.0
C495 C 0.80284 0.83481 0.19743 0.0
C496 C 0.80941 0.8247 0.20892 0.0
C497 C 0.84683 0.80674 0.2156 0.0
H498 H 0.85152 0.79149 0.21015 0.0
H499 H 0.86237 0.81599 0.21787 0.0
H500 H 0.83865 0.80183 0.22478 0.0
O501 O 0.85724 0.79783 0.17305 0.0
O502 O 0.82693 0.81009 0.16303 0.0
H503 H 0.77316 0.82653 0.18705 0.0
H504 H 0.76828 0.84092 0.20211 0.0
C505 C 0.77936 0.83991 0.19351 0.0
H506 H 0.7788 0.85598 0.18822 0.0
H507 H 0.77813 0.81934 0.16291 0.0
O508 O 0.88729 0.80849 0.19713 0.0
C509 C 0.8419 0.79532 0.16466 0.0
Co510 Co 0.92691 0.11547 0.93629 0.0
Co511 Co 0.90787 0.07405 0.92149 0.0
C512 C 0.88574 0.11886 0.92021 0.0
O513 O 0.8997 0.1274 0.92806 0.0
O514 O 0.88708 0.09852 0.91673 0.0
C515 C 0.93103 0.15636 0.95121 0.0
O516 O 0.91027 0.16025 0.94784 0.0
C517 C 0.87636 0.04037 0.91185 0.0
C518 C 0.89928 0.01286 0.90673 0.0
C519 C 0.87701 0.01894 0.90683 0.0
N520 N 0.89733 0.04664 0.91461 0.0
N521 N 0.91095 0.03019 0.91145 0.0
C522 C 0.85624 0.05436 0.91454 0.0
H523 H 0.85331 0.06566 0.9062 0.0
H524 H 0.85908 0.06477 0.92327 0.0
H525 H 0.84123 0.0438 0.91595 0.0
C526 C 0.92868 0.08298 0.95737 0.0
N527 N 0.92108 0.08923 0.94568 0.0
N528 N 0.91268 0.07182 0.93966 0.0
C529 C 0.91445 0.05392 0.94747 0.0
C530 C 0.92501 0.06026 0.95887 0.0
C531 C 0.94322 0.09756 0.9656 0.0
H532 H 0.95805 0.10275 0.95992 0.0
H533 H 0.93385 0.11283 0.96828 0.0
H534 H 0.94886 0.08908 0.97454 0.0
O535 O 0.9495 0.10943 0.92278 0.0
O536 O 0.93659 0.07944 0.91271 0.0
H537 H 0.92199 0.02435 0.9368 0.0
H538 H 0.90825 0.01935 0.95205 0.0
C539 C 0.90896 0.03056 0.94351 0.0
H540 H 0.89265 0.03023 0.93846 0.0
H541 H 0.92824 0.03079 0.91253 0.0
O542 O 0.94043 0.13845 0.94756 0.0
C543 C 0.95141 0.09439 0.91416 0.0
Co544 Co 0.86532 0.67659 0.68493 0.0
Co545 Co 0.82285 0.65865 0.6708 0.0
C546 C 0.86731 0.63637 0.66793 0.0
O547 O 0.87651 0.64991 0.67577 0.0
O548 O 0.84669 0.63793 0.66512 0.0
C549 C 0.90466 0.67717 0.70121 0.0
O550 O 0.9044 0.65537 0.69998 0.0
C551 C 0.7886 0.62769 0.66145 0.0
C552 C 0.76113 0.65083 0.65661 0.0
C553 C 0.7671 0.62852 0.65653 0.0
N554 N 0.79502 0.64858 0.66429 0.0
N555 N 0.77858 0.66234 0.66132 0.0
C556 C 0.80256 0.60747 0.66395 0.0
H557 H 0.81329 0.61023 0.67256 0.0
H558 H 0.79194 0.59254 0.66548 0.0
H559 H 0.81353 0.60448 0.65547 0.0
C560 C 0.83399 0.67822 0.70663 0.0
N561 N 0.83963 0.67058 0.69483 0.0
N562 N 0.82183 0.66247 0.68906 0.0
C563 C 0.80433 0.66436 0.69716 0.0
C564 C 0.81128 0.67483 0.70846 0.0
C565 C 0.84901 0.69273 0.71459 0.0
H566 H 0.85466 0.70709 0.70866 0.0
H567 H 0.86397 0.68302 0.71743 0.0
H568 H 0.84071 0.69904 0.72345 0.0
O569 O 0.85865 0.70009 0.67207 0.0
O570 O 0.82796 0.68781 0.66244 0.0
H571 H 0.7745 0.67259 0.6869 0.0
H572 H 0.76982 0.65878 0.70216 0.0
C573 C 0.78072 0.65937 0.69348 0.0
H574 H 0.77987 0.64313 0.68838 0.0
H575 H 0.77931 0.67961 0.66247 0.0
O576 O 0.88948 0.68871 0.69585 0.0
C577 C 0.84306 0.70251 0.66382 0.0
Co578 Co 0.57237 0.61849 0.93441 0.0
Co579 Co 0.58949 0.57452 0.9214 0.0
C580 C 0.61247 0.6187 0.91755 0.0
O581 O 0.59922 0.62878 0.9252 0.0
O582 O 0.61042 0.59794 0.91522 0.0
C583 C 0.56928 0.66126 0.94769 0.0
O584 O 0.58984 0.66475 0.94378 0.0
C585 C 0.6207 0.53972 0.91299 0.0
C586 C 0.59772 0.51201 0.90838 0.0
C587 C 0.62002 0.51801 0.90835 0.0
N588 N 0.59974 0.54622 0.91561 0.0
N589 N 0.58608 0.52962 0.9128 0.0
C590 C 0.64082 0.55388 0.91535 0.0
H591 H 0.63789 0.56504 0.92376 0.0
H592 H 0.65577 0.54341 0.91714 0.0
H593 H 0.64388 0.56443 0.90671 0.0
C594 C 0.57097 0.58935 0.95702 0.0
N595 N 0.57826 0.59358 0.94497 0.0
N596 N 0.58528 0.57492 0.93966 0.0
C597 C 0.58257 0.55817 0.94823 0.0
C598 C 0.57297 0.56669 0.95944 0.0
C599 C 0.55863 0.60594 0.96516 0.0
H600 H 0.56878 0.62131 0.96614 0.0
H601 H 0.55501 0.5992 0.97494 0.0
H602 H 0.54273 0.61041 0.96031 0.0
O603 O 0.54903 0.61093 0.92153 0.0
O604 O 0.56058 0.57922 0.91275 0.0
H605 H 0.57072 0.5293 0.93828 0.0
H606 H 0.58394 0.5233 0.95356 0.0
C607 C 0.58462 0.53401 0.94482 0.0
H608 H 0.60062 0.53104 0.93973 0.0
H609 H 0.56878 0.5304 0.91377 0.0
O610 O 0.55964 0.64306 0.94483 0.0
C611 C 0.54627 0.59479 0.91368 0.0
Co612 Co 0.63412 0.31316 0.18359 0.0
Co613 Co 0.67314 0.33844 0.16978 0.0
C614 C 0.62646 0.3548 0.16786 0.0
O615 O 0.61963 0.33862 0.17479 0.0
O616 O 0.64707 0.3572 0.16523 0.0
C617 C 0.59491 0.30781 0.19946 0.0
O618 O 0.59231 0.32934 0.19764 0.0
C619 C 0.70428 0.37303 0.16052 0.0
C620 C 0.73416 0.35264 0.15636 0.0
C621 C 0.72604 0.37424 0.15602 0.0
N622 N 0.6998 0.35165 0.16343 0.0
N623 N 0.71768 0.33955 0.16084 0.0
C624 C 0.68829 0.39185 0.16253 0.0
H625 H 0.67765 0.3885 0.1711 0.0
H626 H 0.69728 0.40787 0.16384 0.0
H627 H 0.67731 0.39322 0.15392 0.0
C628 C 0.66539 0.31488 0.20522 0.0
N629 N 0.65881 0.32213 0.19352 0.0
N630 N 0.67526 0.33296 0.18792 0.0
C631 C 0.69282 0.33324 0.19607 0.0
C632 C 0.68733 0.32148 0.20722 0.0
C633 C 0.65247 0.29811 0.21293 0.0
H634 H 0.64842 0.28359 0.20669 0.0
H635 H 0.63651 0.30571 0.2161 0.0
H636 H 0.66168 0.2922 0.22157 0.0
O637 O 0.64392 0.29117 0.17057 0.0
O638 O 0.67062 0.30976 0.16033 0.0
H639 H 0.72398 0.33003 0.18623 0.0
H640 H 0.72572 0.34434 0.20152 0.0
C641 C 0.71542 0.34205 0.19269 0.0
H642 H 0.71381 0.35824 0.1876 0.0
H643 H 0.71861 0.32233 0.16213 0.0
O644 O 0.61166 0.298 0.19452 0.0
C645 C 0.65868 0.29239 0.16175 0.0
Co646 Co 0.93074 0.38006 0.43506 0.0
Co647 Co 0.90754 0.42054 0.42141 0.0
C648 C 0.88857 0.37478 0.41953 0.0
O649 O 0.90433 0.36705 0.42647 0.0
O650 O 0.88738 0.39549 0.41685 0.0
C651 C 0.93415 0.34189 0.45203 0.0
O652 O 0.91224 0.34198 0.45179 0.0
C653 C 0.87671 0.45321 0.40958 0.0
C654 C 0.89926 0.48218 0.40751 0.0
C655 C 0.87784 0.47489 0.40486 0.0
N656 N 0.89655 0.44814 0.4149 0.0
N657 N 0.90991 0.46551 0.4136 0.0
C658 C 0.85868 0.43637 0.40741 0.0
H659 H 0.86535 0.42291 0.40115 0.0
H660 H 0.85387 0.42879 0.4168 0.0
H661 H 0.84383 0.44353 0.4026 0.0
C662 C 0.93099 0.41151 0.45672 0.0
N663 N 0.92338 0.4053 0.44502 0.0
N664 N 0.91296 0.42217 0.43957 0.0
C665 C 0.91312 0.43953 0.44785 0.0
C666 C 0.92494 0.43356 0.45889 0.0
C667 C 0.94745 0.39799 0.46431 0.0
H668 H 0.96119 0.39253 0.45785 0.0
H669 H 0.93904 0.38284 0.46805 0.0
H670 H 0.95459 0.40736 0.47258 0.0
O671 O 0.95299 0.3883 0.42187 0.0
O672 O 0.93618 0.41661 0.41214 0.0
H673 H 0.91695 0.47172 0.43926 0.0
H674 H 0.90079 0.47161 0.45389 0.0
C675 C 0.90431 0.46228 0.44483 0.0
H676 H 0.88882 0.46099 0.43902 0.0
H677 H 0.92658 0.4657 0.41649 0.0
O678 O 0.9448 0.35676 0.44583 0.0
C679 C 0.95272 0.40347 0.41327 0.0
Co680 Co 0.86318 0.31355 0.8133 0.0
Co681 Co 0.82346 0.33824 0.82692 0.0
C682 C 0.8694 0.3561 0.82865 0.0
O683 O 0.87658 0.33971 0.822 0.0
O684 O 0.84873 0.35825 0.8312 0.0
C685 C 0.90071 0.31118 0.79612 0.0
O686 O 0.89936 0.33305 0.79632 0.0
C687 C 0.79112 0.36939 0.83892 0.0
C688 C 0.76163 0.34738 0.84043 0.0
C689 C 0.76925 0.36857 0.8434 0.0
N690 N 0.79596 0.34963 0.83342 0.0
N691 N 0.77828 0.33659 0.8344 0.0
C692 C 0.80819 0.38708 0.8414 0.0
H693 H 0.82205 0.37972 0.84708 0.0
H694 H 0.81516 0.39291 0.83204 0.0
H695 H 0.8014 0.40138 0.84691 0.0
C696 C 0.83187 0.31414 0.79162 0.0
N697 N 0.83817 0.32149 0.80335 0.0
N698 N 0.8216 0.33245 0.80877 0.0
C699 C 0.80435 0.33294 0.8004 0.0
C700 C 0.8101 0.32103 0.78935 0.0
C701 C 0.84496 0.2973 0.78405 0.0
H702 H 0.85107 0.28404 0.79065 0.0
H703 H 0.85971 0.30562 0.77972 0.0
H704 H 0.83504 0.28952 0.77621 0.0
O705 O 0.8543 0.29128 0.82635 0.0
O706 O 0.82742 0.3098 0.83647 0.0
H707 H 0.77175 0.33065 0.80865 0.0
H708 H 0.77314 0.34702 0.79412 0.0
C709 C 0.782 0.34288 0.80325 0.0
H710 H 0.7839 0.35817 0.80918 0.0
H711 H 0.77783 0.32004 0.8313 0.0
O712 O 0.8866 0.29975 0.80245 0.0
C713 C 0.83964 0.29258 0.83522 0.0
Co714 Co 0.93223 0.61381 0.06037 0.0
Co715 Co 0.9082 0.57533 0.07539 0.0
C716 C 0.89161 0.62182 0.077 0.0
O717 O 0.90729 0.62831 0.06959 0.0
O718 O 0.88947 0.60136 0.08005 0.0
C719 C 0.93525 0.65164 0.0433 0.0
O720 O 0.91339 0.65176 0.04419 0.0
C721 C 0.87446 0.54414 0.08557 0.0
C722 C 0.89553 0.51497 0.09024 0.0
C723 C 0.87377 0.52266 0.09054 0.0
N724 N 0.8957 0.54886 0.08244 0.0
N725 N 0.90821 0.53141 0.08535 0.0
C726 C 0.85529 0.5596 0.08328 0.0
H727 H 0.85843 0.56985 0.07452 0.0
H728 H 0.83948 0.55018 0.08213 0.0
H729 H 0.85366 0.571 0.09169 0.0
C730 C 0.9297 0.58146 0.03937 0.0
N731 N 0.92279 0.58869 0.05101 0.0
N732 N 0.9125 0.57243 0.05713 0.0
C733 C 0.91219 0.55435 0.04937 0.0
C734 C 0.92345 0.55928 0.03796 0.0
C735 C 0.94609 0.59408 0.03123 0.0
H736 H 0.96067 0.59883 0.03726 0.0
H737 H 0.93815 0.60967 0.02775 0.0
H738 H 0.95196 0.58436 0.02278 0.0
O739 O 0.95528 0.60451 0.07285 0.0
O740 O 0.9375 0.57849 0.08414 0.0
H741 H 0.91647 0.52405 0.05995 0.0
H742 H 0.90175 0.52081 0.04487 0.0
C743 C 0.90405 0.53182 0.05341 0.0
H744 H 0.88799 0.53343 0.05863 0.0
H745 H 0.92543 0.53074 0.08395 0.0
O746 O 0.94623 0.63646 0.04906 0.0
C747 C 0.95474 0.59028 0.08197 0.0
Co748 Co 0.63392 0.67807 0.31218 0.0
Co749 Co 0.6749 0.65769 0.32667 0.0
C750 C 0.6296 0.63791 0.32937 0.0
O751 O 0.62123 0.65237 0.32175 0.0
O752 O 0.65031 0.6379 0.33206 0.0
C753 C 0.59497 0.68018 0.29556 0.0
O754 O 0.59445 0.65836 0.29661 0.0
C755 C 0.70821 0.62555 0.33592 0.0
C756 C 0.73625 0.64791 0.3409 0.0
C757 C 0.72978 0.62575 0.34076 0.0
N758 N 0.70225 0.64667 0.33331 0.0
N759 N 0.71901 0.65995 0.33638 0.0
C760 C 0.69384 0.60573 0.33319 0.0
H761 H 0.68304 0.60906 0.32468 0.0
H762 H 0.70414 0.59066 0.33139 0.0
H763 H 0.68292 0.60258 0.34167 0.0
C764 C 0.66535 0.67708 0.29058 0.0
N765 N 0.65917 0.67008 0.30242 0.0
N766 N 0.67645 0.66129 0.30837 0.0
C767 C 0.69414 0.66206 0.30035 0.0
C768 C 0.68789 0.67254 0.28891 0.0
C769 C 0.65123 0.6922 0.28245 0.0
H770 H 0.64639 0.70705 0.28822 0.0
H771 H 0.63574 0.68331 0.27967 0.0
H772 H 0.6599 0.69776 0.27355 0.0
O773 O 0.64234 0.70201 0.32439 0.0
O774 O 0.67071 0.68701 0.3351 0.0
H775 H 0.72406 0.66908 0.31082 0.0
H776 H 0.7285 0.65502 0.2956 0.0
C777 C 0.71745 0.65611 0.3042 0.0
H778 H 0.71751 0.63987 0.30932 0.0
H779 H 0.7187 0.67726 0.33535 0.0
O780 O 0.61042 0.69106 0.30111 0.0
C781 C 0.65734 0.70309 0.33307 0.0
Co782 Co 0.56905 0.3818 0.56105 0.0
Co783 Co 0.58974 0.42267 0.57571 0.0
C784 C 0.61035 0.37734 0.57714 0.0
O785 O 0.59579 0.36915 0.56953 0.0
O786 O 0.60996 0.39781 0.58041 0.0
C787 C 0.56506 0.34143 0.54569 0.0
O788 O 0.58599 0.33782 0.54881 0.0
C789 C 0.62001 0.4556 0.58782 0.0
C790 C 0.59664 0.48372 0.59074 0.0
C791 C 0.61843 0.47705 0.59288 0.0
N792 N 0.60006 0.45011 0.58279 0.0
N793 N 0.5862 0.46696 0.58461 0.0
C794 C 0.63888 0.43941 0.58919 0.0
H795 H 0.63295 0.42454 0.59456 0.0
H796 H 0.64426 0.43378 0.57944 0.0
H797 H 0.65323 0.44649 0.59452 0.0
C798 C 0.56848 0.41422 0.53989 0.0
N799 N 0.57587 0.4078 0.5516 0.0
N800 N 0.58517 0.42487 0.55751 0.0
C801 C 0.58438 0.44266 0.54954 0.0
C802 C 0.57337 0.43668 0.53823 0.0
C803 C 0.55313 0.40026 0.53181 0.0
H804 H 0.53851 0.39524 0.53771 0.0
H805 H 0.56198 0.38485 0.52881 0.0
H806 H 0.54722 0.40913 0.52305 0.0
O807 O 0.54613 0.38871 0.57424 0.0
O808 O 0.56079 0.41785 0.58432 0.0
H809 H 0.57831 0.47373 0.55904 0.0
H810 H 0.59437 0.47601 0.54441 0.0
C811 C 0.59156 0.4657 0.55319 0.0
H812 H 0.60713 0.46503 0.55896 0.0
H813 H 0.56941 0.46676 0.58197 0.0
O814 O 0.55543 0.35901 0.54967 0.0
C815 C 0.54508 0.40385 0.58286 0.0
Co816 Co 0.13107 0.3176 0.30985 0.0
Co817 Co 0.16978 0.34084 0.32516 0.0
C818 C 0.12377 0.359 0.32598 0.0
O819 O 0.1169 0.34318 0.31877 0.0
O820 O 0.14426 0.36069 0.32908 0.0
C821 C 0.0916 0.3131 0.29394 0.0
O822 O 0.0881 0.33417 0.29677 0.0
C823 C 0.20149 0.37186 0.33774 0.0
C824 C 0.2299 0.34906 0.34116 0.0
C825 C 0.22268 0.37071 0.34318 0.0
N826 N 0.19665 0.3518 0.33264 0.0
N827 N 0.21368 0.33829 0.33475 0.0
C828 C 0.18483 0.39033 0.33888 0.0
H829 H 0.1705 0.38431 0.34468 0.0
H830 H 0.1785 0.39474 0.32911 0.0
H831 H 0.19172 0.40531 0.3437 0.0
C832 C 0.16415 0.31913 0.28916 0.0
N833 N 0.15687 0.32609 0.30079 0.0
N834 N 0.17323 0.33605 0.307 0.0
C835 C 0.1914 0.33615 0.29931 0.0
C836 C 0.18644 0.32502 0.28786 0.0
C837 C 0.15129 0.30316 0.28087 0.0
H838 H 0.14672 0.28829 0.28669 0.0
H839 H 0.1356 0.31127 0.27766 0.0
H840 H 0.16078 0.2977 0.27223 0.0
O841 O 0.13906 0.29456 0.3226 0.0
O842 O 0.165 0.31198 0.33411 0.0
H843 H 0.22223 0.33145 0.30931 0.0
H844 H 0.22452 0.34761 0.29472 0.0
C845 C 0.21392 0.34433 0.30333 0.0
H846 H 0.21228 0.35985 0.30909 0.0
H847 H 0.21395 0.3215 0.3321 0.0
O848 O 0.10899 0.30348 0.29821 0.0
C849 C 0.15284 0.29501 0.33195 0.0
Co850 Co 0.42802 0.38047 0.06055 0.0
Co851 Co 0.40729 0.42173 0.07471 0.0
C852 C 0.38631 0.37653 0.07627 0.0
O853 O 0.40126 0.36832 0.06894 0.0
O854 O 0.38646 0.39709 0.0794 0.0
C855 C 0.43208 0.33981 0.0455 0.0
O856 O 0.41098 0.33654 0.04834 0.0
C857 C 0.37538 0.45544 0.08409 0.0
C858 C 0.39819 0.48311 0.08909 0.0
C859 C 0.37595 0.47693 0.08907 0.0
N860 N 0.39638 0.44925 0.08129 0.0
N861 N 0.40992 0.46581 0.08437 0.0
C862 C 0.35534 0.44125 0.0816 0.0
H863 H 0.35813 0.43071 0.07292 0.0
H864 H 0.34023 0.45168 0.08021 0.0
H865 H 0.35264 0.43008 0.09002 0.0
C866 C 0.42904 0.41184 0.03905 0.0
N867 N 0.42135 0.40602 0.05078 0.0
N868 N 0.41281 0.42363 0.05654 0.0
C869 C 0.4149 0.44131 0.04854 0.0
C870 C 0.42569 0.43452 0.0373 0.0
C871 C 0.44282 0.39683 0.03066 0.0
H872 H 0.43352 0.38117 0.02881 0.0
H873 H 0.44688 0.40483 0.02126 0.0
H874 H 0.45851 0.39252 0.03578 0.0
O875 O 0.45061 0.3878 0.07386 0.0
O876 O 0.43583 0.41698 0.08385 0.0
H877 H 0.42434 0.47039 0.05912 0.0
H878 H 0.4105 0.47623 0.04403 0.0
C879 C 0.4108 0.46494 0.05253 0.0
H880 H 0.39464 0.46619 0.05769 0.0
H881 H 0.42721 0.46525 0.08331 0.0
O882 O 0.44183 0.35727 0.04956 0.0
C883 C 0.45152 0.4029 0.0825 0.0
Co884 Co 0.36447 0.68273 0.81094 0.0
Co885 Co 0.32592 0.65689 0.82502 0.0
C886 C 0.37241 0.64028 0.8261 0.0
O887 O 0.37887 0.65683 0.81933 0.0
O888 O 0.35192 0.6376 0.82898 0.0
C889 C 0.40365 0.68842 0.795 0.0
O890 O 0.40649 0.66692 0.7968 0.0
C891 C 0.29444 0.62509 0.8373 0.0
C892 C 0.26493 0.64694 0.83939 0.0
C893 C 0.27279 0.62576 0.84213 0.0
N894 N 0.29892 0.64497 0.83184 0.0
N895 N 0.28122 0.6579 0.83316 0.0
C896 C 0.31165 0.60735 0.83931 0.0
H897 H 0.32619 0.61468 0.84438 0.0
H898 H 0.31751 0.60121 0.82976 0.0
H899 H 0.30533 0.59324 0.84517 0.0
C900 C 0.33255 0.68138 0.78965 0.0
N901 N 0.33936 0.67415 0.80131 0.0
N902 N 0.3232 0.6629 0.80692 0.0
C903 C 0.30564 0.66221 0.79877 0.0
C904 C 0.31079 0.67423 0.78766 0.0
C905 C 0.34515 0.6984 0.78195 0.0
H906 H 0.34973 0.71259 0.78831 0.0
H907 H 0.36083 0.69079 0.77834 0.0
H908 H 0.33549 0.70481 0.7736 0.0
O909 O 0.35549 0.70447 0.82427 0.0
O910 O 0.32955 0.68519 0.83469 0.0
H911 H 0.27342 0.66428 0.80754 0.0
H912 H 0.27422 0.64806 0.79294 0.0
C913 C 0.28348 0.65215 0.80194 0.0
H914 H 0.28573 0.6368 0.80777 0.0
H915 H 0.28055 0.6745 0.83017 0.0
O916 O 0.38673 0.69799 0.7999 0.0
C917 C 0.34129 0.70269 0.83336 0.0
Co918 Co 0.06663 0.61514 0.5611 0.0
Co919 Co 0.08819 0.57515 0.57606 0.0
C920 C 0.10746 0.62076 0.57765 0.0
O921 O 0.09265 0.62842 0.57003 0.0
O922 O 0.10781 0.60029 0.5809 0.0
C923 C 0.06491 0.65301 0.54394 0.0
O924 O 0.08676 0.65255 0.54485 0.0
C925 C 0.12101 0.54299 0.58601 0.0
C926 C 0.09935 0.51432 0.59078 0.0
C927 C 0.12128 0.52152 0.59098 0.0
N928 N 0.09984 0.54822 0.58299 0.0
N929 N 0.08697 0.53106 0.58594 0.0
C930 C 0.14049 0.55799 0.58359 0.0
H931 H 0.13756 0.5681 0.57476 0.0
H932 H 0.15611 0.54823 0.5825 0.0
H933 H 0.14236 0.56956 0.59191 0.0
C934 C 0.06744 0.58274 0.54002 0.0
N935 N 0.07457 0.58952 0.55171 0.0
N936 N 0.08401 0.57272 0.55779 0.0
C937 C 0.08361 0.55475 0.54997 0.0
C938 C 0.0727 0.56031 0.53854 0.0
C939 C 0.05176 0.59623 0.53186 0.0
H940 H 0.0375 0.60185 0.53789 0.0
H941 H 0.06058 0.6113 0.52832 0.0
H942 H 0.0453 0.5868 0.52344 0.0
O943 O 0.04324 0.60707 0.57374 0.0
O944 O 0.059 0.57936 0.58469 0.0
H945 H 0.07816 0.52457 0.56049 0.0
H946 H 0.09263 0.52081 0.54536 0.0
C947 C 0.09082 0.53186 0.55392 0.0
H948 H 0.10698 0.53275 0.55911 0.0
H949 H 0.06972 0.5308 0.58464 0.0
O950 O 0.0535 0.63825 0.54977 0.0
C951 C 0.04266 0.59243 0.58266 0.0
Co952 Co 0.13043 0.67686 0.18341 0.0
Co953 Co 0.17328 0.65545 0.17116 0.0
C954 C 0.12817 0.63487 0.16779 0.0
O955 O 0.11894 0.65003 0.17456 0.0
O956 O 0.14913 0.63479 0.16579 0.0
C957 C 0.08999 0.68038 0.1987 0.0
O958 O 0.08946 0.65849 0.19819 0.0
C959 C 0.20719 0.62454 0.16067 0.0
C960 C 0.23578 0.64751 0.15837 0.0
C961 C 0.229 0.62578 0.15613 0.0
N962 N 0.20156 0.64463 0.16548 0.0
N963 N 0.21873 0.65822 0.16408 0.0
C964 C 0.19075 0.60606 0.15872 0.0
H965 H 0.17786 0.6117 0.15177 0.0
H966 H 0.18229 0.60234 0.16803 0.0
H967 H 0.19847 0.59073 0.15481 0.0
C968 C 0.15922 0.67833 0.20613 0.0
N969 N 0.15478 0.6703 0.19427 0.0
N970 N 0.17299 0.66144 0.18935 0.0
C971 C 0.18959 0.66345 0.19811 0.0
C972 C 0.18156 0.67474 0.20889 0.0
C973 C 0.14338 0.69254 0.21373 0.0
H974 H 0.13922 0.70771 0.20807 0.0
H975 H 0.12776 0.68311 0.21544 0.0
H976 H 0.15053 0.69747 0.22322 0.0
O977 O 0.13959 0.69934 0.17044 0.0
O978 O 0.16929 0.68354 0.16149 0.0
H979 H 0.22094 0.67253 0.18986 0.0
H980 H 0.22312 0.65647 0.20449 0.0
C981 C 0.21357 0.65847 0.19536 0.0
H982 H 0.21501 0.64295 0.1896 0.0
H983 H 0.21847 0.6751 0.16651 0.0
O984 O 0.10588 0.6908 0.19327 0.0
C985 C 0.15545 0.69955 0.16226 0.0
Co986 Co 0.06914 0.38094 0.93351 0.0
Co987 Co 0.08939 0.4231 0.92012 0.0
C988 C 0.11017 0.378 0.91714 0.0
O989 O 0.09575 0.36905 0.92455 0.0
O990 O 0.10962 0.39877 0.91459 0.0
C991 C 0.0667 0.34168 0.94984 0.0
O992 O 0.08859 0.34161 0.94923 0.0
C993 C 0.12182 0.45663 0.91144 0.0
C994 C 0.09968 0.48493 0.90666 0.0
C995 C 0.12179 0.47828 0.90671 0.0
N996 N 0.10066 0.45078 0.91404 0.0
N997 N 0.08751 0.46774 0.91111 0.0
C998 C 0.14152 0.44197 0.91397 0.0
H999 H 0.13821 0.43107 0.92244 0.0
H1000 H 0.15674 0.45205 0.91574 0.0
H1001 H 0.14439 0.43115 0.90541 0.0
C1002 C 0.0679 0.41155 0.95556 0.0
N1003 N 0.07578 0.40605 0.94379 0.0
N1004 N 0.08473 0.42373 0.93834 0.0
C1005 C 0.08315 0.44102 0.94662 0.0
C1006 C 0.07205 0.43405 0.95772 0.0
C1007 C 0.05254 0.3968 0.96315 0.0
H1008 H 0.03844 0.39153 0.9569 0.0
H1009 H 0.06172 0.3816 0.96615 0.0
H1010 H 0.04583 0.40514 0.97189 0.0
O1011 O 0.0462 0.38911 0.92059 0.0
O1012 O 0.06042 0.41923 0.91128 0.0
H1013 H 0.0764 0.47149 0.93664 0.0
H1014 H 0.08983 0.4751 0.95212 0.0
C1015 C 0.08915 0.46455 0.94329 0.0
H1016 H 0.10558 0.46496 0.93839 0.0
H1017 H 0.07019 0.46751 0.9121 0.0
O1018 O 0.05584 0.35691 0.94407 0.0
C1019 C 0.04487 0.40493 0.91241 0.0
Co1020 Co 0.3643 0.31743 0.6853 0.0
Co1021 Co 0.32463 0.34084 0.671 0.0
C1022 C 0.37073 0.35843 0.66882 0.0
O1023 O 0.37799 0.34276 0.67599 0.0
O1024 O 0.35006 0.36019 0.66618 0.0
C1025 C 0.40426 0.31363 0.70069 0.0
O1026 O 0.40668 0.33497 0.69819 0.0
C1027 C 0.2925 0.37401 0.66122 0.0
C1028 C 0.26341 0.35251 0.65708 0.0
C1029 C 0.27082 0.37435 0.65654 0.0
N1030 N 0.29762 0.35289 0.6644 0.0
N1031 N 0.28021 0.34013 0.66183 0.0
C1032 C 0.30783 0.3934 0.66312 0.0
H1033 H 0.31843 0.39065 0.67178 0.0
H1034 H 0.29828 0.40915 0.66423 0.0
H1035 H 0.31889 0.39489 0.65456 0.0
C1036 C 0.33298 0.31917 0.70683 0.0
N1037 N 0.33941 0.32624 0.69506 0.0
N1038 N 0.32259 0.33614 0.68925 0.0
C1039 C 0.30493 0.33598 0.69732 0.0
C1040 C 0.31073 0.32483 0.70863 0.0
C1041 C 0.34646 0.30313 0.71474 0.0
H1042 H 0.35052 0.28827 0.70879 0.0
H1043 H 0.36239 0.31119 0.71755 0.0
H1044 H 0.33766 0.29767 0.72362 0.0
O1045 O 0.35499 0.29446 0.67276 0.0
O1046 O 0.32815 0.31189 0.66194 0.0
H1047 H 0.27421 0.33088 0.68727 0.0
H1048 H 0.27136 0.34552 0.70241 0.0
C1049 C 0.28198 0.34351 0.69368 0.0
H1050 H 0.28287 0.35961 0.68844 0.0
H1051 H 0.27983 0.32292 0.6633 0.0
O1052 O 0.38726 0.30339 0.69638 0.0
C1053 C 0.34044 0.2949 0.66381 0.0
Co1054 Co 0.42925 0.61349 0.43456 0.0
Co1055 Co 0.40804 0.5726 0.42035 0.0
C1056 C 0.38899 0.61822 0.41749 0.0
O1057 O 0.40362 0.62647 0.42504 0.0
O1058 O 0.38862 0.59747 0.41491 0.0
C1059 C 0.43228 0.65253 0.45109 0.0
O1060 O 0.41042 0.65322 0.4503 0.0
C1061 C 0.37527 0.53984 0.41112 0.0
C1062 C 0.39706 0.51116 0.40653 0.0
C1063 C 0.37506 0.51817 0.40644 0.0
N1064 N 0.39646 0.54534 0.41387 0.0
N1065 N 0.40941 0.52819 0.41103 0.0
C1066 C 0.35573 0.55476 0.41356 0.0
H1067 H 0.35321 0.56567 0.405 0.0
H1068 H 0.35901 0.56555 0.42208 0.0
H1069 H 0.34032 0.54489 0.41518 0.0
C1070 C 0.42811 0.58239 0.45631 0.0
N1071 N 0.42108 0.58848 0.44447 0.0
N1072 N 0.41191 0.57126 0.43865 0.0
C1073 C 0.41243 0.5537 0.44678 0.0
C1074 C 0.42313 0.55998 0.45815 0.0
C1075 C 0.44356 0.5964 0.4643 0.0
H1076 H 0.45826 0.60114 0.45839 0.0
H1077 H 0.43483 0.61195 0.46717 0.0
H1078 H 0.44933 0.5877 0.47315 0.0
O1079 O 0.45279 0.60455 0.42224 0.0
O1080 O 0.43725 0.57626 0.41171 0.0
H1081 H 0.41862 0.5233 0.43661 0.0
H1082 H 0.40436 0.51972 0.45183 0.0
C1083 C 0.40581 0.53049 0.44313 0.0
H1084 H 0.3896 0.53078 0.43798 0.0
H1085 H 0.42669 0.52811 0.41219 0.0
O1086 O 0.44282 0.63695 0.44543 0.0
C1087 C 0.45353 0.58945 0.4136 0.0
C1088 C 0.58125 0.27208 0.20909 0.0
C1089 C 0.57733 0.2945 0.20585 0.0
C1090 C 0.56383 0.25855 0.21342 0.0
C1091 C 0.50423 0.25883 0.22396 0.0
H1092 H 0.50239 0.20285 0.2052 0.0
C1093 C 0.42342 0.21498 0.20879 0.0
C1094 C 0.42303 0.19163 0.20766 0.0
C1095 C 0.44278 0.22595 0.21274 0.0
C1096 C 0.50278 0.21814 0.21079 0.0
H1097 H 0.55242 0.32071 0.20541 0.0
H1098 H 0.52191 0.29701 0.21262 0.0
H1099 H 0.53593 0.22536 0.20459 0.0
H1100 H 0.4421 0.16135 0.21076 0.0
H1101 H 0.47596 0.18056 0.21771 0.0
H1102 H 0.47051 0.25195 0.22958 0.0
C1103 C 0.53847 0.28989 0.21202 0.0
C1104 C 0.52208 0.2311 0.21044 0.0
C1105 C 0.55595 0.30348 0.20779 0.0
C1106 C 0.44193 0.17938 0.21142 0.0
C1107 C 0.46135 0.19037 0.21535 0.0
C1108 C 0.48485 0.24586 0.22427 0.0
C1109 C 0.54206 0.26709 0.21449 0.0
C1110 C 0.52284 0.2519 0.21671 0.0
C1111 C 0.46219 0.21381 0.21565 0.0
C1112 C 0.48372 0.22567 0.21737 0.0
H1113 H 0.59764 0.26477 0.20789 0.0
H1114 H 0.56727 0.24119 0.21551 0.0
H1115 H 0.5044 0.27459 0.22908 0.0
H1116 H 0.40907 0.22491 0.20608 0.0
H1117 H 0.44289 0.24401 0.21276 0.0
C1118 C 0.06232 0.19402 0.45786 0.0
C1119 C 0.05392 0.1722 0.45707 0.0
C1120 C 0.04872 0.21145 0.46217 0.0
C1121 C 0.98943 0.22572 0.46259 0.0
H1122 H 0.01053 0.27977 0.47915 0.0
C1123 C 0.93526 0.3044 0.46278 0.0
C1124 C 0.94652 0.32335 0.45817 0.0
C1125 C 0.94725 0.28564 0.46684 0.0
C1126 C 0.00437 0.26474 0.47456 0.0
H1127 H 0.02539 0.15117 0.46129 0.0
H1128 H 0.00182 0.18149 0.469 0.0
H1129 H 0.03427 0.24663 0.47887 0.0
H1130 H 0.97914 0.33814 0.45514 0.0
H1131 H -8e-05 0.30547 0.46201 0.0
H1132 H 0.96001 0.24396 0.45777 0.0
C1133 C 0.01869 0.18526 0.46597 0.0
C1134 C 0.01796 0.24579 0.47439 0.0
C1135 C 0.03223 0.16788 0.46158 0.0
C1136 C 0.96994 0.32372 0.45852 0.0
C1137 C 0.98189 0.30503 0.46259 0.0
C1138 C 0.97587 0.24462 0.46277 0.0
C1139 C 0.0265 0.20736 0.46586 0.0
C1140 C 0.01091 0.22627 0.46805 0.0
C1141 C 0.9707 0.28553 0.46642 0.0
C1142 C 0.98345 0.26456 0.4684 0.0
H1143 H 0.07898 0.19789 0.45449 0.0
H1144 H 0.05524 0.22828 0.46186 0.0
H1145 H 0.98355 0.21112 0.45746 0.0
H1146 H 0.91722 0.30366 0.46274 0.0
H1147 H 0.93815 0.27097 0.46992 0.0
C1148 C 0.0536 0.80391 0.70749 0.0
C1149 C 0.07522 0.79557 0.70555 0.0
C1150 C 0.03652 0.7898 0.7117 0.0
C1151 C 0.02179 0.73066 0.70997 0.0
H1152 H 0.96997 0.74964 0.72952 0.0
C1153 C 0.94308 0.67675 0.71081 0.0
C1154 C 0.92376 0.68861 0.70736 0.0
C1155 C 0.96228 0.68813 0.71474 0.0
C1156 C 0.98438 0.74406 0.72409 0.0
H1157 H 0.0964 0.76643 0.70759 0.0
H1158 H 0.06671 0.74195 0.71514 0.0
H1159 H 0.00315 0.77328 0.72896 0.0
H1160 H 0.90885 0.72155 0.70635 0.0
H1161 H 0.94227 0.74132 0.713 0.0
H1162 H 0.00285 0.70197 0.70462 0.0
C1163 C 0.06278 0.75921 0.71308 0.0
C1164 C 0.00335 0.75761 0.72375 0.0
C1165 C 0.07979 0.77326 0.70878 0.0
C1166 C 0.92354 0.71192 0.70881 0.0
C1167 C 0.94268 0.72327 0.71275 0.0
C1168 C 0.00288 0.71714 0.71032 0.0
C1169 C 0.04079 0.76711 0.71416 0.0
C1170 C 0.02204 0.75136 0.71636 0.0
C1171 C 0.96249 0.71157 0.71534 0.0
C1172 C 0.98371 0.72399 0.71705 0.0
H1173 H 0.04957 0.82104 0.70512 0.0
H1174 H 0.01975 0.79642 0.71232 0.0
H1175 H 0.03572 0.72544 0.70402 0.0
H1176 H 0.94373 0.65877 0.70991 0.0
H1177 H 0.97721 0.67864 0.71686 0.0
C1178 C 0.56441 0.70113 0.95441 0.0
C1179 C 0.5564 0.67913 0.95413 0.0
C1180 C 0.55081 0.71847 0.95884 0.0
C1181 C 0.49144 0.73188 0.96075 0.0
H1182 H 0.51263 0.78606 0.97712 0.0
C1183 C 0.43555 0.80915 0.96265 0.0
C1184 C 0.44603 0.82853 0.95803 0.0
C1185 C 0.44826 0.79065 0.96635 0.0
C1186 C 0.50645 0.771 0.97257 0.0
H1187 H 0.52856 0.65777 0.95928 0.0
H1188 H 0.50498 0.68795 0.96714 0.0
H1189 H 0.53703 0.75345 0.97599 0.0
H1190 H 0.47807 0.84434 0.95466 0.0
H1191 H 0.50009 0.8121 0.96085 0.0
H1192 H 0.46132 0.74955 0.95679 0.0
C1193 C 0.52156 0.6919 0.96365 0.0
C1194 C 0.52042 0.75235 0.97192 0.0
C1195 C 0.5351 0.67461 0.95917 0.0
C1196 C 0.46945 0.82959 0.95806 0.0
C1197 C 0.48212 0.81112 0.96173 0.0
C1198 C 0.47752 0.75048 0.96139 0.0
C1199 C 0.52897 0.71411 0.96314 0.0
C1200 C 0.51327 0.73278 0.96569 0.0
C1201 C 0.47167 0.79118 0.96551 0.0
C1202 C 0.48507 0.77048 0.96697 0.0
H1203 H 0.58077 0.70514 0.95063 0.0
H1204 H 0.55698 0.7354 0.95822 0.0
H1205 H 0.48548 0.71721 0.95571 0.0
H1206 H 0.41754 0.80788 0.96288 0.0
H1207 H 0.43971 0.77564 0.96943 0.0
C1208 C 0.42174 0.77986 0.2866 0.0
C1209 C 0.42632 0.80155 0.29104 0.0
C1210 C 0.43896 0.76606 0.2823 0.0
C1211 C 0.49916 0.76444 0.27351 0.0
H1212 H 0.4972 0.70691 0.29061 0.0
C1213 C 0.57715 0.71583 0.28852 0.0
C1214 C 0.5764 0.69244 0.28937 0.0
C1215 C 0.55845 0.72785 0.28454 0.0
C1216 C 0.49789 0.72263 0.28546 0.0
H1217 H 0.4523 0.8263 0.2936 0.0
H1218 H 0.48244 0.80207 0.28632 0.0
H1219 H 0.46469 0.7309 0.29114 0.0
H1220 H 0.55602 0.66324 0.28572 0.0
H1221 H 0.52335 0.68429 0.27864 0.0
H1222 H 0.53279 0.75641 0.2683 0.0
C1223 C 0.46552 0.79578 0.28604 0.0
C1224 C 0.47919 0.73645 0.28578 0.0
C1225 C 0.44826 0.80964 0.29029 0.0
C1226 C 0.55705 0.68125 0.2853 0.0
C1227 C 0.53831 0.69332 0.2813 0.0
C1228 C 0.5179 0.75056 0.27316 0.0
C1229 C 0.46114 0.7736 0.28239 0.0
C1230 C 0.47981 0.75778 0.28014 0.0
C1231 C 0.53857 0.71679 0.28129 0.0
C1232 C 0.51769 0.72978 0.27948 0.0
H1233 H 0.40494 0.77324 0.28686 0.0
H1234 H 0.435 0.7492 0.27932 0.0
H1235 H 0.50002 0.78064 0.2689 0.0
H1236 H 0.59187 0.72497 0.29147 0.0
H1237 H 0.55923 0.74589 0.28478 0.0
C1238 C 0.55994 0.30211 0.53807 0.0
C1239 C 0.55178 0.32399 0.53915 0.0
C1240 C 0.54601 0.28492 0.53382 0.0
C1241 C 0.48661 0.27117 0.53407 0.0
H1242 H 0.50649 0.21749 0.51663 0.0
C1243 C 0.43166 0.19307 0.5338 0.0
C1244 C 0.44292 0.17385 0.53802 0.0
C1245 C 0.44365 0.21184 0.52977 0.0
C1246 C 0.50067 0.23241 0.52147 0.0
H1247 H 0.52327 0.34538 0.53549 0.0
H1248 H 0.49912 0.31546 0.52789 0.0
H1249 H 0.53057 0.25037 0.51696 0.0
H1250 H 0.47551 0.15861 0.54035 0.0
H1251 H 0.49632 0.19129 0.53354 0.0
H1252 H 0.45721 0.25307 0.53909 0.0
C1253 C 0.51608 0.31146 0.53065 0.0
C1254 C 0.51446 0.25122 0.52167 0.0
C1255 C 0.52995 0.32861 0.53498 0.0
C1256 C 0.46632 0.17324 0.53729 0.0
C1257 C 0.47828 0.19194 0.53325 0.0
C1258 C 0.47285 0.25242 0.53387 0.0
C1259 C 0.52369 0.28929 0.53047 0.0
C1260 C 0.50784 0.2706 0.52831 0.0
C1261 C 0.46712 0.2117 0.52983 0.0
C1262 C 0.48 0.2326 0.52791 0.0
H1263 H 0.5767 0.29802 0.54118 0.0
H1264 H 0.55238 0.26802 0.5339 0.0
H1265 H 0.48108 0.28567 0.53944 0.0
H1266 H 0.41363 0.194 0.53414 0.0
H1267 H 0.43457 0.22671 0.52701 0.0
C1268 C 0.05534 0.19059 0.786 0.0
C1269 C 0.07661 0.20011 0.78737 0.0
C1270 C 0.03717 0.20373 0.78231 0.0
C1271 C 0.01949 0.26219 0.78443 0.0
H1272 H 0.96649 0.2398 0.7673 0.0
C1273 C 0.93813 0.31233 0.78531 0.0
C1274 C 0.91983 0.29994 0.78984 0.0
C1275 C 0.95745 0.30151 0.78106 0.0
C1276 C 0.98122 0.24631 0.77205 0.0
H1277 H 0.09594 0.23034 0.7848 0.0
H1278 H 0.06436 0.25315 0.77805 0.0
H1279 H 0.00094 0.21803 0.76663 0.0
H1280 H 0.90682 0.2665 0.79257 0.0
H1281 H 0.9405 0.24769 0.78527 0.0
H1282 H -0.00032 0.29007 0.79022 0.0
C1283 C 0.06155 0.2357 0.78022 0.0
C1284 C 0.00092 0.23384 0.7717 0.0
C1285 C 0.07967 0.22261 0.78403 0.0
C1286 C 0.92071 0.27654 0.78924 0.0
C1287 C 0.93996 0.26574 0.78495 0.0
C1288 C -0.00013 0.27468 0.78472 0.0
C1289 C 0.03993 0.22662 0.77979 0.0
C1290 C 0.02012 0.24132 0.77822 0.0
C1291 C 0.95878 0.2781 0.78118 0.0
C1292 C 0.98034 0.26659 0.77887 0.0
H1293 H 0.05244 0.17328 0.78848 0.0
H1294 H 0.02077 0.19617 0.7822 0.0
H1295 H 0.03378 0.26836 0.78975 0.0
H1296 H 0.93792 0.33038 0.78556 0.0
H1297 H 0.97161 0.31146 0.77807 0.0
C1298 C 0.02934 0.82836 0.03535 0.0
C1299 C 0.05144 0.82456 0.03932 0.0
C1300 C 0.01605 0.8107 0.03107 0.0
C1301 C 0.01673 0.75047 0.02186 0.0
H1302 H 0.95938 0.75006 0.0392 0.0
C1303 C 0.97064 0.67058 0.03673 0.0
C1304 C 0.94722 0.67055 0.03728 0.0
C1305 C 0.9822 0.68971 0.03295 0.0
C1306 C 0.97508 0.75003 0.03401 0.0
H1307 H 0.0774 0.79955 0.04106 0.0
H1308 H 0.05413 0.7687 0.03387 0.0
H1309 H 0.9821 0.78347 0.03975 0.0
H1310 H 0.91752 0.69005 0.03331 0.0
H1311 H 0.93774 0.72345 0.02662 0.0
H1312 H 0.00998 0.71653 0.01666 0.0
C1313 C 0.04708 0.78533 0.0339 0.0
C1314 C 0.98816 0.76925 0.03432 0.0
C1315 C 0.06042 0.80302 0.03811 0.0
C1316 C 0.93557 0.68959 0.03311 0.0
C1317 C 0.94715 0.70876 0.02934 0.0
C1318 C 0.00363 0.73117 0.02157 0.0
C1319 C 0.02452 0.78884 0.03074 0.0
C1320 C 0.00941 0.76954 0.02856 0.0
C1321 C 0.9706 0.70925 0.02961 0.0
C1322 C 0.98291 0.73056 0.02795 0.0
H1323 H 0.02202 0.84484 0.036 0.0
H1324 H -0.00111 0.81407 0.02844 0.0
H1325 H 0.03286 0.75026 0.01714 0.0
H1326 H 0.98014 0.65613 0.03978 0.0
H1327 H 0.00025 0.68953 0.03337 0.0
C1328 C 0.55594 0.8185 0.78487 0.0
C1329 C 0.5751 0.8064 0.78835 0.0
C1330 C 0.53662 0.80736 0.78092 0.0
C1331 C 0.51377 0.75185 0.77142 0.0
H1332 H 0.46245 0.77123 0.79127 0.0
C1333 C 0.44271 0.6932 0.7869 0.0
C1334 C 0.42126 0.70201 0.78883 0.0
C1335 C 0.46022 0.70702 0.78296 0.0
C1336 C 0.47637 0.76581 0.78538 0.0
H1337 H 0.58958 0.77328 0.78941 0.0
H1338 H 0.55592 0.75392 0.7827 0.0
H1339 H 0.49581 0.79402 0.79098 0.0
H1340 H 0.40087 0.73174 0.78705 0.0
H1341 H 0.43129 0.75573 0.77994 0.0
H1342 H 0.49446 0.72314 0.76624 0.0
C1343 C 0.55576 0.77198 0.78295 0.0
C1344 C 0.49557 0.77893 0.78522 0.0
C1345 C 0.57504 0.78309 0.78691 0.0
C1346 C 0.41731 0.72454 0.78585 0.0
C1347 C 0.43476 0.7383 0.78182 0.0
C1348 C 0.49449 0.73871 0.77156 0.0
C1349 C 0.5361 0.78393 0.78032 0.0
C1350 C 0.51471 0.77182 0.77854 0.0
C1351 C 0.45658 0.7299 0.78077 0.0
C1352 C 0.47578 0.74524 0.77884 0.0
H1353 H 0.55551 0.83649 0.78576 0.0
H1354 H 0.52183 0.81705 0.77877 0.0
H1355 H 0.52815 0.74608 0.76603 0.0
H1356 H 0.44629 0.6759 0.78909 0.0
H1357 H 0.47682 0.69999 0.78237 0.0
C1358 C 0.03006 0.67227 0.53676 0.0
C1359 C 0.05345 0.67203 0.53771 0.0
C1360 C 0.01889 0.69149 0.53276 0.0
C1361 C 0.02637 0.75162 0.53414 0.0
H1362 H 0.96973 0.75256 0.51603 0.0
C1363 C 0.97245 0.8302 0.535 0.0
C1364 C 0.95003 0.82645 0.53831 0.0
C1365 C 0.98594 0.81259 0.53088 0.0
C1366 C 0.98554 0.75258 0.52111 0.0
H1367 H 0.08352 0.69123 0.53426 0.0
H1368 H 0.06395 0.72482 0.52722 0.0
H1369 H 0.99241 0.71868 0.51585 0.0
H1370 H 0.9238 0.8016 0.53909 0.0
H1371 H 0.94742 0.77079 0.53224 0.0
H1372 H 0.01917 0.78497 0.53997 0.0
C1373 C 0.05428 0.71021 0.52976 0.0
C1374 C -0.00147 0.7332 0.52097 0.0
C1375 C 0.06549 0.69093 0.53374 0.0
C1376 C 0.94102 0.80502 0.53664 0.0
C1377 C 0.95457 0.78736 0.53262 0.0
C1378 C 0.01338 0.77092 0.53431 0.0
C1379 C 0.03084 0.71091 0.52962 0.0
C1380 C 0.01881 0.73233 0.52779 0.0
C1381 C 0.97737 0.7908 0.53009 0.0
C1382 C 0.99252 0.77146 0.52809 0.0
H1383 H 0.02029 0.65792 0.53965 0.0
H1384 H 0.00082 0.6915 0.53287 0.0
H1385 H 0.04172 0.75144 0.53966 0.0
H1386 H 0.97979 0.84661 0.536 0.0
H1387 H 0.00331 0.81591 0.52873 0.0
C1388 C 0.94162 0.18088 0.2856 0.0
C1389 C 0.92261 0.1926 0.28973 0.0
C1390 C 0.96048 0.1924 0.28127 0.0
C1391 C 0.98156 0.24855 0.27167 0.0
H1392 H 0.03504 0.22946 0.28958 0.0
C1393 C 0.05226 0.30801 0.28638 0.0
C1394 C 0.07405 0.29966 0.2876 0.0
C1395 C 0.03487 0.29401 0.28249 0.0
C1396 C 0.02048 0.23482 0.28422 0.0
H1397 H 0.90789 0.22551 0.29166 0.0
H1398 H 0.94075 0.24552 0.28431 0.0
H1399 H 0.00213 0.20602 0.29005 0.0
H1400 H 0.09508 0.27069 0.28454 0.0
H1401 H 0.06482 0.2464 0.27754 0.0
H1402 H -0.00022 0.27787 0.2663 0.0
C1403 C 0.94114 0.22746 0.28432 0.0
C1404 C 0.00155 0.22132 0.28449 0.0
C1405 C 0.92234 0.21597 0.28866 0.0
C1406 C 0.07839 0.27753 0.2839 0.0
C1407 C 0.06104 0.26358 0.27993 0.0
C1408 C 0.00056 0.26208 0.27137 0.0
C1409 C 0.96065 0.21586 0.28094 0.0
C1410 C 0.98166 0.22833 0.27856 0.0
C1411 C 0.03895 0.27142 0.27965 0.0
C1412 C 0.02003 0.25566 0.27798 0.0
H1413 H 0.94228 0.16286 0.2862 0.0
H1414 H 0.97517 0.18298 0.27856 0.0
H1415 H 0.96658 0.25425 0.26683 0.0
H1416 H 0.04837 0.32501 0.28913 0.0
H1417 H 0.01805 0.30059 0.28249 0.0
C1418 C 0.56421 0.19048 0.03371 0.0
C1419 C 0.55271 0.17147 0.03803 0.0
C1420 C 0.55245 0.20929 0.02953 0.0
C1421 C 0.4957 0.23045 0.02113 0.0
H1422 H 0.51573 0.28351 0.03912 0.0
C1423 C 0.43698 0.30047 0.03789 0.0
C1424 C 0.44529 0.32228 0.03899 0.0
C1425 C 0.45078 0.2832 0.03359 0.0
C1426 C 0.51008 0.26907 0.03374 0.0
H1427 H 0.51994 0.15665 0.04039 0.0
H1428 H 0.49954 0.18943 0.03334 0.0
H1429 H 0.53933 0.25072 0.03875 0.0
H1430 H 0.47391 0.3435 0.03535 0.0
H1431 H 0.49785 0.31346 0.02765 0.0
H1432 H 0.46593 0.24866 0.01664 0.0
C1433 C 0.51759 0.18987 0.03307 0.0
C1434 C 0.52368 0.25021 0.03352 0.0
C1435 C 0.52931 0.17111 0.03725 0.0
C1436 C 0.46714 0.32678 0.03482 0.0
C1437 C 0.48088 0.30956 0.03044 0.0
C1438 C 0.48206 0.24937 0.02134 0.0
C1439 C 0.52899 0.20942 0.02956 0.0
C1440 C 0.51636 0.23045 0.02757 0.0
C1441 C 0.47312 0.28745 0.03021 0.0
C1442 C 0.48883 0.26867 0.02799 0.0
H1443 H 0.58225 0.1912 0.03408 0.0
H1444 H 0.56171 0.22402 0.02671 0.0
H1445 H 0.48974 0.21557 0.01629 0.0
H1446 H 0.42019 0.29648 0.041 0.0
H1447 H 0.4443 0.26635 0.03364 0.0
C1448 C 0.57645 0.22101 0.70549 0.0
C1449 C 0.57682 0.19758 0.70522 0.0
C1450 C 0.5575 0.23239 0.70974 0.0
C1451 C 0.49741 0.22472 0.71049 0.0
H1452 H 0.49802 0.28233 0.72755 0.0
C1453 C 0.41891 0.27866 0.71076 0.0
C1454 C 0.42243 0.30083 0.70687 0.0
C1455 C 0.43679 0.2654 0.71473 0.0
C1456 C 0.49756 0.26625 0.72278 0.0
H1457 H 0.55817 0.16771 0.71001 0.0
H1458 H 0.52501 0.18764 0.71742 0.0
H1459 H 0.53192 0.25971 0.72707 0.0
H1460 H 0.4472 0.32696 0.70493 0.0
H1461 H 0.47847 0.30372 0.71151 0.0
H1462 H 0.46355 0.23157 0.70558 0.0
C1463 C 0.53932 0.19717 0.7142 0.0
C1464 C 0.51696 0.25329 0.72253 0.0
C1465 C 0.55834 0.18577 0.71 0.0
C1466 C 0.44395 0.30991 0.70784 0.0
C1467 C 0.46188 0.29658 0.7117 0.0
C1468 C 0.47809 0.23768 0.71069 0.0
C1469 C 0.53849 0.22059 0.71378 0.0
C1470 C 0.51724 0.23266 0.71607 0.0
C1471 C 0.45862 0.27396 0.71478 0.0
C1472 C 0.47809 0.25888 0.71651 0.0
H1473 H 0.59049 0.23062 0.70198 0.0
H1474 H 0.55734 0.25043 0.70917 0.0
H1475 H 0.49712 0.20906 0.70527 0.0
H1476 H 0.40243 0.27129 0.71032 0.0
H1477 H 0.43361 0.24819 0.71732 0.0
C1478 C 0.43397 0.69033 0.46147 0.0
C1479 C 0.4449 0.671 0.45713 0.0
C1480 C 0.44628 0.70897 0.46538 0.0
C1481 C 0.50393 0.72897 0.47285 0.0
H1482 H 0.48363 0.78276 0.45571 0.0
C1483 C 0.5624 0.79902 0.45561 0.0
C1484 C 0.5543 0.82098 0.45517 0.0
C1485 C 0.5487 0.78166 0.45992 0.0
C1486 C 0.48937 0.76809 0.46083 0.0
H1487 H 0.47727 0.65546 0.45442 0.0
H1488 H 0.49861 0.68792 0.46097 0.0
H1489 H 0.45961 0.75027 0.45623 0.0
H1490 H 0.52621 0.84229 0.45995 0.0
H1491 H 0.50246 0.81207 0.46757 0.0
H1492 H 0.53421 0.74666 0.47688 0.0
C1493 C 0.48059 0.68876 0.46148 0.0
C1494 C 0.47554 0.7494 0.46115 0.0
C1495 C 0.46832 0.67017 0.4576 0.0
C1496 C 0.53283 0.82547 0.45997 0.0
C1497 C 0.51918 0.80816 0.46431 0.0
C1498 C 0.51782 0.7477 0.47251 0.0
C1499 C 0.46974 0.70862 0.46504 0.0
C1500 C 0.48289 0.72941 0.46683 0.0
C1501 C 0.52668 0.78597 0.46391 0.0
C1502 C 0.51092 0.76726 0.46617 0.0
H1503 H 0.41595 0.69143 0.46134 0.0
H1504 H 0.43743 0.72391 0.46827 0.0
H1505 H 0.50994 0.71393 0.47749 0.0
H1506 H 0.5789 0.79502 0.45202 0.0
H1507 H 0.55495 0.76474 0.45939 0.0
C1508 C 0.07254 0.7165 0.20524 0.0
C1509 C 0.07152 0.6931 0.20467 0.0
C1510 C 0.05422 0.72886 0.20945 0.0
C1511 C 0.99355 0.72467 0.21027 0.0
H1512 H 0.99807 0.78242 0.22699 0.0
C1513 C 0.91844 0.78313 0.21126 0.0
C1514 C 0.92311 0.80469 0.20666 0.0
C1515 C 0.93568 0.76905 0.21521 0.0
C1516 C 0.99653 0.76629 0.22234 0.0
H1517 H 0.05098 0.66425 0.20891 0.0
H1518 H 0.01894 0.68589 0.21638 0.0
H1519 H 0.03047 0.75769 0.22648 0.0
H1520 H 0.94934 0.82899 0.20354 0.0
H1521 H 0.97947 0.80431 0.21023 0.0
H1522 H 0.96001 0.7335 0.20565 0.0
C1523 C 0.03384 0.69466 0.21335 0.0
C1524 C 0.01507 0.75214 0.22205 0.0
C1525 C 0.05221 0.68227 0.20911 0.0
C1526 C 0.9452 0.81244 0.20699 0.0
C1527 C 0.96248 0.79831 0.21089 0.0
C1528 C 0.97506 0.73877 0.21058 0.0
C1529 C 0.03444 0.71812 0.21324 0.0
C1530 C 0.01397 0.73145 0.21565 0.0
C1531 C 0.95797 0.77619 0.21461 0.0
C1532 C 0.97651 0.76001 0.21628 0.0
H1533 H 0.08724 0.72539 0.20198 0.0
H1534 H 0.05522 0.74688 0.2091 0.0
H1535 H 0.99217 0.70901 0.2051 0.0
H1536 H 0.90153 0.77677 0.21132 0.0
H1537 H 0.93163 0.75225 0.21828 0.0
C1538 C 0.06574 0.30396 0.96035 0.0
C1539 C 0.05448 0.32315 0.95608 0.0
C1540 C 0.05375 0.28537 0.96464 0.0
C1541 C 0.99685 0.26552 0.97376 0.0
H1542 H 0.01552 0.2114 0.95633 0.0
C1543 C 0.93662 0.19587 0.95838 0.0
C1544 C 0.94453 0.17387 0.95756 0.0
C1545 C 0.95079 0.21306 0.96237 0.0
C1546 C 0.01026 0.22616 0.96155 0.0
H1547 H 0.0219 0.33848 0.95385 0.0
H1548 H 0.0011 0.30609 0.96111 0.0
H1549 H 0.03966 0.24382 0.95601 0.0
H1550 H 0.97283 0.15229 0.9614 0.0
H1551 H 0.99742 0.18223 0.96851 0.0
H1552 H 0.96693 0.248 0.97877 0.0
C1553 C 0.01915 0.30534 0.96125 0.0
C1554 C 0.02417 0.2448 0.96137 0.0
C1555 C 0.0311 0.32387 0.95696 0.0
C1556 C 0.96635 0.16915 0.96172 0.0
C1557 C 0.98046 0.1863 0.96577 0.0
C1558 C 0.98291 0.24683 0.97393 0.0
C1559 C 0.03029 0.28564 0.96479 0.0
C1560 C 0.01733 0.26491 0.96712 0.0
C1561 C 0.9731 0.20855 0.96568 0.0
C1562 C 0.98918 0.22715 0.96749 0.0
H1563 H 0.08376 0.30295 0.95989 0.0
H1564 H 0.06282 0.27053 0.96747 0.0
H1565 H 0.99128 0.28067 0.97846 0.0
H1566 H 0.91988 0.20004 0.95528 0.0
H1567 H 0.94461 0.23002 0.9621 0.0
C1568 C 0.51972 0.072 0.0997 0.0
C1569 C 0.52233 0.08982 0.09097 0.0
C1570 C 0.50115 0.07098 0.10786 0.0
C1571 C 0.44463 0.095 0.11289 0.0
H1572 H 0.45587 0.08162 0.14902 0.0
C1573 C 0.40723 0.1236 0.16419 0.0
C1574 C 0.38432 0.12337 0.1613 0.0
C1575 C 0.42244 0.11279 0.15614 0.0
C1576 C 0.45242 0.08529 0.13896 0.0
H1577 H 0.50723 0.12032 0.08383 0.0
H1578 H 0.47519 0.11879 0.09819 0.0
H1579 H 0.48559 0.07675 0.1332 0.0
H1580 H 0.35924 0.10977 0.14837 0.0
H1581 H 0.38587 0.09057 0.1344 0.0
H1582 H 0.41197 0.10497 0.11873 0.0
C1583 C 0.48725 0.10536 0.09859 0.0
C1584 C 0.46939 0.08229 0.12986 0.0
C1585 C 0.50576 0.10635 0.09041 0.0
C1586 C 0.3768 0.11048 0.1508 0.0
C1587 C 0.39207 0.0996 0.14274 0.0
C1588 C 0.4277 0.09811 0.12199 0.0
C1589 C 0.4848 0.08777 0.10748 0.0
C1590 C 0.4659 0.08779 0.11678 0.0
C1591 C 0.41512 0.10137 0.14504 0.0
C1592 C 0.43161 0.09396 0.13519 0.0
H1593 H 0.5321 0.05888 0.10031 0.0
H1594 H 0.49964 0.05709 0.1145 0.0
H1595 H 0.44127 0.09897 0.10285 0.0
H1596 H 0.41361 0.13321 0.17226 0.0
H1597 H 0.44005 0.11468 0.15818 0.0
C1598 C 0.1505 0.25403 0.33576 0.0
C1599 C 0.15456 0.27552 0.34056 0.0
C1600 C 0.15134 0.2356 0.34399 0.0
C1601 C 0.16708 0.21783 0.37766 0.0
H1602 H 0.12323 0.17184 0.37078 0.0
C1603 C 0.12656 0.15687 0.41457 0.0
C1604 C 0.1242 0.13459 0.41054 0.0
C1605 C 0.13619 0.17266 0.40634 0.0
C1606 C 0.13579 0.18439 0.37271 0.0
H1607 H 0.16297 0.2947 0.35764 0.0
H1608 H 0.16306 0.26281 0.37222 0.0
H1609 H 0.12757 0.20232 0.3556 0.0
H1610 H 0.1316 0.11111 0.39513 0.0
H1611 H 0.14797 0.13881 0.38072 0.0
H1612 H 0.17389 0.2003 0.39537 0.0
C1613 C 0.16008 0.25989 0.36203 0.0
C1614 C 0.13841 0.20188 0.36397 0.0
C1615 C 0.15984 0.27825 0.3537 0.0
C1616 C 0.13318 0.1281 0.39855 0.0
C1617 C 0.14248 0.14394 0.39026 0.0
C1618 C 0.16405 0.20052 0.38657 0.0
C1619 C 0.15558 0.23831 0.35732 0.0
C1620 C 0.15399 0.21896 0.36633 0.0
C1621 C 0.14332 0.16645 0.39391 0.0
C1622 C 0.14832 0.18374 0.38416 0.0
H1623 H 0.14677 0.25145 0.32561 0.0
H1624 H 0.14844 0.21925 0.33989 0.0
H1625 H 0.17953 0.2304 0.37972 0.0
H1626 H 0.11991 0.16235 0.42379 0.0
H1627 H 0.13659 0.18998 0.40932 0.0
C1628 C 0.08644 0.87003 0.66457 0.0
C1629 C 0.10939 0.87304 0.6624 0.0
C1630 C 0.07077 0.8811 0.65694 0.0
C1631 C 0.03943 0.90955 0.6411 0.0
H1632 H 0.05413 0.9051 0.60464 0.0
C1633 C 0.97372 0.92518 0.6012 0.0
C1634 C 0.97326 0.90895 0.59136 0.0
C1635 C 0.99163 0.92626 0.60984 0.0
C1636 C 0.04977 0.90651 0.61478 0.0
H1637 H 0.13383 0.89167 0.6513 0.0
H1638 H 0.10638 0.91126 0.63808 0.0
H1639 H 0.08282 0.89818 0.62077 0.0
H1640 H 0.99158 0.88148 0.58273 0.0
H1641 H 0.0225 0.88313 0.59787 0.0
H1642 H 0.00601 0.91642 0.63507 0.0
C1643 C 0.10056 0.89991 0.6455 0.0
C1644 C 0.06631 0.90286 0.62405 0.0
C1645 C 0.11628 0.88878 0.65314 0.0
C1646 C 0.99136 0.8942 0.59018 0.0
C1647 C 0.00922 0.89528 0.59881 0.0
C1648 C 0.02286 0.91311 0.63182 0.0
C1649 C 0.07766 0.89555 0.647 0.0
C1650 C 0.06118 0.90363 0.63732 0.0
C1651 C 0.00948 0.91117 0.60882 0.0
C1652 C 0.02769 0.9109 0.61856 0.0
H1653 H 0.08051 0.85817 0.67169 0.0
H1654 H 0.0533 0.87718 0.65831 0.0
H1655 H 0.03501 0.91059 0.65125 0.0
H1656 H 0.9601 0.9369 0.60234 0.0
H1657 H 0.99144 0.93883 0.61737 0.0
C1658 C 0.33065 0.71665 0.8553 0.0
C1659 C 0.33886 0.72099 0.8428 0.0
C1660 C 0.32984 0.73362 0.86456 0.0
C1661 C 0.32802 0.79356 0.86959 0.0
H1662 H 0.36621 0.78309 0.89924 0.0
C1663 C 0.36528 0.86501 0.89949 0.0
C1664 C 0.37292 0.86089 0.9121 0.0
C1665 C 0.35533 0.848 0.89229 0.0
C1666 C 0.35491 0.78624 0.89128 0.0
H1667 H 0.35164 0.74663 0.83 0.0
H1668 H 0.34969 0.77644 0.84615 0.0
H1669 H 0.35914 0.75305 0.88404 0.0
H1670 H 0.37414 0.83657 0.92759 0.0
H1671 H 0.35554 0.80725 0.91535 0.0
H1672 H 0.32352 0.82667 0.8768 0.0
C1673 C 0.3441 0.75985 0.84876 0.0
C1674 C 0.35103 0.76899 0.88251 0.0
C1675 C 0.34537 0.7428 0.83958 0.0
C1676 C 0.36869 0.84007 0.9178 0.0
C1677 C 0.35822 0.82322 0.91072 0.0
C1678 C 0.33147 0.81074 0.87853 0.0
C1679 C 0.33671 0.75529 0.86137 0.0
C1680 C 0.33808 0.77269 0.87143 0.0
C1681 C 0.35234 0.82662 0.89766 0.0
C1682 C 0.34554 0.80752 0.88929 0.0
H1683 H 0.32554 0.69999 0.85807 0.0
H1684 H 0.32413 0.72977 0.87426 0.0
H1685 H 0.3178 0.79667 0.86113 0.0
H1686 H 0.36839 0.88089 0.89483 0.0
H1687 H 0.35133 0.85135 0.88226 0.0
C1688 C 0.52522 0.91233 0.39285 0.0
C1689 C 0.52395 0.90464 0.40565 0.0
C1690 C 0.50632 0.91237 0.38496 0.0
C1691 C 0.44989 0.88676 0.38282 0.0
H1692 H 0.4443 0.92693 0.35356 0.0
C1693 C 0.37584 0.88146 0.34817 0.0
C1694 C 0.38318 0.8738 0.33602 0.0
C1695 C 0.39094 0.89091 0.35687 0.0
C1696 C 0.44561 0.9158 0.36179 0.0
H1697 H 0.50183 0.89207 0.42052 0.0
H1698 H 0.46852 0.89333 0.40707 0.0
H1699 H 0.47445 0.93241 0.36916 0.0
H1700 H 0.41145 0.87215 0.32296 0.0
H1701 H 0.43768 0.88931 0.3381 0.0
H1702 H 0.42079 0.87046 0.37547 0.0
C1703 C 0.48424 0.89837 0.40283 0.0
C1704 C 0.46299 0.91871 0.37066 0.0
C1705 C 0.5033 0.89775 0.4106 0.0
C1706 C 0.40537 0.87777 0.33228 0.0
C1707 C 0.42034 0.88766 0.3409 0.0
C1708 C 0.43227 0.88423 0.37415 0.0
C1709 C 0.48555 0.90527 0.38981 0.0
C1710 C 0.46571 0.90387 0.38113 0.0
C1711 C 0.41344 0.89337 0.35344 0.0
C1712 C 0.43025 0.89842 0.36344 0.0
H1713 H 0.54101 0.91764 0.38878 0.0
H1714 H 0.50824 0.91736 0.37496 0.0
H1715 H 0.45154 0.87464 0.39052 0.0
H1716 H 0.35885 0.87863 0.35134 0.0
H1717 H 0.38531 0.89525 0.36652 0.0
C1718 C 0.36999 0.15893 0.58077 0.0
C1719 C 0.37205 0.13651 0.58458 0.0
C1720 C 0.35982 0.17445 0.58897 0.0
C1721 C 0.35824 0.18517 0.62262 0.0
H1722 H 0.31434 0.23097 0.61544 0.0
C1723 C 0.34217 0.25393 0.65989 0.0
C1724 C 0.33824 0.27549 0.65518 0.0
C1725 C 0.3414 0.23562 0.65156 0.0
C1726 C 0.32683 0.21846 0.61757 0.0
H1727 H 0.3636 0.11252 0.59954 0.0
H1728 H 0.34632 0.13974 0.6139 0.0
H1729 H 0.32098 0.2014 0.59958 0.0
H1730 H 0.32999 0.29494 0.63818 0.0
H1731 H 0.33004 0.26328 0.62344 0.0
H1732 H 0.36557 0.20266 0.64001 0.0
C1733 C 0.35244 0.14519 0.60455 0.0
C1734 C 0.33042 0.20145 0.60852 0.0
C1735 C 0.36227 0.12962 0.59629 0.0
C1736 C 0.33301 0.27842 0.64205 0.0
C1737 C 0.33286 0.26018 0.63363 0.0
C1738 C 0.35506 0.20236 0.6315 0.0
C1739 C 0.35184 0.16782 0.60115 0.0
C1740 C 0.34623 0.18476 0.61098 0.0
C1741 C 0.33738 0.23854 0.63823 0.0
C1742 C 0.33943 0.21938 0.62909 0.0
H1743 H 0.37726 0.16471 0.57178 0.0
H1744 H 0.35962 0.19188 0.58619 0.0
H1745 H 0.37084 0.17267 0.62461 0.0
H1746 H 0.34588 0.25122 0.67004 0.0
H1747 H 0.34426 0.21921 0.6556 0.0
C1748 C 0.98492 0.11354 0.90501 0.0
C1749 C 0.97072 0.09491 0.90525 0.0
C1750 C 0.00203 0.11493 0.89591 0.0
C1751 C 0.03779 0.08335 0.87387 0.0
H1752 H 0.03942 0.13901 0.85477 0.0
C1753 C 0.0851 0.13073 0.82858 0.0
C1754 C 0.10745 0.12897 0.83255 0.0
C1755 C 0.06805 0.12191 0.83618 0.0
C1756 C 0.03903 0.12325 0.85989 0.0
H1757 H 0.96405 0.06262 0.89654 0.0
H1758 H 0.99421 0.0651 0.88066 0.0
H1759 H 0.01101 0.13336 0.87124 0.0
H1760 H 0.12958 0.11464 0.84695 0.0
H1761 H 0.09965 0.09938 0.86031 0.0
H1762 H 0.06622 0.07349 0.86258 0.0
C1763 C 0.99192 0.0786 0.8875 0.0
C1764 C 0.02294 0.12015 0.86943 0.0
C1765 C 0.97461 0.07728 0.89654 0.0
C1766 C 0.11252 0.1164 0.84367 0.0
C1767 C 0.09539 0.10759 0.8513 0.0
C1768 C 0.05415 0.08657 0.86437 0.0
C1769 C 0.00545 0.09766 0.88694 0.0
C1770 C 0.02228 0.10029 0.87659 0.0
C1771 C 0.07298 0.11118 0.84791 0.0
C1772 C 0.05493 0.10661 0.85733 0.0
H1773 H 0.98247 0.12736 0.91161 0.0
H1774 H 0.01245 0.1297 0.89576 0.0
H1775 H 0.03759 0.06789 0.87929 0.0
H1776 H 0.08064 0.13997 0.81995 0.0
H1777 H 0.05092 0.1245 0.83321 0.0
C1778 C 0.16775 0.71542 0.14107 0.0
C1779 C 0.1575 0.71843 0.15319 0.0
C1780 C 0.16838 0.73286 0.13211 0.0
C1781 C 0.16694 0.79265 0.12785 0.0
H1782 H 0.13161 0.7819 0.09707 0.0
C1783 C 0.12923 0.86386 0.09799 0.0
C1784 C 0.12262 0.85999 0.08516 0.0
C1785 C 0.13931 0.84694 0.10519 0.0
C1786 C 0.14213 0.78518 0.10536 0.0
H1787 H 0.14082 0.74224 0.16568 0.0
H1788 H 0.14251 0.77295 0.15009 0.0
H1789 H 0.13881 0.75151 0.11202 0.0
H1790 H 0.12331 0.83628 0.06935 0.0
H1791 H 0.1422 0.80717 0.08161 0.0
H1792 H 0.17062 0.8262 0.12123 0.0
C1793 C 0.1498 0.75701 0.14753 0.0
C1794 C 0.14607 0.76772 0.11398 0.0
C1795 C 0.14869 0.73944 0.15638 0.0
C1796 C 0.12798 0.83957 0.0793 0.0
C1797 C 0.13861 0.82283 0.08639 0.0
C1798 C 0.16349 0.81005 0.11907 0.0
C1799 C 0.1593 0.75371 0.13527 0.0
C1800 C 0.15796 0.77148 0.12544 0.0
C1801 C 0.14347 0.8259 0.09962 0.0
C1802 C 0.15042 0.80674 0.10789 0.0
H1803 H 0.17463 0.69939 0.13834 0.0
H1804 H 0.1757 0.73001 0.12266 0.0
H1805 H 0.17632 0.7958 0.13663 0.0
H1806 H 0.12518 0.87942 0.10278 0.0
H1807 H 0.14248 0.85003 0.11535 0.0
C1808 C 0.492 0.90519 0.90966 0.0
C1809 C 0.47075 0.90963 0.90464 0.0
C1810 C 0.51065 0.90545 0.90159 0.0
C1811 C 0.52965 0.91939 0.86786 0.0
H1812 H 0.57388 0.87415 0.87561 0.0
C1813 C 0.59001 0.87541 0.83188 0.0
C1814 C 0.61218 0.87276 0.83605 0.0
C1815 C 0.57429 0.88567 0.83991 0.0
C1816 C 0.56183 0.88708 0.87343 0.0
H1817 H 0.45219 0.91827 0.88737 0.0
H1818 H 0.48445 0.91734 0.87306 0.0
H1819 H 0.54331 0.88022 0.89052 0.0
H1820 H 0.63555 0.88014 0.85152 0.0
H1821 H 0.60795 0.89757 0.86559 0.0
H1822 H 0.54774 0.92482 0.85017 0.0
C1823 C 0.48705 0.91449 0.8833 0.0
C1824 C 0.5443 0.89071 0.88202 0.0
C1825 C 0.46847 0.91486 0.89147 0.0
C1826 C 0.61864 0.88194 0.848 0.0
C1827 C 0.60286 0.89185 0.85609 0.0
C1828 C 0.54699 0.91536 0.8591 0.0
C1829 C 0.50838 0.90944 0.88821 0.0
C1830 C 0.52785 0.90682 0.87935 0.0
C1831 C 0.58045 0.89314 0.85227 0.0
C1832 C 0.56314 0.89911 0.86182 0.0
H1833 H 0.49421 0.90148 0.91985 0.0
H1834 H 0.52682 0.90219 0.90585 0.0
H1835 H 0.51758 0.93221 0.86555 0.0
H1836 H 0.58457 0.86862 0.82269 0.0
H1837 H 0.55704 0.88639 0.83681 0.0
C1838 C 0.87659 0.83698 0.57853 0.0
C1839 C 0.87624 0.85923 0.58281 0.0
C1840 C 0.86744 0.82012 0.58614 0.0
C1841 C 0.83386 0.80678 0.61516 0.0
H1842 H 0.87972 0.76203 0.6205 0.0
C1843 C 0.82499 0.72665 0.64698 0.0
C1844 C 0.84318 0.72219 0.6552 0.0
C1845 C 0.82597 0.74419 0.63807 0.0
C1846 C 0.86677 0.77441 0.61911 0.0
H1847 H 0.86392 0.88152 0.59774 0.0
H1848 H 0.84808 0.8519 0.6111 0.0
H1849 H 0.88494 0.79051 0.60403 0.0
H1850 H 0.87626 0.7332 0.66086 0.0
H1851 H 0.878 0.76357 0.64524 0.0
H1852 H 0.81589 0.79056 0.6305 0.0
C1853 C 0.85544 0.84757 0.60186 0.0
C1854 C 0.8696 0.79054 0.60958 0.0
C1855 C 0.86458 0.86452 0.59422 0.0
C1856 C 0.86201 0.7361 0.65464 0.0
C1857 C 0.86306 0.75343 0.64567 0.0
C1858 C 0.83088 0.79036 0.62465 0.0
C1859 C 0.85779 0.82513 0.59818 0.0
C1860 C 0.85331 0.80702 0.60757 0.0
C1861 C 0.84524 0.75738 0.63715 0.0
C1862 C 0.84752 0.77428 0.62682 0.0
H1863 H 0.88509 0.83239 0.56967 0.0
H1864 H 0.86904 0.80298 0.58295 0.0
H1865 H 0.82107 0.81932 0.6138 0.0
H1866 H 0.81018 0.71633 0.64723 0.0
H1867 H 0.81205 0.7469 0.63158 0.0
C1868 C 0.90526 0.12022 0.33277 0.0
C1869 C 0.88315 0.12377 0.3368 0.0
C1870 C 0.92067 0.11026 0.34111 0.0
C1871 C 0.9332 0.11182 0.37455 0.0
H1872 H 0.97624 0.06488 0.36812 0.0
C1873 C 0.00373 0.09592 0.41087 0.0
C1874 C 0.02467 0.09013 0.40584 0.0
C1875 C 0.98484 0.09554 0.40297 0.0
C1876 C 0.96453 0.07822 0.37002 0.0
H1877 H 0.8595 0.11831 0.35239 0.0
H1878 H 0.8866 0.10143 0.36703 0.0
H1879 H 0.94601 0.07128 0.35267 0.0
H1880 H 0.04236 0.07915 0.3887 0.0
H1881 H 0.00979 0.07983 0.37469 0.0
H1882 H 0.95221 0.12013 0.39125 0.0
C1883 C 0.89187 0.10616 0.35738 0.0
C1884 C 0.94712 0.08167 0.36122 0.0
C1885 C 0.87637 0.11574 0.34897 0.0
C1886 C 0.02636 0.08361 0.39283 0.0
C1887 C 0.00758 0.08381 0.38483 0.0
C1888 C 0.95082 0.10875 0.38316 0.0
C1889 C 0.91427 0.10404 0.35367 0.0
C1890 C 0.93143 0.09859 0.3634 0.0
C1891 C 0.98656 0.09001 0.38975 0.0
C1892 C 0.96688 0.09204 0.38099 0.0
H1893 H 0.91094 0.12616 0.32342 0.0
H1894 H 0.93792 0.10888 0.33808 0.0
H1895 H 0.92148 0.12525 0.3763 0.0
H1896 H 0.00195 0.10068 0.42093 0.0
H1897 H 0.96893 0.0998 0.40725 0.0
C1898 C 0.67063 0.27705 0.14031 0.0
C1899 C 0.66144 0.27356 0.15267 0.0
C1900 C 0.67146 0.25966 0.13133 0.0
C1901 C 0.6702 0.19919 0.12715 0.0
H1902 H 0.63537 0.2111 0.09632 0.0
C1903 C 0.62977 0.12945 0.09719 0.0
C1904 C 0.62342 0.13366 0.08435 0.0
C1905 C 0.64056 0.1459 0.10443 0.0
C1906 C 0.64575 0.20747 0.10463 0.0
H1907 H 0.64704 0.24888 0.16555 0.0
H1908 H 0.64895 0.21837 0.14988 0.0
H1909 H 0.64342 0.2412 0.11128 0.0
H1910 H 0.62538 0.15731 0.06855 0.0
H1911 H 0.64548 0.1855 0.08088 0.0
H1912 H 0.67269 0.16549 0.12056 0.0
C1913 C 0.65532 0.23462 0.14716 0.0
C1914 C 0.6502 0.2248 0.11326 0.0
C1915 C 0.65406 0.2521 0.15607 0.0
C1916 C 0.62982 0.15379 0.07851 0.0
C1917 C 0.64114 0.17002 0.08564 0.0
C1918 C 0.66616 0.1819 0.11838 0.0
C1919 C 0.66359 0.23838 0.13464 0.0
C1920 C 0.66191 0.22067 0.12475 0.0
C1921 C 0.64569 0.16674 0.09888 0.0
C1922 C 0.65327 0.18564 0.10718 0.0
H1923 H 0.67643 0.29342 0.13742 0.0
H1924 H 0.67788 0.26291 0.1217 0.0
H1925 H 0.67943 0.19571 0.13594 0.0
H1926 H 0.62497 0.11408 0.10194 0.0
H1927 H 0.64352 0.14267 0.11459 0.0
C1928 C 0.61897 0.11531 0.64811 0.0
C1929 C 0.61234 0.12562 0.65972 0.0
C1930 C 0.60314 0.10551 0.64 0.0
C1931 C 0.54686 0.08379 0.63646 0.0
H1932 H 0.54435 0.11914 0.60507 0.0
C1933 C 0.46878 0.08571 0.60378 0.0
C1934 C 0.47122 0.09113 0.59065 0.0
C1935 C 0.48728 0.08577 0.61201 0.0
C1936 C 0.545 0.10857 0.61355 0.0
H1937 H 0.58434 0.13183 0.67253 0.0
H1938 H 0.55675 0.11414 0.65842 0.0
H1939 H 0.57487 0.12444 0.62013 0.0
H1940 H 0.49488 0.09937 0.57556 0.0
H1941 H 0.52736 0.09806 0.58964 0.0
H1942 H 0.51723 0.06757 0.62985 0.0
C1943 C 0.57415 0.11395 0.65559 0.0
C1944 C 0.5625 0.11177 0.62223 0.0
C1945 C 0.58991 0.12414 0.66361 0.0
C1946 C 0.49256 0.09551 0.58572 0.0
C1947 C 0.51113 0.09492 0.59385 0.0
C1948 C 0.52957 0.08015 0.6276 0.0
C1949 C 0.58053 0.10541 0.6435 0.0
C1950 C 0.56337 0.0997 0.63383 0.0
C1951 C 0.50871 0.09068 0.6072 0.0
C1952 C 0.52816 0.09282 0.61613 0.0
H1953 H 0.63611 0.11616 0.64484 0.0
H1954 H 0.60837 0.09898 0.6307 0.0
H1955 H 0.54727 0.07432 0.64538 0.0
H1956 H 0.45243 0.08235 0.60779 0.0
H1957 H 0.48454 0.08278 0.62222 0.0
C1958 C 0.65333 0.74419 0.33597 0.0
C1959 C 0.65903 0.72332 0.34111 0.0
C1960 C 0.65411 0.76326 0.34372 0.0
C1961 C 0.67223 0.78406 0.37644 0.0
H1962 H 0.62522 0.82716 0.37028 0.0
C1963 C 0.62977 0.84224 0.41389 0.0
C1964 C 0.62567 0.86434 0.41 0.0
C1965 C 0.64017 0.82727 0.40547 0.0
C1966 C 0.63868 0.81545 0.37198 0.0
H1967 H 0.6703 0.70588 0.35826 0.0
H1968 H 0.67029 0.73877 0.37204 0.0
H1969 H 0.63013 0.79638 0.35535 0.0
H1970 H 0.63086 0.88853 0.39466 0.0
H1971 H 0.64844 0.86211 0.37983 0.0
H1972 H 0.67933 0.80258 0.39377 0.0
C1973 C 0.66608 0.7408 0.36192 0.0
C1974 C 0.64162 0.79779 0.36338 0.0
C1975 C 0.66589 0.72185 0.35406 0.0
C1976 C 0.63373 0.87161 0.39794 0.0
C1977 C 0.64375 0.85653 0.38943 0.0
C1978 C 0.6689 0.8015 0.38523 0.0
C1979 C 0.65996 0.76177 0.3569 0.0
C1980 C 0.65826 0.78165 0.36554 0.0
C1981 C 0.64632 0.83408 0.39297 0.0
C1982 C 0.65196 0.8172 0.3831 0.0
H1983 H 0.64833 0.7458 0.32593 0.0
H1984 H 0.64991 0.77912 0.33935 0.0
H1985 H 0.68554 0.7723 0.37832 0.0
H1986 H 0.62387 0.8362 0.42316 0.0
H1987 H 0.6419 0.80999 0.40837 0.0
C1988 C 0.8746 0.88392 0.14885 0.0
C1989 C 0.8816 0.8761 0.16103 0.0
C1990 C 0.88995 0.89333 0.14029 0.0
C1991 C 0.94557 0.91707 0.13597 0.0
H1992 H 0.94964 0.87769 0.10629 0.0
C1993 C 0.02476 0.9122 0.10451 0.0
C1994 C 0.02296 0.90556 0.09153 0.0
C1995 C 0.00596 0.91258 0.11249 0.0
C1996 C 0.94853 0.88932 0.11428 0.0
H1997 H 0.90958 0.8742 0.1743 0.0
H1998 H 0.93627 0.89115 0.15939 0.0
H1999 H 0.91885 0.87373 0.12132 0.0
H2000 H 5e-05 0.8953 0.07646 0.0
H2001 H 0.96701 0.89714 0.09011 0.0
H2002 H 0.97508 0.93293 0.1289 0.0
C2003 C 0.91899 0.88969 0.15645 0.0
C2004 C 0.93087 0.88693 0.12293 0.0
C2005 C 0.90373 0.87991 0.16495 0.0
C2006 C 0.00192 0.90013 0.08651 0.0
C2007 C 0.98301 0.90108 0.09439 0.0
C2008 C 0.96303 0.91984 0.12713 0.0
C2009 C 0.91242 0.89552 0.14386 0.0
C2010 C 0.92948 0.90047 0.13397 0.0
C2011 C 0.98481 0.90686 0.10757 0.0
C2012 C 0.96504 0.90565 0.1163 0.0
H2013 H 0.85766 0.88129 0.14554 0.0
H2014 H 0.88454 0.89782 0.13062 0.0
H2015 H 0.94476 0.9277 0.14444 0.0
H2016 H 0.04084 0.91639 0.10863 0.0
H2017 H 0.00822 0.9167 0.1226 0.0
C2018 C 0.86347 0.15403 0.91932 0.0
C2019 C 0.86995 0.13384 0.91355 0.0
C2020 C 0.85262 0.17038 0.91203 0.0
C2021 C 0.82951 0.18267 0.87886 0.0
H2022 H 0.8533 0.24145 0.88625 0.0
C2023 C 0.84451 0.25244 0.84122 0.0
C2024 C 0.83704 0.27394 0.84444 0.0
C2025 C 0.8429 0.23506 0.85017 0.0
C2026 C 0.84625 0.22519 0.88418 0.0
H2027 H 0.86881 0.11425 0.89594 0.0
H2028 H 0.85103 0.14299 0.88307 0.0
H2029 H 0.85981 0.21126 0.90141 0.0
H2030 H 0.82165 0.29404 0.85946 0.0
H2031 H 0.81959 0.26372 0.87527 0.0
H2032 H 0.81752 0.19667 0.86104 0.0
C2033 C 0.85362 0.1462 0.89327 0.0
C2034 C 0.8498 0.20783 0.89292 0.0
C2035 C 0.86395 0.12965 0.90065 0.0
C2036 C 0.82754 0.27763 0.8567 0.0
C2037 C 0.82636 0.26035 0.86574 0.0
C2038 C 0.82639 0.19998 0.86998 0.0
C2039 C 0.8486 0.16714 0.89873 0.0
C2040 C 0.84187 0.18618 0.89029 0.0
C2041 C 0.83418 0.23898 0.86257 0.0
C2042 C 0.83506 0.22127 0.87249 0.0
H2043 H 0.86764 0.15756 0.92931 0.0
H2044 H 0.84832 0.18594 0.91672 0.0
H2045 H 0.8227 0.16641 0.8766 0.0
H2046 H 0.85177 0.24907 0.83181 0.0
H2047 H 0.84924 0.21874 0.84757 0.0
C2048 C 0.02449 0.58398 0.60385 0.0
C2049 C 0.02265 0.59069 0.59088 0.0
C2050 C 0.00569 0.58355 0.61184 0.0
C2051 C 0.94826 0.60692 0.61362 0.0
H2052 H 0.94447 0.56883 0.64389 0.0
C2053 C 0.8745 0.61324 0.64825 0.0
C2054 C 0.88163 0.62103 0.66041 0.0
C2055 C 0.88973 0.60358 0.63969 0.0
C2056 C 0.94527 0.57937 0.63539 0.0
H2057 H -0.00032 0.60092 0.57584 0.0
H2058 H 0.96669 0.59896 0.58949 0.0
H2059 H 0.97478 0.56343 0.62837 0.0
H2060 H 0.90965 0.62261 0.67367 0.0
H2061 H 0.9361 0.60523 0.65876 0.0
H2062 H 0.91861 0.62264 0.62063 0.0
C2063 C 0.9827 0.59505 0.59376 0.0
C2064 C 0.96274 0.5765 0.62656 0.0
C2065 C 0.00159 0.59605 0.58588 0.0
C2066 C 0.90371 0.61692 0.66433 0.0
C2067 C 0.91883 0.6069 0.65584 0.0
C2068 C 0.9306 0.60941 0.62227 0.0
C2069 C 0.98452 0.58929 0.60694 0.0
C2070 C 0.96476 0.59059 0.61569 0.0
C2071 C 0.91218 0.60112 0.64325 0.0
C2072 C 0.92919 0.59598 0.63335 0.0
H2073 H 0.0406 0.57983 0.60795 0.0
H2074 H 0.00798 0.57942 0.62195 0.0
H2075 H 0.94937 0.61849 0.60561 0.0
H2076 H 0.8576 0.6161 0.64495 0.0
H2077 H 0.88424 0.59913 0.63004 0.0
C2078 C 0.63326 0.65411 0.91339 0.0
C2079 C 0.62803 0.63216 0.90969 0.0
C2080 C 0.64338 0.66865 0.90462 0.0
C2081 C 0.63918 0.68006 0.87109 0.0
H2082 H 0.68661 0.72302 0.8763 0.0
C2083 C 0.65144 0.75179 0.83499 0.0
C2084 C 0.65748 0.77259 0.84012 0.0
C2085 C 0.65265 0.7326 0.84262 0.0
C2086 C 0.67315 0.71131 0.87473 0.0
H2087 H 0.63104 0.60768 0.8943 0.0
H2088 H 0.64818 0.63337 0.87888 0.0
H2089 H 0.6815 0.6927 0.89183 0.0
H2090 H 0.66973 0.78972 0.85716 0.0
H2091 H 0.67054 0.75663 0.87073 0.0
H2092 H 0.62947 0.69925 0.8547 0.0
C2093 C 0.64455 0.63918 0.88859 0.0
C2094 C 0.67044 0.69383 0.88357 0.0
C2095 C 0.63481 0.6245 0.89744 0.0
C2096 C 0.66504 0.77384 0.85295 0.0
C2097 C 0.66571 0.75476 0.86069 0.0
C2098 C 0.64154 0.69775 0.86244 0.0
C2099 C 0.64812 0.66157 0.89196 0.0
C2100 C 0.65326 0.67824 0.88188 0.0
C2101 C 0.65934 0.73387 0.85568 0.0
C2102 C 0.65834 0.71385 0.86423 0.0
H2103 H 0.62836 0.66043 0.92279 0.0
H2104 H 0.6459 0.68589 0.90741 0.0
H2105 H 0.62554 0.66845 0.86972 0.0
H2106 H 0.64588 0.75033 0.82505 0.0
H2107 H 0.64816 0.71681 0.83827 0.0
C2108 C 0.58692 0.36626 0.16402 0.0
C2109 C 0.60976 0.36931 0.16149 0.0
C2110 C 0.57088 0.37668 0.15634 0.0
C2111 C 0.53889 0.40429 0.14036 0.0
H2112 H 0.55187 0.39731 0.1038 0.0
C2113 C 0.47248 0.4205 0.10088 0.0
C2114 C 0.47105 0.40396 0.09125 0.0
C2115 C 0.49058 0.42101 0.10941 0.0
C2116 C 0.54799 0.39941 0.11397 0.0
H2117 H 0.63362 0.3873 0.14964 0.0
H2118 H 0.60552 0.40571 0.13631 0.0
H2119 H 0.58117 0.39095 0.11965 0.0
H2120 H 0.48775 0.37524 0.08291 0.0
H2121 H 0.51906 0.37596 0.09785 0.0
H2122 H 0.50534 0.41147 0.13467 0.0
C2123 C 0.60008 0.39486 0.14408 0.0
C2124 C 0.56488 0.39608 0.12306 0.0
C2125 C 0.61617 0.38441 0.15177 0.0
C2126 C 0.48831 0.38821 0.0902 0.0
C2127 C 0.50637 0.38874 0.09871 0.0
C2128 C 0.52197 0.40759 0.13125 0.0
C2129 C 0.57728 0.39046 0.14598 0.0
C2130 C 0.56038 0.39786 0.13638 0.0
C2131 C 0.50765 0.40504 0.10847 0.0
C2132 C 0.5262 0.40454 0.11798 0.0
H2133 H 0.58137 0.35487 0.17149 0.0
H2134 H 0.55349 0.37277 0.15804 0.0
H2135 H 0.53496 0.40606 0.15054 0.0
H2136 H 0.45953 0.43297 0.10193 0.0
H2137 H 0.49119 0.4339 0.11675 0.0
C2138 C 0.85412 0.24068 0.34094 0.0
C2139 C 0.83845 0.22331 0.34171 0.0
C2140 C 0.85296 0.25875 0.34943 0.0
C2141 C 0.84179 0.30004 0.36488 0.0
H2142 H 0.83388 0.28573 0.4012 0.0
C2143 C 0.8582 0.36617 0.40357 0.0
C2144 C 0.87319 0.35889 0.41315 0.0
C2145 C 0.84711 0.35074 0.39572 0.0
C2146 C 0.83597 0.29003 0.39109 0.0
H2147 H 0.80879 0.21172 0.35173 0.0
H2148 H 0.80677 0.24339 0.3665 0.0
H2149 H 0.82841 0.25684 0.38491 0.0
H2150 H 0.8866 0.32965 0.4228 0.0
H2151 H 0.86762 0.30292 0.40908 0.0
H2152 H 0.85073 0.33281 0.37107 0.0
C2153 C 0.82009 0.24285 0.35942 0.0
C2154 C 0.83264 0.27353 0.38174 0.0
C2155 C 0.82123 0.22474 0.35093 0.0
C2156 C 0.87536 0.33588 0.41543 0.0
C2157 C 0.86431 0.32049 0.4076 0.0
C2158 C 0.84516 0.31651 0.37422 0.0
C2159 C 0.83609 0.25992 0.35886 0.0
C2160 C 0.83622 0.27818 0.36856 0.0
C2161 C 0.85075 0.32775 0.39733 0.0
C2162 C 0.84298 0.31151 0.38746 0.0
H2163 H 0.86759 0.24013 0.33396 0.0
H2164 H 0.86576 0.27145 0.34886 0.0
H2165 H 0.84431 0.30423 0.35478 0.0
H2166 H 0.85589 0.38375 0.40165 0.0
H2167 H 0.83643 0.35684 0.38804 0.0
C2168 C 0.87925 0.38656 0.84432 0.0
C2169 C 0.88584 0.37123 0.83476 0.0
C2170 C 0.89522 0.39755 0.85184 0.0
C2171 C 0.93055 0.39958 0.87276 0.0
H2172 H 0.98987 0.41526 0.86093 0.0
C2173 C 0.0077 0.39089 0.90498 0.0
C2174 C 0.02504 0.40653 0.90392 0.0
C2175 C 0.98939 0.39182 0.89667 0.0
C2176 C 0.9733 0.41133 0.86441 0.0
H2177 H 0.91441 0.35705 0.82478 0.0
H2178 H 0.94207 0.37589 0.83794 0.0
H2179 H 0.96012 0.40966 0.84517 0.0
H2180 H 0.03642 0.43583 0.89349 0.0
H2181 H 0.00434 0.43745 0.87898 0.0
H2182 H 0.94379 0.40085 0.89197 0.0
C2183 C 0.92463 0.37954 0.83966 0.0
C2184 C 0.9563 0.40793 0.85537 0.0
C2185 C 0.90871 0.36856 0.83216 0.0
C2186 C 0.02341 0.42343 0.89452 0.0
C2187 C 0.00508 0.42434 0.88618 0.0
C2188 C 0.94752 0.40301 0.88179 0.0
C2189 C 0.91808 0.39349 0.84991 0.0
C2190 C 0.93492 0.40131 0.85942 0.0
C2191 C 0.98795 0.40843 0.8871 0.0
C2192 C 0.96925 0.4082 0.87769 0.0
H2193 H 0.8618 0.38921 0.84649 0.0
H2194 H 0.88966 0.40852 0.85952 0.0
H2195 H 0.91434 0.39433 0.87623 0.0
H2196 H 0.00838 0.37765 0.91211 0.0
H2197 H 0.97667 0.37908 0.8975 0.0
C2198 C 0.86508 0.63351 0.09452 0.0
C2199 C 0.87771 0.63888 0.08347 0.0
C2200 C 0.85615 0.65043 0.10228 0.0
C2201 C 0.83475 0.69145 0.11552 0.0
H2202 H 0.88138 0.73448 0.12291 0.0
C2203 C 0.82479 0.7714 0.14736 0.0
C2204 C 0.84226 0.77549 0.15614 0.0
C2205 C 0.82621 0.75379 0.13851 0.0
C2206 C 0.86822 0.72257 0.12096 0.0
H2207 H 0.88869 0.66604 0.07111 0.0
H2208 H 0.87303 0.69539 0.0846 0.0
H2209 H 0.88743 0.70623 0.10639 0.0
H2210 H 0.87446 0.76366 0.16289 0.0
H2211 H 0.87696 0.73316 0.1474 0.0
H2212 H 0.81568 0.70793 0.13032 0.0
C2213 C 0.87048 0.67817 0.08741 0.0
C2214 C 0.87155 0.70657 0.1114 0.0
C2215 C 0.8794 0.66134 0.07968 0.0
C2216 C 0.86076 0.76109 0.15622 0.0
C2217 C 0.86225 0.74367 0.14733 0.0
C2218 C 0.83129 0.70774 0.12504 0.0
C2219 C 0.85968 0.67293 0.09908 0.0
C2220 C 0.85495 0.69075 0.10862 0.0
C2221 C 0.84522 0.74013 0.13823 0.0
C2222 C 0.84816 0.72322 0.12795 0.0
H2223 H 0.86336 0.61637 0.09766 0.0
H2224 H 0.84788 0.64593 0.11123 0.0
H2225 H 0.82171 0.67942 0.11356 0.0
H2226 H 0.81024 0.7821 0.1471 0.0
H2227 H 0.81289 0.75141 0.13157 0.0
C2228 C 0.49461 0.59258 0.41045 0.0
C2229 C 0.4735 0.58761 0.40539 0.0
C2230 C 0.51343 0.592 0.40251 0.0
C2231 C 0.53303 0.57618 0.36913 0.0
H2232 H 0.57699 0.62199 0.37621 0.0
C2233 C 0.5922 0.62023 0.33264 0.0
C2234 C 0.61449 0.62292 0.33657 0.0
C2235 C 0.57679 0.60984 0.3408 0.0
C2236 C 0.56501 0.60889 0.37423 0.0
H2237 H 0.45538 0.57777 0.38818 0.0
H2238 H 0.48787 0.57818 0.37408 0.0
H2239 H 0.54641 0.61646 0.3912 0.0
H2240 H 0.63846 0.61531 0.3517 0.0
H2241 H 0.61132 0.59778 0.36607 0.0
H2242 H 0.55113 0.57011 0.35152 0.0
C2243 C 0.49026 0.58165 0.38426 0.0
C2244 C 0.54748 0.60557 0.38286 0.0
C2245 C 0.47154 0.5816 0.39231 0.0
C2246 C 0.62141 0.61356 0.34839 0.0
C2247 C 0.60592 0.60355 0.35663 0.0
C2248 C 0.55034 0.57992 0.36032 0.0
C2249 C 0.51146 0.58714 0.3892 0.0
C2250 C 0.53108 0.5893 0.38041 0.0
C2251 C 0.58338 0.60229 0.35307 0.0
C2252 C 0.56636 0.5964 0.36279 0.0
H2253 H 0.49656 0.59692 0.42057 0.0
H2254 H 0.52947 0.59564 0.40681 0.0
H2255 H 0.52105 0.56319 0.367 0.0
H2256 H 0.58641 0.62713 0.32354 0.0
H2257 H 0.55944 0.60912 0.3379 0.0
C2258 C 0.65461 0.24332 0.6552 0.0
C2259 C 0.66251 0.22197 0.65199 0.0
C2260 C 0.65608 0.26077 0.64629 0.0
C2261 C 0.65205 0.2706 0.61248 0.0
H2262 H 0.67515 0.32968 0.61972 0.0
C2263 C 0.63208 0.34181 0.57776 0.0
C2264 C 0.626 0.36202 0.58363 0.0
C2265 C 0.64332 0.32544 0.58483 0.0
C2266 C 0.66844 0.31334 0.61755 0.0
H2267 H 0.6786 0.20223 0.63705 0.0
H2268 H 0.68036 0.23266 0.62129 0.0
H2269 H 0.68141 0.29949 0.63518 0.0
H2270 H 0.62798 0.38154 0.60124 0.0
H2271 H 0.64636 0.35277 0.61378 0.0
H2272 H 0.63745 0.28436 0.5955 0.0
C2273 C 0.67342 0.23587 0.63079 0.0
C2274 C 0.67221 0.29606 0.62638 0.0
C2275 C 0.6724 0.21853 0.6398 0.0
C2276 C 0.63257 0.36614 0.59644 0.0
C2277 C 0.64327 0.34957 0.60363 0.0
C2278 C 0.64782 0.28792 0.60381 0.0
C2279 C 0.66507 0.25705 0.63393 0.0
C2280 C 0.6637 0.27467 0.62399 0.0
C2281 C 0.64809 0.32867 0.59806 0.0
C2282 C 0.65554 0.30969 0.60634 0.0
H2283 H 0.64704 0.24648 0.66455 0.0
H2284 H 0.64934 0.27695 0.64885 0.0
H2285 H 0.64512 0.25425 0.61052 0.0
H2286 H 0.62746 0.33834 0.56782 0.0
H2287 H 0.64741 0.30991 0.58005 0.0
C2288 C 0.99 0.39101 0.40511 0.0
C2289 C 0.9718 0.40569 0.40427 0.0
C2290 C 0.00759 0.39249 0.39631 0.0
C2291 C 0.02019 0.41137 0.3634 0.0
H2292 H 0.08072 0.39763 0.37388 0.0
C2293 C 0.11371 0.3898 0.34136 0.0
C2294 C 0.10713 0.37383 0.33216 0.0
C2295 C 0.09782 0.40052 0.34906 0.0
C2296 C 0.06404 0.40198 0.37077 0.0
H2297 H 0.95813 0.43389 0.39373 0.0
H2298 H 0.98896 0.43648 0.37839 0.0
H2299 H 0.05223 0.40346 0.39028 0.0
H2300 H 0.07852 0.3582 0.32299 0.0
H2301 H 0.051 0.37652 0.3365 0.0
H2302 H 0.03195 0.40953 0.34386 0.0
C2303 C 0.98945 0.42368 0.38578 0.0
C2304 C 0.04763 0.405 0.38018 0.0
C2305 C 0.97183 0.42221 0.3946 0.0
C2306 C 0.08424 0.37025 0.33007 0.0
C2307 C 0.06838 0.38091 0.33777 0.0
C2308 C 0.03662 0.4084 0.35396 0.0
C2309 C 0.00743 0.4087 0.38648 0.0
C2310 C 0.02539 0.40898 0.3766 0.0
C2311 C 0.07504 0.3955 0.3477 0.0
C2312 C 0.05858 0.40295 0.35754 0.0
H2313 H 0.99054 0.37808 0.41242 0.0
H2314 H 0.02101 0.38045 0.39698 0.0
H2315 H 0.00319 0.41437 0.36031 0.0
H2316 H 0.13116 0.39324 0.34309 0.0
H2317 H 0.10344 0.41203 0.35646 0.0
C2318 C 0.36872 0.33902 0.07804 0.0
C2319 C 0.37073 0.36096 0.08269 0.0
C2320 C 0.35921 0.3225 0.08575 0.0
C2321 C 0.32901 0.30949 0.11598 0.0
H2322 H 0.37402 0.26326 0.11911 0.0
C2323 C 0.32274 0.2279 0.14711 0.0
C2324 C 0.34148 0.2238 0.15497 0.0
C2325 C 0.32277 0.24562 0.1383 0.0
C2326 C 0.36129 0.27602 0.11831 0.0
H2327 H 0.36195 0.38334 0.09839 0.0
H2328 H 0.34543 0.35427 0.11193 0.0
H2329 H 0.37808 0.29196 0.10264 0.0
H2330 H 0.37459 0.23555 0.16005 0.0
H2331 H 0.37472 0.2661 0.1445 0.0
H2332 H 0.31243 0.29333 0.13188 0.0
C2333 C 0.35126 0.34992 0.10233 0.0
C2334 C 0.36346 0.2923 0.1088 0.0
C2335 C 0.36077 0.36655 0.09458 0.0
C2336 C 0.35992 0.23818 0.15412 0.0
C2337 C 0.36005 0.25564 0.14521 0.0
C2338 C 0.32665 0.29287 0.12542 0.0
C2339 C 0.35153 0.32757 0.09824 0.0
C2340 C 0.3475 0.30934 0.10761 0.0
C2341 C 0.34164 0.25928 0.13709 0.0
C2342 C 0.34302 0.27625 0.12677 0.0
H2343 H 0.37586 0.33427 0.06881 0.0
H2344 H 0.35919 0.30545 0.08227 0.0
H2345 H 0.31654 0.3225 0.11526 0.0
H2346 H 0.30821 0.2172 0.14761 0.0
H2347 H 0.30842 0.24811 0.13209 0.0
C2348 C 0.41186 0.62752 0.82805 0.0
C2349 C 0.38959 0.62604 0.83219 0.0
C2350 C 0.429 0.61869 0.8356 0.0
C2351 C 0.45839 0.62073 0.8591 0.0
H2352 H 0.45947 0.56657 0.87962 0.0
C2353 C 0.51275 0.61358 0.90426 0.0
C2354 C 0.52669 0.59478 0.90496 0.0
C2355 C 0.49555 0.6145 0.89519 0.0
C2356 C 0.45938 0.58169 0.87389 0.0
H2357 H 0.36766 0.6121 0.84681 0.0
H2358 H 0.39769 0.59685 0.86006 0.0
H2359 H 0.4309 0.57134 0.86279 0.0
H2360 H 0.53274 0.5617 0.89713 0.0
H2361 H 0.50247 0.56337 0.8813 0.0
H2362 H 0.48646 0.63133 0.87024 0.0
C2363 C 0.40186 0.60482 0.85096 0.0
C2364 C 0.44306 0.58444 0.86432 0.0
C2365 C 0.38465 0.61361 0.84338 0.0
C2366 C 0.52239 0.5765 0.89678 0.0
C2367 C 0.50501 0.57737 0.88777 0.0
C2368 C 0.47446 0.61809 0.86871 0.0
C2369 C 0.42423 0.60827 0.84745 0.0
C2370 C 0.44238 0.60405 0.85687 0.0
C2371 C 0.49179 0.59659 0.8867 0.0
C2372 C 0.47498 0.59869 0.87628 0.0
H2373 H 0.41621 0.63666 0.81937 0.0
H2374 H 0.4461 0.62114 0.83251 0.0
H2375 H 0.45809 0.63619 0.85369 0.0
H2376 H 0.5155 0.62789 0.91045 0.0
H2377 H 0.48537 0.6294 0.89468 0.0
C2378 C 0.15222 0.75495 0.65569 0.0
C2379 C 0.15928 0.77657 0.65244 0.0
C2380 C 0.1536 0.73771 0.64663 0.0
C2381 C 0.14773 0.72831 0.61287 0.0
H2382 H 0.17288 0.6698 0.61934 0.0
C2383 C 0.12793 0.657 0.57817 0.0
C2384 C 0.12273 0.63656 0.58404 0.0
C2385 C 0.13901 0.6736 0.58514 0.0
C2386 C 0.1656 0.68597 0.6174 0.0
H2387 H 0.17375 0.79705 0.6373 0.0
H2388 H 0.17533 0.76697 0.62129 0.0
H2389 H 0.17926 0.69996 0.63481 0.0
H2390 H 0.12616 0.61687 0.60152 0.0
H2391 H 0.14427 0.64605 0.6139 0.0
H2392 H 0.13249 0.71435 0.59613 0.0
C2393 C 0.16912 0.76339 0.63092 0.0
C2394 C 0.16944 0.70324 0.62622 0.0
C2395 C 0.1682 0.78053 0.64007 0.0
C2396 C 0.13001 0.63248 0.59673 0.0
C2397 C 0.14057 0.64927 0.60382 0.0
C2398 C 0.14345 0.71098 0.60421 0.0
C2399 C 0.16165 0.74192 0.63411 0.0
C2400 C 0.16019 0.72441 0.62411 0.0
C2401 C 0.14454 0.67035 0.59826 0.0
C2402 C 0.15193 0.68941 0.60648 0.0
H2403 H 0.14541 0.75139 0.66518 0.0
H2404 H 0.14753 0.7213 0.64924 0.0
H2405 H 0.14023 0.74448 0.61113 0.0
H2406 H 0.12277 0.66044 0.56832 0.0
H2407 H 0.14244 0.68929 0.58036 0.0
C2408 C 0.12112 0.61029 0.14872 0.0
C2409 C 0.11375 0.61929 0.16054 0.0
C2410 C 0.106 0.6002 0.14027 0.0
C2411 C 0.04988 0.57714 0.13603 0.0
H2412 H 0.04831 0.61329 0.10493 0.0
C2413 C 0.97192 0.58215 0.10348 0.0
C2414 C 0.97443 0.58771 0.09037 0.0
C2415 C 0.99048 0.5814 0.11166 0.0
C2416 C 0.04871 0.60251 0.11333 0.0
H2417 H 0.08531 0.62275 0.17336 0.0
H2418 H 0.05899 0.60466 0.15866 0.0
H2419 H 0.07861 0.61788 0.1202 0.0
H2420 H 0.99828 0.59538 0.07528 0.0
H2421 H 0.03079 0.59281 0.08928 0.0
H2422 H 0.02007 0.56157 0.12916 0.0
C2423 C 0.0764 0.60565 0.15591 0.0
C2424 C 0.06611 0.60526 0.12212 0.0
C2425 C 0.09144 0.61608 0.16428 0.0
C2426 C 0.99588 0.59143 0.08542 0.0
C2427 C 0.01449 0.59009 0.0935 0.0
C2428 C 0.03266 0.57398 0.12707 0.0
C2429 C 0.08337 0.59856 0.14361 0.0
C2430 C 0.06662 0.59295 0.13366 0.0
C2431 C 0.01202 0.58566 0.10681 0.0
C2432 C 0.03155 0.58702 0.11572 0.0
H2433 H 0.13816 0.61256 0.14552 0.0
H2434 H 0.11173 0.59477 0.13084 0.0
H2435 H 0.04999 0.56746 0.14488 0.0
H2436 H 0.95551 0.57927 0.10754 0.0
H2437 H 0.98772 0.5783 0.12185 0.0
C2438 C 0.12862 0.34104 0.91362 0.0
C2439 C 0.12568 0.36342 0.90991 0.0
C2440 C 0.13928 0.32601 0.90533 0.0
C2441 C 0.14131 0.31597 0.8715 0.0
H2442 H 0.18467 0.26988 0.87915 0.0
C2443 C 0.15697 0.24614 0.8348 0.0
C2444 C 0.16037 0.22463 0.83974 0.0
C2445 C 0.15802 0.26467 0.84296 0.0
C2446 C 0.17236 0.28249 0.87688 0.0
H2447 H 0.13324 0.38797 0.8951 0.0
H2448 H 0.15134 0.36151 0.88053 0.0
H2449 H 0.1779 0.29962 0.89487 0.0
H2450 H 0.168 0.20552 0.85696 0.0
H2451 H 0.16847 0.2376 0.87139 0.0
H2452 H 0.13424 0.29836 0.8541 0.0
C2453 C 0.14547 0.35572 0.88986 0.0
C2454 C 0.1687 0.29961 0.88584 0.0
C2455 C 0.13516 0.37083 0.89823 0.0
C2456 C 0.16539 0.22198 0.85292 0.0
C2457 C 0.16584 0.24046 0.86116 0.0
C2458 C 0.14457 0.29867 0.86269 0.0
C2459 C 0.14689 0.33306 0.89315 0.0
C2460 C 0.153 0.31637 0.88325 0.0
C2461 C 0.16181 0.26207 0.85633 0.0
C2462 C 0.15995 0.2815 0.8653 0.0
H2463 H 0.12164 0.33487 0.9226 0.0
H2464 H 0.1401 0.30858 0.90805 0.0
H2465 H 0.12879 0.32849 0.86939 0.0
H2466 H 0.15342 0.24864 0.82462 0.0
H2467 H 0.15552 0.28102 0.83876 0.0
C2468 C 0.52348 0.42234 0.60065 0.0
C2469 C 0.52537 0.40514 0.59145 0.0
C2470 C 0.50524 0.42316 0.60905 0.0
C2471 C 0.44824 0.40074 0.61401 0.0
H2472 H 0.46088 0.41076 0.65036 0.0
C2473 C 0.40992 0.37074 0.66481 0.0
C2474 C 0.38703 0.37298 0.66218 0.0
C2475 C 0.42572 0.38099 0.65689 0.0
C2476 C 0.45705 0.40805 0.64024 0.0
H2477 H 0.50933 0.37557 0.58371 0.0
H2478 H 0.47777 0.3768 0.59848 0.0
H2479 H 0.49046 0.41544 0.63442 0.0
H2480 H 0.36276 0.38945 0.64986 0.0
H2481 H 0.39043 0.40758 0.63611 0.0
H2482 H 0.41522 0.39204 0.61987 0.0
C2483 C 0.4902 0.38986 0.59908 0.0
C2484 C 0.47395 0.41093 0.63108 0.0
C2485 C 0.5084 0.38905 0.59067 0.0
C2486 C 0.38026 0.3872 0.65209 0.0
C2487 C 0.39611 0.39748 0.64415 0.0
C2488 C 0.43136 0.39781 0.62316 0.0
C2489 C 0.48849 0.40683 0.60843 0.0
C2490 C 0.46988 0.40667 0.6179 0.0
C2491 C 0.41901 0.39379 0.64619 0.0
C2492 C 0.43575 0.40082 0.63642 0.0
H2493 H 0.53617 0.43511 0.60146 0.0
H2494 H 0.50429 0.43658 0.61605 0.0
H2495 H 0.44448 0.39771 0.6039 0.0
H2496 H 0.41574 0.36006 0.67256 0.0
H2497 H 0.4432 0.37765 0.6587 0.0
C2498 C 0.33361 0.77563 0.35314 0.0
C2499 C 0.34059 0.77368 0.34023 0.0
C2500 C 0.33387 0.75709 0.36132 0.0
C2501 C 0.35959 0.70069 0.36369 0.0
H2502 H 0.32173 0.69629 0.39404 0.0
C2503 C 0.36518 0.62657 0.39827 0.0
C2504 C 0.37434 0.63347 0.41015 0.0
C2505 C 0.35566 0.64213 0.38988 0.0
C2506 C 0.33223 0.6973 0.38553 0.0
H2507 H 0.35198 0.75075 0.32546 0.0
H2508 H 0.3511 0.71808 0.33941 0.0
H2509 H 0.31524 0.72605 0.3783 0.0
H2510 H 0.37869 0.66162 0.42311 0.0
H2511 H 0.36144 0.68872 0.4085 0.0
H2512 H 0.37619 0.67163 0.37086 0.0
C2513 C 0.34649 0.73404 0.34351 0.0
C2514 C 0.32873 0.71444 0.37656 0.0
C2515 C 0.34686 0.75272 0.33545 0.0
C2516 C 0.37191 0.65585 0.41398 0.0
C2517 C 0.36197 0.67133 0.40567 0.0
C2518 C 0.36267 0.68331 0.37246 0.0
C2519 C 0.34056 0.73604 0.35667 0.0
C2520 C 0.34268 0.71664 0.36563 0.0
C2521 C 0.35465 0.66471 0.39336 0.0
C2522 C 0.34928 0.68169 0.38353 0.0
H2523 H 0.3288 0.79169 0.35706 0.0
H2524 H 0.32955 0.75953 0.37139 0.0
H2525 H 0.3711 0.70198 0.35565 0.0
H2526 H 0.36676 0.60946 0.39503 0.0
H2527 H 0.35008 0.63674 0.38041 0.0
C2528 C 0.1291 0.00078 0.1129 0.0
C2529 C 0.13546 0.98802 0.10212 0.0
C2530 C 0.14453 0.01433 0.11921 0.0
C2531 C 0.20385 0.02389 0.12488 0.0
H2532 H 0.18517 0.08488 0.13107 0.0
C2533 C 0.26384 0.09279 0.14345 0.0
C2534 C 0.25485 0.10912 0.15167 0.0
C2535 C 0.25 0.0767 0.13784 0.0
C2536 C 0.19057 0.06783 0.12964 0.0
H2537 H 0.16278 0.98007 0.08917 0.0
H2538 H 0.1901 0.00335 0.10051 0.0
H2539 H 0.15983 0.05908 0.12047 0.0
H2540 H 0.22473 0.1211 0.16088 0.0
H2541 H 0.20069 0.09261 0.15154 0.0
H2542 H 0.23451 0.03254 0.13427 0.0
C2543 C 0.17319 0.00248 0.10417 0.0
C2544 C 0.17606 0.05309 0.1235 0.0
C2545 C 0.15763 0.98904 0.09776 0.0
C2546 C 0.23201 0.10872 0.15452 0.0
C2547 C 0.21825 0.09249 0.14907 0.0
C2548 C 0.21835 0.03861 0.13119 0.0
C2549 C 0.16667 0.01545 0.11485 0.0
C2550 C 0.1825 0.03097 0.12112 0.0
C2551 C 0.22696 0.07659 0.14042 0.0
C2552 C 0.21181 0.06074 0.13371 0.0
H2553 H 0.11209 0.00038 0.11644 0.0
H2554 H 0.13912 0.02405 0.12747 0.0
H2555 H 0.20914 0.00686 0.1232 0.0
H2556 H 0.28134 0.09306 0.14088 0.0
H2557 H 0.25724 0.06491 0.1311 0.0
C2558 C 0.23183 0.88956 0.33957 0.0
C2559 C 0.25456 0.88861 0.34267 0.0
C2560 C 0.21813 0.90565 0.3452 0.0
C2561 C 0.2184 0.95812 0.36452 0.0
H2562 H 0.15948 0.93748 0.37434 0.0
C2563 C 0.15838 0.00515 0.39948 0.0
C2564 C 0.13622 0.00695 0.3952 0.0
C2565 C 0.1737 0.99212 0.39262 0.0
C2566 C 0.17582 0.94353 0.37156 0.0
H2567 H 0.28091 0.90355 0.3541 0.0
H2568 H 0.2569 0.93142 0.36421 0.0
H2569 H 0.18461 0.91237 0.36303 0.0
H2570 H 0.11258 0.99636 0.38057 0.0
H2571 H 0.1392 0.97337 0.36872 0.0
H2572 H 0.20952 0.98917 0.37349 0.0
C2573 C 0.24972 0.92022 0.35713 0.0
C2574 C 0.19021 0.92919 0.36501 0.0
C2575 C 0.26351 0.90427 0.35133 0.0
C2576 C 0.12959 0.99534 0.38405 0.0
C2577 C 0.14479 0.98218 0.37728 0.0
C2578 C 0.20402 0.97241 0.37123 0.0
C2579 C 0.22677 0.92083 0.3543 0.0
C2580 C 0.21162 0.93634 0.36129 0.0
C2581 C 0.16694 0.98033 0.38153 0.0
C2582 C 0.18254 0.96527 0.37471 0.0
H2583 H 0.2246 0.87767 0.33288 0.0
H2584 H 0.20066 0.90596 0.34256 0.0
H2585 H 0.23468 0.96423 0.36171 0.0
H2586 H 0.1637 0.01321 0.40834 0.0
H2587 H 0.19061 0.99063 0.39621 0.0
C2588 C 0.26232 0.89463 0.65545 0.0
C2589 C 0.23966 0.89326 0.65223 0.0
C2590 C 0.27595 0.91055 0.64963 0.0
C2591 C 0.27595 0.96187 0.62943 0.0
H2592 H 0.33456 0.94006 0.61979 0.0
C2593 C 0.33676 0.0075 0.59429 0.0
C2594 C 0.35897 0.00885 0.59853 0.0
C2595 C 0.32121 0.99476 0.60117 0.0
C2596 C 0.31832 0.94645 0.62251 0.0
H2597 H 0.21329 0.90747 0.64052 0.0
H2598 H 0.23721 0.93514 0.63008 0.0
H2599 H 0.30916 0.91575 0.63145 0.0
H2600 H 0.38247 0.99777 0.61311 0.0
H2601 H 0.35546 0.97535 0.62502 0.0
H2602 H 0.28522 0.99249 0.6201 0.0
C2603 C 0.24437 0.92431 0.63737 0.0
C2604 C 0.30377 0.93257 0.62926 0.0
C2605 C 0.23065 0.90851 0.64335 0.0
C2606 C 0.36543 0.99707 0.60966 0.0
C2607 C 0.35 0.98424 0.61645 0.0
C2608 C 0.29051 0.97573 0.62254 0.0
C2609 C 0.2673 0.92515 0.64023 0.0
C2610 C 0.2825 0.94016 0.63294 0.0
C2611 C 0.32778 0.98285 0.61224 0.0
C2612 C 0.3119 0.96819 0.61914 0.0
H2613 H 0.26961 0.88309 0.66233 0.0
H2614 H 0.2934 0.91109 0.6523 0.0
H2615 H 0.25974 0.96827 0.63217 0.0
H2616 H 0.33155 0.01574 0.58546 0.0
H2617 H 0.30425 0.99365 0.59761 0.0
C2618 C 0.25591 0.09726 0.84267 0.0
C2619 C 0.23326 0.10108 0.84524 0.0
C2620 C 0.2671 0.07967 0.84866 0.0
C2621 C 0.26779 0.04906 0.87854 0.0
H2622 H 0.30843 0.00933 0.86058 0.0
C2623 C 0.34505 0.00835 0.90166 0.0
C2624 C 0.34886 0.98569 0.89913 0.0
C2625 C 0.3275 0.01953 0.89561 0.0
C2626 C 0.29692 0.02011 0.8657 0.0
H2627 H 0.2045 0.08977 0.85611 0.0
H2628 H 0.22426 0.05911 0.86681 0.0
H2629 H 0.28386 0.03389 0.84811 0.0
H2630 H 0.33765 0.9569 0.88825 0.0
H2631 H 0.30708 0.97663 0.87744 0.0
H2632 H 0.28164 0.03609 0.89613 0.0
C2633 C 0.23317 0.0695 0.85997 0.0
C2634 C 0.283 0.03421 0.85859 0.0
C2635 C 0.22186 0.08687 0.85378 0.0
C2636 C 0.33474 0.97428 0.89055 0.0
C2637 C 0.31742 0.98557 0.8843 0.0
C2638 C 0.28197 0.03524 0.88566 0.0
C2639 C 0.25594 0.0659 0.85754 0.0
C2640 C 0.26859 0.04905 0.86496 0.0
C2641 C 0.31378 0.00833 0.88671 0.0
C2642 C 0.2969 0.02092 0.87929 0.0
H2643 H 0.26504 0.10811 0.83617 0.0
H2644 H 0.28473 0.0774 0.84676 0.0
H2645 H 0.25694 0.06051 0.88367 0.0
H2646 H 0.35584 0.01749 0.90819 0.0
H2647 H 0.3252 0.03715 0.89749 0.0
C2648 C 0.85815 0.98225 0.9049 0.0
C2649 C 0.85857 0.00506 0.90197 0.0
C2650 C 0.84212 0.96839 0.89936 0.0
C2651 C 0.78894 0.9682 0.88071 0.0
H2652 H 0.8099 0.90952 0.87061 0.0
C2653 C 0.74154 0.90729 0.84639 0.0
C2654 C 0.73987 0.88526 0.85092 0.0
C2655 C 0.75466 0.92285 0.85301 0.0
C2656 C 0.80379 0.9258 0.87346 0.0
H2657 H 0.84273 0.03142 0.89098 0.0
H2658 H 0.81498 0.00712 0.88097 0.0
H2659 H 0.83517 0.93497 0.88155 0.0
H2660 H 0.75083 0.86208 0.86571 0.0
H2661 H 0.77405 0.88911 0.87711 0.0
H2662 H 0.75765 0.95894 0.87215 0.0
C2663 C 0.82657 -2e-05 0.88785 0.0
C2664 C 0.8182 0.94037 0.8798 0.0
C2665 C 0.84245 0.01392 0.89358 0.0
C2666 C 0.75174 0.87899 0.86205 0.0
C2667 C 0.76501 0.89442 0.86856 0.0
C2668 C 0.77457 0.95365 0.87418 0.0
C2669 C 0.82647 0.97696 0.89051 0.0
C2670 C 0.81092 0.96168 0.88364 0.0
C2671 C 0.76669 0.91644 0.86407 0.0
C2672 C 0.78184 0.93226 0.87063 0.0
H2673 H 0.87039 0.97509 0.9114 0.0
H2674 H 0.84221 0.95087 0.9019 0.0
H2675 H 0.78272 0.9844 0.88361 0.0
H2676 H 0.73331 0.91232 0.83754 0.0
H2677 H 0.75602 0.93965 0.84925 0.0
C2678 C 0.83754 0.97374 0.60419 0.0
C2679 C 0.85184 0.98506 0.59567 0.0
C2680 C 0.82041 0.9852 0.61052 0.0
C2681 C 0.78594 0.03565 0.60953 0.0
H2682 H 0.78735 0.03296 0.64706 0.0
C2683 C 0.72604 0.08694 0.64163 0.0
C2684 C 0.73728 0.10047 0.65061 0.0
C2685 C 0.73733 0.06975 0.63527 0.0
C2686 C 0.78665 0.03368 0.63659 0.0
H2687 H 0.85931 0.0169 0.5868 0.0
H2688 H 0.82903 0.03688 0.59763 0.0
H2689 H 0.81161 0.00839 0.6344 0.0
H2690 H 0.76878 0.10653 0.66022 0.0
H2691 H 0.78846 0.07613 0.64928 0.0
H2692 H 0.76137 0.06131 0.61172 0.0
C2693 C 0.83103 0.01918 0.59941 0.0
C2694 C 0.80038 0.01957 0.62936 0.0
C2695 C 0.84838 0.00782 0.59327 0.0
C2696 C 0.75976 0.09618 0.65339 0.0
C2697 C 0.77095 0.07877 0.6472 0.0
C2698 C 0.77195 0.04951 0.61676 0.0
C2699 C 0.81716 0.00807 0.60826 0.0
C2700 C 0.80051 0.02082 0.61578 0.0
C2701 C 0.75994 0.06567 0.63792 0.0
C2702 C 0.77258 0.049 0.63035 0.0
H2703 H 0.84019 0.95629 0.6064 0.0
H2704 H 0.80994 0.97631 0.61733 0.0
H2705 H 0.78572 0.03684 0.59907 0.0
H2706 H 0.70883 0.09025 0.6391 0.0
H2707 H 0.72853 0.05989 0.62812 0.0
C2708 C 0.65354 0.98415 0.39344 0.0
C2709 C 0.637 0.99305 0.40155 0.0
C2710 C 0.66929 0.99814 0.38764 0.0
C2711 C 0.67655 0.05737 0.37856 0.0
H2712 H 0.73778 0.03985 0.37197 0.0
C2713 C 0.74201 0.11914 0.35992 0.0
C2714 C 0.75482 0.11222 0.34927 0.0
C2715 C 0.72873 0.10394 0.3666 0.0
C2716 C 0.72067 0.04484 0.37369 0.0
H2717 H 0.62429 0.02321 0.41037 0.0
H2718 H 0.65221 0.04757 0.40071 0.0
H2719 H 0.71298 0.01455 0.38372 0.0
H2720 H 0.76302 0.0842 0.33689 0.0
H2721 H 0.74024 0.05732 0.34891 0.0
H2722 H 0.68435 0.08776 0.36873 0.0
C2723 C 0.65276 0.02994 0.39848 0.0
C2724 C 0.70646 0.03038 0.38039 0.0
C2725 C 0.63687 0.016 0.40411 0.0
C2726 C 0.75402 0.08978 0.34538 0.0
C2727 C 0.74087 0.07447 0.35218 0.0
C2728 C 0.6908 0.07186 0.37202 0.0
C2729 C 0.66883 0.02128 0.38992 0.0
C2730 C 0.68423 0.03653 0.38294 0.0
C2731 C 0.72796 0.08149 0.36277 0.0
C2732 C 0.71298 0.06578 0.36956 0.0
H2733 H 0.65368 0.96655 0.39108 0.0
H2734 H 0.68122 0.99094 0.38098 0.0
H2735 H 0.6594 0.06244 0.38001 0.0
H2736 H 0.74224 0.13636 0.36308 0.0
H2737 H 0.71904 0.10974 0.37479 0.0
C2738 C 0.76365 0.90394 0.14192 0.0
C2739 C 0.75409 0.8888 0.15066 0.0
C2740 C 0.75033 0.91964 0.13558 0.0
C2741 C 0.69143 0.92848 0.12633 0.0
H2742 H 0.71206 0.98748 0.11676 0.0
C2743 C 0.6396 0.98281 0.09229 0.0
C2744 C 0.63786 0.00553 0.0953 0.0
C2745 C 0.65551 0.96953 0.09842 0.0
C2746 C 0.70598 0.97112 0.11944 0.0
H2747 H 0.72351 0.87857 0.16006 0.0
H2748 H 0.70034 0.90648 0.14943 0.0
H2749 H 0.73591 0.9634 0.12982 0.0
H2750 H 0.65124 0.03234 0.107 0.0
H2751 H 0.67871 0.00907 0.11801 0.0
H2752 H 0.66122 0.93636 0.11649 0.0
C2753 C 0.71795 0.90593 0.14713 0.0
C2754 C 0.71975 0.95722 0.12681 0.0
C2755 C 0.73121 0.89005 0.15331 0.0
C2756 C 0.65259 0.01493 0.10433 0.0
C2757 C 0.66831 0.00157 0.11063 0.0
C2758 C 0.67762 0.94241 0.11911 0.0
C2759 C 0.72723 0.92055 0.13794 0.0
C2760 C 0.71262 0.93571 0.13034 0.0
C2761 C 0.66966 0.9786 0.10793 0.0
C2762 C 0.68472 0.96386 0.1155 0.0
H2763 H 0.7812 0.90297 0.13952 0.0
H2764 H 0.75799 0.9304 0.12843 0.0
H2765 H 0.6855 0.91189 0.12864 0.0
H2766 H 0.62844 0.97524 0.08531 0.0
H2767 H 0.65643 0.95205 0.09586 0.0
C2768 C 0.62824 0.50302 0.61073 0.0
C2769 C 0.63513 0.49022 0.60008 0.0
C2770 C 0.64337 0.51661 0.61725 0.0
C2771 C 0.70245 0.52581 0.62384 0.0
H2772 H 0.68385 0.58683 0.63006 0.0
C2773 C 0.76224 0.59401 0.64321 0.0
C2774 C 0.7532 0.61026 0.65147 0.0
C2775 C 0.74841 0.57815 0.63739 0.0
C2776 C 0.68921 0.56976 0.62862 0.0
H2777 H 0.66302 0.48228 0.58754 0.0
H2778 H 0.68978 0.50563 0.59926 0.0
H2779 H 0.65877 0.56129 0.61902 0.0
H2780 H 0.72295 0.62241 0.66047 0.0
H2781 H 0.69889 0.5943 0.65073 0.0
H2782 H 0.73278 0.53417 0.63365 0.0
C2783 C 0.67271 0.50476 0.60266 0.0
C2784 C 0.67486 0.55518 0.62223 0.0
C2785 C 0.65747 0.49129 0.59603 0.0
C2786 C 0.73027 0.61006 0.65409 0.0
C2787 C 0.7165 0.59406 0.64843 0.0
C2788 C 0.71677 0.54037 0.63039 0.0
C2789 C 0.6657 0.51771 0.61324 0.0
C2790 C 0.68129 0.53307 0.61982 0.0
C2791 C 0.72531 0.5782 0.63979 0.0
C2792 C 0.71026 0.5625 0.6329 0.0
H2793 H 0.61109 0.50257 0.61402 0.0
H2794 H 0.63759 0.52631 0.62544 0.0
H2795 H 0.70771 0.50878 0.62216 0.0
H2796 H 0.77981 0.59416 0.64079 0.0
H2797 H 0.75572 0.5664 0.63065 0.0
C2798 C 0.74294 0.37805 0.86115 0.0
C2799 C 0.75653 0.38523 0.85091 0.0
C2800 C 0.72974 0.39322 0.86792 0.0
C2801 C 0.72235 0.45241 0.87568 0.0
H2802 H 0.66084 0.43504 0.8814 0.0
C2803 C 0.65479 0.51296 0.89522 0.0
C2804 C 0.63835 0.50401 0.90338 0.0
C2805 C 0.6706 0.49903 0.88941 0.0
C2806 C 0.67805 0.44004 0.88009 0.0
H2807 H 0.76641 0.41376 0.83939 0.0
H2808 H 0.74358 0.44053 0.85146 0.0
H2809 H 0.68588 0.40985 0.87007 0.0
H2810 H 0.62581 0.47377 0.91219 0.0
H2811 H 0.65372 0.44951 0.9024 0.0
H2812 H 0.71451 0.48257 0.88583 0.0
C2813 C 0.74354 0.42318 0.85438 0.0
C2814 C 0.69237 0.42562 0.87355 0.0
C2815 C 0.75669 0.40792 0.84754 0.0
C2816 C 0.63831 0.48105 0.90591 0.0
C2817 C 0.6542 0.46717 0.90022 0.0
C2818 C 0.70802 0.46683 0.88235 0.0
C2819 C 0.72975 0.4159 0.86454 0.0
C2820 C 0.71467 0.43159 0.87132 0.0
C2821 C 0.67024 0.4759 0.89167 0.0
C2822 C 0.68572 0.46074 0.88468 0.0
H2823 H 0.74247 0.36063 0.86393 0.0
H2824 H 0.71943 0.38717 0.87579 0.0
H2825 H 0.73953 0.45734 0.87415 0.0
H2826 H 0.65484 0.53054 0.89283 0.0
H2827 H 0.68249 0.50628 0.88274 0.0
C2828 C 0.8528 0.48725 0.09301 0.0
C2829 C 0.85469 0.51006 0.09576 0.0
C2830 C 0.83662 0.47435 0.09914 0.0
C2831 C 0.78569 0.47654 0.11971 0.0
H2832 H 0.80689 0.41823 0.13025 0.0
C2833 C 0.72878 0.40824 0.14205 0.0
C2834 C 0.73847 0.39361 0.15104 0.0
C2835 C 0.74179 0.42449 0.13593 0.0
C2836 C 0.80074 0.43457 0.12757 0.0
H2837 H 0.84108 0.53745 0.10691 0.0
H2838 H 0.81301 0.51479 0.11792 0.0
H2839 H 0.83115 0.44244 0.11793 0.0
H2840 H 0.76879 0.3851 0.16126 0.0
H2841 H 0.79131 0.41393 0.15103 0.0
H2842 H 0.75545 0.46874 0.12981 0.0
C2843 C 0.82362 0.50695 0.11076 0.0
C2844 C 0.81455 0.44833 0.12025 0.0
C2845 C 0.83967 0.51996 0.10446 0.0
C2846 C 0.76101 0.39614 0.15429 0.0
C2847 C 0.77391 0.41254 0.14835 0.0
C2848 C 0.77186 0.46276 0.12715 0.0
C2849 C 0.82228 0.48388 0.1084 0.0
C2850 C 0.80719 0.46942 0.11614 0.0
C2851 C 0.76466 0.42643 0.13877 0.0
C2852 C 0.77926 0.44159 0.13117 0.0
H2853 H 0.86415 0.4793 0.08627 0.0
H2854 H 0.83569 0.45676 0.09683 0.0
H2855 H 0.77945 0.49265 0.11665 0.0
H2856 H 0.7115 0.40634 0.13922 0.0
H2857 H 0.73417 0.43474 0.12852 0.0
C2858 C 0.73438 0.59062 0.35356 0.0
C2859 C 0.74347 0.60702 0.34543 0.0
C2860 C 0.74815 0.57447 0.35916 0.0
C2861 C 0.80728 0.56609 0.36789 0.0
H2862 H 0.78899 0.50505 0.37434 0.0
C2863 C 0.86839 0.50037 0.38672 0.0
C2864 C 0.86126 0.4876 0.39732 0.0
C2865 C 0.8533 0.51356 0.3799 0.0
C2866 C 0.7942 0.5221 0.37265 0.0
H2867 H 0.77367 0.61904 0.33633 0.0
H2868 H 0.79762 0.59046 0.3457 0.0
H2869 H 0.76392 0.53032 0.36272 0.0
H2870 H 0.83295 0.47917 0.40942 0.0
H2871 H 0.8063 0.50193 0.39722 0.0
H2872 H 0.83759 0.55784 0.37766 0.0
C2873 C 0.78003 0.59033 0.34807 0.0
C2874 C 0.77988 0.53657 0.36603 0.0
C2875 C 0.76633 0.6066 0.34263 0.0
C2876 C 0.83871 0.48823 0.40099 0.0
C2877 C 0.82352 0.50134 0.39408 0.0
C2878 C 0.82161 0.55161 0.37436 0.0
C2879 C 0.77122 0.57441 0.35667 0.0
C2880 C 0.78631 0.55873 0.36354 0.0
C2881 C 0.83078 0.51431 0.38357 0.0
C2882 C 0.81525 0.52948 0.37677 0.0
H2883 H 0.71686 0.5909 0.35609 0.0
H2884 H 0.74086 0.56265 0.36586 0.0
H2885 H 0.81255 0.58318 0.36647 0.0
H2886 H 0.8857 0.50022 0.38372 0.0
H2887 H 0.85929 0.52328 0.37177 0.0
C2888 C 0.2471 0.38098 0.36165 0.0
C2889 C 0.23511 0.38761 0.35064 0.0
C2890 C 0.26036 0.3962 0.36832 0.0
C2891 C 0.27058 0.4554 0.3743 0.0
H2892 H 0.3309 0.43556 0.3814 0.0
C2893 C 0.34024 0.51408 0.39329 0.0
C2894 C 0.35611 0.50484 0.40171 0.0
C2895 C 0.32389 0.50055 0.38767 0.0
C2896 C 0.31402 0.44128 0.37972 0.0
H2897 H 0.22805 0.41521 0.33772 0.0
H2898 H 0.2509 0.44215 0.34966 0.0
H2899 H 0.30511 0.41068 0.37046 0.0
H2900 H 0.36698 0.47466 0.41132 0.0
H2901 H 0.33804 0.4512 0.40195 0.0
H2902 H 0.27944 0.48595 0.38374 0.0
C2903 C 0.24965 0.42521 0.35321 0.0
C2904 C 0.29929 0.42703 0.37339 0.0
C2905 C 0.23648 0.40986 0.34645 0.0
C2906 C 0.35496 0.48211 0.40479 0.0
C2907 C 0.33848 0.46868 0.39934 0.0
C2908 C 0.2853 0.46965 0.38079 0.0
C2909 C 0.26195 0.41839 0.36409 0.0
C2910 C 0.27742 0.4339 0.37066 0.0
C2911 C 0.3231 0.47759 0.39045 0.0
C2912 C 0.30718 0.46268 0.38363 0.0
H2913 H 0.24638 0.3639 0.36506 0.0
H2914 H 0.26954 0.39058 0.37674 0.0
H2915 H 0.25374 0.46102 0.37234 0.0
H2916 H 0.34109 0.53149 0.39056 0.0
H2917 H 0.3125 0.50792 0.38076 0.0
C2918 C 0.3416 0.48159 0.10259 0.0
C2919 C 0.35759 0.49069 0.09419 0.0
C2920 C 0.32606 0.49542 0.10872 0.0
C2921 C 0.31908 0.55451 0.11817 0.0
H2922 H 0.25832 0.53683 0.12591 0.0
C2923 C 0.25449 0.61612 0.138 0.0
C2924 C 0.24202 0.60915 0.14877 0.0
C2925 C 0.26757 0.60096 0.13116 0.0
C2926 C 0.27531 0.54186 0.12387 0.0
H2927 H 0.36946 0.52101 0.08517 0.0
H2928 H 0.34191 0.54507 0.09542 0.0
H2929 H 0.2825 0.51165 0.11362 0.0
H2930 H 0.23428 0.5811 0.16121 0.0
H2931 H 0.25675 0.55428 0.14893 0.0
H2932 H 0.3118 0.58482 0.12823 0.0
C2933 C 0.34165 0.52741 0.09762 0.0
C2934 C 0.28916 0.52747 0.11686 0.0
C2935 C 0.35732 0.51364 0.09165 0.0
C2936 C 0.24303 0.58672 0.15264 0.0
C2937 C 0.25599 0.57144 0.14569 0.0
C2938 C 0.3052 0.56892 0.12503 0.0
C2939 C 0.3262 0.51858 0.10649 0.0
C2940 C 0.3112 0.5337 0.11387 0.0
C2941 C 0.26851 0.5785 0.13494 0.0
C2942 C 0.28317 0.5628 0.1279 0.0
H2943 H 0.34179 0.46399 0.10492 0.0
H2944 H 0.3146 0.48809 0.1156 0.0
H2945 H 0.33612 0.55964 0.11638 0.0
H2946 H 0.25408 0.63335 0.13484 0.0
H2947 H 0.27695 0.6068 0.12286 0.0
C2948 C 0.24715 0.61606 0.86014 0.0
C2949 C 0.26045 0.60897 0.84974 0.0
C2950 C 0.23398 0.60088 0.8669 0.0
C2951 C 0.22573 0.54175 0.87435 0.0
H2952 H 0.16444 0.56003 0.87993 0.0
C2953 C 0.15688 0.48243 0.89376 0.0
C2954 C 0.14056 0.49178 0.90186 0.0
C2955 C 0.17305 0.49599 0.888 0.0
C2956 C 0.18158 0.55477 0.87866 0.0
H2957 H 0.27001 0.58055 0.83803 0.0
H2958 H 0.2472 0.55373 0.8501 0.0
H2959 H 0.18992 0.58486 0.8687 0.0
H2960 H 0.12868 0.52229 0.91068 0.0
H2961 H 0.15723 0.54588 0.901 0.0
H2962 H 0.21737 0.51167 0.88445 0.0
C2963 C 0.24735 0.57103 0.85312 0.0
C2964 C 0.19615 0.56899 0.87217 0.0
C2965 C 0.26048 0.58632 0.84628 0.0
C2966 C 0.14107 0.51472 0.90443 0.0
C2967 C 0.15732 0.52822 0.8988 0.0
C2968 C 0.21114 0.52753 0.88096 0.0
C2969 C 0.23373 0.57828 0.86337 0.0
C2970 C 0.21839 0.5627 0.87002 0.0
C2971 C 0.17318 0.51912 0.89027 0.0
C2972 C 0.18892 0.53397 0.88327 0.0
H2973 H 0.2468 0.63344 0.86301 0.0
H2974 H 0.22383 0.60687 0.87485 0.0
H2975 H 0.24285 0.53657 0.87285 0.0
H2976 H 0.15653 0.46486 0.89137 0.0
H2977 H 0.18483 0.48848 0.88135 0.0
C2978 C 0.23522 0.39509 0.65432 0.0
C2979 C 0.2579 0.39314 0.65126 0.0
C2980 C 0.22203 0.41106 0.64819 0.0
C2981 C 0.22351 0.46129 0.62701 0.0
H2982 H 0.16438 0.44043 0.61786 0.0
C2983 C 0.15537 0.51838 0.60483 0.0
C2984 C 0.14017 0.50864 0.59618 0.0
C2985 C 0.17145 0.50527 0.611 0.0
C2986 C 0.18094 0.44647 0.62015 0.0
H2987 H 0.28476 0.40633 0.63952 0.0
H2988 H 0.2616 0.43396 0.62852 0.0
H2989 H 0.189 0.41635 0.63003 0.0
H2990 H 0.13032 0.47799 0.58672 0.0
H2991 H 0.15888 0.45522 0.59705 0.0
H2992 H 0.21555 0.49117 0.61661 0.0
C2993 C 0.25408 0.42362 0.63592 0.0
C2994 C 0.19495 0.43278 0.62738 0.0
C2995 C 0.26738 0.40782 0.64222 0.0
C2996 C 0.14183 0.48582 0.59341 0.0
C2997 C 0.15807 0.47279 0.59941 0.0
C2998 C 0.20949 0.47498 0.61963 0.0
C2999 C 0.23112 0.42508 0.63863 0.0
C3000 C 0.21636 0.44003 0.63099 0.0
C3001 C 0.17268 0.4822 0.60857 0.0
C3002 C 0.18802 0.4677 0.61612 0.0
H3003 H 0.2276 0.38399 0.66131 0.0
H3004 H 0.20455 0.41208 0.65078 0.0
H3005 H 0.23984 0.46746 0.62968 0.0
H3006 H 0.15412 0.53588 0.60731 0.0
H3007 H 0.18222 0.51303 0.61811 0.0
C3008 C 0.29829 0.18699 0.23024 0.0
C3009 C 0.29635 0.18837 0.21674 0.0
C3010 C 0.2865 0.20181 0.23814 0.0
C3011 C 0.26111 0.25767 0.23694 0.0
H3012 H 0.2327 0.23988 0.26901 0.0
C3013 C 0.20138 0.31448 0.26612 0.0
C3014 C 0.20263 0.31314 0.27964 0.0
C3015 C 0.21425 0.30022 0.25844 0.0
C3016 C 0.24082 0.24515 0.26016 0.0
H3017 H 0.28042 0.20576 0.20085 0.0
H3018 H 0.25929 0.23108 0.2146 0.0
H3019 H 0.25127 0.21189 0.2557 0.0
H3020 H 0.21858 0.29659 0.29583 0.0
H3021 H 0.24153 0.27222 0.28247 0.0
H3022 H 0.25056 0.29092 0.24137 0.0
C3023 C 0.2701 0.21888 0.21912 0.0
C3024 C 0.25141 0.22911 0.25254 0.0
C3025 C 0.2819 0.20416 0.21126 0.0
C3026 C 0.2176 0.29814 0.2854 0.0
C3027 C 0.23046 0.28396 0.27776 0.0
C3028 C 0.25052 0.27371 0.24455 0.0
C3029 C 0.27266 0.21822 0.23262 0.0
C3030 C 0.26157 0.23518 0.24082 0.0
C3031 C 0.22848 0.28443 0.26421 0.0
C3032 C 0.24024 0.26761 0.25623 0.0
H3033 H 0.30954 0.17503 0.23461 0.0
H3034 H 0.28889 0.20099 0.24852 0.0
H3035 H 0.26917 0.26293 0.22806 0.0
H3036 H 0.18976 0.32584 0.26154 0.0
H3037 H 0.21228 0.30086 0.24803 0.0
C3038 C 0.95221 0.96837 0.53527 0.0
C3039 C 0.93686 0.95369 0.52957 0.0
C3040 C 0.96675 0.98072 0.52758 0.0
C3041 C 0.97756 5e-05 0.49432 0.0
H3042 H 0.03941 -0.00081 0.5054 0.0
C3043 C 0.04737 0.03017 0.46091 0.0
C3044 C 0.06343 0.04431 0.46639 0.0
C3045 C 0.03265 0.01841 0.46878 0.0
C3046 C 0.0222 -0.00023 0.50225 0.0
H3047 H 0.92394 0.94082 0.51152 0.0
H3048 H 0.94952 0.96248 0.49792 0.0
H3049 H 0.01096 0.98152 0.51879 0.0
H3050 H 0.07736 0.05685 0.48427 0.0
H3051 H 0.05137 0.03632 0.4982 0.0
H3052 H 0.98876 0.0183 0.47778 0.0
C3053 C 0.95016 0.9646 0.50833 0.0
C3054 C 0.00589 0.9897 0.50992 0.0
C3055 C 0.93556 0.95224 0.51606 0.0
C3056 C 0.06517 0.04585 0.47989 0.0
C3057 C 0.05033 0.03412 0.48781 0.0
C3058 C 0.99385 0.01015 0.48666 0.0
C3059 C 0.96629 0.97852 0.51405 0.0
C3060 C 0.98341 0.98972 0.50602 0.0
C3061 C 0.03356 0.02071 0.4823 0.0
C3062 C 0.01636 0.01001 0.49051 0.0
H3063 H 0.9537 0.9695 0.5457 0.0
H3064 H 0.97876 0.99156 0.53224 0.0
H3065 H 0.96034 0.00055 0.49115 0.0
H3066 H 0.04547 0.02901 0.4505 0.0
H3067 H 0.02018 0.00791 0.46426 0.0
C3068 C 0.27799 0.69876 0.78428 0.0
C3069 C 0.29467 0.68515 0.77897 0.0
C3070 C 0.26529 0.71259 0.77634 0.0
C3071 C 0.26979 0.74221 0.74555 0.0
H3072 H 0.20709 0.75486 0.75111 0.0
C3073 C 0.21694 0.79592 0.71102 0.0
C3074 C 0.20069 0.80994 0.71643 0.0
C3075 C 0.22926 0.7816 0.71887 0.0
C3076 C 0.22468 0.75173 0.74958 0.0
H3077 H 0.31063 0.67435 0.76128 0.0
H3078 H 0.28815 0.69846 0.74721 0.0
H3079 H 0.22528 0.72569 0.76375 0.0
H3080 H 0.185 0.82081 0.73419 0.0
H3081 H 0.20679 0.79577 0.74809 0.0
H3082 H 0.2692 0.76824 0.73139 0.0
C3083 C 0.28506 0.69861 0.75754 0.0
C3084 C 0.23505 0.73494 0.75675 0.0
C3085 C 0.29774 0.6847 0.76552 0.0
C3086 C 0.19756 0.81015 0.72987 0.0
C3087 C 0.20985 0.79573 0.73776 0.0
C3088 C 0.25942 0.75898 0.73838 0.0
C3089 C 0.26912 0.71314 0.76293 0.0
C3090 C 0.25772 0.73001 0.75481 0.0
C3091 C 0.22546 0.78096 0.73228 0.0
C3092 C 0.23677 0.76392 0.74033 0.0
H3093 H 0.27566 0.69973 0.79467 0.0
H3094 H 0.25335 0.72376 0.7808 0.0
H3095 H 0.2874 0.73912 0.74403 0.0
H3096 H 0.2193 0.79513 0.70063 0.0
H3097 H 0.24095 0.77025 0.71435 0.0
C3098 C 0.44796 0.96992 0.96036 0.0
C3099 C 0.43256 0.95504 0.96583 0.0
C3100 C 0.4622 0.98225 0.96826 0.0
C3101 C 0.48893 0.97892 -4e-05 0.0
H3102 H 0.50617 0.04005 0.9929 0.0
C3103 C 0.54303 0.031 0.03456 0.0
C3104 C 0.55866 0.04574 0.02919 0.0
C3105 C 0.52851 0.01916 0.0266 0.0
C3106 C 0.50176 0.02287 0.99486 0.0
H3107 H 0.41917 0.94185 0.98369 0.0
H3108 H 0.44406 0.96367 0.99765 0.0
H3109 H 0.47702 0.02255 0.97992 0.0
H3110 H 0.57197 0.05936 0.01142 0.0
H3111 H 0.54657 0.03835 0.99733 0.0
H3112 H 0.51368 0.97919 0.01486 0.0
C3113 C 0.44523 0.96565 0.98725 0.0
C3114 C 0.48498 0.0129 0.98749 0.0
C3115 C 0.4309 0.95336 0.97932 0.0
C3116 C 0.56009 0.04793 0.01571 0.0
C3117 C 0.54546 0.0361 0.00771 0.0
C3118 C 0.50571 0.98887 0.00731 0.0
C3119 C 0.46138 0.97982 0.98177 0.0
C3120 C 0.47837 0.99084 0.98998 0.0
C3121 C 0.52925 0.02191 0.01311 0.0
C3122 C 0.51228 0.01095 0.00486 0.0
H3123 H 0.44984 0.97113 0.94996 0.0
H3124 H 0.47462 0.9928 0.96374 0.0
H3125 H 0.48453 0.96173 0.00192 0.0
H3126 H 0.54129 0.02945 0.04496 0.0
H3127 H 0.51601 0.00863 0.03107 0.0
C3128 C 0.30198 0.78405 0.28015 0.0
C3129 C 0.30115 0.80718 0.27819 0.0
C3130 C 0.28915 0.7698 0.27256 0.0
C3131 C 0.23908 0.7682 0.25219 0.0
H3132 H 0.26471 0.7127 0.23983 0.0
C3133 C 0.19477 0.71236 0.21515 0.0
C3134 C 0.19512 0.68926 0.21727 0.0
C3135 C 0.20762 0.72654 0.22277 0.0
C3136 C 0.25726 0.728 0.24336 0.0
H3137 H 0.28626 0.83381 0.26706 0.0
H3138 H 0.26369 0.80875 0.25353 0.0
H3139 H 0.28762 0.73852 0.25233 0.0
H3140 H 0.20929 0.66261 0.22871 0.0
H3141 H 0.23202 0.68756 0.24223 0.0
H3142 H 0.20873 0.75771 0.24318 0.0
C3143 C 0.27424 0.80166 0.26098 0.0
C3144 C 0.27037 0.74281 0.25047 0.0
C3145 C 0.28715 0.81597 0.26862 0.0
C3146 C 0.20876 0.68043 0.22701 0.0
C3147 C 0.22175 0.69466 0.23465 0.0
C3148 C 0.22598 0.75341 0.24506 0.0
C3149 C 0.27516 0.77841 0.26288 0.0
C3150 C 0.26141 0.76306 0.25498 0.0
C3151 C 0.22121 0.71788 0.23262 0.0
C3152 C 0.23494 0.73317 0.24056 0.0
H3153 H 0.31241 0.777 0.28768 0.0
H3154 H 0.28989 0.75205 0.27445 0.0
H3155 H 0.2316 0.78349 0.25572 0.0
H3156 H 0.18466 0.71945 0.20749 0.0
H3157 H 0.2072 0.74428 0.22079 0.0
C3158 C 0.44778 0.03065 0.53356 0.0
C3159 C 0.43451 0.04775 0.5284 0.0
C3160 C 0.46175 0.01822 0.52557 0.0
C3161 C 0.50091 0.00579 0.50903 0.0
H3162 H 0.48548 0.98892 0.47396 0.0
C3163 C 0.56473 0.96448 0.47453 0.0
C3164 C 0.55649 0.94751 0.46653 0.0
C3165 C 0.55001 0.9776 0.48178 0.0
C3166 C 0.49001 0.99333 0.48378 0.0
H3167 H 0.4248 0.06492 0.51088 0.0
H3168 H 0.44983 0.04362 0.49682 0.0
H3169 H 0.45832 0.00859 0.48719 0.0
H3170 H 0.52663 0.93105 0.45958 0.0
H3171 H 0.50112 0.95297 0.47264 0.0
H3172 H 0.53221 0.98966 0.50583 0.0
C3173 C 0.44913 0.03947 0.50701 0.0
C3174 C 0.4745 0.00489 0.49131 0.0
C3175 C 0.43485 0.05171 0.51503 0.0
C3176 C 0.53342 0.9438 0.46588 0.0
C3177 C 0.51878 0.95665 0.47319 0.0
C3178 C 0.51631 0.99402 0.50155 0.0
C3179 C 0.46312 0.02291 0.51226 0.0
C3180 C 0.47969 0.01106 0.50407 0.0
C3181 C 0.52683 0.97384 0.48116 0.0
C3182 C 0.51097 0.98746 0.48888 0.0
H3183 H 0.44817 0.02752 0.54388 0.0
H3184 H 0.47187 0.00525 0.5299 0.0
H3185 H 0.50569 0.01074 0.51872 0.0
H3186 H 0.58249 0.96768 0.47507 0.0
H3187 H 0.55676 0.99087 0.48771 0.0
C3188 C 0.29721 0.31354 0.73056 0.0
C3189 C 0.29523 0.31247 0.71706 0.0
C3190 C 0.28518 0.29877 0.73836 0.0
C3191 C 0.23805 0.25886 0.73821 0.0
H3192 H 0.27193 0.22917 0.76516 0.0
C3193 C 0.20254 0.18317 0.76532 0.0
C3194 C 0.20411 0.18454 0.77883 0.0
C3195 C 0.215 0.19759 0.75753 0.0
C3196 C 0.26224 0.2374 0.75772 0.0
H3197 H 0.27895 0.29573 0.70105 0.0
H3198 H 0.25777 0.27022 0.7146 0.0
H3199 H 0.28927 0.25894 0.7526 0.0
H3200 H 0.22029 0.20127 0.79487 0.0
H3201 H 0.24225 0.22618 0.78134 0.0
H3202 H 0.21102 0.23734 0.74333 0.0
C3203 C 0.26831 0.28252 0.71924 0.0
C3204 C 0.2721 0.25454 0.75059 0.0
C3205 C 0.28036 0.29718 0.71147 0.0
C3206 C 0.21915 0.19962 0.78445 0.0
C3207 C 0.23165 0.21394 0.77669 0.0
C3208 C 0.2282 0.24172 0.74533 0.0
C3209 C 0.27099 0.28278 0.73274 0.0
C3210 C 0.2601 0.26544 0.74076 0.0
C3211 C 0.22922 0.21352 0.76317 0.0
C3212 C 0.24019 0.23081 0.75515 0.0
H3213 H 0.30872 0.32516 0.73501 0.0
H3214 H 0.28735 0.29952 0.74876 0.0
H3215 H 0.22833 0.2671 0.73078 0.0
H3216 H 0.19091 0.1717 0.76084 0.0
H3217 H 0.21304 0.19672 0.74712 0.0
C3218 C 0.04681 0.96775 0.03679 0.0
C3219 C 0.06256 0.95329 0.03127 0.0
C3220 C 0.03264 0.98021 0.02894 0.0
C3221 C 0.02344 0.00033 0.99567 0.0
H3222 H 0.96117 -0.00052 0.00593 0.0
C3223 C 0.95448 0.03165 0.96183 0.0
C3224 C 0.93819 0.04552 0.96733 0.0
C3225 C 0.96921 0.01986 0.9697 0.0
C3226 C 0.97851 6e-05 0.00301 0.0
H3227 H 0.07653 0.94091 0.01337 0.0
H3228 H 0.05153 0.96273 -0.00053 0.0
H3229 H 0.98897 0.9812 0.01948 0.0
H3230 H 0.92397 0.05768 0.98522 0.0
H3231 H 0.94992 0.03709 -0.00087 0.0
H3232 H 0.01296 0.01917 0.97919 0.0
C3233 C 0.05031 0.96461 0.00988 0.0
C3234 C 0.99444 0.98964 0.01077 0.0
C3235 C 0.06458 0.95214 0.01777 0.0
C3236 C 0.93635 0.04691 0.98083 0.0
C3237 C 0.95115 0.03512 0.98874 0.0
C3238 C 0.0075 0.01077 0.98791 0.0
C3239 C 0.03382 0.97833 0.01541 0.0
C3240 C 0.01708 0.98969 0.00719 0.0
C3241 C 0.96802 0.02183 0.98322 0.0
C3242 C 0.98486 0.0107 0.99149 0.0
H3243 H 0.04473 0.96865 0.0472 0.0
H3244 H 0.02035 0.99091 0.03348 0.0
H3245 H 0.04078 0.00083 0.99274 0.0
H3246 H 0.95641 0.03059 0.95142 0.0
H3247 H 0.98178 0.00949 0.96517 0.0
C3248 C 0.79844 0.68667 0.73046 0.0
C3249 C 0.79702 0.68848 0.71696 0.0
C3250 C 0.78672 0.70155 0.73836 0.0
C3251 C 0.76205 0.75784 0.73758 0.0
H3252 H 0.73152 0.73871 0.76872 0.0
C3253 C 0.70206 0.81438 0.76688 0.0
C3254 C 0.703 0.81247 0.78038 0.0
C3255 C 0.71465 0.80004 0.75908 0.0
C3256 C 0.74021 0.74435 0.76013 0.0
H3257 H 0.78237 0.70691 0.70105 0.0
H3258 H 0.76142 0.73241 0.71478 0.0
H3259 H 0.75065 0.71123 0.75533 0.0
H3260 H 0.71788 0.79457 0.79643 0.0
H3261 H 0.74033 0.77005 0.78289 0.0
H3262 H 0.75151 0.79095 0.74236 0.0
C3263 C 0.7717 0.71977 0.71932 0.0
C3264 C 0.75114 0.7286 0.75247 0.0
C3265 C 0.78341 0.70498 0.71146 0.0
C3266 C 0.71719 0.79659 0.78601 0.0
C3267 C 0.72976 0.78234 0.77827 0.0
C3268 C 0.7511 0.77359 0.74524 0.0
C3269 C 0.77352 0.71848 0.73285 0.0
C3270 C 0.76212 0.73517 0.7411 0.0
C3271 C 0.72826 0.78357 0.76473 0.0
C3272 C 0.74008 0.767 0.7566 0.0
H3273 H 0.80905 0.67416 0.73485 0.0
H3274 H 0.78857 0.70026 0.74877 0.0
H3275 H 0.77069 0.76346 0.72897 0.0
H3276 H 0.69102 0.82641 0.76238 0.0
H3277 H 0.71305 0.80126 0.74866 0.0
C3278 C 0.70058 0.31089 0.2293 0.0
C3279 C 0.70319 0.31 0.21584 0.0
C3280 C 0.71322 0.29692 0.23727 0.0
C3281 C 0.76268 0.25981 0.23784 0.0
H3282 H 0.72934 0.22857 0.26441 0.0
C3283 C 0.79995 0.18542 0.2659 0.0
C3284 C 0.79712 0.1864 0.27936 0.0
C3285 C 0.78792 0.19981 0.25785 0.0
C3286 C 0.7389 0.23726 0.25708 0.0
H3287 H 0.72123 0.29446 0.20006 0.0
H3288 H 0.74343 0.27026 0.21391 0.0
H3289 H 0.71092 0.25712 0.25147 0.0
H3290 H 0.77961 0.20287 0.29502 0.0
H3291 H 0.75838 0.22764 0.28105 0.0
H3292 H 0.79066 0.23986 0.24346 0.0
C3293 C 0.73192 0.28185 0.21839 0.0
C3294 C 0.7284 0.25371 0.24973 0.0
C3295 C 0.71927 0.29574 0.21046 0.0
C3296 C 0.78164 0.20141 0.28464 0.0
C3297 C 0.76957 0.21566 0.27663 0.0
C3298 C 0.77319 0.24333 0.24519 0.0
C3299 C 0.72864 0.28187 0.23186 0.0
C3300 C 0.74018 0.26518 0.24005 0.0
C3301 C 0.77286 0.21531 0.26318 0.0
C3302 C 0.76141 0.23192 0.25491 0.0
H3303 H 0.68816 0.32174 0.2336 0.0
H3304 H 0.71057 0.29751 0.24764 0.0
H3305 H 0.77224 0.2685 0.23051 0.0
H3306 H 0.81196 0.17404 0.26168 0.0
H3307 H 0.79062 0.19905 0.24749 0.0
C3308 C 0.71766 0.20158 0.71069 0.0
C3309 C 0.70116 0.18761 0.71588 0.0
C3310 C 0.72981 0.21577 0.71871 0.0
C3311 C 0.72466 0.24545 0.74946 0.0
H3312 H 0.78782 0.25682 0.74483 0.0
C3313 C 0.77728 0.29681 0.78526 0.0
C3314 C 0.79447 0.31019 0.78031 0.0
C3315 C 0.7648 0.28328 0.77703 0.0
C3316 C 0.7701 0.25409 0.74609 0.0
H3317 H 0.68475 0.17683 0.73344 0.0
H3318 H 0.70621 0.20166 0.74763 0.0
H3319 H 0.76954 0.22832 0.73176 0.0
H3320 H 0.81166 0.32079 0.76298 0.0
H3321 H 0.78955 0.29723 0.74841 0.0
H3322 H 0.72521 0.27122 0.76379 0.0
C3323 C 0.70962 0.20173 0.73734 0.0
C3324 C 0.75968 0.23767 0.73867 0.0
C3325 C 0.69752 0.18742 0.72928 0.0
C3326 C 0.79837 0.31063 0.76694 0.0
C3327 C 0.78589 0.29703 0.75867 0.0
C3328 C 0.73508 0.26189 0.75687 0.0
C3329 C 0.72557 0.21637 0.73208 0.0
C3330 C 0.73686 0.23314 0.7403 0.0
C3331 C 0.76934 0.28281 0.76369 0.0
C3332 C 0.75792 0.26635 0.75529 0.0
H3333 H 0.7204 0.20238 0.70034 0.0
H3334 H 0.74175 0.22704 0.71435 0.0
H3335 H 0.70695 0.24264 0.75075 0.0
H3336 H 0.77433 0.2958 0.79559 0.0
H3337 H 0.7524 0.27232 0.78123 0.0
C3338 C 0.79579 0.81326 0.23082 0.0
C3339 C 0.79485 0.81123 0.21732 0.0
C3340 C 0.78399 0.79836 0.23867 0.0
C3341 C 0.76043 0.74167 0.23777 0.0
H3342 H 0.72914 0.76019 0.26879 0.0
C3343 C 0.70184 0.68371 0.26704 0.0
C3344 C 0.70289 0.68559 0.28054 0.0
C3345 C 0.71394 0.69843 0.25923 0.0
C3346 C 0.73803 0.75474 0.26023 0.0
H3347 H 0.78083 0.79249 0.20134 0.0
H3348 H 0.75969 0.76699 0.21496 0.0
H3349 H 0.74775 0.78807 0.25543 0.0
H3350 H 0.71741 0.70382 0.29657 0.0
H3351 H 0.73899 0.72905 0.283 0.0
H3352 H 0.75064 0.70834 0.24256 0.0
C3353 C 0.76971 0.77978 0.21954 0.0
C3354 C 0.74866 0.77071 0.25259 0.0
C3355 C 0.78151 0.79458 0.21175 0.0
C3356 C 0.71665 0.70185 0.28616 0.0
C3357 C 0.72872 0.71648 0.2784 0.0
C3358 C 0.74978 0.7257 0.24541 0.0
C3359 C 0.77116 0.78121 0.23308 0.0
C3360 C 0.75993 0.76434 0.24127 0.0
C3361 C 0.72713 0.71525 0.26486 0.0
C3362 C 0.7385 0.73208 0.25672 0.0
H3363 H 0.80618 0.8259 0.23527 0.0
H3364 H 0.78555 0.79976 0.24908 0.0
H3365 H 0.76932 0.7362 0.22921 0.0
H3366 H 0.69111 0.67139 0.26256 0.0
H3367 H 0.7123 0.69719 0.24881 0.0
C3368 C 0.43103 0.46341 0.02009 0.0
C3369 C 0.44005 0.44887 0.02931 0.0
C3370 C 0.44513 0.47696 0.0127 0.0
C3371 C 0.50207 0.50067 0.01242 0.0
H3372 H 0.49209 0.50627 0.97549 0.0
C3373 C 0.56678 0.53953 0.97748 0.0
C3374 C 0.55817 0.55403 0.9681 0.0
C3375 C 0.55229 0.52706 0.98524 0.0
C3376 C 0.49496 0.50503 0.98582 0.0
H3377 H 0.47044 0.43721 0.03839 0.0
H3378 H 0.49507 0.46043 0.02538 0.0
H3379 H 0.46625 0.48438 0.98856 0.0
H3380 H 0.52807 0.56685 0.95922 0.0
H3381 H 0.50278 0.54542 0.97285 0.0
H3382 H 0.53088 0.5212 0.00965 0.0
C3383 C 0.47724 0.46165 0.02386 0.0
C3384 C 0.48013 0.49256 0.9933 0.0
C3385 C 0.4632 0.44819 0.0312 0.0
C3386 C 0.53501 0.55591 0.96653 0.0
C3387 C 0.52058 0.54349 0.97422 0.0
C3388 C 0.51692 0.51311 0.00494 0.0
C3389 C 0.4684 0.47618 0.01453 0.0
C3390 C 0.48358 0.49019 0.00667 0.0
C3391 C 0.52904 0.52884 0.98362 0.0
C3392 C 0.51352 0.5154 0.99156 0.0
H3393 H 0.41316 0.46422 0.0186 0.0
H3394 H 0.43784 0.48819 0.00566 0.0
H3395 H 0.50498 0.49939 0.02274 0.0
H3396 H 0.58464 0.53778 0.97872 0.0
H3397 H 0.55925 0.51572 0.99234 0.0
C3398 C 0.06182 0.54657 0.51657 0.0
C3399 C 0.06058 0.54466 0.53008 0.0
C3400 C 0.0476 0.53399 0.50872 0.0
C3401 C 0.01 0.48516 0.50861 0.0
H3402 H 0.9788 0.51777 0.48172 0.0
C3403 C 0.93623 0.44639 0.48096 0.0
C3404 C 0.93693 0.44904 0.46749 0.0
C3405 C 0.95039 0.45893 0.48888 0.0
C3406 C 0.98749 0.5084 0.48913 0.0
H3407 H 0.04401 0.52803 0.54602 0.0
H3408 H 0.01954 0.50581 0.53237 0.0
H3409 H 0.00748 0.53649 0.49445 0.0
H3410 H 0.95254 0.46685 0.45166 0.0
H3411 H 0.97707 0.48882 0.46539 0.0
H3412 H 0.99009 0.45704 0.50326 0.0
C3413 C 0.03155 0.51676 0.52779 0.0
C3414 C 0.00398 0.51908 0.49636 0.0
C3415 C 0.04562 0.5294 0.53561 0.0
C3416 C 0.95134 0.46491 0.46206 0.0
C3417 C 0.96544 0.47743 0.46993 0.0
C3418 C 0.99354 0.47446 0.50135 0.0
C3419 C 0.03204 0.51927 0.51428 0.0
C3420 C 0.01539 0.50757 0.50618 0.0
C3421 C 0.96546 0.47426 0.4834 0.0
C3422 C 0.98211 0.48597 0.49153 0.0
H3423 H 0.0732 0.55835 0.51215 0.0
H3424 H 0.04848 0.53607 0.49831 0.0
H3425 H 0.01865 0.47583 0.51605 0.0
H3426 H 0.92529 0.4341 0.48529 0.0
H3427 H 0.94985 0.45633 0.49925 0.0
C3428 C 0.05998 0.44609 0.97982 0.0
C3429 C 0.05876 0.44844 0.96634 0.0
C3430 C 0.04512 0.45771 0.98779 0.0
C3431 C 0.98955 0.48394 0.98675 0.0
H3432 H 0.00784 0.51152 0.01897 0.0
C3433 C 0.93389 0.54446 0.01616 0.0
C3434 C 0.93514 0.54301 0.02968 0.0
C3435 C 0.94791 0.53141 0.00844 0.0
C3436 C 0.00242 0.50363 0.01008 0.0
H3437 H 0.04152 0.46481 0.95054 0.0
H3438 H 0.01612 0.48562 0.96442 0.0
H3439 H 0.03547 0.4926 0.00559 0.0
H3440 H 0.95134 0.52655 0.04581 0.0
H3441 H 0.97531 0.50329 0.03238 0.0
H3442 H 0.95651 0.49512 0.99121 0.0
C3443 C 0.02823 0.47464 0.96887 0.0
C3444 C 0.01826 0.49283 0.00242 0.0
C3445 C 0.04299 0.46301 0.96094 0.0
C3446 C 0.94985 0.5277 0.03538 0.0
C3447 C 0.9638 0.51465 0.0277 0.0
C3448 C 0.97371 0.49476 0.99441 0.0
C3449 C 0.02883 0.47179 0.98236 0.0
C3450 C 0.01202 0.48297 0.99064 0.0
C3451 C 0.9634 0.51678 0.01416 0.0
C3452 C 0.97998 0.50475 0.00614 0.0
H3453 H 0.07191 0.43474 0.98413 0.0
H3454 H 0.04588 0.45507 -0.00185 0.0
H3455 H 0.98415 0.47614 0.97783 0.0
H3456 H 0.92276 0.55635 0.01162 0.0
H3457 H 0.94734 0.53351 0.99803 0.0
C3458 C 0.45128 0.53014 0.46133 0.0
C3459 C 0.43568 0.54488 0.46674 0.0
C3460 C 0.46554 0.51793 0.46925 0.0
C3461 C 0.49185 0.52047 0.50113 0.0
H3462 H 0.50833 0.45924 0.49366 0.0
C3463 C 0.54535 0.46671 0.53531 0.0
C3464 C 0.56081 0.45197 0.52977 0.0
C3465 C 0.53094 0.47898 0.52749 0.0
C3466 C 0.50413 0.47645 0.49574 0.0
H3467 H 0.42223 0.55821 0.48455 0.0
H3468 H 0.44723 0.53661 0.4986 0.0
H3469 H 0.47954 0.47742 0.48075 0.0
H3470 H 0.57398 0.43881 0.51185 0.0
H3471 H 0.54877 0.46052 0.498 0.0
H3472 H 0.51647 0.51949 0.51612 0.0
C3473 C 0.44847 0.53461 0.4882 0.0
C3474 C 0.48756 0.4868 0.48841 0.0
C3475 C 0.43409 0.54679 0.48023 0.0
C3476 C 0.5622 0.4502 0.51627 0.0
C3477 C 0.54769 0.46245 0.50841 0.0
C3478 C 0.50843 0.51011 0.50847 0.0
C3479 C 0.4646 0.52034 0.48276 0.0
C3480 C 0.48128 0.50893 0.49101 0.0
C3481 C 0.53163 0.47664 0.51397 0.0
C3482 C 0.51476 0.488 0.50584 0.0
H3483 H 0.45315 0.5288 0.45092 0.0
H3484 H 0.47799 0.50737 0.46476 0.0
H3485 H 0.48767 0.53767 0.5032 0.0
H3486 H 0.54364 0.46795 0.54572 0.0
H3487 H 0.51856 0.4895 0.53208 0.0
loop_
_geom_bond_atom_site_label_1
_geom_bond_atom_site_label_2
_geom_bond_distance
_geom_bond_site_symmetry_2
_ccdc_geom_bond_type
Co0 O3 1.970 . S
Co0 N17 1.989 . S
Co0 O25 1.967 . S
Co0 O32 1.920 . S
Co1 O4 1.966 . S
Co1 N10 2.022 . S
Co1 N18 1.993 . S
Co1 O26 1.941 . S
C2 O3 1.258 . S
C2 O4 1.263 . S
O3 Co0 1.970 . S
O3 C2 1.258 . S
O4 Co1 1.966 . S
O4 C2 1.263 . S
C5 O6 1.235 . S
C5 O32 1.289 . S
O6 C5 1.235 . S
C7 C9 1.400 . S
C7 N10 1.351 . S
C7 C12 1.501 . S
C8 C9 1.387 . S
C8 N11 1.341 . S
C9 C7 1.400 . S
C9 C8 1.387 . S
N10 Co1 2.022 . S
N10 C7 1.351 . S
N10 N11 1.365 . S
N11 C8 1.341 . S
N11 N10 1.365 . S
N11 H31 0.862 . S
C12 C7 1.501 . S
C12 H13 0.961 . S
C12 H14 0.961 . S
C12 H15 0.960 . S
H13 C12 0.961 . S
H14 C12 0.961 . S
H15 C12 0.960 . S
C16 N17 1.342 . S
C16 C20 1.401 . S
C16 C21 1.499 . S
N17 Co0 1.989 . S
N17 C16 1.342 . S
N17 N18 1.388 . S
N18 Co1 1.993 . S
N18 N17 1.388 . S
N18 C19 1.346 . S
C19 N18 1.346 . S
C19 C20 1.396 . S
C19 C29 1.510 . S
C20 C16 1.401 . S
C20 C19 1.396 . S
C21 C16 1.499 . S
C21 H22 0.959 . S
C21 H23 0.960 . S
C21 H24 0.961 . S
H22 C21 0.959 . S
H23 C21 0.960 . S
H24 C21 0.961 . S
O25 Co0 1.967 . S
O25 C33 1.258 . S
O26 Co1 1.941 . S
O26 C33 1.266 . S
H27 C29 0.959 . S
H28 C29 0.961 . S
C29 C19 1.510 . S
C29 H27 0.959 . S
C29 H28 0.961 . S
C29 H30 0.960 . S
H30 C29 0.960 . S
H31 N11 0.862 . S
O32 Co0 1.920 . S
O32 C5 1.289 . S
C33 O25 1.258 . S
C33 O26 1.266 . S
Co34 O37 1.970 . S
Co34 N51 1.989 . S
Co34 O59 1.967 . S
Co34 O66 1.920 . S
Co35 O38 1.966 . S
Co35 N44 2.022 . S
Co35 N52 1.993 . S
Co35 O60 1.941 . S
C36 O37 1.258 . S
C36 O38 1.263 . S
O37 Co34 1.970 . S
O37 C36 1.258 . S
O38 Co35 1.966 . S
O38 C36 1.263 . S
C39 O40 1.235 . S
C39 O66 1.289 . S
O40 C39 1.235 . S
C41 C43 1.400 . S
C41 N44 1.351 . S
C41 C46 1.501 . S
C42 C43 1.387 . S
C42 N45 1.341 . S
C43 C41 1.400 . S
C43 C42 1.387 . S
N44 Co35 2.022 . S
N44 C41 1.351 . S
N44 N45 1.365 . S
N45 C42 1.341 . S
N45 N44 1.365 . S
N45 H65 0.862 . S
C46 C41 1.501 . S
C46 H47 0.961 . S
C46 H48 0.961 . S
C46 H49 0.960 . S
H47 C46 0.961 . S
H48 C46 0.961 . S
H49 C46 0.960 . S
C50 N51 1.342 . S
C50 C54 1.401 . S
C50 C55 1.499 . S
N51 Co34 1.989 . S
N51 C50 1.342 . S
N51 N52 1.388 . S
N52 Co35 1.993 . S
N52 N51 1.388 . S
N52 C53 1.346 . S
C53 N52 1.346 . S
C53 C54 1.396 . S
C53 C63 1.510 . S
C54 C50 1.401 . S
C54 C53 1.396 . S
C55 C50 1.499 . S
C55 H56 0.959 . S
C55 H57 0.960 . S
C55 H58 0.961 . S
H56 C55 0.959 . S
H57 C55 0.960 . S
H58 C55 0.961 . S
O59 Co34 1.967 . S
O59 C67 1.258 . S
O60 Co35 1.941 . S
O60 C67 1.266 . S
H61 C63 0.959 . S
H62 C63 0.961 . S
C63 C53 1.510 . S
C63 H61 0.959 . S
C63 H62 0.961 . S
C63 H64 0.960 . S
H64 C63 0.960 . S
H65 N45 0.862 . S
O66 Co34 1.920 . S
O66 C39 1.289 . S
C67 O59 1.258 . S
C67 O60 1.266 . S
Co68 O71 1.970 . S
Co68 N85 1.989 . S
Co68 O93 1.967 . S
Co68 O100 1.920 . S
Co69 O72 1.966 . S
Co69 N78 2.022 . S
Co69 N86 1.993 . S
Co69 O94 1.941 . S
C70 O71 1.258 . S
C70 O72 1.263 . S
O71 Co68 1.970 . S
O71 C70 1.258 . S
O72 Co69 1.966 . S
O72 C70 1.263 . S
C73 O74 1.235 . S
C73 O100 1.289 . S
O74 C73 1.235 . S
C75 C77 1.400 . S
C75 N78 1.351 . S
C75 C80 1.501 . S
C76 C77 1.387 . S
C76 N79 1.341 . S
C77 C75 1.400 . S
C77 C76 1.387 . S
N78 Co69 2.022 . S
N78 C75 1.351 . S
N78 N79 1.365 . S
N79 C76 1.341 . S
N79 N78 1.365 . S
N79 H99 0.862 . S
C80 C75 1.501 . S
C80 H81 0.961 . S
C80 H82 0.961 . S
C80 H83 0.960 . S
H81 C80 0.961 . S
H82 C80 0.961 . S
H83 C80 0.960 . S
C84 N85 1.342 . S
C84 C88 1.401 . S
C84 C89 1.499 . S
N85 Co68 1.989 . S
N85 C84 1.342 . S
N85 N86 1.388 . S
N86 Co69 1.993 . S
N86 N85 1.388 . S
N86 C87 1.346 . S
C87 N86 1.346 . S
C87 C88 1.396 . S
C87 C97 1.510 . S
C88 C84 1.401 . S
C88 C87 1.396 . S
C89 C84 1.499 . S
C89 H90 0.959 . S
C89 H91 0.960 . S
C89 H92 0.961 . S
H90 C89 0.959 . S
H91 C89 0.960 . S
H92 C89 0.961 . S
O93 Co68 1.967 . S
O93 C101 1.258 . S
O94 Co69 1.941 . S
O94 C101 1.266 . S
H95 C97 0.959 . S
H96 C97 0.961 . S
C97 C87 1.510 . S
C97 H95 0.959 . S
C97 H96 0.961 . S
C97 H98 0.960 . S
H98 C97 0.960 . S
H99 N79 0.862 . S
O100 Co68 1.920 . S
O100 C73 1.289 . S
C101 O93 1.258 . S
C101 O94 1.266 . S
Co102 O105 1.970 . S
Co102 N119 1.989 . S
Co102 O127 1.967 . S
Co102 O134 1.920 . S
Co103 O106 1.966 . S
Co103 N112 2.022 . S
Co103 N120 1.993 . S
Co103 O128 1.941 . S
C104 O105 1.258 . S
C104 O106 1.263 . S
O105 Co102 1.970 . S
O105 C104 1.258 . S
O106 Co103 1.966 . S
O106 C104 1.263 . S
C107 O108 1.235 . S
C107 O134 1.289 . S
O108 C107 1.235 . S
C109 C111 1.400 . S
C109 N112 1.351 . S
C109 C114 1.501 . S
C110 C111 1.387 . S
C110 N113 1.341 . S
C111 C109 1.400 . S
C111 C110 1.387 . S
N112 Co103 2.022 . S
N112 C109 1.351 . S
N112 N113 1.365 . S
N113 C110 1.341 . S
N113 N112 1.365 . S
N113 H133 0.862 . S
C114 C109 1.501 . S
C114 H115 0.961 . S
C114 H116 0.961 . S
C114 H117 0.960 . S
H115 C114 0.961 . S
H116 C114 0.961 . S
H117 C114 0.960 . S
C118 N119 1.342 . S
C118 C122 1.401 . S
C118 C123 1.499 . S
N119 Co102 1.989 . S
N119 C118 1.342 . S
N119 N120 1.388 . S
N120 Co103 1.993 . S
N120 N119 1.388 . S
N120 C121 1.346 . S
C121 N120 1.346 . S
C121 C122 1.396 . S
C121 C131 1.510 . S
C122 C118 1.401 . S
C122 C121 1.396 . S
C123 C118 1.499 . S
C123 H124 0.959 . S
C123 H125 0.960 . S
C123 H126 0.961 . S
H124 C123 0.959 . S
H125 C123 0.960 . S
H126 C123 0.961 . S
O127 Co102 1.967 . S
O127 C135 1.258 . S
O128 Co103 1.941 . S
O128 C135 1.266 . S
H129 C131 0.959 . S
H130 C131 0.961 . S
C131 C121 1.510 . S
C131 H129 0.959 . S
C131 H130 0.961 . S
C131 H132 0.960 . S
H132 C131 0.960 . S
H133 N113 0.862 . S
O134 Co102 1.920 . S
O134 C107 1.289 . S
C135 O127 1.258 . S
C135 O128 1.266 . S
Co136 O139 1.970 . S
Co136 N153 1.989 . S
Co136 O161 1.967 . S
Co136 O168 1.920 . S
Co137 O140 1.966 . S
Co137 N146 2.022 . S
Co137 N154 1.993 . S
Co137 O162 1.941 . S
C138 O139 1.258 . S
C138 O140 1.263 . S
O139 Co136 1.970 . S
O139 C138 1.258 . S
O140 Co137 1.966 . S
O140 C138 1.263 . S
C141 O142 1.235 . S
C141 O168 1.289 . S
O142 C141 1.235 . S
C143 C145 1.400 . S
C143 N146 1.351 . S
C143 C148 1.501 . S
C144 C145 1.387 . S
C144 N147 1.341 . S
C145 C143 1.400 . S
C145 C144 1.387 . S
N146 Co137 2.022 . S
N146 C143 1.351 . S
N146 N147 1.365 . S
N147 C144 1.341 . S
N147 N146 1.365 . S
N147 H167 0.862 . S
C148 C143 1.501 . S
C148 H149 0.961 . S
C148 H150 0.961 . S
C148 H151 0.960 . S
H149 C148 0.961 . S
H150 C148 0.961 . S
H151 C148 0.960 . S
C152 N153 1.342 . S
C152 C156 1.401 . S
C152 C157 1.499 . S
N153 Co136 1.989 . S
N153 C152 1.342 . S
N153 N154 1.388 . S
N154 Co137 1.993 . S
N154 N153 1.388 . S
N154 C155 1.346 . S
C155 N154 1.346 . S
C155 C156 1.396 . S
C155 C165 1.510 . S
C156 C152 1.401 . S
C156 C155 1.396 . S
C157 C152 1.499 . S
C157 H158 0.959 . S
C157 H159 0.960 . S
C157 H160 0.961 . S
H158 C157 0.959 . S
H159 C157 0.960 . S
H160 C157 0.961 . S
O161 Co136 1.967 . S
O161 C169 1.258 . S
O162 Co137 1.941 . S
O162 C169 1.266 . S
H163 C165 0.959 . S
H164 C165 0.961 . S
C165 C155 1.510 . S
C165 H163 0.959 . S
C165 H164 0.961 . S
C165 H166 0.960 . S
H166 C165 0.960 . S
H167 N147 0.862 . S
O168 Co136 1.920 . S
O168 C141 1.289 . S
C169 O161 1.258 . S
C169 O162 1.266 . S
Co170 O173 1.970 . S
Co170 N187 1.989 . S
Co170 O195 1.967 . S
Co170 O202 1.920 . S
Co171 O174 1.966 . S
Co171 N180 2.022 . S
Co171 N188 1.993 . S
Co171 O196 1.941 . S
C172 O173 1.258 . S
C172 O174 1.263 . S
O173 Co170 1.970 . S
O173 C172 1.258 . S
O174 Co171 1.966 . S
O174 C172 1.263 . S
C175 O176 1.235 . S
C175 O202 1.289 . S
O176 C175 1.235 . S
C177 C179 1.400 . S
C177 N180 1.351 . S
C177 C182 1.501 . S
C178 C179 1.387 . S
C178 N181 1.341 . S
C179 C177 1.400 . S
C179 C178 1.387 . S
N180 Co171 2.022 . S
N180 C177 1.351 . S
N180 N181 1.365 . S
N181 C178 1.341 . S
N181 N180 1.365 . S
N181 H201 0.862 . S
C182 C177 1.501 . S
C182 H183 0.961 . S
C182 H184 0.961 . S
C182 H185 0.960 . S
H183 C182 0.961 . S
H184 C182 0.961 . S
H185 C182 0.960 . S
C186 N187 1.342 . S
C186 C190 1.401 . S
C186 C191 1.499 . S
N187 Co170 1.989 . S
N187 C186 1.342 . S
N187 N188 1.388 . S
N188 Co171 1.993 . S
N188 N187 1.388 . S
N188 C189 1.346 . S
C189 N188 1.346 . S
C189 C190 1.396 . S
C189 C199 1.510 . S
C190 C186 1.401 . S
C190 C189 1.396 . S
C191 C186 1.499 . S
C191 H192 0.959 . S
C191 H193 0.960 . S
C191 H194 0.961 . S
H192 C191 0.959 . S
H193 C191 0.960 . S
H194 C191 0.961 . S
O195 Co170 1.967 . S
O195 C203 1.258 . S
O196 Co171 1.941 . S
O196 C203 1.266 . S
H197 C199 0.959 . S
H198 C199 0.961 . S
C199 C189 1.510 . S
C199 H197 0.959 . S
C199 H198 0.961 . S
C199 H200 0.960 . S
H200 C199 0.960 . S
H201 N181 0.862 . S
O202 Co170 1.920 . S
O202 C175 1.289 . S
C203 O195 1.258 . S
C203 O196 1.266 . S
Co204 O207 1.970 . S
Co204 N221 1.989 . S
Co204 O229 1.967 . S
Co204 O236 1.920 . S
Co205 O208 1.966 . S
Co205 N214 2.022 . S
Co205 N222 1.993 . S
Co205 O230 1.941 . S
C206 O207 1.258 . S
C206 O208 1.263 . S
O207 Co204 1.970 . S
O207 C206 1.258 . S
O208 Co205 1.966 . S
O208 C206 1.263 . S
C209 O210 1.235 . S
C209 O236 1.289 . S
O210 C209 1.235 . S
C211 C213 1.400 . S
C211 N214 1.351 . S
C211 C216 1.501 . S
C212 C213 1.387 . S
C212 N215 1.341 . S
C213 C211 1.400 . S
C213 C212 1.387 . S
N214 Co205 2.022 . S
N214 C211 1.351 . S
N214 N215 1.365 . S
N215 C212 1.341 . S
N215 N214 1.365 . S
N215 H235 0.862 . S
C216 C211 1.501 . S
C216 H217 0.961 . S
C216 H218 0.961 . S
C216 H219 0.960 . S
H217 C216 0.961 . S
H218 C216 0.961 . S
H219 C216 0.960 . S
C220 N221 1.342 . S
C220 C224 1.401 . S
C220 C225 1.499 . S
N221 Co204 1.989 . S
N221 C220 1.342 . S
N221 N222 1.388 . S
N222 Co205 1.993 . S
N222 N221 1.388 . S
N222 C223 1.346 . S
C223 N222 1.346 . S
C223 C224 1.396 . S
C223 C233 1.510 . S
C224 C220 1.401 . S
C224 C223 1.396 . S
C225 C220 1.499 . S
C225 H226 0.959 . S
C225 H227 0.960 . S
C225 H228 0.961 . S
H226 C225 0.959 . S
H227 C225 0.960 . S
H228 C225 0.961 . S
O229 Co204 1.967 . S
O229 C237 1.258 . S
O230 Co205 1.941 . S
O230 C237 1.266 . S
H231 C233 0.959 . S
H232 C233 0.961 . S
C233 C223 1.510 . S
C233 H231 0.959 . S
C233 H232 0.961 . S
C233 H234 0.960 . S
H234 C233 0.960 . S
H235 N215 0.862 . S
O236 Co204 1.920 . S
O236 C209 1.289 . S
C237 O229 1.258 . S
C237 O230 1.266 . S
Co238 O241 1.970 . S
Co238 N255 1.989 . S
Co238 O263 1.967 . S
Co238 O270 1.920 . S
Co239 O242 1.966 . S
Co239 N248 2.022 . S
Co239 N256 1.993 . S
Co239 O264 1.941 . S
C240 O241 1.258 . S
C240 O242 1.263 . S
O241 Co238 1.970 . S
O241 C240 1.258 . S
O242 Co239 1.966 . S
O242 C240 1.263 . S
C243 O244 1.235 . S
C243 O270 1.289 . S
O244 C243 1.235 . S
C245 C247 1.400 . S
C245 N248 1.351 . S
C245 C250 1.501 . S
C246 C247 1.387 . S
C246 N249 1.341 . S
C247 C245 1.400 . S
C247 C246 1.387 . S
N248 Co239 2.022 . S
N248 C245 1.351 . S
N248 N249 1.365 . S
N249 C246 1.341 . S
N249 N248 1.365 . S
N249 H269 0.862 . S
C250 C245 1.501 . S
C250 H251 0.961 . S
C250 H252 0.961 . S
C250 H253 0.960 . S
H251 C250 0.961 . S
H252 C250 0.961 . S
H253 C250 0.960 . S
C254 N255 1.342 . S
C254 C258 1.401 . S
C254 C259 1.499 . S
N255 Co238 1.989 . S
N255 C254 1.342 . S
N255 N256 1.388 . S
N256 Co239 1.993 . S
N256 N255 1.388 . S
N256 C257 1.346 . S
C257 N256 1.346 . S
C257 C258 1.396 . S
C257 C267 1.510 . S
C258 C254 1.401 . S
C258 C257 1.396 . S
C259 C254 1.499 . S
C259 H260 0.959 . S
C259 H261 0.960 . S
C259 H262 0.961 . S
H260 C259 0.959 . S
H261 C259 0.960 . S
H262 C259 0.961 . S
O263 Co238 1.967 . S
O263 C271 1.258 . S
O264 Co239 1.941 . S
O264 C271 1.266 . S
H265 C267 0.959 . S
H266 C267 0.961 . S
C267 C257 1.510 . S
C267 H265 0.959 . S
C267 H266 0.961 . S
C267 H268 0.960 . S
H268 C267 0.960 . S
H269 N249 0.862 . S
O270 Co238 1.920 . S
O270 C243 1.289 . S
C271 O263 1.258 . S
C271 O264 1.266 . S
Co272 O275 1.970 . S
Co272 N289 1.989 . S
Co272 O297 1.967 . S
Co272 O304 1.920 . S
Co273 O276 1.966 . S
Co273 N282 2.022 . S
Co273 N290 1.993 . S
Co273 O298 1.941 . S
C274 O275 1.258 . S
C274 O276 1.263 . S
O275 Co272 1.970 . S
O275 C274 1.258 . S
O276 Co273 1.966 . S
O276 C274 1.263 . S
C277 O278 1.235 . S
C277 O304 1.289 . S
O278 C277 1.235 . S
C279 C281 1.400 . S
C279 N282 1.351 . S
C279 C284 1.501 . S
C280 C281 1.387 . S
C280 N283 1.341 . S
C281 C279 1.400 . S
C281 C280 1.387 . S
N282 Co273 2.022 . S
N282 C279 1.351 . S
N282 N283 1.365 . S
N283 C280 1.341 . S
N283 N282 1.365 . S
N283 H303 0.862 . S
C284 C279 1.501 . S
C284 H285 0.961 . S
C284 H286 0.961 . S
C284 H287 0.960 . S
H285 C284 0.961 . S
H286 C284 0.961 . S
H287 C284 0.960 . S
C288 N289 1.342 . S
C288 C292 1.401 . S
C288 C293 1.499 . S
N289 Co272 1.989 . S
N289 C288 1.342 . S
N289 N290 1.388 . S
N290 Co273 1.993 . S
N290 N289 1.388 . S
N290 C291 1.346 . S
C291 N290 1.346 . S
C291 C292 1.396 . S
C291 C301 1.510 . S
C292 C288 1.401 . S
C292 C291 1.396 . S
C293 C288 1.499 . S
C293 H294 0.959 . S
C293 H295 0.960 . S
C293 H296 0.961 . S
H294 C293 0.959 . S
H295 C293 0.960 . S
H296 C293 0.961 . S
O297 Co272 1.967 . S
O297 C305 1.258 . S
O298 Co273 1.941 . S
O298 C305 1.266 . S
H299 C301 0.959 . S
H300 C301 0.961 . S
C301 C291 1.510 . S
C301 H299 0.959 . S
C301 H300 0.961 . S
C301 H302 0.960 . S
H302 C301 0.960 . S
H303 N283 0.862 . S
O304 Co272 1.920 . S
O304 C277 1.289 . S
C305 O297 1.258 . S
C305 O298 1.266 . S
Co306 O309 1.970 . S
Co306 N323 1.989 . S
Co306 O331 1.967 . S
Co306 O338 1.920 . S
Co307 O310 1.966 . S
Co307 N316 2.022 . S
Co307 N324 1.993 . S
Co307 O332 1.941 . S
C308 O309 1.258 . S
C308 O310 1.263 . S
O309 Co306 1.970 . S
O309 C308 1.258 . S
O310 Co307 1.966 . S
O310 C308 1.263 . S
C311 O312 1.235 . S
C311 O338 1.289 . S
O312 C311 1.235 . S
C313 C315 1.400 . S
C313 N316 1.351 . S
C313 C318 1.501 . S
C314 C315 1.387 . S
C314 N317 1.341 . S
C315 C313 1.400 . S
C315 C314 1.387 . S
N316 Co307 2.022 . S
N316 C313 1.351 . S
N316 N317 1.365 . S
N317 C314 1.341 . S
N317 N316 1.365 . S
N317 H337 0.862 . S
C318 C313 1.501 . S
C318 H319 0.961 . S
C318 H320 0.961 . S
C318 H321 0.960 . S
H319 C318 0.961 . S
H320 C318 0.961 . S
H321 C318 0.960 . S
C322 N323 1.342 . S
C322 C326 1.401 . S
C322 C327 1.499 . S
N323 Co306 1.989 . S
N323 C322 1.342 . S
N323 N324 1.388 . S
N324 Co307 1.993 . S
N324 N323 1.388 . S
N324 C325 1.346 . S
C325 N324 1.346 . S
C325 C326 1.396 . S
C325 C335 1.510 . S
C326 C322 1.401 . S
C326 C325 1.396 . S
C327 C322 1.499 . S
C327 H328 0.959 . S
C327 H329 0.960 . S
C327 H330 0.961 . S
H328 C327 0.959 . S
H329 C327 0.960 . S
H330 C327 0.961 . S
O331 Co306 1.967 . S
O331 C339 1.258 . S
O332 Co307 1.941 . S
O332 C339 1.266 . S
H333 C335 0.959 . S
H334 C335 0.961 . S
C335 C325 1.510 . S
C335 H333 0.959 . S
C335 H334 0.961 . S
C335 H336 0.960 . S
H336 C335 0.960 . S
H337 N317 0.862 . S
O338 Co306 1.920 . S
O338 C311 1.289 . S
C339 O331 1.258 . S
C339 O332 1.266 . S
Co340 O343 1.970 . S
Co340 N357 1.989 . S
Co340 O365 1.967 . S
Co340 O372 1.920 . S
Co341 O344 1.966 . S
Co341 N350 2.022 . S
Co341 N358 1.993 . S
Co341 O366 1.941 . S
C342 O343 1.258 . S
C342 O344 1.263 . S
O343 Co340 1.970 . S
O343 C342 1.258 . S
O344 Co341 1.966 . S
O344 C342 1.263 . S
C345 O346 1.235 . S
C345 O372 1.289 . S
O346 C345 1.235 . S
C347 C349 1.400 . S
C347 N350 1.351 . S
C347 C352 1.501 . S
C348 C349 1.387 . S
C348 N351 1.341 . S
C349 C347 1.400 . S
C349 C348 1.387 . S
N350 Co341 2.022 . S
N350 C347 1.351 . S
N350 N351 1.365 . S
N351 C348 1.341 . S
N351 N350 1.365 . S
N351 H371 0.862 . S
C352 C347 1.501 . S
C352 H353 0.961 . S
C352 H354 0.961 . S
C352 H355 0.960 . S
H353 C352 0.961 . S
H354 C352 0.961 . S
H355 C352 0.960 . S
C356 N357 1.342 . S
C356 C360 1.401 . S
C356 C361 1.499 . S
N357 Co340 1.989 . S
N357 C356 1.342 . S
N357 N358 1.388 . S
N358 Co341 1.993 . S
N358 N357 1.388 . S
N358 C359 1.346 . S
C359 N358 1.346 . S
C359 C360 1.396 . S
C359 C369 1.510 . S
C360 C356 1.401 . S
C360 C359 1.396 . S
C361 C356 1.499 . S
C361 H362 0.959 . S
C361 H363 0.960 . S
C361 H364 0.961 . S
H362 C361 0.959 . S
H363 C361 0.960 . S
H364 C361 0.961 . S
O365 Co340 1.967 . S
O365 C373 1.258 . S
O366 Co341 1.941 . S
O366 C373 1.266 . S
H367 C369 0.959 . S
H368 C369 0.961 . S
C369 C359 1.510 . S
C369 H367 0.959 . S
C369 H368 0.961 . S
C369 H370 0.960 . S
H370 C369 0.960 . S
H371 N351 0.862 . S
O372 Co340 1.920 . S
O372 C345 1.289 . S
C373 O365 1.258 . S
C373 O366 1.266 . S
Co374 O377 1.970 . S
Co374 N391 1.989 . S
Co374 O399 1.967 . S
Co374 O406 1.920 . S
Co375 O378 1.966 . S
Co375 N384 2.022 . S
Co375 N392 1.993 . S
Co375 O400 1.941 . S
C376 O377 1.258 . S
C376 O378 1.263 . S
O377 Co374 1.970 . S
O377 C376 1.258 . S
O378 Co375 1.966 . S
O378 C376 1.263 . S
C379 O380 1.235 . S
C379 O406 1.289 . S
O380 C379 1.235 . S
C381 C383 1.400 . S
C381 N384 1.351 . S
C381 C386 1.501 . S
C382 C383 1.387 . S
C382 N385 1.341 . S
C383 C381 1.400 . S
C383 C382 1.387 . S
N384 Co375 2.022 . S
N384 C381 1.351 . S
N384 N385 1.365 . S
N385 C382 1.341 . S
N385 N384 1.365 . S
N385 H405 0.862 . S
C386 C381 1.501 . S
C386 H387 0.961 . S
C386 H388 0.961 . S
C386 H389 0.960 . S
H387 C386 0.961 . S
H388 C386 0.961 . S
H389 C386 0.960 . S
C390 N391 1.342 . S
C390 C394 1.401 . S
C390 C395 1.499 . S
N391 Co374 1.989 . S
N391 C390 1.342 . S
N391 N392 1.388 . S
N392 Co375 1.993 . S
N392 N391 1.388 . S
N392 C393 1.346 . S
C393 N392 1.346 . S
C393 C394 1.396 . S
C393 C403 1.510 . S
C394 C390 1.401 . S
C394 C393 1.396 . S
C395 C390 1.499 . S
C395 H396 0.959 . S
C395 H397 0.960 . S
C395 H398 0.961 . S
H396 C395 0.959 . S
H397 C395 0.960 . S
H398 C395 0.961 . S
O399 Co374 1.967 . S
O399 C407 1.258 . S
O400 Co375 1.941 . S
O400 C407 1.266 . S
H401 C403 0.959 . S
H402 C403 0.961 . S
C403 C393 1.510 . S
C403 H401 0.959 . S
C403 H402 0.961 . S
C403 H404 0.960 . S
H404 C403 0.960 . S
H405 N385 0.862 . S
O406 Co374 1.920 . S
O406 C379 1.289 . S
C407 O399 1.258 . S
C407 O400 1.266 . S
Co408 O411 1.970 . S
Co408 N425 1.989 . S
Co408 O433 1.967 . S
Co408 O440 1.920 . S
Co409 O412 1.966 . S
Co409 N418 2.022 . S
Co409 N426 1.993 . S
Co409 O434 1.941 . S
C410 O411 1.258 . S
C410 O412 1.263 . S
O411 Co408 1.970 . S
O411 C410 1.258 . S
O412 Co409 1.966 . S
O412 C410 1.263 . S
C413 O414 1.235 . S
C413 O440 1.289 . S
O414 C413 1.235 . S
C415 C417 1.400 . S
C415 N418 1.351 . S
C415 C420 1.501 . S
C416 C417 1.387 . S
C416 N419 1.341 . S
C417 C415 1.400 . S
C417 C416 1.387 . S
N418 Co409 2.022 . S
N418 C415 1.351 . S
N418 N419 1.365 . S
N419 C416 1.341 . S
N419 N418 1.365 . S
N419 H439 0.862 . S
C420 C415 1.501 . S
C420 H421 0.961 . S
C420 H422 0.961 . S
C420 H423 0.960 . S
H421 C420 0.961 . S
H422 C420 0.961 . S
H423 C420 0.960 . S
C424 N425 1.342 . S
C424 C428 1.401 . S
C424 C429 1.499 . S
N425 Co408 1.989 . S
N425 C424 1.342 . S
N425 N426 1.388 . S
N426 Co409 1.993 . S
N426 N425 1.388 . S
N426 C427 1.346 . S
C427 N426 1.346 . S
C427 C428 1.396 . S
C427 C437 1.510 . S
C428 C424 1.401 . S
C428 C427 1.396 . S
C429 C424 1.499 . S
C429 H430 0.959 . S
C429 H431 0.960 . S
C429 H432 0.961 . S
H430 C429 0.959 . S
H431 C429 0.960 . S
H432 C429 0.961 . S
O433 Co408 1.967 . S
O433 C441 1.258 . S
O434 Co409 1.941 . S
O434 C441 1.266 . S
H435 C437 0.959 . S
H436 C437 0.961 . S
C437 C427 1.510 . S
C437 H435 0.959 . S
C437 H436 0.961 . S
C437 H438 0.960 . S
H438 C437 0.960 . S
H439 N419 0.862 . S
O440 Co408 1.920 . S
O440 C413 1.289 . S
C441 O433 1.258 . S
C441 O434 1.266 . S
Co442 O445 1.970 . S
Co442 N459 1.989 . S
Co442 O467 1.967 . S
Co442 O474 1.920 . S
Co443 O446 1.966 . S
Co443 N452 2.022 . S
Co443 N460 1.993 . S
Co443 O468 1.941 . S
C444 O445 1.258 . S
C444 O446 1.263 . S
O445 Co442 1.970 . S
O445 C444 1.258 . S
O446 Co443 1.966 . S
O446 C444 1.263 . S
C447 O448 1.235 . S
C447 O474 1.289 . S
O448 C447 1.235 . S
C449 C451 1.400 . S
C449 N452 1.351 . S
C449 C454 1.501 . S
C450 C451 1.387 . S
C450 N453 1.341 . S
C451 C449 1.400 . S
C451 C450 1.387 . S
N452 Co443 2.022 . S
N452 C449 1.351 . S
N452 N453 1.365 . S
N453 C450 1.341 . S
N453 N452 1.365 . S
N453 H473 0.862 . S
C454 C449 1.501 . S
C454 H455 0.961 . S
C454 H456 0.961 . S
C454 H457 0.960 . S
H455 C454 0.961 . S
H456 C454 0.961 . S
H457 C454 0.960 . S
C458 N459 1.342 . S
C458 C462 1.401 . S
C458 C463 1.499 . S
N459 Co442 1.989 . S
N459 C458 1.342 . S
N459 N460 1.388 . S
N460 Co443 1.993 . S
N460 N459 1.388 . S
N460 C461 1.346 . S
C461 N460 1.346 . S
C461 C462 1.396 . S
C461 C471 1.510 . S
C462 C458 1.401 . S
C462 C461 1.396 . S
C463 C458 1.499 . S
C463 H464 0.959 . S
C463 H465 0.960 . S
C463 H466 0.961 . S
H464 C463 0.959 . S
H465 C463 0.960 . S
H466 C463 0.961 . S
O467 Co442 1.967 . S
O467 C475 1.258 . S
O468 Co443 1.941 . S
O468 C475 1.266 . S
H469 C471 0.959 . S
H470 C471 0.961 . S
C471 C461 1.510 . S
C471 H469 0.959 . S
C471 H470 0.961 . S
C471 H472 0.960 . S
H472 C471 0.960 . S
H473 N453 0.862 . S
O474 Co442 1.920 . S
O474 C447 1.289 . S
C475 O467 1.258 . S
C475 O468 1.266 . S
Co476 O479 1.970 . S
Co476 N493 1.989 . S
Co476 O501 1.967 . S
Co476 O508 1.920 . S
Co477 O480 1.966 . S
Co477 N486 2.022 . S
Co477 N494 1.993 . S
Co477 O502 1.941 . S
C478 O479 1.258 . S
C478 O480 1.263 . S
O479 Co476 1.970 . S
O479 C478 1.258 . S
O480 Co477 1.966 . S
O480 C478 1.263 . S
C481 O482 1.235 . S
C481 O508 1.289 . S
O482 C481 1.235 . S
C483 C485 1.400 . S
C483 N486 1.351 . S
C483 C488 1.501 . S
C484 C485 1.387 . S
C484 N487 1.341 . S
C485 C483 1.400 . S
C485 C484 1.387 . S
N486 Co477 2.022 . S
N486 C483 1.351 . S
N486 N487 1.365 . S
N487 C484 1.341 . S
N487 N486 1.365 . S
N487 H507 0.862 . S
C488 C483 1.501 . S
C488 H489 0.961 . S
C488 H490 0.961 . S
C488 H491 0.960 . S
H489 C488 0.961 . S
H490 C488 0.961 . S
H491 C488 0.960 . S
C492 N493 1.342 . S
C492 C496 1.401 . S
C492 C497 1.499 . S
N493 Co476 1.989 . S
N493 C492 1.342 . S
N493 N494 1.388 . S
N494 Co477 1.993 . S
N494 N493 1.388 . S
N494 C495 1.346 . S
C495 N494 1.346 . S
C495 C496 1.396 . S
C495 C505 1.510 . S
C496 C492 1.401 . S
C496 C495 1.396 . S
C497 C492 1.499 . S
C497 H498 0.959 . S
C497 H499 0.960 . S
C497 H500 0.961 . S
H498 C497 0.959 . S
H499 C497 0.960 . S
H500 C497 0.961 . S
O501 Co476 1.967 . S
O501 C509 1.258 . S
O502 Co477 1.941 . S
O502 C509 1.266 . S
H503 C505 0.959 . S
H504 C505 0.961 . S
C505 C495 1.510 . S
C505 H503 0.959 . S
C505 H504 0.961 . S
C505 H506 0.960 . S
H506 C505 0.960 . S
H507 N487 0.862 . S
O508 Co476 1.920 . S
O508 C481 1.289 . S
C509 O501 1.258 . S
C509 O502 1.266 . S
Co510 O513 1.970 . S
Co510 N527 1.989 . S
Co510 O535 1.967 . S
Co510 O542 1.920 . S
Co511 O514 1.966 . S
Co511 N520 2.022 . S
Co511 N528 1.993 . S
Co511 O536 1.941 . S
C512 O513 1.258 . S
C512 O514 1.263 . S
O513 Co510 1.970 . S
O513 C512 1.258 . S
O514 Co511 1.966 . S
O514 C512 1.263 . S
C515 O516 1.235 . S
C515 O542 1.289 . S
O516 C515 1.235 . S
C517 C519 1.400 . S
C517 N520 1.351 . S
C517 C522 1.501 . S
C518 C519 1.387 . S
C518 N521 1.341 . S
C519 C517 1.400 . S
C519 C518 1.387 . S
N520 Co511 2.022 . S
N520 C517 1.351 . S
N520 N521 1.365 . S
N521 C518 1.341 . S
N521 N520 1.365 . S
N521 H541 0.862 . S
C522 C517 1.501 . S
C522 H523 0.961 . S
C522 H524 0.961 . S
C522 H525 0.960 . S
H523 C522 0.961 . S
H524 C522 0.961 . S
H525 C522 0.960 . S
C526 N527 1.342 . S
C526 C530 1.401 . S
C526 C531 1.499 . S
N527 Co510 1.989 . S
N527 C526 1.342 . S
N527 N528 1.388 . S
N528 Co511 1.993 . S
N528 N527 1.388 . S
N528 C529 1.346 . S
C529 N528 1.346 . S
C529 C530 1.396 . S
C529 C539 1.510 . S
C530 C526 1.401 . S
C530 C529 1.396 . S
C531 C526 1.499 . S
C531 H532 0.959 . S
C531 H533 0.960 . S
C531 H534 0.961 . S
H532 C531 0.959 . S
H533 C531 0.960 . S
H534 C531 0.961 . S
O535 Co510 1.967 . S
O535 C543 1.258 . S
O536 Co511 1.941 . S
O536 C543 1.266 . S
H537 C539 0.959 . S
H538 C539 0.961 . S
C539 C529 1.510 . S
C539 H537 0.959 . S
C539 H538 0.961 . S
C539 H540 0.960 . S
H540 C539 0.960 . S
H541 N521 0.862 . S
O542 Co510 1.920 . S
O542 C515 1.289 . S
C543 O535 1.258 . S
C543 O536 1.266 . S
Co544 O547 1.970 . S
Co544 N561 1.989 . S
Co544 O569 1.967 . S
Co544 O576 1.920 . S
Co545 O548 1.966 . S
Co545 N554 2.022 . S
Co545 N562 1.993 . S
Co545 O570 1.941 . S
C546 O547 1.258 . S
C546 O548 1.263 . S
O547 Co544 1.970 . S
O547 C546 1.258 . S
O548 Co545 1.966 . S
O548 C546 1.263 . S
C549 O550 1.235 . S
C549 O576 1.289 . S
O550 C549 1.235 . S
C551 C553 1.400 . S
C551 N554 1.351 . S
C551 C556 1.501 . S
C552 C553 1.387 . S
C552 N555 1.341 . S
C553 C551 1.400 . S
C553 C552 1.387 . S
N554 Co545 2.022 . S
N554 C551 1.351 . S
N554 N555 1.365 . S
N555 C552 1.341 . S
N555 N554 1.365 . S
N555 H575 0.862 . S
C556 C551 1.501 . S
C556 H557 0.961 . S
C556 H558 0.961 . S
C556 H559 0.960 . S
H557 C556 0.961 . S
H558 C556 0.961 . S
H559 C556 0.960 . S
C560 N561 1.342 . S
C560 C564 1.401 . S
C560 C565 1.499 . S
N561 Co544 1.989 . S
N561 C560 1.342 . S
N561 N562 1.388 . S
N562 Co545 1.993 . S
N562 N561 1.388 . S
N562 C563 1.346 . S
C563 N562 1.346 . S
C563 C564 1.396 . S
C563 C573 1.510 . S
C564 C560 1.401 . S
C564 C563 1.396 . S
C565 C560 1.499 . S
C565 H566 0.959 . S
C565 H567 0.960 . S
C565 H568 0.961 . S
H566 C565 0.959 . S
H567 C565 0.960 . S
H568 C565 0.961 . S
O569 Co544 1.967 . S
O569 C577 1.258 . S
O570 Co545 1.941 . S
O570 C577 1.266 . S
H571 C573 0.959 . S
H572 C573 0.961 . S
C573 C563 1.510 . S
C573 H571 0.959 . S
C573 H572 0.961 . S
C573 H574 0.960 . S
H574 C573 0.960 . S
H575 N555 0.862 . S
O576 Co544 1.920 . S
O576 C549 1.289 . S
C577 O569 1.258 . S
C577 O570 1.266 . S
Co578 O581 1.970 . S
Co578 N595 1.989 . S
Co578 O603 1.967 . S
Co578 O610 1.920 . S
Co579 O582 1.966 . S
Co579 N588 2.022 . S
Co579 N596 1.993 . S
Co579 O604 1.941 . S
C580 O581 1.258 . S
C580 O582 1.263 . S
O581 Co578 1.970 . S
O581 C580 1.258 . S
O582 Co579 1.966 . S
O582 C580 1.263 . S
C583 O584 1.235 . S
C583 O610 1.289 . S
O584 C583 1.235 . S
C585 C587 1.400 . S
C585 N588 1.351 . S
C585 C590 1.501 . S
C586 C587 1.387 . S
C586 N589 1.341 . S
C587 C585 1.400 . S
C587 C586 1.387 . S
N588 Co579 2.022 . S
N588 C585 1.351 . S
N588 N589 1.365 . S
N589 C586 1.341 . S
N589 N588 1.365 . S
N589 H609 0.862 . S
C590 C585 1.501 . S
C590 H591 0.961 . S
C590 H592 0.961 . S
C590 H593 0.960 . S
H591 C590 0.961 . S
H592 C590 0.961 . S
H593 C590 0.960 . S
C594 N595 1.342 . S
C594 C598 1.401 . S
C594 C599 1.499 . S
N595 Co578 1.989 . S
N595 C594 1.342 . S
N595 N596 1.388 . S
N596 Co579 1.993 . S
N596 N595 1.388 . S
N596 C597 1.346 . S
C597 N596 1.346 . S
C597 C598 1.396 . S
C597 C607 1.510 . S
C598 C594 1.401 . S
C598 C597 1.396 . S
C599 C594 1.499 . S
C599 H600 0.959 . S
C599 H601 0.960 . S
C599 H602 0.961 . S
H600 C599 0.959 . S
H601 C599 0.960 . S
H602 C599 0.961 . S
O603 Co578 1.967 . S
O603 C611 1.258 . S
O604 Co579 1.941 . S
O604 C611 1.266 . S
H605 C607 0.959 . S
H606 C607 0.961 . S
C607 C597 1.510 . S
C607 H605 0.959 . S
C607 H606 0.961 . S
C607 H608 0.960 . S
H608 C607 0.960 . S
H609 N589 0.862 . S
O610 Co578 1.920 . S
O610 C583 1.289 . S
C611 O603 1.258 . S
C611 O604 1.266 . S
Co612 O615 1.970 . S
Co612 N629 1.989 . S
Co612 O637 1.967 . S
Co612 O644 1.920 . S
Co613 O616 1.966 . S
Co613 N622 2.022 . S
Co613 N630 1.993 . S
Co613 O638 1.941 . S
C614 O615 1.258 . S
C614 O616 1.263 . S
O615 Co612 1.970 . S
O615 C614 1.258 . S
O616 Co613 1.966 . S
O616 C614 1.263 . S
C617 O618 1.235 . S
C617 O644 1.289 . S
O618 C617 1.235 . S
C619 C621 1.400 . S
C619 N622 1.351 . S
C619 C624 1.501 . S
C620 C621 1.387 . S
C620 N623 1.341 . S
C621 C619 1.400 . S
C621 C620 1.387 . S
N622 Co613 2.022 . S
N622 C619 1.351 . S
N622 N623 1.365 . S
N623 C620 1.341 . S
N623 N622 1.365 . S
N623 H643 0.862 . S
C624 C619 1.501 . S
C624 H625 0.961 . S
C624 H626 0.961 . S
C624 H627 0.960 . S
H625 C624 0.961 . S
H626 C624 0.961 . S
H627 C624 0.960 . S
C628 N629 1.342 . S
C628 C632 1.401 . S
C628 C633 1.499 . S
N629 Co612 1.989 . S
N629 C628 1.342 . S
N629 N630 1.388 . S
N630 Co613 1.993 . S
N630 N629 1.388 . S
N630 C631 1.346 . S
C631 N630 1.346 . S
C631 C632 1.396 . S
C631 C641 1.510 . S
C632 C628 1.401 . S
C632 C631 1.396 . S
C633 C628 1.499 . S
C633 H634 0.959 . S
C633 H635 0.960 . S
C633 H636 0.961 . S
H634 C633 0.959 . S
H635 C633 0.960 . S
H636 C633 0.961 . S
O637 Co612 1.967 . S
O637 C645 1.258 . S
O638 Co613 1.941 . S
O638 C645 1.266 . S
H639 C641 0.959 . S
H640 C641 0.961 . S
C641 C631 1.510 . S
C641 H639 0.959 . S
C641 H640 0.961 . S
C641 H642 0.960 . S
H642 C641 0.960 . S
H643 N623 0.862 . S
O644 Co612 1.920 . S
O644 C617 1.289 . S
C645 O637 1.258 . S
C645 O638 1.266 . S
Co646 O649 1.970 . S
Co646 N663 1.989 . S
Co646 O671 1.967 . S
Co646 O678 1.920 . S
Co647 O650 1.966 . S
Co647 N656 2.022 . S
Co647 N664 1.993 . S
Co647 O672 1.941 . S
C648 O649 1.258 . S
C648 O650 1.263 . S
O649 Co646 1.970 . S
O649 C648 1.258 . S
O650 Co647 1.966 . S
O650 C648 1.263 . S
C651 O652 1.235 . S
C651 O678 1.289 . S
O652 C651 1.235 . S
C653 C655 1.400 . S
C653 N656 1.351 . S
C653 C658 1.501 . S
C654 C655 1.387 . S
C654 N657 1.341 . S
C655 C653 1.400 . S
C655 C654 1.387 . S
N656 Co647 2.022 . S
N656 C653 1.351 . S
N656 N657 1.365 . S
N657 C654 1.341 . S
N657 N656 1.365 . S
N657 H677 0.862 . S
C658 C653 1.501 . S
C658 H659 0.961 . S
C658 H660 0.961 . S
C658 H661 0.960 . S
H659 C658 0.961 . S
H660 C658 0.961 . S
H661 C658 0.960 . S
C662 N663 1.342 . S
C662 C666 1.401 . S
C662 C667 1.499 . S
N663 Co646 1.989 . S
N663 C662 1.342 . S
N663 N664 1.388 . S
N664 Co647 1.993 . S
N664 N663 1.388 . S
N664 C665 1.346 . S
C665 N664 1.346 . S
C665 C666 1.396 . S
C665 C675 1.510 . S
C666 C662 1.401 . S
C666 C665 1.396 . S
C667 C662 1.499 . S
C667 H668 0.959 . S
C667 H669 0.960 . S
C667 H670 0.961 . S
H668 C667 0.959 . S
H669 C667 0.960 . S
H670 C667 0.961 . S
O671 Co646 1.967 . S
O671 C679 1.258 . S
O672 Co647 1.941 . S
O672 C679 1.266 . S
H673 C675 0.959 . S
H674 C675 0.961 . S
C675 C665 1.510 . S
C675 H673 0.959 . S
C675 H674 0.961 . S
C675 H676 0.960 . S
H676 C675 0.960 . S
H677 N657 0.862 . S
O678 Co646 1.920 . S
O678 C651 1.289 . S
C679 O671 1.258 . S
C679 O672 1.266 . S
Co680 O683 1.970 . S
Co680 N697 1.989 . S
Co680 O705 1.967 . S
Co680 O712 1.920 . S
Co681 O684 1.966 . S
Co681 N690 2.022 . S
Co681 N698 1.993 . S
Co681 O706 1.941 . S
C682 O683 1.258 . S
C682 O684 1.263 . S
O683 Co680 1.970 . S
O683 C682 1.258 . S
O684 Co681 1.966 . S
O684 C682 1.263 . S
C685 O686 1.235 . S
C685 O712 1.289 . S
O686 C685 1.235 . S
C687 C689 1.400 . S
C687 N690 1.351 . S
C687 C692 1.501 . S
C688 C689 1.387 . S
C688 N691 1.341 . S
C689 C687 1.400 . S
C689 C688 1.387 . S
N690 Co681 2.022 . S
N690 C687 1.351 . S
N690 N691 1.365 . S
N691 C688 1.341 . S
N691 N690 1.365 . S
N691 H711 0.862 . S
C692 C687 1.501 . S
C692 H693 0.961 . S
C692 H694 0.961 . S
C692 H695 0.960 . S
H693 C692 0.961 . S
H694 C692 0.961 . S
H695 C692 0.960 . S
C696 N697 1.342 . S
C696 C700 1.401 . S
C696 C701 1.499 . S
N697 Co680 1.989 . S
N697 C696 1.342 . S
N697 N698 1.388 . S
N698 Co681 1.993 . S
N698 N697 1.388 . S
N698 C699 1.346 . S
C699 N698 1.346 . S
C699 C700 1.396 . S
C699 C709 1.510 . S
C700 C696 1.401 . S
C700 C699 1.396 . S
C701 C696 1.499 . S
C701 H702 0.959 . S
C701 H703 0.960 . S
C701 H704 0.961 . S
H702 C701 0.959 . S
H703 C701 0.960 . S
H704 C701 0.961 . S
O705 Co680 1.967 . S
O705 C713 1.258 . S
O706 Co681 1.941 . S
O706 C713 1.266 . S
H707 C709 0.959 . S
H708 C709 0.961 . S
C709 C699 1.510 . S
C709 H707 0.959 . S
C709 H708 0.961 . S
C709 H710 0.960 . S
H710 C709 0.960 . S
H711 N691 0.862 . S
O712 Co680 1.920 . S
O712 C685 1.289 . S
C713 O705 1.258 . S
C713 O706 1.266 . S
Co714 O717 1.970 . S
Co714 N731 1.989 . S
Co714 O739 1.967 . S
Co714 O746 1.920 . S
Co715 O718 1.966 . S
Co715 N724 2.022 . S
Co715 N732 1.993 . S
Co715 O740 1.941 . S
C716 O717 1.258 . S
C716 O718 1.263 . S
O717 Co714 1.970 . S
O717 C716 1.258 . S
O718 Co715 1.966 . S
O718 C716 1.263 . S
C719 O720 1.235 . S
C719 O746 1.289 . S
O720 C719 1.235 . S
C721 C723 1.400 . S
C721 N724 1.351 . S
C721 C726 1.501 . S
C722 C723 1.387 . S
C722 N725 1.341 . S
C723 C721 1.400 . S
C723 C722 1.387 . S
N724 Co715 2.022 . S
N724 C721 1.351 . S
N724 N725 1.365 . S
N725 C722 1.341 . S
N725 N724 1.365 . S
N725 H745 0.862 . S
C726 C721 1.501 . S
C726 H727 0.961 . S
C726 H728 0.961 . S
C726 H729 0.960 . S
H727 C726 0.961 . S
H728 C726 0.961 . S
H729 C726 0.960 . S
C730 N731 1.342 . S
C730 C734 1.401 . S
C730 C735 1.499 . S
N731 Co714 1.989 . S
N731 C730 1.342 . S
N731 N732 1.388 . S
N732 Co715 1.993 . S
N732 N731 1.388 . S
N732 C733 1.346 . S
C733 N732 1.346 . S
C733 C734 1.396 . S
C733 C743 1.510 . S
C734 C730 1.401 . S
C734 C733 1.396 . S
C735 C730 1.499 . S
C735 H736 0.959 . S
C735 H737 0.960 . S
C735 H738 0.961 . S
H736 C735 0.959 . S
H737 C735 0.960 . S
H738 C735 0.961 . S
O739 Co714 1.967 . S
O739 C747 1.258 . S
O740 Co715 1.941 . S
O740 C747 1.266 . S
H741 C743 0.959 . S
H742 C743 0.961 . S
C743 C733 1.510 . S
C743 H741 0.959 . S
C743 H742 0.961 . S
C743 H744 0.960 . S
H744 C743 0.960 . S
H745 N725 0.862 . S
O746 Co714 1.920 . S
O746 C719 1.289 . S
C747 O739 1.258 . S
C747 O740 1.266 . S
Co748 O751 1.970 . S
Co748 N765 1.989 . S
Co748 O773 1.967 . S
Co748 O780 1.920 . S
Co749 O752 1.966 . S
Co749 N758 2.022 . S
Co749 N766 1.993 . S
Co749 O774 1.941 . S
C750 O751 1.258 . S
C750 O752 1.263 . S
O751 Co748 1.970 . S
O751 C750 1.258 . S
O752 Co749 1.966 . S
O752 C750 1.263 . S
C753 O754 1.235 . S
C753 O780 1.289 . S
O754 C753 1.235 . S
C755 C757 1.400 . S
C755 N758 1.351 . S
C755 C760 1.501 . S
C756 C757 1.387 . S
C756 N759 1.341 . S
C757 C755 1.400 . S
C757 C756 1.387 . S
N758 Co749 2.022 . S
N758 C755 1.351 . S
N758 N759 1.365 . S
N759 C756 1.341 . S
N759 N758 1.365 . S
N759 H779 0.862 . S
C760 C755 1.501 . S
C760 H761 0.961 . S
C760 H762 0.961 . S
C760 H763 0.960 . S
H761 C760 0.961 . S
H762 C760 0.961 . S
H763 C760 0.960 . S
C764 N765 1.342 . S
C764 C768 1.401 . S
C764 C769 1.499 . S
N765 Co748 1.989 . S
N765 C764 1.342 . S
N765 N766 1.388 . S
N766 Co749 1.993 . S
N766 N765 1.388 . S
N766 C767 1.346 . S
C767 N766 1.346 . S
C767 C768 1.396 . S
C767 C777 1.510 . S
C768 C764 1.401 . S
C768 C767 1.396 . S
C769 C764 1.499 . S
C769 H770 0.959 . S
C769 H771 0.960 . S
C769 H772 0.961 . S
H770 C769 0.959 . S
H771 C769 0.960 . S
H772 C769 0.961 . S
O773 Co748 1.967 . S
O773 C781 1.258 . S
O774 Co749 1.941 . S
O774 C781 1.266 . S
H775 C777 0.959 . S
H776 C777 0.961 . S
C777 C767 1.510 . S
C777 H775 0.959 . S
C777 H776 0.961 . S
C777 H778 0.960 . S
H778 C777 0.960 . S
H779 N759 0.862 . S
O780 Co748 1.920 . S
O780 C753 1.289 . S
C781 O773 1.258 . S
C781 O774 1.266 . S
Co782 O785 1.970 . S
Co782 N799 1.989 . S
Co782 O807 1.967 . S
Co782 O814 1.920 . S
Co783 O786 1.966 . S
Co783 N792 2.022 . S
Co783 N800 1.993 . S
Co783 O808 1.941 . S
C784 O785 1.258 . S
C784 O786 1.263 . S
O785 Co782 1.970 . S
O785 C784 1.258 . S
O786 Co783 1.966 . S
O786 C784 1.263 . S
C787 O788 1.235 . S
C787 O814 1.289 . S
O788 C787 1.235 . S
C789 C791 1.400 . S
C789 N792 1.351 . S
C789 C794 1.501 . S
C790 C791 1.387 . S
C790 N793 1.341 . S
C791 C789 1.400 . S
C791 C790 1.387 . S
N792 Co783 2.022 . S
N792 C789 1.351 . S
N792 N793 1.365 . S
N793 C790 1.341 . S
N793 N792 1.365 . S
N793 H813 0.862 . S
C794 C789 1.501 . S
C794 H795 0.961 . S
C794 H796 0.961 . S
C794 H797 0.960 . S
H795 C794 0.961 . S
H796 C794 0.961 . S
H797 C794 0.960 . S
C798 N799 1.342 . S
C798 C802 1.401 . S
C798 C803 1.499 . S
N799 Co782 1.989 . S
N799 C798 1.342 . S
N799 N800 1.388 . S
N800 Co783 1.993 . S
N800 N799 1.388 . S
N800 C801 1.346 . S
C801 N800 1.346 . S
C801 C802 1.396 . S
C801 C811 1.510 . S
C802 C798 1.401 . S
C802 C801 1.396 . S
C803 C798 1.499 . S
C803 H804 0.959 . S
C803 H805 0.960 . S
C803 H806 0.961 . S
H804 C803 0.959 . S
H805 C803 0.960 . S
H806 C803 0.961 . S
O807 Co782 1.967 . S
O807 C815 1.258 . S
O808 Co783 1.941 . S
O808 C815 1.266 . S
H809 C811 0.959 . S
H810 C811 0.961 . S
C811 C801 1.510 . S
C811 H809 0.959 . S
C811 H810 0.961 . S
C811 H812 0.960 . S
H812 C811 0.960 . S
H813 N793 0.862 . S
O814 Co782 1.920 . S
O814 C787 1.289 . S
C815 O807 1.258 . S
C815 O808 1.266 . S
Co816 O819 1.970 . S
Co816 N833 1.989 . S
Co816 O841 1.967 . S
Co816 O848 1.920 . S
Co817 O820 1.966 . S
Co817 N826 2.022 . S
Co817 N834 1.993 . S
Co817 O842 1.941 . S
C818 O819 1.258 . S
C818 O820 1.263 . S
O819 Co816 1.970 . S
O819 C818 1.258 . S
O820 Co817 1.966 . S
O820 C818 1.263 . S
C821 O822 1.235 . S
C821 O848 1.289 . S
O822 C821 1.235 . S
C823 C825 1.400 . S
C823 N826 1.351 . S
C823 C828 1.501 . S
C824 C825 1.387 . S
C824 N827 1.341 . S
C825 C823 1.400 . S
C825 C824 1.387 . S
N826 Co817 2.022 . S
N826 C823 1.351 . S
N826 N827 1.365 . S
N827 C824 1.341 . S
N827 N826 1.365 . S
N827 H847 0.862 . S
C828 C823 1.501 . S
C828 H829 0.961 . S
C828 H830 0.961 . S
C828 H831 0.960 . S
H829 C828 0.961 . S
H830 C828 0.961 . S
H831 C828 0.960 . S
C832 N833 1.342 . S
C832 C836 1.401 . S
C832 C837 1.499 . S
N833 Co816 1.989 . S
N833 C832 1.342 . S
N833 N834 1.388 . S
N834 Co817 1.993 . S
N834 N833 1.388 . S
N834 C835 1.346 . S
C835 N834 1.346 . S
C835 C836 1.396 . S
C835 C845 1.510 . S
C836 C832 1.401 . S
C836 C835 1.396 . S
C837 C832 1.499 . S
C837 H838 0.959 . S
C837 H839 0.960 . S
C837 H840 0.961 . S
H838 C837 0.959 . S
H839 C837 0.960 . S
H840 C837 0.961 . S
O841 Co816 1.967 . S
O841 C849 1.258 . S
O842 Co817 1.941 . S
O842 C849 1.266 . S
H843 C845 0.959 . S
H844 C845 0.961 . S
C845 C835 1.510 . S
C845 H843 0.959 . S
C845 H844 0.961 . S
C845 H846 0.960 . S
H846 C845 0.960 . S
H847 N827 0.862 . S
O848 Co816 1.920 . S
O848 C821 1.289 . S
C849 O841 1.258 . S
C849 O842 1.266 . S
Co850 O853 1.970 . S
Co850 N867 1.989 . S
Co850 O875 1.967 . S
Co850 O882 1.920 . S
Co851 O854 1.966 . S
Co851 N860 2.022 . S
Co851 N868 1.993 . S
Co851 O876 1.941 . S
C852 O853 1.258 . S
C852 O854 1.263 . S
O853 Co850 1.970 . S
O853 C852 1.258 . S
O854 Co851 1.966 . S
O854 C852 1.263 . S
C855 O856 1.235 . S
C855 O882 1.289 . S
O856 C855 1.235 . S
C857 C859 1.400 . S
C857 N860 1.351 . S
C857 C862 1.501 . S
C858 C859 1.387 . S
C858 N861 1.341 . S
C859 C857 1.400 . S
C859 C858 1.387 . S
N860 Co851 2.022 . S
N860 C857 1.351 . S
N860 N861 1.365 . S
N861 C858 1.341 . S
N861 N860 1.365 . S
N861 H881 0.862 . S
C862 C857 1.501 . S
C862 H863 0.961 . S
C862 H864 0.961 . S
C862 H865 0.960 . S
H863 C862 0.961 . S
H864 C862 0.961 . S
H865 C862 0.960 . S
C866 N867 1.342 . S
C866 C870 1.401 . S
C866 C871 1.499 . S
N867 Co850 1.989 . S
N867 C866 1.342 . S
N867 N868 1.388 . S
N868 Co851 1.993 . S
N868 N867 1.388 . S
N868 C869 1.346 . S
C869 N868 1.346 . S
C869 C870 1.396 . S
C869 C879 1.510 . S
C870 C866 1.401 . S
C870 C869 1.396 . S
C871 C866 1.499 . S
C871 H872 0.959 . S
C871 H873 0.960 . S
C871 H874 0.961 . S
H872 C871 0.959 . S
H873 C871 0.960 . S
H874 C871 0.961 . S
O875 Co850 1.967 . S
O875 C883 1.258 . S
O876 Co851 1.941 . S
O876 C883 1.266 . S
H877 C879 0.959 . S
H878 C879 0.961 . S
C879 C869 1.510 . S
C879 H877 0.959 . S
C879 H878 0.961 . S
C879 H880 0.960 . S
H880 C879 0.960 . S
H881 N861 0.862 . S
O882 Co850 1.920 . S
O882 C855 1.289 . S
C883 O875 1.258 . S
C883 O876 1.266 . S
Co884 O887 1.970 . S
Co884 N901 1.989 . S
Co884 O909 1.967 . S
Co884 O916 1.920 . S
Co885 O888 1.966 . S
Co885 N894 2.022 . S
Co885 N902 1.993 . S
Co885 O910 1.941 . S
C886 O887 1.258 . S
C886 O888 1.263 . S
O887 Co884 1.970 . S
O887 C886 1.258 . S
O888 Co885 1.966 . S
O888 C886 1.263 . S
C889 O890 1.235 . S
C889 O916 1.289 . S
O890 C889 1.235 . S
C891 C893 1.400 . S
C891 N894 1.351 . S
C891 C896 1.501 . S
C892 C893 1.387 . S
C892 N895 1.341 . S
C893 C891 1.400 . S
C893 C892 1.387 . S
N894 Co885 2.022 . S
N894 C891 1.351 . S
N894 N895 1.365 . S
N895 C892 1.341 . S
N895 N894 1.365 . S
N895 H915 0.862 . S
C896 C891 1.501 . S
C896 H897 0.961 . S
C896 H898 0.961 . S
C896 H899 0.960 . S
H897 C896 0.961 . S
H898 C896 0.961 . S
H899 C896 0.960 . S
C900 N901 1.342 . S
C900 C904 1.401 . S
C900 C905 1.499 . S
N901 Co884 1.989 . S
N901 C900 1.342 . S
N901 N902 1.388 . S
N902 Co885 1.993 . S
N902 N901 1.388 . S
N902 C903 1.346 . S
C903 N902 1.346 . S
C903 C904 1.396 . S
C903 C913 1.510 . S
C904 C900 1.401 . S
C904 C903 1.396 . S
C905 C900 1.499 . S
C905 H906 0.959 . S
C905 H907 0.960 . S
C905 H908 0.961 . S
H906 C905 0.959 . S
H907 C905 0.960 . S
H908 C905 0.961 . S
O909 Co884 1.967 . S
O909 C917 1.258 . S
O910 Co885 1.941 . S
O910 C917 1.266 . S
H911 C913 0.959 . S
H912 C913 0.961 . S
C913 C903 1.510 . S
C913 H911 0.959 . S
C913 H912 0.961 . S
C913 H914 0.960 . S
H914 C913 0.960 . S
H915 N895 0.862 . S
O916 Co884 1.920 . S
O916 C889 1.289 . S
C917 O909 1.258 . S
C917 O910 1.266 . S
Co918 O921 1.970 . S
Co918 N935 1.989 . S
Co918 O943 1.967 . S
Co918 O950 1.920 . S
Co919 O922 1.966 . S
Co919 N928 2.022 . S
Co919 N936 1.993 . S
Co919 O944 1.941 . S
C920 O921 1.258 . S
C920 O922 1.263 . S
O921 Co918 1.970 . S
O921 C920 1.258 . S
O922 Co919 1.966 . S
O922 C920 1.263 . S
C923 O924 1.235 . S
C923 O950 1.289 . S
O924 C923 1.235 . S
C925 C927 1.400 . S
C925 N928 1.351 . S
C925 C930 1.501 . S
C926 C927 1.387 . S
C926 N929 1.341 . S
C927 C925 1.400 . S
C927 C926 1.387 . S
N928 Co919 2.022 . S
N928 C925 1.351 . S
N928 N929 1.365 . S
N929 C926 1.341 . S
N929 N928 1.365 . S
N929 H949 0.862 . S
C930 C925 1.501 . S
C930 H931 0.961 . S
C930 H932 0.961 . S
C930 H933 0.960 . S
H931 C930 0.961 . S
H932 C930 0.961 . S
H933 C930 0.960 . S
C934 N935 1.342 . S
C934 C938 1.401 . S
C934 C939 1.499 . S
N935 Co918 1.989 . S
N935 C934 1.342 . S
N935 N936 1.388 . S
N936 Co919 1.993 . S
N936 N935 1.388 . S
N936 C937 1.346 . S
C937 N936 1.346 . S
C937 C938 1.396 . S
C937 C947 1.510 . S
C938 C934 1.401 . S
C938 C937 1.396 . S
C939 C934 1.499 . S
C939 H940 0.959 . S
C939 H941 0.960 . S
C939 H942 0.961 . S
H940 C939 0.959 . S
H941 C939 0.960 . S
H942 C939 0.961 . S
O943 Co918 1.967 . S
O943 C951 1.258 . S
O944 Co919 1.941 . S
O944 C951 1.266 . S
H945 C947 0.959 . S
H946 C947 0.961 . S
C947 C937 1.510 . S
C947 H945 0.959 . S
C947 H946 0.961 . S
C947 H948 0.960 . S
H948 C947 0.960 . S
H949 N929 0.862 . S
O950 Co918 1.920 . S
O950 C923 1.289 . S
C951 O943 1.258 . S
C951 O944 1.266 . S
Co952 O955 1.970 . S
Co952 N969 1.989 . S
Co952 O977 1.967 . S
Co952 O984 1.920 . S
Co953 O956 1.966 . S
Co953 N962 2.022 . S
Co953 N970 1.993 . S
Co953 O978 1.941 . S
C954 O955 1.258 . S
C954 O956 1.263 . S
O955 Co952 1.970 . S
O955 C954 1.258 . S
O956 Co953 1.966 . S
O956 C954 1.263 . S
C957 O958 1.235 . S
C957 O984 1.289 . S
O958 C957 1.235 . S
C959 C961 1.400 . S
C959 N962 1.351 . S
C959 C964 1.501 . S
C960 C961 1.387 . S
C960 N963 1.341 . S
C961 C959 1.400 . S
C961 C960 1.387 . S
N962 Co953 2.022 . S
N962 C959 1.351 . S
N962 N963 1.365 . S
N963 C960 1.341 . S
N963 N962 1.365 . S
N963 H983 0.862 . S
C964 C959 1.501 . S
C964 H965 0.961 . S
C964 H966 0.961 . S
C964 H967 0.960 . S
H965 C964 0.961 . S
H966 C964 0.961 . S
H967 C964 0.960 . S
C968 N969 1.342 . S
C968 C972 1.401 . S
C968 C973 1.499 . S
N969 Co952 1.989 . S
N969 C968 1.342 . S
N969 N970 1.388 . S
N970 Co953 1.993 . S
N970 N969 1.388 . S
N970 C971 1.346 . S
C971 N970 1.346 . S
C971 C972 1.396 . S
C971 C981 1.510 . S
C972 C968 1.401 . S
C972 C971 1.396 . S
C973 C968 1.499 . S
C973 H974 0.959 . S
C973 H975 0.960 . S
C973 H976 0.961 . S
H974 C973 0.959 . S
H975 C973 0.960 . S
H976 C973 0.961 . S
O977 Co952 1.967 . S
O977 C985 1.258 . S
O978 Co953 1.941 . S
O978 C985 1.266 . S
H979 C981 0.959 . S
H980 C981 0.961 . S
C981 C971 1.510 . S
C981 H979 0.959 . S
C981 H980 0.961 . S
C981 H982 0.960 . S
H982 C981 0.960 . S
H983 N963 0.862 . S
O984 Co952 1.920 . S
O984 C957 1.289 . S
C985 O977 1.258 . S
C985 O978 1.266 . S
Co986 O989 1.970 . S
Co986 N1003 1.989 . S
Co986 O1011 1.967 . S
Co986 O1018 1.920 . S
Co987 O990 1.966 . S
Co987 N996 2.022 . S
Co987 N1004 1.993 . S
Co987 O1012 1.941 . S
C988 O989 1.258 . S
C988 O990 1.263 . S
O989 Co986 1.970 . S
O989 C988 1.258 . S
O990 Co987 1.966 . S
O990 C988 1.263 . S
C991 O992 1.235 . S
C991 O1018 1.289 . S
O992 C991 1.235 . S
C993 C995 1.400 . S
C993 N996 1.351 . S
C993 C998 1.501 . S
C994 C995 1.387 . S
C994 N997 1.341 . S
C995 C993 1.400 . S
C995 C994 1.387 . S
N996 Co987 2.022 . S
N996 C993 1.351 . S
N996 N997 1.365 . S
N997 C994 1.341 . S
N997 N996 1.365 . S
N997 H1017 0.862 . S
C998 C993 1.501 . S
C998 H999 0.961 . S
C998 H1000 0.961 . S
C998 H1001 0.960 . S
H999 C998 0.961 . S
H1000 C998 0.961 . S
H1001 C998 0.960 . S
C1002 N1003 1.342 . S
C1002 C1006 1.401 . S
C1002 C1007 1.499 . S
N1003 Co986 1.989 . S
N1003 C1002 1.342 . S
N1003 N1004 1.388 . S
N1004 Co987 1.993 . S
N1004 N1003 1.388 . S
N1004 C1005 1.346 . S
C1005 N1004 1.346 . S
C1005 C1006 1.396 . S
C1005 C1015 1.510 . S
C1006 C1002 1.401 . S
C1006 C1005 1.396 . S
C1007 C1002 1.499 . S
C1007 H1008 0.959 . S
C1007 H1009 0.960 . S
C1007 H1010 0.961 . S
H1008 C1007 0.959 . S
H1009 C1007 0.960 . S
H1010 C1007 0.961 . S
O1011 Co986 1.967 . S
O1011 C1019 1.258 . S
O1012 Co987 1.941 . S
O1012 C1019 1.266 . S
H1013 C1015 0.959 . S
H1014 C1015 0.961 . S
C1015 C1005 1.510 . S
C1015 H1013 0.959 . S
C1015 H1014 0.961 . S
C1015 H1016 0.960 . S
H1016 C1015 0.960 . S
H1017 N997 0.862 . S
O1018 Co986 1.920 . S
O1018 C991 1.289 . S
C1019 O1011 1.258 . S
C1019 O1012 1.266 . S
Co1020 O1023 1.970 . S
Co1020 N1037 1.989 . S
Co1020 O1045 1.967 . S
Co1020 O1052 1.920 . S
Co1021 O1024 1.966 . S
Co1021 N1030 2.022 . S
Co1021 N1038 1.993 . S
Co1021 O1046 1.941 . S
C1022 O1023 1.258 . S
C1022 O1024 1.263 . S
O1023 Co1020 1.970 . S
O1023 C1022 1.258 . S
O1024 Co1021 1.966 . S
O1024 C1022 1.263 . S
C1025 O1026 1.235 . S
C1025 O1052 1.289 . S
O1026 C1025 1.235 . S
C1027 C1029 1.400 . S
C1027 N1030 1.351 . S
C1027 C1032 1.501 . S
C1028 C1029 1.387 . S
C1028 N1031 1.341 . S
C1029 C1027 1.400 . S
C1029 C1028 1.387 . S
N1030 Co1021 2.022 . S
N1030 C1027 1.351 . S
N1030 N1031 1.365 . S
N1031 C1028 1.341 . S
N1031 N1030 1.365 . S
N1031 H1051 0.862 . S
C1032 C1027 1.501 . S
C1032 H1033 0.961 . S
C1032 H1034 0.961 . S
C1032 H1035 0.960 . S
H1033 C1032 0.961 . S
H1034 C1032 0.961 . S
H1035 C1032 0.960 . S
C1036 N1037 1.342 . S
C1036 C1040 1.401 . S
C1036 C1041 1.499 . S
N1037 Co1020 1.989 . S
N1037 C1036 1.342 . S
N1037 N1038 1.388 . S
N1038 Co1021 1.993 . S
N1038 N1037 1.388 . S
N1038 C1039 1.346 . S
C1039 N1038 1.346 . S
C1039 C1040 1.396 . S
C1039 C1049 1.510 . S
C1040 C1036 1.401 . S
C1040 C1039 1.396 . S
C1041 C1036 1.499 . S
C1041 H1042 0.959 . S
C1041 H1043 0.960 . S
C1041 H1044 0.961 . S
H1042 C1041 0.959 . S
H1043 C1041 0.960 . S
H1044 C1041 0.961 . S
O1045 Co1020 1.967 . S
O1045 C1053 1.258 . S
O1046 Co1021 1.941 . S
O1046 C1053 1.266 . S
H1047 C1049 0.959 . S
H1048 C1049 0.961 . S
C1049 C1039 1.510 . S
C1049 H1047 0.959 . S
C1049 H1048 0.961 . S
C1049 H1050 0.960 . S
H1050 C1049 0.960 . S
H1051 N1031 0.862 . S
O1052 Co1020 1.920 . S
O1052 C1025 1.289 . S
C1053 O1045 1.258 . S
C1053 O1046 1.266 . S
Co1054 O1057 1.970 . S
Co1054 N1071 1.989 . S
Co1054 O1079 1.967 . S
Co1054 O1086 1.920 . S
Co1055 O1058 1.966 . S
Co1055 N1064 2.022 . S
Co1055 N1072 1.993 . S
Co1055 O1080 1.941 . S
C1056 O1057 1.258 . S
C1056 O1058 1.263 . S
O1057 Co1054 1.970 . S
O1057 C1056 1.258 . S
O1058 Co1055 1.966 . S
O1058 C1056 1.263 . S
C1059 O1060 1.235 . S
C1059 O1086 1.289 . S
O1060 C1059 1.235 . S
C1061 C1063 1.400 . S
C1061 N1064 1.351 . S
C1061 C1066 1.501 . S
C1062 C1063 1.387 . S
C1062 N1065 1.341 . S
C1063 C1061 1.400 . S
C1063 C1062 1.387 . S
N1064 Co1055 2.022 . S
N1064 C1061 1.351 . S
N1064 N1065 1.365 . S
N1065 C1062 1.341 . S
N1065 N1064 1.365 . S
N1065 H1085 0.862 . S
C1066 C1061 1.501 . S
C1066 H1067 0.961 . S
C1066 H1068 0.961 . S
C1066 H1069 0.960 . S
H1067 C1066 0.961 . S
H1068 C1066 0.961 . S
H1069 C1066 0.960 . S
C1070 N1071 1.342 . S
C1070 C1074 1.401 . S
C1070 C1075 1.499 . S
N1071 Co1054 1.989 . S
N1071 C1070 1.342 . S
N1071 N1072 1.388 . S
N1072 Co1055 1.993 . S
N1072 N1071 1.388 . S
N1072 C1073 1.346 . S
C1073 N1072 1.346 . S
C1073 C1074 1.396 . S
C1073 C1083 1.510 . S
C1074 C1070 1.401 . S
C1074 C1073 1.396 . S
C1075 C1070 1.499 . S
C1075 H1076 0.959 . S
C1075 H1077 0.960 . S
C1075 H1078 0.961 . S
H1076 C1075 0.959 . S
H1077 C1075 0.960 . S
H1078 C1075 0.961 . S
O1079 Co1054 1.967 . S
O1079 C1087 1.258 . S
O1080 Co1055 1.941 . S
O1080 C1087 1.266 . S
H1081 C1083 0.959 . S
H1082 C1083 0.961 . S
C1083 C1073 1.510 . S
C1083 H1081 0.959 . S
C1083 H1082 0.961 . S
C1083 H1084 0.960 . S
H1084 C1083 0.960 . S
H1085 N1065 0.862 . S
O1086 Co1054 1.920 . S
O1086 C1059 1.289 . S
C1087 O1079 1.258 . S
C1087 O1080 1.266 . S
C1088 C1089 1.349 . S
C1088 C1090 1.327 . S
C1088 H1113 0.950 . S
C1089 C1088 1.349 . S
C1089 C1105 1.349 . S
C1090 C1088 1.327 . S
C1090 C1109 1.429 . S
C1090 H1114 0.950 . S
C1091 C1108 1.574 . S
C1091 C1110 1.368 . S
C1091 H1115 0.949 . S
H1092 C1096 0.949 . S
C1093 C1094 1.349 . S
C1093 C1095 1.327 . S
C1093 H1116 0.950 . S
C1094 C1093 1.349 . S
C1094 C1106 1.349 . S
C1095 C1093 1.327 . S
C1095 C1111 1.429 . S
C1095 H1117 0.950 . S
C1096 H1092 0.949 . S
C1096 C1104 1.574 . S
C1096 C1112 1.368 . S
H1097 C1105 0.950 . S
H1098 C1103 0.950 . S
H1099 C1104 0.949 . S
H1100 C1106 0.950 . S
H1101 C1107 0.950 . S
H1102 C1108 0.949 . S
C1103 H1098 0.950 . S
C1103 C1105 1.327 . S
C1103 C1109 1.429 . S
C1104 C1096 1.574 . S
C1104 H1099 0.949 . S
C1104 C1110 1.368 . S
C1105 C1089 1.349 . S
C1105 H1097 0.950 . S
C1105 C1103 1.327 . S
C1106 C1094 1.349 . S
C1106 H1100 0.950 . S
C1106 C1107 1.327 . S
C1107 H1101 0.950 . S
C1107 C1106 1.327 . S
C1107 C1111 1.429 . S
C1108 C1091 1.574 . S
C1108 H1102 0.949 . S
C1108 C1112 1.368 . S
C1109 C1090 1.429 . S
C1109 C1103 1.429 . S
C1109 C1110 1.523 . S
C1110 C1091 1.368 . S
C1110 C1104 1.368 . S
C1110 C1109 1.523 . S
C1111 C1095 1.429 . S
C1111 C1107 1.429 . S
C1111 C1112 1.523 . S
C1112 C1096 1.368 . S
C1112 C1108 1.368 . S
C1112 C1111 1.523 . S
H1113 C1088 0.950 . S
H1114 C1090 0.950 . S
H1115 C1091 0.949 . S
H1116 C1093 0.950 . S
H1117 C1095 0.950 . S
C1118 C1119 1.349 . S
C1118 C1120 1.327 . S
C1118 H1143 0.950 . S
C1119 C1118 1.349 . S
C1119 C1135 1.349 . S
C1120 C1118 1.327 . S
C1120 C1139 1.429 . S
C1120 H1144 0.950 . S
C1121 C1138 1.574 . S
C1121 C1140 1.368 1_655 S
C1121 H1145 0.949 . S
H1122 C1126 0.949 . S
C1123 C1124 1.349 . S
C1123 C1125 1.327 . S
C1123 H1146 0.950 . S
C1124 C1123 1.349 . S
C1124 C1136 1.349 . S
C1125 C1123 1.327 . S
C1125 C1141 1.429 . S
C1125 H1147 0.950 . S
C1126 H1122 0.949 . S
C1126 C1134 1.574 . S
C1126 C1142 1.368 1_455 S
H1127 C1135 0.950 . S
H1128 C1133 0.950 . S
H1129 C1134 0.949 . S
H1130 C1136 0.950 . S
H1131 C1137 0.950 . S
H1132 C1138 0.949 . S
C1133 H1128 0.950 . S
C1133 C1135 1.327 . S
C1133 C1139 1.429 . S
C1134 C1126 1.574 . S
C1134 H1129 0.949 . S
C1134 C1140 1.368 . S
C1135 C1119 1.349 . S
C1135 H1127 0.950 . S
C1135 C1133 1.327 . S
C1136 C1124 1.349 . S
C1136 H1130 0.950 . S
C1136 C1137 1.327 . S
C1137 H1131 0.950 . S
C1137 C1136 1.327 . S
C1137 C1141 1.429 . S
C1138 C1121 1.574 . S
C1138 H1132 0.949 . S
C1138 C1142 1.368 . S
C1139 C1120 1.429 . S
C1139 C1133 1.429 . S
C1139 C1140 1.523 . S
C1140 C1121 1.368 1_455 S
C1140 C1134 1.368 . S
C1140 C1139 1.523 . S
C1141 C1125 1.429 . S
C1141 C1137 1.429 . S
C1141 C1142 1.523 . S
C1142 C1126 1.368 1_655 S
C1142 C1138 1.368 . S
C1142 C1141 1.523 . S
H1143 C1118 0.950 . S
H1144 C1120 0.950 . S
H1145 C1121 0.949 . S
H1146 C1123 0.950 . S
H1147 C1125 0.950 . S
C1148 C1149 1.349 . S
C1148 C1150 1.327 . S
C1148 H1173 0.950 . S
C1149 C1148 1.349 . S
C1149 C1165 1.349 . S
C1150 C1148 1.327 . S
C1150 C1169 1.429 . S
C1150 H1174 0.950 . S
C1151 C1168 1.574 1_455 S
C1151 C1170 1.368 . S
C1151 H1175 0.949 . S
H1152 C1156 0.949 . S
C1153 C1154 1.349 . S
C1153 C1155 1.327 . S
C1153 H1176 0.950 . S
C1154 C1153 1.349 . S
C1154 C1166 1.349 . S
C1155 C1153 1.327 . S
C1155 C1171 1.429 . S
C1155 H1177 0.950 . S
C1156 H1152 0.949 . S
C1156 C1164 1.574 1_655 S
C1156 C1172 1.368 . S
H1157 C1165 0.950 . S
H1158 C1163 0.950 . S
H1159 C1164 0.949 . S
H1160 C1166 0.950 . S
H1161 C1167 0.950 . S
H1162 C1168 0.949 . S
C1163 H1158 0.950 . S
C1163 C1165 1.327 . S
C1163 C1169 1.429 . S
C1164 C1156 1.574 1_455 S
C1164 H1159 0.949 . S
C1164 C1170 1.368 . S
C1165 C1149 1.349 . S
C1165 H1157 0.950 . S
C1165 C1163 1.327 . S
C1166 C1154 1.349 . S
C1166 H1160 0.950 . S
C1166 C1167 1.327 . S
C1167 H1161 0.950 . S
C1167 C1166 1.327 . S
C1167 C1171 1.429 . S
C1168 C1151 1.574 1_655 S
C1168 H1162 0.949 . S
C1168 C1172 1.368 . S
C1169 C1150 1.429 . S
C1169 C1163 1.429 . S
C1169 C1170 1.523 . S
C1170 C1151 1.368 . S
C1170 C1164 1.368 . S
C1170 C1169 1.523 . S
C1171 C1155 1.429 . S
C1171 C1167 1.429 . S
C1171 C1172 1.523 . S
C1172 C1156 1.368 . S
C1172 C1168 1.368 . S
C1172 C1171 1.523 . S
H1173 C1148 0.950 . S
H1174 C1150 0.950 . S
H1175 C1151 0.949 . S
H1176 C1153 0.950 . S
H1177 C1155 0.950 . S
C1178 C1179 1.349 . S
C1178 C1180 1.327 . S
C1178 H1203 0.950 . S
C1179 C1178 1.349 . S
C1179 C1195 1.349 . S
C1180 C1178 1.327 . S
C1180 C1199 1.429 . S
C1180 H1204 0.950 . S
C1181 C1198 1.574 . S
C1181 C1200 1.368 . S
C1181 H1205 0.949 . S
H1182 C1186 0.949 . S
C1183 C1184 1.349 . S
C1183 C1185 1.327 . S
C1183 H1206 0.950 . S
C1184 C1183 1.349 . S
C1184 C1196 1.349 . S
C1185 C1183 1.327 . S
C1185 C1201 1.429 . S
C1185 H1207 0.950 . S
C1186 H1182 0.949 . S
C1186 C1194 1.574 . S
C1186 C1202 1.368 . S
H1187 C1195 0.950 . S
H1188 C1193 0.950 . S
H1189 C1194 0.949 . S
H1190 C1196 0.950 . S
H1191 C1197 0.950 . S
H1192 C1198 0.949 . S
C1193 H1188 0.950 . S
C1193 C1195 1.327 . S
C1193 C1199 1.429 . S
C1194 C1186 1.574 . S
C1194 H1189 0.949 . S
C1194 C1200 1.368 . S
C1195 C1179 1.349 . S
C1195 H1187 0.950 . S
C1195 C1193 1.327 . S
C1196 C1184 1.349 . S
C1196 H1190 0.950 . S
C1196 C1197 1.327 . S
C1197 H1191 0.950 . S
C1197 C1196 1.327 . S
C1197 C1201 1.429 . S
C1198 C1181 1.574 . S
C1198 H1192 0.949 . S
C1198 C1202 1.368 . S
C1199 C1180 1.429 . S
C1199 C1193 1.429 . S
C1199 C1200 1.523 . S
C1200 C1181 1.368 . S
C1200 C1194 1.368 . S
C1200 C1199 1.523 . S
C1201 C1185 1.429 . S
C1201 C1197 1.429 . S
C1201 C1202 1.523 . S
C1202 C1186 1.368 . S
C1202 C1198 1.368 . S
C1202 C1201 1.523 . S
H1203 C1178 0.950 . S
H1204 C1180 0.950 . S
H1205 C1181 0.949 . S
H1206 C1183 0.950 . S
H1207 C1185 0.950 . S
C1208 C1209 1.349 . S
C1208 C1210 1.327 . S
C1208 H1233 0.950 . S
C1209 C1208 1.349 . S
C1209 C1225 1.349 . S
C1210 C1208 1.327 . S
C1210 C1229 1.429 . S
C1210 H1234 0.950 . S
C1211 C1228 1.574 . S
C1211 C1230 1.368 . S
C1211 H1235 0.949 . S
H1212 C1216 0.949 . S
C1213 C1214 1.349 . S
C1213 C1215 1.327 . S
C1213 H1236 0.950 . S
C1214 C1213 1.349 . S
C1214 C1226 1.349 . S
C1215 C1213 1.327 . S
C1215 C1231 1.429 . S
C1215 H1237 0.950 . S
C1216 H1212 0.949 . S
C1216 C1224 1.574 . S
C1216 C1232 1.368 . S
H1217 C1225 0.950 . S
H1218 C1223 0.950 . S
H1219 C1224 0.949 . S
H1220 C1226 0.950 . S
H1221 C1227 0.950 . S
H1222 C1228 0.949 . S
C1223 H1218 0.950 . S
C1223 C1225 1.327 . S
C1223 C1229 1.429 . S
C1224 C1216 1.574 . S
C1224 H1219 0.949 . S
C1224 C1230 1.368 . S
C1225 C1209 1.349 . S
C1225 H1217 0.950 . S
C1225 C1223 1.327 . S
C1226 C1214 1.349 . S
C1226 H1220 0.950 . S
C1226 C1227 1.327 . S
C1227 H1221 0.950 . S
C1227 C1226 1.327 . S
C1227 C1231 1.429 . S
C1228 C1211 1.574 . S
C1228 H1222 0.949 . S
C1228 C1232 1.368 . S
C1229 C1210 1.429 . S
C1229 C1223 1.429 . S
C1229 C1230 1.523 . S
C1230 C1211 1.368 . S
C1230 C1224 1.368 . S
C1230 C1229 1.523 . S
C1231 C1215 1.429 . S
C1231 C1227 1.429 . S
C1231 C1232 1.523 . S
C1232 C1216 1.368 . S
C1232 C1228 1.368 . S
C1232 C1231 1.523 . S
H1233 C1208 0.950 . S
H1234 C1210 0.950 . S
H1235 C1211 0.949 . S
H1236 C1213 0.950 . S
H1237 C1215 0.950 . S
C1238 C1239 1.349 . S
C1238 C1240 1.327 . S
C1238 H1263 0.950 . S
C1239 C1238 1.349 . S
C1239 C1255 1.349 . S
C1240 C1238 1.327 . S
C1240 C1259 1.429 . S
C1240 H1264 0.950 . S
C1241 C1258 1.574 . S
C1241 C1260 1.368 . S
C1241 H1265 0.949 . S
H1242 C1246 0.949 . S
C1243 C1244 1.349 . S
C1243 C1245 1.327 . S
C1243 H1266 0.950 . S
C1244 C1243 1.349 . S
C1244 C1256 1.349 . S
C1245 C1243 1.327 . S
C1245 C1261 1.429 . S
C1245 H1267 0.950 . S
C1246 H1242 0.949 . S
C1246 C1254 1.574 . S
C1246 C1262 1.368 . S
H1247 C1255 0.950 . S
H1248 C1253 0.950 . S
H1249 C1254 0.949 . S
H1250 C1256 0.950 . S
H1251 C1257 0.950 . S
H1252 C1258 0.949 . S
C1253 H1248 0.950 . S
C1253 C1255 1.327 . S
C1253 C1259 1.429 . S
C1254 C1246 1.574 . S
C1254 H1249 0.949 . S
C1254 C1260 1.368 . S
C1255 C1239 1.349 . S
C1255 H1247 0.950 . S
C1255 C1253 1.327 . S
C1256 C1244 1.349 . S
C1256 H1250 0.950 . S
C1256 C1257 1.327 . S
C1257 H1251 0.950 . S
C1257 C1256 1.327 . S
C1257 C1261 1.429 . S
C1258 C1241 1.574 . S
C1258 H1252 0.949 . S
C1258 C1262 1.368 . S
C1259 C1240 1.429 . S
C1259 C1253 1.429 . S
C1259 C1260 1.523 . S
C1260 C1241 1.368 . S
C1260 C1254 1.368 . S
C1260 C1259 1.523 . S
C1261 C1245 1.429 . S
C1261 C1257 1.429 . S
C1261 C1262 1.523 . S
C1262 C1246 1.368 . S
C1262 C1258 1.368 . S
C1262 C1261 1.523 . S
H1263 C1238 0.950 . S
H1264 C1240 0.950 . S
H1265 C1241 0.949 . S
H1266 C1243 0.950 . S
H1267 C1245 0.950 . S
C1268 C1269 1.349 . S
C1268 C1270 1.327 . S
C1268 H1293 0.950 . S
C1269 C1268 1.349 . S
C1269 C1285 1.349 . S
C1270 C1268 1.327 . S
C1270 C1289 1.429 . S
C1270 H1294 0.950 . S
C1271 C1288 1.574 1_455 S
C1271 C1290 1.368 . S
C1271 H1295 0.949 . S
H1272 C1276 0.949 . S
C1273 C1274 1.349 . S
C1273 C1275 1.327 . S
C1273 H1296 0.950 . S
C1274 C1273 1.349 . S
C1274 C1286 1.349 . S
C1275 C1273 1.327 . S
C1275 C1291 1.429 . S
C1275 H1297 0.950 . S
C1276 H1272 0.949 . S
C1276 C1284 1.574 1_655 S
C1276 C1292 1.368 . S
H1277 C1285 0.950 . S
H1278 C1283 0.950 . S
H1279 C1284 0.949 . S
H1280 C1286 0.950 . S
H1281 C1287 0.950 . S
H1282 C1288 0.949 . S
C1283 H1278 0.950 . S
C1283 C1285 1.327 . S
C1283 C1289 1.429 . S
C1284 C1276 1.574 1_455 S
C1284 H1279 0.949 . S
C1284 C1290 1.368 . S
C1285 C1269 1.349 . S
C1285 H1277 0.950 . S
C1285 C1283 1.327 . S
C1286 C1274 1.349 . S
C1286 H1280 0.950 . S
C1286 C1287 1.327 . S
C1287 H1281 0.950 . S
C1287 C1286 1.327 . S
C1287 C1291 1.429 . S
C1288 C1271 1.574 1_655 S
C1288 H1282 0.949 . S
C1288 C1292 1.368 . S
C1289 C1270 1.429 . S
C1289 C1283 1.429 . S
C1289 C1290 1.523 . S
C1290 C1271 1.368 . S
C1290 C1284 1.368 . S
C1290 C1289 1.523 . S
C1291 C1275 1.429 . S
C1291 C1287 1.429 . S
C1291 C1292 1.523 . S
C1292 C1276 1.368 . S
C1292 C1288 1.368 . S
C1292 C1291 1.523 . S
H1293 C1268 0.950 . S
H1294 C1270 0.950 . S
H1295 C1271 0.949 . S
H1296 C1273 0.950 . S
H1297 C1275 0.950 . S
C1298 C1299 1.349 . S
C1298 C1300 1.327 . S
C1298 H1323 0.950 . S
C1299 C1298 1.349 . S
C1299 C1315 1.349 . S
C1300 C1298 1.327 . S
C1300 C1319 1.429 . S
C1300 H1324 0.950 . S
C1301 C1318 1.574 . S
C1301 C1320 1.368 . S
C1301 H1325 0.949 . S
H1302 C1306 0.949 . S
C1303 C1304 1.349 . S
C1303 C1305 1.327 . S
C1303 H1326 0.950 . S
C1304 C1303 1.349 . S
C1304 C1316 1.349 . S
C1305 C1303 1.327 . S
C1305 C1321 1.429 . S
C1305 H1327 0.950 . S
C1306 H1302 0.949 . S
C1306 C1314 1.574 . S
C1306 C1322 1.368 . S
H1307 C1315 0.950 . S
H1308 C1313 0.950 . S
H1309 C1314 0.949 . S
H1310 C1316 0.950 . S
H1311 C1317 0.950 . S
H1312 C1318 0.949 . S
C1313 H1308 0.950 . S
C1313 C1315 1.327 . S
C1313 C1319 1.429 . S
C1314 C1306 1.574 . S
C1314 H1309 0.949 . S
C1314 C1320 1.368 1_655 S
C1315 C1299 1.349 . S
C1315 H1307 0.950 . S
C1315 C1313 1.327 . S
C1316 C1304 1.349 . S
C1316 H1310 0.950 . S
C1316 C1317 1.327 . S
C1317 H1311 0.950 . S
C1317 C1316 1.327 . S
C1317 C1321 1.429 . S
C1318 C1301 1.574 . S
C1318 H1312 0.949 . S
C1318 C1322 1.368 1_455 S
C1319 C1300 1.429 . S
C1319 C1313 1.429 . S
C1319 C1320 1.523 . S
C1320 C1301 1.368 . S
C1320 C1314 1.368 1_455 S
C1320 C1319 1.523 . S
C1321 C1305 1.429 . S
C1321 C1317 1.429 . S
C1321 C1322 1.523 . S
C1322 C1306 1.368 . S
C1322 C1318 1.368 1_655 S
C1322 C1321 1.523 . S
H1323 C1298 0.950 . S
H1324 C1300 0.950 . S
H1325 C1301 0.949 . S
H1326 C1303 0.950 . S
H1327 C1305 0.950 . S
C1328 C1329 1.349 . S
C1328 C1330 1.327 . S
C1328 H1353 0.950 . S
C1329 C1328 1.349 . S
C1329 C1345 1.349 . S
C1330 C1328 1.327 . S
C1330 C1349 1.429 . S
C1330 H1354 0.950 . S
C1331 C1348 1.574 . S
C1331 C1350 1.368 . S
C1331 H1355 0.949 . S
H1332 C1336 0.949 . S
C1333 C1334 1.349 . S
C1333 C1335 1.327 . S
C1333 H1356 0.950 . S
C1334 C1333 1.349 . S
C1334 C1346 1.349 . S
C1335 C1333 1.327 . S
C1335 C1351 1.429 . S
C1335 H1357 0.950 . S
C1336 H1332 0.949 . S
C1336 C1344 1.574 . S
C1336 C1352 1.368 . S
H1337 C1345 0.950 . S
H1338 C1343 0.950 . S
H1339 C1344 0.949 . S
H1340 C1346 0.950 . S
H1341 C1347 0.950 . S
H1342 C1348 0.949 . S
C1343 H1338 0.950 . S
C1343 C1345 1.327 . S
C1343 C1349 1.429 . S
C1344 C1336 1.574 . S
C1344 H1339 0.949 . S
C1344 C1350 1.368 . S
C1345 C1329 1.349 . S
C1345 H1337 0.950 . S
C1345 C1343 1.327 . S
C1346 C1334 1.349 . S
C1346 H1340 0.950 . S
C1346 C1347 1.327 . S
C1347 H1341 0.950 . S
C1347 C1346 1.327 . S
C1347 C1351 1.429 . S
C1348 C1331 1.574 . S
C1348 H1342 0.949 . S
C1348 C1352 1.368 . S
C1349 C1330 1.429 . S
C1349 C1343 1.429 . S
C1349 C1350 1.523 . S
C1350 C1331 1.368 . S
C1350 C1344 1.368 . S
C1350 C1349 1.523 . S
C1351 C1335 1.429 . S
C1351 C1347 1.429 . S
C1351 C1352 1.523 . S
C1352 C1336 1.368 . S
C1352 C1348 1.368 . S
C1352 C1351 1.523 . S
H1353 C1328 0.950 . S
H1354 C1330 0.950 . S
H1355 C1331 0.949 . S
H1356 C1333 0.950 . S
H1357 C1335 0.950 . S
C1358 C1359 1.349 . S
C1358 C1360 1.327 . S
C1358 H1383 0.950 . S
C1359 C1358 1.349 . S
C1359 C1375 1.349 . S
C1360 C1358 1.327 . S
C1360 C1379 1.429 . S
C1360 H1384 0.950 . S
C1361 C1378 1.574 . S
C1361 C1380 1.368 . S
C1361 H1385 0.949 . S
H1362 C1366 0.949 . S
C1363 C1364 1.349 . S
C1363 C1365 1.327 . S
C1363 H1386 0.950 . S
C1364 C1363 1.349 . S
C1364 C1376 1.349 . S
C1365 C1363 1.327 . S
C1365 C1381 1.429 . S
C1365 H1387 0.950 . S
C1366 H1362 0.949 . S
C1366 C1374 1.574 . S
C1366 C1382 1.368 . S
H1367 C1375 0.950 . S
H1368 C1373 0.950 . S
H1369 C1374 0.949 . S
H1370 C1376 0.950 . S
H1371 C1377 0.950 . S
H1372 C1378 0.949 . S
C1373 H1368 0.950 . S
C1373 C1375 1.327 . S
C1373 C1379 1.429 . S
C1374 C1366 1.574 . S
C1374 H1369 0.949 . S
C1374 C1380 1.368 1_655 S
C1375 C1359 1.349 . S
C1375 H1367 0.950 . S
C1375 C1373 1.327 . S
C1376 C1364 1.349 . S
C1376 H1370 0.950 . S
C1376 C1377 1.327 . S
C1377 H1371 0.950 . S
C1377 C1376 1.327 . S
C1377 C1381 1.429 . S
C1378 C1361 1.574 . S
C1378 H1372 0.949 . S
C1378 C1382 1.368 1_455 S
C1379 C1360 1.429 . S
C1379 C1373 1.429 . S
C1379 C1380 1.523 . S
C1380 C1361 1.368 . S
C1380 C1374 1.368 1_455 S
C1380 C1379 1.523 . S
C1381 C1365 1.429 . S
C1381 C1377 1.429 . S
C1381 C1382 1.523 . S
C1382 C1366 1.368 . S
C1382 C1378 1.368 1_655 S
C1382 C1381 1.523 . S
H1383 C1358 0.950 . S
H1384 C1360 0.950 . S
H1385 C1361 0.949 . S
H1386 C1363 0.950 . S
H1387 C1365 0.950 . S
C1388 C1389 1.349 . S
C1388 C1390 1.327 . S
C1388 H1413 0.950 . S
C1389 C1388 1.349 . S
C1389 C1405 1.349 . S
C1390 C1388 1.327 . S
C1390 C1409 1.429 . S
C1390 H1414 0.950 . S
C1391 C1408 1.574 1_655 S
C1391 C1410 1.368 . S
C1391 H1415 0.949 . S
H1392 C1396 0.949 . S
C1393 C1394 1.349 . S
C1393 C1395 1.327 . S
C1393 H1416 0.950 . S
C1394 C1393 1.349 . S
C1394 C1406 1.349 . S
C1395 C1393 1.327 . S
C1395 C1411 1.429 . S
C1395 H1417 0.950 . S
C1396 H1392 0.949 . S
C1396 C1404 1.574 1_455 S
C1396 C1412 1.368 . S
H1397 C1405 0.950 . S
H1398 C1403 0.950 . S
H1399 C1404 0.949 . S
H1400 C1406 0.950 . S
H1401 C1407 0.950 . S
H1402 C1408 0.949 . S
C1403 H1398 0.950 . S
C1403 C1405 1.327 . S
C1403 C1409 1.429 . S
C1404 C1396 1.574 1_655 S
C1404 H1399 0.949 . S
C1404 C1410 1.368 . S
C1405 C1389 1.349 . S
C1405 H1397 0.950 . S
C1405 C1403 1.327 . S
C1406 C1394 1.349 . S
C1406 H1400 0.950 . S
C1406 C1407 1.327 . S
C1407 H1401 0.950 . S
C1407 C1406 1.327 . S
C1407 C1411 1.429 . S
C1408 C1391 1.574 1_455 S
C1408 H1402 0.949 . S
C1408 C1412 1.368 . S
C1409 C1390 1.429 . S
C1409 C1403 1.429 . S
C1409 C1410 1.523 . S
C1410 C1391 1.368 . S
C1410 C1404 1.368 . S
C1410 C1409 1.523 . S
C1411 C1395 1.429 . S
C1411 C1407 1.429 . S
C1411 C1412 1.523 . S
C1412 C1396 1.368 . S
C1412 C1408 1.368 . S
C1412 C1411 1.523 . S
H1413 C1388 0.950 . S
H1414 C1390 0.950 . S
H1415 C1391 0.949 . S
H1416 C1393 0.950 . S
H1417 C1395 0.950 . S
C1418 C1419 1.349 . S
C1418 C1420 1.327 . S
C1418 H1443 0.950 . S
C1419 C1418 1.349 . S
C1419 C1435 1.349 . S
C1420 C1418 1.327 . S
C1420 C1439 1.429 . S
C1420 H1444 0.950 . S
C1421 C1438 1.574 . S
C1421 C1440 1.368 . S
C1421 H1445 0.949 . S
H1422 C1426 0.949 . S
C1423 C1424 1.349 . S
C1423 C1425 1.327 . S
C1423 H1446 0.950 . S
C1424 C1423 1.349 . S
C1424 C1436 1.349 . S
C1425 C1423 1.327 . S
C1425 C1441 1.429 . S
C1425 H1447 0.950 . S
C1426 H1422 0.949 . S
C1426 C1434 1.574 . S
C1426 C1442 1.368 . S
H1427 C1435 0.950 . S
H1428 C1433 0.950 . S
H1429 C1434 0.949 . S
H1430 C1436 0.950 . S
H1431 C1437 0.950 . S
H1432 C1438 0.949 . S
C1433 H1428 0.950 . S
C1433 C1435 1.327 . S
C1433 C1439 1.429 . S
C1434 C1426 1.574 . S
C1434 H1429 0.949 . S
C1434 C1440 1.368 . S
C1435 C1419 1.349 . S
C1435 H1427 0.950 . S
C1435 C1433 1.327 . S
C1436 C1424 1.349 . S
C1436 H1430 0.950 . S
C1436 C1437 1.327 . S
C1437 H1431 0.950 . S
C1437 C1436 1.327 . S
C1437 C1441 1.429 . S
C1438 C1421 1.574 . S
C1438 H1432 0.949 . S
C1438 C1442 1.368 . S
C1439 C1420 1.429 . S
C1439 C1433 1.429 . S
C1439 C1440 1.523 . S
C1440 C1421 1.368 . S
C1440 C1434 1.368 . S
C1440 C1439 1.523 . S
C1441 C1425 1.429 . S
C1441 C1437 1.429 . S
C1441 C1442 1.523 . S
C1442 C1426 1.368 . S
C1442 C1438 1.368 . S
C1442 C1441 1.523 . S
H1443 C1418 0.950 . S
H1444 C1420 0.950 . S
H1445 C1421 0.949 . S
H1446 C1423 0.950 . S
H1447 C1425 0.950 . S
C1448 C1449 1.349 . S
C1448 C1450 1.327 . S
C1448 H1473 0.950 . S
C1449 C1448 1.349 . S
C1449 C1465 1.349 . S
C1450 C1448 1.327 . S
C1450 C1469 1.429 . S
C1450 H1474 0.950 . S
C1451 C1468 1.574 . S
C1451 C1470 1.368 . S
C1451 H1475 0.949 . S
H1452 C1456 0.949 . S
C1453 C1454 1.349 . S
C1453 C1455 1.327 . S
C1453 H1476 0.950 . S
C1454 C1453 1.349 . S
C1454 C1466 1.349 . S
C1455 C1453 1.327 . S
C1455 C1471 1.429 . S
C1455 H1477 0.950 . S
C1456 H1452 0.949 . S
C1456 C1464 1.574 . S
C1456 C1472 1.368 . S
H1457 C1465 0.950 . S
H1458 C1463 0.950 . S
H1459 C1464 0.949 . S
H1460 C1466 0.950 . S
H1461 C1467 0.950 . S
H1462 C1468 0.949 . S
C1463 H1458 0.950 . S
C1463 C1465 1.327 . S
C1463 C1469 1.429 . S
C1464 C1456 1.574 . S
C1464 H1459 0.949 . S
C1464 C1470 1.368 . S
C1465 C1449 1.349 . S
C1465 H1457 0.950 . S
C1465 C1463 1.327 . S
C1466 C1454 1.349 . S
C1466 H1460 0.950 . S
C1466 C1467 1.327 . S
C1467 H1461 0.950 . S
C1467 C1466 1.327 . S
C1467 C1471 1.429 . S
C1468 C1451 1.574 . S
C1468 H1462 0.949 . S
C1468 C1472 1.368 . S
C1469 C1450 1.429 . S
C1469 C1463 1.429 . S
C1469 C1470 1.523 . S
C1470 C1451 1.368 . S
C1470 C1464 1.368 . S
C1470 C1469 1.523 . S
C1471 C1455 1.429 . S
C1471 C1467 1.429 . S
C1471 C1472 1.523 . S
C1472 C1456 1.368 . S
C1472 C1468 1.368 . S
C1472 C1471 1.523 . S
H1473 C1448 0.950 . S
H1474 C1450 0.950 . S
H1475 C1451 0.949 . S
H1476 C1453 0.950 . S
H1477 C1455 0.950 . S
C1478 C1479 1.349 . S
C1478 C1480 1.327 . S
C1478 H1503 0.950 . S
C1479 C1478 1.349 . S
C1479 C1495 1.349 . S
C1480 C1478 1.327 . S
C1480 C1499 1.429 . S
C1480 H1504 0.950 . S
C1481 C1498 1.574 . S
C1481 C1500 1.368 . S
C1481 H1505 0.949 . S
H1482 C1486 0.949 . S
C1483 C1484 1.349 . S
C1483 C1485 1.327 . S
C1483 H1506 0.950 . S
C1484 C1483 1.349 . S
C1484 C1496 1.349 . S
C1485 C1483 1.327 . S
C1485 C1501 1.429 . S
C1485 H1507 0.950 . S
C1486 H1482 0.949 . S
C1486 C1494 1.574 . S
C1486 C1502 1.368 . S
H1487 C1495 0.950 . S
H1488 C1493 0.950 . S
H1489 C1494 0.949 . S
H1490 C1496 0.950 . S
H1491 C1497 0.950 . S
H1492 C1498 0.949 . S
C1493 H1488 0.950 . S
C1493 C1495 1.327 . S
C1493 C1499 1.429 . S
C1494 C1486 1.574 . S
C1494 H1489 0.949 . S
C1494 C1500 1.368 . S
C1495 C1479 1.349 . S
C1495 H1487 0.950 . S
C1495 C1493 1.327 . S
C1496 C1484 1.349 . S
C1496 H1490 0.950 . S
C1496 C1497 1.327 . S
C1497 H1491 0.950 . S
C1497 C1496 1.327 . S
C1497 C1501 1.429 . S
C1498 C1481 1.574 . S
C1498 H1492 0.949 . S
C1498 C1502 1.368 . S
C1499 C1480 1.429 . S
C1499 C1493 1.429 . S
C1499 C1500 1.523 . S
C1500 C1481 1.368 . S
C1500 C1494 1.368 . S
C1500 C1499 1.523 . S
C1501 C1485 1.429 . S
C1501 C1497 1.429 . S
C1501 C1502 1.523 . S
C1502 C1486 1.368 . S
C1502 C1498 1.368 . S
C1502 C1501 1.523 . S
H1503 C1478 0.950 . S
H1504 C1480 0.950 . S
H1505 C1481 0.949 . S
H1506 C1483 0.950 . S
H1507 C1485 0.950 . S
C1508 C1509 1.349 . S
C1508 C1510 1.327 . S
C1508 H1533 0.950 . S
C1509 C1508 1.349 . S
C1509 C1525 1.349 . S
C1510 C1508 1.327 . S
C1510 C1529 1.429 . S
C1510 H1534 0.950 . S
C1511 C1528 1.574 1_455 S
C1511 C1530 1.368 . S
C1511 H1535 0.949 . S
H1512 C1516 0.949 . S
C1513 C1514 1.349 . S
C1513 C1515 1.327 . S
C1513 H1536 0.950 . S
C1514 C1513 1.349 . S
C1514 C1526 1.349 . S
C1515 C1513 1.327 . S
C1515 C1531 1.429 . S
C1515 H1537 0.950 . S
C1516 H1512 0.949 . S
C1516 C1524 1.574 1_655 S
C1516 C1532 1.368 . S
H1517 C1525 0.950 . S
H1518 C1523 0.950 . S
H1519 C1524 0.949 . S
H1520 C1526 0.950 . S
H1521 C1527 0.950 . S
H1522 C1528 0.949 . S
C1523 H1518 0.950 . S
C1523 C1525 1.327 . S
C1523 C1529 1.429 . S
C1524 C1516 1.574 1_455 S
C1524 H1519 0.949 . S
C1524 C1530 1.368 . S
C1525 C1509 1.349 . S
C1525 H1517 0.950 . S
C1525 C1523 1.327 . S
C1526 C1514 1.349 . S
C1526 H1520 0.950 . S
C1526 C1527 1.327 . S
C1527 H1521 0.950 . S
C1527 C1526 1.327 . S
C1527 C1531 1.429 . S
C1528 C1511 1.574 1_655 S
C1528 H1522 0.949 . S
C1528 C1532 1.368 . S
C1529 C1510 1.429 . S
C1529 C1523 1.429 . S
C1529 C1530 1.523 . S
C1530 C1511 1.368 . S
C1530 C1524 1.368 . S
C1530 C1529 1.523 . S
C1531 C1515 1.429 . S
C1531 C1527 1.429 . S
C1531 C1532 1.523 . S
C1532 C1516 1.368 . S
C1532 C1528 1.368 . S
C1532 C1531 1.523 . S
H1533 C1508 0.950 . S
H1534 C1510 0.950 . S
H1535 C1511 0.949 . S
H1536 C1513 0.950 . S
H1537 C1515 0.950 . S
C1538 C1539 1.349 . S
C1538 C1540 1.327 . S
C1538 H1563 0.950 . S
C1539 C1538 1.349 . S
C1539 C1555 1.349 . S
C1540 C1538 1.327 . S
C1540 C1559 1.429 . S
C1540 H1564 0.950 . S
C1541 C1558 1.574 . S
C1541 C1560 1.368 1_655 S
C1541 H1565 0.949 . S
H1542 C1546 0.949 . S
C1543 C1544 1.349 . S
C1543 C1545 1.327 . S
C1543 H1566 0.950 . S
C1544 C1543 1.349 . S
C1544 C1556 1.349 . S
C1545 C1543 1.327 . S
C1545 C1561 1.429 . S
C1545 H1567 0.950 . S
C1546 H1542 0.949 . S
C1546 C1554 1.574 . S
C1546 C1562 1.368 1_455 S
H1547 C1555 0.950 . S
H1548 C1553 0.950 . S
H1549 C1554 0.949 . S
H1550 C1556 0.950 . S
H1551 C1557 0.950 . S
H1552 C1558 0.949 . S
C1553 H1548 0.950 . S
C1553 C1555 1.327 . S
C1553 C1559 1.429 . S
C1554 C1546 1.574 . S
C1554 H1549 0.949 . S
C1554 C1560 1.368 . S
C1555 C1539 1.349 . S
C1555 H1547 0.950 . S
C1555 C1553 1.327 . S
C1556 C1544 1.349 . S
C1556 H1550 0.950 . S
C1556 C1557 1.327 . S
C1557 H1551 0.950 . S
C1557 C1556 1.327 . S
C1557 C1561 1.429 . S
C1558 C1541 1.574 . S
C1558 H1552 0.949 . S
C1558 C1562 1.368 . S
C1559 C1540 1.429 . S
C1559 C1553 1.429 . S
C1559 C1560 1.523 . S
C1560 C1541 1.368 1_455 S
C1560 C1554 1.368 . S
C1560 C1559 1.523 . S
C1561 C1545 1.429 . S
C1561 C1557 1.429 . S
C1561 C1562 1.523 . S
C1562 C1546 1.368 1_655 S
C1562 C1558 1.368 . S
C1562 C1561 1.523 . S
H1563 C1538 0.950 . S
H1564 C1540 0.950 . S
H1565 C1541 0.949 . S
H1566 C1543 0.950 . S
H1567 C1545 0.950 . S
C1568 C1569 1.349 . S
C1568 C1570 1.327 . S
C1568 H1593 0.950 . S
C1569 C1568 1.349 . S
C1569 C1585 1.349 . S
C1570 C1568 1.327 . S
C1570 C1589 1.429 . S
C1570 H1594 0.950 . S
C1571 C1588 1.574 . S
C1571 C1590 1.368 . S
C1571 H1595 0.949 . S
H1572 C1576 0.949 . S
C1573 C1574 1.349 . S
C1573 C1575 1.327 . S
C1573 H1596 0.950 . S
C1574 C1573 1.349 . S
C1574 C1586 1.349 . S
C1575 C1573 1.327 . S
C1575 C1591 1.429 . S
C1575 H1597 0.950 . S
C1576 H1572 0.949 . S
C1576 C1584 1.574 . S
C1576 C1592 1.368 . S
H1577 C1585 0.950 . S
H1578 C1583 0.950 . S
H1579 C1584 0.949 . S
H1580 C1586 0.950 . S
H1581 C1587 0.950 . S
H1582 C1588 0.949 . S
C1583 H1578 0.950 . S
C1583 C1585 1.327 . S
C1583 C1589 1.429 . S
C1584 C1576 1.574 . S
C1584 H1579 0.949 . S
C1584 C1590 1.368 . S
C1585 C1569 1.349 . S
C1585 H1577 0.950 . S
C1585 C1583 1.327 . S
C1586 C1574 1.349 . S
C1586 H1580 0.950 . S
C1586 C1587 1.327 . S
C1587 H1581 0.950 . S
C1587 C1586 1.327 . S
C1587 C1591 1.429 . S
C1588 C1571 1.574 . S
C1588 H1582 0.949 . S
C1588 C1592 1.368 . S
C1589 C1570 1.429 . S
C1589 C1583 1.429 . S
C1589 C1590 1.523 . S
C1590 C1571 1.368 . S
C1590 C1584 1.368 . S
C1590 C1589 1.523 . S
C1591 C1575 1.429 . S
C1591 C1587 1.429 . S
C1591 C1592 1.523 . S
C1592 C1576 1.368 . S
C1592 C1588 1.368 . S
C1592 C1591 1.523 . S
H1593 C1568 0.950 . S
H1594 C1570 0.950 . S
H1595 C1571 0.949 . S
H1596 C1573 0.950 . S
H1597 C1575 0.950 . S
C1598 C1599 1.349 . S
C1598 C1600 1.327 . S
C1598 H1623 0.950 . S
C1599 C1598 1.349 . S
C1599 C1615 1.349 . S
C1600 C1598 1.327 . S
C1600 C1619 1.429 . S
C1600 H1624 0.950 . S
C1601 C1618 1.574 . S
C1601 C1620 1.368 . S
C1601 H1625 0.949 . S
H1602 C1606 0.949 . S
C1603 C1604 1.349 . S
C1603 C1605 1.327 . S
C1603 H1626 0.950 . S
C1604 C1603 1.349 . S
C1604 C1616 1.349 . S
C1605 C1603 1.327 . S
C1605 C1621 1.429 . S
C1605 H1627 0.950 . S
C1606 H1602 0.949 . S
C1606 C1614 1.574 . S
C1606 C1622 1.368 . S
H1607 C1615 0.950 . S
H1608 C1613 0.950 . S
H1609 C1614 0.949 . S
H1610 C1616 0.950 . S
H1611 C1617 0.950 . S
H1612 C1618 0.949 . S
C1613 H1608 0.950 . S
C1613 C1615 1.327 . S
C1613 C1619 1.429 . S
C1614 C1606 1.574 . S
C1614 H1609 0.949 . S
C1614 C1620 1.368 . S
C1615 C1599 1.349 . S
C1615 H1607 0.950 . S
C1615 C1613 1.327 . S
C1616 C1604 1.349 . S
C1616 H1610 0.950 . S
C1616 C1617 1.327 . S
C1617 H1611 0.950 . S
C1617 C1616 1.327 . S
C1617 C1621 1.429 . S
C1618 C1601 1.574 . S
C1618 H1612 0.949 . S
C1618 C1622 1.368 . S
C1619 C1600 1.429 . S
C1619 C1613 1.429 . S
C1619 C1620 1.523 . S
C1620 C1601 1.368 . S
C1620 C1614 1.368 . S
C1620 C1619 1.523 . S
C1621 C1605 1.429 . S
C1621 C1617 1.429 . S
C1621 C1622 1.523 . S
C1622 C1606 1.368 . S
C1622 C1618 1.368 . S
C1622 C1621 1.523 . S
H1623 C1598 0.950 . S
H1624 C1600 0.950 . S
H1625 C1601 0.949 . S
H1626 C1603 0.950 . S
H1627 C1605 0.950 . S
C1628 C1629 1.349 . S
C1628 C1630 1.327 . S
C1628 H1653 0.950 . S
C1629 C1628 1.349 . S
C1629 C1645 1.349 . S
C1630 C1628 1.327 . S
C1630 C1649 1.429 . S
C1630 H1654 0.950 . S
C1631 C1648 1.574 . S
C1631 C1650 1.368 . S
C1631 H1655 0.949 . S
H1632 C1636 0.949 . S
C1633 C1634 1.349 . S
C1633 C1635 1.327 1_655 S
C1633 H1656 0.950 . S
C1634 C1633 1.349 . S
C1634 C1646 1.349 . S
C1635 C1633 1.327 1_455 S
C1635 C1651 1.429 . S
C1635 H1657 0.950 . S
C1636 H1632 0.949 . S
C1636 C1644 1.574 . S
C1636 C1652 1.368 . S
H1637 C1645 0.950 . S
H1638 C1643 0.950 . S
H1639 C1644 0.949 . S
H1640 C1646 0.950 . S
H1641 C1647 0.950 . S
H1642 C1648 0.949 . S
C1643 H1638 0.950 . S
C1643 C1645 1.327 . S
C1643 C1649 1.429 . S
C1644 C1636 1.574 . S
C1644 H1639 0.949 . S
C1644 C1650 1.368 . S
C1645 C1629 1.349 . S
C1645 H1637 0.950 . S
C1645 C1643 1.327 . S
C1646 C1634 1.349 . S
C1646 H1640 0.950 . S
C1646 C1647 1.327 . S
C1647 H1641 0.950 . S
C1647 C1646 1.327 . S
C1647 C1651 1.429 1_655 S
C1648 C1631 1.574 . S
C1648 H1642 0.949 . S
C1648 C1652 1.368 . S
C1649 C1630 1.429 . S
C1649 C1643 1.429 . S
C1649 C1650 1.523 . S
C1650 C1631 1.368 . S
C1650 C1644 1.368 . S
C1650 C1649 1.523 . S
C1651 C1635 1.429 . S
C1651 C1647 1.429 1_455 S
C1651 C1652 1.523 . S
C1652 C1636 1.368 . S
C1652 C1648 1.368 . S
C1652 C1651 1.523 . S
H1653 C1628 0.950 . S
H1654 C1630 0.950 . S
H1655 C1631 0.949 . S
H1656 C1633 0.950 . S
H1657 C1635 0.950 . S
C1658 C1659 1.349 . S
C1658 C1660 1.327 . S
C1658 H1683 0.950 . S
C1659 C1658 1.349 . S
C1659 C1675 1.349 . S
C1660 C1658 1.327 . S
C1660 C1679 1.429 . S
C1660 H1684 0.950 . S
C1661 C1678 1.574 . S
C1661 C1680 1.368 . S
C1661 H1685 0.949 . S
H1662 C1666 0.949 . S
C1663 C1664 1.349 . S
C1663 C1665 1.327 . S
C1663 H1686 0.950 . S
C1664 C1663 1.349 . S
C1664 C1676 1.349 . S
C1665 C1663 1.327 . S
C1665 C1681 1.429 . S
C1665 H1687 0.950 . S
C1666 H1662 0.949 . S
C1666 C1674 1.574 . S
C1666 C1682 1.368 . S
H1667 C1675 0.950 . S
H1668 C1673 0.950 . S
H1669 C1674 0.949 . S
H1670 C1676 0.950 . S
H1671 C1677 0.950 . S
H1672 C1678 0.949 . S
C1673 H1668 0.950 . S
C1673 C1675 1.327 . S
C1673 C1679 1.429 . S
C1674 C1666 1.574 . S
C1674 H1669 0.949 . S
C1674 C1680 1.368 . S
C1675 C1659 1.349 . S
C1675 H1667 0.950 . S
C1675 C1673 1.327 . S
C1676 C1664 1.349 . S
C1676 H1670 0.950 . S
C1676 C1677 1.327 . S
C1677 H1671 0.950 . S
C1677 C1676 1.327 . S
C1677 C1681 1.429 . S
C1678 C1661 1.574 . S
C1678 H1672 0.949 . S
C1678 C1682 1.368 . S
C1679 C1660 1.429 . S
C1679 C1673 1.429 . S
C1679 C1680 1.523 . S
C1680 C1661 1.368 . S
C1680 C1674 1.368 . S
C1680 C1679 1.523 . S
C1681 C1665 1.429 . S
C1681 C1677 1.429 . S
C1681 C1682 1.523 . S
C1682 C1666 1.368 . S
C1682 C1678 1.368 . S
C1682 C1681 1.523 . S
H1683 C1658 0.950 . S
H1684 C1660 0.950 . S
H1685 C1661 0.949 . S
H1686 C1663 0.950 . S
H1687 C1665 0.950 . S
C1688 C1689 1.349 . S
C1688 C1690 1.327 . S
C1688 H1713 0.950 . S
C1689 C1688 1.349 . S
C1689 C1705 1.349 . S
C1690 C1688 1.327 . S
C1690 C1709 1.429 . S
C1690 H1714 0.950 . S
C1691 C1708 1.574 . S
C1691 C1710 1.368 . S
C1691 H1715 0.949 . S
H1692 C1696 0.949 . S
C1693 C1694 1.349 . S
C1693 C1695 1.327 . S
C1693 H1716 0.950 . S
C1694 C1693 1.349 . S
C1694 C1706 1.349 . S
C1695 C1693 1.327 . S
C1695 C1711 1.429 . S
C1695 H1717 0.950 . S
C1696 H1692 0.949 . S
C1696 C1704 1.574 . S
C1696 C1712 1.368 . S
H1697 C1705 0.950 . S
H1698 C1703 0.950 . S
H1699 C1704 0.949 . S
H1700 C1706 0.950 . S
H1701 C1707 0.950 . S
H1702 C1708 0.949 . S
C1703 H1698 0.950 . S
C1703 C1705 1.327 . S
C1703 C1709 1.429 . S
C1704 C1696 1.574 . S
C1704 H1699 0.949 . S
C1704 C1710 1.368 . S
C1705 C1689 1.349 . S
C1705 H1697 0.950 . S
C1705 C1703 1.327 . S
C1706 C1694 1.349 . S
C1706 H1700 0.950 . S
C1706 C1707 1.327 . S
C1707 H1701 0.950 . S
C1707 C1706 1.327 . S
C1707 C1711 1.429 . S
C1708 C1691 1.574 . S
C1708 H1702 0.949 . S
C1708 C1712 1.368 . S
C1709 C1690 1.429 . S
C1709 C1703 1.429 . S
C1709 C1710 1.523 . S
C1710 C1691 1.368 . S
C1710 C1704 1.368 . S
C1710 C1709 1.523 . S
C1711 C1695 1.429 . S
C1711 C1707 1.429 . S
C1711 C1712 1.523 . S
C1712 C1696 1.368 . S
C1712 C1708 1.368 . S
C1712 C1711 1.523 . S
H1713 C1688 0.950 . S
H1714 C1690 0.950 . S
H1715 C1691 0.949 . S
H1716 C1693 0.950 . S
H1717 C1695 0.950 . S
C1718 C1719 1.349 . S
C1718 C1720 1.327 . S
C1718 H1743 0.950 . S
C1719 C1718 1.349 . S
C1719 C1735 1.349 . S
C1720 C1718 1.327 . S
C1720 C1739 1.429 . S
C1720 H1744 0.950 . S
C1721 C1738 1.574 . S
C1721 C1740 1.368 . S
C1721 H1745 0.949 . S
H1722 C1726 0.949 . S
C1723 C1724 1.349 . S
C1723 C1725 1.327 . S
C1723 H1746 0.950 . S
C1724 C1723 1.349 . S
C1724 C1736 1.349 . S
C1725 C1723 1.327 . S
C1725 C1741 1.429 . S
C1725 H1747 0.950 . S
C1726 H1722 0.949 . S
C1726 C1734 1.574 . S
C1726 C1742 1.368 . S
H1727 C1735 0.950 . S
H1728 C1733 0.950 . S
H1729 C1734 0.949 . S
H1730 C1736 0.950 . S
H1731 C1737 0.950 . S
H1732 C1738 0.949 . S
C1733 H1728 0.950 . S
C1733 C1735 1.327 . S
C1733 C1739 1.429 . S
C1734 C1726 1.574 . S
C1734 H1729 0.949 . S
C1734 C1740 1.368 . S
C1735 C1719 1.349 . S
C1735 H1727 0.950 . S
C1735 C1733 1.327 . S
C1736 C1724 1.349 . S
C1736 H1730 0.950 . S
C1736 C1737 1.327 . S
C1737 H1731 0.950 . S
C1737 C1736 1.327 . S
C1737 C1741 1.429 . S
C1738 C1721 1.574 . S
C1738 H1732 0.949 . S
C1738 C1742 1.368 . S
C1739 C1720 1.429 . S
C1739 C1733 1.429 . S
C1739 C1740 1.523 . S
C1740 C1721 1.368 . S
C1740 C1734 1.368 . S
C1740 C1739 1.523 . S
C1741 C1725 1.429 . S
C1741 C1737 1.429 . S
C1741 C1742 1.523 . S
C1742 C1726 1.368 . S
C1742 C1738 1.368 . S
C1742 C1741 1.523 . S
H1743 C1718 0.950 . S
H1744 C1720 0.950 . S
H1745 C1721 0.949 . S
H1746 C1723 0.950 . S
H1747 C1725 0.950 . S
C1748 C1749 1.349 . S
C1748 C1750 1.327 . S
C1748 H1773 0.950 . S
C1749 C1748 1.349 . S
C1749 C1765 1.349 . S
C1750 C1748 1.327 . S
C1750 C1769 1.429 1_655 S
C1750 H1774 0.950 1_655 S
C1751 C1768 1.574 . S
C1751 C1770 1.368 . S
C1751 H1775 0.949 . S
H1752 C1756 0.949 . S
C1753 C1754 1.349 . S
C1753 C1755 1.327 . S
C1753 H1776 0.950 . S
C1754 C1753 1.349 . S
C1754 C1766 1.349 . S
C1755 C1753 1.327 . S
C1755 C1771 1.429 . S
C1755 H1777 0.950 . S
C1756 H1752 0.949 . S
C1756 C1764 1.574 . S
C1756 C1772 1.368 . S
H1757 C1765 0.950 . S
H1758 C1763 0.950 . S
H1759 C1764 0.949 . S
H1760 C1766 0.950 . S
H1761 C1767 0.950 . S
H1762 C1768 0.949 . S
C1763 H1758 0.950 . S
C1763 C1765 1.327 . S
C1763 C1769 1.429 1_655 S
C1764 C1756 1.574 . S
C1764 H1759 0.949 . S
C1764 C1770 1.368 . S
C1765 C1749 1.349 . S
C1765 H1757 0.950 . S
C1765 C1763 1.327 . S
C1766 C1754 1.349 . S
C1766 H1760 0.950 . S
C1766 C1767 1.327 . S
C1767 H1761 0.950 . S
C1767 C1766 1.327 . S
C1767 C1771 1.429 . S
C1768 C1751 1.574 . S
C1768 H1762 0.949 . S
C1768 C1772 1.368 . S
C1769 C1750 1.429 1_455 S
C1769 C1763 1.429 1_455 S
C1769 C1770 1.523 . S
C1770 C1751 1.368 . S
C1770 C1764 1.368 . S
C1770 C1769 1.523 . S
C1771 C1755 1.429 . S
C1771 C1767 1.429 . S
C1771 C1772 1.523 . S
C1772 C1756 1.368 . S
C1772 C1768 1.368 . S
C1772 C1771 1.523 . S
H1773 C1748 0.950 . S
H1774 C1750 0.950 1_455 S
H1775 C1751 0.949 . S
H1776 C1753 0.950 . S
H1777 C1755 0.950 . S
C1778 C1779 1.349 . S
C1778 C1780 1.327 . S
C1778 H1803 0.950 . S
C1779 C1778 1.349 . S
C1779 C1795 1.349 . S
C1780 C1778 1.327 . S
C1780 C1799 1.429 . S
C1780 H1804 0.950 . S
C1781 C1798 1.574 . S
C1781 C1800 1.368 . S
C1781 H1805 0.949 . S
H1782 C1786 0.949 . S
C1783 C1784 1.349 . S
C1783 C1785 1.327 . S
C1783 H1806 0.950 . S
C1784 C1783 1.349 . S
C1784 C1796 1.349 . S
C1785 C1783 1.327 . S
C1785 C1801 1.429 . S
C1785 H1807 0.950 . S
C1786 H1782 0.949 . S
C1786 C1794 1.574 . S
C1786 C1802 1.368 . S
H1787 C1795 0.950 . S
H1788 C1793 0.950 . S
H1789 C1794 0.949 . S
H1790 C1796 0.950 . S
H1791 C1797 0.950 . S
H1792 C1798 0.949 . S
C1793 H1788 0.950 . S
C1793 C1795 1.327 . S
C1793 C1799 1.429 . S
C1794 C1786 1.574 . S
C1794 H1789 0.949 . S
C1794 C1800 1.368 . S
C1795 C1779 1.349 . S
C1795 H1787 0.950 . S
C1795 C1793 1.327 . S
C1796 C1784 1.349 . S
C1796 H1790 0.950 . S
C1796 C1797 1.327 . S
C1797 H1791 0.950 . S
C1797 C1796 1.327 . S
C1797 C1801 1.429 . S
C1798 C1781 1.574 . S
C1798 H1792 0.949 . S
C1798 C1802 1.368 . S
C1799 C1780 1.429 . S
C1799 C1793 1.429 . S
C1799 C1800 1.523 . S
C1800 C1781 1.368 . S
C1800 C1794 1.368 . S
C1800 C1799 1.523 . S
C1801 C1785 1.429 . S
C1801 C1797 1.429 . S
C1801 C1802 1.523 . S
C1802 C1786 1.368 . S
C1802 C1798 1.368 . S
C1802 C1801 1.523 . S
H1803 C1778 0.950 . S
H1804 C1780 0.950 . S
H1805 C1781 0.949 . S
H1806 C1783 0.950 . S
H1807 C1785 0.950 . S
C1808 C1809 1.349 . S
C1808 C1810 1.327 . S
C1808 H1833 0.950 . S
C1809 C1808 1.349 . S
C1809 C1825 1.349 . S
C1810 C1808 1.327 . S
C1810 C1829 1.429 . S
C1810 H1834 0.950 . S
C1811 C1828 1.574 . S
C1811 C1830 1.368 . S
C1811 H1835 0.949 . S
H1812 C1816 0.949 . S
C1813 C1814 1.349 . S
C1813 C1815 1.327 . S
C1813 H1836 0.950 . S
C1814 C1813 1.349 . S
C1814 C1826 1.349 . S
C1815 C1813 1.327 . S
C1815 C1831 1.429 . S
C1815 H1837 0.950 . S
C1816 H1812 0.949 . S
C1816 C1824 1.574 . S
C1816 C1832 1.368 . S
H1817 C1825 0.950 . S
H1818 C1823 0.950 . S
H1819 C1824 0.949 . S
H1820 C1826 0.950 . S
H1821 C1827 0.950 . S
H1822 C1828 0.949 . S
C1823 H1818 0.950 . S
C1823 C1825 1.327 . S
C1823 C1829 1.429 . S
C1824 C1816 1.574 . S
C1824 H1819 0.949 . S
C1824 C1830 1.368 . S
C1825 C1809 1.349 . S
C1825 H1817 0.950 . S
C1825 C1823 1.327 . S
C1826 C1814 1.349 . S
C1826 H1820 0.950 . S
C1826 C1827 1.327 . S
C1827 H1821 0.950 . S
C1827 C1826 1.327 . S
C1827 C1831 1.429 . S
C1828 C1811 1.574 . S
C1828 H1822 0.949 . S
C1828 C1832 1.368 . S
C1829 C1810 1.429 . S
C1829 C1823 1.429 . S
C1829 C1830 1.523 . S
C1830 C1811 1.368 . S
C1830 C1824 1.368 . S
C1830 C1829 1.523 . S
C1831 C1815 1.429 . S
C1831 C1827 1.429 . S
C1831 C1832 1.523 . S
C1832 C1816 1.368 . S
C1832 C1828 1.368 . S
C1832 C1831 1.523 . S
H1833 C1808 0.950 . S
H1834 C1810 0.950 . S
H1835 C1811 0.949 . S
H1836 C1813 0.950 . S
H1837 C1815 0.950 . S
C1838 C1839 1.349 . S
C1838 C1840 1.327 . S
C1838 H1863 0.950 . S
C1839 C1838 1.349 . S
C1839 C1855 1.349 . S
C1840 C1838 1.327 . S
C1840 C1859 1.429 . S
C1840 H1864 0.950 . S
C1841 C1858 1.574 . S
C1841 C1860 1.368 . S
C1841 H1865 0.949 . S
H1842 C1846 0.949 . S
C1843 C1844 1.349 . S
C1843 C1845 1.327 . S
C1843 H1866 0.950 . S
C1844 C1843 1.349 . S
C1844 C1856 1.349 . S
C1845 C1843 1.327 . S
C1845 C1861 1.429 . S
C1845 H1867 0.950 . S
C1846 H1842 0.949 . S
C1846 C1854 1.574 . S
C1846 C1862 1.368 . S
H1847 C1855 0.950 . S
H1848 C1853 0.950 . S
H1849 C1854 0.949 . S
H1850 C1856 0.950 . S
H1851 C1857 0.950 . S
H1852 C1858 0.949 . S
C1853 H1848 0.950 . S
C1853 C1855 1.327 . S
C1853 C1859 1.429 . S
C1854 C1846 1.574 . S
C1854 H1849 0.949 . S
C1854 C1860 1.368 . S
C1855 C1839 1.349 . S
C1855 H1847 0.950 . S
C1855 C1853 1.327 . S
C1856 C1844 1.349 . S
C1856 H1850 0.950 . S
C1856 C1857 1.327 . S
C1857 H1851 0.950 . S
C1857 C1856 1.327 . S
C1857 C1861 1.429 . S
C1858 C1841 1.574 . S
C1858 H1852 0.949 . S
C1858 C1862 1.368 . S
C1859 C1840 1.429 . S
C1859 C1853 1.429 . S
C1859 C1860 1.523 . S
C1860 C1841 1.368 . S
C1860 C1854 1.368 . S
C1860 C1859 1.523 . S
C1861 C1845 1.429 . S
C1861 C1857 1.429 . S
C1861 C1862 1.523 . S
C1862 C1846 1.368 . S
C1862 C1858 1.368 . S
C1862 C1861 1.523 . S
H1863 C1838 0.950 . S
H1864 C1840 0.950 . S
H1865 C1841 0.949 . S
H1866 C1843 0.950 . S
H1867 C1845 0.950 . S
C1868 C1869 1.349 . S
C1868 C1870 1.327 . S
C1868 H1893 0.950 . S
C1869 C1868 1.349 . S
C1869 C1885 1.349 . S
C1870 C1868 1.327 . S
C1870 C1889 1.429 . S
C1870 H1894 0.950 . S
C1871 C1888 1.574 . S
C1871 C1890 1.368 . S
C1871 H1895 0.949 . S
H1872 C1876 0.949 . S
C1873 C1874 1.349 . S
C1873 C1875 1.327 . S
C1873 H1896 0.950 . S
C1874 C1873 1.349 . S
C1874 C1886 1.349 . S
C1875 C1873 1.327 . S
C1875 C1891 1.429 1_455 S
C1875 H1897 0.950 1_455 S
C1876 H1872 0.949 . S
C1876 C1884 1.574 . S
C1876 C1892 1.368 . S
H1877 C1885 0.950 . S
H1878 C1883 0.950 . S
H1879 C1884 0.949 . S
H1880 C1886 0.950 . S
H1881 C1887 0.950 . S
H1882 C1888 0.949 . S
C1883 H1878 0.950 . S
C1883 C1885 1.327 . S
C1883 C1889 1.429 . S
C1884 C1876 1.574 . S
C1884 H1879 0.949 . S
C1884 C1890 1.368 . S
C1885 C1869 1.349 . S
C1885 H1877 0.950 . S
C1885 C1883 1.327 . S
C1886 C1874 1.349 . S
C1886 H1880 0.950 . S
C1886 C1887 1.327 . S
C1887 H1881 0.950 . S
C1887 C1886 1.327 . S
C1887 C1891 1.429 1_455 S
C1888 C1871 1.574 . S
C1888 H1882 0.949 . S
C1888 C1892 1.368 . S
C1889 C1870 1.429 . S
C1889 C1883 1.429 . S
C1889 C1890 1.523 . S
C1890 C1871 1.368 . S
C1890 C1884 1.368 . S
C1890 C1889 1.523 . S
C1891 C1875 1.429 1_655 S
C1891 C1887 1.429 1_655 S
C1891 C1892 1.523 . S
C1892 C1876 1.368 . S
C1892 C1888 1.368 . S
C1892 C1891 1.523 . S
H1893 C1868 0.950 . S
H1894 C1870 0.950 . S
H1895 C1871 0.949 . S
H1896 C1873 0.950 . S
H1897 C1875 0.950 1_655 S
C1898 C1899 1.349 . S
C1898 C1900 1.327 . S
C1898 H1923 0.950 . S
C1899 C1898 1.349 . S
C1899 C1915 1.349 . S
C1900 C1898 1.327 . S
C1900 C1919 1.429 . S
C1900 H1924 0.950 . S
C1901 C1918 1.574 . S
C1901 C1920 1.368 . S
C1901 H1925 0.949 . S
H1902 C1906 0.949 . S
C1903 C1904 1.349 . S
C1903 C1905 1.327 . S
C1903 H1926 0.950 . S
C1904 C1903 1.349 . S
C1904 C1916 1.349 . S
C1905 C1903 1.327 . S
C1905 C1921 1.429 . S
C1905 H1927 0.950 . S
C1906 H1902 0.949 . S
C1906 C1914 1.574 . S
C1906 C1922 1.368 . S
H1907 C1915 0.950 . S
H1908 C1913 0.950 . S
H1909 C1914 0.949 . S
H1910 C1916 0.950 . S
H1911 C1917 0.950 . S
H1912 C1918 0.949 . S
C1913 H1908 0.950 . S
C1913 C1915 1.327 . S
C1913 C1919 1.429 . S
C1914 C1906 1.574 . S
C1914 H1909 0.949 . S
C1914 C1920 1.368 . S
C1915 C1899 1.349 . S
C1915 H1907 0.950 . S
C1915 C1913 1.327 . S
C1916 C1904 1.349 . S
C1916 H1910 0.950 . S
C1916 C1917 1.327 . S
C1917 H1911 0.950 . S
C1917 C1916 1.327 . S
C1917 C1921 1.429 . S
C1918 C1901 1.574 . S
C1918 H1912 0.949 . S
C1918 C1922 1.368 . S
C1919 C1900 1.429 . S
C1919 C1913 1.429 . S
C1919 C1920 1.523 . S
C1920 C1901 1.368 . S
C1920 C1914 1.368 . S
C1920 C1919 1.523 . S
C1921 C1905 1.429 . S
C1921 C1917 1.429 . S
C1921 C1922 1.523 . S
C1922 C1906 1.368 . S
C1922 C1918 1.368 . S
C1922 C1921 1.523 . S
H1923 C1898 0.950 . S
H1924 C1900 0.950 . S
H1925 C1901 0.949 . S
H1926 C1903 0.950 . S
H1927 C1905 0.950 . S
C1928 C1929 1.349 . S
C1928 C1930 1.327 . S
C1928 H1953 0.950 . S
C1929 C1928 1.349 . S
C1929 C1945 1.349 . S
C1930 C1928 1.327 . S
C1930 C1949 1.429 . S
C1930 H1954 0.950 . S
C1931 C1948 1.574 . S
C1931 C1950 1.368 . S
C1931 H1955 0.949 . S
H1932 C1936 0.949 . S
C1933 C1934 1.349 . S
C1933 C1935 1.327 . S
C1933 H1956 0.950 . S
C1934 C1933 1.349 . S
C1934 C1946 1.349 . S
C1935 C1933 1.327 . S
C1935 C1951 1.429 . S
C1935 H1957 0.950 . S
C1936 H1932 0.949 . S
C1936 C1944 1.574 . S
C1936 C1952 1.368 . S
H1937 C1945 0.950 . S
H1938 C1943 0.950 . S
H1939 C1944 0.949 . S
H1940 C1946 0.950 . S
H1941 C1947 0.950 . S
H1942 C1948 0.949 . S
C1943 H1938 0.950 . S
C1943 C1945 1.327 . S
C1943 C1949 1.429 . S
C1944 C1936 1.574 . S
C1944 H1939 0.949 . S
C1944 C1950 1.368 . S
C1945 C1929 1.349 . S
C1945 H1937 0.950 . S
C1945 C1943 1.327 . S
C1946 C1934 1.349 . S
C1946 H1940 0.950 . S
C1946 C1947 1.327 . S
C1947 H1941 0.950 . S
C1947 C1946 1.327 . S
C1947 C1951 1.429 . S
C1948 C1931 1.574 . S
C1948 H1942 0.949 . S
C1948 C1952 1.368 . S
C1949 C1930 1.429 . S
C1949 C1943 1.429 . S
C1949 C1950 1.523 . S
C1950 C1931 1.368 . S
C1950 C1944 1.368 . S
C1950 C1949 1.523 . S
C1951 C1935 1.429 . S
C1951 C1947 1.429 . S
C1951 C1952 1.523 . S
C1952 C1936 1.368 . S
C1952 C1948 1.368 . S
C1952 C1951 1.523 . S
H1953 C1928 0.950 . S
H1954 C1930 0.950 . S
H1955 C1931 0.949 . S
H1956 C1933 0.950 . S
H1957 C1935 0.950 . S
C1958 C1959 1.349 . S
C1958 C1960 1.327 . S
C1958 H1983 0.950 . S
C1959 C1958 1.349 . S
C1959 C1975 1.349 . S
C1960 C1958 1.327 . S
C1960 C1979 1.429 . S
C1960 H1984 0.950 . S
C1961 C1978 1.574 . S
C1961 C1980 1.368 . S
C1961 H1985 0.949 . S
H1962 C1966 0.949 . S
C1963 C1964 1.349 . S
C1963 C1965 1.327 . S
C1963 H1986 0.950 . S
C1964 C1963 1.349 . S
C1964 C1976 1.349 . S
C1965 C1963 1.327 . S
C1965 C1981 1.429 . S
C1965 H1987 0.950 . S
C1966 H1962 0.949 . S
C1966 C1974 1.574 . S
C1966 C1982 1.368 . S
H1967 C1975 0.950 . S
H1968 C1973 0.950 . S
H1969 C1974 0.949 . S
H1970 C1976 0.950 . S
H1971 C1977 0.950 . S
H1972 C1978 0.949 . S
C1973 H1968 0.950 . S
C1973 C1975 1.327 . S
C1973 C1979 1.429 . S
C1974 C1966 1.574 . S
C1974 H1969 0.949 . S
C1974 C1980 1.368 . S
C1975 C1959 1.349 . S
C1975 H1967 0.950 . S
C1975 C1973 1.327 . S
C1976 C1964 1.349 . S
C1976 H1970 0.950 . S
C1976 C1977 1.327 . S
C1977 H1971 0.950 . S
C1977 C1976 1.327 . S
C1977 C1981 1.429 . S
C1978 C1961 1.574 . S
C1978 H1972 0.949 . S
C1978 C1982 1.368 . S
C1979 C1960 1.429 . S
C1979 C1973 1.429 . S
C1979 C1980 1.523 . S
C1980 C1961 1.368 . S
C1980 C1974 1.368 . S
C1980 C1979 1.523 . S
C1981 C1965 1.429 . S
C1981 C1977 1.429 . S
C1981 C1982 1.523 . S
C1982 C1966 1.368 . S
C1982 C1978 1.368 . S
C1982 C1981 1.523 . S
H1983 C1958 0.950 . S
H1984 C1960 0.950 . S
H1985 C1961 0.949 . S
H1986 C1963 0.950 . S
H1987 C1965 0.950 . S
C1988 C1989 1.349 . S
C1988 C1990 1.327 . S
C1988 H2013 0.950 . S
C1989 C1988 1.349 . S
C1989 C2005 1.349 . S
C1990 C1988 1.327 . S
C1990 C2009 1.429 . S
C1990 H2014 0.950 . S
C1991 C2008 1.574 . S
C1991 C2010 1.368 . S
C1991 H2015 0.949 . S
H1992 C1996 0.949 . S
C1993 C1994 1.349 . S
C1993 C1995 1.327 . S
C1993 H2016 0.950 . S
C1994 C1993 1.349 . S
C1994 C2006 1.349 . S
C1995 C1993 1.327 . S
C1995 C2011 1.429 1_455 S
C1995 H2017 0.950 . S
C1996 H1992 0.949 . S
C1996 C2004 1.574 . S
C1996 C2012 1.368 . S
H1997 C2005 0.950 . S
H1998 C2003 0.950 . S
H1999 C2004 0.949 . S
H2000 C2006 0.950 . S
H2001 C2007 0.950 . S
H2002 C2008 0.949 . S
C2003 H1998 0.950 . S
C2003 C2005 1.327 . S
C2003 C2009 1.429 . S
C2004 C1996 1.574 . S
C2004 H1999 0.949 . S
C2004 C2010 1.368 . S
C2005 C1989 1.349 . S
C2005 H1997 0.950 . S
C2005 C2003 1.327 . S
C2006 C1994 1.349 . S
C2006 H2000 0.950 . S
C2006 C2007 1.327 1_455 S
C2007 H2001 0.950 . S
C2007 C2006 1.327 1_655 S
C2007 C2011 1.429 . S
C2008 C1991 1.574 . S
C2008 H2002 0.949 . S
C2008 C2012 1.368 . S
C2009 C1990 1.429 . S
C2009 C2003 1.429 . S
C2009 C2010 1.523 . S
C2010 C1991 1.368 . S
C2010 C2004 1.368 . S
C2010 C2009 1.523 . S
C2011 C1995 1.429 1_655 S
C2011 C2007 1.429 . S
C2011 C2012 1.523 . S
C2012 C1996 1.368 . S
C2012 C2008 1.368 . S
C2012 C2011 1.523 . S
H2013 C1988 0.950 . S
H2014 C1990 0.950 . S
H2015 C1991 0.949 . S
H2016 C1993 0.950 . S
H2017 C1995 0.950 . S
C2018 C2019 1.349 . S
C2018 C2020 1.327 . S
C2018 H2043 0.950 . S
C2019 C2018 1.349 . S
C2019 C2035 1.349 . S
C2020 C2018 1.327 . S
C2020 C2039 1.429 . S
C2020 H2044 0.950 . S
C2021 C2038 1.574 . S
C2021 C2040 1.368 . S
C2021 H2045 0.949 . S
H2022 C2026 0.949 . S
C2023 C2024 1.349 . S
C2023 C2025 1.327 . S
C2023 H2046 0.950 . S
C2024 C2023 1.349 . S
C2024 C2036 1.349 . S
C2025 C2023 1.327 . S
C2025 C2041 1.429 . S
C2025 H2047 0.950 . S
C2026 H2022 0.949 . S
C2026 C2034 1.574 . S
C2026 C2042 1.368 . S
H2027 C2035 0.950 . S
H2028 C2033 0.950 . S
H2029 C2034 0.949 . S
H2030 C2036 0.950 . S
H2031 C2037 0.950 . S
H2032 C2038 0.949 . S
C2033 H2028 0.950 . S
C2033 C2035 1.327 . S
C2033 C2039 1.429 . S
C2034 C2026 1.574 . S
C2034 H2029 0.949 . S
C2034 C2040 1.368 . S
C2035 C2019 1.349 . S
C2035 H2027 0.950 . S
C2035 C2033 1.327 . S
C2036 C2024 1.349 . S
C2036 H2030 0.950 . S
C2036 C2037 1.327 . S
C2037 H2031 0.950 . S
C2037 C2036 1.327 . S
C2037 C2041 1.429 . S
C2038 C2021 1.574 . S
C2038 H2032 0.949 . S
C2038 C2042 1.368 . S
C2039 C2020 1.429 . S
C2039 C2033 1.429 . S
C2039 C2040 1.523 . S
C2040 C2021 1.368 . S
C2040 C2034 1.368 . S
C2040 C2039 1.523 . S
C2041 C2025 1.429 . S
C2041 C2037 1.429 . S
C2041 C2042 1.523 . S
C2042 C2026 1.368 . S
C2042 C2038 1.368 . S
C2042 C2041 1.523 . S
H2043 C2018 0.950 . S
H2044 C2020 0.950 . S
H2045 C2021 0.949 . S
H2046 C2023 0.950 . S
H2047 C2025 0.950 . S
C2048 C2049 1.349 . S
C2048 C2050 1.327 . S
C2048 H2073 0.950 . S
C2049 C2048 1.349 . S
C2049 C2065 1.349 . S
C2050 C2048 1.327 . S
C2050 C2069 1.429 1_455 S
C2050 H2074 0.950 . S
C2051 C2068 1.574 . S
C2051 C2070 1.368 . S
C2051 H2075 0.949 . S
H2052 C2056 0.949 . S
C2053 C2054 1.349 . S
C2053 C2055 1.327 . S
C2053 H2076 0.950 . S
C2054 C2053 1.349 . S
C2054 C2066 1.349 . S
C2055 C2053 1.327 . S
C2055 C2071 1.429 . S
C2055 H2077 0.950 . S
C2056 H2052 0.949 . S
C2056 C2064 1.574 . S
C2056 C2072 1.368 . S
H2057 C2065 0.950 . S
H2058 C2063 0.950 . S
H2059 C2064 0.949 . S
H2060 C2066 0.950 . S
H2061 C2067 0.950 . S
H2062 C2068 0.949 . S
C2063 H2058 0.950 . S
C2063 C2065 1.327 1_655 S
C2063 C2069 1.429 . S
C2064 C2056 1.574 . S
C2064 H2059 0.949 . S
C2064 C2070 1.368 . S
C2065 C2049 1.349 . S
C2065 H2057 0.950 . S
C2065 C2063 1.327 1_455 S
C2066 C2054 1.349 . S
C2066 H2060 0.950 . S
C2066 C2067 1.327 . S
C2067 H2061 0.950 . S
C2067 C2066 1.327 . S
C2067 C2071 1.429 . S
C2068 C2051 1.574 . S
C2068 H2062 0.949 . S
C2068 C2072 1.368 . S
C2069 C2050 1.429 1_655 S
C2069 C2063 1.429 . S
C2069 C2070 1.523 . S
C2070 C2051 1.368 . S
C2070 C2064 1.368 . S
C2070 C2069 1.523 . S
C2071 C2055 1.429 . S
C2071 C2067 1.429 . S
C2071 C2072 1.523 . S
C2072 C2056 1.368 . S
C2072 C2068 1.368 . S
C2072 C2071 1.523 . S
H2073 C2048 0.950 . S
H2074 C2050 0.950 . S
H2075 C2051 0.949 . S
H2076 C2053 0.950 . S
H2077 C2055 0.950 . S
C2078 C2079 1.349 . S
C2078 C2080 1.327 . S
C2078 H2103 0.950 . S
C2079 C2078 1.349 . S
C2079 C2095 1.349 . S
C2080 C2078 1.327 . S
C2080 C2099 1.429 . S
C2080 H2104 0.950 . S
C2081 C2098 1.574 . S
C2081 C2100 1.368 . S
C2081 H2105 0.949 . S
H2082 C2086 0.949 . S
C2083 C2084 1.349 . S
C2083 C2085 1.327 . S
C2083 H2106 0.950 . S
C2084 C2083 1.349 . S
C2084 C2096 1.349 . S
C2085 C2083 1.327 . S
C2085 C2101 1.429 . S
C2085 H2107 0.950 . S
C2086 H2082 0.949 . S
C2086 C2094 1.574 . S
C2086 C2102 1.368 . S
H2087 C2095 0.950 . S
H2088 C2093 0.950 . S
H2089 C2094 0.949 . S
H2090 C2096 0.950 . S
H2091 C2097 0.950 . S
H2092 C2098 0.949 . S
C2093 H2088 0.950 . S
C2093 C2095 1.327 . S
C2093 C2099 1.429 . S
C2094 C2086 1.574 . S
C2094 H2089 0.949 . S
C2094 C2100 1.368 . S
C2095 C2079 1.349 . S
C2095 H2087 0.950 . S
C2095 C2093 1.327 . S
C2096 C2084 1.349 . S
C2096 H2090 0.950 . S
C2096 C2097 1.327 . S
C2097 H2091 0.950 . S
C2097 C2096 1.327 . S
C2097 C2101 1.429 . S
C2098 C2081 1.574 . S
C2098 H2092 0.949 . S
C2098 C2102 1.368 . S
C2099 C2080 1.429 . S
C2099 C2093 1.429 . S
C2099 C2100 1.523 . S
C2100 C2081 1.368 . S
C2100 C2094 1.368 . S
C2100 C2099 1.523 . S
C2101 C2085 1.429 . S
C2101 C2097 1.429 . S
C2101 C2102 1.523 . S
C2102 C2086 1.368 . S
C2102 C2098 1.368 . S
C2102 C2101 1.523 . S
H2103 C2078 0.950 . S
H2104 C2080 0.950 . S
H2105 C2081 0.949 . S
H2106 C2083 0.950 . S
H2107 C2085 0.950 . S
C2108 C2109 1.349 . S
C2108 C2110 1.327 . S
C2108 H2133 0.950 . S
C2109 C2108 1.349 . S
C2109 C2125 1.349 . S
C2110 C2108 1.327 . S
C2110 C2129 1.429 . S
C2110 H2134 0.950 . S
C2111 C2128 1.574 . S
C2111 C2130 1.368 . S
C2111 H2135 0.949 . S
H2112 C2116 0.949 . S
C2113 C2114 1.349 . S
C2113 C2115 1.327 . S
C2113 H2136 0.950 . S
C2114 C2113 1.349 . S
C2114 C2126 1.349 . S
C2115 C2113 1.327 . S
C2115 C2131 1.429 . S
C2115 H2137 0.950 . S
C2116 H2112 0.949 . S
C2116 C2124 1.574 . S
C2116 C2132 1.368 . S
H2117 C2125 0.950 . S
H2118 C2123 0.950 . S
H2119 C2124 0.949 . S
H2120 C2126 0.950 . S
H2121 C2127 0.950 . S
H2122 C2128 0.949 . S
C2123 H2118 0.950 . S
C2123 C2125 1.327 . S
C2123 C2129 1.429 . S
C2124 C2116 1.574 . S
C2124 H2119 0.949 . S
C2124 C2130 1.368 . S
C2125 C2109 1.349 . S
C2125 H2117 0.950 . S
C2125 C2123 1.327 . S
C2126 C2114 1.349 . S
C2126 H2120 0.950 . S
C2126 C2127 1.327 . S
C2127 H2121 0.950 . S
C2127 C2126 1.327 . S
C2127 C2131 1.429 . S
C2128 C2111 1.574 . S
C2128 H2122 0.949 . S
C2128 C2132 1.368 . S
C2129 C2110 1.429 . S
C2129 C2123 1.429 . S
C2129 C2130 1.523 . S
C2130 C2111 1.368 . S
C2130 C2124 1.368 . S
C2130 C2129 1.523 . S
C2131 C2115 1.429 . S
C2131 C2127 1.429 . S
C2131 C2132 1.523 . S
C2132 C2116 1.368 . S
C2132 C2128 1.368 . S
C2132 C2131 1.523 . S
H2133 C2108 0.950 . S
H2134 C2110 0.950 . S
H2135 C2111 0.949 . S
H2136 C2113 0.950 . S
H2137 C2115 0.950 . S
C2138 C2139 1.349 . S
C2138 C2140 1.327 . S
C2138 H2163 0.950 . S
C2139 C2138 1.349 . S
C2139 C2155 1.349 . S
C2140 C2138 1.327 . S
C2140 C2159 1.429 . S
C2140 H2164 0.950 . S
C2141 C2158 1.574 . S
C2141 C2160 1.368 . S
C2141 H2165 0.949 . S
H2142 C2146 0.949 . S
C2143 C2144 1.349 . S
C2143 C2145 1.327 . S
C2143 H2166 0.950 . S
C2144 C2143 1.349 . S
C2144 C2156 1.349 . S
C2145 C2143 1.327 . S
C2145 C2161 1.429 . S
C2145 H2167 0.950 . S
C2146 H2142 0.949 . S
C2146 C2154 1.574 . S
C2146 C2162 1.368 . S
H2147 C2155 0.950 . S
H2148 C2153 0.950 . S
H2149 C2154 0.949 . S
H2150 C2156 0.950 . S
H2151 C2157 0.950 . S
H2152 C2158 0.949 . S
C2153 H2148 0.950 . S
C2153 C2155 1.327 . S
C2153 C2159 1.429 . S
C2154 C2146 1.574 . S
C2154 H2149 0.949 . S
C2154 C2160 1.368 . S
C2155 C2139 1.349 . S
C2155 H2147 0.950 . S
C2155 C2153 1.327 . S
C2156 C2144 1.349 . S
C2156 H2150 0.950 . S
C2156 C2157 1.327 . S
C2157 H2151 0.950 . S
C2157 C2156 1.327 . S
C2157 C2161 1.429 . S
C2158 C2141 1.574 . S
C2158 H2152 0.949 . S
C2158 C2162 1.368 . S
C2159 C2140 1.429 . S
C2159 C2153 1.429 . S
C2159 C2160 1.523 . S
C2160 C2141 1.368 . S
C2160 C2154 1.368 . S
C2160 C2159 1.523 . S
C2161 C2145 1.429 . S
C2161 C2157 1.429 . S
C2161 C2162 1.523 . S
C2162 C2146 1.368 . S
C2162 C2158 1.368 . S
C2162 C2161 1.523 . S
H2163 C2138 0.950 . S
H2164 C2140 0.950 . S
H2165 C2141 0.949 . S
H2166 C2143 0.950 . S
H2167 C2145 0.950 . S
C2168 C2169 1.349 . S
C2168 C2170 1.327 . S
C2168 H2193 0.950 . S
C2169 C2168 1.349 . S
C2169 C2185 1.349 . S
C2170 C2168 1.327 . S
C2170 C2189 1.429 . S
C2170 H2194 0.950 . S
C2171 C2188 1.574 . S
C2171 C2190 1.368 . S
C2171 H2195 0.949 . S
H2172 C2176 0.949 . S
C2173 C2174 1.349 . S
C2173 C2175 1.327 . S
C2173 H2196 0.950 . S
C2174 C2173 1.349 . S
C2174 C2186 1.349 . S
C2175 C2173 1.327 . S
C2175 C2191 1.429 1_455 S
C2175 H2197 0.950 . S
C2176 H2172 0.949 . S
C2176 C2184 1.574 . S
C2176 C2192 1.368 . S
H2177 C2185 0.950 . S
H2178 C2183 0.950 . S
H2179 C2184 0.949 . S
H2180 C2186 0.950 . S
H2181 C2187 0.950 1_655 S
H2182 C2188 0.949 . S
C2183 H2178 0.950 . S
C2183 C2185 1.327 . S
C2183 C2189 1.429 . S
C2184 C2176 1.574 . S
C2184 H2179 0.949 . S
C2184 C2190 1.368 . S
C2185 C2169 1.349 . S
C2185 H2177 0.950 . S
C2185 C2183 1.327 . S
C2186 C2174 1.349 . S
C2186 H2180 0.950 . S
C2186 C2187 1.327 . S
C2187 H2181 0.950 1_455 S
C2187 C2186 1.327 . S
C2187 C2191 1.429 1_455 S
C2188 C2171 1.574 . S
C2188 H2182 0.949 . S
C2188 C2192 1.368 . S
C2189 C2170 1.429 . S
C2189 C2183 1.429 . S
C2189 C2190 1.523 . S
C2190 C2171 1.368 . S
C2190 C2184 1.368 . S
C2190 C2189 1.523 . S
C2191 C2175 1.429 1_655 S
C2191 C2187 1.429 1_655 S
C2191 C2192 1.523 . S
C2192 C2176 1.368 . S
C2192 C2188 1.368 . S
C2192 C2191 1.523 . S
H2193 C2168 0.950 . S
H2194 C2170 0.950 . S
H2195 C2171 0.949 . S
H2196 C2173 0.950 . S
H2197 C2175 0.950 . S
C2198 C2199 1.349 . S
C2198 C2200 1.327 . S
C2198 H2223 0.950 . S
C2199 C2198 1.349 . S
C2199 C2215 1.349 . S
C2200 C2198 1.327 . S
C2200 C2219 1.429 . S
C2200 H2224 0.950 . S
C2201 C2218 1.574 . S
C2201 C2220 1.368 . S
C2201 H2225 0.949 . S
H2202 C2206 0.949 . S
C2203 C2204 1.349 . S
C2203 C2205 1.327 . S
C2203 H2226 0.950 . S
C2204 C2203 1.349 . S
C2204 C2216 1.349 . S
C2205 C2203 1.327 . S
C2205 C2221 1.429 . S
C2205 H2227 0.950 . S
C2206 H2202 0.949 . S
C2206 C2214 1.574 . S
C2206 C2222 1.368 . S
H2207 C2215 0.950 . S
H2208 C2213 0.950 . S
H2209 C2214 0.949 . S
H2210 C2216 0.950 . S
H2211 C2217 0.950 . S
H2212 C2218 0.949 . S
C2213 H2208 0.950 . S
C2213 C2215 1.327 . S
C2213 C2219 1.429 . S
C2214 C2206 1.574 . S
C2214 H2209 0.949 . S
C2214 C2220 1.368 . S
C2215 C2199 1.349 . S
C2215 H2207 0.950 . S
C2215 C2213 1.327 . S
C2216 C2204 1.349 . S
C2216 H2210 0.950 . S
C2216 C2217 1.327 . S
C2217 H2211 0.950 . S
C2217 C2216 1.327 . S
C2217 C2221 1.429 . S
C2218 C2201 1.574 . S
C2218 H2212 0.949 . S
C2218 C2222 1.368 . S
C2219 C2200 1.429 . S
C2219 C2213 1.429 . S
C2219 C2220 1.523 . S
C2220 C2201 1.368 . S
C2220 C2214 1.368 . S
C2220 C2219 1.523 . S
C2221 C2205 1.429 . S
C2221 C2217 1.429 . S
C2221 C2222 1.523 . S
C2222 C2206 1.368 . S
C2222 C2218 1.368 . S
C2222 C2221 1.523 . S
H2223 C2198 0.950 . S
H2224 C2200 0.950 . S
H2225 C2201 0.949 . S
H2226 C2203 0.950 . S
H2227 C2205 0.950 . S
C2228 C2229 1.349 . S
C2228 C2230 1.327 . S
C2228 H2253 0.950 . S
C2229 C2228 1.349 . S
C2229 C2245 1.349 . S
C2230 C2228 1.327 . S
C2230 C2249 1.429 . S
C2230 H2254 0.950 . S
C2231 C2248 1.574 . S
C2231 C2250 1.368 . S
C2231 H2255 0.949 . S
H2232 C2236 0.949 . S
C2233 C2234 1.349 . S
C2233 C2235 1.327 . S
C2233 H2256 0.950 . S
C2234 C2233 1.349 . S
C2234 C2246 1.349 . S
C2235 C2233 1.327 . S
C2235 C2251 1.429 . S
C2235 H2257 0.950 . S
C2236 H2232 0.949 . S
C2236 C2244 1.574 . S
C2236 C2252 1.368 . S
H2237 C2245 0.950 . S
H2238 C2243 0.950 . S
H2239 C2244 0.949 . S
H2240 C2246 0.950 . S
H2241 C2247 0.950 . S
H2242 C2248 0.949 . S
C2243 H2238 0.950 . S
C2243 C2245 1.327 . S
C2243 C2249 1.429 . S
C2244 C2236 1.574 . S
C2244 H2239 0.949 . S
C2244 C2250 1.368 . S
C2245 C2229 1.349 . S
C2245 H2237 0.950 . S
C2245 C2243 1.327 . S
C2246 C2234 1.349 . S
C2246 H2240 0.950 . S
C2246 C2247 1.327 . S
C2247 H2241 0.950 . S
C2247 C2246 1.327 . S
C2247 C2251 1.429 . S
C2248 C2231 1.574 . S
C2248 H2242 0.949 . S
C2248 C2252 1.368 . S
C2249 C2230 1.429 . S
C2249 C2243 1.429 . S
C2249 C2250 1.523 . S
C2250 C2231 1.368 . S
C2250 C2244 1.368 . S
C2250 C2249 1.523 . S
C2251 C2235 1.429 . S
C2251 C2247 1.429 . S
C2251 C2252 1.523 . S
C2252 C2236 1.368 . S
C2252 C2248 1.368 . S
C2252 C2251 1.523 . S
H2253 C2228 0.950 . S
H2254 C2230 0.950 . S
H2255 C2231 0.949 . S
H2256 C2233 0.950 . S
H2257 C2235 0.950 . S
C2258 C2259 1.349 . S
C2258 C2260 1.327 . S
C2258 H2283 0.950 . S
C2259 C2258 1.349 . S
C2259 C2275 1.349 . S
C2260 C2258 1.327 . S
C2260 C2279 1.429 . S
C2260 H2284 0.950 . S
C2261 C2278 1.574 . S
C2261 C2280 1.368 . S
C2261 H2285 0.949 . S
H2262 C2266 0.949 . S
C2263 C2264 1.349 . S
C2263 C2265 1.327 . S
C2263 H2286 0.950 . S
C2264 C2263 1.349 . S
C2264 C2276 1.349 . S
C2265 C2263 1.327 . S
C2265 C2281 1.429 . S
C2265 H2287 0.950 . S
C2266 H2262 0.949 . S
C2266 C2274 1.574 . S
C2266 C2282 1.368 . S
H2267 C2275 0.950 . S
H2268 C2273 0.950 . S
H2269 C2274 0.949 . S
H2270 C2276 0.950 . S
H2271 C2277 0.950 . S
H2272 C2278 0.949 . S
C2273 H2268 0.950 . S
C2273 C2275 1.327 . S
C2273 C2279 1.429 . S
C2274 C2266 1.574 . S
C2274 H2269 0.949 . S
C2274 C2280 1.368 . S
C2275 C2259 1.349 . S
C2275 H2267 0.950 . S
C2275 C2273 1.327 . S
C2276 C2264 1.349 . S
C2276 H2270 0.950 . S
C2276 C2277 1.327 . S
C2277 H2271 0.950 . S
C2277 C2276 1.327 . S
C2277 C2281 1.429 . S
C2278 C2261 1.574 . S
C2278 H2272 0.949 . S
C2278 C2282 1.368 . S
C2279 C2260 1.429 . S
C2279 C2273 1.429 . S
C2279 C2280 1.523 . S
C2280 C2261 1.368 . S
C2280 C2274 1.368 . S
C2280 C2279 1.523 . S
C2281 C2265 1.429 . S
C2281 C2277 1.429 . S
C2281 C2282 1.523 . S
C2282 C2266 1.368 . S
C2282 C2278 1.368 . S
C2282 C2281 1.523 . S
H2283 C2258 0.950 . S
H2284 C2260 0.950 . S
H2285 C2261 0.949 . S
H2286 C2263 0.950 . S
H2287 C2265 0.950 . S
C2288 C2289 1.349 . S
C2288 C2290 1.327 . S
C2288 H2313 0.950 . S
C2289 C2288 1.349 . S
C2289 C2305 1.349 . S
C2290 C2288 1.327 . S
C2290 C2309 1.429 1_655 S
C2290 H2314 0.950 . S
C2291 C2308 1.574 . S
C2291 C2310 1.368 . S
C2291 H2315 0.949 . S
H2292 C2296 0.949 . S
C2293 C2294 1.349 . S
C2293 C2295 1.327 . S
C2293 H2316 0.950 . S
C2294 C2293 1.349 . S
C2294 C2306 1.349 . S
C2295 C2293 1.327 . S
C2295 C2311 1.429 . S
C2295 H2317 0.950 . S
C2296 H2292 0.949 . S
C2296 C2304 1.574 . S
C2296 C2312 1.368 . S
H2297 C2305 0.950 . S
H2298 C2303 0.950 . S
H2299 C2304 0.949 . S
H2300 C2306 0.950 . S
H2301 C2307 0.950 . S
H2302 C2308 0.949 . S
C2303 H2298 0.950 . S
C2303 C2305 1.327 1_455 S
C2303 C2309 1.429 . S
C2304 C2296 1.574 . S
C2304 H2299 0.949 . S
C2304 C2310 1.368 . S
C2305 C2289 1.349 . S
C2305 H2297 0.950 . S
C2305 C2303 1.327 1_655 S
C2306 C2294 1.349 . S
C2306 H2300 0.950 . S
C2306 C2307 1.327 . S
C2307 H2301 0.950 . S
C2307 C2306 1.327 . S
C2307 C2311 1.429 . S
C2308 C2291 1.574 . S
C2308 H2302 0.949 . S
C2308 C2312 1.368 . S
C2309 C2290 1.429 1_455 S
C2309 C2303 1.429 . S
C2309 C2310 1.523 . S
C2310 C2291 1.368 . S
C2310 C2304 1.368 . S
C2310 C2309 1.523 . S
C2311 C2295 1.429 . S
C2311 C2307 1.429 . S
C2311 C2312 1.523 . S
C2312 C2296 1.368 . S
C2312 C2308 1.368 . S
C2312 C2311 1.523 . S
H2313 C2288 0.950 . S
H2314 C2290 0.950 . S
H2315 C2291 0.949 . S
H2316 C2293 0.950 . S
H2317 C2295 0.950 . S
C2318 C2319 1.349 . S
C2318 C2320 1.327 . S
C2318 H2343 0.950 . S
C2319 C2318 1.349 . S
C2319 C2335 1.349 . S
C2320 C2318 1.327 . S
C2320 C2339 1.429 . S
C2320 H2344 0.950 . S
C2321 C2338 1.574 . S
C2321 C2340 1.368 . S
C2321 H2345 0.949 . S
H2322 C2326 0.949 . S
C2323 C2324 1.349 . S
C2323 C2325 1.327 . S
C2323 H2346 0.950 . S
C2324 C2323 1.349 . S
C2324 C2336 1.349 . S
C2325 C2323 1.327 . S
C2325 C2341 1.429 . S
C2325 H2347 0.950 . S
C2326 H2322 0.949 . S
C2326 C2334 1.574 . S
C2326 C2342 1.368 . S
H2327 C2335 0.950 . S
H2328 C2333 0.950 . S
H2329 C2334 0.949 . S
H2330 C2336 0.950 . S
H2331 C2337 0.950 . S
H2332 C2338 0.949 . S
C2333 H2328 0.950 . S
C2333 C2335 1.327 . S
C2333 C2339 1.429 . S
C2334 C2326 1.574 . S
C2334 H2329 0.949 . S
C2334 C2340 1.368 . S
C2335 C2319 1.349 . S
C2335 H2327 0.950 . S
C2335 C2333 1.327 . S
C2336 C2324 1.349 . S
C2336 H2330 0.950 . S
C2336 C2337 1.327 . S
C2337 H2331 0.950 . S
C2337 C2336 1.327 . S
C2337 C2341 1.429 . S
C2338 C2321 1.574 . S
C2338 H2332 0.949 . S
C2338 C2342 1.368 . S
C2339 C2320 1.429 . S
C2339 C2333 1.429 . S
C2339 C2340 1.523 . S
C2340 C2321 1.368 . S
C2340 C2334 1.368 . S
C2340 C2339 1.523 . S
C2341 C2325 1.429 . S
C2341 C2337 1.429 . S
C2341 C2342 1.523 . S
C2342 C2326 1.368 . S
C2342 C2338 1.368 . S
C2342 C2341 1.523 . S
H2343 C2318 0.950 . S
H2344 C2320 0.950 . S
H2345 C2321 0.949 . S
H2346 C2323 0.950 . S
H2347 C2325 0.950 . S
C2348 C2349 1.349 . S
C2348 C2350 1.327 . S
C2348 H2373 0.950 . S
C2349 C2348 1.349 . S
C2349 C2365 1.349 . S
C2350 C2348 1.327 . S
C2350 C2369 1.429 . S
C2350 H2374 0.950 . S
C2351 C2368 1.574 . S
C2351 C2370 1.368 . S
C2351 H2375 0.949 . S
H2352 C2356 0.949 . S
C2353 C2354 1.349 . S
C2353 C2355 1.327 . S
C2353 H2376 0.950 . S
C2354 C2353 1.349 . S
C2354 C2366 1.349 . S
C2355 C2353 1.327 . S
C2355 C2371 1.429 . S
C2355 H2377 0.950 . S
C2356 H2352 0.949 . S
C2356 C2364 1.574 . S
C2356 C2372 1.368 . S
H2357 C2365 0.950 . S
H2358 C2363 0.950 . S
H2359 C2364 0.949 . S
H2360 C2366 0.950 . S
H2361 C2367 0.950 . S
H2362 C2368 0.949 . S
C2363 H2358 0.950 . S
C2363 C2365 1.327 . S
C2363 C2369 1.429 . S
C2364 C2356 1.574 . S
C2364 H2359 0.949 . S
C2364 C2370 1.368 . S
C2365 C2349 1.349 . S
C2365 H2357 0.950 . S
C2365 C2363 1.327 . S
C2366 C2354 1.349 . S
C2366 H2360 0.950 . S
C2366 C2367 1.327 . S
C2367 H2361 0.950 . S
C2367 C2366 1.327 . S
C2367 C2371 1.429 . S
C2368 C2351 1.574 . S
C2368 H2362 0.949 . S
C2368 C2372 1.368 . S
C2369 C2350 1.429 . S
C2369 C2363 1.429 . S
C2369 C2370 1.523 . S
C2370 C2351 1.368 . S
C2370 C2364 1.368 . S
C2370 C2369 1.523 . S
C2371 C2355 1.429 . S
C2371 C2367 1.429 . S
C2371 C2372 1.523 . S
C2372 C2356 1.368 . S
C2372 C2368 1.368 . S
C2372 C2371 1.523 . S
H2373 C2348 0.950 . S
H2374 C2350 0.950 . S
H2375 C2351 0.949 . S
H2376 C2353 0.950 . S
H2377 C2355 0.950 . S
C2378 C2379 1.349 . S
C2378 C2380 1.327 . S
C2378 H2403 0.950 . S
C2379 C2378 1.349 . S
C2379 C2395 1.349 . S
C2380 C2378 1.327 . S
C2380 C2399 1.429 . S
C2380 H2404 0.950 . S
C2381 C2398 1.574 . S
C2381 C2400 1.368 . S
C2381 H2405 0.949 . S
H2382 C2386 0.949 . S
C2383 C2384 1.349 . S
C2383 C2385 1.327 . S
C2383 H2406 0.950 . S
C2384 C2383 1.349 . S
C2384 C2396 1.349 . S
C2385 C2383 1.327 . S
C2385 C2401 1.429 . S
C2385 H2407 0.950 . S
C2386 H2382 0.949 . S
C2386 C2394 1.574 . S
C2386 C2402 1.368 . S
H2387 C2395 0.950 . S
H2388 C2393 0.950 . S
H2389 C2394 0.949 . S
H2390 C2396 0.950 . S
H2391 C2397 0.950 . S
H2392 C2398 0.949 . S
C2393 H2388 0.950 . S
C2393 C2395 1.327 . S
C2393 C2399 1.429 . S
C2394 C2386 1.574 . S
C2394 H2389 0.949 . S
C2394 C2400 1.368 . S
C2395 C2379 1.349 . S
C2395 H2387 0.950 . S
C2395 C2393 1.327 . S
C2396 C2384 1.349 . S
C2396 H2390 0.950 . S
C2396 C2397 1.327 . S
C2397 H2391 0.950 . S
C2397 C2396 1.327 . S
C2397 C2401 1.429 . S
C2398 C2381 1.574 . S
C2398 H2392 0.949 . S
C2398 C2402 1.368 . S
C2399 C2380 1.429 . S
C2399 C2393 1.429 . S
C2399 C2400 1.523 . S
C2400 C2381 1.368 . S
C2400 C2394 1.368 . S
C2400 C2399 1.523 . S
C2401 C2385 1.429 . S
C2401 C2397 1.429 . S
C2401 C2402 1.523 . S
C2402 C2386 1.368 . S
C2402 C2398 1.368 . S
C2402 C2401 1.523 . S
H2403 C2378 0.950 . S
H2404 C2380 0.950 . S
H2405 C2381 0.949 . S
H2406 C2383 0.950 . S
H2407 C2385 0.950 . S
C2408 C2409 1.349 . S
C2408 C2410 1.327 . S
C2408 H2433 0.950 . S
C2409 C2408 1.349 . S
C2409 C2425 1.349 . S
C2410 C2408 1.327 . S
C2410 C2429 1.429 . S
C2410 H2434 0.950 . S
C2411 C2428 1.574 . S
C2411 C2430 1.368 . S
C2411 H2435 0.949 . S
H2412 C2416 0.949 . S
C2413 C2414 1.349 . S
C2413 C2415 1.327 . S
C2413 H2436 0.950 . S
C2414 C2413 1.349 . S
C2414 C2426 1.349 . S
C2415 C2413 1.327 . S
C2415 C2431 1.429 1_655 S
C2415 H2437 0.950 . S
C2416 H2412 0.949 . S
C2416 C2424 1.574 . S
C2416 C2432 1.368 . S
H2417 C2425 0.950 . S
H2418 C2423 0.950 . S
H2419 C2424 0.949 . S
H2420 C2426 0.950 . S
H2421 C2427 0.950 1_455 S
H2422 C2428 0.949 . S
C2423 H2418 0.950 . S
C2423 C2425 1.327 . S
C2423 C2429 1.429 . S
C2424 C2416 1.574 . S
C2424 H2419 0.949 . S
C2424 C2430 1.368 . S
C2425 C2409 1.349 . S
C2425 H2417 0.950 . S
C2425 C2423 1.327 . S
C2426 C2414 1.349 . S
C2426 H2420 0.950 . S
C2426 C2427 1.327 . S
C2427 H2421 0.950 1_655 S
C2427 C2426 1.327 . S
C2427 C2431 1.429 1_655 S
C2428 C2411 1.574 . S
C2428 H2422 0.949 . S
C2428 C2432 1.368 . S
C2429 C2410 1.429 . S
C2429 C2423 1.429 . S
C2429 C2430 1.523 . S
C2430 C2411 1.368 . S
C2430 C2424 1.368 . S
C2430 C2429 1.523 . S
C2431 C2415 1.429 1_455 S
C2431 C2427 1.429 1_455 S
C2431 C2432 1.523 . S
C2432 C2416 1.368 . S
C2432 C2428 1.368 . S
C2432 C2431 1.523 . S
H2433 C2408 0.950 . S
H2434 C2410 0.950 . S
H2435 C2411 0.949 . S
H2436 C2413 0.950 . S
H2437 C2415 0.950 . S
C2438 C2439 1.349 . S
C2438 C2440 1.327 . S
C2438 H2463 0.950 . S
C2439 C2438 1.349 . S
C2439 C2455 1.349 . S
C2440 C2438 1.327 . S
C2440 C2459 1.429 . S
C2440 H2464 0.950 . S
C2441 C2458 1.574 . S
C2441 C2460 1.368 . S
C2441 H2465 0.949 . S
H2442 C2446 0.949 . S
C2443 C2444 1.349 . S
C2443 C2445 1.327 . S
C2443 H2466 0.950 . S
C2444 C2443 1.349 . S
C2444 C2456 1.349 . S
C2445 C2443 1.327 . S
C2445 C2461 1.429 . S
C2445 H2467 0.950 . S
C2446 H2442 0.949 . S
C2446 C2454 1.574 . S
C2446 C2462 1.368 . S
H2447 C2455 0.950 . S
H2448 C2453 0.950 . S
H2449 C2454 0.949 . S
H2450 C2456 0.950 . S
H2451 C2457 0.950 . S
H2452 C2458 0.949 . S
C2453 H2448 0.950 . S
C2453 C2455 1.327 . S
C2453 C2459 1.429 . S
C2454 C2446 1.574 . S
C2454 H2449 0.949 . S
C2454 C2460 1.368 . S
C2455 C2439 1.349 . S
C2455 H2447 0.950 . S
C2455 C2453 1.327 . S
C2456 C2444 1.349 . S
C2456 H2450 0.950 . S
C2456 C2457 1.327 . S
C2457 H2451 0.950 . S
C2457 C2456 1.327 . S
C2457 C2461 1.429 . S
C2458 C2441 1.574 . S
C2458 H2452 0.949 . S
C2458 C2462 1.368 . S
C2459 C2440 1.429 . S
C2459 C2453 1.429 . S
C2459 C2460 1.523 . S
C2460 C2441 1.368 . S
C2460 C2454 1.368 . S
C2460 C2459 1.523 . S
C2461 C2445 1.429 . S
C2461 C2457 1.429 . S
C2461 C2462 1.523 . S
C2462 C2446 1.368 . S
C2462 C2458 1.368 . S
C2462 C2461 1.523 . S
H2463 C2438 0.950 . S
H2464 C2440 0.950 . S
H2465 C2441 0.949 . S
H2466 C2443 0.950 . S
H2467 C2445 0.950 . S
C2468 C2469 1.349 . S
C2468 C2470 1.327 . S
C2468 H2493 0.950 . S
C2469 C2468 1.349 . S
C2469 C2485 1.349 . S
C2470 C2468 1.327 . S
C2470 C2489 1.429 . S
C2470 H2494 0.950 . S
C2471 C2488 1.574 . S
C2471 C2490 1.368 . S
C2471 H2495 0.949 . S
H2472 C2476 0.949 . S
C2473 C2474 1.349 . S
C2473 C2475 1.327 . S
C2473 H2496 0.950 . S
C2474 C2473 1.349 . S
C2474 C2486 1.349 . S
C2475 C2473 1.327 . S
C2475 C2491 1.429 . S
C2475 H2497 0.950 . S
C2476 H2472 0.949 . S
C2476 C2484 1.574 . S
C2476 C2492 1.368 . S
H2477 C2485 0.950 . S
H2478 C2483 0.950 . S
H2479 C2484 0.949 . S
H2480 C2486 0.950 . S
H2481 C2487 0.950 . S
H2482 C2488 0.949 . S
C2483 H2478 0.950 . S
C2483 C2485 1.327 . S
C2483 C2489 1.429 . S
C2484 C2476 1.574 . S
C2484 H2479 0.949 . S
C2484 C2490 1.368 . S
C2485 C2469 1.349 . S
C2485 H2477 0.950 . S
C2485 C2483 1.327 . S
C2486 C2474 1.349 . S
C2486 H2480 0.950 . S
C2486 C2487 1.327 . S
C2487 H2481 0.950 . S
C2487 C2486 1.327 . S
C2487 C2491 1.429 . S
C2488 C2471 1.574 . S
C2488 H2482 0.949 . S
C2488 C2492 1.368 . S
C2489 C2470 1.429 . S
C2489 C2483 1.429 . S
C2489 C2490 1.523 . S
C2490 C2471 1.368 . S
C2490 C2484 1.368 . S
C2490 C2489 1.523 . S
C2491 C2475 1.429 . S
C2491 C2487 1.429 . S
C2491 C2492 1.523 . S
C2492 C2476 1.368 . S
C2492 C2488 1.368 . S
C2492 C2491 1.523 . S
H2493 C2468 0.950 . S
H2494 C2470 0.950 . S
H2495 C2471 0.949 . S
H2496 C2473 0.950 . S
H2497 C2475 0.950 . S
C2498 C2499 1.349 . S
C2498 C2500 1.327 . S
C2498 H2523 0.950 . S
C2499 C2498 1.349 . S
C2499 C2515 1.349 . S
C2500 C2498 1.327 . S
C2500 C2519 1.429 . S
C2500 H2524 0.950 . S
C2501 C2518 1.574 . S
C2501 C2520 1.368 . S
C2501 H2525 0.949 . S
H2502 C2506 0.949 . S
C2503 C2504 1.349 . S
C2503 C2505 1.327 . S
C2503 H2526 0.950 . S
C2504 C2503 1.349 . S
C2504 C2516 1.349 . S
C2505 C2503 1.327 . S
C2505 C2521 1.429 . S
C2505 H2527 0.950 . S
C2506 H2502 0.949 . S
C2506 C2514 1.574 . S
C2506 C2522 1.368 . S
H2507 C2515 0.950 . S
H2508 C2513 0.950 . S
H2509 C2514 0.949 . S
H2510 C2516 0.950 . S
H2511 C2517 0.950 . S
H2512 C2518 0.949 . S
C2513 H2508 0.950 . S
C2513 C2515 1.327 . S
C2513 C2519 1.429 . S
C2514 C2506 1.574 . S
C2514 H2509 0.949 . S
C2514 C2520 1.368 . S
C2515 C2499 1.349 . S
C2515 H2507 0.950 . S
C2515 C2513 1.327 . S
C2516 C2504 1.349 . S
C2516 H2510 0.950 . S
C2516 C2517 1.327 . S
C2517 H2511 0.950 . S
C2517 C2516 1.327 . S
C2517 C2521 1.429 . S
C2518 C2501 1.574 . S
C2518 H2512 0.949 . S
C2518 C2522 1.368 . S
C2519 C2500 1.429 . S
C2519 C2513 1.429 . S
C2519 C2520 1.523 . S
C2520 C2501 1.368 . S
C2520 C2514 1.368 . S
C2520 C2519 1.523 . S
C2521 C2505 1.429 . S
C2521 C2517 1.429 . S
C2521 C2522 1.523 . S
C2522 C2506 1.368 . S
C2522 C2518 1.368 . S
C2522 C2521 1.523 . S
H2523 C2498 0.950 . S
H2524 C2500 0.950 . S
H2525 C2501 0.949 . S
H2526 C2503 0.950 . S
H2527 C2505 0.950 . S
C2528 C2529 1.368 . S
C2528 C2530 1.304 1_565 S
C2528 H2553 0.955 . S
C2529 C2528 1.368 . S
C2529 C2545 1.349 . S
C2530 C2528 1.304 1_545 S
C2530 C2549 1.429 . S
C2530 H2554 0.950 . S
C2531 C2548 1.574 . S
C2531 C2550 1.368 . S
C2531 H2555 0.949 . S
H2532 C2536 0.949 . S
C2533 C2534 1.349 . S
C2533 C2535 1.327 . S
C2533 H2556 0.950 . S
C2534 C2533 1.349 . S
C2534 C2546 1.349 . S
C2535 C2533 1.327 . S
C2535 C2551 1.429 . S
C2535 H2557 0.950 . S
C2536 H2532 0.949 . S
C2536 C2544 1.574 . S
C2536 C2552 1.368 . S
H2537 C2545 0.950 . S
H2538 C2543 0.950 . S
H2539 C2544 0.949 . S
H2540 C2546 0.950 . S
H2541 C2547 0.950 . S
H2542 C2548 0.949 . S
C2543 H2538 0.950 . S
C2543 C2545 1.327 1_545 S
C2543 C2549 1.429 . S
C2544 C2536 1.574 . S
C2544 H2539 0.949 . S
C2544 C2550 1.368 . S
C2545 C2529 1.349 . S
C2545 H2537 0.950 . S
C2545 C2543 1.327 1_565 S
C2546 C2534 1.349 . S
C2546 H2540 0.950 . S
C2546 C2547 1.327 . S
C2547 H2541 0.950 . S
C2547 C2546 1.327 . S
C2547 C2551 1.429 . S
C2548 C2531 1.574 . S
C2548 H2542 0.949 . S
C2548 C2552 1.368 . S
C2549 C2530 1.429 . S
C2549 C2543 1.429 . S
C2549 C2550 1.523 . S
C2550 C2531 1.368 . S
C2550 C2544 1.368 . S
C2550 C2549 1.523 . S
C2551 C2535 1.429 . S
C2551 C2547 1.429 . S
C2551 C2552 1.523 . S
C2552 C2536 1.368 . S
C2552 C2548 1.368 . S
C2552 C2551 1.523 . S
H2553 C2528 0.955 . S
H2554 C2530 0.950 . S
H2555 C2531 0.949 . S
H2556 C2533 0.950 . S
H2557 C2535 0.950 . S
C2558 C2559 1.349 . S
C2558 C2560 1.327 . S
C2558 H2583 0.950 . S
C2559 C2558 1.349 . S
C2559 C2575 1.349 . S
C2560 C2558 1.327 . S
C2560 C2579 1.429 . S
C2560 H2584 0.950 . S
C2561 C2578 1.574 . S
C2561 C2580 1.368 . S
C2561 H2585 0.949 . S
H2562 C2566 0.949 . S
C2563 C2564 1.349 . S
C2563 C2565 1.327 1_545 S
C2563 H2586 0.950 . S
C2564 C2563 1.349 . S
C2564 C2576 1.350 1_545 S
C2565 C2563 1.327 1_565 S
C2565 C2581 1.429 . S
C2565 H2587 0.950 . S
C2566 H2562 0.949 . S
C2566 C2574 1.574 . S
C2566 C2582 1.368 . S
H2567 C2575 0.950 . S
H2568 C2573 0.950 . S
H2569 C2574 0.949 . S
H2570 C2576 0.950 1_545 S
H2571 C2577 0.950 . S
H2572 C2578 0.949 . S
C2573 H2568 0.950 . S
C2573 C2575 1.327 . S
C2573 C2579 1.429 . S
C2574 C2566 1.574 . S
C2574 H2569 0.949 . S
C2574 C2580 1.368 . S
C2575 C2559 1.349 . S
C2575 H2567 0.950 . S
C2575 C2573 1.327 . S
C2576 C2564 1.350 1_565 S
C2576 H2570 0.950 1_565 S
C2576 C2577 1.326 . S
C2577 H2571 0.950 . S
C2577 C2576 1.326 . S
C2577 C2581 1.429 . S
C2578 C2561 1.574 . S
C2578 H2572 0.949 . S
C2578 C2582 1.368 . S
C2579 C2560 1.429 . S
C2579 C2573 1.429 . S
C2579 C2580 1.523 . S
C2580 C2561 1.368 . S
C2580 C2574 1.368 . S
C2580 C2579 1.523 . S
C2581 C2565 1.429 . S
C2581 C2577 1.429 . S
C2581 C2582 1.523 . S
C2582 C2566 1.368 . S
C2582 C2578 1.368 . S
C2582 C2581 1.523 . S
H2583 C2558 0.950 . S
H2584 C2560 0.950 . S
H2585 C2561 0.949 . S
H2586 C2563 0.950 . S
H2587 C2565 0.950 . S
C2588 C2589 1.349 . S
C2588 C2590 1.327 . S
C2588 H2613 0.950 . S
C2589 C2588 1.349 . S
C2589 C2605 1.349 . S
C2590 C2588 1.327 . S
C2590 C2609 1.429 . S
C2590 H2614 0.950 . S
C2591 C2608 1.574 . S
C2591 C2610 1.368 . S
C2591 H2615 0.949 . S
H2592 C2596 0.949 . S
C2593 C2594 1.349 . S
C2593 C2595 1.310 1_545 S
C2593 H2616 0.950 . S
C2594 C2593 1.349 . S
C2594 C2606 1.349 1_545 S
C2595 C2593 1.310 1_565 S
C2595 C2611 1.447 . S
C2595 H2617 0.948 1_565 S
C2596 H2592 0.949 . S
C2596 C2604 1.574 . S
C2596 C2612 1.368 . S
H2597 C2605 0.950 . S
H2598 C2603 0.950 . S
H2599 C2604 0.949 . S
H2600 C2606 0.950 . S
H2601 C2607 0.950 . S
H2602 C2608 0.949 . S
C2603 H2598 0.950 . S
C2603 C2605 1.327 . S
C2603 C2609 1.429 . S
C2604 C2596 1.574 . S
C2604 H2599 0.949 . S
C2604 C2610 1.368 . S
C2605 C2589 1.349 . S
C2605 H2597 0.950 . S
C2605 C2603 1.327 . S
C2606 C2594 1.349 1_565 S
C2606 H2600 0.950 . S
C2606 C2607 1.327 . S
C2607 H2601 0.950 . S
C2607 C2606 1.327 . S
C2607 C2611 1.429 . S
C2608 C2591 1.574 . S
C2608 H2602 0.949 . S
C2608 C2612 1.368 . S
C2609 C2590 1.429 . S
C2609 C2603 1.429 . S
C2609 C2610 1.523 . S
C2610 C2591 1.368 . S
C2610 C2604 1.368 . S
C2610 C2609 1.523 . S
C2611 C2595 1.447 . S
C2611 C2607 1.429 . S
C2611 C2612 1.523 . S
C2612 C2596 1.368 . S
C2612 C2608 1.368 . S
C2612 C2611 1.523 . S
H2613 C2588 0.950 . S
H2614 C2590 0.950 . S
H2615 C2591 0.949 . S
H2616 C2593 0.950 . S
H2617 C2595 0.948 1_545 S
C2618 C2619 1.349 . S
C2618 C2620 1.327 . S
C2618 H2643 0.950 . S
C2619 C2618 1.349 . S
C2619 C2635 1.349 . S
C2620 C2618 1.327 . S
C2620 C2639 1.429 . S
C2620 H2644 0.950 . S
C2621 C2638 1.574 . S
C2621 C2640 1.368 . S
C2621 H2645 0.949 . S
H2622 C2626 0.949 . S
C2623 C2624 1.323 1_545 S
C2623 C2625 1.357 . S
C2623 H2646 0.949 . S
C2624 C2623 1.323 1_565 S
C2624 C2636 1.349 . S
C2625 C2623 1.357 . S
C2625 C2641 1.429 . S
C2625 H2647 0.950 . S
C2626 H2622 0.949 . S
C2626 C2634 1.574 . S
C2626 C2642 1.368 . S
H2627 C2635 0.950 . S
H2628 C2633 0.950 . S
H2629 C2634 0.949 . S
H2630 C2636 0.950 . S
H2631 C2637 0.950 . S
H2632 C2638 0.949 . S
C2633 H2628 0.950 . S
C2633 C2635 1.327 . S
C2633 C2639 1.429 . S
C2634 C2626 1.574 . S
C2634 H2629 0.949 . S
C2634 C2640 1.368 . S
C2635 C2619 1.349 . S
C2635 H2627 0.950 . S
C2635 C2633 1.327 . S
C2636 C2624 1.349 . S
C2636 H2630 0.950 . S
C2636 C2637 1.327 1_565 S
C2637 H2631 0.950 . S
C2637 C2636 1.327 1_545 S
C2637 C2641 1.429 . S
C2638 C2621 1.574 . S
C2638 H2632 0.949 . S
C2638 C2642 1.368 . S
C2639 C2620 1.429 . S
C2639 C2633 1.429 . S
C2639 C2640 1.523 . S
C2640 C2621 1.368 . S
C2640 C2634 1.368 . S
C2640 C2639 1.523 . S
C2641 C2625 1.429 . S
C2641 C2637 1.429 . S
C2641 C2642 1.523 . S
C2642 C2626 1.368 . S
C2642 C2638 1.368 . S
C2642 C2641 1.523 . S
H2643 C2618 0.950 . S
H2644 C2620 0.950 . S
H2645 C2621 0.949 . S
H2646 C2623 0.949 . S
H2647 C2625 0.950 . S
C2648 C2649 1.349 1_565 S
C2648 C2650 1.327 . S
C2648 H2673 0.950 . S
C2649 C2648 1.349 1_545 S
C2649 C2665 1.349 . S
C2650 C2648 1.327 . S
C2650 C2669 1.429 . S
C2650 H2674 0.950 . S
C2651 C2668 1.574 . S
C2651 C2670 1.368 . S
C2651 H2675 0.949 . S
H2652 C2656 0.949 . S
C2653 C2654 1.349 . S
C2653 C2655 1.327 . S
C2653 H2676 0.950 . S
C2654 C2653 1.349 . S
C2654 C2666 1.349 . S
C2655 C2653 1.327 . S
C2655 C2671 1.429 . S
C2655 H2677 0.950 . S
C2656 H2652 0.949 . S
C2656 C2664 1.574 . S
C2656 C2672 1.368 . S
H2657 C2665 0.950 . S
H2658 C2663 0.950 . S
H2659 C2664 0.949 . S
H2660 C2666 0.950 . S
H2661 C2667 0.950 . S
H2662 C2668 0.949 . S
C2663 H2658 0.950 . S
C2663 C2665 1.327 . S
C2663 C2669 1.429 1_545 S
C2664 C2656 1.574 . S
C2664 H2659 0.949 . S
C2664 C2670 1.368 . S
C2665 C2649 1.349 . S
C2665 H2657 0.950 . S
C2665 C2663 1.327 . S
C2666 C2654 1.349 . S
C2666 H2660 0.950 . S
C2666 C2667 1.327 . S
C2667 H2661 0.950 . S
C2667 C2666 1.327 . S
C2667 C2671 1.429 . S
C2668 C2651 1.574 . S
C2668 H2662 0.949 . S
C2668 C2672 1.368 . S
C2669 C2650 1.429 . S
C2669 C2663 1.429 1_565 S
C2669 C2670 1.523 . S
C2670 C2651 1.368 . S
C2670 C2664 1.368 . S
C2670 C2669 1.523 . S
C2671 C2655 1.429 . S
C2671 C2667 1.429 . S
C2671 C2672 1.523 . S
C2672 C2656 1.368 . S
C2672 C2668 1.368 . S
C2672 C2671 1.523 . S
H2673 C2648 0.950 . S
H2674 C2650 0.950 . S
H2675 C2651 0.949 . S
H2676 C2653 0.950 . S
H2677 C2655 0.950 . S
C2678 C2679 1.349 . S
C2678 C2680 1.307 1_565 S
C2678 H2703 0.950 . S
C2679 C2678 1.349 . S
C2679 C2695 1.349 1_565 S
C2680 C2678 1.307 1_545 S
C2680 C2699 1.451 . S
C2680 H2704 0.948 1_545 S
C2681 C2698 1.574 . S
C2681 C2700 1.368 . S
C2681 H2705 0.949 . S
H2682 C2686 0.949 . S
C2683 C2684 1.349 . S
C2683 C2685 1.327 . S
C2683 H2706 0.950 . S
C2684 C2683 1.349 . S
C2684 C2696 1.349 . S
C2685 C2683 1.327 . S
C2685 C2701 1.429 . S
C2685 H2707 0.950 . S
C2686 H2682 0.949 . S
C2686 C2694 1.574 . S
C2686 C2702 1.368 . S
H2687 C2695 0.950 . S
H2688 C2693 0.950 . S
H2689 C2694 0.949 . S
H2690 C2696 0.950 . S
H2691 C2697 0.950 . S
H2692 C2698 0.949 . S
C2693 H2688 0.950 . S
C2693 C2695 1.327 . S
C2693 C2699 1.429 . S
C2694 C2686 1.574 . S
C2694 H2689 0.949 . S
C2694 C2700 1.368 . S
C2695 C2679 1.349 1_545 S
C2695 H2687 0.950 . S
C2695 C2693 1.327 . S
C2696 C2684 1.349 . S
C2696 H2690 0.950 . S
C2696 C2697 1.327 . S
C2697 H2691 0.950 . S
C2697 C2696 1.327 . S
C2697 C2701 1.429 . S
C2698 C2681 1.574 . S
C2698 H2692 0.949 . S
C2698 C2702 1.368 . S
C2699 C2680 1.451 . S
C2699 C2693 1.429 . S
C2699 C2700 1.523 . S
C2700 C2681 1.368 . S
C2700 C2694 1.368 . S
C2700 C2699 1.523 . S
C2701 C2685 1.429 . S
C2701 C2697 1.429 . S
C2701 C2702 1.523 . S
C2702 C2686 1.368 . S
C2702 C2698 1.368 . S
C2702 C2701 1.523 . S
H2703 C2678 0.950 . S
H2704 C2680 0.948 1_565 S
H2705 C2681 0.949 . S
H2706 C2683 0.950 . S
H2707 C2685 0.950 . S
C2708 C2709 1.349 . S
C2708 C2710 1.327 . S
C2708 H2733 0.950 . S
C2709 C2708 1.349 . S
C2709 C2725 1.349 1_565 S
C2710 C2708 1.327 . S
C2710 C2729 1.429 1_565 S
C2710 H2734 0.950 . S
C2711 C2728 1.574 . S
C2711 C2730 1.368 . S
C2711 H2735 0.949 . S
H2712 C2716 0.949 . S
C2713 C2714 1.349 . S
C2713 C2715 1.327 . S
C2713 H2736 0.950 . S
C2714 C2713 1.349 . S
C2714 C2726 1.349 . S
C2715 C2713 1.327 . S
C2715 C2731 1.429 . S
C2715 H2737 0.950 . S
C2716 H2712 0.949 . S
C2716 C2724 1.574 . S
C2716 C2732 1.368 . S
H2717 C2725 0.950 . S
H2718 C2723 0.950 . S
H2719 C2724 0.949 . S
H2720 C2726 0.950 . S
H2721 C2727 0.950 . S
H2722 C2728 0.949 . S
C2723 H2718 0.950 . S
C2723 C2725 1.327 . S
C2723 C2729 1.429 . S
C2724 C2716 1.574 . S
C2724 H2719 0.949 . S
C2724 C2730 1.368 . S
C2725 C2709 1.349 1_545 S
C2725 H2717 0.950 . S
C2725 C2723 1.327 . S
C2726 C2714 1.349 . S
C2726 H2720 0.950 . S
C2726 C2727 1.327 . S
C2727 H2721 0.950 . S
C2727 C2726 1.327 . S
C2727 C2731 1.429 . S
C2728 C2711 1.574 . S
C2728 H2722 0.949 . S
C2728 C2732 1.368 . S
C2729 C2710 1.429 1_545 S
C2729 C2723 1.429 . S
C2729 C2730 1.523 . S
C2730 C2711 1.368 . S
C2730 C2724 1.368 . S
C2730 C2729 1.523 . S
C2731 C2715 1.429 . S
C2731 C2727 1.429 . S
C2731 C2732 1.523 . S
C2732 C2716 1.368 . S
C2732 C2728 1.368 . S
C2732 C2731 1.523 . S
H2733 C2708 0.950 . S
H2734 C2710 0.950 . S
H2735 C2711 0.949 . S
H2736 C2713 0.950 . S
H2737 C2715 0.950 . S
C2738 C2739 1.349 . S
C2738 C2740 1.327 . S
C2738 H2763 0.950 . S
C2739 C2738 1.349 . S
C2739 C2755 1.349 . S
C2740 C2738 1.327 . S
C2740 C2759 1.429 . S
C2740 H2764 0.950 . S
C2741 C2758 1.574 . S
C2741 C2760 1.368 . S
C2741 H2765 0.949 . S
H2742 C2746 0.949 . S
C2743 C2744 1.349 1_565 S
C2743 C2745 1.327 . S
C2743 H2766 0.950 . S
C2744 C2743 1.349 1_545 S
C2744 C2756 1.349 . S
C2745 C2743 1.327 . S
C2745 C2761 1.429 . S
C2745 H2767 0.950 . S
C2746 H2742 0.949 . S
C2746 C2754 1.574 . S
C2746 C2762 1.368 . S
H2747 C2755 0.950 . S
H2748 C2753 0.950 . S
H2749 C2754 0.949 . S
H2750 C2756 0.950 . S
H2751 C2757 0.950 . S
H2752 C2758 0.949 . S
C2753 H2748 0.950 . S
C2753 C2755 1.327 . S
C2753 C2759 1.429 . S
C2754 C2746 1.574 . S
C2754 H2749 0.949 . S
C2754 C2760 1.368 . S
C2755 C2739 1.349 . S
C2755 H2747 0.950 . S
C2755 C2753 1.327 . S
C2756 C2744 1.349 . S
C2756 H2750 0.950 . S
C2756 C2757 1.327 . S
C2757 H2751 0.950 . S
C2757 C2756 1.327 . S
C2757 C2761 1.429 1_545 S
C2758 C2741 1.574 . S
C2758 H2752 0.949 . S
C2758 C2762 1.368 . S
C2759 C2740 1.429 . S
C2759 C2753 1.429 . S
C2759 C2760 1.523 . S
C2760 C2741 1.368 . S
C2760 C2754 1.368 . S
C2760 C2759 1.523 . S
C2761 C2745 1.429 . S
C2761 C2757 1.429 1_565 S
C2761 C2762 1.523 . S
C2762 C2746 1.368 . S
C2762 C2758 1.368 . S
C2762 C2761 1.523 . S
H2763 C2738 0.950 . S
H2764 C2740 0.950 . S
H2765 C2741 0.949 . S
H2766 C2743 0.950 . S
H2767 C2745 0.950 . S
C2768 C2769 1.349 . S
C2768 C2770 1.327 . S
C2768 H2793 0.950 . S
C2769 C2768 1.349 . S
C2769 C2785 1.349 . S
C2770 C2768 1.327 . S
C2770 C2789 1.429 . S
C2770 H2794 0.950 . S
C2771 C2788 1.574 . S
C2771 C2790 1.368 . S
C2771 H2795 0.949 . S
H2772 C2776 0.949 . S
C2773 C2774 1.349 . S
C2773 C2775 1.327 . S
C2773 H2796 0.950 . S
C2774 C2773 1.349 . S
C2774 C2786 1.349 . S
C2775 C2773 1.327 . S
C2775 C2791 1.429 . S
C2775 H2797 0.950 . S
C2776 H2772 0.949 . S
C2776 C2784 1.574 . S
C2776 C2792 1.368 . S
H2777 C2785 0.950 . S
H2778 C2783 0.950 . S
H2779 C2784 0.949 . S
H2780 C2786 0.950 . S
H2781 C2787 0.950 . S
H2782 C2788 0.949 . S
C2783 H2778 0.950 . S
C2783 C2785 1.327 . S
C2783 C2789 1.429 . S
C2784 C2776 1.574 . S
C2784 H2779 0.949 . S
C2784 C2790 1.368 . S
C2785 C2769 1.349 . S
C2785 H2777 0.950 . S
C2785 C2783 1.327 . S
C2786 C2774 1.349 . S
C2786 H2780 0.950 . S
C2786 C2787 1.327 . S
C2787 H2781 0.950 . S
C2787 C2786 1.327 . S
C2787 C2791 1.429 . S
C2788 C2771 1.574 . S
C2788 H2782 0.949 . S
C2788 C2792 1.368 . S
C2789 C2770 1.429 . S
C2789 C2783 1.429 . S
C2789 C2790 1.523 . S
C2790 C2771 1.368 . S
C2790 C2784 1.368 . S
C2790 C2789 1.523 . S
C2791 C2775 1.429 . S
C2791 C2787 1.429 . S
C2791 C2792 1.523 . S
C2792 C2776 1.368 . S
C2792 C2788 1.368 . S
C2792 C2791 1.523 . S
H2793 C2768 0.950 . S
H2794 C2770 0.950 . S
H2795 C2771 0.949 . S
H2796 C2773 0.950 . S
H2797 C2775 0.950 . S
C2798 C2799 1.349 . S
C2798 C2800 1.327 . S
C2798 H2823 0.950 . S
C2799 C2798 1.349 . S
C2799 C2815 1.349 . S
C2800 C2798 1.327 . S
C2800 C2819 1.429 . S
C2800 H2824 0.950 . S
C2801 C2818 1.574 . S
C2801 C2820 1.368 . S
C2801 H2825 0.949 . S
H2802 C2806 0.949 . S
C2803 C2804 1.349 . S
C2803 C2805 1.327 . S
C2803 H2826 0.950 . S
C2804 C2803 1.349 . S
C2804 C2816 1.349 . S
C2805 C2803 1.327 . S
C2805 C2821 1.429 . S
C2805 H2827 0.950 . S
C2806 H2802 0.949 . S
C2806 C2814 1.574 . S
C2806 C2822 1.368 . S
H2807 C2815 0.950 . S
H2808 C2813 0.950 . S
H2809 C2814 0.949 . S
H2810 C2816 0.950 . S
H2811 C2817 0.950 . S
H2812 C2818 0.949 . S
C2813 H2808 0.950 . S
C2813 C2815 1.327 . S
C2813 C2819 1.429 . S
C2814 C2806 1.574 . S
C2814 H2809 0.949 . S
C2814 C2820 1.368 . S
C2815 C2799 1.349 . S
C2815 H2807 0.950 . S
C2815 C2813 1.327 . S
C2816 C2804 1.349 . S
C2816 H2810 0.950 . S
C2816 C2817 1.327 . S
C2817 H2811 0.950 . S
C2817 C2816 1.327 . S
C2817 C2821 1.429 . S
C2818 C2801 1.574 . S
C2818 H2812 0.949 . S
C2818 C2822 1.368 . S
C2819 C2800 1.429 . S
C2819 C2813 1.429 . S
C2819 C2820 1.523 . S
C2820 C2801 1.368 . S
C2820 C2814 1.368 . S
C2820 C2819 1.523 . S
C2821 C2805 1.429 . S
C2821 C2817 1.429 . S
C2821 C2822 1.523 . S
C2822 C2806 1.368 . S
C2822 C2818 1.368 . S
C2822 C2821 1.523 . S
H2823 C2798 0.950 . S
H2824 C2800 0.950 . S
H2825 C2801 0.949 . S
H2826 C2803 0.950 . S
H2827 C2805 0.950 . S
C2828 C2829 1.349 . S
C2828 C2830 1.327 . S
C2828 H2853 0.950 . S
C2829 C2828 1.349 . S
C2829 C2845 1.349 . S
C2830 C2828 1.327 . S
C2830 C2849 1.429 . S
C2830 H2854 0.950 . S
C2831 C2848 1.574 . S
C2831 C2850 1.368 . S
C2831 H2855 0.949 . S
H2832 C2836 0.949 . S
C2833 C2834 1.349 . S
C2833 C2835 1.327 . S
C2833 H2856 0.950 . S
C2834 C2833 1.349 . S
C2834 C2846 1.349 . S
C2835 C2833 1.327 . S
C2835 C2851 1.429 . S
C2835 H2857 0.950 . S
C2836 H2832 0.949 . S
C2836 C2844 1.574 . S
C2836 C2852 1.368 . S
H2837 C2845 0.950 . S
H2838 C2843 0.950 . S
H2839 C2844 0.949 . S
H2840 C2846 0.950 . S
H2841 C2847 0.950 . S
H2842 C2848 0.949 . S
C2843 H2838 0.950 . S
C2843 C2845 1.327 . S
C2843 C2849 1.429 . S
C2844 C2836 1.574 . S
C2844 H2839 0.949 . S
C2844 C2850 1.368 . S
C2845 C2829 1.349 . S
C2845 H2837 0.950 . S
C2845 C2843 1.327 . S
C2846 C2834 1.349 . S
C2846 H2840 0.950 . S
C2846 C2847 1.327 . S
C2847 H2841 0.950 . S
C2847 C2846 1.327 . S
C2847 C2851 1.429 . S
C2848 C2831 1.574 . S
C2848 H2842 0.949 . S
C2848 C2852 1.368 . S
C2849 C2830 1.429 . S
C2849 C2843 1.429 . S
C2849 C2850 1.523 . S
C2850 C2831 1.368 . S
C2850 C2844 1.368 . S
C2850 C2849 1.523 . S
C2851 C2835 1.429 . S
C2851 C2847 1.429 . S
C2851 C2852 1.523 . S
C2852 C2836 1.368 . S
C2852 C2848 1.368 . S
C2852 C2851 1.523 . S
H2853 C2828 0.950 . S
H2854 C2830 0.950 . S
H2855 C2831 0.949 . S
H2856 C2833 0.950 . S
H2857 C2835 0.950 . S
C2858 C2859 1.349 . S
C2858 C2860 1.327 . S
C2858 H2883 0.950 . S
C2859 C2858 1.349 . S
C2859 C2875 1.349 . S
C2860 C2858 1.327 . S
C2860 C2879 1.429 . S
C2860 H2884 0.950 . S
C2861 C2878 1.574 . S
C2861 C2880 1.368 . S
C2861 H2885 0.949 . S
H2862 C2866 0.949 . S
C2863 C2864 1.349 . S
C2863 C2865 1.327 . S
C2863 H2886 0.950 . S
C2864 C2863 1.349 . S
C2864 C2876 1.349 . S
C2865 C2863 1.327 . S
C2865 C2881 1.429 . S
C2865 H2887 0.950 . S
C2866 H2862 0.949 . S
C2866 C2874 1.574 . S
C2866 C2882 1.368 . S
H2867 C2875 0.950 . S
H2868 C2873 0.950 . S
H2869 C2874 0.949 . S
H2870 C2876 0.950 . S
H2871 C2877 0.950 . S
H2872 C2878 0.949 . S
C2873 H2868 0.950 . S
C2873 C2875 1.327 . S
C2873 C2879 1.429 . S
C2874 C2866 1.574 . S
C2874 H2869 0.949 . S
C2874 C2880 1.368 . S
C2875 C2859 1.349 . S
C2875 H2867 0.950 . S
C2875 C2873 1.327 . S
C2876 C2864 1.349 . S
C2876 H2870 0.950 . S
C2876 C2877 1.327 . S
C2877 H2871 0.950 . S
C2877 C2876 1.327 . S
C2877 C2881 1.429 . S
C2878 C2861 1.574 . S
C2878 H2872 0.949 . S
C2878 C2882 1.368 . S
C2879 C2860 1.429 . S
C2879 C2873 1.429 . S
C2879 C2880 1.523 . S
C2880 C2861 1.368 . S
C2880 C2874 1.368 . S
C2880 C2879 1.523 . S
C2881 C2865 1.429 . S
C2881 C2877 1.429 . S
C2881 C2882 1.523 . S
C2882 C2866 1.368 . S
C2882 C2878 1.368 . S
C2882 C2881 1.523 . S
H2883 C2858 0.950 . S
H2884 C2860 0.950 . S
H2885 C2861 0.949 . S
H2886 C2863 0.950 . S
H2887 C2865 0.950 . S
C2888 C2889 1.349 . S
C2888 C2890 1.327 . S
C2888 H2913 0.950 . S
C2889 C2888 1.349 . S
C2889 C2905 1.349 . S
C2890 C2888 1.327 . S
C2890 C2909 1.429 . S
C2890 H2914 0.950 . S
C2891 C2908 1.574 . S
C2891 C2910 1.368 . S
C2891 H2915 0.949 . S
H2892 C2896 0.949 . S
C2893 C2894 1.349 . S
C2893 C2895 1.327 . S
C2893 H2916 0.950 . S
C2894 C2893 1.349 . S
C2894 C2906 1.349 . S
C2895 C2893 1.327 . S
C2895 C2911 1.429 . S
C2895 H2917 0.950 . S
C2896 H2892 0.949 . S
C2896 C2904 1.574 . S
C2896 C2912 1.368 . S
H2897 C2905 0.950 . S
H2898 C2903 0.950 . S
H2899 C2904 0.949 . S
H2900 C2906 0.950 . S
H2901 C2907 0.950 . S
H2902 C2908 0.949 . S
C2903 H2898 0.950 . S
C2903 C2905 1.327 . S
C2903 C2909 1.429 . S
C2904 C2896 1.574 . S
C2904 H2899 0.949 . S
C2904 C2910 1.368 . S
C2905 C2889 1.349 . S
C2905 H2897 0.950 . S
C2905 C2903 1.327 . S
C2906 C2894 1.349 . S
C2906 H2900 0.950 . S
C2906 C2907 1.327 . S
C2907 H2901 0.950 . S
C2907 C2906 1.327 . S
C2907 C2911 1.429 . S
C2908 C2891 1.574 . S
C2908 H2902 0.949 . S
C2908 C2912 1.368 . S
C2909 C2890 1.429 . S
C2909 C2903 1.429 . S
C2909 C2910 1.523 . S
C2910 C2891 1.368 . S
C2910 C2904 1.368 . S
C2910 C2909 1.523 . S
C2911 C2895 1.429 . S
C2911 C2907 1.429 . S
C2911 C2912 1.523 . S
C2912 C2896 1.368 . S
C2912 C2908 1.368 . S
C2912 C2911 1.523 . S
H2913 C2888 0.950 . S
H2914 C2890 0.950 . S
H2915 C2891 0.949 . S
H2916 C2893 0.950 . S
H2917 C2895 0.950 . S
C2918 C2919 1.349 . S
C2918 C2920 1.327 . S
C2918 H2943 0.950 . S
C2919 C2918 1.349 . S
C2919 C2935 1.349 . S
C2920 C2918 1.327 . S
C2920 C2939 1.429 . S
C2920 H2944 0.950 . S
C2921 C2938 1.574 . S
C2921 C2940 1.368 . S
C2921 H2945 0.949 . S
H2922 C2926 0.949 . S
C2923 C2924 1.349 . S
C2923 C2925 1.327 . S
C2923 H2946 0.950 . S
C2924 C2923 1.349 . S
C2924 C2936 1.349 . S
C2925 C2923 1.327 . S
C2925 C2941 1.429 . S
C2925 H2947 0.950 . S
C2926 H2922 0.949 . S
C2926 C2934 1.574 . S
C2926 C2942 1.368 . S
H2927 C2935 0.950 . S
H2928 C2933 0.950 . S
H2929 C2934 0.949 . S
H2930 C2936 0.950 . S
H2931 C2937 0.950 . S
H2932 C2938 0.949 . S
C2933 H2928 0.950 . S
C2933 C2935 1.327 . S
C2933 C2939 1.429 . S
C2934 C2926 1.574 . S
C2934 H2929 0.949 . S
C2934 C2940 1.368 . S
C2935 C2919 1.349 . S
C2935 H2927 0.950 . S
C2935 C2933 1.327 . S
C2936 C2924 1.349 . S
C2936 H2930 0.950 . S
C2936 C2937 1.327 . S
C2937 H2931 0.950 . S
C2937 C2936 1.327 . S
C2937 C2941 1.429 . S
C2938 C2921 1.574 . S
C2938 H2932 0.949 . S
C2938 C2942 1.368 . S
C2939 C2920 1.429 . S
C2939 C2933 1.429 . S
C2939 C2940 1.523 . S
C2940 C2921 1.368 . S
C2940 C2934 1.368 . S
C2940 C2939 1.523 . S
C2941 C2925 1.429 . S
C2941 C2937 1.429 . S
C2941 C2942 1.523 . S
C2942 C2926 1.368 . S
C2942 C2938 1.368 . S
C2942 C2941 1.523 . S
H2943 C2918 0.950 . S
H2944 C2920 0.950 . S
H2945 C2921 0.949 . S
H2946 C2923 0.950 . S
H2947 C2925 0.950 . S
C2948 C2949 1.349 . S
C2948 C2950 1.327 . S
C2948 H2973 0.950 . S
C2949 C2948 1.349 . S
C2949 C2965 1.349 . S
C2950 C2948 1.327 . S
C2950 C2969 1.429 . S
C2950 H2974 0.950 . S
C2951 C2968 1.574 . S
C2951 C2970 1.368 . S
C2951 H2975 0.949 . S
H2952 C2956 0.949 . S
C2953 C2954 1.349 . S
C2953 C2955 1.327 . S
C2953 H2976 0.950 . S
C2954 C2953 1.349 . S
C2954 C2966 1.349 . S
C2955 C2953 1.327 . S
C2955 C2971 1.429 . S
C2955 H2977 0.950 . S
C2956 H2952 0.949 . S
C2956 C2964 1.574 . S
C2956 C2972 1.368 . S
H2957 C2965 0.950 . S
H2958 C2963 0.950 . S
H2959 C2964 0.949 . S
H2960 C2966 0.950 . S
H2961 C2967 0.950 . S
H2962 C2968 0.949 . S
C2963 H2958 0.950 . S
C2963 C2965 1.327 . S
C2963 C2969 1.429 . S
C2964 C2956 1.574 . S
C2964 H2959 0.949 . S
C2964 C2970 1.368 . S
C2965 C2949 1.349 . S
C2965 H2957 0.950 . S
C2965 C2963 1.327 . S
C2966 C2954 1.349 . S
C2966 H2960 0.950 . S
C2966 C2967 1.327 . S
C2967 H2961 0.950 . S
C2967 C2966 1.327 . S
C2967 C2971 1.429 . S
C2968 C2951 1.574 . S
C2968 H2962 0.949 . S
C2968 C2972 1.368 . S
C2969 C2950 1.429 . S
C2969 C2963 1.429 . S
C2969 C2970 1.523 . S
C2970 C2951 1.368 . S
C2970 C2964 1.368 . S
C2970 C2969 1.523 . S
C2971 C2955 1.429 . S
C2971 C2967 1.429 . S
C2971 C2972 1.523 . S
C2972 C2956 1.368 . S
C2972 C2968 1.368 . S
C2972 C2971 1.523 . S
H2973 C2948 0.950 . S
H2974 C2950 0.950 . S
H2975 C2951 0.949 . S
H2976 C2953 0.950 . S
H2977 C2955 0.950 . S
C2978 C2979 1.349 . S
C2978 C2980 1.327 . S
C2978 H3003 0.950 . S
C2979 C2978 1.349 . S
C2979 C2995 1.349 . S
C2980 C2978 1.327 . S
C2980 C2999 1.429 . S
C2980 H3004 0.950 . S
C2981 C2998 1.574 . S
C2981 C3000 1.368 . S
C2981 H3005 0.949 . S
H2982 C2986 0.949 . S
C2983 C2984 1.349 . S
C2983 C2985 1.327 . S
C2983 H3006 0.950 . S
C2984 C2983 1.349 . S
C2984 C2996 1.349 . S
C2985 C2983 1.327 . S
C2985 C3001 1.429 . S
C2985 H3007 0.950 . S
C2986 H2982 0.949 . S
C2986 C2994 1.574 . S
C2986 C3002 1.368 . S
H2987 C2995 0.950 . S
H2988 C2993 0.950 . S
H2989 C2994 0.949 . S
H2990 C2996 0.950 . S
H2991 C2997 0.950 . S
H2992 C2998 0.949 . S
C2993 H2988 0.950 . S
C2993 C2995 1.327 . S
C2993 C2999 1.429 . S
C2994 C2986 1.574 . S
C2994 H2989 0.949 . S
C2994 C3000 1.368 . S
C2995 C2979 1.349 . S
C2995 H2987 0.950 . S
C2995 C2993 1.327 . S
C2996 C2984 1.349 . S
C2996 H2990 0.950 . S
C2996 C2997 1.327 . S
C2997 H2991 0.950 . S
C2997 C2996 1.327 . S
C2997 C3001 1.429 . S
C2998 C2981 1.574 . S
C2998 H2992 0.949 . S
C2998 C3002 1.368 . S
C2999 C2980 1.429 . S
C2999 C2993 1.429 . S
C2999 C3000 1.523 . S
C3000 C2981 1.368 . S
C3000 C2994 1.368 . S
C3000 C2999 1.523 . S
C3001 C2985 1.429 . S
C3001 C2997 1.429 . S
C3001 C3002 1.523 . S
C3002 C2986 1.368 . S
C3002 C2998 1.368 . S
C3002 C3001 1.523 . S
H3003 C2978 0.950 . S
H3004 C2980 0.950 . S
H3005 C2981 0.949 . S
H3006 C2983 0.950 . S
H3007 C2985 0.950 . S
C3008 C3009 1.349 . S
C3008 C3010 1.327 . S
C3008 H3033 0.950 . S
C3009 C3008 1.349 . S
C3009 C3025 1.349 . S
C3010 C3008 1.327 . S
C3010 C3029 1.429 . S
C3010 H3034 0.950 . S
C3011 C3028 1.574 . S
C3011 C3030 1.368 . S
C3011 H3035 0.949 . S
H3012 C3016 0.949 . S
C3013 C3014 1.349 . S
C3013 C3015 1.327 . S
C3013 H3036 0.950 . S
C3014 C3013 1.349 . S
C3014 C3026 1.349 . S
C3015 C3013 1.327 . S
C3015 C3031 1.429 . S
C3015 H3037 0.950 . S
C3016 H3012 0.949 . S
C3016 C3024 1.574 . S
C3016 C3032 1.368 . S
H3017 C3025 0.950 . S
H3018 C3023 0.950 . S
H3019 C3024 0.949 . S
H3020 C3026 0.950 . S
H3021 C3027 0.950 . S
H3022 C3028 0.949 . S
C3023 H3018 0.950 . S
C3023 C3025 1.327 . S
C3023 C3029 1.429 . S
C3024 C3016 1.574 . S
C3024 H3019 0.949 . S
C3024 C3030 1.368 . S
C3025 C3009 1.349 . S
C3025 H3017 0.950 . S
C3025 C3023 1.327 . S
C3026 C3014 1.349 . S
C3026 H3020 0.950 . S
C3026 C3027 1.327 . S
C3027 H3021 0.950 . S
C3027 C3026 1.327 . S
C3027 C3031 1.429 . S
C3028 C3011 1.574 . S
C3028 H3022 0.949 . S
C3028 C3032 1.368 . S
C3029 C3010 1.429 . S
C3029 C3023 1.429 . S
C3029 C3030 1.523 . S
C3030 C3011 1.368 . S
C3030 C3024 1.368 . S
C3030 C3029 1.523 . S
C3031 C3015 1.429 . S
C3031 C3027 1.429 . S
C3031 C3032 1.523 . S
C3032 C3016 1.368 . S
C3032 C3028 1.368 . S
C3032 C3031 1.523 . S
H3033 C3008 0.950 . S
H3034 C3010 0.950 . S
H3035 C3011 0.949 . S
H3036 C3013 0.950 . S
H3037 C3015 0.950 . S
C3038 C3039 1.349 . S
C3038 C3040 1.327 . S
C3038 H3063 0.950 . S
C3039 C3038 1.349 . S
C3039 C3055 1.349 . S
C3040 C3038 1.327 . S
C3040 C3059 1.429 . S
C3040 H3064 0.950 . S
C3041 C3058 1.574 1_565 S
C3041 C3060 1.368 . S
C3041 H3065 0.949 . S
H3042 C3046 0.949 . S
C3043 C3044 1.349 . S
C3043 C3045 1.327 . S
C3043 H3066 0.950 . S
C3044 C3043 1.349 . S
C3044 C3056 1.349 . S
C3045 C3043 1.327 . S
C3045 C3061 1.429 . S
C3045 H3067 0.950 . S
C3046 H3042 0.949 . S
C3046 C3054 1.574 1_545 S
C3046 C3062 1.368 . S
H3047 C3055 0.950 . S
H3048 C3053 0.950 . S
H3049 C3054 0.949 . S
H3050 C3056 0.950 . S
H3051 C3057 0.950 . S
H3052 C3058 0.949 . S
C3053 H3048 0.950 . S
C3053 C3055 1.327 . S
C3053 C3059 1.429 . S
C3054 C3046 1.574 1_565 S
C3054 H3049 0.949 . S
C3054 C3060 1.368 1_455 S
C3055 C3039 1.349 . S
C3055 H3047 0.950 . S
C3055 C3053 1.327 . S
C3056 C3044 1.349 . S
C3056 H3050 0.950 . S
C3056 C3057 1.327 . S
C3057 H3051 0.950 . S
C3057 C3056 1.327 . S
C3057 C3061 1.429 . S
C3058 C3041 1.574 1_545 S
C3058 H3052 0.949 . S
C3058 C3062 1.368 1_655 S
C3059 C3040 1.429 . S
C3059 C3053 1.429 . S
C3059 C3060 1.523 . S
C3060 C3041 1.368 . S
C3060 C3054 1.368 1_655 S
C3060 C3059 1.523 . S
C3061 C3045 1.429 . S
C3061 C3057 1.429 . S
C3061 C3062 1.523 . S
C3062 C3046 1.368 . S
C3062 C3058 1.368 1_455 S
C3062 C3061 1.523 . S
H3063 C3038 0.950 . S
H3064 C3040 0.950 . S
H3065 C3041 0.949 . S
H3066 C3043 0.950 . S
H3067 C3045 0.950 . S
C3068 C3069 1.349 . S
C3068 C3070 1.327 . S
C3068 H3093 0.950 . S
C3069 C3068 1.349 . S
C3069 C3085 1.349 . S
C3070 C3068 1.327 . S
C3070 C3089 1.429 . S
C3070 H3094 0.950 . S
C3071 C3088 1.574 . S
C3071 C3090 1.368 . S
C3071 H3095 0.949 . S
H3072 C3076 0.949 . S
C3073 C3074 1.349 . S
C3073 C3075 1.327 . S
C3073 H3096 0.950 . S
C3074 C3073 1.349 . S
C3074 C3086 1.349 . S
C3075 C3073 1.327 . S
C3075 C3091 1.429 . S
C3075 H3097 0.950 . S
C3076 H3072 0.949 . S
C3076 C3084 1.574 . S
C3076 C3092 1.368 . S
H3077 C3085 0.950 . S
H3078 C3083 0.950 . S
H3079 C3084 0.949 . S
H3080 C3086 0.950 . S
H3081 C3087 0.950 . S
H3082 C3088 0.949 . S
C3083 H3078 0.950 . S
C3083 C3085 1.327 . S
C3083 C3089 1.429 . S
C3084 C3076 1.574 . S
C3084 H3079 0.949 . S
C3084 C3090 1.368 . S
C3085 C3069 1.349 . S
C3085 H3077 0.950 . S
C3085 C3083 1.327 . S
C3086 C3074 1.349 . S
C3086 H3080 0.950 . S
C3086 C3087 1.327 . S
C3087 H3081 0.950 . S
C3087 C3086 1.327 . S
C3087 C3091 1.429 . S
C3088 C3071 1.574 . S
C3088 H3082 0.949 . S
C3088 C3092 1.368 . S
C3089 C3070 1.429 . S
C3089 C3083 1.429 . S
C3089 C3090 1.523 . S
C3090 C3071 1.368 . S
C3090 C3084 1.368 . S
C3090 C3089 1.523 . S
C3091 C3075 1.429 . S
C3091 C3087 1.429 . S
C3091 C3092 1.523 . S
C3092 C3076 1.368 . S
C3092 C3088 1.368 . S
C3092 C3091 1.523 . S
H3093 C3068 0.950 . S
H3094 C3070 0.950 . S
H3095 C3071 0.949 . S
H3096 C3073 0.950 . S
H3097 C3075 0.950 . S
C3098 C3099 1.349 . S
C3098 C3100 1.327 . S
C3098 H3123 0.950 . S
C3099 C3098 1.349 . S
C3099 C3115 1.349 . S
C3100 C3098 1.327 . S
C3100 C3119 1.429 . S
C3100 H3124 0.950 . S
C3101 C3118 1.574 . S
C3101 C3120 1.368 1_554 S
C3101 H3125 0.949 . S
H3102 C3106 0.949 . S
C3103 C3104 1.349 . S
C3103 C3105 1.327 . S
C3103 H3126 0.950 . S
C3104 C3103 1.349 . S
C3104 C3116 1.349 . S
C3105 C3103 1.327 . S
C3105 C3121 1.429 . S
C3105 H3127 0.950 . S
C3106 H3102 0.949 . S
C3106 C3114 1.574 . S
C3106 C3122 1.368 1_556 S
H3107 C3115 0.950 . S
H3108 C3113 0.950 . S
H3109 C3114 0.949 . S
H3110 C3116 0.950 . S
H3111 C3117 0.950 . S
H3112 C3118 0.949 . S
C3113 H3108 0.950 . S
C3113 C3115 1.327 . S
C3113 C3119 1.429 . S
C3114 C3106 1.574 . S
C3114 H3109 0.949 . S
C3114 C3120 1.368 1_545 S
C3115 C3099 1.349 . S
C3115 H3107 0.950 . S
C3115 C3113 1.327 . S
C3116 C3104 1.349 . S
C3116 H3110 0.950 . S
C3116 C3117 1.327 . S
C3117 H3111 0.950 . S
C3117 C3116 1.327 . S
C3117 C3121 1.429 . S
C3118 C3101 1.574 . S
C3118 H3112 0.949 . S
C3118 C3122 1.368 1_565 S
C3119 C3100 1.429 . S
C3119 C3113 1.429 . S
C3119 C3120 1.523 . S
C3120 C3101 1.368 1_556 S
C3120 C3114 1.368 1_565 S
C3120 C3119 1.523 . S
C3121 C3105 1.429 . S
C3121 C3117 1.429 . S
C3121 C3122 1.523 . S
C3122 C3106 1.368 1_554 S
C3122 C3118 1.368 1_545 S
C3122 C3121 1.523 . S
H3123 C3098 0.950 . S
H3124 C3100 0.950 . S
H3125 C3101 0.949 . S
H3126 C3103 0.950 . S
H3127 C3105 0.950 . S
C3128 C3129 1.349 . S
C3128 C3130 1.327 . S
C3128 H3153 0.950 . S
C3129 C3128 1.349 . S
C3129 C3145 1.349 . S
C3130 C3128 1.327 . S
C3130 C3149 1.429 . S
C3130 H3154 0.950 . S
C3131 C3148 1.574 . S
C3131 C3150 1.368 . S
C3131 H3155 0.949 . S
H3132 C3136 0.949 . S
C3133 C3134 1.349 . S
C3133 C3135 1.327 . S
C3133 H3156 0.950 . S
C3134 C3133 1.349 . S
C3134 C3146 1.349 . S
C3135 C3133 1.327 . S
C3135 C3151 1.429 . S
C3135 H3157 0.950 . S
C3136 H3132 0.949 . S
C3136 C3144 1.574 . S
C3136 C3152 1.368 . S
H3137 C3145 0.950 . S
H3138 C3143 0.950 . S
H3139 C3144 0.949 . S
H3140 C3146 0.950 . S
H3141 C3147 0.950 . S
H3142 C3148 0.949 . S
C3143 H3138 0.950 . S
C3143 C3145 1.327 . S
C3143 C3149 1.429 . S
C3144 C3136 1.574 . S
C3144 H3139 0.949 . S
C3144 C3150 1.368 . S
C3145 C3129 1.349 . S
C3145 H3137 0.950 . S
C3145 C3143 1.327 . S
C3146 C3134 1.349 . S
C3146 H3140 0.950 . S
C3146 C3147 1.327 . S
C3147 H3141 0.950 . S
C3147 C3146 1.327 . S
C3147 C3151 1.429 . S
C3148 C3131 1.574 . S
C3148 H3142 0.949 . S
C3148 C3152 1.368 . S
C3149 C3130 1.429 . S
C3149 C3143 1.429 . S
C3149 C3150 1.523 . S
C3150 C3131 1.368 . S
C3150 C3144 1.368 . S
C3150 C3149 1.523 . S
C3151 C3135 1.429 . S
C3151 C3147 1.429 . S
C3151 C3152 1.523 . S
C3152 C3136 1.368 . S
C3152 C3148 1.368 . S
C3152 C3151 1.523 . S
H3153 C3128 0.950 . S
H3154 C3130 0.950 . S
H3155 C3131 0.949 . S
H3156 C3133 0.950 . S
H3157 C3135 0.950 . S
C3158 C3159 1.349 . S
C3158 C3160 1.327 . S
C3158 H3183 0.950 . S
C3159 C3158 1.349 . S
C3159 C3175 1.349 . S
C3160 C3158 1.327 . S
C3160 C3179 1.429 . S
C3160 H3184 0.950 . S
C3161 C3178 1.574 . S
C3161 C3180 1.368 . S
C3161 H3185 0.949 . S
H3162 C3166 0.949 . S
C3163 C3164 1.349 . S
C3163 C3165 1.327 . S
C3163 H3186 0.950 . S
C3164 C3163 1.349 . S
C3164 C3176 1.349 . S
C3165 C3163 1.327 . S
C3165 C3181 1.429 . S
C3165 H3187 0.950 . S
C3166 H3162 0.949 . S
C3166 C3174 1.574 . S
C3166 C3182 1.368 . S
H3167 C3175 0.950 . S
H3168 C3173 0.950 . S
H3169 C3174 0.949 . S
H3170 C3176 0.950 . S
H3171 C3177 0.950 . S
H3172 C3178 0.949 . S
C3173 H3168 0.950 . S
C3173 C3175 1.327 . S
C3173 C3179 1.429 . S
C3174 C3166 1.574 . S
C3174 H3169 0.949 . S
C3174 C3180 1.368 1_565 S
C3175 C3159 1.349 . S
C3175 H3167 0.950 . S
C3175 C3173 1.327 . S
C3176 C3164 1.349 . S
C3176 H3170 0.950 . S
C3176 C3177 1.327 . S
C3177 H3171 0.950 . S
C3177 C3176 1.327 . S
C3177 C3181 1.429 . S
C3178 C3161 1.574 . S
C3178 H3172 0.949 . S
C3178 C3182 1.368 1_545 S
C3179 C3160 1.429 . S
C3179 C3173 1.429 . S
C3179 C3180 1.523 . S
C3180 C3161 1.368 . S
C3180 C3174 1.368 1_545 S
C3180 C3179 1.523 . S
C3181 C3165 1.429 . S
C3181 C3177 1.429 . S
C3181 C3182 1.523 . S
C3182 C3166 1.368 . S
C3182 C3178 1.368 1_565 S
C3182 C3181 1.523 . S
H3183 C3158 0.950 . S
H3184 C3160 0.950 . S
H3185 C3161 0.949 . S
H3186 C3163 0.950 . S
H3187 C3165 0.950 . S
C3188 C3189 1.349 . S
C3188 C3190 1.327 . S
C3188 H3213 0.950 . S
C3189 C3188 1.349 . S
C3189 C3205 1.349 . S
C3190 C3188 1.327 . S
C3190 C3209 1.429 . S
C3190 H3214 0.950 . S
C3191 C3208 1.574 . S
C3191 C3210 1.368 . S
C3191 H3215 0.949 . S
H3192 C3196 0.949 . S
C3193 C3194 1.349 . S
C3193 C3195 1.327 . S
C3193 H3216 0.950 . S
C3194 C3193 1.349 . S
C3194 C3206 1.349 . S
C3195 C3193 1.327 . S
C3195 C3211 1.429 . S
C3195 H3217 0.950 . S
C3196 H3192 0.949 . S
C3196 C3204 1.574 . S
C3196 C3212 1.368 . S
H3197 C3205 0.950 . S
H3198 C3203 0.950 . S
H3199 C3204 0.949 . S
H3200 C3206 0.950 . S
H3201 C3207 0.950 . S
H3202 C3208 0.949 . S
C3203 H3198 0.950 . S
C3203 C3205 1.327 . S
C3203 C3209 1.429 . S
C3204 C3196 1.574 . S
C3204 H3199 0.949 . S
C3204 C3210 1.368 . S
C3205 C3189 1.349 . S
C3205 H3197 0.950 . S
C3205 C3203 1.327 . S
C3206 C3194 1.349 . S
C3206 H3200 0.950 . S
C3206 C3207 1.327 . S
C3207 H3201 0.950 . S
C3207 C3206 1.327 . S
C3207 C3211 1.429 . S
C3208 C3191 1.574 . S
C3208 H3202 0.949 . S
C3208 C3212 1.368 . S
C3209 C3190 1.429 . S
C3209 C3203 1.429 . S
C3209 C3210 1.523 . S
C3210 C3191 1.368 . S
C3210 C3204 1.368 . S
C3210 C3209 1.523 . S
C3211 C3195 1.429 . S
C3211 C3207 1.429 . S
C3211 C3212 1.523 . S
C3212 C3196 1.368 . S
C3212 C3208 1.368 . S
C3212 C3211 1.523 . S
H3213 C3188 0.950 . S
H3214 C3190 0.950 . S
H3215 C3191 0.949 . S
H3216 C3193 0.950 . S
H3217 C3195 0.950 . S
C3218 C3219 1.349 . S
C3218 C3220 1.327 . S
C3218 H3243 0.950 . S
C3219 C3218 1.349 . S
C3219 C3235 1.349 . S
C3220 C3218 1.327 . S
C3220 C3239 1.429 . S
C3220 H3244 0.950 . S
C3221 C3238 1.574 1_565 S
C3221 C3240 1.368 1_556 S
C3221 H3245 0.949 . S
H3222 C3226 0.949 . S
C3223 C3224 1.349 . S
C3223 C3225 1.327 . S
C3223 H3246 0.950 . S
C3224 C3223 1.349 . S
C3224 C3236 1.349 . S
C3225 C3223 1.327 . S
C3225 C3241 1.429 . S
C3225 H3247 0.950 . S
C3226 H3222 0.949 . S
C3226 C3234 1.574 1_545 S
C3226 C3242 1.368 1_554 S
H3227 C3235 0.950 . S
H3228 C3233 0.950 . S
H3229 C3234 0.949 . S
H3230 C3236 0.950 . S
H3231 C3237 0.950 . S
H3232 C3238 0.949 . S
C3233 H3228 0.950 . S
C3233 C3235 1.327 . S
C3233 C3239 1.429 . S
C3234 C3226 1.574 1_565 S
C3234 H3229 0.949 . S
C3234 C3240 1.368 1_655 S
C3235 C3219 1.349 . S
C3235 H3227 0.950 . S
C3235 C3233 1.327 . S
C3236 C3224 1.349 . S
C3236 H3230 0.950 . S
C3236 C3237 1.327 . S
C3237 H3231 0.950 . S
C3237 C3236 1.327 . S
C3237 C3241 1.429 . S
C3238 C3221 1.574 1_545 S
C3238 H3232 0.949 . S
C3238 C3242 1.368 1_455 S
C3239 C3220 1.429 . S
C3239 C3233 1.429 . S
C3239 C3240 1.523 . S
C3240 C3221 1.368 1_554 S
C3240 C3234 1.368 1_455 S
C3240 C3239 1.523 . S
C3241 C3225 1.429 . S
C3241 C3237 1.429 . S
C3241 C3242 1.523 . S
C3242 C3226 1.368 1_556 S
C3242 C3238 1.368 1_655 S
C3242 C3241 1.523 . S
H3243 C3218 0.950 . S
H3244 C3220 0.950 . S
H3245 C3221 0.949 . S
H3246 C3223 0.950 . S
H3247 C3225 0.950 . S
C3248 C3249 1.349 . S
C3248 C3250 1.327 . S
C3248 H3273 0.950 . S
C3249 C3248 1.349 . S
C3249 C3265 1.349 . S
C3250 C3248 1.327 . S
C3250 C3269 1.429 . S
C3250 H3274 0.950 . S
C3251 C3268 1.574 . S
C3251 C3270 1.368 . S
C3251 H3275 0.949 . S
H3252 C3256 0.949 . S
C3253 C3254 1.349 . S
C3253 C3255 1.327 . S
C3253 H3276 0.950 . S
C3254 C3253 1.349 . S
C3254 C3266 1.349 . S
C3255 C3253 1.327 . S
C3255 C3271 1.429 . S
C3255 H3277 0.950 . S
C3256 H3252 0.949 . S
C3256 C3264 1.574 . S
C3256 C3272 1.368 . S
H3257 C3265 0.950 . S
H3258 C3263 0.950 . S
H3259 C3264 0.949 . S
H3260 C3266 0.950 . S
H3261 C3267 0.950 . S
H3262 C3268 0.949 . S
C3263 H3258 0.950 . S
C3263 C3265 1.327 . S
C3263 C3269 1.429 . S
C3264 C3256 1.574 . S
C3264 H3259 0.949 . S
C3264 C3270 1.368 . S
C3265 C3249 1.349 . S
C3265 H3257 0.950 . S
C3265 C3263 1.327 . S
C3266 C3254 1.349 . S
C3266 H3260 0.950 . S
C3266 C3267 1.327 . S
C3267 H3261 0.950 . S
C3267 C3266 1.327 . S
C3267 C3271 1.429 . S
C3268 C3251 1.574 . S
C3268 H3262 0.949 . S
C3268 C3272 1.368 . S
C3269 C3250 1.429 . S
C3269 C3263 1.429 . S
C3269 C3270 1.523 . S
C3270 C3251 1.368 . S
C3270 C3264 1.368 . S
C3270 C3269 1.523 . S
C3271 C3255 1.429 . S
C3271 C3267 1.429 . S
C3271 C3272 1.523 . S
C3272 C3256 1.368 . S
C3272 C3268 1.368 . S
C3272 C3271 1.523 . S
H3273 C3248 0.950 . S
H3274 C3250 0.950 . S
H3275 C3251 0.949 . S
H3276 C3253 0.950 . S
H3277 C3255 0.950 . S
C3278 C3279 1.349 . S
C3278 C3280 1.327 . S
C3278 H3303 0.950 . S
C3279 C3278 1.349 . S
C3279 C3295 1.349 . S
C3280 C3278 1.327 . S
C3280 C3299 1.429 . S
C3280 H3304 0.950 . S
C3281 C3298 1.574 . S
C3281 C3300 1.368 . S
C3281 H3305 0.949 . S
H3282 C3286 0.949 . S
C3283 C3284 1.349 . S
C3283 C3285 1.327 . S
C3283 H3306 0.950 . S
C3284 C3283 1.349 . S
C3284 C3296 1.349 . S
C3285 C3283 1.327 . S
C3285 C3301 1.429 . S
C3285 H3307 0.950 . S
C3286 H3282 0.949 . S
C3286 C3294 1.574 . S
C3286 C3302 1.368 . S
H3287 C3295 0.950 . S
H3288 C3293 0.950 . S
H3289 C3294 0.949 . S
H3290 C3296 0.950 . S
H3291 C3297 0.950 . S
H3292 C3298 0.949 . S
C3293 H3288 0.950 . S
C3293 C3295 1.327 . S
C3293 C3299 1.429 . S
C3294 C3286 1.574 . S
C3294 H3289 0.949 . S
C3294 C3300 1.368 . S
C3295 C3279 1.349 . S
C3295 H3287 0.950 . S
C3295 C3293 1.327 . S
C3296 C3284 1.349 . S
C3296 H3290 0.950 . S
C3296 C3297 1.327 . S
C3297 H3291 0.950 . S
C3297 C3296 1.327 . S
C3297 C3301 1.429 . S
C3298 C3281 1.574 . S
C3298 H3292 0.949 . S
C3298 C3302 1.368 . S
C3299 C3280 1.429 . S
C3299 C3293 1.429 . S
C3299 C3300 1.523 . S
C3300 C3281 1.368 . S
C3300 C3294 1.368 . S
C3300 C3299 1.523 . S
C3301 C3285 1.429 . S
C3301 C3297 1.429 . S
C3301 C3302 1.523 . S
C3302 C3286 1.368 . S
C3302 C3298 1.368 . S
C3302 C3301 1.523 . S
H3303 C3278 0.950 . S
H3304 C3280 0.950 . S
H3305 C3281 0.949 . S
H3306 C3283 0.950 . S
H3307 C3285 0.950 . S
C3308 C3309 1.349 . S
C3308 C3310 1.327 . S
C3308 H3333 0.950 . S
C3309 C3308 1.349 . S
C3309 C3325 1.349 . S
C3310 C3308 1.327 . S
C3310 C3329 1.429 . S
C3310 H3334 0.950 . S
C3311 C3328 1.574 . S
C3311 C3330 1.368 . S
C3311 H3335 0.949 . S
H3312 C3316 0.949 . S
C3313 C3314 1.349 . S
C3313 C3315 1.327 . S
C3313 H3336 0.950 . S
C3314 C3313 1.349 . S
C3314 C3326 1.349 . S
C3315 C3313 1.327 . S
C3315 C3331 1.429 . S
C3315 H3337 0.950 . S
C3316 H3312 0.949 . S
C3316 C3324 1.574 . S
C3316 C3332 1.368 . S
H3317 C3325 0.950 . S
H3318 C3323 0.950 . S
H3319 C3324 0.949 . S
H3320 C3326 0.950 . S
H3321 C3327 0.950 . S
H3322 C3328 0.949 . S
C3323 H3318 0.950 . S
C3323 C3325 1.327 . S
C3323 C3329 1.429 . S
C3324 C3316 1.574 . S
C3324 H3319 0.949 . S
C3324 C3330 1.368 . S
C3325 C3309 1.349 . S
C3325 H3317 0.950 . S
C3325 C3323 1.327 . S
C3326 C3314 1.349 . S
C3326 H3320 0.950 . S
C3326 C3327 1.327 . S
C3327 H3321 0.950 . S
C3327 C3326 1.327 . S
C3327 C3331 1.429 . S
C3328 C3311 1.574 . S
C3328 H3322 0.949 . S
C3328 C3332 1.368 . S
C3329 C3310 1.429 . S
C3329 C3323 1.429 . S
C3329 C3330 1.523 . S
C3330 C3311 1.368 . S
C3330 C3324 1.368 . S
C3330 C3329 1.523 . S
C3331 C3315 1.429 . S
C3331 C3327 1.429 . S
C3331 C3332 1.523 . S
C3332 C3316 1.368 . S
C3332 C3328 1.368 . S
C3332 C3331 1.523 . S
H3333 C3308 0.950 . S
H3334 C3310 0.950 . S
H3335 C3311 0.949 . S
H3336 C3313 0.950 . S
H3337 C3315 0.950 . S
C3338 C3339 1.349 . S
C3338 C3340 1.327 . S
C3338 H3363 0.950 . S
C3339 C3338 1.349 . S
C3339 C3355 1.349 . S
C3340 C3338 1.327 . S
C3340 C3359 1.429 . S
C3340 H3364 0.950 . S
C3341 C3358 1.574 . S
C3341 C3360 1.368 . S
C3341 H3365 0.949 . S
H3342 C3346 0.949 . S
C3343 C3344 1.349 . S
C3343 C3345 1.327 . S
C3343 H3366 0.950 . S
C3344 C3343 1.349 . S
C3344 C3356 1.349 . S
C3345 C3343 1.327 . S
C3345 C3361 1.429 . S
C3345 H3367 0.950 . S
C3346 H3342 0.949 . S
C3346 C3354 1.574 . S
C3346 C3362 1.368 . S
H3347 C3355 0.950 . S
H3348 C3353 0.950 . S
H3349 C3354 0.949 . S
H3350 C3356 0.950 . S
H3351 C3357 0.950 . S
H3352 C3358 0.949 . S
C3353 H3348 0.950 . S
C3353 C3355 1.327 . S
C3353 C3359 1.429 . S
C3354 C3346 1.574 . S
C3354 H3349 0.949 . S
C3354 C3360 1.368 . S
C3355 C3339 1.349 . S
C3355 H3347 0.950 . S
C3355 C3353 1.327 . S
C3356 C3344 1.349 . S
C3356 H3350 0.950 . S
C3356 C3357 1.327 . S
C3357 H3351 0.950 . S
C3357 C3356 1.327 . S
C3357 C3361 1.429 . S
C3358 C3341 1.574 . S
C3358 H3352 0.949 . S
C3358 C3362 1.368 . S
C3359 C3340 1.429 . S
C3359 C3353 1.429 . S
C3359 C3360 1.523 . S
C3360 C3341 1.368 . S
C3360 C3354 1.368 . S
C3360 C3359 1.523 . S
C3361 C3345 1.429 . S
C3361 C3357 1.429 . S
C3361 C3362 1.523 . S
C3362 C3346 1.368 . S
C3362 C3358 1.368 . S
C3362 C3361 1.523 . S
H3363 C3338 0.950 . S
H3364 C3340 0.950 . S
H3365 C3341 0.949 . S
H3366 C3343 0.950 . S
H3367 C3345 0.950 . S
C3368 C3369 1.349 . S
C3368 C3370 1.327 . S
C3368 H3393 0.950 . S
C3369 C3368 1.349 . S
C3369 C3385 1.349 . S
C3370 C3368 1.327 . S
C3370 C3389 1.429 . S
C3370 H3394 0.950 . S
C3371 C3388 1.574 1_554 S
C3371 C3390 1.368 . S
C3371 H3395 0.949 . S
H3372 C3376 0.949 . S
C3373 C3374 1.349 . S
C3373 C3375 1.327 . S
C3373 H3396 0.950 . S
C3374 C3373 1.349 . S
C3374 C3386 1.349 . S
C3375 C3373 1.327 . S
C3375 C3391 1.429 . S
C3375 H3397 0.950 . S
C3376 H3372 0.949 . S
C3376 C3384 1.574 1_556 S
C3376 C3392 1.368 . S
H3377 C3385 0.950 . S
H3378 C3383 0.950 . S
H3379 C3384 0.949 . S
H3380 C3386 0.950 . S
H3381 C3387 0.950 . S
H3382 C3388 0.949 . S
C3383 H3378 0.950 . S
C3383 C3385 1.327 . S
C3383 C3389 1.429 . S
C3384 C3376 1.574 1_554 S
C3384 H3379 0.949 . S
C3384 C3390 1.368 . S
C3385 C3369 1.349 . S
C3385 H3377 0.950 . S
C3385 C3383 1.327 . S
C3386 C3374 1.349 . S
C3386 H3380 0.950 . S
C3386 C3387 1.327 . S
C3387 H3381 0.950 . S
C3387 C3386 1.327 . S
C3387 C3391 1.429 . S
C3388 C3371 1.574 1_556 S
C3388 H3382 0.949 . S
C3388 C3392 1.368 . S
C3389 C3370 1.429 . S
C3389 C3383 1.429 . S
C3389 C3390 1.523 . S
C3390 C3371 1.368 . S
C3390 C3384 1.368 . S
C3390 C3389 1.523 . S
C3391 C3375 1.429 . S
C3391 C3387 1.429 . S
C3391 C3392 1.523 . S
C3392 C3376 1.368 . S
C3392 C3388 1.368 . S
C3392 C3391 1.523 . S
H3393 C3368 0.950 . S
H3394 C3370 0.950 . S
H3395 C3371 0.949 . S
H3396 C3373 0.950 . S
H3397 C3375 0.950 . S
C3398 C3399 1.349 . S
C3398 C3400 1.327 . S
C3398 H3423 0.950 . S
C3399 C3398 1.349 . S
C3399 C3415 1.349 . S
C3400 C3398 1.327 . S
C3400 C3419 1.429 . S
C3400 H3424 0.950 . S
C3401 C3418 1.574 1_455 S
C3401 C3420 1.368 . S
C3401 H3425 0.949 . S
H3402 C3406 0.949 . S
C3403 C3404 1.349 . S
C3403 C3405 1.327 . S
C3403 H3426 0.950 . S
C3404 C3403 1.349 . S
C3404 C3416 1.349 . S
C3405 C3403 1.327 . S
C3405 C3421 1.429 . S
C3405 H3427 0.950 . S
C3406 H3402 0.949 . S
C3406 C3414 1.574 1_655 S
C3406 C3422 1.368 . S
H3407 C3415 0.950 . S
H3408 C3413 0.950 . S
H3409 C3414 0.949 . S
H3410 C3416 0.950 . S
H3411 C3417 0.950 . S
H3412 C3418 0.949 . S
C3413 H3408 0.950 . S
C3413 C3415 1.327 . S
C3413 C3419 1.429 . S
C3414 C3406 1.574 1_455 S
C3414 H3409 0.949 . S
C3414 C3420 1.368 . S
C3415 C3399 1.349 . S
C3415 H3407 0.950 . S
C3415 C3413 1.327 . S
C3416 C3404 1.349 . S
C3416 H3410 0.950 . S
C3416 C3417 1.327 . S
C3417 H3411 0.950 . S
C3417 C3416 1.327 . S
C3417 C3421 1.429 . S
C3418 C3401 1.574 1_655 S
C3418 H3412 0.949 . S
C3418 C3422 1.368 . S
C3419 C3400 1.429 . S
C3419 C3413 1.429 . S
C3419 C3420 1.523 . S
C3420 C3401 1.368 . S
C3420 C3414 1.368 . S
C3420 C3419 1.523 . S
C3421 C3405 1.429 . S
C3421 C3417 1.429 . S
C3421 C3422 1.523 . S
C3422 C3406 1.368 . S
C3422 C3418 1.368 . S
C3422 C3421 1.523 . S
H3423 C3398 0.950 . S
H3424 C3400 0.950 . S
H3425 C3401 0.949 . S
H3426 C3403 0.950 . S
H3427 C3405 0.950 . S
C3428 C3429 1.349 . S
C3428 C3430 1.327 . S
C3428 H3453 0.950 . S
C3429 C3428 1.349 . S
C3429 C3445 1.349 . S
C3430 C3428 1.327 . S
C3430 C3449 1.429 . S
C3430 H3454 0.950 . S
C3431 C3448 1.574 . S
C3431 C3450 1.368 1_655 S
C3431 H3455 0.949 . S
H3432 C3436 0.949 . S
C3433 C3434 1.349 . S
C3433 C3435 1.327 . S
C3433 H3456 0.950 . S
C3434 C3433 1.349 . S
C3434 C3446 1.349 . S
C3435 C3433 1.327 . S
C3435 C3451 1.429 . S
C3435 H3457 0.950 . S
C3436 H3432 0.949 . S
C3436 C3444 1.574 . S
C3436 C3452 1.368 1_455 S
H3437 C3445 0.950 . S
H3438 C3443 0.950 . S
H3439 C3444 0.949 . S
H3440 C3446 0.950 . S
H3441 C3447 0.950 . S
H3442 C3448 0.949 . S
C3443 H3438 0.950 . S
C3443 C3445 1.327 . S
C3443 C3449 1.429 . S
C3444 C3436 1.574 . S
C3444 H3439 0.949 . S
C3444 C3450 1.368 1_554 S
C3445 C3429 1.349 . S
C3445 H3437 0.950 . S
C3445 C3443 1.327 . S
C3446 C3434 1.349 . S
C3446 H3440 0.950 . S
C3446 C3447 1.327 . S
C3447 H3441 0.950 . S
C3447 C3446 1.327 . S
C3447 C3451 1.429 . S
C3448 C3431 1.574 . S
C3448 H3442 0.949 . S
C3448 C3452 1.368 1_556 S
C3449 C3430 1.429 . S
C3449 C3443 1.429 . S
C3449 C3450 1.523 . S
C3450 C3431 1.368 1_455 S
C3450 C3444 1.368 1_556 S
C3450 C3449 1.523 . S
C3451 C3435 1.429 . S
C3451 C3447 1.429 . S
C3451 C3452 1.523 . S
C3452 C3436 1.368 1_655 S
C3452 C3448 1.368 1_554 S
C3452 C3451 1.523 . S
H3453 C3428 0.950 . S
H3454 C3430 0.950 . S
H3455 C3431 0.949 . S
H3456 C3433 0.950 . S
H3457 C3435 0.950 . S
C3458 C3459 1.349 . S
C3458 C3460 1.327 . S
C3458 H3483 0.950 . S
C3459 C3458 1.349 . S
C3459 C3475 1.349 . S
C3460 C3458 1.327 . S
C3460 C3479 1.429 . S
C3460 H3484 0.950 . S
C3461 C3478 1.574 . S
C3461 C3480 1.368 . S
C3461 H3485 0.949 . S
H3462 C3466 0.949 . S
C3463 C3464 1.349 . S
C3463 C3465 1.327 . S
C3463 H3486 0.950 . S
C3464 C3463 1.349 . S
C3464 C3476 1.349 . S
C3465 C3463 1.327 . S
C3465 C3481 1.429 . S
C3465 H3487 0.950 . S
C3466 H3462 0.949 . S
C3466 C3474 1.574 . S
C3466 C3482 1.368 . S
H3467 C3475 0.950 . S
H3468 C3473 0.950 . S
H3469 C3474 0.949 . S
H3470 C3476 0.950 . S
H3471 C3477 0.950 . S
H3472 C3478 0.949 . S
C3473 H3468 0.950 . S
C3473 C3475 1.327 . S
C3473 C3479 1.429 . S
C3474 C3466 1.574 . S
C3474 H3469 0.949 . S
C3474 C3480 1.368 . S
C3475 C3459 1.349 . S
C3475 H3467 0.950 . S
C3475 C3473 1.327 . S
C3476 C3464 1.349 . S
C3476 H3470 0.950 . S
C3476 C3477 1.327 . S
C3477 H3471 0.950 . S
C3477 C3476 1.327 . S
C3477 C3481 1.429 . S
C3478 C3461 1.574 . S
C3478 H3472 0.949 . S
C3478 C3482 1.368 . S
C3479 C3460 1.429 . S
C3479 C3473 1.429 . S
C3479 C3480 1.523 . S
C3480 C3461 1.368 . S
C3480 C3474 1.368 . S
C3480 C3479 1.523 . S
C3481 C3465 1.429 . S
C3481 C3477 1.429 . S
C3481 C3482 1.523 . S
C3482 C3466 1.368 . S
C3482 C3478 1.368 . S
C3482 C3481 1.523 . S
H3483 C3458 0.950 . S
H3484 C3460 0.950 . S
H3485 C3461 0.949 . S
H3486 C3463 0.950 . S
H3487 C3465 0.950 . S
C1089 C617 0.589 . S
C1094 C5 0.589 . S
C1119 C39 0.589 . S
C1124 C651 0.589 . S
C1149 C73 0.589 . S
C1154 C549 0.589 . S
C1179 C583 0.589 . S
C1184 C107 0.589 . S
C1209 C141 0.589 . S
C1214 C753 0.589 . S
C1239 C787 0.589 . S
C1244 C175 0.589 . S
C1269 C209 0.589 . S
C1274 C685 0.589 . S
C1299 C243 0.589 . S
C1304 C719 0.589 . S
C1329 C277 0.589 . S
C1334 C889 0.589 . S
C1359 C923 0.589 . S
C1364 C311 0.589 . S
C1389 C345 0.589 . S
C1394 C821 0.589 . S
C1419 C379 0.589 . S
C1424 C855 0.589 . S
C1449 C413 0.589 . S
C1454 C1025 0.589 . S
C1479 C1059 0.589 . S
C1484 C447 0.589 . S
C1509 C957 0.589 . S
C1514 C481 0.589 . S
C1539 C991 0.589 . S
C1544 C515 0.589 . S
C1569 C407 0.784 . S
C1574 C2 0.781 . S
C1599 C849 0.784 . S
C1604 C36 0.781 . S
C1629 C70 0.781 . S
C1634 C339 0.784 . S
C1659 C917 0.784 . S
C1664 C104 0.781 . S
C1689 C475 0.784 . S
C1694 C138 0.781 . S
C1719 C172 0.781 . S
C1724 C1053 0.784 . S
C1749 C543 0.784 . S
C1754 C206 0.781 . S
C1779 C985 0.784 . S
C1784 C240 0.781 . S
C1809 C135 0.784 . S
C1814 C274 0.781 . S
C1839 C308 0.781 . S
C1844 C577 0.784 . S
C1869 C342 0.781 . S
C1874 C67 0.784 . S
C1899 C645 0.784 . S
C1904 C376 0.781 . S
C1929 C410 0.781 . S
C1934 C203 0.784 . S
C1959 C781 0.784 . S
C1964 C444 0.781 . S
C1989 C478 0.781 . S
C1994 C271 0.784 . S
C2019 C512 0.781 . S
C2024 C713 0.784 . S
C2049 C951 0.784 . S
C2054 C546 0.781 . S
C2079 C580 0.781 . S
C2084 C305 0.784 . S
C2109 C614 0.781 . S
C2114 C883 0.784 . S
C2139 C373 0.784 . S
C2144 C648 0.781 . S
C2169 C682 0.781 . S
C2174 C1019 0.784 . S
C2199 C716 0.781 . S
C2204 C509 0.784 . S
C2229 C1087 0.784 . S
C2234 C750 0.781 . S
C2259 C441 0.784 . S
C2264 C784 0.781 . S
C2289 C679 0.784 . S
C2294 C818 0.781 . S
C2319 C852 0.781 . S
C2324 C33 0.784 . S
C2349 C886 0.781 . S
C2354 C611 0.784 . S
C2379 C101 0.784 . S
C2384 C920 0.781 . S
C2409 C954 0.781 . S
C2414 C747 0.784 . S
C2439 C988 0.781 . S
C2444 C237 0.784 . S
C2469 C815 0.784 . S
C2474 C1022 0.781 . S
C2499 C169 0.784 . S
C2504 C1056 0.781 . S
C2529 C247 1.909 . S
C2534 C9 1.909 . S
C2559 C145 1.909 . S
C2564 C43 1.909 . S
C2589 C77 1.909 . S
C2594 C179 1.909 . S
C2619 C213 1.909 . S
C2624 C111 1.909 . S
C2649 C519 1.909 . S
C2654 C281 1.909 . S
C2679 C315 1.909 . S
C2684 C417 1.909 . S
C2709 C451 1.909 . S
C2714 C349 1.909 . S
C2739 C485 1.909 . S
C2744 C383 1.909 . S
C2769 C791 1.909 . S
C2774 C553 1.909 . S
C2799 C689 1.909 . S
C2804 C587 1.909 . S
C2829 C723 1.909 . S
C2834 C621 1.909 . S
C2859 C757 1.909 . S
C2864 C655 1.909 . S
C2889 C825 1.909 . S
C2894 C1063 1.909 . S
C2919 C859 1.909 . S
C2924 C961 1.909 . S
C2949 C893 1.909 . S
C2954 C995 1.909 . S
C2979 C1029 1.909 . S
C2984 C927 1.909 . S
C3009 C20 1.646 . S
C3014 C836 1.646 . S
C3039 C326 1.646 . S
C3044 C54 1.646 . S
C3069 C904 1.646 . S
C3074 C88 1.646 . S
C3099 C122 1.646 . S
C3104 C394 1.646 . S
C3129 C156 1.646 . S
C3134 C972 1.646 . S
C3159 C190 1.646 . S
C3164 C462 1.646 . S
C3189 C1040 1.646 . S
C3194 C224 1.646 . S
C3219 C258 1.646 . S
C3224 C530 1.646 . S
C3249 C564 1.646 . S
C3254 C292 1.646 . S
C3279 C632 1.646 . S
C3284 C360 1.646 . S
C3309 C428 1.646 . S
C3314 C700 1.646 . S
C3339 C496 1.646 . S
C3344 C768 1.646 . S
C3369 C870 1.646 . S
C3374 C598 1.646 . S
C3399 C938 1.646 . S
C3404 C666 1.646 . S
C3429 C1006 1.646 . S
C3434 C734 1.646 . S
C3459 C1074 1.646 . S
C3464 C802 1.646 . S
