# Generated by pormake.
# Topology unb, (4)-cn, num edge types: 1
# Building blocks:
#     Node 0, Type 0, BuildingBlock: TATPOV_clean_sbu_0, # of connection points: 4
#     Node 1, Type 0, BuildingBlock: TATPOV_clean_sbu_0, # of connection points: 4
#     Node 2, Type 0, BuildingBlock: TATPOV_clean_sbu_0, # of connection points: 4
#     Node 3, Type 0, BuildingBlock: TATPOV_clean_sbu_0, # of connection points: 4
#     Node 4, Type 0, BuildingBlock: TATPOV_clean_sbu_0, # of connection points: 4
#     Node 5, Type 0, BuildingBlock: TATPOV_clean_sbu_0, # of connection points: 4
#     Node 6, Type 0, BuildingBlock: TATPOV_clean_sbu_0, # of connection points: 4
#     Node 7, Type 0, BuildingBlock: TATPOV_clean_sbu_0, # of connection points: 4
#     Node 8, Type 0, BuildingBlock: TATPOV_clean_sbu_0, # of connection points: 4
#     Node 9, Type 0, BuildingBlock: TATPOV_clean_sbu_0, # of connection points: 4
#     Node 10, Type 0, BuildingBlock: TATPOV_clean_sbu_0, # of connection points: 4
#     Node 11, Type 0, BuildingBlock: TATPOV_clean_sbu_0, # of connection points: 4
#     Node 12, Type 0, BuildingBlock: TATPOV_clean_sbu_0, # of connection points: 4
#     Node 13, Type 0, BuildingBlock: TATPOV_clean_sbu_0, # of connection points: 4
#     Node 14, Type 0, BuildingBlock: TATPOV_clean_sbu_0, # of connection points: 4
#     Node 15, Type 0, BuildingBlock: TATPOV_clean_sbu_0, # of connection points: 4
#     Node 16, Type 0, BuildingBlock: TATPOV_clean_sbu_0, # of connection points: 4
#     Node 17, Type 0, BuildingBlock: TATPOV_clean_sbu_0, # of connection points: 4
#     Edge 18, Type (0, 0), BuildingBlock: TEMPAE_clean_linker_10, # of connection points: 2
#     Edge 19, Type (0, 0), BuildingBlock: TEMPAE_clean_linker_10, # of connection points: 2
#     Edge 20, Type (0, 0), BuildingBlock: TEMPAE_clean_linker_10, # of connection points: 2
#     Edge 21, Type (0, 0), BuildingBlock: TEMPAE_clean_linker_10, # of connection points: 2
#     Edge 22, Type (0, 0), BuildingBlock: TEMPAE_clean_linker_10, # of connection points: 2
#     Edge 23, Type (0, 0), BuildingBlock: TEMPAE_clean_linker_10, # of connection points: 2
#     Edge 24, Type (0, 0), BuildingBlock: TEMPAE_clean_linker_10, # of connection points: 2
#     Edge 25, Type (0, 0), BuildingBlock: TEMPAE_clean_linker_10, # of connection points: 2
#     Edge 26, Type (0, 0), BuildingBlock: TEMPAE_clean_linker_10, # of connection points: 2
#     Edge 27, Type (0, 0), BuildingBlock: TEMPAE_clean_linker_10, # of connection points: 2
#     Edge 28, Type (0, 0), BuildingBlock: TEMPAE_clean_linker_10, # of connection points: 2
#     Edge 29, Type (0, 0), BuildingBlock: TEMPAE_clean_linker_10, # of connection points: 2
#     Edge 30, Type (0, 0), BuildingBlock: TEMPAE_clean_linker_10, # of connection points: 2
#     Edge 31, Type (0, 0), BuildingBlock: TEMPAE_clean_linker_10, # of connection points: 2
#     Edge 32, Type (0, 0), BuildingBlock: TEMPAE_clean_linker_10, # of connection points: 2
#     Edge 33, Type (0, 0), BuildingBlock: TEMPAE_clean_linker_10, # of connection points: 2
#     Edge 34, Type (0, 0), BuildingBlock: TEMPAE_clean_linker_10, # of connection points: 2
#     Edge 35, Type (0, 0), BuildingBlock: TEMPAE_clean_linker_10, # of connection points: 2
#     Edge 36, Type (0, 0), BuildingBlock: TEMPAE_clean_linker_10, # of connection points: 2
#     Edge 37, Type (0, 0), BuildingBlock: TEMPAE_clean_linker_10, # of connection points: 2
#     Edge 38, Type (0, 0), BuildingBlock: TEMPAE_clean_linker_10, # of connection points: 2
#     Edge 39, Type (0, 0), BuildingBlock: TEMPAE_clean_linker_10, # of connection points: 2
#     Edge 40, Type (0, 0), BuildingBlock: TEMPAE_clean_linker_10, # of connection points: 2
#     Edge 41, Type (0, 0), BuildingBlock: TEMPAE_clean_linker_10, # of connection points: 2
#     Edge 42, Type (0, 0), BuildingBlock: TEMPAE_clean_linker_10, # of connection points: 2
#     Edge 43, Type (0, 0), BuildingBlock: TEMPAE_clean_linker_10, # of connection points: 2
#     Edge 44, Type (0, 0), BuildingBlock: TEMPAE_clean_linker_10, # of connection points: 2
#     Edge 45, Type (0, 0), BuildingBlock: TEMPAE_clean_linker_10, # of connection points: 2
#     Edge 46, Type (0, 0), BuildingBlock: TEMPAE_clean_linker_10, # of connection points: 2
#     Edge 47, Type (0, 0), BuildingBlock: TEMPAE_clean_linker_10, # of connection points: 2
#     Edge 48, Type (0, 0), BuildingBlock: TEMPAE_clean_linker_10, # of connection points: 2
#     Edge 49, Type (0, 0), BuildingBlock: TEMPAE_clean_linker_10, # of connection points: 2
#     Edge 50, Type (0, 0), BuildingBlock: TEMPAE_clean_linker_10, # of connection points: 2
#     Edge 51, Type (0, 0), BuildingBlock: TEMPAE_clean_linker_10, # of connection points: 2
#     Edge 52, Type (0, 0), BuildingBlock: TEMPAE_clean_linker_10, # of connection points: 2
#     Edge 53, Type (0, 0), BuildingBlock: TEMPAE_clean_linker_10, # of connection points: 2
# Relax obj value: 0.022
# Max RMSD: 0.034
# Mean RMSD: 0.033
data_MOF--net-unb--node1-TATPOV_clean_sbu_0--edge1-TEMPAE_clean_linker_10
_symmetry_space_group_name_H-M    P1
_symmetry_Int_Tables_number       1
_symmetry_cell_setting            triclinic
loop_
_symmetry_equiv_pos_as_xyz
'x, y, z'
_cell_length_a     66.937888
_cell_length_b     66.854353
_cell_length_c     25.037625
_cell_angle_alpha  90.078994
_cell_angle_beta   89.739788
_cell_angle_gamma 119.96913
loop_
_atom_site_label
_atom_site_type_symbol
_atom_site_fract_x
_atom_site_fract_y
_atom_site_fract_z
_atom_type_partial_charge
Zn0 Zn 0.11173 0.21371 0.04796 0.0
Zn1 Zn 0.12615 0.24459 0.12038 0.0
O2 O 0.09003 0.22682 0.12354 0.0
O3 O 0.0784 0.20033 0.0607 0.0
O4 O 0.13528 0.26499 0.1868 0.0
O5 O 0.12734 0.19718 0.07374 0.0
O6 O 0.14708 0.22925 0.11939 0.0
C7 C 0.07378 0.21032 0.09747 0.0
C8 C 0.13637 0.26109 0.00873 0.0
O9 O 0.13597 0.26641 0.05739 0.0
O10 O 0.1283 0.24018 0.99514 0.0
C11 C 0.15522 0.28248 0.19374 0.0
O12 O 0.17115 0.28759 0.15701 0.0
C13 C 0.14475 0.2103 0.10134 0.0
Zn14 Zn 0.75229 0.87478 1.00098 0.0
Zn15 Zn 0.73476 0.865 0.08402 0.0
O16 O 0.74265 0.8388 0.06539 0.0
O17 O 0.74356 0.84306 0.97851 0.0
O18 O 0.7201 0.85803 0.15906 0.0
O19 O 0.78433 0.89673 0.02327 0.0
O20 O 0.76296 0.89893 0.0868 0.0
C21 C 0.74317 0.83141 0.01849 0.0
C22 C 0.71349 0.8775 0.99444 0.0
O23 O 0.70945 0.86423 0.03459 0.0
O24 O 0.73365 0.88836 0.97541 0.0
C25 C 0.70073 0.83992 0.16805 0.0
O26 O 0.6906 0.8253 0.12871 0.0
C27 C 0.78196 0.9081 0.06058 0.0
Zn28 Zn 0.09 0.87865 0.07539 0.0
Zn29 Zn 0.10906 0.85997 0.11189 0.0
O30 O 0.13103 0.89595 0.10502 0.0
O31 O 0.10964 0.91184 0.09302 0.0
O32 O 0.11981 0.84885 0.17581 0.0
O33 O 0.05763 0.861 0.10167 0.0
O34 O 0.07294 0.83884 0.10717 0.0
C35 C 0.12934 0.91401 0.09881 0.0
C36 C 0.10935 0.85569 1.00203 0.0
O37 O 0.11689 0.85072 0.04365 0.0
O38 O 0.09815 0.86644 0.00623 0.0
C39 C 0.13865 0.84851 0.17742 0.0
O40 O 0.1522 0.85529 0.1352 0.0
C41 C 0.05506 0.84101 0.10464 0.0
Zn42 Zn 0.207 0.09335 0.93591 0.0
Zn43 Zn 0.2467 0.11216 0.91233 0.0
O44 O 0.23046 0.07597 0.90894 0.0
O45 O 0.19317 0.06184 0.90438 0.0
O46 O 0.27255 0.12563 0.85642 0.0
O47 O 0.1961 0.11511 0.9157 0.0
O48 O 0.23378 0.13495 0.91914 0.0
C49 C 0.21017 0.05855 0.90522 0.0
C50 C 0.24378 0.10772 0.02255 0.0
O51 O 0.25893 0.11587 0.9855 0.0
O52 O 0.22242 0.09814 0.01106 0.0
C53 C 0.26765 0.11801 0.80881 0.0
O54 O 0.24652 0.10151 0.79855 0.0
C55 C 0.21443 0.13437 0.91904 0.0
Zn56 Zn 0.86497 0.11782 0.05913 0.0
Zn57 Zn 0.86647 0.12418 0.96477 0.0
O58 O 0.90059 0.14574 0.98917 0.0
O59 O 0.89421 0.14671 0.07491 0.0
O60 O 0.86521 0.13118 0.88566 0.0
O61 O 0.8662 0.08917 0.05529 0.0
O62 O 0.856 0.08869 0.97183 0.0
C63 C 0.90802 0.15392 0.03574 0.0
C64 C 0.83137 0.12736 0.03828 0.0
O65 O 0.84402 0.13424 0.99658 0.0
O66 O 0.83469 0.11555 0.07259 0.0
C67 C 0.84544 0.12243 0.86379 0.0
O68 O 0.82729 0.10764 0.89145 0.0
C69 C 0.85921 0.07858 0.01158 0.0
Zn70 Zn 0.88046 0.77484 0.93796 0.0
Zn71 Zn 0.85995 0.73552 0.90177 0.0
O72 O 0.83885 0.75048 0.89622 0.0
O73 O 0.86001 0.78697 0.91827 0.0
O74 O 0.84802 0.70963 0.84615 0.0
O75 O 0.9118 0.78803 0.90603 0.0
O76 O 0.89599 0.75048 0.9008 0.0
C77 C 0.84087 0.77033 0.90368 0.0
C78 C 0.86217 0.73535 0.01564 0.0
O79 O 0.85316 0.72219 0.97542 0.0
O80 O 0.87425 0.7571 0.00929 0.0
C81 C 0.84754 0.71496 0.79751 0.0
O82 O 0.85426 0.73659 0.78593 0.0
C83 C 0.91404 0.77045 0.90154 0.0
Zn84 Zn 0.79692 0.58835 0.27985 0.0
Zn85 Zn 0.79438 0.5924 0.37482 0.0
O86 O 0.76039 0.57928 0.34902 0.0
O87 O 0.76727 0.58718 0.26359 0.0
O88 O 0.79493 0.60025 0.45407 0.0
O89 O 0.79663 0.55889 0.28348 0.0
O90 O 0.80528 0.56775 0.36798 0.0
C91 C 0.75318 0.58007 0.30226 0.0
C92 C 0.82957 0.63164 0.30325 0.0
O93 O 0.8166 0.62523 0.34444 0.0
O94 O 0.82688 0.61695 0.26819 0.0
C95 C 0.81456 0.61132 0.47656 0.0
O96 O 0.83291 0.61494 0.44939 0.0
C97 C 0.80293 0.55492 0.32769 0.0
Zn98 Zn 0.378 0.18039 0.27472 0.0
Zn99 Zn 0.38079 0.1806 0.37615 0.0
O100 O 0.40055 0.16555 0.35242 0.0
O101 O 0.39625 0.16482 0.26523 0.0
O102 O 0.37785 0.17804 0.45748 0.0
O103 O 0.39353 0.21424 0.26956 0.0
O104 O 0.39725 0.21606 0.35697 0.0
C105 C 0.40464 0.16052 0.30575 0.0
C106 C 0.33421 0.15592 0.3153 0.0
O107 O 0.34567 0.16121 0.35851 0.0
O108 O 0.34436 0.16246 0.27086 0.0
C109 C 0.36534 0.18535 0.47867 0.0
O110 O 0.35809 0.19642 0.44826 0.0
C111 C 0.40066 0.22615 0.31164 0.0
Zn112 Zn 0.77673 0.21829 0.40238 0.0
Zn113 Zn 0.7974 0.19995 0.44084 0.0
O114 O 0.81809 0.23607 0.4483 0.0
O115 O 0.79713 0.25087 0.42092 0.0
O116 O 0.80953 0.18607 0.49603 0.0
O117 O 0.74586 0.20068 0.43647 0.0
O118 O 0.76134 0.17869 0.44264 0.0
C119 C 0.81591 0.25367 0.43894 0.0
C120 C 0.79512 0.1969 0.32629 0.0
O121 O 0.80442 0.19351 0.36702 0.0
O122 O 0.78258 0.20611 0.33171 0.0
C123 C 0.81017 0.1919 0.54475 0.0
O124 O 0.80341 0.20675 0.55675 0.0
C125 C 0.74343 0.18084 0.44213 0.0
Zn126 Zn 0.90265 0.44971 0.35919 0.0
Zn127 Zn 0.92212 0.45799 0.27687 0.0
O128 O 0.91345 0.42358 0.29356 0.0
O129 O 0.90884 0.42482 0.38006 0.0
O130 O 0.93776 0.46602 0.20303 0.0
O131 O 0.87169 0.44244 0.33433 0.0
O132 O 0.89486 0.46502 0.27161 0.0
C133 C 0.91096 0.41458 0.33993 0.0
C134 C 0.94308 0.49014 0.36993 0.0
O135 O 0.94705 0.48143 0.32861 0.0
O136 O 0.92282 0.48112 0.38825 0.0
C137 C 0.95622 0.46546 0.19378 0.0
O138 O 0.96501 0.45898 0.23235 0.0
C139 C 0.87551 0.45629 0.29628 0.0
Zn140 Zn 0.55896 0.4292 0.2943 0.0
Zn141 Zn 0.53773 0.44453 0.23608 0.0
O142 O 0.57317 0.46446 0.22228 0.0
O143 O 0.58977 0.44694 0.26031 0.0
O144 O 0.52387 0.45411 0.17544 0.0
O145 O 0.53856 0.39592 0.27966 0.0
O146 O 0.51842 0.40843 0.23625 0.0
C147 C 0.59131 0.46349 0.23286 0.0
C148 C 0.53912 0.45379 0.35176 0.0
O149 O 0.53149 0.45546 0.3064 0.0
O150 O 0.55108 0.44395 0.3559 0.0
C151 C 0.52771 0.47465 0.16933 0.0
O152 O 0.54026 0.49033 0.205 0.0
C153 C 0.52061 0.39178 0.25444 0.0
Zn154 Zn 0.56812 0.12566 0.29039 0.0
Zn155 Zn 0.54704 0.08627 0.24826 0.0
O156 O 0.52837 0.10333 0.23638 0.0
O157 O 0.54908 0.13888 0.26566 0.0
O158 O 0.53423 0.05991 0.19381 0.0
O159 O 0.59979 0.13674 0.26224 0.0
O160 O 0.58271 0.09949 0.24763 0.0
C161 C 0.53071 0.12323 0.24498 0.0
C162 C 0.54583 0.08541 0.36417 0.0
O163 O 0.53811 0.07309 0.32222 0.0
O164 O 0.55882 0.10715 0.36043 0.0
C165 C 0.53219 0.06462 0.14554 0.0
O166 O 0.53814 0.08602 0.13343 0.0
C167 C 0.60118 0.11895 0.2524 0.0
Zn168 Zn 0.45403 0.9347 0.63061 0.0
Zn169 Zn 0.46114 0.93924 0.7305 0.0
O170 O 0.42578 0.92662 0.72201 0.0
O171 O 0.42262 0.93065 0.63574 0.0
O172 O 0.46707 0.94659 0.8101 0.0
O173 O 0.45832 0.90754 0.62741 0.0
O174 O 0.47125 0.91507 0.70991 0.0
C175 C 0.41365 0.92565 0.68177 0.0
C176 C 0.48923 0.9788 0.6516 0.0
O177 O 0.48231 0.97199 0.69906 0.0
O178 O 0.48063 0.96512 0.61275 0.0
C179 C 0.48775 0.95846 0.82668 0.0
O180 O 0.50469 0.96322 0.79307 0.0
C181 C 0.46764 0.90354 0.66661 0.0
Zn182 Zn 0.0958 0.55326 0.67549 0.0
Zn183 Zn 0.07455 0.5405 0.756 0.0
O184 O 0.0851 0.51608 0.74028 0.0
O185 O 0.09288 0.52344 0.65499 0.0
O186 O 0.05764 0.5313 0.82831 0.0
O187 O 0.12533 0.57823 0.70382 0.0
O188 O 0.10037 0.57536 0.76455 0.0
C189 C 0.0899 0.51069 0.69483 0.0
C190 C 0.054 0.55017 0.65957 0.0
O191 O 0.05005 0.53795 0.70164 0.0
O192 O 0.07444 0.56218 0.64268 0.0
C193 C 0.03962 0.51169 0.83563 0.0
O194 O 0.03194 0.49694 0.7958 0.0
C195 C 0.12008 0.58713 0.74194 0.0
Zn196 Zn 0.4725 0.55046 0.63819 0.0
Zn197 Zn 0.47277 0.53569 0.72897 0.0
O198 O 0.49067 0.57197 0.73447 0.0
O199 O 0.48035 0.58181 0.66011 0.0
O200 O 0.47498 0.5247 0.80398 0.0
O201 O 0.43988 0.5273 0.62487 0.0
O202 O 0.43745 0.51946 0.71067 0.0
C203 C 0.4904 0.58734 0.70464 0.0
C204 C 0.49952 0.53003 0.63719 0.0
O205 O 0.48932 0.5229 0.68203 0.0
O206 O 0.49732 0.54496 0.61108 0.0
C207 C 0.49447 0.52767 0.81884 0.0
O208 O 0.5121 0.53805 0.78595 0.0
C209 C 0.42775 0.51684 0.66521 0.0
Zn210 Zn 0.56203 0.794 0.68649 0.0
Zn211 Zn 0.58401 0.80188 0.60728 0.0
O212 O 0.5732 0.76696 0.62473 0.0
O213 O 0.56391 0.76683 0.7089 0.0
O214 O 0.60127 0.80907 0.53531 0.0
O215 O 0.53292 0.78979 0.65685 0.0
O216 O 0.5586 0.81144 0.59696 0.0
C217 C 0.56753 0.7569 0.6703 0.0
C218 C 0.60418 0.83223 0.70378 0.0
O219 O 0.60825 0.82378 0.66212 0.0
O220 O 0.58364 0.82422 0.71957 0.0
C221 C 0.61823 0.80578 0.52729 0.0
O222 O 0.62475 0.79721 0.56628 0.0
C223 C 0.53874 0.80388 0.61858 0.0
Zn224 Zn 0.20254 0.80175 0.72841 0.0
Zn225 Zn 0.19478 0.79895 0.62848 0.0
O226 O 0.22982 0.82324 0.63595 0.0
O227 O 0.23317 0.83015 0.72241 0.0
O228 O 0.18801 0.79947 0.5491 0.0
O229 O 0.19991 0.77093 0.73091 0.0
O230 O 0.1865 0.76518 0.64883 0.0
C231 C 0.24184 0.83473 0.67605 0.0
C232 C 0.1656 0.8083 0.70877 0.0
O233 O 0.17232 0.8087 0.66097 0.0
O234 O 0.17508 0.80404 0.74709 0.0
C235 C 0.19175 0.81897 0.53171 0.0
O236 O 0.20067 0.83665 0.56457 0.0
C237 C 0.19082 0.75756 0.6916 0.0
Zn238 Zn 0.21866 0.43437 0.70504 0.0
Zn239 Zn 0.20503 0.40621 0.62166 0.0
O240 O 0.18444 0.42157 0.61893 0.0
O241 O 0.19644 0.44486 0.68867 0.0
O242 O 0.19645 0.38523 0.5562 0.0
O243 O 0.25086 0.45265 0.68018 0.0
O244 O 0.24106 0.42661 0.6166 0.0
C245 C 0.18324 0.4364 0.64899 0.0
C246 C 0.1991 0.38677 0.73384 0.0
O247 O 0.19518 0.38349 0.68396 0.0
O248 O 0.20967 0.40701 0.75281 0.0
C249 C 0.1901 0.38923 0.51151 0.0
O250 O 0.18872 0.40804 0.50601 0.0
C251 C 0.25643 0.44435 0.64138 0.0
C252 C 0.18723 0.3535 0.47039 0.0
C253 C 0.18456 0.37297 0.46588 0.0
C254 C 0.18235 0.33823 0.42726 0.0
C255 C 0.17453 0.34243 0.37832 0.0
C256 C 0.17163 0.36195 0.37364 0.0
C257 C 0.1767 0.37696 0.41733 0.0
C258 C 0.18574 0.31768 0.43393 0.0
C259 C 0.16326 0.36704 0.32231 0.0
C260 C 0.1824 0.31641 0.24978 0.0
C261 C 0.16026 0.29739 0.24182 0.0
C262 C 0.18731 0.33102 0.29421 0.0
C263 C 0.16968 0.32663 0.33174 0.0
C264 C 0.14734 0.30736 0.32421 0.0
C265 C 0.14291 0.29298 0.27947 0.0
C266 C 0.21138 0.35131 0.30075 0.0
C267 C 0.12803 0.30207 0.36315 0.0
H268 H 0.19329 0.35022 0.50763 0.0
H269 H 0.17451 0.39189 0.41332 0.0
H270 H 0.16934 0.30149 0.42588 0.0
H271 H 0.19863 0.31863 0.40452 0.0
H272 H 0.19167 0.31666 0.47468 0.0
H273 H 0.16154 0.38269 0.32534 0.0
H274 H 0.17544 0.36959 0.28934 0.0
H275 H 0.14627 0.35216 0.31131 0.0
H276 H 0.19595 0.32 0.22109 0.0
H277 H 0.12574 0.27837 0.27378 0.0
H278 H 0.21849 0.3503 0.33993 0.0
H279 H 0.21087 0.36765 0.30026 0.0
H280 H 0.22329 0.3521 0.26872 0.0
H281 H 0.13303 0.2998 0.40391 0.0
H282 H 0.11174 0.28623 0.35218 0.0
H283 H 0.12476 0.31678 0.36477 0.0
C284 C 0.62514 0.82226 0.43392 0.0
C285 C 0.63065 0.81151 0.47486 0.0
C286 C 0.63683 0.82766 0.38441 0.0
C287 C 0.65442 0.82211 0.37523 0.0
C288 C 0.66011 0.81135 0.41647 0.0
C289 C 0.64825 0.80626 0.46562 0.0
C290 C 0.63025 0.83921 0.34173 0.0
C291 C 0.67861 0.80497 0.40849 0.0
C292 C 0.66879 0.81457 0.23144 0.0
C293 C 0.68924 0.83547 0.22148 0.0
C294 C 0.65736 0.81006 0.28105 0.0
C295 C 0.66641 0.82688 0.32206 0.0
C296 C 0.68704 0.84803 0.31235 0.0
C297 C 0.69822 0.85204 0.26235 0.0
C298 C 0.63555 0.78721 0.2896 0.0
C299 C 0.69727 0.86648 0.35478 0.0
H300 H 0.61166 0.82648 0.44053 0.0
H301 H 0.65271 0.79796 0.49678 0.0
H302 H 0.64563 0.85559 0.32907 0.0
H303 H 0.62381 0.82794 0.30601 0.0
H304 H 0.61671 0.84304 0.35552 0.0
H305 H 0.68129 0.79704 0.44473 0.0
H306 H 0.67388 0.79259 0.37489 0.0
H307 H 0.69518 0.82053 0.39772 0.0
H308 H 0.66165 0.80159 0.20036 0.0
H309 H 0.71394 0.86827 0.25518 0.0
H310 H 0.62107 0.79013 0.29986 0.0
H311 H 0.63779 0.77794 0.32371 0.0
H312 H 0.63072 0.77594 0.25377 0.0
H313 H 0.68452 0.87162 0.36705 0.0
H314 H 0.71321 0.88209 0.34089 0.0
H315 H 0.70141 0.85961 0.39077 0.0
C316 C 0.18977 0.84376 0.45947 0.0
C317 C 0.18483 0.8218 0.47699 0.0
C318 C 0.18228 0.84693 0.40954 0.0
C319 C 0.16946 0.82768 0.37584 0.0
C320 C 0.16478 0.8055 0.39268 0.0
C321 C 0.17252 0.80281 0.44303 0.0
C322 C 0.18776 0.87091 0.39327 0.0
C323 C 0.15124 0.78455 0.35789 0.0
C324 C 0.13186 0.83528 0.27319 0.0
C325 C 0.14579 0.84159 0.22719 0.0
C326 C 0.13901 0.82995 0.32126 0.0
C327 C 0.16063 0.83093 0.32365 0.0
C328 C 0.17447 0.83665 0.27699 0.0
C329 C 0.16691 0.8419 0.22944 0.0
C330 C 0.12369 0.82395 0.37 0.0
C331 C 0.19761 0.83788 0.27768 0.0
H332 H 0.19932 0.85859 0.48515 0.0
H333 H 0.16858 0.78577 0.45614 0.0
H334 H 0.19717 0.87569 0.3546 0.0
H335 H 0.17152 0.87128 0.3875 0.0
H336 H 0.19838 0.88415 0.42344 0.0
H337 H 0.14977 0.76866 0.37574 0.0
H338 H 0.13363 0.78175 0.3515 0.0
H339 H 0.15956 0.78737 0.31806 0.0
H340 H 0.11548 0.83488 0.27198 0.0
H341 H 0.17779 0.84665 0.19419 0.0
H342 H 0.1324 0.83746 0.40093 0.0
H343 H 0.12061 0.80739 0.38742 0.0
H344 H 0.10678 0.82247 0.36082 0.0
H345 H 0.20954 0.8521 0.30436 0.0
H346 H 0.20556 0.84094 0.2373 0.0
H347 H 0.19582 0.82163 0.2939 0.0
C348 C 0.35881 0.16222 0.56306 0.0
C349 C 0.35584 0.17845 0.5338 0.0
C350 C 0.34697 0.15317 0.61165 0.0
C351 C 0.33176 0.16047 0.63146 0.0
C352 C 0.3297 0.17775 0.60351 0.0
C353 C 0.34174 0.18651 0.55525 0.0
C354 C 0.34984 0.13494 0.64038 0.0
C355 C 0.31377 0.18613 0.62305 0.0
C356 C 0.27882 0.11923 0.7127 0.0
C357 C 0.2849 0.12812 0.76465 0.0
C358 C 0.29416 0.12919 0.66956 0.0
C359 C 0.31629 0.1486 0.67821 0.0
C360 C 0.32284 0.15731 0.73076 0.0
C361 C 0.30708 0.147 0.77333 0.0
C362 C 0.28639 0.11929 0.6143 0.0
C363 C 0.34627 0.1779 0.74177 0.0
H364 H 0.36967 0.15587 0.547 0.0
H365 H 0.33941 0.19915 0.53331 0.0
H366 H 0.35304 0.1391 0.6835 0.0
H367 H 0.3337 0.11805 0.6371 0.0
H368 H 0.36425 0.13314 0.62358 0.0
H369 H 0.31558 0.201 0.59938 0.0
H370 H 0.29562 0.17189 0.62038 0.0
H371 H 0.31724 0.19134 0.66559 0.0
H372 H 0.26182 0.1046 0.7054 0.0
H373 H 0.312 0.15399 0.81326 0.0
H374 H 0.29892 0.11496 0.59624 0.0
H375 H 0.28574 0.13235 0.58818 0.0
H376 H 0.26909 0.1035 0.6146 0.0
H377 H 0.36 0.17508 0.72477 0.0
H378 H 0.34945 0.18146 0.78519 0.0
H379 H 0.34773 0.19343 0.72204 0.0
C380 C 0.81796 0.18855 0.64122 0.0
C381 C 0.8176 0.18174 0.58798 0.0
C382 C 0.82395 0.17864 0.68319 0.0
C383 C 0.82981 0.16143 0.67202 0.0
C384 C 0.82997 0.15477 0.61829 0.0
C385 C 0.82385 0.16498 0.57693 0.0
C386 C 0.82351 0.18629 0.73978 0.0
C387 C 0.83616 0.13654 0.60461 0.0
C388 C 0.86072 0.1495 0.78481 0.0
C389 C 0.84228 0.13075 0.81097 0.0
C390 C 0.85713 0.15907 0.73818 0.0
C391 C 0.83458 0.14972 0.71713 0.0
C392 C 0.81612 0.13017 0.74205 0.0
C393 C 0.82018 0.12096 0.78846 0.0
C394 C 0.87733 0.17982 0.71276 0.0
C395 C 0.79181 0.11957 0.72106 0.0
H396 H 0.81326 0.20152 0.65039 0.0
H397 H 0.82369 0.1596 0.53601 0.0
H398 H 0.81039 0.17149 0.76348 0.0
H399 H 0.84045 0.19224 0.75906 0.0
H400 H 0.81944 0.20048 0.74164 0.0
H401 H 0.83679 0.13423 0.5608 0.0
H402 H 0.85317 0.14116 0.62185 0.0
H403 H 0.82327 0.11978 0.62243 0.0
H404 H 0.87787 0.1572 0.80171 0.0
H405 H 0.8058 0.10641 0.80802 0.0
H406 H 0.87527 0.19518 0.71793 0.0
H407 H 0.8779 0.17705 0.66921 0.0
H408 H 0.89403 0.18362 0.73058 0.0
H409 H 0.78554 0.13203 0.72564 0.0
H410 H 0.77969 0.10339 0.7424 0.0
H411 H 0.79141 0.11573 0.67785 0.0
C412 C 0.83418 0.67449 0.76454 0.0
C413 C 0.84037 0.6975 0.75391 0.0
C414 C 0.82836 0.65831 0.72285 0.0
C415 C 0.82876 0.66529 0.6692 0.0
C416 C 0.83455 0.68837 0.65844 0.0
C417 C 0.84025 0.70411 0.70075 0.0
C418 C 0.82223 0.63388 0.73609 0.0
C419 C 0.83525 0.69663 0.60197 0.0
C420 C 0.8393 0.63499 0.55273 0.0
C421 C 0.81734 0.62263 0.52955 0.0
C422 C 0.84302 0.64812 0.59935 0.0
C423 C 0.82435 0.64899 0.6238 0.0
C424 C 0.80193 0.63574 0.60204 0.0
C425 C 0.79869 0.62273 0.55521 0.0
C426 C 0.8672 0.6619 0.62108 0.0
C427 C 0.78152 0.63606 0.62693 0.0
H428 H 0.83416 0.66915 0.8054 0.0
H429 H 0.84491 0.72179 0.6919 0.0
H430 H 0.80536 0.62148 0.71825 0.0
H431 H 0.8353 0.63018 0.71858 0.0
H432 H 0.82135 0.63079 0.77984 0.0
H433 H 0.83921 0.71485 0.60042 0.0
H434 H 0.84857 0.69515 0.57857 0.0
H435 H 0.81845 0.68562 0.58214 0.0
H436 H 0.85384 0.63499 0.53356 0.0
H437 H 0.78165 0.61324 0.53779 0.0
H438 H 0.86738 0.65832 0.66427 0.0
H439 H 0.87338 0.68062 0.61686 0.0
H440 H 0.87951 0.65801 0.6 0.0
H441 H 0.78072 0.63259 0.67043 0.0
H442 H 0.76495 0.62315 0.60855 0.0
H443 H 0.7835 0.65346 0.622 0.0
C444 C 0.98739 0.47002 0.13018 0.0
C445 C 0.96807 0.47243 0.14078 0.0
C446 C -0.00096 0.47669 0.08079 0.0
C447 C 0.99136 0.48619 0.04072 0.0
C448 C 0.97191 0.48875 0.05113 0.0
C449 C 0.96048 0.4818 0.10086 0.0
C450 C 0.01955 0.47345 0.07143 0.0
C451 C 0.96318 0.49887 0.0097 0.0
C452 C 0.03413 0.52147 0.93003 0.0
C453 C 0.02725 0.50542 0.88809 0.0
C454 C 0.02246 0.51557 0.97956 0.0
C455 C 0.00348 0.49303 0.98769 0.0
C456 C -0.00358 0.47681 0.94546 0.0
C457 C 0.00831 0.48319 0.89634 0.0
C458 C 0.03051 0.53344 0.02334 0.0
C459 C 0.97639 0.45257 0.95232 0.0
H460 H 0.99345 0.4628 0.16054 0.0
H461 H 0.94565 0.48383 0.10854 0.0
H462 H 0.01629 0.46194 0.03663 0.0
H463 H 0.03502 0.49029 0.06185 0.0
H464 H 0.02343 0.4659 0.10664 0.0
H465 H 0.9481 0.50008 0.02416 0.0
H466 H 0.97711 0.51639 0.99823 0.0
H467 H 0.95812 0.4881 0.97309 0.0
H468 H 0.04866 0.5387 0.92418 0.0
H469 H 0.00278 0.47061 0.86438 0.0
H470 H 0.03604 0.52734 0.05846 0.0
H471 H 0.0161 0.53598 0.03662 0.0
H472 H 0.04512 0.55036 0.01035 0.0
H473 H 0.98004 0.44377 0.98521 0.0
H474 H 0.97282 0.44209 0.91543 0.0
H475 H 0.96062 0.4531 0.96357 0.0
C476 C 0.52344 0.50382 0.11476 0.0
C477 C 0.5197 0.4813 0.12053 0.0
C478 C 0.51759 0.51094 0.06735 0.0
C479 C 0.50787 0.49526 0.02428 0.0
C480 C 0.50339 0.4723 0.03043 0.0
C481 C 0.50929 0.46559 0.07842 0.0
C482 C 0.52254 0.53552 0.06275 0.0
C483 C 0.49313 0.45503 0.98554 0.0
C484 C 0.47961 0.50972 0.90957 0.0
C485 C 0.49751 0.51927 0.87164 0.0
C486 C 0.48266 0.50182 0.95943 0.0
C487 C 0.50406 0.50336 0.97158 0.0
C488 C 0.52211 0.51289 0.93332 0.0
C489 C 0.51865 0.52075 0.88411 0.0
C490 C 0.46304 0.49193 0.9992 0.0
C491 C 0.54517 0.51478 0.94433 0.0
H492 H 0.53134 0.51609 0.14704 0.0
H493 H 0.50628 0.44816 0.08235 0.0
H494 H 0.53611 0.54483 0.03211 0.0
H495 H 0.50689 0.5358 0.0495 0.0
H496 H 0.52844 0.54504 0.10111 0.0
H497 H 0.48921 0.43747 0.9978 0.0
H498 H 0.47702 0.45408 0.97118 0.0
H499 H 0.50536 0.4607 0.95136 0.0
H500 H 0.46323 0.5085 0.90043 0.0
H501 H 0.53261 0.528 0.85519 0.0
H502 H 0.46848 0.50212 0.03668 0.0
H503 H 0.45836 0.47397 0.00955 0.0
H504 H 0.44747 0.49186 0.98374 0.0
H505 H 0.55313 0.52572 0.98002 0.0
H506 H 0.55734 0.52233 0.91015 0.0
H507 H 0.54278 0.49746 0.95318 0.0
C508 C 0.51931 0.02416 0.11335 0.0
C509 C 0.52389 0.0467 0.10287 0.0
C510 C 0.51232 0.00755 0.0723 0.0
C511 C 0.5098 0.01359 0.0195 0.0
C512 C 0.51399 0.03618 0.009 0.0
C513 C 0.52097 0.05239 0.05062 0.0
C514 C 0.50803 0.98368 0.0852 0.0
C515 C 0.51148 0.04341 0.95343 0.0
C516 C 0.51583 0.9831 0.89719 0.0
C517 C 0.49289 0.96981 0.88009 0.0
C518 C 0.52144 0.99653 0.94386 0.0
C519 C 0.50372 0.9968 0.97445 0.0
C520 C 0.48043 0.98254 0.95893 0.0
C521 C 0.47529 0.96921 0.91202 0.0
C522 C 0.54649 0.01134 0.95894 0.0
C523 C 0.461 0.98223 0.99041 0.0
H524 H 0.52148 0.01955 0.15352 0.0
H525 H 0.52434 0.06968 0.04194 0.0
H526 H 0.49053 0.97047 0.07196 0.0
H527 H 0.52055 0.98044 0.06317 0.0
H528 H 0.50963 0.98133 0.12858 0.0
H529 H 0.5146 0.06136 0.95219 0.0
H530 H 0.52388 0.0422 0.92594 0.0
H531 H 0.49391 0.03161 0.93806 0.0
H532 H 0.52958 0.98362 0.87312 0.0
H533 H 0.45751 0.95901 0.89933 0.0
H534 H 0.54904 0.00861 1.00148 0.0
H535 H 0.55178 0.02984 0.95414 0.0
H536 H 0.55802 0.00765 0.93393 0.0
H537 H 0.4627 0.97954 0.03349 0.0
H538 H 0.44381 0.96851 0.97652 0.0
H539 H 0.46184 -0.00084 0.98637 0.0
C540 C 0.15741 0.27658 0.9232 0.0
C541 C 0.1461 0.27915 0.96763 0.0
C542 C 0.16671 0.29358 0.88344 0.0
C543 C 0.16393 0.31314 0.88764 0.0
C544 C 0.15223 0.31565 0.93215 0.0
C545 C 0.14377 0.29875 0.97219 0.0
C546 C 0.17973 0.29074 0.83738 0.0
C547 C 0.14848 0.33606 0.93721 0.0
C548 C 0.20395 0.36869 0.81539 0.0
C549 C 0.19085 0.36709 0.77047 0.0
C550 C 0.19573 0.35079 0.85288 0.0
C551 C 0.17358 0.33126 0.84597 0.0
C552 C 0.16039 0.32944 0.80027 0.0
C553 C 0.16939 0.3473 0.76246 0.0
C554 C 0.21057 0.35296 0.90028 0.0
C555 C 0.13646 0.30909 0.7924 0.0
H556 H 0.15934 0.26146 0.92006 0.0
H557 H 0.13482 0.30056 0.00644 0.0
H558 H 0.17124 0.29027 0.7991 0.0
H559 H 0.1975 0.30577 0.83557 0.0
H560 H 0.18079 0.27473 0.84078 0.0
H561 H 0.13813 0.33486 0.97312 0.0
H562 H 0.16533 0.35228 0.93958 0.0
H563 H 0.13951 0.33729 0.90128 0.0
H564 H 0.22065 0.384 0.82117 0.0
H565 H 0.15924 0.34625 0.72782 0.0
H566 H 0.2123 0.33735 0.90371 0.0
H567 H 0.20228 0.35424 0.93757 0.0
H568 H 0.22808 0.36838 0.89738 0.0
H569 H 0.13694 0.29275 0.79292 0.0
H570 H 0.12865 0.31014 0.75421 0.0
H571 H 0.12512 0.30825 0.82583 0.0
C572 C 0.64347 0.8475 0.74137 0.0
C573 C 0.62277 0.84787 0.7399 0.0
C574 C 0.65828 0.85667 0.78522 0.0
C575 C 0.65225 0.86663 0.8279 0.0
C576 C 0.63264 0.86925 0.82378 0.0
C577 C 0.61805 0.85973 0.77979 0.0
C578 C 0.6793 0.8539 0.78792 0.0
C579 C 0.62601 0.88033 0.86772 0.0
C580 C 0.6735 0.85697 0.95932 0.0
C581 C 0.69487 0.87724 0.96301 0.0
C582 C 0.65848 0.85394 0.91726 0.0
C583 C 0.66503 0.87174 0.87885 0.0
C584 C 0.68535 0.89319 0.88614 0.0
C585 C 0.70013 0.89566 0.92815 0.0
C586 C 0.63671 0.83089 0.91114 0.0
C587 C 0.69259 0.91279 0.84696 0.0
H588 H 0.64719 0.83839 0.71058 0.0
H589 H 0.60216 0.86032 0.77833 0.0
H590 H 0.69477 0.87053 0.79844 0.0
H591 H 0.67681 0.84128 0.81969 0.0
H592 H 0.68266 0.8477 0.74957 0.0
H593 H 0.61326 0.88519 0.85384 0.0
H594 H 0.61822 0.86799 0.90138 0.0
H595 H 0.64137 0.89596 0.88331 0.0
H596 H 0.66942 0.84274 0.98627 0.0
H597 H 0.71658 0.9115 0.93149 0.0
H598 H 0.63857 0.82159 0.87642 0.0
H599 H 0.62177 0.83333 0.90322 0.0
H600 H 0.63289 0.81987 0.94718 0.0
H601 H 0.69983 0.90923 0.8106 0.0
H602 H 0.70597 0.92951 0.86399 0.0
H603 H 0.67762 0.91448 0.83451 0.0
C604 C 0.10092 0.84926 0.90431 0.0
C605 C 0.11365 0.8492 0.9487 0.0
C606 C 0.1049 0.84308 0.85343 0.0
C607 C 0.1221 0.83688 0.84706 0.0
C608 C 0.13513 0.83703 0.89173 0.0
C609 C 0.13063 0.84304 0.94202 0.0
C610 C 0.09043 0.84272 0.80699 0.0
C611 C 0.15385 0.83074 0.8866 0.0
C612 C 0.12825 0.79871 0.74793 0.0
C613 C 0.14847 0.81494 0.72212 0.0
C614 C 0.11693 0.80586 0.78371 0.0
C615 C 0.12662 0.8297 0.79446 0.0
C616 C 0.145 0.84611 0.7624 0.0
C617 C 0.15575 0.83845 0.72615 0.0
C618 C 0.09687 0.78782 0.81577 0.0
C619 C 0.15561 0.8717 0.77208 0.0
H620 H 0.08761 0.85385 0.90941 0.0
H621 H 0.1406 0.84313 0.97612 0.0
H622 H 0.10139 0.85136 0.77158 0.0
H623 H 0.07827 0.82456 0.79564 0.0
H624 H 0.08025 0.85123 0.81687 0.0
H625 H 0.16287 0.83252 0.92496 0.0
H626 H 0.14631 0.81263 0.87277 0.0
H627 H 0.16682 0.84196 0.85644 0.0
H628 H 0.12277 0.7805 0.74469 0.0
H629 H 0.17155 0.85093 0.7063 0.0
H630 H 0.08402 0.7933 0.82398 0.0
H631 H 0.10324 0.78539 0.85472 0.0
H632 H 0.08821 0.77093 0.79479 0.0
H633 H 0.14222 0.87634 0.78134 0.0
H634 H 0.16582 0.88192 0.73701 0.0
H635 H 0.16734 0.87665 0.80692 0.0
C636 C 0.29988 0.11836 0.30231 0.0
C637 C 0.30913 0.14177 0.31435 0.0
C638 C 0.28141 0.10749 0.26664 0.0
C639 C 0.27256 0.12066 0.24302 0.0
C640 C 0.27844 0.14246 0.26472 0.0
C641 C 0.29691 0.1529 0.30047 0.0
C642 C 0.27447 0.08358 0.24695 0.0
C643 C 0.2684 0.15652 0.24279 0.0
C644 C 0.27425 0.12174 0.09213 0.0
C645 C 0.25084 0.1098 0.07904 0.0
C646 C 0.28135 0.12492 0.14538 0.0
C647 C 0.26458 0.11578 0.18686 0.0
C648 C 0.24089 0.10309 0.17398 0.0
C649 C 0.23428 0.10038 0.12011 0.0
C650 C 0.30691 0.13855 0.15703 0.0
C651 C 0.22242 0.09296 0.21656 0.0
H652 H 0.30926 0.10969 0.31369 0.0
H653 H 0.304 0.17099 0.31046 0.0
H654 H 0.2559 0.07391 0.23644 0.0
H655 H 0.28458 0.08495 0.21047 0.0
H656 H 0.27799 0.07368 0.27741 0.0
H657 H 0.27075 0.17038 0.27097 0.0
H658 H 0.27723 0.16472 0.20469 0.0
H659 H 0.24975 0.14538 0.23438 0.0
H660 H 0.28712 0.12899 0.06068 0.0
H661 H 0.21609 0.09105 0.11033 0.0
H662 H 0.31212 0.12797 0.18098 0.0
H663 H 0.31092 0.15416 0.18062 0.0
H664 H 0.31758 0.14415 0.12007 0.0
H665 H 0.22842 0.08812 0.25296 0.0
H666 H 0.20671 0.07747 0.20152 0.0
H667 H 0.21749 0.10595 0.22801 0.0
C668 C 0.79811 0.12443 0.08792 0.0
C669 C 0.81698 0.13725 0.05408 0.0
C670 C 0.79031 0.13556 0.12247 0.0
C671 C 0.80201 0.15997 0.12336 0.0
C672 C 0.8185 0.17267 0.08324 0.0
C673 C 0.82577 0.16105 0.04853 0.0
C674 C 0.77196 0.12132 0.16321 0.0
C675 C 0.83083 0.19869 0.08188 0.0
C676 C 0.78366 0.1878 0.23047 0.0
C677 C 0.79802 0.1893 0.27288 0.0
C678 C 0.78519 0.17907 0.18056 0.0
C679 C 0.80145 0.1717 0.17316 0.0
C680 C 0.81656 0.17399 0.21527 0.0
C681 C 0.81459 0.18268 0.26464 0.0
C682 C 0.76871 0.17682 0.13692 0.0
C683 C 0.83439 0.16656 0.20885 0.0
H684 H 0.79107 0.10593 0.09142 0.0
H685 H 0.84028 0.17096 0.02198 0.0
H686 H 0.7803 0.12186 0.20183 0.0
H687 H 0.76028 0.12838 0.16999 0.0
H688 H 0.76153 0.10299 0.15064 0.0
H689 H 0.83886 0.20551 0.04221 0.0
H690 H 0.81887 0.20516 0.0915 0.0
H691 H 0.84469 0.20562 0.11233 0.0
H692 H 0.77073 0.19284 0.23662 0.0
H693 H 0.82585 0.18399 0.29708 0.0
H694 H 0.75408 0.15882 0.13614 0.0
H695 H 0.77717 0.18062 0.0971 0.0
H696 H 0.76161 0.1885 0.14376 0.0
H697 H 0.82567 0.14765 0.20194 0.0
H698 H 0.84558 0.17068 0.24453 0.0
H699 H 0.84551 0.17517 0.17362 0.0
C700 C 0.87383 0.73896 0.11155 0.0
C701 C 0.85962 0.72543 0.06955 0.0
C702 C 0.87281 0.72925 0.16184 0.0
C703 C 0.85724 0.70549 0.17005 0.0
C704 C 0.84222 0.692 0.12839 0.0
C705 C 0.84367 0.70214 0.07864 0.0
C706 C 0.88915 0.74423 0.20495 0.0
C707 C 0.82511 0.66658 0.13563 0.0
C708 C 0.86264 0.66292 0.25517 0.0
C709 C 0.84352 0.65612 0.28869 0.0
C710 C 0.86991 0.68184 0.22093 0.0
C711 C 0.85743 0.69377 0.22009 0.0
C712 C 0.84078 0.6894 0.26024 0.0
C713 C 0.83403 0.67051 0.29462 0.0
C714 C 0.88851 0.68667 0.18027 0.0
C715 C 0.82772 0.70236 0.26183 0.0
H716 H 0.88627 0.75703 0.10478 0.0
H717 H 0.83252 0.69167 0.04652 0.0
H718 H 0.88115 0.73917 0.24519 0.0
H719 H 0.90463 0.74222 0.20453 0.0
H720 H 0.89495 0.76277 0.19826 0.0
H721 H 0.81388 0.65893 0.1002 0.0
H722 H 0.83446 0.65703 0.14283 0.0
H723 H 0.81398 0.66391 0.17094 0.0
H724 H 0.87025 0.65196 0.25145 0.0
H725 H 0.81937 0.66538 0.32101 0.0
H726 H 0.89964 0.7055 0.17369 0.0
H727 H 0.88037 0.67872 0.14157 0.0
H728 H 0.89947 0.67938 0.19281 0.0
H729 H 0.8392 0.72088 0.25214 0.0
H730 H 0.81967 0.70092 0.3016 0.0
H731 H 0.81381 0.695 0.23153 0.0
C732 C 0.98299 0.50826 0.40534 0.0
C733 C 0.96182 0.50763 0.40288 0.0
C734 C -0.00183 0.5195 0.44768 0.0
C735 C 0.99201 0.5305 0.48766 0.0
C736 C 0.97184 0.53205 0.48196 0.0
C737 C 0.95689 0.52046 0.43964 0.0
C738 C 0.01975 0.51777 0.45214 0.0
C739 C 0.96503 0.54418 0.52289 0.0
C740 C 0.01442 0.52665 0.62311 0.0
C741 C 0.03526 0.54757 0.62454 0.0
C742 C -0.0007 0.52143 0.58003 0.0
C743 C 0.00518 0.53772 0.53816 0.0
C744 C 0.02499 0.55979 0.5424 0.0
C745 C 0.03989 0.56444 0.58555 0.0
C746 C 0.97809 0.49777 0.57713 0.0
C747 C 0.03147 0.57782 0.49936 0.0
H748 H 0.98682 0.49836 0.37695 0.0
H749 H 0.94059 0.52021 0.4373 0.0
H750 H 0.03491 0.53498 0.46025 0.0
H751 H 0.01793 0.50634 0.48617 0.0
H752 H 0.02317 0.51066 0.41532 0.0
H753 H 0.95163 0.5478 0.50734 0.0
H754 H 0.95798 0.53308 0.55883 0.0
H755 H 0.98018 0.56066 0.53562 0.0
H756 H 0.0108 0.51361 0.65322 0.0
H757 H 0.05591 0.5808 0.58703 0.0
H758 H 0.98022 0.48775 0.54442 0.0
H759 H 0.96266 0.49919 0.56789 0.0
H760 H 0.97491 0.48795 0.615 0.0
H761 H 0.03871 0.57328 0.46453 0.0
H762 H 0.04459 0.59527 0.51344 0.0
H763 H 0.01611 0.57849 0.48539 0.0
C764 C 0.50103 0.49469 0.61409 0.0
C765 C 0.51083 0.51869 0.61079 0.0
C766 C 0.50727 0.48288 0.57737 0.0
C767 C 0.52394 0.49556 0.53754 0.0
C768 C 0.5356 0.51998 0.53793 0.0
C769 C 0.5287 0.53126 0.57433 0.0
C770 C 0.49446 0.45682 0.57807 0.0
C771 C 0.5539 0.53413 0.49697 0.0
C772 C 0.5474 0.46677 0.4466 0.0
C773 C 0.53457 0.46362 0.39995 0.0
C774 C 0.54388 0.47677 0.49225 0.0
C775 C 0.52697 0.4835 0.49129 0.0
C776 C 0.51358 0.47986 0.4448 0.0
C777 C 0.51767 0.4701 0.39949 0.0
C778 C 0.55865 0.4807 0.5409 0.0
C779 C 0.49519 0.48665 0.44259 0.0
H780 H 0.4871 0.48499 0.64218 0.0
H781 H 0.53638 0.54988 0.57223 0.0
H782 H 0.48191 0.45028 0.54472 0.0
H783 H 0.50647 0.45011 0.57208 0.0
H784 H 0.48486 0.44978 0.6161 0.0
H785 H 0.56364 0.55272 0.50778 0.0
H786 H 0.56625 0.52774 0.4924 0.0
H787 H 0.54567 0.53246 0.4576 0.0
H788 H 0.56058 0.46186 0.44714 0.0
H789 H 0.50761 0.46755 0.36371 0.0
H790 H 0.54766 0.47306 0.5768 0.0
H791 H 0.56954 0.49951 0.54828 0.0
H792 H 0.57008 0.47319 0.53629 0.0
H793 H 0.48286 0.47861 0.47624 0.0
H794 H 0.48541 0.48141 0.40454 0.0
H795 H 0.50322 0.50564 0.44685 0.0
C796 C 0.49768 0.01861 0.63763 0.0
C797 C 0.50566 0.00289 0.63931 0.0
C798 C 0.50789 0.03756 0.60277 0.0
C799 C 0.52637 0.04051 0.56961 0.0
C800 C 0.53672 0.02679 0.57802 0.0
C801 C 0.52599 0.00785 0.61256 0.0
C802 C 0.49672 0.05217 0.59583 0.0
C803 C 0.55691 0.02986 0.54472 0.0
C804 C 0.52278 0.05143 0.42296 0.0
C805 C 0.54015 0.07448 0.41743 0.0
C806 C 0.51774 0.04052 0.47279 0.0
C807 C 0.53056 0.05294 0.51819 0.0
C808 C 0.54778 0.07639 0.51321 0.0
C809 C 0.55238 0.08692 0.46275 0.0
C810 C 0.499 0.01547 0.47648 0.0
C811 C 0.56191 0.09013 0.56048 0.0
H812 H 0.4818 0.01455 0.65827 0.0
H813 H 0.53203 0.99552 0.61407 0.0
H814 H 0.50981 0.07043 0.58766 0.0
H815 H 0.48486 0.04566 0.56119 0.0
H816 H 0.48655 0.05142 0.63174 0.0
H817 H 0.56578 0.02138 0.56347 0.0
H818 H 0.55064 0.02198 0.50483 0.0
H819 H 0.56956 0.04842 0.53866 0.0
H820 H 0.51316 0.04181 0.38821 0.0
H821 H 0.56592 0.10478 0.45869 0.0
H822 H 0.48604 0.01336 0.50708 0.0
H823 H 0.50654 0.00474 0.48894 0.0
H824 H 0.48998 0.00871 0.43789 0.0
H825 H 0.551 0.08636 0.59672 0.0
H826 H 0.57088 0.109 0.55262 0.0
H827 H 0.57515 0.08524 0.56922 0.0
C828 C 0.18347 0.22234 0.06561 0.0
C829 C 0.16457 0.20661 0.09642 0.0
C830 C 0.19718 0.21524 0.03793 0.0
C831 C 0.19212 0.19206 0.04256 0.0
C832 C 0.17507 0.17714 0.07953 0.0
C833 C 0.1612 0.18448 0.10533 0.0
C834 C 0.2151 0.23172 0.99899 0.0
C835 C 0.16973 0.15257 0.08742 0.0
C836 C 0.19376 0.15659 0.92654 0.0
C837 C 0.21282 0.15428 0.93945 0.0
C838 C 0.18811 0.17067 0.95722 0.0
C839 C 0.20142 0.1821 1.00291 0.0
C840 C 0.22172 0.18125 0.0136 0.0
C841 C 0.22735 0.16756 0.98125 0.0
C842 C 0.16675 0.17176 0.94318 0.0
C843 C 0.23627 0.19288 0.06207 0.0
H844 H 0.18581 0.23935 0.05785 0.0
H845 H 0.14644 0.17225 0.1287 0.0
H846 H 0.23059 0.22974 0.99876 0.0
H847 H 0.20777 0.22786 0.95812 0.0
H848 H 0.22044 0.24996 0.00835 0.0
H849 H 0.15896 0.14461 0.12358 0.0
H850 H 0.16021 0.14208 0.05221 0.0
H851 H 0.18586 0.15183 0.09101 0.0
H852 H 0.1825 0.14634 0.89434 0.0
H853 H 0.24195 0.16558 0.99195 0.0
H854 H 0.17032 0.18984 0.94483 0.0
H855 H 0.15292 0.16159 0.97267 0.0
H856 H 0.16026 0.16472 0.90273 0.0
H857 H 0.23805 0.21009 0.06882 0.0
H858 H 0.25375 0.19491 0.0584 0.0
H859 H 0.22775 0.18216 0.09788 0.0
C860 C 0.86231 0.04599 0.04948 0.0
C861 C 0.85277 0.05396 0.01083 0.0
C862 C 0.85328 0.02238 0.05874 0.0
C863 C 0.8343 0.00625 0.02834 0.0
C864 C 0.8256 0.01409 0.98666 0.0
C865 C 0.83498 0.03795 0.97832 0.0
C866 C 0.86319 0.01478 0.10324 0.0
C867 C 0.80558 0.9973 0.95284 0.0
C868 C 0.81772 0.94306 0.02888 0.0
C869 C 0.79821 0.93333 0.06241 0.0
C870 C 0.82996 0.96683 0.01827 0.0
C871 C 0.82273 0.9813 0.04235 0.0
C872 C 0.80416 0.97189 0.07935 0.0
C873 C 0.79209 0.94798 0.08893 0.0
C874 C 0.84979 0.97623 0.97897 0.0
C875 C 0.7963 0.98691 0.1068 0.0
H876 H 0.87627 0.05831 0.07441 0.0
H877 H 0.82751 0.04402 0.94859 0.0
H878 H 0.85034 0.00705 0.13603 0.0
H879 H 0.86698 0.00132 0.0889 0.0
H880 H 0.87925 0.02937 0.1198 0.0
H881 H 0.80214 0.006 0.91928 0.0
H882 H 0.80897 0.98387 0.93632 0.0
H883 H 0.78982 0.98838 0.97798 0.0
H884 H 0.8227 0.93192 0.00835 0.0
H885 H 0.77705 0.94067 0.11481 0.0
H886 H 0.86523 0.99127 0.99617 0.0
H887 H 0.84506 0.98234 0.94256 0.0
H888 H 0.85443 0.96304 0.96705 0.0
H889 H 0.81105 0.00161 0.12702 0.0
H890 H 0.78252 0.97719 0.13682 0.0
H891 H 0.78963 0.99424 0.07667 0.0
C892 C 0.9568 0.79369 0.90806 0.0
C893 C 0.93637 0.77286 0.91752 0.0
C894 C 0.97659 0.79994 0.93866 0.0
C895 C 0.97567 0.78526 0.9806 0.0
C896 C 0.95583 0.76322 0.98674 0.0
C897 C 0.93648 0.75715 0.95458 0.0
C898 C -0.00228 0.82325 0.92939 0.0
C899 C 0.95402 0.74706 0.03091 0.0
C900 C 0.03308 0.8058 0.04931 0.0
C901 C 0.03289 0.82144 0.08655 0.0
C902 C 0.01393 0.79253 0.01655 0.0
C903 C 0.99399 0.7946 0.02217 0.0
C904 C 0.99283 0.80834 0.06395 0.0
C905 C 0.01241 0.82185 0.09516 0.0
C906 C 0.01599 0.77821 0.97256 0.0
C907 C 0.97158 0.81038 0.07265 0.0
H908 H 0.95679 0.80585 0.87948 0.0
H909 H 0.92067 0.7411 0.96258 0.0
H910 H -0.00079 0.83518 0.962 0.0
H911 H 0.01354 0.82183 0.92989 0.0
H912 H -0.00305 0.83098 0.89075 0.0
H913 H 0.94002 0.72908 0.02328 0.0
H914 H 0.97049 0.7471 0.03605 0.0
H915 H 0.95015 0.75291 0.06908 0.0
H916 H 0.04896 0.80559 0.04194 0.0
H917 H 0.01221 0.83391 0.12387 0.0
H918 H 0.01974 0.78782 0.9343 0.0
H919 H -0.00036 0.76164 0.9675 0.0
H920 H 0.03015 0.77449 0.98033 0.0
H921 H 0.97 0.82055 0.03959 0.0
H922 H 0.97225 0.81909 0.11097 0.0
H923 H 0.95585 0.79307 0.07248 0.0
C924 C 0.82307 0.79519 0.90272 0.0
C925 C 0.82036 0.77311 0.90773 0.0
C926 C 0.80597 0.79985 0.92082 0.0
C927 C 0.7857 0.782 0.94502 0.0
C928 C 0.7821 0.75927 0.94668 0.0
C929 C 0.79949 0.75505 0.92773 0.0
C930 C 0.8103 0.82425 0.91697 0.0
C931 C 0.76073 0.73975 0.97185 0.0
C932 C 0.76258 0.80898 0.04204 0.0
C933 C 0.74773 0.81225 0.00866 0.0
C934 C 0.77346 0.7969 0.02365 0.0
C935 C 0.76923 0.78791 0.97093 0.0
C936 C 0.75205 0.78869 0.93992 0.0
C937 C 0.74152 0.80089 0.95917 0.0
C938 C 0.7913 0.79594 0.05848 0.0
C939 C 0.74661 0.77894 0.88407 0.0
H940 H 0.83917 0.80917 0.88724 0.0
H941 H 0.79742 0.73799 0.93236 0.0
H942 H 0.79551 0.82438 0.89752 0.0
H943 H 0.81202 0.83153 0.95766 0.0
H944 H 0.82622 0.83573 0.89396 0.0
H945 H 0.75838 0.72263 0.96056 0.0
H946 H 0.7622 0.74137 0.01596 0.0
H947 H 0.7451 0.74043 0.96025 0.0
H948 H 0.76741 0.8177 0.08032 0.0
H949 H 0.72977 0.80313 0.9335 0.0
H950 H 0.80878 0.80855 0.04352 0.0
H951 H 0.78956 0.77856 0.05685 0.0
H952 H 0.78989 0.80018 0.10075 0.0
H953 H 0.76048 0.79087 0.85647 0.0
H954 H 0.72998 0.7768 0.86966 0.0
H955 H 0.74586 0.762 0.88213 0.0
C956 C 0.16562 0.93563 0.04648 0.0
C957 C 0.14957 0.93603 0.08212 0.0
C958 C 0.18012 0.95508 0.0153 0.0
C959 C 0.17885 0.97548 0.021 0.0
C960 C 0.16448 0.97666 0.06118 0.0
C961 C 0.14975 0.95681 0.09069 0.0
C962 C 0.19503 0.95296 0.97285 0.0
C963 C 0.16322 -0.00164 0.07001 0.0
C964 C 0.22008 0.03372 0.95979 0.0
C965 C 0.2059 0.03542 0.92098 0.0
C966 C 0.21226 0.01358 0.99053 0.0
C967 C 0.19 0.99455 0.98118 0.0
C968 C 0.17688 0.99523 0.93765 0.0
C969 C 0.18485 0.01578 0.9085 0.0
C970 C 0.2268 0.0137 0.03655 0.0
C971 C 0.15341 0.97499 0.92496 0.0
H972 H 0.16533 0.91949 0.03912 0.0
H973 H 0.13734 0.95713 0.11814 0.0
H974 H 0.18652 0.95035 0.93348 0.0
H975 H 0.21209 0.96893 0.97015 0.0
H976 H 0.19768 0.93809 0.98049 0.0
H977 H 0.15371 0.99747 0.10724 0.0
H978 H 0.1808 0.01365 0.07216 0.0
H979 H 0.15427 0.00098 0.03584 0.0
H980 H 0.23631 0.04888 0.97007 0.0
H981 H 0.17387 0.01699 0.87849 0.0
H982 H 0.22587 0.99675 0.04081 0.0
H983 H 0.22016 0.01709 0.07417 0.0
H984 H 0.24515 0.02734 0.03172 0.0
H985 H 0.15391 0.95865 0.92526 0.0
H986 H 0.14707 0.97691 0.88544 0.0
H987 H 0.14086 0.97355 0.95597 0.0
C988 C 0.94945 0.17494 0.00593 0.0
C989 C 0.93298 0.16883 0.04667 0.0
C990 C 0.97303 0.1851 0.0181 0.0
C991 C 0.98015 0.18884 0.07221 0.0
C992 C 0.96379 0.18425 0.11307 0.0
C993 C 0.94047 0.17452 0.09977 0.0
C994 C 0.99012 0.19043 0.97327 0.0
C995 C 0.97059 0.18779 0.17125 0.0
C996 C 0.03198 0.18192 0.09897 0.0
C997 C 0.04971 0.20488 0.10322 0.0
C998 C 0.0091 0.17651 0.09143 0.0
C999 C 0.00397 0.19457 0.08637 0.0
C1000 C 0.0217 0.21779 0.09295 0.0
C1001 C 0.04441 0.22268 0.10196 0.0
C1002 C 0.99059 0.15146 0.08637 0.0
C1003 C 0.01699 0.23752 0.08692 0.0
H1004 H 0.94388 0.17083 0.96481 0.0
H1005 H 0.92794 0.17012 0.13165 0.0
H1006 H 0.00546 0.2078 0.97874 0.0
H1007 H -0.00386 0.17769 0.97368 0.0
H1008 H 0.98247 0.18975 0.93356 0.0
H1009 H 0.95646 0.18625 0.19749 0.0
H1010 H 0.9751 0.17461 0.18375 0.0
H1011 H 0.98605 0.20498 0.17758 0.0
H1012 H 0.03619 0.16822 0.09958 0.0
H1013 H 0.05826 0.24048 0.10407 0.0
H1014 H 0.98381 0.14797 0.045 0.0
H1015 H 0.97595 0.14758 0.11355 0.0
H1016 H -0.00288 0.13952 0.0958 0.0
H1017 H 0.01318 0.23894 0.04445 0.0
H1018 H 0.03192 0.25426 0.09946 0.0
H1019 H 0.00165 0.23434 0.11068 0.0
C1020 C 0.82566 0.53748 0.36453 0.0
C1021 C 0.80913 0.53657 0.32905 0.0
C1022 C 0.83453 0.52244 0.35839 0.0
C1023 C 0.82656 0.50619 0.31597 0.0
C1024 C 0.80889 0.50435 0.28216 0.0
C1025 C 0.80039 0.51951 0.28918 0.0
C1026 C 0.85318 0.52465 0.39565 0.0
C1027 C 0.79978 0.48718 0.2368 0.0
C1028 C 0.86822 0.48753 0.26452 0.0
C1029 C 0.86038 0.46648 0.29123 0.0
C1030 C 0.85698 0.50036 0.27114 0.0
C1031 C 0.83745 0.4919 0.30519 0.0
C1032 C 0.82855 0.46996 0.32935 0.0
C1033 C 0.84005 0.45747 0.32186 0.0
C1034 C 0.86668 0.52351 0.24379 0.0
C1035 C 0.80762 0.46023 0.36542 0.0
H1036 H 0.8325 0.55066 0.39523 0.0
H1037 H 0.78739 0.51854 0.26194 0.0
H1038 H 0.84848 0.50756 0.41288 0.0
H1039 H 0.86951 0.53078 0.373 0.0
H1040 H 0.8563 0.53692 0.42881 0.0
H1041 H 0.78476 0.4867 0.21684 0.0
H1042 H 0.81359 0.49179 0.20659 0.0
H1043 H 0.79456 0.46959 0.2515 0.0
H1044 H 0.88391 0.49466 0.2409 0.0
H1045 H 0.83377 0.44115 0.3425 0.0
H1046 H 0.873 0.53741 0.27423 0.0
H1047 H 0.85301 0.52434 0.22069 0.0
H1048 H 0.88116 0.52703 0.2163 0.0
H1049 H 0.81168 0.47108 0.40176 0.0
H1050 H 0.80187 0.4422 0.37789 0.0
H1051 H 0.79311 0.46058 0.34512 0.0
C1052 C 0.47852 0.36381 0.26309 0.0
C1053 C 0.50099 0.36793 0.25478 0.0
C1054 C 0.46035 0.34147 0.27458 0.0
C1055 C 0.46474 0.32284 0.27646 0.0
C1056 C 0.48723 0.32683 0.26573 0.0
C1057 C 0.50514 0.34937 0.25571 0.0
C1058 C 0.43668 0.33795 0.28666 0.0
C1059 C 0.49249 0.30733 0.26571 0.0
C1060 C 0.42653 0.26607 0.34861 0.0
C1061 C 0.41449 0.25162 0.30569 0.0
C1062 C 0.44208 0.28974 0.34026 0.0
C1063 C 0.4458 0.29896 0.28779 0.0
C1064 C 0.4328 0.2847 0.24497 0.0
C1065 C 0.41721 0.26134 0.25452 0.0
C1066 C 0.4553 0.30463 0.38711 0.0
C1067 C 0.43636 0.29373 0.18837 0.0
H1068 H 0.47539 0.37823 0.26355 0.0
H1069 H 0.52255 0.35258 0.24961 0.0
H1070 H 0.42371 0.32472 0.25966 0.0
H1071 H 0.43162 0.33144 0.32811 0.0
H1072 H 0.436 0.35414 0.2824 0.0
H1073 H 0.51072 0.31324 0.25485 0.0
H1074 H 0.48899 0.29922 0.30583 0.0
H1075 H 0.48111 0.29378 0.23699 0.0
H1076 H 0.42445 0.25877 0.38825 0.0
H1077 H 0.4078 0.25047 0.22101 0.0
H1078 H 0.4547 0.32092 0.38702 0.0
H1079 H 0.47368 0.30936 0.3838 0.0
H1080 H 0.44842 0.29568 0.42588 0.0
H1081 H 0.43504 0.3096 0.1865 0.0
H1082 H 0.42366 0.28084 0.16022 0.0
H1083 H 0.45395 0.29841 0.17458 0.0
C1084 C 0.64399 0.14047 0.25763 0.0
C1085 C 0.62315 0.11984 0.26506 0.0
C1086 C 0.66377 0.14489 0.2862 0.0
C1087 C 0.66243 0.12852 0.32412 0.0
C1088 C 0.64211 0.10671 0.32768 0.0
C1089 C 0.62273 0.10252 0.29753 0.0
C1090 C 0.68541 0.16803 0.27956 0.0
C1091 C 0.6399 0.08876 0.36739 0.0
C1092 C 0.72022 0.146 0.38706 0.0
C1093 C 0.72088 0.16105 0.4271 0.0
C1094 C 0.70051 0.13358 0.35534 0.0
C1095 C 0.68091 0.13589 0.36499 0.0
C1096 C 0.68054 0.14863 0.40996 0.0
C1097 C 0.70067 0.16134 0.44005 0.0
C1098 C 0.70173 0.12025 0.30797 0.0
C1099 C 0.65968 0.15084 0.42298 0.0
H1100 H 0.64437 0.15386 0.23251 0.0
H1101 H 0.6066 0.08659 0.30388 0.0
H1102 H 0.68761 0.17895 0.31496 0.0
H1103 H 0.70079 0.1659 0.27682 0.0
H1104 H 0.68477 0.17729 0.24337 0.0
H1105 H 0.62551 0.07131 0.35701 0.0
H1106 H 0.65609 0.08808 0.36988 0.0
H1107 H 0.63638 0.09335 0.40758 0.0
H1108 H 0.7359 0.1459 0.37639 0.0
H1109 H 0.70116 0.17298 0.4709 0.0
H1110 H 0.70604 0.13118 0.27167 0.0
H1111 H 0.68496 0.10436 0.30096 0.0
H1112 H 0.71527 0.11544 0.31327 0.0
H1113 H 0.65818 0.1623 0.39321 0.0
H1114 H 0.66085 0.15825 0.46336 0.0
H1115 H 0.6437 0.13376 0.42088 0.0
C1116 C 0.51397 0.1492 0.2425 0.0
C1117 C 0.5106 0.12675 0.24219 0.0
C1118 C 0.49554 0.15314 0.25176 0.0
C1119 C 0.47324 0.13417 0.26174 0.0
C1120 C 0.46951 0.1114 0.25922 0.0
C1121 C 0.48823 0.10794 0.24899 0.0
C1122 C 0.5001 0.17766 0.25268 0.0
C1123 C 0.446 0.09075 0.26984 0.0
C1124 C 0.43311 0.14906 0.33842 0.0
C1125 C 0.42036 0.15115 0.29676 0.0
C1126 C 0.4498 0.1426 0.32791 0.0
C1127 C 0.45389 0.13834 0.27455 0.0
C1128 C 0.44043 0.13954 0.23278 0.0
C1129 C 0.4238 0.14578 0.2444 0.0
C1130 C 0.46363 0.14111 0.37361 0.0
C1131 C 0.4443 0.13527 0.17536 0.0
H1132 H 0.53123 0.16379 0.23732 0.0
H1133 H 0.48555 0.09056 0.24957 0.0
H1134 H 0.48835 0.17956 0.22468 0.0
H1135 H 0.49659 0.18191 0.29323 0.0
H1136 H 0.51818 0.19038 0.2416 0.0
H1137 H 0.44572 0.07416 0.26361 0.0
H1138 H 0.44075 0.09134 0.31166 0.0
H1139 H 0.43294 0.09116 0.24347 0.0
H1140 H 0.43053 0.15308 0.37892 0.0
H1141 H 0.41394 0.14712 0.21179 0.0
H1142 H 0.48191 0.15495 0.36955 0.0
H1143 H 0.46329 0.12435 0.37257 0.0
H1144 H 0.45706 0.14296 0.41306 0.0
H1145 H 0.46174 0.14878 0.16218 0.0
H1146 H 0.43138 0.13546 0.14796 0.0
H1147 H 0.44357 0.11839 0.1715 0.0
C1148 C 0.83251 0.29606 0.44379 0.0
C1149 C 0.83605 0.27724 0.43787 0.0
C1150 C 0.84939 0.31828 0.42801 0.0
C1151 C 0.87032 0.32176 0.40529 0.0
C1152 C 0.87472 0.30314 0.40288 0.0
C1153 C 0.8575 0.28102 0.41944 0.0
C1154 C 0.84415 0.33774 0.43257 0.0
C1155 C 0.89683 0.30613 0.37933 0.0
C1156 C 0.89335 0.37324 0.31278 0.0
C1157 C 0.907 0.39101 0.34829 0.0
C1158 C 0.88303 0.35002 0.32903 0.0
C1159 C 0.88665 0.3447 0.38171 0.0
C1160 C 0.90275 0.36251 0.41498 0.0
C1161 C 0.91268 0.38548 0.39791 0.0
C1162 C 0.86633 0.33144 0.29191 0.0
C1163 C 0.90756 0.35762 0.47086 0.0
H1164 H 0.81594 0.29316 0.45805 0.0
H1165 H 0.86019 0.26644 0.41409 0.0
H1166 H 0.85825 0.35259 0.45396 0.0
H1167 H 0.84297 0.3438 0.39208 0.0
H1168 H 0.82769 0.33243 0.45407 0.0
H1169 H 0.89965 0.29164 0.39038 0.0
H1170 H 0.89602 0.3067 0.33514 0.0
H1171 H 0.9119 0.32259 0.39252 0.0
H1172 H 0.88896 0.37745 0.2744 0.0
H1173 H 0.92352 0.39925 0.4252 0.0
H1174 H 0.84842 0.32562 0.30534 0.0
H1175 H 0.86881 0.31623 0.29277 0.0
H1176 H 0.86827 0.33772 0.2501 0.0
H1177 H 0.89301 0.35463 0.49745 0.0
H1178 H 0.92362 0.37228 0.48718 0.0
H1179 H 0.90905 0.34183 0.47183 0.0
C1180 C 0.63372 0.48097 0.22288 0.0
C1181 C 0.6144 0.48385 0.22514 0.0
C1182 C 0.65595 0.49967 0.23108 0.0
C1183 C 0.65886 0.52171 0.24279 0.0
C1184 C 0.63961 0.52508 0.24129 0.0
C1185 C 0.61755 0.50608 0.23198 0.0
C1186 C 0.67613 0.49547 0.23075 0.0
C1187 C 0.64196 0.54826 0.25371 0.0
C1188 C 0.71158 0.55619 0.32899 0.0
C1189 C 0.72823 0.56934 0.29038 0.0
C1190 C 0.6884 0.54184 0.31462 0.0
C1191 C 0.68183 0.54052 0.26038 0.0
C1192 C 0.69817 0.55521 0.22218 0.0
C1193 C 0.72114 0.56953 0.23769 0.0
C1194 C 0.67128 0.52684 0.35681 0.0
C1195 C 0.6919 0.55443 0.16406 0.0
H1196 H 0.6313 0.46379 0.21758 0.0
H1197 H 0.60263 0.50835 0.23448 0.0
H1198 H 0.69026 0.50845 0.20527 0.0
H1199 H 0.68297 0.49736 0.27186 0.0
H1200 H 0.67126 0.47795 0.21595 0.0
H1201 H 0.62633 0.54898 0.24219 0.0
H1202 H 0.64467 0.55156 0.29725 0.0
H1203 H 0.65714 0.56235 0.23296 0.0
H1204 H 0.71684 0.55608 0.36982 0.0
H1205 H 0.7338 0.57987 0.20758 0.0
H1206 H 0.66672 0.50861 0.35056 0.0
H1207 H 0.65516 0.52763 0.35369 0.0
H1208 H 0.67828 0.53205 0.39781 0.0
H1209 H 0.68956 0.53826 0.14587 0.0
H1210 H 0.70547 0.56928 0.14119 0.0
H1211 H 0.67537 0.55435 0.15984 0.0
C1212 C 0.50303 0.80596 0.63303 0.0
C1213 C 0.52515 0.81555 0.61028 0.0
C1214 C 0.49234 0.81922 0.64026 0.0
C1215 C 0.50393 0.84258 0.62384 0.0
C1216 C 0.52541 0.85183 0.59691 0.0
C1217 C 0.53579 0.83817 0.59036 0.0
C1218 C 0.46929 0.80862 0.66853 0.0
C1219 C 0.53809 0.87657 0.5779 0.0
C1220 C 0.46971 0.87349 0.6117 0.0
C1221 C 0.47559 0.88662 0.65893 0.0
C1222 C 0.47872 0.85906 0.59995 0.0
C1223 C 0.49391 0.85751 0.63642 0.0
C1224 C 0.49945 0.87014 0.68492 0.0
C1225 C 0.49023 0.8846 0.69563 0.0
C1226 C 0.47233 0.84584 0.54794 0.0
C1227 C 0.51545 0.86869 0.72502 0.0
H1228 H 0.49463 0.78843 0.64826 0.0
H1229 H 0.55291 0.84575 0.57299 0.0
H1230 H 0.4714 0.81703 0.70797 0.0
H1231 H 0.45691 0.81155 0.64532 0.0
H1232 H 0.46174 0.78976 0.67496 0.0
H1233 H 0.55359 0.88053 0.55371 0.0
H1234 H 0.52653 0.88034 0.5536 0.0
H1235 H 0.5436 0.88833 0.61287 0.0
H1236 H 0.45831 0.87478 0.58307 0.0
H1237 H 0.4949 0.8947 0.73205 0.0
H1238 H 0.46459 0.82708 0.55581 0.0
H1239 H 0.48806 0.85122 0.52341 0.0
H1240 H 0.45993 0.84863 0.5243 0.0
H1241 H 0.50867 0.85047 0.73728 0.0
H1242 H 0.51766 0.87919 0.76126 0.0
H1243 H 0.53263 0.87477 0.70649 0.0
C1244 C 0.16858 0.71597 0.66297 0.0
C1245 C 0.18366 0.73285 0.69876 0.0
C1246 C 0.15969 0.69237 0.67383 0.0
C1247 C 0.16604 0.68558 0.72154 0.0
C1248 C 0.18184 0.70255 0.75683 0.0
C1249 C 0.19048 0.72592 0.74495 0.0
C1250 C 0.14303 0.67467 0.63496 0.0
C1251 C 0.18912 0.69604 0.80793 0.0
C1252 C 0.12422 0.62487 0.77045 0.0
C1253 C 0.13416 0.61244 0.7492 0.0
C1254 C 0.13487 0.64891 0.76352 0.0
C1255 C 0.15595 0.66069 0.73485 0.0
C1256 C 0.16692 0.64848 0.71704 0.0
C1257 C 0.15594 0.62453 0.72464 0.0
C1258 C 0.12287 0.66145 0.78399 0.0
C1259 C 0.18953 0.66045 0.68689 0.0
H1260 H 0.16318 0.72115 0.62734 0.0
H1261 H 0.20226 0.73881 0.77281 0.0
H1262 H 0.14944 0.66296 0.62224 0.0
H1263 H 0.12609 0.66389 0.65477 0.0
H1264 H 0.14043 0.68275 0.59889 0.0
H1265 H 0.20226 0.71137 0.83008 0.0
H1266 H 0.17389 0.68627 0.83427 0.0
H1267 H 0.19628 0.68458 0.79914 0.0
H1268 H 0.10737 0.61569 0.78929 0.0
H1269 H 0.16383 0.61507 0.70838 0.0
H1270 H 0.11698 0.66765 0.74971 0.0
H1271 H 0.13498 0.67682 0.8075 0.0
H1272 H 0.10768 0.65022 0.80938 0.0
H1273 H 0.18689 0.66641 0.64759 0.0
H1274 H 0.19679 0.64891 0.67997 0.0
H1275 H 0.20238 0.67593 0.70897 0.0
C1276 C 0.38754 0.49256 0.70202 0.0
C1277 C 0.40241 0.50268 0.65836 0.0
C1278 C 0.36346 0.48096 0.6952 0.0
C1279 C 0.35417 0.47961 0.64364 0.0
C1280 C 0.3691 0.4889 0.59922 0.0
C1281 C 0.39296 0.50021 0.60707 0.0
C1282 C 0.34799 0.47098 0.74345 0.0
C1283 C 0.35992 0.48796 0.54368 0.0
C1284 C 0.29 0.43894 0.62157 0.0
C1285 C 0.28122 0.45376 0.63105 0.0
C1286 C 0.31382 0.44712 0.62478 0.0
C1287 C 0.32905 0.47067 0.63686 0.0
C1288 C 0.3203 0.48592 0.64313 0.0
C1289 C 0.29648 0.47723 0.6406 0.0
C1290 C 0.32253 0.43034 0.61809 0.0
C1291 C 0.336 0.51128 0.65465 0.0
H1292 H 0.39466 0.49424 0.74165 0.0
H1293 H 0.40425 0.50773 0.57282 0.0
H1294 H 0.33919 0.481 0.75179 0.0
H1295 H 0.33441 0.45288 0.7356 0.0
H1296 H 0.35772 0.47134 0.77962 0.0
H1297 H 0.37369 0.49412 0.51276 0.0
H1298 H 0.34642 0.47009 0.53367 0.0
H1299 H 0.35179 0.49891 0.54199 0.0
H1300 H 0.27816 0.42071 0.61511 0.0
H1301 H 0.28966 0.48868 0.64802 0.0
H1302 H 0.3294 0.42833 0.65673 0.0
H1303 H 0.33691 0.43705 0.58877 0.0
H1304 H 0.30876 0.41307 0.6047 0.0
H1305 H 0.34448 0.51338 0.69386 0.0
H1306 H 0.32656 0.52101 0.65549 0.0
H1307 H 0.34982 0.51911 0.62395 0.0
C1308 C 0.14214 0.42641 0.64442 0.0
C1309 C 0.16559 0.44304 0.64146 0.0
C1310 C 0.1254 0.43306 0.65186 0.0
C1311 C 0.13246 0.45683 0.65561 0.0
C1312 C 0.15606 0.47362 0.64912 0.0
C1313 C 0.17234 0.46648 0.64282 0.0
C1314 C 0.10048 0.41466 0.65909 0.0
C1315 C 0.1643 0.49917 0.65132 0.0
C1316 C 0.09527 0.48376 0.63608 0.0
C1317 C 0.0949 0.49164 0.68793 0.0
C1318 C 0.1056 0.47041 0.62548 0.0
C1319 C 0.11568 0.46466 0.66784 0.0
C1320 C 0.11306 0.47034 0.72107 0.0
C1321 C 0.1027 0.48386 0.73056 0.0
C1322 C 0.10778 0.46457 0.56824 0.0
C1323 C 0.12307 0.46396 0.76748 0.0
H1324 H 0.13705 0.40826 0.64464 0.0
H1325 H 0.19055 0.47927 0.64109 0.0
H1326 H 0.09567 0.41377 0.70185 0.0
H1327 H 0.08896 0.41889 0.63605 0.0
H1328 H 0.09733 0.39738 0.64659 0.0
H1329 H 0.18299 0.50989 0.64213 0.0
H1330 H 0.15456 0.50358 0.62247 0.0
H1331 H 0.16111 0.50382 0.69176 0.0
H1332 H 0.08881 0.48932 0.60299 0.0
H1333 H 0.10228 0.48972 0.77073 0.0
H1334 H 0.10447 0.44662 0.56489 0.0
H1335 H 0.12565 0.47626 0.55396 0.0
H1336 H 0.09572 0.4666 0.54149 0.0
H1337 H 0.11925 0.44584 0.7638 0.0
H1338 H 0.11628 0.46605 0.80639 0.0
H1339 H 0.14211 0.47523 0.76741 0.0
C1340 C 0.52799 0.62268 0.72149 0.0
C1341 C 0.50399 0.61206 0.71681 0.0
C1342 C 0.5419 0.64678 0.71673 0.0
C1343 C 0.53138 0.66036 0.70796 0.0
C1344 C 0.50702 0.6497 0.70702 0.0
C1345 C 0.49365 0.62564 0.71074 0.0
C1346 C 0.56779 0.65748 0.71744 0.0
C1347 C 0.49507 0.66358 0.69932 0.0
C1348 C 0.56019 0.72458 0.73128 0.0
C1349 C 0.56295 0.73305 0.6788 0.0
C1350 C 0.55143 0.70107 0.74148 0.0
C1351 C 0.54548 0.68562 0.69815 0.0
C1352 C 0.55015 0.6943 0.64511 0.0
C1353 C 0.55881 0.71799 0.63599 0.0
C1354 C 0.54679 0.69261 0.79857 0.0
C1355 C 0.54448 0.67833 0.5979 0.0
H1356 H 0.53595 0.61204 0.72477 0.0
H1357 H 0.47507 0.61728 0.70639 0.0
H1358 H 0.57467 0.6631 0.67644 0.0
H1359 H 0.57578 0.67302 0.74327 0.0
H1360 H 0.57316 0.64515 0.73168 0.0
H1361 H 0.47603 0.65283 0.70334 0.0
H1362 H 0.50136 0.67778 0.72899 0.0
H1363 H 0.49914 0.67158 0.65903 0.0
H1364 H 0.56378 0.73618 0.76476 0.0
H1365 H 0.56109 0.72444 0.59541 0.0
H1366 H 0.55279 0.6801 0.8058 0.0
H1367 H 0.52794 0.6835 0.80628 0.0
H1368 H 0.55532 0.70699 0.82766 0.0
H1369 H 0.5508 0.66603 0.60458 0.0
H1370 H 0.55212 0.68795 0.56021 0.0
H1371 H 0.52549 0.66804 0.59306 0.0
C1372 C 0.27646 0.87076 0.70596 0.0
C1373 C 0.26648 0.85202 0.67059 0.0
C1374 C 0.30042 0.8853 0.70803 0.0
C1375 C 0.31472 0.88055 0.67496 0.0
C1376 C 0.30468 0.86219 0.63761 0.0
C1377 C 0.28058 0.84828 0.63539 0.0
C1378 C 0.31043 0.90515 0.74708 0.0
C1379 C 0.31942 0.85644 0.60211 0.0
C1380 C 0.37773 0.92421 0.65083 0.0
C1381 C 0.38864 0.91662 0.68656 0.0
C1382 C 0.35363 0.9133 0.64833 0.0
C1383 C 0.34017 0.89396 0.68134 0.0
C1384 C 0.3511 0.88677 0.71895 0.0
C1385 C 0.37528 0.89842 0.72158 0.0
C1386 C 0.34262 0.92194 0.60899 0.0
C1387 C 0.3373 0.86604 0.75441 0.0
H1388 H 0.26549 0.8737 0.73304 0.0
H1389 H 0.27286 0.83364 0.60845 0.0
H1390 H 0.31951 0.90159 0.77941 0.0
H1391 H 0.32331 0.92129 0.72686 0.0
H1392 H 0.29695 0.90805 0.76547 0.0
H1393 H 0.30895 0.84219 0.57387 0.0
H1394 H 0.33172 0.87185 0.5788 0.0
H1395 H 0.32974 0.85127 0.6271 0.0
H1396 H 0.38811 0.93838 0.62387 0.0
H1397 H 0.38372 0.89241 0.74878 0.0
H1398 H 0.32906 0.92421 0.62901 0.0
H1399 H 0.33415 0.90902 0.57678 0.0
H1400 H 0.3554 0.93861 0.59046 0.0
H1401 H 0.3244 0.86821 0.77778 0.0
H1402 H 0.34837 0.86312 0.78259 0.0
H1403 H 0.32768 0.85037 0.72939 0.0
loop_
_geom_bond_atom_site_label_1
_geom_bond_atom_site_label_2
_geom_bond_distance
_geom_bond_site_symmetry_2
_ccdc_geom_bond_type
Zn0 O3 2.031 . S
Zn0 O5 2.049 . S
Zn0 O10 2.067 . S
Zn1 O2 1.962 . S
Zn1 O4 1.986 . S
Zn1 O6 1.996 . S
Zn1 O9 1.943 . S
O2 Zn1 1.962 . S
O2 C7 1.254 . S
O3 Zn0 2.031 . S
O3 C7 1.269 1_556 S
O4 Zn1 1.986 . S
O4 C11 1.262 . S
O5 Zn0 2.049 . S
O5 C13 1.260 1_556 S
O6 Zn1 1.996 . S
O6 C13 1.257 . S
C7 O2 1.254 . S
C7 O3 1.269 1_554 S
C8 O9 1.249 1_556 S
C8 O10 1.270 . S
O9 Zn1 1.943 . S
O9 C8 1.249 1_554 S
O10 Zn0 2.067 . S
O10 C8 1.270 . S
C11 O4 1.262 . S
C11 O12 1.232 . S
O12 C11 1.232 . S
C13 O5 1.260 1_554 S
C13 O6 1.257 . S
Zn14 O17 2.031 . S
Zn14 O19 2.049 . S
Zn14 O24 2.067 . S
Zn15 O16 1.962 . S
Zn15 O18 1.986 . S
Zn15 O20 1.996 . S
Zn15 O23 1.943 . S
O16 Zn15 1.962 . S
O16 C21 1.254 . S
O17 Zn14 2.031 . S
O17 C21 1.269 1_556 S
O18 Zn15 1.986 . S
O18 C25 1.262 . S
O19 Zn14 2.049 . S
O19 C27 1.260 1_556 S
O20 Zn15 1.996 . S
O20 C27 1.257 . S
C21 O16 1.254 . S
C21 O17 1.269 1_554 S
C22 O23 1.249 1_556 S
C22 O24 1.270 . S
O23 Zn15 1.943 . S
O23 C22 1.249 1_554 S
O24 Zn14 2.067 . S
O24 C22 1.270 . S
C25 O18 1.262 . S
C25 O26 1.232 . S
O26 C25 1.232 . S
C27 O19 1.260 1_554 S
C27 O20 1.257 . S
Zn28 O31 2.031 . S
Zn28 O33 2.049 . S
Zn28 O38 2.067 . S
Zn29 O30 1.962 . S
Zn29 O32 1.986 . S
Zn29 O34 1.996 . S
Zn29 O37 1.943 . S
O30 Zn29 1.962 . S
O30 C35 1.254 . S
O31 Zn28 2.031 . S
O31 C35 1.269 1_556 S
O32 Zn29 1.986 . S
O32 C39 1.262 . S
O33 Zn28 2.049 . S
O33 C41 1.260 1_556 S
O34 Zn29 1.996 . S
O34 C41 1.257 . S
C35 O30 1.254 . S
C35 O31 1.269 1_554 S
C36 O37 1.249 1_556 S
C36 O38 1.270 . S
O37 Zn29 1.943 . S
O37 C36 1.249 1_554 S
O38 Zn28 2.067 . S
O38 C36 1.270 . S
C39 O32 1.262 . S
C39 O40 1.232 . S
O40 C39 1.232 . S
C41 O33 1.260 1_554 S
C41 O34 1.257 . S
Zn42 O45 2.031 . S
Zn42 O47 2.049 . S
Zn42 O52 2.067 . S
Zn43 O44 1.962 . S
Zn43 O46 1.986 . S
Zn43 O48 1.996 . S
Zn43 O51 1.943 . S
O44 Zn43 1.962 . S
O44 C49 1.254 . S
O45 Zn42 2.031 . S
O45 C49 1.269 1_554 S
O46 Zn43 1.986 . S
O46 C53 1.262 . S
O47 Zn42 2.049 . S
O47 C55 1.260 1_554 S
O48 Zn43 1.996 . S
O48 C55 1.257 . S
C49 O44 1.254 . S
C49 O45 1.269 1_556 S
C50 O51 1.249 1_554 S
C50 O52 1.270 . S
O51 Zn43 1.943 . S
O51 C50 1.249 1_556 S
O52 Zn42 2.067 . S
O52 C50 1.270 . S
C53 O46 1.262 . S
C53 O54 1.232 . S
O54 C53 1.232 . S
C55 O47 1.260 1_556 S
C55 O48 1.257 . S
Zn56 O59 2.031 . S
Zn56 O61 2.049 . S
Zn56 O66 2.067 . S
Zn57 O58 1.962 . S
Zn57 O60 1.986 . S
Zn57 O62 1.996 . S
Zn57 O65 1.943 . S
O58 Zn57 1.962 . S
O58 C63 1.254 . S
O59 Zn56 2.031 . S
O59 C63 1.269 1_554 S
O60 Zn57 1.986 . S
O60 C67 1.262 . S
O61 Zn56 2.049 . S
O61 C69 1.260 1_554 S
O62 Zn57 1.996 . S
O62 C69 1.257 . S
C63 O58 1.254 . S
C63 O59 1.269 1_556 S
C64 O65 1.249 1_554 S
C64 O66 1.270 . S
O65 Zn57 1.943 . S
O65 C64 1.249 1_556 S
O66 Zn56 2.067 . S
O66 C64 1.270 . S
C67 O60 1.262 . S
C67 O68 1.232 . S
O68 C67 1.232 . S
C69 O61 1.260 1_556 S
C69 O62 1.257 . S
Zn70 O73 2.031 . S
Zn70 O75 2.049 . S
Zn70 O80 2.067 . S
Zn71 O72 1.962 . S
Zn71 O74 1.986 . S
Zn71 O76 1.996 . S
Zn71 O79 1.943 . S
O72 Zn71 1.962 . S
O72 C77 1.254 . S
O73 Zn70 2.031 . S
O73 C77 1.269 1_554 S
O74 Zn71 1.986 . S
O74 C81 1.262 . S
O75 Zn70 2.049 . S
O75 C83 1.260 1_554 S
O76 Zn71 1.996 . S
O76 C83 1.257 . S
C77 O72 1.254 . S
C77 O73 1.269 1_556 S
C78 O79 1.249 1_554 S
C78 O80 1.270 . S
O79 Zn71 1.943 . S
O79 C78 1.249 1_556 S
O80 Zn70 2.067 . S
O80 C78 1.270 . S
C81 O74 1.262 . S
C81 O82 1.232 . S
O82 C81 1.232 . S
C83 O75 1.260 1_556 S
C83 O76 1.257 . S
Zn84 O87 2.031 . S
Zn84 O89 2.049 . S
Zn84 O94 2.067 . S
Zn85 O86 1.962 . S
Zn85 O88 1.986 . S
Zn85 O90 1.996 . S
Zn85 O93 1.943 . S
O86 Zn85 1.962 . S
O86 C91 1.254 . S
O87 Zn84 2.031 . S
O87 C91 1.269 . S
O88 Zn85 1.986 . S
O88 C95 1.262 . S
O89 Zn84 2.049 . S
O89 C97 1.260 . S
O90 Zn85 1.996 . S
O90 C97 1.257 . S
C91 O86 1.254 . S
C91 O87 1.269 . S
C92 O93 1.249 . S
C92 O94 1.270 . S
O93 Zn85 1.943 . S
O93 C92 1.249 . S
O94 Zn84 2.067 . S
O94 C92 1.270 . S
C95 O88 1.262 . S
C95 O96 1.232 . S
O96 C95 1.232 . S
C97 O89 1.260 . S
C97 O90 1.257 . S
Zn98 O101 2.031 . S
Zn98 O103 2.049 . S
Zn98 O108 2.067 . S
Zn99 O100 1.962 . S
Zn99 O102 1.986 . S
Zn99 O104 1.996 . S
Zn99 O107 1.943 . S
O100 Zn99 1.962 . S
O100 C105 1.254 . S
O101 Zn98 2.031 . S
O101 C105 1.269 . S
O102 Zn99 1.986 . S
O102 C109 1.262 . S
O103 Zn98 2.049 . S
O103 C111 1.260 . S
O104 Zn99 1.996 . S
O104 C111 1.257 . S
C105 O100 1.254 . S
C105 O101 1.269 . S
C106 O107 1.249 . S
C106 O108 1.270 . S
O107 Zn99 1.943 . S
O107 C106 1.249 . S
O108 Zn98 2.067 . S
O108 C106 1.270 . S
C109 O102 1.262 . S
C109 O110 1.232 . S
O110 C109 1.232 . S
C111 O103 1.260 . S
C111 O104 1.257 . S
Zn112 O115 2.031 . S
Zn112 O117 2.049 . S
Zn112 O122 2.067 . S
Zn113 O114 1.962 . S
Zn113 O116 1.986 . S
Zn113 O118 1.996 . S
Zn113 O121 1.943 . S
O114 Zn113 1.962 . S
O114 C119 1.254 . S
O115 Zn112 2.031 . S
O115 C119 1.269 . S
O116 Zn113 1.986 . S
O116 C123 1.262 . S
O117 Zn112 2.049 . S
O117 C125 1.260 . S
O118 Zn113 1.996 . S
O118 C125 1.257 . S
C119 O114 1.254 . S
C119 O115 1.269 . S
C120 O121 1.249 . S
C120 O122 1.270 . S
O121 Zn113 1.943 . S
O121 C120 1.249 . S
O122 Zn112 2.067 . S
O122 C120 1.270 . S
C123 O116 1.262 . S
C123 O124 1.232 . S
O124 C123 1.232 . S
C125 O117 1.260 . S
C125 O118 1.257 . S
Zn126 O129 2.031 . S
Zn126 O131 2.049 . S
Zn126 O136 2.067 . S
Zn127 O128 1.962 . S
Zn127 O130 1.986 . S
Zn127 O132 1.996 . S
Zn127 O135 1.943 . S
O128 Zn127 1.962 . S
O128 C133 1.254 . S
O129 Zn126 2.031 . S
O129 C133 1.269 . S
O130 Zn127 1.986 . S
O130 C137 1.262 . S
O131 Zn126 2.049 . S
O131 C139 1.260 . S
O132 Zn127 1.996 . S
O132 C139 1.257 . S
C133 O128 1.254 . S
C133 O129 1.269 . S
C134 O135 1.249 . S
C134 O136 1.270 . S
O135 Zn127 1.943 . S
O135 C134 1.249 . S
O136 Zn126 2.067 . S
O136 C134 1.270 . S
C137 O130 1.262 . S
C137 O138 1.232 . S
O138 C137 1.232 . S
C139 O131 1.260 . S
C139 O132 1.257 . S
Zn140 O143 2.031 . S
Zn140 O145 2.049 . S
Zn140 O150 2.067 . S
Zn141 O142 1.962 . S
Zn141 O144 1.986 . S
Zn141 O146 1.996 . S
Zn141 O149 1.943 . S
O142 Zn141 1.962 . S
O142 C147 1.254 . S
O143 Zn140 2.031 . S
O143 C147 1.269 . S
O144 Zn141 1.986 . S
O144 C151 1.262 . S
O145 Zn140 2.049 . S
O145 C153 1.260 . S
O146 Zn141 1.996 . S
O146 C153 1.257 . S
C147 O142 1.254 . S
C147 O143 1.269 . S
C148 O149 1.249 . S
C148 O150 1.270 . S
O149 Zn141 1.943 . S
O149 C148 1.249 . S
O150 Zn140 2.067 . S
O150 C148 1.270 . S
C151 O144 1.262 . S
C151 O152 1.232 . S
O152 C151 1.232 . S
C153 O145 1.260 . S
C153 O146 1.257 . S
Zn154 O157 2.031 . S
Zn154 O159 2.049 . S
Zn154 O164 2.067 . S
Zn155 O156 1.962 . S
Zn155 O158 1.986 . S
Zn155 O160 1.996 . S
Zn155 O163 1.943 . S
O156 Zn155 1.962 . S
O156 C161 1.254 . S
O157 Zn154 2.031 . S
O157 C161 1.269 . S
O158 Zn155 1.986 . S
O158 C165 1.262 . S
O159 Zn154 2.049 . S
O159 C167 1.260 . S
O160 Zn155 1.996 . S
O160 C167 1.257 . S
C161 O156 1.254 . S
C161 O157 1.269 . S
C162 O163 1.249 . S
C162 O164 1.270 . S
O163 Zn155 1.943 . S
O163 C162 1.249 . S
O164 Zn154 2.067 . S
O164 C162 1.270 . S
C165 O158 1.262 . S
C165 O166 1.232 . S
O166 C165 1.232 . S
C167 O159 1.260 . S
C167 O160 1.257 . S
Zn168 O171 2.031 . S
Zn168 O173 2.049 . S
Zn168 O178 2.067 . S
Zn169 O170 1.962 . S
Zn169 O172 1.986 . S
Zn169 O174 1.996 . S
Zn169 O177 1.943 . S
O170 Zn169 1.962 . S
O170 C175 1.254 . S
O171 Zn168 2.031 . S
O171 C175 1.269 . S
O172 Zn169 1.986 . S
O172 C179 1.262 . S
O173 Zn168 2.049 . S
O173 C181 1.260 . S
O174 Zn169 1.996 . S
O174 C181 1.257 . S
C175 O170 1.254 . S
C175 O171 1.269 . S
C176 O177 1.249 . S
C176 O178 1.270 . S
O177 Zn169 1.943 . S
O177 C176 1.249 . S
O178 Zn168 2.067 . S
O178 C176 1.270 . S
C179 O172 1.262 . S
C179 O180 1.232 . S
O180 C179 1.232 . S
C181 O173 1.260 . S
C181 O174 1.257 . S
Zn182 O185 2.031 . S
Zn182 O187 2.049 . S
Zn182 O192 2.067 . S
Zn183 O184 1.962 . S
Zn183 O186 1.986 . S
Zn183 O188 1.996 . S
Zn183 O191 1.943 . S
O184 Zn183 1.962 . S
O184 C189 1.254 . S
O185 Zn182 2.031 . S
O185 C189 1.269 . S
O186 Zn183 1.986 . S
O186 C193 1.262 . S
O187 Zn182 2.049 . S
O187 C195 1.260 . S
O188 Zn183 1.996 . S
O188 C195 1.257 . S
C189 O184 1.254 . S
C189 O185 1.269 . S
C190 O191 1.249 . S
C190 O192 1.270 . S
O191 Zn183 1.943 . S
O191 C190 1.249 . S
O192 Zn182 2.067 . S
O192 C190 1.270 . S
C193 O186 1.262 . S
C193 O194 1.232 . S
O194 C193 1.232 . S
C195 O187 1.260 . S
C195 O188 1.257 . S
Zn196 O199 2.031 . S
Zn196 O201 2.049 . S
Zn196 O206 2.067 . S
Zn197 O198 1.962 . S
Zn197 O200 1.986 . S
Zn197 O202 1.996 . S
Zn197 O205 1.943 . S
O198 Zn197 1.962 . S
O198 C203 1.254 . S
O199 Zn196 2.031 . S
O199 C203 1.269 . S
O200 Zn197 1.986 . S
O200 C207 1.262 . S
O201 Zn196 2.049 . S
O201 C209 1.260 . S
O202 Zn197 1.996 . S
O202 C209 1.257 . S
C203 O198 1.254 . S
C203 O199 1.269 . S
C204 O205 1.249 . S
C204 O206 1.270 . S
O205 Zn197 1.943 . S
O205 C204 1.249 . S
O206 Zn196 2.067 . S
O206 C204 1.270 . S
C207 O200 1.262 . S
C207 O208 1.232 . S
O208 C207 1.232 . S
C209 O201 1.260 . S
C209 O202 1.257 . S
Zn210 O213 2.031 . S
Zn210 O215 2.049 . S
Zn210 O220 2.067 . S
Zn211 O212 1.962 . S
Zn211 O214 1.986 . S
Zn211 O216 1.996 . S
Zn211 O219 1.943 . S
O212 Zn211 1.962 . S
O212 C217 1.254 . S
O213 Zn210 2.031 . S
O213 C217 1.269 . S
O214 Zn211 1.986 . S
O214 C221 1.262 . S
O215 Zn210 2.049 . S
O215 C223 1.260 . S
O216 Zn211 1.996 . S
O216 C223 1.257 . S
C217 O212 1.254 . S
C217 O213 1.269 . S
C218 O219 1.249 . S
C218 O220 1.270 . S
O219 Zn211 1.943 . S
O219 C218 1.249 . S
O220 Zn210 2.067 . S
O220 C218 1.270 . S
C221 O214 1.262 . S
C221 O222 1.232 . S
O222 C221 1.232 . S
C223 O215 1.260 . S
C223 O216 1.257 . S
Zn224 O227 2.031 . S
Zn224 O229 2.049 . S
Zn224 O234 2.067 . S
Zn225 O226 1.962 . S
Zn225 O228 1.986 . S
Zn225 O230 1.996 . S
Zn225 O233 1.943 . S
O226 Zn225 1.962 . S
O226 C231 1.254 . S
O227 Zn224 2.031 . S
O227 C231 1.269 . S
O228 Zn225 1.986 . S
O228 C235 1.262 . S
O229 Zn224 2.049 . S
O229 C237 1.260 . S
O230 Zn225 1.996 . S
O230 C237 1.257 . S
C231 O226 1.254 . S
C231 O227 1.269 . S
C232 O233 1.249 . S
C232 O234 1.270 . S
O233 Zn225 1.943 . S
O233 C232 1.249 . S
O234 Zn224 2.067 . S
O234 C232 1.270 . S
C235 O228 1.262 . S
C235 O236 1.232 . S
O236 C235 1.232 . S
C237 O229 1.260 . S
C237 O230 1.257 . S
Zn238 O241 2.031 . S
Zn238 O243 2.049 . S
Zn238 O248 2.067 . S
Zn239 O240 1.962 . S
Zn239 O242 1.986 . S
Zn239 O244 1.996 . S
Zn239 O247 1.943 . S
O240 Zn239 1.962 . S
O240 C245 1.254 . S
O241 Zn238 2.031 . S
O241 C245 1.269 . S
O242 Zn239 1.986 . S
O242 C249 1.262 . S
O243 Zn238 2.049 . S
O243 C251 1.260 . S
O244 Zn239 1.996 . S
O244 C251 1.257 . S
C245 O240 1.254 . S
C245 O241 1.269 . S
C246 O247 1.249 . S
C246 O248 1.270 . S
O247 Zn239 1.943 . S
O247 C246 1.249 . S
O248 Zn238 2.067 . S
O248 C246 1.270 . S
C249 O242 1.262 . S
C249 O250 1.232 . S
O250 C249 1.232 . S
C251 O243 1.260 . S
C251 O244 1.257 . S
C252 C253 1.391 . S
C252 C254 1.394 . S
C252 H268 0.931 . S
C253 C252 1.391 . S
C253 C257 1.376 . S
C254 C252 1.394 . S
C254 C255 1.369 . S
C254 C258 1.531 . S
C255 C254 1.369 . S
C255 C256 1.410 . S
C255 C263 1.503 . S
C256 C255 1.410 . S
C256 C257 1.392 . S
C256 C259 1.511 . S
C257 C253 1.376 . S
C257 C256 1.392 . S
C257 H269 0.929 . S
C258 C254 1.531 . S
C258 H270 0.960 . S
C258 H271 0.962 . S
C258 H272 0.960 . S
C259 C256 1.511 . S
C259 H273 0.961 . S
C259 H274 0.961 . S
C259 H275 0.961 . S
C260 C261 1.370 . S
C260 C262 1.363 . S
C260 H276 0.931 . S
C261 C260 1.370 . S
C261 C265 1.408 . S
C262 C260 1.363 . S
C262 C263 1.370 . S
C262 C266 1.524 . S
C263 C255 1.503 . S
C263 C262 1.370 . S
C263 C264 1.403 . S
C264 C263 1.403 . S
C264 C265 1.404 . S
C264 C267 1.539 . S
C265 C261 1.408 . S
C265 C264 1.404 . S
C265 H277 0.930 . S
C266 C262 1.524 . S
C266 H278 0.956 . S
C266 H279 0.961 . S
C266 H280 0.961 . S
C267 C264 1.539 . S
C267 H281 0.958 . S
C267 H282 0.961 . S
C267 H283 0.960 . S
H268 C252 0.931 . S
H269 C257 0.929 . S
H270 C258 0.960 . S
H271 C258 0.962 . S
H272 C258 0.960 . S
H273 C259 0.961 . S
H274 C259 0.961 . S
H275 C259 0.961 . S
H276 C260 0.931 . S
H277 C265 0.930 . S
H278 C266 0.956 . S
H279 C266 0.961 . S
H280 C266 0.961 . S
H281 C267 0.958 . S
H282 C267 0.961 . S
H283 C267 0.960 . S
C284 C285 1.391 . S
C284 C286 1.394 . S
C284 H300 0.931 . S
C285 C284 1.391 . S
C285 C289 1.376 . S
C286 C284 1.394 . S
C286 C287 1.369 . S
C286 C290 1.531 . S
C287 C286 1.369 . S
C287 C288 1.410 . S
C287 C295 1.503 . S
C288 C287 1.410 . S
C288 C289 1.392 . S
C288 C291 1.511 . S
C289 C285 1.376 . S
C289 C288 1.392 . S
C289 H301 0.929 . S
C290 C286 1.531 . S
C290 H302 0.960 . S
C290 H303 0.962 . S
C290 H304 0.960 . S
C291 C288 1.511 . S
C291 H305 0.961 . S
C291 H306 0.961 . S
C291 H307 0.961 . S
C292 C293 1.370 . S
C292 C294 1.363 . S
C292 H308 0.931 . S
C293 C292 1.370 . S
C293 C297 1.408 . S
C294 C292 1.363 . S
C294 C295 1.370 . S
C294 C298 1.524 . S
C295 C287 1.503 . S
C295 C294 1.370 . S
C295 C296 1.403 . S
C296 C295 1.403 . S
C296 C297 1.404 . S
C296 C299 1.539 . S
C297 C293 1.408 . S
C297 C296 1.404 . S
C297 H309 0.930 . S
C298 C294 1.524 . S
C298 H310 0.956 . S
C298 H311 0.961 . S
C298 H312 0.961 . S
C299 C296 1.539 . S
C299 H313 0.958 . S
C299 H314 0.961 . S
C299 H315 0.960 . S
H300 C284 0.931 . S
H301 C289 0.929 . S
H302 C290 0.960 . S
H303 C290 0.962 . S
H304 C290 0.960 . S
H305 C291 0.961 . S
H306 C291 0.961 . S
H307 C291 0.961 . S
H308 C292 0.931 . S
H309 C297 0.930 . S
H310 C298 0.956 . S
H311 C298 0.961 . S
H312 C298 0.961 . S
H313 C299 0.958 . S
H314 C299 0.961 . S
H315 C299 0.960 . S
C316 C317 1.391 . S
C316 C318 1.394 . S
C316 H332 0.931 . S
C317 C316 1.391 . S
C317 C321 1.376 . S
C318 C316 1.394 . S
C318 C319 1.369 . S
C318 C322 1.531 . S
C319 C318 1.369 . S
C319 C320 1.410 . S
C319 C327 1.503 . S
C320 C319 1.410 . S
C320 C321 1.392 . S
C320 C323 1.511 . S
C321 C317 1.376 . S
C321 C320 1.392 . S
C321 H333 0.929 . S
C322 C318 1.531 . S
C322 H334 0.960 . S
C322 H335 0.962 . S
C322 H336 0.960 . S
C323 C320 1.511 . S
C323 H337 0.961 . S
C323 H338 0.961 . S
C323 H339 0.961 . S
C324 C325 1.370 . S
C324 C326 1.363 . S
C324 H340 0.931 . S
C325 C324 1.370 . S
C325 C329 1.408 . S
C326 C324 1.363 . S
C326 C327 1.370 . S
C326 C330 1.524 . S
C327 C319 1.503 . S
C327 C326 1.370 . S
C327 C328 1.403 . S
C328 C327 1.403 . S
C328 C329 1.404 . S
C328 C331 1.539 . S
C329 C325 1.408 . S
C329 C328 1.404 . S
C329 H341 0.930 . S
C330 C326 1.524 . S
C330 H342 0.956 . S
C330 H343 0.961 . S
C330 H344 0.961 . S
C331 C328 1.539 . S
C331 H345 0.958 . S
C331 H346 0.961 . S
C331 H347 0.960 . S
H332 C316 0.931 . S
H333 C321 0.929 . S
H334 C322 0.960 . S
H335 C322 0.962 . S
H336 C322 0.960 . S
H337 C323 0.961 . S
H338 C323 0.961 . S
H339 C323 0.961 . S
H340 C324 0.931 . S
H341 C329 0.930 . S
H342 C330 0.956 . S
H343 C330 0.961 . S
H344 C330 0.961 . S
H345 C331 0.958 . S
H346 C331 0.961 . S
H347 C331 0.960 . S
C348 C349 1.391 . S
C348 C350 1.394 . S
C348 H364 0.931 . S
C349 C348 1.391 . S
C349 C353 1.376 . S
C350 C348 1.394 . S
C350 C351 1.369 . S
C350 C354 1.531 . S
C351 C350 1.369 . S
C351 C352 1.410 . S
C351 C359 1.503 . S
C352 C351 1.410 . S
C352 C353 1.392 . S
C352 C355 1.511 . S
C353 C349 1.376 . S
C353 C352 1.392 . S
C353 H365 0.929 . S
C354 C350 1.531 . S
C354 H366 0.960 . S
C354 H367 0.962 . S
C354 H368 0.960 . S
C355 C352 1.511 . S
C355 H369 0.961 . S
C355 H370 0.961 . S
C355 H371 0.961 . S
C356 C357 1.370 . S
C356 C358 1.363 . S
C356 H372 0.931 . S
C357 C356 1.370 . S
C357 C361 1.408 . S
C358 C356 1.363 . S
C358 C359 1.370 . S
C358 C362 1.524 . S
C359 C351 1.503 . S
C359 C358 1.370 . S
C359 C360 1.403 . S
C360 C359 1.403 . S
C360 C361 1.404 . S
C360 C363 1.539 . S
C361 C357 1.408 . S
C361 C360 1.404 . S
C361 H373 0.930 . S
C362 C358 1.524 . S
C362 H374 0.956 . S
C362 H375 0.961 . S
C362 H376 0.961 . S
C363 C360 1.539 . S
C363 H377 0.958 . S
C363 H378 0.961 . S
C363 H379 0.960 . S
H364 C348 0.931 . S
H365 C353 0.929 . S
H366 C354 0.960 . S
H367 C354 0.962 . S
H368 C354 0.960 . S
H369 C355 0.961 . S
H370 C355 0.961 . S
H371 C355 0.961 . S
H372 C356 0.931 . S
H373 C361 0.930 . S
H374 C362 0.956 . S
H375 C362 0.961 . S
H376 C362 0.961 . S
H377 C363 0.958 . S
H378 C363 0.961 . S
H379 C363 0.960 . S
C380 C381 1.391 . S
C380 C382 1.394 . S
C380 H396 0.931 . S
C381 C380 1.391 . S
C381 C385 1.376 . S
C382 C380 1.394 . S
C382 C383 1.369 . S
C382 C386 1.531 . S
C383 C382 1.369 . S
C383 C384 1.410 . S
C383 C391 1.503 . S
C384 C383 1.410 . S
C384 C385 1.392 . S
C384 C387 1.511 . S
C385 C381 1.376 . S
C385 C384 1.392 . S
C385 H397 0.929 . S
C386 C382 1.531 . S
C386 H398 0.960 . S
C386 H399 0.962 . S
C386 H400 0.960 . S
C387 C384 1.511 . S
C387 H401 0.961 . S
C387 H402 0.961 . S
C387 H403 0.961 . S
C388 C389 1.370 . S
C388 C390 1.363 . S
C388 H404 0.931 . S
C389 C388 1.370 . S
C389 C393 1.408 . S
C390 C388 1.363 . S
C390 C391 1.370 . S
C390 C394 1.524 . S
C391 C383 1.503 . S
C391 C390 1.370 . S
C391 C392 1.403 . S
C392 C391 1.403 . S
C392 C393 1.404 . S
C392 C395 1.539 . S
C393 C389 1.408 . S
C393 C392 1.404 . S
C393 H405 0.930 . S
C394 C390 1.524 . S
C394 H406 0.956 . S
C394 H407 0.961 . S
C394 H408 0.961 . S
C395 C392 1.539 . S
C395 H409 0.958 . S
C395 H410 0.961 . S
C395 H411 0.960 . S
H396 C380 0.931 . S
H397 C385 0.929 . S
H398 C386 0.960 . S
H399 C386 0.962 . S
H400 C386 0.960 . S
H401 C387 0.961 . S
H402 C387 0.961 . S
H403 C387 0.961 . S
H404 C388 0.931 . S
H405 C393 0.930 . S
H406 C394 0.956 . S
H407 C394 0.961 . S
H408 C394 0.961 . S
H409 C395 0.958 . S
H410 C395 0.961 . S
H411 C395 0.960 . S
C412 C413 1.391 . S
C412 C414 1.394 . S
C412 H428 0.931 . S
C413 C412 1.391 . S
C413 C417 1.376 . S
C414 C412 1.394 . S
C414 C415 1.369 . S
C414 C418 1.531 . S
C415 C414 1.369 . S
C415 C416 1.410 . S
C415 C423 1.503 . S
C416 C415 1.410 . S
C416 C417 1.392 . S
C416 C419 1.511 . S
C417 C413 1.376 . S
C417 C416 1.392 . S
C417 H429 0.929 . S
C418 C414 1.531 . S
C418 H430 0.960 . S
C418 H431 0.962 . S
C418 H432 0.960 . S
C419 C416 1.511 . S
C419 H433 0.961 . S
C419 H434 0.961 . S
C419 H435 0.961 . S
C420 C421 1.370 . S
C420 C422 1.363 . S
C420 H436 0.931 . S
C421 C420 1.370 . S
C421 C425 1.408 . S
C422 C420 1.363 . S
C422 C423 1.370 . S
C422 C426 1.524 . S
C423 C415 1.503 . S
C423 C422 1.370 . S
C423 C424 1.403 . S
C424 C423 1.403 . S
C424 C425 1.404 . S
C424 C427 1.539 . S
C425 C421 1.408 . S
C425 C424 1.404 . S
C425 H437 0.930 . S
C426 C422 1.524 . S
C426 H438 0.956 . S
C426 H439 0.961 . S
C426 H440 0.961 . S
C427 C424 1.539 . S
C427 H441 0.958 . S
C427 H442 0.961 . S
C427 H443 0.960 . S
H428 C412 0.931 . S
H429 C417 0.929 . S
H430 C418 0.960 . S
H431 C418 0.962 . S
H432 C418 0.960 . S
H433 C419 0.961 . S
H434 C419 0.961 . S
H435 C419 0.961 . S
H436 C420 0.931 . S
H437 C425 0.930 . S
H438 C426 0.956 . S
H439 C426 0.961 . S
H440 C426 0.961 . S
H441 C427 0.958 . S
H442 C427 0.961 . S
H443 C427 0.960 . S
C444 C445 1.391 . S
C444 C446 1.394 . S
C444 H460 0.931 . S
C445 C444 1.391 . S
C445 C449 1.376 . S
C446 C444 1.394 . S
C446 C447 1.369 . S
C446 C450 1.531 1_655 S
C447 C446 1.369 . S
C447 C448 1.410 . S
C447 C455 1.503 1_654 S
C448 C447 1.410 . S
C448 C449 1.392 . S
C448 C451 1.511 1_554 S
C449 C445 1.376 . S
C449 C448 1.392 . S
C449 H461 0.929 . S
C450 C446 1.531 1_455 S
C450 H462 0.960 . S
C450 H463 0.962 . S
C450 H464 0.960 . S
C451 C448 1.511 1_556 S
C451 H465 0.961 1_556 S
C451 H466 0.961 . S
C451 H467 0.961 . S
C452 C453 1.370 . S
C452 C454 1.363 . S
C452 H468 0.931 . S
C453 C452 1.370 . S
C453 C457 1.408 . S
C454 C452 1.363 . S
C454 C455 1.370 . S
C454 C458 1.524 1_556 S
C455 C447 1.503 1_456 S
C455 C454 1.370 . S
C455 C456 1.403 1_455 S
C456 C455 1.403 1_655 S
C456 C457 1.404 1_655 S
C456 C459 1.539 . S
C457 C453 1.408 . S
C457 C456 1.404 1_455 S
C457 H469 0.930 . S
C458 C454 1.524 1_554 S
C458 H470 0.956 . S
C458 H471 0.961 . S
C458 H472 0.961 . S
C459 C456 1.539 . S
C459 H473 0.958 . S
C459 H474 0.961 . S
C459 H475 0.960 . S
H460 C444 0.931 . S
H461 C449 0.929 . S
H462 C450 0.960 . S
H463 C450 0.962 . S
H464 C450 0.960 . S
H465 C451 0.961 1_554 S
H466 C451 0.961 . S
H467 C451 0.961 . S
H468 C452 0.931 . S
H469 C457 0.930 . S
H470 C458 0.956 . S
H471 C458 0.961 . S
H472 C458 0.961 . S
H473 C459 0.958 . S
H474 C459 0.961 . S
H475 C459 0.960 . S
C476 C477 1.391 . S
C476 C478 1.394 . S
C476 H492 0.931 . S
C477 C476 1.391 . S
C477 C481 1.376 . S
C478 C476 1.394 . S
C478 C479 1.369 . S
C478 C482 1.531 . S
C479 C478 1.369 . S
C479 C480 1.410 . S
C479 C487 1.503 1_554 S
C480 C479 1.410 . S
C480 C481 1.392 . S
C480 C483 1.511 1_554 S
C481 C477 1.376 . S
C481 C480 1.392 . S
C481 H493 0.929 . S
C482 C478 1.531 . S
C482 H494 0.960 . S
C482 H495 0.962 . S
C482 H496 0.960 . S
C483 C480 1.511 1_556 S
C483 H497 0.961 . S
C483 H498 0.961 . S
C483 H499 0.961 . S
C484 C485 1.370 . S
C484 C486 1.363 . S
C484 H500 0.931 . S
C485 C484 1.370 . S
C485 C489 1.408 . S
C486 C484 1.363 . S
C486 C487 1.370 . S
C486 C490 1.524 1_556 S
C487 C479 1.503 1_556 S
C487 C486 1.370 . S
C487 C488 1.403 . S
C488 C487 1.403 . S
C488 C489 1.404 . S
C488 C491 1.539 . S
C489 C485 1.408 . S
C489 C488 1.404 . S
C489 H501 0.930 . S
C490 C486 1.524 1_554 S
C490 H502 0.956 . S
C490 H503 0.961 . S
C490 H504 0.961 1_554 S
C491 C488 1.539 . S
C491 H505 0.958 . S
C491 H506 0.961 . S
C491 H507 0.960 . S
H492 C476 0.931 . S
H493 C481 0.929 . S
H494 C482 0.960 . S
H495 C482 0.962 . S
H496 C482 0.960 . S
H497 C483 0.961 . S
H498 C483 0.961 . S
H499 C483 0.961 . S
H500 C484 0.931 . S
H501 C489 0.930 . S
H502 C490 0.956 . S
H503 C490 0.961 . S
H504 C490 0.961 1_556 S
H505 C491 0.958 . S
H506 C491 0.961 . S
H507 C491 0.960 . S
C508 C509 1.391 . S
C508 C510 1.394 . S
C508 H524 0.931 . S
C509 C508 1.391 . S
C509 C513 1.376 . S
C510 C508 1.394 . S
C510 C511 1.369 . S
C510 C514 1.531 1_545 S
C511 C510 1.369 . S
C511 C512 1.410 . S
C511 C519 1.503 1_544 S
C512 C511 1.410 . S
C512 C513 1.392 . S
C512 C515 1.511 . S
C513 C509 1.376 . S
C513 C512 1.392 . S
C513 H525 0.929 . S
C514 C510 1.531 1_565 S
C514 H526 0.960 . S
C514 H527 0.970 . S
C514 H528 0.960 . S
C515 C512 1.511 . S
C515 H529 0.961 . S
C515 H530 0.961 1_554 S
C515 H531 0.963 . S
C516 C517 1.370 . S
C516 C518 1.363 1_565 S
C516 H532 0.931 . S
C517 C516 1.370 . S
C517 C521 1.408 . S
C518 C516 1.363 1_545 S
C518 C519 1.370 1_545 S
C518 C522 1.524 . S
C519 C511 1.503 1_566 S
C519 C518 1.370 1_565 S
C519 C520 1.403 . S
C520 C519 1.403 . S
C520 C521 1.404 . S
C520 C523 1.539 1_556 S
C521 C517 1.408 . S
C521 C520 1.404 . S
C521 H533 0.930 . S
C522 C518 1.524 . S
C522 H534 0.956 . S
C522 H535 0.961 . S
C522 H536 0.961 . S
C523 C520 1.539 1_554 S
C523 H537 0.958 . S
C523 H538 0.961 . S
C523 H539 0.960 . S
H524 C508 0.931 . S
H525 C513 0.929 . S
H526 C514 0.960 . S
H527 C514 0.970 . S
H528 C514 0.960 . S
H529 C515 0.961 . S
H530 C515 0.961 1_556 S
H531 C515 0.963 . S
H532 C516 0.931 . S
H533 C521 0.930 . S
H534 C522 0.956 . S
H535 C522 0.961 . S
H536 C522 0.961 . S
H537 C523 0.958 . S
H538 C523 0.961 . S
H539 C523 0.960 . S
C540 C541 1.391 . S
C540 C542 1.394 . S
C540 H556 0.931 . S
C541 C540 1.391 . S
C541 C545 1.376 . S
C542 C540 1.394 . S
C542 C543 1.369 . S
C542 C546 1.531 . S
C543 C542 1.369 . S
C543 C544 1.410 . S
C543 C551 1.503 . S
C544 C543 1.410 . S
C544 C545 1.392 . S
C544 C547 1.511 . S
C545 C541 1.376 . S
C545 C544 1.392 . S
C545 H557 0.929 . S
C546 C542 1.531 . S
C546 H558 0.960 . S
C546 H559 0.962 . S
C546 H560 0.960 . S
C547 C544 1.511 . S
C547 H561 0.961 . S
C547 H562 0.961 . S
C547 H563 0.961 . S
C548 C549 1.370 . S
C548 C550 1.363 . S
C548 H564 0.931 . S
C549 C548 1.370 . S
C549 C553 1.408 . S
C550 C548 1.363 . S
C550 C551 1.370 . S
C550 C554 1.524 . S
C551 C543 1.503 . S
C551 C550 1.370 . S
C551 C552 1.403 . S
C552 C551 1.403 . S
C552 C553 1.404 . S
C552 C555 1.539 . S
C553 C549 1.408 . S
C553 C552 1.404 . S
C553 H565 0.930 . S
C554 C550 1.524 . S
C554 H566 0.956 . S
C554 H567 0.961 . S
C554 H568 0.961 . S
C555 C552 1.539 . S
C555 H569 0.958 . S
C555 H570 0.961 . S
C555 H571 0.960 . S
H556 C540 0.931 . S
H557 C545 0.929 . S
H558 C546 0.960 . S
H559 C546 0.962 . S
H560 C546 0.960 . S
H561 C547 0.961 . S
H562 C547 0.961 . S
H563 C547 0.961 . S
H564 C548 0.931 . S
H565 C553 0.930 . S
H566 C554 0.956 . S
H567 C554 0.961 . S
H568 C554 0.961 . S
H569 C555 0.958 . S
H570 C555 0.961 . S
H571 C555 0.960 . S
C572 C573 1.391 . S
C572 C574 1.394 . S
C572 H588 0.931 . S
C573 C572 1.391 . S
C573 C577 1.376 . S
C574 C572 1.394 . S
C574 C575 1.369 . S
C574 C578 1.531 . S
C575 C574 1.369 . S
C575 C576 1.410 . S
C575 C583 1.503 . S
C576 C575 1.410 . S
C576 C577 1.392 . S
C576 C579 1.511 . S
C577 C573 1.376 . S
C577 C576 1.392 . S
C577 H589 0.929 . S
C578 C574 1.531 . S
C578 H590 0.960 . S
C578 H591 0.962 . S
C578 H592 0.960 . S
C579 C576 1.511 . S
C579 H593 0.961 . S
C579 H594 0.961 . S
C579 H595 0.961 . S
C580 C581 1.370 . S
C580 C582 1.363 . S
C580 H596 0.931 . S
C581 C580 1.370 . S
C581 C585 1.408 . S
C582 C580 1.363 . S
C582 C583 1.370 . S
C582 C586 1.524 . S
C583 C575 1.503 . S
C583 C582 1.370 . S
C583 C584 1.403 . S
C584 C583 1.403 . S
C584 C585 1.404 . S
C584 C587 1.539 . S
C585 C581 1.408 . S
C585 C584 1.404 . S
C585 H597 0.930 . S
C586 C582 1.524 . S
C586 H598 0.956 . S
C586 H599 0.961 . S
C586 H600 0.961 . S
C587 C584 1.539 . S
C587 H601 0.958 . S
C587 H602 0.961 . S
C587 H603 0.960 . S
H588 C572 0.931 . S
H589 C577 0.929 . S
H590 C578 0.960 . S
H591 C578 0.962 . S
H592 C578 0.960 . S
H593 C579 0.961 . S
H594 C579 0.961 . S
H595 C579 0.961 . S
H596 C580 0.931 . S
H597 C585 0.930 . S
H598 C586 0.956 . S
H599 C586 0.961 . S
H600 C586 0.961 . S
H601 C587 0.958 . S
H602 C587 0.961 . S
H603 C587 0.960 . S
C604 C605 1.391 . S
C604 C606 1.394 . S
C604 H620 0.931 . S
C605 C604 1.391 . S
C605 C609 1.376 . S
C606 C604 1.394 . S
C606 C607 1.369 . S
C606 C610 1.531 . S
C607 C606 1.369 . S
C607 C608 1.410 . S
C607 C615 1.503 . S
C608 C607 1.410 . S
C608 C609 1.392 . S
C608 C611 1.511 . S
C609 C605 1.376 . S
C609 C608 1.392 . S
C609 H621 0.929 . S
C610 C606 1.531 . S
C610 H622 0.960 . S
C610 H623 0.962 . S
C610 H624 0.960 . S
C611 C608 1.511 . S
C611 H625 0.961 . S
C611 H626 0.961 . S
C611 H627 0.961 . S
C612 C613 1.370 . S
C612 C614 1.363 . S
C612 H628 0.931 . S
C613 C612 1.370 . S
C613 C617 1.408 . S
C614 C612 1.363 . S
C614 C615 1.370 . S
C614 C618 1.524 . S
C615 C607 1.503 . S
C615 C614 1.370 . S
C615 C616 1.403 . S
C616 C615 1.403 . S
C616 C617 1.404 . S
C616 C619 1.539 . S
C617 C613 1.408 . S
C617 C616 1.404 . S
C617 H629 0.930 . S
C618 C614 1.524 . S
C618 H630 0.956 . S
C618 H631 0.961 . S
C618 H632 0.961 . S
C619 C616 1.539 . S
C619 H633 0.958 . S
C619 H634 0.961 . S
C619 H635 0.960 . S
H620 C604 0.931 . S
H621 C609 0.929 . S
H622 C610 0.960 . S
H623 C610 0.962 . S
H624 C610 0.960 . S
H625 C611 0.961 . S
H626 C611 0.961 . S
H627 C611 0.961 . S
H628 C612 0.931 . S
H629 C617 0.930 . S
H630 C618 0.956 . S
H631 C618 0.961 . S
H632 C618 0.961 . S
H633 C619 0.958 . S
H634 C619 0.961 . S
H635 C619 0.960 . S
C636 C637 1.391 . S
C636 C638 1.394 . S
C636 H652 0.931 . S
C637 C636 1.391 . S
C637 C641 1.376 . S
C638 C636 1.394 . S
C638 C639 1.369 . S
C638 C642 1.531 . S
C639 C638 1.369 . S
C639 C640 1.410 . S
C639 C647 1.503 . S
C640 C639 1.410 . S
C640 C641 1.392 . S
C640 C643 1.511 . S
C641 C637 1.376 . S
C641 C640 1.392 . S
C641 H653 0.929 . S
C642 C638 1.531 . S
C642 H654 0.960 . S
C642 H655 0.962 . S
C642 H656 0.960 . S
C643 C640 1.511 . S
C643 H657 0.961 . S
C643 H658 0.961 . S
C643 H659 0.961 . S
C644 C645 1.370 . S
C644 C646 1.363 . S
C644 H660 0.931 . S
C645 C644 1.370 . S
C645 C649 1.408 . S
C646 C644 1.363 . S
C646 C647 1.370 . S
C646 C650 1.524 . S
C647 C639 1.503 . S
C647 C646 1.370 . S
C647 C648 1.403 . S
C648 C647 1.403 . S
C648 C649 1.404 . S
C648 C651 1.539 . S
C649 C645 1.408 . S
C649 C648 1.404 . S
C649 H661 0.930 . S
C650 C646 1.524 . S
C650 H662 0.956 . S
C650 H663 0.961 . S
C650 H664 0.961 . S
C651 C648 1.539 . S
C651 H665 0.958 . S
C651 H666 0.961 . S
C651 H667 0.960 . S
H652 C636 0.931 . S
H653 C641 0.929 . S
H654 C642 0.960 . S
H655 C642 0.962 . S
H656 C642 0.960 . S
H657 C643 0.961 . S
H658 C643 0.961 . S
H659 C643 0.961 . S
H660 C644 0.931 . S
H661 C649 0.930 . S
H662 C650 0.956 . S
H663 C650 0.961 . S
H664 C650 0.961 . S
H665 C651 0.958 . S
H666 C651 0.961 . S
H667 C651 0.960 . S
C668 C669 1.391 . S
C668 C670 1.394 . S
C668 H684 0.931 . S
C669 C668 1.391 . S
C669 C673 1.376 . S
C670 C668 1.394 . S
C670 C671 1.369 . S
C670 C674 1.531 . S
C671 C670 1.369 . S
C671 C672 1.410 . S
C671 C679 1.503 . S
C672 C671 1.410 . S
C672 C673 1.392 . S
C672 C675 1.511 . S
C673 C669 1.376 . S
C673 C672 1.392 . S
C673 H685 0.929 . S
C674 C670 1.531 . S
C674 H686 0.960 . S
C674 H687 0.962 . S
C674 H688 0.960 . S
C675 C672 1.511 . S
C675 H689 0.961 . S
C675 H690 0.961 . S
C675 H691 0.961 . S
C676 C677 1.370 . S
C676 C678 1.363 . S
C676 H692 0.931 . S
C677 C676 1.370 . S
C677 C681 1.408 . S
C678 C676 1.363 . S
C678 C679 1.370 . S
C678 C682 1.524 . S
C679 C671 1.503 . S
C679 C678 1.370 . S
C679 C680 1.403 . S
C680 C679 1.403 . S
C680 C681 1.404 . S
C680 C683 1.539 . S
C681 C677 1.408 . S
C681 C680 1.404 . S
C681 H693 0.930 . S
C682 C678 1.524 . S
C682 H694 0.956 . S
C682 H695 0.961 . S
C682 H696 0.961 . S
C683 C680 1.539 . S
C683 H697 0.958 . S
C683 H698 0.961 . S
C683 H699 0.960 . S
H684 C668 0.931 . S
H685 C673 0.929 . S
H686 C674 0.960 . S
H687 C674 0.962 . S
H688 C674 0.960 . S
H689 C675 0.961 . S
H690 C675 0.961 . S
H691 C675 0.961 . S
H692 C676 0.931 . S
H693 C681 0.930 . S
H694 C682 0.956 . S
H695 C682 0.961 . S
H696 C682 0.961 . S
H697 C683 0.958 . S
H698 C683 0.961 . S
H699 C683 0.960 . S
C700 C701 1.391 . S
C700 C702 1.394 . S
C700 H716 0.931 . S
C701 C700 1.391 . S
C701 C705 1.376 . S
C702 C700 1.394 . S
C702 C703 1.369 . S
C702 C706 1.531 . S
C703 C702 1.369 . S
C703 C704 1.410 . S
C703 C711 1.503 . S
C704 C703 1.410 . S
C704 C705 1.392 . S
C704 C707 1.511 . S
C705 C701 1.376 . S
C705 C704 1.392 . S
C705 H717 0.929 . S
C706 C702 1.531 . S
C706 H718 0.960 . S
C706 H719 0.962 . S
C706 H720 0.960 . S
C707 C704 1.511 . S
C707 H721 0.961 . S
C707 H722 0.961 . S
C707 H723 0.961 . S
C708 C709 1.370 . S
C708 C710 1.363 . S
C708 H724 0.931 . S
C709 C708 1.370 . S
C709 C713 1.408 . S
C710 C708 1.363 . S
C710 C711 1.370 . S
C710 C714 1.524 . S
C711 C703 1.503 . S
C711 C710 1.370 . S
C711 C712 1.403 . S
C712 C711 1.403 . S
C712 C713 1.404 . S
C712 C715 1.539 . S
C713 C709 1.408 . S
C713 C712 1.404 . S
C713 H725 0.930 . S
C714 C710 1.524 . S
C714 H726 0.956 . S
C714 H727 0.961 . S
C714 H728 0.961 . S
C715 C712 1.539 . S
C715 H729 0.958 . S
C715 H730 0.961 . S
C715 H731 0.960 . S
H716 C700 0.931 . S
H717 C705 0.929 . S
H718 C706 0.960 . S
H719 C706 0.962 . S
H720 C706 0.960 . S
H721 C707 0.961 . S
H722 C707 0.961 . S
H723 C707 0.961 . S
H724 C708 0.931 . S
H725 C713 0.930 . S
H726 C714 0.956 . S
H727 C714 0.961 . S
H728 C714 0.961 . S
H729 C715 0.958 . S
H730 C715 0.961 . S
H731 C715 0.960 . S
C732 C733 1.391 . S
C732 C734 1.394 1_655 S
C732 H748 0.931 . S
C733 C732 1.391 . S
C733 C737 1.376 . S
C734 C732 1.394 1_455 S
C734 C735 1.369 1_455 S
C734 C738 1.531 . S
C735 C734 1.369 1_655 S
C735 C736 1.410 . S
C735 C743 1.503 1_655 S
C736 C735 1.410 . S
C736 C737 1.392 . S
C736 C739 1.511 . S
C737 C733 1.376 . S
C737 C736 1.392 . S
C737 H749 0.929 . S
C738 C734 1.531 . S
C738 H750 0.960 . S
C738 H751 0.962 . S
C738 H752 0.960 . S
C739 C736 1.511 . S
C739 H753 0.961 . S
C739 H754 0.961 . S
C739 H755 0.961 . S
C740 C741 1.370 . S
C740 C742 1.363 . S
C740 H756 0.931 . S
C741 C740 1.370 . S
C741 C745 1.408 . S
C742 C740 1.363 . S
C742 C743 1.370 . S
C742 C746 1.524 1_455 S
C743 C735 1.503 1_455 S
C743 C742 1.370 . S
C743 C744 1.403 . S
C744 C743 1.403 . S
C744 C745 1.404 . S
C744 C747 1.539 . S
C745 C741 1.408 . S
C745 C744 1.404 . S
C745 H757 0.930 . S
C746 C742 1.524 1_655 S
C746 H758 0.956 . S
C746 H759 0.961 . S
C746 H760 0.961 . S
C747 C744 1.539 . S
C747 H761 0.958 . S
C747 H762 0.961 . S
C747 H763 0.960 . S
H748 C732 0.931 . S
H749 C737 0.929 . S
H750 C738 0.960 . S
H751 C738 0.962 . S
H752 C738 0.960 . S
H753 C739 0.961 . S
H754 C739 0.961 . S
H755 C739 0.961 . S
H756 C740 0.931 . S
H757 C745 0.930 . S
H758 C746 0.956 . S
H759 C746 0.961 . S
H760 C746 0.961 . S
H761 C747 0.958 . S
H762 C747 0.961 . S
H763 C747 0.960 . S
C764 C765 1.391 . S
C764 C766 1.394 . S
C764 H780 0.931 . S
C765 C764 1.391 . S
C765 C769 1.376 . S
C766 C764 1.394 . S
C766 C767 1.369 . S
C766 C770 1.531 . S
C767 C766 1.369 . S
C767 C768 1.410 . S
C767 C775 1.503 . S
C768 C767 1.410 . S
C768 C769 1.392 . S
C768 C771 1.511 . S
C769 C765 1.376 . S
C769 C768 1.392 . S
C769 H781 0.929 . S
C770 C766 1.531 . S
C770 H782 0.960 . S
C770 H783 0.962 . S
C770 H784 0.960 . S
C771 C768 1.511 . S
C771 H785 0.961 . S
C771 H786 0.961 . S
C771 H787 0.961 . S
C772 C773 1.370 . S
C772 C774 1.363 . S
C772 H788 0.931 . S
C773 C772 1.370 . S
C773 C777 1.408 . S
C774 C772 1.363 . S
C774 C775 1.370 . S
C774 C778 1.524 . S
C775 C767 1.503 . S
C775 C774 1.370 . S
C775 C776 1.403 . S
C776 C775 1.403 . S
C776 C777 1.404 . S
C776 C779 1.539 . S
C777 C773 1.408 . S
C777 C776 1.404 . S
C777 H789 0.930 . S
C778 C774 1.524 . S
C778 H790 0.956 . S
C778 H791 0.961 . S
C778 H792 0.961 . S
C779 C776 1.539 . S
C779 H793 0.958 . S
C779 H794 0.961 . S
C779 H795 0.960 . S
H780 C764 0.931 . S
H781 C769 0.929 . S
H782 C770 0.960 . S
H783 C770 0.962 . S
H784 C770 0.960 . S
H785 C771 0.961 . S
H786 C771 0.961 . S
H787 C771 0.961 . S
H788 C772 0.931 . S
H789 C777 0.930 . S
H790 C778 0.956 . S
H791 C778 0.961 . S
H792 C778 0.961 . S
H793 C779 0.958 . S
H794 C779 0.961 . S
H795 C779 0.960 . S
C796 C797 1.391 . S
C796 C798 1.394 . S
C796 H812 0.931 . S
C797 C796 1.391 . S
C797 C801 1.376 . S
C798 C796 1.394 . S
C798 C799 1.369 . S
C798 C802 1.531 . S
C799 C798 1.369 . S
C799 C800 1.410 . S
C799 C807 1.503 1_565 S
C800 C799 1.410 . S
C800 C801 1.392 . S
C800 C803 1.507 . S
C801 C797 1.376 . S
C801 C800 1.392 . S
C801 H813 0.929 . S
C802 C798 1.531 . S
C802 H814 0.960 1_565 S
C802 H815 0.962 . S
C802 H816 0.960 . S
C803 C800 1.507 . S
C803 H817 0.993 . S
C803 H818 0.956 1_565 S
C803 H819 0.939 1_565 S
C804 C805 1.370 . S
C804 C806 1.357 1_545 S
C804 H820 0.931 . S
C805 C804 1.370 . S
C805 C809 1.408 . S
C806 C804 1.357 1_565 S
C806 C807 1.365 1_565 S
C806 C810 1.535 . S
C807 C799 1.503 1_545 S
C807 C806 1.365 1_545 S
C807 C808 1.403 . S
C808 C807 1.403 . S
C808 C809 1.404 . S
C808 C811 1.539 . S
C809 C805 1.408 . S
C809 C808 1.404 . S
C809 H821 0.930 . S
C810 C806 1.535 . S
C810 H822 0.956 . S
C810 H823 0.961 . S
C810 H824 0.961 . S
C811 C808 1.539 . S
C811 H825 0.958 . S
C811 H826 0.961 . S
C811 H827 0.960 . S
H812 C796 0.931 . S
H813 C801 0.929 . S
H814 C802 0.960 1_545 S
H815 C802 0.962 . S
H816 C802 0.960 . S
H817 C803 0.993 . S
H818 C803 0.956 1_545 S
H819 C803 0.939 1_545 S
H820 C804 0.931 . S
H821 C809 0.930 . S
H822 C810 0.956 . S
H823 C810 0.961 . S
H824 C810 0.961 . S
H825 C811 0.958 . S
H826 C811 0.961 . S
H827 C811 0.960 . S
C828 C829 1.391 . S
C828 C830 1.394 . S
C828 H844 0.931 . S
C829 C828 1.391 . S
C829 C833 1.376 . S
C830 C828 1.394 . S
C830 C831 1.369 . S
C830 C834 1.531 . S
C831 C830 1.369 . S
C831 C832 1.410 . S
C831 C839 1.506 . S
C832 C831 1.410 . S
C832 C833 1.392 . S
C832 C835 1.511 1_554 S
C833 C829 1.376 . S
C833 C832 1.392 . S
C833 H845 0.931 . S
C834 C830 1.531 . S
C834 H846 0.960 . S
C834 H847 0.962 . S
C834 H848 0.960 . S
C835 C832 1.511 1_556 S
C835 H849 0.961 . S
C835 H850 0.961 . S
C835 H851 0.961 . S
C836 C837 1.370 . S
C836 C838 1.363 . S
C836 H852 0.931 . S
C837 C836 1.370 . S
C837 C841 1.408 1_556 S
C838 C836 1.363 . S
C838 C839 1.364 1_556 S
C838 C842 1.524 . S
C839 C831 1.506 . S
C839 C838 1.364 1_554 S
C839 C840 1.407 . S
C840 C839 1.407 . S
C840 C841 1.404 . S
C840 C843 1.539 . S
C841 C837 1.408 1_554 S
C841 C840 1.404 . S
C841 H853 0.930 . S
C842 C838 1.524 . S
C842 H854 0.956 . S
C842 H855 0.961 . S
C842 H856 0.961 . S
C843 C840 1.539 . S
C843 H857 0.958 . S
C843 H858 0.961 . S
C843 H859 0.960 . S
H844 C828 0.931 . S
H845 C833 0.931 . S
H846 C834 0.960 . S
H847 C834 0.962 . S
H848 C834 0.960 . S
H849 C835 0.961 . S
H850 C835 0.961 . S
H851 C835 0.961 . S
H852 C836 0.931 . S
H853 C841 0.930 . S
H854 C842 0.956 . S
H855 C842 0.961 . S
H856 C842 0.961 . S
H857 C843 0.958 . S
H858 C843 0.961 . S
H859 C843 0.960 . S
C860 C861 1.391 . S
C860 C862 1.394 . S
C860 H876 0.931 . S
C861 C860 1.391 . S
C861 C865 1.376 . S
C862 C860 1.394 . S
C862 C863 1.369 1_556 S
C862 C866 1.531 . S
C863 C862 1.369 1_554 S
C863 C864 1.410 . S
C863 C871 1.503 1_545 S
C864 C863 1.410 . S
C864 C865 1.392 1_554 S
C864 C867 1.511 . S
C865 C861 1.376 . S
C865 C864 1.392 1_556 S
C865 H877 0.929 . S
C866 C862 1.531 . S
C866 H878 0.960 1_546 S
C866 H879 0.962 . S
C866 H880 0.960 . S
C867 C864 1.511 . S
C867 H881 0.961 . S
C867 H882 0.992 . S
C867 H883 0.961 . S
C868 C869 1.370 1_556 S
C868 C870 1.363 . S
C868 H884 0.931 . S
C869 C868 1.370 1_554 S
C869 C873 1.408 . S
C870 C868 1.363 . S
C870 C871 1.370 1_556 S
C870 C874 1.524 . S
C871 C863 1.503 1_565 S
C871 C870 1.370 1_554 S
C871 C872 1.403 . S
C872 C871 1.403 . S
C872 C873 1.404 . S
C872 C875 1.539 . S
C873 C869 1.408 . S
C873 C872 1.404 . S
C873 H885 0.930 . S
C874 C870 1.524 . S
C874 H886 0.956 . S
C874 H887 0.961 . S
C874 H888 0.961 . S
C875 C872 1.539 . S
C875 H889 0.943 . S
C875 H890 0.961 . S
C875 H891 0.960 1_565 S
H876 C860 0.931 . S
H877 C865 0.929 . S
H878 C866 0.960 1_564 S
H879 C866 0.962 . S
H880 C866 0.960 . S
H881 C867 0.961 . S
H882 C867 0.992 . S
H883 C867 0.961 . S
H884 C868 0.931 . S
H885 C873 0.930 . S
H886 C874 0.956 . S
H887 C874 0.961 . S
H888 C874 0.961 . S
H889 C875 0.943 . S
H890 C875 0.961 . S
H891 C875 0.960 1_545 S
C892 C893 1.391 . S
C892 C894 1.394 . S
C892 H908 0.931 . S
C893 C892 1.391 . S
C893 C897 1.376 1_556 S
C894 C892 1.394 . S
C894 C895 1.369 . S
C894 C898 1.531 . S
C895 C894 1.369 . S
C895 C896 1.410 1_556 S
C895 C903 1.503 1_656 S
C896 C895 1.410 1_554 S
C896 C897 1.392 . S
C896 C899 1.511 . S
C897 C893 1.376 1_554 S
C897 C896 1.392 . S
C897 H909 0.929 . S
C898 C894 1.531 . S
C898 H910 0.960 1_655 S
C898 H911 0.962 1_655 S
C898 H912 0.960 . S
C899 C896 1.511 . S
C899 H913 0.961 . S
C899 H914 0.961 . S
C899 H915 0.961 . S
C900 C901 1.370 . S
C900 C902 1.363 1_554 S
C900 H916 0.931 1_554 S
C901 C900 1.370 . S
C901 C905 1.408 . S
C902 C900 1.363 1_556 S
C902 C903 1.370 1_556 S
C902 C906 1.524 . S
C903 C895 1.503 1_454 S
C903 C902 1.370 1_554 S
C903 C904 1.403 . S
C904 C903 1.403 . S
C904 C905 1.404 . S
C904 C907 1.539 . S
C905 C901 1.408 . S
C905 C904 1.404 . S
C905 H917 0.930 . S
C906 C902 1.524 . S
C906 H918 0.956 . S
C906 H919 0.959 1_455 S
C906 H920 0.961 . S
C907 C904 1.539 . S
C907 H921 0.958 . S
C907 H922 0.961 . S
C907 H923 0.960 1_455 S
H908 C892 0.931 . S
H909 C897 0.929 . S
H910 C898 0.960 1_455 S
H911 C898 0.962 1_455 S
H912 C898 0.960 . S
H913 C899 0.961 . S
H914 C899 0.961 . S
H915 C899 0.961 . S
H916 C900 0.931 1_556 S
H917 C905 0.930 . S
H918 C906 0.956 . S
H919 C906 0.959 1_655 S
H920 C906 0.961 . S
H921 C907 0.958 . S
H922 C907 0.961 . S
H923 C907 0.960 1_655 S
C924 C925 1.391 . S
C924 C926 1.394 . S
C924 H940 0.931 . S
C925 C924 1.391 . S
C925 C929 1.376 . S
C926 C924 1.394 . S
C926 C927 1.369 . S
C926 C930 1.531 . S
C927 C926 1.369 . S
C927 C928 1.410 1_556 S
C927 C935 1.503 . S
C928 C927 1.410 1_554 S
C928 C929 1.392 1_554 S
C928 C931 1.511 . S
C929 C925 1.376 . S
C929 C928 1.392 1_556 S
C929 H941 0.929 1_556 S
C930 C926 1.531 . S
C930 H942 0.960 . S
C930 H943 0.962 . S
C930 H944 0.960 . S
C931 C928 1.511 . S
C931 H945 0.961 . S
C931 H946 0.961 . S
C931 H947 0.961 . S
C932 C933 1.370 . S
C932 C934 1.363 . S
C932 H948 0.931 . S
C933 C932 1.370 . S
C933 C937 1.408 1_554 S
C934 C932 1.363 . S
C934 C935 1.370 1_554 S
C934 C938 1.524 . S
C935 C927 1.503 . S
C935 C934 1.370 1_556 S
C935 C936 1.403 . S
C936 C935 1.403 . S
C936 C937 1.404 . S
C936 C939 1.539 . S
C937 C933 1.408 1_556 S
C937 C936 1.404 . S
C937 H949 0.930 . S
C938 C934 1.524 . S
C938 H950 0.956 . S
C938 H951 0.961 . S
C938 H952 0.961 . S
C939 C936 1.539 . S
C939 H953 0.958 . S
C939 H954 0.961 . S
C939 H955 0.960 . S
H940 C924 0.931 . S
H941 C929 0.929 1_554 S
H942 C930 0.960 . S
H943 C930 0.962 . S
H944 C930 0.960 . S
H945 C931 0.961 . S
H946 C931 0.961 . S
H947 C931 0.961 . S
H948 C932 0.931 . S
H949 C937 0.930 . S
H950 C938 0.956 . S
H951 C938 0.961 . S
H952 C938 0.961 . S
H953 C939 0.958 . S
H954 C939 0.961 . S
H955 C939 0.960 . S
C956 C957 1.391 1_556 S
C956 C958 1.394 . S
C956 H972 0.931 . S
C957 C956 1.391 1_554 S
C957 C961 1.376 . S
C958 C956 1.394 . S
C958 C959 1.369 . S
C958 C962 1.531 . S
C959 C958 1.369 . S
C959 C960 1.410 1_556 S
C959 C967 1.503 1_565 S
C960 C959 1.410 1_554 S
C960 C961 1.392 . S
C960 C963 1.511 . S
C961 C957 1.376 . S
C961 C960 1.392 . S
C961 H973 0.929 . S
C962 C958 1.531 . S
C962 H974 0.960 . S
C962 H975 0.962 . S
C962 H976 0.960 . S
C963 C960 1.511 . S
C963 H977 0.961 . S
C963 H978 0.961 1_565 S
C963 H979 0.961 . S
C964 C965 1.370 1_554 S
C964 C966 1.363 . S
C964 H980 0.931 . S
C965 C964 1.370 1_556 S
C965 C969 1.408 . S
C966 C964 1.363 . S
C966 C967 1.370 1_554 S
C966 C970 1.524 . S
C967 C959 1.503 1_545 S
C967 C966 1.370 1_556 S
C967 C968 1.403 . S
C968 C967 1.403 . S
C968 C969 1.404 . S
C968 C971 1.539 . S
C969 C965 1.408 . S
C969 C968 1.404 . S
C969 H981 0.930 . S
C970 C966 1.524 . S
C970 H982 0.956 . S
C970 H983 0.961 . S
C970 H984 0.961 . S
C971 C968 1.539 . S
C971 H985 0.958 . S
C971 H986 0.961 . S
C971 H987 0.960 1_545 S
H972 C956 0.931 . S
H973 C961 0.929 . S
H974 C962 0.960 . S
H975 C962 0.962 . S
H976 C962 0.960 . S
H977 C963 0.961 . S
H978 C963 0.961 1_545 S
H979 C963 0.961 . S
H980 C964 0.931 . S
H981 C969 0.930 . S
H982 C970 0.956 . S
H983 C970 0.961 . S
H984 C970 0.961 . S
H985 C971 0.958 . S
H986 C971 0.961 . S
H987 C971 0.960 1_565 S
C988 C989 1.391 . S
C988 C990 1.394 . S
C988 H1004 0.931 . S
C989 C988 1.391 . S
C989 C993 1.376 1_556 S
C990 C988 1.394 . S
C990 C991 1.369 . S
C990 C994 1.531 . S
C991 C990 1.369 . S
C991 C992 1.410 1_556 S
C991 C999 1.503 1_656 S
C992 C991 1.410 1_554 S
C992 C993 1.392 . S
C992 C995 1.511 . S
C993 C989 1.376 1_554 S
C993 C992 1.392 . S
C993 H1005 0.929 . S
C994 C990 1.531 . S
C994 H1006 0.960 1_655 S
C994 H1007 0.962 1_655 S
C994 H1008 0.960 . S
C995 C992 1.511 . S
C995 H1009 0.961 . S
C995 H1010 0.961 . S
C995 H1011 0.961 . S
C996 C997 1.370 . S
C996 C998 1.363 . S
C996 H1012 0.931 . S
C997 C996 1.370 . S
C997 C1001 1.408 . S
C998 C996 1.363 . S
C998 C999 1.370 . S
C998 C1002 1.524 . S
C999 C991 1.503 1_454 S
C999 C998 1.370 . S
C999 C1000 1.403 . S
C1000 C999 1.403 . S
C1000 C1001 1.404 . S
C1000 C1003 1.539 1_554 S
C1001 C997 1.408 . S
C1001 C1000 1.404 . S
C1001 H1013 0.930 . S
C1002 C998 1.524 . S
C1002 H1014 0.956 1_554 S
C1002 H1015 0.961 1_455 S
C1002 H1016 0.961 . S
C1003 C1000 1.539 1_556 S
C1003 H1017 0.958 . S
C1003 H1018 0.961 1_556 S
C1003 H1019 0.990 . S
H1004 C988 0.931 . S
H1005 C993 0.929 . S
H1006 C994 0.960 1_455 S
H1007 C994 0.962 1_455 S
H1008 C994 0.960 . S
H1009 C995 0.961 . S
H1010 C995 0.961 . S
H1011 C995 0.961 . S
H1012 C996 0.931 . S
H1013 C1001 0.930 . S
H1014 C1002 0.956 1_556 S
H1015 C1002 0.961 1_655 S
H1016 C1002 0.961 . S
H1017 C1003 0.958 . S
H1018 C1003 0.961 1_554 S
H1019 C1003 0.990 . S
C1020 C1021 1.391 . S
C1020 C1022 1.394 . S
C1020 H1036 0.931 . S
C1021 C1020 1.391 . S
C1021 C1025 1.376 . S
C1022 C1020 1.394 . S
C1022 C1023 1.369 . S
C1022 C1026 1.531 . S
C1023 C1022 1.369 . S
C1023 C1024 1.410 . S
C1023 C1031 1.503 . S
C1024 C1023 1.410 . S
C1024 C1025 1.392 . S
C1024 C1027 1.511 . S
C1025 C1021 1.376 . S
C1025 C1024 1.392 . S
C1025 H1037 0.929 . S
C1026 C1022 1.531 . S
C1026 H1038 0.960 . S
C1026 H1039 0.962 . S
C1026 H1040 0.960 . S
C1027 C1024 1.511 . S
C1027 H1041 0.961 . S
C1027 H1042 0.961 . S
C1027 H1043 0.961 . S
C1028 C1029 1.370 . S
C1028 C1030 1.363 . S
C1028 H1044 0.931 . S
C1029 C1028 1.370 . S
C1029 C1033 1.408 . S
C1030 C1028 1.363 . S
C1030 C1031 1.370 . S
C1030 C1034 1.524 . S
C1031 C1023 1.503 . S
C1031 C1030 1.370 . S
C1031 C1032 1.403 . S
C1032 C1031 1.403 . S
C1032 C1033 1.404 . S
C1032 C1035 1.539 . S
C1033 C1029 1.408 . S
C1033 C1032 1.404 . S
C1033 H1045 0.930 . S
C1034 C1030 1.524 . S
C1034 H1046 0.956 . S
C1034 H1047 0.961 . S
C1034 H1048 0.961 . S
C1035 C1032 1.539 . S
C1035 H1049 0.958 . S
C1035 H1050 0.961 . S
C1035 H1051 0.960 . S
H1036 C1020 0.931 . S
H1037 C1025 0.929 . S
H1038 C1026 0.960 . S
H1039 C1026 0.962 . S
H1040 C1026 0.960 . S
H1041 C1027 0.961 . S
H1042 C1027 0.961 . S
H1043 C1027 0.961 . S
H1044 C1028 0.931 . S
H1045 C1033 0.930 . S
H1046 C1034 0.956 . S
H1047 C1034 0.961 . S
H1048 C1034 0.961 . S
H1049 C1035 0.958 . S
H1050 C1035 0.961 . S
H1051 C1035 0.960 . S
C1052 C1053 1.391 . S
C1052 C1054 1.394 . S
C1052 H1068 0.931 . S
C1053 C1052 1.391 . S
C1053 C1057 1.376 . S
C1054 C1052 1.394 . S
C1054 C1055 1.369 . S
C1054 C1058 1.531 . S
C1055 C1054 1.369 . S
C1055 C1056 1.410 . S
C1055 C1063 1.503 . S
C1056 C1055 1.410 . S
C1056 C1057 1.392 . S
C1056 C1059 1.511 . S
C1057 C1053 1.376 . S
C1057 C1056 1.392 . S
C1057 H1069 0.929 . S
C1058 C1054 1.531 . S
C1058 H1070 0.960 . S
C1058 H1071 0.962 . S
C1058 H1072 0.960 . S
C1059 C1056 1.511 . S
C1059 H1073 0.961 . S
C1059 H1074 0.961 . S
C1059 H1075 0.961 . S
C1060 C1061 1.370 . S
C1060 C1062 1.363 . S
C1060 H1076 0.931 . S
C1061 C1060 1.370 . S
C1061 C1065 1.408 . S
C1062 C1060 1.363 . S
C1062 C1063 1.370 . S
C1062 C1066 1.524 . S
C1063 C1055 1.503 . S
C1063 C1062 1.370 . S
C1063 C1064 1.403 . S
C1064 C1063 1.403 . S
C1064 C1065 1.404 . S
C1064 C1067 1.539 . S
C1065 C1061 1.408 . S
C1065 C1064 1.404 . S
C1065 H1077 0.930 . S
C1066 C1062 1.524 . S
C1066 H1078 0.956 . S
C1066 H1079 0.961 . S
C1066 H1080 0.961 . S
C1067 C1064 1.539 . S
C1067 H1081 0.958 . S
C1067 H1082 0.961 . S
C1067 H1083 0.960 . S
H1068 C1052 0.931 . S
H1069 C1057 0.929 . S
H1070 C1058 0.960 . S
H1071 C1058 0.962 . S
H1072 C1058 0.960 . S
H1073 C1059 0.961 . S
H1074 C1059 0.961 . S
H1075 C1059 0.961 . S
H1076 C1060 0.931 . S
H1077 C1065 0.930 . S
H1078 C1066 0.956 . S
H1079 C1066 0.961 . S
H1080 C1066 0.961 . S
H1081 C1067 0.958 . S
H1082 C1067 0.961 . S
H1083 C1067 0.960 . S
C1084 C1085 1.391 . S
C1084 C1086 1.394 . S
C1084 H1100 0.931 . S
C1085 C1084 1.391 . S
C1085 C1089 1.376 . S
C1086 C1084 1.394 . S
C1086 C1087 1.369 . S
C1086 C1090 1.531 . S
C1087 C1086 1.369 . S
C1087 C1088 1.410 . S
C1087 C1095 1.503 . S
C1088 C1087 1.410 . S
C1088 C1089 1.392 . S
C1088 C1091 1.511 . S
C1089 C1085 1.376 . S
C1089 C1088 1.392 . S
C1089 H1101 0.929 . S
C1090 C1086 1.531 . S
C1090 H1102 0.960 . S
C1090 H1103 0.962 . S
C1090 H1104 0.960 . S
C1091 C1088 1.511 . S
C1091 H1105 0.961 . S
C1091 H1106 0.961 . S
C1091 H1107 0.961 . S
C1092 C1093 1.370 . S
C1092 C1094 1.363 . S
C1092 H1108 0.931 . S
C1093 C1092 1.370 . S
C1093 C1097 1.408 . S
C1094 C1092 1.363 . S
C1094 C1095 1.370 . S
C1094 C1098 1.524 . S
C1095 C1087 1.503 . S
C1095 C1094 1.370 . S
C1095 C1096 1.403 . S
C1096 C1095 1.403 . S
C1096 C1097 1.404 . S
C1096 C1099 1.539 . S
C1097 C1093 1.408 . S
C1097 C1096 1.404 . S
C1097 H1109 0.930 . S
C1098 C1094 1.524 . S
C1098 H1110 0.956 . S
C1098 H1111 0.961 . S
C1098 H1112 0.961 . S
C1099 C1096 1.539 . S
C1099 H1113 0.958 . S
C1099 H1114 0.961 . S
C1099 H1115 0.960 . S
H1100 C1084 0.931 . S
H1101 C1089 0.929 . S
H1102 C1090 0.960 . S
H1103 C1090 0.962 . S
H1104 C1090 0.960 . S
H1105 C1091 0.961 . S
H1106 C1091 0.961 . S
H1107 C1091 0.961 . S
H1108 C1092 0.931 . S
H1109 C1097 0.930 . S
H1110 C1098 0.956 . S
H1111 C1098 0.961 . S
H1112 C1098 0.961 . S
H1113 C1099 0.958 . S
H1114 C1099 0.961 . S
H1115 C1099 0.960 . S
C1116 C1117 1.391 . S
C1116 C1118 1.394 . S
C1116 H1132 0.931 . S
C1117 C1116 1.391 . S
C1117 C1121 1.376 . S
C1118 C1116 1.394 . S
C1118 C1119 1.369 . S
C1118 C1122 1.531 . S
C1119 C1118 1.369 . S
C1119 C1120 1.410 . S
C1119 C1127 1.503 . S
C1120 C1119 1.410 . S
C1120 C1121 1.392 . S
C1120 C1123 1.511 . S
C1121 C1117 1.376 . S
C1121 C1120 1.392 . S
C1121 H1133 0.929 . S
C1122 C1118 1.531 . S
C1122 H1134 0.960 . S
C1122 H1135 0.962 . S
C1122 H1136 0.960 . S
C1123 C1120 1.511 . S
C1123 H1137 0.961 . S
C1123 H1138 0.961 . S
C1123 H1139 0.961 . S
C1124 C1125 1.370 . S
C1124 C1126 1.363 . S
C1124 H1140 0.931 . S
C1125 C1124 1.370 . S
C1125 C1129 1.408 . S
C1126 C1124 1.363 . S
C1126 C1127 1.370 . S
C1126 C1130 1.524 . S
C1127 C1119 1.503 . S
C1127 C1126 1.370 . S
C1127 C1128 1.403 . S
C1128 C1127 1.403 . S
C1128 C1129 1.404 . S
C1128 C1131 1.539 . S
C1129 C1125 1.408 . S
C1129 C1128 1.404 . S
C1129 H1141 0.930 . S
C1130 C1126 1.524 . S
C1130 H1142 0.956 . S
C1130 H1143 0.961 . S
C1130 H1144 0.961 . S
C1131 C1128 1.539 . S
C1131 H1145 0.958 . S
C1131 H1146 0.961 . S
C1131 H1147 0.960 . S
H1132 C1116 0.931 . S
H1133 C1121 0.929 . S
H1134 C1122 0.960 . S
H1135 C1122 0.962 . S
H1136 C1122 0.960 . S
H1137 C1123 0.961 . S
H1138 C1123 0.961 . S
H1139 C1123 0.961 . S
H1140 C1124 0.931 . S
H1141 C1129 0.930 . S
H1142 C1130 0.956 . S
H1143 C1130 0.961 . S
H1144 C1130 0.961 . S
H1145 C1131 0.958 . S
H1146 C1131 0.961 . S
H1147 C1131 0.960 . S
C1148 C1149 1.391 . S
C1148 C1150 1.394 . S
C1148 H1164 0.931 . S
C1149 C1148 1.391 . S
C1149 C1153 1.376 . S
C1150 C1148 1.394 . S
C1150 C1151 1.369 . S
C1150 C1154 1.531 . S
C1151 C1150 1.369 . S
C1151 C1152 1.410 . S
C1151 C1159 1.503 . S
C1152 C1151 1.410 . S
C1152 C1153 1.392 . S
C1152 C1155 1.511 . S
C1153 C1149 1.376 . S
C1153 C1152 1.392 . S
C1153 H1165 0.929 . S
C1154 C1150 1.531 . S
C1154 H1166 0.960 . S
C1154 H1167 0.962 . S
C1154 H1168 0.960 . S
C1155 C1152 1.511 . S
C1155 H1169 0.961 . S
C1155 H1170 0.961 . S
C1155 H1171 0.961 . S
C1156 C1157 1.370 . S
C1156 C1158 1.363 . S
C1156 H1172 0.931 . S
C1157 C1156 1.370 . S
C1157 C1161 1.408 . S
C1158 C1156 1.363 . S
C1158 C1159 1.370 . S
C1158 C1162 1.524 . S
C1159 C1151 1.503 . S
C1159 C1158 1.370 . S
C1159 C1160 1.403 . S
C1160 C1159 1.403 . S
C1160 C1161 1.404 . S
C1160 C1163 1.539 . S
C1161 C1157 1.408 . S
C1161 C1160 1.404 . S
C1161 H1173 0.930 . S
C1162 C1158 1.524 . S
C1162 H1174 0.956 . S
C1162 H1175 0.961 . S
C1162 H1176 0.961 . S
C1163 C1160 1.539 . S
C1163 H1177 0.958 . S
C1163 H1178 0.961 . S
C1163 H1179 0.960 . S
H1164 C1148 0.931 . S
H1165 C1153 0.929 . S
H1166 C1154 0.960 . S
H1167 C1154 0.962 . S
H1168 C1154 0.960 . S
H1169 C1155 0.961 . S
H1170 C1155 0.961 . S
H1171 C1155 0.961 . S
H1172 C1156 0.931 . S
H1173 C1161 0.930 . S
H1174 C1162 0.956 . S
H1175 C1162 0.961 . S
H1176 C1162 0.961 . S
H1177 C1163 0.958 . S
H1178 C1163 0.961 . S
H1179 C1163 0.960 . S
C1180 C1181 1.391 . S
C1180 C1182 1.394 . S
C1180 H1196 0.931 . S
C1181 C1180 1.391 . S
C1181 C1185 1.376 . S
C1182 C1180 1.394 . S
C1182 C1183 1.369 . S
C1182 C1186 1.531 . S
C1183 C1182 1.369 . S
C1183 C1184 1.410 . S
C1183 C1191 1.503 . S
C1184 C1183 1.410 . S
C1184 C1185 1.392 . S
C1184 C1187 1.511 . S
C1185 C1181 1.376 . S
C1185 C1184 1.392 . S
C1185 H1197 0.929 . S
C1186 C1182 1.531 . S
C1186 H1198 0.960 . S
C1186 H1199 0.962 . S
C1186 H1200 0.960 . S
C1187 C1184 1.511 . S
C1187 H1201 0.961 . S
C1187 H1202 0.961 . S
C1187 H1203 0.961 . S
C1188 C1189 1.370 . S
C1188 C1190 1.363 . S
C1188 H1204 0.931 . S
C1189 C1188 1.370 . S
C1189 C1193 1.408 . S
C1190 C1188 1.363 . S
C1190 C1191 1.370 . S
C1190 C1194 1.524 . S
C1191 C1183 1.503 . S
C1191 C1190 1.370 . S
C1191 C1192 1.403 . S
C1192 C1191 1.403 . S
C1192 C1193 1.404 . S
C1192 C1195 1.539 . S
C1193 C1189 1.408 . S
C1193 C1192 1.404 . S
C1193 H1205 0.930 . S
C1194 C1190 1.524 . S
C1194 H1206 0.956 . S
C1194 H1207 0.961 . S
C1194 H1208 0.961 . S
C1195 C1192 1.539 . S
C1195 H1209 0.958 . S
C1195 H1210 0.961 . S
C1195 H1211 0.960 . S
H1196 C1180 0.931 . S
H1197 C1185 0.929 . S
H1198 C1186 0.960 . S
H1199 C1186 0.962 . S
H1200 C1186 0.960 . S
H1201 C1187 0.961 . S
H1202 C1187 0.961 . S
H1203 C1187 0.961 . S
H1204 C1188 0.931 . S
H1205 C1193 0.930 . S
H1206 C1194 0.956 . S
H1207 C1194 0.961 . S
H1208 C1194 0.961 . S
H1209 C1195 0.958 . S
H1210 C1195 0.961 . S
H1211 C1195 0.960 . S
C1212 C1213 1.391 . S
C1212 C1214 1.394 . S
C1212 H1228 0.931 . S
C1213 C1212 1.391 . S
C1213 C1217 1.376 . S
C1214 C1212 1.394 . S
C1214 C1215 1.369 . S
C1214 C1218 1.531 . S
C1215 C1214 1.369 . S
C1215 C1216 1.410 . S
C1215 C1223 1.503 . S
C1216 C1215 1.410 . S
C1216 C1217 1.392 . S
C1216 C1219 1.511 . S
C1217 C1213 1.376 . S
C1217 C1216 1.392 . S
C1217 H1229 0.929 . S
C1218 C1214 1.531 . S
C1218 H1230 0.960 . S
C1218 H1231 0.962 . S
C1218 H1232 0.960 . S
C1219 C1216 1.511 . S
C1219 H1233 0.961 . S
C1219 H1234 0.961 . S
C1219 H1235 0.961 . S
C1220 C1221 1.370 . S
C1220 C1222 1.363 . S
C1220 H1236 0.931 . S
C1221 C1220 1.370 . S
C1221 C1225 1.408 . S
C1222 C1220 1.363 . S
C1222 C1223 1.370 . S
C1222 C1226 1.524 . S
C1223 C1215 1.503 . S
C1223 C1222 1.370 . S
C1223 C1224 1.403 . S
C1224 C1223 1.403 . S
C1224 C1225 1.404 . S
C1224 C1227 1.539 . S
C1225 C1221 1.408 . S
C1225 C1224 1.404 . S
C1225 H1237 0.930 . S
C1226 C1222 1.524 . S
C1226 H1238 0.956 . S
C1226 H1239 0.961 . S
C1226 H1240 0.961 . S
C1227 C1224 1.539 . S
C1227 H1241 0.958 . S
C1227 H1242 0.961 . S
C1227 H1243 0.960 . S
H1228 C1212 0.931 . S
H1229 C1217 0.929 . S
H1230 C1218 0.960 . S
H1231 C1218 0.962 . S
H1232 C1218 0.960 . S
H1233 C1219 0.961 . S
H1234 C1219 0.961 . S
H1235 C1219 0.961 . S
H1236 C1220 0.931 . S
H1237 C1225 0.930 . S
H1238 C1226 0.956 . S
H1239 C1226 0.961 . S
H1240 C1226 0.961 . S
H1241 C1227 0.958 . S
H1242 C1227 0.961 . S
H1243 C1227 0.960 . S
C1244 C1245 1.391 . S
C1244 C1246 1.394 . S
C1244 H1260 0.931 . S
C1245 C1244 1.391 . S
C1245 C1249 1.376 . S
C1246 C1244 1.394 . S
C1246 C1247 1.369 . S
C1246 C1250 1.531 . S
C1247 C1246 1.369 . S
C1247 C1248 1.410 . S
C1247 C1255 1.503 . S
C1248 C1247 1.410 . S
C1248 C1249 1.392 . S
C1248 C1251 1.511 . S
C1249 C1245 1.376 . S
C1249 C1248 1.392 . S
C1249 H1261 0.929 . S
C1250 C1246 1.531 . S
C1250 H1262 0.960 . S
C1250 H1263 0.962 . S
C1250 H1264 0.960 . S
C1251 C1248 1.511 . S
C1251 H1265 0.961 . S
C1251 H1266 0.961 . S
C1251 H1267 0.961 . S
C1252 C1253 1.370 . S
C1252 C1254 1.363 . S
C1252 H1268 0.931 . S
C1253 C1252 1.370 . S
C1253 C1257 1.408 . S
C1254 C1252 1.363 . S
C1254 C1255 1.370 . S
C1254 C1258 1.524 . S
C1255 C1247 1.503 . S
C1255 C1254 1.370 . S
C1255 C1256 1.403 . S
C1256 C1255 1.403 . S
C1256 C1257 1.404 . S
C1256 C1259 1.539 . S
C1257 C1253 1.408 . S
C1257 C1256 1.404 . S
C1257 H1269 0.930 . S
C1258 C1254 1.524 . S
C1258 H1270 0.956 . S
C1258 H1271 0.961 . S
C1258 H1272 0.961 . S
C1259 C1256 1.539 . S
C1259 H1273 0.958 . S
C1259 H1274 0.961 . S
C1259 H1275 0.960 . S
H1260 C1244 0.931 . S
H1261 C1249 0.929 . S
H1262 C1250 0.960 . S
H1263 C1250 0.962 . S
H1264 C1250 0.960 . S
H1265 C1251 0.961 . S
H1266 C1251 0.961 . S
H1267 C1251 0.961 . S
H1268 C1252 0.931 . S
H1269 C1257 0.930 . S
H1270 C1258 0.956 . S
H1271 C1258 0.961 . S
H1272 C1258 0.961 . S
H1273 C1259 0.958 . S
H1274 C1259 0.961 . S
H1275 C1259 0.960 . S
C1276 C1277 1.391 . S
C1276 C1278 1.394 . S
C1276 H1292 0.931 . S
C1277 C1276 1.391 . S
C1277 C1281 1.376 . S
C1278 C1276 1.394 . S
C1278 C1279 1.369 . S
C1278 C1282 1.531 . S
C1279 C1278 1.369 . S
C1279 C1280 1.410 . S
C1279 C1287 1.503 . S
C1280 C1279 1.410 . S
C1280 C1281 1.392 . S
C1280 C1283 1.511 . S
C1281 C1277 1.376 . S
C1281 C1280 1.392 . S
C1281 H1293 0.929 . S
C1282 C1278 1.531 . S
C1282 H1294 0.960 . S
C1282 H1295 0.962 . S
C1282 H1296 0.960 . S
C1283 C1280 1.511 . S
C1283 H1297 0.961 . S
C1283 H1298 0.961 . S
C1283 H1299 0.961 . S
C1284 C1285 1.370 . S
C1284 C1286 1.363 . S
C1284 H1300 0.931 . S
C1285 C1284 1.370 . S
C1285 C1289 1.408 . S
C1286 C1284 1.363 . S
C1286 C1287 1.370 . S
C1286 C1290 1.524 . S
C1287 C1279 1.503 . S
C1287 C1286 1.370 . S
C1287 C1288 1.403 . S
C1288 C1287 1.403 . S
C1288 C1289 1.404 . S
C1288 C1291 1.539 . S
C1289 C1285 1.408 . S
C1289 C1288 1.404 . S
C1289 H1301 0.930 . S
C1290 C1286 1.524 . S
C1290 H1302 0.956 . S
C1290 H1303 0.961 . S
C1290 H1304 0.961 . S
C1291 C1288 1.539 . S
C1291 H1305 0.958 . S
C1291 H1306 0.961 . S
C1291 H1307 0.960 . S
H1292 C1276 0.931 . S
H1293 C1281 0.929 . S
H1294 C1282 0.960 . S
H1295 C1282 0.962 . S
H1296 C1282 0.960 . S
H1297 C1283 0.961 . S
H1298 C1283 0.961 . S
H1299 C1283 0.961 . S
H1300 C1284 0.931 . S
H1301 C1289 0.930 . S
H1302 C1290 0.956 . S
H1303 C1290 0.961 . S
H1304 C1290 0.961 . S
H1305 C1291 0.958 . S
H1306 C1291 0.961 . S
H1307 C1291 0.960 . S
C1308 C1309 1.391 . S
C1308 C1310 1.394 . S
C1308 H1324 0.931 . S
C1309 C1308 1.391 . S
C1309 C1313 1.376 . S
C1310 C1308 1.394 . S
C1310 C1311 1.369 . S
C1310 C1314 1.531 . S
C1311 C1310 1.369 . S
C1311 C1312 1.410 . S
C1311 C1319 1.503 . S
C1312 C1311 1.410 . S
C1312 C1313 1.392 . S
C1312 C1315 1.511 . S
C1313 C1309 1.376 . S
C1313 C1312 1.392 . S
C1313 H1325 0.929 . S
C1314 C1310 1.531 . S
C1314 H1326 0.960 . S
C1314 H1327 0.962 . S
C1314 H1328 0.960 . S
C1315 C1312 1.511 . S
C1315 H1329 0.961 . S
C1315 H1330 0.961 . S
C1315 H1331 0.961 . S
C1316 C1317 1.370 . S
C1316 C1318 1.363 . S
C1316 H1332 0.931 . S
C1317 C1316 1.370 . S
C1317 C1321 1.408 . S
C1318 C1316 1.363 . S
C1318 C1319 1.370 . S
C1318 C1322 1.524 . S
C1319 C1311 1.503 . S
C1319 C1318 1.370 . S
C1319 C1320 1.403 . S
C1320 C1319 1.403 . S
C1320 C1321 1.404 . S
C1320 C1323 1.539 . S
C1321 C1317 1.408 . S
C1321 C1320 1.404 . S
C1321 H1333 0.930 . S
C1322 C1318 1.524 . S
C1322 H1334 0.956 . S
C1322 H1335 0.961 . S
C1322 H1336 0.961 . S
C1323 C1320 1.539 . S
C1323 H1337 0.958 . S
C1323 H1338 0.961 . S
C1323 H1339 0.960 . S
H1324 C1308 0.931 . S
H1325 C1313 0.929 . S
H1326 C1314 0.960 . S
H1327 C1314 0.962 . S
H1328 C1314 0.960 . S
H1329 C1315 0.961 . S
H1330 C1315 0.961 . S
H1331 C1315 0.961 . S
H1332 C1316 0.931 . S
H1333 C1321 0.930 . S
H1334 C1322 0.956 . S
H1335 C1322 0.961 . S
H1336 C1322 0.961 . S
H1337 C1323 0.958 . S
H1338 C1323 0.961 . S
H1339 C1323 0.960 . S
C1340 C1341 1.391 . S
C1340 C1342 1.394 . S
C1340 H1356 0.931 . S
C1341 C1340 1.391 . S
C1341 C1345 1.376 . S
C1342 C1340 1.394 . S
C1342 C1343 1.369 . S
C1342 C1346 1.531 . S
C1343 C1342 1.369 . S
C1343 C1344 1.410 . S
C1343 C1351 1.503 . S
C1344 C1343 1.410 . S
C1344 C1345 1.392 . S
C1344 C1347 1.511 . S
C1345 C1341 1.376 . S
C1345 C1344 1.392 . S
C1345 H1357 0.929 . S
C1346 C1342 1.531 . S
C1346 H1358 0.960 . S
C1346 H1359 0.962 . S
C1346 H1360 0.960 . S
C1347 C1344 1.511 . S
C1347 H1361 0.961 . S
C1347 H1362 0.961 . S
C1347 H1363 0.961 . S
C1348 C1349 1.370 . S
C1348 C1350 1.363 . S
C1348 H1364 0.931 . S
C1349 C1348 1.370 . S
C1349 C1353 1.408 . S
C1350 C1348 1.363 . S
C1350 C1351 1.370 . S
C1350 C1354 1.524 . S
C1351 C1343 1.503 . S
C1351 C1350 1.370 . S
C1351 C1352 1.403 . S
C1352 C1351 1.403 . S
C1352 C1353 1.404 . S
C1352 C1355 1.539 . S
C1353 C1349 1.408 . S
C1353 C1352 1.404 . S
C1353 H1365 0.930 . S
C1354 C1350 1.524 . S
C1354 H1366 0.956 . S
C1354 H1367 0.961 . S
C1354 H1368 0.961 . S
C1355 C1352 1.539 . S
C1355 H1369 0.958 . S
C1355 H1370 0.961 . S
C1355 H1371 0.960 . S
H1356 C1340 0.931 . S
H1357 C1345 0.929 . S
H1358 C1346 0.960 . S
H1359 C1346 0.962 . S
H1360 C1346 0.960 . S
H1361 C1347 0.961 . S
H1362 C1347 0.961 . S
H1363 C1347 0.961 . S
H1364 C1348 0.931 . S
H1365 C1353 0.930 . S
H1366 C1354 0.956 . S
H1367 C1354 0.961 . S
H1368 C1354 0.961 . S
H1369 C1355 0.958 . S
H1370 C1355 0.961 . S
H1371 C1355 0.960 . S
C1372 C1373 1.391 . S
C1372 C1374 1.394 . S
C1372 H1388 0.931 . S
C1373 C1372 1.391 . S
C1373 C1377 1.376 . S
C1374 C1372 1.394 . S
C1374 C1375 1.369 . S
C1374 C1378 1.531 . S
C1375 C1374 1.369 . S
C1375 C1376 1.410 . S
C1375 C1383 1.503 . S
C1376 C1375 1.410 . S
C1376 C1377 1.392 . S
C1376 C1379 1.511 . S
C1377 C1373 1.376 . S
C1377 C1376 1.392 . S
C1377 H1389 0.929 . S
C1378 C1374 1.531 . S
C1378 H1390 0.960 . S
C1378 H1391 0.962 . S
C1378 H1392 0.960 . S
C1379 C1376 1.511 . S
C1379 H1393 0.961 . S
C1379 H1394 0.961 . S
C1379 H1395 0.961 . S
C1380 C1381 1.370 . S
C1380 C1382 1.363 . S
C1380 H1396 0.931 . S
C1381 C1380 1.370 . S
C1381 C1385 1.408 . S
C1382 C1380 1.363 . S
C1382 C1383 1.370 . S
C1382 C1386 1.524 . S
C1383 C1375 1.503 . S
C1383 C1382 1.370 . S
C1383 C1384 1.403 . S
C1384 C1383 1.403 . S
C1384 C1385 1.404 . S
C1384 C1387 1.539 . S
C1385 C1381 1.408 . S
C1385 C1384 1.404 . S
C1385 H1397 0.930 . S
C1386 C1382 1.524 . S
C1386 H1398 0.956 . S
C1386 H1399 0.961 . S
C1386 H1400 0.961 . S
C1387 C1384 1.539 . S
C1387 H1401 0.958 . S
C1387 H1402 0.961 . S
C1387 H1403 0.960 . S
H1388 C1372 0.931 . S
H1389 C1377 0.929 . S
H1390 C1378 0.960 . S
H1391 C1378 0.962 . S
H1392 C1378 0.960 . S
H1393 C1379 0.961 . S
H1394 C1379 0.961 . S
H1395 C1379 0.961 . S
H1396 C1380 0.931 . S
H1397 C1385 0.930 . S
H1398 C1386 0.956 . S
H1399 C1386 0.961 . S
H1400 C1386 0.961 . S
H1401 C1387 0.958 . S
H1402 C1387 0.961 . S
H1403 C1387 0.960 . S
C253 C249 1.657 . S
C261 C11 1.666 . S
C285 C221 1.669 . S
C293 C25 1.671 . S
C317 C235 1.661 . S
C325 C39 1.666 . S
C349 C109 1.673 . S
C357 C53 1.672 . S
C381 C123 1.671 . S
C389 C67 1.670 . S
C413 C81 1.657 . S
C421 C95 1.666 . S
C445 C137 1.660 . S
C453 C193 1.666 . S
C477 C151 1.657 . S
C485 C207 1.665 . S
C509 C165 1.659 . S
C517 C179 1.667 . S
C541 C8 1.088 . S
C549 C246 1.117 . S
C573 C218 1.070 . S
C581 C22 1.095 . S
C605 C36 1.064 . S
C613 C232 1.111 . S
C637 C106 1.136 . S
C645 C50 1.095 . S
C669 C64 1.112 . S
C677 C120 1.114 . S
C701 C78 1.091 . S
C709 C92 1.117 . S
C733 C134 1.091 . S
C741 C190 1.087 . S
C765 C204 1.127 . S
C773 C148 1.109 . S
C797 C176 1.128 . S
C805 C162 1.088 . S
C829 C13 1.419 . S
C837 C55 1.378 . S
C861 C69 1.347 . S
C869 C27 1.413 . S
C893 C83 1.355 . S
C901 C41 1.399 . S
C925 C77 1.479 . S
C933 C21 1.466 . S
C957 C35 1.448 . S
C965 C49 1.468 . S
C989 C63 1.475 . S
C997 C7 1.471 . S
C1021 C97 1.439 . S
C1029 C139 1.381 . S
C1053 C153 1.429 . S
C1061 C111 1.398 . S
C1085 C167 1.368 . S
C1093 C125 1.392 . S
C1117 C161 1.477 . S
C1125 C105 1.464 . S
C1149 C119 1.478 . S
C1157 C133 1.468 . S
C1181 C147 1.476 . S
C1189 C91 1.463 . S
C1213 C223 1.351 . S
C1221 C181 1.416 . S
C1245 C237 1.366 . S
C1253 C195 1.393 . S
C1277 C209 1.350 . S
C1285 C251 1.415 . S
C1309 C245 1.462 . S
C1317 C189 1.474 . S
C1341 C203 1.450 . S
C1349 C217 1.471 . S
C1373 C231 1.450 . S
C1381 C175 1.471 . S
