# Generated by pormake.
# Topology fnr, (5)-cn, num edge types: 1
# Building blocks:
#     Node 0, Type 0, BuildingBlock: XOMCOT_clean_sbu_0, # of connection points: 5
#     Node 1, Type 0, BuildingBlock: XOMCOT_clean_sbu_0, # of connection points: 5
#     Node 2, Type 0, BuildingBlock: XOMCOT_clean_sbu_0, # of connection points: 5
#     Node 3, Type 0, BuildingBlock: XOMCOT_clean_sbu_0, # of connection points: 5
#     Node 4, Type 0, BuildingBlock: XOMCOT_clean_sbu_0, # of connection points: 5
#     Node 5, Type 0, BuildingBlock: XOMCOT_clean_sbu_0, # of connection points: 5
#     Node 6, Type 0, BuildingBlock: XOMCOT_clean_sbu_0, # of connection points: 5
#     Node 7, Type 0, BuildingBlock: XOMCOT_clean_sbu_0, # of connection points: 5
#     Node 8, Type 0, BuildingBlock: XOMCOT_clean_sbu_0, # of connection points: 5
#     Node 9, Type 0, BuildingBlock: XOMCOT_clean_sbu_0, # of connection points: 5
#     Node 10, Type 0, BuildingBlock: XOMCOT_clean_sbu_0, # of connection points: 5
#     Node 11, Type 0, BuildingBlock: XOMCOT_clean_sbu_0, # of connection points: 5
#     Edge 12, Type (0, 0), BuildingBlock: XIVTED_clean_linker_0, # of connection points: 2
#     Edge 13, Type (0, 0), BuildingBlock: XIVTED_clean_linker_0, # of connection points: 2
#     Edge 14, Type (0, 0), BuildingBlock: XIVTED_clean_linker_0, # of connection points: 2
#     Edge 15, Type (0, 0), BuildingBlock: XIVTED_clean_linker_0, # of connection points: 2
#     Edge 16, Type (0, 0), BuildingBlock: XIVTED_clean_linker_0, # of connection points: 2
#     Edge 17, Type (0, 0), BuildingBlock: XIVTED_clean_linker_0, # of connection points: 2
#     Edge 18, Type (0, 0), BuildingBlock: XIVTED_clean_linker_0, # of connection points: 2
#     Edge 19, Type (0, 0), BuildingBlock: XIVTED_clean_linker_0, # of connection points: 2
#     Edge 20, Type (0, 0), BuildingBlock: XIVTED_clean_linker_0, # of connection points: 2
#     Edge 21, Type (0, 0), BuildingBlock: XIVTED_clean_linker_0, # of connection points: 2
#     Edge 22, Type (0, 0), BuildingBlock: XIVTED_clean_linker_0, # of connection points: 2
#     Edge 23, Type (0, 0), BuildingBlock: XIVTED_clean_linker_0, # of connection points: 2
#     Edge 24, Type (0, 0), BuildingBlock: XIVTED_clean_linker_0, # of connection points: 2
#     Edge 25, Type (0, 0), BuildingBlock: XIVTED_clean_linker_0, # of connection points: 2
#     Edge 26, Type (0, 0), BuildingBlock: XIVTED_clean_linker_0, # of connection points: 2
#     Edge 27, Type (0, 0), BuildingBlock: XIVTED_clean_linker_0, # of connection points: 2
#     Edge 28, Type (0, 0), BuildingBlock: XIVTED_clean_linker_0, # of connection points: 2
#     Edge 29, Type (0, 0), BuildingBlock: XIVTED_clean_linker_0, # of connection points: 2
#     Edge 30, Type (0, 0), BuildingBlock: XIVTED_clean_linker_0, # of connection points: 2
#     Edge 31, Type (0, 0), BuildingBlock: XIVTED_clean_linker_0, # of connection points: 2
#     Edge 32, Type (0, 0), BuildingBlock: XIVTED_clean_linker_0, # of connection points: 2
#     Edge 33, Type (0, 0), BuildingBlock: XIVTED_clean_linker_0, # of connection points: 2
#     Edge 34, Type (0, 0), BuildingBlock: XIVTED_clean_linker_0, # of connection points: 2
#     Edge 35, Type (0, 0), BuildingBlock: XIVTED_clean_linker_0, # of connection points: 2
#     Edge 36, Type (0, 0), BuildingBlock: XIVTED_clean_linker_0, # of connection points: 2
#     Edge 37, Type (0, 0), BuildingBlock: XIVTED_clean_linker_0, # of connection points: 2
#     Edge 38, Type (0, 0), BuildingBlock: XIVTED_clean_linker_0, # of connection points: 2
#     Edge 39, Type (0, 0), BuildingBlock: XIVTED_clean_linker_0, # of connection points: 2
#     Edge 40, Type (0, 0), BuildingBlock: XIVTED_clean_linker_0, # of connection points: 2
#     Edge 41, Type (0, 0), BuildingBlock: XIVTED_clean_linker_0, # of connection points: 2
# Relax obj value: 0.290
# Max RMSD: 0.219
# Mean RMSD: 0.219
data_MOF--net-fnr--node1-XOMCOT_clean_sbu_0--edge1-XIVTED_clean_linker_0
_symmetry_space_group_name_H-M    P1
_symmetry_Int_Tables_number       1
_symmetry_cell_setting            triclinic
loop_
_symmetry_equiv_pos_as_xyz
'x, y, z'
_cell_length_a     40.793557
_cell_length_b     40.735217
_cell_length_c     52.460545
_cell_angle_alpha  90.16501
_cell_angle_beta   89.883749
_cell_angle_gamma 119.88999
loop_
_atom_site_label
_atom_site_type_symbol
_atom_site_fract_x
_atom_site_fract_y
_atom_site_fract_z
_atom_type_partial_charge
Co0 Co 0.40715 0.17945 0.0839 0.0
C1 C 0.3509 0.1951 0.05781 0.0
C2 C 0.38583 0.23844 0.08449 0.0
C3 C 0.3648 0.25046 0.07131 0.0
N4 N 0.3774 0.20368 0.07618 0.0
N5 N 0.34298 0.22334 0.05457 0.0
H6 H 0.33949 0.1702 0.04582 0.0
H7 H 0.40788 0.2557 0.09773 0.0
C8 C 0.48592 0.24397 0.09447 0.0
O9 O 0.49033 0.22257 0.11122 0.0
N10 N 0.43766 0.15597 0.09047 0.0
C11 C 0.43351 0.13008 0.10806 0.0
C12 C 0.46281 0.12258 0.10538 0.0
C13 C 0.46844 0.16262 0.0768 0.0
N14 N 0.48497 0.14347 0.0859 0.0
C15 C 0.37254 0.15145 0.13282 0.0
C16 C 0.41511 0.21614 0.1611 0.0
C17 C 0.38975 0.18284 0.17388 0.0
C18 C 0.36756 0.15045 0.15923 0.0
C19 C 0.41941 0.21587 0.13469 0.0
N20 N 0.39954 0.18331 0.12074 0.0
H21 H 0.3555 0.1256 0.12241 0.0
H22 H 0.43894 0.24229 0.12601 0.0
H23 H 0.41129 0.11759 0.12208 0.0
H24 H 0.47923 0.18225 0.061 0.0
O25 O 0.36432 0.12995 0.07824 0.0
O26 O 0.40484 0.16427 0.04816 0.0
O27 O 0.45453 0.23145 0.0825 0.0
C28 C 0.3757 0.1321 0.05494 0.0
H29 H 0.36675 0.27789 0.07295 0.0
H30 H 0.46816 0.10428 0.11748 0.0
H31 H 0.43184 0.24238 0.17143 0.0
H32 H 0.34745 0.12397 0.1681 0.0
Co33 Co 0.22794 0.39718 0.5786 0.0
C34 C 0.15843 0.35665 0.54712 0.0
C35 C 0.16827 0.31788 0.56864 0.0
C36 C 0.13816 0.29742 0.55272 0.0
N37 N 0.18057 0.3552 0.5658 0.0
N38 N 0.13196 0.32175 0.53909 0.0
H39 H 0.16292 0.38269 0.53855 0.0
H40 H 0.18181 0.3058 0.57973 0.0
C41 C 0.17755 0.43077 0.58004 0.0
O42 O 0.15179 0.3991 0.59063 0.0
N43 N 0.27557 0.43832 0.59036 0.0
C44 C 0.2964 0.43655 0.60964 0.0
C45 C 0.32759 0.47176 0.61297 0.0
C46 C 0.29464 0.47427 0.58178 0.0
N47 N 0.32643 0.49529 0.59544 0.0
C48 C 0.20175 0.35564 0.62577 0.0
C49 C 0.20981 0.41598 0.65472 0.0
C50 C 0.20114 0.38211 0.66694 0.0
C51 C 0.19622 0.35141 0.65211 0.0
C52 C 0.21445 0.41882 0.6283 0.0
N53 N 0.21032 0.38883 0.61397 0.0
H54 H 0.20214 0.33312 0.61543 0.0
H55 H 0.22414 0.44617 0.61969 0.0
H56 H 0.289 0.4115 0.62079 0.0
H57 H 0.28502 0.48502 0.5664 0.0
O58 O 0.25035 0.36539 0.57811 0.0
O59 O 0.25028 0.39997 0.54548 0.0
O60 O 0.20915 0.43416 0.57302 0.0
C61 C 0.26039 0.3767 0.5548 0.0
H62 H 0.12271 0.2669 0.55089 0.0
H63 H 0.34946 0.47957 0.6272 0.0
H64 H 0.21447 0.44058 0.6656 0.0
H65 H 0.19082 0.32518 0.66097 0.0
Co66 Co 0.82737 0.23426 0.06834 0.0
C67 C 0.81968 0.1579 0.05498 0.0
C68 C 0.82452 0.19205 0.02264 0.0
C69 C 0.8212 0.15886 0.01398 0.0
N70 N 0.82402 0.19205 0.04838 0.0
N71 N 0.81797 0.13724 0.0342 0.0
H72 H 0.81589 0.14738 0.07425 0.0
H73 H 0.82568 0.21406 0.0106 0.0
C74 C 0.74455 0.1829 0.06172 0.0
O75 O 0.75034 0.15482 0.06727 0.0
N76 N 0.83108 0.27697 0.08665 0.0
C77 C 0.852 0.29385 0.10751 0.0
C78 C 0.85245 0.32756 0.11137 0.0
C79 C 0.81909 0.30031 0.0781 0.0
N80 N 0.83186 0.33155 0.09278 0.0
C81 C 0.84181 0.19957 0.11069 0.0
C82 C 0.78536 0.19683 0.14142 0.0
C83 C 0.81388 0.19204 0.15254 0.0
C84 C 0.84168 0.19224 0.13671 0.0
C85 C 0.78684 0.20465 0.11542 0.0
N86 N 0.8152 0.20661 0.10039 0.0
H87 H 0.86493 0.2022 0.09911 0.0
H88 H 0.7673 0.2129 0.10813 0.0
H89 H 0.86744 0.2834 0.11832 0.0
H90 H 0.8038 0.29586 0.06041 0.0
O91 O 0.88148 0.25669 0.06994 0.0
O92 O 0.85068 0.26727 0.03924 0.0
O93 O 0.77244 0.21677 0.06094 0.0
C94 C 0.88283 0.27382 0.04882 0.0
H95 H 0.81872 0.15023 0.99421 0.0
H96 H 0.86793 0.34819 0.1261 0.0
H97 H 0.76385 0.19772 0.15306 0.0
H98 H 0.86415 0.18852 0.14456 0.0
Co99 Co 0.60409 0.82914 0.57507 0.0
C100 C 0.66655 0.81557 0.55588 0.0
C101 C 0.62203 0.76756 0.57497 0.0
C102 C 0.64827 0.75819 0.56692 0.0
N103 N 0.63349 0.80382 0.56867 0.0
N104 N 0.67624 0.78817 0.55488 0.0
H105 H 0.68288 0.8431 0.54712 0.0
H106 H 0.59538 0.74799 0.5836 0.0
C107 C 0.52647 0.76671 0.58766 0.0
O108 O 0.52631 0.78879 0.60594 0.0
N109 N 0.57351 0.85331 0.58024 0.0
C110 C 0.57804 0.88115 0.59636 0.0
C111 C 0.54705 0.88612 0.59434 0.0
C112 C 0.5407 0.84317 0.56788 0.0
N113 N 0.52329 0.8617 0.57674 0.0
C114 C 0.63453 0.8583 0.62459 0.0
C115 C 0.59777 0.79204 0.65208 0.0
C116 C 0.62061 0.82601 0.66514 0.0
C117 C 0.63977 0.85926 0.65088 0.0
C118 C 0.59339 0.79232 0.62563 0.0
N119 N 0.61014 0.82552 0.61213 0.0
H120 H 0.65004 0.88464 0.6145 0.0
H121 H 0.57584 0.76553 0.61658 0.0
H122 H 0.60148 0.8965 0.60914 0.0
H123 H 0.5289 0.82122 0.55347 0.0
O124 O 0.64794 0.87786 0.57036 0.0
O125 O 0.60892 0.84487 0.53925 0.0
O126 O 0.55569 0.77805 0.57338 0.0
C127 C 0.63812 0.87657 0.54683 0.0
H128 H 0.64589 0.73058 0.56851 0.0
H129 H 0.5416 0.90498 0.60587 0.0
H130 H 0.5827 0.76544 0.66221 0.0
H131 H 0.65891 0.88602 0.65992 0.0
Co132 Co 0.77577 0.60484 0.06547 0.0
C133 C 0.85009 0.66799 0.04289 0.0
C134 C 0.81083 0.62755 0.01629 0.0
C135 C 0.84215 0.65293 1.0031 0.0
N136 N 0.81525 0.63671 0.04124 0.0
N137 N 0.86701 0.6785 0.01965 0.0
H138 H 0.86338 0.68221 0.06042 0.0
H139 H 0.78669 0.60297 0.0082 0.0
C140 C 0.81623 0.56294 0.05467 0.0
O141 O 0.8476 0.59558 0.05706 0.0
N142 N 0.73476 0.57106 0.08746 0.0
C143 C 0.71902 0.57886 0.1075 0.0
C144 C 0.68767 0.54549 0.11534 0.0
C145 C 0.71308 0.53357 0.0834 0.0
N146 N 0.68441 0.51721 0.10017 0.0
C147 C 0.82485 0.65496 0.10393 0.0
C148 C 0.82378 0.59911 0.13433 0.0
C149 C 0.83708 0.63531 0.14467 0.0
C150 C 0.83878 0.66376 0.12882 0.0
C151 C 0.80985 0.59141 0.10941 0.0
N152 N 0.80997 0.61903 0.09453 0.0
H153 H 0.82328 0.67651 0.09295 0.0
H154 H 0.79559 0.56228 0.10316 0.0
H155 H 0.72906 0.60679 0.11545 0.0
H156 H 0.71714 0.51861 0.06775 0.0
O157 O 0.7621 0.64322 0.06969 0.0
O158 O 0.73815 0.59853 0.04006 0.0
O159 O 0.7843 0.56153 0.05632 0.0
C160 C 0.73943 0.62825 0.05053 0.0
H161 H 0.8469 0.65139 0.98294 0.0
H162 H 0.66877 0.54226 0.13086 0.0
H163 H 0.82101 0.57602 0.14605 0.0
H164 H 0.84877 0.69212 0.13605 0.0
Co165 Co 0.17352 0.76629 0.57156 0.0
C166 C 0.188 0.84455 0.55456 0.0
C167 C 0.19344 0.81025 0.52567 0.0
C168 C 0.20095 0.84369 0.51483 0.0
N169 N 0.18505 0.81023 0.55055 0.0
N170 N 0.19761 0.86542 0.53285 0.0
H171 H 0.18444 0.85475 0.57276 0.0
H172 H 0.19518 0.78762 0.5161 0.0
C173 C 0.25657 0.80895 0.56609 0.0
O174 O 0.25292 0.83821 0.57232 0.0
N175 N 0.1621 0.72108 0.59016 0.0
C176 C 0.1396 0.70595 0.61063 0.0
C177 C 0.13637 0.67113 0.61552 0.0
C178 C 0.17205 0.69554 0.5828 0.0
N179 N 0.15679 0.66467 0.59794 0.0
C180 C 0.16806 0.80926 0.61318 0.0
C181 C 0.21797 0.80174 0.64482 0.0
C182 C 0.19555 0.81572 0.6552 0.0
C183 C 0.17111 0.8204 0.63874 0.0
C184 C 0.2142 0.79114 0.61915 0.0
N185 N 0.18933 0.79474 0.60355 0.0
H186 H 0.14666 0.81008 0.60156 0.0
H187 H 0.22906 0.77704 0.61247 0.0
H188 H 0.12584 0.71885 0.62085 0.0
H189 H 0.18874 0.69884 0.56594 0.0
O190 O 0.12131 0.75335 0.57298 0.0
O191 O 0.14541 0.73415 0.5425 0.0
O192 O 0.22696 0.77598 0.56474 0.0
C193 C 0.11611 0.73492 0.55185 0.0
H194 H 0.21009 0.85208 0.49537 0.0
H195 H 0.11992 0.65195 0.63066 0.0
H196 H 0.23644 0.79643 0.65676 0.0
H197 H 0.15325 0.83113 0.64573 0.0
Co198 Co 0.83001 0.60769 0.42482 0.0
C199 C 0.81862 0.67062 0.44621 0.0
C200 C 0.77238 0.63106 0.42315 0.0
C201 C 0.76399 0.65761 0.43208 0.0
N202 N 0.80704 0.6393 0.43134 0.0
N203 N 0.79283 0.68245 0.44664 0.0
H204 H 0.84471 0.68402 0.45695 0.0
H205 H 0.75287 0.60613 0.41271 0.0
C206 C 0.76559 0.53371 0.40667 0.0
O207 O 0.78822 0.53327 0.38896 0.0
N208 N 0.85145 0.57474 0.41952 0.0
C209 C 0.88122 0.57915 0.40556 0.0
C210 C 0.88347 0.54646 0.40729 0.0
C211 C 0.83737 0.54028 0.43038 0.0
N212 N 0.85543 0.52189 0.42262 0.0
C213 C 0.86744 0.64221 0.37772 0.0
C214 C 0.80474 0.61328 0.34656 0.0
C215 C 0.84057 0.63429 0.33552 0.0
C216 C 0.87217 0.64942 0.35152 0.0
C217 C 0.80132 0.60627 0.37277 0.0
N218 N 0.83254 0.61911 0.38808 0.0
H219 H 0.89236 0.6548 0.38952 0.0
H220 H 0.77323 0.58962 0.38014 0.0
H221 H 0.8999 0.60374 0.39453 0.0
H222 H 0.81321 0.52824 0.44306 0.0
O223 O 0.87922 0.64855 0.43428 0.0
O224 O 0.83878 0.60539 0.46111 0.0
O225 O 0.77746 0.56165 0.42222 0.0
C226 C 0.87234 0.63434 0.45704 0.0
H227 H 0.7375 0.6573 0.42944 0.0
H228 H 0.90308 0.54059 0.39708 0.0
H229 H 0.77945 0.60133 0.33494 0.0
H230 H 0.90038 0.6668 0.34389 0.0
Co231 Co 0.23198 0.83527 0.93168 0.0
C232 C 0.15436 0.82104 0.94986 0.0
C233 C 0.18681 0.80931 0.9767 0.0
C234 C 0.1542 0.80262 0.98838 0.0
N235 N 0.18746 0.82104 0.9526 0.0
N236 N 0.1337 0.81003 0.97172 0.0
H237 H 0.14546 0.82883 0.93265 0.0
H238 H 0.20882 0.80554 0.98523 0.0
C239 C 0.19343 0.7515 0.93603 0.0
O240 O 0.16214 0.75196 0.93095 0.0
N241 N 0.27761 0.84906 0.9128 0.0
C242 C 0.29557 0.877 0.89559 0.0
C243 C 0.32832 0.87745 0.88808 0.0
C244 C 0.29924 0.83294 0.91546 0.0
N245 N 0.33008 0.84945 0.90051 0.0
C246 C 0.19054 0.84099 0.88913 0.0
C247 C 0.20295 0.79342 0.85794 0.0
C248 C 0.19123 0.817 0.84681 0.0
C249 C 0.18335 0.83984 0.86285 0.0
C250 C 0.20973 0.79538 0.88405 0.0
N251 N 0.20442 0.81956 0.89942 0.0
H252 H 0.18829 0.86174 0.90071 0.0
H253 H 0.22331 0.78034 0.89116 0.0
H254 H 0.2858 0.89587 0.88918 0.0
H255 H 0.29325 0.81025 0.92863 0.0
O256 O 0.24398 0.88759 0.93182 0.0
O257 O 0.26272 0.8616 0.9612 0.0
O258 O 0.22477 0.78278 0.9375 0.0
C259 C 0.26247 0.89155 0.95279 0.0
H260 H 0.14567 0.79201 0.00757 0.0
H261 H 0.34906 0.89664 0.87456 0.0
H262 H 0.20945 0.77542 0.84625 0.0
H263 H 0.17474 0.8589 0.85494 0.0
Co264 Co 0.41555 0.22562 0.44657 0.0
C265 C 0.35139 0.15227 0.46815 0.0
C266 C 0.39197 0.18932 0.49564 0.0
C267 C 0.36502 0.15809 0.50816 0.0
N268 N 0.38366 0.18609 0.47056 0.0
N269 N 0.33946 0.1347 0.49101 0.0
H270 H 0.33727 0.14037 0.45029 0.0
H271 H 0.41676 0.21256 0.50426 0.0
C272 C 0.4572 0.18435 0.45799 0.0
O273 O 0.42438 0.1531 0.45966 0.0
N274 N 0.44833 0.26633 0.42418 0.0
C275 C 0.44055 0.27533 0.40114 0.0
C276 C 0.47248 0.30709 0.39234 0.0
C277 C 0.48431 0.29278 0.42929 0.0
N278 N 0.49979 0.31802 0.41017 0.0
C279 C 0.36478 0.18117 0.40659 0.0
C280 C 0.4193 0.17709 0.37769 0.0
C281 C 0.3861 0.17094 0.36568 0.0
C282 C 0.35766 0.17089 0.38078 0.0
C283 C 0.4257 0.18822 0.40312 0.0
N284 N 0.39921 0.19153 0.41719 0.0
H285 H 0.34396 0.1845 0.41726 0.0
H286 H 0.45395 0.19863 0.41006 0.0
H287 H 0.41363 0.2601 0.3915 0.0
H288 H 0.49889 0.29334 0.44665 0.0
O289 O 0.37848 0.24174 0.44467 0.0
O290 O 0.42489 0.26266 0.47297 0.0
O291 O 0.45876 0.21602 0.45374 0.0
C292 C 0.39546 0.26338 0.46411 0.0
H293 H 0.36521 0.15228 0.52826 0.0
H294 H 0.47514 0.32146 0.37448 0.0
H295 H 0.44184 0.17678 0.36694 0.0
H296 H 0.33151 0.16635 0.37234 0.0
Co297 Co 0.18681 0.40904 0.94096 0.0
C298 C 0.20095 0.34421 0.95393 0.0
C299 C 0.1818 0.36319 0.98573 0.0
C300 C 0.18746 0.33447 0.9938 0.0
N301 N 0.19003 0.36963 0.96061 0.0
N302 N 0.19978 0.32271 0.97393 0.0
H303 H 0.21119 0.34234 0.93528 0.0
H304 H 0.17339 0.37898 0.99804 0.0
C305 C 0.27026 0.44264 0.94724 0.0
O306 O 0.26622 0.40974 0.94078 0.0
N307 N 0.18282 0.44804 0.92266 0.0
C308 C 0.16292 0.44339 0.90118 0.0
C309 C 0.16191 0.47612 0.8966 0.0
C310 C 0.19355 0.4834 0.93093 0.0
N311 N 0.18099 0.50118 0.91538 0.0
C312 C 0.17607 0.35914 0.89932 0.0
C313 C 0.23108 0.4139 0.86849 0.0
C314 C 0.20568 0.37862 0.85776 0.0
C315 C 0.17869 0.35061 0.87382 0.0
C316 C 0.22776 0.4211 0.89406 0.0
N317 N 0.20019 0.39411 0.90911 0.0
H318 H 0.15346 0.33818 0.91096 0.0
H319 H 0.24526 0.44963 0.90104 0.0
H320 H 0.14877 0.41744 0.89024 0.0
H321 H 0.2081 0.4949 0.94879 0.0
O322 O 0.13277 0.37704 0.93878 0.0
O323 O 0.16286 0.41848 0.96976 0.0
O324 O 0.24135 0.44695 0.94885 0.0
C325 C 0.13093 0.39298 0.95981 0.0
H326 H 0.18507 0.32463 0.01323 0.0
H327 H 0.14727 0.4807 0.88104 0.0
H328 H 0.25167 0.43692 0.85688 0.0
H329 H 0.15866 0.32281 0.86655 0.0
Co330 Co 0.78091 0.17827 0.42927 0.0
C331 C 0.86413 0.20855 0.43911 0.0
C332 C 0.833 0.21408 0.47034 0.0
C333 C 0.87037 0.23218 0.47686 0.0
N334 N 0.8288 0.19923 0.44678 0.0
N335 N 0.8899 0.22884 0.45733 0.0
H336 H 0.87109 0.20232 0.42047 0.0
H337 H 0.81044 0.2134 0.48161 0.0
C338 C 0.76942 0.24586 0.4216 0.0
O339 O 0.74664 0.22866 0.40241 0.0
N340 N 0.73159 0.15794 0.4134 0.0
C341 C 0.72034 0.14869 0.38894 0.0
C342 C 0.68379 0.14209 0.38673 0.0
C343 C 0.70143 0.1556 0.4257 0.0
N344 N 0.67218 0.14648 0.40991 0.0
C345 C 0.80674 0.16232 0.38282 0.0
C346 C 0.82778 0.22964 0.35808 0.0
C347 C 0.82278 0.19827 0.34386 0.0
C348 C 0.8145 0.16516 0.35685 0.0
C349 C 0.81987 0.22563 0.38433 0.0
N350 N 0.80612 0.19113 0.39589 0.0
H351 H 0.79827 0.13547 0.39164 0.0
H352 H 0.82386 0.25007 0.3948 0.0
H353 H 0.73774 0.14905 0.37332 0.0
H354 H 0.70215 0.16413 0.44534 0.0
O355 O 0.77303 0.12763 0.43181 0.0
O356 O 0.75522 0.1541 0.46129 0.0
O357 O 0.78514 0.22997 0.43357 0.0
C358 C 0.75624 0.12429 0.45333 0.0
H359 H 0.88258 0.24752 0.49439 0.0
H360 H 0.66771 0.1364 0.36928 0.0
H361 H 0.83562 0.2563 0.34883 0.0
H362 H 0.81187 0.14073 0.34673 0.0
Co363 Co 0.59536 0.78239 0.94066 0.0
C364 C 0.65359 0.8565 0.96274 0.0
C365 C 0.59643 0.84377 0.96927 0.0
C366 C 0.62003 0.87551 0.98294 0.0
N367 N 0.61723 0.83173 0.95652 0.0
N368 N 0.65583 0.88335 0.97907 0.0
H369 H 0.67747 0.8536 0.95685 0.0
H370 H 0.56593 0.82917 0.97007 0.0
C371 C 0.5254 0.77261 0.91518 0.0
O372 O 0.53177 0.75535 0.89624 0.0
N373 N 0.57096 0.7315 0.92658 0.0
C374 C 0.58375 0.71184 0.91309 0.0
C375 C 0.55502 0.67453 0.91126 0.0
C376 C 0.53556 0.70559 0.93353 0.0
N377 N 0.5247 0.671 0.92401 0.0
C378 C 0.64075 0.79795 0.89572 0.0
C379 C 0.61261 0.83789 0.8703 0.0
C380 C 0.63334 0.82471 0.85653 0.0
C381 C 0.64951 0.80665 0.87003 0.0
C382 C 0.60495 0.82888 0.89615 0.0
N383 N 0.61563 0.80565 0.90767 0.0
H384 H 0.6531 0.78368 0.90571 0.0
H385 H 0.58863 0.83886 0.90642 0.0
H386 H 0.61205 0.7227 0.90593 0.0
H387 H 0.51841 0.7119 0.94615 0.0
O388 O 0.63708 0.77692 0.95187 0.0
O389 O 0.58448 0.75913 0.97416 0.0
O390 O 0.54747 0.78444 0.93449 0.0
C391 C 0.61733 0.7612 0.97219 0.0
H392 H 0.61146 0.89104 0.99549 0.0
H393 H 0.5565 0.65181 0.90158 0.0
H394 H 0.60055 0.85314 0.86101 0.0
H395 H 0.66775 0.7981 0.86065 0.0
H396 H 0.67893 0.11504 0.06588 0.0
H397 H 0.54502 0.20661 0.06651 0.0
H398 H 0.72034 0.23452 0.05564 0.0
H399 H 0.50811 0.09164 0.08915 0.0
H400 H 0.60756 0.21549 0.05691 0.0
H401 H 0.61467 0.10436 0.06877 0.0
C402 C 0.67454 0.13904 0.06399 0.0
C403 C 0.70523 0.17581 0.06068 0.0
C404 C 0.58572 0.18823 0.06381 0.0
C405 C 0.63144 0.16367 0.0641 0.0
C406 C 0.54987 0.18302 0.06911 0.0
C407 C 0.52121 0.14825 0.07864 0.0
C408 C 0.59302 0.15843 0.06795 0.0
C409 C 0.52945 0.11898 0.08209 0.0
C410 C 0.63776 0.13289 0.06573 0.0
C411 C 0.69761 0.20571 0.05828 0.0
N412 N 0.56458 0.12474 0.07678 0.0
N413 N 0.66151 0.199 0.06017 0.0
H414 H 0.35754 0.54524 0.63382 0.0
H415 H 0.5115 0.71291 0.55051 0.0
H416 H 0.35545 0.5355 0.55198 0.0
H417 H 0.46893 0.73073 0.62156 0.0
H418 H 0.45993 0.64654 0.55073 0.0
H419 H 0.40471 0.61238 0.63023 0.0
C420 C 0.36714 0.55742 0.61508 0.0
C421 C 0.35282 0.53507 0.59316 0.0
C422 C 0.46189 0.66526 0.56608 0.0
C423 C 0.40693 0.61158 0.58885 0.0
C424 C 0.49128 0.70299 0.56602 0.0
C425 C 0.49466 0.72735 0.58612 0.0
C426 C 0.43637 0.65189 0.5866 0.0
C427 C 0.46761 0.71307 0.6057 0.0
C428 C 0.39383 0.59567 0.61301 0.0
C429 C 0.36581 0.55209 0.56926 0.0
N430 N 0.43994 0.67625 0.60558 0.0
N431 N 0.39259 0.58941 0.5677 0.0
H432 H 0.88449 0.40467 0.10186 0.0
H433 H 0.75745 0.48945 0.05248 0.0
H434 H 0.77319 0.33388 0.07047 0.0
H435 H 0.87875 0.55568 0.06091 0.0
H436 H 0.76068 0.43204 0.06105 0.0
H437 H 0.88058 0.46063 0.09028 0.0
C438 C 0.85905 0.40092 0.09277 0.0
C439 C 0.82905 0.36462 0.08719 0.0
C440 C 0.78657 0.45915 0.06074 0.0
C441 C 0.82451 0.42853 0.07361 0.0
C442 C 0.78479 0.49192 0.0558 0.0
C443 C 0.81788 0.52752 0.05608 0.0
C444 C 0.8216 0.4621 0.06631 0.0
C445 C 0.85249 0.52894 0.06054 0.0
C446 C 0.85699 0.43286 0.0859 0.0
C447 C 0.797 0.36142 0.07495 0.0
N448 N 0.85338 0.49678 0.06573 0.0
N449 N 0.79546 0.393 0.06866 0.0
H450 H 0.46268 0.7932 0.56465 0.0
H451 H 0.32149 0.87629 0.5613 0.0
H452 H 0.49613 0.91033 0.57762 0.0
H453 H 0.28098 0.75623 0.56471 0.0
H454 H 0.38606 0.88847 0.5612 0.0
H455 H 0.39708 0.77874 0.55898 0.0
C456 C 0.45635 0.81599 0.56593 0.0
C457 C 0.48504 0.85315 0.57156 0.0
C458 C 0.3632 0.8594 0.56189 0.0
C459 C 0.40994 0.83666 0.56526 0.0
C460 C 0.32611 0.85232 0.5619 0.0
C461 C 0.29553 0.8151 0.56328 0.0
C462 C 0.3703 0.82913 0.56324 0.0
C463 C 0.30363 0.78536 0.56368 0.0
C464 C 0.41883 0.80762 0.5629 0.0
C465 C 0.47497 0.88133 0.57349 0.0
N466 N 0.34029 0.79302 0.56383 0.0
N467 N 0.43839 0.87252 0.57033 0.0
H468 H 0.6954 0.45798 0.09269 0.0
H469 H 0.47675 0.30452 0.08248 0.0
H470 H 0.60892 0.48677 0.10784 0.0
H471 H 0.56124 0.27553 0.10388 0.0
H472 H 0.52514 0.37191 0.08457 0.0
H473 H 0.64672 0.39104 0.09021 0.0
C474 C 0.66607 0.45005 0.09557 0.0
C475 C 0.65604 0.47775 0.10056 0.0
C476 C 0.53298 0.3507 0.08872 0.0
C477 C 0.6002 0.40146 0.0973 0.0
C478 C 0.50554 0.31231 0.0873 0.0
C479 C 0.51506 0.28446 0.09305 0.0
C480 C 0.57026 0.36115 0.0954 0.0
C481 C 0.5527 0.29612 0.09941 0.0
C482 C 0.63837 0.41195 0.09419 0.0
C483 C 0.6177 0.46613 0.10422 0.0
N484 N 0.57895 0.33355 0.1003 0.0
N485 N 0.59103 0.4288 0.10227 0.0
H486 H 0.1161 0.43527 0.59649 0.0
H487 H 0.2142 0.65949 0.57557 0.0
H488 H 0.22742 0.50309 0.56408 0.0
H489 H 0.1065 0.59281 0.6129 0.0
H490 H 0.21816 0.60213 0.56923 0.0
H491 H 0.11046 0.49204 0.60022 0.0
C492 C 0.13926 0.46202 0.58994 0.0
C493 C 0.17234 0.46432 0.58 0.0
C494 C 0.19364 0.60002 0.57881 0.0
C495 C 0.16614 0.52968 0.58443 0.0
C496 C 0.19128 0.63279 0.58235 0.0
C497 C 0.15992 0.63109 0.59478 0.0
C498 C 0.16438 0.5651 0.58766 0.0
C499 C 0.13139 0.59565 0.6035 0.0
C500 C 0.13606 0.4945 0.59218 0.0
C501 C 0.20138 0.49987 0.57185 0.0
N502 N 0.13427 0.56412 0.59972 0.0
N503 N 0.19765 0.53112 0.57434 0.0
H504 H 0.78322 0.46454 0.42698 0.0
H505 H 0.83661 0.30137 0.44175 0.0
H506 H 0.89879 0.4885 0.42581 0.0
H507 H 0.73019 0.28232 0.4116 0.0
H508 H 0.85816 0.36942 0.44474 0.0
H509 H 0.76186 0.39704 0.43024 0.0
C510 C 0.80416 0.45564 0.42782 0.0
C511 C 0.84291 0.48224 0.4262 0.0
C512 C 0.83001 0.35021 0.43766 0.0
C513 C 0.81852 0.40477 0.42978 0.0
C514 C 0.81759 0.31141 0.43614 0.0
C515 C 0.78157 0.2862 0.42634 0.0
C516 C 0.80596 0.3637 0.42979 0.0
C517 C 0.75823 0.30078 0.41912 0.0
C518 C 0.79191 0.41705 0.42946 0.0
C519 C 0.8687 0.4689 0.42687 0.0
N520 N 0.77079 0.33849 0.42103 0.0
N521 N 0.85606 0.43106 0.42866 0.0
H522 H 0.40569 0.89687 0.90097 0.0
H523 H 0.45837 0.73381 0.88983 0.0
H524 H 0.32002 0.77904 0.89801 0.0
H525 H 0.52567 0.83525 0.93386 0.0
H526 H 0.41066 0.75317 0.88401 0.0
H527 H 0.45441 0.87812 0.90373 0.0
C528 C 0.39735 0.86714 0.90048 0.0
C529 C 0.35907 0.83937 0.89933 0.0
C530 C 0.43589 0.77106 0.89496 0.0
C531 C 0.41399 0.81785 0.90233 0.0
C532 C 0.463 0.76008 0.89828 0.0
C533 C 0.49569 0.78283 0.91253 0.0
C534 C 0.44212 0.80547 0.9054 0.0
C535 C 0.50053 0.81668 0.92305 0.0
C536 C 0.42493 0.85647 0.90227 0.0
C537 C 0.34936 0.80115 0.89903 0.0
N538 N 0.47415 0.82718 0.91909 0.0
N539 N 0.37667 0.79144 0.90043 0.0
H540 H 0.71344 0.51736 0.44473 0.0
H541 H 0.54382 0.34794 0.36837 0.0
H542 H 0.72717 0.47943 0.37062 0.0
H543 H 0.54181 0.36116 0.44983 0.0
H544 H 0.60856 0.40163 0.36736 0.0
H545 H 0.6478 0.46526 0.44558 0.0
C546 C 0.70265 0.49816 0.42863 0.0
C547 C 0.72584 0.50269 0.4076 0.0
C548 C 0.59393 0.39275 0.38545 0.0
C549 C 0.65086 0.44337 0.40837 0.0
C550 C 0.55695 0.36232 0.386 0.0
C551 C 0.53754 0.35003 0.40922 0.0
C552 C 0.61142 0.41137 0.40825 0.0
C553 C 0.55598 0.36944 0.43158 0.0
C554 C 0.66526 0.4684 0.42917 0.0
C555 C 0.71039 0.47693 0.38728 0.0
N556 N 0.59185 0.39924 0.43054 0.0
N557 N 0.67384 0.44849 0.38812 0.0
H558 H 0.25268 0.73775 0.94292 0.0
H559 H 0.12853 0.52042 0.90268 0.0
H560 H 0.13246 0.68112 0.92891 0.0
H561 H 0.23799 0.56414 0.93777 0.0
H562 H 0.13214 0.58129 0.9095 0.0
H563 H 0.25035 0.67644 0.93929 0.0
C564 C 0.22579 0.71249 0.93931 0.0
C565 C 0.19273 0.71471 0.93614 0.0
C566 C 0.15542 0.57769 0.91578 0.0
C567 C 0.19003 0.64473 0.93165 0.0
C568 C 0.1535 0.54297 0.91167 0.0
C569 C 0.18312 0.53723 0.91951 0.0
C570 C 0.18739 0.60732 0.9276 0.0
C571 C 0.21448 0.56737 0.93155 0.0
C572 C 0.22451 0.67754 0.93722 0.0
C573 C 0.15873 0.68099 0.93143 0.0
N574 N 0.21596 0.60126 0.93508 0.0
N575 N 0.15835 0.6476 0.92914 0.0
H576 H 0.46975 0.12844 0.47538 0.0
H577 H 0.64283 0.18197 0.38269 0.0
H578 H 0.52184 0.23208 0.43192 0.0
H579 H 0.62846 0.11933 0.45179 0.0
H580 H 0.59154 0.19318 0.39629 0.0
H581 H 0.52239 0.11839 0.46386 0.0
C582 C 0.49251 0.14931 0.4637 0.0
C583 C 0.49147 0.18114 0.45462 0.0
C584 C 0.59952 0.17681 0.40839 0.0
C585 C 0.55091 0.16921 0.44079 0.0
C586 C 0.62832 0.17001 0.40049 0.0
C587 C 0.63945 0.14945 0.41611 0.0
C588 C 0.58137 0.16233 0.43183 0.0
C589 C 0.62044 0.13521 0.43927 0.0
C590 C 0.5224 0.1435 0.4571 0.0
C591 C 0.52162 0.20726 0.43948 0.0
N592 N 0.59211 0.1417 0.4464 0.0
N593 N 0.54986 0.20042 0.43271 0.0
H594 H 0.33785 0.44396 0.94398 0.0
H595 H 0.45807 0.66911 0.93067 0.0
H596 H 0.29036 0.5176 0.95058 0.0
H597 H 0.50762 0.59729 0.92527 0.0
H598 H 0.39681 0.61371 0.93905 0.0
H599 H 0.40055 0.49946 0.93899 0.0
C600 C 0.34062 0.47181 0.94465 0.0
C601 C 0.3087 0.47609 0.94757 0.0
C602 C 0.42101 0.60993 0.9361 0.0
C603 C 0.38046 0.53975 0.94161 0.0
C604 C 0.4561 0.64162 0.9314 0.0
C605 C 0.48814 0.63787 0.92752 0.0
C606 C 0.41767 0.57398 0.93687 0.0
C607 C 0.48364 0.60142 0.92803 0.0
C608 C 0.37646 0.50349 0.94171 0.0
C609 C 0.3141 0.51289 0.94837 0.0
N610 N 0.44902 0.57083 0.9327 0.0
N611 N 0.34925 0.54326 0.94522 0.0
H612 H 0.32517 0.12797 0.3338 0.0
H613 H 0.44826 0.21863 0.20755 0.0
H614 H 0.44281 0.21501 0.33278 0.0
H615 H 0.32741 0.14342 0.20514 0.0
H616 H 0.44596 0.21533 0.25374 0.0
H617 H 0.32444 0.13075 0.28694 0.0
C618 C 0.35081 0.14748 0.32379 0.0
C619 C 0.38428 0.1707 0.33731 0.0
C620 C 0.41982 0.1996 0.2432 0.0
C621 C 0.38363 0.17411 0.2839 0.0
C622 C 0.42108 0.20174 0.2167 0.0
C623 C 0.38795 0.18154 0.20227 0.0
C624 C 0.3852 0.1769 0.25563 0.0
C625 C 0.35376 0.15926 0.21542 0.0
C626 C 0.35038 0.14904 0.29708 0.0
C627 C 0.41661 0.19563 0.3233 0.0
N628 N 0.35326 0.1575 0.24136 0.0
N629 N 0.41545 0.19655 0.29752 0.0
H630 H 0.25521 0.43177 0.69942 0.0
H631 H 0.14383 0.33807 0.82674 0.0
H632 H 0.14833 0.32748 0.6983 0.0
H633 H 0.26561 0.40696 0.82418 0.0
H634 H 0.14265 0.3361 0.78024 0.0
H635 H 0.25692 0.42724 0.74583 0.0
C636 C 0.23193 0.40809 0.70902 0.0
C637 C 0.20142 0.3801 0.69511 0.0
C638 C 0.16961 0.3513 0.78993 0.0
C639 C 0.2033 0.37462 0.74811 0.0
C640 C 0.17042 0.35221 0.81655 0.0
C641 C 0.20491 0.37297 0.82962 0.0
C642 C 0.2034 0.37178 0.77623 0.0
C643 C 0.23826 0.39132 0.81508 0.0
C644 C 0.23312 0.40531 0.73544 0.0
C645 C 0.17231 0.34963 0.70841 0.0
N646 N 0.23662 0.39069 0.78921 0.0
N647 N 0.17378 0.34784 0.73425 0.0
H648 H 0.76847 0.14558 0.31333 0.0
H649 H 0.87654 0.2326 0.18226 0.0
H650 H 0.87501 0.25009 0.31022 0.0
H651 H 0.75761 0.15053 0.1869 0.0
H652 H 0.87969 0.23492 0.22894 0.0
H653 H 0.76704 0.14304 0.26689 0.0
C654 C 0.79171 0.16795 0.30279 0.0
C655 C 0.8221 0.19794 0.3156 0.0
C656 C 0.85297 0.21633 0.21972 0.0
C657 C 0.82058 0.19522 0.2623 0.0
C658 C 0.85121 0.21465 0.19311 0.0
C659 C 0.81677 0.19115 0.1807 0.0
C660 C 0.82013 0.19403 0.23402 0.0
C661 C 0.78469 0.16909 0.1957 0.0
C662 C 0.79076 0.16657 0.27628 0.0
C663 C 0.85109 0.22651 0.30103 0.0
N664 N 0.78718 0.17099 0.22155 0.0
N665 N 0.84978 0.22432 0.27508 0.0
H666 H 0.63065 0.77165 0.82319 0.0
H667 H 0.62405 0.87987 0.69824 0.0
H668 H 0.63996 0.882 0.82501 0.0
H669 H 0.62553 0.77464 0.69657 0.0
H670 H 0.63036 0.88149 0.74453 0.0
H671 H 0.62988 0.77297 0.77686 0.0
C672 C 0.63314 0.7965 0.81389 0.0
C673 C 0.63557 0.82688 0.82819 0.0
C674 C 0.62942 0.8581 0.73404 0.0
C675 C 0.6337 0.82806 0.7748 0.0
C676 C 0.626 0.85722 0.70756 0.0
C677 C 0.62435 0.82709 0.69338 0.0
C678 C 0.63108 0.82858 0.74659 0.0
C679 C 0.62622 0.79819 0.70666 0.0
C680 C 0.63234 0.79703 0.78735 0.0
C681 C 0.63766 0.85776 0.81489 0.0
N682 N 0.62946 0.79965 0.73248 0.0
N683 N 0.63656 0.85749 0.78896 0.0
H684 H 0.81334 0.67237 0.17664 0.0
H685 H 0.8898 0.62605 0.30418 0.0
H686 H 0.87493 0.61167 0.17643 0.0
H687 H 0.8008 0.654 0.30295 0.0
H688 H 0.8936 0.63084 0.25755 0.0
H689 H 0.81807 0.67654 0.22305 0.0
C690 C 0.82852 0.66054 0.18631 0.0
C691 C 0.84386 0.6417 0.17258 0.0
C692 C 0.87339 0.63611 0.26752 0.0
C693 C 0.84884 0.64591 0.22588 0.0
C694 C 0.87137 0.63362 0.29411 0.0
C695 C 0.84483 0.6395 0.30744 0.0
C696 C 0.84904 0.64502 0.25418 0.0
C697 C 0.82137 0.64885 0.29341 0.0
C698 C 0.83084 0.66259 0.21285 0.0
C699 C 0.86251 0.62624 0.18627 0.0
N700 N 0.82404 0.65134 0.26757 0.0
N701 N 0.86444 0.62863 0.21217 0.0
H702 H 0.24852 0.82825 0.81499 0.0
H703 H 0.13504 0.80164 0.68606 0.0
H704 H 0.13707 0.81551 0.81444 0.0
H705 H 0.2552 0.84316 0.68893 0.0
H706 H 0.13429 0.8062 0.7325 0.0
H707 H 0.25037 0.83236 0.76863 0.0
C708 C 0.22431 0.82619 0.80504 0.0
C709 C 0.19235 0.821 0.81858 0.0
C710 C 0.16086 0.81464 0.72292 0.0
C711 C 0.19434 0.82588 0.76522 0.0
C712 C 0.16143 0.81232 0.69631 0.0
C713 C 0.19527 0.82186 0.68332 0.0
C714 C 0.19425 0.82623 0.73681 0.0
C715 C 0.22829 0.83477 0.69796 0.0
C716 C 0.2255 0.82881 0.77854 0.0
C717 C 0.16217 0.81936 0.80471 0.0
N718 N 0.22687 0.83626 0.72381 0.0
N719 N 0.16371 0.82138 0.77873 0.0
H720 H 0.28409 0.9621 0.93401 0.0
H721 H 0.32861 0.05993 0.06991 0.0
H722 H 0.2837 0.90429 1.00287 0.0
H723 H 0.38365 0.12588 1.00289 0.0
H724 H 0.30298 1.0024 0.04446 0.0
H725 H 0.31289 0.02218 0.95776 0.0
C726 C 0.29015 0.96207 0.95411 0.0
C727 C 0.28144 0.92816 0.96655 0.0
C728 C 0.3206 0.02942 0.03527 0.0
C729 C 0.3137 0.99648 0.99373 0.0
C730 C 0.33506 0.06242 0.04973 0.0
C731 C 0.35832 0.09791 0.03851 0.0
C732 C 0.3288 0.03164 0.00918 0.0
C733 C 0.36583 0.09911 0.01228 0.0
C734 C 0.30668 0.99634 0.96756 0.0
C735 C 0.29002 0.92975 0.99253 0.0
N736 N 0.35089 0.06638 0.9984 0.0
N737 N 0.30527 0.96325 0.00532 0.0
H738 H 0.27021 0.3776 0.50295 0.0
H739 H 0.41194 0.29571 0.51147 0.0
H740 H 0.30239 0.34755 0.57363 0.0
H741 H 0.3445 0.28154 0.44468 0.0
H742 H 0.382 0.32755 0.53287 0.0
H743 H 0.30696 0.35428 0.47962 0.0
C744 C 0.28517 0.36632 0.51351 0.0
C745 C 0.28308 0.36417 0.54019 0.0
C746 C 0.37399 0.31768 0.51346 0.0
C747 C 0.32532 0.33816 0.51385 0.0
C748 C 0.39118 0.29972 0.50122 0.0
C749 C 0.38044 0.28578 0.47637 0.0
C750 C 0.34625 0.32213 0.50063 0.0
C751 C 0.35332 0.29163 0.46395 0.0
C752 C 0.306 0.35299 0.50024 0.0
C753 C 0.30296 0.34935 0.55303 0.0
N754 N 0.33708 0.30935 0.47623 0.0
N755 N 0.32332 0.337 0.53975 0.0
H756 H 0.95279 0.30782 0.07016 0.0
H757 H 0.06086 0.35417 0.93847 0.0
H758 H 0.89561 0.29422 0.99852 0.0
H759 H 0.11769 0.4051 0.00913 0.0
H760 H 0.99997 0.33073 0.95993 0.0
H761 H 0.01354 0.34252 0.04825 0.0
C762 C 0.95308 0.31246 0.04982 0.0
C763 C 0.91924 0.29802 0.03605 0.0
C764 C 0.02575 0.34738 0.97067 0.0
C765 C 0.98855 0.33722 0.01085 0.0
C766 C 0.06048 0.36061 0.95849 0.0
C767 C 0.09428 0.38136 0.97214 0.0
C768 C 0.02484 0.3544 0.99679 0.0
C769 C 0.09224 0.38915 0.99795 0.0
C770 C 0.98774 0.33237 0.03735 0.0
C771 C 0.92114 0.30497 0.00979 0.0
N772 N 0.05805 0.37523 0.00955 0.0
N773 N 0.9553 0.32366 0.99793 0.0
H774 H 0.68795 0.94686 0.56389 0.0
H775 H 0.73228 0.05487 0.43248 0.0
H776 H 0.62993 0.88745 0.49539 0.0
H777 H 0.73684 0.10941 0.50404 0.0
H778 H 0.70231 0.9935 0.45408 0.0
H779 H 0.71455 0.00645 0.54107 0.0
C780 C 0.68104 0.94618 0.5439 0.0
C781 C 0.65661 0.91184 0.53152 0.0
C782 C 0.70971 0.01886 0.46501 0.0
C783 C 0.68736 0.98072 0.50525 0.0
C784 C 0.72702 0.05394 0.45279 0.0
C785 C 0.7373 0.08735 0.46657 0.0
C786 C 0.70338 0.01719 0.49133 0.0
C787 C 0.72943 0.08439 0.49274 0.0
C788 C 0.69607 0.98044 0.53098 0.0
C789 C 0.64868 0.91316 0.50565 0.0
N790 N 0.71334 0.04993 0.50434 0.0
N791 N 0.66424 0.94712 0.49326 0.0
H792 H 0.67738 0.59783 0.01863 0.0
H793 H 0.68558 0.79228 0.99501 0.0
H794 H 0.75185 0.69851 0.06137 0.0
H795 H 0.57994 0.68776 0.98769 0.0
H796 H 0.71258 0.75819 0.01684 0.0
H797 H 0.64301 0.6296 1.00357 0.0
C798 C 0.68642 0.62648 0.02484 0.0
C799 C 0.71754 0.64565 0.04116 0.0
C800 C 0.68325 0.74278 0.01094 0.0
C801 C 0.67885 0.68187 0.02406 0.0
C802 C 0.66787 0.76225 0.99867 0.0
C803 C 0.63045 0.74276 0.99012 0.0
C804 C 0.66141 0.70334 0.01382 0.0
C805 C 0.60872 0.70373 0.99463 0.0
C806 C 0.6667 0.64441 0.01644 0.0
C807 C 0.72801 0.68265 0.0488 0.0
N808 N 0.62474 0.68502 0.00582 0.0
N809 N 0.709 0.69967 0.03997 0.0
H810 H 0.8935 0.59143 0.48475 0.0
H811 H 0.06889 0.76339 0.55201 0.0
H812 H 0.92353 0.70697 0.46952 0.0
H813 H 0.07942 0.67041 0.52199 0.0
H814 H 0.00731 0.73773 0.53122 0.0
H815 H 0.95327 0.61457 0.50844 0.0
C816 C 0.91215 0.62163 0.48709 0.0
C817 C 0.90348 0.64745 0.47561 0.0
C818 C 0.02304 0.7229 0.52924 0.0
C819 C 0.97142 0.67383 0.50227 0.0
C820 C 0.05811 0.73742 0.5411 0.0
C821 C 0.0793 0.71902 0.53862 0.0
C822 C 0.0084 0.68911 0.51533 0.0
C823 C 0.06404 0.68555 0.52418 0.0
C824 C 0.94636 0.63472 0.50019 0.0
C825 C 0.92905 0.68625 0.47841 0.0
N826 N 0.02921 0.67137 0.51322 0.0
N827 N 0.96174 0.6983 0.49163 0.0
H828 H 0.84083 0.10415 0.9992 0.0
H829 H 0.66109 0.90417 0.0283 0.0
H830 H 0.76877 0.08011 0.06483 0.0
H831 H 0.72431 0.93095 0.95822 0.0
H832 H 0.71058 0.96303 0.04703 0.0
H833 H 0.80935 0.03647 0.98945 0.0
C834 C 0.8189 0.08444 0.01188 0.0
C835 C 0.80684 0.09775 0.03255 0.0
C836 C 0.71408 0.95588 0.0277 0.0
C837 C 0.77047 0.02034 0.02143 0.0
C838 C 0.68585 0.92232 0.01702 0.0
C839 C 0.68842 0.91326 0.99154 0.0
C840 C 0.74499 0.98089 0.0127 0.0
C841 C 0.72129 0.93717 0.97787 0.0
C842 C 0.80092 0.04585 0.00629 0.0
C843 C 0.77883 0.07108 0.04866 0.0
N844 N 0.74805 0.97037 0.98846 0.0
N845 N 0.76107 0.03367 0.04247 0.0
H846 H 0.77263 0.73273 0.43108 0.0
H847 H 0.71937 0.75982 0.57172 0.0
H848 H 0.8074 0.69586 0.49729 0.0
H849 H 0.70043 0.8121 0.50655 0.0
H850 H 0.75962 0.74421 0.54571 0.0
H851 H 0.75452 0.76983 0.45849 0.0
C852 C 0.77736 0.73335 0.45142 0.0
C853 C 0.79149 0.71123 0.46196 0.0
C854 C 0.74739 0.75978 0.53711 0.0
C855 C 0.76978 0.75277 0.49368 0.0
C856 C 0.7245 0.76879 0.552 0.0
C857 C 0.70649 0.78717 0.54123 0.0
C858 C 0.75184 0.76854 0.51101 0.0
C859 C 0.71397 0.79813 0.5156 0.0
C860 C 0.76687 0.75438 0.4671 0.0
C861 C 0.7969 0.71276 0.48842 0.0
N862 N 0.7355 0.78803 0.50124 0.0
N863 N 0.78537 0.73256 0.50342 0.0
H864 H 0.8922 0.71257 0.97368 0.0
H865 H 0.1085 0.82172 0.0165 0.0
H866 H 0.92911 0.71155 0.05057 0.0
H867 H 0.07341 0.78329 0.9395 0.0
H868 H 0.04251 0.79715 0.02861 0.0
H869 H 0.95788 0.75323 0.96091 0.0
C870 C 0.91403 0.72099 0.98797 0.0
C871 C 0.90498 0.70766 0.01319 0.0
C872 C 0.04924 0.79454 0.00899 0.0
C873 C 0.98039 0.75519 0.99863 0.0
C874 C 0.08685 0.80859 1.00202 0.0
C875 C 0.09635 0.80382 0.97705 0.0
C876 C 0.02072 0.77581 0.99081 0.0
C877 C 0.0673 0.78744 0.95893 0.0
C878 C 0.95153 0.74438 0.98061 0.0
C879 C 0.93457 0.72084 0.03096 0.0
N880 N 0.03063 0.77354 0.96625 0.0
N881 N 0.97098 0.74361 0.02328 0.0
H882 H 0.22721 0.92252 0.56781 0.0
H883 H 0.29929 0.11101 0.53483 0.0
H884 H 0.19159 0.89766 0.48937 0.0
H885 H 0.31 0.07244 0.46029 0.0
H886 H 0.25643 0.04556 0.54731 0.0
H887 H 0.25464 0.99001 0.5587 0.0
C888 C 0.22425 0.93117 0.54887 0.0
C889 C 0.20753 0.9044 0.52927 0.0
C890 C 0.2682 0.05132 0.52826 0.0
C891 C 0.2389 0.98162 0.51856 0.0
C892 C 0.2925 0.08871 0.52104 0.0
C893 C 0.309 0.09714 0.49665 0.0
C894 C 0.26027 0.02199 0.51096 0.0
C895 C 0.29815 0.06724 0.4793 0.0
C896 C 0.23993 0.96979 0.54361 0.0
C897 C 0.205 0.91736 0.50493 0.0
N898 N 0.27472 0.0309 0.48688 0.0
N899 N 0.22111 0.955 0.50016 0.0
H900 H 0.2656 0.33368 0.95361 0.0
H901 H 0.26802 0.17868 0.04614 0.0
H902 H 0.17123 0.25733 1.00021 0.0
H903 H 0.36743 0.2785 0.01953 0.0
H904 H 0.22893 0.19467 0.0187 0.0
H905 H 0.29941 0.30066 0.96659 0.0
C906 C 0.25156 0.30918 0.9659 0.0
C907 C 0.21579 0.29833 0.97607 0.0
C908 C 0.25939 0.21259 0.01845 0.0
C909 C 0.25424 0.26082 0.99124 0.0
C910 C 0.28154 0.20331 0.03392 0.0
C911 C 0.32072 0.2275 0.03503 0.0
C912 C 0.27679 0.24605 1.00391 0.0
C913 C 0.33719 0.25938 0.01917 0.0
C914 C 0.27094 0.29058 0.97351 0.0
C915 C 0.19897 0.2667 0.99221 0.0
N916 N 0.31516 0.26793 0.0044 0.0
N917 N 0.21848 0.2493 0.99955 0.0
H918 H 0.09809 0.25776 0.51009 0.0
H919 H 0.93979 0.30279 0.46185 0.0
H920 H 0.09986 0.3631 0.52392 0.0
H921 H 0.93096 0.19353 0.4545 0.0
H922 H 0.00566 0.32975 0.47532 0.0
H923 H 0.044 0.23805 0.48186 0.0
C924 C 0.08724 0.27687 0.50716 0.0
C925 C 0.10316 0.3119 0.51991 0.0
C926 C 0.98977 0.30006 0.47019 0.0
C927 C 0.0413 0.28954 0.48718 0.0
C928 C 0.95239 0.28485 0.46224 0.0
C929 C 0.93028 0.24605 0.45703 0.0
C930 C 1.00498 0.27609 0.47338 0.0
C931 C 0.9474 0.22366 0.45813 0.0
C932 C 0.05646 0.26565 0.49083 0.0
C933 C 0.08851 0.33586 0.51462 0.0
N934 N 0.98363 0.23886 0.46665 0.0
N935 N 0.05814 0.32404 0.49893 0.0
loop_
_geom_bond_atom_site_label_1
_geom_bond_atom_site_label_2
_geom_bond_distance
_geom_bond_site_symmetry_2
_ccdc_geom_bond_type
Co0 N4 2.148 . S
Co0 N10 2.128 . S
Co0 N20 2.194 . S
Co0 O25 2.351 . S
Co0 O26 2.155 . S
Co0 O27 2.096 . S
C1 N4 1.301 . S
C1 N5 1.328 . S
C1 H6 0.930 . S
C2 C3 1.333 . S
C2 N4 1.317 . S
C2 H7 0.930 . S
C3 C2 1.333 . S
C3 N5 1.350 . S
C3 H29 0.931 . S
N4 Co0 2.148 . S
N4 C1 1.301 . S
N4 C2 1.317 . S
N5 C1 1.328 . S
N5 C3 1.350 . S
H6 C1 0.930 . S
H7 C2 0.930 . S
C8 O9 1.224 . S
C8 O27 1.247 . S
O9 C8 1.224 . S
N10 Co0 2.128 . S
N10 C11 1.355 . S
N10 C13 1.311 . S
C11 N10 1.355 . S
C11 C12 1.363 . S
C11 H23 0.929 . S
C12 C11 1.363 . S
C12 N14 1.375 . S
C12 H30 0.931 . S
C13 N10 1.311 . S
C13 N14 1.347 . S
C13 H24 0.929 . S
N14 C12 1.375 . S
N14 C13 1.347 . S
C15 C18 1.365 . S
C15 N20 1.328 . S
C15 H21 0.929 . S
C16 C17 1.362 . S
C16 C19 1.378 . S
C16 H31 0.929 . S
C17 C16 1.362 . S
C17 C18 1.366 . S
C18 C15 1.365 . S
C18 C17 1.366 . S
C18 H32 0.930 . S
C19 C16 1.378 . S
C19 N20 1.315 . S
C19 H22 0.930 . S
N20 Co0 2.194 . S
N20 C15 1.328 . S
N20 C19 1.315 . S
H21 C15 0.929 . S
H22 C19 0.930 . S
H23 C11 0.929 . S
H24 C13 0.929 . S
O25 Co0 2.351 . S
O25 C28 1.244 . S
O26 Co0 2.155 . S
O26 C28 1.240 . S
O27 Co0 2.096 . S
O27 C8 1.247 . S
C28 O25 1.244 . S
C28 O26 1.240 . S
H29 C3 0.931 . S
H30 C12 0.931 . S
H31 C16 0.929 . S
H32 C18 0.930 . S
Co33 N37 2.148 . S
Co33 N43 2.128 . S
Co33 N53 2.194 . S
Co33 O58 2.351 . S
Co33 O59 2.155 . S
Co33 O60 2.096 . S
C34 N37 1.301 . S
C34 N38 1.328 . S
C34 H39 0.930 . S
C35 C36 1.333 . S
C35 N37 1.317 . S
C35 H40 0.930 . S
C36 C35 1.333 . S
C36 N38 1.350 . S
C36 H62 0.931 . S
N37 Co33 2.148 . S
N37 C34 1.301 . S
N37 C35 1.317 . S
N38 C34 1.328 . S
N38 C36 1.350 . S
H39 C34 0.930 . S
H40 C35 0.930 . S
C41 O42 1.224 . S
C41 O60 1.247 . S
O42 C41 1.224 . S
N43 Co33 2.128 . S
N43 C44 1.355 . S
N43 C46 1.311 . S
C44 N43 1.355 . S
C44 C45 1.363 . S
C44 H56 0.929 . S
C45 C44 1.363 . S
C45 N47 1.375 . S
C45 H63 0.931 . S
C46 N43 1.311 . S
C46 N47 1.347 . S
C46 H57 0.929 . S
N47 C45 1.375 . S
N47 C46 1.347 . S
C48 C51 1.365 . S
C48 N53 1.328 . S
C48 H54 0.929 . S
C49 C50 1.362 . S
C49 C52 1.378 . S
C49 H64 0.929 . S
C50 C49 1.362 . S
C50 C51 1.366 . S
C51 C48 1.365 . S
C51 C50 1.366 . S
C51 H65 0.930 . S
C52 C49 1.378 . S
C52 N53 1.315 . S
C52 H55 0.930 . S
N53 Co33 2.194 . S
N53 C48 1.328 . S
N53 C52 1.315 . S
H54 C48 0.929 . S
H55 C52 0.930 . S
H56 C44 0.929 . S
H57 C46 0.929 . S
O58 Co33 2.351 . S
O58 C61 1.244 . S
O59 Co33 2.155 . S
O59 C61 1.240 . S
O60 Co33 2.096 . S
O60 C41 1.247 . S
C61 O58 1.244 . S
C61 O59 1.240 . S
H62 C36 0.931 . S
H63 C45 0.931 . S
H64 C49 0.929 . S
H65 C51 0.930 . S
Co66 N70 2.148 . S
Co66 N76 2.128 . S
Co66 N86 2.194 . S
Co66 O91 2.351 . S
Co66 O92 2.155 . S
Co66 O93 2.096 . S
C67 N70 1.301 . S
C67 N71 1.328 . S
C67 H72 0.930 . S
C68 C69 1.333 . S
C68 N70 1.317 . S
C68 H73 0.930 . S
C69 C68 1.333 . S
C69 N71 1.350 . S
C69 H95 0.931 . S
N70 Co66 2.148 . S
N70 C67 1.301 . S
N70 C68 1.317 . S
N71 C67 1.328 . S
N71 C69 1.350 . S
H72 C67 0.930 . S
H73 C68 0.930 . S
C74 O75 1.224 . S
C74 O93 1.247 . S
O75 C74 1.224 . S
N76 Co66 2.128 . S
N76 C77 1.355 . S
N76 C79 1.311 . S
C77 N76 1.355 . S
C77 C78 1.363 . S
C77 H89 0.929 . S
C78 C77 1.363 . S
C78 N80 1.375 . S
C78 H96 0.931 . S
C79 N76 1.311 . S
C79 N80 1.347 . S
C79 H90 0.929 . S
N80 C78 1.375 . S
N80 C79 1.347 . S
C81 C84 1.365 . S
C81 N86 1.328 . S
C81 H87 0.929 . S
C82 C83 1.362 . S
C82 C85 1.378 . S
C82 H97 0.929 . S
C83 C82 1.362 . S
C83 C84 1.366 . S
C84 C81 1.365 . S
C84 C83 1.366 . S
C84 H98 0.930 . S
C85 C82 1.378 . S
C85 N86 1.315 . S
C85 H88 0.930 . S
N86 Co66 2.194 . S
N86 C81 1.328 . S
N86 C85 1.315 . S
H87 C81 0.929 . S
H88 C85 0.930 . S
H89 C77 0.929 . S
H90 C79 0.929 . S
O91 Co66 2.351 . S
O91 C94 1.244 . S
O92 Co66 2.155 . S
O92 C94 1.240 . S
O93 Co66 2.096 . S
O93 C74 1.247 . S
C94 O91 1.244 . S
C94 O92 1.240 . S
H95 C69 0.931 . S
H96 C78 0.931 . S
H97 C82 0.929 . S
H98 C84 0.930 . S
Co99 N103 2.148 . S
Co99 N109 2.128 . S
Co99 N119 2.194 . S
Co99 O124 2.351 . S
Co99 O125 2.155 . S
Co99 O126 2.096 . S
C100 N103 1.301 . S
C100 N104 1.328 . S
C100 H105 0.930 . S
C101 C102 1.333 . S
C101 N103 1.317 . S
C101 H106 0.930 . S
C102 C101 1.333 . S
C102 N104 1.350 . S
C102 H128 0.931 . S
N103 Co99 2.148 . S
N103 C100 1.301 . S
N103 C101 1.317 . S
N104 C100 1.328 . S
N104 C102 1.350 . S
H105 C100 0.930 . S
H106 C101 0.930 . S
C107 O108 1.224 . S
C107 O126 1.247 . S
O108 C107 1.224 . S
N109 Co99 2.128 . S
N109 C110 1.355 . S
N109 C112 1.311 . S
C110 N109 1.355 . S
C110 C111 1.363 . S
C110 H122 0.929 . S
C111 C110 1.363 . S
C111 N113 1.375 . S
C111 H129 0.931 . S
C112 N109 1.311 . S
C112 N113 1.347 . S
C112 H123 0.929 . S
N113 C111 1.375 . S
N113 C112 1.347 . S
C114 C117 1.365 . S
C114 N119 1.328 . S
C114 H120 0.929 . S
C115 C116 1.362 . S
C115 C118 1.378 . S
C115 H130 0.929 . S
C116 C115 1.362 . S
C116 C117 1.366 . S
C117 C114 1.365 . S
C117 C116 1.366 . S
C117 H131 0.930 . S
C118 C115 1.378 . S
C118 N119 1.315 . S
C118 H121 0.930 . S
N119 Co99 2.194 . S
N119 C114 1.328 . S
N119 C118 1.315 . S
H120 C114 0.929 . S
H121 C118 0.930 . S
H122 C110 0.929 . S
H123 C112 0.929 . S
O124 Co99 2.351 . S
O124 C127 1.244 . S
O125 Co99 2.155 . S
O125 C127 1.240 . S
O126 Co99 2.096 . S
O126 C107 1.247 . S
C127 O124 1.244 . S
C127 O125 1.240 . S
H128 C102 0.931 . S
H129 C111 0.931 . S
H130 C115 0.929 . S
H131 C117 0.930 . S
Co132 N136 2.148 . S
Co132 N142 2.128 . S
Co132 N152 2.194 . S
Co132 O157 2.351 . S
Co132 O158 2.155 . S
Co132 O159 2.096 . S
C133 N136 1.301 . S
C133 N137 1.328 . S
C133 H138 0.930 . S
C134 C135 1.333 . S
C134 N136 1.317 . S
C134 H139 0.930 . S
C135 C134 1.333 . S
C135 N137 1.350 . S
C135 H161 0.931 . S
N136 Co132 2.148 . S
N136 C133 1.301 . S
N136 C134 1.317 . S
N137 C133 1.328 . S
N137 C135 1.350 . S
H138 C133 0.930 . S
H139 C134 0.930 . S
C140 O141 1.224 . S
C140 O159 1.247 . S
O141 C140 1.224 . S
N142 Co132 2.128 . S
N142 C143 1.355 . S
N142 C145 1.311 . S
C143 N142 1.355 . S
C143 C144 1.363 . S
C143 H155 0.929 . S
C144 C143 1.363 . S
C144 N146 1.375 . S
C144 H162 0.931 . S
C145 N142 1.311 . S
C145 N146 1.347 . S
C145 H156 0.929 . S
N146 C144 1.375 . S
N146 C145 1.347 . S
C147 C150 1.365 . S
C147 N152 1.328 . S
C147 H153 0.929 . S
C148 C149 1.362 . S
C148 C151 1.378 . S
C148 H163 0.929 . S
C149 C148 1.362 . S
C149 C150 1.366 . S
C150 C147 1.365 . S
C150 C149 1.366 . S
C150 H164 0.930 . S
C151 C148 1.378 . S
C151 N152 1.315 . S
C151 H154 0.930 . S
N152 Co132 2.194 . S
N152 C147 1.328 . S
N152 C151 1.315 . S
H153 C147 0.929 . S
H154 C151 0.930 . S
H155 C143 0.929 . S
H156 C145 0.929 . S
O157 Co132 2.351 . S
O157 C160 1.244 . S
O158 Co132 2.155 . S
O158 C160 1.240 . S
O159 Co132 2.096 . S
O159 C140 1.247 . S
C160 O157 1.244 . S
C160 O158 1.240 . S
H161 C135 0.931 . S
H162 C144 0.931 . S
H163 C148 0.929 . S
H164 C150 0.930 . S
Co165 N169 2.148 . S
Co165 N175 2.128 . S
Co165 N185 2.194 . S
Co165 O190 2.351 . S
Co165 O191 2.155 . S
Co165 O192 2.096 . S
C166 N169 1.301 . S
C166 N170 1.328 . S
C166 H171 0.930 . S
C167 C168 1.333 . S
C167 N169 1.317 . S
C167 H172 0.930 . S
C168 C167 1.333 . S
C168 N170 1.350 . S
C168 H194 0.931 . S
N169 Co165 2.148 . S
N169 C166 1.301 . S
N169 C167 1.317 . S
N170 C166 1.328 . S
N170 C168 1.350 . S
H171 C166 0.930 . S
H172 C167 0.930 . S
C173 O174 1.224 . S
C173 O192 1.247 . S
O174 C173 1.224 . S
N175 Co165 2.128 . S
N175 C176 1.355 . S
N175 C178 1.311 . S
C176 N175 1.355 . S
C176 C177 1.363 . S
C176 H188 0.929 . S
C177 C176 1.363 . S
C177 N179 1.375 . S
C177 H195 0.931 . S
C178 N175 1.311 . S
C178 N179 1.347 . S
C178 H189 0.929 . S
N179 C177 1.375 . S
N179 C178 1.347 . S
C180 C183 1.365 . S
C180 N185 1.328 . S
C180 H186 0.929 . S
C181 C182 1.362 . S
C181 C184 1.378 . S
C181 H196 0.929 . S
C182 C181 1.362 . S
C182 C183 1.366 . S
C183 C180 1.365 . S
C183 C182 1.366 . S
C183 H197 0.930 . S
C184 C181 1.378 . S
C184 N185 1.315 . S
C184 H187 0.930 . S
N185 Co165 2.194 . S
N185 C180 1.328 . S
N185 C184 1.315 . S
H186 C180 0.929 . S
H187 C184 0.930 . S
H188 C176 0.929 . S
H189 C178 0.929 . S
O190 Co165 2.351 . S
O190 C193 1.244 . S
O191 Co165 2.155 . S
O191 C193 1.240 . S
O192 Co165 2.096 . S
O192 C173 1.247 . S
C193 O190 1.244 . S
C193 O191 1.240 . S
H194 C168 0.931 . S
H195 C177 0.931 . S
H196 C181 0.929 . S
H197 C183 0.930 . S
Co198 N202 2.148 . S
Co198 N208 2.128 . S
Co198 N218 2.194 . S
Co198 O223 2.351 . S
Co198 O224 2.155 . S
Co198 O225 2.096 . S
C199 N202 1.301 . S
C199 N203 1.328 . S
C199 H204 0.930 . S
C200 C201 1.333 . S
C200 N202 1.317 . S
C200 H205 0.930 . S
C201 C200 1.333 . S
C201 N203 1.350 . S
C201 H227 0.931 . S
N202 Co198 2.148 . S
N202 C199 1.301 . S
N202 C200 1.317 . S
N203 C199 1.328 . S
N203 C201 1.350 . S
H204 C199 0.930 . S
H205 C200 0.930 . S
C206 O207 1.224 . S
C206 O225 1.247 . S
O207 C206 1.224 . S
N208 Co198 2.128 . S
N208 C209 1.355 . S
N208 C211 1.311 . S
C209 N208 1.355 . S
C209 C210 1.363 . S
C209 H221 0.929 . S
C210 C209 1.363 . S
C210 N212 1.375 . S
C210 H228 0.931 . S
C211 N208 1.311 . S
C211 N212 1.347 . S
C211 H222 0.929 . S
N212 C210 1.375 . S
N212 C211 1.347 . S
C213 C216 1.365 . S
C213 N218 1.328 . S
C213 H219 0.929 . S
C214 C215 1.362 . S
C214 C217 1.378 . S
C214 H229 0.929 . S
C215 C214 1.362 . S
C215 C216 1.366 . S
C216 C213 1.365 . S
C216 C215 1.366 . S
C216 H230 0.930 . S
C217 C214 1.378 . S
C217 N218 1.315 . S
C217 H220 0.930 . S
N218 Co198 2.194 . S
N218 C213 1.328 . S
N218 C217 1.315 . S
H219 C213 0.929 . S
H220 C217 0.930 . S
H221 C209 0.929 . S
H222 C211 0.929 . S
O223 Co198 2.351 . S
O223 C226 1.244 . S
O224 Co198 2.155 . S
O224 C226 1.240 . S
O225 Co198 2.096 . S
O225 C206 1.247 . S
C226 O223 1.244 . S
C226 O224 1.240 . S
H227 C201 0.931 . S
H228 C210 0.931 . S
H229 C214 0.929 . S
H230 C216 0.930 . S
Co231 N235 2.148 . S
Co231 N241 2.128 . S
Co231 N251 2.194 . S
Co231 O256 2.351 . S
Co231 O257 2.155 . S
Co231 O258 2.096 . S
C232 N235 1.301 . S
C232 N236 1.328 . S
C232 H237 0.930 . S
C233 C234 1.333 . S
C233 N235 1.317 . S
C233 H238 0.930 . S
C234 C233 1.333 . S
C234 N236 1.350 . S
C234 H260 0.931 . S
N235 Co231 2.148 . S
N235 C232 1.301 . S
N235 C233 1.317 . S
N236 C232 1.328 . S
N236 C234 1.350 . S
H237 C232 0.930 . S
H238 C233 0.930 . S
C239 O240 1.224 . S
C239 O258 1.247 . S
O240 C239 1.224 . S
N241 Co231 2.128 . S
N241 C242 1.355 . S
N241 C244 1.311 . S
C242 N241 1.355 . S
C242 C243 1.363 . S
C242 H254 0.929 . S
C243 C242 1.363 . S
C243 N245 1.375 . S
C243 H261 0.931 . S
C244 N241 1.311 . S
C244 N245 1.347 . S
C244 H255 0.929 . S
N245 C243 1.375 . S
N245 C244 1.347 . S
C246 C249 1.365 . S
C246 N251 1.328 . S
C246 H252 0.929 . S
C247 C248 1.362 . S
C247 C250 1.378 . S
C247 H262 0.929 . S
C248 C247 1.362 . S
C248 C249 1.366 . S
C249 C246 1.365 . S
C249 C248 1.366 . S
C249 H263 0.930 . S
C250 C247 1.378 . S
C250 N251 1.315 . S
C250 H253 0.930 . S
N251 Co231 2.194 . S
N251 C246 1.328 . S
N251 C250 1.315 . S
H252 C246 0.929 . S
H253 C250 0.930 . S
H254 C242 0.929 . S
H255 C244 0.929 . S
O256 Co231 2.351 . S
O256 C259 1.244 . S
O257 Co231 2.155 . S
O257 C259 1.240 . S
O258 Co231 2.096 . S
O258 C239 1.247 . S
C259 O256 1.244 . S
C259 O257 1.240 . S
H260 C234 0.931 . S
H261 C243 0.931 . S
H262 C247 0.929 . S
H263 C249 0.930 . S
Co264 N268 2.148 . S
Co264 N274 2.128 . S
Co264 N284 2.194 . S
Co264 O289 2.351 . S
Co264 O290 2.155 . S
Co264 O291 2.096 . S
C265 N268 1.301 . S
C265 N269 1.328 . S
C265 H270 0.930 . S
C266 C267 1.333 . S
C266 N268 1.317 . S
C266 H271 0.930 . S
C267 C266 1.333 . S
C267 N269 1.350 . S
C267 H293 0.931 . S
N268 Co264 2.148 . S
N268 C265 1.301 . S
N268 C266 1.317 . S
N269 C265 1.328 . S
N269 C267 1.350 . S
H270 C265 0.930 . S
H271 C266 0.930 . S
C272 O273 1.224 . S
C272 O291 1.247 . S
O273 C272 1.224 . S
N274 Co264 2.128 . S
N274 C275 1.355 . S
N274 C277 1.311 . S
C275 N274 1.355 . S
C275 C276 1.363 . S
C275 H287 0.929 . S
C276 C275 1.363 . S
C276 N278 1.375 . S
C276 H294 0.931 . S
C277 N274 1.311 . S
C277 N278 1.347 . S
C277 H288 0.929 . S
N278 C276 1.375 . S
N278 C277 1.347 . S
C279 C282 1.365 . S
C279 N284 1.328 . S
C279 H285 0.929 . S
C280 C281 1.362 . S
C280 C283 1.378 . S
C280 H295 0.929 . S
C281 C280 1.362 . S
C281 C282 1.366 . S
C282 C279 1.365 . S
C282 C281 1.366 . S
C282 H296 0.930 . S
C283 C280 1.378 . S
C283 N284 1.315 . S
C283 H286 0.930 . S
N284 Co264 2.194 . S
N284 C279 1.328 . S
N284 C283 1.315 . S
H285 C279 0.929 . S
H286 C283 0.930 . S
H287 C275 0.929 . S
H288 C277 0.929 . S
O289 Co264 2.351 . S
O289 C292 1.244 . S
O290 Co264 2.155 . S
O290 C292 1.240 . S
O291 Co264 2.096 . S
O291 C272 1.247 . S
C292 O289 1.244 . S
C292 O290 1.240 . S
H293 C267 0.931 . S
H294 C276 0.931 . S
H295 C280 0.929 . S
H296 C282 0.930 . S
Co297 N301 2.148 . S
Co297 N307 2.128 . S
Co297 N317 2.194 . S
Co297 O322 2.351 . S
Co297 O323 2.155 . S
Co297 O324 2.096 . S
C298 N301 1.301 . S
C298 N302 1.328 . S
C298 H303 0.930 . S
C299 C300 1.333 . S
C299 N301 1.317 . S
C299 H304 0.930 . S
C300 C299 1.333 . S
C300 N302 1.350 . S
C300 H326 0.931 . S
N301 Co297 2.148 . S
N301 C298 1.301 . S
N301 C299 1.317 . S
N302 C298 1.328 . S
N302 C300 1.350 . S
H303 C298 0.930 . S
H304 C299 0.930 . S
C305 O306 1.224 . S
C305 O324 1.247 . S
O306 C305 1.224 . S
N307 Co297 2.128 . S
N307 C308 1.355 . S
N307 C310 1.311 . S
C308 N307 1.355 . S
C308 C309 1.363 . S
C308 H320 0.929 . S
C309 C308 1.363 . S
C309 N311 1.375 . S
C309 H327 0.931 . S
C310 N307 1.311 . S
C310 N311 1.347 . S
C310 H321 0.929 . S
N311 C309 1.375 . S
N311 C310 1.347 . S
C312 C315 1.365 . S
C312 N317 1.328 . S
C312 H318 0.929 . S
C313 C314 1.362 . S
C313 C316 1.378 . S
C313 H328 0.929 . S
C314 C313 1.362 . S
C314 C315 1.366 . S
C315 C312 1.365 . S
C315 C314 1.366 . S
C315 H329 0.930 . S
C316 C313 1.378 . S
C316 N317 1.315 . S
C316 H319 0.930 . S
N317 Co297 2.194 . S
N317 C312 1.328 . S
N317 C316 1.315 . S
H318 C312 0.929 . S
H319 C316 0.930 . S
H320 C308 0.929 . S
H321 C310 0.929 . S
O322 Co297 2.351 . S
O322 C325 1.244 . S
O323 Co297 2.155 . S
O323 C325 1.240 . S
O324 Co297 2.096 . S
O324 C305 1.247 . S
C325 O322 1.244 . S
C325 O323 1.240 . S
H326 C300 0.931 . S
H327 C309 0.931 . S
H328 C313 0.929 . S
H329 C315 0.930 . S
Co330 N334 2.148 . S
Co330 N340 2.128 . S
Co330 N350 2.194 . S
Co330 O355 2.351 . S
Co330 O356 2.155 . S
Co330 O357 2.096 . S
C331 N334 1.301 . S
C331 N335 1.328 . S
C331 H336 0.930 . S
C332 C333 1.333 . S
C332 N334 1.317 . S
C332 H337 0.930 . S
C333 C332 1.333 . S
C333 N335 1.350 . S
C333 H359 0.931 . S
N334 Co330 2.148 . S
N334 C331 1.301 . S
N334 C332 1.317 . S
N335 C331 1.328 . S
N335 C333 1.350 . S
H336 C331 0.930 . S
H337 C332 0.930 . S
C338 O339 1.224 . S
C338 O357 1.247 . S
O339 C338 1.224 . S
N340 Co330 2.128 . S
N340 C341 1.355 . S
N340 C343 1.311 . S
C341 N340 1.355 . S
C341 C342 1.363 . S
C341 H353 0.929 . S
C342 C341 1.363 . S
C342 N344 1.375 . S
C342 H360 0.931 . S
C343 N340 1.311 . S
C343 N344 1.347 . S
C343 H354 0.929 . S
N344 C342 1.375 . S
N344 C343 1.347 . S
C345 C348 1.365 . S
C345 N350 1.328 . S
C345 H351 0.929 . S
C346 C347 1.362 . S
C346 C349 1.378 . S
C346 H361 0.929 . S
C347 C346 1.362 . S
C347 C348 1.366 . S
C348 C345 1.365 . S
C348 C347 1.366 . S
C348 H362 0.930 . S
C349 C346 1.378 . S
C349 N350 1.315 . S
C349 H352 0.930 . S
N350 Co330 2.194 . S
N350 C345 1.328 . S
N350 C349 1.315 . S
H351 C345 0.929 . S
H352 C349 0.930 . S
H353 C341 0.929 . S
H354 C343 0.929 . S
O355 Co330 2.351 . S
O355 C358 1.244 . S
O356 Co330 2.155 . S
O356 C358 1.240 . S
O357 Co330 2.096 . S
O357 C338 1.247 . S
C358 O355 1.244 . S
C358 O356 1.240 . S
H359 C333 0.931 . S
H360 C342 0.931 . S
H361 C346 0.929 . S
H362 C348 0.930 . S
Co363 N367 2.148 . S
Co363 N373 2.128 . S
Co363 N383 2.194 . S
Co363 O388 2.351 . S
Co363 O389 2.155 . S
Co363 O390 2.096 . S
C364 N367 1.301 . S
C364 N368 1.328 . S
C364 H369 0.930 . S
C365 C366 1.333 . S
C365 N367 1.317 . S
C365 H370 0.930 . S
C366 C365 1.333 . S
C366 N368 1.350 . S
C366 H392 0.931 . S
N367 Co363 2.148 . S
N367 C364 1.301 . S
N367 C365 1.317 . S
N368 C364 1.328 . S
N368 C366 1.350 . S
H369 C364 0.930 . S
H370 C365 0.930 . S
C371 O372 1.224 . S
C371 O390 1.247 . S
O372 C371 1.224 . S
N373 Co363 2.128 . S
N373 C374 1.355 . S
N373 C376 1.311 . S
C374 N373 1.355 . S
C374 C375 1.363 . S
C374 H386 0.929 . S
C375 C374 1.363 . S
C375 N377 1.375 . S
C375 H393 0.931 . S
C376 N373 1.311 . S
C376 N377 1.347 . S
C376 H387 0.929 . S
N377 C375 1.375 . S
N377 C376 1.347 . S
C378 C381 1.365 . S
C378 N383 1.328 . S
C378 H384 0.929 . S
C379 C380 1.362 . S
C379 C382 1.378 . S
C379 H394 0.929 . S
C380 C379 1.362 . S
C380 C381 1.366 . S
C381 C378 1.365 . S
C381 C380 1.366 . S
C381 H395 0.930 . S
C382 C379 1.378 . S
C382 N383 1.315 . S
C382 H385 0.930 . S
N383 Co363 2.194 . S
N383 C378 1.328 . S
N383 C382 1.315 . S
H384 C378 0.929 . S
H385 C382 0.930 . S
H386 C374 0.929 . S
H387 C376 0.929 . S
O388 Co363 2.351 . S
O388 C391 1.244 . S
O389 Co363 2.155 . S
O389 C391 1.240 . S
O390 Co363 2.096 . S
O390 C371 1.247 . S
C391 O388 1.244 . S
C391 O389 1.240 . S
H392 C366 0.931 . S
H393 C375 0.931 . S
H394 C379 0.929 . S
H395 C381 0.930 . S
H396 C402 0.930 . S
H397 C406 0.930 . S
H398 C411 0.929 . S
H399 C409 0.929 . S
H400 C404 0.929 . S
H401 C410 0.929 . S
C402 H396 0.930 . S
C402 C403 1.367 . S
C402 C410 1.378 . S
C403 C402 1.367 . S
C403 C411 1.433 . S
C404 H400 0.929 . S
C404 C406 1.378 . S
C404 C408 1.350 . S
C405 C408 1.463 . S
C405 C410 1.350 . S
C405 N413 1.427 . S
C406 H397 0.930 . S
C406 C404 1.378 . S
C406 C407 1.367 . S
C407 C406 1.367 . S
C407 C409 1.433 . S
C408 C404 1.350 . S
C408 C405 1.463 . S
C408 N412 1.427 . S
C409 H399 0.929 . S
C409 C407 1.433 . S
C409 N412 1.384 . S
C410 H401 0.929 . S
C410 C402 1.378 . S
C410 C405 1.350 . S
C411 H398 0.929 . S
C411 C403 1.433 . S
C411 N413 1.384 . S
N412 C408 1.427 . S
N412 C409 1.384 . S
N413 C405 1.427 . S
N413 C411 1.384 . S
H414 C420 0.930 . S
H415 C424 0.930 . S
H416 C429 0.929 . S
H417 C427 0.929 . S
H418 C422 0.929 . S
H419 C428 0.929 . S
C420 H414 0.930 . S
C420 C421 1.367 . S
C420 C428 1.378 . S
C421 C420 1.367 . S
C421 C429 1.433 . S
C422 H418 0.929 . S
C422 C424 1.378 . S
C422 C426 1.350 . S
C423 C426 1.463 . S
C423 C428 1.350 . S
C423 N431 1.427 . S
C424 H415 0.930 . S
C424 C422 1.378 . S
C424 C425 1.367 . S
C425 C424 1.367 . S
C425 C427 1.433 . S
C426 C422 1.350 . S
C426 C423 1.463 . S
C426 N430 1.427 . S
C427 H417 0.929 . S
C427 C425 1.433 . S
C427 N430 1.384 . S
C428 H419 0.929 . S
C428 C420 1.378 . S
C428 C423 1.350 . S
C429 H416 0.929 . S
C429 C421 1.433 . S
C429 N431 1.384 . S
N430 C426 1.427 . S
N430 C427 1.384 . S
N431 C423 1.427 . S
N431 C429 1.384 . S
H432 C438 0.930 . S
H433 C442 0.930 . S
H434 C447 0.929 . S
H435 C445 0.929 . S
H436 C440 0.929 . S
H437 C446 0.929 . S
C438 H432 0.930 . S
C438 C439 1.367 . S
C438 C446 1.378 . S
C439 C438 1.367 . S
C439 C447 1.433 . S
C440 H436 0.929 . S
C440 C442 1.378 . S
C440 C444 1.350 . S
C441 C444 1.463 . S
C441 C446 1.350 . S
C441 N449 1.427 . S
C442 H433 0.930 . S
C442 C440 1.378 . S
C442 C443 1.367 . S
C443 C442 1.367 . S
C443 C445 1.433 . S
C444 C440 1.350 . S
C444 C441 1.463 . S
C444 N448 1.427 . S
C445 H435 0.929 . S
C445 C443 1.433 . S
C445 N448 1.384 . S
C446 H437 0.929 . S
C446 C438 1.378 . S
C446 C441 1.350 . S
C447 H434 0.929 . S
C447 C439 1.433 . S
C447 N449 1.384 . S
N448 C444 1.427 . S
N448 C445 1.384 . S
N449 C441 1.427 . S
N449 C447 1.384 . S
H450 C456 0.930 . S
H451 C460 0.930 . S
H452 C465 0.929 . S
H453 C463 0.929 . S
H454 C458 0.929 . S
H455 C464 0.929 . S
C456 H450 0.930 . S
C456 C457 1.367 . S
C456 C464 1.378 . S
C457 C456 1.367 . S
C457 C465 1.433 . S
C458 H454 0.929 . S
C458 C460 1.378 . S
C458 C462 1.350 . S
C459 C462 1.463 . S
C459 C464 1.350 . S
C459 N467 1.427 . S
C460 H451 0.930 . S
C460 C458 1.378 . S
C460 C461 1.367 . S
C461 C460 1.367 . S
C461 C463 1.433 . S
C462 C458 1.350 . S
C462 C459 1.463 . S
C462 N466 1.427 . S
C463 H453 0.929 . S
C463 C461 1.433 . S
C463 N466 1.384 . S
C464 H455 0.929 . S
C464 C456 1.378 . S
C464 C459 1.350 . S
C465 H452 0.929 . S
C465 C457 1.433 . S
C465 N467 1.384 . S
N466 C462 1.427 . S
N466 C463 1.384 . S
N467 C459 1.427 . S
N467 C465 1.384 . S
H468 C474 0.930 . S
H469 C478 0.930 . S
H470 C483 0.929 . S
H471 C481 0.929 . S
H472 C476 0.929 . S
H473 C482 0.929 . S
C474 H468 0.930 . S
C474 C475 1.367 . S
C474 C482 1.378 . S
C475 C474 1.367 . S
C475 C483 1.433 . S
C476 H472 0.929 . S
C476 C478 1.378 . S
C476 C480 1.350 . S
C477 C480 1.463 . S
C477 C482 1.350 . S
C477 N485 1.427 . S
C478 H469 0.930 . S
C478 C476 1.378 . S
C478 C479 1.367 . S
C479 C478 1.367 . S
C479 C481 1.433 . S
C480 C476 1.350 . S
C480 C477 1.463 . S
C480 N484 1.427 . S
C481 H471 0.929 . S
C481 C479 1.433 . S
C481 N484 1.384 . S
C482 H473 0.929 . S
C482 C474 1.378 . S
C482 C477 1.350 . S
C483 H470 0.929 . S
C483 C475 1.433 . S
C483 N485 1.384 . S
N484 C480 1.427 . S
N484 C481 1.384 . S
N485 C477 1.427 . S
N485 C483 1.384 . S
H486 C492 0.930 . S
H487 C496 0.930 . S
H488 C501 0.929 . S
H489 C499 0.929 . S
H490 C494 0.929 . S
H491 C500 0.929 . S
C492 H486 0.930 . S
C492 C493 1.367 . S
C492 C500 1.378 . S
C493 C492 1.367 . S
C493 C501 1.433 . S
C494 H490 0.929 . S
C494 C496 1.378 . S
C494 C498 1.350 . S
C495 C498 1.463 . S
C495 C500 1.350 . S
C495 N503 1.427 . S
C496 H487 0.930 . S
C496 C494 1.378 . S
C496 C497 1.367 . S
C497 C496 1.367 . S
C497 C499 1.433 . S
C498 C494 1.350 . S
C498 C495 1.463 . S
C498 N502 1.427 . S
C499 H489 0.929 . S
C499 C497 1.433 . S
C499 N502 1.384 . S
C500 H491 0.929 . S
C500 C492 1.378 . S
C500 C495 1.350 . S
C501 H488 0.929 . S
C501 C493 1.433 . S
C501 N503 1.384 . S
N502 C498 1.427 . S
N502 C499 1.384 . S
N503 C495 1.427 . S
N503 C501 1.384 . S
H504 C510 0.930 . S
H505 C514 0.930 . S
H506 C519 0.929 . S
H507 C517 0.929 . S
H508 C512 0.929 . S
H509 C518 0.929 . S
C510 H504 0.930 . S
C510 C511 1.367 . S
C510 C518 1.378 . S
C511 C510 1.367 . S
C511 C519 1.433 . S
C512 H508 0.929 . S
C512 C514 1.378 . S
C512 C516 1.350 . S
C513 C516 1.463 . S
C513 C518 1.350 . S
C513 N521 1.427 . S
C514 H505 0.930 . S
C514 C512 1.378 . S
C514 C515 1.367 . S
C515 C514 1.367 . S
C515 C517 1.433 . S
C516 C512 1.350 . S
C516 C513 1.463 . S
C516 N520 1.427 . S
C517 H507 0.929 . S
C517 C515 1.433 . S
C517 N520 1.384 . S
C518 H509 0.929 . S
C518 C510 1.378 . S
C518 C513 1.350 . S
C519 H506 0.929 . S
C519 C511 1.433 . S
C519 N521 1.384 . S
N520 C516 1.427 . S
N520 C517 1.384 . S
N521 C513 1.427 . S
N521 C519 1.384 . S
H522 C528 0.930 . S
H523 C532 0.930 . S
H524 C537 0.929 . S
H525 C535 0.929 . S
H526 C530 0.929 . S
H527 C536 0.929 . S
C528 H522 0.930 . S
C528 C529 1.367 . S
C528 C536 1.378 . S
C529 C528 1.367 . S
C529 C537 1.433 . S
C530 H526 0.929 . S
C530 C532 1.378 . S
C530 C534 1.350 . S
C531 C534 1.463 . S
C531 C536 1.350 . S
C531 N539 1.427 . S
C532 H523 0.930 . S
C532 C530 1.378 . S
C532 C533 1.367 . S
C533 C532 1.367 . S
C533 C535 1.433 . S
C534 C530 1.350 . S
C534 C531 1.463 . S
C534 N538 1.427 . S
C535 H525 0.929 . S
C535 C533 1.433 . S
C535 N538 1.384 . S
C536 H527 0.929 . S
C536 C528 1.378 . S
C536 C531 1.350 . S
C537 H524 0.929 . S
C537 C529 1.433 . S
C537 N539 1.384 . S
N538 C534 1.427 . S
N538 C535 1.384 . S
N539 C531 1.427 . S
N539 C537 1.384 . S
H540 C546 0.930 . S
H541 C550 0.930 . S
H542 C555 0.929 . S
H543 C553 0.929 . S
H544 C548 0.929 . S
H545 C554 0.929 . S
C546 H540 0.930 . S
C546 C547 1.367 . S
C546 C554 1.378 . S
C547 C546 1.367 . S
C547 C555 1.433 . S
C548 H544 0.929 . S
C548 C550 1.378 . S
C548 C552 1.350 . S
C549 C552 1.463 . S
C549 C554 1.350 . S
C549 N557 1.427 . S
C550 H541 0.930 . S
C550 C548 1.378 . S
C550 C551 1.367 . S
C551 C550 1.367 . S
C551 C553 1.433 . S
C552 C548 1.350 . S
C552 C549 1.463 . S
C552 N556 1.427 . S
C553 H543 0.929 . S
C553 C551 1.433 . S
C553 N556 1.384 . S
C554 H545 0.929 . S
C554 C546 1.378 . S
C554 C549 1.350 . S
C555 H542 0.929 . S
C555 C547 1.433 . S
C555 N557 1.384 . S
N556 C552 1.427 . S
N556 C553 1.384 . S
N557 C549 1.427 . S
N557 C555 1.384 . S
H558 C564 0.930 . S
H559 C568 0.930 . S
H560 C573 0.929 . S
H561 C571 0.929 . S
H562 C566 0.929 . S
H563 C572 0.929 . S
C564 H558 0.930 . S
C564 C565 1.367 . S
C564 C572 1.378 . S
C565 C564 1.367 . S
C565 C573 1.433 . S
C566 H562 0.929 . S
C566 C568 1.378 . S
C566 C570 1.350 . S
C567 C570 1.463 . S
C567 C572 1.350 . S
C567 N575 1.427 . S
C568 H559 0.930 . S
C568 C566 1.378 . S
C568 C569 1.367 . S
C569 C568 1.367 . S
C569 C571 1.433 . S
C570 C566 1.350 . S
C570 C567 1.463 . S
C570 N574 1.427 . S
C571 H561 0.929 . S
C571 C569 1.433 . S
C571 N574 1.384 . S
C572 H563 0.929 . S
C572 C564 1.378 . S
C572 C567 1.350 . S
C573 H560 0.929 . S
C573 C565 1.433 . S
C573 N575 1.384 . S
N574 C570 1.427 . S
N574 C571 1.384 . S
N575 C567 1.427 . S
N575 C573 1.384 . S
H576 C582 0.930 . S
H577 C586 0.930 . S
H578 C591 0.929 . S
H579 C589 0.929 . S
H580 C584 0.929 . S
H581 C590 0.929 . S
C582 H576 0.930 . S
C582 C583 1.367 . S
C582 C590 1.378 . S
C583 C582 1.367 . S
C583 C591 1.433 . S
C584 H580 0.929 . S
C584 C586 1.378 . S
C584 C588 1.350 . S
C585 C588 1.463 . S
C585 C590 1.350 . S
C585 N593 1.427 . S
C586 H577 0.930 . S
C586 C584 1.378 . S
C586 C587 1.367 . S
C587 C586 1.367 . S
C587 C589 1.433 . S
C588 C584 1.350 . S
C588 C585 1.463 . S
C588 N592 1.427 . S
C589 H579 0.929 . S
C589 C587 1.433 . S
C589 N592 1.384 . S
C590 H581 0.929 . S
C590 C582 1.378 . S
C590 C585 1.350 . S
C591 H578 0.929 . S
C591 C583 1.433 . S
C591 N593 1.384 . S
N592 C588 1.427 . S
N592 C589 1.384 . S
N593 C585 1.427 . S
N593 C591 1.384 . S
H594 C600 0.930 . S
H595 C604 0.930 . S
H596 C609 0.929 . S
H597 C607 0.929 . S
H598 C602 0.929 . S
H599 C608 0.929 . S
C600 H594 0.930 . S
C600 C601 1.367 . S
C600 C608 1.378 . S
C601 C600 1.367 . S
C601 C609 1.433 . S
C602 H598 0.929 . S
C602 C604 1.378 . S
C602 C606 1.350 . S
C603 C606 1.463 . S
C603 C608 1.350 . S
C603 N611 1.427 . S
C604 H595 0.930 . S
C604 C602 1.378 . S
C604 C605 1.367 . S
C605 C604 1.367 . S
C605 C607 1.433 . S
C606 C602 1.350 . S
C606 C603 1.463 . S
C606 N610 1.427 . S
C607 H597 0.929 . S
C607 C605 1.433 . S
C607 N610 1.384 . S
C608 H599 0.929 . S
C608 C600 1.378 . S
C608 C603 1.350 . S
C609 H596 0.929 . S
C609 C601 1.433 . S
C609 N611 1.384 . S
N610 C606 1.427 . S
N610 C607 1.384 . S
N611 C603 1.427 . S
N611 C609 1.384 . S
H612 C618 0.930 . S
H613 C622 0.930 . S
H614 C627 0.929 . S
H615 C625 0.929 . S
H616 C620 0.929 . S
H617 C626 0.929 . S
C618 H612 0.930 . S
C618 C619 1.367 . S
C618 C626 1.378 . S
C619 C618 1.367 . S
C619 C627 1.433 . S
C620 H616 0.929 . S
C620 C622 1.378 . S
C620 C624 1.350 . S
C621 C624 1.463 . S
C621 C626 1.350 . S
C621 N629 1.427 . S
C622 H613 0.930 . S
C622 C620 1.378 . S
C622 C623 1.367 . S
C623 C622 1.367 . S
C623 C625 1.433 . S
C624 C620 1.350 . S
C624 C621 1.463 . S
C624 N628 1.427 . S
C625 H615 0.929 . S
C625 C623 1.433 . S
C625 N628 1.384 . S
C626 H617 0.929 . S
C626 C618 1.378 . S
C626 C621 1.350 . S
C627 H614 0.929 . S
C627 C619 1.433 . S
C627 N629 1.384 . S
N628 C624 1.427 . S
N628 C625 1.384 . S
N629 C621 1.427 . S
N629 C627 1.384 . S
H630 C636 0.930 . S
H631 C640 0.930 . S
H632 C645 0.929 . S
H633 C643 0.929 . S
H634 C638 0.929 . S
H635 C644 0.929 . S
C636 H630 0.930 . S
C636 C637 1.367 . S
C636 C644 1.378 . S
C637 C636 1.367 . S
C637 C645 1.433 . S
C638 H634 0.929 . S
C638 C640 1.378 . S
C638 C642 1.350 . S
C639 C642 1.463 . S
C639 C644 1.350 . S
C639 N647 1.427 . S
C640 H631 0.930 . S
C640 C638 1.378 . S
C640 C641 1.367 . S
C641 C640 1.367 . S
C641 C643 1.433 . S
C642 C638 1.350 . S
C642 C639 1.463 . S
C642 N646 1.427 . S
C643 H633 0.929 . S
C643 C641 1.433 . S
C643 N646 1.384 . S
C644 H635 0.929 . S
C644 C636 1.378 . S
C644 C639 1.350 . S
C645 H632 0.929 . S
C645 C637 1.433 . S
C645 N647 1.384 . S
N646 C642 1.427 . S
N646 C643 1.384 . S
N647 C639 1.427 . S
N647 C645 1.384 . S
H648 C654 0.930 . S
H649 C658 0.930 . S
H650 C663 0.929 . S
H651 C661 0.929 . S
H652 C656 0.929 . S
H653 C662 0.929 . S
C654 H648 0.930 . S
C654 C655 1.367 . S
C654 C662 1.378 . S
C655 C654 1.367 . S
C655 C663 1.433 . S
C656 H652 0.929 . S
C656 C658 1.378 . S
C656 C660 1.350 . S
C657 C660 1.463 . S
C657 C662 1.350 . S
C657 N665 1.427 . S
C658 H649 0.930 . S
C658 C656 1.378 . S
C658 C659 1.367 . S
C659 C658 1.367 . S
C659 C661 1.433 . S
C660 C656 1.350 . S
C660 C657 1.463 . S
C660 N664 1.427 . S
C661 H651 0.929 . S
C661 C659 1.433 . S
C661 N664 1.384 . S
C662 H653 0.929 . S
C662 C654 1.378 . S
C662 C657 1.350 . S
C663 H650 0.929 . S
C663 C655 1.433 . S
C663 N665 1.384 . S
N664 C660 1.427 . S
N664 C661 1.384 . S
N665 C657 1.427 . S
N665 C663 1.384 . S
H666 C672 0.930 . S
H667 C676 0.930 . S
H668 C681 0.929 . S
H669 C679 0.929 . S
H670 C674 0.929 . S
H671 C680 0.929 . S
C672 H666 0.930 . S
C672 C673 1.367 . S
C672 C680 1.378 . S
C673 C672 1.367 . S
C673 C681 1.433 . S
C674 H670 0.929 . S
C674 C676 1.378 . S
C674 C678 1.350 . S
C675 C678 1.463 . S
C675 C680 1.350 . S
C675 N683 1.427 . S
C676 H667 0.930 . S
C676 C674 1.378 . S
C676 C677 1.367 . S
C677 C676 1.367 . S
C677 C679 1.433 . S
C678 C674 1.350 . S
C678 C675 1.463 . S
C678 N682 1.427 . S
C679 H669 0.929 . S
C679 C677 1.433 . S
C679 N682 1.384 . S
C680 H671 0.929 . S
C680 C672 1.378 . S
C680 C675 1.350 . S
C681 H668 0.929 . S
C681 C673 1.433 . S
C681 N683 1.384 . S
N682 C678 1.427 . S
N682 C679 1.384 . S
N683 C675 1.427 . S
N683 C681 1.384 . S
H684 C690 0.930 . S
H685 C694 0.930 . S
H686 C699 0.929 . S
H687 C697 0.929 . S
H688 C692 0.929 . S
H689 C698 0.929 . S
C690 H684 0.930 . S
C690 C691 1.367 . S
C690 C698 1.378 . S
C691 C690 1.367 . S
C691 C699 1.433 . S
C692 H688 0.929 . S
C692 C694 1.378 . S
C692 C696 1.350 . S
C693 C696 1.463 . S
C693 C698 1.350 . S
C693 N701 1.427 . S
C694 H685 0.930 . S
C694 C692 1.378 . S
C694 C695 1.367 . S
C695 C694 1.367 . S
C695 C697 1.433 . S
C696 C692 1.350 . S
C696 C693 1.463 . S
C696 N700 1.427 . S
C697 H687 0.929 . S
C697 C695 1.433 . S
C697 N700 1.384 . S
C698 H689 0.929 . S
C698 C690 1.378 . S
C698 C693 1.350 . S
C699 H686 0.929 . S
C699 C691 1.433 . S
C699 N701 1.384 . S
N700 C696 1.427 . S
N700 C697 1.384 . S
N701 C693 1.427 . S
N701 C699 1.384 . S
H702 C708 0.930 . S
H703 C712 0.930 . S
H704 C717 0.929 . S
H705 C715 0.929 . S
H706 C710 0.929 . S
H707 C716 0.929 . S
C708 H702 0.930 . S
C708 C709 1.367 . S
C708 C716 1.378 . S
C709 C708 1.367 . S
C709 C717 1.433 . S
C710 H706 0.929 . S
C710 C712 1.378 . S
C710 C714 1.350 . S
C711 C714 1.463 . S
C711 C716 1.350 . S
C711 N719 1.427 . S
C712 H703 0.930 . S
C712 C710 1.378 . S
C712 C713 1.367 . S
C713 C712 1.367 . S
C713 C715 1.433 . S
C714 C710 1.350 . S
C714 C711 1.463 . S
C714 N718 1.427 . S
C715 H705 0.929 . S
C715 C713 1.433 . S
C715 N718 1.384 . S
C716 H707 0.929 . S
C716 C708 1.378 . S
C716 C711 1.350 . S
C717 H704 0.929 . S
C717 C709 1.433 . S
C717 N719 1.384 . S
N718 C714 1.427 . S
N718 C715 1.384 . S
N719 C711 1.427 . S
N719 C717 1.384 . S
H720 C726 0.930 . S
H721 C730 0.930 . S
H722 C735 0.929 1_554 S
H723 C733 0.929 1_556 S
H724 C728 0.929 . S
H725 C734 0.929 . S
C726 H720 0.930 . S
C726 C727 1.367 . S
C726 C734 1.378 . S
C727 C726 1.367 . S
C727 C735 1.433 . S
C728 H724 0.929 . S
C728 C730 1.378 . S
C728 C732 1.350 . S
C729 C732 1.463 1_566 S
C729 C734 1.350 . S
C729 N737 1.427 1_556 S
C730 H721 0.930 . S
C730 C728 1.378 . S
C730 C731 1.367 . S
C731 C730 1.367 . S
C731 C733 1.433 . S
C732 C728 1.350 . S
C732 C729 1.463 1_544 S
C732 N736 1.427 1_554 S
C733 H723 0.929 1_554 S
C733 C731 1.433 . S
C733 N736 1.384 1_554 S
C734 H725 0.929 . S
C734 C726 1.378 . S
C734 C729 1.350 . S
C735 H722 0.929 1_556 S
C735 C727 1.433 . S
C735 N737 1.384 1_556 S
N736 C732 1.427 1_556 S
N736 C733 1.384 1_556 S
N737 C729 1.427 1_554 S
N737 C735 1.384 1_554 S
H738 C744 0.930 . S
H739 C748 0.930 . S
H740 C753 0.929 . S
H741 C751 0.929 . S
H742 C746 0.929 . S
H743 C752 0.929 . S
C744 H738 0.930 . S
C744 C745 1.367 . S
C744 C752 1.378 . S
C745 C744 1.367 . S
C745 C753 1.433 . S
C746 H742 0.929 . S
C746 C748 1.378 . S
C746 C750 1.350 . S
C747 C750 1.463 . S
C747 C752 1.350 . S
C747 N755 1.427 . S
C748 H739 0.930 . S
C748 C746 1.378 . S
C748 C749 1.367 . S
C749 C748 1.367 . S
C749 C751 1.433 . S
C750 C746 1.350 . S
C750 C747 1.463 . S
C750 N754 1.427 . S
C751 H741 0.929 . S
C751 C749 1.433 . S
C751 N754 1.384 . S
C752 H743 0.929 . S
C752 C744 1.378 . S
C752 C747 1.350 . S
C753 H740 0.929 . S
C753 C745 1.433 . S
C753 N755 1.384 . S
N754 C750 1.427 . S
N754 C751 1.384 . S
N755 C747 1.427 . S
N755 C753 1.384 . S
H756 C762 0.930 . S
H757 C766 0.930 . S
H758 C771 0.929 1_556 S
H759 C769 0.929 1_554 S
H760 C764 0.929 1_655 S
H761 C770 0.929 1_455 S
C762 H756 0.930 . S
C762 C763 1.367 . S
C762 C770 1.378 . S
C763 C762 1.367 . S
C763 C771 1.433 . S
C764 H760 0.929 1_455 S
C764 C766 1.378 . S
C764 C768 1.350 . S
C765 C768 1.463 1_654 S
C765 C770 1.350 . S
C765 N773 1.427 1_554 S
C766 H757 0.930 . S
C766 C764 1.378 . S
C766 C767 1.367 . S
C767 C766 1.367 . S
C767 C769 1.433 . S
C768 C764 1.350 . S
C768 C765 1.463 1_456 S
C768 N772 1.427 1_556 S
C769 H759 0.929 1_556 S
C769 C767 1.433 . S
C769 N772 1.384 1_556 S
C770 H761 0.929 1_655 S
C770 C762 1.378 . S
C770 C765 1.350 . S
C771 H758 0.929 1_554 S
C771 C763 1.433 . S
C771 N773 1.384 1_554 S
N772 C768 1.427 1_554 S
N772 C769 1.384 1_554 S
N773 C765 1.427 1_556 S
N773 C771 1.384 1_556 S
H774 C780 0.930 . S
H775 C784 0.930 . S
H776 C789 0.929 . S
H777 C787 0.929 . S
H778 C782 0.929 . S
H779 C788 0.929 . S
C780 H774 0.930 . S
C780 C781 1.367 . S
C780 C788 1.378 . S
C781 C780 1.367 . S
C781 C789 1.433 . S
C782 H778 0.929 . S
C782 C784 1.378 . S
C782 C786 1.350 . S
C783 C786 1.463 1_565 S
C783 C788 1.350 . S
C783 N791 1.427 . S
C784 H775 0.930 . S
C784 C782 1.378 . S
C784 C785 1.367 . S
C785 C784 1.367 . S
C785 C787 1.433 . S
C786 C782 1.350 . S
C786 C783 1.463 1_545 S
C786 N790 1.427 . S
C787 H777 0.929 . S
C787 C785 1.433 . S
C787 N790 1.384 . S
C788 H779 0.929 . S
C788 C780 1.378 . S
C788 C783 1.350 . S
C789 H776 0.929 . S
C789 C781 1.433 . S
C789 N791 1.384 . S
N790 C786 1.427 . S
N790 C787 1.384 . S
N791 C783 1.427 . S
N791 C789 1.384 . S
H792 C798 0.930 . S
H793 C802 0.930 . S
H794 C807 0.929 . S
H795 C805 0.929 . S
H796 C800 0.929 . S
H797 C806 0.929 . S
C798 H792 0.930 . S
C798 C799 1.367 . S
C798 C806 1.378 . S
C799 C798 1.367 . S
C799 C807 1.433 . S
C800 H796 0.929 . S
C800 C802 1.378 . S
C800 C804 1.350 . S
C801 C804 1.463 1_554 S
C801 C806 1.350 . S
C801 N809 1.427 . S
C802 H793 0.930 . S
C802 C800 1.378 . S
C802 C803 1.367 . S
C803 C802 1.367 . S
C803 C805 1.433 . S
C804 C800 1.350 . S
C804 C801 1.463 1_556 S
C804 N808 1.427 . S
C805 H795 0.929 . S
C805 C803 1.433 . S
C805 N808 1.384 . S
C806 H797 0.929 . S
C806 C798 1.378 . S
C806 C801 1.350 . S
C807 H794 0.929 . S
C807 C799 1.433 . S
C807 N809 1.384 . S
N808 C804 1.427 . S
N808 C805 1.384 . S
N809 C801 1.427 . S
N809 C807 1.384 . S
H810 C816 0.930 . S
H811 C820 0.930 . S
H812 C825 0.929 . S
H813 C823 0.929 . S
H814 C818 0.929 . S
H815 C824 0.929 . S
C816 H810 0.930 . S
C816 C817 1.367 . S
C816 C824 1.378 . S
C817 C816 1.367 . S
C817 C825 1.433 . S
C818 H814 0.929 . S
C818 C820 1.378 . S
C818 C822 1.350 . S
C819 C822 1.463 1_655 S
C819 C824 1.350 . S
C819 N827 1.427 . S
C820 H811 0.930 . S
C820 C818 1.378 . S
C820 C821 1.367 . S
C821 C820 1.367 . S
C821 C823 1.433 . S
C822 C818 1.350 . S
C822 C819 1.463 1_455 S
C822 N826 1.427 . S
C823 H813 0.929 . S
C823 C821 1.433 . S
C823 N826 1.384 . S
C824 H815 0.929 . S
C824 C816 1.378 . S
C824 C819 1.350 . S
C825 H812 0.929 . S
C825 C817 1.433 . S
C825 N827 1.384 . S
N826 C822 1.427 . S
N826 C823 1.384 . S
N827 C819 1.427 . S
N827 C825 1.384 . S
H828 C834 0.930 . S
H829 C838 0.930 . S
H830 C843 0.929 . S
H831 C841 0.929 . S
H832 C836 0.929 1_554 S
H833 C842 0.929 1_556 S
C834 H828 0.930 . S
C834 C835 1.367 . S
C834 C842 1.378 . S
C835 C834 1.367 . S
C835 C843 1.433 . S
C836 H832 0.929 1_556 S
C836 C838 1.378 . S
C836 C840 1.350 . S
C837 C840 1.463 1_544 S
C837 C842 1.350 . S
C837 N845 1.427 . S
C838 H829 0.930 . S
C838 C836 1.378 . S
C838 C839 1.367 . S
C839 C838 1.367 . S
C839 C841 1.433 . S
C840 C836 1.350 . S
C840 C837 1.463 1_566 S
C840 N844 1.427 . S
C841 H831 0.929 . S
C841 C839 1.433 . S
C841 N844 1.384 . S
C842 H833 0.929 1_554 S
C842 C834 1.378 . S
C842 C837 1.350 . S
C843 H830 0.929 . S
C843 C835 1.433 . S
C843 N845 1.384 . S
N844 C840 1.427 . S
N844 C841 1.384 . S
N845 C837 1.427 . S
N845 C843 1.384 . S
H846 C852 0.930 . S
H847 C856 0.930 . S
H848 C861 0.929 . S
H849 C859 0.929 . S
H850 C854 0.929 . S
H851 C860 0.929 . S
C852 H846 0.930 . S
C852 C853 1.367 . S
C852 C860 1.378 . S
C853 C852 1.367 . S
C853 C861 1.433 . S
C854 H850 0.929 . S
C854 C856 1.378 . S
C854 C858 1.350 . S
C855 C858 1.463 . S
C855 C860 1.350 . S
C855 N863 1.427 . S
C856 H847 0.930 . S
C856 C854 1.378 . S
C856 C857 1.367 . S
C857 C856 1.367 . S
C857 C859 1.433 . S
C858 C854 1.350 . S
C858 C855 1.463 . S
C858 N862 1.427 . S
C859 H849 0.929 . S
C859 C857 1.433 . S
C859 N862 1.384 . S
C860 H851 0.929 . S
C860 C852 1.378 . S
C860 C855 1.350 . S
C861 H848 0.929 . S
C861 C853 1.433 . S
C861 N863 1.384 . S
N862 C858 1.427 . S
N862 C859 1.384 . S
N863 C855 1.427 . S
N863 C861 1.384 . S
H864 C870 0.930 . S
H865 C874 0.930 . S
H866 C879 0.929 . S
H867 C877 0.929 . S
H868 C872 0.929 1_554 S
H869 C878 0.929 1_556 S
C870 H864 0.930 . S
C870 C871 1.367 . S
C870 C878 1.378 . S
C871 C870 1.367 . S
C871 C879 1.433 . S
C872 H868 0.929 1_556 S
C872 C874 1.378 . S
C872 C876 1.350 . S
C873 C876 1.463 1_654 S
C873 C878 1.350 . S
C873 N881 1.427 . S
C874 H865 0.930 . S
C874 C872 1.378 . S
C874 C875 1.367 . S
C875 C874 1.367 . S
C875 C877 1.433 . S
C876 C872 1.350 . S
C876 C873 1.463 1_456 S
C876 N880 1.427 . S
C877 H867 0.929 . S
C877 C875 1.433 . S
C877 N880 1.384 . S
C878 H869 0.929 1_554 S
C878 C870 1.378 . S
C878 C873 1.350 . S
C879 H866 0.929 . S
C879 C871 1.433 . S
C879 N881 1.384 . S
N880 C876 1.427 . S
N880 C877 1.384 . S
N881 C873 1.427 . S
N881 C879 1.384 . S
H882 C888 0.930 . S
H883 C892 0.930 . S
H884 C897 0.929 . S
H885 C895 0.929 . S
H886 C890 0.929 . S
H887 C896 0.929 . S
C888 H882 0.930 . S
C888 C889 1.367 . S
C888 C896 1.378 . S
C889 C888 1.367 . S
C889 C897 1.433 . S
C890 H886 0.929 . S
C890 C892 1.378 . S
C890 C894 1.350 . S
C891 C894 1.463 1_565 S
C891 C896 1.350 . S
C891 N899 1.427 . S
C892 H883 0.930 . S
C892 C890 1.378 . S
C892 C893 1.367 . S
C893 C892 1.367 . S
C893 C895 1.433 . S
C894 C890 1.350 . S
C894 C891 1.463 1_545 S
C894 N898 1.427 . S
C895 H885 0.929 . S
C895 C893 1.433 . S
C895 N898 1.384 . S
C896 H887 0.929 . S
C896 C888 1.378 . S
C896 C891 1.350 . S
C897 H884 0.929 . S
C897 C889 1.433 . S
C897 N899 1.384 . S
N898 C894 1.427 . S
N898 C895 1.384 . S
N899 C891 1.427 . S
N899 C897 1.384 . S
H900 C906 0.930 . S
H901 C910 0.930 . S
H902 C915 0.929 . S
H903 C913 0.929 . S
H904 C908 0.929 . S
H905 C914 0.929 . S
C906 H900 0.930 . S
C906 C907 1.367 . S
C906 C914 1.378 . S
C907 C906 1.367 . S
C907 C915 1.433 . S
C908 H904 0.929 . S
C908 C910 1.378 . S
C908 C912 1.350 . S
C909 C912 1.463 1_556 S
C909 C914 1.350 . S
C909 N917 1.427 . S
C910 H901 0.930 . S
C910 C908 1.378 . S
C910 C911 1.367 . S
C911 C910 1.367 . S
C911 C913 1.433 . S
C912 C908 1.350 . S
C912 C909 1.463 1_554 S
C912 N916 1.427 . S
C913 H903 0.929 . S
C913 C911 1.433 . S
C913 N916 1.384 . S
C914 H905 0.929 . S
C914 C906 1.378 . S
C914 C909 1.350 . S
C915 H902 0.929 . S
C915 C907 1.433 . S
C915 N917 1.384 . S
N916 C912 1.427 . S
N916 C913 1.384 . S
N917 C909 1.427 . S
N917 C915 1.384 . S
H918 C924 0.930 . S
H919 C928 0.930 . S
H920 C933 0.929 . S
H921 C931 0.929 . S
H922 C926 0.929 1_455 S
H923 C932 0.929 1_655 S
C924 H918 0.930 . S
C924 C925 1.367 . S
C924 C932 1.378 . S
C925 C924 1.367 . S
C925 C933 1.433 . S
C926 H922 0.929 1_655 S
C926 C928 1.378 . S
C926 C930 1.350 . S
C927 C930 1.463 1_455 S
C927 C932 1.350 . S
C927 N935 1.427 . S
C928 H919 0.930 . S
C928 C926 1.378 . S
C928 C929 1.367 . S
C929 C928 1.367 . S
C929 C931 1.433 . S
C930 C926 1.350 . S
C930 C927 1.463 1_655 S
C930 N934 1.427 . S
C931 H921 0.929 . S
C931 C929 1.433 . S
C931 N934 1.384 . S
C932 H923 0.929 1_455 S
C932 C924 1.378 . S
C932 C927 1.350 . S
C933 H920 0.929 . S
C933 C925 1.433 . S
C933 N935 1.384 . S
N934 C930 1.427 . S
N934 C931 1.384 . S
N935 C927 1.427 . S
N935 C933 1.384 . S
C403 C74 1.576 . S
C407 N14 1.623 . S
C421 N47 1.629 . S
C425 C107 1.589 . S
C439 N80 1.630 . S
C443 C140 1.588 . S
C457 N113 1.623 . S
C461 C173 1.576 . S
C475 N146 1.625 . S
C479 C8 1.578 . S
C493 C41 1.585 . S
C497 N179 1.629 . S
C511 N212 1.626 . S
C515 C338 1.578 . S
C529 N245 1.627 . S
C533 C371 1.585 . S
C547 C206 1.589 . S
C551 N278 1.630 . S
C565 C239 1.588 . S
C569 N311 1.630 . S
C583 C272 1.587 . S
C587 N344 1.629 . S
C601 C305 1.577 . S
C605 N377 1.623 . S
C619 C281 1.334 . S
C623 C17 1.327 . S
C637 C50 1.332 . S
C641 C314 1.337 . S
C655 C347 1.333 . S
C659 C83 1.337 . S
C673 C380 1.336 . S
C677 C116 1.335 . S
C691 C149 1.337 . S
C695 C215 1.332 . S
C709 C248 1.331 . S
C713 C182 1.337 . S
C727 C259 1.347 . S
C731 C28 1.344 . S
C745 C61 1.352 . S
C749 C292 1.347 . S
C763 C94 1.345 . S
C767 C325 1.344 . S
C781 C127 1.348 . S
C785 C358 1.344 . S
C799 C160 1.345 . S
C803 C391 1.351 . S
C817 C226 1.347 . S
C821 C193 1.352 . S
C835 N71 1.472 . S
C839 N368 1.487 . S
C853 N203 1.492 . S
C857 N104 1.481 . S
C871 N137 1.474 . S
C875 N236 1.483 . S
C889 N170 1.473 . S
C893 N269 1.492 . S
C907 N302 1.492 . S
C911 N5 1.482 . S
C925 N38 1.494 . S
C929 N335 1.478 . S
