# Generated by pormake.
# Topology afi, (4)-cn, num edge types: 1
# Building blocks:
#     Node 0, Type 0, BuildingBlock: KUFVIS_clean_sbu_0, # of connection points: 4
#     Node 1, Type 0, BuildingBlock: KUFVIS_clean_sbu_0, # of connection points: 4
#     Node 2, Type 0, BuildingBlock: KUFVIS_clean_sbu_0, # of connection points: 4
#     Node 3, Type 0, BuildingBlock: KUFVIS_clean_sbu_0, # of connection points: 4
#     Node 4, Type 0, BuildingBlock: KUFVIS_clean_sbu_0, # of connection points: 4
#     Node 5, Type 0, BuildingBlock: KUFVIS_clean_sbu_0, # of connection points: 4
#     Node 6, Type 0, BuildingBlock: KUFVIS_clean_sbu_0, # of connection points: 4
#     Node 7, Type 0, BuildingBlock: KUFVIS_clean_sbu_0, # of connection points: 4
#     Node 8, Type 0, BuildingBlock: KUFVIS_clean_sbu_0, # of connection points: 4
#     Node 9, Type 0, BuildingBlock: KUFVIS_clean_sbu_0, # of connection points: 4
#     Node 10, Type 0, BuildingBlock: KUFVIS_clean_sbu_0, # of connection points: 4
#     Node 11, Type 0, BuildingBlock: KUFVIS_clean_sbu_0, # of connection points: 4
#     Node 12, Type 0, BuildingBlock: KUFVIS_clean_sbu_0, # of connection points: 4
#     Node 13, Type 0, BuildingBlock: KUFVIS_clean_sbu_0, # of connection points: 4
#     Node 14, Type 0, BuildingBlock: KUFVIS_clean_sbu_0, # of connection points: 4
#     Node 15, Type 0, BuildingBlock: KUFVIS_clean_sbu_0, # of connection points: 4
#     Node 16, Type 0, BuildingBlock: KUFVIS_clean_sbu_0, # of connection points: 4
#     Node 17, Type 0, BuildingBlock: KUFVIS_clean_sbu_0, # of connection points: 4
#     Node 18, Type 0, BuildingBlock: KUFVIS_clean_sbu_0, # of connection points: 4
#     Node 19, Type 0, BuildingBlock: KUFVIS_clean_sbu_0, # of connection points: 4
#     Node 20, Type 0, BuildingBlock: KUFVIS_clean_sbu_0, # of connection points: 4
#     Node 21, Type 0, BuildingBlock: KUFVIS_clean_sbu_0, # of connection points: 4
#     Node 22, Type 0, BuildingBlock: KUFVIS_clean_sbu_0, # of connection points: 4
#     Node 23, Type 0, BuildingBlock: KUFVIS_clean_sbu_0, # of connection points: 4
#     Edge 24, Type (0, 0), BuildingBlock: KIFKEQ_clean_linker_1, # of connection points: 2
#     Edge 25, Type (0, 0), BuildingBlock: KIFKEQ_clean_linker_1, # of connection points: 2
#     Edge 26, Type (0, 0), BuildingBlock: KIFKEQ_clean_linker_1, # of connection points: 2
#     Edge 27, Type (0, 0), BuildingBlock: KIFKEQ_clean_linker_1, # of connection points: 2
#     Edge 28, Type (0, 0), BuildingBlock: KIFKEQ_clean_linker_1, # of connection points: 2
#     Edge 29, Type (0, 0), BuildingBlock: KIFKEQ_clean_linker_1, # of connection points: 2
#     Edge 30, Type (0, 0), BuildingBlock: KIFKEQ_clean_linker_1, # of connection points: 2
#     Edge 31, Type (0, 0), BuildingBlock: KIFKEQ_clean_linker_1, # of connection points: 2
#     Edge 32, Type (0, 0), BuildingBlock: KIFKEQ_clean_linker_1, # of connection points: 2
#     Edge 33, Type (0, 0), BuildingBlock: KIFKEQ_clean_linker_1, # of connection points: 2
#     Edge 34, Type (0, 0), BuildingBlock: KIFKEQ_clean_linker_1, # of connection points: 2
#     Edge 35, Type (0, 0), BuildingBlock: KIFKEQ_clean_linker_1, # of connection points: 2
#     Edge 36, Type (0, 0), BuildingBlock: KIFKEQ_clean_linker_1, # of connection points: 2
#     Edge 37, Type (0, 0), BuildingBlock: KIFKEQ_clean_linker_1, # of connection points: 2
#     Edge 38, Type (0, 0), BuildingBlock: KIFKEQ_clean_linker_1, # of connection points: 2
#     Edge 39, Type (0, 0), BuildingBlock: KIFKEQ_clean_linker_1, # of connection points: 2
#     Edge 40, Type (0, 0), BuildingBlock: KIFKEQ_clean_linker_1, # of connection points: 2
#     Edge 41, Type (0, 0), BuildingBlock: KIFKEQ_clean_linker_1, # of connection points: 2
#     Edge 42, Type (0, 0), BuildingBlock: KIFKEQ_clean_linker_1, # of connection points: 2
#     Edge 43, Type (0, 0), BuildingBlock: KIFKEQ_clean_linker_1, # of connection points: 2
#     Edge 44, Type (0, 0), BuildingBlock: KIFKEQ_clean_linker_1, # of connection points: 2
#     Edge 45, Type (0, 0), BuildingBlock: KIFKEQ_clean_linker_1, # of connection points: 2
#     Edge 46, Type (0, 0), BuildingBlock: KIFKEQ_clean_linker_1, # of connection points: 2
#     Edge 47, Type (0, 0), BuildingBlock: KIFKEQ_clean_linker_1, # of connection points: 2
#     Edge 48, Type (0, 0), BuildingBlock: KIFKEQ_clean_linker_1, # of connection points: 2
#     Edge 49, Type (0, 0), BuildingBlock: KIFKEQ_clean_linker_1, # of connection points: 2
#     Edge 50, Type (0, 0), BuildingBlock: KIFKEQ_clean_linker_1, # of connection points: 2
#     Edge 51, Type (0, 0), BuildingBlock: KIFKEQ_clean_linker_1, # of connection points: 2
#     Edge 52, Type (0, 0), BuildingBlock: KIFKEQ_clean_linker_1, # of connection points: 2
#     Edge 53, Type (0, 0), BuildingBlock: KIFKEQ_clean_linker_1, # of connection points: 2
#     Edge 54, Type (0, 0), BuildingBlock: KIFKEQ_clean_linker_1, # of connection points: 2
#     Edge 55, Type (0, 0), BuildingBlock: KIFKEQ_clean_linker_1, # of connection points: 2
#     Edge 56, Type (0, 0), BuildingBlock: KIFKEQ_clean_linker_1, # of connection points: 2
#     Edge 57, Type (0, 0), BuildingBlock: KIFKEQ_clean_linker_1, # of connection points: 2
#     Edge 58, Type (0, 0), BuildingBlock: KIFKEQ_clean_linker_1, # of connection points: 2
#     Edge 59, Type (0, 0), BuildingBlock: KIFKEQ_clean_linker_1, # of connection points: 2
#     Edge 60, Type (0, 0), BuildingBlock: KIFKEQ_clean_linker_1, # of connection points: 2
#     Edge 61, Type (0, 0), BuildingBlock: KIFKEQ_clean_linker_1, # of connection points: 2
#     Edge 62, Type (0, 0), BuildingBlock: KIFKEQ_clean_linker_1, # of connection points: 2
#     Edge 63, Type (0, 0), BuildingBlock: KIFKEQ_clean_linker_1, # of connection points: 2
#     Edge 64, Type (0, 0), BuildingBlock: KIFKEQ_clean_linker_1, # of connection points: 2
#     Edge 65, Type (0, 0), BuildingBlock: KIFKEQ_clean_linker_1, # of connection points: 2
#     Edge 66, Type (0, 0), BuildingBlock: KIFKEQ_clean_linker_1, # of connection points: 2
#     Edge 67, Type (0, 0), BuildingBlock: KIFKEQ_clean_linker_1, # of connection points: 2
#     Edge 68, Type (0, 0), BuildingBlock: KIFKEQ_clean_linker_1, # of connection points: 2
#     Edge 69, Type (0, 0), BuildingBlock: KIFKEQ_clean_linker_1, # of connection points: 2
#     Edge 70, Type (0, 0), BuildingBlock: KIFKEQ_clean_linker_1, # of connection points: 2
#     Edge 71, Type (0, 0), BuildingBlock: KIFKEQ_clean_linker_1, # of connection points: 2
# Relax obj value: 0.074
# Max RMSD: 0.079
# Mean RMSD: 0.079
data_MOF--net-afi--node1-KUFVIS_clean_sbu_0--edge1-KIFKEQ_clean_linker_1
_symmetry_space_group_name_H-M    P1
_symmetry_Int_Tables_number       1
_symmetry_cell_setting            triclinic
loop_
_symmetry_equiv_pos_as_xyz
'x, y, z'
_cell_length_a     68.008312
_cell_length_b     68.021389
_cell_length_c     39.613413
_cell_angle_alpha  89.984303
_cell_angle_beta   89.954603
_cell_angle_gamma 119.99265
loop_
_atom_site_label
_atom_site_type_symbol
_atom_site_fract_x
_atom_site_fract_y
_atom_site_fract_z
_atom_type_partial_charge
Mn0 Mn 0.47444 0.12912 0.20234 0.0
Mn1 Mn 0.51889 0.17176 0.16122 0.0
C2 C 0.51107 0.14316 0.2223 0.0
C3 C 0.44962 0.09053 0.21249 0.0
C4 C 0.48633 0.17894 0.20478 0.0
O5 O 0.46133 0.1282 0.1555 0.0
O6 O 0.4927 0.15611 0.12992 0.0
C7 C 0.529 0.14504 0.1124 0.0
N8 N 0.53584 0.16046 0.13795 0.0
C9 C 0.57349 0.16555 0.13694 0.0
C10 C 0.56689 0.14982 0.11048 0.0
C11 C 0.54454 0.1395 0.0982 0.0
C12 C 0.55733 0.17055 0.14989 0.0
H13 H 0.51182 0.13701 0.10296 0.0
C14 C 0.47183 0.14032 0.12979 0.0
O15 O 0.44432 0.10578 0.2207 0.0
O16 O 0.46879 0.09762 0.19691 0.0
N17 N 0.5453 0.18789 0.18891 0.0
C18 C 0.54837 0.20122 0.21633 0.0
C19 C 0.56951 0.21197 0.2327 0.0
C20 C 0.58728 0.209 0.22062 0.0
C21 C 0.58374 0.1953 0.19226 0.0
C22 C 0.56234 0.18508 0.1769 0.0
H23 H 0.53475 0.20348 0.22582 0.0
O24 O 0.49384 0.1329 0.24255 0.0
O25 O 0.50636 0.14527 0.19121 0.0
O26 O 0.47414 0.15838 0.21437 0.0
O27 O 0.50309 0.18553 0.18459 0.0
C28 C 0.60044 0.19094 0.17911 0.0
C29 C 0.59532 0.17606 0.1515 0.0
H30 H 0.57877 0.14537 0.09963 0.0
H31 H 0.53929 0.12726 0.07789 0.0
H32 H 0.57208 0.22244 0.25466 0.0
H33 H 0.60349 0.21715 0.23349 0.0
H34 H 0.61715 0.19863 0.19044 0.0
H35 H 0.60817 0.17253 0.14202 0.0
Mn36 Mn 0.35881 0.47263 0.20783 0.0
Mn37 Mn 0.35996 0.51827 0.17194 0.0
C38 C 0.38102 0.50858 0.23053 0.0
C39 C 0.37359 0.44842 0.21544 0.0
C40 C 0.32042 0.48378 0.21387 0.0
O41 O 0.34693 0.4612 0.16007 0.0
O42 O 0.34927 0.49315 0.13876 0.0
C43 C 0.39637 0.53018 0.12151 0.0
N44 N 0.38797 0.53607 0.14845 0.0
C45 C 0.4203 0.57387 0.14894 0.0
C46 C 0.42925 0.56823 0.1211 0.0
C47 C 0.41725 0.54628 0.10737 0.0
C48 C 0.39935 0.55717 0.1618 0.0
H49 H 0.38722 0.51331 0.11091 0.0
C50 C 0.34463 0.47247 0.13599 0.0
O51 O 0.3527 0.44202 0.22334 0.0
O52 O 0.38527 0.46811 0.20115 0.0
N53 N 0.37035 0.54371 0.20169 0.0
C54 C 0.3603 0.54581 0.23017 0.0
C55 C 0.37071 0.56641 0.24798 0.0
C56 C 0.39123 0.58466 0.23622 0.0
C57 C 0.40119 0.58213 0.20676 0.0
C58 C 0.39002 0.56122 0.19003 0.0
H59 H 0.34456 0.5318 0.23938 0.0
O60 O 0.37409 0.49071 0.24937 0.0
O61 O 0.37417 0.50488 0.19942 0.0
O62 O 0.32881 0.47118 0.22104 0.0
O63 O 0.33064 0.50157 0.19566 0.0
C64 C 0.42201 0.59937 0.19375 0.0
C65 C 0.43158 0.59524 0.16489 0.0
H66 H 0.44542 0.58055 0.11026 0.0
H67 H 0.42409 0.54177 0.08597 0.0
H68 H 0.36296 0.5682 0.27077 0.0
H69 H 0.39929 0.60047 0.25016 0.0
H70 H 0.43101 0.61574 0.20611 0.0
H71 H 0.4478 0.6085 0.15551 0.0
Mn72 Mn 0.89949 0.35016 0.20117 0.0
Mn73 Mn 0.85703 0.35227 0.16009 0.0
C74 C 0.88583 0.37313 0.22086 0.0
C75 C 0.938 0.36361 0.21147 0.0
C76 C 0.84948 0.31268 0.20424 0.0
O77 O 0.90025 0.33769 0.15446 0.0
O78 O 0.87231 0.34115 0.12906 0.0
C79 C 0.88399 0.38854 0.11057 0.0
N80 N 0.8686 0.38033 0.13624 0.0
C81 C 0.8639 0.41312 0.13437 0.0
C82 C 0.8796 0.42186 0.10778 0.0
C83 C 0.88971 0.40953 0.09588 0.0
C84 C 0.85872 0.39203 0.14784 0.0
H85 H 0.89184 0.37915 0.1014 0.0
C86 C 0.888 0.33593 0.12888 0.0
O87 O 0.92259 0.34313 0.21974 0.0
O88 O 0.93113 0.37577 0.19562 0.0
N89 N 0.84123 0.36309 0.1875 0.0
C90 C 0.82789 0.35318 0.21508 0.0
C91 C 0.81733 0.3639 0.23109 0.0
C92 C 0.82047 0.38458 0.21848 0.0
C93 C 0.83418 0.39437 0.18997 0.0
C94 C 0.84421 0.38288 0.17499 0.0
H95 H 0.82548 0.33733 0.22495 0.0
O96 O 0.89594 0.36607 0.2412 0.0
O97 O 0.88362 0.36617 0.18983 0.0
O98 O 0.87007 0.32084 0.2135 0.0
O99 O 0.84299 0.32291 0.18404 0.0
C100 C 0.83869 0.41534 0.17628 0.0
C101 C 0.85357 0.42473 0.14854 0.0
H102 H 0.88418 0.43812 0.09654 0.0
H103 H 0.90192 0.41622 0.07547 0.0
H104 H 0.80685 0.35628 0.25317 0.0
H105 H 0.81244 0.39288 0.23105 0.0
H106 H 0.83111 0.42458 0.18728 0.0
H107 H 0.85723 0.44106 0.13865 0.0
Mn108 Mn 0.55827 0.89317 0.20928 0.0
Mn109 Mn 0.51384 0.85173 0.1666 0.0
C110 C 0.52142 0.87945 0.22841 0.0
C111 C 0.58325 0.9316 0.22069 0.0
C112 C 0.5446 0.84271 0.2115 0.0
O113 O 0.57203 0.89468 0.1628 0.0
O114 O 0.54102 0.86671 0.13686 0.0
C115 C 0.50688 0.88013 0.11676 0.0
N116 N 0.49863 0.86433 0.14186 0.0
C117 C 0.46156 0.86045 0.13742 0.0
C118 C 0.46962 0.87658 0.11138 0.0
C119 C 0.49239 0.8865 0.10107 0.0
C120 C 0.47675 0.85467 0.15198 0.0
H121 H 0.52437 0.88781 0.10878 0.0
C122 C 0.56191 0.88242 0.1371 0.0
O123 O 0.58827 0.91612 0.22876 0.0
O124 O 0.56434 0.92484 0.20464 0.0
N125 N 0.48641 0.83611 0.19236 0.0
C126 C 0.48181 0.82222 0.21958 0.0
C127 C 0.46003 0.81172 0.23403 0.0
C128 C 0.44317 0.81546 0.22018 0.0
C129 C 0.44826 0.82969 0.19202 0.0
C130 C 0.47025 0.83968 0.17868 0.0
H131 H 0.49473 0.81935 0.2304 0.0
O132 O 0.53842 0.88904 0.24912 0.0
O133 O 0.52643 0.87778 0.19728 0.0
O134 O 0.55787 0.86328 0.22035 0.0
O135 O 0.52782 0.83684 0.19161 0.0
C136 C 0.43251 0.83475 0.17711 0.0
C137 C 0.43917 0.85018 0.14991 0.0
H138 H 0.45854 0.88164 0.09932 0.0
H139 H 0.49877 0.89905 0.08109 0.0
H140 H 0.45627 0.80084 0.25586 0.0
H141 H 0.42644 0.80748 0.23157 0.0
H142 H 0.41532 0.82715 0.18672 0.0
H143 H 0.42702 0.85425 0.13907 0.0
Mn144 Mn 0.6783 0.55515 0.19966 0.0
Mn145 Mn 0.67396 0.51024 0.15657 0.0
C146 C 0.65476 0.51843 0.219 0.0
C147 C 0.66559 0.58074 0.21138 0.0
C148 C 0.71453 0.54077 0.20042 0.0
O149 O 0.69042 0.56868 0.15298 0.0
O150 O 0.68567 0.53714 0.12644 0.0
C151 C 0.63767 0.503 0.10841 0.0
N152 N 0.64567 0.49492 0.13311 0.0
C153 C 0.61237 0.45786 0.12995 0.0
C154 C 0.60383 0.46575 0.10434 0.0
C155 C 0.61651 0.48843 0.0936 0.0
C156 C 0.6336 0.47313 0.14366 0.0
H157 H 0.64736 0.52042 0.10009 0.0
C158 C 0.69153 0.55821 0.12689 0.0
O159 O 0.68603 0.58537 0.21914 0.0
O160 O 0.65309 0.56185 0.19546 0.0
N161 N 0.66255 0.48305 0.18281 0.0
C162 C 0.67234 0.47864 0.20957 0.0
C163 C 0.6613 0.45698 0.2244 0.0
C164 C 0.64045 0.44004 0.21139 0.0
C165 C 0.63079 0.44494 0.18368 0.0
C166 C 0.64257 0.46682 0.16994 0.0
H167 H 0.68835 0.49161 0.21971 0.0
O168 O 0.66252 0.53547 0.23968 0.0
O169 O 0.66128 0.52332 0.18781 0.0
O170 O 0.70749 0.55407 0.21026 0.0
O171 O 0.70331 0.52426 0.18022 0.0
C172 C 0.60972 0.42909 0.16959 0.0
C173 C 0.60047 0.43557 0.14284 0.0
H174 H 0.58747 0.4546 0.09297 0.0
H175 H 0.60999 0.49467 0.07395 0.0
H176 H 0.66882 0.45337 0.24586 0.0
H177 H 0.6319 0.4234 0.22304 0.0
H178 H 0.60031 0.41199 0.17954 0.0
H179 H 0.58405 0.42335 0.13267 0.0
Mn180 Mn 0.13531 0.66945 0.20696 0.0
Mn181 Mn 0.17927 0.66721 0.17097 0.0
C182 C 0.14813 0.64634 0.2294 0.0
C183 C 0.0964 0.65604 0.21396 0.0
C184 C 0.18518 0.70693 0.21325 0.0
O185 O 0.13649 0.68202 0.15938 0.0
O186 O 0.16527 0.67833 0.13778 0.0
C187 C 0.1543 0.63094 0.12065 0.0
N188 N 0.16866 0.63917 0.14749 0.0
C189 C 0.17397 0.60674 0.14749 0.0
C190 C 0.1593 0.59796 0.11974 0.0
C191 C 0.14939 0.61009 0.10632 0.0
C192 C 0.1783 0.62764 0.1606 0.0
H193 H 0.14666 0.64023 0.11026 0.0
C194 C 0.14978 0.68376 0.13517 0.0
O195 O 0.11156 0.67652 0.22261 0.0
O196 O 0.10381 0.64387 0.19951 0.0
N197 N 0.19401 0.65645 0.20068 0.0
C198 C 0.20629 0.66638 0.22908 0.0
C199 C 0.2165 0.65585 0.24657 0.0
C200 C 0.21414 0.63536 0.23452 0.0
C201 C 0.20154 0.62555 0.20513 0.0
C202 C 0.19175 0.6368 0.18877 0.0
H203 H 0.20814 0.68212 0.23843 0.0
O204 O 0.13728 0.65339 0.24822 0.0
O205 O 0.15155 0.65339 0.19837 0.0
O206 O 0.16429 0.69881 0.2208 0.0
O207 O 0.19238 0.69658 0.1946 0.0
C208 C 0.19795 0.60482 0.19179 0.0
C209 C 0.18412 0.59538 0.16304 0.0
H210 H 0.15538 0.58183 0.10871 0.0
H211 H 0.13798 0.60337 0.08499 0.0
H212 H 0.22613 0.66349 0.2693 0.0
H213 H 0.22193 0.62722 0.24819 0.0
H214 H 0.20541 0.59578 0.20381 0.0
H215 H 0.18112 0.57921 0.15342 0.0
Mn216 Mn 0.89745 0.55072 0.31329 0.0
Mn217 Mn 0.85491 0.50443 0.35125 0.0
C218 C 0.88507 0.51463 0.29179 0.0
C219 C 0.93614 0.57644 0.30456 0.0
C220 C 0.84689 0.5363 0.30744 0.0
O221 O 0.89698 0.56274 0.36054 0.0
O222 O 0.86827 0.53057 0.38282 0.0
C223 C 0.88177 0.49643 0.40259 0.0
N224 N 0.86697 0.48881 0.3762 0.0
C225 C 0.86333 0.4518 0.37938 0.0
C226 C 0.87845 0.45921 0.4067 0.0
C227 C 0.88776 0.48164 0.41828 0.0
C228 C 0.85795 0.46727 0.36481 0.0
H229 H 0.88894 0.51364 0.4116 0.0
C230 C 0.88368 0.55154 0.38489 0.0
O231 O 0.9207 0.58144 0.29621 0.0
O232 O 0.92917 0.55716 0.31969 0.0
N233 N 0.84072 0.47786 0.32352 0.0
C234 C 0.8278 0.47393 0.29533 0.0
C235 C 0.81801 0.45258 0.27965 0.0
C236 C 0.82139 0.43544 0.29331 0.0
C237 C 0.83461 0.43984 0.32248 0.0
C238 C 0.84398 0.46145 0.33697 0.0
H239 H 0.82516 0.48705 0.28472 0.0
O240 O 0.89509 0.53231 0.27236 0.0
O241 O 0.88214 0.51851 0.32295 0.0
O242 O 0.86771 0.55022 0.30063 0.0
O243 O 0.84055 0.51878 0.32591 0.0
C244 C 0.83921 0.42377 0.33738 0.0
C245 C 0.85365 0.42977 0.36571 0.0
H246 H 0.88317 0.44789 0.4188 0.0
H247 H 0.8995 0.48752 0.43927 0.0
H248 H 0.80789 0.44935 0.25708 0.0
H249 H 0.81391 0.41903 0.28106 0.0
H250 H 0.83204 0.40686 0.3269 0.0
H251 H 0.85741 0.4174 0.37653 0.0
Mn252 Mn 0.35641 0.89294 0.31751 0.0
Mn253 Mn 0.35824 0.85056 0.35932 0.0
C254 C 0.37903 0.8788 0.29792 0.0
C255 C 0.37016 0.93147 0.30686 0.0
C256 C 0.31852 0.84308 0.31557 0.0
O257 O 0.3442 0.89413 0.36426 0.0
O258 O 0.34761 0.86634 0.39024 0.0
C259 C 0.39495 0.87758 0.40808 0.0
N260 N 0.38643 0.86201 0.38272 0.0
C261 C 0.41894 0.85685 0.38435 0.0
C262 C 0.42801 0.87273 0.41062 0.0
C263 C 0.41598 0.88317 0.42249 0.0
C264 C 0.39783 0.85182 0.37117 0.0
H265 H 0.38579 0.88568 0.41722 0.0
C266 C 0.34255 0.88214 0.39012 0.0
O267 O 0.34962 0.91617 0.29874 0.0
O268 O 0.38225 0.92448 0.3226 0.0
N269 N 0.36859 0.8343 0.33204 0.0
C270 C 0.35842 0.82084 0.30471 0.0
C271 C 0.36885 0.80999 0.28871 0.0
C272 C 0.38952 0.81297 0.30107 0.0
C273 C 0.39959 0.82681 0.32933 0.0
C274 C 0.38839 0.83714 0.3443 0.0
H275 H 0.34258 0.81856 0.29503 0.0
O276 O 0.37205 0.88894 0.27747 0.0
O277 O 0.3722 0.87687 0.329 0.0
O278 O 0.32686 0.86359 0.30576 0.0
O279 O 0.32871 0.83662 0.33589 0.0
C280 C 0.42056 0.83116 0.34277 0.0
C281 C 0.43025 0.8462 0.37021 0.0
H282 H 0.4443 0.87722 0.42163 0.0
H283 H 0.42292 0.89553 0.44264 0.0
H284 H 0.36102 0.79941 0.26681 0.0
H285 H 0.39762 0.80474 0.28846 0.0
H286 H 0.42957 0.82334 0.33179 0.0
H287 H 0.4466 0.84974 0.3799 0.0
Mn288 Mn 0.47835 0.35329 0.3139 0.0
Mn289 Mn 0.52404 0.35453 0.34973 0.0
C290 C 0.51429 0.37543 0.29098 0.0
C291 C 0.45413 0.36804 0.30623 0.0
C292 C 0.48951 0.31489 0.30813 0.0
O293 O 0.46697 0.34151 0.36175 0.0
O294 O 0.49894 0.34388 0.383 0.0
C295 C 0.53596 0.39102 0.39991 0.0
N296 N 0.54185 0.38258 0.37303 0.0
C297 C 0.57966 0.41489 0.37232 0.0
C298 C 0.57403 0.42389 0.40011 0.0
C299 C 0.55208 0.41192 0.41391 0.0
C300 C 0.56295 0.39392 0.3596 0.0
H301 H 0.5191 0.38189 0.41057 0.0
C302 C 0.47826 0.33925 0.38583 0.0
O303 O 0.44772 0.34714 0.29849 0.0
O304 O 0.47384 0.37976 0.3204 0.0
N305 N 0.54947 0.36487 0.31989 0.0
C306 C 0.55155 0.35477 0.29146 0.0
C307 C 0.57215 0.36515 0.27358 0.0
C308 C 0.59042 0.38569 0.28521 0.0
C309 C 0.5879 0.39569 0.31462 0.0
C310 C 0.56699 0.38455 0.33143 0.0
H311 H 0.53754 0.33902 0.28236 0.0
O312 O 0.49638 0.36845 0.27223 0.0
O313 O 0.51062 0.36867 0.32215 0.0
O314 O 0.47689 0.32326 0.30093 0.0
O315 O 0.50734 0.32517 0.32621 0.0
C316 C 0.60515 0.41652 0.32749 0.0
C317 C 0.60103 0.42613 0.3563 0.0
H318 H 0.58636 0.44007 0.41084 0.0
H319 H 0.54758 0.4188 0.43527 0.0
H320 H 0.57393 0.35737 0.25082 0.0
H321 H 0.60622 0.39373 0.2712 0.0
H322 H 0.62152 0.42549 0.31508 0.0
H323 H 0.61429 0.44237 0.36558 0.0
Mn324 Mn 0.13431 0.46779 0.32032 0.0
Mn325 Mn 0.17664 0.51224 0.36173 0.0
C326 C 0.14815 0.50446 0.30062 0.0
C327 C 0.09584 0.4428 0.30971 0.0
C328 C 0.18426 0.48005 0.31802 0.0
O329 O 0.1333 0.45455 0.36713 0.0
O330 O 0.16104 0.48591 0.39285 0.0
C331 C 0.14962 0.52191 0.41063 0.0
N332 N 0.16511 0.52893 0.38511 0.0
C333 C 0.16994 0.56648 0.38637 0.0
C334 C 0.15414 0.55968 0.41281 0.0
C335 C 0.14391 0.53729 0.42494 0.0
C336 C 0.17511 0.55046 0.37331 0.0
H337 H 0.14167 0.50469 0.41996 0.0
C338 C 0.14532 0.46501 0.39289 0.0
O339 O 0.11126 0.4377 0.30167 0.0
O340 O 0.10267 0.46184 0.32548 0.0
N341 N 0.19269 0.53877 0.33419 0.0
C342 C 0.2061 0.54204 0.30676 0.0
C343 C 0.21676 0.56324 0.29051 0.0
C344 C 0.21363 0.58087 0.30273 0.0
C345 C 0.19984 0.57713 0.33109 0.0
C346 C 0.18972 0.55567 0.34632 0.0
H347 H 0.20849 0.52852 0.29717 0.0
O348 O 0.13811 0.48732 0.28023 0.0
O349 O 0.15021 0.49965 0.33168 0.0
O350 O 0.16373 0.46778 0.30841 0.0
O351 O 0.19069 0.49674 0.33827 0.0
C352 C 0.19532 0.59367 0.34435 0.0
C353 C 0.18036 0.58835 0.37195 0.0
H354 H 0.14955 0.57143 0.42374 0.0
H355 H 0.13162 0.53188 0.44522 0.0
H356 H 0.2273 0.56596 0.26855 0.0
H357 H 0.22172 0.59713 0.28996 0.0
H358 H 0.20293 0.61042 0.33312 0.0
H359 H 0.17669 0.60109 0.38152 0.0
Mn360 Mn 0.67607 0.13079 0.31655 0.0
Mn361 Mn 0.67416 0.17478 0.35284 0.0
C362 C 0.65305 0.14376 0.29435 0.0
C363 C 0.6626 0.09191 0.3099 0.0
C364 C 0.71368 0.18056 0.31007 0.0
O365 O 0.68876 0.13189 0.36389 0.0
O366 O 0.68518 0.1606 0.38596 0.0
C367 C 0.63787 0.14984 0.40327 0.0
N368 N 0.64613 0.16425 0.37643 0.0
C369 C 0.61366 0.1695 0.37642 0.0
C370 C 0.60485 0.1548 0.40417 0.0
C371 C 0.61699 0.1449 0.4176 0.0
C372 C 0.63461 0.1739 0.36333 0.0
H373 H 0.64714 0.14219 0.41365 0.0
C374 C 0.69052 0.14503 0.38829 0.0
O375 O 0.68303 0.107 0.30089 0.0
O376 O 0.65047 0.09939 0.32434 0.0
N377 N 0.66347 0.18967 0.32326 0.0
C378 C 0.67342 0.20198 0.29485 0.0
C379 C 0.66289 0.21218 0.27735 0.0
C380 C 0.64236 0.20977 0.28937 0.0
C381 C 0.63252 0.19714 0.31877 0.0
C382 C 0.6438 0.18738 0.33517 0.0
H383 H 0.68918 0.20385 0.28548 0.0
O384 O 0.65995 0.13281 0.27547 0.0
O385 O 0.66016 0.14713 0.32536 0.0
O386 O 0.70541 0.15968 0.30243 0.0
O387 O 0.70351 0.18781 0.32903 0.0
C388 C 0.61173 0.19346 0.33206 0.0
C389 C 0.60228 0.1796 0.36081 0.0
H390 H 0.5887 0.15084 0.41518 0.0
H391 H 0.61025 0.13346 0.43892 0.0
H392 H 0.67055 0.22183 0.25461 0.0
H393 H 0.6342 0.21752 0.27567 0.0
H394 H 0.60267 0.20087 0.31999 0.0
H395 H 0.58607 0.17655 0.3704 0.0
Mn396 Mn 0.56099 0.67275 0.32008 0.0
Mn397 Mn 0.51609 0.66876 0.36289 0.0
C398 C 0.52426 0.64921 0.30089 0.0
C399 C 0.58655 0.65997 0.3086 0.0
C400 C 0.54662 0.70901 0.31847 0.0
O401 O 0.57451 0.68498 0.36667 0.0
O402 O 0.54305 0.68077 0.39289 0.0
C403 C 0.50902 0.63291 0.41189 0.0
N404 N 0.50086 0.64067 0.38697 0.0
C405 C 0.46383 0.60737 0.39076 0.0
C406 C 0.4718 0.59908 0.41661 0.0
C407 C 0.49451 0.61188 0.42714 0.0
C408 C 0.47904 0.62848 0.37661 0.0
H409 H 0.52646 0.64269 0.42006 0.0
C410 C 0.56408 0.68644 0.39257 0.0
O411 O 0.59121 0.68038 0.30064 0.0
O412 O 0.56764 0.64752 0.32458 0.0
N413 N 0.48883 0.65707 0.3368 0.0
C414 C 0.48434 0.6666 0.30978 0.0
C415 C 0.46263 0.65541 0.29514 0.0
C416 C 0.44574 0.63467 0.3086 0.0
C417 C 0.45072 0.62528 0.33655 0.0
C418 C 0.47265 0.6372 0.35009 0.0
H419 H 0.49727 0.68251 0.29929 0.0
O420 O 0.54131 0.65688 0.28018 0.0
O421 O 0.52914 0.65584 0.33202 0.0
O422 O 0.56002 0.70196 0.30912 0.0
O423 O 0.53001 0.69789 0.33858 0.0
C424 C 0.43494 0.60433 0.35108 0.0
C425 C 0.4415 0.59533 0.37807 0.0
H426 H 0.46069 0.58282 0.42833 0.0
H427 H 0.50081 0.60555 0.44698 0.0
H428 H 0.45895 0.66272 0.27348 0.0
H429 H 0.42907 0.62601 0.2971 0.0
H430 H 0.41781 0.59481 0.3413 0.0
H431 H 0.42933 0.57899 0.38859 0.0
Mn432 Mn 0.55899 0.89273 0.82183 0.0
Mn433 Mn 0.51253 0.84917 0.85789 0.0
C434 C 0.52315 0.88023 0.79931 0.0
C435 C 0.58478 0.93151 0.81464 0.0
C436 C 0.54626 0.84277 0.8161 0.0
O437 O 0.5702 0.89149 0.86949 0.0
O438 O 0.53747 0.86319 0.89131 0.0
C439 C 0.50104 0.8744 0.90752 0.0
N440 N 0.49504 0.85996 0.88078 0.0
C441 C 0.45739 0.8549 0.87994 0.0
C442 C 0.46313 0.86964 0.90757 0.0
C443 C 0.48507 0.87948 0.92136 0.0
C444 C 0.47397 0.8504 0.86732 0.0
H445 H 0.51788 0.88197 0.91819 0.0
C446 C 0.55847 0.87847 0.89384 0.0
O447 O 0.58992 0.91619 0.80616 0.0
O448 O 0.56523 0.92434 0.82909 0.0
N449 N 0.48723 0.83444 0.82786 0.0
C450 C 0.48503 0.82206 0.79964 0.0
C451 C 0.46442 0.81186 0.78186 0.0
C452 C 0.44627 0.81437 0.79342 0.0
C453 C 0.44892 0.82713 0.82258 0.0
C454 C 0.46984 0.83687 0.83928 0.0
H455 H 0.49894 0.82008 0.79066 0.0
O456 O 0.54109 0.89089 0.78049 0.0
O457 O 0.5267 0.8768 0.83036 0.0
O458 O 0.55907 0.86358 0.80815 0.0
O459 O 0.5288 0.83582 0.83488 0.0
C460 C 0.43177 0.83092 0.83539 0.0
C461 C 0.43601 0.84484 0.86401 0.0
H462 H 0.45091 0.87369 0.91821 0.0
H463 H 0.48965 0.89094 0.9426 0.0
H464 H 0.46253 0.80211 0.7593 0.0
H465 H 0.43044 0.80653 0.77958 0.0
H466 H 0.41539 0.82356 0.82304 0.0
H467 H 0.42283 0.84797 0.87323 0.0
Mn468 Mn 0.67603 0.55111 0.81235 0.0
Mn469 Mn 0.67435 0.50552 0.84946 0.0
C470 C 0.65309 0.51495 0.79076 0.0
C471 C 0.66226 0.57622 0.80467 0.0
C472 C 0.71377 0.53905 0.80636 0.0
O473 O 0.68869 0.56306 0.85963 0.0
O474 O 0.68551 0.531 0.88202 0.0
C475 C 0.63829 0.49458 0.90013 0.0
N476 N 0.64644 0.48822 0.8734 0.0
C477 C 0.614 0.4505 0.87414 0.0
C478 C 0.60531 0.45661 0.90178 0.0
C479 C 0.61749 0.47876 0.91478 0.0
C480 C 0.63487 0.46695 0.86072 0.0
H481 H 0.6476 0.51159 0.91018 0.0
C482 C 0.69071 0.55188 0.8841 0.0
O483 O 0.68277 0.58166 0.79594 0.0
O484 O 0.65028 0.55679 0.81961 0.0
N485 N 0.66355 0.4797 0.82038 0.0
C486 C 0.67338 0.47712 0.79201 0.0
C487 C 0.66278 0.45625 0.77491 0.0
C488 C 0.64232 0.43822 0.78728 0.0
C489 C 0.63261 0.44126 0.81664 0.0
C490 C 0.64395 0.46243 0.83263 0.0
H491 H 0.68909 0.49094 0.78237 0.0
O492 O 0.65997 0.53264 0.77151 0.0
O493 O 0.66023 0.51894 0.82173 0.0
O494 O 0.70548 0.55164 0.79859 0.0
O495 O 0.70359 0.52165 0.82537 0.0
C496 C 0.61189 0.42425 0.83027 0.0
C497 C 0.60256 0.42888 0.85895 0.0
H498 H 0.58921 0.4445 0.91304 0.0
H499 H 0.61084 0.48363 0.93602 0.0
H500 H 0.67034 0.45407 0.7522 0.0
H501 H 0.63411 0.4222 0.77389 0.0
H502 H 0.60279 0.40768 0.81852 0.0
H503 H 0.5864 0.4158 0.8688 0.0
Mn504 Mn 0.13515 0.67212 0.81899 0.0
Mn505 Mn 0.17761 0.67004 0.86009 0.0
C506 C 0.14885 0.64916 0.79931 0.0
C507 C 0.09663 0.65867 0.80866 0.0
C508 C 0.18511 0.70974 0.81621 0.0
O509 O 0.13432 0.68447 0.86578 0.0
O510 O 0.16217 0.68089 0.8913 0.0
C511 C 0.15079 0.63352 0.90933 0.0
N512 N 0.16616 0.64188 0.88365 0.0
C513 C 0.17096 0.60915 0.88496 0.0
C514 C 0.15527 0.60024 0.91155 0.0
C515 C 0.14513 0.61247 0.92374 0.0
C516 C 0.17609 0.6303 0.87179 0.0
H517 H 0.1429 0.64283 0.9187 0.0
C518 C 0.14645 0.68608 0.89145 0.0
O519 O 0.11205 0.67916 0.80045 0.0
O520 O 0.10351 0.64649 0.82444 0.0
N521 N 0.19352 0.65946 0.83244 0.0
C522 C 0.2068 0.6695 0.80486 0.0
C523 C 0.21736 0.65889 0.78854 0.0
C524 C 0.21426 0.63816 0.80084 0.0
C525 C 0.2006 0.6282 0.82935 0.0
C526 C 0.19058 0.6396 0.84464 0.0
H527 H 0.20915 0.68538 0.7952 0.0
O528 O 0.13877 0.65624 0.77893 0.0
O529 O 0.15105 0.65615 0.83032 0.0
O530 O 0.16455 0.7015 0.80675 0.0
O531 O 0.19159 0.69953 0.83645 0.0
C532 C 0.19612 0.60717 0.84271 0.0
C533 C 0.18129 0.59763 0.87047 0.0
H534 H 0.15072 0.58393 0.92257 0.0
H535 H 0.13292 0.60565 0.94415 0.0
H536 H 0.22779 0.66662 0.76646 0.0
H537 H 0.22228 0.62993 0.78802 0.0
H538 H 0.20366 0.59798 0.83143 0.0
H539 H 0.17765 0.58125 0.88011 0.0
Mn540 Mn 0.47633 0.12977 0.81447 0.0
Mn541 Mn 0.52235 0.17356 0.85086 0.0
C542 C 0.51235 0.14255 0.79248 0.0
C543 C 0.45093 0.09096 0.80682 0.0
C544 C 0.4889 0.1797 0.80808 0.0
O545 O 0.46468 0.13073 0.86193 0.0
O546 O 0.49697 0.15962 0.88369 0.0
C547 C 0.5331 0.14842 0.90171 0.0
N548 N 0.5395 0.1628 0.87481 0.0
C549 C 0.57713 0.16782 0.87545 0.0
C550 C 0.57097 0.15314 0.90326 0.0
C551 C 0.54884 0.14336 0.91639 0.0
C552 C 0.56075 0.17232 0.862 0.0
H553 H 0.51611 0.14089 0.91187 0.0
C554 C 0.47607 0.14405 0.88616 0.0
O555 O 0.44564 0.10617 0.79831 0.0
O556 O 0.47035 0.09823 0.82167 0.0
N557 N 0.54809 0.1882 0.8215 0.0
C558 C 0.5507 0.20047 0.79296 0.0
C559 C 0.57154 0.21052 0.77571 0.0
C560 C 0.58951 0.20801 0.78812 0.0
C561 C 0.58645 0.19541 0.81763 0.0
C562 C 0.5653 0.18578 0.83375 0.0
H563 H 0.53693 0.20242 0.78331 0.0
O564 O 0.49457 0.1319 0.77341 0.0
O565 O 0.50856 0.14588 0.82347 0.0
O566 O 0.47605 0.15881 0.80069 0.0
O567 O 0.50641 0.18685 0.82677 0.0
C568 C 0.60339 0.19164 0.83132 0.0
C569 C 0.59872 0.1778 0.86015 0.0
H570 H 0.58302 0.14909 0.91455 0.0
H571 H 0.54394 0.13195 0.93776 0.0
H572 H 0.57374 0.22014 0.75287 0.0
H573 H 0.60551 0.21567 0.77464 0.0
H574 H 0.61995 0.19898 0.8195 0.0
H575 H 0.61175 0.17468 0.87004 0.0
Mn576 Mn 0.35592 0.46809 0.81972 0.0
Mn577 Mn 0.35786 0.51255 0.86089 0.0
C578 C 0.37856 0.50473 0.79978 0.0
C579 C 0.36964 0.44325 0.80925 0.0
C580 C 0.31804 0.48009 0.8175 0.0
O581 O 0.34382 0.45495 0.86665 0.0
O582 O 0.3473 0.48634 0.89216 0.0
C583 C 0.39468 0.52254 0.90962 0.0
N584 N 0.3861 0.52943 0.8841 0.0
C585 C 0.41866 0.56707 0.88514 0.0
C586 C 0.42778 0.56042 0.91157 0.0
C587 C 0.41575 0.53805 0.92381 0.0
C588 C 0.39751 0.55093 0.87219 0.0
H589 H 0.38551 0.50535 0.91904 0.0
C590 C 0.34224 0.46547 0.89235 0.0
O591 O 0.34907 0.43799 0.80124 0.0
O592 O 0.38176 0.46237 0.82487 0.0
N593 N 0.36816 0.53899 0.8332 0.0
C594 C 0.35793 0.54211 0.80579 0.0
C595 C 0.36833 0.56327 0.78943 0.0
C596 C 0.38905 0.58101 0.80153 0.0
C597 C 0.3992 0.57742 0.82987 0.0
C598 C 0.388 0.556 0.84521 0.0
H599 H 0.34205 0.5285 0.7963 0.0
O600 O 0.37152 0.48755 0.77948 0.0
O601 O 0.37174 0.49998 0.83087 0.0
O602 O 0.32636 0.46786 0.80789 0.0
O603 O 0.32828 0.49685 0.83762 0.0
C604 C 0.42023 0.59409 0.84303 0.0
C605 C 0.42997 0.58892 0.87062 0.0
H606 H 0.4441 0.57228 0.92241 0.0
H607 H 0.42273 0.53276 0.94409 0.0
H608 H 0.36045 0.56587 0.76748 0.0
H609 H 0.39712 0.59724 0.78867 0.0
H610 H 0.42926 0.61083 0.83173 0.0
H611 H 0.44636 0.60176 0.88011 0.0
Mn612 Mn 0.89688 0.35207 0.81412 0.0
Mn613 Mn 0.85444 0.35614 0.8518 0.0
C614 C 0.88465 0.37585 0.79233 0.0
C615 C 0.93557 0.36491 0.80552 0.0
C616 C 0.84628 0.31606 0.80838 0.0
O617 O 0.89632 0.33966 0.86147 0.0
O618 O 0.86771 0.34337 0.88357 0.0
C619 C 0.88136 0.39111 0.90294 0.0
N620 N 0.86658 0.3839 0.87653 0.0
C621 C 0.86307 0.41736 0.87934 0.0
C622 C 0.87817 0.4251 0.90668 0.0
C623 C 0.88741 0.41194 0.91845 0.0
C624 C 0.85763 0.39645 0.86496 0.0
H625 H 0.88847 0.38104 0.9121 0.0
C626 C 0.88303 0.3377 0.88577 0.0
O627 O 0.92009 0.34446 0.79725 0.0
O628 O 0.92862 0.37728 0.8205 0.0
N629 N 0.84034 0.36852 0.82385 0.0
C630 C 0.82744 0.3595 0.79566 0.0
C631 C 0.81773 0.37108 0.77979 0.0
C632 C 0.82118 0.39166 0.79325 0.0
C633 C 0.83438 0.40053 0.82242 0.0
C634 C 0.84366 0.38826 0.83711 0.0
H635 H 0.82475 0.34368 0.7852 0.0
O636 O 0.89462 0.36807 0.77303 0.0
O637 O 0.88168 0.36911 0.82352 0.0
O638 O 0.86709 0.32287 0.80156 0.0
O639 O 0.84001 0.32737 0.82669 0.0
C640 C 0.83905 0.42127 0.83714 0.0
C641 C 0.85347 0.42974 0.86547 0.0
H642 H 0.88294 0.44119 0.91864 0.0
H643 H 0.89914 0.41784 0.93946 0.0
H644 H 0.80763 0.36417 0.75721 0.0
H645 H 0.81376 0.40061 0.78084 0.0
H646 H 0.83193 0.43102 0.82651 0.0
H647 H 0.85728 0.44592 0.87615 0.0
Mn648 Mn 0.13487 0.4704 0.70811 0.0
Mn649 Mn 0.17886 0.51628 0.67155 0.0
C650 C 0.14786 0.50648 0.73004 0.0
C651 C 0.09595 0.44504 0.71534 0.0
C652 C 0.18471 0.48264 0.71438 0.0
O653 O 0.13589 0.45871 0.66071 0.0
O654 O 0.16472 0.49098 0.6387 0.0
C655 C 0.15389 0.52741 0.62097 0.0
N656 N 0.1683 0.53366 0.64777 0.0
C657 C 0.17375 0.57145 0.64718 0.0
C658 C 0.15903 0.56545 0.61947 0.0
C659 C 0.14902 0.54332 0.60637 0.0
C660 C 0.17804 0.5549 0.66057 0.0
H661 H 0.14617 0.51042 0.61082 0.0
C662 C 0.14916 0.47009 0.63636 0.0
O663 O 0.11107 0.43971 0.72414 0.0
O664 O 0.10339 0.46455 0.70065 0.0
N665 N 0.19374 0.54195 0.70091 0.0
C666 C 0.20607 0.54443 0.7293 0.0
C667 C 0.21638 0.56527 0.74649 0.0
C668 C 0.21408 0.58338 0.73416 0.0
C669 C 0.20142 0.58046 0.70477 0.0
C670 C 0.19153 0.5593 0.68872 0.0
H671 H 0.20788 0.53055 0.73888 0.0
O672 O 0.13699 0.4887 0.74909 0.0
O673 O 0.1512 0.50264 0.69907 0.0
O674 O 0.16382 0.46997 0.72205 0.0
O675 O 0.19193 0.50008 0.69548 0.0
C676 C 0.19788 0.59756 0.69115 0.0
C677 C 0.184 0.59305 0.66243 0.0
H678 H 0.15515 0.57763 0.60824 0.0
H679 H 0.13758 0.53854 0.58508 0.0
H680 H 0.22605 0.56736 0.76922 0.0
H681 H 0.22194 0.59938 0.74759 0.0
H682 H 0.20542 0.61413 0.70293 0.0
H683 H 0.18105 0.60621 0.65259 0.0
Mn684 Mn 0.67729 0.12772 0.70373 0.0
Mn685 Mn 0.67277 0.16799 0.66001 0.0
C686 C 0.65364 0.14088 0.72263 0.0
C687 C 0.66455 0.08954 0.7164 0.0
C688 C 0.71337 0.1784 0.70401 0.0
O689 O 0.68939 0.12605 0.65713 0.0
O690 O 0.68477 0.15286 0.63035 0.0
C691 C 0.63675 0.13862 0.61172 0.0
N692 N 0.64455 0.15476 0.63631 0.0
C693 C 0.6111 0.15824 0.63255 0.0
C694 C 0.60277 0.14175 0.60705 0.0
C695 C 0.61562 0.13185 0.59666 0.0
C696 C 0.63231 0.16438 0.64651 0.0
H697 H 0.64658 0.13097 0.60366 0.0
C698 C 0.69063 0.13765 0.63098 0.0
O699 O 0.68503 0.10538 0.72386 0.0
O700 O 0.65209 0.09577 0.70005 0.0
N701 N 0.66108 0.18368 0.68582 0.0
C702 C 0.67069 0.19798 0.71251 0.0
C703 C 0.65946 0.20851 0.72701 0.0
C704 C 0.63861 0.20441 0.71372 0.0
C705 C 0.62914 0.18976 0.68609 0.0
C706 C 0.64109 0.17974 0.6727 0.0
H707 H 0.68671 0.20117 0.72285 0.0
O708 O 0.66153 0.13185 0.74356 0.0
O709 O 0.66015 0.14235 0.69146 0.0
O710 O 0.70648 0.1581 0.71394 0.0
O711 O 0.70202 0.18355 0.68384 0.0
C712 C 0.60808 0.18435 0.67174 0.0
C713 C 0.59902 0.16854 0.64508 0.0
H714 H 0.58643 0.1364 0.59548 0.0
H715 H 0.60926 0.11904 0.5771 0.0
H716 H 0.66685 0.21973 0.74841 0.0
H717 H 0.62993 0.21245 0.72509 0.0
H718 H 0.59853 0.19197 0.68141 0.0
H719 H 0.58261 0.16419 0.63471 0.0
Mn720 Mn 0.55651 0.66974 0.70726 0.0
Mn721 Mn 0.51076 0.66787 0.67042 0.0
C722 C 0.5204 0.6468 0.72919 0.0
C723 C 0.58172 0.65608 0.71486 0.0
C724 C 0.54438 0.70743 0.71307 0.0
O725 O 0.56834 0.68234 0.65986 0.0
O726 O 0.53616 0.67897 0.63766 0.0
C727 C 0.49974 0.63167 0.62006 0.0
N728 N 0.49343 0.63989 0.64676 0.0
C729 C 0.45569 0.60746 0.64638 0.0
C730 C 0.46175 0.59869 0.61877 0.0
C731 C 0.48388 0.61084 0.60561 0.0
C732 C 0.47217 0.62836 0.65961 0.0
H733 H 0.51673 0.64096 0.60989 0.0
C734 C 0.55706 0.68426 0.63544 0.0
O735 O 0.58712 0.67659 0.72346 0.0
O736 O 0.56225 0.64403 0.70009 0.0
N737 N 0.48502 0.65713 0.69971 0.0
C738 C 0.48249 0.66703 0.72803 0.0
C739 C 0.46165 0.65649 0.74528 0.0
C740 C 0.44359 0.636 0.7331 0.0
C741 C 0.44657 0.62622 0.70379 0.0
C742 C 0.46771 0.6375 0.68766 0.0
H743 H 0.49633 0.68277 0.73751 0.0
O744 O 0.53814 0.65375 0.74829 0.0
O745 O 0.5243 0.65387 0.69816 0.0
O746 O 0.557 0.69918 0.72087 0.0
O747 O 0.52694 0.69718 0.69422 0.0
C748 C 0.42953 0.60548 0.69035 0.0
C749 C 0.4341 0.59607 0.66171 0.0
H750 H 0.44962 0.58257 0.60767 0.0
H751 H 0.48871 0.60413 0.58439 0.0
H752 H 0.45952 0.6641 0.76795 0.0
H753 H 0.42759 0.62784 0.7466 0.0
H754 H 0.41297 0.59642 0.7022 0.0
H755 H 0.42099 0.57989 0.65201 0.0
Mn756 Mn 0.90012 0.55502 0.70042 0.0
Mn757 Mn 0.85778 0.51052 0.6591 0.0
C758 C 0.8863 0.51838 0.72021 0.0
C759 C 0.93862 0.57999 0.71095 0.0
C760 C 0.85014 0.54266 0.70285 0.0
O761 O 0.90107 0.56826 0.65363 0.0
O762 O 0.87327 0.53687 0.62804 0.0
C763 C 0.88486 0.50101 0.61009 0.0
N764 N 0.86936 0.49391 0.6356 0.0
C765 C 0.8645 0.45636 0.63402 0.0
C766 C 0.88031 0.46324 0.60759 0.0
C767 C 0.89056 0.48567 0.59563 0.0
C768 C 0.85935 0.47235 0.64726 0.0
H769 H 0.89282 0.51825 0.60088 0.0
C770 C 0.88896 0.55778 0.62794 0.0
O771 O 0.92323 0.58513 0.71904 0.0
O772 O 0.93174 0.56095 0.69517 0.0
N773 N 0.84177 0.48394 0.68655 0.0
C774 C 0.82834 0.48058 0.71398 0.0
C775 C 0.81763 0.45933 0.73004 0.0
C776 C 0.82074 0.44172 0.71764 0.0
C777 C 0.83455 0.44555 0.68928 0.0
C778 C 0.84473 0.46706 0.67425 0.0
H779 H 0.82595 0.49408 0.72368 0.0
O780 O 0.89637 0.53555 0.74054 0.0
O781 O 0.88422 0.52314 0.68912 0.0
O782 O 0.87068 0.55501 0.71239 0.0
O783 O 0.84371 0.52594 0.68268 0.0
C784 C 0.83903 0.42902 0.67581 0.0
C785 C 0.85402 0.43443 0.64824 0.0
H786 H 0.88488 0.45151 0.59653 0.0
H787 H 0.90287 0.49113 0.57535 0.0
H788 H 0.80708 0.45654 0.75201 0.0
H789 H 0.8126 0.4254 0.73026 0.0
H790 H 0.83134 0.41221 0.68686 0.0
H791 H 0.85766 0.4217 0.63852 0.0
Mn792 Mn 0.35802 0.89291 0.70533 0.0
Mn793 Mn 0.36031 0.84917 0.66881 0.0
C794 C 0.38126 0.88013 0.72727 0.0
C795 C 0.37139 0.93171 0.71296 0.0
C796 C 0.32062 0.84299 0.71152 0.0
O797 O 0.34541 0.89193 0.65788 0.0
O798 O 0.3491 0.86325 0.63589 0.0
C799 C 0.39652 0.87436 0.61836 0.0
N800 N 0.38835 0.85993 0.64518 0.0
C801 C 0.42102 0.855 0.64516 0.0
C802 C 0.42974 0.86974 0.61743 0.0
C803 C 0.41745 0.87948 0.60403 0.0
C804 C 0.40002 0.85042 0.65825 0.0
H805 H 0.38712 0.88189 0.608 0.0
C806 C 0.34366 0.87874 0.63353 0.0
O807 O 0.3509 0.9165 0.72151 0.0
O808 O 0.38356 0.92445 0.69808 0.0
N809 N 0.37117 0.83441 0.69831 0.0
C810 C 0.36126 0.82203 0.72667 0.0
C811 C 0.37189 0.8119 0.74408 0.0
C812 C 0.39248 0.81449 0.73203 0.0
C813 C 0.40231 0.82725 0.70273 0.0
C814 C 0.39091 0.83689 0.68639 0.0
H815 H 0.34545 0.82001 0.73605 0.0
O816 O 0.37414 0.8908 0.74635 0.0
O817 O 0.37414 0.8768 0.69629 0.0
O818 O 0.32872 0.86385 0.71918 0.0
O819 O 0.33095 0.8359 0.69262 0.0
C820 C 0.42319 0.83115 0.68948 0.0
C821 C 0.43256 0.84505 0.66075 0.0
H822 H 0.44594 0.87384 0.60642 0.0
H823 H 0.42411 0.89094 0.58272 0.0
H824 H 0.36425 0.80215 0.76676 0.0
H825 H 0.40066 0.80672 0.74561 0.0
H826 H 0.43237 0.82387 0.70156 0.0
H827 H 0.44883 0.84827 0.65118 0.0
Mn828 Mn 0.47395 0.35055 0.70201 0.0
Mn829 Mn 0.51835 0.35246 0.66056 0.0
C830 C 0.51064 0.37323 0.72168 0.0
C831 C 0.44907 0.36422 0.71258 0.0
C832 C 0.48599 0.31271 0.70427 0.0
O833 O 0.46072 0.33837 0.6552 0.0
O834 O 0.49207 0.34189 0.62947 0.0
C835 C 0.52825 0.38923 0.61171 0.0
N836 N 0.53518 0.38068 0.6372 0.0
C837 C 0.57286 0.41319 0.63581 0.0
C838 C 0.56615 0.42229 0.60941 0.0
C839 C 0.54374 0.41027 0.59736 0.0
C840 C 0.55673 0.39207 0.64893 0.0
H841 H 0.51103 0.38008 0.60244 0.0
C842 C 0.4712 0.3368 0.62943 0.0
O843 O 0.44386 0.34367 0.72068 0.0
O844 O 0.46816 0.37634 0.69683 0.0
N845 N 0.54484 0.36278 0.68807 0.0
C846 C 0.54802 0.35257 0.71547 0.0
C847 C 0.56923 0.36297 0.73164 0.0
C848 C 0.58696 0.38366 0.71937 0.0
C849 C 0.58331 0.39377 0.69103 0.0
C850 C 0.56184 0.38259 0.67589 0.0
H851 H 0.53442 0.33672 0.72509 0.0
O852 O 0.49349 0.36622 0.74209 0.0
O853 O 0.50582 0.36637 0.69063 0.0
O854 O 0.47378 0.32104 0.71394 0.0
O855 O 0.50269 0.32291 0.68399 0.0
C856 C 0.59998 0.41477 0.67768 0.0
C857 C 0.59475 0.42449 0.65012 0.0
H858 H 0.578 0.43859 0.59844 0.0
H859 H 0.53842 0.41724 0.57711 0.0
H860 H 0.57188 0.3551 0.75359 0.0
H861 H 0.60323 0.39172 0.73208 0.0
H862 H 0.61675 0.42377 0.68882 0.0
H863 H 0.60759 0.44084 0.6405 0.0
H864 H 0.40819 0.07013 0.2443 0.0
H865 H 0.45995 0.05681 0.20624 0.0
H866 H 0.38775 0.03175 0.26808 0.0
H867 H 0.4396 0.01867 0.22996 0.0
H868 H 0.41419 0.96525 0.3129 0.0
H869 H 0.43192 1.00334 0.28902 0.0
H870 H 0.36696 0.99005 0.25086 0.0
H871 H 0.34908 0.95171 0.2748 0.0
C872 C 0.41506 0.05895 0.24064 0.0
C873 C 0.43574 0.06656 0.22347 0.0
C874 C 0.40334 0.03698 0.25424 0.0
C875 C 0.41223 0.02231 0.25127 0.0
C876 C 0.43252 0.02972 0.23317 0.0
C877 C 0.44408 0.05152 0.21933 0.0
C878 C 0.40359 0.97048 0.29975 0.0
C879 C 0.38022 0.9554 0.29566 0.0
C880 C 0.4138 0.99226 0.28582 0.0
C881 C 0.40089 0.99959 0.26768 0.0
C882 C 0.37734 0.98487 0.26473 0.0
C883 C 0.36713 0.96293 0.27842 0.0
H884 H 0.47201 0.4103 0.28106 0.0
H885 H 0.40793 0.35066 0.30361 0.0
H886 H 0.45257 0.42839 0.25672 0.0
H887 H 0.38788 0.36958 0.28237 0.0
H888 H 0.35618 0.40223 0.21841 0.0
H889 H 0.37514 0.38222 0.23961 0.0
H890 H 0.43409 0.44693 0.26446 0.0
H891 H 0.41595 0.46633 0.24015 0.0
C892 C 0.45362 0.40132 0.28167 0.0
C893 C 0.44148 0.37921 0.29458 0.0
C894 C 0.4423 0.41179 0.26787 0.0
C895 C 0.41837 0.40085 0.26778 0.0
C896 C 0.40623 0.37865 0.28126 0.0
C897 C 0.41767 0.36781 0.29393 0.0
C898 C 0.37337 0.41198 0.2279 0.0
C899 C 0.38478 0.43578 0.22704 0.0
C900 C 0.38423 0.40056 0.24055 0.0
C901 C 0.40648 0.41272 0.2538 0.0
C902 C 0.41745 0.43664 0.25349 0.0
C903 C 0.40695 0.44794 0.23971 0.0
H904 H 0.97191 0.40761 0.20562 0.0
H905 H 0.95793 0.3424 0.24398 0.0
H906 H 1.00972 0.42527 0.23043 0.0
H907 H 0.99598 0.36021 0.26884 0.0
H908 H 0.06193 0.45295 0.31492 0.0
H909 H 0.02414 0.43266 0.29006 0.0
H910 H 0.03795 0.38115 0.25274 0.0
H911 H 0.07597 0.40153 0.27764 0.0
C912 C 0.97699 0.39697 0.21899 0.0
C913 C 0.96186 0.3736 0.22291 0.0
C914 C 0.9986 0.40714 0.23346 0.0
C915 C 1.00571 0.39418 0.25197 0.0
C916 C 0.99097 0.37063 0.25469 0.0
C917 C 0.9692 0.36045 0.24047 0.0
C918 C 0.05687 0.43716 0.30178 0.0
C919 C 0.07201 0.4289 0.29818 0.0
C920 C 0.03527 0.42564 0.28728 0.0
C921 C 0.02818 0.40547 0.26906 0.0
C922 C 0.04293 0.39665 0.26665 0.0
C923 C 0.06469 0.40832 0.2809 0.0
H924 H 0.57331 0.9655 0.21378 0.0
H925 H 0.62424 0.95171 0.25392 0.0
H926 H 0.59359 1.00363 0.23725 0.0
H927 H 0.64469 0.9902 0.27744 0.0
H928 H 0.61869 0.05812 0.31774 0.0
H929 H 0.60098 0.01946 0.29611 0.0
H930 H 0.6659 0.03193 0.25887 0.0
H931 H 0.68375 0.07084 0.28053 0.0
C932 C 0.58897 0.97066 0.22734 0.0
C933 C 0.59711 0.9555 0.23205 0.0
C934 C 0.60049 0.99249 0.24104 0.0
C935 C 0.62058 0.99982 0.25959 0.0
C936 C 0.62925 0.98501 0.26327 0.0
C937 C 0.61754 0.96299 0.24981 0.0
C938 C 0.62929 0.05259 0.30535 0.0
C939 C 0.65263 0.06763 0.30072 0.0
C940 C 0.61909 0.03047 0.29272 0.0
C941 C 0.63199 0.02274 0.27538 0.0
C942 C 0.65553 0.03739 0.27214 0.0
C943 C 0.66573 0.05967 0.28452 0.0
H944 H 0.57723 0.6163 0.31493 0.0
H945 H 0.62769 0.68156 0.27562 0.0
H946 H 0.59781 0.59898 0.29056 0.0
H947 H 0.64847 0.66405 0.25128 0.0
H948 H 0.68728 0.62185 0.24433 0.0
H949 H 0.66983 0.64266 0.2688 0.0
H950 H 0.60468 0.59207 0.22986 0.0
H951 H 0.62192 0.57147 0.20537 0.0
C952 C 0.59288 0.62704 0.30143 0.0
C953 C 0.60075 0.65032 0.2971 0.0
C954 C 0.60459 0.61706 0.28726 0.0
C955 C 0.6246 0.6301 0.26864 0.0
C956 C 0.63309 0.65359 0.26551 0.0
C957 C 0.62119 0.66358 0.27942 0.0
C958 C 0.66929 0.61536 0.24064 0.0
C959 C 0.65599 0.59494 0.22302 0.0
C960 C 0.65933 0.62728 0.25462 0.0
C961 C 0.63584 0.61882 0.25162 0.0
C962 C 0.62275 0.59882 0.23307 0.0
C963 C 0.6327 0.5871 0.21883 0.0
H964 H 0.07545 0.67729 0.24354 0.0
H965 H 0.06261 0.61202 0.20731 0.0
H966 H 0.03674 0.65949 0.26613 0.0
H967 H 0.02414 0.59438 0.22986 0.0
H968 H 0.97023 0.56677 0.3121 0.0
H969 H 1.00842 0.58714 0.28868 0.0
H970 H 0.99497 0.63825 0.24855 0.0
H971 H 0.95644 0.61772 0.27202 0.0
C972 C 0.0643 0.65923 0.23997 0.0
C973 C 0.07217 0.64607 0.22372 0.0
C974 C 0.04213 0.64905 0.2529 0.0
C975 C 0.02749 0.62548 0.2502 0.0
C976 C 0.03514 0.61252 0.23287 0.0
C977 C 0.05715 0.62268 0.21969 0.0
C978 C 0.97541 0.58247 0.29863 0.0
C979 C 0.96021 0.59056 0.29387 0.0
C980 C 0.99728 0.59405 0.28494 0.0
C981 C 1.00462 0.61413 0.26633 0.0
C982 C 0.9898 0.62281 0.26275 0.0
C983 C 0.96775 0.61106 0.27621 0.0
H984 H 0.57485 0.96555 0.82066 0.0
H985 H 0.62688 0.95196 0.78476 0.0
H986 H 0.5956 1.00366 0.79686 0.0
H987 H 0.64774 0.99032 0.76096 0.0
H988 H 0.686 0.0705 0.75107 0.0
H989 H 0.66838 0.03266 0.77696 0.0
H990 H 0.60337 0.01776 0.73687 0.0
H991 H 0.6208 0.0552 0.71102 0.0
C992 C 0.59089 0.97079 0.80814 0.0
C993 C 0.59914 0.95564 0.80449 0.0
C994 C 0.6027 0.99259 0.79426 0.0
C995 C 0.62315 0.99989 0.77662 0.0
C996 C 0.63203 0.98519 0.77442 0.0
C997 C 0.62007 0.96322 0.78804 0.0
C998 C 0.66801 0.05901 0.74746 0.0
C999 C 0.65481 0.06591 0.72903 0.0
C1000 C 0.65793 0.03737 0.7623 0.0
C1001 C 0.63443 0.02236 0.75936 0.0
C1002 C 0.62144 0.02908 0.74012 0.0
C1003 C 0.6315 0.05051 0.72504 0.0
H1004 H 0.683 0.61794 0.77373 0.0
H1005 H 0.61817 0.56573 0.8118 0.0
H1006 H 0.66483 0.63837 0.75082 0.0
H1007 H 0.60013 0.58609 0.78899 0.0
H1008 H 0.57132 0.61201 0.70808 0.0
H1009 H 0.59185 0.59414 0.73088 0.0
H1010 H 0.64414 0.65901 0.76828 0.0
H1011 H 0.62354 0.67702 0.74539 0.0
C1012 C 0.66495 0.61098 0.77761 0.0
C1013 C 0.65203 0.59016 0.79452 0.0
C1014 C 0.65456 0.62269 0.76449 0.0
C1015 C 0.63099 0.61369 0.76768 0.0
C1016 C 0.61825 0.59327 0.78556 0.0
C1017 C 0.62864 0.5817 0.79892 0.0
C1018 C 0.58733 0.62256 0.72079 0.0
C1019 C 0.59575 0.64595 0.72498 0.0
C1020 C 0.59899 0.61227 0.73414 0.0
C1021 C 0.61947 0.6251 0.7518 0.0
C1022 C 0.62842 0.64867 0.75478 0.0
C1023 C 0.61661 0.65897 0.74166 0.0
H1024 H 0.97247 0.56979 0.70537 0.0
H1025 H 0.9586 0.62118 0.74332 0.0
H1026 H 1.01028 0.58993 0.73012 0.0
H1027 H 0.99666 0.64141 0.76813 0.0
H1028 H 0.0767 0.68002 0.77656 0.0
H1029 H 0.03861 0.66234 0.7519 0.0
H1030 H 0.02484 0.59713 0.78967 0.0
H1031 H 0.0627 0.61466 0.81429 0.0
C1032 C 0.97757 0.58553 0.71864 0.0
C1033 C 0.96247 0.59383 0.72245 0.0
C1034 C 0.99919 0.59697 0.73309 0.0
C1035 C 1.00634 0.61709 0.75146 0.0
C1036 C 0.99163 0.62595 0.7541 0.0
C1037 C 0.96984 0.61436 0.7399 0.0
C1038 C 0.06541 0.66196 0.77997 0.0
C1039 C 0.07276 0.64874 0.7973 0.0
C1040 C 0.04361 0.65186 0.76586 0.0
C1041 C 0.02885 0.62831 0.76846 0.0
C1042 C 0.03597 0.61526 0.78674 0.0
C1043 C 0.05761 0.62536 0.8011 0.0
H1044 H 0.46123 0.05718 0.81304 0.0
H1045 H 0.40928 0.0704 0.77577 0.0
H1046 H 0.44094 0.0191 0.78915 0.0
H1047 H 0.38891 0.03212 0.7518 0.0
H1048 H 0.41547 0.96553 0.70663 0.0
H1049 H 0.43321 1.00362 0.73049 0.0
H1050 H 0.36814 0.99054 0.76798 0.0
H1051 H 0.35026 0.95225 0.74404 0.0
C1052 C 0.44532 0.05187 0.80013 0.0
C1053 C 0.43692 0.06689 0.79626 0.0
C1054 C 0.4338 0.0301 0.78615 0.0
C1055 C 0.41347 0.02269 0.76815 0.0
C1056 C 0.40452 0.03732 0.76553 0.0
C1057 C 0.41619 0.05924 0.77928 0.0
C1058 C 0.40484 0.97082 0.71956 0.0
C1059 C 0.38144 0.95579 0.72349 0.0
C1060 C 0.41507 0.9926 0.73353 0.0
C1061 C 0.40214 1.0 0.75156 0.0
C1062 C 0.37856 0.98535 0.75422 0.0
C1063 C 0.36833 0.96342 0.7405 0.0
H1064 H 0.41373 0.45358 0.81488 0.0
H1065 H 0.34854 0.40196 0.77718 0.0
H1066 H 0.43148 0.43338 0.7905 0.0
H1067 H 0.36643 0.38167 0.75273 0.0
H1068 H 0.40776 0.34303 0.74473 0.0
H1069 H 0.38738 0.36082 0.76918 0.0
H1070 H 0.439 0.42592 0.73129 0.0
H1071 H 0.4593 0.40827 0.7069 0.0
C1072 C 0.40312 0.43778 0.80173 0.0
C1073 C 0.37972 0.42943 0.7979 0.0
C1074 C 0.41334 0.4263 0.7875 0.0
C1075 C 0.40041 0.40609 0.76931 0.0
C1076 C 0.37684 0.39719 0.76664 0.0
C1077 C 0.36661 0.40882 0.78063 0.0
C1078 C 0.41459 0.36109 0.74126 0.0
C1079 C 0.4352 0.37424 0.72395 0.0
C1080 C 0.4029 0.37125 0.75525 0.0
C1081 C 0.41174 0.39481 0.75254 0.0
C1082 C 0.43196 0.40779 0.73431 0.0
C1083 C 0.4435 0.39763 0.72008 0.0
H1084 H 0.06223 0.45538 0.70844 0.0
H1085 H 0.0749 0.40294 0.74521 0.0
H1086 H 0.02374 0.43468 0.73091 0.0
H1087 H 0.03616 0.38214 0.7677 0.0
H1088 H 0.95583 0.34379 0.77326 0.0
H1089 H 0.99439 0.36166 0.74994 0.0
H1090 H 1.00794 0.42632 0.7897 0.0
H1091 H 0.96971 0.40862 0.81298 0.0
C1092 C 0.05673 0.43928 0.72092 0.0
C1093 C 0.07171 0.43087 0.72512 0.0
C1094 C 0.0347 0.4275 0.73406 0.0
C1095 C 0.02699 0.40692 0.75149 0.0
C1096 C 0.04159 0.39795 0.75438 0.0
C1097 C 0.06378 0.40987 0.74151 0.0
C1098 C 0.96716 0.36175 0.7774 0.0
C1099 C 0.95964 0.37477 0.79491 0.0
C1100 C 0.98923 0.37198 0.76403 0.0
C1101 C 1.0041 0.39547 0.76755 0.0
C1102 C 0.99677 0.40827 0.78601 0.0
C1103 C 0.97488 0.39806 0.79962 0.0
H1104 H 0.49662 0.21951 0.17634 0.0
H1105 H 0.46608 0.17832 0.26498 0.0
H1106 H 0.49294 0.25026 0.20157 0.0
H1107 H 0.46274 0.20936 0.29043 0.0
H1108 H 0.49944 0.28418 0.33546 0.0
H1109 H 0.49426 0.24922 0.31014 0.0
H1110 H 0.46274 0.26021 0.22324 0.0
H1111 H 0.46758 0.29521 0.2489 0.0
C1112 C 0.48889 0.21693 0.20106 0.0
C1113 C 0.48174 0.1965 0.21873 0.0
C1114 C 0.48665 0.23449 0.2154 0.0
C1115 C 0.47758 0.23221 0.24796 0.0
C1116 C 0.46984 0.21158 0.2653 0.0
C1117 C 0.47168 0.1938 0.25068 0.0
C1118 C 0.4911 0.279 0.31116 0.0
C1119 C 0.48399 0.2925 0.29411 0.0
C1120 C 0.48801 0.25889 0.29678 0.0
C1121 C 0.47812 0.25201 0.26473 0.0
C1122 C 0.47046 0.26517 0.24797 0.0
C1123 C 0.47313 0.28511 0.2627 0.0
H1124 H 0.18372 0.45983 0.2579 0.0
H1125 H 0.22502 0.49078 0.34619 0.0
H1126 H 0.21487 0.45671 0.23231 0.0
H1127 H 0.25589 0.48732 0.32081 0.0
H1128 H 0.30093 0.46199 0.27334 0.0
H1129 H 0.26597 0.45713 0.29925 0.0
H1130 H 0.25465 0.48839 0.21227 0.0
H1131 H 0.28959 0.49359 0.18671 0.0
C1132 C 0.19926 0.46557 0.27209 0.0
C1133 C 0.20195 0.47567 0.30399 0.0
C1134 C 0.2171 0.46386 0.25739 0.0
C1135 C 0.23778 0.47177 0.27459 0.0
C1136 C 0.24008 0.4809 0.3071 0.0
C1137 C 0.22244 0.48301 0.32151 0.0
C1138 C 0.29077 0.46749 0.25958 0.0
C1139 C 0.29806 0.47827 0.22807 0.0
C1140 C 0.27085 0.46481 0.27446 0.0
C1141 C 0.25761 0.47238 0.25774 0.0
C1142 C 0.26439 0.48222 0.2256 0.0
C1143 C 0.28448 0.48531 0.21108 0.0
H1144 H 0.74414 0.22166 0.33653 0.0
H1145 H 0.73316 0.17826 0.25062 0.0
H1146 H 0.77894 0.25142 0.31066 0.0
H1147 H 0.76796 0.20837 0.22445 0.0
H1148 H 0.80871 0.28251 0.17636 0.0
H1149 H 0.77782 0.24844 0.20221 0.0
H1150 H 0.81886 0.25945 0.2909 0.0
H1151 H 0.85004 0.29348 0.26482 0.0
C1152 C 0.74927 0.2184 0.31224 0.0
C1153 C 0.73585 0.19763 0.29555 0.0
C1154 C 0.76929 0.2354 0.29756 0.0
C1155 C 0.77614 0.2322 0.26556 0.0
C1156 C 0.76302 0.21127 0.24912 0.0
C1157 C 0.74318 0.19404 0.26415 0.0
C1158 C 0.81129 0.27751 0.20119 0.0
C1159 C 0.8318 0.29075 0.2186 0.0
C1160 C 0.79364 0.25791 0.21588 0.0
C1161 C 0.79594 0.25133 0.24856 0.0
C1162 C 0.81664 0.2642 0.26569 0.0
C1163 C 0.83449 0.28359 0.25071 0.0
H1164 H 0.51527 0.79716 0.20758 0.0
H1165 H 0.58078 0.84607 0.24825 0.0
H1166 H 0.51841 0.7666 0.23366 0.0
H1167 H 0.5839 0.81487 0.27424 0.0
H1168 H 0.5818 0.74174 0.2799 0.0
H1169 H 0.58388 0.77561 0.25394 0.0
H1170 H 0.51933 0.75828 0.29853 0.0
H1171 H 0.51721 0.72503 0.32458 0.0
C1172 C 0.53049 0.80147 0.22182 0.0
C1173 C 0.54771 0.82423 0.22596 0.0
C1174 C 0.53222 0.78386 0.23683 0.0
C1175 C 0.55132 0.78838 0.25609 0.0
C1176 C 0.56902 0.81096 0.25939 0.0
C1177 C 0.56715 0.82878 0.24467 0.0
C1178 C 0.56817 0.74529 0.2844 0.0
C1179 C 0.54927 0.73048 0.30421 0.0
C1180 C 0.56944 0.76472 0.26967 0.0
C1181 C 0.55168 0.76941 0.27408 0.0
C1182 C 0.53317 0.75495 0.29449 0.0
C1183 C 0.53203 0.73587 0.30948 0.0
H1184 H 0.74636 0.57455 0.24179 0.0
H1185 H 0.73165 0.51255 0.1904 0.0
H1186 H 0.78005 0.57606 0.26738 0.0
H1187 H 0.76474 0.51413 0.21602 0.0
H1188 H 0.80149 0.50606 0.30648 0.0
H1189 H 0.77147 0.50994 0.28012 0.0
H1190 H 0.8201 0.5778 0.24793 0.0
H1191 H 0.85079 0.57397 0.2743 0.0
C1192 C 0.75035 0.56141 0.23568 0.0
C1193 C 0.73608 0.54333 0.21419 0.0
C1194 C 0.76967 0.56236 0.25022 0.0
C1195 C 0.77484 0.5451 0.24384 0.0
C1196 C 0.76103 0.52753 0.22161 0.0
C1197 C 0.74203 0.52671 0.20688 0.0
C1198 C 0.806 0.52194 0.294 0.0
C1199 C 0.82872 0.53967 0.29239 0.0
C1200 C 0.7887 0.52409 0.27881 0.0
C1201 C 0.79347 0.5441 0.26183 0.0
C1202 C 0.81599 0.56221 0.26097 0.0
C1203 C 0.83352 0.55995 0.27589 0.0
H1204 H 0.18332 0.72684 0.27253 0.0
H1205 H 0.22606 0.73717 0.18591 0.0
H1206 H 0.21369 0.7618 0.29791 0.0
H1207 H 0.25606 0.7721 0.21096 0.0
H1208 H 0.29891 0.84332 0.25521 0.0
H1209 H 0.26451 0.81212 0.23007 0.0
H1210 H 0.25384 0.77177 0.31955 0.0
H1211 H 0.28826 0.80268 0.34448 0.0
C1212 C 0.19901 0.73676 0.25867 0.0
C1213 C 0.20234 0.72919 0.22731 0.0
C1214 C 0.21639 0.75668 0.27324 0.0
C1215 C 0.23721 0.76966 0.25637 0.0
C1216 C 0.24014 0.76257 0.22441 0.0
C1217 C 0.223 0.74248 0.21019 0.0
C1218 C 0.28902 0.82793 0.26971 0.0
C1219 C 0.29638 0.82543 0.30175 0.0
C1220 C 0.26941 0.81006 0.25526 0.0
C1221 C 0.25653 0.78954 0.27287 0.0
C1222 C 0.26331 0.78745 0.30552 0.0
C1223 C 0.28312 0.80511 0.31967 0.0
H1224 H 0.56592 0.72716 0.77248 0.0
H1225 H 0.53414 0.7379 0.68553 0.0
H1226 H 0.57053 0.76211 0.79792 0.0
H1227 H 0.53909 0.77284 0.71067 0.0
H1228 H 0.56706 0.84384 0.75621 0.0
H1229 H 0.57067 0.81292 0.73071 0.0
H1230 H 0.53984 0.77162 0.81902 0.0
H1231 H 0.53588 0.80219 0.84422 0.0
C1232 C 0.5603 0.73717 0.75856 0.0
C1233 C 0.54953 0.7297 0.72712 0.0
C1234 C 0.56287 0.75709 0.77316 0.0
C1235 C 0.55518 0.77017 0.75623 0.0
C1236 C 0.54536 0.76322 0.72414 0.0
C1237 C 0.54238 0.74312 0.70989 0.0
C1238 C 0.5614 0.82829 0.77036 0.0
C1239 C 0.55107 0.8254 0.80212 0.0
C1240 C 0.56337 0.81059 0.75572 0.0
C1241 C 0.55553 0.78989 0.77292 0.0
C1242 C 0.54621 0.78744 0.80532 0.0
C1243 C 0.54381 0.8049 0.81963 0.0
H1244 H 0.74421 0.52861 0.83344 0.0
H1245 H 0.73345 0.56072 0.7469 0.0
H1246 H 0.77917 0.5337 0.8081 0.0
H1247 H 0.76843 0.56548 0.72125 0.0
H1248 H 0.80957 0.53217 0.67431 0.0
H1249 H 0.77857 0.53544 0.69954 0.0
H1250 H 0.81909 0.56545 0.78866 0.0
H1251 H 0.85039 0.56251 0.76322 0.0
C1252 C 0.74942 0.53695 0.80912 0.0
C1253 C 0.73601 0.54418 0.7921 0.0
C1254 C 0.76953 0.53999 0.79474 0.0
C1255 C 0.77651 0.54998 0.76273 0.0
C1256 C 0.7634 0.55769 0.74595 0.0
C1257 C 0.74346 0.55505 0.76067 0.0
C1258 C 0.81202 0.53977 0.6991 0.0
C1259 C 0.83241 0.54699 0.71683 0.0
C1260 C 0.7943 0.54177 0.71343 0.0
C1261 C 0.79641 0.55066 0.74606 0.0
C1262 C 0.81701 0.55847 0.76348 0.0
C1263 C 0.83493 0.55687 0.74887 0.0
H1264 H 0.30101 0.84479 0.77115 0.0
H1265 H 0.29035 0.80199 0.68461 0.0
H1266 H 0.26631 0.81436 0.7971 0.0
H1267 H 0.25565 0.77191 0.71024 0.0
H1268 H 0.18455 0.7292 0.75584 0.0
H1269 H 0.21565 0.76345 0.73012 0.0
H1270 H 0.25664 0.77423 0.81878 0.0
H1271 H 0.22584 0.73991 0.84428 0.0
C1272 C 0.29107 0.82908 0.75744 0.0
C1273 C 0.29848 0.82575 0.72591 0.0
C1274 C 0.2713 0.81166 0.77234 0.0
C1275 C 0.25829 0.7908 0.75565 0.0
C1276 C 0.26521 0.78787 0.72355 0.0
C1277 C 0.28517 0.80505 0.70899 0.0
C1278 C 0.20007 0.73906 0.77003 0.0
C1279 C 0.20277 0.73177 0.80202 0.0
C1280 C 0.21788 0.7586 0.75525 0.0
C1281 C 0.23854 0.77148 0.77247 0.0
C1282 C 0.24085 0.76474 0.80504 0.0
C1283 C 0.22325 0.74501 0.81953 0.0
H1284 H 0.46624 0.2933 0.7648 0.0
H1285 H 0.49616 0.28241 0.67565 0.0
H1286 H 0.46318 0.25904 0.79031 0.0
H1287 H 0.49276 0.2481 0.70095 0.0
H1288 H 0.46708 0.17769 0.74883 0.0
H1289 H 0.46252 0.208 0.72309 0.0
H1290 H 0.49495 0.25074 0.80943 0.0
H1291 H 0.49984 0.22079 0.83484 0.0
C1292 C 0.47175 0.28338 0.75041 0.0
C1293 C 0.48155 0.29063 0.71828 0.0
C1294 C 0.47009 0.26385 0.76507 0.0
C1295 C 0.47775 0.25094 0.7476 0.0
C1296 C 0.48655 0.25761 0.71488 0.0
C1297 C 0.48862 0.27734 0.7005 0.0
C1298 C 0.47294 0.19345 0.76247 0.0
C1299 C 0.48392 0.1969 0.79377 0.0
C1300 C 0.47042 0.2108 0.7477 0.0
C1301 C 0.47836 0.2317 0.7643 0.0
C1302 C 0.48848 0.23475 0.7962 0.0
C1303 C 0.49141 0.21764 0.81062 0.0
H1304 H 0.18289 0.46123 0.77404 0.0
H1305 H 0.22552 0.49297 0.68708 0.0
H1306 H 0.21325 0.45671 0.79968 0.0
H1307 H 0.25551 0.48812 0.71239 0.0
H1308 H 0.29832 0.4599 0.75739 0.0
H1309 H 0.26392 0.45664 0.73211 0.0
H1310 H 0.25345 0.48692 0.82102 0.0
H1311 H 0.28787 0.4905 0.84608 0.0
C1312 C 0.19855 0.46687 0.76017 0.0
C1313 C 0.20186 0.47757 0.72863 0.0
C1314 C 0.21593 0.46437 0.77489 0.0
C1315 C 0.23672 0.47205 0.75799 0.0
C1316 C 0.23961 0.48185 0.72586 0.0
C1317 C 0.22248 0.48476 0.71149 0.0
C1318 C 0.28848 0.46553 0.77173 0.0
C1319 C 0.29589 0.47557 0.80365 0.0
C1320 C 0.26887 0.46375 0.75721 0.0
C1321 C 0.25604 0.47154 0.77461 0.0
C1322 C 0.26288 0.4806 0.80714 0.0
C1323 C 0.28268 0.48277 0.82138 0.0
H1324 H 0.84998 0.28197 0.77589 0.0
H1325 H 0.80091 0.30105 0.80747 0.0
H1326 H 0.81914 0.24725 0.75022 0.0
H1327 H 0.77074 0.26695 0.78184 0.0
H1328 H 0.73031 0.22364 0.69339 0.0
H1329 H 0.76354 0.25536 0.71828 0.0
H1330 H 0.77927 0.2092 0.77022 0.0
H1331 H 0.74545 0.17681 0.74531 0.0
C1332 C 0.83274 0.2788 0.77748 0.0
C1333 C 0.82804 0.29446 0.79362 0.0
C1334 C 0.81512 0.25889 0.76297 0.0
C1335 C 0.79262 0.25454 0.76389 0.0
C1336 C 0.78796 0.26997 0.78048 0.0
C1337 C 0.80534 0.28954 0.79526 0.0
C1338 C 0.7408 0.22 0.70985 0.0
C1339 C 0.73494 0.1975 0.71751 0.0
C1340 C 0.75989 0.2383 0.72417 0.0
C1341 C 0.77387 0.23474 0.74635 0.0
C1342 C 0.76876 0.21237 0.75309 0.0
C1343 C 0.74936 0.19388 0.73896 0.0
H1344 H 0.45834 0.16607 0.09593 0.0
H1345 H 0.46143 0.10447 0.08906 0.0
H1346 H 0.45004 0.16397 0.03563 0.0
H1347 H 0.45437 0.10282 0.02838 0.0
H1348 H 0.44389 0.10476 0.9173 0.0
H1349 H 0.43367 0.10023 0.97743 0.0
H1350 H 0.47598 0.1727 0.9911 0.0
H1351 H 0.48551 0.17708 0.93181 0.0
C1352 C 0.45648 0.15167 0.08157 0.0
C1353 C 0.46031 0.13534 0.09693 0.0
C1354 C 0.45201 0.15057 0.04697 0.0
C1355 C 0.45205 0.13351 0.02684 0.0
C1356 C 0.45402 0.1161 0.04295 0.0
C1357 C 0.45808 0.11701 0.07775 0.0
C1358 C 0.45034 0.11971 0.9331 0.0
C1359 C 0.46565 0.14124 0.91995 0.0
C1360 C 0.44468 0.11712 0.96758 0.0
C1361 C 0.45408 0.13606 0.98935 0.0
C1362 C 0.46807 0.1577 0.97535 0.0
C1363 C 0.47376 0.16023 0.94122 0.0
H1364 H 0.30329 0.45234 0.92687 0.0
H1365 H 0.36786 0.45509 0.93271 0.0
H1366 H 0.29779 0.44497 0.98747 0.0
H1367 H 0.36315 0.44892 0.99365 0.0
H1368 H 0.3515 0.43994 0.10545 0.0
H1369 H 0.34537 0.42902 0.04562 0.0
H1370 H 0.31603 0.47195 0.03062 0.0
H1371 H 0.32163 0.48222 0.0896 0.0
C1372 C 0.31592 0.45055 0.94107 0.0
C1373 C 0.33588 0.45407 0.92532 0.0
C1374 C 0.31297 0.44662 0.97583 0.0
C1375 C 0.33027 0.44689 0.9957 0.0
C1376 C 0.34938 0.44843 0.97927 0.0
C1377 C 0.35212 0.45196 0.94433 0.0
C1378 C 0.34314 0.44644 0.08943 0.0
C1379 C 0.33725 0.46211 0.10213 0.0
C1380 C 0.3398 0.44035 0.05513 0.0
C1381 C 0.33028 0.44964 0.0331 0.0
C1382 C 0.32308 0.46411 0.04663 0.0
C1383 C 0.32651 0.47023 0.08057 0.0
H1384 H 0.8501 0.3149 0.93206 0.0
H1385 H 0.92205 0.3433 0.91586 0.0
H1386 H 0.85466 0.30915 0.99104 0.0
H1387 H 0.92673 0.33701 0.97565 0.0
H1388 H 0.9241 0.3606 0.08808 0.0
H1389 H 0.92525 0.35533 0.02726 0.0
H1390 H 0.86294 0.29084 0.0346 0.0
H1391 H 0.8614 0.29693 0.09507 0.0
C1392 C 0.86688 0.31937 0.94101 0.0
C1393 C 0.88574 0.32978 0.91937 0.0
C1394 C 0.86951 0.31586 0.97495 0.0
C1395 C 0.89112 0.32267 0.98838 0.0
C1396 C 0.90988 0.33176 0.96624 0.0
C1397 C 0.90719 0.33518 0.93194 0.0
C1398 C 0.91121 0.34491 0.07676 0.0
C1399 C 0.89271 0.32911 0.09603 0.0
C1400 C 0.91181 0.34184 0.04187 0.0
C1401 C 0.89393 0.32285 0.02579 0.0
C1402 C 0.87671 0.30593 0.04596 0.0
C1403 C 0.87592 0.30922 0.08065 0.0
H1404 H 0.57377 0.91867 0.09649 0.0
H1405 H 0.57481 0.85601 0.10373 0.0
H1406 H 0.58105 0.92017 0.03589 0.0
H1407 H 0.58339 0.85795 0.04354 0.0
H1408 H 0.54804 0.84545 0.93993 0.0
H1409 H 0.55755 0.84979 0.99917 0.0
H1410 H 0.60144 0.92201 0.98484 0.0
H1411 H 0.59124 0.91753 0.92472 0.0
C1412 C 0.57675 0.90586 0.0853 0.0
C1413 C 0.57382 0.88726 0.10455 0.0
C1414 C 0.58094 0.90667 0.05054 0.0
C1415 C 0.58236 0.88892 0.03456 0.0
C1416 C 0.58182 0.87162 0.05479 0.0
C1417 C 0.5772 0.8706 0.08934 0.0
C1418 C 0.56011 0.86223 0.94919 0.0
C1419 C 0.56868 0.88118 0.92773 0.0
C1420 C 0.56579 0.86473 0.98329 0.0
C1421 C 0.58025 0.8863 0.99708 0.0
C1422 C 0.59007 0.90517 0.97515 0.0
C1423 C 0.58442 0.90261 0.94068 0.0
H1424 H 0.73105 0.57213 0.09351 0.0
H1425 H 0.66617 0.56858 0.08604 0.0
H1426 H 0.7372 0.57996 0.03306 0.0
H1427 H 0.67157 0.57525 0.02528 0.0
H1428 H 0.68384 0.58454 0.91404 0.0
H1429 H 0.68978 0.59558 0.97382 0.0
H1430 H 0.71958 0.55311 0.98945 0.0
H1431 H 0.71412 0.54269 0.93048 0.0
C1432 C 0.7185 0.57387 0.07901 0.0
C1433 C 0.69826 0.56999 0.09423 0.0
C1434 C 0.72184 0.57806 0.04433 0.0
C1435 C 0.70466 0.57773 0.02404 0.0
C1436 C 0.68526 0.57582 0.03999 0.0
C1437 C 0.68212 0.57201 0.07484 0.0
C1438 C 0.6923 0.5782 0.93018 0.0
C1439 C 0.69832 0.56258 0.91769 0.0
C1440 C 0.69553 0.58435 0.96445 0.0
C1441 C 0.70506 0.57517 0.98665 0.0
C1442 C 0.7125 0.56085 0.9733 0.0
C1443 C 0.70916 0.55465 0.93938 0.0
H1444 H 0.17268 0.72489 0.92595 0.0
H1445 H 0.11016 0.66096 0.93171 0.0
H1446 H 0.17061 0.73061 0.98642 0.0
H1447 H 0.10851 0.66585 0.99256 0.0
H1448 H 0.11075 0.67753 0.10419 0.0
H1449 H 0.10642 0.68376 0.0442 0.0
H1450 H 0.17871 0.71236 0.03014 0.0
H1451 H 0.1829 0.70668 0.08927 0.0
C1452 C 0.15809 0.71244 0.9401 0.0
C1453 C 0.14149 0.6926 0.92437 0.0
C1454 C 0.157 0.71552 0.9748 0.0
C1455 C 0.13968 0.69843 0.99465 0.0
C1456 C 0.12201 0.67946 0.9782 0.0
C1457 C 0.12291 0.67661 0.94331 0.0
C1458 C 0.12571 0.68578 0.08833 0.0
C1459 C 0.14713 0.69142 0.10133 0.0
C1460 C 0.12324 0.68917 0.05394 0.0
C1461 C 0.14218 0.69848 0.03212 0.0
C1462 C 0.16372 0.70548 0.04596 0.0
C1463 C 0.16614 0.702 0.07999 0.0
H1464 H 0.8628 0.57088 0.59443 0.0
H1465 H 0.9248 0.56859 0.58689 0.0
H1466 H 0.86436 0.57868 0.53401 0.0
H1467 H 0.92596 0.5752 0.52612 0.0
H1468 H 0.92292 0.58455 0.41492 0.0
H1469 H 0.92779 0.59541 0.47475 0.0
H1470 H 0.85559 0.55213 0.4902 0.0
H1471 H 0.85085 0.54191 0.43116 0.0
C1472 C 0.87719 0.57286 0.57991 0.0
C1473 C 0.89377 0.56935 0.59512 0.0
C1474 C 0.87798 0.57704 0.54524 0.0
C1475 C 0.895 0.57705 0.52492 0.0
C1476 C 0.91269 0.57549 0.54085 0.0
C1477 C 0.91208 0.57171 0.5757 0.0
C1478 C 0.90808 0.57801 0.43102 0.0
C1479 C 0.88653 0.56223 0.41845 0.0
C1480 C 0.91087 0.58404 0.46534 0.0
C1481 C 0.89212 0.57457 0.48751 0.0
C1482 C 0.87043 0.56009 0.47408 0.0
C1483 C 0.8677 0.55402 0.44011 0.0
H1484 H 0.35071 0.91804 0.6025 0.0
H1485 H 0.32007 0.84573 0.58791 0.0
H1486 H 0.34484 0.92256 0.54245 0.0
H1487 H 0.31472 0.8501 0.5287 0.0
H1488 H 0.3033 0.85662 0.42416 0.0
H1489 H 0.29727 0.85885 0.4845 0.0
H1490 H 0.36284 0.91992 0.49123 0.0
H1491 H 0.36808 0.91813 0.43051 0.0
C1492 C 0.34218 0.90309 0.5867 0.0
C1493 C 0.33603 0.88156 0.59979 0.0
C1494 C 0.33901 0.90567 0.55227 0.0
C1495 C 0.32941 0.88673 0.53051 0.0
C1496 C 0.32185 0.8651 0.54446 0.0
C1497 C 0.32512 0.86257 0.57853 0.0
C1498 C 0.31588 0.87104 0.4384 0.0
C1499 C 0.33603 0.88729 0.42289 0.0
C1500 C 0.31261 0.87221 0.47303 0.0
C1501 C 0.3298 0.88927 0.49302 0.0
C1502 C 0.34914 0.90663 0.47676 0.0
C1503 C 0.35219 0.90565 0.44194 0.0
H1504 H 0.4608 0.36242 0.5891 0.0
H1505 H 0.45799 0.29783 0.59502 0.0
H1506 H 0.45464 0.35773 0.52818 0.0
H1507 H 0.45063 0.29237 0.53443 0.0
H1508 H 0.48803 0.3163 0.43228 0.0
H1509 H 0.47771 0.31067 0.49128 0.0
H1510 H 0.43473 0.33996 0.47623 0.0
H1511 H 0.4457 0.34611 0.41638 0.0
C1512 C 0.45765 0.34668 0.57751 0.0
C1513 C 0.45974 0.33042 0.59652 0.0
C1514 C 0.45413 0.34395 0.54257 0.0
C1515 C 0.45258 0.32485 0.52616 0.0
C1516 C 0.45229 0.30753 0.54605 0.0
C1517 C 0.4562 0.31047 0.58081 0.0
C1518 C 0.47603 0.32117 0.44131 0.0
C1519 C 0.46789 0.33189 0.41973 0.0
C1520 C 0.46987 0.31771 0.47525 0.0
C1521 C 0.45537 0.32489 0.48877 0.0
C1522 C 0.44609 0.3344 0.46673 0.0
C1523 C 0.4522 0.33776 0.43242 0.0
H1524 H 0.18212 0.47953 0.59052 0.0
H1525 H 0.10984 0.43774 0.60556 0.0
H1526 H 0.17769 0.46971 0.53136 0.0
H1527 H 0.10525 0.42725 0.54556 0.0
H1528 H 0.10939 0.45456 0.43351 0.0
H1529 H 0.10774 0.44771 0.49426 0.0
H1530 H 0.16896 0.44346 0.48728 0.0
H1531 H 0.17104 0.45153 0.42688 0.0
C1532 C 0.16527 0.46769 0.58126 0.0
C1533 C 0.14631 0.45961 0.60263 0.0
C1534 C 0.16271 0.46184 0.54721 0.0
C1535 C 0.14106 0.4477 0.53339 0.0
C1536 C 0.12215 0.43836 0.55527 0.0
C1537 C 0.12477 0.44417 0.58968 0.0
C1538 C 0.12193 0.45124 0.4449 0.0
C1539 C 0.14028 0.45345 0.42575 0.0
C1540 C 0.12103 0.44732 0.47974 0.0
C1541 C 0.13847 0.44545 0.49592 0.0
C1542 C 0.15553 0.44534 0.47585 0.0
C1543 C 0.15662 0.44968 0.4412 0.0
H1544 H 0.68452 0.10563 0.41752 0.0
H1545 H 0.71255 0.1773 0.43575 0.0
H1546 H 0.69034 0.10014 0.4772 0.0
H1547 H 0.71794 0.17193 0.49462 0.0
H1548 H 0.73017 0.1638 0.59808 0.0
H1549 H 0.73644 0.16281 0.53753 0.0
H1550 H 0.67144 0.10125 0.52898 0.0
H1551 H 0.66588 0.1019 0.58982 0.0
C1552 C 0.69245 0.12026 0.43404 0.0
C1553 C 0.69789 0.14186 0.42205 0.0
C1554 C 0.69561 0.11711 0.46824 0.0
C1555 C 0.70454 0.13556 0.49088 0.0
C1556 C 0.71135 0.15733 0.47808 0.0
C1557 C 0.70804 0.16041 0.44423 0.0
C1558 C 0.71782 0.14951 0.58339 0.0
C1559 C 0.69768 0.13282 0.59843 0.0
C1560 C 0.72122 0.14905 0.54866 0.0
C1561 C 0.70421 0.13223 0.52816 0.0
C1562 C 0.68498 0.11437 0.54388 0.0
C1563 C 0.68177 0.11467 0.57878 0.0
H1564 H 0.57519 0.66144 0.433 0.0
H1565 H 0.57712 0.72558 0.42644 0.0
H1566 H 0.58161 0.66651 0.4938 0.0
H1567 H 0.58478 0.73147 0.48692 0.0
H1568 H 0.54743 0.70739 0.58918 0.0
H1569 H 0.55797 0.71325 0.53028 0.0
H1570 H 0.60135 0.68444 0.54559 0.0
H1571 H 0.59013 0.67804 0.60533 0.0
C1572 C 0.57822 0.67719 0.44441 0.0
C1573 C 0.57578 0.69318 0.42526 0.0
C1574 C 0.58189 0.68014 0.47929 0.0
C1575 C 0.58327 0.69921 0.49551 0.0
C1576 C 0.58326 0.71632 0.47545 0.0
C1577 C 0.57917 0.71315 0.44075 0.0
C1578 C 0.55959 0.70271 0.58023 0.0
C1579 C 0.56773 0.69201 0.60182 0.0
C1580 C 0.56587 0.7063 0.54634 0.0
C1581 C 0.58051 0.69927 0.53291 0.0
C1582 C 0.58987 0.68986 0.55501 0.0
C1583 C 0.58362 0.68637 0.58926 0.0
H1584 H 0.53578 0.12881 0.18754 0.0
H1585 H 0.53469 0.16121 0.28045 0.0
H1586 H 0.57152 0.13122 0.20423 0.0
H1587 H 0.57004 0.16279 0.29799 0.0
H1588 H 0.61432 0.1305 0.32937 0.0
H1589 H 0.58097 0.13266 0.31207 0.0
H1590 H 0.6131 0.16132 0.21648 0.0
H1591 H 0.64689 0.15984 0.23448 0.0
C1592 C 0.54354 0.13693 0.21122 0.0
C1593 C 0.53313 0.14576 0.23209 0.0
C1594 C 0.56388 0.13818 0.22085 0.0
C1595 C 0.57378 0.14756 0.25215 0.0
C1596 C 0.56297 0.15577 0.27353 0.0
C1597 C 0.54278 0.15487 0.26357 0.0
C1598 C 0.61446 0.13785 0.30504 0.0
C1599 C 0.63345 0.14591 0.28377 0.0
C1600 C 0.59536 0.13898 0.29509 0.0
C1601 C 0.59459 0.14751 0.26316 0.0
C1602 C 0.61335 0.1549 0.24138 0.0
C1603 C 0.63262 0.15406 0.2516 0.0
H1604 H 0.50021 0.6098 0.33516 0.0
H1605 H 0.50005 0.64382 0.24343 0.0
H1606 H 0.46422 0.57658 0.31899 0.0
H1607 H 0.46443 0.61018 0.22642 0.0
H1608 H 0.41947 0.53373 0.19482 0.0
H1609 H 0.45322 0.56897 0.21165 0.0
H1610 H 0.4224 0.56561 0.30836 0.0
H1611 H 0.38808 0.53072 0.29073 0.0
C1612 C 0.49216 0.61028 0.31184 0.0
C1613 C 0.50227 0.62964 0.29118 0.0
C1614 C 0.47167 0.59126 0.30252 0.0
C1615 C 0.46132 0.59096 0.27173 0.0
C1616 C 0.47188 0.61008 0.25049 0.0
C1617 C 0.49221 0.62927 0.26013 0.0
C1618 C 0.41966 0.54095 0.21928 0.0
C1619 C 0.40086 0.53018 0.24095 0.0
C1620 C 0.43901 0.561 0.22897 0.0
C1621 C 0.44026 0.57026 0.26107 0.0
C1622 C 0.42174 0.55902 0.28329 0.0
C1623 C 0.40217 0.53911 0.27329 0.0
H1624 H 0.89928 0.48987 0.32659 0.0
H1625 H 0.86896 0.4921 0.23219 0.0
H1626 H 0.89738 0.45443 0.30958 0.0
H1627 H 0.86783 0.45696 0.21442 0.0
H1628 H 0.86826 0.37922 0.27914 0.0
H1629 H 0.86703 0.41322 0.29636 0.0
H1630 H 0.89806 0.44554 0.20192 0.0
H1631 H 0.90022 0.41201 0.18555 0.0
C1632 C 0.8918 0.48246 0.30244 0.0
C1633 C 0.88334 0.49306 0.28126 0.0
C1634 C 0.89083 0.46229 0.29264 0.0
C1635 C 0.88209 0.45273 0.26092 0.0
C1636 C 0.87439 0.46382 0.23916 0.0
C1637 C 0.87505 0.48386 0.24925 0.0
C1638 C 0.87457 0.39355 0.26205 0.0
C1639 C 0.88344 0.39274 0.23047 0.0
C1640 C 0.87385 0.41295 0.27182 0.0
C1641 C 0.882 0.43182 0.25016 0.0
C1642 C 0.89116 0.43105 0.21877 0.0
C1643 C 0.89225 0.41184 0.20932 0.0
H1644 H 0.49688 0.89403 0.1937 0.0
H1645 H 0.4975 0.86109 0.28634 0.0
H1646 H 0.46087 0.89121 0.21006 0.0
H1647 H 0.46191 0.8592 0.30359 0.0
H1648 H 0.38487 0.86078 0.23985 0.0
H1649 H 0.4188 0.8593 0.22262 0.0
H1650 H 0.45133 0.89072 0.31663 0.0
H1651 H 0.41793 0.89314 0.33299 0.0
C1652 C 0.48898 0.88571 0.21724 0.0
C1653 C 0.49931 0.87682 0.23811 0.0
C1654 C 0.4685 0.88425 0.22668 0.0
C1655 C 0.45842 0.87463 0.25782 0.0
C1656 C 0.46917 0.8664 0.27925 0.0
C1657 C 0.48948 0.8675 0.26946 0.0
C1658 C 0.39923 0.86712 0.25685 0.0
C1659 C 0.39853 0.87619 0.28831 0.0
C1660 C 0.41858 0.86627 0.24706 0.0
C1661 C 0.43748 0.87447 0.26861 0.0
C1662 C 0.4368 0.88378 0.2999 0.0
C1663 C 0.41767 0.88501 0.30934 0.0
H1664 H 0.61515 0.49443 0.18529 0.0
H1665 H 0.64966 0.4942 0.27638 0.0
H1666 H 0.58198 0.45847 0.20184 0.0
H1667 H 0.61606 0.45863 0.2938 0.0
H1668 H 0.5396 0.41395 0.32634 0.0
H1669 H 0.57483 0.44763 0.30911 0.0
H1670 H 0.5711 0.41657 0.21255 0.0
H1671 H 0.53625 0.38231 0.2306 0.0
C1672 C 0.61575 0.48637 0.20854 0.0
C1673 C 0.63523 0.49644 0.22891 0.0
C1674 C 0.59676 0.4659 0.21809 0.0
C1675 C 0.5966 0.45555 0.24881 0.0
C1676 C 0.61585 0.46607 0.26977 0.0
C1677 C 0.63501 0.48638 0.2599 0.0
C1678 C 0.54674 0.41407 0.30184 0.0
C1679 C 0.53588 0.39522 0.28034 0.0
C1680 C 0.56679 0.43337 0.29191 0.0
C1681 C 0.57593 0.43454 0.25973 0.0
C1682 C 0.5646 0.41597 0.23768 0.0
C1683 C 0.54471 0.39644 0.24792 0.0
H1684 H 0.13475 0.60763 0.19443 0.0
H1685 H 0.16401 0.63998 0.28936 0.0
H1686 H 0.13692 0.57426 0.21156 0.0
H1687 H 0.1655 0.60615 0.30721 0.0
H1688 H 0.13348 0.52878 0.33571 0.0
H1689 H 0.13558 0.56444 0.31934 0.0
H1690 H 0.16718 0.56352 0.22527 0.0
H1691 H 0.16599 0.52831 0.24252 0.0
C1692 C 0.14206 0.6077 0.21875 0.0
C1693 C 0.15011 0.62665 0.24006 0.0
C1694 C 0.1432 0.5886 0.2286 0.0
C1695 C 0.15175 0.58777 0.26048 0.0
C1696 C 0.15908 0.60645 0.28234 0.0
C1697 C 0.15823 0.62575 0.27221 0.0
C1698 C 0.14156 0.53666 0.31204 0.0
C1699 C 0.15053 0.52646 0.291 0.0
C1700 C 0.14263 0.55695 0.30258 0.0
C1701 C 0.15194 0.56699 0.2713 0.0
C1702 C 0.16025 0.55636 0.24974 0.0
C1703 C 0.15955 0.53625 0.25953 0.0
H1704 H 0.5007 0.86427 0.73958 0.0
H1705 H 0.49837 0.89438 0.83415 0.0
H1706 H 0.4656 0.8632 0.72183 0.0
H1707 H 0.46304 0.89267 0.81711 0.0
H1708 H 0.388 0.86434 0.78694 0.0
H1709 H 0.42211 0.86343 0.80449 0.0
H1710 H 0.45366 0.89229 0.70866 0.0
H1711 H 0.41997 0.89396 0.69185 0.0
C1712 C 0.49246 0.87034 0.75667 0.0
C1713 C 0.50162 0.87856 0.7887 0.0
C1714 C 0.47242 0.86973 0.7466 0.0
C1715 C 0.46132 0.87741 0.76839 0.0
C1716 C 0.47088 0.88611 0.80012 0.0
C1717 C 0.49101 0.887 0.80992 0.0
C1718 C 0.40221 0.87029 0.76967 0.0
C1719 C 0.40112 0.87836 0.73758 0.0
C1720 C 0.42169 0.86975 0.77962 0.0
C1721 C 0.44038 0.87733 0.75765 0.0
C1722 C 0.43934 0.88581 0.7258 0.0
C1723 C 0.42005 0.88666 0.71612 0.0
H1724 H 0.64649 0.49224 0.73126 0.0
H1725 H 0.61457 0.48989 0.82641 0.0
H1726 H 0.61251 0.4569 0.71405 0.0
H1727 H 0.58109 0.45428 0.80994 0.0
H1728 H 0.53464 0.37913 0.77956 0.0
H1729 H 0.57011 0.41301 0.79641 0.0
H1730 H 0.5708 0.44556 0.7025 0.0
H1731 H 0.53496 0.41214 0.6865 0.0
C1732 C 0.63234 0.48392 0.74862 0.0
C1733 C 0.63339 0.49317 0.78064 0.0
C1734 C 0.61296 0.46376 0.73885 0.0
C1735 C 0.59436 0.45261 0.76096 0.0
C1736 C 0.59536 0.46218 0.79273 0.0
C1737 C 0.61454 0.48246 0.80221 0.0
C1738 C 0.54258 0.39349 0.76252 0.0
C1739 C 0.53269 0.39278 0.73118 0.0
C1740 C 0.56283 0.41282 0.77207 0.0
C1741 C 0.57346 0.43172 0.75042 0.0
C1742 C 0.5633 0.43104 0.7193 0.0
C1743 C 0.5429 0.41191 0.71007 0.0
H1744 H 0.13411 0.61035 0.83487 0.0
H1745 H 0.16634 0.64269 0.74118 0.0
H1746 H 0.13597 0.5766 0.81891 0.0
H1747 H 0.16729 0.60847 0.72436 0.0
H1748 H 0.13454 0.53172 0.69464 0.0
H1749 H 0.13693 0.56744 0.71123 0.0
H1750 H 0.16567 0.56456 0.80698 0.0
H1751 H 0.16396 0.52905 0.78967 0.0
C1752 C 0.14208 0.61037 0.81117 0.0
C1753 C 0.15104 0.62941 0.78987 0.0
C1754 C 0.143 0.59103 0.80196 0.0
C1755 C 0.15217 0.59006 0.77066 0.0
C1756 C 0.16047 0.60888 0.74885 0.0
C1757 C 0.15991 0.62841 0.75838 0.0
C1758 C 0.14193 0.53908 0.71886 0.0
C1759 C 0.14997 0.52825 0.74036 0.0
C1760 C 0.1432 0.55943 0.72841 0.0
C1761 C 0.15185 0.56898 0.76015 0.0
C1762 C 0.15917 0.5577 0.7822 0.0
C1763 C 0.15819 0.53745 0.77239 0.0
H1764 H 0.61415 0.12495 0.68846 0.0
H1765 H 0.64797 0.15968 0.77991 0.0
H1766 H 0.58069 0.12736 0.70452 0.0
H1767 H 0.61404 0.16114 0.79692 0.0
H1768 H 0.53463 0.15762 0.73239 0.0
H1769 H 0.5696 0.15827 0.71492 0.0
H1770 H 0.57273 0.13074 0.81163 0.0
H1771 H 0.53736 0.12913 0.82831 0.0
C1772 C 0.61454 0.13354 0.71168 0.0
C1773 C 0.63392 0.14308 0.73226 0.0
C1774 C 0.59538 0.13478 0.72096 0.0
C1775 C 0.59494 0.14483 0.75166 0.0
C1776 C 0.61406 0.15363 0.77287 0.0
C1777 C 0.63341 0.15277 0.76323 0.0
C1778 C 0.54297 0.1519 0.74986 0.0
C1779 C 0.53395 0.14423 0.78217 0.0
C1780 C 0.56293 0.15229 0.73995 0.0
C1781 C 0.57413 0.14503 0.76222 0.0
C1782 C 0.56478 0.13696 0.79428 0.0
C1783 C 0.54465 0.13618 0.80389 0.0
H1784 H 0.38448 0.52858 0.74168 0.0
H1785 H 0.41752 0.5291 0.83476 0.0
H1786 H 0.41841 0.56392 0.72448 0.0
H1787 H 0.45098 0.56485 0.81842 0.0
H1788 H 0.49782 0.64041 0.78883 0.0
H1789 H 0.46246 0.60654 0.80643 0.0
H1790 H 0.45962 0.57477 0.71084 0.0
H1791 H 0.49523 0.60816 0.69397 0.0
C1792 C 0.39885 0.53655 0.75866 0.0
C1793 C 0.39813 0.52675 0.79009 0.0
C1794 C 0.41821 0.55673 0.74891 0.0
C1795 C 0.43714 0.56739 0.77045 0.0
C1796 C 0.43645 0.55732 0.80168 0.0
C1797 C 0.41729 0.53698 0.81111 0.0
C1798 C 0.48945 0.62621 0.77163 0.0
C1799 C 0.49863 0.62714 0.73957 0.0
C1800 C 0.46928 0.60689 0.78161 0.0
C1801 C 0.45806 0.58822 0.7597 0.0
C1802 C 0.46758 0.5891 0.7279 0.0
C1803 C 0.48786 0.60822 0.7182 0.0
H1804 H 0.89898 0.41492 0.82691 0.0
H1805 H 0.86872 0.38229 0.73255 0.0
H1806 H 0.89728 0.44852 0.80959 0.0
H1807 H 0.86782 0.41637 0.71446 0.0
H1808 H 0.9007 0.49376 0.6853 0.0
H1809 H 0.89831 0.458 0.70194 0.0
H1810 H 0.86699 0.4595 0.79596 0.0
H1811 H 0.86844 0.49478 0.77846 0.0
C1812 C 0.89155 0.41483 0.80269 0.0
C1813 C 0.88304 0.39574 0.78161 0.0
C1814 C 0.8907 0.43407 0.79272 0.0
C1815 C 0.88204 0.43489 0.76093 0.0
C1816 C 0.87431 0.41607 0.73927 0.0
C1817 C 0.87483 0.39663 0.74953 0.0
C1818 C 0.89261 0.48598 0.70902 0.0
C1819 C 0.88378 0.49635 0.72997 0.0
C1820 C 0.8914 0.46565 0.71863 0.0
C1821 C 0.88209 0.45575 0.74999 0.0
C1822 C 0.87393 0.46656 0.77146 0.0
C1823 C 0.87477 0.48671 0.76152 0.0
loop_
_geom_bond_atom_site_label_1
_geom_bond_atom_site_label_2
_geom_bond_distance
_geom_bond_site_symmetry_2
_ccdc_geom_bond_type
Mn0 O5 2.095 . S
Mn0 O15 2.162 . S
Mn0 O16 2.297 . S
Mn0 O24 2.385 . S
Mn0 O25 2.209 . S
Mn0 O26 2.094 . S
Mn1 O6 2.121 . S
Mn1 N8 2.257 . S
Mn1 N17 2.282 . S
Mn1 O25 2.215 . S
Mn1 O27 2.117 . S
C2 O24 1.234 . S
C2 O25 1.283 . S
C3 O15 1.281 . S
C3 O16 1.236 . S
C4 O26 1.240 . S
C4 O27 1.264 . S
O5 Mn0 2.095 . S
O5 C14 1.250 . S
O6 Mn1 2.121 . S
O6 C14 1.258 . S
C7 N8 1.326 . S
C7 C11 1.460 . S
C7 H13 0.929 . S
N8 Mn1 2.257 . S
N8 C7 1.326 . S
N8 C12 1.362 . S
C9 C10 1.258 . S
C9 C12 1.431 . S
C9 C29 1.449 . S
C10 C9 1.258 . S
C10 C11 1.477 . S
C10 H30 0.931 . S
C11 C7 1.460 . S
C11 C10 1.477 . S
C11 H31 0.930 . S
C12 N8 1.362 . S
C12 C9 1.431 . S
C12 C22 1.476 . S
H13 C7 0.929 . S
C14 O5 1.250 . S
C14 O6 1.258 . S
O15 Mn0 2.162 . S
O15 C3 1.281 . S
O16 Mn0 2.297 . S
O16 C3 1.236 . S
N17 Mn1 2.282 . S
N17 C18 1.328 . S
N17 C22 1.318 . S
C18 N17 1.328 . S
C18 C19 1.457 . S
C18 H23 0.929 . S
C19 C18 1.457 . S
C19 C20 1.291 . S
C19 H32 0.931 . S
C20 C19 1.291 . S
C20 C21 1.373 . S
C20 H33 0.929 . S
C21 C20 1.373 . S
C21 C22 1.396 . S
C21 C28 1.403 . S
C22 C12 1.476 . S
C22 N17 1.318 . S
C22 C21 1.396 . S
H23 C18 0.929 . S
O24 Mn0 2.385 . S
O24 C2 1.234 . S
O25 Mn0 2.209 . S
O25 Mn1 2.215 . S
O25 C2 1.283 . S
O26 Mn0 2.094 . S
O26 C4 1.240 . S
O27 Mn1 2.117 . S
O27 C4 1.264 . S
C28 C21 1.403 . S
C28 C29 1.399 . S
C28 H34 0.929 . S
C29 C9 1.449 . S
C29 C28 1.399 . S
C29 H35 0.930 . S
H30 C10 0.931 . S
H31 C11 0.930 . S
H32 C19 0.931 . S
H33 C20 0.929 . S
H34 C28 0.929 . S
H35 C29 0.930 . S
Mn36 O41 2.095 . S
Mn36 O51 2.162 . S
Mn36 O52 2.297 . S
Mn36 O60 2.385 . S
Mn36 O61 2.209 . S
Mn36 O62 2.094 . S
Mn37 O42 2.121 . S
Mn37 N44 2.257 . S
Mn37 N53 2.282 . S
Mn37 O61 2.215 . S
Mn37 O63 2.117 . S
C38 O60 1.234 . S
C38 O61 1.283 . S
C39 O51 1.281 . S
C39 O52 1.236 . S
C40 O62 1.240 . S
C40 O63 1.264 . S
O41 Mn36 2.095 . S
O41 C50 1.250 . S
O42 Mn37 2.121 . S
O42 C50 1.258 . S
C43 N44 1.326 . S
C43 C47 1.460 . S
C43 H49 0.929 . S
N44 Mn37 2.257 . S
N44 C43 1.326 . S
N44 C48 1.362 . S
C45 C46 1.258 . S
C45 C48 1.431 . S
C45 C65 1.449 . S
C46 C45 1.258 . S
C46 C47 1.477 . S
C46 H66 0.931 . S
C47 C43 1.460 . S
C47 C46 1.477 . S
C47 H67 0.930 . S
C48 N44 1.362 . S
C48 C45 1.431 . S
C48 C58 1.476 . S
H49 C43 0.929 . S
C50 O41 1.250 . S
C50 O42 1.258 . S
O51 Mn36 2.162 . S
O51 C39 1.281 . S
O52 Mn36 2.297 . S
O52 C39 1.236 . S
N53 Mn37 2.282 . S
N53 C54 1.328 . S
N53 C58 1.318 . S
C54 N53 1.328 . S
C54 C55 1.457 . S
C54 H59 0.929 . S
C55 C54 1.457 . S
C55 C56 1.291 . S
C55 H68 0.931 . S
C56 C55 1.291 . S
C56 C57 1.373 . S
C56 H69 0.929 . S
C57 C56 1.373 . S
C57 C58 1.396 . S
C57 C64 1.403 . S
C58 C48 1.476 . S
C58 N53 1.318 . S
C58 C57 1.396 . S
H59 C54 0.929 . S
O60 Mn36 2.385 . S
O60 C38 1.234 . S
O61 Mn36 2.209 . S
O61 Mn37 2.215 . S
O61 C38 1.283 . S
O62 Mn36 2.094 . S
O62 C40 1.240 . S
O63 Mn37 2.117 . S
O63 C40 1.264 . S
C64 C57 1.403 . S
C64 C65 1.399 . S
C64 H70 0.929 . S
C65 C45 1.449 . S
C65 C64 1.399 . S
C65 H71 0.930 . S
H66 C46 0.931 . S
H67 C47 0.930 . S
H68 C55 0.931 . S
H69 C56 0.929 . S
H70 C64 0.929 . S
H71 C65 0.930 . S
Mn72 O77 2.095 . S
Mn72 O87 2.162 . S
Mn72 O88 2.297 . S
Mn72 O96 2.385 . S
Mn72 O97 2.209 . S
Mn72 O98 2.094 . S
Mn73 O78 2.121 . S
Mn73 N80 2.257 . S
Mn73 N89 2.282 . S
Mn73 O97 2.215 . S
Mn73 O99 2.117 . S
C74 O96 1.234 . S
C74 O97 1.283 . S
C75 O87 1.281 . S
C75 O88 1.236 . S
C76 O98 1.240 . S
C76 O99 1.264 . S
O77 Mn72 2.095 . S
O77 C86 1.250 . S
O78 Mn73 2.121 . S
O78 C86 1.258 . S
C79 N80 1.326 . S
C79 C83 1.460 . S
C79 H85 0.929 . S
N80 Mn73 2.257 . S
N80 C79 1.326 . S
N80 C84 1.362 . S
C81 C82 1.258 . S
C81 C84 1.431 . S
C81 C101 1.449 . S
C82 C81 1.258 . S
C82 C83 1.477 . S
C82 H102 0.931 . S
C83 C79 1.460 . S
C83 C82 1.477 . S
C83 H103 0.930 . S
C84 N80 1.362 . S
C84 C81 1.431 . S
C84 C94 1.476 . S
H85 C79 0.929 . S
C86 O77 1.250 . S
C86 O78 1.258 . S
O87 Mn72 2.162 . S
O87 C75 1.281 . S
O88 Mn72 2.297 . S
O88 C75 1.236 . S
N89 Mn73 2.282 . S
N89 C90 1.328 . S
N89 C94 1.318 . S
C90 N89 1.328 . S
C90 C91 1.457 . S
C90 H95 0.929 . S
C91 C90 1.457 . S
C91 C92 1.291 . S
C91 H104 0.931 . S
C92 C91 1.291 . S
C92 C93 1.373 . S
C92 H105 0.929 . S
C93 C92 1.373 . S
C93 C94 1.396 . S
C93 C100 1.403 . S
C94 C84 1.476 . S
C94 N89 1.318 . S
C94 C93 1.396 . S
H95 C90 0.929 . S
O96 Mn72 2.385 . S
O96 C74 1.234 . S
O97 Mn72 2.209 . S
O97 Mn73 2.215 . S
O97 C74 1.283 . S
O98 Mn72 2.094 . S
O98 C76 1.240 . S
O99 Mn73 2.117 . S
O99 C76 1.264 . S
C100 C93 1.403 . S
C100 C101 1.399 . S
C100 H106 0.929 . S
C101 C81 1.449 . S
C101 C100 1.399 . S
C101 H107 0.930 . S
H102 C82 0.931 . S
H103 C83 0.930 . S
H104 C91 0.931 . S
H105 C92 0.929 . S
H106 C100 0.929 . S
H107 C101 0.930 . S
Mn108 O113 2.095 . S
Mn108 O123 2.162 . S
Mn108 O124 2.297 . S
Mn108 O132 2.385 . S
Mn108 O133 2.209 . S
Mn108 O134 2.094 . S
Mn109 O114 2.121 . S
Mn109 N116 2.257 . S
Mn109 N125 2.282 . S
Mn109 O133 2.215 . S
Mn109 O135 2.117 . S
C110 O132 1.234 . S
C110 O133 1.283 . S
C111 O123 1.281 . S
C111 O124 1.236 . S
C112 O134 1.240 . S
C112 O135 1.264 . S
O113 Mn108 2.095 . S
O113 C122 1.250 . S
O114 Mn109 2.121 . S
O114 C122 1.258 . S
C115 N116 1.326 . S
C115 C119 1.460 . S
C115 H121 0.929 . S
N116 Mn109 2.257 . S
N116 C115 1.326 . S
N116 C120 1.362 . S
C117 C118 1.258 . S
C117 C120 1.431 . S
C117 C137 1.449 . S
C118 C117 1.258 . S
C118 C119 1.477 . S
C118 H138 0.931 . S
C119 C115 1.460 . S
C119 C118 1.477 . S
C119 H139 0.930 . S
C120 N116 1.362 . S
C120 C117 1.431 . S
C120 C130 1.476 . S
H121 C115 0.929 . S
C122 O113 1.250 . S
C122 O114 1.258 . S
O123 Mn108 2.162 . S
O123 C111 1.281 . S
O124 Mn108 2.297 . S
O124 C111 1.236 . S
N125 Mn109 2.282 . S
N125 C126 1.328 . S
N125 C130 1.318 . S
C126 N125 1.328 . S
C126 C127 1.457 . S
C126 H131 0.929 . S
C127 C126 1.457 . S
C127 C128 1.291 . S
C127 H140 0.931 . S
C128 C127 1.291 . S
C128 C129 1.373 . S
C128 H141 0.929 . S
C129 C128 1.373 . S
C129 C130 1.396 . S
C129 C136 1.403 . S
C130 C120 1.476 . S
C130 N125 1.318 . S
C130 C129 1.396 . S
H131 C126 0.929 . S
O132 Mn108 2.385 . S
O132 C110 1.234 . S
O133 Mn108 2.209 . S
O133 Mn109 2.215 . S
O133 C110 1.283 . S
O134 Mn108 2.094 . S
O134 C112 1.240 . S
O135 Mn109 2.117 . S
O135 C112 1.264 . S
C136 C129 1.403 . S
C136 C137 1.399 . S
C136 H142 0.929 . S
C137 C117 1.449 . S
C137 C136 1.399 . S
C137 H143 0.930 . S
H138 C118 0.931 . S
H139 C119 0.930 . S
H140 C127 0.931 . S
H141 C128 0.929 . S
H142 C136 0.929 . S
H143 C137 0.930 . S
Mn144 O149 2.095 . S
Mn144 O159 2.162 . S
Mn144 O160 2.297 . S
Mn144 O168 2.385 . S
Mn144 O169 2.209 . S
Mn144 O170 2.094 . S
Mn145 O150 2.121 . S
Mn145 N152 2.257 . S
Mn145 N161 2.282 . S
Mn145 O169 2.215 . S
Mn145 O171 2.117 . S
C146 O168 1.234 . S
C146 O169 1.283 . S
C147 O159 1.281 . S
C147 O160 1.236 . S
C148 O170 1.240 . S
C148 O171 1.264 . S
O149 Mn144 2.095 . S
O149 C158 1.250 . S
O150 Mn145 2.121 . S
O150 C158 1.258 . S
C151 N152 1.326 . S
C151 C155 1.460 . S
C151 H157 0.929 . S
N152 Mn145 2.257 . S
N152 C151 1.326 . S
N152 C156 1.362 . S
C153 C154 1.258 . S
C153 C156 1.431 . S
C153 C173 1.449 . S
C154 C153 1.258 . S
C154 C155 1.477 . S
C154 H174 0.931 . S
C155 C151 1.460 . S
C155 C154 1.477 . S
C155 H175 0.930 . S
C156 N152 1.362 . S
C156 C153 1.431 . S
C156 C166 1.476 . S
H157 C151 0.929 . S
C158 O149 1.250 . S
C158 O150 1.258 . S
O159 Mn144 2.162 . S
O159 C147 1.281 . S
O160 Mn144 2.297 . S
O160 C147 1.236 . S
N161 Mn145 2.282 . S
N161 C162 1.328 . S
N161 C166 1.318 . S
C162 N161 1.328 . S
C162 C163 1.457 . S
C162 H167 0.929 . S
C163 C162 1.457 . S
C163 C164 1.291 . S
C163 H176 0.931 . S
C164 C163 1.291 . S
C164 C165 1.373 . S
C164 H177 0.929 . S
C165 C164 1.373 . S
C165 C166 1.396 . S
C165 C172 1.403 . S
C166 C156 1.476 . S
C166 N161 1.318 . S
C166 C165 1.396 . S
H167 C162 0.929 . S
O168 Mn144 2.385 . S
O168 C146 1.234 . S
O169 Mn144 2.209 . S
O169 Mn145 2.215 . S
O169 C146 1.283 . S
O170 Mn144 2.094 . S
O170 C148 1.240 . S
O171 Mn145 2.117 . S
O171 C148 1.264 . S
C172 C165 1.403 . S
C172 C173 1.399 . S
C172 H178 0.929 . S
C173 C153 1.449 . S
C173 C172 1.399 . S
C173 H179 0.930 . S
H174 C154 0.931 . S
H175 C155 0.930 . S
H176 C163 0.931 . S
H177 C164 0.929 . S
H178 C172 0.929 . S
H179 C173 0.930 . S
Mn180 O185 2.095 . S
Mn180 O195 2.162 . S
Mn180 O196 2.297 . S
Mn180 O204 2.385 . S
Mn180 O205 2.209 . S
Mn180 O206 2.094 . S
Mn181 O186 2.121 . S
Mn181 N188 2.257 . S
Mn181 N197 2.282 . S
Mn181 O205 2.215 . S
Mn181 O207 2.117 . S
C182 O204 1.234 . S
C182 O205 1.283 . S
C183 O195 1.281 . S
C183 O196 1.236 . S
C184 O206 1.240 . S
C184 O207 1.264 . S
O185 Mn180 2.095 . S
O185 C194 1.250 . S
O186 Mn181 2.121 . S
O186 C194 1.258 . S
C187 N188 1.326 . S
C187 C191 1.460 . S
C187 H193 0.929 . S
N188 Mn181 2.257 . S
N188 C187 1.326 . S
N188 C192 1.362 . S
C189 C190 1.258 . S
C189 C192 1.431 . S
C189 C209 1.449 . S
C190 C189 1.258 . S
C190 C191 1.477 . S
C190 H210 0.931 . S
C191 C187 1.460 . S
C191 C190 1.477 . S
C191 H211 0.930 . S
C192 N188 1.362 . S
C192 C189 1.431 . S
C192 C202 1.476 . S
H193 C187 0.929 . S
C194 O185 1.250 . S
C194 O186 1.258 . S
O195 Mn180 2.162 . S
O195 C183 1.281 . S
O196 Mn180 2.297 . S
O196 C183 1.236 . S
N197 Mn181 2.282 . S
N197 C198 1.328 . S
N197 C202 1.318 . S
C198 N197 1.328 . S
C198 C199 1.457 . S
C198 H203 0.929 . S
C199 C198 1.457 . S
C199 C200 1.291 . S
C199 H212 0.931 . S
C200 C199 1.291 . S
C200 C201 1.373 . S
C200 H213 0.929 . S
C201 C200 1.373 . S
C201 C202 1.396 . S
C201 C208 1.403 . S
C202 C192 1.476 . S
C202 N197 1.318 . S
C202 C201 1.396 . S
H203 C198 0.929 . S
O204 Mn180 2.385 . S
O204 C182 1.234 . S
O205 Mn180 2.209 . S
O205 Mn181 2.215 . S
O205 C182 1.283 . S
O206 Mn180 2.094 . S
O206 C184 1.240 . S
O207 Mn181 2.117 . S
O207 C184 1.264 . S
C208 C201 1.403 . S
C208 C209 1.399 . S
C208 H214 0.929 . S
C209 C189 1.449 . S
C209 C208 1.399 . S
C209 H215 0.930 . S
H210 C190 0.931 . S
H211 C191 0.930 . S
H212 C199 0.931 . S
H213 C200 0.929 . S
H214 C208 0.929 . S
H215 C209 0.930 . S
Mn216 O221 2.095 . S
Mn216 O231 2.162 . S
Mn216 O232 2.297 . S
Mn216 O240 2.385 . S
Mn216 O241 2.209 . S
Mn216 O242 2.094 . S
Mn217 O222 2.121 . S
Mn217 N224 2.257 . S
Mn217 N233 2.282 . S
Mn217 O241 2.215 . S
Mn217 O243 2.117 . S
C218 O240 1.234 . S
C218 O241 1.283 . S
C219 O231 1.281 . S
C219 O232 1.236 . S
C220 O242 1.240 . S
C220 O243 1.264 . S
O221 Mn216 2.095 . S
O221 C230 1.250 . S
O222 Mn217 2.121 . S
O222 C230 1.258 . S
C223 N224 1.326 . S
C223 C227 1.460 . S
C223 H229 0.929 . S
N224 Mn217 2.257 . S
N224 C223 1.326 . S
N224 C228 1.362 . S
C225 C226 1.258 . S
C225 C228 1.431 . S
C225 C245 1.449 . S
C226 C225 1.258 . S
C226 C227 1.477 . S
C226 H246 0.931 . S
C227 C223 1.460 . S
C227 C226 1.477 . S
C227 H247 0.930 . S
C228 N224 1.362 . S
C228 C225 1.431 . S
C228 C238 1.476 . S
H229 C223 0.929 . S
C230 O221 1.250 . S
C230 O222 1.258 . S
O231 Mn216 2.162 . S
O231 C219 1.281 . S
O232 Mn216 2.297 . S
O232 C219 1.236 . S
N233 Mn217 2.282 . S
N233 C234 1.328 . S
N233 C238 1.318 . S
C234 N233 1.328 . S
C234 C235 1.457 . S
C234 H239 0.929 . S
C235 C234 1.457 . S
C235 C236 1.291 . S
C235 H248 0.931 . S
C236 C235 1.291 . S
C236 C237 1.373 . S
C236 H249 0.929 . S
C237 C236 1.373 . S
C237 C238 1.396 . S
C237 C244 1.403 . S
C238 C228 1.476 . S
C238 N233 1.318 . S
C238 C237 1.396 . S
H239 C234 0.929 . S
O240 Mn216 2.385 . S
O240 C218 1.234 . S
O241 Mn216 2.209 . S
O241 Mn217 2.215 . S
O241 C218 1.283 . S
O242 Mn216 2.094 . S
O242 C220 1.240 . S
O243 Mn217 2.117 . S
O243 C220 1.264 . S
C244 C237 1.403 . S
C244 C245 1.399 . S
C244 H250 0.929 . S
C245 C225 1.449 . S
C245 C244 1.399 . S
C245 H251 0.930 . S
H246 C226 0.931 . S
H247 C227 0.930 . S
H248 C235 0.931 . S
H249 C236 0.929 . S
H250 C244 0.929 . S
H251 C245 0.930 . S
Mn252 O257 2.095 . S
Mn252 O267 2.162 . S
Mn252 O268 2.297 . S
Mn252 O276 2.385 . S
Mn252 O277 2.209 . S
Mn252 O278 2.094 . S
Mn253 O258 2.121 . S
Mn253 N260 2.257 . S
Mn253 N269 2.282 . S
Mn253 O277 2.215 . S
Mn253 O279 2.117 . S
C254 O276 1.234 . S
C254 O277 1.283 . S
C255 O267 1.281 . S
C255 O268 1.236 . S
C256 O278 1.240 . S
C256 O279 1.264 . S
O257 Mn252 2.095 . S
O257 C266 1.250 . S
O258 Mn253 2.121 . S
O258 C266 1.258 . S
C259 N260 1.326 . S
C259 C263 1.460 . S
C259 H265 0.929 . S
N260 Mn253 2.257 . S
N260 C259 1.326 . S
N260 C264 1.362 . S
C261 C262 1.258 . S
C261 C264 1.431 . S
C261 C281 1.449 . S
C262 C261 1.258 . S
C262 C263 1.477 . S
C262 H282 0.931 . S
C263 C259 1.460 . S
C263 C262 1.477 . S
C263 H283 0.930 . S
C264 N260 1.362 . S
C264 C261 1.431 . S
C264 C274 1.476 . S
H265 C259 0.929 . S
C266 O257 1.250 . S
C266 O258 1.258 . S
O267 Mn252 2.162 . S
O267 C255 1.281 . S
O268 Mn252 2.297 . S
O268 C255 1.236 . S
N269 Mn253 2.282 . S
N269 C270 1.328 . S
N269 C274 1.318 . S
C270 N269 1.328 . S
C270 C271 1.457 . S
C270 H275 0.929 . S
C271 C270 1.457 . S
C271 C272 1.291 . S
C271 H284 0.931 . S
C272 C271 1.291 . S
C272 C273 1.373 . S
C272 H285 0.929 . S
C273 C272 1.373 . S
C273 C274 1.396 . S
C273 C280 1.403 . S
C274 C264 1.476 . S
C274 N269 1.318 . S
C274 C273 1.396 . S
H275 C270 0.929 . S
O276 Mn252 2.385 . S
O276 C254 1.234 . S
O277 Mn252 2.209 . S
O277 Mn253 2.215 . S
O277 C254 1.283 . S
O278 Mn252 2.094 . S
O278 C256 1.240 . S
O279 Mn253 2.117 . S
O279 C256 1.264 . S
C280 C273 1.403 . S
C280 C281 1.399 . S
C280 H286 0.929 . S
C281 C261 1.449 . S
C281 C280 1.399 . S
C281 H287 0.930 . S
H282 C262 0.931 . S
H283 C263 0.930 . S
H284 C271 0.931 . S
H285 C272 0.929 . S
H286 C280 0.929 . S
H287 C281 0.930 . S
Mn288 O293 2.095 . S
Mn288 O303 2.162 . S
Mn288 O304 2.297 . S
Mn288 O312 2.385 . S
Mn288 O313 2.209 . S
Mn288 O314 2.094 . S
Mn289 O294 2.121 . S
Mn289 N296 2.257 . S
Mn289 N305 2.282 . S
Mn289 O313 2.215 . S
Mn289 O315 2.117 . S
C290 O312 1.234 . S
C290 O313 1.283 . S
C291 O303 1.281 . S
C291 O304 1.236 . S
C292 O314 1.240 . S
C292 O315 1.264 . S
O293 Mn288 2.095 . S
O293 C302 1.250 . S
O294 Mn289 2.121 . S
O294 C302 1.258 . S
C295 N296 1.326 . S
C295 C299 1.460 . S
C295 H301 0.929 . S
N296 Mn289 2.257 . S
N296 C295 1.326 . S
N296 C300 1.362 . S
C297 C298 1.258 . S
C297 C300 1.431 . S
C297 C317 1.449 . S
C298 C297 1.258 . S
C298 C299 1.477 . S
C298 H318 0.931 . S
C299 C295 1.460 . S
C299 C298 1.477 . S
C299 H319 0.930 . S
C300 N296 1.362 . S
C300 C297 1.431 . S
C300 C310 1.476 . S
H301 C295 0.929 . S
C302 O293 1.250 . S
C302 O294 1.258 . S
O303 Mn288 2.162 . S
O303 C291 1.281 . S
O304 Mn288 2.297 . S
O304 C291 1.236 . S
N305 Mn289 2.282 . S
N305 C306 1.328 . S
N305 C310 1.318 . S
C306 N305 1.328 . S
C306 C307 1.457 . S
C306 H311 0.929 . S
C307 C306 1.457 . S
C307 C308 1.291 . S
C307 H320 0.931 . S
C308 C307 1.291 . S
C308 C309 1.373 . S
C308 H321 0.929 . S
C309 C308 1.373 . S
C309 C310 1.396 . S
C309 C316 1.403 . S
C310 C300 1.476 . S
C310 N305 1.318 . S
C310 C309 1.396 . S
H311 C306 0.929 . S
O312 Mn288 2.385 . S
O312 C290 1.234 . S
O313 Mn288 2.209 . S
O313 Mn289 2.215 . S
O313 C290 1.283 . S
O314 Mn288 2.094 . S
O314 C292 1.240 . S
O315 Mn289 2.117 . S
O315 C292 1.264 . S
C316 C309 1.403 . S
C316 C317 1.399 . S
C316 H322 0.929 . S
C317 C297 1.449 . S
C317 C316 1.399 . S
C317 H323 0.930 . S
H318 C298 0.931 . S
H319 C299 0.930 . S
H320 C307 0.931 . S
H321 C308 0.929 . S
H322 C316 0.929 . S
H323 C317 0.930 . S
Mn324 O329 2.095 . S
Mn324 O339 2.162 . S
Mn324 O340 2.297 . S
Mn324 O348 2.385 . S
Mn324 O349 2.209 . S
Mn324 O350 2.094 . S
Mn325 O330 2.121 . S
Mn325 N332 2.257 . S
Mn325 N341 2.282 . S
Mn325 O349 2.215 . S
Mn325 O351 2.117 . S
C326 O348 1.234 . S
C326 O349 1.283 . S
C327 O339 1.281 . S
C327 O340 1.236 . S
C328 O350 1.240 . S
C328 O351 1.264 . S
O329 Mn324 2.095 . S
O329 C338 1.250 . S
O330 Mn325 2.121 . S
O330 C338 1.258 . S
C331 N332 1.326 . S
C331 C335 1.460 . S
C331 H337 0.929 . S
N332 Mn325 2.257 . S
N332 C331 1.326 . S
N332 C336 1.362 . S
C333 C334 1.258 . S
C333 C336 1.431 . S
C333 C353 1.449 . S
C334 C333 1.258 . S
C334 C335 1.477 . S
C334 H354 0.931 . S
C335 C331 1.460 . S
C335 C334 1.477 . S
C335 H355 0.930 . S
C336 N332 1.362 . S
C336 C333 1.431 . S
C336 C346 1.476 . S
H337 C331 0.929 . S
C338 O329 1.250 . S
C338 O330 1.258 . S
O339 Mn324 2.162 . S
O339 C327 1.281 . S
O340 Mn324 2.297 . S
O340 C327 1.236 . S
N341 Mn325 2.282 . S
N341 C342 1.328 . S
N341 C346 1.318 . S
C342 N341 1.328 . S
C342 C343 1.457 . S
C342 H347 0.929 . S
C343 C342 1.457 . S
C343 C344 1.291 . S
C343 H356 0.931 . S
C344 C343 1.291 . S
C344 C345 1.373 . S
C344 H357 0.929 . S
C345 C344 1.373 . S
C345 C346 1.396 . S
C345 C352 1.403 . S
C346 C336 1.476 . S
C346 N341 1.318 . S
C346 C345 1.396 . S
H347 C342 0.929 . S
O348 Mn324 2.385 . S
O348 C326 1.234 . S
O349 Mn324 2.209 . S
O349 Mn325 2.215 . S
O349 C326 1.283 . S
O350 Mn324 2.094 . S
O350 C328 1.240 . S
O351 Mn325 2.117 . S
O351 C328 1.264 . S
C352 C345 1.403 . S
C352 C353 1.399 . S
C352 H358 0.929 . S
C353 C333 1.449 . S
C353 C352 1.399 . S
C353 H359 0.930 . S
H354 C334 0.931 . S
H355 C335 0.930 . S
H356 C343 0.931 . S
H357 C344 0.929 . S
H358 C352 0.929 . S
H359 C353 0.930 . S
Mn360 O365 2.095 . S
Mn360 O375 2.162 . S
Mn360 O376 2.297 . S
Mn360 O384 2.385 . S
Mn360 O385 2.209 . S
Mn360 O386 2.094 . S
Mn361 O366 2.121 . S
Mn361 N368 2.257 . S
Mn361 N377 2.282 . S
Mn361 O385 2.215 . S
Mn361 O387 2.117 . S
C362 O384 1.234 . S
C362 O385 1.283 . S
C363 O375 1.281 . S
C363 O376 1.236 . S
C364 O386 1.240 . S
C364 O387 1.264 . S
O365 Mn360 2.095 . S
O365 C374 1.250 . S
O366 Mn361 2.121 . S
O366 C374 1.258 . S
C367 N368 1.326 . S
C367 C371 1.460 . S
C367 H373 0.929 . S
N368 Mn361 2.257 . S
N368 C367 1.326 . S
N368 C372 1.362 . S
C369 C370 1.258 . S
C369 C372 1.431 . S
C369 C389 1.449 . S
C370 C369 1.258 . S
C370 C371 1.477 . S
C370 H390 0.931 . S
C371 C367 1.460 . S
C371 C370 1.477 . S
C371 H391 0.930 . S
C372 N368 1.362 . S
C372 C369 1.431 . S
C372 C382 1.476 . S
H373 C367 0.929 . S
C374 O365 1.250 . S
C374 O366 1.258 . S
O375 Mn360 2.162 . S
O375 C363 1.281 . S
O376 Mn360 2.297 . S
O376 C363 1.236 . S
N377 Mn361 2.282 . S
N377 C378 1.328 . S
N377 C382 1.318 . S
C378 N377 1.328 . S
C378 C379 1.457 . S
C378 H383 0.929 . S
C379 C378 1.457 . S
C379 C380 1.291 . S
C379 H392 0.931 . S
C380 C379 1.291 . S
C380 C381 1.373 . S
C380 H393 0.929 . S
C381 C380 1.373 . S
C381 C382 1.396 . S
C381 C388 1.403 . S
C382 C372 1.476 . S
C382 N377 1.318 . S
C382 C381 1.396 . S
H383 C378 0.929 . S
O384 Mn360 2.385 . S
O384 C362 1.234 . S
O385 Mn360 2.209 . S
O385 Mn361 2.215 . S
O385 C362 1.283 . S
O386 Mn360 2.094 . S
O386 C364 1.240 . S
O387 Mn361 2.117 . S
O387 C364 1.264 . S
C388 C381 1.403 . S
C388 C389 1.399 . S
C388 H394 0.929 . S
C389 C369 1.449 . S
C389 C388 1.399 . S
C389 H395 0.930 . S
H390 C370 0.931 . S
H391 C371 0.930 . S
H392 C379 0.931 . S
H393 C380 0.929 . S
H394 C388 0.929 . S
H395 C389 0.930 . S
Mn396 O401 2.095 . S
Mn396 O411 2.162 . S
Mn396 O412 2.297 . S
Mn396 O420 2.385 . S
Mn396 O421 2.209 . S
Mn396 O422 2.094 . S
Mn397 O402 2.121 . S
Mn397 N404 2.257 . S
Mn397 N413 2.282 . S
Mn397 O421 2.215 . S
Mn397 O423 2.117 . S
C398 O420 1.234 . S
C398 O421 1.283 . S
C399 O411 1.281 . S
C399 O412 1.236 . S
C400 O422 1.240 . S
C400 O423 1.264 . S
O401 Mn396 2.095 . S
O401 C410 1.250 . S
O402 Mn397 2.121 . S
O402 C410 1.258 . S
C403 N404 1.326 . S
C403 C407 1.460 . S
C403 H409 0.929 . S
N404 Mn397 2.257 . S
N404 C403 1.326 . S
N404 C408 1.362 . S
C405 C406 1.258 . S
C405 C408 1.431 . S
C405 C425 1.449 . S
C406 C405 1.258 . S
C406 C407 1.477 . S
C406 H426 0.931 . S
C407 C403 1.460 . S
C407 C406 1.477 . S
C407 H427 0.930 . S
C408 N404 1.362 . S
C408 C405 1.431 . S
C408 C418 1.476 . S
H409 C403 0.929 . S
C410 O401 1.250 . S
C410 O402 1.258 . S
O411 Mn396 2.162 . S
O411 C399 1.281 . S
O412 Mn396 2.297 . S
O412 C399 1.236 . S
N413 Mn397 2.282 . S
N413 C414 1.328 . S
N413 C418 1.318 . S
C414 N413 1.328 . S
C414 C415 1.457 . S
C414 H419 0.929 . S
C415 C414 1.457 . S
C415 C416 1.291 . S
C415 H428 0.931 . S
C416 C415 1.291 . S
C416 C417 1.373 . S
C416 H429 0.929 . S
C417 C416 1.373 . S
C417 C418 1.396 . S
C417 C424 1.403 . S
C418 C408 1.476 . S
C418 N413 1.318 . S
C418 C417 1.396 . S
H419 C414 0.929 . S
O420 Mn396 2.385 . S
O420 C398 1.234 . S
O421 Mn396 2.209 . S
O421 Mn397 2.215 . S
O421 C398 1.283 . S
O422 Mn396 2.094 . S
O422 C400 1.240 . S
O423 Mn397 2.117 . S
O423 C400 1.264 . S
C424 C417 1.403 . S
C424 C425 1.399 . S
C424 H430 0.929 . S
C425 C405 1.449 . S
C425 C424 1.399 . S
C425 H431 0.930 . S
H426 C406 0.931 . S
H427 C407 0.930 . S
H428 C415 0.931 . S
H429 C416 0.929 . S
H430 C424 0.929 . S
H431 C425 0.930 . S
Mn432 O437 2.095 . S
Mn432 O447 2.162 . S
Mn432 O448 2.297 . S
Mn432 O456 2.385 . S
Mn432 O457 2.209 . S
Mn432 O458 2.094 . S
Mn433 O438 2.121 . S
Mn433 N440 2.257 . S
Mn433 N449 2.282 . S
Mn433 O457 2.215 . S
Mn433 O459 2.117 . S
C434 O456 1.234 . S
C434 O457 1.283 . S
C435 O447 1.281 . S
C435 O448 1.236 . S
C436 O458 1.240 . S
C436 O459 1.264 . S
O437 Mn432 2.095 . S
O437 C446 1.250 . S
O438 Mn433 2.121 . S
O438 C446 1.258 . S
C439 N440 1.326 . S
C439 C443 1.460 . S
C439 H445 0.929 . S
N440 Mn433 2.257 . S
N440 C439 1.326 . S
N440 C444 1.362 . S
C441 C442 1.258 . S
C441 C444 1.431 . S
C441 C461 1.449 . S
C442 C441 1.258 . S
C442 C443 1.477 . S
C442 H462 0.931 . S
C443 C439 1.460 . S
C443 C442 1.477 . S
C443 H463 0.930 . S
C444 N440 1.362 . S
C444 C441 1.431 . S
C444 C454 1.476 . S
H445 C439 0.929 . S
C446 O437 1.250 . S
C446 O438 1.258 . S
O447 Mn432 2.162 . S
O447 C435 1.281 . S
O448 Mn432 2.297 . S
O448 C435 1.236 . S
N449 Mn433 2.282 . S
N449 C450 1.328 . S
N449 C454 1.318 . S
C450 N449 1.328 . S
C450 C451 1.457 . S
C450 H455 0.929 . S
C451 C450 1.457 . S
C451 C452 1.291 . S
C451 H464 0.931 . S
C452 C451 1.291 . S
C452 C453 1.373 . S
C452 H465 0.929 . S
C453 C452 1.373 . S
C453 C454 1.396 . S
C453 C460 1.403 . S
C454 C444 1.476 . S
C454 N449 1.318 . S
C454 C453 1.396 . S
H455 C450 0.929 . S
O456 Mn432 2.385 . S
O456 C434 1.234 . S
O457 Mn432 2.209 . S
O457 Mn433 2.215 . S
O457 C434 1.283 . S
O458 Mn432 2.094 . S
O458 C436 1.240 . S
O459 Mn433 2.117 . S
O459 C436 1.264 . S
C460 C453 1.403 . S
C460 C461 1.399 . S
C460 H466 0.929 . S
C461 C441 1.449 . S
C461 C460 1.399 . S
C461 H467 0.930 . S
H462 C442 0.931 . S
H463 C443 0.930 . S
H464 C451 0.931 . S
H465 C452 0.929 . S
H466 C460 0.929 . S
H467 C461 0.930 . S
Mn468 O473 2.095 . S
Mn468 O483 2.162 . S
Mn468 O484 2.297 . S
Mn468 O492 2.385 . S
Mn468 O493 2.209 . S
Mn468 O494 2.094 . S
Mn469 O474 2.121 . S
Mn469 N476 2.257 . S
Mn469 N485 2.282 . S
Mn469 O493 2.215 . S
Mn469 O495 2.117 . S
C470 O492 1.234 . S
C470 O493 1.283 . S
C471 O483 1.281 . S
C471 O484 1.236 . S
C472 O494 1.240 . S
C472 O495 1.264 . S
O473 Mn468 2.095 . S
O473 C482 1.250 . S
O474 Mn469 2.121 . S
O474 C482 1.258 . S
C475 N476 1.326 . S
C475 C479 1.460 . S
C475 H481 0.929 . S
N476 Mn469 2.257 . S
N476 C475 1.326 . S
N476 C480 1.362 . S
C477 C478 1.258 . S
C477 C480 1.431 . S
C477 C497 1.449 . S
C478 C477 1.258 . S
C478 C479 1.477 . S
C478 H498 0.931 . S
C479 C475 1.460 . S
C479 C478 1.477 . S
C479 H499 0.930 . S
C480 N476 1.362 . S
C480 C477 1.431 . S
C480 C490 1.476 . S
H481 C475 0.929 . S
C482 O473 1.250 . S
C482 O474 1.258 . S
O483 Mn468 2.162 . S
O483 C471 1.281 . S
O484 Mn468 2.297 . S
O484 C471 1.236 . S
N485 Mn469 2.282 . S
N485 C486 1.328 . S
N485 C490 1.318 . S
C486 N485 1.328 . S
C486 C487 1.457 . S
C486 H491 0.929 . S
C487 C486 1.457 . S
C487 C488 1.291 . S
C487 H500 0.931 . S
C488 C487 1.291 . S
C488 C489 1.373 . S
C488 H501 0.929 . S
C489 C488 1.373 . S
C489 C490 1.396 . S
C489 C496 1.403 . S
C490 C480 1.476 . S
C490 N485 1.318 . S
C490 C489 1.396 . S
H491 C486 0.929 . S
O492 Mn468 2.385 . S
O492 C470 1.234 . S
O493 Mn468 2.209 . S
O493 Mn469 2.215 . S
O493 C470 1.283 . S
O494 Mn468 2.094 . S
O494 C472 1.240 . S
O495 Mn469 2.117 . S
O495 C472 1.264 . S
C496 C489 1.403 . S
C496 C497 1.399 . S
C496 H502 0.929 . S
C497 C477 1.449 . S
C497 C496 1.399 . S
C497 H503 0.930 . S
H498 C478 0.931 . S
H499 C479 0.930 . S
H500 C487 0.931 . S
H501 C488 0.929 . S
H502 C496 0.929 . S
H503 C497 0.930 . S
Mn504 O509 2.095 . S
Mn504 O519 2.162 . S
Mn504 O520 2.297 . S
Mn504 O528 2.385 . S
Mn504 O529 2.209 . S
Mn504 O530 2.094 . S
Mn505 O510 2.121 . S
Mn505 N512 2.257 . S
Mn505 N521 2.282 . S
Mn505 O529 2.215 . S
Mn505 O531 2.117 . S
C506 O528 1.234 . S
C506 O529 1.283 . S
C507 O519 1.281 . S
C507 O520 1.236 . S
C508 O530 1.240 . S
C508 O531 1.264 . S
O509 Mn504 2.095 . S
O509 C518 1.250 . S
O510 Mn505 2.121 . S
O510 C518 1.258 . S
C511 N512 1.326 . S
C511 C515 1.460 . S
C511 H517 0.929 . S
N512 Mn505 2.257 . S
N512 C511 1.326 . S
N512 C516 1.362 . S
C513 C514 1.258 . S
C513 C516 1.431 . S
C513 C533 1.449 . S
C514 C513 1.258 . S
C514 C515 1.477 . S
C514 H534 0.931 . S
C515 C511 1.460 . S
C515 C514 1.477 . S
C515 H535 0.930 . S
C516 N512 1.362 . S
C516 C513 1.431 . S
C516 C526 1.476 . S
H517 C511 0.929 . S
C518 O509 1.250 . S
C518 O510 1.258 . S
O519 Mn504 2.162 . S
O519 C507 1.281 . S
O520 Mn504 2.297 . S
O520 C507 1.236 . S
N521 Mn505 2.282 . S
N521 C522 1.328 . S
N521 C526 1.318 . S
C522 N521 1.328 . S
C522 C523 1.457 . S
C522 H527 0.929 . S
C523 C522 1.457 . S
C523 C524 1.291 . S
C523 H536 0.931 . S
C524 C523 1.291 . S
C524 C525 1.373 . S
C524 H537 0.929 . S
C525 C524 1.373 . S
C525 C526 1.396 . S
C525 C532 1.403 . S
C526 C516 1.476 . S
C526 N521 1.318 . S
C526 C525 1.396 . S
H527 C522 0.929 . S
O528 Mn504 2.385 . S
O528 C506 1.234 . S
O529 Mn504 2.209 . S
O529 Mn505 2.215 . S
O529 C506 1.283 . S
O530 Mn504 2.094 . S
O530 C508 1.240 . S
O531 Mn505 2.117 . S
O531 C508 1.264 . S
C532 C525 1.403 . S
C532 C533 1.399 . S
C532 H538 0.929 . S
C533 C513 1.449 . S
C533 C532 1.399 . S
C533 H539 0.930 . S
H534 C514 0.931 . S
H535 C515 0.930 . S
H536 C523 0.931 . S
H537 C524 0.929 . S
H538 C532 0.929 . S
H539 C533 0.930 . S
Mn540 O545 2.095 . S
Mn540 O555 2.162 . S
Mn540 O556 2.297 . S
Mn540 O564 2.385 . S
Mn540 O565 2.209 . S
Mn540 O566 2.094 . S
Mn541 O546 2.121 . S
Mn541 N548 2.257 . S
Mn541 N557 2.282 . S
Mn541 O565 2.215 . S
Mn541 O567 2.117 . S
C542 O564 1.234 . S
C542 O565 1.283 . S
C543 O555 1.281 . S
C543 O556 1.236 . S
C544 O566 1.240 . S
C544 O567 1.264 . S
O545 Mn540 2.095 . S
O545 C554 1.250 . S
O546 Mn541 2.121 . S
O546 C554 1.258 . S
C547 N548 1.326 . S
C547 C551 1.460 . S
C547 H553 0.929 . S
N548 Mn541 2.257 . S
N548 C547 1.326 . S
N548 C552 1.362 . S
C549 C550 1.258 . S
C549 C552 1.431 . S
C549 C569 1.449 . S
C550 C549 1.258 . S
C550 C551 1.477 . S
C550 H570 0.931 . S
C551 C547 1.460 . S
C551 C550 1.477 . S
C551 H571 0.930 . S
C552 N548 1.362 . S
C552 C549 1.431 . S
C552 C562 1.476 . S
H553 C547 0.929 . S
C554 O545 1.250 . S
C554 O546 1.258 . S
O555 Mn540 2.162 . S
O555 C543 1.281 . S
O556 Mn540 2.297 . S
O556 C543 1.236 . S
N557 Mn541 2.282 . S
N557 C558 1.328 . S
N557 C562 1.318 . S
C558 N557 1.328 . S
C558 C559 1.457 . S
C558 H563 0.929 . S
C559 C558 1.457 . S
C559 C560 1.291 . S
C559 H572 0.931 . S
C560 C559 1.291 . S
C560 C561 1.373 . S
C560 H573 0.929 . S
C561 C560 1.373 . S
C561 C562 1.396 . S
C561 C568 1.403 . S
C562 C552 1.476 . S
C562 N557 1.318 . S
C562 C561 1.396 . S
H563 C558 0.929 . S
O564 Mn540 2.385 . S
O564 C542 1.234 . S
O565 Mn540 2.209 . S
O565 Mn541 2.215 . S
O565 C542 1.283 . S
O566 Mn540 2.094 . S
O566 C544 1.240 . S
O567 Mn541 2.117 . S
O567 C544 1.264 . S
C568 C561 1.403 . S
C568 C569 1.399 . S
C568 H574 0.929 . S
C569 C549 1.449 . S
C569 C568 1.399 . S
C569 H575 0.930 . S
H570 C550 0.931 . S
H571 C551 0.930 . S
H572 C559 0.931 . S
H573 C560 0.929 . S
H574 C568 0.929 . S
H575 C569 0.930 . S
Mn576 O581 2.095 . S
Mn576 O591 2.162 . S
Mn576 O592 2.297 . S
Mn576 O600 2.385 . S
Mn576 O601 2.209 . S
Mn576 O602 2.094 . S
Mn577 O582 2.121 . S
Mn577 N584 2.257 . S
Mn577 N593 2.282 . S
Mn577 O601 2.215 . S
Mn577 O603 2.117 . S
C578 O600 1.234 . S
C578 O601 1.283 . S
C579 O591 1.281 . S
C579 O592 1.236 . S
C580 O602 1.240 . S
C580 O603 1.264 . S
O581 Mn576 2.095 . S
O581 C590 1.250 . S
O582 Mn577 2.121 . S
O582 C590 1.258 . S
C583 N584 1.326 . S
C583 C587 1.460 . S
C583 H589 0.929 . S
N584 Mn577 2.257 . S
N584 C583 1.326 . S
N584 C588 1.362 . S
C585 C586 1.258 . S
C585 C588 1.431 . S
C585 C605 1.449 . S
C586 C585 1.258 . S
C586 C587 1.477 . S
C586 H606 0.931 . S
C587 C583 1.460 . S
C587 C586 1.477 . S
C587 H607 0.930 . S
C588 N584 1.362 . S
C588 C585 1.431 . S
C588 C598 1.476 . S
H589 C583 0.929 . S
C590 O581 1.250 . S
C590 O582 1.258 . S
O591 Mn576 2.162 . S
O591 C579 1.281 . S
O592 Mn576 2.297 . S
O592 C579 1.236 . S
N593 Mn577 2.282 . S
N593 C594 1.328 . S
N593 C598 1.318 . S
C594 N593 1.328 . S
C594 C595 1.457 . S
C594 H599 0.929 . S
C595 C594 1.457 . S
C595 C596 1.291 . S
C595 H608 0.931 . S
C596 C595 1.291 . S
C596 C597 1.373 . S
C596 H609 0.929 . S
C597 C596 1.373 . S
C597 C598 1.396 . S
C597 C604 1.403 . S
C598 C588 1.476 . S
C598 N593 1.318 . S
C598 C597 1.396 . S
H599 C594 0.929 . S
O600 Mn576 2.385 . S
O600 C578 1.234 . S
O601 Mn576 2.209 . S
O601 Mn577 2.215 . S
O601 C578 1.283 . S
O602 Mn576 2.094 . S
O602 C580 1.240 . S
O603 Mn577 2.117 . S
O603 C580 1.264 . S
C604 C597 1.403 . S
C604 C605 1.399 . S
C604 H610 0.929 . S
C605 C585 1.449 . S
C605 C604 1.399 . S
C605 H611 0.930 . S
H606 C586 0.931 . S
H607 C587 0.930 . S
H608 C595 0.931 . S
H609 C596 0.929 . S
H610 C604 0.929 . S
H611 C605 0.930 . S
Mn612 O617 2.095 . S
Mn612 O627 2.162 . S
Mn612 O628 2.297 . S
Mn612 O636 2.385 . S
Mn612 O637 2.209 . S
Mn612 O638 2.094 . S
Mn613 O618 2.121 . S
Mn613 N620 2.257 . S
Mn613 N629 2.282 . S
Mn613 O637 2.215 . S
Mn613 O639 2.117 . S
C614 O636 1.234 . S
C614 O637 1.283 . S
C615 O627 1.281 . S
C615 O628 1.236 . S
C616 O638 1.240 . S
C616 O639 1.264 . S
O617 Mn612 2.095 . S
O617 C626 1.250 . S
O618 Mn613 2.121 . S
O618 C626 1.258 . S
C619 N620 1.326 . S
C619 C623 1.460 . S
C619 H625 0.929 . S
N620 Mn613 2.257 . S
N620 C619 1.326 . S
N620 C624 1.362 . S
C621 C622 1.258 . S
C621 C624 1.431 . S
C621 C641 1.449 . S
C622 C621 1.258 . S
C622 C623 1.477 . S
C622 H642 0.931 . S
C623 C619 1.460 . S
C623 C622 1.477 . S
C623 H643 0.930 . S
C624 N620 1.362 . S
C624 C621 1.431 . S
C624 C634 1.476 . S
H625 C619 0.929 . S
C626 O617 1.250 . S
C626 O618 1.258 . S
O627 Mn612 2.162 . S
O627 C615 1.281 . S
O628 Mn612 2.297 . S
O628 C615 1.236 . S
N629 Mn613 2.282 . S
N629 C630 1.328 . S
N629 C634 1.318 . S
C630 N629 1.328 . S
C630 C631 1.457 . S
C630 H635 0.929 . S
C631 C630 1.457 . S
C631 C632 1.291 . S
C631 H644 0.931 . S
C632 C631 1.291 . S
C632 C633 1.373 . S
C632 H645 0.929 . S
C633 C632 1.373 . S
C633 C634 1.396 . S
C633 C640 1.403 . S
C634 C624 1.476 . S
C634 N629 1.318 . S
C634 C633 1.396 . S
H635 C630 0.929 . S
O636 Mn612 2.385 . S
O636 C614 1.234 . S
O637 Mn612 2.209 . S
O637 Mn613 2.215 . S
O637 C614 1.283 . S
O638 Mn612 2.094 . S
O638 C616 1.240 . S
O639 Mn613 2.117 . S
O639 C616 1.264 . S
C640 C633 1.403 . S
C640 C641 1.399 . S
C640 H646 0.929 . S
C641 C621 1.449 . S
C641 C640 1.399 . S
C641 H647 0.930 . S
H642 C622 0.931 . S
H643 C623 0.930 . S
H644 C631 0.931 . S
H645 C632 0.929 . S
H646 C640 0.929 . S
H647 C641 0.930 . S
Mn648 O653 2.095 . S
Mn648 O663 2.162 . S
Mn648 O664 2.297 . S
Mn648 O672 2.385 . S
Mn648 O673 2.209 . S
Mn648 O674 2.094 . S
Mn649 O654 2.121 . S
Mn649 N656 2.257 . S
Mn649 N665 2.282 . S
Mn649 O673 2.215 . S
Mn649 O675 2.117 . S
C650 O672 1.234 . S
C650 O673 1.283 . S
C651 O663 1.281 . S
C651 O664 1.236 . S
C652 O674 1.240 . S
C652 O675 1.264 . S
O653 Mn648 2.095 . S
O653 C662 1.250 . S
O654 Mn649 2.121 . S
O654 C662 1.258 . S
C655 N656 1.326 . S
C655 C659 1.460 . S
C655 H661 0.929 . S
N656 Mn649 2.257 . S
N656 C655 1.326 . S
N656 C660 1.362 . S
C657 C658 1.258 . S
C657 C660 1.431 . S
C657 C677 1.449 . S
C658 C657 1.258 . S
C658 C659 1.477 . S
C658 H678 0.931 . S
C659 C655 1.460 . S
C659 C658 1.477 . S
C659 H679 0.930 . S
C660 N656 1.362 . S
C660 C657 1.431 . S
C660 C670 1.476 . S
H661 C655 0.929 . S
C662 O653 1.250 . S
C662 O654 1.258 . S
O663 Mn648 2.162 . S
O663 C651 1.281 . S
O664 Mn648 2.297 . S
O664 C651 1.236 . S
N665 Mn649 2.282 . S
N665 C666 1.328 . S
N665 C670 1.318 . S
C666 N665 1.328 . S
C666 C667 1.457 . S
C666 H671 0.929 . S
C667 C666 1.457 . S
C667 C668 1.291 . S
C667 H680 0.931 . S
C668 C667 1.291 . S
C668 C669 1.373 . S
C668 H681 0.929 . S
C669 C668 1.373 . S
C669 C670 1.396 . S
C669 C676 1.403 . S
C670 C660 1.476 . S
C670 N665 1.318 . S
C670 C669 1.396 . S
H671 C666 0.929 . S
O672 Mn648 2.385 . S
O672 C650 1.234 . S
O673 Mn648 2.209 . S
O673 Mn649 2.215 . S
O673 C650 1.283 . S
O674 Mn648 2.094 . S
O674 C652 1.240 . S
O675 Mn649 2.117 . S
O675 C652 1.264 . S
C676 C669 1.403 . S
C676 C677 1.399 . S
C676 H682 0.929 . S
C677 C657 1.449 . S
C677 C676 1.399 . S
C677 H683 0.930 . S
H678 C658 0.931 . S
H679 C659 0.930 . S
H680 C667 0.931 . S
H681 C668 0.929 . S
H682 C676 0.929 . S
H683 C677 0.930 . S
Mn684 O689 2.095 . S
Mn684 O699 2.162 . S
Mn684 O700 2.297 . S
Mn684 O708 2.385 . S
Mn684 O709 2.209 . S
Mn684 O710 2.094 . S
Mn685 O690 2.121 . S
Mn685 N692 2.257 . S
Mn685 N701 2.282 . S
Mn685 O709 2.215 . S
Mn685 O711 2.117 . S
C686 O708 1.234 . S
C686 O709 1.283 . S
C687 O699 1.281 . S
C687 O700 1.236 . S
C688 O710 1.240 . S
C688 O711 1.264 . S
O689 Mn684 2.095 . S
O689 C698 1.250 . S
O690 Mn685 2.121 . S
O690 C698 1.258 . S
C691 N692 1.326 . S
C691 C695 1.460 . S
C691 H697 0.929 . S
N692 Mn685 2.257 . S
N692 C691 1.326 . S
N692 C696 1.362 . S
C693 C694 1.258 . S
C693 C696 1.431 . S
C693 C713 1.449 . S
C694 C693 1.258 . S
C694 C695 1.477 . S
C694 H714 0.931 . S
C695 C691 1.460 . S
C695 C694 1.477 . S
C695 H715 0.930 . S
C696 N692 1.362 . S
C696 C693 1.431 . S
C696 C706 1.476 . S
H697 C691 0.929 . S
C698 O689 1.250 . S
C698 O690 1.258 . S
O699 Mn684 2.162 . S
O699 C687 1.281 . S
O700 Mn684 2.297 . S
O700 C687 1.236 . S
N701 Mn685 2.282 . S
N701 C702 1.328 . S
N701 C706 1.318 . S
C702 N701 1.328 . S
C702 C703 1.457 . S
C702 H707 0.929 . S
C703 C702 1.457 . S
C703 C704 1.291 . S
C703 H716 0.931 . S
C704 C703 1.291 . S
C704 C705 1.373 . S
C704 H717 0.929 . S
C705 C704 1.373 . S
C705 C706 1.396 . S
C705 C712 1.403 . S
C706 C696 1.476 . S
C706 N701 1.318 . S
C706 C705 1.396 . S
H707 C702 0.929 . S
O708 Mn684 2.385 . S
O708 C686 1.234 . S
O709 Mn684 2.209 . S
O709 Mn685 2.215 . S
O709 C686 1.283 . S
O710 Mn684 2.094 . S
O710 C688 1.240 . S
O711 Mn685 2.117 . S
O711 C688 1.264 . S
C712 C705 1.403 . S
C712 C713 1.399 . S
C712 H718 0.929 . S
C713 C693 1.449 . S
C713 C712 1.399 . S
C713 H719 0.930 . S
H714 C694 0.931 . S
H715 C695 0.930 . S
H716 C703 0.931 . S
H717 C704 0.929 . S
H718 C712 0.929 . S
H719 C713 0.930 . S
Mn720 O725 2.095 . S
Mn720 O735 2.162 . S
Mn720 O736 2.297 . S
Mn720 O744 2.385 . S
Mn720 O745 2.209 . S
Mn720 O746 2.094 . S
Mn721 O726 2.121 . S
Mn721 N728 2.257 . S
Mn721 N737 2.282 . S
Mn721 O745 2.215 . S
Mn721 O747 2.117 . S
C722 O744 1.234 . S
C722 O745 1.283 . S
C723 O735 1.281 . S
C723 O736 1.236 . S
C724 O746 1.240 . S
C724 O747 1.264 . S
O725 Mn720 2.095 . S
O725 C734 1.250 . S
O726 Mn721 2.121 . S
O726 C734 1.258 . S
C727 N728 1.326 . S
C727 C731 1.460 . S
C727 H733 0.929 . S
N728 Mn721 2.257 . S
N728 C727 1.326 . S
N728 C732 1.362 . S
C729 C730 1.258 . S
C729 C732 1.431 . S
C729 C749 1.449 . S
C730 C729 1.258 . S
C730 C731 1.477 . S
C730 H750 0.931 . S
C731 C727 1.460 . S
C731 C730 1.477 . S
C731 H751 0.930 . S
C732 N728 1.362 . S
C732 C729 1.431 . S
C732 C742 1.476 . S
H733 C727 0.929 . S
C734 O725 1.250 . S
C734 O726 1.258 . S
O735 Mn720 2.162 . S
O735 C723 1.281 . S
O736 Mn720 2.297 . S
O736 C723 1.236 . S
N737 Mn721 2.282 . S
N737 C738 1.328 . S
N737 C742 1.318 . S
C738 N737 1.328 . S
C738 C739 1.457 . S
C738 H743 0.929 . S
C739 C738 1.457 . S
C739 C740 1.291 . S
C739 H752 0.931 . S
C740 C739 1.291 . S
C740 C741 1.373 . S
C740 H753 0.929 . S
C741 C740 1.373 . S
C741 C742 1.396 . S
C741 C748 1.403 . S
C742 C732 1.476 . S
C742 N737 1.318 . S
C742 C741 1.396 . S
H743 C738 0.929 . S
O744 Mn720 2.385 . S
O744 C722 1.234 . S
O745 Mn720 2.209 . S
O745 Mn721 2.215 . S
O745 C722 1.283 . S
O746 Mn720 2.094 . S
O746 C724 1.240 . S
O747 Mn721 2.117 . S
O747 C724 1.264 . S
C748 C741 1.403 . S
C748 C749 1.399 . S
C748 H754 0.929 . S
C749 C729 1.449 . S
C749 C748 1.399 . S
C749 H755 0.930 . S
H750 C730 0.931 . S
H751 C731 0.930 . S
H752 C739 0.931 . S
H753 C740 0.929 . S
H754 C748 0.929 . S
H755 C749 0.930 . S
Mn756 O761 2.095 . S
Mn756 O771 2.162 . S
Mn756 O772 2.297 . S
Mn756 O780 2.385 . S
Mn756 O781 2.209 . S
Mn756 O782 2.094 . S
Mn757 O762 2.121 . S
Mn757 N764 2.257 . S
Mn757 N773 2.282 . S
Mn757 O781 2.215 . S
Mn757 O783 2.117 . S
C758 O780 1.234 . S
C758 O781 1.283 . S
C759 O771 1.281 . S
C759 O772 1.236 . S
C760 O782 1.240 . S
C760 O783 1.264 . S
O761 Mn756 2.095 . S
O761 C770 1.250 . S
O762 Mn757 2.121 . S
O762 C770 1.258 . S
C763 N764 1.326 . S
C763 C767 1.460 . S
C763 H769 0.929 . S
N764 Mn757 2.257 . S
N764 C763 1.326 . S
N764 C768 1.362 . S
C765 C766 1.258 . S
C765 C768 1.431 . S
C765 C785 1.449 . S
C766 C765 1.258 . S
C766 C767 1.477 . S
C766 H786 0.931 . S
C767 C763 1.460 . S
C767 C766 1.477 . S
C767 H787 0.930 . S
C768 N764 1.362 . S
C768 C765 1.431 . S
C768 C778 1.476 . S
H769 C763 0.929 . S
C770 O761 1.250 . S
C770 O762 1.258 . S
O771 Mn756 2.162 . S
O771 C759 1.281 . S
O772 Mn756 2.297 . S
O772 C759 1.236 . S
N773 Mn757 2.282 . S
N773 C774 1.328 . S
N773 C778 1.318 . S
C774 N773 1.328 . S
C774 C775 1.457 . S
C774 H779 0.929 . S
C775 C774 1.457 . S
C775 C776 1.291 . S
C775 H788 0.931 . S
C776 C775 1.291 . S
C776 C777 1.373 . S
C776 H789 0.929 . S
C777 C776 1.373 . S
C777 C778 1.396 . S
C777 C784 1.403 . S
C778 C768 1.476 . S
C778 N773 1.318 . S
C778 C777 1.396 . S
H779 C774 0.929 . S
O780 Mn756 2.385 . S
O780 C758 1.234 . S
O781 Mn756 2.209 . S
O781 Mn757 2.215 . S
O781 C758 1.283 . S
O782 Mn756 2.094 . S
O782 C760 1.240 . S
O783 Mn757 2.117 . S
O783 C760 1.264 . S
C784 C777 1.403 . S
C784 C785 1.399 . S
C784 H790 0.929 . S
C785 C765 1.449 . S
C785 C784 1.399 . S
C785 H791 0.930 . S
H786 C766 0.931 . S
H787 C767 0.930 . S
H788 C775 0.931 . S
H789 C776 0.929 . S
H790 C784 0.929 . S
H791 C785 0.930 . S
Mn792 O797 2.095 . S
Mn792 O807 2.162 . S
Mn792 O808 2.297 . S
Mn792 O816 2.385 . S
Mn792 O817 2.209 . S
Mn792 O818 2.094 . S
Mn793 O798 2.121 . S
Mn793 N800 2.257 . S
Mn793 N809 2.282 . S
Mn793 O817 2.215 . S
Mn793 O819 2.117 . S
C794 O816 1.234 . S
C794 O817 1.283 . S
C795 O807 1.281 . S
C795 O808 1.236 . S
C796 O818 1.240 . S
C796 O819 1.264 . S
O797 Mn792 2.095 . S
O797 C806 1.250 . S
O798 Mn793 2.121 . S
O798 C806 1.258 . S
C799 N800 1.326 . S
C799 C803 1.460 . S
C799 H805 0.929 . S
N800 Mn793 2.257 . S
N800 C799 1.326 . S
N800 C804 1.362 . S
C801 C802 1.258 . S
C801 C804 1.431 . S
C801 C821 1.449 . S
C802 C801 1.258 . S
C802 C803 1.477 . S
C802 H822 0.931 . S
C803 C799 1.460 . S
C803 C802 1.477 . S
C803 H823 0.930 . S
C804 N800 1.362 . S
C804 C801 1.431 . S
C804 C814 1.476 . S
H805 C799 0.929 . S
C806 O797 1.250 . S
C806 O798 1.258 . S
O807 Mn792 2.162 . S
O807 C795 1.281 . S
O808 Mn792 2.297 . S
O808 C795 1.236 . S
N809 Mn793 2.282 . S
N809 C810 1.328 . S
N809 C814 1.318 . S
C810 N809 1.328 . S
C810 C811 1.457 . S
C810 H815 0.929 . S
C811 C810 1.457 . S
C811 C812 1.291 . S
C811 H824 0.931 . S
C812 C811 1.291 . S
C812 C813 1.373 . S
C812 H825 0.929 . S
C813 C812 1.373 . S
C813 C814 1.396 . S
C813 C820 1.403 . S
C814 C804 1.476 . S
C814 N809 1.318 . S
C814 C813 1.396 . S
H815 C810 0.929 . S
O816 Mn792 2.385 . S
O816 C794 1.234 . S
O817 Mn792 2.209 . S
O817 Mn793 2.215 . S
O817 C794 1.283 . S
O818 Mn792 2.094 . S
O818 C796 1.240 . S
O819 Mn793 2.117 . S
O819 C796 1.264 . S
C820 C813 1.403 . S
C820 C821 1.399 . S
C820 H826 0.929 . S
C821 C801 1.449 . S
C821 C820 1.399 . S
C821 H827 0.930 . S
H822 C802 0.931 . S
H823 C803 0.930 . S
H824 C811 0.931 . S
H825 C812 0.929 . S
H826 C820 0.929 . S
H827 C821 0.930 . S
Mn828 O833 2.095 . S
Mn828 O843 2.162 . S
Mn828 O844 2.297 . S
Mn828 O852 2.385 . S
Mn828 O853 2.209 . S
Mn828 O854 2.094 . S
Mn829 O834 2.121 . S
Mn829 N836 2.257 . S
Mn829 N845 2.282 . S
Mn829 O853 2.215 . S
Mn829 O855 2.117 . S
C830 O852 1.234 . S
C830 O853 1.283 . S
C831 O843 1.281 . S
C831 O844 1.236 . S
C832 O854 1.240 . S
C832 O855 1.264 . S
O833 Mn828 2.095 . S
O833 C842 1.250 . S
O834 Mn829 2.121 . S
O834 C842 1.258 . S
C835 N836 1.326 . S
C835 C839 1.460 . S
C835 H841 0.929 . S
N836 Mn829 2.257 . S
N836 C835 1.326 . S
N836 C840 1.362 . S
C837 C838 1.258 . S
C837 C840 1.431 . S
C837 C857 1.449 . S
C838 C837 1.258 . S
C838 C839 1.477 . S
C838 H858 0.931 . S
C839 C835 1.460 . S
C839 C838 1.477 . S
C839 H859 0.930 . S
C840 N836 1.362 . S
C840 C837 1.431 . S
C840 C850 1.476 . S
H841 C835 0.929 . S
C842 O833 1.250 . S
C842 O834 1.258 . S
O843 Mn828 2.162 . S
O843 C831 1.281 . S
O844 Mn828 2.297 . S
O844 C831 1.236 . S
N845 Mn829 2.282 . S
N845 C846 1.328 . S
N845 C850 1.318 . S
C846 N845 1.328 . S
C846 C847 1.457 . S
C846 H851 0.929 . S
C847 C846 1.457 . S
C847 C848 1.291 . S
C847 H860 0.931 . S
C848 C847 1.291 . S
C848 C849 1.373 . S
C848 H861 0.929 . S
C849 C848 1.373 . S
C849 C850 1.396 . S
C849 C856 1.403 . S
C850 C840 1.476 . S
C850 N845 1.318 . S
C850 C849 1.396 . S
H851 C846 0.929 . S
O852 Mn828 2.385 . S
O852 C830 1.234 . S
O853 Mn828 2.209 . S
O853 Mn829 2.215 . S
O853 C830 1.283 . S
O854 Mn828 2.094 . S
O854 C832 1.240 . S
O855 Mn829 2.117 . S
O855 C832 1.264 . S
C856 C849 1.403 . S
C856 C857 1.399 . S
C856 H862 0.929 . S
C857 C837 1.449 . S
C857 C856 1.399 . S
C857 H863 0.930 . S
H858 C838 0.931 . S
H859 C839 0.930 . S
H860 C847 0.931 . S
H861 C848 0.929 . S
H862 C856 0.929 . S
H863 C857 0.930 . S
H864 C872 0.950 . S
H865 C877 0.950 . S
H866 C874 0.950 . S
H867 C876 0.950 . S
H868 C878 0.950 . S
H869 C880 0.950 . S
H870 C882 0.950 . S
H871 C883 0.950 . S
C872 H864 0.950 . S
C872 C873 1.386 . S
C872 C874 1.391 . S
C873 C872 1.386 . S
C873 C877 1.393 . S
C874 H866 0.950 . S
C874 C872 1.391 . S
C874 C875 1.400 . S
C875 C874 1.400 . S
C875 C876 1.398 . S
C875 C881 1.491 1_545 S
C876 H867 0.950 . S
C876 C875 1.398 . S
C876 C877 1.391 . S
C877 H865 0.950 . S
C877 C873 1.393 . S
C877 C876 1.391 . S
C878 H868 0.950 . S
C878 C879 1.386 . S
C878 C880 1.391 . S
C879 C878 1.386 . S
C879 C883 1.393 . S
C880 H869 0.950 . S
C880 C878 1.391 . S
C880 C881 1.400 . S
C881 C875 1.491 1_565 S
C881 C880 1.400 . S
C881 C882 1.398 . S
C882 H870 0.950 . S
C882 C881 1.398 . S
C882 C883 1.391 . S
C883 H871 0.950 . S
C883 C879 1.393 . S
C883 C882 1.391 . S
H884 C892 0.950 . S
H885 C897 0.950 . S
H886 C894 0.950 . S
H887 C896 0.950 . S
H888 C898 0.950 . S
H889 C900 0.950 . S
H890 C902 0.950 . S
H891 C903 0.950 . S
C892 H884 0.950 . S
C892 C893 1.386 . S
C892 C894 1.391 . S
C893 C892 1.386 . S
C893 C897 1.393 . S
C894 H886 0.950 . S
C894 C892 1.391 . S
C894 C895 1.400 . S
C895 C894 1.400 . S
C895 C896 1.398 . S
C895 C901 1.491 . S
C896 H887 0.950 . S
C896 C895 1.398 . S
C896 C897 1.391 . S
C897 H885 0.950 . S
C897 C893 1.393 . S
C897 C896 1.391 . S
C898 H888 0.950 . S
C898 C899 1.386 . S
C898 C900 1.391 . S
C899 C898 1.386 . S
C899 C903 1.393 . S
C900 H889 0.950 . S
C900 C898 1.391 . S
C900 C901 1.400 . S
C901 C895 1.491 . S
C901 C900 1.400 . S
C901 C902 1.398 . S
C902 H890 0.950 . S
C902 C901 1.398 . S
C902 C903 1.391 . S
C903 H891 0.950 . S
C903 C899 1.393 . S
C903 C902 1.391 . S
H904 C912 0.950 . S
H905 C917 0.950 . S
H906 C914 0.950 . S
H907 C916 0.950 . S
H908 C918 0.950 . S
H909 C920 0.950 . S
H910 C922 0.950 . S
H911 C923 0.950 . S
C912 H904 0.950 . S
C912 C913 1.386 . S
C912 C914 1.391 . S
C913 C912 1.386 . S
C913 C917 1.393 . S
C914 H906 0.950 . S
C914 C912 1.391 . S
C914 C915 1.400 . S
C915 C914 1.400 . S
C915 C916 1.398 . S
C915 C921 1.491 1_655 S
C916 H907 0.950 . S
C916 C915 1.398 . S
C916 C917 1.391 . S
C917 H905 0.950 . S
C917 C913 1.393 . S
C917 C916 1.391 . S
C918 H908 0.950 . S
C918 C919 1.386 . S
C918 C920 1.391 . S
C919 C918 1.386 . S
C919 C923 1.393 . S
C920 H909 0.950 . S
C920 C918 1.391 . S
C920 C921 1.400 . S
C921 C915 1.491 1_455 S
C921 C920 1.400 . S
C921 C922 1.398 . S
C922 H910 0.950 . S
C922 C921 1.398 . S
C922 C923 1.391 . S
C923 H911 0.950 . S
C923 C919 1.393 . S
C923 C922 1.391 . S
H924 C932 0.950 . S
H925 C937 0.950 . S
H926 C934 0.950 . S
H927 C936 0.950 . S
H928 C938 0.950 . S
H929 C940 0.950 . S
H930 C942 0.950 . S
H931 C943 0.950 . S
C932 H924 0.950 . S
C932 C933 1.386 . S
C932 C934 1.391 . S
C933 C932 1.386 . S
C933 C937 1.393 . S
C934 H926 0.950 . S
C934 C932 1.391 . S
C934 C935 1.400 . S
C935 C934 1.400 . S
C935 C936 1.398 . S
C935 C941 1.491 1_565 S
C936 H927 0.950 . S
C936 C935 1.398 . S
C936 C937 1.391 . S
C937 H925 0.950 . S
C937 C933 1.393 . S
C937 C936 1.391 . S
C938 H928 0.950 . S
C938 C939 1.386 . S
C938 C940 1.391 . S
C939 C938 1.386 . S
C939 C943 1.393 . S
C940 H929 0.950 . S
C940 C938 1.391 . S
C940 C941 1.400 . S
C941 C935 1.491 1_545 S
C941 C940 1.400 . S
C941 C942 1.398 . S
C942 H930 0.950 . S
C942 C941 1.398 . S
C942 C943 1.391 . S
C943 H931 0.950 . S
C943 C939 1.393 . S
C943 C942 1.391 . S
H944 C952 0.950 . S
H945 C957 0.950 . S
H946 C954 0.950 . S
H947 C956 0.950 . S
H948 C958 0.950 . S
H949 C960 0.950 . S
H950 C962 0.950 . S
H951 C963 0.950 . S
C952 H944 0.950 . S
C952 C953 1.386 . S
C952 C954 1.391 . S
C953 C952 1.386 . S
C953 C957 1.393 . S
C954 H946 0.950 . S
C954 C952 1.391 . S
C954 C955 1.400 . S
C955 C954 1.400 . S
C955 C956 1.398 . S
C955 C961 1.491 . S
C956 H947 0.950 . S
C956 C955 1.398 . S
C956 C957 1.391 . S
C957 H945 0.950 . S
C957 C953 1.393 . S
C957 C956 1.391 . S
C958 H948 0.950 . S
C958 C959 1.386 . S
C958 C960 1.391 . S
C959 C958 1.386 . S
C959 C963 1.393 . S
C960 H949 0.950 . S
C960 C958 1.391 . S
C960 C961 1.400 . S
C961 C955 1.491 . S
C961 C960 1.400 . S
C961 C962 1.398 . S
C962 H950 0.950 . S
C962 C961 1.398 . S
C962 C963 1.391 . S
C963 H951 0.950 . S
C963 C959 1.393 . S
C963 C962 1.391 . S
H964 C972 0.950 . S
H965 C977 0.950 . S
H966 C974 0.950 . S
H967 C976 0.950 . S
H968 C978 0.950 . S
H969 C980 0.950 . S
H970 C982 0.950 . S
H971 C983 0.950 . S
C972 H964 0.950 . S
C972 C973 1.386 . S
C972 C974 1.391 . S
C973 C972 1.386 . S
C973 C977 1.393 . S
C974 H966 0.950 . S
C974 C972 1.391 . S
C974 C975 1.400 . S
C975 C974 1.400 . S
C975 C976 1.398 . S
C975 C981 1.491 1_455 S
C976 H967 0.950 . S
C976 C975 1.398 . S
C976 C977 1.391 . S
C977 H965 0.950 . S
C977 C973 1.393 . S
C977 C976 1.391 . S
C978 H968 0.950 . S
C978 C979 1.386 . S
C978 C980 1.391 . S
C979 C978 1.386 . S
C979 C983 1.393 . S
C980 H969 0.950 . S
C980 C978 1.391 . S
C980 C981 1.400 . S
C981 C975 1.491 1_655 S
C981 C980 1.400 . S
C981 C982 1.398 . S
C982 H970 0.950 . S
C982 C981 1.398 . S
C982 C983 1.391 . S
C983 H971 0.950 . S
C983 C979 1.393 . S
C983 C982 1.391 . S
H984 C992 0.950 . S
H985 C997 0.950 . S
H986 C994 0.950 . S
H987 C996 0.950 . S
H988 C998 0.950 . S
H989 C1000 0.950 . S
H990 C1002 0.950 . S
H991 C1003 0.950 . S
C992 H984 0.950 . S
C992 C993 1.386 . S
C992 C994 1.391 . S
C993 C992 1.386 . S
C993 C997 1.393 . S
C994 H986 0.950 . S
C994 C992 1.391 . S
C994 C995 1.400 . S
C995 C994 1.400 . S
C995 C996 1.398 . S
C995 C1001 1.491 1_565 S
C996 H987 0.950 . S
C996 C995 1.398 . S
C996 C997 1.391 . S
C997 H985 0.950 . S
C997 C993 1.393 . S
C997 C996 1.391 . S
C998 H988 0.950 . S
C998 C999 1.386 . S
C998 C1000 1.391 . S
C999 C998 1.386 . S
C999 C1003 1.393 . S
C1000 H989 0.950 . S
C1000 C998 1.391 . S
C1000 C1001 1.400 . S
C1001 C995 1.491 1_545 S
C1001 C1000 1.400 . S
C1001 C1002 1.398 . S
C1002 H990 0.950 . S
C1002 C1001 1.398 . S
C1002 C1003 1.391 . S
C1003 H991 0.950 . S
C1003 C999 1.393 . S
C1003 C1002 1.391 . S
H1004 C1012 0.950 . S
H1005 C1017 0.950 . S
H1006 C1014 0.950 . S
H1007 C1016 0.950 . S
H1008 C1018 0.950 . S
H1009 C1020 0.950 . S
H1010 C1022 0.950 . S
H1011 C1023 0.950 . S
C1012 H1004 0.950 . S
C1012 C1013 1.386 . S
C1012 C1014 1.391 . S
C1013 C1012 1.386 . S
C1013 C1017 1.393 . S
C1014 H1006 0.950 . S
C1014 C1012 1.391 . S
C1014 C1015 1.400 . S
C1015 C1014 1.400 . S
C1015 C1016 1.398 . S
C1015 C1021 1.491 . S
C1016 H1007 0.950 . S
C1016 C1015 1.398 . S
C1016 C1017 1.391 . S
C1017 H1005 0.950 . S
C1017 C1013 1.393 . S
C1017 C1016 1.391 . S
C1018 H1008 0.950 . S
C1018 C1019 1.386 . S
C1018 C1020 1.391 . S
C1019 C1018 1.386 . S
C1019 C1023 1.393 . S
C1020 H1009 0.950 . S
C1020 C1018 1.391 . S
C1020 C1021 1.400 . S
C1021 C1015 1.491 . S
C1021 C1020 1.400 . S
C1021 C1022 1.398 . S
C1022 H1010 0.950 . S
C1022 C1021 1.398 . S
C1022 C1023 1.391 . S
C1023 H1011 0.950 . S
C1023 C1019 1.393 . S
C1023 C1022 1.391 . S
H1024 C1032 0.950 . S
H1025 C1037 0.950 . S
H1026 C1034 0.950 . S
H1027 C1036 0.950 . S
H1028 C1038 0.950 . S
H1029 C1040 0.950 . S
H1030 C1042 0.950 . S
H1031 C1043 0.950 . S
C1032 H1024 0.950 . S
C1032 C1033 1.386 . S
C1032 C1034 1.391 . S
C1033 C1032 1.386 . S
C1033 C1037 1.393 . S
C1034 H1026 0.950 . S
C1034 C1032 1.391 . S
C1034 C1035 1.400 . S
C1035 C1034 1.400 . S
C1035 C1036 1.398 . S
C1035 C1041 1.491 1_655 S
C1036 H1027 0.950 . S
C1036 C1035 1.398 . S
C1036 C1037 1.391 . S
C1037 H1025 0.950 . S
C1037 C1033 1.393 . S
C1037 C1036 1.391 . S
C1038 H1028 0.950 . S
C1038 C1039 1.386 . S
C1038 C1040 1.391 . S
C1039 C1038 1.386 . S
C1039 C1043 1.393 . S
C1040 H1029 0.950 . S
C1040 C1038 1.391 . S
C1040 C1041 1.400 . S
C1041 C1035 1.491 1_455 S
C1041 C1040 1.400 . S
C1041 C1042 1.398 . S
C1042 H1030 0.950 . S
C1042 C1041 1.398 . S
C1042 C1043 1.391 . S
C1043 H1031 0.950 . S
C1043 C1039 1.393 . S
C1043 C1042 1.391 . S
H1044 C1052 0.950 . S
H1045 C1057 0.950 . S
H1046 C1054 0.950 . S
H1047 C1056 0.950 . S
H1048 C1058 0.950 . S
H1049 C1060 0.950 . S
H1050 C1062 0.950 . S
H1051 C1063 0.950 . S
C1052 H1044 0.950 . S
C1052 C1053 1.386 . S
C1052 C1054 1.391 . S
C1053 C1052 1.386 . S
C1053 C1057 1.393 . S
C1054 H1046 0.950 . S
C1054 C1052 1.391 . S
C1054 C1055 1.400 . S
C1055 C1054 1.400 . S
C1055 C1056 1.398 . S
C1055 C1061 1.491 1_545 S
C1056 H1047 0.950 . S
C1056 C1055 1.398 . S
C1056 C1057 1.391 . S
C1057 H1045 0.950 . S
C1057 C1053 1.393 . S
C1057 C1056 1.391 . S
C1058 H1048 0.950 . S
C1058 C1059 1.386 . S
C1058 C1060 1.391 . S
C1059 C1058 1.386 . S
C1059 C1063 1.393 . S
C1060 H1049 0.950 . S
C1060 C1058 1.391 . S
C1060 C1061 1.400 . S
C1061 C1055 1.491 1_565 S
C1061 C1060 1.400 . S
C1061 C1062 1.398 . S
C1062 H1050 0.950 . S
C1062 C1061 1.398 . S
C1062 C1063 1.391 . S
C1063 H1051 0.950 . S
C1063 C1059 1.393 . S
C1063 C1062 1.391 . S
H1064 C1072 0.950 . S
H1065 C1077 0.950 . S
H1066 C1074 0.950 . S
H1067 C1076 0.950 . S
H1068 C1078 0.950 . S
H1069 C1080 0.950 . S
H1070 C1082 0.950 . S
H1071 C1083 0.950 . S
C1072 H1064 0.950 . S
C1072 C1073 1.386 . S
C1072 C1074 1.391 . S
C1073 C1072 1.386 . S
C1073 C1077 1.393 . S
C1074 H1066 0.950 . S
C1074 C1072 1.391 . S
C1074 C1075 1.400 . S
C1075 C1074 1.400 . S
C1075 C1076 1.398 . S
C1075 C1081 1.491 . S
C1076 H1067 0.950 . S
C1076 C1075 1.398 . S
C1076 C1077 1.391 . S
C1077 H1065 0.950 . S
C1077 C1073 1.393 . S
C1077 C1076 1.391 . S
C1078 H1068 0.950 . S
C1078 C1079 1.386 . S
C1078 C1080 1.391 . S
C1079 C1078 1.386 . S
C1079 C1083 1.393 . S
C1080 H1069 0.950 . S
C1080 C1078 1.391 . S
C1080 C1081 1.400 . S
C1081 C1075 1.491 . S
C1081 C1080 1.400 . S
C1081 C1082 1.398 . S
C1082 H1070 0.950 . S
C1082 C1081 1.398 . S
C1082 C1083 1.391 . S
C1083 H1071 0.950 . S
C1083 C1079 1.393 . S
C1083 C1082 1.391 . S
H1084 C1092 0.950 . S
H1085 C1097 0.950 . S
H1086 C1094 0.950 . S
H1087 C1096 0.950 . S
H1088 C1098 0.950 . S
H1089 C1100 0.950 . S
H1090 C1102 0.950 . S
H1091 C1103 0.950 . S
C1092 H1084 0.950 . S
C1092 C1093 1.386 . S
C1092 C1094 1.391 . S
C1093 C1092 1.386 . S
C1093 C1097 1.393 . S
C1094 H1086 0.950 . S
C1094 C1092 1.391 . S
C1094 C1095 1.400 . S
C1095 C1094 1.400 . S
C1095 C1096 1.398 . S
C1095 C1101 1.491 1_455 S
C1096 H1087 0.950 . S
C1096 C1095 1.398 . S
C1096 C1097 1.391 . S
C1097 H1085 0.950 . S
C1097 C1093 1.393 . S
C1097 C1096 1.391 . S
C1098 H1088 0.950 . S
C1098 C1099 1.386 . S
C1098 C1100 1.391 . S
C1099 C1098 1.386 . S
C1099 C1103 1.393 . S
C1100 H1089 0.950 . S
C1100 C1098 1.391 . S
C1100 C1101 1.400 . S
C1101 C1095 1.491 1_655 S
C1101 C1100 1.400 . S
C1101 C1102 1.398 . S
C1102 H1090 0.950 . S
C1102 C1101 1.398 . S
C1102 C1103 1.391 . S
C1103 H1091 0.950 . S
C1103 C1099 1.393 . S
C1103 C1102 1.391 . S
H1104 C1112 0.950 . S
H1105 C1117 0.950 . S
H1106 C1114 0.950 . S
H1107 C1116 0.950 . S
H1108 C1118 0.950 . S
H1109 C1120 0.950 . S
H1110 C1122 0.950 . S
H1111 C1123 0.950 . S
C1112 H1104 0.950 . S
C1112 C1113 1.386 . S
C1112 C1114 1.391 . S
C1113 C1112 1.386 . S
C1113 C1117 1.393 . S
C1114 H1106 0.950 . S
C1114 C1112 1.391 . S
C1114 C1115 1.400 . S
C1115 C1114 1.400 . S
C1115 C1116 1.398 . S
C1115 C1121 1.491 . S
C1116 H1107 0.950 . S
C1116 C1115 1.398 . S
C1116 C1117 1.391 . S
C1117 H1105 0.950 . S
C1117 C1113 1.393 . S
C1117 C1116 1.391 . S
C1118 H1108 0.950 . S
C1118 C1119 1.386 . S
C1118 C1120 1.391 . S
C1119 C1118 1.386 . S
C1119 C1123 1.393 . S
C1120 H1109 0.950 . S
C1120 C1118 1.391 . S
C1120 C1121 1.400 . S
C1121 C1115 1.491 . S
C1121 C1120 1.400 . S
C1121 C1122 1.398 . S
C1122 H1110 0.950 . S
C1122 C1121 1.398 . S
C1122 C1123 1.391 . S
C1123 H1111 0.950 . S
C1123 C1119 1.393 . S
C1123 C1122 1.391 . S
H1124 C1132 0.950 . S
H1125 C1137 0.950 . S
H1126 C1134 0.950 . S
H1127 C1136 0.950 . S
H1128 C1138 0.950 . S
H1129 C1140 0.950 . S
H1130 C1142 0.950 . S
H1131 C1143 0.950 . S
C1132 H1124 0.950 . S
C1132 C1133 1.386 . S
C1132 C1134 1.391 . S
C1133 C1132 1.386 . S
C1133 C1137 1.393 . S
C1134 H1126 0.950 . S
C1134 C1132 1.391 . S
C1134 C1135 1.400 . S
C1135 C1134 1.400 . S
C1135 C1136 1.398 . S
C1135 C1141 1.491 . S
C1136 H1127 0.950 . S
C1136 C1135 1.398 . S
C1136 C1137 1.391 . S
C1137 H1125 0.950 . S
C1137 C1133 1.393 . S
C1137 C1136 1.391 . S
C1138 H1128 0.950 . S
C1138 C1139 1.386 . S
C1138 C1140 1.391 . S
C1139 C1138 1.386 . S
C1139 C1143 1.393 . S
C1140 H1129 0.950 . S
C1140 C1138 1.391 . S
C1140 C1141 1.400 . S
C1141 C1135 1.491 . S
C1141 C1140 1.400 . S
C1141 C1142 1.398 . S
C1142 H1130 0.950 . S
C1142 C1141 1.398 . S
C1142 C1143 1.391 . S
C1143 H1131 0.950 . S
C1143 C1139 1.393 . S
C1143 C1142 1.391 . S
H1144 C1152 0.950 . S
H1145 C1157 0.950 . S
H1146 C1154 0.950 . S
H1147 C1156 0.950 . S
H1148 C1158 0.950 . S
H1149 C1160 0.950 . S
H1150 C1162 0.950 . S
H1151 C1163 0.950 . S
C1152 H1144 0.950 . S
C1152 C1153 1.386 . S
C1152 C1154 1.391 . S
C1153 C1152 1.386 . S
C1153 C1157 1.393 . S
C1154 H1146 0.950 . S
C1154 C1152 1.391 . S
C1154 C1155 1.400 . S
C1155 C1154 1.400 . S
C1155 C1156 1.398 . S
C1155 C1161 1.491 . S
C1156 H1147 0.950 . S
C1156 C1155 1.398 . S
C1156 C1157 1.391 . S
C1157 H1145 0.950 . S
C1157 C1153 1.393 . S
C1157 C1156 1.391 . S
C1158 H1148 0.950 . S
C1158 C1159 1.386 . S
C1158 C1160 1.391 . S
C1159 C1158 1.386 . S
C1159 C1163 1.393 . S
C1160 H1149 0.950 . S
C1160 C1158 1.391 . S
C1160 C1161 1.400 . S
C1161 C1155 1.491 . S
C1161 C1160 1.400 . S
C1161 C1162 1.398 . S
C1162 H1150 0.950 . S
C1162 C1161 1.398 . S
C1162 C1163 1.391 . S
C1163 H1151 0.950 . S
C1163 C1159 1.393 . S
C1163 C1162 1.391 . S
H1164 C1172 0.950 . S
H1165 C1177 0.950 . S
H1166 C1174 0.950 . S
H1167 C1176 0.950 . S
H1168 C1178 0.950 . S
H1169 C1180 0.950 . S
H1170 C1182 0.950 . S
H1171 C1183 0.950 . S
C1172 H1164 0.950 . S
C1172 C1173 1.386 . S
C1172 C1174 1.391 . S
C1173 C1172 1.386 . S
C1173 C1177 1.393 . S
C1174 H1166 0.950 . S
C1174 C1172 1.391 . S
C1174 C1175 1.400 . S
C1175 C1174 1.400 . S
C1175 C1176 1.398 . S
C1175 C1181 1.491 . S
C1176 H1167 0.950 . S
C1176 C1175 1.398 . S
C1176 C1177 1.391 . S
C1177 H1165 0.950 . S
C1177 C1173 1.393 . S
C1177 C1176 1.391 . S
C1178 H1168 0.950 . S
C1178 C1179 1.386 . S
C1178 C1180 1.391 . S
C1179 C1178 1.386 . S
C1179 C1183 1.393 . S
C1180 H1169 0.950 . S
C1180 C1178 1.391 . S
C1180 C1181 1.400 . S
C1181 C1175 1.491 . S
C1181 C1180 1.400 . S
C1181 C1182 1.398 . S
C1182 H1170 0.950 . S
C1182 C1181 1.398 . S
C1182 C1183 1.391 . S
C1183 H1171 0.950 . S
C1183 C1179 1.393 . S
C1183 C1182 1.391 . S
H1184 C1192 0.950 . S
H1185 C1197 0.950 . S
H1186 C1194 0.950 . S
H1187 C1196 0.950 . S
H1188 C1198 0.950 . S
H1189 C1200 0.950 . S
H1190 C1202 0.950 . S
H1191 C1203 0.950 . S
C1192 H1184 0.950 . S
C1192 C1193 1.386 . S
C1192 C1194 1.391 . S
C1193 C1192 1.386 . S
C1193 C1197 1.393 . S
C1194 H1186 0.950 . S
C1194 C1192 1.391 . S
C1194 C1195 1.400 . S
C1195 C1194 1.400 . S
C1195 C1196 1.398 . S
C1195 C1201 1.491 . S
C1196 H1187 0.950 . S
C1196 C1195 1.398 . S
C1196 C1197 1.391 . S
C1197 H1185 0.950 . S
C1197 C1193 1.393 . S
C1197 C1196 1.391 . S
C1198 H1188 0.950 . S
C1198 C1199 1.386 . S
C1198 C1200 1.391 . S
C1199 C1198 1.386 . S
C1199 C1203 1.393 . S
C1200 H1189 0.950 . S
C1200 C1198 1.391 . S
C1200 C1201 1.400 . S
C1201 C1195 1.491 . S
C1201 C1200 1.400 . S
C1201 C1202 1.398 . S
C1202 H1190 0.950 . S
C1202 C1201 1.398 . S
C1202 C1203 1.391 . S
C1203 H1191 0.950 . S
C1203 C1199 1.393 . S
C1203 C1202 1.391 . S
H1204 C1212 0.950 . S
H1205 C1217 0.950 . S
H1206 C1214 0.950 . S
H1207 C1216 0.950 . S
H1208 C1218 0.950 . S
H1209 C1220 0.950 . S
H1210 C1222 0.950 . S
H1211 C1223 0.950 . S
C1212 H1204 0.950 . S
C1212 C1213 1.386 . S
C1212 C1214 1.391 . S
C1213 C1212 1.386 . S
C1213 C1217 1.393 . S
C1214 H1206 0.950 . S
C1214 C1212 1.391 . S
C1214 C1215 1.400 . S
C1215 C1214 1.400 . S
C1215 C1216 1.398 . S
C1215 C1221 1.491 . S
C1216 H1207 0.950 . S
C1216 C1215 1.398 . S
C1216 C1217 1.391 . S
C1217 H1205 0.950 . S
C1217 C1213 1.393 . S
C1217 C1216 1.391 . S
C1218 H1208 0.950 . S
C1218 C1219 1.386 . S
C1218 C1220 1.391 . S
C1219 C1218 1.386 . S
C1219 C1223 1.393 . S
C1220 H1209 0.950 . S
C1220 C1218 1.391 . S
C1220 C1221 1.400 . S
C1221 C1215 1.491 . S
C1221 C1220 1.400 . S
C1221 C1222 1.398 . S
C1222 H1210 0.950 . S
C1222 C1221 1.398 . S
C1222 C1223 1.391 . S
C1223 H1211 0.950 . S
C1223 C1219 1.393 . S
C1223 C1222 1.391 . S
H1224 C1232 0.950 . S
H1225 C1237 0.950 . S
H1226 C1234 0.950 . S
H1227 C1236 0.950 . S
H1228 C1238 0.950 . S
H1229 C1240 0.950 . S
H1230 C1242 0.950 . S
H1231 C1243 0.950 . S
C1232 H1224 0.950 . S
C1232 C1233 1.386 . S
C1232 C1234 1.391 . S
C1233 C1232 1.386 . S
C1233 C1237 1.393 . S
C1234 H1226 0.950 . S
C1234 C1232 1.391 . S
C1234 C1235 1.400 . S
C1235 C1234 1.400 . S
C1235 C1236 1.398 . S
C1235 C1241 1.491 . S
C1236 H1227 0.950 . S
C1236 C1235 1.398 . S
C1236 C1237 1.391 . S
C1237 H1225 0.950 . S
C1237 C1233 1.393 . S
C1237 C1236 1.391 . S
C1238 H1228 0.950 . S
C1238 C1239 1.386 . S
C1238 C1240 1.391 . S
C1239 C1238 1.386 . S
C1239 C1243 1.393 . S
C1240 H1229 0.950 . S
C1240 C1238 1.391 . S
C1240 C1241 1.400 . S
C1241 C1235 1.491 . S
C1241 C1240 1.400 . S
C1241 C1242 1.398 . S
C1242 H1230 0.950 . S
C1242 C1241 1.398 . S
C1242 C1243 1.391 . S
C1243 H1231 0.950 . S
C1243 C1239 1.393 . S
C1243 C1242 1.391 . S
H1244 C1252 0.950 . S
H1245 C1257 0.950 . S
H1246 C1254 0.950 . S
H1247 C1256 0.950 . S
H1248 C1258 0.950 . S
H1249 C1260 0.950 . S
H1250 C1262 0.950 . S
H1251 C1263 0.950 . S
C1252 H1244 0.950 . S
C1252 C1253 1.386 . S
C1252 C1254 1.391 . S
C1253 C1252 1.386 . S
C1253 C1257 1.393 . S
C1254 H1246 0.950 . S
C1254 C1252 1.391 . S
C1254 C1255 1.400 . S
C1255 C1254 1.400 . S
C1255 C1256 1.398 . S
C1255 C1261 1.491 . S
C1256 H1247 0.950 . S
C1256 C1255 1.398 . S
C1256 C1257 1.391 . S
C1257 H1245 0.950 . S
C1257 C1253 1.393 . S
C1257 C1256 1.391 . S
C1258 H1248 0.950 . S
C1258 C1259 1.386 . S
C1258 C1260 1.391 . S
C1259 C1258 1.386 . S
C1259 C1263 1.393 . S
C1260 H1249 0.950 . S
C1260 C1258 1.391 . S
C1260 C1261 1.400 . S
C1261 C1255 1.491 . S
C1261 C1260 1.400 . S
C1261 C1262 1.398 . S
C1262 H1250 0.950 . S
C1262 C1261 1.398 . S
C1262 C1263 1.391 . S
C1263 H1251 0.950 . S
C1263 C1259 1.393 . S
C1263 C1262 1.391 . S
H1264 C1272 0.950 . S
H1265 C1277 0.950 . S
H1266 C1274 0.950 . S
H1267 C1276 0.950 . S
H1268 C1278 0.950 . S
H1269 C1280 0.950 . S
H1270 C1282 0.950 . S
H1271 C1283 0.950 . S
C1272 H1264 0.950 . S
C1272 C1273 1.386 . S
C1272 C1274 1.391 . S
C1273 C1272 1.386 . S
C1273 C1277 1.393 . S
C1274 H1266 0.950 . S
C1274 C1272 1.391 . S
C1274 C1275 1.400 . S
C1275 C1274 1.400 . S
C1275 C1276 1.398 . S
C1275 C1281 1.491 . S
C1276 H1267 0.950 . S
C1276 C1275 1.398 . S
C1276 C1277 1.391 . S
C1277 H1265 0.950 . S
C1277 C1273 1.393 . S
C1277 C1276 1.391 . S
C1278 H1268 0.950 . S
C1278 C1279 1.386 . S
C1278 C1280 1.391 . S
C1279 C1278 1.386 . S
C1279 C1283 1.393 . S
C1280 H1269 0.950 . S
C1280 C1278 1.391 . S
C1280 C1281 1.400 . S
C1281 C1275 1.491 . S
C1281 C1280 1.400 . S
C1281 C1282 1.398 . S
C1282 H1270 0.950 . S
C1282 C1281 1.398 . S
C1282 C1283 1.391 . S
C1283 H1271 0.950 . S
C1283 C1279 1.393 . S
C1283 C1282 1.391 . S
H1284 C1292 0.950 . S
H1285 C1297 0.950 . S
H1286 C1294 0.950 . S
H1287 C1296 0.950 . S
H1288 C1298 0.950 . S
H1289 C1300 0.950 . S
H1290 C1302 0.950 . S
H1291 C1303 0.950 . S
C1292 H1284 0.950 . S
C1292 C1293 1.386 . S
C1292 C1294 1.391 . S
C1293 C1292 1.386 . S
C1293 C1297 1.393 . S
C1294 H1286 0.950 . S
C1294 C1292 1.391 . S
C1294 C1295 1.400 . S
C1295 C1294 1.400 . S
C1295 C1296 1.398 . S
C1295 C1301 1.491 . S
C1296 H1287 0.950 . S
C1296 C1295 1.398 . S
C1296 C1297 1.391 . S
C1297 H1285 0.950 . S
C1297 C1293 1.393 . S
C1297 C1296 1.391 . S
C1298 H1288 0.950 . S
C1298 C1299 1.386 . S
C1298 C1300 1.391 . S
C1299 C1298 1.386 . S
C1299 C1303 1.393 . S
C1300 H1289 0.950 . S
C1300 C1298 1.391 . S
C1300 C1301 1.400 . S
C1301 C1295 1.491 . S
C1301 C1300 1.400 . S
C1301 C1302 1.398 . S
C1302 H1290 0.950 . S
C1302 C1301 1.398 . S
C1302 C1303 1.391 . S
C1303 H1291 0.950 . S
C1303 C1299 1.393 . S
C1303 C1302 1.391 . S
H1304 C1312 0.950 . S
H1305 C1317 0.950 . S
H1306 C1314 0.950 . S
H1307 C1316 0.950 . S
H1308 C1318 0.950 . S
H1309 C1320 0.950 . S
H1310 C1322 0.950 . S
H1311 C1323 0.950 . S
C1312 H1304 0.950 . S
C1312 C1313 1.386 . S
C1312 C1314 1.391 . S
C1313 C1312 1.386 . S
C1313 C1317 1.393 . S
C1314 H1306 0.950 . S
C1314 C1312 1.391 . S
C1314 C1315 1.400 . S
C1315 C1314 1.400 . S
C1315 C1316 1.398 . S
C1315 C1321 1.491 . S
C1316 H1307 0.950 . S
C1316 C1315 1.398 . S
C1316 C1317 1.391 . S
C1317 H1305 0.950 . S
C1317 C1313 1.393 . S
C1317 C1316 1.391 . S
C1318 H1308 0.950 . S
C1318 C1319 1.386 . S
C1318 C1320 1.391 . S
C1319 C1318 1.386 . S
C1319 C1323 1.393 . S
C1320 H1309 0.950 . S
C1320 C1318 1.391 . S
C1320 C1321 1.400 . S
C1321 C1315 1.491 . S
C1321 C1320 1.400 . S
C1321 C1322 1.398 . S
C1322 H1310 0.950 . S
C1322 C1321 1.398 . S
C1322 C1323 1.391 . S
C1323 H1311 0.950 . S
C1323 C1319 1.393 . S
C1323 C1322 1.391 . S
H1324 C1332 0.950 . S
H1325 C1337 0.950 . S
H1326 C1334 0.950 . S
H1327 C1336 0.950 . S
H1328 C1338 0.950 . S
H1329 C1340 0.950 . S
H1330 C1342 0.950 . S
H1331 C1343 0.950 . S
C1332 H1324 0.950 . S
C1332 C1333 1.386 . S
C1332 C1334 1.391 . S
C1333 C1332 1.386 . S
C1333 C1337 1.393 . S
C1334 H1326 0.950 . S
C1334 C1332 1.391 . S
C1334 C1335 1.400 . S
C1335 C1334 1.400 . S
C1335 C1336 1.398 . S
C1335 C1341 1.491 . S
C1336 H1327 0.950 . S
C1336 C1335 1.398 . S
C1336 C1337 1.391 . S
C1337 H1325 0.950 . S
C1337 C1333 1.393 . S
C1337 C1336 1.391 . S
C1338 H1328 0.950 . S
C1338 C1339 1.386 . S
C1338 C1340 1.391 . S
C1339 C1338 1.386 . S
C1339 C1343 1.393 . S
C1340 H1329 0.950 . S
C1340 C1338 1.391 . S
C1340 C1341 1.400 . S
C1341 C1335 1.491 . S
C1341 C1340 1.400 . S
C1341 C1342 1.398 . S
C1342 H1330 0.950 . S
C1342 C1341 1.398 . S
C1342 C1343 1.391 . S
C1343 H1331 0.950 . S
C1343 C1339 1.393 . S
C1343 C1342 1.391 . S
H1344 C1352 0.950 . S
H1345 C1357 0.950 . S
H1346 C1354 0.950 . S
H1347 C1356 0.950 . S
H1348 C1358 0.950 . S
H1349 C1360 0.950 . S
H1350 C1362 0.950 . S
H1351 C1363 0.950 . S
C1352 H1344 0.950 . S
C1352 C1353 1.386 . S
C1352 C1354 1.391 . S
C1353 C1352 1.386 . S
C1353 C1357 1.393 . S
C1354 H1346 0.950 . S
C1354 C1352 1.391 . S
C1354 C1355 1.400 . S
C1355 C1354 1.400 . S
C1355 C1356 1.398 . S
C1355 C1361 1.491 1_554 S
C1356 H1347 0.950 . S
C1356 C1355 1.398 . S
C1356 C1357 1.391 . S
C1357 H1345 0.950 . S
C1357 C1353 1.393 . S
C1357 C1356 1.391 . S
C1358 H1348 0.950 . S
C1358 C1359 1.386 . S
C1358 C1360 1.391 . S
C1359 C1358 1.386 . S
C1359 C1363 1.393 . S
C1360 H1349 0.950 . S
C1360 C1358 1.391 . S
C1360 C1361 1.400 . S
C1361 C1355 1.491 1_556 S
C1361 C1360 1.400 . S
C1361 C1362 1.398 . S
C1362 H1350 0.950 . S
C1362 C1361 1.398 . S
C1362 C1363 1.391 . S
C1363 H1351 0.950 . S
C1363 C1359 1.393 . S
C1363 C1362 1.391 . S
H1364 C1372 0.950 . S
H1365 C1377 0.950 . S
H1366 C1374 0.950 . S
H1367 C1376 0.950 . S
H1368 C1378 0.950 . S
H1369 C1380 0.950 . S
H1370 C1382 0.950 . S
H1371 C1383 0.950 . S
C1372 H1364 0.950 . S
C1372 C1373 1.386 . S
C1372 C1374 1.391 . S
C1373 C1372 1.386 . S
C1373 C1377 1.393 . S
C1374 H1366 0.950 . S
C1374 C1372 1.391 . S
C1374 C1375 1.400 . S
C1375 C1374 1.400 . S
C1375 C1376 1.398 . S
C1375 C1381 1.491 1_556 S
C1376 H1367 0.950 . S
C1376 C1375 1.398 . S
C1376 C1377 1.391 . S
C1377 H1365 0.950 . S
C1377 C1373 1.393 . S
C1377 C1376 1.391 . S
C1378 H1368 0.950 . S
C1378 C1379 1.386 . S
C1378 C1380 1.391 . S
C1379 C1378 1.386 . S
C1379 C1383 1.393 . S
C1380 H1369 0.950 . S
C1380 C1378 1.391 . S
C1380 C1381 1.400 . S
C1381 C1375 1.491 1_554 S
C1381 C1380 1.400 . S
C1381 C1382 1.398 . S
C1382 H1370 0.950 . S
C1382 C1381 1.398 . S
C1382 C1383 1.391 . S
C1383 H1371 0.950 . S
C1383 C1379 1.393 . S
C1383 C1382 1.391 . S
H1384 C1392 0.950 . S
H1385 C1397 0.950 . S
H1386 C1394 0.950 . S
H1387 C1396 0.950 . S
H1388 C1398 0.950 . S
H1389 C1400 0.950 . S
H1390 C1402 0.950 . S
H1391 C1403 0.950 . S
C1392 H1384 0.950 . S
C1392 C1393 1.386 . S
C1392 C1394 1.391 . S
C1393 C1392 1.386 . S
C1393 C1397 1.393 . S
C1394 H1386 0.950 . S
C1394 C1392 1.391 . S
C1394 C1395 1.400 . S
C1395 C1394 1.400 . S
C1395 C1396 1.398 . S
C1395 C1401 1.491 1_556 S
C1396 H1387 0.950 . S
C1396 C1395 1.398 . S
C1396 C1397 1.391 . S
C1397 H1385 0.950 . S
C1397 C1393 1.393 . S
C1397 C1396 1.391 . S
C1398 H1388 0.950 . S
C1398 C1399 1.386 . S
C1398 C1400 1.391 . S
C1399 C1398 1.386 . S
C1399 C1403 1.393 . S
C1400 H1389 0.950 . S
C1400 C1398 1.391 . S
C1400 C1401 1.400 . S
C1401 C1395 1.491 1_554 S
C1401 C1400 1.400 . S
C1401 C1402 1.398 . S
C1402 H1390 0.950 . S
C1402 C1401 1.398 . S
C1402 C1403 1.391 . S
C1403 H1391 0.950 . S
C1403 C1399 1.393 . S
C1403 C1402 1.391 . S
H1404 C1412 0.950 . S
H1405 C1417 0.950 . S
H1406 C1414 0.950 . S
H1407 C1416 0.950 . S
H1408 C1418 0.950 . S
H1409 C1420 0.950 . S
H1410 C1422 0.950 . S
H1411 C1423 0.950 . S
C1412 H1404 0.950 . S
C1412 C1413 1.386 . S
C1412 C1414 1.391 . S
C1413 C1412 1.386 . S
C1413 C1417 1.393 . S
C1414 H1406 0.950 . S
C1414 C1412 1.391 . S
C1414 C1415 1.400 . S
C1415 C1414 1.400 . S
C1415 C1416 1.398 . S
C1415 C1421 1.491 1_554 S
C1416 H1407 0.950 . S
C1416 C1415 1.398 . S
C1416 C1417 1.391 . S
C1417 H1405 0.950 . S
C1417 C1413 1.393 . S
C1417 C1416 1.391 . S
C1418 H1408 0.950 . S
C1418 C1419 1.386 . S
C1418 C1420 1.391 . S
C1419 C1418 1.386 . S
C1419 C1423 1.393 . S
C1420 H1409 0.950 . S
C1420 C1418 1.391 . S
C1420 C1421 1.400 . S
C1421 C1415 1.491 1_556 S
C1421 C1420 1.400 . S
C1421 C1422 1.398 . S
C1422 H1410 0.950 . S
C1422 C1421 1.398 . S
C1422 C1423 1.391 . S
C1423 H1411 0.950 . S
C1423 C1419 1.393 . S
C1423 C1422 1.391 . S
H1424 C1432 0.950 . S
H1425 C1437 0.950 . S
H1426 C1434 0.950 . S
H1427 C1436 0.950 . S
H1428 C1438 0.950 . S
H1429 C1440 0.950 . S
H1430 C1442 0.950 . S
H1431 C1443 0.950 . S
C1432 H1424 0.950 . S
C1432 C1433 1.386 . S
C1432 C1434 1.391 . S
C1433 C1432 1.386 . S
C1433 C1437 1.393 . S
C1434 H1426 0.950 . S
C1434 C1432 1.391 . S
C1434 C1435 1.400 . S
C1435 C1434 1.400 . S
C1435 C1436 1.398 . S
C1435 C1441 1.491 1_554 S
C1436 H1427 0.950 . S
C1436 C1435 1.398 . S
C1436 C1437 1.391 . S
C1437 H1425 0.950 . S
C1437 C1433 1.393 . S
C1437 C1436 1.391 . S
C1438 H1428 0.950 . S
C1438 C1439 1.386 . S
C1438 C1440 1.391 . S
C1439 C1438 1.386 . S
C1439 C1443 1.393 . S
C1440 H1429 0.950 . S
C1440 C1438 1.391 . S
C1440 C1441 1.400 . S
C1441 C1435 1.491 1_556 S
C1441 C1440 1.400 . S
C1441 C1442 1.398 . S
C1442 H1430 0.950 . S
C1442 C1441 1.398 . S
C1442 C1443 1.391 . S
C1443 H1431 0.950 . S
C1443 C1439 1.393 . S
C1443 C1442 1.391 . S
H1444 C1452 0.950 . S
H1445 C1457 0.950 . S
H1446 C1454 0.950 . S
H1447 C1456 0.950 . S
H1448 C1458 0.950 . S
H1449 C1460 0.950 . S
H1450 C1462 0.950 . S
H1451 C1463 0.950 . S
C1452 H1444 0.950 . S
C1452 C1453 1.386 . S
C1452 C1454 1.391 . S
C1453 C1452 1.386 . S
C1453 C1457 1.393 . S
C1454 H1446 0.950 . S
C1454 C1452 1.391 . S
C1454 C1455 1.400 . S
C1455 C1454 1.400 . S
C1455 C1456 1.398 . S
C1455 C1461 1.491 1_556 S
C1456 H1447 0.950 . S
C1456 C1455 1.398 . S
C1456 C1457 1.391 . S
C1457 H1445 0.950 . S
C1457 C1453 1.393 . S
C1457 C1456 1.391 . S
C1458 H1448 0.950 . S
C1458 C1459 1.386 . S
C1458 C1460 1.391 . S
C1459 C1458 1.386 . S
C1459 C1463 1.393 . S
C1460 H1449 0.950 . S
C1460 C1458 1.391 . S
C1460 C1461 1.400 . S
C1461 C1455 1.491 1_554 S
C1461 C1460 1.400 . S
C1461 C1462 1.398 . S
C1462 H1450 0.950 . S
C1462 C1461 1.398 . S
C1462 C1463 1.391 . S
C1463 H1451 0.950 . S
C1463 C1459 1.393 . S
C1463 C1462 1.391 . S
H1464 C1472 0.950 . S
H1465 C1477 0.950 . S
H1466 C1474 0.950 . S
H1467 C1476 0.950 . S
H1468 C1478 0.950 . S
H1469 C1480 0.950 . S
H1470 C1482 0.950 . S
H1471 C1483 0.950 . S
C1472 H1464 0.950 . S
C1472 C1473 1.386 . S
C1472 C1474 1.391 . S
C1473 C1472 1.386 . S
C1473 C1477 1.393 . S
C1474 H1466 0.950 . S
C1474 C1472 1.391 . S
C1474 C1475 1.400 . S
C1475 C1474 1.400 . S
C1475 C1476 1.398 . S
C1475 C1481 1.491 . S
C1476 H1467 0.950 . S
C1476 C1475 1.398 . S
C1476 C1477 1.391 . S
C1477 H1465 0.950 . S
C1477 C1473 1.393 . S
C1477 C1476 1.391 . S
C1478 H1468 0.950 . S
C1478 C1479 1.386 . S
C1478 C1480 1.391 . S
C1479 C1478 1.386 . S
C1479 C1483 1.393 . S
C1480 H1469 0.950 . S
C1480 C1478 1.391 . S
C1480 C1481 1.400 . S
C1481 C1475 1.491 . S
C1481 C1480 1.400 . S
C1481 C1482 1.398 . S
C1482 H1470 0.950 . S
C1482 C1481 1.398 . S
C1482 C1483 1.391 . S
C1483 H1471 0.950 . S
C1483 C1479 1.393 . S
C1483 C1482 1.391 . S
H1484 C1492 0.950 . S
H1485 C1497 0.950 . S
H1486 C1494 0.950 . S
H1487 C1496 0.950 . S
H1488 C1498 0.950 . S
H1489 C1500 0.950 . S
H1490 C1502 0.950 . S
H1491 C1503 0.950 . S
C1492 H1484 0.950 . S
C1492 C1493 1.386 . S
C1492 C1494 1.391 . S
C1493 C1492 1.386 . S
C1493 C1497 1.393 . S
C1494 H1486 0.950 . S
C1494 C1492 1.391 . S
C1494 C1495 1.400 . S
C1495 C1494 1.400 . S
C1495 C1496 1.398 . S
C1495 C1501 1.491 . S
C1496 H1487 0.950 . S
C1496 C1495 1.398 . S
C1496 C1497 1.391 . S
C1497 H1485 0.950 . S
C1497 C1493 1.393 . S
C1497 C1496 1.391 . S
C1498 H1488 0.950 . S
C1498 C1499 1.386 . S
C1498 C1500 1.391 . S
C1499 C1498 1.386 . S
C1499 C1503 1.393 . S
C1500 H1489 0.950 . S
C1500 C1498 1.391 . S
C1500 C1501 1.400 . S
C1501 C1495 1.491 . S
C1501 C1500 1.400 . S
C1501 C1502 1.398 . S
C1502 H1490 0.950 . S
C1502 C1501 1.398 . S
C1502 C1503 1.391 . S
C1503 H1491 0.950 . S
C1503 C1499 1.393 . S
C1503 C1502 1.391 . S
H1504 C1512 0.950 . S
H1505 C1517 0.950 . S
H1506 C1514 0.950 . S
H1507 C1516 0.950 . S
H1508 C1518 0.950 . S
H1509 C1520 0.950 . S
H1510 C1522 0.950 . S
H1511 C1523 0.950 . S
C1512 H1504 0.950 . S
C1512 C1513 1.386 . S
C1512 C1514 1.391 . S
C1513 C1512 1.386 . S
C1513 C1517 1.393 . S
C1514 H1506 0.950 . S
C1514 C1512 1.391 . S
C1514 C1515 1.400 . S
C1515 C1514 1.400 . S
C1515 C1516 1.398 . S
C1515 C1521 1.491 . S
C1516 H1507 0.950 . S
C1516 C1515 1.398 . S
C1516 C1517 1.391 . S
C1517 H1505 0.950 . S
C1517 C1513 1.393 . S
C1517 C1516 1.391 . S
C1518 H1508 0.950 . S
C1518 C1519 1.386 . S
C1518 C1520 1.391 . S
C1519 C1518 1.386 . S
C1519 C1523 1.393 . S
C1520 H1509 0.950 . S
C1520 C1518 1.391 . S
C1520 C1521 1.400 . S
C1521 C1515 1.491 . S
C1521 C1520 1.400 . S
C1521 C1522 1.398 . S
C1522 H1510 0.950 . S
C1522 C1521 1.398 . S
C1522 C1523 1.391 . S
C1523 H1511 0.950 . S
C1523 C1519 1.393 . S
C1523 C1522 1.391 . S
H1524 C1532 0.950 . S
H1525 C1537 0.950 . S
H1526 C1534 0.950 . S
H1527 C1536 0.950 . S
H1528 C1538 0.950 . S
H1529 C1540 0.950 . S
H1530 C1542 0.950 . S
H1531 C1543 0.950 . S
C1532 H1524 0.950 . S
C1532 C1533 1.386 . S
C1532 C1534 1.391 . S
C1533 C1532 1.386 . S
C1533 C1537 1.393 . S
C1534 H1526 0.950 . S
C1534 C1532 1.391 . S
C1534 C1535 1.400 . S
C1535 C1534 1.400 . S
C1535 C1536 1.398 . S
C1535 C1541 1.491 . S
C1536 H1527 0.950 . S
C1536 C1535 1.398 . S
C1536 C1537 1.391 . S
C1537 H1525 0.950 . S
C1537 C1533 1.393 . S
C1537 C1536 1.391 . S
C1538 H1528 0.950 . S
C1538 C1539 1.386 . S
C1538 C1540 1.391 . S
C1539 C1538 1.386 . S
C1539 C1543 1.393 . S
C1540 H1529 0.950 . S
C1540 C1538 1.391 . S
C1540 C1541 1.400 . S
C1541 C1535 1.491 . S
C1541 C1540 1.400 . S
C1541 C1542 1.398 . S
C1542 H1530 0.950 . S
C1542 C1541 1.398 . S
C1542 C1543 1.391 . S
C1543 H1531 0.950 . S
C1543 C1539 1.393 . S
C1543 C1542 1.391 . S
H1544 C1552 0.950 . S
H1545 C1557 0.950 . S
H1546 C1554 0.950 . S
H1547 C1556 0.950 . S
H1548 C1558 0.950 . S
H1549 C1560 0.950 . S
H1550 C1562 0.950 . S
H1551 C1563 0.950 . S
C1552 H1544 0.950 . S
C1552 C1553 1.386 . S
C1552 C1554 1.391 . S
C1553 C1552 1.386 . S
C1553 C1557 1.393 . S
C1554 H1546 0.950 . S
C1554 C1552 1.391 . S
C1554 C1555 1.400 . S
C1555 C1554 1.400 . S
C1555 C1556 1.398 . S
C1555 C1561 1.491 . S
C1556 H1547 0.950 . S
C1556 C1555 1.398 . S
C1556 C1557 1.391 . S
C1557 H1545 0.950 . S
C1557 C1553 1.393 . S
C1557 C1556 1.391 . S
C1558 H1548 0.950 . S
C1558 C1559 1.386 . S
C1558 C1560 1.391 . S
C1559 C1558 1.386 . S
C1559 C1563 1.393 . S
C1560 H1549 0.950 . S
C1560 C1558 1.391 . S
C1560 C1561 1.400 . S
C1561 C1555 1.491 . S
C1561 C1560 1.400 . S
C1561 C1562 1.398 . S
C1562 H1550 0.950 . S
C1562 C1561 1.398 . S
C1562 C1563 1.391 . S
C1563 H1551 0.950 . S
C1563 C1559 1.393 . S
C1563 C1562 1.391 . S
H1564 C1572 0.950 . S
H1565 C1577 0.950 . S
H1566 C1574 0.950 . S
H1567 C1576 0.950 . S
H1568 C1578 0.950 . S
H1569 C1580 0.950 . S
H1570 C1582 0.950 . S
H1571 C1583 0.950 . S
C1572 H1564 0.950 . S
C1572 C1573 1.386 . S
C1572 C1574 1.391 . S
C1573 C1572 1.386 . S
C1573 C1577 1.393 . S
C1574 H1566 0.950 . S
C1574 C1572 1.391 . S
C1574 C1575 1.400 . S
C1575 C1574 1.400 . S
C1575 C1576 1.398 . S
C1575 C1581 1.491 . S
C1576 H1567 0.950 . S
C1576 C1575 1.398 . S
C1576 C1577 1.391 . S
C1577 H1565 0.950 . S
C1577 C1573 1.393 . S
C1577 C1576 1.391 . S
C1578 H1568 0.950 . S
C1578 C1579 1.386 . S
C1578 C1580 1.391 . S
C1579 C1578 1.386 . S
C1579 C1583 1.393 . S
C1580 H1569 0.950 . S
C1580 C1578 1.391 . S
C1580 C1581 1.400 . S
C1581 C1575 1.491 . S
C1581 C1580 1.400 . S
C1581 C1582 1.398 . S
C1582 H1570 0.950 . S
C1582 C1581 1.398 . S
C1582 C1583 1.391 . S
C1583 H1571 0.950 . S
C1583 C1579 1.393 . S
C1583 C1582 1.391 . S
H1584 C1592 0.950 . S
H1585 C1597 0.950 . S
H1586 C1594 0.950 . S
H1587 C1596 0.950 . S
H1588 C1598 0.950 . S
H1589 C1600 0.950 . S
H1590 C1602 0.950 . S
H1591 C1603 0.950 . S
C1592 H1584 0.950 . S
C1592 C1593 1.386 . S
C1592 C1594 1.391 . S
C1593 C1592 1.386 . S
C1593 C1597 1.393 . S
C1594 H1586 0.950 . S
C1594 C1592 1.391 . S
C1594 C1595 1.400 . S
C1595 C1594 1.400 . S
C1595 C1596 1.398 . S
C1595 C1601 1.491 . S
C1596 H1587 0.950 . S
C1596 C1595 1.398 . S
C1596 C1597 1.391 . S
C1597 H1585 0.950 . S
C1597 C1593 1.393 . S
C1597 C1596 1.391 . S
C1598 H1588 0.950 . S
C1598 C1599 1.386 . S
C1598 C1600 1.391 . S
C1599 C1598 1.386 . S
C1599 C1603 1.393 . S
C1600 H1589 0.950 . S
C1600 C1598 1.391 . S
C1600 C1601 1.400 . S
C1601 C1595 1.491 . S
C1601 C1600 1.400 . S
C1601 C1602 1.398 . S
C1602 H1590 0.950 . S
C1602 C1601 1.398 . S
C1602 C1603 1.391 . S
C1603 H1591 0.950 . S
C1603 C1599 1.393 . S
C1603 C1602 1.391 . S
H1604 C1612 0.950 . S
H1605 C1617 0.950 . S
H1606 C1614 0.950 . S
H1607 C1616 0.950 . S
H1608 C1618 0.950 . S
H1609 C1620 0.950 . S
H1610 C1622 0.950 . S
H1611 C1623 0.950 . S
C1612 H1604 0.950 . S
C1612 C1613 1.386 . S
C1612 C1614 1.391 . S
C1613 C1612 1.386 . S
C1613 C1617 1.393 . S
C1614 H1606 0.950 . S
C1614 C1612 1.391 . S
C1614 C1615 1.400 . S
C1615 C1614 1.400 . S
C1615 C1616 1.398 . S
C1615 C1621 1.491 . S
C1616 H1607 0.950 . S
C1616 C1615 1.398 . S
C1616 C1617 1.391 . S
C1617 H1605 0.950 . S
C1617 C1613 1.393 . S
C1617 C1616 1.391 . S
C1618 H1608 0.950 . S
C1618 C1619 1.386 . S
C1618 C1620 1.391 . S
C1619 C1618 1.386 . S
C1619 C1623 1.393 . S
C1620 H1609 0.950 . S
C1620 C1618 1.391 . S
C1620 C1621 1.400 . S
C1621 C1615 1.491 . S
C1621 C1620 1.400 . S
C1621 C1622 1.398 . S
C1622 H1610 0.950 . S
C1622 C1621 1.398 . S
C1622 C1623 1.391 . S
C1623 H1611 0.950 . S
C1623 C1619 1.393 . S
C1623 C1622 1.391 . S
H1624 C1632 0.950 . S
H1625 C1637 0.950 . S
H1626 C1634 0.950 . S
H1627 C1636 0.950 . S
H1628 C1638 0.950 . S
H1629 C1640 0.950 . S
H1630 C1642 0.950 . S
H1631 C1643 0.950 . S
C1632 H1624 0.950 . S
C1632 C1633 1.386 . S
C1632 C1634 1.391 . S
C1633 C1632 1.386 . S
C1633 C1637 1.393 . S
C1634 H1626 0.950 . S
C1634 C1632 1.391 . S
C1634 C1635 1.400 . S
C1635 C1634 1.400 . S
C1635 C1636 1.398 . S
C1635 C1641 1.491 . S
C1636 H1627 0.950 . S
C1636 C1635 1.398 . S
C1636 C1637 1.391 . S
C1637 H1625 0.950 . S
C1637 C1633 1.393 . S
C1637 C1636 1.391 . S
C1638 H1628 0.950 . S
C1638 C1639 1.386 . S
C1638 C1640 1.391 . S
C1639 C1638 1.386 . S
C1639 C1643 1.393 . S
C1640 H1629 0.950 . S
C1640 C1638 1.391 . S
C1640 C1641 1.400 . S
C1641 C1635 1.491 . S
C1641 C1640 1.400 . S
C1641 C1642 1.398 . S
C1642 H1630 0.950 . S
C1642 C1641 1.398 . S
C1642 C1643 1.391 . S
C1643 H1631 0.950 . S
C1643 C1639 1.393 . S
C1643 C1642 1.391 . S
H1644 C1652 0.950 . S
H1645 C1657 0.950 . S
H1646 C1654 0.950 . S
H1647 C1656 0.950 . S
H1648 C1658 0.950 . S
H1649 C1660 0.950 . S
H1650 C1662 0.950 . S
H1651 C1663 0.950 . S
C1652 H1644 0.950 . S
C1652 C1653 1.386 . S
C1652 C1654 1.391 . S
C1653 C1652 1.386 . S
C1653 C1657 1.393 . S
C1654 H1646 0.950 . S
C1654 C1652 1.391 . S
C1654 C1655 1.400 . S
C1655 C1654 1.400 . S
C1655 C1656 1.398 . S
C1655 C1661 1.491 . S
C1656 H1647 0.950 . S
C1656 C1655 1.398 . S
C1656 C1657 1.391 . S
C1657 H1645 0.950 . S
C1657 C1653 1.393 . S
C1657 C1656 1.391 . S
C1658 H1648 0.950 . S
C1658 C1659 1.386 . S
C1658 C1660 1.391 . S
C1659 C1658 1.386 . S
C1659 C1663 1.393 . S
C1660 H1649 0.950 . S
C1660 C1658 1.391 . S
C1660 C1661 1.400 . S
C1661 C1655 1.491 . S
C1661 C1660 1.400 . S
C1661 C1662 1.398 . S
C1662 H1650 0.950 . S
C1662 C1661 1.398 . S
C1662 C1663 1.391 . S
C1663 H1651 0.950 . S
C1663 C1659 1.393 . S
C1663 C1662 1.391 . S
H1664 C1672 0.950 . S
H1665 C1677 0.950 . S
H1666 C1674 0.950 . S
H1667 C1676 0.950 . S
H1668 C1678 0.950 . S
H1669 C1680 0.950 . S
H1670 C1682 0.950 . S
H1671 C1683 0.950 . S
C1672 H1664 0.950 . S
C1672 C1673 1.386 . S
C1672 C1674 1.391 . S
C1673 C1672 1.386 . S
C1673 C1677 1.393 . S
C1674 H1666 0.950 . S
C1674 C1672 1.391 . S
C1674 C1675 1.400 . S
C1675 C1674 1.400 . S
C1675 C1676 1.398 . S
C1675 C1681 1.491 . S
C1676 H1667 0.950 . S
C1676 C1675 1.398 . S
C1676 C1677 1.391 . S
C1677 H1665 0.950 . S
C1677 C1673 1.393 . S
C1677 C1676 1.391 . S
C1678 H1668 0.950 . S
C1678 C1679 1.386 . S
C1678 C1680 1.391 . S
C1679 C1678 1.386 . S
C1679 C1683 1.393 . S
C1680 H1669 0.950 . S
C1680 C1678 1.391 . S
C1680 C1681 1.400 . S
C1681 C1675 1.491 . S
C1681 C1680 1.400 . S
C1681 C1682 1.398 . S
C1682 H1670 0.950 . S
C1682 C1681 1.398 . S
C1682 C1683 1.391 . S
C1683 H1671 0.950 . S
C1683 C1679 1.393 . S
C1683 C1682 1.391 . S
H1684 C1692 0.950 . S
H1685 C1697 0.950 . S
H1686 C1694 0.950 . S
H1687 C1696 0.950 . S
H1688 C1698 0.950 . S
H1689 C1700 0.950 . S
H1690 C1702 0.950 . S
H1691 C1703 0.950 . S
C1692 H1684 0.950 . S
C1692 C1693 1.386 . S
C1692 C1694 1.391 . S
C1693 C1692 1.386 . S
C1693 C1697 1.393 . S
C1694 H1686 0.950 . S
C1694 C1692 1.391 . S
C1694 C1695 1.400 . S
C1695 C1694 1.400 . S
C1695 C1696 1.398 . S
C1695 C1701 1.491 . S
C1696 H1687 0.950 . S
C1696 C1695 1.398 . S
C1696 C1697 1.391 . S
C1697 H1685 0.950 . S
C1697 C1693 1.393 . S
C1697 C1696 1.391 . S
C1698 H1688 0.950 . S
C1698 C1699 1.386 . S
C1698 C1700 1.391 . S
C1699 C1698 1.386 . S
C1699 C1703 1.393 . S
C1700 H1689 0.950 . S
C1700 C1698 1.391 . S
C1700 C1701 1.400 . S
C1701 C1695 1.491 . S
C1701 C1700 1.400 . S
C1701 C1702 1.398 . S
C1702 H1690 0.950 . S
C1702 C1701 1.398 . S
C1702 C1703 1.391 . S
C1703 H1691 0.950 . S
C1703 C1699 1.393 . S
C1703 C1702 1.391 . S
H1704 C1712 0.950 . S
H1705 C1717 0.950 . S
H1706 C1714 0.950 . S
H1707 C1716 0.950 . S
H1708 C1718 0.950 . S
H1709 C1720 0.950 . S
H1710 C1722 0.950 . S
H1711 C1723 0.950 . S
C1712 H1704 0.950 . S
C1712 C1713 1.386 . S
C1712 C1714 1.391 . S
C1713 C1712 1.386 . S
C1713 C1717 1.393 . S
C1714 H1706 0.950 . S
C1714 C1712 1.391 . S
C1714 C1715 1.400 . S
C1715 C1714 1.400 . S
C1715 C1716 1.398 . S
C1715 C1721 1.491 . S
C1716 H1707 0.950 . S
C1716 C1715 1.398 . S
C1716 C1717 1.391 . S
C1717 H1705 0.950 . S
C1717 C1713 1.393 . S
C1717 C1716 1.391 . S
C1718 H1708 0.950 . S
C1718 C1719 1.386 . S
C1718 C1720 1.391 . S
C1719 C1718 1.386 . S
C1719 C1723 1.393 . S
C1720 H1709 0.950 . S
C1720 C1718 1.391 . S
C1720 C1721 1.400 . S
C1721 C1715 1.491 . S
C1721 C1720 1.400 . S
C1721 C1722 1.398 . S
C1722 H1710 0.950 . S
C1722 C1721 1.398 . S
C1722 C1723 1.391 . S
C1723 H1711 0.950 . S
C1723 C1719 1.393 . S
C1723 C1722 1.391 . S
H1724 C1732 0.950 . S
H1725 C1737 0.950 . S
H1726 C1734 0.950 . S
H1727 C1736 0.950 . S
H1728 C1738 0.950 . S
H1729 C1740 0.950 . S
H1730 C1742 0.950 . S
H1731 C1743 0.950 . S
C1732 H1724 0.950 . S
C1732 C1733 1.386 . S
C1732 C1734 1.391 . S
C1733 C1732 1.386 . S
C1733 C1737 1.393 . S
C1734 H1726 0.950 . S
C1734 C1732 1.391 . S
C1734 C1735 1.400 . S
C1735 C1734 1.400 . S
C1735 C1736 1.398 . S
C1735 C1741 1.491 . S
C1736 H1727 0.950 . S
C1736 C1735 1.398 . S
C1736 C1737 1.391 . S
C1737 H1725 0.950 . S
C1737 C1733 1.393 . S
C1737 C1736 1.391 . S
C1738 H1728 0.950 . S
C1738 C1739 1.386 . S
C1738 C1740 1.391 . S
C1739 C1738 1.386 . S
C1739 C1743 1.393 . S
C1740 H1729 0.950 . S
C1740 C1738 1.391 . S
C1740 C1741 1.400 . S
C1741 C1735 1.491 . S
C1741 C1740 1.400 . S
C1741 C1742 1.398 . S
C1742 H1730 0.950 . S
C1742 C1741 1.398 . S
C1742 C1743 1.391 . S
C1743 H1731 0.950 . S
C1743 C1739 1.393 . S
C1743 C1742 1.391 . S
H1744 C1752 0.950 . S
H1745 C1757 0.950 . S
H1746 C1754 0.950 . S
H1747 C1756 0.950 . S
H1748 C1758 0.950 . S
H1749 C1760 0.950 . S
H1750 C1762 0.950 . S
H1751 C1763 0.950 . S
C1752 H1744 0.950 . S
C1752 C1753 1.386 . S
C1752 C1754 1.391 . S
C1753 C1752 1.386 . S
C1753 C1757 1.393 . S
C1754 H1746 0.950 . S
C1754 C1752 1.391 . S
C1754 C1755 1.400 . S
C1755 C1754 1.400 . S
C1755 C1756 1.398 . S
C1755 C1761 1.491 . S
C1756 H1747 0.950 . S
C1756 C1755 1.398 . S
C1756 C1757 1.391 . S
C1757 H1745 0.950 . S
C1757 C1753 1.393 . S
C1757 C1756 1.391 . S
C1758 H1748 0.950 . S
C1758 C1759 1.386 . S
C1758 C1760 1.391 . S
C1759 C1758 1.386 . S
C1759 C1763 1.393 . S
C1760 H1749 0.950 . S
C1760 C1758 1.391 . S
C1760 C1761 1.400 . S
C1761 C1755 1.491 . S
C1761 C1760 1.400 . S
C1761 C1762 1.398 . S
C1762 H1750 0.950 . S
C1762 C1761 1.398 . S
C1762 C1763 1.391 . S
C1763 H1751 0.950 . S
C1763 C1759 1.393 . S
C1763 C1762 1.391 . S
H1764 C1772 0.950 . S
H1765 C1777 0.950 . S
H1766 C1774 0.950 . S
H1767 C1776 0.950 . S
H1768 C1778 0.950 . S
H1769 C1780 0.950 . S
H1770 C1782 0.950 . S
H1771 C1783 0.950 . S
C1772 H1764 0.950 . S
C1772 C1773 1.386 . S
C1772 C1774 1.391 . S
C1773 C1772 1.386 . S
C1773 C1777 1.393 . S
C1774 H1766 0.950 . S
C1774 C1772 1.391 . S
C1774 C1775 1.400 . S
C1775 C1774 1.400 . S
C1775 C1776 1.398 . S
C1775 C1781 1.491 . S
C1776 H1767 0.950 . S
C1776 C1775 1.398 . S
C1776 C1777 1.391 . S
C1777 H1765 0.950 . S
C1777 C1773 1.393 . S
C1777 C1776 1.391 . S
C1778 H1768 0.950 . S
C1778 C1779 1.386 . S
C1778 C1780 1.391 . S
C1779 C1778 1.386 . S
C1779 C1783 1.393 . S
C1780 H1769 0.950 . S
C1780 C1778 1.391 . S
C1780 C1781 1.400 . S
C1781 C1775 1.491 . S
C1781 C1780 1.400 . S
C1781 C1782 1.398 . S
C1782 H1770 0.950 . S
C1782 C1781 1.398 . S
C1782 C1783 1.391 . S
C1783 H1771 0.950 . S
C1783 C1779 1.393 . S
C1783 C1782 1.391 . S
H1784 C1792 0.950 . S
H1785 C1797 0.950 . S
H1786 C1794 0.950 . S
H1787 C1796 0.950 . S
H1788 C1798 0.950 . S
H1789 C1800 0.950 . S
H1790 C1802 0.950 . S
H1791 C1803 0.950 . S
C1792 H1784 0.950 . S
C1792 C1793 1.386 . S
C1792 C1794 1.391 . S
C1793 C1792 1.386 . S
C1793 C1797 1.393 . S
C1794 H1786 0.950 . S
C1794 C1792 1.391 . S
C1794 C1795 1.400 . S
C1795 C1794 1.400 . S
C1795 C1796 1.398 . S
C1795 C1801 1.491 . S
C1796 H1787 0.950 . S
C1796 C1795 1.398 . S
C1796 C1797 1.391 . S
C1797 H1785 0.950 . S
C1797 C1793 1.393 . S
C1797 C1796 1.391 . S
C1798 H1788 0.950 . S
C1798 C1799 1.386 . S
C1798 C1800 1.391 . S
C1799 C1798 1.386 . S
C1799 C1803 1.393 . S
C1800 H1789 0.950 . S
C1800 C1798 1.391 . S
C1800 C1801 1.400 . S
C1801 C1795 1.491 . S
C1801 C1800 1.400 . S
C1801 C1802 1.398 . S
C1802 H1790 0.950 . S
C1802 C1801 1.398 . S
C1802 C1803 1.391 . S
C1803 H1791 0.950 . S
C1803 C1799 1.393 . S
C1803 C1802 1.391 . S
H1804 C1812 0.950 . S
H1805 C1817 0.950 . S
H1806 C1814 0.950 . S
H1807 C1816 0.950 . S
H1808 C1818 0.950 . S
H1809 C1820 0.950 . S
H1810 C1822 0.950 . S
H1811 C1823 0.950 . S
C1812 H1804 0.950 . S
C1812 C1813 1.386 . S
C1812 C1814 1.391 . S
C1813 C1812 1.386 . S
C1813 C1817 1.393 . S
C1814 H1806 0.950 . S
C1814 C1812 1.391 . S
C1814 C1815 1.400 . S
C1815 C1814 1.400 . S
C1815 C1816 1.398 . S
C1815 C1821 1.491 . S
C1816 H1807 0.950 . S
C1816 C1815 1.398 . S
C1816 C1817 1.391 . S
C1817 H1805 0.950 . S
C1817 C1813 1.393 . S
C1817 C1816 1.391 . S
C1818 H1808 0.950 . S
C1818 C1819 1.386 . S
C1818 C1820 1.391 . S
C1819 C1818 1.386 . S
C1819 C1823 1.393 . S
C1820 H1809 0.950 . S
C1820 C1818 1.391 . S
C1820 C1821 1.400 . S
C1821 C1815 1.491 . S
C1821 C1820 1.400 . S
C1821 C1822 1.398 . S
C1822 H1810 0.950 . S
C1822 C1821 1.398 . S
C1822 C1823 1.391 . S
C1823 H1811 0.950 . S
C1823 C1819 1.393 . S
C1823 C1822 1.391 . S
C873 C3 1.506 . S
C879 C255 1.508 . S
C893 C291 1.506 . S
C899 C39 1.502 . S
C913 C75 1.502 . S
C919 C327 1.506 . S
C933 C111 1.502 . S
C939 C363 1.506 . S
C953 C399 1.504 . S
C959 C147 1.502 . S
C973 C183 1.507 . S
C979 C219 1.508 . S
C993 C435 1.507 . S
C999 C687 1.507 . S
C1013 C471 1.502 . S
C1019 C723 1.505 . S
C1033 C759 1.505 . S
C1039 C507 1.508 . S
C1053 C543 1.507 . S
C1059 C795 1.503 . S
C1073 C579 1.508 . S
C1079 C831 1.505 . S
C1093 C651 1.506 . S
C1099 C615 1.508 . S
C1113 C4 1.348 . S
C1119 C292 1.337 . S
C1133 C328 1.338 . S
C1139 C40 1.348 . S
C1153 C364 1.346 . S
C1159 C76 1.341 . S
C1173 C112 1.343 . S
C1179 C400 1.343 . S
C1193 C148 1.342 . S
C1199 C220 1.344 . S
C1213 C184 1.338 . S
C1219 C256 1.349 . S
C1233 C724 1.348 . S
C1239 C436 1.337 . S
C1253 C472 1.338 . S
C1259 C760 1.348 . S
C1273 C796 1.347 . S
C1279 C508 1.339 . S
C1293 C832 1.347 . S
C1299 C544 1.339 . S
C1313 C652 1.347 . S
C1319 C580 1.338 . S
C1333 C616 1.342 . S
C1339 C688 1.344 . S
C1353 C14 1.482 . S
C1359 C554 1.506 . S
C1373 C590 1.507 . S
C1379 C50 1.480 . S
C1393 C626 1.507 . S
C1399 C86 1.481 . S
C1413 C122 1.490 . S
C1419 C446 1.498 . S
C1433 C158 1.480 . S
C1439 C482 1.507 . S
C1453 C518 1.491 . S
C1459 C194 1.496 . S
C1473 C770 1.507 . S
C1479 C230 1.481 . S
C1493 C806 1.483 . S
C1499 C266 1.504 . S
C1513 C842 1.483 . S
C1519 C302 1.504 . S
C1533 C662 1.506 . S
C1539 C338 1.482 . S
C1553 C374 1.506 . S
C1559 C698 1.481 . S
C1573 C410 1.498 . S
C1579 C734 1.490 . S
C1593 C2 1.418 . S
C1599 C362 1.412 . S
C1613 C398 1.420 . S
C1619 C38 1.415 . S
C1633 C218 1.419 . S
C1639 C74 1.418 . S
C1653 C110 1.419 . S
C1659 C254 1.418 . S
C1673 C146 1.420 . S
C1679 C290 1.416 . S
C1693 C182 1.418 . S
C1699 C326 1.412 . S
C1713 C434 1.420 . S
C1719 C794 1.416 . S
C1733 C470 1.418 . S
C1739 C830 1.412 . S
C1753 C506 1.412 . S
C1759 C650 1.420 . S
C1773 C686 1.415 . S
C1779 C542 1.413 . S
C1793 C578 1.420 . S
C1799 C722 1.413 . S
C1813 C614 1.414 . S
C1819 C758 1.421 . S
