# Generated by pormake.
# Topology rhr, (4)-cn, num edge types: 1
# Building blocks:
#     Node 0, Type 0, BuildingBlock: KOZSID_clean_sbu_0, # of connection points: 4
#     Node 1, Type 0, BuildingBlock: KOZSID_clean_sbu_0, # of connection points: 4
#     Node 2, Type 0, BuildingBlock: KOZSID_clean_sbu_0, # of connection points: 4
#     Node 3, Type 0, BuildingBlock: KOZSID_clean_sbu_0, # of connection points: 4
#     Node 4, Type 0, BuildingBlock: KOZSID_clean_sbu_0, # of connection points: 4
#     Node 5, Type 0, BuildingBlock: KOZSID_clean_sbu_0, # of connection points: 4
#     Node 6, Type 0, BuildingBlock: KOZSID_clean_sbu_0, # of connection points: 4
#     Node 7, Type 0, BuildingBlock: KOZSID_clean_sbu_0, # of connection points: 4
#     Node 8, Type 0, BuildingBlock: KOZSID_clean_sbu_0, # of connection points: 4
#     Node 9, Type 0, BuildingBlock: KOZSID_clean_sbu_0, # of connection points: 4
#     Node 10, Type 0, BuildingBlock: KOZSID_clean_sbu_0, # of connection points: 4
#     Node 11, Type 0, BuildingBlock: KOZSID_clean_sbu_0, # of connection points: 4
#     Node 12, Type 0, BuildingBlock: KOZSID_clean_sbu_0, # of connection points: 4
#     Node 13, Type 0, BuildingBlock: KOZSID_clean_sbu_0, # of connection points: 4
#     Node 14, Type 0, BuildingBlock: KOZSID_clean_sbu_0, # of connection points: 4
#     Node 15, Type 0, BuildingBlock: KOZSID_clean_sbu_0, # of connection points: 4
#     Node 16, Type 0, BuildingBlock: KOZSID_clean_sbu_0, # of connection points: 4
#     Node 17, Type 0, BuildingBlock: KOZSID_clean_sbu_0, # of connection points: 4
#     Node 18, Type 0, BuildingBlock: KOZSID_clean_sbu_0, # of connection points: 4
#     Node 19, Type 0, BuildingBlock: KOZSID_clean_sbu_0, # of connection points: 4
#     Node 20, Type 0, BuildingBlock: KOZSID_clean_sbu_0, # of connection points: 4
#     Node 21, Type 0, BuildingBlock: KOZSID_clean_sbu_0, # of connection points: 4
#     Node 22, Type 0, BuildingBlock: KOZSID_clean_sbu_0, # of connection points: 4
#     Node 23, Type 0, BuildingBlock: KOZSID_clean_sbu_0, # of connection points: 4
#     Edge 24, Type (0, 0), BuildingBlock: OJICUG_clean_linker_0, # of connection points: 2
#     Edge 25, Type (0, 0), BuildingBlock: OJICUG_clean_linker_0, # of connection points: 2
#     Edge 26, Type (0, 0), BuildingBlock: OJICUG_clean_linker_0, # of connection points: 2
#     Edge 27, Type (0, 0), BuildingBlock: OJICUG_clean_linker_0, # of connection points: 2
#     Edge 28, Type (0, 0), BuildingBlock: OJICUG_clean_linker_0, # of connection points: 2
#     Edge 29, Type (0, 0), BuildingBlock: OJICUG_clean_linker_0, # of connection points: 2
#     Edge 30, Type (0, 0), BuildingBlock: OJICUG_clean_linker_0, # of connection points: 2
#     Edge 31, Type (0, 0), BuildingBlock: OJICUG_clean_linker_0, # of connection points: 2
#     Edge 32, Type (0, 0), BuildingBlock: OJICUG_clean_linker_0, # of connection points: 2
#     Edge 33, Type (0, 0), BuildingBlock: OJICUG_clean_linker_0, # of connection points: 2
#     Edge 34, Type (0, 0), BuildingBlock: OJICUG_clean_linker_0, # of connection points: 2
#     Edge 35, Type (0, 0), BuildingBlock: OJICUG_clean_linker_0, # of connection points: 2
#     Edge 36, Type (0, 0), BuildingBlock: OJICUG_clean_linker_0, # of connection points: 2
#     Edge 37, Type (0, 0), BuildingBlock: OJICUG_clean_linker_0, # of connection points: 2
#     Edge 38, Type (0, 0), BuildingBlock: OJICUG_clean_linker_0, # of connection points: 2
#     Edge 39, Type (0, 0), BuildingBlock: OJICUG_clean_linker_0, # of connection points: 2
#     Edge 40, Type (0, 0), BuildingBlock: OJICUG_clean_linker_0, # of connection points: 2
#     Edge 41, Type (0, 0), BuildingBlock: OJICUG_clean_linker_0, # of connection points: 2
#     Edge 42, Type (0, 0), BuildingBlock: OJICUG_clean_linker_0, # of connection points: 2
#     Edge 43, Type (0, 0), BuildingBlock: OJICUG_clean_linker_0, # of connection points: 2
#     Edge 44, Type (0, 0), BuildingBlock: OJICUG_clean_linker_0, # of connection points: 2
#     Edge 45, Type (0, 0), BuildingBlock: OJICUG_clean_linker_0, # of connection points: 2
#     Edge 46, Type (0, 0), BuildingBlock: OJICUG_clean_linker_0, # of connection points: 2
#     Edge 47, Type (0, 0), BuildingBlock: OJICUG_clean_linker_0, # of connection points: 2
#     Edge 48, Type (0, 0), BuildingBlock: OJICUG_clean_linker_0, # of connection points: 2
#     Edge 49, Type (0, 0), BuildingBlock: OJICUG_clean_linker_0, # of connection points: 2
#     Edge 50, Type (0, 0), BuildingBlock: OJICUG_clean_linker_0, # of connection points: 2
#     Edge 51, Type (0, 0), BuildingBlock: OJICUG_clean_linker_0, # of connection points: 2
#     Edge 52, Type (0, 0), BuildingBlock: OJICUG_clean_linker_0, # of connection points: 2
#     Edge 53, Type (0, 0), BuildingBlock: OJICUG_clean_linker_0, # of connection points: 2
#     Edge 54, Type (0, 0), BuildingBlock: OJICUG_clean_linker_0, # of connection points: 2
#     Edge 55, Type (0, 0), BuildingBlock: OJICUG_clean_linker_0, # of connection points: 2
#     Edge 56, Type (0, 0), BuildingBlock: OJICUG_clean_linker_0, # of connection points: 2
#     Edge 57, Type (0, 0), BuildingBlock: OJICUG_clean_linker_0, # of connection points: 2
#     Edge 58, Type (0, 0), BuildingBlock: OJICUG_clean_linker_0, # of connection points: 2
#     Edge 59, Type (0, 0), BuildingBlock: OJICUG_clean_linker_0, # of connection points: 2
#     Edge 60, Type (0, 0), BuildingBlock: OJICUG_clean_linker_0, # of connection points: 2
#     Edge 61, Type (0, 0), BuildingBlock: OJICUG_clean_linker_0, # of connection points: 2
#     Edge 62, Type (0, 0), BuildingBlock: OJICUG_clean_linker_0, # of connection points: 2
#     Edge 63, Type (0, 0), BuildingBlock: OJICUG_clean_linker_0, # of connection points: 2
#     Edge 64, Type (0, 0), BuildingBlock: OJICUG_clean_linker_0, # of connection points: 2
#     Edge 65, Type (0, 0), BuildingBlock: OJICUG_clean_linker_0, # of connection points: 2
#     Edge 66, Type (0, 0), BuildingBlock: OJICUG_clean_linker_0, # of connection points: 2
#     Edge 67, Type (0, 0), BuildingBlock: OJICUG_clean_linker_0, # of connection points: 2
#     Edge 68, Type (0, 0), BuildingBlock: OJICUG_clean_linker_0, # of connection points: 2
#     Edge 69, Type (0, 0), BuildingBlock: OJICUG_clean_linker_0, # of connection points: 2
#     Edge 70, Type (0, 0), BuildingBlock: OJICUG_clean_linker_0, # of connection points: 2
#     Edge 71, Type (0, 0), BuildingBlock: OJICUG_clean_linker_0, # of connection points: 2
# Relax obj value: 0.008
# Max RMSD: 0.043
# Mean RMSD: 0.027
data_MOF--net-rhr--node1-KOZSID_clean_sbu_0--edge1-OJICUG_clean_linker_0
_symmetry_space_group_name_H-M    P1
_symmetry_Int_Tables_number       1
_symmetry_cell_setting            triclinic
loop_
_symmetry_equiv_pos_as_xyz
'x, y, z'
_cell_length_a     48.559363
_cell_length_b     48.745055
_cell_length_c     48.534908
_cell_angle_alpha  86.175117
_cell_angle_beta   84.426881
_cell_angle_gamma 90.998972
loop_
_atom_site_label
_atom_site_type_symbol
_atom_site_fract_x
_atom_site_fract_y
_atom_site_fract_z
_atom_type_partial_charge
C0 C 0.40842 0.98931 0.34994 0.0
C1 C 0.43301 0.98139 0.3602 0.0
C2 C 0.43444 0.9938 0.38442 0.0
C3 C 0.41086 0.00875 0.38767 0.0
N4 N 0.39429 0.00665 0.36703 0.0
Co5 Co 0.35851 0.02651 0.36376 0.0
N6 N 0.36128 0.04559 0.39905 0.0
C7 C 0.38248 0.04368 0.41513 0.0
C8 C 0.37899 0.05855 0.43814 0.0
C9 C 0.3539 0.07054 0.43694 0.0
C10 C 0.34326 0.06212 0.41326 0.0
N11 N 0.3225 0.04605 0.36075 0.0
C12 C 0.30781 0.06234 0.37852 0.0
C13 C 0.28294 0.06984 0.36864 0.0
C14 C 0.2818 0.05806 0.34402 0.0
C15 C 0.30583 0.04387 0.3402 0.0
N16 N 0.35589 0.00761 0.32832 0.0
C17 C 0.33518 0.01038 0.31168 0.0
C18 C 0.33852 0.99529 0.28882 0.0
C19 C 0.36297 0.98223 0.29071 0.0
C20 C 0.37345 0.99025 0.31462 0.0
N21 N 0.33775 0.99547 0.38554 0.0
C22 C 0.30441 0.95628 0.41963 0.0
C23 C 0.29736 0.96517 0.39333 0.0
C24 C 0.31422 0.9845 0.37675 0.0
C25 C 0.32917 0.96637 0.428 0.0
C26 C 0.34549 0.98564 0.41069 0.0
N27 N 0.37923 0.0577 0.3419 0.0
C28 C 0.38507 0.08953 0.30114 0.0
C29 C 0.4108 0.09864 0.30805 0.0
C30 C 0.41998 0.08755 0.33275 0.0
C31 C 0.40397 0.06741 0.34927 0.0
C32 C 0.36977 0.06934 0.31822 0.0
H33 H 0.41225 0.05981 0.3677 0.0
H34 H 0.35057 0.06318 0.31149 0.0
H35 H 0.30741 0.99069 0.35717 0.0
H36 H 0.36401 0.99264 0.41832 0.0
C37 C 0.40448 0.02622 0.40901 0.0
C38 C 0.4001 0.98057 0.32335 0.0
C39 C 0.31588 0.07037 0.40544 0.0
C40 C 0.31277 0.02725 0.31824 0.0
H41 H 0.44869 0.96845 0.35091 0.0
H42 H 0.45106 0.9926 0.39775 0.0
H43 H 0.39279 0.06004 0.45423 0.0
H44 H 0.34437 0.08376 0.452 0.0
H45 H 0.2669 0.08205 0.37846 0.0
H46 H 0.26507 0.05912 0.33081 0.0
H47 H 0.32477 0.99392 0.27267 0.0
H48 H 0.372 0.96831 0.2761 0.0
H49 H 0.2784 0.95798 0.38584 0.0
H50 H 0.33593 0.95956 0.4479 0.0
H51 H 0.37702 0.09732 0.28217 0.0
H52 H 0.43949 0.09433 0.33938 0.0
C53 C 0.08158 0.39346 0.33352 0.0
C54 C 0.09182 0.41524 0.34688 0.0
C55 C 0.07708 0.41501 0.3723 0.0
C56 C 0.05904 0.39297 0.37323 0.0
N57 N 0.06152 0.37896 0.35002 0.0
Co58 Co 0.04077 0.3444 0.34365 0.0
N59 N 0.01679 0.34597 0.37962 0.0
C60 C 0.0169 0.36614 0.39746 0.0
C61 C 0.9976 0.3621 0.41998 0.0
C62 C 0.98432 0.33789 0.41634 0.0
C63 C 0.99649 0.32844 0.39179 0.0
N64 N 0.02104 0.30896 0.33805 0.0
C65 C 1.00124 0.29424 0.35476 0.0
C66 C 0.99441 0.26983 0.34359 0.0
C67 C 0.01046 0.26904 0.319 0.0
C68 C 0.02622 0.29282 0.31663 0.0
N69 N 0.06358 0.3438 0.30687 0.0
C70 C 0.0617 0.3249 0.28792 0.0
C71 C 0.07771 0.33115 0.26344 0.0
C72 C 0.09037 0.35574 0.26673 0.0
C73 C 0.08162 0.36294 0.29335 0.0
N74 N 0.06871 0.32301 0.36246 0.0
C75 C 0.10816 0.29275 0.38973 0.0
C76 C 0.104 0.28861 0.3622 0.0
C77 C 0.08423 0.30376 0.3491 0.0
C78 C 0.09234 0.31239 0.40323 0.0
C79 C 0.07308 0.3272 0.38934 0.0
N80 N 0.01305 0.36592 0.32485 0.0
C81 C 0.98275 0.37187 0.2884 0.0
C82 C 0.97697 0.39845 0.29581 0.0
C83 C 0.98874 0.40823 0.31841 0.0
C84 C 1.00635 0.39162 0.33275 0.0
C85 C 1.00091 0.35607 0.30302 0.0
H86 H 0.01452 0.40019 0.34994 0.0
H87 H 1.00514 0.33616 0.29602 0.0
H88 H 0.08182 0.2994 0.32824 0.0
H89 H 0.06182 0.34172 0.40101 0.0
C90 C 0.03745 0.38686 0.39405 0.0
C91 C 0.09047 0.38838 0.30467 0.0
C92 C 0.98861 0.30229 0.38144 0.0
C93 C 0.04471 0.30146 0.29379 0.0
H94 H 0.10779 0.43022 0.33881 0.0
H95 H 0.07867 0.42972 0.38786 0.0
H96 H 0.99416 0.37479 0.4374 0.0
H97 H 0.9679 0.32801 0.43043 0.0
H98 H 0.97937 0.25419 0.35233 0.0
H99 H 0.01047 0.25314 0.30446 0.0
H100 H 0.0796 0.31946 0.24519 0.0
H101 H 0.10412 0.36714 0.25102 0.0
H102 H 0.11587 0.27374 0.35076 0.0
H103 H 0.09422 0.31596 0.42477 0.0
H104 H 0.9739 0.3636 0.27095 0.0
H105 H 0.98432 0.42862 0.32506 0.0
C106 C 0.69837 0.99021 0.32395 0.0
C107 C 0.71065 0.98288 0.29856 0.0
C108 C 0.73583 0.99618 0.29432 0.0
C109 C 0.73751 0.01092 0.3172 0.0
N110 N 0.71517 0.00753 0.3361 0.0
Co111 Co 0.70851 0.02737 0.37113 0.0
N112 N 0.74481 0.04852 0.36395 0.0
C113 C 0.76379 0.04645 0.34193 0.0
C114 C 0.78773 0.06132 0.34337 0.0
C115 C 0.78413 0.07333 0.36801 0.0
C116 C 0.75793 0.06532 0.38025 0.0
N117 N 0.70163 0.04762 0.40586 0.0
C118 C 0.71834 0.06504 0.41805 0.0
C119 C 0.70508 0.07398 0.44234 0.0
C120 C 0.67961 0.06123 0.44612 0.0
C121 C 0.67853 0.04544 0.4239 0.0
N122 N 0.67254 1.00581 0.37871 0.0
C123 C 0.65411 0.00691 0.40132 0.0
C124 C 0.63091 0.99061 0.40065 0.0
C125 C 0.63454 0.97861 0.37596 0.0
C126 C 0.65978 0.98841 0.36282 0.0
N127 N 0.72763 0.99791 0.39247 0.0
C128 C 0.7567 0.95892 0.42433 0.0
C129 C 0.73192 0.97007 0.43525 0.0
C130 C 0.71783 0.98912 0.41914 0.0
C131 C 0.76623 0.96728 0.39681 0.0
C132 C 0.75158 0.98658 0.38146 0.0
N133 N 0.6892 0.05664 0.34962 0.0
C134 C 0.64694 0.08057 0.34131 0.0
C135 C 0.65833 0.0919 0.31527 0.0
C136 C 0.6861 0.08599 0.30747 0.0
C137 C 0.70095 0.06858 0.32472 0.0
C138 C 0.66258 0.06359 0.35801 0.0
H139 H 0.72182 0.06473 0.31726 0.0
H140 H 0.65237 0.05578 0.37742 0.0
H141 H 0.69911 0.99664 0.42886 0.0
H142 H 0.76027 0.9923 0.3608 0.0
C143 C 0.75921 0.02898 0.32107 0.0
C144 C 0.6702 0.98122 0.3349 0.0
C145 C 0.74705 0.07317 0.40793 0.0
C146 C 0.65767 0.02595 0.42109 0.0
H147 H 0.70204 0.96982 0.28423 0.0
H148 H 0.75082 0.99574 0.27634 0.0
H149 H 0.80606 0.06249 0.3287 0.0
H150 H 0.79951 0.08588 0.37631 0.0
H151 H 0.71323 0.08779 0.45628 0.0
H152 H 0.66414 0.06247 0.46359 0.0
H153 H 0.61296 0.98858 0.41578 0.0
H154 H 0.61994 0.96477 0.36814 0.0
H155 H 0.72321 0.96401 0.45621 0.0
H156 H 0.78534 0.9595 0.38725 0.0
H157 H 0.62563 0.08403 0.34874 0.0
H158 H 0.69655 0.09469 0.28806 0.0
C159 C 0.9695 0.74858 0.34467 0.0
C160 C 0.96266 0.77317 0.33125 0.0
C161 C 0.98142 0.77757 0.30849 0.0
C162 C 0.99859 0.75556 0.30952 0.0
N163 N 0.99156 0.73707 0.3312 0.0
Co164 Co 0.01203 0.70346 0.34254 0.0
N165 N 0.0414 0.71142 0.31097 0.0
C166 C 0.04201 0.73192 0.29067 0.0
C167 C 0.06449 0.73147 0.27135 0.0
C168 C 0.07899 0.70919 0.27963 0.0
C169 C 0.06446 0.69743 0.3037 0.0
N170 N 0.03311 0.67067 0.35483 0.0
C171 C 0.05766 0.66151 0.34408 0.0
C172 C 0.06601 0.63872 0.35961 0.0
C173 C 0.04578 0.63313 0.38086 0.0
C174 C 0.02643 0.65282 0.37719 0.0
N175 N 0.98209 0.69486 0.37334 0.0
C176 C 0.97938 0.6724 0.39142 0.0
C177 C 0.9563 0.67255 0.41009 0.0
C178 C 0.94379 0.69672 0.40374 0.0
C179 C 0.96012 0.70987 0.38155 0.0
N180 N 0.99138 0.68099 0.31849 0.0
C181 C 0.95868 0.64991 0.28677 0.0
C182 C 0.96789 0.63842 0.31117 0.0
C183 C 0.98413 0.65414 0.32651 0.0
C184 C 0.96675 0.67693 0.27796 0.0
C185 C 0.98319 0.69192 0.29391 0.0
N186 N 0.03262 0.72561 0.36662 0.0
C187 C 0.05061 0.73046 0.41063 0.0
C188 C 0.06697 0.7531 0.39954 0.0
C189 C 0.0647 0.76273 0.37212 0.0
C190 C 0.04735 0.74884 0.35615 0.0
C191 C 0.03363 0.71719 0.39397 0.0
H192 H 0.04655 0.7569 0.33527 0.0
H193 H 0.02187 0.69989 0.40356 0.0
H194 H 0.99018 0.64407 0.34494 0.0
H195 H 0.98882 0.71232 0.28597 0.0
C196 C 0.02194 0.75207 0.29108 0.0
C197 C 0.95587 0.73788 0.37115 0.0
C198 C 0.07273 0.67237 0.31823 0.0
C199 C 1.00089 0.65387 0.39304 0.0
H200 H 0.94625 0.7868 0.33765 0.0
H201 H 0.98288 0.79509 0.29346 0.0
H202 H 0.06976 0.74569 0.25344 0.0
H203 H 0.09801 0.70229 0.26907 0.0
H204 H 0.08452 0.627 0.35554 0.0
H205 H 0.04495 0.61632 0.3967 0.0
H206 H 0.95019 0.65768 0.42726 0.0
H207 H 0.9255 0.70448 0.41494 0.0
H208 H 0.96204 0.61754 0.31885 0.0
H209 H 0.96049 0.68646 0.25882 0.0
H210 H 0.051 0.72284 0.43207 0.0
H211 H 0.07683 0.7804 0.36275 0.0
C212 C 0.35921 0.97529 0.7691 0.0
C213 C 0.34845 0.96442 0.7952 0.0
C214 C 0.32366 0.97652 0.80099 0.0
C215 C 0.32065 0.99386 0.77815 0.0
N216 N 0.34197 0.99354 0.75802 0.0
Co217 Co 0.34569 0.01493 0.72099 0.0
N218 N 0.30948 0.03317 0.72986 0.0
C219 C 0.29293 0.03045 0.75402 0.0
C220 C 0.26922 0.04525 0.75373 0.0
C221 C 0.27054 0.05804 0.72777 0.0
C222 C 0.29513 0.05028 0.7137 0.0
N223 N 0.34891 0.03566 0.68362 0.0
C224 C 0.33051 0.05204 0.67174 0.0
C225 C 0.34046 0.06183 0.64502 0.0
C226 C 0.36586 0.05079 0.63962 0.0
C227 C 0.36997 0.03503 0.66323 0.0
N228 N 0.38222 0.9972 0.71238 0.0
C229 C 0.39993 1.0018 0.68915 0.0
C230 C 0.42386 0.98737 0.68968 0.0
C231 C 0.42144 0.97284 0.71483 0.0
C232 C 0.39599 0.9792 0.72819 0.0
N233 N 0.32645 0.98456 0.70512 0.0
C234 C 0.2979 0.94331 0.68072 0.0
C235 C 0.32298 0.95458 0.66799 0.0
C236 C 0.33691 0.97475 0.68058 0.0
C237 C 0.28781 0.95252 0.70637 0.0
C238 C 0.30219 0.97317 0.71799 0.0
N239 N 0.3652 0.04533 0.73688 0.0
C240 C 0.40262 0.07913 0.73335 0.0
C241 C 0.39677 0.08417 0.76115 0.0
C242 C 0.37416 0.07058 0.77636 0.0
C243 C 0.35847 0.05168 0.76376 0.0
C244 C 0.38678 0.05966 0.72176 0.0
H245 H 0.34138 0.04214 0.77637 0.0
H246 H 0.39296 0.0562 0.70074 0.0
H247 H 0.35584 0.98248 0.66977 0.0
H248 H 0.2931 0.97984 0.73719 0.0
C249 C 0.29876 0.01171 0.77554 0.0
C250 C 0.3862 0.96822 0.75614 0.0
C251 C 0.30319 0.05834 0.68459 0.0
C252 C 0.39327 0.0193 0.66693 0.0
H253 H 0.35774 0.94953 0.8088 0.0
H254 H 0.30971 0.97337 0.81977 0.0
H255 H 0.25246 0.04582 0.77009 0.0
H256 H 0.2548 0.07098 0.71986 0.0
H257 H 0.33024 0.07531 0.6308 0.0
H258 H 0.37957 0.05367 0.62063 0.0
H259 H 0.44105 0.98746 0.6737 0.0
H260 H 0.43676 0.95925 0.72255 0.0
H261 H 0.33156 0.94861 0.64789 0.0
H262 H 0.26873 0.94415 0.71738 0.0
H263 H 0.42005 0.08931 0.7209 0.0
H264 H 0.36877 0.07433 0.79795 0.0
C265 C 0.99469 0.37069 0.69487 0.0
C266 C 0.98921 0.39657 0.68325 0.0
C267 C 1.00406 0.3994 0.65782 0.0
C268 C 0.01791 0.37529 0.65539 0.0
N269 N 0.01239 0.35688 0.67733 0.0
Co270 Co 0.03158 0.32091 0.68309 0.0
N271 N 0.05559 0.32615 0.64674 0.0
C272 C 0.05348 0.34715 0.62748 0.0
C273 C 0.0673 0.34322 0.60221 0.0
C274 C 0.07884 0.31807 0.60525 0.0
C275 C 0.07234 0.3082 0.63272 0.0
N276 N 0.05189 0.28582 0.68962 0.0
C277 C 0.07282 0.27386 0.67401 0.0
C278 C 0.08296 0.2516 0.68901 0.0
C279 C 0.06672 0.24815 0.71365 0.0
C280 C 0.04817 0.26895 0.71297 0.0
N281 N 0.00663 0.31491 0.71869 0.0
C282 C 1.00542 0.29199 0.73604 0.0
C283 C 0.98711 0.29363 0.75923 0.0
C284 C 0.97621 0.31925 0.75671 0.0
C285 C 0.98866 0.33201 0.73215 0.0
N286 N 1.0037 0.30078 0.66309 0.0
C287 C 0.9677 0.27078 0.6318 0.0
C288 C 0.97968 0.2583 0.65453 0.0
C289 C 0.99715 0.27346 0.66976 0.0
C290 C 0.97373 0.29896 0.62571 0.0
C291 C 0.9915 0.31333 0.64135 0.0
N292 N 0.05912 0.34101 0.70323 0.0
C293 C 0.0774 0.35003 0.74677 0.0
C294 C 0.09151 0.37409 0.73523 0.0
C295 C 0.08984 0.38041 0.70667 0.0
C296 C 0.07368 0.36386 0.69128 0.0
C297 C 0.06202 0.33388 0.73062 0.0
H298 H 0.07281 0.37013 0.66981 0.0
H299 H 0.05197 0.316 0.74112 0.0
H300 H 1.00541 0.2624 0.6867 0.0
H301 H 0.99516 0.33462 0.63525 0.0
C302 C 0.03648 0.3693 0.63301 0.0
C303 C 0.98341 0.36069 0.72306 0.0
C304 C 0.08245 0.28167 0.64446 0.0
C305 C 0.02569 0.27207 0.7328 0.0
H306 H 0.97634 0.4121 0.69243 0.0
H307 H 1.00517 0.4172 0.64314 0.0
H308 H 0.06773 0.35646 0.58335 0.0
H309 H 0.08978 0.30799 0.58849 0.0
H310 H 0.10001 0.2387 0.68276 0.0
H311 H 0.06798 0.23205 0.72992 0.0
H312 H 0.98342 0.27866 0.77676 0.0
H313 H 0.96153 0.32797 0.77174 0.0
H314 H 0.97621 0.23662 0.66039 0.0
H315 H 0.96469 0.31019 0.60897 0.0
H316 H 0.07733 0.34375 0.76857 0.0
H317 H 0.10083 0.39813 0.696 0.0
C318 C 0.70804 0.05391 0.6795 0.0
C319 C 0.69784 0.06484 0.65545 0.0
C320 C 0.67147 0.05468 0.65577 0.0
C321 C 0.66713 0.03819 0.67984 0.0
N322 N 0.68888 0.0376 0.69528 0.0
Co323 Co 0.69213 0.01442 0.7306 0.0
N324 N 0.65424 0.9977 0.72985 0.0
C325 C 0.63545 1.00559 0.71223 0.0
C326 C 0.6095 0.99459 0.71964 0.0
C327 C 0.61179 0.97857 0.74333 0.0
C328 C 0.63945 0.9799 0.74862 0.0
N329 N 0.69605 0.98997 0.76491 0.0
C330 C 0.67955 0.96883 0.77698 0.0
C331 C 0.69264 0.95397 0.7972 0.0
C332 C 0.71734 0.96712 0.79911 0.0
C333 C 0.71848 0.98866 0.77944 0.0
N334 N 0.72949 0.03223 0.73201 0.0
C335 C 0.74621 0.02858 0.75259 0.0
C336 C 0.77054 0.04363 0.74784 0.0
C337 C 0.76936 0.05759 0.72264 0.0
C338 C 0.74429 0.05019 0.71342 0.0
N339 N 0.67535 0.0432 0.7533 0.0
C340 C 0.64654 0.07906 0.78785 0.0
C341 C 0.66818 0.06384 0.79724 0.0
C342 C 0.68229 0.04619 0.77969 0.0
C343 C 0.64054 0.07731 0.76053 0.0
C344 C 0.65523 0.05958 0.74369 0.0
N345 N 0.70869 0.98571 0.70828 0.0
C346 C 0.74627 0.95534 0.69816 0.0
C347 C 0.73406 0.94683 0.67532 0.0
C348 C 0.70868 0.95749 0.66938 0.0
C349 C 0.69615 0.97661 0.68638 0.0
C350 C 0.73344 0.97487 0.7141 0.0
H351 H 0.67661 0.9841 0.68129 0.0
H352 H 0.74424 0.98128 0.73068 0.0
H353 H 0.69836 0.03492 0.7882 0.0
H354 H 0.64954 0.05936 0.72316 0.0
C355 C 0.64266 0.0236 0.68901 0.0
C356 C 0.73611 0.05948 0.68625 0.0
C357 C 0.65093 0.96317 0.77099 0.0
C358 C 0.74053 0.0077 0.77365 0.0
H359 H 0.70843 0.07863 0.63928 0.0
H360 H 0.65721 0.05872 0.64025 0.0
H361 H 0.59098 0.99817 0.7093 0.0
H362 H 0.59474 0.96742 0.75529 0.0
H363 H 0.68527 0.93553 0.8095 0.0
H364 H 0.73282 0.96138 0.81291 0.0
H365 H 0.78771 0.04339 0.76049 0.0
H366 H 0.7855 0.07098 0.71186 0.0
H367 H 0.67373 0.06499 0.81823 0.0
H368 H 0.62452 0.08959 0.75214 0.0
H369 H 0.7662 0.94776 0.70305 0.0
H370 H 0.69873 0.95124 0.6517 0.0
C371 C 0.97768 0.66258 0.74422 0.0
C372 C 0.96095 0.67469 0.7647 0.0
C373 C 0.9743 0.69828 0.77013 0.0
C374 C 0.9978 0.69983 0.75205 0.0
N375 N 1.0001 0.67889 0.73515 0.0
Co376 Co 0.0272 0.67702 0.70155 0.0
N377 N 0.0461 0.71233 0.7088 0.0
C378 C 0.04137 0.72661 0.73164 0.0
C379 C 0.05722 0.75023 0.73078 0.0
C380 C 0.07289 0.75121 0.70582 0.0
C381 C 0.06574 0.72793 0.69284 0.0
N382 N 0.0529 0.67626 0.6667 0.0
C383 C 0.07095 0.69577 0.65404 0.0
C384 C 0.08361 0.68748 0.62915 0.0
C385 C 0.07262 0.66216 0.62561 0.0
C386 C 0.05402 0.65648 0.64844 0.0
N387 N 0.00939 0.6408 0.69537 0.0
C388 C 0.0182 0.62379 0.67563 0.0
C389 C 0.00641 0.59799 0.67953 0.0
C390 C 0.98902 0.59842 0.70325 0.0
C391 C 0.9904 0.62495 0.71213 0.0
N392 N 1.00067 0.69755 0.67926 0.0
C393 C 0.96544 0.72843 0.64592 0.0
C394 C 0.97424 0.70218 0.63922 0.0
C395 C 0.9916 0.68722 0.65603 0.0
C396 C 0.9745 0.73858 0.66992 0.0
C397 C 0.99183 0.72303 0.68608 0.0
N398 N 0.05407 0.65639 0.72388 0.0
C399 C 0.09123 0.62374 0.72692 0.0
C400 C 0.09117 0.62566 0.75558 0.0
C401 C 0.07227 0.64377 0.76794 0.0
C402 C 0.05423 0.6588 0.75193 0.0
C403 C 0.07282 0.63895 0.71174 0.0
H404 H 0.04046 0.67216 0.76282 0.0
H405 H 0.07431 0.63607 0.69012 0.0
H406 H 0.99767 0.66736 0.6498 0.0
H407 H 0.99813 0.73225 0.70387 0.0
C408 C 0.01826 0.72044 0.75053 0.0
C409 C 0.97319 0.63438 0.73626 0.0
C410 C 0.07663 0.72239 0.66468 0.0
C411 C 0.03819 0.63233 0.65408 0.0
H412 H 0.94144 0.66697 0.77527 0.0
H413 H 0.96767 0.71257 0.78545 0.0
H414 H 0.05617 0.76585 0.74567 0.0
H415 H 0.08702 0.76785 0.69772 0.0
H416 H 0.09913 0.6986 0.61497 0.0
H417 H 0.07759 0.64943 0.60846 0.0
H418 H 0.01061 0.58065 0.66708 0.0
H419 H 0.97735 0.58072 0.71295 0.0
H420 H 0.96764 0.69302 0.62117 0.0
H421 H 0.96881 0.75883 0.67604 0.0
H422 H 0.10569 0.61069 0.71589 0.0
H423 H 0.07093 0.64608 0.79005 0.0
C424 C 0.408 0.3532 0.04371 0.0
C425 C 0.43246 0.36632 0.04864 0.0
C426 C 0.4331 0.39155 0.03454 0.0
C427 C 0.40921 0.39238 0.02164 0.0
N428 N 0.39321 0.36928 0.02673 0.0
Co429 Co 0.35762 0.36166 0.01021 0.0
N430 N 0.35756 0.3995 0.99097 0.0
C431 C 0.37577 0.42019 0.99384 0.0
C432 C 0.36808 0.44525 0.98317 0.0
C433 C 0.34356 0.44034 0.97268 0.0
C434 C 0.33801 0.41217 0.97653 0.0
N435 N 0.32302 0.35345 0.99234 0.0
C436 C 0.31029 0.36837 0.97265 0.0
C437 C 0.29096 0.3521 0.96144 0.0
C438 C 0.28995 0.32706 0.97586 0.0
C439 C 0.30939 0.32885 0.99428 0.0
N440 N 0.35667 0.32438 0.03084 0.0
C441 C 0.33644 0.3049 0.03127 0.0
C442 C 0.34025 0.282 0.04831 0.0
C443 C 0.3643 0.28717 0.05964 0.0
C444 C 0.37399 0.31295 0.04864 0.0
N445 N 0.33578 0.37579 0.04235 0.0
C446 C 0.30248 0.40079 0.08301 0.0
C447 C 0.29293 0.37732 0.07179 0.0
C448 C 0.30993 0.36512 0.05146 0.0
C449 C 0.32929 0.41059 0.0751 0.0
C450 C 0.34563 0.39765 0.05509 0.0
N451 N 0.37942 0.34767 0.97794 0.0
C452 C 0.39069 0.31061 0.94878 0.0
C453 C 0.41173 0.32661 0.93365 0.0
C454 C 0.41595 0.35359 0.94046 0.0
C455 C 0.39947 0.36374 0.96246 0.0
C456 C 0.37498 0.32143 0.9707 0.0
H457 H 0.40363 0.38446 0.96681 0.0
H458 H 0.35979 0.30789 0.98179 0.0
H459 H 0.30146 0.34765 0.04286 0.0
H460 H 0.36584 0.40628 0.04979 0.0
C461 C 0.39971 0.41548 0.00712 0.0
C462 C 0.39978 0.32554 0.05576 0.0
C463 C 0.31469 0.39818 0.96517 0.0
C464 C 0.31563 0.3077 0.01339 0.0
H465 H 0.44813 0.35855 0.06132 0.0
H466 H 0.44881 0.40762 0.03426 0.0
H467 H 0.37874 0.4649 0.98352 0.0
H468 H 0.33121 0.45608 0.96356 0.0
H469 H 0.2787 0.35751 0.94456 0.0
H470 H 0.27688 0.30948 0.97294 0.0
H471 H 0.32736 0.26352 0.05169 0.0
H472 H 0.37375 0.27341 0.07421 0.0
H473 H 0.27213 0.3692 0.07775 0.0
H474 H 0.33733 0.42865 0.08381 0.0
H475 H 0.38711 0.28935 0.94457 0.0
H476 H 0.43213 0.36662 0.92916 0.0
C477 C 0.69216 0.31533 0.07967 0.0
C478 C 0.70127 0.29453 0.09742 0.0
C479 C 0.72914 0.29237 0.0905 0.0
C480 C 0.73571 0.31236 0.06957 0.0
N481 N 0.71374 0.32693 0.06293 0.0
Co482 Co 0.71582 0.36128 0.03867 0.0
N483 N 0.75219 0.35182 0.01976 0.0
C484 C 0.76854 0.3316 0.02833 0.0
C485 C 0.7892 0.32592 0.00837 0.0
C486 C 0.78595 0.34409 0.98619 0.0
C487 C 0.76415 0.36086 0.99424 0.0
N488 N 0.71846 0.39631 0.01535 0.0
C489 C 0.73697 0.40484 0.99362 0.0
C490 C 0.73512 0.43311 0.98777 0.0
C491 C 0.71405 0.44203 1.00551 0.0
C492 C 0.70469 0.41912 0.02178 0.0
N493 N 0.67891 0.37011 0.05691 0.0
C494 C 0.66723 0.39494 0.05579 0.0
C495 C 0.63959 0.39368 0.06485 0.0
C496 C 0.63371 0.36649 0.07257 0.0
C497 C 0.65847 0.35262 0.06901 0.0
N498 N 0.73411 0.37951 0.06669 0.0
C499 C 0.7586 0.40852 0.10564 0.0
C500 C 0.73429 0.39307 0.11339 0.0
C501 C 0.72255 0.37833 0.09362 0.0
C502 C 0.77083 0.40879 0.07841 0.0
C503 C 0.75814 0.39433 0.05918 0.0
N504 N 0.69757 0.34323 0.01072 0.0
C505 C 0.6624 0.34297 0.97928 0.0
C506 C 0.66936 0.31626 0.97259 0.0
C507 C 0.69136 0.30373 0.98485 0.0
C508 C 0.70497 0.31743 1.00404 0.0
C509 C 0.67694 0.35615 0.99813 0.0
H510 H 0.72128 0.30702 0.0137 0.0
H511 H 0.67102 0.37659 1.00302 0.0
H512 H 0.70387 0.36638 0.10006 0.0
H513 H 0.76755 0.3957 0.0381 0.0
C514 C 0.76076 0.31514 0.05268 0.0
C515 C 0.66312 0.32394 0.07959 0.0
C516 C 0.75744 0.3871 0.97929 0.0
C517 C 0.68099 0.41738 0.04066 0.0
H518 H 0.68919 0.28212 0.11372 0.0
H519 H 0.74277 0.27748 0.09917 0.0
H520 H 0.80386 0.30948 0.00918 0.0
H521 H 0.79831 0.34459 0.96641 0.0
H522 H 0.74788 0.44632 0.97272 0.0
H523 H 0.70633 0.46269 1.00622 0.0
H524 H 0.62498 0.41016 0.06398 0.0
H525 H 0.61321 0.35819 0.07917 0.0
H526 H 0.72443 0.39254 0.13442 0.0
H527 H 0.78957 0.42084 0.07184 0.0
H528 H 0.64532 0.3534 0.97075 0.0
H529 H 0.69792 0.28336 0.97994 0.0
C530 C 0.7309 0.69471 0.08156 0.0
C531 C 0.75675 0.7046 0.08692 0.0
C532 C 0.76633 0.7221 0.06472 0.0
C533 C 0.74592 0.72201 0.04709 0.0
N534 N 0.72383 0.7059 0.05701 0.0
Co535 Co 0.69045 0.69933 0.03757 0.0
N536 N 0.69997 0.73132 0.01071 0.0
C537 C 0.72484 0.74413 1.00521 0.0
C538 C 0.72471 0.76598 0.98583 0.0
C539 C 0.69806 0.76694 0.97874 0.0
C540 C 0.68351 0.74551 0.99427 0.0
N541 N 0.65725 0.69286 0.01798 0.0
C542 C 0.64453 0.71041 1.00093 0.0
C543 C 0.62153 0.69798 0.99168 0.0
C544 C 0.61987 0.67162 1.00356 0.0
C545 C 0.64187 0.6695 0.01928 0.0
N546 N 0.68071 0.66721 0.06427 0.0
C547 C 0.66205 0.64703 0.06146 0.0
C548 C 0.65941 0.62765 0.08342 0.0
C549 C 0.67792 0.63583 0.10094 0.0
C550 C 0.69103 0.65972 0.08849 0.0
N551 N 0.66874 0.72365 0.06283 0.0
C552 C 0.63789 0.75842 0.09939 0.0
C553 C 0.62763 0.73236 0.0936 0.0
C554 C 0.6431 0.71559 0.0754 0.0
C555 C 0.6642 0.76637 0.08598 0.0
C556 C 0.67912 0.74889 0.06813 0.0
N557 N 0.71228 0.67502 0.01229 0.0
C558 C 0.7452 0.63839 1.00564 0.0
C559 C 0.74434 0.6403 0.97662 0.0
C560 C 0.72658 0.6603 0.96617 0.0
C561 C 0.71083 0.67715 0.98414 0.0
C562 C 0.72941 0.65578 0.02277 0.0
H563 H 0.69756 0.69209 0.97512 0.0
H564 H 0.73118 0.65357 0.04465 0.0
H565 H 0.63422 0.69593 0.07163 0.0
H566 H 0.69917 0.75596 0.05853 0.0
C567 C 0.74574 0.73859 0.02246 0.0
C568 C 0.71614 0.6716 0.09792 0.0
C569 C 0.65444 0.73844 0.99245 0.0
C570 C 0.6453 0.64853 0.03958 0.0
H571 H 0.76802 0.69899 0.10453 0.0
H572 H 0.78579 0.73358 0.06184 0.0
H573 H 0.74154 0.7804 0.9788 0.0
H574 H 0.6902 0.78182 0.96409 0.0
H575 H 0.60734 0.70709 0.97803 0.0
H576 H 0.6037 0.65637 1.0021 0.0
H577 H 0.64553 0.60986 0.08648 0.0
H578 H 0.68218 0.62485 0.12013 0.0
H579 H 0.60783 0.72451 0.10333 0.0
H580 H 0.67335 0.78625 0.08882 0.0
H581 H 0.75776 0.62326 0.01549 0.0
H582 H 0.725 0.66339 0.94412 0.0
C583 C 0.40604 0.70902 0.00639 0.0
C584 C 0.43379 0.70216 1.00234 0.0
C585 C 0.4365 0.67762 0.01679 0.0
C586 C 0.41074 0.67131 0.02981 0.0
N587 N 0.3916 0.69028 0.02453 0.0
Co588 Co 0.35457 0.69344 0.04627 0.0
N589 N 0.36003 0.65936 0.07041 0.0
C590 C 0.38169 0.64242 0.06792 0.0
C591 C 0.3792 0.61967 0.08621 0.0
C592 C 0.35402 0.6218 0.10088 0.0
C593 C 0.34257 0.6458 0.09053 0.0
N594 N 0.31849 0.6979 0.06935 0.0
C595 C 0.30541 0.68142 0.09047 0.0
C596 C 0.28027 0.69216 0.10018 0.0
C597 C 0.27733 0.71607 0.08455 0.0
C598 C 0.30066 0.71861 0.06621 0.0
N599 N 0.34828 0.7263 0.02098 0.0
C600 C 0.32453 0.74021 0.02055 0.0
C601 C 0.32426 0.75877 0.99814 0.0
C602 C 0.34957 0.75684 0.98358 0.0
C603 C 0.36429 0.73778 0.99853 0.0
N604 N 0.33593 0.6699 0.02064 0.0
C605 C 0.30875 0.63677 0.98437 0.0
C606 C 0.29435 0.65553 1.0007 0.0
C607 C 0.3081 0.67181 0.01805 0.0
C608 C 0.33729 0.6349 0.98695 0.0
C609 C 0.35025 0.65123 1.00514 0.0
N610 N 0.37309 0.71711 0.07168 0.0
C611 C 0.37847 0.761 0.09196 0.0
C612 C 0.40163 0.7521 0.10504 0.0
C613 C 0.40972 0.72498 0.10125 0.0
C614 C 0.39526 0.70803 0.08494 0.0
C615 C 0.36475 0.74346 0.07554 0.0
H616 H 0.40267 0.68768 0.08305 0.0
H617 H 0.34745 0.7517 0.06598 0.0
H618 H 0.29543 0.68577 0.02922 0.0
H619 H 0.37193 0.64841 1.00627 0.0
C620 C 0.40462 0.64915 0.04912 0.0
C621 C 0.39399 0.73295 0.99212 0.0
C622 C 0.31479 0.65437 0.10004 0.0
C623 C 0.30379 0.73673 0.04255 0.0
H624 H 0.45084 0.71376 0.99094 0.0
H625 H 0.45536 0.66643 0.01874 0.0
H626 H 0.39392 0.60346 0.08858 0.0
H627 H 0.345 0.6072 0.11719 0.0
H628 H 0.2649 0.68308 0.11591 0.0
H629 H 0.25941 0.729 0.08521 0.0
H630 H 0.30782 0.77243 0.99322 0.0
H631 H 0.35653 0.76873 0.96449 0.0
H632 H 0.27223 0.65768 1.00058 0.0
H633 H 0.34991 0.62113 0.97482 0.0
H634 H 0.37065 0.78144 0.09441 0.0
H635 H 0.42759 0.71676 0.11035 0.0
C636 C 0.81894 0.45729 0.86289 0.0
C637 C 0.79841 0.4438 0.85051 0.0
C638 C 0.79523 0.45852 0.82612 0.0
C639 C 0.81455 0.47951 0.82446 0.0
N640 N 0.83 0.47893 0.84612 0.0
Co641 Co 0.86427 0.50168 0.84828 0.0
N642 N 0.85826 0.52488 0.81389 0.0
C643 C 0.83558 0.52394 0.79995 0.0
C644 C 0.83451 0.54519 0.7802 0.0
C645 C 0.8581 0.56052 0.78149 0.0
C646 C 0.87281 0.54714 0.80138 0.0
N647 N 0.89993 0.52264 0.84905 0.0
C648 C 0.91386 0.53992 0.82915 0.0
C649 C 0.94146 0.54312 0.83415 0.0
C650 C 0.94446 0.52902 0.85881 0.0
C651 C 0.91905 0.51707 0.86692 0.0
N652 N 0.86886 0.48034 0.88413 0.0
C653 C 0.88888 0.48494 0.90084 0.0
C654 C 0.88307 0.47388 0.92741 0.0
C655 C 0.85773 0.4614 0.92776 0.0
C656 C 0.85002 0.46439 0.90083 0.0
N657 N 0.88572 0.47402 0.82587 0.0
C658 C 0.91719 0.43586 0.79329 0.0
C659 C 0.92032 0.43827 0.8216 0.0
C660 C 0.9047 0.45717 0.83724 0.0
C661 C 0.89765 0.45316 0.78199 0.0
C662 C 0.88233 0.4716 0.79833 0.0
N663 N 0.84276 0.52922 0.87062 0.0
C664 C 0.83988 0.56304 0.90569 0.0
C665 C 0.81124 0.56642 0.90432 0.0
C666 C 0.79912 0.55072 0.88515 0.0
C667 C 0.81497 0.53275 0.86868 0.0
C668 C 0.85498 0.5446 0.88902 0.0
H669 H 0.80414 0.52165 0.85457 0.0
H670 H 0.87663 0.54297 0.89144 0.0
H671 H 0.90839 0.45782 0.85861 0.0
H672 H 0.86786 0.48385 0.788 0.0
C673 C 0.81693 0.50163 0.80453 0.0
C674 C 0.82566 0.45054 0.89144 0.0
C675 C 0.90134 0.55476 0.80623 0.0
C676 C 0.91236 0.50071 0.89124 0.0
H677 H 0.78639 0.42561 0.85848 0.0
H678 H 0.78021 0.4547 0.81166 0.0
H679 H 0.81867 0.54891 0.76627 0.0
H680 H 0.86388 0.57915 0.76874 0.0
H681 H 0.95799 0.55431 0.82143 0.0
H682 H 0.9631 0.52727 0.8693 0.0
H683 H 0.89532 0.47554 0.94473 0.0
H684 H 0.84635 0.45165 0.94614 0.0
H685 H 0.93458 0.42539 0.83203 0.0
H686 H 0.89428 0.453 0.7603 0.0
H687 H 0.85098 0.57474 0.91942 0.0
H688 H 0.7772 0.55173 0.88301 0.0
C689 C 0.47719 0.83401 0.92768 0.0
C690 C 0.47146 0.84184 0.95467 0.0
C691 C 0.48248 0.86766 0.95538 0.0
C692 C 0.49536 0.87375 0.92934 0.0
N693 N 0.49325 0.85344 0.91197 0.0
Co694 Co 0.51691 0.85011 0.87618 0.0
N695 N 0.53609 0.88634 0.87885 0.0
C696 C 0.52822 0.90517 0.89705 0.0
C697 C 0.54044 0.93056 0.89058 0.0
C698 C 0.55716 0.92781 0.86676 0.0
C699 C 0.55501 0.90043 0.86052 0.0
N700 N 0.54249 0.84523 0.84202 0.0
C701 C 0.56541 0.86007 0.83124 0.0
C702 C 0.58059 0.84604 0.81108 0.0
C703 C 0.56583 0.82258 0.80782 0.0
C704 C 0.54307 0.82302 0.82677 0.0
N705 N 0.496 0.81519 0.87213 0.0
C706 C 0.49808 0.80044 0.84948 0.0
C707 C 0.47764 0.78068 0.84984 0.0
C708 C 0.46173 0.78281 0.87437 0.0
C709 C 0.47402 0.80318 0.88815 0.0
N710 N 0.49001 0.86987 0.85435 0.0
C711 C 0.45482 0.90092 0.82233 0.0
C712 C 0.47257 0.88192 0.81027 0.0
C713 C 0.48975 0.86668 0.8265 0.0
C714 C 0.45437 0.90355 0.85085 0.0
C715 C 0.47191 0.8879 0.86637 0.0
N716 N 0.54375 0.83057 0.89776 0.0
C717 C 0.5694 0.78982 0.90775 0.0
C718 C 0.58182 0.80254 0.92849 0.0
C719 C 0.57487 0.82953 0.93362 0.0
C720 C 0.55598 0.84315 0.91801 0.0
C721 C 0.55048 0.80407 0.89277 0.0
H722 H 0.55151 0.86384 0.92265 0.0
H723 H 0.54148 0.79326 0.87728 0.0
H724 H 0.50286 0.85273 0.8158 0.0
H725 H 0.47058 0.89103 0.88801 0.0
C726 C 0.51038 0.89791 0.92072 0.0
C727 C 0.46581 0.80887 0.91719 0.0
C728 C 0.57204 0.88833 0.83784 0.0
C729 C 0.52108 0.80384 0.82984 0.0
H730 H 0.46082 0.83026 0.97241 0.0
H731 H 0.48195 0.88012 0.97306 0.0
H732 H 0.53744 0.94893 0.90177 0.0
H733 H 0.56938 0.94437 0.85543 0.0
H734 H 0.60007 0.85223 0.79944 0.0
H735 H 0.571 0.80715 0.79325 0.0
H736 H 0.47497 0.76605 0.83443 0.0
H737 H 0.44357 0.77018 0.88149 0.0
H738 H 0.47375 0.87924 0.78821 0.0
H739 H 0.4405 0.91762 0.86122 0.0
H740 H 0.5739 0.76877 0.90336 0.0
H741 H 0.5842 0.84021 0.94938 0.0
C742 C 0.15198 0.54595 0.84797 0.0
C743 C 0.12535 0.5511 0.85929 0.0
C744 C 0.12072 0.53473 0.88325 0.0
C745 C 0.14457 0.52041 0.88508 0.0
N746 N 0.16444 0.52697 0.86416 0.0
Co747 Co 0.20065 0.50797 0.85759 0.0
N748 N 0.1941 0.48419 0.89319 0.0
C749 C 0.17206 0.4857 0.91227 0.0
C750 C 0.17577 0.47331 0.93768 0.0
C751 C 0.20188 0.46349 0.93491 0.0
C752 C 0.21246 0.46934 0.9074 0.0
N753 N 0.23576 0.48766 0.85008 0.0
C754 C 0.24763 0.46769 0.86566 0.0
C755 C 0.27007 0.4568 0.85042 0.0
C756 C 0.27363 0.47174 0.82543 0.0
C757 C 0.25273 0.49026 0.8263 0.0
N758 N 0.20842 0.53328 0.82321 0.0
C759 C 0.23175 0.53395 0.80556 0.0
C760 C 0.2315 0.55329 0.7837 0.0
C761 C 0.20643 0.56555 0.78754 0.0
C762 C 0.19262 0.55279 0.81147 0.0
N763 N 0.22019 0.53504 0.87873 0.0
C764 C 0.24931 0.56917 0.91201 0.0
C765 C 0.26293 0.5569 0.88941 0.0
C766 C 0.24809 0.54047 0.87295 0.0
C767 C 0.22063 0.56462 0.9171 0.0
C768 C 0.20664 0.5475 0.90053 0.0
N769 N 0.18118 0.48072 0.83618 0.0
C770 C 0.1723 0.46323 0.79193 0.0
C771 C 0.15148 0.44512 0.80447 0.0
C772 C 0.14625 0.44468 0.83347 0.0
C773 C 0.16101 0.46263 0.84877 0.0
C774 C 0.18691 0.48027 0.8079 0.0
H775 H 0.15558 0.4617 0.87073 0.0
H776 H 0.20273 0.493 0.79656 0.0
H777 H 0.25973 0.5321 0.85574 0.0
H778 H 0.18489 0.54428 0.90601 0.0
C779 C 0.14957 0.50177 0.90684 0.0
C780 C 0.16401 0.55886 0.82131 0.0
C781 C 0.23981 0.46027 0.89547 0.0
C782 C 0.25073 0.51279 0.80724 0.0
H783 H 0.1106 0.56496 0.85094 0.0
H784 H 0.10213 0.53332 0.89756 0.0
H785 H 0.16186 0.4731 0.95653 0.0
H786 H 0.21203 0.4543 0.95193 0.0
H787 H 0.28324 0.44043 0.85695 0.0
H788 H 0.2902 0.47004 0.80907 0.0
H789 H 0.247 0.55694 0.76619 0.0
H790 H 0.19871 0.58134 0.77374 0.0
H791 H 0.28499 0.56019 0.88423 0.0
H792 H 0.20908 0.57365 0.93431 0.0
H793 H 0.17766 0.46406 0.76968 0.0
H794 H 0.13037 0.43099 0.8443 0.0
C795 C 0.50067 0.25898 0.84921 0.0
C796 C 0.49837 0.28075 0.82971 0.0
C797 C 0.51789 0.27712 0.80821 0.0
C798 C 0.53086 0.25345 0.81583 0.0
N799 N 0.52072 0.24162 0.84085 0.0
Co800 Co 0.53334 0.2071 0.86014 0.0
N801 N 0.5635 0.20308 0.82953 0.0
C802 C 0.56966 0.22005 0.80642 0.0
C803 C 0.59182 0.21204 0.78946 0.0
C804 C 0.60032 0.18849 0.80241 0.0
C805 C 0.58272 0.1835 0.82665 0.0
N806 N 0.54572 0.17235 0.87926 0.0
C807 C 0.56612 0.15528 0.87105 0.0
C808 C 0.56774 0.13292 0.89002 0.0
C809 C 0.54744 0.13587 0.91101 0.0
C810 C 0.53469 0.15974 0.90364 0.0
N811 N 0.50353 0.21144 0.89107 0.0
C812 C 0.49755 0.19468 0.91439 0.0
C813 C 0.4763 0.20352 0.932 0.0
C814 C 0.46838 0.22751 0.91936 0.0
C815 C 0.48534 0.23187 0.89462 0.0
N816 N 0.50751 0.18516 0.84068 0.0
C817 C 0.47105 0.15304 0.81368 0.0
C818 C 0.47093 0.15075 0.84249 0.0
C819 C 0.48934 0.16654 0.85534 0.0
C820 C 0.48957 0.17204 0.79857 0.0
C821 C 0.50733 0.18792 0.81241 0.0
N822 N 0.55911 0.22884 0.87964 0.0
C823 C 0.57948 0.23762 0.92163 0.0
C824 C 0.59717 0.25786 0.90751 0.0
C825 C 0.595 0.26385 0.87925 0.0
C826 C 0.57577 0.24934 0.86587 0.0
C827 C 0.56099 0.22338 0.9074 0.0
H828 H 0.57487 0.25491 0.84438 0.0
H829 H 0.5485 0.20799 0.91937 0.0
H830 H 0.48841 0.16313 0.8772 0.0
H831 H 0.52082 0.20212 0.79979 0.0
C832 C 0.55371 0.24288 0.8008 0.0
C833 C 0.48399 0.25615 0.8757 0.0
C834 C 0.58404 0.15905 0.8453 0.0
C835 C 0.51246 0.17087 0.91925 0.0
H836 H 0.48429 0.29769 0.83112 0.0
H837 H 0.52252 0.29048 0.78954 0.0
H838 H 0.60049 0.22193 0.76982 0.0
H839 H 0.61726 0.17611 0.79462 0.0
H840 H 0.58206 0.11618 0.88869 0.0
H841 H 0.54251 0.12219 0.9294 0.0
H842 H 0.4678 0.19385 0.95179 0.0
H843 H 0.45216 0.24051 0.9276 0.0
H844 H 0.4566 0.13688 0.85533 0.0
H845 H 0.49074 0.17444 0.77614 0.0
H846 H 0.57967 0.23274 0.94371 0.0
H847 H 0.60827 0.27934 0.86734 0.0
C848 C 0.83659 0.49812 0.15326 0.0
C849 C 0.84658 0.49172 0.12667 0.0
C850 C 0.86928 0.50826 0.11895 0.0
C851 C 0.87177 0.52391 0.141 0.0
N852 N 0.85189 0.51853 0.16235 0.0
Co853 Co 0.84741 0.53685 0.19828 0.0
N854 N 0.88057 0.5615 0.18646 0.0
C855 C 0.89624 0.56297 0.16174 0.0
C856 C 0.91748 0.58209 0.15973 0.0
C857 C 0.91541 0.59344 0.18473 0.0
C858 C 0.89299 0.58041 0.20058 0.0
N859 N 0.84347 0.55463 0.23451 0.0
C860 C 0.85993 0.57369 0.24425 0.0
C861 C 0.85055 0.57973 0.27106 0.0
C862 C 0.82732 0.5638 0.27859 0.0
C863 C 0.82396 0.54897 0.2561 0.0
N864 N 0.81379 0.51269 0.20974 0.0
C865 C 0.79698 0.5127 0.2337 0.0
C866 C 0.77569 0.49366 0.23576 0.0
C867 C 0.77895 0.48075 0.21164 0.0
C868 C 0.80209 0.49285 0.19613 0.0
N869 N 0.87128 0.50895 0.21457 0.0
C870 C 0.90571 0.47042 0.23843 0.0
C871 C 0.87936 0.4749 0.25115 0.0
C872 C 0.86267 0.49429 0.23905 0.0
C873 C 0.9145 0.48513 0.21343 0.0
C874 C 0.89695 0.50398 0.20178 0.0
N875 N 0.82344 0.56479 0.18199 0.0
C876 C 0.7822 0.59199 0.18505 0.0
C877 C 0.78791 0.60185 0.15744 0.0
C878 C 0.81216 0.59381 0.14267 0.0
C879 C 0.82949 0.5755 0.15525 0.0
C880 C 0.80013 0.57355 0.19684 0.0
H881 H 0.84743 0.57009 0.14272 0.0
H882 H 0.79441 0.56637 0.2178 0.0
H883 H 0.84304 0.49727 0.25006 0.0
H884 H 0.90467 0.51439 0.18254 0.0
C885 C 0.89165 0.54481 0.14156 0.0
C886 C 0.81229 0.48454 0.16877 0.0
C887 C 0.88501 0.58596 0.22924 0.0
C888 C 0.80275 0.52961 0.25462 0.0
H889 H 0.83823 0.47688 0.11392 0.0
H890 H 0.88216 0.50911 0.0994 0.0
H891 H 0.933 0.58673 0.14241 0.0
H892 H 0.92915 0.60918 0.19082 0.0
H893 H 0.8597 0.59396 0.28394 0.0
H894 H 0.81456 0.56294 0.29821 0.0
H895 H 0.75998 0.48932 0.25297 0.0
H896 H 0.76591 0.46411 0.20624 0.0
H897 H 0.87194 0.46404 0.27075 0.0
H898 H 0.93479 0.48204 0.20286 0.0
H899 H 0.76356 0.59773 0.19722 0.0
H900 H 0.81764 0.60142 0.12131 0.0
C901 C 0.57014 0.85991 0.16581 0.0
C902 C 0.5813 0.87162 0.14024 0.0
C903 C 0.57193 0.89785 0.13811 0.0
C904 C 0.55564 0.90071 0.1624 0.0
N905 N 0.55417 0.8781 0.18011 0.0
Co906 Co 0.53149 0.87401 0.2173 0.0
N907 N 0.51411 0.91116 0.21233 0.0
C908 C 0.5205 0.92949 0.19033 0.0
C909 C 0.51262 0.95564 0.19521 0.0
C910 C 0.5 0.95384 0.22159 0.0
C911 C 0.49881 0.92625 0.23095 0.0
N912 N 0.50963 0.8703 0.2549 0.0
C913 C 0.49553 0.88959 0.2697 0.0
C914 C 0.4941 0.88201 0.29793 0.0
C915 C 0.50393 0.85608 0.30076 0.0
C916 C 0.5128 0.84976 0.27441 0.0
N917 N 0.548 0.83646 0.22174 0.0
C918 C 0.54297 0.81851 0.24413 0.0
C919 C 0.55506 0.79354 0.24102 0.0
C920 C 0.56826 0.7954 0.21477 0.0
C921 C 0.56353 0.82152 0.20332 0.0
N922 N 0.56273 0.89158 0.23538 0.0
C923 C 0.59994 0.91981 0.26683 0.0
C924 C 0.59213 0.89214 0.27343 0.0
C925 C 0.57396 0.87857 0.25754 0.0
C926 C 0.59009 0.93236 0.24302 0.0
C927 C 0.57219 0.91798 0.22761 0.0
N928 N 0.50075 0.85641 0.19962 0.0
C929 C 0.46887 0.81765 0.19831 0.0
C930 C 0.46496 0.82446 0.17037 0.0
C931 C 0.47809 0.84886 0.15819 0.0
C932 C 0.49536 0.86453 0.17312 0.0
C933 C 0.48656 0.83373 0.21239 0.0
H934 H 0.50486 0.88277 0.16257 0.0
H935 H 0.48909 0.8271 0.23346 0.0
H936 H 0.56916 0.85758 0.26392 0.0
H937 H 0.56628 0.92892 0.20954 0.0
C938 C 0.53946 0.9233 0.16823 0.0
C939 C 0.57444 0.83107 0.1749 0.0
C940 C 0.48363 0.91535 0.25785 0.0
C941 C 0.52724 0.82611 0.26789 0.0
H942 H 0.59429 0.86197 0.12445 0.0
H943 H 0.57576 0.91275 0.12054 0.0
H944 H 0.51802 0.97427 0.18227 0.0
H945 H 0.49452 0.97144 0.23316 0.0
H946 H 0.48816 0.89438 0.31509 0.0
H947 H 0.50619 0.84406 0.31995 0.0
H948 H 0.55423 0.776 0.256 0.0
H949 H 0.57997 0.77933 0.20506 0.0
H950 H 0.59936 0.88102 0.2913 0.0
H951 H 0.59628 0.95333 0.23605 0.0
H952 H 0.45854 0.79978 0.20943 0.0
H953 H 0.47596 0.85556 0.13681 0.0
C954 C 0.21289 0.57523 0.16352 0.0
C955 C 0.20211 0.59129 0.14257 0.0
C956 C 0.17436 0.58506 0.14436 0.0
C957 C 0.16969 0.56574 0.16627 0.0
N958 N 0.19278 0.55924 0.17829 0.0
Co959 Co 0.19472 0.53322 0.21139 0.0
N960 N 0.15824 0.51589 0.2066 0.0
C961 C 0.13926 0.52641 0.19065 0.0
C962 C 0.11655 0.50936 0.19036 0.0
C963 C 0.1213 0.48688 0.20753 0.0
C964 C 0.14658 0.49167 0.21778 0.0
N965 N 0.19654 0.50747 0.24469 0.0
C966 C 0.18108 0.48454 0.25354 0.0
C967 C 0.18842 0.47379 0.279 0.0
C968 C 0.20908 0.49053 0.2862 0.0
C969 C 0.21315 0.51063 0.26498 0.0
N970 N 0.2312 0.5506 0.21604 0.0
C971 C 0.24446 0.54852 0.23916 0.0
C972 C 0.26971 0.562 0.23607 0.0
C973 C 0.27242 0.57357 0.20942 0.0
C974 C 0.24838 0.56677 0.19778 0.0
N975 N 0.1763 0.55962 0.23457 0.0
C976 C 0.14566 0.59761 0.26382 0.0
C977 C 0.16839 0.60634 0.24522 0.0
C978 C 0.18352 0.58693 0.23079 0.0
C979 C 0.13949 0.56951 0.26864 0.0
C980 C 0.15503 0.55088 0.25381 0.0
N981 N 0.21289 0.50676 0.18824 0.0
C982 C 0.24807 0.47351 0.18042 0.0
C983 C 0.23846 0.46869 0.15491 0.0
C984 C 0.21571 0.48297 0.1465 0.0
C985 C 0.20313 0.50184 0.16354 0.0
C986 C 0.23506 0.49283 0.19674 0.0
H987 H 0.18557 0.51251 0.15664 0.0
H988 H 0.24305 0.49663 0.2161 0.0
H989 H 0.20047 0.59413 0.21595 0.0
H990 H 0.14923 0.52945 0.2574 0.0
C991 C 0.14526 0.55018 0.1732 0.0
C992 C 0.24162 0.57763 0.1703 0.0
C993 C 0.15732 0.47433 0.24018 0.0
C994 C 0.23462 0.53038 0.26159 0.0
H995 H 0.21304 0.60623 0.12777 0.0
H996 H 0.15956 0.59306 0.13076 0.0
H997 H 0.09903 0.51246 0.1784 0.0
H998 H 0.10747 0.46919 0.21226 0.0
H999 H 0.17942 0.45609 0.29151 0.0
H1000 H 0.22015 0.48804 0.30449 0.0
H1001 H 0.28483 0.56252 0.25102 0.0
H1002 H 0.29005 0.58572 0.1998 0.0
H1003 H 0.17373 0.62798 0.24101 0.0
H1004 H 0.12236 0.56199 0.28335 0.0
H1005 H 0.26592 0.46302 0.18731 0.0
H1006 H 0.20776 0.47964 0.12685 0.0
C1007 C 0.48508 0.20199 0.23638 0.0
C1008 C 0.47318 0.21468 0.25923 0.0
C1009 C 0.4864 0.23964 0.25915 0.0
C1010 C 0.50553 0.24079 0.23636 0.0
N1011 N 0.50516 0.21816 0.22176 0.0
Co1012 Co 0.52943 0.2115 0.18714 0.0
N1013 N 0.55227 0.24548 0.19015 0.0
C1014 C 0.55024 0.26201 0.21147 0.0
C1015 C 0.57189 0.28046 0.21083 0.0
C1016 C 0.58842 0.27578 0.18732 0.0
C1017 C 0.57522 0.25542 0.17427 0.0
N1018 N 0.55264 0.2059 0.15153 0.0
C1019 C 0.57058 0.22373 0.13572 0.0
C1020 C 0.5761 0.21499 0.10907 0.0
C1021 C 0.56258 0.19035 0.10853 0.0
C1022 C 0.54871 0.18577 0.13434 0.0
N1023 N 0.50779 0.17634 0.18531 0.0
C1024 C 0.51156 0.15808 0.16564 0.0
C1025 C 0.49515 0.13479 0.17085 0.0
C1026 C 0.48042 0.13808 0.19577 0.0
C1027 C 0.48875 0.16331 0.20424 0.0
N1028 N 0.50319 0.23283 0.16471 0.0
C1029 C 0.46894 0.26372 0.12993 0.0
C1030 C 0.47209 0.23534 0.12824 0.0
C1031 C 0.48904 0.22054 0.14549 0.0
C1032 C 0.48286 0.27612 0.15009 0.0
C1033 C 0.49952 0.26049 0.16714 0.0
N1034 N 0.55557 0.19024 0.20945 0.0
C1035 C 0.58527 0.15116 0.21629 0.0
C1036 C 0.59036 0.15857 0.24289 0.0
C1037 C 0.57796 0.18262 0.25187 0.0
C1038 C 0.56076 0.19775 0.23522 0.0
C1039 C 0.56818 0.16719 0.20004 0.0
H1040 H 0.55167 0.21543 0.24382 0.0
H1041 H 0.56509 0.16041 0.18001 0.0
H1042 H 0.4904 0.19912 0.14262 0.0
H1043 H 0.50949 0.27138 0.18196 0.0
C1044 C 0.52736 0.26002 0.23133 0.0
C1045 C 0.47818 0.17384 0.23056 0.0
C1046 C 0.58289 0.24881 0.1454 0.0
C1047 C 0.53015 0.16388 0.14221 0.0
H1048 H 0.4574 0.20634 0.27498 0.0
H1049 H 0.4836 0.2544 0.27483 0.0
H1050 H 0.57515 0.29565 0.22553 0.0
H1051 H 0.60749 0.28694 0.18013 0.0
H1052 H 0.58778 0.22545 0.09127 0.0
H1053 H 0.56184 0.17793 0.09093 0.0
H1054 H 0.49417 0.11743 0.15816 0.0
H1055 H 0.4654 0.12349 0.20659 0.0
H1056 H 0.46136 0.22426 0.11372 0.0
H1057 H 0.48146 0.29798 0.15247 0.0
H1058 H 0.59393 0.13274 0.20807 0.0
H1059 H 0.58149 0.19008 0.27177 0.0
C1060 C 0.8472 0.89218 0.49791 0.0
C1061 C 0.85939 0.91728 0.48779 0.0
C1062 C 0.88426 0.91898 0.49853 0.0
C1063 C 0.88597 0.89487 0.51441 0.0
N1064 N 0.86368 0.8778 0.51453 0.0
Co1065 Co 0.85842 0.84019 0.53439 0.0
N1066 N 0.89448 0.84333 0.55125 0.0
C1067 C 0.91184 0.86555 0.54875 0.0
C1068 C 0.93477 0.86205 0.56288 0.0
C1069 C 0.93193 0.83603 0.57523 0.0
C1070 C 0.90736 0.82505 0.56783 0.0
N1071 N 0.85382 0.80206 0.55318 0.0
C1072 C 0.87094 0.78724 0.56876 0.0
C1073 C 0.85997 0.76114 0.57683 0.0
C1074 C 0.83514 0.75932 0.56598 0.0
C1075 C 0.83237 0.78426 0.55184 0.0
N1076 N 0.8218 0.83755 0.51846 0.0
C1077 C 0.80314 0.81643 0.52327 0.0
C1078 C 0.77935 0.82071 0.5107 0.0
C1079 C 0.78286 0.84621 0.4972 0.0
C1080 C 0.80876 0.85604 0.50221 0.0
N1081 N 0.87723 0.8244 0.50153 0.0
C1082 C 0.90352 0.80163 0.45484 0.0
C1083 C 0.87734 0.79213 0.46609 0.0
C1084 C 0.86467 0.80372 0.48926 0.0
C1085 C 0.91635 0.82283 0.46714 0.0
C1086 C 0.90289 0.83388 0.49036 0.0
N1087 N 0.83925 0.85611 0.56709 0.0
C1088 C 0.79998 0.85548 0.60157 0.0
C1089 C 0.80514 0.88295 0.60576 0.0
C1090 C 0.82883 0.89615 0.59228 0.0
C1091 C 0.84585 0.8822 0.57351 0.0
C1092 C 0.81726 0.84248 0.58222 0.0
H1093 H 0.86369 0.89325 0.56385 0.0
H1094 H 0.81175 0.82177 0.57929 0.0
H1095 H 0.84484 0.7954 0.49698 0.0
H1096 H 0.91368 0.84993 0.49894 0.0
C1097 C 0.9072 0.88849 0.53109 0.0
C1098 C 0.81979 0.88323 0.49137 0.0
C1099 C 0.89756 0.79697 0.57669 0.0
C1100 C 0.80926 0.79222 0.5384 0.0
H1101 H 0.85103 0.93289 0.47425 0.0
H1102 H 0.89911 0.936 0.49552 0.0
H1103 H 0.95185 0.87647 0.56359 0.0
H1104 H 0.9465 0.8261 0.58794 0.0
H1105 H 0.86895 0.74514 0.58941 0.0
H1106 H 0.82069 0.74197 0.56835 0.0
H1107 H 0.76162 0.80686 0.51112 0.0
H1108 H 0.76801 0.85644 0.48507 0.0
H1109 H 0.86689 0.77531 0.45753 0.0
H1110 H 0.93667 0.83084 0.45893 0.0
H1111 H 0.78199 0.84448 0.61218 0.0
H1112 H 0.83391 0.91728 0.59585 0.0
C1113 C 0.17083 0.7885 0.57751 0.0
C1114 C 0.17927 0.76171 0.58273 0.0
C1115 C 0.20401 0.7593 0.56739 0.0
C1116 C 0.20913 0.78448 0.55345 0.0
N1117 N 0.18921 0.80296 0.55896 0.0
Co1118 Co 0.18738 0.84119 0.54116 0.0
N1119 N 0.22397 0.83752 0.51875 0.0
C1120 C 0.24081 0.81573 0.5196 0.0
C1121 C 0.26516 0.81958 0.50293 0.0
C1122 C 0.264 0.84551 0.49081 0.0
C1123 C 0.23878 0.85594 0.50071 0.0
N1124 N 0.18507 0.87905 0.52258 0.0
C1125 C 0.20313 0.89318 0.50345 0.0
C1126 C 0.1931 0.91867 0.49538 0.0
C1127 C 0.16796 0.92089 0.51017 0.0
C1128 C 0.164 0.89668 0.52622 0.0
N1129 N 0.15129 0.84523 0.56435 0.0
C1130 C 0.13547 0.86782 0.56499 0.0
C1131 C 0.11251 0.86498 0.5838 0.0
C1132 C 0.11367 0.83903 0.59594 0.0
C1133 C 0.13724 0.82736 0.58357 0.0
N1134 N 0.20697 0.85627 0.57089 0.0
C1135 C 0.23521 0.87893 0.61226 0.0
C1136 C 0.21381 0.89292 0.60068 0.0
C1137 C 0.2 0.88125 0.58045 0.0
C1138 C 0.2421 0.85318 0.60292 0.0
C1139 C 0.22787 0.84235 0.58227 0.0
N1140 N 0.16766 0.82617 0.51147 0.0
C1141 C 0.12784 0.82571 0.48536 0.0
C1142 C 0.13819 0.8037 0.47096 0.0
C1143 C 0.16383 0.79342 0.47674 0.0
C1144 C 0.17815 0.80493 0.4969 0.0
C1145 C 0.14279 0.83655 0.50529 0.0
H1146 H 0.19751 0.79614 0.50048 0.0
H1147 H 0.13353 0.85307 0.51565 0.0
H1148 H 0.18395 0.89308 0.57267 0.0
H1149 H 0.23424 0.82279 0.57576 0.0
C1150 C 0.23278 0.7916 0.53559 0.0
C1151 C 0.14519 0.79916 0.5906 0.0
C1152 C 0.23009 0.88357 0.49268 0.0
C1153 C 0.14188 0.89081 0.54654 0.0
H1154 H 0.16866 0.74543 0.59614 0.0
H1155 H 0.21674 0.7413 0.56647 0.0
H1156 H 0.28179 0.80524 0.49995 0.0
H1157 H 0.28001 0.85562 0.4764 0.0
H1158 H 0.20308 0.9342 0.48058 0.0
H1159 H 0.15448 0.93833 0.50972 0.0
H1160 H 0.09664 0.87989 0.58797 0.0
H1161 H 0.09871 0.82972 0.61198 0.0
H1162 H 0.20804 0.91322 0.60662 0.0
H1163 H 0.25838 0.84139 0.61141 0.0
H1164 H 0.10787 0.83413 0.48188 0.0
H1165 H 0.17281 0.77655 0.46582 0.0
C1166 C 0.14621 0.18294 0.56542 0.0
C1167 C 0.11891 0.1733 0.56967 0.0
C1168 C 0.11848 0.14708 0.56132 0.0
C1169 C 0.14517 0.14224 0.55133 0.0
N1170 N 0.16246 0.16399 0.55239 0.0
Co1171 Co 0.20143 0.16701 0.53424 0.0
N1172 N 0.19735 0.13357 0.51282 0.0
C1173 C 0.17632 0.11498 0.51766 0.0
C1174 C 0.1785 0.09382 0.50036 0.0
C1175 C 0.2027 0.09903 0.48378 0.0
C1176 C 0.21417 0.12309 0.49199 0.0
N1177 N 0.24035 0.17031 0.51599 0.0
C1178 C 0.25361 0.15702 0.49472 0.0
C1179 C 0.28127 0.16532 0.49018 0.0
C1180 C 0.28561 0.18396 0.50928 0.0
C1181 C 0.2605 0.18607 0.52446 0.0
N1182 N 0.20558 0.20018 0.55593 0.0
C1183 C 0.23016 0.21129 0.56056 0.0
C1184 C 0.22799 0.23139 0.57898 0.0
C1185 C 0.20028 0.23314 0.58669 0.0
C1186 C 0.18673 0.21435 0.57202 0.0
N1187 N 0.21413 0.14381 0.56473 0.0
C1188 C 0.23619 0.11318 0.60776 0.0
C1189 C 0.21631 0.133 0.61359 0.0
C1190 C 0.2053 0.14789 0.59175 0.0
C1191 C 0.24415 0.10849 0.58007 0.0
C1192 C 0.23296 0.12395 0.55899 0.0
N1193 N 0.18893 0.19001 0.50377 0.0
C1194 C 0.19337 0.23109 0.47324 0.0
C1195 C 0.16964 0.2234 0.46103 0.0
C1196 C 0.15613 0.19844 0.47045 0.0
C1197 C 0.16615 0.18208 0.49161 0.0
C1198 C 0.20263 0.21413 0.49462 0.0
H1199 H 0.15509 0.1632 0.49833 0.0
H1200 H 0.22071 0.22062 0.50388 0.0
H1201 H 0.19005 0.16302 0.59679 0.0
H1202 H 0.24021 0.1201 0.53805 0.0
C1203 C 0.15324 0.12005 0.5359 0.0
C1204 C 0.15624 0.20907 0.57593 0.0
C1205 C 0.24207 0.1338 0.48101 0.0
C1206 C 0.2546 0.2037 0.54568 0.0
H1207 H 0.1008 0.18405 0.57732 0.0
H1208 H 0.10044 0.13381 0.56088 0.0
H1209 H 0.16389 0.07696 0.49944 0.0
H1210 H 0.21108 0.08634 0.46768 0.0
H1211 H 0.29699 0.1579 0.47533 0.0
H1212 H 0.30484 0.1946 0.51186 0.0
H1213 H 0.24459 0.24333 0.58608 0.0
H1214 H 0.1914 0.24623 0.60216 0.0
H1215 H 0.20943 0.13705 0.63481 0.0
H1216 H 0.25972 0.09361 0.5746 0.0
H1217 H 0.20463 0.2501 0.46647 0.0
H1218 H 0.13738 0.19184 0.46216 0.0
C1219 C 0.80728 0.16232 0.48683 0.0
C1220 C 0.78236 0.17397 0.4812 0.0
C1221 C 0.78055 0.19787 0.4943 0.0
C1222 C 0.80419 0.19947 0.50742 0.0
N1223 N 0.82122 0.17812 0.50339 0.0
Co1224 Co 0.85674 0.1718 0.52094 0.0
N1225 N 0.85351 0.20672 0.54088 0.0
C1226 C 0.83299 0.22502 0.53959 0.0
C1227 C 0.83652 0.24754 0.55447 0.0
C1228 C 0.86092 0.24359 0.56579 0.0
C1229 C 0.87098 0.2188 0.55711 0.0
N1230 N 0.89195 0.16517 0.53889 0.0
C1231 C 0.90552 0.18066 0.55596 0.0
C1232 C 0.92951 0.1682 0.56318 0.0
C1233 C 0.93129 0.14417 0.55025 0.0
C1234 C 0.90839 0.14325 0.53587 0.0
N1235 N 0.86023 0.13717 0.50051 0.0
C1236 C 0.8814 0.11951 0.50089 0.0
C1237 C 0.87869 0.09776 0.4848 0.0
C1238 C 0.85424 0.10157 0.47354 0.0
C1239 C 0.84315 0.12542 0.48362 0.0
N1240 N 0.87825 0.1929 0.48912 0.0
C1241 C 0.91283 0.22712 0.4505 0.0
C1242 C 0.92131 0.2012 0.45992 0.0
C1243 C 0.90378 0.18449 0.47883 0.0
C1244 C 0.886 0.23484 0.4594 0.0
C1245 C 0.86916 0.21752 0.47847 0.0
N1246 N 0.83548 0.15089 0.55304 0.0
C1247 C 0.82866 0.11003 0.58444 0.0
C1248 C 0.80533 0.12098 0.59849 0.0
C1249 C 0.79747 0.14726 0.58944 0.0
C1250 C 0.81265 0.16169 0.56688 0.0
C1251 C 0.84329 0.12519 0.56206 0.0
H1252 H 0.80539 0.18148 0.56095 0.0
H1253 H 0.86086 0.11562 0.55239 0.0
H1254 H 0.91165 0.16514 0.4853 0.0
H1255 H 0.84917 0.22484 0.48486 0.0
C1256 C 0.81077 0.2205 0.52406 0.0
C1257 C 0.81627 0.13585 0.47653 0.0
C1258 C 0.89721 0.20771 0.56498 0.0
C1259 C 0.90274 0.12311 0.51782 0.0
H1260 H 0.76679 0.16589 0.46924 0.0
H1261 H 0.76374 0.21218 0.4946 0.0
H1262 H 0.82303 0.26487 0.55668 0.0
H1263 H 0.87032 0.25746 0.57887 0.0
H1264 H 0.9445 0.17595 0.57604 0.0
H1265 H 0.94772 0.12947 0.55071 0.0
H1266 H 0.89265 0.08089 0.48192 0.0
H1267 H 0.84551 0.08815 0.4596 0.0
H1268 H 0.94157 0.19387 0.45297 0.0
H1269 H 0.87833 0.25462 0.45257 0.0
H1270 H 0.83583 0.08989 0.59081 0.0
H1271 H 0.77932 0.15655 0.59934 0.0
C1272 C 0.26868 0.09057 0.46926 0.0
C1273 C 0.26076 0.11745 0.46135 0.0
H1274 H 0.29172 0.05484 0.4581 0.0
C1275 C 0.27135 0.12881 0.43487 0.0
H1276 H 0.26134 0.08123 0.48958 0.0
C1277 C 0.28898 0.11369 0.41684 0.0
C1278 C 0.29665 0.08669 0.42466 0.0
H1279 H 0.26598 0.14947 0.4281 0.0
H1280 H 0.29678 0.1232 0.39673 0.0
C1281 C 0.28622 0.07545 0.45123 0.0
C1282 C 0.97832 0.26706 0.42115 0.0
C1283 C 0.96906 0.28302 0.39895 0.0
H1284 H 0.9678 0.23703 0.45492 0.0
C1285 C 0.94132 0.28057 0.39348 0.0
H1286 H 0.99967 0.26877 0.4257 0.0
C1287 C 0.92301 0.2624 0.4101 0.0
C1288 C 0.9322 0.24623 0.43239 0.0
H1289 H 0.93386 0.29274 0.37636 0.0
H1290 H 0.90174 0.26079 0.40533 0.0
C1291 C 0.96011 0.24881 0.43768 0.0
C1292 C 0.80081 0.89818 0.44619 0.0
C1293 C 0.80298 0.90212 0.47431 0.0
H1294 H 0.78454 0.91272 0.40843 0.0
C1295 C 0.78975 0.9246 0.486 0.0
H1296 H 0.81088 0.88102 0.43668 0.0
C1297 C 0.77465 0.94279 0.46992 0.0
C1298 C 0.77253 0.93912 0.4416 0.0
H1299 H 0.79125 0.92817 0.50761 0.0
H1300 H 0.76506 0.96009 0.47959 0.0
C1301 C 0.78587 0.91648 0.43001 0.0
C1302 C 0.10658 0.80719 0.43311 0.0
C1303 C 0.12161 0.79087 0.45107 0.0
H1304 H 0.07724 0.80804 0.40291 0.0
C1305 C 0.11947 0.76212 0.45102 0.0
H1306 H 0.10808 0.82943 0.43249 0.0
C1307 C 0.10208 0.74993 0.43391 0.0
C1308 C 0.08642 0.76623 0.41655 0.0
H1309 H 0.13058 0.749 0.46482 0.0
H1310 H 0.10075 0.72769 0.43441 0.0
C1311 C 0.08913 0.79498 0.41601 0.0
C1312 C 0.23742 0.90909 0.65185 0.0
C1313 C 0.2509 0.89206 0.6328 0.0
H1314 H 0.24154 0.93908 0.68123 0.0
C1315 C 0.27975 0.88962 0.63199 0.0
H1316 H 0.21514 0.91093 0.65354 0.0
C1317 C 0.2949 0.90508 0.64873 0.0
C1318 C 0.28159 0.92367 0.66627 0.0
H1319 H 0.29085 0.87678 0.61753 0.0
H1320 H 0.31715 0.90305 0.64725 0.0
C1321 C 0.25258 0.92493 0.66816 0.0
C1322 C 0.09783 0.2341 0.62884 0.0
C1323 C 0.10163 0.26302 0.62696 0.0
H1324 H 0.11364 0.19493 0.61856 0.0
C1325 C 0.12414 0.27366 0.60839 0.0
H1326 H 0.08086 0.22448 0.64237 0.0
C1327 C 0.14035 0.25661 0.59103 0.0
C1328 C 0.13711 0.22764 0.59357 0.0
H1329 H 0.12934 0.29541 0.60699 0.0
H1330 H 0.15604 0.26629 0.57595 0.0
C1331 C 0.11612 0.21687 0.61388 0.0
C1332 C 0.78373 0.07653 0.62063 0.0
C1333 C 0.78899 0.10488 0.62196 0.0
H1334 H 0.7629 0.04001 0.64016 0.0
C1335 C 0.77792 0.1178 0.64555 0.0
H1336 H 0.79158 0.06598 0.60266 0.0
C1337 C 0.76156 0.10284 0.66696 0.0
C1338 C 0.75599 0.07473 0.6652 0.0
H1339 H 0.78181 0.13951 0.64741 0.0
H1340 H 0.75274 0.11332 0.68462 0.0
C1341 C 0.76732 0.06164 0.64201 0.0
C1342 C 0.95044 0.74484 0.59889 0.0
C1343 C 0.94732 0.74528 0.62808 0.0
H1344 H 0.93729 0.76082 0.55993 0.0
C1345 C 0.92709 0.76256 0.64003 0.0
H1346 H 0.96592 0.7322 0.58875 0.0
C1347 C 0.91086 0.77903 0.62341 0.0
C1348 C 0.91432 0.77869 0.59439 0.0
H1349 H 0.92361 0.76329 0.66234 0.0
H1350 H 0.89565 0.79219 0.63323 0.0
C1351 C 0.93417 0.76135 0.58229 0.0
C1352 C 0.42008 0.31785 0.10177 0.0
C1353 C 0.4178 0.31004 0.0747 0.0
H1354 H 0.43726 0.30944 0.14044 0.0
C1355 C 0.4326 0.28724 0.06576 0.0
H1356 H 0.40883 0.33531 0.10923 0.0
C1357 C 0.44922 0.27251 0.08346 0.0
C1358 C 0.45143 0.27999 0.11081 0.0
H1359 H 0.43136 0.28086 0.04496 0.0
H1360 H 0.4606 0.25538 0.07546 0.0
C1361 C 0.43659 0.30304 0.11959 0.0
C1362 C 0.80959 0.43847 0.14948 0.0
C1363 C 0.79695 0.46327 0.1557 0.0
H1364 H 0.80712 0.40151 0.1281 0.0
C1365 C 0.77051 0.46869 0.14765 0.0
H1366 H 0.83002 0.43406 0.1556 0.0
C1367 C 0.75724 0.44991 0.13265 0.0
C1368 C 0.77053 0.42582 0.12519 0.0
H1369 H 0.76059 0.48784 0.15219 0.0
H1370 H 0.73723 0.45477 0.12571 0.0
C1371 C 0.79659 0.41998 0.13394 0.0
C1372 C 0.63489 0.79657 0.13381 0.0
C1373 C 0.62151 0.77696 0.11906 0.0
H1374 H 0.63092 0.82861 0.16249 0.0
C1375 C 0.59222 0.77543 0.12344 0.0
H1376 H 0.65722 0.7985 0.1319 0.0
C1377 C 0.57717 0.79258 0.14158 0.0
C1378 C 0.59069 0.81215 0.15592 0.0
H1379 H 0.58063 0.76125 0.1125 0.0
H1380 H 0.55479 0.79076 0.14416 0.0
C1381 C 0.61978 0.81385 0.15174 0.0
C1382 C 0.27037 0.59102 0.12544 0.0
C1383 C 0.26114 0.59698 0.15265 0.0
H1384 H 0.29436 0.60484 0.08735 0.0
C1385 C 0.2691 0.6222 0.16232 0.0
H1386 H 0.26414 0.57189 0.11742 0.0
C1387 C 0.28664 0.64077 0.14537 0.0
C1388 C 0.29581 0.63485 0.11814 0.0
H1389 H 0.26167 0.62756 0.183 0.0
H1390 H 0.29294 0.65984 0.15345 0.0
C1391 C 0.28751 0.60982 0.10831 0.0
C1392 C 0.40885 0.78105 0.97252 0.0
C1393 C 0.41152 0.75239 0.97183 0.0
H1394 H 0.42035 0.8208 0.95316 0.0
C1395 C 0.43101 0.74259 0.95166 0.0
H1396 H 0.39422 0.78966 0.98767 0.0
C1397 C 0.44944 0.76072 0.93523 0.0
C1398 C 0.44641 0.78937 0.93552 0.0
H1399 H 0.43269 0.72078 0.94909 0.0
H1400 H 0.46589 0.75216 0.92201 0.0
C1401 C 0.42469 0.79909 0.95336 0.0
C1402 C 0.26667 0.40905 0.95022 0.0
C1403 C 0.29556 0.41388 0.94683 0.0
H1404 H 0.22772 0.41553 0.93401 0.0
C1405 C 0.30588 0.43364 0.92558 0.0
H1406 H 0.25736 0.39462 0.96653 0.0
C1407 C 0.28793 0.44942 0.91018 0.0
C1408 C 0.25915 0.44378 0.91288 0.0
H1409 H 0.32793 0.43738 0.92106 0.0
H1410 H 0.29681 0.46587 0.89578 0.0
C1411 C 0.24922 0.42217 0.93225 0.0
C1412 C 0.63027 0.25858 0.94388 0.0
C1413 C 0.61744 0.27256 0.92251 0.0
H1414 H 0.65579 0.26137 0.97688 0.0
C1415 C 0.62329 0.30077 0.91647 0.0
H1416 H 0.62676 0.23671 0.9487 0.0
C1417 C 0.64092 0.31482 0.93206 0.0
C1418 C 0.65274 0.30104 0.95426 0.0
H1419 H 0.61366 0.31223 0.90025 0.0
H1420 H 0.64497 0.33656 0.92689 0.0
C1421 C 0.64742 0.27267 0.95976 0.0
C1422 C 0.75364 0.61495 0.93179 0.0
C1423 C 0.76168 0.62171 0.95779 0.0
H1424 H 0.7624 0.59363 0.89481 0.0
C1425 C 0.78656 0.6102 0.96562 0.0
H1426 H 0.7347 0.62276 0.92461 0.0
C1427 C 0.80232 0.59257 0.94861 0.0
C1428 C 0.79427 0.58575 0.92264 0.0
H1429 H 0.79429 0.61488 0.98498 0.0
H1430 H 0.82075 0.58403 0.95626 0.0
C1431 C 0.76958 0.59755 0.91462 0.0
C1432 C 0.13395 0.40438 0.27473 0.0
C1433 C 0.10727 0.40986 0.28676 0.0
H1434 H 0.17036 0.4204 0.24965 0.0
C1435 C 0.09692 0.43639 0.28279 0.0
H1436 H 0.1426 0.38423 0.27798 0.0
C1437 C 0.11309 0.45718 0.26753 0.0
C1438 C 0.13956 0.45163 0.25504 0.0
H1439 H 0.07651 0.44116 0.29205 0.0
H1440 H 0.10502 0.47774 0.26577 0.0
C1441 C 0.14981 0.425 0.25866 0.0
C1442 C 0.13903 0.60305 0.81118 0.0
C1443 C 0.14655 0.57663 0.80374 0.0
H1444 H 0.11628 0.6393 0.80194 0.0
C1445 C 0.13614 0.56652 0.7803 0.0
H1446 H 0.14672 0.61132 0.82921 0.0
C1447 C 0.11833 0.58231 0.76482 0.0
C1448 C 0.11048 0.60883 0.77221 0.0
H1449 H 0.14138 0.54611 0.77427 0.0
H1450 H 0.11025 0.57335 0.74735 0.0
C1451 C 0.1213 0.61895 0.79564 0.0
C1452 C 0.42221 0.12887 0.76323 0.0
C1453 C 0.41525 0.10215 0.77461 0.0
H1454 H 0.44469 0.16629 0.76708 0.0
C1455 C 0.42695 0.09207 0.79842 0.0
H1456 H 0.41338 0.13696 0.74479 0.0
C1457 C 0.44541 0.10842 0.81071 0.0
C1458 C 0.45212 0.13546 0.79979 0.0
H1459 H 0.42226 0.07129 0.80717 0.0
H1460 H 0.45466 0.09966 0.82862 0.0
C1461 C 0.44031 0.1455 0.77586 0.0
C1462 C 0.92371 0.40489 0.75233 0.0
C1463 C 0.93399 0.41583 0.77575 0.0
H1464 H 0.93078 0.37937 0.71781 0.0
C1465 C 0.96067 0.40751 0.78185 0.0
H1466 H 0.90324 0.40988 0.74683 0.0
C1467 C 0.97632 0.38946 0.7652 0.0
C1468 C 0.96608 0.37913 0.74167 0.0
H1469 H 0.96992 0.41538 0.79922 0.0
H1470 H 0.99676 0.38391 0.77048 0.0
C1471 C 0.93946 0.38703 0.73563 0.0
C1472 C 0.61645 0.92324 0.77559 0.0
C1473 C 0.63297 0.94174 0.78825 0.0
H1474 H 0.58203 0.89483 0.78079 0.0
C1475 C 0.63094 0.94068 0.81741 0.0
H1476 H 0.61793 0.92287 0.75321 0.0
C1477 C 0.61316 0.92155 0.8333 0.0
C1478 C 0.59443 0.90531 0.82064 0.0
H1479 H 0.64282 0.95488 0.82808 0.0
H1480 H 0.61298 0.9206 0.85567 0.0
C1481 C 0.59633 0.90652 0.79147 0.0
C1482 C 0.94548 0.60605 0.26707 0.0
C1483 C 0.94027 0.63385 0.27109 0.0
H1484 H 0.93164 0.56908 0.25053 0.0
C1485 C 0.91679 0.64588 0.26101 0.0
H1486 H 0.96358 0.59637 0.27436 0.0
C1487 C 0.89865 0.63024 0.24746 0.0
C1488 C 0.90385 0.6025 0.24384 0.0
H1489 H 0.91215 0.66717 0.26413 0.0
H1490 H 0.88054 0.63969 0.23991 0.0
C1491 C 0.92737 0.59049 0.25349 0.0
C1492 C 0.42564 0.93588 0.31478 0.0
C1493 C 0.41881 0.96254 0.30532 0.0
H1494 H 0.44604 0.89889 0.3064 0.0
C1495 C 0.42915 0.97135 0.27807 0.0
H1496 H 0.41631 0.92718 0.3347 0.0
C1497 C 0.4475 0.95511 0.26198 0.0
C1498 C 0.45861 0.93034 0.27303 0.0
H1499 H 0.42278 0.99082 0.26895 0.0
H1500 H 0.4516 0.96203 0.24049 0.0
C1501 C 0.44426 0.91989 0.29867 0.0
C1502 C 0.61947 0.12522 0.30769 0.0
C1503 C 0.64133 0.10936 0.29656 0.0
H1504 H 0.58613 0.15187 0.30027 0.0
C1505 C 0.64627 0.10999 0.26737 0.0
H1506 H 0.61496 0.12594 0.3299 0.0
C1507 C 0.63003 0.12584 0.25007 0.0
C1508 C 0.60802 0.1415 0.26126 0.0
H1509 H 0.6625 0.09791 0.25766 0.0
H1510 H 0.63502 0.12591 0.22785 0.0
C1511 C 0.60304 0.14073 0.29045 0.0
C1512 C 0.75643 0.93773 0.62894 0.0
C1513 C 0.74923 0.92867 0.65675 0.0
H1514 H 0.78043 0.93018 0.59096 0.0
C1515 C 0.75941 0.90382 0.66746 0.0
H1516 H 0.74901 0.95707 0.6205 0.0
C1517 C 0.77719 0.88847 0.65064 0.0
C1518 C 0.78532 0.89816 0.62318 0.0
H1519 H 0.75411 0.89668 0.68898 0.0
H1520 H 0.7853 0.86956 0.65929 0.0
C1521 C 0.77456 0.92263 0.61227 0.0
C1522 C 0.10053 0.77285 0.60395 0.0
C1523 C 0.12685 0.7809 0.61056 0.0
H1524 H 0.06376 0.74826 0.6164 0.0
C1525 C 0.13619 0.77054 0.63561 0.0
H1526 H 0.09304 0.78051 0.58464 0.0
C1527 C 0.11981 0.75171 0.65336 0.0
C1528 C 0.09354 0.74355 0.64669 0.0
H1529 H 0.15646 0.77651 0.64105 0.0
H1530 H 0.12776 0.74323 0.67214 0.0
C1531 C 0.08392 0.75445 0.62197 0.0
C1532 C 0.26065 0.11286 0.65087 0.0
C1533 C 0.24999 0.09838 0.63 0.0
H1534 H 0.28626 0.11128 0.68461 0.0
C1535 C 0.25507 0.07015 0.62884 0.0
H1536 H 0.25732 0.13468 0.65202 0.0
C1537 C 0.27155 0.05694 0.64735 0.0
C1538 C 0.28314 0.07173 0.66732 0.0
H1539 H 0.24691 0.05847 0.6131 0.0
H1540 H 0.27597 0.03538 0.64559 0.0
C1541 C 0.27725 0.09961 0.66935 0.0
C1542 C 0.91644 0.21652 0.61047 0.0
C1543 C 0.91525 0.22383 0.58211 0.0
H1544 H 0.93288 0.22551 0.64835 0.0
C1545 C 0.93118 0.24672 0.57017 0.0
H1546 H 0.90426 0.19908 0.6203 0.0
C1547 C 0.94804 0.2618 0.5861 0.0
C1548 C 0.94937 0.25464 0.61466 0.0
H1549 H 0.93073 0.25283 0.54834 0.0
H1550 H 0.96037 0.27886 0.57576 0.0
C1551 C 0.93311 0.23169 0.6265 0.0
C1552 C 0.77504 0.11605 0.41658 0.0
C1553 C 0.76479 0.08938 0.42555 0.0
H1554 H 0.79953 0.15121 0.42512 0.0
C1555 C 0.77143 0.07826 0.45158 0.0
H1556 H 0.77015 0.12541 0.39683 0.0
C1557 C 0.7879 0.09325 0.46801 0.0
C1558 C 0.7984 0.11979 0.4589 0.0
H1559 H 0.76387 0.05784 0.4592 0.0
H1560 H 0.79248 0.08406 0.48794 0.0
C1561 C 0.79177 0.13091 0.43287 0.0
C1562 C 0.9583 0.76536 0.41181 0.0
C1563 C 0.94332 0.75695 0.3905 0.0
H1564 H 0.95721 0.78625 0.44917 0.0
C1565 C 0.91597 0.76493 0.38901 0.0
H1566 H 0.97947 0.75908 0.41312 0.0
C1567 C 0.90329 0.78059 0.40938 0.0
C1568 C 0.91786 0.78821 0.43145 0.0
H1569 H 0.90429 0.75838 0.3726 0.0
H1570 H 0.88192 0.7862 0.40825 0.0
C1571 C 0.94565 0.78095 0.4322 0.0
C1572 C 0.27181 0.9152 0.42798 0.0
C1573 C 0.2857 0.93726 0.43842 0.0
H1574 H 0.24323 0.88092 0.43716 0.0
C1575 C 0.281 0.94149 0.46688 0.0
H1576 H 0.27515 0.9112 0.40624 0.0
C1577 C 0.26283 0.92411 0.48445 0.0
C1578 C 0.24908 0.9022 0.4739 0.0
H1579 H 0.291 0.95852 0.47552 0.0
H1580 H 0.25947 0.92775 0.50629 0.0
C1581 C 0.25366 0.89783 0.44558 0.0
C1582 C 0.14465 0.23076 0.41838 0.0
C1583 C 0.15775 0.24181 0.43991 0.0
H1584 H 0.11835 0.238 0.386 0.0
C1585 C 0.15712 0.27031 0.44259 0.0
H1586 H 0.14525 0.20896 0.41535 0.0
C1587 C 0.1423 0.28711 0.42521 0.0
C1588 C 0.1275 0.27574 0.40503 0.0
H1589 H 0.16688 0.27952 0.45897 0.0
H1590 H 0.14171 0.30891 0.42824 0.0
C1591 C 0.12953 0.2475 0.40125 0.0
C1592 C 0.63969 0.75603 0.94704 0.0
C1593 C 0.63735 0.75655 0.97599 0.0
H1594 H 0.62401 0.77059 0.90919 0.0
C1595 C 0.61745 0.77284 0.98935 0.0
H1596 H 0.6549 0.74332 0.93655 0.0
C1597 C 0.59975 0.78837 0.97385 0.0
C1598 C 0.60162 0.7875 0.94482 0.0
H1599 H 0.61532 0.77314 0.01176 0.0
H1600 H 0.58408 0.80036 0.98461 0.0
C1601 C 0.62195 0.77141 0.93154 0.0
C1602 C 0.30376 0.59365 0.95769 0.0
C1603 C 0.29397 0.61952 0.96515 0.0
H1604 H 0.2977 0.55778 0.93522 0.0
C1605 C 0.26945 0.62861 0.95426 0.0
H1606 H 0.32213 0.58534 0.96569 0.0
C1607 C 0.25501 0.61229 0.93737 0.0
C1608 C 0.26485 0.58656 0.93006 0.0
H1609 H 0.26131 0.64858 0.95844 0.0
H1610 H 0.23628 0.62008 0.9296 0.0
C1611 C 0.28959 0.5776 0.94024 0.0
C1612 C 0.45952 0.31587 0.91507 0.0
C1613 C 0.43088 0.31377 0.91322 0.0
H1614 H 0.4991 0.2987 0.90409 0.0
C1615 C 0.42061 0.29573 0.89504 0.0
H1616 H 0.46788 0.3294 0.92918 0.0
C1617 C 0.43843 0.27824 0.88087 0.0
C1618 C 0.4666 0.27881 0.88472 0.0
H1619 H 0.39861 0.29396 0.89317 0.0
H1620 H 0.43004 0.26307 0.86844 0.0
C1621 C 0.47731 0.29834 0.90091 0.0
C1622 C 0.76254 0.41478 0.93307 0.0
C1623 C 0.77487 0.39906 0.95375 0.0
H1624 H 0.76842 0.44628 0.90007 0.0
C1625 C 0.80394 0.39791 0.9513 0.0
H1626 H 0.74022 0.41594 0.93385 0.0
C1627 C 0.81988 0.41151 0.92882 0.0
C1628 C 0.80784 0.43059 0.91088 0.0
H1629 H 0.81484 0.38769 0.96727 0.0
H1630 H 0.84205 0.40883 0.92698 0.0
C1631 C 0.77876 0.43173 0.91312 0.0
C1632 C 0.61969 0.31477 0.11323 0.0
C1633 C 0.64052 0.30517 0.0943 0.0
H1634 H 0.58282 0.30536 0.14012 0.0
C1635 C 0.6415 0.27659 0.09157 0.0
H1636 H 0.61931 0.33596 0.11837 0.0
C1637 C 0.62386 0.25832 0.10882 0.0
C1638 C 0.60201 0.26808 0.12643 0.0
H1639 H 0.65723 0.26817 0.07738 0.0
H1640 H 0.62776 0.23656 0.10854 0.0
C1641 C 0.59949 0.29676 0.12721 0.0
C1642 C 0.7616 0.61302 0.11698 0.0
C1643 C 0.76821 0.61922 0.14339 0.0
H1644 H 0.73967 0.62463 0.08227 0.0
C1645 C 0.75632 0.64209 0.15572 0.0
H1646 H 0.77004 0.59522 0.10724 0.0
C1647 C 0.73878 0.65903 0.1413 0.0
C1648 C 0.73287 0.65304 0.11461 0.0
H1649 H 0.76119 0.64726 0.17609 0.0
H1650 H 0.73027 0.67699 0.15066 0.0
C1651 C 0.74413 0.62977 0.10274 0.0
C1652 C 0.4189 0.79956 0.11616 0.0
C1653 C 0.41727 0.77081 0.1222 0.0
H1654 H 0.43406 0.83874 0.12645 0.0
C1655 C 0.43113 0.76012 0.14467 0.0
H1656 H 0.40901 0.80889 0.09895 0.0
C1657 C 0.44629 0.77735 0.16013 0.0
C1658 C 0.448 0.80609 0.15407 0.0
H1659 H 0.43025 0.73831 0.15059 0.0
H1660 H 0.45708 0.76786 0.17663 0.0
C1661 C 0.43383 0.81684 0.13184 0.0
C1662 C 0.27515 0.40679 0.12816 0.0
C1663 C 0.28408 0.41676 0.10099 0.0
H1664 H 0.25354 0.41594 0.16702 0.0
C1665 C 0.27704 0.44316 0.09128 0.0
H1666 H 0.28068 0.38645 0.13586 0.0
C1667 C 0.26155 0.45975 0.10874 0.0
C1668 C 0.25323 0.45023 0.13624 0.0
H1669 H 0.28396 0.45108 0.0703 0.0
H1670 H 0.25682 0.48034 0.10104 0.0
C1671 C 0.25992 0.4236 0.14586 0.0
C1672 C 0.93388 0.59627 0.79986 0.0
C1673 C 0.91777 0.57675 0.78807 0.0
H1674 H 0.96667 0.62642 0.79322 0.0
C1675 C 0.91863 0.57765 0.75895 0.0
H1676 H 0.93308 0.59708 0.82216 0.0
C1677 C 0.93476 0.59768 0.74233 0.0
C1678 C 0.9532 0.61505 0.75407 0.0
H1679 H 0.90695 0.5628 0.74887 0.0
H1680 H 0.93353 0.59882 0.72013 0.0
C1681 C 0.95264 0.61378 0.78317 0.0
C1682 C 0.95118 0.46023 0.25599 0.0
C1683 C 0.92435 0.45135 0.25183 0.0
H1684 H 0.98886 0.45024 0.27347 0.0
C1685 C 0.91516 0.42462 0.2614 0.0
H1686 H 0.95858 0.48085 0.24895 0.0
C1687 C 0.93255 0.40706 0.27515 0.0
C1688 C 0.9591 0.41623 0.27992 0.0
H1689 H 0.89455 0.41737 0.25828 0.0
H1690 H 0.92503 0.3866 0.28266 0.0
C1691 C 0.96835 0.44286 0.27012 0.0
C1692 C 0.63018 0.97804 0.30535 0.0
C1693 C 0.65214 0.9653 0.31764 0.0
H1694 H 0.59666 0.97399 0.28004 0.0
C1695 C 0.65681 0.93744 0.31332 0.0
H1696 H 0.62602 0.99945 0.30838 0.0
C1697 C 0.63998 0.9227 0.29705 0.0
C1698 C 0.61805 0.93544 0.28443 0.0
H1699 H 0.67357 0.92707 0.32253 0.0
H1700 H 0.64448 0.90138 0.29402 0.0
C1701 C 0.61347 0.9634 0.28892 0.0
C1702 C 0.09854 0.61389 0.27756 0.0
C1703 C 0.12734 0.61757 0.27706 0.0
H1704 H 0.05869 0.62886 0.29116 0.0
C1705 C 0.13824 0.64012 0.28934 0.0
H1706 H 0.08968 0.59693 0.26776 0.0
C1707 C 0.12046 0.65836 0.30258 0.0
C1708 C 0.0918 0.6542 0.30337 0.0
H1709 H 0.16039 0.64326 0.28922 0.0
H1710 H 0.12896 0.67546 0.31244 0.0
C1711 C 0.08088 0.6321 0.29068 0.0
C1712 C 0.47323 0.13379 0.26581 0.0
C1713 C 0.46102 0.15556 0.25148 0.0
H1714 H 0.46697 0.09864 0.29477 0.0
C1715 C 0.4324 0.1591 0.25622 0.0
H1716 H 0.49529 0.13064 0.26222 0.0
C1717 C 0.41614 0.14096 0.27493 0.0
C1718 C 0.42822 0.11886 0.28919 0.0
H1719 H 0.42262 0.17573 0.24521 0.0
H1720 H 0.39411 0.14424 0.27822 0.0
C1721 C 0.45702 0.11563 0.28452 0.0
C1722 C 0.11759 0.38173 0.77768 0.0
C1723 C 0.10722 0.39233 0.75294 0.0
H1724 H 0.13897 0.38972 0.81325 0.0
C1725 C 0.11153 0.42076 0.74579 0.0
H1726 H 0.11565 0.36005 0.78403 0.0
C1727 C 0.12571 0.43767 0.76243 0.0
C1728 C 0.13569 0.42701 0.78717 0.0
H1729 H 0.1036 0.43029 0.7275 0.0
H1730 H 0.12852 0.45935 0.75609 0.0
C1731 C 0.13125 0.3988 0.79461 0.0
C1732 C 0.62826 0.13478 0.83617 0.0
C1733 C 0.5996 0.1357 0.83495 0.0
H1734 H 0.66591 0.11578 0.82182 0.0
C1735 C 0.58609 0.11636 0.82065 0.0
H1736 H 0.63881 0.14988 0.84703 0.0
C1737 C 0.60136 0.09706 0.8063 0.0
C1738 C 0.6303 0.097 0.80608 0.0
H1739 H 0.56392 0.11705 0.81955 0.0
H1740 H 0.59066 0.08274 0.79465 0.0
C1741 C 0.6436 0.11541 0.82181 0.0
C1742 C 0.42401 0.90693 0.78385 0.0
C1743 C 0.4373 0.91818 0.80517 0.0
H1744 H 0.39735 0.91427 0.75147 0.0
C1745 C 0.43405 0.94618 0.80975 0.0
H1746 H 0.42588 0.88538 0.78002 0.0
C1747 C 0.41772 0.96251 0.79349 0.0
C1748 C 0.40448 0.95112 0.7724 0.0
H1749 H 0.44435 0.95554 0.82571 0.0
H1750 H 0.4153 0.98401 0.7974 0.0
C1751 C 0.4077 0.92332 0.76759 0.0
loop_
_geom_bond_atom_site_label_1
_geom_bond_atom_site_label_2
_geom_bond_distance
_geom_bond_site_symmetry_2
_ccdc_geom_bond_type
C0 C1 1.443 . S
C0 N4 1.376 1_565 S
C0 C38 1.389 . S
C1 C0 1.443 . S
C1 C2 1.360 . S
C1 H41 0.951 . S
C2 C1 1.360 . S
C2 C3 1.421 1_565 S
C2 H42 0.950 . S
C3 C2 1.421 1_545 S
C3 N4 1.374 . S
C3 C37 1.395 . S
N4 C0 1.376 1_545 S
N4 C3 1.374 . S
N4 Co5 2.008 . S
Co5 N4 2.008 . S
Co5 N6 1.995 . S
Co5 N11 2.008 . S
Co5 N16 1.995 . S
Co5 N21 2.282 1_545 S
Co5 N27 2.282 . S
N6 Co5 1.995 . S
N6 C7 1.376 . S
N6 C10 1.383 . S
C7 N6 1.376 . S
C7 C8 1.446 . S
C7 C37 1.391 . S
C8 C7 1.446 . S
C8 C9 1.339 . S
C8 H43 0.949 . S
C9 C8 1.339 . S
C9 C10 1.439 . S
C9 H44 0.950 . S
C10 N6 1.383 . S
C10 C9 1.439 . S
C10 C39 1.392 . S
N11 Co5 2.008 . S
N11 C12 1.376 . S
N11 C15 1.374 . S
C12 N11 1.376 . S
C12 C13 1.443 . S
C12 C39 1.389 . S
C13 C12 1.443 . S
C13 C14 1.340 . S
C13 H45 0.951 . S
C14 C13 1.340 . S
C14 C15 1.439 . S
C14 H46 0.950 . S
C15 N11 1.374 . S
C15 C14 1.439 . S
C15 C40 1.395 . S
N16 Co5 1.995 . S
N16 C17 1.376 . S
N16 C20 1.383 1_545 S
C17 N16 1.376 . S
C17 C18 1.446 1_545 S
C17 C40 1.391 . S
C18 C17 1.446 1_565 S
C18 C19 1.339 . S
C18 H47 0.949 . S
C19 C18 1.339 . S
C19 C20 1.439 . S
C19 H48 0.950 . S
C20 N16 1.383 1_565 S
C20 C19 1.439 . S
C20 C38 1.392 . S
N21 Co5 2.282 1_565 S
N21 C24 1.332 . S
N21 C26 1.332 . S
C22 C23 1.386 . S
C22 C25 1.388 . S
C23 C22 1.386 . S
C23 C24 1.382 . S
C23 H49 0.950 . S
C24 N21 1.332 . S
C24 C23 1.382 . S
C24 H35 0.952 . S
C25 C22 1.388 . S
C25 C26 1.382 . S
C25 H50 0.950 . S
C26 N21 1.332 . S
C26 C25 1.382 . S
C26 H36 0.948 . S
N27 Co5 2.282 . S
N27 C31 1.332 . S
N27 C32 1.332 . S
C28 C29 1.388 . S
C28 C32 1.382 . S
C28 H51 0.950 . S
C29 C28 1.388 . S
C29 C30 1.386 . S
C30 C29 1.386 . S
C30 C31 1.382 . S
C30 H52 0.950 . S
C31 N27 1.332 . S
C31 C30 1.382 . S
C31 H33 0.952 . S
C32 N27 1.332 . S
C32 C28 1.382 . S
C32 H34 0.948 . S
H33 C31 0.952 . S
H34 C32 0.948 . S
H35 C24 0.952 . S
H36 C26 0.948 . S
C37 C3 1.395 . S
C37 C7 1.391 . S
C38 C0 1.389 . S
C38 C20 1.392 . S
C39 C10 1.392 . S
C39 C12 1.389 . S
C40 C15 1.395 . S
C40 C17 1.391 . S
H41 C1 0.951 . S
H42 C2 0.950 . S
H43 C8 0.949 . S
H44 C9 0.950 . S
H45 C13 0.951 . S
H46 C14 0.950 . S
H47 C18 0.949 . S
H48 C19 0.950 . S
H49 C23 0.950 . S
H50 C25 0.950 . S
H51 C28 0.950 . S
H52 C30 0.950 . S
C53 C54 1.443 . S
C53 N57 1.376 . S
C53 C91 1.389 . S
C54 C53 1.443 . S
C54 C55 1.340 . S
C54 H94 0.951 . S
C55 C54 1.340 . S
C55 C56 1.439 . S
C55 H95 0.950 . S
C56 C55 1.439 . S
C56 N57 1.374 . S
C56 C90 1.395 . S
N57 C53 1.376 . S
N57 C56 1.374 . S
N57 Co58 2.008 . S
Co58 N57 2.008 . S
Co58 N59 1.995 . S
Co58 N64 2.008 . S
Co58 N69 1.995 . S
Co58 N74 2.282 . S
Co58 N80 2.282 1_455 S
N59 Co58 1.995 . S
N59 C60 1.376 . S
N59 C63 1.383 1_455 S
C60 N59 1.376 . S
C60 C61 1.446 1_455 S
C60 C90 1.391 . S
C61 C60 1.446 1_655 S
C61 C62 1.339 . S
C61 H96 0.949 . S
C62 C61 1.339 . S
C62 C63 1.439 . S
C62 H97 0.950 . S
C63 N59 1.383 1_655 S
C63 C62 1.439 . S
C63 C92 1.392 . S
N64 Co58 2.008 . S
N64 C65 1.376 1_455 S
N64 C68 1.374 . S
C65 N64 1.376 1_655 S
C65 C66 1.443 . S
C65 C92 1.389 . S
C66 C65 1.443 . S
C66 C67 1.340 1_655 S
C66 H98 0.951 . S
C67 C66 1.340 1_455 S
C67 C68 1.439 . S
C67 H99 0.950 . S
C68 N64 1.374 . S
C68 C67 1.439 . S
C68 C93 1.395 . S
N69 Co58 1.995 . S
N69 C70 1.376 . S
N69 C73 1.383 . S
C70 N69 1.376 . S
C70 C71 1.446 . S
C70 C93 1.391 . S
C71 C70 1.446 . S
C71 C72 1.339 . S
C71 H100 0.949 . S
C72 C71 1.339 . S
C72 C73 1.439 . S
C72 H101 0.950 . S
C73 N69 1.383 . S
C73 C72 1.439 . S
C73 C91 1.392 . S
N74 Co58 2.282 . S
N74 C77 1.332 . S
N74 C79 1.332 . S
C75 C76 1.386 . S
C75 C78 1.388 . S
C76 C75 1.386 . S
C76 C77 1.382 . S
C76 H102 0.950 . S
C77 N74 1.332 . S
C77 C76 1.382 . S
C77 H88 0.952 . S
C78 C75 1.388 . S
C78 C79 1.382 . S
C78 H103 0.950 . S
C79 N74 1.332 . S
C79 C78 1.382 . S
C79 H89 0.948 . S
N80 Co58 2.282 1_655 S
N80 C84 1.332 . S
N80 C85 1.332 . S
C81 C82 1.388 . S
C81 C85 1.382 . S
C81 H104 0.950 . S
C82 C81 1.388 . S
C82 C83 1.386 . S
C83 C82 1.386 . S
C83 C84 1.382 . S
C83 H105 0.950 . S
C84 N80 1.332 . S
C84 C83 1.382 . S
C84 H86 0.952 . S
C85 N80 1.332 . S
C85 C81 1.382 . S
C85 H87 0.948 1_655 S
H86 C84 0.952 . S
H87 C85 0.948 1_455 S
H88 C77 0.952 . S
H89 C79 0.948 . S
C90 C56 1.395 . S
C90 C60 1.391 . S
C91 C53 1.389 . S
C91 C73 1.392 . S
C92 C63 1.392 . S
C92 C65 1.389 . S
C93 C68 1.395 . S
C93 C70 1.391 . S
H94 C54 0.951 . S
H95 C55 0.950 . S
H96 C61 0.949 . S
H97 C62 0.950 . S
H98 C66 0.951 . S
H99 C67 0.950 . S
H100 C71 0.949 . S
H101 C72 0.950 . S
H102 C76 0.950 . S
H103 C78 0.950 . S
H104 C81 0.950 . S
H105 C83 0.950 . S
C106 C107 1.443 . S
C106 N110 1.376 1_565 S
C106 C144 1.389 . S
C107 C106 1.443 . S
C107 C108 1.335 1_565 S
C107 H147 0.951 . S
C108 C107 1.335 1_545 S
C108 C109 1.445 . S
C108 H148 0.950 . S
C109 C108 1.445 . S
C109 N110 1.374 . S
C109 C143 1.395 . S
N110 C106 1.376 1_545 S
N110 C109 1.374 . S
N110 Co111 2.008 . S
Co111 N110 2.008 . S
Co111 N112 1.995 . S
Co111 N117 2.008 . S
Co111 N122 1.994 . S
Co111 N127 2.282 1_545 S
Co111 N133 2.282 . S
N112 Co111 1.995 . S
N112 C113 1.376 . S
N112 C116 1.383 . S
C113 N112 1.376 . S
C113 C114 1.446 . S
C113 C143 1.391 . S
C114 C113 1.446 . S
C114 C115 1.339 . S
C114 H149 0.949 . S
C115 C114 1.339 . S
C115 C116 1.439 . S
C115 H150 0.950 . S
C116 N112 1.383 . S
C116 C115 1.439 . S
C116 C145 1.392 . S
N117 Co111 2.008 . S
N117 C118 1.376 . S
N117 C121 1.374 . S
C118 N117 1.376 . S
C118 C119 1.443 . S
C118 C145 1.389 . S
C119 C118 1.443 . S
C119 C120 1.340 . S
C119 H151 0.951 . S
C120 C119 1.340 . S
C120 C121 1.439 . S
C120 H152 0.950 . S
C121 N117 1.374 . S
C121 C120 1.439 . S
C121 C146 1.395 . S
N122 Co111 1.994 . S
N122 C123 1.377 1_545 S
N122 C126 1.384 1_545 S
C123 N122 1.377 1_565 S
C123 C124 1.455 . S
C123 C146 1.382 1_565 S
C124 C123 1.455 . S
C124 C125 1.339 . S
C124 H153 0.949 . S
C125 C124 1.339 . S
C125 C126 1.439 . S
C125 H154 0.950 . S
C126 N122 1.384 1_565 S
C126 C125 1.439 . S
C126 C144 1.392 . S
N127 Co111 2.282 1_565 S
N127 C130 1.332 . S
N127 C132 1.332 . S
C128 C129 1.386 . S
C128 C131 1.388 . S
C129 C128 1.386 . S
C129 C130 1.382 . S
C129 H155 0.950 . S
C130 N127 1.332 . S
C130 C129 1.382 . S
C130 H141 0.952 . S
C131 C128 1.388 . S
C131 C132 1.382 . S
C131 H156 0.950 . S
C132 N127 1.332 . S
C132 C131 1.382 . S
C132 H142 0.948 . S
N133 Co111 2.282 . S
N133 C137 1.332 . S
N133 C138 1.332 . S
C134 C135 1.388 . S
C134 C138 1.382 . S
C134 H157 0.950 . S
C135 C134 1.388 . S
C135 C136 1.386 . S
C136 C135 1.386 . S
C136 C137 1.382 . S
C136 H158 0.950 . S
C137 N133 1.332 . S
C137 C136 1.382 . S
C137 H139 0.952 . S
C138 N133 1.332 . S
C138 C134 1.382 . S
C138 H140 0.948 . S
H139 C137 0.952 . S
H140 C138 0.948 . S
H141 C130 0.952 . S
H142 C132 0.948 . S
C143 C109 1.395 . S
C143 C113 1.391 . S
C144 C106 1.389 . S
C144 C126 1.392 . S
C145 C116 1.392 . S
C145 C118 1.389 . S
C146 C121 1.395 . S
C146 C123 1.382 1_545 S
H147 C107 0.951 . S
H148 C108 0.950 . S
H149 C114 0.949 . S
H150 C115 0.950 . S
H151 C119 0.951 . S
H152 C120 0.950 . S
H153 C124 0.949 . S
H154 C125 0.950 . S
H155 C129 0.950 . S
H156 C131 0.950 . S
H157 C134 0.950 . S
H158 C136 0.950 . S
C159 C160 1.443 . S
C159 N163 1.376 . S
C159 C197 1.389 . S
C160 C159 1.443 . S
C160 C161 1.340 . S
C160 H200 0.951 . S
C161 C160 1.340 . S
C161 C162 1.439 . S
C161 H201 0.950 . S
C162 C161 1.439 . S
C162 N163 1.374 . S
C162 C196 1.395 1_655 S
N163 C159 1.376 . S
N163 C162 1.374 . S
N163 Co164 1.998 1_655 S
Co164 N163 1.998 1_455 S
Co164 N165 2.008 . S
Co164 N170 2.018 . S
Co164 N175 1.982 1_455 S
Co164 N180 2.264 1_455 S
Co164 N186 2.301 . S
N165 Co164 2.008 . S
N165 C166 1.376 . S
N165 C169 1.383 . S
C166 N165 1.376 . S
C166 C167 1.446 . S
C166 C196 1.391 . S
C167 C166 1.446 . S
C167 C168 1.339 . S
C167 H202 0.949 . S
C168 C167 1.339 . S
C168 C169 1.439 . S
C168 H203 0.950 . S
C169 N165 1.383 . S
C169 C168 1.439 . S
C169 C198 1.392 . S
N170 Co164 2.018 . S
N170 C171 1.376 . S
N170 C174 1.374 . S
C171 N170 1.376 . S
C171 C172 1.443 . S
C171 C198 1.389 . S
C172 C171 1.443 . S
C172 C173 1.340 . S
C172 H204 0.951 . S
C173 C172 1.340 . S
C173 C174 1.439 . S
C173 H205 0.950 . S
C174 N170 1.374 . S
C174 C173 1.439 . S
C174 C199 1.395 1_455 S
N175 Co164 1.982 1_655 S
N175 C176 1.376 . S
N175 C179 1.383 . S
C176 N175 1.376 . S
C176 C177 1.446 . S
C176 C199 1.391 . S
C177 C176 1.446 . S
C177 C178 1.339 . S
C177 H206 0.949 . S
C178 C177 1.339 . S
C178 C179 1.439 . S
C178 H207 0.950 . S
C179 N175 1.383 . S
C179 C178 1.439 . S
C179 C197 1.392 . S
N180 Co164 2.264 1_655 S
N180 C183 1.332 . S
N180 C185 1.332 . S
C181 C182 1.386 . S
C181 C184 1.388 . S
C182 C181 1.386 . S
C182 C183 1.382 . S
C182 H208 0.950 . S
C183 N180 1.332 . S
C183 C182 1.382 . S
C183 H194 0.952 . S
C184 C181 1.388 . S
C184 C185 1.382 . S
C184 H209 0.950 . S
C185 N180 1.332 . S
C185 C184 1.382 . S
C185 H195 0.948 . S
N186 Co164 2.301 . S
N186 C190 1.332 . S
N186 C191 1.332 . S
C187 C188 1.388 . S
C187 C191 1.382 . S
C187 H210 0.950 . S
C188 C187 1.388 . S
C188 C189 1.386 . S
C189 C188 1.386 . S
C189 C190 1.382 . S
C189 H211 0.950 . S
C190 N186 1.332 . S
C190 C189 1.382 . S
C190 H192 0.952 . S
C191 N186 1.332 . S
C191 C187 1.382 . S
C191 H193 0.948 . S
H192 C190 0.952 . S
H193 C191 0.948 . S
H194 C183 0.952 . S
H195 C185 0.948 . S
C196 C162 1.395 1_455 S
C196 C166 1.391 . S
C197 C159 1.389 . S
C197 C179 1.392 . S
C198 C169 1.392 . S
C198 C171 1.389 . S
C199 C174 1.395 1_655 S
C199 C176 1.391 . S
H200 C160 0.951 . S
H201 C161 0.950 . S
H202 C167 0.949 . S
H203 C168 0.950 . S
H204 C172 0.951 . S
H205 C173 0.950 . S
H206 C177 0.949 . S
H207 C178 0.950 . S
H208 C182 0.950 . S
H209 C184 0.950 . S
H210 C187 0.950 . S
H211 C189 0.950 . S
C212 C213 1.443 . S
C212 N216 1.376 . S
C212 C250 1.389 . S
C213 C212 1.443 . S
C213 C214 1.340 . S
C213 H253 0.951 . S
C214 C213 1.340 . S
C214 C215 1.439 . S
C214 H254 0.950 . S
C215 C214 1.439 . S
C215 N216 1.374 . S
C215 C249 1.395 1_565 S
N216 C212 1.376 . S
N216 C215 1.374 . S
N216 Co217 2.008 1_565 S
Co217 N216 2.008 1_545 S
Co217 N218 1.995 . S
Co217 N223 2.008 . S
Co217 N228 1.995 1_545 S
Co217 N233 2.282 1_545 S
Co217 N239 2.282 . S
N218 Co217 1.995 . S
N218 C219 1.376 . S
N218 C222 1.383 . S
C219 N218 1.376 . S
C219 C220 1.446 . S
C219 C249 1.391 . S
C220 C219 1.446 . S
C220 C221 1.339 . S
C220 H255 0.949 . S
C221 C220 1.339 . S
C221 C222 1.439 . S
C221 H256 0.950 . S
C222 N218 1.383 . S
C222 C221 1.439 . S
C222 C251 1.392 . S
N223 Co217 2.008 . S
N223 C224 1.376 . S
N223 C227 1.374 . S
C224 N223 1.376 . S
C224 C225 1.443 . S
C224 C251 1.389 . S
C225 C224 1.443 . S
C225 C226 1.340 . S
C225 H257 0.951 . S
C226 C225 1.340 . S
C226 C227 1.439 . S
C226 H258 0.950 . S
C227 N223 1.374 . S
C227 C226 1.439 . S
C227 C252 1.417 . S
N228 Co217 1.995 1_565 S
N228 C229 1.376 . S
N228 C232 1.383 . S
C229 N228 1.376 . S
C229 C230 1.446 . S
C229 C252 1.374 1_565 S
C230 C229 1.446 . S
C230 C231 1.339 . S
C230 H259 0.949 . S
C231 C230 1.339 . S
C231 C232 1.439 . S
C231 H260 0.950 . S
C232 N228 1.383 . S
C232 C231 1.439 . S
C232 C250 1.392 . S
N233 Co217 2.282 1_565 S
N233 C236 1.332 . S
N233 C238 1.332 . S
C234 C235 1.386 . S
C234 C237 1.388 . S
C235 C234 1.386 . S
C235 C236 1.382 . S
C235 H261 0.950 . S
C236 N233 1.332 . S
C236 C235 1.382 . S
C236 H247 0.952 . S
C237 C234 1.388 . S
C237 C238 1.382 . S
C237 H262 0.950 . S
C238 N233 1.332 . S
C238 C237 1.382 . S
C238 H248 0.948 . S
N239 Co217 2.282 . S
N239 C243 1.332 . S
N239 C244 1.332 . S
C240 C241 1.388 . S
C240 C244 1.382 . S
C240 H263 0.950 . S
C241 C240 1.388 . S
C241 C242 1.386 . S
C242 C241 1.386 . S
C242 C243 1.382 . S
C242 H264 0.950 . S
C243 N239 1.332 . S
C243 C242 1.382 . S
C243 H245 0.952 . S
C244 N239 1.332 . S
C244 C240 1.382 . S
C244 H246 0.948 . S
H245 C243 0.952 . S
H246 C244 0.948 . S
H247 C236 0.952 . S
H248 C238 0.948 . S
C249 C215 1.395 1_545 S
C249 C219 1.391 . S
C250 C212 1.389 . S
C250 C232 1.392 . S
C251 C222 1.392 . S
C251 C224 1.389 . S
C252 C227 1.417 . S
C252 C229 1.374 1_545 S
H253 C213 0.951 . S
H254 C214 0.950 . S
H255 C220 0.949 . S
H256 C221 0.950 . S
H257 C225 0.951 . S
H258 C226 0.950 . S
H259 C230 0.949 . S
H260 C231 0.950 . S
H261 C235 0.950 . S
H262 C237 0.950 . S
H263 C240 0.950 . S
H264 C242 0.950 . S
C265 C266 1.443 . S
C265 N269 1.376 1_655 S
C265 C303 1.389 . S
C266 C265 1.443 . S
C266 C267 1.340 1_655 S
C266 H306 0.951 . S
C267 C266 1.340 1_455 S
C267 C268 1.439 . S
C267 H307 0.950 . S
C268 C267 1.439 . S
C268 N269 1.374 . S
C268 C302 1.395 . S
N269 C265 1.376 1_455 S
N269 C268 1.374 . S
N269 Co270 2.008 . S
Co270 N269 2.008 . S
Co270 N271 1.995 . S
Co270 N276 2.008 . S
Co270 N281 1.995 . S
Co270 N286 2.282 1_455 S
Co270 N292 2.282 . S
N271 Co270 1.995 . S
N271 C272 1.376 . S
N271 C275 1.383 . S
C272 N271 1.376 . S
C272 C273 1.446 . S
C272 C302 1.391 . S
C273 C272 1.446 . S
C273 C274 1.339 . S
C273 H308 0.949 . S
C274 C273 1.339 . S
C274 C275 1.439 . S
C274 H309 0.950 . S
C275 N271 1.383 . S
C275 C274 1.439 . S
C275 C304 1.392 . S
N276 Co270 2.008 . S
N276 C277 1.376 . S
N276 C280 1.374 . S
C277 N276 1.376 . S
C277 C278 1.443 . S
C277 C304 1.389 . S
C278 C277 1.443 . S
C278 C279 1.340 . S
C278 H310 0.951 . S
C279 C278 1.340 . S
C279 C280 1.439 . S
C279 H311 0.950 . S
C280 N276 1.374 . S
C280 C279 1.439 . S
C280 C305 1.395 . S
N281 Co270 1.995 . S
N281 C282 1.376 . S
N281 C285 1.383 1_455 S
C282 N281 1.376 . S
C282 C283 1.446 1_455 S
C282 C305 1.391 . S
C283 C282 1.446 1_655 S
C283 C284 1.339 . S
C283 H312 0.949 . S
C284 C283 1.339 . S
C284 C285 1.439 . S
C284 H313 0.950 . S
C285 N281 1.383 1_655 S
C285 C284 1.439 . S
C285 C303 1.392 . S
N286 Co270 2.282 1_655 S
N286 C289 1.332 . S
N286 C291 1.332 . S
C287 C288 1.386 . S
C287 C290 1.388 . S
C288 C287 1.386 . S
C288 C289 1.382 . S
C288 H314 0.950 . S
C289 N286 1.332 . S
C289 C288 1.382 . S
C289 H300 0.952 . S
C290 C287 1.388 . S
C290 C291 1.382 . S
C290 H315 0.950 . S
C291 N286 1.332 . S
C291 C290 1.382 . S
C291 H301 0.948 1_655 S
N292 Co270 2.282 . S
N292 C296 1.332 . S
N292 C297 1.332 . S
C293 C294 1.388 . S
C293 C297 1.382 . S
C293 H316 0.950 . S
C294 C293 1.388 . S
C294 C295 1.386 . S
C295 C294 1.386 . S
C295 C296 1.382 . S
C295 H317 0.950 . S
C296 N292 1.332 . S
C296 C295 1.382 . S
C296 H298 0.952 . S
C297 N292 1.332 . S
C297 C293 1.382 . S
C297 H299 0.948 . S
H298 C296 0.952 . S
H299 C297 0.948 . S
H300 C289 0.952 . S
H301 C291 0.948 1_455 S
C302 C268 1.395 . S
C302 C272 1.391 . S
C303 C265 1.389 . S
C303 C285 1.392 . S
C304 C275 1.392 . S
C304 C277 1.389 . S
C305 C280 1.395 . S
C305 C282 1.391 . S
H306 C266 0.951 . S
H307 C267 0.950 . S
H308 C273 0.949 . S
H309 C274 0.950 . S
H310 C278 0.951 . S
H311 C279 0.950 . S
H312 C283 0.949 . S
H313 C284 0.950 . S
H314 C288 0.950 . S
H315 C290 0.950 . S
H316 C293 0.950 . S
H317 C295 0.950 . S
C318 C319 1.443 . S
C318 N322 1.376 . S
C318 C356 1.389 . S
C319 C318 1.443 . S
C319 C320 1.340 . S
C319 H359 0.951 . S
C320 C319 1.340 . S
C320 C321 1.439 . S
C320 H360 0.950 . S
C321 C320 1.439 . S
C321 N322 1.374 . S
C321 C355 1.410 . S
N322 C318 1.376 . S
N322 C321 1.374 . S
N322 Co323 2.008 . S
Co323 N322 2.008 . S
Co323 N324 1.995 1_545 S
Co323 N329 2.008 1_545 S
Co323 N334 1.995 . S
Co323 N339 2.282 . S
Co323 N345 2.282 1_545 S
N324 Co323 1.995 1_565 S
N324 C325 1.376 . S
N324 C328 1.383 . S
C325 N324 1.376 . S
C325 C326 1.446 . S
C325 C355 1.378 1_565 S
C326 C325 1.446 . S
C326 C327 1.339 . S
C326 H361 0.949 . S
C327 C326 1.339 . S
C327 C328 1.439 . S
C327 H362 0.950 . S
C328 N324 1.383 . S
C328 C327 1.439 . S
C328 C357 1.392 . S
N329 Co323 2.008 1_565 S
N329 C330 1.376 . S
N329 C333 1.374 . S
C330 N329 1.376 . S
C330 C331 1.443 . S
C330 C357 1.389 . S
C331 C330 1.443 . S
C331 C332 1.340 . S
C331 H363 0.951 . S
C332 C331 1.340 . S
C332 C333 1.439 . S
C332 H364 0.950 . S
C333 N329 1.374 . S
C333 C332 1.439 . S
C333 C358 1.395 1_565 S
N334 Co323 1.995 . S
N334 C335 1.376 . S
N334 C338 1.383 . S
C335 N334 1.376 . S
C335 C336 1.446 . S
C335 C358 1.391 . S
C336 C335 1.446 . S
C336 C337 1.339 . S
C336 H365 0.949 . S
C337 C336 1.339 . S
C337 C338 1.439 . S
C337 H366 0.950 . S
C338 N334 1.383 . S
C338 C337 1.439 . S
C338 C356 1.392 . S
N339 Co323 2.282 . S
N339 C342 1.332 . S
N339 C344 1.332 . S
C340 C341 1.386 . S
C340 C343 1.388 . S
C341 C340 1.386 . S
C341 C342 1.382 . S
C341 H367 0.950 . S
C342 N339 1.332 . S
C342 C341 1.382 . S
C342 H353 0.952 . S
C343 C340 1.388 . S
C343 C344 1.382 . S
C343 H368 0.950 . S
C344 N339 1.332 . S
C344 C343 1.382 . S
C344 H354 0.948 . S
N345 Co323 2.282 1_565 S
N345 C349 1.332 . S
N345 C350 1.332 . S
C346 C347 1.388 . S
C346 C350 1.382 . S
C346 H369 0.950 . S
C347 C346 1.388 . S
C347 C348 1.386 . S
C348 C347 1.386 . S
C348 C349 1.382 . S
C348 H370 0.950 . S
C349 N345 1.332 . S
C349 C348 1.382 . S
C349 H351 0.952 . S
C350 N345 1.332 . S
C350 C346 1.382 . S
C350 H352 0.948 . S
H351 C349 0.952 . S
H352 C350 0.948 . S
H353 C342 0.952 . S
H354 C344 0.948 . S
C355 C321 1.410 . S
C355 C325 1.378 1_545 S
C356 C318 1.389 . S
C356 C338 1.392 . S
C357 C328 1.392 . S
C357 C330 1.389 . S
C358 C333 1.395 1_545 S
C358 C335 1.391 . S
H359 C319 0.951 . S
H360 C320 0.950 . S
H361 C326 0.949 . S
H362 C327 0.950 . S
H363 C331 0.951 . S
H364 C332 0.950 . S
H365 C336 0.949 . S
H366 C337 0.950 . S
H367 C341 0.950 . S
H368 C343 0.950 . S
H369 C346 0.950 . S
H370 C348 0.950 . S
C371 C372 1.443 . S
C371 N375 1.376 1_655 S
C371 C409 1.389 . S
C372 C371 1.443 . S
C372 C373 1.340 . S
C372 H412 0.951 . S
C373 C372 1.340 . S
C373 C374 1.439 1_655 S
C373 H413 0.950 . S
C374 C373 1.439 1_455 S
C374 N375 1.374 . S
C374 C408 1.395 . S
N375 C371 1.376 1_455 S
N375 C374 1.374 . S
N375 Co376 2.008 . S
Co376 N375 2.008 . S
Co376 N377 1.995 . S
Co376 N382 2.008 . S
Co376 N387 1.995 . S
Co376 N392 2.282 1_455 S
Co376 N398 2.282 . S
N377 Co376 1.995 . S
N377 C378 1.376 . S
N377 C381 1.383 . S
C378 N377 1.376 . S
C378 C379 1.446 . S
C378 C408 1.391 . S
C379 C378 1.446 . S
C379 C380 1.339 . S
C379 H414 0.949 . S
C380 C379 1.339 . S
C380 C381 1.439 . S
C380 H415 0.950 . S
C381 N377 1.383 . S
C381 C380 1.439 . S
C381 C410 1.392 . S
N382 Co376 2.008 . S
N382 C383 1.376 . S
N382 C386 1.374 . S
C383 N382 1.376 . S
C383 C384 1.443 . S
C383 C410 1.389 . S
C384 C383 1.443 . S
C384 C385 1.340 . S
C384 H416 0.951 . S
C385 C384 1.340 . S
C385 C386 1.439 . S
C385 H417 0.950 . S
C386 N382 1.374 . S
C386 C385 1.439 . S
C386 C411 1.395 . S
N387 Co376 1.995 . S
N387 C388 1.376 . S
N387 C391 1.383 1_455 S
C388 N387 1.376 . S
C388 C389 1.446 1_455 S
C388 C411 1.391 . S
C389 C388 1.446 1_655 S
C389 C390 1.339 . S
C389 H418 0.949 . S
C390 C389 1.339 . S
C390 C391 1.439 . S
C390 H419 0.950 . S
C391 N387 1.383 1_655 S
C391 C390 1.439 . S
C391 C409 1.392 . S
N392 Co376 2.282 1_655 S
N392 C395 1.332 . S
N392 C397 1.332 . S
C393 C394 1.386 . S
C393 C396 1.388 . S
C394 C393 1.386 . S
C394 C395 1.382 . S
C394 H420 0.950 . S
C395 N392 1.332 . S
C395 C394 1.382 . S
C395 H406 0.952 . S
C396 C393 1.388 . S
C396 C397 1.382 . S
C396 H421 0.950 . S
C397 N392 1.332 . S
C397 C396 1.382 . S
C397 H407 0.964 . S
N398 Co376 2.282 . S
N398 C402 1.332 . S
N398 C403 1.332 . S
C399 C400 1.388 . S
C399 C403 1.382 . S
C399 H422 0.950 . S
C400 C399 1.388 . S
C400 C401 1.386 . S
C401 C400 1.386 . S
C401 C402 1.382 . S
C401 H423 0.950 . S
C402 N398 1.332 . S
C402 C401 1.382 . S
C402 H404 0.952 . S
C403 N398 1.332 . S
C403 C399 1.382 . S
C403 H405 0.948 . S
H404 C402 0.952 . S
H405 C403 0.948 . S
H406 C395 0.952 . S
H407 C397 0.964 . S
C408 C374 1.395 . S
C408 C378 1.391 . S
C409 C371 1.389 . S
C409 C391 1.392 . S
C410 C381 1.392 . S
C410 C383 1.389 . S
C411 C386 1.395 . S
C411 C388 1.391 . S
H412 C372 0.951 . S
H413 C373 0.950 . S
H414 C379 0.949 . S
H415 C380 0.950 . S
H416 C384 0.951 . S
H417 C385 0.950 . S
H418 C389 0.949 . S
H419 C390 0.950 . S
H420 C394 0.950 . S
H421 C396 0.950 . S
H422 C399 0.950 . S
H423 C401 0.950 . S
C424 C425 1.443 . S
C424 N428 1.376 . S
C424 C462 1.389 . S
C425 C424 1.443 . S
C425 C426 1.340 . S
C425 H465 0.951 . S
C426 C425 1.340 . S
C426 C427 1.439 . S
C426 H466 0.950 . S
C427 C426 1.439 . S
C427 N428 1.374 . S
C427 C461 1.395 1_554 S
N428 C424 1.376 . S
N428 C427 1.374 . S
N428 Co429 2.008 . S
Co429 N428 2.008 . S
Co429 N430 1.995 1_554 S
Co429 N435 2.008 1_554 S
Co429 N440 1.995 . S
Co429 N445 2.282 . S
Co429 N451 2.282 1_554 S
N430 Co429 1.995 1_556 S
N430 C431 1.376 . S
N430 C434 1.383 . S
C431 N430 1.376 . S
C431 C432 1.446 . S
C431 C461 1.391 . S
C432 C431 1.446 . S
C432 C433 1.339 . S
C432 H467 0.949 . S
C433 C432 1.339 . S
C433 C434 1.439 . S
C433 H468 0.950 . S
C434 N430 1.383 . S
C434 C433 1.439 . S
C434 C463 1.392 . S
N435 Co429 2.008 1_556 S
N435 C436 1.376 . S
N435 C439 1.380 . S
C436 N435 1.376 . S
C436 C437 1.443 . S
C436 C463 1.389 . S
C437 C436 1.443 . S
C437 C438 1.340 . S
C437 H469 0.951 . S
C438 C437 1.340 . S
C438 C439 1.451 . S
C438 H470 0.950 . S
C439 N435 1.380 . S
C439 C438 1.451 . S
C439 C464 1.378 1_556 S
N440 Co429 1.995 . S
N440 C441 1.376 . S
N440 C444 1.383 . S
C441 N440 1.376 . S
C441 C442 1.446 . S
C441 C464 1.391 . S
C442 C441 1.446 . S
C442 C443 1.339 . S
C442 H471 0.949 . S
C443 C442 1.339 . S
C443 C444 1.439 . S
C443 H472 0.950 . S
C444 N440 1.383 . S
C444 C443 1.439 . S
C444 C462 1.392 . S
N445 Co429 2.282 . S
N445 C448 1.332 . S
N445 C450 1.332 . S
C446 C447 1.386 . S
C446 C449 1.388 . S
C447 C446 1.386 . S
C447 C448 1.382 . S
C447 H473 0.950 . S
C448 N445 1.332 . S
C448 C447 1.382 . S
C448 H459 0.952 . S
C449 C446 1.388 . S
C449 C450 1.382 . S
C449 H474 0.950 . S
C450 N445 1.332 . S
C450 C449 1.382 . S
C450 H460 0.948 . S
N451 Co429 2.282 1_556 S
N451 C455 1.332 . S
N451 C456 1.332 . S
C452 C453 1.388 . S
C452 C456 1.382 . S
C452 H475 0.950 . S
C453 C452 1.388 . S
C453 C454 1.386 . S
C454 C453 1.386 . S
C454 C455 1.382 . S
C454 H476 0.950 . S
C455 N451 1.332 . S
C455 C454 1.382 . S
C455 H457 0.952 . S
C456 N451 1.332 . S
C456 C452 1.382 . S
C456 H458 0.948 . S
H457 C455 0.952 . S
H458 C456 0.948 . S
H459 C448 0.952 . S
H460 C450 0.948 . S
C461 C427 1.395 1_556 S
C461 C431 1.391 . S
C462 C424 1.389 . S
C462 C444 1.392 . S
C463 C434 1.392 . S
C463 C436 1.389 . S
C464 C439 1.378 1_554 S
C464 C441 1.391 . S
H465 C425 0.951 . S
H466 C426 0.950 . S
H467 C432 0.949 . S
H468 C433 0.950 . S
H469 C437 0.951 . S
H470 C438 0.950 . S
H471 C442 0.949 . S
H472 C443 0.950 . S
H473 C447 0.950 . S
H474 C449 0.950 . S
H475 C452 0.950 . S
H476 C454 0.950 . S
C477 C478 1.443 . S
C477 N481 1.376 . S
C477 C515 1.389 . S
C478 C477 1.443 . S
C478 C479 1.340 . S
C478 H518 0.951 . S
C479 C478 1.340 . S
C479 C480 1.439 . S
C479 H519 0.950 . S
C480 C479 1.439 . S
C480 N481 1.374 . S
C480 C514 1.395 . S
N481 C477 1.376 . S
N481 C480 1.374 . S
N481 Co482 2.008 . S
Co482 N481 2.008 . S
Co482 N483 1.995 . S
Co482 N488 2.008 . S
Co482 N493 1.995 . S
Co482 N498 2.282 . S
Co482 N504 2.282 1_554 S
N483 Co482 1.995 . S
N483 C484 1.376 . S
N483 C487 1.383 1_554 S
C484 N483 1.376 . S
C484 C485 1.446 1_554 S
C484 C514 1.391 . S
C485 C484 1.446 1_556 S
C485 C486 1.339 . S
C485 H520 0.949 . S
C486 C485 1.339 . S
C486 C487 1.439 . S
C486 H521 0.950 . S
C487 N483 1.383 1_556 S
C487 C486 1.439 . S
C487 C516 1.392 . S
N488 Co482 2.008 . S
N488 C489 1.376 1_554 S
N488 C492 1.374 . S
C489 N488 1.376 1_556 S
C489 C490 1.443 . S
C489 C516 1.389 . S
C490 C489 1.443 . S
C490 C491 1.340 . S
C490 H522 0.951 . S
C491 C490 1.340 . S
C491 C492 1.439 1_556 S
C491 H523 0.950 . S
C492 N488 1.374 . S
C492 C491 1.439 1_554 S
C492 C517 1.395 . S
N493 Co482 1.995 . S
N493 C494 1.376 . S
N493 C497 1.383 . S
C494 N493 1.376 . S
C494 C495 1.446 . S
C494 C517 1.391 . S
C495 C494 1.446 . S
C495 C496 1.339 . S
C495 H524 0.949 . S
C496 C495 1.339 . S
C496 C497 1.439 . S
C496 H525 0.950 . S
C497 N493 1.383 . S
C497 C496 1.439 . S
C497 C515 1.392 . S
N498 Co482 2.282 . S
N498 C501 1.332 . S
N498 C503 1.332 . S
C499 C500 1.386 . S
C499 C502 1.388 . S
C500 C499 1.386 . S
C500 C501 1.382 . S
C500 H526 0.950 . S
C501 N498 1.332 . S
C501 C500 1.382 . S
C501 H512 0.952 . S
C502 C499 1.388 . S
C502 C503 1.382 . S
C502 H527 0.950 . S
C503 N498 1.332 . S
C503 C502 1.382 . S
C503 H513 0.948 . S
N504 Co482 2.282 1_556 S
N504 C508 1.332 . S
N504 C509 1.332 . S
C505 C506 1.388 . S
C505 C509 1.382 . S
C505 H528 0.950 . S
C506 C505 1.388 . S
C506 C507 1.386 . S
C507 C506 1.386 . S
C507 C508 1.382 . S
C507 H529 0.950 . S
C508 N504 1.332 . S
C508 C507 1.382 . S
C508 H510 0.952 . S
C509 N504 1.332 . S
C509 C505 1.382 . S
C509 H511 0.948 . S
H510 C508 0.952 . S
H511 C509 0.948 . S
H512 C501 0.952 . S
H513 C503 0.948 . S
C514 C480 1.395 . S
C514 C484 1.391 . S
C515 C477 1.389 . S
C515 C497 1.392 . S
C516 C487 1.392 . S
C516 C489 1.389 . S
C517 C492 1.395 . S
C517 C494 1.391 . S
H518 C478 0.951 . S
H519 C479 0.950 . S
H520 C485 0.949 . S
H521 C486 0.950 . S
H522 C490 0.951 . S
H523 C491 0.950 . S
H524 C495 0.949 . S
H525 C496 0.950 . S
H526 C500 0.950 . S
H527 C502 0.950 . S
H528 C505 0.950 . S
H529 C507 0.950 . S
C530 C531 1.443 . S
C530 N534 1.376 . S
C530 C568 1.389 . S
C531 C530 1.443 . S
C531 C532 1.340 . S
C531 H571 0.951 . S
C532 C531 1.340 . S
C532 C533 1.439 . S
C532 H572 0.950 . S
C533 C532 1.439 . S
C533 N534 1.374 . S
C533 C567 1.395 . S
N534 C530 1.376 . S
N534 C533 1.374 . S
N534 Co535 2.008 . S
Co535 N534 2.008 . S
Co535 N536 1.995 . S
Co535 N541 2.008 . S
Co535 N546 1.995 . S
Co535 N551 2.282 . S
Co535 N557 2.282 . S
N536 Co535 1.995 . S
N536 C537 1.376 . S
N536 C540 1.383 1_554 S
C537 N536 1.376 . S
C537 C538 1.446 1_554 S
C537 C567 1.391 . S
C538 C537 1.446 1_556 S
C538 C539 1.339 . S
C538 H573 0.949 . S
C539 C538 1.339 . S
C539 C540 1.439 . S
C539 H574 0.950 . S
C540 N536 1.383 1_556 S
C540 C539 1.439 . S
C540 C569 1.392 . S
N541 Co535 2.008 . S
N541 C542 1.376 . S
N541 C545 1.374 . S
C542 N541 1.376 . S
C542 C543 1.443 . S
C542 C569 1.389 1_554 S
C543 C542 1.443 . S
C543 C544 1.340 . S
C543 H575 0.936 1_554 S
C544 C543 1.340 . S
C544 C545 1.439 . S
C544 H576 0.950 . S
C545 N541 1.374 . S
C545 C544 1.439 . S
C545 C570 1.395 . S
N546 Co535 1.995 . S
N546 C547 1.376 . S
N546 C550 1.383 . S
C547 N546 1.376 . S
C547 C548 1.446 . S
C547 C570 1.391 . S
C548 C547 1.446 . S
C548 C549 1.339 . S
C548 H577 0.949 . S
C549 C548 1.339 . S
C549 C550 1.439 . S
C549 H578 0.950 . S
C550 N546 1.383 . S
C550 C549 1.439 . S
C550 C568 1.392 . S
N551 Co535 2.282 . S
N551 C554 1.332 . S
N551 C556 1.332 . S
C552 C553 1.386 . S
C552 C555 1.388 . S
C553 C552 1.386 . S
C553 C554 1.382 . S
C553 H579 0.950 . S
C554 N551 1.332 . S
C554 C553 1.382 . S
C554 H565 0.952 . S
C555 C552 1.388 . S
C555 C556 1.382 . S
C555 H580 0.950 . S
C556 N551 1.332 . S
C556 C555 1.382 . S
C556 H566 0.948 . S
N557 Co535 2.282 . S
N557 C561 1.332 1_554 S
N557 C562 1.332 . S
C558 C559 1.388 . S
C558 C562 1.382 1_556 S
C558 H581 0.950 . S
C559 C558 1.388 . S
C559 C560 1.386 . S
C560 C559 1.386 . S
C560 C561 1.382 . S
C560 H582 0.950 . S
C561 N557 1.332 1_556 S
C561 C560 1.382 . S
C561 H563 0.952 . S
C562 N557 1.332 . S
C562 C558 1.382 1_554 S
C562 H564 0.948 . S
H563 C561 0.952 . S
H564 C562 0.948 . S
H565 C554 0.952 . S
H566 C556 0.948 . S
C567 C533 1.395 . S
C567 C537 1.391 . S
C568 C530 1.389 . S
C568 C550 1.392 . S
C569 C540 1.392 . S
C569 C542 1.389 1_556 S
C570 C545 1.395 . S
C570 C547 1.391 . S
H571 C531 0.951 . S
H572 C532 0.950 . S
H573 C538 0.949 . S
H574 C539 0.950 . S
H575 C543 0.936 1_556 S
H576 C544 0.950 . S
H577 C548 0.949 . S
H578 C549 0.950 . S
H579 C553 0.950 . S
H580 C555 0.950 . S
H581 C558 0.950 . S
H582 C560 0.950 . S
C583 C584 1.443 . S
C583 N587 1.376 . S
C583 C621 1.389 1_554 S
C584 C583 1.443 . S
C584 C585 1.340 . S
C584 H624 0.951 1_554 S
C585 C584 1.340 . S
C585 C586 1.439 . S
C585 H625 0.950 . S
C586 C585 1.439 . S
C586 N587 1.374 . S
C586 C620 1.395 . S
N587 C583 1.376 . S
N587 C586 1.374 . S
N587 Co588 2.008 . S
Co588 N587 2.008 . S
Co588 N589 1.995 . S
Co588 N594 2.008 . S
Co588 N599 1.995 . S
Co588 N604 2.282 . S
Co588 N610 2.282 . S
N589 Co588 1.995 . S
N589 C590 1.376 . S
N589 C593 1.383 . S
C590 N589 1.376 . S
C590 C591 1.446 . S
C590 C620 1.391 . S
C591 C590 1.446 . S
C591 C592 1.339 . S
C591 H626 0.949 . S
C592 C591 1.339 . S
C592 C593 1.439 . S
C592 H627 0.950 . S
C593 N589 1.383 . S
C593 C592 1.439 . S
C593 C622 1.392 . S
N594 Co588 2.008 . S
N594 C595 1.376 . S
N594 C598 1.374 . S
C595 N594 1.376 . S
C595 C596 1.443 . S
C595 C622 1.389 . S
C596 C595 1.443 . S
C596 C597 1.340 . S
C596 H628 0.951 . S
C597 C596 1.340 . S
C597 C598 1.439 . S
C597 H629 0.950 . S
C598 N594 1.374 . S
C598 C597 1.439 . S
C598 C623 1.395 . S
N599 Co588 1.995 . S
N599 C600 1.376 . S
N599 C603 1.389 . S
C600 N599 1.376 . S
C600 C601 1.446 1_554 S
C600 C623 1.391 . S
C601 C600 1.446 1_556 S
C601 C602 1.339 . S
C601 H630 0.949 . S
C602 C601 1.339 . S
C602 C603 1.434 1_556 S
C602 H631 0.950 . S
C603 N599 1.389 . S
C603 C602 1.434 1_554 S
C603 C621 1.391 1_554 S
N604 Co588 2.282 . S
N604 C607 1.332 1_554 S
N604 C609 1.332 . S
C605 C606 1.386 . S
C605 C608 1.388 . S
C606 C605 1.386 . S
C606 C607 1.382 . S
C606 H632 0.950 . S
C607 N604 1.332 1_556 S
C607 C606 1.382 . S
C607 H618 0.952 . S
C608 C605 1.388 . S
C608 C609 1.382 1_556 S
C608 H633 0.950 . S
C609 N604 1.332 . S
C609 C608 1.382 1_554 S
C609 H619 0.948 . S
N610 Co588 2.282 . S
N610 C614 1.332 . S
N610 C615 1.332 . S
C611 C612 1.388 . S
C611 C615 1.382 . S
C611 H634 0.950 . S
C612 C611 1.388 . S
C612 C613 1.386 . S
C613 C612 1.386 . S
C613 C614 1.382 . S
C613 H635 0.950 . S
C614 N610 1.332 . S
C614 C613 1.382 . S
C614 H616 0.952 . S
C615 N610 1.332 . S
C615 C611 1.382 . S
C615 H617 0.948 . S
H616 C614 0.952 . S
H617 C615 0.948 . S
H618 C607 0.952 . S
H619 C609 0.948 . S
C620 C586 1.395 . S
C620 C590 1.391 . S
C621 C583 1.389 1_556 S
C621 C603 1.391 1_556 S
C622 C593 1.392 . S
C622 C595 1.389 . S
C623 C598 1.395 . S
C623 C600 1.391 . S
H624 C584 0.951 1_556 S
H625 C585 0.950 . S
H626 C591 0.949 . S
H627 C592 0.950 . S
H628 C596 0.951 . S
H629 C597 0.950 . S
H630 C601 0.949 . S
H631 C602 0.950 . S
H632 C606 0.950 . S
H633 C608 0.950 . S
H634 C611 0.950 . S
H635 C613 0.950 . S
C636 C637 1.443 . S
C636 N640 1.376 . S
C636 C674 1.389 . S
C637 C636 1.443 . S
C637 C638 1.340 . S
C637 H677 0.951 . S
C638 C637 1.340 . S
C638 C639 1.439 . S
C638 H678 0.950 . S
C639 C638 1.439 . S
C639 N640 1.374 . S
C639 C673 1.395 . S
N640 C636 1.376 . S
N640 C639 1.374 . S
N640 Co641 2.008 . S
Co641 N640 2.008 . S
Co641 N642 1.995 . S
Co641 N647 2.008 . S
Co641 N652 1.995 . S
Co641 N657 2.282 . S
Co641 N663 2.282 . S
N642 Co641 1.995 . S
N642 C643 1.376 . S
N642 C646 1.383 . S
C643 N642 1.376 . S
C643 C644 1.446 . S
C643 C673 1.391 . S
C644 C643 1.446 . S
C644 C645 1.339 . S
C644 H679 0.949 . S
C645 C644 1.339 . S
C645 C646 1.439 . S
C645 H680 0.950 . S
C646 N642 1.383 . S
C646 C645 1.439 . S
C646 C675 1.392 . S
N647 Co641 2.008 . S
N647 C648 1.376 . S
N647 C651 1.374 . S
C648 N647 1.376 . S
C648 C649 1.443 . S
C648 C675 1.389 . S
C649 C648 1.443 . S
C649 C650 1.340 . S
C649 H681 0.951 . S
C650 C649 1.340 . S
C650 C651 1.439 . S
C650 H682 0.950 . S
C651 N647 1.374 . S
C651 C650 1.439 . S
C651 C676 1.395 . S
N652 Co641 1.995 . S
N652 C653 1.376 . S
N652 C656 1.383 . S
C653 N652 1.376 . S
C653 C654 1.446 . S
C653 C676 1.391 . S
C654 C653 1.446 . S
C654 C655 1.339 . S
C654 H683 0.949 . S
C655 C654 1.339 . S
C655 C656 1.439 . S
C655 H684 0.950 . S
C656 N652 1.383 . S
C656 C655 1.439 . S
C656 C674 1.392 . S
N657 Co641 2.282 . S
N657 C660 1.332 . S
N657 C662 1.332 . S
C658 C659 1.386 . S
C658 C661 1.388 . S
C659 C658 1.386 . S
C659 C660 1.382 . S
C659 H685 0.950 . S
C660 N657 1.332 . S
C660 C659 1.382 . S
C660 H671 0.952 . S
C661 C658 1.388 . S
C661 C662 1.382 . S
C661 H686 0.950 . S
C662 N657 1.332 . S
C662 C661 1.382 . S
C662 H672 0.948 . S
N663 Co641 2.282 . S
N663 C667 1.332 . S
N663 C668 1.332 . S
C664 C665 1.388 . S
C664 C668 1.382 . S
C664 H687 0.950 . S
C665 C664 1.388 . S
C665 C666 1.386 . S
C666 C665 1.386 . S
C666 C667 1.382 . S
C666 H688 0.950 . S
C667 N663 1.332 . S
C667 C666 1.382 . S
C667 H669 0.952 . S
C668 N663 1.332 . S
C668 C664 1.382 . S
C668 H670 0.948 . S
H669 C667 0.952 . S
H670 C668 0.948 . S
H671 C660 0.952 . S
H672 C662 0.948 . S
C673 C639 1.395 . S
C673 C643 1.391 . S
C674 C636 1.389 . S
C674 C656 1.392 . S
C675 C646 1.392 . S
C675 C648 1.389 . S
C676 C651 1.395 . S
C676 C653 1.391 . S
H677 C637 0.951 . S
H678 C638 0.950 . S
H679 C644 0.949 . S
H680 C645 0.950 . S
H681 C649 0.951 . S
H682 C650 0.950 . S
H683 C654 0.949 . S
H684 C655 0.950 . S
H685 C659 0.950 . S
H686 C661 0.950 . S
H687 C664 0.950 . S
H688 C666 0.950 . S
C689 C690 1.443 . S
C689 N693 1.376 . S
C689 C727 1.389 . S
C690 C689 1.443 . S
C690 C691 1.340 . S
C690 H730 0.951 . S
C691 C690 1.340 . S
C691 C692 1.439 . S
C691 H731 0.950 . S
C692 C691 1.439 . S
C692 N693 1.374 . S
C692 C726 1.395 . S
N693 C689 1.376 . S
N693 C692 1.374 . S
N693 Co694 2.008 . S
Co694 N693 2.008 . S
Co694 N695 1.995 . S
Co694 N700 2.008 . S
Co694 N705 1.995 . S
Co694 N710 2.282 . S
Co694 N716 2.282 . S
N695 Co694 1.995 . S
N695 C696 1.376 . S
N695 C699 1.383 . S
C696 N695 1.376 . S
C696 C697 1.446 . S
C696 C726 1.391 . S
C697 C696 1.446 . S
C697 C698 1.339 . S
C697 H732 0.949 . S
C698 C697 1.339 . S
C698 C699 1.439 . S
C698 H733 0.950 . S
C699 N695 1.383 . S
C699 C698 1.439 . S
C699 C728 1.392 . S
N700 Co694 2.008 . S
N700 C701 1.376 . S
N700 C704 1.374 . S
C701 N700 1.376 . S
C701 C702 1.443 . S
C701 C728 1.389 . S
C702 C701 1.443 . S
C702 C703 1.340 . S
C702 H734 0.951 . S
C703 C702 1.340 . S
C703 C704 1.439 . S
C703 H735 0.950 . S
C704 N700 1.374 . S
C704 C703 1.439 . S
C704 C729 1.395 . S
N705 Co694 1.995 . S
N705 C706 1.376 . S
N705 C709 1.383 . S
C706 N705 1.376 . S
C706 C707 1.446 . S
C706 C729 1.391 . S
C707 C706 1.446 . S
C707 C708 1.339 . S
C707 H736 0.949 . S
C708 C707 1.339 . S
C708 C709 1.439 . S
C708 H737 0.950 . S
C709 N705 1.383 . S
C709 C708 1.439 . S
C709 C727 1.392 . S
N710 Co694 2.282 . S
N710 C713 1.332 . S
N710 C715 1.332 . S
C711 C712 1.386 . S
C711 C714 1.388 . S
C712 C711 1.386 . S
C712 C713 1.382 . S
C712 H738 0.950 . S
C713 N710 1.332 . S
C713 C712 1.382 . S
C713 H724 0.952 . S
C714 C711 1.388 . S
C714 C715 1.382 . S
C714 H739 0.950 . S
C715 N710 1.332 . S
C715 C714 1.382 . S
C715 H725 0.948 . S
N716 Co694 2.282 . S
N716 C720 1.332 . S
N716 C721 1.332 . S
C717 C718 1.388 . S
C717 C721 1.382 . S
C717 H740 0.950 . S
C718 C717 1.388 . S
C718 C719 1.386 . S
C719 C718 1.386 . S
C719 C720 1.382 . S
C719 H741 0.950 . S
C720 N716 1.332 . S
C720 C719 1.382 . S
C720 H722 0.952 . S
C721 N716 1.332 . S
C721 C717 1.382 . S
C721 H723 0.948 . S
H722 C720 0.952 . S
H723 C721 0.948 . S
H724 C713 0.952 . S
H725 C715 0.948 . S
C726 C692 1.395 . S
C726 C696 1.391 . S
C727 C689 1.389 . S
C727 C709 1.392 . S
C728 C699 1.392 . S
C728 C701 1.389 . S
C729 C704 1.395 . S
C729 C706 1.391 . S
H730 C690 0.951 . S
H731 C691 0.950 . S
H732 C697 0.949 . S
H733 C698 0.950 . S
H734 C702 0.951 . S
H735 C703 0.950 . S
H736 C707 0.949 . S
H737 C708 0.950 . S
H738 C712 0.950 . S
H739 C714 0.950 . S
H740 C717 0.950 . S
H741 C719 0.950 . S
C742 C743 1.443 . S
C742 N746 1.376 . S
C742 C780 1.389 . S
C743 C742 1.443 . S
C743 C744 1.340 . S
C743 H783 0.951 . S
C744 C743 1.340 . S
C744 C745 1.439 . S
C744 H784 0.950 . S
C745 C744 1.439 . S
C745 N746 1.374 . S
C745 C779 1.395 . S
N746 C742 1.376 . S
N746 C745 1.374 . S
N746 Co747 2.008 . S
Co747 N746 2.008 . S
Co747 N748 1.995 . S
Co747 N753 2.008 . S
Co747 N758 1.995 . S
Co747 N763 2.282 . S
Co747 N769 2.282 . S
N748 Co747 1.995 . S
N748 C749 1.376 . S
N748 C752 1.383 . S
C749 N748 1.376 . S
C749 C750 1.446 . S
C749 C779 1.391 . S
C750 C749 1.446 . S
C750 C751 1.339 . S
C750 H785 0.949 . S
C751 C750 1.339 . S
C751 C752 1.439 . S
C751 H786 0.950 . S
C752 N748 1.383 . S
C752 C751 1.439 . S
C752 C781 1.392 . S
N753 Co747 2.008 . S
N753 C754 1.376 . S
N753 C757 1.374 . S
C754 N753 1.376 . S
C754 C755 1.443 . S
C754 C781 1.389 . S
C755 C754 1.443 . S
C755 C756 1.340 . S
C755 H787 0.951 . S
C756 C755 1.340 . S
C756 C757 1.439 . S
C756 H788 0.950 . S
C757 N753 1.374 . S
C757 C756 1.439 . S
C757 C782 1.395 . S
N758 Co747 1.995 . S
N758 C759 1.376 . S
N758 C762 1.383 . S
C759 N758 1.376 . S
C759 C760 1.446 . S
C759 C782 1.391 . S
C760 C759 1.446 . S
C760 C761 1.339 . S
C760 H789 0.949 . S
C761 C760 1.339 . S
C761 C762 1.439 . S
C761 H790 0.950 . S
C762 N758 1.383 . S
C762 C761 1.439 . S
C762 C780 1.392 . S
N763 Co747 2.282 . S
N763 C766 1.332 . S
N763 C768 1.332 . S
C764 C765 1.386 . S
C764 C767 1.388 . S
C765 C764 1.386 . S
C765 C766 1.382 . S
C765 H791 0.950 . S
C766 N763 1.332 . S
C766 C765 1.382 . S
C766 H777 0.952 . S
C767 C764 1.388 . S
C767 C768 1.382 . S
C767 H792 0.950 . S
C768 N763 1.332 . S
C768 C767 1.382 . S
C768 H778 0.948 . S
N769 Co747 2.282 . S
N769 C773 1.332 . S
N769 C774 1.332 . S
C770 C771 1.388 . S
C770 C774 1.382 . S
C770 H793 0.950 . S
C771 C770 1.388 . S
C771 C772 1.386 . S
C772 C771 1.386 . S
C772 C773 1.382 . S
C772 H794 0.950 . S
C773 N769 1.332 . S
C773 C772 1.382 . S
C773 H775 0.952 . S
C774 N769 1.332 . S
C774 C770 1.382 . S
C774 H776 0.948 . S
H775 C773 0.952 . S
H776 C774 0.948 . S
H777 C766 0.952 . S
H778 C768 0.948 . S
C779 C745 1.395 . S
C779 C749 1.391 . S
C780 C742 1.389 . S
C780 C762 1.392 . S
C781 C752 1.392 . S
C781 C754 1.389 . S
C782 C757 1.395 . S
C782 C759 1.391 . S
H783 C743 0.951 . S
H784 C744 0.950 . S
H785 C750 0.949 . S
H786 C751 0.950 . S
H787 C755 0.951 . S
H788 C756 0.950 . S
H789 C760 0.949 . S
H790 C761 0.950 . S
H791 C765 0.950 . S
H792 C767 0.950 . S
H793 C770 0.950 . S
H794 C772 0.950 . S
C795 C796 1.443 . S
C795 N799 1.376 . S
C795 C833 1.389 . S
C796 C795 1.443 . S
C796 C797 1.340 . S
C796 H836 0.951 . S
C797 C796 1.340 . S
C797 C798 1.439 . S
C797 H837 0.950 . S
C798 C797 1.439 . S
C798 N799 1.374 . S
C798 C832 1.395 . S
N799 C795 1.376 . S
N799 C798 1.374 . S
N799 Co800 2.008 . S
Co800 N799 2.008 . S
Co800 N801 1.995 . S
Co800 N806 2.008 . S
Co800 N811 1.995 . S
Co800 N816 2.282 . S
Co800 N822 2.282 . S
N801 Co800 1.995 . S
N801 C802 1.376 . S
N801 C805 1.383 . S
C802 N801 1.376 . S
C802 C803 1.446 . S
C802 C832 1.391 . S
C803 C802 1.446 . S
C803 C804 1.339 . S
C803 H838 0.949 . S
C804 C803 1.339 . S
C804 C805 1.439 . S
C804 H839 0.950 . S
C805 N801 1.383 . S
C805 C804 1.439 . S
C805 C834 1.392 . S
N806 Co800 2.008 . S
N806 C807 1.376 . S
N806 C810 1.374 . S
C807 N806 1.376 . S
C807 C808 1.443 . S
C807 C834 1.389 . S
C808 C807 1.443 . S
C808 C809 1.340 . S
C808 H840 0.951 . S
C809 C808 1.340 . S
C809 C810 1.439 . S
C809 H841 0.950 . S
C810 N806 1.374 . S
C810 C809 1.439 . S
C810 C835 1.395 . S
N811 Co800 1.995 . S
N811 C812 1.376 . S
N811 C815 1.383 . S
C812 N811 1.376 . S
C812 C813 1.446 . S
C812 C835 1.391 . S
C813 C812 1.446 . S
C813 C814 1.339 . S
C813 H842 0.949 . S
C814 C813 1.339 . S
C814 C815 1.439 . S
C814 H843 0.950 . S
C815 N811 1.383 . S
C815 C814 1.439 . S
C815 C833 1.392 . S
N816 Co800 2.282 . S
N816 C819 1.332 . S
N816 C821 1.332 . S
C817 C818 1.386 . S
C817 C820 1.388 . S
C818 C817 1.386 . S
C818 C819 1.382 . S
C818 H844 0.950 . S
C819 N816 1.332 . S
C819 C818 1.382 . S
C819 H830 0.952 . S
C820 C817 1.388 . S
C820 C821 1.382 . S
C820 H845 0.950 . S
C821 N816 1.332 . S
C821 C820 1.382 . S
C821 H831 0.948 . S
N822 Co800 2.282 . S
N822 C826 1.332 . S
N822 C827 1.332 . S
C823 C824 1.388 . S
C823 C827 1.382 . S
C823 H846 0.950 . S
C824 C823 1.388 . S
C824 C825 1.386 . S
C825 C824 1.386 . S
C825 C826 1.382 . S
C825 H847 0.950 . S
C826 N822 1.332 . S
C826 C825 1.382 . S
C826 H828 0.952 . S
C827 N822 1.332 . S
C827 C823 1.382 . S
C827 H829 0.948 . S
H828 C826 0.952 . S
H829 C827 0.948 . S
H830 C819 0.952 . S
H831 C821 0.948 . S
C832 C798 1.395 . S
C832 C802 1.391 . S
C833 C795 1.389 . S
C833 C815 1.392 . S
C834 C805 1.392 . S
C834 C807 1.389 . S
C835 C810 1.395 . S
C835 C812 1.391 . S
H836 C796 0.951 . S
H837 C797 0.950 . S
H838 C803 0.949 . S
H839 C804 0.950 . S
H840 C808 0.951 . S
H841 C809 0.950 . S
H842 C813 0.949 . S
H843 C814 0.950 . S
H844 C818 0.950 . S
H845 C820 0.950 . S
H846 C823 0.950 . S
H847 C825 0.950 . S
C848 C849 1.443 . S
C848 N852 1.376 . S
C848 C886 1.389 . S
C849 C848 1.443 . S
C849 C850 1.340 . S
C849 H889 0.951 . S
C850 C849 1.340 . S
C850 C851 1.439 . S
C850 H890 0.950 . S
C851 C850 1.439 . S
C851 N852 1.374 . S
C851 C885 1.395 . S
N852 C848 1.376 . S
N852 C851 1.374 . S
N852 Co853 2.008 . S
Co853 N852 2.008 . S
Co853 N854 1.995 . S
Co853 N859 2.008 . S
Co853 N864 1.995 . S
Co853 N869 2.282 . S
Co853 N875 2.282 . S
N854 Co853 1.995 . S
N854 C855 1.376 . S
N854 C858 1.383 . S
C855 N854 1.376 . S
C855 C856 1.446 . S
C855 C885 1.391 . S
C856 C855 1.446 . S
C856 C857 1.339 . S
C856 H891 0.949 . S
C857 C856 1.339 . S
C857 C858 1.439 . S
C857 H892 0.950 . S
C858 N854 1.383 . S
C858 C857 1.439 . S
C858 C887 1.392 . S
N859 Co853 2.008 . S
N859 C860 1.376 . S
N859 C863 1.374 . S
C860 N859 1.376 . S
C860 C861 1.443 . S
C860 C887 1.389 . S
C861 C860 1.443 . S
C861 C862 1.340 . S
C861 H893 0.951 . S
C862 C861 1.340 . S
C862 C863 1.439 . S
C862 H894 0.950 . S
C863 N859 1.374 . S
C863 C862 1.439 . S
C863 C888 1.395 . S
N864 Co853 1.995 . S
N864 C865 1.376 . S
N864 C868 1.383 . S
C865 N864 1.376 . S
C865 C866 1.446 . S
C865 C888 1.391 . S
C866 C865 1.446 . S
C866 C867 1.339 . S
C866 H895 0.949 . S
C867 C866 1.339 . S
C867 C868 1.439 . S
C867 H896 0.950 . S
C868 N864 1.383 . S
C868 C867 1.439 . S
C868 C886 1.392 . S
N869 Co853 2.282 . S
N869 C872 1.332 . S
N869 C874 1.332 . S
C870 C871 1.386 . S
C870 C873 1.388 . S
C871 C870 1.386 . S
C871 C872 1.382 . S
C871 H897 0.950 . S
C872 N869 1.332 . S
C872 C871 1.382 . S
C872 H883 0.952 . S
C873 C870 1.388 . S
C873 C874 1.382 . S
C873 H898 0.950 . S
C874 N869 1.332 . S
C874 C873 1.382 . S
C874 H884 0.948 . S
N875 Co853 2.282 . S
N875 C879 1.332 . S
N875 C880 1.332 . S
C876 C877 1.388 . S
C876 C880 1.382 . S
C876 H899 0.950 . S
C877 C876 1.388 . S
C877 C878 1.386 . S
C878 C877 1.386 . S
C878 C879 1.382 . S
C878 H900 0.950 . S
C879 N875 1.332 . S
C879 C878 1.382 . S
C879 H881 0.952 . S
C880 N875 1.332 . S
C880 C876 1.382 . S
C880 H882 0.948 . S
H881 C879 0.952 . S
H882 C880 0.948 . S
H883 C872 0.952 . S
H884 C874 0.948 . S
C885 C851 1.395 . S
C885 C855 1.391 . S
C886 C848 1.389 . S
C886 C868 1.392 . S
C887 C858 1.392 . S
C887 C860 1.389 . S
C888 C863 1.395 . S
C888 C865 1.391 . S
H889 C849 0.951 . S
H890 C850 0.950 . S
H891 C856 0.949 . S
H892 C857 0.950 . S
H893 C861 0.951 . S
H894 C862 0.950 . S
H895 C866 0.949 . S
H896 C867 0.950 . S
H897 C871 0.950 . S
H898 C873 0.950 . S
H899 C876 0.950 . S
H900 C878 0.950 . S
C901 C902 1.443 . S
C901 N905 1.376 . S
C901 C939 1.389 . S
C902 C901 1.443 . S
C902 C903 1.340 . S
C902 H942 0.951 . S
C903 C902 1.340 . S
C903 C904 1.439 . S
C903 H943 0.950 . S
C904 C903 1.439 . S
C904 N905 1.374 . S
C904 C938 1.395 . S
N905 C901 1.376 . S
N905 C904 1.374 . S
N905 Co906 2.008 . S
Co906 N905 2.008 . S
Co906 N907 1.995 . S
Co906 N912 2.008 . S
Co906 N917 1.995 . S
Co906 N922 2.282 . S
Co906 N928 2.282 . S
N907 Co906 1.995 . S
N907 C908 1.376 . S
N907 C911 1.383 . S
C908 N907 1.376 . S
C908 C909 1.446 . S
C908 C938 1.391 . S
C909 C908 1.446 . S
C909 C910 1.339 . S
C909 H944 0.949 . S
C910 C909 1.339 . S
C910 C911 1.439 . S
C910 H945 0.950 . S
C911 N907 1.383 . S
C911 C910 1.439 . S
C911 C940 1.392 . S
N912 Co906 2.008 . S
N912 C913 1.376 . S
N912 C916 1.374 . S
C913 N912 1.376 . S
C913 C914 1.443 . S
C913 C940 1.389 . S
C914 C913 1.443 . S
C914 C915 1.340 . S
C914 H946 0.951 . S
C915 C914 1.340 . S
C915 C916 1.439 . S
C915 H947 0.950 . S
C916 N912 1.374 . S
C916 C915 1.439 . S
C916 C941 1.395 . S
N917 Co906 1.995 . S
N917 C918 1.376 . S
N917 C921 1.383 . S
C918 N917 1.376 . S
C918 C919 1.446 . S
C918 C941 1.391 . S
C919 C918 1.446 . S
C919 C920 1.339 . S
C919 H948 0.949 . S
C920 C919 1.339 . S
C920 C921 1.439 . S
C920 H949 0.950 . S
C921 N917 1.383 . S
C921 C920 1.439 . S
C921 C939 1.392 . S
N922 Co906 2.282 . S
N922 C925 1.332 . S
N922 C927 1.332 . S
C923 C924 1.386 . S
C923 C926 1.388 . S
C924 C923 1.386 . S
C924 C925 1.382 . S
C924 H950 0.950 . S
C925 N922 1.332 . S
C925 C924 1.382 . S
C925 H936 0.952 . S
C926 C923 1.388 . S
C926 C927 1.382 . S
C926 H951 0.950 . S
C927 N922 1.332 . S
C927 C926 1.382 . S
C927 H937 0.948 . S
N928 Co906 2.282 . S
N928 C932 1.332 . S
N928 C933 1.332 . S
C929 C930 1.388 . S
C929 C933 1.382 . S
C929 H952 0.950 . S
C930 C929 1.388 . S
C930 C931 1.386 . S
C931 C930 1.386 . S
C931 C932 1.382 . S
C931 H953 0.950 . S
C932 N928 1.332 . S
C932 C931 1.382 . S
C932 H934 0.952 . S
C933 N928 1.332 . S
C933 C929 1.382 . S
C933 H935 0.948 . S
H934 C932 0.952 . S
H935 C933 0.948 . S
H936 C925 0.952 . S
H937 C927 0.948 . S
C938 C904 1.395 . S
C938 C908 1.391 . S
C939 C901 1.389 . S
C939 C921 1.392 . S
C940 C911 1.392 . S
C940 C913 1.389 . S
C941 C916 1.395 . S
C941 C918 1.391 . S
H942 C902 0.951 . S
H943 C903 0.950 . S
H944 C909 0.949 . S
H945 C910 0.950 . S
H946 C914 0.951 . S
H947 C915 0.950 . S
H948 C919 0.949 . S
H949 C920 0.950 . S
H950 C924 0.950 . S
H951 C926 0.950 . S
H952 C929 0.950 . S
H953 C931 0.950 . S
C954 C955 1.443 . S
C954 N958 1.376 . S
C954 C992 1.389 . S
C955 C954 1.443 . S
C955 C956 1.340 . S
C955 H995 0.951 . S
C956 C955 1.340 . S
C956 C957 1.439 . S
C956 H996 0.950 . S
C957 C956 1.439 . S
C957 N958 1.374 . S
C957 C991 1.395 . S
N958 C954 1.376 . S
N958 C957 1.374 . S
N958 Co959 2.008 . S
Co959 N958 2.008 . S
Co959 N960 1.995 . S
Co959 N965 2.008 . S
Co959 N970 1.995 . S
Co959 N975 2.282 . S
Co959 N981 2.282 . S
N960 Co959 1.995 . S
N960 C961 1.376 . S
N960 C964 1.383 . S
C961 N960 1.376 . S
C961 C962 1.446 . S
C961 C991 1.391 . S
C962 C961 1.446 . S
C962 C963 1.339 . S
C962 H997 0.949 . S
C963 C962 1.339 . S
C963 C964 1.439 . S
C963 H998 0.950 . S
C964 N960 1.383 . S
C964 C963 1.439 . S
C964 C993 1.392 . S
N965 Co959 2.008 . S
N965 C966 1.376 . S
N965 C969 1.374 . S
C966 N965 1.376 . S
C966 C967 1.443 . S
C966 C993 1.389 . S
C967 C966 1.443 . S
C967 C968 1.340 . S
C967 H999 0.951 . S
C968 C967 1.340 . S
C968 C969 1.439 . S
C968 H1000 0.950 . S
C969 N965 1.374 . S
C969 C968 1.439 . S
C969 C994 1.395 . S
N970 Co959 1.995 . S
N970 C971 1.376 . S
N970 C974 1.383 . S
C971 N970 1.376 . S
C971 C972 1.446 . S
C971 C994 1.391 . S
C972 C971 1.446 . S
C972 C973 1.339 . S
C972 H1001 0.949 . S
C973 C972 1.339 . S
C973 C974 1.439 . S
C973 H1002 0.950 . S
C974 N970 1.383 . S
C974 C973 1.439 . S
C974 C992 1.392 . S
N975 Co959 2.282 . S
N975 C978 1.332 . S
N975 C980 1.332 . S
C976 C977 1.386 . S
C976 C979 1.388 . S
C977 C976 1.386 . S
C977 C978 1.382 . S
C977 H1003 0.950 . S
C978 N975 1.332 . S
C978 C977 1.382 . S
C978 H989 0.952 . S
C979 C976 1.388 . S
C979 C980 1.382 . S
C979 H1004 0.950 . S
C980 N975 1.332 . S
C980 C979 1.382 . S
C980 H990 0.948 . S
N981 Co959 2.282 . S
N981 C985 1.332 . S
N981 C986 1.332 . S
C982 C983 1.388 . S
C982 C986 1.382 . S
C982 H1005 0.950 . S
C983 C982 1.388 . S
C983 C984 1.386 . S
C984 C983 1.386 . S
C984 C985 1.382 . S
C984 H1006 0.950 . S
C985 N981 1.332 . S
C985 C984 1.382 . S
C985 H987 0.952 . S
C986 N981 1.332 . S
C986 C982 1.382 . S
C986 H988 0.948 . S
H987 C985 0.952 . S
H988 C986 0.948 . S
H989 C978 0.952 . S
H990 C980 0.948 . S
C991 C957 1.395 . S
C991 C961 1.391 . S
C992 C954 1.389 . S
C992 C974 1.392 . S
C993 C964 1.392 . S
C993 C966 1.389 . S
C994 C969 1.395 . S
C994 C971 1.391 . S
H995 C955 0.951 . S
H996 C956 0.950 . S
H997 C962 0.949 . S
H998 C963 0.950 . S
H999 C967 0.951 . S
H1000 C968 0.950 . S
H1001 C972 0.949 . S
H1002 C973 0.950 . S
H1003 C977 0.950 . S
H1004 C979 0.950 . S
H1005 C982 0.950 . S
H1006 C984 0.950 . S
C1007 C1008 1.443 . S
C1007 N1011 1.376 . S
C1007 C1045 1.389 . S
C1008 C1007 1.443 . S
C1008 C1009 1.340 . S
C1008 H1048 0.951 . S
C1009 C1008 1.340 . S
C1009 C1010 1.439 . S
C1009 H1049 0.950 . S
C1010 C1009 1.439 . S
C1010 N1011 1.374 . S
C1010 C1044 1.395 . S
N1011 C1007 1.376 . S
N1011 C1010 1.374 . S
N1011 Co1012 2.008 . S
Co1012 N1011 2.008 . S
Co1012 N1013 1.995 . S
Co1012 N1018 2.008 . S
Co1012 N1023 1.995 . S
Co1012 N1028 2.282 . S
Co1012 N1034 2.282 . S
N1013 Co1012 1.995 . S
N1013 C1014 1.376 . S
N1013 C1017 1.383 . S
C1014 N1013 1.376 . S
C1014 C1015 1.446 . S
C1014 C1044 1.391 . S
C1015 C1014 1.446 . S
C1015 C1016 1.339 . S
C1015 H1050 0.949 . S
C1016 C1015 1.339 . S
C1016 C1017 1.439 . S
C1016 H1051 0.950 . S
C1017 N1013 1.383 . S
C1017 C1016 1.439 . S
C1017 C1046 1.392 . S
N1018 Co1012 2.008 . S
N1018 C1019 1.376 . S
N1018 C1022 1.374 . S
C1019 N1018 1.376 . S
C1019 C1020 1.443 . S
C1019 C1046 1.389 . S
C1020 C1019 1.443 . S
C1020 C1021 1.340 . S
C1020 H1052 0.951 . S
C1021 C1020 1.340 . S
C1021 C1022 1.439 . S
C1021 H1053 0.950 . S
C1022 N1018 1.374 . S
C1022 C1021 1.439 . S
C1022 C1047 1.395 . S
N1023 Co1012 1.995 . S
N1023 C1024 1.376 . S
N1023 C1027 1.383 . S
C1024 N1023 1.376 . S
C1024 C1025 1.446 . S
C1024 C1047 1.391 . S
C1025 C1024 1.446 . S
C1025 C1026 1.339 . S
C1025 H1054 0.949 . S
C1026 C1025 1.339 . S
C1026 C1027 1.439 . S
C1026 H1055 0.950 . S
C1027 N1023 1.383 . S
C1027 C1026 1.439 . S
C1027 C1045 1.392 . S
N1028 Co1012 2.282 . S
N1028 C1031 1.332 . S
N1028 C1033 1.332 . S
C1029 C1030 1.386 . S
C1029 C1032 1.388 . S
C1030 C1029 1.386 . S
C1030 C1031 1.382 . S
C1030 H1056 0.950 . S
C1031 N1028 1.332 . S
C1031 C1030 1.382 . S
C1031 H1042 0.952 . S
C1032 C1029 1.388 . S
C1032 C1033 1.382 . S
C1032 H1057 0.950 . S
C1033 N1028 1.332 . S
C1033 C1032 1.382 . S
C1033 H1043 0.948 . S
N1034 Co1012 2.282 . S
N1034 C1038 1.332 . S
N1034 C1039 1.332 . S
C1035 C1036 1.388 . S
C1035 C1039 1.382 . S
C1035 H1058 0.950 . S
C1036 C1035 1.388 . S
C1036 C1037 1.386 . S
C1037 C1036 1.386 . S
C1037 C1038 1.382 . S
C1037 H1059 0.950 . S
C1038 N1034 1.332 . S
C1038 C1037 1.382 . S
C1038 H1040 0.952 . S
C1039 N1034 1.332 . S
C1039 C1035 1.382 . S
C1039 H1041 0.948 . S
H1040 C1038 0.952 . S
H1041 C1039 0.948 . S
H1042 C1031 0.952 . S
H1043 C1033 0.948 . S
C1044 C1010 1.395 . S
C1044 C1014 1.391 . S
C1045 C1007 1.389 . S
C1045 C1027 1.392 . S
C1046 C1017 1.392 . S
C1046 C1019 1.389 . S
C1047 C1022 1.395 . S
C1047 C1024 1.391 . S
H1048 C1008 0.951 . S
H1049 C1009 0.950 . S
H1050 C1015 0.949 . S
H1051 C1016 0.950 . S
H1052 C1020 0.951 . S
H1053 C1021 0.950 . S
H1054 C1025 0.949 . S
H1055 C1026 0.950 . S
H1056 C1030 0.950 . S
H1057 C1032 0.950 . S
H1058 C1035 0.950 . S
H1059 C1037 0.950 . S
C1060 C1061 1.443 . S
C1060 N1064 1.376 . S
C1060 C1098 1.389 . S
C1061 C1060 1.443 . S
C1061 C1062 1.340 . S
C1061 H1101 0.951 . S
C1062 C1061 1.340 . S
C1062 C1063 1.439 . S
C1062 H1102 0.950 . S
C1063 C1062 1.439 . S
C1063 N1064 1.374 . S
C1063 C1097 1.395 . S
N1064 C1060 1.376 . S
N1064 C1063 1.374 . S
N1064 Co1065 2.008 . S
Co1065 N1064 2.008 . S
Co1065 N1066 1.995 . S
Co1065 N1071 2.008 . S
Co1065 N1076 1.995 . S
Co1065 N1081 2.282 . S
Co1065 N1087 2.282 . S
N1066 Co1065 1.995 . S
N1066 C1067 1.376 . S
N1066 C1070 1.383 . S
C1067 N1066 1.376 . S
C1067 C1068 1.446 . S
C1067 C1097 1.391 . S
C1068 C1067 1.446 . S
C1068 C1069 1.339 . S
C1068 H1103 0.949 . S
C1069 C1068 1.339 . S
C1069 C1070 1.439 . S
C1069 H1104 0.950 . S
C1070 N1066 1.383 . S
C1070 C1069 1.439 . S
C1070 C1099 1.392 . S
N1071 Co1065 2.008 . S
N1071 C1072 1.376 . S
N1071 C1075 1.374 . S
C1072 N1071 1.376 . S
C1072 C1073 1.443 . S
C1072 C1099 1.389 . S
C1073 C1072 1.443 . S
C1073 C1074 1.340 . S
C1073 H1105 0.951 . S
C1074 C1073 1.340 . S
C1074 C1075 1.439 . S
C1074 H1106 0.950 . S
C1075 N1071 1.374 . S
C1075 C1074 1.439 . S
C1075 C1100 1.395 . S
N1076 Co1065 1.995 . S
N1076 C1077 1.376 . S
N1076 C1080 1.383 . S
C1077 N1076 1.376 . S
C1077 C1078 1.446 . S
C1077 C1100 1.391 . S
C1078 C1077 1.446 . S
C1078 C1079 1.339 . S
C1078 H1107 0.949 . S
C1079 C1078 1.339 . S
C1079 C1080 1.439 . S
C1079 H1108 0.950 . S
C1080 N1076 1.383 . S
C1080 C1079 1.439 . S
C1080 C1098 1.392 . S
N1081 Co1065 2.282 . S
N1081 C1084 1.332 . S
N1081 C1086 1.332 . S
C1082 C1083 1.386 . S
C1082 C1085 1.388 . S
C1083 C1082 1.386 . S
C1083 C1084 1.382 . S
C1083 H1109 0.950 . S
C1084 N1081 1.332 . S
C1084 C1083 1.382 . S
C1084 H1095 0.952 . S
C1085 C1082 1.388 . S
C1085 C1086 1.382 . S
C1085 H1110 0.950 . S
C1086 N1081 1.332 . S
C1086 C1085 1.382 . S
C1086 H1096 0.948 . S
N1087 Co1065 2.282 . S
N1087 C1091 1.332 . S
N1087 C1092 1.332 . S
C1088 C1089 1.388 . S
C1088 C1092 1.382 . S
C1088 H1111 0.950 . S
C1089 C1088 1.388 . S
C1089 C1090 1.386 . S
C1090 C1089 1.386 . S
C1090 C1091 1.382 . S
C1090 H1112 0.950 . S
C1091 N1087 1.332 . S
C1091 C1090 1.382 . S
C1091 H1093 0.952 . S
C1092 N1087 1.332 . S
C1092 C1088 1.382 . S
C1092 H1094 0.948 . S
H1093 C1091 0.952 . S
H1094 C1092 0.948 . S
H1095 C1084 0.952 . S
H1096 C1086 0.948 . S
C1097 C1063 1.395 . S
C1097 C1067 1.391 . S
C1098 C1060 1.389 . S
C1098 C1080 1.392 . S
C1099 C1070 1.392 . S
C1099 C1072 1.389 . S
C1100 C1075 1.395 . S
C1100 C1077 1.391 . S
H1101 C1061 0.951 . S
H1102 C1062 0.950 . S
H1103 C1068 0.949 . S
H1104 C1069 0.950 . S
H1105 C1073 0.951 . S
H1106 C1074 0.950 . S
H1107 C1078 0.949 . S
H1108 C1079 0.950 . S
H1109 C1083 0.950 . S
H1110 C1085 0.950 . S
H1111 C1088 0.950 . S
H1112 C1090 0.950 . S
C1113 C1114 1.443 . S
C1113 N1117 1.376 . S
C1113 C1151 1.389 . S
C1114 C1113 1.443 . S
C1114 C1115 1.340 . S
C1114 H1154 0.951 . S
C1115 C1114 1.340 . S
C1115 C1116 1.439 . S
C1115 H1155 0.950 . S
C1116 C1115 1.439 . S
C1116 N1117 1.374 . S
C1116 C1150 1.395 . S
N1117 C1113 1.376 . S
N1117 C1116 1.374 . S
N1117 Co1118 2.008 . S
Co1118 N1117 2.008 . S
Co1118 N1119 1.995 . S
Co1118 N1124 2.008 . S
Co1118 N1129 1.995 . S
Co1118 N1134 2.282 . S
Co1118 N1140 2.282 . S
N1119 Co1118 1.995 . S
N1119 C1120 1.376 . S
N1119 C1123 1.383 . S
C1120 N1119 1.376 . S
C1120 C1121 1.446 . S
C1120 C1150 1.391 . S
C1121 C1120 1.446 . S
C1121 C1122 1.339 . S
C1121 H1156 0.949 . S
C1122 C1121 1.339 . S
C1122 C1123 1.439 . S
C1122 H1157 0.950 . S
C1123 N1119 1.383 . S
C1123 C1122 1.439 . S
C1123 C1152 1.392 . S
N1124 Co1118 2.008 . S
N1124 C1125 1.376 . S
N1124 C1128 1.374 . S
C1125 N1124 1.376 . S
C1125 C1126 1.443 . S
C1125 C1152 1.389 . S
C1126 C1125 1.443 . S
C1126 C1127 1.340 . S
C1126 H1158 0.951 . S
C1127 C1126 1.340 . S
C1127 C1128 1.439 . S
C1127 H1159 0.950 . S
C1128 N1124 1.374 . S
C1128 C1127 1.439 . S
C1128 C1153 1.395 . S
N1129 Co1118 1.995 . S
N1129 C1130 1.376 . S
N1129 C1133 1.383 . S
C1130 N1129 1.376 . S
C1130 C1131 1.446 . S
C1130 C1153 1.391 . S
C1131 C1130 1.446 . S
C1131 C1132 1.339 . S
C1131 H1160 0.949 . S
C1132 C1131 1.339 . S
C1132 C1133 1.439 . S
C1132 H1161 0.950 . S
C1133 N1129 1.383 . S
C1133 C1132 1.439 . S
C1133 C1151 1.392 . S
N1134 Co1118 2.282 . S
N1134 C1137 1.332 . S
N1134 C1139 1.332 . S
C1135 C1136 1.386 . S
C1135 C1138 1.388 . S
C1136 C1135 1.386 . S
C1136 C1137 1.382 . S
C1136 H1162 0.950 . S
C1137 N1134 1.332 . S
C1137 C1136 1.382 . S
C1137 H1148 0.952 . S
C1138 C1135 1.388 . S
C1138 C1139 1.382 . S
C1138 H1163 0.950 . S
C1139 N1134 1.332 . S
C1139 C1138 1.382 . S
C1139 H1149 0.948 . S
N1140 Co1118 2.282 . S
N1140 C1144 1.332 . S
N1140 C1145 1.332 . S
C1141 C1142 1.388 . S
C1141 C1145 1.382 . S
C1141 H1164 0.950 . S
C1142 C1141 1.388 . S
C1142 C1143 1.386 . S
C1143 C1142 1.386 . S
C1143 C1144 1.382 . S
C1143 H1165 0.950 . S
C1144 N1140 1.332 . S
C1144 C1143 1.382 . S
C1144 H1146 0.952 . S
C1145 N1140 1.332 . S
C1145 C1141 1.382 . S
C1145 H1147 0.948 . S
H1146 C1144 0.952 . S
H1147 C1145 0.948 . S
H1148 C1137 0.952 . S
H1149 C1139 0.948 . S
C1150 C1116 1.395 . S
C1150 C1120 1.391 . S
C1151 C1113 1.389 . S
C1151 C1133 1.392 . S
C1152 C1123 1.392 . S
C1152 C1125 1.389 . S
C1153 C1128 1.395 . S
C1153 C1130 1.391 . S
H1154 C1114 0.951 . S
H1155 C1115 0.950 . S
H1156 C1121 0.949 . S
H1157 C1122 0.950 . S
H1158 C1126 0.951 . S
H1159 C1127 0.950 . S
H1160 C1131 0.949 . S
H1161 C1132 0.950 . S
H1162 C1136 0.950 . S
H1163 C1138 0.950 . S
H1164 C1141 0.950 . S
H1165 C1143 0.950 . S
C1166 C1167 1.443 . S
C1166 N1170 1.376 . S
C1166 C1204 1.389 . S
C1167 C1166 1.443 . S
C1167 C1168 1.340 . S
C1167 H1207 0.951 . S
C1168 C1167 1.340 . S
C1168 C1169 1.439 . S
C1168 H1208 0.950 . S
C1169 C1168 1.439 . S
C1169 N1170 1.374 . S
C1169 C1203 1.395 . S
N1170 C1166 1.376 . S
N1170 C1169 1.374 . S
N1170 Co1171 2.008 . S
Co1171 N1170 2.008 . S
Co1171 N1172 1.995 . S
Co1171 N1177 2.008 . S
Co1171 N1182 1.995 . S
Co1171 N1187 2.282 . S
Co1171 N1193 2.282 . S
N1172 Co1171 1.995 . S
N1172 C1173 1.376 . S
N1172 C1176 1.383 . S
C1173 N1172 1.376 . S
C1173 C1174 1.446 . S
C1173 C1203 1.391 . S
C1174 C1173 1.446 . S
C1174 C1175 1.339 . S
C1174 H1209 0.949 . S
C1175 C1174 1.339 . S
C1175 C1176 1.439 . S
C1175 H1210 0.950 . S
C1176 N1172 1.383 . S
C1176 C1175 1.439 . S
C1176 C1205 1.392 . S
N1177 Co1171 2.008 . S
N1177 C1178 1.376 . S
N1177 C1181 1.374 . S
C1178 N1177 1.376 . S
C1178 C1179 1.443 . S
C1178 C1205 1.389 . S
C1179 C1178 1.443 . S
C1179 C1180 1.340 . S
C1179 H1211 0.951 . S
C1180 C1179 1.340 . S
C1180 C1181 1.439 . S
C1180 H1212 0.950 . S
C1181 N1177 1.374 . S
C1181 C1180 1.439 . S
C1181 C1206 1.395 . S
N1182 Co1171 1.995 . S
N1182 C1183 1.376 . S
N1182 C1186 1.383 . S
C1183 N1182 1.376 . S
C1183 C1184 1.446 . S
C1183 C1206 1.391 . S
C1184 C1183 1.446 . S
C1184 C1185 1.339 . S
C1184 H1213 0.949 . S
C1185 C1184 1.339 . S
C1185 C1186 1.439 . S
C1185 H1214 0.950 . S
C1186 N1182 1.383 . S
C1186 C1185 1.439 . S
C1186 C1204 1.392 . S
N1187 Co1171 2.282 . S
N1187 C1190 1.332 . S
N1187 C1192 1.332 . S
C1188 C1189 1.386 . S
C1188 C1191 1.388 . S
C1189 C1188 1.386 . S
C1189 C1190 1.382 . S
C1189 H1215 0.950 . S
C1190 N1187 1.332 . S
C1190 C1189 1.382 . S
C1190 H1201 0.952 . S
C1191 C1188 1.388 . S
C1191 C1192 1.382 . S
C1191 H1216 0.950 . S
C1192 N1187 1.332 . S
C1192 C1191 1.382 . S
C1192 H1202 0.948 . S
N1193 Co1171 2.282 . S
N1193 C1197 1.332 . S
N1193 C1198 1.332 . S
C1194 C1195 1.388 . S
C1194 C1198 1.382 . S
C1194 H1217 0.950 . S
C1195 C1194 1.388 . S
C1195 C1196 1.386 . S
C1196 C1195 1.386 . S
C1196 C1197 1.382 . S
C1196 H1218 0.950 . S
C1197 N1193 1.332 . S
C1197 C1196 1.382 . S
C1197 H1199 0.952 . S
C1198 N1193 1.332 . S
C1198 C1194 1.382 . S
C1198 H1200 0.948 . S
H1199 C1197 0.952 . S
H1200 C1198 0.948 . S
H1201 C1190 0.952 . S
H1202 C1192 0.948 . S
C1203 C1169 1.395 . S
C1203 C1173 1.391 . S
C1204 C1166 1.389 . S
C1204 C1186 1.392 . S
C1205 C1176 1.392 . S
C1205 C1178 1.389 . S
C1206 C1181 1.395 . S
C1206 C1183 1.391 . S
H1207 C1167 0.951 . S
H1208 C1168 0.950 . S
H1209 C1174 0.949 . S
H1210 C1175 0.950 . S
H1211 C1179 0.951 . S
H1212 C1180 0.950 . S
H1213 C1184 0.949 . S
H1214 C1185 0.950 . S
H1215 C1189 0.950 . S
H1216 C1191 0.950 . S
H1217 C1194 0.950 . S
H1218 C1196 0.950 . S
C1219 C1220 1.443 . S
C1219 N1223 1.376 . S
C1219 C1257 1.389 . S
C1220 C1219 1.443 . S
C1220 C1221 1.340 . S
C1220 H1260 0.951 . S
C1221 C1220 1.340 . S
C1221 C1222 1.439 . S
C1221 H1261 0.950 . S
C1222 C1221 1.439 . S
C1222 N1223 1.374 . S
C1222 C1256 1.395 . S
N1223 C1219 1.376 . S
N1223 C1222 1.374 . S
N1223 Co1224 2.008 . S
Co1224 N1223 2.008 . S
Co1224 N1225 1.995 . S
Co1224 N1230 2.008 . S
Co1224 N1235 1.995 . S
Co1224 N1240 2.282 . S
Co1224 N1246 2.282 . S
N1225 Co1224 1.995 . S
N1225 C1226 1.376 . S
N1225 C1229 1.383 . S
C1226 N1225 1.376 . S
C1226 C1227 1.446 . S
C1226 C1256 1.391 . S
C1227 C1226 1.446 . S
C1227 C1228 1.339 . S
C1227 H1262 0.949 . S
C1228 C1227 1.339 . S
C1228 C1229 1.439 . S
C1228 H1263 0.950 . S
C1229 N1225 1.383 . S
C1229 C1228 1.439 . S
C1229 C1258 1.392 . S
N1230 Co1224 2.008 . S
N1230 C1231 1.376 . S
N1230 C1234 1.374 . S
C1231 N1230 1.376 . S
C1231 C1232 1.443 . S
C1231 C1258 1.389 . S
C1232 C1231 1.443 . S
C1232 C1233 1.340 . S
C1232 H1264 0.951 . S
C1233 C1232 1.340 . S
C1233 C1234 1.439 . S
C1233 H1265 0.950 . S
C1234 N1230 1.374 . S
C1234 C1233 1.439 . S
C1234 C1259 1.395 . S
N1235 Co1224 1.995 . S
N1235 C1236 1.376 . S
N1235 C1239 1.383 . S
C1236 N1235 1.376 . S
C1236 C1237 1.446 . S
C1236 C1259 1.391 . S
C1237 C1236 1.446 . S
C1237 C1238 1.339 . S
C1237 H1266 0.949 . S
C1238 C1237 1.339 . S
C1238 C1239 1.439 . S
C1238 H1267 0.950 . S
C1239 N1235 1.383 . S
C1239 C1238 1.439 . S
C1239 C1257 1.392 . S
N1240 Co1224 2.282 . S
N1240 C1243 1.332 . S
N1240 C1245 1.332 . S
C1241 C1242 1.386 . S
C1241 C1244 1.388 . S
C1242 C1241 1.386 . S
C1242 C1243 1.382 . S
C1242 H1268 0.950 . S
C1243 N1240 1.332 . S
C1243 C1242 1.382 . S
C1243 H1254 0.952 . S
C1244 C1241 1.388 . S
C1244 C1245 1.382 . S
C1244 H1269 0.950 . S
C1245 N1240 1.332 . S
C1245 C1244 1.382 . S
C1245 H1255 0.948 . S
N1246 Co1224 2.282 . S
N1246 C1250 1.332 . S
N1246 C1251 1.332 . S
C1247 C1248 1.388 . S
C1247 C1251 1.382 . S
C1247 H1270 0.950 . S
C1248 C1247 1.388 . S
C1248 C1249 1.386 . S
C1249 C1248 1.386 . S
C1249 C1250 1.382 . S
C1249 H1271 0.950 . S
C1250 N1246 1.332 . S
C1250 C1249 1.382 . S
C1250 H1252 0.952 . S
C1251 N1246 1.332 . S
C1251 C1247 1.382 . S
C1251 H1253 0.948 . S
H1252 C1250 0.952 . S
H1253 C1251 0.948 . S
H1254 C1243 0.952 . S
H1255 C1245 0.948 . S
C1256 C1222 1.395 . S
C1256 C1226 1.391 . S
C1257 C1219 1.389 . S
C1257 C1239 1.392 . S
C1258 C1229 1.392 . S
C1258 C1231 1.389 . S
C1259 C1234 1.395 . S
C1259 C1236 1.391 . S
H1260 C1220 0.951 . S
H1261 C1221 0.950 . S
H1262 C1227 0.949 . S
H1263 C1228 0.950 . S
H1264 C1232 0.951 . S
H1265 C1233 0.950 . S
H1266 C1237 0.949 . S
H1267 C1238 0.950 . S
H1268 C1242 0.950 . S
H1269 C1244 0.950 . S
H1270 C1247 0.950 . S
H1271 C1249 0.950 . S
C1272 C1273 1.387 . S
C1272 H1276 0.950 . S
C1272 C1281 1.390 . S
C1273 C1272 1.387 . S
C1273 C1275 1.387 . S
H1274 C1281 0.950 . S
C1275 C1273 1.387 . S
C1275 C1277 1.390 . S
C1275 H1279 0.950 . S
H1276 C1272 0.950 . S
C1277 C1275 1.390 . S
C1277 C1278 1.387 . S
C1277 H1280 0.950 . S
C1278 C1277 1.387 . S
C1278 C1281 1.387 . S
H1279 C1275 0.950 . S
H1280 C1277 0.950 . S
C1281 C1272 1.390 . S
C1281 H1274 0.950 . S
C1281 C1278 1.387 . S
C1282 C1283 1.387 . S
C1282 H1286 0.950 . S
C1282 C1291 1.390 . S
C1283 C1282 1.387 . S
C1283 C1285 1.387 . S
H1284 C1291 0.950 . S
C1285 C1283 1.387 . S
C1285 C1287 1.390 . S
C1285 H1289 0.950 . S
H1286 C1282 0.950 . S
C1287 C1285 1.390 . S
C1287 C1288 1.387 . S
C1287 H1290 0.950 . S
C1288 C1287 1.387 . S
C1288 C1291 1.387 . S
H1289 C1285 0.950 . S
H1290 C1287 0.950 . S
C1291 C1282 1.390 . S
C1291 H1284 0.950 . S
C1291 C1288 1.387 . S
C1292 C1293 1.387 . S
C1292 H1296 0.950 . S
C1292 C1301 1.390 . S
C1293 C1292 1.387 . S
C1293 C1295 1.387 . S
H1294 C1301 0.950 . S
C1295 C1293 1.387 . S
C1295 C1297 1.390 . S
C1295 H1299 0.950 . S
H1296 C1292 0.950 . S
C1297 C1295 1.390 . S
C1297 C1298 1.387 . S
C1297 H1300 0.950 . S
C1298 C1297 1.387 . S
C1298 C1301 1.387 . S
H1299 C1295 0.950 . S
H1300 C1297 0.950 . S
C1301 C1292 1.390 . S
C1301 H1294 0.950 . S
C1301 C1298 1.387 . S
C1302 C1303 1.387 . S
C1302 H1306 0.950 . S
C1302 C1311 1.390 . S
C1303 C1302 1.387 . S
C1303 C1305 1.387 . S
H1304 C1311 0.950 . S
C1305 C1303 1.387 . S
C1305 C1307 1.390 . S
C1305 H1309 0.950 . S
H1306 C1302 0.950 . S
C1307 C1305 1.390 . S
C1307 C1308 1.387 . S
C1307 H1310 0.950 . S
C1308 C1307 1.387 . S
C1308 C1311 1.387 . S
H1309 C1305 0.950 . S
H1310 C1307 0.950 . S
C1311 C1302 1.390 . S
C1311 H1304 0.950 . S
C1311 C1308 1.387 . S
C1312 C1313 1.387 . S
C1312 H1316 0.950 . S
C1312 C1321 1.390 . S
C1313 C1312 1.387 . S
C1313 C1315 1.387 . S
H1314 C1321 0.950 . S
C1315 C1313 1.387 . S
C1315 C1317 1.390 . S
C1315 H1319 0.950 . S
H1316 C1312 0.950 . S
C1317 C1315 1.390 . S
C1317 C1318 1.387 . S
C1317 H1320 0.950 . S
C1318 C1317 1.387 . S
C1318 C1321 1.387 . S
H1319 C1315 0.950 . S
H1320 C1317 0.950 . S
C1321 C1312 1.390 . S
C1321 H1314 0.950 . S
C1321 C1318 1.387 . S
C1322 C1323 1.387 . S
C1322 H1326 0.950 . S
C1322 C1331 1.390 . S
C1323 C1322 1.387 . S
C1323 C1325 1.387 . S
H1324 C1331 0.950 . S
C1325 C1323 1.387 . S
C1325 C1327 1.390 . S
C1325 H1329 0.950 . S
H1326 C1322 0.950 . S
C1327 C1325 1.390 . S
C1327 C1328 1.387 . S
C1327 H1330 0.950 . S
C1328 C1327 1.387 . S
C1328 C1331 1.387 . S
H1329 C1325 0.950 . S
H1330 C1327 0.950 . S
C1331 C1322 1.390 . S
C1331 H1324 0.950 . S
C1331 C1328 1.387 . S
C1332 C1333 1.387 . S
C1332 H1336 0.950 . S
C1332 C1341 1.390 . S
C1333 C1332 1.387 . S
C1333 C1335 1.387 . S
H1334 C1341 0.950 . S
C1335 C1333 1.387 . S
C1335 C1337 1.390 . S
C1335 H1339 0.950 . S
H1336 C1332 0.950 . S
C1337 C1335 1.390 . S
C1337 C1338 1.387 . S
C1337 H1340 0.950 . S
C1338 C1337 1.387 . S
C1338 C1341 1.387 . S
H1339 C1335 0.950 . S
H1340 C1337 0.950 . S
C1341 C1332 1.390 . S
C1341 H1334 0.950 . S
C1341 C1338 1.387 . S
C1342 C1343 1.387 . S
C1342 H1346 0.950 . S
C1342 C1351 1.390 . S
C1343 C1342 1.387 . S
C1343 C1345 1.387 . S
H1344 C1351 0.950 . S
C1345 C1343 1.387 . S
C1345 C1347 1.390 . S
C1345 H1349 0.950 . S
H1346 C1342 0.950 . S
C1347 C1345 1.390 . S
C1347 C1348 1.387 . S
C1347 H1350 0.950 . S
C1348 C1347 1.387 . S
C1348 C1351 1.387 . S
H1349 C1345 0.950 . S
H1350 C1347 0.950 . S
C1351 C1342 1.390 . S
C1351 H1344 0.950 . S
C1351 C1348 1.387 . S
C1352 C1353 1.387 . S
C1352 H1356 0.950 . S
C1352 C1361 1.390 . S
C1353 C1352 1.387 . S
C1353 C1355 1.387 . S
H1354 C1361 0.950 . S
C1355 C1353 1.387 . S
C1355 C1357 1.390 . S
C1355 H1359 0.950 . S
H1356 C1352 0.950 . S
C1357 C1355 1.390 . S
C1357 C1358 1.387 . S
C1357 H1360 0.950 . S
C1358 C1357 1.387 . S
C1358 C1361 1.387 . S
H1359 C1355 0.950 . S
H1360 C1357 0.950 . S
C1361 C1352 1.390 . S
C1361 H1354 0.950 . S
C1361 C1358 1.387 . S
C1362 C1363 1.387 . S
C1362 H1366 0.950 . S
C1362 C1371 1.390 . S
C1363 C1362 1.387 . S
C1363 C1365 1.387 . S
H1364 C1371 0.950 . S
C1365 C1363 1.387 . S
C1365 C1367 1.390 . S
C1365 H1369 0.950 . S
H1366 C1362 0.950 . S
C1367 C1365 1.390 . S
C1367 C1368 1.387 . S
C1367 H1370 0.950 . S
C1368 C1367 1.387 . S
C1368 C1371 1.387 . S
H1369 C1365 0.950 . S
H1370 C1367 0.950 . S
C1371 C1362 1.390 . S
C1371 H1364 0.950 . S
C1371 C1368 1.387 . S
C1372 C1373 1.387 . S
C1372 H1376 0.950 . S
C1372 C1381 1.390 . S
C1373 C1372 1.387 . S
C1373 C1375 1.387 . S
H1374 C1381 0.950 . S
C1375 C1373 1.387 . S
C1375 C1377 1.390 . S
C1375 H1379 0.950 . S
H1376 C1372 0.950 . S
C1377 C1375 1.390 . S
C1377 C1378 1.387 . S
C1377 H1380 0.950 . S
C1378 C1377 1.387 . S
C1378 C1381 1.387 . S
H1379 C1375 0.950 . S
H1380 C1377 0.950 . S
C1381 C1372 1.390 . S
C1381 H1374 0.950 . S
C1381 C1378 1.387 . S
C1382 C1383 1.387 . S
C1382 H1386 0.950 . S
C1382 C1391 1.390 . S
C1383 C1382 1.387 . S
C1383 C1385 1.387 . S
H1384 C1391 0.950 . S
C1385 C1383 1.387 . S
C1385 C1387 1.390 . S
C1385 H1389 0.950 . S
H1386 C1382 0.950 . S
C1387 C1385 1.390 . S
C1387 C1388 1.387 . S
C1387 H1390 0.950 . S
C1388 C1387 1.387 . S
C1388 C1391 1.387 . S
H1389 C1385 0.950 . S
H1390 C1387 0.950 . S
C1391 C1382 1.390 . S
C1391 H1384 0.950 . S
C1391 C1388 1.387 . S
C1392 C1393 1.387 . S
C1392 H1396 0.950 . S
C1392 C1401 1.390 . S
C1393 C1392 1.387 . S
C1393 C1395 1.387 . S
H1394 C1401 0.950 . S
C1395 C1393 1.387 . S
C1395 C1397 1.390 . S
C1395 H1399 0.950 . S
H1396 C1392 0.950 . S
C1397 C1395 1.390 . S
C1397 C1398 1.387 . S
C1397 H1400 0.950 . S
C1398 C1397 1.387 . S
C1398 C1401 1.387 . S
H1399 C1395 0.950 . S
H1400 C1397 0.950 . S
C1401 C1392 1.390 . S
C1401 H1394 0.950 . S
C1401 C1398 1.387 . S
C1402 C1403 1.387 . S
C1402 H1406 0.950 . S
C1402 C1411 1.390 . S
C1403 C1402 1.387 . S
C1403 C1405 1.387 . S
H1404 C1411 0.950 . S
C1405 C1403 1.387 . S
C1405 C1407 1.390 . S
C1405 H1409 0.950 . S
H1406 C1402 0.950 . S
C1407 C1405 1.390 . S
C1407 C1408 1.387 . S
C1407 H1410 0.950 . S
C1408 C1407 1.387 . S
C1408 C1411 1.387 . S
H1409 C1405 0.950 . S
H1410 C1407 0.950 . S
C1411 C1402 1.390 . S
C1411 H1404 0.950 . S
C1411 C1408 1.387 . S
C1412 C1413 1.387 . S
C1412 H1416 0.950 . S
C1412 C1421 1.390 . S
C1413 C1412 1.387 . S
C1413 C1415 1.387 . S
H1414 C1421 0.950 . S
C1415 C1413 1.387 . S
C1415 C1417 1.390 . S
C1415 H1419 0.950 . S
H1416 C1412 0.950 . S
C1417 C1415 1.390 . S
C1417 C1418 1.387 . S
C1417 H1420 0.950 . S
C1418 C1417 1.387 . S
C1418 C1421 1.387 . S
H1419 C1415 0.950 . S
H1420 C1417 0.950 . S
C1421 C1412 1.390 . S
C1421 H1414 0.950 . S
C1421 C1418 1.387 . S
C1422 C1423 1.387 . S
C1422 H1426 0.950 . S
C1422 C1431 1.390 . S
C1423 C1422 1.387 . S
C1423 C1425 1.387 . S
H1424 C1431 0.950 . S
C1425 C1423 1.387 . S
C1425 C1427 1.390 . S
C1425 H1429 0.950 . S
H1426 C1422 0.950 . S
C1427 C1425 1.390 . S
C1427 C1428 1.387 . S
C1427 H1430 0.950 . S
C1428 C1427 1.387 . S
C1428 C1431 1.387 . S
H1429 C1425 0.950 . S
H1430 C1427 0.950 . S
C1431 C1422 1.390 . S
C1431 H1424 0.950 . S
C1431 C1428 1.387 . S
C1432 C1433 1.387 . S
C1432 H1436 0.950 . S
C1432 C1441 1.390 . S
C1433 C1432 1.387 . S
C1433 C1435 1.387 . S
H1434 C1441 0.950 . S
C1435 C1433 1.387 . S
C1435 C1437 1.390 . S
C1435 H1439 0.950 . S
H1436 C1432 0.950 . S
C1437 C1435 1.390 . S
C1437 C1438 1.387 . S
C1437 H1440 0.950 . S
C1438 C1437 1.387 . S
C1438 C1441 1.387 . S
H1439 C1435 0.950 . S
H1440 C1437 0.950 . S
C1441 C1432 1.390 . S
C1441 H1434 0.950 . S
C1441 C1438 1.387 . S
C1442 C1443 1.387 . S
C1442 H1446 0.950 . S
C1442 C1451 1.390 . S
C1443 C1442 1.387 . S
C1443 C1445 1.387 . S
H1444 C1451 0.950 . S
C1445 C1443 1.387 . S
C1445 C1447 1.390 . S
C1445 H1449 0.950 . S
H1446 C1442 0.950 . S
C1447 C1445 1.390 . S
C1447 C1448 1.387 . S
C1447 H1450 0.950 . S
C1448 C1447 1.387 . S
C1448 C1451 1.387 . S
H1449 C1445 0.950 . S
H1450 C1447 0.950 . S
C1451 C1442 1.390 . S
C1451 H1444 0.950 . S
C1451 C1448 1.387 . S
C1452 C1453 1.387 . S
C1452 H1456 0.950 . S
C1452 C1461 1.390 . S
C1453 C1452 1.387 . S
C1453 C1455 1.387 . S
H1454 C1461 0.950 . S
C1455 C1453 1.387 . S
C1455 C1457 1.390 . S
C1455 H1459 0.950 . S
H1456 C1452 0.950 . S
C1457 C1455 1.390 . S
C1457 C1458 1.387 . S
C1457 H1460 0.950 . S
C1458 C1457 1.387 . S
C1458 C1461 1.387 . S
H1459 C1455 0.950 . S
H1460 C1457 0.950 . S
C1461 C1452 1.390 . S
C1461 H1454 0.950 . S
C1461 C1458 1.387 . S
C1462 C1463 1.387 . S
C1462 H1466 0.950 . S
C1462 C1471 1.390 . S
C1463 C1462 1.387 . S
C1463 C1465 1.387 . S
H1464 C1471 0.950 . S
C1465 C1463 1.387 . S
C1465 C1467 1.390 . S
C1465 H1469 0.950 . S
H1466 C1462 0.950 . S
C1467 C1465 1.390 . S
C1467 C1468 1.387 . S
C1467 H1470 0.950 . S
C1468 C1467 1.387 . S
C1468 C1471 1.387 . S
H1469 C1465 0.950 . S
H1470 C1467 0.950 . S
C1471 C1462 1.390 . S
C1471 H1464 0.950 . S
C1471 C1468 1.387 . S
C1472 C1473 1.387 . S
C1472 H1476 0.950 . S
C1472 C1481 1.390 . S
C1473 C1472 1.387 . S
C1473 C1475 1.387 . S
H1474 C1481 0.950 . S
C1475 C1473 1.387 . S
C1475 C1477 1.390 . S
C1475 H1479 0.950 . S
H1476 C1472 0.950 . S
C1477 C1475 1.390 . S
C1477 C1478 1.387 . S
C1477 H1480 0.950 . S
C1478 C1477 1.387 . S
C1478 C1481 1.387 . S
H1479 C1475 0.950 . S
H1480 C1477 0.950 . S
C1481 C1472 1.390 . S
C1481 H1474 0.950 . S
C1481 C1478 1.387 . S
C1482 C1483 1.387 . S
C1482 H1486 0.950 . S
C1482 C1491 1.390 . S
C1483 C1482 1.387 . S
C1483 C1485 1.387 . S
H1484 C1491 0.950 . S
C1485 C1483 1.387 . S
C1485 C1487 1.390 . S
C1485 H1489 0.950 . S
H1486 C1482 0.950 . S
C1487 C1485 1.390 . S
C1487 C1488 1.387 . S
C1487 H1490 0.950 . S
C1488 C1487 1.387 . S
C1488 C1491 1.387 . S
H1489 C1485 0.950 . S
H1490 C1487 0.950 . S
C1491 C1482 1.390 . S
C1491 H1484 0.950 . S
C1491 C1488 1.387 . S
C1492 C1493 1.387 . S
C1492 H1496 0.950 . S
C1492 C1501 1.390 . S
C1493 C1492 1.387 . S
C1493 C1495 1.387 . S
H1494 C1501 0.950 . S
C1495 C1493 1.387 . S
C1495 C1497 1.390 . S
C1495 H1499 0.950 . S
H1496 C1492 0.950 . S
C1497 C1495 1.390 . S
C1497 C1498 1.387 . S
C1497 H1500 0.950 . S
C1498 C1497 1.387 . S
C1498 C1501 1.387 . S
H1499 C1495 0.950 . S
H1500 C1497 0.950 . S
C1501 C1492 1.390 . S
C1501 H1494 0.950 . S
C1501 C1498 1.387 . S
C1502 C1503 1.387 . S
C1502 H1506 0.950 . S
C1502 C1511 1.390 . S
C1503 C1502 1.387 . S
C1503 C1505 1.387 . S
H1504 C1511 0.950 . S
C1505 C1503 1.387 . S
C1505 C1507 1.390 . S
C1505 H1509 0.950 . S
H1506 C1502 0.950 . S
C1507 C1505 1.390 . S
C1507 C1508 1.387 . S
C1507 H1510 0.950 . S
C1508 C1507 1.387 . S
C1508 C1511 1.387 . S
H1509 C1505 0.950 . S
H1510 C1507 0.950 . S
C1511 C1502 1.390 . S
C1511 H1504 0.950 . S
C1511 C1508 1.387 . S
C1512 C1513 1.387 . S
C1512 H1516 0.950 . S
C1512 C1521 1.390 . S
C1513 C1512 1.387 . S
C1513 C1515 1.387 . S
H1514 C1521 0.950 . S
C1515 C1513 1.387 . S
C1515 C1517 1.390 . S
C1515 H1519 0.950 . S
H1516 C1512 0.950 . S
C1517 C1515 1.390 . S
C1517 C1518 1.387 . S
C1517 H1520 0.950 . S
C1518 C1517 1.387 . S
C1518 C1521 1.387 . S
H1519 C1515 0.950 . S
H1520 C1517 0.950 . S
C1521 C1512 1.390 . S
C1521 H1514 0.950 . S
C1521 C1518 1.387 . S
C1522 C1523 1.387 . S
C1522 H1526 0.950 . S
C1522 C1531 1.390 . S
C1523 C1522 1.387 . S
C1523 C1525 1.387 . S
H1524 C1531 0.950 . S
C1525 C1523 1.387 . S
C1525 C1527 1.390 . S
C1525 H1529 0.950 . S
H1526 C1522 0.950 . S
C1527 C1525 1.390 . S
C1527 C1528 1.387 . S
C1527 H1530 0.950 . S
C1528 C1527 1.387 . S
C1528 C1531 1.387 . S
H1529 C1525 0.950 . S
H1530 C1527 0.950 . S
C1531 C1522 1.390 . S
C1531 H1524 0.950 . S
C1531 C1528 1.387 . S
C1532 C1533 1.387 . S
C1532 H1536 0.950 . S
C1532 C1541 1.390 . S
C1533 C1532 1.387 . S
C1533 C1535 1.387 . S
H1534 C1541 0.950 . S
C1535 C1533 1.387 . S
C1535 C1537 1.390 . S
C1535 H1539 0.950 . S
H1536 C1532 0.950 . S
C1537 C1535 1.390 . S
C1537 C1538 1.387 . S
C1537 H1540 0.950 . S
C1538 C1537 1.387 . S
C1538 C1541 1.387 . S
H1539 C1535 0.950 . S
H1540 C1537 0.950 . S
C1541 C1532 1.390 . S
C1541 H1534 0.950 . S
C1541 C1538 1.387 . S
C1542 C1543 1.387 . S
C1542 H1546 0.950 . S
C1542 C1551 1.390 . S
C1543 C1542 1.387 . S
C1543 C1545 1.387 . S
H1544 C1551 0.950 . S
C1545 C1543 1.387 . S
C1545 C1547 1.390 . S
C1545 H1549 0.950 . S
H1546 C1542 0.950 . S
C1547 C1545 1.390 . S
C1547 C1548 1.387 . S
C1547 H1550 0.950 . S
C1548 C1547 1.387 . S
C1548 C1551 1.387 . S
H1549 C1545 0.950 . S
H1550 C1547 0.950 . S
C1551 C1542 1.390 . S
C1551 H1544 0.950 . S
C1551 C1548 1.387 . S
C1552 C1553 1.387 . S
C1552 H1556 0.950 . S
C1552 C1561 1.390 . S
C1553 C1552 1.387 . S
C1553 C1555 1.387 . S
H1554 C1561 0.950 . S
C1555 C1553 1.387 . S
C1555 C1557 1.390 . S
C1555 H1559 0.950 . S
H1556 C1552 0.950 . S
C1557 C1555 1.390 . S
C1557 C1558 1.387 . S
C1557 H1560 0.950 . S
C1558 C1557 1.387 . S
C1558 C1561 1.387 . S
H1559 C1555 0.950 . S
H1560 C1557 0.950 . S
C1561 C1552 1.390 . S
C1561 H1554 0.950 . S
C1561 C1558 1.387 . S
C1562 C1563 1.387 . S
C1562 H1566 0.950 . S
C1562 C1571 1.390 . S
C1563 C1562 1.387 . S
C1563 C1565 1.387 . S
H1564 C1571 0.950 . S
C1565 C1563 1.387 . S
C1565 C1567 1.390 . S
C1565 H1569 0.950 . S
H1566 C1562 0.950 . S
C1567 C1565 1.390 . S
C1567 C1568 1.387 . S
C1567 H1570 0.950 . S
C1568 C1567 1.387 . S
C1568 C1571 1.387 . S
H1569 C1565 0.950 . S
H1570 C1567 0.950 . S
C1571 C1562 1.390 . S
C1571 H1564 0.950 . S
C1571 C1568 1.387 . S
C1572 C1573 1.387 . S
C1572 H1576 0.950 . S
C1572 C1581 1.390 . S
C1573 C1572 1.387 . S
C1573 C1575 1.387 . S
H1574 C1581 0.950 . S
C1575 C1573 1.387 . S
C1575 C1577 1.390 . S
C1575 H1579 0.950 . S
H1576 C1572 0.950 . S
C1577 C1575 1.390 . S
C1577 C1578 1.387 . S
C1577 H1580 0.950 . S
C1578 C1577 1.387 . S
C1578 C1581 1.387 . S
H1579 C1575 0.950 . S
H1580 C1577 0.950 . S
C1581 C1572 1.390 . S
C1581 H1574 0.950 . S
C1581 C1578 1.387 . S
C1582 C1583 1.387 . S
C1582 H1586 0.950 . S
C1582 C1591 1.390 . S
C1583 C1582 1.387 . S
C1583 C1585 1.387 . S
H1584 C1591 0.950 . S
C1585 C1583 1.387 . S
C1585 C1587 1.390 . S
C1585 H1589 0.950 . S
H1586 C1582 0.950 . S
C1587 C1585 1.390 . S
C1587 C1588 1.387 . S
C1587 H1590 0.950 . S
C1588 C1587 1.387 . S
C1588 C1591 1.387 . S
H1589 C1585 0.950 . S
H1590 C1587 0.950 . S
C1591 C1582 1.390 . S
C1591 H1584 0.950 . S
C1591 C1588 1.387 . S
C1592 C1593 1.387 . S
C1592 H1596 0.950 . S
C1592 C1601 1.390 . S
C1593 C1592 1.387 . S
C1593 C1595 1.387 . S
H1594 C1601 0.950 . S
C1595 C1593 1.387 . S
C1595 C1597 1.390 . S
C1595 H1599 0.950 1_556 S
H1596 C1592 0.950 . S
C1597 C1595 1.390 . S
C1597 C1598 1.387 . S
C1597 H1600 0.950 . S
C1598 C1597 1.387 . S
C1598 C1601 1.387 . S
H1599 C1595 0.950 1_554 S
H1600 C1597 0.950 . S
C1601 C1592 1.390 . S
C1601 H1594 0.950 . S
C1601 C1598 1.387 . S
C1602 C1603 1.387 . S
C1602 H1606 0.950 . S
C1602 C1611 1.390 . S
C1603 C1602 1.387 . S
C1603 C1605 1.387 . S
H1604 C1611 0.950 . S
C1605 C1603 1.387 . S
C1605 C1607 1.390 . S
C1605 H1609 0.950 . S
H1606 C1602 0.950 . S
C1607 C1605 1.390 . S
C1607 C1608 1.387 . S
C1607 H1610 0.950 . S
C1608 C1607 1.387 . S
C1608 C1611 1.387 . S
H1609 C1605 0.950 . S
H1610 C1607 0.950 . S
C1611 C1602 1.390 . S
C1611 H1604 0.950 . S
C1611 C1608 1.387 . S
C1612 C1613 1.387 . S
C1612 H1616 0.950 . S
C1612 C1621 1.390 . S
C1613 C1612 1.387 . S
C1613 C1615 1.387 . S
H1614 C1621 0.950 . S
C1615 C1613 1.387 . S
C1615 C1617 1.390 . S
C1615 H1619 0.950 . S
H1616 C1612 0.950 . S
C1617 C1615 1.390 . S
C1617 C1618 1.387 . S
C1617 H1620 0.950 . S
C1618 C1617 1.387 . S
C1618 C1621 1.387 . S
H1619 C1615 0.950 . S
H1620 C1617 0.950 . S
C1621 C1612 1.390 . S
C1621 H1614 0.950 . S
C1621 C1618 1.387 . S
C1622 C1623 1.387 . S
C1622 H1626 0.950 . S
C1622 C1631 1.390 . S
C1623 C1622 1.387 . S
C1623 C1625 1.387 . S
H1624 C1631 0.950 . S
C1625 C1623 1.387 . S
C1625 C1627 1.390 . S
C1625 H1629 0.950 . S
H1626 C1622 0.950 . S
C1627 C1625 1.390 . S
C1627 C1628 1.387 . S
C1627 H1630 0.950 . S
C1628 C1627 1.387 . S
C1628 C1631 1.387 . S
H1629 C1625 0.950 . S
H1630 C1627 0.950 . S
C1631 C1622 1.390 . S
C1631 H1624 0.950 . S
C1631 C1628 1.387 . S
C1632 C1633 1.387 . S
C1632 H1636 0.950 . S
C1632 C1641 1.390 . S
C1633 C1632 1.387 . S
C1633 C1635 1.387 . S
H1634 C1641 0.950 . S
C1635 C1633 1.387 . S
C1635 C1637 1.390 . S
C1635 H1639 0.950 . S
H1636 C1632 0.950 . S
C1637 C1635 1.390 . S
C1637 C1638 1.387 . S
C1637 H1640 0.950 . S
C1638 C1637 1.387 . S
C1638 C1641 1.387 . S
H1639 C1635 0.950 . S
H1640 C1637 0.950 . S
C1641 C1632 1.390 . S
C1641 H1634 0.950 . S
C1641 C1638 1.387 . S
C1642 C1643 1.387 . S
C1642 H1646 0.950 . S
C1642 C1651 1.390 . S
C1643 C1642 1.387 . S
C1643 C1645 1.387 . S
H1644 C1651 0.950 . S
C1645 C1643 1.387 . S
C1645 C1647 1.390 . S
C1645 H1649 0.950 . S
H1646 C1642 0.950 . S
C1647 C1645 1.390 . S
C1647 C1648 1.387 . S
C1647 H1650 0.950 . S
C1648 C1647 1.387 . S
C1648 C1651 1.387 . S
H1649 C1645 0.950 . S
H1650 C1647 0.950 . S
C1651 C1642 1.390 . S
C1651 H1644 0.950 . S
C1651 C1648 1.387 . S
C1652 C1653 1.387 . S
C1652 H1656 0.950 . S
C1652 C1661 1.390 . S
C1653 C1652 1.387 . S
C1653 C1655 1.387 . S
H1654 C1661 0.950 . S
C1655 C1653 1.387 . S
C1655 C1657 1.390 . S
C1655 H1659 0.950 . S
H1656 C1652 0.950 . S
C1657 C1655 1.390 . S
C1657 C1658 1.387 . S
C1657 H1660 0.950 . S
C1658 C1657 1.387 . S
C1658 C1661 1.387 . S
H1659 C1655 0.950 . S
H1660 C1657 0.950 . S
C1661 C1652 1.390 . S
C1661 H1654 0.950 . S
C1661 C1658 1.387 . S
C1662 C1663 1.387 . S
C1662 H1666 0.950 . S
C1662 C1671 1.390 . S
C1663 C1662 1.387 . S
C1663 C1665 1.387 . S
H1664 C1671 0.950 . S
C1665 C1663 1.387 . S
C1665 C1667 1.390 . S
C1665 H1669 0.950 . S
H1666 C1662 0.950 . S
C1667 C1665 1.390 . S
C1667 C1668 1.387 . S
C1667 H1670 0.950 . S
C1668 C1667 1.387 . S
C1668 C1671 1.387 . S
H1669 C1665 0.950 . S
H1670 C1667 0.950 . S
C1671 C1662 1.390 . S
C1671 H1664 0.950 . S
C1671 C1668 1.387 . S
C1672 C1673 1.387 . S
C1672 H1676 0.950 . S
C1672 C1681 1.390 . S
C1673 C1672 1.387 . S
C1673 C1675 1.387 . S
H1674 C1681 0.950 . S
C1675 C1673 1.387 . S
C1675 C1677 1.390 . S
C1675 H1679 0.950 . S
H1676 C1672 0.950 . S
C1677 C1675 1.390 . S
C1677 C1678 1.387 . S
C1677 H1680 0.950 . S
C1678 C1677 1.387 . S
C1678 C1681 1.387 . S
H1679 C1675 0.950 . S
H1680 C1677 0.950 . S
C1681 C1672 1.390 . S
C1681 H1674 0.950 . S
C1681 C1678 1.387 . S
C1682 C1683 1.387 . S
C1682 H1686 0.950 . S
C1682 C1691 1.390 . S
C1683 C1682 1.387 . S
C1683 C1685 1.387 . S
H1684 C1691 0.950 . S
C1685 C1683 1.387 . S
C1685 C1687 1.390 . S
C1685 H1689 0.950 . S
H1686 C1682 0.950 . S
C1687 C1685 1.390 . S
C1687 C1688 1.387 . S
C1687 H1690 0.950 . S
C1688 C1687 1.387 . S
C1688 C1691 1.387 . S
H1689 C1685 0.950 . S
H1690 C1687 0.950 . S
C1691 C1682 1.390 . S
C1691 H1684 0.950 . S
C1691 C1688 1.387 . S
C1692 C1693 1.387 . S
C1692 H1696 0.950 . S
C1692 C1701 1.390 . S
C1693 C1692 1.387 . S
C1693 C1695 1.387 . S
H1694 C1701 0.950 . S
C1695 C1693 1.387 . S
C1695 C1697 1.390 . S
C1695 H1699 0.950 . S
H1696 C1692 0.950 . S
C1697 C1695 1.390 . S
C1697 C1698 1.387 . S
C1697 H1700 0.950 . S
C1698 C1697 1.387 . S
C1698 C1701 1.387 . S
H1699 C1695 0.950 . S
H1700 C1697 0.950 . S
C1701 C1692 1.390 . S
C1701 H1694 0.950 . S
C1701 C1698 1.387 . S
C1702 C1703 1.387 . S
C1702 H1706 0.950 . S
C1702 C1711 1.390 . S
C1703 C1702 1.387 . S
C1703 C1705 1.387 . S
H1704 C1711 0.950 . S
C1705 C1703 1.387 . S
C1705 C1707 1.390 . S
C1705 H1709 0.950 . S
H1706 C1702 0.950 . S
C1707 C1705 1.390 . S
C1707 C1708 1.387 . S
C1707 H1710 0.950 . S
C1708 C1707 1.387 . S
C1708 C1711 1.387 . S
H1709 C1705 0.950 . S
H1710 C1707 0.950 . S
C1711 C1702 1.390 . S
C1711 H1704 0.950 . S
C1711 C1708 1.387 . S
C1712 C1713 1.387 . S
C1712 H1716 0.950 . S
C1712 C1721 1.390 . S
C1713 C1712 1.387 . S
C1713 C1715 1.387 . S
H1714 C1721 0.950 . S
C1715 C1713 1.387 . S
C1715 C1717 1.390 . S
C1715 H1719 0.950 . S
H1716 C1712 0.950 . S
C1717 C1715 1.390 . S
C1717 C1718 1.387 . S
C1717 H1720 0.950 . S
C1718 C1717 1.387 . S
C1718 C1721 1.387 . S
H1719 C1715 0.950 . S
H1720 C1717 0.950 . S
C1721 C1712 1.390 . S
C1721 H1714 0.950 . S
C1721 C1718 1.387 . S
C1722 C1723 1.387 . S
C1722 H1726 0.950 . S
C1722 C1731 1.390 . S
C1723 C1722 1.387 . S
C1723 C1725 1.387 . S
H1724 C1731 0.950 . S
C1725 C1723 1.387 . S
C1725 C1727 1.390 . S
C1725 H1729 0.950 . S
H1726 C1722 0.950 . S
C1727 C1725 1.390 . S
C1727 C1728 1.387 . S
C1727 H1730 0.950 . S
C1728 C1727 1.387 . S
C1728 C1731 1.387 . S
H1729 C1725 0.950 . S
H1730 C1727 0.950 . S
C1731 C1722 1.390 . S
C1731 H1724 0.950 . S
C1731 C1728 1.387 . S
C1732 C1733 1.387 . S
C1732 H1736 0.950 . S
C1732 C1741 1.390 . S
C1733 C1732 1.387 . S
C1733 C1735 1.387 . S
H1734 C1741 0.950 . S
C1735 C1733 1.387 . S
C1735 C1737 1.390 . S
C1735 H1739 0.950 . S
H1736 C1732 0.950 . S
C1737 C1735 1.390 . S
C1737 C1738 1.387 . S
C1737 H1740 0.950 . S
C1738 C1737 1.387 . S
C1738 C1741 1.387 . S
H1739 C1735 0.950 . S
H1740 C1737 0.950 . S
C1741 C1732 1.390 . S
C1741 H1734 0.950 . S
C1741 C1738 1.387 . S
C1742 C1743 1.387 . S
C1742 H1746 0.950 . S
C1742 C1751 1.390 . S
C1743 C1742 1.387 . S
C1743 C1745 1.387 . S
H1744 C1751 0.950 . S
C1745 C1743 1.387 . S
C1745 C1747 1.390 . S
C1745 H1749 0.950 . S
H1746 C1742 0.950 . S
C1747 C1745 1.390 . S
C1747 C1748 1.387 . S
C1747 H1750 0.950 . S
C1748 C1747 1.387 . S
C1748 C1751 1.387 . S
H1749 C1745 0.950 . S
H1750 C1747 0.950 . S
C1751 C1742 1.390 . S
C1751 H1744 0.950 . S
C1751 C1748 1.387 . S
C1273 C1205 1.902 . S
C1278 C39 1.903 . S
C1283 C92 1.473 . S
C1288 C1241 1.472 . S
C1293 C1098 1.593 . S
C1298 C128 1.597 . S
C1303 C1142 1.355 . S
C1308 C188 1.357 . S
C1313 C1135 1.298 . S
C1318 C234 1.298 . S
C1323 C304 1.855 . S
C1328 C1204 1.858 . S
C1333 C1248 1.477 . S
C1338 C356 1.482 . S
C1343 C393 1.715 . S
C1348 C1099 1.714 . S
C1353 C462 1.718 . S
C1358 C1029 1.718 . S
C1363 C886 1.513 . S
C1368 C499 1.515 . S
C1373 C552 1.670 . S
C1378 C939 1.669 . S
C1383 C992 1.601 . S
C1388 C622 1.603 . S
C1393 C621 1.572 . S
C1398 C727 1.573 . S
C1403 C463 1.718 . S
C1408 C781 1.718 . S
C1413 C824 1.335 . S
C1418 C506 1.334 . S
C1423 C559 1.685 . S
C1428 C665 1.684 . S
C1433 C91 1.623 . S
C1438 C993 1.618 . S
C1443 C780 1.692 . S
C1448 C400 1.691 . S
C1453 C241 1.222 . S
C1458 C817 1.225 . S
C1463 C658 1.835 . S
C1468 C303 1.834 . S
C1473 C357 1.583 . S
C1478 C728 1.582 . S
C1483 C181 1.380 . S
C1488 C887 1.380 . S
C1493 C38 1.877 . S
C1498 C940 1.880 . S
C1503 C135 1.521 . S
C1508 C1036 1.519 . S
C1513 C347 1.287 . S
C1518 C1089 1.287 . S
C1523 C1151 1.520 . S
C1528 C410 1.519 . S
C1533 C1188 1.422 . S
C1538 C251 1.422 . S
C1543 C1258 1.722 . S
C1548 C287 1.721 . S
C1553 C145 1.854 . S
C1558 C1257 1.857 . S
C1563 C197 1.228 . S
C1568 C1082 1.224 . S
C1573 C22 1.535 . S
C1578 C1152 1.538 . S
C1583 C1195 1.363 . S
C1588 C75 1.362 . S
C1593 C569 1.484 . S
C1598 C718 1.483 . S
C1603 C605 1.583 . S
C1608 C764 1.584 . S
C1613 C453 1.179 . S
C1618 C833 1.179 . S
C1623 C516 1.525 . S
C1628 C674 1.531 . S
C1633 C515 1.573 . S
C1638 C1046 1.568 . S
C1643 C877 1.256 . S
C1648 C568 1.256 . S
C1653 C612 1.573 . S
C1658 C930 1.576 . S
C1663 C446 1.252 . S
C1668 C983 1.255 . S
C1673 C675 1.597 . S
C1678 C409 1.599 . S
C1683 C870 1.257 . S
C1688 C82 1.256 . S
C1693 C144 1.673 . S
C1698 C923 1.670 . S
C1703 C976 1.272 . S
C1708 C198 1.269 . S
C1713 C1045 1.602 . S
C1718 C29 1.599 . S
C1723 C294 1.498 . S
C1728 C771 1.497 . S
C1733 C834 1.311 . S
C1738 C340 1.307 . S
C1743 C711 1.431 . S
C1748 C250 1.432 . S
