# Generated by pormake.
# Topology wme, (6)-cn, num edge types: 1
# Building blocks:
#     Node 0, Type 0, BuildingBlock: FUNLAD_clean_sbu_0, # of connection points: 6
#     Node 1, Type 0, BuildingBlock: FUNLAD_clean_sbu_0, # of connection points: 6
#     Node 2, Type 0, BuildingBlock: FUNLAD_clean_sbu_0, # of connection points: 6
#     Node 3, Type 0, BuildingBlock: FUNLAD_clean_sbu_0, # of connection points: 6
#     Node 4, Type 0, BuildingBlock: FUNLAD_clean_sbu_0, # of connection points: 6
#     Node 5, Type 0, BuildingBlock: FUNLAD_clean_sbu_0, # of connection points: 6
#     Node 6, Type 0, BuildingBlock: FUNLAD_clean_sbu_0, # of connection points: 6
#     Node 7, Type 0, BuildingBlock: FUNLAD_clean_sbu_0, # of connection points: 6
#     Node 8, Type 0, BuildingBlock: FUNLAD_clean_sbu_0, # of connection points: 6
#     Node 9, Type 0, BuildingBlock: FUNLAD_clean_sbu_0, # of connection points: 6
#     Node 10, Type 0, BuildingBlock: FUNLAD_clean_sbu_0, # of connection points: 6
#     Node 11, Type 0, BuildingBlock: FUNLAD_clean_sbu_0, # of connection points: 6
#     Edge 12, Type (0, 0), BuildingBlock: EZIPEK_clean_linker_0, # of connection points: 2
#     Edge 13, Type (0, 0), BuildingBlock: EZIPEK_clean_linker_0, # of connection points: 2
#     Edge 14, Type (0, 0), BuildingBlock: EZIPEK_clean_linker_0, # of connection points: 2
#     Edge 15, Type (0, 0), BuildingBlock: EZIPEK_clean_linker_0, # of connection points: 2
#     Edge 16, Type (0, 0), BuildingBlock: EZIPEK_clean_linker_0, # of connection points: 2
#     Edge 17, Type (0, 0), BuildingBlock: EZIPEK_clean_linker_0, # of connection points: 2
#     Edge 18, Type (0, 0), BuildingBlock: EZIPEK_clean_linker_0, # of connection points: 2
#     Edge 19, Type (0, 0), BuildingBlock: EZIPEK_clean_linker_0, # of connection points: 2
#     Edge 20, Type (0, 0), BuildingBlock: EZIPEK_clean_linker_0, # of connection points: 2
#     Edge 21, Type (0, 0), BuildingBlock: EZIPEK_clean_linker_0, # of connection points: 2
#     Edge 22, Type (0, 0), BuildingBlock: EZIPEK_clean_linker_0, # of connection points: 2
#     Edge 23, Type (0, 0), BuildingBlock: EZIPEK_clean_linker_0, # of connection points: 2
#     Edge 24, Type (0, 0), BuildingBlock: EZIPEK_clean_linker_0, # of connection points: 2
#     Edge 25, Type (0, 0), BuildingBlock: EZIPEK_clean_linker_0, # of connection points: 2
#     Edge 26, Type (0, 0), BuildingBlock: EZIPEK_clean_linker_0, # of connection points: 2
#     Edge 27, Type (0, 0), BuildingBlock: EZIPEK_clean_linker_0, # of connection points: 2
#     Edge 28, Type (0, 0), BuildingBlock: EZIPEK_clean_linker_0, # of connection points: 2
#     Edge 29, Type (0, 0), BuildingBlock: EZIPEK_clean_linker_0, # of connection points: 2
#     Edge 30, Type (0, 0), BuildingBlock: EZIPEK_clean_linker_0, # of connection points: 2
#     Edge 31, Type (0, 0), BuildingBlock: EZIPEK_clean_linker_0, # of connection points: 2
#     Edge 32, Type (0, 0), BuildingBlock: EZIPEK_clean_linker_0, # of connection points: 2
#     Edge 33, Type (0, 0), BuildingBlock: EZIPEK_clean_linker_0, # of connection points: 2
#     Edge 34, Type (0, 0), BuildingBlock: EZIPEK_clean_linker_0, # of connection points: 2
#     Edge 35, Type (0, 0), BuildingBlock: EZIPEK_clean_linker_0, # of connection points: 2
#     Edge 36, Type (0, 0), BuildingBlock: EZIPEK_clean_linker_0, # of connection points: 2
#     Edge 37, Type (0, 0), BuildingBlock: EZIPEK_clean_linker_0, # of connection points: 2
#     Edge 38, Type (0, 0), BuildingBlock: EZIPEK_clean_linker_0, # of connection points: 2
#     Edge 39, Type (0, 0), BuildingBlock: EZIPEK_clean_linker_0, # of connection points: 2
#     Edge 40, Type (0, 0), BuildingBlock: EZIPEK_clean_linker_0, # of connection points: 2
#     Edge 41, Type (0, 0), BuildingBlock: EZIPEK_clean_linker_0, # of connection points: 2
#     Edge 42, Type (0, 0), BuildingBlock: EZIPEK_clean_linker_0, # of connection points: 2
#     Edge 43, Type (0, 0), BuildingBlock: EZIPEK_clean_linker_0, # of connection points: 2
#     Edge 44, Type (0, 0), BuildingBlock: EZIPEK_clean_linker_0, # of connection points: 2
#     Edge 45, Type (0, 0), BuildingBlock: EZIPEK_clean_linker_0, # of connection points: 2
#     Edge 46, Type (0, 0), BuildingBlock: EZIPEK_clean_linker_0, # of connection points: 2
#     Edge 47, Type (0, 0), BuildingBlock: EZIPEK_clean_linker_0, # of connection points: 2
# Relax obj value: 0.121
# Max RMSD: 0.201
# Mean RMSD: 0.201
data_MOF--net-wme--node1-FUNLAD_clean_sbu_0--edge1-EZIPEK_clean_linker_0
_symmetry_space_group_name_H-M    P1
_symmetry_Int_Tables_number       1
_symmetry_cell_setting            triclinic
loop_
_symmetry_equiv_pos_as_xyz
'x, y, z'
_cell_length_a     20.873735
_cell_length_b     20.926116
_cell_length_c     68.806354
_cell_angle_alpha  90.357133
_cell_angle_beta   89.539641
_cell_angle_gamma 119.76681
loop_
_atom_site_label
_atom_site_type_symbol
_atom_site_fract_x
_atom_site_fract_y
_atom_site_fract_z
_atom_type_partial_charge
C0 C 0.2191 0.19081 0.15939 0.0
N1 N 0.18642 0.25998 0.10584 0.0
C2 C 0.23988 0.24285 0.10137 0.0
C3 C 0.24921 0.22527 0.08242 0.0
C4 C 0.20445 0.22698 0.06767 0.0
C5 C 0.14927 0.24437 0.07246 0.0
C6 C 0.14084 0.26042 0.09185 0.0
Zn7 Zn 0.18341 0.28726 0.13458 0.0
C8 C 0.04213 0.19738 0.15345 0.0
N9 N 0.18753 0.3328 0.19561 0.0
C10 C 0.24795 0.35309 0.20692 0.0
C11 C 0.12442 0.32676 0.20333 0.0
C12 C 0.11935 0.33845 0.22316 0.0
C13 C 0.1802 0.35799 0.2352 0.0
C14 C 0.2457 0.36673 0.22683 0.0
Zn15 Zn 0.18821 0.30728 0.1665 0.0
O16 O 0.2024 0.20228 0.14262 0.0
C17 C 0.32699 0.40477 0.1463 0.0
O18 O 0.22515 0.23347 0.1733 0.0
H19 H 0.07723 0.31166 0.19417 0.0
H20 H 0.27681 0.24415 0.11246 0.0
H21 H 0.29765 0.35771 0.20058 0.0
O22 O 0.29404 0.36022 0.13265 0.0
O23 O 0.29597 0.39481 0.16285 0.0
H24 H 0.09889 0.27438 0.09564 0.0
O25 O 0.14896 0.37702 0.15918 0.0
O26 O 0.16025 0.37237 0.12743 0.0
O27 O 0.07937 0.22244 0.16887 0.0
O28 O 0.07242 0.21575 0.13682 0.0
C29 C 0.14274 0.3972 0.14227 0.0
H30 H 0.29263 0.21267 0.07918 0.0
H31 H 0.1141 0.24657 0.06131 0.0
H32 H 0.06806 0.33149 0.2291 0.0
H33 H 0.29382 0.38201 0.2357 0.0
C34 C 0.00047 0.24346 0.65517 0.0
N35 N 0.88937 0.17458 0.60244 0.0
C36 C 0.94002 0.15264 0.59906 0.0
C37 C 0.96849 0.15655 0.58037 0.0
C38 C 0.94386 0.18242 0.56506 0.0
C39 C 0.8883 0.2002 0.56862 0.0
C40 C 0.86157 0.1958 0.58756 0.0
Zn41 Zn 0.86606 0.18844 0.63079 0.0
C42 C 0.81732 0.05757 0.65446 0.0
N43 N 0.82804 0.22341 0.69045 0.0
C44 C 0.8842 0.27335 0.70174 0.0
C45 C 0.76171 0.1746 0.69847 0.0
C46 C 0.75118 0.17219 0.71856 0.0
C47 C 0.81017 0.21883 0.73058 0.0
C48 C 0.87672 0.27136 0.72198 0.0
Zn49 Zn 0.84738 0.21023 0.66163 0.0
O50 O -0.02275 0.22702 0.63786 0.0
C51 C 0.88737 0.33884 0.63726 0.0
O52 O 0.95711 0.24231 0.66827 0.0
H53 H 0.7179 0.13461 0.68947 0.0
H54 H 0.96105 0.13527 0.61101 0.0
H55 H 0.93633 0.31232 0.69518 0.0
O56 O 0.88894 0.29601 0.62437 0.0
O57 O 0.87506 0.31816 0.65491 0.0
H58 H 0.82097 0.21234 0.5905 0.0
O59 O 0.73814 0.1758 0.65467 0.0
O60 O 0.75276 0.1469 0.62477 0.0
O61 O 0.81637 0.10041 0.66745 0.0
O62 O 0.84054 0.08132 0.63745 0.0
C63 C 0.71113 0.14784 0.63826 0.0
H64 H 0.01132 0.14238 0.57803 0.0
H65 H 0.86826 0.22036 0.55703 0.0
H66 H 0.69905 0.13106 0.72476 0.0
H67 H 0.92329 0.30831 0.73085 0.0
C68 C 0.73608 -0.00719 0.14866 0.0
N69 N 0.63159 0.86661 0.10065 0.0
C70 C 0.63371 0.92801 0.09334 0.0
C71 C 0.6421 0.94224 0.07344 0.0
C72 C 0.64769 0.89261 0.06077 0.0
C73 C 0.64408 0.82887 0.0685 0.0
C74 C 0.63638 0.81705 0.08865 0.0
Zn75 Zn 0.62447 0.85615 0.13055 0.0
C76 C 0.72064 0.80656 0.14776 0.0
N77 N 0.61216 0.84574 0.19278 0.0
C78 C 0.61878 0.90323 0.2037 0.0
C79 C 0.60233 0.7829 0.20132 0.0
C80 C 0.59935 0.77624 0.22151 0.0
C81 C 0.60687 0.83488 0.23302 0.0
C82 C 0.61641 0.89897 0.22401 0.0
Zn83 Zn 0.61855 0.85272 0.16295 0.0
O84 O 0.70431 0.96598 0.13271 0.0
C85 C 0.51717 0.89636 0.14678 0.0
O86 O 0.70911 0.95834 0.16441 0.0
H87 H 0.59747 0.73792 0.19249 0.0
H88 H 0.62966 0.96679 0.103 0.0
H89 H 0.62656 0.95267 0.19665 0.0
O90 O 0.54045 0.88356 0.13092 0.0
O91 O 0.54519 0.89175 0.16261 0.0
H92 H 0.63473 0.76868 0.09471 0.0
O93 O 0.53156 0.74432 0.16069 0.0
O94 O 0.54694 0.74587 0.12889 0.0
O95 O 0.69 0.81312 0.16298 0.0
O96 O 0.70689 0.82434 0.13129 0.0
C97 C 0.51701 0.71111 0.14443 0.0
H98 H 0.64437 -0.00824 0.06795 0.0
H99 H 0.64793 0.78928 0.05906 0.0
H100 H 0.59224 0.72623 0.2281 0.0
H101 H 0.62257 0.94522 0.2326 0.0
C102 C 0.72878 0.76151 0.65908 0.0
N103 N 0.76074 0.69305 0.60432 0.0
C104 C 0.69996 0.69353 0.59765 0.0
C105 C 0.69156 0.70051 0.57781 0.0
C106 C 0.74438 0.70375 0.56422 0.0
C107 C 0.81122 0.71382 0.57215 0.0
C108 C 0.81715 0.70572 0.5921 0.0
Zn109 Zn 0.76541 0.67067 0.63303 0.0
C110 C 0.90927 0.7596 0.6504 0.0
N111 N 0.76969 0.62274 0.69299 0.0
C112 C 0.71953 0.62211 0.70587 0.0
C113 C 0.8268 0.61385 0.699 0.0
C114 C 0.83657 0.60632 0.7187 0.0
C115 C 0.7873 0.6084 0.73224 0.0
C116 C 0.72753 0.61518 0.72574 0.0
Zn117 Zn 0.7652 0.64532 0.66437 0.0
O118 O 0.73369 0.74705 0.64133 0.0
C119 C 0.62031 0.55427 0.64732 0.0
O120 O 0.74086 0.72681 0.67219 0.0
H121 H 0.86634 0.61499 0.68857 0.0
H122 H 0.65714 0.68729 0.60771 0.0
H123 H 0.67464 0.62931 0.70078 0.0
O124 O 0.6547 0.58708 0.63197 0.0
O125 O 0.65512 0.57012 0.66326 0.0
H126 H 0.86688 0.70904 0.59778 0.0
O127 O 0.79158 0.56462 0.65631 0.0
O128 O 0.80008 0.59472 0.62544 0.0
O129 O 0.87523 0.72083 0.665 0.0
O130 O 0.87591 0.753 0.63455 0.0
C131 C 0.80687 0.55715 0.63886 0.0
H132 H 0.64312 0.70259 0.57332 0.0
H133 H 0.85997 0.72873 0.56366 0.0
H134 H 0.88344 0.60156 0.7234 0.0
H135 H 0.68888 0.61722 0.73598 0.0
C136 C 0.92631 0.70961 0.15631 0.0
N137 N 0.04042 0.73803 0.10419 0.0
C138 C -0.02731 0.6831 0.09867 0.0
C139 C 0.94991 0.67717 0.07947 0.0
C140 C -0.00181 0.72652 0.06558 0.0
C141 C 0.06852 0.78189 0.07144 0.0
C142 C 0.08837 0.78723 0.09103 0.0
Zn143 Zn 0.06378 0.74283 0.13319 0.0
C144 C 0.11425 0.88796 0.15137 0.0
N145 N 0.0927 0.7422 0.19414 0.0
C146 C 0.04083 0.69134 0.20627 0.0
C147 C 0.15817 0.79701 0.20104 0.0
C148 C 0.17274 0.8033 0.22089 0.0
C149 C 0.11924 0.753 0.23366 0.0
C150 C 0.053 0.69591 0.22628 0.0
Zn151 Zn 0.07187 0.73986 0.16519 0.0
O152 O 0.95446 0.71718 0.13949 0.0
C153 C 0.03223 0.59672 0.14831 0.0
O154 O 0.96482 0.71517 0.17098 0.0
H155 H 0.19856 0.83706 0.19119 0.0
H156 H 0.93587 0.64355 0.10919 0.0
H157 H -0.01064 0.64813 0.20047 0.0
O158 O 0.03551 0.62953 0.13252 0.0
O159 O 0.04021 0.63069 0.16414 0.0
H160 H 0.14192 0.83046 0.09573 0.0
O161 O 0.17953 0.76629 0.15897 0.0
O162 O 0.17285 0.77071 0.12747 0.0
O163 O 0.1059 0.84989 0.16635 0.0
O164 O 0.09786 0.85752 0.13467 0.0
C165 C 0.21029 0.77635 0.14242 0.0
H166 H 0.89551 0.63352 0.07541 0.0
H167 H 0.10725 0.82055 0.06099 0.0
H168 H 0.22416 0.84818 0.2263 0.0
H169 H 0.01069 0.65659 0.23592 0.0
C170 C 0.20599 0.97499 0.65458 0.0
N171 N 0.28101 0.09365 0.60264 0.0
C172 C 0.26386 0.02614 0.59553 0.0
C173 C 0.25184 0.01082 0.57574 0.0
C174 C 0.25875 0.06578 0.56299 0.0
C175 C 0.27587 0.13492 0.57056 0.0
C176 C 0.28644 0.14766 0.59062 0.0
Zn177 Zn 0.304 0.11083 0.63188 0.0
C178 C 0.22091 0.16599 0.65304 0.0
N179 N 0.34938 0.13202 0.69327 0.0
C180 C 0.33516 0.07435 0.70509 0.0
C181 C 0.36654 0.19887 0.70094 0.0
C182 C 0.36732 0.2089 0.72105 0.0
C183 C 0.34816 0.14913 0.73348 0.0
C184 C 0.33345 0.08153 0.72532 0.0
Zn185 Zn 0.32869 0.11617 0.66366 0.0
O186 O 0.21849 0.00421 0.63785 0.0
C187 C 0.41433 0.06441 0.64179 0.0
O188 O 0.24602 0.01098 0.66871 0.0
H189 H 0.37607 0.24383 0.69149 0.0
H190 H 0.26125 -0.01569 0.60515 0.0
H191 H 0.32156 0.02158 0.69886 0.0
O192 O 0.37857 0.07306 0.62828 0.0
O193 O 0.40421 0.07848 0.65923 0.0
H194 H 0.30052 0.20107 0.59651 0.0
O195 O 0.4105 0.22025 0.65804 0.0
O196 O 0.38977 0.21884 0.627 0.0
O197 O 0.25399 0.15594 0.6671 0.0
O198 O 0.23062 0.15037 0.6358 0.0
C199 C 0.42794 0.25255 0.64177 0.0
H200 H 0.23934 0.95714 0.57033 0.0
H201 H 0.28211 0.17867 0.56102 0.0
H202 H 0.37902 0.26186 0.72684 0.0
H203 H 0.31858 0.03425 0.73449 0.0
C204 C 0.75633 0.75463 0.39369 0.0
N205 N 0.67315 0.78056 0.44648 0.0
C206 C 0.68405 0.72387 0.45151 0.0
C207 C 0.697 0.71374 0.4707 0.0
C208 C 0.6993 0.76255 0.485 0.0
C209 C 0.68938 0.82166 0.47963 0.0
C210 C 0.67607 0.82963 0.46007 0.0
Zn211 Zn 0.65182 0.78483 0.41753 0.0
C212 C 0.74306 0.93204 0.40088 0.0
N213 N 0.62244 0.78632 0.3561 0.0
C214 C 0.62967 0.73946 0.3436 0.0
C215 C 0.60549 0.83728 0.34939 0.0
C216 C 0.5986 0.84483 0.32948 0.0
C217 C 0.60896 0.79932 0.31637 0.0
C218 C 0.62356 0.74537 0.32355 0.0
Zn219 Zn 0.64156 0.7829 0.38544 0.0
O220 O 0.7419 0.77037 0.41043 0.0
C221 C 0.54767 0.63724 0.4028 0.0
O222 O 0.71818 0.75251 0.37933 0.0
H223 H 0.5982 0.873 0.3594 0.0
H224 H 0.682 0.68558 0.44061 0.0
H225 H 0.64147 0.69816 0.3491 0.0
O226 O 0.58274 0.67292 0.41764 0.0
O227 O 0.55875 0.67113 0.38675 0.0
H228 H 0.66761 0.87452 0.45578 0.0
O229 O 0.56589 0.8144 0.39232 0.0
O230 O 0.56263 0.80053 0.42406 0.0
O231 O 0.72498 0.8961 0.38497 0.0
O232 O 0.71828 0.89788 0.41679 0.0
C233 C 0.54059 0.8177 0.40888 0.0
H234 H 0.70455 0.66766 0.47442 0.0
H235 H 0.69101 0.86029 0.49043 0.0
H236 H 0.58685 0.88673 0.32433 0.0
H237 H 0.63138 0.70915 0.31372 0.0
C238 C 0.00353 0.73873 0.89785 0.0
N239 N 0.86798 0.66123 0.94605 0.0
C240 C 0.92503 0.654 0.95292 0.0
C241 C 0.94424 0.66632 0.97243 0.0
C242 C 0.90303 0.68404 0.98525 0.0
C243 C 0.84286 0.6891 0.97807 0.0
C244 C 0.82661 0.67813 0.95818 0.0
Zn245 Zn 0.85377 0.6501 0.91655 0.0
C246 C 0.82825 0.7572 0.8978 0.0
N247 N 0.84579 0.62689 0.85505 0.0
C248 C 0.89844 0.62245 0.84426 0.0
C249 C 0.78621 0.62491 0.84653 0.0
C250 C 0.77784 0.61845 0.82643 0.0
C251 C 0.83172 0.61481 0.81503 0.0
C252 C 0.89261 0.61669 0.82403 0.0
Zn253 Zn 0.85565 0.63851 0.88454 0.0
O254 O 0.96685 0.71557 0.91346 0.0
C255 C 0.86673 0.52188 0.90261 0.0
O256 O 0.96964 0.71541 0.88186 0.0
H257 H 0.74552 0.62936 0.85528 0.0
H258 H 0.9567 0.63954 0.94317 0.0
H259 H 0.94534 0.62415 0.85134 0.0
O260 O 0.85956 0.55333 0.91759 0.0
O261 O 0.87614 0.55147 0.88606 0.0
H262 H 0.78151 0.68361 0.95242 0.0
O263 O 0.74006 0.56409 0.88805 0.0
O264 O 0.74132 0.58688 0.91932 0.0
O265 O 0.83254 0.72251 0.88319 0.0
O266 O 0.84162 0.74336 0.91477 0.0
C267 C 0.70588 0.55458 0.90411 0.0
H268 H -0.00936 0.66148 0.97752 0.0
H269 H 0.80961 0.70215 0.98768 0.0
H270 H 0.73063 0.61778 0.81979 0.0
H271 H 0.93522 0.61438 0.81548 0.0
C272 C 0.23378 0.02583 0.38816 0.0
N273 N 0.20987 0.93373 0.4433 0.0
C274 C 0.26883 -0.00034 0.44839 0.0
C275 C 0.277 0.02522 0.4675 0.0
C276 C 0.22449 -0.01787 0.48157 0.0
C277 C 0.1641 0.91445 0.47602 0.0
C278 C 0.15765 0.89124 0.45666 0.0
Zn279 Zn 0.20099 0.90101 0.41475 0.0
C280 C 0.05534 0.84653 0.39853 0.0
N281 N 0.18983 0.84358 0.35491 0.0
C282 C 0.23938 0.89132 0.34179 0.0
C283 C 0.13285 0.77722 0.34926 0.0
C284 C 0.1228 0.75758 0.32966 0.0
C285 C 0.17164 0.80699 0.31588 0.0
C286 C 0.23109 0.87406 0.32202 0.0
Zn287 Zn 0.19731 0.87396 0.38336 0.0
O288 O 0.23256 0.00828 0.40586 0.0
C289 C 0.34263 0.92287 0.39897 0.0
O290 O 0.21988 0.97808 0.37509 0.0
H291 H 0.09389 0.74026 0.35989 0.0
H292 H 0.30984 0.03258 0.4376 0.0
H293 H 0.28427 0.94368 0.3466 0.0
O294 O 0.31137 0.92411 0.41478 0.0
O295 O 0.30636 0.90722 0.38336 0.0
H296 H 0.11105 0.83924 0.4523 0.0
O297 O 0.17223 0.76817 0.39184 0.0
O298 O 0.16609 0.79171 0.42282 0.0
O299 O 0.08803 0.84028 0.38371 0.0
O300 O 0.09025 0.87486 0.41414 0.0
C301 C 0.1583 0.74664 0.40935 0.0
H302 H 0.32434 0.07761 0.47136 0.0
H303 H 0.12275 0.87989 0.48659 0.0
H304 H 0.07613 0.70562 0.32522 0.0
H305 H 0.26935 0.91325 0.31159 0.0
C306 C 0.19097 0.22341 0.9045 0.0
N307 N 0.29884 0.18432 0.94854 0.0
C308 C 0.29319 0.24159 0.95617 0.0
C309 C 0.27878 0.24393 0.97582 0.0
C310 C 0.27074 0.18729 0.98802 0.0
C311 C 0.27872 0.12945 0.98013 0.0
C312 C 0.29236 0.12876 0.96012 0.0
Zn313 Zn 0.30615 0.18525 0.9186 0.0
C314 C 0.20183 0.04228 0.9013 0.0
N315 N 0.30027 0.19466 0.85655 0.0
C316 C 0.2394 0.14944 0.84592 0.0
C317 C 0.36728 0.23535 0.84774 0.0
C318 C 0.37509 0.23088 0.82766 0.0
C319 C 0.31388 0.1825 0.81652 0.0
C320 C 0.24517 0.1419 0.82584 0.0
Zn321 Zn 0.29549 0.19343 0.88668 0.0
O322 O 0.21862 0.20565 0.91828 0.0
C323 C 0.40542 0.33571 0.90461 0.0
O324 O 0.21546 0.2263 0.88736 0.0
H325 H 0.41554 0.26979 0.85634 0.0
H326 H 0.29689 0.28469 0.94688 0.0
H327 H 0.18656 0.11736 0.85305 0.0
O328 O 0.38038 0.29587 0.91954 0.0
O329 O 0.38167 0.30616 0.88807 0.0
H330 H 0.29613 0.08327 0.95381 0.0
O331 O 0.37184 0.15616 0.88684 0.0
O332 O 0.39218 0.16248 0.91835 0.0
O333 O 0.21146 0.08143 0.88634 0.0
O334 O 0.23438 0.07301 0.91698 0.0
C335 C 0.40352 0.14642 0.90129 0.0
H336 H 0.27306 0.28935 0.98144 0.0
H337 H 0.27317 0.08501 0.98927 0.0
H338 H 0.42893 0.26307 0.82095 0.0
H339 H 0.1967 0.10409 0.81768 0.0
C340 C 0.95398 0.23491 0.40216 0.0
N341 N 0.09394 0.30044 0.44882 0.0
C342 C 0.04043 0.30766 0.45838 0.0
C343 C 0.0238 0.28687 0.47775 0.0
C344 C 0.06197 0.25767 0.48745 0.0
C345 C 0.11759 0.25126 0.47755 0.0
C346 C 0.13301 0.27343 0.45806 0.0
Zn347 Zn 0.10345 0.32267 0.41945 0.0
C348 C 0.13758 0.2282 0.39595 0.0
N349 N 0.10598 0.36335 0.3581 0.0
C350 C 0.06448 0.30405 0.34651 0.0
C351 C 0.15761 0.42868 0.35023 0.0
C352 C 0.17159 0.43483 0.33016 0.0
C353 C 0.13101 0.37363 0.31806 0.0
C354 C 0.07547 0.30833 0.3264 0.0
Zn355 Zn 0.10005 0.34587 0.38788 0.0
O356 O -0.00732 0.25206 0.41736 0.0
C357 C 0.07551 0.44752 0.41153 0.0
O358 O -0.01465 0.26573 0.38629 0.0
H359 H 0.1905 0.47523 0.35957 0.0
H360 H 0.0086 0.32752 0.45083 0.0
H361 H 0.02517 0.25192 0.35288 0.0
O362 O 0.08592 0.4113 0.42456 0.0
O363 O 0.07525 0.42987 0.39376 0.0
H364 H 0.17485 0.26745 0.45022 0.0
O365 O 0.21323 0.42265 0.39065 0.0
O366 O 0.21516 0.39217 0.42114 0.0
O367 O 0.12925 0.2651 0.38266 0.0
O368 O 0.1246 0.23665 0.41356 0.0
C369 C 0.24877 0.42857 0.4061 0.0
H370 H -0.01964 0.29211 0.48501 0.0
H371 H 0.1479 0.22869 0.48475 0.0
H372 H 0.21509 0.48603 0.32422 0.0
H373 H 0.0434 0.25992 0.31751 0.0
C374 C 0.72247 0.95075 0.88682 0.0
N375 N 0.71443 0.03434 0.94172 0.0
C376 C 0.66019 0.9642 0.94559 0.0
C377 C 0.64796 0.93689 0.96457 0.0
C378 C 0.69131 -0.01753 0.97976 0.0
C379 C 0.74657 0.05464 0.97545 0.0
C380 C 0.7575 0.07951 0.95622 0.0
Zn381 Zn 0.7324 0.07042 0.91328 0.0
C382 C 0.88921 0.13501 0.90177 0.0
N383 N 0.77046 0.13138 0.85312 0.0
C384 C 0.82017 0.12274 0.84212 0.0
C385 C 0.73051 0.16027 0.84537 0.0
C386 C 0.7371 0.17824 0.82565 0.0
C387 C 0.78719 0.16883 0.81397 0.0
C388 C 0.83025 0.14227 0.82251 0.0
Zn389 Zn 0.75288 0.09689 0.88157 0.0
O390 O 0.72022 0.96983 0.90427 0.0
C391 C 0.59641 0.037 0.89292 0.0
O392 O 0.73321 -0.00506 0.87312 0.0
H393 H 0.69239 0.1682 0.85439 0.0
H394 H 0.62641 0.92912 0.93391 0.0
H395 H 0.8512 0.09942 0.84845 0.0
O396 O 0.61943 0.03182 0.90955 0.0
O397 O 0.6421 0.06262 0.87895 0.0
H398 H 0.80059 0.13487 0.95287 0.0
O399 O 0.77392 0.19986 0.89056 0.0
O400 O 0.7477 0.17219 0.92161 0.0
O401 O 0.86393 0.13108 0.88485 0.0
O402 O 0.84586 0.11297 0.91634 0.0
C403 C 0.76922 0.21842 0.90787 0.0
H404 H 0.60485 0.88092 0.96741 0.0
H405 H 0.78098 0.09121 0.98686 0.0
H406 H 0.70302 0.19861 0.81953 0.0
H407 H 0.86939 0.13429 0.81389 0.0
C408 C 0.21613 0.01713 0.14537 0.0
C409 C 0.14687 0.96791 0.15399 0.0
C410 C 0.15488 0.06775 0.17426 0.0
C411 C 0.21405 0.11892 0.1626 0.0
N412 N 0.30559 0.14418 0.13792 0.0
N413 N 0.04534 0.94801 0.17497 0.0
C414 C 0.24667 0.09391 0.14855 0.0
C415 C 0.11507 -0.00641 0.1681 0.0
N416 N 0.25376 -0.0093 0.13479 0.0
N417 N 0.13629 0.0898 0.19106 0.0
H418 H 0.0128 0.894 0.17009 0.0
H419 H 0.0171 0.96625 0.1839 0.0
H420 H 0.16745 0.14273 0.1967 0.0
H421 H 0.09639 0.05319 0.20072 0.0
H422 H 0.30764 0.02377 0.12982 0.0
H423 H 0.23365 0.93478 0.13227 0.0
H424 H 0.32622 0.13054 0.12572 0.0
H425 H 0.33193 0.20044 0.14108 0.0
C426 C 0.18586 0.26173 0.64607 0.0
C427 C 0.17348 0.19854 0.65668 0.0
C428 C 0.07284 0.20089 0.67428 0.0
C429 C 0.07208 0.24915 0.66005 0.0
N430 N 0.13334 0.33441 0.63398 0.0
N431 N 0.09975 0.10307 0.67994 0.0
C432 C 0.13111 0.28313 0.64656 0.0
C433 C 0.11622 0.16729 0.67078 0.0
N434 N 0.2503 0.30187 0.63595 0.0
N435 N 0.03279 0.1872 0.69104 0.0
H436 H 0.12774 0.07428 0.67722 0.0
H437 H 0.05328 0.07448 0.68877 0.0
H438 H 0.00594 0.21607 0.69497 0.0
H439 H 0.03538 0.15538 0.70228 0.0
H440 H 0.26484 0.35171 0.62922 0.0
H441 H 0.29266 0.28906 0.63588 0.0
H442 H 0.16926 0.35457 0.62214 0.0
H443 H 0.09702 0.35502 0.63524 0.0
C444 C 0.86631 0.03281 0.14061 0.0
C445 C 0.81353 0.05055 0.14837 0.0
C446 C 0.91293 0.1679 0.16012 0.0
C447 C 0.96382 0.1449 0.15445 0.0
N448 N -0.01198 0.04848 0.14442 0.0
N449 N 0.78538 0.13071 0.16744 0.0
C450 C 0.94005 0.07487 0.14643 0.0
C451 C 0.83643 0.11673 0.15887 0.0
N452 N 0.84759 0.978 0.12719 0.0
N453 N 0.93746 0.23901 0.16577 0.0
H454 H 0.72867 0.09621 0.16571 0.0
H455 H 0.79937 0.17436 0.17702 0.0
H456 H -0.00667 0.27812 0.16672 0.0
H457 H 0.90253 0.26058 0.1681 0.0
H458 H 0.88634 0.96776 0.12036 0.0
H459 H 0.79635 0.94963 0.12065 0.0
H460 H 0.9711 -0.00585 0.14056 0.0
H461 H 0.04311 0.0785 0.1487 0.0
C462 C 0.69103 0.85173 0.64967 0.0
C463 C 0.72277 0.82734 0.66376 0.0
C464 C 0.80652 0.9528 0.67414 0.0
C465 C 0.78185 0.97834 0.65843 0.0
N466 N 0.68775 0.95407 0.63448 0.0
N467 N 0.77767 0.85058 0.69554 0.0
C468 C 0.71958 0.92835 0.64723 0.0
C469 C 0.76965 0.87653 0.67812 0.0
N470 N 0.63535 0.80078 0.63835 0.0
N471 N 0.86751 0.00041 0.68451 0.0
H472 H 0.74511 0.79552 0.6995 0.0
H473 H 0.80819 0.88483 0.70697 0.0
H474 H 0.89745 0.05676 0.68174 0.0
H475 H 0.89217 -0.01701 0.69472 0.0
H476 H 0.61455 0.8132 0.62615 0.0
H477 H 0.61025 0.7445 0.64133 0.0
H478 H 0.63898 0.92089 0.62707 0.0
H479 H 0.7074 0.00976 0.63211 0.0
C480 C 0.80438 0.68225 0.14307 0.0
C481 C 0.8568 0.7117 0.15827 0.0
C482 C 0.82254 0.80448 0.16517 0.0
C483 C 0.77024 0.77623 0.14994 0.0
N484 N 0.69615 0.67507 0.12818 0.0
N485 N 0.88517 0.77351 0.18942 0.0
C486 C 0.75641 0.71106 0.13992 0.0
C487 C 0.85587 0.76379 0.17125 0.0
N488 N 0.80122 0.62712 0.13168 0.0
N489 N 0.84194 0.87113 0.17349 0.0
H490 H 0.90201 0.73838 0.19521 0.0
H491 H 0.88194 0.80868 0.19968 0.0
H492 H 0.82199 0.90508 0.16864 0.0
H493 H 0.88357 0.89592 0.18379 0.0
H494 H 0.77148 0.60969 0.11879 0.0
H495 H 0.83052 0.60024 0.13508 0.0
H496 H 0.67961 0.62357 0.12208 0.0
H497 H 0.65872 0.69343 0.12582 0.0
C498 C 0.03885 0.80109 0.64034 0.0
C499 C -0.01198 0.81048 0.65216 0.0
C500 C 0.0881 0.90074 0.67198 0.0
C501 C 0.13851 0.90422 0.65762 0.0
N502 N 0.16624 0.85166 0.62991 0.0
N503 N 0.96384 0.87595 0.67766 0.0
C504 C 0.1151 0.85163 0.64243 0.0
C505 C 0.0124 0.86185 0.66765 0.0
N506 N 0.01452 0.74341 0.62757 0.0
N507 N 0.1119 0.93319 0.68973 0.0
H508 H 0.90775 0.85055 0.6744 0.0
H509 H -0.01937 0.91847 0.68778 0.0
H510 H 0.16634 0.95542 0.69424 0.0
H511 H 0.07592 0.92806 0.70098 0.0
H512 H 0.04942 0.72973 0.62001 0.0
H513 H 0.95888 0.70551 0.62547 0.0
H514 H 0.15305 0.82171 0.617 0.0
H515 H 0.22285 0.88384 0.63243 0.0
C516 C 0.92714 0.75737 0.40912 0.0
C517 C -0.02386 0.81733 0.39719 0.0
C518 C 0.87462 0.79883 0.37655 0.0
C519 C 0.82502 0.75264 0.39094 0.0
N520 N 0.80005 0.67581 0.41894 0.0
N521 N -0.00389 0.90181 0.37097 0.0
C522 C 0.85026 0.72744 0.40655 0.0
C523 C 0.94982 0.83985 0.38123 0.0
N524 N 0.95378 0.72787 0.42232 0.0
N525 N 0.85048 0.80253 0.35844 0.0
H526 H 0.05152 0.93552 0.37455 0.0
H527 H -0.02244 0.92373 0.36028 0.0
H528 H 0.79682 0.76668 0.35385 0.0
H529 H 0.88614 0.83289 0.34717 0.0
H530 H 0.9206 0.67973 0.43001 0.0
H531 H 0.00987 0.74842 0.42471 0.0
H532 H 0.81373 0.6615 0.43209 0.0
H533 H 0.7436 0.64827 0.41594 0.0
C534 C 0.11541 0.84524 0.88197 0.0
C535 C 0.07746 0.80633 0.89891 0.0
C536 C 0.12336 0.91983 0.91706 0.0
C537 C 0.15975 0.96086 0.90019 0.0
N538 N 0.2159 0.95881 0.86925 0.0
N539 N 0.08866 0.80636 0.93376 0.0
C540 C 0.16356 0.92275 0.88328 0.0
C541 C 0.09683 0.84367 0.91692 0.0
N542 N 0.10688 0.80831 0.86493 0.0
N543 N 0.10969 0.95162 0.93277 0.0
H544 H 0.07463 0.75101 0.93363 0.0
H545 H 0.10509 0.83279 0.9472 0.0
H546 H 0.11984 0.00569 0.93279 0.0
H547 H 0.07922 0.92098 0.94475 0.0
H548 H 0.12492 0.83462 0.85157 0.0
H549 H 0.08145 0.751 0.86437 0.0
H550 H 0.2239 0.93212 0.85744 0.0
H551 H 0.25757 0.01344 0.87056 0.0
C552 C 0.24123 0.202 0.40007 0.0
C553 C 0.1732 0.18466 0.39108 0.0
C554 C 0.18233 0.09369 0.3708 0.0
C555 C 0.23552 0.09566 0.38374 0.0
N556 N 0.32879 0.16139 0.40763 0.0
N557 N 0.07784 0.11268 0.36772 0.0
C558 C 0.27004 0.15401 0.39721 0.0
C559 C 0.14388 0.13092 0.37613 0.0
N560 N 0.2791 0.265 0.41076 0.0
N561 N 0.1695 0.05752 0.35346 0.0
H562 H 0.04638 0.13687 0.37169 0.0
H563 H 0.05118 0.06878 0.35807 0.0
H564 H 0.20241 0.03628 0.34842 0.0
H565 H 0.13387 0.05808 0.34302 0.0
H566 H 0.33201 0.28382 0.41611 0.0
H567 H 0.26061 0.30237 0.41285 0.0
H568 H 0.35074 0.19608 0.4196 0.0
H569 H 0.35424 0.13039 0.40435 0.0
C570 C 0.09539 0.25677 0.89444 0.0
C571 C 0.12141 0.22465 0.90805 0.0
C572 C -0.00326 0.13848 0.91837 0.0
C573 C 0.9692 0.16854 0.90458 0.0
N574 N -0.00622 0.27473 0.88515 0.0
N575 N 0.09718 0.17057 0.94023 0.0
C576 C 0.01888 0.23353 0.89423 0.0
C577 C 0.07243 0.17722 0.92249 0.0
N578 N 0.14366 0.30986 0.88206 0.0
N579 N 0.95248 0.07161 0.92681 0.0
H580 H 0.15063 0.20677 0.94488 0.0
H581 H 0.06157 0.13803 0.95128 0.0
H582 H 0.89753 0.03724 0.92297 0.0
H583 H -0.02658 0.0467 0.93591 0.0
H584 H 0.1269 0.32851 0.87019 0.0
H585 H 0.20073 0.33433 0.88368 0.0
H586 H 0.02861 0.32539 0.8787 0.0
H587 H 0.93903 0.26275 0.886 0.0
C588 C 0.86183 0.1248 0.41994 0.0
C589 C 0.8797 0.1676 0.40287 0.0
C590 C 0.78544 0.05814 0.38614 0.0
C591 C 0.78941 0.01355 0.40122 0.0
N592 N 0.84835 0.0112 0.43142 0.0
N593 N 0.84548 0.17687 0.37005 0.0
C594 C 0.83194 0.04857 0.41797 0.0
C595 C 0.8377 0.13491 0.38593 0.0
N596 N 0.87435 0.15674 0.43787 0.0
N597 N 0.72898 0.02919 0.37311 0.0
H598 H 0.87336 0.23425 0.37062 0.0
H599 H 0.82387 0.15435 0.35649 0.0
H600 H 0.68414 0.97638 0.3745 0.0
H601 H 0.72122 0.06059 0.36269 0.0
H602 H 0.85939 0.12596 0.45065 0.0
H603 H 0.8903 0.21229 0.43958 0.0
H604 H 0.88261 0.03769 0.44324 0.0
H605 H 0.83706 0.95719 0.4294 0.0
C606 C 0.8307 0.86092 0.88051 0.0
C607 C 0.79689 0.80491 0.89466 0.0
C608 C 0.69234 0.82647 0.89704 0.0
C609 C 0.72869 0.88467 0.88363 0.0
N610 N 0.81029 0.93045 0.85589 0.0
N611 N 0.68677 0.72095 0.91274 0.0
C612 C 0.79071 0.89318 0.87309 0.0
C613 C 0.72486 0.78338 0.90188 0.0
N614 N 0.90158 0.88445 0.87453 0.0
N615 N 0.62801 0.81479 0.90553 0.0
H616 H 0.70914 0.68892 0.91723 0.0
H617 H 0.63117 0.69807 0.91636 0.0
H618 H 0.60068 0.84227 0.90083 0.0
H619 H 0.60331 0.78032 0.9174 0.0
H620 H 0.93091 0.92993 0.86554 0.0
H621 H 0.93343 0.86308 0.88011 0.0
H622 H 0.85303 0.93443 0.84711 0.0
H623 H 0.77705 0.94765 0.84908 0.0
C624 C 0.09412 0.53155 0.16166 0.0
C625 C 0.04325 0.53164 0.14814 0.0
C626 C 0.05328 0.43618 0.12959 0.0
C627 C 0.11565 0.45016 0.14098 0.0
N628 N 0.20797 0.52986 0.16403 0.0
N629 N 0.97117 0.48033 0.11914 0.0
C630 C 0.14063 0.5048 0.15558 0.0
C631 C 0.02215 0.4831 0.13191 0.0
N632 N 0.09578 0.55261 0.18055 0.0
N633 N 0.02119 0.37644 0.11753 0.0
H634 H 0.9408 0.50682 0.12184 0.0
H635 H 0.96039 0.45304 0.10582 0.0
H636 H 0.04128 0.34018 0.1156 0.0
H637 H 0.97123 0.35969 0.11054 0.0
H638 H 0.13135 0.55033 0.19074 0.0
H639 H 0.05379 0.55933 0.18675 0.0
H640 H 0.22917 0.57267 0.17418 0.0
H641 H 0.24522 0.51341 0.15926 0.0
C642 C 0.59605 0.12157 0.62027 0.0
C643 C 0.63015 0.10785 0.63618 0.0
C644 C 0.50957 0.03193 0.65171 0.0
C645 C 0.47772 0.05344 0.63693 0.0
N646 N 0.48239 0.07741 0.60249 0.0
N647 N 0.61698 0.02809 0.6631 0.0
C648 C 0.5181 0.08462 0.61958 0.0
C649 C 0.58605 0.05571 0.65068 0.0
N650 N 0.63715 0.17274 0.60651 0.0
N651 N 0.46654 -0.01015 0.66675 0.0
H652 H 0.67247 0.04295 0.66246 0.0
H653 H 0.58687 -0.01432 0.67288 0.0
H654 H 0.40908 0.96521 0.66645 0.0
H655 H 0.48729 0.98016 0.67942 0.0
H656 H 0.61358 0.18959 0.59584 0.0
H657 H 0.69459 0.20304 0.60672 0.0
H658 H 0.51005 0.09609 0.58926 0.0
H659 H 0.42555 0.04297 0.60112 0.0
C660 C 0.49496 0.58764 0.15489 0.0
C661 C 0.47324 0.63076 0.14376 0.0
C662 C 0.3814 0.5205 0.12742 0.0
C663 C 0.39043 0.47718 0.14181 0.0
N664 N 0.45772 0.46829 0.16889 0.0
N665 N 0.38842 0.63716 0.12127 0.0
C666 C 0.4482 0.51047 0.15542 0.0
C667 C 0.41452 0.59699 0.13046 0.0
N668 N 0.5614 0.61963 0.16415 0.0
N669 N 0.3427 0.48972 0.11078 0.0
H670 H 0.40988 0.69345 0.12362 0.0
H671 H 0.34051 0.61301 0.11295 0.0
H672 H 0.32451 0.43555 0.10664 0.0
H673 H 0.33893 0.521 0.09958 0.0
H674 H 0.58249 0.58967 0.17092 0.0
H675 H 0.59909 0.67557 0.16326 0.0
H676 H 0.49288 0.49038 0.18075 0.0
H677 H 0.42789 0.41083 0.1685 0.0
C678 C 0.80543 0.451 0.62145 0.0
C679 C 0.83948 0.51021 0.63477 0.0
C680 C 0.92637 0.46974 0.64435 0.0
C681 C 0.88915 0.40816 0.63191 0.0
N682 N 0.81851 0.3609 0.60238 0.0
N683 N 0.94541 0.58898 0.65447 0.0
C684 C 0.83708 0.40557 0.61832 0.0
C685 C 0.90446 0.52394 0.64479 0.0
N686 N 0.74062 0.4352 0.61268 0.0
N687 N -0.01875 0.47483 0.65608 0.0
H688 H 0.93111 0.63007 0.65501 0.0
H689 H -0.00327 0.6051 0.66055 0.0
H690 H 0.00233 0.439 0.65469 0.0
H691 H 0.00429 0.51271 0.66737 0.0
H692 H 0.70918 0.38729 0.60466 0.0
H693 H 0.71474 0.46639 0.6148 0.0
H694 H 0.78393 0.36054 0.5915 0.0
H695 H 0.84612 0.33286 0.5985 0.0
C696 C 0.41331 0.89571 0.12914 0.0
C697 C 0.44443 0.89263 0.14704 0.0
C698 C 0.3249 0.80246 0.15937 0.0
C699 C 0.29131 0.8045 0.14172 0.0
N700 N 0.30834 0.83804 0.10758 0.0
N701 N 0.42324 0.87494 0.18154 0.0
C702 C 0.3365 0.84778 0.12591 0.0
C703 C 0.39798 0.85673 0.16298 0.0
N704 N 0.45795 0.94554 0.11555 0.0
N705 N 0.28865 0.74577 0.17216 0.0
H706 H 0.47494 0.92011 0.18459 0.0
H707 H 0.3891 0.85189 0.19365 0.0
H708 H 0.23806 0.69953 0.16885 0.0
H709 H 0.31355 0.74029 0.18465 0.0
H710 H 0.43922 0.95582 0.10262 0.0
H711 H 0.51358 -0.01778 0.11837 0.0
H712 H 0.3393 0.86601 0.09543 0.0
H713 H 0.25705 0.79433 0.10378 0.0
C714 C 0.52151 0.45398 0.62758 0.0
C715 C 0.54855 0.48536 0.64605 0.0
C716 C 0.51068 0.36674 0.65979 0.0
C717 C 0.48251 0.33253 0.64156 0.0
N718 N 0.48214 0.34742 0.6067 0.0
N719 N 0.52919 0.46733 0.68051 0.0
C720 C 0.49255 0.37695 0.62494 0.0
C721 C 0.52819 0.43979 0.66244 0.0
N722 N 0.52195 0.49794 0.61296 0.0
N723 N 0.5276 0.33222 0.67396 0.0
H724 H 0.53973 0.52126 0.68246 0.0
H725 H 0.51157 0.43416 0.69287 0.0
H726 H 0.52796 0.28318 0.67139 0.0
H727 H 0.5519 0.35788 0.68706 0.0
H728 H 0.49844 0.47843 0.59939 0.0
H729 H 0.53868 0.55336 0.6154 0.0
H730 H 0.49239 0.37796 0.59403 0.0
H731 H 0.47361 0.29467 0.6041 0.0
C732 C 0.41157 0.86405 0.38673 0.0
C733 C 0.40976 0.91622 0.3995 0.0
C734 C 0.5008 0.90769 0.41989 0.0
C735 C 0.48701 0.84341 0.40932 0.0
N736 N 0.41219 0.74976 0.3859 0.0
N737 N 0.45869 -0.00576 0.42768 0.0
C738 C 0.4357 0.81754 0.39398 0.0
C739 C 0.45622 0.94004 0.41604 0.0
N740 N 0.39377 0.86085 0.36757 0.0
N741 N 0.55828 0.94013 0.4326 0.0
H742 H 0.43388 0.02495 0.42372 0.0
H743 H 0.48408 0.00754 0.44123 0.0
H744 H 0.59236 0.91857 0.43586 0.0
H745 H 0.57527 -0.0087 0.43898 0.0
H746 H 0.39777 0.82457 0.35782 0.0
H747 H 0.38686 0.90178 0.36099 0.0
H748 H 0.37161 0.72807 0.3752 0.0
H749 H 0.42771 0.71302 0.39139 0.0
C750 C 0.57898 0.51211 0.89077 0.0
C751 C 0.62503 0.50723 0.90515 0.0
C752 C 0.51559 0.4241 0.92344 0.0
C753 C 0.47227 0.40979 0.90655 0.0
N754 N 0.45919 0.4525 0.87516 0.0
N755 N 0.63404 0.44697 0.93423 0.0
C756 C 0.50285 0.45768 0.89042 0.0
C757 C 0.59266 0.46043 0.92136 0.0
N758 N 0.60666 0.57069 0.87838 0.0
N759 N 0.4838 0.40499 0.94142 0.0
H760 H 0.69036 0.46652 0.93237 0.0
H761 H 0.61012 0.40874 0.94543 0.0
H762 H 0.42798 0.38729 0.94365 0.0
H763 H 0.51486 0.41782 0.95411 0.0
H764 H 0.57433 0.57971 0.86855 0.0
H765 H 0.66017 0.61499 0.87958 0.0
H766 H 0.48014 0.479 0.86194 0.0
H767 H 0.40174 0.42135 0.87589 0.0
C768 C 0.05985 0.61666 0.40372 0.0
C769 C 0.12562 0.66763 0.41346 0.0
C770 C 0.12719 0.5662 0.43014 0.0
C771 C 0.07521 0.51651 0.41653 0.0
N772 N -0.01979 0.49049 0.3932 0.0
N773 N 0.22516 0.6911 0.43527 0.0
C774 C 0.03724 0.5406 0.40432 0.0
C775 C 0.15976 0.64266 0.42672 0.0
N776 N 0.01857 0.64095 0.3943 0.0
N777 N 0.14391 0.54114 0.44653 0.0
H778 H 0.25181 0.74776 0.43292 0.0
H779 H 0.25618 0.67418 0.44331 0.0
H780 H 0.11421 0.48651 0.45099 0.0
H781 H 0.17874 0.57618 0.45729 0.0
H782 H 0.96691 0.60625 0.38837 0.0
H783 H 0.03306 0.69624 0.39383 0.0
H784 H 0.95633 0.50466 0.38203 0.0
H785 H 0.95754 0.43384 0.39512 0.0
C786 C 0.4751 0.01218 0.90709 0.0
C787 C 0.52422 0.03393 0.89107 0.0
C788 C 0.49017 0.1237 0.88126 0.0
C789 C 0.44484 0.10714 0.89805 0.0
N790 N 0.37118 0.01461 0.92214 0.0
N791 N 0.53833 0.07256 0.85766 0.0
C792 C 0.43009 0.04492 0.90965 0.0
C793 C 0.5179 0.07675 0.87628 0.0
N794 N 0.47158 0.96033 0.91966 0.0
N795 N 0.5102 0.18583 0.87064 0.0
H796 H 0.55347 0.03374 0.85354 0.0
H797 H 0.53094 0.10058 0.84618 0.0
H798 H 0.4966 0.22571 0.87472 0.0
H799 H 0.54774 0.20163 0.85911 0.0
H800 H 0.44467 0.94915 0.93307 0.0
H801 H 0.49694 0.92919 0.91651 0.0
H802 H 0.35476 0.96584 0.92967 0.0
H803 H 0.33356 0.03331 0.92346 0.0
C804 C 0.36704 0.51391 0.42271 0.0
C805 C 0.32975 0.47204 0.40609 0.0
C806 C 0.44757 0.51868 0.38892 0.0
C807 C 0.48291 0.56289 0.40533 0.0
N808 N 0.4808 0.5635 0.44046 0.0
N809 N 0.33815 0.41198 0.37665 0.0
C810 C 0.4443 0.5473 0.4232 0.0
C811 C 0.37096 0.46721 0.39008 0.0
N812 N 0.33015 0.52589 0.4375 0.0
N813 N 0.48728 0.52598 0.37241 0.0
H814 H 0.2835 0.36984 0.37782 0.0
H815 H 0.3672 0.40307 0.3656 0.0
H816 H 0.54483 0.55713 0.37213 0.0
H817 H 0.46316 0.50237 0.35914 0.0
H818 H 0.35755 0.5611 0.4491 0.0
H819 H 0.27388 0.50826 0.4371 0.0
H820 H 0.45329 0.54963 0.45382 0.0
H821 H 0.53683 0.58013 0.44122 0.0
C822 C 0.88707 0.42188 0.91514 0.0
C823 C 0.84442 0.44387 0.90404 0.0
C824 C 0.74242 0.31746 0.90317 0.0
C825 C 0.78901 0.29445 0.91132 0.0
N826 N 0.90655 0.32119 0.92438 0.0
N827 N 0.73571 0.4099 0.88433 0.0
C828 C 0.86147 0.34564 0.91738 0.0
C829 C 0.77314 0.39106 0.89718 0.0
N830 N 0.95183 0.47359 0.92332 0.0
N831 N 0.6689 0.26827 0.90097 0.0
H832 H 0.75723 0.46178 0.87825 0.0
H833 H 0.6866 0.37158 0.87776 0.0
H834 H 0.64538 0.21339 0.90531 0.0
H835 H 0.63045 0.28362 0.89691 0.0
H836 H -0.01881 0.46085 0.93325 0.0
H837 H -0.02569 0.52994 0.92094 0.0
H838 H 0.96278 0.35541 0.92676 0.0
H839 H 0.88813 0.2656 0.92692 0.0
C840 C 0.13957 0.42099 0.28373 0.0
C841 C 0.14988 0.37513 0.29699 0.0
C842 C 0.17842 0.31688 0.26975 0.0
C843 C 0.17376 0.36649 0.25661 0.0
N844 N 0.16643 0.47672 0.25173 0.0
N845 N 0.19887 0.29405 0.30293 0.0
C846 C 0.1594 0.422 0.26381 0.0
C847 C 0.17546 0.3276 0.29008 0.0
N848 N 0.10795 0.46118 0.28993 0.0
N849 N 0.18188 0.2572 0.2629 0.0
H850 H 0.19971 0.30219 0.31792 0.0
H851 H 0.22474 0.26459 0.2986 0.0
H852 H 0.18183 0.24563 0.24814 0.0
H853 H 0.17738 0.21523 0.27187 0.0
H854 H 0.09201 0.48952 0.28052 0.0
H855 H 0.09165 0.46111 0.30429 0.0
H856 H 0.16352 0.52248 0.25656 0.0
H857 H 0.18233 0.48007 0.23718 0.0
C858 C 0.81106 0.26351 0.76488 0.0
C859 C 0.8044 0.20725 0.75201 0.0
C860 C 0.77545 0.12366 0.77955 0.0
C861 C 0.79172 0.18246 0.79262 0.0
N862 N 0.8386 0.3126 0.79763 0.0
N863 N 0.79875 0.0897 0.7478 0.0
C864 C 0.81328 0.25374 0.78527 0.0
C865 C 0.79193 0.13896 0.75954 0.0
N866 N 0.81303 0.3252 0.7577 0.0
N867 N 0.74166 0.05267 0.78608 0.0
H868 H 0.81409 0.09987 0.73319 0.0
H869 H 0.79714 0.04236 0.7531 0.0
H870 H 0.72548 0.03846 0.80052 0.0
H871 H 0.72241 0.00745 0.77677 0.0
H872 H 0.81049 0.36456 0.7665 0.0
H873 H 0.81022 0.33363 0.74288 0.0
H874 H 0.86161 0.36677 0.79284 0.0
H875 H 0.8432 0.30817 0.81257 0.0
C876 C 0.67546 0.85753 0.26439 0.0
C877 C 0.60722 0.82948 0.25453 0.0
C878 C 0.53972 0.77909 0.28511 0.0
C879 C 0.60795 0.81049 0.2951 0.0
N880 N 0.74009 0.88971 0.29517 0.0
N881 N 0.47474 0.7735 0.25544 0.0
C882 C 0.67569 0.85271 0.28499 0.0
C883 C 0.53934 0.79317 0.2649 0.0
N884 N 0.73994 0.88669 0.25398 0.0
N885 N 0.47557 0.73408 0.29485 0.0
H886 H 0.47251 0.7821 0.2406 0.0
H887 H 0.42407 0.75386 0.26246 0.0
H888 H 0.47375 0.72366 0.30971 0.0
H889 H 0.42481 0.70299 0.28806 0.0
H890 H 0.79063 0.89999 0.26003 0.0
H891 H 0.74227 0.89298 0.23892 0.0
H892 H 0.79013 0.92802 0.28893 0.0
H893 H 0.74269 0.88659 0.31025 0.0
C894 C 0.843 0.67832 0.76286 0.0
C895 C 0.80178 0.6095 0.7533 0.0
C896 C 0.79043 0.54427 0.78374 0.0
C897 C 0.82559 0.61298 0.79359 0.0
N898 N 0.8811 0.74523 0.79336 0.0
N899 N 0.73182 0.47702 0.75418 0.0
C900 C 0.85102 0.68004 0.78336 0.0
C901 C 0.77454 0.54235 0.7636 0.0
N902 N 0.87584 0.7419 0.75223 0.0
N903 N 0.77302 0.48118 0.79365 0.0
H904 H 0.72066 0.47372 0.73934 0.0
H905 H 0.7037 0.42633 0.76114 0.0
H906 H 0.78228 0.48058 0.80851 0.0
H907 H 0.75402 0.43007 0.78707 0.0
H908 H 0.9135 0.79307 0.75794 0.0
H909 H 0.86969 0.74313 0.73723 0.0
H910 H 0.89214 0.79499 0.7872 0.0
H911 H 0.89138 0.74922 0.80825 0.0
C912 C 0.10453 0.80654 0.26478 0.0
C913 C 0.13046 0.76405 0.25487 0.0
C914 C 0.18645 0.75218 0.28482 0.0
C915 C 0.15696 0.79119 0.29491 0.0
N916 N 0.07958 0.8467 0.29562 0.0
N917 N 0.18757 0.68839 0.2553 0.0
C918 C 0.1135 0.81581 0.2852 0.0
C919 C 0.169 0.73445 0.26486 0.0
N920 N 0.07335 0.83992 0.25453 0.0
N921 N 0.23242 0.73374 0.29425 0.0
H922 H 0.17659 0.67533 0.2406 0.0
H923 H 0.20926 0.65913 0.26211 0.0
H924 H 0.24467 0.74424 0.30899 0.0
H925 H 0.26223 0.71238 0.28732 0.0
H926 H 0.06156 0.87882 0.26047 0.0
H927 H 0.06371 0.83275 0.23961 0.0
H928 H 0.04025 0.85782 0.28982 0.0
H929 H 0.08661 0.85662 0.31054 0.0
C930 C 0.28294 0.19074 0.7815 0.0
C931 C 0.3222 0.17315 0.79523 0.0
C932 C 0.3842 0.14672 0.76841 0.0
C933 C 0.33888 0.15637 0.75482 0.0
N934 N 0.2323 0.17016 0.74909 0.0
N935 N 0.39789 0.11811 0.80163 0.0
C936 C 0.28448 0.17336 0.76156 0.0
C937 C 0.3694 0.14646 0.78865 0.0
N938 N 0.24638 0.22662 0.78734 0.0
N939 N 0.443 0.14038 0.76206 0.0
H940 H 0.38642 0.11444 0.81649 0.0
H941 H 0.42663 0.09137 0.79741 0.0
H942 H 0.45662 0.14185 0.74739 0.0
H943 H 0.48226 0.14086 0.77141 0.0
H944 H 0.2232 0.2473 0.77761 0.0
H945 H 0.24566 0.24239 0.80171 0.0
H946 H 0.18716 0.17492 0.75369 0.0
H947 H 0.22958 0.15499 0.73452 0.0
C948 C 0.18417 0.14287 1.01698 0.0
C949 C 0.25505 0.19115 1.00901 0.0
C950 C 0.28789 0.26699 0.03847 0.0
C951 C 0.21981 0.21531 0.04716 0.0
N952 N 0.10885 0.0967 0.0461 0.0
N953 N 0.37997 0.28918 1.01382 0.0
C954 C 0.16949 0.15098 0.03683 0.0
C955 C 0.30867 0.25011 1.02031 0.0
N956 N 0.12989 0.09139 1.00543 0.0
N957 N 0.33148 0.33361 0.04719 0.0
H958 H 0.39746 0.27736 1.00071 0.0
H959 H 0.42301 0.3281 1.02228 0.0
H960 H 0.31725 0.34914 0.06024 0.0
H961 H 0.37794 0.37626 0.04053 0.0
H962 H 0.07504 0.0603 1.00988 0.0
H963 H 0.13827 0.08368 0.99084 0.0
H964 H 0.07458 0.04527 0.03993 0.0
H965 H 0.09627 0.10072 0.0606 0.0
C966 C 0.07505 0.28478 0.52313 0.0
C967 C 0.04126 0.23305 0.50789 0.0
C968 C 0.95352 0.1426 0.5311 0.0
C969 C -0.01908 0.19771 0.54574 0.0
N970 N 0.0662 0.32169 0.5561 0.0
N971 N 0.94836 0.11333 0.49671 0.0
C972 C 0.04188 0.26876 0.54192 0.0
C973 C -0.01902 0.16168 0.51174 0.0
N974 N 0.13906 0.34909 0.51955 0.0
N975 N 0.90165 0.07205 0.53581 0.0
H976 H 0.96915 0.12434 0.48254 0.0
H977 H 0.89894 0.06387 0.49799 0.0
H978 H 0.87943 0.05687 0.54976 0.0
H979 H 0.88444 0.02751 0.52638 0.0
H980 H 0.17079 0.38627 0.53033 0.0
H981 H 0.16401 0.36272 0.50586 0.0
H982 H 0.10422 0.37691 0.55368 0.0
H983 H 0.04527 0.31138 0.57026 0.0
C984 C 0.72499 0.92868 0.03004 0.0
C985 C 0.65676 0.90838 0.03948 0.0
C986 C 0.61246 0.93976 1.01008 0.0
C987 C 0.67849 0.95491 1.00018 0.0
N988 N 0.79064 0.94833 0.99946 0.0
N989 N 0.52973 0.87869 0.03716 0.0
C990 C 0.73271 0.94467 1.00979 0.0
C991 C 0.59866 0.909 0.02906 0.0
N992 N 0.78358 0.93599 0.04055 0.0
N993 N 0.56437 0.95782 1.00173 0.0
H994 H 0.51735 0.85467 0.05092 0.0
H995 H 0.48345 0.87084 0.02954 0.0
H996 H 0.57292 -0.01836 0.988 0.0
H997 H 0.5195 0.95549 1.00911 0.0
H998 H 0.83685 0.95858 0.03489 0.0
H999 H 0.78052 0.9253 0.05541 0.0
H1000 H 0.82766 0.93385 1.00521 0.0
H1001 H 0.79775 0.95918 0.98458 0.0
C1002 C 0.78771 0.72865 0.52838 0.0
C1003 C 0.73022 0.70262 0.54244 0.0
C1004 C 0.64825 0.70645 0.51757 0.0
C1005 C 0.71052 0.74857 0.50547 0.0
N1006 N 0.84176 0.80393 0.49996 0.0
N1007 N 0.59916 0.61995 0.54419 0.0
C1008 C 0.78107 0.76157 0.51117 0.0
C1009 C 0.6578 0.67808 0.53537 0.0
N1010 N 0.83936 0.70702 0.52909 0.0
N1011 N 0.58006 0.69365 0.51213 0.0
H1012 H 0.60635 0.59109 0.5555 0.0
H1013 H 0.54563 0.59452 0.53876 0.0
H1014 H 0.57043 0.71158 0.49893 0.0
H1015 H 0.53431 0.6702 0.52137 0.0
H1016 H 0.87958 0.72039 0.51836 0.0
H1017 H 0.83228 0.66415 0.53816 0.0
H1018 H 0.89507 0.81903 0.50445 0.0
H1019 H 0.83914 0.82891 0.48714 0.0
C1020 C 0.92123 0.63621 1.01678 0.0
C1021 C 0.92294 0.695 1.0062 0.0
C1022 C 0.96753 0.77332 0.03523 0.0
C1023 C -0.02496 0.71754 0.04487 0.0
N1024 N -0.02513 0.60212 0.0429 0.0
N1025 N 0.96123 0.8244 1.0043 0.0
C1026 C 0.95641 0.65067 0.03508 0.0
C1027 C 0.94976 0.76506 1.01512 0.0
N1028 N 0.88433 0.56606 1.00957 0.0
N1029 N -0.02527 0.83287 0.04537 0.0
H1030 H 0.95025 0.8211 0.98946 0.0
H1031 H -0.01201 0.87809 1.00967 0.0
H1032 H -0.01388 0.84024 0.0602 0.0
H1033 H 0.96248 0.87128 0.03947 0.0
H1034 H 0.87559 0.52024 1.01757 0.0
H1035 H 0.85572 0.55281 0.99646 0.0
H1036 H 0.96878 0.55596 0.03543 0.0
H1037 H 0.00355 0.61201 0.05592 0.0
C1038 C 0.29285 0.00908 0.51317 0.0
C1039 C 0.23442 0.00684 0.50222 0.0
C1040 C 0.19101 0.04383 0.53117 0.0
C1041 C 0.2526 0.05114 0.54167 0.0
N1042 N 0.3714 0.0579 0.54138 0.0
N1043 N 0.13684 0.03637 0.49958 0.0
C1044 C 0.3064 0.03904 0.53225 0.0
C1045 C 0.18608 0.02851 0.51086 0.0
N1046 N 0.33353 0.97975 0.50569 0.0
N1047 N 0.13578 0.04854 0.54069 0.0
H1048 H 0.13194 0.02595 0.48466 0.0
H1049 H 0.10561 0.05942 0.50463 0.0
H1050 H 0.13735 0.05968 0.55553 0.0
H1051 H 0.08584 0.03574 0.53423 0.0
H1052 H 0.3714 0.97267 0.51383 0.0
H1053 H 0.32467 0.95602 0.49189 0.0
H1054 H 0.4157 0.05726 0.53448 0.0
H1055 H 0.38396 0.08131 0.55524 0.0
loop_
_geom_bond_atom_site_label_1
_geom_bond_atom_site_label_2
_geom_bond_distance
_geom_bond_site_symmetry_2
_ccdc_geom_bond_type
C0 O16 1.251 . S
C0 O18 1.254 . S
N1 C2 1.333 . S
N1 C6 1.307 . S
N1 Zn7 2.020 . S
C2 N1 1.333 . S
C2 C3 1.379 . S
C2 H20 0.952 . S
C3 C2 1.379 . S
C3 C4 1.390 . S
C3 H30 0.949 . S
C4 C3 1.390 . S
C4 C5 1.357 . S
C5 C4 1.357 . S
C5 C6 1.370 . S
C5 H31 0.950 . S
C6 N1 1.307 . S
C6 C5 1.370 . S
C6 H24 0.948 . S
Zn7 N1 2.020 . S
Zn7 O16 2.039 . S
Zn7 O22 2.034 . S
Zn7 O26 2.025 . S
Zn7 O28 2.024 . S
C8 O27 1.246 . S
C8 O28 1.249 . S
N9 C10 1.307 . S
N9 C11 1.333 . S
N9 Zn15 2.020 . S
C10 N9 1.307 . S
C10 C14 1.370 . S
C10 H21 0.948 . S
C11 N9 1.333 . S
C11 C12 1.379 . S
C11 H19 0.952 . S
C12 C11 1.379 . S
C12 C13 1.390 . S
C12 H32 0.949 . S
C13 C12 1.390 . S
C13 C14 1.357 . S
C14 C10 1.370 . S
C14 C13 1.357 . S
C14 H33 0.950 . S
Zn15 N9 2.020 . S
Zn15 O18 2.025 . S
Zn15 O23 2.024 . S
Zn15 O25 2.039 . S
Zn15 O27 2.034 . S
O16 C0 1.251 . S
O16 Zn7 2.039 . S
C17 O22 1.246 . S
C17 O23 1.249 . S
O18 C0 1.254 . S
O18 Zn15 2.025 . S
H19 C11 0.952 . S
H20 C2 0.952 . S
H21 C10 0.948 . S
O22 Zn7 2.034 . S
O22 C17 1.246 . S
O23 Zn15 2.024 . S
O23 C17 1.249 . S
H24 C6 0.948 . S
O25 Zn15 2.039 . S
O25 C29 1.251 . S
O26 Zn7 2.025 . S
O26 C29 1.254 . S
O27 C8 1.246 . S
O27 Zn15 2.034 . S
O28 Zn7 2.024 . S
O28 C8 1.249 . S
C29 O25 1.251 . S
C29 O26 1.254 . S
H30 C3 0.949 . S
H31 C5 0.950 . S
H32 C12 0.949 . S
H33 C14 0.950 . S
C34 O50 1.251 1_455 S
C34 O52 1.254 1_455 S
N35 C36 1.333 . S
N35 C40 1.307 . S
N35 Zn41 2.020 . S
C36 N35 1.333 . S
C36 C37 1.379 . S
C36 H54 0.952 . S
C37 C36 1.379 . S
C37 C38 1.390 . S
C37 H64 0.949 1_655 S
C38 C37 1.390 . S
C38 C39 1.357 . S
C39 C38 1.357 . S
C39 C40 1.370 . S
C39 H65 0.950 . S
C40 N35 1.307 . S
C40 C39 1.370 . S
C40 H58 0.948 . S
Zn41 N35 2.020 . S
Zn41 O50 2.039 . S
Zn41 O56 2.034 . S
Zn41 O60 2.025 . S
Zn41 O62 2.024 . S
C42 O61 1.246 . S
C42 O62 1.249 . S
N43 C44 1.307 . S
N43 C45 1.333 . S
N43 Zn49 2.020 . S
C44 N43 1.307 . S
C44 C48 1.370 . S
C44 H55 0.948 . S
C45 N43 1.333 . S
C45 C46 1.379 . S
C45 H53 0.952 . S
C46 C45 1.379 . S
C46 C47 1.390 . S
C46 H66 0.949 . S
C47 C46 1.390 . S
C47 C48 1.357 . S
C48 C44 1.370 . S
C48 C47 1.357 . S
C48 H67 0.950 . S
Zn49 N43 2.020 . S
Zn49 O52 2.025 . S
Zn49 O57 2.024 . S
Zn49 O59 2.039 . S
Zn49 O61 2.034 . S
O50 C34 1.251 1_655 S
O50 Zn41 2.039 . S
C51 O56 1.246 . S
C51 O57 1.249 . S
O52 C34 1.254 1_655 S
O52 Zn49 2.025 . S
H53 C45 0.952 . S
H54 C36 0.952 . S
H55 C44 0.948 . S
O56 Zn41 2.034 . S
O56 C51 1.246 . S
O57 Zn49 2.024 . S
O57 C51 1.249 . S
H58 C40 0.948 . S
O59 Zn49 2.039 . S
O59 C63 1.251 . S
O60 Zn41 2.025 . S
O60 C63 1.254 . S
O61 C42 1.246 . S
O61 Zn49 2.034 . S
O62 Zn41 2.024 . S
O62 C42 1.249 . S
C63 O59 1.251 . S
C63 O60 1.254 . S
H64 C37 0.949 1_455 S
H65 C39 0.950 . S
H66 C46 0.949 . S
H67 C48 0.950 . S
C68 O84 1.251 1_545 S
C68 O86 1.254 1_545 S
N69 C70 1.333 . S
N69 C74 1.307 . S
N69 Zn75 2.020 . S
C70 N69 1.333 . S
C70 C71 1.379 . S
C70 H88 0.952 . S
C71 C70 1.379 . S
C71 C72 1.390 . S
C71 H98 0.949 1_565 S
C72 C71 1.390 . S
C72 C73 1.357 . S
C73 C72 1.357 . S
C73 C74 1.370 . S
C73 H99 0.950 . S
C74 N69 1.307 . S
C74 C73 1.370 . S
C74 H92 0.948 . S
Zn75 N69 2.020 . S
Zn75 O84 2.039 . S
Zn75 O90 2.034 . S
Zn75 O94 2.025 . S
Zn75 O96 2.024 . S
C76 O95 1.246 . S
C76 O96 1.249 . S
N77 C78 1.307 . S
N77 C79 1.333 . S
N77 Zn83 2.020 . S
C78 N77 1.307 . S
C78 C82 1.370 . S
C78 H89 0.948 . S
C79 N77 1.333 . S
C79 C80 1.379 . S
C79 H87 0.952 . S
C80 C79 1.379 . S
C80 C81 1.390 . S
C80 H100 0.949 . S
C81 C80 1.390 . S
C81 C82 1.357 . S
C82 C78 1.370 . S
C82 C81 1.357 . S
C82 H101 0.950 . S
Zn83 N77 2.020 . S
Zn83 O86 2.025 . S
Zn83 O91 2.024 . S
Zn83 O93 2.039 . S
Zn83 O95 2.034 . S
O84 C68 1.251 1_565 S
O84 Zn75 2.039 . S
C85 O90 1.246 . S
C85 O91 1.249 . S
O86 C68 1.254 1_565 S
O86 Zn83 2.025 . S
H87 C79 0.952 . S
H88 C70 0.952 . S
H89 C78 0.948 . S
O90 Zn75 2.034 . S
O90 C85 1.246 . S
O91 Zn83 2.024 . S
O91 C85 1.249 . S
H92 C74 0.948 . S
O93 Zn83 2.039 . S
O93 C97 1.251 . S
O94 Zn75 2.025 . S
O94 C97 1.254 . S
O95 C76 1.246 . S
O95 Zn83 2.034 . S
O96 Zn75 2.024 . S
O96 C76 1.249 . S
C97 O93 1.251 . S
C97 O94 1.254 . S
H98 C71 0.949 1_545 S
H99 C73 0.950 . S
H100 C80 0.949 . S
H101 C82 0.950 . S
C102 O118 1.251 . S
C102 O120 1.254 . S
N103 C104 1.333 . S
N103 C108 1.307 . S
N103 Zn109 2.020 . S
C104 N103 1.333 . S
C104 C105 1.379 . S
C104 H122 0.952 . S
C105 C104 1.379 . S
C105 C106 1.390 . S
C105 H132 0.949 . S
C106 C105 1.390 . S
C106 C107 1.357 . S
C107 C106 1.357 . S
C107 C108 1.370 . S
C107 H133 0.950 . S
C108 N103 1.307 . S
C108 C107 1.370 . S
C108 H126 0.948 . S
Zn109 N103 2.020 . S
Zn109 O118 2.039 . S
Zn109 O124 2.034 . S
Zn109 O128 2.025 . S
Zn109 O130 2.024 . S
C110 O129 1.246 . S
C110 O130 1.249 . S
N111 C112 1.307 . S
N111 C113 1.333 . S
N111 Zn117 2.020 . S
C112 N111 1.307 . S
C112 C116 1.370 . S
C112 H123 0.948 . S
C113 N111 1.333 . S
C113 C114 1.379 . S
C113 H121 0.952 . S
C114 C113 1.379 . S
C114 C115 1.390 . S
C114 H134 0.949 . S
C115 C114 1.390 . S
C115 C116 1.357 . S
C116 C112 1.370 . S
C116 C115 1.357 . S
C116 H135 0.950 . S
Zn117 N111 2.020 . S
Zn117 O120 2.025 . S
Zn117 O125 2.024 . S
Zn117 O127 2.039 . S
Zn117 O129 2.034 . S
O118 C102 1.251 . S
O118 Zn109 2.039 . S
C119 O124 1.246 . S
C119 O125 1.249 . S
O120 C102 1.254 . S
O120 Zn117 2.025 . S
H121 C113 0.952 . S
H122 C104 0.952 . S
H123 C112 0.948 . S
O124 Zn109 2.034 . S
O124 C119 1.246 . S
O125 Zn117 2.024 . S
O125 C119 1.249 . S
H126 C108 0.948 . S
O127 Zn117 2.039 . S
O127 C131 1.251 . S
O128 Zn109 2.025 . S
O128 C131 1.254 . S
O129 C110 1.246 . S
O129 Zn117 2.034 . S
O130 Zn109 2.024 . S
O130 C110 1.249 . S
C131 O127 1.251 . S
C131 O128 1.254 . S
H132 C105 0.949 . S
H133 C107 0.950 . S
H134 C114 0.949 . S
H135 C116 0.950 . S
C136 O152 1.251 1_655 S
C136 O154 1.254 1_655 S
N137 C138 1.333 . S
N137 C142 1.307 . S
N137 Zn143 2.020 . S
C138 N137 1.333 . S
C138 C139 1.379 . S
C138 H156 0.952 . S
C139 C138 1.379 . S
C139 C140 1.390 . S
C139 H166 0.949 1_455 S
C140 C139 1.390 . S
C140 C141 1.357 . S
C141 C140 1.357 . S
C141 C142 1.370 . S
C141 H167 0.950 . S
C142 N137 1.307 . S
C142 C141 1.370 . S
C142 H160 0.948 . S
Zn143 N137 2.020 . S
Zn143 O152 2.039 . S
Zn143 O158 2.034 . S
Zn143 O162 2.025 . S
Zn143 O164 2.024 . S
C144 O163 1.246 . S
C144 O164 1.249 . S
N145 C146 1.307 . S
N145 C147 1.333 . S
N145 Zn151 2.020 . S
C146 N145 1.307 . S
C146 C150 1.370 . S
C146 H157 0.948 . S
C147 N145 1.333 . S
C147 C148 1.379 . S
C147 H155 0.952 . S
C148 C147 1.379 . S
C148 C149 1.390 . S
C148 H168 0.949 . S
C149 C148 1.390 . S
C149 C150 1.357 . S
C150 C146 1.370 . S
C150 C149 1.357 . S
C150 H169 0.950 . S
Zn151 N145 2.020 . S
Zn151 O154 2.025 . S
Zn151 O159 2.024 . S
Zn151 O161 2.039 . S
Zn151 O163 2.034 . S
O152 C136 1.251 1_455 S
O152 Zn143 2.039 . S
C153 O158 1.246 . S
C153 O159 1.249 . S
O154 C136 1.254 1_455 S
O154 Zn151 2.025 . S
H155 C147 0.952 . S
H156 C138 0.952 . S
H157 C146 0.948 . S
O158 Zn143 2.034 . S
O158 C153 1.246 . S
O159 Zn151 2.024 . S
O159 C153 1.249 . S
H160 C142 0.948 . S
O161 Zn151 2.039 . S
O161 C165 1.251 . S
O162 Zn143 2.025 . S
O162 C165 1.254 . S
O163 C144 1.246 . S
O163 Zn151 2.034 . S
O164 Zn143 2.024 . S
O164 C144 1.249 . S
C165 O161 1.251 . S
C165 O162 1.254 . S
H166 C139 0.949 1_655 S
H167 C141 0.950 . S
H168 C148 0.949 . S
H169 C150 0.950 . S
C170 O186 1.251 1_565 S
C170 O188 1.254 1_565 S
N171 C172 1.333 . S
N171 C176 1.307 . S
N171 Zn177 2.020 . S
C172 N171 1.333 . S
C172 C173 1.379 . S
C172 H190 0.952 . S
C173 C172 1.379 . S
C173 C174 1.390 . S
C173 H200 0.949 1_545 S
C174 C173 1.390 . S
C174 C175 1.357 . S
C175 C174 1.357 . S
C175 C176 1.370 . S
C175 H201 0.950 . S
C176 N171 1.307 . S
C176 C175 1.370 . S
C176 H194 0.948 . S
Zn177 N171 2.020 . S
Zn177 O186 2.039 . S
Zn177 O192 2.034 . S
Zn177 O196 2.025 . S
Zn177 O198 2.024 . S
C178 O197 1.246 . S
C178 O198 1.249 . S
N179 C180 1.307 . S
N179 C181 1.333 . S
N179 Zn185 2.020 . S
C180 N179 1.307 . S
C180 C184 1.370 . S
C180 H191 0.948 . S
C181 N179 1.333 . S
C181 C182 1.379 . S
C181 H189 0.952 . S
C182 C181 1.379 . S
C182 C183 1.390 . S
C182 H202 0.949 . S
C183 C182 1.390 . S
C183 C184 1.357 . S
C184 C180 1.370 . S
C184 C183 1.357 . S
C184 H203 0.950 . S
Zn185 N179 2.020 . S
Zn185 O188 2.025 . S
Zn185 O193 2.024 . S
Zn185 O195 2.039 . S
Zn185 O197 2.034 . S
O186 C170 1.251 1_545 S
O186 Zn177 2.039 . S
C187 O192 1.246 . S
C187 O193 1.249 . S
O188 C170 1.254 1_545 S
O188 Zn185 2.025 . S
H189 C181 0.952 . S
H190 C172 0.952 . S
H191 C180 0.948 . S
O192 Zn177 2.034 . S
O192 C187 1.246 . S
O193 Zn185 2.024 . S
O193 C187 1.249 . S
H194 C176 0.948 . S
O195 Zn185 2.039 . S
O195 C199 1.251 . S
O196 Zn177 2.025 . S
O196 C199 1.254 . S
O197 C178 1.246 . S
O197 Zn185 2.034 . S
O198 Zn177 2.024 . S
O198 C178 1.249 . S
C199 O195 1.251 . S
C199 O196 1.254 . S
H200 C173 0.949 1_565 S
H201 C175 0.950 . S
H202 C182 0.949 . S
H203 C184 0.950 . S
C204 O220 1.251 . S
C204 O222 1.254 . S
N205 C206 1.333 . S
N205 C210 1.307 . S
N205 Zn211 2.020 . S
C206 N205 1.333 . S
C206 C207 1.379 . S
C206 H224 0.952 . S
C207 C206 1.379 . S
C207 C208 1.390 . S
C207 H234 0.949 . S
C208 C207 1.390 . S
C208 C209 1.357 . S
C209 C208 1.357 . S
C209 C210 1.370 . S
C209 H235 0.950 . S
C210 N205 1.307 . S
C210 C209 1.370 . S
C210 H228 0.948 . S
Zn211 N205 2.020 . S
Zn211 O220 2.039 . S
Zn211 O226 2.034 . S
Zn211 O230 2.025 . S
Zn211 O232 2.024 . S
C212 O231 1.246 . S
C212 O232 1.249 . S
N213 C214 1.307 . S
N213 C215 1.333 . S
N213 Zn219 2.020 . S
C214 N213 1.307 . S
C214 C218 1.370 . S
C214 H225 0.948 . S
C215 N213 1.333 . S
C215 C216 1.379 . S
C215 H223 0.952 . S
C216 C215 1.379 . S
C216 C217 1.390 . S
C216 H236 0.949 . S
C217 C216 1.390 . S
C217 C218 1.357 . S
C218 C214 1.370 . S
C218 C217 1.357 . S
C218 H237 0.950 . S
Zn219 N213 2.020 . S
Zn219 O222 2.025 . S
Zn219 O227 2.024 . S
Zn219 O229 2.039 . S
Zn219 O231 2.034 . S
O220 C204 1.251 . S
O220 Zn211 2.039 . S
C221 O226 1.246 . S
C221 O227 1.249 . S
O222 C204 1.254 . S
O222 Zn219 2.025 . S
H223 C215 0.952 . S
H224 C206 0.952 . S
H225 C214 0.948 . S
O226 Zn211 2.034 . S
O226 C221 1.246 . S
O227 Zn219 2.024 . S
O227 C221 1.249 . S
H228 C210 0.948 . S
O229 Zn219 2.039 . S
O229 C233 1.251 . S
O230 Zn211 2.025 . S
O230 C233 1.254 . S
O231 C212 1.246 . S
O231 Zn219 2.034 . S
O232 Zn211 2.024 . S
O232 C212 1.249 . S
C233 O229 1.251 . S
C233 O230 1.254 . S
H234 C207 0.949 . S
H235 C209 0.950 . S
H236 C216 0.949 . S
H237 C218 0.950 . S
C238 O254 1.251 1_455 S
C238 O256 1.254 1_455 S
N239 C240 1.333 . S
N239 C244 1.307 . S
N239 Zn245 2.020 . S
C240 N239 1.333 . S
C240 C241 1.379 . S
C240 H258 0.952 . S
C241 C240 1.379 . S
C241 C242 1.390 . S
C241 H268 0.949 1_655 S
C242 C241 1.390 . S
C242 C243 1.357 . S
C243 C242 1.357 . S
C243 C244 1.370 . S
C243 H269 0.950 . S
C244 N239 1.307 . S
C244 C243 1.370 . S
C244 H262 0.948 . S
Zn245 N239 2.020 . S
Zn245 O254 2.039 . S
Zn245 O260 2.034 . S
Zn245 O264 2.025 . S
Zn245 O266 2.024 . S
C246 O265 1.246 . S
C246 O266 1.249 . S
N247 C248 1.307 . S
N247 C249 1.333 . S
N247 Zn253 2.020 . S
C248 N247 1.307 . S
C248 C252 1.370 . S
C248 H259 0.948 . S
C249 N247 1.333 . S
C249 C250 1.379 . S
C249 H257 0.952 . S
C250 C249 1.379 . S
C250 C251 1.390 . S
C250 H270 0.949 . S
C251 C250 1.390 . S
C251 C252 1.357 . S
C252 C248 1.370 . S
C252 C251 1.357 . S
C252 H271 0.950 . S
Zn253 N247 2.020 . S
Zn253 O256 2.025 . S
Zn253 O261 2.024 . S
Zn253 O263 2.039 . S
Zn253 O265 2.034 . S
O254 C238 1.251 1_655 S
O254 Zn245 2.039 . S
C255 O260 1.246 . S
C255 O261 1.249 . S
O256 C238 1.254 1_655 S
O256 Zn253 2.025 . S
H257 C249 0.952 . S
H258 C240 0.952 . S
H259 C248 0.948 . S
O260 Zn245 2.034 . S
O260 C255 1.246 . S
O261 Zn253 2.024 . S
O261 C255 1.249 . S
H262 C244 0.948 . S
O263 Zn253 2.039 . S
O263 C267 1.251 . S
O264 Zn245 2.025 . S
O264 C267 1.254 . S
O265 C246 1.246 . S
O265 Zn253 2.034 . S
O266 Zn245 2.024 . S
O266 C246 1.249 . S
C267 O263 1.251 . S
C267 O264 1.254 . S
H268 C241 0.949 1_455 S
H269 C243 0.950 . S
H270 C250 0.949 . S
H271 C252 0.950 . S
C272 O288 1.251 1_545 S
C272 O290 1.254 1_545 S
N273 C274 1.333 . S
N273 C278 1.307 . S
N273 Zn279 2.020 . S
C274 N273 1.333 . S
C274 C275 1.379 . S
C274 H292 0.952 . S
C275 C274 1.379 . S
C275 C276 1.390 . S
C275 H302 0.949 1_565 S
C276 C275 1.390 . S
C276 C277 1.357 . S
C277 C276 1.357 . S
C277 C278 1.370 . S
C277 H303 0.950 . S
C278 N273 1.307 . S
C278 C277 1.370 . S
C278 H296 0.948 . S
Zn279 N273 2.020 . S
Zn279 O288 2.039 . S
Zn279 O294 2.034 . S
Zn279 O298 2.025 . S
Zn279 O300 2.024 . S
C280 O299 1.246 . S
C280 O300 1.249 . S
N281 C282 1.307 . S
N281 C283 1.333 . S
N281 Zn287 2.020 . S
C282 N281 1.307 . S
C282 C286 1.370 . S
C282 H293 0.948 . S
C283 N281 1.333 . S
C283 C284 1.379 . S
C283 H291 0.952 . S
C284 C283 1.379 . S
C284 C285 1.390 . S
C284 H304 0.949 . S
C285 C284 1.390 . S
C285 C286 1.357 . S
C286 C282 1.370 . S
C286 C285 1.357 . S
C286 H305 0.950 . S
Zn287 N281 2.020 . S
Zn287 O290 2.025 . S
Zn287 O295 2.024 . S
Zn287 O297 2.039 . S
Zn287 O299 2.034 . S
O288 C272 1.251 1_565 S
O288 Zn279 2.039 . S
C289 O294 1.246 . S
C289 O295 1.249 . S
O290 C272 1.254 1_565 S
O290 Zn287 2.025 . S
H291 C283 0.952 . S
H292 C274 0.952 . S
H293 C282 0.948 . S
O294 Zn279 2.034 . S
O294 C289 1.246 . S
O295 Zn287 2.024 . S
O295 C289 1.249 . S
H296 C278 0.948 . S
O297 Zn287 2.039 . S
O297 C301 1.251 . S
O298 Zn279 2.025 . S
O298 C301 1.254 . S
O299 C280 1.246 . S
O299 Zn287 2.034 . S
O300 Zn279 2.024 . S
O300 C280 1.249 . S
C301 O297 1.251 . S
C301 O298 1.254 . S
H302 C275 0.949 1_545 S
H303 C277 0.950 . S
H304 C284 0.949 . S
H305 C286 0.950 . S
C306 O322 1.251 . S
C306 O324 1.254 . S
N307 C308 1.333 . S
N307 C312 1.307 . S
N307 Zn313 2.020 . S
C308 N307 1.333 . S
C308 C309 1.379 . S
C308 H326 0.952 . S
C309 C308 1.379 . S
C309 C310 1.390 . S
C309 H336 0.949 . S
C310 C309 1.390 . S
C310 C311 1.357 . S
C311 C310 1.357 . S
C311 C312 1.370 . S
C311 H337 0.950 . S
C312 N307 1.307 . S
C312 C311 1.370 . S
C312 H330 0.948 . S
Zn313 N307 2.020 . S
Zn313 O322 2.039 . S
Zn313 O328 2.034 . S
Zn313 O332 2.025 . S
Zn313 O334 2.024 . S
C314 O333 1.246 . S
C314 O334 1.249 . S
N315 C316 1.307 . S
N315 C317 1.333 . S
N315 Zn321 2.020 . S
C316 N315 1.307 . S
C316 C320 1.370 . S
C316 H327 0.948 . S
C317 N315 1.333 . S
C317 C318 1.379 . S
C317 H325 0.952 . S
C318 C317 1.379 . S
C318 C319 1.390 . S
C318 H338 0.949 . S
C319 C318 1.390 . S
C319 C320 1.357 . S
C320 C316 1.370 . S
C320 C319 1.357 . S
C320 H339 0.950 . S
Zn321 N315 2.020 . S
Zn321 O324 2.025 . S
Zn321 O329 2.024 . S
Zn321 O331 2.039 . S
Zn321 O333 2.034 . S
O322 C306 1.251 . S
O322 Zn313 2.039 . S
C323 O328 1.246 . S
C323 O329 1.249 . S
O324 C306 1.254 . S
O324 Zn321 2.025 . S
H325 C317 0.952 . S
H326 C308 0.952 . S
H327 C316 0.948 . S
O328 Zn313 2.034 . S
O328 C323 1.246 . S
O329 Zn321 2.024 . S
O329 C323 1.249 . S
H330 C312 0.948 . S
O331 Zn321 2.039 . S
O331 C335 1.251 . S
O332 Zn313 2.025 . S
O332 C335 1.254 . S
O333 C314 1.246 . S
O333 Zn321 2.034 . S
O334 Zn313 2.024 . S
O334 C314 1.249 . S
C335 O331 1.251 . S
C335 O332 1.254 . S
H336 C309 0.949 . S
H337 C311 0.950 . S
H338 C318 0.949 . S
H339 C320 0.950 . S
C340 O356 1.251 1_655 S
C340 O358 1.254 1_655 S
N341 C342 1.333 . S
N341 C346 1.307 . S
N341 Zn347 2.020 . S
C342 N341 1.333 . S
C342 C343 1.379 . S
C342 H360 0.952 . S
C343 C342 1.379 . S
C343 C344 1.390 . S
C343 H370 0.949 1_455 S
C344 C343 1.390 . S
C344 C345 1.357 . S
C345 C344 1.357 . S
C345 C346 1.370 . S
C345 H371 0.950 . S
C346 N341 1.307 . S
C346 C345 1.370 . S
C346 H364 0.948 . S
Zn347 N341 2.020 . S
Zn347 O356 2.039 . S
Zn347 O362 2.034 . S
Zn347 O366 2.025 . S
Zn347 O368 2.024 . S
C348 O367 1.246 . S
C348 O368 1.249 . S
N349 C350 1.307 . S
N349 C351 1.333 . S
N349 Zn355 2.020 . S
C350 N349 1.307 . S
C350 C354 1.370 . S
C350 H361 0.948 . S
C351 N349 1.333 . S
C351 C352 1.379 . S
C351 H359 0.952 . S
C352 C351 1.379 . S
C352 C353 1.390 . S
C352 H372 0.949 . S
C353 C352 1.390 . S
C353 C354 1.357 . S
C354 C350 1.370 . S
C354 C353 1.357 . S
C354 H373 0.950 . S
Zn355 N349 2.020 . S
Zn355 O358 2.025 . S
Zn355 O363 2.024 . S
Zn355 O365 2.039 . S
Zn355 O367 2.034 . S
O356 C340 1.251 1_455 S
O356 Zn347 2.039 . S
C357 O362 1.246 . S
C357 O363 1.249 . S
O358 C340 1.254 1_455 S
O358 Zn355 2.025 . S
H359 C351 0.952 . S
H360 C342 0.952 . S
H361 C350 0.948 . S
O362 Zn347 2.034 . S
O362 C357 1.246 . S
O363 Zn355 2.024 . S
O363 C357 1.249 . S
H364 C346 0.948 . S
O365 Zn355 2.039 . S
O365 C369 1.251 . S
O366 Zn347 2.025 . S
O366 C369 1.254 . S
O367 C348 1.246 . S
O367 Zn355 2.034 . S
O368 Zn347 2.024 . S
O368 C348 1.249 . S
C369 O365 1.251 . S
C369 O366 1.254 . S
H370 C343 0.949 1_655 S
H371 C345 0.950 . S
H372 C352 0.949 . S
H373 C354 0.950 . S
C374 O390 1.251 1_565 S
C374 O392 1.254 1_565 S
N375 C376 1.333 . S
N375 C380 1.307 . S
N375 Zn381 2.020 . S
C376 N375 1.333 . S
C376 C377 1.379 . S
C376 H394 0.952 . S
C377 C376 1.379 . S
C377 C378 1.390 . S
C377 H404 0.949 1_545 S
C378 C377 1.390 . S
C378 C379 1.357 . S
C379 C378 1.357 . S
C379 C380 1.370 . S
C379 H405 0.950 . S
C380 N375 1.307 . S
C380 C379 1.370 . S
C380 H398 0.948 . S
Zn381 N375 2.020 . S
Zn381 O390 2.039 . S
Zn381 O396 2.034 . S
Zn381 O400 2.025 . S
Zn381 O402 2.024 . S
C382 O401 1.246 . S
C382 O402 1.249 . S
N383 C384 1.307 . S
N383 C385 1.333 . S
N383 Zn389 2.020 . S
C384 N383 1.307 . S
C384 C388 1.370 . S
C384 H395 0.948 . S
C385 N383 1.333 . S
C385 C386 1.379 . S
C385 H393 0.952 . S
C386 C385 1.379 . S
C386 C387 1.390 . S
C386 H406 0.949 . S
C387 C386 1.390 . S
C387 C388 1.357 . S
C388 C384 1.370 . S
C388 C387 1.357 . S
C388 H407 0.950 . S
Zn389 N383 2.020 . S
Zn389 O392 2.025 . S
Zn389 O397 2.024 . S
Zn389 O399 2.039 . S
Zn389 O401 2.034 . S
O390 C374 1.251 1_545 S
O390 Zn381 2.039 . S
C391 O396 1.246 . S
C391 O397 1.249 . S
O392 C374 1.254 1_545 S
O392 Zn389 2.025 . S
H393 C385 0.952 . S
H394 C376 0.952 . S
H395 C384 0.948 . S
O396 Zn381 2.034 . S
O396 C391 1.246 . S
O397 Zn389 2.024 . S
O397 C391 1.249 . S
H398 C380 0.948 . S
O399 Zn389 2.039 . S
O399 C403 1.251 . S
O400 Zn381 2.025 . S
O400 C403 1.254 . S
O401 C382 1.246 . S
O401 Zn389 2.034 . S
O402 Zn381 2.024 . S
O402 C382 1.249 . S
C403 O399 1.251 . S
C403 O400 1.254 . S
H404 C377 0.949 1_565 S
H405 C379 0.950 . S
H406 C386 0.949 . S
H407 C388 0.950 . S
C408 C409 1.363 . S
C408 C414 1.379 . S
C408 N416 1.356 . S
C409 C408 1.363 . S
C409 C415 1.363 . S
C410 C411 1.363 . S
C410 C415 1.379 . S
C410 N417 1.356 . S
C411 C410 1.363 . S
C411 C414 1.363 . S
N412 C414 1.356 . S
N412 H424 0.984 . S
N412 H425 0.985 . S
N413 C415 1.356 1_565 S
N413 H418 0.984 . S
N413 H419 0.985 . S
C414 C408 1.379 . S
C414 C411 1.363 . S
C414 N412 1.356 . S
C415 C409 1.363 . S
C415 C410 1.379 . S
C415 N413 1.356 1_545 S
N416 C408 1.356 . S
N416 H422 0.984 . S
N416 H423 0.984 1_545 S
N417 C410 1.356 . S
N417 H420 0.984 . S
N417 H421 0.985 . S
H418 N413 0.984 . S
H419 N413 0.985 . S
H420 N417 0.984 . S
H421 N417 0.985 . S
H422 N416 0.984 . S
H423 N416 0.984 1_565 S
H424 N412 0.984 . S
H425 N412 0.985 . S
C426 C427 1.363 . S
C426 C432 1.379 . S
C426 N434 1.356 . S
C427 C426 1.363 . S
C427 C433 1.363 . S
C428 C429 1.363 . S
C428 C433 1.379 . S
C428 N435 1.356 1_455 S
C429 C428 1.363 . S
C429 C432 1.363 . S
N430 C432 1.356 . S
N430 H442 0.984 . S
N430 H443 0.985 . S
N431 C433 1.356 . S
N431 H436 0.984 . S
N431 H437 0.985 . S
C432 C426 1.379 . S
C432 C429 1.363 . S
C432 N430 1.356 . S
C433 C427 1.363 . S
C433 C428 1.379 . S
C433 N431 1.356 . S
N434 C426 1.356 . S
N434 H440 0.984 . S
N434 H441 0.984 . S
N435 C428 1.356 1_655 S
N435 H438 0.984 . S
N435 H439 0.985 . S
H436 N431 0.984 . S
H437 N431 0.985 . S
H438 N435 0.984 . S
H439 N435 0.985 . S
H440 N434 0.984 . S
H441 N434 0.984 . S
H442 N430 0.984 . S
H443 N430 0.985 . S
C444 C445 1.363 . S
C444 C450 1.379 . S
C444 N452 1.356 1_545 S
C445 C444 1.363 . S
C445 C451 1.363 . S
C446 C447 1.363 . S
C446 C451 1.379 . S
C446 N453 1.356 . S
C447 C446 1.363 . S
C447 C450 1.363 . S
N448 C450 1.356 1_455 S
N448 H460 0.984 . S
N448 H461 0.985 . S
N449 C451 1.356 . S
N449 H454 0.984 . S
N449 H455 0.985 . S
C450 C444 1.379 . S
C450 C447 1.363 . S
C450 N448 1.356 1_655 S
C451 C445 1.363 . S
C451 C446 1.379 . S
C451 N449 1.356 . S
N452 C444 1.356 1_565 S
N452 H458 0.984 . S
N452 H459 0.984 . S
N453 C446 1.356 . S
N453 H456 0.984 1_655 S
N453 H457 0.985 . S
H454 N449 0.984 . S
H455 N449 0.985 . S
H456 N453 0.984 1_455 S
H457 N453 0.985 . S
H458 N452 0.984 . S
H459 N452 0.984 . S
H460 N448 0.984 . S
H461 N448 0.985 . S
C462 C463 1.363 . S
C462 C468 1.379 . S
C462 N470 1.356 . S
C463 C462 1.363 . S
C463 C469 1.363 . S
C464 C465 1.363 . S
C464 C469 1.379 . S
C464 N471 1.356 . S
C465 C464 1.363 . S
C465 C468 1.363 . S
N466 C468 1.356 1_545 S
N466 H478 0.984 . S
N466 H479 0.985 . S
N467 C469 1.356 . S
N467 H472 0.984 . S
N467 H473 0.985 . S
C468 C462 1.379 . S
C468 C465 1.363 . S
C468 N466 1.356 1_565 S
C469 C463 1.363 . S
C469 C464 1.379 . S
C469 N467 1.356 . S
N470 C462 1.356 . S
N470 H476 0.984 . S
N470 H477 0.984 . S
N471 C464 1.356 . S
N471 H474 0.984 1_565 S
N471 H475 0.985 . S
H472 N467 0.984 . S
H473 N467 0.985 . S
H474 N471 0.984 1_545 S
H475 N471 0.985 . S
H476 N470 0.984 . S
H477 N470 0.984 . S
H478 N466 0.984 . S
H479 N466 0.985 . S
C480 C481 1.363 . S
C480 C486 1.379 . S
C480 N488 1.356 . S
C481 C480 1.363 . S
C481 C487 1.363 . S
C482 C483 1.363 . S
C482 C487 1.379 . S
C482 N489 1.356 . S
C483 C482 1.363 . S
C483 C486 1.363 . S
N484 C486 1.356 . S
N484 H496 0.984 . S
N484 H497 0.985 . S
N485 C487 1.356 . S
N485 H490 0.984 . S
N485 H491 0.985 . S
C486 C480 1.379 . S
C486 C483 1.363 . S
C486 N484 1.356 . S
C487 C481 1.363 . S
C487 C482 1.379 . S
C487 N485 1.356 . S
N488 C480 1.356 . S
N488 H494 0.984 1_655 S
N488 H495 0.984 1_655 S
N489 C482 1.356 . S
N489 H492 0.984 . S
N489 H493 0.985 . S
H490 N485 0.984 . S
H491 N485 0.985 . S
H492 N489 0.984 . S
H493 N489 0.985 . S
H494 N488 0.984 1_455 S
H495 N488 0.984 1_455 S
H496 N484 0.984 . S
H497 N484 0.985 . S
C498 C499 1.363 . S
C498 C504 1.379 . S
C498 N506 1.356 . S
C499 C498 1.363 . S
C499 C505 1.363 . S
C500 C501 1.363 . S
C500 C505 1.379 . S
C500 N507 1.356 . S
C501 C500 1.363 . S
C501 C504 1.363 . S
N502 C504 1.356 . S
N502 H514 0.984 . S
N502 H515 0.985 . S
N503 C505 1.356 1_655 S
N503 H508 0.984 . S
N503 H509 0.985 . S
C504 C498 1.379 . S
C504 C501 1.363 . S
C504 N502 1.356 . S
C505 C499 1.363 . S
C505 C500 1.379 . S
C505 N503 1.356 1_455 S
N506 C498 1.356 . S
N506 H512 0.984 . S
N506 H513 0.984 1_455 S
N507 C500 1.356 . S
N507 H510 0.984 1_565 S
N507 H511 0.985 1_565 S
H508 N503 0.984 . S
H509 N503 0.985 . S
H510 N507 0.984 1_545 S
H511 N507 0.985 1_545 S
H512 N506 0.984 . S
H513 N506 0.984 1_655 S
H514 N502 0.984 . S
H515 N502 0.985 . S
C516 C517 1.363 . S
C516 C522 1.379 . S
C516 N524 1.356 . S
C517 C516 1.363 . S
C517 C523 1.363 . S
C518 C519 1.363 . S
C518 C523 1.379 . S
C518 N525 1.356 . S
C519 C518 1.363 . S
C519 C522 1.363 . S
N520 C522 1.356 . S
N520 H532 0.984 . S
N520 H533 0.985 . S
N521 C523 1.356 1_455 S
N521 H526 0.984 . S
N521 H527 0.985 . S
C522 C516 1.379 . S
C522 C519 1.363 . S
C522 N520 1.356 . S
C523 C517 1.363 . S
C523 C518 1.379 . S
C523 N521 1.356 1_655 S
N524 C516 1.356 . S
N524 H530 0.984 . S
N524 H531 0.984 1_655 S
N525 C518 1.356 . S
N525 H528 0.984 . S
N525 H529 0.985 . S
H526 N521 0.984 . S
H527 N521 0.985 . S
H528 N525 0.984 . S
H529 N525 0.985 . S
H530 N524 0.984 . S
H531 N524 0.984 1_455 S
H532 N520 0.984 . S
H533 N520 0.985 . S
C534 C535 1.363 . S
C534 C540 1.379 . S
C534 N542 1.356 . S
C535 C534 1.363 . S
C535 C541 1.363 . S
C536 C537 1.363 . S
C536 C541 1.379 . S
C536 N543 1.356 1_565 S
C537 C536 1.363 . S
C537 C540 1.363 . S
N538 C540 1.356 . S
N538 H550 0.984 . S
N538 H551 0.985 1_565 S
N539 C541 1.357 1_655 S
N539 H544 0.984 . S
N539 H545 0.984 . S
C540 C534 1.379 . S
C540 C537 1.363 . S
C540 N538 1.356 . S
C541 C535 1.363 . S
C541 C536 1.379 . S
C541 N539 1.357 1_455 S
N542 C534 1.356 . S
N542 H548 0.984 . S
N542 H549 0.984 . S
N543 C536 1.356 1_545 S
N543 H546 0.984 . S
N543 H547 0.985 . S
H544 N539 0.984 . S
H545 N539 0.984 . S
H546 N543 0.984 . S
H547 N543 0.985 . S
H548 N542 0.984 . S
H549 N542 0.984 . S
H550 N538 0.984 . S
H551 N538 0.985 1_545 S
C552 C553 1.363 . S
C552 C558 1.379 . S
C552 N560 1.356 . S
C553 C552 1.363 . S
C553 C559 1.363 . S
C554 C555 1.363 . S
C554 C559 1.379 . S
C554 N561 1.356 . S
C555 C554 1.363 . S
C555 C558 1.363 . S
N556 C558 1.356 . S
N556 H568 0.984 . S
N556 H569 0.985 . S
N557 C559 1.356 . S
N557 H562 0.984 . S
N557 H563 0.985 . S
C558 C552 1.379 . S
C558 C555 1.363 . S
C558 N556 1.356 . S
C559 C553 1.363 . S
C559 C554 1.379 . S
C559 N557 1.356 . S
N560 C552 1.356 . S
N560 H566 0.984 . S
N560 H567 0.984 . S
N561 C554 1.356 . S
N561 H564 0.984 1_545 S
N561 H565 0.985 . S
H562 N557 0.984 . S
H563 N557 0.985 . S
H564 N561 0.984 1_565 S
H565 N561 0.985 . S
H566 N560 0.984 . S
H567 N560 0.984 . S
H568 N556 0.984 . S
H569 N556 0.985 . S
C570 C571 1.363 . S
C570 C576 1.379 . S
C570 N578 1.356 . S
C571 C570 1.363 . S
C571 C577 1.363 . S
C572 C573 1.363 . S
C572 C577 1.379 . S
C572 N579 1.356 1_455 S
C573 C572 1.363 . S
C573 C576 1.363 . S
N574 C576 1.356 1_655 S
N574 H586 0.984 1_655 S
N574 H587 0.985 . S
N575 C577 1.356 . S
N575 H580 0.984 . S
N575 H581 0.985 . S
C576 C570 1.379 . S
C576 C573 1.363 . S
C576 N574 1.356 1_455 S
C577 C571 1.363 . S
C577 C572 1.379 . S
C577 N575 1.356 . S
N578 C570 1.356 . S
N578 H584 0.984 . S
N578 H585 0.984 . S
N579 C572 1.356 1_655 S
N579 H582 0.984 . S
N579 H583 0.985 . S
H580 N575 0.984 . S
H581 N575 0.985 . S
H582 N579 0.984 . S
H583 N579 0.985 . S
H584 N578 0.984 . S
H585 N578 0.984 . S
H586 N574 0.984 1_455 S
H587 N574 0.985 . S
C588 C589 1.363 . S
C588 C594 1.379 . S
C588 N596 1.356 1_655 S
C589 C588 1.363 . S
C589 C595 1.363 . S
C590 C591 1.363 . S
C590 C595 1.379 . S
C590 N597 1.356 . S
C591 C590 1.363 . S
C591 C594 1.363 . S
N592 C594 1.356 1_565 S
N592 H604 0.984 . S
N592 H605 0.985 . S
N593 C595 1.356 . S
N593 H598 0.984 . S
N593 H599 0.985 . S
C594 C588 1.379 . S
C594 C591 1.363 . S
C594 N592 1.356 1_545 S
C595 C589 1.363 . S
C595 C590 1.379 . S
C595 N593 1.356 . S
N596 C588 1.356 1_455 S
N596 H602 0.984 . S
N596 H603 0.984 . S
N597 C590 1.356 . S
N597 H600 0.984 1_545 S
N597 H601 0.985 . S
H598 N593 0.984 . S
H599 N593 0.985 . S
H600 N597 0.984 1_565 S
H601 N597 0.985 . S
H602 N596 0.984 . S
H603 N596 0.984 . S
H604 N592 0.984 . S
H605 N592 0.985 . S
C606 C607 1.363 . S
C606 C612 1.379 . S
C606 N614 1.356 . S
C607 C606 1.363 . S
C607 C613 1.363 . S
C608 C609 1.363 . S
C608 C613 1.379 . S
C608 N615 1.356 . S
C609 C608 1.363 . S
C609 C612 1.363 . S
N610 C612 1.356 . S
N610 H622 0.984 . S
N610 H623 0.985 . S
N611 C613 1.356 . S
N611 H616 0.984 . S
N611 H617 0.985 . S
C612 C606 1.379 . S
C612 C609 1.363 . S
C612 N610 1.356 . S
C613 C607 1.363 . S
C613 C608 1.379 . S
C613 N611 1.356 . S
N614 C606 1.356 . S
N614 H620 0.984 . S
N614 H621 0.984 . S
N615 C608 1.356 . S
N615 H618 0.984 . S
N615 H619 0.985 . S
H616 N611 0.984 . S
H617 N611 0.985 . S
H618 N615 0.984 . S
H619 N615 0.985 . S
H620 N614 0.984 . S
H621 N614 0.984 . S
H622 N610 0.984 . S
H623 N610 0.985 . S
C624 C625 1.363 . S
C624 C630 1.379 . S
C624 N632 1.356 . S
C625 C624 1.363 . S
C625 C631 1.363 . S
C626 C627 1.363 . S
C626 C631 1.379 . S
C626 N633 1.356 . S
C627 C626 1.363 . S
C627 C630 1.363 . S
N628 C630 1.356 . S
N628 H640 0.984 . S
N628 H641 0.985 . S
N629 C631 1.356 . S
N629 H634 0.984 . S
N629 H635 0.985 . S
C630 C624 1.379 . S
C630 C627 1.363 . S
C630 N628 1.356 . S
C631 C625 1.363 . S
C631 C626 1.379 . S
C631 N629 1.356 . S
N632 C624 1.356 . S
N632 H638 0.984 . S
N632 H639 0.984 . S
N633 C626 1.356 . S
N633 H636 0.984 . S
N633 H637 0.985 . S
H634 N629 0.984 . S
H635 N629 0.985 . S
H636 N633 0.984 . S
H637 N633 0.985 . S
H638 N632 0.984 . S
H639 N632 0.984 . S
H640 N628 0.984 . S
H641 N628 0.985 . S
C642 C643 1.363 . S
C642 C648 1.379 . S
C642 N650 1.356 . S
C643 C642 1.363 . S
C643 C649 1.363 . S
C644 C645 1.363 . S
C644 C649 1.379 . S
C644 N651 1.356 . S
C645 C644 1.363 . S
C645 C648 1.363 . S
N646 C648 1.356 . S
N646 H658 0.984 . S
N646 H659 0.985 . S
N647 C649 1.356 . S
N647 H652 0.984 . S
N647 H653 0.985 . S
C648 C642 1.379 . S
C648 C645 1.363 . S
C648 N646 1.356 . S
C649 C643 1.363 . S
C649 C644 1.379 . S
C649 N647 1.356 . S
N650 C642 1.356 . S
N650 H656 0.984 . S
N650 H657 0.984 . S
N651 C644 1.356 . S
N651 H654 0.984 . S
N651 H655 0.985 . S
H652 N647 0.984 . S
H653 N647 0.985 . S
H654 N651 0.984 . S
H655 N651 0.985 . S
H656 N650 0.984 . S
H657 N650 0.984 . S
H658 N646 0.984 . S
H659 N646 0.985 . S
C660 C661 1.363 . S
C660 C666 1.379 . S
C660 N668 1.356 . S
C661 C660 1.363 . S
C661 C667 1.363 . S
C662 C663 1.363 . S
C662 C667 1.379 . S
C662 N669 1.356 . S
C663 C662 1.363 . S
C663 C666 1.363 . S
N664 C666 1.356 . S
N664 H676 0.984 . S
N664 H677 0.985 . S
N665 C667 1.356 . S
N665 H670 0.984 . S
N665 H671 0.985 . S
C666 C660 1.379 . S
C666 C663 1.363 . S
C666 N664 1.356 . S
C667 C661 1.363 . S
C667 C662 1.379 . S
C667 N665 1.356 . S
N668 C660 1.356 . S
N668 H674 0.984 . S
N668 H675 0.984 . S
N669 C662 1.356 . S
N669 H672 0.984 . S
N669 H673 0.985 . S
H670 N665 0.984 . S
H671 N665 0.985 . S
H672 N669 0.984 . S
H673 N669 0.985 . S
H674 N668 0.984 . S
H675 N668 0.984 . S
H676 N664 0.984 . S
H677 N664 0.985 . S
C678 C679 1.363 . S
C678 C684 1.379 . S
C678 N686 1.356 . S
C679 C678 1.363 . S
C679 C685 1.363 . S
C680 C681 1.363 . S
C680 C685 1.379 . S
C680 N687 1.356 . S
C681 C680 1.363 . S
C681 C684 1.363 . S
N682 C684 1.356 . S
N682 H694 0.984 . S
N682 H695 0.985 . S
N683 C685 1.356 . S
N683 H688 0.984 . S
N683 H689 0.985 . S
C684 C678 1.379 . S
C684 C681 1.363 . S
C684 N682 1.356 . S
C685 C679 1.363 . S
C685 C680 1.379 . S
C685 N683 1.356 . S
N686 C678 1.356 . S
N686 H692 0.984 . S
N686 H693 0.984 . S
N687 C680 1.356 . S
N687 H690 0.984 . S
N687 H691 0.985 1_655 S
H688 N683 0.984 . S
H689 N683 0.985 . S
H690 N687 0.984 . S
H691 N687 0.985 1_455 S
H692 N686 0.984 . S
H693 N686 0.984 . S
H694 N682 0.984 . S
H695 N682 0.985 . S
C696 C697 1.363 . S
C696 C702 1.379 . S
C696 N704 1.356 . S
C697 C696 1.363 . S
C697 C703 1.363 . S
C698 C699 1.363 . S
C698 C703 1.379 . S
C698 N705 1.356 . S
C699 C698 1.363 . S
C699 C702 1.363 . S
N700 C702 1.356 . S
N700 H712 0.984 . S
N700 H713 0.985 . S
N701 C703 1.356 . S
N701 H706 0.984 . S
N701 H707 0.985 . S
C702 C696 1.379 . S
C702 C699 1.363 . S
C702 N700 1.356 . S
C703 C697 1.363 . S
C703 C698 1.379 . S
C703 N701 1.356 . S
N704 C696 1.356 . S
N704 H710 0.984 1_565 S
N704 H711 0.984 . S
N705 C698 1.356 . S
N705 H708 0.984 . S
N705 H709 0.985 . S
H706 N701 0.984 . S
H707 N701 0.985 . S
H708 N705 0.984 . S
H709 N705 0.985 . S
H710 N704 0.984 1_545 S
H711 N704 0.984 . S
H712 N700 0.984 . S
H713 N700 0.985 . S
C714 C715 1.363 . S
C714 C720 1.379 . S
C714 N722 1.356 . S
C715 C714 1.363 . S
C715 C721 1.363 . S
C716 C717 1.363 . S
C716 C721 1.379 . S
C716 N723 1.356 . S
C717 C716 1.363 . S
C717 C720 1.363 . S
N718 C720 1.356 . S
N718 H730 0.984 . S
N718 H731 0.985 . S
N719 C721 1.356 . S
N719 H724 0.984 . S
N719 H725 0.985 . S
C720 C714 1.379 . S
C720 C717 1.363 . S
C720 N718 1.356 . S
C721 C715 1.363 . S
C721 C716 1.379 . S
C721 N719 1.356 . S
N722 C714 1.356 . S
N722 H728 0.984 . S
N722 H729 0.984 . S
N723 C716 1.356 . S
N723 H726 0.984 . S
N723 H727 0.985 . S
H724 N719 0.984 . S
H725 N719 0.985 . S
H726 N723 0.984 . S
H727 N723 0.985 . S
H728 N722 0.984 . S
H729 N722 0.984 . S
H730 N718 0.984 . S
H731 N718 0.985 . S
C732 C733 1.363 . S
C732 C738 1.379 . S
C732 N740 1.356 . S
C733 C732 1.363 . S
C733 C739 1.363 . S
C734 C735 1.363 . S
C734 C739 1.379 . S
C734 N741 1.356 . S
C735 C734 1.363 . S
C735 C738 1.363 . S
N736 C738 1.356 . S
N736 H748 0.984 . S
N736 H749 0.985 . S
N737 C739 1.356 . S
N737 H742 0.984 . S
N737 H743 0.985 . S
C738 C732 1.379 . S
C738 C735 1.363 . S
C738 N736 1.356 . S
C739 C733 1.363 . S
C739 C734 1.379 . S
C739 N737 1.356 . S
N740 C732 1.356 . S
N740 H746 0.984 . S
N740 H747 0.984 . S
N741 C734 1.356 . S
N741 H744 0.984 . S
N741 H745 0.985 . S
H742 N737 0.984 . S
H743 N737 0.985 . S
H744 N741 0.984 . S
H745 N741 0.985 . S
H746 N740 0.984 . S
H747 N740 0.984 . S
H748 N736 0.984 . S
H749 N736 0.985 . S
C750 C751 1.363 . S
C750 C756 1.379 . S
C750 N758 1.356 . S
C751 C750 1.363 . S
C751 C757 1.363 . S
C752 C753 1.363 . S
C752 C757 1.379 . S
C752 N759 1.356 . S
C753 C752 1.363 . S
C753 C756 1.363 . S
N754 C756 1.356 . S
N754 H766 0.984 . S
N754 H767 0.985 . S
N755 C757 1.356 . S
N755 H760 0.984 . S
N755 H761 0.985 . S
C756 C750 1.379 . S
C756 C753 1.363 . S
C756 N754 1.356 . S
C757 C751 1.363 . S
C757 C752 1.379 . S
C757 N755 1.356 . S
N758 C750 1.356 . S
N758 H764 0.984 . S
N758 H765 0.984 . S
N759 C752 1.356 . S
N759 H762 0.984 . S
N759 H763 0.985 . S
H760 N755 0.984 . S
H761 N755 0.985 . S
H762 N759 0.984 . S
H763 N759 0.985 . S
H764 N758 0.984 . S
H765 N758 0.984 . S
H766 N754 0.984 . S
H767 N754 0.985 . S
C768 C769 1.363 . S
C768 C774 1.379 . S
C768 N776 1.356 . S
C769 C768 1.363 . S
C769 C775 1.363 . S
C770 C771 1.363 . S
C770 C775 1.379 . S
C770 N777 1.356 . S
C771 C770 1.363 . S
C771 C774 1.363 . S
N772 C774 1.356 . S
N772 H784 0.984 . S
N772 H785 0.985 . S
N773 C775 1.356 . S
N773 H778 0.984 . S
N773 H779 0.985 . S
C774 C768 1.379 . S
C774 C771 1.363 . S
C774 N772 1.356 . S
C775 C769 1.363 . S
C775 C770 1.379 . S
C775 N773 1.356 . S
N776 C768 1.356 . S
N776 H782 0.984 . S
N776 H783 0.984 . S
N777 C770 1.356 . S
N777 H780 0.984 . S
N777 H781 0.985 . S
H778 N773 0.984 . S
H779 N773 0.985 . S
H780 N777 0.984 . S
H781 N777 0.985 . S
H782 N776 0.984 . S
H783 N776 0.984 . S
H784 N772 0.984 . S
H785 N772 0.985 . S
C786 C787 1.363 . S
C786 C792 1.379 . S
C786 N794 1.356 . S
C787 C786 1.363 . S
C787 C793 1.363 . S
C788 C789 1.363 . S
C788 C793 1.379 . S
C788 N795 1.356 . S
C789 C788 1.363 . S
C789 C792 1.363 . S
N790 C792 1.356 . S
N790 H802 0.984 . S
N790 H803 0.985 . S
N791 C793 1.356 . S
N791 H796 0.984 . S
N791 H797 0.985 . S
C792 C786 1.379 . S
C792 C789 1.363 . S
C792 N790 1.356 . S
C793 C787 1.363 . S
C793 C788 1.379 . S
C793 N791 1.356 . S
N794 C786 1.356 . S
N794 H800 0.984 1_545 S
N794 H801 0.984 . S
N795 C788 1.356 . S
N795 H798 0.984 . S
N795 H799 0.985 . S
H796 N791 0.984 . S
H797 N791 0.985 . S
H798 N795 0.984 . S
H799 N795 0.985 . S
H800 N794 0.984 1_565 S
H801 N794 0.984 . S
H802 N790 0.984 . S
H803 N790 0.985 . S
C804 C805 1.363 . S
C804 C810 1.379 . S
C804 N812 1.356 . S
C805 C804 1.363 . S
C805 C811 1.363 . S
C806 C807 1.363 . S
C806 C811 1.379 . S
C806 N813 1.356 . S
C807 C806 1.363 . S
C807 C810 1.363 . S
N808 C810 1.356 . S
N808 H820 0.984 . S
N808 H821 0.985 . S
N809 C811 1.356 . S
N809 H814 0.984 . S
N809 H815 0.985 . S
C810 C804 1.379 . S
C810 C807 1.363 . S
C810 N808 1.356 . S
C811 C805 1.363 . S
C811 C806 1.379 . S
C811 N809 1.356 . S
N812 C804 1.356 . S
N812 H818 0.984 . S
N812 H819 0.984 . S
N813 C806 1.356 . S
N813 H816 0.984 . S
N813 H817 0.985 . S
H814 N809 0.984 . S
H815 N809 0.985 . S
H816 N813 0.984 . S
H817 N813 0.985 . S
H818 N812 0.984 . S
H819 N812 0.984 . S
H820 N808 0.984 . S
H821 N808 0.985 . S
C822 C823 1.363 . S
C822 C828 1.379 . S
C822 N830 1.356 . S
C823 C822 1.363 . S
C823 C829 1.363 . S
C824 C825 1.363 . S
C824 C829 1.379 . S
C824 N831 1.356 . S
C825 C824 1.363 . S
C825 C828 1.363 . S
N826 C828 1.356 . S
N826 H838 0.984 . S
N826 H839 0.985 . S
N827 C829 1.356 . S
N827 H832 0.984 . S
N827 H833 0.985 . S
C828 C822 1.379 . S
C828 C825 1.363 . S
C828 N826 1.356 . S
C829 C823 1.363 . S
C829 C824 1.379 . S
C829 N827 1.356 . S
N830 C822 1.356 . S
N830 H836 0.984 1_655 S
N830 H837 0.984 . S
N831 C824 1.356 . S
N831 H834 0.984 . S
N831 H835 0.985 . S
H832 N827 0.984 . S
H833 N827 0.985 . S
H834 N831 0.984 . S
H835 N831 0.985 . S
H836 N830 0.984 1_455 S
H837 N830 0.984 . S
H838 N826 0.984 . S
H839 N826 0.985 . S
C840 C841 1.363 . S
C840 C846 1.379 . S
C840 N848 1.356 . S
C841 C840 1.363 . S
C841 C847 1.363 . S
C842 C843 1.363 . S
C842 C847 1.379 . S
C842 N849 1.356 . S
C843 C842 1.363 . S
C843 C846 1.363 . S
N844 C846 1.356 . S
N844 H856 0.984 . S
N844 H857 0.985 . S
N845 C847 1.356 . S
N845 H850 0.984 . S
N845 H851 0.985 . S
C846 C840 1.379 . S
C846 C843 1.363 . S
C846 N844 1.356 . S
C847 C841 1.363 . S
C847 C842 1.379 . S
C847 N845 1.356 . S
N848 C840 1.356 . S
N848 H854 0.984 . S
N848 H855 0.984 . S
N849 C842 1.356 . S
N849 H852 0.984 . S
N849 H853 0.985 . S
H850 N845 0.984 . S
H851 N845 0.985 . S
H852 N849 0.984 . S
H853 N849 0.985 . S
H854 N848 0.984 . S
H855 N848 0.984 . S
H856 N844 0.984 . S
H857 N844 0.985 . S
C858 C859 1.363 . S
C858 C864 1.379 . S
C858 N866 1.356 . S
C859 C858 1.363 . S
C859 C865 1.363 . S
C860 C861 1.363 . S
C860 C865 1.379 . S
C860 N867 1.356 . S
C861 C860 1.363 . S
C861 C864 1.363 . S
N862 C864 1.356 . S
N862 H874 0.984 . S
N862 H875 0.985 . S
N863 C865 1.356 . S
N863 H868 0.984 . S
N863 H869 0.985 . S
C864 C858 1.379 . S
C864 C861 1.363 . S
C864 N862 1.356 . S
C865 C859 1.363 . S
C865 C860 1.379 . S
C865 N863 1.356 . S
N866 C858 1.356 . S
N866 H872 0.984 . S
N866 H873 0.984 . S
N867 C860 1.356 . S
N867 H870 0.984 . S
N867 H871 0.985 . S
H868 N863 0.984 . S
H869 N863 0.985 . S
H870 N867 0.984 . S
H871 N867 0.985 . S
H872 N866 0.984 . S
H873 N866 0.984 . S
H874 N862 0.984 . S
H875 N862 0.985 . S
C876 C877 1.363 . S
C876 C882 1.379 . S
C876 N884 1.356 . S
C877 C876 1.363 . S
C877 C883 1.363 . S
C878 C879 1.363 . S
C878 C883 1.379 . S
C878 N885 1.356 . S
C879 C878 1.363 . S
C879 C882 1.363 . S
N880 C882 1.356 . S
N880 H892 0.984 . S
N880 H893 0.985 . S
N881 C883 1.356 . S
N881 H886 0.984 . S
N881 H887 0.985 . S
C882 C876 1.379 . S
C882 C879 1.363 . S
C882 N880 1.356 . S
C883 C877 1.363 . S
C883 C878 1.379 . S
C883 N881 1.356 . S
N884 C876 1.356 . S
N884 H890 0.984 . S
N884 H891 0.984 . S
N885 C878 1.356 . S
N885 H888 0.984 . S
N885 H889 0.985 . S
H886 N881 0.984 . S
H887 N881 0.985 . S
H888 N885 0.984 . S
H889 N885 0.985 . S
H890 N884 0.984 . S
H891 N884 0.984 . S
H892 N880 0.984 . S
H893 N880 0.985 . S
C894 C895 1.363 . S
C894 C900 1.379 . S
C894 N902 1.356 . S
C895 C894 1.363 . S
C895 C901 1.363 . S
C896 C897 1.363 . S
C896 C901 1.379 . S
C896 N903 1.356 . S
C897 C896 1.363 . S
C897 C900 1.363 . S
N898 C900 1.356 . S
N898 H910 0.984 . S
N898 H911 0.985 . S
N899 C901 1.356 . S
N899 H904 0.984 . S
N899 H905 0.985 . S
C900 C894 1.379 . S
C900 C897 1.363 . S
C900 N898 1.356 . S
C901 C895 1.363 . S
C901 C896 1.379 . S
C901 N899 1.356 . S
N902 C894 1.356 . S
N902 H908 0.984 . S
N902 H909 0.984 . S
N903 C896 1.356 . S
N903 H906 0.984 . S
N903 H907 0.985 . S
H904 N899 0.984 . S
H905 N899 0.985 . S
H906 N903 0.984 . S
H907 N903 0.985 . S
H908 N902 0.984 . S
H909 N902 0.984 . S
H910 N898 0.984 . S
H911 N898 0.985 . S
C912 C913 1.363 . S
C912 C918 1.379 . S
C912 N920 1.356 . S
C913 C912 1.363 . S
C913 C919 1.363 . S
C914 C915 1.363 . S
C914 C919 1.379 . S
C914 N921 1.356 . S
C915 C914 1.363 . S
C915 C918 1.363 . S
N916 C918 1.356 . S
N916 H928 0.984 1_455 S
N916 H929 0.985 . S
N917 C919 1.356 . S
N917 H922 0.984 . S
N917 H923 0.985 . S
C918 C912 1.379 . S
C918 C915 1.363 . S
C918 N916 1.356 . S
C919 C913 1.363 . S
C919 C914 1.379 . S
C919 N917 1.356 . S
N920 C912 1.356 . S
N920 H926 0.984 . S
N920 H927 0.984 . S
N921 C914 1.356 . S
N921 H924 0.984 . S
N921 H925 0.985 . S
H922 N917 0.984 . S
H923 N917 0.985 . S
H924 N921 0.984 . S
H925 N921 0.985 . S
H926 N920 0.984 . S
H927 N920 0.984 . S
H928 N916 0.984 1_655 S
H929 N916 0.985 . S
C930 C931 1.363 . S
C930 C936 1.379 . S
C930 N938 1.356 . S
C931 C930 1.363 . S
C931 C937 1.363 . S
C932 C933 1.363 . S
C932 C937 1.379 . S
C932 N939 1.356 . S
C933 C932 1.363 . S
C933 C936 1.363 . S
N934 C936 1.356 . S
N934 H946 0.984 . S
N934 H947 0.985 . S
N935 C937 1.356 . S
N935 H940 0.984 . S
N935 H941 0.985 . S
C936 C930 1.379 . S
C936 C933 1.363 . S
C936 N934 1.356 . S
C937 C931 1.363 . S
C937 C932 1.379 . S
C937 N935 1.356 . S
N938 C930 1.356 . S
N938 H944 0.984 . S
N938 H945 0.984 . S
N939 C932 1.356 . S
N939 H942 0.984 . S
N939 H943 0.985 . S
H940 N935 0.984 . S
H941 N935 0.985 . S
H942 N939 0.984 . S
H943 N939 0.985 . S
H944 N938 0.984 . S
H945 N938 0.984 . S
H946 N934 0.984 . S
H947 N934 0.985 . S
C948 C949 1.321 1_554 S
C948 C954 1.418 . S
C948 N956 1.346 1_554 S
C949 C948 1.321 1_556 S
C949 C955 1.363 . S
C950 C951 1.321 1_556 S
C950 C955 1.418 . S
C950 N957 1.346 1_556 S
C951 C950 1.321 1_554 S
C951 C954 1.363 . S
N952 C954 1.356 . S
N952 H964 0.984 . S
N952 H965 0.985 . S
N953 C955 1.356 . S
N953 H958 0.984 . S
N953 H959 0.985 . S
C954 C948 1.418 . S
C954 C951 1.363 . S
C954 N952 1.356 . S
C955 C949 1.363 . S
C955 C950 1.418 . S
C955 N953 1.356 . S
N956 C948 1.346 1_556 S
N956 H962 0.984 1_556 S
N956 H963 0.984 . S
N957 C950 1.346 1_554 S
N957 H960 0.984 . S
N957 H961 0.985 1_554 S
H958 N953 0.984 . S
H959 N953 0.985 . S
H960 N957 0.984 . S
H961 N957 0.985 1_556 S
H962 N956 0.984 1_554 S
H963 N956 0.984 . S
H964 N952 0.984 . S
H965 N952 0.985 . S
C966 C967 1.363 . S
C966 C972 1.379 . S
C966 N974 1.356 . S
C967 C966 1.363 . S
C967 C973 1.363 1_455 S
C968 C969 1.363 . S
C968 C973 1.379 . S
C968 N975 1.356 . S
C969 C968 1.363 . S
C969 C972 1.363 1_655 S
N970 C972 1.356 . S
N970 H982 0.984 . S
N970 H983 0.985 1_455 S
N971 C973 1.356 . S
N971 H976 0.984 1_655 S
N971 H977 0.985 . S
C972 C966 1.379 . S
C972 C969 1.363 1_455 S
C972 N970 1.356 . S
C973 C967 1.363 1_655 S
C973 C968 1.379 . S
C973 N971 1.356 . S
N974 C966 1.356 . S
N974 H980 0.984 . S
N974 H981 0.984 . S
N975 C968 1.356 . S
N975 H978 0.984 . S
N975 H979 0.985 . S
H976 N971 0.984 1_455 S
H977 N971 0.985 . S
H978 N975 0.984 . S
H979 N975 0.985 . S
H980 N974 0.984 . S
H981 N974 0.984 . S
H982 N970 0.984 . S
H983 N970 0.985 1_655 S
C984 C985 1.366 . S
C984 C990 1.375 1_554 S
C984 N992 1.357 . S
C985 C984 1.366 . S
C985 C991 1.363 1_565 S
C986 C987 1.367 . S
C986 C991 1.375 1_556 S
C986 N993 1.358 . S
C987 C986 1.367 . S
C987 C990 1.363 1_545 S
N988 C990 1.356 . S
N988 H1000 0.984 . S
N988 H1001 0.985 1_565 S
N989 C991 1.356 . S
N989 H994 0.984 1_545 S
N989 H995 0.985 . S
C990 C984 1.375 1_556 S
C990 C987 1.363 1_565 S
C990 N988 1.356 . S
C991 C985 1.363 1_545 S
C991 C986 1.375 1_554 S
C991 N989 1.356 . S
N992 C984 1.357 . S
N992 H998 0.984 1_554 S
N992 H999 0.984 . S
N993 C986 1.358 . S
N993 H996 0.984 . S
N993 H997 0.985 1_556 S
H994 N989 0.984 1_565 S
H995 N989 0.985 . S
H996 N993 0.984 . S
H997 N993 0.985 1_554 S
H998 N992 0.984 1_556 S
H999 N992 0.984 . S
H1000 N988 0.984 . S
H1001 N988 0.985 1_545 S
C1002 C1003 1.363 . S
C1002 C1008 1.379 . S
C1002 N1010 1.356 . S
C1003 C1002 1.363 . S
C1003 C1009 1.363 . S
C1004 C1005 1.363 . S
C1004 C1009 1.379 . S
C1004 N1011 1.356 . S
C1005 C1004 1.363 . S
C1005 C1008 1.363 . S
N1006 C1008 1.356 . S
N1006 H1018 0.984 . S
N1006 H1019 0.985 . S
N1007 C1009 1.356 . S
N1007 H1012 0.984 . S
N1007 H1013 0.985 . S
C1008 C1002 1.379 . S
C1008 C1005 1.363 . S
C1008 N1006 1.356 . S
C1009 C1003 1.363 . S
C1009 C1004 1.379 . S
C1009 N1007 1.356 . S
N1010 C1002 1.356 . S
N1010 H1016 0.984 . S
N1010 H1017 0.984 . S
N1011 C1004 1.356 . S
N1011 H1014 0.984 . S
N1011 H1015 0.985 . S
H1012 N1007 0.984 . S
H1013 N1007 0.985 . S
H1014 N1011 0.984 . S
H1015 N1011 0.985 . S
H1016 N1010 0.984 . S
H1017 N1010 0.984 . S
H1018 N1006 0.984 . S
H1019 N1006 0.985 . S
C1020 C1021 1.363 1_554 S
C1020 C1026 1.379 . S
C1020 N1028 1.356 1_554 S
C1021 C1020 1.363 1_556 S
C1021 C1027 1.363 1_655 S
C1022 C1023 1.363 1_556 S
C1022 C1027 1.379 . S
C1022 N1029 1.356 1_556 S
C1023 C1022 1.363 1_554 S
C1023 C1026 1.363 1_455 S
N1024 C1026 1.356 . S
N1024 H1036 0.984 . S
N1024 H1037 0.985 1_655 S
N1025 C1027 1.356 . S
N1025 H1030 0.984 1_455 S
N1025 H1031 0.985 . S
C1026 C1020 1.379 . S
C1026 C1023 1.363 1_655 S
C1026 N1024 1.356 . S
C1027 C1021 1.363 1_455 S
C1027 C1022 1.379 . S
C1027 N1025 1.356 . S
N1028 C1020 1.356 1_556 S
N1028 H1034 0.984 1_556 S
N1028 H1035 0.984 . S
N1029 C1022 1.356 1_554 S
N1029 H1032 0.984 . S
N1029 H1033 0.985 1_554 S
H1030 N1025 0.984 1_655 S
H1031 N1025 0.985 . S
H1032 N1029 0.984 . S
H1033 N1029 0.985 1_556 S
H1034 N1028 0.984 1_554 S
H1035 N1028 0.984 . S
H1036 N1024 0.984 . S
H1037 N1024 0.985 1_455 S
C1038 C1039 1.363 1_545 S
C1038 C1044 1.379 . S
C1038 N1046 1.354 1_545 S
C1039 C1038 1.363 1_565 S
C1039 C1045 1.363 . S
C1040 C1041 1.363 1_565 S
C1040 C1045 1.379 . S
C1040 N1047 1.353 1_565 S
C1041 C1040 1.363 1_545 S
C1041 C1044 1.363 . S
N1042 C1044 1.356 . S
N1042 H1054 0.984 . S
N1042 H1055 0.985 . S
N1043 C1045 1.356 . S
N1043 H1048 0.984 . S
N1043 H1049 0.985 . S
C1044 C1038 1.379 . S
C1044 C1041 1.363 . S
C1044 N1042 1.356 . S
C1045 C1039 1.363 . S
C1045 C1040 1.379 . S
C1045 N1043 1.356 . S
N1046 C1038 1.354 1_565 S
N1046 H1052 0.983 1_565 S
N1046 H1053 0.988 . S
N1047 C1040 1.353 1_545 S
N1047 H1050 0.990 . S
N1047 H1051 0.983 1_545 S
H1048 N1043 0.984 . S
H1049 N1043 0.985 . S
H1050 N1047 0.990 . S
H1051 N1047 0.983 1_565 S
H1052 N1046 0.983 1_545 S
H1053 N1046 0.988 . S
H1054 N1042 0.984 . S
H1055 N1042 0.985 . S
C409 C144 1.127 1_545 S
C411 C0 1.103 . S
C427 C178 1.127 . S
C429 C34 1.103 . S
C445 C68 1.103 . S
C447 C8 1.127 1_655 S
C463 C102 1.103 . S
C465 C42 1.127 1_565 S
C481 C136 1.103 . S
C483 C76 1.127 . S
C499 C110 1.127 1_455 S
C501 C170 1.103 . S
C517 C280 1.127 1_655 S
C519 C204 1.103 . S
C535 C238 1.103 . S
C537 C314 1.127 1_565 S
C553 C348 1.127 . S
C555 C272 1.103 . S
C571 C306 1.103 . S
C573 C382 1.127 1_455 S
C589 C340 1.103 . S
C591 C212 1.127 1_545 S
C607 C246 1.127 . S
C609 C374 1.103 . S
C625 C153 1.267 . S
C627 C29 1.287 . S
C643 C63 1.287 . S
C645 C187 1.267 . S
C661 C97 1.287 . S
C663 C17 1.267 . S
C679 C131 1.287 . S
C681 C51 1.267 . S
C697 C85 1.267 . S
C699 C165 1.287 . S
C715 C119 1.267 . S
C717 C199 1.287 . S
C733 C289 1.267 . S
C735 C233 1.287 . S
C751 C267 1.287 . S
C753 C323 1.267 . S
C769 C301 1.287 . S
C771 C357 1.267 . S
C787 C391 1.267 . S
C789 C335 1.287 . S
C805 C369 1.287 . S
C807 C221 1.267 . S
C823 C255 1.267 . S
C825 C403 1.287 . S
C841 C353 1.558 . S
C843 C13 1.558 . S
C859 C47 1.558 . S
C861 C387 1.558 . S
C877 C81 1.558 . S
C879 C217 1.558 . S
C895 C115 1.558 . S
C897 C251 1.558 . S
C913 C149 1.558 . S
C915 C285 1.558 . S
C931 C319 1.558 . S
C933 C183 1.558 . S
C949 C310 1.765 . S
C951 C4 1.765 . S
C967 C344 1.765 . S
C969 C38 1.765 . S
C985 C72 1.765 . S
C987 C378 1.765 . S
C1003 C106 1.764 . S
C1005 C208 1.764 . S
C1021 C242 1.765 . S
C1023 C140 1.765 . S
C1039 C276 1.765 . S
C1041 C174 1.765 . S
