# Generated by pormake.
# Topology whw, (6)-cn, num edge types: 1
# Building blocks:
#     Node 0, Type 0, BuildingBlock: BETGAK_clean_sbu_0, # of connection points: 6
#     Node 1, Type 0, BuildingBlock: BETGAK_clean_sbu_0, # of connection points: 6
#     Node 2, Type 0, BuildingBlock: BETGAK_clean_sbu_0, # of connection points: 6
#     Node 3, Type 0, BuildingBlock: BETGAK_clean_sbu_0, # of connection points: 6
#     Node 4, Type 0, BuildingBlock: BETGAK_clean_sbu_0, # of connection points: 6
#     Node 5, Type 0, BuildingBlock: BETGAK_clean_sbu_0, # of connection points: 6
#     Node 6, Type 0, BuildingBlock: BETGAK_clean_sbu_0, # of connection points: 6
#     Node 7, Type 0, BuildingBlock: BETGAK_clean_sbu_0, # of connection points: 6
#     Node 8, Type 0, BuildingBlock: BETGAK_clean_sbu_0, # of connection points: 6
#     Node 9, Type 0, BuildingBlock: BETGAK_clean_sbu_0, # of connection points: 6
#     Node 10, Type 0, BuildingBlock: BETGAK_clean_sbu_0, # of connection points: 6
#     Node 11, Type 0, BuildingBlock: BETGAK_clean_sbu_0, # of connection points: 6
#     Node 12, Type 0, BuildingBlock: BETGAK_clean_sbu_0, # of connection points: 6
#     Node 13, Type 0, BuildingBlock: BETGAK_clean_sbu_0, # of connection points: 6
#     Node 14, Type 0, BuildingBlock: BETGAK_clean_sbu_0, # of connection points: 6
#     Node 15, Type 0, BuildingBlock: BETGAK_clean_sbu_0, # of connection points: 6
#     Edge 16, Type (0, 0), BuildingBlock: UVAHIK_clean_linker_0, # of connection points: 2
#     Edge 17, Type (0, 0), BuildingBlock: UVAHIK_clean_linker_0, # of connection points: 2
#     Edge 18, Type (0, 0), BuildingBlock: UVAHIK_clean_linker_0, # of connection points: 2
#     Edge 19, Type (0, 0), BuildingBlock: UVAHIK_clean_linker_0, # of connection points: 2
#     Edge 20, Type (0, 0), BuildingBlock: UVAHIK_clean_linker_0, # of connection points: 2
#     Edge 21, Type (0, 0), BuildingBlock: UVAHIK_clean_linker_0, # of connection points: 2
#     Edge 22, Type (0, 0), BuildingBlock: UVAHIK_clean_linker_0, # of connection points: 2
#     Edge 23, Type (0, 0), BuildingBlock: UVAHIK_clean_linker_0, # of connection points: 2
#     Edge 24, Type (0, 0), BuildingBlock: UVAHIK_clean_linker_0, # of connection points: 2
#     Edge 25, Type (0, 0), BuildingBlock: UVAHIK_clean_linker_0, # of connection points: 2
#     Edge 26, Type (0, 0), BuildingBlock: UVAHIK_clean_linker_0, # of connection points: 2
#     Edge 27, Type (0, 0), BuildingBlock: UVAHIK_clean_linker_0, # of connection points: 2
#     Edge 28, Type (0, 0), BuildingBlock: UVAHIK_clean_linker_0, # of connection points: 2
#     Edge 29, Type (0, 0), BuildingBlock: UVAHIK_clean_linker_0, # of connection points: 2
#     Edge 30, Type (0, 0), BuildingBlock: UVAHIK_clean_linker_0, # of connection points: 2
#     Edge 31, Type (0, 0), BuildingBlock: UVAHIK_clean_linker_0, # of connection points: 2
#     Edge 32, Type (0, 0), BuildingBlock: UVAHIK_clean_linker_0, # of connection points: 2
#     Edge 33, Type (0, 0), BuildingBlock: UVAHIK_clean_linker_0, # of connection points: 2
#     Edge 34, Type (0, 0), BuildingBlock: UVAHIK_clean_linker_0, # of connection points: 2
#     Edge 35, Type (0, 0), BuildingBlock: UVAHIK_clean_linker_0, # of connection points: 2
#     Edge 36, Type (0, 0), BuildingBlock: UVAHIK_clean_linker_0, # of connection points: 2
#     Edge 37, Type (0, 0), BuildingBlock: UVAHIK_clean_linker_0, # of connection points: 2
#     Edge 38, Type (0, 0), BuildingBlock: UVAHIK_clean_linker_0, # of connection points: 2
#     Edge 39, Type (0, 0), BuildingBlock: UVAHIK_clean_linker_0, # of connection points: 2
#     Edge 40, Type (0, 0), BuildingBlock: UVAHIK_clean_linker_0, # of connection points: 2
#     Edge 41, Type (0, 0), BuildingBlock: UVAHIK_clean_linker_0, # of connection points: 2
#     Edge 42, Type (0, 0), BuildingBlock: UVAHIK_clean_linker_0, # of connection points: 2
#     Edge 43, Type (0, 0), BuildingBlock: UVAHIK_clean_linker_0, # of connection points: 2
#     Edge 44, Type (0, 0), BuildingBlock: UVAHIK_clean_linker_0, # of connection points: 2
#     Edge 45, Type (0, 0), BuildingBlock: UVAHIK_clean_linker_0, # of connection points: 2
#     Edge 46, Type (0, 0), BuildingBlock: UVAHIK_clean_linker_0, # of connection points: 2
#     Edge 47, Type (0, 0), BuildingBlock: UVAHIK_clean_linker_0, # of connection points: 2
#     Edge 48, Type (0, 0), BuildingBlock: UVAHIK_clean_linker_0, # of connection points: 2
#     Edge 49, Type (0, 0), BuildingBlock: UVAHIK_clean_linker_0, # of connection points: 2
#     Edge 50, Type (0, 0), BuildingBlock: UVAHIK_clean_linker_0, # of connection points: 2
#     Edge 51, Type (0, 0), BuildingBlock: UVAHIK_clean_linker_0, # of connection points: 2
#     Edge 52, Type (0, 0), BuildingBlock: UVAHIK_clean_linker_0, # of connection points: 2
#     Edge 53, Type (0, 0), BuildingBlock: UVAHIK_clean_linker_0, # of connection points: 2
#     Edge 54, Type (0, 0), BuildingBlock: UVAHIK_clean_linker_0, # of connection points: 2
#     Edge 55, Type (0, 0), BuildingBlock: UVAHIK_clean_linker_0, # of connection points: 2
#     Edge 56, Type (0, 0), BuildingBlock: UVAHIK_clean_linker_0, # of connection points: 2
#     Edge 57, Type (0, 0), BuildingBlock: UVAHIK_clean_linker_0, # of connection points: 2
#     Edge 58, Type (0, 0), BuildingBlock: UVAHIK_clean_linker_0, # of connection points: 2
#     Edge 59, Type (0, 0), BuildingBlock: UVAHIK_clean_linker_0, # of connection points: 2
#     Edge 60, Type (0, 0), BuildingBlock: UVAHIK_clean_linker_0, # of connection points: 2
#     Edge 61, Type (0, 0), BuildingBlock: UVAHIK_clean_linker_0, # of connection points: 2
#     Edge 62, Type (0, 0), BuildingBlock: UVAHIK_clean_linker_0, # of connection points: 2
#     Edge 63, Type (0, 0), BuildingBlock: UVAHIK_clean_linker_0, # of connection points: 2
# Relax obj value: 0.392
# Max RMSD: 0.222
# Mean RMSD: 0.204
data_MOF--net-whw--node1-BETGAK_clean_sbu_0--edge1-UVAHIK_clean_linker_0
_symmetry_space_group_name_H-M    P1
_symmetry_Int_Tables_number       1
_symmetry_cell_setting            triclinic
loop_
_symmetry_equiv_pos_as_xyz
'x, y, z'
_cell_length_a     60.61279
_cell_length_b     59.97098
_cell_length_c     41.775671
_cell_angle_alpha  90.007818
_cell_angle_beta   99.517674
_cell_angle_gamma 96.516047
loop_
_atom_site_label
_atom_site_type_symbol
_atom_site_fract_x
_atom_site_fract_y
_atom_site_fract_z
_atom_type_partial_charge
La0 La 0.06146 0.14694 0.15218 0.0
La1 La 0.01387 0.13894 0.16136 0.0
C2 C 0.09899 0.14327 0.13579 0.0
C3 C 0.10832 0.13648 0.10756 0.0
C4 C 0.10047 0.14366 0.07622 0.0
C5 C 0.11042 0.13763 0.05014 0.0
C6 C 0.12822 0.12415 0.05491 0.0
C7 C 0.13557 0.11653 0.08625 0.0
C8 C 0.12573 0.12271 0.11233 0.0
C9 C 0.04624 0.18133 0.1772 0.0
C10 C 0.02182 0.15753 0.09374 0.0
C11 C 0.97624 0.13541 0.17965 0.0
C12 C 0.96947 0.13987 0.21077 0.0
C13 C 0.95126 0.12656 0.22025 0.0
C14 C 0.94676 0.12856 0.25175 0.0
C15 C 0.96039 0.14402 0.27405 0.0
C16 C 0.97795 0.15807 0.26379 0.0
C17 C 0.98264 0.15576 0.23257 0.0
C18 C 0.02666 0.10666 0.12814 0.0
C19 C 0.0535 0.14229 0.2245 0.0
O20 O 0.0896 0.16198 0.13385 0.0
O21 O 0.08749 0.12721 0.14938 0.0
O22 O 0.06695 0.17704 0.18469 0.0
O23 O 0.03617 0.16758 0.15578 0.0
O24 O 0.04308 0.15288 0.10216 0.0
O25 O 0.0078 0.15572 0.11507 0.0
O26 O 0.98853 0.11879 0.17983 0.0
O27 O 0.98425 0.15301 0.16482 0.0
O28 O 0.00714 0.11374 0.12305 0.0
O29 O 0.03847 0.11675 0.1531 0.0
O30 O 0.03184 0.14297 0.21256 0.0
O31 O 0.06815 0.14059 0.20457 0.0
H32 H 0.08693 0.15419 0.07196 0.0
H33 H 0.10455 0.14406 1.0264 0.0
H34 H 0.14898 0.10587 0.09066 0.0
H35 H 0.13187 0.11688 0.13636 0.0
H36 H 0.94114 0.11399 0.20375 0.0
H37 H 0.93329 0.11729 0.25901 0.0
H38 H 0.98851 0.17044 0.28013 0.0
H39 H 0.99707 0.16578 0.22587 0.0
La40 La 0.12793 0.76393 0.36496 0.0
La41 La 0.123 0.71696 0.3394 0.0
C42 C 0.12348 0.80354 0.38007 0.0
C43 C 0.11907 0.81388 0.40973 0.0
C44 C 0.12982 0.83526 0.41954 0.0
C45 C 0.12808 0.84416 0.44976 0.0
C46 C 0.11543 0.83181 0.47051 0.0
C47 C 0.10395 0.81071 0.45992 0.0
C48 C 0.10596 0.80172 0.42994 0.0
C49 C 0.16551 0.74969 0.35238 0.0
C50 C 0.1265 0.72593 0.41837 0.0
C51 C 0.13639 0.68038 0.32669 0.0
C52 C 0.14823 0.67291 0.30138 0.0
C53 C 0.14256 0.65119 0.28812 0.0
C54 C 0.15195 0.64466 0.26174 0.0
C55 C 0.16724 0.65979 0.2482 0.0
C56 C 0.17369 0.68123 0.26263 0.0
C57 C 0.16416 0.68776 0.28887 0.0
C58 C 0.08498 0.72963 0.35157 0.0
C59 C 0.11131 0.75417 0.28802 0.0
O60 O 0.14294 0.79568 0.38286 0.0
O61 O 0.10707 0.78958 0.36435 0.0
O62 O 0.16425 0.76203 0.37726 0.0
O63 O 0.14618 0.74606 0.33556 0.0
O64 O 0.12544 0.74759 0.41203 0.0
O65 O 0.12696 0.71153 0.39386 0.0
O66 O 0.11584 0.68518 0.31654 0.0
O67 O 0.14803 0.69534 0.34769 0.0
O68 O 0.08604 0.7137 0.33082 0.0
O69 O 0.1047 0.73537 0.36554 0.0
O70 O 0.11646 0.73325 0.2919 0.0
O71 O 0.1136 0.76811 0.31338 0.0
H72 H 0.14023 0.84471 0.40434 0.0
H73 H 0.13737 0.86031 0.45735 0.0
H74 H 0.09375 0.80091 0.47504 0.0
H75 H 0.09777 0.78503 0.423 0.0
H76 H 0.13022 0.63954 0.29741 0.0
H77 H 0.14628 0.62817 0.25091 0.0
H78 H 0.18556 0.69321 0.25303 0.0
H79 H 0.16876 0.70463 0.29876 0.0
La80 La 0.49135 0.86992 0.67652 0.0
La81 La 0.50841 0.85901 0.61032 0.0
C82 C 0.48107 0.86246 0.73268 0.0
C83 C 0.47554 0.85722 0.76628 0.0
C84 C 0.46021 0.86873 0.77998 0.0
C85 C 0.45441 0.86297 0.81071 0.0
C86 C 0.46363 0.84536 0.8291 0.0
C87 C 0.47908 0.83397 0.81524 0.0
C88 C 0.48493 0.8398 0.78465 0.0
C89 C 0.50259 0.9056 0.64265 0.0
C90 C 0.5436 0.86405 0.67457 0.0
C91 C 0.51682 0.85589 0.55259 0.0
C92 C 0.52844 0.84509 0.52819 0.0
C93 C 0.52214 0.82267 0.51704 0.0
C94 C 0.53068 0.814 0.49062 0.0
C95 C 0.54566 0.82748 0.47399 0.0
C96 C 0.55231 0.84974 0.48577 0.0
C97 C 0.54385 0.85833 0.51222 0.0
C98 C 0.49651 0.82513 0.64684 0.0
C99 C 0.45825 0.86919 0.61196 0.0
O100 O 0.47269 0.87791 0.71354 0.0
O101 O 0.49576 0.85217 0.72037 0.0
O102 O 0.49057 0.90581 0.66581 0.0
O103 O 0.51067 0.88704 0.64324 0.0
O104 O 0.52722 0.86695 0.6912 0.0
O105 O 0.54081 0.86188 0.64249 0.0
O106 O 0.50005 0.84421 0.56344 0.0
O107 O 0.52853 0.86995 0.57488 0.0
O108 O 0.51193 0.82502 0.6287 0.0
O109 O 0.48784 0.84302 0.64233 0.0
O110 O 0.47599 0.87254 0.59687 0.0
O111 O 0.46003 0.86294 0.64262 0.0
H112 H 0.45253 0.88221 0.76685 0.0
H113 H 0.44276 0.8726 0.82012 0.0
H114 H 0.48648 0.82011 0.82769 0.0
H115 H 0.49673 0.83038 0.77521 0.0
H116 H 0.51005 0.81191 0.52812 0.0
H117 H 0.52482 0.79689 0.48249 0.0
H118 H 0.56403 0.86074 0.47439 0.0
H119 H 0.54892 0.87573 0.51959 0.0
La120 La 0.40171 0.243 0.96051 0.0
La121 La 0.40185 0.29011 0.93827 0.0
C122 C 0.40295 0.20643 0.98991 0.0
C123 C 0.40626 0.19985 1.02412 0.0
C124 C 0.4183 0.18171 1.03369 0.0
C125 C 0.42092 0.17481 0.06591 0.0
C126 C 0.41152 0.18599 0.0891 0.0
C127 C 0.39965 0.20432 0.07945 0.0
C128 C 0.39703 0.21119 0.04726 0.0
C129 C 0.3661 0.25034 0.91769 0.0
C130 C 0.40251 0.28294 1.01339 0.0
C131 C 0.39025 0.32503 0.91031 0.0
C132 C 0.37968 0.33125 0.87815 0.0
C133 C 0.37799 0.35392 0.87168 0.0
C134 C 0.37019 0.36053 0.84025 0.0
C135 C 0.36406 0.34448 0.81489 0.0
C136 C 0.36451 0.32157 0.82195 0.0
C137 C 0.37232 0.31499 0.85345 0.0
C138 C 0.43975 0.28206 0.97402 0.0
C139 C 0.41638 0.25225 0.89253 0.0
O140 O 0.38441 0.2154 0.97965 0.0
O141 O 0.42043 0.21708 0.97956 0.0
O142 O 0.37589 0.23229 0.91958 0.0
O143 O 0.37552 0.26358 0.94106 0.0
O144 O 0.40473 0.26163 1.00741 0.0
O145 O 0.39829 0.29689 0.98904 0.0
O146 O 0.41042 0.3187 0.91216 0.0
O147 O 0.37735 0.31203 0.92652 0.0
O148 O 0.43279 0.30175 0.97204 0.0
O149 O 0.42707 0.26891 0.95369 0.0
O150 O 0.40849 0.27212 0.8943 0.0
O151 O 0.41791 0.23877 0.91794 0.0
H152 H 0.42547 0.17272 1.01615 0.0
H153 H 0.42998 0.16049 0.07255 0.0
H154 H 0.39249 0.21347 0.09682 0.0
H155 H 0.38763 0.22524 0.04044 0.0
H156 H 0.38355 0.36661 0.89067 0.0
H157 H 0.37031 0.37829 0.83548 0.0
H158 H 0.35971 0.30886 0.80288 0.0
H159 H 0.37338 0.29736 0.85829 0.0
La160 La 0.03054 0.8703 0.90642 0.0
La161 La 0.98356 0.8605 0.91908 0.0
C162 C 0.0673 0.87817 0.88613 0.0
C163 C 0.07481 0.87722 0.85473 0.0
C164 C 0.09519 0.88937 0.85039 0.0
C165 C 0.10163 0.89011 0.81979 0.0
C166 C 0.08774 0.87863 0.79316 0.0
C167 C 0.06752 0.8661 0.79793 0.0
C168 C 0.06103 0.86561 0.82837 0.0
C169 C 0.01919 0.89899 0.94759 0.0
C170 C 0.9889 0.8675 0.8444 0.0
C171 C 0.94462 0.8666 0.92843 0.0
C172 C 0.93396 0.87227 0.95585 0.0
C173 C 0.94336 0.86751 0.9877 0.0
C174 C 0.93268 0.87255 1.01347 0.0
C175 C 0.91255 0.88265 1.00786 0.0
C176 C 0.9035 0.88782 0.97588 0.0
C177 C 0.91413 0.88262 0.95008 0.0
C178 C 1.00073 0.82539 0.89907 0.0
C179 C 0.02301 0.84648 0.97164 0.0
O180 O 0.05375 0.89343 0.88855 0.0
O181 O 0.06058 0.85882 0.89828 0.0
O182 O 0.03834 0.89134 0.95006 0.0
O183 O 0.00683 0.89087 0.9218 0.0
O184 O 0.01112 0.87113 0.8553 0.0
O185 O 0.97487 0.86341 0.86562 0.0
O186 O 0.95206 0.84694 0.92908 0.0
O187 O 0.95898 0.88242 0.91971 0.0
O188 O 0.98492 0.82376 0.91682 0.0
O189 O 0.00401 0.84547 0.89175 0.0
O190 O 0.00308 0.85448 0.96729 0.0
O191 O 0.03541 0.84763 0.948 0.0
H192 H 0.10587 0.89867 0.87051 0.0
H193 H 0.11718 0.9001 0.81684 0.0
H194 H 0.05661 0.85672 0.77812 0.0
H195 H 0.04507 0.85648 0.83108 0.0
H196 H 0.95877 0.85963 0.99257 0.0
H197 H 0.93992 0.86799 0.03771 0.0
H198 H 0.88821 0.89586 0.97079 0.0
H199 H 0.90682 0.88657 0.92558 0.0
La200 La 0.40968 0.78903 0.22495 0.0
La201 La 0.41077 0.7413 0.2052 0.0
C202 C 0.39558 0.82281 0.24686 0.0
C203 C 0.38406 0.82739 0.27386 0.0
C204 C 0.38065 0.81104 0.29707 0.0
C205 C 0.37037 0.81595 0.32338 0.0
C206 C 0.36323 0.83725 0.32672 0.0
C207 C 0.36569 0.85312 0.30236 0.0
C208 C 0.37609 0.84822 0.2762 0.0
C209 C 0.44698 0.78281 0.20384 0.0
C210 C 0.42809 0.75296 0.27831 0.0
C211 C 0.4131 0.70329 0.18151 0.0
C212 C 0.41536 0.69501 0.14957 0.0
C213 C 0.40661 0.67301 0.13981 0.0
C214 C 0.40657 0.66572 0.10809 0.0
C215 C 0.41529 0.68043 0.08586 0.0
C216 C 0.42447 0.70234 0.09612 0.0
C217 C 0.42437 0.70959 0.12767 0.0
C218 C 0.37546 0.7498 0.23085 0.0
C219 C 0.40551 0.77841 0.14922 0.0
O220 O 0.41637 0.81805 0.25463 0.0
O221 O 0.38371 0.80929 0.22422 0.0
O222 O 0.43893 0.802 0.20382 0.0
O223 O 0.43558 0.76906 0.2194 0.0
O224 O 0.41919 0.77234 0.27283 0.0
O225 O 0.42915 0.73925 0.25397 0.0
O226 O 0.39415 0.71154 0.1825 0.0
O227 O 0.43055 0.71602 0.19719 0.0
O228 O 0.38581 0.73225 0.2367 0.0
O229 O 0.38455 0.76163 0.21061 0.0
O230 O 0.40913 0.75761 0.15755 0.0
O231 O 0.40308 0.79345 0.17152 0.0
H232 H 0.3864 0.7947 0.29525 0.0
H233 H 0.36899 0.80342 0.34182 0.0
H234 H 0.36006 0.86953 0.30394 0.0
H235 H 0.37825 0.86085 0.25807 0.0
H236 H 0.39931 0.66169 0.15646 0.0
H237 H 0.39917 0.64883 0.10076 0.0
H238 H 0.43162 0.71398 0.07974 0.0
H239 H 0.43087 0.7267 0.13475 0.0
La240 La 0.52978 0.14085 0.46252 0.0
La241 La 0.54728 0.13102 0.39676 0.0
C242 C 0.52195 0.14381 0.52056 0.0
C243 C 0.50979 0.15415 0.54473 0.0
C244 C 0.51334 0.17731 0.55266 0.0
C245 C 0.5047 0.18609 0.5789 0.0
C246 C 0.49226 0.17208 0.59847 0.0
C247 C 0.48835 0.14897 0.58992 0.0
C248 C 0.49697 0.14023 0.56369 0.0
C249 C 0.54007 0.17521 0.42599 0.0
C250 C 0.58055 0.13302 0.46073 0.0
C251 C 0.55711 0.13862 0.34036 0.0
C252 C 0.56233 0.14406 0.30665 0.0
C253 C 0.57734 0.13253 0.29229 0.0
C254 C 0.58296 0.1386 0.26156 0.0
C255 C 0.57387 0.15655 0.24383 0.0
C256 C 0.55871 0.16793 0.25833 0.0
C257 C 0.55306 0.1618 0.28892 0.0
C258 C 0.53765 0.09524 0.43144 0.0
C259 C 0.49445 0.13442 0.39872 0.0
O260 O 0.53763 0.15651 0.50873 0.0
O261 O 0.51112 0.12864 0.49915 0.0
O262 O 0.52439 0.17439 0.44379 0.0
O263 O 0.54979 0.15793 0.43063 0.0
O264 O 0.56297 0.12876 0.47592 0.0
O265 O 0.57847 0.1396 0.43025 0.0
O266 O 0.56536 0.12288 0.35905 0.0
O267 O 0.54274 0.14902 0.35319 0.0
O268 O 0.55106 0.09593 0.40995 0.0
O269 O 0.52814 0.11297 0.42948 0.0
O270 O 0.51101 0.13214 0.38212 0.0
O271 O 0.49723 0.13677 0.43077 0.0
H272 H 0.5233 0.18869 0.53907 0.0
H273 H 0.50794 0.20397 0.58387 0.0
H274 H 0.47927 0.13731 0.60422 0.0
H275 H 0.49423 0.12228 0.55896 0.0
H276 H 0.58494 0.11882 0.30492 0.0
H277 H 0.59438 0.12897 0.25163 0.0
H278 H 0.55143 0.18204 0.24641 0.0
H279 H 0.54151 0.17127 0.29889 0.0
La280 La 0.14013 0.21459 0.63598 0.0
La281 La 0.13726 0.26125 0.6154 0.0
C282 C 0.15383 0.1805 0.66421 0.0
C283 C 0.16449 0.17475 0.69674 0.0
C284 C 0.16023 0.18561 0.7244 0.0
C285 C 0.16925 0.17877 0.75523 0.0
C286 C 0.18291 0.16113 0.75893 0.0
C287 C 0.188 0.15109 0.73103 0.0
C288 C 0.17879 0.15783 0.70017 0.0
C289 C 0.10196 0.21973 0.59879 0.0
C290 C 0.122 0.24989 0.6819 0.0
C291 C 0.13467 0.29833 0.58785 0.0
C292 C 0.13239 0.30597 0.55425 0.0
C293 C 0.14667 0.32466 0.5471 0.0
C294 C 0.14668 0.33111 0.51506 0.0
C295 C 0.13221 0.31907 0.48949 0.0
C296 C 0.11764 0.30046 0.49681 0.0
C297 C 0.11781 0.29389 0.52894 0.0
C298 C 0.1733 0.25552 0.65873 0.0
C299 C 0.13991 0.22344 0.56132 0.0
O300 O 0.13299 0.18521 0.66123 0.0
O301 O 0.1662 0.1944 0.64844 0.0
O302 O 0.1109 0.20104 0.601 0.0
O303 O 0.11286 0.23364 0.61988 0.0
O304 O 0.13135 0.23087 0.67993 0.0
O305 O 0.11986 0.26358 0.65688 0.0
O306 O 0.15364 0.29026 0.59834 0.0
O307 O 0.11733 0.28624 0.59664 0.0
O308 O 0.16183 0.27239 0.65778 0.0
O309 O 0.16507 0.24257 0.63455 0.0
O310 O 0.13585 0.24406 0.56797 0.0
O311 O 0.14522 0.20944 0.58531 0.0
H312 H 0.1494 0.19889 0.72221 0.0
H313 H 0.16466 0.18669 0.77609 0.0
H314 H 0.19872 0.13772 0.73301 0.0
H315 H 0.18247 0.1495 0.67896 0.0
H316 H 0.15827 0.33397 0.56632 0.0
H317 H 0.15837 0.34526 0.51033 0.0
H318 H 0.10605 0.29101 0.47777 0.0
H319 H 0.10681 0.27922 0.53391 0.0
La320 La 0.91044 0.28091 0.72788 0.0
La321 La 0.90503 0.23292 0.70584 0.0
C322 C 0.90194 0.3167 0.75212 0.0
C323 C 0.89052 0.32221 0.77885 0.0
C324 C 0.89334 0.34422 0.79108 0.0
C325 C 0.88276 0.3496 0.81683 0.0
C326 C 0.86899 0.33303 0.83062 0.0
C327 C 0.86575 0.31104 0.81755 0.0
C328 C 0.87661 0.30565 0.79208 0.0
C329 C 0.9463 0.26922 0.70728 0.0
C330 C 0.92434 0.24244 0.77934 0.0
C331 C 0.90176 0.19436 0.6803 0.0
C332 C 0.90791 0.18484 0.65134 0.0
C333 C 0.90386 0.16165 0.64512 0.0
C334 C 0.91023 0.15257 0.6177 0.0
C335 C 0.92105 0.16664 0.5968 0.0
C336 C 0.92495 0.18983 0.60308 0.0
C337 C 0.91816 0.19886 0.62999 0.0
C338 C 0.87172 0.24504 0.73316 0.0
C339 C 0.90686 0.27189 0.65237 0.0
O340 O 0.9211 0.30832 0.76027 0.0
O341 O 0.88894 0.30579 0.7276 0.0
O342 O 0.94116 0.28969 0.70717 0.0
O343 O 0.93284 0.25724 0.72185 0.0
O344 O 0.91772 0.2629 0.77482 0.0
O345 O 0.92338 0.22853 0.75438 0.0
O346 O 0.88592 0.2077 0.67503 0.0
O347 O 0.91869 0.20264 0.7022 0.0
O348 O 0.87952 0.22597 0.73653 0.0
O349 O 0.88186 0.25651 0.71351 0.0
O350 O 0.90804 0.25045 0.65973 0.0
O351 O 0.90513 0.28687 0.67505 0.0
H352 H 0.90405 0.35718 0.78108 0.0
H353 H 0.88609 0.36658 0.82669 0.0
H354 H 0.85515 0.29791 0.82734 0.0
H355 H 0.87435 0.28852 0.78294 0.0
H356 H 0.89582 0.15064 0.66142 0.0
H357 H 0.90694 0.13464 0.61295 0.0
H358 H 0.93294 0.201 0.58688 0.0
H359 H 0.92108 0.21675 0.63434 0.0
La360 La 0.63673 0.71079 0.13404 0.0
La361 La 0.63883 0.75794 0.11325 0.0
C362 C 0.64632 0.675 0.16145 0.0
C363 C 0.65711 0.66797 0.19315 0.0
C364 C 0.65228 0.64579 0.20242 0.0
C365 C 0.66175 0.63882 0.23293 0.0
C366 C 0.67636 0.65394 0.25464 0.0
C367 C 0.68167 0.67608 0.24476 0.0
C368 C 0.67197 0.68308 0.21431 0.0
C369 C 0.59943 0.72018 0.09793 0.0
C370 C 0.62308 0.74872 0.1804 0.0
C371 C 0.63966 0.79493 0.08488 0.0
C372 C 0.63587 0.80197 0.05096 0.0
C373 C 0.64911 0.82082 0.04194 0.0
C374 C 0.64717 0.82694 1.00947 0.0
C375 C 0.63184 0.81433 0.98537 0.0
C376 C 0.61848 0.79544 0.99459 0.0
C377 C 0.62053 0.78926 1.02712 0.0
C378 C 0.67364 0.74922 0.15673 0.0
C379 C 0.63673 0.71851 0.05922 0.0
O380 O 0.6269 0.68277 0.16064 0.0
O381 O 0.6595 0.68705 0.14451 0.0
O382 O 0.60576 0.70023 0.09978 0.0
O383 O 0.61227 0.73293 0.11863 0.0
O384 O 0.63038 0.7286 0.1783 0.0
O385 O 0.62229 0.7625 0.15537 0.0
O386 O 0.65736 0.78424 0.09297 0.0
O387 O 0.62212 0.78559 0.09656 0.0
O388 O 0.66424 0.76748 0.15521 0.0
O389 O 0.66426 0.73647 0.13277 0.0
O390 O 0.635 0.73985 0.06576 0.0
O391 O 0.64049 0.70423 0.08326 0.0
H392 H 0.6408 0.63396 0.18628 0.0
H393 H 0.65689 0.62182 0.23994 0.0
H394 H 0.693 0.68809 0.26076 0.0
H395 H 0.6758 0.70032 0.20747 0.0
H396 H 0.66128 0.83061 0.06 0.0
H397 H 0.65799 0.84134 1.00321 0.0
H398 H 0.60632 0.78551 0.97674 0.0
H399 H 0.61032 0.77446 1.03358 0.0
La400 La 0.62378 0.26558 0.86935 0.0
La401 La 0.62553 0.21823 0.8483 0.0
C402 C 0.62082 0.30335 0.89334 0.0
C403 C 0.61967 0.31239 0.92533 0.0
C404 C 0.62856 0.33462 0.93325 0.0
C405 C 0.62981 0.34293 0.96471 0.0
C406 C 0.62202 0.3291 0.98864 0.0
C407 C 0.61269 0.30688 0.98026 0.0
C408 C 0.6117 0.29855 0.94889 0.0
C409 C 0.6595 0.25847 0.84366 0.0
C410 C 0.63006 0.22802 0.92441 0.0
C411 C 0.63906 0.18456 0.82513 0.0
C412 C 0.65094 0.18017 0.79839 0.0
C413 C 0.65018 0.15816 0.78694 0.0
C414 C 0.66107 0.1537 0.76112 0.0
C415 C 0.67314 0.17121 0.74648 0.0
C416 C 0.67438 0.19325 0.7588 0.0
C417 C 0.66316 0.19771 0.78432 0.0
C418 C 0.58805 0.22366 0.86974 0.0
C419 C 0.60698 0.25461 0.79585 0.0
O420 O 0.63991 0.29581 0.89104 0.0
O421 O 0.60338 0.28985 0.87935 0.0
O422 O 0.64881 0.27587 0.83871 0.0
O423 O 0.65047 0.24583 0.86319 0.0
O424 O 0.62622 0.24887 0.91673 0.0
O425 O 0.63243 0.21331 0.90163 0.0
O426 O 0.61856 0.18998 0.81694 0.0
O427 O 0.65084 0.19725 0.84884 0.0
O428 O 0.59631 0.20463 0.86915 0.0
O429 O 0.59936 0.23765 0.85442 0.0
O430 O 0.61638 0.23549 0.80093 0.0
O431 O 0.60542 0.26785 0.8205 0.0
H432 H 0.63512 0.34536 0.91531 0.0
H433 H 0.63744 0.35998 0.97046 0.0
H434 H 0.60626 0.29585 0.99794 0.0
H435 H 0.60515 0.28123 0.94323 0.0
H436 H 0.64079 0.14445 0.79756 0.0
H437 H 0.65922 0.1366 0.75188 0.0
H438 H 0.68364 0.20712 0.74836 0.0
H439 H 0.66377 0.21485 0.79279 0.0
La440 La 0.90115 0.73842 0.45832 0.0
La441 La 0.90589 0.78538 0.43469 0.0
C442 C 0.89832 0.70198 0.48825 0.0
C443 C 0.9016 0.69496 0.52223 0.0
C444 C 0.89208 0.67367 0.52991 0.0
C445 C 0.89309 0.66741 0.5623 0.0
C446 C 0.90364 0.68241 0.58761 0.0
C447 C 0.91349 0.70364 0.5797 0.0
C448 C 0.91243 0.70986 0.54731 0.0
C449 C 0.86743 0.74799 0.41364 0.0
C450 C 0.90435 0.78026 0.50944 0.0
C451 C 0.8973 0.8202 0.404 0.0
C452 C 0.88731 0.82587 0.371 0.0
C453 C 0.89371 0.81652 0.34365 0.0
C454 C 0.88469 0.82296 0.3126 0.0
C455 C 0.86889 0.83867 0.30827 0.0
C456 C 0.86196 0.84737 0.33576 0.0
C457 C 0.87116 0.84107 0.36684 0.0
C458 C 0.94195 0.77492 0.47283 0.0
C459 C 0.91761 0.74508 0.39075 0.0
O460 O 0.88149 0.71384 0.48003 0.0
O461 O 0.91629 0.71009 0.47652 0.0
O462 O 0.87549 0.729 0.41657 0.0
O463 O 0.87744 0.76101 0.43693 0.0
O464 O 0.90504 0.75846 0.50441 0.0
O465 O 0.90168 0.79396 0.48449 0.0
O466 O 0.91696 0.81251 0.40758 0.0
O467 O 0.88346 0.80914 0.42095 0.0
O468 O 0.93726 0.7954 0.46856 0.0
O469 O 0.92868 0.76211 0.45266 0.0
O470 O 0.91181 0.76587 0.39196 0.0
O471 O 0.91724 0.73169 0.41618 0.0
H472 H 0.88339 0.66205 0.51085 0.0
H473 H 0.8851 0.65104 0.56752 0.0
H474 H 0.92203 0.71548 0.59854 0.0
H475 H 0.91972 0.72642 0.54197 0.0
H476 H 0.906 0.80459 0.34623 0.0
H477 H 0.89072 0.81617 0.29207 0.0
H478 H 0.8496 0.85922 0.33329 0.0
H479 H 0.86585 0.84827 0.38772 0.0
La480 La 0.55937 0.64763 0.64802 0.0
La481 La 0.51218 0.63984 0.65733 0.0
C482 C 0.59673 0.6434 0.63148 0.0
C483 C 0.60618 0.63572 0.6039 0.0
C484 C 0.59782 0.64116 0.57188 0.0
C485 C 0.60795 0.63428 0.54642 0.0
C486 C 0.62645 0.62174 0.55261 0.0
C487 C 0.63423 0.61578 0.58466 0.0
C488 C 0.6242 0.62277 0.61006 0.0
C489 C 0.54616 0.68123 0.67786 0.0
C490 C 0.52028 0.66172 0.59165 0.0
C491 C 0.47419 0.63461 0.67454 0.0
C492 C 0.46645 0.63701 0.70544 0.0
C493 C 0.44689 0.62403 0.71128 0.0
C494 C 0.44055 0.62466 0.74184 0.0
C495 C 0.4537 0.6384 0.7668 0.0
C496 C 0.47301 0.6518 0.76044 0.0
C497 C 0.47946 0.6509 0.73011 0.0
C498 C 0.52435 0.60863 0.62106 0.0
C499 C 0.55156 0.64068 0.72038 0.0
O500 O 0.5872 0.66202 0.62832 0.0
O501 O 0.58535 0.62776 0.64595 0.0
O502 O 0.56671 0.67629 0.6826 0.0
O503 O 0.53497 0.66885 0.65533 0.0
O504 O 0.54122 0.65606 0.599 0.0
O505 O 0.50642 0.65921 0.61316 0.0
O506 O 0.48672 0.61835 0.67337 0.0
O507 O 0.48244 0.65321 0.66225 0.0
O508 O 0.50537 0.61679 0.61608 0.0
O509 O 0.53609 0.6175 0.64692 0.0
O510 O 0.52986 0.6414 0.70877 0.0
O511 O 0.56615 0.63997 0.70009 0.0
H512 H 0.58378 0.651 0.56659 0.0
H513 H 0.60172 0.63938 0.52204 0.0
H514 H 0.6482 0.60587 0.59016 0.0
H515 H 0.6307 0.61826 0.63466 0.0
H516 H 0.43688 0.61299 0.69247 0.0
H517 H 0.42572 0.61398 0.74614 0.0
H518 H 0.48327 0.66289 0.77895 0.0
H519 H 0.49484 0.66071 0.72615 0.0
La520 La 0.99346 0.36791 0.18253 0.0
La521 La 0.00943 0.35484 0.11646 0.0
C522 C 0.9841 0.36091 0.23927 0.0
C523 C 0.97909 0.35559 0.27301 0.0
C524 C 0.96607 0.36865 0.28887 0.0
C525 C 0.96035 0.36258 0.31952 0.0
C526 C 0.96732 0.34312 0.33552 0.0
C527 C 0.98056 0.33024 0.31959 0.0
C528 C 0.98627 0.33633 0.28907 0.0
C529 C 0.00267 0.40188 0.14472 0.0
C530 C 0.04483 0.3649 0.18295 0.0
C531 C 0.03006 0.35051 0.06865 0.0
C532 C 0.03222 0.33974 0.03671 0.0
C533 C 0.04394 0.32071 0.03645 0.0
C534 C 0.04968 0.31259 1.0076 0.0
C535 C 0.04399 0.32313 0.97766 0.0
C536 C 0.03165 0.34178 0.97767 0.0
C537 C 0.02605 0.35006 1.00671 0.0
C538 C 0.98423 0.32367 0.14297 0.0
C539 C 0.96017 0.3659 0.11645 0.0
O540 O 0.97684 0.37738 0.22122 0.0
O541 O 0.99718 0.34934 0.22558 0.0
O542 O 0.98989 0.4024 0.16696 0.0
O543 O 0.01203 0.38397 0.14742 0.0
O544 O 0.02957 0.37274 0.19782 0.0
O545 O 0.04044 0.35645 0.15287 0.0
O546 O 0.03188 0.33816 0.09463 0.0
O547 O 0.01635 0.36587 0.0702 0.0
O548 O 0.98588 0.32343 0.11243 0.0
O549 O 0.9984 0.33888 0.15695 0.0
O550 O 0.97734 0.36771 0.10009 0.0
O551 O 0.96212 0.36147 0.14791 0.0
H552 H 0.95998 0.38347 0.27737 0.0
H553 H 0.94994 0.37297 0.33027 0.0
H554 H 0.98675 0.31538 0.33076 0.0
H555 H 0.99621 0.32566 0.27784 0.0
H556 H 0.04942 0.3124 0.0589 0.0
H557 H 0.05885 0.29805 1.0089 0.0
H558 H 0.02704 0.3506 0.95538 0.0
H559 H 0.01751 0.36501 1.00578 0.0
La560 La 0.52579 0.36453 0.41427 0.0
La561 La 0.47819 0.35767 0.42238 0.0
C562 C 0.56435 0.36882 0.39886 0.0
C563 C 0.57335 0.36662 0.36889 0.0
C564 C 0.59308 0.38003 0.36476 0.0
C565 C 0.6007 0.37987 0.33508 0.0
C566 C 0.58874 0.36611 0.30923 0.0
C567 C 0.56931 0.35214 0.31395 0.0
C568 C 0.56153 0.35262 0.34343 0.0
C569 C 0.51369 0.39631 0.44959 0.0
C570 C 0.48728 0.36399 0.35042 0.0
C571 C 0.44014 0.36241 0.4362 0.0
C572 C 0.42984 0.37077 0.4623 0.0
C573 C 0.44277 0.37768 0.49233 0.0
C574 C 0.4324 0.38573 0.51676 0.0
C575 C 0.40902 0.38703 0.51133 0.0
C576 C 0.39634 0.38061 0.48081 0.0
C577 C 0.40671 0.37253 0.45649 0.0
C578 C 0.49139 0.32354 0.39354 0.0
C579 C 0.51639 0.34363 0.48006 0.0
O580 O 0.55216 0.38542 0.39948 0.0
O581 O 0.55521 0.35027 0.4102 0.0
O582 O 0.53253 0.38791 0.45509 0.0
O583 O 0.502 0.38738 0.42373 0.0
O584 O 0.50884 0.36293 0.36251 0.0
O585 O 0.47247 0.36518 0.37025 0.0
O586 O 0.44985 0.34401 0.44163 0.0
O587 O 0.45211 0.37768 0.42195 0.0
O588 O 0.47094 0.32875 0.3882 0.0
O589 O 0.50239 0.33598 0.41613 0.0
O590 O 0.4956 0.34962 0.47204 0.0
O591 O 0.53052 0.34552 0.45889 0.0
H592 H 0.60219 0.39114 0.38417 0.0
H593 H 0.61551 0.39107 0.33209 0.0
H594 H 0.55992 0.34105 0.29474 0.0
H595 H 0.54603 0.34246 0.34607 0.0
H596 H 0.46074 0.37661 0.49694 0.0
H597 H 0.44255 0.39024 0.54019 0.0
H598 H 0.37837 0.38163 0.47585 0.0
H599 H 0.39662 0.36753 0.43316 0.0
La600 La 0.02223 0.63064 0.95462 0.0
La601 La 0.0408 0.62171 0.88881 0.0
C602 C 0.01512 0.63332 1.01303 0.0
C603 C 0.00358 0.64227 0.03896 0.0
C604 C 0.99742 0.66424 0.03912 0.0
C605 C 0.98924 0.67281 0.06603 0.0
C606 C 0.98719 0.65985 0.09404 0.0
C607 C 0.99325 0.63777 0.09334 0.0
C608 C 1.00115 0.62921 0.06641 0.0
C609 C 0.02984 0.6649 0.91665 0.0
C610 C 0.07356 0.62561 0.95333 0.0
C611 C 0.05077 0.63008 0.83256 0.0
C612 C 0.05602 0.63537 0.79876 0.0
C613 C 0.07704 0.63234 0.79011 0.0
C614 C 0.08254 0.63909 0.75956 0.0
C615 C 0.06722 0.64907 0.73598 0.0
C616 C 0.04604 0.65174 0.74473 0.0
C617 C 0.04066 0.64521 0.77539 0.0
C618 C 0.03244 0.58555 0.92348 0.0
C619 C 0.98747 0.62301 0.89039 0.0
O620 O 0.02957 0.64707 1.00033 0.0
O621 O 0.00451 0.6178 0.99197 0.0
O622 O 0.01464 0.66339 0.9353 0.0
O623 O 0.041 0.6486 0.92194 0.0
O624 O 0.05601 0.62015 0.9681 0.0
O625 O 0.07135 0.63228 0.9229 0.0
O626 O 0.06262 0.61826 0.85404 0.0
O627 O 0.03274 0.63577 0.84237 0.0
O628 O 0.04536 0.58658 0.90131 0.0
O629 O 0.02257 0.60303 0.92182 0.0
O630 O 0.00442 0.62188 0.87407 0.0
O631 O 0.98988 0.62492 0.92253 0.0
H632 H 0.99925 0.67496 1.01865 0.0
H633 H 0.98457 0.6897 0.06471 0.0
H634 H 0.99264 0.62708 0.11409 0.0
H635 H 0.00613 0.6124 0.06755 0.0
H636 H 0.08957 0.6252 0.80737 0.0
H637 H 0.0992 0.63688 0.75494 0.0
H638 H 0.03328 0.65882 0.72785 0.0
H639 H 0.02434 0.64807 0.78086 0.0
C640 C 0.12734 0.11473 0.99625 0.0
C641 C 0.13972 0.11901 1.02755 0.0
C642 C 0.13833 0.11248 0.96985 0.0
C643 C 0.19236 0.13133 0.94459 0.0
H644 H 0.16275 0.09898 0.86608 0.0
C645 C 0.19496 0.16624 0.81908 0.0
C646 C 0.18978 0.15195 0.79159 0.0
C647 C 0.1965 0.15742 0.85014 0.0
C648 C 0.17175 0.10774 0.88786 0.0
H649 H 0.17339 0.12305 0.05591 0.0
H650 H 0.19253 0.11834 1.00993 0.0
H651 H 0.14998 0.09005 0.91701 0.0
H652 H 0.18457 0.11706 0.77532 0.0
H653 H 0.18834 0.10171 0.8295 0.0
H654 H 0.21407 0.14909 0.91538 0.0
C655 C 0.17432 0.11721 1.00571 0.0
C656 C 0.16413 0.10284 0.91706 0.0
C657 C 0.16331 0.11967 1.03213 0.0
C658 C 0.18853 0.12861 0.79593 0.0
C659 C 0.1904 0.11977 0.82705 0.0
C660 C 0.20021 0.136 0.91546 0.0
C661 C 0.16199 0.11421 0.97414 0.0
C662 C 0.17353 0.11542 0.94538 0.0
C663 C 0.19322 0.13408 0.85444 0.0
C664 C 0.18921 0.12512 0.88642 0.0
H665 H 0.10913 0.1137 0.99199 0.0
H666 H 0.12824 0.11047 0.94588 0.0
H667 H 0.20008 0.14135 0.96592 0.0
H668 H 0.19662 0.1843 0.81659 0.0
H669 H 0.19863 0.16905 0.87054 0.0
C670 C 0.09837 0.74892 0.22658 0.0
C671 C 0.10282 0.76281 0.2547 0.0
C672 C 0.08976 0.75729 0.19589 0.0
C673 C 0.06103 0.80597 0.15707 0.0
H674 H 0.07711 0.78362 0.0781 0.0
C675 C 0.01906 0.83428 1.02914 0.0
C676 C 0.03185 0.83636 1.00377 0.0
C677 C 0.0274 0.82489 0.05913 0.0
C678 C 0.07249 0.79031 0.09981 0.0
H679 H 0.10177 0.79683 0.27158 0.0
H680 H 0.0874 0.81128 0.2189 0.0
H681 H 0.09238 0.76858 0.1303 0.0
H682 H 0.0638 0.82997 0.99092 0.0
H683 H 0.07836 0.81409 0.04284 0.0
H684 H 0.04165 0.8281 0.12682 0.0
C685 C 0.09002 0.79373 0.22032 0.0
C686 C 0.0811 0.78136 0.13002 0.0
C687 C 0.09854 0.78539 0.25085 0.0
C688 C 0.05328 0.82867 1.00957 0.0
C689 C 0.06163 0.81933 0.03956 0.0
C690 C 0.05245 0.81491 0.12691 0.0
C691 C 0.08526 0.77988 0.19214 0.0
C692 C 0.07565 0.78907 0.15938 0.0
C693 C 0.0489 0.81723 0.06507 0.0
C694 C 0.05801 0.80735 0.09757 0.0
H695 H 0.1013 0.73145 0.22829 0.0
H696 H 0.08623 0.74584 0.17519 0.0
H697 H 0.05595 0.81231 0.17866 0.0
H698 H 0.00247 0.83985 1.02586 0.0
H699 H 0.01671 0.8234 0.07755 0.0
C700 C 0.36439 0.86476 0.37196 0.0
C701 C 0.35599 0.84375 0.35733 0.0
C702 C 0.36177 0.86945 0.40366 0.0
C703 C 0.36045 0.83787 0.47709 0.0
H704 H 0.37021 0.89834 0.51348 0.0
C705 C 0.41697 0.85663 0.59892 0.0
C706 C 0.43584 0.87084 0.59287 0.0
C707 C 0.3967 0.8554 0.57703 0.0
C708 C 0.36701 0.88128 0.5039 0.0
H709 H 0.33603 0.81211 0.36322 0.0
H710 H 0.33152 0.82029 0.41897 0.0
H711 H 0.35036 0.89146 0.45796 0.0
H712 H 0.44792 0.89645 0.56136 0.0
H713 H 0.41262 0.89458 0.52351 0.0
H714 H 0.37838 0.82794 0.52223 0.0
C715 C 0.34047 0.83299 0.40599 0.0
C716 C 0.35577 0.87733 0.47209 0.0
C717 C 0.34313 0.82827 0.37413 0.0
C718 C 0.43364 0.88519 0.56633 0.0
C719 C 0.41334 0.8843 0.5449 0.0
C720 C 0.37143 0.84178 0.50901 0.0
C721 C 0.3507 0.85323 0.42163 0.0
C722 C 0.35398 0.85589 0.45754 0.0
C723 C 0.39496 0.86876 0.54929 0.0
C724 C 0.37624 0.86376 0.5218 0.0
H725 H 0.37459 0.87701 0.35995 0.0
H726 H 0.37021 0.88509 0.41487 0.0
H727 H 0.3594 0.82112 0.46685 0.0
H728 H 0.41828 0.8454 0.61929 0.0
H729 H 0.38279 0.84324 0.58085 0.0
C730 C 0.42331 0.2584 0.83404 0.0
C731 C 0.42395 0.24483 0.86172 0.0
C732 C 0.43047 0.25117 0.80551 0.0
C733 C 0.44257 0.19901 0.76322 0.0
H734 H 0.47234 0.24146 0.70983 0.0
C735 C 0.46395 0.17146 0.63808 0.0
C736 C 0.4839 0.18128 0.62789 0.0
C737 C 0.45653 0.17953 0.66579 0.0
C738 C 0.4642 0.22922 0.72442 0.0
H739 H 0.43294 0.21271 0.88021 0.0
H740 H 0.44534 0.20034 0.83129 0.0
H741 H 0.46017 0.25461 0.75872 0.0
H742 H 0.51154 0.20778 0.64046 0.0
H743 H 0.49866 0.22177 0.68811 0.0
H744 H 0.4469 0.17357 0.72935 0.0
C745 C 0.43905 0.21653 0.83121 0.0
C746 C 0.4569 0.23688 0.75254 0.0
C747 C 0.43201 0.22377 0.85966 0.0
C748 C 0.49593 0.19976 0.64665 0.0
C749 C 0.48847 0.20788 0.67435 0.0
C750 C 0.44976 0.19137 0.73506 0.0
C751 C 0.43844 0.23001 0.80341 0.0
C752 C 0.44599 0.22194 0.77269 0.0
C753 C 0.46865 0.19787 0.6847 0.0
C754 C 0.46079 0.20627 0.715 0.0
H755 H 0.41722 0.27468 0.83432 0.0
H756 H 0.42938 0.26212 0.78486 0.0
H757 H 0.43406 0.18679 0.77742 0.0
H758 H 0.45373 0.15756 0.62438 0.0
H759 H 0.44097 0.17146 0.6721 0.0
C760 C 0.85777 0.83258 0.24813 0.0
C761 C 0.86109 0.84704 0.27537 0.0
C762 C 0.85453 0.84112 0.21689 0.0
C763 C 0.87023 0.89347 0.17669 0.0
H764 H 0.84521 0.85641 0.10051 0.0
C765 C 0.91289 0.89371 0.06576 0.0
C766 C 0.90063 0.88677 1.03521 0.0
C767 C 0.90207 0.89459 0.09259 0.0
C768 C 0.85188 0.86738 0.12127 0.0
H769 H 0.86149 0.88164 0.29102 0.0
H770 H 0.85475 0.89636 0.23652 0.0
H771 H 0.83402 0.84656 0.15228 0.0
H772 H 0.86709 0.87682 1.00843 0.0
H773 H 0.84807 0.8792 0.05508 0.0
H774 H 0.88805 0.91431 0.14569 0.0
C775 C 0.85544 0.87849 0.23931 0.0
C776 C 0.84569 0.8615 0.15116 0.0
C777 C 0.85902 0.86998 0.27062 0.0
C778 C 0.87706 0.88227 1.03163 0.0
C779 C 0.86617 0.88339 0.05846 0.0
C780 C 0.87609 0.89957 0.14672 0.0
C781 C 0.85417 0.86431 0.21209 0.0
C782 C 0.85578 0.87374 0.17953 0.0
C783 C 0.87864 0.88883 0.08948 0.0
C784 C 0.868 0.88588 0.11903 0.0
H785 H 0.85867 0.81473 0.25092 0.0
H786 H 0.85378 0.82961 0.19667 0.0
H787 H 0.8784 0.90339 0.19789 0.0
H788 H 0.93101 0.89777 0.06921 0.0
H789 H 0.91234 0.89862 0.11608 0.0
C790 C 0.93644 0.21183 0.81749 0.0
C791 C 0.93404 0.23475 0.81251 0.0
C792 C 0.94631 0.20414 0.84766 0.0
C793 C 0.98455 0.22171 0.92509 0.0
H794 H 0.95795 0.1657 0.95611 0.0
C795 C 0.02751 0.17472 0.03916 0.0
C796 C 0.01315 0.16584 0.06051 0.0
C797 C 0.01866 0.1836 1.00895 0.0
C798 C 0.96566 0.1814 0.948 0.0
H799 H 0.94048 0.26752 0.8362 0.0
H800 H 0.95795 0.25408 0.88901 0.0
H801 H 0.94069 0.18075 0.90507 0.0
H802 H 0.97803 0.15918 0.06595 0.0
H803 H 0.96289 0.17413 1.01395 0.0
H804 H 0.00956 0.22224 0.96833 0.0
C805 C 0.9521 0.24204 0.86927 0.0
C806 C 0.95579 0.19001 0.91841 0.0
C807 C 0.94189 0.24976 0.83899 0.0
C808 C 0.98976 0.16581 0.05042 0.0
C809 C 0.98098 0.17435 1.02029 0.0
C810 C 0.99462 0.21293 0.95464 0.0
C811 C 0.95442 0.21904 0.87412 0.0
C812 C 0.96499 0.21033 0.90638 0.0
C813 C 0.99519 0.1835 0.99899 0.0
C814 C 0.98525 0.19266 0.96671 0.0
H815 H 0.93071 0.19964 0.7979 0.0
H816 H 0.94794 0.18639 0.85003 0.0
H817 H 0.99231 0.23728 0.91666 0.0
H818 H 0.04559 0.17516 0.04599 0.0
H819 H 0.0302 0.19033 0.99322 0.0
C820 C 0.68996 0.14599 0.7113 0.0
C821 C 0.68197 0.16664 0.71625 0.0
C822 C 0.6925 0.13927 0.68022 0.0
C823 C 0.68816 0.15619 0.59397 0.0
H824 H 0.64118 0.10607 0.57993 0.0
C825 C 0.61752 0.15195 0.48674 0.0
C826 C 0.603 0.13213 0.47949 0.0
C827 C 0.63686 0.15207 0.51013 0.0
C828 C 0.65485 0.11955 0.58278 0.0
H829 H 0.67316 0.19757 0.69303 0.0
H830 H 0.67797 0.18604 0.63934 0.0
H831 H 0.66111 0.11479 0.63388 0.0
H832 H 0.59795 0.09648 0.4877 0.0
H833 H 0.63261 0.09613 0.52679 0.0
H834 H 0.68136 0.16141 0.54284 0.0
C835 C 0.6822 0.17497 0.65936 0.0
C836 C 0.66634 0.12458 0.61409 0.0
C837 C 0.67937 0.18157 0.69029 0.0
C838 C 0.60896 0.112 0.49342 0.0
C839 C 0.62871 0.11192 0.51599 0.0
C840 C 0.67699 0.15085 0.56239 0.0
C841 C 0.68743 0.15325 0.6537 0.0
C842 C 0.68203 0.14379 0.62026 0.0
C843 C 0.64224 0.13219 0.52614 0.0
C844 C 0.65905 0.13342 0.55673 0.0
H845 H 0.69282 0.13437 0.73099 0.0
H846 H 0.69677 0.12251 0.67649 0.0
H847 H 0.70042 0.17095 0.59811 0.0
H848 H 0.61303 0.16766 0.47617 0.0
H849 H 0.64648 0.16812 0.51725 0.0
C850 C 0.55786 0.79613 0.44107 0.0
C851 C 0.55381 0.81872 0.44417 0.0
C852 C 0.56545 0.7882 0.41335 0.0
C853 C 0.59095 0.80848 0.33958 0.0
H854 H 0.57479 0.74668 0.30992 0.0
C855 C 0.60917 0.77784 0.21432 0.0
C856 C 0.61542 0.75607 0.21117 0.0
C857 C 0.60201 0.78496 0.24275 0.0
C858 C 0.57975 0.76396 0.31789 0.0
H859 H 0.55419 0.85025 0.41875 0.0
H860 H 0.56699 0.83661 0.37102 0.0
H861 H 0.56172 0.75974 0.35808 0.0
H862 H 0.61876 0.72482 0.23654 0.0
H863 H 0.60628 0.73714 0.28589 0.0
H864 H 0.60876 0.81274 0.29921 0.0
C865 C 0.56496 0.82497 0.39039 0.0
C866 C 0.5722 0.77155 0.34587 0.0
C867 C 0.55749 0.83291 0.41812 0.0
C868 C 0.61413 0.74167 0.2377 0.0
C869 C 0.60678 0.74877 0.26614 0.0
C870 C 0.59836 0.80093 0.31156 0.0
C871 C 0.56924 0.80244 0.38733 0.0
C872 C 0.57756 0.79403 0.35735 0.0
C873 C 0.60063 0.77062 0.26934 0.0
C874 C 0.59288 0.77852 0.29997 0.0
H875 H 0.55556 0.78454 0.46042 0.0
H876 H 0.56873 0.77085 0.41273 0.0
H877 H 0.59611 0.82573 0.3475 0.0
H878 H 0.60979 0.78955 0.19468 0.0
H879 H 0.59719 0.80176 0.24359 0.0
C880 C 0.68367 0.66203 0.31435 0.0
C881 C 0.68394 0.64718 0.28845 0.0
C882 C 0.68657 0.65458 0.34616 0.0
C883 C 0.69667 0.63626 0.41332 0.0
H884 H 0.65301 0.58443 0.41869 0.0
C885 C 0.6621 0.6186 0.53085 0.0
C886 C 0.63842 0.61617 0.52601 0.0
C887 C 0.67347 0.61611 0.50486 0.0
C888 C 0.66545 0.59877 0.41766 0.0
H889 H 0.68971 0.61343 0.27594 0.0
H890 H 0.6943 0.60026 0.33176 0.0
H891 H 0.66503 0.59357 0.36697 0.0
H892 H 0.60815 0.60755 0.4907 0.0
H893 H 0.62791 0.60398 0.44515 0.0
H894 H 0.69566 0.64261 0.46326 0.0
C895 C 0.69164 0.61762 0.32724 0.0
C896 C 0.67256 0.60386 0.38813 0.0
C897 C 0.6889 0.62515 0.29533 0.0
C898 C 0.62639 0.60991 0.49506 0.0
C899 C 0.63776 0.60751 0.46906 0.0
C900 C 0.68952 0.63121 0.44281 0.0
C901 C 0.6897 0.63208 0.35282 0.0
C902 C 0.68737 0.6233 0.38534 0.0
C903 C 0.66141 0.61124 0.4735 0.0
C904 C 0.673 0.61306 0.44487 0.0
H905 H 0.67963 0.67902 0.30999 0.0
H906 H 0.68464 0.66606 0.36526 0.0
H907 H 0.70834 0.65117 0.41192 0.0
H908 H 0.67189 0.62353 0.55437 0.0
H909 H 0.6917 0.61887 0.50909 0.0
C910 C 0.59513 0.28504 0.75722 0.0
C911 C 0.59803 0.26221 0.7622 0.0
C912 C 0.58614 0.29283 0.72666 0.0
C913 C 0.55039 0.27592 0.64727 0.0
H914 H 0.57815 0.33219 0.61861 0.0
C915 C 0.50975 0.32532 0.53369 0.0
C916 C 0.52453 0.33428 0.51294 0.0
C917 C 0.51805 0.31573 0.56366 0.0
C918 C 0.57012 0.31643 0.62605 0.0
H919 H 0.59334 0.22969 0.73796 0.0
H920 H 0.57716 0.24328 0.68439 0.0
H921 H 0.59415 0.31656 0.67 0.0
H922 H 0.55985 0.34029 0.50841 0.0
H923 H 0.57406 0.32425 0.56015 0.0
H924 H 0.52619 0.27603 0.60318 0.0
C925 C 0.58206 0.25518 0.70451 0.0
C926 C 0.57928 0.30747 0.65581 0.0
C927 C 0.59152 0.24738 0.73522 0.0
C928 C 0.54779 0.33362 0.52343 0.0
C929 C 0.55605 0.32444 0.55341 0.0
C930 C 0.54097 0.28511 0.6176 0.0
C931 C 0.57931 0.27812 0.6997 0.0
C932 C 0.56964 0.28705 0.66704 0.0
C933 C 0.5414 0.31522 0.57411 0.0
C934 C 0.55075 0.3055 0.60637 0.0
H935 H 0.5999 0.29713 0.77713 0.0
H936 H 0.58417 0.31052 0.72432 0.0
H937 H 0.54231 0.26028 0.65503 0.0
H938 H 0.49175 0.32539 0.52657 0.0
H939 H 0.50617 0.30899 0.57889 0.0
C940 C 0.9235 0.34773 0.08847 0.0
C941 C 0.93777 0.3674 0.09801 0.0
C942 C 0.90417 0.34852 0.06536 0.0
C943 C 0.88686 0.38361 0.99609 0.0
H944 H 0.84023 0.33333 0.97741 0.0
C945 C 0.86134 0.32292 0.88619 0.0
C946 C 0.86032 0.33825 0.86069 0.0
C947 C 0.85843 0.32957 0.91705 0.0
C948 C 0.85282 0.34777 0.98246 0.0
H949 H 0.94258 0.40347 0.09389 0.0
H950 H 0.90809 0.40521 0.05469 0.0
H951 H 0.85905 0.34114 1.03326 0.0
H952 H 0.85233 0.37161 0.84655 0.0
H953 H 0.848 0.38345 0.9009 0.0
H954 H 0.88148 0.38959 0.94528 0.0
C955 C 0.91204 0.38901 0.06394 0.0
C956 C 0.86377 0.35215 1.01438 0.0
C957 C 0.93168 0.38812 0.08649 0.0
C958 C 0.8539 0.35961 0.86593 0.0
C959 C 0.85119 0.36633 0.89693 0.0
C960 C 0.8757 0.37945 0.96438 0.0
C961 C 0.89868 0.3691 0.05172 0.0
C962 C 0.88204 0.36913 1.02117 0.0
C963 C 0.85463 0.35174 0.92312 0.0
C964 C 0.85968 0.36059 0.95695 0.0
H965 H 0.92814 0.33159 0.09716 0.0
H966 H 0.89463 0.33275 0.05646 0.0
H967 H 0.90081 0.39681 1.0 0.0
H968 H 0.86634 0.30638 0.8832 0.0
H969 H 0.86141 0.31798 0.93676 0.0
C970 C 0.92652 0.71369 0.35516 0.0
C971 C 0.92473 0.73666 0.36013 0.0
C972 C 0.93286 0.70578 0.32647 0.0
C973 C 0.96207 0.72394 0.25638 0.0
H974 H 0.93171 0.66828 0.21575 0.0
C975 C 0.98236 0.69237 0.13189 0.0
C976 C 0.97927 0.66917 0.1239 0.0
C977 C 0.9755 0.70079 0.15993 0.0
C978 C 0.94085 0.68366 0.22676 0.0
H979 H 0.92862 0.7692 0.33789 0.0
H980 H 0.94002 0.75558 0.2885 0.0
H981 H 0.92103 0.68199 0.26513 0.0
H982 H 0.96555 0.63701 0.14054 0.0
H983 H 0.95496 0.65124 0.18926 0.0
H984 H 0.98234 0.72544 0.21874 0.0
C985 C 0.93644 0.74356 0.30683 0.0
C986 C 0.93452 0.69166 0.25539 0.0
C987 C 0.92974 0.75142 0.3353 0.0
C988 C 0.96886 0.6549 0.1454 0.0
C989 C 0.96226 0.66327 0.17358 0.0
C990 C 0.96866 0.71579 0.22799 0.0
C991 C 0.93804 0.72054 0.3017 0.0
C992 C 0.94495 0.71198 0.27083 0.0
C993 C 0.96538 0.68644 0.18166 0.0
C994 C 0.95821 0.69542 0.21236 0.0
H995 H 0.92283 0.70165 0.37342 0.0
H996 H 0.93401 0.68801 0.32393 0.0
H997 H 0.97082 0.7395 0.26744 0.0
H998 H 0.99045 0.70425 0.11677 0.0
H999 H 0.97808 0.71875 0.16427 0.0
C1000 C 0.37786 0.3801 0.54363 0.0
C1001 C 0.39767 0.39308 0.53832 0.0
C1002 C 0.36925 0.38297 0.57208 0.0
C1003 C 0.39276 0.39672 0.65531 0.0
H1004 H 0.33107 0.3806 0.66838 0.0
C1005 C 0.37256 0.34275 0.75887 0.0
C1006 C 0.36079 0.35197 0.78092 0.0
C1007 C 0.37342 0.35244 0.72883 0.0
C1008 C 0.34829 0.38549 0.66507 0.0
H1009 H 0.42263 0.42084 0.55683 0.0
H1010 H 0.4076 0.42579 0.60684 0.0
H1011 H 0.33869 0.39301 0.61485 0.0
H1012 H 0.33935 0.37754 0.78799 0.0
H1013 H 0.34067 0.39443 0.73462 0.0
H1014 H 0.40242 0.38805 0.70485 0.0
C1015 C 0.39895 0.41319 0.58916 0.0
C1016 C 0.35268 0.39251 0.63458 0.0
C1017 C 0.40761 0.41028 0.56069 0.0
C1018 C 0.34865 0.37022 0.77145 0.0
C1019 C 0.34935 0.37983 0.74107 0.0
C1020 C 0.38838 0.38961 0.68553 0.0
C1021 C 0.38029 0.39886 0.59579 0.0
C1022 C 0.37502 0.3973 0.62912 0.0
C1023 C 0.36243 0.37144 0.72015 0.0
C1024 C 0.36622 0.38307 0.69022 0.0
H1025 H 0.3699 0.36661 0.52696 0.0
H1026 H 0.35503 0.37146 0.57659 0.0
H1027 H 0.41015 0.40004 0.65193 0.0
H1028 H 0.3823 0.32889 0.76558 0.0
H1029 H 0.38339 0.34559 0.71277 0.0
C1030 C 0.48852 0.67272 0.54963 0.0
C1031 C 0.51179 0.67155 0.55926 0.0
C1032 C 0.48001 0.68229 0.52007 0.0
C1033 C 0.49487 0.72159 0.45555 0.0
H1034 H 0.44031 0.69151 0.40472 0.0
C1035 C 0.44423 0.76035 0.33876 0.0
C1036 C 0.43698 0.74544 0.31202 0.0
C1037 C 0.45372 0.75248 0.36943 0.0
C1038 C 0.45557 0.70022 0.41848 0.0
H1039 H 0.54429 0.67999 0.54453 0.0
H1040 H 0.52943 0.69702 0.49294 0.0
H1041 H 0.45661 0.67545 0.45558 0.0
H1042 H 0.43376 0.71031 0.2975 0.0
H1043 H 0.44959 0.69685 0.35012 0.0
H1044 H 0.49365 0.74643 0.41813 0.0
C1045 C 0.51775 0.69039 0.50853 0.0
C1046 C 0.4649 0.69102 0.44795 0.0
C1047 C 0.52629 0.68045 0.53809 0.0
C1048 C 0.43913 0.72248 0.3172 0.0
C1049 C 0.44818 0.71464 0.34768 0.0
C1050 C 0.4853 0.73102 0.42615 0.0
C1051 C 0.49439 0.69138 0.49893 0.0
C1052 C 0.48478 0.70143 0.46704 0.0
C1053 C 0.45578 0.72941 0.3744 0.0
C1054 C 0.46555 0.72037 0.40693 0.0
H1055 H 0.47666 0.66614 0.56501 0.0
H1056 H 0.462 0.68285 0.514 0.0
H1057 H 0.51004 0.73029 0.46953 0.0
H1058 H 0.44297 0.77813 0.33587 0.0
H1059 H 0.45923 0.76443 0.38937 0.0
C1060 C 0.17784 0.6321 0.20983 0.0
C1061 C 0.17401 0.65413 0.21688 0.0
C1062 C 0.17897 0.62564 0.17806 0.0
C1063 C 0.17777 0.64614 0.09338 0.0
H1064 H 0.12907 0.59794 0.07394 0.0
C1065 C 0.10976 0.64487 0.98187 0.0
C1066 C 0.09597 0.62488 0.97233 0.0
C1067 C 0.12835 0.64476 1.0066 0.0
C1068 C 0.14319 0.61094 0.07843 0.0
H1069 H 0.17056 0.68714 0.19662 0.0
H1070 H 0.17252 0.67591 0.14158 0.0
H1071 H 0.14755 0.60473 0.12915 0.0
H1072 H 0.09155 0.58892 0.97803 0.0
H1073 H 0.12484 0.58836 1.01972 0.0
H1074 H 0.17257 0.65296 0.04255 0.0
C1075 C 0.17484 0.66362 0.16048 0.0
C1076 C 0.15385 0.61487 0.11042 0.0
C1077 C 0.17365 0.67007 0.19217 0.0
C1078 C 0.10206 0.60452 0.98535 0.0
C1079 C 0.12098 0.6043 1.00939 0.0
C1080 C 0.16725 0.64205 0.06116 0.0
C1081 C 0.17633 0.64109 0.1528 0.0
C1082 C 0.1704 0.63322 0.11848 0.0
C1083 C 0.13356 0.62456 1.02176 0.0
C1084 C 0.14897 0.62516 0.05356 0.0
H1085 H 0.17872 0.61956 0.22851 0.0
H1086 H 0.18046 0.60822 0.17289 0.0
H1087 H 0.19073 0.66023 0.09887 0.0
H1088 H 0.10512 0.66075 0.97216 0.0
H1089 H 0.13738 0.66075 1.0155 0.0
C1090 C 0.10703 0.2779 0.71604 0.0
C1091 C 0.11386 0.25643 0.71261 0.0
C1092 C 0.09943 0.28445 0.74436 0.0
C1093 C 0.09718 0.26847 0.8319 0.0
H1094 H 0.05479 0.31262 0.82521 0.0
C1095 C 0.0729 0.30754 0.94827 0.0
C1096 C 0.05154 0.31506 0.94708 0.0
C1097 C 0.08011 0.30011 0.92005 0.0
C1098 C 0.06642 0.30007 0.82785 0.0
H1099 H 0.11781 0.22504 0.73731 0.0
H1100 H 0.10404 0.23609 0.78618 0.0
H1101 H 0.06706 0.29976 0.77673 0.0
H1102 H 0.02101 0.32013 0.9142 0.0
H1103 H 0.03317 0.30681 0.86549 0.0
H1104 H 0.09583 0.26813 0.8829 0.0
C1105 C 0.10496 0.24822 0.76714 0.0
C1106 C 0.07388 0.29287 0.79969 0.0
C1107 C 0.11279 0.24172 0.73879 0.0
C1108 C 0.03766 0.31479 0.9164 0.0
C1109 C 0.04478 0.30713 0.88817 0.0
C1110 C 0.08958 0.27555 0.86006 0.0
C1111 C 0.09806 0.26976 0.77058 0.0
C1112 C 0.08958 0.27701 0.80102 0.0
C1113 C 0.06622 0.29965 0.88928 0.0
C1114 C 0.07411 0.29163 0.85877 0.0
H1115 H 0.10773 0.28994 0.69681 0.0
H1116 H 0.09495 0.30134 0.74571 0.0
H1117 H 0.10937 0.25646 0.83464 0.0
H1118 H 0.08439 0.30779 0.97108 0.0
H1119 H 0.09689 0.2951 0.92249 0.0
C1120 C 0.96246 0.31413 0.18755 0.0
C1121 C 0.97053 0.30733 0.15992 0.0
C1122 C 0.95717 0.29852 0.21069 0.0
C1123 C 0.98567 0.26597 0.25208 0.0
H1124 H 0.96044 0.20445 0.23263 0.0
C1125 C 0.01303 0.20018 0.18094 0.0
C1126 C 0.03406 0.19484 0.19605 0.0
C1127 C 0.99903 0.20977 0.19863 0.0
C1128 C 0.96746 0.2215 0.23976 0.0
H1129 H 0.97479 0.27878 0.13092 0.0
H1130 H 0.96456 0.25121 0.17037 0.0
H1131 H 0.93731 0.23454 0.21745 0.0
H1132 H 0.05762 0.19606 0.24125 0.0
H1133 H 0.03293 0.21384 0.27269 0.0
H1134 H 0.01715 0.25328 0.26752 0.0
C1135 C 0.96301 0.2687 0.175 0.0
C1136 C 0.95409 0.23875 0.23112 0.0
C1137 C 0.96902 0.28444 0.15241 0.0
C1138 C 0.04137 0.20008 0.22918 0.0
C1139 C 0.02719 0.20986 0.24717 0.0
C1140 C 0.99927 0.24875 0.25944 0.0
C1141 C 0.95888 0.27579 0.20544 0.0
C1142 C 0.96418 0.26104 0.2332 0.0
C1143 C 0.00564 0.2143 0.23208 0.0
C1144 C 0.99092 0.22683 0.24853 0.0
H1145 H 0.96177 0.33165 0.19237 0.0
H1146 H 0.95385 0.30438 0.23377 0.0
H1147 H 0.99363 0.28313 0.25497 0.0
H1148 H 0.00715 0.19656 0.15533 0.0
H1149 H 0.98304 0.21393 0.18577 0.0
C1150 C 0.98276 0.78141 0.49491 0.0
C1151 C 0.96205 0.76823 0.49328 0.0
C1152 C 0.00262 0.77211 0.50619 0.0
C1153 C 0.01402 0.71628 0.49163 0.0
H1154 H 0.07086 0.75186 0.48768 0.0
C1155 C 0.06289 0.70673 0.38651 0.0
C1156 C 0.06804 0.72767 0.37272 0.0
C1157 C 0.056 0.70561 0.41681 0.0
C1158 C 0.05525 0.74143 0.48912 0.0
H1159 H 0.94522 0.73746 0.50843 0.0
H1160 H 0.97969 0.7213 0.52939 0.0
H1161 H 0.04798 0.76184 0.52714 0.0
H1162 H 0.06882 0.76356 0.37841 0.0
H1163 H 0.05544 0.76166 0.43031 0.0
H1164 H 0.02021 0.6972 0.45166 0.0
C1165 C 0.98093 0.73828 0.52046 0.0
C1166 C 0.04221 0.74705 0.51184 0.0
C1167 C 0.96115 0.74735 0.50819 0.0
C1168 C 0.0645 0.74726 0.38833 0.0
C1169 C 0.05762 0.74616 0.41851 0.0
C1170 C 0.02706 0.71062 0.46906 0.0
C1171 C 0.00183 0.74955 0.51611 0.0
C1172 C 0.02016 0.73635 0.51018 0.0
C1173 C 0.05414 0.72539 0.4336 0.0
C1174 C 0.04649 0.72472 0.46537 0.0
H1175 H 0.98374 0.79789 0.48423 0.0
H1176 H 0.01831 0.78169 0.50293 0.0
H1177 H 0.99753 0.70693 0.49026 0.0
H1178 H 0.06625 0.69141 0.37542 0.0
H1179 H 0.05309 0.68938 0.42771 0.0
C1180 C 0.54704 0.69675 0.73378 0.0
C1181 C 0.53589 0.69271 0.70175 0.0
C1182 C 0.53631 0.70623 0.75676 0.0
C1183 C 0.48258 0.73191 0.76089 0.0
H1184 H 0.52757 0.78214 0.78742 0.0
C1185 C 0.51458 0.802 0.69023 0.0
C1186 C 0.49553 0.81158 0.67585 0.0
C1187 C 0.51452 0.79057 0.71913 0.0
C1188 C 0.51449 0.76826 0.78091 0.0
H1189 H 0.50505 0.6953 0.66838 0.0
H1190 H 0.48699 0.71322 0.70682 0.0
H1191 H 0.53795 0.7446 0.79289 0.0
H1192 H 0.46133 0.81692 0.67989 0.0
H1193 H 0.46083 0.7959 0.73032 0.0
H1194 H 0.46048 0.7559 0.74259 0.0
C1195 C 0.50344 0.70811 0.71554 0.0
C1196 C 0.52046 0.74646 0.7841 0.0
C1197 C 0.51396 0.69821 0.69299 0.0
C1198 C 0.4762 0.80944 0.69065 0.0
C1199 C 0.47602 0.79774 0.71963 0.0
C1200 C 0.47697 0.75376 0.75596 0.0
C1201 C 0.51453 0.71268 0.74775 0.0
C1202 C 0.50549 0.7286 0.76839 0.0
C1203 C 0.49522 0.78812 0.73422 0.0
C1204 C 0.49425 0.77174 0.76073 0.0
H1205 H 0.56401 0.69251 0.74112 0.0
H1206 H 0.54543 0.70926 0.7812 0.0
H1207 H 0.47 0.71807 0.75185 0.0
H1208 H 0.52962 0.80337 0.67919 0.0
H1209 H 0.52941 0.78271 0.72869 0.0
C1210 C 0.57658 0.21527 0.92309 0.0
C1211 C 0.57675 0.22959 0.89656 0.0
C1212 C 0.5711 0.22269 0.95204 0.0
C1213 C 0.55579 0.27483 0.99044 0.0
H1214 H 0.52577 0.23012 0.04004 0.0
C1215 C 0.47493 0.29281 1.01388 0.0
C1216 C 0.46045 0.27646 0.99424 0.0
C1217 C 0.49645 0.28819 1.02817 0.0
C1218 C 0.5346 0.24298 1.02711 0.0
H1219 H 0.56792 0.26137 0.87738 0.0
H1220 H 0.55584 0.27363 0.92639 0.0
H1221 H 0.55011 0.21865 1.0049 0.0
H1222 H 0.45586 0.24201 0.97701 0.0
H1223 H 0.49239 0.23369 1.00177 0.0
H1224 H 0.53725 0.29843 1.00905 0.0
C1225 C 0.56233 0.25756 0.9266 0.0
C1226 C 0.54862 0.23637 1.00646 0.0
C1227 C 0.56882 0.25046 0.89808 0.0
C1228 C 0.46662 0.25485 0.99212 0.0
C1229 C 0.48776 0.25009 1.00675 0.0
C1230 C 0.54096 0.28118 1.01001 0.0
C1231 C 0.56436 0.24421 0.95463 0.0
C1232 C 0.55732 0.25191 0.98506 0.0
C1233 C 0.50358 0.26714 1.02298 0.0
C1234 C 0.52781 0.26462 1.02461 0.0
H1235 H 0.5823 0.19883 0.9224 0.0
H1236 H 0.57293 0.21161 0.97245 0.0
H1237 H 0.56389 0.28771 0.97679 0.0
H1238 H 0.47024 0.30955 1.01638 0.0
H1239 H 0.50811 0.30159 0.04085 0.0
C1240 C 0.021 0.81312 0.85703 0.0
C1241 C 0.00438 0.80801 0.87645 0.0
C1242 C 0.02294 0.79887 0.83164 0.0
C1243 C 0.99694 0.74498 0.78901 0.0
H1244 H 0.05761 0.73018 0.81526 0.0
C1245 C 0.00686 0.68345 0.87223 0.0
C1246 C 0.02764 0.67674 0.88586 0.0
C1247 C 0.00441 0.6941 0.84253 0.0
C1248 C 0.04065 0.73385 0.80624 0.0
H1249 H 0.9765 0.78404 0.88466 0.0
H1250 H 0.98098 0.75786 0.84202 0.0
H1251 H 0.05035 0.76832 0.81852 0.0
H1252 H 0.06183 0.67429 0.87862 0.0
H1253 H 0.05768 0.69293 0.82632 0.0
H1254 H 0.98725 0.70995 0.77958 0.0
C1255 C 0.99188 0.77358 0.84523 0.0
C1256 C 0.03643 0.75609 0.80828 0.0
C1257 C 0.98971 0.78816 0.87034 0.0
C1258 C 0.04576 0.6799 0.86874 0.0
C1259 C 0.04326 0.6903 0.83865 0.0
C1260 C 0.00137 0.72275 0.78649 0.0
C1261 C 0.00863 0.77873 0.82568 0.0
C1262 C 0.01406 0.76107 0.80444 0.0
C1263 C 0.02285 0.69858 0.82583 0.0
C1264 C 0.02237 0.71682 0.80161 0.0
H1265 H 0.03247 0.82833 0.86145 0.0
H1266 H 0.03608 0.80331 0.8173 0.0
H1267 H 0.97965 0.74872 0.78372 0.0
H1268 H 0.99254 0.68083 0.88477 0.0
H1269 H 0.98839 0.70025 0.83417 0.0
C1270 C 0.56295 0.7099 0.06069 0.0
C1271 C 0.57859 0.72621 0.07857 0.0
C1272 C 0.5413 0.71504 0.04803 0.0
C1273 C 0.50504 0.76177 0.05128 0.0
H1274 H 0.47443 0.71752 0.10091 0.0
C1275 C 0.45936 0.7903 0.15085 0.0
C1276 C 0.45876 0.77643 0.1778 0.0
C1277 C 0.46573 0.78252 0.12273 0.0
C1278 C 0.48289 0.73025 0.08744 0.0
H1279 H 0.58523 0.76115 0.09353 0.0
H1280 H 0.54829 0.77024 0.07202 0.0
H1281 H 0.5015 0.70632 0.0698 0.0
H1282 H 0.46722 0.74489 0.19844 0.0
H1283 H 0.48112 0.7322 0.15112 0.0
H1284 H 0.48926 0.78635 0.07253 0.0
C1285 C 0.55206 0.75346 0.06728 0.0
C1286 C 0.49803 0.72364 0.06856 0.0
C1287 C 0.57341 0.74825 0.08011 0.0
C1288 C 0.4669 0.75557 0.17751 0.0
C1289 C 0.4744 0.74818 0.14993 0.0
C1290 C 0.49066 0.7686 0.07122 0.0
C1291 C 0.53518 0.73654 0.05323 0.0
C1292 C 0.51134 0.73993 0.05373 0.0
C1293 C 0.47305 0.76115 0.12152 0.0
C1294 C 0.48125 0.75321 0.09218 0.0
H1295 H 0.56686 0.69284 0.05851 0.0
H1296 H 0.52887 0.70173 0.03673 0.0
H1297 H 0.51403 0.77446 0.0383 0.0
H1298 H 0.4534 0.80666 0.15057 0.0
H1299 H 0.46426 0.79322 0.10186 0.0
C1300 C 0.56038 0.19202 0.3829 0.0
C1301 C 0.54092 0.18919 0.39738 0.0
C1302 C 0.56053 0.20413 0.35429 0.0
C1303 C 0.55971 0.24819 0.31866 0.0
H1304 H 0.49912 0.25835 0.28114 0.0
C1305 C 0.52355 0.30596 0.37945 0.0
C1306 C 0.50178 0.31176 0.37015 0.0
C1307 C 0.53405 0.29547 0.35743 0.0
C1308 C 0.51651 0.25617 0.29012 0.0
H1309 H 0.50656 0.19664 0.39384 0.0
H1310 H 0.50677 0.21816 0.34507 0.0
H1311 H 0.50868 0.22055 0.28729 0.0
H1312 H 0.47399 0.31202 0.33029 0.0
H1313 H 0.49254 0.29425 0.29113 0.0
H1314 H 0.5674 0.28382 0.32216 0.0
C1315 C 0.52177 0.21047 0.35455 0.0
C1316 C 0.52199 0.23423 0.29377 0.0
C1317 C 0.52171 0.19854 0.38305 0.0
C1318 C 0.49082 0.30753 0.33806 0.0
C1319 C 0.50154 0.29746 0.31561 0.0
C1320 C 0.55457 0.27015 0.31331 0.0
C1321 C 0.54122 0.21361 0.33982 0.0
C1322 C 0.54216 0.23046 0.31389 0.0
C1323 C 0.52307 0.29058 0.32523 0.0
C1324 C 0.53181 0.27393 0.30543 0.0
H1325 H 0.57538 0.18473 0.39362 0.0
H1326 H 0.57581 0.20641 0.34383 0.0
H1327 H 0.57613 0.24583 0.33209 0.0
H1328 H 0.53228 0.30898 0.40413 0.0
H1329 H 0.55032 0.29009 0.36659 0.0
C1330 C 0.06752 0.20426 0.561 0.0
C1331 C 0.08028 0.22261 0.57867 0.0
C1332 C 0.04477 0.20519 0.54886 0.0
C1333 C 0.99797 0.23981 0.5525 0.0
H1334 H 0.99063 0.20146 0.62529 0.0
C1335 C 0.95988 0.23743 0.68129 0.0
C1336 C 0.9581 0.2604 0.68292 0.0
C1337 C 0.96671 0.22815 0.6545 0.0
C1338 C 0.99144 0.21211 0.60461 0.0
H1339 H 0.08083 0.25747 0.59242 0.0
H1340 H 0.04133 0.2592 0.5715 0.0
H1341 H 0.01543 0.1929 0.58982 0.0
H1342 H 0.96384 0.29223 0.65947 0.0
H1343 H 0.9776 0.2767 0.61429 0.0
H1344 H 0.97371 0.25897 0.56718 0.0
C1345 C 0.04855 0.24402 0.56696 0.0
C1346 C 0.0058 0.20692 0.58373 0.0
C1347 C 0.07116 0.24297 0.57952 0.0
C1348 C 0.96488 0.27432 0.6586 0.0
C1349 C 0.97218 0.26517 0.63207 0.0
C1350 C 0.98269 0.24447 0.57255 0.0
C1351 C 0.03472 0.22451 0.55436 0.0
C1352 C 0.01121 0.22222 0.56005 0.0
C1353 C 0.97257 0.24178 0.62898 0.0
C1354 C 0.9813 0.23217 0.60112 0.0
H1355 H 0.07448 0.18853 0.55922 0.0
H1356 H 0.03448 0.19 0.53902 0.0
H1357 H 0.00138 0.25151 0.53368 0.0
H1358 H 0.95527 0.22649 0.70026 0.0
H1359 H 0.96662 0.21015 0.65382 0.0
C1360 C 0.04401 0.0702 0.12316 0.0
C1361 C 0.0311 0.08692 0.10947 0.0
C1362 C 0.04379 0.04985 0.10591 0.0
C1363 C 0.02638 0.02274 1.02246 0.0
H1364 H 0.02267 0.96728 0.06975 0.0
C1365 C 0.00309 0.93565 0.9554 0.0
C1366 C 0.01635 0.91878 0.96751 0.0
C1367 C 0.00421 0.95588 0.97323 0.0
C1368 C 0.0238 0.98259 0.05608 0.0
H1369 H 0.0088 0.09581 0.06651 0.0
H1370 H 0.00841 0.06105 0.03697 0.0
H1371 H 0.02866 0.00316 0.0993 0.0
H1372 H 0.04027 0.9095 1.00838 0.0
H1373 H 0.04199 0.94418 0.03925 0.0
H1374 H 0.02133 0.00218 0.97924 0.0
C1375 C 0.01885 0.06326 0.06067 0.0
C1376 C 0.02741 0.00327 0.07315 0.0
C1377 C 0.019 0.08331 0.07779 0.0
C1378 C 0.02979 0.92214 0.99835 0.0
C1379 C 0.03074 0.94209 1.01619 0.0
C1380 C 0.02266 0.00209 1.00541 0.0
C1381 C 0.03083 0.04593 0.07455 0.0
C1382 C 0.02866 0.02373 0.05664 0.0
C1383 C 0.01839 0.95954 1.0037 0.0
C1384 C 0.02127 0.98165 1.0219 0.0
H1385 H 0.05335 0.07238 0.14761 0.0
H1386 H 0.05348 0.03706 0.11736 0.0
H1387 H 0.02761 0.03799 1.0087 0.0
H1388 H 0.99268 0.93365 0.93165 0.0
H1389 H 0.99421 0.96878 0.96293 0.0
C1390 C 0.20723 0.74835 0.36086 0.0
C1391 C 0.18679 0.74881 0.33952 0.0
C1392 C 0.22759 0.74885 0.34892 0.0
C1393 C 0.25608 0.76909 0.28266 0.0
H1394 H 0.29555 0.72324 0.30677 0.0
C1395 C 0.3376 0.76418 0.22665 0.0
C1396 C 0.35518 0.75381 0.24455 0.0
C1397 C 0.31719 0.76475 0.23836 0.0
C1398 C 0.28511 0.73656 0.30024 0.0
H1399 H 0.17165 0.75045 0.28894 0.0
H1400 H 0.20736 0.75195 0.26813 0.0
H1401 H 0.26003 0.72166 0.32696 0.0
H1402 H 0.36601 0.7375 0.28965 0.0
H1403 H 0.33145 0.73984 0.31111 0.0
H1404 H 0.28137 0.78461 0.25702 0.0
C1405 C 0.20755 0.7509 0.29406 0.0
C1406 C 0.26456 0.73545 0.31166 0.0
C1407 C 0.18713 0.74989 0.30596 0.0
C1408 C 0.35256 0.74529 0.27512 0.0
C1409 C 0.33252 0.7464 0.28722 0.0
C1410 C 0.27691 0.77052 0.27178 0.0
C1411 C 0.22801 0.75042 0.31543 0.0
C1412 C 0.24978 0.75164 0.30296 0.0
C1413 C 0.31414 0.75542 0.26862 0.0
C1414 C 0.29184 0.75427 0.28038 0.0
H1415 H 0.20746 0.74765 0.38682 0.0
H1416 H 0.2431 0.74853 0.36595 0.0
H1417 H 0.24507 0.78192 0.27576 0.0
H1418 H 0.33918 0.7708 0.20291 0.0
H1419 H 0.30359 0.77175 0.22302 0.0
C1420 C 0.51487 0.07333 0.46875 0.0
C1421 C 0.53416 0.07644 0.45397 0.0
C1422 C 0.51143 0.05499 0.48904 0.0
C1423 C 0.53294 0.99947 0.51278 0.0
H1424 H 0.49758 0.00356 0.58124 0.0
C1425 C 0.51041 0.92161 0.58929 0.0
C1426 C 0.50716 0.92489 0.62135 0.0
C1427 C 0.51354 0.93995 0.56892 0.0
C1428 C 0.50783 0.00206 0.56264 0.0
H1429 H 0.56536 0.06327 0.4498 0.0
H1430 H 0.56015 0.03221 0.48625 0.0
H1431 H 0.50409 0.03569 0.54759 0.0
H1432 H 0.5048 0.95005 0.65734 0.0
H1433 H 0.51149 0.98201 0.6229 0.0
H1434 H 0.53781 0.96632 0.52904 0.0
C1435 C 0.54701 0.04314 0.48132 0.0
C1436 C 0.51123 0.02056 0.54269 0.0
C1437 C 0.55017 0.06116 0.46052 0.0
C1438 C 0.50727 0.94695 0.6327 0.0
C1439 C 0.51088 0.96534 0.61266 0.0
C1440 C 0.52991 0.98112 0.53313 0.0
C1441 C 0.52745 0.03949 0.49571 0.0
C1442 C 0.52381 0.01964 0.51728 0.0
C1443 C 0.5139 0.96222 0.58023 0.0
C1444 C 0.51724 0.982 0.55843 0.0
H1445 H 0.50217 0.08478 0.46401 0.0
H1446 H 0.49595 0.05283 0.49894 0.0
H1447 H 0.54235 0.9976 0.49328 0.0
H1448 H 0.5097 0.90484 0.57952 0.0
H1449 H 0.51517 0.9365 0.54405 0.0
C1450 C 0.33328 0.27085 0.89019 0.0
C1451 C 0.34701 0.25339 0.89093 0.0
C1452 C 0.31467 0.27164 0.86493 0.0
C1453 C 0.27662 0.23414 0.80153 0.0
H1454 H 0.25978 0.2897 0.76296 0.0
C1455 C 0.20738 0.23651 0.68531 0.0
C1456 C 0.19321 0.25358 0.68466 0.0
C1457 C 0.22622 0.23621 0.71028 0.0
C1458 C 0.26406 0.27397 0.7736 0.0
H1459 H 0.35235 0.22372 0.86475 0.0
H1460 H 0.32074 0.22523 0.82156 0.0
H1461 H 0.29173 0.29062 0.80718 0.0
H1462 H 0.18764 0.28335 0.71039 0.0
H1463 H 0.21978 0.28273 0.75309 0.0
H1464 H 0.24897 0.21749 0.76798 0.0
C1465 C 0.32367 0.23803 0.84056 0.0
C1466 C 0.28245 0.27455 0.79915 0.0
C1467 C 0.34204 0.23728 0.86546 0.0
C1468 C 0.19822 0.27002 0.70971 0.0
C1469 C 0.21688 0.26979 0.73431 0.0
C1470 C 0.25825 0.23356 0.77598 0.0
C1471 C 0.30937 0.25493 0.84 0.0
C1472 C 0.28912 0.25463 0.81351 0.0
C1473 C 0.23139 0.25305 0.735 0.0
C1474 C 0.25161 0.25347 0.76157 0.0
H1475 H 0.33659 0.28355 0.90932 0.0
H1476 H 0.30411 0.28499 0.86541 0.0
H1477 H 0.28086 0.2184 0.81218 0.0
H1478 H 0.20412 0.22362 0.66645 0.0
H1479 H 0.23699 0.22303 0.70983 0.0
C1480 C 0.69492 0.23994 0.84325 0.0
C1481 C 0.68084 0.25621 0.83153 0.0
C1482 C 0.71552 0.23905 0.83224 0.0
C1483 C 0.75802 0.27442 0.79331 0.0
H1484 H 0.77899 0.21754 0.77687 0.0
C1485 C 0.83779 0.26627 0.73337 0.0
C1486 C 0.85107 0.24948 0.7457 0.0
C1487 C 0.81717 0.26814 0.74398 0.0
C1488 C 0.77353 0.23361 0.78166 0.0
H1489 H 0.67707 0.28399 0.79863 0.0
H1490 H 0.71264 0.28239 0.77944 0.0
H1491 H 0.74286 0.218 0.79505 0.0
H1492 H 0.8538 0.22238 0.77997 0.0
H1493 H 0.81844 0.22578 0.79849 0.0
H1494 H 0.78877 0.29 0.77986 0.0
C1495 C 0.70812 0.27051 0.79745 0.0
C1496 C 0.75277 0.23385 0.79216 0.0
C1497 C 0.68762 0.27133 0.80834 0.0
C1498 C 0.84381 0.2353 0.76961 0.0
C1499 C 0.8234 0.23715 0.78012 0.0
C1500 C 0.77882 0.27418 0.78278 0.0
C1501 C 0.72251 0.25453 0.80943 0.0
C1502 C 0.74473 0.25425 0.79825 0.0
C1503 C 0.80949 0.25322 0.767 0.0
C1504 C 0.78695 0.25376 0.77702 0.0
H1505 H 0.6902 0.22813 0.86123 0.0
H1506 H 0.7262 0.22658 0.84218 0.0
H1507 H 0.75256 0.29048 0.79813 0.0
H1508 H 0.84299 0.27746 0.71498 0.0
H1509 H 0.80691 0.28077 0.73338 0.0
C1510 C 0.83332 0.76709 0.38773 0.0
C1511 C 0.84935 0.75212 0.386 0.0
C1512 C 0.8146 0.76742 0.36254 0.0
C1513 C 0.79255 0.74811 0.27587 0.0
H1514 H 0.73394 0.75071 0.30006 0.0
C1515 C 0.70911 0.73141 0.18082 0.0
C1516 C 0.69263 0.74573 0.18341 0.0
C1517 C 0.72811 0.73127 0.20563 0.0
C1518 C 0.75016 0.75015 0.29265 0.0
H1519 H 0.85882 0.7267 0.35563 0.0
H1520 H 0.8269 0.72738 0.31246 0.0
H1521 H 0.76747 0.75502 0.34175 0.0
H1522 H 0.68288 0.77039 0.21477 0.0
H1523 H 0.71534 0.77023 0.25698 0.0
H1524 H 0.77524 0.7433 0.22674 0.0
C1525 C 0.82842 0.73889 0.33289 0.0
C1526 C 0.76951 0.75274 0.31674 0.0
C1527 C 0.84679 0.73842 0.35794 0.0
C1528 C 0.69522 0.75915 0.21176 0.0
C1529 C 0.71391 0.75895 0.23632 0.0
C1530 C 0.77319 0.74557 0.25175 0.0
C1531 C 0.8117 0.75303 0.33489 0.0
C1532 C 0.79107 0.75173 0.30882 0.0
C1533 C 0.73092 0.74529 0.23367 0.0
C1534 C 0.75162 0.74659 0.25966 0.0
H1535 H 0.83472 0.77781 0.40901 0.0
H1536 H 0.80227 0.77877 0.36489 0.0
H1537 H 0.80878 0.74746 0.26853 0.0
H1538 H 0.70769 0.7209 0.15934 0.0
H1539 H 0.74065 0.72028 0.20273 0.0
C1540 C 0.53992 0.57113 0.61687 0.0
C1541 C 0.52746 0.5881 0.60289 0.0
C1542 C 0.5389 0.5504 0.60022 0.0
C1543 C 0.52074 0.52221 0.51779 0.0
H1544 H 0.51538 0.46773 0.56699 0.0
C1545 C 0.49807 0.43381 0.45363 0.0
C1546 C 0.5105 0.41685 0.4677 0.0
C1547 C 0.49902 0.45453 0.47027 0.0
C1548 C 0.51702 0.48273 0.55276 0.0
H1549 H 0.50507 0.59695 0.55999 0.0
H1550 H 0.5034 0.56148 0.53137 0.0
H1551 H 0.5219 0.50407 0.5952 0.0
H1552 H 0.53274 0.408 0.51075 0.0
H1553 H 0.53431 0.44345 0.53932 0.0
H1554 H 0.51587 0.50088 0.47535 0.0
C1555 C 0.51403 0.56383 0.55491 0.0
C1556 C 0.5209 0.50368 0.56908 0.0
C1557 C 0.51493 0.58426 0.5715 0.0
C1558 C 0.52292 0.42068 0.49916 0.0
C1559 C 0.52375 0.44111 0.51572 0.0
C1560 C 0.51687 0.50126 0.50147 0.0
C1561 C 0.5256 0.54632 0.56913 0.0
C1562 C 0.52279 0.52381 0.5519 0.0
C1563 C 0.51222 0.45862 0.50142 0.0
C1564 C 0.51498 0.48113 0.51865 0.0
H1565 H 0.5496 0.57347 0.64108 0.0
H1566 H 0.54829 0.53747 0.6119 0.0
H1567 H 0.52237 0.53722 0.50356 0.0
H1568 H 0.48846 0.43147 0.42937 0.0
H1569 H 0.48964 0.46745 0.45853 0.0
C1570 C 0.01267 0.56545 0.96554 0.0
C1571 C 0.02954 0.56666 0.94605 0.0
C1572 C 0.01011 0.54758 0.98685 0.0
C1573 C 0.02408 0.48915 1.00273 0.0
H1574 H 0.00989 0.50063 0.08788 0.0
C1575 C 0.02253 0.42011 0.10115 0.0
C1576 C 0.00604 0.42004 0.12116 0.0
C1577 C 0.0257 0.43773 0.07955 0.0
C1578 C 0.01356 0.49698 0.06405 0.0
H1579 H 0.05693 0.55001 0.93355 0.0
H1580 H 0.05257 0.51892 0.97065 0.0
H1581 H 0.01461 0.53161 0.05105 0.0
H1582 H 0.97965 0.43817 0.13376 0.0
H1583 H 0.98484 0.46854 0.09606 0.0
H1584 H 0.02292 0.45449 1.0157 0.0
C1585 C 0.04112 0.53162 0.96938 0.0
C1586 C 0.0163 0.51485 0.04286 0.0
C1587 C 0.04371 0.54952 0.94818 0.0
C1588 C 0.99265 0.43781 0.11887 0.0
C1589 C 0.99574 0.45535 0.09732 0.0
C1590 C 0.02129 0.47125 1.02392 0.0
C1591 C 0.02429 0.53037 0.98909 0.0
C1592 C 0.02153 0.51123 1.01181 0.0
C1593 C 0.01242 0.45572 0.07745 0.0
C1594 C 0.01589 0.47486 0.0549 0.0
H1595 H 1.00124 0.57815 0.96401 0.0
H1596 H 0.99672 0.54708 1.00117 0.0
H1597 H 0.0278 0.48559 0.97891 0.0
H1598 H 0.03321 0.40672 0.10251 0.0
H1599 H 0.03886 0.43746 0.06497 0.0
C1600 C 0.08528 0.14837 0.2734 0.0
C1601 C 0.06215 0.14751 0.26037 0.0
C1602 C 0.0938 0.15563 0.30579 0.0
C1603 C 0.07976 0.18852 0.37583 0.0
H1604 H 0.13109 0.16402 0.42521 0.0
C1605 C 0.12539 0.22882 0.50114 0.0
C1606 C 0.13402 0.21482 0.52627 0.0
C1607 C 0.11713 0.22042 0.46925 0.0
C1608 C 0.11666 0.17108 0.41206 0.0
H1609 H 0.03001 0.15377 0.27267 0.0
H1610 H 0.04465 0.16616 0.32866 0.0
H1611 H 0.1155 0.14944 0.3706 0.0
H1612 H 0.14062 0.18054 0.53618 0.0
H1613 H 0.12659 0.16601 0.4809 0.0
H1614 H 0.08076 0.21 0.41738 0.0
C1615 C 0.05641 0.16137 0.31376 0.0
C1616 C 0.10776 0.1628 0.38022 0.0
C1617 C 0.04786 0.15393 0.28141 0.0
C1618 C 0.13447 0.19209 0.51781 0.0
C1619 C 0.12632 0.18369 0.48577 0.0
C1620 C 0.08875 0.19691 0.40756 0.0
C1621 C 0.07964 0.16257 0.32668 0.0
C1622 C 0.08908 0.1713 0.36129 0.0
C1623 C 0.11715 0.19759 0.4608 0.0
C1624 C 0.10745 0.18843 0.42649 0.0
H1625 H 0.09704 0.14388 0.25828 0.0
H1626 H 0.11177 0.15643 0.31409 0.0
H1627 H 0.06559 0.19589 0.36247 0.0
H1628 H 0.12452 0.24637 0.5062 0.0
H1629 H 0.11072 0.23201 0.45112 0.0
C1630 C 0.11618 0.82539 0.52978 0.0
C1631 C 0.11523 0.84027 0.50375 0.0
C1632 C 0.11631 0.8332 0.56118 0.0
C1633 C 0.10129 0.88037 0.60628 0.0
H1634 H 0.13403 0.85122 0.67908 0.0
C1635 C 0.0774 0.88092 0.7329 0.0
C1636 C 0.09403 0.87976 0.76039 0.0
C1637 C 0.08285 0.8802 0.70186 0.0
C1638 C 0.12514 0.85992 0.65913 0.0
H1639 H 0.11373 0.8751 0.49036 0.0
H1640 H 0.11478 0.88889 0.54554 0.0
H1641 H 0.13906 0.84228 0.62429 0.0
H1642 H 0.12966 0.87799 0.7769 0.0
H1643 H 0.13936 0.87763 0.7226 0.0
H1644 H 0.08767 0.89829 0.64119 0.0
C1645 C 0.11502 0.87109 0.54149 0.0
C1646 C 0.12774 0.85449 0.62764 0.0
C1647 C 0.11465 0.86322 0.50993 0.0
C1648 C 0.11646 0.87897 0.7562 0.0
C1649 C 0.12197 0.87851 0.72509 0.0
C1650 C 0.09892 0.88602 0.63782 0.0
C1651 C 0.11581 0.85614 0.56745 0.0
C1652 C 0.1153 0.86412 0.60084 0.0
C1653 C 0.10514 0.87864 0.69756 0.0
C1654 C 0.11027 0.87534 0.66454 0.0
H1655 H 0.11706 0.80766 0.52601 0.0
H1656 H 0.11649 0.82114 0.58049 0.0
H1657 H 0.0914 0.88805 0.5862 0.0
H1658 H 0.06004 0.88204 0.73529 0.0
H1659 H 0.06938 0.88004 0.68127 0.0
C1660 C 0.40957 0.80826 0.10575 0.0
C1661 C 0.40776 0.78551 0.11476 0.0
C1662 C 0.41492 0.81485 0.07506 0.0
C1663 C 0.44034 0.79434 1.00479 0.0
H1664 H 0.41668 0.84543 0.96044 0.0
C1665 C 0.47226 0.82955 0.88668 0.0
C1666 C 0.45715 0.83883 0.86215 0.0
C1667 C 0.46621 0.82329 0.91705 0.0
C1668 C 0.42343 0.83098 0.97213 0.0
H1669 H 0.40963 0.75197 0.09683 0.0
H1670 H 0.41867 0.76325 0.0441 0.0
H1671 H 0.4058 0.83418 1.0123 0.0
H1672 H 0.42318 0.84823 0.85185 0.0
H1673 H 0.41286 0.83762 0.90416 0.0
H1674 H 0.45774 0.79093 0.96449 0.0
C1675 C 0.41633 0.77622 0.06084 0.0
C1676 C 0.41732 0.82462 1.00244 0.0
C1677 C 0.41086 0.76964 0.09135 0.0
C1678 C 0.4357 0.84162 0.86972 0.0
C1679 C 0.42968 0.83542 0.90013 0.0
C1680 C 0.44654 0.80077 0.97458 0.0
C1681 C 0.41878 0.79901 0.05206 0.0
C1682 C 0.42554 0.80608 1.01946 0.0
C1683 C 0.44476 0.82605 0.92457 0.0
C1684 C 0.43819 0.81921 0.95741 0.0
H1685 H 0.40765 0.82115 0.12289 0.0
H1686 H 0.41675 0.83258 0.06986 0.0
H1687 H 0.44747 0.78019 1.01684 0.0
H1688 H 0.48909 0.82737 0.88277 0.0
H1689 H 0.47867 0.81659 0.93492 0.0
C1690 C 0.46237 0.11606 0.3602 0.0
C1691 C 0.4722 0.135 0.37913 0.0
C1692 C 0.44687 0.11837 0.33207 0.0
C1693 C 0.41842 0.16062 0.27849 0.0
H1694 H 0.44063 0.12844 0.21213 0.0
C1695 C 0.39583 0.1773 0.14032 0.0
C1696 C 0.41406 0.17849 0.12321 0.0
C1697 C 0.39824 0.16994 0.17234 0.0
C1698 C 0.43423 0.13756 0.23033 0.0
H1699 H 0.4722 0.17071 0.38584 0.0
H1700 H 0.4459 0.17509 0.33612 0.0
H1701 H 0.45034 0.11857 0.2684 0.0
H1702 H 0.44924 0.17355 0.12655 0.0
H1703 H 0.45348 0.16081 0.18229 0.0
H1704 H 0.40356 0.1806 0.24001 0.0
C1705 C 0.44948 0.15832 0.34307 0.0
C1706 C 0.43944 0.13163 0.26269 0.0
C1707 C 0.4646 0.15587 0.37163 0.0
C1708 C 0.43477 0.1724 0.13886 0.0
C1709 C 0.43717 0.16507 0.17079 0.0
C1710 C 0.41326 0.16663 0.24594 0.0
C1711 C 0.44162 0.1398 0.32189 0.0
C1712 C 0.43214 0.14345 0.28735 0.0
C1713 C 0.41891 0.16359 0.18782 0.0
C1714 C 0.42174 0.15559 0.22169 0.0
H1715 H 0.46819 0.09982 0.36555 0.0
H1716 H 0.44059 0.10365 0.31684 0.0
H1717 H 0.41234 0.16994 0.29679 0.0
H1718 H 0.37958 0.18167 0.12877 0.0
H1719 H 0.38384 0.16885 0.18478 0.0
C1720 C 0.91236 0.77612 0.57134 0.0
C1721 C 0.91056 0.79002 0.54393 0.0
C1722 C 0.92042 0.78499 0.60312 0.0
C1723 C 0.95369 0.83612 0.64899 0.0
H1724 H 0.93037 0.80954 0.72283 0.0
C1725 C 0.99423 0.86206 0.78504 0.0
C1726 C 0.97995 0.86197 0.8086 0.0
C1727 C 0.98598 0.85407 0.75276 0.0
C1728 C 0.93711 0.81742 0.70266 0.0
H1729 H 0.91609 0.82469 0.52976 0.0
H1730 H 0.92981 0.84005 0.58457 0.0
H1731 H 0.91544 0.79458 0.6683 0.0
H1732 H 0.94529 0.85334 0.8152 0.0
H1733 H 0.93113 0.83985 0.75984 0.0
H1734 H 0.97531 0.85904 0.68346 0.0
C1735 C 0.92516 0.82211 0.5816 0.0
C1736 C 0.92862 0.80855 0.67101 0.0
C1737 C 0.91693 0.81325 0.54986 0.0
C1738 C 0.95704 0.85393 0.79823 0.0
C1739 C 0.94885 0.84584 0.76617 0.0
C1740 C 0.96235 0.84487 0.68072 0.0
C1741 C 0.92727 0.8082 0.60904 0.0
C1742 C 0.9366 0.81773 0.64333 0.0
C1743 C 0.96313 0.84543 0.74268 0.0
C1744 C 0.95418 0.83582 0.70834 0.0
H1745 H 0.90778 0.7582 0.56828 0.0
H1746 H 0.92181 0.77342 0.62304 0.0
H1747 H 0.96071 0.84372 0.62884 0.0
H1748 H 0.01198 0.86783 0.79167 0.0
H1749 H 0.99779 0.85406 0.73595 0.0
C1750 C 0.91093 0.14677 0.54339 0.0
C1751 C 0.92747 0.15762 0.56748 0.0
C1752 C 0.91623 0.14183 0.51316 0.0
C1753 C 0.95718 0.16243 0.46118 0.0
H1754 H 0.92706 0.11288 0.40485 0.0
C1755 C 0.97631 0.14708 0.33321 0.0
C1756 C 0.95737 0.14442 0.30844 0.0
C1757 C 0.97367 0.14692 0.36567 0.0
C1758 C 0.93552 0.12679 0.42042 0.0
H1759 H 0.96268 0.17032 0.58046 0.0
H1760 H 0.97233 0.16095 0.52801 0.0
H1761 H 0.9218 0.1139 0.46156 0.0
H1762 H 0.92083 0.13958 0.29837 0.0
H1763 H 0.9163 0.13881 0.35542 0.0
H1764 H 0.971 0.17516 0.42002 0.0
C1765 C 0.9551 0.1569 0.53188 0.0
C1766 C 0.93251 0.12741 0.45278 0.0
C1767 C 0.94969 0.16213 0.5619 0.0
C1768 C 0.93573 0.14141 0.31688 0.0
C1769 C 0.93312 0.14097 0.34943 0.0
C1770 C 0.96041 0.16162 0.42901 0.0
C1771 C 0.93825 0.14744 0.50679 0.0
C1772 C 0.94308 0.14541 0.47339 0.0
C1773 C 0.95208 0.14379 0.37399 0.0
C1774 C 0.94937 0.14397 0.40832 0.0
H1775 H 0.89364 0.14337 0.54729 0.0
H1776 H 0.90279 0.1348 0.4943 0.0
H1777 H 0.96517 0.17681 0.47612 0.0
H1778 H 0.99323 0.14888 0.32758 0.0
H1779 H 0.98851 0.14893 0.38431 0.0
C1780 C 0.6253 0.23601 0.9828 0.0
C1781 C 0.6282 0.22047 0.95881 0.0
C1782 C 0.62011 0.22899 1.01328 0.0
C1783 C 0.61927 0.17965 0.0702 0.0
H1784 H 0.57948 0.21295 0.11008 0.0
C1785 C 0.6015 0.16062 0.20278 0.0
C1786 C 0.58019 0.16346 0.21081 0.0
C1787 C 0.60739 0.16723 0.17244 0.0
C1788 C 0.59049 0.20321 0.09945 0.0
H1789 H 0.62827 0.18495 0.94961 0.0
H1790 H 0.6196 0.17276 1.00254 0.0
H1791 H 0.58951 0.2245 0.05794 0.0
H1792 H 0.54834 0.17546 0.19109 0.0
H1793 H 0.55854 0.18694 0.13909 0.0
H1794 H 0.61996 0.15815 0.11149 0.0
C1795 C 0.6214 0.19056 0.99784 0.0
C1796 C 0.59656 0.2101 0.06934 0.0
C1797 C 0.62649 0.1976 0.9672 0.0
C1798 C 0.56508 0.17322 0.18682 0.0
C1799 C 0.571 0.17989 0.15654 0.0
C1800 C 0.6133 0.17283 0.10041 0.0
C1801 C 0.61771 0.20607 1.02144 0.0
C1802 C 0.61114 0.19852 0.05397 0.0
C1803 C 0.59232 0.1771 0.14856 0.0
C1804 C 0.59876 0.18444 0.11583 0.0
H1805 H 0.6264 0.25376 0.97777 0.0
H1806 H 0.61789 0.24172 1.03047 0.0
H1807 H 0.63062 0.17019 0.0598 0.0
H1808 H 0.61401 0.15365 0.22023 0.0
H1809 H 0.62411 0.16498 0.16806 0.0
C1810 C 0.57575 0.88129 0.71389 0.0
C1811 C 0.56573 0.86276 0.69422 0.0
C1812 C 0.59108 0.87833 0.74193 0.0
C1813 C 0.62033 0.83597 0.79349 0.0
H1814 H 0.59777 0.86618 0.86139 0.0
C1815 C 0.62634 0.80488 0.92565 0.0
C1816 C 0.62968 0.82109 0.95086 0.0
C1817 C 0.62354 0.81135 0.8932 0.0
C1818 C 0.60468 0.85792 0.84288 0.0
H1819 H 0.56522 0.8271 0.68619 0.0
H1820 H 0.59144 0.82163 0.73579 0.0
H1821 H 0.58644 0.87586 0.80543 0.0
H1822 H 0.63304 0.85685 0.9616 0.0
H1823 H 0.62881 0.86809 0.90527 0.0
H1824 H 0.63793 0.8174 0.83146 0.0
C1825 C 0.58799 0.83855 0.72942 0.0
C1826 C 0.59824 0.86354 0.81064 0.0
C1827 C 0.57297 0.84163 0.70096 0.0
C1828 C 0.63071 0.84391 0.94287 0.0
C1829 C 0.62804 0.85036 0.91052 0.0
C1830 C 0.62683 0.83032 0.82596 0.0
C1831 C 0.59605 0.85667 0.75123 0.0
C1832 C 0.60574 0.85249 0.78547 0.0
C1833 C 0.62406 0.83417 0.88528 0.0
C1834 C 0.61882 0.84106 0.85096 0.0
H1835 H 0.5702 0.89771 0.70916 0.0
H1836 H 0.59749 0.89273 0.75778 0.0
H1837 H 0.62643 0.82718 0.77467 0.0
H1838 H 0.62581 0.78717 0.93096 0.0
H1839 H 0.62029 0.79845 0.87434 0.0
C1840 C 0.54577 0.64719 0.77914 0.0
C1841 C 0.56038 0.64532 0.75641 0.0
C1842 C 0.55409 0.65433 0.81174 0.0
C1843 C 0.60439 0.68641 0.86437 0.0
H1844 H 0.57872 0.65999 0.93649 0.0
C1845 C 0.62816 0.72464 0.99784 0.0
C1846 C 0.63041 0.70983 1.02421 0.0
C1847 C 0.62014 0.71672 0.96556 0.0
C1848 C 0.58626 0.6676 0.91679 0.0
H1849 H 0.59565 0.64979 0.75149 0.0
H1850 H 0.60994 0.66214 0.80753 0.0
H1851 H 0.56379 0.64632 0.88098 0.0
H1852 H 0.62539 0.67466 0.03608 0.0
H1853 H 0.61136 0.66099 0.98038 0.0
H1854 H 0.6267 0.70784 0.90008 0.0
C1855 C 0.59194 0.65808 0.80026 0.0
C1856 C 0.57747 0.65982 0.88463 0.0
C1857 C 0.58367 0.65065 0.76788 0.0
C1858 C 0.62429 0.68674 1.01679 0.0
C1859 C 0.61592 0.67885 0.98458 0.0
C1860 C 0.61291 0.69445 0.89645 0.0
C1861 C 0.57737 0.66027 0.82293 0.0
C1862 C 0.58645 0.66892 0.85766 0.0
C1863 C 0.61355 0.69365 0.95819 0.0
C1864 C 0.60416 0.68514 0.92348 0.0
H1865 H 0.52774 0.64365 0.77158 0.0
H1866 H 0.54211 0.65586 0.82796 0.0
H1867 H 0.61179 0.6942 0.84465 0.0
H1868 H 0.63236 0.74255 1.00215 0.0
H1869 H 0.6185 0.72888 0.9464 0.0
C1870 C 0.61885 0.36938 0.27434 0.0
C1871 C 0.5959 0.36704 0.27705 0.0
C1872 C 0.62542 0.3703 0.24386 0.0
C1873 C 0.60327 0.37737 0.15637 0.0
H1874 H 0.65114 0.34232 0.14355 0.0
C1875 C 0.62041 0.35988 1.0285 0.0
C1876 C 0.62393 0.33763 1.02232 0.0
C1877 C 0.62142 0.36758 0.06025 0.0
C1878 C 0.63769 0.35213 0.14672 0.0
H1879 H 0.56188 0.36449 0.2499 0.0
H1880 H 0.57323 0.36465 0.19704 0.0
H1881 H 0.64352 0.34801 0.19802 0.0
H1882 H 0.63233 0.30635 0.04477 0.0
H1883 H 0.63259 0.31924 0.09972 0.0
H1884 H 0.59614 0.37987 0.10492 0.0
C1885 C 0.58624 0.36643 0.21832 0.0
C1886 C 0.63355 0.3557 0.17803 0.0
C1887 C 0.57969 0.36584 0.2487 0.0
C1888 C 0.62903 0.32344 0.0486 0.0
C1889 C 0.62966 0.33101 0.08024 0.0
C1890 C 0.60714 0.37345 0.12504 0.0
C1891 C 0.60917 0.36862 0.21553 0.0
C1892 C 0.61583 0.36777 0.18308 0.0
C1893 C 0.62562 0.35309 0.08643 0.0
C1894 C 0.62396 0.36022 0.1198 0.0
H1895 H 0.63175 0.37018 0.29572 0.0
H1896 H 0.64323 0.3722 0.24254 0.0
H1897 H 0.58986 0.38724 0.15953 0.0
H1898 H 0.6163 0.37122 1.00881 0.0
H1899 H 0.61853 0.38478 0.06421 0.0
C1900 C 0.95724 0.31326 0.37649 0.0
C1901 C 0.96073 0.33611 0.36822 0.0
C1902 C 0.9512 0.30668 0.40668 0.0
C1903 C 0.94912 0.32856 0.49143 0.0
H1904 H 0.91082 0.27284 0.49639 0.0
C1905 C 0.91397 0.30254 0.61124 0.0
C1906 C 0.91091 0.27959 0.6189 0.0
C1907 C 0.91975 0.30959 0.58102 0.0
C1908 C 0.92178 0.28835 0.49586 0.0
H1909 H 0.96052 0.3698 0.38695 0.0
H1910 H 0.94965 0.35845 0.43874 0.0
H1911 H 0.92125 0.2845 0.44463 0.0
H1912 H 0.91173 0.24623 0.59949 0.0
H1913 H 0.92197 0.25828 0.54782 0.0
H1914 H 0.94959 0.33238 0.54274 0.0
C1915 C 0.95184 0.34545 0.42194 0.0
C1916 C 0.92785 0.29512 0.46577 0.0
C1917 C 0.95785 0.35205 0.39169 0.0
C1918 C 0.9137 0.26402 0.59492 0.0
C1919 C 0.91952 0.27103 0.56481 0.0
C1920 C 0.94303 0.32178 0.52157 0.0
C1921 C 0.94833 0.32259 0.43018 0.0
C1922 C 0.9417 0.31538 0.46278 0.0
C1923 C 0.92275 0.29399 0.5571 0.0
C1924 C 0.92923 0.30148 0.52454 0.0
H1925 H 0.95887 0.30022 0.35942 0.0
H1926 H 0.94905 0.28892 0.41165 0.0
H1927 H 0.96007 0.34406 0.49086 0.0
H1928 H 0.91224 0.3152 0.62884 0.0
H1929 H 0.92173 0.3274 0.5764 0.0
C1930 C 0.95369 0.64262 0.87292 0.0
C1931 C 0.96535 0.62397 0.87029 0.0
C1932 C 0.93788 0.64836 0.84673 0.0
C1933 C 0.90761 0.62975 0.76424 0.0
H1934 H 0.92941 0.68955 0.7396 0.0
C1935 C 0.90824 0.65419 0.63187 0.0
C1936 C 0.90426 0.67599 0.62208 0.0
C1937 C 0.90934 0.64826 0.66437 0.0
C1938 C 0.92268 0.67301 0.74625 0.0
H1939 H 0.96806 0.59529 0.84039 0.0
H1940 H 0.94013 0.60475 0.79528 0.0
H1941 H 0.94026 0.6775 0.79498 0.0
H1942 H 0.89756 0.70846 0.63868 0.0
H1943 H 0.89976 0.69815 0.69556 0.0
H1944 H 0.891 0.62491 0.71496 0.0
C1945 C 0.94311 0.61514 0.81712 0.0
C1946 C 0.92882 0.66612 0.77811 0.0
C1947 C 0.95912 0.60968 0.84296 0.0
C1948 C 0.90105 0.69164 0.64551 0.0
C1949 C 0.9022 0.68571 0.67807 0.0
C1950 C 0.90146 0.63665 0.73238 0.0
C1951 C 0.93332 0.63524 0.81794 0.0
C1952 C 0.92205 0.64413 0.78711 0.0
C1953 C 0.90651 0.66399 0.68789 0.0
C1954 C 0.90964 0.65806 0.72274 0.0
H1955 H 0.95841 0.65398 0.89371 0.0
H1956 H 0.93044 0.66384 0.8481 0.0
H1957 H 0.90198 0.61279 0.77058 0.0
H1958 H 0.91111 0.64183 0.61457 0.0
H1959 H 0.91316 0.63153 0.67122 0.0
C1960 C 0.45538 0.35439 0.30264 0.0
C1961 C 0.47869 0.35919 0.31441 0.0
C1962 C 0.44717 0.34674 0.27038 0.0
C1963 C 0.46191 0.34346 0.1865 0.0
H1964 H 0.41218 0.29593 0.17192 0.0
C1965 C 0.41481 0.31527 0.05492 0.0
C1966 C 0.40878 0.29208 0.04815 0.0
C1967 C 0.42321 0.32357 0.08691 0.0
C1968 C 0.42611 0.30918 0.17532 0.0
H1969 H 0.51145 0.35967 0.29989 0.0
H1970 H 0.49716 0.3471 0.24359 0.0
H1971 H 0.42712 0.31011 0.22707 0.0
H1972 H 0.40705 0.2597 0.07113 0.0
H1973 H 0.42083 0.27408 0.12648 0.0
H1974 H 0.46074 0.34264 0.13466 0.0
C1975 C 0.48514 0.34923 0.25954 0.0
C1976 C 0.43464 0.31752 0.20721 0.0
C1977 C 0.49341 0.35657 0.29206 0.0
C1978 C 0.41113 0.27763 0.07492 0.0
C1979 C 0.41914 0.28597 0.10697 0.0
C1980 C 0.4531 0.33539 0.1545 0.0
C1981 C 0.46183 0.3438 0.24811 0.0
C1982 C 0.45277 0.33483 0.21359 0.0
C1983 C 0.42564 0.30911 0.11368 0.0
C1984 C 0.43502 0.31801 0.14816 0.0
H1985 H 0.44331 0.35584 0.31874 0.0
H1986 H 0.42915 0.3431 0.26287 0.0
H1987 H 0.47574 0.35681 0.18994 0.0
H1988 H 0.41366 0.32709 1.03529 0.0
H1989 H 0.42774 0.34148 0.09065 0.0
C1990 C 0.41974 0.65161 0.04474 0.0
C1991 C 0.41474 0.67319 0.05195 0.0
C1992 C 0.42098 0.64557 1.01291 0.0
C1993 C 0.43748 0.67063 0.94201 0.0
H1994 H 0.40722 0.61724 0.89411 0.0
C1995 C 0.4646 0.63981 0.82708 0.0
C1996 C 0.44763 0.63859 0.79958 0.0
C1997 C 0.4592 0.64174 0.85795 0.0
C1998 C 0.4157 0.63217 0.90738 0.0
H1999 H 0.40562 0.70479 1.03129 0.0
H2000 H 0.40866 0.69442 0.97593 0.0
H2001 H 0.39901 0.62534 0.94841 0.0
H2002 H 0.41162 0.63745 0.78293 0.0
H2003 H 0.40219 0.64028 0.83737 0.0
H2004 H 0.45448 0.67734 0.90152 0.0
C2005 C 0.41162 0.68231 0.99496 0.0
C2006 C 0.41109 0.63673 0.93821 0.0
C2007 C 0.41009 0.68825 1.02661 0.0
C2008 C 0.42503 0.63821 0.80368 0.0
C2009 C 0.41962 0.63984 0.8347 0.0
C2010 C 0.44236 0.66588 0.91157 0.0
C2011 C 0.41748 0.66111 0.98805 0.0
C2012 C 0.42189 0.65607 0.95553 0.0
C2013 C 0.43674 0.64211 0.86187 0.0
C2014 C 0.4315 0.64666 0.89409 0.0
H2015 H 0.42356 0.63972 0.0638 0.0
H2016 H 0.4257 0.62918 1.00795 0.0
H2017 H 0.44612 0.68553 0.95521 0.0
H2018 H 0.4821 0.63954 0.82475 0.0
H2019 H 0.4726 0.64326 0.87878 0.0
C2020 C 0.11667 0.69444 0.45722 0.0
C2021 C 0.12202 0.71745 0.45139 0.0
C2022 C 0.11059 0.68696 0.48716 0.0
C2023 C 0.0932 0.70803 0.56514 0.0
H2024 H 0.10336 0.64835 0.59471 0.0
C2025 C 0.06275 0.67382 0.68502 0.0
C2026 C 0.07329 0.65675 0.70294 0.0
C2027 C 0.06826 0.68085 0.65461 0.0
C2028 C 0.10054 0.66524 0.58746 0.0
H2029 H 0.12481 0.75049 0.47373 0.0
H2030 H 0.11519 0.73771 0.52546 0.0
H2031 H 0.11409 0.66103 0.54376 0.0
H2032 H 0.09836 0.63389 0.70063 0.0
H2033 H 0.10857 0.64667 0.64949 0.0
H2034 H 0.08055 0.71263 0.60941 0.0
C2035 C 0.11519 0.72516 0.50686 0.0
C2036 C 0.10646 0.6725 0.55737 0.0
C2037 C 0.12109 0.73261 0.47691 0.0
C2038 C 0.08978 0.64723 0.68868 0.0
C2039 C 0.09548 0.65444 0.65843 0.0
C2040 C 0.0875 0.70085 0.59538 0.0
C2041 C 0.10964 0.70213 0.51283 0.0
C2042 C 0.103 0.69413 0.54535 0.0
C2043 C 0.08485 0.67143 0.64043 0.0
C2044 C 0.091 0.67923 0.60748 0.0
H2045 H 0.11666 0.6821 0.43829 0.0
H2046 H 0.10613 0.66915 0.48972 0.0
H2047 H 0.08964 0.72462 0.55728 0.0
H2048 H 0.05024 0.68218 0.69452 0.0
H2049 H 0.05913 0.69367 0.64215 0.0
C2050 C 0.07763 0.38374 0.21996 0.0
C2051 C 0.06723 0.36448 0.20223 0.0
C2052 C 0.09444 0.38197 0.24666 0.0
C2053 C 0.12602 0.34123 0.29875 0.0
H2054 H 0.10489 0.37286 0.36666 0.0
C2055 C 0.12932 0.31013 0.43001 0.0
C2056 C 0.13217 0.32613 0.45542 0.0
C2057 C 0.12808 0.31692 0.39783 0.0
C2058 C 0.11149 0.36425 0.34815 0.0
H2059 H 0.06741 0.32872 0.19595 0.0
H2060 H 0.09606 0.32531 0.24352 0.0
H2061 H 0.09295 0.38188 0.31076 0.0
H2062 H 0.13669 0.36186 0.46686 0.0
H2063 H 0.13528 0.3736 0.41105 0.0
H2064 H 0.14368 0.32279 0.33679 0.0
C2065 C 0.09187 0.3419 0.23654 0.0
C2066 C 0.10469 0.36951 0.31589 0.0
C2067 C 0.07543 0.3438 0.20927 0.0
C2068 C 0.13464 0.34905 0.448 0.0
C2069 C 0.13362 0.35581 0.41592 0.0
C2070 C 0.13286 0.33593 0.33125 0.0
C2071 C 0.10044 0.36078 0.25672 0.0
C2072 C 0.11141 0.35775 0.29069 0.0
C2073 C 0.12978 0.33984 0.39041 0.0
C2074 C 0.12523 0.34708 0.35624 0.0
H2075 H 0.07154 0.39987 0.21472 0.0
H2076 H 0.10124 0.39693 0.26113 0.0
H2077 H 0.1316 0.33196 0.27992 0.0
H2078 H 0.12779 0.29234 0.43493 0.0
H2079 H 0.1249 0.30418 0.37873 0.0
loop_
_geom_bond_atom_site_label_1
_geom_bond_atom_site_label_2
_geom_bond_distance
_geom_bond_site_symmetry_2
_ccdc_geom_bond_type
La0 C2 2.928 . S
La0 O20 2.521 . S
La0 O21 2.628 . S
La0 O22 2.554 . S
La0 O23 2.757 . S
La0 O24 2.499 . S
La0 O29 2.482 . S
La0 O31 2.503 . S
La1 C11 2.928 . S
La1 O23 2.482 1_655 S
La1 O25 2.503 . S
La1 O26 2.521 . S
La1 O27 2.628 . S
La1 O28 2.554 . S
La1 O29 2.757 1_655 S
La1 O30 2.470 1_655 S
C2 La0 2.928 . S
C2 C3 1.503 . S
C2 O20 1.261 . S
C2 O21 1.243 . S
C3 C2 1.503 . S
C3 C4 1.394 1_554 S
C3 C8 1.373 1_554 S
C4 C3 1.394 1_556 S
C4 C5 1.380 . S
C4 H32 0.930 1_556 S
C5 C4 1.380 . S
C5 C6 1.376 . S
C5 H33 0.930 . S
C6 C5 1.376 . S
C6 C7 1.370 . S
C7 C6 1.370 . S
C7 C8 1.396 . S
C7 H34 0.929 . S
C8 C3 1.373 1_556 S
C8 C7 1.396 . S
C8 H35 0.929 . S
C9 O22 1.240 . S
C9 O23 1.289 . S
C10 O24 1.225 1_655 S
C10 O25 1.256 . S
C11 La1 2.928 . S
C11 C12 1.503 . S
C11 O26 1.261 . S
C11 O27 1.243 . S
C12 C11 1.503 . S
C12 C13 1.394 . S
C12 C17 1.373 . S
C13 C12 1.394 . S
C13 C14 1.380 . S
C13 H36 0.930 . S
C14 C13 1.380 . S
C14 C15 1.376 . S
C14 H37 0.930 . S
C15 C14 1.376 . S
C15 C16 1.370 . S
C16 C15 1.370 . S
C16 C17 1.396 . S
C16 H38 0.929 . S
C17 C12 1.373 . S
C17 C16 1.396 . S
C17 H39 0.929 . S
C18 O28 1.240 1_455 S
C18 O29 1.289 . S
C19 O30 1.258 . S
C19 O31 1.256 . S
O20 La0 2.521 . S
O20 C2 1.261 . S
O21 La0 2.628 . S
O21 C2 1.243 . S
O22 La0 2.554 . S
O22 C9 1.240 . S
O23 La0 2.757 . S
O23 La1 2.482 1_455 S
O23 C9 1.289 . S
O24 La0 2.499 . S
O24 C10 1.225 1_455 S
O25 La1 2.503 . S
O25 C10 1.256 . S
O26 La1 2.521 . S
O26 C11 1.261 . S
O27 La1 2.628 . S
O27 C11 1.243 . S
O28 La1 2.554 . S
O28 C18 1.240 1_655 S
O29 La0 2.482 . S
O29 La1 2.757 1_455 S
O29 C18 1.289 . S
O30 La1 2.470 1_455 S
O30 C19 1.258 . S
O31 La0 2.503 . S
O31 C19 1.256 . S
H32 C4 0.930 1_554 S
H33 C5 0.930 . S
H34 C7 0.929 . S
H35 C8 0.929 . S
H36 C13 0.930 . S
H37 C14 0.930 . S
H38 C16 0.929 . S
H39 C17 0.929 . S
La40 C42 2.928 . S
La40 O60 2.521 . S
La40 O61 2.628 . S
La40 O62 2.554 . S
La40 O63 2.757 . S
La40 O64 2.470 . S
La40 O69 2.482 . S
La40 O71 2.503 . S
La41 C51 2.928 . S
La41 O63 2.482 . S
La41 O65 2.503 . S
La41 O66 2.521 . S
La41 O67 2.628 . S
La41 O68 2.554 . S
La41 O69 2.757 . S
La41 O70 2.470 . S
C42 La40 2.928 . S
C42 C43 1.503 . S
C42 O60 1.261 . S
C42 O61 1.243 . S
C43 C42 1.503 . S
C43 C44 1.394 . S
C43 C48 1.373 . S
C44 C43 1.394 . S
C44 C45 1.380 . S
C44 H72 0.930 . S
C45 C44 1.380 . S
C45 C46 1.376 . S
C45 H73 0.930 . S
C46 C45 1.376 . S
C46 C47 1.370 . S
C47 C46 1.370 . S
C47 C48 1.396 . S
C47 H74 0.929 . S
C48 C43 1.373 . S
C48 C47 1.396 . S
C48 H75 0.929 . S
C49 O62 1.240 . S
C49 O63 1.289 . S
C50 O64 1.258 . S
C50 O65 1.256 . S
C51 La41 2.928 . S
C51 C52 1.503 . S
C51 O66 1.261 . S
C51 O67 1.243 . S
C52 C51 1.503 . S
C52 C53 1.394 . S
C52 C57 1.373 . S
C53 C52 1.394 . S
C53 C54 1.380 . S
C53 H76 0.930 . S
C54 C53 1.380 . S
C54 C55 1.376 . S
C54 H77 0.930 . S
C55 C54 1.376 . S
C55 C56 1.370 . S
C56 C55 1.370 . S
C56 C57 1.396 . S
C56 H78 0.929 . S
C57 C52 1.373 . S
C57 C56 1.396 . S
C57 H79 0.929 . S
C58 O68 1.240 . S
C58 O69 1.289 . S
C59 O70 1.258 . S
C59 O71 1.256 . S
O60 La40 2.521 . S
O60 C42 1.261 . S
O61 La40 2.628 . S
O61 C42 1.243 . S
O62 La40 2.554 . S
O62 C49 1.240 . S
O63 La40 2.757 . S
O63 La41 2.482 . S
O63 C49 1.289 . S
O64 La40 2.470 . S
O64 C50 1.258 . S
O65 La41 2.503 . S
O65 C50 1.256 . S
O66 La41 2.521 . S
O66 C51 1.261 . S
O67 La41 2.628 . S
O67 C51 1.243 . S
O68 La41 2.554 . S
O68 C58 1.240 . S
O69 La40 2.482 . S
O69 La41 2.757 . S
O69 C58 1.289 . S
O70 La41 2.470 . S
O70 C59 1.258 . S
O71 La40 2.503 . S
O71 C59 1.256 . S
H72 C44 0.930 . S
H73 C45 0.930 . S
H74 C47 0.929 . S
H75 C48 0.929 . S
H76 C53 0.930 . S
H77 C54 0.930 . S
H78 C56 0.929 . S
H79 C57 0.929 . S
La80 C82 2.928 . S
La80 O100 2.521 . S
La80 O101 2.628 . S
La80 O102 2.554 . S
La80 O103 2.757 . S
La80 O104 2.470 . S
La80 O109 2.482 . S
La80 O111 2.503 . S
La81 C91 2.928 . S
La81 O103 2.482 . S
La81 O105 2.503 . S
La81 O106 2.521 . S
La81 O107 2.628 . S
La81 O108 2.554 . S
La81 O109 2.757 . S
La81 O110 2.470 . S
C82 La80 2.928 . S
C82 C83 1.503 . S
C82 O100 1.261 . S
C82 O101 1.243 . S
C83 C82 1.503 . S
C83 C84 1.394 . S
C83 C88 1.373 . S
C84 C83 1.394 . S
C84 C85 1.380 . S
C84 H112 0.930 . S
C85 C84 1.380 . S
C85 C86 1.376 . S
C85 H113 0.930 . S
C86 C85 1.376 . S
C86 C87 1.370 . S
C87 C86 1.370 . S
C87 C88 1.396 . S
C87 H114 0.929 . S
C88 C83 1.373 . S
C88 C87 1.396 . S
C88 H115 0.929 . S
C89 O102 1.240 . S
C89 O103 1.289 . S
C90 O104 1.258 . S
C90 O105 1.256 . S
C91 La81 2.928 . S
C91 C92 1.503 . S
C91 O106 1.261 . S
C91 O107 1.243 . S
C92 C91 1.503 . S
C92 C93 1.394 . S
C92 C97 1.373 . S
C93 C92 1.394 . S
C93 C94 1.380 . S
C93 H116 0.930 . S
C94 C93 1.380 . S
C94 C95 1.376 . S
C94 H117 0.930 . S
C95 C94 1.376 . S
C95 C96 1.370 . S
C96 C95 1.370 . S
C96 C97 1.396 . S
C96 H118 0.929 . S
C97 C92 1.373 . S
C97 C96 1.396 . S
C97 H119 0.929 . S
C98 O108 1.240 . S
C98 O109 1.289 . S
C99 O110 1.258 . S
C99 O111 1.256 . S
O100 La80 2.521 . S
O100 C82 1.261 . S
O101 La80 2.628 . S
O101 C82 1.243 . S
O102 La80 2.554 . S
O102 C89 1.240 . S
O103 La80 2.757 . S
O103 La81 2.482 . S
O103 C89 1.289 . S
O104 La80 2.470 . S
O104 C90 1.258 . S
O105 La81 2.503 . S
O105 C90 1.256 . S
O106 La81 2.521 . S
O106 C91 1.261 . S
O107 La81 2.628 . S
O107 C91 1.243 . S
O108 La81 2.554 . S
O108 C98 1.240 . S
O109 La80 2.482 . S
O109 La81 2.757 . S
O109 C98 1.289 . S
O110 La81 2.470 . S
O110 C99 1.258 . S
O111 La80 2.503 . S
O111 C99 1.256 . S
H112 C84 0.930 . S
H113 C85 0.930 . S
H114 C87 0.929 . S
H115 C88 0.929 . S
H116 C93 0.930 . S
H117 C94 0.930 . S
H118 C96 0.929 . S
H119 C97 0.929 . S
La120 C122 2.928 . S
La120 O140 2.521 . S
La120 O141 2.628 . S
La120 O142 2.554 . S
La120 O143 2.757 . S
La120 O144 2.470 . S
La120 O149 2.482 . S
La120 O151 2.503 . S
La121 C131 2.928 . S
La121 O143 2.482 . S
La121 O145 2.503 . S
La121 O146 2.521 . S
La121 O147 2.628 . S
La121 O148 2.554 . S
La121 O149 2.757 . S
La121 O150 2.470 . S
C122 La120 2.928 . S
C122 C123 1.503 1_556 S
C122 O140 1.261 . S
C122 O141 1.243 . S
C123 C122 1.503 1_554 S
C123 C124 1.394 . S
C123 C128 1.373 . S
C124 C123 1.394 . S
C124 C125 1.380 . S
C124 H152 0.923 1_554 S
C125 C124 1.380 . S
C125 C126 1.376 . S
C125 H153 0.930 . S
C126 C125 1.376 . S
C126 C127 1.370 . S
C127 C126 1.370 . S
C127 C128 1.396 . S
C127 H154 0.929 . S
C128 C123 1.373 . S
C128 C127 1.396 . S
C128 H155 0.929 . S
C129 O142 1.240 . S
C129 O143 1.289 . S
C130 O144 1.258 . S
C130 O145 1.256 . S
C131 La121 2.928 . S
C131 C132 1.503 . S
C131 O146 1.261 . S
C131 O147 1.243 . S
C132 C131 1.503 . S
C132 C133 1.394 . S
C132 C137 1.373 . S
C133 C132 1.394 . S
C133 C134 1.380 . S
C133 H156 0.930 . S
C134 C133 1.380 . S
C134 C135 1.376 . S
C134 H157 0.930 . S
C135 C134 1.376 . S
C135 C136 1.370 . S
C136 C135 1.370 . S
C136 C137 1.396 . S
C136 H158 0.929 . S
C137 C132 1.373 . S
C137 C136 1.396 . S
C137 H159 0.929 . S
C138 O148 1.240 . S
C138 O149 1.289 . S
C139 O150 1.258 . S
C139 O151 1.256 . S
O140 La120 2.521 . S
O140 C122 1.261 . S
O141 La120 2.628 . S
O141 C122 1.243 . S
O142 La120 2.554 . S
O142 C129 1.240 . S
O143 La120 2.757 . S
O143 La121 2.482 . S
O143 C129 1.289 . S
O144 La120 2.470 . S
O144 C130 1.258 . S
O145 La121 2.503 . S
O145 C130 1.256 . S
O146 La121 2.521 . S
O146 C131 1.261 . S
O147 La121 2.628 . S
O147 C131 1.243 . S
O148 La121 2.554 . S
O148 C138 1.240 . S
O149 La120 2.482 . S
O149 La121 2.757 . S
O149 C138 1.289 . S
O150 La121 2.470 . S
O150 C139 1.258 . S
O151 La120 2.503 . S
O151 C139 1.256 . S
H152 C124 0.923 1_556 S
H153 C125 0.930 . S
H154 C127 0.929 . S
H155 C128 0.929 . S
H156 C133 0.930 . S
H157 C134 0.930 . S
H158 C136 0.929 . S
H159 C137 0.929 . S
La160 C162 2.928 . S
La160 O180 2.521 . S
La160 O181 2.628 . S
La160 O182 2.554 . S
La160 O183 2.757 . S
La160 O184 2.470 . S
La160 O189 2.482 . S
La160 O191 2.503 . S
La161 C171 2.932 . S
La161 O183 2.477 1_655 S
La161 O185 2.503 . S
La161 O186 2.525 . S
La161 O187 2.630 . S
La161 O188 2.551 1_655 S
La161 O189 2.750 1_655 S
La161 O190 2.464 1_655 S
C162 La160 2.928 . S
C162 C163 1.503 . S
C162 O180 1.261 . S
C162 O181 1.243 . S
C163 C162 1.503 . S
C163 C164 1.394 . S
C163 C168 1.373 . S
C164 C163 1.394 . S
C164 C165 1.380 . S
C164 H192 0.930 . S
C165 C164 1.380 . S
C165 C166 1.376 . S
C165 H193 0.930 . S
C166 C165 1.376 . S
C166 C167 1.370 . S
C167 C166 1.370 . S
C167 C168 1.396 . S
C167 H194 0.929 . S
C168 C163 1.373 . S
C168 C167 1.396 . S
C168 H195 0.929 . S
C169 O182 1.240 . S
C169 O183 1.289 . S
C170 O184 1.258 . S
C170 O185 1.256 1_455 S
C171 La161 2.932 . S
C171 C172 1.503 . S
C171 O186 1.261 . S
C171 O187 1.243 . S
C172 C171 1.503 . S
C172 C173 1.394 1_556 S
C172 C177 1.373 1_556 S
C173 C172 1.394 1_554 S
C173 C174 1.380 . S
C173 H196 0.930 1_554 S
C174 C173 1.380 . S
C174 C175 1.376 . S
C174 H197 0.930 . S
C175 C174 1.376 . S
C175 C176 1.370 . S
C176 C175 1.370 . S
C176 C177 1.396 . S
C176 H198 0.929 . S
C177 C172 1.373 1_554 S
C177 C176 1.396 . S
C177 H199 0.929 . S
C178 O188 1.240 . S
C178 O189 1.289 . S
C179 O190 1.258 . S
C179 O191 1.256 . S
O180 La160 2.521 . S
O180 C162 1.261 . S
O181 La160 2.628 . S
O181 C162 1.243 . S
O182 La160 2.554 . S
O182 C169 1.240 . S
O183 La160 2.757 . S
O183 La161 2.477 1_455 S
O183 C169 1.289 . S
O184 La160 2.470 . S
O184 C170 1.258 . S
O185 La161 2.503 . S
O185 C170 1.256 1_655 S
O186 La161 2.525 . S
O186 C171 1.261 . S
O187 La161 2.630 . S
O187 C171 1.243 . S
O188 La161 2.551 1_455 S
O188 C178 1.240 . S
O189 La160 2.482 . S
O189 La161 2.750 1_455 S
O189 C178 1.289 . S
O190 La161 2.464 1_455 S
O190 C179 1.258 . S
O191 La160 2.503 . S
O191 C179 1.256 . S
H192 C164 0.930 . S
H193 C165 0.930 . S
H194 C167 0.929 . S
H195 C168 0.929 . S
H196 C173 0.930 1_556 S
H197 C174 0.930 . S
H198 C176 0.929 . S
H199 C177 0.929 . S
La200 C202 2.928 . S
La200 O220 2.521 . S
La200 O221 2.628 . S
La200 O222 2.554 . S
La200 O223 2.757 . S
La200 O224 2.470 . S
La200 O229 2.482 . S
La200 O231 2.503 . S
La201 C211 2.928 . S
La201 O223 2.482 . S
La201 O225 2.503 . S
La201 O226 2.521 . S
La201 O227 2.628 . S
La201 O228 2.554 . S
La201 O229 2.757 . S
La201 O230 2.470 . S
C202 La200 2.928 . S
C202 C203 1.503 . S
C202 O220 1.261 . S
C202 O221 1.243 . S
C203 C202 1.503 . S
C203 C204 1.394 . S
C203 C208 1.373 . S
C204 C203 1.394 . S
C204 C205 1.380 . S
C204 H232 0.930 . S
C205 C204 1.380 . S
C205 C206 1.376 . S
C205 H233 0.930 . S
C206 C205 1.376 . S
C206 C207 1.370 . S
C207 C206 1.370 . S
C207 C208 1.396 . S
C207 H234 0.929 . S
C208 C203 1.373 . S
C208 C207 1.396 . S
C208 H235 0.929 . S
C209 O222 1.240 . S
C209 O223 1.289 . S
C210 O224 1.258 . S
C210 O225 1.256 . S
C211 La201 2.928 . S
C211 C212 1.503 . S
C211 O226 1.261 . S
C211 O227 1.243 . S
C212 C211 1.503 . S
C212 C213 1.394 . S
C212 C217 1.373 . S
C213 C212 1.394 . S
C213 C214 1.380 . S
C213 H236 0.930 . S
C214 C213 1.380 . S
C214 C215 1.376 1_554 S
C214 H237 0.930 1_554 S
C215 C214 1.376 1_556 S
C215 C216 1.370 . S
C216 C215 1.370 . S
C216 C217 1.396 1_556 S
C216 H238 0.929 . S
C217 C212 1.373 . S
C217 C216 1.396 1_554 S
C217 H239 0.929 . S
C218 O228 1.240 . S
C218 O229 1.289 . S
C219 O230 1.258 . S
C219 O231 1.256 . S
O220 La200 2.521 . S
O220 C202 1.261 . S
O221 La200 2.628 . S
O221 C202 1.243 . S
O222 La200 2.554 . S
O222 C209 1.240 . S
O223 La200 2.757 . S
O223 La201 2.482 . S
O223 C209 1.289 . S
O224 La200 2.470 . S
O224 C210 1.258 . S
O225 La201 2.503 . S
O225 C210 1.256 . S
O226 La201 2.521 . S
O226 C211 1.261 . S
O227 La201 2.628 . S
O227 C211 1.243 . S
O228 La201 2.554 . S
O228 C218 1.240 . S
O229 La200 2.482 . S
O229 La201 2.757 . S
O229 C218 1.289 . S
O230 La201 2.470 . S
O230 C219 1.258 . S
O231 La200 2.503 . S
O231 C219 1.256 . S
H232 C204 0.930 . S
H233 C205 0.930 . S
H234 C207 0.929 . S
H235 C208 0.929 . S
H236 C213 0.930 . S
H237 C214 0.930 1_556 S
H238 C216 0.929 . S
H239 C217 0.929 . S
La240 C242 2.928 . S
La240 O260 2.521 . S
La240 O261 2.628 . S
La240 O262 2.554 . S
La240 O263 2.757 . S
La240 O264 2.470 . S
La240 O269 2.482 . S
La240 O271 2.503 . S
La241 C251 2.928 . S
La241 O263 2.482 . S
La241 O265 2.503 . S
La241 O266 2.521 . S
La241 O267 2.628 . S
La241 O268 2.554 . S
La241 O269 2.757 . S
La241 O270 2.470 . S
C242 La240 2.928 . S
C242 C243 1.503 . S
C242 O260 1.261 . S
C242 O261 1.243 . S
C243 C242 1.503 . S
C243 C244 1.394 . S
C243 C248 1.373 . S
C244 C243 1.394 . S
C244 C245 1.380 . S
C244 H272 0.930 . S
C245 C244 1.380 . S
C245 C246 1.376 . S
C245 H273 0.930 . S
C246 C245 1.376 . S
C246 C247 1.370 . S
C247 C246 1.370 . S
C247 C248 1.396 . S
C247 H274 0.929 . S
C248 C243 1.373 . S
C248 C247 1.396 . S
C248 H275 0.929 . S
C249 O262 1.240 . S
C249 O263 1.289 . S
C250 O264 1.258 . S
C250 O265 1.256 . S
C251 La241 2.928 . S
C251 C252 1.503 . S
C251 O266 1.261 . S
C251 O267 1.243 . S
C252 C251 1.503 . S
C252 C253 1.394 . S
C252 C257 1.373 . S
C253 C252 1.394 . S
C253 C254 1.380 . S
C253 H276 0.930 . S
C254 C253 1.380 . S
C254 C255 1.376 . S
C254 H277 0.930 . S
C255 C254 1.376 . S
C255 C256 1.370 . S
C256 C255 1.370 . S
C256 C257 1.396 . S
C256 H278 0.929 . S
C257 C252 1.373 . S
C257 C256 1.396 . S
C257 H279 0.929 . S
C258 O268 1.240 . S
C258 O269 1.289 . S
C259 O270 1.258 . S
C259 O271 1.256 . S
O260 La240 2.521 . S
O260 C242 1.261 . S
O261 La240 2.628 . S
O261 C242 1.243 . S
O262 La240 2.554 . S
O262 C249 1.240 . S
O263 La240 2.757 . S
O263 La241 2.482 . S
O263 C249 1.289 . S
O264 La240 2.470 . S
O264 C250 1.258 . S
O265 La241 2.503 . S
O265 C250 1.256 . S
O266 La241 2.521 . S
O266 C251 1.261 . S
O267 La241 2.628 . S
O267 C251 1.243 . S
O268 La241 2.554 . S
O268 C258 1.240 . S
O269 La240 2.482 . S
O269 La241 2.757 . S
O269 C258 1.289 . S
O270 La241 2.470 . S
O270 C259 1.258 . S
O271 La240 2.503 . S
O271 C259 1.256 . S
H272 C244 0.930 . S
H273 C245 0.930 . S
H274 C247 0.929 . S
H275 C248 0.929 . S
H276 C253 0.930 . S
H277 C254 0.930 . S
H278 C256 0.929 . S
H279 C257 0.929 . S
La280 C282 2.928 . S
La280 O300 2.521 . S
La280 O301 2.628 . S
La280 O302 2.554 . S
La280 O303 2.757 . S
La280 O304 2.470 . S
La280 O309 2.482 . S
La280 O311 2.503 . S
La281 C291 2.928 . S
La281 O303 2.482 . S
La281 O305 2.503 . S
La281 O306 2.521 . S
La281 O307 2.628 . S
La281 O308 2.554 . S
La281 O309 2.757 . S
La281 O310 2.470 . S
C282 La280 2.928 . S
C282 C283 1.503 . S
C282 O300 1.261 . S
C282 O301 1.243 . S
C283 C282 1.503 . S
C283 C284 1.394 . S
C283 C288 1.373 . S
C284 C283 1.394 . S
C284 C285 1.380 . S
C284 H312 0.930 . S
C285 C284 1.380 . S
C285 C286 1.376 . S
C285 H313 0.930 . S
C286 C285 1.376 . S
C286 C287 1.370 . S
C287 C286 1.370 . S
C287 C288 1.396 . S
C287 H314 0.929 . S
C288 C283 1.373 . S
C288 C287 1.396 . S
C288 H315 0.929 . S
C289 O302 1.240 . S
C289 O303 1.289 . S
C290 O304 1.258 . S
C290 O305 1.256 . S
C291 La281 2.928 . S
C291 C292 1.503 . S
C291 O306 1.261 . S
C291 O307 1.243 . S
C292 C291 1.503 . S
C292 C293 1.394 . S
C292 C297 1.373 . S
C293 C292 1.394 . S
C293 C294 1.380 . S
C293 H316 0.930 . S
C294 C293 1.380 . S
C294 C295 1.376 . S
C294 H317 0.930 . S
C295 C294 1.376 . S
C295 C296 1.370 . S
C296 C295 1.370 . S
C296 C297 1.396 . S
C296 H318 0.929 . S
C297 C292 1.373 . S
C297 C296 1.396 . S
C297 H319 0.929 . S
C298 O308 1.240 . S
C298 O309 1.289 . S
C299 O310 1.258 . S
C299 O311 1.256 . S
O300 La280 2.521 . S
O300 C282 1.261 . S
O301 La280 2.628 . S
O301 C282 1.243 . S
O302 La280 2.554 . S
O302 C289 1.240 . S
O303 La280 2.757 . S
O303 La281 2.482 . S
O303 C289 1.289 . S
O304 La280 2.470 . S
O304 C290 1.258 . S
O305 La281 2.503 . S
O305 C290 1.256 . S
O306 La281 2.521 . S
O306 C291 1.261 . S
O307 La281 2.628 . S
O307 C291 1.243 . S
O308 La281 2.554 . S
O308 C298 1.240 . S
O309 La280 2.482 . S
O309 La281 2.757 . S
O309 C298 1.289 . S
O310 La281 2.470 . S
O310 C299 1.258 . S
O311 La280 2.503 . S
O311 C299 1.256 . S
H312 C284 0.930 . S
H313 C285 0.930 . S
H314 C287 0.929 . S
H315 C288 0.929 . S
H316 C293 0.930 . S
H317 C294 0.930 . S
H318 C296 0.929 . S
H319 C297 0.929 . S
La320 C322 2.928 . S
La320 O340 2.521 . S
La320 O341 2.628 . S
La320 O342 2.554 . S
La320 O343 2.757 . S
La320 O344 2.470 . S
La320 O349 2.482 . S
La320 O351 2.503 . S
La321 C331 2.928 . S
La321 O343 2.482 . S
La321 O345 2.503 . S
La321 O346 2.521 . S
La321 O347 2.628 . S
La321 O348 2.554 . S
La321 O349 2.757 . S
La321 O350 2.470 . S
C322 La320 2.928 . S
C322 C323 1.503 . S
C322 O340 1.261 . S
C322 O341 1.243 . S
C323 C322 1.503 . S
C323 C324 1.394 . S
C323 C328 1.373 . S
C324 C323 1.394 . S
C324 C325 1.380 . S
C324 H352 0.930 . S
C325 C324 1.380 . S
C325 C326 1.376 . S
C325 H353 0.930 . S
C326 C325 1.376 . S
C326 C327 1.370 . S
C327 C326 1.370 . S
C327 C328 1.396 . S
C327 H354 0.929 . S
C328 C323 1.373 . S
C328 C327 1.396 . S
C328 H355 0.929 . S
C329 O342 1.240 . S
C329 O343 1.289 . S
C330 O344 1.258 . S
C330 O345 1.256 . S
C331 La321 2.928 . S
C331 C332 1.503 . S
C331 O346 1.261 . S
C331 O347 1.243 . S
C332 C331 1.503 . S
C332 C333 1.394 . S
C332 C337 1.373 . S
C333 C332 1.394 . S
C333 C334 1.380 . S
C333 H356 0.930 . S
C334 C333 1.380 . S
C334 C335 1.376 . S
C334 H357 0.930 . S
C335 C334 1.376 . S
C335 C336 1.370 . S
C336 C335 1.370 . S
C336 C337 1.396 . S
C336 H358 0.929 . S
C337 C332 1.373 . S
C337 C336 1.396 . S
C337 H359 0.929 . S
C338 O348 1.240 . S
C338 O349 1.289 . S
C339 O350 1.258 . S
C339 O351 1.256 . S
O340 La320 2.521 . S
O340 C322 1.261 . S
O341 La320 2.628 . S
O341 C322 1.243 . S
O342 La320 2.554 . S
O342 C329 1.240 . S
O343 La320 2.757 . S
O343 La321 2.482 . S
O343 C329 1.289 . S
O344 La320 2.470 . S
O344 C330 1.258 . S
O345 La321 2.503 . S
O345 C330 1.256 . S
O346 La321 2.521 . S
O346 C331 1.261 . S
O347 La321 2.628 . S
O347 C331 1.243 . S
O348 La321 2.554 . S
O348 C338 1.240 . S
O349 La320 2.482 . S
O349 La321 2.757 . S
O349 C338 1.289 . S
O350 La321 2.470 . S
O350 C339 1.258 . S
O351 La320 2.503 . S
O351 C339 1.256 . S
H352 C324 0.930 . S
H353 C325 0.930 . S
H354 C327 0.929 . S
H355 C328 0.929 . S
H356 C333 0.930 . S
H357 C334 0.930 . S
H358 C336 0.929 . S
H359 C337 0.929 . S
La360 C362 2.928 . S
La360 O380 2.521 . S
La360 O381 2.628 . S
La360 O382 2.554 . S
La360 O383 2.757 . S
La360 O384 2.470 . S
La360 O389 2.482 . S
La360 O391 2.503 . S
La361 C371 2.928 . S
La361 O383 2.482 . S
La361 O385 2.503 . S
La361 O386 2.521 . S
La361 O387 2.628 . S
La361 O388 2.554 . S
La361 O389 2.757 . S
La361 O390 2.470 . S
C362 La360 2.928 . S
C362 C363 1.503 . S
C362 O380 1.261 . S
C362 O381 1.243 . S
C363 C362 1.503 . S
C363 C364 1.394 . S
C363 C368 1.373 . S
C364 C363 1.394 . S
C364 C365 1.380 . S
C364 H392 0.930 . S
C365 C364 1.380 . S
C365 C366 1.376 . S
C365 H393 0.930 . S
C366 C365 1.376 . S
C366 C367 1.370 . S
C367 C366 1.370 . S
C367 C368 1.396 . S
C367 H394 0.929 . S
C368 C363 1.373 . S
C368 C367 1.396 . S
C368 H395 0.929 . S
C369 O382 1.240 . S
C369 O383 1.289 . S
C370 O384 1.258 . S
C370 O385 1.256 . S
C371 La361 2.928 . S
C371 C372 1.503 1_554 S
C371 O386 1.261 . S
C371 O387 1.243 . S
C372 C371 1.503 1_556 S
C372 C373 1.394 . S
C372 C377 1.373 . S
C373 C372 1.394 . S
C373 C374 1.380 . S
C373 H396 0.923 1_556 S
C374 C373 1.380 . S
C374 C375 1.376 . S
C374 H397 0.930 . S
C375 C374 1.376 . S
C375 C376 1.370 . S
C376 C375 1.370 . S
C376 C377 1.396 . S
C376 H398 0.929 . S
C377 C372 1.373 . S
C377 C376 1.396 . S
C377 H399 0.929 . S
C378 O388 1.240 . S
C378 O389 1.289 . S
C379 O390 1.258 . S
C379 O391 1.256 . S
O380 La360 2.521 . S
O380 C362 1.261 . S
O381 La360 2.628 . S
O381 C362 1.243 . S
O382 La360 2.554 . S
O382 C369 1.240 . S
O383 La360 2.757 . S
O383 La361 2.482 . S
O383 C369 1.289 . S
O384 La360 2.470 . S
O384 C370 1.258 . S
O385 La361 2.503 . S
O385 C370 1.256 . S
O386 La361 2.521 . S
O386 C371 1.261 . S
O387 La361 2.628 . S
O387 C371 1.243 . S
O388 La361 2.554 . S
O388 C378 1.240 . S
O389 La360 2.482 . S
O389 La361 2.757 . S
O389 C378 1.289 . S
O390 La361 2.470 . S
O390 C379 1.258 . S
O391 La360 2.503 . S
O391 C379 1.256 . S
H392 C364 0.930 . S
H393 C365 0.930 . S
H394 C367 0.929 . S
H395 C368 0.929 . S
H396 C373 0.923 1_554 S
H397 C374 0.930 . S
H398 C376 0.929 . S
H399 C377 0.929 . S
La400 C402 2.928 . S
La400 O420 2.521 . S
La400 O421 2.628 . S
La400 O422 2.554 . S
La400 O423 2.757 . S
La400 O424 2.470 . S
La400 O429 2.482 . S
La400 O431 2.503 . S
La401 C411 2.928 . S
La401 O423 2.482 . S
La401 O425 2.503 . S
La401 O426 2.521 . S
La401 O427 2.628 . S
La401 O428 2.554 . S
La401 O429 2.757 . S
La401 O430 2.470 . S
C402 La400 2.928 . S
C402 C403 1.503 . S
C402 O420 1.261 . S
C402 O421 1.243 . S
C403 C402 1.503 . S
C403 C404 1.394 . S
C403 C408 1.373 . S
C404 C403 1.394 . S
C404 C405 1.380 . S
C404 H432 0.930 . S
C405 C404 1.380 . S
C405 C406 1.376 1_556 S
C405 H433 0.930 1_556 S
C406 C405 1.376 1_554 S
C406 C407 1.370 . S
C407 C406 1.370 . S
C407 C408 1.396 1_554 S
C407 H434 0.929 . S
C408 C403 1.373 . S
C408 C407 1.396 1_556 S
C408 H435 0.929 . S
C409 O422 1.240 . S
C409 O423 1.289 . S
C410 O424 1.258 . S
C410 O425 1.256 . S
C411 La401 2.928 . S
C411 C412 1.503 . S
C411 O426 1.261 . S
C411 O427 1.243 . S
C412 C411 1.503 . S
C412 C413 1.394 . S
C412 C417 1.373 . S
C413 C412 1.394 . S
C413 C414 1.380 . S
C413 H436 0.930 . S
C414 C413 1.380 . S
C414 C415 1.376 . S
C414 H437 0.930 . S
C415 C414 1.376 . S
C415 C416 1.370 . S
C416 C415 1.370 . S
C416 C417 1.396 . S
C416 H438 0.929 . S
C417 C412 1.373 . S
C417 C416 1.396 . S
C417 H439 0.929 . S
C418 O428 1.240 . S
C418 O429 1.289 . S
C419 O430 1.258 . S
C419 O431 1.256 . S
O420 La400 2.521 . S
O420 C402 1.261 . S
O421 La400 2.628 . S
O421 C402 1.243 . S
O422 La400 2.554 . S
O422 C409 1.240 . S
O423 La400 2.757 . S
O423 La401 2.482 . S
O423 C409 1.289 . S
O424 La400 2.470 . S
O424 C410 1.258 . S
O425 La401 2.503 . S
O425 C410 1.256 . S
O426 La401 2.521 . S
O426 C411 1.261 . S
O427 La401 2.628 . S
O427 C411 1.243 . S
O428 La401 2.554 . S
O428 C418 1.240 . S
O429 La400 2.482 . S
O429 La401 2.757 . S
O429 C418 1.289 . S
O430 La401 2.470 . S
O430 C419 1.258 . S
O431 La400 2.503 . S
O431 C419 1.256 . S
H432 C404 0.930 . S
H433 C405 0.930 1_554 S
H434 C407 0.929 . S
H435 C408 0.929 . S
H436 C413 0.930 . S
H437 C414 0.930 . S
H438 C416 0.929 . S
H439 C417 0.929 . S
La440 C442 2.928 . S
La440 O460 2.521 . S
La440 O461 2.628 . S
La440 O462 2.554 . S
La440 O463 2.757 . S
La440 O464 2.470 . S
La440 O469 2.482 . S
La440 O471 2.503 . S
La441 C451 2.928 . S
La441 O463 2.482 . S
La441 O465 2.503 . S
La441 O466 2.521 . S
La441 O467 2.628 . S
La441 O468 2.554 . S
La441 O469 2.757 . S
La441 O470 2.470 . S
C442 La440 2.928 . S
C442 C443 1.503 . S
C442 O460 1.261 . S
C442 O461 1.243 . S
C443 C442 1.503 . S
C443 C444 1.394 . S
C443 C448 1.373 . S
C444 C443 1.394 . S
C444 C445 1.380 . S
C444 H472 0.930 . S
C445 C444 1.380 . S
C445 C446 1.376 . S
C445 H473 0.930 . S
C446 C445 1.376 . S
C446 C447 1.370 . S
C447 C446 1.370 . S
C447 C448 1.396 . S
C447 H474 0.929 . S
C448 C443 1.373 . S
C448 C447 1.396 . S
C448 H475 0.929 . S
C449 O462 1.240 . S
C449 O463 1.289 . S
C450 O464 1.258 . S
C450 O465 1.256 . S
C451 La441 2.928 . S
C451 C452 1.503 . S
C451 O466 1.261 . S
C451 O467 1.243 . S
C452 C451 1.503 . S
C452 C453 1.394 . S
C452 C457 1.373 . S
C453 C452 1.394 . S
C453 C454 1.380 . S
C453 H476 0.930 . S
C454 C453 1.380 . S
C454 C455 1.376 . S
C454 H477 0.930 . S
C455 C454 1.376 . S
C455 C456 1.370 . S
C456 C455 1.370 . S
C456 C457 1.396 . S
C456 H478 0.929 . S
C457 C452 1.373 . S
C457 C456 1.396 . S
C457 H479 0.929 . S
C458 O468 1.240 . S
C458 O469 1.289 . S
C459 O470 1.258 . S
C459 O471 1.256 . S
O460 La440 2.521 . S
O460 C442 1.261 . S
O461 La440 2.628 . S
O461 C442 1.243 . S
O462 La440 2.554 . S
O462 C449 1.240 . S
O463 La440 2.757 . S
O463 La441 2.482 . S
O463 C449 1.289 . S
O464 La440 2.470 . S
O464 C450 1.258 . S
O465 La441 2.503 . S
O465 C450 1.256 . S
O466 La441 2.521 . S
O466 C451 1.261 . S
O467 La441 2.628 . S
O467 C451 1.243 . S
O468 La441 2.554 . S
O468 C458 1.240 . S
O469 La440 2.482 . S
O469 La441 2.757 . S
O469 C458 1.289 . S
O470 La441 2.470 . S
O470 C459 1.258 . S
O471 La440 2.503 . S
O471 C459 1.256 . S
H472 C444 0.930 . S
H473 C445 0.930 . S
H474 C447 0.929 . S
H475 C448 0.929 . S
H476 C453 0.930 . S
H477 C454 0.930 . S
H478 C456 0.929 . S
H479 C457 0.929 . S
La480 C482 2.928 . S
La480 O500 2.521 . S
La480 O501 2.628 . S
La480 O502 2.554 . S
La480 O503 2.757 . S
La480 O504 2.470 . S
La480 O509 2.482 . S
La480 O511 2.503 . S
La481 C491 2.928 . S
La481 O503 2.482 . S
La481 O505 2.503 . S
La481 O506 2.521 . S
La481 O507 2.628 . S
La481 O508 2.554 . S
La481 O509 2.757 . S
La481 O510 2.470 . S
C482 La480 2.928 . S
C482 C483 1.503 . S
C482 O500 1.261 . S
C482 O501 1.243 . S
C483 C482 1.503 . S
C483 C484 1.394 . S
C483 C488 1.373 . S
C484 C483 1.394 . S
C484 C485 1.380 . S
C484 H512 0.930 . S
C485 C484 1.380 . S
C485 C486 1.376 . S
C485 H513 0.930 . S
C486 C485 1.376 . S
C486 C487 1.370 . S
C487 C486 1.370 . S
C487 C488 1.396 . S
C487 H514 0.929 . S
C488 C483 1.373 . S
C488 C487 1.396 . S
C488 H515 0.929 . S
C489 O502 1.240 . S
C489 O503 1.289 . S
C490 O504 1.258 . S
C490 O505 1.256 . S
C491 La481 2.928 . S
C491 C492 1.503 . S
C491 O506 1.261 . S
C491 O507 1.243 . S
C492 C491 1.503 . S
C492 C493 1.394 . S
C492 C497 1.373 . S
C493 C492 1.394 . S
C493 C494 1.380 . S
C493 H516 0.930 . S
C494 C493 1.380 . S
C494 C495 1.376 . S
C494 H517 0.930 . S
C495 C494 1.376 . S
C495 C496 1.370 . S
C496 C495 1.370 . S
C496 C497 1.396 . S
C496 H518 0.929 . S
C497 C492 1.373 . S
C497 C496 1.396 . S
C497 H519 0.929 . S
C498 O508 1.240 . S
C498 O509 1.289 . S
C499 O510 1.258 . S
C499 O511 1.256 . S
O500 La480 2.521 . S
O500 C482 1.261 . S
O501 La480 2.628 . S
O501 C482 1.243 . S
O502 La480 2.554 . S
O502 C489 1.240 . S
O503 La480 2.757 . S
O503 La481 2.482 . S
O503 C489 1.289 . S
O504 La480 2.470 . S
O504 C490 1.258 . S
O505 La481 2.503 . S
O505 C490 1.256 . S
O506 La481 2.521 . S
O506 C491 1.261 . S
O507 La481 2.628 . S
O507 C491 1.243 . S
O508 La481 2.554 . S
O508 C498 1.240 . S
O509 La480 2.482 . S
O509 La481 2.757 . S
O509 C498 1.289 . S
O510 La481 2.470 . S
O510 C499 1.258 . S
O511 La480 2.503 . S
O511 C499 1.256 . S
H512 C484 0.930 . S
H513 C485 0.930 . S
H514 C487 0.929 . S
H515 C488 0.929 . S
H516 C493 0.930 . S
H517 C494 0.930 . S
H518 C496 0.929 . S
H519 C497 0.929 . S
La520 C522 2.928 . S
La520 O540 2.521 . S
La520 O541 2.628 . S
La520 O542 2.554 . S
La520 O543 2.757 1_655 S
La520 O544 2.470 1_655 S
La520 O549 2.482 1_655 S
La520 O551 2.503 . S
La521 C531 2.928 . S
La521 O543 2.482 . S
La521 O545 2.503 . S
La521 O546 2.521 . S
La521 O547 2.628 . S
La521 O548 2.554 . S
La521 O549 2.757 . S
La521 O550 2.470 . S
C522 La520 2.928 . S
C522 C523 1.503 . S
C522 O540 1.261 . S
C522 O541 1.243 . S
C523 C522 1.503 . S
C523 C524 1.394 . S
C523 C528 1.373 . S
C524 C523 1.394 . S
C524 C525 1.380 . S
C524 H552 0.930 . S
C525 C524 1.380 . S
C525 C526 1.376 . S
C525 H553 0.930 . S
C526 C525 1.376 . S
C526 C527 1.370 . S
C527 C526 1.370 . S
C527 C528 1.396 . S
C527 H554 0.929 . S
C528 C523 1.373 . S
C528 C527 1.396 . S
C528 H555 0.929 . S
C529 O542 1.240 1_455 S
C529 O543 1.289 . S
C530 O544 1.258 . S
C530 O545 1.256 . S
C531 La521 2.928 . S
C531 C532 1.503 . S
C531 O546 1.261 . S
C531 O547 1.243 . S
C532 C531 1.503 . S
C532 C533 1.394 1_554 S
C532 C537 1.373 1_554 S
C533 C532 1.394 1_556 S
C533 C534 1.380 . S
C533 H556 0.930 1_556 S
C534 C533 1.380 . S
C534 C535 1.376 . S
C534 H557 0.930 . S
C535 C534 1.376 . S
C535 C536 1.370 . S
C536 C535 1.370 . S
C536 C537 1.396 . S
C536 H558 0.929 . S
C537 C532 1.373 1_556 S
C537 C536 1.396 . S
C537 H559 0.929 . S
C538 O548 1.240 . S
C538 O549 1.289 . S
C539 O550 1.258 1_655 S
C539 O551 1.256 . S
O540 La520 2.521 . S
O540 C522 1.261 . S
O541 La520 2.628 . S
O541 C522 1.243 . S
O542 La520 2.554 . S
O542 C529 1.240 1_655 S
O543 La520 2.757 1_455 S
O543 La521 2.482 . S
O543 C529 1.289 . S
O544 La520 2.470 1_455 S
O544 C530 1.258 . S
O545 La521 2.503 . S
O545 C530 1.256 . S
O546 La521 2.521 . S
O546 C531 1.261 . S
O547 La521 2.628 . S
O547 C531 1.243 . S
O548 La521 2.554 . S
O548 C538 1.240 . S
O549 La520 2.482 1_455 S
O549 La521 2.757 . S
O549 C538 1.289 . S
O550 La521 2.470 . S
O550 C539 1.258 1_455 S
O551 La520 2.503 . S
O551 C539 1.256 . S
H552 C524 0.930 . S
H553 C525 0.930 . S
H554 C527 0.929 . S
H555 C528 0.929 . S
H556 C533 0.930 1_554 S
H557 C534 0.930 . S
H558 C536 0.929 . S
H559 C537 0.929 . S
La560 C562 2.928 . S
La560 O580 2.521 . S
La560 O581 2.628 . S
La560 O582 2.554 . S
La560 O583 2.757 . S
La560 O584 2.470 . S
La560 O589 2.482 . S
La560 O591 2.503 . S
La561 C571 2.928 . S
La561 O583 2.482 . S
La561 O585 2.503 . S
La561 O586 2.521 . S
La561 O587 2.628 . S
La561 O588 2.554 . S
La561 O589 2.757 . S
La561 O590 2.470 . S
C562 La560 2.928 . S
C562 C563 1.503 . S
C562 O580 1.261 . S
C562 O581 1.243 . S
C563 C562 1.503 . S
C563 C564 1.394 . S
C563 C568 1.373 . S
C564 C563 1.394 . S
C564 C565 1.380 . S
C564 H592 0.930 . S
C565 C564 1.380 . S
C565 C566 1.376 . S
C565 H593 0.930 . S
C566 C565 1.376 . S
C566 C567 1.370 . S
C567 C566 1.370 . S
C567 C568 1.396 . S
C567 H594 0.929 . S
C568 C563 1.373 . S
C568 C567 1.396 . S
C568 H595 0.929 . S
C569 O582 1.240 . S
C569 O583 1.289 . S
C570 O584 1.258 . S
C570 O585 1.256 . S
C571 La561 2.928 . S
C571 C572 1.503 . S
C571 O586 1.261 . S
C571 O587 1.243 . S
C572 C571 1.503 . S
C572 C573 1.394 . S
C572 C577 1.373 . S
C573 C572 1.394 . S
C573 C574 1.380 . S
C573 H596 0.930 . S
C574 C573 1.380 . S
C574 C575 1.376 . S
C574 H597 0.930 . S
C575 C574 1.376 . S
C575 C576 1.370 . S
C576 C575 1.370 . S
C576 C577 1.396 . S
C576 H598 0.929 . S
C577 C572 1.373 . S
C577 C576 1.396 . S
C577 H599 0.929 . S
C578 O588 1.240 . S
C578 O589 1.289 . S
C579 O590 1.258 . S
C579 O591 1.256 . S
O580 La560 2.521 . S
O580 C562 1.261 . S
O581 La560 2.628 . S
O581 C562 1.243 . S
O582 La560 2.554 . S
O582 C569 1.240 . S
O583 La560 2.757 . S
O583 La561 2.482 . S
O583 C569 1.289 . S
O584 La560 2.470 . S
O584 C570 1.258 . S
O585 La561 2.503 . S
O585 C570 1.256 . S
O586 La561 2.521 . S
O586 C571 1.261 . S
O587 La561 2.628 . S
O587 C571 1.243 . S
O588 La561 2.554 . S
O588 C578 1.240 . S
O589 La560 2.482 . S
O589 La561 2.757 . S
O589 C578 1.289 . S
O590 La561 2.470 . S
O590 C579 1.258 . S
O591 La560 2.503 . S
O591 C579 1.256 . S
H592 C564 0.930 . S
H593 C565 0.930 . S
H594 C567 0.929 . S
H595 C568 0.929 . S
H596 C573 0.930 . S
H597 C574 0.930 . S
H598 C576 0.929 . S
H599 C577 0.929 . S
La600 C602 2.928 . S
La600 O620 2.521 . S
La600 O621 2.628 . S
La600 O622 2.554 1_655 S
La600 O623 2.757 1_655 S
La600 O624 2.470 1_655 S
La600 O629 2.482 1_655 S
La600 O631 2.503 . S
La601 C611 2.928 . S
La601 O623 2.482 . S
La601 O625 2.503 . S
La601 O626 2.521 . S
La601 O627 2.628 . S
La601 O628 2.554 . S
La601 O629 2.757 . S
La601 O630 2.470 . S
C602 La600 2.928 . S
C602 C603 1.503 . S
C602 O620 1.261 . S
C602 O621 1.243 . S
C603 C602 1.503 . S
C603 C604 1.394 1_556 S
C603 C608 1.373 1_556 S
C604 C603 1.394 1_554 S
C604 C605 1.380 . S
C604 H632 0.930 1_554 S
C605 C604 1.380 . S
C605 C606 1.376 . S
C605 H633 0.930 . S
C606 C605 1.376 . S
C606 C607 1.370 . S
C607 C606 1.370 . S
C607 C608 1.396 . S
C607 H634 0.929 . S
C608 C603 1.373 1_554 S
C608 C607 1.396 . S
C608 H635 0.929 . S
C609 O622 1.240 . S
C609 O623 1.289 . S
C610 O624 1.258 . S
C610 O625 1.256 . S
C611 La601 2.928 . S
C611 C612 1.503 . S
C611 O626 1.261 . S
C611 O627 1.243 . S
C612 C611 1.503 . S
C612 C613 1.394 . S
C612 C617 1.373 . S
C613 C612 1.394 . S
C613 C614 1.380 . S
C613 H636 0.930 . S
C614 C613 1.380 . S
C614 C615 1.376 . S
C614 H637 0.930 . S
C615 C614 1.376 . S
C615 C616 1.370 . S
C616 C615 1.370 . S
C616 C617 1.396 . S
C616 H638 0.929 . S
C617 C612 1.373 . S
C617 C616 1.396 . S
C617 H639 0.929 . S
C618 O628 1.240 . S
C618 O629 1.289 . S
C619 O630 1.258 1_655 S
C619 O631 1.256 . S
O620 La600 2.521 . S
O620 C602 1.261 . S
O621 La600 2.628 . S
O621 C602 1.243 . S
O622 La600 2.554 1_455 S
O622 C609 1.240 . S
O623 La600 2.757 1_455 S
O623 La601 2.482 . S
O623 C609 1.289 . S
O624 La600 2.470 1_455 S
O624 C610 1.258 . S
O625 La601 2.503 . S
O625 C610 1.256 . S
O626 La601 2.521 . S
O626 C611 1.261 . S
O627 La601 2.628 . S
O627 C611 1.243 . S
O628 La601 2.554 . S
O628 C618 1.240 . S
O629 La600 2.482 1_455 S
O629 La601 2.757 . S
O629 C618 1.289 . S
O630 La601 2.470 . S
O630 C619 1.258 1_455 S
O631 La600 2.503 . S
O631 C619 1.256 . S
H632 C604 0.930 1_556 S
H633 C605 0.930 . S
H634 C607 0.929 . S
H635 C608 0.929 . S
H636 C613 0.930 . S
H637 C614 0.930 . S
H638 C616 0.929 . S
H639 C617 0.929 . S
C640 C641 1.349 . S
C640 C642 1.327 . S
C640 H665 0.950 . S
C641 C640 1.349 . S
C641 C657 1.349 . S
C642 C640 1.327 . S
C642 C661 1.429 . S
C642 H666 0.950 . S
C643 C660 1.574 . S
C643 C662 1.368 . S
C643 H667 0.949 . S
H644 C648 0.949 . S
C645 C646 1.349 . S
C645 C647 1.327 . S
C645 H668 0.950 . S
C646 C645 1.349 . S
C646 C658 1.349 . S
C647 C645 1.327 . S
C647 C663 1.429 . S
C647 H669 0.950 . S
C648 H644 0.949 . S
C648 C656 1.574 . S
C648 C664 1.368 . S
H649 C657 0.950 . S
H650 C655 0.950 . S
H651 C656 0.949 . S
H652 C658 0.950 . S
H653 C659 0.950 . S
H654 C660 0.949 . S
C655 H650 0.950 . S
C655 C657 1.327 . S
C655 C661 1.429 . S
C656 C648 1.574 . S
C656 H651 0.949 . S
C656 C662 1.368 . S
C657 C641 1.349 . S
C657 H649 0.950 . S
C657 C655 1.327 . S
C658 C646 1.349 . S
C658 H652 0.950 . S
C658 C659 1.327 . S
C659 H653 0.950 . S
C659 C658 1.327 . S
C659 C663 1.429 . S
C660 C643 1.574 . S
C660 H654 0.949 . S
C660 C664 1.368 . S
C661 C642 1.429 . S
C661 C655 1.429 . S
C661 C662 1.523 . S
C662 C643 1.368 . S
C662 C656 1.368 . S
C662 C661 1.523 . S
C663 C647 1.429 . S
C663 C659 1.429 . S
C663 C664 1.523 . S
C664 C648 1.368 . S
C664 C660 1.368 . S
C664 C663 1.523 . S
H665 C640 0.950 . S
H666 C642 0.950 . S
H667 C643 0.949 . S
H668 C645 0.950 . S
H669 C647 0.950 . S
C670 C671 1.349 . S
C670 C672 1.327 . S
C670 H695 0.950 . S
C671 C670 1.349 . S
C671 C687 1.349 . S
C672 C670 1.327 . S
C672 C691 1.429 . S
C672 H696 0.950 . S
C673 C690 1.574 . S
C673 C692 1.368 . S
C673 H697 0.949 . S
H674 C678 0.949 . S
C675 C676 1.349 . S
C675 C677 1.327 . S
C675 H698 0.950 . S
C676 C675 1.349 . S
C676 C688 1.349 . S
C677 C675 1.327 . S
C677 C693 1.429 . S
C677 H699 0.950 . S
C678 H674 0.949 . S
C678 C686 1.574 . S
C678 C694 1.368 . S
H679 C687 0.950 . S
H680 C685 0.950 . S
H681 C686 0.949 . S
H682 C688 0.950 1_556 S
H683 C689 0.950 . S
H684 C690 0.949 . S
C685 H680 0.950 . S
C685 C687 1.327 . S
C685 C691 1.429 . S
C686 C678 1.574 . S
C686 H681 0.949 . S
C686 C692 1.368 . S
C687 C671 1.349 . S
C687 H679 0.950 . S
C687 C685 1.327 . S
C688 C676 1.349 . S
C688 H682 0.950 1_554 S
C688 C689 1.327 . S
C689 H683 0.950 . S
C689 C688 1.327 . S
C689 C693 1.429 . S
C690 C673 1.574 . S
C690 H684 0.949 . S
C690 C694 1.368 . S
C691 C672 1.429 . S
C691 C685 1.429 . S
C691 C692 1.523 . S
C692 C673 1.368 . S
C692 C686 1.368 . S
C692 C691 1.523 . S
C693 C677 1.429 . S
C693 C689 1.429 . S
C693 C694 1.523 . S
C694 C678 1.368 . S
C694 C690 1.368 . S
C694 C693 1.523 . S
H695 C670 0.950 . S
H696 C672 0.950 . S
H697 C673 0.949 . S
H698 C675 0.950 . S
H699 C677 0.950 . S
C700 C701 1.349 . S
C700 C702 1.327 . S
C700 H725 0.950 . S
C701 C700 1.349 . S
C701 C717 1.349 . S
C702 C700 1.327 . S
C702 C721 1.429 . S
C702 H726 0.950 . S
C703 C720 1.574 . S
C703 C722 1.368 . S
C703 H727 0.949 . S
H704 C708 0.949 . S
C705 C706 1.349 . S
C705 C707 1.327 . S
C705 H728 0.950 . S
C706 C705 1.349 . S
C706 C718 1.349 . S
C707 C705 1.327 . S
C707 C723 1.429 . S
C707 H729 0.950 . S
C708 H704 0.949 . S
C708 C716 1.574 . S
C708 C724 1.368 . S
H709 C717 0.950 . S
H710 C715 0.950 . S
H711 C716 0.949 . S
H712 C718 0.950 . S
H713 C719 0.950 . S
H714 C720 0.949 . S
C715 H710 0.950 . S
C715 C717 1.327 . S
C715 C721 1.429 . S
C716 C708 1.574 . S
C716 H711 0.949 . S
C716 C722 1.368 . S
C717 C701 1.349 . S
C717 H709 0.950 . S
C717 C715 1.327 . S
C718 C706 1.349 . S
C718 H712 0.950 . S
C718 C719 1.327 . S
C719 H713 0.950 . S
C719 C718 1.327 . S
C719 C723 1.429 . S
C720 C703 1.574 . S
C720 H714 0.949 . S
C720 C724 1.368 . S
C721 C702 1.429 . S
C721 C715 1.429 . S
C721 C722 1.523 . S
C722 C703 1.368 . S
C722 C716 1.368 . S
C722 C721 1.523 . S
C723 C707 1.429 . S
C723 C719 1.429 . S
C723 C724 1.523 . S
C724 C708 1.368 . S
C724 C720 1.368 . S
C724 C723 1.523 . S
H725 C700 0.950 . S
H726 C702 0.950 . S
H727 C703 0.949 . S
H728 C705 0.950 . S
H729 C707 0.950 . S
C730 C731 1.349 . S
C730 C732 1.327 . S
C730 H755 0.950 . S
C731 C730 1.349 . S
C731 C747 1.349 . S
C732 C730 1.327 . S
C732 C751 1.429 . S
C732 H756 0.950 . S
C733 C750 1.574 . S
C733 C752 1.368 . S
C733 H757 0.949 . S
H734 C738 0.949 . S
C735 C736 1.349 . S
C735 C737 1.327 . S
C735 H758 0.950 . S
C736 C735 1.349 . S
C736 C748 1.349 . S
C737 C735 1.327 . S
C737 C753 1.429 . S
C737 H759 0.950 . S
C738 H734 0.949 . S
C738 C746 1.574 . S
C738 C754 1.368 . S
H739 C747 0.950 . S
H740 C745 0.950 . S
H741 C746 0.949 . S
H742 C748 0.950 . S
H743 C749 0.950 . S
H744 C750 0.949 . S
C745 H740 0.950 . S
C745 C747 1.327 . S
C745 C751 1.429 . S
C746 C738 1.574 . S
C746 H741 0.949 . S
C746 C752 1.368 . S
C747 C731 1.349 . S
C747 H739 0.950 . S
C747 C745 1.327 . S
C748 C736 1.349 . S
C748 H742 0.950 . S
C748 C749 1.327 . S
C749 H743 0.950 . S
C749 C748 1.327 . S
C749 C753 1.429 . S
C750 C733 1.574 . S
C750 H744 0.949 . S
C750 C754 1.368 . S
C751 C732 1.429 . S
C751 C745 1.429 . S
C751 C752 1.523 . S
C752 C733 1.368 . S
C752 C746 1.368 . S
C752 C751 1.523 . S
C753 C737 1.429 . S
C753 C749 1.429 . S
C753 C754 1.523 . S
C754 C738 1.368 . S
C754 C750 1.368 . S
C754 C753 1.523 . S
H755 C730 0.950 . S
H756 C732 0.950 . S
H757 C733 0.949 . S
H758 C735 0.950 . S
H759 C737 0.950 . S
C760 C761 1.349 . S
C760 C762 1.327 . S
C760 H785 0.950 . S
C761 C760 1.349 . S
C761 C777 1.349 . S
C762 C760 1.327 . S
C762 C781 1.429 . S
C762 H786 0.950 . S
C763 C780 1.574 . S
C763 C782 1.368 . S
C763 H787 0.949 . S
H764 C768 0.949 . S
C765 C766 1.349 . S
C765 C767 1.327 . S
C765 H788 0.950 . S
C766 C765 1.349 . S
C766 C778 1.349 . S
C767 C765 1.327 . S
C767 C783 1.429 . S
C767 H789 0.950 . S
C768 H764 0.949 . S
C768 C776 1.574 . S
C768 C784 1.368 . S
H769 C777 0.950 . S
H770 C775 0.950 . S
H771 C776 0.949 . S
H772 C778 0.950 . S
H773 C779 0.950 . S
H774 C780 0.949 . S
C775 H770 0.950 . S
C775 C777 1.327 . S
C775 C781 1.429 . S
C776 C768 1.574 . S
C776 H771 0.949 . S
C776 C782 1.368 . S
C777 C761 1.349 . S
C777 H769 0.950 . S
C777 C775 1.327 . S
C778 C766 1.349 . S
C778 H772 0.950 . S
C778 C779 1.327 . S
C779 H773 0.950 . S
C779 C778 1.327 . S
C779 C783 1.429 . S
C780 C763 1.574 . S
C780 H774 0.949 . S
C780 C784 1.368 . S
C781 C762 1.429 . S
C781 C775 1.429 . S
C781 C782 1.523 . S
C782 C763 1.368 . S
C782 C776 1.368 . S
C782 C781 1.523 . S
C783 C767 1.429 . S
C783 C779 1.429 . S
C783 C784 1.523 . S
C784 C768 1.368 . S
C784 C780 1.368 . S
C784 C783 1.523 . S
H785 C760 0.950 . S
H786 C762 0.950 . S
H787 C763 0.949 . S
H788 C765 0.950 . S
H789 C767 0.950 . S
C790 C791 1.349 . S
C790 C792 1.327 . S
C790 H815 0.950 . S
C791 C790 1.349 . S
C791 C807 1.349 . S
C792 C790 1.327 . S
C792 C811 1.429 . S
C792 H816 0.950 . S
C793 C810 1.574 . S
C793 C812 1.368 . S
C793 H817 0.949 . S
H794 C798 0.949 . S
C795 C796 1.349 . S
C795 C797 1.327 . S
C795 H818 0.950 1_556 S
C796 C795 1.349 . S
C796 C808 1.349 . S
C797 C795 1.327 . S
C797 C813 1.429 . S
C797 H819 0.950 . S
C798 H794 0.949 . S
C798 C806 1.574 . S
C798 C814 1.368 . S
H799 C807 0.950 . S
H800 C805 0.950 . S
H801 C806 0.949 . S
H802 C808 0.950 . S
H803 C809 0.950 . S
H804 C810 0.949 . S
C805 H800 0.950 . S
C805 C807 1.327 . S
C805 C811 1.429 . S
C806 C798 1.574 . S
C806 H801 0.949 . S
C806 C812 1.368 . S
C807 C791 1.349 . S
C807 H799 0.950 . S
C807 C805 1.327 . S
C808 C796 1.349 . S
C808 H802 0.950 . S
C808 C809 1.327 . S
C809 H803 0.950 . S
C809 C808 1.327 . S
C809 C813 1.429 . S
C810 C793 1.574 . S
C810 H804 0.949 . S
C810 C814 1.368 . S
C811 C792 1.429 . S
C811 C805 1.429 . S
C811 C812 1.523 . S
C812 C793 1.368 . S
C812 C806 1.368 . S
C812 C811 1.523 . S
C813 C797 1.429 . S
C813 C809 1.429 . S
C813 C814 1.523 . S
C814 C798 1.368 . S
C814 C810 1.368 . S
C814 C813 1.523 . S
H815 C790 0.950 . S
H816 C792 0.950 . S
H817 C793 0.949 . S
H818 C795 0.950 1_554 S
H819 C797 0.950 . S
C820 C821 1.349 . S
C820 C822 1.327 . S
C820 H845 0.950 . S
C821 C820 1.349 . S
C821 C837 1.349 . S
C822 C820 1.327 . S
C822 C841 1.429 . S
C822 H846 0.950 . S
C823 C840 1.574 . S
C823 C842 1.368 . S
C823 H847 0.949 . S
H824 C828 0.949 . S
C825 C826 1.349 . S
C825 C827 1.327 . S
C825 H848 0.950 . S
C826 C825 1.349 . S
C826 C838 1.349 . S
C827 C825 1.327 . S
C827 C843 1.429 . S
C827 H849 0.950 . S
C828 H824 0.949 . S
C828 C836 1.574 . S
C828 C844 1.368 . S
H829 C837 0.950 . S
H830 C835 0.950 . S
H831 C836 0.949 . S
H832 C838 0.950 . S
H833 C839 0.950 . S
H834 C840 0.949 . S
C835 H830 0.950 . S
C835 C837 1.327 . S
C835 C841 1.429 . S
C836 C828 1.574 . S
C836 H831 0.949 . S
C836 C842 1.368 . S
C837 C821 1.349 . S
C837 H829 0.950 . S
C837 C835 1.327 . S
C838 C826 1.349 . S
C838 H832 0.950 . S
C838 C839 1.327 . S
C839 H833 0.950 . S
C839 C838 1.327 . S
C839 C843 1.429 . S
C840 C823 1.574 . S
C840 H834 0.949 . S
C840 C844 1.368 . S
C841 C822 1.429 . S
C841 C835 1.429 . S
C841 C842 1.523 . S
C842 C823 1.368 . S
C842 C836 1.368 . S
C842 C841 1.523 . S
C843 C827 1.429 . S
C843 C839 1.429 . S
C843 C844 1.523 . S
C844 C828 1.368 . S
C844 C840 1.368 . S
C844 C843 1.523 . S
H845 C820 0.950 . S
H846 C822 0.950 . S
H847 C823 0.949 . S
H848 C825 0.950 . S
H849 C827 0.950 . S
C850 C851 1.349 . S
C850 C852 1.327 . S
C850 H875 0.950 . S
C851 C850 1.349 . S
C851 C867 1.349 . S
C852 C850 1.327 . S
C852 C871 1.429 . S
C852 H876 0.950 . S
C853 C870 1.574 . S
C853 C872 1.368 . S
C853 H877 0.949 . S
H854 C858 0.949 . S
C855 C856 1.349 . S
C855 C857 1.327 . S
C855 H878 0.950 . S
C856 C855 1.349 . S
C856 C868 1.349 . S
C857 C855 1.327 . S
C857 C873 1.429 . S
C857 H879 0.950 . S
C858 H854 0.949 . S
C858 C866 1.574 . S
C858 C874 1.368 . S
H859 C867 0.950 . S
H860 C865 0.950 . S
H861 C866 0.949 . S
H862 C868 0.950 . S
H863 C869 0.950 . S
H864 C870 0.949 . S
C865 H860 0.950 . S
C865 C867 1.327 . S
C865 C871 1.429 . S
C866 C858 1.574 . S
C866 H861 0.949 . S
C866 C872 1.368 . S
C867 C851 1.349 . S
C867 H859 0.950 . S
C867 C865 1.327 . S
C868 C856 1.349 . S
C868 H862 0.950 . S
C868 C869 1.327 . S
C869 H863 0.950 . S
C869 C868 1.327 . S
C869 C873 1.429 . S
C870 C853 1.574 . S
C870 H864 0.949 . S
C870 C874 1.368 . S
C871 C852 1.429 . S
C871 C865 1.429 . S
C871 C872 1.523 . S
C872 C853 1.368 . S
C872 C866 1.368 . S
C872 C871 1.523 . S
C873 C857 1.429 . S
C873 C869 1.429 . S
C873 C874 1.523 . S
C874 C858 1.368 . S
C874 C870 1.368 . S
C874 C873 1.523 . S
H875 C850 0.950 . S
H876 C852 0.950 . S
H877 C853 0.949 . S
H878 C855 0.950 . S
H879 C857 0.950 . S
C880 C881 1.349 . S
C880 C882 1.327 . S
C880 H905 0.950 . S
C881 C880 1.349 . S
C881 C897 1.349 . S
C882 C880 1.327 . S
C882 C901 1.429 . S
C882 H906 0.950 . S
C883 C900 1.574 . S
C883 C902 1.368 . S
C883 H907 0.949 . S
H884 C888 0.949 . S
C885 C886 1.349 . S
C885 C887 1.327 . S
C885 H908 0.950 . S
C886 C885 1.349 . S
C886 C898 1.349 . S
C887 C885 1.327 . S
C887 C903 1.429 . S
C887 H909 0.950 . S
C888 H884 0.949 . S
C888 C896 1.574 . S
C888 C904 1.368 . S
H889 C897 0.950 . S
H890 C895 0.950 . S
H891 C896 0.949 . S
H892 C898 0.950 . S
H893 C899 0.950 . S
H894 C900 0.949 . S
C895 H890 0.950 . S
C895 C897 1.327 . S
C895 C901 1.429 . S
C896 C888 1.574 . S
C896 H891 0.949 . S
C896 C902 1.368 . S
C897 C881 1.349 . S
C897 H889 0.950 . S
C897 C895 1.327 . S
C898 C886 1.349 . S
C898 H892 0.950 . S
C898 C899 1.327 . S
C899 H893 0.950 . S
C899 C898 1.327 . S
C899 C903 1.429 . S
C900 C883 1.574 . S
C900 H894 0.949 . S
C900 C904 1.368 . S
C901 C882 1.429 . S
C901 C895 1.429 . S
C901 C902 1.523 . S
C902 C883 1.368 . S
C902 C896 1.368 . S
C902 C901 1.523 . S
C903 C887 1.429 . S
C903 C899 1.429 . S
C903 C904 1.523 . S
C904 C888 1.368 . S
C904 C900 1.368 . S
C904 C903 1.523 . S
H905 C880 0.950 . S
H906 C882 0.950 . S
H907 C883 0.949 . S
H908 C885 0.950 . S
H909 C887 0.950 . S
C910 C911 1.349 . S
C910 C912 1.327 . S
C910 H935 0.950 . S
C911 C910 1.349 . S
C911 C927 1.349 . S
C912 C910 1.327 . S
C912 C931 1.429 . S
C912 H936 0.950 . S
C913 C930 1.574 . S
C913 C932 1.368 . S
C913 H937 0.949 . S
H914 C918 0.949 . S
C915 C916 1.349 . S
C915 C917 1.327 . S
C915 H938 0.950 . S
C916 C915 1.349 . S
C916 C928 1.349 . S
C917 C915 1.327 . S
C917 C933 1.429 . S
C917 H939 0.950 . S
C918 H914 0.949 . S
C918 C926 1.574 . S
C918 C934 1.368 . S
H919 C927 0.950 . S
H920 C925 0.950 . S
H921 C926 0.949 . S
H922 C928 0.950 . S
H923 C929 0.950 . S
H924 C930 0.949 . S
C925 H920 0.950 . S
C925 C927 1.327 . S
C925 C931 1.429 . S
C926 C918 1.574 . S
C926 H921 0.949 . S
C926 C932 1.368 . S
C927 C911 1.349 . S
C927 H919 0.950 . S
C927 C925 1.327 . S
C928 C916 1.349 . S
C928 H922 0.950 . S
C928 C929 1.327 . S
C929 H923 0.950 . S
C929 C928 1.327 . S
C929 C933 1.429 . S
C930 C913 1.574 . S
C930 H924 0.949 . S
C930 C934 1.368 . S
C931 C912 1.429 . S
C931 C925 1.429 . S
C931 C932 1.523 . S
C932 C913 1.368 . S
C932 C926 1.368 . S
C932 C931 1.523 . S
C933 C917 1.429 . S
C933 C929 1.429 . S
C933 C934 1.523 . S
C934 C918 1.368 . S
C934 C930 1.368 . S
C934 C933 1.523 . S
H935 C910 0.950 . S
H936 C912 0.950 . S
H937 C913 0.949 . S
H938 C915 0.950 . S
H939 C917 0.950 . S
C940 C941 1.349 . S
C940 C942 1.327 . S
C940 H965 0.950 . S
C941 C940 1.349 . S
C941 C957 1.349 1_655 S
C942 C940 1.327 . S
C942 C961 1.429 . S
C942 H966 0.950 . S
C943 C960 1.574 . S
C943 C962 1.368 . S
C943 H967 0.949 . S
H944 C948 0.949 . S
C945 C946 1.349 . S
C945 C947 1.327 . S
C945 H968 0.950 . S
C946 C945 1.349 . S
C946 C958 1.349 . S
C947 C945 1.327 . S
C947 C963 1.429 . S
C947 H969 0.950 . S
C948 H944 0.949 . S
C948 C956 1.574 . S
C948 C964 1.368 . S
H949 C957 0.950 . S
H950 C955 0.950 1_456 S
H951 C956 0.949 . S
H952 C958 0.950 . S
H953 C959 0.950 . S
H954 C960 0.949 . S
C955 H950 0.950 1_654 S
C955 C957 1.327 1_655 S
C955 C961 1.429 . S
C956 C948 1.574 . S
C956 H951 0.949 . S
C956 C962 1.368 . S
C957 C941 1.349 1_455 S
C957 H949 0.950 . S
C957 C955 1.327 1_455 S
C958 C946 1.349 . S
C958 H952 0.950 . S
C958 C959 1.327 . S
C959 H953 0.950 . S
C959 C958 1.327 . S
C959 C963 1.429 . S
C960 C943 1.574 . S
C960 H954 0.949 . S
C960 C964 1.368 . S
C961 C942 1.429 . S
C961 C955 1.429 . S
C961 C962 1.523 1_554 S
C962 C943 1.368 . S
C962 C956 1.368 . S
C962 C961 1.523 1_556 S
C963 C947 1.429 . S
C963 C959 1.429 . S
C963 C964 1.523 . S
C964 C948 1.368 . S
C964 C960 1.368 . S
C964 C963 1.523 . S
H965 C940 0.950 . S
H966 C942 0.950 . S
H967 C943 0.949 . S
H968 C945 0.950 . S
H969 C947 0.950 . S
C970 C971 1.349 . S
C970 C972 1.327 . S
C970 H995 0.950 . S
C971 C970 1.349 . S
C971 C987 1.349 . S
C972 C970 1.327 . S
C972 C991 1.429 . S
C972 H996 0.950 . S
C973 C990 1.574 . S
C973 C992 1.368 . S
C973 H997 0.949 . S
H974 C978 0.949 . S
C975 C976 1.349 . S
C975 C977 1.327 . S
C975 H998 0.950 . S
C976 C975 1.349 . S
C976 C988 1.349 . S
C977 C975 1.327 . S
C977 C993 1.429 . S
C977 H999 0.950 . S
C978 H974 0.949 . S
C978 C986 1.574 . S
C978 C994 1.368 . S
H979 C987 0.950 . S
H980 C985 0.950 . S
H981 C986 0.949 . S
H982 C988 0.950 . S
H983 C989 0.950 . S
H984 C990 0.949 . S
C985 H980 0.950 . S
C985 C987 1.327 . S
C985 C991 1.429 . S
C986 C978 1.574 . S
C986 H981 0.949 . S
C986 C992 1.368 . S
C987 C971 1.349 . S
C987 H979 0.950 . S
C987 C985 1.327 . S
C988 C976 1.349 . S
C988 H982 0.950 . S
C988 C989 1.327 . S
C989 H983 0.950 . S
C989 C988 1.327 . S
C989 C993 1.429 . S
C990 C973 1.574 . S
C990 H984 0.949 . S
C990 C994 1.368 . S
C991 C972 1.429 . S
C991 C985 1.429 . S
C991 C992 1.523 . S
C992 C973 1.368 . S
C992 C986 1.368 . S
C992 C991 1.523 . S
C993 C977 1.429 . S
C993 C989 1.429 . S
C993 C994 1.523 . S
C994 C978 1.368 . S
C994 C990 1.368 . S
C994 C993 1.523 . S
H995 C970 0.950 . S
H996 C972 0.950 . S
H997 C973 0.949 . S
H998 C975 0.950 . S
H999 C977 0.950 . S
C1000 C1001 1.349 . S
C1000 C1002 1.327 . S
C1000 H1025 0.950 . S
C1001 C1000 1.349 . S
C1001 C1017 1.349 . S
C1002 C1000 1.327 . S
C1002 C1021 1.429 . S
C1002 H1026 0.950 . S
C1003 C1020 1.574 . S
C1003 C1022 1.368 . S
C1003 H1027 0.949 . S
H1004 C1008 0.949 . S
C1005 C1006 1.349 . S
C1005 C1007 1.327 . S
C1005 H1028 0.950 . S
C1006 C1005 1.349 . S
C1006 C1018 1.349 . S
C1007 C1005 1.327 . S
C1007 C1023 1.429 . S
C1007 H1029 0.950 . S
C1008 H1004 0.949 . S
C1008 C1016 1.574 . S
C1008 C1024 1.368 . S
H1009 C1017 0.950 . S
H1010 C1015 0.950 . S
H1011 C1016 0.949 . S
H1012 C1018 0.950 . S
H1013 C1019 0.950 . S
H1014 C1020 0.949 . S
C1015 H1010 0.950 . S
C1015 C1017 1.327 . S
C1015 C1021 1.429 . S
C1016 C1008 1.574 . S
C1016 H1011 0.949 . S
C1016 C1022 1.368 . S
C1017 C1001 1.349 . S
C1017 H1009 0.950 . S
C1017 C1015 1.327 . S
C1018 C1006 1.349 . S
C1018 H1012 0.950 . S
C1018 C1019 1.327 . S
C1019 H1013 0.950 . S
C1019 C1018 1.327 . S
C1019 C1023 1.429 . S
C1020 C1003 1.574 . S
C1020 H1014 0.949 . S
C1020 C1024 1.368 . S
C1021 C1002 1.429 . S
C1021 C1015 1.429 . S
C1021 C1022 1.523 . S
C1022 C1003 1.368 . S
C1022 C1016 1.368 . S
C1022 C1021 1.523 . S
C1023 C1007 1.429 . S
C1023 C1019 1.429 . S
C1023 C1024 1.523 . S
C1024 C1008 1.368 . S
C1024 C1020 1.368 . S
C1024 C1023 1.523 . S
H1025 C1000 0.950 . S
H1026 C1002 0.950 . S
H1027 C1003 0.949 . S
H1028 C1005 0.950 . S
H1029 C1007 0.950 . S
C1030 C1031 1.349 . S
C1030 C1032 1.327 . S
C1030 H1055 0.950 . S
C1031 C1030 1.349 . S
C1031 C1047 1.349 . S
C1032 C1030 1.327 . S
C1032 C1051 1.429 . S
C1032 H1056 0.950 . S
C1033 C1050 1.574 . S
C1033 C1052 1.368 . S
C1033 H1057 0.949 . S
H1034 C1038 0.949 . S
C1035 C1036 1.349 . S
C1035 C1037 1.327 . S
C1035 H1058 0.950 . S
C1036 C1035 1.349 . S
C1036 C1048 1.349 . S
C1037 C1035 1.327 . S
C1037 C1053 1.429 . S
C1037 H1059 0.950 . S
C1038 H1034 0.949 . S
C1038 C1046 1.574 . S
C1038 C1054 1.368 . S
H1039 C1047 0.950 . S
H1040 C1045 0.950 . S
H1041 C1046 0.949 . S
H1042 C1048 0.950 . S
H1043 C1049 0.950 . S
H1044 C1050 0.949 . S
C1045 H1040 0.950 . S
C1045 C1047 1.327 . S
C1045 C1051 1.429 . S
C1046 C1038 1.574 . S
C1046 H1041 0.949 . S
C1046 C1052 1.368 . S
C1047 C1031 1.349 . S
C1047 H1039 0.950 . S
C1047 C1045 1.327 . S
C1048 C1036 1.349 . S
C1048 H1042 0.950 . S
C1048 C1049 1.327 . S
C1049 H1043 0.950 . S
C1049 C1048 1.327 . S
C1049 C1053 1.429 . S
C1050 C1033 1.574 . S
C1050 H1044 0.949 . S
C1050 C1054 1.368 . S
C1051 C1032 1.429 . S
C1051 C1045 1.429 . S
C1051 C1052 1.523 . S
C1052 C1033 1.368 . S
C1052 C1046 1.368 . S
C1052 C1051 1.523 . S
C1053 C1037 1.429 . S
C1053 C1049 1.429 . S
C1053 C1054 1.523 . S
C1054 C1038 1.368 . S
C1054 C1050 1.368 . S
C1054 C1053 1.523 . S
H1055 C1030 0.950 . S
H1056 C1032 0.950 . S
H1057 C1033 0.949 . S
H1058 C1035 0.950 . S
H1059 C1037 0.950 . S
C1060 C1061 1.349 . S
C1060 C1062 1.327 . S
C1060 H1085 0.950 . S
C1061 C1060 1.349 . S
C1061 C1077 1.349 . S
C1062 C1060 1.327 . S
C1062 C1081 1.429 . S
C1062 H1086 0.950 . S
C1063 C1080 1.574 . S
C1063 C1082 1.368 . S
C1063 H1087 0.949 . S
H1064 C1068 0.949 . S
C1065 C1066 1.349 . S
C1065 C1067 1.327 . S
C1065 H1088 0.950 . S
C1066 C1065 1.349 . S
C1066 C1078 1.349 . S
C1067 C1065 1.327 . S
C1067 C1083 1.429 . S
C1067 H1089 0.950 . S
C1068 H1064 0.949 . S
C1068 C1076 1.574 . S
C1068 C1084 1.368 . S
H1069 C1077 0.950 . S
H1070 C1075 0.950 . S
H1071 C1076 0.949 . S
H1072 C1078 0.950 . S
H1073 C1079 0.950 1_554 S
H1074 C1080 0.949 . S
C1075 H1070 0.950 . S
C1075 C1077 1.327 . S
C1075 C1081 1.429 . S
C1076 C1068 1.574 . S
C1076 H1071 0.949 . S
C1076 C1082 1.368 . S
C1077 C1061 1.349 . S
C1077 H1069 0.950 . S
C1077 C1075 1.327 . S
C1078 C1066 1.349 . S
C1078 H1072 0.950 . S
C1078 C1079 1.327 . S
C1079 H1073 0.950 1_556 S
C1079 C1078 1.327 . S
C1079 C1083 1.429 . S
C1080 C1063 1.574 . S
C1080 H1074 0.949 . S
C1080 C1084 1.368 . S
C1081 C1062 1.429 . S
C1081 C1075 1.429 . S
C1081 C1082 1.523 . S
C1082 C1063 1.368 . S
C1082 C1076 1.368 . S
C1082 C1081 1.523 . S
C1083 C1067 1.429 . S
C1083 C1079 1.429 . S
C1083 C1084 1.523 1_556 S
C1084 C1068 1.368 . S
C1084 C1080 1.368 . S
C1084 C1083 1.523 1_554 S
H1085 C1060 0.950 . S
H1086 C1062 0.950 . S
H1087 C1063 0.949 . S
H1088 C1065 0.950 . S
H1089 C1067 0.950 . S
C1090 C1091 1.349 . S
C1090 C1092 1.327 . S
C1090 H1115 0.950 . S
C1091 C1090 1.349 . S
C1091 C1107 1.349 . S
C1092 C1090 1.327 . S
C1092 C1111 1.429 . S
C1092 H1116 0.950 . S
C1093 C1110 1.574 . S
C1093 C1112 1.368 . S
C1093 H1117 0.949 . S
H1094 C1098 0.949 . S
C1095 C1096 1.349 . S
C1095 C1097 1.327 . S
C1095 H1118 0.950 . S
C1096 C1095 1.349 . S
C1096 C1108 1.349 . S
C1097 C1095 1.327 . S
C1097 C1113 1.429 . S
C1097 H1119 0.950 . S
C1098 H1094 0.949 . S
C1098 C1106 1.574 . S
C1098 C1114 1.368 . S
H1099 C1107 0.950 . S
H1100 C1105 0.950 . S
H1101 C1106 0.949 . S
H1102 C1108 0.950 . S
H1103 C1109 0.950 . S
H1104 C1110 0.949 . S
C1105 H1100 0.950 . S
C1105 C1107 1.327 . S
C1105 C1111 1.429 . S
C1106 C1098 1.574 . S
C1106 H1101 0.949 . S
C1106 C1112 1.368 . S
C1107 C1091 1.349 . S
C1107 H1099 0.950 . S
C1107 C1105 1.327 . S
C1108 C1096 1.349 . S
C1108 H1102 0.950 . S
C1108 C1109 1.327 . S
C1109 H1103 0.950 . S
C1109 C1108 1.327 . S
C1109 C1113 1.429 . S
C1110 C1093 1.574 . S
C1110 H1104 0.949 . S
C1110 C1114 1.368 . S
C1111 C1092 1.429 . S
C1111 C1105 1.429 . S
C1111 C1112 1.523 . S
C1112 C1093 1.368 . S
C1112 C1106 1.368 . S
C1112 C1111 1.523 . S
C1113 C1097 1.429 . S
C1113 C1109 1.429 . S
C1113 C1114 1.523 . S
C1114 C1098 1.368 . S
C1114 C1110 1.368 . S
C1114 C1113 1.523 . S
H1115 C1090 0.950 . S
H1116 C1092 0.950 . S
H1117 C1093 0.949 . S
H1118 C1095 0.950 . S
H1119 C1097 0.950 . S
C1120 C1121 1.366 . S
C1120 C1122 1.331 1_455 S
C1120 H1145 0.931 1_455 S
C1121 C1120 1.366 . S
C1121 C1137 1.349 . S
C1122 C1120 1.331 1_655 S
C1122 C1141 1.420 1_655 S
C1122 H1146 0.958 . S
C1123 C1140 1.574 . S
C1123 C1142 1.368 . S
C1123 H1147 0.949 . S
H1124 C1128 0.949 . S
C1125 C1126 1.349 . S
C1125 C1127 1.327 . S
C1125 H1148 0.950 . S
C1126 C1125 1.349 . S
C1126 C1138 1.349 1_455 S
C1127 C1125 1.327 . S
C1127 C1143 1.429 . S
C1127 H1149 0.950 . S
C1128 H1124 0.949 . S
C1128 C1136 1.574 . S
C1128 C1144 1.368 1_655 S
H1129 C1137 0.950 . S
H1130 C1135 0.950 . S
H1131 C1136 0.949 . S
H1132 C1138 0.950 . S
H1133 C1139 0.950 . S
H1134 C1140 0.949 . S
C1135 H1130 0.950 . S
C1135 C1137 1.327 . S
C1135 C1141 1.429 . S
C1136 C1128 1.574 . S
C1136 H1131 0.949 . S
C1136 C1142 1.368 1_655 S
C1137 C1121 1.349 . S
C1137 H1129 0.950 . S
C1137 C1135 1.327 . S
C1138 C1126 1.349 1_655 S
C1138 H1132 0.950 . S
C1138 C1139 1.327 . S
C1139 H1133 0.950 . S
C1139 C1138 1.327 . S
C1139 C1143 1.429 1_655 S
C1140 C1123 1.574 . S
C1140 H1134 0.949 . S
C1140 C1144 1.368 . S
C1141 C1122 1.420 1_455 S
C1141 C1135 1.429 . S
C1141 C1142 1.523 . S
C1142 C1123 1.368 . S
C1142 C1136 1.368 1_455 S
C1142 C1141 1.523 . S
C1143 C1127 1.429 . S
C1143 C1139 1.429 1_455 S
C1143 C1144 1.523 . S
C1144 C1128 1.368 1_455 S
C1144 C1140 1.368 . S
C1144 C1143 1.523 . S
H1145 C1120 0.931 1_655 S
H1146 C1122 0.958 . S
H1147 C1123 0.949 . S
H1148 C1125 0.950 . S
H1149 C1127 0.950 . S
C1150 C1151 1.349 . S
C1150 C1152 1.327 . S
C1150 H1175 0.950 . S
C1151 C1150 1.349 . S
C1151 C1167 1.349 . S
C1152 C1150 1.327 . S
C1152 C1171 1.429 . S
C1152 H1176 0.950 . S
C1153 C1170 1.574 . S
C1153 C1172 1.368 . S
C1153 H1177 0.949 1_455 S
H1154 C1158 0.949 . S
C1155 C1156 1.349 . S
C1155 C1157 1.327 . S
C1155 H1178 0.950 . S
C1156 C1155 1.349 . S
C1156 C1168 1.349 . S
C1157 C1155 1.327 . S
C1157 C1173 1.429 . S
C1157 H1179 0.950 . S
C1158 H1154 0.949 . S
C1158 C1166 1.574 . S
C1158 C1174 1.368 . S
H1159 C1167 0.950 . S
H1160 C1165 0.950 . S
H1161 C1166 0.949 . S
H1162 C1168 0.950 . S
H1163 C1169 0.950 . S
H1164 C1170 0.949 . S
C1165 H1160 0.950 . S
C1165 C1167 1.327 . S
C1165 C1171 1.429 . S
C1166 C1158 1.574 . S
C1166 H1161 0.949 . S
C1166 C1172 1.368 . S
C1167 C1151 1.349 . S
C1167 H1159 0.950 . S
C1167 C1165 1.327 . S
C1168 C1156 1.349 . S
C1168 H1162 0.950 . S
C1168 C1169 1.327 . S
C1169 H1163 0.950 . S
C1169 C1168 1.327 . S
C1169 C1173 1.429 . S
C1170 C1153 1.574 . S
C1170 H1164 0.949 . S
C1170 C1174 1.368 . S
C1171 C1152 1.429 . S
C1171 C1165 1.429 . S
C1171 C1172 1.523 1_655 S
C1172 C1153 1.368 . S
C1172 C1166 1.368 . S
C1172 C1171 1.523 1_455 S
C1173 C1157 1.429 . S
C1173 C1169 1.429 . S
C1173 C1174 1.523 . S
C1174 C1158 1.368 . S
C1174 C1170 1.368 . S
C1174 C1173 1.523 . S
H1175 C1150 0.950 . S
H1176 C1152 0.950 . S
H1177 C1153 0.949 1_655 S
H1178 C1155 0.950 . S
H1179 C1157 0.950 . S
C1180 C1181 1.349 . S
C1180 C1182 1.327 . S
C1180 H1205 0.950 . S
C1181 C1180 1.349 . S
C1181 C1197 1.349 . S
C1182 C1180 1.327 . S
C1182 C1201 1.429 . S
C1182 H1206 0.950 . S
C1183 C1200 1.574 . S
C1183 C1202 1.368 . S
C1183 H1207 0.949 . S
H1184 C1188 0.949 . S
C1185 C1186 1.349 . S
C1185 C1187 1.327 . S
C1185 H1208 0.950 . S
C1186 C1185 1.349 . S
C1186 C1198 1.349 . S
C1187 C1185 1.327 . S
C1187 C1203 1.429 . S
C1187 H1209 0.950 . S
C1188 H1184 0.949 . S
C1188 C1196 1.574 . S
C1188 C1204 1.368 . S
H1189 C1197 0.950 . S
H1190 C1195 0.950 . S
H1191 C1196 0.949 . S
H1192 C1198 0.950 . S
H1193 C1199 0.950 . S
H1194 C1200 0.949 . S
C1195 H1190 0.950 . S
C1195 C1197 1.327 . S
C1195 C1201 1.429 . S
C1196 C1188 1.574 . S
C1196 H1191 0.949 . S
C1196 C1202 1.368 . S
C1197 C1181 1.349 . S
C1197 H1189 0.950 . S
C1197 C1195 1.327 . S
C1198 C1186 1.349 . S
C1198 H1192 0.950 . S
C1198 C1199 1.327 . S
C1199 H1193 0.950 . S
C1199 C1198 1.327 . S
C1199 C1203 1.429 . S
C1200 C1183 1.574 . S
C1200 H1194 0.949 . S
C1200 C1204 1.368 . S
C1201 C1182 1.429 . S
C1201 C1195 1.429 . S
C1201 C1202 1.523 . S
C1202 C1183 1.368 . S
C1202 C1196 1.368 . S
C1202 C1201 1.523 . S
C1203 C1187 1.429 . S
C1203 C1199 1.429 . S
C1203 C1204 1.523 . S
C1204 C1188 1.368 . S
C1204 C1200 1.368 . S
C1204 C1203 1.523 . S
H1205 C1180 0.950 . S
H1206 C1182 0.950 . S
H1207 C1183 0.949 . S
H1208 C1185 0.950 . S
H1209 C1187 0.950 . S
C1210 C1211 1.349 . S
C1210 C1212 1.327 . S
C1210 H1235 0.950 . S
C1211 C1210 1.349 . S
C1211 C1227 1.349 . S
C1212 C1210 1.327 . S
C1212 C1231 1.429 . S
C1212 H1236 0.950 . S
C1213 C1230 1.574 . S
C1213 C1232 1.368 . S
C1213 H1237 0.949 . S
H1214 C1218 0.949 . S
C1215 C1216 1.349 . S
C1215 C1217 1.327 . S
C1215 H1238 0.950 . S
C1216 C1215 1.349 . S
C1216 C1228 1.349 . S
C1217 C1215 1.327 . S
C1217 C1233 1.429 . S
C1217 H1239 0.950 . S
C1218 H1214 0.949 . S
C1218 C1226 1.574 . S
C1218 C1234 1.368 . S
H1219 C1227 0.950 . S
H1220 C1225 0.950 . S
H1221 C1226 0.949 . S
H1222 C1228 0.950 . S
H1223 C1229 0.950 . S
H1224 C1230 0.949 . S
C1225 H1220 0.950 . S
C1225 C1227 1.327 . S
C1225 C1231 1.429 . S
C1226 C1218 1.574 . S
C1226 H1221 0.949 . S
C1226 C1232 1.368 . S
C1227 C1211 1.349 . S
C1227 H1219 0.950 . S
C1227 C1225 1.327 . S
C1228 C1216 1.349 . S
C1228 H1222 0.950 . S
C1228 C1229 1.327 . S
C1229 H1223 0.950 . S
C1229 C1228 1.327 . S
C1229 C1233 1.429 . S
C1230 C1213 1.574 . S
C1230 H1224 0.949 . S
C1230 C1234 1.368 . S
C1231 C1212 1.429 . S
C1231 C1225 1.429 . S
C1231 C1232 1.523 . S
C1232 C1213 1.368 . S
C1232 C1226 1.368 . S
C1232 C1231 1.523 . S
C1233 C1217 1.429 . S
C1233 C1229 1.429 . S
C1233 C1234 1.523 . S
C1234 C1218 1.368 . S
C1234 C1230 1.368 . S
C1234 C1233 1.523 . S
H1235 C1210 0.950 . S
H1236 C1212 0.950 . S
H1237 C1213 0.949 . S
H1238 C1215 0.950 . S
H1239 C1217 0.950 . S
C1240 C1241 1.349 . S
C1240 C1242 1.327 . S
C1240 H1265 0.950 . S
C1241 C1240 1.349 . S
C1241 C1257 1.349 . S
C1242 C1240 1.327 . S
C1242 C1261 1.429 . S
C1242 H1266 0.950 . S
C1243 C1260 1.574 . S
C1243 C1262 1.368 . S
C1243 H1267 0.949 . S
H1244 C1248 0.949 . S
C1245 C1246 1.349 . S
C1245 C1247 1.327 . S
C1245 H1268 0.950 . S
C1246 C1245 1.349 . S
C1246 C1258 1.349 . S
C1247 C1245 1.327 . S
C1247 C1263 1.429 . S
C1247 H1269 0.950 . S
C1248 H1244 0.949 . S
C1248 C1256 1.574 . S
C1248 C1264 1.368 . S
H1249 C1257 0.950 . S
H1250 C1255 0.950 . S
H1251 C1256 0.949 . S
H1252 C1258 0.950 . S
H1253 C1259 0.950 . S
H1254 C1260 0.949 . S
C1255 H1250 0.950 . S
C1255 C1257 1.327 . S
C1255 C1261 1.429 . S
C1256 C1248 1.574 . S
C1256 H1251 0.949 . S
C1256 C1262 1.368 . S
C1257 C1241 1.349 . S
C1257 H1249 0.950 . S
C1257 C1255 1.327 . S
C1258 C1246 1.349 . S
C1258 H1252 0.950 . S
C1258 C1259 1.327 . S
C1259 H1253 0.950 . S
C1259 C1258 1.327 . S
C1259 C1263 1.429 . S
C1260 C1243 1.574 . S
C1260 H1254 0.949 . S
C1260 C1264 1.368 . S
C1261 C1242 1.429 . S
C1261 C1255 1.429 . S
C1261 C1262 1.523 . S
C1262 C1243 1.368 . S
C1262 C1256 1.368 . S
C1262 C1261 1.523 . S
C1263 C1247 1.429 . S
C1263 C1259 1.429 . S
C1263 C1264 1.523 . S
C1264 C1248 1.368 . S
C1264 C1260 1.368 . S
C1264 C1263 1.523 . S
H1265 C1240 0.950 . S
H1266 C1242 0.950 . S
H1267 C1243 0.949 . S
H1268 C1245 0.950 . S
H1269 C1247 0.950 . S
C1270 C1271 1.349 . S
C1270 C1272 1.327 . S
C1270 H1295 0.950 . S
C1271 C1270 1.349 . S
C1271 C1287 1.349 . S
C1272 C1270 1.327 . S
C1272 C1291 1.429 . S
C1272 H1296 0.950 . S
C1273 C1290 1.574 . S
C1273 C1292 1.368 . S
C1273 H1297 0.949 . S
H1274 C1278 0.949 . S
C1275 C1276 1.349 . S
C1275 C1277 1.327 . S
C1275 H1298 0.950 . S
C1276 C1275 1.349 . S
C1276 C1288 1.349 . S
C1277 C1275 1.327 . S
C1277 C1293 1.429 . S
C1277 H1299 0.950 . S
C1278 H1274 0.949 . S
C1278 C1286 1.574 . S
C1278 C1294 1.368 . S
H1279 C1287 0.950 . S
H1280 C1285 0.950 . S
H1281 C1286 0.949 . S
H1282 C1288 0.950 . S
H1283 C1289 0.950 . S
H1284 C1290 0.949 . S
C1285 H1280 0.950 . S
C1285 C1287 1.327 . S
C1285 C1291 1.429 . S
C1286 C1278 1.574 . S
C1286 H1281 0.949 . S
C1286 C1292 1.368 . S
C1287 C1271 1.349 . S
C1287 H1279 0.950 . S
C1287 C1285 1.327 . S
C1288 C1276 1.349 . S
C1288 H1282 0.950 . S
C1288 C1289 1.327 . S
C1289 H1283 0.950 . S
C1289 C1288 1.327 . S
C1289 C1293 1.429 . S
C1290 C1273 1.574 . S
C1290 H1284 0.949 . S
C1290 C1294 1.368 . S
C1291 C1272 1.429 . S
C1291 C1285 1.429 . S
C1291 C1292 1.523 . S
C1292 C1273 1.368 . S
C1292 C1286 1.368 . S
C1292 C1291 1.523 . S
C1293 C1277 1.429 . S
C1293 C1289 1.429 . S
C1293 C1294 1.523 . S
C1294 C1278 1.368 . S
C1294 C1290 1.368 . S
C1294 C1293 1.523 . S
H1295 C1270 0.950 . S
H1296 C1272 0.950 . S
H1297 C1273 0.949 . S
H1298 C1275 0.950 . S
H1299 C1277 0.950 . S
C1300 C1301 1.349 . S
C1300 C1302 1.327 . S
C1300 H1325 0.950 . S
C1301 C1300 1.349 . S
C1301 C1317 1.349 . S
C1302 C1300 1.327 . S
C1302 C1321 1.429 . S
C1302 H1326 0.950 . S
C1303 C1320 1.574 . S
C1303 C1322 1.368 . S
C1303 H1327 0.949 . S
H1304 C1308 0.949 . S
C1305 C1306 1.349 . S
C1305 C1307 1.327 . S
C1305 H1328 0.950 . S
C1306 C1305 1.349 . S
C1306 C1318 1.349 . S
C1307 C1305 1.327 . S
C1307 C1323 1.429 . S
C1307 H1329 0.950 . S
C1308 H1304 0.949 . S
C1308 C1316 1.574 . S
C1308 C1324 1.368 . S
H1309 C1317 0.950 . S
H1310 C1315 0.950 . S
H1311 C1316 0.949 . S
H1312 C1318 0.950 . S
H1313 C1319 0.950 . S
H1314 C1320 0.949 . S
C1315 H1310 0.950 . S
C1315 C1317 1.327 . S
C1315 C1321 1.429 . S
C1316 C1308 1.574 . S
C1316 H1311 0.949 . S
C1316 C1322 1.368 . S
C1317 C1301 1.349 . S
C1317 H1309 0.950 . S
C1317 C1315 1.327 . S
C1318 C1306 1.349 . S
C1318 H1312 0.950 . S
C1318 C1319 1.327 . S
C1319 H1313 0.950 . S
C1319 C1318 1.327 . S
C1319 C1323 1.429 . S
C1320 C1303 1.574 . S
C1320 H1314 0.949 . S
C1320 C1324 1.368 . S
C1321 C1302 1.429 . S
C1321 C1315 1.429 . S
C1321 C1322 1.523 . S
C1322 C1303 1.368 . S
C1322 C1316 1.368 . S
C1322 C1321 1.523 . S
C1323 C1307 1.429 . S
C1323 C1319 1.429 . S
C1323 C1324 1.523 . S
C1324 C1308 1.368 . S
C1324 C1320 1.368 . S
C1324 C1323 1.523 . S
H1325 C1300 0.950 . S
H1326 C1302 0.950 . S
H1327 C1303 0.949 . S
H1328 C1305 0.950 . S
H1329 C1307 0.950 . S
C1330 C1331 1.349 . S
C1330 C1332 1.327 . S
C1330 H1355 0.950 . S
C1331 C1330 1.349 . S
C1331 C1347 1.349 . S
C1332 C1330 1.327 . S
C1332 C1351 1.429 . S
C1332 H1356 0.950 . S
C1333 C1350 1.574 1_455 S
C1333 C1352 1.368 . S
C1333 H1357 0.949 . S
H1334 C1338 0.958 . S
C1335 C1336 1.349 . S
C1335 C1337 1.327 . S
C1335 H1358 0.950 . S
C1336 C1335 1.349 . S
C1336 C1348 1.349 . S
C1337 C1335 1.327 . S
C1337 C1353 1.429 . S
C1337 H1359 0.950 . S
C1338 H1334 0.958 . S
C1338 C1346 1.574 . S
C1338 C1354 1.368 1_455 S
H1339 C1347 0.950 . S
H1340 C1345 0.950 . S
H1341 C1346 0.949 . S
H1342 C1348 0.950 . S
H1343 C1349 0.950 . S
H1344 C1350 0.949 . S
C1345 H1340 0.950 . S
C1345 C1347 1.327 . S
C1345 C1351 1.429 . S
C1346 C1338 1.574 . S
C1346 H1341 0.949 . S
C1346 C1352 1.368 . S
C1347 C1331 1.349 . S
C1347 H1339 0.950 . S
C1347 C1345 1.327 . S
C1348 C1336 1.349 . S
C1348 H1342 0.950 . S
C1348 C1349 1.327 . S
C1349 H1343 0.950 . S
C1349 C1348 1.327 . S
C1349 C1353 1.429 . S
C1350 C1333 1.574 1_655 S
C1350 H1344 0.949 . S
C1350 C1354 1.368 . S
C1351 C1332 1.429 . S
C1351 C1345 1.429 . S
C1351 C1352 1.523 . S
C1352 C1333 1.368 . S
C1352 C1346 1.368 . S
C1352 C1351 1.523 . S
C1353 C1337 1.429 . S
C1353 C1349 1.429 . S
C1353 C1354 1.523 . S
C1354 C1338 1.368 1_655 S
C1354 C1350 1.368 . S
C1354 C1353 1.523 . S
H1355 C1330 0.950 . S
H1356 C1332 0.950 . S
H1357 C1333 0.949 . S
H1358 C1335 0.950 . S
H1359 C1337 0.950 . S
C1360 C1361 1.349 . S
C1360 C1362 1.327 . S
C1360 H1385 0.950 . S
C1361 C1360 1.349 . S
C1361 C1377 1.349 . S
C1362 C1360 1.327 . S
C1362 C1381 1.429 . S
C1362 H1386 0.950 . S
C1363 C1380 1.574 . S
C1363 C1382 1.368 1_556 S
C1363 H1387 0.949 . S
H1364 C1368 0.949 . S
C1365 C1366 1.349 . S
C1365 C1367 1.327 . S
C1365 H1388 0.950 . S
C1366 C1365 1.349 . S
C1366 C1378 1.349 . S
C1367 C1365 1.327 . S
C1367 C1383 1.429 . S
C1367 H1389 0.950 . S
C1368 H1364 0.949 . S
C1368 C1376 1.574 . S
C1368 C1384 1.368 1_554 S
H1369 C1377 0.950 . S
H1370 C1375 0.950 . S
H1371 C1376 0.949 . S
H1372 C1378 0.950 . S
H1373 C1379 0.950 . S
H1374 C1380 0.949 . S
C1375 H1370 0.950 . S
C1375 C1377 1.327 . S
C1375 C1381 1.429 . S
C1376 C1368 1.574 . S
C1376 H1371 0.949 . S
C1376 C1382 1.368 1_565 S
C1377 C1361 1.349 . S
C1377 H1369 0.950 . S
C1377 C1375 1.327 . S
C1378 C1366 1.349 . S
C1378 H1372 0.950 . S
C1378 C1379 1.327 . S
C1379 H1373 0.950 . S
C1379 C1378 1.327 . S
C1379 C1383 1.429 . S
C1380 C1363 1.574 . S
C1380 H1374 0.949 . S
C1380 C1384 1.368 1_545 S
C1381 C1362 1.429 . S
C1381 C1375 1.429 . S
C1381 C1382 1.523 . S
C1382 C1363 1.368 1_554 S
C1382 C1376 1.368 1_545 S
C1382 C1381 1.523 . S
C1383 C1367 1.429 . S
C1383 C1379 1.429 . S
C1383 C1384 1.523 . S
C1384 C1368 1.368 1_556 S
C1384 C1380 1.368 1_565 S
C1384 C1383 1.523 . S
H1385 C1360 0.950 . S
H1386 C1362 0.950 . S
H1387 C1363 0.949 . S
H1388 C1365 0.950 . S
H1389 C1367 0.950 . S
C1390 C1391 1.349 . S
C1390 C1392 1.327 . S
C1390 H1415 0.950 . S
C1391 C1390 1.349 . S
C1391 C1407 1.349 . S
C1392 C1390 1.327 . S
C1392 C1411 1.429 . S
C1392 H1416 0.950 . S
C1393 C1410 1.574 . S
C1393 C1412 1.368 . S
C1393 H1417 0.949 . S
H1394 C1398 0.949 . S
C1395 C1396 1.349 . S
C1395 C1397 1.327 . S
C1395 H1418 0.950 . S
C1396 C1395 1.349 . S
C1396 C1408 1.349 . S
C1397 C1395 1.327 . S
C1397 C1413 1.429 . S
C1397 H1419 0.950 . S
C1398 H1394 0.949 . S
C1398 C1406 1.574 . S
C1398 C1414 1.368 . S
H1399 C1407 0.950 . S
H1400 C1405 0.950 . S
H1401 C1406 0.949 . S
H1402 C1408 0.950 . S
H1403 C1409 0.950 . S
H1404 C1410 0.949 . S
C1405 H1400 0.950 . S
C1405 C1407 1.327 . S
C1405 C1411 1.429 . S
C1406 C1398 1.574 . S
C1406 H1401 0.949 . S
C1406 C1412 1.368 . S
C1407 C1391 1.349 . S
C1407 H1399 0.950 . S
C1407 C1405 1.327 . S
C1408 C1396 1.349 . S
C1408 H1402 0.950 . S
C1408 C1409 1.327 . S
C1409 H1403 0.950 . S
C1409 C1408 1.327 . S
C1409 C1413 1.429 . S
C1410 C1393 1.574 . S
C1410 H1404 0.949 . S
C1410 C1414 1.368 . S
C1411 C1392 1.429 . S
C1411 C1405 1.429 . S
C1411 C1412 1.523 . S
C1412 C1393 1.368 . S
C1412 C1406 1.368 . S
C1412 C1411 1.523 . S
C1413 C1397 1.429 . S
C1413 C1409 1.429 . S
C1413 C1414 1.523 . S
C1414 C1398 1.368 . S
C1414 C1410 1.368 . S
C1414 C1413 1.523 . S
H1415 C1390 0.950 . S
H1416 C1392 0.950 . S
H1417 C1393 0.949 . S
H1418 C1395 0.950 . S
H1419 C1397 0.950 . S
C1420 C1421 1.349 . S
C1420 C1422 1.327 . S
C1420 H1445 0.950 . S
C1421 C1420 1.349 . S
C1421 C1437 1.349 . S
C1422 C1420 1.327 . S
C1422 C1441 1.429 . S
C1422 H1446 0.950 . S
C1423 C1440 1.574 . S
C1423 C1442 1.368 1_565 S
C1423 H1447 0.949 . S
H1424 C1428 0.949 . S
C1425 C1426 1.349 . S
C1425 C1427 1.327 . S
C1425 H1448 0.950 . S
C1426 C1425 1.349 . S
C1426 C1438 1.349 . S
C1427 C1425 1.327 . S
C1427 C1443 1.429 . S
C1427 H1449 0.950 . S
C1428 H1424 0.949 . S
C1428 C1436 1.574 . S
C1428 C1444 1.368 1_545 S
H1429 C1437 0.950 . S
H1430 C1435 0.950 . S
H1431 C1436 0.949 . S
H1432 C1438 0.950 . S
H1433 C1439 0.950 . S
H1434 C1440 0.949 . S
C1435 H1430 0.950 . S
C1435 C1437 1.327 . S
C1435 C1441 1.429 . S
C1436 C1428 1.574 . S
C1436 H1431 0.949 . S
C1436 C1442 1.368 . S
C1437 C1421 1.349 . S
C1437 H1429 0.950 . S
C1437 C1435 1.327 . S
C1438 C1426 1.349 . S
C1438 H1432 0.950 . S
C1438 C1439 1.327 . S
C1439 H1433 0.950 . S
C1439 C1438 1.327 . S
C1439 C1443 1.429 . S
C1440 C1423 1.574 . S
C1440 H1434 0.949 . S
C1440 C1444 1.368 . S
C1441 C1422 1.429 . S
C1441 C1435 1.429 . S
C1441 C1442 1.523 . S
C1442 C1423 1.368 1_545 S
C1442 C1436 1.368 . S
C1442 C1441 1.523 . S
C1443 C1427 1.429 . S
C1443 C1439 1.429 . S
C1443 C1444 1.523 . S
C1444 C1428 1.368 1_565 S
C1444 C1440 1.368 . S
C1444 C1443 1.523 . S
H1445 C1420 0.950 . S
H1446 C1422 0.950 . S
H1447 C1423 0.949 . S
H1448 C1425 0.950 . S
H1449 C1427 0.950 . S
C1450 C1451 1.349 . S
C1450 C1452 1.327 . S
C1450 H1475 0.950 . S
C1451 C1450 1.349 . S
C1451 C1467 1.349 . S
C1452 C1450 1.327 . S
C1452 C1471 1.429 . S
C1452 H1476 0.950 . S
C1453 C1470 1.574 . S
C1453 C1472 1.368 . S
C1453 H1477 0.949 . S
H1454 C1458 0.949 . S
C1455 C1456 1.349 . S
C1455 C1457 1.327 . S
C1455 H1478 0.950 . S
C1456 C1455 1.349 . S
C1456 C1468 1.349 . S
C1457 C1455 1.327 . S
C1457 C1473 1.429 . S
C1457 H1479 0.950 . S
C1458 H1454 0.949 . S
C1458 C1466 1.574 . S
C1458 C1474 1.368 . S
H1459 C1467 0.950 . S
H1460 C1465 0.950 . S
H1461 C1466 0.949 . S
H1462 C1468 0.950 . S
H1463 C1469 0.950 . S
H1464 C1470 0.949 . S
C1465 H1460 0.950 . S
C1465 C1467 1.327 . S
C1465 C1471 1.429 . S
C1466 C1458 1.574 . S
C1466 H1461 0.949 . S
C1466 C1472 1.368 . S
C1467 C1451 1.349 . S
C1467 H1459 0.950 . S
C1467 C1465 1.327 . S
C1468 C1456 1.349 . S
C1468 H1462 0.950 . S
C1468 C1469 1.327 . S
C1469 H1463 0.950 . S
C1469 C1468 1.327 . S
C1469 C1473 1.429 . S
C1470 C1453 1.574 . S
C1470 H1464 0.949 . S
C1470 C1474 1.368 . S
C1471 C1452 1.429 . S
C1471 C1465 1.429 . S
C1471 C1472 1.523 . S
C1472 C1453 1.368 . S
C1472 C1466 1.368 . S
C1472 C1471 1.523 . S
C1473 C1457 1.429 . S
C1473 C1469 1.429 . S
C1473 C1474 1.523 . S
C1474 C1458 1.368 . S
C1474 C1470 1.368 . S
C1474 C1473 1.523 . S
H1475 C1450 0.950 . S
H1476 C1452 0.950 . S
H1477 C1453 0.949 . S
H1478 C1455 0.950 . S
H1479 C1457 0.950 . S
C1480 C1481 1.349 . S
C1480 C1482 1.327 . S
C1480 H1505 0.950 . S
C1481 C1480 1.349 . S
C1481 C1497 1.349 . S
C1482 C1480 1.327 . S
C1482 C1501 1.429 . S
C1482 H1506 0.950 . S
C1483 C1500 1.574 . S
C1483 C1502 1.368 . S
C1483 H1507 0.949 . S
H1484 C1488 0.949 . S
C1485 C1486 1.349 . S
C1485 C1487 1.327 . S
C1485 H1508 0.950 . S
C1486 C1485 1.349 . S
C1486 C1498 1.349 . S
C1487 C1485 1.327 . S
C1487 C1503 1.429 . S
C1487 H1509 0.950 . S
C1488 H1484 0.949 . S
C1488 C1496 1.574 . S
C1488 C1504 1.368 . S
H1489 C1497 0.950 . S
H1490 C1495 0.950 . S
H1491 C1496 0.949 . S
H1492 C1498 0.950 . S
H1493 C1499 0.950 . S
H1494 C1500 0.949 . S
C1495 H1490 0.950 . S
C1495 C1497 1.327 . S
C1495 C1501 1.429 . S
C1496 C1488 1.574 . S
C1496 H1491 0.949 . S
C1496 C1502 1.368 . S
C1497 C1481 1.349 . S
C1497 H1489 0.950 . S
C1497 C1495 1.327 . S
C1498 C1486 1.349 . S
C1498 H1492 0.950 . S
C1498 C1499 1.327 . S
C1499 H1493 0.950 . S
C1499 C1498 1.327 . S
C1499 C1503 1.429 . S
C1500 C1483 1.574 . S
C1500 H1494 0.949 . S
C1500 C1504 1.368 . S
C1501 C1482 1.429 . S
C1501 C1495 1.429 . S
C1501 C1502 1.523 . S
C1502 C1483 1.368 . S
C1502 C1496 1.368 . S
C1502 C1501 1.523 . S
C1503 C1487 1.429 . S
C1503 C1499 1.429 . S
C1503 C1504 1.523 . S
C1504 C1488 1.368 . S
C1504 C1500 1.368 . S
C1504 C1503 1.523 . S
H1505 C1480 0.950 . S
H1506 C1482 0.950 . S
H1507 C1483 0.949 . S
H1508 C1485 0.950 . S
H1509 C1487 0.950 . S
C1510 C1511 1.349 . S
C1510 C1512 1.327 . S
C1510 H1535 0.950 . S
C1511 C1510 1.349 . S
C1511 C1527 1.349 . S
C1512 C1510 1.327 . S
C1512 C1531 1.429 . S
C1512 H1536 0.950 . S
C1513 C1530 1.574 . S
C1513 C1532 1.368 . S
C1513 H1537 0.949 . S
H1514 C1518 0.949 . S
C1515 C1516 1.349 . S
C1515 C1517 1.327 . S
C1515 H1538 0.950 . S
C1516 C1515 1.349 . S
C1516 C1528 1.349 . S
C1517 C1515 1.327 . S
C1517 C1533 1.429 . S
C1517 H1539 0.950 . S
C1518 H1514 0.949 . S
C1518 C1526 1.574 . S
C1518 C1534 1.368 . S
H1519 C1527 0.950 . S
H1520 C1525 0.950 . S
H1521 C1526 0.949 . S
H1522 C1528 0.950 . S
H1523 C1529 0.950 . S
H1524 C1530 0.949 . S
C1525 H1520 0.950 . S
C1525 C1527 1.327 . S
C1525 C1531 1.429 . S
C1526 C1518 1.574 . S
C1526 H1521 0.949 . S
C1526 C1532 1.368 . S
C1527 C1511 1.349 . S
C1527 H1519 0.950 . S
C1527 C1525 1.327 . S
C1528 C1516 1.349 . S
C1528 H1522 0.950 . S
C1528 C1529 1.327 . S
C1529 H1523 0.950 . S
C1529 C1528 1.327 . S
C1529 C1533 1.429 . S
C1530 C1513 1.574 . S
C1530 H1524 0.949 . S
C1530 C1534 1.368 . S
C1531 C1512 1.429 . S
C1531 C1525 1.429 . S
C1531 C1532 1.523 . S
C1532 C1513 1.368 . S
C1532 C1526 1.368 . S
C1532 C1531 1.523 . S
C1533 C1517 1.429 . S
C1533 C1529 1.429 . S
C1533 C1534 1.523 . S
C1534 C1518 1.368 . S
C1534 C1530 1.368 . S
C1534 C1533 1.523 . S
H1535 C1510 0.950 . S
H1536 C1512 0.950 . S
H1537 C1513 0.949 . S
H1538 C1515 0.950 . S
H1539 C1517 0.950 . S
C1540 C1541 1.349 . S
C1540 C1542 1.327 . S
C1540 H1565 0.950 . S
C1541 C1540 1.349 . S
C1541 C1557 1.349 . S
C1542 C1540 1.327 . S
C1542 C1561 1.429 . S
C1542 H1566 0.950 . S
C1543 C1560 1.574 . S
C1543 C1562 1.368 . S
C1543 H1567 0.949 . S
H1544 C1548 0.949 . S
C1545 C1546 1.349 . S
C1545 C1547 1.327 . S
C1545 H1568 0.950 . S
C1546 C1545 1.349 . S
C1546 C1558 1.349 . S
C1547 C1545 1.327 . S
C1547 C1563 1.429 . S
C1547 H1569 0.950 . S
C1548 H1544 0.949 . S
C1548 C1556 1.574 . S
C1548 C1564 1.368 . S
H1549 C1557 0.950 . S
H1550 C1555 0.950 . S
H1551 C1556 0.949 . S
H1552 C1558 0.950 . S
H1553 C1559 0.950 . S
H1554 C1560 0.949 . S
C1555 H1550 0.950 . S
C1555 C1557 1.327 . S
C1555 C1561 1.429 . S
C1556 C1548 1.574 . S
C1556 H1551 0.949 . S
C1556 C1562 1.368 . S
C1557 C1541 1.349 . S
C1557 H1549 0.950 . S
C1557 C1555 1.327 . S
C1558 C1546 1.349 . S
C1558 H1552 0.950 . S
C1558 C1559 1.327 . S
C1559 H1553 0.950 . S
C1559 C1558 1.327 . S
C1559 C1563 1.429 . S
C1560 C1543 1.574 . S
C1560 H1554 0.949 . S
C1560 C1564 1.368 . S
C1561 C1542 1.429 . S
C1561 C1555 1.429 . S
C1561 C1562 1.523 . S
C1562 C1543 1.368 . S
C1562 C1556 1.368 . S
C1562 C1561 1.523 . S
C1563 C1547 1.429 . S
C1563 C1559 1.429 . S
C1563 C1564 1.523 . S
C1564 C1548 1.368 . S
C1564 C1560 1.368 . S
C1564 C1563 1.523 . S
H1565 C1540 0.950 . S
H1566 C1542 0.950 . S
H1567 C1543 0.949 . S
H1568 C1545 0.950 . S
H1569 C1547 0.950 . S
C1570 C1571 1.349 . S
C1570 C1572 1.327 . S
C1570 H1595 0.980 . S
C1571 C1570 1.349 . S
C1571 C1587 1.349 . S
C1572 C1570 1.327 . S
C1572 C1591 1.429 . S
C1572 H1596 0.933 1_455 S
C1573 C1590 1.577 . S
C1573 C1592 1.368 . S
C1573 H1597 0.949 . S
H1574 C1578 0.949 1_655 S
C1575 C1576 1.349 . S
C1575 C1577 1.327 . S
C1575 H1598 0.950 . S
C1576 C1575 1.349 . S
C1576 C1588 1.349 . S
C1577 C1575 1.327 . S
C1577 C1593 1.429 . S
C1577 H1599 0.950 . S
C1578 H1574 0.949 1_455 S
C1578 C1586 1.576 . S
C1578 C1594 1.368 . S
H1579 C1587 0.950 . S
H1580 C1585 0.950 . S
H1581 C1586 0.950 1_656 S
H1582 C1588 0.950 1_655 S
H1583 C1589 0.950 1_655 S
H1584 C1590 0.950 1_554 S
C1585 H1580 0.950 . S
C1585 C1587 1.327 . S
C1585 C1591 1.429 . S
C1586 C1578 1.576 . S
C1586 H1581 0.950 1_454 S
C1586 C1592 1.365 1_554 S
C1587 C1571 1.349 . S
C1587 H1579 0.950 . S
C1587 C1585 1.327 . S
C1588 C1576 1.349 . S
C1588 H1582 0.950 1_455 S
C1588 C1589 1.327 . S
C1589 H1583 0.950 1_455 S
C1589 C1588 1.327 . S
C1589 C1593 1.429 . S
C1590 C1573 1.577 . S
C1590 H1584 0.950 1_556 S
C1590 C1594 1.365 1_556 S
C1591 C1572 1.429 . S
C1591 C1585 1.429 . S
C1591 C1592 1.523 . S
C1592 C1573 1.368 . S
C1592 C1586 1.365 1_556 S
C1592 C1591 1.523 . S
C1593 C1577 1.429 . S
C1593 C1589 1.429 . S
C1593 C1594 1.523 . S
C1594 C1578 1.368 . S
C1594 C1590 1.365 1_554 S
C1594 C1593 1.523 . S
H1595 C1570 0.980 . S
H1596 C1572 0.933 1_655 S
H1597 C1573 0.949 . S
H1598 C1575 0.950 . S
H1599 C1577 0.950 . S
C1600 C1601 1.349 . S
C1600 C1602 1.327 . S
C1600 H1625 0.950 . S
C1601 C1600 1.349 . S
C1601 C1617 1.349 . S
C1602 C1600 1.327 . S
C1602 C1621 1.429 . S
C1602 H1626 0.950 . S
C1603 C1620 1.574 . S
C1603 C1622 1.368 . S
C1603 H1627 0.949 . S
H1604 C1608 0.949 . S
C1605 C1606 1.349 . S
C1605 C1607 1.327 . S
C1605 H1628 0.950 . S
C1606 C1605 1.349 . S
C1606 C1618 1.349 . S
C1607 C1605 1.327 . S
C1607 C1623 1.429 . S
C1607 H1629 0.950 . S
C1608 H1604 0.949 . S
C1608 C1616 1.574 . S
C1608 C1624 1.368 . S
H1609 C1617 0.950 . S
H1610 C1615 0.950 . S
H1611 C1616 0.949 . S
H1612 C1618 0.950 . S
H1613 C1619 0.950 . S
H1614 C1620 0.949 . S
C1615 H1610 0.950 . S
C1615 C1617 1.327 . S
C1615 C1621 1.429 . S
C1616 C1608 1.574 . S
C1616 H1611 0.949 . S
C1616 C1622 1.368 . S
C1617 C1601 1.349 . S
C1617 H1609 0.950 . S
C1617 C1615 1.327 . S
C1618 C1606 1.349 . S
C1618 H1612 0.950 . S
C1618 C1619 1.327 . S
C1619 H1613 0.950 . S
C1619 C1618 1.327 . S
C1619 C1623 1.429 . S
C1620 C1603 1.574 . S
C1620 H1614 0.949 . S
C1620 C1624 1.368 . S
C1621 C1602 1.429 . S
C1621 C1615 1.429 . S
C1621 C1622 1.523 . S
C1622 C1603 1.368 . S
C1622 C1616 1.368 . S
C1622 C1621 1.523 . S
C1623 C1607 1.429 . S
C1623 C1619 1.429 . S
C1623 C1624 1.523 . S
C1624 C1608 1.368 . S
C1624 C1620 1.368 . S
C1624 C1623 1.523 . S
H1625 C1600 0.950 . S
H1626 C1602 0.950 . S
H1627 C1603 0.949 . S
H1628 C1605 0.950 . S
H1629 C1607 0.950 . S
C1630 C1631 1.349 . S
C1630 C1632 1.327 . S
C1630 H1655 0.950 . S
C1631 C1630 1.349 . S
C1631 C1647 1.349 . S
C1632 C1630 1.327 . S
C1632 C1651 1.429 . S
C1632 H1656 0.950 . S
C1633 C1650 1.574 . S
C1633 C1652 1.368 . S
C1633 H1657 0.949 . S
H1634 C1638 0.949 . S
C1635 C1636 1.349 . S
C1635 C1637 1.327 . S
C1635 H1658 0.950 . S
C1636 C1635 1.349 . S
C1636 C1648 1.349 . S
C1637 C1635 1.327 . S
C1637 C1653 1.429 . S
C1637 H1659 0.950 . S
C1638 H1634 0.949 . S
C1638 C1646 1.574 . S
C1638 C1654 1.368 . S
H1639 C1647 0.950 . S
H1640 C1645 0.950 . S
H1641 C1646 0.949 . S
H1642 C1648 0.950 . S
H1643 C1649 0.950 . S
H1644 C1650 0.949 . S
C1645 H1640 0.950 . S
C1645 C1647 1.327 . S
C1645 C1651 1.429 . S
C1646 C1638 1.574 . S
C1646 H1641 0.949 . S
C1646 C1652 1.368 . S
C1647 C1631 1.349 . S
C1647 H1639 0.950 . S
C1647 C1645 1.327 . S
C1648 C1636 1.349 . S
C1648 H1642 0.950 . S
C1648 C1649 1.327 . S
C1649 H1643 0.950 . S
C1649 C1648 1.327 . S
C1649 C1653 1.429 . S
C1650 C1633 1.574 . S
C1650 H1644 0.949 . S
C1650 C1654 1.368 . S
C1651 C1632 1.429 . S
C1651 C1645 1.429 . S
C1651 C1652 1.523 . S
C1652 C1633 1.368 . S
C1652 C1646 1.368 . S
C1652 C1651 1.523 . S
C1653 C1637 1.429 . S
C1653 C1649 1.429 . S
C1653 C1654 1.523 . S
C1654 C1638 1.368 . S
C1654 C1650 1.368 . S
C1654 C1653 1.523 . S
H1655 C1630 0.950 . S
H1656 C1632 0.950 . S
H1657 C1633 0.949 . S
H1658 C1635 0.950 . S
H1659 C1637 0.950 . S
C1660 C1661 1.349 . S
C1660 C1662 1.327 . S
C1660 H1685 0.950 . S
C1661 C1660 1.349 . S
C1661 C1677 1.349 . S
C1662 C1660 1.327 . S
C1662 C1681 1.429 1_554 S
C1662 H1686 0.950 1_554 S
C1663 C1680 1.574 . S
C1663 C1682 1.368 . S
C1663 H1687 0.949 . S
H1664 C1668 0.949 . S
C1665 C1666 1.349 . S
C1665 C1667 1.327 . S
C1665 H1688 0.950 . S
C1666 C1665 1.349 . S
C1666 C1678 1.349 . S
C1667 C1665 1.327 . S
C1667 C1683 1.429 . S
C1667 H1689 0.950 . S
C1668 H1664 0.949 . S
C1668 C1676 1.574 . S
C1668 C1684 1.368 . S
H1669 C1677 0.950 . S
H1670 C1675 0.950 . S
H1671 C1676 0.949 . S
H1672 C1678 0.950 . S
H1673 C1679 0.950 . S
H1674 C1680 0.949 . S
C1675 H1670 0.950 . S
C1675 C1677 1.327 . S
C1675 C1681 1.429 1_554 S
C1676 C1668 1.574 . S
C1676 H1671 0.949 . S
C1676 C1682 1.368 . S
C1677 C1661 1.349 . S
C1677 H1669 0.950 . S
C1677 C1675 1.327 . S
C1678 C1666 1.349 . S
C1678 H1672 0.950 . S
C1678 C1679 1.327 . S
C1679 H1673 0.950 . S
C1679 C1678 1.327 . S
C1679 C1683 1.429 . S
C1680 C1663 1.574 . S
C1680 H1674 0.949 . S
C1680 C1684 1.368 . S
C1681 C1662 1.429 1_556 S
C1681 C1675 1.429 1_556 S
C1681 C1682 1.523 . S
C1682 C1663 1.368 . S
C1682 C1676 1.368 . S
C1682 C1681 1.523 . S
C1683 C1667 1.429 . S
C1683 C1679 1.429 . S
C1683 C1684 1.523 . S
C1684 C1668 1.368 . S
C1684 C1680 1.368 . S
C1684 C1683 1.523 . S
H1685 C1660 0.950 . S
H1686 C1662 0.950 1_556 S
H1687 C1663 0.949 . S
H1688 C1665 0.950 . S
H1689 C1667 0.950 . S
C1690 C1691 1.349 . S
C1690 C1692 1.327 . S
C1690 H1715 0.950 . S
C1691 C1690 1.349 . S
C1691 C1707 1.349 . S
C1692 C1690 1.327 . S
C1692 C1711 1.429 . S
C1692 H1716 0.950 . S
C1693 C1710 1.574 . S
C1693 C1712 1.368 . S
C1693 H1717 0.949 . S
H1694 C1698 0.949 . S
C1695 C1696 1.349 . S
C1695 C1697 1.327 . S
C1695 H1718 0.950 . S
C1696 C1695 1.349 . S
C1696 C1708 1.349 . S
C1697 C1695 1.327 . S
C1697 C1713 1.429 . S
C1697 H1719 0.950 . S
C1698 H1694 0.949 . S
C1698 C1706 1.574 . S
C1698 C1714 1.368 . S
H1699 C1707 0.950 . S
H1700 C1705 0.950 . S
H1701 C1706 0.949 . S
H1702 C1708 0.950 . S
H1703 C1709 0.950 . S
H1704 C1710 0.949 . S
C1705 H1700 0.950 . S
C1705 C1707 1.327 . S
C1705 C1711 1.429 . S
C1706 C1698 1.574 . S
C1706 H1701 0.949 . S
C1706 C1712 1.368 . S
C1707 C1691 1.349 . S
C1707 H1699 0.950 . S
C1707 C1705 1.327 . S
C1708 C1696 1.349 . S
C1708 H1702 0.950 . S
C1708 C1709 1.327 . S
C1709 H1703 0.950 . S
C1709 C1708 1.327 . S
C1709 C1713 1.429 . S
C1710 C1693 1.574 . S
C1710 H1704 0.949 . S
C1710 C1714 1.368 . S
C1711 C1692 1.429 . S
C1711 C1705 1.429 . S
C1711 C1712 1.523 . S
C1712 C1693 1.368 . S
C1712 C1706 1.368 . S
C1712 C1711 1.523 . S
C1713 C1697 1.429 . S
C1713 C1709 1.429 . S
C1713 C1714 1.523 . S
C1714 C1698 1.368 . S
C1714 C1710 1.368 . S
C1714 C1713 1.523 . S
H1715 C1690 0.950 . S
H1716 C1692 0.950 . S
H1717 C1693 0.949 . S
H1718 C1695 0.950 . S
H1719 C1697 0.950 . S
C1720 C1721 1.349 . S
C1720 C1722 1.327 . S
C1720 H1745 0.950 . S
C1721 C1720 1.349 . S
C1721 C1737 1.349 . S
C1722 C1720 1.327 . S
C1722 C1741 1.429 . S
C1722 H1746 0.950 . S
C1723 C1740 1.574 . S
C1723 C1742 1.368 . S
C1723 H1747 0.949 . S
H1724 C1728 0.949 . S
C1725 C1726 1.349 . S
C1725 C1727 1.327 . S
C1725 H1748 0.950 . S
C1726 C1725 1.349 . S
C1726 C1738 1.349 . S
C1727 C1725 1.327 . S
C1727 C1743 1.429 . S
C1727 H1749 0.950 . S
C1728 H1724 0.949 . S
C1728 C1736 1.574 . S
C1728 C1744 1.368 . S
H1729 C1737 0.950 . S
H1730 C1735 0.950 . S
H1731 C1736 0.949 . S
H1732 C1738 0.950 . S
H1733 C1739 0.950 . S
H1734 C1740 0.949 . S
C1735 H1730 0.950 . S
C1735 C1737 1.327 . S
C1735 C1741 1.429 . S
C1736 C1728 1.574 . S
C1736 H1731 0.949 . S
C1736 C1742 1.368 . S
C1737 C1721 1.349 . S
C1737 H1729 0.950 . S
C1737 C1735 1.327 . S
C1738 C1726 1.349 . S
C1738 H1732 0.950 . S
C1738 C1739 1.327 . S
C1739 H1733 0.950 . S
C1739 C1738 1.327 . S
C1739 C1743 1.429 . S
C1740 C1723 1.574 . S
C1740 H1734 0.949 . S
C1740 C1744 1.368 . S
C1741 C1722 1.429 . S
C1741 C1735 1.429 . S
C1741 C1742 1.523 . S
C1742 C1723 1.368 . S
C1742 C1736 1.368 . S
C1742 C1741 1.523 . S
C1743 C1727 1.429 . S
C1743 C1739 1.429 . S
C1743 C1744 1.523 . S
C1744 C1728 1.368 . S
C1744 C1740 1.368 . S
C1744 C1743 1.523 . S
H1745 C1720 0.950 . S
H1746 C1722 0.950 . S
H1747 C1723 0.949 . S
H1748 C1725 0.950 . S
H1749 C1727 0.950 . S
C1750 C1751 1.349 . S
C1750 C1752 1.327 . S
C1750 H1775 0.950 . S
C1751 C1750 1.349 . S
C1751 C1767 1.349 . S
C1752 C1750 1.327 . S
C1752 C1771 1.429 . S
C1752 H1776 0.950 . S
C1753 C1770 1.574 . S
C1753 C1772 1.368 . S
C1753 H1777 0.949 . S
H1754 C1758 0.949 . S
C1755 C1756 1.349 . S
C1755 C1757 1.327 . S
C1755 H1778 0.950 . S
C1756 C1755 1.349 . S
C1756 C1768 1.349 . S
C1757 C1755 1.327 . S
C1757 C1773 1.429 . S
C1757 H1779 0.950 . S
C1758 H1754 0.949 . S
C1758 C1766 1.574 . S
C1758 C1774 1.368 . S
H1759 C1767 0.950 . S
H1760 C1765 0.950 . S
H1761 C1766 0.949 . S
H1762 C1768 0.950 . S
H1763 C1769 0.950 . S
H1764 C1770 0.949 . S
C1765 H1760 0.950 . S
C1765 C1767 1.327 . S
C1765 C1771 1.429 . S
C1766 C1758 1.574 . S
C1766 H1761 0.949 . S
C1766 C1772 1.368 . S
C1767 C1751 1.349 . S
C1767 H1759 0.950 . S
C1767 C1765 1.327 . S
C1768 C1756 1.349 . S
C1768 H1762 0.950 . S
C1768 C1769 1.327 . S
C1769 H1763 0.950 . S
C1769 C1768 1.327 . S
C1769 C1773 1.429 . S
C1770 C1753 1.574 . S
C1770 H1764 0.949 . S
C1770 C1774 1.368 . S
C1771 C1752 1.429 . S
C1771 C1765 1.429 . S
C1771 C1772 1.523 . S
C1772 C1753 1.368 . S
C1772 C1766 1.368 . S
C1772 C1771 1.523 . S
C1773 C1757 1.429 . S
C1773 C1769 1.429 . S
C1773 C1774 1.523 . S
C1774 C1758 1.368 . S
C1774 C1770 1.368 . S
C1774 C1773 1.523 . S
H1775 C1750 0.950 . S
H1776 C1752 0.950 . S
H1777 C1753 0.949 . S
H1778 C1755 0.950 . S
H1779 C1757 0.950 . S
C1780 C1781 1.349 . S
C1780 C1782 1.327 . S
C1780 H1805 0.950 . S
C1781 C1780 1.349 . S
C1781 C1797 1.349 . S
C1782 C1780 1.327 . S
C1782 C1801 1.429 1_556 S
C1782 H1806 0.932 1_556 S
C1783 C1800 1.574 . S
C1783 C1802 1.368 . S
C1783 H1807 0.949 . S
H1784 C1788 0.949 . S
C1785 C1786 1.349 . S
C1785 C1787 1.327 . S
C1785 H1808 0.950 . S
C1786 C1785 1.349 . S
C1786 C1798 1.349 . S
C1787 C1785 1.327 . S
C1787 C1803 1.429 . S
C1787 H1809 0.950 . S
C1788 H1784 0.949 . S
C1788 C1796 1.574 . S
C1788 C1804 1.368 . S
H1789 C1797 0.950 . S
H1790 C1795 0.950 . S
H1791 C1796 0.949 . S
H1792 C1798 0.950 . S
H1793 C1799 0.950 . S
H1794 C1800 0.949 . S
C1795 H1790 0.950 . S
C1795 C1797 1.327 . S
C1795 C1801 1.429 1_556 S
C1796 C1788 1.574 . S
C1796 H1791 0.949 . S
C1796 C1802 1.368 . S
C1797 C1781 1.349 . S
C1797 H1789 0.950 . S
C1797 C1795 1.327 . S
C1798 C1786 1.349 . S
C1798 H1792 0.950 . S
C1798 C1799 1.327 . S
C1799 H1793 0.950 . S
C1799 C1798 1.327 . S
C1799 C1803 1.429 . S
C1800 C1783 1.574 . S
C1800 H1794 0.949 . S
C1800 C1804 1.368 . S
C1801 C1782 1.429 1_554 S
C1801 C1795 1.429 1_554 S
C1801 C1802 1.523 . S
C1802 C1783 1.368 . S
C1802 C1796 1.368 . S
C1802 C1801 1.523 . S
C1803 C1787 1.429 . S
C1803 C1799 1.429 . S
C1803 C1804 1.523 . S
C1804 C1788 1.368 . S
C1804 C1800 1.368 . S
C1804 C1803 1.523 . S
H1805 C1780 0.950 . S
H1806 C1782 0.932 1_554 S
H1807 C1783 0.949 . S
H1808 C1785 0.950 . S
H1809 C1787 0.950 . S
C1810 C1811 1.349 . S
C1810 C1812 1.327 . S
C1810 H1835 0.950 . S
C1811 C1810 1.349 . S
C1811 C1827 1.349 . S
C1812 C1810 1.327 . S
C1812 C1831 1.429 . S
C1812 H1836 0.950 . S
C1813 C1830 1.574 . S
C1813 C1832 1.368 . S
C1813 H1837 0.949 . S
H1814 C1818 0.949 . S
C1815 C1816 1.349 . S
C1815 C1817 1.327 . S
C1815 H1838 0.950 . S
C1816 C1815 1.349 . S
C1816 C1828 1.349 . S
C1817 C1815 1.327 . S
C1817 C1833 1.429 . S
C1817 H1839 0.950 . S
C1818 H1814 0.949 . S
C1818 C1826 1.574 . S
C1818 C1834 1.368 . S
H1819 C1827 0.950 . S
H1820 C1825 0.950 . S
H1821 C1826 0.949 . S
H1822 C1828 0.950 . S
H1823 C1829 0.950 . S
H1824 C1830 0.949 . S
C1825 H1820 0.950 . S
C1825 C1827 1.327 . S
C1825 C1831 1.429 . S
C1826 C1818 1.574 . S
C1826 H1821 0.949 . S
C1826 C1832 1.368 . S
C1827 C1811 1.349 . S
C1827 H1819 0.950 . S
C1827 C1825 1.327 . S
C1828 C1816 1.349 . S
C1828 H1822 0.950 . S
C1828 C1829 1.327 . S
C1829 H1823 0.950 . S
C1829 C1828 1.327 . S
C1829 C1833 1.429 . S
C1830 C1813 1.574 . S
C1830 H1824 0.949 . S
C1830 C1834 1.368 . S
C1831 C1812 1.429 . S
C1831 C1825 1.429 . S
C1831 C1832 1.523 . S
C1832 C1813 1.368 . S
C1832 C1826 1.368 . S
C1832 C1831 1.523 . S
C1833 C1817 1.429 . S
C1833 C1829 1.429 . S
C1833 C1834 1.523 . S
C1834 C1818 1.368 . S
C1834 C1830 1.368 . S
C1834 C1833 1.523 . S
H1835 C1810 0.950 . S
H1836 C1812 0.950 . S
H1837 C1813 0.949 . S
H1838 C1815 0.950 . S
H1839 C1817 0.950 . S
C1840 C1841 1.349 . S
C1840 C1842 1.327 . S
C1840 H1865 0.950 . S
C1841 C1840 1.349 . S
C1841 C1857 1.349 . S
C1842 C1840 1.327 . S
C1842 C1861 1.429 . S
C1842 H1866 0.950 . S
C1843 C1860 1.574 . S
C1843 C1862 1.368 . S
C1843 H1867 0.949 . S
H1844 C1848 0.949 . S
C1845 C1846 1.349 . S
C1845 C1847 1.327 . S
C1845 H1868 0.950 . S
C1846 C1845 1.349 . S
C1846 C1858 1.349 . S
C1847 C1845 1.327 . S
C1847 C1863 1.429 . S
C1847 H1869 0.950 . S
C1848 H1844 0.949 . S
C1848 C1856 1.574 . S
C1848 C1864 1.368 . S
H1849 C1857 0.950 . S
H1850 C1855 0.950 . S
H1851 C1856 0.949 . S
H1852 C1858 0.950 . S
H1853 C1859 0.950 . S
H1854 C1860 0.949 . S
C1855 H1850 0.950 . S
C1855 C1857 1.327 . S
C1855 C1861 1.429 . S
C1856 C1848 1.574 . S
C1856 H1851 0.949 . S
C1856 C1862 1.368 . S
C1857 C1841 1.349 . S
C1857 H1849 0.950 . S
C1857 C1855 1.327 . S
C1858 C1846 1.349 . S
C1858 H1852 0.950 . S
C1858 C1859 1.327 . S
C1859 H1853 0.950 . S
C1859 C1858 1.327 . S
C1859 C1863 1.429 . S
C1860 C1843 1.574 . S
C1860 H1854 0.949 . S
C1860 C1864 1.368 . S
C1861 C1842 1.429 . S
C1861 C1855 1.429 . S
C1861 C1862 1.523 . S
C1862 C1843 1.368 . S
C1862 C1856 1.368 . S
C1862 C1861 1.523 . S
C1863 C1847 1.429 . S
C1863 C1859 1.429 . S
C1863 C1864 1.523 . S
C1864 C1848 1.368 . S
C1864 C1860 1.368 . S
C1864 C1863 1.523 . S
H1865 C1840 0.950 . S
H1866 C1842 0.950 . S
H1867 C1843 0.949 . S
H1868 C1845 0.950 . S
H1869 C1847 0.950 . S
C1870 C1871 1.349 . S
C1870 C1872 1.327 . S
C1870 H1895 0.950 . S
C1871 C1870 1.349 . S
C1871 C1887 1.349 . S
C1872 C1870 1.327 . S
C1872 C1891 1.429 . S
C1872 H1896 0.950 . S
C1873 C1890 1.574 . S
C1873 C1892 1.368 . S
C1873 H1897 0.949 . S
H1874 C1878 0.949 . S
C1875 C1876 1.349 . S
C1875 C1877 1.327 . S
C1875 H1898 0.950 1_554 S
C1876 C1875 1.349 . S
C1876 C1888 1.349 . S
C1877 C1875 1.327 . S
C1877 C1893 1.429 . S
C1877 H1899 0.950 . S
C1878 H1874 0.949 . S
C1878 C1886 1.574 . S
C1878 C1894 1.368 . S
H1879 C1887 0.950 . S
H1880 C1885 0.950 . S
H1881 C1886 0.949 . S
H1882 C1888 0.950 . S
H1883 C1889 0.950 . S
H1884 C1890 0.949 . S
C1885 H1880 0.950 . S
C1885 C1887 1.327 . S
C1885 C1891 1.429 . S
C1886 C1878 1.574 . S
C1886 H1881 0.949 . S
C1886 C1892 1.368 . S
C1887 C1871 1.349 . S
C1887 H1879 0.950 . S
C1887 C1885 1.327 . S
C1888 C1876 1.349 . S
C1888 H1882 0.950 . S
C1888 C1889 1.327 . S
C1889 H1883 0.950 . S
C1889 C1888 1.327 . S
C1889 C1893 1.429 . S
C1890 C1873 1.574 . S
C1890 H1884 0.949 . S
C1890 C1894 1.368 . S
C1891 C1872 1.429 . S
C1891 C1885 1.429 . S
C1891 C1892 1.523 . S
C1892 C1873 1.368 . S
C1892 C1886 1.368 . S
C1892 C1891 1.523 . S
C1893 C1877 1.429 . S
C1893 C1889 1.429 . S
C1893 C1894 1.523 . S
C1894 C1878 1.368 . S
C1894 C1890 1.368 . S
C1894 C1893 1.523 . S
H1895 C1870 0.950 . S
H1896 C1872 0.950 . S
H1897 C1873 0.949 . S
H1898 C1875 0.950 1_556 S
H1899 C1877 0.950 . S
C1900 C1901 1.349 . S
C1900 C1902 1.327 . S
C1900 H1925 0.950 . S
C1901 C1900 1.349 . S
C1901 C1917 1.349 . S
C1902 C1900 1.327 . S
C1902 C1921 1.429 . S
C1902 H1926 0.950 . S
C1903 C1920 1.574 . S
C1903 C1922 1.368 . S
C1903 H1927 0.949 . S
H1904 C1908 0.949 . S
C1905 C1906 1.349 . S
C1905 C1907 1.327 . S
C1905 H1928 0.950 . S
C1906 C1905 1.349 . S
C1906 C1918 1.349 . S
C1907 C1905 1.327 . S
C1907 C1923 1.429 . S
C1907 H1929 0.950 . S
C1908 H1904 0.949 . S
C1908 C1916 1.574 . S
C1908 C1924 1.368 . S
H1909 C1917 0.950 . S
H1910 C1915 0.950 . S
H1911 C1916 0.949 . S
H1912 C1918 0.950 . S
H1913 C1919 0.950 . S
H1914 C1920 0.949 . S
C1915 H1910 0.950 . S
C1915 C1917 1.327 . S
C1915 C1921 1.429 . S
C1916 C1908 1.574 . S
C1916 H1911 0.949 . S
C1916 C1922 1.368 . S
C1917 C1901 1.349 . S
C1917 H1909 0.950 . S
C1917 C1915 1.327 . S
C1918 C1906 1.349 . S
C1918 H1912 0.950 . S
C1918 C1919 1.327 . S
C1919 H1913 0.950 . S
C1919 C1918 1.327 . S
C1919 C1923 1.429 . S
C1920 C1903 1.574 . S
C1920 H1914 0.949 . S
C1920 C1924 1.368 . S
C1921 C1902 1.429 . S
C1921 C1915 1.429 . S
C1921 C1922 1.523 . S
C1922 C1903 1.368 . S
C1922 C1916 1.368 . S
C1922 C1921 1.523 . S
C1923 C1907 1.429 . S
C1923 C1919 1.429 . S
C1923 C1924 1.523 . S
C1924 C1908 1.368 . S
C1924 C1920 1.368 . S
C1924 C1923 1.523 . S
H1925 C1900 0.950 . S
H1926 C1902 0.950 . S
H1927 C1903 0.949 . S
H1928 C1905 0.950 . S
H1929 C1907 0.950 . S
C1930 C1931 1.349 . S
C1930 C1932 1.327 . S
C1930 H1955 0.950 1_655 S
C1931 C1930 1.349 . S
C1931 C1947 1.349 . S
C1932 C1930 1.327 . S
C1932 C1951 1.429 . S
C1932 H1956 0.950 . S
C1933 C1950 1.574 . S
C1933 C1952 1.368 . S
C1933 H1957 0.949 . S
H1934 C1938 0.949 . S
C1935 C1936 1.349 . S
C1935 C1937 1.327 . S
C1935 H1958 0.950 . S
C1936 C1935 1.349 . S
C1936 C1948 1.349 . S
C1937 C1935 1.327 . S
C1937 C1953 1.429 . S
C1937 H1959 0.950 . S
C1938 H1934 0.949 . S
C1938 C1946 1.574 . S
C1938 C1954 1.368 . S
H1939 C1947 0.950 . S
H1940 C1945 0.950 . S
H1941 C1946 0.949 . S
H1942 C1948 0.950 . S
H1943 C1949 0.950 . S
H1944 C1950 0.949 . S
C1945 H1940 0.950 . S
C1945 C1947 1.327 . S
C1945 C1951 1.429 . S
C1946 C1938 1.574 . S
C1946 H1941 0.949 . S
C1946 C1952 1.368 . S
C1947 C1931 1.349 . S
C1947 H1939 0.950 . S
C1947 C1945 1.327 . S
C1948 C1936 1.349 . S
C1948 H1942 0.950 . S
C1948 C1949 1.327 . S
C1949 H1943 0.950 . S
C1949 C1948 1.327 . S
C1949 C1953 1.429 . S
C1950 C1933 1.574 . S
C1950 H1944 0.949 . S
C1950 C1954 1.368 . S
C1951 C1932 1.429 . S
C1951 C1945 1.429 . S
C1951 C1952 1.523 . S
C1952 C1933 1.368 . S
C1952 C1946 1.368 . S
C1952 C1951 1.523 . S
C1953 C1937 1.429 . S
C1953 C1949 1.429 . S
C1953 C1954 1.523 . S
C1954 C1938 1.368 . S
C1954 C1950 1.368 . S
C1954 C1953 1.523 . S
H1955 C1930 0.950 1_455 S
H1956 C1932 0.950 . S
H1957 C1933 0.949 . S
H1958 C1935 0.950 . S
H1959 C1937 0.950 . S
C1960 C1961 1.349 . S
C1960 C1962 1.327 . S
C1960 H1985 0.950 . S
C1961 C1960 1.349 . S
C1961 C1977 1.349 . S
C1962 C1960 1.327 . S
C1962 C1981 1.429 . S
C1962 H1986 0.950 . S
C1963 C1980 1.574 . S
C1963 C1982 1.368 . S
C1963 H1987 0.949 . S
H1964 C1968 0.949 . S
C1965 C1966 1.349 . S
C1965 C1967 1.327 . S
C1965 H1988 0.950 . S
C1966 C1965 1.349 . S
C1966 C1978 1.349 . S
C1967 C1965 1.327 . S
C1967 C1983 1.429 . S
C1967 H1989 0.950 . S
C1968 H1964 0.949 . S
C1968 C1976 1.574 . S
C1968 C1984 1.368 . S
H1969 C1977 0.950 . S
H1970 C1975 0.950 . S
H1971 C1976 0.949 . S
H1972 C1978 0.950 . S
H1973 C1979 0.950 . S
H1974 C1980 0.949 . S
C1975 H1970 0.950 . S
C1975 C1977 1.327 . S
C1975 C1981 1.429 . S
C1976 C1968 1.574 . S
C1976 H1971 0.949 . S
C1976 C1982 1.368 . S
C1977 C1961 1.349 . S
C1977 H1969 0.950 . S
C1977 C1975 1.327 . S
C1978 C1966 1.349 . S
C1978 H1972 0.950 . S
C1978 C1979 1.327 . S
C1979 H1973 0.950 . S
C1979 C1978 1.327 . S
C1979 C1983 1.429 . S
C1980 C1963 1.574 . S
C1980 H1974 0.949 . S
C1980 C1984 1.368 . S
C1981 C1962 1.429 . S
C1981 C1975 1.429 . S
C1981 C1982 1.523 . S
C1982 C1963 1.368 . S
C1982 C1976 1.368 . S
C1982 C1981 1.523 . S
C1983 C1967 1.429 . S
C1983 C1979 1.429 . S
C1983 C1984 1.523 . S
C1984 C1968 1.368 . S
C1984 C1980 1.368 . S
C1984 C1983 1.523 . S
H1985 C1960 0.950 . S
H1986 C1962 0.950 . S
H1987 C1963 0.949 . S
H1988 C1965 0.950 . S
H1989 C1967 0.950 . S
C1990 C1991 1.349 . S
C1990 C1992 1.327 . S
C1990 H2015 0.950 . S
C1991 C1990 1.349 . S
C1991 C2007 1.349 . S
C1992 C1990 1.327 . S
C1992 C2011 1.429 . S
C1992 H2016 0.950 . S
C1993 C2010 1.574 . S
C1993 C2012 1.368 . S
C1993 H2017 0.949 . S
H1994 C1998 0.949 . S
C1995 C1996 1.349 . S
C1995 C1997 1.327 . S
C1995 H2018 0.950 . S
C1996 C1995 1.349 . S
C1996 C2008 1.349 . S
C1997 C1995 1.327 . S
C1997 C2013 1.429 . S
C1997 H2019 0.950 . S
C1998 H1994 0.949 . S
C1998 C2006 1.574 . S
C1998 C2014 1.368 . S
H1999 C2007 0.950 . S
H2000 C2005 0.950 . S
H2001 C2006 0.949 . S
H2002 C2008 0.950 . S
H2003 C2009 0.950 . S
H2004 C2010 0.949 . S
C2005 H2000 0.950 . S
C2005 C2007 1.327 . S
C2005 C2011 1.429 . S
C2006 C1998 1.574 . S
C2006 H2001 0.949 . S
C2006 C2012 1.368 . S
C2007 C1991 1.349 . S
C2007 H1999 0.950 . S
C2007 C2005 1.327 . S
C2008 C1996 1.349 . S
C2008 H2002 0.950 . S
C2008 C2009 1.327 . S
C2009 H2003 0.950 . S
C2009 C2008 1.327 . S
C2009 C2013 1.429 . S
C2010 C1993 1.574 . S
C2010 H2004 0.949 . S
C2010 C2014 1.368 . S
C2011 C1992 1.429 . S
C2011 C2005 1.429 . S
C2011 C2012 1.523 . S
C2012 C1993 1.368 . S
C2012 C2006 1.368 . S
C2012 C2011 1.523 . S
C2013 C1997 1.429 . S
C2013 C2009 1.429 . S
C2013 C2014 1.523 . S
C2014 C1998 1.368 . S
C2014 C2010 1.368 . S
C2014 C2013 1.523 . S
H2015 C1990 0.950 . S
H2016 C1992 0.950 . S
H2017 C1993 0.949 . S
H2018 C1995 0.950 . S
H2019 C1997 0.950 . S
C2020 C2021 1.349 . S
C2020 C2022 1.327 . S
C2020 H2045 0.950 . S
C2021 C2020 1.349 . S
C2021 C2037 1.349 . S
C2022 C2020 1.327 . S
C2022 C2041 1.429 . S
C2022 H2046 0.950 . S
C2023 C2040 1.574 . S
C2023 C2042 1.368 . S
C2023 H2047 0.949 . S
H2024 C2028 0.949 . S
C2025 C2026 1.349 . S
C2025 C2027 1.327 . S
C2025 H2048 0.950 . S
C2026 C2025 1.349 . S
C2026 C2038 1.349 . S
C2027 C2025 1.327 . S
C2027 C2043 1.429 . S
C2027 H2049 0.950 . S
C2028 H2024 0.949 . S
C2028 C2036 1.574 . S
C2028 C2044 1.368 . S
H2029 C2037 0.950 . S
H2030 C2035 0.950 . S
H2031 C2036 0.949 . S
H2032 C2038 0.950 . S
H2033 C2039 0.950 . S
H2034 C2040 0.949 . S
C2035 H2030 0.950 . S
C2035 C2037 1.327 . S
C2035 C2041 1.429 . S
C2036 C2028 1.574 . S
C2036 H2031 0.949 . S
C2036 C2042 1.368 . S
C2037 C2021 1.349 . S
C2037 H2029 0.950 . S
C2037 C2035 1.327 . S
C2038 C2026 1.349 . S
C2038 H2032 0.950 . S
C2038 C2039 1.327 . S
C2039 H2033 0.950 . S
C2039 C2038 1.327 . S
C2039 C2043 1.429 . S
C2040 C2023 1.574 . S
C2040 H2034 0.949 . S
C2040 C2044 1.368 . S
C2041 C2022 1.429 . S
C2041 C2035 1.429 . S
C2041 C2042 1.523 . S
C2042 C2023 1.368 . S
C2042 C2036 1.368 . S
C2042 C2041 1.523 . S
C2043 C2027 1.429 . S
C2043 C2039 1.429 . S
C2043 C2044 1.523 . S
C2044 C2028 1.368 . S
C2044 C2040 1.368 . S
C2044 C2043 1.523 . S
H2045 C2020 0.950 . S
H2046 C2022 0.950 . S
H2047 C2023 0.949 . S
H2048 C2025 0.950 . S
H2049 C2027 0.950 . S
C2050 C2051 1.349 . S
C2050 C2052 1.327 . S
C2050 H2075 0.950 . S
C2051 C2050 1.349 . S
C2051 C2067 1.349 . S
C2052 C2050 1.327 . S
C2052 C2071 1.429 . S
C2052 H2076 0.950 . S
C2053 C2070 1.574 . S
C2053 C2072 1.368 . S
C2053 H2077 0.949 . S
H2054 C2058 0.949 . S
C2055 C2056 1.349 . S
C2055 C2057 1.327 . S
C2055 H2078 0.950 . S
C2056 C2055 1.349 . S
C2056 C2068 1.349 . S
C2057 C2055 1.327 . S
C2057 C2073 1.429 . S
C2057 H2079 0.950 . S
C2058 H2054 0.949 . S
C2058 C2066 1.574 . S
C2058 C2074 1.368 . S
H2059 C2067 0.950 . S
H2060 C2065 0.950 . S
H2061 C2066 0.949 . S
H2062 C2068 0.950 . S
H2063 C2069 0.950 . S
H2064 C2070 0.949 . S
C2065 H2060 0.950 . S
C2065 C2067 1.327 . S
C2065 C2071 1.429 . S
C2066 C2058 1.574 . S
C2066 H2061 0.949 . S
C2066 C2072 1.368 . S
C2067 C2051 1.349 . S
C2067 H2059 0.950 . S
C2067 C2065 1.327 . S
C2068 C2056 1.349 . S
C2068 H2062 0.950 . S
C2068 C2069 1.327 . S
C2069 H2063 0.950 . S
C2069 C2068 1.327 . S
C2069 C2073 1.429 . S
C2070 C2053 1.574 . S
C2070 H2064 0.949 . S
C2070 C2074 1.368 . S
C2071 C2052 1.429 . S
C2071 C2065 1.429 . S
C2071 C2072 1.523 . S
C2072 C2053 1.368 . S
C2072 C2066 1.368 . S
C2072 C2071 1.523 . S
C2073 C2057 1.429 . S
C2073 C2069 1.429 . S
C2073 C2074 1.523 . S
C2074 C2058 1.368 . S
C2074 C2070 1.368 . S
C2074 C2073 1.523 . S
H2075 C2050 0.950 . S
H2076 C2052 0.950 . S
H2077 C2053 0.949 . S
H2078 C2055 0.950 . S
H2079 C2057 0.950 . S
C641 C6 0.958 . S
C646 C286 1.011 . S
C671 C59 2.637 . S
C676 C179 2.599 1_554 S
C701 C206 0.508 . S
C706 C99 0.580 . S
C731 C139 1.868 . S
C736 C246 1.904 . S
C761 C455 1.011 . S
C766 C175 0.958 . S
C791 C330 2.637 . S
C796 C10 2.599 1_556 S
C821 C415 0.508 . S
C826 C250 0.580 . S
C851 C95 1.904 . S
C856 C370 1.868 . S
C881 C366 1.012 . S
C886 C486 0.958 . S
C911 C419 2.637 . S
C916 C579 2.599 . S
C941 C539 0.579 . S
C946 C326 0.507 . S
C971 C459 1.868 . S
C976 C606 1.905 . S
C1001 C575 0.958 . S
C1006 C135 1.012 . S
C1031 C490 2.599 . S
C1036 C210 2.637 . S
C1061 C55 0.508 . S
C1066 C610 0.579 . S
C1091 C290 1.868 . S
C1096 C535 1.905 . S
C1121 C538 0.819 . S
C1126 C9 0.845 . S
C1151 C458 0.827 . S
C1156 C58 0.484 . S
C1181 C489 0.845 . S
C1186 C98 0.819 . S
C1211 C418 0.484 . S
C1216 C138 0.827 . S
C1241 C178 0.845 . S
C1246 C609 0.818 . S
C1271 C369 0.827 . S
C1276 C209 0.485 . S
C1301 C249 0.818 . S
C1306 C578 0.845 . S
C1331 C289 0.827 . S
C1336 C329 0.484 . S
C1361 C18 1.252 . S
C1366 C169 1.252 . S
C1391 C49 1.043 . S
C1396 C218 1.043 . S
C1421 C258 1.353 . S
C1426 C89 1.353 . S
C1451 C129 1.692 . S
C1456 C298 1.692 . S
C1481 C409 1.043 . S
C1486 C338 1.043 . S
C1511 C449 1.692 . S
C1516 C378 1.692 . S
C1541 C498 1.252 . S
C1546 C569 1.252 . S
C1571 C618 1.353 . S
C1576 C529 1.353 . S
C1601 C19 3.654 . S
C1606 C299 3.661 . S
C1631 C46 0.505 . S
C1636 C166 0.498 . S
C1661 C219 2.910 . S
C1666 C86 2.854 . S
C1691 C259 0.936 . S
C1696 C126 0.915 . S
C1721 C450 3.662 . S
C1726 C170 3.655 1_655 S
C1751 C335 0.505 . S
C1756 C15 0.497 . S
C1781 C410 2.910 . S
C1786 C255 2.854 . S
C1811 C90 0.936 . S
C1816 C375 0.915 . S
C1841 C499 3.655 . S
C1846 C379 3.662 1_556 S
C1871 C566 0.498 . S
C1876 C406 0.505 . S
C1901 C526 2.853 . S
C1906 C339 2.910 . S
C1931 C619 0.936 . S
C1936 C446 0.915 . S
C1961 C570 3.655 . S
C1966 C130 3.662 1_554 S
C1991 C215 0.505 . S
C1996 C495 0.498 . S
C2021 C50 2.910 . S
C2026 C615 2.853 . S
C2051 C530 0.936 . S
C2056 C295 0.915 . S
