# Generated by pormake.
# Topology why, (6)-cn, num edge types: 1
# Building blocks:
#     Node 0, Type 0, BuildingBlock: BETDIP_clean_sbu_0, # of connection points: 6
#     Node 1, Type 0, BuildingBlock: BETDIP_clean_sbu_0, # of connection points: 6
#     Node 2, Type 0, BuildingBlock: BETDIP_clean_sbu_0, # of connection points: 6
#     Node 3, Type 0, BuildingBlock: BETDIP_clean_sbu_0, # of connection points: 6
#     Node 4, Type 0, BuildingBlock: BETDIP_clean_sbu_0, # of connection points: 6
#     Node 5, Type 0, BuildingBlock: BETDIP_clean_sbu_0, # of connection points: 6
#     Node 6, Type 0, BuildingBlock: BETDIP_clean_sbu_0, # of connection points: 6
#     Node 7, Type 0, BuildingBlock: BETDIP_clean_sbu_0, # of connection points: 6
#     Node 8, Type 0, BuildingBlock: BETDIP_clean_sbu_0, # of connection points: 6
#     Node 9, Type 0, BuildingBlock: BETDIP_clean_sbu_0, # of connection points: 6
#     Node 10, Type 0, BuildingBlock: BETDIP_clean_sbu_0, # of connection points: 6
#     Node 11, Type 0, BuildingBlock: BETDIP_clean_sbu_0, # of connection points: 6
#     Node 12, Type 0, BuildingBlock: BETDIP_clean_sbu_0, # of connection points: 6
#     Node 13, Type 0, BuildingBlock: BETDIP_clean_sbu_0, # of connection points: 6
#     Node 14, Type 0, BuildingBlock: BETDIP_clean_sbu_0, # of connection points: 6
#     Node 15, Type 0, BuildingBlock: BETDIP_clean_sbu_0, # of connection points: 6
#     Edge 16, Type (0, 0), BuildingBlock: XUDNAN_clean_linker_2, # of connection points: 2
#     Edge 17, Type (0, 0), BuildingBlock: XUDNAN_clean_linker_2, # of connection points: 2
#     Edge 18, Type (0, 0), BuildingBlock: XUDNAN_clean_linker_2, # of connection points: 2
#     Edge 19, Type (0, 0), BuildingBlock: XUDNAN_clean_linker_2, # of connection points: 2
#     Edge 20, Type (0, 0), BuildingBlock: XUDNAN_clean_linker_2, # of connection points: 2
#     Edge 21, Type (0, 0), BuildingBlock: XUDNAN_clean_linker_2, # of connection points: 2
#     Edge 22, Type (0, 0), BuildingBlock: XUDNAN_clean_linker_2, # of connection points: 2
#     Edge 23, Type (0, 0), BuildingBlock: XUDNAN_clean_linker_2, # of connection points: 2
#     Edge 24, Type (0, 0), BuildingBlock: XUDNAN_clean_linker_2, # of connection points: 2
#     Edge 25, Type (0, 0), BuildingBlock: XUDNAN_clean_linker_2, # of connection points: 2
#     Edge 26, Type (0, 0), BuildingBlock: XUDNAN_clean_linker_2, # of connection points: 2
#     Edge 27, Type (0, 0), BuildingBlock: XUDNAN_clean_linker_2, # of connection points: 2
#     Edge 28, Type (0, 0), BuildingBlock: XUDNAN_clean_linker_2, # of connection points: 2
#     Edge 29, Type (0, 0), BuildingBlock: XUDNAN_clean_linker_2, # of connection points: 2
#     Edge 30, Type (0, 0), BuildingBlock: XUDNAN_clean_linker_2, # of connection points: 2
#     Edge 31, Type (0, 0), BuildingBlock: XUDNAN_clean_linker_2, # of connection points: 2
#     Edge 32, Type (0, 0), BuildingBlock: XUDNAN_clean_linker_2, # of connection points: 2
#     Edge 33, Type (0, 0), BuildingBlock: XUDNAN_clean_linker_2, # of connection points: 2
#     Edge 34, Type (0, 0), BuildingBlock: XUDNAN_clean_linker_2, # of connection points: 2
#     Edge 35, Type (0, 0), BuildingBlock: XUDNAN_clean_linker_2, # of connection points: 2
#     Edge 36, Type (0, 0), BuildingBlock: XUDNAN_clean_linker_2, # of connection points: 2
#     Edge 37, Type (0, 0), BuildingBlock: XUDNAN_clean_linker_2, # of connection points: 2
#     Edge 38, Type (0, 0), BuildingBlock: XUDNAN_clean_linker_2, # of connection points: 2
#     Edge 39, Type (0, 0), BuildingBlock: XUDNAN_clean_linker_2, # of connection points: 2
#     Edge 40, Type (0, 0), BuildingBlock: XUDNAN_clean_linker_2, # of connection points: 2
#     Edge 41, Type (0, 0), BuildingBlock: XUDNAN_clean_linker_2, # of connection points: 2
#     Edge 42, Type (0, 0), BuildingBlock: XUDNAN_clean_linker_2, # of connection points: 2
#     Edge 43, Type (0, 0), BuildingBlock: XUDNAN_clean_linker_2, # of connection points: 2
#     Edge 44, Type (0, 0), BuildingBlock: XUDNAN_clean_linker_2, # of connection points: 2
#     Edge 45, Type (0, 0), BuildingBlock: XUDNAN_clean_linker_2, # of connection points: 2
#     Edge 46, Type (0, 0), BuildingBlock: XUDNAN_clean_linker_2, # of connection points: 2
#     Edge 47, Type (0, 0), BuildingBlock: XUDNAN_clean_linker_2, # of connection points: 2
#     Edge 48, Type (0, 0), BuildingBlock: XUDNAN_clean_linker_2, # of connection points: 2
#     Edge 49, Type (0, 0), BuildingBlock: XUDNAN_clean_linker_2, # of connection points: 2
#     Edge 50, Type (0, 0), BuildingBlock: XUDNAN_clean_linker_2, # of connection points: 2
#     Edge 51, Type (0, 0), BuildingBlock: XUDNAN_clean_linker_2, # of connection points: 2
#     Edge 52, Type (0, 0), BuildingBlock: XUDNAN_clean_linker_2, # of connection points: 2
#     Edge 53, Type (0, 0), BuildingBlock: XUDNAN_clean_linker_2, # of connection points: 2
#     Edge 54, Type (0, 0), BuildingBlock: XUDNAN_clean_linker_2, # of connection points: 2
#     Edge 55, Type (0, 0), BuildingBlock: XUDNAN_clean_linker_2, # of connection points: 2
#     Edge 56, Type (0, 0), BuildingBlock: XUDNAN_clean_linker_2, # of connection points: 2
#     Edge 57, Type (0, 0), BuildingBlock: XUDNAN_clean_linker_2, # of connection points: 2
#     Edge 58, Type (0, 0), BuildingBlock: XUDNAN_clean_linker_2, # of connection points: 2
#     Edge 59, Type (0, 0), BuildingBlock: XUDNAN_clean_linker_2, # of connection points: 2
#     Edge 60, Type (0, 0), BuildingBlock: XUDNAN_clean_linker_2, # of connection points: 2
#     Edge 61, Type (0, 0), BuildingBlock: XUDNAN_clean_linker_2, # of connection points: 2
#     Edge 62, Type (0, 0), BuildingBlock: XUDNAN_clean_linker_2, # of connection points: 2
#     Edge 63, Type (0, 0), BuildingBlock: XUDNAN_clean_linker_2, # of connection points: 2
# Relax obj value: 0.441
# Max RMSD: 0.239
# Mean RMSD: 0.239
data_MOF--net-why--node1-BETDIP_clean_sbu_0--edge1-XUDNAN_clean_linker_2
_symmetry_space_group_name_H-M    P1
_symmetry_Int_Tables_number       1
_symmetry_cell_setting            triclinic
loop_
_symmetry_equiv_pos_as_xyz
'x, y, z'
_cell_length_a     49.448321
_cell_length_b     49.939137
_cell_length_c     38.802875
_cell_angle_alpha  89.838134
_cell_angle_beta   90.365501
_cell_angle_gamma 89.664518
loop_
_atom_site_label
_atom_site_type_symbol
_atom_site_fract_x
_atom_site_fract_y
_atom_site_fract_z
_atom_type_partial_charge
Tb0 Tb 0.47635 0.20149 0.04806 0.0
Tb1 Tb 0.44689 0.23591 0.08959 0.0
C2 C 0.50264 0.18046 0.00075 0.0
C3 C 0.51856 0.19022 0.97189 0.0
C4 C 0.53801 0.21033 0.97629 0.0
C5 C 0.55419 0.2179 0.94876 0.0
C6 C 0.55095 0.20556 0.91656 0.0
C7 C 0.5304 0.18656 0.91189 0.0
C8 C 0.51445 0.17882 0.93946 0.0
C9 C 0.4654 0.1691 0.10479 0.0
C10 C 0.50987 0.25626 0.07819 0.0
C11 C 0.43046 0.25759 0.14344 0.0
C12 C 0.43236 0.28497 0.15542 0.0
C13 C 0.42414 0.29114 0.18874 0.0
C14 C 0.42352 0.31768 0.19934 0.0
C15 C 0.43128 0.3383 0.17668 0.0
C16 C 0.44065 0.33183 0.14367 0.0
C17 C 0.4412 0.30522 0.13308 0.0
C18 C 0.45224 0.25577 0.02815 0.0
C19 C 0.41117 0.2096 0.02905 0.0
O20 O 0.47655 0.18507 -0.00142 0.0
O21 O 0.51269 0.18481 0.03157 0.0
O22 O 0.45825 0.19391 0.0999 0.0
O23 O 0.47836 0.16311 0.07735 0.0
O24 O 0.51087 0.2322 0.06165 0.0
O25 O 0.48541 0.26224 0.09134 0.0
O26 O 0.41535 0.25442 0.11606 0.0
O27 O 0.45347 0.2447 0.14163 0.0
O28 O 0.46939 0.24255 0.04502 0.0
O29 O 0.43174 0.26139 0.04764 0.0
O30 O 0.4104 0.21911 0.06134 0.0
O31 O 0.4358 0.20223 0.01778 0.0
H32 H 0.5412 0.21971 0.00111 0.0
H33 H 0.56991 0.23255 0.95307 0.0
H34 H 0.52705 0.17721 0.88708 0.0
H35 H 0.49922 0.16358 0.93562 0.0
H36 H 0.41729 0.27558 0.20608 0.0
H37 H 0.41556 0.32209 0.22465 0.0
H38 H 0.44667 0.34735 0.12579 0.0
H39 H 0.44762 0.30053 0.10713 0.0
Tb40 Tb 0.71656 0.72668 0.29467 0.0
Tb41 Tb 0.68266 0.69795 0.33715 0.0
C42 C 0.73631 0.75285 0.24614 0.0
C43 C 0.72531 0.76303 0.21365 0.0
C44 C 0.69776 0.76965 0.21058 0.0
C45 C 0.68822 0.78276 0.18116 0.0
C46 C 0.70608 0.78895 0.15439 0.0
C47 C 0.73319 0.7805 0.15653 0.0
C48 C 0.74277 0.76767 0.18613 0.0
C49 C 0.74955 0.71845 0.35285 0.0
C50 C 0.66343 0.76009 0.32733 0.0
C51 C 0.66601 0.67046 0.38643 0.0
C52 C 0.67742 0.65161 0.41145 0.0
C53 C 0.69842 0.65906 0.43393 0.0
C54 C 0.70608 0.6423 0.46103 0.0
C55 C 0.69258 0.61803 0.46615 0.0
C56 C 0.67286 0.60987 0.44204 0.0
C57 C 0.66541 0.62654 0.41488 0.0
C58 C 0.65609 0.71341 0.28285 0.0
C59 C 0.70847 0.66244 0.2741 0.0
O60 O 0.7385 0.72681 0.2486 0.0
O61 O 0.72626 0.7639 0.27389 0.0
O62 O 0.72474 0.71053 0.34796 0.0
O63 O 0.75525 0.73034 0.32443 0.0
O64 O 0.6833 0.75945 0.30365 0.0
O65 O 0.66226 0.73831 0.34758 0.0
O66 O 0.67373 0.69534 0.38935 0.0
O67 O 0.66501 0.66236 0.35449 0.0
O68 O 0.68044 0.70593 0.28366 0.0
O69 O 0.64503 0.71022 0.3127 0.0
O70 O 0.6935 0.66197 0.30291 0.0
O71 O 0.72003 0.68617 0.26659 0.0
H72 H 0.68389 0.76578 0.23148 0.0
H73 H 0.66718 0.78889 0.17981 0.0
H74 H 0.74736 0.78528 0.13627 0.0
H75 H 0.76402 0.76241 0.18811 0.0
H76 H 0.70786 0.67839 0.43177 0.0
H77 H 0.7213 0.64906 0.47917 0.0
H78 H 0.66153 0.59158 0.44555 0.0
H79 H 0.64915 0.62051 0.39777 0.0
Tb80 Tb 0.19653 0.9652 0.54727 0.0
Tb81 Tb 0.2198 0.93924 0.59176 0.0
C82 C 0.16558 0.98779 0.50468 0.0
C83 C 0.1517 0.97765 0.47436 0.0
C84 C 0.14892 0.94994 0.46948 0.0
C85 C 0.13471 0.94035 0.44111 0.0
C86 C 0.12394 0.9584 0.41698 0.0
C87 C 0.12782 0.98603 0.42104 0.0
C88 C 0.14155 0.99564 0.44982 0.0
C89 C 0.20939 1.00035 0.60158 0.0
C90 C 0.16079 0.91404 0.57767 0.0
C91 C 0.24751 0.92551 0.64297 0.0
C92 C 0.25651 0.89837 0.65089 0.0
C93 C 0.25249 0.88791 0.68394 0.0
C94 C 0.25716 0.8608 0.69025 0.0
C95 C 0.26588 0.84402 0.6635 0.0
C96 C 0.26976 0.85452 0.63043 0.0
C97 C 0.26501 0.88148 0.6241 0.0
C98 C 0.21261 0.90465 0.54222 0.0
C99 C 0.259 0.95793 0.52683 0.0
O100 O 0.19181 0.98811 0.50236 0.0
O101 O 0.15745 0.97798 0.53401 0.0
O102 O 0.19841 0.97705 0.60302 0.0
O103 O 0.2156 1.00203 0.56939 0.0
O104 O 0.16356 0.93187 0.55196 0.0
O105 O 0.18078 0.91566 0.60097 0.0
O106 O 0.25791 0.93635 0.61555 0.0
O107 O 0.22142 0.92874 0.64407 0.0
O108 O 0.21799 0.92898 0.5379 0.0
O109 O 0.21308 0.89838 0.57452 0.0
O110 O 0.25799 0.94987 0.55998 0.0
O111 O 0.23463 0.96396 0.51389 0.0
H112 H 0.15747 0.93574 0.48766 0.0
H113 H 0.13201 0.91896 0.43805 0.0
H114 H 0.11948 1.00016 0.40252 0.0
H115 H 0.14398 1.01703 0.45312 0.0
H116 H 0.24528 0.90059 0.70459 0.0
H117 H 0.25452 0.85307 0.71612 0.0
H118 H 0.27652 0.84183 0.60952 0.0
H119 H 0.26747 0.88896 0.59807 0.0
Tb120 Tb 0.95277 0.44409 0.79047 0.0
Tb121 Tb 0.97765 0.46558 0.83646 0.0
C122 C 0.92983 0.41432 0.74734 0.0
C123 C 0.93799 0.3994 0.71701 0.0
C124 C 0.9609 0.40662 0.69792 0.0
C125 C 0.9692 0.39067 0.67039 0.0
C126 C 0.95489 0.36731 0.66243 0.0
C127 C 0.93171 0.36061 0.68114 0.0
C128 C 0.92329 0.37661 0.70825 0.0
C129 C 0.91679 0.45394 0.84522 0.0
C130 C 1.00274 0.40768 0.82327 0.0
C131 C 0.98083 0.49414 0.88909 0.0
C132 C 0.9847 0.52254 0.89327 0.0
C133 C 0.97351 0.53531 0.92184 0.0
C134 C 0.97761 0.56253 0.92651 0.0
C135 C 0.99296 0.57691 0.90257 0.0
C136 C 1.00198 0.56451 0.87235 0.0
C137 C 0.99795 0.53731 0.86776 0.0
C138 C 1.01399 0.46056 0.78913 0.0
C139 C 0.96033 0.50616 0.77098 0.0
O140 O 0.93052 0.44029 0.74472 0.0
O141 O 0.94007 0.40572 0.77638 0.0
O142 O 0.94042 0.44267 0.84587 0.0
O143 O 0.91557 0.46247 0.81378 0.0
O144 O 0.98762 0.41242 0.79498 0.0
O145 O 0.99781 0.42535 0.84836 0.0
O146 O 0.95812 0.48829 0.87391 0.0
O147 O 1.00129 0.48066 0.87685 0.0
O148 O 0.98931 0.46572 0.7832 0.0
O149 O 1.01937 0.46007 0.82188 0.0
O150 O 0.96983 0.50413 0.80359 0.0
O151 O 0.95279 0.4826 0.7581 0.0
H152 H 0.97257 0.42415 0.70472 0.0
H153 H 0.98718 0.39597 0.65615 0.0
H154 H 0.92035 0.34272 0.67506 0.0
H155 H 0.90564 0.37087 0.72289 0.0
H156 H 0.96257 0.52403 0.9411 0.0
H157 H 0.97095 0.57175 0.95026 0.0
H158 H 1.01414 0.57536 0.8539 0.0
H159 H 1.00611 0.52765 0.84509 0.0
Tb160 Tb 0.72123 0.93364 0.90097 0.0
Tb161 Tb 0.69609 0.96335 0.94583 0.0
C162 C 0.7488 0.92063 0.84975 0.0
C163 C 0.77523 0.92781 0.83612 0.0
C164 C 0.77992 0.95294 0.82094 0.0
C165 C 0.80465 0.95813 0.80532 0.0
C166 C 0.82486 0.93832 0.80485 0.0
C167 C 0.82047 0.91376 0.82171 0.0
C168 C 0.79587 0.90857 0.83712 0.0
C169 C 0.71158 0.90433 0.95512 0.0
C170 C 0.75999 0.95631 0.96423 0.0
C171 C 0.66471 0.98543 0.98792 0.0
C172 C 0.65087 0.97651 0.01939 0.0
C173 C 0.62296 0.97162 0.01856 0.0
C174 C 0.60958 0.96348 0.0483 0.0
C175 C 0.62385 0.96032 0.0795 0.0
C176 C 0.65184 0.96495 0.08018 0.0
C177 C 0.66523 0.97293 0.05045 0.0
C178 C 0.71002 0.99626 0.89024 0.0
C179 C 0.66115 0.91179 0.91346 0.0
O180 O 0.72993 0.939 0.84873 0.0
O181 O 0.74924 0.90758 0.87882 0.0
O182 O 0.71833 0.92845 0.95514 0.0
O183 O 0.71186 0.89474 0.92413 0.0
O184 O 0.75894 0.94797 0.93119 0.0
O185 O 0.73561 0.96183 0.97765 0.0
O186 O 0.69099 0.98715 0.9896 0.0
O187 O 0.65657 0.97462 0.95909 0.0
O188 O 0.69979 0.97232 0.88944 0.0
O189 O 0.71383 0.99994 0.92276 0.0
O190 O 0.6636 0.92967 0.93927 0.0
O191 O 0.68125 0.91277 0.89062 0.0
H192 H 0.76429 0.96821 0.82007 0.0
H193 H 0.80757 0.97713 0.79238 0.0
H194 H 0.83532 0.89774 0.82106 0.0
H195 H 0.79263 0.88907 0.84866 0.0
H196 H 0.61144 0.97418 0.99493 0.0
H197 H 0.58805 0.95972 0.04687 0.0
H198 H 0.66336 0.96311 0.10391 0.0
H199 H 0.68679 0.97651 0.05198 0.0
Tb200 Tb 0.4871 0.46856 0.65324 0.0
Tb201 Tb 0.45853 0.44364 0.69373 0.0
C202 C 0.50046 0.49943 0.60552 0.0
C203 C 0.52522 0.51477 0.60332 0.0
C204 C 0.53641 0.5198 0.57105 0.0
C205 C 0.56271 0.52931 0.56884 0.0
C206 C 0.5781 0.5336 0.59894 0.0
C207 C 0.56647 0.52943 0.63129 0.0
C208 C 0.54015 0.51994 0.63347 0.0
C209 C 0.52 0.45893 0.70417 0.0
C210 C 0.4659 0.50519 0.71894 0.0
C211 C 0.43486 0.41137 0.73266 0.0
C212 C 0.44337 0.39522 0.76237 0.0
C213 C 0.43413 0.40227 0.79518 0.0
C214 C 0.44171 0.38716 0.82375 0.0
C215 C 0.45819 0.36437 0.81989 0.0
C216 C 0.46803 0.35769 0.78717 0.0
C217 C 0.46075 0.37308 0.75858 0.0
C218 C 0.42615 0.45649 0.63659 0.0
C219 C 0.51138 0.40929 0.66428 0.0
O220 O 0.48379 0.5064 0.62984 0.0
O221 O 0.50457 0.47371 0.60481 0.0
O222 O 0.49503 0.46376 0.70769 0.0
O223 O 0.52746 0.46143 0.67247 0.0
O224 O 0.47934 0.50519 0.68894 0.0
O225 O 0.45539 0.48135 0.7269 0.0
O226 O 0.43496 0.43718 0.73746 0.0
O227 O 0.44482 0.40471 0.7028 0.0
O228 O 0.4504 0.44698 0.63763 0.0
O229 O 0.42106 0.46101 0.66858 0.0
O230 O 0.49289 0.41134 0.68944 0.0
O231 O 0.51024 0.42978 0.64203 0.0
H232 H 0.52524 0.51537 0.54765 0.0
H233 H 0.57117 0.53294 0.54358 0.0
H234 H 0.57802 0.53261 0.65473 0.0
H235 H 0.5319 0.51556 0.65865 0.0
H236 H 0.42092 0.41942 0.79871 0.0
H237 H 0.43431 0.39311 0.84882 0.0
H238 H 0.48057 0.3401 0.78343 0.0
H239 H 0.46841 0.36732 0.73357 0.0
Tb240 Tb 0.95457 0.23083 0.40125 0.0
Tb241 Tb 0.9783 0.20019 0.44275 0.0
C242 C 0.9253 0.24838 0.35342 0.0
C243 C 0.91232 0.27449 0.35182 0.0
C244 C 0.90743 0.28661 0.31996 0.0
C245 C 0.89759 0.31274 0.31867 0.0
C246 C 0.89287 0.32703 0.34931 0.0
C247 C 0.89774 0.31473 0.38122 0.0
C248 C 0.90742 0.28858 0.38247 0.0
C249 C 0.96295 0.25908 0.45753 0.0
C250 C 0.91549 0.20795 0.46427 0.0
C251 C 1.01113 0.17488 0.48009 0.0
C252 C 1.02848 0.18312 0.50866 0.0
C253 C 1.01766 0.19648 0.53726 0.0
C254 C 1.03465 0.20562 0.56321 0.0
C255 C 1.06262 0.20129 0.56107 0.0
C256 C 1.07349 0.18819 0.53235 0.0
C257 C 1.05646 0.17915 0.50626 0.0
C258 C 0.96314 0.16896 0.38669 0.0
C259 C 1.01373 0.25392 0.41698 0.0
O260 O 0.91645 0.23253 0.37749 0.0
O261 O 0.95158 0.24917 0.35272 0.0
O262 O 0.95706 0.23492 0.45579 0.0
O263 O 0.96144 0.26971 0.42718 0.0
O264 O 0.91645 0.2188 0.43242 0.0
O265 O 0.93987 0.20019 0.47618 0.0
O266 O 0.98513 0.17543 0.48553 0.0
O267 O 1.01748 0.1852 0.45033 0.0
O268 O 0.97449 0.19233 0.38622 0.0
O269 O 0.95764 0.16566 0.41884 0.0
O270 O 1.01071 0.23412 0.44037 0.0
O271 O 0.99362 0.2548 0.39385 0.0
H272 H 0.91149 0.27601 0.2962 0.0
H273 H 0.8934 0.32166 0.2937 0.0
H274 H 0.89428 0.32538 0.40509 0.0
H275 H 0.91137 0.27948 0.40737 0.0
H276 H 0.99613 0.19979 0.53975 0.0
H277 H 1.02592 0.2158 0.58516 0.0
H278 H 0.09502 0.18432 0.53053 0.0
H279 H 1.06511 0.16906 0.48419 0.0
Tb280 Tb 0.19353 0.69978 0.16019 0.0
Tb281 Tb 0.22397 0.7253 0.20143 0.0
C282 C 0.18017 0.67324 0.10863 0.0
C283 C 0.15772 0.67648 0.08465 0.0
C284 C 0.16327 0.67791 0.04945 0.0
C285 C 0.14218 0.68011 0.02593 0.0
C286 C 0.11532 0.68019 0.03742 0.0
C287 C 0.10984 0.68089 0.07279 0.0
C288 C 0.13103 0.67922 0.0964 0.0
C289 C 0.16286 0.71098 0.2119 0.0
C290 C 0.21639 0.66308 0.22447 0.0
C291 C 0.24707 0.75665 0.24236 0.0
C292 C 0.23841 0.76959 0.27446 0.0
C293 C 0.2351 0.75471 0.30494 0.0
C294 C 0.22679 0.76733 0.33506 0.0
C295 C 0.22142 0.79499 0.33521 0.0
C296 C 0.22412 0.80968 0.30449 0.0
C297 C 0.23274 0.79713 0.27449 0.0
C298 C 0.25527 0.71224 0.14389 0.0
C299 C 0.17048 0.76009 0.17163 0.0
O300 O 0.17408 0.6662 0.14 0.0
O301 O 0.1979 0.69243 0.10755 0.0
O302 O 0.18772 0.7049 0.21454 0.0
O303 O 0.15425 0.70966 0.18022 0.0
O304 O 0.20642 0.66251 0.19224 0.0
O305 O 0.22355 0.68762 0.23484 0.0
O306 O 0.25019 0.73071 0.24333 0.0
O307 O 0.23458 0.76459 0.21439 0.0
O308 O 0.23077 0.72142 0.14542 0.0
O309 O 0.26143 0.70889 0.17594 0.0
O310 O 0.19055 0.75798 0.19516 0.0
O311 O 0.16908 0.73886 0.1504 0.0
H312 H 0.18386 0.67659 0.04015 0.0
H313 H 0.14673 0.67986 -0.00135 0.0
H314 H 1.08925 0.68078 0.08215 0.0
H315 H 0.12644 0.67906 0.12366 0.0
H316 H 0.23912 0.73337 0.30571 0.0
H317 H 0.22523 0.75549 0.35838 0.0
H318 H 0.21963 0.83092 0.3036 0.0
H319 H 0.23491 0.80896 0.25123 0.0
Tb320 Tb 0.97758 0.70549 0.54452 0.0
Tb321 Tb 0.95296 0.73206 0.58971 0.0
C322 C 1.00829 0.68307 0.50213 0.0
C323 C 1.02481 0.69258 0.47326 0.0
C324 C 1.01497 0.68942 0.43954 0.0
C325 C 1.02944 0.69926 0.41176 0.0
C326 C 1.05421 0.71218 0.41707 0.0
C327 C 1.06445 0.71496 0.45066 0.0
C328 C 1.04976 0.70534 0.47867 0.0
C329 C 0.96432 0.67129 0.60005 0.0
C330 C 1.01138 0.75943 0.57421 0.0
C331 C 0.93654 0.74876 0.64669 0.0
C332 C 0.93125 0.77621 0.65677 0.0
C333 C 0.92095 0.7818 0.68933 0.0
C334 C 0.91716 0.80829 0.69926 0.0
C335 C 0.92389 0.82937 0.67672 0.0
C336 C 0.93407 0.82357 0.64398 0.0
C337 C 0.93774 0.79711 0.63406 0.0
C338 C 0.94786 0.76114 0.53423 0.0
C339 C 0.91485 0.71087 0.52671 0.0
O340 O 0.98223 0.68576 0.49768 0.0
O341 O 1.01595 0.68966 0.53327 0.0
O342 O 0.97465 0.69472 0.59996 0.0
O343 O 0.95917 0.6678 0.56773 0.0
O344 O 1.01138 0.73833 0.55223 0.0
O345 O 0.98892 0.76076 0.59322 0.0
O346 O 0.92047 0.73925 0.62305 0.0
O347 O 0.96185 0.74387 0.64009 0.0
O348 O 0.96847 0.74725 0.54181 0.0
O349 O 0.93059 0.76062 0.55897 0.0
O350 O 0.91597 0.71448 0.56114 0.0
O351 O 0.93908 0.70882 0.51229 0.0
H352 H 0.99593 0.67946 0.43462 0.0
H353 H 1.0214 0.69639 0.38599 0.0
H354 H 1.0836 0.72481 0.45522 0.0
H355 H 1.05786 0.70803 0.50442 0.0
H356 H 0.91594 0.76576 0.70699 0.0
H357 H 0.90863 0.81227 0.72438 0.0
H358 H 0.93939 0.83945 0.62623 0.0
H359 H 0.94596 0.79298 0.60884 0.0
Tb360 Tb 0.21635 0.22817 0.79765 0.0
Tb361 Tb 0.18362 0.1986 0.83597 0.0
C362 C 0.24428 0.25045 0.75204 0.0
C363 C 0.23786 0.26669 0.72142 0.0
C364 C 0.22732 0.25512 0.69124 0.0
C365 C 0.21848 0.27136 0.66411 0.0
C366 C 0.22059 0.29933 0.6665 0.0
C367 C 0.23249 0.3107 0.69591 0.0
C368 C 0.241 0.29453 0.7231 0.0
C369 C 0.2436 0.21765 0.85926 0.0
C370 C 0.16125 0.26122 0.82566 0.0
C371 C 0.1653 0.1827 0.8922 0.0
C372 C 0.17408 0.16439 0.9196 0.0
C373 C 0.19101 0.1733 0.94635 0.0
C374 C 0.19839 0.15608 0.97307 0.0
C375 C 0.18788 0.13007 0.97433 0.0
C376 C 0.17113 0.12117 0.94723 0.0
C377 C 0.16449 0.1381 0.92004 0.0
C378 C 0.16169 0.20479 0.77623 0.0
C379 C 0.20852 0.16398 0.77487 0.0
O380 O 0.23761 0.2252 0.75115 0.0
O381 O 0.23821 0.26151 0.78144 0.0
O382 O 0.22851 0.20155 0.84137 0.0
O383 O 0.24182 0.24002 0.84276 0.0
O384 O 0.18255 0.26148 0.8037 0.0
O385 O 0.15923 0.23796 0.84302 0.0
O386 O 0.17944 0.20462 0.88876 0.0
O387 O 0.15906 0.17181 0.8626 0.0
O388 O 0.17505 0.2221 0.79221 0.0
O389 O 0.15661 0.18429 0.79568 0.0
O390 O 0.19665 0.16172 0.80569 0.0
O391 O 0.21735 0.18872 0.76689 0.0
H392 H 0.22513 0.23364 0.68892 0.0
H393 H 0.20948 0.26206 0.64165 0.0
H394 H 0.23525 0.33213 0.69798 0.0
H395 H 0.24959 0.30389 0.7458 0.0
H396 H 0.19798 0.19379 0.94721 0.0
H397 H 0.2113 0.16354 0.99351 0.0
H398 H 0.16175 0.10164 0.94779 0.0
H399 H 0.15097 0.13089 0.90007 0.0
Tb400 Tb 0.69015 0.46558 0.05188 0.0
Tb401 Tb 0.72148 0.43504 0.08604 0.0
C402 C 0.66559 0.49398 0.00818 0.0
C403 C 0.65192 0.48745 0.97565 0.0
C404 C 0.62877 0.47123 0.9751 0.0
C405 C 0.61699 0.46403 0.94383 0.0
C406 C 0.62834 0.47271 0.91276 0.0
C407 C 0.65142 0.48889 0.91328 0.0
C408 C 0.66305 0.49633 0.94453 0.0
C409 C 0.70218 0.49279 0.11256 0.0
C410 C 0.65892 0.41063 0.07968 0.0
C411 C 0.7391 0.41712 0.14196 0.0
C412 C 0.75779 0.42588 0.16894 0.0
C413 C 0.75025 0.44533 0.19327 0.0
C414 C 0.76735 0.45108 0.22093 0.0
C415 C 0.79212 0.43751 0.22447 0.0
C416 C 0.80004 0.41901 0.19914 0.0
C417 C 0.78301 0.41323 0.17171 0.0
C418 C 0.71453 0.4122 0.02715 0.0
C419 C 0.75434 0.45868 0.02374 0.0
O420 O 0.69171 0.49045 0.00836 0.0
O421 O 0.6545 0.48505 0.0363 0.0
O422 O 0.71823 0.4795 0.09252 0.0
O423 O 0.6786 0.48777 0.09985 0.0
O424 O 0.65657 0.433 0.06012 0.0
O425 O 0.6839 0.40797 0.09327 0.0
O426 O 0.71633 0.43046 0.13902 0.0
O427 O 0.74993 0.41146 0.1122 0.0
O428 O 0.69663 0.42474 0.04343 0.0
O429 O 0.73647 0.40951 0.04539 0.0
O430 O 0.75794 0.44753 0.05476 0.0
O431 O 0.72857 0.46658 0.01719 0.0
H432 H 0.61989 0.46382 -0.00131 0.0
H433 H 0.59926 0.45138 0.94387 0.0
H434 H 0.6603 0.496 0.88951 0.0
H435 H 0.68095 0.50875 0.9444 0.0
H436 H 0.73083 0.45543 0.19168 0.0
H437 H 0.76078 0.46528 0.24024 0.0
H438 H 0.81866 0.4076 0.20159 0.0
H439 H 0.78913 0.39803 0.15342 0.0
Tb440 Tb 0.45534 0.94419 0.29615 0.0
Tb441 Tb 0.48442 0.96943 0.34058 0.0
C442 C 0.43212 0.91369 0.25442 0.0
C443 C 0.44072 0.89934 0.22362 0.0
C444 C 0.42623 0.90315 0.19291 0.0
C445 C 0.43381 0.88951 0.16332 0.0
C446 C 0.45578 0.87154 0.16422 0.0
C447 C 0.47073 0.86829 0.19482 0.0
C448 C 0.46336 0.88222 0.22429 0.0
C449 C 0.42302 0.95616 0.35334 0.0
C450 C 0.50776 0.90938 0.32779 0.0
C451 C 0.49817 0.99426 0.39362 0.0
C452 C 0.52056 0.98868 0.41709 0.0
C453 C 0.518 0.99448 0.45211 0.0
C454 C 0.53943 0.98905 0.47457 0.0
C455 C 0.56353 0.97773 0.46205 0.0
C456 C 0.56544 0.97064 0.42726 0.0
C457 C 0.54404 0.97602 0.40492 0.0
C458 C 0.51598 0.95942 0.28874 0.0
C459 C 0.46099 1.00688 0.27723 0.0
O460 O 0.43163 0.93971 0.25165 0.0
O461 O 0.44258 0.9056 0.28365 0.0
O462 O 0.44743 0.94697 0.35222 0.0
O463 O 0.41748 0.96034 0.32122 0.0
O464 O 0.48932 0.91164 0.30219 0.0
O465 O 0.50708 0.92982 0.35021 0.0
O466 O 0.50487 1.00179 0.36263 0.0
O467 O 0.47949 0.97596 0.39344 0.0
O468 O 0.49132 0.96592 0.28628 0.0
O469 O 0.52412 0.95985 0.32053 0.0
O470 O 0.46849 1.00625 0.31059 0.0
O471 O 0.45648 0.98266 0.26379 0.0
H472 H 0.40896 0.91661 0.19188 0.0
H473 H 0.4223 0.89282 0.13983 0.0
H474 H 0.4876 0.85439 0.19633 0.0
H475 H 0.47513 0.8792 0.24762 0.0
H476 H 0.49972 1.00373 0.46189 0.0
H477 H 0.53774 0.99517 0.50123 0.0
H478 H 0.58393 0.96208 0.41712 0.0
H479 H 0.54617 0.97086 0.37805 0.0
Tb480 Tb 0.21935 0.43275 0.40372 0.0
Tb481 Tb 0.19567 0.46414 0.44827 0.0
C482 C 0.24618 0.41778 0.35265 0.0
C483 C 0.27157 0.4253 0.33635 0.0
C484 C 0.27492 0.45023 0.32007 0.0
C485 C 0.29895 0.45585 0.30291 0.0
C486 C 0.31981 0.4367 0.30215 0.0
C487 C 0.31661 0.41221 0.31958 0.0
C488 C 0.2927 0.40659 0.33645 0.0
C489 C 0.20977 0.40511 0.45917 0.0
C490 C 0.25928 0.45613 0.46599 0.0
C491 C 0.16548 0.48783 0.49028 0.0
C492 C 0.15214 0.48 0.52253 0.0
C493 C 0.16335 0.48811 0.5541 0.0
C494 C 0.15124 0.48087 0.58497 0.0
C495 C 0.12752 0.46561 0.58488 0.0
C496 C 0.11625 0.45739 0.55337 0.0
C497 C 0.12851 0.46446 0.52238 0.0
C498 C 0.21064 0.49599 0.39261 0.0
C499 C 0.15896 0.41214 0.41885 0.0
O500 O 0.22605 0.43477 0.35053 0.0
O501 O 0.24863 0.40726 0.38323 0.0
O502 O 0.21714 0.42897 0.45795 0.0
O503 O 0.20954 0.39461 0.42867 0.0
O504 O 0.25769 0.44709 0.43319 0.0
O505 O 0.23518 0.46228 0.47967 0.0
O506 O 0.1918 0.48862 0.49156 0.0
O507 O 0.15667 0.47693 0.46181 0.0
O508 O 0.19953 0.4724 0.39179 0.0
O509 O 0.21469 0.49964 0.42504 0.0
O510 O 0.16242 0.43128 0.44302 0.0
O511 O 0.17896 0.41109 0.3958 0.0
H512 H 0.25888 0.46509 0.31987 0.0
H513 H 0.30096 0.47477 0.2895 0.0
H514 H 0.33201 0.39671 0.31869 0.0
H515 H 0.29044 0.38723 0.34881 0.0
H516 H 0.18147 0.50018 0.55494 0.0
H517 H 0.1601 0.48779 0.60893 0.0
H518 H 0.09801 0.44547 0.55274 0.0
H519 H 0.11944 0.45781 0.49843 0.0
Tb520 Tb 0.9878 0.96576 0.15482 0.0
Tb521 Tb 0.95562 0.94002 0.19445 0.0
C522 C 1.00487 0.99512 0.10753 0.0
C523 C 1.03108 1.00785 0.10542 0.0
C524 C 1.04217 1.01338 0.07324 0.0
C525 C 1.06852 1.02277 0.07116 0.0
C526 C 1.08408 1.02638 0.10129 0.0
C527 C 1.0728 1.02088 0.13353 0.0
C528 C 1.04641 1.01167 0.13558 0.0
C529 C 1.0151 0.95531 0.2111 0.0
C530 C 0.9636 1.00271 0.21822 0.0
C531 C 0.93025 0.90846 0.23275 0.0
C532 C 0.93526 0.89563 0.26602 0.0
C533 C 0.96105 0.88616 0.27564 0.0
C534 C 0.9654 0.87586 0.30872 0.0
C535 C 0.94403 0.87509 0.33236 0.0
C536 C 0.91825 0.88425 0.3223 0.0
C537 C 0.91395 0.89449 0.28942 0.0
C538 C 0.92602 0.95412 0.13589 0.0
C539 C 1.01109 0.90629 0.16882 0.0
O540 O 0.9892 1.00381 0.13201 0.0
O541 O 1.00598 0.96909 0.10648 0.0
O542 O 0.9904 0.96084 0.20944 0.0
O543 O 1.02637 0.95862 0.18138 0.0
O544 O 0.97672 1.003 0.18794 0.0
O545 O 0.95449 0.97831 0.22717 0.0
O546 O 0.92768 0.9344 0.23397 0.0
O547 O 0.94506 0.90058 0.20692 0.0
O548 O 0.95048 0.94478 0.13792 0.0
O549 O 0.91923 0.95702 0.16759 0.0
O550 O 0.99007 0.908 0.19078 0.0
O551 O 1.01293 0.92734 0.14752 0.0
H552 H 1.03059 1.01014 0.04983 0.0
H553 H 1.0766 1.02749 0.046 0.0
H554 H 1.08442 1.02355 0.15702 0.0
H555 H 1.0381 1.00719 0.16068 0.0
H556 H 0.97783 0.88707 0.2579 0.0
H557 H 0.98546 0.86899 0.31602 0.0
H558 H 0.90133 0.8834 0.33986 0.0
H559 H 0.894 0.90186 0.28236 0.0
Tb560 Tb 0.45348 0.73154 0.9045 0.0
Tb561 Tb 0.48274 0.70231 0.9448 0.0
C562 C 0.4361 0.74587 0.84691 0.0
C563 C 0.41461 0.73621 0.82426 0.0
C564 C 0.42117 0.72689 0.79135 0.0
C565 C 0.40073 0.72024 0.76816 0.0
C566 C 0.37347 0.72354 0.77738 0.0
C567 C 0.3671 0.73067 0.81142 0.0
C568 C 0.38752 0.73681 0.83475 0.0
C569 C 0.4581 0.75687 0.96225 0.0
C570 C 0.41763 0.70958 0.96626 0.0
C571 C 0.50748 0.67713 0.99136 0.0
C572 C 0.52366 0.68695 0.0206 0.0
C573 C 0.51246 0.68737 0.05371 0.0
C574 C 0.52671 0.69868 0.08103 0.0
C575 C 0.55246 0.70962 0.07572 0.0
C576 C 0.56388 0.70885 0.04278 0.0
C577 C 0.5496 0.69763 0.01541 0.0
C578 C 0.47285 0.67309 0.88444 0.0
C579 C 0.51587 0.75496 0.91348 0.0
O580 O 0.45671 0.72957 0.85087 0.0
O581 O 0.4285 0.757 0.87575 0.0
O582 O 0.47641 0.74358 0.94786 0.0
O583 O 0.43676 0.75866 0.94271 0.0
O584 O 0.41636 0.71874 0.93383 0.0
O585 O 0.44274 0.70237 0.97679 0.0
O586 O 0.4816 0.68239 0.99246 0.0
O587 O 0.51742 0.68149 0.96084 0.0
O588 O 0.45634 0.68709 0.90292 0.0
O589 O 0.49589 0.67794 0.89889 0.0
O590 O 0.5158 0.7355 0.93778 0.0
O591 O 0.49288 0.75538 0.89482 0.0
H592 H 0.44204 0.7258 0.7831 0.0
H593 H 0.40621 0.7144 0.74226 0.0
H594 H 0.34637 0.73373 0.81939 0.0
H595 H 0.38194 0.74334 0.86035 0.0
H596 H 0.49254 0.67927 0.05839 0.0
H597 H 0.5177 0.69859 0.1064 0.0
H598 H 0.58369 0.71721 0.03812 0.0
H599 H 0.55879 0.69773 0.99016 0.0
Tb600 Tb 0.68572 0.19603 0.6537 0.0
Tb601 Tb 0.72065 0.22582 0.69562 0.0
C602 C 0.66771 0.17426 0.60081 0.0
C603 C 0.66608 0.14577 0.59266 0.0
C604 C 0.6862 0.13406 0.57221 0.0
C605 C 0.68688 0.10654 0.56749 0.0
C606 C 0.667 0.09035 0.58237 0.0
C607 C 0.64688 0.10206 0.6029 0.0
C608 C 0.64646 0.12956 0.60811 0.0
C609 C 0.66657 0.20152 0.71509 0.0
C610 C 0.71217 0.16092 0.71604 0.0
C611 C 0.74229 0.25013 0.74406 0.0
C612 C 0.73194 0.26437 0.77378 0.0
C613 C 0.74401 0.25974 0.80589 0.0
C614 C 0.73495 0.27358 0.83455 0.0
C615 C 0.71394 0.29249 0.83123 0.0
C616 C 0.70096 0.29613 0.79932 0.0
C617 C 0.70985 0.28203 0.7707 0.0
C618 C 0.75274 0.21537 0.63823 0.0
C619 C 0.66606 0.25895 0.66327 0.0
O620 O 0.69238 0.18338 0.60338 0.0
O621 O 0.65211 0.1829 0.62553 0.0
O622 O 0.6792 0.21879 0.69804 0.0
O623 O 0.66243 0.18019 0.6966 0.0
O624 O 0.69939 0.15936 0.68537 0.0
O625 O 0.72175 0.18533 0.72446 0.0
O626 O 0.7382 0.22421 0.7446 0.0
O627 O 0.73742 0.26123 0.71391 0.0
O628 O 0.72788 0.20818 0.64391 0.0
O629 O 0.75868 0.22902 0.66515 0.0
O630 O 0.68757 0.25916 0.68534 0.0
O631 O 0.66343 0.23612 0.64522 0.0
H632 H 0.7017 0.14615 0.56026 0.0
H633 H 0.70258 0.09797 0.55153 0.0
H634 H 0.63084 0.09017 0.61392 0.0
H635 H 0.6308 0.13803 0.62423 0.0
H636 H 0.7607 0.24571 0.80866 0.0
H637 H 0.74486 0.27004 0.85914 0.0
H638 H 0.68479 0.31067 0.79611 0.0
H639 H 0.6999 0.28544 0.74614 0.0
H640 H 0.51367 0.3161 0.07814 0.0
H641 H 0.56583 0.2462 0.07738 0.0
H642 H 0.60579 0.27581 0.07824 0.0
H643 H 0.55855 0.35678 0.01997 0.0
H644 H 0.5517 0.3883 0.04075 0.0
H645 H 0.52671 0.36211 0.04132 0.0
H646 H 0.52548 0.36425 0.10758 0.0
H647 H 0.55049 0.39041 0.10714 0.0
H648 H 0.55647 0.36032 0.13187 0.0
H649 H 0.64343 0.31543 0.08261 0.0
H650 H 0.67097 0.35639 0.08346 0.0
H651 H 0.59802 0.40441 0.07503 0.0
C652 C 0.53343 0.30669 0.07838 0.0
C653 C 0.53506 0.27724 0.07843 0.0
C654 C 0.56239 0.26762 0.07779 0.0
C655 C 0.58583 0.28481 0.07829 0.0
C656 C 0.58344 0.3131 0.07851 0.0
C657 C 0.55766 0.32403 0.07783 0.0
C658 C 0.56106 0.35532 0.07625 0.0
C659 C 0.54875 0.36629 0.04259 0.0
C660 C 0.54755 0.36836 0.10756 0.0
C661 C 0.59238 0.36042 0.07708 0.0
C662 C 0.60475 0.33547 0.0787 0.0
C663 C 0.63328 0.33465 0.08099 0.0
C664 C 0.64923 0.35875 0.08158 0.0
C665 C 0.6382 0.38532 0.07924 0.0
C666 C 0.60852 0.38539 0.07668 0.0
H667 H 0.63265 0.79503 0.27681 0.0
H668 H 0.63902 0.77964 0.38644 0.0
H669 H 0.60335 0.81336 0.39682 0.0
H670 H 0.61592 0.8682 0.28153 0.0
H671 H 0.59099 0.86789 0.24743 0.0
H672 H 0.61814 0.84361 0.24772 0.0
H673 H 0.5835 0.80572 0.24487 0.0
H674 H 0.55613 0.82974 0.24501 0.0
H675 H 0.55747 0.80355 0.27706 0.0
H676 H 0.56603 0.85285 0.39703 0.0
H677 H 0.53069 0.88709 0.38685 0.0
H678 H 0.54048 0.87718 0.27679 0.0
C679 C 0.62697 0.79882 0.30324 0.0
C680 C 0.64075 0.78368 0.33091 0.0
C681 C 0.63054 0.79005 0.36433 0.0
C682 C 0.60967 0.80968 0.37061 0.0
C683 C 0.59692 0.82392 0.34342 0.0
C684 C 0.60496 0.81839 0.31007 0.0
C685 C 0.58643 0.83587 0.28556 0.0
C686 C 0.60391 0.85503 0.26427 0.0
C687 C 0.5699 0.81763 0.26169 0.0
C688 C 0.56713 0.85214 0.31005 0.0
C689 C 0.57413 0.84495 0.34344 0.0
C690 C 0.56054 0.85786 0.37075 0.0
C691 C 0.53988 0.87783 0.36458 0.0
C692 C 0.5307 0.88589 0.33106 0.0
C693 C 0.54534 0.87209 0.30325 0.0
H694 H 0.1303 0.88009 0.52606 0.0
H695 H 0.13674 0.89266 0.63615 0.0
H696 H 0.10223 0.85792 0.64551 0.0
H697 H 1.05646 0.86385 0.52247 0.0
H698 H 1.05943 0.83727 0.49139 0.0
H699 H 1.08382 0.86399 0.49199 0.0
H700 H 0.12241 0.82962 0.49828 0.0
H701 H 0.09816 0.80277 0.49762 0.0
H702 H 0.12172 0.80563 0.53304 0.0
H703 H 1.06262 0.82087 0.64418 0.0
H704 H 1.02919 0.78543 0.63307 0.0
H705 H 1.04781 0.78905 0.52427 0.0
C706 C 0.12439 0.87597 0.55233 0.0
C707 C 0.13731 0.89123 0.58038 0.0
C708 C 0.1282 0.88297 0.61368 0.0
C709 C 0.10806 0.86266 0.61937 0.0
C710 C 0.09597 0.84849 0.59182 0.0
C711 C 0.10422 0.85457 0.5587 0.0
C712 C 1.08864 0.83488 0.53395 0.0
C713 C 1.07105 0.85095 0.5084 0.0
C714 C 0.10894 0.81718 0.51454 0.0
C715 C 1.0703 0.81718 0.55795 0.0
C716 C 1.07485 0.82596 0.5913 0.0
C717 C 1.05972 0.81402 0.61799 0.0
C718 C 1.04022 0.79326 0.61127 0.0
C719 C 1.03477 0.78229 0.57789 0.0
C720 C 1.05081 0.79528 0.5507 0.0
H721 H 1.04073 0.38049 0.77373 0.0
H722 H 1.02125 0.38148 0.88235 0.0
H723 H 1.05644 0.34715 0.89307 0.0
H724 H 1.05832 0.30792 0.76707 0.0
H725 H 1.08691 0.31221 0.73904 0.0
H726 H 1.05965 0.33639 0.73847 0.0
H727 H 0.09332 0.37428 0.75087 0.0
H728 H 0.12069 0.35023 0.75111 0.0
H729 H 0.11557 0.37175 0.78773 0.0
H730 H 0.09465 0.30825 0.89294 0.0
H731 H 0.13166 0.27587 0.88316 0.0
H732 H 0.13368 0.29936 0.77572 0.0
C733 C 1.04343 0.37341 0.79991 0.0
C734 C 1.0261 0.38467 0.82704 0.0
C735 C 1.03256 0.37417 0.86047 0.0
C736 C 1.05311 0.35413 0.86696 0.0
C737 C 1.06925 0.34358 0.84021 0.0
C738 C 1.06496 0.35329 0.80716 0.0
C739 C 1.08643 0.33912 0.78349 0.0
C740 C 1.07197 0.32296 0.75532 0.0
C741 C 0.1051 0.3601 0.7673 0.0
C742 C 0.10311 0.31991 0.80796 0.0
C743 C 0.09231 0.3228 0.84059 0.0
C744 C 0.1031 0.30664 0.86737 0.0
C745 C 0.12477 0.2878 0.86144 0.0
C746 C 0.13774 0.28408 0.8289 0.0
C747 C 0.12589 0.30109 0.80161 0.0
H748 H 0.63315 0.87557 0.96389 0.0
H749 H 0.63546 0.89306 0.85461 0.0
H750 H 0.60129 0.85811 0.84427 0.0
H751 H 0.62582 0.80168 0.95261 0.0
H752 H 0.60351 0.79681 0.98861 0.0
H753 H 0.6271 0.82423 0.98878 0.0
H754 H 0.58815 0.85739 -0.00136 0.0
H755 H 0.56429 0.8302 -0.00159 0.0
H756 H 0.55981 0.85802 0.96919 0.0
H757 H 0.56265 0.82029 0.84476 0.0
H758 H 0.53052 0.78352 0.85505 0.0
H759 H 0.55296 0.78328 0.96311 0.0
C760 C 0.62629 0.87254 0.93766 0.0
C761 C 0.6378 0.88918 0.91016 0.0
C762 C 0.6278 0.88228 0.8767 0.0
C763 C 0.6079 0.86187 0.87044 0.0
C764 C 0.5971 0.84636 0.89752 0.0
C765 C 0.60636 0.85115 0.93068 0.0
C766 C 0.59212 0.83021 0.95475 0.0
C767 C 0.61341 0.81215 0.97225 0.0
C768 C 0.57509 0.84482 0.98189 0.0
C769 C 0.57344 0.81323 0.93034 0.0
C770 C 0.57657 0.82344 0.89741 0.0
C771 C 0.56083 0.81229 0.87058 0.0
C772 C 0.54214 0.7908 0.8768 0.0
C773 C 0.53826 0.77848 0.90972 0.0
C774 C 0.55483 0.79068 0.93701 0.0
H775 H 0.54604 0.37797 0.71483 0.0
H776 H 0.53189 0.38584 0.60503 0.0
H777 H 0.56653 0.35109 0.59447 0.0
H778 H 0.62116 0.36794 0.70687 0.0
H779 H 0.62412 0.3442 0.74178 0.0
H780 H 0.59733 0.36889 0.74182 0.0
H781 H 0.56235 0.33125 0.74769 0.0
H782 H 0.58908 0.3065 0.7473 0.0
H783 H 0.56173 0.30457 0.7165 0.0
H784 H 0.60353 0.31114 0.59448 0.0
H785 H 0.63937 0.27736 0.60456 0.0
H786 H 0.63722 0.29479 0.71374 0.0
C787 C 0.54979 0.37232 0.68838 0.0
C788 C 0.53413 0.38569 0.66079 0.0
C789 C 0.54191 0.37693 0.62718 0.0
C790 C 0.56214 0.35665 0.62079 0.0
C791 C 0.57669 0.34411 0.64791 0.0
C792 C 0.57111 0.35202 0.68131 0.0
C793 C 0.59115 0.33595 0.70549 0.0
C794 C 0.60952 0.35541 0.72519 0.0
C795 C 0.57513 0.31854 0.73077 0.0
C796 C 0.60851 0.31781 0.68085 0.0
C797 C 0.59925 0.32281 0.64768 0.0
C798 C 0.61083 0.30792 0.62051 0.0
C799 C 0.63181 0.28826 0.6266 0.0
C800 C 0.64329 0.2825 0.65977 0.0
C801 C 0.63061 0.29818 0.68744 0.0
H802 H 1.04456 0.28892 0.36759 0.0
H803 H 1.03589 0.27552 0.47722 0.0
H804 H 1.06828 0.31202 0.48854 0.0
H805 H 0.11895 0.30325 0.37223 0.0
H806 H 0.11847 0.32844 0.33887 0.0
H807 H 0.09366 0.30209 0.33861 0.0
H808 H 1.0554 0.33729 0.33754 0.0
H809 H 1.08015 0.36369 0.33775 0.0
H810 H 1.05441 0.36274 0.37038 0.0
H811 H 0.10318 0.35465 0.48897 0.0
H812 H 0.13574 0.39108 0.47846 0.0
H813 H 0.12889 0.3771 0.36871 0.0
C814 C 1.04934 0.29337 0.3942 0.0
C815 C 1.03617 0.27762 0.4214 0.0
C816 C 1.04455 0.28568 0.45525 0.0
C817 C 1.0634 0.30709 0.46209 0.0
C818 C 1.0758 0.32171 0.43519 0.0
C819 C 1.06928 0.31473 0.40163 0.0
C820 C 1.08667 0.33306 0.37743 0.0
C821 C 0.10555 0.31568 0.35545 0.0
C822 C 1.06805 0.3502 0.35437 0.0
C823 C 0.10362 0.35148 0.4021 0.0
C824 C 0.09654 0.34468 0.43546 0.0
C825 C 0.10848 0.35944 0.46266 0.0
C826 C 0.12742 0.38081 0.45629 0.0
C827 C 0.13631 0.38868 0.42268 0.0
C828 C 0.12364 0.37281 0.39517 0.0
H829 H 0.13405 0.78954 0.12115 0.0
H830 H 0.15049 0.78482 0.23071 0.0
H831 H 0.1139 0.8176 0.24116 0.0
H832 H 0.12037 0.86369 0.12201 0.0
H833 H 0.09433 0.86283 0.08932 0.0
H834 H 0.12074 0.83775 0.0898 0.0
H835 H 1.08493 0.80054 0.09181 0.0
H836 H 1.05844 0.82553 0.09125 0.0
H837 H 1.05985 0.80095 0.12532 0.0
H838 H 1.07039 0.8523 0.24077 0.0
H839 H 1.03341 0.88471 0.22923 0.0
H840 H 1.04575 0.87481 0.11966 0.0
C841 C 0.13022 0.79523 0.14755 0.0
C842 C 0.14671 0.78285 0.17504 0.0
C843 C 0.13958 0.79263 0.20854 0.0
C844 C 0.11814 0.81176 0.2149 0.0
C845 C 0.1027 0.82326 0.18774 0.0
C846 C 0.10897 0.81562 0.15442 0.0
C847 C 1.09013 0.8325 0.12974 0.0
C848 C 0.10741 0.85024 0.10629 0.0
C849 C 1.07229 0.81376 0.10821 0.0
C850 C 1.07211 0.85033 0.15386 0.0
C851 C 1.07959 0.84418 0.18743 0.0
C852 C 1.06516 0.85694 0.21428 0.0
C853 C 1.04348 0.87581 0.20733 0.0
C854 C 1.03503 0.88387 0.17341 0.0
C855 C 1.05056 0.87033 0.14629 0.0
H856 H 0.30177 0.22901 0.86019 0.0
H857 H 0.24072 0.1926 0.92375 0.0
H858 H 0.27418 0.18799 0.97126 0.0
H859 H 0.3573 0.1826 0.89248 0.0
H860 H 0.38336 0.20756 0.88945 0.0
H861 H 0.35446 0.20903 0.86089 0.0
H862 H 0.34378 0.25724 0.88088 0.0
H863 H 0.37329 0.25514 0.90814 0.0
H864 H 0.34101 0.26402 0.92641 0.0
H865 H 0.31615 0.19111 0.01677 0.0
H866 H 0.3595 0.19419 0.04859 0.0
H867 H 0.39839 0.22227 0.95573 0.0
C868 C 0.29526 0.2197 0.88392 0.0
C869 C 0.2671 0.21135 0.88694 0.0
C870 C 0.26106 0.19935 0.91935 0.0
C871 C 0.28045 0.19672 0.94707 0.0
C872 C 0.30751 0.20526 0.94329 0.0
C873 C 0.31511 0.21577 0.91183 0.0
C874 C 0.34607 0.22161 0.91382 0.0
C875 C 0.3612 0.20417 0.88758 0.0
C876 C 0.35128 0.25134 0.9069 0.0
C877 C 0.35469 0.21383 0.95143 0.0
C878 C 0.33176 0.20471 0.96799 0.0
C879 C 0.33396 0.19771 0.00319 0.0
C880 C 0.35927 0.19956 0.02154 0.0
C881 C 0.38401 0.20773 0.00595 0.0
C882 C 0.38093 0.21507 0.96957 0.0
H883 H 0.6691 0.52159 0.16231 0.0
H884 H 0.74894 0.52488 0.11755 0.0
H885 H 0.75818 0.56617 0.15095 0.0
H886 H 0.6565 0.59439 0.16677 0.0
H887 H 0.63968 0.59354 0.20782 0.0
H888 H 0.6388 0.56468 0.18001 0.0
H889 H 0.65861 0.53529 0.22871 0.0
H890 H 0.65937 0.56399 0.25679 0.0
H891 H 0.68983 0.54491 0.24935 0.0
H892 H 0.75812 0.61169 0.18976 0.0
H893 H 0.75096 0.64924 0.23017 0.0
H894 H 0.67278 0.61684 0.25668 0.0
C895 C 0.68872 0.53076 0.15944 0.0
C896 C 0.7082 0.51856 0.13601 0.0
C897 C 0.73333 0.53245 0.13443 0.0
C898 C 0.73878 0.55652 0.15368 0.0
C899 C 0.71933 0.56777 0.17614 0.0
C900 C 0.69479 0.55491 0.17943 0.0
C901 C 0.67762 0.57074 0.2063 0.0
C902 C 0.6516 0.58146 0.18922 0.0
C903 C 0.67094 0.55265 0.23712 0.0
C904 C 0.69608 0.59438 0.21787 0.0
C905 C 0.71993 0.59244 0.19947 0.0
C906 C 0.73954 0.61256 0.20431 0.0
C907 C 0.73522 0.63436 0.22791 0.0
C908 C 0.71158 0.63715 0.24868 0.0
C909 C 0.69166 0.61612 0.24276 0.0
H910 H 0.36474 0.96662 0.35484 0.0
H911 H 0.42983 0.94244 0.42342 0.0
H912 H 0.39722 0.9403 0.47165 0.0
H913 H 0.32726 1.00803 0.4171 0.0
H914 H 0.29416 0.99821 0.40225 0.0
H915 H 0.32239 0.99761 0.37306 0.0
H916 H 0.31312 0.94794 0.35991 0.0
H917 H 0.28491 0.94838 0.38914 0.0
H918 H 0.31171 0.92415 0.39486 0.0
H919 H 0.3547 0.94098 0.51603 0.0
H920 H 0.31155 0.94429 0.54753 0.0
H921 H 0.27095 0.96793 0.45294 0.0
C922 C 0.37241 0.96081 0.37996 0.0
C923 C 0.40122 0.95474 0.38384 0.0
C924 C 0.40884 0.94729 0.41814 0.0
C925 C 0.38996 0.94601 0.44629 0.0
C926 C 0.36218 0.9521 0.44152 0.0
C927 C 0.35343 0.95932 0.40884 0.0
C928 C 0.32233 0.96483 0.41067 0.0
C929 C 0.31616 0.9939 0.40012 0.0
C930 C 0.30711 0.94517 0.38723 0.0
C931 C 0.31479 0.96001 0.44923 0.0
C932 C 0.33829 0.95255 0.46646 0.0
C933 C 0.33662 0.94694 0.50209 0.0
C934 C 0.31138 0.94898 0.52028 0.0
C935 C 0.28635 0.95674 0.50435 0.0
C936 C 0.28883 0.96218 0.46743 0.0
H937 H 0.95035 0.61418 0.6009 0.0
H938 H 0.9808 0.67562 0.66908 0.0
H939 H 0.98305 0.6424 0.71659 0.0
H940 H 0.90899 0.57879 0.66534 0.0
H941 H 0.91642 0.54573 0.64928 0.0
H942 H 0.9174 0.57419 0.62061 0.0
H943 H 0.96632 0.562 0.6041 0.0
H944 H 0.96553 0.53355 0.63281 0.0
H945 H 0.99163 0.55834 0.63742 0.0
H946 H 0.98197 0.59982 0.7602 0.0
H947 H 0.97764 0.55687 0.79137 0.0
H948 H 0.94781 0.51982 0.69789 0.0
C949 C 0.95756 0.6209 0.62578 0.0
C950 C 0.9654 0.64886 0.62978 0.0
C951 C 0.97458 0.65528 0.66375 0.0
C952 C 0.97593 0.63607 0.6915 0.0
C953 C 0.96813 0.60913 0.68664 0.0
C954 C 0.95911 0.60155 0.6543 0.0
C955 C 0.95193 0.57116 0.65605 0.0
C956 C 0.9219 0.56722 0.64728 0.0
C957 C 0.96991 0.55531 0.6311 0.0
C958 C 0.95796 0.5627 0.69419 0.0
C959 C 0.96742 0.58514 0.71125 0.0
C960 C 0.97444 0.58255 0.74645 0.0
C961 C 0.97181 0.55745 0.76444 0.0
C962 C 0.96203 0.53346 0.74872 0.0
C963 C 0.95515 0.53688 0.71221 0.0
H964 H 0.77319 0.96674 0.03781 0.0
H965 H 0.81214 0.94326 0.94281 0.0
H966 H 0.85585 0.94 0.9737 0.0
H967 H 0.83028 1.00691 0.07217 0.0
H968 H 0.82614 0.99669 0.11639 0.0
H969 H 0.7974 0.99725 0.08755 0.0
H970 H 0.78813 0.94766 0.10138 0.0
H971 H 0.81681 0.94706 0.13031 0.0
H972 H 0.81468 0.92319 0.09568 0.0
H973 H 0.89909 0.93902 0.01742 0.0
H974 H 0.93249 0.94079 0.06546 0.0
H975 H 0.86846 0.96496 0.13442 0.0
C976 C 0.79082 0.96104 0.02311 0.0
C977 C 0.78771 0.95556 0.98631 0.0
C978 C 0.81246 0.94793 0.97004 0.0
C979 C 0.83801 0.94592 0.98785 0.0
C980 C 0.84028 0.95145 0.02338 0.0
C981 C 0.8171 0.9589 0.04093 0.0
C982 C 0.82535 0.96374 0.07931 0.0
C983 C 0.81942 0.99288 0.08947 0.0
C984 C 0.81033 0.94426 0.10308 0.0
C985 C 0.85639 0.95804 0.08063 0.0
C986 C 0.86459 0.95088 0.04793 0.0
C987 C 0.89228 0.94467 0.04284 0.0
C988 C 0.9116 0.94572 0.07081 0.0
C989 C 0.90438 0.95301 0.1051 0.0
C990 C 0.87574 0.95924 0.10924 0.0
H991 H 0.5069 0.64383 0.83563 0.0
H992 H 0.42564 0.64222 0.87631 0.0
H993 H 0.41629 0.60165 0.84161 0.0
H994 H 0.48797 0.62213 0.74701 0.0
H995 H 0.51805 0.60226 0.74047 0.0
H996 H 0.51888 0.63055 0.76924 0.0
H997 H 0.53649 0.59993 0.81804 0.0
H998 H 0.53549 0.57149 0.78951 0.0
H999 H 0.51756 0.57058 0.82977 0.0
H1000 H 0.41618 0.55665 0.80223 0.0
H1001 H 0.4232 0.51936 0.76146 0.0
H1002 H 0.50295 0.54966 0.73858 0.0
C1003 C 0.48696 0.63514 0.83738 0.0
C1004 C 0.46712 0.64762 0.86018 0.0
C1005 C 0.44158 0.63441 0.86012 0.0
C1006 C 0.43605 0.61075 0.84007 0.0
C1007 C 0.45582 0.59922 0.81832 0.0
C1008 C 0.48081 0.61142 0.81649 0.0
C1009 C 0.49822 0.59539 0.78995 0.0
C1010 C 0.50628 0.61367 0.75988 0.0
C1011 C 0.52345 0.58367 0.80787 0.0
C1012 C 0.47939 0.57243 0.77697 0.0
C1013 C 0.45514 0.57488 0.79441 0.0
C1014 C 0.43508 0.5554 0.7884 0.0
C1015 C 0.43932 0.53374 0.76459 0.0
C1016 C 0.46333 0.53043 0.74464 0.0
C1017 C 0.48376 0.55081 0.75175 0.0
H1018 H 0.81069 0.21952 0.63604 0.0
H1019 H 0.74376 0.20237 0.56739 0.0
H1020 H 0.77605 0.19952 0.5186 0.0
H1021 H 0.85162 0.25887 0.57627 0.0
H1022 H 0.88366 0.24538 0.59062 0.0
H1023 H 0.85541 0.24655 0.61974 0.0
H1024 H 0.86002 0.19586 0.63054 0.0
H1025 H 0.88838 0.19455 0.60159 0.0
H1026 H 0.85963 0.17317 0.59449 0.0
H1027 H 0.81855 0.20152 0.47335 0.0
H1028 H 0.86202 0.20248 0.44212 0.0
H1029 H 0.90438 0.21368 0.5389 0.0
C1030 C 0.80255 0.21495 0.6108 0.0
C1031 C 0.77341 0.21123 0.60702 0.0
C1032 C 0.76507 0.20528 0.57261 0.0
C1033 C 0.78375 0.20374 0.54416 0.0
C1034 C 0.81194 0.20764 0.54894 0.0
C1035 C 0.82128 0.21268 0.58192 0.0
C1036 C 0.85271 0.21516 0.58055 0.0
C1037 C 0.86137 0.24315 0.59252 0.0
C1038 C 0.86598 0.1934 0.60315 0.0
C1039 C 0.85992 0.21087 0.54185 0.0
C1040 C 0.83586 0.20703 0.52402 0.0
C1041 C 0.8371 0.20406 0.48787 0.0
C1042 C 0.8625 0.20464 0.46987 0.0
C1043 C 0.88815 0.20749 0.48666 0.0
C1044 C 0.88608 0.21074 0.52398 0.0
H1045 H 0.19275 0.50881 0.31821 0.0
H1046 H 0.2325 0.54411 0.40711 0.0
H1047 H 0.23701 0.58622 0.37595 0.0
H1048 H 0.23449 0.54506 0.25248 0.0
H1049 H 0.20724 0.55131 0.2224 0.0
H1050 H 0.20605 0.52266 0.25079 0.0
H1051 H 0.15987 0.53848 0.27335 0.0
H1052 H 0.16092 0.56726 0.24518 0.0
H1053 H 0.15645 0.57171 0.29088 0.0
H1054 H 0.23807 0.62753 0.33584 0.0
H1055 H 0.2363 0.66216 0.29084 0.0
H1056 H 0.19693 0.60611 0.22193 0.0
C1057 C 0.2025 0.52524 0.33136 0.0
C1058 C 0.21211 0.52138 0.36688 0.0
C1059 C 0.22457 0.54477 0.38105 0.0
C1060 C 0.22737 0.56956 0.36312 0.0
C1061 C 0.21792 0.57266 0.32923 0.0
C1062 C 0.20572 0.55113 0.31311 0.0
C1063 C 0.19769 0.56099 0.27593 0.0
C1064 C 0.21222 0.54397 0.24877 0.0
C1065 C 0.1669 0.55951 0.27102 0.0
C1066 C 0.2074 0.59087 0.27394 0.0
C1067 C 0.21889 0.59681 0.30552 0.0
C1068 C 0.2292 0.62265 0.31109 0.0
C1069 C 0.22812 0.64268 0.28466 0.0
C1070 C 0.21691 0.63832 0.25113 0.0
C1071 C 0.20617 0.61125 0.24635 0.0
H1072 H 0.80789 0.72367 0.3551 0.0
H1073 H 0.74183 0.70693 0.42399 0.0
H1074 H 0.77456 0.70292 0.47256 0.0
H1075 H 0.85832 0.67829 0.39598 0.0
H1076 H 0.8865 0.70047 0.38963 0.0
H1077 H 0.85794 0.7017 0.36054 0.0
H1078 H 0.85219 0.75207 0.37264 0.0
H1079 H 0.88068 0.75093 0.40187 0.0
H1080 H 0.84844 0.76339 0.41642 0.0
H1081 H 0.81769 0.70272 0.51766 0.0
H1082 H 0.86148 0.70338 0.54894 0.0
H1083 H 0.90248 0.71871 0.45273 0.0
C1084 C 0.80002 0.71891 0.38033 0.0
C1085 C 0.7709 0.71497 0.38406 0.0
C1086 C 0.76305 0.70918 0.4186 0.0
C1087 C 0.78203 0.70722 0.447 0.0
C1088 C 0.81016 0.71104 0.44224 0.0
C1089 C 0.81909 0.71667 0.40931 0.0
C1090 C 0.85049 0.71981 0.41096 0.0
C1091 C 0.86413 0.69882 0.38789 0.0
C1092 C 0.85843 0.74823 0.39979 0.0
C1093 C 0.85811 0.71494 0.4496 0.0
C1094 C 0.83432 0.71025 0.46725 0.0
C1095 C 0.83603 0.70613 0.50328 0.0
C1096 C 0.86162 0.70653 0.52133 0.0
C1097 C 0.88702 0.71059 0.50472 0.0
C1098 C 0.88442 0.71497 0.46755 0.0
H1099 H 0.18991 0.10689 0.77337 0.0
H1100 H 0.23092 0.16518 0.70965 0.0
H1101 H 0.23455 0.13178 0.66342 0.0
H1102 H 0.22929 1.04734 0.74351 0.0
H1103 H 0.20108 1.02465 0.74294 0.0
H1104 H 0.20114 1.05279 0.77199 0.0
H1105 H 0.15544 1.06877 0.74687 0.0
H1106 H 0.1553 1.04056 0.71794 0.0
H1107 H 0.15211 1.0741 0.70107 0.0
H1108 H 0.23463 0.09098 0.62096 0.0
H1109 H 0.23099 1.04923 0.58831 0.0
H1110 H 0.18978 1.01218 0.67432 0.0
C1111 C 0.1999 0.11281 0.74986 0.0
C1112 C 0.21044 0.14011 0.74699 0.0
C1113 C 0.22277 0.14546 0.71446 0.0
C1114 C 0.22492 0.12614 0.6873 0.0
C1115 C 0.2147 0.10002 0.69106 0.0
C1116 C 0.2023 0.09319 0.72165 0.0
C1117 C 0.19301 1.0633 0.71809 0.0
C1118 C 0.20694 1.04598 0.7458 0.0
C1119 C 0.16212 1.06157 0.72121 0.0
C1120 C 0.20218 1.05444 0.68117 0.0
C1121 C 0.21462 1.07639 0.6664 0.0
C1122 C 0.22485 1.074 0.63283 0.0
C1123 C 0.22259 1.04951 0.614 0.0
C1124 C 0.21008 1.02582 0.62703 0.0
C1125 C 0.19965 1.02895 0.66209 0.0
H1126 H 0.81152 0.43867 0.02024 0.0
H1127 H 0.75199 0.48068 0.95766 0.0
H1128 H 0.7849 0.48312 0.91027 0.0
H1129 H 0.87194 0.4753 0.9881 0.0
H1130 H 0.89413 0.44656 0.98722 0.0
H1131 H 0.86633 0.44764 0.01708 0.0
H1132 H 0.84857 0.40301 0.99301 0.0
H1133 H 0.87641 0.40182 0.96323 0.0
H1134 H 0.84212 0.39991 0.94743 0.0
H1135 H 0.8259 0.4819 0.86639 0.0
H1136 H 0.86745 0.47678 0.83288 0.0
H1137 H 0.90528 0.43493 0.91871 0.0
C1138 C 0.8052 0.44865 0.99674 0.0
C1139 C 0.7777 0.45988 0.99462 0.0
C1140 C 0.77187 0.47206 0.96198 0.0
C1141 C 0.79093 0.47352 0.93416 0.0
C1142 C 0.81728 0.46264 0.93724 0.0
C1143 C 0.82451 0.45026 0.96787 0.0
C1144 C 0.85443 0.43999 0.96359 0.0
C1145 C 0.87281 0.45314 0.99062 0.0
C1146 C 0.85545 0.40935 0.96705 0.0
C1147 C 0.86297 0.44867 0.92629 0.0
C1148 C 0.84079 0.46169 0.91188 0.0
C1149 C 0.84299 0.47164 0.87806 0.0
C1150 C 0.86741 0.46851 0.8587 0.0
C1151 C 0.89132 0.45532 0.87129 0.0
C1152 C 0.88838 0.44521 0.90664 0.0
H1153 H 0.46746 1.0187 0.20317 0.0
H1154 H 0.45362 1.05933 0.29992 0.0
H1155 H 0.45211 0.10273 0.26905 0.0
H1156 H 0.51181 1.07056 0.16739 0.0
H1157 H 0.49987 1.06895 0.12345 0.0
H1158 H 0.49823 1.03974 0.15056 0.0
H1159 H 0.44762 1.03479 0.14087 0.0
H1160 H 0.44838 1.06306 0.1119 0.0
H1161 H 0.42543 1.06302 0.1478 0.0
H1162 H 0.45009 0.14522 0.22429 0.0
H1163 H 0.4524 0.17765 0.17554 0.0
H1164 H 0.47112 0.11211 0.10686 0.0
C1165 C 0.46383 1.0366 0.21813 0.0
C1166 C 0.46008 1.03415 0.25527 0.0
C1167 C 0.45625 1.05924 0.27225 0.0
C1168 C 0.45535 1.08456 0.25449 0.0
C1169 C 0.45883 0.08618 0.21847 0.0
C1170 C 0.46345 1.06264 0.20051 0.0
C1171 C 0.46768 1.07019 0.16193 0.0
C1172 C 0.49611 1.06187 0.15017 0.0
C1173 C 0.44599 1.05696 0.13928 0.0
C1174 C 0.4645 0.10119 0.16086 0.0
C1175 C 0.45907 0.11009 0.19379 0.0
C1176 C 0.45455 0.13789 0.19872 0.0
C1177 C 0.45577 0.15661 0.17035 0.0
C1178 C 0.4619 0.14858 0.13599 0.0
C1179 C 0.46633 0.11991 0.1321 0.0
H1180 H 0.27276 0.4683 0.53888 0.0
H1181 H 0.31131 0.4419 0.4449 0.0
H1182 H 0.35503 0.43898 0.47588 0.0
H1183 H 0.33034 0.50873 0.57144 0.0
H1184 H 0.32613 0.49974 0.61608 0.0
H1185 H 0.29737 0.49986 0.58727 0.0
H1186 H 0.28756 0.45077 0.60328 0.0
H1187 H 0.31627 0.4506 0.63218 0.0
H1188 H 0.31382 0.42587 0.5986 0.0
H1189 H 0.39817 0.43864 0.51947 0.0
H1190 H 0.4317 0.4413 0.56716 0.0
H1191 H 0.36829 0.46807 0.63549 0.0
C1192 C 0.29031 0.46201 0.52443 0.0
C1193 C 0.28709 0.45558 0.48789 0.0
C1194 C 0.31172 0.44727 0.4719 0.0
C1195 C 0.33727 0.44546 0.48977 0.0
C1196 C 0.33963 0.4519 0.52506 0.0
C1197 C 0.31658 0.46007 0.54231 0.0
C1198 C 0.32494 0.46584 0.58047 0.0
C1199 C 0.31934 0.49529 0.58935 0.0
C1200 C 0.30972 0.44717 0.60509 0.0
C1201 C 0.35592 0.45984 0.58202 0.0
C1202 C 0.36394 0.45172 0.5496 0.0
C1203 C 0.3915 0.44505 0.54465 0.0
C1204 C 0.41089 0.44663 0.57245 0.0
C1205 C 0.40394 0.45494 0.60646 0.0
C1206 C 0.37538 0.46161 0.61052 0.0
H1207 H 0.98595 0.15558 0.31547 0.0
H1208 H 0.93759 0.12212 0.39784 0.0
H1209 H 0.93366 1.08023 0.36603 0.0
H1210 H 0.94836 0.12128 0.24362 0.0
H1211 H 0.97773 0.11394 0.21796 0.0
H1212 H 0.97768 0.14248 0.24638 0.0
H1213 H 1.02091 0.1248 0.27587 0.0
H1214 H 1.0211 0.09607 0.24778 0.0
H1215 H 1.02145 0.09149 0.29387 0.0
H1216 H 0.93411 1.03902 0.32573 0.0
H1217 H 0.93821 1.00439 0.28122 0.0
H1218 H 0.98568 1.05876 0.21905 0.0
C1219 C 0.97435 0.13962 0.32696 0.0
C1220 C 0.96207 0.14382 0.36083 0.0
C1221 C 0.94748 0.12106 0.37307 0.0
C1222 C 0.94502 0.09647 0.35474 0.0
C1223 C 0.95707 0.09298 0.32244 0.0
C1224 C 0.97149 0.11396 0.3083 0.0
C1225 C 0.98222 0.10382 0.2726 0.0
C1226 C 0.97084 0.12144 0.2434 0.0
C1227 C 1.01327 0.10407 0.27251 0.0
C1228 C 0.97149 1.07437 0.26911 0.0
C1229 C 0.9571 1.06891 0.29869 0.0
C1230 C 0.94527 1.04353 0.30255 0.0
C1231 C 0.94775 1.02348 0.27642 0.0
C1232 C 0.96198 1.02736 0.24488 0.0
C1233 C 0.97421 1.05397 0.24187 0.0
H1234 H 0.31367 0.70195 0.14167 0.0
H1235 H 0.24793 0.72481 0.07336 0.0
H1236 H 0.28019 0.7263 0.02469 0.0
H1237 H 0.36627 0.74397 0.09975 0.0
H1238 H 0.39326 0.71996 0.10569 0.0
H1239 H 0.36528 0.7207 0.13529 0.0
H1240 H 0.35617 0.67084 0.12355 0.0
H1241 H 0.38415 0.6699 0.09398 0.0
H1242 H 0.35098 0.65971 0.07987 0.0
H1243 H 0.32213 0.72518 0.97991 0.0
H1244 H 0.3647 0.72188 0.94762 0.0
H1245 H 0.40699 0.69969 0.04166 0.0
C1246 C 0.30578 0.70734 0.11652 0.0
C1247 C 0.27685 0.71326 0.11293 0.0
C1248 C 0.26898 0.72012 0.07852 0.0
C1249 C 0.28766 0.72101 0.05009 0.0
C1250 C 0.31553 0.71509 0.05461 0.0
C1251 C 0.32458 0.70842 0.08732 0.0
C1252 C 0.35576 0.70302 0.08508 0.0
C1253 C 0.37106 0.72309 0.10782 0.0
C1254 C 0.36216 0.67415 0.09631 0.0
C1255 C 0.36301 0.70727 0.04621 0.0
C1256 C 0.33923 0.71437 0.02932 0.0
C1257 C 0.34043 0.71951 0.9936 0.0
C1258 C 0.36542 0.71747 0.97493 0.0
C1259 C 0.39085 0.71011 0.99026 0.0
C1260 C 0.38887 0.70505 0.02743 0.0
H1261 H 0.69116 0.10442 0.71788 0.0
H1262 H 0.73622 0.16043 0.78082 0.0
H1263 H 0.73953 0.12656 0.82681 0.0
H1264 H 0.65388 1.07268 0.79127 0.0
H1265 H 0.65512 1.03915 0.77428 0.0
H1266 H 0.6557 1.0675 0.74538 0.0
H1267 H 0.69998 1.04977 0.71893 0.0
H1268 H 0.69947 1.02146 0.74792 0.0
H1269 H 0.72863 1.04292 0.74662 0.0
H1270 H 0.73893 1.08546 0.86912 0.0
H1271 H 0.73436 1.04385 0.90182 0.0
H1272 H 0.68944 1.00885 0.81694 0.0
C1273 C 0.702 0.10975 0.74114 0.0
C1274 C 0.7138 0.13661 0.74377 0.0
C1275 C 0.72711 0.14112 0.77608 0.0
C1276 C 0.72909 0.1215 0.80313 0.0
C1277 C 0.71769 0.09584 0.79956 0.0
C1278 C 0.70425 0.08978 0.76927 0.0
C1279 C 0.69378 1.06023 0.77306 0.0
C1280 C 0.66277 1.05986 0.77083 0.0
C1281 C 0.70618 1.04253 0.74494 0.0
C1282 C 0.70355 1.05063 0.80971 0.0
C1283 C 0.71724 1.072 0.82417 0.0
C1284 C 0.72818 1.06896 0.85745 0.0
C1285 C 0.72536 1.04449 0.87632 0.0
C1286 C 0.71155 1.0213 0.86374 0.0
C1287 C 0.70043 1.02508 0.82886 0.0
H1288 H 0.57335 0.16881 0.87376 0.0
H1289 H 0.57213 0.25389 0.89667 0.0
H1290 H 0.60487 0.26173 0.84979 0.0
H1291 H 0.64347 0.16318 0.85067 0.0
H1292 H 0.63703 0.1399 0.8162 0.0
H1293 H 0.61509 0.14076 0.85307 0.0
H1294 H 0.57352 0.14861 0.81318 0.0
H1295 H 0.59521 0.14744 0.77616 0.0
H1296 H 0.57367 0.17615 0.78305 0.0
H1297 H 0.6362 0.26021 0.79933 0.0
H1298 H 0.66195 0.24993 0.74668 0.0
H1299 H 0.64065 0.1661 0.75617 0.0
C1300 C 0.57976 0.18916 0.8688 0.0
C1301 C 0.57019 0.2108 0.88862 0.0
C1302 C 0.57947 0.23704 0.88185 0.0
C1303 C 0.59797 0.24166 0.85534 0.0
C1304 C 0.60681 0.21981 0.83613 0.0
C1305 C 0.59789 0.19412 0.84244 0.0
C1306 C 0.60928 0.17424 0.8171 0.0
C1307 C 0.62729 0.15329 0.83536 0.0
C1308 C 0.58657 0.16084 0.79613 0.0
C1309 C 0.62576 0.19285 0.79509 0.0
C1310 C 0.62438 0.21898 0.80673 0.0
C1311 C 0.63752 0.23983 0.79004 0.0
C1312 C 0.65211 0.2338 0.76028 0.0
C1313 C 0.65308 0.20727 0.7476 0.0
C1314 C 0.64008 0.18654 0.76544 0.0
H1315 H 0.71429 0.78272 0.0854 0.0
H1316 H 0.68059 0.83684 0.16132 0.0
H1317 H 0.67403 0.87132 0.11633 0.0
H1318 H 0.75196 0.82947 0.04225 0.0
H1319 H 0.74647 0.81635 -0.00042 0.0
H1320 H 0.7448 0.79442 0.03632 0.0
H1321 H 0.6966 0.78 0.0182 0.0
H1322 H 0.69775 0.80199 0.98131 0.0
H1323 H 0.67065 0.80504 0.01191 0.0
H1324 H 0.6788 0.90194 0.06658 0.0
H1325 H 0.68982 0.92556 0.01253 0.0
H1326 H 0.71771 0.85103 0.96768 0.0
C1327 C 0.70479 0.80157 0.0922 0.0
C1328 C 0.69764 0.80718 0.12652 0.0
C1329 C 0.68564 0.83209 0.1349 0.0
C1330 C 0.68199 0.8518 0.10963 0.0
C1331 C 0.69006 0.84596 0.07618 0.0
C1332 C 0.70075 0.82132 0.06722 0.0
C1333 C 0.70948 0.82084 0.02996 0.0
C1334 C 0.73998 0.81493 0.02688 0.0
C1335 C 0.69261 0.80078 0.0091 0.0
C1336 C 0.70287 0.84933 0.01973 0.0
C1337 C 0.69175 0.8635 0.04682 0.0
C1338 C 0.68675 0.89091 0.04486 0.0
C1339 C 0.69323 0.90415 0.01429 0.0
C1340 C 0.70418 0.88982 0.98622 0.0
C1341 C 0.70872 0.86211 0.9887 0.0
H1342 H 1.06817 0.9636 0.2266 0.0
H1343 H 0.99273 0.93443 0.26821 0.0
H1344 H 1.01533 0.92458 0.32374 0.0
H1345 H 0.11556 0.91976 0.27559 0.0
H1346 H 0.13906 0.94667 0.28276 0.0
H1347 H 0.11845 0.94632 0.24428 0.0
H1348 H 0.10013 0.99377 0.2589 0.0
H1349 H 0.12072 0.99422 0.29724 0.0
H1350 H 1.08472 0.99948 0.30024 0.0
H1351 H 1.0447 0.92137 0.37539 0.0
H1352 H 1.07734 0.93067 0.4224 0.0
H1353 H 0.13226 0.96599 0.34877 0.0
C1354 C 1.05672 0.95452 0.24724 0.0
C1355 C 1.02905 0.94906 0.24331 0.0
C1356 C 1.01418 0.93817 0.27093 0.0
C1357 C 1.02683 0.93243 0.30237 0.0
C1358 C 1.05419 0.93824 0.30571 0.0
C1359 C 1.06887 0.94948 0.27913 0.0
C1360 C 0.09672 0.95771 0.29103 0.0
C1361 C 0.11875 0.94165 0.2723 0.0
C1362 C 0.10079 0.98809 0.2866 0.0
C1363 C 0.09517 0.94986 0.32855 0.0
C1364 C 1.07076 0.93798 0.33628 0.0
C1365 C 1.06405 0.93031 0.36967 0.0
C1366 C 1.08261 0.93556 0.39607 0.0
C1367 C 0.10707 0.9488 0.38869 0.0
C1368 C 0.11369 0.95556 0.3546 0.0
H1369 H 0.96558 0.31337 0.4713 0.0
H1370 H 0.96946 0.23454 0.51835 0.0
H1371 H 0.97559 0.25467 0.57526 0.0
H1372 H 1.01329 0.34713 0.53287 0.0
H1373 H 0.99325 0.3774 0.53359 0.0
H1374 H 0.99397 0.35698 0.49534 0.0
H1375 H 0.94159 0.35375 0.49647 0.0
H1376 H 0.94082 0.37412 0.5346 0.0
H1377 H 0.92527 0.34155 0.53481 0.0
H1378 H 0.97608 0.28174 0.62669 0.0
H1379 H 0.96771 0.31537 0.67175 0.0
H1380 H 0.96197 0.37761 0.59386 0.0
C1381 C 0.9683 0.30053 0.4936 0.0
C1382 C 0.96748 0.27245 0.49057 0.0
C1383 C 0.97046 0.25611 0.5202 0.0
C1384 C 0.97406 0.26733 0.55264 0.0
C1385 C 0.97454 0.29502 0.55505 0.0
C1386 C 0.97157 0.31153 0.52655 0.0
C1387 C 0.96962 0.34062 0.53726 0.0
C1388 C 0.99399 0.35647 0.52397 0.0
C1389 C 0.94272 0.35324 0.52508 0.0
C1390 C 0.97073 0.33757 0.57613 0.0
C1391 C 0.97424 0.31108 0.58561 0.0
C1392 C 0.97382 0.30264 0.61979 0.0
C1393 C 0.969 0.32177 0.64511 0.0
C1394 C 0.96447 0.34882 0.63595 0.0
C1395 C 0.96602 0.35703 0.60124 0.0
H1396 H 0.57445 0.97893 0.10068 0.0
H1397 H 0.64102 0.92668 0.13123 0.0
H1398 H 0.61908 0.9189 0.18724 0.0
H1399 H 0.56525 1.00925 0.17926 0.0
H1400 H 0.5289 1.01055 0.1788 0.0
H1401 H 0.54718 1.01096 0.13878 0.0
H1402 H 0.52228 0.96937 0.11619 0.0
H1403 H 0.50213 0.96935 0.15473 0.0
H1404 H 0.52063 0.93966 0.14257 0.0
H1405 H 0.59301 0.92108 0.24166 0.0
H1406 H 0.56209 0.93003 0.29006 0.0
H1407 H 0.51031 0.97726 0.22246 0.0
C1408 C 0.58407 0.96523 0.1187 0.0
C1409 C 0.60948 0.95345 0.11162 0.0
C1410 C 0.62174 0.93623 0.13632 0.0
C1411 C 0.60935 0.93151 0.16806 0.0
C1412 C 0.58456 0.94381 0.1744 0.0
C1413 C 0.57183 0.96 0.15028 0.0
C1414 C 0.54576 0.97165 0.16413 0.0
C1415 C 0.54686 1.00243 0.16525 0.0
C1416 C 0.52125 0.96191 0.14316 0.0
C1417 C 0.54608 0.95982 0.20002 0.0
C1418 C 0.56874 0.94396 0.20546 0.0
C1419 C 0.57487 0.93292 0.23755 0.0
C1420 C 0.55733 0.93821 0.26485 0.0
C1421 C 0.53382 0.95399 0.25961 0.0
C1422 C 0.52795 0.96468 0.22677 0.0
H1423 H 0.42227 0.35026 0.8692 0.0
H1424 H 0.50543 0.33808 0.83714 0.0
H1425 H 0.51268 0.30716 0.88632 0.0
H1426 H 0.43658 0.352 0.96015 0.0
H1427 H 0.40552 0.3354 0.97115 0.0
H1428 H 0.40709 0.35587 0.93297 0.0
H1429 H 0.39074 0.31588 0.89628 0.0
H1430 H 0.38951 0.2952 0.93429 0.0
H1431 H 0.40944 0.28481 0.89769 0.0
H1432 H 0.51047 0.27791 0.93908 0.0
H1433 H 0.49964 0.25394 0.99301 0.0
H1434 H 0.4184 0.28717 0.99031 0.0
C1435 C 0.44219 0.34153 0.87276 0.0
C1436 C 0.46335 0.34663 0.84956 0.0
C1437 C 0.48889 0.33418 0.85456 0.0
C1438 C 0.49321 0.31674 0.88241 0.0
C1439 C 0.47183 0.31229 0.90486 0.0
C1440 C 0.44694 0.32454 0.90046 0.0
C1441 C 0.42736 0.31691 0.92834 0.0
C1442 C 0.41865 0.34152 0.9494 0.0
C1443 C 0.4028 0.30231 0.91322 0.0
C1444 C 0.44506 0.29827 0.94921 0.0
C1445 C 0.47062 0.29576 0.93524 0.0
C1446 C 0.49056 0.27973 0.95028 0.0
C1447 C 0.48421 0.26619 0.98074 0.0
C1448 C 0.45824 0.26895 0.99554 0.0
C1449 C 0.43841 0.28491 0.97944 0.0
H1450 H 0.1123 0.18911 0.75371 0.0
H1451 H 0.18438 0.23197 0.72448 0.0
H1452 H 0.16599 0.23836 0.6654 0.0
H1453 H 0.09993 0.1548 0.67813 0.0
H1454 H 1.06373 0.15937 0.67836 0.0
H1455 H 1.08236 0.15938 0.71829 0.0
H1456 H 1.06254 0.20616 0.73314 0.0
H1457 H 1.04373 0.20625 0.69319 0.0
H1458 H 1.06633 0.23341 0.70303 0.0
H1459 H 0.14184 0.23535 0.60896 0.0
H1460 H 0.11124 0.22712 0.55935 0.0
H1461 H 1.0536 0.18971 0.62795 0.0
C1462 C 0.12401 0.19993 0.73478 0.0
C1463 C 0.14982 0.2097 0.74263 0.0
C1464 C 0.16465 0.22423 0.71801 0.0
C1465 C 0.15436 0.22801 0.68477 0.0
C1466 C 0.12883 0.21789 0.67748 0.0
C1467 C 0.11359 0.20471 0.70198 0.0
C1468 C 1.08664 0.19612 0.68773 0.0
C1469 C 1.08298 0.16561 0.69079 0.0
C1470 C 1.06344 0.2114 0.70532 0.0
C1471 C 1.08985 0.20497 0.65083 0.0
C1472 C 0.1142 0.2177 0.64544 0.0
C1473 C 0.12241 0.22598 0.61286 0.0
C1474 C 0.10509 0.22112 0.58497 0.0
C1475 C 1.08008 0.20822 0.59023 0.0
C1476 C 1.07234 0.20029 0.62353 0.0
H1477 H 0.23223 0.90899 0.47716 0.0
H1478 H 0.18595 0.85741 0.54454 0.0
H1479 H 0.1798 0.82518 0.49685 0.0
H1480 H 0.19536 0.89557 0.39722 0.0
H1481 H 0.22555 0.89541 0.37141 0.0
H1482 H 0.22392 0.91574 0.40964 0.0
H1483 H 0.26731 0.8928 0.43318 0.0
H1484 H 0.26915 0.87236 0.39517 0.0
H1485 H 0.26852 0.85682 0.43714 0.0
H1486 H 0.17988 0.79833 0.4429 0.0
H1487 H 0.18883 0.77662 0.38711 0.0
H1488 H 0.23836 0.84424 0.35693 0.0
C1489 C 0.22064 0.89098 0.48167 0.0
C1490 C 0.20948 0.88545 0.5142 0.0
C1491 C 0.19473 0.86169 0.51963 0.0
C1492 C 0.19098 0.84347 0.49273 0.0
C1493 C 0.20247 0.84932 0.46093 0.0
C1494 C 0.21723 0.87235 0.45535 0.0
C1495 C 0.2293 0.87282 0.41967 0.0
C1496 C 0.21783 0.89628 0.39823 0.0
C1497 C 0.26041 0.87374 0.42142 0.0
C1498 C 0.21931 0.84623 0.4063 0.0
C1499 C 0.2035 0.83324 0.43023 0.0
C1500 C 0.19225 0.80824 0.42388 0.0
C1501 C 0.19759 0.79601 0.39224 0.0
C1502 C 0.21429 0.8087 0.36764 0.0
C1503 C 0.22509 0.83422 0.37485 0.0
H1504 H 0.10736 0.70264 0.40257 0.0
H1505 H 1.03484 0.7419 0.36358 0.0
H1506 H 1.05754 0.75049 0.30833 0.0
H1507 H 0.15697 0.74692 0.35425 0.0
H1508 H 0.17954 0.71906 0.34706 0.0
H1509 H 0.15946 0.72035 0.38568 0.0
H1510 H 0.13983 0.67361 0.37117 0.0
H1511 H 0.15952 0.67239 0.33242 0.0
H1512 H 0.12333 0.66856 0.33014 0.0
H1513 H 1.08371 0.74708 0.25544 0.0
H1514 H 0.11428 0.7357 0.20782 0.0
H1515 H 0.17165 0.70105 0.28063 0.0
C1516 C 0.09675 0.714 0.38283 0.0
C1517 C 1.06947 0.72169 0.38707 0.0
C1518 C 1.05576 0.73582 0.36053 0.0
C1519 C 1.06851 0.7409 0.32923 0.0
C1520 C 0.09504 0.73207 0.32522 0.0
C1521 C 0.10927 0.71935 0.35139 0.0
C1522 C 0.13672 0.70981 0.33911 0.0
C1523 C 0.15953 0.72494 0.35763 0.0
C1524 C 0.14001 0.67929 0.34347 0.0
C1525 C 0.1349 0.71774 0.30148 0.0
C1526 C 0.11078 0.73082 0.29425 0.0
C1527 C 0.103 0.73756 0.26082 0.0
C1528 C 0.12036 0.7308 0.23397 0.0
C1529 C 0.14529 0.71782 0.24081 0.0
C1530 C 0.15285 0.71147 0.27497 0.0
H1531 H 0.22592 0.29095 0.59726 0.0
H1532 H 0.19409 0.34731 0.67208 0.0
H1533 H 0.18331 0.37905 0.62524 0.0
H1534 H 0.25741 0.33604 0.5454 0.0
H1535 H 0.24916 0.3204 0.5049 0.0
H1536 H 0.25133 0.30051 0.5435 0.0
H1537 H 0.20245 0.28349 0.53345 0.0
H1538 H 0.2002 0.30319 0.49452 0.0
H1539 H 0.17526 0.30735 0.52778 0.0
H1540 H 0.18277 0.40682 0.57281 0.0
H1541 H 0.18937 0.42808 0.51608 0.0
H1542 H 0.21758 0.35254 0.47437 0.0
C1543 C 0.21584 0.30956 0.60371 0.0
C1544 C 0.211 0.31678 0.63824 0.0
C1545 C 0.1984 0.34161 0.64576 0.0
C1546 C 0.19193 0.35963 0.61937 0.0
C1547 C 0.19763 0.35217 0.58569 0.0
C1548 C 0.20887 0.32759 0.57766 0.0
C1549 C 0.21462 0.32529 0.53957 0.0
C1550 C 0.24492 0.32028 0.53299 0.0
C1551 C 0.19708 0.30353 0.52285 0.0
C1552 C 0.20594 0.35284 0.52778 0.0
C1553 C 0.19608 0.36798 0.5548 0.0
C1554 C 0.18967 0.395 0.55121 0.0
C1555 C 0.19362 0.40688 0.51909 0.0
C1556 C 0.20356 0.3916 0.49126 0.0
C1557 C 0.20927 0.36423 0.4953 0.0
H1558 H 0.51127 0.4695 0.77222 0.0
H1559 H 0.57174 0.44154 0.69993 0.0
H1560 H 0.60529 0.43832 0.74713 0.0
H1561 H 0.55425 0.51119 0.8192 0.0
H1562 H 0.53954 0.50437 0.86067 0.0
H1563 H 0.51927 0.50155 0.82221 0.0
H1564 H 0.50743 0.45258 0.83825 0.0
H1565 H 0.52757 0.4553 0.87695 0.0
H1566 H 0.53428 0.42882 0.84666 0.0
H1567 H 0.633 0.44211 0.79991 0.0
H1568 H 0.65355 0.45194 0.85666 0.0
H1569 H 0.57529 0.47762 0.89472 0.0
C1570 C 0.53148 0.46233 0.76656 0.0
C1571 C 0.53917 0.45586 0.73269 0.0
C1572 C 0.56572 0.44678 0.72586 0.0
C1573 C 0.58479 0.44473 0.75243 0.0
C1574 C 0.57683 0.45182 0.7855 0.0
C1575 C 0.55082 0.46034 0.79277 0.0
C1576 C 0.5481 0.46847 0.8301 0.0
C1577 C 0.53981 0.49815 0.8332 0.0
C1578 C 0.52816 0.45019 0.8491 0.0
C1579 C 0.57682 0.46375 0.84235 0.0
C1580 C 0.59297 0.45394 0.81628 0.0
C1581 C 0.62057 0.44942 0.82075 0.0
C1582 C 0.63205 0.45518 0.85285 0.0
C1583 C 0.61586 0.46532 0.87977 0.0
C1584 C 0.5879 0.46939 0.87458 0.0
H1585 H 0.42075 0.78172 0.00194 0.0
H1586 H 0.50708 0.76884 0.99007 0.0
H1587 H 0.51606 0.79754 0.04024 0.0
H1588 H 0.42341 0.84999 0.0282 0.0
H1589 H 0.39691 0.84684 0.05962 0.0
H1590 H 0.3972 0.82545 0.02234 0.0
H1591 H 0.39645 0.78335 0.06165 0.0
H1592 H 0.39577 0.80459 0.09906 0.0
H1593 H 0.42182 0.77943 0.09486 0.0
H1594 H 0.51569 0.82852 0.09003 0.0
H1595 H 0.50581 0.85795 0.13945 0.0
H1596 H 0.4197 0.8477 0.12099 0.0
C1597 C 0.44149 0.78514 0.0099 0.0
C1598 C 0.46324 0.77361 0.99212 0.0
C1599 C 0.49017 0.77784 0.00336 0.0
C1600 C 0.49548 0.79406 0.03176 0.0
C1601 C 0.47358 0.80538 0.0487 0.0
C1602 C 0.44713 0.80088 0.03852 0.0
C1603 C 0.42728 0.81476 0.06185 0.0
C1604 C 0.4102 0.83549 0.0418 0.0
C1605 C 0.40928 0.79431 0.08046 0.0
C1606 C 0.44678 0.82805 0.08639 0.0
C1607 C 0.47336 0.8225 0.07828 0.0
C1608 C 0.49497 0.83292 0.09693 0.0
C1609 C 0.48917 0.84947 0.12494 0.0
C1610 C 0.46202 0.85509 0.13392 0.0
C1611 C 0.44066 0.84417 0.11437 0.0
H1612 H 1.0739 0.47117 0.59992 0.0
H1613 H 0.15119 0.44686 0.64387 0.0
H1614 H 0.1297 0.44097 0.70061 0.0
H1615 H 1.05167 0.50919 0.66981 0.0
H1616 H 1.01671 0.49941 0.66672 0.0
H1617 H 1.0375 0.49942 0.62884 0.0
H1618 H 1.02601 0.44955 0.61809 0.0
H1619 H 1.00504 0.44947 0.6559 0.0
H1620 H 1.03202 0.42528 0.65179 0.0
H1621 H 0.10115 0.44087 0.75268 0.0
H1622 H 1.06647 0.44567 0.79776 0.0
H1623 H 1.00748 0.46957 0.72006 0.0
C1624 C 1.08611 0.46396 0.62133 0.0
C1625 C 0.11413 0.45936 0.6177 0.0
C1626 C 0.12969 0.45058 0.64635 0.0
C1627 C 0.11767 0.44708 0.67853 0.0
C1628 C 1.09011 0.45231 0.68145 0.0
C1629 C 1.07443 0.46039 0.65365 0.0
C1630 C 1.04551 0.46592 0.66423 0.0
C1631 C 1.0374 0.49522 0.65698 0.0
C1632 C 1.02599 0.44638 0.64646 0.0
C1633 C 1.04767 0.46036 0.70251 0.0
C1634 C 1.07351 0.45233 0.71177 0.0
C1635 C 1.08078 0.44697 0.74582 0.0
C1636 C 1.06106 0.44992 0.7712 0.0
C1637 C 1.03453 0.45816 0.76226 0.0
C1638 C 1.0277 0.46326 0.72749 0.0
H1639 H 0.96999 0.82876 0.35157 0.0
H1640 H 0.92632 0.89742 0.39184 0.0
H1641 H 0.92639 0.87679 0.44949 0.0
H1642 H 0.93584 0.7803 0.39659 0.0
H1643 H 0.96452 0.75887 0.4055 0.0
H1644 H 0.96461 0.78036 0.36824 0.0
H1645 H 1.00952 0.80169 0.38894 0.0
H1646 H 1.00961 0.77993 0.42608 0.0
H1647 H 1.01166 0.8157 0.43164 0.0
H1648 H 0.92472 0.84697 0.49907 0.0
H1649 H 0.92485 0.81006 0.54125 0.0
H1650 H 0.9718 0.76101 0.47117 0.0
C1651 C 0.9613 0.83978 0.37284 0.0
C1652 C 0.94807 0.86458 0.36746 0.0
C1653 C 0.93632 0.87826 0.39556 0.0
C1654 C 0.93641 0.86681 0.42835 0.0
C1655 C 0.94874 0.84193 0.43263 0.0
C1656 C 0.96137 0.82866 0.40592 0.0
C1657 C 0.97134 0.80123 0.41722 0.0
C1658 C 0.95828 0.77889 0.39561 0.0
C1659 C 1.00238 0.79956 0.41591 0.0
C1660 C 0.96128 0.80089 0.454 0.0
C1661 C 0.94844 0.82467 0.46223 0.0
C1662 C 0.93524 0.82846 0.49339 0.0
C1663 C 0.93521 0.80736 0.51698 0.0
C1664 C 0.94847 0.783 0.50926 0.0
C1665 C 0.96194 0.77975 0.47763 0.0
H1666 H 0.60521 0.70003 0.09257 0.0
H1667 H 0.53356 0.74339 0.12517 0.0
H1668 H 0.55687 0.75625 0.17887 0.0
H1669 H 0.62029 0.67133 0.16795 0.0
H1670 H 0.65659 0.67396 0.16598 0.0
H1671 H 0.63704 0.67331 0.12688 0.0
H1672 H 0.6585 0.71795 0.10791 0.0
H1673 H 0.67799 0.71944 0.14732 0.0
H1674 H 0.65606 0.74691 0.13527 0.0
H1675 H 0.58243 0.7553 0.2323 0.0
H1676 H 0.61063 0.74321 0.28245 0.0
H1677 H 0.66771 0.70302 0.21554 0.0
C1678 C 0.59491 0.71318 0.11041 0.0
C1679 C 0.5677 0.72081 0.10494 0.0
C1680 C 0.5544 0.73727 0.12917 0.0
C1681 C 0.56756 0.74489 0.15949 0.0
C1682 C 0.59407 0.73621 0.16478 0.0
C1683 C 0.60783 0.72104 0.14076 0.0
C1684 C 0.63491 0.71151 0.15472 0.0
C1685 C 0.63731 0.68072 0.15384 0.0
C1686 C 0.65825 0.72475 0.13516 0.0
C1687 C 0.63316 0.7219 0.19121 0.0
C1688 C 0.60967 0.73657 0.19614 0.0
C1689 C 0.60141 0.74484 0.22862 0.0
C1690 C 0.61738 0.73768 0.25692 0.0
C1691 C 0.64135 0.72265 0.25242 0.0
C1692 C 0.64976 0.71519 0.21921 0.0
H1693 H 0.75067 0.38596 0.98796 0.0
H1694 H 0.66492 0.4027 -0.00104 0.0
H1695 H 0.65497 0.37354 0.94922 0.0
H1696 H 0.7508 0.38549 0.89496 0.0
H1697 H 0.77565 0.35899 0.89297 0.0
H1698 H 0.77551 0.38162 0.929 0.0
H1699 H 0.77222 0.34115 0.97077 0.0
H1700 H 0.7719 0.31838 0.9349 0.0
H1701 H 0.74488 0.31771 0.96584 0.0
H1702 H 0.65453 0.34112 0.90028 0.0
H1703 H 0.66393 0.30928 0.853 0.0
H1704 H 0.75005 0.3163 0.87366 0.0
C1705 C 0.72983 0.38346 0.9798 0.0
C1706 C 0.70852 0.39609 0.9971 0.0
C1707 C 0.68147 0.39288 0.98581 0.0
C1708 C 0.67563 0.37643 0.95773 0.0
C1709 C 0.69716 0.36384 0.94142 0.0
C1710 C 0.72371 0.3674 0.9518 0.0
C1711 C 0.74317 0.35177 0.92995 0.0
C1712 C 0.7624 0.37059 0.91056 0.0
C1713 C 0.75895 0.33102 0.95167 0.0
C1714 C 0.72335 0.33856 0.9059 0.0
C1715 C 0.69693 0.34566 0.91288 0.0
C1716 C 0.67514 0.33547 0.89431 0.0
C1717 C 0.68063 0.31753 0.86761 0.0
C1718 C 0.70765 0.31026 0.86008 0.0
C1719 C 0.72915 0.32104 0.87939 0.0
H1720 H 0.44103 0.36158 0.23844 0.0
H1721 H 0.40718 0.37684 0.13704 0.0
H1722 H 0.38481 0.41736 0.15869 0.0
H1723 H 0.38419 0.36831 0.27715 0.0
H1724 H 0.39607 0.38302 0.31677 0.0
H1725 H 0.41856 0.36306 0.29157 0.0
H1726 H 0.45242 0.40239 0.28839 0.0
H1727 H 0.4299 0.42265 0.31395 0.0
H1728 H 0.44127 0.43466 0.27267 0.0
H1729 H 0.3543 0.44405 0.19283 0.0
H1730 H 0.31948 0.45426 0.23568 0.0
H1731 H 0.37195 0.42394 0.31677 0.0
C1732 C 0.43001 0.37433 0.22055 0.0
C1733 C 0.42588 0.36631 0.18622 0.0
C1734 C 0.41106 0.38298 0.16335 0.0
C1735 C 0.39821 0.40606 0.17551 0.0
C1736 C 0.40054 0.41215 0.21044 0.0
C1737 C 0.41645 0.3969 0.23263 0.0
C1738 C 0.41058 0.40324 0.2699 0.0
C1739 C 0.40181 0.37793 0.28994 0.0
C1740 C 0.435 0.41654 0.28724 0.0
C1741 C 0.38748 0.42286 0.2653 0.0
C1742 C 0.38244 0.42834 0.23083 0.0
C1743 C 0.35869 0.44106 0.21993 0.0
C1744 C 0.339 0.44695 0.2445 0.0
C1745 C 0.34328 0.44 0.27945 0.0
C1746 C 0.36854 0.42973 0.29016 0.0
H1747 H 0.69243 0.56443 0.47696 0.0
H1748 H 0.69414 0.6405 0.53007 0.0
H1749 H 0.67715 0.61909 0.58224 0.0
H1750 H 0.63147 0.55426 0.49528 0.0
H1751 H 0.63177 0.51834 0.5001 0.0
H1752 H 0.6569 0.53413 0.47437 0.0
H1753 H 0.69506 0.51247 0.51124 0.0
H1754 H 0.66983 0.49594 0.53694 0.0
H1755 H 0.69512 0.51647 0.55741 0.0
H1756 H 0.64478 0.5965 0.61788 0.0
H1757 H 0.60185 0.5749 0.63321 0.0
H1758 H 0.61649 0.51343 0.55704 0.0
C1759 C 0.69065 0.57608 0.50033 0.0
C1760 C 0.69444 0.60396 0.49952 0.0
C1761 C 0.69182 0.61895 0.5302 0.0
C1762 C 0.68196 0.60689 0.56007 0.0
C1763 C 0.6748 0.57996 0.55871 0.0
C1764 C 0.6794 0.56455 0.5296 0.0
C1765 C 0.66322 0.53896 0.53034 0.0
C1766 C 0.64476 0.53634 0.49817 0.0
C1767 C 0.68194 0.51451 0.53425 0.0
C1768 C 0.647 0.54356 0.56262 0.0
C1769 C 0.6547 0.56675 0.57942 0.0
C1770 C 0.63926 0.57776 0.6059 0.0
C1771 C 0.61486 0.56545 0.61441 0.0
C1772 C 0.60616 0.54267 0.5961 0.0
C1773 C 0.62306 0.53082 0.57138 0.0
H1774 H 0.3136 0.82152 0.64828 0.0
H1775 H 0.23717 0.80582 0.69796 0.0
H1776 H 0.25508 0.76255 0.71948 0.0
H1777 H 0.33549 0.74885 0.63149 0.0
H1778 H 0.36981 0.75718 0.64296 0.0
H1779 H 0.34845 0.78168 0.62182 0.0
H1780 H 0.35756 0.81523 0.67135 0.0
H1781 H 0.37893 0.7911 0.69222 0.0
H1782 H 0.35068 0.8053 0.71512 0.0
H1783 H 0.28338 0.7278 0.74594 0.0
H1784 H 0.32032 0.70777 0.78034 0.0
H1785 H 0.37884 0.74752 0.71537 0.0
C1786 C 0.30025 0.80821 0.66212 0.0
C1787 C 0.27399 0.81639 0.67099 0.0
C1788 C 0.25731 0.79943 0.69065 0.0
C1789 C 0.26723 0.7748 0.7026 0.0
C1790 C 0.29376 0.76764 0.69456 0.0
C1791 C 0.31007 0.78397 0.67475 0.0
C1792 C 0.33931 0.77527 0.67629 0.0
C1793 C 0.34881 0.76513 0.64103 0.0
C1794 C 0.35764 0.79805 0.68958 0.0
C1795 C 0.33723 0.75259 0.70193 0.0
C1796 C 0.3107 0.74778 0.71112 0.0
C1797 C 0.30416 0.73075 0.73829 0.0
C1798 C 0.32526 0.71955 0.75779 0.0
C1799 C 0.35242 0.72607 0.75046 0.0
C1800 C 0.35837 0.7414 0.72093 0.0
H1801 H 0.11706 0.64042 0.99159 0.0
H1802 H 1.06454 0.70277 0.03142 0.0
H1803 H 1.02711 0.68602 0.9945 0.0
H1804 H 0.09251 0.63767 0.90363 0.0
H1805 H 0.09513 0.60165 0.90261 0.0
H1806 H 0.11788 0.62066 0.92929 0.0
H1807 H 0.1034 0.59285 0.98255 0.0
H1808 H 1.08057 0.5739 0.95609 0.0
H1809 H 1.06811 0.59109 0.99359 0.0
H1810 H 0.99482 0.65895 0.95846 0.0
H1811 H 0.97026 0.62358 0.92624 0.0
H1812 H 1.04602 0.5817 0.9096 0.0
C1813 C 0.09806 0.65135 0.99148 0.0
C1814 C 0.09374 0.67341 0.01317 0.0
C1815 C 1.06815 0.68614 0.01417 0.0
C1816 C 1.04695 0.67683 0.99338 0.0
C1817 C 1.05201 0.65491 0.97216 0.0
C1818 C 1.07698 0.64235 0.97125 0.0
C1819 C 1.07679 0.6175 0.94956 0.0
C1820 C 0.09675 0.61953 0.91948 0.0
C1821 C 1.08253 0.59238 0.97177 0.0
C1822 C 1.04792 0.61845 0.93734 0.0
C1823 C 1.03371 0.63984 0.95095 0.0
C1824 C 1.00582 0.64262 0.94666 0.0
C1825 C 0.9921 0.62271 0.92831 0.0
C1826 C 1.00662 0.6009 0.91439 0.0
C1827 C 1.0348 0.59907 0.91842 0.0
H1828 H 0.87636 0.92268 0.81837 0.0
H1829 H 0.82476 0.95654 0.73875 0.0
H1830 H 0.85714 0.94261 0.6948 0.0
H1831 H 0.94542 0.92418 0.76962 0.0
H1832 H 0.95289 0.89121 0.78633 0.0
H1833 H 0.93427 0.91488 0.81215 0.0
H1834 H 0.89615 0.87998 0.81926 0.0
H1835 H 0.91413 0.85661 0.79308 0.0
H1836 H 0.88014 0.86635 0.78133 0.0
H1837 H 0.88288 0.91199 0.66007 0.0
H1838 H 0.90028 0.86906 0.63836 0.0
H1839 H 0.93501 0.85154 0.73875 0.0
C1840 C 0.87287 0.92849 0.79179 0.0
C1841 C 0.84828 0.94065 0.78187 0.0
C1842 C 0.8438 0.94772 0.747 0.0
C1843 C 0.8621 0.9397 0.72175 0.0
C1844 C 0.88465 0.92466 0.73189 0.0
C1845 C 0.89032 0.9194 0.76631 0.0
C1846 C 0.9108 0.89698 0.77034 0.0
C1847 C 0.93744 0.90746 0.78549 0.0
C1848 C 0.8996 0.87364 0.79223 0.0
C1849 C 0.91407 0.88908 0.73311 0.0
C1850 C 0.89957 0.9058 0.7112 0.0
C1851 C 0.89529 0.89943 0.67662 0.0
C1852 C 0.90519 0.87497 0.66449 0.0
C1853 C 0.91897 0.85722 0.68705 0.0
C1854 C 0.92464 0.86501 0.72111 0.0
H1855 H 0.84654 0.4393 0.23133 0.0
H1856 H 0.77239 0.43548 0.28972 0.0
H1857 H 0.79762 0.41867 0.33987 0.0
H1858 H 0.86257 0.37935 0.24801 0.0
H1859 H 0.89887 0.38211 0.25031 0.0
H1860 H 0.87975 0.40612 0.22603 0.0
H1861 H 0.90012 0.44492 0.26179 0.0
H1862 H 0.91999 0.42086 0.28595 0.0
H1863 H 0.89826 0.44413 0.30818 0.0
H1864 H 0.82461 0.38767 0.37319 0.0
H1865 H 0.85076 0.34687 0.38649 0.0
H1866 H 0.90815 0.36717 0.30688 0.0
C1867 C 0.83606 0.43638 0.25545 0.0
C1868 C 0.80772 0.43867 0.25684 0.0
C1869 C 0.79424 0.43437 0.28835 0.0
C1870 C 0.80848 0.42465 0.31701 0.0
C1871 C 0.83606 0.41939 0.31359 0.0
C1872 C 0.84987 0.42548 0.28359 0.0
C1873 C 0.87699 0.41138 0.28232 0.0
C1874 C 0.87964 0.3937 0.2498 0.0
C1875 C 0.90022 0.43154 0.28473 0.0
C1876 C 0.87525 0.39469 0.31467 0.0
C1877 C 0.85198 0.40026 0.33304 0.0
C1878 C 0.84345 0.38388 0.35999 0.0
C1879 C 0.85839 0.3607 0.36738 0.0
C1880 C 0.88137 0.35416 0.34761 0.0
C1881 C 0.89068 0.37206 0.32239 0.0
H1882 H 0.19164 1.07581 0.97934 0.0
H1883 H 0.18677 0.148 0.04084 0.0
H1884 H 0.17338 0.12155 0.09071 0.0
H1885 H 0.1317 1.05878 -0.0011 0.0
H1886 H 0.13568 1.02288 -0.00086 0.0
H1887 H 0.15817 1.04297 0.97435 0.0
H1888 H 0.19946 1.02244 0.00654 0.0
H1889 H 0.17691 1.00177 0.03131 0.0
H1890 H 0.20086 1.02311 0.05298 0.0
H1891 H 0.14519 0.09342 0.12505 0.0
H1892 H 0.10516 1.06689 0.13954 0.0
H1893 H 0.1231 1.01233 0.05609 0.0
C1894 C 0.18894 1.08578 0.00383 0.0
C1895 C 0.19012 0.11388 0.00611 0.0
C1896 C 0.18654 0.12641 0.03843 0.0
C1897 C 0.17876 0.11144 0.06708 0.0
C1898 C 0.1744 1.0841 0.06289 0.0
C1899 C 0.17958 1.07127 0.03197 0.0
C1900 C 0.16603 1.04423 0.03034 0.0
C1901 C 0.14676 1.04215 -0.00112 0.0
C1902 C 0.18708 1.02154 0.03032 0.0
C1903 C 0.15067 1.04487 0.06381 0.0
C1904 C 0.15659 1.06751 0.08288 0.0
C1905 C 0.14116 1.07507 0.11123 0.0
C1906 C 0.11841 1.05991 0.1193 0.0
C1907 C 0.11132 1.03767 0.09882 0.0
C1908 C 0.12846 1.02921 0.07215 0.0
H1909 H 0.67253 1.07119 0.51815 0.0
H1910 H 0.65336 1.04721 0.62249 0.0
H1911 H 0.6352 1.00467 0.60063 0.0
H1912 H 0.61632 1.05635 0.48471 0.0
H1913 H 0.62754 1.04424 0.44344 0.0
H1914 H 0.64823 1.06691 0.46714 0.0
H1915 H 0.68821 1.03334 0.46553 0.0
H1916 H 0.66761 1.01032 0.44125 0.0
H1917 H 0.68376 0.99952 0.48075 0.0
H1918 H 0.60597 0.97512 0.56833 0.0
H1919 H 0.57034 0.95992 0.52829 0.0
H1920 H 0.61006 1.00081 0.44441 0.0
C1921 C 0.66623 1.05621 0.53659 0.0
C1922 C 0.66441 1.06225 0.57188 0.0
C1923 C 0.65487 1.04279 0.59525 0.0
C1924 C 0.64475 1.01851 0.58306 0.0
C1925 C 0.64485 1.01396 0.54762 0.0
C1926 C 0.65592 1.0321 0.52471 0.0
C1927 C 0.6485 1.02572 0.48787 0.0
C1928 C 0.63429 1.04969 0.46983 0.0
C1929 C 0.67351 1.01666 0.46766 0.0
C1930 C 0.62941 1.00272 0.49385 0.0
C1931 C 0.62811 0.9957 0.52837 0.0
C1932 C 0.60766 0.97932 0.54106 0.0
C1933 C 0.58745 0.97086 0.51828 0.0
C1934 C 0.58804 0.9788 0.48338 0.0
C1935 C 0.61 0.99357 0.47075 0.0
loop_
_geom_bond_atom_site_label_1
_geom_bond_atom_site_label_2
_geom_bond_distance
_geom_bond_site_symmetry_2
_ccdc_geom_bond_type
Tb0 C2 2.809 . S
Tb0 O20 2.484 . S
Tb0 O21 2.440 . S
Tb0 O22 2.658 1_556 S
Tb0 O23 2.409 1_556 S
Tb0 O24 2.378 1_556 S
Tb0 O28 2.325 1_556 S
Tb0 O31 2.341 . S
Tb1 C11 2.809 . S
Tb1 O22 2.325 . S
Tb1 O25 2.341 . S
Tb1 O26 2.484 . S
Tb1 O27 2.440 . S
Tb1 O28 2.658 . S
Tb1 O29 2.409 . S
Tb1 O30 2.378 . S
C2 Tb0 2.809 . S
C2 C3 1.514 . S
C2 O20 1.248 . S
C2 O21 1.266 . S
C3 C2 1.514 . S
C3 C4 1.359 . S
C3 C8 1.348 . S
C4 C3 1.359 . S
C4 C5 1.380 . S
C4 H32 0.929 . S
C5 C4 1.380 . S
C5 C6 1.347 . S
C5 H33 0.931 . S
C6 C5 1.347 . S
C6 C7 1.369 . S
C7 C6 1.369 . S
C7 C8 1.408 . S
C7 H34 0.930 . S
C8 C3 1.348 . S
C8 C7 1.408 . S
C8 H35 0.930 . S
C9 O22 1.281 . S
C9 O23 1.254 . S
C10 O24 1.236 . S
C10 O25 1.266 . S
C11 Tb1 2.809 . S
C11 C12 1.514 . S
C11 O26 1.248 . S
C11 O27 1.266 . S
C12 C11 1.514 . S
C12 C13 1.359 . S
C12 C17 1.348 . S
C13 C12 1.359 . S
C13 C14 1.380 . S
C13 H36 0.929 . S
C14 C13 1.380 . S
C14 C15 1.347 . S
C14 H37 0.931 . S
C15 C14 1.347 . S
C15 C16 1.369 . S
C16 C15 1.369 . S
C16 C17 1.408 . S
C16 H38 0.930 . S
C17 C12 1.348 . S
C17 C16 1.408 . S
C17 H39 0.930 . S
C18 O28 1.281 1_556 S
C18 O29 1.254 1_556 S
C19 O30 1.236 . S
C19 O31 1.266 1_554 S
O20 Tb0 2.484 . S
O20 C2 1.248 . S
O21 Tb0 2.440 . S
O21 C2 1.266 . S
O22 Tb0 2.658 1_554 S
O22 Tb1 2.325 . S
O22 C9 1.281 . S
O23 Tb0 2.409 1_554 S
O23 C9 1.254 . S
O24 Tb0 2.378 1_554 S
O24 C10 1.236 . S
O25 Tb1 2.341 . S
O25 C10 1.266 . S
O26 Tb1 2.484 . S
O26 C11 1.248 . S
O27 Tb1 2.440 . S
O27 C11 1.266 . S
O28 Tb0 2.325 1_554 S
O28 Tb1 2.658 . S
O28 C18 1.281 1_554 S
O29 Tb1 2.409 . S
O29 C18 1.254 1_554 S
O30 Tb1 2.378 . S
O30 C19 1.236 . S
O31 Tb0 2.341 . S
O31 C19 1.266 1_556 S
H32 C4 0.929 . S
H33 C5 0.931 . S
H34 C7 0.930 . S
H35 C8 0.930 . S
H36 C13 0.929 . S
H37 C14 0.931 . S
H38 C16 0.930 . S
H39 C17 0.930 . S
Tb40 C42 2.809 . S
Tb40 O60 2.484 . S
Tb40 O61 2.440 . S
Tb40 O62 2.658 . S
Tb40 O63 2.409 . S
Tb40 O64 2.378 . S
Tb40 O68 2.325 . S
Tb40 O71 2.341 . S
Tb41 C51 2.809 . S
Tb41 O62 2.325 . S
Tb41 O65 2.341 . S
Tb41 O66 2.484 . S
Tb41 O67 2.440 . S
Tb41 O68 2.658 . S
Tb41 O69 2.409 . S
Tb41 O70 2.378 . S
C42 Tb40 2.809 . S
C42 C43 1.514 . S
C42 O60 1.248 . S
C42 O61 1.266 . S
C43 C42 1.514 . S
C43 C44 1.359 . S
C43 C48 1.348 . S
C44 C43 1.359 . S
C44 C45 1.380 . S
C44 H72 0.929 . S
C45 C44 1.380 . S
C45 C46 1.347 . S
C45 H73 0.931 . S
C46 C45 1.347 . S
C46 C47 1.369 . S
C47 C46 1.369 . S
C47 C48 1.408 . S
C47 H74 0.930 . S
C48 C43 1.348 . S
C48 C47 1.408 . S
C48 H75 0.930 . S
C49 O62 1.281 . S
C49 O63 1.254 . S
C50 O64 1.236 . S
C50 O65 1.266 . S
C51 Tb41 2.809 . S
C51 C52 1.514 . S
C51 O66 1.248 . S
C51 O67 1.266 . S
C52 C51 1.514 . S
C52 C53 1.359 . S
C52 C57 1.348 . S
C53 C52 1.359 . S
C53 C54 1.380 . S
C53 H76 0.929 . S
C54 C53 1.380 . S
C54 C55 1.347 . S
C54 H77 0.931 . S
C55 C54 1.347 . S
C55 C56 1.369 . S
C56 C55 1.369 . S
C56 C57 1.408 . S
C56 H78 0.930 . S
C57 C52 1.348 . S
C57 C56 1.408 . S
C57 H79 0.930 . S
C58 O68 1.281 . S
C58 O69 1.254 . S
C59 O70 1.236 . S
C59 O71 1.266 . S
O60 Tb40 2.484 . S
O60 C42 1.248 . S
O61 Tb40 2.440 . S
O61 C42 1.266 . S
O62 Tb40 2.658 . S
O62 Tb41 2.325 . S
O62 C49 1.281 . S
O63 Tb40 2.409 . S
O63 C49 1.254 . S
O64 Tb40 2.378 . S
O64 C50 1.236 . S
O65 Tb41 2.341 . S
O65 C50 1.266 . S
O66 Tb41 2.484 . S
O66 C51 1.248 . S
O67 Tb41 2.440 . S
O67 C51 1.266 . S
O68 Tb40 2.325 . S
O68 Tb41 2.658 . S
O68 C58 1.281 . S
O69 Tb41 2.409 . S
O69 C58 1.254 . S
O70 Tb41 2.378 . S
O70 C59 1.236 . S
O71 Tb40 2.341 . S
O71 C59 1.266 . S
H72 C44 0.929 . S
H73 C45 0.931 . S
H74 C47 0.930 . S
H75 C48 0.930 . S
H76 C53 0.929 . S
H77 C54 0.931 . S
H78 C56 0.930 . S
H79 C57 0.930 . S
Tb80 C82 2.809 . S
Tb80 O100 2.484 . S
Tb80 O101 2.440 . S
Tb80 O102 2.658 . S
Tb80 O103 2.409 . S
Tb80 O104 2.378 . S
Tb80 O108 2.325 . S
Tb80 O111 2.341 . S
Tb81 C91 2.809 . S
Tb81 O102 2.325 . S
Tb81 O105 2.341 . S
Tb81 O106 2.484 . S
Tb81 O107 2.440 . S
Tb81 O108 2.658 . S
Tb81 O109 2.409 . S
Tb81 O110 2.378 . S
C82 Tb80 2.809 . S
C82 C83 1.514 . S
C82 O100 1.248 . S
C82 O101 1.266 . S
C83 C82 1.514 . S
C83 C84 1.359 . S
C83 C88 1.348 . S
C84 C83 1.359 . S
C84 C85 1.380 . S
C84 H112 0.929 . S
C85 C84 1.380 . S
C85 C86 1.347 . S
C85 H113 0.931 . S
C86 C85 1.347 . S
C86 C87 1.369 . S
C87 C86 1.369 . S
C87 C88 1.408 . S
C87 H114 0.930 . S
C88 C83 1.348 . S
C88 C87 1.408 . S
C88 H115 0.930 . S
C89 O102 1.281 . S
C89 O103 1.254 . S
C90 O104 1.236 . S
C90 O105 1.266 . S
C91 Tb81 2.809 . S
C91 C92 1.514 . S
C91 O106 1.248 . S
C91 O107 1.266 . S
C92 C91 1.514 . S
C92 C93 1.359 . S
C92 C97 1.348 . S
C93 C92 1.359 . S
C93 C94 1.380 . S
C93 H116 0.929 . S
C94 C93 1.380 . S
C94 C95 1.347 . S
C94 H117 0.931 . S
C95 C94 1.347 . S
C95 C96 1.369 . S
C96 C95 1.369 . S
C96 C97 1.408 . S
C96 H118 0.930 . S
C97 C92 1.348 . S
C97 C96 1.408 . S
C97 H119 0.930 . S
C98 O108 1.281 . S
C98 O109 1.254 . S
C99 O110 1.236 . S
C99 O111 1.266 . S
O100 Tb80 2.484 . S
O100 C82 1.248 . S
O101 Tb80 2.440 . S
O101 C82 1.266 . S
O102 Tb80 2.658 . S
O102 Tb81 2.325 . S
O102 C89 1.281 . S
O103 Tb80 2.409 . S
O103 C89 1.254 . S
O104 Tb80 2.378 . S
O104 C90 1.236 . S
O105 Tb81 2.341 . S
O105 C90 1.266 . S
O106 Tb81 2.484 . S
O106 C91 1.248 . S
O107 Tb81 2.440 . S
O107 C91 1.266 . S
O108 Tb80 2.325 . S
O108 Tb81 2.658 . S
O108 C98 1.281 . S
O109 Tb81 2.409 . S
O109 C98 1.254 . S
O110 Tb81 2.378 . S
O110 C99 1.236 . S
O111 Tb80 2.341 . S
O111 C99 1.266 . S
H112 C84 0.929 . S
H113 C85 0.931 . S
H114 C87 0.930 . S
H115 C88 0.930 . S
H116 C93 0.929 . S
H117 C94 0.931 . S
H118 C96 0.930 . S
H119 C97 0.930 . S
Tb120 C122 2.809 . S
Tb120 O140 2.484 . S
Tb120 O141 2.440 . S
Tb120 O142 2.658 . S
Tb120 O143 2.409 . S
Tb120 O144 2.378 . S
Tb120 O148 2.325 . S
Tb120 O151 2.341 . S
Tb121 C131 2.809 . S
Tb121 O142 2.325 . S
Tb121 O145 2.341 . S
Tb121 O146 2.484 . S
Tb121 O147 2.440 . S
Tb121 O148 2.658 . S
Tb121 O149 2.409 . S
Tb121 O150 2.378 . S
C122 Tb120 2.809 . S
C122 C123 1.514 . S
C122 O140 1.248 . S
C122 O141 1.266 . S
C123 C122 1.514 . S
C123 C124 1.359 . S
C123 C128 1.348 . S
C124 C123 1.359 . S
C124 C125 1.380 . S
C124 H152 0.929 . S
C125 C124 1.380 . S
C125 C126 1.347 . S
C125 H153 0.931 . S
C126 C125 1.347 . S
C126 C127 1.369 . S
C127 C126 1.369 . S
C127 C128 1.408 . S
C127 H154 0.930 . S
C128 C123 1.348 . S
C128 C127 1.408 . S
C128 H155 0.930 . S
C129 O142 1.281 . S
C129 O143 1.254 . S
C130 O144 1.236 . S
C130 O145 1.266 . S
C131 Tb121 2.809 . S
C131 C132 1.514 . S
C131 O146 1.248 . S
C131 O147 1.266 . S
C132 C131 1.514 . S
C132 C133 1.359 . S
C132 C137 1.348 . S
C133 C132 1.359 . S
C133 C134 1.380 . S
C133 H156 0.929 . S
C134 C133 1.380 . S
C134 C135 1.347 . S
C134 H157 0.931 . S
C135 C134 1.347 . S
C135 C136 1.369 . S
C136 C135 1.369 . S
C136 C137 1.408 . S
C136 H158 0.930 . S
C137 C132 1.348 . S
C137 C136 1.408 . S
C137 H159 0.930 . S
C138 O148 1.281 . S
C138 O149 1.254 . S
C139 O150 1.236 . S
C139 O151 1.266 . S
O140 Tb120 2.484 . S
O140 C122 1.248 . S
O141 Tb120 2.440 . S
O141 C122 1.266 . S
O142 Tb120 2.658 . S
O142 Tb121 2.325 . S
O142 C129 1.281 . S
O143 Tb120 2.409 . S
O143 C129 1.254 . S
O144 Tb120 2.378 . S
O144 C130 1.236 . S
O145 Tb121 2.341 . S
O145 C130 1.266 . S
O146 Tb121 2.484 . S
O146 C131 1.248 . S
O147 Tb121 2.440 . S
O147 C131 1.266 . S
O148 Tb120 2.325 . S
O148 Tb121 2.658 . S
O148 C138 1.281 . S
O149 Tb121 2.409 . S
O149 C138 1.254 . S
O150 Tb121 2.378 . S
O150 C139 1.236 . S
O151 Tb120 2.341 . S
O151 C139 1.266 . S
H152 C124 0.929 . S
H153 C125 0.931 . S
H154 C127 0.930 . S
H155 C128 0.930 . S
H156 C133 0.929 . S
H157 C134 0.931 . S
H158 C136 0.930 . S
H159 C137 0.930 . S
Tb160 C162 2.809 . S
Tb160 O180 2.484 . S
Tb160 O181 2.440 . S
Tb160 O182 2.658 . S
Tb160 O183 2.409 . S
Tb160 O184 2.378 . S
Tb160 O188 2.325 . S
Tb160 O191 2.341 . S
Tb161 C171 2.809 . S
Tb161 O182 2.325 1_554 S
Tb161 O185 2.341 . S
Tb161 O186 2.484 . S
Tb161 O187 2.440 . S
Tb161 O188 2.658 1_554 S
Tb161 O189 2.409 1_554 S
Tb161 O190 2.378 1_554 S
C162 Tb160 2.809 . S
C162 C163 1.514 . S
C162 O180 1.248 . S
C162 O181 1.266 . S
C163 C162 1.514 . S
C163 C164 1.359 . S
C163 C168 1.348 . S
C164 C163 1.359 . S
C164 C165 1.380 . S
C164 H192 0.929 . S
C165 C164 1.380 . S
C165 C166 1.347 . S
C165 H193 0.931 . S
C166 C165 1.347 . S
C166 C167 1.369 . S
C167 C166 1.369 . S
C167 C168 1.408 . S
C167 H194 0.930 . S
C168 C163 1.348 . S
C168 C167 1.408 . S
C168 H195 0.930 . S
C169 O182 1.281 1_554 S
C169 O183 1.254 1_554 S
C170 O184 1.236 . S
C170 O185 1.266 1_556 S
C171 Tb161 2.809 . S
C171 C172 1.514 . S
C171 O186 1.248 . S
C171 O187 1.266 . S
C172 C171 1.514 . S
C172 C173 1.359 . S
C172 C177 1.348 . S
C173 C172 1.359 . S
C173 C174 1.380 . S
C173 H196 0.929 . S
C174 C173 1.380 . S
C174 C175 1.347 . S
C174 H197 0.931 . S
C175 C174 1.347 . S
C175 C176 1.369 . S
C176 C175 1.369 . S
C176 C177 1.408 . S
C176 H198 0.930 . S
C177 C172 1.348 . S
C177 C176 1.408 . S
C177 H199 0.930 . S
C178 O188 1.281 . S
C178 O189 1.254 . S
C179 O190 1.236 . S
C179 O191 1.266 . S
O180 Tb160 2.484 . S
O180 C162 1.248 . S
O181 Tb160 2.440 . S
O181 C162 1.266 . S
O182 Tb160 2.658 . S
O182 Tb161 2.325 1_556 S
O182 C169 1.281 1_556 S
O183 Tb160 2.409 . S
O183 C169 1.254 1_556 S
O184 Tb160 2.378 . S
O184 C170 1.236 . S
O185 Tb161 2.341 . S
O185 C170 1.266 1_554 S
O186 Tb161 2.484 . S
O186 C171 1.248 . S
O187 Tb161 2.440 . S
O187 C171 1.266 . S
O188 Tb160 2.325 . S
O188 Tb161 2.658 1_556 S
O188 C178 1.281 . S
O189 Tb161 2.409 1_556 S
O189 C178 1.254 . S
O190 Tb161 2.378 1_556 S
O190 C179 1.236 . S
O191 Tb160 2.341 . S
O191 C179 1.266 . S
H192 C164 0.929 . S
H193 C165 0.931 . S
H194 C167 0.930 . S
H195 C168 0.930 . S
H196 C173 0.929 . S
H197 C174 0.931 . S
H198 C176 0.930 . S
H199 C177 0.930 . S
Tb200 C202 2.809 . S
Tb200 O220 2.484 . S
Tb200 O221 2.440 . S
Tb200 O222 2.658 . S
Tb200 O223 2.409 . S
Tb200 O224 2.378 . S
Tb200 O228 2.325 . S
Tb200 O231 2.341 . S
Tb201 C211 2.809 . S
Tb201 O222 2.325 . S
Tb201 O225 2.341 . S
Tb201 O226 2.484 . S
Tb201 O227 2.440 . S
Tb201 O228 2.658 . S
Tb201 O229 2.409 . S
Tb201 O230 2.378 . S
C202 Tb200 2.809 . S
C202 C203 1.514 . S
C202 O220 1.248 . S
C202 O221 1.266 . S
C203 C202 1.514 . S
C203 C204 1.359 . S
C203 C208 1.348 . S
C204 C203 1.359 . S
C204 C205 1.380 . S
C204 H232 0.929 . S
C205 C204 1.380 . S
C205 C206 1.347 . S
C205 H233 0.931 . S
C206 C205 1.347 . S
C206 C207 1.369 . S
C207 C206 1.369 . S
C207 C208 1.408 . S
C207 H234 0.930 . S
C208 C203 1.348 . S
C208 C207 1.408 . S
C208 H235 0.930 . S
C209 O222 1.281 . S
C209 O223 1.254 . S
C210 O224 1.236 . S
C210 O225 1.266 . S
C211 Tb201 2.809 . S
C211 C212 1.514 . S
C211 O226 1.248 . S
C211 O227 1.266 . S
C212 C211 1.514 . S
C212 C213 1.359 . S
C212 C217 1.348 . S
C213 C212 1.359 . S
C213 C214 1.380 . S
C213 H236 0.929 . S
C214 C213 1.380 . S
C214 C215 1.347 . S
C214 H237 0.931 . S
C215 C214 1.347 . S
C215 C216 1.369 . S
C216 C215 1.369 . S
C216 C217 1.408 . S
C216 H238 0.930 . S
C217 C212 1.348 . S
C217 C216 1.408 . S
C217 H239 0.930 . S
C218 O228 1.281 . S
C218 O229 1.254 . S
C219 O230 1.236 . S
C219 O231 1.266 . S
O220 Tb200 2.484 . S
O220 C202 1.248 . S
O221 Tb200 2.440 . S
O221 C202 1.266 . S
O222 Tb200 2.658 . S
O222 Tb201 2.325 . S
O222 C209 1.281 . S
O223 Tb200 2.409 . S
O223 C209 1.254 . S
O224 Tb200 2.378 . S
O224 C210 1.236 . S
O225 Tb201 2.341 . S
O225 C210 1.266 . S
O226 Tb201 2.484 . S
O226 C211 1.248 . S
O227 Tb201 2.440 . S
O227 C211 1.266 . S
O228 Tb200 2.325 . S
O228 Tb201 2.658 . S
O228 C218 1.281 . S
O229 Tb201 2.409 . S
O229 C218 1.254 . S
O230 Tb201 2.378 . S
O230 C219 1.236 . S
O231 Tb200 2.341 . S
O231 C219 1.266 . S
H232 C204 0.929 . S
H233 C205 0.931 . S
H234 C207 0.930 . S
H235 C208 0.930 . S
H236 C213 0.929 . S
H237 C214 0.931 . S
H238 C216 0.930 . S
H239 C217 0.930 . S
Tb240 C242 2.809 . S
Tb240 O260 2.484 . S
Tb240 O261 2.440 . S
Tb240 O262 2.658 . S
Tb240 O263 2.409 . S
Tb240 O264 2.378 . S
Tb240 O268 2.325 . S
Tb240 O271 2.341 . S
Tb241 C251 2.809 . S
Tb241 O262 2.325 . S
Tb241 O265 2.341 . S
Tb241 O266 2.484 . S
Tb241 O267 2.440 . S
Tb241 O268 2.658 . S
Tb241 O269 2.409 . S
Tb241 O270 2.378 . S
C242 Tb240 2.809 . S
C242 C243 1.514 . S
C242 O260 1.248 . S
C242 O261 1.266 . S
C243 C242 1.514 . S
C243 C244 1.359 . S
C243 C248 1.348 . S
C244 C243 1.359 . S
C244 C245 1.380 . S
C244 H272 0.929 . S
C245 C244 1.380 . S
C245 C246 1.347 . S
C245 H273 0.931 . S
C246 C245 1.347 . S
C246 C247 1.369 . S
C247 C246 1.369 . S
C247 C248 1.408 . S
C247 H274 0.930 . S
C248 C243 1.348 . S
C248 C247 1.408 . S
C248 H275 0.930 . S
C249 O262 1.281 . S
C249 O263 1.254 . S
C250 O264 1.236 . S
C250 O265 1.266 . S
C251 Tb241 2.809 . S
C251 C252 1.514 . S
C251 O266 1.248 . S
C251 O267 1.266 . S
C252 C251 1.514 . S
C252 C253 1.359 . S
C252 C257 1.348 . S
C253 C252 1.359 . S
C253 C254 1.380 . S
C253 H276 0.929 . S
C254 C253 1.380 . S
C254 C255 1.347 . S
C254 H277 0.931 . S
C255 C254 1.347 . S
C255 C256 1.369 . S
C256 C255 1.369 . S
C256 C257 1.408 . S
C256 H278 0.930 . S
C257 C252 1.348 . S
C257 C256 1.408 . S
C257 H279 0.930 . S
C258 O268 1.281 . S
C258 O269 1.254 . S
C259 O270 1.236 . S
C259 O271 1.266 . S
O260 Tb240 2.484 . S
O260 C242 1.248 . S
O261 Tb240 2.440 . S
O261 C242 1.266 . S
O262 Tb240 2.658 . S
O262 Tb241 2.325 . S
O262 C249 1.281 . S
O263 Tb240 2.409 . S
O263 C249 1.254 . S
O264 Tb240 2.378 . S
O264 C250 1.236 . S
O265 Tb241 2.341 . S
O265 C250 1.266 . S
O266 Tb241 2.484 . S
O266 C251 1.248 . S
O267 Tb241 2.440 . S
O267 C251 1.266 . S
O268 Tb240 2.325 . S
O268 Tb241 2.658 . S
O268 C258 1.281 . S
O269 Tb241 2.409 . S
O269 C258 1.254 . S
O270 Tb241 2.378 . S
O270 C259 1.236 . S
O271 Tb240 2.341 . S
O271 C259 1.266 . S
H272 C244 0.929 . S
H273 C245 0.931 . S
H274 C247 0.930 . S
H275 C248 0.930 . S
H276 C253 0.929 . S
H277 C254 0.931 . S
H278 C256 0.930 . S
H279 C257 0.930 . S
Tb280 C282 2.809 . S
Tb280 O300 2.484 . S
Tb280 O301 2.440 . S
Tb280 O302 2.658 . S
Tb280 O303 2.409 . S
Tb280 O304 2.378 . S
Tb280 O308 2.325 . S
Tb280 O311 2.341 . S
Tb281 C291 2.809 . S
Tb281 O302 2.325 . S
Tb281 O305 2.341 . S
Tb281 O306 2.484 . S
Tb281 O307 2.440 . S
Tb281 O308 2.658 . S
Tb281 O309 2.409 . S
Tb281 O310 2.378 . S
C282 Tb280 2.809 . S
C282 C283 1.514 . S
C282 O300 1.248 . S
C282 O301 1.266 . S
C283 C282 1.514 . S
C283 C284 1.359 . S
C283 C288 1.348 . S
C284 C283 1.359 . S
C284 C285 1.380 . S
C284 H312 0.929 . S
C285 C284 1.380 . S
C285 C286 1.347 . S
C285 H313 0.931 . S
C286 C285 1.347 . S
C286 C287 1.369 . S
C287 C286 1.369 . S
C287 C288 1.408 . S
C287 H314 0.930 . S
C288 C283 1.348 . S
C288 C287 1.408 . S
C288 H315 0.930 . S
C289 O302 1.281 . S
C289 O303 1.254 . S
C290 O304 1.236 . S
C290 O305 1.266 . S
C291 Tb281 2.809 . S
C291 C292 1.514 . S
C291 O306 1.248 . S
C291 O307 1.266 . S
C292 C291 1.514 . S
C292 C293 1.359 . S
C292 C297 1.348 . S
C293 C292 1.359 . S
C293 C294 1.380 . S
C293 H316 0.929 . S
C294 C293 1.380 . S
C294 C295 1.347 . S
C294 H317 0.931 . S
C295 C294 1.347 . S
C295 C296 1.369 . S
C296 C295 1.369 . S
C296 C297 1.408 . S
C296 H318 0.930 . S
C297 C292 1.348 . S
C297 C296 1.408 . S
C297 H319 0.930 . S
C298 O308 1.281 . S
C298 O309 1.254 . S
C299 O310 1.236 . S
C299 O311 1.266 . S
O300 Tb280 2.484 . S
O300 C282 1.248 . S
O301 Tb280 2.440 . S
O301 C282 1.266 . S
O302 Tb280 2.658 . S
O302 Tb281 2.325 . S
O302 C289 1.281 . S
O303 Tb280 2.409 . S
O303 C289 1.254 . S
O304 Tb280 2.378 . S
O304 C290 1.236 . S
O305 Tb281 2.341 . S
O305 C290 1.266 . S
O306 Tb281 2.484 . S
O306 C291 1.248 . S
O307 Tb281 2.440 . S
O307 C291 1.266 . S
O308 Tb280 2.325 . S
O308 Tb281 2.658 . S
O308 C298 1.281 . S
O309 Tb281 2.409 . S
O309 C298 1.254 . S
O310 Tb281 2.378 . S
O310 C299 1.236 . S
O311 Tb280 2.341 . S
O311 C299 1.266 . S
H312 C284 0.929 . S
H313 C285 0.931 . S
H314 C287 0.930 . S
H315 C288 0.930 . S
H316 C293 0.929 . S
H317 C294 0.931 . S
H318 C296 0.930 . S
H319 C297 0.930 . S
Tb320 C322 2.809 . S
Tb320 O340 2.484 . S
Tb320 O341 2.440 . S
Tb320 O342 2.658 . S
Tb320 O343 2.409 . S
Tb320 O344 2.378 . S
Tb320 O348 2.325 . S
Tb320 O351 2.341 . S
Tb321 C331 2.809 . S
Tb321 O342 2.325 . S
Tb321 O345 2.341 . S
Tb321 O346 2.484 . S
Tb321 O347 2.440 . S
Tb321 O348 2.658 . S
Tb321 O349 2.409 . S
Tb321 O350 2.378 . S
C322 Tb320 2.809 . S
C322 C323 1.514 . S
C322 O340 1.248 . S
C322 O341 1.266 . S
C323 C322 1.514 . S
C323 C324 1.359 . S
C323 C328 1.348 . S
C324 C323 1.359 . S
C324 C325 1.380 . S
C324 H352 0.929 . S
C325 C324 1.380 . S
C325 C326 1.347 . S
C325 H353 0.931 . S
C326 C325 1.347 . S
C326 C327 1.369 . S
C327 C326 1.369 . S
C327 C328 1.408 . S
C327 H354 0.930 . S
C328 C323 1.348 . S
C328 C327 1.408 . S
C328 H355 0.930 . S
C329 O342 1.281 . S
C329 O343 1.254 . S
C330 O344 1.236 . S
C330 O345 1.266 . S
C331 Tb321 2.809 . S
C331 C332 1.514 . S
C331 O346 1.248 . S
C331 O347 1.266 . S
C332 C331 1.514 . S
C332 C333 1.359 . S
C332 C337 1.348 . S
C333 C332 1.359 . S
C333 C334 1.380 . S
C333 H356 0.929 . S
C334 C333 1.380 . S
C334 C335 1.347 . S
C334 H357 0.931 . S
C335 C334 1.347 . S
C335 C336 1.369 . S
C336 C335 1.369 . S
C336 C337 1.408 . S
C336 H358 0.930 . S
C337 C332 1.348 . S
C337 C336 1.408 . S
C337 H359 0.930 . S
C338 O348 1.281 . S
C338 O349 1.254 . S
C339 O350 1.236 . S
C339 O351 1.266 . S
O340 Tb320 2.484 . S
O340 C322 1.248 . S
O341 Tb320 2.440 . S
O341 C322 1.266 . S
O342 Tb320 2.658 . S
O342 Tb321 2.325 . S
O342 C329 1.281 . S
O343 Tb320 2.409 . S
O343 C329 1.254 . S
O344 Tb320 2.378 . S
O344 C330 1.236 . S
O345 Tb321 2.341 . S
O345 C330 1.266 . S
O346 Tb321 2.484 . S
O346 C331 1.248 . S
O347 Tb321 2.440 . S
O347 C331 1.266 . S
O348 Tb320 2.325 . S
O348 Tb321 2.658 . S
O348 C338 1.281 . S
O349 Tb321 2.409 . S
O349 C338 1.254 . S
O350 Tb321 2.378 . S
O350 C339 1.236 . S
O351 Tb320 2.341 . S
O351 C339 1.266 . S
H352 C324 0.929 . S
H353 C325 0.931 . S
H354 C327 0.930 . S
H355 C328 0.930 . S
H356 C333 0.929 . S
H357 C334 0.931 . S
H358 C336 0.930 . S
H359 C337 0.930 . S
Tb360 C362 2.809 . S
Tb360 O380 2.484 . S
Tb360 O381 2.440 . S
Tb360 O382 2.658 . S
Tb360 O383 2.409 . S
Tb360 O384 2.378 . S
Tb360 O388 2.325 . S
Tb360 O391 2.341 . S
Tb361 C371 2.809 . S
Tb361 O382 2.325 . S
Tb361 O385 2.341 . S
Tb361 O386 2.484 . S
Tb361 O387 2.440 . S
Tb361 O388 2.658 . S
Tb361 O389 2.409 . S
Tb361 O390 2.378 . S
C362 Tb360 2.809 . S
C362 C363 1.514 . S
C362 O380 1.248 . S
C362 O381 1.266 . S
C363 C362 1.514 . S
C363 C364 1.359 . S
C363 C368 1.348 . S
C364 C363 1.359 . S
C364 C365 1.380 . S
C364 H392 0.929 . S
C365 C364 1.380 . S
C365 C366 1.347 . S
C365 H393 0.931 . S
C366 C365 1.347 . S
C366 C367 1.369 . S
C367 C366 1.369 . S
C367 C368 1.408 . S
C367 H394 0.930 . S
C368 C363 1.348 . S
C368 C367 1.408 . S
C368 H395 0.930 . S
C369 O382 1.281 . S
C369 O383 1.254 . S
C370 O384 1.236 . S
C370 O385 1.266 . S
C371 Tb361 2.809 . S
C371 C372 1.514 . S
C371 O386 1.248 . S
C371 O387 1.266 . S
C372 C371 1.514 . S
C372 C373 1.359 . S
C372 C377 1.348 . S
C373 C372 1.359 . S
C373 C374 1.380 . S
C373 H396 0.929 . S
C374 C373 1.380 . S
C374 C375 1.347 . S
C374 H397 0.931 . S
C375 C374 1.347 . S
C375 C376 1.369 . S
C376 C375 1.369 . S
C376 C377 1.408 . S
C376 H398 0.930 . S
C377 C372 1.348 . S
C377 C376 1.408 . S
C377 H399 0.930 . S
C378 O388 1.281 . S
C378 O389 1.254 . S
C379 O390 1.236 . S
C379 O391 1.266 . S
O380 Tb360 2.484 . S
O380 C362 1.248 . S
O381 Tb360 2.440 . S
O381 C362 1.266 . S
O382 Tb360 2.658 . S
O382 Tb361 2.325 . S
O382 C369 1.281 . S
O383 Tb360 2.409 . S
O383 C369 1.254 . S
O384 Tb360 2.378 . S
O384 C370 1.236 . S
O385 Tb361 2.341 . S
O385 C370 1.266 . S
O386 Tb361 2.484 . S
O386 C371 1.248 . S
O387 Tb361 2.440 . S
O387 C371 1.266 . S
O388 Tb360 2.325 . S
O388 Tb361 2.658 . S
O388 C378 1.281 . S
O389 Tb361 2.409 . S
O389 C378 1.254 . S
O390 Tb361 2.378 . S
O390 C379 1.236 . S
O391 Tb360 2.341 . S
O391 C379 1.266 . S
H392 C364 0.929 . S
H393 C365 0.931 . S
H394 C367 0.930 . S
H395 C368 0.930 . S
H396 C373 0.929 . S
H397 C374 0.931 . S
H398 C376 0.930 . S
H399 C377 0.930 . S
Tb400 C402 2.809 . S
Tb400 O420 2.484 . S
Tb400 O421 2.440 . S
Tb400 O422 2.658 1_556 S
Tb400 O423 2.409 1_556 S
Tb400 O424 2.378 1_556 S
Tb400 O428 2.325 1_556 S
Tb400 O431 2.341 . S
Tb401 C411 2.809 . S
Tb401 O422 2.325 . S
Tb401 O425 2.341 . S
Tb401 O426 2.484 . S
Tb401 O427 2.440 . S
Tb401 O428 2.658 . S
Tb401 O429 2.409 . S
Tb401 O430 2.378 . S
C402 Tb400 2.809 . S
C402 C403 1.514 . S
C402 O420 1.248 . S
C402 O421 1.266 . S
C403 C402 1.514 . S
C403 C404 1.359 . S
C403 C408 1.348 . S
C404 C403 1.359 . S
C404 C405 1.380 . S
C404 H432 0.929 . S
C405 C404 1.380 . S
C405 C406 1.347 . S
C405 H433 0.931 . S
C406 C405 1.347 . S
C406 C407 1.369 . S
C407 C406 1.369 . S
C407 C408 1.408 . S
C407 H434 0.930 . S
C408 C403 1.348 . S
C408 C407 1.408 . S
C408 H435 0.930 . S
C409 O422 1.281 . S
C409 O423 1.254 . S
C410 O424 1.236 . S
C410 O425 1.266 . S
C411 Tb401 2.809 . S
C411 C412 1.514 . S
C411 O426 1.248 . S
C411 O427 1.266 . S
C412 C411 1.514 . S
C412 C413 1.359 . S
C412 C417 1.348 . S
C413 C412 1.359 . S
C413 C414 1.380 . S
C413 H436 0.929 . S
C414 C413 1.380 . S
C414 C415 1.347 . S
C414 H437 0.931 . S
C415 C414 1.347 . S
C415 C416 1.369 . S
C416 C415 1.369 . S
C416 C417 1.408 . S
C416 H438 0.930 . S
C417 C412 1.348 . S
C417 C416 1.408 . S
C417 H439 0.930 . S
C418 O428 1.281 1_556 S
C418 O429 1.254 1_556 S
C419 O430 1.236 . S
C419 O431 1.266 1_554 S
O420 Tb400 2.484 . S
O420 C402 1.248 . S
O421 Tb400 2.440 . S
O421 C402 1.266 . S
O422 Tb400 2.658 1_554 S
O422 Tb401 2.325 . S
O422 C409 1.281 . S
O423 Tb400 2.409 1_554 S
O423 C409 1.254 . S
O424 Tb400 2.378 1_554 S
O424 C410 1.236 . S
O425 Tb401 2.341 . S
O425 C410 1.266 . S
O426 Tb401 2.484 . S
O426 C411 1.248 . S
O427 Tb401 2.440 . S
O427 C411 1.266 . S
O428 Tb400 2.325 1_554 S
O428 Tb401 2.658 . S
O428 C418 1.281 1_554 S
O429 Tb401 2.409 . S
O429 C418 1.254 1_554 S
O430 Tb401 2.378 . S
O430 C419 1.236 . S
O431 Tb400 2.341 . S
O431 C419 1.266 1_556 S
H432 C404 0.929 . S
H433 C405 0.931 . S
H434 C407 0.930 . S
H435 C408 0.930 . S
H436 C413 0.929 . S
H437 C414 0.931 . S
H438 C416 0.930 . S
H439 C417 0.930 . S
Tb440 C442 2.809 . S
Tb440 O460 2.484 . S
Tb440 O461 2.440 . S
Tb440 O462 2.658 . S
Tb440 O463 2.409 . S
Tb440 O464 2.378 . S
Tb440 O468 2.325 . S
Tb440 O471 2.341 . S
Tb441 C451 2.809 . S
Tb441 O462 2.325 . S
Tb441 O465 2.341 . S
Tb441 O466 2.484 . S
Tb441 O467 2.440 . S
Tb441 O468 2.658 . S
Tb441 O469 2.409 . S
Tb441 O470 2.378 . S
C442 Tb440 2.809 . S
C442 C443 1.514 . S
C442 O460 1.248 . S
C442 O461 1.266 . S
C443 C442 1.514 . S
C443 C444 1.359 . S
C443 C448 1.348 . S
C444 C443 1.359 . S
C444 C445 1.380 . S
C444 H472 0.929 . S
C445 C444 1.380 . S
C445 C446 1.347 . S
C445 H473 0.931 . S
C446 C445 1.347 . S
C446 C447 1.369 . S
C447 C446 1.369 . S
C447 C448 1.408 . S
C447 H474 0.930 . S
C448 C443 1.348 . S
C448 C447 1.408 . S
C448 H475 0.930 . S
C449 O462 1.281 . S
C449 O463 1.254 . S
C450 O464 1.236 . S
C450 O465 1.266 . S
C451 Tb441 2.809 . S
C451 C452 1.514 . S
C451 O466 1.248 . S
C451 O467 1.266 . S
C452 C451 1.514 . S
C452 C453 1.359 . S
C452 C457 1.348 . S
C453 C452 1.359 . S
C453 C454 1.380 . S
C453 H476 0.929 . S
C454 C453 1.380 . S
C454 C455 1.347 . S
C454 H477 0.931 . S
C455 C454 1.347 . S
C455 C456 1.369 . S
C456 C455 1.369 . S
C456 C457 1.408 . S
C456 H478 0.930 . S
C457 C452 1.348 . S
C457 C456 1.408 . S
C457 H479 0.930 . S
C458 O468 1.281 . S
C458 O469 1.254 . S
C459 O470 1.236 . S
C459 O471 1.266 . S
O460 Tb440 2.484 . S
O460 C442 1.248 . S
O461 Tb440 2.440 . S
O461 C442 1.266 . S
O462 Tb440 2.658 . S
O462 Tb441 2.325 . S
O462 C449 1.281 . S
O463 Tb440 2.409 . S
O463 C449 1.254 . S
O464 Tb440 2.378 . S
O464 C450 1.236 . S
O465 Tb441 2.341 . S
O465 C450 1.266 . S
O466 Tb441 2.484 . S
O466 C451 1.248 . S
O467 Tb441 2.440 . S
O467 C451 1.266 . S
O468 Tb440 2.325 . S
O468 Tb441 2.658 . S
O468 C458 1.281 . S
O469 Tb441 2.409 . S
O469 C458 1.254 . S
O470 Tb441 2.378 . S
O470 C459 1.236 . S
O471 Tb440 2.341 . S
O471 C459 1.266 . S
H472 C444 0.929 . S
H473 C445 0.931 . S
H474 C447 0.930 . S
H475 C448 0.930 . S
H476 C453 0.929 . S
H477 C454 0.931 . S
H478 C456 0.930 . S
H479 C457 0.930 . S
Tb480 C482 2.809 . S
Tb480 O500 2.484 . S
Tb480 O501 2.440 . S
Tb480 O502 2.658 . S
Tb480 O503 2.409 . S
Tb480 O504 2.378 . S
Tb480 O508 2.325 . S
Tb480 O511 2.341 . S
Tb481 C491 2.809 . S
Tb481 O502 2.325 . S
Tb481 O505 2.341 . S
Tb481 O506 2.484 . S
Tb481 O507 2.440 . S
Tb481 O508 2.658 . S
Tb481 O509 2.409 . S
Tb481 O510 2.378 . S
C482 Tb480 2.809 . S
C482 C483 1.514 . S
C482 O500 1.248 . S
C482 O501 1.266 . S
C483 C482 1.514 . S
C483 C484 1.359 . S
C483 C488 1.348 . S
C484 C483 1.359 . S
C484 C485 1.380 . S
C484 H512 0.929 . S
C485 C484 1.380 . S
C485 C486 1.347 . S
C485 H513 0.931 . S
C486 C485 1.347 . S
C486 C487 1.369 . S
C487 C486 1.369 . S
C487 C488 1.408 . S
C487 H514 0.930 . S
C488 C483 1.348 . S
C488 C487 1.408 . S
C488 H515 0.930 . S
C489 O502 1.281 . S
C489 O503 1.254 . S
C490 O504 1.236 . S
C490 O505 1.266 . S
C491 Tb481 2.809 . S
C491 C492 1.514 . S
C491 O506 1.248 . S
C491 O507 1.266 . S
C492 C491 1.514 . S
C492 C493 1.359 . S
C492 C497 1.348 . S
C493 C492 1.359 . S
C493 C494 1.380 . S
C493 H516 0.929 . S
C494 C493 1.380 . S
C494 C495 1.347 . S
C494 H517 0.931 . S
C495 C494 1.347 . S
C495 C496 1.369 . S
C496 C495 1.369 . S
C496 C497 1.408 . S
C496 H518 0.930 . S
C497 C492 1.348 . S
C497 C496 1.408 . S
C497 H519 0.930 . S
C498 O508 1.281 . S
C498 O509 1.254 . S
C499 O510 1.236 . S
C499 O511 1.266 . S
O500 Tb480 2.484 . S
O500 C482 1.248 . S
O501 Tb480 2.440 . S
O501 C482 1.266 . S
O502 Tb480 2.658 . S
O502 Tb481 2.325 . S
O502 C489 1.281 . S
O503 Tb480 2.409 . S
O503 C489 1.254 . S
O504 Tb480 2.378 . S
O504 C490 1.236 . S
O505 Tb481 2.341 . S
O505 C490 1.266 . S
O506 Tb481 2.484 . S
O506 C491 1.248 . S
O507 Tb481 2.440 . S
O507 C491 1.266 . S
O508 Tb480 2.325 . S
O508 Tb481 2.658 . S
O508 C498 1.281 . S
O509 Tb481 2.409 . S
O509 C498 1.254 . S
O510 Tb481 2.378 . S
O510 C499 1.236 . S
O511 Tb480 2.341 . S
O511 C499 1.266 . S
H512 C484 0.929 . S
H513 C485 0.931 . S
H514 C487 0.930 . S
H515 C488 0.930 . S
H516 C493 0.929 . S
H517 C494 0.931 . S
H518 C496 0.930 . S
H519 C497 0.930 . S
Tb520 C522 2.809 . S
Tb520 O540 2.484 . S
Tb520 O541 2.440 . S
Tb520 O542 2.658 . S
Tb520 O543 2.409 . S
Tb520 O544 2.378 . S
Tb520 O548 2.325 . S
Tb520 O551 2.341 . S
Tb521 C531 2.809 . S
Tb521 O542 2.325 . S
Tb521 O545 2.341 . S
Tb521 O546 2.484 . S
Tb521 O547 2.440 . S
Tb521 O548 2.658 . S
Tb521 O549 2.409 . S
Tb521 O550 2.378 . S
C522 Tb520 2.809 . S
C522 C523 1.514 . S
C522 O540 1.248 . S
C522 O541 1.266 . S
C523 C522 1.514 . S
C523 C524 1.359 . S
C523 C528 1.348 . S
C524 C523 1.359 . S
C524 C525 1.380 . S
C524 H552 0.929 . S
C525 C524 1.380 . S
C525 C526 1.347 . S
C525 H553 0.931 . S
C526 C525 1.347 . S
C526 C527 1.369 . S
C527 C526 1.369 . S
C527 C528 1.408 . S
C527 H554 0.930 . S
C528 C523 1.348 . S
C528 C527 1.408 . S
C528 H555 0.930 . S
C529 O542 1.281 . S
C529 O543 1.254 . S
C530 O544 1.236 . S
C530 O545 1.266 . S
C531 Tb521 2.809 . S
C531 C532 1.514 . S
C531 O546 1.248 . S
C531 O547 1.266 . S
C532 C531 1.514 . S
C532 C533 1.359 . S
C532 C537 1.348 . S
C533 C532 1.359 . S
C533 C534 1.380 . S
C533 H556 0.929 . S
C534 C533 1.380 . S
C534 C535 1.347 . S
C534 H557 0.931 . S
C535 C534 1.347 . S
C535 C536 1.369 . S
C536 C535 1.369 . S
C536 C537 1.408 . S
C536 H558 0.930 . S
C537 C532 1.348 . S
C537 C536 1.408 . S
C537 H559 0.930 . S
C538 O548 1.281 . S
C538 O549 1.254 . S
C539 O550 1.236 . S
C539 O551 1.266 . S
O540 Tb520 2.484 . S
O540 C522 1.248 . S
O541 Tb520 2.440 . S
O541 C522 1.266 . S
O542 Tb520 2.658 . S
O542 Tb521 2.325 . S
O542 C529 1.281 . S
O543 Tb520 2.409 . S
O543 C529 1.254 . S
O544 Tb520 2.378 . S
O544 C530 1.236 . S
O545 Tb521 2.341 . S
O545 C530 1.266 . S
O546 Tb521 2.484 . S
O546 C531 1.248 . S
O547 Tb521 2.440 . S
O547 C531 1.266 . S
O548 Tb520 2.325 . S
O548 Tb521 2.658 . S
O548 C538 1.281 . S
O549 Tb521 2.409 . S
O549 C538 1.254 . S
O550 Tb521 2.378 . S
O550 C539 1.236 . S
O551 Tb520 2.341 . S
O551 C539 1.266 . S
H552 C524 0.929 . S
H553 C525 0.931 . S
H554 C527 0.930 . S
H555 C528 0.930 . S
H556 C533 0.929 . S
H557 C534 0.931 . S
H558 C536 0.930 . S
H559 C537 0.930 . S
Tb560 C562 2.809 . S
Tb560 O580 2.484 . S
Tb560 O581 2.440 . S
Tb560 O582 2.658 . S
Tb560 O583 2.409 . S
Tb560 O584 2.378 . S
Tb560 O588 2.325 . S
Tb560 O591 2.341 . S
Tb561 C571 2.809 . S
Tb561 O582 2.325 1_554 S
Tb561 O585 2.341 . S
Tb561 O586 2.484 . S
Tb561 O587 2.440 . S
Tb561 O588 2.658 1_554 S
Tb561 O589 2.409 1_554 S
Tb561 O590 2.378 1_554 S
C562 Tb560 2.809 . S
C562 C563 1.514 . S
C562 O580 1.248 . S
C562 O581 1.266 . S
C563 C562 1.514 . S
C563 C564 1.359 . S
C563 C568 1.348 . S
C564 C563 1.359 . S
C564 C565 1.380 . S
C564 H592 0.929 . S
C565 C564 1.380 . S
C565 C566 1.347 . S
C565 H593 0.931 . S
C566 C565 1.347 . S
C566 C567 1.369 . S
C567 C566 1.369 . S
C567 C568 1.408 . S
C567 H594 0.930 . S
C568 C563 1.348 . S
C568 C567 1.408 . S
C568 H595 0.930 . S
C569 O582 1.281 1_554 S
C569 O583 1.254 1_554 S
C570 O584 1.236 . S
C570 O585 1.266 1_556 S
C571 Tb561 2.809 . S
C571 C572 1.514 . S
C571 O586 1.248 . S
C571 O587 1.266 . S
C572 C571 1.514 . S
C572 C573 1.359 . S
C572 C577 1.348 . S
C573 C572 1.359 . S
C573 C574 1.380 . S
C573 H596 0.929 . S
C574 C573 1.380 . S
C574 C575 1.347 . S
C574 H597 0.931 . S
C575 C574 1.347 . S
C575 C576 1.369 . S
C576 C575 1.369 . S
C576 C577 1.408 . S
C576 H598 0.930 . S
C577 C572 1.348 . S
C577 C576 1.408 . S
C577 H599 0.930 . S
C578 O588 1.281 . S
C578 O589 1.254 . S
C579 O590 1.236 . S
C579 O591 1.266 . S
O580 Tb560 2.484 . S
O580 C562 1.248 . S
O581 Tb560 2.440 . S
O581 C562 1.266 . S
O582 Tb560 2.658 . S
O582 Tb561 2.325 1_556 S
O582 C569 1.281 1_556 S
O583 Tb560 2.409 . S
O583 C569 1.254 1_556 S
O584 Tb560 2.378 . S
O584 C570 1.236 . S
O585 Tb561 2.341 . S
O585 C570 1.266 1_554 S
O586 Tb561 2.484 . S
O586 C571 1.248 . S
O587 Tb561 2.440 . S
O587 C571 1.266 . S
O588 Tb560 2.325 . S
O588 Tb561 2.658 1_556 S
O588 C578 1.281 . S
O589 Tb561 2.409 1_556 S
O589 C578 1.254 . S
O590 Tb561 2.378 1_556 S
O590 C579 1.236 . S
O591 Tb560 2.341 . S
O591 C579 1.266 . S
H592 C564 0.929 . S
H593 C565 0.931 . S
H594 C567 0.930 . S
H595 C568 0.930 . S
H596 C573 0.929 . S
H597 C574 0.931 . S
H598 C576 0.930 . S
H599 C577 0.930 . S
Tb600 C602 2.809 . S
Tb600 O620 2.484 . S
Tb600 O621 2.440 . S
Tb600 O622 2.658 . S
Tb600 O623 2.409 . S
Tb600 O624 2.378 . S
Tb600 O628 2.325 . S
Tb600 O631 2.341 . S
Tb601 C611 2.809 . S
Tb601 O622 2.325 . S
Tb601 O625 2.341 . S
Tb601 O626 2.484 . S
Tb601 O627 2.440 . S
Tb601 O628 2.658 . S
Tb601 O629 2.409 . S
Tb601 O630 2.378 . S
C602 Tb600 2.809 . S
C602 C603 1.514 . S
C602 O620 1.248 . S
C602 O621 1.266 . S
C603 C602 1.514 . S
C603 C604 1.359 . S
C603 C608 1.348 . S
C604 C603 1.359 . S
C604 C605 1.380 . S
C604 H632 0.929 . S
C605 C604 1.380 . S
C605 C606 1.347 . S
C605 H633 0.931 . S
C606 C605 1.347 . S
C606 C607 1.369 . S
C607 C606 1.369 . S
C607 C608 1.408 . S
C607 H634 0.930 . S
C608 C603 1.348 . S
C608 C607 1.408 . S
C608 H635 0.930 . S
C609 O622 1.281 . S
C609 O623 1.254 . S
C610 O624 1.236 . S
C610 O625 1.266 . S
C611 Tb601 2.809 . S
C611 C612 1.514 . S
C611 O626 1.248 . S
C611 O627 1.266 . S
C612 C611 1.514 . S
C612 C613 1.359 . S
C612 C617 1.348 . S
C613 C612 1.359 . S
C613 C614 1.380 . S
C613 H636 0.929 . S
C614 C613 1.380 . S
C614 C615 1.347 . S
C614 H637 0.931 . S
C615 C614 1.347 . S
C615 C616 1.369 . S
C616 C615 1.369 . S
C616 C617 1.408 . S
C616 H638 0.930 . S
C617 C612 1.348 . S
C617 C616 1.408 . S
C617 H639 0.930 . S
C618 O628 1.281 . S
C618 O629 1.254 . S
C619 O630 1.236 . S
C619 O631 1.266 . S
O620 Tb600 2.484 . S
O620 C602 1.248 . S
O621 Tb600 2.440 . S
O621 C602 1.266 . S
O622 Tb600 2.658 . S
O622 Tb601 2.325 . S
O622 C609 1.281 . S
O623 Tb600 2.409 . S
O623 C609 1.254 . S
O624 Tb600 2.378 . S
O624 C610 1.236 . S
O625 Tb601 2.341 . S
O625 C610 1.266 . S
O626 Tb601 2.484 . S
O626 C611 1.248 . S
O627 Tb601 2.440 . S
O627 C611 1.266 . S
O628 Tb600 2.325 . S
O628 Tb601 2.658 . S
O628 C618 1.281 . S
O629 Tb601 2.409 . S
O629 C618 1.254 . S
O630 Tb601 2.378 . S
O630 C619 1.236 . S
O631 Tb600 2.341 . S
O631 C619 1.266 . S
H632 C604 0.929 . S
H633 C605 0.931 . S
H634 C607 0.930 . S
H635 C608 0.930 . S
H636 C613 0.929 . S
H637 C614 0.931 . S
H638 C616 0.930 . S
H639 C617 0.930 . S
H640 C652 0.930 . S
H641 C654 0.930 . S
H642 C655 0.930 . S
H643 C659 0.959 1_554 S
H644 C659 0.959 . S
H645 C659 0.961 . S
H646 C660 0.960 . S
H647 C660 0.961 . S
H648 C660 0.959 . S
H649 C663 0.929 . S
H650 C664 0.931 . S
H651 C666 0.930 . S
C652 H640 0.930 . S
C652 C653 1.399 . S
C652 C657 1.399 . S
C653 C652 1.399 . S
C653 C654 1.376 . S
C654 H641 0.930 . S
C654 C653 1.376 . S
C654 C655 1.388 . S
C655 H642 0.930 . S
C655 C654 1.388 . S
C655 C656 1.390 . S
C656 C655 1.390 . S
C656 C657 1.394 . S
C656 C662 1.465 . S
C657 C652 1.399 . S
C657 C656 1.394 . S
C657 C658 1.516 . S
C658 C657 1.516 . S
C658 C659 1.502 1_554 S
C658 C660 1.561 1_554 S
C658 C661 1.526 . S
C659 H643 0.959 1_556 S
C659 H644 0.959 . S
C659 H645 0.961 . S
C659 C658 1.502 1_556 S
C660 H646 0.960 . S
C660 H647 0.961 . S
C660 H648 0.959 . S
C660 C658 1.561 1_556 S
C661 C658 1.526 . S
C661 C662 1.396 . S
C661 C666 1.390 . S
C662 C656 1.465 . S
C662 C661 1.396 . S
C662 C663 1.399 . S
C663 H649 0.929 . S
C663 C662 1.399 . S
C663 C664 1.385 . S
C664 H650 0.931 . S
C664 C663 1.385 . S
C664 C665 1.389 . S
C665 C664 1.389 . S
C665 C666 1.387 . S
C666 H651 0.930 . S
C666 C661 1.390 . S
C666 C665 1.387 . S
H667 C679 0.930 . S
H668 C681 0.930 . S
H669 C682 0.930 . S
H670 C686 0.959 . S
H671 C686 0.959 . S
H672 C686 0.961 . S
H673 C687 0.960 . S
H674 C687 0.961 . S
H675 C687 0.959 . S
H676 C690 0.929 . S
H677 C691 0.931 . S
H678 C693 0.930 . S
C679 H667 0.930 . S
C679 C680 1.399 . S
C679 C684 1.399 . S
C680 C679 1.399 . S
C680 C681 1.376 . S
C681 H668 0.930 . S
C681 C680 1.376 . S
C681 C682 1.388 . S
C682 H669 0.930 . S
C682 C681 1.388 . S
C682 C683 1.390 . S
C683 C682 1.390 . S
C683 C684 1.394 . S
C683 C689 1.465 . S
C684 C679 1.399 . S
C684 C683 1.394 . S
C684 C685 1.516 . S
C685 C684 1.516 . S
C685 C686 1.502 . S
C685 C687 1.561 . S
C685 C688 1.526 . S
C686 H670 0.959 . S
C686 H671 0.959 . S
C686 H672 0.961 . S
C686 C685 1.502 . S
C687 H673 0.960 . S
C687 H674 0.961 . S
C687 H675 0.959 . S
C687 C685 1.561 . S
C688 C685 1.526 . S
C688 C689 1.396 . S
C688 C693 1.390 . S
C689 C683 1.465 . S
C689 C688 1.396 . S
C689 C690 1.399 . S
C690 H676 0.929 . S
C690 C689 1.399 . S
C690 C691 1.385 . S
C691 H677 0.931 . S
C691 C690 1.385 . S
C691 C692 1.389 . S
C692 C691 1.389 . S
C692 C693 1.387 . S
C693 H678 0.930 . S
C693 C688 1.390 . S
C693 C692 1.387 . S
H694 C706 0.930 . S
H695 C708 0.930 . S
H696 C709 0.930 . S
H697 C713 0.959 . S
H698 C713 0.959 . S
H699 C713 0.961 . S
H700 C714 0.960 . S
H701 C714 0.961 . S
H702 C714 0.959 . S
H703 C717 0.929 . S
H704 C718 0.931 . S
H705 C720 0.930 . S
C706 H694 0.930 . S
C706 C707 1.399 . S
C706 C711 1.399 . S
C707 C706 1.399 . S
C707 C708 1.376 . S
C708 H695 0.930 . S
C708 C707 1.376 . S
C708 C709 1.388 . S
C709 H696 0.930 . S
C709 C708 1.388 . S
C709 C710 1.390 . S
C710 C709 1.390 . S
C710 C711 1.394 . S
C710 C716 1.465 1_455 S
C711 C706 1.399 . S
C711 C710 1.394 . S
C711 C712 1.516 1_455 S
C712 C711 1.516 1_655 S
C712 C713 1.502 . S
C712 C714 1.561 1_655 S
C712 C715 1.526 . S
C713 H697 0.959 . S
C713 H698 0.959 . S
C713 H699 0.961 . S
C713 C712 1.502 . S
C714 H700 0.960 . S
C714 H701 0.961 . S
C714 H702 0.959 . S
C714 C712 1.561 1_455 S
C715 C712 1.526 . S
C715 C716 1.396 . S
C715 C720 1.390 . S
C716 C710 1.465 1_655 S
C716 C715 1.396 . S
C716 C717 1.399 . S
C717 H703 0.929 . S
C717 C716 1.399 . S
C717 C718 1.385 . S
C718 H704 0.931 . S
C718 C717 1.385 . S
C718 C719 1.389 . S
C719 C718 1.389 . S
C719 C720 1.387 . S
C720 H705 0.930 . S
C720 C715 1.390 . S
C720 C719 1.387 . S
H721 C733 0.930 . S
H722 C735 0.930 . S
H723 C736 0.930 . S
H724 C740 0.959 . S
H725 C740 0.959 . S
H726 C740 0.961 . S
H727 C741 0.960 . S
H728 C741 0.961 . S
H729 C741 0.959 . S
H730 C744 0.929 . S
H731 C745 0.931 . S
H732 C747 0.930 . S
C733 H721 0.930 . S
C733 C734 1.399 . S
C733 C738 1.399 . S
C734 C733 1.399 . S
C734 C735 1.376 . S
C735 H722 0.930 . S
C735 C734 1.376 . S
C735 C736 1.388 . S
C736 H723 0.930 . S
C736 C735 1.388 . S
C736 C737 1.390 . S
C737 C736 1.390 . S
C737 C738 1.394 . S
C737 C743 1.465 1_655 S
C738 C733 1.399 . S
C738 C737 1.394 . S
C738 C739 1.516 . S
C739 C738 1.516 . S
C739 C740 1.502 . S
C739 C741 1.561 1_655 S
C739 C742 1.526 1_655 S
C740 H724 0.959 . S
C740 H725 0.959 . S
C740 H726 0.961 . S
C740 C739 1.502 . S
C741 H727 0.960 . S
C741 H728 0.961 . S
C741 H729 0.959 . S
C741 C739 1.561 1_455 S
C742 C739 1.526 1_455 S
C742 C743 1.396 . S
C742 C747 1.390 . S
C743 C737 1.465 1_455 S
C743 C742 1.396 . S
C743 C744 1.399 . S
C744 H730 0.929 . S
C744 C743 1.399 . S
C744 C745 1.385 . S
C745 H731 0.931 . S
C745 C744 1.385 . S
C745 C746 1.389 . S
C746 C745 1.389 . S
C746 C747 1.387 . S
C747 H732 0.930 . S
C747 C742 1.390 . S
C747 C746 1.387 . S
H748 C760 0.930 . S
H749 C762 0.930 . S
H750 C763 0.930 . S
H751 C767 0.959 1_556 S
H752 C767 0.959 . S
H753 C767 0.961 . S
H754 C768 0.960 . S
H755 C768 0.961 . S
H756 C768 0.959 . S
H757 C771 0.929 . S
H758 C772 0.931 . S
H759 C774 0.930 . S
C760 H748 0.930 . S
C760 C761 1.399 . S
C760 C765 1.399 . S
C761 C760 1.399 . S
C761 C762 1.376 . S
C762 H749 0.930 . S
C762 C761 1.376 . S
C762 C763 1.388 . S
C763 H750 0.930 . S
C763 C762 1.388 . S
C763 C764 1.390 . S
C764 C763 1.390 . S
C764 C765 1.394 . S
C764 C770 1.465 . S
C765 C760 1.399 . S
C765 C764 1.394 . S
C765 C766 1.516 . S
C766 C765 1.516 . S
C766 C767 1.502 1_556 S
C766 C768 1.561 1_556 S
C766 C769 1.526 . S
C767 H751 0.959 1_554 S
C767 H752 0.959 . S
C767 H753 0.961 . S
C767 C766 1.502 1_554 S
C768 H754 0.960 . S
C768 H755 0.961 . S
C768 H756 0.959 . S
C768 C766 1.561 1_554 S
C769 C766 1.526 . S
C769 C770 1.396 . S
C769 C774 1.390 . S
C770 C764 1.465 . S
C770 C769 1.396 . S
C770 C771 1.399 . S
C771 H757 0.929 . S
C771 C770 1.399 . S
C771 C772 1.385 . S
C772 H758 0.931 . S
C772 C771 1.385 . S
C772 C773 1.389 . S
C773 C772 1.389 . S
C773 C774 1.387 . S
C774 H759 0.930 . S
C774 C769 1.390 . S
C774 C773 1.387 . S
H775 C787 0.930 . S
H776 C789 0.930 . S
H777 C790 0.930 . S
H778 C794 0.959 . S
H779 C794 0.959 . S
H780 C794 0.961 . S
H781 C795 0.960 . S
H782 C795 0.961 . S
H783 C795 0.959 . S
H784 C798 0.929 . S
H785 C799 0.931 . S
H786 C801 0.930 . S
C787 H775 0.930 . S
C787 C788 1.399 . S
C787 C792 1.399 . S
C788 C787 1.399 . S
C788 C789 1.376 . S
C789 H776 0.930 . S
C789 C788 1.376 . S
C789 C790 1.388 . S
C790 H777 0.930 . S
C790 C789 1.388 . S
C790 C791 1.390 . S
C791 C790 1.390 . S
C791 C792 1.394 . S
C791 C797 1.465 . S
C792 C787 1.399 . S
C792 C791 1.394 . S
C792 C793 1.516 . S
C793 C792 1.516 . S
C793 C794 1.502 . S
C793 C795 1.561 . S
C793 C796 1.526 . S
C794 H778 0.959 . S
C794 H779 0.959 . S
C794 H780 0.961 . S
C794 C793 1.502 . S
C795 H781 0.960 . S
C795 H782 0.961 . S
C795 H783 0.959 . S
C795 C793 1.561 . S
C796 C793 1.526 . S
C796 C797 1.396 . S
C796 C801 1.390 . S
C797 C791 1.465 . S
C797 C796 1.396 . S
C797 C798 1.399 . S
C798 H784 0.929 . S
C798 C797 1.399 . S
C798 C799 1.385 . S
C799 H785 0.931 . S
C799 C798 1.385 . S
C799 C800 1.389 . S
C800 C799 1.389 . S
C800 C801 1.387 . S
C801 H786 0.930 . S
C801 C796 1.390 . S
C801 C800 1.387 . S
H802 C814 0.930 . S
H803 C816 0.930 . S
H804 C817 0.930 . S
H805 C821 0.959 . S
H806 C821 0.959 . S
H807 C821 0.961 . S
H808 C822 0.960 . S
H809 C822 0.961 1_455 S
H810 C822 0.959 . S
H811 C825 0.932 . S
H812 C826 0.931 . S
H813 C828 0.930 . S
C814 H802 0.930 . S
C814 C815 1.399 . S
C814 C819 1.399 . S
C815 C814 1.399 . S
C815 C816 1.376 . S
C816 H803 0.930 . S
C816 C815 1.376 . S
C816 C817 1.388 . S
C817 H804 0.930 . S
C817 C816 1.388 . S
C817 C818 1.390 . S
C818 C817 1.390 . S
C818 C819 1.394 . S
C818 C824 1.465 1_655 S
C819 C814 1.399 . S
C819 C818 1.394 . S
C819 C820 1.516 1_655 S
C820 C819 1.516 1_455 S
C820 C821 1.502 . S
C820 C822 1.561 1_455 S
C820 C823 1.526 . S
C821 H805 0.959 . S
C821 H806 0.959 . S
C821 H807 0.961 . S
C821 C820 1.502 . S
C822 H808 0.960 . S
C822 H809 0.961 1_655 S
C822 H810 0.959 . S
C822 C820 1.561 1_655 S
C823 C820 1.526 . S
C823 C824 1.396 . S
C823 C828 1.390 . S
C824 C818 1.465 1_455 S
C824 C823 1.396 . S
C824 C825 1.399 . S
C825 H811 0.932 . S
C825 C824 1.399 . S
C825 C826 1.385 . S
C826 H812 0.931 . S
C826 C825 1.385 . S
C826 C827 1.389 . S
C827 C826 1.389 . S
C827 C828 1.387 . S
C828 H813 0.930 . S
C828 C823 1.390 . S
C828 C827 1.387 . S
H829 C841 0.930 . S
H830 C843 0.930 . S
H831 C844 0.930 . S
H832 C848 0.959 1_455 S
H833 C848 0.959 . S
H834 C848 0.961 1_455 S
H835 C849 0.960 . S
H836 C849 0.961 . S
H837 C849 0.959 . S
H838 C852 0.929 . S
H839 C853 0.931 . S
H840 C855 0.930 . S
C841 H829 0.930 . S
C841 C842 1.399 . S
C841 C846 1.399 . S
C842 C841 1.399 . S
C842 C843 1.376 . S
C843 H830 0.930 . S
C843 C842 1.376 . S
C843 C844 1.388 . S
C844 H831 0.930 . S
C844 C843 1.388 . S
C844 C845 1.390 . S
C845 C844 1.390 . S
C845 C846 1.394 . S
C845 C851 1.465 1_455 S
C846 C841 1.399 . S
C846 C845 1.394 . S
C846 C847 1.516 1_455 S
C847 C846 1.516 1_655 S
C847 C848 1.502 . S
C847 C849 1.561 . S
C847 C850 1.526 . S
C848 H832 0.959 1_655 S
C848 H833 0.959 . S
C848 H834 0.961 1_655 S
C848 C847 1.502 . S
C849 H835 0.960 . S
C849 H836 0.961 . S
C849 H837 0.959 . S
C849 C847 1.561 . S
C850 C847 1.526 . S
C850 C851 1.396 . S
C850 C855 1.390 . S
C851 C845 1.465 1_655 S
C851 C850 1.396 . S
C851 C852 1.399 . S
C852 H838 0.929 . S
C852 C851 1.399 . S
C852 C853 1.385 . S
C853 H839 0.931 . S
C853 C852 1.385 . S
C853 C854 1.389 . S
C854 C853 1.389 . S
C854 C855 1.387 . S
C855 H840 0.930 . S
C855 C850 1.390 . S
C855 C854 1.387 . S
H856 C868 0.930 . S
H857 C870 0.930 . S
H858 C871 0.930 . S
H859 C875 0.959 . S
H860 C875 0.959 . S
H861 C875 0.961 . S
H862 C876 0.960 . S
H863 C876 0.961 . S
H864 C876 0.959 . S
H865 C879 0.929 . S
H866 C880 0.931 . S
H867 C882 0.930 . S
C868 H856 0.930 . S
C868 C869 1.399 . S
C868 C873 1.399 . S
C869 C868 1.399 . S
C869 C870 1.376 . S
C870 H857 0.930 . S
C870 C869 1.376 . S
C870 C871 1.388 . S
C871 H858 0.930 . S
C871 C870 1.388 . S
C871 C872 1.390 . S
C872 C871 1.390 . S
C872 C873 1.394 . S
C872 C878 1.465 . S
C873 C868 1.399 . S
C873 C872 1.394 . S
C873 C874 1.516 . S
C874 C873 1.516 . S
C874 C875 1.502 . S
C874 C876 1.561 . S
C874 C877 1.526 . S
C875 H859 0.959 . S
C875 H860 0.959 . S
C875 H861 0.961 . S
C875 C874 1.502 . S
C876 H862 0.960 . S
C876 H863 0.961 . S
C876 H864 0.959 . S
C876 C874 1.561 . S
C877 C874 1.526 . S
C877 C878 1.396 . S
C877 C882 1.390 . S
C878 C872 1.465 . S
C878 C877 1.396 . S
C878 C879 1.399 . S
C879 H865 0.929 . S
C879 C878 1.399 . S
C879 C880 1.385 . S
C880 H866 0.931 . S
C880 C879 1.385 . S
C880 C881 1.389 . S
C881 C880 1.389 . S
C881 C882 1.387 . S
C882 H867 0.930 . S
C882 C877 1.390 . S
C882 C881 1.387 . S
H883 C895 0.930 . S
H884 C897 0.930 . S
H885 C898 0.930 . S
H886 C902 0.959 . S
H887 C902 0.959 . S
H888 C902 0.961 . S
H889 C903 0.960 . S
H890 C903 0.961 . S
H891 C903 0.959 . S
H892 C906 0.929 . S
H893 C907 0.931 . S
H894 C909 0.930 . S
C895 H883 0.930 . S
C895 C896 1.399 . S
C895 C900 1.399 . S
C896 C895 1.399 . S
C896 C897 1.376 . S
C897 H884 0.930 . S
C897 C896 1.376 . S
C897 C898 1.388 . S
C898 H885 0.930 . S
C898 C897 1.388 . S
C898 C899 1.390 . S
C899 C898 1.390 . S
C899 C900 1.394 . S
C899 C905 1.465 . S
C900 C895 1.399 . S
C900 C899 1.394 . S
C900 C901 1.516 . S
C901 C900 1.516 . S
C901 C902 1.502 . S
C901 C903 1.561 . S
C901 C904 1.526 . S
C902 H886 0.959 . S
C902 H887 0.959 . S
C902 H888 0.961 . S
C902 C901 1.502 . S
C903 H889 0.960 . S
C903 H890 0.961 . S
C903 H891 0.959 . S
C903 C901 1.561 . S
C904 C901 1.526 . S
C904 C905 1.396 . S
C904 C909 1.390 . S
C905 C899 1.465 . S
C905 C904 1.396 . S
C905 C906 1.399 . S
C906 H892 0.929 . S
C906 C905 1.399 . S
C906 C907 1.385 . S
C907 H893 0.931 . S
C907 C906 1.385 . S
C907 C908 1.389 . S
C908 C907 1.389 . S
C908 C909 1.387 . S
C909 H894 0.930 . S
C909 C904 1.390 . S
C909 C908 1.387 . S
H910 C922 0.930 . S
H911 C924 0.930 . S
H912 C925 0.930 . S
H913 C929 0.959 . S
H914 C929 0.959 . S
H915 C929 0.961 . S
H916 C930 0.960 . S
H917 C930 0.961 . S
H918 C930 0.959 . S
H919 C933 0.929 . S
H920 C934 0.931 . S
H921 C936 0.930 . S
C922 H910 0.930 . S
C922 C923 1.399 . S
C922 C927 1.399 . S
C923 C922 1.399 . S
C923 C924 1.376 . S
C924 H911 0.930 . S
C924 C923 1.376 . S
C924 C925 1.388 . S
C925 H912 0.930 . S
C925 C924 1.388 . S
C925 C926 1.390 . S
C926 C925 1.390 . S
C926 C927 1.394 . S
C926 C932 1.465 . S
C927 C922 1.399 . S
C927 C926 1.394 . S
C927 C928 1.516 . S
C928 C927 1.516 . S
C928 C929 1.502 . S
C928 C930 1.561 . S
C928 C931 1.526 . S
C929 H913 0.959 . S
C929 H914 0.959 . S
C929 H915 0.961 . S
C929 C928 1.502 . S
C930 H916 0.960 . S
C930 H917 0.961 . S
C930 H918 0.959 . S
C930 C928 1.561 . S
C931 C928 1.526 . S
C931 C932 1.396 . S
C931 C936 1.390 . S
C932 C926 1.465 . S
C932 C931 1.396 . S
C932 C933 1.399 . S
C933 H919 0.929 . S
C933 C932 1.399 . S
C933 C934 1.385 . S
C934 H920 0.931 . S
C934 C933 1.385 . S
C934 C935 1.389 . S
C935 C934 1.389 . S
C935 C936 1.387 . S
C936 H921 0.930 . S
C936 C931 1.390 . S
C936 C935 1.387 . S
H937 C949 0.930 . S
H938 C951 0.930 . S
H939 C952 0.930 . S
H940 C956 0.959 . S
H941 C956 0.959 . S
H942 C956 0.961 . S
H943 C957 0.960 . S
H944 C957 0.961 . S
H945 C957 0.959 . S
H946 C960 0.929 . S
H947 C961 0.931 . S
H948 C963 0.930 . S
C949 H937 0.930 . S
C949 C950 1.399 . S
C949 C954 1.399 . S
C950 C949 1.399 . S
C950 C951 1.376 . S
C951 H938 0.930 . S
C951 C950 1.376 . S
C951 C952 1.388 . S
C952 H939 0.930 . S
C952 C951 1.388 . S
C952 C953 1.390 . S
C953 C952 1.390 . S
C953 C954 1.394 . S
C953 C959 1.465 . S
C954 C949 1.399 . S
C954 C953 1.394 . S
C954 C955 1.516 . S
C955 C954 1.516 . S
C955 C956 1.502 . S
C955 C957 1.561 . S
C955 C958 1.526 . S
C956 H940 0.959 . S
C956 H941 0.959 . S
C956 H942 0.961 . S
C956 C955 1.502 . S
C957 H943 0.960 . S
C957 H944 0.961 . S
C957 H945 0.959 . S
C957 C955 1.561 . S
C958 C955 1.526 . S
C958 C959 1.396 . S
C958 C963 1.390 . S
C959 C953 1.465 . S
C959 C958 1.396 . S
C959 C960 1.399 . S
C960 H946 0.929 . S
C960 C959 1.399 . S
C960 C961 1.385 . S
C961 H947 0.931 . S
C961 C960 1.385 . S
C961 C962 1.389 . S
C962 C961 1.389 . S
C962 C963 1.387 . S
C963 H948 0.930 . S
C963 C958 1.390 . S
C963 C962 1.387 . S
H964 C976 0.930 . S
H965 C978 0.930 . S
H966 C979 0.930 . S
H967 C983 0.959 . S
H968 C983 0.959 . S
H969 C983 0.961 . S
H970 C984 0.960 . S
H971 C984 0.961 . S
H972 C984 0.959 . S
H973 C987 0.929 . S
H974 C988 0.931 . S
H975 C990 0.930 . S
C976 H964 0.930 . S
C976 C977 1.399 . S
C976 C981 1.399 . S
C977 C976 1.399 . S
C977 C978 1.376 . S
C978 H965 0.930 . S
C978 C977 1.376 . S
C978 C979 1.388 . S
C979 H966 0.930 . S
C979 C978 1.388 . S
C979 C980 1.390 . S
C980 C979 1.390 . S
C980 C981 1.394 . S
C980 C986 1.465 . S
C981 C976 1.399 . S
C981 C980 1.394 . S
C981 C982 1.516 . S
C982 C981 1.516 . S
C982 C983 1.502 . S
C982 C984 1.561 . S
C982 C985 1.526 . S
C983 H967 0.959 . S
C983 H968 0.959 . S
C983 H969 0.961 . S
C983 C982 1.502 . S
C984 H970 0.960 . S
C984 H971 0.961 . S
C984 H972 0.959 . S
C984 C982 1.561 . S
C985 C982 1.526 . S
C985 C986 1.396 . S
C985 C990 1.390 . S
C986 C980 1.465 . S
C986 C985 1.396 . S
C986 C987 1.399 . S
C987 H973 0.929 . S
C987 C986 1.399 . S
C987 C988 1.385 . S
C988 H974 0.931 . S
C988 C987 1.385 . S
C988 C989 1.389 . S
C989 C988 1.389 . S
C989 C990 1.387 . S
C990 H975 0.930 . S
C990 C985 1.390 . S
C990 C989 1.387 . S
H991 C1003 0.930 . S
H992 C1005 0.930 . S
H993 C1006 0.930 . S
H994 C1010 0.959 . S
H995 C1010 0.959 . S
H996 C1010 0.961 . S
H997 C1011 0.960 . S
H998 C1011 0.961 . S
H999 C1011 0.959 . S
H1000 C1014 0.929 . S
H1001 C1015 0.931 . S
H1002 C1017 0.930 . S
C1003 H991 0.930 . S
C1003 C1004 1.399 . S
C1003 C1008 1.399 . S
C1004 C1003 1.399 . S
C1004 C1005 1.376 . S
C1005 H992 0.930 . S
C1005 C1004 1.376 . S
C1005 C1006 1.388 . S
C1006 H993 0.930 . S
C1006 C1005 1.388 . S
C1006 C1007 1.390 . S
C1007 C1006 1.390 . S
C1007 C1008 1.394 . S
C1007 C1013 1.465 . S
C1008 C1003 1.399 . S
C1008 C1007 1.394 . S
C1008 C1009 1.516 . S
C1009 C1008 1.516 . S
C1009 C1010 1.502 . S
C1009 C1011 1.561 . S
C1009 C1012 1.526 . S
C1010 H994 0.959 . S
C1010 H995 0.959 . S
C1010 H996 0.961 . S
C1010 C1009 1.502 . S
C1011 H997 0.960 . S
C1011 H998 0.961 . S
C1011 H999 0.959 . S
C1011 C1009 1.561 . S
C1012 C1009 1.526 . S
C1012 C1013 1.396 . S
C1012 C1017 1.390 . S
C1013 C1007 1.465 . S
C1013 C1012 1.396 . S
C1013 C1014 1.399 . S
C1014 H1000 0.929 . S
C1014 C1013 1.399 . S
C1014 C1015 1.385 . S
C1015 H1001 0.931 . S
C1015 C1014 1.385 . S
C1015 C1016 1.389 . S
C1016 C1015 1.389 . S
C1016 C1017 1.387 . S
C1017 H1002 0.930 . S
C1017 C1012 1.390 . S
C1017 C1016 1.387 . S
H1018 C1030 0.930 . S
H1019 C1032 0.930 . S
H1020 C1033 0.930 . S
H1021 C1037 0.959 . S
H1022 C1037 0.959 . S
H1023 C1037 0.961 . S
H1024 C1038 0.960 . S
H1025 C1038 0.961 . S
H1026 C1038 0.959 . S
H1027 C1041 0.929 . S
H1028 C1042 0.931 . S
H1029 C1044 0.930 . S
C1030 H1018 0.930 . S
C1030 C1031 1.399 . S
C1030 C1035 1.399 . S
C1031 C1030 1.399 . S
C1031 C1032 1.376 . S
C1032 H1019 0.930 . S
C1032 C1031 1.376 . S
C1032 C1033 1.388 . S
C1033 H1020 0.930 . S
C1033 C1032 1.388 . S
C1033 C1034 1.390 . S
C1034 C1033 1.390 . S
C1034 C1035 1.394 . S
C1034 C1040 1.465 . S
C1035 C1030 1.399 . S
C1035 C1034 1.394 . S
C1035 C1036 1.516 . S
C1036 C1035 1.516 . S
C1036 C1037 1.502 . S
C1036 C1038 1.561 . S
C1036 C1039 1.526 . S
C1037 H1021 0.959 . S
C1037 H1022 0.959 . S
C1037 H1023 0.961 . S
C1037 C1036 1.502 . S
C1038 H1024 0.960 . S
C1038 H1025 0.961 . S
C1038 H1026 0.959 . S
C1038 C1036 1.561 . S
C1039 C1036 1.526 . S
C1039 C1040 1.396 . S
C1039 C1044 1.390 . S
C1040 C1034 1.465 . S
C1040 C1039 1.396 . S
C1040 C1041 1.399 . S
C1041 H1027 0.929 . S
C1041 C1040 1.399 . S
C1041 C1042 1.385 . S
C1042 H1028 0.931 . S
C1042 C1041 1.385 . S
C1042 C1043 1.389 . S
C1043 C1042 1.389 . S
C1043 C1044 1.387 . S
C1044 H1029 0.930 . S
C1044 C1039 1.390 . S
C1044 C1043 1.387 . S
H1045 C1057 0.930 . S
H1046 C1059 0.930 . S
H1047 C1060 0.930 . S
H1048 C1064 0.959 . S
H1049 C1064 0.959 . S
H1050 C1064 0.961 . S
H1051 C1065 0.960 . S
H1052 C1065 0.961 . S
H1053 C1065 0.959 . S
H1054 C1068 0.929 . S
H1055 C1069 0.931 . S
H1056 C1071 0.930 . S
C1057 H1045 0.930 . S
C1057 C1058 1.399 . S
C1057 C1062 1.399 . S
C1058 C1057 1.399 . S
C1058 C1059 1.376 . S
C1059 H1046 0.930 . S
C1059 C1058 1.376 . S
C1059 C1060 1.388 . S
C1060 H1047 0.930 . S
C1060 C1059 1.388 . S
C1060 C1061 1.390 . S
C1061 C1060 1.390 . S
C1061 C1062 1.394 . S
C1061 C1067 1.465 . S
C1062 C1057 1.399 . S
C1062 C1061 1.394 . S
C1062 C1063 1.516 . S
C1063 C1062 1.516 . S
C1063 C1064 1.502 . S
C1063 C1065 1.561 . S
C1063 C1066 1.526 . S
C1064 H1048 0.959 . S
C1064 H1049 0.959 . S
C1064 H1050 0.961 . S
C1064 C1063 1.502 . S
C1065 H1051 0.960 . S
C1065 H1052 0.961 . S
C1065 H1053 0.959 . S
C1065 C1063 1.561 . S
C1066 C1063 1.526 . S
C1066 C1067 1.396 . S
C1066 C1071 1.390 . S
C1067 C1061 1.465 . S
C1067 C1066 1.396 . S
C1067 C1068 1.399 . S
C1068 H1054 0.929 . S
C1068 C1067 1.399 . S
C1068 C1069 1.385 . S
C1069 H1055 0.931 . S
C1069 C1068 1.385 . S
C1069 C1070 1.389 . S
C1070 C1069 1.389 . S
C1070 C1071 1.387 . S
C1071 H1056 0.930 . S
C1071 C1066 1.390 . S
C1071 C1070 1.387 . S
H1072 C1084 0.930 . S
H1073 C1086 0.930 . S
H1074 C1087 0.930 . S
H1075 C1091 0.959 . S
H1076 C1091 0.959 . S
H1077 C1091 0.961 . S
H1078 C1092 0.960 . S
H1079 C1092 0.961 . S
H1080 C1092 0.959 . S
H1081 C1095 0.929 . S
H1082 C1096 0.931 . S
H1083 C1098 0.930 . S
C1084 H1072 0.930 . S
C1084 C1085 1.399 . S
C1084 C1089 1.399 . S
C1085 C1084 1.399 . S
C1085 C1086 1.376 . S
C1086 H1073 0.930 . S
C1086 C1085 1.376 . S
C1086 C1087 1.388 . S
C1087 H1074 0.930 . S
C1087 C1086 1.388 . S
C1087 C1088 1.390 . S
C1088 C1087 1.390 . S
C1088 C1089 1.394 . S
C1088 C1094 1.465 . S
C1089 C1084 1.399 . S
C1089 C1088 1.394 . S
C1089 C1090 1.516 . S
C1090 C1089 1.516 . S
C1090 C1091 1.502 . S
C1090 C1092 1.561 . S
C1090 C1093 1.526 . S
C1091 H1075 0.959 . S
C1091 H1076 0.959 . S
C1091 H1077 0.961 . S
C1091 C1090 1.502 . S
C1092 H1078 0.960 . S
C1092 H1079 0.961 . S
C1092 H1080 0.959 . S
C1092 C1090 1.561 . S
C1093 C1090 1.526 . S
C1093 C1094 1.396 . S
C1093 C1098 1.390 . S
C1094 C1088 1.465 . S
C1094 C1093 1.396 . S
C1094 C1095 1.399 . S
C1095 H1081 0.929 . S
C1095 C1094 1.399 . S
C1095 C1096 1.385 . S
C1096 H1082 0.931 . S
C1096 C1095 1.385 . S
C1096 C1097 1.389 . S
C1097 C1096 1.389 . S
C1097 C1098 1.387 . S
C1098 H1083 0.930 . S
C1098 C1093 1.390 . S
C1098 C1097 1.387 . S
H1099 C1111 0.930 . S
H1100 C1113 0.930 . S
H1101 C1114 0.930 . S
H1102 C1118 0.959 . S
H1103 C1118 0.959 . S
H1104 C1118 0.961 . S
H1105 C1119 0.960 . S
H1106 C1119 0.961 . S
H1107 C1119 0.959 . S
H1108 C1122 0.929 . S
H1109 C1123 0.931 . S
H1110 C1125 0.930 . S
C1111 H1099 0.930 . S
C1111 C1112 1.399 . S
C1111 C1116 1.399 1_545 S
C1112 C1111 1.399 . S
C1112 C1113 1.376 . S
C1113 H1100 0.930 . S
C1113 C1112 1.376 . S
C1113 C1114 1.388 . S
C1114 H1101 0.930 . S
C1114 C1113 1.388 . S
C1114 C1115 1.390 1_545 S
C1115 C1114 1.390 1_565 S
C1115 C1116 1.394 . S
C1115 C1121 1.465 . S
C1116 C1111 1.399 1_565 S
C1116 C1115 1.394 . S
C1116 C1117 1.516 . S
C1117 C1116 1.516 . S
C1117 C1118 1.502 . S
C1117 C1119 1.561 . S
C1117 C1120 1.526 . S
C1118 H1102 0.959 . S
C1118 H1103 0.959 . S
C1118 H1104 0.961 . S
C1118 C1117 1.502 . S
C1119 H1105 0.960 . S
C1119 H1106 0.961 . S
C1119 H1107 0.959 . S
C1119 C1117 1.561 . S
C1120 C1117 1.526 . S
C1120 C1121 1.396 . S
C1120 C1125 1.390 . S
C1121 C1115 1.465 . S
C1121 C1120 1.396 . S
C1121 C1122 1.399 . S
C1122 H1108 0.929 . S
C1122 C1121 1.399 . S
C1122 C1123 1.385 . S
C1123 H1109 0.931 . S
C1123 C1122 1.385 . S
C1123 C1124 1.389 . S
C1124 C1123 1.389 . S
C1124 C1125 1.387 . S
C1125 H1110 0.930 . S
C1125 C1120 1.390 . S
C1125 C1124 1.387 . S
H1126 C1138 0.930 . S
H1127 C1140 0.930 . S
H1128 C1141 0.930 . S
H1129 C1145 0.959 . S
H1130 C1145 0.959 . S
H1131 C1145 0.961 . S
H1132 C1146 0.960 . S
H1133 C1146 0.961 . S
H1134 C1146 0.959 . S
H1135 C1149 0.929 . S
H1136 C1150 0.931 . S
H1137 C1152 0.930 . S
C1138 H1126 0.930 . S
C1138 C1139 1.399 . S
C1138 C1143 1.399 . S
C1139 C1138 1.399 . S
C1139 C1140 1.376 . S
C1140 H1127 0.930 . S
C1140 C1139 1.376 . S
C1140 C1141 1.388 . S
C1141 H1128 0.930 . S
C1141 C1140 1.388 . S
C1141 C1142 1.390 . S
C1142 C1141 1.390 . S
C1142 C1143 1.394 . S
C1142 C1148 1.465 . S
C1143 C1138 1.399 . S
C1143 C1142 1.394 . S
C1143 C1144 1.516 . S
C1144 C1143 1.516 . S
C1144 C1145 1.502 . S
C1144 C1146 1.561 . S
C1144 C1147 1.526 . S
C1145 H1129 0.959 . S
C1145 H1130 0.959 . S
C1145 H1131 0.961 . S
C1145 C1144 1.502 . S
C1146 H1132 0.960 . S
C1146 H1133 0.961 . S
C1146 H1134 0.959 . S
C1146 C1144 1.561 . S
C1147 C1144 1.526 . S
C1147 C1148 1.396 . S
C1147 C1152 1.390 . S
C1148 C1142 1.465 . S
C1148 C1147 1.396 . S
C1148 C1149 1.399 . S
C1149 H1135 0.929 . S
C1149 C1148 1.399 . S
C1149 C1150 1.385 . S
C1150 H1136 0.931 . S
C1150 C1149 1.385 . S
C1150 C1151 1.389 . S
C1151 C1150 1.389 . S
C1151 C1152 1.387 . S
C1152 H1137 0.930 . S
C1152 C1147 1.390 . S
C1152 C1151 1.387 . S
H1153 C1165 0.930 . S
H1154 C1167 0.930 . S
H1155 C1168 0.930 . S
H1156 C1172 0.959 . S
H1157 C1172 0.959 . S
H1158 C1172 0.961 1_565 S
H1159 C1173 0.960 . S
H1160 C1173 0.959 . S
H1161 C1173 0.959 . S
H1162 C1176 0.929 . S
H1163 C1177 0.931 . S
H1164 C1179 0.930 . S
C1165 H1153 0.930 . S
C1165 C1166 1.399 . S
C1165 C1170 1.399 . S
C1166 C1165 1.399 . S
C1166 C1167 1.376 . S
C1167 H1154 0.930 . S
C1167 C1166 1.376 . S
C1167 C1168 1.388 1_565 S
C1168 H1155 0.930 . S
C1168 C1167 1.388 1_545 S
C1168 C1169 1.390 . S
C1169 C1168 1.390 . S
C1169 C1170 1.394 1_545 S
C1169 C1175 1.465 . S
C1170 C1165 1.399 . S
C1170 C1169 1.394 1_565 S
C1170 C1171 1.516 1_565 S
C1171 C1170 1.516 1_545 S
C1171 C1172 1.502 . S
C1171 C1173 1.561 1_545 S
C1171 C1174 1.526 . S
C1172 H1156 0.959 . S
C1172 H1157 0.959 . S
C1172 H1158 0.961 1_545 S
C1172 C1171 1.502 . S
C1173 H1159 0.960 . S
C1173 H1160 0.959 . S
C1173 H1161 0.959 . S
C1173 C1171 1.561 1_565 S
C1174 C1171 1.526 . S
C1174 C1175 1.396 . S
C1174 C1179 1.390 . S
C1175 C1169 1.465 . S
C1175 C1174 1.396 . S
C1175 C1176 1.399 . S
C1176 H1162 0.929 . S
C1176 C1175 1.399 . S
C1176 C1177 1.385 . S
C1177 H1163 0.931 . S
C1177 C1176 1.385 . S
C1177 C1178 1.389 . S
C1178 C1177 1.389 . S
C1178 C1179 1.387 . S
C1179 H1164 0.930 . S
C1179 C1174 1.390 . S
C1179 C1178 1.387 . S
H1180 C1192 0.930 . S
H1181 C1194 0.930 . S
H1182 C1195 0.930 . S
H1183 C1199 0.959 . S
H1184 C1199 0.959 . S
H1185 C1199 0.961 . S
H1186 C1200 0.960 . S
H1187 C1200 0.961 . S
H1188 C1200 0.959 . S
H1189 C1203 0.929 . S
H1190 C1204 0.931 . S
H1191 C1206 0.930 . S
C1192 H1180 0.930 . S
C1192 C1193 1.399 . S
C1192 C1197 1.399 . S
C1193 C1192 1.399 . S
C1193 C1194 1.376 . S
C1194 H1181 0.930 . S
C1194 C1193 1.376 . S
C1194 C1195 1.388 . S
C1195 H1182 0.930 . S
C1195 C1194 1.388 . S
C1195 C1196 1.390 . S
C1196 C1195 1.390 . S
C1196 C1197 1.394 . S
C1196 C1202 1.465 . S
C1197 C1192 1.399 . S
C1197 C1196 1.394 . S
C1197 C1198 1.516 . S
C1198 C1197 1.516 . S
C1198 C1199 1.502 . S
C1198 C1200 1.561 . S
C1198 C1201 1.526 . S
C1199 H1183 0.959 . S
C1199 H1184 0.959 . S
C1199 H1185 0.961 . S
C1199 C1198 1.502 . S
C1200 H1186 0.960 . S
C1200 H1187 0.961 . S
C1200 H1188 0.959 . S
C1200 C1198 1.561 . S
C1201 C1198 1.526 . S
C1201 C1202 1.396 . S
C1201 C1206 1.390 . S
C1202 C1196 1.465 . S
C1202 C1201 1.396 . S
C1202 C1203 1.399 . S
C1203 H1189 0.929 . S
C1203 C1202 1.399 . S
C1203 C1204 1.385 . S
C1204 H1190 0.931 . S
C1204 C1203 1.385 . S
C1204 C1205 1.389 . S
C1205 C1204 1.389 . S
C1205 C1206 1.387 . S
C1206 H1191 0.930 . S
C1206 C1201 1.390 . S
C1206 C1205 1.387 . S
H1207 C1219 0.930 . S
H1208 C1221 0.930 . S
H1209 C1222 0.930 . S
H1210 C1226 0.959 . S
H1211 C1226 0.959 . S
H1212 C1226 0.961 . S
H1213 C1227 0.960 . S
H1214 C1227 0.961 . S
H1215 C1227 0.959 . S
H1216 C1230 0.929 . S
H1217 C1231 0.931 . S
H1218 C1233 0.930 . S
C1219 H1207 0.930 . S
C1219 C1220 1.399 . S
C1219 C1224 1.399 . S
C1220 C1219 1.399 . S
C1220 C1221 1.376 . S
C1221 H1208 0.930 . S
C1221 C1220 1.376 . S
C1221 C1222 1.388 . S
C1222 H1209 0.930 . S
C1222 C1221 1.388 . S
C1222 C1223 1.390 . S
C1223 C1222 1.390 . S
C1223 C1224 1.394 . S
C1223 C1229 1.465 . S
C1224 C1219 1.399 . S
C1224 C1223 1.394 . S
C1224 C1225 1.516 . S
C1225 C1224 1.516 . S
C1225 C1226 1.502 . S
C1225 C1227 1.561 . S
C1225 C1228 1.526 . S
C1226 H1210 0.959 . S
C1226 H1211 0.959 . S
C1226 H1212 0.961 . S
C1226 C1225 1.502 . S
C1227 H1213 0.960 . S
C1227 H1214 0.961 . S
C1227 H1215 0.959 . S
C1227 C1225 1.561 . S
C1228 C1225 1.526 . S
C1228 C1229 1.396 . S
C1228 C1233 1.390 1_545 S
C1229 C1223 1.465 . S
C1229 C1228 1.396 . S
C1229 C1230 1.399 1_545 S
C1230 H1216 0.929 . S
C1230 C1229 1.399 1_565 S
C1230 C1231 1.385 . S
C1231 H1217 0.931 . S
C1231 C1230 1.385 . S
C1231 C1232 1.389 . S
C1232 C1231 1.389 . S
C1232 C1233 1.387 . S
C1233 H1218 0.930 . S
C1233 C1228 1.390 1_565 S
C1233 C1232 1.387 . S
H1234 C1246 0.930 . S
H1235 C1248 0.930 . S
H1236 C1249 0.930 . S
H1237 C1253 0.959 . S
H1238 C1253 0.959 . S
H1239 C1253 0.961 . S
H1240 C1254 0.960 . S
H1241 C1254 0.961 . S
H1242 C1254 0.959 . S
H1243 C1257 0.929 . S
H1244 C1258 0.931 . S
H1245 C1260 0.930 . S
C1246 H1234 0.930 . S
C1246 C1247 1.399 . S
C1246 C1251 1.399 . S
C1247 C1246 1.399 . S
C1247 C1248 1.376 . S
C1248 H1235 0.930 . S
C1248 C1247 1.376 . S
C1248 C1249 1.388 . S
C1249 H1236 0.930 . S
C1249 C1248 1.388 . S
C1249 C1250 1.390 . S
C1250 C1249 1.390 . S
C1250 C1251 1.394 . S
C1250 C1256 1.465 . S
C1251 C1246 1.399 . S
C1251 C1250 1.394 . S
C1251 C1252 1.516 . S
C1252 C1251 1.516 . S
C1252 C1253 1.502 . S
C1252 C1254 1.561 . S
C1252 C1255 1.526 . S
C1253 H1237 0.959 . S
C1253 H1238 0.959 . S
C1253 H1239 0.961 . S
C1253 C1252 1.502 . S
C1254 H1240 0.960 . S
C1254 H1241 0.961 . S
C1254 H1242 0.959 . S
C1254 C1252 1.561 . S
C1255 C1252 1.526 . S
C1255 C1256 1.396 . S
C1255 C1260 1.390 . S
C1256 C1250 1.465 . S
C1256 C1255 1.396 . S
C1256 C1257 1.399 . S
C1257 H1243 0.929 . S
C1257 C1256 1.399 . S
C1257 C1258 1.385 . S
C1258 H1244 0.931 . S
C1258 C1257 1.385 . S
C1258 C1259 1.389 . S
C1259 C1258 1.389 . S
C1259 C1260 1.387 . S
C1260 H1245 0.930 . S
C1260 C1255 1.390 . S
C1260 C1259 1.387 . S
H1261 C1273 0.930 . S
H1262 C1275 0.930 . S
H1263 C1276 0.930 . S
H1264 C1280 0.959 . S
H1265 C1280 0.959 . S
H1266 C1280 0.961 . S
H1267 C1281 0.960 . S
H1268 C1281 0.961 . S
H1269 C1281 0.959 . S
H1270 C1284 0.929 . S
H1271 C1285 0.931 . S
H1272 C1287 0.930 . S
C1273 H1261 0.930 . S
C1273 C1274 1.399 . S
C1273 C1278 1.399 1_545 S
C1274 C1273 1.399 . S
C1274 C1275 1.376 . S
C1275 H1262 0.930 . S
C1275 C1274 1.376 . S
C1275 C1276 1.388 . S
C1276 H1263 0.930 . S
C1276 C1275 1.388 . S
C1276 C1277 1.390 1_545 S
C1277 C1276 1.390 1_565 S
C1277 C1278 1.394 . S
C1277 C1283 1.465 . S
C1278 C1273 1.399 1_565 S
C1278 C1277 1.394 . S
C1278 C1279 1.516 . S
C1279 C1278 1.516 . S
C1279 C1280 1.502 . S
C1279 C1281 1.561 . S
C1279 C1282 1.526 . S
C1280 H1264 0.959 . S
C1280 H1265 0.959 . S
C1280 H1266 0.961 . S
C1280 C1279 1.502 . S
C1281 H1267 0.960 . S
C1281 H1268 0.961 . S
C1281 H1269 0.959 . S
C1281 C1279 1.561 . S
C1282 C1279 1.526 . S
C1282 C1283 1.396 . S
C1282 C1287 1.390 . S
C1283 C1277 1.465 . S
C1283 C1282 1.396 . S
C1283 C1284 1.399 . S
C1284 H1270 0.929 . S
C1284 C1283 1.399 . S
C1284 C1285 1.385 . S
C1285 H1271 0.931 . S
C1285 C1284 1.385 . S
C1285 C1286 1.389 . S
C1286 C1285 1.389 . S
C1286 C1287 1.387 . S
C1287 H1272 0.930 . S
C1287 C1282 1.390 . S
C1287 C1286 1.387 . S
H1288 C1300 0.930 . S
H1289 C1302 0.930 . S
H1290 C1303 0.930 . S
H1291 C1307 0.959 . S
H1292 C1307 0.959 . S
H1293 C1307 0.961 . S
H1294 C1308 0.960 . S
H1295 C1308 0.961 . S
H1296 C1308 0.959 . S
H1297 C1311 0.929 . S
H1298 C1312 0.931 . S
H1299 C1314 0.930 . S
C1300 H1288 0.930 . S
C1300 C1301 1.399 . S
C1300 C1305 1.399 . S
C1301 C1300 1.399 . S
C1301 C1302 1.376 . S
C1302 H1289 0.930 . S
C1302 C1301 1.376 . S
C1302 C1303 1.388 . S
C1303 H1290 0.930 . S
C1303 C1302 1.388 . S
C1303 C1304 1.390 . S
C1304 C1303 1.390 . S
C1304 C1305 1.394 . S
C1304 C1310 1.465 . S
C1305 C1300 1.399 . S
C1305 C1304 1.394 . S
C1305 C1306 1.516 . S
C1306 C1305 1.516 . S
C1306 C1307 1.502 . S
C1306 C1308 1.561 . S
C1306 C1309 1.526 . S
C1307 H1291 0.959 . S
C1307 H1292 0.959 . S
C1307 H1293 0.961 . S
C1307 C1306 1.502 . S
C1308 H1294 0.960 . S
C1308 H1295 0.961 . S
C1308 H1296 0.959 . S
C1308 C1306 1.561 . S
C1309 C1306 1.526 . S
C1309 C1310 1.396 . S
C1309 C1314 1.390 . S
C1310 C1304 1.465 . S
C1310 C1309 1.396 . S
C1310 C1311 1.399 . S
C1311 H1297 0.929 . S
C1311 C1310 1.399 . S
C1311 C1312 1.385 . S
C1312 H1298 0.931 . S
C1312 C1311 1.385 . S
C1312 C1313 1.389 . S
C1313 C1312 1.389 . S
C1313 C1314 1.387 . S
C1314 H1299 0.930 . S
C1314 C1309 1.390 . S
C1314 C1313 1.387 . S
H1315 C1327 0.930 . S
H1316 C1329 0.930 . S
H1317 C1330 0.930 . S
H1318 C1334 0.959 . S
H1319 C1334 0.959 . S
H1320 C1334 0.961 . S
H1321 C1335 0.960 . S
H1322 C1335 0.961 . S
H1323 C1335 0.959 . S
H1324 C1338 0.929 . S
H1325 C1339 0.931 . S
H1326 C1341 0.930 1_556 S
C1327 H1315 0.930 . S
C1327 C1328 1.399 . S
C1327 C1332 1.399 . S
C1328 C1327 1.399 . S
C1328 C1329 1.376 . S
C1329 H1316 0.930 . S
C1329 C1328 1.376 . S
C1329 C1330 1.388 . S
C1330 H1317 0.930 . S
C1330 C1329 1.388 . S
C1330 C1331 1.390 . S
C1331 C1330 1.390 . S
C1331 C1332 1.394 . S
C1331 C1337 1.465 . S
C1332 C1327 1.399 . S
C1332 C1331 1.394 . S
C1332 C1333 1.516 . S
C1333 C1332 1.516 . S
C1333 C1334 1.502 . S
C1333 C1335 1.561 . S
C1333 C1336 1.526 . S
C1334 H1318 0.959 . S
C1334 H1319 0.959 . S
C1334 H1320 0.961 . S
C1334 C1333 1.502 . S
C1335 H1321 0.960 . S
C1335 H1322 0.961 . S
C1335 H1323 0.959 . S
C1335 C1333 1.561 . S
C1336 C1333 1.526 . S
C1336 C1337 1.396 . S
C1336 C1341 1.390 . S
C1337 C1331 1.465 . S
C1337 C1336 1.396 . S
C1337 C1338 1.399 . S
C1338 H1324 0.929 . S
C1338 C1337 1.399 . S
C1338 C1339 1.385 . S
C1339 H1325 0.931 . S
C1339 C1338 1.385 . S
C1339 C1340 1.389 . S
C1340 C1339 1.389 . S
C1340 C1341 1.387 . S
C1341 H1326 0.930 1_554 S
C1341 C1336 1.390 . S
C1341 C1340 1.387 . S
H1342 C1354 0.930 . S
H1343 C1356 0.930 . S
H1344 C1357 0.930 . S
H1345 C1361 0.959 1_455 S
H1346 C1361 0.959 1_455 S
H1347 C1361 0.961 . S
H1348 C1362 0.960 . S
H1349 C1362 0.961 . S
H1350 C1362 0.959 . S
H1351 C1365 0.929 . S
H1352 C1366 0.931 . S
H1353 C1368 0.930 1_455 S
C1354 H1342 0.930 . S
C1354 C1355 1.399 . S
C1354 C1359 1.399 . S
C1355 C1354 1.399 . S
C1355 C1356 1.376 . S
C1356 H1343 0.930 . S
C1356 C1355 1.376 . S
C1356 C1357 1.388 . S
C1357 H1344 0.930 . S
C1357 C1356 1.388 . S
C1357 C1358 1.390 . S
C1358 C1357 1.390 . S
C1358 C1359 1.394 . S
C1358 C1364 1.465 . S
C1359 C1354 1.399 . S
C1359 C1358 1.394 . S
C1359 C1360 1.516 . S
C1360 C1359 1.516 . S
C1360 C1361 1.502 . S
C1360 C1362 1.561 . S
C1360 C1363 1.526 . S
C1361 H1345 0.959 1_655 S
C1361 H1346 0.959 1_655 S
C1361 H1347 0.961 . S
C1361 C1360 1.502 . S
C1362 H1348 0.960 . S
C1362 H1349 0.961 . S
C1362 H1350 0.959 . S
C1362 C1360 1.561 . S
C1363 C1360 1.526 . S
C1363 C1364 1.396 . S
C1363 C1368 1.390 . S
C1364 C1358 1.465 . S
C1364 C1363 1.396 . S
C1364 C1365 1.399 . S
C1365 H1351 0.929 . S
C1365 C1364 1.399 . S
C1365 C1366 1.385 . S
C1366 H1352 0.931 . S
C1366 C1365 1.385 . S
C1366 C1367 1.404 . S
C1367 C1366 1.404 . S
C1367 C1368 1.393 . S
C1368 H1353 0.930 1_655 S
C1368 C1363 1.390 . S
C1368 C1367 1.393 . S
H1369 C1381 0.930 . S
H1370 C1383 0.930 . S
H1371 C1384 0.930 . S
H1372 C1388 0.959 . S
H1373 C1388 0.959 . S
H1374 C1388 0.961 . S
H1375 C1389 0.960 . S
H1376 C1389 0.961 . S
H1377 C1389 0.959 . S
H1378 C1392 0.929 . S
H1379 C1393 0.931 . S
H1380 C1395 0.930 . S
C1381 H1369 0.930 . S
C1381 C1382 1.399 . S
C1381 C1386 1.399 . S
C1382 C1381 1.399 . S
C1382 C1383 1.376 . S
C1383 H1370 0.930 . S
C1383 C1382 1.376 . S
C1383 C1384 1.388 . S
C1384 H1371 0.930 . S
C1384 C1383 1.388 . S
C1384 C1385 1.390 . S
C1385 C1384 1.390 . S
C1385 C1386 1.394 . S
C1385 C1391 1.465 . S
C1386 C1381 1.399 . S
C1386 C1385 1.394 . S
C1386 C1387 1.516 . S
C1387 C1386 1.516 . S
C1387 C1388 1.502 . S
C1387 C1389 1.561 . S
C1387 C1390 1.526 . S
C1388 H1372 0.959 . S
C1388 H1373 0.959 . S
C1388 H1374 0.961 . S
C1388 C1387 1.502 . S
C1389 H1375 0.960 . S
C1389 H1376 0.961 . S
C1389 H1377 0.959 . S
C1389 C1387 1.561 . S
C1390 C1387 1.526 . S
C1390 C1391 1.396 . S
C1390 C1395 1.390 . S
C1391 C1385 1.465 . S
C1391 C1390 1.396 . S
C1391 C1392 1.399 . S
C1392 H1378 0.929 . S
C1392 C1391 1.399 . S
C1392 C1393 1.385 . S
C1393 H1379 0.931 . S
C1393 C1392 1.385 . S
C1393 C1394 1.389 . S
C1394 C1393 1.389 . S
C1394 C1395 1.387 . S
C1395 H1380 0.930 . S
C1395 C1390 1.390 . S
C1395 C1394 1.387 . S
H1396 C1408 0.930 . S
H1397 C1410 0.930 . S
H1398 C1411 0.930 . S
H1399 C1415 0.959 . S
H1400 C1415 0.959 . S
H1401 C1415 0.961 . S
H1402 C1416 0.960 . S
H1403 C1416 0.961 . S
H1404 C1416 0.959 . S
H1405 C1419 0.929 . S
H1406 C1420 0.931 . S
H1407 C1422 0.930 . S
C1408 H1396 0.930 . S
C1408 C1409 1.399 . S
C1408 C1413 1.399 . S
C1409 C1408 1.399 . S
C1409 C1410 1.376 . S
C1410 H1397 0.930 . S
C1410 C1409 1.376 . S
C1410 C1411 1.388 . S
C1411 H1398 0.930 . S
C1411 C1410 1.388 . S
C1411 C1412 1.390 . S
C1412 C1411 1.390 . S
C1412 C1413 1.394 . S
C1412 C1418 1.465 . S
C1413 C1408 1.399 . S
C1413 C1412 1.394 . S
C1413 C1414 1.516 . S
C1414 C1413 1.516 . S
C1414 C1415 1.502 . S
C1414 C1416 1.561 . S
C1414 C1417 1.526 . S
C1415 H1399 0.959 . S
C1415 H1400 0.959 . S
C1415 H1401 0.961 . S
C1415 C1414 1.502 . S
C1416 H1402 0.960 . S
C1416 H1403 0.961 . S
C1416 H1404 0.959 . S
C1416 C1414 1.561 . S
C1417 C1414 1.526 . S
C1417 C1418 1.396 . S
C1417 C1422 1.390 . S
C1418 C1412 1.465 . S
C1418 C1417 1.396 . S
C1418 C1419 1.399 . S
C1419 H1405 0.929 . S
C1419 C1418 1.399 . S
C1419 C1420 1.385 . S
C1420 H1406 0.931 . S
C1420 C1419 1.385 . S
C1420 C1421 1.389 . S
C1421 C1420 1.389 . S
C1421 C1422 1.387 . S
C1422 H1407 0.930 . S
C1422 C1417 1.390 . S
C1422 C1421 1.387 . S
H1423 C1435 0.930 . S
H1424 C1437 0.930 . S
H1425 C1438 0.930 . S
H1426 C1442 0.959 . S
H1427 C1442 0.959 . S
H1428 C1442 0.961 . S
H1429 C1443 0.960 . S
H1430 C1443 0.961 . S
H1431 C1443 0.959 . S
H1432 C1446 0.929 . S
H1433 C1447 0.931 . S
H1434 C1449 0.930 1_554 S
C1435 H1423 0.930 . S
C1435 C1436 1.399 . S
C1435 C1440 1.399 . S
C1436 C1435 1.399 . S
C1436 C1437 1.376 . S
C1437 H1424 0.930 . S
C1437 C1436 1.376 . S
C1437 C1438 1.388 . S
C1438 H1425 0.930 . S
C1438 C1437 1.388 . S
C1438 C1439 1.390 . S
C1439 C1438 1.390 . S
C1439 C1440 1.394 . S
C1439 C1445 1.465 . S
C1440 C1435 1.399 . S
C1440 C1439 1.394 . S
C1440 C1441 1.516 . S
C1441 C1440 1.516 . S
C1441 C1442 1.502 . S
C1441 C1443 1.561 . S
C1441 C1444 1.526 . S
C1442 H1426 0.959 . S
C1442 H1427 0.959 . S
C1442 H1428 0.961 . S
C1442 C1441 1.502 . S
C1443 H1429 0.960 . S
C1443 H1430 0.961 . S
C1443 H1431 0.959 . S
C1443 C1441 1.561 . S
C1444 C1441 1.526 . S
C1444 C1445 1.396 . S
C1444 C1449 1.390 . S
C1445 C1439 1.465 . S
C1445 C1444 1.396 . S
C1445 C1446 1.399 . S
C1446 H1432 0.929 . S
C1446 C1445 1.399 . S
C1446 C1447 1.385 . S
C1447 H1433 0.931 . S
C1447 C1446 1.385 . S
C1447 C1448 1.389 . S
C1448 C1447 1.389 . S
C1448 C1449 1.387 . S
C1449 H1434 0.930 1_556 S
C1449 C1444 1.390 . S
C1449 C1448 1.387 . S
H1450 C1462 0.930 . S
H1451 C1464 0.930 . S
H1452 C1465 0.930 . S
H1453 C1469 0.959 . S
H1454 C1469 0.959 . S
H1455 C1469 0.961 . S
H1456 C1470 0.960 . S
H1457 C1470 0.961 . S
H1458 C1470 0.959 . S
H1459 C1473 0.929 . S
H1460 C1474 0.931 . S
H1461 C1476 0.923 1_655 S
C1462 H1450 0.930 . S
C1462 C1463 1.399 . S
C1462 C1467 1.399 . S
C1463 C1462 1.399 . S
C1463 C1464 1.376 . S
C1464 H1451 0.930 . S
C1464 C1463 1.376 . S
C1464 C1465 1.388 . S
C1465 H1452 0.930 . S
C1465 C1464 1.388 . S
C1465 C1466 1.390 . S
C1466 C1465 1.390 . S
C1466 C1467 1.394 . S
C1466 C1472 1.465 . S
C1467 C1462 1.399 . S
C1467 C1466 1.394 . S
C1467 C1468 1.516 . S
C1468 C1467 1.516 . S
C1468 C1469 1.502 1_455 S
C1468 C1470 1.561 . S
C1468 C1471 1.526 . S
C1469 H1453 0.959 . S
C1469 H1454 0.959 . S
C1469 H1455 0.961 . S
C1469 C1468 1.502 1_655 S
C1470 H1456 0.960 . S
C1470 H1457 0.961 . S
C1470 H1458 0.959 . S
C1470 C1468 1.561 . S
C1471 C1468 1.526 . S
C1471 C1472 1.396 . S
C1471 C1476 1.396 . S
C1472 C1466 1.465 . S
C1472 C1471 1.396 . S
C1472 C1473 1.399 . S
C1473 H1459 0.929 . S
C1473 C1472 1.399 . S
C1473 C1474 1.385 . S
C1474 H1460 0.931 . S
C1474 C1473 1.385 . S
C1474 C1475 1.389 . S
C1475 C1474 1.389 . S
C1475 C1476 1.387 . S
C1476 H1461 0.923 1_455 S
C1476 C1471 1.396 . S
C1476 C1475 1.387 . S
H1477 C1489 0.930 . S
H1478 C1491 0.930 . S
H1479 C1492 0.930 . S
H1480 C1496 0.959 . S
H1481 C1496 0.959 . S
H1482 C1496 0.961 . S
H1483 C1497 0.960 . S
H1484 C1497 0.961 . S
H1485 C1497 0.959 . S
H1486 C1500 0.929 . S
H1487 C1501 0.931 . S
H1488 C1503 0.930 . S
C1489 H1477 0.930 . S
C1489 C1490 1.399 . S
C1489 C1494 1.399 . S
C1490 C1489 1.399 . S
C1490 C1491 1.376 . S
C1491 H1478 0.930 . S
C1491 C1490 1.376 . S
C1491 C1492 1.388 . S
C1492 H1479 0.930 . S
C1492 C1491 1.388 . S
C1492 C1493 1.390 . S
C1493 C1492 1.390 . S
C1493 C1494 1.394 . S
C1493 C1499 1.465 . S
C1494 C1489 1.399 . S
C1494 C1493 1.394 . S
C1494 C1495 1.516 . S
C1495 C1494 1.516 . S
C1495 C1496 1.502 . S
C1495 C1497 1.561 . S
C1495 C1498 1.526 . S
C1496 H1480 0.959 . S
C1496 H1481 0.959 . S
C1496 H1482 0.961 . S
C1496 C1495 1.502 . S
C1497 H1483 0.960 . S
C1497 H1484 0.961 . S
C1497 H1485 0.959 . S
C1497 C1495 1.561 . S
C1498 C1495 1.526 . S
C1498 C1499 1.396 . S
C1498 C1503 1.390 . S
C1499 C1493 1.465 . S
C1499 C1498 1.396 . S
C1499 C1500 1.399 . S
C1500 H1486 0.929 . S
C1500 C1499 1.399 . S
C1500 C1501 1.385 . S
C1501 H1487 0.931 . S
C1501 C1500 1.385 . S
C1501 C1502 1.389 . S
C1502 C1501 1.389 . S
C1502 C1503 1.387 . S
C1503 H1488 0.930 . S
C1503 C1498 1.390 . S
C1503 C1502 1.387 . S
H1504 C1516 0.930 . S
H1505 C1518 0.930 . S
H1506 C1519 0.929 . S
H1507 C1523 0.959 . S
H1508 C1523 0.959 . S
H1509 C1523 0.961 . S
H1510 C1524 0.960 . S
H1511 C1524 0.961 . S
H1512 C1524 0.959 . S
H1513 C1527 0.929 . S
H1514 C1528 0.931 . S
H1515 C1530 0.930 . S
C1516 H1504 0.930 . S
C1516 C1517 1.399 1_455 S
C1516 C1521 1.399 . S
C1517 C1516 1.399 1_655 S
C1517 C1518 1.376 . S
C1518 H1505 0.930 . S
C1518 C1517 1.376 . S
C1518 C1519 1.388 1_655 S
C1519 H1506 0.929 . S
C1519 C1518 1.388 1_455 S
C1519 C1520 1.390 . S
C1520 C1519 1.390 . S
C1520 C1521 1.394 . S
C1520 C1526 1.465 . S
C1521 C1516 1.399 . S
C1521 C1520 1.394 . S
C1521 C1522 1.516 . S
C1522 C1521 1.516 . S
C1522 C1523 1.502 . S
C1522 C1524 1.561 . S
C1522 C1525 1.526 . S
C1523 H1507 0.959 . S
C1523 H1508 0.959 . S
C1523 H1509 0.961 . S
C1523 C1522 1.502 . S
C1524 H1510 0.960 . S
C1524 H1511 0.961 . S
C1524 H1512 0.959 . S
C1524 C1522 1.561 . S
C1525 C1522 1.526 . S
C1525 C1526 1.396 . S
C1525 C1530 1.390 . S
C1526 C1520 1.465 . S
C1526 C1525 1.396 . S
C1526 C1527 1.399 . S
C1527 H1513 0.929 . S
C1527 C1526 1.399 . S
C1527 C1528 1.385 . S
C1528 H1514 0.931 . S
C1528 C1527 1.385 . S
C1528 C1529 1.389 . S
C1529 C1528 1.389 . S
C1529 C1530 1.387 . S
C1530 H1515 0.930 . S
C1530 C1525 1.390 . S
C1530 C1529 1.387 . S
H1531 C1543 0.930 . S
H1532 C1545 0.930 . S
H1533 C1546 0.930 . S
H1534 C1550 0.959 . S
H1535 C1550 0.959 . S
H1536 C1550 0.961 . S
H1537 C1551 0.960 . S
H1538 C1551 0.961 . S
H1539 C1551 0.959 . S
H1540 C1554 0.929 . S
H1541 C1555 0.931 . S
H1542 C1557 0.930 . S
C1543 H1531 0.930 . S
C1543 C1544 1.399 . S
C1543 C1548 1.399 . S
C1544 C1543 1.399 . S
C1544 C1545 1.376 . S
C1545 H1532 0.930 . S
C1545 C1544 1.376 . S
C1545 C1546 1.388 . S
C1546 H1533 0.930 . S
C1546 C1545 1.388 . S
C1546 C1547 1.390 . S
C1547 C1546 1.390 . S
C1547 C1548 1.394 . S
C1547 C1553 1.465 . S
C1548 C1543 1.399 . S
C1548 C1547 1.394 . S
C1548 C1549 1.516 . S
C1549 C1548 1.516 . S
C1549 C1550 1.502 . S
C1549 C1551 1.561 . S
C1549 C1552 1.526 . S
C1550 H1534 0.959 . S
C1550 H1535 0.959 . S
C1550 H1536 0.961 . S
C1550 C1549 1.502 . S
C1551 H1537 0.960 . S
C1551 H1538 0.961 . S
C1551 H1539 0.959 . S
C1551 C1549 1.561 . S
C1552 C1549 1.526 . S
C1552 C1553 1.396 . S
C1552 C1557 1.390 . S
C1553 C1547 1.465 . S
C1553 C1552 1.396 . S
C1553 C1554 1.399 . S
C1554 H1540 0.929 . S
C1554 C1553 1.399 . S
C1554 C1555 1.385 . S
C1555 H1541 0.931 . S
C1555 C1554 1.385 . S
C1555 C1556 1.389 . S
C1556 C1555 1.389 . S
C1556 C1557 1.387 . S
C1557 H1542 0.930 . S
C1557 C1552 1.390 . S
C1557 C1556 1.387 . S
H1558 C1570 0.930 . S
H1559 C1572 0.930 . S
H1560 C1573 0.930 . S
H1561 C1577 0.959 . S
H1562 C1577 0.959 . S
H1563 C1577 0.961 . S
H1564 C1578 0.960 . S
H1565 C1578 0.961 . S
H1566 C1578 0.959 . S
H1567 C1581 0.929 . S
H1568 C1582 0.931 . S
H1569 C1584 0.930 . S
C1570 H1558 0.930 . S
C1570 C1571 1.399 . S
C1570 C1575 1.399 . S
C1571 C1570 1.399 . S
C1571 C1572 1.376 . S
C1572 H1559 0.930 . S
C1572 C1571 1.376 . S
C1572 C1573 1.388 . S
C1573 H1560 0.930 . S
C1573 C1572 1.388 . S
C1573 C1574 1.390 . S
C1574 C1573 1.390 . S
C1574 C1575 1.394 . S
C1574 C1580 1.465 . S
C1575 C1570 1.399 . S
C1575 C1574 1.394 . S
C1575 C1576 1.516 . S
C1576 C1575 1.516 . S
C1576 C1577 1.502 . S
C1576 C1578 1.561 . S
C1576 C1579 1.526 . S
C1577 H1561 0.959 . S
C1577 H1562 0.959 . S
C1577 H1563 0.961 . S
C1577 C1576 1.502 . S
C1578 H1564 0.960 . S
C1578 H1565 0.961 . S
C1578 H1566 0.959 . S
C1578 C1576 1.561 . S
C1579 C1576 1.526 . S
C1579 C1580 1.396 . S
C1579 C1584 1.390 . S
C1580 C1574 1.465 . S
C1580 C1579 1.396 . S
C1580 C1581 1.399 . S
C1581 H1567 0.929 . S
C1581 C1580 1.399 . S
C1581 C1582 1.385 . S
C1582 H1568 0.931 . S
C1582 C1581 1.385 . S
C1582 C1583 1.389 . S
C1583 C1582 1.389 . S
C1583 C1584 1.387 . S
C1584 H1569 0.930 . S
C1584 C1579 1.390 . S
C1584 C1583 1.387 . S
H1585 C1597 0.930 1_556 S
H1586 C1599 0.930 . S
H1587 C1600 0.930 . S
H1588 C1604 0.959 . S
H1589 C1604 0.959 . S
H1590 C1604 0.961 . S
H1591 C1605 0.960 . S
H1592 C1605 0.961 . S
H1593 C1605 0.959 . S
H1594 C1608 0.929 . S
H1595 C1609 0.931 . S
H1596 C1611 0.930 . S
C1597 H1585 0.930 1_554 S
C1597 C1598 1.399 . S
C1597 C1602 1.399 . S
C1598 C1597 1.399 . S
C1598 C1599 1.376 . S
C1599 H1586 0.930 . S
C1599 C1598 1.376 . S
C1599 C1600 1.388 . S
C1600 H1587 0.930 . S
C1600 C1599 1.388 . S
C1600 C1601 1.390 . S
C1601 C1600 1.390 . S
C1601 C1602 1.394 . S
C1601 C1607 1.465 . S
C1602 C1597 1.399 . S
C1602 C1601 1.394 . S
C1602 C1603 1.516 . S
C1603 C1602 1.516 . S
C1603 C1604 1.502 . S
C1603 C1605 1.561 . S
C1603 C1606 1.526 . S
C1604 H1588 0.959 . S
C1604 H1589 0.959 . S
C1604 H1590 0.961 . S
C1604 C1603 1.502 . S
C1605 H1591 0.960 . S
C1605 H1592 0.961 . S
C1605 H1593 0.959 . S
C1605 C1603 1.561 . S
C1606 C1603 1.526 . S
C1606 C1607 1.396 . S
C1606 C1611 1.390 . S
C1607 C1601 1.465 . S
C1607 C1606 1.396 . S
C1607 C1608 1.399 . S
C1608 H1594 0.929 . S
C1608 C1607 1.399 . S
C1608 C1609 1.385 . S
C1609 H1595 0.931 . S
C1609 C1608 1.385 . S
C1609 C1610 1.389 . S
C1610 C1609 1.389 . S
C1610 C1611 1.387 . S
C1611 H1596 0.930 . S
C1611 C1606 1.390 . S
C1611 C1610 1.387 . S
H1612 C1624 0.930 1_455 S
H1613 C1626 0.930 . S
H1614 C1627 0.930 . S
H1615 C1631 0.959 1_455 S
H1616 C1631 0.959 . S
H1617 C1631 0.961 1_455 S
H1618 C1632 0.960 . S
H1619 C1632 0.961 . S
H1620 C1632 0.959 . S
H1621 C1635 0.929 . S
H1622 C1636 0.931 . S
H1623 C1638 0.930 . S
C1624 H1612 0.930 1_655 S
C1624 C1625 1.399 . S
C1624 C1629 1.399 . S
C1625 C1624 1.399 . S
C1625 C1626 1.376 . S
C1626 H1613 0.930 . S
C1626 C1625 1.376 . S
C1626 C1627 1.388 . S
C1627 H1614 0.930 . S
C1627 C1626 1.388 . S
C1627 C1628 1.390 . S
C1628 C1627 1.390 . S
C1628 C1629 1.394 . S
C1628 C1634 1.465 . S
C1629 C1624 1.399 . S
C1629 C1628 1.394 . S
C1629 C1630 1.516 . S
C1630 C1629 1.516 . S
C1630 C1631 1.502 . S
C1630 C1632 1.561 . S
C1630 C1633 1.526 . S
C1631 H1615 0.959 1_655 S
C1631 H1616 0.959 . S
C1631 H1617 0.961 1_655 S
C1631 C1630 1.502 . S
C1632 H1618 0.960 . S
C1632 H1619 0.961 . S
C1632 H1620 0.959 . S
C1632 C1630 1.561 . S
C1633 C1630 1.526 . S
C1633 C1634 1.396 . S
C1633 C1638 1.390 . S
C1634 C1628 1.465 . S
C1634 C1633 1.396 . S
C1634 C1635 1.399 . S
C1635 H1621 0.929 . S
C1635 C1634 1.399 . S
C1635 C1636 1.385 . S
C1636 H1622 0.931 . S
C1636 C1635 1.385 . S
C1636 C1637 1.389 . S
C1637 C1636 1.389 . S
C1637 C1638 1.387 . S
C1638 H1623 0.930 . S
C1638 C1633 1.390 . S
C1638 C1637 1.387 . S
H1639 C1651 0.930 . S
H1640 C1653 0.930 . S
H1641 C1654 0.930 . S
H1642 C1658 0.959 . S
H1643 C1658 0.959 . S
H1644 C1658 0.961 . S
H1645 C1659 0.960 . S
H1646 C1659 0.961 . S
H1647 C1659 0.959 . S
H1648 C1662 0.929 . S
H1649 C1663 0.931 . S
H1650 C1665 0.930 . S
C1651 H1639 0.930 . S
C1651 C1652 1.399 . S
C1651 C1656 1.399 . S
C1652 C1651 1.399 . S
C1652 C1653 1.376 . S
C1653 H1640 0.930 . S
C1653 C1652 1.376 . S
C1653 C1654 1.388 . S
C1654 H1641 0.930 . S
C1654 C1653 1.388 . S
C1654 C1655 1.390 . S
C1655 C1654 1.390 . S
C1655 C1656 1.394 . S
C1655 C1661 1.465 . S
C1656 C1651 1.399 . S
C1656 C1655 1.394 . S
C1656 C1657 1.516 . S
C1657 C1656 1.516 . S
C1657 C1658 1.502 . S
C1657 C1659 1.561 . S
C1657 C1660 1.526 . S
C1658 H1642 0.959 . S
C1658 H1643 0.959 . S
C1658 H1644 0.961 . S
C1658 C1657 1.502 . S
C1659 H1645 0.960 . S
C1659 H1646 0.961 . S
C1659 H1647 0.959 . S
C1659 C1657 1.561 . S
C1660 C1657 1.526 . S
C1660 C1661 1.396 . S
C1660 C1665 1.390 . S
C1661 C1655 1.465 . S
C1661 C1660 1.396 . S
C1661 C1662 1.399 . S
C1662 H1648 0.929 . S
C1662 C1661 1.399 . S
C1662 C1663 1.385 . S
C1663 H1649 0.931 . S
C1663 C1662 1.385 . S
C1663 C1664 1.389 . S
C1664 C1663 1.389 . S
C1664 C1665 1.387 . S
C1665 H1650 0.930 . S
C1665 C1660 1.390 . S
C1665 C1664 1.387 . S
H1666 C1678 0.930 . S
H1667 C1680 0.930 . S
H1668 C1681 0.930 . S
H1669 C1685 0.959 . S
H1670 C1685 0.959 . S
H1671 C1685 0.961 . S
H1672 C1686 0.960 . S
H1673 C1686 0.961 . S
H1674 C1686 0.959 . S
H1675 C1689 0.929 . S
H1676 C1690 0.931 . S
H1677 C1692 0.930 . S
C1678 H1666 0.930 . S
C1678 C1679 1.399 . S
C1678 C1683 1.399 . S
C1679 C1678 1.399 . S
C1679 C1680 1.376 . S
C1680 H1667 0.930 . S
C1680 C1679 1.376 . S
C1680 C1681 1.388 . S
C1681 H1668 0.930 . S
C1681 C1680 1.388 . S
C1681 C1682 1.390 . S
C1682 C1681 1.390 . S
C1682 C1683 1.394 . S
C1682 C1688 1.465 . S
C1683 C1678 1.399 . S
C1683 C1682 1.394 . S
C1683 C1684 1.516 . S
C1684 C1683 1.516 . S
C1684 C1685 1.502 . S
C1684 C1686 1.561 . S
C1684 C1687 1.526 . S
C1685 H1669 0.959 . S
C1685 H1670 0.959 . S
C1685 H1671 0.961 . S
C1685 C1684 1.502 . S
C1686 H1672 0.960 . S
C1686 H1673 0.961 . S
C1686 H1674 0.959 . S
C1686 C1684 1.561 . S
C1687 C1684 1.526 . S
C1687 C1688 1.396 . S
C1687 C1692 1.390 . S
C1688 C1682 1.465 . S
C1688 C1687 1.396 . S
C1688 C1689 1.399 . S
C1689 H1675 0.929 . S
C1689 C1688 1.399 . S
C1689 C1690 1.385 . S
C1690 H1676 0.931 . S
C1690 C1689 1.385 . S
C1690 C1691 1.389 . S
C1691 C1690 1.389 . S
C1691 C1692 1.387 . S
C1692 H1677 0.930 . S
C1692 C1687 1.390 . S
C1692 C1691 1.387 . S
H1693 C1705 0.930 1_554 S
H1694 C1707 0.930 . S
H1695 C1708 0.930 . S
H1696 C1712 0.959 . S
H1697 C1712 0.959 . S
H1698 C1712 0.961 . S
H1699 C1713 0.960 . S
H1700 C1713 0.961 . S
H1701 C1713 0.959 . S
H1702 C1716 0.929 . S
H1703 C1717 0.931 . S
H1704 C1719 0.930 . S
C1705 H1693 0.930 1_556 S
C1705 C1706 1.399 . S
C1705 C1710 1.399 . S
C1706 C1705 1.399 . S
C1706 C1707 1.376 . S
C1707 H1694 0.930 . S
C1707 C1706 1.376 . S
C1707 C1708 1.388 . S
C1708 H1695 0.930 . S
C1708 C1707 1.388 . S
C1708 C1709 1.390 . S
C1709 C1708 1.390 . S
C1709 C1710 1.394 . S
C1709 C1715 1.465 . S
C1710 C1705 1.399 . S
C1710 C1709 1.394 . S
C1710 C1711 1.516 . S
C1711 C1710 1.516 . S
C1711 C1712 1.502 . S
C1711 C1713 1.561 . S
C1711 C1714 1.526 . S
C1712 H1696 0.959 . S
C1712 H1697 0.959 . S
C1712 H1698 0.961 . S
C1712 C1711 1.502 . S
C1713 H1699 0.960 . S
C1713 H1700 0.961 . S
C1713 H1701 0.959 . S
C1713 C1711 1.561 . S
C1714 C1711 1.526 . S
C1714 C1715 1.396 . S
C1714 C1719 1.390 . S
C1715 C1709 1.465 . S
C1715 C1714 1.396 . S
C1715 C1716 1.399 . S
C1716 H1702 0.929 . S
C1716 C1715 1.399 . S
C1716 C1717 1.385 . S
C1717 H1703 0.931 . S
C1717 C1716 1.385 . S
C1717 C1718 1.389 . S
C1718 C1717 1.389 . S
C1718 C1719 1.387 . S
C1719 H1704 0.930 . S
C1719 C1714 1.390 . S
C1719 C1718 1.387 . S
H1720 C1732 0.930 . S
H1721 C1734 0.930 . S
H1722 C1735 0.930 . S
H1723 C1739 0.959 . S
H1724 C1739 0.959 . S
H1725 C1739 0.961 . S
H1726 C1740 0.960 . S
H1727 C1740 0.961 . S
H1728 C1740 0.959 . S
H1729 C1743 0.929 . S
H1730 C1744 0.931 . S
H1731 C1746 0.930 . S
C1732 H1720 0.930 . S
C1732 C1733 1.399 . S
C1732 C1737 1.399 . S
C1733 C1732 1.399 . S
C1733 C1734 1.376 . S
C1734 H1721 0.930 . S
C1734 C1733 1.376 . S
C1734 C1735 1.388 . S
C1735 H1722 0.930 . S
C1735 C1734 1.388 . S
C1735 C1736 1.390 . S
C1736 C1735 1.390 . S
C1736 C1737 1.394 . S
C1736 C1742 1.465 . S
C1737 C1732 1.399 . S
C1737 C1736 1.394 . S
C1737 C1738 1.516 . S
C1738 C1737 1.516 . S
C1738 C1739 1.502 . S
C1738 C1740 1.561 . S
C1738 C1741 1.526 . S
C1739 H1723 0.959 . S
C1739 H1724 0.959 . S
C1739 H1725 0.961 . S
C1739 C1738 1.502 . S
C1740 H1726 0.960 . S
C1740 H1727 0.961 . S
C1740 H1728 0.959 . S
C1740 C1738 1.561 . S
C1741 C1738 1.526 . S
C1741 C1742 1.396 . S
C1741 C1746 1.390 . S
C1742 C1736 1.465 . S
C1742 C1741 1.396 . S
C1742 C1743 1.399 . S
C1743 H1729 0.929 . S
C1743 C1742 1.399 . S
C1743 C1744 1.385 . S
C1744 H1730 0.931 . S
C1744 C1743 1.385 . S
C1744 C1745 1.389 . S
C1745 C1744 1.389 . S
C1745 C1746 1.387 . S
C1746 H1731 0.930 . S
C1746 C1741 1.390 . S
C1746 C1745 1.387 . S
H1747 C1759 0.930 . S
H1748 C1761 0.930 . S
H1749 C1762 0.930 . S
H1750 C1766 0.959 . S
H1751 C1766 0.959 . S
H1752 C1766 0.961 . S
H1753 C1767 0.960 . S
H1754 C1767 0.961 . S
H1755 C1767 0.959 . S
H1756 C1770 0.929 . S
H1757 C1771 0.931 . S
H1758 C1773 0.930 . S
C1759 H1747 0.930 . S
C1759 C1760 1.399 . S
C1759 C1764 1.399 . S
C1760 C1759 1.399 . S
C1760 C1761 1.376 . S
C1761 H1748 0.930 . S
C1761 C1760 1.376 . S
C1761 C1762 1.388 . S
C1762 H1749 0.930 . S
C1762 C1761 1.388 . S
C1762 C1763 1.390 . S
C1763 C1762 1.390 . S
C1763 C1764 1.394 . S
C1763 C1769 1.465 . S
C1764 C1759 1.399 . S
C1764 C1763 1.394 . S
C1764 C1765 1.516 . S
C1765 C1764 1.516 . S
C1765 C1766 1.502 . S
C1765 C1767 1.561 . S
C1765 C1768 1.526 . S
C1766 H1750 0.959 . S
C1766 H1751 0.959 . S
C1766 H1752 0.961 . S
C1766 C1765 1.502 . S
C1767 H1753 0.960 . S
C1767 H1754 0.961 . S
C1767 H1755 0.959 . S
C1767 C1765 1.561 . S
C1768 C1765 1.526 . S
C1768 C1769 1.396 . S
C1768 C1773 1.390 . S
C1769 C1763 1.465 . S
C1769 C1768 1.396 . S
C1769 C1770 1.399 . S
C1770 H1756 0.929 . S
C1770 C1769 1.399 . S
C1770 C1771 1.385 . S
C1771 H1757 0.931 . S
C1771 C1770 1.385 . S
C1771 C1772 1.389 . S
C1772 C1771 1.389 . S
C1772 C1773 1.387 . S
C1773 H1758 0.930 . S
C1773 C1768 1.390 . S
C1773 C1772 1.387 . S
H1774 C1786 0.930 . S
H1775 C1788 0.930 . S
H1776 C1789 0.930 . S
H1777 C1793 0.959 . S
H1778 C1793 0.959 . S
H1779 C1793 0.961 . S
H1780 C1794 0.960 . S
H1781 C1794 0.961 . S
H1782 C1794 0.959 . S
H1783 C1797 0.929 . S
H1784 C1798 0.931 . S
H1785 C1800 0.930 . S
C1786 H1774 0.930 . S
C1786 C1787 1.399 . S
C1786 C1791 1.399 . S
C1787 C1786 1.399 . S
C1787 C1788 1.376 . S
C1788 H1775 0.930 . S
C1788 C1787 1.376 . S
C1788 C1789 1.388 . S
C1789 H1776 0.930 . S
C1789 C1788 1.388 . S
C1789 C1790 1.390 . S
C1790 C1789 1.390 . S
C1790 C1791 1.394 . S
C1790 C1796 1.465 . S
C1791 C1786 1.399 . S
C1791 C1790 1.394 . S
C1791 C1792 1.516 . S
C1792 C1791 1.516 . S
C1792 C1793 1.502 . S
C1792 C1794 1.561 . S
C1792 C1795 1.526 . S
C1793 H1777 0.959 . S
C1793 H1778 0.959 . S
C1793 H1779 0.961 . S
C1793 C1792 1.502 . S
C1794 H1780 0.960 . S
C1794 H1781 0.961 . S
C1794 H1782 0.959 . S
C1794 C1792 1.561 . S
C1795 C1792 1.526 . S
C1795 C1796 1.396 . S
C1795 C1800 1.390 . S
C1796 C1790 1.465 . S
C1796 C1795 1.396 . S
C1796 C1797 1.399 . S
C1797 H1783 0.929 . S
C1797 C1796 1.399 . S
C1797 C1798 1.385 . S
C1798 H1784 0.931 . S
C1798 C1797 1.385 . S
C1798 C1799 1.389 . S
C1799 C1798 1.389 . S
C1799 C1800 1.387 . S
C1800 H1785 0.930 . S
C1800 C1795 1.390 . S
C1800 C1799 1.387 . S
H1801 C1813 0.930 . S
H1802 C1815 0.930 . S
H1803 C1816 0.930 1_655 S
H1804 C1820 0.959 . S
H1805 C1820 0.959 . S
H1806 C1820 0.961 . S
H1807 C1821 0.960 1_554 S
H1808 C1821 0.961 . S
H1809 C1821 0.959 1_654 S
H1810 C1824 0.929 1_554 S
H1811 C1825 0.931 . S
H1812 C1827 0.930 . S
C1813 H1801 0.930 . S
C1813 C1814 1.399 . S
C1813 C1818 1.399 . S
C1814 C1813 1.399 . S
C1814 C1815 1.376 . S
C1815 H1802 0.930 . S
C1815 C1814 1.376 . S
C1815 C1816 1.388 . S
C1816 H1803 0.930 1_455 S
C1816 C1815 1.388 . S
C1816 C1817 1.390 . S
C1817 C1816 1.390 . S
C1817 C1818 1.394 . S
C1817 C1823 1.465 1_454 S
C1818 C1813 1.399 . S
C1818 C1817 1.394 . S
C1818 C1819 1.516 1_554 S
C1819 C1818 1.516 1_556 S
C1819 C1820 1.502 . S
C1819 C1821 1.561 . S
C1819 C1822 1.526 1_455 S
C1820 H1804 0.959 . S
C1820 H1805 0.959 . S
C1820 H1806 0.961 . S
C1820 C1819 1.502 . S
C1821 H1807 0.960 1_556 S
C1821 H1808 0.961 . S
C1821 H1809 0.959 1_456 S
C1821 C1819 1.561 . S
C1822 C1819 1.526 1_655 S
C1822 C1823 1.396 . S
C1822 C1827 1.390 . S
C1823 C1817 1.465 1_656 S
C1823 C1822 1.396 . S
C1823 C1824 1.399 . S
C1824 H1810 0.929 1_556 S
C1824 C1823 1.399 . S
C1824 C1825 1.385 . S
C1825 H1811 0.931 . S
C1825 C1824 1.385 . S
C1825 C1826 1.389 . S
C1826 C1825 1.389 . S
C1826 C1827 1.387 . S
C1827 H1812 0.930 . S
C1827 C1822 1.390 . S
C1827 C1826 1.387 . S
H1828 C1840 0.930 . S
H1829 C1842 0.930 . S
H1830 C1843 0.930 . S
H1831 C1847 0.959 . S
H1832 C1847 0.959 . S
H1833 C1847 0.961 . S
H1834 C1848 0.960 . S
H1835 C1848 0.961 . S
H1836 C1848 0.959 . S
H1837 C1851 0.929 . S
H1838 C1852 0.931 . S
H1839 C1854 0.930 . S
C1840 H1828 0.930 . S
C1840 C1841 1.399 . S
C1840 C1845 1.399 . S
C1841 C1840 1.399 . S
C1841 C1842 1.376 . S
C1842 H1829 0.930 . S
C1842 C1841 1.376 . S
C1842 C1843 1.388 . S
C1843 H1830 0.930 . S
C1843 C1842 1.388 . S
C1843 C1844 1.390 . S
C1844 C1843 1.390 . S
C1844 C1845 1.394 . S
C1844 C1850 1.465 . S
C1845 C1840 1.399 . S
C1845 C1844 1.394 . S
C1845 C1846 1.516 . S
C1846 C1845 1.516 . S
C1846 C1847 1.502 . S
C1846 C1848 1.561 . S
C1846 C1849 1.526 . S
C1847 H1831 0.959 . S
C1847 H1832 0.959 . S
C1847 H1833 0.961 . S
C1847 C1846 1.502 . S
C1848 H1834 0.960 . S
C1848 H1835 0.961 . S
C1848 H1836 0.959 . S
C1848 C1846 1.561 . S
C1849 C1846 1.526 . S
C1849 C1850 1.396 . S
C1849 C1854 1.390 . S
C1850 C1844 1.465 . S
C1850 C1849 1.396 . S
C1850 C1851 1.399 . S
C1851 H1837 0.929 . S
C1851 C1850 1.399 . S
C1851 C1852 1.385 . S
C1852 H1838 0.931 . S
C1852 C1851 1.385 . S
C1852 C1853 1.389 . S
C1853 C1852 1.389 . S
C1853 C1854 1.387 . S
C1854 H1839 0.930 . S
C1854 C1849 1.390 . S
C1854 C1853 1.387 . S
H1855 C1867 0.930 . S
H1856 C1869 0.930 . S
H1857 C1870 0.930 . S
H1858 C1874 0.959 . S
H1859 C1874 0.959 . S
H1860 C1874 0.961 . S
H1861 C1875 0.960 . S
H1862 C1875 0.961 . S
H1863 C1875 0.959 . S
H1864 C1878 0.929 . S
H1865 C1879 0.931 . S
H1866 C1881 0.930 . S
C1867 H1855 0.930 . S
C1867 C1868 1.399 . S
C1867 C1872 1.399 . S
C1868 C1867 1.399 . S
C1868 C1869 1.376 . S
C1869 H1856 0.930 . S
C1869 C1868 1.376 . S
C1869 C1870 1.388 . S
C1870 H1857 0.930 . S
C1870 C1869 1.388 . S
C1870 C1871 1.390 . S
C1871 C1870 1.390 . S
C1871 C1872 1.394 . S
C1871 C1877 1.465 . S
C1872 C1867 1.399 . S
C1872 C1871 1.394 . S
C1872 C1873 1.516 . S
C1873 C1872 1.516 . S
C1873 C1874 1.502 . S
C1873 C1875 1.561 . S
C1873 C1876 1.526 . S
C1874 H1858 0.959 . S
C1874 H1859 0.959 . S
C1874 H1860 0.961 . S
C1874 C1873 1.502 . S
C1875 H1861 0.960 . S
C1875 H1862 0.961 . S
C1875 H1863 0.959 . S
C1875 C1873 1.561 . S
C1876 C1873 1.526 . S
C1876 C1877 1.396 . S
C1876 C1881 1.390 . S
C1877 C1871 1.465 . S
C1877 C1876 1.396 . S
C1877 C1878 1.399 . S
C1878 H1864 0.929 . S
C1878 C1877 1.399 . S
C1878 C1879 1.385 . S
C1879 H1865 0.931 . S
C1879 C1878 1.385 . S
C1879 C1880 1.389 . S
C1880 C1879 1.389 . S
C1880 C1881 1.387 . S
C1881 H1866 0.930 . S
C1881 C1876 1.390 . S
C1881 C1880 1.387 . S
H1882 C1894 0.930 . S
H1883 C1896 0.930 . S
H1884 C1897 0.930 . S
H1885 C1901 0.959 1_545 S
H1886 C1901 0.959 . S
H1887 C1901 0.961 . S
H1888 C1902 0.960 . S
H1889 C1902 0.961 . S
H1890 C1902 0.959 . S
H1891 C1905 0.929 1_455 S
H1892 C1906 0.931 . S
H1893 C1908 0.930 . S
C1894 H1882 0.930 . S
C1894 C1895 1.399 1_565 S
C1894 C1899 1.399 . S
C1895 C1894 1.399 1_545 S
C1895 C1896 1.376 . S
C1896 H1883 0.930 . S
C1896 C1895 1.376 . S
C1896 C1897 1.388 1_556 S
C1897 H1884 0.930 . S
C1897 C1896 1.388 1_554 S
C1897 C1898 1.390 1_554 S
C1898 C1897 1.390 1_556 S
C1898 C1899 1.399 1_545 S
C1898 C1904 1.461 1_456 S
C1899 C1894 1.399 . S
C1899 C1898 1.399 1_565 S
C1899 C1900 1.516 1_455 S
C1900 C1899 1.516 1_655 S
C1900 C1901 1.502 . S
C1900 C1902 1.561 . S
C1900 C1903 1.526 1_556 S
C1901 H1885 0.959 1_565 S
C1901 H1886 0.959 . S
C1901 H1887 0.961 . S
C1901 C1900 1.502 . S
C1902 H1888 0.960 . S
C1902 H1889 0.961 . S
C1902 H1890 0.959 . S
C1902 C1900 1.561 . S
C1903 C1900 1.526 1_554 S
C1903 C1904 1.396 1_565 S
C1903 C1908 1.390 . S
C1904 C1898 1.461 1_654 S
C1904 C1903 1.396 1_545 S
C1904 C1905 1.399 . S
C1905 H1891 0.929 1_655 S
C1905 C1904 1.399 . S
C1905 C1906 1.385 . S
C1906 H1892 0.931 . S
C1906 C1905 1.385 . S
C1906 C1907 1.389 1_545 S
C1907 C1906 1.389 1_565 S
C1907 C1908 1.387 . S
C1908 H1893 0.930 . S
C1908 C1903 1.390 . S
C1908 C1907 1.387 . S
H1909 C1921 0.930 . S
H1910 C1923 0.930 . S
H1911 C1924 0.930 . S
H1912 C1928 0.959 . S
H1913 C1928 0.959 . S
H1914 C1928 0.961 . S
H1915 C1929 0.960 . S
H1916 C1929 0.961 . S
H1917 C1929 0.959 . S
H1918 C1932 0.929 . S
H1919 C1933 0.931 . S
H1920 C1935 0.930 . S
C1921 H1909 0.930 . S
C1921 C1922 1.431 . S
C1921 C1926 1.399 . S
C1922 C1921 1.431 . S
C1922 C1923 1.334 1_545 S
C1923 H1910 0.930 . S
C1923 C1922 1.334 1_565 S
C1923 C1924 1.388 . S
C1924 H1911 0.930 . S
C1924 C1923 1.388 . S
C1924 C1925 1.390 . S
C1925 C1924 1.390 . S
C1925 C1926 1.394 1_565 S
C1925 C1931 1.465 . S
C1926 C1921 1.399 . S
C1926 C1925 1.394 1_545 S
C1926 C1927 1.516 . S
C1927 C1926 1.516 . S
C1927 C1928 1.502 . S
C1927 C1929 1.561 . S
C1927 C1930 1.526 . S
C1928 H1912 0.959 . S
C1928 H1913 0.959 . S
C1928 H1914 0.961 . S
C1928 C1927 1.502 . S
C1929 H1915 0.960 . S
C1929 H1916 0.961 . S
C1929 H1917 0.959 . S
C1929 C1927 1.561 . S
C1930 C1927 1.526 . S
C1930 C1931 1.396 1_545 S
C1930 C1935 1.390 . S
C1931 C1925 1.465 . S
C1931 C1930 1.396 1_565 S
C1931 C1932 1.399 . S
C1932 H1918 0.929 . S
C1932 C1931 1.399 . S
C1932 C1933 1.385 . S
C1933 H1919 0.931 . S
C1933 C1932 1.385 . S
C1933 C1934 1.389 . S
C1934 C1933 1.389 . S
C1934 C1935 1.387 1_565 S
C1935 H1920 0.930 . S
C1935 C1930 1.390 . S
C1935 C1934 1.387 1_545 S
C653 C10 3.231 . S
C665 C410 3.247 . S
C680 C50 3.229 . S
C692 C450 3.249 . S
C707 C90 3.231 . S
C719 C330 3.247 . S
C734 C130 3.231 . S
C746 C370 3.247 . S
C761 C179 3.254 . S
C773 C579 3.232 . S
C788 C219 3.251 . S
C800 C619 3.236 . S
C815 C259 3.229 . S
C827 C499 3.250 . S
C842 C299 3.241 . S
C854 C539 3.238 . S
C869 C369 3.710 . S
C881 C19 3.688 1_556 S
C896 C409 3.719 . S
C908 C59 3.702 . S
C923 C449 3.716 . S
C935 C99 3.693 . S
C950 C329 3.733 . S
C962 C139 3.711 . S
C977 C170 3.687 1_554 S
C989 C538 3.717 . S
C1004 C578 3.713 . S
C1016 C210 3.686 . S
C1031 C618 3.734 . S
C1043 C250 3.702 . S
C1058 C498 3.709 . S
C1070 C290 3.687 . S
C1085 C49 3.730 . S
C1097 C339 3.714 . S
C1112 C379 3.687 . S
C1124 C89 3.708 . S
C1139 C419 3.699 1_556 S
C1151 C129 3.717 . S
C1166 C459 3.720 . S
C1178 C9 3.738 . S
C1193 C490 3.722 . S
C1205 C218 3.735 . S
C1220 C258 3.715 . S
C1232 C530 3.708 . S
C1247 C298 3.726 . S
C1259 C570 3.719 1_554 S
C1274 C610 3.711 . S
C1286 C178 3.718 . S
C1301 C6 0.378 . S
C1313 C609 0.088 . S
C1328 C46 0.422 . S
C1340 C169 0.272 . S
C1355 C529 0.274 . S
C1367 C86 0.383 1_655 S
C1382 C249 0.168 . S
C1394 C126 0.533 . S
C1409 C175 0.347 . S
C1421 C458 0.077 . S
C1436 C215 0.542 . S
C1448 C18 0.240 . S
C1463 C378 0.223 . S
C1475 C255 0.533 1_455 S
C1490 C98 0.256 . S
C1502 C295 0.397 . S
C1517 C326 0.258 . S
C1529 C289 0.222 . S
C1544 C366 0.469 . S
C1556 C489 0.267 . S
C1571 C209 0.077 . S
C1583 C406 0.420 . S
C1598 C569 0.221 . S
C1610 C446 0.536 . S
C1625 C495 0.460 1_655 S
C1637 C138 0.269 . S
C1652 C535 0.261 . S
C1664 C338 0.114 . S
C1679 C575 0.426 . S
C1691 C58 0.262 . S
C1706 C418 0.270 . S
C1718 C615 0.521 . S
C1733 C15 1.619 . S
C1745 C486 1.680 . S
C1760 C55 1.616 . S
C1772 C206 1.705 . S
C1787 C95 1.699 . S
C1799 C566 1.628 . S
C1814 C286 1.620 . S
C1826 C135 1.703 . S
C1841 C166 1.644 . S
C1853 C335 1.653 . S
C1868 C415 1.616 . S
C1880 C246 1.705 . S
C1895 C375 1.673 . S
C1907 C526 1.658 . S
C1922 C606 1.733 . S
C1934 C455 1.608 . S
