# Generated by pormake.
# Topology unt, (4)-cn, num edge types: 1
# Building blocks:
#     Node 0, Type 0, BuildingBlock: GALJAG_clean_sbu_0, # of connection points: 4
#     Node 1, Type 0, BuildingBlock: GALJAG_clean_sbu_0, # of connection points: 4
#     Node 2, Type 0, BuildingBlock: GALJAG_clean_sbu_0, # of connection points: 4
#     Node 3, Type 0, BuildingBlock: GALJAG_clean_sbu_0, # of connection points: 4
#     Node 4, Type 0, BuildingBlock: GALJAG_clean_sbu_0, # of connection points: 4
#     Node 5, Type 0, BuildingBlock: GALJAG_clean_sbu_0, # of connection points: 4
#     Node 6, Type 0, BuildingBlock: GALJAG_clean_sbu_0, # of connection points: 4
#     Node 7, Type 0, BuildingBlock: GALJAG_clean_sbu_0, # of connection points: 4
#     Node 8, Type 0, BuildingBlock: GALJAG_clean_sbu_0, # of connection points: 4
#     Node 9, Type 0, BuildingBlock: GALJAG_clean_sbu_0, # of connection points: 4
#     Node 10, Type 0, BuildingBlock: GALJAG_clean_sbu_0, # of connection points: 4
#     Node 11, Type 0, BuildingBlock: GALJAG_clean_sbu_0, # of connection points: 4
#     Node 12, Type 0, BuildingBlock: GALJAG_clean_sbu_0, # of connection points: 4
#     Node 13, Type 0, BuildingBlock: GALJAG_clean_sbu_0, # of connection points: 4
#     Node 14, Type 0, BuildingBlock: GALJAG_clean_sbu_0, # of connection points: 4
#     Node 15, Type 0, BuildingBlock: GALJAG_clean_sbu_0, # of connection points: 4
#     Node 16, Type 0, BuildingBlock: GALJAG_clean_sbu_0, # of connection points: 4
#     Node 17, Type 0, BuildingBlock: GALJAG_clean_sbu_0, # of connection points: 4
#     Node 18, Type 0, BuildingBlock: GALJAG_clean_sbu_0, # of connection points: 4
#     Node 19, Type 0, BuildingBlock: GALJAG_clean_sbu_0, # of connection points: 4
#     Node 20, Type 0, BuildingBlock: GALJAG_clean_sbu_0, # of connection points: 4
#     Node 21, Type 0, BuildingBlock: GALJAG_clean_sbu_0, # of connection points: 4
#     Node 22, Type 0, BuildingBlock: GALJAG_clean_sbu_0, # of connection points: 4
#     Node 23, Type 0, BuildingBlock: GALJAG_clean_sbu_0, # of connection points: 4
#     Node 24, Type 0, BuildingBlock: GALJAG_clean_sbu_0, # of connection points: 4
#     Node 25, Type 0, BuildingBlock: GALJAG_clean_sbu_0, # of connection points: 4
#     Node 26, Type 0, BuildingBlock: GALJAG_clean_sbu_0, # of connection points: 4
#     Node 27, Type 0, BuildingBlock: GALJAG_clean_sbu_0, # of connection points: 4
#     Node 28, Type 0, BuildingBlock: GALJAG_clean_sbu_0, # of connection points: 4
#     Node 29, Type 0, BuildingBlock: GALJAG_clean_sbu_0, # of connection points: 4
#     Node 30, Type 0, BuildingBlock: GALJAG_clean_sbu_0, # of connection points: 4
#     Node 31, Type 0, BuildingBlock: GALJAG_clean_sbu_0, # of connection points: 4
#     Node 32, Type 0, BuildingBlock: GALJAG_clean_sbu_0, # of connection points: 4
#     Node 33, Type 0, BuildingBlock: GALJAG_clean_sbu_0, # of connection points: 4
#     Node 34, Type 0, BuildingBlock: GALJAG_clean_sbu_0, # of connection points: 4
#     Node 35, Type 0, BuildingBlock: GALJAG_clean_sbu_0, # of connection points: 4
#     Node 36, Type 0, BuildingBlock: GALJAG_clean_sbu_0, # of connection points: 4
#     Node 37, Type 0, BuildingBlock: GALJAG_clean_sbu_0, # of connection points: 4
#     Node 38, Type 0, BuildingBlock: GALJAG_clean_sbu_0, # of connection points: 4
#     Node 39, Type 0, BuildingBlock: GALJAG_clean_sbu_0, # of connection points: 4
#     Node 40, Type 0, BuildingBlock: GALJAG_clean_sbu_0, # of connection points: 4
#     Node 41, Type 0, BuildingBlock: GALJAG_clean_sbu_0, # of connection points: 4
#     Node 42, Type 0, BuildingBlock: GALJAG_clean_sbu_0, # of connection points: 4
#     Node 43, Type 0, BuildingBlock: GALJAG_clean_sbu_0, # of connection points: 4
#     Node 44, Type 0, BuildingBlock: GALJAG_clean_sbu_0, # of connection points: 4
#     Node 45, Type 0, BuildingBlock: GALJAG_clean_sbu_0, # of connection points: 4
#     Node 46, Type 0, BuildingBlock: GALJAG_clean_sbu_0, # of connection points: 4
#     Node 47, Type 0, BuildingBlock: GALJAG_clean_sbu_0, # of connection points: 4
#     Node 48, Type 0, BuildingBlock: GALJAG_clean_sbu_0, # of connection points: 4
#     Node 49, Type 0, BuildingBlock: GALJAG_clean_sbu_0, # of connection points: 4
#     Node 50, Type 0, BuildingBlock: GALJAG_clean_sbu_0, # of connection points: 4
#     Node 51, Type 0, BuildingBlock: GALJAG_clean_sbu_0, # of connection points: 4
#     Node 52, Type 0, BuildingBlock: GALJAG_clean_sbu_0, # of connection points: 4
#     Node 53, Type 0, BuildingBlock: GALJAG_clean_sbu_0, # of connection points: 4
#     Node 54, Type 0, BuildingBlock: GALJAG_clean_sbu_0, # of connection points: 4
#     Node 55, Type 0, BuildingBlock: GALJAG_clean_sbu_0, # of connection points: 4
#     Node 56, Type 0, BuildingBlock: GALJAG_clean_sbu_0, # of connection points: 4
#     Node 57, Type 0, BuildingBlock: GALJAG_clean_sbu_0, # of connection points: 4
#     Node 58, Type 0, BuildingBlock: GALJAG_clean_sbu_0, # of connection points: 4
#     Node 59, Type 0, BuildingBlock: GALJAG_clean_sbu_0, # of connection points: 4
#     Node 60, Type 0, BuildingBlock: GALJAG_clean_sbu_0, # of connection points: 4
#     Node 61, Type 0, BuildingBlock: GALJAG_clean_sbu_0, # of connection points: 4
#     Node 62, Type 0, BuildingBlock: GALJAG_clean_sbu_0, # of connection points: 4
#     Node 63, Type 0, BuildingBlock: GALJAG_clean_sbu_0, # of connection points: 4
#     Node 64, Type 0, BuildingBlock: GALJAG_clean_sbu_0, # of connection points: 4
#     Node 65, Type 0, BuildingBlock: GALJAG_clean_sbu_0, # of connection points: 4
#     Node 66, Type 0, BuildingBlock: GALJAG_clean_sbu_0, # of connection points: 4
#     Node 67, Type 0, BuildingBlock: GALJAG_clean_sbu_0, # of connection points: 4
#     Node 68, Type 0, BuildingBlock: GALJAG_clean_sbu_0, # of connection points: 4
#     Node 69, Type 0, BuildingBlock: GALJAG_clean_sbu_0, # of connection points: 4
#     Node 70, Type 0, BuildingBlock: GALJAG_clean_sbu_0, # of connection points: 4
#     Node 71, Type 0, BuildingBlock: GALJAG_clean_sbu_0, # of connection points: 4
#     Node 72, Type 0, BuildingBlock: GALJAG_clean_sbu_0, # of connection points: 4
#     Node 73, Type 0, BuildingBlock: GALJAG_clean_sbu_0, # of connection points: 4
#     Node 74, Type 0, BuildingBlock: GALJAG_clean_sbu_0, # of connection points: 4
#     Node 75, Type 0, BuildingBlock: GALJAG_clean_sbu_0, # of connection points: 4
#     Node 76, Type 0, BuildingBlock: GALJAG_clean_sbu_0, # of connection points: 4
#     Node 77, Type 0, BuildingBlock: GALJAG_clean_sbu_0, # of connection points: 4
#     Node 78, Type 0, BuildingBlock: GALJAG_clean_sbu_0, # of connection points: 4
#     Node 79, Type 0, BuildingBlock: GALJAG_clean_sbu_0, # of connection points: 4
#     Node 80, Type 0, BuildingBlock: GALJAG_clean_sbu_0, # of connection points: 4
#     Node 81, Type 0, BuildingBlock: GALJAG_clean_sbu_0, # of connection points: 4
#     Node 82, Type 0, BuildingBlock: GALJAG_clean_sbu_0, # of connection points: 4
#     Node 83, Type 0, BuildingBlock: GALJAG_clean_sbu_0, # of connection points: 4
#     Node 84, Type 0, BuildingBlock: GALJAG_clean_sbu_0, # of connection points: 4
#     Node 85, Type 0, BuildingBlock: GALJAG_clean_sbu_0, # of connection points: 4
#     Node 86, Type 0, BuildingBlock: GALJAG_clean_sbu_0, # of connection points: 4
#     Node 87, Type 0, BuildingBlock: GALJAG_clean_sbu_0, # of connection points: 4
#     Node 88, Type 0, BuildingBlock: GALJAG_clean_sbu_0, # of connection points: 4
#     Node 89, Type 0, BuildingBlock: GALJAG_clean_sbu_0, # of connection points: 4
#     Node 90, Type 0, BuildingBlock: GALJAG_clean_sbu_0, # of connection points: 4
#     Node 91, Type 0, BuildingBlock: GALJAG_clean_sbu_0, # of connection points: 4
#     Node 92, Type 0, BuildingBlock: GALJAG_clean_sbu_0, # of connection points: 4
#     Node 93, Type 0, BuildingBlock: GALJAG_clean_sbu_0, # of connection points: 4
#     Node 94, Type 0, BuildingBlock: GALJAG_clean_sbu_0, # of connection points: 4
#     Node 95, Type 0, BuildingBlock: GALJAG_clean_sbu_0, # of connection points: 4
#     Node 96, Type 0, BuildingBlock: GALJAG_clean_sbu_0, # of connection points: 4
#     Node 97, Type 0, BuildingBlock: GALJAG_clean_sbu_0, # of connection points: 4
#     Node 98, Type 0, BuildingBlock: GALJAG_clean_sbu_0, # of connection points: 4
#     Node 99, Type 0, BuildingBlock: GALJAG_clean_sbu_0, # of connection points: 4
#     Node 100, Type 0, BuildingBlock: GALJAG_clean_sbu_0, # of connection points: 4
#     Node 101, Type 0, BuildingBlock: GALJAG_clean_sbu_0, # of connection points: 4
#     Node 102, Type 0, BuildingBlock: GALJAG_clean_sbu_0, # of connection points: 4
#     Node 103, Type 0, BuildingBlock: GALJAG_clean_sbu_0, # of connection points: 4
#     Node 104, Type 0, BuildingBlock: GALJAG_clean_sbu_0, # of connection points: 4
#     Node 105, Type 0, BuildingBlock: GALJAG_clean_sbu_0, # of connection points: 4
#     Node 106, Type 0, BuildingBlock: GALJAG_clean_sbu_0, # of connection points: 4
#     Node 107, Type 0, BuildingBlock: GALJAG_clean_sbu_0, # of connection points: 4
#     Node 108, Type 0, BuildingBlock: GALJAG_clean_sbu_0, # of connection points: 4
#     Node 109, Type 0, BuildingBlock: GALJAG_clean_sbu_0, # of connection points: 4
#     Node 110, Type 0, BuildingBlock: GALJAG_clean_sbu_0, # of connection points: 4
#     Node 111, Type 0, BuildingBlock: GALJAG_clean_sbu_0, # of connection points: 4
#     Node 112, Type 0, BuildingBlock: GALJAG_clean_sbu_0, # of connection points: 4
#     Node 113, Type 0, BuildingBlock: GALJAG_clean_sbu_0, # of connection points: 4
#     Node 114, Type 0, BuildingBlock: GALJAG_clean_sbu_0, # of connection points: 4
#     Node 115, Type 0, BuildingBlock: GALJAG_clean_sbu_0, # of connection points: 4
#     Node 116, Type 0, BuildingBlock: GALJAG_clean_sbu_0, # of connection points: 4
#     Node 117, Type 0, BuildingBlock: GALJAG_clean_sbu_0, # of connection points: 4
#     Node 118, Type 0, BuildingBlock: GALJAG_clean_sbu_0, # of connection points: 4
#     Node 119, Type 0, BuildingBlock: GALJAG_clean_sbu_0, # of connection points: 4
#     Node 120, Type 0, BuildingBlock: GALJAG_clean_sbu_0, # of connection points: 4
#     Node 121, Type 0, BuildingBlock: GALJAG_clean_sbu_0, # of connection points: 4
#     Node 122, Type 0, BuildingBlock: GALJAG_clean_sbu_0, # of connection points: 4
#     Node 123, Type 0, BuildingBlock: GALJAG_clean_sbu_0, # of connection points: 4
#     Node 124, Type 0, BuildingBlock: GALJAG_clean_sbu_0, # of connection points: 4
#     Node 125, Type 0, BuildingBlock: GALJAG_clean_sbu_0, # of connection points: 4
#     Node 126, Type 0, BuildingBlock: GALJAG_clean_sbu_0, # of connection points: 4
#     Node 127, Type 0, BuildingBlock: GALJAG_clean_sbu_0, # of connection points: 4
#     Node 128, Type 0, BuildingBlock: GALJAG_clean_sbu_0, # of connection points: 4
#     Node 129, Type 0, BuildingBlock: GALJAG_clean_sbu_0, # of connection points: 4
#     Node 130, Type 0, BuildingBlock: GALJAG_clean_sbu_0, # of connection points: 4
#     Node 131, Type 0, BuildingBlock: GALJAG_clean_sbu_0, # of connection points: 4
#     Node 132, Type 0, BuildingBlock: GALJAG_clean_sbu_0, # of connection points: 4
#     Node 133, Type 0, BuildingBlock: GALJAG_clean_sbu_0, # of connection points: 4
#     Node 134, Type 0, BuildingBlock: GALJAG_clean_sbu_0, # of connection points: 4
#     Node 135, Type 0, BuildingBlock: GALJAG_clean_sbu_0, # of connection points: 4
#     Node 136, Type 0, BuildingBlock: GALJAG_clean_sbu_0, # of connection points: 4
#     Node 137, Type 0, BuildingBlock: GALJAG_clean_sbu_0, # of connection points: 4
#     Node 138, Type 0, BuildingBlock: GALJAG_clean_sbu_0, # of connection points: 4
#     Node 139, Type 0, BuildingBlock: GALJAG_clean_sbu_0, # of connection points: 4
#     Node 140, Type 0, BuildingBlock: GALJAG_clean_sbu_0, # of connection points: 4
#     Node 141, Type 0, BuildingBlock: GALJAG_clean_sbu_0, # of connection points: 4
#     Node 142, Type 0, BuildingBlock: GALJAG_clean_sbu_0, # of connection points: 4
#     Node 143, Type 0, BuildingBlock: GALJAG_clean_sbu_0, # of connection points: 4
#     Node 144, Type 0, BuildingBlock: GALJAG_clean_sbu_0, # of connection points: 4
#     Node 145, Type 0, BuildingBlock: GALJAG_clean_sbu_0, # of connection points: 4
#     Node 146, Type 0, BuildingBlock: GALJAG_clean_sbu_0, # of connection points: 4
#     Node 147, Type 0, BuildingBlock: GALJAG_clean_sbu_0, # of connection points: 4
#     Node 148, Type 0, BuildingBlock: GALJAG_clean_sbu_0, # of connection points: 4
#     Node 149, Type 0, BuildingBlock: GALJAG_clean_sbu_0, # of connection points: 4
#     Node 150, Type 0, BuildingBlock: GALJAG_clean_sbu_0, # of connection points: 4
#     Node 151, Type 0, BuildingBlock: GALJAG_clean_sbu_0, # of connection points: 4
#     Node 152, Type 0, BuildingBlock: GALJAG_clean_sbu_0, # of connection points: 4
#     Node 153, Type 0, BuildingBlock: GALJAG_clean_sbu_0, # of connection points: 4
#     Node 154, Type 0, BuildingBlock: GALJAG_clean_sbu_0, # of connection points: 4
#     Node 155, Type 0, BuildingBlock: GALJAG_clean_sbu_0, # of connection points: 4
#     Node 156, Type 0, BuildingBlock: GALJAG_clean_sbu_0, # of connection points: 4
#     Node 157, Type 0, BuildingBlock: GALJAG_clean_sbu_0, # of connection points: 4
#     Node 158, Type 0, BuildingBlock: GALJAG_clean_sbu_0, # of connection points: 4
#     Node 159, Type 0, BuildingBlock: GALJAG_clean_sbu_0, # of connection points: 4
#     Node 160, Type 0, BuildingBlock: GALJAG_clean_sbu_0, # of connection points: 4
#     Node 161, Type 0, BuildingBlock: GALJAG_clean_sbu_0, # of connection points: 4
#     Node 162, Type 0, BuildingBlock: GALJAG_clean_sbu_0, # of connection points: 4
#     Node 163, Type 0, BuildingBlock: GALJAG_clean_sbu_0, # of connection points: 4
#     Node 164, Type 0, BuildingBlock: GALJAG_clean_sbu_0, # of connection points: 4
#     Node 165, Type 0, BuildingBlock: GALJAG_clean_sbu_0, # of connection points: 4
#     Node 166, Type 0, BuildingBlock: GALJAG_clean_sbu_0, # of connection points: 4
#     Node 167, Type 0, BuildingBlock: GALJAG_clean_sbu_0, # of connection points: 4
#     Node 168, Type 0, BuildingBlock: GALJAG_clean_sbu_0, # of connection points: 4
#     Node 169, Type 0, BuildingBlock: GALJAG_clean_sbu_0, # of connection points: 4
#     Node 170, Type 0, BuildingBlock: GALJAG_clean_sbu_0, # of connection points: 4
#     Node 171, Type 0, BuildingBlock: GALJAG_clean_sbu_0, # of connection points: 4
#     Node 172, Type 0, BuildingBlock: GALJAG_clean_sbu_0, # of connection points: 4
#     Node 173, Type 0, BuildingBlock: GALJAG_clean_sbu_0, # of connection points: 4
#     Node 174, Type 0, BuildingBlock: GALJAG_clean_sbu_0, # of connection points: 4
#     Node 175, Type 0, BuildingBlock: GALJAG_clean_sbu_0, # of connection points: 4
#     Node 176, Type 0, BuildingBlock: GALJAG_clean_sbu_0, # of connection points: 4
#     Node 177, Type 0, BuildingBlock: GALJAG_clean_sbu_0, # of connection points: 4
#     Node 178, Type 0, BuildingBlock: GALJAG_clean_sbu_0, # of connection points: 4
#     Node 179, Type 0, BuildingBlock: GALJAG_clean_sbu_0, # of connection points: 4
#     Node 180, Type 0, BuildingBlock: GALJAG_clean_sbu_0, # of connection points: 4
#     Node 181, Type 0, BuildingBlock: GALJAG_clean_sbu_0, # of connection points: 4
#     Node 182, Type 0, BuildingBlock: GALJAG_clean_sbu_0, # of connection points: 4
#     Node 183, Type 0, BuildingBlock: GALJAG_clean_sbu_0, # of connection points: 4
#     Node 184, Type 0, BuildingBlock: GALJAG_clean_sbu_0, # of connection points: 4
#     Node 185, Type 0, BuildingBlock: GALJAG_clean_sbu_0, # of connection points: 4
#     Node 186, Type 0, BuildingBlock: GALJAG_clean_sbu_0, # of connection points: 4
#     Node 187, Type 0, BuildingBlock: GALJAG_clean_sbu_0, # of connection points: 4
#     Node 188, Type 0, BuildingBlock: GALJAG_clean_sbu_0, # of connection points: 4
#     Node 189, Type 0, BuildingBlock: GALJAG_clean_sbu_0, # of connection points: 4
#     Node 190, Type 0, BuildingBlock: GALJAG_clean_sbu_0, # of connection points: 4
#     Node 191, Type 0, BuildingBlock: GALJAG_clean_sbu_0, # of connection points: 4
#     Edge 192, Type (0, 0), BuildingBlock: OJICUG_clean_linker_0, # of connection points: 2
#     Edge 193, Type (0, 0), BuildingBlock: OJICUG_clean_linker_0, # of connection points: 2
#     Edge 194, Type (0, 0), BuildingBlock: OJICUG_clean_linker_0, # of connection points: 2
#     Edge 195, Type (0, 0), BuildingBlock: OJICUG_clean_linker_0, # of connection points: 2
#     Edge 196, Type (0, 0), BuildingBlock: OJICUG_clean_linker_0, # of connection points: 2
#     Edge 197, Type (0, 0), BuildingBlock: OJICUG_clean_linker_0, # of connection points: 2
#     Edge 198, Type (0, 0), BuildingBlock: OJICUG_clean_linker_0, # of connection points: 2
#     Edge 199, Type (0, 0), BuildingBlock: OJICUG_clean_linker_0, # of connection points: 2
#     Edge 200, Type (0, 0), BuildingBlock: OJICUG_clean_linker_0, # of connection points: 2
#     Edge 201, Type (0, 0), BuildingBlock: OJICUG_clean_linker_0, # of connection points: 2
#     Edge 202, Type (0, 0), BuildingBlock: OJICUG_clean_linker_0, # of connection points: 2
#     Edge 203, Type (0, 0), BuildingBlock: OJICUG_clean_linker_0, # of connection points: 2
#     Edge 204, Type (0, 0), BuildingBlock: OJICUG_clean_linker_0, # of connection points: 2
#     Edge 205, Type (0, 0), BuildingBlock: OJICUG_clean_linker_0, # of connection points: 2
#     Edge 206, Type (0, 0), BuildingBlock: OJICUG_clean_linker_0, # of connection points: 2
#     Edge 207, Type (0, 0), BuildingBlock: OJICUG_clean_linker_0, # of connection points: 2
#     Edge 208, Type (0, 0), BuildingBlock: OJICUG_clean_linker_0, # of connection points: 2
#     Edge 209, Type (0, 0), BuildingBlock: OJICUG_clean_linker_0, # of connection points: 2
#     Edge 210, Type (0, 0), BuildingBlock: OJICUG_clean_linker_0, # of connection points: 2
#     Edge 211, Type (0, 0), BuildingBlock: OJICUG_clean_linker_0, # of connection points: 2
#     Edge 212, Type (0, 0), BuildingBlock: OJICUG_clean_linker_0, # of connection points: 2
#     Edge 213, Type (0, 0), BuildingBlock: OJICUG_clean_linker_0, # of connection points: 2
#     Edge 214, Type (0, 0), BuildingBlock: OJICUG_clean_linker_0, # of connection points: 2
#     Edge 215, Type (0, 0), BuildingBlock: OJICUG_clean_linker_0, # of connection points: 2
#     Edge 216, Type (0, 0), BuildingBlock: OJICUG_clean_linker_0, # of connection points: 2
#     Edge 217, Type (0, 0), BuildingBlock: OJICUG_clean_linker_0, # of connection points: 2
#     Edge 218, Type (0, 0), BuildingBlock: OJICUG_clean_linker_0, # of connection points: 2
#     Edge 219, Type (0, 0), BuildingBlock: OJICUG_clean_linker_0, # of connection points: 2
#     Edge 220, Type (0, 0), BuildingBlock: OJICUG_clean_linker_0, # of connection points: 2
#     Edge 221, Type (0, 0), BuildingBlock: OJICUG_clean_linker_0, # of connection points: 2
#     Edge 222, Type (0, 0), BuildingBlock: OJICUG_clean_linker_0, # of connection points: 2
#     Edge 223, Type (0, 0), BuildingBlock: OJICUG_clean_linker_0, # of connection points: 2
#     Edge 224, Type (0, 0), BuildingBlock: OJICUG_clean_linker_0, # of connection points: 2
#     Edge 225, Type (0, 0), BuildingBlock: OJICUG_clean_linker_0, # of connection points: 2
#     Edge 226, Type (0, 0), BuildingBlock: OJICUG_clean_linker_0, # of connection points: 2
#     Edge 227, Type (0, 0), BuildingBlock: OJICUG_clean_linker_0, # of connection points: 2
#     Edge 228, Type (0, 0), BuildingBlock: OJICUG_clean_linker_0, # of connection points: 2
#     Edge 229, Type (0, 0), BuildingBlock: OJICUG_clean_linker_0, # of connection points: 2
#     Edge 230, Type (0, 0), BuildingBlock: OJICUG_clean_linker_0, # of connection points: 2
#     Edge 231, Type (0, 0), BuildingBlock: OJICUG_clean_linker_0, # of connection points: 2
#     Edge 232, Type (0, 0), BuildingBlock: OJICUG_clean_linker_0, # of connection points: 2
#     Edge 233, Type (0, 0), BuildingBlock: OJICUG_clean_linker_0, # of connection points: 2
#     Edge 234, Type (0, 0), BuildingBlock: OJICUG_clean_linker_0, # of connection points: 2
#     Edge 235, Type (0, 0), BuildingBlock: OJICUG_clean_linker_0, # of connection points: 2
#     Edge 236, Type (0, 0), BuildingBlock: OJICUG_clean_linker_0, # of connection points: 2
#     Edge 237, Type (0, 0), BuildingBlock: OJICUG_clean_linker_0, # of connection points: 2
#     Edge 238, Type (0, 0), BuildingBlock: OJICUG_clean_linker_0, # of connection points: 2
#     Edge 239, Type (0, 0), BuildingBlock: OJICUG_clean_linker_0, # of connection points: 2
#     Edge 240, Type (0, 0), BuildingBlock: OJICUG_clean_linker_0, # of connection points: 2
#     Edge 241, Type (0, 0), BuildingBlock: OJICUG_clean_linker_0, # of connection points: 2
#     Edge 242, Type (0, 0), BuildingBlock: OJICUG_clean_linker_0, # of connection points: 2
#     Edge 243, Type (0, 0), BuildingBlock: OJICUG_clean_linker_0, # of connection points: 2
#     Edge 244, Type (0, 0), BuildingBlock: OJICUG_clean_linker_0, # of connection points: 2
#     Edge 245, Type (0, 0), BuildingBlock: OJICUG_clean_linker_0, # of connection points: 2
#     Edge 246, Type (0, 0), BuildingBlock: OJICUG_clean_linker_0, # of connection points: 2
#     Edge 247, Type (0, 0), BuildingBlock: OJICUG_clean_linker_0, # of connection points: 2
#     Edge 248, Type (0, 0), BuildingBlock: OJICUG_clean_linker_0, # of connection points: 2
#     Edge 249, Type (0, 0), BuildingBlock: OJICUG_clean_linker_0, # of connection points: 2
#     Edge 250, Type (0, 0), BuildingBlock: OJICUG_clean_linker_0, # of connection points: 2
#     Edge 251, Type (0, 0), BuildingBlock: OJICUG_clean_linker_0, # of connection points: 2
#     Edge 252, Type (0, 0), BuildingBlock: OJICUG_clean_linker_0, # of connection points: 2
#     Edge 253, Type (0, 0), BuildingBlock: OJICUG_clean_linker_0, # of connection points: 2
#     Edge 254, Type (0, 0), BuildingBlock: OJICUG_clean_linker_0, # of connection points: 2
#     Edge 255, Type (0, 0), BuildingBlock: OJICUG_clean_linker_0, # of connection points: 2
#     Edge 256, Type (0, 0), BuildingBlock: OJICUG_clean_linker_0, # of connection points: 2
#     Edge 257, Type (0, 0), BuildingBlock: OJICUG_clean_linker_0, # of connection points: 2
#     Edge 258, Type (0, 0), BuildingBlock: OJICUG_clean_linker_0, # of connection points: 2
#     Edge 259, Type (0, 0), BuildingBlock: OJICUG_clean_linker_0, # of connection points: 2
#     Edge 260, Type (0, 0), BuildingBlock: OJICUG_clean_linker_0, # of connection points: 2
#     Edge 261, Type (0, 0), BuildingBlock: OJICUG_clean_linker_0, # of connection points: 2
#     Edge 262, Type (0, 0), BuildingBlock: OJICUG_clean_linker_0, # of connection points: 2
#     Edge 263, Type (0, 0), BuildingBlock: OJICUG_clean_linker_0, # of connection points: 2
#     Edge 264, Type (0, 0), BuildingBlock: OJICUG_clean_linker_0, # of connection points: 2
#     Edge 265, Type (0, 0), BuildingBlock: OJICUG_clean_linker_0, # of connection points: 2
#     Edge 266, Type (0, 0), BuildingBlock: OJICUG_clean_linker_0, # of connection points: 2
#     Edge 267, Type (0, 0), BuildingBlock: OJICUG_clean_linker_0, # of connection points: 2
#     Edge 268, Type (0, 0), BuildingBlock: OJICUG_clean_linker_0, # of connection points: 2
#     Edge 269, Type (0, 0), BuildingBlock: OJICUG_clean_linker_0, # of connection points: 2
#     Edge 270, Type (0, 0), BuildingBlock: OJICUG_clean_linker_0, # of connection points: 2
#     Edge 271, Type (0, 0), BuildingBlock: OJICUG_clean_linker_0, # of connection points: 2
#     Edge 272, Type (0, 0), BuildingBlock: OJICUG_clean_linker_0, # of connection points: 2
#     Edge 273, Type (0, 0), BuildingBlock: OJICUG_clean_linker_0, # of connection points: 2
#     Edge 274, Type (0, 0), BuildingBlock: OJICUG_clean_linker_0, # of connection points: 2
#     Edge 275, Type (0, 0), BuildingBlock: OJICUG_clean_linker_0, # of connection points: 2
#     Edge 276, Type (0, 0), BuildingBlock: OJICUG_clean_linker_0, # of connection points: 2
#     Edge 277, Type (0, 0), BuildingBlock: OJICUG_clean_linker_0, # of connection points: 2
#     Edge 278, Type (0, 0), BuildingBlock: OJICUG_clean_linker_0, # of connection points: 2
#     Edge 279, Type (0, 0), BuildingBlock: OJICUG_clean_linker_0, # of connection points: 2
#     Edge 280, Type (0, 0), BuildingBlock: OJICUG_clean_linker_0, # of connection points: 2
#     Edge 281, Type (0, 0), BuildingBlock: OJICUG_clean_linker_0, # of connection points: 2
#     Edge 282, Type (0, 0), BuildingBlock: OJICUG_clean_linker_0, # of connection points: 2
#     Edge 283, Type (0, 0), BuildingBlock: OJICUG_clean_linker_0, # of connection points: 2
#     Edge 284, Type (0, 0), BuildingBlock: OJICUG_clean_linker_0, # of connection points: 2
#     Edge 285, Type (0, 0), BuildingBlock: OJICUG_clean_linker_0, # of connection points: 2
#     Edge 286, Type (0, 0), BuildingBlock: OJICUG_clean_linker_0, # of connection points: 2
#     Edge 287, Type (0, 0), BuildingBlock: OJICUG_clean_linker_0, # of connection points: 2
#     Edge 288, Type (0, 0), BuildingBlock: OJICUG_clean_linker_0, # of connection points: 2
#     Edge 289, Type (0, 0), BuildingBlock: OJICUG_clean_linker_0, # of connection points: 2
#     Edge 290, Type (0, 0), BuildingBlock: OJICUG_clean_linker_0, # of connection points: 2
#     Edge 291, Type (0, 0), BuildingBlock: OJICUG_clean_linker_0, # of connection points: 2
#     Edge 292, Type (0, 0), BuildingBlock: OJICUG_clean_linker_0, # of connection points: 2
#     Edge 293, Type (0, 0), BuildingBlock: OJICUG_clean_linker_0, # of connection points: 2
#     Edge 294, Type (0, 0), BuildingBlock: OJICUG_clean_linker_0, # of connection points: 2
#     Edge 295, Type (0, 0), BuildingBlock: OJICUG_clean_linker_0, # of connection points: 2
#     Edge 296, Type (0, 0), BuildingBlock: OJICUG_clean_linker_0, # of connection points: 2
#     Edge 297, Type (0, 0), BuildingBlock: OJICUG_clean_linker_0, # of connection points: 2
#     Edge 298, Type (0, 0), BuildingBlock: OJICUG_clean_linker_0, # of connection points: 2
#     Edge 299, Type (0, 0), BuildingBlock: OJICUG_clean_linker_0, # of connection points: 2
#     Edge 300, Type (0, 0), BuildingBlock: OJICUG_clean_linker_0, # of connection points: 2
#     Edge 301, Type (0, 0), BuildingBlock: OJICUG_clean_linker_0, # of connection points: 2
#     Edge 302, Type (0, 0), BuildingBlock: OJICUG_clean_linker_0, # of connection points: 2
#     Edge 303, Type (0, 0), BuildingBlock: OJICUG_clean_linker_0, # of connection points: 2
#     Edge 304, Type (0, 0), BuildingBlock: OJICUG_clean_linker_0, # of connection points: 2
#     Edge 305, Type (0, 0), BuildingBlock: OJICUG_clean_linker_0, # of connection points: 2
#     Edge 306, Type (0, 0), BuildingBlock: OJICUG_clean_linker_0, # of connection points: 2
#     Edge 307, Type (0, 0), BuildingBlock: OJICUG_clean_linker_0, # of connection points: 2
#     Edge 308, Type (0, 0), BuildingBlock: OJICUG_clean_linker_0, # of connection points: 2
#     Edge 309, Type (0, 0), BuildingBlock: OJICUG_clean_linker_0, # of connection points: 2
#     Edge 310, Type (0, 0), BuildingBlock: OJICUG_clean_linker_0, # of connection points: 2
#     Edge 311, Type (0, 0), BuildingBlock: OJICUG_clean_linker_0, # of connection points: 2
#     Edge 312, Type (0, 0), BuildingBlock: OJICUG_clean_linker_0, # of connection points: 2
#     Edge 313, Type (0, 0), BuildingBlock: OJICUG_clean_linker_0, # of connection points: 2
#     Edge 314, Type (0, 0), BuildingBlock: OJICUG_clean_linker_0, # of connection points: 2
#     Edge 315, Type (0, 0), BuildingBlock: OJICUG_clean_linker_0, # of connection points: 2
#     Edge 316, Type (0, 0), BuildingBlock: OJICUG_clean_linker_0, # of connection points: 2
#     Edge 317, Type (0, 0), BuildingBlock: OJICUG_clean_linker_0, # of connection points: 2
#     Edge 318, Type (0, 0), BuildingBlock: OJICUG_clean_linker_0, # of connection points: 2
#     Edge 319, Type (0, 0), BuildingBlock: OJICUG_clean_linker_0, # of connection points: 2
#     Edge 320, Type (0, 0), BuildingBlock: OJICUG_clean_linker_0, # of connection points: 2
#     Edge 321, Type (0, 0), BuildingBlock: OJICUG_clean_linker_0, # of connection points: 2
#     Edge 322, Type (0, 0), BuildingBlock: OJICUG_clean_linker_0, # of connection points: 2
#     Edge 323, Type (0, 0), BuildingBlock: OJICUG_clean_linker_0, # of connection points: 2
#     Edge 324, Type (0, 0), BuildingBlock: OJICUG_clean_linker_0, # of connection points: 2
#     Edge 325, Type (0, 0), BuildingBlock: OJICUG_clean_linker_0, # of connection points: 2
#     Edge 326, Type (0, 0), BuildingBlock: OJICUG_clean_linker_0, # of connection points: 2
#     Edge 327, Type (0, 0), BuildingBlock: OJICUG_clean_linker_0, # of connection points: 2
#     Edge 328, Type (0, 0), BuildingBlock: OJICUG_clean_linker_0, # of connection points: 2
#     Edge 329, Type (0, 0), BuildingBlock: OJICUG_clean_linker_0, # of connection points: 2
#     Edge 330, Type (0, 0), BuildingBlock: OJICUG_clean_linker_0, # of connection points: 2
#     Edge 331, Type (0, 0), BuildingBlock: OJICUG_clean_linker_0, # of connection points: 2
#     Edge 332, Type (0, 0), BuildingBlock: OJICUG_clean_linker_0, # of connection points: 2
#     Edge 333, Type (0, 0), BuildingBlock: OJICUG_clean_linker_0, # of connection points: 2
#     Edge 334, Type (0, 0), BuildingBlock: OJICUG_clean_linker_0, # of connection points: 2
#     Edge 335, Type (0, 0), BuildingBlock: OJICUG_clean_linker_0, # of connection points: 2
#     Edge 336, Type (0, 0), BuildingBlock: OJICUG_clean_linker_0, # of connection points: 2
#     Edge 337, Type (0, 0), BuildingBlock: OJICUG_clean_linker_0, # of connection points: 2
#     Edge 338, Type (0, 0), BuildingBlock: OJICUG_clean_linker_0, # of connection points: 2
#     Edge 339, Type (0, 0), BuildingBlock: OJICUG_clean_linker_0, # of connection points: 2
#     Edge 340, Type (0, 0), BuildingBlock: OJICUG_clean_linker_0, # of connection points: 2
#     Edge 341, Type (0, 0), BuildingBlock: OJICUG_clean_linker_0, # of connection points: 2
#     Edge 342, Type (0, 0), BuildingBlock: OJICUG_clean_linker_0, # of connection points: 2
#     Edge 343, Type (0, 0), BuildingBlock: OJICUG_clean_linker_0, # of connection points: 2
#     Edge 344, Type (0, 0), BuildingBlock: OJICUG_clean_linker_0, # of connection points: 2
#     Edge 345, Type (0, 0), BuildingBlock: OJICUG_clean_linker_0, # of connection points: 2
#     Edge 346, Type (0, 0), BuildingBlock: OJICUG_clean_linker_0, # of connection points: 2
#     Edge 347, Type (0, 0), BuildingBlock: OJICUG_clean_linker_0, # of connection points: 2
#     Edge 348, Type (0, 0), BuildingBlock: OJICUG_clean_linker_0, # of connection points: 2
#     Edge 349, Type (0, 0), BuildingBlock: OJICUG_clean_linker_0, # of connection points: 2
#     Edge 350, Type (0, 0), BuildingBlock: OJICUG_clean_linker_0, # of connection points: 2
#     Edge 351, Type (0, 0), BuildingBlock: OJICUG_clean_linker_0, # of connection points: 2
#     Edge 352, Type (0, 0), BuildingBlock: OJICUG_clean_linker_0, # of connection points: 2
#     Edge 353, Type (0, 0), BuildingBlock: OJICUG_clean_linker_0, # of connection points: 2
#     Edge 354, Type (0, 0), BuildingBlock: OJICUG_clean_linker_0, # of connection points: 2
#     Edge 355, Type (0, 0), BuildingBlock: OJICUG_clean_linker_0, # of connection points: 2
#     Edge 356, Type (0, 0), BuildingBlock: OJICUG_clean_linker_0, # of connection points: 2
#     Edge 357, Type (0, 0), BuildingBlock: OJICUG_clean_linker_0, # of connection points: 2
#     Edge 358, Type (0, 0), BuildingBlock: OJICUG_clean_linker_0, # of connection points: 2
#     Edge 359, Type (0, 0), BuildingBlock: OJICUG_clean_linker_0, # of connection points: 2
#     Edge 360, Type (0, 0), BuildingBlock: OJICUG_clean_linker_0, # of connection points: 2
#     Edge 361, Type (0, 0), BuildingBlock: OJICUG_clean_linker_0, # of connection points: 2
#     Edge 362, Type (0, 0), BuildingBlock: OJICUG_clean_linker_0, # of connection points: 2
#     Edge 363, Type (0, 0), BuildingBlock: OJICUG_clean_linker_0, # of connection points: 2
#     Edge 364, Type (0, 0), BuildingBlock: OJICUG_clean_linker_0, # of connection points: 2
#     Edge 365, Type (0, 0), BuildingBlock: OJICUG_clean_linker_0, # of connection points: 2
#     Edge 366, Type (0, 0), BuildingBlock: OJICUG_clean_linker_0, # of connection points: 2
#     Edge 367, Type (0, 0), BuildingBlock: OJICUG_clean_linker_0, # of connection points: 2
#     Edge 368, Type (0, 0), BuildingBlock: OJICUG_clean_linker_0, # of connection points: 2
#     Edge 369, Type (0, 0), BuildingBlock: OJICUG_clean_linker_0, # of connection points: 2
#     Edge 370, Type (0, 0), BuildingBlock: OJICUG_clean_linker_0, # of connection points: 2
#     Edge 371, Type (0, 0), BuildingBlock: OJICUG_clean_linker_0, # of connection points: 2
#     Edge 372, Type (0, 0), BuildingBlock: OJICUG_clean_linker_0, # of connection points: 2
#     Edge 373, Type (0, 0), BuildingBlock: OJICUG_clean_linker_0, # of connection points: 2
#     Edge 374, Type (0, 0), BuildingBlock: OJICUG_clean_linker_0, # of connection points: 2
#     Edge 375, Type (0, 0), BuildingBlock: OJICUG_clean_linker_0, # of connection points: 2
#     Edge 376, Type (0, 0), BuildingBlock: OJICUG_clean_linker_0, # of connection points: 2
#     Edge 377, Type (0, 0), BuildingBlock: OJICUG_clean_linker_0, # of connection points: 2
#     Edge 378, Type (0, 0), BuildingBlock: OJICUG_clean_linker_0, # of connection points: 2
#     Edge 379, Type (0, 0), BuildingBlock: OJICUG_clean_linker_0, # of connection points: 2
#     Edge 380, Type (0, 0), BuildingBlock: OJICUG_clean_linker_0, # of connection points: 2
#     Edge 381, Type (0, 0), BuildingBlock: OJICUG_clean_linker_0, # of connection points: 2
#     Edge 382, Type (0, 0), BuildingBlock: OJICUG_clean_linker_0, # of connection points: 2
#     Edge 383, Type (0, 0), BuildingBlock: OJICUG_clean_linker_0, # of connection points: 2
#     Edge 384, Type (0, 0), BuildingBlock: OJICUG_clean_linker_0, # of connection points: 2
#     Edge 385, Type (0, 0), BuildingBlock: OJICUG_clean_linker_0, # of connection points: 2
#     Edge 386, Type (0, 0), BuildingBlock: OJICUG_clean_linker_0, # of connection points: 2
#     Edge 387, Type (0, 0), BuildingBlock: OJICUG_clean_linker_0, # of connection points: 2
#     Edge 388, Type (0, 0), BuildingBlock: OJICUG_clean_linker_0, # of connection points: 2
#     Edge 389, Type (0, 0), BuildingBlock: OJICUG_clean_linker_0, # of connection points: 2
#     Edge 390, Type (0, 0), BuildingBlock: OJICUG_clean_linker_0, # of connection points: 2
#     Edge 391, Type (0, 0), BuildingBlock: OJICUG_clean_linker_0, # of connection points: 2
#     Edge 392, Type (0, 0), BuildingBlock: OJICUG_clean_linker_0, # of connection points: 2
#     Edge 393, Type (0, 0), BuildingBlock: OJICUG_clean_linker_0, # of connection points: 2
#     Edge 394, Type (0, 0), BuildingBlock: OJICUG_clean_linker_0, # of connection points: 2
#     Edge 395, Type (0, 0), BuildingBlock: OJICUG_clean_linker_0, # of connection points: 2
#     Edge 396, Type (0, 0), BuildingBlock: OJICUG_clean_linker_0, # of connection points: 2
#     Edge 397, Type (0, 0), BuildingBlock: OJICUG_clean_linker_0, # of connection points: 2
#     Edge 398, Type (0, 0), BuildingBlock: OJICUG_clean_linker_0, # of connection points: 2
#     Edge 399, Type (0, 0), BuildingBlock: OJICUG_clean_linker_0, # of connection points: 2
#     Edge 400, Type (0, 0), BuildingBlock: OJICUG_clean_linker_0, # of connection points: 2
#     Edge 401, Type (0, 0), BuildingBlock: OJICUG_clean_linker_0, # of connection points: 2
#     Edge 402, Type (0, 0), BuildingBlock: OJICUG_clean_linker_0, # of connection points: 2
#     Edge 403, Type (0, 0), BuildingBlock: OJICUG_clean_linker_0, # of connection points: 2
#     Edge 404, Type (0, 0), BuildingBlock: OJICUG_clean_linker_0, # of connection points: 2
#     Edge 405, Type (0, 0), BuildingBlock: OJICUG_clean_linker_0, # of connection points: 2
#     Edge 406, Type (0, 0), BuildingBlock: OJICUG_clean_linker_0, # of connection points: 2
#     Edge 407, Type (0, 0), BuildingBlock: OJICUG_clean_linker_0, # of connection points: 2
#     Edge 408, Type (0, 0), BuildingBlock: OJICUG_clean_linker_0, # of connection points: 2
#     Edge 409, Type (0, 0), BuildingBlock: OJICUG_clean_linker_0, # of connection points: 2
#     Edge 410, Type (0, 0), BuildingBlock: OJICUG_clean_linker_0, # of connection points: 2
#     Edge 411, Type (0, 0), BuildingBlock: OJICUG_clean_linker_0, # of connection points: 2
#     Edge 412, Type (0, 0), BuildingBlock: OJICUG_clean_linker_0, # of connection points: 2
#     Edge 413, Type (0, 0), BuildingBlock: OJICUG_clean_linker_0, # of connection points: 2
#     Edge 414, Type (0, 0), BuildingBlock: OJICUG_clean_linker_0, # of connection points: 2
#     Edge 415, Type (0, 0), BuildingBlock: OJICUG_clean_linker_0, # of connection points: 2
#     Edge 416, Type (0, 0), BuildingBlock: OJICUG_clean_linker_0, # of connection points: 2
#     Edge 417, Type (0, 0), BuildingBlock: OJICUG_clean_linker_0, # of connection points: 2
#     Edge 418, Type (0, 0), BuildingBlock: OJICUG_clean_linker_0, # of connection points: 2
#     Edge 419, Type (0, 0), BuildingBlock: OJICUG_clean_linker_0, # of connection points: 2
#     Edge 420, Type (0, 0), BuildingBlock: OJICUG_clean_linker_0, # of connection points: 2
#     Edge 421, Type (0, 0), BuildingBlock: OJICUG_clean_linker_0, # of connection points: 2
#     Edge 422, Type (0, 0), BuildingBlock: OJICUG_clean_linker_0, # of connection points: 2
#     Edge 423, Type (0, 0), BuildingBlock: OJICUG_clean_linker_0, # of connection points: 2
#     Edge 424, Type (0, 0), BuildingBlock: OJICUG_clean_linker_0, # of connection points: 2
#     Edge 425, Type (0, 0), BuildingBlock: OJICUG_clean_linker_0, # of connection points: 2
#     Edge 426, Type (0, 0), BuildingBlock: OJICUG_clean_linker_0, # of connection points: 2
#     Edge 427, Type (0, 0), BuildingBlock: OJICUG_clean_linker_0, # of connection points: 2
#     Edge 428, Type (0, 0), BuildingBlock: OJICUG_clean_linker_0, # of connection points: 2
#     Edge 429, Type (0, 0), BuildingBlock: OJICUG_clean_linker_0, # of connection points: 2
#     Edge 430, Type (0, 0), BuildingBlock: OJICUG_clean_linker_0, # of connection points: 2
#     Edge 431, Type (0, 0), BuildingBlock: OJICUG_clean_linker_0, # of connection points: 2
#     Edge 432, Type (0, 0), BuildingBlock: OJICUG_clean_linker_0, # of connection points: 2
#     Edge 433, Type (0, 0), BuildingBlock: OJICUG_clean_linker_0, # of connection points: 2
#     Edge 434, Type (0, 0), BuildingBlock: OJICUG_clean_linker_0, # of connection points: 2
#     Edge 435, Type (0, 0), BuildingBlock: OJICUG_clean_linker_0, # of connection points: 2
#     Edge 436, Type (0, 0), BuildingBlock: OJICUG_clean_linker_0, # of connection points: 2
#     Edge 437, Type (0, 0), BuildingBlock: OJICUG_clean_linker_0, # of connection points: 2
#     Edge 438, Type (0, 0), BuildingBlock: OJICUG_clean_linker_0, # of connection points: 2
#     Edge 439, Type (0, 0), BuildingBlock: OJICUG_clean_linker_0, # of connection points: 2
#     Edge 440, Type (0, 0), BuildingBlock: OJICUG_clean_linker_0, # of connection points: 2
#     Edge 441, Type (0, 0), BuildingBlock: OJICUG_clean_linker_0, # of connection points: 2
#     Edge 442, Type (0, 0), BuildingBlock: OJICUG_clean_linker_0, # of connection points: 2
#     Edge 443, Type (0, 0), BuildingBlock: OJICUG_clean_linker_0, # of connection points: 2
#     Edge 444, Type (0, 0), BuildingBlock: OJICUG_clean_linker_0, # of connection points: 2
#     Edge 445, Type (0, 0), BuildingBlock: OJICUG_clean_linker_0, # of connection points: 2
#     Edge 446, Type (0, 0), BuildingBlock: OJICUG_clean_linker_0, # of connection points: 2
#     Edge 447, Type (0, 0), BuildingBlock: OJICUG_clean_linker_0, # of connection points: 2
#     Edge 448, Type (0, 0), BuildingBlock: OJICUG_clean_linker_0, # of connection points: 2
#     Edge 449, Type (0, 0), BuildingBlock: OJICUG_clean_linker_0, # of connection points: 2
#     Edge 450, Type (0, 0), BuildingBlock: OJICUG_clean_linker_0, # of connection points: 2
#     Edge 451, Type (0, 0), BuildingBlock: OJICUG_clean_linker_0, # of connection points: 2
#     Edge 452, Type (0, 0), BuildingBlock: OJICUG_clean_linker_0, # of connection points: 2
#     Edge 453, Type (0, 0), BuildingBlock: OJICUG_clean_linker_0, # of connection points: 2
#     Edge 454, Type (0, 0), BuildingBlock: OJICUG_clean_linker_0, # of connection points: 2
#     Edge 455, Type (0, 0), BuildingBlock: OJICUG_clean_linker_0, # of connection points: 2
#     Edge 456, Type (0, 0), BuildingBlock: OJICUG_clean_linker_0, # of connection points: 2
#     Edge 457, Type (0, 0), BuildingBlock: OJICUG_clean_linker_0, # of connection points: 2
#     Edge 458, Type (0, 0), BuildingBlock: OJICUG_clean_linker_0, # of connection points: 2
#     Edge 459, Type (0, 0), BuildingBlock: OJICUG_clean_linker_0, # of connection points: 2
#     Edge 460, Type (0, 0), BuildingBlock: OJICUG_clean_linker_0, # of connection points: 2
#     Edge 461, Type (0, 0), BuildingBlock: OJICUG_clean_linker_0, # of connection points: 2
#     Edge 462, Type (0, 0), BuildingBlock: OJICUG_clean_linker_0, # of connection points: 2
#     Edge 463, Type (0, 0), BuildingBlock: OJICUG_clean_linker_0, # of connection points: 2
#     Edge 464, Type (0, 0), BuildingBlock: OJICUG_clean_linker_0, # of connection points: 2
#     Edge 465, Type (0, 0), BuildingBlock: OJICUG_clean_linker_0, # of connection points: 2
#     Edge 466, Type (0, 0), BuildingBlock: OJICUG_clean_linker_0, # of connection points: 2
#     Edge 467, Type (0, 0), BuildingBlock: OJICUG_clean_linker_0, # of connection points: 2
#     Edge 468, Type (0, 0), BuildingBlock: OJICUG_clean_linker_0, # of connection points: 2
#     Edge 469, Type (0, 0), BuildingBlock: OJICUG_clean_linker_0, # of connection points: 2
#     Edge 470, Type (0, 0), BuildingBlock: OJICUG_clean_linker_0, # of connection points: 2
#     Edge 471, Type (0, 0), BuildingBlock: OJICUG_clean_linker_0, # of connection points: 2
#     Edge 472, Type (0, 0), BuildingBlock: OJICUG_clean_linker_0, # of connection points: 2
#     Edge 473, Type (0, 0), BuildingBlock: OJICUG_clean_linker_0, # of connection points: 2
#     Edge 474, Type (0, 0), BuildingBlock: OJICUG_clean_linker_0, # of connection points: 2
#     Edge 475, Type (0, 0), BuildingBlock: OJICUG_clean_linker_0, # of connection points: 2
#     Edge 476, Type (0, 0), BuildingBlock: OJICUG_clean_linker_0, # of connection points: 2
#     Edge 477, Type (0, 0), BuildingBlock: OJICUG_clean_linker_0, # of connection points: 2
#     Edge 478, Type (0, 0), BuildingBlock: OJICUG_clean_linker_0, # of connection points: 2
#     Edge 479, Type (0, 0), BuildingBlock: OJICUG_clean_linker_0, # of connection points: 2
#     Edge 480, Type (0, 0), BuildingBlock: OJICUG_clean_linker_0, # of connection points: 2
#     Edge 481, Type (0, 0), BuildingBlock: OJICUG_clean_linker_0, # of connection points: 2
#     Edge 482, Type (0, 0), BuildingBlock: OJICUG_clean_linker_0, # of connection points: 2
#     Edge 483, Type (0, 0), BuildingBlock: OJICUG_clean_linker_0, # of connection points: 2
#     Edge 484, Type (0, 0), BuildingBlock: OJICUG_clean_linker_0, # of connection points: 2
#     Edge 485, Type (0, 0), BuildingBlock: OJICUG_clean_linker_0, # of connection points: 2
#     Edge 486, Type (0, 0), BuildingBlock: OJICUG_clean_linker_0, # of connection points: 2
#     Edge 487, Type (0, 0), BuildingBlock: OJICUG_clean_linker_0, # of connection points: 2
#     Edge 488, Type (0, 0), BuildingBlock: OJICUG_clean_linker_0, # of connection points: 2
#     Edge 489, Type (0, 0), BuildingBlock: OJICUG_clean_linker_0, # of connection points: 2
#     Edge 490, Type (0, 0), BuildingBlock: OJICUG_clean_linker_0, # of connection points: 2
#     Edge 491, Type (0, 0), BuildingBlock: OJICUG_clean_linker_0, # of connection points: 2
#     Edge 492, Type (0, 0), BuildingBlock: OJICUG_clean_linker_0, # of connection points: 2
#     Edge 493, Type (0, 0), BuildingBlock: OJICUG_clean_linker_0, # of connection points: 2
#     Edge 494, Type (0, 0), BuildingBlock: OJICUG_clean_linker_0, # of connection points: 2
#     Edge 495, Type (0, 0), BuildingBlock: OJICUG_clean_linker_0, # of connection points: 2
#     Edge 496, Type (0, 0), BuildingBlock: OJICUG_clean_linker_0, # of connection points: 2
#     Edge 497, Type (0, 0), BuildingBlock: OJICUG_clean_linker_0, # of connection points: 2
#     Edge 498, Type (0, 0), BuildingBlock: OJICUG_clean_linker_0, # of connection points: 2
#     Edge 499, Type (0, 0), BuildingBlock: OJICUG_clean_linker_0, # of connection points: 2
#     Edge 500, Type (0, 0), BuildingBlock: OJICUG_clean_linker_0, # of connection points: 2
#     Edge 501, Type (0, 0), BuildingBlock: OJICUG_clean_linker_0, # of connection points: 2
#     Edge 502, Type (0, 0), BuildingBlock: OJICUG_clean_linker_0, # of connection points: 2
#     Edge 503, Type (0, 0), BuildingBlock: OJICUG_clean_linker_0, # of connection points: 2
#     Edge 504, Type (0, 0), BuildingBlock: OJICUG_clean_linker_0, # of connection points: 2
#     Edge 505, Type (0, 0), BuildingBlock: OJICUG_clean_linker_0, # of connection points: 2
#     Edge 506, Type (0, 0), BuildingBlock: OJICUG_clean_linker_0, # of connection points: 2
#     Edge 507, Type (0, 0), BuildingBlock: OJICUG_clean_linker_0, # of connection points: 2
#     Edge 508, Type (0, 0), BuildingBlock: OJICUG_clean_linker_0, # of connection points: 2
#     Edge 509, Type (0, 0), BuildingBlock: OJICUG_clean_linker_0, # of connection points: 2
#     Edge 510, Type (0, 0), BuildingBlock: OJICUG_clean_linker_0, # of connection points: 2
#     Edge 511, Type (0, 0), BuildingBlock: OJICUG_clean_linker_0, # of connection points: 2
#     Edge 512, Type (0, 0), BuildingBlock: OJICUG_clean_linker_0, # of connection points: 2
#     Edge 513, Type (0, 0), BuildingBlock: OJICUG_clean_linker_0, # of connection points: 2
#     Edge 514, Type (0, 0), BuildingBlock: OJICUG_clean_linker_0, # of connection points: 2
#     Edge 515, Type (0, 0), BuildingBlock: OJICUG_clean_linker_0, # of connection points: 2
#     Edge 516, Type (0, 0), BuildingBlock: OJICUG_clean_linker_0, # of connection points: 2
#     Edge 517, Type (0, 0), BuildingBlock: OJICUG_clean_linker_0, # of connection points: 2
#     Edge 518, Type (0, 0), BuildingBlock: OJICUG_clean_linker_0, # of connection points: 2
#     Edge 519, Type (0, 0), BuildingBlock: OJICUG_clean_linker_0, # of connection points: 2
#     Edge 520, Type (0, 0), BuildingBlock: OJICUG_clean_linker_0, # of connection points: 2
#     Edge 521, Type (0, 0), BuildingBlock: OJICUG_clean_linker_0, # of connection points: 2
#     Edge 522, Type (0, 0), BuildingBlock: OJICUG_clean_linker_0, # of connection points: 2
#     Edge 523, Type (0, 0), BuildingBlock: OJICUG_clean_linker_0, # of connection points: 2
#     Edge 524, Type (0, 0), BuildingBlock: OJICUG_clean_linker_0, # of connection points: 2
#     Edge 525, Type (0, 0), BuildingBlock: OJICUG_clean_linker_0, # of connection points: 2
#     Edge 526, Type (0, 0), BuildingBlock: OJICUG_clean_linker_0, # of connection points: 2
#     Edge 527, Type (0, 0), BuildingBlock: OJICUG_clean_linker_0, # of connection points: 2
#     Edge 528, Type (0, 0), BuildingBlock: OJICUG_clean_linker_0, # of connection points: 2
#     Edge 529, Type (0, 0), BuildingBlock: OJICUG_clean_linker_0, # of connection points: 2
#     Edge 530, Type (0, 0), BuildingBlock: OJICUG_clean_linker_0, # of connection points: 2
#     Edge 531, Type (0, 0), BuildingBlock: OJICUG_clean_linker_0, # of connection points: 2
#     Edge 532, Type (0, 0), BuildingBlock: OJICUG_clean_linker_0, # of connection points: 2
#     Edge 533, Type (0, 0), BuildingBlock: OJICUG_clean_linker_0, # of connection points: 2
#     Edge 534, Type (0, 0), BuildingBlock: OJICUG_clean_linker_0, # of connection points: 2
#     Edge 535, Type (0, 0), BuildingBlock: OJICUG_clean_linker_0, # of connection points: 2
#     Edge 536, Type (0, 0), BuildingBlock: OJICUG_clean_linker_0, # of connection points: 2
#     Edge 537, Type (0, 0), BuildingBlock: OJICUG_clean_linker_0, # of connection points: 2
#     Edge 538, Type (0, 0), BuildingBlock: OJICUG_clean_linker_0, # of connection points: 2
#     Edge 539, Type (0, 0), BuildingBlock: OJICUG_clean_linker_0, # of connection points: 2
#     Edge 540, Type (0, 0), BuildingBlock: OJICUG_clean_linker_0, # of connection points: 2
#     Edge 541, Type (0, 0), BuildingBlock: OJICUG_clean_linker_0, # of connection points: 2
#     Edge 542, Type (0, 0), BuildingBlock: OJICUG_clean_linker_0, # of connection points: 2
#     Edge 543, Type (0, 0), BuildingBlock: OJICUG_clean_linker_0, # of connection points: 2
#     Edge 544, Type (0, 0), BuildingBlock: OJICUG_clean_linker_0, # of connection points: 2
#     Edge 545, Type (0, 0), BuildingBlock: OJICUG_clean_linker_0, # of connection points: 2
#     Edge 546, Type (0, 0), BuildingBlock: OJICUG_clean_linker_0, # of connection points: 2
#     Edge 547, Type (0, 0), BuildingBlock: OJICUG_clean_linker_0, # of connection points: 2
#     Edge 548, Type (0, 0), BuildingBlock: OJICUG_clean_linker_0, # of connection points: 2
#     Edge 549, Type (0, 0), BuildingBlock: OJICUG_clean_linker_0, # of connection points: 2
#     Edge 550, Type (0, 0), BuildingBlock: OJICUG_clean_linker_0, # of connection points: 2
#     Edge 551, Type (0, 0), BuildingBlock: OJICUG_clean_linker_0, # of connection points: 2
#     Edge 552, Type (0, 0), BuildingBlock: OJICUG_clean_linker_0, # of connection points: 2
#     Edge 553, Type (0, 0), BuildingBlock: OJICUG_clean_linker_0, # of connection points: 2
#     Edge 554, Type (0, 0), BuildingBlock: OJICUG_clean_linker_0, # of connection points: 2
#     Edge 555, Type (0, 0), BuildingBlock: OJICUG_clean_linker_0, # of connection points: 2
#     Edge 556, Type (0, 0), BuildingBlock: OJICUG_clean_linker_0, # of connection points: 2
#     Edge 557, Type (0, 0), BuildingBlock: OJICUG_clean_linker_0, # of connection points: 2
#     Edge 558, Type (0, 0), BuildingBlock: OJICUG_clean_linker_0, # of connection points: 2
#     Edge 559, Type (0, 0), BuildingBlock: OJICUG_clean_linker_0, # of connection points: 2
#     Edge 560, Type (0, 0), BuildingBlock: OJICUG_clean_linker_0, # of connection points: 2
#     Edge 561, Type (0, 0), BuildingBlock: OJICUG_clean_linker_0, # of connection points: 2
#     Edge 562, Type (0, 0), BuildingBlock: OJICUG_clean_linker_0, # of connection points: 2
#     Edge 563, Type (0, 0), BuildingBlock: OJICUG_clean_linker_0, # of connection points: 2
#     Edge 564, Type (0, 0), BuildingBlock: OJICUG_clean_linker_0, # of connection points: 2
#     Edge 565, Type (0, 0), BuildingBlock: OJICUG_clean_linker_0, # of connection points: 2
#     Edge 566, Type (0, 0), BuildingBlock: OJICUG_clean_linker_0, # of connection points: 2
#     Edge 567, Type (0, 0), BuildingBlock: OJICUG_clean_linker_0, # of connection points: 2
#     Edge 568, Type (0, 0), BuildingBlock: OJICUG_clean_linker_0, # of connection points: 2
#     Edge 569, Type (0, 0), BuildingBlock: OJICUG_clean_linker_0, # of connection points: 2
#     Edge 570, Type (0, 0), BuildingBlock: OJICUG_clean_linker_0, # of connection points: 2
#     Edge 571, Type (0, 0), BuildingBlock: OJICUG_clean_linker_0, # of connection points: 2
#     Edge 572, Type (0, 0), BuildingBlock: OJICUG_clean_linker_0, # of connection points: 2
#     Edge 573, Type (0, 0), BuildingBlock: OJICUG_clean_linker_0, # of connection points: 2
#     Edge 574, Type (0, 0), BuildingBlock: OJICUG_clean_linker_0, # of connection points: 2
#     Edge 575, Type (0, 0), BuildingBlock: OJICUG_clean_linker_0, # of connection points: 2
# Relax obj value: 0.118
# Max RMSD: 0.170
# Mean RMSD: 0.170
data_MOF--net-unt--node1-GALJAG_clean_sbu_0--edge1-OJICUG_clean_linker_0
_symmetry_space_group_name_H-M    P1
_symmetry_Int_Tables_number       1
_symmetry_cell_setting            triclinic
loop_
_symmetry_equiv_pos_as_xyz
'x, y, z'
_cell_length_a     76.165632
_cell_length_b     76.205202
_cell_length_c     76.212648
_cell_angle_alpha  89.998294
_cell_angle_beta   90.025162
_cell_angle_gamma 89.992203
loop_
_atom_site_label
_atom_site_type_symbol
_atom_site_fract_x
_atom_site_fract_y
_atom_site_fract_z
_atom_type_partial_charge
In0 In 0.06785 0.17578 0.08655 0.0
O1 O 0.04406 0.17072 0.0687 0.0
O2 O 0.04098 0.18637 0.0918 0.0
C3 C 0.09631 0.16042 0.07248 0.0
C4 C 0.07582 0.20971 0.08296 0.0
C5 C 0.06421 0.15437 0.11434 0.0
O6 O 0.08112 0.15809 0.06612 0.0
O7 O 0.09699 0.17091 0.08523 0.0
O8 O 0.07079 0.16954 0.11577 0.0
O9 O 0.05924 0.15033 0.09909 0.0
C10 C 0.03392 0.17972 0.07836 0.0
O11 O 0.07708 0.20195 0.0976 0.0
O12 O 0.07093 0.20025 0.07023 0.0
In13 In 0.32013 0.07012 0.0848 0.0
O14 O 0.32475 0.04638 0.06683 0.0
O15 O 0.31048 0.04316 0.0908 0.0
C16 C 0.33413 0.09888 0.07006 0.0
C17 C 0.28585 0.07721 0.08248 0.0
C18 C 0.34299 0.06596 0.11138 0.0
O19 O 0.33621 0.0838 0.06338 0.0
O20 O 0.32462 0.09928 0.08358 0.0
O21 O 0.32766 0.0719 0.11383 0.0
O22 O 0.34658 0.06221 0.09568 0.0
C23 C 0.31658 0.03613 0.07709 0.0
O24 O 0.29423 0.07924 0.09669 0.0
O25 O 0.29488 0.0721 0.06954 0.0
In26 In 0.42995 0.31869 0.08882 0.0
O27 O 0.45161 0.32439 0.06846 0.0
O28 O 0.45633 0.30569 0.08872 0.0
C29 C 0.40075 0.33446 0.07704 0.0
C30 C 0.41975 0.28512 0.08844 0.0
C31 C 0.43659 0.34073 0.11566 0.0
O32 O 0.41493 0.33474 0.06834 0.0
O33 O 0.4014 0.32598 0.09123 0.0
O34 O 0.42893 0.32619 0.11788 0.0
O35 O 0.44124 0.34378 0.10011 0.0
C36 C 0.46222 0.3137 0.07551 0.0
O37 O 0.42622 0.29223 0.10199 0.0
O38 O 0.41828 0.29502 0.07521 0.0
In39 In 0.17785 0.42561 0.08874 0.0
O40 O 0.17292 0.44935 0.07089 0.0
O41 O 0.18712 0.4527 0.0949 0.0
C42 C 0.16346 0.39709 0.07386 0.0
C43 C 0.21217 0.41882 0.08594 0.0
C44 C 0.15514 0.42925 0.11549 0.0
O45 O 0.16152 0.41225 0.06734 0.0
O46 O 0.17312 0.39644 0.08728 0.0
O47 O 0.17039 0.42302 0.11775 0.0
O48 O 0.15162 0.43364 0.09994 0.0
C49 C 0.18092 0.45969 0.0812 0.0
O50 O 0.20404 0.41678 0.10029 0.0
O51 O 0.20288 0.42377 0.07312 0.0
In52 In 0.06881 0.81915 0.90816 0.0
O53 O 0.07774 0.79282 0.89714 0.0
O54 O 0.0715 0.79468 0.92447 0.0
C55 C 0.06446 0.84128 0.88109 0.0
C56 C 0.03485 0.81556 0.91607 0.0
C57 C 0.09747 0.8342 0.92202 0.0
O58 O 0.07095 0.82612 0.87902 0.0
O59 O 0.06013 0.84497 0.89662 0.0
O60 O 0.08245 0.83607 0.9289 0.0
O61 O 0.09791 0.82429 0.90879 0.0
C62 C 0.07625 0.78511 0.91179 0.0
O63 O 0.0451 0.8241 0.92605 0.0
O64 O 0.04187 0.8091 0.90252 0.0
In65 In 0.67496 0.07088 0.91378 0.0
O66 O 0.67035 0.04668 0.93114 0.0
O67 O 0.68459 0.04404 0.90711 0.0
C68 C 0.66051 0.09886 0.9297 0.0
C69 C 0.70922 0.07819 0.91608 0.0
C70 C 0.65277 0.06752 0.88649 0.0
O71 O 0.65829 0.08344 0.93548 0.0
O72 O 0.67038 0.09997 0.91648 0.0
O73 O 0.66811 0.07362 0.88465 0.0
O74 O 0.64878 0.06328 0.90197 0.0
C75 C 0.67847 0.03666 0.92061 0.0
O76 O 0.70063 0.08082 0.9021 0.0
O77 O 0.70041 0.07234 0.92886 0.0
In78 In 0.42922 0.67694 0.909 0.0
O79 O 0.42016 0.70318 0.89782 0.0
O80 O 0.4265 0.70149 0.92516 0.0
C81 C 0.43358 0.65456 0.88208 0.0
C82 C 0.46308 0.68089 0.9172 0.0
C83 C 0.40038 0.66234 0.92299 0.0
O84 O 0.42734 0.6698 0.87985 0.0
O85 O 0.43771 0.65092 0.89768 0.0
O86 O 0.41539 0.66034 0.92988 0.0
O87 O 0.40006 0.67209 0.90964 0.0
C88 C 0.42166 0.71098 0.91243 0.0
O89 O 0.45293 0.67196 0.92691 0.0
O90 O 0.45605 0.68747 0.9037 0.0
In91 In 0.81965 0.42513 0.91172 0.0
O92 O 0.79376 0.41599 0.89984 0.0
O93 O 0.79423 0.42383 0.9268 0.0
C94 C 0.84213 0.42853 0.88475 0.0
C95 C 0.81618 0.45934 0.91846 0.0
C96 C 0.83383 0.39694 0.92751 0.0
O97 O 0.82691 0.42218 0.88274 0.0
O98 O 0.84584 0.43299 0.90023 0.0
O99 O 0.83598 0.41228 0.93351 0.0
O100 O 0.82411 0.39598 0.91416 0.0
C101 C 0.78525 0.41858 0.91387 0.0
O102 O 0.82426 0.44935 0.92906 0.0
O103 O 0.81016 0.45194 0.90491 0.0
In104 In 0.08805 0.06955 0.17842 0.0
O105 O 0.10118 0.07306 0.20498 0.0
O106 O 0.0742 0.08036 0.20239 0.0
C107 C 0.11519 0.06372 0.1565 0.0
C108 C 0.07569 0.03684 0.18257 0.0
C109 C 0.07501 0.09831 0.16287 0.0
O110 O 0.11711 0.07159 0.17097 0.0
O111 O 0.09978 0.05863 0.15338 0.0
O112 O 0.06684 0.08384 0.1627 0.0
O113 O 0.08936 0.09819 0.17113 0.0
C114 C 0.08747 0.07898 0.21225 0.0
O115 O 0.06831 0.04751 0.17219 0.0
O116 O 0.08869 0.04291 0.19079 0.0
In117 In 0.42732 0.08642 0.17656 0.0
O118 O 0.41799 0.09747 0.2027 0.0
O119 O 0.42416 0.07011 0.20103 0.0
C120 C 0.43104 0.11403 0.15495 0.0
C121 C 0.46131 0.07862 0.18065 0.0
C122 C 0.39912 0.07223 0.16082 0.0
O123 O 0.42416 0.11556 0.16999 0.0
O124 O 0.43624 0.0988 0.15117 0.0
O125 O 0.41435 0.0659 0.15875 0.0
O126 O 0.39825 0.08498 0.1713 0.0
C127 C 0.41925 0.08284 0.21047 0.0
O128 O 0.45126 0.06872 0.17181 0.0
O129 O 0.45411 0.09208 0.18712 0.0
In130 In 0.41425 0.42798 0.17604 0.0
O131 O 0.43293 0.45094 0.17025 0.0
O132 O 0.41067 0.45499 0.18686 0.0
C133 C 0.42833 0.39882 0.16202 0.0
C134 C 0.41657 0.42063 0.21026 0.0
C135 C 0.38692 0.43295 0.15411 0.0
O136 O 0.43528 0.41376 0.15987 0.0
O137 O 0.41481 0.39875 0.17152 0.0
O138 O 0.38491 0.42694 0.16945 0.0
O139 O 0.40256 0.4365 0.15007 0.0
C140 C 0.42414 0.46144 0.17969 0.0
O141 O 0.40221 0.41924 0.20201 0.0
O142 O 0.42965 0.42523 0.20115 0.0
In143 In 0.0691 0.40623 0.17743 0.0
O144 O 0.07796 0.39466 0.20354 0.0
O145 O 0.07107 0.42188 0.2024 0.0
C146 C 0.0651 0.37974 0.15456 0.0
C147 C 0.03498 0.4136 0.18061 0.0
C148 C 0.09795 0.42058 0.16318 0.0
O149 O 0.07119 0.37725 0.16983 0.0
O150 O 0.06106 0.39541 0.1511 0.0
O151 O 0.08293 0.42747 0.16127 0.0
O152 O 0.09828 0.40707 0.17272 0.0
C153 C 0.07601 0.40904 0.21166 0.0
O154 O 0.04526 0.42401 0.17265 0.0
O155 O 0.04207 0.39994 0.18676 0.0
In156 In 0.08619 0.92741 0.81872 0.0
O157 O 0.09826 0.91853 0.79279 0.0
O158 O 0.07072 0.92401 0.79375 0.0
C159 C 0.11322 0.93278 0.8409 0.0
C160 C 0.07602 0.96079 0.81493 0.0
C161 C 0.07259 0.89831 0.83327 0.0
O162 O 0.11548 0.92661 0.82565 0.0
O163 O 0.09752 0.93636 0.84467 0.0
O164 O 0.06531 0.91315 0.83499 0.0
O165 O 0.08618 0.89826 0.82386 0.0
C166 C 0.08381 0.91948 0.78462 0.0
O167 O 0.06723 0.95018 0.82425 0.0
O168 O 0.08962 0.95447 0.80787 0.0
In169 In 0.57056 0.0887 0.81912 0.0
O170 O 0.54645 0.07123 0.82342 0.0
O171 O 0.54377 0.0953 0.80917 0.0
C172 C 0.59837 0.07422 0.83522 0.0
C173 C 0.57836 0.08502 0.78515 0.0
C174 C 0.5668 0.11587 0.84121 0.0
O175 O 0.58308 0.06788 0.83683 0.0
O176 O 0.59952 0.08709 0.82491 0.0
O177 O 0.57412 0.11765 0.82639 0.0
O178 O 0.56128 0.10064 0.84452 0.0
C179 C 0.53643 0.08172 0.81523 0.0
O180 O 0.57994 0.09963 0.79291 0.0
O181 O 0.57334 0.07238 0.79465 0.0
In182 In 0.41016 0.56906 0.81956 0.0
O183 O 0.39905 0.57837 0.7934 0.0
O184 O 0.42615 0.571 0.79481 0.0
C185 C 0.38315 0.56522 0.84187 0.0
C186 C 0.4173 0.5349 0.81617 0.0
C187 C 0.42473 0.59763 0.83417 0.0
O188 O 0.38103 0.57141 0.82659 0.0
O189 O 0.39871 0.56102 0.84563 0.0
O190 O 0.43135 0.5825 0.83615 0.0
O191 O 0.41137 0.59819 0.82443 0.0
C192 C 0.4135 0.57627 0.78545 0.0
O193 O 0.42764 0.54501 0.82445 0.0
O194 O 0.4038 0.54217 0.80984 0.0
In195 In 0.92575 0.40736 0.8193 0.0
O196 O 0.94963 0.42518 0.82365 0.0
O197 O 0.95263 0.40113 0.80944 0.0
C198 C 0.89751 0.42177 0.83464 0.0
C199 C 0.9182 0.4103 0.78521 0.0
C200 C 0.92954 0.38047 0.84173 0.0
O201 O 0.91269 0.42829 0.83647 0.0
O202 O 0.89669 0.40872 0.82452 0.0
O203 O 0.92262 0.37844 0.82676 0.0
O204 O 0.93469 0.39583 0.84504 0.0
C205 C 0.95978 0.41484 0.81544 0.0
O206 O 0.91675 0.39582 0.79323 0.0
O207 O 0.92296 0.42319 0.79451 0.0
In208 In 0.17647 0.08579 0.0702 0.0
O209 O 0.20253 0.09767 0.07893 0.0
O210 O 0.20163 0.07042 0.07213 0.0
C211 C 0.15332 0.11207 0.06599 0.0
C212 C 0.17984 0.0781 0.03622 0.0
C213 C 0.16265 0.07139 0.09921 0.0
O214 O 0.16863 0.11475 0.07191 0.0
O215 O 0.14992 0.09631 0.06228 0.0
O216 O 0.1606 0.06445 0.08423 0.0
O217 O 0.17207 0.08498 0.09939 0.0
C218 C 0.2108 0.08338 0.07697 0.0
O219 O 0.17185 0.06775 0.04654 0.0
O220 O 0.18584 0.09188 0.04319 0.0
In221 In 0.17805 0.40449 0.42785 0.0
O222 O 0.17274 0.42472 0.44965 0.0
O223 O 0.19015 0.40337 0.45461 0.0
C224 C 0.16211 0.41668 0.39897 0.0
C225 C 0.21168 0.40551 0.41767 0.0
C226 C 0.15569 0.3778 0.43401 0.0
O227 O 0.16191 0.42516 0.41328 0.0
O228 O 0.1706 0.40247 0.39933 0.0
O229 O 0.17025 0.37549 0.42638 0.0
O230 O 0.15277 0.39335 0.43879 0.0
C231 C 0.18261 0.41688 0.46049 0.0
O232 O 0.20476 0.39173 0.42383 0.0
O233 O 0.2016 0.41863 0.41653 0.0
In234 In 0.08011 0.17434 0.42862 0.0
O235 O 0.0926 0.20008 0.41992 0.0
O236 O 0.06508 0.19965 0.42554 0.0
C237 C 0.10744 0.1525 0.43401 0.0
C238 C 0.06971 0.17829 0.4619 0.0
C239 C 0.06627 0.16017 0.39941 0.0
O240 O 0.10946 0.1678 0.4279 0.0
O241 O 0.09179 0.14845 0.43747 0.0
O242 O 0.05925 0.15801 0.4143 0.0
O243 O 0.07971 0.16979 0.3994 0.0
C244 C 0.07836 0.20856 0.4211 0.0
O245 O 0.06112 0.16869 0.45138 0.0
O246 O 0.08324 0.18545 0.45558 0.0
In247 In 0.31778 0.08957 0.42662 0.0
O248 O 0.32272 0.07151 0.45017 0.0
O249 O 0.309 0.09576 0.45386 0.0
C250 C 0.33187 0.0749 0.39786 0.0
C251 C 0.28334 0.08682 0.42036 0.0
C252 C 0.34099 0.11589 0.43033 0.0
O253 O 0.33372 0.06813 0.41293 0.0
O254 O 0.32239 0.08845 0.39741 0.0
O255 O 0.32576 0.11848 0.42415 0.0
O256 O 0.3442 0.10025 0.43465 0.0
C257 C 0.31503 0.0819 0.46068 0.0
O258 O 0.29142 0.10119 0.41823 0.0
O259 O 0.29273 0.07398 0.42508 0.0
In260 In 0.4122 0.81974 0.92839 0.0
O261 O 0.43106 0.82553 0.9512 0.0
O262 O 0.40883 0.80891 0.95543 0.0
C263 C 0.42565 0.83356 0.8989 0.0
C264 C 0.41468 0.7856 0.92083 0.0
C265 C 0.38511 0.84186 0.93363 0.0
O266 O 0.43298 0.83576 0.91366 0.0
O267 O 0.41206 0.82416 0.89918 0.0
O268 O 0.38287 0.82644 0.92789 0.0
O269 O 0.40084 0.84586 0.93681 0.0
C270 C 0.42235 0.81609 0.96177 0.0
O271 O 0.40021 0.79373 0.91972 0.0
O272 O 0.42774 0.79479 0.92535 0.0
In273 In 0.81926 0.91232 0.07001 0.0
O274 O 0.79342 0.90061 0.07949 0.0
O275 O 0.79393 0.92755 0.07157 0.0
C276 C 0.84177 0.88538 0.06636 0.0
C277 C 0.8156 0.91906 0.03582 0.0
C278 C 0.8336 0.92788 0.09823 0.0
O279 O 0.82652 0.88328 0.0726 0.0
O280 O 0.84549 0.90092 0.06212 0.0
O281 O 0.83565 0.93402 0.08293 0.0
O282 O 0.82393 0.91449 0.09912 0.0
C283 C 0.78495 0.9147 0.07702 0.0
O284 O 0.82382 0.92961 0.04575 0.0
O285 O 0.80949 0.90558 0.04327 0.0
In286 In 0.08586 0.81987 0.56559 0.0
O287 O 0.09782 0.79397 0.57451 0.0
O288 O 0.0703 0.79494 0.56884 0.0
C289 C 0.11285 0.84204 0.56045 0.0
C290 C 0.07628 0.81597 0.53204 0.0
C291 C 0.07253 0.83419 0.59493 0.0
O292 O 0.11512 0.82669 0.56638 0.0
O293 O 0.09714 0.84593 0.55701 0.0
O294 O 0.06519 0.83622 0.58014 0.0
O295 O 0.08601 0.82462 0.59477 0.0
C296 C 0.08337 0.78582 0.57346 0.0
O297 O 0.06713 0.82511 0.54251 0.0
O298 O 0.0899 0.80915 0.53859 0.0
In299 In 0.41013 0.67657 0.57008 0.0
O300 O 0.39838 0.70257 0.57905 0.0
O301 O 0.42546 0.70181 0.57157 0.0
C302 C 0.38317 0.65415 0.56637 0.0
C303 C 0.41749 0.67971 0.53597 0.0
C304 C 0.42528 0.66218 0.59849 0.0
O305 O 0.38108 0.66936 0.57269 0.0
O306 O 0.39869 0.65047 0.56201 0.0
O307 O 0.43161 0.66016 0.58327 0.0
O308 O 0.41193 0.67192 0.59925 0.0
C309 C 0.41256 0.71091 0.57668 0.0
O310 O 0.42789 0.67172 0.54624 0.0
O311 O 0.40382 0.68585 0.54305 0.0
In312 In 0.92582 0.81874 0.90859 0.0
O313 O 0.94957 0.82363 0.92649 0.0
O314 O 0.95279 0.8089 0.90281 0.0
C315 C 0.89707 0.83323 0.92293 0.0
C316 C 0.91859 0.78457 0.91132 0.0
C317 C 0.93014 0.84123 0.88181 0.0
O318 O 0.91212 0.83508 0.92978 0.0
O319 O 0.89667 0.82367 0.90945 0.0
O320 O 0.92394 0.82598 0.87951 0.0
O321 O 0.93412 0.84488 0.89744 0.0
C322 C 0.95983 0.81527 0.91639 0.0
O323 O 0.91679 0.79273 0.89695 0.0
O324 O 0.92354 0.79377 0.92421 0.0
In325 In 0.67493 0.92768 0.9112 0.0
O326 O 0.70079 0.91835 0.89938 0.0
O327 O 0.70016 0.92563 0.9265 0.0
C328 C 0.65229 0.9318 0.88444 0.0
C329 C 0.67837 0.96163 0.91916 0.0
C330 C 0.66085 0.89889 0.92581 0.0
O331 O 0.66768 0.92598 0.88209 0.0
O332 O 0.64855 0.93548 0.90012 0.0
O333 O 0.65861 0.91397 0.93243 0.0
O334 O 0.67053 0.89851 0.91242 0.0
C335 C 0.70915 0.92034 0.91361 0.0
O336 O 0.67028 0.95125 0.92936 0.0
O337 O 0.68448 0.95474 0.90539 0.0
In338 In 0.57073 0.67767 0.9043 0.0
O339 O 0.54843 0.67267 0.92405 0.0
O340 O 0.54394 0.68948 0.90211 0.0
C341 C 0.59884 0.66119 0.91755 0.0
C342 C 0.58032 0.71143 0.90533 0.0
C343 C 0.56572 0.65548 0.87727 0.0
O344 O 0.5841 0.66087 0.92525 0.0
O345 O 0.59934 0.67025 0.90372 0.0
O346 O 0.57423 0.66963 0.87557 0.0
O347 O 0.55942 0.65295 0.89233 0.0
C348 C 0.53776 0.68229 0.91567 0.0
O349 O 0.57462 0.70429 0.89146 0.0
O350 O 0.58147 0.70144 0.91852 0.0
In351 In 0.81859 0.56815 0.90813 0.0
O352 O 0.79228 0.57637 0.89646 0.0
O353 O 0.79368 0.57039 0.92387 0.0
C354 C 0.84127 0.56379 0.88149 0.0
C355 C 0.81556 0.53429 0.91649 0.0
C356 C 0.83304 0.5971 0.92203 0.0
O357 O 0.82607 0.57009 0.87909 0.0
O358 O 0.84474 0.55967 0.89713 0.0
O359 O 0.83496 0.58216 0.92905 0.0
O360 O 0.82332 0.59734 0.90864 0.0
C361 C 0.78426 0.57476 0.91093 0.0
O362 O 0.82362 0.54486 0.92653 0.0
O363 O 0.80931 0.54094 0.90266 0.0
In364 In 0.92587 0.17736 0.08984 0.0
O365 O 0.92145 0.20414 0.10215 0.0
O366 O 0.91564 0.20089 0.07488 0.0
C367 C 0.93084 0.15521 0.11685 0.0
C368 C 0.95909 0.18165 0.07904 0.0
C369 C 0.89733 0.16109 0.07732 0.0
O370 O 0.92291 0.16968 0.11872 0.0
O371 O 0.93659 0.15234 0.10162 0.0
O372 O 0.91189 0.16056 0.06927 0.0
O373 O 0.89725 0.17022 0.09112 0.0
C374 C 0.91621 0.21105 0.08798 0.0
O375 O 0.94847 0.17213 0.07047 0.0
O376 O 0.95272 0.18894 0.09246 0.0
In377 In 0.3195 0.92715 0.08481 0.0
O378 O 0.3243 0.95085 0.06685 0.0
O379 O 0.30996 0.95417 0.09076 0.0
C380 C 0.33353 0.89846 0.06992 0.0
C381 C 0.2852 0.92009 0.08247 0.0
C382 C 0.34229 0.93116 0.11149 0.0
O383 O 0.3356 0.91357 0.06333 0.0
O384 O 0.32401 0.89798 0.08343 0.0
O385 O 0.32695 0.9252 0.11387 0.0
O386 O 0.3459 0.935 0.09582 0.0
C387 C 0.31616 0.96116 0.07708 0.0
O388 O 0.29358 0.91801 0.09668 0.0
O389 O 0.29422 0.92527 0.06956 0.0
In390 In 0.56918 0.31775 0.0873 0.0
O391 O 0.57294 0.29096 0.09984 0.0
O392 O 0.57996 0.29409 0.07287 0.0
C393 C 0.56414 0.33942 0.11482 0.0
C394 C 0.53644 0.31339 0.07498 0.0
C395 C 0.59781 0.33375 0.07453 0.0
O396 O 0.57214 0.32496 0.11633 0.0
O397 O 0.55827 0.34252 0.09969 0.0
O398 O 0.58318 0.33442 0.06663 0.0
O399 O 0.59792 0.32467 0.08835 0.0
C400 C 0.57875 0.28396 0.08595 0.0
O401 O 0.54705 0.32381 0.06758 0.0
O402 O 0.5425 0.30537 0.08811 0.0
In403 In 0.17644 0.56881 0.08752 0.0
O404 O 0.20259 0.57785 0.09886 0.0
O405 O 0.20119 0.57119 0.07158 0.0
C406 C 0.15376 0.56459 0.11411 0.0
C407 C 0.18027 0.53474 0.08041 0.0
C408 C 0.16159 0.5974 0.07332 0.0
O409 O 0.16889 0.57108 0.11649 0.0
O410 O 0.15036 0.56026 0.09851 0.0
O411 O 0.15977 0.58234 0.06649 0.0
O412 O 0.17139 0.5979 0.08664 0.0
C413 C 0.21056 0.57609 0.08438 0.0
O414 O 0.17205 0.54477 0.06993 0.0
O415 O 0.18631 0.54205 0.09401 0.0
In416 In 0.90768 0.92637 0.81889 0.0
O417 O 0.89647 0.91713 0.79277 0.0
O418 O 0.92363 0.9243 0.79415 0.0
C419 C 0.88079 0.93027 0.84131 0.0
C420 C 0.91493 0.96045 0.8154 0.0
C421 C 0.92224 0.89784 0.8335 0.0
O422 O 0.8786 0.92401 0.82607 0.0
O423 O 0.89636 0.93452 0.84497 0.0
O424 O 0.92884 0.91297 0.83551 0.0
O425 O 0.90892 0.89726 0.8237 0.0
C426 C 0.91093 0.91912 0.78481 0.0
O427 O 0.92528 0.95032 0.82363 0.0
O428 O 0.90136 0.95324 0.80917 0.0
In429 In 0.56816 0.91032 0.81937 0.0
O430 O 0.54447 0.92835 0.82417 0.0
O431 O 0.54135 0.90527 0.80851 0.0
C432 C 0.59632 0.92473 0.83499 0.0
C433 C 0.57626 0.91345 0.78541 0.0
C434 C 0.56427 0.88265 0.84095 0.0
O435 O 0.58106 0.93098 0.83705 0.0
O436 O 0.59725 0.91191 0.8246 0.0
O437 O 0.57123 0.88117 0.82596 0.0
O438 O 0.55904 0.89787 0.84472 0.0
C439 C 0.53434 0.91878 0.81506 0.0
O440 O 0.5774 0.8989 0.79335 0.0
O441 O 0.57151 0.92633 0.79472 0.0
In442 In 0.58516 0.56543 0.81866 0.0
O443 O 0.56421 0.54488 0.82612 0.0
O444 O 0.58186 0.53942 0.80519 0.0
C445 C 0.57421 0.59572 0.83292 0.0
C446 C 0.58635 0.5751 0.78491 0.0
C447 C 0.61186 0.55788 0.84079 0.0
O448 O 0.56467 0.58211 0.83301 0.0
O449 O 0.58893 0.59391 0.82558 0.0
O450 O 0.61437 0.56467 0.82588 0.0
O451 O 0.59604 0.55453 0.84422 0.0
C452 C 0.5693 0.53413 0.81455 0.0
O453 O 0.59906 0.56737 0.79233 0.0
O454 O 0.57315 0.57795 0.79454 0.0
In455 In 0.92774 0.58457 0.81905 0.0
O456 O 0.91862 0.59616 0.79305 0.0
O457 O 0.92421 0.56866 0.79441 0.0
C458 C 0.93292 0.61182 0.84088 0.0
C459 C 0.96131 0.57511 0.81499 0.0
C460 C 0.89872 0.57117 0.83392 0.0
O461 O 0.92669 0.61387 0.82561 0.0
O462 O 0.93665 0.59621 0.84483 0.0
O463 O 0.91359 0.56397 0.83579 0.0
O464 O 0.89862 0.58455 0.82421 0.0
C465 C 0.91956 0.58159 0.78511 0.0
O466 O 0.95097 0.56609 0.82441 0.0
O467 O 0.95461 0.58855 0.80797 0.0
In468 In 0.90998 0.06591 0.17604 0.0
O469 O 0.9304 0.0448 0.1687 0.0
O470 O 0.91217 0.03969 0.18924 0.0
C471 C 0.92154 0.09584 0.16155 0.0
C472 C 0.91014 0.07541 0.20985 0.0
C473 C 0.88276 0.05913 0.15433 0.0
O474 O 0.93054 0.08187 0.16103 0.0
O475 O 0.90705 0.09458 0.16943 0.0
O476 O 0.88067 0.06614 0.16921 0.0
O477 O 0.89841 0.05522 0.15072 0.0
C478 C 0.92477 0.03413 0.18011 0.0
O479 O 0.89685 0.06844 0.20272 0.0
O480 O 0.9232 0.07768 0.19989 0.0
In481 In 0.42691 0.90996 0.17596 0.0
O482 O 0.4506 0.92802 0.17119 0.0
O483 O 0.4538 0.90464 0.18641 0.0
C484 C 0.39854 0.92439 0.16069 0.0
C485 C 0.41935 0.91259 0.21006 0.0
C486 C 0.4307 0.8825 0.15416 0.0
O487 O 0.41377 0.9307 0.15854 0.0
O488 O 0.39776 0.91155 0.17105 0.0
O489 O 0.42379 0.8809 0.16917 0.0
O490 O 0.43589 0.89776 0.15047 0.0
C491 C 0.46078 0.91824 0.18002 0.0
O492 O 0.41801 0.89818 0.2019 0.0
O493 O 0.42397 0.92562 0.20089 0.0
In494 In 0.5871 0.4269 0.17583 0.0
O495 O 0.56711 0.44889 0.16995 0.0
O496 O 0.58774 0.4535 0.18826 0.0
C497 C 0.57441 0.39751 0.16107 0.0
C498 C 0.58733 0.41753 0.20968 0.0
C499 C 0.61379 0.43292 0.1534 0.0
O500 O 0.56593 0.41182 0.16068 0.0
O501 O 0.5889 0.39817 0.16907 0.0
O502 O 0.61612 0.42566 0.16812 0.0
O503 O 0.59816 0.4373 0.15023 0.0
C504 C 0.57458 0.45955 0.18029 0.0
O505 O 0.60085 0.42347 0.20207 0.0
O506 O 0.57382 0.41614 0.20015 0.0
In507 In 0.06696 0.58456 0.17629 0.0
O508 O 0.07556 0.59606 0.20251 0.0
O509 O 0.07058 0.56846 0.20081 0.0
C510 C 0.06168 0.61195 0.15462 0.0
C511 C 0.03355 0.57451 0.17999 0.0
C512 C 0.0962 0.5715 0.16157 0.0
O513 O 0.06792 0.61392 0.16989 0.0
O514 O 0.05796 0.59635 0.1506 0.0
O515 O 0.08142 0.56415 0.15962 0.0
O516 O 0.09611 0.58487 0.17128 0.0
C517 C 0.07485 0.58138 0.21029 0.0
O518 O 0.04405 0.56586 0.1704 0.0
O519 O 0.03999 0.5879 0.18732 0.0
In520 In 0.81807 0.90847 0.92698 0.0
O521 O 0.79167 0.89729 0.91837 0.0
O522 O 0.79345 0.92462 0.92462 0.0
C523 C 0.84033 0.88144 0.93127 0.0
C524 C 0.81503 0.91686 0.96085 0.0
C525 C 0.83264 0.92239 0.89812 0.0
O526 O 0.82504 0.87928 0.92508 0.0
O527 O 0.84409 0.89702 0.93532 0.0
O528 O 0.83465 0.9293 0.9131 0.0
O529 O 0.82287 0.90905 0.89782 0.0
C530 C 0.78388 0.91189 0.91996 0.0
O531 O 0.82336 0.92671 0.95033 0.0
O532 O 0.8085 0.90318 0.95415 0.0
In533 In 0.81938 0.58498 0.56687 0.0
O534 O 0.82479 0.56617 0.54394 0.0
O535 O 0.80877 0.58887 0.53983 0.0
C536 C 0.83357 0.5713 0.5961 0.0
C537 C 0.78517 0.58253 0.57413 0.0
C538 C 0.84166 0.61196 0.56201 0.0
O539 O 0.83564 0.56417 0.58124 0.0
O540 O 0.82397 0.58476 0.5961 0.0
O541 O 0.82638 0.61418 0.56814 0.0
O542 O 0.84541 0.59632 0.55819 0.0
C543 C 0.81559 0.5752 0.53341 0.0
O544 O 0.79328 0.597 0.57519 0.0
O545 O 0.79444 0.56942 0.56993 0.0
In546 In 0.90867 0.8182 0.56894 0.0
O547 O 0.89707 0.7921 0.57784 0.0
O548 O 0.92439 0.7933 0.57138 0.0
C549 C 0.88186 0.84069 0.56444 0.0
C550 C 0.91695 0.81487 0.53508 0.0
C551 C 0.92289 0.83267 0.59771 0.0
O552 O 0.87954 0.82545 0.57065 0.0
O553 O 0.89752 0.84431 0.56052 0.0
O554 O 0.92983 0.83447 0.58271 0.0
O555 O 0.90937 0.82316 0.59806 0.0
C556 C 0.91152 0.78403 0.57621 0.0
O557 O 0.92683 0.82331 0.54549 0.0
O558 O 0.90332 0.80834 0.5419 0.0
In559 In 0.67603 0.90683 0.5686 0.0
O560 O 0.7024 0.89582 0.5775 0.0
O561 O 0.70086 0.92283 0.56998 0.0
C562 C 0.65369 0.87966 0.56637 0.0
C563 C 0.67855 0.91342 0.53425 0.0
C564 C 0.66146 0.92207 0.59683 0.0
O565 O 0.66902 0.87787 0.57255 0.0
O566 O 0.64995 0.89492 0.56122 0.0
O567 O 0.65902 0.928 0.58149 0.0
O568 O 0.67176 0.90917 0.59776 0.0
C569 C 0.71032 0.91025 0.57521 0.0
O570 O 0.67113 0.92421 0.54453 0.0
O571 O 0.68451 0.89971 0.54144 0.0
In572 In 0.58543 0.17603 0.06572 0.0
O573 O 0.59908 0.20253 0.06747 0.0
O574 O 0.57327 0.20008 0.07821 0.0
C575 C 0.61233 0.15411 0.05825 0.0
C576 C 0.56943 0.18008 0.03448 0.0
C577 C 0.57433 0.16177 0.09596 0.0
O578 O 0.61469 0.16898 0.0652 0.0
O579 O 0.59657 0.15063 0.05471 0.0
O580 O 0.56488 0.16164 0.08228 0.0
O581 O 0.58905 0.16914 0.09425 0.0
C582 C 0.58634 0.20985 0.07521 0.0
O583 O 0.56455 0.16835 0.04516 0.0
O584 O 0.58189 0.18956 0.03976 0.0
In585 In 0.17689 0.08465 0.92708 0.0
O586 O 0.20289 0.09638 0.91802 0.0
O587 O 0.20212 0.0693 0.92545 0.0
C588 C 0.15407 0.11134 0.93063 0.0
C589 C 0.18014 0.07747 0.96121 0.0
C590 C 0.16288 0.06953 0.8985 0.0
O591 O 0.1694 0.11366 0.92463 0.0
O592 O 0.15048 0.09574 0.93475 0.0
O593 O 0.16069 0.06313 0.91368 0.0
O594 O 0.17253 0.08295 0.89792 0.0
C595 C 0.21122 0.08217 0.92026 0.0
O596 O 0.17215 0.067 0.95101 0.0
O597 O 0.18623 0.09111 0.95404 0.0
In598 In 0.91037 0.17617 0.4254 0.0
O599 O 0.89684 0.20245 0.42136 0.0
O600 O 0.92397 0.2003 0.41454 0.0
C601 C 0.88338 0.15399 0.43121 0.0
C602 C 0.92254 0.18066 0.4582 0.0
C603 C 0.92355 0.16105 0.39644 0.0
O604 O 0.88128 0.16872 0.42388 0.0
O605 O 0.89893 0.15068 0.43573 0.0
O606 O 0.93175 0.16077 0.4109 0.0
O607 O 0.90908 0.16909 0.39673 0.0
C608 C 0.91047 0.2099 0.41551 0.0
O609 O 0.93005 0.17026 0.44764 0.0
O610 O 0.90953 0.18874 0.45198 0.0
In611 In 0.58706 0.31907 0.42745 0.0
O612 O 0.6007 0.2927 0.4245 0.0
O613 O 0.57407 0.29495 0.41591 0.0
C614 C 0.61363 0.34149 0.43414 0.0
C615 C 0.57335 0.31472 0.45961 0.0
C616 C 0.57516 0.33391 0.39782 0.0
O617 O 0.61612 0.32676 0.42691 0.0
O618 O 0.59792 0.3446 0.43822 0.0
O619 O 0.56623 0.33412 0.41185 0.0
O620 O 0.5897 0.32604 0.39887 0.0
C621 C 0.58742 0.28528 0.41784 0.0
O622 O 0.56652 0.3253 0.44878 0.0
O623 O 0.58649 0.30642 0.45396 0.0
In624 In 0.06992 0.67721 0.58699 0.0
O625 O 0.04581 0.67212 0.56972 0.0
O626 O 0.04293 0.68647 0.5937 0.0
C627 C 0.09813 0.6619 0.5725 0.0
C628 C 0.07685 0.7113 0.58289 0.0
C629 C 0.0669 0.65531 0.61439 0.0
O630 O 0.08287 0.65977 0.56623 0.0
O631 O 0.09902 0.67228 0.58533 0.0
O632 O 0.0736 0.67044 0.61603 0.0
O633 O 0.06166 0.65158 0.59916 0.0
C634 C 0.03565 0.68012 0.58022 0.0
O635 O 0.07888 0.7037 0.59753 0.0
O636 O 0.07178 0.70159 0.57043 0.0
In637 In 0.31967 0.56924 0.58836 0.0
O638 O 0.32435 0.54542 0.5706 0.0
O639 O 0.30988 0.54236 0.5945 0.0
C640 C 0.33437 0.59786 0.57414 0.0
C641 C 0.28553 0.57641 0.58498 0.0
C642 C 0.34237 0.56508 0.61499 0.0
O643 O 0.3362 0.58281 0.56731 0.0
O644 O 0.32465 0.59833 0.58752 0.0
O645 O 0.3272 0.57147 0.61736 0.0
O646 O 0.34579 0.56078 0.59939 0.0
C647 C 0.31608 0.53524 0.58087 0.0
O648 O 0.29337 0.5781 0.59955 0.0
O649 O 0.29503 0.57162 0.57226 0.0
In650 In 0.42592 0.82005 0.58436 0.0
O651 O 0.44997 0.82459 0.56673 0.0
O652 O 0.45267 0.80951 0.59024 0.0
C653 C 0.398 0.83547 0.56921 0.0
C654 C 0.41826 0.78595 0.58165 0.0
C655 C 0.42929 0.84176 0.61198 0.0
O656 O 0.4134 0.83764 0.56337 0.0
O657 O 0.39683 0.82504 0.58197 0.0
O658 O 0.4223 0.82677 0.61339 0.0
O659 O 0.43474 0.8455 0.59683 0.0
C660 C 0.45993 0.81577 0.57674 0.0
O661 O 0.4166 0.79416 0.59599 0.0
O662 O 0.42322 0.79508 0.56872 0.0
In663 In 0.1764 0.92623 0.58441 0.0
O664 O 0.2026 0.91695 0.59552 0.0
O665 O 0.20135 0.92489 0.56862 0.0
C666 C 0.15424 0.92942 0.61166 0.0
C667 C 0.17936 0.96051 0.57772 0.0
C668 C 0.16167 0.89811 0.56908 0.0
O669 O 0.16951 0.92311 0.6135 0.0
O670 O 0.15039 0.93402 0.59624 0.0
O671 O 0.15956 0.91345 0.56304 0.0
O672 O 0.17166 0.89711 0.58222 0.0
C673 C 0.21068 0.91947 0.58122 0.0
O674 O 0.17149 0.95038 0.5671 0.0
O675 O 0.18553 0.9532 0.59126 0.0
In676 In 0.06773 0.31794 0.41268 0.0
O677 O 0.0444 0.32369 0.43095 0.0
O678 O 0.04071 0.30756 0.40825 0.0
C679 C 0.09715 0.33169 0.4265 0.0
C680 C 0.07443 0.28364 0.41524 0.0
C681 C 0.06304 0.34014 0.38562 0.0
O682 O 0.08229 0.33395 0.43362 0.0
O683 O 0.09701 0.32216 0.41299 0.0
O684 O 0.06897 0.32478 0.38345 0.0
O685 O 0.05947 0.34407 0.40128 0.0
C686 C 0.034 0.31456 0.42168 0.0
O687 O 0.07609 0.29178 0.40085 0.0
O688 O 0.06997 0.29292 0.42825 0.0
In689 In 0.67621 0.56873 0.40831 0.0
O690 O 0.70251 0.573 0.39491 0.0
O691 O 0.70029 0.57947 0.42211 0.0
C692 C 0.65389 0.56314 0.38143 0.0
C693 C 0.68097 0.5358 0.41989 0.0
C694 C 0.66067 0.59738 0.42163 0.0
O695 O 0.66847 0.57078 0.37935 0.0
O696 O 0.65083 0.55818 0.3969 0.0
O697 O 0.66034 0.5828 0.42961 0.0
O698 O 0.66905 0.59739 0.40736 0.0
C699 C 0.70993 0.57865 0.40864 0.0
O700 O 0.67095 0.54633 0.42795 0.0
O701 O 0.68854 0.54212 0.40662 0.0
In702 In 0.42867 0.17625 0.40817 0.0
O703 O 0.42016 0.20237 0.39632 0.0
O704 O 0.426 0.2012 0.42379 0.0
C705 C 0.43302 0.15362 0.38144 0.0
C706 C 0.46246 0.17989 0.41699 0.0
C707 C 0.39938 0.16225 0.42197 0.0
O708 O 0.42708 0.16896 0.37907 0.0
O709 O 0.43689 0.15 0.39711 0.0
O710 O 0.41427 0.16008 0.42907 0.0
O711 O 0.39941 0.17185 0.40852 0.0
C712 C 0.42152 0.21047 0.41078 0.0
O713 O 0.45204 0.17114 0.42658 0.0
O714 O 0.45574 0.1864 0.4033 0.0
In715 In 0.81865 0.92562 0.4077 0.0
O716 O 0.82348 0.94978 0.42501 0.0
O717 O 0.81003 0.95268 0.40052 0.0
C718 C 0.83335 0.89741 0.42289 0.0
C719 C 0.78429 0.91923 0.41073 0.0
C720 C 0.84104 0.9281 0.38062 0.0
O721 O 0.83562 0.91273 0.42892 0.0
O722 O 0.8231 0.89646 0.40994 0.0
O723 O 0.82583 0.92164 0.37881 0.0
O724 O 0.84465 0.93335 0.39588 0.0
C725 C 0.81598 0.95996 0.41417 0.0
O726 O 0.79235 0.91699 0.39638 0.0
O727 O 0.79367 0.92417 0.42349 0.0
In728 In 0.08813 0.5685 0.67693 0.0
O729 O 0.10125 0.57174 0.70352 0.0
O730 O 0.0746 0.58011 0.70068 0.0
C731 C 0.11501 0.56172 0.65495 0.0
C732 C 0.0744 0.53633 0.68113 0.0
C733 C 0.07644 0.59795 0.66166 0.0
O734 O 0.11729 0.56905 0.66966 0.0
O735 O 0.09936 0.55756 0.65165 0.0
O736 O 0.06752 0.58392 0.66153 0.0
O737 O 0.0909 0.59702 0.66967 0.0
C738 C 0.08777 0.57836 0.71062 0.0
O739 O 0.0677 0.54717 0.67047 0.0
O740 O 0.08745 0.54198 0.68959 0.0
In741 In 0.42918 0.58644 0.67676 0.0
O742 O 0.45234 0.5679 0.6714 0.0
O743 O 0.45619 0.59066 0.68738 0.0
C744 C 0.40005 0.57286 0.66223 0.0
C745 C 0.42151 0.58355 0.71082 0.0
C746 C 0.43407 0.61358 0.65472 0.0
O747 O 0.41494 0.56573 0.66023 0.0
O748 O 0.39999 0.58627 0.6719 0.0
O749 O 0.42792 0.6157 0.67 0.0
O750 O 0.43786 0.59795 0.65085 0.0
C751 C 0.4628 0.5771 0.68052 0.0
O752 O 0.42036 0.59808 0.70285 0.0
O753 O 0.42608 0.5706 0.70151 0.0
In754 In 0.40693 0.92675 0.67648 0.0
O755 O 0.42704 0.94869 0.67115 0.0
O756 O 0.40618 0.9532 0.68924 0.0
C757 C 0.41943 0.89795 0.66062 0.0
C758 C 0.40726 0.91646 0.71005 0.0
C759 C 0.38023 0.93316 0.65418 0.0
O760 O 0.42789 0.91227 0.66061 0.0
O761 O 0.40509 0.89826 0.66888 0.0
O762 O 0.37794 0.92536 0.66864 0.0
O763 O 0.39579 0.93795 0.6513 0.0
C764 C 0.41947 0.95927 0.6815 0.0
O765 O 0.39364 0.92271 0.70287 0.0
O766 O 0.42058 0.91524 0.70024 0.0
In767 In 0.06972 0.90737 0.67589 0.0
O768 O 0.07878 0.8962 0.70217 0.0
O769 O 0.07231 0.92349 0.70047 0.0
C770 C 0.06518 0.88086 0.65311 0.0
C771 C 0.03577 0.91514 0.67961 0.0
C772 C 0.09836 0.92135 0.66096 0.0
O773 O 0.07166 0.87835 0.66822 0.0
O774 O 0.06098 0.89651 0.64981 0.0
O775 O 0.08337 0.92838 0.65937 0.0
O776 O 0.0988 0.90789 0.67057 0.0
C777 C 0.07716 0.91079 0.70997 0.0
O778 O 0.046 0.92529 0.67126 0.0
O779 O 0.04281 0.90147 0.68583 0.0
In780 In 0.08607 0.42342 0.32061 0.0
O781 O 0.06875 0.44765 0.32518 0.0
O782 O 0.09296 0.45032 0.3112 0.0
C783 C 0.07073 0.39557 0.33586 0.0
C784 C 0.08287 0.41613 0.28645 0.0
C785 C 0.11351 0.42622 0.34259 0.0
O786 O 0.06489 0.41099 0.33798 0.0
O787 O 0.08359 0.39436 0.32554 0.0
O788 O 0.11508 0.41958 0.32745 0.0
O789 O 0.0983 0.43152 0.34635 0.0
C790 C 0.07938 0.45769 0.31721 0.0
O791 O 0.09724 0.41399 0.29453 0.0
O792 O 0.07019 0.42149 0.29571 0.0
In793 In 0.56788 0.58414 0.31887 0.0
O794 O 0.54469 0.56565 0.32426 0.0
O795 O 0.54075 0.58864 0.30863 0.0
C796 C 0.59677 0.57002 0.33341 0.0
C797 C 0.57501 0.5815 0.28461 0.0
C798 C 0.56365 0.61139 0.34097 0.0
O799 O 0.58173 0.5633 0.33561 0.0
O800 O 0.5971 0.5832 0.32345 0.0
O801 O 0.57015 0.61332 0.32581 0.0
O802 O 0.55913 0.59593 0.34467 0.0
C803 C 0.53418 0.575 0.31536 0.0
O804 O 0.57641 0.59594 0.29271 0.0
O805 O 0.57052 0.56851 0.29388 0.0
In806 In 0.4076 0.06851 0.31931 0.0
O807 O 0.39653 0.07781 0.2931 0.0
O808 O 0.42341 0.06972 0.29436 0.0
C809 C 0.38042 0.06555 0.34157 0.0
C810 C 0.4143 0.03421 0.31639 0.0
C811 C 0.42304 0.09674 0.33375 0.0
O812 O 0.37852 0.07171 0.32626 0.0
O813 O 0.39585 0.06094 0.3454 0.0
O814 O 0.42906 0.08141 0.33598 0.0
O815 O 0.40983 0.09766 0.32383 0.0
C816 C 0.41084 0.07523 0.28505 0.0
O817 O 0.42495 0.04437 0.32418 0.0
O818 O 0.4007 0.04149 0.31029 0.0
In819 In 0.9272 0.90617 0.31733 0.0
O820 O 0.94915 0.92613 0.32306 0.0
O821 O 0.95399 0.905 0.30536 0.0
C822 C 0.89813 0.91832 0.33293 0.0
C823 C 0.91749 0.90756 0.28363 0.0
C824 C 0.93312 0.87925 0.33942 0.0
O825 O 0.91247 0.92675 0.3334 0.0
O826 O 0.89856 0.90417 0.32435 0.0
O827 O 0.92565 0.8771 0.32475 0.0
O828 O 0.93784 0.89477 0.34259 0.0
C829 C 0.95995 0.91834 0.3131 0.0
O830 O 0.92319 0.89359 0.29058 0.0
O831 O 0.91653 0.92067 0.29374 0.0
In832 In 0.17658 0.58545 0.56944 0.0
O833 O 0.2024 0.59693 0.57922 0.0
O834 O 0.20178 0.57006 0.571 0.0
C835 C 0.1539 0.6122 0.56588 0.0
C836 C 0.18001 0.57899 0.53518 0.0
C837 C 0.16241 0.57009 0.59782 0.0
O838 O 0.16926 0.61447 0.57182 0.0
O839 O 0.15017 0.59658 0.56191 0.0
O840 O 0.16029 0.56379 0.58257 0.0
O841 O 0.17201 0.58354 0.59854 0.0
C842 C 0.21077 0.58278 0.57674 0.0
O843 O 0.17204 0.56826 0.54512 0.0
O844 O 0.18609 0.59246 0.54268 0.0
In845 In 0.17645 0.90987 0.92579 0.0
O846 O 0.1718 0.92741 0.94985 0.0
O847 O 0.18571 0.90318 0.95276 0.0
C848 C 0.16186 0.92481 0.89734 0.0
C849 C 0.21077 0.91252 0.91894 0.0
C850 C 0.15391 0.88301 0.92942 0.0
O851 O 0.15986 0.93122 0.91255 0.0
O852 O 0.1717 0.91154 0.89663 0.0
O853 O 0.16915 0.88085 0.92316 0.0
O854 O 0.15028 0.89855 0.93377 0.0
C855 C 0.17967 0.91681 0.96001 0.0
O856 O 0.20249 0.89829 0.91668 0.0
O857 O 0.20162 0.92536 0.92413 0.0
In858 In 0.08545 0.67623 0.92729 0.0
O859 O 0.09712 0.70211 0.91792 0.0
O860 O 0.07008 0.70142 0.92554 0.0
C861 C 0.11233 0.6537 0.93111 0.0
C862 C 0.07794 0.67955 0.96136 0.0
C863 C 0.07058 0.66234 0.89849 0.0
O864 O 0.11458 0.66913 0.92538 0.0
O865 O 0.09668 0.64984 0.93481 0.0
O866 O 0.06403 0.66007 0.9136 0.0
O867 O 0.08405 0.67193 0.8981 0.0
C868 C 0.08291 0.71044 0.92013 0.0
O869 O 0.06767 0.67136 0.95112 0.0
O870 O 0.09155 0.6858 0.95427 0.0
In871 In 0.32025 0.58817 0.92697 0.0
O872 O 0.32483 0.57022 0.95068 0.0
O873 O 0.31076 0.59432 0.95398 0.0
C874 C 0.33473 0.57368 0.89833 0.0
C875 C 0.28607 0.58533 0.91968 0.0
C876 C 0.34305 0.61476 0.93101 0.0
O877 O 0.3366 0.56693 0.91341 0.0
O878 O 0.32512 0.58713 0.89784 0.0
O879 O 0.32778 0.61719 0.92486 0.0
O880 O 0.34653 0.59912 0.93511 0.0
C881 C 0.31681 0.58056 0.96098 0.0
O882 O 0.29418 0.59972 0.91784 0.0
O883 O 0.29531 0.57251 0.92474 0.0
In884 In 0.41089 0.31943 0.42487 0.0
O885 O 0.42789 0.32403 0.44932 0.0
O886 O 0.40361 0.31013 0.45172 0.0
C887 C 0.42637 0.33473 0.39712 0.0
C888 C 0.4143 0.28527 0.41768 0.0
C889 C 0.38345 0.34143 0.42744 0.0
O890 O 0.43213 0.33685 0.41257 0.0
O891 O 0.41354 0.32439 0.39583 0.0
O892 O 0.3819 0.32627 0.42083 0.0
O893 O 0.39864 0.3452 0.4328 0.0
C894 C 0.41709 0.31615 0.45926 0.0
O895 O 0.39993 0.29329 0.41531 0.0
O896 O 0.42687 0.29458 0.42321 0.0
In897 In 0.8189 0.40539 0.56838 0.0
O898 O 0.79255 0.39417 0.5771 0.0
O899 O 0.79413 0.42137 0.57022 0.0
C900 C 0.84189 0.37897 0.56462 0.0
C901 C 0.81581 0.41252 0.53425 0.0
C902 C 0.83328 0.41976 0.59711 0.0
O903 O 0.82665 0.37645 0.5708 0.0
O904 O 0.84523 0.39461 0.56037 0.0
O905 O 0.83521 0.42657 0.58206 0.0
O906 O 0.8236 0.40635 0.59753 0.0
C907 C 0.78465 0.40867 0.57511 0.0
O908 O 0.82359 0.42308 0.54452 0.0
O909 O 0.8098 0.3988 0.54135 0.0
In910 In 0.08799 0.31836 0.06831 0.0
O911 O 0.07029 0.32356 0.04451 0.0
O912 O 0.09401 0.30883 0.0413 0.0
C913 C 0.0735 0.33253 0.09709 0.0
C914 C 0.08463 0.28418 0.07516 0.0
C915 C 0.11503 0.34069 0.06465 0.0
O916 O 0.06688 0.33478 0.082 0.0
O917 O 0.08684 0.32275 0.09749 0.0
O918 O 0.11714 0.32533 0.07062 0.0
O919 O 0.09946 0.34452 0.06053 0.0
C920 C 0.08045 0.31528 0.03425 0.0
O921 O 0.0991 0.29208 0.07728 0.0
O922 O 0.07197 0.29361 0.07004 0.0
In923 In 0.40902 0.17756 0.06907 0.0
O924 O 0.42892 0.17113 0.04723 0.0
O925 O 0.40918 0.19041 0.04265 0.0
C926 C 0.42121 0.16194 0.09816 0.0
C927 C 0.40966 0.21123 0.07897 0.0
C928 C 0.38186 0.15586 0.06251 0.0
O929 O 0.42985 0.16186 0.08395 0.0
O930 O 0.40681 0.17009 0.09758 0.0
O931 O 0.37985 0.17042 0.0702 0.0
O932 O 0.3974 0.15255 0.05795 0.0
C933 C 0.42201 0.18189 0.03662 0.0
O934 O 0.39602 0.20414 0.07268 0.0
O935 O 0.42286 0.20127 0.08041 0.0
In936 In 0.92746 0.31793 0.40493 0.0
O937 O 0.94871 0.32376 0.42565 0.0
O938 O 0.95422 0.30582 0.4049 0.0
C939 C 0.89804 0.33305 0.41688 0.0
C940 C 0.91815 0.28404 0.40518 0.0
C941 C 0.93383 0.34062 0.37855 0.0
O942 O 0.91218 0.33325 0.42566 0.0
O943 O 0.89882 0.32494 0.40247 0.0
O944 O 0.92636 0.32602 0.37599 0.0
O945 O 0.9384 0.3434 0.39418 0.0
C946 C 0.95971 0.31362 0.41842 0.0
O947 O 0.9246 0.2913 0.39171 0.0
O948 O 0.91616 0.29395 0.41833 0.0
In949 In 0.67571 0.42732 0.41183 0.0
O950 O 0.67062 0.45081 0.43006 0.0
O951 O 0.68602 0.45435 0.40689 0.0
C952 C 0.66115 0.39883 0.42681 0.0
C953 C 0.70993 0.41984 0.41388 0.0
C954 C 0.65402 0.43092 0.38415 0.0
O955 O 0.65861 0.4141 0.43284 0.0
O956 O 0.67141 0.39811 0.41388 0.0
O957 O 0.66926 0.42454 0.38263 0.0
O958 O 0.64995 0.43562 0.39946 0.0
C959 C 0.67946 0.46116 0.42049 0.0
O960 O 0.70144 0.4182 0.3997 0.0
O961 O 0.70105 0.42481 0.42698 0.0
In962 In 0.57031 0.17738 0.40583 0.0
O963 O 0.57434 0.20408 0.39321 0.0
O964 O 0.58061 0.20115 0.42041 0.0
C965 C 0.56547 0.15521 0.37877 0.0
C966 C 0.53716 0.18168 0.41685 0.0
C967 C 0.59878 0.1612 0.41871 0.0
O968 O 0.57358 0.16958 0.37701 0.0
O969 O 0.55948 0.15243 0.39392 0.0
O970 O 0.58413 0.16065 0.42658 0.0
O971 O 0.59899 0.17034 0.40491 0.0
C972 C 0.57973 0.21118 0.40722 0.0
O973 O 0.5478 0.17207 0.4253 0.0
O974 O 0.54347 0.18902 0.40344 0.0
In975 In 0.81993 0.06959 0.40845 0.0
O976 O 0.82433 0.04519 0.42557 0.0
O977 O 0.81106 0.04274 0.40093 0.0
C978 C 0.83449 0.09776 0.42387 0.0
C979 C 0.78557 0.07606 0.41127 0.0
C980 C 0.84257 0.06687 0.3816 0.0
O981 O 0.83676 0.08242 0.42986 0.0
O982 O 0.82435 0.09871 0.41083 0.0
O983 O 0.82741 0.0734 0.37961 0.0
O984 O 0.84605 0.06174 0.39693 0.0
C985 C 0.81677 0.03523 0.41456 0.0
O986 O 0.79376 0.07849 0.39702 0.0
O987 O 0.79484 0.07093 0.42405 0.0
In988 In 0.92617 0.67517 0.58661 0.0
O989 O 0.95048 0.67084 0.56937 0.0
O990 O 0.95293 0.68487 0.59358 0.0
C991 C 0.89803 0.66039 0.57135 0.0
C992 C 0.91877 0.70929 0.58348 0.0
C993 C 0.92973 0.65268 0.6135 0.0
O994 O 0.91334 0.65846 0.56514 0.0
O995 O 0.89708 0.67018 0.58464 0.0
O996 O 0.92337 0.66789 0.61561 0.0
O997 O 0.93422 0.64907 0.598 0.0
C998 C 0.96041 0.67891 0.58004 0.0
O999 O 0.9165 0.70117 0.5978 0.0
O1000 O 0.92429 0.70008 0.57084 0.0
In1001 In 0.31902 0.42617 0.58807 0.0
O1002 O 0.29272 0.41751 0.59942 0.0
O1003 O 0.29417 0.42441 0.57222 0.0
C1004 C 0.34168 0.42997 0.6148 0.0
C1005 C 0.31579 0.46025 0.58076 0.0
C1006 C 0.33352 0.39763 0.57344 0.0
O1007 O 0.32652 0.42353 0.61706 0.0
O1008 O 0.34512 0.43447 0.59926 0.0
O1009 O 0.33543 0.41276 0.56683 0.0
O1010 O 0.32379 0.39702 0.5868 0.0
C1011 C 0.28474 0.4196 0.58499 0.0
O1012 O 0.32389 0.45002 0.5704 0.0
O1013 O 0.3096 0.45314 0.59439 0.0
In1014 In 0.56776 0.81662 0.58997 0.0
O1015 O 0.57159 0.78967 0.60228 0.0
O1016 O 0.57798 0.79301 0.57517 0.0
C1017 C 0.56262 0.83905 0.6168 0.0
C1018 C 0.53466 0.81279 0.57862 0.0
C1019 C 0.5967 0.83204 0.57727 0.0
O1020 O 0.57004 0.82434 0.61895 0.0
O1021 O 0.55758 0.84208 0.60135 0.0
O1022 O 0.5822 0.83257 0.56911 0.0
O1023 O 0.5965 0.82347 0.59144 0.0
C1024 C 0.57702 0.78277 0.58818 0.0
O1025 O 0.54548 0.82234 0.57036 0.0
O1026 O 0.54077 0.80524 0.59201 0.0
In1027 In 0.17572 0.07007 0.58408 0.0
O1028 O 0.17116 0.0458 0.56679 0.0
O1029 O 0.18456 0.04309 0.59132 0.0
C1030 C 0.16143 0.09806 0.56803 0.0
C1031 C 0.21011 0.07663 0.58179 0.0
C1032 C 0.15352 0.06775 0.61139 0.0
O1033 O 0.15876 0.0826 0.56257 0.0
O1034 O 0.17175 0.0992 0.5809 0.0
O1035 O 0.16884 0.07396 0.61302 0.0
O1036 O 0.14961 0.06274 0.59612 0.0
C1037 C 0.17877 0.03572 0.57766 0.0
O1038 O 0.20161 0.07932 0.59581 0.0
O1039 O 0.20115 0.07113 0.56896 0.0
In1040 In 0.9109 0.42852 0.31922 0.0
O1041 O 0.92918 0.45203 0.32419 0.0
O1042 O 0.90584 0.45553 0.30897 0.0
C1043 C 0.92539 0.39943 0.333 0.0
C1044 C 0.91288 0.42098 0.28504 0.0
C1045 C 0.88398 0.43282 0.34167 0.0
O1046 O 0.93216 0.41443 0.33532 0.0
O1047 O 0.91188 0.39929 0.32346 0.0
O1048 O 0.88172 0.42716 0.32623 0.0
O1049 O 0.89968 0.43633 0.34557 0.0
C1050 C 0.91947 0.46237 0.31545 0.0
O1051 O 0.89871 0.41923 0.29355 0.0
O1052 O 0.92595 0.42615 0.29387 0.0
In1053 In 0.57079 0.40781 0.31793 0.0
O1054 O 0.57408 0.39475 0.29135 0.0
O1055 O 0.58145 0.42169 0.29385 0.0
C1056 C 0.5661 0.38035 0.33972 0.0
C1057 C 0.53785 0.41965 0.31382 0.0
C1058 C 0.59905 0.42137 0.33399 0.0
O1059 O 0.57447 0.37897 0.32548 0.0
O1060 O 0.5598 0.39535 0.34261 0.0
O1061 O 0.58425 0.42893 0.33449 0.0
O1062 O 0.59953 0.4075 0.325 0.0
C1063 C 0.57994 0.40842 0.284 0.0
O1064 O 0.54859 0.42753 0.32376 0.0
O1065 O 0.54393 0.40637 0.30607 0.0
In1066 In 0.5856 0.06599 0.31903 0.0
O1067 O 0.56487 0.04515 0.32631 0.0
O1068 O 0.58281 0.03992 0.30556 0.0
C1069 C 0.57434 0.09597 0.33373 0.0
C1070 C 0.58629 0.07591 0.28534 0.0
C1071 C 0.61264 0.05876 0.34083 0.0
O1072 O 0.56506 0.08218 0.33389 0.0
O1073 O 0.58894 0.09451 0.32608 0.0
O1074 O 0.61487 0.06575 0.32596 0.0
O1075 O 0.59693 0.05506 0.34438 0.0
C1076 C 0.57023 0.03447 0.31478 0.0
O1077 O 0.59917 0.06831 0.29257 0.0
O1078 O 0.57315 0.07852 0.29513 0.0
In1079 In 0.9288 0.08657 0.31768 0.0
O1080 O 0.92587 0.09911 0.2908 0.0
O1081 O 0.9174 0.07256 0.29405 0.0
C1082 C 0.93441 0.11426 0.339 0.0
C1083 C 0.9611 0.07288 0.31382 0.0
C1084 C 0.89959 0.07477 0.33341 0.0
O1085 O 0.92667 0.11577 0.32441 0.0
O1086 O 0.93981 0.09902 0.3424 0.0
O1087 O 0.91391 0.06633 0.33412 0.0
O1088 O 0.90008 0.08867 0.32445 0.0
C1089 C 0.91932 0.08551 0.28387 0.0
O1090 O 0.95023 0.06634 0.32455 0.0
O1091 O 0.95549 0.08586 0.30524 0.0
In1092 In 0.90739 0.56736 0.67645 0.0
O1093 O 0.92516 0.54356 0.67166 0.0
O1094 O 0.90121 0.54039 0.68603 0.0
C1095 C 0.92162 0.59607 0.66189 0.0
C1096 C 0.91075 0.57446 0.71057 0.0
C1097 C 0.88071 0.5633 0.65379 0.0
O1098 O 0.92847 0.58103 0.65999 0.0
O1099 O 0.90822 0.59649 0.67157 0.0
O1100 O 0.87834 0.56957 0.66901 0.0
O1101 O 0.89633 0.55909 0.65031 0.0
C1102 C 0.91486 0.53331 0.67981 0.0
O1103 O 0.89623 0.57637 0.7027 0.0
O1104 O 0.92344 0.56945 0.70113 0.0
In1105 In 0.42846 0.40859 0.67655 0.0
O1106 O 0.41985 0.39667 0.70264 0.0
O1107 O 0.42509 0.42424 0.70137 0.0
C1108 C 0.43356 0.38179 0.65409 0.0
C1109 C 0.46192 0.41841 0.68046 0.0
C1110 C 0.39923 0.42205 0.66216 0.0
O1111 O 0.42747 0.3794 0.66936 0.0
O1112 O 0.43725 0.3975 0.65047 0.0
O1113 O 0.41405 0.42935 0.66028 0.0
O1114 O 0.39928 0.40852 0.67167 0.0
C1115 C 0.42075 0.4112 0.71066 0.0
O1116 O 0.45136 0.42746 0.67131 0.0
O1117 O 0.45552 0.40471 0.68724 0.0
In1118 In 0.58655 0.92643 0.67635 0.0
O1119 O 0.56905 0.95047 0.67139 0.0
O1120 O 0.59306 0.95336 0.68572 0.0
C1121 C 0.57191 0.89737 0.66283 0.0
C1122 C 0.58378 0.91992 0.71065 0.0
C1123 C 0.61305 0.93015 0.65342 0.0
O1124 O 0.56507 0.91237 0.66063 0.0
O1125 O 0.58555 0.89721 0.6722 0.0
O1126 O 0.61556 0.92441 0.66881 0.0
O1127 O 0.59733 0.93391 0.64982 0.0
C1128 C 0.57951 0.9606 0.67949 0.0
O1129 O 0.59807 0.91756 0.70249 0.0
O1130 O 0.57099 0.92507 0.7014 0.0
In1131 In 0.07024 0.08997 0.67799 0.0
O1132 O 0.04789 0.07034 0.67259 0.0
O1133 O 0.04344 0.0919 0.68986 0.0
C1134 C 0.09844 0.07687 0.66154 0.0
C1135 C 0.07993 0.08868 0.71169 0.0
C1136 C 0.06545 0.1174 0.65626 0.0
O1137 O 0.08368 0.0692 0.661 0.0
O1138 O 0.09888 0.0906 0.67076 0.0
O1139 O 0.07378 0.11883 0.67054 0.0
O1140 O 0.05919 0.10239 0.65336 0.0
C1141 C 0.03723 0.07851 0.68238 0.0
O1142 O 0.07415 0.10258 0.70468 0.0
O1143 O 0.08103 0.07555 0.70162 0.0
In1144 In 0.81913 0.40834 0.42462 0.0
O1145 O 0.79272 0.39766 0.41552 0.0
O1146 O 0.79442 0.42453 0.42351 0.0
C1147 C 0.84111 0.38088 0.42673 0.0
C1148 C 0.81608 0.41398 0.45905 0.0
C1149 C 0.83429 0.4242 0.39704 0.0
O1150 O 0.82604 0.37949 0.41983 0.0
O1151 O 0.84478 0.39591 0.43256 0.0
O1152 O 0.83653 0.42968 0.41257 0.0
O1153 O 0.82386 0.41145 0.39559 0.0
C1154 C 0.78487 0.41206 0.41819 0.0
O1155 O 0.8239 0.42494 0.44925 0.0
O1156 O 0.81004 0.40059 0.45135 0.0
In1157 In 0.81926 0.08417 0.07069 0.0
O1158 O 0.82384 0.06774 0.04582 0.0
O1159 O 0.81065 0.09246 0.04396 0.0
C1160 C 0.83379 0.06781 0.0984 0.0
C1161 C 0.78481 0.08137 0.07691 0.0
C1162 C 0.84168 0.11132 0.06882 0.0
O1163 O 0.83612 0.06236 0.08287 0.0
O1164 O 0.82363 0.08079 0.09976 0.0
O1165 O 0.82643 0.11298 0.07522 0.0
O1166 O 0.8454 0.09613 0.06346 0.0
C1167 C 0.81642 0.07906 0.0361 0.0
O1168 O 0.79313 0.09544 0.0799 0.0
O1169 O 0.79399 0.06871 0.07135 0.0
In1170 In 0.90838 0.31861 0.0665 0.0
O1171 O 0.92921 0.32566 0.04573 0.0
O1172 O 0.91092 0.30522 0.04039 0.0
C1173 C 0.91961 0.3336 0.09632 0.0
C1174 C 0.90789 0.28493 0.07644 0.0
C1175 C 0.88153 0.34057 0.05912 0.0
O1176 O 0.9289 0.33357 0.08253 0.0
O1177 O 0.90501 0.32593 0.09497 0.0
O1178 O 0.87917 0.32584 0.06637 0.0
O1179 O 0.89725 0.34386 0.05522 0.0
C1180 C 0.92366 0.31427 0.035 0.0
O1181 O 0.89493 0.29208 0.0689 0.0
O1182 O 0.92097 0.29481 0.07904 0.0
In1183 In 0.67611 0.41011 0.06816 0.0
O1184 O 0.70227 0.39854 0.07692 0.0
O1185 O 0.7013 0.42559 0.06947 0.0
C1186 C 0.6538 0.38292 0.06552 0.0
C1187 C 0.67878 0.41699 0.03389 0.0
C1188 C 0.66181 0.42544 0.09651 0.0
O1189 O 0.66911 0.38112 0.07172 0.0
O1190 O 0.64999 0.39826 0.06066 0.0
O1191 O 0.65928 0.43139 0.0812 0.0
O1192 O 0.67202 0.41246 0.09734 0.0
C1193 C 0.71051 0.41277 0.07457 0.0
O1194 O 0.67127 0.4277 0.04419 0.0
O1195 O 0.6847 0.40325 0.04102 0.0
In1196 In 0.58554 0.67532 0.56568 0.0
O1197 O 0.59875 0.70183 0.56925 0.0
O1198 O 0.57196 0.69912 0.57722 0.0
C1199 C 0.61245 0.6532 0.55924 0.0
C1200 C 0.57209 0.67981 0.53334 0.0
C1201 C 0.57395 0.66047 0.59544 0.0
O1202 O 0.61475 0.66816 0.56604 0.0
O1203 O 0.59675 0.64971 0.55539 0.0
O1204 O 0.56501 0.65995 0.58142 0.0
O1205 O 0.58834 0.66857 0.5943 0.0
C1206 C 0.58524 0.70898 0.57577 0.0
O1207 O 0.56535 0.66897 0.54398 0.0
O1208 O 0.58503 0.68824 0.53924 0.0
In1209 In 0.17666 0.58739 0.42579 0.0
O1210 O 0.20301 0.59843 0.4169 0.0
O1211 O 0.20146 0.57137 0.42428 0.0
C1212 C 0.15461 0.61478 0.42833 0.0
C1213 C 0.17961 0.58045 0.46001 0.0
C1214 C 0.1618 0.57212 0.39773 0.0
O1215 O 0.16979 0.61637 0.42176 0.0
O1216 O 0.15088 0.59961 0.43373 0.0
O1217 O 0.15947 0.56627 0.4131 0.0
O1218 O 0.17214 0.58497 0.39666 0.0
C1219 C 0.21093 0.584 0.41917 0.0
O1220 O 0.17174 0.56993 0.44978 0.0
O1221 O 0.1857 0.5941 0.45286 0.0
In1222 In 0.90913 0.67555 0.92502 0.0
O1223 O 0.92679 0.67087 0.94897 0.0
O1224 O 0.90291 0.68537 0.95189 0.0
C1225 C 0.92417 0.66073 0.89681 0.0
C1226 C 0.91202 0.70972 0.91775 0.0
C1227 C 0.88201 0.65336 0.929 0.0
O1228 O 0.93049 0.65884 0.91206 0.0
O1229 O 0.91085 0.6705 0.89593 0.0
O1230 O 0.88001 0.66852 0.92249 0.0
O1231 O 0.89751 0.64964 0.9334 0.0
C1232 C 0.91648 0.67915 0.9591 0.0
O1233 O 0.89771 0.70155 0.91561 0.0
O1234 O 0.92479 0.70053 0.92304 0.0
In1235 In 0.58704 0.81904 0.92654 0.0
O1236 O 0.60088 0.79293 0.9227 0.0
O1237 O 0.57396 0.79497 0.91499 0.0
C1238 C 0.61372 0.84134 0.93309 0.0
C1239 C 0.57428 0.81411 0.95903 0.0
C1240 C 0.57442 0.83457 0.89756 0.0
O1241 O 0.61604 0.82681 0.92545 0.0
O1242 O 0.59811 0.84435 0.93763 0.0
O1243 O 0.56586 0.83447 0.91181 0.0
O1244 O 0.58893 0.82663 0.89803 0.0
C1245 C 0.58749 0.78546 0.91633 0.0
O1246 O 0.56699 0.82469 0.94849 0.0
O1247 O 0.58736 0.80605 0.95291 0.0
In1248 In 0.56991 0.17723 0.58658 0.0
O1249 O 0.57867 0.20364 0.59754 0.0
O1250 O 0.5718 0.20181 0.57034 0.0
C1251 C 0.56587 0.15498 0.61361 0.0
C1252 C 0.53585 0.18042 0.57902 0.0
C1253 C 0.59866 0.16271 0.57234 0.0
O1254 O 0.57215 0.17023 0.61572 0.0
O1255 O 0.56167 0.15123 0.59806 0.0
O1256 O 0.5836 0.1607 0.56557 0.0
O1257 O 0.59908 0.17247 0.58569 0.0
C1258 C 0.57666 0.21141 0.58297 0.0
O1259 O 0.54607 0.17196 0.56894 0.0
O1260 O 0.54295 0.18697 0.59249 0.0
In1261 In 0.82118 0.06954 0.58479 0.0
O1262 O 0.82541 0.04537 0.56733 0.0
O1263 O 0.81116 0.04282 0.59139 0.0
C1264 C 0.83635 0.09754 0.56969 0.0
C1265 C 0.78709 0.07725 0.58179 0.0
C1266 C 0.8436 0.06564 0.61175 0.0
O1267 O 0.8381 0.08225 0.56343 0.0
O1268 O 0.8265 0.09857 0.58293 0.0
O1269 O 0.82846 0.0722 0.61383 0.0
O1270 O 0.84717 0.06109 0.59626 0.0
C1271 C 0.81714 0.03542 0.57781 0.0
O1272 O 0.79526 0.07931 0.59612 0.0
O1273 O 0.79624 0.07181 0.56907 0.0
In1274 In 0.92922 0.31776 0.58578 0.0
O1275 O 0.95222 0.32349 0.56716 0.0
O1276 O 0.9564 0.30748 0.58985 0.0
C1277 C 0.89993 0.3321 0.57236 0.0
C1278 C 0.92211 0.2836 0.58253 0.0
C1279 C 0.93389 0.3397 0.61304 0.0
O1280 O 0.91479 0.33432 0.56525 0.0
O1281 O 0.89997 0.32229 0.58566 0.0
O1282 O 0.92783 0.32437 0.61507 0.0
O1283 O 0.93774 0.34365 0.59746 0.0
C1284 C 0.96283 0.31444 0.57626 0.0
O1285 O 0.92086 0.29138 0.59716 0.0
O1286 O 0.92646 0.29315 0.56969 0.0
In1287 In 0.67584 0.42502 0.58503 0.0
O1288 O 0.67145 0.44929 0.56776 0.0
O1289 O 0.68521 0.45193 0.59208 0.0
C1290 C 0.66015 0.39754 0.5694 0.0
C1291 C 0.70995 0.41732 0.58186 0.0
C1292 C 0.65407 0.4278 0.61263 0.0
O1293 O 0.6581 0.41306 0.56385 0.0
O1294 O 0.67061 0.39603 0.58211 0.0
O1295 O 0.66918 0.42104 0.61406 0.0
O1296 O 0.65022 0.43318 0.59748 0.0
C1297 C 0.67926 0.45934 0.57849 0.0
O1298 O 0.70179 0.41511 0.59616 0.0
O1299 O 0.70081 0.423 0.56924 0.0
In1300 In 0.56875 0.81737 0.40504 0.0
O1301 O 0.54707 0.8232 0.42527 0.0
O1302 O 0.5418 0.80574 0.40404 0.0
C1303 C 0.59749 0.83336 0.41751 0.0
C1304 C 0.57777 0.78343 0.40606 0.0
C1305 C 0.56349 0.83946 0.37795 0.0
O1306 O 0.58299 0.83385 0.42565 0.0
O1307 O 0.59745 0.82436 0.40363 0.0
O1308 O 0.57171 0.82515 0.37617 0.0
O1309 O 0.55752 0.84217 0.39311 0.0
C1310 C 0.53609 0.81338 0.41755 0.0
O1311 O 0.5717 0.79054 0.39233 0.0
O1312 O 0.57957 0.79352 0.41909 0.0
In1313 In 0.17444 0.07015 0.41236 0.0
O1314 O 0.20023 0.07989 0.40069 0.0
O1315 O 0.19937 0.07364 0.42803 0.0
C1316 C 0.15284 0.06608 0.38466 0.0
C1317 C 0.17901 0.03633 0.42077 0.0
C1318 C 0.15831 0.09786 0.42718 0.0
O1319 O 0.16771 0.07333 0.38322 0.0
O1320 O 0.1492 0.0607 0.39985 0.0
O1321 O 0.15653 0.08248 0.43319 0.0
O1322 O 0.16872 0.09914 0.41442 0.0
C1323 C 0.20843 0.07869 0.41509 0.0
O1324 O 0.16999 0.04643 0.43044 0.0
O1325 O 0.18541 0.04337 0.40721 0.0
In1326 In 0.92748 0.67578 0.41158 0.0
O1327 O 0.91847 0.70167 0.39974 0.0
O1328 O 0.92471 0.70079 0.42712 0.0
C1329 C 0.93148 0.65381 0.38424 0.0
C1330 C 0.96131 0.67971 0.42015 0.0
C1331 C 0.89858 0.6615 0.42592 0.0
O1332 O 0.92535 0.66913 0.38239 0.0
O1333 O 0.93572 0.64983 0.39972 0.0
O1334 O 0.91365 0.6591 0.43253 0.0
O1335 O 0.89827 0.67142 0.41271 0.0
C1336 C 0.91989 0.70989 0.41411 0.0
O1337 O 0.95112 0.6706 0.42964 0.0
O1338 O 0.95435 0.68643 0.4067 0.0
In1339 In 0.31892 0.42667 0.40559 0.0
O1340 O 0.29228 0.42229 0.39282 0.0
O1341 O 0.29541 0.41551 0.41988 0.0
C1342 C 0.34144 0.43283 0.37906 0.0
C1343 C 0.3141 0.45943 0.41752 0.0
C1344 C 0.33485 0.39781 0.41782 0.0
O1345 O 0.32686 0.42524 0.37663 0.0
O1346 O 0.34429 0.43755 0.39464 0.0
O1347 O 0.335 0.4121 0.42632 0.0
O1348 O 0.32641 0.39817 0.40357 0.0
C1349 C 0.28535 0.41636 0.40671 0.0
O1350 O 0.32407 0.44879 0.42553 0.0
O1351 O 0.30662 0.45329 0.4041 0.0
In1352 In 0.58853 0.06963 0.67632 0.0
O1353 O 0.57047 0.04604 0.67141 0.0
O1354 O 0.59429 0.04255 0.6859 0.0
C1355 C 0.57411 0.09837 0.66191 0.0
C1356 C 0.58578 0.07685 0.71052 0.0
C1357 C 0.61533 0.06552 0.65375 0.0
O1358 O 0.56732 0.08332 0.65999 0.0
O1359 O 0.58756 0.09879 0.67153 0.0
O1360 O 0.61764 0.07161 0.66903 0.0
O1361 O 0.59969 0.0615 0.65012 0.0
C1362 C 0.58059 0.03565 0.6796 0.0
O1363 O 0.60014 0.07872 0.70237 0.0
O1364 O 0.57293 0.07178 0.70133 0.0
In1365 In 0.92898 0.08648 0.67562 0.0
O1366 O 0.95242 0.06807 0.67113 0.0
O1367 O 0.95571 0.09118 0.68676 0.0
C1368 C 0.90019 0.073 0.66043 0.0
C1369 C 0.92044 0.08358 0.70948 0.0
C1370 C 0.9343 0.11312 0.65311 0.0
O1371 O 0.91507 0.06572 0.65889 0.0
O1372 O 0.89996 0.08647 0.67002 0.0
O1373 O 0.92777 0.11559 0.66819 0.0
O1374 O 0.93827 0.09743 0.64971 0.0
C1375 C 0.9626 0.07756 0.68028 0.0
O1376 O 0.91967 0.09816 0.70153 0.0
O1377 O 0.9251 0.07062 0.70022 0.0
In1378 In 0.90873 0.42403 0.67616 0.0
O1379 O 0.92611 0.44818 0.67153 0.0
O1380 O 0.90206 0.45087 0.68578 0.0
C1381 C 0.92407 0.39582 0.66159 0.0
C1382 C 0.91153 0.41693 0.71037 0.0
C1383 C 0.8818 0.42767 0.65366 0.0
O1384 O 0.93035 0.4111 0.65973 0.0
O1385 O 0.91065 0.39492 0.67121 0.0
O1386 O 0.87969 0.42132 0.66886 0.0
O1387 O 0.89733 0.43209 0.65004 0.0
C1388 C 0.9156 0.45822 0.67966 0.0
O1389 O 0.89728 0.41455 0.70212 0.0
O1390 O 0.92427 0.42236 0.70124 0.0
In1391 In 0.56909 0.40677 0.67755 0.0
O1392 O 0.57334 0.39403 0.70416 0.0
O1393 O 0.57975 0.4212 0.7012 0.0
C1394 C 0.56268 0.38011 0.65528 0.0
C1395 C 0.53636 0.4188 0.68222 0.0
C1396 C 0.59804 0.41886 0.66168 0.0
O1397 O 0.57047 0.37778 0.66976 0.0
O1398 O 0.55792 0.39567 0.65239 0.0
O1399 O 0.58375 0.4274 0.66147 0.0
O1400 O 0.59763 0.40466 0.67019 0.0
C1401 C 0.57889 0.40801 0.71122 0.0
O1402 O 0.54696 0.42662 0.67207 0.0
O1403 O 0.54252 0.40551 0.68992 0.0
In1404 In 0.5844 0.92896 0.31897 0.0
O1405 O 0.56395 0.95011 0.32618 0.0
O1406 O 0.58201 0.95506 0.30548 0.0
C1407 C 0.57286 0.89899 0.33344 0.0
C1408 C 0.5851 0.91904 0.28527 0.0
C1409 C 0.61134 0.93602 0.34094 0.0
O1410 O 0.56365 0.91283 0.33361 0.0
O1411 O 0.58754 0.90041 0.32593 0.0
O1412 O 0.61365 0.92918 0.32602 0.0
O1413 O 0.5956 0.9396 0.34449 0.0
C1414 C 0.5695 0.96071 0.31468 0.0
O1415 O 0.5981 0.92634 0.29259 0.0
O1416 O 0.57183 0.91673 0.29497 0.0
In1417 In 0.06715 0.08616 0.31995 0.0
O1418 O 0.04559 0.06575 0.32594 0.0
O1419 O 0.04109 0.08509 0.30628 0.0
C1420 C 0.09633 0.07443 0.33592 0.0
C1421 C 0.07746 0.08661 0.28639 0.0
C1422 C 0.05979 0.11306 0.34174 0.0
O1423 O 0.08228 0.06555 0.3358 0.0
O1424 O 0.0956 0.08879 0.32773 0.0
O1425 O 0.06775 0.11526 0.32737 0.0
O1426 O 0.05525 0.09747 0.34478 0.0
C1427 C 0.03515 0.0722 0.31473 0.0
O1428 O 0.07065 0.09985 0.29374 0.0
O1429 O 0.07926 0.07324 0.29605 0.0
In1430 In 0.90808 0.57038 0.31853 0.0
O1431 O 0.8951 0.5746 0.29207 0.0
O1432 O 0.92238 0.58069 0.29457 0.0
C1433 C 0.88052 0.56624 0.34027 0.0
C1434 C 0.91887 0.53712 0.31413 0.0
C1435 C 0.92199 0.59844 0.33462 0.0
O1436 O 0.87922 0.57428 0.32583 0.0
O1437 O 0.89551 0.56002 0.34343 0.0
O1438 O 0.92922 0.58349 0.33541 0.0
O1439 O 0.90827 0.59913 0.32539 0.0
C1440 C 0.909 0.57998 0.28478 0.0
O1441 O 0.92735 0.54765 0.32381 0.0
O1442 O 0.90554 0.54358 0.30677 0.0
In1443 In 0.42957 0.4115 0.3194 0.0
O1444 O 0.45288 0.4299 0.3248 0.0
O1445 O 0.45658 0.407 0.30897 0.0
C1446 C 0.40019 0.42527 0.33325 0.0
C1447 C 0.42242 0.41417 0.28519 0.0
C1448 C 0.43429 0.38449 0.34167 0.0
O1449 O 0.41506 0.43236 0.33555 0.0
O1450 O 0.40031 0.41179 0.32367 0.0
O1451 O 0.42845 0.38226 0.32628 0.0
O1452 O 0.43778 0.40017 0.34559 0.0
C1453 C 0.46328 0.42056 0.31575 0.0
O1454 O 0.42092 0.39973 0.29329 0.0
O1455 O 0.42703 0.42714 0.29446 0.0
In1456 In 0.67798 0.08772 0.5681 0.0
O1457 O 0.70422 0.09918 0.57687 0.0
O1458 O 0.70291 0.07195 0.57014 0.0
C1459 C 0.65551 0.1146 0.56413 0.0
C1460 C 0.68088 0.07987 0.53406 0.0
C1461 C 0.66347 0.07346 0.59688 0.0
O1462 O 0.67081 0.11683 0.57025 0.0
O1463 O 0.65183 0.09901 0.56004 0.0
O1464 O 0.66145 0.0667 0.58183 0.0
O1465 O 0.67327 0.08678 0.59729 0.0
C1466 C 0.71226 0.08476 0.57502 0.0
O1467 O 0.67297 0.06964 0.54455 0.0
O1468 O 0.68713 0.09362 0.5409 0.0
In1469 In 0.67549 0.41261 0.92418 0.0
O1470 O 0.67102 0.42952 0.94875 0.0
O1471 O 0.6842 0.40484 0.95103 0.0
C1472 C 0.66092 0.42904 0.89652 0.0
C1473 C 0.70993 0.41488 0.91781 0.0
C1474 C 0.65336 0.38524 0.92633 0.0
O1475 O 0.65844 0.4343 0.91207 0.0
O1476 O 0.67125 0.4162 0.89511 0.0
O1477 O 0.66859 0.38372 0.91989 0.0
O1478 O 0.64948 0.40043 0.93157 0.0
C1479 C 0.67849 0.4184 0.95865 0.0
O1480 O 0.70137 0.40095 0.91483 0.0
O1481 O 0.70099 0.42768 0.92341 0.0
In1482 In 0.58535 0.17677 0.92995 0.0
O1483 O 0.56446 0.16884 0.95036 0.0
O1484 O 0.5812 0.19053 0.9557 0.0
C1485 C 0.57481 0.16188 0.8998 0.0
C1486 C 0.58648 0.21042 0.92004 0.0
C1487 C 0.61236 0.15527 0.93802 0.0
O1488 O 0.56509 0.1621 0.91328 0.0
O1489 O 0.58949 0.16928 0.90163 0.0
O1490 O 0.61464 0.17003 0.93082 0.0
O1491 O 0.59662 0.1517 0.94152 0.0
C1492 C 0.569 0.18074 0.961 0.0
O1493 O 0.59905 0.20318 0.92814 0.0
O1494 O 0.57342 0.20066 0.91694 0.0
In1495 In 0.81869 0.08839 0.92651 0.0
O1496 O 0.82364 0.07073 0.9504 0.0
O1497 O 0.81043 0.09528 0.95375 0.0
C1498 C 0.8329 0.07361 0.89784 0.0
C1499 C 0.78425 0.0854 0.92053 0.0
C1500 C 0.84133 0.11527 0.9291 0.0
O1501 O 0.83532 0.06729 0.91302 0.0
O1502 O 0.82276 0.08667 0.89726 0.0
O1503 O 0.82602 0.11729 0.92291 0.0
O1504 O 0.8449 0.0999 0.93406 0.0
C1505 C 0.8163 0.08147 0.9608 0.0
O1506 O 0.79224 0.09981 0.91838 0.0
O1507 O 0.79373 0.07259 0.92516 0.0
In1508 In 0.90961 0.819 0.4262 0.0
O1509 O 0.89818 0.79281 0.41736 0.0
O1510 O 0.92533 0.79406 0.42459 0.0
C1511 C 0.88274 0.84152 0.43022 0.0
C1512 C 0.91729 0.81566 0.4602 0.0
C1513 C 0.92427 0.83276 0.39729 0.0
O1514 O 0.88048 0.82617 0.42427 0.0
O1515 O 0.89839 0.84529 0.43404 0.0
O1516 O 0.93095 0.83502 0.41234 0.0
O1517 O 0.91073 0.82325 0.397 0.0
C1518 C 0.91255 0.78474 0.41957 0.0
O1519 O 0.92739 0.82409 0.44999 0.0
O1520 O 0.90372 0.80926 0.45313 0.0
In1521 In 0.31983 0.9119 0.56673 0.0
O1522 O 0.32504 0.93047 0.54354 0.0
O1523 O 0.30902 0.9077 0.53983 0.0
C1524 C 0.3338 0.92582 0.59596 0.0
C1525 C 0.28563 0.91404 0.5742 0.0
C1526 C 0.34223 0.88502 0.56176 0.0
O1527 O 0.33594 0.9329 0.58108 0.0
O1528 O 0.32431 0.91228 0.59593 0.0
O1529 O 0.3269 0.8827 0.56773 0.0
O1530 O 0.34601 0.90072 0.55825 0.0
C1531 C 0.3158 0.92128 0.53319 0.0
O1532 O 0.29395 0.8997 0.57548 0.0
O1533 O 0.29468 0.92718 0.56965 0.0
In1534 In 0.5847 0.81918 0.06681 0.0
O1535 O 0.59681 0.79318 0.07546 0.0
O1536 O 0.56929 0.79415 0.06983 0.0
C1537 C 0.61158 0.84156 0.06154 0.0
C1538 C 0.57456 0.81554 0.0334 0.0
C1539 C 0.57129 0.83299 0.09638 0.0
O1540 O 0.61398 0.82616 0.06727 0.0
O1541 O 0.5958 0.8454 0.05837 0.0
O1542 O 0.56385 0.83504 0.08165 0.0
O1543 O 0.58498 0.82372 0.09604 0.0
C1544 C 0.58238 0.785 0.07433 0.0
O1545 O 0.56573 0.82481 0.04404 0.0
O1546 O 0.58819 0.80852 0.03971 0.0
In1547 In 0.90918 0.6764 0.06826 0.0
O1548 O 0.9269 0.67154 0.0444 0.0
O1549 O 0.90284 0.68571 0.04124 0.0
C1550 C 0.92449 0.66269 0.09691 0.0
C1551 C 0.91147 0.7107 0.0751 0.0
C1552 C 0.88237 0.65372 0.06474 0.0
O1553 O 0.93082 0.66037 0.08173 0.0
O1554 O 0.911 0.67226 0.09745 0.0
O1555 O 0.88011 0.66912 0.07055 0.0
O1556 O 0.898 0.64997 0.06082 0.0
C1557 C 0.91649 0.67954 0.03414 0.0
O1558 O 0.89736 0.70225 0.07753 0.0
O1559 O 0.92433 0.70174 0.06966 0.0
In1560 In 0.42793 0.81902 0.411 0.0
O1561 O 0.41896 0.79304 0.39919 0.0
O1562 O 0.4251 0.79407 0.42659 0.0
C1563 C 0.43286 0.84126 0.38403 0.0
C1564 C 0.46164 0.81508 0.41996 0.0
C1565 C 0.39869 0.83305 0.42486 0.0
O1566 O 0.42694 0.82591 0.38177 0.0
O1567 O 0.43629 0.84517 0.39973 0.0
O1568 O 0.41357 0.83512 0.43201 0.0
O1569 O 0.39873 0.82365 0.41127 0.0
C1570 C 0.42035 0.78489 0.41361 0.0
O1571 O 0.45139 0.82434 0.42926 0.0
O1572 O 0.4548 0.8082 0.40653 0.0
In1573 In 0.17663 0.92871 0.40828 0.0
O1574 O 0.20294 0.92417 0.39499 0.0
O1575 O 0.20058 0.91802 0.42227 0.0
C1576 C 0.15402 0.93467 0.38177 0.0
C1577 C 0.1813 0.96163 0.41991 0.0
C1578 C 0.16143 0.89945 0.42059 0.0
O1579 O 0.16888 0.92767 0.37929 0.0
O1580 O 0.15084 0.93882 0.39745 0.0
O1581 O 0.16094 0.91374 0.42911 0.0
O1582 O 0.16975 0.90008 0.40629 0.0
C1583 C 0.21025 0.91856 0.4088 0.0
O1584 O 0.17147 0.951 0.42807 0.0
O1585 O 0.18877 0.95539 0.40654 0.0
In1586 In 0.06839 0.67746 0.40506 0.0
O1587 O 0.04673 0.67179 0.42538 0.0
O1588 O 0.04156 0.68943 0.40428 0.0
C1589 C 0.09759 0.66234 0.41761 0.0
C1590 C 0.07785 0.71131 0.40528 0.0
C1591 C 0.06246 0.6547 0.37863 0.0
O1592 O 0.08329 0.66213 0.4261 0.0
O1593 O 0.09707 0.67044 0.40318 0.0
O1594 O 0.0699 0.66933 0.37615 0.0
O1595 O 0.05777 0.65189 0.39422 0.0
C1596 C 0.03581 0.68174 0.41774 0.0
O1597 O 0.07165 0.70398 0.39173 0.0
O1598 O 0.07945 0.7015 0.41856 0.0
In1599 In 0.31967 0.5678 0.41006 0.0
O1600 O 0.29368 0.57686 0.39843 0.0
O1601 O 0.29489 0.57105 0.42589 0.0
C1602 C 0.34144 0.5637 0.3826 0.0
C1603 C 0.31564 0.53403 0.41874 0.0
C1604 C 0.33484 0.59639 0.42409 0.0
O1605 O 0.32629 0.57029 0.38088 0.0
O1606 O 0.34528 0.55895 0.39797 0.0
O1607 O 0.33695 0.58129 0.4307 0.0
O1608 O 0.32464 0.59693 0.41109 0.0
C1609 C 0.28565 0.57574 0.41292 0.0
O1610 O 0.32469 0.54427 0.42824 0.0
O1611 O 0.30898 0.54091 0.40521 0.0
In1612 In 0.42701 0.1764 0.58785 0.0
O1613 O 0.4182 0.20269 0.59909 0.0
O1614 O 0.42423 0.20096 0.5717 0.0
C1615 C 0.43163 0.15389 0.61456 0.0
C1616 C 0.46088 0.18002 0.5797 0.0
C1617 C 0.3982 0.16155 0.57414 0.0
O1618 O 0.42522 0.16905 0.61693 0.0
O1619 O 0.43575 0.1504 0.59893 0.0
O1620 O 0.41313 0.1598 0.56703 0.0
O1621 O 0.39792 0.17124 0.58753 0.0
C1622 C 0.41959 0.21048 0.58447 0.0
O1623 O 0.45056 0.17153 0.56976 0.0
O1624 O 0.45397 0.18642 0.59335 0.0
In1625 In 0.81906 0.92631 0.58597 0.0
O1626 O 0.82397 0.95002 0.56809 0.0
O1627 O 0.80945 0.95334 0.5919 0.0
C1628 C 0.83366 0.89755 0.57182 0.0
C1629 C 0.78493 0.91888 0.58282 0.0
C1630 C 0.84153 0.93044 0.61282 0.0
O1631 O 0.83562 0.91257 0.56497 0.0
O1632 O 0.82393 0.89717 0.58518 0.0
O1633 O 0.8262 0.92442 0.61509 0.0
O1634 O 0.84525 0.93436 0.59719 0.0
C1635 C 0.8158 0.96034 0.57829 0.0
O1636 O 0.79294 0.91713 0.59728 0.0
O1637 O 0.79423 0.92399 0.57007 0.0
In1638 In 0.07024 0.31875 0.58726 0.0
O1639 O 0.07483 0.29242 0.60042 0.0
O1640 O 0.08088 0.29488 0.57313 0.0
C1641 C 0.06412 0.34109 0.61394 0.0
C1642 C 0.03738 0.31368 0.57571 0.0
C1643 C 0.09883 0.33476 0.57449 0.0
O1644 O 0.07207 0.32669 0.61618 0.0
O1645 O 0.05909 0.3439 0.59845 0.0
O1646 O 0.08435 0.33493 0.5663 0.0
O1647 O 0.0988 0.32621 0.58866 0.0
C1648 C 0.08025 0.28511 0.58653 0.0
O1649 O 0.04781 0.32378 0.56761 0.0
O1650 O 0.04376 0.30622 0.58902 0.0
In1651 In 0.67604 0.56911 0.58368 0.0
O1652 O 0.67145 0.54455 0.56684 0.0
O1653 O 0.68519 0.54229 0.59122 0.0
C1654 C 0.66106 0.59689 0.56784 0.0
C1655 C 0.71026 0.57612 0.58052 0.0
C1656 C 0.65419 0.56661 0.61122 0.0
O1657 O 0.65873 0.5814 0.56228 0.0
O1658 O 0.67137 0.59817 0.58071 0.0
O1659 O 0.66945 0.57303 0.6127 0.0
O1660 O 0.65019 0.56153 0.596 0.0
C1661 C 0.67922 0.53466 0.57777 0.0
O1662 O 0.70207 0.57886 0.59471 0.0
O1663 O 0.70108 0.57032 0.56797 0.0
In1664 In 0.4096 0.92451 0.31923 0.0
O1665 O 0.42644 0.94904 0.32392 0.0
O1666 O 0.40199 0.95133 0.31027 0.0
C1667 C 0.4253 0.89674 0.33429 0.0
C1668 C 0.41279 0.91792 0.28498 0.0
C1669 C 0.38218 0.92686 0.34119 0.0
O1670 O 0.43093 0.91221 0.33656 0.0
O1671 O 0.41252 0.89544 0.32389 0.0
O1672 O 0.38068 0.92017 0.32606 0.0
O1673 O 0.39732 0.93235 0.34497 0.0
C1674 C 0.41546 0.95894 0.31624 0.0
O1675 O 0.39854 0.91523 0.29309 0.0
O1676 O 0.42541 0.92339 0.29427 0.0
In1677 In 0.06848 0.91244 0.31912 0.0
O1678 O 0.0778 0.90103 0.29313 0.0
O1679 O 0.071 0.92826 0.29426 0.0
C1680 C 0.06484 0.88476 0.34073 0.0
C1681 C 0.03455 0.92056 0.31517 0.0
C1682 C 0.09686 0.92724 0.33397 0.0
O1683 O 0.07134 0.88324 0.32553 0.0
O1684 O 0.06005 0.90007 0.34475 0.0
O1685 O 0.0816 0.93339 0.33633 0.0
O1686 O 0.09762 0.91428 0.32375 0.0
C1687 C 0.07609 0.91544 0.28505 0.0
O1688 O 0.04464 0.9302 0.32424 0.0
O1689 O 0.04165 0.90717 0.30848 0.0
In1690 In 0.08583 0.56719 0.31915 0.0
O1691 O 0.06847 0.54308 0.3242 0.0
O1692 O 0.09259 0.54019 0.31008 0.0
C1693 C 0.07107 0.59613 0.33282 0.0
C1694 C 0.08278 0.57383 0.28489 0.0
C1695 C 0.11263 0.5638 0.34179 0.0
O1696 O 0.06446 0.58106 0.33522 0.0
O1697 O 0.08452 0.59641 0.3232 0.0
O1698 O 0.11492 0.5694 0.32631 0.0
O1699 O 0.09698 0.56003 0.34562 0.0
C1700 C 0.07906 0.53291 0.31633 0.0
O1701 O 0.09708 0.57634 0.29301 0.0
O1702 O 0.07013 0.56838 0.29414 0.0
In1703 In 0.42674 0.58698 0.31901 0.0
O1704 O 0.4491 0.56734 0.32448 0.0
O1705 O 0.45329 0.58837 0.30653 0.0
C1706 C 0.39798 0.57392 0.33453 0.0
C1707 C 0.41691 0.58643 0.28532 0.0
C1708 C 0.4325 0.61394 0.34113 0.0
O1709 O 0.41252 0.56584 0.3349 0.0
O1710 O 0.39806 0.58816 0.32611 0.0
O1711 O 0.42485 0.61598 0.32655 0.0
O1712 O 0.4374 0.59847 0.34428 0.0
C1713 C 0.4596 0.57519 0.31426 0.0
O1714 O 0.42253 0.60022 0.29266 0.0
O1715 O 0.41605 0.57302 0.29505 0.0
In1716 In 0.41025 0.06715 0.67627 0.0
O1717 O 0.3983 0.07623 0.70214 0.0
O1718 O 0.42581 0.07053 0.70117 0.0
C1719 C 0.38319 0.06191 0.65414 0.0
C1720 C 0.42002 0.03368 0.68029 0.0
C1721 C 0.42383 0.09628 0.66176 0.0
O1722 O 0.38096 0.06794 0.66944 0.0
O1723 O 0.39889 0.0584 0.65027 0.0
O1724 O 0.43104 0.08142 0.65987 0.0
O1725 O 0.41031 0.0963 0.67128 0.0
C1726 C 0.41276 0.07522 0.71028 0.0
O1727 O 0.42901 0.04414 0.67098 0.0
O1728 O 0.40645 0.04019 0.68721 0.0
In1729 In 0.92668 0.9082 0.67625 0.0
O1730 O 0.95058 0.92588 0.67145 0.0
O1731 O 0.95353 0.90226 0.68636 0.0
C1732 C 0.89814 0.92247 0.66129 0.0
C1733 C 0.91901 0.91151 0.71025 0.0
C1734 C 0.93094 0.88112 0.65415 0.0
O1735 O 0.91324 0.92919 0.65942 0.0
O1736 O 0.89758 0.90917 0.67109 0.0
O1737 O 0.92458 0.87905 0.66936 0.0
O1738 O 0.93512 0.89666 0.65035 0.0
C1739 C 0.96071 0.91575 0.67994 0.0
O1740 O 0.91728 0.89701 0.7023 0.0
O1741 O 0.92416 0.92422 0.70093 0.0
In1742 In 0.08373 0.42893 0.67456 0.0
O1743 O 0.06464 0.45167 0.66919 0.0
O1744 O 0.08693 0.45582 0.68577 0.0
C1745 C 0.07064 0.39943 0.66037 0.0
C1746 C 0.08162 0.42085 0.7086 0.0
C1747 C 0.11064 0.43468 0.65239 0.0
O1748 O 0.0631 0.41411 0.65839 0.0
O1749 O 0.08423 0.39978 0.66979 0.0
O1750 O 0.11301 0.42882 0.66775 0.0
O1751 O 0.09486 0.43774 0.64848 0.0
C1752 C 0.07333 0.46217 0.67874 0.0
O1753 O 0.09603 0.42007 0.70035 0.0
O1754 O 0.06841 0.4253 0.69958 0.0
In1755 In 0.57045 0.5884 0.67708 0.0
O1756 O 0.54797 0.5689 0.67183 0.0
O1757 O 0.54369 0.59069 0.6889 0.0
C1758 C 0.59897 0.57547 0.66115 0.0
C1759 C 0.5799 0.58681 0.71087 0.0
C1760 C 0.56541 0.61526 0.65468 0.0
O1761 O 0.58435 0.56755 0.66064 0.0
O1762 O 0.59912 0.58941 0.67009 0.0
O1763 O 0.57338 0.61724 0.66911 0.0
O1764 O 0.55966 0.6 0.65196 0.0
C1765 C 0.5374 0.57726 0.68157 0.0
O1766 O 0.57464 0.60092 0.70383 0.0
O1767 O 0.58067 0.57368 0.70076 0.0
In1768 In 0.31793 0.90586 0.42664 0.0
O1769 O 0.29108 0.89316 0.42354 0.0
O1770 O 0.29429 0.91977 0.41525 0.0
C1771 C 0.34017 0.87907 0.43296 0.0
C1772 C 0.31373 0.9191 0.45895 0.0
C1773 C 0.33355 0.91774 0.39751 0.0
O1774 O 0.32563 0.87682 0.42526 0.0
O1775 O 0.3431 0.8946 0.43778 0.0
O1776 O 0.33381 0.9264 0.41171 0.0
O1777 O 0.32512 0.90351 0.39808 0.0
C1778 C 0.28413 0.9068 0.41709 0.0
O1779 O 0.32393 0.92634 0.44802 0.0
O1780 O 0.30577 0.90572 0.45335 0.0
In1781 In 0.31971 0.58506 0.07046 0.0
O1782 O 0.32441 0.56807 0.04603 0.0
O1783 O 0.31049 0.59234 0.04363 0.0
C1784 C 0.33416 0.56917 0.09842 0.0
C1785 C 0.28544 0.58227 0.07733 0.0
C1786 C 0.34192 0.61233 0.06799 0.0
O1787 O 0.33662 0.56351 0.08299 0.0
O1788 O 0.32399 0.58216 0.09954 0.0
O1789 O 0.32662 0.61402 0.07423 0.0
O1790 O 0.34579 0.59704 0.06303 0.0
C1791 C 0.31653 0.57888 0.0361 0.0
O1792 O 0.29375 0.59642 0.07996 0.0
O1793 O 0.29452 0.56959 0.07169 0.0
In1794 In 0.40805 0.81939 0.06825 0.0
O1795 O 0.4283 0.82553 0.04665 0.0
O1796 O 0.40846 0.80642 0.04188 0.0
C1797 C 0.42056 0.83483 0.09729 0.0
C1798 C 0.40794 0.78575 0.07825 0.0
C1799 C 0.38102 0.84131 0.0618 0.0
O1800 O 0.42907 0.83493 0.08302 0.0
O1801 O 0.40612 0.82675 0.09681 0.0
O1802 O 0.37896 0.82677 0.06949 0.0
O1803 O 0.39655 0.8445 0.05713 0.0
C1804 C 0.42147 0.81476 0.03601 0.0
O1805 O 0.39458 0.79301 0.07157 0.0
O1806 O 0.42125 0.7955 0.08 0.0
In1807 In 0.17602 0.9096 0.06941 0.0
O1808 O 0.17125 0.92702 0.04529 0.0
O1809 O 0.18544 0.90295 0.04247 0.0
C1810 C 0.16129 0.92479 0.09761 0.0
C1811 C 0.21027 0.91282 0.07642 0.0
C1812 C 0.15368 0.88249 0.06607 0.0
O1813 O 0.15925 0.93097 0.08232 0.0
O1814 O 0.17119 0.91156 0.09853 0.0
O1815 O 0.16894 0.88053 0.07239 0.0
O1816 O 0.14996 0.89793 0.06147 0.0
C1817 C 0.1793 0.91651 0.03518 0.0
O1818 O 0.20223 0.89844 0.07865 0.0
O1819 O 0.20091 0.92547 0.07117 0.0
In1820 In 0.08676 0.17707 0.56753 0.0
O1821 O 0.10063 0.20341 0.56961 0.0
O1822 O 0.07444 0.20134 0.57946 0.0
C1823 C 0.1134 0.15483 0.56043 0.0
C1824 C 0.07181 0.18099 0.53584 0.0
C1825 C 0.0751 0.16271 0.59747 0.0
O1826 O 0.11588 0.1696 0.56754 0.0
O1827 O 0.09764 0.15155 0.55668 0.0
O1828 O 0.06592 0.16262 0.58361 0.0
O1829 O 0.08982 0.17015 0.59611 0.0
C1830 C 0.08772 0.21093 0.57684 0.0
O1831 O 0.06586 0.17005 0.54682 0.0
O1832 O 0.08472 0.18986 0.54113 0.0
In1833 In 0.67618 0.08368 0.42451 0.0
O1834 O 0.67183 0.06686 0.44916 0.0
O1835 O 0.68562 0.09122 0.4512 0.0
C1836 C 0.66138 0.06742 0.39688 0.0
C1837 C 0.71047 0.08104 0.41747 0.0
C1838 C 0.65404 0.11104 0.42701 0.0
O1839 O 0.65909 0.062 0.41242 0.0
O1840 O 0.67157 0.08036 0.39548 0.0
O1841 O 0.66923 0.11261 0.42048 0.0
O1842 O 0.65022 0.09581 0.4322 0.0
C1843 C 0.67976 0.07779 0.45891 0.0
O1844 O 0.70204 0.0951 0.41477 0.0
O1845 O 0.70148 0.06833 0.4232 0.0
In1846 In 0.41052 0.17582 0.92918 0.0
O1847 O 0.39856 0.20194 0.92074 0.0
O1848 O 0.42621 0.2006 0.92569 0.0
C1849 C 0.38359 0.15362 0.93475 0.0
C1850 C 0.42117 0.17959 0.96239 0.0
C1851 C 0.42347 0.16172 0.8996 0.0
O1852 O 0.38122 0.16896 0.92885 0.0
O1853 O 0.39935 0.14978 0.93801 0.0
O1854 O 0.43107 0.15976 0.91425 0.0
O1855 O 0.40985 0.17109 0.89999 0.0
C1856 C 0.41314 0.20992 0.92148 0.0
O1857 O 0.42971 0.17011 0.95172 0.0
O1858 O 0.40753 0.18674 0.95624 0.0
In1859 In 0.08773 0.31873 0.9252 0.0
O1860 O 0.09914 0.29258 0.91624 0.0
O1861 O 0.07199 0.29381 0.92343 0.0
C1862 C 0.11443 0.34141 0.92915 0.0
C1863 C 0.08028 0.31545 0.95925 0.0
C1864 C 0.0732 0.33291 0.89643 0.0
O1865 O 0.11679 0.32611 0.92312 0.0
O1866 O 0.09878 0.34502 0.93315 0.0
O1867 O 0.06645 0.33492 0.91149 0.0
O1868 O 0.08668 0.32332 0.89603 0.0
C1869 C 0.08476 0.2845 0.91836 0.0
O1870 O 0.06999 0.32365 0.94902 0.0
O1871 O 0.09389 0.30918 0.95216 0.0
In1872 In 0.56729 0.67643 0.08647 0.0
O1873 O 0.54372 0.67153 0.06836 0.0
O1874 O 0.5405 0.6873 0.09138 0.0
C1875 C 0.59592 0.66118 0.07274 0.0
C1876 C 0.57527 0.71038 0.08288 0.0
C1877 C 0.56245 0.65424 0.11349 0.0
O1878 O 0.58093 0.65949 0.06574 0.0
O1879 O 0.59636 0.67099 0.08605 0.0
O1880 O 0.56909 0.66932 0.11565 0.0
O1881 O 0.55814 0.6507 0.09792 0.0
C1882 C 0.53355 0.68066 0.07787 0.0
O1883 O 0.57645 0.70269 0.09758 0.0
O1884 O 0.57055 0.70083 0.07017 0.0
In1885 In 0.81799 0.56964 0.0873 0.0
O1886 O 0.82304 0.54588 0.06955 0.0
O1887 O 0.80925 0.5424 0.09376 0.0
C1888 C 0.83296 0.59786 0.0724 0.0
C1889 C 0.78365 0.57624 0.08405 0.0
C1890 C 0.84015 0.56686 0.11461 0.0
O1891 O 0.83517 0.58256 0.06631 0.0
O1892 O 0.82264 0.5988 0.08528 0.0
O1893 O 0.82499 0.57348 0.11629 0.0
O1894 O 0.84379 0.56154 0.09939 0.0
C1895 C 0.81538 0.53545 0.08002 0.0
O1896 O 0.79159 0.57824 0.09852 0.0
O1897 O 0.79313 0.57139 0.07134 0.0
In1898 In 0.92527 0.81943 0.08686 0.0
O1899 O 0.94948 0.82399 0.06956 0.0
O1900 O 0.95203 0.80953 0.09351 0.0
C1901 C 0.89713 0.8351 0.07257 0.0
C1902 C 0.91776 0.78543 0.08304 0.0
C1903 C 0.92881 0.84144 0.11408 0.0
O1904 O 0.91235 0.83699 0.06614 0.0
O1905 O 0.89624 0.82476 0.08544 0.0
O1906 O 0.92181 0.82647 0.11584 0.0
O1907 O 0.93411 0.84496 0.09882 0.0
C1908 C 0.95945 0.81572 0.08004 0.0
O1909 O 0.91616 0.79312 0.09769 0.0
O1910 O 0.92265 0.79502 0.07041 0.0
In1911 In 0.67532 0.92557 0.08535 0.0
O1912 O 0.70151 0.9167 0.0968 0.0
O1913 O 0.70057 0.92463 0.06989 0.0
C1914 C 0.65315 0.92765 0.11267 0.0
C1915 C 0.67783 0.96004 0.07917 0.0
C1916 C 0.66064 0.8976 0.06955 0.0
O1917 O 0.66841 0.92126 0.11425 0.0
O1918 O 0.64933 0.93298 0.09749 0.0
O1919 O 0.65819 0.91307 0.06398 0.0
O1920 O 0.67105 0.89641 0.08234 0.0
C1921 C 0.70978 0.91937 0.08265 0.0
O1922 O 0.67063 0.94987 0.06812 0.0
O1923 O 0.68355 0.95268 0.09288 0.0
In1924 In 0.57026 0.31798 0.90561 0.0
O1925 O 0.57465 0.29115 0.89343 0.0
O1926 O 0.58057 0.29455 0.92066 0.0
C1927 C 0.56515 0.33983 0.87837 0.0
C1928 C 0.53721 0.31343 0.91673 0.0
C1929 C 0.59854 0.33458 0.91826 0.0
O1930 O 0.57345 0.32554 0.87673 0.0
O1931 O 0.5591 0.34265 0.89348 0.0
O1932 O 0.58387 0.33516 0.92609 0.0
O1933 O 0.59887 0.32522 0.90462 0.0
C1934 C 0.5799 0.2843 0.90763 0.0
O1935 O 0.5478 0.32313 0.92513 0.0
O1936 O 0.5435 0.30616 0.90326 0.0
In1937 In 0.17734 0.57038 0.90789 0.0
O1938 O 0.17283 0.54598 0.9249 0.0
O1939 O 0.18682 0.5436 0.90067 0.0
C1940 C 0.16205 0.5982 0.92315 0.0
C1941 C 0.21143 0.57774 0.91149 0.0
C1942 C 0.15506 0.56759 0.88074 0.0
O1943 O 0.16005 0.58281 0.92911 0.0
O1944 O 0.17227 0.5994 0.91021 0.0
O1945 O 0.17018 0.57429 0.87898 0.0
O1946 O 0.15151 0.56224 0.89597 0.0
C1947 C 0.18079 0.53607 0.91414 0.0
O1948 O 0.20354 0.57984 0.89701 0.0
O1949 O 0.20202 0.57236 0.92404 0.0
In1950 In 0.92764 0.17792 0.90601 0.0
O1951 O 0.95017 0.17225 0.92536 0.0
O1952 O 0.95444 0.18973 0.90393 0.0
C1953 C 0.89871 0.16248 0.91869 0.0
C1954 C 0.91804 0.21162 0.90777 0.0
C1955 C 0.93278 0.15581 0.87897 0.0
O1956 O 0.91323 0.16182 0.92681 0.0
O1957 O 0.89891 0.17115 0.90459 0.0
O1958 O 0.92547 0.17058 0.87697 0.0
O1959 O 0.9377 0.15252 0.89441 0.0
C1960 C 0.96078 0.18208 0.91716 0.0
O1961 O 0.9233 0.2047 0.89362 0.0
O1962 O 0.91748 0.20149 0.92089 0.0
In1963 In 0.32018 0.92505 0.91001 0.0
O1964 O 0.32485 0.94934 0.92721 0.0
O1965 O 0.31133 0.95206 0.90277 0.0
C1966 C 0.33531 0.89729 0.92574 0.0
C1967 C 0.28583 0.91831 0.91294 0.0
C1968 C 0.34214 0.92743 0.88251 0.0
O1969 O 0.33757 0.91278 0.9313 0.0
O1970 O 0.32488 0.89595 0.91297 0.0
O1971 O 0.32697 0.9208 0.88106 0.0
O1972 O 0.34596 0.93288 0.89765 0.0
C1973 C 0.31725 0.95944 0.91638 0.0
O1974 O 0.29404 0.91583 0.89872 0.0
O1975 O 0.29506 0.92368 0.92564 0.0
In1976 In 0.58367 0.56759 0.17547 0.0
O1977 O 0.5956 0.5762 0.20155 0.0
O1978 O 0.5681 0.57053 0.20046 0.0
C1979 C 0.61076 0.56251 0.15334 0.0
C1980 C 0.574 0.53402 0.17906 0.0
C1981 C 0.5701 0.59682 0.16106 0.0
O1982 O 0.61295 0.56867 0.16861 0.0
O1983 O 0.59509 0.55883 0.14952 0.0
O1984 O 0.56286 0.58198 0.15915 0.0
O1985 O 0.5836 0.5968 0.17062 0.0
C1986 C 0.58116 0.57498 0.20969 0.0
O1987 O 0.56496 0.54457 0.16989 0.0
O1988 O 0.58757 0.54049 0.18604 0.0
In1989 In 0.92699 0.58931 0.17684 0.0
O1990 O 0.92414 0.60267 0.20334 0.0
O1991 O 0.91564 0.57604 0.20085 0.0
C1992 C 0.93337 0.61608 0.15462 0.0
C1993 C 0.95928 0.57589 0.1812 0.0
C1994 C 0.89761 0.57714 0.16174 0.0
O1995 O 0.92584 0.61834 0.16922 0.0
O1996 O 0.93794 0.6005 0.15155 0.0
O1997 O 0.9118 0.56847 0.16151 0.0
O1998 O 0.89833 0.59156 0.16982 0.0
C1999 C 0.91764 0.58926 0.21066 0.0
O2000 O 0.94848 0.56893 0.17066 0.0
O2001 O 0.95356 0.58905 0.18939 0.0
In2002 In 0.90902 0.92898 0.17616 0.0
O2003 O 0.92971 0.94979 0.16878 0.0
O2004 O 0.9119 0.95501 0.18966 0.0
C2005 C 0.92017 0.89929 0.16089 0.0
C2006 C 0.90883 0.91893 0.2098 0.0
C2007 C 0.88177 0.9364 0.15473 0.0
O2008 O 0.9294 0.91311 0.16086 0.0
O2009 O 0.90567 0.90054 0.16877 0.0
O2010 O 0.87971 0.92898 0.16941 0.0
O2011 O 0.8974 0.94044 0.15121 0.0
C2012 C 0.92443 0.96045 0.18035 0.0
O2013 O 0.89582 0.92649 0.20277 0.0
O2014 O 0.92184 0.91639 0.19982 0.0
In2015 In 0.56845 0.90537 0.17758 0.0
O2016 O 0.57261 0.89291 0.20437 0.0
O2017 O 0.57882 0.92009 0.2012 0.0
C2018 C 0.56296 0.8786 0.15519 0.0
C2019 C 0.53546 0.9168 0.18193 0.0
C2020 C 0.59717 0.91794 0.1617 0.0
O2021 O 0.5707 0.87644 0.16973 0.0
O2022 O 0.55774 0.89402 0.15234 0.0
O2023 O 0.58268 0.92612 0.16129 0.0
O2024 O 0.59709 0.9039 0.17046 0.0
C2025 C 0.57799 0.90699 0.21134 0.0
O2026 O 0.54616 0.92509 0.17227 0.0
O2027 O 0.54162 0.90333 0.18929 0.0
In2028 In 0.58494 0.42925 0.81891 0.0
O2029 O 0.5987 0.42711 0.79254 0.0
O2030 O 0.57277 0.41662 0.79492 0.0
C2031 C 0.61195 0.4369 0.8406 0.0
C2032 C 0.56912 0.46056 0.8147 0.0
C2033 C 0.57387 0.39913 0.83347 0.0
O2034 O 0.61423 0.42989 0.82576 0.0
O2035 O 0.5962 0.44037 0.8442 0.0
O2036 O 0.56442 0.4128 0.83349 0.0
O2037 O 0.58857 0.40078 0.82606 0.0
C2038 C 0.58595 0.41939 0.78522 0.0
O2039 O 0.56421 0.44998 0.8265 0.0
O2040 O 0.58147 0.4551 0.80518 0.0
In2041 In 0.06831 0.58927 0.81815 0.0
O2042 O 0.07213 0.60228 0.79159 0.0
O2043 O 0.07939 0.57531 0.79442 0.0
C2044 C 0.06202 0.61591 0.84051 0.0
C2045 C 0.03576 0.57659 0.8136 0.0
C2046 C 0.0976 0.57725 0.83348 0.0
O2047 O 0.06937 0.6183 0.82582 0.0
O2048 O 0.0576 0.60029 0.84358 0.0
O2049 O 0.08339 0.5686 0.83381 0.0
O2050 O 0.09692 0.59157 0.82521 0.0
C2051 C 0.07819 0.58854 0.78449 0.0
O2052 O 0.04652 0.5691 0.82383 0.0
O2053 O 0.04167 0.58991 0.80577 0.0
In2054 In 0.9079 0.06968 0.81824 0.0
O2055 O 0.92536 0.04569 0.82328 0.0
O2056 O 0.90143 0.04273 0.80881 0.0
C2057 C 0.92289 0.09835 0.83213 0.0
C2058 C 0.9112 0.07643 0.78401 0.0
C2059 C 0.88122 0.06603 0.84102 0.0
O2060 O 0.92946 0.08322 0.83422 0.0
O2061 O 0.90929 0.09884 0.82271 0.0
O2062 O 0.87883 0.07197 0.82568 0.0
O2063 O 0.89687 0.06204 0.84462 0.0
C2064 C 0.91497 0.03553 0.81514 0.0
O2065 O 0.89679 0.07882 0.79196 0.0
O2066 O 0.92378 0.07109 0.79341 0.0
In2067 In 0.42696 0.90559 0.81752 0.0
O2068 O 0.44902 0.92562 0.82265 0.0
O2069 O 0.45363 0.90413 0.80532 0.0
C2070 C 0.39813 0.91791 0.83346 0.0
C2071 C 0.41685 0.90627 0.78391 0.0
C2072 C 0.43317 0.87909 0.84002 0.0
O2073 O 0.41244 0.9264 0.83353 0.0
O2074 O 0.39845 0.90366 0.82505 0.0
O2075 O 0.42542 0.87668 0.82553 0.0
O2076 O 0.43801 0.89464 0.8428 0.0
C2077 C 0.45972 0.91759 0.81278 0.0
O2078 O 0.42278 0.8925 0.79106 0.0
O2079 O 0.41585 0.91956 0.79378 0.0
In2080 In 0.67459 0.58524 0.06883 0.0
O2081 O 0.67011 0.56749 0.04488 0.0
O2082 O 0.6839 0.59174 0.0418 0.0
C2083 C 0.65971 0.57044 0.09718 0.0
C2084 C 0.70881 0.58248 0.07621 0.0
C2085 C 0.65221 0.61223 0.06508 0.0
O2086 O 0.65776 0.56403 0.08197 0.0
O2087 O 0.66962 0.58365 0.09795 0.0
O2088 O 0.66748 0.61432 0.0713 0.0
O2089 O 0.64848 0.5967 0.06079 0.0
C2090 C 0.67794 0.57804 0.03465 0.0
O2091 O 0.70055 0.59675 0.07829 0.0
O2092 O 0.6997 0.56968 0.07084 0.0
In2093 In 0.675 0.91071 0.42432 0.0
O2094 O 0.67067 0.92703 0.44929 0.0
O2095 O 0.68388 0.90231 0.45095 0.0
C2096 C 0.66019 0.92733 0.39691 0.0
C2097 C 0.70929 0.91362 0.4175 0.0
C2098 C 0.65286 0.88334 0.42612 0.0
O2099 O 0.65779 0.93248 0.41253 0.0
O2100 O 0.67051 0.91451 0.39534 0.0
O2101 O 0.66809 0.88186 0.41965 0.0
O2102 O 0.64901 0.89847 0.43157 0.0
C2103 C 0.67816 0.91567 0.45891 0.0
O2104 O 0.70092 0.8996 0.41444 0.0
O2105 O 0.70026 0.92616 0.42353 0.0
In2106 In 0.58502 0.67548 0.42657 0.0
O2107 O 0.56514 0.66899 0.44851 0.0
O2108 O 0.58482 0.68828 0.45312 0.0
C2109 C 0.57228 0.65981 0.39764 0.0
C2110 C 0.58488 0.70927 0.4169 0.0
C2111 C 0.6127 0.65402 0.43188 0.0
O2112 O 0.56419 0.65922 0.41215 0.0
O2113 O 0.5863 0.6686 0.39782 0.0
O2114 O 0.61414 0.66858 0.42411 0.0
O2115 O 0.59749 0.65063 0.43738 0.0
C2116 C 0.57195 0.67981 0.45911 0.0
O2117 O 0.5983 0.70195 0.42338 0.0
O2118 O 0.57157 0.69949 0.41517 0.0
In2119 In 0.81792 0.58832 0.42666 0.0
O2120 O 0.82369 0.5681 0.44838 0.0
O2121 O 0.80552 0.58882 0.45325 0.0
C2122 C 0.83307 0.57595 0.39745 0.0
C2123 C 0.7841 0.58818 0.41711 0.0
C2124 C 0.84051 0.6148 0.43301 0.0
O2125 O 0.83327 0.56733 0.41167 0.0
O2126 O 0.82501 0.59039 0.39808 0.0
O2127 O 0.82591 0.61727 0.4255 0.0
O2128 O 0.8434 0.59916 0.43752 0.0
C2129 C 0.81343 0.57554 0.45913 0.0
O2130 O 0.79145 0.60172 0.42329 0.0
O2131 O 0.79387 0.57486 0.41554 0.0
In2132 In 0.90923 0.31897 0.9296 0.0
O2133 O 0.89607 0.29237 0.92683 0.0
O2134 O 0.92226 0.29535 0.91716 0.0
C2135 C 0.88194 0.34046 0.93662 0.0
C2136 C 0.92412 0.31452 0.9613 0.0
C2137 C 0.92069 0.3342 0.90001 0.0
O2138 O 0.87994 0.32575 0.92925 0.0
O2139 O 0.89753 0.34398 0.94082 0.0
O2140 O 0.9297 0.33444 0.91398 0.0
O2141 O 0.90626 0.32616 0.90108 0.0
C2142 C 0.90921 0.28537 0.91947 0.0
O2143 O 0.92972 0.32603 0.95074 0.0
O2144 O 0.91152 0.30542 0.95565 0.0
In2145 In 0.32127 0.40954 0.07139 0.0
O2146 O 0.32544 0.42663 0.04694 0.0
O2147 O 0.31176 0.40222 0.04464 0.0
C2148 C 0.33663 0.42507 0.0991 0.0
C2149 C 0.28709 0.41251 0.07883 0.0
C2150 C 0.34366 0.38245 0.06847 0.0
O2151 O 0.33853 0.43094 0.08367 0.0
O2152 O 0.32646 0.4121 0.10041 0.0
O2153 O 0.32859 0.38065 0.07523 0.0
O2154 O 0.34715 0.39771 0.06314 0.0
C2155 C 0.31756 0.41577 0.03707 0.0
O2156 O 0.2953 0.39823 0.08104 0.0
O2157 O 0.29624 0.42522 0.07336 0.0
In2158 In 0.58292 0.32038 0.56707 0.0
O2159 O 0.59549 0.29469 0.57576 0.0
O2160 O 0.56793 0.29508 0.57028 0.0
C2161 C 0.60994 0.34252 0.56164 0.0
C2162 C 0.57245 0.31657 0.53378 0.0
C2163 C 0.56951 0.33416 0.59665 0.0
O2164 O 0.61221 0.32709 0.56731 0.0
O2165 O 0.59419 0.34655 0.55862 0.0
O2166 O 0.56212 0.33633 0.58192 0.0
O2167 O 0.58312 0.32478 0.5963 0.0
C2168 C 0.58123 0.28622 0.57475 0.0
O2169 O 0.56379 0.32601 0.5444 0.0
O2170 O 0.58605 0.30947 0.54004 0.0
In2171 In 0.91322 0.17487 0.56628 0.0
O2172 O 0.93184 0.16952 0.54315 0.0
O2173 O 0.90924 0.18573 0.53931 0.0
C2174 C 0.92688 0.16029 0.59538 0.0
C2175 C 0.91583 0.20892 0.5742 0.0
C2176 C 0.88593 0.15301 0.56124 0.0
O2177 O 0.93394 0.15824 0.58047 0.0
O2178 O 0.91351 0.17001 0.59546 0.0
O2179 O 0.8839 0.16833 0.56732 0.0
O2180 O 0.90155 0.14899 0.55761 0.0
C2181 C 0.92278 0.17881 0.53272 0.0
O2182 O 0.90138 0.20078 0.57538 0.0
O2183 O 0.92884 0.19979 0.56944 0.0
In2184 In 0.42869 0.31841 0.90944 0.0
O2185 O 0.45231 0.32355 0.92742 0.0
O2186 O 0.45554 0.30775 0.90443 0.0
C2187 C 0.39995 0.33327 0.92338 0.0
C2188 C 0.42088 0.28444 0.91297 0.0
C2189 C 0.43319 0.34047 0.88227 0.0
O2190 O 0.41497 0.33521 0.93025 0.0
O2191 O 0.39956 0.32348 0.91006 0.0
O2192 O 0.42687 0.32524 0.88021 0.0
O2193 O 0.43732 0.34426 0.89783 0.0
C2194 C 0.46251 0.3145 0.91788 0.0
O2195 O 0.41944 0.2922 0.89834 0.0
O2196 O 0.42581 0.29391 0.92566 0.0
In2197 In 0.17749 0.42665 0.90664 0.0
O2198 O 0.20384 0.41734 0.89592 0.0
O2199 O 0.20199 0.42456 0.92301 0.0
C2200 C 0.15496 0.43031 0.87978 0.0
C2201 C 0.18085 0.46083 0.91351 0.0
C2202 C 0.1627 0.39815 0.92108 0.0
O2203 O 0.17025 0.42414 0.87757 0.0
O2204 O 0.15134 0.43462 0.89533 0.0
O2205 O 0.1607 0.41329 0.92767 0.0
O2206 O 0.17258 0.39755 0.90783 0.0
C2207 C 0.21156 0.4193 0.91052 0.0
O2208 O 0.17279 0.45074 0.92403 0.0
O2209 O 0.18703 0.45353 0.89997 0.0
In2210 In 0.0693 0.17572 0.90912 0.0
O2211 O 0.07832 0.20173 0.8975 0.0
O2212 O 0.07257 0.20047 0.92496 0.0
C2213 C 0.06528 0.15384 0.88175 0.0
C2214 C 0.03549 0.17984 0.91765 0.0
C2215 C 0.09773 0.16038 0.92331 0.0
O2216 O 0.07208 0.16888 0.88002 0.0
O2217 O 0.06027 0.15017 0.89707 0.0
O2218 O 0.08257 0.15838 0.92983 0.0
O2219 O 0.09842 0.1706 0.91034 0.0
C2220 C 0.07721 0.20974 0.91201 0.0
O2221 O 0.04572 0.17089 0.92727 0.0
O2222 O 0.0424 0.18634 0.90407 0.0
In2223 In 0.32048 0.06913 0.91051 0.0
O2224 O 0.29435 0.07855 0.89934 0.0
O2225 O 0.29545 0.07051 0.92622 0.0
C2226 C 0.34285 0.06617 0.88342 0.0
C2227 C 0.31734 0.03475 0.91674 0.0
C2228 C 0.33511 0.09724 0.92601 0.0
O2229 O 0.32754 0.07236 0.88149 0.0
O2230 O 0.34664 0.06158 0.89885 0.0
O2231 O 0.33726 0.08188 0.932 0.0
O2232 O 0.32514 0.09826 0.91285 0.0
C2233 C 0.2862 0.07602 0.9136 0.0
O2234 O 0.3251 0.04473 0.92759 0.0
O2235 O 0.31136 0.04225 0.90322 0.0
In2236 In 0.42587 0.67808 0.09019 0.0
O2237 O 0.42188 0.70474 0.10287 0.0
O2238 O 0.41529 0.70179 0.07575 0.0
C2239 C 0.43073 0.65614 0.11742 0.0
C2240 C 0.45889 0.68248 0.07883 0.0
C2241 C 0.39746 0.66195 0.07715 0.0
O2242 O 0.42265 0.67054 0.11905 0.0
O2243 O 0.43668 0.6532 0.10228 0.0
O2244 O 0.41215 0.66137 0.06937 0.0
O2245 O 0.39719 0.67103 0.09098 0.0
C2246 C 0.41627 0.71181 0.08893 0.0
O2247 O 0.44824 0.67272 0.0706 0.0
O2248 O 0.45266 0.68992 0.09223 0.0
In2249 In 0.8198 0.42582 0.08344 0.0
O2250 O 0.79383 0.41616 0.09465 0.0
O2251 O 0.79466 0.42466 0.06789 0.0
C2252 C 0.84232 0.42878 0.1104 0.0
C2253 C 0.81631 0.46023 0.07775 0.0
C2254 C 0.83406 0.39768 0.06769 0.0
O2255 O 0.82698 0.42271 0.11243 0.0
O2256 O 0.84612 0.43317 0.09491 0.0
O2257 O 0.83635 0.41304 0.06176 0.0
O2258 O 0.82421 0.39672 0.08094 0.0
C2259 C 0.78554 0.41892 0.0805 0.0
O2260 O 0.82419 0.45053 0.06674 0.0
O2261 O 0.81042 0.45244 0.09113 0.0
In2262 In 0.06867 0.81893 0.08863 0.0
O2263 O 0.07757 0.79275 0.10009 0.0
O2264 O 0.07106 0.79412 0.0728 0.0
C2265 C 0.06442 0.84172 0.11515 0.0
C2266 C 0.03462 0.81549 0.08101 0.0
C2267 C 0.09737 0.83367 0.07447 0.0
O2268 O 0.0708 0.82657 0.11762 0.0
O2269 O 0.06018 0.84508 0.09952 0.0
O2270 O 0.08235 0.83536 0.06751 0.0
O2271 O 0.0978 0.82406 0.08792 0.0
C2272 C 0.07588 0.78476 0.08561 0.0
O2273 O 0.04491 0.82357 0.07072 0.0
O2274 O 0.04165 0.80935 0.09472 0.0
In2275 In 0.67501 0.07004 0.08349 0.0
O2276 O 0.67054 0.04532 0.06678 0.0
O2277 O 0.68322 0.04314 0.09172 0.0
C2278 C 0.66072 0.09774 0.06683 0.0
C2279 C 0.70953 0.07623 0.0812 0.0
C2280 C 0.65265 0.06845 0.11072 0.0
O2281 O 0.65811 0.08216 0.06166 0.0
O2282 O 0.67102 0.09914 0.07968 0.0
O2283 O 0.66799 0.07462 0.11232 0.0
O2284 O 0.64879 0.06317 0.09553 0.0
C2285 C 0.67766 0.03544 0.07815 0.0
O2286 O 0.70097 0.07936 0.09508 0.0
O2287 O 0.70057 0.07051 0.06846 0.0
In2288 In 0.40968 0.42566 0.8195 0.0
O2289 O 0.39842 0.41637 0.79336 0.0
O2290 O 0.42554 0.42366 0.79466 0.0
C2291 C 0.38291 0.42968 0.84211 0.0
C2292 C 0.41703 0.45977 0.81612 0.0
C2293 C 0.42429 0.39706 0.83403 0.0
O2294 O 0.38059 0.42353 0.82684 0.0
O2295 O 0.39854 0.43375 0.84571 0.0
O2296 O 0.431 0.41217 0.83588 0.0
O2297 O 0.4108 0.39653 0.82446 0.0
C2298 C 0.41285 0.41841 0.78534 0.0
O2299 O 0.42734 0.44958 0.82433 0.0
O2300 O 0.40345 0.45261 0.80984 0.0
In2301 In 0.069 0.40791 0.81735 0.0
O2302 O 0.07787 0.39712 0.7909 0.0
O2303 O 0.07089 0.42428 0.79286 0.0
C2304 C 0.06493 0.38095 0.83964 0.0
C2305 C 0.03487 0.41528 0.81429 0.0
C2306 C 0.09786 0.42193 0.8319 0.0
O2307 O 0.07109 0.37876 0.82436 0.0
O2308 O 0.06088 0.39654 0.8434 0.0
O2309 O 0.08286 0.42885 0.83385 0.0
O2310 O 0.09817 0.40854 0.82219 0.0
C2311 C 0.07586 0.41173 0.78322 0.0
O2312 O 0.0451 0.42546 0.82262 0.0
O2313 O 0.04201 0.40183 0.80773 0.0
In2314 In 0.08852 0.06769 0.81914 0.0
O2315 O 0.10202 0.0716 0.79287 0.0
O2316 O 0.07505 0.07908 0.79525 0.0
C2317 C 0.11536 0.06147 0.84134 0.0
C2318 C 0.07596 0.03516 0.81415 0.0
C2319 C 0.07575 0.09667 0.83448 0.0
O2320 O 0.11755 0.06901 0.82673 0.0
O2321 O 0.09979 0.05688 0.84448 0.0
O2322 O 0.06737 0.08231 0.83468 0.0
O2323 O 0.09018 0.09629 0.82639 0.0
C2324 C 0.08846 0.07784 0.78557 0.0
O2325 O 0.0686 0.04562 0.82475 0.0
O2326 O 0.08905 0.04134 0.80618 0.0
In2327 In 0.42707 0.08856 0.81879 0.0
O2328 O 0.41781 0.09932 0.79244 0.0
O2329 O 0.4247 0.07213 0.79441 0.0
C2330 C 0.43117 0.11524 0.84138 0.0
C2331 C 0.46122 0.08165 0.81513 0.0
C2332 C 0.39867 0.07439 0.83399 0.0
O2333 O 0.42457 0.11756 0.82628 0.0
O2334 O 0.4357 0.09969 0.84474 0.0
O2335 O 0.41376 0.06757 0.83564 0.0
O2336 O 0.39803 0.0877 0.82419 0.0
C2337 C 0.41963 0.08467 0.78479 0.0
O2338 O 0.45119 0.07116 0.82331 0.0
O2339 O 0.45387 0.09519 0.80897 0.0
In2340 In 0.40898 0.56778 0.17738 0.0
O2341 O 0.42945 0.54645 0.17094 0.0
O2342 O 0.40969 0.54127 0.19002 0.0
C2343 C 0.42106 0.59748 0.16289 0.0
C2344 C 0.40862 0.57719 0.21119 0.0
C2345 C 0.38228 0.56121 0.15508 0.0
O2346 O 0.4299 0.5834 0.16253 0.0
O2347 O 0.40648 0.59644 0.17067 0.0
O2348 O 0.37989 0.5683 0.16988 0.0
O2349 O 0.39799 0.55724 0.15179 0.0
C2350 C 0.42275 0.53563 0.1816 0.0
O2351 O 0.39532 0.57061 0.20373 0.0
O2352 O 0.42198 0.57914 0.20155 0.0
In2353 In 0.9256 0.40732 0.1764 0.0
O2354 O 0.91665 0.39685 0.20294 0.0
O2355 O 0.92325 0.42407 0.20061 0.0
C2356 C 0.92887 0.38001 0.15443 0.0
C2357 C 0.95981 0.41404 0.17994 0.0
C2358 C 0.89756 0.42174 0.16073 0.0
O2359 O 0.92182 0.37835 0.16939 0.0
O2360 O 0.93438 0.3952 0.15093 0.0
O2361 O 0.91282 0.42807 0.15882 0.0
O2362 O 0.89657 0.40889 0.17109 0.0
C2363 C 0.9184 0.4116 0.21041 0.0
O2364 O 0.94984 0.4245 0.17166 0.0
O2365 O 0.95239 0.40059 0.18619 0.0
In2366 In 0.08571 0.92901 0.17608 0.0
O2367 O 0.09759 0.92062 0.20223 0.0
O2368 O 0.07003 0.92606 0.20093 0.0
C2369 C 0.11275 0.93389 0.15389 0.0
C2370 C 0.07596 0.96248 0.17987 0.0
C2371 C 0.07213 0.89971 0.16194 0.0
O2372 O 0.11495 0.92779 0.16918 0.0
O2373 O 0.0971 0.93767 0.15009 0.0
O2374 O 0.065 0.91456 0.15976 0.0
O2375 O 0.08555 0.89977 0.17161 0.0
C2376 C 0.08308 0.92178 0.21026 0.0
O2377 O 0.06691 0.95196 0.17067 0.0
O2378 O 0.08964 0.95605 0.18668 0.0
In2379 In 0.56951 0.09037 0.17774 0.0
O2380 O 0.57396 0.1025 0.20462 0.0
O2381 O 0.5796 0.07523 0.20122 0.0
C2382 C 0.56492 0.11753 0.15568 0.0
C2383 C 0.5362 0.0799 0.18211 0.0
C2384 C 0.59767 0.07742 0.16115 0.0
O2385 O 0.57317 0.11917 0.17 0.0
O2386 O 0.55866 0.10248 0.15294 0.0
O2387 O 0.58292 0.06973 0.16058 0.0
O2388 O 0.59815 0.09105 0.17053 0.0
C2389 C 0.57906 0.08826 0.21147 0.0
O2390 O 0.54677 0.0711 0.17276 0.0
O2391 O 0.54264 0.09342 0.18917 0.0
In2392 In 0.32008 0.40773 0.92767 0.0
O2393 O 0.29397 0.39648 0.91833 0.0
O2394 O 0.29527 0.42364 0.9254 0.0
C2395 C 0.3428 0.38109 0.93158 0.0
C2396 C 0.31678 0.41494 0.96183 0.0
C2397 C 0.33471 0.42196 0.89897 0.0
O2398 O 0.32747 0.37869 0.92559 0.0
O2399 O 0.34639 0.39673 0.93559 0.0
O2400 O 0.33663 0.4288 0.91401 0.0
O2401 O 0.32498 0.40859 0.89856 0.0
C2402 C 0.28598 0.41094 0.92014 0.0
O2403 O 0.32471 0.42542 0.9516 0.0
O2404 O 0.31066 0.4013 0.95466 0.0
In2405 In 0.31942 0.08572 0.57006 0.0
O2406 O 0.32382 0.06879 0.54553 0.0
O2407 O 0.3098 0.09305 0.54343 0.0
C2408 C 0.33422 0.07036 0.59812 0.0
C2409 C 0.2852 0.08264 0.57698 0.0
C2410 C 0.34185 0.11268 0.56672 0.0
O2411 O 0.33621 0.06425 0.58279 0.0
O2412 O 0.3243 0.08357 0.59914 0.0
O2413 O 0.32669 0.11468 0.57325 0.0
O2414 O 0.34546 0.09725 0.56199 0.0
C2415 C 0.31576 0.07963 0.53576 0.0
O2416 O 0.29334 0.09693 0.5794 0.0
O2417 O 0.29447 0.06995 0.57165 0.0
In2418 In 0.40959 0.31928 0.56877 0.0
O2419 O 0.39826 0.29334 0.5784 0.0
O2420 O 0.42523 0.29424 0.57056 0.0
C2421 C 0.3825 0.34157 0.56517 0.0
C2422 C 0.41652 0.31598 0.53453 0.0
C2423 C 0.42461 0.33395 0.59714 0.0
O2424 O 0.38047 0.32625 0.5713 0.0
O2425 O 0.39803 0.3454 0.56095 0.0
O2426 O 0.43092 0.33601 0.5819 0.0
O2427 O 0.41134 0.32411 0.5979 0.0
C2428 C 0.41253 0.28513 0.57613 0.0
O2429 O 0.42708 0.32392 0.54468 0.0
O2430 O 0.40294 0.30988 0.54181 0.0
In2431 In 0.17584 0.4121 0.56902 0.0
O2432 O 0.17129 0.42972 0.54495 0.0
O2433 O 0.18679 0.40646 0.54239 0.0
C2434 C 0.16025 0.42731 0.59681 0.0
C2435 C 0.20984 0.41475 0.57725 0.0
C2436 C 0.15432 0.38435 0.56536 0.0
O2437 O 0.15818 0.43314 0.58139 0.0
O2438 O 0.17063 0.41451 0.59805 0.0
O2439 O 0.16935 0.38297 0.57227 0.0
O2440 O 0.15041 0.39955 0.56017 0.0
C2441 C 0.18035 0.41986 0.53507 0.0
O2442 O 0.20153 0.40046 0.57889 0.0
O2443 O 0.20086 0.42767 0.57195 0.0
In2444 In 0.08539 0.67583 0.07048 0.0
O2445 O 0.06765 0.67114 0.04658 0.0
O2446 O 0.09145 0.68575 0.04358 0.0
C2447 C 0.0705 0.66094 0.09875 0.0
C2448 C 0.08256 0.70997 0.07803 0.0
C2449 C 0.11243 0.65353 0.0663 0.0
O2450 O 0.06401 0.65921 0.08355 0.0
O2451 O 0.08391 0.67059 0.09956 0.0
O2452 O 0.11454 0.66874 0.07265 0.0
O2453 O 0.09686 0.64981 0.06214 0.0
C2454 C 0.07788 0.67946 0.03642 0.0
O2455 O 0.09687 0.70175 0.08008 0.0
O2456 O 0.06979 0.70085 0.07265 0.0
In2457 In 0.67495 0.58254 0.92489 0.0
O2458 O 0.70079 0.59383 0.91499 0.0
O2459 O 0.70031 0.56722 0.92389 0.0
C2460 C 0.65318 0.61024 0.92693 0.0
C2461 C 0.67803 0.57666 0.95937 0.0
C2462 C 0.66017 0.56619 0.89727 0.0
O2463 O 0.66851 0.61156 0.92068 0.0
O2464 O 0.64904 0.59509 0.93209 0.0
O2465 O 0.6576 0.56101 0.91285 0.0
O2466 O 0.67062 0.57892 0.89584 0.0
C2467 C 0.70925 0.57984 0.9179 0.0
O2468 O 0.67033 0.5657 0.94948 0.0
O2469 O 0.68398 0.59011 0.95175 0.0
In2470 In 0.41012 0.67584 0.4269 0.0
O2471 O 0.42786 0.67117 0.45078 0.0
O2472 O 0.40382 0.68541 0.4538 0.0
C2473 C 0.42473 0.66165 0.39819 0.0
C2474 C 0.41304 0.71007 0.41993 0.0
C2475 C 0.38349 0.65306 0.43091 0.0
O2476 O 0.43142 0.65959 0.41327 0.0
O2477 O 0.41127 0.67127 0.39776 0.0
O2478 O 0.38107 0.66835 0.42484 0.0
O2479 O 0.39917 0.64952 0.43488 0.0
C2480 C 0.41748 0.6793 0.46095 0.0
O2481 O 0.39867 0.70196 0.41781 0.0
O2482 O 0.42581 0.70079 0.42506 0.0
In2483 In 0.08776 0.81916 0.42447 0.0
O2484 O 0.0682 0.82455 0.4469 0.0
O2485 O 0.08961 0.80704 0.45118 0.0
C2486 C 0.07441 0.83512 0.39608 0.0
C2487 C 0.08702 0.78541 0.41468 0.0
C2488 C 0.11487 0.84135 0.42945 0.0
O2489 O 0.06661 0.8355 0.41076 0.0
O2490 O 0.08845 0.82635 0.39582 0.0
O2491 O 0.11665 0.82689 0.4215 0.0
O2492 O 0.09965 0.84425 0.43518 0.0
C2493 C 0.07631 0.8146 0.45747 0.0
O2494 O 0.10082 0.79265 0.42043 0.0
O2495 O 0.07369 0.79525 0.4137 0.0
C2496 C 0.0053 0.16947 0.06543 0.0
C2497 C 0.01495 0.18181 0.07517 0.0
H2498 H 0.9796 0.15973 0.05889 0.0
C2499 C 0.00604 0.19547 0.0837 0.0
H2500 H 0.01191 0.15883 0.05871 0.0
C2501 C 0.98781 0.19604 0.08372 0.0
C2502 C 0.97803 0.18292 0.07528 0.0
H2503 H 0.01317 0.20534 0.09107 0.0
H2504 H 0.98135 0.2063 0.09116 0.0
C2505 C 0.98687 0.17 0.0655 0.0
C2506 C 0.30251 0.00783 0.08429 0.0
C2507 C 0.31485 0.0171 0.07426 0.0
H2508 H 0.29315 0.98289 0.09274 0.0
C2509 C 0.3263 0.0078 0.06319 0.0
H2510 H 0.29333 0.01466 0.09274 0.0
C2511 C 0.3262 0.98938 0.06318 0.0
C2512 C 0.31464 0.98021 0.07426 0.0
H2513 H 0.33591 0.01469 0.05531 0.0
H2514 H 0.33573 0.98238 0.0553 0.0
C2515 C 0.30241 0.98961 0.08429 0.0
C2516 C 0.50839 0.29714 0.07631 0.0
C2517 C 0.51772 0.31184 0.07036 0.0
H2518 H 0.48332 0.28613 0.08217 0.0
C2519 C 0.50849 0.3259 0.06277 0.0
H2520 H 0.5152 0.28602 0.082 0.0
C2521 C 0.49006 0.32597 0.06287 0.0
C2522 C 0.48083 0.31197 0.07056 0.0
H2523 H 0.51543 0.3374 0.0581 0.0
H2524 H 0.48315 0.33752 0.0583 0.0
C2525 C 0.49013 0.2972 0.0764 0.0
C2526 C 0.17105 0.48778 0.06691 0.0
C2527 C 0.18233 0.47876 0.0784 0.0
H2528 H 0.16152 0.51297 0.05843 0.0
C2529 C 0.19422 0.48831 0.08871 0.0
H2530 H 0.16179 0.48067 0.0588 0.0
C2531 C 0.19408 0.50653 0.08849 0.0
C2532 C 0.18204 0.51566 0.07796 0.0
H2533 H 0.20325 0.48171 0.09749 0.0
H2534 H 0.20301 0.51347 0.09712 0.0
C2535 C 0.1709 0.5062 0.0667 0.0
C2536 C 0.00648 0.80137 0.90926 0.0
C2537 C 0.01582 0.81389 0.919 0.0
H2538 H 0.98147 0.79189 0.90111 0.0
C2539 C 0.00658 0.82556 0.9299 0.0
H2540 H 0.01326 0.79203 0.90095 0.0
C2541 C 0.98815 0.82548 0.92999 0.0
C2542 C 0.9789 0.81372 0.91919 0.0
H2543 H 0.01352 0.83531 0.93756 0.0
H2544 H 0.9812 0.83517 0.93772 0.0
C2545 C 0.98825 0.80129 0.90935 0.0
C2546 C 0.69202 0.00839 0.91233 0.0
C2547 C 0.68005 0.01754 0.9229 0.0
H2548 H 0.70097 0.98356 0.90314 0.0
C2549 C 0.66882 0.0081 0.93408 0.0
H2550 H 0.70102 0.01531 0.90378 0.0
C2551 C 0.66879 0.98968 0.93371 0.0
C2552 C 0.67999 0.98065 0.92217 0.0
H2553 H 0.65949 0.0149 0.94237 0.0
H2554 H 0.65944 0.98259 0.94174 0.0
C2555 C 0.69199 0.99017 0.91197 0.0
C2556 C 0.49171 0.67046 0.9299 0.0
C2557 C 0.48204 0.68294 0.92035 0.0
H2558 H 0.5174 0.66046 0.93602 0.0
C2559 C 0.49093 0.69663 0.91186 0.0
H2560 H 0.4851 0.6598 0.93658 0.0
C2561 C 0.50916 0.69706 0.91161 0.0
C2562 C 0.51893 0.68377 0.91979 0.0
H2563 H 0.48378 0.7066 0.90464 0.0
H2564 H 0.5156 0.70732 0.90416 0.0
C2565 C 0.51013 0.67086 0.9296 0.0
C2566 C 0.80214 0.4874 0.91036 0.0
C2567 C 0.81443 0.47843 0.92073 0.0
H2568 H 0.79278 0.51207 0.90117 0.0
C2569 C 0.82579 0.48805 0.93164 0.0
H2570 H 0.79303 0.48033 0.90203 0.0
C2571 C 0.82564 0.50646 0.93114 0.0
C2572 C 0.81413 0.5153 0.91974 0.0
H2573 H 0.83535 0.48139 0.93978 0.0
H2574 H 0.83509 0.51369 0.93892 0.0
C2575 C 0.802 0.5056 0.90986 0.0
C2576 C 0.06305 0.00926 0.16968 0.0
C2577 C 0.07142 0.01802 0.1836 0.0
H2578 H 0.05782 0.9843 0.15755 0.0
C2579 C 0.07843 0.0082 0.19751 0.0
H2580 H 0.05757 0.01657 0.15879 0.0
C2581 C 0.07868 0.98999 0.19673 0.0
C2582 C 0.07183 0.9812 0.1821 0.0
H2583 H 0.08474 0.01461 0.20852 0.0
H2584 H 0.08512 0.98281 0.2072 0.0
C2585 C 0.06322 0.99085 0.16895 0.0
C2586 C 0.48927 0.0848 0.19597 0.0
C2587 C 0.48033 0.07573 0.18268 0.0
H2588 H 0.51396 0.09282 0.20638 0.0
C2589 C 0.48998 0.06568 0.17059 0.0
H2590 H 0.48216 0.09243 0.20564 0.0
C2591 C 0.50841 0.06593 0.17099 0.0
C2592 C 0.51726 0.07619 0.18352 0.0
H2593 H 0.48336 0.05854 0.16023 0.0
H2594 H 0.51566 0.05902 0.16091 0.0
C2595 C 0.5075 0.085 0.19641 0.0
C2596 C 0.43598 0.48989 0.16807 0.0
C2597 C 0.42821 0.48019 0.18169 0.0
H2598 H 0.44046 0.5156 0.15735 0.0
C2599 C 0.42189 0.48898 0.19656 0.0
H2600 H 0.44095 0.48333 0.15648 0.0
C2601 C 0.42173 0.5072 0.19712 0.0
C2602 C 0.42777 0.51701 0.18277 0.0
H2603 H 0.4161 0.48177 0.20736 0.0
H2604 H 0.41576 0.5136 0.20833 0.0
C2605 C 0.43573 0.50829 0.16859 0.0
C2606 C 0.00636 0.4057 0.19371 0.0
C2607 C 0.01587 0.41623 0.18198 0.0
H2608 H 0.98123 0.39702 0.20236 0.0
C2609 C 0.00677 0.42775 0.1708 0.0
H2610 H 0.01301 0.39687 0.20266 0.0
C2611 C 0.98835 0.42783 0.17062 0.0
C2612 C 0.97894 0.41639 0.18162 0.0
H2613 H 0.01384 0.43601 0.16166 0.0
H2614 H 0.98153 0.43617 0.16135 0.0
C2615 C 0.98813 0.40578 0.19353 0.0
C2616 C 0.06318 0.0073 0.82627 0.0
C2617 C 0.07156 0.01641 0.81258 0.0
H2618 H 0.05791 0.98206 0.83775 0.0
C2619 C 0.07848 0.00693 0.7984 0.0
H2620 H 0.05776 0.01434 0.83736 0.0
C2621 C 0.07867 0.9887 0.79868 0.0
C2622 C 0.07184 0.97955 0.8131 0.0
H2623 H 0.0848 0.01362 0.78755 0.0
H2624 H 0.08507 0.98178 0.78804 0.0
C2625 C 0.06329 0.98889 0.82651 0.0
C2626 C 0.48962 0.06755 0.82441 0.0
C2627 C 0.48036 0.07926 0.81357 0.0
H2628 H 0.51498 0.05905 0.83346 0.0
C2629 C 0.48971 0.09012 0.80202 0.0
H2630 H 0.48268 0.05903 0.83342 0.0
C2631 C 0.50795 0.09014 0.80204 0.0
C2632 C 0.5173 0.0793 0.81362 0.0
H2633 H 0.48293 0.09911 0.79333 0.0
H2634 H 0.51472 0.09915 0.79337 0.0
C2635 C 0.50804 0.06757 0.82444 0.0
C2636 C 0.40933 0.48826 0.80261 0.0
C2637 C 0.41967 0.47887 0.8146 0.0
H2638 H 0.40076 0.5133 0.7936 0.0
C2639 C 0.43102 0.48807 0.82587 0.0
H2640 H 0.40064 0.48153 0.79358 0.0
C2641 C 0.43109 0.50649 0.82589 0.0
C2642 C 0.4198 0.51579 0.81463 0.0
H2643 H 0.43915 0.48109 0.83522 0.0
H2644 H 0.43927 0.51339 0.83525 0.0
C2645 C 0.40939 0.50649 0.80262 0.0
C2646 C 0.98818 0.42885 0.82483 0.0
C2647 C 0.97882 0.41761 0.81359 0.0
H2648 H 0.01365 0.43702 0.83391 0.0
C2649 C 0.98803 0.40746 0.80131 0.0
H2650 H 0.98133 0.43682 0.8344 0.0
C2651 C 0.00626 0.40759 0.80101 0.0
C2652 C 0.01574 0.41784 0.81301 0.0
H2653 H 0.98116 0.39888 0.79229 0.0
H2654 H 0.01294 0.39909 0.79178 0.0
C2655 C 0.00661 0.42896 0.82455 0.0
C2656 C 0.19358 0.08549 0.00781 0.0
C2657 C 0.1815 0.07525 0.01719 0.0
H2658 H 0.20273 0.09392 0.9828 0.0
C2659 C 0.17026 0.06385 0.00799 0.0
H2660 H 0.20259 0.09419 0.01455 0.0
C2661 C 0.17034 0.0637 0.98958 0.0
C2662 C 0.18166 0.07493 0.9803 0.0
H2663 H 0.16085 0.0558 0.01497 0.0
H2664 H 0.16099 0.05553 0.98266 0.0
C2665 C 0.19366 0.08533 0.9896 0.0
C2666 C 0.19651 0.41419 0.50754 0.0
C2667 C 0.18263 0.42271 0.5161 0.0
H2668 H 0.20756 0.4061 0.48315 0.0
C2669 C 0.17017 0.43195 0.50611 0.0
H2670 H 0.20646 0.4072 0.51493 0.0
C2671 C 0.17078 0.43128 0.48771 0.0
C2672 C 0.18389 0.42143 0.47925 0.0
H2673 H 0.15935 0.43865 0.51245 0.0
H2674 H 0.16039 0.43745 0.48021 0.0
C2675 C 0.19716 0.41358 0.48932 0.0
C2676 C 0.07114 0.19568 0.48915 0.0
C2677 C 0.06543 0.18044 0.48058 0.0
H2678 H 0.07707 0.20794 0.51358 0.0
C2679 C 0.05836 0.16659 0.49048 0.0
H2680 H 0.0764 0.20664 0.48176 0.0
C2681 C 0.0588 0.1673 0.50887 0.0
C2682 C 0.06627 0.18189 0.51736 0.0
H2683 H 0.05388 0.15471 0.48409 0.0
H2684 H 0.0547 0.15592 0.51633 0.0
C2685 C 0.07149 0.19643 0.50736 0.0
C2686 C 0.30233 0.0888 0.5077 0.0
C2687 C 0.31404 0.07774 0.51661 0.0
H2688 H 0.29337 0.09855 0.48308 0.0
C2689 C 0.32486 0.06637 0.50691 0.0
H2690 H 0.29364 0.09753 0.51481 0.0
C2691 C 0.3247 0.06695 0.4885 0.0
C2692 C 0.31372 0.07891 0.47972 0.0
H2693 H 0.33399 0.05769 0.51351 0.0
H2694 H 0.33369 0.0587 0.48122 0.0
C2695 C 0.30218 0.08939 0.48949 0.0
C2696 C 0.43448 0.82782 0.99006 0.0
C2697 C 0.42651 0.8142 0.98052 0.0
H2698 H 0.43926 0.83867 0.01566 0.0
C2699 C 0.42009 0.79946 0.98947 0.0
H2700 H 0.43953 0.8393 0.98339 0.0
C2701 C 0.42003 0.79905 0.00769 0.0
C2702 C 0.4263 0.81341 0.01735 0.0
H2703 H 0.41414 0.78866 0.98238 0.0
H2704 H 0.41399 0.78795 0.01422 0.0
C2705 C 0.43434 0.82744 0.00847 0.0
C2706 C 0.8252 0.93147 0.98866 0.0
C2707 C 0.81362 0.92014 0.97984 0.0
H2708 H 0.83495 0.94014 0.01371 0.0
C2709 C 0.8014 0.9104 0.98955 0.0
H2710 H 0.83472 0.93915 0.98142 0.0
C2711 C 0.80151 0.91097 0.00776 0.0
C2712 C 0.81386 0.92129 0.01671 0.0
H2713 H 0.79212 0.90176 0.9831 0.0
H2714 H 0.79233 0.90274 0.01485 0.0
C2715 C 0.82532 0.93205 0.00707 0.0
C2716 C 0.06326 0.82654 0.48532 0.0
C2717 C 0.07228 0.81318 0.47632 0.0
H2718 H 0.05734 0.83792 0.51047 0.0
C2719 C 0.07993 0.79946 0.48592 0.0
H2720 H 0.05727 0.83727 0.47818 0.0
C2721 C 0.08005 0.79987 0.50415 0.0
C2722 C 0.07245 0.81398 0.5132 0.0
H2723 H 0.08676 0.78886 0.47934 0.0
H2724 H 0.08692 0.78957 0.51115 0.0
C2725 C 0.06333 0.82692 0.50374 0.0
C2726 C 0.40981 0.69317 0.50749 0.0
C2727 C 0.42015 0.68119 0.5169 0.0
H2728 H 0.40116 0.70207 0.48246 0.0
C2729 C 0.43146 0.66986 0.50773 0.0
H2730 H 0.40117 0.70224 0.51421 0.0
C2731 C 0.43146 0.66975 0.48931 0.0
C2732 C 0.42014 0.68098 0.48001 0.0
H2733 H 0.43958 0.66052 0.51473 0.0
H2734 H 0.43957 0.66034 0.48242 0.0
C2735 C 0.40981 0.69307 0.48928 0.0
C2736 C 0.90709 0.00705 0.80174 0.0
C2737 C 0.91751 0.01643 0.81368 0.0
H2738 H 0.8984 0.98204 0.79282 0.0
C2739 C 0.92886 0.00722 0.82494 0.0
H2740 H 0.8984 0.0138 0.79272 0.0
C2741 C 0.92886 0.9888 0.825 0.0
C2742 C 0.91751 0.97953 0.81379 0.0
H2743 H 0.93705 0.01419 0.83424 0.0
H2744 H 0.93705 0.98189 0.83434 0.0
C2745 C 0.90709 0.98883 0.8018 0.0
C2746 C 0.48726 0.93131 0.82469 0.0
C2747 C 0.47855 0.9218 0.81148 0.0
H2748 H 0.51219 0.93792 0.8362 0.0
C2749 C 0.48844 0.91385 0.79814 0.0
H2750 H 0.47991 0.93754 0.83513 0.0
C2751 C 0.50667 0.91397 0.79882 0.0
C2752 C 0.51544 0.92212 0.81279 0.0
H2753 H 0.48207 0.90663 0.78767 0.0
H2754 H 0.51389 0.9069 0.78882 0.0
C2755 C 0.50568 0.9315 0.82532 0.0
C2756 C 0.55798 0.50662 0.82849 0.0
C2757 C 0.56336 0.51579 0.81342 0.0
H2758 H 0.55539 0.48134 0.84071 0.0
C2759 C 0.56658 0.50645 0.79789 0.0
H2760 H 0.55546 0.51356 0.84063 0.0
C2761 C 0.56653 0.4882 0.79793 0.0
C2762 C 0.56328 0.47894 0.8135 0.0
H2763 H 0.57054 0.51324 0.78604 0.0
H2764 H 0.57045 0.48135 0.7861 0.0
C2765 C 0.55794 0.48821 0.82853 0.0
C2766 C 0.00824 0.56319 0.82584 0.0
C2767 C 0.01705 0.57195 0.8122 0.0
H2768 H 0.9832 0.5572 0.83744 0.0
C2769 C 0.0073 0.57889 0.79821 0.0
H2770 H 0.01549 0.55775 0.83679 0.0
C2771 C 0.98906 0.57866 0.79862 0.0
C2772 C 0.98017 0.57141 0.813 0.0
H2773 H 0.01376 0.5855 0.7874 0.0
H2774 H 0.98192 0.58505 0.78811 0.0
C2775 C 0.98981 0.5629 0.82623 0.0
C2776 C 0.92663 0.00647 0.19689 0.0
C2777 C 0.93035 0.01569 0.1814 0.0
H2778 H 0.92229 0.98147 0.20872 0.0
C2779 C 0.93606 0.0064 0.16653 0.0
H2780 H 0.92242 0.01335 0.2086 0.0
C2781 C 0.93598 0.98799 0.1666 0.0
C2782 C 0.93019 0.97885 0.18154 0.0
H2783 H 0.93898 0.01326 0.15443 0.0
H2784 H 0.93884 0.98103 0.15454 0.0
C2785 C 0.92656 0.98822 0.19696 0.0
C2786 C 0.50677 0.91282 0.19653 0.0
C2787 C 0.51661 0.92093 0.18325 0.0
H2788 H 0.48134 0.90587 0.20593 0.0
C2789 C 0.50787 0.93065 0.17023 0.0
H2790 H 0.51316 0.90543 0.20687 0.0
C2791 C 0.48944 0.93093 0.16971 0.0
C2792 C 0.47972 0.92144 0.18218 0.0
H2793 H 0.51519 0.93701 0.15984 0.0
H2794 H 0.48289 0.93755 0.15896 0.0
C2795 C 0.48854 0.91304 0.19597 0.0
C2796 C 0.56156 0.5057 0.1676 0.0
C2797 C 0.57008 0.5152 0.18093 0.0
H2798 H 0.55618 0.48012 0.15693 0.0
C2799 C 0.5771 0.50618 0.19535 0.0
H2800 H 0.55604 0.51242 0.15635 0.0
C2801 C 0.57707 0.48795 0.19574 0.0
C2802 C 0.57013 0.47832 0.18166 0.0
H2803 H 0.58348 0.51321 0.20593 0.0
H2804 H 0.5835 0.48138 0.2066 0.0
C2805 C 0.56162 0.48728 0.16795 0.0
C2806 C 0.98759 0.57705 0.19695 0.0
C2807 C 0.97791 0.57092 0.18254 0.0
H2808 H 0.01294 0.58271 0.20742 0.0
C2809 C 0.98676 0.56289 0.16849 0.0
H2810 H 0.98108 0.58309 0.20806 0.0
C2811 C 0.00518 0.56263 0.16815 0.0
C2812 C 0.01476 0.57046 0.18183 0.0
H2813 H 0.97955 0.55809 0.15722 0.0
H2814 H 0.01184 0.5576 0.15665 0.0
C2815 C 0.00583 0.57687 0.19657 0.0
C2816 C 0.82607 0.56256 0.48666 0.0
C2817 C 0.8122 0.57099 0.47786 0.0
H2818 H 0.83804 0.55717 0.51166 0.0
C2819 C 0.7982 0.57788 0.48762 0.0
H2820 H 0.83703 0.55717 0.47939 0.0
C2821 C 0.79884 0.57798 0.50584 0.0
C2822 C 0.81344 0.57111 0.51468 0.0
H2823 H 0.78722 0.58424 0.48117 0.0
H2824 H 0.78832 0.58436 0.51298 0.0
C2825 C 0.82667 0.56259 0.50506 0.0
C2826 C 0.91058 0.8011 0.48835 0.0
C2827 C 0.92016 0.81388 0.47921 0.0
H2828 H 0.90238 0.79129 0.5132 0.0
C2829 C 0.93078 0.82567 0.48861 0.0
H2830 H 0.90251 0.79165 0.48143 0.0
C2831 C 0.93071 0.82546 0.50703 0.0
C2832 C 0.92002 0.81345 0.51607 0.0
H2833 H 0.93831 0.83562 0.48181 0.0
H2834 H 0.93818 0.83526 0.51411 0.0
C2835 C 0.91052 0.80089 0.50656 0.0
C2836 C 0.69018 0.90427 0.50533 0.0
C2837 C 0.67972 0.91585 0.51509 0.0
H2838 H 0.698 0.89537 0.48003 0.0
C2839 C 0.66981 0.92868 0.50625 0.0
H2840 H 0.69813 0.89438 0.51175 0.0
C2841 C 0.66973 0.92925 0.48784 0.0
C2842 C 0.67957 0.91701 0.47816 0.0
H2843 H 0.66166 0.93779 0.51351 0.0
H2844 H 0.66151 0.93878 0.48123 0.0
C2845 C 0.69011 0.90485 0.48711 0.0
C2846 C 0.56614 0.19702 0.00703 0.0
C2847 C 0.56332 0.1813 0.01619 0.0
H2848 H 0.56964 0.20918 0.98205 0.0
C2849 C 0.55819 0.16624 0.00687 0.0
H2850 H 0.56989 0.20887 0.01394 0.0
C2851 C 0.55806 0.16641 0.98847 0.0
C2852 C 0.56305 0.18166 0.97936 0.0
H2853 H 0.55598 0.15395 0.01368 0.0
H2854 H 0.55576 0.15425 0.98147 0.0
C2855 C 0.56599 0.1972 0.98878 0.0
C2856 C 0.9194 0.19522 0.50497 0.0
C2857 C 0.92664 0.18086 0.51391 0.0
H2858 H 0.91292 0.20658 0.48024 0.0
C2859 C 0.93542 0.16776 0.50434 0.0
H2860 H 0.9128 0.20564 0.51206 0.0
C2861 C 0.93544 0.16827 0.48593 0.0
C2862 C 0.92675 0.18191 0.47704 0.0
H2863 H 0.94112 0.15657 0.51099 0.0
H2864 H 0.94113 0.15742 0.47871 0.0
C2865 C 0.9195 0.19577 0.48674 0.0
C2866 C 0.56049 0.32771 0.48702 0.0
C2867 C 0.56837 0.31352 0.47824 0.0
H2868 H 0.55546 0.33982 0.51202 0.0
C2869 C 0.57443 0.29913 0.488 0.0
H2870 H 0.55575 0.33896 0.47974 0.0
C2871 C 0.57436 0.29967 0.50623 0.0
C2872 C 0.56814 0.31456 0.51507 0.0
H2873 H 0.58035 0.28792 0.48156 0.0
H2874 H 0.58018 0.28885 0.5134 0.0
C2875 C 0.56035 0.32821 0.50543 0.0
C2876 C 0.00742 0.67038 0.56607 0.0
C2877 C 0.01648 0.68129 0.57788 0.0
H2878 H 0.98222 0.66104 0.5574 0.0
C2879 C 0.00692 0.6926 0.58881 0.0
H2880 H 0.01452 0.66156 0.55748 0.0
C2881 C 0.98869 0.6923 0.58877 0.0
C2882 C 0.97954 0.68069 0.57779 0.0
H2883 H 0.01353 0.70133 0.59789 0.0
H2884 H 0.98176 0.70081 0.59781 0.0
C2885 C 0.98899 0.67009 0.56602 0.0
C2886 C 0.30225 0.50689 0.58836 0.0
C2887 C 0.31441 0.5162 0.57815 0.0
H2888 H 0.29305 0.48193 0.59689 0.0
C2889 C 0.32573 0.50693 0.56692 0.0
H2890 H 0.29317 0.51369 0.59694 0.0
C2891 C 0.32566 0.48852 0.56689 0.0
C2892 C 0.31427 0.47931 0.5781 0.0
H2893 H 0.3352 0.51385 0.55889 0.0
H2894 H 0.33508 0.48155 0.55884 0.0
C2895 C 0.30218 0.48868 0.58833 0.0
C2896 C 0.48746 0.79962 0.5825 0.0
C2897 C 0.47889 0.8134 0.57382 0.0
H2898 H 0.51187 0.78845 0.59038 0.0
C2899 C 0.48886 0.82559 0.56422 0.0
H2900 H 0.48009 0.78987 0.58976 0.0
C2901 C 0.50727 0.8248 0.56461 0.0
C2902 C 0.51577 0.81177 0.57455 0.0
H2903 H 0.4825 0.83631 0.55739 0.0
H2904 H 0.51478 0.83497 0.55811 0.0
C2905 C 0.50568 0.79879 0.58283 0.0
C2906 C 0.19175 0.00733 0.58651 0.0
C2907 C 0.18034 0.01659 0.57541 0.0
H2908 H 0.2005 0.98243 0.59567 0.0
C2909 C 0.16979 0.00725 0.5635 0.0
H2910 H 0.20023 0.01417 0.59566 0.0
C2911 C 0.16994 0.98882 0.56351 0.0
C2912 C 0.18065 0.97966 0.57543 0.0
H2913 H 0.1609 0.01411 0.55478 0.0
H2914 H 0.16116 0.98181 0.5548 0.0
C2915 C 0.19191 0.98912 0.58651 0.0
C2916 C 0.00627 0.29823 0.41805 0.0
C2917 C 0.01509 0.31274 0.42515 0.0
H2918 H 0.98167 0.28702 0.41082 0.0
C2919 C 0.00535 0.32623 0.43309 0.0
H2920 H 0.0135 0.28752 0.4121 0.0
C2921 C 0.98694 0.32596 0.43233 0.0
C2922 C 0.97826 0.31218 0.42366 0.0
H2923 H 0.01192 0.33754 0.43865 0.0
H2924 H 0.97963 0.3371 0.43729 0.0
C2925 C 0.98805 0.29794 0.41734 0.0
C2926 C 0.66927 0.50803 0.43332 0.0
C2927 C 0.6824 0.51694 0.4239 0.0
H2928 H 0.65802 0.48294 0.43975 0.0
C2929 C 0.69584 0.50725 0.41588 0.0
H2930 H 0.65874 0.51523 0.43961 0.0
C2931 C 0.69536 0.48902 0.41586 0.0
C2932 C 0.68148 0.48005 0.42395 0.0
H2933 H 0.70626 0.51376 0.40871 0.0
H2934 H 0.70545 0.48196 0.40874 0.0
C2935 C 0.66884 0.48961 0.43338 0.0
C2936 C 0.50934 0.16986 0.43012 0.0
C2937 C 0.51825 0.18299 0.4207 0.0
H2938 H 0.48423 0.15855 0.43643 0.0
C2939 C 0.50856 0.19637 0.41258 0.0
H2940 H 0.51655 0.15939 0.43648 0.0
C2941 C 0.49032 0.19584 0.41247 0.0
C2942 C 0.48135 0.18196 0.42055 0.0
H2943 H 0.51508 0.2068 0.40544 0.0
H2944 H 0.48326 0.20589 0.4053 0.0
C2945 C 0.4909 0.16936 0.43007 0.0
C2946 C 0.8254 0.00664 0.42874 0.0
C2947 C 0.81518 0.01607 0.4166 0.0
H2948 H 0.8337 0.98114 0.43758 0.0
C2949 C 0.80408 0.00688 0.40513 0.0
H2950 H 0.83404 0.01344 0.43775 0.0
C2951 C 0.80389 0.98867 0.40504 0.0
C2952 C 0.81478 0.97913 0.41641 0.0
H2953 H 0.79587 0.01378 0.39579 0.0
H2954 H 0.79553 0.98205 0.39562 0.0
C2955 C 0.8252 0.98822 0.42864 0.0
C2956 C 0.06128 0.49063 0.66734 0.0
C2957 C 0.06908 0.48087 0.6809 0.0
H2958 H 0.05672 0.51639 0.65677 0.0
C2959 C 0.07536 0.48959 0.69584 0.0
H2960 H 0.05635 0.48413 0.65569 0.0
C2961 C 0.07547 0.50781 0.69651 0.0
C2962 C 0.06941 0.51769 0.68221 0.0
H2963 H 0.08118 0.48233 0.7066 0.0
H2964 H 0.08143 0.51416 0.70776 0.0
C2965 C 0.06147 0.50903 0.66797 0.0
C2966 C 0.49077 0.58111 0.69643 0.0
C2967 C 0.48166 0.57336 0.68244 0.0
H2968 H 0.51564 0.58796 0.70726 0.0
C2969 C 0.49108 0.56413 0.66955 0.0
H2970 H 0.48381 0.58806 0.7067 0.0
C2971 C 0.50951 0.5641 0.66986 0.0
C2972 C 0.51855 0.57325 0.68308 0.0
H2973 H 0.4843 0.55803 0.65865 0.0
H2974 H 0.51661 0.558 0.65916 0.0
C2975 C 0.509 0.58103 0.69676 0.0
C2976 C 0.43265 0.98697 0.66945 0.0
C2977 C 0.42392 0.97802 0.68301 0.0
H2978 H 0.43838 0.0121 0.65794 0.0
C2979 C 0.41676 0.98763 0.69698 0.0
H2980 H 0.43826 0.97982 0.65852 0.0
C2981 C 0.41674 0.00586 0.69659 0.0
C2982 C 0.42396 0.01488 0.68227 0.0
H2983 H 0.41016 0.98106 0.70773 0.0
H2984 H 0.41018 0.01289 0.70707 0.0
C2985 C 0.4327 0.00539 0.6691 0.0
C2986 C 0.98913 0.90823 0.69371 0.0
C2987 C 0.97981 0.91837 0.6815 0.0
H2988 H 0.01412 0.89953 0.70278 0.0
C2989 C 0.98909 0.92937 0.66996 0.0
H2990 H 0.98233 0.89982 0.70294 0.0
C2991 C 0.00751 0.9292 0.66987 0.0
C2992 C 0.01673 0.91803 0.68131 0.0
H2993 H 0.98217 0.93733 0.66044 0.0
H2994 H 0.01448 0.93706 0.66028 0.0
C2995 C 0.00736 0.90805 0.69361 0.0
C2996 C 0.08784 0.48607 0.30393 0.0
C2997 C 0.07699 0.47681 0.31556 0.0
H2998 H 0.09671 0.51099 0.29493 0.0
C2999 C 0.0652 0.48614 0.32625 0.0
H3000 H 0.09688 0.47925 0.29534 0.0
C3001 C 0.06511 0.50457 0.32603 0.0
C3002 C 0.07679 0.51375 0.31509 0.0
H3003 H 0.05667 0.47927 0.33531 0.0
H3004 H 0.05652 0.51158 0.33492 0.0
C3005 C 0.08773 0.5043 0.30369 0.0
C3006 C 0.5059 0.56216 0.32646 0.0
C3007 C 0.51532 0.57125 0.31347 0.0
H3008 H 0.48037 0.55617 0.33691 0.0
C3009 C 0.50623 0.57881 0.29937 0.0
H3010 H 0.51267 0.5562 0.33744 0.0
C3011 C 0.48799 0.57868 0.29899 0.0
C3012 C 0.47843 0.57108 0.31277 0.0
H3013 H 0.51321 0.58564 0.28903 0.0
H3014 H 0.48137 0.58547 0.28839 0.0
C3015 C 0.48747 0.56211 0.32613 0.0
C3016 C 0.42924 0.98756 0.32535 0.0
C3017 C 0.41731 0.97814 0.31489 0.0
H3018 H 0.43771 0.01304 0.33408 0.0
C3019 C 0.40585 0.98735 0.3038 0.0
H3020 H 0.43823 0.98074 0.334 0.0
C3021 C 0.40555 0.00557 0.30385 0.0
C3022 C 0.41671 0.01508 0.31499 0.0
H3023 H 0.39666 0.98046 0.2954 0.0
H3024 H 0.39615 0.0122 0.29548 0.0
C3025 C 0.42894 0.00598 0.3254 0.0
C3026 C 0.98734 0.93221 0.32521 0.0
C3027 C 0.97873 0.9228 0.31187 0.0
H3028 H 0.01222 0.93901 0.33674 0.0
C3029 C 0.98867 0.91524 0.29835 0.0
H3030 H 0.97993 0.93814 0.33579 0.0
C3031 C 0.0069 0.91564 0.29895 0.0
C3032 C 0.0156 0.92369 0.31303 0.0
H3033 H 0.98238 0.90811 0.28778 0.0
H3034 H 0.01419 0.90886 0.2888 0.0
C3035 C 0.00575 0.93268 0.32577 0.0
C3036 C 0.17043 0.56582 0.48817 0.0
C3037 C 0.18114 0.5778 0.4791 0.0
H3038 H 0.16165 0.55669 0.5134 0.0
C3039 C 0.1927 0.58851 0.4886 0.0
H3040 H 0.16143 0.55737 0.48111 0.0
C3041 C 0.19286 0.5881 0.50681 0.0
C3042 C 0.18143 0.57697 0.51601 0.0
H3043 H 0.2013 0.59769 0.48197 0.0
H3044 H 0.20155 0.59699 0.51371 0.0
C3045 C 0.17057 0.56541 0.50658 0.0
C3046 C 0.19256 0.90825 0.00674 0.0
C3047 C 0.18087 0.91898 0.01607 0.0
H3048 H 0.20146 0.89943 0.98177 0.0
C3049 C 0.17002 0.93069 0.00681 0.0
H3050 H 0.20127 0.89927 0.01352 0.0
C3051 C 0.17013 0.93078 0.98839 0.0
C3052 C 0.18109 0.91917 0.97915 0.0
H3053 H 0.16092 0.93913 0.01373 0.0
H3054 H 0.1611 0.93928 0.98143 0.0
C3055 C 0.19267 0.90835 0.98852 0.0
C3056 C 0.06404 0.6697 0.98965 0.0
C3057 C 0.07523 0.6811 0.98044 0.0
H3058 H 0.056 0.66021 0.015 0.0
C3059 C 0.08543 0.69323 0.9898 0.0
H3060 H 0.05603 0.66024 0.98269 0.0
C3061 C 0.08541 0.69322 0.00802 0.0
C3062 C 0.0752 0.68107 0.01734 0.0
H3063 H 0.09398 0.70237 0.98305 0.0
H3064 H 0.09396 0.70234 0.01481 0.0
C3065 C 0.06402 0.66968 0.00807 0.0
C3066 C 0.32601 0.56541 0.00747 0.0
C3067 C 0.31508 0.57687 0.01693 0.0
H3068 H 0.33517 0.55752 0.98197 0.0
C3069 C 0.30349 0.58787 0.00778 0.0
H3070 H 0.33505 0.55678 0.01426 0.0
C3071 C 0.30356 0.58829 0.98957 0.0
C3072 C 0.31522 0.57772 0.98003 0.0
H3073 H 0.29472 0.59666 0.01471 0.0
H3074 H 0.29484 0.59739 0.98297 0.0
C3075 C 0.32609 0.56584 0.98906 0.0
C3076 C 0.40796 0.30337 0.48768 0.0
C3077 C 0.41917 0.31467 0.47844 0.0
H3078 H 0.3986 0.2948 0.51258 0.0
C3079 C 0.43105 0.32523 0.48782 0.0
H3080 H 0.39882 0.29489 0.48083 0.0
C3081 C 0.43092 0.32518 0.50624 0.0
C3082 C 0.41891 0.31457 0.51538 0.0
H3083 H 0.43985 0.33404 0.48097 0.0
H3084 H 0.43962 0.33396 0.51327 0.0
C3085 C 0.40784 0.30331 0.50591 0.0
C3086 C 0.82503 0.42725 0.50617 0.0
C3087 C 0.81444 0.4151 0.51514 0.0
H3088 H 0.83389 0.43652 0.48102 0.0
C3089 C 0.80324 0.40409 0.50553 0.0
H3090 H 0.83376 0.4359 0.51331 0.0
C3091 C 0.80332 0.40444 0.48732 0.0
C3092 C 0.8146 0.4158 0.47823 0.0
H3093 H 0.79475 0.39475 0.51208 0.0
H3094 H 0.79488 0.39535 0.48035 0.0
C3095 C 0.82511 0.4276 0.48776 0.0
C3096 C 0.06658 0.32541 0.98759 0.0
C3097 C 0.07757 0.31386 0.9783 0.0
H3098 H 0.05879 0.33495 0.01299 0.0
C3099 C 0.08758 0.30152 0.98759 0.0
H3100 H 0.0587 0.33502 0.98068 0.0
C3101 C 0.08763 0.30148 0.00581 0.0
C3102 C 0.07767 0.31378 0.01519 0.0
H3103 H 0.09596 0.29226 0.98078 0.0
H3104 H 0.09605 0.2922 0.01254 0.0
C3105 C 0.06663 0.32537 0.006 0.0
C3106 C 0.41964 0.19658 0.98992 0.0
C3107 C 0.42573 0.18167 0.98103 0.0
H3108 H 0.41426 0.20849 0.01465 0.0
C3109 C 0.43383 0.16812 0.99056 0.0
H3110 H 0.41361 0.20733 0.98283 0.0
C3111 C 0.43415 0.16875 0.00896 0.0
C3112 C 0.42645 0.18297 0.01785 0.0
H3113 H 0.43863 0.15651 0.98393 0.0
H3114 H 0.43914 0.15757 0.01618 0.0
C3115 C 0.42006 0.19725 0.00814 0.0
C3116 C 0.93242 0.50926 0.32557 0.0
C3117 C 0.92265 0.51821 0.31271 0.0
H3118 H 0.93919 0.48413 0.33654 0.0
C3119 C 0.91426 0.50855 0.29946 0.0
H3120 H 0.939 0.51643 0.33593 0.0
C3121 C 0.9143 0.49033 0.29987 0.0
C3122 C 0.92279 0.4813 0.31348 0.0
H3123 H 0.90684 0.51509 0.28924 0.0
H3124 H 0.90695 0.4833 0.28992 0.0
C3125 C 0.93251 0.49083 0.32593 0.0
C3126 C 0.49181 0.43305 0.32666 0.0
C3127 C 0.48214 0.42419 0.31369 0.0
H3128 H 0.51753 0.43867 0.33688 0.0
C3129 C 0.491 0.41665 0.29943 0.0
H3130 H 0.48523 0.43898 0.33777 0.0
C3131 C 0.50923 0.41655 0.29888 0.0
C3132 C 0.51902 0.42392 0.31261 0.0
H3133 H 0.48383 0.40999 0.2891 0.0
H3134 H 0.51565 0.40977 0.28815 0.0
C3135 C 0.51024 0.43289 0.32613 0.0
C3136 C 0.55834 0.98847 0.32834 0.0
C3137 C 0.56406 0.97921 0.31345 0.0
H3138 H 0.55564 0.01381 0.34044 0.0
C3139 C 0.56794 0.9885 0.29804 0.0
H3140 H 0.55531 0.98158 0.34039 0.0
C3141 C 0.56813 0.00675 0.29807 0.0
C3142 C 0.56445 0.01607 0.3135 0.0
H3143 H 0.57217 0.98166 0.28631 0.0
H3144 H 0.5725 0.01354 0.28636 0.0
C3145 C 0.55854 0.00689 0.32837 0.0
C3146 C 0.00708 0.06046 0.32734 0.0
C3147 C 0.01655 0.06716 0.313 0.0
H3148 H 0.98156 0.05686 0.33884 0.0
C3149 C 0.00746 0.07224 0.29782 0.0
H3150 H 0.01383 0.0565 0.33922 0.0
C3151 C 0.9892 0.07248 0.29762 0.0
C3152 C 0.97967 0.06762 0.31259 0.0
H3153 H 0.01445 0.07726 0.2865 0.0
H3154 H 0.98257 0.07766 0.28615 0.0
C3155 C 0.98866 0.06068 0.32713 0.0
C3156 C 0.90738 0.48655 0.69316 0.0
C3157 C 0.91797 0.47733 0.68126 0.0
H3158 H 0.89838 0.51144 0.70214 0.0
C3159 C 0.9293 0.48671 0.67013 0.0
H3160 H 0.8987 0.47968 0.70208 0.0
C3161 C 0.92912 0.50513 0.67016 0.0
C3162 C 0.91759 0.51424 0.68132 0.0
H3163 H 0.93762 0.47987 0.66085 0.0
H3164 H 0.93729 0.51217 0.66091 0.0
C3165 C 0.9072 0.50477 0.69319 0.0
C3166 C 0.48969 0.41536 0.69691 0.0
C3167 C 0.48068 0.42252 0.68255 0.0
H3168 H 0.5145 0.40909 0.70823 0.0
C3169 C 0.49014 0.43143 0.66948 0.0
H3170 H 0.48266 0.40867 0.70731 0.0
C3171 C 0.50856 0.43164 0.66998 0.0
C3172 C 0.51754 0.42299 0.68359 0.0
H3173 H 0.48343 0.43709 0.6583 0.0
H3174 H 0.51572 0.43739 0.65913 0.0
C3175 C 0.50792 0.41564 0.69745 0.0
C3176 C 0.56635 0.00755 0.66963 0.0
C3177 C 0.5776 0.01662 0.68112 0.0
H3178 H 0.55803 0.98232 0.66007 0.0
C3179 C 0.58757 0.00711 0.69333 0.0
H3180 H 0.55851 0.01463 0.66012 0.0
C3181 C 0.58729 0.98889 0.6933 0.0
C3182 C 0.57705 0.97971 0.68107 0.0
H3183 H 0.59615 0.01374 0.70253 0.0
H3184 H 0.59568 0.98198 0.70249 0.0
C3185 C 0.56608 0.98913 0.6696 0.0
C3186 C 0.99032 0.0823 0.69646 0.0
C3187 C 0.98148 0.07411 0.68254 0.0
H3188 H 0.01496 0.08967 0.70747 0.0
C3189 C 0.99119 0.0647 0.67 0.0
H3190 H 0.98314 0.08942 0.70646 0.0
C3191 C 0.00961 0.06487 0.67056 0.0
C3192 C 0.01837 0.07442 0.68369 0.0
H3193 H 0.98463 0.05826 0.65916 0.0
H3194 H 0.01691 0.0586 0.66011 0.0
C3195 C 0.00855 0.08242 0.69705 0.0
C3196 C 0.82519 0.06622 0.98878 0.0
C3197 C 0.81506 0.07887 0.97993 0.0
H3198 H 0.8336 0.05626 0.01383 0.0
C3199 C 0.8043 0.09018 0.98967 0.0
H3200 H 0.83357 0.05732 0.98153 0.0
C3201 C 0.8043 0.08957 0.00788 0.0
C3202 C 0.81508 0.07764 0.01686 0.0
H3203 H 0.79616 0.09992 0.98324 0.0
H3204 H 0.79617 0.09886 0.01494 0.0
C3205 C 0.8252 0.06561 0.00719 0.0
C3206 C 0.93543 0.32786 0.00748 0.0
C3207 C 0.92941 0.313 0.0166 0.0
H3208 H 0.93865 0.33999 0.98223 0.0
C3209 C 0.92556 0.29764 0.00723 0.0
H3210 H 0.93846 0.33987 0.01445 0.0
C3211 C 0.92567 0.2977 0.98898 0.0
C3212 C 0.92964 0.31313 0.97976 0.0
H3213 H 0.9211 0.28594 0.01398 0.0
H3214 H 0.92131 0.28605 0.9821 0.0
C3215 C 0.93554 0.32793 0.98907 0.0
C3216 C 0.6911 0.40831 0.00516 0.0
C3217 C 0.68008 0.4195 0.01476 0.0
H3218 H 0.69933 0.39945 0.97999 0.0
C3219 C 0.66969 0.43182 0.00577 0.0
H3220 H 0.69944 0.39883 0.01171 0.0
C3221 C 0.66963 0.43218 0.98735 0.0
C3222 C 0.67996 0.42022 0.97784 0.0
H3223 H 0.66111 0.44063 0.01291 0.0
H3224 H 0.661 0.44125 0.98061 0.0
C3225 C 0.69104 0.40866 0.98695 0.0
C3226 C 0.57249 0.69621 0.4871 0.0
C3227 C 0.56713 0.68127 0.47779 0.0
H3228 H 0.57783 0.70752 0.51215 0.0
C3229 C 0.56002 0.66697 0.48704 0.0
H3230 H 0.57781 0.70751 0.48029 0.0
C3231 C 0.56003 0.66698 0.50546 0.0
C3232 C 0.56715 0.68129 0.51469 0.0
H3233 H 0.55582 0.65529 0.48012 0.0
H3234 H 0.55586 0.65529 0.51239 0.0
C3235 C 0.5725 0.69622 0.50536 0.0
C3236 C 0.90877 0.69298 0.00566 0.0
C3237 C 0.91913 0.68101 0.01506 0.0
H3238 H 0.90011 0.70188 0.98062 0.0
C3239 C 0.93045 0.6697 0.00589 0.0
H3240 H 0.90011 0.70204 0.01238 0.0
C3241 C 0.93044 0.6696 0.98747 0.0
C3242 C 0.91912 0.68082 0.97817 0.0
H3243 H 0.93858 0.66037 0.01288 0.0
H3244 H 0.93857 0.6602 0.98058 0.0
C3245 C 0.90877 0.69289 0.98744 0.0
C3246 C 0.57679 0.79859 0.98739 0.0
C3247 C 0.5699 0.81272 0.9778 0.0
H3248 H 0.58342 0.78844 0.01262 0.0
C3249 C 0.56163 0.82655 0.98681 0.0
H3250 H 0.58303 0.78765 0.98079 0.0
C3251 C 0.56181 0.82696 0.00522 0.0
C3252 C 0.57032 0.8136 0.01466 0.0
H3253 H 0.55625 0.83761 0.97968 0.0
H3254 H 0.55651 0.8383 0.01196 0.0
C3255 C 0.57705 0.79906 0.00562 0.0
C3256 C 0.5075 0.17003 0.56565 0.0
C3257 C 0.51678 0.18191 0.57629 0.0
H3258 H 0.48211 0.16009 0.55829 0.0
C3259 C 0.50747 0.19445 0.58602 0.0
H3260 H 0.51443 0.16026 0.558 0.0
C3261 C 0.48924 0.19435 0.58619 0.0
C3262 C 0.47988 0.18172 0.57663 0.0
H3263 H 0.51427 0.20395 0.59413 0.0
H3264 H 0.48248 0.20378 0.59442 0.0
C3265 C 0.48908 0.16994 0.56581 0.0
C3266 C 0.82586 0.98842 0.5641 0.0
C3267 C 0.81452 0.97944 0.57556 0.0
H3268 H 0.83561 0.01355 0.55573 0.0
C3269 C 0.80278 0.98907 0.58597 0.0
H3270 H 0.83502 0.98126 0.55592 0.0
C3271 C 0.80312 0.00729 0.58587 0.0
C3272 C 0.81521 0.01635 0.57535 0.0
H3273 H 0.79371 0.98251 0.59475 0.0
H3274 H 0.79431 0.01428 0.59457 0.0
C3275 C 0.8262 0.00683 0.56399 0.0
C3276 C 0.00911 0.29825 0.57942 0.0
C3277 C 0.01853 0.31206 0.57173 0.0
H3278 H 0.98402 0.28817 0.58664 0.0
C3279 C 0.00935 0.32539 0.56286 0.0
H3280 H 0.01585 0.28768 0.58615 0.0
C3281 C 0.99092 0.32565 0.56311 0.0
C3282 C 0.98165 0.31262 0.5723 0.0
H3283 H 0.01635 0.3362 0.55684 0.0
H3284 H 0.98404 0.33661 0.55723 0.0
C3285 C 0.99088 0.29855 0.57974 0.0
C3286 C 0.6704 0.50607 0.56374 0.0
C3287 C 0.68064 0.51546 0.57588 0.0
H3288 H 0.66191 0.48062 0.55495 0.0
C3289 C 0.69156 0.50621 0.58748 0.0
H3290 H 0.66188 0.51291 0.55464 0.0
C3291 C 0.69157 0.48798 0.58766 0.0
C3292 C 0.68067 0.4785 0.57624 0.0
H3293 H 0.69977 0.51307 0.59685 0.0
H3294 H 0.69979 0.48131 0.59716 0.0
C3295 C 0.67041 0.48765 0.56392 0.0
C3296 C 0.4893 0.79869 0.41589 0.0
C3297 C 0.48055 0.81304 0.42339 0.0
H3298 H 0.51385 0.78744 0.40861 0.0
C3299 C 0.49035 0.82617 0.43186 0.0
H3300 H 0.48203 0.78825 0.40952 0.0
C3301 C 0.50877 0.82571 0.43131 0.0
C3302 C 0.51741 0.81211 0.42232 0.0
H3303 H 0.48385 0.83735 0.43775 0.0
H3304 H 0.51614 0.83658 0.43676 0.0
C3305 C 0.50752 0.79822 0.41538 0.0
C3306 C 0.16957 0.98928 0.43361 0.0
C3307 C 0.18259 0.98052 0.4239 0.0
H3308 H 0.1582 0.01423 0.44035 0.0
C3309 C 0.19576 0.99038 0.41561 0.0
H3310 H 0.15926 0.98196 0.4401 0.0
C3311 C 0.19508 0.00861 0.41564 0.0
C3312 C 0.18129 0.01742 0.42406 0.0
H3313 H 0.20609 0.984 0.40821 0.0
H3314 H 0.20494 0.0158 0.40834 0.0
C3315 C 0.16894 0.00769 0.43372 0.0
C3316 C 0.9901 0.6689 0.43213 0.0
C3317 C 0.98023 0.68185 0.42346 0.0
H3318 H 0.01594 0.6587 0.43723 0.0
C3319 C 0.98891 0.69613 0.41576 0.0
H3320 H 0.98365 0.65777 0.43818 0.0
C3321 C 0.00714 0.69671 0.41529 0.0
C3322 C 0.0171 0.68298 0.42246 0.0
H3323 H 0.9816 0.70644 0.40923 0.0
H3324 H 0.01341 0.70743 0.40838 0.0
C3325 C 0.00851 0.66945 0.43161 0.0
C3326 C 0.29913 0.48799 0.41396 0.0
C3327 C 0.31266 0.47824 0.42176 0.0
H3328 H 0.28945 0.51335 0.40713 0.0
C3329 C 0.32586 0.48706 0.43117 0.0
H3330 H 0.28865 0.48154 0.40682 0.0
C3331 C 0.3263 0.50548 0.43139 0.0
C3332 C 0.31357 0.51512 0.42214 0.0
H3333 H 0.33645 0.47981 0.43729 0.0
H3334 H 0.33718 0.51209 0.43771 0.0
C3335 C 0.2996 0.50622 0.41411 0.0
C3336 C 0.69353 0.08751 0.50517 0.0
C3337 C 0.68209 0.07695 0.51498 0.0
H3338 H 0.70186 0.09578 0.47982 0.0
C3339 C 0.67109 0.065 0.50622 0.0
H3340 H 0.70234 0.09666 0.51155 0.0
C3341 C 0.67081 0.06449 0.4878 0.0
C3342 C 0.68153 0.07592 0.47808 0.0
H3343 H 0.66216 0.05669 0.51352 0.0
H3344 H 0.66168 0.05579 0.48123 0.0
C3345 C 0.69325 0.087 0.48695 0.0
C3346 C 0.32637 0.93273 0.48616 0.0
C3347 C 0.3125 0.92409 0.47757 0.0
H3348 H 0.33831 0.93875 0.51103 0.0
C3349 C 0.29845 0.91753 0.48748 0.0
H3350 H 0.33736 0.93788 0.47877 0.0
C3351 C 0.29903 0.91795 0.50569 0.0
C3352 C 0.31364 0.92501 0.51438 0.0
H3353 H 0.28747 0.91103 0.48117 0.0
H3354 H 0.28848 0.9118 0.51298 0.0
C3355 C 0.32692 0.93321 0.50457 0.0
C3356 C 0.50498 0.67021 0.06509 0.0
C3357 C 0.51464 0.68279 0.07451 0.0
H3358 H 0.47928 0.66025 0.05896 0.0
C3359 C 0.50576 0.69667 0.08271 0.0
H3360 H 0.51158 0.6594 0.05864 0.0
C3361 C 0.48753 0.6972 0.08281 0.0
C3362 C 0.47775 0.68382 0.07478 0.0
H3363 H 0.51291 0.70671 0.08982 0.0
H3364 H 0.48108 0.70761 0.09005 0.0
C3365 C 0.48656 0.67071 0.06525 0.0
C3366 C 0.80327 0.48831 0.08752 0.0
C3367 C 0.81464 0.47943 0.07607 0.0
H3368 H 0.79451 0.51289 0.0975 0.0
C3369 C 0.82511 0.48917 0.06442 0.0
H3370 H 0.79487 0.48117 0.09649 0.0
C3371 C 0.82489 0.50758 0.06501 0.0
C3372 C 0.81422 0.51634 0.07725 0.0
H3373 H 0.83396 0.48261 0.05545 0.0
H3374 H 0.83358 0.5149 0.05646 0.0
C3375 C 0.80307 0.50652 0.0881 0.0
C3376 C 0.98778 0.80221 0.08839 0.0
C3377 C 0.97859 0.81409 0.07774 0.0
H3378 H 0.01265 0.79323 0.0975 0.0
C3379 C 0.98802 0.82517 0.06641 0.0
H3380 H 0.98087 0.79332 0.09708 0.0
C3381 C 0.00645 0.82512 0.06665 0.0
C3382 C 0.01553 0.81398 0.07823 0.0
H3383 H 0.98121 0.83444 0.05805 0.0
H3384 H 0.01353 0.83434 0.05847 0.0
C3385 C 0.00601 0.80215 0.08863 0.0
C3386 C 0.66924 0.00674 0.064 0.0
C3387 C 0.67895 0.0162 0.07652 0.0
H3388 H 0.66123 0.98122 0.05493 0.0
C3389 C 0.68932 0.00701 0.08866 0.0
H3390 H 0.66116 0.01354 0.05448 0.0
C3391 C 0.68936 0.98879 0.08891 0.0
C3392 C 0.67903 0.97924 0.07704 0.0
H3393 H 0.69712 0.01391 0.09835 0.0
H3394 H 0.69719 0.98219 0.09879 0.0
C3395 C 0.66928 0.98831 0.06426 0.0
C3396 C 0.5087 0.29851 0.9126 0.0
C3397 C 0.51836 0.31191 0.92074 0.0
H3398 H 0.4834 0.2888 0.90559 0.0
C3399 C 0.50945 0.32484 0.93042 0.0
H3400 H 0.51523 0.28823 0.90526 0.0
C3401 C 0.49102 0.32515 0.93063 0.0
C3402 C 0.48146 0.31255 0.92113 0.0
H3403 H 0.51663 0.33531 0.9368 0.0
H3404 H 0.48433 0.33583 0.93721 0.0
C3405 C 0.49046 0.29885 0.91277 0.0
C3406 C 0.17168 0.48912 0.9279 0.0
C3407 C 0.18231 0.47997 0.91592 0.0
H3408 H 0.16284 0.51439 0.93684 0.0
C3409 C 0.19363 0.48942 0.9049 0.0
H3410 H 0.16287 0.4821 0.93657 0.0
C3411 C 0.19361 0.50765 0.90505 0.0
C3412 C 0.18228 0.5169 0.91623 0.0
H3413 H 0.20215 0.48274 0.89568 0.0
H3414 H 0.20211 0.5145 0.89594 0.0
C3415 C 0.17167 0.50753 0.92806 0.0
C3416 C 0.00693 0.16952 0.93056 0.0
C3417 C 0.01659 0.18203 0.92105 0.0
H3418 H 0.98122 0.15972 0.93689 0.0
C3419 C 0.00773 0.19592 0.91286 0.0
H3420 H 0.01351 0.1587 0.93701 0.0
C3421 C 0.9895 0.19657 0.91289 0.0
C3422 C 0.9797 0.18328 0.92103 0.0
H3423 H 0.01488 0.2059 0.90569 0.0
H3424 H 0.98307 0.20701 0.90568 0.0
C3425 C 0.9885 0.17012 0.93052 0.0
C3426 C 0.32626 0.9878 0.93078 0.0
C3427 C 0.31589 0.97861 0.91858 0.0
H3428 H 0.33489 0.01311 0.93985 0.0
C3429 C 0.30486 0.98804 0.90725 0.0
H3430 H 0.33485 0.9808 0.93969 0.0
C3431 C 0.30487 0.00627 0.90735 0.0
C3432 C 0.31592 0.01556 0.91878 0.0
H3433 H 0.29654 0.98134 0.89786 0.0
H3434 H 0.29656 0.01308 0.89803 0.0
C3435 C 0.32628 0.00622 0.93088 0.0
C3436 C 0.69061 0.58652 0.00598 0.0
C3437 C 0.67941 0.57546 0.01553 0.0
H3438 H 0.69906 0.59531 0.98084 0.0
C3439 C 0.66891 0.56328 0.00647 0.0
H3440 H 0.69903 0.59589 0.01258 0.0
C3441 C 0.66893 0.56294 0.98805 0.0
C3442 C 0.67944 0.57479 0.97858 0.0
H3443 H 0.66018 0.55459 0.01355 0.0
H3444 H 0.66022 0.554 0.98125 0.0
C3445 C 0.69063 0.58619 0.98775 0.0
C3446 C 0.32615 0.42949 0.98999 0.0
C3447 C 0.31545 0.41746 0.98096 0.0
H3448 H 0.33523 0.43849 0.01516 0.0
C3449 C 0.30424 0.40644 0.99056 0.0
H3450 H 0.33489 0.43814 0.98287 0.0
C3451 C 0.30445 0.40663 0.00879 0.0
C3452 C 0.31586 0.41785 0.01791 0.0
H3453 H 0.29568 0.39719 0.98399 0.0
H3454 H 0.29603 0.39752 0.01574 0.0
C3455 C 0.32635 0.42969 0.00841 0.0
C3456 C 0.0689 0.23791 0.06833 0.0
C3457 C 0.07857 0.22868 0.08098 0.0
H3458 H 0.06301 0.26287 0.05694 0.0
C3459 C 0.09041 0.23778 0.0918 0.0
H3460 H 0.05961 0.23118 0.05992 0.0
C3461 C 0.09269 0.25589 0.08978 0.0
C3462 C 0.08271 0.26513 0.07735 0.0
H3463 H 0.098 0.23086 0.10164 0.0
H3464 H 0.10198 0.26271 0.09811 0.0
C3465 C 0.07076 0.25602 0.06671 0.0
C3466 C 0.23931 0.09274 0.09049 0.0
C3467 C 0.22997 0.08202 0.07875 0.0
H3468 H 0.26458 0.09931 0.10121 0.0
C3469 C 0.23912 0.06997 0.06827 0.0
H3470 H 0.23247 0.10213 0.09868 0.0
C3471 C 0.25733 0.06877 0.06931 0.0
C3472 C 0.2667 0.07922 0.08122 0.0
H3473 H 0.23221 0.06166 0.05903 0.0
H3474 H 0.26407 0.0594 0.061 0.0
C3475 C 0.25758 0.09113 0.09194 0.0
C3476 C 0.40318 0.2601 0.07547 0.0
C3477 C 0.41561 0.26631 0.08757 0.0
H3478 H 0.39119 0.23758 0.06363 0.0
C3479 C 0.42504 0.25429 0.09785 0.0
H3480 H 0.39574 0.26917 0.06742 0.0
C3481 C 0.42278 0.23627 0.09537 0.0
C3482 C 0.41067 0.23007 0.08294 0.0
H3483 H 0.43476 0.25879 0.10721 0.0
H3484 H 0.4307 0.2272 0.10293 0.0
C3485 C 0.40054 0.24209 0.07335 0.0
C3486 C 0.2586 0.42601 0.07073 0.0
C3487 C 0.26799 0.41405 0.08111 0.0
H3488 H 0.23349 0.43651 0.06389 0.0
C3489 C 0.25891 0.40349 0.09319 0.0
H3490 H 0.2653 0.4342 0.06123 0.0
C3491 C 0.24068 0.40512 0.09502 0.0
C3492 C 0.23132 0.41689 0.08437 0.0
H3493 H 0.26592 0.39417 0.10132 0.0
H3494 H 0.23389 0.39702 0.10453 0.0
C3495 C 0.24041 0.42724 0.07216 0.0
C3496 C 0.06983 0.73906 0.9283 0.0
C3497 C 0.0815 0.72952 0.91774 0.0
H3498 H 0.05942 0.76425 0.9349 0.0
C3499 C 0.09173 0.73837 0.90523 0.0
H3500 H 0.06189 0.73252 0.93812 0.0
C3501 C 0.08998 0.75654 0.90308 0.0
C3502 C 0.07845 0.76606 0.91384 0.0
H3503 H 0.10081 0.73121 0.89696 0.0
H3504 H 0.09777 0.76315 0.8932 0.0
C3505 C 0.0685 0.7572 0.92654 0.0
C3506 C 0.75629 0.07131 0.92941 0.0
C3507 C 0.76507 0.08375 0.91906 0.0
H3508 H 0.73162 0.06018 0.93682 0.0
C3509 C 0.75537 0.09461 0.90777 0.0
H3510 H 0.76348 0.06288 0.93832 0.0
C3511 C 0.73711 0.09277 0.90661 0.0
C3512 C 0.72835 0.08047 0.91716 0.0
H3513 H 0.76191 0.1043 0.89969 0.0
H3514 H 0.72984 0.10108 0.89765 0.0
C3515 C 0.73807 0.06986 0.92865 0.0
C3516 C 0.40734 0.7394 0.90414 0.0
C3517 C 0.41944 0.73002 0.91441 0.0
H3518 H 0.39597 0.7646 0.89847 0.0
C3519 C 0.42986 0.73902 0.92663 0.0
H3520 H 0.39918 0.73266 0.89464 0.0
C3521 C 0.42843 0.75715 0.9284 0.0
C3522 C 0.41618 0.76654 0.91837 0.0
H3523 H 0.43937 0.73208 0.93461 0.0
H3524 H 0.43673 0.7638 0.93785 0.0
C3525 C 0.40549 0.75756 0.90634 0.0
C3526 C 0.7567 0.40583 0.90368 0.0
C3527 C 0.76602 0.41718 0.91481 0.0
H3528 H 0.73139 0.39591 0.89615 0.0
C3529 C 0.75677 0.42783 0.92665 0.0
H3530 H 0.76359 0.39753 0.89442 0.0
C3531 C 0.7385 0.42731 0.92724 0.0
C3532 C 0.72916 0.41579 0.91634 0.0
H3533 H 0.76366 0.43682 0.93525 0.0
H3534 H 0.7317 0.43572 0.93648 0.0
C3535 C 0.73836 0.40492 0.90465 0.0
C3536 C 0.07189 0.09657 0.25578 0.0
C3537 C 0.08156 0.0862 0.26755 0.0
H3538 H 0.06604 0.10215 0.22884 0.0
C3539 C 0.09421 0.0745 0.26103 0.0
H3540 H 0.062 0.10562 0.26051 0.0
C3541 C 0.09683 0.07286 0.24296 0.0
C3542 C 0.08648 0.08252 0.23118 0.0
H3543 H 0.10183 0.0664 0.26989 0.0
H3544 H 0.10635 0.06343 0.23821 0.0
C3545 C 0.07415 0.09455 0.23771 0.0
C3546 C 0.42608 0.06808 0.23865 0.0
C3547 C 0.41655 0.08087 0.22947 0.0
H3548 H 0.43197 0.05662 0.26358 0.0
C3549 C 0.40496 0.09188 0.23864 0.0
H3550 H 0.43519 0.05952 0.23188 0.0
C3551 C 0.40278 0.08992 0.25678 0.0
C3552 C 0.41263 0.07735 0.26597 0.0
H3553 H 0.39748 0.10184 0.23177 0.0
H3554 H 0.39369 0.09842 0.26365 0.0
C3555 C 0.42433 0.0665 0.25678 0.0
C3556 C 0.43098 0.42771 0.25692 0.0
C3557 C 0.4205 0.41566 0.26606 0.0
H3558 H 0.43819 0.43833 0.23197 0.0
C3559 C 0.40867 0.40503 0.25675 0.0
H3560 H 0.4403 0.43596 0.26382 0.0
C3561 C 0.40713 0.40672 0.23851 0.0
C3562 C 0.41787 0.41859 0.22939 0.0
H3563 H 0.40047 0.39564 0.26359 0.0
H3564 H 0.39778 0.39859 0.23152 0.0
C3565 C 0.42987 0.42898 0.23872 0.0
C3566 C 0.06776 0.4228 0.23994 0.0
C3567 C 0.07807 0.41061 0.23077 0.0
H3568 H 0.06096 0.43371 0.26487 0.0
C3569 C 0.08994 0.39998 0.24003 0.0
H3570 H 0.05841 0.43104 0.23309 0.0
C3571 C 0.09172 0.40182 0.25823 0.0
C3572 C 0.08119 0.41387 0.26738 0.0
H3573 H 0.09802 0.3905 0.23318 0.0
H3574 H 0.10112 0.3937 0.26516 0.0
C3575 C 0.06912 0.42423 0.25811 0.0
C3576 C 0.06872 0.92495 0.73797 0.0
C3577 C 0.07927 0.91278 0.72904 0.0
H3578 H 0.06168 0.93621 0.76267 0.0
C3579 C 0.09139 0.90262 0.7385 0.0
H3580 H 0.05919 0.93284 0.73096 0.0
C3581 C 0.09316 0.9049 0.75667 0.0
C3582 C 0.08236 0.91689 0.76557 0.0
H3583 H 0.09965 0.89316 0.73183 0.0
H3584 H 0.10272 0.89713 0.76377 0.0
C3585 C 0.07007 0.92679 0.75609 0.0
C3586 C 0.57072 0.07049 0.75708 0.0
C3587 C 0.58077 0.08299 0.76612 0.0
H3588 H 0.56421 0.05912 0.73227 0.0
C3589 C 0.5926 0.09359 0.75679 0.0
H3590 H 0.56142 0.06225 0.76399 0.0
C3591 C 0.59454 0.09148 0.73863 0.0
C3592 C 0.5842 0.07918 0.7296 0.0
H3593 H 0.60047 0.10332 0.76354 0.0
H3594 H 0.60384 0.09963 0.73163 0.0
C3595 C 0.57224 0.06878 0.73895 0.0
C3596 C 0.42892 0.56935 0.73911 0.0
C3597 C 0.41907 0.58186 0.72987 0.0
H3598 H 0.43511 0.55816 0.76407 0.0
C3599 C 0.40732 0.59273 0.739 0.0
H3600 H 0.43816 0.56092 0.73234 0.0
C3601 C 0.40523 0.59083 0.75716 0.0
C3602 C 0.41534 0.57849 0.76639 0.0
H3603 H 0.3996 0.60246 0.73208 0.0
H3604 H 0.39596 0.59915 0.76401 0.0
C3605 C 0.42726 0.56786 0.75724 0.0
C3606 C 0.90277 0.4026 0.73862 0.0
C3607 C 0.913 0.41491 0.72948 0.0
H3608 H 0.89672 0.39116 0.76368 0.0
C3609 C 0.92464 0.42572 0.73878 0.0
H3610 H 0.89371 0.39414 0.73166 0.0
C3611 C 0.92594 0.42441 0.75696 0.0
C3612 C 0.916 0.41191 0.76612 0.0
H3613 H 0.93255 0.4354 0.73202 0.0
H3614 H 0.935 0.43296 0.76382 0.0
C3615 C 0.9045 0.40089 0.75684 0.0
C3616 C 0.26074 0.39965 0.42029 0.0
C3617 C 0.26658 0.41205 0.40798 0.0
H3618 H 0.23858 0.38748 0.43263 0.0
C3619 C 0.25424 0.42128 0.39789 0.0
H3620 H 0.27006 0.39237 0.4282 0.0
C3621 C 0.23629 0.41884 0.40075 0.0
C3622 C 0.23045 0.40674 0.41336 0.0
H3623 H 0.25846 0.43098 0.38839 0.0
H3624 H 0.22698 0.42661 0.39333 0.0
C3625 C 0.24279 0.39681 0.42277 0.0
C3626 C 0.06499 0.25548 0.4284 0.0
C3627 C 0.07586 0.26446 0.41658 0.0
H3628 H 0.05699 0.23062 0.43866 0.0
C3629 C 0.08755 0.25496 0.40597 0.0
H3630 H 0.05576 0.26253 0.4366 0.0
C3631 C 0.08857 0.23666 0.40748 0.0
C3632 C 0.07745 0.22771 0.41913 0.0
H3633 H 0.09603 0.26168 0.39675 0.0
H3634 H 0.09784 0.22952 0.39941 0.0
C3635 C 0.06559 0.23724 0.42947 0.0
C3636 C 0.23634 0.09318 0.40539 0.0
C3637 C 0.2275 0.08143 0.41651 0.0
H3638 H 0.26119 0.10448 0.3982 0.0
C3639 C 0.23709 0.07171 0.42885 0.0
H3640 H 0.22916 0.1008 0.39577 0.0
C3641 C 0.25528 0.07338 0.42983 0.0
C3642 C 0.26416 0.0852 0.41886 0.0
H3643 H 0.23058 0.06247 0.43748 0.0
H3644 H 0.26239 0.06556 0.43935 0.0
C3645 C 0.25457 0.09528 0.40678 0.0
C3646 C 0.73838 0.90613 0.09207 0.0
C3647 C 0.72898 0.9178 0.08133 0.0
H3648 H 0.7637 0.8957 0.09886 0.0
C3649 C 0.73811 0.92846 0.06943 0.0
H3650 H 0.73157 0.89779 0.10136 0.0
C3651 C 0.75635 0.92766 0.0684 0.0
C3652 C 0.76577 0.91583 0.0789 0.0
H3653 H 0.73116 0.93767 0.0611 0.0
H3654 H 0.76307 0.93609 0.05913 0.0
C3655 C 0.75667 0.90494 0.09065 0.0
C3656 C 0.06957 0.75724 0.56644 0.0
C3657 C 0.08192 0.7668 0.57619 0.0
H3658 H 0.05868 0.73203 0.56068 0.0
C3659 C 0.09281 0.75801 0.58818 0.0
H3660 H 0.06112 0.76374 0.55702 0.0
C3661 C 0.09109 0.73988 0.59062 0.0
C3662 C 0.07891 0.73032 0.58062 0.0
H3663 H 0.10241 0.76518 0.59583 0.0
H3664 H 0.09942 0.7333 0.60008 0.0
C3665 C 0.06826 0.73912 0.56845 0.0
C3666 C 0.42638 0.7575 0.56816 0.0
C3667 C 0.4162 0.76683 0.58033 0.0
H3668 H 0.43346 0.73239 0.55786 0.0
C3669 C 0.40473 0.75766 0.59146 0.0
H3670 H 0.43544 0.76428 0.55954 0.0
C3671 C 0.40329 0.73938 0.59021 0.0
C3672 C 0.41377 0.73009 0.57825 0.0
H3673 H 0.39678 0.76463 0.60097 0.0
H3674 H 0.39424 0.73251 0.59875 0.0
C3675 C 0.42536 0.73928 0.5673 0.0
C3676 C 0.90476 0.75625 0.90199 0.0
C3677 C 0.91651 0.76547 0.91281 0.0
H3678 H 0.8938 0.73111 0.89537 0.0
C3679 C 0.92673 0.75624 0.92502 0.0
H3680 H 0.89676 0.76315 0.89247 0.0
C3681 C 0.92545 0.73806 0.92628 0.0
C3682 C 0.91355 0.72882 0.9157 0.0
H3683 H 0.93598 0.76306 0.93341 0.0
H3684 H 0.93357 0.73125 0.93577 0.0
C3685 C 0.90307 0.73803 0.90365 0.0
C3686 C 0.75523 0.90324 0.9063 0.0
C3687 C 0.7648 0.91388 0.91792 0.0
H3688 H 0.72986 0.89727 0.89547 0.0
C3689 C 0.75597 0.92649 0.92801 0.0
H3690 H 0.76182 0.89344 0.8984 0.0
C3691 C 0.73782 0.92829 0.92674 0.0
C3692 C 0.72823 0.91788 0.91498 0.0
H3693 H 0.76306 0.93476 0.93715 0.0
H3694 H 0.73131 0.93805 0.93478 0.0
C3695 C 0.73705 0.90544 0.90462 0.0
C3696 C 0.57404 0.74221 0.89639 0.0
C3697 C 0.58379 0.73035 0.90659 0.0
H3698 H 0.56738 0.76915 0.89178 0.0
C3699 C 0.59574 0.73679 0.91904 0.0
H3700 H 0.56465 0.73752 0.88679 0.0
C3701 C 0.59763 0.75484 0.92155 0.0
C3702 C 0.58719 0.76666 0.91204 0.0
H3703 H 0.60339 0.72785 0.92703 0.0
H3704 H 0.60665 0.75951 0.93151 0.0
C3705 C 0.57554 0.76024 0.89929 0.0
C3706 C 0.73801 0.56726 0.92655 0.0
C3707 C 0.72838 0.57858 0.91569 0.0
H3708 H 0.76335 0.55758 0.93377 0.0
C3709 C 0.73723 0.58884 0.90319 0.0
H3710 H 0.73148 0.55932 0.93637 0.0
C3711 C 0.75548 0.58753 0.90141 0.0
C3712 C 0.76509 0.5764 0.91252 0.0
H3713 H 0.73003 0.59767 0.89469 0.0
H3714 H 0.76209 0.59537 0.89157 0.0
C3715 C 0.75622 0.56637 0.92515 0.0
C3716 C 0.89896 0.25405 0.07051 0.0
C3717 C 0.90838 0.26613 0.08073 0.0
H3718 H 0.89432 0.22692 0.06467 0.0
C3719 C 0.9193 0.25999 0.09424 0.0
H3720 H 0.89052 0.25849 0.05995 0.0
C3721 C 0.92111 0.242 0.09723 0.0
C3722 C 0.91243 0.2299 0.0864 0.0
H3723 H 0.92666 0.26911 0.10231 0.0
H3724 H 0.92994 0.23756 0.10746 0.0
C3725 C 0.90117 0.23604 0.07316 0.0
C3726 C 0.23881 0.90401 0.09026 0.0
C3727 C 0.22939 0.91456 0.07842 0.0
H3728 H 0.26409 0.89781 0.10117 0.0
C3729 C 0.23844 0.92675 0.06802 0.0
H3730 H 0.23206 0.89452 0.09841 0.0
C3731 C 0.25662 0.92824 0.0692 0.0
C3732 C 0.26606 0.91791 0.08117 0.0
H3733 H 0.23148 0.93494 0.0587 0.0
H3734 H 0.26329 0.93769 0.06092 0.0
C3735 C 0.25704 0.9059 0.09184 0.0
C3736 C 0.57354 0.25314 0.0955 0.0
C3737 C 0.58237 0.26505 0.08457 0.0
H3738 H 0.56772 0.22616 0.10087 0.0
C3739 C 0.5936 0.25865 0.07144 0.0
H3740 H 0.56474 0.25777 0.10566 0.0
C3741 C 0.59562 0.2406 0.06897 0.0
C3742 C 0.58605 0.22871 0.07929 0.0
H3743 H 0.60056 0.26761 0.06288 0.0
H3744 H 0.60402 0.23596 0.05849 0.0
C3745 C 0.57518 0.2351 0.09272 0.0
C3746 C 0.25689 0.56922 0.06877 0.0
C3747 C 0.26632 0.58087 0.07946 0.0
H3748 H 0.23173 0.55898 0.06173 0.0
C3749 C 0.25731 0.5912 0.09177 0.0
H3750 H 0.26356 0.56122 0.05909 0.0
C3751 C 0.23908 0.58961 0.09357 0.0
C3752 C 0.22967 0.57812 0.08267 0.0
H3753 H 0.26437 0.60027 0.10014 0.0
H3754 H 0.23234 0.59749 0.1033 0.0
C3755 C 0.2387 0.56805 0.07019 0.0
C3756 C 0.92486 0.92728 0.75661 0.0
C3757 C 0.91275 0.91686 0.76576 0.0
H3758 H 0.93594 0.93396 0.73174 0.0
C3759 C 0.90246 0.90467 0.75654 0.0
H3760 H 0.93285 0.93686 0.76344 0.0
C3761 C 0.90455 0.9027 0.7384 0.0
C3762 C 0.91651 0.91333 0.72927 0.0
H3763 H 0.89304 0.89652 0.76339 0.0
H3764 H 0.89669 0.89308 0.73149 0.0
C3765 C 0.92654 0.9257 0.73849 0.0
C3766 C 0.59223 0.90568 0.73903 0.0
C3767 C 0.58224 0.91809 0.72978 0.0
H3768 H 0.59784 0.89415 0.76416 0.0
C3769 C 0.57066 0.92907 0.73894 0.0
H3770 H 0.60124 0.89708 0.73218 0.0
C3771 C 0.56914 0.92779 0.7571 0.0
C3772 C 0.57879 0.91515 0.76637 0.0
H3773 H 0.56292 0.93884 0.73207 0.0
H3774 H 0.5601 0.93645 0.76386 0.0
C3775 C 0.59028 0.904 0.75723 0.0
C3776 C 0.59606 0.56923 0.75424 0.0
C3777 C 0.58633 0.57942 0.76611 0.0
H3778 H 0.60141 0.56348 0.72723 0.0
C3779 C 0.57563 0.593 0.75973 0.0
H3780 H 0.60435 0.55864 0.75887 0.0
C3781 C 0.57431 0.59606 0.74171 0.0
C3782 C 0.58329 0.58525 0.7298 0.0
H3783 H 0.56805 0.60105 0.76866 0.0
H3784 H 0.56563 0.60632 0.73707 0.0
C3785 C 0.59435 0.57197 0.7362 0.0
C3786 C 0.90503 0.59081 0.7571 0.0
C3787 C 0.91683 0.57988 0.76611 0.0
H3788 H 0.89346 0.59733 0.7322 0.0
C3789 C 0.92648 0.5673 0.75677 0.0
H3790 H 0.89746 0.60059 0.7641 0.0
C3791 C 0.92463 0.56584 0.73866 0.0
C3792 C 0.91269 0.57656 0.72963 0.0
H3793 H 0.93575 0.55881 0.76343 0.0
H3794 H 0.93235 0.55611 0.73174 0.0
C3795 C 0.90273 0.58894 0.73896 0.0
C3796 C 0.90096 0.06962 0.2407 0.0
C3797 C 0.91097 0.07938 0.22871 0.0
H3798 H 0.89602 0.06376 0.26776 0.0
C3799 C 0.92274 0.09209 0.23498 0.0
H3800 H 0.89186 0.05969 0.23616 0.0
C3801 C 0.92481 0.09471 0.25299 0.0
C3802 C 0.91548 0.08431 0.26499 0.0
H3803 H 0.93057 0.0998 0.22595 0.0
H3804 H 0.93427 0.10431 0.25752 0.0
C3805 C 0.90339 0.0719 0.25873 0.0
C3806 C 0.40582 0.90264 0.23828 0.0
C3807 C 0.41719 0.91393 0.22916 0.0
H3808 H 0.39519 0.89534 0.26334 0.0
C3809 C 0.42708 0.92632 0.23851 0.0
H3810 H 0.3981 0.89297 0.23129 0.0
C3811 C 0.42586 0.92728 0.25671 0.0
C3812 C 0.41434 0.91621 0.26585 0.0
H3813 H 0.43605 0.93506 0.23176 0.0
H3814 H 0.43372 0.93691 0.26363 0.0
C3815 C 0.40417 0.90399 0.25652 0.0
C3816 C 0.57345 0.399 0.25341 0.0
C3817 C 0.58331 0.40935 0.26503 0.0
H3818 H 0.56681 0.39376 0.22657 0.0
C3819 C 0.59542 0.42148 0.25831 0.0
H3820 H 0.56394 0.38963 0.25831 0.0
C3821 C 0.5974 0.42349 0.2402 0.0
C3822 C 0.58689 0.41379 0.2286 0.0
H3823 H 0.60317 0.42958 0.26706 0.0
H3824 H 0.60656 0.4332 0.2353 0.0
C3825 C 0.57503 0.4014 0.23531 0.0
C3826 C 0.08869 0.59072 0.23859 0.0
C3827 C 0.07738 0.57952 0.22931 0.0
H3828 H 0.09966 0.59739 0.26372 0.0
C3829 C 0.068 0.56655 0.23839 0.0
H3830 H 0.09604 0.60082 0.2318 0.0
C3831 C 0.06964 0.56496 0.25652 0.0
C3832 C 0.08109 0.57598 0.26582 0.0
H3833 H 0.0591 0.55784 0.23151 0.0
H3834 H 0.06213 0.55494 0.26324 0.0
C3835 C 0.09077 0.58875 0.25674 0.0
C3836 C 0.75691 0.56849 0.5663 0.0
C3837 C 0.76605 0.58109 0.57612 0.0
H3838 H 0.73197 0.55741 0.55973 0.0
C3839 C 0.75673 0.59232 0.58737 0.0
H3840 H 0.76381 0.55978 0.55743 0.0
C3841 C 0.73849 0.59067 0.58902 0.0
C3842 C 0.72938 0.57819 0.57896 0.0
H3843 H 0.76356 0.60215 0.59504 0.0
H3844 H 0.7315 0.59926 0.59793 0.0
C3845 C 0.73871 0.56722 0.56752 0.0
C3846 C 0.90424 0.73751 0.59205 0.0
C3847 C 0.91651 0.72836 0.58179 0.0
H3848 H 0.89269 0.76255 0.59801 0.0
C3849 C 0.92707 0.73763 0.5699 0.0
H3850 H 0.89597 0.73058 0.60131 0.0
C3851 C 0.92558 0.75578 0.56842 0.0
C3852 C 0.91315 0.76494 0.57844 0.0
H3853 H 0.93672 0.73087 0.56193 0.0
H3854 H 0.93397 0.76261 0.55919 0.0
C3855 C 0.90236 0.7557 0.59016 0.0
C3856 C 0.75658 0.92621 0.5686 0.0
C3857 C 0.76589 0.9163 0.58102 0.0
H3858 H 0.73157 0.93227 0.55739 0.0
C3859 C 0.75683 0.90429 0.59165 0.0
H3860 H 0.76328 0.93564 0.56032 0.0
C3861 C 0.73869 0.90204 0.58965 0.0
C3862 C 0.72939 0.91221 0.57742 0.0
H3863 H 0.76379 0.89651 0.60131 0.0
H3864 H 0.73191 0.89259 0.59783 0.0
C3865 C 0.73846 0.92436 0.56699 0.0
C3866 C 0.25789 0.06755 0.92723 0.0
C3867 C 0.26706 0.07803 0.91521 0.0
H3868 H 0.23293 0.06041 0.93788 0.0
C3869 C 0.25776 0.08997 0.90467 0.0
H3870 H 0.26476 0.05815 0.93541 0.0
C3871 C 0.23952 0.09156 0.90639 0.0
C3872 C 0.23037 0.08081 0.91823 0.0
H3873 H 0.26461 0.09818 0.8953 0.0
H3874 H 0.23256 0.10096 0.8983 0.0
C3875 C 0.23969 0.06875 0.92856 0.0
C3876 C 0.92496 0.25327 0.39649 0.0
C3877 C 0.91467 0.26509 0.40617 0.0
H3878 H 0.93189 0.22634 0.39216 0.0
C3879 C 0.90207 0.25859 0.41793 0.0
H3880 H 0.93485 0.258 0.38744 0.0
C3881 C 0.90008 0.24052 0.4203 0.0
C3882 C 0.91102 0.22874 0.41133 0.0
H3883 H 0.89399 0.26749 0.42553 0.0
H3884 H 0.89054 0.23582 0.42973 0.0
C3885 C 0.92333 0.23522 0.39925 0.0
C3886 C 0.57566 0.26003 0.40073 0.0
C3887 C 0.58698 0.26643 0.41378 0.0
H3888 H 0.56491 0.23733 0.38808 0.0
C3889 C 0.59692 0.25457 0.42377 0.0
H3890 H 0.56789 0.26897 0.39286 0.0
C3891 C 0.59487 0.23651 0.42136 0.0
C3892 C 0.58326 0.2301 0.40857 0.0
H3893 H 0.60566 0.25922 0.43398 0.0
H3894 H 0.60214 0.22755 0.42968 0.0
C3895 C 0.57401 0.24199 0.39796 0.0
C3896 C 0.23869 0.59161 0.5917 0.0
C3897 C 0.22985 0.58135 0.57919 0.0
H3898 H 0.26349 0.59777 0.60368 0.0
C3899 C 0.23942 0.5697 0.56865 0.0
H3900 H 0.23152 0.60067 0.59997 0.0
C3901 C 0.25758 0.56844 0.57039 0.0
C3902 C 0.26644 0.57845 0.58305 0.0
H3903 H 0.2329 0.56174 0.55883 0.0
H3904 H 0.26465 0.55939 0.56201 0.0
C3905 C 0.25688 0.58994 0.59382 0.0
C3906 C 0.23888 0.92857 0.56784 0.0
C3907 C 0.22982 0.91767 0.57957 0.0
H3908 H 0.26376 0.9362 0.55735 0.0
C3909 C 0.23922 0.90551 0.58975 0.0
H3910 H 0.23192 0.93814 0.55994 0.0
C3911 C 0.25746 0.9041 0.58794 0.0
C3912 C 0.2665 0.91525 0.57639 0.0
H3913 H 0.23245 0.89698 0.59889 0.0
H3914 H 0.26452 0.89451 0.59572 0.0
C3915 C 0.25708 0.92755 0.56645 0.0
C3916 C 0.75335 0.59726 0.42351 0.0
C3917 C 0.76517 0.58737 0.41342 0.0
H3918 H 0.72639 0.60196 0.43008 0.0
C3919 C 0.75868 0.57562 0.40081 0.0
H3920 H 0.75809 0.60632 0.43339 0.0
C3921 C 0.7406 0.57349 0.3986 0.0
C3922 C 0.7288 0.58267 0.40935 0.0
H3923 H 0.76758 0.56787 0.39289 0.0
H3924 H 0.73588 0.56405 0.38906 0.0
C3925 C 0.73528 0.59472 0.42167 0.0
C3926 C 0.40587 0.257 0.40316 0.0
C3927 C 0.41607 0.26619 0.41547 0.0
H3928 H 0.39992 0.23192 0.39169 0.0
C3929 C 0.42791 0.25695 0.42612 0.0
H3930 H 0.39666 0.2639 0.39481 0.0
C3931 C 0.42936 0.23878 0.42473 0.0
C3932 C 0.41937 0.22958 0.41229 0.0
H3933 H 0.43583 0.26374 0.43579 0.0
H3934 H 0.43852 0.23195 0.4332 0.0
C3935 C 0.40774 0.2388 0.40137 0.0
C3936 C 0.75613 0.92759 0.42478 0.0
C3937 C 0.76514 0.91745 0.41233 0.0
H3938 H 0.73128 0.93458 0.43581 0.0
C3939 C 0.75566 0.90607 0.40136 0.0
H3940 H 0.76314 0.93656 0.4333 0.0
C3941 C 0.73742 0.90464 0.40307 0.0
C3942 C 0.72843 0.915 0.41538 0.0
H3943 H 0.76237 0.89814 0.39166 0.0
H3944 H 0.73033 0.89563 0.39466 0.0
C3945 C 0.73792 0.92655 0.42613 0.0
C3946 C 0.07504 0.59515 0.73561 0.0
C3947 C 0.0869 0.58247 0.72944 0.0
H3948 H 0.06337 0.60738 0.75808 0.0
C3949 C 0.09691 0.5728 0.74149 0.0
H3950 H 0.06721 0.60278 0.72651 0.0
C3951 C 0.0944 0.5751 0.7595 0.0
C3952 C 0.08222 0.58747 0.76567 0.0
H3953 H 0.10607 0.56288 0.73702 0.0
H3954 H 0.10174 0.567 0.76859 0.0
C3955 C 0.07291 0.59782 0.75361 0.0
C3956 C 0.4005 0.91955 0.7589 0.0
C3957 C 0.41278 0.90729 0.76509 0.0
H3958 H 0.38873 0.93168 0.73641 0.0
C3959 C 0.4222 0.89703 0.75304 0.0
H3960 H 0.39308 0.92758 0.76799 0.0
C3961 C 0.42007 0.8997 0.73503 0.0
C3962 C 0.4081 0.91228 0.72885 0.0
H3963 H 0.43182 0.88757 0.75753 0.0
H3964 H 0.428 0.89217 0.72595 0.0
C3965 C 0.39797 0.92184 0.7409 0.0
C3966 C 0.59051 0.58889 0.23799 0.0
C3967 C 0.57974 0.57707 0.22881 0.0
H3968 H 0.59712 0.59993 0.2631 0.0
C3969 C 0.56763 0.56677 0.23808 0.0
H3970 H 0.59994 0.59694 0.23105 0.0
C3971 C 0.56644 0.56805 0.25628 0.0
C3972 C 0.57696 0.58003 0.26548 0.0
H3973 H 0.55928 0.55747 0.23129 0.0
H3974 H 0.55705 0.55986 0.26313 0.0
C3975 C 0.58889 0.59059 0.25622 0.0
C3976 C 0.9226 0.8984 0.25268 0.0
C3977 C 0.91363 0.90899 0.26479 0.0
H3978 H 0.92827 0.8935 0.22557 0.0
C3979 C 0.90202 0.92192 0.25867 0.0
H3980 H 0.93169 0.8884 0.25711 0.0
C3981 C 0.89975 0.92455 0.24068 0.0
C3982 C 0.90944 0.91461 0.22858 0.0
H3983 H 0.89495 0.93022 0.26779 0.0
H3984 H 0.89104 0.93489 0.23625 0.0
C3985 C 0.9207 0.90136 0.23469 0.0
C3986 C 0.25741 0.90456 0.90375 0.0
C3987 C 0.26667 0.91642 0.9144 0.0
H3988 H 0.23222 0.89371 0.89713 0.0
C3989 C 0.25744 0.92697 0.92632 0.0
H3990 H 0.2643 0.89631 0.89445 0.0
C3991 C 0.23922 0.92588 0.92745 0.0
C3992 C 0.22993 0.91387 0.91704 0.0
H3993 H 0.26429 0.93632 0.93457 0.0
H3994 H 0.23241 0.93425 0.93672 0.0
C3995 C 0.23915 0.90308 0.90528 0.0
C3996 C 0.25789 0.59421 0.90524 0.0
C3997 C 0.267 0.58367 0.9173 0.0
H3998 H 0.23291 0.60028 0.89358 0.0
C3999 C 0.25773 0.57143 0.92744 0.0
H4000 H 0.26483 0.60373 0.89728 0.0
C4001 C 0.23959 0.56985 0.92572 0.0
C4002 C 0.23047 0.58012 0.91347 0.0
H4003 H 0.26446 0.56324 0.93692 0.0
H4004 H 0.23275 0.56033 0.93377 0.0
C4005 C 0.23973 0.59223 0.90311 0.0
C4006 C 0.75606 0.40014 0.58894 0.0
C4007 C 0.76555 0.41057 0.57709 0.0
H4008 H 0.73078 0.3944 0.60008 0.0
C4009 C 0.75663 0.42296 0.56678 0.0
H4010 H 0.76271 0.39051 0.59701 0.0
C4011 C 0.73849 0.4248 0.56814 0.0
C4012 C 0.72899 0.41464 0.5802 0.0
H4013 H 0.76367 0.43107 0.55746 0.0
H4014 H 0.73193 0.43443 0.55998 0.0
C4015 C 0.73789 0.40238 0.5907 0.0
C4016 C 0.75697 0.42587 0.42764 0.0
C4017 C 0.76573 0.41395 0.41668 0.0
H4018 H 0.73231 0.43668 0.43558 0.0
C4019 C 0.75602 0.40373 0.40481 0.0
H4020 H 0.76417 0.43378 0.437 0.0
C4021 C 0.73778 0.40569 0.40371 0.0
C4022 C 0.72904 0.41745 0.41489 0.0
H4023 H 0.76255 0.39443 0.39626 0.0
H4024 H 0.73049 0.39789 0.39432 0.0
C4025 C 0.73876 0.42742 0.42693 0.0
C4026 C 0.75694 0.08925 0.4019 0.0
C4027 C 0.76639 0.0777 0.41271 0.0
H4028 H 0.73159 0.09967 0.3952 0.0
C4029 C 0.75733 0.0672 0.42482 0.0
H4030 H 0.76369 0.09745 0.39245 0.0
C4031 C 0.7391 0.06808 0.426 0.0
C4032 C 0.72963 0.07981 0.41544 0.0
H4033 H 0.76432 0.05808 0.4332 0.0
H4034 H 0.73244 0.05978 0.43544 0.0
C4035 C 0.73866 0.09052 0.40346 0.0
C4036 C 0.25596 0.4063 0.59369 0.0
C4037 C 0.26558 0.41808 0.58331 0.0
H4038 H 0.2305 0.39569 0.59961 0.0
C4039 C 0.25675 0.42887 0.57128 0.0
H4040 H 0.26256 0.39788 0.60306 0.0
C4041 C 0.23855 0.42804 0.56974 0.0
C4042 C 0.22891 0.41603 0.57981 0.0
H4043 H 0.26389 0.43817 0.56324 0.0
H4044 H 0.23206 0.43653 0.56036 0.0
C4045 C 0.23772 0.40506 0.59173 0.0
C4046 C 0.59262 0.75786 0.57387 0.0
C4047 C 0.58063 0.76389 0.58649 0.0
H4048 H 0.60383 0.73554 0.56094 0.0
C4049 C 0.57108 0.7517 0.59645 0.0
H4050 H 0.60013 0.76705 0.56605 0.0
C4051 C 0.57283 0.73374 0.59318 0.0
C4052 C 0.58455 0.72772 0.5803 0.0
H4053 H 0.56167 0.75607 0.60617 0.0
H4054 H 0.56485 0.72457 0.60056 0.0
C4055 C 0.59477 0.73988 0.57099 0.0
C4056 C 0.23832 0.09046 0.59144 0.0
C4057 C 0.22928 0.0785 0.58072 0.0
H4058 H 0.26336 0.10145 0.5984 0.0
C4059 C 0.23874 0.06785 0.56906 0.0
H4060 H 0.23125 0.09878 0.60054 0.0
C4061 C 0.25698 0.06898 0.56824 0.0
C4062 C 0.26604 0.08112 0.57871 0.0
H4063 H 0.23207 0.05843 0.56077 0.0
H4064 H 0.26396 0.06058 0.55915 0.0
C4065 C 0.2566 0.09197 0.59023 0.0
C4066 C 0.92671 0.42662 0.23802 0.0
C4067 C 0.91646 0.41396 0.22945 0.0
H4068 H 0.93384 0.43841 0.26247 0.0
C4069 C 0.90489 0.40349 0.23926 0.0
H4070 H 0.93582 0.43476 0.23074 0.0
C4071 C 0.90344 0.4059 0.25742 0.0
C4072 C 0.91398 0.41836 0.26598 0.0
H4073 H 0.89688 0.39364 0.23288 0.0
H4074 H 0.89434 0.39784 0.2648 0.0
C4075 C 0.92567 0.42863 0.25616 0.0
C4076 C 0.5956 0.07024 0.25452 0.0
C4077 C 0.58602 0.08035 0.26657 0.0
H4078 H 0.60065 0.06471 0.2274 0.0
C4079 C 0.57525 0.09398 0.26042 0.0
H4080 H 0.60393 0.05961 0.25897 0.0
C4081 C 0.57375 0.09719 0.24244 0.0
C4082 C 0.58259 0.08648 0.23035 0.0
H4083 H 0.56779 0.10197 0.26951 0.0
H4084 H 0.56503 0.10751 0.23798 0.0
C4085 C 0.59369 0.07312 0.23651 0.0
C4086 C 0.40459 0.40379 0.75706 0.0
C4087 C 0.41464 0.4162 0.76627 0.0
H4088 H 0.39901 0.39211 0.73198 0.0
C4089 C 0.42648 0.42688 0.75709 0.0
H4090 H 0.39538 0.39541 0.76392 0.0
C4091 C 0.42813 0.42538 0.73896 0.0
C4092 C 0.41835 0.41281 0.72973 0.0
H4093 H 0.43428 0.43663 0.76391 0.0
H4094 H 0.43731 0.43387 0.73218 0.0
C4095 C 0.40668 0.40189 0.73889 0.0
C4096 C 0.07605 0.0948 0.76055 0.0
C4097 C 0.08783 0.08207 0.76678 0.0
H4098 H 0.06473 0.10723 0.73801 0.0
C4099 C 0.09801 0.07249 0.7548 0.0
H4100 H 0.06809 0.10234 0.76959 0.0
C4101 C 0.09576 0.07494 0.73678 0.0
C4102 C 0.08368 0.08738 0.73055 0.0
H4103 H 0.10711 0.06254 0.75934 0.0
H4104 H 0.10322 0.06692 0.72773 0.0
C4105 C 0.07419 0.09763 0.74255 0.0
C4106 C 0.75644 0.06811 0.06785 0.0
C4107 C 0.76559 0.08008 0.07845 0.0
H4108 H 0.73145 0.05789 0.06016 0.0
C4109 C 0.75619 0.09098 0.08995 0.0
H4110 H 0.76338 0.05966 0.05876 0.0
C4111 C 0.73788 0.0897 0.09102 0.0
C4112 C 0.72875 0.0779 0.08019 0.0
H4113 H 0.763 0.10032 0.09823 0.0
H4114 H 0.73086 0.09806 0.10012 0.0
C4115 C 0.73818 0.0672 0.06855 0.0
C4116 C 0.73886 0.42636 0.06612 0.0
C4117 C 0.72967 0.41417 0.07641 0.0
H4118 H 0.76384 0.43704 0.05911 0.0
C4119 C 0.73898 0.40329 0.08803 0.0
H4120 H 0.73198 0.43479 0.05697 0.0
C4121 C 0.75723 0.40486 0.08955 0.0
C4122 C 0.76639 0.41692 0.07905 0.0
H4123 H 0.73212 0.39379 0.09608 0.0
H4124 H 0.76419 0.39654 0.09875 0.0
C4125 C 0.75707 0.42755 0.06725 0.0
C4126 C 0.23903 0.57033 0.42819 0.0
C4127 C 0.23003 0.58215 0.41731 0.0
H4128 H 0.26383 0.55945 0.43555 0.0
C4129 C 0.23943 0.59215 0.40503 0.0
H4130 H 0.23204 0.56258 0.43784 0.0
C4131 C 0.25762 0.59002 0.40341 0.0
C4132 C 0.2666 0.57834 0.41448 0.0
H4133 H 0.2327 0.60134 0.39653 0.0
H4134 H 0.26467 0.59763 0.39369 0.0
C4135 C 0.25719 0.56863 0.42696 0.0
C4136 C 0.56822 0.2574 0.56726 0.0
C4137 C 0.58026 0.26713 0.57721 0.0
H4138 H 0.55804 0.23201 0.56105 0.0
C4139 C 0.59137 0.25844 0.58908 0.0
H4140 H 0.55961 0.26382 0.55793 0.0
C4141 C 0.59016 0.24023 0.5912 0.0
C4142 C 0.57827 0.23051 0.58101 0.0
H4143 H 0.60076 0.26575 0.59687 0.0
H4144 H 0.59863 0.23372 0.60058 0.0
C4145 C 0.56741 0.23922 0.56895 0.0
C4146 C 0.75893 0.09179 0.59063 0.0
C4147 C 0.768 0.07961 0.58019 0.0
H4148 H 0.73394 0.10332 0.59687 0.0
C4149 C 0.75863 0.06921 0.56823 0.0
H4150 H 0.76593 0.09993 0.59995 0.0
C4151 C 0.74046 0.07075 0.56687 0.0
C4152 C 0.73138 0.08307 0.57708 0.0
H4153 H 0.76533 0.05963 0.56012 0.0
H4154 H 0.73355 0.06247 0.5576 0.0
C4155 C 0.74072 0.09373 0.58887 0.0
C4156 C 0.92933 0.23748 0.5666 0.0
C4157 C 0.91729 0.22797 0.57675 0.0
H4158 H 0.9399 0.26268 0.56025 0.0
C4159 C 0.90664 0.23684 0.5889 0.0
H4160 H 0.93759 0.23092 0.55706 0.0
C4161 C 0.9083 0.25502 0.59106 0.0
C4162 C 0.92016 0.26452 0.58064 0.0
H4163 H 0.89727 0.22971 0.59685 0.0
H4164 H 0.90017 0.26167 0.60063 0.0
C4165 C 0.93056 0.25563 0.56834 0.0
C4166 C 0.59501 0.7399 0.42211 0.0
C4167 C 0.58435 0.72811 0.41278 0.0
H4168 H 0.60104 0.76686 0.42742 0.0
C4169 C 0.57247 0.73459 0.40028 0.0
H4170 H 0.60422 0.7352 0.43187 0.0
C4171 C 0.571 0.75264 0.39741 0.0
C4172 C 0.58103 0.76446 0.40737 0.0
H4173 H 0.56415 0.72572 0.39291 0.0
H4174 H 0.56146 0.75737 0.38797 0.0
C4175 C 0.59317 0.75796 0.41961 0.0
C4176 C 0.92598 0.7566 0.42876 0.0
C4177 C 0.91416 0.76561 0.41788 0.0
H4178 H 0.93665 0.73178 0.43633 0.0
C4179 C 0.90394 0.75618 0.4058 0.0
H4180 H 0.9339 0.7636 0.43828 0.0
C4181 C 0.90584 0.73796 0.40437 0.0
C4182 C 0.91752 0.72897 0.41545 0.0
H4183 H 0.89474 0.76291 0.39729 0.0
H4184 H 0.89806 0.73088 0.3948 0.0
C4185 C 0.92745 0.73842 0.42774 0.0
C4186 C 0.90353 0.09112 0.75559 0.0
C4187 C 0.91313 0.07846 0.76493 0.0
H4188 H 0.89866 0.10301 0.73047 0.0
C4189 C 0.92482 0.06747 0.75591 0.0
H4190 H 0.89445 0.09973 0.76234 0.0
C4191 C 0.9268 0.06897 0.73781 0.0
C4192 C 0.91753 0.08184 0.72847 0.0
H4193 H 0.93228 0.05754 0.76283 0.0
H4194 H 0.9359 0.06028 0.73117 0.0
C4195 C 0.90595 0.09301 0.73746 0.0
C4196 C 0.57344 0.39866 0.74205 0.0
C4197 C 0.58247 0.4094 0.73013 0.0
H4198 H 0.56728 0.39366 0.76903 0.0
C4199 C 0.59374 0.42252 0.73649 0.0
H4200 H 0.56459 0.38853 0.73743 0.0
C4201 C 0.5956 0.42517 0.75453 0.0
C4202 C 0.58581 0.41507 0.76642 0.0
H4203 H 0.60085 0.43094 0.72751 0.0
H4204 H 0.60404 0.43564 0.75913 0.0
C4205 C 0.57491 0.40164 0.76007 0.0
C4206 C 0.5738 0.90124 0.26027 0.0
C4207 C 0.58486 0.9146 0.2665 0.0
H4208 H 0.56338 0.88801 0.23774 0.0
C4209 C 0.59477 0.92447 0.25452 0.0
H4210 H 0.56608 0.89344 0.2693 0.0
C4211 C 0.5929 0.92166 0.2365 0.0
C4212 C 0.5815 0.90859 0.23025 0.0
H4213 H 0.60333 0.93488 0.25903 0.0
H4214 H 0.60012 0.9299 0.22744 0.0
C4215 C 0.57233 0.89809 0.24227 0.0
C4216 C 0.9226 0.59555 0.25943 0.0
C4217 C 0.90992 0.58386 0.26591 0.0
H4218 H 0.9346 0.60683 0.23663 0.0
C4219 C 0.89889 0.57499 0.25413 0.0
H4220 H 0.93122 0.60255 0.26832 0.0
C4221 C 0.90113 0.57708 0.23607 0.0
C4222 C 0.91405 0.58848 0.22958 0.0
H4223 H 0.88908 0.56584 0.25884 0.0
H4224 H 0.89295 0.56958 0.22717 0.0
C4225 C 0.92446 0.59805 0.24137 0.0
C4226 C 0.57462 0.25338 0.89853 0.0
C4227 C 0.58336 0.26541 0.9094 0.0
H4228 H 0.56857 0.22635 0.89363 0.0
C4229 C 0.59421 0.25918 0.92293 0.0
H4230 H 0.56609 0.25789 0.88808 0.0
C4231 C 0.59594 0.24117 0.92584 0.0
C4232 C 0.58644 0.22918 0.91557 0.0
H4233 H 0.60108 0.26825 0.93146 0.0
H4234 H 0.60406 0.23667 0.93661 0.0
C4235 C 0.57596 0.23539 0.90175 0.0
C4236 C 0.58953 0.73883 0.09126 0.0
C4237 C 0.57761 0.72941 0.0808 0.0
H4238 H 0.60077 0.76407 0.09705 0.0
C4239 C 0.56745 0.73837 0.06833 0.0
H4240 H 0.59749 0.73214 0.10095 0.0
C4241 C 0.56891 0.75649 0.06652 0.0
C4242 C 0.58094 0.76593 0.07676 0.0
H4243 H 0.55809 0.73139 0.06021 0.0
H4244 H 0.56078 0.7631 0.0569 0.0
C4245 C 0.59141 0.75699 0.08901 0.0
C4246 C 0.90415 0.75685 0.09185 0.0
C4247 C 0.91556 0.76638 0.08098 0.0
H4248 H 0.89354 0.7315 0.09821 0.0
C4249 C 0.92545 0.75751 0.06824 0.0
H4250 H 0.89641 0.76347 0.10177 0.0
C4251 C 0.92423 0.73936 0.06659 0.0
C4252 C 0.91272 0.7298 0.0773 0.0
H4253 H 0.93445 0.76458 0.05978 0.0
H4254 H 0.93214 0.73281 0.05675 0.0
C4255 C 0.9025 0.73866 0.08982 0.0
C4256 C 0.40632 0.75669 0.40414 0.0
C4257 C 0.41803 0.7658 0.41509 0.0
H4258 H 0.39518 0.73166 0.39741 0.0
C4259 C 0.428 0.75648 0.42744 0.0
H4260 H 0.39851 0.76367 0.39452 0.0
C4261 C 0.42652 0.73831 0.42869 0.0
C4262 C 0.41466 0.72918 0.41797 0.0
H4263 H 0.43722 0.76321 0.43593 0.0
H4264 H 0.43447 0.73143 0.43827 0.0
C4265 C 0.40441 0.73848 0.4058 0.0
C4266 C 0.25905 0.91997 0.40075 0.0
C4267 C 0.26522 0.90816 0.41348 0.0
H4268 H 0.23658 0.93214 0.38897 0.0
C4269 C 0.25314 0.89882 0.42376 0.0
H4270 H 0.26816 0.92731 0.39267 0.0
C4271 C 0.23516 0.90195 0.42199 0.0
C4272 C 0.229 0.91405 0.40954 0.0
H4273 H 0.25763 0.88974 0.43375 0.0
H4274 H 0.22608 0.8951 0.43053 0.0
C4275 C 0.24104 0.92269 0.39861 0.0
C4276 C 0.07367 0.76016 0.39871 0.0
C4277 C 0.08607 0.76654 0.41076 0.0
H4278 H 0.06174 0.73745 0.38713 0.0
C4279 C 0.09668 0.75465 0.41999 0.0
H4280 H 0.06537 0.76912 0.39143 0.0
C4281 C 0.09429 0.7366 0.41789 0.0
C4282 C 0.08163 0.73021 0.40612 0.0
H4283 H 0.10627 0.75928 0.42942 0.0
H4284 H 0.10213 0.72763 0.42566 0.0
C4285 C 0.07166 0.7421 0.3962 0.0
C4286 C 0.42729 0.23846 0.56982 0.0
C4287 C 0.41738 0.22954 0.58251 0.0
H4288 H 0.43375 0.26317 0.55822 0.0
C4289 C 0.40581 0.239 0.59329 0.0
H4290 H 0.4364 0.23145 0.56145 0.0
C4291 C 0.40397 0.25716 0.59112 0.0
C4292 C 0.41413 0.26607 0.57859 0.0
H4293 H 0.39806 0.23234 0.60316 0.0
H4294 H 0.39484 0.26427 0.59939 0.0
C4295 C 0.42586 0.25659 0.56805 0.0
C4296 C 0.09717 0.24152 0.57029 0.0
C4297 C 0.08752 0.22982 0.58073 0.0
H4298 H 0.10217 0.26844 0.56382 0.0
C4299 C 0.07663 0.2364 0.59404 0.0
H4300 H 0.10558 0.23672 0.55988 0.0
C4301 C 0.07505 0.25448 0.59658 0.0
C4302 C 0.08393 0.26621 0.58551 0.0
H4303 H 0.0691 0.22758 0.60226 0.0
H4304 H 0.06622 0.25927 0.60664 0.0
C4305 C 0.09518 0.25961 0.5725 0.0
C4306 C 0.06927 0.93011 0.23845 0.0
C4307 C 0.08155 0.91984 0.22936 0.0
H4308 H 0.05833 0.93702 0.26334 0.0
C4309 C 0.09232 0.90816 0.2387 0.0
H4310 H 0.06093 0.93932 0.23152 0.0
C4311 C 0.09051 0.90651 0.25691 0.0
C4312 C 0.07836 0.917 0.26598 0.0
H4313 H 0.10188 0.90013 0.23189 0.0
H4314 H 0.09871 0.89725 0.26392 0.0
C4315 C 0.06788 0.92889 0.25663 0.0
C4316 C 0.42236 0.59631 0.25468 0.0
C4317 C 0.41314 0.58555 0.26643 0.0
H4318 H 0.42833 0.60183 0.22776 0.0
C4319 C 0.40136 0.57298 0.25989 0.0
H4320 H 0.43159 0.60602 0.25945 0.0
C4321 C 0.39915 0.57092 0.24181 0.0
C4322 C 0.40911 0.58102 0.23007 0.0
H4323 H 0.39409 0.56456 0.26875 0.0
H4324 H 0.39031 0.56086 0.23704 0.0
C4325 C 0.42056 0.59388 0.23662 0.0
C4326 C 0.42659 0.06818 0.73883 0.0
C4327 C 0.41426 0.07798 0.7293 0.0
H4328 H 0.43755 0.06239 0.76399 0.0
C4329 C 0.40348 0.09005 0.73811 0.0
H4330 H 0.43496 0.0587 0.73232 0.0
C4331 C 0.40529 0.0925 0.75624 0.0
C4332 C 0.41746 0.08245 0.76576 0.0
H4333 H 0.39389 0.09774 0.73096 0.0
H4334 H 0.39704 0.10202 0.76284 0.0
C4335 C 0.42799 0.0702 0.75693 0.0
C4336 C 0.08987 0.40389 0.75454 0.0
C4337 C 0.07772 0.41387 0.76416 0.0
H4338 H 0.10098 0.39864 0.72915 0.0
C4339 C 0.06693 0.42593 0.7554 0.0
H4340 H 0.09832 0.39451 0.76108 0.0
C4341 C 0.06805 0.42786 0.73727 0.0
C4342 C 0.08035 0.41815 0.72764 0.0
H4343 H 0.05737 0.43368 0.76254 0.0
H4344 H 0.05948 0.4372 0.73081 0.0
C4345 C 0.0914 0.40626 0.73638 0.0
C4346 C 0.40071 0.73696 0.07501 0.0
C4347 C 0.41255 0.73067 0.08765 0.0
H4348 H 0.3896 0.75956 0.06249 0.0
C4349 C 0.42186 0.74264 0.09812 0.0
H4350 H 0.39339 0.72794 0.06681 0.0
C4351 C 0.42005 0.76065 0.09533 0.0
C4352 C 0.40852 0.76694 0.08241 0.0
H4353 H 0.43114 0.73806 0.10788 0.0
H4354 H 0.42787 0.76967 0.10307 0.0
C4355 C 0.39851 0.75499 0.07259 0.0
C4356 C 0.40413 0.23804 0.90704 0.0
C4357 C 0.41478 0.22896 0.91903 0.0
H4358 H 0.39806 0.26299 0.89532 0.0
C4359 C 0.42718 0.23822 0.929 0.0
H4360 H 0.3945 0.2311 0.89922 0.0
C4361 C 0.4288 0.25633 0.92719 0.0
C4362 C 0.41844 0.26542 0.915 0.0
H4363 H 0.43544 0.23149 0.93842 0.0
H4364 H 0.43842 0.26318 0.93512 0.0
C4365 C 0.40618 0.25618 0.9048 0.0
C4366 C 0.07142 0.25627 0.92735 0.0
C4367 C 0.08313 0.26539 0.91647 0.0
H4368 H 0.06078 0.23138 0.9347 0.0
C4369 C 0.0932 0.2561 0.90416 0.0
H4370 H 0.06361 0.26317 0.93703 0.0
C4371 C 0.09124 0.2379 0.90251 0.0
C4372 C 0.07966 0.2288 0.91359 0.0
H4373 H 0.10231 0.26292 0.89565 0.0
H4374 H 0.09889 0.23093 0.89277 0.0
C4375 C 0.06989 0.23811 0.9261 0.0
C4376 C 0.73686 0.59156 0.09078 0.0
C4377 C 0.7279 0.581 0.07861 0.0
H4378 H 0.76176 0.59802 0.10239 0.0
C4379 C 0.73739 0.56906 0.0683 0.0
H4380 H 0.72976 0.60086 0.09886 0.0
C4381 C 0.75556 0.56784 0.06993 0.0
C4382 C 0.76453 0.57816 0.08225 0.0
H4383 H 0.73078 0.56086 0.05874 0.0
H4384 H 0.76258 0.55857 0.06173 0.0
C4385 C 0.75506 0.58993 0.09281 0.0
C4386 C 0.92108 0.26059 0.90176 0.0
C4387 C 0.90988 0.2666 0.91509 0.0
H4388 H 0.93204 0.23825 0.88865 0.0
C4389 C 0.90031 0.25444 0.92506 0.0
H4390 H 0.92855 0.26977 0.89389 0.0
C4391 C 0.90264 0.23646 0.92237 0.0
C4392 C 0.91416 0.23044 0.90933 0.0
H4393 H 0.89166 0.25879 0.93547 0.0
H4394 H 0.89566 0.22727 0.93068 0.0
C4395 C 0.92301 0.24262 0.89872 0.0
C4396 C 0.25762 0.42515 0.92736 0.0
C4397 C 0.26697 0.41283 0.91739 0.0
H4398 H 0.23263 0.4365 0.93319 0.0
C4399 C 0.258 0.40244 0.90509 0.0
H4400 H 0.26424 0.43324 0.937 0.0
C4401 C 0.23991 0.40464 0.90258 0.0
C4402 C 0.23056 0.41682 0.91278 0.0
H4403 H 0.265 0.39287 0.89725 0.0
H4404 H 0.2332 0.39668 0.89289 0.0
C4405 C 0.23954 0.42695 0.92525 0.0
C4406 C 0.08971 0.75628 0.09458 0.0
C4407 C 0.07797 0.76566 0.08389 0.0
H4408 H 0.10072 0.73105 0.10079 0.0
C4409 C 0.0678 0.75661 0.0715 0.0
H4410 H 0.09768 0.76303 0.10422 0.0
C4411 C 0.06913 0.73845 0.06993 0.0
C4412 C 0.08103 0.72905 0.08037 0.0
H4413 H 0.05856 0.76355 0.06319 0.0
H4414 H 0.06104 0.73179 0.06031 0.0
C4415 C 0.09145 0.73808 0.09261 0.0
C4416 C 0.05748 0.11186 0.13872 0.0
C4417 C 0.06951 0.11371 0.15254 0.0
H4418 H 0.04634 0.12347 0.11569 0.0
C4419 C 0.07789 0.12995 0.15507 0.0
H4420 H 0.05083 0.09949 0.13649 0.0
C4421 C 0.07519 0.14373 0.1433 0.0
C4422 C 0.06425 0.14139 0.12867 0.0
H4423 H 0.08715 0.13176 0.16571 0.0
H4424 H 0.08248 0.15581 0.14506 0.0
C4425 C 0.05496 0.12556 0.12681 0.0
C4426 C 0.37269 0.05691 0.12195 0.0
C4427 C 0.35634 0.06479 0.12537 0.0
H4428 H 0.39908 0.05274 0.13076 0.0
C4429 C 0.35351 0.07283 0.14168 0.0
H4430 H 0.37518 0.05047 0.10952 0.0
C4431 C 0.36721 0.07415 0.1538 0.0
C4432 C 0.38391 0.06733 0.14988 0.0
H4433 H 0.34102 0.07892 0.1447 0.0
H4434 H 0.36495 0.08128 0.16588 0.0
C4435 C 0.38635 0.0581 0.13414 0.0
C4436 C 0.44461 0.38442 0.13747 0.0
C4437 C 0.4338 0.38301 0.1523 0.0
H4438 H 0.45405 0.37193 0.11416 0.0
C4439 C 0.42622 0.36669 0.15638 0.0
H4440 H 0.45063 0.39683 0.13404 0.0
C4441 C 0.42823 0.35242 0.14508 0.0
C4442 C 0.43775 0.35428 0.12944 0.0
H4443 H 0.41792 0.3652 0.16783 0.0
H4444 H 0.42141 0.3403 0.14805 0.0
C4445 C 0.44651 0.37018 0.12608 0.0
C4446 C 0.12562 0.43842 0.12633 0.0
C4447 C 0.14168 0.42985 0.1294 0.0
H4448 H 0.09915 0.44253 0.13491 0.0
C4449 C 0.14398 0.42042 0.14503 0.0
H4450 H 0.12355 0.44593 0.11443 0.0
C4451 C 0.12998 0.41842 0.1567 0.0
C4452 C 0.11352 0.42596 0.15301 0.0
H4453 H 0.15623 0.41374 0.14777 0.0
H4454 H 0.13179 0.41023 0.16818 0.0
C4455 C 0.11167 0.43657 0.13809 0.0
C4456 C 0.05645 0.88435 0.85811 0.0
C4457 C 0.0674 0.88268 0.84342 0.0
H4458 H 0.04692 0.87238 0.88164 0.0
C4459 C 0.07535 0.86639 0.83992 0.0
H4460 H 0.05016 0.89674 0.86111 0.0
C4461 C 0.07342 0.8524 0.8516 0.0
C4462 C 0.06366 0.85455 0.86705 0.0
H4463 H 0.08379 0.86471 0.8286 0.0
H4464 H 0.08042 0.84029 0.84906 0.0
C4465 C 0.05467 0.87042 0.86988 0.0
C4466 C 0.62999 0.07628 0.84339 0.0
C4467 C 0.61322 0.06924 0.84659 0.0
H4468 H 0.65578 0.08112 0.85351 0.0
C4469 C 0.6103 0.05975 0.86209 0.0
H4470 H 0.63262 0.08362 0.83151 0.0
C4471 C 0.62351 0.0585 0.87476 0.0
C4472 C 0.63989 0.06657 0.87206 0.0
H4473 H 0.5975 0.05423 0.86492 0.0
H4474 H 0.62063 0.05183 0.88698 0.0
C4475 C 0.64324 0.07489 0.85599 0.0
C4476 C 0.42299 0.62966 0.84065 0.0
C4477 C 0.43025 0.6131 0.84442 0.0
H4478 H 0.41858 0.65595 0.84958 0.0
C4479 C 0.4407 0.6111 0.85944 0.0
H4480 H 0.41495 0.6316 0.82909 0.0
C4481 C 0.44263 0.625 0.87124 0.0
C4482 C 0.43429 0.64118 0.86811 0.0
H4483 H 0.44644 0.5985 0.86267 0.0
H4484 H 0.44997 0.62282 0.88322 0.0
C4485 C 0.42507 0.64362 0.85236 0.0
C4486 C 0.85227 0.42088 0.85453 0.0
C4487 C 0.85522 0.42949 0.87052 0.0
H4488 H 0.86344 0.4119 0.8304 0.0
C4489 C 0.87143 0.43784 0.8734 0.0
H4490 H 0.83986 0.41444 0.85191 0.0
C4491 C 0.88489 0.43655 0.86101 0.0
C4492 C 0.88238 0.42677 0.84562 0.0
H4493 H 0.874 0.44473 0.88556 0.0
H4494 H 0.89756 0.44229 0.86399 0.0
C4495 C 0.86576 0.41947 0.84221 0.0
C4496 C 0.12612 0.05358 0.12731 0.0
C4497 C 0.12919 0.06252 0.14317 0.0
H4498 H 0.13461 0.04911 0.10088 0.0
C4499 C 0.14484 0.07198 0.14526 0.0
H4500 H 0.11421 0.04605 0.1254 0.0
C4501 C 0.15647 0.07375 0.13121 0.0
C4502 C 0.15269 0.06599 0.1149 0.0
H4503 H 0.1476 0.0789 0.15736 0.0
H4504 H 0.16793 0.082 0.13285 0.0
C4505 C 0.13783 0.05525 0.11329 0.0
C4506 C 0.41994 0.14271 0.14371 0.0
C4507 C 0.43114 0.12823 0.14183 0.0
H4508 H 0.40802 0.16485 0.13119 0.0
C4509 C 0.44088 0.12634 0.12628 0.0
H4510 H 0.41228 0.14449 0.15556 0.0
C4511 C 0.43859 0.13808 0.11239 0.0
C4512 C 0.42634 0.15175 0.11377 0.0
H4513 H 0.44971 0.11532 0.12454 0.0
H4514 H 0.44562 0.13583 0.10024 0.0
C4515 C 0.41747 0.15432 0.12974 0.0
C4516 C 0.37558 0.44171 0.12461 0.0
C4517 C 0.37256 0.43406 0.14114 0.0
H4518 H 0.36627 0.44521 0.09831 0.0
C4519 C 0.35637 0.42592 0.14441 0.0
H4520 H 0.3879 0.44822 0.12177 0.0
C4521 C 0.34403 0.42417 0.13096 0.0
C4522 C 0.34761 0.43065 0.11405 0.0
H4523 H 0.35365 0.42001 0.15705 0.0
H4524 H 0.33209 0.4169 0.13356 0.0
C4525 C 0.36316 0.44009 0.1112 0.0
C4526 C 0.05771 0.35769 0.11089 0.0
C4527 C 0.06806 0.34258 0.11269 0.0
H4528 H 0.04865 0.38138 0.1229 0.0
C4529 C 0.07534 0.33856 0.12918 0.0
H4530 H 0.05195 0.3611 0.09834 0.0
C4531 C 0.07341 0.35012 0.14326 0.0
C4532 C 0.0643 0.36595 0.14102 0.0
H4533 H 0.08331 0.32691 0.13096 0.0
H4534 H 0.07991 0.34715 0.15555 0.0
C4535 C 0.05592 0.36933 0.12492 0.0
C4536 C 0.12409 0.94196 0.87044 0.0
C4537 C 0.12732 0.93389 0.85416 0.0
H4538 H 0.13277 0.94575 0.89691 0.0
C4539 C 0.14335 0.92523 0.85149 0.0
H4540 H 0.11188 0.94886 0.87281 0.0
C4541 C 0.15526 0.92339 0.86532 0.0
C4542 C 0.15142 0.93032 0.88199 0.0
H4543 H 0.14623 0.91896 0.83906 0.0
H4544 H 0.16706 0.91573 0.8632 0.0
C4545 C 0.13608 0.94027 0.88422 0.0
C4546 C 0.57835 0.14375 0.85391 0.0
C4547 C 0.56644 0.12974 0.85466 0.0
H4548 H 0.59034 0.165 0.86782 0.0
C4549 C 0.55564 0.12786 0.86949 0.0
H4550 H 0.58683 0.14548 0.84264 0.0
C4551 C 0.55749 0.13912 0.88383 0.0
C4552 C 0.57037 0.15227 0.88363 0.0
H4553 H 0.54626 0.1172 0.87034 0.0
H4554 H 0.54958 0.13688 0.89542 0.0
C4555 C 0.58039 0.15485 0.86835 0.0
C4556 C 0.37198 0.55595 0.8712 0.0
C4557 C 0.36905 0.56448 0.85509 0.0
H4558 H 0.3631 0.55185 0.89754 0.0
C4559 C 0.35335 0.57376 0.85256 0.0
H4560 H 0.38392 0.54855 0.87343 0.0
C4561 C 0.34148 0.5757 0.8664 0.0
C4562 C 0.34505 0.56825 0.88291 0.0
H4563 H 0.35072 0.58038 0.84026 0.0
H4564 H 0.32995 0.58379 0.86442 0.0
C4565 C 0.36003 0.55774 0.88497 0.0
C4566 C 0.93979 0.36905 0.87062 0.0
C4567 C 0.92982 0.36668 0.85527 0.0
H4568 H 0.94495 0.36033 0.89685 0.0
C4569 C 0.91862 0.35214 0.85397 0.0
H4570 H 0.94863 0.38012 0.87191 0.0
C4571 C 0.91638 0.34096 0.86831 0.0
C4572 C 0.9255 0.344 0.88406 0.0
H4573 H 0.9108 0.35001 0.84229 0.0
H4574 H 0.90695 0.33036 0.8673 0.0
C4575 C 0.93774 0.35772 0.88488 0.0
C4576 C 0.12834 0.15397 0.07444 0.0
C4577 C 0.11172 0.14979 0.06754 0.0
H4578 H 0.15469 0.14533 0.0792 0.0
C4579 C 0.10961 0.13411 0.05816 0.0
H4580 H 0.13036 0.16604 0.08169 0.0
C4581 C 0.1235 0.12219 0.05689 0.0
C4582 C 0.13976 0.12585 0.06485 0.0
H4583 H 0.09695 0.13054 0.05273 0.0
H4584 H 0.12125 0.10978 0.05033 0.0
C4585 C 0.14227 0.14213 0.07304 0.0
C4586 C 0.12625 0.36756 0.44418 0.0
C4587 C 0.14202 0.36413 0.43522 0.0
H4588 H 0.09961 0.35972 0.44872 0.0
C4589 C 0.14366 0.34848 0.42567 0.0
H4590 H 0.12467 0.37949 0.45176 0.0
C4591 C 0.1293 0.33723 0.42388 0.0
C4592 C 0.1131 0.34136 0.43172 0.0
H4593 H 0.15568 0.34545 0.41869 0.0
H4594 H 0.13062 0.32576 0.41558 0.0
C4595 C 0.11191 0.35623 0.44251 0.0
C4596 C 0.15059 0.12962 0.42589 0.0
C4597 C 0.14706 0.11272 0.43242 0.0
H4598 H 0.14084 0.15561 0.42147 0.0
C4599 C 0.13139 0.10977 0.44162 0.0
H4600 H 0.16263 0.13229 0.4188 0.0
C4601 C 0.11884 0.12309 0.44299 0.0
C4602 C 0.12185 0.13961 0.43532 0.0
H4603 H 0.12831 0.09688 0.44677 0.0
H4604 H 0.10645 0.12019 0.44933 0.0
C4605 C 0.13812 0.14298 0.4274 0.0
C4606 C 0.35294 0.1451 0.42139 0.0
C4607 C 0.35476 0.12949 0.43095 0.0
H4608 H 0.36577 0.16789 0.41117 0.0
C4609 C 0.37069 0.12608 0.43967 0.0
H4610 H 0.34081 0.14808 0.41459 0.0
C4611 C 0.38494 0.13749 0.43787 0.0
C4612 C 0.38354 0.15239 0.42716 0.0
H4613 H 0.3724 0.11419 0.44727 0.0
H4614 H 0.39732 0.13406 0.44397 0.0
C4615 C 0.36724 0.15642 0.41943 0.0
C4616 C 0.36186 0.88506 0.94061 0.0
C4617 C 0.34618 0.88227 0.93137 0.0
H4618 H 0.38658 0.87432 0.94857 0.0
C4619 C 0.34234 0.86533 0.92512 0.0
H4620 H 0.36517 0.89797 0.94555 0.0
C4621 C 0.35455 0.85176 0.92689 0.0
C4622 C 0.37087 0.85496 0.9348 0.0
H4623 H 0.33028 0.86278 0.91801 0.0
H4624 H 0.35163 0.83909 0.92114 0.0
C4625 C 0.37415 0.87153 0.94224 0.0
C4626 C 0.87114 0.87417 0.05705 0.0
C4627 C 0.85488 0.87116 0.06526 0.0
H4628 H 0.89729 0.86482 0.05258 0.0
C4629 C 0.85189 0.85502 0.07358 0.0
H4630 H 0.87374 0.88645 0.05037 0.0
C4631 C 0.86538 0.84267 0.07484 0.0
C4632 C 0.88203 0.8462 0.06769 0.0
H4633 H 0.83945 0.85231 0.0799 0.0
H4634 H 0.86302 0.83073 0.08219 0.0
C4635 C 0.88459 0.86175 0.05819 0.0
C4636 C 0.13579 0.88536 0.55353 0.0
C4637 C 0.15117 0.88289 0.56335 0.0
H4638 H 0.1115 0.87419 0.54489 0.0
C4639 C 0.15502 0.86609 0.56996 0.0
H4640 H 0.13249 0.89816 0.54829 0.0
C4641 C 0.14306 0.85234 0.56796 0.0
C4642 C 0.12698 0.85524 0.55946 0.0
H4643 H 0.16686 0.8638 0.57751 0.0
H4644 H 0.14594 0.8398 0.574 0.0
C4645 C 0.12374 0.87166 0.55167 0.0
C4646 C 0.34133 0.62973 0.57645 0.0
C4647 C 0.34485 0.61325 0.56892 0.0
H4648 H 0.35068 0.65578 0.58137 0.0
C4649 C 0.35991 0.61115 0.55855 0.0
H4650 H 0.32975 0.63173 0.58445 0.0
C4651 C 0.37197 0.62486 0.55695 0.0
C4652 C 0.36906 0.64093 0.56555 0.0
H4653 H 0.36295 0.5986 0.55261 0.0
H4654 H 0.38395 0.6226 0.54964 0.0
C4655 C 0.3533 0.6435 0.57471 0.0
C4656 C 0.93778 0.88452 0.85907 0.0
C4657 C 0.92764 0.88242 0.84385 0.0
H4658 H 0.94651 0.87296 0.88312 0.0
C4659 C 0.92046 0.86585 0.84003 0.0
H4660 H 0.94346 0.89714 0.86234 0.0
C4661 C 0.92225 0.85199 0.85187 0.0
C4662 C 0.93111 0.85453 0.8678 0.0
H4663 H 0.91266 0.86385 0.8283 0.0
H4664 H 0.91581 0.83963 0.84903 0.0
C4665 C 0.93942 0.8707 0.871 0.0
C4666 C 0.62264 0.9407 0.87366 0.0
C4667 C 0.63902 0.93282 0.87038 0.0
H4668 H 0.59626 0.94466 0.86474 0.0
C4669 C 0.64191 0.92458 0.85418 0.0
H4670 H 0.62011 0.94731 0.88599 0.0
C4671 C 0.62824 0.92303 0.84207 0.0
C4672 C 0.6115 0.92984 0.84587 0.0
H4673 H 0.65442 0.91848 0.85127 0.0
H4674 H 0.63054 0.91573 0.83009 0.0
C4675 C 0.60901 0.9393 0.86146 0.0
C4676 C 0.57723 0.64212 0.84973 0.0
C4677 C 0.5653 0.64169 0.86373 0.0
H4678 H 0.58938 0.62773 0.82892 0.0
C4679 C 0.55457 0.62683 0.86598 0.0
H4680 H 0.58564 0.65339 0.84768 0.0
C4681 C 0.5566 0.61218 0.85514 0.0
C4682 C 0.56954 0.6121 0.84206 0.0
H4683 H 0.54519 0.62621 0.87664 0.0
H4684 H 0.54879 0.60058 0.8577 0.0
C4685 C 0.57941 0.6274 0.83905 0.0
C4686 C 0.85265 0.57218 0.85193 0.0
C4687 C 0.85476 0.56286 0.86765 0.0
H4688 H 0.86506 0.58199 0.82874 0.0
C4689 C 0.87071 0.55412 0.87088 0.0
H4690 H 0.84049 0.57898 0.84908 0.0
C4691 C 0.88472 0.55569 0.85917 0.0
C4692 C 0.88307 0.56618 0.84415 0.0
H4693 H 0.87263 0.5467 0.88286 0.0
H4694 H 0.89715 0.54959 0.86245 0.0
C4695 C 0.86673 0.5739 0.84031 0.0
C4696 C 0.91723 0.12768 0.15551 0.0
C4697 C 0.92651 0.11207 0.15228 0.0
H4698 H 0.91162 0.15386 0.14696 0.0
C4699 C 0.93913 0.11171 0.13889 0.0
H4700 H 0.90752 0.12835 0.16587 0.0
C4701 C 0.94137 0.12627 0.12798 0.0
C4702 C 0.93118 0.14147 0.13046 0.0
H4703 H 0.9465 0.09986 0.13617 0.0
H4704 H 0.95046 0.12533 0.1171 0.0
C4705 C 0.91962 0.14231 0.14474 0.0
C4706 C 0.38561 0.93893 0.13431 0.0
C4707 C 0.38327 0.92942 0.1499 0.0
H4708 H 0.37435 0.94689 0.10985 0.0
C4709 C 0.3666 0.92246 0.15375 0.0
H4710 H 0.39831 0.9444 0.13099 0.0
C4711 C 0.35287 0.92392 0.14169 0.0
C4712 C 0.35562 0.93222 0.1255 0.0
H4713 H 0.36441 0.91512 0.16573 0.0
H4714 H 0.34042 0.91771 0.14464 0.0
C4715 C 0.37192 0.94024 0.12217 0.0
C4716 C 0.5752 0.35139 0.14322 0.0
C4717 C 0.56394 0.35289 0.12873 0.0
H4718 H 0.58729 0.36447 0.16492 0.0
C4719 C 0.55424 0.36844 0.12645 0.0
H4720 H 0.58282 0.33957 0.14532 0.0
C4721 C 0.55669 0.38267 0.13777 0.0
C4722 C 0.56903 0.38164 0.1514 0.0
H4723 H 0.54539 0.36991 0.11542 0.0
H4724 H 0.54973 0.3948 0.13518 0.0
C4725 C 0.5778 0.36568 0.1544 0.0
C4726 C 0.11044 0.55604 0.13646 0.0
C4727 C 0.11193 0.56668 0.1514 0.0
H4728 H 0.12268 0.54704 0.11286 0.0
C4729 C 0.12814 0.57468 0.15518 0.0
H4730 H 0.09811 0.54973 0.13323 0.0
C4731 C 0.14224 0.57308 0.14359 0.0
C4732 C 0.14028 0.5636 0.12794 0.0
H4733 H 0.12967 0.58289 0.16669 0.0
H4734 H 0.1543 0.58009 0.14638 0.0
C4735 C 0.12448 0.55459 0.12477 0.0
C4736 C 0.86977 0.9398 0.8706 0.0
C4737 C 0.86677 0.93108 0.85461 0.0
H4738 H 0.86101 0.94419 0.89693 0.0
C4739 C 0.8511 0.92171 0.85228 0.0
H4740 H 0.88169 0.94726 0.87269 0.0
C4741 C 0.83931 0.9199 0.86619 0.0
C4742 C 0.84294 0.92756 0.88259 0.0
H4743 H 0.84843 0.91494 0.84006 0.0
H4744 H 0.8278 0.91175 0.86436 0.0
C4745 C 0.8579 0.93813 0.88446 0.0
C4746 C 0.57526 0.85386 0.85203 0.0
C4747 C 0.56418 0.86842 0.85406 0.0
H4748 H 0.58715 0.83162 0.86437 0.0
C4749 C 0.5546 0.87034 0.86972 0.0
H4750 H 0.58277 0.85205 0.8401 0.0
C4751 C 0.55696 0.85853 0.88355 0.0
C4752 C 0.56911 0.84479 0.88201 0.0
H4753 H 0.54588 0.88141 0.87157 0.0
H4754 H 0.55009 0.86081 0.89579 0.0
C4755 C 0.57779 0.8422 0.86594 0.0
C4756 C 0.65417 0.56583 0.86514 0.0
C4757 C 0.64973 0.56013 0.88212 0.0
H4758 H 0.6457 0.56933 0.83858 0.0
C4759 C 0.63387 0.55112 0.88467 0.0
H4760 H 0.66638 0.57272 0.86276 0.0
C4761 C 0.62196 0.54929 0.87081 0.0
C4762 C 0.62579 0.55633 0.85418 0.0
H4763 H 0.63011 0.54659 0.89761 0.0
H4764 H 0.60934 0.54325 0.87339 0.0
C4765 C 0.64233 0.56389 0.85128 0.0
C4766 C 0.925 0.64193 0.85112 0.0
C4767 C 0.93387 0.62605 0.85396 0.0
H4768 H 0.91513 0.66557 0.8626 0.0
C4769 C 0.94196 0.62305 0.87028 0.0
H4770 H 0.91872 0.64462 0.83865 0.0
C4771 C 0.94005 0.63511 0.88396 0.0
C4772 C 0.92987 0.65026 0.88156 0.0
H4773 H 0.94903 0.61097 0.87277 0.0
H4774 H 0.94554 0.63198 0.89669 0.0
C4775 C 0.92295 0.6539 0.86484 0.0
C4776 C 0.87194 0.05034 0.12462 0.0
C4777 C 0.86859 0.05782 0.14116 0.0
H4778 H 0.86327 0.04734 0.09802 0.0
C4779 C 0.85233 0.06595 0.14417 0.0
H4780 H 0.88432 0.04387 0.12196 0.0
C4781 C 0.84032 0.06795 0.13045 0.0
C4782 C 0.84431 0.06177 0.11353 0.0
H4783 H 0.84933 0.07173 0.1568 0.0
H4784 H 0.82836 0.07525 0.13288 0.0
C4785 C 0.85986 0.05225 0.11092 0.0
C4786 C 0.41719 0.84223 0.12895 0.0
C4787 C 0.42585 0.84494 0.11289 0.0
H4788 H 0.41222 0.8519 0.15485 0.0
C4789 C 0.43799 0.85869 0.11142 0.0
H4790 H 0.40784 0.83162 0.13046 0.0
C4791 C 0.44035 0.8704 0.12533 0.0
C4792 C 0.43079 0.86837 0.14098 0.0
H4793 H 0.44486 0.86105 0.0992 0.0
H4794 H 0.44907 0.88149 0.12354 0.0
C4795 C 0.41973 0.85379 0.14293 0.0
C4796 C 0.63599 0.44069 0.10981 0.0
C4797 C 0.65151 0.43099 0.11193 0.0
H4798 H 0.61179 0.44894 0.12144 0.0
C4799 C 0.65569 0.42425 0.12859 0.0
H4800 H 0.63245 0.44603 0.09712 0.0
C4801 C 0.6439 0.42592 0.14252 0.0
C4802 C 0.62769 0.43428 0.13998 0.0
H4803 H 0.66764 0.41681 0.13063 0.0
H4804 H 0.64705 0.41976 0.15493 0.0
C4805 C 0.62414 0.44227 0.12372 0.0
C4806 C 0.0545 0.63541 0.11163 0.0
C4807 C 0.06482 0.65047 0.11401 0.0
H4808 H 0.04538 0.61132 0.12281 0.0
C4809 C 0.07187 0.654 0.1307 0.0
H4810 H 0.04891 0.63236 0.09892 0.0
C4811 C 0.06978 0.64202 0.14441 0.0
C4812 C 0.06076 0.62622 0.14158 0.0
H4813 H 0.07981 0.66559 0.13292 0.0
H4814 H 0.07616 0.64462 0.15684 0.0
C4815 C 0.05256 0.62334 0.1253 0.0
C4816 C 0.86508 0.83989 0.92083 0.0
C4817 C 0.88157 0.84351 0.92832 0.0
H4818 H 0.83889 0.84902 0.91611 0.0
C4819 C 0.88354 0.85846 0.93886 0.0
H4820 H 0.86317 0.82838 0.91271 0.0
C4821 C 0.86969 0.87035 0.94065 0.0
C4822 C 0.8536 0.86736 0.93208 0.0
H4823 H 0.89609 0.86158 0.94478 0.0
H4824 H 0.87186 0.88228 0.94807 0.0
C4825 C 0.85117 0.85168 0.92277 0.0
C4826 C 0.87137 0.62283 0.55342 0.0
C4827 C 0.85496 0.62602 0.56126 0.0
H4828 H 0.89793 0.6315 0.55016 0.0
C4829 C 0.85217 0.64195 0.57004 0.0
H4830 H 0.87383 0.6107 0.54643 0.0
C4831 C 0.86599 0.6538 0.57222 0.0
C4832 C 0.88277 0.64999 0.56553 0.0
H4833 H 0.83964 0.6448 0.57613 0.0
H4834 H 0.86376 0.66552 0.57996 0.0
C4835 C 0.88515 0.63477 0.55546 0.0
C4836 C 0.84017 0.86556 0.57401 0.0
C4837 C 0.844 0.88204 0.56662 0.0
H4838 H 0.84913 0.83937 0.57892 0.0
C4839 C 0.8592 0.88398 0.55642 0.0
H4840 H 0.82847 0.86368 0.58187 0.0
C4841 C 0.87109 0.8701 0.55489 0.0
C4842 C 0.86788 0.85403 0.56338 0.0
H4843 H 0.86247 0.89651 0.55058 0.0
H4844 H 0.88319 0.87224 0.54774 0.0
C4845 C 0.85198 0.85164 0.57233 0.0
C4846 C 0.62454 0.86776 0.55743 0.0
C4847 C 0.64035 0.86565 0.56672 0.0
H4848 H 0.59832 0.85849 0.55323 0.0
C4849 C 0.64242 0.85106 0.57774 0.0
H4850 H 0.62265 0.87886 0.54874 0.0
C4851 C 0.62843 0.83951 0.58043 0.0
C4852 C 0.61225 0.84225 0.57196 0.0
H4853 H 0.65447 0.84912 0.58504 0.0
H4854 H 0.63006 0.82886 0.58971 0.0
C4855 C 0.61063 0.85609 0.55994 0.0
C4856 C 0.6346 0.11037 0.05145 0.0
C4857 C 0.65034 0.11292 0.06068 0.0
H4858 H 0.61014 0.12161 0.04335 0.0
C4859 C 0.65466 0.12988 0.06653 0.0
H4860 H 0.63094 0.09745 0.04679 0.0
C4861 C 0.64279 0.14371 0.06454 0.0
C4862 C 0.62635 0.1408 0.05676 0.0
H4863 H 0.66677 0.13225 0.0736 0.0
H4864 H 0.64605 0.15638 0.07011 0.0
C4865 C 0.62267 0.1242 0.04955 0.0
C4866 C 0.11076 0.13424 0.93817 0.0
C4867 C 0.11303 0.14964 0.92836 0.0
H4868 H 0.12211 0.10995 0.94655 0.0
C4869 C 0.12964 0.15337 0.9212 0.0
H4870 H 0.09811 0.13102 0.94381 0.0
C4871 C 0.1434 0.14135 0.9228 0.0
C4872 C 0.14072 0.12534 0.93146 0.0
H4873 H 0.13177 0.1652 0.91361 0.0
H4874 H 0.1558 0.1442 0.91646 0.0
C4875 C 0.12448 0.12215 0.93964 0.0
C4876 C 0.84111 0.12975 0.42259 0.0
C4877 C 0.84502 0.11304 0.42939 0.0
H4878 H 0.85015 0.15594 0.41801 0.0
C4879 C 0.86052 0.11071 0.43907 0.0
H4880 H 0.82918 0.13195 0.41515 0.0
C4881 C 0.8726 0.12445 0.44059 0.0
C4882 C 0.8693 0.14074 0.43255 0.0
H4883 H 0.86388 0.09799 0.44444 0.0
H4884 H 0.88492 0.12201 0.44726 0.0
C4885 C 0.85312 0.1435 0.4242 0.0
C4886 C 0.63538 0.3853 0.44194 0.0
C4887 C 0.65094 0.38333 0.4323 0.0
H4888 H 0.61128 0.37342 0.45015 0.0
C4889 C 0.65531 0.36669 0.42562 0.0
H4890 H 0.63169 0.39797 0.44724 0.0
C4891 C 0.64368 0.35263 0.42731 0.0
C4892 C 0.62742 0.35501 0.43561 0.0
H4893 H 0.66731 0.36476 0.41822 0.0
H4894 H 0.64697 0.34024 0.42118 0.0
C4895 C 0.62367 0.37126 0.44353 0.0
C4896 C 0.059 0.61272 0.6382 0.0
C4897 C 0.07151 0.61374 0.65166 0.0
H4898 H 0.04772 0.62527 0.61575 0.0
C4899 C 0.08077 0.62951 0.65419 0.0
H4900 H 0.05168 0.60074 0.63598 0.0
C4901 C 0.07837 0.64363 0.64275 0.0
C4902 C 0.06687 0.64208 0.62847 0.0
H4903 H 0.09042 0.63068 0.66457 0.0
H4904 H 0.08629 0.65531 0.64448 0.0
C4905 C 0.05679 0.62674 0.62661 0.0
C4906 C 0.35389 0.57372 0.64444 0.0
C4907 C 0.3559 0.56424 0.6288 0.0
H4908 H 0.36643 0.58375 0.66748 0.0
C4909 C 0.37182 0.55544 0.6256 0.0
H4910 H 0.34175 0.58057 0.64727 0.0
C4911 C 0.3859 0.55711 0.63723 0.0
C4912 C 0.38434 0.56777 0.65215 0.0
H4913 H 0.37367 0.5479 0.61369 0.0
H4914 H 0.3983 0.55097 0.63396 0.0
C4915 C 0.36803 0.57553 0.65599 0.0
C4916 C 0.43662 0.88423 0.63634 0.0
C4917 C 0.42462 0.88253 0.65018 0.0
H4918 H 0.44752 0.87248 0.61327 0.0
C4919 C 0.41595 0.86643 0.65268 0.0
H4920 H 0.44347 0.89648 0.63413 0.0
C4921 C 0.41838 0.85264 0.64086 0.0
C4922 C 0.42934 0.85482 0.62624 0.0
H4923 H 0.4067 0.86474 0.66334 0.0
H4924 H 0.41091 0.84068 0.64263 0.0
C4925 C 0.43888 0.87051 0.62439 0.0
C4926 C 0.12514 0.93885 0.62333 0.0
C4927 C 0.14117 0.93004 0.6259 0.0
H4928 H 0.09902 0.94332 0.63271 0.0
C4929 C 0.1438 0.92053 0.64143 0.0
H4930 H 0.12283 0.94643 0.61153 0.0
C4931 C 0.13013 0.91871 0.65352 0.0
C4932 C 0.1137 0.92651 0.65034 0.0
H4933 H 0.15604 0.91369 0.64379 0.0
H4934 H 0.13218 0.91047 0.66493 0.0
C4935 C 0.11154 0.93717 0.6355 0.0
C4936 C 0.05424 0.36971 0.37457 0.0
C4937 C 0.06194 0.35323 0.3714 0.0
H4938 H 0.05065 0.39608 0.36551 0.0
C4939 C 0.07008 0.35011 0.3552 0.0
H4940 H 0.04773 0.37242 0.38691 0.0
C4941 C 0.07177 0.36366 0.34298 0.0
C4942 C 0.06524 0.38052 0.34671 0.0
H4943 H 0.07602 0.33751 0.35236 0.0
H4944 H 0.07904 0.36118 0.33101 0.0
C4945 C 0.05581 0.38323 0.36229 0.0
C4946 C 0.64272 0.57094 0.35163 0.0
C4947 C 0.6405 0.56188 0.36749 0.0
H4948 H 0.63052 0.58041 0.3282 0.0
C4949 C 0.62453 0.55317 0.37071 0.0
H4950 H 0.6549 0.57768 0.34876 0.0
C4951 C 0.61058 0.55463 0.35887 0.0
C4952 C 0.61236 0.56492 0.34371 0.0
H4953 H 0.62251 0.54596 0.38279 0.0
H4954 H 0.59811 0.54864 0.36215 0.0
C4955 C 0.62875 0.57249 0.33986 0.0
C4956 C 0.42231 0.12885 0.33998 0.0
C4957 C 0.42895 0.11209 0.34395 0.0
H4958 H 0.41862 0.15532 0.34869 0.0
C4959 C 0.43912 0.10984 0.35914 0.0
H4960 H 0.41451 0.13099 0.32829 0.0
C4961 C 0.44133 0.12375 0.37088 0.0
C4962 C 0.43356 0.14016 0.36754 0.0
H4963 H 0.4444 0.09708 0.36252 0.0
H4964 H 0.44841 0.12139 0.38299 0.0
C4965 C 0.42467 0.1428 0.35164 0.0
C4966 C 0.87004 0.93753 0.36879 0.0
C4967 C 0.85439 0.928 0.36664 0.0
H4968 H 0.89617 0.9422 0.3595 0.0
C4969 C 0.85247 0.91702 0.352 0.0
H4970 H 0.8718 0.9462 0.37992 0.0
C4971 C 0.86648 0.91462 0.34042 0.0
C4972 C 0.88252 0.92333 0.34319 0.0
H4973 H 0.84054 0.90954 0.35003 0.0
H4974 H 0.86499 0.90538 0.32973 0.0
C4975 C 0.88397 0.93531 0.35708 0.0
C4976 C 0.15661 0.57097 0.62995 0.0
C4977 C 0.1524 0.56422 0.6133 0.0
H4978 H 0.14812 0.57522 0.65638 0.0
C4979 C 0.1371 0.55418 0.61129 0.0
H4980 H 0.16842 0.57865 0.6319 0.0
C4981 C 0.12541 0.55232 0.62531 0.0
C4982 C 0.12893 0.56036 0.64155 0.0
H4983 H 0.13354 0.54882 0.59861 0.0
H4984 H 0.11316 0.54544 0.62312 0.0
C4985 C 0.14501 0.569 0.64398 0.0
C4986 C 0.42396 0.6555 0.63049 0.0
C4987 C 0.43097 0.65182 0.61382 0.0
H4988 H 0.41968 0.64631 0.65671 0.0
C4989 C 0.44121 0.63669 0.61154 0.0
H4990 H 0.41608 0.66714 0.63264 0.0
C4991 C 0.44312 0.6247 0.62528 0.0
C4992 C 0.43496 0.62774 0.64156 0.0
H4993 H 0.44676 0.63352 0.59885 0.0
H4994 H 0.45024 0.61263 0.62288 0.0
C4995 C 0.42602 0.64359 0.64428 0.0
C4996 C 0.35075 0.92515 0.64235 0.0
C4997 C 0.36651 0.93449 0.64057 0.0
H4998 H 0.32784 0.91526 0.62949 0.0
C4999 C 0.36998 0.94334 0.62475 0.0
H5000 H 0.34769 0.91828 0.65441 0.0
C5001 C 0.35855 0.94171 0.61049 0.0
C5002 C 0.34356 0.93109 0.61181 0.0
H5003 H 0.38199 0.95076 0.62307 0.0
H5004 H 0.36206 0.94779 0.59813 0.0
C5005 C 0.3394 0.92341 0.62807 0.0
C5006 C 0.07547 0.84012 0.62698 0.0
C5007 C 0.06754 0.84411 0.61078 0.0
H5008 H 0.08072 0.84857 0.65328 0.0
C5009 C 0.05683 0.85902 0.60947 0.0
H5010 H 0.08372 0.82863 0.62839 0.0
C5011 C 0.05526 0.87049 0.62368 0.0
C5012 C 0.06421 0.86715 0.63948 0.0
H5013 H 0.05057 0.86241 0.59716 0.0
H5014 H 0.04767 0.88241 0.62201 0.0
C5015 C 0.07374 0.8515 0.64125 0.0
C5016 C 0.12577 0.43579 0.37139 0.0
C5017 C 0.12771 0.42623 0.35573 0.0
H5018 H 0.13543 0.44051 0.39737 0.0
C5019 C 0.14239 0.41532 0.35362 0.0
H5020 H 0.11461 0.4444 0.3733 0.0
C5021 C 0.15419 0.41298 0.36745 0.0
C5022 C 0.15163 0.42169 0.38351 0.0
H5023 H 0.14421 0.40784 0.34167 0.0
H5024 H 0.16491 0.40378 0.36581 0.0
C5025 C 0.1377 0.43362 0.38514 0.0
C5026 C 0.57542 0.65247 0.36591 0.0
C5027 C 0.56723 0.64936 0.38215 0.0
H5028 H 0.58044 0.64299 0.33993 0.0
C5029 C 0.55598 0.63489 0.3839 0.0
H5030 H 0.58409 0.6636 0.36418 0.0
C5031 C 0.55405 0.62299 0.37007 0.0
C5032 C 0.56316 0.62551 0.35421 0.0
H5033 H 0.54951 0.63218 0.39626 0.0
H5034 H 0.54603 0.61143 0.37207 0.0
C5035 C 0.57331 0.6407 0.35201 0.0
C5036 C 0.33892 0.07706 0.36597 0.0
C5037 C 0.34218 0.06939 0.38244 0.0
H5038 H 0.34845 0.08168 0.33993 0.0
C5039 C 0.35687 0.05849 0.38452 0.0
H5040 H 0.32762 0.08547 0.36399 0.0
C5041 C 0.36886 0.05648 0.37081 0.0
C5042 C 0.36625 0.06518 0.35475 0.0
H5043 H 0.35971 0.05241 0.39706 0.0
H5044 H 0.38058 0.04874 0.37306 0.0
C5045 C 0.35082 0.0749 0.3522 0.0
C5046 C 0.94277 0.86871 0.3689 0.0
C5047 C 0.93412 0.86542 0.35292 0.0
H5048 H 0.94669 0.86067 0.39556 0.0
C5049 C 0.92462 0.84979 0.35092 0.0
H5050 H 0.95033 0.88062 0.37075 0.0
C5051 C 0.9225 0.83843 0.36514 0.0
C5052 C 0.92995 0.84246 0.38154 0.0
H5053 H 0.9179 0.84687 0.33874 0.0
H5054 H 0.91421 0.82699 0.36354 0.0
C5055 C 0.94076 0.85727 0.38309 0.0
C5056 C 0.12439 0.62314 0.55675 0.0
C5057 C 0.14069 0.62631 0.56483 0.0
H5058 H 0.09811 0.63221 0.55249 0.0
C5059 C 0.1436 0.64248 0.57312 0.0
H5060 H 0.12185 0.61083 0.5501 0.0
C5061 C 0.12999 0.65469 0.5745 0.0
C5062 C 0.11331 0.65099 0.56749 0.0
H5063 H 0.15606 0.64532 0.57935 0.0
H5064 H 0.13229 0.66665 0.58183 0.0
C5065 C 0.11083 0.63542 0.558 0.0
C5066 C 0.12934 0.84121 0.91949 0.0
C5067 C 0.11288 0.84477 0.92706 0.0
H5068 H 0.15541 0.8505 0.91447 0.0
C5069 C 0.11083 0.85989 0.93735 0.0
H5070 H 0.13131 0.82958 0.91154 0.0
C5071 C 0.12457 0.87193 0.93886 0.0
C5072 C 0.14063 0.86895 0.93026 0.0
H5073 H 0.0983 0.86297 0.94332 0.0
H5074 H 0.12235 0.88394 0.94614 0.0
C5075 C 0.14314 0.85317 0.92114 0.0
C5076 C 0.14269 0.64366 0.92383 0.0
C5077 C 0.12649 0.64053 0.932 0.0
H5078 H 0.16687 0.63258 0.91484 0.0
C5079 C 0.12331 0.62403 0.93965 0.0
H5080 H 0.14553 0.65627 0.91793 0.0
C5081 C 0.1356 0.61051 0.93805 0.0
C5082 C 0.15118 0.61324 0.92863 0.0
H5083 H 0.11098 0.62132 0.94619 0.0
H5084 H 0.13238 0.59766 0.94319 0.0
C5085 C 0.1549 0.6301 0.9221 0.0
C5086 C 0.36834 0.65603 0.92079 0.0
C5087 C 0.3848 0.65214 0.92823 0.0
H5088 H 0.34203 0.64728 0.91605 0.0
C5089 C 0.38662 0.63704 0.93859 0.0
H5090 H 0.36655 0.66765 0.9128 0.0
C5091 C 0.37263 0.62532 0.9403 0.0
C5092 C 0.35655 0.6286 0.93181 0.0
H5093 H 0.39914 0.63372 0.94447 0.0
H5094 H 0.37467 0.61329 0.9476 0.0
C5095 C 0.3543 0.64439 0.92265 0.0
C5096 C 0.37115 0.37022 0.43699 0.0
C5097 C 0.36925 0.35457 0.4274 0.0
H5098 H 0.36145 0.39618 0.44173 0.0
C5099 C 0.35461 0.35247 0.41643 0.0
H5100 H 0.38228 0.37212 0.44565 0.0
C5101 C 0.34281 0.36629 0.41408 0.0
C5102 C 0.34533 0.38234 0.42284 0.0
H5103 H 0.35282 0.34053 0.40892 0.0
H5104 H 0.33212 0.36466 0.40484 0.0
C5105 C 0.35921 0.38397 0.43481 0.0
C5106 C 0.86787 0.33819 0.57519 0.0
C5107 C 0.88413 0.34212 0.56737 0.0
H5108 H 0.84155 0.34673 0.58025 0.0
C5109 C 0.88558 0.35705 0.55672 0.0
H5110 H 0.86637 0.32669 0.58341 0.0
C5111 C 0.87142 0.36858 0.55506 0.0
C5112 C 0.85554 0.36527 0.56388 0.0
H5113 H 0.89794 0.3604 0.55054 0.0
H5114 H 0.87318 0.38049 0.5475 0.0
C5115 C 0.85365 0.34963 0.57338 0.0
C5116 C 0.12619 0.37016 0.05578 0.0
C5117 C 0.12913 0.35394 0.06408 0.0
H5118 H 0.13506 0.39656 0.05204 0.0
C5119 C 0.14483 0.35129 0.07333 0.0
H5120 H 0.11425 0.37249 0.04841 0.0
C5121 C 0.1567 0.36511 0.07547 0.0
C5122 C 0.15312 0.38172 0.06824 0.0
H5123 H 0.14746 0.33891 0.07979 0.0
H5124 H 0.16822 0.36303 0.08354 0.0
C5125 C 0.13814 0.38392 0.05776 0.0
C5126 C 0.34025 0.13093 0.07188 0.0
C5127 C 0.34416 0.11447 0.06451 0.0
H5128 H 0.34908 0.15713 0.0768 0.0
C5129 C 0.35923 0.11266 0.05409 0.0
H5130 H 0.32862 0.13272 0.07987 0.0
C5131 C 0.37101 0.12662 0.05245 0.0
C5132 C 0.36781 0.14262 0.06108 0.0
H5133 H 0.36255 0.10014 0.04824 0.0
H5134 H 0.38309 0.12456 0.04523 0.0
C5135 C 0.35195 0.14491 0.07013 0.0
C5136 C 0.94338 0.37045 0.36883 0.0
C5137 C 0.93495 0.35447 0.36504 0.0
H5138 H 0.94723 0.39731 0.36139 0.0
C5139 C 0.92574 0.35274 0.3492 0.0
H5140 H 0.95069 0.37212 0.38092 0.0
C5141 C 0.92372 0.36717 0.33809 0.0
C5142 C 0.93098 0.38354 0.34257 0.0
H5143 H 0.91918 0.34057 0.34589 0.0
H5144 H 0.91566 0.36574 0.32645 0.0
C5145 C 0.94147 0.38487 0.35764 0.0
C5146 C 0.64408 0.42125 0.35447 0.0
C5147 C 0.64116 0.43118 0.36969 0.0
H5148 H 0.63291 0.41043 0.33109 0.0
C5149 C 0.62502 0.4399 0.37177 0.0
H5150 H 0.65641 0.41443 0.3525 0.0
C5151 C 0.61163 0.43779 0.35941 0.0
C5152 C 0.61411 0.42674 0.3449 0.0
H5153 H 0.62247 0.44776 0.38334 0.0
H5154 H 0.59903 0.44394 0.36179 0.0
C5155 C 0.63063 0.41896 0.34223 0.0
C5156 C 0.57907 0.12769 0.34008 0.0
C5157 C 0.56954 0.11218 0.34312 0.0
H5158 H 0.58495 0.15373 0.34884 0.0
C5159 C 0.55685 0.11189 0.35644 0.0
H5160 H 0.58885 0.1283 0.32978 0.0
C5161 C 0.55474 0.12641 0.36744 0.0
C5162 C 0.56512 0.1415 0.36513 0.0
H5163 H 0.54931 0.10012 0.35902 0.0
H5164 H 0.54555 0.12551 0.37826 0.0
C5165 C 0.5768 0.14227 0.35093 0.0
C5166 C 0.87155 0.05697 0.37002 0.0
C5167 C 0.85595 0.06655 0.36763 0.0
H5168 H 0.89759 0.05178 0.36076 0.0
C5169 C 0.85405 0.07706 0.35264 0.0
H5170 H 0.87329 0.04866 0.38142 0.0
C5171 C 0.86801 0.07894 0.34092 0.0
C5172 C 0.88399 0.07018 0.34387 0.0
H5173 H 0.84215 0.08454 0.35047 0.0
H5174 H 0.86653 0.08783 0.32992 0.0
C5175 C 0.88543 0.05868 0.35817 0.0
C5176 C 0.9374 0.60955 0.63656 0.0
C5177 C 0.92689 0.61153 0.65152 0.0
H5178 H 0.94654 0.62117 0.6127 0.0
C5179 C 0.9193 0.62798 0.65507 0.0
H5180 H 0.9434 0.59703 0.6335 0.0
C5181 C 0.92113 0.64183 0.64321 0.0
C5182 C 0.93045 0.63939 0.62754 0.0
H5183 H 0.91119 0.6299 0.66659 0.0
H5184 H 0.91442 0.65409 0.64584 0.0
C5185 C 0.9391 0.62335 0.62461 0.0
C5186 C 0.36726 0.41913 0.65574 0.0
C5187 C 0.38351 0.42711 0.65208 0.0
H5188 H 0.34108 0.41397 0.64683 0.0
C5189 C 0.38503 0.43799 0.63732 0.0
H5190 H 0.3657 0.41074 0.6671 0.0
C5191 C 0.37099 0.43969 0.62565 0.0
C5192 C 0.35515 0.43069 0.62867 0.0
H5193 H 0.39739 0.4443 0.63419 0.0
H5194 H 0.37282 0.44742 0.61386 0.0
C5195 C 0.35316 0.42098 0.64416 0.0
C5196 C 0.55523 0.88292 0.63856 0.0
C5197 C 0.56625 0.88152 0.65324 0.0
H5198 H 0.54536 0.87036 0.61545 0.0
C5199 C 0.57388 0.86519 0.65723 0.0
H5200 H 0.54917 0.89532 0.63518 0.0
C5201 C 0.57167 0.85088 0.646 0.0
C5202 C 0.56189 0.85271 0.63051 0.0
H5203 H 0.58235 0.86371 0.66856 0.0
H5204 H 0.5785 0.83876 0.6489 0.0
C5205 C 0.55312 0.86863 0.62724 0.0
C5206 C 0.11105 0.06082 0.63592 0.0
C5207 C 0.11348 0.07178 0.65051 0.0
H5208 H 0.12195 0.051 0.61198 0.0
C5209 C 0.12994 0.07969 0.6532 0.0
H5210 H 0.09849 0.05459 0.63352 0.0
C5211 C 0.1434 0.07756 0.64095 0.0
C5212 C 0.14053 0.06765 0.62571 0.0
H5213 H 0.13218 0.08815 0.6644 0.0
H5214 H 0.15569 0.08441 0.64297 0.0
C5215 C 0.12444 0.05886 0.62356 0.0
C5216 C 0.87307 0.44099 0.37146 0.0
C5217 C 0.86981 0.43367 0.35483 0.0
H5218 H 0.86408 0.44408 0.39791 0.0
C5219 C 0.85355 0.42569 0.35157 0.0
H5220 H 0.88546 0.44739 0.37428 0.0
C5221 C 0.84134 0.42377 0.36511 0.0
C5222 C 0.84515 0.42993 0.38209 0.0
H5223 H 0.85064 0.42003 0.33886 0.0
H5224 H 0.82932 0.41663 0.36251 0.0
C5225 C 0.8608 0.43921 0.38497 0.0
C5226 C 0.5772 0.35208 0.3519 0.0
C5227 C 0.56575 0.36644 0.35316 0.0
H5228 H 0.58911 0.33041 0.36521 0.0
C5229 C 0.55556 0.36852 0.3684 0.0
H5230 H 0.58519 0.35013 0.34031 0.0
C5231 C 0.55769 0.35713 0.38262 0.0
C5232 C 0.57019 0.34364 0.38187 0.0
H5233 H 0.54654 0.37944 0.36966 0.0
H5234 H 0.55033 0.35956 0.39454 0.0
C5235 C 0.57948 0.34083 0.36618 0.0
C5236 C 0.62322 0.05006 0.37065 0.0
C5237 C 0.62674 0.05736 0.35406 0.0
H5238 H 0.63172 0.04724 0.39732 0.0
C5239 C 0.64308 0.06528 0.35106 0.0
H5240 H 0.61076 0.04375 0.3733 0.0
C5241 C 0.65503 0.06731 0.36482 0.0
C5242 C 0.65089 0.06134 0.38177 0.0
H5243 H 0.64621 0.07092 0.33839 0.0
H5244 H 0.66708 0.07447 0.36239 0.0
C5245 C 0.63524 0.05198 0.3844 0.0
C5246 C 0.92092 0.15429 0.36457 0.0
C5247 C 0.92922 0.15124 0.38076 0.0
H5248 H 0.91639 0.14512 0.33841 0.0
C5249 C 0.94133 0.13744 0.38219 0.0
H5250 H 0.91162 0.16495 0.36306 0.0
C5251 C 0.94395 0.12599 0.36809 0.0
C5252 C 0.93465 0.12831 0.35231 0.0
H5253 H 0.94793 0.13483 0.39451 0.0
H5254 H 0.95256 0.11482 0.36986 0.0
C5255 C 0.92369 0.14299 0.35042 0.0
C5256 C 0.87002 0.55364 0.62442 0.0
C5257 C 0.86687 0.56251 0.64029 0.0
H5258 H 0.86165 0.54917 0.59796 0.0
C5259 C 0.85128 0.57211 0.64227 0.0
H5260 H 0.88188 0.54601 0.6226 0.0
C5261 C 0.83976 0.57398 0.62813 0.0
C5262 C 0.84357 0.56615 0.61185 0.0
H5263 H 0.8485 0.57901 0.65438 0.0
H5264 H 0.82833 0.5823 0.62968 0.0
C5265 C 0.85841 0.55537 0.61033 0.0
C5266 C 0.44232 0.37126 0.62432 0.0
C5267 C 0.43441 0.36787 0.64065 0.0
H5268 H 0.44573 0.3629 0.59769 0.0
C5269 C 0.42564 0.35189 0.64321 0.0
H5270 H 0.4493 0.38343 0.62203 0.0
C5271 C 0.42353 0.3402 0.62924 0.0
C5272 C 0.4303 0.34421 0.61255 0.0
H5273 H 0.41948 0.3489 0.65566 0.0
H5274 H 0.4158 0.32845 0.6313 0.0
C5275 C 0.44036 0.35948 0.6104 0.0
C5276 C 0.62348 0.93879 0.62361 0.0
C5277 C 0.62695 0.93101 0.63998 0.0
H5278 H 0.63198 0.94241 0.59707 0.0
C5279 C 0.64314 0.92267 0.64271 0.0
H5280 H 0.61116 0.94547 0.6212 0.0
C5281 C 0.65503 0.92089 0.62888 0.0
C5282 C 0.65098 0.92755 0.61214 0.0
H5283 H 0.6462 0.91666 0.65522 0.0
H5284 H 0.66698 0.9135 0.63106 0.0
C5285 C 0.63544 0.93715 0.60981 0.0
C5286 C 0.07714 0.14522 0.64365 0.0
C5287 C 0.06523 0.13121 0.64274 0.0
H5288 H 0.08957 0.16627 0.62987 0.0
C5289 C 0.0548 0.12921 0.62764 0.0
H5290 H 0.08533 0.14707 0.65512 0.0
C5291 C 0.05712 0.14029 0.61322 0.0
C5292 C 0.07006 0.15337 0.61362 0.0
H5293 H 0.04544 0.11855 0.62664 0.0
H5294 H 0.04955 0.13791 0.60142 0.0
C5295 C 0.07961 0.15614 0.62917 0.0
C5296 C 0.86656 0.34093 0.41252 0.0
C5297 C 0.88234 0.34319 0.42183 0.0
H5298 H 0.84087 0.35101 0.40701 0.0
C5299 C 0.88352 0.35657 0.43441 0.0
H5300 H 0.86528 0.33063 0.40281 0.0
C5301 C 0.86963 0.36832 0.43666 0.0
C5302 C 0.85428 0.36673 0.42654 0.0
H5303 H 0.89551 0.3586 0.44178 0.0
H5304 H 0.87121 0.37908 0.44581 0.0
C5305 C 0.85258 0.35254 0.41494 0.0
C5306 C 0.87064 0.12345 0.0595 0.0
C5307 C 0.85479 0.12555 0.06872 0.0
H5308 H 0.89652 0.13335 0.05469 0.0
C5309 C 0.85229 0.14064 0.07896 0.0
H5310 H 0.87285 0.11199 0.05138 0.0
C5311 C 0.86587 0.15279 0.08092 0.0
C5312 C 0.8821 0.15015 0.07252 0.0
H5313 H 0.84018 0.14261 0.08615 0.0
H5314 H 0.86392 0.16387 0.0896 0.0
C5315 C 0.88416 0.13571 0.0613 0.0
C5316 C 0.85961 0.38441 0.05194 0.0
C5317 C 0.84414 0.38226 0.06169 0.0
H5318 H 0.88368 0.37268 0.04338 0.0
C5319 C 0.83979 0.3655 0.06805 0.0
H5320 H 0.86327 0.39717 0.04687 0.0
C5321 C 0.85141 0.35147 0.06602 0.0
C5322 C 0.86764 0.35401 0.0577 0.0
H5323 H 0.82786 0.36344 0.07551 0.0
H5324 H 0.84817 0.33897 0.07197 0.0
C5325 C 0.87131 0.37039 0.05001 0.0
C5326 C 0.61107 0.35893 0.0583 0.0
C5327 C 0.61311 0.34447 0.06951 0.0
H5328 H 0.62249 0.38254 0.04829 0.0
C5329 C 0.62943 0.34161 0.07766 0.0
H5330 H 0.59864 0.36144 0.05187 0.0
C5331 C 0.64313 0.3536 0.07552 0.0
C5332 C 0.64064 0.36874 0.06536 0.0
H5333 H 0.63138 0.3305 0.08631 0.0
H5334 H 0.6553 0.35149 0.08257 0.0
C5335 C 0.6247 0.37103 0.05634 0.0
C5336 C 0.62294 0.62332 0.55064 0.0
C5337 C 0.62647 0.63987 0.55804 0.0
H5338 H 0.63139 0.59666 0.54764 0.0
C5339 C 0.64276 0.64276 0.56613 0.0
H5340 H 0.61052 0.62076 0.5442 0.0
C5341 C 0.65466 0.62896 0.56812 0.0
C5342 C 0.65053 0.61206 0.56197 0.0
H5343 H 0.64589 0.65539 0.57186 0.0
H5344 H 0.66668 0.63131 0.57536 0.0
C5345 C 0.63492 0.60953 0.55253 0.0
C5346 C 0.11183 0.63869 0.43525 0.0
C5347 C 0.11323 0.65226 0.4229 0.0
H5348 H 0.124 0.61609 0.44666 0.0
C5349 C 0.12925 0.65478 0.41408 0.0
H5350 H 0.09964 0.63646 0.44223 0.0
C5351 C 0.14326 0.64325 0.41674 0.0
C5352 C 0.14136 0.62888 0.42807 0.0
H5353 H 0.13071 0.66523 0.40455 0.0
H5354 H 0.15516 0.64499 0.40916 0.0
C5355 C 0.12575 0.62702 0.43773 0.0
C5356 C 0.84011 0.62892 0.91913 0.0
C5357 C 0.84352 0.61258 0.92702 0.0
H5358 H 0.8496 0.65483 0.91375 0.0
C5359 C 0.85851 0.61064 0.93754 0.0
H5360 H 0.82859 0.63079 0.911 0.0
C5361 C 0.87061 0.62434 0.93894 0.0
C5362 C 0.86782 0.64024 0.93 0.0
H5363 H 0.86147 0.59821 0.94376 0.0
H5364 H 0.88253 0.62218 0.94639 0.0
C5365 C 0.85213 0.64268 0.92068 0.0
C5366 C 0.64355 0.85267 0.92577 0.0
C5367 C 0.62753 0.85482 0.93456 0.0
H5368 H 0.66689 0.86506 0.91632 0.0
C5369 C 0.62398 0.87086 0.943 0.0
H5370 H 0.64669 0.84043 0.91926 0.0
C5371 C 0.63561 0.88496 0.94142 0.0
C5372 C 0.65088 0.88324 0.93128 0.0
H5373 H 0.61177 0.87283 0.95 0.0
H5374 H 0.63205 0.89748 0.94711 0.0
C5375 C 0.65511 0.86678 0.92409 0.0
C5376 C 0.57435 0.1442 0.64339 0.0
C5377 C 0.56505 0.14175 0.6277 0.0
H5378 H 0.58436 0.13225 0.66674 0.0
C5379 C 0.55643 0.12569 0.62475 0.0
H5380 H 0.58103 0.15647 0.64603 0.0
C5381 C 0.55818 0.11187 0.63667 0.0
C5382 C 0.56872 0.11386 0.65163 0.0
H5383 H 0.54901 0.12351 0.61282 0.0
H5384 H 0.55223 0.09934 0.63357 0.0
C5385 C 0.57624 0.13033 0.65523 0.0
C5386 C 0.85451 0.07417 0.64147 0.0
C5387 C 0.85688 0.0648 0.62582 0.0
H5388 H 0.86649 0.08396 0.6649 0.0
C5389 C 0.87285 0.05598 0.62294 0.0
H5390 H 0.84232 0.08102 0.64406 0.0
C5391 C 0.88663 0.0575 0.63494 0.0
C5392 C 0.88472 0.06802 0.64991 0.0
H5393 H 0.87497 0.04851 0.61103 0.0
H5394 H 0.8991 0.05135 0.63193 0.0
C5395 C 0.86835 0.07583 0.65338 0.0
C5396 C 0.92309 0.36382 0.65484 0.0
C5397 C 0.92998 0.38056 0.65125 0.0
H5398 H 0.91915 0.33756 0.64561 0.0
C5399 C 0.94038 0.38294 0.63625 0.0
H5400 H 0.91509 0.36159 0.66638 0.0
C5401 C 0.94256 0.36921 0.62429 0.0
C5402 C 0.93453 0.35286 0.62723 0.0
H5403 H 0.94586 0.39569 0.63316 0.0
H5404 H 0.94981 0.37169 0.61232 0.0
C5405 C 0.92541 0.35005 0.64297 0.0
C5406 C 0.62947 0.41482 0.65351 0.0
C5407 C 0.61348 0.42373 0.65111 0.0
H5408 H 0.65509 0.40936 0.64328 0.0
C5409 C 0.61185 0.43569 0.63722 0.0
H5410 H 0.6311 0.40558 0.66419 0.0
C5411 C 0.6255 0.43769 0.62516 0.0
C5412 C 0.64108 0.42794 0.62694 0.0
H5413 H 0.59967 0.44273 0.63507 0.0
H5414 H 0.62358 0.44634 0.61404 0.0
C5415 C 0.64321 0.41699 0.64158 0.0
C5416 C 0.57728 0.86717 0.33949 0.0
C5417 C 0.56787 0.88272 0.34265 0.0
H5418 H 0.58295 0.84101 0.34802 0.0
C5419 C 0.55513 0.88298 0.35592 0.0
H5420 H 0.58709 0.86658 0.32922 0.0
C5421 C 0.55287 0.86837 0.36678 0.0
C5422 C 0.56316 0.85323 0.36437 0.0
H5423 H 0.54767 0.89479 0.3586 0.0
H5424 H 0.54367 0.86924 0.37759 0.0
C5425 C 0.57486 0.8525 0.35019 0.0
C5426 C 0.11052 0.05767 0.36028 0.0
C5427 C 0.1119 0.06968 0.34641 0.0
H5428 H 0.12256 0.04711 0.38338 0.0
C5429 C 0.12778 0.07875 0.34392 0.0
H5430 H 0.09843 0.05051 0.3625 0.0
C5431 C 0.14165 0.07669 0.35574 0.0
C5432 C 0.13977 0.06569 0.37038 0.0
H5433 H 0.12923 0.08803 0.33325 0.0
H5434 H 0.15342 0.08446 0.35397 0.0
C5435 C 0.1243 0.05578 0.37225 0.0
C5436 C 0.92249 0.64374 0.3544 0.0
C5437 C 0.9319 0.64079 0.36994 0.0
H5438 H 0.91206 0.6325 0.33088 0.0
C5439 C 0.94019 0.62449 0.3725 0.0
H5440 H 0.91602 0.65618 0.35206 0.0
C5441 C 0.93809 0.61098 0.36027 0.0
C5442 C 0.9275 0.61351 0.34543 0.0
H5443 H 0.94766 0.62191 0.38432 0.0
H5444 H 0.94385 0.59827 0.36301 0.0
C5445 C 0.92022 0.63017 0.34229 0.0
C5446 C 0.37099 0.44291 0.36904 0.0
C5447 C 0.35519 0.43402 0.36547 0.0
H5448 H 0.39769 0.44735 0.36138 0.0
C5449 C 0.35359 0.42455 0.34978 0.0
H5450 H 0.37254 0.45043 0.38101 0.0
C5451 C 0.36801 0.42274 0.33861 0.0
C5452 C 0.38422 0.43049 0.34287 0.0
H5453 H 0.34156 0.41764 0.34665 0.0
H5454 H 0.36671 0.41451 0.3271 0.0
C5455 C 0.38538 0.44121 0.35779 0.0
C5456 C 0.65691 0.07559 0.62887 0.0
C5457 C 0.65314 0.06821 0.61238 0.0
H5458 H 0.64792 0.08034 0.65508 0.0
C5459 C 0.638 0.05791 0.6104 0.0
H5460 H 0.66855 0.08354 0.63077 0.0
C5461 C 0.62613 0.05623 0.62427 0.0
C5462 C 0.62929 0.06468 0.64038 0.0
H5463 H 0.63477 0.05207 0.59785 0.0
H5464 H 0.61409 0.04899 0.62211 0.0
C5465 C 0.64512 0.07377 0.64279 0.0
C5466 C 0.94407 0.12355 0.62365 0.0
C5467 C 0.9354 0.12693 0.63959 0.0
H5468 H 0.94847 0.13174 0.59711 0.0
C5469 C 0.92616 0.14273 0.6416 0.0
H5470 H 0.95142 0.11152 0.62179 0.0
C5471 C 0.92441 0.15423 0.62743 0.0
C5472 C 0.932 0.15022 0.6111 0.0
H5473 H 0.91941 0.1457 0.65374 0.0
H5474 H 0.91635 0.16584 0.62903 0.0
C5475 C 0.94246 0.13515 0.60953 0.0
C5476 C 0.87068 0.4371 0.62434 0.0
C5477 C 0.86773 0.42847 0.64039 0.0
H5478 H 0.86177 0.44143 0.59804 0.0
C5479 C 0.852 0.41925 0.64286 0.0
H5480 H 0.88264 0.44446 0.62215 0.0
C5481 C 0.84009 0.41748 0.62903 0.0
C5482 C 0.84366 0.42503 0.61257 0.0
H5483 H 0.84935 0.41256 0.65512 0.0
H5484 H 0.82852 0.40943 0.63096 0.0
C5485 C 0.85869 0.43547 0.61056 0.0
C5486 C 0.55207 0.36988 0.62601 0.0
C5487 C 0.56128 0.36644 0.64165 0.0
H5488 H 0.54719 0.36208 0.59944 0.0
C5489 C 0.57089 0.35081 0.64315 0.0
H5490 H 0.54443 0.38179 0.62455 0.0
C5491 C 0.57252 0.3396 0.62875 0.0
C5492 C 0.56445 0.34376 0.61267 0.0
H5493 H 0.57804 0.34779 0.65505 0.0
H5494 H 0.58087 0.32816 0.62994 0.0
C5495 C 0.55358 0.35858 0.61165 0.0
C5496 C 0.62179 0.94448 0.37088 0.0
C5497 C 0.62541 0.93743 0.35421 0.0
H5498 H 0.63025 0.94712 0.39759 0.0
C5499 C 0.64188 0.92979 0.35112 0.0
H5500 H 0.60924 0.95058 0.3736 0.0
C5501 C 0.65386 0.92779 0.36484 0.0
C5502 C 0.64963 0.93349 0.38187 0.0
H5503 H 0.64508 0.92435 0.33838 0.0
H5504 H 0.66601 0.92084 0.36233 0.0
C5505 C 0.63384 0.94258 0.38461 0.0
C5506 C 0.06878 0.15432 0.36736 0.0
C5507 C 0.06111 0.15023 0.38362 0.0
H5508 H 0.07413 0.14581 0.34114 0.0
C5509 C 0.05065 0.13515 0.38507 0.0
H5510 H 0.07681 0.16596 0.36584 0.0
C5511 C 0.04922 0.12355 0.37094 0.0
C5512 C 0.05811 0.12694 0.35512 0.0
H5513 H 0.04457 0.1317 0.39745 0.0
H5514 H 0.04196 0.11146 0.37273 0.0
C5515 C 0.06724 0.14281 0.3532 0.0
C5516 C 0.8684 0.55621 0.36901 0.0
C5517 C 0.86644 0.56607 0.35354 0.0
H5518 H 0.85907 0.55139 0.3951 0.0
C5519 C 0.85197 0.57733 0.35182 0.0
H5520 H 0.8794 0.54735 0.37063 0.0
C5521 C 0.84046 0.57974 0.36585 0.0
C5522 C 0.84311 0.57078 0.38176 0.0
H5523 H 0.85011 0.58505 0.34003 0.0
H5524 H 0.82994 0.58921 0.36451 0.0
C5525 C 0.85675 0.55847 0.38299 0.0
C5526 C 0.42554 0.34183 0.3652 0.0
C5527 C 0.43192 0.34561 0.3821 0.0
H5528 H 0.42146 0.35116 0.339 0.0
C5529 C 0.44126 0.36124 0.38487 0.0
H5530 H 0.41835 0.32983 0.36268 0.0
C5531 C 0.44288 0.37352 0.37134 0.0
C5532 C 0.43534 0.37029 0.3548 0.0
H5533 H 0.4463 0.3645 0.39776 0.0
H5534 H 0.44932 0.38589 0.3741 0.0
C5535 C 0.4273 0.35404 0.35164 0.0
C5536 C 0.63066 0.1561 0.57451 0.0
C5537 C 0.61417 0.15242 0.56703 0.0
H5538 H 0.65686 0.14704 0.57926 0.0
C5539 C 0.61222 0.13742 0.55656 0.0
H5540 H 0.63255 0.16765 0.58259 0.0
C5541 C 0.6261 0.12556 0.55481 0.0
C5542 C 0.64218 0.12861 0.56336 0.0
H5543 H 0.59968 0.13426 0.55064 0.0
H5544 H 0.62395 0.1136 0.54743 0.0
C5545 C 0.64458 0.14433 0.57262 0.0
C5546 C 0.61121 0.36037 0.93399 0.0
C5547 C 0.61357 0.34577 0.92304 0.0
H5548 H 0.62207 0.38443 0.94356 0.0
C5549 C 0.6299 0.34322 0.91482 0.0
H5550 H 0.59875 0.36266 0.94046 0.0
C5551 C 0.64328 0.35561 0.91666 0.0
C5552 C 0.64046 0.37083 0.92659 0.0
H5553 H 0.63209 0.33201 0.90635 0.0
H5554 H 0.65547 0.35368 0.90959 0.0
C5555 C 0.62452 0.37286 0.93567 0.0
C5556 C 0.63476 0.11175 0.94538 0.0
C5557 C 0.65029 0.11413 0.93578 0.0
H5558 H 0.61045 0.12314 0.95372 0.0
C5559 C 0.65453 0.13098 0.92959 0.0
H5560 H 0.63118 0.09891 0.95032 0.0
C5561 C 0.64274 0.14486 0.93159 0.0
C5562 C 0.62644 0.14207 0.93968 0.0
H5563 H 0.66652 0.13321 0.92227 0.0
H5564 H 0.64589 0.15742 0.92573 0.0
C5565 C 0.62288 0.12561 0.94726 0.0
C5566 C 0.88466 0.13828 0.93573 0.0
C5567 C 0.8831 0.15234 0.92396 0.0
H5568 H 0.87248 0.11542 0.94658 0.0
C5569 C 0.86689 0.1554 0.91566 0.0
H5570 H 0.89699 0.13563 0.9423 0.0
C5571 C 0.85281 0.14395 0.91822 0.0
C5572 C 0.8548 0.12914 0.92895 0.0
H5573 H 0.86531 0.16624 0.90659 0.0
H5574 H 0.84073 0.14615 0.91103 0.0
C5575 C 0.87065 0.1267 0.93811 0.0
C5576 C 0.8403 0.86547 0.42138 0.0
C5577 C 0.84407 0.8822 0.42822 0.0
H5578 H 0.84957 0.83933 0.4168 0.0
C5579 C 0.85961 0.88467 0.4378 0.0
H5580 H 0.82836 0.86318 0.41399 0.0
C5581 C 0.87182 0.87106 0.43924 0.0
C5582 C 0.86861 0.85472 0.43127 0.0
H5583 H 0.86287 0.89741 0.44319 0.0
H5584 H 0.88412 0.87359 0.44591 0.0
C5585 C 0.85244 0.85182 0.42296 0.0
C5586 C 0.36604 0.84245 0.57025 0.0
C5587 C 0.3829 0.84634 0.56381 0.0
H5588 H 0.3398 0.85163 0.57447 0.0
C5589 C 0.38555 0.86202 0.55454 0.0
H5590 H 0.36361 0.8304 0.57739 0.0
C5591 C 0.37194 0.87424 0.55302 0.0
C5592 C 0.35544 0.87089 0.56061 0.0
H5593 H 0.3984 0.86536 0.54945 0.0
H5594 H 0.3746 0.88665 0.54662 0.0
C5595 C 0.3524 0.8546 0.5686 0.0
C5596 C 0.62221 0.87134 0.05291 0.0
C5597 C 0.62567 0.85481 0.06038 0.0
H5598 H 0.63086 0.89788 0.0496 0.0
C5599 C 0.642 0.85183 0.06836 0.0
H5600 H 0.60978 0.87396 0.04652 0.0
C5601 C 0.65403 0.86555 0.07016 0.0
C5602 C 0.65 0.88244 0.06388 0.0
H5603 H 0.64505 0.83921 0.07415 0.0
H5604 H 0.66609 0.86316 0.07733 0.0
C5605 C 0.63432 0.88502 0.05457 0.0
C5606 C 0.85217 0.6434 0.07236 0.0
C5607 C 0.86827 0.64049 0.06391 0.0
H5608 H 0.82816 0.63207 0.08148 0.0
C5609 C 0.87142 0.62414 0.05595 0.0
H5610 H 0.84936 0.6559 0.07851 0.0
C5611 C 0.85921 0.61055 0.05747 0.0
C5612 C 0.84374 0.61304 0.06713 0.0
H5613 H 0.88366 0.62159 0.04918 0.0
H5614 H 0.86241 0.5978 0.05204 0.0
C5615 C 0.84004 0.62976 0.07402 0.0
C5616 C 0.4416 0.87091 0.37312 0.0
C5617 C 0.43406 0.85438 0.36983 0.0
H5618 H 0.4451 0.89732 0.36416 0.0
C5619 C 0.42617 0.85122 0.35351 0.0
H5620 H 0.44794 0.87365 0.38555 0.0
C5621 C 0.42452 0.86479 0.34129 0.0
C5622 C 0.43087 0.88169 0.34514 0.0
H5623 H 0.42035 0.83859 0.35057 0.0
H5624 H 0.41742 0.86228 0.32923 0.0
C5625 C 0.44009 0.88444 0.36084 0.0
C5626 C 0.11024 0.94232 0.35984 0.0
C5627 C 0.11231 0.93267 0.3443 0.0
H5628 H 0.12201 0.95055 0.38398 0.0
C5629 C 0.12896 0.92595 0.34004 0.0
H5630 H 0.09755 0.94764 0.36344 0.0
C5631 C 0.14296 0.92764 0.35174 0.0
C5632 C 0.1405 0.93598 0.36796 0.0
H5633 H 0.13095 0.91854 0.32807 0.0
H5634 H 0.15539 0.92151 0.34853 0.0
C5635 C 0.12422 0.9439 0.37162 0.0
C5636 C 0.07061 0.64273 0.34924 0.0
C5637 C 0.06143 0.64089 0.36508 0.0
H5638 H 0.08068 0.62989 0.32642 0.0
C5639 C 0.05304 0.62487 0.36878 0.0
H5640 H 0.07714 0.65494 0.34599 0.0
C5641 C 0.05496 0.61052 0.35751 0.0
C5642 C 0.06543 0.61196 0.34244 0.0
H5643 H 0.04574 0.62313 0.38086 0.0
H5644 H 0.04924 0.59805 0.36121 0.0
C5645 C 0.07265 0.62837 0.33805 0.0
C5646 C 0.36622 0.57662 0.34186 0.0
C5647 C 0.38252 0.56846 0.34477 0.0
H5648 H 0.3402 0.58122 0.35145 0.0
C5649 C 0.38432 0.55676 0.35887 0.0
H5650 H 0.36445 0.58562 0.331 0.0
C5651 C 0.37049 0.5544 0.37068 0.0
C5652 C 0.35459 0.56351 0.36842 0.0
H5653 H 0.39673 0.55029 0.3614 0.0
H5654 H 0.37254 0.54606 0.38201 0.0
C5655 C 0.35232 0.57408 0.35353 0.0
C5656 C 0.43967 0.11043 0.63683 0.0
C5657 C 0.42898 0.11199 0.65173 0.0
H5658 H 0.44891 0.12266 0.61331 0.0
C5659 C 0.42122 0.1283 0.65557 0.0
H5660 H 0.44581 0.09803 0.63356 0.0
C5661 C 0.42307 0.14243 0.64405 0.0
C5662 C 0.43255 0.14041 0.62842 0.0
H5663 H 0.41299 0.12989 0.66705 0.0
H5664 H 0.4162 0.15456 0.64687 0.0
C5665 C 0.44136 0.12451 0.62522 0.0
C5666 C 0.88485 0.93795 0.63565 0.0
C5667 C 0.88273 0.92777 0.65083 0.0
H5668 H 0.8733 0.94677 0.61162 0.0
C5669 C 0.86616 0.92053 0.65457 0.0
H5670 H 0.89746 0.94367 0.63244 0.0
C5671 C 0.8523 0.92236 0.64271 0.0
C5672 C 0.85485 0.93131 0.62684 0.0
H5673 H 0.86415 0.91269 0.66626 0.0
H5674 H 0.83994 0.9159 0.6455 0.0
C5675 C 0.87103 0.93963 0.6237 0.0
C5676 C 0.05346 0.37028 0.62434 0.0
C5677 C 0.06276 0.35468 0.62765 0.0
H5678 H 0.04839 0.39675 0.63238 0.0
C5679 C 0.0724 0.35312 0.64326 0.0
H5680 H 0.04579 0.37178 0.61245 0.0
C5681 C 0.07393 0.36743 0.65459 0.0
C5682 C 0.06574 0.38347 0.65058 0.0
H5683 H 0.07963 0.34123 0.64619 0.0
H5684 H 0.08229 0.36619 0.66603 0.0
C5685 C 0.05487 0.38456 0.63576 0.0
C5686 C 0.63045 0.57876 0.65286 0.0
C5687 C 0.61417 0.57042 0.65032 0.0
H5688 H 0.65608 0.58388 0.6425 0.0
C5689 C 0.61201 0.55907 0.636 0.0
H5690 H 0.63248 0.58752 0.66387 0.0
C5691 C 0.62545 0.55716 0.62369 0.0
C5692 C 0.64131 0.5664 0.62563 0.0
H5693 H 0.59961 0.5525 0.63373 0.0
H5694 H 0.62314 0.549 0.61227 0.0
C5695 C 0.64396 0.57668 0.64066 0.0
C5696 C 0.35343 0.91574 0.35228 0.0
C5697 C 0.36794 0.92688 0.35426 0.0
H5698 H 0.33101 0.90415 0.36459 0.0
C5699 C 0.3697 0.93677 0.36973 0.0
H5700 H 0.35176 0.90801 0.34047 0.0
C5701 C 0.35774 0.93473 0.38346 0.0
C5702 C 0.34399 0.92259 0.38199 0.0
H5703 H 0.38072 0.94558 0.37152 0.0
H5704 H 0.35987 0.94189 0.39555 0.0
C5705 C 0.3416 0.91352 0.36609 0.0
C5706 C 0.07705 0.84316 0.3645 0.0
C5707 C 0.06906 0.84585 0.38091 0.0
H5708 H 0.08173 0.85329 0.33872 0.0
C5709 C 0.05776 0.86022 0.38314 0.0
H5710 H 0.08576 0.83211 0.3624 0.0
C5711 C 0.05562 0.87244 0.36964 0.0
C5712 C 0.06457 0.87036 0.35364 0.0
H5713 H 0.05144 0.8626 0.39565 0.0
H5714 H 0.04758 0.88392 0.37202 0.0
C5715 C 0.07474 0.85525 0.35093 0.0
C5716 C 0.13566 0.55695 0.38509 0.0
C5717 C 0.15112 0.56662 0.38255 0.0
H5718 H 0.11127 0.54851 0.37403 0.0
C5719 C 0.15489 0.57331 0.36577 0.0
H5720 H 0.13241 0.55167 0.39788 0.0
C5721 C 0.14282 0.57147 0.35209 0.0
C5722 C 0.12672 0.56305 0.35504 0.0
H5723 H 0.16678 0.58076 0.36343 0.0
H5724 H 0.14567 0.5775 0.33954 0.0
C5725 C 0.12352 0.55526 0.37146 0.0
C5726 C 0.42278 0.65542 0.36617 0.0
C5727 C 0.43019 0.65155 0.38262 0.0
H5728 H 0.41791 0.64658 0.33996 0.0
C5729 C 0.44062 0.63649 0.38446 0.0
H5730 H 0.41477 0.66703 0.36436 0.0
C5731 C 0.44231 0.62471 0.37049 0.0
C5732 C 0.4337 0.62791 0.35448 0.0
H5733 H 0.4465 0.63319 0.39698 0.0
H5734 H 0.44958 0.61267 0.37256 0.0
C5735 C 0.42457 0.64372 0.35219 0.0
C5736 C 0.36018 0.05488 0.61084 0.0
C5737 C 0.34476 0.06465 0.61333 0.0
H5738 H 0.38452 0.04634 0.62198 0.0
C5739 C 0.34093 0.07125 0.63013 0.0
H5740 H 0.36346 0.04965 0.59804 0.0
C5741 C 0.35293 0.0693 0.64385 0.0
C5742 C 0.36903 0.06086 0.64095 0.0
H5743 H 0.32907 0.07876 0.63244 0.0
H5744 H 0.35006 0.07534 0.6564 0.0
C5745 C 0.37226 0.05307 0.62453 0.0
C5746 C 0.93884 0.85789 0.6112 0.0
C5747 C 0.92824 0.84297 0.61318 0.0
H5748 H 0.94801 0.88175 0.62279 0.0
C5749 C 0.92063 0.83945 0.62962 0.0
H5750 H 0.94486 0.86091 0.59868 0.0
C5751 C 0.92248 0.85132 0.64345 0.0
C5752 C 0.93184 0.86698 0.64099 0.0
H5753 H 0.91246 0.82797 0.63152 0.0
H5754 H 0.91572 0.84874 0.65568 0.0
C5755 C 0.94055 0.86985 0.62498 0.0
C5756 C 0.13361 0.44193 0.60912 0.0
C5757 C 0.14938 0.43281 0.61185 0.0
H5758 H 0.10888 0.44968 0.61997 0.0
C5759 C 0.15335 0.42658 0.62876 0.0
H5760 H 0.13021 0.44685 0.59622 0.0
C5761 C 0.14119 0.42824 0.64237 0.0
C5762 C 0.1248 0.43602 0.63925 0.0
H5763 H 0.16547 0.41957 0.63125 0.0
H5764 H 0.14422 0.4225 0.65502 0.0
C5765 C 0.12138 0.44345 0.6227 0.0
C5766 C 0.57824 0.65433 0.62727 0.0
C5767 C 0.56912 0.65096 0.61159 0.0
H5768 H 0.58393 0.64583 0.65344 0.0
C5769 C 0.55691 0.63719 0.61109 0.0
H5770 H 0.58765 0.66497 0.62806 0.0
C5771 C 0.55489 0.62615 0.62559 0.0
C5772 C 0.56491 0.62883 0.64088 0.0
H5773 H 0.54969 0.63432 0.59918 0.0
H5774 H 0.5461 0.61502 0.62454 0.0
C5775 C 0.57607 0.64343 0.64184 0.0
C5776 C 0.36653 0.83859 0.42248 0.0
C5777 C 0.38278 0.84271 0.43022 0.0
H5778 H 0.3401 0.84678 0.41753 0.0
C5779 C 0.38403 0.85751 0.44109 0.0
H5780 H 0.36516 0.82716 0.41414 0.0
C5781 C 0.36968 0.86881 0.44294 0.0
C5782 C 0.35384 0.86539 0.43407 0.0
H5783 H 0.39638 0.86099 0.44723 0.0
H5784 H 0.3713 0.88069 0.45057 0.0
C5785 C 0.35216 0.84979 0.42445 0.0
C5786 C 0.35231 0.64177 0.07791 0.0
C5787 C 0.35498 0.6266 0.06786 0.0
H5788 H 0.3638 0.66503 0.08864 0.0
C5789 C 0.37099 0.62439 0.05894 0.0
H5790 H 0.34008 0.64383 0.08487 0.0
C5791 C 0.3845 0.63662 0.06092 0.0
C5792 C 0.38228 0.65112 0.07203 0.0
H5793 H 0.37333 0.61285 0.05097 0.0
H5794 H 0.397 0.63417 0.05459 0.0
C5795 C 0.36589 0.65389 0.08006 0.0
C5796 C 0.33955 0.86638 0.07147 0.0
C5797 C 0.34353 0.88289 0.06425 0.0
H5798 H 0.34827 0.84009 0.07612 0.0
C5799 C 0.35861 0.88474 0.05385 0.0
H5800 H 0.32792 0.86456 0.07945 0.0
C5801 C 0.37032 0.87073 0.05206 0.0
C5802 C 0.36705 0.85466 0.06052 0.0
H5803 H 0.36197 0.8973 0.04812 0.0
H5804 H 0.38241 0.87282 0.04485 0.0
C5805 C 0.35119 0.85236 0.06957 0.0
C5806 C 0.143 0.85279 0.075 0.0
C5807 C 0.14047 0.86835 0.0655 0.0
H5808 H 0.13122 0.82941 0.08514 0.0
C5809 C 0.12441 0.87107 0.05679 0.0
H5810 H 0.15527 0.85032 0.08176 0.0
C5811 C 0.11069 0.85903 0.05857 0.0
C5812 C 0.11277 0.84416 0.06922 0.0
H5813 H 0.12216 0.88289 0.04923 0.0
H5814 H 0.09816 0.86193 0.05249 0.0
C5815 C 0.12923 0.84083 0.07691 0.0
C5816 C 0.15556 0.13021 0.56832 0.0
C5817 C 0.15113 0.11338 0.56218 0.0
H5818 H 0.1471 0.15669 0.57237 0.0
C5819 C 0.13537 0.11107 0.55293 0.0
H5820 H 0.1677 0.13239 0.5754 0.0
C5821 C 0.12351 0.12498 0.5513 0.0
C5822 C 0.1273 0.14142 0.5588 0.0
H5823 H 0.13163 0.09825 0.54805 0.0
H5824 H 0.11096 0.12257 0.54506 0.0
C5825 C 0.14376 0.14413 0.5666 0.0
C5826 C 0.61171 0.13566 0.43466 0.0
C5827 C 0.61393 0.15021 0.42361 0.0
H5828 H 0.62279 0.11174 0.44435 0.0
C5829 C 0.63024 0.15287 0.41539 0.0
H5830 H 0.59927 0.13329 0.44113 0.0
C5831 C 0.64374 0.1406 0.4173 0.0
C5832 C 0.64106 0.12539 0.4273 0.0
H5833 H 0.63233 0.16404 0.40686 0.0
H5834 H 0.6559 0.14259 0.41022 0.0
C5835 C 0.62514 0.12329 0.43641 0.0
C5836 C 0.37292 0.12388 0.94347 0.0
C5837 C 0.36952 0.14034 0.93581 0.0
H5838 H 0.36439 0.09729 0.94669 0.0
C5839 C 0.35337 0.14316 0.92742 0.0
H5840 H 0.38522 0.12139 0.95016 0.0
C5841 C 0.34151 0.12933 0.92537 0.0
C5842 C 0.34552 0.11251 0.93183 0.0
H5843 H 0.35037 0.15572 0.92147 0.0
H5844 H 0.32962 0.13159 0.91789 0.0
C5845 C 0.36096 0.1101 0.94157 0.0
C5846 C 0.12512 0.37102 0.93818 0.0
C5847 C 0.12838 0.35481 0.92997 0.0
H5848 H 0.13373 0.39749 0.94212 0.0
C5849 C 0.14431 0.35227 0.92112 0.0
H5850 H 0.11299 0.37327 0.94525 0.0
C5851 C 0.15614 0.36616 0.91929 0.0
C5852 C 0.15229 0.38275 0.92642 0.0
H5853 H 0.1472 0.33989 0.91476 0.0
H5854 H 0.16788 0.36414 0.91153 0.0
C5855 C 0.13703 0.38486 0.93649 0.0
C5856 C 0.57298 0.62879 0.1546 0.0
C5857 C 0.56503 0.61254 0.15094 0.0
H5858 H 0.57819 0.65495 0.14567 0.0
C5859 C 0.55419 0.611 0.13614 0.0
H5860 H 0.58135 0.63038 0.166 0.0
C5861 C 0.55252 0.62502 0.12445 0.0
C5862 C 0.56151 0.64086 0.12746 0.0
H5863 H 0.54789 0.59865 0.133 0.0
H5864 H 0.54484 0.62317 0.11262 0.0
C5865 C 0.57117 0.64288 0.143 0.0
C5866 C 0.85181 0.57842 0.14296 0.0
C5867 C 0.85348 0.56702 0.12862 0.0
H5868 H 0.86464 0.59056 0.1648 0.0
C5869 C 0.869 0.55721 0.12667 0.0
H5870 H 0.83999 0.58613 0.14476 0.0
C5871 C 0.88304 0.55959 0.13822 0.0
C5872 C 0.88185 0.572 0.15176 0.0
H5873 H 0.87058 0.54823 0.11576 0.0
H5874 H 0.89513 0.55248 0.13593 0.0
C5875 C 0.86593 0.58099 0.15437 0.0
C5876 C 0.91755 0.85351 0.14235 0.0
C5877 C 0.92907 0.85477 0.12806 0.0
H5878 H 0.9057 0.86681 0.16405 0.0
C5879 C 0.93938 0.86995 0.12609 0.0
H5880 H 0.90946 0.84196 0.14416 0.0
C5881 C 0.93738 0.8841 0.13756 0.0
C5882 C 0.92485 0.88336 0.15101 0.0
H5883 H 0.94846 0.87119 0.11522 0.0
H5884 H 0.94488 0.89595 0.13525 0.0
C5885 C 0.91537 0.86775 0.15367 0.0
C5886 C 0.62425 0.93688 0.12494 0.0
C5887 C 0.64005 0.92753 0.12689 0.0
H5888 H 0.59829 0.94145 0.13474 0.0
C5889 C 0.64241 0.91682 0.14166 0.0
H5890 H 0.62215 0.94535 0.11372 0.0
C5891 C 0.6287 0.91449 0.1536 0.0
C5892 C 0.61251 0.92301 0.15107 0.0
H5893 H 0.65447 0.90951 0.1435 0.0
H5894 H 0.63053 0.90544 0.16441 0.0
C5895 C 0.61062 0.93472 0.137 0.0
C5896 C 0.55411 0.36841 0.86682 0.0
C5897 C 0.56474 0.35347 0.86466 0.0
H5898 H 0.54848 0.39464 0.85834 0.0
C5899 C 0.57662 0.35284 0.85063 0.0
H5900 H 0.54477 0.36919 0.8775 0.0
C5901 C 0.57888 0.36746 0.83983 0.0
C5902 C 0.56912 0.38285 0.84274 0.0
H5903 H 0.58497 0.34149 0.84867 0.0
H5904 H 0.58882 0.36698 0.82968 0.0
C5905 C 0.55621 0.38296 0.85586 0.0
C5906 C 0.12926 0.58119 0.84081 0.0
C5907 C 0.11334 0.57225 0.84354 0.0
H5908 H 0.15519 0.58648 0.85034 0.0
C5909 C 0.11215 0.56004 0.85725 0.0
H5910 H 0.13056 0.59061 0.83024 0.0
C5911 C 0.12618 0.55782 0.86885 0.0
C5912 C 0.14169 0.5676 0.86676 0.0
H5913 H 0.10005 0.55296 0.85964 0.0
H5914 H 0.12461 0.54898 0.87987 0.0
C5915 C 0.14337 0.5788 0.85226 0.0
C5916 C 0.93968 0.11218 0.85666 0.0
C5917 C 0.92877 0.11396 0.84193 0.0
H5918 H 0.94958 0.12424 0.88001 0.0
C5919 C 0.92145 0.13046 0.8381 0.0
H5920 H 0.94551 0.09963 0.85991 0.0
C5921 C 0.92382 0.14457 0.84954 0.0
C5922 C 0.93344 0.14236 0.86508 0.0
H5923 H 0.91308 0.13224 0.82673 0.0
H5924 H 0.9172 0.15685 0.84676 0.0
C5925 C 0.94194 0.12626 0.86819 0.0
C5926 C 0.36668 0.91415 0.84168 0.0
C5927 C 0.38275 0.92291 0.84407 0.0
H5928 H 0.341 0.90894 0.8519 0.0
C5929 C 0.3845 0.93484 0.85797 0.0
H5930 H 0.36495 0.90493 0.83099 0.0
C5931 C 0.37086 0.93697 0.87003 0.0
C5932 C 0.35519 0.92738 0.86824 0.0
H5933 H 0.39674 0.94176 0.86011 0.0
H5934 H 0.37286 0.9456 0.88115 0.0
C5935 C 0.35296 0.91645 0.85361 0.0
C5936 C 0.6409 0.57016 0.1429 0.0
C5937 C 0.62491 0.56147 0.14016 0.0
H5938 H 0.66466 0.57966 0.13133 0.0
C5939 C 0.62177 0.55336 0.12387 0.0
H5940 H 0.64371 0.57646 0.15534 0.0
C5941 C 0.63384 0.55504 0.11016 0.0
C5942 C 0.64915 0.565 0.11247 0.0
H5943 H 0.60959 0.54643 0.12144 0.0
H5944 H 0.63061 0.54952 0.09746 0.0
C5945 C 0.65289 0.57198 0.12915 0.0
C5946 C 0.92553 0.64577 0.14327 0.0
C5947 C 0.93453 0.62987 0.14109 0.0
H5948 H 0.91548 0.66885 0.13086 0.0
C5949 C 0.94277 0.62635 0.12495 0.0
H5950 H 0.91915 0.64889 0.15558 0.0
C5951 C 0.94077 0.63784 0.11079 0.0
C5952 C 0.93039 0.65294 0.11255 0.0
H5953 H 0.94994 0.61423 0.12295 0.0
H5954 H 0.94631 0.63427 0.0982 0.0
C5955 C 0.92342 0.65719 0.1291 0.0
C5956 C 0.83979 0.92717 0.13032 0.0
C5957 C 0.84379 0.93383 0.11359 0.0
H5958 H 0.84863 0.92302 0.15666 0.0
C5959 C 0.85907 0.94387 0.11136 0.0
H5960 H 0.82802 0.91948 0.13244 0.0
C5961 C 0.87094 0.94579 0.12522 0.0
C5962 C 0.86764 0.93782 0.14154 0.0
H5963 H 0.86246 0.94917 0.09861 0.0
H5964 H 0.88317 0.95265 0.12285 0.0
C5965 C 0.85158 0.9292 0.1442 0.0
C5966 C 0.57226 0.84968 0.14291 0.0
C5967 C 0.56211 0.86497 0.14147 0.0
H5968 H 0.583 0.82741 0.12963 0.0
C5969 C 0.55283 0.86817 0.12583 0.0
H5970 H 0.5795 0.84685 0.15482 0.0
C5971 C 0.55474 0.85698 0.11142 0.0
C5972 C 0.56607 0.84251 0.1124 0.0
H5973 H 0.54479 0.87981 0.12441 0.0
H5974 H 0.54823 0.8603 0.09922 0.0
C5975 C 0.57428 0.83858 0.12847 0.0
C5976 C 0.65457 0.42911 0.86445 0.0
C5977 C 0.65038 0.43504 0.88141 0.0
H5978 H 0.64571 0.42528 0.83807 0.0
C5979 C 0.63461 0.44418 0.88405 0.0
H5980 H 0.66671 0.42211 0.862 0.0
C5981 C 0.62252 0.44588 0.87034 0.0
C5982 C 0.62608 0.43858 0.85377 0.0
H5983 H 0.63104 0.44889 0.89698 0.0
H5984 H 0.60997 0.45201 0.87301 0.0
C5985 C 0.64255 0.43091 0.85073 0.0
C5986 C 0.07197 0.65687 0.8663 0.0
C5987 C 0.06486 0.65259 0.88278 0.0
H5988 H 0.07641 0.64867 0.83981 0.0
C5989 C 0.05446 0.63749 0.88441 0.0
H5990 H 0.07995 0.66852 0.86464 0.0
C5991 C 0.05254 0.62606 0.8702 0.0
C5992 C 0.06087 0.62963 0.85412 0.0
H5993 H 0.04881 0.63389 0.89695 0.0
H5994 H 0.04533 0.61395 0.8721 0.0
C5995 C 0.06994 0.64552 0.85207 0.0
C5996 C 0.87056 0.05686 0.87059 0.0
C5997 C 0.86727 0.06515 0.85442 0.0
H5998 H 0.86196 0.05269 0.89702 0.0
C5999 C 0.85128 0.07393 0.85193 0.0
H6000 H 0.88272 0.04984 0.87281 0.0
C6001 C 0.83942 0.07559 0.86582 0.0
C6002 C 0.8433 0.06837 0.88237 0.0
H6003 H 0.84837 0.08035 0.83959 0.0
H6004 H 0.82764 0.08331 0.86384 0.0
C6005 C 0.85863 0.05839 0.88442 0.0
C6006 C 0.44345 0.86905 0.86947 0.0
C6007 C 0.43438 0.86553 0.85377 0.0
H6008 H 0.44805 0.86142 0.89614 0.0
C6009 C 0.42471 0.84993 0.8523 0.0
H6010 H 0.45112 0.88093 0.87091 0.0
C6011 C 0.4229 0.83884 0.86676 0.0
C6012 C 0.43084 0.84308 0.88287 0.0
H6013 H 0.41766 0.84685 0.84035 0.0
H6014 H 0.41452 0.82741 0.86557 0.0
C6015 C 0.44175 0.85786 0.8839 0.0
C6016 C 0.60919 0.63553 0.05728 0.0
C6017 C 0.6113 0.65058 0.06767 0.0
H6018 H 0.62064 0.61151 0.04834 0.0
C6019 C 0.62777 0.65404 0.07527 0.0
H6020 H 0.59665 0.63253 0.05129 0.0
C6021 C 0.64154 0.64206 0.07352 0.0
C6022 C 0.63899 0.62634 0.0643 0.0
H6023 H 0.62978 0.66561 0.08328 0.0
H6024 H 0.65382 0.64465 0.08021 0.0
C6025 C 0.62291 0.62346 0.05569 0.0
C6026 C 0.62415 0.87082 0.43564 0.0
C6027 C 0.6399 0.86899 0.42618 0.0
H6028 H 0.59841 0.86067 0.4406 0.0
C6029 C 0.64239 0.85409 0.41568 0.0
H6030 H 0.62196 0.88213 0.44397 0.0
C6031 C 0.62886 0.84188 0.41368 0.0
C6032 C 0.61272 0.84427 0.42231 0.0
H6033 H 0.65441 0.85233 0.4083 0.0
H6034 H 0.63078 0.83095 0.40478 0.0
C6035 C 0.61071 0.8585 0.4338 0.0
C6036 C 0.65345 0.62915 0.41915 0.0
C6037 C 0.65046 0.61284 0.42722 0.0
H6038 H 0.64396 0.65519 0.4146 0.0
C6039 C 0.63634 0.61105 0.43889 0.0
H6040 H 0.66435 0.63093 0.41018 0.0
C6041 C 0.62456 0.62492 0.4413 0.0
C6042 C 0.62687 0.64083 0.43223 0.0
H6043 H 0.63375 0.59863 0.44529 0.0
H6044 H 0.61319 0.62289 0.44958 0.0
C6045 C 0.64182 0.64307 0.42171 0.0
C6046 C 0.85218 0.6445 0.42562 0.0
C6047 C 0.85417 0.62845 0.43442 0.0
H6048 H 0.86481 0.66773 0.41623 0.0
C6049 C 0.87018 0.62474 0.44285 0.0
H6050 H 0.83997 0.64775 0.41909 0.0
C6051 C 0.8844 0.63624 0.44131 0.0
C6052 C 0.88284 0.65155 0.43122 0.0
H6053 H 0.87203 0.61251 0.44986 0.0
H6054 H 0.89689 0.63256 0.44704 0.0
C6055 C 0.86642 0.65592 0.42399 0.0
C6056 C 0.84004 0.36484 0.92692 0.0
C6057 C 0.84399 0.3816 0.93357 0.0
H6058 H 0.84892 0.33849 0.92294 0.0
C6059 C 0.85919 0.38387 0.94372 0.0
H6060 H 0.82833 0.36269 0.91915 0.0
C6061 C 0.87105 0.37001 0.94579 0.0
C6062 C 0.86781 0.35366 0.93785 0.0
H6063 H 0.86255 0.39663 0.94901 0.0
H6064 H 0.88323 0.37241 0.95274 0.0
C6065 C 0.85182 0.35097 0.9291 0.0
C6066 C 0.35518 0.35367 0.07909 0.0
C6067 C 0.35699 0.36844 0.06826 0.0
H6068 H 0.36777 0.33121 0.09031 0.0
C6069 C 0.37254 0.37063 0.05855 0.0
H6070 H 0.34334 0.35165 0.08669 0.0
C6071 C 0.38645 0.35884 0.06046 0.0
C6072 C 0.38511 0.34481 0.07229 0.0
H6073 H 0.37422 0.38186 0.04999 0.0
H6074 H 0.39858 0.3613 0.05345 0.0
C6075 C 0.36918 0.34202 0.08117 0.0
C6076 C 0.65294 0.36564 0.56977 0.0
C6077 C 0.6491 0.38267 0.56377 0.0
H6078 H 0.64356 0.33943 0.57359 0.0
C6079 C 0.63329 0.38567 0.55481 0.0
H6080 H 0.66509 0.36294 0.57666 0.0
C6081 C 0.6209 0.37224 0.55321 0.0
C6082 C 0.6242 0.35557 0.56041 0.0
H6083 H 0.62999 0.39866 0.55007 0.0
H6084 H 0.60839 0.37517 0.54711 0.0
C6085 C 0.64062 0.35218 0.56803 0.0
C6086 C 0.85564 0.14303 0.56887 0.0
C6087 C 0.87162 0.13999 0.56026 0.0
H6088 H 0.83173 0.13185 0.57844 0.0
C6089 C 0.87459 0.12358 0.55234 0.0
H6090 H 0.85297 0.15557 0.57501 0.0
C6091 C 0.86236 0.11004 0.55415 0.0
C6092 C 0.84706 0.11265 0.56406 0.0
H6093 H 0.88675 0.12093 0.54548 0.0
H6094 H 0.86544 0.09723 0.54879 0.0
C6095 C 0.84349 0.12944 0.57082 0.0
C6096 C 0.42457 0.3512 0.85251 0.0
C6097 C 0.43393 0.3537 0.86816 0.0
H6098 H 0.41431 0.3631 0.82924 0.0
C6099 C 0.4424 0.36984 0.87109 0.0
H6100 H 0.41797 0.33889 0.84988 0.0
C6101 C 0.44045 0.38367 0.85921 0.0
C6102 C 0.42985 0.38162 0.8443 0.0
H6103 H 0.44985 0.37207 0.883 0.0
H6104 H 0.4463 0.39625 0.86229 0.0
C6105 C 0.42247 0.36508 0.84071 0.0
C6106 C 0.12985 0.41952 0.83852 0.0
C6107 C 0.11343 0.42718 0.84214 0.0
H6108 H 0.15606 0.41471 0.84755 0.0
C6109 C 0.11161 0.43783 0.85703 0.0
H6110 H 0.13164 0.4113 0.82706 0.0
C6111 C 0.12554 0.43964 0.86882 0.0
C6112 C 0.14157 0.43096 0.86582 0.0
H6113 H 0.09913 0.44389 0.86015 0.0
H6114 H 0.12349 0.44719 0.88069 0.0
C6115 C 0.14384 0.42147 0.85022 0.0
C6116 C 0.07615 0.1425 0.85303 0.0
C6117 C 0.06519 0.14056 0.86769 0.0
H6118 H 0.08806 0.12996 0.83092 0.0
C6119 C 0.0558 0.12482 0.86989 0.0
H6120 H 0.08352 0.15449 0.85101 0.0
C6121 C 0.05825 0.11083 0.8583 0.0
C6122 C 0.07032 0.1123 0.84448 0.0
H6123 H 0.04717 0.12303 0.88105 0.0
H6124 H 0.05154 0.09855 0.8608 0.0
C6125 C 0.07878 0.12844 0.84159 0.0
C6126 C 0.35325 0.07489 0.85357 0.0
C6127 C 0.356 0.06563 0.86923 0.0
H6128 H 0.36471 0.08476 0.82993 0.0
C6129 C 0.37216 0.0571 0.87194 0.0
H6130 H 0.3409 0.08151 0.85111 0.0
C6131 C 0.38574 0.0588 0.85974 0.0
C6132 C 0.38343 0.0692 0.84473 0.0
H6133 H 0.37458 0.04972 0.88384 0.0
H6134 H 0.39834 0.05287 0.86261 0.0
C6135 C 0.36688 0.07673 0.84145 0.0
C6136 C 0.43876 0.61287 0.14001 0.0
C6137 C 0.42622 0.61354 0.15346 0.0
H6138 H 0.45009 0.62607 0.11795 0.0
C6139 C 0.41711 0.62928 0.15652 0.0
H6140 H 0.44599 0.6009 0.1374 0.0
C6141 C 0.41957 0.64372 0.14554 0.0
C6142 C 0.43103 0.64257 0.13118 0.0
H6143 H 0.40747 0.63019 0.16693 0.0
H6144 H 0.41169 0.65537 0.14764 0.0
C6145 C 0.44107 0.62725 0.12888 0.0
C6146 C 0.85236 0.42107 0.14066 0.0
C6147 C 0.85542 0.42959 0.12464 0.0
H6148 H 0.86341 0.41211 0.16486 0.0
C6149 C 0.87172 0.43776 0.12176 0.0
H6150 H 0.83988 0.41476 0.14327 0.0
C6151 C 0.88514 0.43641 0.13419 0.0
C6152 C 0.88251 0.42674 0.14963 0.0
H6153 H 0.87437 0.44458 0.10958 0.0
H6154 H 0.89786 0.44202 0.13122 0.0
C6155 C 0.86582 0.41959 0.15302 0.0
C6156 C 0.05466 0.87116 0.12561 0.0
C6157 C 0.06355 0.85531 0.1289 0.0
H6158 H 0.05011 0.89766 0.13378 0.0
C6159 C 0.07308 0.85344 0.14452 0.0
H6160 H 0.04707 0.8729 0.11371 0.0
C6161 C 0.07489 0.86765 0.15595 0.0
C6162 C 0.06705 0.8839 0.15201 0.0
H6163 H 0.08 0.84135 0.14741 0.0
H6164 H 0.08316 0.86617 0.16743 0.0
C6165 C 0.05632 0.88532 0.13712 0.0
C6166 C 0.62357 0.05963 0.12297 0.0
C6167 C 0.63964 0.06848 0.12504 0.0
H6168 H 0.5977 0.05521 0.13307 0.0
C6169 C 0.64251 0.07845 0.14024 0.0
H6170 H 0.62106 0.05173 0.11142 0.0
C6171 C 0.6291 0.08051 0.15256 0.0
C6172 C 0.61267 0.07248 0.14998 0.0
H6173 H 0.65479 0.08535 0.1422 0.0
H6174 H 0.63136 0.08898 0.16375 0.0
C6175 C 0.61022 0.06153 0.13539 0.0
C6176 C 0.35308 0.42154 0.85308 0.0
C6177 C 0.36894 0.43057 0.85548 0.0
H6178 H 0.32961 0.41189 0.86509 0.0
C6179 C 0.37212 0.43903 0.87158 0.0
H6180 H 0.35026 0.41497 0.84079 0.0
C6181 C 0.36023 0.43744 0.88544 0.0
C6182 C 0.34507 0.42719 0.88348 0.0
H6183 H 0.38419 0.44624 0.87373 0.0
H6184 H 0.36349 0.44328 0.89799 0.0
C6185 C 0.34128 0.4198 0.86699 0.0
C6186 C 0.05548 0.36992 0.86896 0.0
C6187 C 0.06408 0.3669 0.85291 0.0
H6188 H 0.05131 0.36122 0.89535 0.0
C6189 C 0.07335 0.35119 0.85051 0.0
H6190 H 0.04807 0.38187 0.87109 0.0
C6191 C 0.07525 0.33941 0.86443 0.0
C6192 C 0.06777 0.34309 0.8809 0.0
H6193 H 0.08003 0.34849 0.83826 0.0
H6194 H 0.08337 0.32788 0.86256 0.0
C6195 C 0.05723 0.35806 0.88282 0.0
C6196 C 0.1376 0.05368 0.8849 0.0
C6197 C 0.15283 0.06384 0.88297 0.0
H6198 H 0.11368 0.04491 0.87303 0.0
C6199 C 0.15692 0.07086 0.86641 0.0
H6200 H 0.13414 0.04812 0.89751 0.0
C6201 C 0.14527 0.06899 0.85239 0.0
C6202 C 0.12927 0.06019 0.85475 0.0
H6203 H 0.16867 0.07865 0.86452 0.0
H6204 H 0.1483 0.07538 0.84006 0.0
C6205 C 0.12587 0.05192 0.8709 0.0
C6206 C 0.44134 0.12599 0.87054 0.0
C6207 C 0.43196 0.12901 0.85493 0.0
H6208 H 0.44628 0.13425 0.89695 0.0
C6209 C 0.42186 0.14431 0.85333 0.0
H6210 H 0.44936 0.11434 0.87206 0.0
C6211 C 0.42003 0.15564 0.86762 0.0
C6212 C 0.4284 0.15193 0.88366 0.0
H6213 H 0.41455 0.14698 0.84143 0.0
H6214 H 0.41135 0.16684 0.86638 0.0
C6215 C 0.43965 0.13741 0.88477 0.0
C6216 C 0.352 0.56776 0.14442 0.0
C6217 C 0.36836 0.55977 0.14169 0.0
H6218 H 0.32812 0.57677 0.13273 0.0
C6219 C 0.37203 0.55219 0.12526 0.0
H6220 H 0.34876 0.5736 0.15697 0.0
C6221 C 0.36014 0.5539 0.11138 0.0
C6222 C 0.34448 0.56331 0.11371 0.0
H6223 H 0.3845 0.5458 0.12284 0.0
H6224 H 0.36378 0.54893 0.09857 0.0
C6225 C 0.34019 0.56956 0.13053 0.0
C6226 C 0.93937 0.36789 0.12595 0.0
C6227 C 0.92894 0.36606 0.14106 0.0
H6228 H 0.94482 0.35874 0.09994 0.0
C6229 C 0.91711 0.35201 0.14218 0.0
H6230 H 0.94868 0.37857 0.12481 0.0
C6231 C 0.91477 0.3408 0.12787 0.0
C6232 C 0.92439 0.34333 0.11233 0.0
H6233 H 0.90892 0.35031 0.15367 0.0
H6234 H 0.90488 0.33062 0.1287 0.0
C6235 C 0.9372 0.35653 0.11173 0.0
C6236 C 0.12369 0.94262 0.12427 0.0
C6237 C 0.12685 0.9347 0.14065 0.0
H6238 H 0.13241 0.946 0.09777 0.0
C6239 C 0.14278 0.92589 0.14343 0.0
H6240 H 0.11156 0.94963 0.12182 0.0
C6241 C 0.15466 0.92375 0.12963 0.0
C6242 C 0.15087 0.93053 0.11288 0.0
H6243 H 0.14559 0.91973 0.15593 0.0
H6244 H 0.16637 0.91599 0.13185 0.0
C6245 C 0.13565 0.94062 0.11052 0.0
C6246 C 0.55635 0.13981 0.11236 0.0
C6247 C 0.56951 0.15268 0.11233 0.0
H6248 H 0.5445 0.11853 0.12636 0.0
C6249 C 0.57938 0.15553 0.12766 0.0
H6250 H 0.54853 0.13738 0.10074 0.0
C6251 C 0.57695 0.1449 0.14239 0.0
C6252 C 0.56477 0.13111 0.14192 0.0
H6253 H 0.58952 0.16549 0.12803 0.0
H6254 H 0.58536 0.1468 0.15369 0.0
C6255 C 0.55407 0.12903 0.12702 0.0
C6256 C 0.35393 0.35142 0.92315 0.0
C6257 C 0.35627 0.36721 0.93232 0.0
H6258 H 0.36607 0.32812 0.91327 0.0
C6259 C 0.37239 0.37043 0.94073 0.0
H6260 H 0.34163 0.34857 0.91661 0.0
C6261 C 0.38634 0.35866 0.93897 0.0
C6262 C 0.38442 0.34357 0.92862 0.0
H6263 H 0.3745 0.38245 0.94802 0.0
H6264 H 0.39889 0.36193 0.9448 0.0
C6265 C 0.36793 0.33973 0.92125 0.0
C6266 C 0.35263 0.1424 0.57539 0.0
C6267 C 0.35505 0.1268 0.56595 0.0
H6268 H 0.36451 0.16585 0.58522 0.0
C6269 C 0.37099 0.12404 0.55704 0.0
H6270 H 0.34046 0.1449 0.5823 0.0
C6271 C 0.3847 0.1361 0.55855 0.0
C6272 C 0.38275 0.15102 0.56915 0.0
H6273 H 0.37314 0.11218 0.54951 0.0
H6274 H 0.39715 0.13319 0.55233 0.0
C6275 C 0.3664 0.15438 0.57704 0.0
C6276 C 0.37114 0.37085 0.55595 0.0
C6277 C 0.36831 0.35471 0.56443 0.0
H6278 H 0.36203 0.39711 0.55181 0.0
C6279 C 0.35258 0.35202 0.57359 0.0
H6280 H 0.38311 0.3732 0.54863 0.0
C6281 C 0.34055 0.36574 0.57546 0.0
C6282 C 0.34401 0.38229 0.56805 0.0
H6283 H 0.35002 0.33968 0.58017 0.0
H6284 H 0.329 0.36364 0.58347 0.0
C6285 C 0.35904 0.38451 0.55767 0.0
C6286 C 0.14394 0.35501 0.57553 0.0
C6287 C 0.14143 0.36993 0.56505 0.0
H6288 H 0.13228 0.33203 0.58667 0.0
C6289 C 0.12561 0.37184 0.55573 0.0
H6290 H 0.15602 0.35318 0.58282 0.0
C6291 C 0.11207 0.35963 0.55777 0.0
C6292 C 0.1141 0.34546 0.56934 0.0
H6293 H 0.12339 0.38318 0.54745 0.0
H6294 H 0.0997 0.36189 0.55114 0.0
C6295 C 0.13034 0.34293 0.57775 0.0
C6296 C 0.12361 0.62428 0.05669 0.0
C6297 C 0.12659 0.64037 0.06523 0.0
H6298 H 0.13265 0.59804 0.05221 0.0
C6299 C 0.1425 0.64299 0.07412 0.0
H6300 H 0.11151 0.62197 0.04957 0.0
C6301 C 0.15456 0.62926 0.07566 0.0
C6302 C 0.15098 0.61276 0.0682 0.0
H6303 H 0.14519 0.65528 0.08074 0.0
H6304 H 0.16627 0.63131 0.08347 0.0
C6305 C 0.13575 0.61061 0.05809 0.0
C6306 C 0.64348 0.63988 0.91686 0.0
C6307 C 0.64043 0.62479 0.92695 0.0
H6308 H 0.63258 0.6634 0.90608 0.0
C6309 C 0.62437 0.62301 0.93586 0.0
H6310 H 0.65577 0.64161 0.90992 0.0
C6311 C 0.61117 0.63558 0.93384 0.0
C6312 C 0.61376 0.65 0.92271 0.0
H6313 H 0.62173 0.61156 0.94385 0.0
H6314 H 0.59861 0.63345 0.94017 0.0
C6315 C 0.63021 0.65233 0.91468 0.0
C6316 C 0.34157 0.62833 0.42182 0.0
C6317 C 0.34545 0.6118 0.42906 0.0
H6318 H 0.35054 0.65452 0.41689 0.0
C6319 C 0.36089 0.6097 0.43887 0.0
H6320 H 0.32969 0.63033 0.41424 0.0
C6321 C 0.37289 0.62351 0.44023 0.0
C6322 C 0.36955 0.63967 0.43194 0.0
H6323 H 0.36423 0.59711 0.44458 0.0
H6324 H 0.38512 0.62127 0.44713 0.0
C6325 C 0.35348 0.64218 0.42332 0.0
C6326 C 0.15483 0.86765 0.41701 0.0
C6327 C 0.15156 0.88361 0.42567 0.0
H6328 H 0.14591 0.84155 0.41171 0.0
C6329 C 0.1375 0.88469 0.4375 0.0
H6330 H 0.16569 0.86642 0.40791 0.0
C6331 C 0.12608 0.87046 0.43955 0.0
C6332 C 0.12868 0.85491 0.42996 0.0
H6333 H 0.13469 0.89683 0.44434 0.0
H6334 H 0.11476 0.87195 0.44802 0.0
C6335 C 0.14355 0.85338 0.41922 0.0
loop_
_geom_bond_atom_site_label_1
_geom_bond_atom_site_label_2
_geom_bond_distance
_geom_bond_site_symmetry_2
_ccdc_geom_bond_type
In0 O1 2.294 . S
In0 O2 2.326 . S
In0 O6 2.266 . S
In0 O7 2.326 . S
In0 O8 2.266 . S
In0 O9 2.326 . S
In0 O11 2.294 . S
In0 O12 2.326 . S
O1 In0 2.294 . S
O1 C10 1.240 . S
O2 In0 2.326 . S
O2 C10 1.252 . S
C3 O6 1.252 . S
C3 O7 1.260 . S
C4 O11 1.240 . S
C4 O12 1.252 . S
C5 O8 1.252 . S
C5 O9 1.260 . S
O6 In0 2.266 . S
O6 C3 1.252 . S
O7 In0 2.326 . S
O7 C3 1.260 . S
O8 In0 2.266 . S
O8 C5 1.252 . S
O9 In0 2.326 . S
O9 C5 1.260 . S
C10 O1 1.240 . S
C10 O2 1.252 . S
O11 In0 2.294 . S
O11 C4 1.240 . S
O12 In0 2.326 . S
O12 C4 1.252 . S
In13 O14 2.294 . S
In13 O15 2.326 . S
In13 O19 2.266 . S
In13 O20 2.326 . S
In13 O21 2.266 . S
In13 O22 2.326 . S
In13 O24 2.294 . S
In13 O25 2.326 . S
O14 In13 2.294 . S
O14 C23 1.240 . S
O15 In13 2.326 . S
O15 C23 1.252 . S
C16 O19 1.252 . S
C16 O20 1.260 . S
C17 O24 1.240 . S
C17 O25 1.252 . S
C18 O21 1.252 . S
C18 O22 1.260 . S
O19 In13 2.266 . S
O19 C16 1.252 . S
O20 In13 2.326 . S
O20 C16 1.260 . S
O21 In13 2.266 . S
O21 C18 1.252 . S
O22 In13 2.326 . S
O22 C18 1.260 . S
C23 O14 1.240 . S
C23 O15 1.252 . S
O24 In13 2.294 . S
O24 C17 1.240 . S
O25 In13 2.326 . S
O25 C17 1.252 . S
In26 O27 2.294 . S
In26 O28 2.326 . S
In26 O32 2.266 . S
In26 O33 2.326 . S
In26 O34 2.266 . S
In26 O35 2.326 . S
In26 O37 2.294 . S
In26 O38 2.326 . S
O27 In26 2.294 . S
O27 C36 1.240 . S
O28 In26 2.326 . S
O28 C36 1.252 . S
C29 O32 1.252 . S
C29 O33 1.260 . S
C30 O37 1.240 . S
C30 O38 1.252 . S
C31 O34 1.252 . S
C31 O35 1.260 . S
O32 In26 2.266 . S
O32 C29 1.252 . S
O33 In26 2.326 . S
O33 C29 1.260 . S
O34 In26 2.266 . S
O34 C31 1.252 . S
O35 In26 2.326 . S
O35 C31 1.260 . S
C36 O27 1.240 . S
C36 O28 1.252 . S
O37 In26 2.294 . S
O37 C30 1.240 . S
O38 In26 2.326 . S
O38 C30 1.252 . S
In39 O40 2.294 . S
In39 O41 2.326 . S
In39 O45 2.266 . S
In39 O46 2.326 . S
In39 O47 2.266 . S
In39 O48 2.326 . S
In39 O50 2.294 . S
In39 O51 2.326 . S
O40 In39 2.294 . S
O40 C49 1.240 . S
O41 In39 2.326 . S
O41 C49 1.252 . S
C42 O45 1.252 . S
C42 O46 1.260 . S
C43 O50 1.240 . S
C43 O51 1.252 . S
C44 O47 1.252 . S
C44 O48 1.260 . S
O45 In39 2.266 . S
O45 C42 1.252 . S
O46 In39 2.326 . S
O46 C42 1.260 . S
O47 In39 2.266 . S
O47 C44 1.252 . S
O48 In39 2.326 . S
O48 C44 1.260 . S
C49 O40 1.240 . S
C49 O41 1.252 . S
O50 In39 2.294 . S
O50 C43 1.240 . S
O51 In39 2.326 . S
O51 C43 1.252 . S
In52 O53 2.294 . S
In52 O54 2.326 . S
In52 O58 2.266 . S
In52 O59 2.326 . S
In52 O60 2.266 . S
In52 O61 2.326 . S
In52 O63 2.294 . S
In52 O64 2.326 . S
O53 In52 2.294 . S
O53 C62 1.240 . S
O54 In52 2.326 . S
O54 C62 1.252 . S
C55 O58 1.252 . S
C55 O59 1.260 . S
C56 O63 1.240 . S
C56 O64 1.252 . S
C57 O60 1.252 . S
C57 O61 1.260 . S
O58 In52 2.266 . S
O58 C55 1.252 . S
O59 In52 2.326 . S
O59 C55 1.260 . S
O60 In52 2.266 . S
O60 C57 1.252 . S
O61 In52 2.326 . S
O61 C57 1.260 . S
C62 O53 1.240 . S
C62 O54 1.252 . S
O63 In52 2.294 . S
O63 C56 1.240 . S
O64 In52 2.326 . S
O64 C56 1.252 . S
In65 O66 2.294 . S
In65 O67 2.326 . S
In65 O71 2.266 . S
In65 O72 2.326 . S
In65 O73 2.266 . S
In65 O74 2.326 . S
In65 O76 2.294 . S
In65 O77 2.326 . S
O66 In65 2.294 . S
O66 C75 1.240 . S
O67 In65 2.326 . S
O67 C75 1.252 . S
C68 O71 1.252 . S
C68 O72 1.260 . S
C69 O76 1.240 . S
C69 O77 1.252 . S
C70 O73 1.252 . S
C70 O74 1.260 . S
O71 In65 2.266 . S
O71 C68 1.252 . S
O72 In65 2.326 . S
O72 C68 1.260 . S
O73 In65 2.266 . S
O73 C70 1.252 . S
O74 In65 2.326 . S
O74 C70 1.260 . S
C75 O66 1.240 . S
C75 O67 1.252 . S
O76 In65 2.294 . S
O76 C69 1.240 . S
O77 In65 2.326 . S
O77 C69 1.252 . S
In78 O79 2.294 . S
In78 O80 2.326 . S
In78 O84 2.266 . S
In78 O85 2.326 . S
In78 O86 2.266 . S
In78 O87 2.326 . S
In78 O89 2.294 . S
In78 O90 2.326 . S
O79 In78 2.294 . S
O79 C88 1.240 . S
O80 In78 2.326 . S
O80 C88 1.252 . S
C81 O84 1.252 . S
C81 O85 1.260 . S
C82 O89 1.240 . S
C82 O90 1.252 . S
C83 O86 1.252 . S
C83 O87 1.260 . S
O84 In78 2.266 . S
O84 C81 1.252 . S
O85 In78 2.326 . S
O85 C81 1.260 . S
O86 In78 2.266 . S
O86 C83 1.252 . S
O87 In78 2.326 . S
O87 C83 1.260 . S
C88 O79 1.240 . S
C88 O80 1.252 . S
O89 In78 2.294 . S
O89 C82 1.240 . S
O90 In78 2.326 . S
O90 C82 1.252 . S
In91 O92 2.294 . S
In91 O93 2.326 . S
In91 O97 2.266 . S
In91 O98 2.326 . S
In91 O99 2.266 . S
In91 O100 2.326 . S
In91 O102 2.294 . S
In91 O103 2.326 . S
O92 In91 2.294 . S
O92 C101 1.240 . S
O93 In91 2.326 . S
O93 C101 1.252 . S
C94 O97 1.252 . S
C94 O98 1.260 . S
C95 O102 1.240 . S
C95 O103 1.252 . S
C96 O99 1.252 . S
C96 O100 1.260 . S
O97 In91 2.266 . S
O97 C94 1.252 . S
O98 In91 2.326 . S
O98 C94 1.260 . S
O99 In91 2.266 . S
O99 C96 1.252 . S
O100 In91 2.326 . S
O100 C96 1.260 . S
C101 O92 1.240 . S
C101 O93 1.252 . S
O102 In91 2.294 . S
O102 C95 1.240 . S
O103 In91 2.326 . S
O103 C95 1.252 . S
In104 O105 2.294 . S
In104 O106 2.326 . S
In104 O110 2.266 . S
In104 O111 2.326 . S
In104 O112 2.266 . S
In104 O113 2.326 . S
In104 O115 2.294 . S
In104 O116 2.326 . S
O105 In104 2.294 . S
O105 C114 1.240 . S
O106 In104 2.326 . S
O106 C114 1.252 . S
C107 O110 1.252 . S
C107 O111 1.260 . S
C108 O115 1.240 . S
C108 O116 1.252 . S
C109 O112 1.252 . S
C109 O113 1.260 . S
O110 In104 2.266 . S
O110 C107 1.252 . S
O111 In104 2.326 . S
O111 C107 1.260 . S
O112 In104 2.266 . S
O112 C109 1.252 . S
O113 In104 2.326 . S
O113 C109 1.260 . S
C114 O105 1.240 . S
C114 O106 1.252 . S
O115 In104 2.294 . S
O115 C108 1.240 . S
O116 In104 2.326 . S
O116 C108 1.252 . S
In117 O118 2.294 . S
In117 O119 2.326 . S
In117 O123 2.266 . S
In117 O124 2.326 . S
In117 O125 2.266 . S
In117 O126 2.326 . S
In117 O128 2.294 . S
In117 O129 2.326 . S
O118 In117 2.294 . S
O118 C127 1.240 . S
O119 In117 2.326 . S
O119 C127 1.252 . S
C120 O123 1.252 . S
C120 O124 1.260 . S
C121 O128 1.240 . S
C121 O129 1.252 . S
C122 O125 1.252 . S
C122 O126 1.260 . S
O123 In117 2.266 . S
O123 C120 1.252 . S
O124 In117 2.326 . S
O124 C120 1.260 . S
O125 In117 2.266 . S
O125 C122 1.252 . S
O126 In117 2.326 . S
O126 C122 1.260 . S
C127 O118 1.240 . S
C127 O119 1.252 . S
O128 In117 2.294 . S
O128 C121 1.240 . S
O129 In117 2.326 . S
O129 C121 1.252 . S
In130 O131 2.294 . S
In130 O132 2.326 . S
In130 O136 2.266 . S
In130 O137 2.326 . S
In130 O138 2.266 . S
In130 O139 2.326 . S
In130 O141 2.294 . S
In130 O142 2.326 . S
O131 In130 2.294 . S
O131 C140 1.240 . S
O132 In130 2.326 . S
O132 C140 1.252 . S
C133 O136 1.252 . S
C133 O137 1.260 . S
C134 O141 1.240 . S
C134 O142 1.252 . S
C135 O138 1.252 . S
C135 O139 1.260 . S
O136 In130 2.266 . S
O136 C133 1.252 . S
O137 In130 2.326 . S
O137 C133 1.260 . S
O138 In130 2.266 . S
O138 C135 1.252 . S
O139 In130 2.326 . S
O139 C135 1.260 . S
C140 O131 1.240 . S
C140 O132 1.252 . S
O141 In130 2.294 . S
O141 C134 1.240 . S
O142 In130 2.326 . S
O142 C134 1.252 . S
In143 O144 2.294 . S
In143 O145 2.326 . S
In143 O149 2.266 . S
In143 O150 2.326 . S
In143 O151 2.266 . S
In143 O152 2.326 . S
In143 O154 2.294 . S
In143 O155 2.326 . S
O144 In143 2.294 . S
O144 C153 1.240 . S
O145 In143 2.326 . S
O145 C153 1.252 . S
C146 O149 1.252 . S
C146 O150 1.260 . S
C147 O154 1.240 . S
C147 O155 1.252 . S
C148 O151 1.252 . S
C148 O152 1.260 . S
O149 In143 2.266 . S
O149 C146 1.252 . S
O150 In143 2.326 . S
O150 C146 1.260 . S
O151 In143 2.266 . S
O151 C148 1.252 . S
O152 In143 2.326 . S
O152 C148 1.260 . S
C153 O144 1.240 . S
C153 O145 1.252 . S
O154 In143 2.294 . S
O154 C147 1.240 . S
O155 In143 2.326 . S
O155 C147 1.252 . S
In156 O157 2.294 . S
In156 O158 2.326 . S
In156 O162 2.266 . S
In156 O163 2.326 . S
In156 O164 2.266 . S
In156 O165 2.326 . S
In156 O167 2.294 . S
In156 O168 2.326 . S
O157 In156 2.294 . S
O157 C166 1.240 . S
O158 In156 2.326 . S
O158 C166 1.252 . S
C159 O162 1.252 . S
C159 O163 1.260 . S
C160 O167 1.240 . S
C160 O168 1.252 . S
C161 O164 1.252 . S
C161 O165 1.260 . S
O162 In156 2.266 . S
O162 C159 1.252 . S
O163 In156 2.326 . S
O163 C159 1.260 . S
O164 In156 2.266 . S
O164 C161 1.252 . S
O165 In156 2.326 . S
O165 C161 1.260 . S
C166 O157 1.240 . S
C166 O158 1.252 . S
O167 In156 2.294 . S
O167 C160 1.240 . S
O168 In156 2.326 . S
O168 C160 1.252 . S
In169 O170 2.294 . S
In169 O171 2.326 . S
In169 O175 2.266 . S
In169 O176 2.326 . S
In169 O177 2.266 . S
In169 O178 2.326 . S
In169 O180 2.294 . S
In169 O181 2.326 . S
O170 In169 2.294 . S
O170 C179 1.240 . S
O171 In169 2.326 . S
O171 C179 1.252 . S
C172 O175 1.252 . S
C172 O176 1.260 . S
C173 O180 1.240 . S
C173 O181 1.252 . S
C174 O177 1.252 . S
C174 O178 1.260 . S
O175 In169 2.266 . S
O175 C172 1.252 . S
O176 In169 2.326 . S
O176 C172 1.260 . S
O177 In169 2.266 . S
O177 C174 1.252 . S
O178 In169 2.326 . S
O178 C174 1.260 . S
C179 O170 1.240 . S
C179 O171 1.252 . S
O180 In169 2.294 . S
O180 C173 1.240 . S
O181 In169 2.326 . S
O181 C173 1.252 . S
In182 O183 2.294 . S
In182 O184 2.326 . S
In182 O188 2.266 . S
In182 O189 2.326 . S
In182 O190 2.266 . S
In182 O191 2.326 . S
In182 O193 2.294 . S
In182 O194 2.326 . S
O183 In182 2.294 . S
O183 C192 1.240 . S
O184 In182 2.326 . S
O184 C192 1.252 . S
C185 O188 1.252 . S
C185 O189 1.260 . S
C186 O193 1.240 . S
C186 O194 1.252 . S
C187 O190 1.252 . S
C187 O191 1.260 . S
O188 In182 2.266 . S
O188 C185 1.252 . S
O189 In182 2.326 . S
O189 C185 1.260 . S
O190 In182 2.266 . S
O190 C187 1.252 . S
O191 In182 2.326 . S
O191 C187 1.260 . S
C192 O183 1.240 . S
C192 O184 1.252 . S
O193 In182 2.294 . S
O193 C186 1.240 . S
O194 In182 2.326 . S
O194 C186 1.252 . S
In195 O196 2.294 . S
In195 O197 2.326 . S
In195 O201 2.266 . S
In195 O202 2.326 . S
In195 O203 2.266 . S
In195 O204 2.326 . S
In195 O206 2.294 . S
In195 O207 2.326 . S
O196 In195 2.294 . S
O196 C205 1.240 . S
O197 In195 2.326 . S
O197 C205 1.252 . S
C198 O201 1.252 . S
C198 O202 1.260 . S
C199 O206 1.240 . S
C199 O207 1.252 . S
C200 O203 1.252 . S
C200 O204 1.260 . S
O201 In195 2.266 . S
O201 C198 1.252 . S
O202 In195 2.326 . S
O202 C198 1.260 . S
O203 In195 2.266 . S
O203 C200 1.252 . S
O204 In195 2.326 . S
O204 C200 1.260 . S
C205 O196 1.240 . S
C205 O197 1.252 . S
O206 In195 2.294 . S
O206 C199 1.240 . S
O207 In195 2.326 . S
O207 C199 1.252 . S
In208 O209 2.294 . S
In208 O210 2.326 . S
In208 O214 2.266 . S
In208 O215 2.326 . S
In208 O216 2.266 . S
In208 O217 2.326 . S
In208 O219 2.294 . S
In208 O220 2.326 . S
O209 In208 2.294 . S
O209 C218 1.240 . S
O210 In208 2.326 . S
O210 C218 1.252 . S
C211 O214 1.252 . S
C211 O215 1.260 . S
C212 O219 1.240 . S
C212 O220 1.252 . S
C213 O216 1.252 . S
C213 O217 1.260 . S
O214 In208 2.266 . S
O214 C211 1.252 . S
O215 In208 2.326 . S
O215 C211 1.260 . S
O216 In208 2.266 . S
O216 C213 1.252 . S
O217 In208 2.326 . S
O217 C213 1.260 . S
C218 O209 1.240 . S
C218 O210 1.252 . S
O219 In208 2.294 . S
O219 C212 1.240 . S
O220 In208 2.326 . S
O220 C212 1.252 . S
In221 O222 2.294 . S
In221 O223 2.326 . S
In221 O227 2.266 . S
In221 O228 2.326 . S
In221 O229 2.266 . S
In221 O230 2.326 . S
In221 O232 2.294 . S
In221 O233 2.326 . S
O222 In221 2.294 . S
O222 C231 1.240 . S
O223 In221 2.326 . S
O223 C231 1.252 . S
C224 O227 1.252 . S
C224 O228 1.260 . S
C225 O232 1.240 . S
C225 O233 1.252 . S
C226 O229 1.252 . S
C226 O230 1.260 . S
O227 In221 2.266 . S
O227 C224 1.252 . S
O228 In221 2.326 . S
O228 C224 1.260 . S
O229 In221 2.266 . S
O229 C226 1.252 . S
O230 In221 2.326 . S
O230 C226 1.260 . S
C231 O222 1.240 . S
C231 O223 1.252 . S
O232 In221 2.294 . S
O232 C225 1.240 . S
O233 In221 2.326 . S
O233 C225 1.252 . S
In234 O235 2.294 . S
In234 O236 2.326 . S
In234 O240 2.266 . S
In234 O241 2.326 . S
In234 O242 2.266 . S
In234 O243 2.326 . S
In234 O245 2.294 . S
In234 O246 2.326 . S
O235 In234 2.294 . S
O235 C244 1.240 . S
O236 In234 2.326 . S
O236 C244 1.252 . S
C237 O240 1.252 . S
C237 O241 1.260 . S
C238 O245 1.240 . S
C238 O246 1.252 . S
C239 O242 1.252 . S
C239 O243 1.260 . S
O240 In234 2.266 . S
O240 C237 1.252 . S
O241 In234 2.326 . S
O241 C237 1.260 . S
O242 In234 2.266 . S
O242 C239 1.252 . S
O243 In234 2.326 . S
O243 C239 1.260 . S
C244 O235 1.240 . S
C244 O236 1.252 . S
O245 In234 2.294 . S
O245 C238 1.240 . S
O246 In234 2.326 . S
O246 C238 1.252 . S
In247 O248 2.294 . S
In247 O249 2.326 . S
In247 O253 2.266 . S
In247 O254 2.326 . S
In247 O255 2.266 . S
In247 O256 2.326 . S
In247 O258 2.294 . S
In247 O259 2.326 . S
O248 In247 2.294 . S
O248 C257 1.240 . S
O249 In247 2.326 . S
O249 C257 1.252 . S
C250 O253 1.252 . S
C250 O254 1.260 . S
C251 O258 1.240 . S
C251 O259 1.252 . S
C252 O255 1.252 . S
C252 O256 1.260 . S
O253 In247 2.266 . S
O253 C250 1.252 . S
O254 In247 2.326 . S
O254 C250 1.260 . S
O255 In247 2.266 . S
O255 C252 1.252 . S
O256 In247 2.326 . S
O256 C252 1.260 . S
C257 O248 1.240 . S
C257 O249 1.252 . S
O258 In247 2.294 . S
O258 C251 1.240 . S
O259 In247 2.326 . S
O259 C251 1.252 . S
In260 O261 2.294 . S
In260 O262 2.326 . S
In260 O266 2.266 . S
In260 O267 2.326 . S
In260 O268 2.266 . S
In260 O269 2.326 . S
In260 O271 2.294 . S
In260 O272 2.326 . S
O261 In260 2.294 . S
O261 C270 1.240 . S
O262 In260 2.326 . S
O262 C270 1.252 . S
C263 O266 1.252 . S
C263 O267 1.260 . S
C264 O271 1.240 . S
C264 O272 1.252 . S
C265 O268 1.252 . S
C265 O269 1.260 . S
O266 In260 2.266 . S
O266 C263 1.252 . S
O267 In260 2.326 . S
O267 C263 1.260 . S
O268 In260 2.266 . S
O268 C265 1.252 . S
O269 In260 2.326 . S
O269 C265 1.260 . S
C270 O261 1.240 . S
C270 O262 1.252 . S
O271 In260 2.294 . S
O271 C264 1.240 . S
O272 In260 2.326 . S
O272 C264 1.252 . S
In273 O274 2.294 . S
In273 O275 2.326 . S
In273 O279 2.266 . S
In273 O280 2.326 . S
In273 O281 2.266 . S
In273 O282 2.326 . S
In273 O284 2.294 . S
In273 O285 2.326 . S
O274 In273 2.294 . S
O274 C283 1.240 . S
O275 In273 2.326 . S
O275 C283 1.252 . S
C276 O279 1.252 . S
C276 O280 1.260 . S
C277 O284 1.240 . S
C277 O285 1.252 . S
C278 O281 1.252 . S
C278 O282 1.260 . S
O279 In273 2.266 . S
O279 C276 1.252 . S
O280 In273 2.326 . S
O280 C276 1.260 . S
O281 In273 2.266 . S
O281 C278 1.252 . S
O282 In273 2.326 . S
O282 C278 1.260 . S
C283 O274 1.240 . S
C283 O275 1.252 . S
O284 In273 2.294 . S
O284 C277 1.240 . S
O285 In273 2.326 . S
O285 C277 1.252 . S
In286 O287 2.294 . S
In286 O288 2.326 . S
In286 O292 2.266 . S
In286 O293 2.326 . S
In286 O294 2.266 . S
In286 O295 2.326 . S
In286 O297 2.294 . S
In286 O298 2.326 . S
O287 In286 2.294 . S
O287 C296 1.240 . S
O288 In286 2.326 . S
O288 C296 1.252 . S
C289 O292 1.252 . S
C289 O293 1.260 . S
C290 O297 1.240 . S
C290 O298 1.252 . S
C291 O294 1.252 . S
C291 O295 1.260 . S
O292 In286 2.266 . S
O292 C289 1.252 . S
O293 In286 2.326 . S
O293 C289 1.260 . S
O294 In286 2.266 . S
O294 C291 1.252 . S
O295 In286 2.326 . S
O295 C291 1.260 . S
C296 O287 1.240 . S
C296 O288 1.252 . S
O297 In286 2.294 . S
O297 C290 1.240 . S
O298 In286 2.326 . S
O298 C290 1.252 . S
In299 O300 2.294 . S
In299 O301 2.326 . S
In299 O305 2.266 . S
In299 O306 2.326 . S
In299 O307 2.266 . S
In299 O308 2.326 . S
In299 O310 2.294 . S
In299 O311 2.326 . S
O300 In299 2.294 . S
O300 C309 1.240 . S
O301 In299 2.326 . S
O301 C309 1.252 . S
C302 O305 1.252 . S
C302 O306 1.260 . S
C303 O310 1.240 . S
C303 O311 1.252 . S
C304 O307 1.252 . S
C304 O308 1.260 . S
O305 In299 2.266 . S
O305 C302 1.252 . S
O306 In299 2.326 . S
O306 C302 1.260 . S
O307 In299 2.266 . S
O307 C304 1.252 . S
O308 In299 2.326 . S
O308 C304 1.260 . S
C309 O300 1.240 . S
C309 O301 1.252 . S
O310 In299 2.294 . S
O310 C303 1.240 . S
O311 In299 2.326 . S
O311 C303 1.252 . S
In312 O313 2.294 . S
In312 O314 2.326 . S
In312 O318 2.266 . S
In312 O319 2.326 . S
In312 O320 2.266 . S
In312 O321 2.326 . S
In312 O323 2.294 . S
In312 O324 2.326 . S
O313 In312 2.294 . S
O313 C322 1.240 . S
O314 In312 2.326 . S
O314 C322 1.252 . S
C315 O318 1.252 . S
C315 O319 1.260 . S
C316 O323 1.240 . S
C316 O324 1.252 . S
C317 O320 1.252 . S
C317 O321 1.260 . S
O318 In312 2.266 . S
O318 C315 1.252 . S
O319 In312 2.326 . S
O319 C315 1.260 . S
O320 In312 2.266 . S
O320 C317 1.252 . S
O321 In312 2.326 . S
O321 C317 1.260 . S
C322 O313 1.240 . S
C322 O314 1.252 . S
O323 In312 2.294 . S
O323 C316 1.240 . S
O324 In312 2.326 . S
O324 C316 1.252 . S
In325 O326 2.294 . S
In325 O327 2.326 . S
In325 O331 2.266 . S
In325 O332 2.326 . S
In325 O333 2.266 . S
In325 O334 2.326 . S
In325 O336 2.294 . S
In325 O337 2.326 . S
O326 In325 2.294 . S
O326 C335 1.240 . S
O327 In325 2.326 . S
O327 C335 1.252 . S
C328 O331 1.252 . S
C328 O332 1.260 . S
C329 O336 1.240 . S
C329 O337 1.252 . S
C330 O333 1.252 . S
C330 O334 1.260 . S
O331 In325 2.266 . S
O331 C328 1.252 . S
O332 In325 2.326 . S
O332 C328 1.260 . S
O333 In325 2.266 . S
O333 C330 1.252 . S
O334 In325 2.326 . S
O334 C330 1.260 . S
C335 O326 1.240 . S
C335 O327 1.252 . S
O336 In325 2.294 . S
O336 C329 1.240 . S
O337 In325 2.326 . S
O337 C329 1.252 . S
In338 O339 2.294 . S
In338 O340 2.326 . S
In338 O344 2.266 . S
In338 O345 2.326 . S
In338 O346 2.266 . S
In338 O347 2.326 . S
In338 O349 2.294 . S
In338 O350 2.326 . S
O339 In338 2.294 . S
O339 C348 1.240 . S
O340 In338 2.326 . S
O340 C348 1.252 . S
C341 O344 1.252 . S
C341 O345 1.260 . S
C342 O349 1.240 . S
C342 O350 1.252 . S
C343 O346 1.252 . S
C343 O347 1.260 . S
O344 In338 2.266 . S
O344 C341 1.252 . S
O345 In338 2.326 . S
O345 C341 1.260 . S
O346 In338 2.266 . S
O346 C343 1.252 . S
O347 In338 2.326 . S
O347 C343 1.260 . S
C348 O339 1.240 . S
C348 O340 1.252 . S
O349 In338 2.294 . S
O349 C342 1.240 . S
O350 In338 2.326 . S
O350 C342 1.252 . S
In351 O352 2.294 . S
In351 O353 2.326 . S
In351 O357 2.266 . S
In351 O358 2.326 . S
In351 O359 2.266 . S
In351 O360 2.326 . S
In351 O362 2.294 . S
In351 O363 2.326 . S
O352 In351 2.294 . S
O352 C361 1.240 . S
O353 In351 2.326 . S
O353 C361 1.252 . S
C354 O357 1.252 . S
C354 O358 1.260 . S
C355 O362 1.240 . S
C355 O363 1.252 . S
C356 O359 1.252 . S
C356 O360 1.260 . S
O357 In351 2.266 . S
O357 C354 1.252 . S
O358 In351 2.326 . S
O358 C354 1.260 . S
O359 In351 2.266 . S
O359 C356 1.252 . S
O360 In351 2.326 . S
O360 C356 1.260 . S
C361 O352 1.240 . S
C361 O353 1.252 . S
O362 In351 2.294 . S
O362 C355 1.240 . S
O363 In351 2.326 . S
O363 C355 1.252 . S
In364 O365 2.294 . S
In364 O366 2.326 . S
In364 O370 2.266 . S
In364 O371 2.326 . S
In364 O372 2.266 . S
In364 O373 2.326 . S
In364 O375 2.294 . S
In364 O376 2.326 . S
O365 In364 2.294 . S
O365 C374 1.240 . S
O366 In364 2.326 . S
O366 C374 1.252 . S
C367 O370 1.252 . S
C367 O371 1.260 . S
C368 O375 1.240 . S
C368 O376 1.252 . S
C369 O372 1.252 . S
C369 O373 1.260 . S
O370 In364 2.266 . S
O370 C367 1.252 . S
O371 In364 2.326 . S
O371 C367 1.260 . S
O372 In364 2.266 . S
O372 C369 1.252 . S
O373 In364 2.326 . S
O373 C369 1.260 . S
C374 O365 1.240 . S
C374 O366 1.252 . S
O375 In364 2.294 . S
O375 C368 1.240 . S
O376 In364 2.326 . S
O376 C368 1.252 . S
In377 O378 2.294 . S
In377 O379 2.326 . S
In377 O383 2.266 . S
In377 O384 2.326 . S
In377 O385 2.266 . S
In377 O386 2.326 . S
In377 O388 2.294 . S
In377 O389 2.326 . S
O378 In377 2.294 . S
O378 C387 1.240 . S
O379 In377 2.326 . S
O379 C387 1.252 . S
C380 O383 1.252 . S
C380 O384 1.260 . S
C381 O388 1.240 . S
C381 O389 1.252 . S
C382 O385 1.252 . S
C382 O386 1.260 . S
O383 In377 2.266 . S
O383 C380 1.252 . S
O384 In377 2.326 . S
O384 C380 1.260 . S
O385 In377 2.266 . S
O385 C382 1.252 . S
O386 In377 2.326 . S
O386 C382 1.260 . S
C387 O378 1.240 . S
C387 O379 1.252 . S
O388 In377 2.294 . S
O388 C381 1.240 . S
O389 In377 2.326 . S
O389 C381 1.252 . S
In390 O391 2.294 . S
In390 O392 2.326 . S
In390 O396 2.266 . S
In390 O397 2.326 . S
In390 O398 2.266 . S
In390 O399 2.326 . S
In390 O401 2.294 . S
In390 O402 2.326 . S
O391 In390 2.294 . S
O391 C400 1.240 . S
O392 In390 2.326 . S
O392 C400 1.252 . S
C393 O396 1.252 . S
C393 O397 1.260 . S
C394 O401 1.240 . S
C394 O402 1.252 . S
C395 O398 1.252 . S
C395 O399 1.260 . S
O396 In390 2.266 . S
O396 C393 1.252 . S
O397 In390 2.326 . S
O397 C393 1.260 . S
O398 In390 2.266 . S
O398 C395 1.252 . S
O399 In390 2.326 . S
O399 C395 1.260 . S
C400 O391 1.240 . S
C400 O392 1.252 . S
O401 In390 2.294 . S
O401 C394 1.240 . S
O402 In390 2.326 . S
O402 C394 1.252 . S
In403 O404 2.294 . S
In403 O405 2.326 . S
In403 O409 2.266 . S
In403 O410 2.326 . S
In403 O411 2.266 . S
In403 O412 2.326 . S
In403 O414 2.294 . S
In403 O415 2.326 . S
O404 In403 2.294 . S
O404 C413 1.240 . S
O405 In403 2.326 . S
O405 C413 1.252 . S
C406 O409 1.252 . S
C406 O410 1.260 . S
C407 O414 1.240 . S
C407 O415 1.252 . S
C408 O411 1.252 . S
C408 O412 1.260 . S
O409 In403 2.266 . S
O409 C406 1.252 . S
O410 In403 2.326 . S
O410 C406 1.260 . S
O411 In403 2.266 . S
O411 C408 1.252 . S
O412 In403 2.326 . S
O412 C408 1.260 . S
C413 O404 1.240 . S
C413 O405 1.252 . S
O414 In403 2.294 . S
O414 C407 1.240 . S
O415 In403 2.326 . S
O415 C407 1.252 . S
In416 O417 2.294 . S
In416 O418 2.326 . S
In416 O422 2.266 . S
In416 O423 2.326 . S
In416 O424 2.266 . S
In416 O425 2.326 . S
In416 O427 2.294 . S
In416 O428 2.326 . S
O417 In416 2.294 . S
O417 C426 1.240 . S
O418 In416 2.326 . S
O418 C426 1.252 . S
C419 O422 1.252 . S
C419 O423 1.260 . S
C420 O427 1.240 . S
C420 O428 1.252 . S
C421 O424 1.252 . S
C421 O425 1.260 . S
O422 In416 2.266 . S
O422 C419 1.252 . S
O423 In416 2.326 . S
O423 C419 1.260 . S
O424 In416 2.266 . S
O424 C421 1.252 . S
O425 In416 2.326 . S
O425 C421 1.260 . S
C426 O417 1.240 . S
C426 O418 1.252 . S
O427 In416 2.294 . S
O427 C420 1.240 . S
O428 In416 2.326 . S
O428 C420 1.252 . S
In429 O430 2.294 . S
In429 O431 2.326 . S
In429 O435 2.266 . S
In429 O436 2.326 . S
In429 O437 2.266 . S
In429 O438 2.326 . S
In429 O440 2.294 . S
In429 O441 2.326 . S
O430 In429 2.294 . S
O430 C439 1.240 . S
O431 In429 2.326 . S
O431 C439 1.252 . S
C432 O435 1.252 . S
C432 O436 1.260 . S
C433 O440 1.240 . S
C433 O441 1.252 . S
C434 O437 1.252 . S
C434 O438 1.260 . S
O435 In429 2.266 . S
O435 C432 1.252 . S
O436 In429 2.326 . S
O436 C432 1.260 . S
O437 In429 2.266 . S
O437 C434 1.252 . S
O438 In429 2.326 . S
O438 C434 1.260 . S
C439 O430 1.240 . S
C439 O431 1.252 . S
O440 In429 2.294 . S
O440 C433 1.240 . S
O441 In429 2.326 . S
O441 C433 1.252 . S
In442 O443 2.294 . S
In442 O444 2.326 . S
In442 O448 2.266 . S
In442 O449 2.326 . S
In442 O450 2.266 . S
In442 O451 2.326 . S
In442 O453 2.294 . S
In442 O454 2.326 . S
O443 In442 2.294 . S
O443 C452 1.240 . S
O444 In442 2.326 . S
O444 C452 1.252 . S
C445 O448 1.252 . S
C445 O449 1.260 . S
C446 O453 1.240 . S
C446 O454 1.252 . S
C447 O450 1.252 . S
C447 O451 1.260 . S
O448 In442 2.266 . S
O448 C445 1.252 . S
O449 In442 2.326 . S
O449 C445 1.260 . S
O450 In442 2.266 . S
O450 C447 1.252 . S
O451 In442 2.326 . S
O451 C447 1.260 . S
C452 O443 1.240 . S
C452 O444 1.252 . S
O453 In442 2.294 . S
O453 C446 1.240 . S
O454 In442 2.326 . S
O454 C446 1.252 . S
In455 O456 2.294 . S
In455 O457 2.326 . S
In455 O461 2.266 . S
In455 O462 2.326 . S
In455 O463 2.266 . S
In455 O464 2.326 . S
In455 O466 2.294 . S
In455 O467 2.326 . S
O456 In455 2.294 . S
O456 C465 1.240 . S
O457 In455 2.326 . S
O457 C465 1.252 . S
C458 O461 1.252 . S
C458 O462 1.260 . S
C459 O466 1.240 . S
C459 O467 1.252 . S
C460 O463 1.252 . S
C460 O464 1.260 . S
O461 In455 2.266 . S
O461 C458 1.252 . S
O462 In455 2.326 . S
O462 C458 1.260 . S
O463 In455 2.266 . S
O463 C460 1.252 . S
O464 In455 2.326 . S
O464 C460 1.260 . S
C465 O456 1.240 . S
C465 O457 1.252 . S
O466 In455 2.294 . S
O466 C459 1.240 . S
O467 In455 2.326 . S
O467 C459 1.252 . S
In468 O469 2.294 . S
In468 O470 2.326 . S
In468 O474 2.266 . S
In468 O475 2.326 . S
In468 O476 2.266 . S
In468 O477 2.326 . S
In468 O479 2.294 . S
In468 O480 2.326 . S
O469 In468 2.294 . S
O469 C478 1.240 . S
O470 In468 2.326 . S
O470 C478 1.252 . S
C471 O474 1.252 . S
C471 O475 1.260 . S
C472 O479 1.240 . S
C472 O480 1.252 . S
C473 O476 1.252 . S
C473 O477 1.260 . S
O474 In468 2.266 . S
O474 C471 1.252 . S
O475 In468 2.326 . S
O475 C471 1.260 . S
O476 In468 2.266 . S
O476 C473 1.252 . S
O477 In468 2.326 . S
O477 C473 1.260 . S
C478 O469 1.240 . S
C478 O470 1.252 . S
O479 In468 2.294 . S
O479 C472 1.240 . S
O480 In468 2.326 . S
O480 C472 1.252 . S
In481 O482 2.294 . S
In481 O483 2.326 . S
In481 O487 2.266 . S
In481 O488 2.326 . S
In481 O489 2.266 . S
In481 O490 2.326 . S
In481 O492 2.294 . S
In481 O493 2.326 . S
O482 In481 2.294 . S
O482 C491 1.240 . S
O483 In481 2.326 . S
O483 C491 1.252 . S
C484 O487 1.252 . S
C484 O488 1.260 . S
C485 O492 1.240 . S
C485 O493 1.252 . S
C486 O489 1.252 . S
C486 O490 1.260 . S
O487 In481 2.266 . S
O487 C484 1.252 . S
O488 In481 2.326 . S
O488 C484 1.260 . S
O489 In481 2.266 . S
O489 C486 1.252 . S
O490 In481 2.326 . S
O490 C486 1.260 . S
C491 O482 1.240 . S
C491 O483 1.252 . S
O492 In481 2.294 . S
O492 C485 1.240 . S
O493 In481 2.326 . S
O493 C485 1.252 . S
In494 O495 2.294 . S
In494 O496 2.326 . S
In494 O500 2.266 . S
In494 O501 2.326 . S
In494 O502 2.266 . S
In494 O503 2.326 . S
In494 O505 2.294 . S
In494 O506 2.326 . S
O495 In494 2.294 . S
O495 C504 1.240 . S
O496 In494 2.326 . S
O496 C504 1.252 . S
C497 O500 1.252 . S
C497 O501 1.260 . S
C498 O505 1.240 . S
C498 O506 1.252 . S
C499 O502 1.252 . S
C499 O503 1.260 . S
O500 In494 2.266 . S
O500 C497 1.252 . S
O501 In494 2.326 . S
O501 C497 1.260 . S
O502 In494 2.266 . S
O502 C499 1.252 . S
O503 In494 2.326 . S
O503 C499 1.260 . S
C504 O495 1.240 . S
C504 O496 1.252 . S
O505 In494 2.294 . S
O505 C498 1.240 . S
O506 In494 2.326 . S
O506 C498 1.252 . S
In507 O508 2.294 . S
In507 O509 2.326 . S
In507 O513 2.266 . S
In507 O514 2.326 . S
In507 O515 2.266 . S
In507 O516 2.326 . S
In507 O518 2.294 . S
In507 O519 2.326 . S
O508 In507 2.294 . S
O508 C517 1.240 . S
O509 In507 2.326 . S
O509 C517 1.252 . S
C510 O513 1.252 . S
C510 O514 1.260 . S
C511 O518 1.240 . S
C511 O519 1.252 . S
C512 O515 1.252 . S
C512 O516 1.260 . S
O513 In507 2.266 . S
O513 C510 1.252 . S
O514 In507 2.326 . S
O514 C510 1.260 . S
O515 In507 2.266 . S
O515 C512 1.252 . S
O516 In507 2.326 . S
O516 C512 1.260 . S
C517 O508 1.240 . S
C517 O509 1.252 . S
O518 In507 2.294 . S
O518 C511 1.240 . S
O519 In507 2.326 . S
O519 C511 1.252 . S
In520 O521 2.294 . S
In520 O522 2.326 . S
In520 O526 2.266 . S
In520 O527 2.326 . S
In520 O528 2.266 . S
In520 O529 2.326 . S
In520 O531 2.294 . S
In520 O532 2.326 . S
O521 In520 2.294 . S
O521 C530 1.240 . S
O522 In520 2.326 . S
O522 C530 1.252 . S
C523 O526 1.252 . S
C523 O527 1.260 . S
C524 O531 1.240 . S
C524 O532 1.252 . S
C525 O528 1.252 . S
C525 O529 1.260 . S
O526 In520 2.266 . S
O526 C523 1.252 . S
O527 In520 2.326 . S
O527 C523 1.260 . S
O528 In520 2.266 . S
O528 C525 1.252 . S
O529 In520 2.326 . S
O529 C525 1.260 . S
C530 O521 1.240 . S
C530 O522 1.252 . S
O531 In520 2.294 . S
O531 C524 1.240 . S
O532 In520 2.326 . S
O532 C524 1.252 . S
In533 O534 2.294 . S
In533 O535 2.326 . S
In533 O539 2.266 . S
In533 O540 2.326 . S
In533 O541 2.266 . S
In533 O542 2.326 . S
In533 O544 2.294 . S
In533 O545 2.326 . S
O534 In533 2.294 . S
O534 C543 1.240 . S
O535 In533 2.326 . S
O535 C543 1.252 . S
C536 O539 1.252 . S
C536 O540 1.260 . S
C537 O544 1.240 . S
C537 O545 1.252 . S
C538 O541 1.252 . S
C538 O542 1.260 . S
O539 In533 2.266 . S
O539 C536 1.252 . S
O540 In533 2.326 . S
O540 C536 1.260 . S
O541 In533 2.266 . S
O541 C538 1.252 . S
O542 In533 2.326 . S
O542 C538 1.260 . S
C543 O534 1.240 . S
C543 O535 1.252 . S
O544 In533 2.294 . S
O544 C537 1.240 . S
O545 In533 2.326 . S
O545 C537 1.252 . S
In546 O547 2.294 . S
In546 O548 2.326 . S
In546 O552 2.266 . S
In546 O553 2.326 . S
In546 O554 2.266 . S
In546 O555 2.326 . S
In546 O557 2.294 . S
In546 O558 2.326 . S
O547 In546 2.294 . S
O547 C556 1.240 . S
O548 In546 2.326 . S
O548 C556 1.252 . S
C549 O552 1.252 . S
C549 O553 1.260 . S
C550 O557 1.240 . S
C550 O558 1.252 . S
C551 O554 1.252 . S
C551 O555 1.260 . S
O552 In546 2.266 . S
O552 C549 1.252 . S
O553 In546 2.326 . S
O553 C549 1.260 . S
O554 In546 2.266 . S
O554 C551 1.252 . S
O555 In546 2.326 . S
O555 C551 1.260 . S
C556 O547 1.240 . S
C556 O548 1.252 . S
O557 In546 2.294 . S
O557 C550 1.240 . S
O558 In546 2.326 . S
O558 C550 1.252 . S
In559 O560 2.294 . S
In559 O561 2.326 . S
In559 O565 2.266 . S
In559 O566 2.326 . S
In559 O567 2.266 . S
In559 O568 2.326 . S
In559 O570 2.294 . S
In559 O571 2.326 . S
O560 In559 2.294 . S
O560 C569 1.240 . S
O561 In559 2.326 . S
O561 C569 1.252 . S
C562 O565 1.252 . S
C562 O566 1.260 . S
C563 O570 1.240 . S
C563 O571 1.252 . S
C564 O567 1.252 . S
C564 O568 1.260 . S
O565 In559 2.266 . S
O565 C562 1.252 . S
O566 In559 2.326 . S
O566 C562 1.260 . S
O567 In559 2.266 . S
O567 C564 1.252 . S
O568 In559 2.326 . S
O568 C564 1.260 . S
C569 O560 1.240 . S
C569 O561 1.252 . S
O570 In559 2.294 . S
O570 C563 1.240 . S
O571 In559 2.326 . S
O571 C563 1.252 . S
In572 O573 2.294 . S
In572 O574 2.326 . S
In572 O578 2.266 . S
In572 O579 2.326 . S
In572 O580 2.266 . S
In572 O581 2.326 . S
In572 O583 2.294 . S
In572 O584 2.326 . S
O573 In572 2.294 . S
O573 C582 1.240 . S
O574 In572 2.326 . S
O574 C582 1.252 . S
C575 O578 1.252 . S
C575 O579 1.260 . S
C576 O583 1.240 . S
C576 O584 1.252 . S
C577 O580 1.252 . S
C577 O581 1.260 . S
O578 In572 2.266 . S
O578 C575 1.252 . S
O579 In572 2.326 . S
O579 C575 1.260 . S
O580 In572 2.266 . S
O580 C577 1.252 . S
O581 In572 2.326 . S
O581 C577 1.260 . S
C582 O573 1.240 . S
C582 O574 1.252 . S
O583 In572 2.294 . S
O583 C576 1.240 . S
O584 In572 2.326 . S
O584 C576 1.252 . S
In585 O586 2.294 . S
In585 O587 2.326 . S
In585 O591 2.266 . S
In585 O592 2.326 . S
In585 O593 2.266 . S
In585 O594 2.326 . S
In585 O596 2.294 . S
In585 O597 2.326 . S
O586 In585 2.294 . S
O586 C595 1.240 . S
O587 In585 2.326 . S
O587 C595 1.252 . S
C588 O591 1.252 . S
C588 O592 1.260 . S
C589 O596 1.240 . S
C589 O597 1.252 . S
C590 O593 1.252 . S
C590 O594 1.260 . S
O591 In585 2.266 . S
O591 C588 1.252 . S
O592 In585 2.326 . S
O592 C588 1.260 . S
O593 In585 2.266 . S
O593 C590 1.252 . S
O594 In585 2.326 . S
O594 C590 1.260 . S
C595 O586 1.240 . S
C595 O587 1.252 . S
O596 In585 2.294 . S
O596 C589 1.240 . S
O597 In585 2.326 . S
O597 C589 1.252 . S
In598 O599 2.294 . S
In598 O600 2.326 . S
In598 O604 2.266 . S
In598 O605 2.326 . S
In598 O606 2.266 . S
In598 O607 2.326 . S
In598 O609 2.294 . S
In598 O610 2.326 . S
O599 In598 2.294 . S
O599 C608 1.240 . S
O600 In598 2.326 . S
O600 C608 1.252 . S
C601 O604 1.252 . S
C601 O605 1.260 . S
C602 O609 1.240 . S
C602 O610 1.252 . S
C603 O606 1.252 . S
C603 O607 1.260 . S
O604 In598 2.266 . S
O604 C601 1.252 . S
O605 In598 2.326 . S
O605 C601 1.260 . S
O606 In598 2.266 . S
O606 C603 1.252 . S
O607 In598 2.326 . S
O607 C603 1.260 . S
C608 O599 1.240 . S
C608 O600 1.252 . S
O609 In598 2.294 . S
O609 C602 1.240 . S
O610 In598 2.326 . S
O610 C602 1.252 . S
In611 O612 2.294 . S
In611 O613 2.326 . S
In611 O617 2.266 . S
In611 O618 2.326 . S
In611 O619 2.266 . S
In611 O620 2.326 . S
In611 O622 2.294 . S
In611 O623 2.326 . S
O612 In611 2.294 . S
O612 C621 1.240 . S
O613 In611 2.326 . S
O613 C621 1.252 . S
C614 O617 1.252 . S
C614 O618 1.260 . S
C615 O622 1.240 . S
C615 O623 1.252 . S
C616 O619 1.252 . S
C616 O620 1.260 . S
O617 In611 2.266 . S
O617 C614 1.252 . S
O618 In611 2.326 . S
O618 C614 1.260 . S
O619 In611 2.266 . S
O619 C616 1.252 . S
O620 In611 2.326 . S
O620 C616 1.260 . S
C621 O612 1.240 . S
C621 O613 1.252 . S
O622 In611 2.294 . S
O622 C615 1.240 . S
O623 In611 2.326 . S
O623 C615 1.252 . S
In624 O625 2.294 . S
In624 O626 2.326 . S
In624 O630 2.266 . S
In624 O631 2.326 . S
In624 O632 2.266 . S
In624 O633 2.326 . S
In624 O635 2.294 . S
In624 O636 2.326 . S
O625 In624 2.294 . S
O625 C634 1.240 . S
O626 In624 2.326 . S
O626 C634 1.252 . S
C627 O630 1.252 . S
C627 O631 1.260 . S
C628 O635 1.240 . S
C628 O636 1.252 . S
C629 O632 1.252 . S
C629 O633 1.260 . S
O630 In624 2.266 . S
O630 C627 1.252 . S
O631 In624 2.326 . S
O631 C627 1.260 . S
O632 In624 2.266 . S
O632 C629 1.252 . S
O633 In624 2.326 . S
O633 C629 1.260 . S
C634 O625 1.240 . S
C634 O626 1.252 . S
O635 In624 2.294 . S
O635 C628 1.240 . S
O636 In624 2.326 . S
O636 C628 1.252 . S
In637 O638 2.294 . S
In637 O639 2.326 . S
In637 O643 2.266 . S
In637 O644 2.326 . S
In637 O645 2.266 . S
In637 O646 2.326 . S
In637 O648 2.294 . S
In637 O649 2.326 . S
O638 In637 2.294 . S
O638 C647 1.240 . S
O639 In637 2.326 . S
O639 C647 1.252 . S
C640 O643 1.252 . S
C640 O644 1.260 . S
C641 O648 1.240 . S
C641 O649 1.252 . S
C642 O645 1.252 . S
C642 O646 1.260 . S
O643 In637 2.266 . S
O643 C640 1.252 . S
O644 In637 2.326 . S
O644 C640 1.260 . S
O645 In637 2.266 . S
O645 C642 1.252 . S
O646 In637 2.326 . S
O646 C642 1.260 . S
C647 O638 1.240 . S
C647 O639 1.252 . S
O648 In637 2.294 . S
O648 C641 1.240 . S
O649 In637 2.326 . S
O649 C641 1.252 . S
In650 O651 2.294 . S
In650 O652 2.326 . S
In650 O656 2.266 . S
In650 O657 2.326 . S
In650 O658 2.266 . S
In650 O659 2.326 . S
In650 O661 2.294 . S
In650 O662 2.326 . S
O651 In650 2.294 . S
O651 C660 1.240 . S
O652 In650 2.326 . S
O652 C660 1.252 . S
C653 O656 1.252 . S
C653 O657 1.260 . S
C654 O661 1.240 . S
C654 O662 1.252 . S
C655 O658 1.252 . S
C655 O659 1.260 . S
O656 In650 2.266 . S
O656 C653 1.252 . S
O657 In650 2.326 . S
O657 C653 1.260 . S
O658 In650 2.266 . S
O658 C655 1.252 . S
O659 In650 2.326 . S
O659 C655 1.260 . S
C660 O651 1.240 . S
C660 O652 1.252 . S
O661 In650 2.294 . S
O661 C654 1.240 . S
O662 In650 2.326 . S
O662 C654 1.252 . S
In663 O664 2.294 . S
In663 O665 2.326 . S
In663 O669 2.266 . S
In663 O670 2.326 . S
In663 O671 2.266 . S
In663 O672 2.326 . S
In663 O674 2.294 . S
In663 O675 2.326 . S
O664 In663 2.294 . S
O664 C673 1.240 . S
O665 In663 2.326 . S
O665 C673 1.252 . S
C666 O669 1.252 . S
C666 O670 1.260 . S
C667 O674 1.240 . S
C667 O675 1.252 . S
C668 O671 1.252 . S
C668 O672 1.260 . S
O669 In663 2.266 . S
O669 C666 1.252 . S
O670 In663 2.326 . S
O670 C666 1.260 . S
O671 In663 2.266 . S
O671 C668 1.252 . S
O672 In663 2.326 . S
O672 C668 1.260 . S
C673 O664 1.240 . S
C673 O665 1.252 . S
O674 In663 2.294 . S
O674 C667 1.240 . S
O675 In663 2.326 . S
O675 C667 1.252 . S
In676 O677 2.294 . S
In676 O678 2.326 . S
In676 O682 2.266 . S
In676 O683 2.326 . S
In676 O684 2.266 . S
In676 O685 2.326 . S
In676 O687 2.294 . S
In676 O688 2.326 . S
O677 In676 2.294 . S
O677 C686 1.240 . S
O678 In676 2.326 . S
O678 C686 1.252 . S
C679 O682 1.252 . S
C679 O683 1.260 . S
C680 O687 1.240 . S
C680 O688 1.252 . S
C681 O684 1.252 . S
C681 O685 1.260 . S
O682 In676 2.266 . S
O682 C679 1.252 . S
O683 In676 2.326 . S
O683 C679 1.260 . S
O684 In676 2.266 . S
O684 C681 1.252 . S
O685 In676 2.326 . S
O685 C681 1.260 . S
C686 O677 1.240 . S
C686 O678 1.252 . S
O687 In676 2.294 . S
O687 C680 1.240 . S
O688 In676 2.326 . S
O688 C680 1.252 . S
In689 O690 2.294 . S
In689 O691 2.326 . S
In689 O695 2.266 . S
In689 O696 2.326 . S
In689 O697 2.266 . S
In689 O698 2.326 . S
In689 O700 2.294 . S
In689 O701 2.326 . S
O690 In689 2.294 . S
O690 C699 1.240 . S
O691 In689 2.326 . S
O691 C699 1.252 . S
C692 O695 1.252 . S
C692 O696 1.260 . S
C693 O700 1.240 . S
C693 O701 1.252 . S
C694 O697 1.252 . S
C694 O698 1.260 . S
O695 In689 2.266 . S
O695 C692 1.252 . S
O696 In689 2.326 . S
O696 C692 1.260 . S
O697 In689 2.266 . S
O697 C694 1.252 . S
O698 In689 2.326 . S
O698 C694 1.260 . S
C699 O690 1.240 . S
C699 O691 1.252 . S
O700 In689 2.294 . S
O700 C693 1.240 . S
O701 In689 2.326 . S
O701 C693 1.252 . S
In702 O703 2.294 . S
In702 O704 2.326 . S
In702 O708 2.266 . S
In702 O709 2.326 . S
In702 O710 2.266 . S
In702 O711 2.326 . S
In702 O713 2.294 . S
In702 O714 2.326 . S
O703 In702 2.294 . S
O703 C712 1.240 . S
O704 In702 2.326 . S
O704 C712 1.252 . S
C705 O708 1.252 . S
C705 O709 1.260 . S
C706 O713 1.240 . S
C706 O714 1.252 . S
C707 O710 1.252 . S
C707 O711 1.260 . S
O708 In702 2.266 . S
O708 C705 1.252 . S
O709 In702 2.326 . S
O709 C705 1.260 . S
O710 In702 2.266 . S
O710 C707 1.252 . S
O711 In702 2.326 . S
O711 C707 1.260 . S
C712 O703 1.240 . S
C712 O704 1.252 . S
O713 In702 2.294 . S
O713 C706 1.240 . S
O714 In702 2.326 . S
O714 C706 1.252 . S
In715 O716 2.294 . S
In715 O717 2.326 . S
In715 O721 2.266 . S
In715 O722 2.326 . S
In715 O723 2.266 . S
In715 O724 2.326 . S
In715 O726 2.294 . S
In715 O727 2.326 . S
O716 In715 2.294 . S
O716 C725 1.240 . S
O717 In715 2.326 . S
O717 C725 1.252 . S
C718 O721 1.252 . S
C718 O722 1.260 . S
C719 O726 1.240 . S
C719 O727 1.252 . S
C720 O723 1.252 . S
C720 O724 1.260 . S
O721 In715 2.266 . S
O721 C718 1.252 . S
O722 In715 2.326 . S
O722 C718 1.260 . S
O723 In715 2.266 . S
O723 C720 1.252 . S
O724 In715 2.326 . S
O724 C720 1.260 . S
C725 O716 1.240 . S
C725 O717 1.252 . S
O726 In715 2.294 . S
O726 C719 1.240 . S
O727 In715 2.326 . S
O727 C719 1.252 . S
In728 O729 2.294 . S
In728 O730 2.326 . S
In728 O734 2.266 . S
In728 O735 2.326 . S
In728 O736 2.266 . S
In728 O737 2.326 . S
In728 O739 2.294 . S
In728 O740 2.326 . S
O729 In728 2.294 . S
O729 C738 1.240 . S
O730 In728 2.326 . S
O730 C738 1.252 . S
C731 O734 1.252 . S
C731 O735 1.260 . S
C732 O739 1.240 . S
C732 O740 1.252 . S
C733 O736 1.252 . S
C733 O737 1.260 . S
O734 In728 2.266 . S
O734 C731 1.252 . S
O735 In728 2.326 . S
O735 C731 1.260 . S
O736 In728 2.266 . S
O736 C733 1.252 . S
O737 In728 2.326 . S
O737 C733 1.260 . S
C738 O729 1.240 . S
C738 O730 1.252 . S
O739 In728 2.294 . S
O739 C732 1.240 . S
O740 In728 2.326 . S
O740 C732 1.252 . S
In741 O742 2.294 . S
In741 O743 2.326 . S
In741 O747 2.266 . S
In741 O748 2.326 . S
In741 O749 2.266 . S
In741 O750 2.326 . S
In741 O752 2.294 . S
In741 O753 2.326 . S
O742 In741 2.294 . S
O742 C751 1.240 . S
O743 In741 2.326 . S
O743 C751 1.252 . S
C744 O747 1.252 . S
C744 O748 1.260 . S
C745 O752 1.240 . S
C745 O753 1.252 . S
C746 O749 1.252 . S
C746 O750 1.260 . S
O747 In741 2.266 . S
O747 C744 1.252 . S
O748 In741 2.326 . S
O748 C744 1.260 . S
O749 In741 2.266 . S
O749 C746 1.252 . S
O750 In741 2.326 . S
O750 C746 1.260 . S
C751 O742 1.240 . S
C751 O743 1.252 . S
O752 In741 2.294 . S
O752 C745 1.240 . S
O753 In741 2.326 . S
O753 C745 1.252 . S
In754 O755 2.294 . S
In754 O756 2.326 . S
In754 O760 2.266 . S
In754 O761 2.326 . S
In754 O762 2.266 . S
In754 O763 2.326 . S
In754 O765 2.294 . S
In754 O766 2.326 . S
O755 In754 2.294 . S
O755 C764 1.240 . S
O756 In754 2.326 . S
O756 C764 1.252 . S
C757 O760 1.252 . S
C757 O761 1.260 . S
C758 O765 1.240 . S
C758 O766 1.252 . S
C759 O762 1.252 . S
C759 O763 1.260 . S
O760 In754 2.266 . S
O760 C757 1.252 . S
O761 In754 2.326 . S
O761 C757 1.260 . S
O762 In754 2.266 . S
O762 C759 1.252 . S
O763 In754 2.326 . S
O763 C759 1.260 . S
C764 O755 1.240 . S
C764 O756 1.252 . S
O765 In754 2.294 . S
O765 C758 1.240 . S
O766 In754 2.326 . S
O766 C758 1.252 . S
In767 O768 2.294 . S
In767 O769 2.326 . S
In767 O773 2.266 . S
In767 O774 2.326 . S
In767 O775 2.266 . S
In767 O776 2.326 . S
In767 O778 2.294 . S
In767 O779 2.326 . S
O768 In767 2.294 . S
O768 C777 1.240 . S
O769 In767 2.326 . S
O769 C777 1.252 . S
C770 O773 1.252 . S
C770 O774 1.260 . S
C771 O778 1.240 . S
C771 O779 1.252 . S
C772 O775 1.252 . S
C772 O776 1.260 . S
O773 In767 2.266 . S
O773 C770 1.252 . S
O774 In767 2.326 . S
O774 C770 1.260 . S
O775 In767 2.266 . S
O775 C772 1.252 . S
O776 In767 2.326 . S
O776 C772 1.260 . S
C777 O768 1.240 . S
C777 O769 1.252 . S
O778 In767 2.294 . S
O778 C771 1.240 . S
O779 In767 2.326 . S
O779 C771 1.252 . S
In780 O781 2.294 . S
In780 O782 2.326 . S
In780 O786 2.266 . S
In780 O787 2.326 . S
In780 O788 2.266 . S
In780 O789 2.326 . S
In780 O791 2.294 . S
In780 O792 2.326 . S
O781 In780 2.294 . S
O781 C790 1.240 . S
O782 In780 2.326 . S
O782 C790 1.252 . S
C783 O786 1.252 . S
C783 O787 1.260 . S
C784 O791 1.240 . S
C784 O792 1.252 . S
C785 O788 1.252 . S
C785 O789 1.260 . S
O786 In780 2.266 . S
O786 C783 1.252 . S
O787 In780 2.326 . S
O787 C783 1.260 . S
O788 In780 2.266 . S
O788 C785 1.252 . S
O789 In780 2.326 . S
O789 C785 1.260 . S
C790 O781 1.240 . S
C790 O782 1.252 . S
O791 In780 2.294 . S
O791 C784 1.240 . S
O792 In780 2.326 . S
O792 C784 1.252 . S
In793 O794 2.294 . S
In793 O795 2.326 . S
In793 O799 2.266 . S
In793 O800 2.326 . S
In793 O801 2.266 . S
In793 O802 2.326 . S
In793 O804 2.294 . S
In793 O805 2.326 . S
O794 In793 2.294 . S
O794 C803 1.240 . S
O795 In793 2.326 . S
O795 C803 1.252 . S
C796 O799 1.252 . S
C796 O800 1.260 . S
C797 O804 1.240 . S
C797 O805 1.252 . S
C798 O801 1.252 . S
C798 O802 1.260 . S
O799 In793 2.266 . S
O799 C796 1.252 . S
O800 In793 2.326 . S
O800 C796 1.260 . S
O801 In793 2.266 . S
O801 C798 1.252 . S
O802 In793 2.326 . S
O802 C798 1.260 . S
C803 O794 1.240 . S
C803 O795 1.252 . S
O804 In793 2.294 . S
O804 C797 1.240 . S
O805 In793 2.326 . S
O805 C797 1.252 . S
In806 O807 2.294 . S
In806 O808 2.326 . S
In806 O812 2.266 . S
In806 O813 2.326 . S
In806 O814 2.266 . S
In806 O815 2.326 . S
In806 O817 2.294 . S
In806 O818 2.326 . S
O807 In806 2.294 . S
O807 C816 1.240 . S
O808 In806 2.326 . S
O808 C816 1.252 . S
C809 O812 1.252 . S
C809 O813 1.260 . S
C810 O817 1.240 . S
C810 O818 1.252 . S
C811 O814 1.252 . S
C811 O815 1.260 . S
O812 In806 2.266 . S
O812 C809 1.252 . S
O813 In806 2.326 . S
O813 C809 1.260 . S
O814 In806 2.266 . S
O814 C811 1.252 . S
O815 In806 2.326 . S
O815 C811 1.260 . S
C816 O807 1.240 . S
C816 O808 1.252 . S
O817 In806 2.294 . S
O817 C810 1.240 . S
O818 In806 2.326 . S
O818 C810 1.252 . S
In819 O820 2.294 . S
In819 O821 2.326 . S
In819 O825 2.266 . S
In819 O826 2.326 . S
In819 O827 2.266 . S
In819 O828 2.326 . S
In819 O830 2.294 . S
In819 O831 2.326 . S
O820 In819 2.294 . S
O820 C829 1.240 . S
O821 In819 2.326 . S
O821 C829 1.252 . S
C822 O825 1.252 . S
C822 O826 1.260 . S
C823 O830 1.240 . S
C823 O831 1.252 . S
C824 O827 1.252 . S
C824 O828 1.260 . S
O825 In819 2.266 . S
O825 C822 1.252 . S
O826 In819 2.326 . S
O826 C822 1.260 . S
O827 In819 2.266 . S
O827 C824 1.252 . S
O828 In819 2.326 . S
O828 C824 1.260 . S
C829 O820 1.240 . S
C829 O821 1.252 . S
O830 In819 2.294 . S
O830 C823 1.240 . S
O831 In819 2.326 . S
O831 C823 1.252 . S
In832 O833 2.294 . S
In832 O834 2.326 . S
In832 O838 2.266 . S
In832 O839 2.326 . S
In832 O840 2.266 . S
In832 O841 2.326 . S
In832 O843 2.294 . S
In832 O844 2.326 . S
O833 In832 2.294 . S
O833 C842 1.240 . S
O834 In832 2.326 . S
O834 C842 1.252 . S
C835 O838 1.252 . S
C835 O839 1.260 . S
C836 O843 1.240 . S
C836 O844 1.252 . S
C837 O840 1.252 . S
C837 O841 1.260 . S
O838 In832 2.266 . S
O838 C835 1.252 . S
O839 In832 2.326 . S
O839 C835 1.260 . S
O840 In832 2.266 . S
O840 C837 1.252 . S
O841 In832 2.326 . S
O841 C837 1.260 . S
C842 O833 1.240 . S
C842 O834 1.252 . S
O843 In832 2.294 . S
O843 C836 1.240 . S
O844 In832 2.326 . S
O844 C836 1.252 . S
In845 O846 2.294 . S
In845 O847 2.326 . S
In845 O851 2.266 . S
In845 O852 2.326 . S
In845 O853 2.266 . S
In845 O854 2.326 . S
In845 O856 2.294 . S
In845 O857 2.326 . S
O846 In845 2.294 . S
O846 C855 1.240 . S
O847 In845 2.326 . S
O847 C855 1.252 . S
C848 O851 1.252 . S
C848 O852 1.260 . S
C849 O856 1.240 . S
C849 O857 1.252 . S
C850 O853 1.252 . S
C850 O854 1.260 . S
O851 In845 2.266 . S
O851 C848 1.252 . S
O852 In845 2.326 . S
O852 C848 1.260 . S
O853 In845 2.266 . S
O853 C850 1.252 . S
O854 In845 2.326 . S
O854 C850 1.260 . S
C855 O846 1.240 . S
C855 O847 1.252 . S
O856 In845 2.294 . S
O856 C849 1.240 . S
O857 In845 2.326 . S
O857 C849 1.252 . S
In858 O859 2.294 . S
In858 O860 2.326 . S
In858 O864 2.266 . S
In858 O865 2.326 . S
In858 O866 2.266 . S
In858 O867 2.326 . S
In858 O869 2.294 . S
In858 O870 2.326 . S
O859 In858 2.294 . S
O859 C868 1.240 . S
O860 In858 2.326 . S
O860 C868 1.252 . S
C861 O864 1.252 . S
C861 O865 1.260 . S
C862 O869 1.240 . S
C862 O870 1.252 . S
C863 O866 1.252 . S
C863 O867 1.260 . S
O864 In858 2.266 . S
O864 C861 1.252 . S
O865 In858 2.326 . S
O865 C861 1.260 . S
O866 In858 2.266 . S
O866 C863 1.252 . S
O867 In858 2.326 . S
O867 C863 1.260 . S
C868 O859 1.240 . S
C868 O860 1.252 . S
O869 In858 2.294 . S
O869 C862 1.240 . S
O870 In858 2.326 . S
O870 C862 1.252 . S
In871 O872 2.294 . S
In871 O873 2.326 . S
In871 O877 2.266 . S
In871 O878 2.326 . S
In871 O879 2.266 . S
In871 O880 2.326 . S
In871 O882 2.294 . S
In871 O883 2.326 . S
O872 In871 2.294 . S
O872 C881 1.240 . S
O873 In871 2.326 . S
O873 C881 1.252 . S
C874 O877 1.252 . S
C874 O878 1.260 . S
C875 O882 1.240 . S
C875 O883 1.252 . S
C876 O879 1.252 . S
C876 O880 1.260 . S
O877 In871 2.266 . S
O877 C874 1.252 . S
O878 In871 2.326 . S
O878 C874 1.260 . S
O879 In871 2.266 . S
O879 C876 1.252 . S
O880 In871 2.326 . S
O880 C876 1.260 . S
C881 O872 1.240 . S
C881 O873 1.252 . S
O882 In871 2.294 . S
O882 C875 1.240 . S
O883 In871 2.326 . S
O883 C875 1.252 . S
In884 O885 2.294 . S
In884 O886 2.326 . S
In884 O890 2.266 . S
In884 O891 2.326 . S
In884 O892 2.266 . S
In884 O893 2.326 . S
In884 O895 2.294 . S
In884 O896 2.326 . S
O885 In884 2.294 . S
O885 C894 1.240 . S
O886 In884 2.326 . S
O886 C894 1.252 . S
C887 O890 1.252 . S
C887 O891 1.260 . S
C888 O895 1.240 . S
C888 O896 1.252 . S
C889 O892 1.252 . S
C889 O893 1.260 . S
O890 In884 2.266 . S
O890 C887 1.252 . S
O891 In884 2.326 . S
O891 C887 1.260 . S
O892 In884 2.266 . S
O892 C889 1.252 . S
O893 In884 2.326 . S
O893 C889 1.260 . S
C894 O885 1.240 . S
C894 O886 1.252 . S
O895 In884 2.294 . S
O895 C888 1.240 . S
O896 In884 2.326 . S
O896 C888 1.252 . S
In897 O898 2.294 . S
In897 O899 2.326 . S
In897 O903 2.266 . S
In897 O904 2.326 . S
In897 O905 2.266 . S
In897 O906 2.326 . S
In897 O908 2.294 . S
In897 O909 2.326 . S
O898 In897 2.294 . S
O898 C907 1.240 . S
O899 In897 2.326 . S
O899 C907 1.252 . S
C900 O903 1.252 . S
C900 O904 1.260 . S
C901 O908 1.240 . S
C901 O909 1.252 . S
C902 O905 1.252 . S
C902 O906 1.260 . S
O903 In897 2.266 . S
O903 C900 1.252 . S
O904 In897 2.326 . S
O904 C900 1.260 . S
O905 In897 2.266 . S
O905 C902 1.252 . S
O906 In897 2.326 . S
O906 C902 1.260 . S
C907 O898 1.240 . S
C907 O899 1.252 . S
O908 In897 2.294 . S
O908 C901 1.240 . S
O909 In897 2.326 . S
O909 C901 1.252 . S
In910 O911 2.294 . S
In910 O912 2.326 . S
In910 O916 2.266 . S
In910 O917 2.326 . S
In910 O918 2.266 . S
In910 O919 2.326 . S
In910 O921 2.294 . S
In910 O922 2.326 . S
O911 In910 2.294 . S
O911 C920 1.240 . S
O912 In910 2.326 . S
O912 C920 1.252 . S
C913 O916 1.252 . S
C913 O917 1.260 . S
C914 O921 1.240 . S
C914 O922 1.252 . S
C915 O918 1.252 . S
C915 O919 1.260 . S
O916 In910 2.266 . S
O916 C913 1.252 . S
O917 In910 2.326 . S
O917 C913 1.260 . S
O918 In910 2.266 . S
O918 C915 1.252 . S
O919 In910 2.326 . S
O919 C915 1.260 . S
C920 O911 1.240 . S
C920 O912 1.252 . S
O921 In910 2.294 . S
O921 C914 1.240 . S
O922 In910 2.326 . S
O922 C914 1.252 . S
In923 O924 2.294 . S
In923 O925 2.326 . S
In923 O929 2.266 . S
In923 O930 2.326 . S
In923 O931 2.266 . S
In923 O932 2.326 . S
In923 O934 2.294 . S
In923 O935 2.326 . S
O924 In923 2.294 . S
O924 C933 1.240 . S
O925 In923 2.326 . S
O925 C933 1.252 . S
C926 O929 1.252 . S
C926 O930 1.260 . S
C927 O934 1.240 . S
C927 O935 1.252 . S
C928 O931 1.252 . S
C928 O932 1.260 . S
O929 In923 2.266 . S
O929 C926 1.252 . S
O930 In923 2.326 . S
O930 C926 1.260 . S
O931 In923 2.266 . S
O931 C928 1.252 . S
O932 In923 2.326 . S
O932 C928 1.260 . S
C933 O924 1.240 . S
C933 O925 1.252 . S
O934 In923 2.294 . S
O934 C927 1.240 . S
O935 In923 2.326 . S
O935 C927 1.252 . S
In936 O937 2.294 . S
In936 O938 2.326 . S
In936 O942 2.266 . S
In936 O943 2.326 . S
In936 O944 2.266 . S
In936 O945 2.326 . S
In936 O947 2.294 . S
In936 O948 2.326 . S
O937 In936 2.294 . S
O937 C946 1.240 . S
O938 In936 2.326 . S
O938 C946 1.252 . S
C939 O942 1.252 . S
C939 O943 1.260 . S
C940 O947 1.240 . S
C940 O948 1.252 . S
C941 O944 1.252 . S
C941 O945 1.260 . S
O942 In936 2.266 . S
O942 C939 1.252 . S
O943 In936 2.326 . S
O943 C939 1.260 . S
O944 In936 2.266 . S
O944 C941 1.252 . S
O945 In936 2.326 . S
O945 C941 1.260 . S
C946 O937 1.240 . S
C946 O938 1.252 . S
O947 In936 2.294 . S
O947 C940 1.240 . S
O948 In936 2.326 . S
O948 C940 1.252 . S
In949 O950 2.294 . S
In949 O951 2.326 . S
In949 O955 2.266 . S
In949 O956 2.326 . S
In949 O957 2.266 . S
In949 O958 2.326 . S
In949 O960 2.294 . S
In949 O961 2.326 . S
O950 In949 2.294 . S
O950 C959 1.240 . S
O951 In949 2.326 . S
O951 C959 1.252 . S
C952 O955 1.252 . S
C952 O956 1.260 . S
C953 O960 1.240 . S
C953 O961 1.252 . S
C954 O957 1.252 . S
C954 O958 1.260 . S
O955 In949 2.266 . S
O955 C952 1.252 . S
O956 In949 2.326 . S
O956 C952 1.260 . S
O957 In949 2.266 . S
O957 C954 1.252 . S
O958 In949 2.326 . S
O958 C954 1.260 . S
C959 O950 1.240 . S
C959 O951 1.252 . S
O960 In949 2.294 . S
O960 C953 1.240 . S
O961 In949 2.326 . S
O961 C953 1.252 . S
In962 O963 2.294 . S
In962 O964 2.326 . S
In962 O968 2.266 . S
In962 O969 2.326 . S
In962 O970 2.266 . S
In962 O971 2.326 . S
In962 O973 2.294 . S
In962 O974 2.326 . S
O963 In962 2.294 . S
O963 C972 1.240 . S
O964 In962 2.326 . S
O964 C972 1.252 . S
C965 O968 1.252 . S
C965 O969 1.260 . S
C966 O973 1.240 . S
C966 O974 1.252 . S
C967 O970 1.252 . S
C967 O971 1.260 . S
O968 In962 2.266 . S
O968 C965 1.252 . S
O969 In962 2.326 . S
O969 C965 1.260 . S
O970 In962 2.266 . S
O970 C967 1.252 . S
O971 In962 2.326 . S
O971 C967 1.260 . S
C972 O963 1.240 . S
C972 O964 1.252 . S
O973 In962 2.294 . S
O973 C966 1.240 . S
O974 In962 2.326 . S
O974 C966 1.252 . S
In975 O976 2.294 . S
In975 O977 2.326 . S
In975 O981 2.266 . S
In975 O982 2.326 . S
In975 O983 2.266 . S
In975 O984 2.326 . S
In975 O986 2.294 . S
In975 O987 2.326 . S
O976 In975 2.294 . S
O976 C985 1.240 . S
O977 In975 2.326 . S
O977 C985 1.252 . S
C978 O981 1.252 . S
C978 O982 1.260 . S
C979 O986 1.240 . S
C979 O987 1.252 . S
C980 O983 1.252 . S
C980 O984 1.260 . S
O981 In975 2.266 . S
O981 C978 1.252 . S
O982 In975 2.326 . S
O982 C978 1.260 . S
O983 In975 2.266 . S
O983 C980 1.252 . S
O984 In975 2.326 . S
O984 C980 1.260 . S
C985 O976 1.240 . S
C985 O977 1.252 . S
O986 In975 2.294 . S
O986 C979 1.240 . S
O987 In975 2.326 . S
O987 C979 1.252 . S
In988 O989 2.294 . S
In988 O990 2.326 . S
In988 O994 2.266 . S
In988 O995 2.326 . S
In988 O996 2.266 . S
In988 O997 2.326 . S
In988 O999 2.294 . S
In988 O1000 2.326 . S
O989 In988 2.294 . S
O989 C998 1.240 . S
O990 In988 2.326 . S
O990 C998 1.252 . S
C991 O994 1.252 . S
C991 O995 1.260 . S
C992 O999 1.240 . S
C992 O1000 1.252 . S
C993 O996 1.252 . S
C993 O997 1.260 . S
O994 In988 2.266 . S
O994 C991 1.252 . S
O995 In988 2.326 . S
O995 C991 1.260 . S
O996 In988 2.266 . S
O996 C993 1.252 . S
O997 In988 2.326 . S
O997 C993 1.260 . S
C998 O989 1.240 . S
C998 O990 1.252 . S
O999 In988 2.294 . S
O999 C992 1.240 . S
O1000 In988 2.326 . S
O1000 C992 1.252 . S
In1001 O1002 2.294 . S
In1001 O1003 2.326 . S
In1001 O1007 2.266 . S
In1001 O1008 2.326 . S
In1001 O1009 2.266 . S
In1001 O1010 2.326 . S
In1001 O1012 2.294 . S
In1001 O1013 2.326 . S
O1002 In1001 2.294 . S
O1002 C1011 1.240 . S
O1003 In1001 2.326 . S
O1003 C1011 1.252 . S
C1004 O1007 1.252 . S
C1004 O1008 1.260 . S
C1005 O1012 1.240 . S
C1005 O1013 1.252 . S
C1006 O1009 1.252 . S
C1006 O1010 1.260 . S
O1007 In1001 2.266 . S
O1007 C1004 1.252 . S
O1008 In1001 2.326 . S
O1008 C1004 1.260 . S
O1009 In1001 2.266 . S
O1009 C1006 1.252 . S
O1010 In1001 2.326 . S
O1010 C1006 1.260 . S
C1011 O1002 1.240 . S
C1011 O1003 1.252 . S
O1012 In1001 2.294 . S
O1012 C1005 1.240 . S
O1013 In1001 2.326 . S
O1013 C1005 1.252 . S
In1014 O1015 2.294 . S
In1014 O1016 2.326 . S
In1014 O1020 2.266 . S
In1014 O1021 2.326 . S
In1014 O1022 2.266 . S
In1014 O1023 2.326 . S
In1014 O1025 2.294 . S
In1014 O1026 2.326 . S
O1015 In1014 2.294 . S
O1015 C1024 1.240 . S
O1016 In1014 2.326 . S
O1016 C1024 1.252 . S
C1017 O1020 1.252 . S
C1017 O1021 1.260 . S
C1018 O1025 1.240 . S
C1018 O1026 1.252 . S
C1019 O1022 1.252 . S
C1019 O1023 1.260 . S
O1020 In1014 2.266 . S
O1020 C1017 1.252 . S
O1021 In1014 2.326 . S
O1021 C1017 1.260 . S
O1022 In1014 2.266 . S
O1022 C1019 1.252 . S
O1023 In1014 2.326 . S
O1023 C1019 1.260 . S
C1024 O1015 1.240 . S
C1024 O1016 1.252 . S
O1025 In1014 2.294 . S
O1025 C1018 1.240 . S
O1026 In1014 2.326 . S
O1026 C1018 1.252 . S
In1027 O1028 2.294 . S
In1027 O1029 2.326 . S
In1027 O1033 2.266 . S
In1027 O1034 2.326 . S
In1027 O1035 2.266 . S
In1027 O1036 2.326 . S
In1027 O1038 2.294 . S
In1027 O1039 2.326 . S
O1028 In1027 2.294 . S
O1028 C1037 1.240 . S
O1029 In1027 2.326 . S
O1029 C1037 1.252 . S
C1030 O1033 1.252 . S
C1030 O1034 1.260 . S
C1031 O1038 1.240 . S
C1031 O1039 1.252 . S
C1032 O1035 1.252 . S
C1032 O1036 1.260 . S
O1033 In1027 2.266 . S
O1033 C1030 1.252 . S
O1034 In1027 2.326 . S
O1034 C1030 1.260 . S
O1035 In1027 2.266 . S
O1035 C1032 1.252 . S
O1036 In1027 2.326 . S
O1036 C1032 1.260 . S
C1037 O1028 1.240 . S
C1037 O1029 1.252 . S
O1038 In1027 2.294 . S
O1038 C1031 1.240 . S
O1039 In1027 2.326 . S
O1039 C1031 1.252 . S
In1040 O1041 2.294 . S
In1040 O1042 2.326 . S
In1040 O1046 2.266 . S
In1040 O1047 2.326 . S
In1040 O1048 2.266 . S
In1040 O1049 2.326 . S
In1040 O1051 2.294 . S
In1040 O1052 2.326 . S
O1041 In1040 2.294 . S
O1041 C1050 1.240 . S
O1042 In1040 2.326 . S
O1042 C1050 1.252 . S
C1043 O1046 1.252 . S
C1043 O1047 1.260 . S
C1044 O1051 1.240 . S
C1044 O1052 1.252 . S
C1045 O1048 1.252 . S
C1045 O1049 1.260 . S
O1046 In1040 2.266 . S
O1046 C1043 1.252 . S
O1047 In1040 2.326 . S
O1047 C1043 1.260 . S
O1048 In1040 2.266 . S
O1048 C1045 1.252 . S
O1049 In1040 2.326 . S
O1049 C1045 1.260 . S
C1050 O1041 1.240 . S
C1050 O1042 1.252 . S
O1051 In1040 2.294 . S
O1051 C1044 1.240 . S
O1052 In1040 2.326 . S
O1052 C1044 1.252 . S
In1053 O1054 2.294 . S
In1053 O1055 2.326 . S
In1053 O1059 2.266 . S
In1053 O1060 2.326 . S
In1053 O1061 2.266 . S
In1053 O1062 2.326 . S
In1053 O1064 2.294 . S
In1053 O1065 2.326 . S
O1054 In1053 2.294 . S
O1054 C1063 1.240 . S
O1055 In1053 2.326 . S
O1055 C1063 1.252 . S
C1056 O1059 1.252 . S
C1056 O1060 1.260 . S
C1057 O1064 1.240 . S
C1057 O1065 1.252 . S
C1058 O1061 1.252 . S
C1058 O1062 1.260 . S
O1059 In1053 2.266 . S
O1059 C1056 1.252 . S
O1060 In1053 2.326 . S
O1060 C1056 1.260 . S
O1061 In1053 2.266 . S
O1061 C1058 1.252 . S
O1062 In1053 2.326 . S
O1062 C1058 1.260 . S
C1063 O1054 1.240 . S
C1063 O1055 1.252 . S
O1064 In1053 2.294 . S
O1064 C1057 1.240 . S
O1065 In1053 2.326 . S
O1065 C1057 1.252 . S
In1066 O1067 2.294 . S
In1066 O1068 2.326 . S
In1066 O1072 2.266 . S
In1066 O1073 2.326 . S
In1066 O1074 2.266 . S
In1066 O1075 2.326 . S
In1066 O1077 2.294 . S
In1066 O1078 2.326 . S
O1067 In1066 2.294 . S
O1067 C1076 1.240 . S
O1068 In1066 2.326 . S
O1068 C1076 1.252 . S
C1069 O1072 1.252 . S
C1069 O1073 1.260 . S
C1070 O1077 1.240 . S
C1070 O1078 1.252 . S
C1071 O1074 1.252 . S
C1071 O1075 1.260 . S
O1072 In1066 2.266 . S
O1072 C1069 1.252 . S
O1073 In1066 2.326 . S
O1073 C1069 1.260 . S
O1074 In1066 2.266 . S
O1074 C1071 1.252 . S
O1075 In1066 2.326 . S
O1075 C1071 1.260 . S
C1076 O1067 1.240 . S
C1076 O1068 1.252 . S
O1077 In1066 2.294 . S
O1077 C1070 1.240 . S
O1078 In1066 2.326 . S
O1078 C1070 1.252 . S
In1079 O1080 2.294 . S
In1079 O1081 2.326 . S
In1079 O1085 2.266 . S
In1079 O1086 2.326 . S
In1079 O1087 2.266 . S
In1079 O1088 2.326 . S
In1079 O1090 2.294 . S
In1079 O1091 2.326 . S
O1080 In1079 2.294 . S
O1080 C1089 1.240 . S
O1081 In1079 2.326 . S
O1081 C1089 1.252 . S
C1082 O1085 1.252 . S
C1082 O1086 1.260 . S
C1083 O1090 1.240 . S
C1083 O1091 1.252 . S
C1084 O1087 1.252 . S
C1084 O1088 1.260 . S
O1085 In1079 2.266 . S
O1085 C1082 1.252 . S
O1086 In1079 2.326 . S
O1086 C1082 1.260 . S
O1087 In1079 2.266 . S
O1087 C1084 1.252 . S
O1088 In1079 2.326 . S
O1088 C1084 1.260 . S
C1089 O1080 1.240 . S
C1089 O1081 1.252 . S
O1090 In1079 2.294 . S
O1090 C1083 1.240 . S
O1091 In1079 2.326 . S
O1091 C1083 1.252 . S
In1092 O1093 2.294 . S
In1092 O1094 2.326 . S
In1092 O1098 2.266 . S
In1092 O1099 2.326 . S
In1092 O1100 2.266 . S
In1092 O1101 2.326 . S
In1092 O1103 2.294 . S
In1092 O1104 2.326 . S
O1093 In1092 2.294 . S
O1093 C1102 1.240 . S
O1094 In1092 2.326 . S
O1094 C1102 1.252 . S
C1095 O1098 1.252 . S
C1095 O1099 1.260 . S
C1096 O1103 1.240 . S
C1096 O1104 1.252 . S
C1097 O1100 1.252 . S
C1097 O1101 1.260 . S
O1098 In1092 2.266 . S
O1098 C1095 1.252 . S
O1099 In1092 2.326 . S
O1099 C1095 1.260 . S
O1100 In1092 2.266 . S
O1100 C1097 1.252 . S
O1101 In1092 2.326 . S
O1101 C1097 1.260 . S
C1102 O1093 1.240 . S
C1102 O1094 1.252 . S
O1103 In1092 2.294 . S
O1103 C1096 1.240 . S
O1104 In1092 2.326 . S
O1104 C1096 1.252 . S
In1105 O1106 2.294 . S
In1105 O1107 2.326 . S
In1105 O1111 2.266 . S
In1105 O1112 2.326 . S
In1105 O1113 2.266 . S
In1105 O1114 2.326 . S
In1105 O1116 2.294 . S
In1105 O1117 2.326 . S
O1106 In1105 2.294 . S
O1106 C1115 1.240 . S
O1107 In1105 2.326 . S
O1107 C1115 1.252 . S
C1108 O1111 1.252 . S
C1108 O1112 1.260 . S
C1109 O1116 1.240 . S
C1109 O1117 1.252 . S
C1110 O1113 1.252 . S
C1110 O1114 1.260 . S
O1111 In1105 2.266 . S
O1111 C1108 1.252 . S
O1112 In1105 2.326 . S
O1112 C1108 1.260 . S
O1113 In1105 2.266 . S
O1113 C1110 1.252 . S
O1114 In1105 2.326 . S
O1114 C1110 1.260 . S
C1115 O1106 1.240 . S
C1115 O1107 1.252 . S
O1116 In1105 2.294 . S
O1116 C1109 1.240 . S
O1117 In1105 2.326 . S
O1117 C1109 1.252 . S
In1118 O1119 2.294 . S
In1118 O1120 2.326 . S
In1118 O1124 2.266 . S
In1118 O1125 2.326 . S
In1118 O1126 2.266 . S
In1118 O1127 2.326 . S
In1118 O1129 2.294 . S
In1118 O1130 2.326 . S
O1119 In1118 2.294 . S
O1119 C1128 1.240 . S
O1120 In1118 2.326 . S
O1120 C1128 1.252 . S
C1121 O1124 1.252 . S
C1121 O1125 1.260 . S
C1122 O1129 1.240 . S
C1122 O1130 1.252 . S
C1123 O1126 1.252 . S
C1123 O1127 1.260 . S
O1124 In1118 2.266 . S
O1124 C1121 1.252 . S
O1125 In1118 2.326 . S
O1125 C1121 1.260 . S
O1126 In1118 2.266 . S
O1126 C1123 1.252 . S
O1127 In1118 2.326 . S
O1127 C1123 1.260 . S
C1128 O1119 1.240 . S
C1128 O1120 1.252 . S
O1129 In1118 2.294 . S
O1129 C1122 1.240 . S
O1130 In1118 2.326 . S
O1130 C1122 1.252 . S
In1131 O1132 2.294 . S
In1131 O1133 2.326 . S
In1131 O1137 2.266 . S
In1131 O1138 2.326 . S
In1131 O1139 2.266 . S
In1131 O1140 2.326 . S
In1131 O1142 2.294 . S
In1131 O1143 2.326 . S
O1132 In1131 2.294 . S
O1132 C1141 1.240 . S
O1133 In1131 2.326 . S
O1133 C1141 1.252 . S
C1134 O1137 1.252 . S
C1134 O1138 1.260 . S
C1135 O1142 1.240 . S
C1135 O1143 1.252 . S
C1136 O1139 1.252 . S
C1136 O1140 1.260 . S
O1137 In1131 2.266 . S
O1137 C1134 1.252 . S
O1138 In1131 2.326 . S
O1138 C1134 1.260 . S
O1139 In1131 2.266 . S
O1139 C1136 1.252 . S
O1140 In1131 2.326 . S
O1140 C1136 1.260 . S
C1141 O1132 1.240 . S
C1141 O1133 1.252 . S
O1142 In1131 2.294 . S
O1142 C1135 1.240 . S
O1143 In1131 2.326 . S
O1143 C1135 1.252 . S
In1144 O1145 2.294 . S
In1144 O1146 2.326 . S
In1144 O1150 2.266 . S
In1144 O1151 2.326 . S
In1144 O1152 2.266 . S
In1144 O1153 2.326 . S
In1144 O1155 2.294 . S
In1144 O1156 2.326 . S
O1145 In1144 2.294 . S
O1145 C1154 1.240 . S
O1146 In1144 2.326 . S
O1146 C1154 1.252 . S
C1147 O1150 1.252 . S
C1147 O1151 1.260 . S
C1148 O1155 1.240 . S
C1148 O1156 1.252 . S
C1149 O1152 1.252 . S
C1149 O1153 1.260 . S
O1150 In1144 2.266 . S
O1150 C1147 1.252 . S
O1151 In1144 2.326 . S
O1151 C1147 1.260 . S
O1152 In1144 2.266 . S
O1152 C1149 1.252 . S
O1153 In1144 2.326 . S
O1153 C1149 1.260 . S
C1154 O1145 1.240 . S
C1154 O1146 1.252 . S
O1155 In1144 2.294 . S
O1155 C1148 1.240 . S
O1156 In1144 2.326 . S
O1156 C1148 1.252 . S
In1157 O1158 2.294 . S
In1157 O1159 2.326 . S
In1157 O1163 2.266 . S
In1157 O1164 2.326 . S
In1157 O1165 2.266 . S
In1157 O1166 2.326 . S
In1157 O1168 2.294 . S
In1157 O1169 2.326 . S
O1158 In1157 2.294 . S
O1158 C1167 1.240 . S
O1159 In1157 2.326 . S
O1159 C1167 1.252 . S
C1160 O1163 1.252 . S
C1160 O1164 1.260 . S
C1161 O1168 1.240 . S
C1161 O1169 1.252 . S
C1162 O1165 1.252 . S
C1162 O1166 1.260 . S
O1163 In1157 2.266 . S
O1163 C1160 1.252 . S
O1164 In1157 2.326 . S
O1164 C1160 1.260 . S
O1165 In1157 2.266 . S
O1165 C1162 1.252 . S
O1166 In1157 2.326 . S
O1166 C1162 1.260 . S
C1167 O1158 1.240 . S
C1167 O1159 1.252 . S
O1168 In1157 2.294 . S
O1168 C1161 1.240 . S
O1169 In1157 2.326 . S
O1169 C1161 1.252 . S
In1170 O1171 2.294 . S
In1170 O1172 2.326 . S
In1170 O1176 2.266 . S
In1170 O1177 2.326 . S
In1170 O1178 2.266 . S
In1170 O1179 2.326 . S
In1170 O1181 2.294 . S
In1170 O1182 2.326 . S
O1171 In1170 2.294 . S
O1171 C1180 1.240 . S
O1172 In1170 2.326 . S
O1172 C1180 1.252 . S
C1173 O1176 1.252 . S
C1173 O1177 1.260 . S
C1174 O1181 1.240 . S
C1174 O1182 1.252 . S
C1175 O1178 1.252 . S
C1175 O1179 1.260 . S
O1176 In1170 2.266 . S
O1176 C1173 1.252 . S
O1177 In1170 2.326 . S
O1177 C1173 1.260 . S
O1178 In1170 2.266 . S
O1178 C1175 1.252 . S
O1179 In1170 2.326 . S
O1179 C1175 1.260 . S
C1180 O1171 1.240 . S
C1180 O1172 1.252 . S
O1181 In1170 2.294 . S
O1181 C1174 1.240 . S
O1182 In1170 2.326 . S
O1182 C1174 1.252 . S
In1183 O1184 2.294 . S
In1183 O1185 2.326 . S
In1183 O1189 2.266 . S
In1183 O1190 2.326 . S
In1183 O1191 2.266 . S
In1183 O1192 2.326 . S
In1183 O1194 2.294 . S
In1183 O1195 2.326 . S
O1184 In1183 2.294 . S
O1184 C1193 1.240 . S
O1185 In1183 2.326 . S
O1185 C1193 1.252 . S
C1186 O1189 1.252 . S
C1186 O1190 1.260 . S
C1187 O1194 1.240 . S
C1187 O1195 1.252 . S
C1188 O1191 1.252 . S
C1188 O1192 1.260 . S
O1189 In1183 2.266 . S
O1189 C1186 1.252 . S
O1190 In1183 2.326 . S
O1190 C1186 1.260 . S
O1191 In1183 2.266 . S
O1191 C1188 1.252 . S
O1192 In1183 2.326 . S
O1192 C1188 1.260 . S
C1193 O1184 1.240 . S
C1193 O1185 1.252 . S
O1194 In1183 2.294 . S
O1194 C1187 1.240 . S
O1195 In1183 2.326 . S
O1195 C1187 1.252 . S
In1196 O1197 2.294 . S
In1196 O1198 2.326 . S
In1196 O1202 2.266 . S
In1196 O1203 2.326 . S
In1196 O1204 2.266 . S
In1196 O1205 2.326 . S
In1196 O1207 2.294 . S
In1196 O1208 2.326 . S
O1197 In1196 2.294 . S
O1197 C1206 1.240 . S
O1198 In1196 2.326 . S
O1198 C1206 1.252 . S
C1199 O1202 1.252 . S
C1199 O1203 1.260 . S
C1200 O1207 1.240 . S
C1200 O1208 1.252 . S
C1201 O1204 1.252 . S
C1201 O1205 1.260 . S
O1202 In1196 2.266 . S
O1202 C1199 1.252 . S
O1203 In1196 2.326 . S
O1203 C1199 1.260 . S
O1204 In1196 2.266 . S
O1204 C1201 1.252 . S
O1205 In1196 2.326 . S
O1205 C1201 1.260 . S
C1206 O1197 1.240 . S
C1206 O1198 1.252 . S
O1207 In1196 2.294 . S
O1207 C1200 1.240 . S
O1208 In1196 2.326 . S
O1208 C1200 1.252 . S
In1209 O1210 2.294 . S
In1209 O1211 2.326 . S
In1209 O1215 2.266 . S
In1209 O1216 2.326 . S
In1209 O1217 2.266 . S
In1209 O1218 2.326 . S
In1209 O1220 2.294 . S
In1209 O1221 2.326 . S
O1210 In1209 2.294 . S
O1210 C1219 1.240 . S
O1211 In1209 2.326 . S
O1211 C1219 1.252 . S
C1212 O1215 1.252 . S
C1212 O1216 1.260 . S
C1213 O1220 1.240 . S
C1213 O1221 1.252 . S
C1214 O1217 1.252 . S
C1214 O1218 1.260 . S
O1215 In1209 2.266 . S
O1215 C1212 1.252 . S
O1216 In1209 2.326 . S
O1216 C1212 1.260 . S
O1217 In1209 2.266 . S
O1217 C1214 1.252 . S
O1218 In1209 2.326 . S
O1218 C1214 1.260 . S
C1219 O1210 1.240 . S
C1219 O1211 1.252 . S
O1220 In1209 2.294 . S
O1220 C1213 1.240 . S
O1221 In1209 2.326 . S
O1221 C1213 1.252 . S
In1222 O1223 2.294 . S
In1222 O1224 2.326 . S
In1222 O1228 2.266 . S
In1222 O1229 2.326 . S
In1222 O1230 2.266 . S
In1222 O1231 2.326 . S
In1222 O1233 2.294 . S
In1222 O1234 2.326 . S
O1223 In1222 2.294 . S
O1223 C1232 1.240 . S
O1224 In1222 2.326 . S
O1224 C1232 1.252 . S
C1225 O1228 1.252 . S
C1225 O1229 1.260 . S
C1226 O1233 1.240 . S
C1226 O1234 1.252 . S
C1227 O1230 1.252 . S
C1227 O1231 1.260 . S
O1228 In1222 2.266 . S
O1228 C1225 1.252 . S
O1229 In1222 2.326 . S
O1229 C1225 1.260 . S
O1230 In1222 2.266 . S
O1230 C1227 1.252 . S
O1231 In1222 2.326 . S
O1231 C1227 1.260 . S
C1232 O1223 1.240 . S
C1232 O1224 1.252 . S
O1233 In1222 2.294 . S
O1233 C1226 1.240 . S
O1234 In1222 2.326 . S
O1234 C1226 1.252 . S
In1235 O1236 2.294 . S
In1235 O1237 2.326 . S
In1235 O1241 2.266 . S
In1235 O1242 2.326 . S
In1235 O1243 2.266 . S
In1235 O1244 2.326 . S
In1235 O1246 2.294 . S
In1235 O1247 2.326 . S
O1236 In1235 2.294 . S
O1236 C1245 1.240 . S
O1237 In1235 2.326 . S
O1237 C1245 1.252 . S
C1238 O1241 1.252 . S
C1238 O1242 1.260 . S
C1239 O1246 1.240 . S
C1239 O1247 1.252 . S
C1240 O1243 1.252 . S
C1240 O1244 1.260 . S
O1241 In1235 2.266 . S
O1241 C1238 1.252 . S
O1242 In1235 2.326 . S
O1242 C1238 1.260 . S
O1243 In1235 2.266 . S
O1243 C1240 1.252 . S
O1244 In1235 2.326 . S
O1244 C1240 1.260 . S
C1245 O1236 1.240 . S
C1245 O1237 1.252 . S
O1246 In1235 2.294 . S
O1246 C1239 1.240 . S
O1247 In1235 2.326 . S
O1247 C1239 1.252 . S
In1248 O1249 2.294 . S
In1248 O1250 2.326 . S
In1248 O1254 2.266 . S
In1248 O1255 2.326 . S
In1248 O1256 2.266 . S
In1248 O1257 2.326 . S
In1248 O1259 2.294 . S
In1248 O1260 2.326 . S
O1249 In1248 2.294 . S
O1249 C1258 1.240 . S
O1250 In1248 2.326 . S
O1250 C1258 1.252 . S
C1251 O1254 1.252 . S
C1251 O1255 1.260 . S
C1252 O1259 1.240 . S
C1252 O1260 1.252 . S
C1253 O1256 1.252 . S
C1253 O1257 1.260 . S
O1254 In1248 2.266 . S
O1254 C1251 1.252 . S
O1255 In1248 2.326 . S
O1255 C1251 1.260 . S
O1256 In1248 2.266 . S
O1256 C1253 1.252 . S
O1257 In1248 2.326 . S
O1257 C1253 1.260 . S
C1258 O1249 1.240 . S
C1258 O1250 1.252 . S
O1259 In1248 2.294 . S
O1259 C1252 1.240 . S
O1260 In1248 2.326 . S
O1260 C1252 1.252 . S
In1261 O1262 2.294 . S
In1261 O1263 2.326 . S
In1261 O1267 2.266 . S
In1261 O1268 2.326 . S
In1261 O1269 2.266 . S
In1261 O1270 2.326 . S
In1261 O1272 2.294 . S
In1261 O1273 2.326 . S
O1262 In1261 2.294 . S
O1262 C1271 1.240 . S
O1263 In1261 2.326 . S
O1263 C1271 1.252 . S
C1264 O1267 1.252 . S
C1264 O1268 1.260 . S
C1265 O1272 1.240 . S
C1265 O1273 1.252 . S
C1266 O1269 1.252 . S
C1266 O1270 1.260 . S
O1267 In1261 2.266 . S
O1267 C1264 1.252 . S
O1268 In1261 2.326 . S
O1268 C1264 1.260 . S
O1269 In1261 2.266 . S
O1269 C1266 1.252 . S
O1270 In1261 2.326 . S
O1270 C1266 1.260 . S
C1271 O1262 1.240 . S
C1271 O1263 1.252 . S
O1272 In1261 2.294 . S
O1272 C1265 1.240 . S
O1273 In1261 2.326 . S
O1273 C1265 1.252 . S
In1274 O1275 2.294 . S
In1274 O1276 2.326 . S
In1274 O1280 2.266 . S
In1274 O1281 2.326 . S
In1274 O1282 2.266 . S
In1274 O1283 2.326 . S
In1274 O1285 2.294 . S
In1274 O1286 2.326 . S
O1275 In1274 2.294 . S
O1275 C1284 1.240 . S
O1276 In1274 2.326 . S
O1276 C1284 1.252 . S
C1277 O1280 1.252 . S
C1277 O1281 1.260 . S
C1278 O1285 1.240 . S
C1278 O1286 1.252 . S
C1279 O1282 1.252 . S
C1279 O1283 1.260 . S
O1280 In1274 2.266 . S
O1280 C1277 1.252 . S
O1281 In1274 2.326 . S
O1281 C1277 1.260 . S
O1282 In1274 2.266 . S
O1282 C1279 1.252 . S
O1283 In1274 2.326 . S
O1283 C1279 1.260 . S
C1284 O1275 1.240 . S
C1284 O1276 1.252 . S
O1285 In1274 2.294 . S
O1285 C1278 1.240 . S
O1286 In1274 2.326 . S
O1286 C1278 1.252 . S
In1287 O1288 2.294 . S
In1287 O1289 2.326 . S
In1287 O1293 2.266 . S
In1287 O1294 2.326 . S
In1287 O1295 2.266 . S
In1287 O1296 2.326 . S
In1287 O1298 2.294 . S
In1287 O1299 2.326 . S
O1288 In1287 2.294 . S
O1288 C1297 1.240 . S
O1289 In1287 2.326 . S
O1289 C1297 1.252 . S
C1290 O1293 1.252 . S
C1290 O1294 1.260 . S
C1291 O1298 1.240 . S
C1291 O1299 1.252 . S
C1292 O1295 1.252 . S
C1292 O1296 1.260 . S
O1293 In1287 2.266 . S
O1293 C1290 1.252 . S
O1294 In1287 2.326 . S
O1294 C1290 1.260 . S
O1295 In1287 2.266 . S
O1295 C1292 1.252 . S
O1296 In1287 2.326 . S
O1296 C1292 1.260 . S
C1297 O1288 1.240 . S
C1297 O1289 1.252 . S
O1298 In1287 2.294 . S
O1298 C1291 1.240 . S
O1299 In1287 2.326 . S
O1299 C1291 1.252 . S
In1300 O1301 2.294 . S
In1300 O1302 2.326 . S
In1300 O1306 2.266 . S
In1300 O1307 2.326 . S
In1300 O1308 2.266 . S
In1300 O1309 2.326 . S
In1300 O1311 2.294 . S
In1300 O1312 2.326 . S
O1301 In1300 2.294 . S
O1301 C1310 1.240 . S
O1302 In1300 2.326 . S
O1302 C1310 1.252 . S
C1303 O1306 1.252 . S
C1303 O1307 1.260 . S
C1304 O1311 1.240 . S
C1304 O1312 1.252 . S
C1305 O1308 1.252 . S
C1305 O1309 1.260 . S
O1306 In1300 2.266 . S
O1306 C1303 1.252 . S
O1307 In1300 2.326 . S
O1307 C1303 1.260 . S
O1308 In1300 2.266 . S
O1308 C1305 1.252 . S
O1309 In1300 2.326 . S
O1309 C1305 1.260 . S
C1310 O1301 1.240 . S
C1310 O1302 1.252 . S
O1311 In1300 2.294 . S
O1311 C1304 1.240 . S
O1312 In1300 2.326 . S
O1312 C1304 1.252 . S
In1313 O1314 2.294 . S
In1313 O1315 2.326 . S
In1313 O1319 2.266 . S
In1313 O1320 2.326 . S
In1313 O1321 2.266 . S
In1313 O1322 2.326 . S
In1313 O1324 2.294 . S
In1313 O1325 2.326 . S
O1314 In1313 2.294 . S
O1314 C1323 1.240 . S
O1315 In1313 2.326 . S
O1315 C1323 1.252 . S
C1316 O1319 1.252 . S
C1316 O1320 1.260 . S
C1317 O1324 1.240 . S
C1317 O1325 1.252 . S
C1318 O1321 1.252 . S
C1318 O1322 1.260 . S
O1319 In1313 2.266 . S
O1319 C1316 1.252 . S
O1320 In1313 2.326 . S
O1320 C1316 1.260 . S
O1321 In1313 2.266 . S
O1321 C1318 1.252 . S
O1322 In1313 2.326 . S
O1322 C1318 1.260 . S
C1323 O1314 1.240 . S
C1323 O1315 1.252 . S
O1324 In1313 2.294 . S
O1324 C1317 1.240 . S
O1325 In1313 2.326 . S
O1325 C1317 1.252 . S
In1326 O1327 2.294 . S
In1326 O1328 2.326 . S
In1326 O1332 2.266 . S
In1326 O1333 2.326 . S
In1326 O1334 2.266 . S
In1326 O1335 2.326 . S
In1326 O1337 2.294 . S
In1326 O1338 2.326 . S
O1327 In1326 2.294 . S
O1327 C1336 1.240 . S
O1328 In1326 2.326 . S
O1328 C1336 1.252 . S
C1329 O1332 1.252 . S
C1329 O1333 1.260 . S
C1330 O1337 1.240 . S
C1330 O1338 1.252 . S
C1331 O1334 1.252 . S
C1331 O1335 1.260 . S
O1332 In1326 2.266 . S
O1332 C1329 1.252 . S
O1333 In1326 2.326 . S
O1333 C1329 1.260 . S
O1334 In1326 2.266 . S
O1334 C1331 1.252 . S
O1335 In1326 2.326 . S
O1335 C1331 1.260 . S
C1336 O1327 1.240 . S
C1336 O1328 1.252 . S
O1337 In1326 2.294 . S
O1337 C1330 1.240 . S
O1338 In1326 2.326 . S
O1338 C1330 1.252 . S
In1339 O1340 2.294 . S
In1339 O1341 2.326 . S
In1339 O1345 2.266 . S
In1339 O1346 2.326 . S
In1339 O1347 2.266 . S
In1339 O1348 2.326 . S
In1339 O1350 2.294 . S
In1339 O1351 2.326 . S
O1340 In1339 2.294 . S
O1340 C1349 1.240 . S
O1341 In1339 2.326 . S
O1341 C1349 1.252 . S
C1342 O1345 1.252 . S
C1342 O1346 1.260 . S
C1343 O1350 1.240 . S
C1343 O1351 1.252 . S
C1344 O1347 1.252 . S
C1344 O1348 1.260 . S
O1345 In1339 2.266 . S
O1345 C1342 1.252 . S
O1346 In1339 2.326 . S
O1346 C1342 1.260 . S
O1347 In1339 2.266 . S
O1347 C1344 1.252 . S
O1348 In1339 2.326 . S
O1348 C1344 1.260 . S
C1349 O1340 1.240 . S
C1349 O1341 1.252 . S
O1350 In1339 2.294 . S
O1350 C1343 1.240 . S
O1351 In1339 2.326 . S
O1351 C1343 1.252 . S
In1352 O1353 2.294 . S
In1352 O1354 2.326 . S
In1352 O1358 2.266 . S
In1352 O1359 2.326 . S
In1352 O1360 2.266 . S
In1352 O1361 2.326 . S
In1352 O1363 2.294 . S
In1352 O1364 2.326 . S
O1353 In1352 2.294 . S
O1353 C1362 1.240 . S
O1354 In1352 2.326 . S
O1354 C1362 1.252 . S
C1355 O1358 1.252 . S
C1355 O1359 1.260 . S
C1356 O1363 1.240 . S
C1356 O1364 1.252 . S
C1357 O1360 1.252 . S
C1357 O1361 1.260 . S
O1358 In1352 2.266 . S
O1358 C1355 1.252 . S
O1359 In1352 2.326 . S
O1359 C1355 1.260 . S
O1360 In1352 2.266 . S
O1360 C1357 1.252 . S
O1361 In1352 2.326 . S
O1361 C1357 1.260 . S
C1362 O1353 1.240 . S
C1362 O1354 1.252 . S
O1363 In1352 2.294 . S
O1363 C1356 1.240 . S
O1364 In1352 2.326 . S
O1364 C1356 1.252 . S
In1365 O1366 2.294 . S
In1365 O1367 2.326 . S
In1365 O1371 2.266 . S
In1365 O1372 2.326 . S
In1365 O1373 2.266 . S
In1365 O1374 2.326 . S
In1365 O1376 2.294 . S
In1365 O1377 2.326 . S
O1366 In1365 2.294 . S
O1366 C1375 1.240 . S
O1367 In1365 2.326 . S
O1367 C1375 1.252 . S
C1368 O1371 1.252 . S
C1368 O1372 1.260 . S
C1369 O1376 1.240 . S
C1369 O1377 1.252 . S
C1370 O1373 1.252 . S
C1370 O1374 1.260 . S
O1371 In1365 2.266 . S
O1371 C1368 1.252 . S
O1372 In1365 2.326 . S
O1372 C1368 1.260 . S
O1373 In1365 2.266 . S
O1373 C1370 1.252 . S
O1374 In1365 2.326 . S
O1374 C1370 1.260 . S
C1375 O1366 1.240 . S
C1375 O1367 1.252 . S
O1376 In1365 2.294 . S
O1376 C1369 1.240 . S
O1377 In1365 2.326 . S
O1377 C1369 1.252 . S
In1378 O1379 2.294 . S
In1378 O1380 2.326 . S
In1378 O1384 2.266 . S
In1378 O1385 2.326 . S
In1378 O1386 2.266 . S
In1378 O1387 2.326 . S
In1378 O1389 2.294 . S
In1378 O1390 2.326 . S
O1379 In1378 2.294 . S
O1379 C1388 1.240 . S
O1380 In1378 2.326 . S
O1380 C1388 1.252 . S
C1381 O1384 1.252 . S
C1381 O1385 1.260 . S
C1382 O1389 1.240 . S
C1382 O1390 1.252 . S
C1383 O1386 1.252 . S
C1383 O1387 1.260 . S
O1384 In1378 2.266 . S
O1384 C1381 1.252 . S
O1385 In1378 2.326 . S
O1385 C1381 1.260 . S
O1386 In1378 2.266 . S
O1386 C1383 1.252 . S
O1387 In1378 2.326 . S
O1387 C1383 1.260 . S
C1388 O1379 1.240 . S
C1388 O1380 1.252 . S
O1389 In1378 2.294 . S
O1389 C1382 1.240 . S
O1390 In1378 2.326 . S
O1390 C1382 1.252 . S
In1391 O1392 2.294 . S
In1391 O1393 2.326 . S
In1391 O1397 2.266 . S
In1391 O1398 2.326 . S
In1391 O1399 2.266 . S
In1391 O1400 2.326 . S
In1391 O1402 2.294 . S
In1391 O1403 2.326 . S
O1392 In1391 2.294 . S
O1392 C1401 1.240 . S
O1393 In1391 2.326 . S
O1393 C1401 1.252 . S
C1394 O1397 1.252 . S
C1394 O1398 1.260 . S
C1395 O1402 1.240 . S
C1395 O1403 1.252 . S
C1396 O1399 1.252 . S
C1396 O1400 1.260 . S
O1397 In1391 2.266 . S
O1397 C1394 1.252 . S
O1398 In1391 2.326 . S
O1398 C1394 1.260 . S
O1399 In1391 2.266 . S
O1399 C1396 1.252 . S
O1400 In1391 2.326 . S
O1400 C1396 1.260 . S
C1401 O1392 1.240 . S
C1401 O1393 1.252 . S
O1402 In1391 2.294 . S
O1402 C1395 1.240 . S
O1403 In1391 2.326 . S
O1403 C1395 1.252 . S
In1404 O1405 2.294 . S
In1404 O1406 2.326 . S
In1404 O1410 2.266 . S
In1404 O1411 2.326 . S
In1404 O1412 2.266 . S
In1404 O1413 2.326 . S
In1404 O1415 2.294 . S
In1404 O1416 2.326 . S
O1405 In1404 2.294 . S
O1405 C1414 1.240 . S
O1406 In1404 2.326 . S
O1406 C1414 1.252 . S
C1407 O1410 1.252 . S
C1407 O1411 1.260 . S
C1408 O1415 1.240 . S
C1408 O1416 1.252 . S
C1409 O1412 1.252 . S
C1409 O1413 1.260 . S
O1410 In1404 2.266 . S
O1410 C1407 1.252 . S
O1411 In1404 2.326 . S
O1411 C1407 1.260 . S
O1412 In1404 2.266 . S
O1412 C1409 1.252 . S
O1413 In1404 2.326 . S
O1413 C1409 1.260 . S
C1414 O1405 1.240 . S
C1414 O1406 1.252 . S
O1415 In1404 2.294 . S
O1415 C1408 1.240 . S
O1416 In1404 2.326 . S
O1416 C1408 1.252 . S
In1417 O1418 2.294 . S
In1417 O1419 2.326 . S
In1417 O1423 2.266 . S
In1417 O1424 2.326 . S
In1417 O1425 2.266 . S
In1417 O1426 2.326 . S
In1417 O1428 2.294 . S
In1417 O1429 2.326 . S
O1418 In1417 2.294 . S
O1418 C1427 1.240 . S
O1419 In1417 2.326 . S
O1419 C1427 1.252 . S
C1420 O1423 1.252 . S
C1420 O1424 1.260 . S
C1421 O1428 1.240 . S
C1421 O1429 1.252 . S
C1422 O1425 1.252 . S
C1422 O1426 1.260 . S
O1423 In1417 2.266 . S
O1423 C1420 1.252 . S
O1424 In1417 2.326 . S
O1424 C1420 1.260 . S
O1425 In1417 2.266 . S
O1425 C1422 1.252 . S
O1426 In1417 2.326 . S
O1426 C1422 1.260 . S
C1427 O1418 1.240 . S
C1427 O1419 1.252 . S
O1428 In1417 2.294 . S
O1428 C1421 1.240 . S
O1429 In1417 2.326 . S
O1429 C1421 1.252 . S
In1430 O1431 2.294 . S
In1430 O1432 2.326 . S
In1430 O1436 2.266 . S
In1430 O1437 2.326 . S
In1430 O1438 2.266 . S
In1430 O1439 2.326 . S
In1430 O1441 2.294 . S
In1430 O1442 2.326 . S
O1431 In1430 2.294 . S
O1431 C1440 1.240 . S
O1432 In1430 2.326 . S
O1432 C1440 1.252 . S
C1433 O1436 1.252 . S
C1433 O1437 1.260 . S
C1434 O1441 1.240 . S
C1434 O1442 1.252 . S
C1435 O1438 1.252 . S
C1435 O1439 1.260 . S
O1436 In1430 2.266 . S
O1436 C1433 1.252 . S
O1437 In1430 2.326 . S
O1437 C1433 1.260 . S
O1438 In1430 2.266 . S
O1438 C1435 1.252 . S
O1439 In1430 2.326 . S
O1439 C1435 1.260 . S
C1440 O1431 1.240 . S
C1440 O1432 1.252 . S
O1441 In1430 2.294 . S
O1441 C1434 1.240 . S
O1442 In1430 2.326 . S
O1442 C1434 1.252 . S
In1443 O1444 2.294 . S
In1443 O1445 2.326 . S
In1443 O1449 2.266 . S
In1443 O1450 2.326 . S
In1443 O1451 2.266 . S
In1443 O1452 2.326 . S
In1443 O1454 2.294 . S
In1443 O1455 2.326 . S
O1444 In1443 2.294 . S
O1444 C1453 1.240 . S
O1445 In1443 2.326 . S
O1445 C1453 1.252 . S
C1446 O1449 1.252 . S
C1446 O1450 1.260 . S
C1447 O1454 1.240 . S
C1447 O1455 1.252 . S
C1448 O1451 1.252 . S
C1448 O1452 1.260 . S
O1449 In1443 2.266 . S
O1449 C1446 1.252 . S
O1450 In1443 2.326 . S
O1450 C1446 1.260 . S
O1451 In1443 2.266 . S
O1451 C1448 1.252 . S
O1452 In1443 2.326 . S
O1452 C1448 1.260 . S
C1453 O1444 1.240 . S
C1453 O1445 1.252 . S
O1454 In1443 2.294 . S
O1454 C1447 1.240 . S
O1455 In1443 2.326 . S
O1455 C1447 1.252 . S
In1456 O1457 2.294 . S
In1456 O1458 2.326 . S
In1456 O1462 2.266 . S
In1456 O1463 2.326 . S
In1456 O1464 2.266 . S
In1456 O1465 2.326 . S
In1456 O1467 2.294 . S
In1456 O1468 2.326 . S
O1457 In1456 2.294 . S
O1457 C1466 1.240 . S
O1458 In1456 2.326 . S
O1458 C1466 1.252 . S
C1459 O1462 1.252 . S
C1459 O1463 1.260 . S
C1460 O1467 1.240 . S
C1460 O1468 1.252 . S
C1461 O1464 1.252 . S
C1461 O1465 1.260 . S
O1462 In1456 2.266 . S
O1462 C1459 1.252 . S
O1463 In1456 2.326 . S
O1463 C1459 1.260 . S
O1464 In1456 2.266 . S
O1464 C1461 1.252 . S
O1465 In1456 2.326 . S
O1465 C1461 1.260 . S
C1466 O1457 1.240 . S
C1466 O1458 1.252 . S
O1467 In1456 2.294 . S
O1467 C1460 1.240 . S
O1468 In1456 2.326 . S
O1468 C1460 1.252 . S
In1469 O1470 2.294 . S
In1469 O1471 2.326 . S
In1469 O1475 2.266 . S
In1469 O1476 2.326 . S
In1469 O1477 2.266 . S
In1469 O1478 2.326 . S
In1469 O1480 2.294 . S
In1469 O1481 2.326 . S
O1470 In1469 2.294 . S
O1470 C1479 1.240 . S
O1471 In1469 2.326 . S
O1471 C1479 1.252 . S
C1472 O1475 1.252 . S
C1472 O1476 1.260 . S
C1473 O1480 1.240 . S
C1473 O1481 1.252 . S
C1474 O1477 1.252 . S
C1474 O1478 1.260 . S
O1475 In1469 2.266 . S
O1475 C1472 1.252 . S
O1476 In1469 2.326 . S
O1476 C1472 1.260 . S
O1477 In1469 2.266 . S
O1477 C1474 1.252 . S
O1478 In1469 2.326 . S
O1478 C1474 1.260 . S
C1479 O1470 1.240 . S
C1479 O1471 1.252 . S
O1480 In1469 2.294 . S
O1480 C1473 1.240 . S
O1481 In1469 2.326 . S
O1481 C1473 1.252 . S
In1482 O1483 2.294 . S
In1482 O1484 2.326 . S
In1482 O1488 2.266 . S
In1482 O1489 2.326 . S
In1482 O1490 2.266 . S
In1482 O1491 2.326 . S
In1482 O1493 2.294 . S
In1482 O1494 2.326 . S
O1483 In1482 2.294 . S
O1483 C1492 1.240 . S
O1484 In1482 2.326 . S
O1484 C1492 1.252 . S
C1485 O1488 1.252 . S
C1485 O1489 1.260 . S
C1486 O1493 1.240 . S
C1486 O1494 1.252 . S
C1487 O1490 1.252 . S
C1487 O1491 1.260 . S
O1488 In1482 2.266 . S
O1488 C1485 1.252 . S
O1489 In1482 2.326 . S
O1489 C1485 1.260 . S
O1490 In1482 2.266 . S
O1490 C1487 1.252 . S
O1491 In1482 2.326 . S
O1491 C1487 1.260 . S
C1492 O1483 1.240 . S
C1492 O1484 1.252 . S
O1493 In1482 2.294 . S
O1493 C1486 1.240 . S
O1494 In1482 2.326 . S
O1494 C1486 1.252 . S
In1495 O1496 2.294 . S
In1495 O1497 2.326 . S
In1495 O1501 2.266 . S
In1495 O1502 2.326 . S
In1495 O1503 2.266 . S
In1495 O1504 2.326 . S
In1495 O1506 2.294 . S
In1495 O1507 2.326 . S
O1496 In1495 2.294 . S
O1496 C1505 1.240 . S
O1497 In1495 2.326 . S
O1497 C1505 1.252 . S
C1498 O1501 1.252 . S
C1498 O1502 1.260 . S
C1499 O1506 1.240 . S
C1499 O1507 1.252 . S
C1500 O1503 1.252 . S
C1500 O1504 1.260 . S
O1501 In1495 2.266 . S
O1501 C1498 1.252 . S
O1502 In1495 2.326 . S
O1502 C1498 1.260 . S
O1503 In1495 2.266 . S
O1503 C1500 1.252 . S
O1504 In1495 2.326 . S
O1504 C1500 1.260 . S
C1505 O1496 1.240 . S
C1505 O1497 1.252 . S
O1506 In1495 2.294 . S
O1506 C1499 1.240 . S
O1507 In1495 2.326 . S
O1507 C1499 1.252 . S
In1508 O1509 2.294 . S
In1508 O1510 2.326 . S
In1508 O1514 2.266 . S
In1508 O1515 2.326 . S
In1508 O1516 2.266 . S
In1508 O1517 2.326 . S
In1508 O1519 2.294 . S
In1508 O1520 2.326 . S
O1509 In1508 2.294 . S
O1509 C1518 1.240 . S
O1510 In1508 2.326 . S
O1510 C1518 1.252 . S
C1511 O1514 1.252 . S
C1511 O1515 1.260 . S
C1512 O1519 1.240 . S
C1512 O1520 1.252 . S
C1513 O1516 1.252 . S
C1513 O1517 1.260 . S
O1514 In1508 2.266 . S
O1514 C1511 1.252 . S
O1515 In1508 2.326 . S
O1515 C1511 1.260 . S
O1516 In1508 2.266 . S
O1516 C1513 1.252 . S
O1517 In1508 2.326 . S
O1517 C1513 1.260 . S
C1518 O1509 1.240 . S
C1518 O1510 1.252 . S
O1519 In1508 2.294 . S
O1519 C1512 1.240 . S
O1520 In1508 2.326 . S
O1520 C1512 1.252 . S
In1521 O1522 2.294 . S
In1521 O1523 2.326 . S
In1521 O1527 2.266 . S
In1521 O1528 2.326 . S
In1521 O1529 2.266 . S
In1521 O1530 2.326 . S
In1521 O1532 2.294 . S
In1521 O1533 2.326 . S
O1522 In1521 2.294 . S
O1522 C1531 1.240 . S
O1523 In1521 2.326 . S
O1523 C1531 1.252 . S
C1524 O1527 1.252 . S
C1524 O1528 1.260 . S
C1525 O1532 1.240 . S
C1525 O1533 1.252 . S
C1526 O1529 1.252 . S
C1526 O1530 1.260 . S
O1527 In1521 2.266 . S
O1527 C1524 1.252 . S
O1528 In1521 2.326 . S
O1528 C1524 1.260 . S
O1529 In1521 2.266 . S
O1529 C1526 1.252 . S
O1530 In1521 2.326 . S
O1530 C1526 1.260 . S
C1531 O1522 1.240 . S
C1531 O1523 1.252 . S
O1532 In1521 2.294 . S
O1532 C1525 1.240 . S
O1533 In1521 2.326 . S
O1533 C1525 1.252 . S
In1534 O1535 2.294 . S
In1534 O1536 2.326 . S
In1534 O1540 2.266 . S
In1534 O1541 2.326 . S
In1534 O1542 2.266 . S
In1534 O1543 2.326 . S
In1534 O1545 2.294 . S
In1534 O1546 2.326 . S
O1535 In1534 2.294 . S
O1535 C1544 1.240 . S
O1536 In1534 2.326 . S
O1536 C1544 1.252 . S
C1537 O1540 1.252 . S
C1537 O1541 1.260 . S
C1538 O1545 1.240 . S
C1538 O1546 1.252 . S
C1539 O1542 1.252 . S
C1539 O1543 1.260 . S
O1540 In1534 2.266 . S
O1540 C1537 1.252 . S
O1541 In1534 2.326 . S
O1541 C1537 1.260 . S
O1542 In1534 2.266 . S
O1542 C1539 1.252 . S
O1543 In1534 2.326 . S
O1543 C1539 1.260 . S
C1544 O1535 1.240 . S
C1544 O1536 1.252 . S
O1545 In1534 2.294 . S
O1545 C1538 1.240 . S
O1546 In1534 2.326 . S
O1546 C1538 1.252 . S
In1547 O1548 2.294 . S
In1547 O1549 2.326 . S
In1547 O1553 2.266 . S
In1547 O1554 2.326 . S
In1547 O1555 2.266 . S
In1547 O1556 2.326 . S
In1547 O1558 2.294 . S
In1547 O1559 2.326 . S
O1548 In1547 2.294 . S
O1548 C1557 1.240 . S
O1549 In1547 2.326 . S
O1549 C1557 1.252 . S
C1550 O1553 1.252 . S
C1550 O1554 1.260 . S
C1551 O1558 1.240 . S
C1551 O1559 1.252 . S
C1552 O1555 1.252 . S
C1552 O1556 1.260 . S
O1553 In1547 2.266 . S
O1553 C1550 1.252 . S
O1554 In1547 2.326 . S
O1554 C1550 1.260 . S
O1555 In1547 2.266 . S
O1555 C1552 1.252 . S
O1556 In1547 2.326 . S
O1556 C1552 1.260 . S
C1557 O1548 1.240 . S
C1557 O1549 1.252 . S
O1558 In1547 2.294 . S
O1558 C1551 1.240 . S
O1559 In1547 2.326 . S
O1559 C1551 1.252 . S
In1560 O1561 2.294 . S
In1560 O1562 2.326 . S
In1560 O1566 2.266 . S
In1560 O1567 2.326 . S
In1560 O1568 2.266 . S
In1560 O1569 2.326 . S
In1560 O1571 2.294 . S
In1560 O1572 2.326 . S
O1561 In1560 2.294 . S
O1561 C1570 1.240 . S
O1562 In1560 2.326 . S
O1562 C1570 1.252 . S
C1563 O1566 1.252 . S
C1563 O1567 1.260 . S
C1564 O1571 1.240 . S
C1564 O1572 1.252 . S
C1565 O1568 1.252 . S
C1565 O1569 1.260 . S
O1566 In1560 2.266 . S
O1566 C1563 1.252 . S
O1567 In1560 2.326 . S
O1567 C1563 1.260 . S
O1568 In1560 2.266 . S
O1568 C1565 1.252 . S
O1569 In1560 2.326 . S
O1569 C1565 1.260 . S
C1570 O1561 1.240 . S
C1570 O1562 1.252 . S
O1571 In1560 2.294 . S
O1571 C1564 1.240 . S
O1572 In1560 2.326 . S
O1572 C1564 1.252 . S
In1573 O1574 2.294 . S
In1573 O1575 2.326 . S
In1573 O1579 2.266 . S
In1573 O1580 2.326 . S
In1573 O1581 2.266 . S
In1573 O1582 2.326 . S
In1573 O1584 2.294 . S
In1573 O1585 2.326 . S
O1574 In1573 2.294 . S
O1574 C1583 1.240 . S
O1575 In1573 2.326 . S
O1575 C1583 1.252 . S
C1576 O1579 1.252 . S
C1576 O1580 1.260 . S
C1577 O1584 1.240 . S
C1577 O1585 1.252 . S
C1578 O1581 1.252 . S
C1578 O1582 1.260 . S
O1579 In1573 2.266 . S
O1579 C1576 1.252 . S
O1580 In1573 2.326 . S
O1580 C1576 1.260 . S
O1581 In1573 2.266 . S
O1581 C1578 1.252 . S
O1582 In1573 2.326 . S
O1582 C1578 1.260 . S
C1583 O1574 1.240 . S
C1583 O1575 1.252 . S
O1584 In1573 2.294 . S
O1584 C1577 1.240 . S
O1585 In1573 2.326 . S
O1585 C1577 1.252 . S
In1586 O1587 2.294 . S
In1586 O1588 2.326 . S
In1586 O1592 2.266 . S
In1586 O1593 2.326 . S
In1586 O1594 2.266 . S
In1586 O1595 2.326 . S
In1586 O1597 2.294 . S
In1586 O1598 2.326 . S
O1587 In1586 2.294 . S
O1587 C1596 1.240 . S
O1588 In1586 2.326 . S
O1588 C1596 1.252 . S
C1589 O1592 1.252 . S
C1589 O1593 1.260 . S
C1590 O1597 1.240 . S
C1590 O1598 1.252 . S
C1591 O1594 1.252 . S
C1591 O1595 1.260 . S
O1592 In1586 2.266 . S
O1592 C1589 1.252 . S
O1593 In1586 2.326 . S
O1593 C1589 1.260 . S
O1594 In1586 2.266 . S
O1594 C1591 1.252 . S
O1595 In1586 2.326 . S
O1595 C1591 1.260 . S
C1596 O1587 1.240 . S
C1596 O1588 1.252 . S
O1597 In1586 2.294 . S
O1597 C1590 1.240 . S
O1598 In1586 2.326 . S
O1598 C1590 1.252 . S
In1599 O1600 2.294 . S
In1599 O1601 2.326 . S
In1599 O1605 2.266 . S
In1599 O1606 2.326 . S
In1599 O1607 2.266 . S
In1599 O1608 2.326 . S
In1599 O1610 2.294 . S
In1599 O1611 2.326 . S
O1600 In1599 2.294 . S
O1600 C1609 1.240 . S
O1601 In1599 2.326 . S
O1601 C1609 1.252 . S
C1602 O1605 1.252 . S
C1602 O1606 1.260 . S
C1603 O1610 1.240 . S
C1603 O1611 1.252 . S
C1604 O1607 1.252 . S
C1604 O1608 1.260 . S
O1605 In1599 2.266 . S
O1605 C1602 1.252 . S
O1606 In1599 2.326 . S
O1606 C1602 1.260 . S
O1607 In1599 2.266 . S
O1607 C1604 1.252 . S
O1608 In1599 2.326 . S
O1608 C1604 1.260 . S
C1609 O1600 1.240 . S
C1609 O1601 1.252 . S
O1610 In1599 2.294 . S
O1610 C1603 1.240 . S
O1611 In1599 2.326 . S
O1611 C1603 1.252 . S
In1612 O1613 2.294 . S
In1612 O1614 2.326 . S
In1612 O1618 2.266 . S
In1612 O1619 2.326 . S
In1612 O1620 2.266 . S
In1612 O1621 2.326 . S
In1612 O1623 2.294 . S
In1612 O1624 2.326 . S
O1613 In1612 2.294 . S
O1613 C1622 1.240 . S
O1614 In1612 2.326 . S
O1614 C1622 1.252 . S
C1615 O1618 1.252 . S
C1615 O1619 1.260 . S
C1616 O1623 1.240 . S
C1616 O1624 1.252 . S
C1617 O1620 1.252 . S
C1617 O1621 1.260 . S
O1618 In1612 2.266 . S
O1618 C1615 1.252 . S
O1619 In1612 2.326 . S
O1619 C1615 1.260 . S
O1620 In1612 2.266 . S
O1620 C1617 1.252 . S
O1621 In1612 2.326 . S
O1621 C1617 1.260 . S
C1622 O1613 1.240 . S
C1622 O1614 1.252 . S
O1623 In1612 2.294 . S
O1623 C1616 1.240 . S
O1624 In1612 2.326 . S
O1624 C1616 1.252 . S
In1625 O1626 2.294 . S
In1625 O1627 2.326 . S
In1625 O1631 2.266 . S
In1625 O1632 2.326 . S
In1625 O1633 2.266 . S
In1625 O1634 2.326 . S
In1625 O1636 2.294 . S
In1625 O1637 2.326 . S
O1626 In1625 2.294 . S
O1626 C1635 1.240 . S
O1627 In1625 2.326 . S
O1627 C1635 1.252 . S
C1628 O1631 1.252 . S
C1628 O1632 1.260 . S
C1629 O1636 1.240 . S
C1629 O1637 1.252 . S
C1630 O1633 1.252 . S
C1630 O1634 1.260 . S
O1631 In1625 2.266 . S
O1631 C1628 1.252 . S
O1632 In1625 2.326 . S
O1632 C1628 1.260 . S
O1633 In1625 2.266 . S
O1633 C1630 1.252 . S
O1634 In1625 2.326 . S
O1634 C1630 1.260 . S
C1635 O1626 1.240 . S
C1635 O1627 1.252 . S
O1636 In1625 2.294 . S
O1636 C1629 1.240 . S
O1637 In1625 2.326 . S
O1637 C1629 1.252 . S
In1638 O1639 2.294 . S
In1638 O1640 2.326 . S
In1638 O1644 2.266 . S
In1638 O1645 2.326 . S
In1638 O1646 2.266 . S
In1638 O1647 2.326 . S
In1638 O1649 2.294 . S
In1638 O1650 2.326 . S
O1639 In1638 2.294 . S
O1639 C1648 1.240 . S
O1640 In1638 2.326 . S
O1640 C1648 1.252 . S
C1641 O1644 1.252 . S
C1641 O1645 1.260 . S
C1642 O1649 1.240 . S
C1642 O1650 1.252 . S
C1643 O1646 1.252 . S
C1643 O1647 1.260 . S
O1644 In1638 2.266 . S
O1644 C1641 1.252 . S
O1645 In1638 2.326 . S
O1645 C1641 1.260 . S
O1646 In1638 2.266 . S
O1646 C1643 1.252 . S
O1647 In1638 2.326 . S
O1647 C1643 1.260 . S
C1648 O1639 1.240 . S
C1648 O1640 1.252 . S
O1649 In1638 2.294 . S
O1649 C1642 1.240 . S
O1650 In1638 2.326 . S
O1650 C1642 1.252 . S
In1651 O1652 2.294 . S
In1651 O1653 2.326 . S
In1651 O1657 2.266 . S
In1651 O1658 2.326 . S
In1651 O1659 2.266 . S
In1651 O1660 2.326 . S
In1651 O1662 2.294 . S
In1651 O1663 2.326 . S
O1652 In1651 2.294 . S
O1652 C1661 1.240 . S
O1653 In1651 2.326 . S
O1653 C1661 1.252 . S
C1654 O1657 1.252 . S
C1654 O1658 1.260 . S
C1655 O1662 1.240 . S
C1655 O1663 1.252 . S
C1656 O1659 1.252 . S
C1656 O1660 1.260 . S
O1657 In1651 2.266 . S
O1657 C1654 1.252 . S
O1658 In1651 2.326 . S
O1658 C1654 1.260 . S
O1659 In1651 2.266 . S
O1659 C1656 1.252 . S
O1660 In1651 2.326 . S
O1660 C1656 1.260 . S
C1661 O1652 1.240 . S
C1661 O1653 1.252 . S
O1662 In1651 2.294 . S
O1662 C1655 1.240 . S
O1663 In1651 2.326 . S
O1663 C1655 1.252 . S
In1664 O1665 2.294 . S
In1664 O1666 2.326 . S
In1664 O1670 2.266 . S
In1664 O1671 2.326 . S
In1664 O1672 2.266 . S
In1664 O1673 2.326 . S
In1664 O1675 2.294 . S
In1664 O1676 2.326 . S
O1665 In1664 2.294 . S
O1665 C1674 1.240 . S
O1666 In1664 2.326 . S
O1666 C1674 1.252 . S
C1667 O1670 1.252 . S
C1667 O1671 1.260 . S
C1668 O1675 1.240 . S
C1668 O1676 1.252 . S
C1669 O1672 1.252 . S
C1669 O1673 1.260 . S
O1670 In1664 2.266 . S
O1670 C1667 1.252 . S
O1671 In1664 2.326 . S
O1671 C1667 1.260 . S
O1672 In1664 2.266 . S
O1672 C1669 1.252 . S
O1673 In1664 2.326 . S
O1673 C1669 1.260 . S
C1674 O1665 1.240 . S
C1674 O1666 1.252 . S
O1675 In1664 2.294 . S
O1675 C1668 1.240 . S
O1676 In1664 2.326 . S
O1676 C1668 1.252 . S
In1677 O1678 2.294 . S
In1677 O1679 2.326 . S
In1677 O1683 2.266 . S
In1677 O1684 2.326 . S
In1677 O1685 2.266 . S
In1677 O1686 2.326 . S
In1677 O1688 2.294 . S
In1677 O1689 2.326 . S
O1678 In1677 2.294 . S
O1678 C1687 1.240 . S
O1679 In1677 2.326 . S
O1679 C1687 1.252 . S
C1680 O1683 1.252 . S
C1680 O1684 1.260 . S
C1681 O1688 1.240 . S
C1681 O1689 1.252 . S
C1682 O1685 1.252 . S
C1682 O1686 1.260 . S
O1683 In1677 2.266 . S
O1683 C1680 1.252 . S
O1684 In1677 2.326 . S
O1684 C1680 1.260 . S
O1685 In1677 2.266 . S
O1685 C1682 1.252 . S
O1686 In1677 2.326 . S
O1686 C1682 1.260 . S
C1687 O1678 1.240 . S
C1687 O1679 1.252 . S
O1688 In1677 2.294 . S
O1688 C1681 1.240 . S
O1689 In1677 2.326 . S
O1689 C1681 1.252 . S
In1690 O1691 2.294 . S
In1690 O1692 2.326 . S
In1690 O1696 2.266 . S
In1690 O1697 2.326 . S
In1690 O1698 2.266 . S
In1690 O1699 2.326 . S
In1690 O1701 2.294 . S
In1690 O1702 2.326 . S
O1691 In1690 2.294 . S
O1691 C1700 1.240 . S
O1692 In1690 2.326 . S
O1692 C1700 1.252 . S
C1693 O1696 1.252 . S
C1693 O1697 1.260 . S
C1694 O1701 1.240 . S
C1694 O1702 1.252 . S
C1695 O1698 1.252 . S
C1695 O1699 1.260 . S
O1696 In1690 2.266 . S
O1696 C1693 1.252 . S
O1697 In1690 2.326 . S
O1697 C1693 1.260 . S
O1698 In1690 2.266 . S
O1698 C1695 1.252 . S
O1699 In1690 2.326 . S
O1699 C1695 1.260 . S
C1700 O1691 1.240 . S
C1700 O1692 1.252 . S
O1701 In1690 2.294 . S
O1701 C1694 1.240 . S
O1702 In1690 2.326 . S
O1702 C1694 1.252 . S
In1703 O1704 2.294 . S
In1703 O1705 2.326 . S
In1703 O1709 2.266 . S
In1703 O1710 2.326 . S
In1703 O1711 2.266 . S
In1703 O1712 2.326 . S
In1703 O1714 2.294 . S
In1703 O1715 2.326 . S
O1704 In1703 2.294 . S
O1704 C1713 1.240 . S
O1705 In1703 2.326 . S
O1705 C1713 1.252 . S
C1706 O1709 1.252 . S
C1706 O1710 1.260 . S
C1707 O1714 1.240 . S
C1707 O1715 1.252 . S
C1708 O1711 1.252 . S
C1708 O1712 1.260 . S
O1709 In1703 2.266 . S
O1709 C1706 1.252 . S
O1710 In1703 2.326 . S
O1710 C1706 1.260 . S
O1711 In1703 2.266 . S
O1711 C1708 1.252 . S
O1712 In1703 2.326 . S
O1712 C1708 1.260 . S
C1713 O1704 1.240 . S
C1713 O1705 1.252 . S
O1714 In1703 2.294 . S
O1714 C1707 1.240 . S
O1715 In1703 2.326 . S
O1715 C1707 1.252 . S
In1716 O1717 2.294 . S
In1716 O1718 2.326 . S
In1716 O1722 2.266 . S
In1716 O1723 2.326 . S
In1716 O1724 2.266 . S
In1716 O1725 2.326 . S
In1716 O1727 2.294 . S
In1716 O1728 2.326 . S
O1717 In1716 2.294 . S
O1717 C1726 1.240 . S
O1718 In1716 2.326 . S
O1718 C1726 1.252 . S
C1719 O1722 1.252 . S
C1719 O1723 1.260 . S
C1720 O1727 1.240 . S
C1720 O1728 1.252 . S
C1721 O1724 1.252 . S
C1721 O1725 1.260 . S
O1722 In1716 2.266 . S
O1722 C1719 1.252 . S
O1723 In1716 2.326 . S
O1723 C1719 1.260 . S
O1724 In1716 2.266 . S
O1724 C1721 1.252 . S
O1725 In1716 2.326 . S
O1725 C1721 1.260 . S
C1726 O1717 1.240 . S
C1726 O1718 1.252 . S
O1727 In1716 2.294 . S
O1727 C1720 1.240 . S
O1728 In1716 2.326 . S
O1728 C1720 1.252 . S
In1729 O1730 2.294 . S
In1729 O1731 2.326 . S
In1729 O1735 2.266 . S
In1729 O1736 2.326 . S
In1729 O1737 2.266 . S
In1729 O1738 2.326 . S
In1729 O1740 2.294 . S
In1729 O1741 2.326 . S
O1730 In1729 2.294 . S
O1730 C1739 1.240 . S
O1731 In1729 2.326 . S
O1731 C1739 1.252 . S
C1732 O1735 1.252 . S
C1732 O1736 1.260 . S
C1733 O1740 1.240 . S
C1733 O1741 1.252 . S
C1734 O1737 1.252 . S
C1734 O1738 1.260 . S
O1735 In1729 2.266 . S
O1735 C1732 1.252 . S
O1736 In1729 2.326 . S
O1736 C1732 1.260 . S
O1737 In1729 2.266 . S
O1737 C1734 1.252 . S
O1738 In1729 2.326 . S
O1738 C1734 1.260 . S
C1739 O1730 1.240 . S
C1739 O1731 1.252 . S
O1740 In1729 2.294 . S
O1740 C1733 1.240 . S
O1741 In1729 2.326 . S
O1741 C1733 1.252 . S
In1742 O1743 2.294 . S
In1742 O1744 2.326 . S
In1742 O1748 2.266 . S
In1742 O1749 2.326 . S
In1742 O1750 2.266 . S
In1742 O1751 2.326 . S
In1742 O1753 2.294 . S
In1742 O1754 2.326 . S
O1743 In1742 2.294 . S
O1743 C1752 1.240 . S
O1744 In1742 2.326 . S
O1744 C1752 1.252 . S
C1745 O1748 1.252 . S
C1745 O1749 1.260 . S
C1746 O1753 1.240 . S
C1746 O1754 1.252 . S
C1747 O1750 1.252 . S
C1747 O1751 1.260 . S
O1748 In1742 2.266 . S
O1748 C1745 1.252 . S
O1749 In1742 2.326 . S
O1749 C1745 1.260 . S
O1750 In1742 2.266 . S
O1750 C1747 1.252 . S
O1751 In1742 2.326 . S
O1751 C1747 1.260 . S
C1752 O1743 1.240 . S
C1752 O1744 1.252 . S
O1753 In1742 2.294 . S
O1753 C1746 1.240 . S
O1754 In1742 2.326 . S
O1754 C1746 1.252 . S
In1755 O1756 2.294 . S
In1755 O1757 2.326 . S
In1755 O1761 2.266 . S
In1755 O1762 2.326 . S
In1755 O1763 2.266 . S
In1755 O1764 2.326 . S
In1755 O1766 2.294 . S
In1755 O1767 2.326 . S
O1756 In1755 2.294 . S
O1756 C1765 1.240 . S
O1757 In1755 2.326 . S
O1757 C1765 1.252 . S
C1758 O1761 1.252 . S
C1758 O1762 1.260 . S
C1759 O1766 1.240 . S
C1759 O1767 1.252 . S
C1760 O1763 1.252 . S
C1760 O1764 1.260 . S
O1761 In1755 2.266 . S
O1761 C1758 1.252 . S
O1762 In1755 2.326 . S
O1762 C1758 1.260 . S
O1763 In1755 2.266 . S
O1763 C1760 1.252 . S
O1764 In1755 2.326 . S
O1764 C1760 1.260 . S
C1765 O1756 1.240 . S
C1765 O1757 1.252 . S
O1766 In1755 2.294 . S
O1766 C1759 1.240 . S
O1767 In1755 2.326 . S
O1767 C1759 1.252 . S
In1768 O1769 2.294 . S
In1768 O1770 2.326 . S
In1768 O1774 2.266 . S
In1768 O1775 2.326 . S
In1768 O1776 2.266 . S
In1768 O1777 2.326 . S
In1768 O1779 2.294 . S
In1768 O1780 2.326 . S
O1769 In1768 2.294 . S
O1769 C1778 1.240 . S
O1770 In1768 2.326 . S
O1770 C1778 1.252 . S
C1771 O1774 1.252 . S
C1771 O1775 1.260 . S
C1772 O1779 1.240 . S
C1772 O1780 1.252 . S
C1773 O1776 1.252 . S
C1773 O1777 1.260 . S
O1774 In1768 2.266 . S
O1774 C1771 1.252 . S
O1775 In1768 2.326 . S
O1775 C1771 1.260 . S
O1776 In1768 2.266 . S
O1776 C1773 1.252 . S
O1777 In1768 2.326 . S
O1777 C1773 1.260 . S
C1778 O1769 1.240 . S
C1778 O1770 1.252 . S
O1779 In1768 2.294 . S
O1779 C1772 1.240 . S
O1780 In1768 2.326 . S
O1780 C1772 1.252 . S
In1781 O1782 2.294 . S
In1781 O1783 2.326 . S
In1781 O1787 2.266 . S
In1781 O1788 2.326 . S
In1781 O1789 2.266 . S
In1781 O1790 2.326 . S
In1781 O1792 2.294 . S
In1781 O1793 2.326 . S
O1782 In1781 2.294 . S
O1782 C1791 1.240 . S
O1783 In1781 2.326 . S
O1783 C1791 1.252 . S
C1784 O1787 1.252 . S
C1784 O1788 1.260 . S
C1785 O1792 1.240 . S
C1785 O1793 1.252 . S
C1786 O1789 1.252 . S
C1786 O1790 1.260 . S
O1787 In1781 2.266 . S
O1787 C1784 1.252 . S
O1788 In1781 2.326 . S
O1788 C1784 1.260 . S
O1789 In1781 2.266 . S
O1789 C1786 1.252 . S
O1790 In1781 2.326 . S
O1790 C1786 1.260 . S
C1791 O1782 1.240 . S
C1791 O1783 1.252 . S
O1792 In1781 2.294 . S
O1792 C1785 1.240 . S
O1793 In1781 2.326 . S
O1793 C1785 1.252 . S
In1794 O1795 2.294 . S
In1794 O1796 2.326 . S
In1794 O1800 2.266 . S
In1794 O1801 2.326 . S
In1794 O1802 2.266 . S
In1794 O1803 2.326 . S
In1794 O1805 2.294 . S
In1794 O1806 2.326 . S
O1795 In1794 2.294 . S
O1795 C1804 1.240 . S
O1796 In1794 2.326 . S
O1796 C1804 1.252 . S
C1797 O1800 1.252 . S
C1797 O1801 1.260 . S
C1798 O1805 1.240 . S
C1798 O1806 1.252 . S
C1799 O1802 1.252 . S
C1799 O1803 1.260 . S
O1800 In1794 2.266 . S
O1800 C1797 1.252 . S
O1801 In1794 2.326 . S
O1801 C1797 1.260 . S
O1802 In1794 2.266 . S
O1802 C1799 1.252 . S
O1803 In1794 2.326 . S
O1803 C1799 1.260 . S
C1804 O1795 1.240 . S
C1804 O1796 1.252 . S
O1805 In1794 2.294 . S
O1805 C1798 1.240 . S
O1806 In1794 2.326 . S
O1806 C1798 1.252 . S
In1807 O1808 2.294 . S
In1807 O1809 2.326 . S
In1807 O1813 2.266 . S
In1807 O1814 2.326 . S
In1807 O1815 2.266 . S
In1807 O1816 2.326 . S
In1807 O1818 2.294 . S
In1807 O1819 2.326 . S
O1808 In1807 2.294 . S
O1808 C1817 1.240 . S
O1809 In1807 2.326 . S
O1809 C1817 1.252 . S
C1810 O1813 1.252 . S
C1810 O1814 1.260 . S
C1811 O1818 1.240 . S
C1811 O1819 1.252 . S
C1812 O1815 1.252 . S
C1812 O1816 1.260 . S
O1813 In1807 2.266 . S
O1813 C1810 1.252 . S
O1814 In1807 2.326 . S
O1814 C1810 1.260 . S
O1815 In1807 2.266 . S
O1815 C1812 1.252 . S
O1816 In1807 2.326 . S
O1816 C1812 1.260 . S
C1817 O1808 1.240 . S
C1817 O1809 1.252 . S
O1818 In1807 2.294 . S
O1818 C1811 1.240 . S
O1819 In1807 2.326 . S
O1819 C1811 1.252 . S
In1820 O1821 2.294 . S
In1820 O1822 2.326 . S
In1820 O1826 2.266 . S
In1820 O1827 2.326 . S
In1820 O1828 2.266 . S
In1820 O1829 2.326 . S
In1820 O1831 2.294 . S
In1820 O1832 2.326 . S
O1821 In1820 2.294 . S
O1821 C1830 1.240 . S
O1822 In1820 2.326 . S
O1822 C1830 1.252 . S
C1823 O1826 1.252 . S
C1823 O1827 1.260 . S
C1824 O1831 1.240 . S
C1824 O1832 1.252 . S
C1825 O1828 1.252 . S
C1825 O1829 1.260 . S
O1826 In1820 2.266 . S
O1826 C1823 1.252 . S
O1827 In1820 2.326 . S
O1827 C1823 1.260 . S
O1828 In1820 2.266 . S
O1828 C1825 1.252 . S
O1829 In1820 2.326 . S
O1829 C1825 1.260 . S
C1830 O1821 1.240 . S
C1830 O1822 1.252 . S
O1831 In1820 2.294 . S
O1831 C1824 1.240 . S
O1832 In1820 2.326 . S
O1832 C1824 1.252 . S
In1833 O1834 2.294 . S
In1833 O1835 2.326 . S
In1833 O1839 2.266 . S
In1833 O1840 2.326 . S
In1833 O1841 2.266 . S
In1833 O1842 2.326 . S
In1833 O1844 2.294 . S
In1833 O1845 2.326 . S
O1834 In1833 2.294 . S
O1834 C1843 1.240 . S
O1835 In1833 2.326 . S
O1835 C1843 1.252 . S
C1836 O1839 1.252 . S
C1836 O1840 1.260 . S
C1837 O1844 1.240 . S
C1837 O1845 1.252 . S
C1838 O1841 1.252 . S
C1838 O1842 1.260 . S
O1839 In1833 2.266 . S
O1839 C1836 1.252 . S
O1840 In1833 2.326 . S
O1840 C1836 1.260 . S
O1841 In1833 2.266 . S
O1841 C1838 1.252 . S
O1842 In1833 2.326 . S
O1842 C1838 1.260 . S
C1843 O1834 1.240 . S
C1843 O1835 1.252 . S
O1844 In1833 2.294 . S
O1844 C1837 1.240 . S
O1845 In1833 2.326 . S
O1845 C1837 1.252 . S
In1846 O1847 2.294 . S
In1846 O1848 2.326 . S
In1846 O1852 2.266 . S
In1846 O1853 2.326 . S
In1846 O1854 2.266 . S
In1846 O1855 2.326 . S
In1846 O1857 2.294 . S
In1846 O1858 2.326 . S
O1847 In1846 2.294 . S
O1847 C1856 1.240 . S
O1848 In1846 2.326 . S
O1848 C1856 1.252 . S
C1849 O1852 1.252 . S
C1849 O1853 1.260 . S
C1850 O1857 1.240 . S
C1850 O1858 1.252 . S
C1851 O1854 1.252 . S
C1851 O1855 1.260 . S
O1852 In1846 2.266 . S
O1852 C1849 1.252 . S
O1853 In1846 2.326 . S
O1853 C1849 1.260 . S
O1854 In1846 2.266 . S
O1854 C1851 1.252 . S
O1855 In1846 2.326 . S
O1855 C1851 1.260 . S
C1856 O1847 1.240 . S
C1856 O1848 1.252 . S
O1857 In1846 2.294 . S
O1857 C1850 1.240 . S
O1858 In1846 2.326 . S
O1858 C1850 1.252 . S
In1859 O1860 2.294 . S
In1859 O1861 2.326 . S
In1859 O1865 2.266 . S
In1859 O1866 2.326 . S
In1859 O1867 2.266 . S
In1859 O1868 2.326 . S
In1859 O1870 2.294 . S
In1859 O1871 2.326 . S
O1860 In1859 2.294 . S
O1860 C1869 1.240 . S
O1861 In1859 2.326 . S
O1861 C1869 1.252 . S
C1862 O1865 1.252 . S
C1862 O1866 1.260 . S
C1863 O1870 1.240 . S
C1863 O1871 1.252 . S
C1864 O1867 1.252 . S
C1864 O1868 1.260 . S
O1865 In1859 2.266 . S
O1865 C1862 1.252 . S
O1866 In1859 2.326 . S
O1866 C1862 1.260 . S
O1867 In1859 2.266 . S
O1867 C1864 1.252 . S
O1868 In1859 2.326 . S
O1868 C1864 1.260 . S
C1869 O1860 1.240 . S
C1869 O1861 1.252 . S
O1870 In1859 2.294 . S
O1870 C1863 1.240 . S
O1871 In1859 2.326 . S
O1871 C1863 1.252 . S
In1872 O1873 2.294 . S
In1872 O1874 2.326 . S
In1872 O1878 2.266 . S
In1872 O1879 2.326 . S
In1872 O1880 2.266 . S
In1872 O1881 2.326 . S
In1872 O1883 2.294 . S
In1872 O1884 2.326 . S
O1873 In1872 2.294 . S
O1873 C1882 1.240 . S
O1874 In1872 2.326 . S
O1874 C1882 1.252 . S
C1875 O1878 1.252 . S
C1875 O1879 1.260 . S
C1876 O1883 1.240 . S
C1876 O1884 1.252 . S
C1877 O1880 1.252 . S
C1877 O1881 1.260 . S
O1878 In1872 2.266 . S
O1878 C1875 1.252 . S
O1879 In1872 2.326 . S
O1879 C1875 1.260 . S
O1880 In1872 2.266 . S
O1880 C1877 1.252 . S
O1881 In1872 2.326 . S
O1881 C1877 1.260 . S
C1882 O1873 1.240 . S
C1882 O1874 1.252 . S
O1883 In1872 2.294 . S
O1883 C1876 1.240 . S
O1884 In1872 2.326 . S
O1884 C1876 1.252 . S
In1885 O1886 2.294 . S
In1885 O1887 2.326 . S
In1885 O1891 2.266 . S
In1885 O1892 2.326 . S
In1885 O1893 2.266 . S
In1885 O1894 2.326 . S
In1885 O1896 2.294 . S
In1885 O1897 2.326 . S
O1886 In1885 2.294 . S
O1886 C1895 1.240 . S
O1887 In1885 2.326 . S
O1887 C1895 1.252 . S
C1888 O1891 1.252 . S
C1888 O1892 1.260 . S
C1889 O1896 1.240 . S
C1889 O1897 1.252 . S
C1890 O1893 1.252 . S
C1890 O1894 1.260 . S
O1891 In1885 2.266 . S
O1891 C1888 1.252 . S
O1892 In1885 2.326 . S
O1892 C1888 1.260 . S
O1893 In1885 2.266 . S
O1893 C1890 1.252 . S
O1894 In1885 2.326 . S
O1894 C1890 1.260 . S
C1895 O1886 1.240 . S
C1895 O1887 1.252 . S
O1896 In1885 2.294 . S
O1896 C1889 1.240 . S
O1897 In1885 2.326 . S
O1897 C1889 1.252 . S
In1898 O1899 2.294 . S
In1898 O1900 2.326 . S
In1898 O1904 2.266 . S
In1898 O1905 2.326 . S
In1898 O1906 2.266 . S
In1898 O1907 2.326 . S
In1898 O1909 2.294 . S
In1898 O1910 2.326 . S
O1899 In1898 2.294 . S
O1899 C1908 1.240 . S
O1900 In1898 2.326 . S
O1900 C1908 1.252 . S
C1901 O1904 1.252 . S
C1901 O1905 1.260 . S
C1902 O1909 1.240 . S
C1902 O1910 1.252 . S
C1903 O1906 1.252 . S
C1903 O1907 1.260 . S
O1904 In1898 2.266 . S
O1904 C1901 1.252 . S
O1905 In1898 2.326 . S
O1905 C1901 1.260 . S
O1906 In1898 2.266 . S
O1906 C1903 1.252 . S
O1907 In1898 2.326 . S
O1907 C1903 1.260 . S
C1908 O1899 1.240 . S
C1908 O1900 1.252 . S
O1909 In1898 2.294 . S
O1909 C1902 1.240 . S
O1910 In1898 2.326 . S
O1910 C1902 1.252 . S
In1911 O1912 2.294 . S
In1911 O1913 2.326 . S
In1911 O1917 2.266 . S
In1911 O1918 2.326 . S
In1911 O1919 2.266 . S
In1911 O1920 2.326 . S
In1911 O1922 2.294 . S
In1911 O1923 2.326 . S
O1912 In1911 2.294 . S
O1912 C1921 1.240 . S
O1913 In1911 2.326 . S
O1913 C1921 1.252 . S
C1914 O1917 1.252 . S
C1914 O1918 1.260 . S
C1915 O1922 1.240 . S
C1915 O1923 1.252 . S
C1916 O1919 1.252 . S
C1916 O1920 1.260 . S
O1917 In1911 2.266 . S
O1917 C1914 1.252 . S
O1918 In1911 2.326 . S
O1918 C1914 1.260 . S
O1919 In1911 2.266 . S
O1919 C1916 1.252 . S
O1920 In1911 2.326 . S
O1920 C1916 1.260 . S
C1921 O1912 1.240 . S
C1921 O1913 1.252 . S
O1922 In1911 2.294 . S
O1922 C1915 1.240 . S
O1923 In1911 2.326 . S
O1923 C1915 1.252 . S
In1924 O1925 2.294 . S
In1924 O1926 2.326 . S
In1924 O1930 2.266 . S
In1924 O1931 2.326 . S
In1924 O1932 2.266 . S
In1924 O1933 2.326 . S
In1924 O1935 2.294 . S
In1924 O1936 2.326 . S
O1925 In1924 2.294 . S
O1925 C1934 1.240 . S
O1926 In1924 2.326 . S
O1926 C1934 1.252 . S
C1927 O1930 1.252 . S
C1927 O1931 1.260 . S
C1928 O1935 1.240 . S
C1928 O1936 1.252 . S
C1929 O1932 1.252 . S
C1929 O1933 1.260 . S
O1930 In1924 2.266 . S
O1930 C1927 1.252 . S
O1931 In1924 2.326 . S
O1931 C1927 1.260 . S
O1932 In1924 2.266 . S
O1932 C1929 1.252 . S
O1933 In1924 2.326 . S
O1933 C1929 1.260 . S
C1934 O1925 1.240 . S
C1934 O1926 1.252 . S
O1935 In1924 2.294 . S
O1935 C1928 1.240 . S
O1936 In1924 2.326 . S
O1936 C1928 1.252 . S
In1937 O1938 2.294 . S
In1937 O1939 2.326 . S
In1937 O1943 2.266 . S
In1937 O1944 2.326 . S
In1937 O1945 2.266 . S
In1937 O1946 2.326 . S
In1937 O1948 2.294 . S
In1937 O1949 2.326 . S
O1938 In1937 2.294 . S
O1938 C1947 1.240 . S
O1939 In1937 2.326 . S
O1939 C1947 1.252 . S
C1940 O1943 1.252 . S
C1940 O1944 1.260 . S
C1941 O1948 1.240 . S
C1941 O1949 1.252 . S
C1942 O1945 1.252 . S
C1942 O1946 1.260 . S
O1943 In1937 2.266 . S
O1943 C1940 1.252 . S
O1944 In1937 2.326 . S
O1944 C1940 1.260 . S
O1945 In1937 2.266 . S
O1945 C1942 1.252 . S
O1946 In1937 2.326 . S
O1946 C1942 1.260 . S
C1947 O1938 1.240 . S
C1947 O1939 1.252 . S
O1948 In1937 2.294 . S
O1948 C1941 1.240 . S
O1949 In1937 2.326 . S
O1949 C1941 1.252 . S
In1950 O1951 2.294 . S
In1950 O1952 2.326 . S
In1950 O1956 2.266 . S
In1950 O1957 2.326 . S
In1950 O1958 2.266 . S
In1950 O1959 2.326 . S
In1950 O1961 2.294 . S
In1950 O1962 2.326 . S
O1951 In1950 2.294 . S
O1951 C1960 1.240 . S
O1952 In1950 2.326 . S
O1952 C1960 1.252 . S
C1953 O1956 1.252 . S
C1953 O1957 1.260 . S
C1954 O1961 1.240 . S
C1954 O1962 1.252 . S
C1955 O1958 1.252 . S
C1955 O1959 1.260 . S
O1956 In1950 2.266 . S
O1956 C1953 1.252 . S
O1957 In1950 2.326 . S
O1957 C1953 1.260 . S
O1958 In1950 2.266 . S
O1958 C1955 1.252 . S
O1959 In1950 2.326 . S
O1959 C1955 1.260 . S
C1960 O1951 1.240 . S
C1960 O1952 1.252 . S
O1961 In1950 2.294 . S
O1961 C1954 1.240 . S
O1962 In1950 2.326 . S
O1962 C1954 1.252 . S
In1963 O1964 2.294 . S
In1963 O1965 2.326 . S
In1963 O1969 2.266 . S
In1963 O1970 2.326 . S
In1963 O1971 2.266 . S
In1963 O1972 2.326 . S
In1963 O1974 2.294 . S
In1963 O1975 2.326 . S
O1964 In1963 2.294 . S
O1964 C1973 1.240 . S
O1965 In1963 2.326 . S
O1965 C1973 1.252 . S
C1966 O1969 1.252 . S
C1966 O1970 1.260 . S
C1967 O1974 1.240 . S
C1967 O1975 1.252 . S
C1968 O1971 1.252 . S
C1968 O1972 1.260 . S
O1969 In1963 2.266 . S
O1969 C1966 1.252 . S
O1970 In1963 2.326 . S
O1970 C1966 1.260 . S
O1971 In1963 2.266 . S
O1971 C1968 1.252 . S
O1972 In1963 2.326 . S
O1972 C1968 1.260 . S
C1973 O1964 1.240 . S
C1973 O1965 1.252 . S
O1974 In1963 2.294 . S
O1974 C1967 1.240 . S
O1975 In1963 2.326 . S
O1975 C1967 1.252 . S
In1976 O1977 2.294 . S
In1976 O1978 2.326 . S
In1976 O1982 2.266 . S
In1976 O1983 2.326 . S
In1976 O1984 2.266 . S
In1976 O1985 2.326 . S
In1976 O1987 2.294 . S
In1976 O1988 2.326 . S
O1977 In1976 2.294 . S
O1977 C1986 1.240 . S
O1978 In1976 2.326 . S
O1978 C1986 1.252 . S
C1979 O1982 1.252 . S
C1979 O1983 1.260 . S
C1980 O1987 1.240 . S
C1980 O1988 1.252 . S
C1981 O1984 1.252 . S
C1981 O1985 1.260 . S
O1982 In1976 2.266 . S
O1982 C1979 1.252 . S
O1983 In1976 2.326 . S
O1983 C1979 1.260 . S
O1984 In1976 2.266 . S
O1984 C1981 1.252 . S
O1985 In1976 2.326 . S
O1985 C1981 1.260 . S
C1986 O1977 1.240 . S
C1986 O1978 1.252 . S
O1987 In1976 2.294 . S
O1987 C1980 1.240 . S
O1988 In1976 2.326 . S
O1988 C1980 1.252 . S
In1989 O1990 2.294 . S
In1989 O1991 2.326 . S
In1989 O1995 2.266 . S
In1989 O1996 2.326 . S
In1989 O1997 2.266 . S
In1989 O1998 2.326 . S
In1989 O2000 2.294 . S
In1989 O2001 2.326 . S
O1990 In1989 2.294 . S
O1990 C1999 1.240 . S
O1991 In1989 2.326 . S
O1991 C1999 1.252 . S
C1992 O1995 1.252 . S
C1992 O1996 1.260 . S
C1993 O2000 1.240 . S
C1993 O2001 1.252 . S
C1994 O1997 1.252 . S
C1994 O1998 1.260 . S
O1995 In1989 2.266 . S
O1995 C1992 1.252 . S
O1996 In1989 2.326 . S
O1996 C1992 1.260 . S
O1997 In1989 2.266 . S
O1997 C1994 1.252 . S
O1998 In1989 2.326 . S
O1998 C1994 1.260 . S
C1999 O1990 1.240 . S
C1999 O1991 1.252 . S
O2000 In1989 2.294 . S
O2000 C1993 1.240 . S
O2001 In1989 2.326 . S
O2001 C1993 1.252 . S
In2002 O2003 2.294 . S
In2002 O2004 2.326 . S
In2002 O2008 2.266 . S
In2002 O2009 2.326 . S
In2002 O2010 2.266 . S
In2002 O2011 2.326 . S
In2002 O2013 2.294 . S
In2002 O2014 2.326 . S
O2003 In2002 2.294 . S
O2003 C2012 1.240 . S
O2004 In2002 2.326 . S
O2004 C2012 1.252 . S
C2005 O2008 1.252 . S
C2005 O2009 1.260 . S
C2006 O2013 1.240 . S
C2006 O2014 1.252 . S
C2007 O2010 1.252 . S
C2007 O2011 1.260 . S
O2008 In2002 2.266 . S
O2008 C2005 1.252 . S
O2009 In2002 2.326 . S
O2009 C2005 1.260 . S
O2010 In2002 2.266 . S
O2010 C2007 1.252 . S
O2011 In2002 2.326 . S
O2011 C2007 1.260 . S
C2012 O2003 1.240 . S
C2012 O2004 1.252 . S
O2013 In2002 2.294 . S
O2013 C2006 1.240 . S
O2014 In2002 2.326 . S
O2014 C2006 1.252 . S
In2015 O2016 2.294 . S
In2015 O2017 2.326 . S
In2015 O2021 2.266 . S
In2015 O2022 2.326 . S
In2015 O2023 2.266 . S
In2015 O2024 2.326 . S
In2015 O2026 2.294 . S
In2015 O2027 2.326 . S
O2016 In2015 2.294 . S
O2016 C2025 1.240 . S
O2017 In2015 2.326 . S
O2017 C2025 1.252 . S
C2018 O2021 1.252 . S
C2018 O2022 1.260 . S
C2019 O2026 1.240 . S
C2019 O2027 1.252 . S
C2020 O2023 1.252 . S
C2020 O2024 1.260 . S
O2021 In2015 2.266 . S
O2021 C2018 1.252 . S
O2022 In2015 2.326 . S
O2022 C2018 1.260 . S
O2023 In2015 2.266 . S
O2023 C2020 1.252 . S
O2024 In2015 2.326 . S
O2024 C2020 1.260 . S
C2025 O2016 1.240 . S
C2025 O2017 1.252 . S
O2026 In2015 2.294 . S
O2026 C2019 1.240 . S
O2027 In2015 2.326 . S
O2027 C2019 1.252 . S
In2028 O2029 2.294 . S
In2028 O2030 2.326 . S
In2028 O2034 2.266 . S
In2028 O2035 2.326 . S
In2028 O2036 2.266 . S
In2028 O2037 2.326 . S
In2028 O2039 2.294 . S
In2028 O2040 2.326 . S
O2029 In2028 2.294 . S
O2029 C2038 1.240 . S
O2030 In2028 2.326 . S
O2030 C2038 1.252 . S
C2031 O2034 1.252 . S
C2031 O2035 1.260 . S
C2032 O2039 1.240 . S
C2032 O2040 1.252 . S
C2033 O2036 1.252 . S
C2033 O2037 1.260 . S
O2034 In2028 2.266 . S
O2034 C2031 1.252 . S
O2035 In2028 2.326 . S
O2035 C2031 1.260 . S
O2036 In2028 2.266 . S
O2036 C2033 1.252 . S
O2037 In2028 2.326 . S
O2037 C2033 1.260 . S
C2038 O2029 1.240 . S
C2038 O2030 1.252 . S
O2039 In2028 2.294 . S
O2039 C2032 1.240 . S
O2040 In2028 2.326 . S
O2040 C2032 1.252 . S
In2041 O2042 2.294 . S
In2041 O2043 2.326 . S
In2041 O2047 2.266 . S
In2041 O2048 2.326 . S
In2041 O2049 2.266 . S
In2041 O2050 2.326 . S
In2041 O2052 2.294 . S
In2041 O2053 2.326 . S
O2042 In2041 2.294 . S
O2042 C2051 1.240 . S
O2043 In2041 2.326 . S
O2043 C2051 1.252 . S
C2044 O2047 1.252 . S
C2044 O2048 1.260 . S
C2045 O2052 1.240 . S
C2045 O2053 1.252 . S
C2046 O2049 1.252 . S
C2046 O2050 1.260 . S
O2047 In2041 2.266 . S
O2047 C2044 1.252 . S
O2048 In2041 2.326 . S
O2048 C2044 1.260 . S
O2049 In2041 2.266 . S
O2049 C2046 1.252 . S
O2050 In2041 2.326 . S
O2050 C2046 1.260 . S
C2051 O2042 1.240 . S
C2051 O2043 1.252 . S
O2052 In2041 2.294 . S
O2052 C2045 1.240 . S
O2053 In2041 2.326 . S
O2053 C2045 1.252 . S
In2054 O2055 2.294 . S
In2054 O2056 2.326 . S
In2054 O2060 2.266 . S
In2054 O2061 2.326 . S
In2054 O2062 2.266 . S
In2054 O2063 2.326 . S
In2054 O2065 2.294 . S
In2054 O2066 2.326 . S
O2055 In2054 2.294 . S
O2055 C2064 1.240 . S
O2056 In2054 2.326 . S
O2056 C2064 1.252 . S
C2057 O2060 1.252 . S
C2057 O2061 1.260 . S
C2058 O2065 1.240 . S
C2058 O2066 1.252 . S
C2059 O2062 1.252 . S
C2059 O2063 1.260 . S
O2060 In2054 2.266 . S
O2060 C2057 1.252 . S
O2061 In2054 2.326 . S
O2061 C2057 1.260 . S
O2062 In2054 2.266 . S
O2062 C2059 1.252 . S
O2063 In2054 2.326 . S
O2063 C2059 1.260 . S
C2064 O2055 1.240 . S
C2064 O2056 1.252 . S
O2065 In2054 2.294 . S
O2065 C2058 1.240 . S
O2066 In2054 2.326 . S
O2066 C2058 1.252 . S
In2067 O2068 2.294 . S
In2067 O2069 2.326 . S
In2067 O2073 2.266 . S
In2067 O2074 2.326 . S
In2067 O2075 2.266 . S
In2067 O2076 2.326 . S
In2067 O2078 2.294 . S
In2067 O2079 2.326 . S
O2068 In2067 2.294 . S
O2068 C2077 1.240 . S
O2069 In2067 2.326 . S
O2069 C2077 1.252 . S
C2070 O2073 1.252 . S
C2070 O2074 1.260 . S
C2071 O2078 1.240 . S
C2071 O2079 1.252 . S
C2072 O2075 1.252 . S
C2072 O2076 1.260 . S
O2073 In2067 2.266 . S
O2073 C2070 1.252 . S
O2074 In2067 2.326 . S
O2074 C2070 1.260 . S
O2075 In2067 2.266 . S
O2075 C2072 1.252 . S
O2076 In2067 2.326 . S
O2076 C2072 1.260 . S
C2077 O2068 1.240 . S
C2077 O2069 1.252 . S
O2078 In2067 2.294 . S
O2078 C2071 1.240 . S
O2079 In2067 2.326 . S
O2079 C2071 1.252 . S
In2080 O2081 2.294 . S
In2080 O2082 2.326 . S
In2080 O2086 2.266 . S
In2080 O2087 2.326 . S
In2080 O2088 2.266 . S
In2080 O2089 2.326 . S
In2080 O2091 2.294 . S
In2080 O2092 2.326 . S
O2081 In2080 2.294 . S
O2081 C2090 1.240 . S
O2082 In2080 2.326 . S
O2082 C2090 1.252 . S
C2083 O2086 1.252 . S
C2083 O2087 1.260 . S
C2084 O2091 1.240 . S
C2084 O2092 1.252 . S
C2085 O2088 1.252 . S
C2085 O2089 1.260 . S
O2086 In2080 2.266 . S
O2086 C2083 1.252 . S
O2087 In2080 2.326 . S
O2087 C2083 1.260 . S
O2088 In2080 2.266 . S
O2088 C2085 1.252 . S
O2089 In2080 2.326 . S
O2089 C2085 1.260 . S
C2090 O2081 1.240 . S
C2090 O2082 1.252 . S
O2091 In2080 2.294 . S
O2091 C2084 1.240 . S
O2092 In2080 2.326 . S
O2092 C2084 1.252 . S
In2093 O2094 2.294 . S
In2093 O2095 2.326 . S
In2093 O2099 2.266 . S
In2093 O2100 2.326 . S
In2093 O2101 2.266 . S
In2093 O2102 2.326 . S
In2093 O2104 2.294 . S
In2093 O2105 2.326 . S
O2094 In2093 2.294 . S
O2094 C2103 1.240 . S
O2095 In2093 2.326 . S
O2095 C2103 1.252 . S
C2096 O2099 1.252 . S
C2096 O2100 1.260 . S
C2097 O2104 1.240 . S
C2097 O2105 1.252 . S
C2098 O2101 1.252 . S
C2098 O2102 1.260 . S
O2099 In2093 2.266 . S
O2099 C2096 1.252 . S
O2100 In2093 2.326 . S
O2100 C2096 1.260 . S
O2101 In2093 2.266 . S
O2101 C2098 1.252 . S
O2102 In2093 2.326 . S
O2102 C2098 1.260 . S
C2103 O2094 1.240 . S
C2103 O2095 1.252 . S
O2104 In2093 2.294 . S
O2104 C2097 1.240 . S
O2105 In2093 2.326 . S
O2105 C2097 1.252 . S
In2106 O2107 2.294 . S
In2106 O2108 2.326 . S
In2106 O2112 2.266 . S
In2106 O2113 2.326 . S
In2106 O2114 2.266 . S
In2106 O2115 2.326 . S
In2106 O2117 2.294 . S
In2106 O2118 2.326 . S
O2107 In2106 2.294 . S
O2107 C2116 1.240 . S
O2108 In2106 2.326 . S
O2108 C2116 1.252 . S
C2109 O2112 1.252 . S
C2109 O2113 1.260 . S
C2110 O2117 1.240 . S
C2110 O2118 1.252 . S
C2111 O2114 1.252 . S
C2111 O2115 1.260 . S
O2112 In2106 2.266 . S
O2112 C2109 1.252 . S
O2113 In2106 2.326 . S
O2113 C2109 1.260 . S
O2114 In2106 2.266 . S
O2114 C2111 1.252 . S
O2115 In2106 2.326 . S
O2115 C2111 1.260 . S
C2116 O2107 1.240 . S
C2116 O2108 1.252 . S
O2117 In2106 2.294 . S
O2117 C2110 1.240 . S
O2118 In2106 2.326 . S
O2118 C2110 1.252 . S
In2119 O2120 2.294 . S
In2119 O2121 2.326 . S
In2119 O2125 2.266 . S
In2119 O2126 2.326 . S
In2119 O2127 2.266 . S
In2119 O2128 2.326 . S
In2119 O2130 2.294 . S
In2119 O2131 2.326 . S
O2120 In2119 2.294 . S
O2120 C2129 1.240 . S
O2121 In2119 2.326 . S
O2121 C2129 1.252 . S
C2122 O2125 1.252 . S
C2122 O2126 1.260 . S
C2123 O2130 1.240 . S
C2123 O2131 1.252 . S
C2124 O2127 1.252 . S
C2124 O2128 1.260 . S
O2125 In2119 2.266 . S
O2125 C2122 1.252 . S
O2126 In2119 2.326 . S
O2126 C2122 1.260 . S
O2127 In2119 2.266 . S
O2127 C2124 1.252 . S
O2128 In2119 2.326 . S
O2128 C2124 1.260 . S
C2129 O2120 1.240 . S
C2129 O2121 1.252 . S
O2130 In2119 2.294 . S
O2130 C2123 1.240 . S
O2131 In2119 2.326 . S
O2131 C2123 1.252 . S
In2132 O2133 2.294 . S
In2132 O2134 2.326 . S
In2132 O2138 2.266 . S
In2132 O2139 2.326 . S
In2132 O2140 2.266 . S
In2132 O2141 2.326 . S
In2132 O2143 2.294 . S
In2132 O2144 2.326 . S
O2133 In2132 2.294 . S
O2133 C2142 1.240 . S
O2134 In2132 2.326 . S
O2134 C2142 1.252 . S
C2135 O2138 1.252 . S
C2135 O2139 1.260 . S
C2136 O2143 1.240 . S
C2136 O2144 1.252 . S
C2137 O2140 1.252 . S
C2137 O2141 1.260 . S
O2138 In2132 2.266 . S
O2138 C2135 1.252 . S
O2139 In2132 2.326 . S
O2139 C2135 1.260 . S
O2140 In2132 2.266 . S
O2140 C2137 1.252 . S
O2141 In2132 2.326 . S
O2141 C2137 1.260 . S
C2142 O2133 1.240 . S
C2142 O2134 1.252 . S
O2143 In2132 2.294 . S
O2143 C2136 1.240 . S
O2144 In2132 2.326 . S
O2144 C2136 1.252 . S
In2145 O2146 2.294 . S
In2145 O2147 2.326 . S
In2145 O2151 2.266 . S
In2145 O2152 2.326 . S
In2145 O2153 2.266 . S
In2145 O2154 2.326 . S
In2145 O2156 2.294 . S
In2145 O2157 2.326 . S
O2146 In2145 2.294 . S
O2146 C2155 1.240 . S
O2147 In2145 2.326 . S
O2147 C2155 1.252 . S
C2148 O2151 1.252 . S
C2148 O2152 1.260 . S
C2149 O2156 1.240 . S
C2149 O2157 1.252 . S
C2150 O2153 1.252 . S
C2150 O2154 1.260 . S
O2151 In2145 2.266 . S
O2151 C2148 1.252 . S
O2152 In2145 2.326 . S
O2152 C2148 1.260 . S
O2153 In2145 2.266 . S
O2153 C2150 1.252 . S
O2154 In2145 2.326 . S
O2154 C2150 1.260 . S
C2155 O2146 1.240 . S
C2155 O2147 1.252 . S
O2156 In2145 2.294 . S
O2156 C2149 1.240 . S
O2157 In2145 2.326 . S
O2157 C2149 1.252 . S
In2158 O2159 2.294 . S
In2158 O2160 2.326 . S
In2158 O2164 2.266 . S
In2158 O2165 2.326 . S
In2158 O2166 2.266 . S
In2158 O2167 2.326 . S
In2158 O2169 2.294 . S
In2158 O2170 2.326 . S
O2159 In2158 2.294 . S
O2159 C2168 1.240 . S
O2160 In2158 2.326 . S
O2160 C2168 1.252 . S
C2161 O2164 1.252 . S
C2161 O2165 1.260 . S
C2162 O2169 1.240 . S
C2162 O2170 1.252 . S
C2163 O2166 1.252 . S
C2163 O2167 1.260 . S
O2164 In2158 2.266 . S
O2164 C2161 1.252 . S
O2165 In2158 2.326 . S
O2165 C2161 1.260 . S
O2166 In2158 2.266 . S
O2166 C2163 1.252 . S
O2167 In2158 2.326 . S
O2167 C2163 1.260 . S
C2168 O2159 1.240 . S
C2168 O2160 1.252 . S
O2169 In2158 2.294 . S
O2169 C2162 1.240 . S
O2170 In2158 2.326 . S
O2170 C2162 1.252 . S
In2171 O2172 2.294 . S
In2171 O2173 2.326 . S
In2171 O2177 2.266 . S
In2171 O2178 2.326 . S
In2171 O2179 2.266 . S
In2171 O2180 2.326 . S
In2171 O2182 2.294 . S
In2171 O2183 2.326 . S
O2172 In2171 2.294 . S
O2172 C2181 1.240 . S
O2173 In2171 2.326 . S
O2173 C2181 1.252 . S
C2174 O2177 1.252 . S
C2174 O2178 1.260 . S
C2175 O2182 1.240 . S
C2175 O2183 1.252 . S
C2176 O2179 1.252 . S
C2176 O2180 1.260 . S
O2177 In2171 2.266 . S
O2177 C2174 1.252 . S
O2178 In2171 2.326 . S
O2178 C2174 1.260 . S
O2179 In2171 2.266 . S
O2179 C2176 1.252 . S
O2180 In2171 2.326 . S
O2180 C2176 1.260 . S
C2181 O2172 1.240 . S
C2181 O2173 1.252 . S
O2182 In2171 2.294 . S
O2182 C2175 1.240 . S
O2183 In2171 2.326 . S
O2183 C2175 1.252 . S
In2184 O2185 2.294 . S
In2184 O2186 2.326 . S
In2184 O2190 2.266 . S
In2184 O2191 2.326 . S
In2184 O2192 2.266 . S
In2184 O2193 2.326 . S
In2184 O2195 2.294 . S
In2184 O2196 2.326 . S
O2185 In2184 2.294 . S
O2185 C2194 1.240 . S
O2186 In2184 2.326 . S
O2186 C2194 1.252 . S
C2187 O2190 1.252 . S
C2187 O2191 1.260 . S
C2188 O2195 1.240 . S
C2188 O2196 1.252 . S
C2189 O2192 1.252 . S
C2189 O2193 1.260 . S
O2190 In2184 2.266 . S
O2190 C2187 1.252 . S
O2191 In2184 2.326 . S
O2191 C2187 1.260 . S
O2192 In2184 2.266 . S
O2192 C2189 1.252 . S
O2193 In2184 2.326 . S
O2193 C2189 1.260 . S
C2194 O2185 1.240 . S
C2194 O2186 1.252 . S
O2195 In2184 2.294 . S
O2195 C2188 1.240 . S
O2196 In2184 2.326 . S
O2196 C2188 1.252 . S
In2197 O2198 2.294 . S
In2197 O2199 2.326 . S
In2197 O2203 2.266 . S
In2197 O2204 2.326 . S
In2197 O2205 2.266 . S
In2197 O2206 2.326 . S
In2197 O2208 2.294 . S
In2197 O2209 2.326 . S
O2198 In2197 2.294 . S
O2198 C2207 1.240 . S
O2199 In2197 2.326 . S
O2199 C2207 1.252 . S
C2200 O2203 1.252 . S
C2200 O2204 1.260 . S
C2201 O2208 1.240 . S
C2201 O2209 1.252 . S
C2202 O2205 1.252 . S
C2202 O2206 1.260 . S
O2203 In2197 2.266 . S
O2203 C2200 1.252 . S
O2204 In2197 2.326 . S
O2204 C2200 1.260 . S
O2205 In2197 2.266 . S
O2205 C2202 1.252 . S
O2206 In2197 2.326 . S
O2206 C2202 1.260 . S
C2207 O2198 1.240 . S
C2207 O2199 1.252 . S
O2208 In2197 2.294 . S
O2208 C2201 1.240 . S
O2209 In2197 2.326 . S
O2209 C2201 1.252 . S
In2210 O2211 2.294 . S
In2210 O2212 2.326 . S
In2210 O2216 2.266 . S
In2210 O2217 2.326 . S
In2210 O2218 2.266 . S
In2210 O2219 2.326 . S
In2210 O2221 2.294 . S
In2210 O2222 2.326 . S
O2211 In2210 2.294 . S
O2211 C2220 1.240 . S
O2212 In2210 2.326 . S
O2212 C2220 1.252 . S
C2213 O2216 1.252 . S
C2213 O2217 1.260 . S
C2214 O2221 1.240 . S
C2214 O2222 1.252 . S
C2215 O2218 1.252 . S
C2215 O2219 1.260 . S
O2216 In2210 2.266 . S
O2216 C2213 1.252 . S
O2217 In2210 2.326 . S
O2217 C2213 1.260 . S
O2218 In2210 2.266 . S
O2218 C2215 1.252 . S
O2219 In2210 2.326 . S
O2219 C2215 1.260 . S
C2220 O2211 1.240 . S
C2220 O2212 1.252 . S
O2221 In2210 2.294 . S
O2221 C2214 1.240 . S
O2222 In2210 2.326 . S
O2222 C2214 1.252 . S
In2223 O2224 2.294 . S
In2223 O2225 2.326 . S
In2223 O2229 2.266 . S
In2223 O2230 2.326 . S
In2223 O2231 2.266 . S
In2223 O2232 2.326 . S
In2223 O2234 2.294 . S
In2223 O2235 2.326 . S
O2224 In2223 2.294 . S
O2224 C2233 1.240 . S
O2225 In2223 2.326 . S
O2225 C2233 1.252 . S
C2226 O2229 1.252 . S
C2226 O2230 1.260 . S
C2227 O2234 1.240 . S
C2227 O2235 1.252 . S
C2228 O2231 1.252 . S
C2228 O2232 1.260 . S
O2229 In2223 2.266 . S
O2229 C2226 1.252 . S
O2230 In2223 2.326 . S
O2230 C2226 1.260 . S
O2231 In2223 2.266 . S
O2231 C2228 1.252 . S
O2232 In2223 2.326 . S
O2232 C2228 1.260 . S
C2233 O2224 1.240 . S
C2233 O2225 1.252 . S
O2234 In2223 2.294 . S
O2234 C2227 1.240 . S
O2235 In2223 2.326 . S
O2235 C2227 1.252 . S
In2236 O2237 2.294 . S
In2236 O2238 2.326 . S
In2236 O2242 2.266 . S
In2236 O2243 2.326 . S
In2236 O2244 2.266 . S
In2236 O2245 2.326 . S
In2236 O2247 2.294 . S
In2236 O2248 2.326 . S
O2237 In2236 2.294 . S
O2237 C2246 1.240 . S
O2238 In2236 2.326 . S
O2238 C2246 1.252 . S
C2239 O2242 1.252 . S
C2239 O2243 1.260 . S
C2240 O2247 1.240 . S
C2240 O2248 1.252 . S
C2241 O2244 1.252 . S
C2241 O2245 1.260 . S
O2242 In2236 2.266 . S
O2242 C2239 1.252 . S
O2243 In2236 2.326 . S
O2243 C2239 1.260 . S
O2244 In2236 2.266 . S
O2244 C2241 1.252 . S
O2245 In2236 2.326 . S
O2245 C2241 1.260 . S
C2246 O2237 1.240 . S
C2246 O2238 1.252 . S
O2247 In2236 2.294 . S
O2247 C2240 1.240 . S
O2248 In2236 2.326 . S
O2248 C2240 1.252 . S
In2249 O2250 2.294 . S
In2249 O2251 2.326 . S
In2249 O2255 2.266 . S
In2249 O2256 2.326 . S
In2249 O2257 2.266 . S
In2249 O2258 2.326 . S
In2249 O2260 2.294 . S
In2249 O2261 2.326 . S
O2250 In2249 2.294 . S
O2250 C2259 1.240 . S
O2251 In2249 2.326 . S
O2251 C2259 1.252 . S
C2252 O2255 1.252 . S
C2252 O2256 1.260 . S
C2253 O2260 1.240 . S
C2253 O2261 1.252 . S
C2254 O2257 1.252 . S
C2254 O2258 1.260 . S
O2255 In2249 2.266 . S
O2255 C2252 1.252 . S
O2256 In2249 2.326 . S
O2256 C2252 1.260 . S
O2257 In2249 2.266 . S
O2257 C2254 1.252 . S
O2258 In2249 2.326 . S
O2258 C2254 1.260 . S
C2259 O2250 1.240 . S
C2259 O2251 1.252 . S
O2260 In2249 2.294 . S
O2260 C2253 1.240 . S
O2261 In2249 2.326 . S
O2261 C2253 1.252 . S
In2262 O2263 2.294 . S
In2262 O2264 2.326 . S
In2262 O2268 2.266 . S
In2262 O2269 2.326 . S
In2262 O2270 2.266 . S
In2262 O2271 2.326 . S
In2262 O2273 2.294 . S
In2262 O2274 2.326 . S
O2263 In2262 2.294 . S
O2263 C2272 1.240 . S
O2264 In2262 2.326 . S
O2264 C2272 1.252 . S
C2265 O2268 1.252 . S
C2265 O2269 1.260 . S
C2266 O2273 1.240 . S
C2266 O2274 1.252 . S
C2267 O2270 1.252 . S
C2267 O2271 1.260 . S
O2268 In2262 2.266 . S
O2268 C2265 1.252 . S
O2269 In2262 2.326 . S
O2269 C2265 1.260 . S
O2270 In2262 2.266 . S
O2270 C2267 1.252 . S
O2271 In2262 2.326 . S
O2271 C2267 1.260 . S
C2272 O2263 1.240 . S
C2272 O2264 1.252 . S
O2273 In2262 2.294 . S
O2273 C2266 1.240 . S
O2274 In2262 2.326 . S
O2274 C2266 1.252 . S
In2275 O2276 2.294 . S
In2275 O2277 2.326 . S
In2275 O2281 2.266 . S
In2275 O2282 2.326 . S
In2275 O2283 2.266 . S
In2275 O2284 2.326 . S
In2275 O2286 2.294 . S
In2275 O2287 2.326 . S
O2276 In2275 2.294 . S
O2276 C2285 1.240 . S
O2277 In2275 2.326 . S
O2277 C2285 1.252 . S
C2278 O2281 1.252 . S
C2278 O2282 1.260 . S
C2279 O2286 1.240 . S
C2279 O2287 1.252 . S
C2280 O2283 1.252 . S
C2280 O2284 1.260 . S
O2281 In2275 2.266 . S
O2281 C2278 1.252 . S
O2282 In2275 2.326 . S
O2282 C2278 1.260 . S
O2283 In2275 2.266 . S
O2283 C2280 1.252 . S
O2284 In2275 2.326 . S
O2284 C2280 1.260 . S
C2285 O2276 1.240 . S
C2285 O2277 1.252 . S
O2286 In2275 2.294 . S
O2286 C2279 1.240 . S
O2287 In2275 2.326 . S
O2287 C2279 1.252 . S
In2288 O2289 2.294 . S
In2288 O2290 2.326 . S
In2288 O2294 2.266 . S
In2288 O2295 2.326 . S
In2288 O2296 2.266 . S
In2288 O2297 2.326 . S
In2288 O2299 2.294 . S
In2288 O2300 2.326 . S
O2289 In2288 2.294 . S
O2289 C2298 1.240 . S
O2290 In2288 2.326 . S
O2290 C2298 1.252 . S
C2291 O2294 1.252 . S
C2291 O2295 1.260 . S
C2292 O2299 1.240 . S
C2292 O2300 1.252 . S
C2293 O2296 1.252 . S
C2293 O2297 1.260 . S
O2294 In2288 2.266 . S
O2294 C2291 1.252 . S
O2295 In2288 2.326 . S
O2295 C2291 1.260 . S
O2296 In2288 2.266 . S
O2296 C2293 1.252 . S
O2297 In2288 2.326 . S
O2297 C2293 1.260 . S
C2298 O2289 1.240 . S
C2298 O2290 1.252 . S
O2299 In2288 2.294 . S
O2299 C2292 1.240 . S
O2300 In2288 2.326 . S
O2300 C2292 1.252 . S
In2301 O2302 2.294 . S
In2301 O2303 2.326 . S
In2301 O2307 2.266 . S
In2301 O2308 2.326 . S
In2301 O2309 2.266 . S
In2301 O2310 2.326 . S
In2301 O2312 2.294 . S
In2301 O2313 2.326 . S
O2302 In2301 2.294 . S
O2302 C2311 1.240 . S
O2303 In2301 2.326 . S
O2303 C2311 1.252 . S
C2304 O2307 1.252 . S
C2304 O2308 1.260 . S
C2305 O2312 1.240 . S
C2305 O2313 1.252 . S
C2306 O2309 1.252 . S
C2306 O2310 1.260 . S
O2307 In2301 2.266 . S
O2307 C2304 1.252 . S
O2308 In2301 2.326 . S
O2308 C2304 1.260 . S
O2309 In2301 2.266 . S
O2309 C2306 1.252 . S
O2310 In2301 2.326 . S
O2310 C2306 1.260 . S
C2311 O2302 1.240 . S
C2311 O2303 1.252 . S
O2312 In2301 2.294 . S
O2312 C2305 1.240 . S
O2313 In2301 2.326 . S
O2313 C2305 1.252 . S
In2314 O2315 2.294 . S
In2314 O2316 2.326 . S
In2314 O2320 2.266 . S
In2314 O2321 2.326 . S
In2314 O2322 2.266 . S
In2314 O2323 2.326 . S
In2314 O2325 2.294 . S
In2314 O2326 2.326 . S
O2315 In2314 2.294 . S
O2315 C2324 1.240 . S
O2316 In2314 2.326 . S
O2316 C2324 1.252 . S
C2317 O2320 1.252 . S
C2317 O2321 1.260 . S
C2318 O2325 1.240 . S
C2318 O2326 1.252 . S
C2319 O2322 1.252 . S
C2319 O2323 1.260 . S
O2320 In2314 2.266 . S
O2320 C2317 1.252 . S
O2321 In2314 2.326 . S
O2321 C2317 1.260 . S
O2322 In2314 2.266 . S
O2322 C2319 1.252 . S
O2323 In2314 2.326 . S
O2323 C2319 1.260 . S
C2324 O2315 1.240 . S
C2324 O2316 1.252 . S
O2325 In2314 2.294 . S
O2325 C2318 1.240 . S
O2326 In2314 2.326 . S
O2326 C2318 1.252 . S
In2327 O2328 2.294 . S
In2327 O2329 2.326 . S
In2327 O2333 2.266 . S
In2327 O2334 2.326 . S
In2327 O2335 2.266 . S
In2327 O2336 2.326 . S
In2327 O2338 2.294 . S
In2327 O2339 2.326 . S
O2328 In2327 2.294 . S
O2328 C2337 1.240 . S
O2329 In2327 2.326 . S
O2329 C2337 1.252 . S
C2330 O2333 1.252 . S
C2330 O2334 1.260 . S
C2331 O2338 1.240 . S
C2331 O2339 1.252 . S
C2332 O2335 1.252 . S
C2332 O2336 1.260 . S
O2333 In2327 2.266 . S
O2333 C2330 1.252 . S
O2334 In2327 2.326 . S
O2334 C2330 1.260 . S
O2335 In2327 2.266 . S
O2335 C2332 1.252 . S
O2336 In2327 2.326 . S
O2336 C2332 1.260 . S
C2337 O2328 1.240 . S
C2337 O2329 1.252 . S
O2338 In2327 2.294 . S
O2338 C2331 1.240 . S
O2339 In2327 2.326 . S
O2339 C2331 1.252 . S
In2340 O2341 2.294 . S
In2340 O2342 2.326 . S
In2340 O2346 2.266 . S
In2340 O2347 2.326 . S
In2340 O2348 2.266 . S
In2340 O2349 2.326 . S
In2340 O2351 2.294 . S
In2340 O2352 2.326 . S
O2341 In2340 2.294 . S
O2341 C2350 1.240 . S
O2342 In2340 2.326 . S
O2342 C2350 1.252 . S
C2343 O2346 1.252 . S
C2343 O2347 1.260 . S
C2344 O2351 1.240 . S
C2344 O2352 1.252 . S
C2345 O2348 1.252 . S
C2345 O2349 1.260 . S
O2346 In2340 2.266 . S
O2346 C2343 1.252 . S
O2347 In2340 2.326 . S
O2347 C2343 1.260 . S
O2348 In2340 2.266 . S
O2348 C2345 1.252 . S
O2349 In2340 2.326 . S
O2349 C2345 1.260 . S
C2350 O2341 1.240 . S
C2350 O2342 1.252 . S
O2351 In2340 2.294 . S
O2351 C2344 1.240 . S
O2352 In2340 2.326 . S
O2352 C2344 1.252 . S
In2353 O2354 2.294 . S
In2353 O2355 2.326 . S
In2353 O2359 2.266 . S
In2353 O2360 2.326 . S
In2353 O2361 2.266 . S
In2353 O2362 2.326 . S
In2353 O2364 2.294 . S
In2353 O2365 2.326 . S
O2354 In2353 2.294 . S
O2354 C2363 1.240 . S
O2355 In2353 2.326 . S
O2355 C2363 1.252 . S
C2356 O2359 1.252 . S
C2356 O2360 1.260 . S
C2357 O2364 1.240 . S
C2357 O2365 1.252 . S
C2358 O2361 1.252 . S
C2358 O2362 1.260 . S
O2359 In2353 2.266 . S
O2359 C2356 1.252 . S
O2360 In2353 2.326 . S
O2360 C2356 1.260 . S
O2361 In2353 2.266 . S
O2361 C2358 1.252 . S
O2362 In2353 2.326 . S
O2362 C2358 1.260 . S
C2363 O2354 1.240 . S
C2363 O2355 1.252 . S
O2364 In2353 2.294 . S
O2364 C2357 1.240 . S
O2365 In2353 2.326 . S
O2365 C2357 1.252 . S
In2366 O2367 2.294 . S
In2366 O2368 2.326 . S
In2366 O2372 2.266 . S
In2366 O2373 2.326 . S
In2366 O2374 2.266 . S
In2366 O2375 2.326 . S
In2366 O2377 2.294 . S
In2366 O2378 2.326 . S
O2367 In2366 2.294 . S
O2367 C2376 1.240 . S
O2368 In2366 2.326 . S
O2368 C2376 1.252 . S
C2369 O2372 1.252 . S
C2369 O2373 1.260 . S
C2370 O2377 1.240 . S
C2370 O2378 1.252 . S
C2371 O2374 1.252 . S
C2371 O2375 1.260 . S
O2372 In2366 2.266 . S
O2372 C2369 1.252 . S
O2373 In2366 2.326 . S
O2373 C2369 1.260 . S
O2374 In2366 2.266 . S
O2374 C2371 1.252 . S
O2375 In2366 2.326 . S
O2375 C2371 1.260 . S
C2376 O2367 1.240 . S
C2376 O2368 1.252 . S
O2377 In2366 2.294 . S
O2377 C2370 1.240 . S
O2378 In2366 2.326 . S
O2378 C2370 1.252 . S
In2379 O2380 2.294 . S
In2379 O2381 2.326 . S
In2379 O2385 2.266 . S
In2379 O2386 2.326 . S
In2379 O2387 2.266 . S
In2379 O2388 2.326 . S
In2379 O2390 2.294 . S
In2379 O2391 2.326 . S
O2380 In2379 2.294 . S
O2380 C2389 1.240 . S
O2381 In2379 2.326 . S
O2381 C2389 1.252 . S
C2382 O2385 1.252 . S
C2382 O2386 1.260 . S
C2383 O2390 1.240 . S
C2383 O2391 1.252 . S
C2384 O2387 1.252 . S
C2384 O2388 1.260 . S
O2385 In2379 2.266 . S
O2385 C2382 1.252 . S
O2386 In2379 2.326 . S
O2386 C2382 1.260 . S
O2387 In2379 2.266 . S
O2387 C2384 1.252 . S
O2388 In2379 2.326 . S
O2388 C2384 1.260 . S
C2389 O2380 1.240 . S
C2389 O2381 1.252 . S
O2390 In2379 2.294 . S
O2390 C2383 1.240 . S
O2391 In2379 2.326 . S
O2391 C2383 1.252 . S
In2392 O2393 2.294 . S
In2392 O2394 2.326 . S
In2392 O2398 2.266 . S
In2392 O2399 2.326 . S
In2392 O2400 2.266 . S
In2392 O2401 2.326 . S
In2392 O2403 2.294 . S
In2392 O2404 2.326 . S
O2393 In2392 2.294 . S
O2393 C2402 1.240 . S
O2394 In2392 2.326 . S
O2394 C2402 1.252 . S
C2395 O2398 1.252 . S
C2395 O2399 1.260 . S
C2396 O2403 1.240 . S
C2396 O2404 1.252 . S
C2397 O2400 1.252 . S
C2397 O2401 1.260 . S
O2398 In2392 2.266 . S
O2398 C2395 1.252 . S
O2399 In2392 2.326 . S
O2399 C2395 1.260 . S
O2400 In2392 2.266 . S
O2400 C2397 1.252 . S
O2401 In2392 2.326 . S
O2401 C2397 1.260 . S
C2402 O2393 1.240 . S
C2402 O2394 1.252 . S
O2403 In2392 2.294 . S
O2403 C2396 1.240 . S
O2404 In2392 2.326 . S
O2404 C2396 1.252 . S
In2405 O2406 2.294 . S
In2405 O2407 2.326 . S
In2405 O2411 2.266 . S
In2405 O2412 2.326 . S
In2405 O2413 2.266 . S
In2405 O2414 2.326 . S
In2405 O2416 2.294 . S
In2405 O2417 2.326 . S
O2406 In2405 2.294 . S
O2406 C2415 1.240 . S
O2407 In2405 2.326 . S
O2407 C2415 1.252 . S
C2408 O2411 1.252 . S
C2408 O2412 1.260 . S
C2409 O2416 1.240 . S
C2409 O2417 1.252 . S
C2410 O2413 1.252 . S
C2410 O2414 1.260 . S
O2411 In2405 2.266 . S
O2411 C2408 1.252 . S
O2412 In2405 2.326 . S
O2412 C2408 1.260 . S
O2413 In2405 2.266 . S
O2413 C2410 1.252 . S
O2414 In2405 2.326 . S
O2414 C2410 1.260 . S
C2415 O2406 1.240 . S
C2415 O2407 1.252 . S
O2416 In2405 2.294 . S
O2416 C2409 1.240 . S
O2417 In2405 2.326 . S
O2417 C2409 1.252 . S
In2418 O2419 2.294 . S
In2418 O2420 2.326 . S
In2418 O2424 2.266 . S
In2418 O2425 2.326 . S
In2418 O2426 2.266 . S
In2418 O2427 2.326 . S
In2418 O2429 2.294 . S
In2418 O2430 2.326 . S
O2419 In2418 2.294 . S
O2419 C2428 1.240 . S
O2420 In2418 2.326 . S
O2420 C2428 1.252 . S
C2421 O2424 1.252 . S
C2421 O2425 1.260 . S
C2422 O2429 1.240 . S
C2422 O2430 1.252 . S
C2423 O2426 1.252 . S
C2423 O2427 1.260 . S
O2424 In2418 2.266 . S
O2424 C2421 1.252 . S
O2425 In2418 2.326 . S
O2425 C2421 1.260 . S
O2426 In2418 2.266 . S
O2426 C2423 1.252 . S
O2427 In2418 2.326 . S
O2427 C2423 1.260 . S
C2428 O2419 1.240 . S
C2428 O2420 1.252 . S
O2429 In2418 2.294 . S
O2429 C2422 1.240 . S
O2430 In2418 2.326 . S
O2430 C2422 1.252 . S
In2431 O2432 2.294 . S
In2431 O2433 2.326 . S
In2431 O2437 2.266 . S
In2431 O2438 2.326 . S
In2431 O2439 2.266 . S
In2431 O2440 2.326 . S
In2431 O2442 2.294 . S
In2431 O2443 2.326 . S
O2432 In2431 2.294 . S
O2432 C2441 1.240 . S
O2433 In2431 2.326 . S
O2433 C2441 1.252 . S
C2434 O2437 1.252 . S
C2434 O2438 1.260 . S
C2435 O2442 1.240 . S
C2435 O2443 1.252 . S
C2436 O2439 1.252 . S
C2436 O2440 1.260 . S
O2437 In2431 2.266 . S
O2437 C2434 1.252 . S
O2438 In2431 2.326 . S
O2438 C2434 1.260 . S
O2439 In2431 2.266 . S
O2439 C2436 1.252 . S
O2440 In2431 2.326 . S
O2440 C2436 1.260 . S
C2441 O2432 1.240 . S
C2441 O2433 1.252 . S
O2442 In2431 2.294 . S
O2442 C2435 1.240 . S
O2443 In2431 2.326 . S
O2443 C2435 1.252 . S
In2444 O2445 2.294 . S
In2444 O2446 2.326 . S
In2444 O2450 2.266 . S
In2444 O2451 2.326 . S
In2444 O2452 2.266 . S
In2444 O2453 2.326 . S
In2444 O2455 2.294 . S
In2444 O2456 2.326 . S
O2445 In2444 2.294 . S
O2445 C2454 1.240 . S
O2446 In2444 2.326 . S
O2446 C2454 1.252 . S
C2447 O2450 1.252 . S
C2447 O2451 1.260 . S
C2448 O2455 1.240 . S
C2448 O2456 1.252 . S
C2449 O2452 1.252 . S
C2449 O2453 1.260 . S
O2450 In2444 2.266 . S
O2450 C2447 1.252 . S
O2451 In2444 2.326 . S
O2451 C2447 1.260 . S
O2452 In2444 2.266 . S
O2452 C2449 1.252 . S
O2453 In2444 2.326 . S
O2453 C2449 1.260 . S
C2454 O2445 1.240 . S
C2454 O2446 1.252 . S
O2455 In2444 2.294 . S
O2455 C2448 1.240 . S
O2456 In2444 2.326 . S
O2456 C2448 1.252 . S
In2457 O2458 2.294 . S
In2457 O2459 2.326 . S
In2457 O2463 2.266 . S
In2457 O2464 2.326 . S
In2457 O2465 2.266 . S
In2457 O2466 2.326 . S
In2457 O2468 2.294 . S
In2457 O2469 2.326 . S
O2458 In2457 2.294 . S
O2458 C2467 1.240 . S
O2459 In2457 2.326 . S
O2459 C2467 1.252 . S
C2460 O2463 1.252 . S
C2460 O2464 1.260 . S
C2461 O2468 1.240 . S
C2461 O2469 1.252 . S
C2462 O2465 1.252 . S
C2462 O2466 1.260 . S
O2463 In2457 2.266 . S
O2463 C2460 1.252 . S
O2464 In2457 2.326 . S
O2464 C2460 1.260 . S
O2465 In2457 2.266 . S
O2465 C2462 1.252 . S
O2466 In2457 2.326 . S
O2466 C2462 1.260 . S
C2467 O2458 1.240 . S
C2467 O2459 1.252 . S
O2468 In2457 2.294 . S
O2468 C2461 1.240 . S
O2469 In2457 2.326 . S
O2469 C2461 1.252 . S
In2470 O2471 2.294 . S
In2470 O2472 2.326 . S
In2470 O2476 2.266 . S
In2470 O2477 2.326 . S
In2470 O2478 2.266 . S
In2470 O2479 2.326 . S
In2470 O2481 2.294 . S
In2470 O2482 2.326 . S
O2471 In2470 2.294 . S
O2471 C2480 1.240 . S
O2472 In2470 2.326 . S
O2472 C2480 1.252 . S
C2473 O2476 1.252 . S
C2473 O2477 1.260 . S
C2474 O2481 1.240 . S
C2474 O2482 1.252 . S
C2475 O2478 1.252 . S
C2475 O2479 1.260 . S
O2476 In2470 2.266 . S
O2476 C2473 1.252 . S
O2477 In2470 2.326 . S
O2477 C2473 1.260 . S
O2478 In2470 2.266 . S
O2478 C2475 1.252 . S
O2479 In2470 2.326 . S
O2479 C2475 1.260 . S
C2480 O2471 1.240 . S
C2480 O2472 1.252 . S
O2481 In2470 2.294 . S
O2481 C2474 1.240 . S
O2482 In2470 2.326 . S
O2482 C2474 1.252 . S
In2483 O2484 2.294 . S
In2483 O2485 2.326 . S
In2483 O2489 2.266 . S
In2483 O2490 2.326 . S
In2483 O2491 2.266 . S
In2483 O2492 2.326 . S
In2483 O2494 2.294 . S
In2483 O2495 2.326 . S
O2484 In2483 2.294 . S
O2484 C2493 1.240 . S
O2485 In2483 2.326 . S
O2485 C2493 1.252 . S
C2486 O2489 1.252 . S
C2486 O2490 1.260 . S
C2487 O2494 1.240 . S
C2487 O2495 1.252 . S
C2488 O2491 1.252 . S
C2488 O2492 1.260 . S
O2489 In2483 2.266 . S
O2489 C2486 1.252 . S
O2490 In2483 2.326 . S
O2490 C2486 1.260 . S
O2491 In2483 2.266 . S
O2491 C2488 1.252 . S
O2492 In2483 2.326 . S
O2492 C2488 1.260 . S
C2493 O2484 1.240 . S
C2493 O2485 1.252 . S
O2494 In2483 2.294 . S
O2494 C2487 1.240 . S
O2495 In2483 2.326 . S
O2495 C2487 1.252 . S
C2496 C2497 1.387 . S
C2496 H2500 0.950 . S
C2496 C2505 1.390 1_455 S
C2497 C2496 1.387 . S
C2497 C2499 1.387 . S
H2498 C2505 0.950 . S
C2499 C2497 1.387 . S
C2499 C2501 1.390 1_455 S
C2499 H2503 0.950 . S
H2500 C2496 0.950 . S
C2501 C2499 1.390 1_655 S
C2501 C2502 1.387 . S
C2501 H2504 0.950 . S
C2502 C2501 1.387 . S
C2502 C2505 1.387 . S
H2503 C2499 0.950 . S
H2504 C2501 0.950 . S
C2505 C2496 1.390 1_655 S
C2505 H2498 0.950 . S
C2505 C2502 1.387 . S
C2506 C2507 1.387 . S
C2506 H2510 0.950 . S
C2506 C2515 1.390 1_545 S
C2507 C2506 1.387 . S
C2507 C2509 1.387 . S
H2508 C2515 0.950 . S
C2509 C2507 1.387 . S
C2509 C2511 1.390 1_545 S
C2509 H2513 0.950 . S
H2510 C2506 0.950 . S
C2511 C2509 1.390 1_565 S
C2511 C2512 1.387 . S
C2511 H2514 0.950 . S
C2512 C2511 1.387 . S
C2512 C2515 1.387 . S
H2513 C2509 0.950 . S
H2514 C2511 0.950 . S
C2515 C2506 1.390 1_565 S
C2515 H2508 0.950 . S
C2515 C2512 1.387 . S
C2516 C2517 1.387 . S
C2516 H2520 0.950 . S
C2516 C2525 1.390 . S
C2517 C2516 1.387 . S
C2517 C2519 1.387 . S
H2518 C2525 0.950 . S
C2519 C2517 1.387 . S
C2519 C2521 1.390 . S
C2519 H2523 0.950 . S
H2520 C2516 0.950 . S
C2521 C2519 1.390 . S
C2521 C2522 1.387 . S
C2521 H2524 0.950 . S
C2522 C2521 1.387 . S
C2522 C2525 1.387 . S
H2523 C2519 0.950 . S
H2524 C2521 0.950 . S
C2525 C2516 1.390 . S
C2525 H2518 0.950 . S
C2525 C2522 1.387 . S
C2526 C2527 1.387 . S
C2526 H2530 0.950 . S
C2526 C2535 1.390 . S
C2527 C2526 1.387 . S
C2527 C2529 1.387 . S
H2528 C2535 0.950 . S
C2529 C2527 1.387 . S
C2529 C2531 1.390 . S
C2529 H2533 0.950 . S
H2530 C2526 0.950 . S
C2531 C2529 1.390 . S
C2531 C2532 1.387 . S
C2531 H2534 0.950 . S
C2532 C2531 1.387 . S
C2532 C2535 1.387 . S
H2533 C2529 0.950 . S
H2534 C2531 0.950 . S
C2535 C2526 1.390 . S
C2535 H2528 0.950 . S
C2535 C2532 1.387 . S
C2536 C2537 1.387 . S
C2536 H2540 0.950 . S
C2536 C2545 1.390 1_455 S
C2537 C2536 1.387 . S
C2537 C2539 1.387 . S
H2538 C2545 0.950 . S
C2539 C2537 1.387 . S
C2539 C2541 1.390 1_455 S
C2539 H2543 0.950 . S
H2540 C2536 0.950 . S
C2541 C2539 1.390 1_655 S
C2541 C2542 1.387 . S
C2541 H2544 0.950 . S
C2542 C2541 1.387 . S
C2542 C2545 1.387 . S
H2543 C2539 0.950 . S
H2544 C2541 0.950 . S
C2545 C2536 1.390 1_655 S
C2545 H2538 0.950 . S
C2545 C2542 1.387 . S
C2546 C2547 1.387 . S
C2546 H2550 0.950 . S
C2546 C2555 1.390 1_545 S
C2547 C2546 1.387 . S
C2547 C2549 1.387 . S
H2548 C2555 0.950 . S
C2549 C2547 1.387 . S
C2549 C2551 1.390 1_545 S
C2549 H2553 0.950 . S
H2550 C2546 0.950 . S
C2551 C2549 1.390 1_565 S
C2551 C2552 1.387 . S
C2551 H2554 0.950 . S
C2552 C2551 1.387 . S
C2552 C2555 1.387 . S
H2553 C2549 0.950 . S
H2554 C2551 0.950 . S
C2555 C2546 1.390 1_565 S
C2555 H2548 0.950 . S
C2555 C2552 1.387 . S
C2556 C2557 1.387 . S
C2556 H2560 0.950 . S
C2556 C2565 1.390 . S
C2557 C2556 1.387 . S
C2557 C2559 1.387 . S
H2558 C2565 0.950 . S
C2559 C2557 1.387 . S
C2559 C2561 1.390 . S
C2559 H2563 0.950 . S
H2560 C2556 0.950 . S
C2561 C2559 1.390 . S
C2561 C2562 1.387 . S
C2561 H2564 0.950 . S
C2562 C2561 1.387 . S
C2562 C2565 1.387 . S
H2563 C2559 0.950 . S
H2564 C2561 0.950 . S
C2565 C2556 1.390 . S
C2565 H2558 0.950 . S
C2565 C2562 1.387 . S
C2566 C2567 1.387 . S
C2566 H2570 0.950 . S
C2566 C2575 1.390 . S
C2567 C2566 1.387 . S
C2567 C2569 1.387 . S
H2568 C2575 0.950 . S
C2569 C2567 1.387 . S
C2569 C2571 1.390 . S
C2569 H2573 0.950 . S
H2570 C2566 0.950 . S
C2571 C2569 1.390 . S
C2571 C2572 1.387 . S
C2571 H2574 0.950 . S
C2572 C2571 1.387 . S
C2572 C2575 1.387 . S
H2573 C2569 0.950 . S
H2574 C2571 0.950 . S
C2575 C2566 1.390 . S
C2575 H2568 0.950 . S
C2575 C2572 1.387 . S
C2576 C2577 1.387 . S
C2576 H2580 0.950 . S
C2576 C2585 1.390 1_545 S
C2577 C2576 1.387 . S
C2577 C2579 1.387 . S
H2578 C2585 0.950 . S
C2579 C2577 1.387 . S
C2579 C2581 1.390 1_545 S
C2579 H2583 0.950 . S
H2580 C2576 0.950 . S
C2581 C2579 1.390 1_565 S
C2581 C2582 1.387 . S
C2581 H2584 0.950 . S
C2582 C2581 1.387 . S
C2582 C2585 1.387 . S
H2583 C2579 0.950 . S
H2584 C2581 0.950 . S
C2585 C2576 1.390 1_565 S
C2585 H2578 0.950 . S
C2585 C2582 1.387 . S
C2586 C2587 1.387 . S
C2586 H2590 0.950 . S
C2586 C2595 1.390 . S
C2587 C2586 1.387 . S
C2587 C2589 1.387 . S
H2588 C2595 0.950 . S
C2589 C2587 1.387 . S
C2589 C2591 1.390 . S
C2589 H2593 0.950 . S
H2590 C2586 0.950 . S
C2591 C2589 1.390 . S
C2591 C2592 1.387 . S
C2591 H2594 0.950 . S
C2592 C2591 1.387 . S
C2592 C2595 1.387 . S
H2593 C2589 0.950 . S
H2594 C2591 0.950 . S
C2595 C2586 1.390 . S
C2595 H2588 0.950 . S
C2595 C2592 1.387 . S
C2596 C2597 1.387 . S
C2596 H2600 0.950 . S
C2596 C2605 1.390 . S
C2597 C2596 1.387 . S
C2597 C2599 1.387 . S
H2598 C2605 0.950 . S
C2599 C2597 1.387 . S
C2599 C2601 1.390 . S
C2599 H2603 0.950 . S
H2600 C2596 0.950 . S
C2601 C2599 1.390 . S
C2601 C2602 1.387 . S
C2601 H2604 0.950 . S
C2602 C2601 1.387 . S
C2602 C2605 1.387 . S
H2603 C2599 0.950 . S
H2604 C2601 0.950 . S
C2605 C2596 1.390 . S
C2605 H2598 0.950 . S
C2605 C2602 1.387 . S
C2606 C2607 1.387 . S
C2606 H2610 0.950 . S
C2606 C2615 1.390 1_455 S
C2607 C2606 1.387 . S
C2607 C2609 1.387 . S
H2608 C2615 0.950 . S
C2609 C2607 1.387 . S
C2609 C2611 1.390 1_455 S
C2609 H2613 0.950 . S
H2610 C2606 0.950 . S
C2611 C2609 1.390 1_655 S
C2611 C2612 1.387 . S
C2611 H2614 0.950 . S
C2612 C2611 1.387 . S
C2612 C2615 1.387 . S
H2613 C2609 0.950 . S
H2614 C2611 0.950 . S
C2615 C2606 1.390 1_655 S
C2615 H2608 0.950 . S
C2615 C2612 1.387 . S
C2616 C2617 1.387 . S
C2616 H2620 0.950 . S
C2616 C2625 1.390 1_545 S
C2617 C2616 1.387 . S
C2617 C2619 1.387 . S
H2618 C2625 0.950 . S
C2619 C2617 1.387 . S
C2619 C2621 1.390 1_545 S
C2619 H2623 0.950 . S
H2620 C2616 0.950 . S
C2621 C2619 1.390 1_565 S
C2621 C2622 1.387 . S
C2621 H2624 0.950 . S
C2622 C2621 1.387 . S
C2622 C2625 1.387 . S
H2623 C2619 0.950 . S
H2624 C2621 0.950 . S
C2625 C2616 1.390 1_565 S
C2625 H2618 0.950 . S
C2625 C2622 1.387 . S
C2626 C2627 1.387 . S
C2626 H2630 0.950 . S
C2626 C2635 1.390 . S
C2627 C2626 1.387 . S
C2627 C2629 1.387 . S
H2628 C2635 0.950 . S
C2629 C2627 1.387 . S
C2629 C2631 1.390 . S
C2629 H2633 0.950 . S
H2630 C2626 0.950 . S
C2631 C2629 1.390 . S
C2631 C2632 1.387 . S
C2631 H2634 0.950 . S
C2632 C2631 1.387 . S
C2632 C2635 1.387 . S
H2633 C2629 0.950 . S
H2634 C2631 0.950 . S
C2635 C2626 1.390 . S
C2635 H2628 0.950 . S
C2635 C2632 1.387 . S
C2636 C2637 1.387 . S
C2636 H2640 0.950 . S
C2636 C2645 1.390 . S
C2637 C2636 1.387 . S
C2637 C2639 1.387 . S
H2638 C2645 0.950 . S
C2639 C2637 1.387 . S
C2639 C2641 1.390 . S
C2639 H2643 0.950 . S
H2640 C2636 0.950 . S
C2641 C2639 1.390 . S
C2641 C2642 1.387 . S
C2641 H2644 0.950 . S
C2642 C2641 1.387 . S
C2642 C2645 1.387 . S
H2643 C2639 0.950 . S
H2644 C2641 0.950 . S
C2645 C2636 1.390 . S
C2645 H2638 0.950 . S
C2645 C2642 1.387 . S
C2646 C2647 1.387 . S
C2646 H2650 0.950 . S
C2646 C2655 1.390 1_655 S
C2647 C2646 1.387 . S
C2647 C2649 1.387 . S
H2648 C2655 0.950 . S
C2649 C2647 1.387 . S
C2649 C2651 1.390 1_655 S
C2649 H2653 0.950 . S
H2650 C2646 0.950 . S
C2651 C2649 1.390 1_455 S
C2651 C2652 1.387 . S
C2651 H2654 0.950 . S
C2652 C2651 1.387 . S
C2652 C2655 1.387 . S
H2653 C2649 0.950 . S
H2654 C2651 0.950 . S
C2655 C2646 1.390 1_455 S
C2655 H2648 0.950 . S
C2655 C2652 1.387 . S
C2656 C2657 1.387 . S
C2656 H2660 0.950 . S
C2656 C2665 1.390 1_554 S
C2657 C2656 1.387 . S
C2657 C2659 1.387 . S
H2658 C2665 0.950 . S
C2659 C2657 1.387 . S
C2659 C2661 1.390 1_554 S
C2659 H2663 0.950 . S
H2660 C2656 0.950 . S
C2661 C2659 1.390 1_556 S
C2661 C2662 1.387 . S
C2661 H2664 0.950 . S
C2662 C2661 1.387 . S
C2662 C2665 1.387 . S
H2663 C2659 0.950 . S
H2664 C2661 0.950 . S
C2665 C2656 1.390 1_556 S
C2665 H2658 0.950 . S
C2665 C2662 1.387 . S
C2666 C2667 1.387 . S
C2666 H2670 0.950 . S
C2666 C2675 1.390 . S
C2667 C2666 1.387 . S
C2667 C2669 1.387 . S
H2668 C2675 0.950 . S
C2669 C2667 1.387 . S
C2669 C2671 1.390 . S
C2669 H2673 0.950 . S
H2670 C2666 0.950 . S
C2671 C2669 1.390 . S
C2671 C2672 1.387 . S
C2671 H2674 0.950 . S
C2672 C2671 1.387 . S
C2672 C2675 1.387 . S
H2673 C2669 0.950 . S
H2674 C2671 0.950 . S
C2675 C2666 1.390 . S
C2675 H2668 0.950 . S
C2675 C2672 1.387 . S
C2676 C2677 1.387 . S
C2676 H2680 0.950 . S
C2676 C2685 1.390 . S
C2677 C2676 1.387 . S
C2677 C2679 1.387 . S
H2678 C2685 0.950 . S
C2679 C2677 1.387 . S
C2679 C2681 1.390 . S
C2679 H2683 0.950 . S
H2680 C2676 0.950 . S
C2681 C2679 1.390 . S
C2681 C2682 1.387 . S
C2681 H2684 0.950 . S
C2682 C2681 1.387 . S
C2682 C2685 1.387 . S
H2683 C2679 0.950 . S
H2684 C2681 0.950 . S
C2685 C2676 1.390 . S
C2685 H2678 0.950 . S
C2685 C2682 1.387 . S
C2686 C2687 1.387 . S
C2686 H2690 0.950 . S
C2686 C2695 1.390 . S
C2687 C2686 1.387 . S
C2687 C2689 1.387 . S
H2688 C2695 0.950 . S
C2689 C2687 1.387 . S
C2689 C2691 1.390 . S
C2689 H2693 0.950 . S
H2690 C2686 0.950 . S
C2691 C2689 1.390 . S
C2691 C2692 1.387 . S
C2691 H2694 0.950 . S
C2692 C2691 1.387 . S
C2692 C2695 1.387 . S
H2693 C2689 0.950 . S
H2694 C2691 0.950 . S
C2695 C2686 1.390 . S
C2695 H2688 0.950 . S
C2695 C2692 1.387 . S
C2696 C2697 1.387 . S
C2696 H2700 0.950 . S
C2696 C2705 1.390 1_556 S
C2697 C2696 1.387 . S
C2697 C2699 1.387 . S
H2698 C2705 0.950 . S
C2699 C2697 1.387 . S
C2699 C2701 1.390 1_556 S
C2699 H2703 0.950 . S
H2700 C2696 0.950 . S
C2701 C2699 1.390 1_554 S
C2701 C2702 1.387 . S
C2701 H2704 0.950 . S
C2702 C2701 1.387 . S
C2702 C2705 1.387 . S
H2703 C2699 0.950 . S
H2704 C2701 0.950 . S
C2705 C2696 1.390 1_554 S
C2705 H2698 0.950 . S
C2705 C2702 1.387 . S
C2706 C2707 1.387 . S
C2706 H2710 0.950 . S
C2706 C2715 1.390 1_556 S
C2707 C2706 1.387 . S
C2707 C2709 1.387 . S
H2708 C2715 0.950 . S
C2709 C2707 1.387 . S
C2709 C2711 1.390 1_556 S
C2709 H2713 0.950 . S
H2710 C2706 0.950 . S
C2711 C2709 1.390 1_554 S
C2711 C2712 1.387 . S
C2711 H2714 0.950 . S
C2712 C2711 1.387 . S
C2712 C2715 1.387 . S
H2713 C2709 0.950 . S
H2714 C2711 0.950 . S
C2715 C2706 1.390 1_554 S
C2715 H2708 0.950 . S
C2715 C2712 1.387 . S
C2716 C2717 1.387 . S
C2716 H2720 0.950 . S
C2716 C2725 1.390 . S
C2717 C2716 1.387 . S
C2717 C2719 1.387 . S
H2718 C2725 0.950 . S
C2719 C2717 1.387 . S
C2719 C2721 1.390 . S
C2719 H2723 0.950 . S
H2720 C2716 0.950 . S
C2721 C2719 1.390 . S
C2721 C2722 1.387 . S
C2721 H2724 0.950 . S
C2722 C2721 1.387 . S
C2722 C2725 1.387 . S
H2723 C2719 0.950 . S
H2724 C2721 0.950 . S
C2725 C2716 1.390 . S
C2725 H2718 0.950 . S
C2725 C2722 1.387 . S
C2726 C2727 1.387 . S
C2726 H2730 0.950 . S
C2726 C2735 1.390 . S
C2727 C2726 1.387 . S
C2727 C2729 1.387 . S
H2728 C2735 0.950 . S
C2729 C2727 1.387 . S
C2729 C2731 1.390 . S
C2729 H2733 0.950 . S
H2730 C2726 0.950 . S
C2731 C2729 1.390 . S
C2731 C2732 1.387 . S
C2731 H2734 0.950 . S
C2732 C2731 1.387 . S
C2732 C2735 1.387 . S
H2733 C2729 0.950 . S
H2734 C2731 0.950 . S
C2735 C2726 1.390 . S
C2735 H2728 0.950 . S
C2735 C2732 1.387 . S
C2736 C2737 1.387 . S
C2736 H2740 0.950 . S
C2736 C2745 1.390 1_545 S
C2737 C2736 1.387 . S
C2737 C2739 1.387 . S
H2738 C2745 0.950 . S
C2739 C2737 1.387 . S
C2739 C2741 1.390 1_545 S
C2739 H2743 0.950 . S
H2740 C2736 0.950 . S
C2741 C2739 1.390 1_565 S
C2741 C2742 1.387 . S
C2741 H2744 0.950 . S
C2742 C2741 1.387 . S
C2742 C2745 1.387 . S
H2743 C2739 0.950 . S
H2744 C2741 0.950 . S
C2745 C2736 1.390 1_565 S
C2745 H2738 0.950 . S
C2745 C2742 1.387 . S
C2746 C2747 1.387 . S
C2746 H2750 0.950 . S
C2746 C2755 1.390 . S
C2747 C2746 1.387 . S
C2747 C2749 1.387 . S
H2748 C2755 0.950 . S
C2749 C2747 1.387 . S
C2749 C2751 1.390 . S
C2749 H2753 0.950 . S
H2750 C2746 0.950 . S
C2751 C2749 1.390 . S
C2751 C2752 1.387 . S
C2751 H2754 0.950 . S
C2752 C2751 1.387 . S
C2752 C2755 1.387 . S
H2753 C2749 0.950 . S
H2754 C2751 0.950 . S
C2755 C2746 1.390 . S
C2755 H2748 0.950 . S
C2755 C2752 1.387 . S
C2756 C2757 1.387 . S
C2756 H2760 0.950 . S
C2756 C2765 1.390 . S
C2757 C2756 1.387 . S
C2757 C2759 1.387 . S
H2758 C2765 0.950 . S
C2759 C2757 1.387 . S
C2759 C2761 1.390 . S
C2759 H2763 0.950 . S
H2760 C2756 0.950 . S
C2761 C2759 1.390 . S
C2761 C2762 1.387 . S
C2761 H2764 0.950 . S
C2762 C2761 1.387 . S
C2762 C2765 1.387 . S
H2763 C2759 0.950 . S
H2764 C2761 0.950 . S
C2765 C2756 1.390 . S
C2765 H2758 0.950 . S
C2765 C2762 1.387 . S
C2766 C2767 1.387 . S
C2766 H2770 0.950 . S
C2766 C2775 1.390 1_455 S
C2767 C2766 1.387 . S
C2767 C2769 1.387 . S
H2768 C2775 0.950 . S
C2769 C2767 1.387 . S
C2769 C2771 1.390 1_455 S
C2769 H2773 0.950 . S
H2770 C2766 0.950 . S
C2771 C2769 1.390 1_655 S
C2771 C2772 1.387 . S
C2771 H2774 0.950 . S
C2772 C2771 1.387 . S
C2772 C2775 1.387 . S
H2773 C2769 0.950 . S
H2774 C2771 0.950 . S
C2775 C2766 1.390 1_655 S
C2775 H2768 0.950 . S
C2775 C2772 1.387 . S
C2776 C2777 1.387 . S
C2776 H2780 0.950 . S
C2776 C2785 1.390 1_545 S
C2777 C2776 1.387 . S
C2777 C2779 1.387 . S
H2778 C2785 0.950 . S
C2779 C2777 1.387 . S
C2779 C2781 1.390 1_545 S
C2779 H2783 0.950 . S
H2780 C2776 0.950 . S
C2781 C2779 1.390 1_565 S
C2781 C2782 1.387 . S
C2781 H2784 0.950 . S
C2782 C2781 1.387 . S
C2782 C2785 1.387 . S
H2783 C2779 0.950 . S
H2784 C2781 0.950 . S
C2785 C2776 1.390 1_565 S
C2785 H2778 0.950 . S
C2785 C2782 1.387 . S
C2786 C2787 1.387 . S
C2786 H2790 0.950 . S
C2786 C2795 1.390 . S
C2787 C2786 1.387 . S
C2787 C2789 1.387 . S
H2788 C2795 0.950 . S
C2789 C2787 1.387 . S
C2789 C2791 1.390 . S
C2789 H2793 0.950 . S
H2790 C2786 0.950 . S
C2791 C2789 1.390 . S
C2791 C2792 1.387 . S
C2791 H2794 0.950 . S
C2792 C2791 1.387 . S
C2792 C2795 1.387 . S
H2793 C2789 0.950 . S
H2794 C2791 0.950 . S
C2795 C2786 1.390 . S
C2795 H2788 0.950 . S
C2795 C2792 1.387 . S
C2796 C2797 1.387 . S
C2796 H2800 0.950 . S
C2796 C2805 1.390 . S
C2797 C2796 1.387 . S
C2797 C2799 1.387 . S
H2798 C2805 0.950 . S
C2799 C2797 1.387 . S
C2799 C2801 1.390 . S
C2799 H2803 0.950 . S
H2800 C2796 0.950 . S
C2801 C2799 1.390 . S
C2801 C2802 1.387 . S
C2801 H2804 0.950 . S
C2802 C2801 1.387 . S
C2802 C2805 1.387 . S
H2803 C2799 0.950 . S
H2804 C2801 0.950 . S
C2805 C2796 1.390 . S
C2805 H2798 0.950 . S
C2805 C2802 1.387 . S
C2806 C2807 1.387 . S
C2806 H2810 0.950 . S
C2806 C2815 1.390 1_655 S
C2807 C2806 1.387 . S
C2807 C2809 1.387 . S
H2808 C2815 0.950 . S
C2809 C2807 1.387 . S
C2809 C2811 1.390 1_655 S
C2809 H2813 0.950 . S
H2810 C2806 0.950 . S
C2811 C2809 1.390 1_455 S
C2811 C2812 1.387 . S
C2811 H2814 0.950 . S
C2812 C2811 1.387 . S
C2812 C2815 1.387 . S
H2813 C2809 0.950 . S
H2814 C2811 0.950 . S
C2815 C2806 1.390 1_455 S
C2815 H2808 0.950 . S
C2815 C2812 1.387 . S
C2816 C2817 1.387 . S
C2816 H2820 0.950 . S
C2816 C2825 1.390 . S
C2817 C2816 1.387 . S
C2817 C2819 1.387 . S
H2818 C2825 0.950 . S
C2819 C2817 1.387 . S
C2819 C2821 1.390 . S
C2819 H2823 0.950 . S
H2820 C2816 0.950 . S
C2821 C2819 1.390 . S
C2821 C2822 1.387 . S
C2821 H2824 0.950 . S
C2822 C2821 1.387 . S
C2822 C2825 1.387 . S
H2823 C2819 0.950 . S
H2824 C2821 0.950 . S
C2825 C2816 1.390 . S
C2825 H2818 0.950 . S
C2825 C2822 1.387 . S
C2826 C2827 1.387 . S
C2826 H2830 0.950 . S
C2826 C2835 1.390 . S
C2827 C2826 1.387 . S
C2827 C2829 1.387 . S
H2828 C2835 0.950 . S
C2829 C2827 1.387 . S
C2829 C2831 1.390 . S
C2829 H2833 0.950 . S
H2830 C2826 0.950 . S
C2831 C2829 1.390 . S
C2831 C2832 1.387 . S
C2831 H2834 0.950 . S
C2832 C2831 1.387 . S
C2832 C2835 1.387 . S
H2833 C2829 0.950 . S
H2834 C2831 0.950 . S
C2835 C2826 1.390 . S
C2835 H2828 0.950 . S
C2835 C2832 1.387 . S
C2836 C2837 1.387 . S
C2836 H2840 0.950 . S
C2836 C2845 1.390 . S
C2837 C2836 1.387 . S
C2837 C2839 1.387 . S
H2838 C2845 0.950 . S
C2839 C2837 1.387 . S
C2839 C2841 1.390 . S
C2839 H2843 0.950 . S
H2840 C2836 0.950 . S
C2841 C2839 1.390 . S
C2841 C2842 1.387 . S
C2841 H2844 0.950 . S
C2842 C2841 1.387 . S
C2842 C2845 1.387 . S
H2843 C2839 0.950 . S
H2844 C2841 0.950 . S
C2845 C2836 1.390 . S
C2845 H2838 0.950 . S
C2845 C2842 1.387 . S
C2846 C2847 1.387 . S
C2846 H2850 0.950 . S
C2846 C2855 1.390 1_554 S
C2847 C2846 1.387 . S
C2847 C2849 1.387 . S
H2848 C2855 0.950 . S
C2849 C2847 1.387 . S
C2849 C2851 1.390 1_554 S
C2849 H2853 0.950 . S
H2850 C2846 0.950 . S
C2851 C2849 1.390 1_556 S
C2851 C2852 1.387 . S
C2851 H2854 0.950 . S
C2852 C2851 1.387 . S
C2852 C2855 1.387 . S
H2853 C2849 0.950 . S
H2854 C2851 0.950 . S
C2855 C2846 1.390 1_556 S
C2855 H2848 0.950 . S
C2855 C2852 1.387 . S
C2856 C2857 1.387 . S
C2856 H2860 0.950 . S
C2856 C2865 1.390 . S
C2857 C2856 1.387 . S
C2857 C2859 1.387 . S
H2858 C2865 0.950 . S
C2859 C2857 1.387 . S
C2859 C2861 1.390 . S
C2859 H2863 0.950 . S
H2860 C2856 0.950 . S
C2861 C2859 1.390 . S
C2861 C2862 1.387 . S
C2861 H2864 0.950 . S
C2862 C2861 1.387 . S
C2862 C2865 1.387 . S
H2863 C2859 0.950 . S
H2864 C2861 0.950 . S
C2865 C2856 1.390 . S
C2865 H2858 0.950 . S
C2865 C2862 1.387 . S
C2866 C2867 1.387 . S
C2866 H2870 0.950 . S
C2866 C2875 1.390 . S
C2867 C2866 1.387 . S
C2867 C2869 1.387 . S
H2868 C2875 0.950 . S
C2869 C2867 1.387 . S
C2869 C2871 1.390 . S
C2869 H2873 0.950 . S
H2870 C2866 0.950 . S
C2871 C2869 1.390 . S
C2871 C2872 1.387 . S
C2871 H2874 0.950 . S
C2872 C2871 1.387 . S
C2872 C2875 1.387 . S
H2873 C2869 0.950 . S
H2874 C2871 0.950 . S
C2875 C2866 1.390 . S
C2875 H2868 0.950 . S
C2875 C2872 1.387 . S
C2876 C2877 1.387 . S
C2876 H2880 0.950 . S
C2876 C2885 1.390 1_455 S
C2877 C2876 1.387 . S
C2877 C2879 1.387 . S
H2878 C2885 0.950 . S
C2879 C2877 1.387 . S
C2879 C2881 1.390 1_455 S
C2879 H2883 0.950 . S
H2880 C2876 0.950 . S
C2881 C2879 1.390 1_655 S
C2881 C2882 1.387 . S
C2881 H2884 0.950 . S
C2882 C2881 1.387 . S
C2882 C2885 1.387 . S
H2883 C2879 0.950 . S
H2884 C2881 0.950 . S
C2885 C2876 1.390 1_655 S
C2885 H2878 0.950 . S
C2885 C2882 1.387 . S
C2886 C2887 1.387 . S
C2886 H2890 0.950 . S
C2886 C2895 1.390 . S
C2887 C2886 1.387 . S
C2887 C2889 1.387 . S
H2888 C2895 0.950 . S
C2889 C2887 1.387 . S
C2889 C2891 1.390 . S
C2889 H2893 0.950 . S
H2890 C2886 0.950 . S
C2891 C2889 1.390 . S
C2891 C2892 1.387 . S
C2891 H2894 0.950 . S
C2892 C2891 1.387 . S
C2892 C2895 1.387 . S
H2893 C2889 0.950 . S
H2894 C2891 0.950 . S
C2895 C2886 1.390 . S
C2895 H2888 0.950 . S
C2895 C2892 1.387 . S
C2896 C2897 1.387 . S
C2896 H2900 0.950 . S
C2896 C2905 1.390 . S
C2897 C2896 1.387 . S
C2897 C2899 1.387 . S
H2898 C2905 0.950 . S
C2899 C2897 1.387 . S
C2899 C2901 1.390 . S
C2899 H2903 0.950 . S
H2900 C2896 0.950 . S
C2901 C2899 1.390 . S
C2901 C2902 1.387 . S
C2901 H2904 0.950 . S
C2902 C2901 1.387 . S
C2902 C2905 1.387 . S
H2903 C2899 0.950 . S
H2904 C2901 0.950 . S
C2905 C2896 1.390 . S
C2905 H2898 0.950 . S
C2905 C2902 1.387 . S
C2906 C2907 1.387 . S
C2906 H2910 0.950 . S
C2906 C2915 1.390 1_545 S
C2907 C2906 1.387 . S
C2907 C2909 1.387 . S
H2908 C2915 0.950 . S
C2909 C2907 1.387 . S
C2909 C2911 1.390 1_545 S
C2909 H2913 0.950 . S
H2910 C2906 0.950 . S
C2911 C2909 1.390 1_565 S
C2911 C2912 1.387 . S
C2911 H2914 0.950 . S
C2912 C2911 1.387 . S
C2912 C2915 1.387 . S
H2913 C2909 0.950 . S
H2914 C2911 0.950 . S
C2915 C2906 1.390 1_565 S
C2915 H2908 0.950 . S
C2915 C2912 1.387 . S
C2916 C2917 1.387 . S
C2916 H2920 0.950 . S
C2916 C2925 1.390 1_455 S
C2917 C2916 1.387 . S
C2917 C2919 1.387 . S
H2918 C2925 0.950 . S
C2919 C2917 1.387 . S
C2919 C2921 1.390 1_455 S
C2919 H2923 0.950 . S
H2920 C2916 0.950 . S
C2921 C2919 1.390 1_655 S
C2921 C2922 1.387 . S
C2921 H2924 0.950 . S
C2922 C2921 1.387 . S
C2922 C2925 1.387 . S
H2923 C2919 0.950 . S
H2924 C2921 0.950 . S
C2925 C2916 1.390 1_655 S
C2925 H2918 0.950 . S
C2925 C2922 1.387 . S
C2926 C2927 1.387 . S
C2926 H2930 0.950 . S
C2926 C2935 1.390 . S
C2927 C2926 1.387 . S
C2927 C2929 1.387 . S
H2928 C2935 0.950 . S
C2929 C2927 1.387 . S
C2929 C2931 1.390 . S
C2929 H2933 0.950 . S
H2930 C2926 0.950 . S
C2931 C2929 1.390 . S
C2931 C2932 1.387 . S
C2931 H2934 0.950 . S
C2932 C2931 1.387 . S
C2932 C2935 1.387 . S
H2933 C2929 0.950 . S
H2934 C2931 0.950 . S
C2935 C2926 1.390 . S
C2935 H2928 0.950 . S
C2935 C2932 1.387 . S
C2936 C2937 1.387 . S
C2936 H2940 0.950 . S
C2936 C2945 1.390 . S
C2937 C2936 1.387 . S
C2937 C2939 1.387 . S
H2938 C2945 0.950 . S
C2939 C2937 1.387 . S
C2939 C2941 1.390 . S
C2939 H2943 0.950 . S
H2940 C2936 0.950 . S
C2941 C2939 1.390 . S
C2941 C2942 1.387 . S
C2941 H2944 0.950 . S
C2942 C2941 1.387 . S
C2942 C2945 1.387 . S
H2943 C2939 0.950 . S
H2944 C2941 0.950 . S
C2945 C2936 1.390 . S
C2945 H2938 0.950 . S
C2945 C2942 1.387 . S
C2946 C2947 1.387 . S
C2946 H2950 0.950 . S
C2946 C2955 1.390 1_545 S
C2947 C2946 1.387 . S
C2947 C2949 1.387 . S
H2948 C2955 0.950 . S
C2949 C2947 1.387 . S
C2949 C2951 1.390 1_545 S
C2949 H2953 0.950 . S
H2950 C2946 0.950 . S
C2951 C2949 1.390 1_565 S
C2951 C2952 1.387 . S
C2951 H2954 0.950 . S
C2952 C2951 1.387 . S
C2952 C2955 1.387 . S
H2953 C2949 0.950 . S
H2954 C2951 0.950 . S
C2955 C2946 1.390 1_565 S
C2955 H2948 0.950 . S
C2955 C2952 1.387 . S
C2956 C2957 1.387 . S
C2956 H2960 0.950 . S
C2956 C2965 1.390 . S
C2957 C2956 1.387 . S
C2957 C2959 1.387 . S
H2958 C2965 0.950 . S
C2959 C2957 1.387 . S
C2959 C2961 1.390 . S
C2959 H2963 0.950 . S
H2960 C2956 0.950 . S
C2961 C2959 1.390 . S
C2961 C2962 1.387 . S
C2961 H2964 0.950 . S
C2962 C2961 1.387 . S
C2962 C2965 1.387 . S
H2963 C2959 0.950 . S
H2964 C2961 0.950 . S
C2965 C2956 1.390 . S
C2965 H2958 0.950 . S
C2965 C2962 1.387 . S
C2966 C2967 1.387 . S
C2966 H2970 0.950 . S
C2966 C2975 1.390 . S
C2967 C2966 1.387 . S
C2967 C2969 1.387 . S
H2968 C2975 0.950 . S
C2969 C2967 1.387 . S
C2969 C2971 1.390 . S
C2969 H2973 0.950 . S
H2970 C2966 0.950 . S
C2971 C2969 1.390 . S
C2971 C2972 1.387 . S
C2971 H2974 0.950 . S
C2972 C2971 1.387 . S
C2972 C2975 1.387 . S
H2973 C2969 0.950 . S
H2974 C2971 0.950 . S
C2975 C2966 1.390 . S
C2975 H2968 0.950 . S
C2975 C2972 1.387 . S
C2976 C2977 1.387 . S
C2976 H2980 0.950 . S
C2976 C2985 1.390 1_565 S
C2977 C2976 1.387 . S
C2977 C2979 1.387 . S
H2978 C2985 0.950 . S
C2979 C2977 1.387 . S
C2979 C2981 1.390 1_565 S
C2979 H2983 0.950 . S
H2980 C2976 0.950 . S
C2981 C2979 1.390 1_545 S
C2981 C2982 1.387 . S
C2981 H2984 0.950 . S
C2982 C2981 1.387 . S
C2982 C2985 1.387 . S
H2983 C2979 0.950 . S
H2984 C2981 0.950 . S
C2985 C2976 1.390 1_545 S
C2985 H2978 0.950 . S
C2985 C2982 1.387 . S
C2986 C2987 1.387 . S
C2986 H2990 0.950 . S
C2986 C2995 1.390 1_655 S
C2987 C2986 1.387 . S
C2987 C2989 1.387 . S
H2988 C2995 0.950 . S
C2989 C2987 1.387 . S
C2989 C2991 1.390 1_655 S
C2989 H2993 0.950 . S
H2990 C2986 0.950 . S
C2991 C2989 1.390 1_455 S
C2991 C2992 1.387 . S
C2991 H2994 0.950 . S
C2992 C2991 1.387 . S
C2992 C2995 1.387 . S
H2993 C2989 0.950 . S
H2994 C2991 0.950 . S
C2995 C2986 1.390 1_455 S
C2995 H2988 0.950 . S
C2995 C2992 1.387 . S
C2996 C2997 1.387 . S
C2996 H3000 0.950 . S
C2996 C3005 1.390 . S
C2997 C2996 1.387 . S
C2997 C2999 1.387 . S
H2998 C3005 0.950 . S
C2999 C2997 1.387 . S
C2999 C3001 1.390 . S
C2999 H3003 0.950 . S
H3000 C2996 0.950 . S
C3001 C2999 1.390 . S
C3001 C3002 1.387 . S
C3001 H3004 0.950 . S
C3002 C3001 1.387 . S
C3002 C3005 1.387 . S
H3003 C2999 0.950 . S
H3004 C3001 0.950 . S
C3005 C2996 1.390 . S
C3005 H2998 0.950 . S
C3005 C3002 1.387 . S
C3006 C3007 1.387 . S
C3006 H3010 0.950 . S
C3006 C3015 1.390 . S
C3007 C3006 1.387 . S
C3007 C3009 1.387 . S
H3008 C3015 0.950 . S
C3009 C3007 1.387 . S
C3009 C3011 1.390 . S
C3009 H3013 0.950 . S
H3010 C3006 0.950 . S
C3011 C3009 1.390 . S
C3011 C3012 1.387 . S
C3011 H3014 0.950 . S
C3012 C3011 1.387 . S
C3012 C3015 1.387 . S
H3013 C3009 0.950 . S
H3014 C3011 0.950 . S
C3015 C3006 1.390 . S
C3015 H3008 0.950 . S
C3015 C3012 1.387 . S
C3016 C3017 1.387 . S
C3016 H3020 0.950 . S
C3016 C3025 1.390 1_565 S
C3017 C3016 1.387 . S
C3017 C3019 1.387 . S
H3018 C3025 0.950 . S
C3019 C3017 1.387 . S
C3019 C3021 1.390 1_565 S
C3019 H3023 0.950 . S
H3020 C3016 0.950 . S
C3021 C3019 1.390 1_545 S
C3021 C3022 1.387 . S
C3021 H3024 0.950 . S
C3022 C3021 1.387 . S
C3022 C3025 1.387 . S
H3023 C3019 0.950 . S
H3024 C3021 0.950 . S
C3025 C3016 1.390 1_545 S
C3025 H3018 0.950 . S
C3025 C3022 1.387 . S
C3026 C3027 1.387 . S
C3026 H3030 0.950 . S
C3026 C3035 1.390 1_655 S
C3027 C3026 1.387 . S
C3027 C3029 1.387 . S
H3028 C3035 0.950 . S
C3029 C3027 1.387 . S
C3029 C3031 1.390 1_655 S
C3029 H3033 0.950 . S
H3030 C3026 0.950 . S
C3031 C3029 1.390 1_455 S
C3031 C3032 1.387 . S
C3031 H3034 0.950 . S
C3032 C3031 1.387 . S
C3032 C3035 1.387 . S
H3033 C3029 0.950 . S
H3034 C3031 0.950 . S
C3035 C3026 1.390 1_455 S
C3035 H3028 0.950 . S
C3035 C3032 1.387 . S
C3036 C3037 1.387 . S
C3036 H3040 0.950 . S
C3036 C3045 1.390 . S
C3037 C3036 1.387 . S
C3037 C3039 1.387 . S
H3038 C3045 0.950 . S
C3039 C3037 1.387 . S
C3039 C3041 1.390 . S
C3039 H3043 0.950 . S
H3040 C3036 0.950 . S
C3041 C3039 1.390 . S
C3041 C3042 1.387 . S
C3041 H3044 0.950 . S
C3042 C3041 1.387 . S
C3042 C3045 1.387 . S
H3043 C3039 0.950 . S
H3044 C3041 0.950 . S
C3045 C3036 1.390 . S
C3045 H3038 0.950 . S
C3045 C3042 1.387 . S
C3046 C3047 1.387 . S
C3046 H3050 0.950 . S
C3046 C3055 1.390 1_554 S
C3047 C3046 1.387 . S
C3047 C3049 1.387 . S
H3048 C3055 0.950 . S
C3049 C3047 1.387 . S
C3049 C3051 1.390 1_554 S
C3049 H3053 0.950 . S
H3050 C3046 0.950 . S
C3051 C3049 1.390 1_556 S
C3051 C3052 1.387 . S
C3051 H3054 0.950 . S
C3052 C3051 1.387 . S
C3052 C3055 1.387 . S
H3053 C3049 0.950 . S
H3054 C3051 0.950 . S
C3055 C3046 1.390 1_556 S
C3055 H3048 0.950 . S
C3055 C3052 1.387 . S
C3056 C3057 1.387 . S
C3056 H3060 0.950 . S
C3056 C3065 1.390 1_556 S
C3057 C3056 1.387 . S
C3057 C3059 1.387 . S
H3058 C3065 0.950 . S
C3059 C3057 1.387 . S
C3059 C3061 1.390 1_556 S
C3059 H3063 0.950 . S
H3060 C3056 0.950 . S
C3061 C3059 1.390 1_554 S
C3061 C3062 1.387 . S
C3061 H3064 0.950 . S
C3062 C3061 1.387 . S
C3062 C3065 1.387 . S
H3063 C3059 0.950 . S
H3064 C3061 0.950 . S
C3065 C3056 1.390 1_554 S
C3065 H3058 0.950 . S
C3065 C3062 1.387 . S
C3066 C3067 1.387 . S
C3066 H3070 0.950 . S
C3066 C3075 1.390 1_554 S
C3067 C3066 1.387 . S
C3067 C3069 1.387 . S
H3068 C3075 0.950 . S
C3069 C3067 1.387 . S
C3069 C3071 1.390 1_554 S
C3069 H3073 0.950 . S
H3070 C3066 0.950 . S
C3071 C3069 1.390 1_556 S
C3071 C3072 1.387 . S
C3071 H3074 0.950 . S
C3072 C3071 1.387 . S
C3072 C3075 1.387 . S
H3073 C3069 0.950 . S
H3074 C3071 0.950 . S
C3075 C3066 1.390 1_556 S
C3075 H3068 0.950 . S
C3075 C3072 1.387 . S
C3076 C3077 1.387 . S
C3076 H3080 0.950 . S
C3076 C3085 1.390 . S
C3077 C3076 1.387 . S
C3077 C3079 1.387 . S
H3078 C3085 0.950 . S
C3079 C3077 1.387 . S
C3079 C3081 1.390 . S
C3079 H3083 0.950 . S
H3080 C3076 0.950 . S
C3081 C3079 1.390 . S
C3081 C3082 1.387 . S
C3081 H3084 0.950 . S
C3082 C3081 1.387 . S
C3082 C3085 1.387 . S
H3083 C3079 0.950 . S
H3084 C3081 0.950 . S
C3085 C3076 1.390 . S
C3085 H3078 0.950 . S
C3085 C3082 1.387 . S
C3086 C3087 1.387 . S
C3086 H3090 0.950 . S
C3086 C3095 1.390 . S
C3087 C3086 1.387 . S
C3087 C3089 1.387 . S
H3088 C3095 0.950 . S
C3089 C3087 1.387 . S
C3089 C3091 1.390 . S
C3089 H3093 0.950 . S
H3090 C3086 0.950 . S
C3091 C3089 1.390 . S
C3091 C3092 1.387 . S
C3091 H3094 0.950 . S
C3092 C3091 1.387 . S
C3092 C3095 1.387 . S
H3093 C3089 0.950 . S
H3094 C3091 0.950 . S
C3095 C3086 1.390 . S
C3095 H3088 0.950 . S
C3095 C3092 1.387 . S
C3096 C3097 1.387 . S
C3096 H3100 0.950 . S
C3096 C3105 1.390 1_556 S
C3097 C3096 1.387 . S
C3097 C3099 1.387 . S
H3098 C3105 0.950 . S
C3099 C3097 1.387 . S
C3099 C3101 1.390 1_556 S
C3099 H3103 0.950 . S
H3100 C3096 0.950 . S
C3101 C3099 1.390 1_554 S
C3101 C3102 1.387 . S
C3101 H3104 0.950 . S
C3102 C3101 1.387 . S
C3102 C3105 1.387 . S
H3103 C3099 0.950 . S
H3104 C3101 0.950 . S
C3105 C3096 1.390 1_554 S
C3105 H3098 0.950 . S
C3105 C3102 1.387 . S
C3106 C3107 1.387 . S
C3106 H3110 0.950 . S
C3106 C3115 1.390 1_556 S
C3107 C3106 1.387 . S
C3107 C3109 1.387 . S
H3108 C3115 0.950 . S
C3109 C3107 1.387 . S
C3109 C3111 1.390 1_556 S
C3109 H3113 0.950 . S
H3110 C3106 0.950 . S
C3111 C3109 1.390 1_554 S
C3111 C3112 1.387 . S
C3111 H3114 0.950 . S
C3112 C3111 1.387 . S
C3112 C3115 1.387 . S
H3113 C3109 0.950 . S
H3114 C3111 0.950 . S
C3115 C3106 1.390 1_554 S
C3115 H3108 0.950 . S
C3115 C3112 1.387 . S
C3116 C3117 1.387 . S
C3116 H3120 0.950 . S
C3116 C3125 1.390 . S
C3117 C3116 1.387 . S
C3117 C3119 1.387 . S
H3118 C3125 0.950 . S
C3119 C3117 1.387 . S
C3119 C3121 1.390 . S
C3119 H3123 0.950 . S
H3120 C3116 0.950 . S
C3121 C3119 1.390 . S
C3121 C3122 1.387 . S
C3121 H3124 0.950 . S
C3122 C3121 1.387 . S
C3122 C3125 1.387 . S
H3123 C3119 0.950 . S
H3124 C3121 0.950 . S
C3125 C3116 1.390 . S
C3125 H3118 0.950 . S
C3125 C3122 1.387 . S
C3126 C3127 1.387 . S
C3126 H3130 0.950 . S
C3126 C3135 1.390 . S
C3127 C3126 1.387 . S
C3127 C3129 1.387 . S
H3128 C3135 0.950 . S
C3129 C3127 1.387 . S
C3129 C3131 1.390 . S
C3129 H3133 0.950 . S
H3130 C3126 0.950 . S
C3131 C3129 1.390 . S
C3131 C3132 1.387 . S
C3131 H3134 0.950 . S
C3132 C3131 1.387 . S
C3132 C3135 1.387 . S
H3133 C3129 0.950 . S
H3134 C3131 0.950 . S
C3135 C3126 1.390 . S
C3135 H3128 0.950 . S
C3135 C3132 1.387 . S
C3136 C3137 1.387 . S
C3136 H3140 0.950 . S
C3136 C3145 1.390 1_565 S
C3137 C3136 1.387 . S
C3137 C3139 1.387 . S
H3138 C3145 0.950 . S
C3139 C3137 1.387 . S
C3139 C3141 1.390 1_565 S
C3139 H3143 0.950 . S
H3140 C3136 0.950 . S
C3141 C3139 1.390 1_545 S
C3141 C3142 1.387 . S
C3141 H3144 0.950 . S
C3142 C3141 1.387 . S
C3142 C3145 1.387 . S
H3143 C3139 0.950 . S
H3144 C3141 0.950 . S
C3145 C3136 1.390 1_545 S
C3145 H3138 0.950 . S
C3145 C3142 1.387 . S
C3146 C3147 1.387 . S
C3146 H3150 0.950 . S
C3146 C3155 1.390 1_455 S
C3147 C3146 1.387 . S
C3147 C3149 1.387 . S
H3148 C3155 0.950 . S
C3149 C3147 1.387 . S
C3149 C3151 1.390 1_455 S
C3149 H3153 0.950 . S
H3150 C3146 0.950 . S
C3151 C3149 1.390 1_655 S
C3151 C3152 1.387 . S
C3151 H3154 0.950 . S
C3152 C3151 1.387 . S
C3152 C3155 1.387 . S
H3153 C3149 0.950 . S
H3154 C3151 0.950 . S
C3155 C3146 1.390 1_655 S
C3155 H3148 0.950 . S
C3155 C3152 1.387 . S
C3156 C3157 1.387 . S
C3156 H3160 0.950 . S
C3156 C3165 1.390 . S
C3157 C3156 1.387 . S
C3157 C3159 1.387 . S
H3158 C3165 0.950 . S
C3159 C3157 1.387 . S
C3159 C3161 1.390 . S
C3159 H3163 0.950 . S
H3160 C3156 0.950 . S
C3161 C3159 1.390 . S
C3161 C3162 1.387 . S
C3161 H3164 0.950 . S
C3162 C3161 1.387 . S
C3162 C3165 1.387 . S
H3163 C3159 0.950 . S
H3164 C3161 0.950 . S
C3165 C3156 1.390 . S
C3165 H3158 0.950 . S
C3165 C3162 1.387 . S
C3166 C3167 1.387 . S
C3166 H3170 0.950 . S
C3166 C3175 1.390 . S
C3167 C3166 1.387 . S
C3167 C3169 1.387 . S
H3168 C3175 0.950 . S
C3169 C3167 1.387 . S
C3169 C3171 1.390 . S
C3169 H3173 0.950 . S
H3170 C3166 0.950 . S
C3171 C3169 1.390 . S
C3171 C3172 1.387 . S
C3171 H3174 0.950 . S
C3172 C3171 1.387 . S
C3172 C3175 1.387 . S
H3173 C3169 0.950 . S
H3174 C3171 0.950 . S
C3175 C3166 1.390 . S
C3175 H3168 0.950 . S
C3175 C3172 1.387 . S
C3176 C3177 1.387 . S
C3176 H3180 0.950 . S
C3176 C3185 1.390 1_545 S
C3177 C3176 1.387 . S
C3177 C3179 1.387 . S
H3178 C3185 0.950 . S
C3179 C3177 1.387 . S
C3179 C3181 1.390 1_545 S
C3179 H3183 0.950 . S
H3180 C3176 0.950 . S
C3181 C3179 1.390 1_565 S
C3181 C3182 1.387 . S
C3181 H3184 0.950 . S
C3182 C3181 1.387 . S
C3182 C3185 1.387 . S
H3183 C3179 0.950 . S
H3184 C3181 0.950 . S
C3185 C3176 1.390 1_565 S
C3185 H3178 0.950 . S
C3185 C3182 1.387 . S
C3186 C3187 1.387 . S
C3186 H3190 0.950 . S
C3186 C3195 1.390 1_655 S
C3187 C3186 1.387 . S
C3187 C3189 1.387 . S
H3188 C3195 0.950 . S
C3189 C3187 1.387 . S
C3189 C3191 1.390 1_655 S
C3189 H3193 0.950 . S
H3190 C3186 0.950 . S
C3191 C3189 1.390 1_455 S
C3191 C3192 1.387 . S
C3191 H3194 0.950 . S
C3192 C3191 1.387 . S
C3192 C3195 1.387 . S
H3193 C3189 0.950 . S
H3194 C3191 0.950 . S
C3195 C3186 1.390 1_455 S
C3195 H3188 0.950 . S
C3195 C3192 1.387 . S
C3196 C3197 1.387 . S
C3196 H3200 0.950 . S
C3196 C3205 1.390 1_556 S
C3197 C3196 1.387 . S
C3197 C3199 1.387 . S
H3198 C3205 0.950 . S
C3199 C3197 1.387 . S
C3199 C3201 1.390 1_556 S
C3199 H3203 0.950 . S
H3200 C3196 0.950 . S
C3201 C3199 1.390 1_554 S
C3201 C3202 1.387 . S
C3201 H3204 0.950 . S
C3202 C3201 1.387 . S
C3202 C3205 1.387 . S
H3203 C3199 0.950 . S
H3204 C3201 0.950 . S
C3205 C3196 1.390 1_554 S
C3205 H3198 0.950 . S
C3205 C3202 1.387 . S
C3206 C3207 1.387 . S
C3206 H3210 0.950 . S
C3206 C3215 1.390 1_554 S
C3207 C3206 1.387 . S
C3207 C3209 1.387 . S
H3208 C3215 0.950 . S
C3209 C3207 1.387 . S
C3209 C3211 1.390 1_554 S
C3209 H3213 0.950 . S
H3210 C3206 0.950 . S
C3211 C3209 1.390 1_556 S
C3211 C3212 1.387 . S
C3211 H3214 0.950 . S
C3212 C3211 1.387 . S
C3212 C3215 1.387 . S
H3213 C3209 0.950 . S
H3214 C3211 0.950 . S
C3215 C3206 1.390 1_556 S
C3215 H3208 0.950 . S
C3215 C3212 1.387 . S
C3216 C3217 1.387 . S
C3216 H3220 0.950 . S
C3216 C3225 1.390 1_554 S
C3217 C3216 1.387 . S
C3217 C3219 1.387 . S
H3218 C3225 0.950 . S
C3219 C3217 1.387 . S
C3219 C3221 1.390 1_554 S
C3219 H3223 0.950 . S
H3220 C3216 0.950 . S
C3221 C3219 1.390 1_556 S
C3221 C3222 1.387 . S
C3221 H3224 0.950 . S
C3222 C3221 1.387 . S
C3222 C3225 1.387 . S
H3223 C3219 0.950 . S
H3224 C3221 0.950 . S
C3225 C3216 1.390 1_556 S
C3225 H3218 0.950 . S
C3225 C3222 1.387 . S
C3226 C3227 1.387 . S
C3226 H3230 0.950 . S
C3226 C3235 1.390 . S
C3227 C3226 1.387 . S
C3227 C3229 1.387 . S
H3228 C3235 0.950 . S
C3229 C3227 1.387 . S
C3229 C3231 1.390 . S
C3229 H3233 0.950 . S
H3230 C3226 0.950 . S
C3231 C3229 1.390 . S
C3231 C3232 1.387 . S
C3231 H3234 0.950 . S
C3232 C3231 1.387 . S
C3232 C3235 1.387 . S
H3233 C3229 0.950 . S
H3234 C3231 0.950 . S
C3235 C3226 1.390 . S
C3235 H3228 0.950 . S
C3235 C3232 1.387 . S
C3236 C3237 1.387 . S
C3236 H3240 0.950 . S
C3236 C3245 1.390 1_554 S
C3237 C3236 1.387 . S
C3237 C3239 1.387 . S
H3238 C3245 0.950 . S
C3239 C3237 1.387 . S
C3239 C3241 1.390 1_554 S
C3239 H3243 0.950 . S
H3240 C3236 0.950 . S
C3241 C3239 1.390 1_556 S
C3241 C3242 1.387 . S
C3241 H3244 0.950 . S
C3242 C3241 1.387 . S
C3242 C3245 1.387 . S
H3243 C3239 0.950 . S
H3244 C3241 0.950 . S
C3245 C3236 1.390 1_556 S
C3245 H3238 0.950 . S
C3245 C3242 1.387 . S
C3246 C3247 1.387 . S
C3246 H3250 0.950 . S
C3246 C3255 1.390 1_556 S
C3247 C3246 1.387 . S
C3247 C3249 1.387 . S
H3248 C3255 0.950 . S
C3249 C3247 1.387 . S
C3249 C3251 1.390 1_556 S
C3249 H3253 0.950 . S
H3250 C3246 0.950 . S
C3251 C3249 1.390 1_554 S
C3251 C3252 1.387 . S
C3251 H3254 0.950 . S
C3252 C3251 1.387 . S
C3252 C3255 1.387 . S
H3253 C3249 0.950 . S
H3254 C3251 0.950 . S
C3255 C3246 1.390 1_554 S
C3255 H3248 0.950 . S
C3255 C3252 1.387 . S
C3256 C3257 1.387 . S
C3256 H3260 0.950 . S
C3256 C3265 1.390 . S
C3257 C3256 1.387 . S
C3257 C3259 1.387 . S
H3258 C3265 0.950 . S
C3259 C3257 1.387 . S
C3259 C3261 1.390 . S
C3259 H3263 0.950 . S
H3260 C3256 0.950 . S
C3261 C3259 1.390 . S
C3261 C3262 1.387 . S
C3261 H3264 0.950 . S
C3262 C3261 1.387 . S
C3262 C3265 1.387 . S
H3263 C3259 0.950 . S
H3264 C3261 0.950 . S
C3265 C3256 1.390 . S
C3265 H3258 0.950 . S
C3265 C3262 1.387 . S
C3266 C3267 1.387 . S
C3266 H3270 0.950 . S
C3266 C3275 1.390 1_565 S
C3267 C3266 1.387 . S
C3267 C3269 1.387 . S
H3268 C3275 0.950 . S
C3269 C3267 1.387 . S
C3269 C3271 1.390 1_565 S
C3269 H3273 0.950 . S
H3270 C3266 0.950 . S
C3271 C3269 1.390 1_545 S
C3271 C3272 1.387 . S
C3271 H3274 0.950 . S
C3272 C3271 1.387 . S
C3272 C3275 1.387 . S
H3273 C3269 0.950 . S
H3274 C3271 0.950 . S
C3275 C3266 1.390 1_545 S
C3275 H3268 0.950 . S
C3275 C3272 1.387 . S
C3276 C3277 1.387 . S
C3276 H3280 0.950 . S
C3276 C3285 1.390 1_455 S
C3277 C3276 1.387 . S
C3277 C3279 1.387 . S
H3278 C3285 0.950 . S
C3279 C3277 1.387 . S
C3279 C3281 1.390 1_455 S
C3279 H3283 0.950 . S
H3280 C3276 0.950 . S
C3281 C3279 1.390 1_655 S
C3281 C3282 1.387 . S
C3281 H3284 0.950 . S
C3282 C3281 1.387 . S
C3282 C3285 1.387 . S
H3283 C3279 0.950 . S
H3284 C3281 0.950 . S
C3285 C3276 1.390 1_655 S
C3285 H3278 0.950 . S
C3285 C3282 1.387 . S
C3286 C3287 1.387 . S
C3286 H3290 0.950 . S
C3286 C3295 1.390 . S
C3287 C3286 1.387 . S
C3287 C3289 1.387 . S
H3288 C3295 0.950 . S
C3289 C3287 1.387 . S
C3289 C3291 1.390 . S
C3289 H3293 0.950 . S
H3290 C3286 0.950 . S
C3291 C3289 1.390 . S
C3291 C3292 1.387 . S
C3291 H3294 0.950 . S
C3292 C3291 1.387 . S
C3292 C3295 1.387 . S
H3293 C3289 0.950 . S
H3294 C3291 0.950 . S
C3295 C3286 1.390 . S
C3295 H3288 0.950 . S
C3295 C3292 1.387 . S
C3296 C3297 1.387 . S
C3296 H3300 0.950 . S
C3296 C3305 1.390 . S
C3297 C3296 1.387 . S
C3297 C3299 1.387 . S
H3298 C3305 0.950 . S
C3299 C3297 1.387 . S
C3299 C3301 1.390 . S
C3299 H3303 0.950 . S
H3300 C3296 0.950 . S
C3301 C3299 1.390 . S
C3301 C3302 1.387 . S
C3301 H3304 0.950 . S
C3302 C3301 1.387 . S
C3302 C3305 1.387 . S
H3303 C3299 0.950 . S
H3304 C3301 0.950 . S
C3305 C3296 1.390 . S
C3305 H3298 0.950 . S
C3305 C3302 1.387 . S
C3306 C3307 1.387 . S
C3306 H3310 0.950 . S
C3306 C3315 1.390 1_565 S
C3307 C3306 1.387 . S
C3307 C3309 1.387 . S
H3308 C3315 0.950 . S
C3309 C3307 1.387 . S
C3309 C3311 1.390 1_565 S
C3309 H3313 0.950 . S
H3310 C3306 0.950 . S
C3311 C3309 1.390 1_545 S
C3311 C3312 1.387 . S
C3311 H3314 0.950 . S
C3312 C3311 1.387 . S
C3312 C3315 1.387 . S
H3313 C3309 0.950 . S
H3314 C3311 0.950 . S
C3315 C3306 1.390 1_545 S
C3315 H3308 0.950 . S
C3315 C3312 1.387 . S
C3316 C3317 1.387 . S
C3316 H3320 0.950 . S
C3316 C3325 1.390 1_655 S
C3317 C3316 1.387 . S
C3317 C3319 1.387 . S
H3318 C3325 0.950 . S
C3319 C3317 1.387 . S
C3319 C3321 1.390 1_655 S
C3319 H3323 0.950 . S
H3320 C3316 0.950 . S
C3321 C3319 1.390 1_455 S
C3321 C3322 1.387 . S
C3321 H3324 0.950 . S
C3322 C3321 1.387 . S
C3322 C3325 1.387 . S
H3323 C3319 0.950 . S
H3324 C3321 0.950 . S
C3325 C3316 1.390 1_455 S
C3325 H3318 0.950 . S
C3325 C3322 1.387 . S
C3326 C3327 1.387 . S
C3326 H3330 0.950 . S
C3326 C3335 1.390 . S
C3327 C3326 1.387 . S
C3327 C3329 1.387 . S
H3328 C3335 0.950 . S
C3329 C3327 1.387 . S
C3329 C3331 1.390 . S
C3329 H3333 0.950 . S
H3330 C3326 0.950 . S
C3331 C3329 1.390 . S
C3331 C3332 1.387 . S
C3331 H3334 0.950 . S
C3332 C3331 1.387 . S
C3332 C3335 1.387 . S
H3333 C3329 0.950 . S
H3334 C3331 0.950 . S
C3335 C3326 1.390 . S
C3335 H3328 0.950 . S
C3335 C3332 1.387 . S
C3336 C3337 1.387 . S
C3336 H3340 0.950 . S
C3336 C3345 1.390 . S
C3337 C3336 1.387 . S
C3337 C3339 1.387 . S
H3338 C3345 0.950 . S
C3339 C3337 1.387 . S
C3339 C3341 1.390 . S
C3339 H3343 0.950 . S
H3340 C3336 0.950 . S
C3341 C3339 1.390 . S
C3341 C3342 1.387 . S
C3341 H3344 0.950 . S
C3342 C3341 1.387 . S
C3342 C3345 1.387 . S
H3343 C3339 0.950 . S
H3344 C3341 0.950 . S
C3345 C3336 1.390 . S
C3345 H3338 0.950 . S
C3345 C3342 1.387 . S
C3346 C3347 1.387 . S
C3346 H3350 0.950 . S
C3346 C3355 1.390 . S
C3347 C3346 1.387 . S
C3347 C3349 1.387 . S
H3348 C3355 0.950 . S
C3349 C3347 1.387 . S
C3349 C3351 1.390 . S
C3349 H3353 0.950 . S
H3350 C3346 0.950 . S
C3351 C3349 1.390 . S
C3351 C3352 1.387 . S
C3351 H3354 0.950 . S
C3352 C3351 1.387 . S
C3352 C3355 1.387 . S
H3353 C3349 0.950 . S
H3354 C3351 0.950 . S
C3355 C3346 1.390 . S
C3355 H3348 0.950 . S
C3355 C3352 1.387 . S
C3356 C3357 1.387 . S
C3356 H3360 0.950 . S
C3356 C3365 1.390 . S
C3357 C3356 1.387 . S
C3357 C3359 1.387 . S
H3358 C3365 0.950 . S
C3359 C3357 1.387 . S
C3359 C3361 1.390 . S
C3359 H3363 0.950 . S
H3360 C3356 0.950 . S
C3361 C3359 1.390 . S
C3361 C3362 1.387 . S
C3361 H3364 0.950 . S
C3362 C3361 1.387 . S
C3362 C3365 1.387 . S
H3363 C3359 0.950 . S
H3364 C3361 0.950 . S
C3365 C3356 1.390 . S
C3365 H3358 0.950 . S
C3365 C3362 1.387 . S
C3366 C3367 1.387 . S
C3366 H3370 0.950 . S
C3366 C3375 1.390 . S
C3367 C3366 1.387 . S
C3367 C3369 1.387 . S
H3368 C3375 0.950 . S
C3369 C3367 1.387 . S
C3369 C3371 1.390 . S
C3369 H3373 0.950 . S
H3370 C3366 0.950 . S
C3371 C3369 1.390 . S
C3371 C3372 1.387 . S
C3371 H3374 0.950 . S
C3372 C3371 1.387 . S
C3372 C3375 1.387 . S
H3373 C3369 0.950 . S
H3374 C3371 0.950 . S
C3375 C3366 1.390 . S
C3375 H3368 0.950 . S
C3375 C3372 1.387 . S
C3376 C3377 1.387 . S
C3376 H3380 0.950 . S
C3376 C3385 1.390 1_655 S
C3377 C3376 1.387 . S
C3377 C3379 1.387 . S
H3378 C3385 0.950 . S
C3379 C3377 1.387 . S
C3379 C3381 1.390 1_655 S
C3379 H3383 0.950 . S
H3380 C3376 0.950 . S
C3381 C3379 1.390 1_455 S
C3381 C3382 1.387 . S
C3381 H3384 0.950 . S
C3382 C3381 1.387 . S
C3382 C3385 1.387 . S
H3383 C3379 0.950 . S
H3384 C3381 0.950 . S
C3385 C3376 1.390 1_455 S
C3385 H3378 0.950 . S
C3385 C3382 1.387 . S
C3386 C3387 1.387 . S
C3386 H3390 0.950 . S
C3386 C3395 1.390 1_545 S
C3387 C3386 1.387 . S
C3387 C3389 1.387 . S
H3388 C3395 0.950 . S
C3389 C3387 1.387 . S
C3389 C3391 1.390 1_545 S
C3389 H3393 0.950 . S
H3390 C3386 0.950 . S
C3391 C3389 1.390 1_565 S
C3391 C3392 1.387 . S
C3391 H3394 0.950 . S
C3392 C3391 1.387 . S
C3392 C3395 1.387 . S
H3393 C3389 0.950 . S
H3394 C3391 0.950 . S
C3395 C3386 1.390 1_565 S
C3395 H3388 0.950 . S
C3395 C3392 1.387 . S
C3396 C3397 1.387 . S
C3396 H3400 0.950 . S
C3396 C3405 1.390 . S
C3397 C3396 1.387 . S
C3397 C3399 1.387 . S
H3398 C3405 0.950 . S
C3399 C3397 1.387 . S
C3399 C3401 1.390 . S
C3399 H3403 0.950 . S
H3400 C3396 0.950 . S
C3401 C3399 1.390 . S
C3401 C3402 1.387 . S
C3401 H3404 0.950 . S
C3402 C3401 1.387 . S
C3402 C3405 1.387 . S
H3403 C3399 0.950 . S
H3404 C3401 0.950 . S
C3405 C3396 1.390 . S
C3405 H3398 0.950 . S
C3405 C3402 1.387 . S
C3406 C3407 1.387 . S
C3406 H3410 0.950 . S
C3406 C3415 1.390 . S
C3407 C3406 1.387 . S
C3407 C3409 1.387 . S
H3408 C3415 0.950 . S
C3409 C3407 1.387 . S
C3409 C3411 1.390 . S
C3409 H3413 0.950 . S
H3410 C3406 0.950 . S
C3411 C3409 1.390 . S
C3411 C3412 1.387 . S
C3411 H3414 0.950 . S
C3412 C3411 1.387 . S
C3412 C3415 1.387 . S
H3413 C3409 0.950 . S
H3414 C3411 0.950 . S
C3415 C3406 1.390 . S
C3415 H3408 0.950 . S
C3415 C3412 1.387 . S
C3416 C3417 1.387 . S
C3416 H3420 0.950 . S
C3416 C3425 1.390 1_455 S
C3417 C3416 1.387 . S
C3417 C3419 1.387 . S
H3418 C3425 0.950 . S
C3419 C3417 1.387 . S
C3419 C3421 1.390 1_455 S
C3419 H3423 0.950 . S
H3420 C3416 0.950 . S
C3421 C3419 1.390 1_655 S
C3421 C3422 1.387 . S
C3421 H3424 0.950 . S
C3422 C3421 1.387 . S
C3422 C3425 1.387 . S
H3423 C3419 0.950 . S
H3424 C3421 0.950 . S
C3425 C3416 1.390 1_655 S
C3425 H3418 0.950 . S
C3425 C3422 1.387 . S
C3426 C3427 1.387 . S
C3426 H3430 0.950 . S
C3426 C3435 1.390 1_565 S
C3427 C3426 1.387 . S
C3427 C3429 1.387 . S
H3428 C3435 0.950 . S
C3429 C3427 1.387 . S
C3429 C3431 1.390 1_565 S
C3429 H3433 0.950 . S
H3430 C3426 0.950 . S
C3431 C3429 1.390 1_545 S
C3431 C3432 1.387 . S
C3431 H3434 0.950 . S
C3432 C3431 1.387 . S
C3432 C3435 1.387 . S
H3433 C3429 0.950 . S
H3434 C3431 0.950 . S
C3435 C3426 1.390 1_545 S
C3435 H3428 0.950 . S
C3435 C3432 1.387 . S
C3436 C3437 1.387 . S
C3436 H3440 0.950 . S
C3436 C3445 1.390 1_554 S
C3437 C3436 1.387 . S
C3437 C3439 1.387 . S
H3438 C3445 0.950 . S
C3439 C3437 1.387 . S
C3439 C3441 1.390 1_554 S
C3439 H3443 0.950 . S
H3440 C3436 0.950 . S
C3441 C3439 1.390 1_556 S
C3441 C3442 1.387 . S
C3441 H3444 0.950 . S
C3442 C3441 1.387 . S
C3442 C3445 1.387 . S
H3443 C3439 0.950 . S
H3444 C3441 0.950 . S
C3445 C3436 1.390 1_556 S
C3445 H3438 0.950 . S
C3445 C3442 1.387 . S
C3446 C3447 1.387 . S
C3446 H3450 0.950 . S
C3446 C3455 1.390 1_556 S
C3447 C3446 1.387 . S
C3447 C3449 1.387 . S
H3448 C3455 0.950 . S
C3449 C3447 1.387 . S
C3449 C3451 1.390 1_556 S
C3449 H3453 0.950 . S
H3450 C3446 0.950 . S
C3451 C3449 1.390 1_554 S
C3451 C3452 1.387 . S
C3451 H3454 0.950 . S
C3452 C3451 1.387 . S
C3452 C3455 1.387 . S
H3453 C3449 0.950 . S
H3454 C3451 0.950 . S
C3455 C3446 1.390 1_554 S
C3455 H3448 0.950 . S
C3455 C3452 1.387 . S
C3456 C3457 1.387 . S
C3456 H3460 0.950 . S
C3456 C3465 1.390 . S
C3457 C3456 1.387 . S
C3457 C3459 1.387 . S
H3458 C3465 0.950 . S
C3459 C3457 1.387 . S
C3459 C3461 1.390 . S
C3459 H3463 0.950 . S
H3460 C3456 0.950 . S
C3461 C3459 1.390 . S
C3461 C3462 1.387 . S
C3461 H3464 0.950 . S
C3462 C3461 1.387 . S
C3462 C3465 1.387 . S
H3463 C3459 0.950 . S
H3464 C3461 0.950 . S
C3465 C3456 1.390 . S
C3465 H3458 0.950 . S
C3465 C3462 1.387 . S
C3466 C3467 1.387 . S
C3466 H3470 0.950 . S
C3466 C3475 1.390 . S
C3467 C3466 1.387 . S
C3467 C3469 1.387 . S
H3468 C3475 0.950 . S
C3469 C3467 1.387 . S
C3469 C3471 1.390 . S
C3469 H3473 0.950 . S
H3470 C3466 0.950 . S
C3471 C3469 1.390 . S
C3471 C3472 1.387 . S
C3471 H3474 0.950 . S
C3472 C3471 1.387 . S
C3472 C3475 1.387 . S
H3473 C3469 0.950 . S
H3474 C3471 0.950 . S
C3475 C3466 1.390 . S
C3475 H3468 0.950 . S
C3475 C3472 1.387 . S
C3476 C3477 1.387 . S
C3476 H3480 0.950 . S
C3476 C3485 1.390 . S
C3477 C3476 1.387 . S
C3477 C3479 1.387 . S
H3478 C3485 0.950 . S
C3479 C3477 1.387 . S
C3479 C3481 1.390 . S
C3479 H3483 0.950 . S
H3480 C3476 0.950 . S
C3481 C3479 1.390 . S
C3481 C3482 1.387 . S
C3481 H3484 0.950 . S
C3482 C3481 1.387 . S
C3482 C3485 1.387 . S
H3483 C3479 0.950 . S
H3484 C3481 0.950 . S
C3485 C3476 1.390 . S
C3485 H3478 0.950 . S
C3485 C3482 1.387 . S
C3486 C3487 1.387 . S
C3486 H3490 0.950 . S
C3486 C3495 1.390 . S
C3487 C3486 1.387 . S
C3487 C3489 1.387 . S
H3488 C3495 0.950 . S
C3489 C3487 1.387 . S
C3489 C3491 1.390 . S
C3489 H3493 0.950 . S
H3490 C3486 0.950 . S
C3491 C3489 1.390 . S
C3491 C3492 1.387 . S
C3491 H3494 0.950 . S
C3492 C3491 1.387 . S
C3492 C3495 1.387 . S
H3493 C3489 0.950 . S
H3494 C3491 0.950 . S
C3495 C3486 1.390 . S
C3495 H3488 0.950 . S
C3495 C3492 1.387 . S
C3496 C3497 1.387 . S
C3496 H3500 0.950 . S
C3496 C3505 1.390 . S
C3497 C3496 1.387 . S
C3497 C3499 1.387 . S
H3498 C3505 0.950 . S
C3499 C3497 1.387 . S
C3499 C3501 1.390 . S
C3499 H3503 0.950 . S
H3500 C3496 0.950 . S
C3501 C3499 1.390 . S
C3501 C3502 1.387 . S
C3501 H3504 0.950 . S
C3502 C3501 1.387 . S
C3502 C3505 1.387 . S
H3503 C3499 0.950 . S
H3504 C3501 0.950 . S
C3505 C3496 1.390 . S
C3505 H3498 0.950 . S
C3505 C3502 1.387 . S
C3506 C3507 1.387 . S
C3506 H3510 0.950 . S
C3506 C3515 1.390 . S
C3507 C3506 1.387 . S
C3507 C3509 1.387 . S
H3508 C3515 0.950 . S
C3509 C3507 1.387 . S
C3509 C3511 1.390 . S
C3509 H3513 0.950 . S
H3510 C3506 0.950 . S
C3511 C3509 1.390 . S
C3511 C3512 1.387 . S
C3511 H3514 0.950 . S
C3512 C3511 1.387 . S
C3512 C3515 1.387 . S
H3513 C3509 0.950 . S
H3514 C3511 0.950 . S
C3515 C3506 1.390 . S
C3515 H3508 0.950 . S
C3515 C3512 1.387 . S
C3516 C3517 1.387 . S
C3516 H3520 0.950 . S
C3516 C3525 1.390 . S
C3517 C3516 1.387 . S
C3517 C3519 1.387 . S
H3518 C3525 0.950 . S
C3519 C3517 1.387 . S
C3519 C3521 1.390 . S
C3519 H3523 0.950 . S
H3520 C3516 0.950 . S
C3521 C3519 1.390 . S
C3521 C3522 1.387 . S
C3521 H3524 0.950 . S
C3522 C3521 1.387 . S
C3522 C3525 1.387 . S
H3523 C3519 0.950 . S
H3524 C3521 0.950 . S
C3525 C3516 1.390 . S
C3525 H3518 0.950 . S
C3525 C3522 1.387 . S
C3526 C3527 1.387 . S
C3526 H3530 0.950 . S
C3526 C3535 1.390 . S
C3527 C3526 1.387 . S
C3527 C3529 1.387 . S
H3528 C3535 0.950 . S
C3529 C3527 1.387 . S
C3529 C3531 1.390 . S
C3529 H3533 0.950 . S
H3530 C3526 0.950 . S
C3531 C3529 1.390 . S
C3531 C3532 1.387 . S
C3531 H3534 0.950 . S
C3532 C3531 1.387 . S
C3532 C3535 1.387 . S
H3533 C3529 0.950 . S
H3534 C3531 0.950 . S
C3535 C3526 1.390 . S
C3535 H3528 0.950 . S
C3535 C3532 1.387 . S
C3536 C3537 1.387 . S
C3536 H3540 0.950 . S
C3536 C3545 1.390 . S
C3537 C3536 1.387 . S
C3537 C3539 1.387 . S
H3538 C3545 0.950 . S
C3539 C3537 1.387 . S
C3539 C3541 1.390 . S
C3539 H3543 0.950 . S
H3540 C3536 0.950 . S
C3541 C3539 1.390 . S
C3541 C3542 1.387 . S
C3541 H3544 0.950 . S
C3542 C3541 1.387 . S
C3542 C3545 1.387 . S
H3543 C3539 0.950 . S
H3544 C3541 0.950 . S
C3545 C3536 1.390 . S
C3545 H3538 0.950 . S
C3545 C3542 1.387 . S
C3546 C3547 1.387 . S
C3546 H3550 0.950 . S
C3546 C3555 1.390 . S
C3547 C3546 1.387 . S
C3547 C3549 1.387 . S
H3548 C3555 0.950 . S
C3549 C3547 1.387 . S
C3549 C3551 1.390 . S
C3549 H3553 0.950 . S
H3550 C3546 0.950 . S
C3551 C3549 1.390 . S
C3551 C3552 1.387 . S
C3551 H3554 0.950 . S
C3552 C3551 1.387 . S
C3552 C3555 1.387 . S
H3553 C3549 0.950 . S
H3554 C3551 0.950 . S
C3555 C3546 1.390 . S
C3555 H3548 0.950 . S
C3555 C3552 1.387 . S
C3556 C3557 1.387 . S
C3556 H3560 0.950 . S
C3556 C3565 1.390 . S
C3557 C3556 1.387 . S
C3557 C3559 1.387 . S
H3558 C3565 0.950 . S
C3559 C3557 1.387 . S
C3559 C3561 1.390 . S
C3559 H3563 0.950 . S
H3560 C3556 0.950 . S
C3561 C3559 1.390 . S
C3561 C3562 1.387 . S
C3561 H3564 0.950 . S
C3562 C3561 1.387 . S
C3562 C3565 1.387 . S
H3563 C3559 0.950 . S
H3564 C3561 0.950 . S
C3565 C3556 1.390 . S
C3565 H3558 0.950 . S
C3565 C3562 1.387 . S
C3566 C3567 1.387 . S
C3566 H3570 0.950 . S
C3566 C3575 1.390 . S
C3567 C3566 1.387 . S
C3567 C3569 1.387 . S
H3568 C3575 0.950 . S
C3569 C3567 1.387 . S
C3569 C3571 1.390 . S
C3569 H3573 0.950 . S
H3570 C3566 0.950 . S
C3571 C3569 1.390 . S
C3571 C3572 1.387 . S
C3571 H3574 0.950 . S
C3572 C3571 1.387 . S
C3572 C3575 1.387 . S
H3573 C3569 0.950 . S
H3574 C3571 0.950 . S
C3575 C3566 1.390 . S
C3575 H3568 0.950 . S
C3575 C3572 1.387 . S
C3576 C3577 1.387 . S
C3576 H3580 0.950 . S
C3576 C3585 1.390 . S
C3577 C3576 1.387 . S
C3577 C3579 1.387 . S
H3578 C3585 0.950 . S
C3579 C3577 1.387 . S
C3579 C3581 1.390 . S
C3579 H3583 0.950 . S
H3580 C3576 0.950 . S
C3581 C3579 1.390 . S
C3581 C3582 1.387 . S
C3581 H3584 0.950 . S
C3582 C3581 1.387 . S
C3582 C3585 1.387 . S
H3583 C3579 0.950 . S
H3584 C3581 0.950 . S
C3585 C3576 1.390 . S
C3585 H3578 0.950 . S
C3585 C3582 1.387 . S
C3586 C3587 1.387 . S
C3586 H3590 0.950 . S
C3586 C3595 1.390 . S
C3587 C3586 1.387 . S
C3587 C3589 1.387 . S
H3588 C3595 0.950 . S
C3589 C3587 1.387 . S
C3589 C3591 1.390 . S
C3589 H3593 0.950 . S
H3590 C3586 0.950 . S
C3591 C3589 1.390 . S
C3591 C3592 1.387 . S
C3591 H3594 0.950 . S
C3592 C3591 1.387 . S
C3592 C3595 1.387 . S
H3593 C3589 0.950 . S
H3594 C3591 0.950 . S
C3595 C3586 1.390 . S
C3595 H3588 0.950 . S
C3595 C3592 1.387 . S
C3596 C3597 1.387 . S
C3596 H3600 0.950 . S
C3596 C3605 1.390 . S
C3597 C3596 1.387 . S
C3597 C3599 1.387 . S
H3598 C3605 0.950 . S
C3599 C3597 1.387 . S
C3599 C3601 1.390 . S
C3599 H3603 0.950 . S
H3600 C3596 0.950 . S
C3601 C3599 1.390 . S
C3601 C3602 1.387 . S
C3601 H3604 0.950 . S
C3602 C3601 1.387 . S
C3602 C3605 1.387 . S
H3603 C3599 0.950 . S
H3604 C3601 0.950 . S
C3605 C3596 1.390 . S
C3605 H3598 0.950 . S
C3605 C3602 1.387 . S
C3606 C3607 1.387 . S
C3606 H3610 0.950 . S
C3606 C3615 1.390 . S
C3607 C3606 1.387 . S
C3607 C3609 1.387 . S
H3608 C3615 0.950 . S
C3609 C3607 1.387 . S
C3609 C3611 1.390 . S
C3609 H3613 0.950 . S
H3610 C3606 0.950 . S
C3611 C3609 1.390 . S
C3611 C3612 1.387 . S
C3611 H3614 0.950 . S
C3612 C3611 1.387 . S
C3612 C3615 1.387 . S
H3613 C3609 0.950 . S
H3614 C3611 0.950 . S
C3615 C3606 1.390 . S
C3615 H3608 0.950 . S
C3615 C3612 1.387 . S
C3616 C3617 1.387 . S
C3616 H3620 0.950 . S
C3616 C3625 1.390 . S
C3617 C3616 1.387 . S
C3617 C3619 1.387 . S
H3618 C3625 0.950 . S
C3619 C3617 1.387 . S
C3619 C3621 1.390 . S
C3619 H3623 0.950 . S
H3620 C3616 0.950 . S
C3621 C3619 1.390 . S
C3621 C3622 1.387 . S
C3621 H3624 0.950 . S
C3622 C3621 1.387 . S
C3622 C3625 1.387 . S
H3623 C3619 0.950 . S
H3624 C3621 0.950 . S
C3625 C3616 1.390 . S
C3625 H3618 0.950 . S
C3625 C3622 1.387 . S
C3626 C3627 1.387 . S
C3626 H3630 0.950 . S
C3626 C3635 1.390 . S
C3627 C3626 1.387 . S
C3627 C3629 1.387 . S
H3628 C3635 0.950 . S
C3629 C3627 1.387 . S
C3629 C3631 1.390 . S
C3629 H3633 0.950 . S
H3630 C3626 0.950 . S
C3631 C3629 1.390 . S
C3631 C3632 1.387 . S
C3631 H3634 0.950 . S
C3632 C3631 1.387 . S
C3632 C3635 1.387 . S
H3633 C3629 0.950 . S
H3634 C3631 0.950 . S
C3635 C3626 1.390 . S
C3635 H3628 0.950 . S
C3635 C3632 1.387 . S
C3636 C3637 1.387 . S
C3636 H3640 0.950 . S
C3636 C3645 1.390 . S
C3637 C3636 1.387 . S
C3637 C3639 1.387 . S
H3638 C3645 0.950 . S
C3639 C3637 1.387 . S
C3639 C3641 1.390 . S
C3639 H3643 0.950 . S
H3640 C3636 0.950 . S
C3641 C3639 1.390 . S
C3641 C3642 1.387 . S
C3641 H3644 0.950 . S
C3642 C3641 1.387 . S
C3642 C3645 1.387 . S
H3643 C3639 0.950 . S
H3644 C3641 0.950 . S
C3645 C3636 1.390 . S
C3645 H3638 0.950 . S
C3645 C3642 1.387 . S
C3646 C3647 1.387 . S
C3646 H3650 0.950 . S
C3646 C3655 1.390 . S
C3647 C3646 1.387 . S
C3647 C3649 1.387 . S
H3648 C3655 0.950 . S
C3649 C3647 1.387 . S
C3649 C3651 1.390 . S
C3649 H3653 0.950 . S
H3650 C3646 0.950 . S
C3651 C3649 1.390 . S
C3651 C3652 1.387 . S
C3651 H3654 0.950 . S
C3652 C3651 1.387 . S
C3652 C3655 1.387 . S
H3653 C3649 0.950 . S
H3654 C3651 0.950 . S
C3655 C3646 1.390 . S
C3655 H3648 0.950 . S
C3655 C3652 1.387 . S
C3656 C3657 1.387 . S
C3656 H3660 0.950 . S
C3656 C3665 1.390 . S
C3657 C3656 1.387 . S
C3657 C3659 1.387 . S
H3658 C3665 0.950 . S
C3659 C3657 1.387 . S
C3659 C3661 1.390 . S
C3659 H3663 0.950 . S
H3660 C3656 0.950 . S
C3661 C3659 1.390 . S
C3661 C3662 1.387 . S
C3661 H3664 0.950 . S
C3662 C3661 1.387 . S
C3662 C3665 1.387 . S
H3663 C3659 0.950 . S
H3664 C3661 0.950 . S
C3665 C3656 1.390 . S
C3665 H3658 0.950 . S
C3665 C3662 1.387 . S
C3666 C3667 1.387 . S
C3666 H3670 0.950 . S
C3666 C3675 1.390 . S
C3667 C3666 1.387 . S
C3667 C3669 1.387 . S
H3668 C3675 0.950 . S
C3669 C3667 1.387 . S
C3669 C3671 1.390 . S
C3669 H3673 0.950 . S
H3670 C3666 0.950 . S
C3671 C3669 1.390 . S
C3671 C3672 1.387 . S
C3671 H3674 0.950 . S
C3672 C3671 1.387 . S
C3672 C3675 1.387 . S
H3673 C3669 0.950 . S
H3674 C3671 0.950 . S
C3675 C3666 1.390 . S
C3675 H3668 0.950 . S
C3675 C3672 1.387 . S
C3676 C3677 1.387 . S
C3676 H3680 0.950 . S
C3676 C3685 1.390 . S
C3677 C3676 1.387 . S
C3677 C3679 1.387 . S
H3678 C3685 0.950 . S
C3679 C3677 1.387 . S
C3679 C3681 1.390 . S
C3679 H3683 0.950 . S
H3680 C3676 0.950 . S
C3681 C3679 1.390 . S
C3681 C3682 1.387 . S
C3681 H3684 0.950 . S
C3682 C3681 1.387 . S
C3682 C3685 1.387 . S
H3683 C3679 0.950 . S
H3684 C3681 0.950 . S
C3685 C3676 1.390 . S
C3685 H3678 0.950 . S
C3685 C3682 1.387 . S
C3686 C3687 1.387 . S
C3686 H3690 0.950 . S
C3686 C3695 1.390 . S
C3687 C3686 1.387 . S
C3687 C3689 1.387 . S
H3688 C3695 0.950 . S
C3689 C3687 1.387 . S
C3689 C3691 1.390 . S
C3689 H3693 0.950 . S
H3690 C3686 0.950 . S
C3691 C3689 1.390 . S
C3691 C3692 1.387 . S
C3691 H3694 0.950 . S
C3692 C3691 1.387 . S
C3692 C3695 1.387 . S
H3693 C3689 0.950 . S
H3694 C3691 0.950 . S
C3695 C3686 1.390 . S
C3695 H3688 0.950 . S
C3695 C3692 1.387 . S
C3696 C3697 1.387 . S
C3696 H3700 0.950 . S
C3696 C3705 1.390 . S
C3697 C3696 1.387 . S
C3697 C3699 1.387 . S
H3698 C3705 0.950 . S
C3699 C3697 1.387 . S
C3699 C3701 1.390 . S
C3699 H3703 0.950 . S
H3700 C3696 0.950 . S
C3701 C3699 1.390 . S
C3701 C3702 1.387 . S
C3701 H3704 0.950 . S
C3702 C3701 1.387 . S
C3702 C3705 1.387 . S
H3703 C3699 0.950 . S
H3704 C3701 0.950 . S
C3705 C3696 1.390 . S
C3705 H3698 0.950 . S
C3705 C3702 1.387 . S
C3706 C3707 1.387 . S
C3706 H3710 0.950 . S
C3706 C3715 1.390 . S
C3707 C3706 1.387 . S
C3707 C3709 1.387 . S
H3708 C3715 0.950 . S
C3709 C3707 1.387 . S
C3709 C3711 1.390 . S
C3709 H3713 0.950 . S
H3710 C3706 0.950 . S
C3711 C3709 1.390 . S
C3711 C3712 1.387 . S
C3711 H3714 0.950 . S
C3712 C3711 1.387 . S
C3712 C3715 1.387 . S
H3713 C3709 0.950 . S
H3714 C3711 0.950 . S
C3715 C3706 1.390 . S
C3715 H3708 0.950 . S
C3715 C3712 1.387 . S
C3716 C3717 1.387 . S
C3716 H3720 0.950 . S
C3716 C3725 1.390 . S
C3717 C3716 1.387 . S
C3717 C3719 1.387 . S
H3718 C3725 0.950 . S
C3719 C3717 1.387 . S
C3719 C3721 1.390 . S
C3719 H3723 0.950 . S
H3720 C3716 0.950 . S
C3721 C3719 1.390 . S
C3721 C3722 1.387 . S
C3721 H3724 0.950 . S
C3722 C3721 1.387 . S
C3722 C3725 1.387 . S
H3723 C3719 0.950 . S
H3724 C3721 0.950 . S
C3725 C3716 1.390 . S
C3725 H3718 0.950 . S
C3725 C3722 1.387 . S
C3726 C3727 1.387 . S
C3726 H3730 0.950 . S
C3726 C3735 1.390 . S
C3727 C3726 1.387 . S
C3727 C3729 1.387 . S
H3728 C3735 0.950 . S
C3729 C3727 1.387 . S
C3729 C3731 1.390 . S
C3729 H3733 0.950 . S
H3730 C3726 0.950 . S
C3731 C3729 1.390 . S
C3731 C3732 1.387 . S
C3731 H3734 0.950 . S
C3732 C3731 1.387 . S
C3732 C3735 1.387 . S
H3733 C3729 0.950 . S
H3734 C3731 0.950 . S
C3735 C3726 1.390 . S
C3735 H3728 0.950 . S
C3735 C3732 1.387 . S
C3736 C3737 1.387 . S
C3736 H3740 0.950 . S
C3736 C3745 1.390 . S
C3737 C3736 1.387 . S
C3737 C3739 1.387 . S
H3738 C3745 0.950 . S
C3739 C3737 1.387 . S
C3739 C3741 1.390 . S
C3739 H3743 0.950 . S
H3740 C3736 0.950 . S
C3741 C3739 1.390 . S
C3741 C3742 1.387 . S
C3741 H3744 0.950 . S
C3742 C3741 1.387 . S
C3742 C3745 1.387 . S
H3743 C3739 0.950 . S
H3744 C3741 0.950 . S
C3745 C3736 1.390 . S
C3745 H3738 0.950 . S
C3745 C3742 1.387 . S
C3746 C3747 1.387 . S
C3746 H3750 0.950 . S
C3746 C3755 1.390 . S
C3747 C3746 1.387 . S
C3747 C3749 1.387 . S
H3748 C3755 0.950 . S
C3749 C3747 1.387 . S
C3749 C3751 1.390 . S
C3749 H3753 0.950 . S
H3750 C3746 0.950 . S
C3751 C3749 1.390 . S
C3751 C3752 1.387 . S
C3751 H3754 0.950 . S
C3752 C3751 1.387 . S
C3752 C3755 1.387 . S
H3753 C3749 0.950 . S
H3754 C3751 0.950 . S
C3755 C3746 1.390 . S
C3755 H3748 0.950 . S
C3755 C3752 1.387 . S
C3756 C3757 1.387 . S
C3756 H3760 0.950 . S
C3756 C3765 1.390 . S
C3757 C3756 1.387 . S
C3757 C3759 1.387 . S
H3758 C3765 0.950 . S
C3759 C3757 1.387 . S
C3759 C3761 1.390 . S
C3759 H3763 0.950 . S
H3760 C3756 0.950 . S
C3761 C3759 1.390 . S
C3761 C3762 1.387 . S
C3761 H3764 0.950 . S
C3762 C3761 1.387 . S
C3762 C3765 1.387 . S
H3763 C3759 0.950 . S
H3764 C3761 0.950 . S
C3765 C3756 1.390 . S
C3765 H3758 0.950 . S
C3765 C3762 1.387 . S
C3766 C3767 1.387 . S
C3766 H3770 0.950 . S
C3766 C3775 1.390 . S
C3767 C3766 1.387 . S
C3767 C3769 1.387 . S
H3768 C3775 0.950 . S
C3769 C3767 1.387 . S
C3769 C3771 1.390 . S
C3769 H3773 0.950 . S
H3770 C3766 0.950 . S
C3771 C3769 1.390 . S
C3771 C3772 1.387 . S
C3771 H3774 0.950 . S
C3772 C3771 1.387 . S
C3772 C3775 1.387 . S
H3773 C3769 0.950 . S
H3774 C3771 0.950 . S
C3775 C3766 1.390 . S
C3775 H3768 0.950 . S
C3775 C3772 1.387 . S
C3776 C3777 1.387 . S
C3776 H3780 0.950 . S
C3776 C3785 1.390 . S
C3777 C3776 1.387 . S
C3777 C3779 1.387 . S
H3778 C3785 0.950 . S
C3779 C3777 1.387 . S
C3779 C3781 1.390 . S
C3779 H3783 0.950 . S
H3780 C3776 0.950 . S
C3781 C3779 1.390 . S
C3781 C3782 1.387 . S
C3781 H3784 0.950 . S
C3782 C3781 1.387 . S
C3782 C3785 1.387 . S
H3783 C3779 0.950 . S
H3784 C3781 0.950 . S
C3785 C3776 1.390 . S
C3785 H3778 0.950 . S
C3785 C3782 1.387 . S
C3786 C3787 1.387 . S
C3786 H3790 0.950 . S
C3786 C3795 1.390 . S
C3787 C3786 1.387 . S
C3787 C3789 1.387 . S
H3788 C3795 0.950 . S
C3789 C3787 1.387 . S
C3789 C3791 1.390 . S
C3789 H3793 0.950 . S
H3790 C3786 0.950 . S
C3791 C3789 1.390 . S
C3791 C3792 1.387 . S
C3791 H3794 0.950 . S
C3792 C3791 1.387 . S
C3792 C3795 1.387 . S
H3793 C3789 0.950 . S
H3794 C3791 0.950 . S
C3795 C3786 1.390 . S
C3795 H3788 0.950 . S
C3795 C3792 1.387 . S
C3796 C3797 1.387 . S
C3796 H3800 0.950 . S
C3796 C3805 1.390 . S
C3797 C3796 1.387 . S
C3797 C3799 1.387 . S
H3798 C3805 0.950 . S
C3799 C3797 1.387 . S
C3799 C3801 1.390 . S
C3799 H3803 0.950 . S
H3800 C3796 0.950 . S
C3801 C3799 1.390 . S
C3801 C3802 1.387 . S
C3801 H3804 0.950 . S
C3802 C3801 1.387 . S
C3802 C3805 1.387 . S
H3803 C3799 0.950 . S
H3804 C3801 0.950 . S
C3805 C3796 1.390 . S
C3805 H3798 0.950 . S
C3805 C3802 1.387 . S
C3806 C3807 1.387 . S
C3806 H3810 0.950 . S
C3806 C3815 1.390 . S
C3807 C3806 1.387 . S
C3807 C3809 1.387 . S
H3808 C3815 0.950 . S
C3809 C3807 1.387 . S
C3809 C3811 1.390 . S
C3809 H3813 0.950 . S
H3810 C3806 0.950 . S
C3811 C3809 1.390 . S
C3811 C3812 1.387 . S
C3811 H3814 0.950 . S
C3812 C3811 1.387 . S
C3812 C3815 1.387 . S
H3813 C3809 0.950 . S
H3814 C3811 0.950 . S
C3815 C3806 1.390 . S
C3815 H3808 0.950 . S
C3815 C3812 1.387 . S
C3816 C3817 1.387 . S
C3816 H3820 0.950 . S
C3816 C3825 1.390 . S
C3817 C3816 1.387 . S
C3817 C3819 1.387 . S
H3818 C3825 0.950 . S
C3819 C3817 1.387 . S
C3819 C3821 1.390 . S
C3819 H3823 0.950 . S
H3820 C3816 0.950 . S
C3821 C3819 1.390 . S
C3821 C3822 1.387 . S
C3821 H3824 0.950 . S
C3822 C3821 1.387 . S
C3822 C3825 1.387 . S
H3823 C3819 0.950 . S
H3824 C3821 0.950 . S
C3825 C3816 1.390 . S
C3825 H3818 0.950 . S
C3825 C3822 1.387 . S
C3826 C3827 1.387 . S
C3826 H3830 0.950 . S
C3826 C3835 1.390 . S
C3827 C3826 1.387 . S
C3827 C3829 1.387 . S
H3828 C3835 0.950 . S
C3829 C3827 1.387 . S
C3829 C3831 1.390 . S
C3829 H3833 0.950 . S
H3830 C3826 0.950 . S
C3831 C3829 1.390 . S
C3831 C3832 1.387 . S
C3831 H3834 0.950 . S
C3832 C3831 1.387 . S
C3832 C3835 1.387 . S
H3833 C3829 0.950 . S
H3834 C3831 0.950 . S
C3835 C3826 1.390 . S
C3835 H3828 0.950 . S
C3835 C3832 1.387 . S
C3836 C3837 1.387 . S
C3836 H3840 0.950 . S
C3836 C3845 1.390 . S
C3837 C3836 1.387 . S
C3837 C3839 1.387 . S
H3838 C3845 0.950 . S
C3839 C3837 1.387 . S
C3839 C3841 1.390 . S
C3839 H3843 0.950 . S
H3840 C3836 0.950 . S
C3841 C3839 1.390 . S
C3841 C3842 1.387 . S
C3841 H3844 0.950 . S
C3842 C3841 1.387 . S
C3842 C3845 1.387 . S
H3843 C3839 0.950 . S
H3844 C3841 0.950 . S
C3845 C3836 1.390 . S
C3845 H3838 0.950 . S
C3845 C3842 1.387 . S
C3846 C3847 1.387 . S
C3846 H3850 0.950 . S
C3846 C3855 1.390 . S
C3847 C3846 1.387 . S
C3847 C3849 1.387 . S
H3848 C3855 0.950 . S
C3849 C3847 1.387 . S
C3849 C3851 1.390 . S
C3849 H3853 0.950 . S
H3850 C3846 0.950 . S
C3851 C3849 1.390 . S
C3851 C3852 1.387 . S
C3851 H3854 0.950 . S
C3852 C3851 1.387 . S
C3852 C3855 1.387 . S
H3853 C3849 0.950 . S
H3854 C3851 0.950 . S
C3855 C3846 1.390 . S
C3855 H3848 0.950 . S
C3855 C3852 1.387 . S
C3856 C3857 1.387 . S
C3856 H3860 0.950 . S
C3856 C3865 1.390 . S
C3857 C3856 1.387 . S
C3857 C3859 1.387 . S
H3858 C3865 0.950 . S
C3859 C3857 1.387 . S
C3859 C3861 1.390 . S
C3859 H3863 0.950 . S
H3860 C3856 0.950 . S
C3861 C3859 1.390 . S
C3861 C3862 1.387 . S
C3861 H3864 0.950 . S
C3862 C3861 1.387 . S
C3862 C3865 1.387 . S
H3863 C3859 0.950 . S
H3864 C3861 0.950 . S
C3865 C3856 1.390 . S
C3865 H3858 0.950 . S
C3865 C3862 1.387 . S
C3866 C3867 1.387 . S
C3866 H3870 0.950 . S
C3866 C3875 1.390 . S
C3867 C3866 1.387 . S
C3867 C3869 1.387 . S
H3868 C3875 0.950 . S
C3869 C3867 1.387 . S
C3869 C3871 1.390 . S
C3869 H3873 0.950 . S
H3870 C3866 0.950 . S
C3871 C3869 1.390 . S
C3871 C3872 1.387 . S
C3871 H3874 0.950 . S
C3872 C3871 1.387 . S
C3872 C3875 1.387 . S
H3873 C3869 0.950 . S
H3874 C3871 0.950 . S
C3875 C3866 1.390 . S
C3875 H3868 0.950 . S
C3875 C3872 1.387 . S
C3876 C3877 1.387 . S
C3876 H3880 0.950 . S
C3876 C3885 1.390 . S
C3877 C3876 1.387 . S
C3877 C3879 1.387 . S
H3878 C3885 0.950 . S
C3879 C3877 1.387 . S
C3879 C3881 1.390 . S
C3879 H3883 0.950 . S
H3880 C3876 0.950 . S
C3881 C3879 1.390 . S
C3881 C3882 1.387 . S
C3881 H3884 0.950 . S
C3882 C3881 1.387 . S
C3882 C3885 1.387 . S
H3883 C3879 0.950 . S
H3884 C3881 0.950 . S
C3885 C3876 1.390 . S
C3885 H3878 0.950 . S
C3885 C3882 1.387 . S
C3886 C3887 1.387 . S
C3886 H3890 0.950 . S
C3886 C3895 1.390 . S
C3887 C3886 1.387 . S
C3887 C3889 1.387 . S
H3888 C3895 0.950 . S
C3889 C3887 1.387 . S
C3889 C3891 1.390 . S
C3889 H3893 0.950 . S
H3890 C3886 0.950 . S
C3891 C3889 1.390 . S
C3891 C3892 1.387 . S
C3891 H3894 0.950 . S
C3892 C3891 1.387 . S
C3892 C3895 1.387 . S
H3893 C3889 0.950 . S
H3894 C3891 0.950 . S
C3895 C3886 1.390 . S
C3895 H3888 0.950 . S
C3895 C3892 1.387 . S
C3896 C3897 1.387 . S
C3896 H3900 0.950 . S
C3896 C3905 1.390 . S
C3897 C3896 1.387 . S
C3897 C3899 1.387 . S
H3898 C3905 0.950 . S
C3899 C3897 1.387 . S
C3899 C3901 1.390 . S
C3899 H3903 0.950 . S
H3900 C3896 0.950 . S
C3901 C3899 1.390 . S
C3901 C3902 1.387 . S
C3901 H3904 0.950 . S
C3902 C3901 1.387 . S
C3902 C3905 1.387 . S
H3903 C3899 0.950 . S
H3904 C3901 0.950 . S
C3905 C3896 1.390 . S
C3905 H3898 0.950 . S
C3905 C3902 1.387 . S
C3906 C3907 1.387 . S
C3906 H3910 0.950 . S
C3906 C3915 1.390 . S
C3907 C3906 1.387 . S
C3907 C3909 1.387 . S
H3908 C3915 0.950 . S
C3909 C3907 1.387 . S
C3909 C3911 1.390 . S
C3909 H3913 0.950 . S
H3910 C3906 0.950 . S
C3911 C3909 1.390 . S
C3911 C3912 1.387 . S
C3911 H3914 0.950 . S
C3912 C3911 1.387 . S
C3912 C3915 1.387 . S
H3913 C3909 0.950 . S
H3914 C3911 0.950 . S
C3915 C3906 1.390 . S
C3915 H3908 0.950 . S
C3915 C3912 1.387 . S
C3916 C3917 1.387 . S
C3916 H3920 0.950 . S
C3916 C3925 1.390 . S
C3917 C3916 1.387 . S
C3917 C3919 1.387 . S
H3918 C3925 0.950 . S
C3919 C3917 1.387 . S
C3919 C3921 1.390 . S
C3919 H3923 0.950 . S
H3920 C3916 0.950 . S
C3921 C3919 1.390 . S
C3921 C3922 1.387 . S
C3921 H3924 0.950 . S
C3922 C3921 1.387 . S
C3922 C3925 1.387 . S
H3923 C3919 0.950 . S
H3924 C3921 0.950 . S
C3925 C3916 1.390 . S
C3925 H3918 0.950 . S
C3925 C3922 1.387 . S
C3926 C3927 1.387 . S
C3926 H3930 0.950 . S
C3926 C3935 1.390 . S
C3927 C3926 1.387 . S
C3927 C3929 1.387 . S
H3928 C3935 0.950 . S
C3929 C3927 1.387 . S
C3929 C3931 1.390 . S
C3929 H3933 0.950 . S
H3930 C3926 0.950 . S
C3931 C3929 1.390 . S
C3931 C3932 1.387 . S
C3931 H3934 0.950 . S
C3932 C3931 1.387 . S
C3932 C3935 1.387 . S
H3933 C3929 0.950 . S
H3934 C3931 0.950 . S
C3935 C3926 1.390 . S
C3935 H3928 0.950 . S
C3935 C3932 1.387 . S
C3936 C3937 1.387 . S
C3936 H3940 0.950 . S
C3936 C3945 1.390 . S
C3937 C3936 1.387 . S
C3937 C3939 1.387 . S
H3938 C3945 0.950 . S
C3939 C3937 1.387 . S
C3939 C3941 1.390 . S
C3939 H3943 0.950 . S
H3940 C3936 0.950 . S
C3941 C3939 1.390 . S
C3941 C3942 1.387 . S
C3941 H3944 0.950 . S
C3942 C3941 1.387 . S
C3942 C3945 1.387 . S
H3943 C3939 0.950 . S
H3944 C3941 0.950 . S
C3945 C3936 1.390 . S
C3945 H3938 0.950 . S
C3945 C3942 1.387 . S
C3946 C3947 1.387 . S
C3946 H3950 0.950 . S
C3946 C3955 1.390 . S
C3947 C3946 1.387 . S
C3947 C3949 1.387 . S
H3948 C3955 0.950 . S
C3949 C3947 1.387 . S
C3949 C3951 1.390 . S
C3949 H3953 0.950 . S
H3950 C3946 0.950 . S
C3951 C3949 1.390 . S
C3951 C3952 1.387 . S
C3951 H3954 0.950 . S
C3952 C3951 1.387 . S
C3952 C3955 1.387 . S
H3953 C3949 0.950 . S
H3954 C3951 0.950 . S
C3955 C3946 1.390 . S
C3955 H3948 0.950 . S
C3955 C3952 1.387 . S
C3956 C3957 1.387 . S
C3956 H3960 0.950 . S
C3956 C3965 1.390 . S
C3957 C3956 1.387 . S
C3957 C3959 1.387 . S
H3958 C3965 0.950 . S
C3959 C3957 1.387 . S
C3959 C3961 1.390 . S
C3959 H3963 0.950 . S
H3960 C3956 0.950 . S
C3961 C3959 1.390 . S
C3961 C3962 1.387 . S
C3961 H3964 0.950 . S
C3962 C3961 1.387 . S
C3962 C3965 1.387 . S
H3963 C3959 0.950 . S
H3964 C3961 0.950 . S
C3965 C3956 1.390 . S
C3965 H3958 0.950 . S
C3965 C3962 1.387 . S
C3966 C3967 1.387 . S
C3966 H3970 0.950 . S
C3966 C3975 1.390 . S
C3967 C3966 1.387 . S
C3967 C3969 1.387 . S
H3968 C3975 0.950 . S
C3969 C3967 1.387 . S
C3969 C3971 1.390 . S
C3969 H3973 0.950 . S
H3970 C3966 0.950 . S
C3971 C3969 1.390 . S
C3971 C3972 1.387 . S
C3971 H3974 0.950 . S
C3972 C3971 1.387 . S
C3972 C3975 1.387 . S
H3973 C3969 0.950 . S
H3974 C3971 0.950 . S
C3975 C3966 1.390 . S
C3975 H3968 0.950 . S
C3975 C3972 1.387 . S
C3976 C3977 1.387 . S
C3976 H3980 0.950 . S
C3976 C3985 1.390 . S
C3977 C3976 1.387 . S
C3977 C3979 1.387 . S
H3978 C3985 0.950 . S
C3979 C3977 1.387 . S
C3979 C3981 1.390 . S
C3979 H3983 0.950 . S
H3980 C3976 0.950 . S
C3981 C3979 1.390 . S
C3981 C3982 1.387 . S
C3981 H3984 0.950 . S
C3982 C3981 1.387 . S
C3982 C3985 1.387 . S
H3983 C3979 0.950 . S
H3984 C3981 0.950 . S
C3985 C3976 1.390 . S
C3985 H3978 0.950 . S
C3985 C3982 1.387 . S
C3986 C3987 1.387 . S
C3986 H3990 0.950 . S
C3986 C3995 1.390 . S
C3987 C3986 1.387 . S
C3987 C3989 1.387 . S
H3988 C3995 0.950 . S
C3989 C3987 1.387 . S
C3989 C3991 1.390 . S
C3989 H3993 0.950 . S
H3990 C3986 0.950 . S
C3991 C3989 1.390 . S
C3991 C3992 1.387 . S
C3991 H3994 0.950 . S
C3992 C3991 1.387 . S
C3992 C3995 1.387 . S
H3993 C3989 0.950 . S
H3994 C3991 0.950 . S
C3995 C3986 1.390 . S
C3995 H3988 0.950 . S
C3995 C3992 1.387 . S
C3996 C3997 1.387 . S
C3996 H4000 0.950 . S
C3996 C4005 1.390 . S
C3997 C3996 1.387 . S
C3997 C3999 1.387 . S
H3998 C4005 0.950 . S
C3999 C3997 1.387 . S
C3999 C4001 1.390 . S
C3999 H4003 0.950 . S
H4000 C3996 0.950 . S
C4001 C3999 1.390 . S
C4001 C4002 1.387 . S
C4001 H4004 0.950 . S
C4002 C4001 1.387 . S
C4002 C4005 1.387 . S
H4003 C3999 0.950 . S
H4004 C4001 0.950 . S
C4005 C3996 1.390 . S
C4005 H3998 0.950 . S
C4005 C4002 1.387 . S
C4006 C4007 1.387 . S
C4006 H4010 0.950 . S
C4006 C4015 1.390 . S
C4007 C4006 1.387 . S
C4007 C4009 1.387 . S
H4008 C4015 0.950 . S
C4009 C4007 1.387 . S
C4009 C4011 1.390 . S
C4009 H4013 0.950 . S
H4010 C4006 0.950 . S
C4011 C4009 1.390 . S
C4011 C4012 1.387 . S
C4011 H4014 0.950 . S
C4012 C4011 1.387 . S
C4012 C4015 1.387 . S
H4013 C4009 0.950 . S
H4014 C4011 0.950 . S
C4015 C4006 1.390 . S
C4015 H4008 0.950 . S
C4015 C4012 1.387 . S
C4016 C4017 1.387 . S
C4016 H4020 0.950 . S
C4016 C4025 1.390 . S
C4017 C4016 1.387 . S
C4017 C4019 1.387 . S
H4018 C4025 0.950 . S
C4019 C4017 1.387 . S
C4019 C4021 1.390 . S
C4019 H4023 0.950 . S
H4020 C4016 0.950 . S
C4021 C4019 1.390 . S
C4021 C4022 1.387 . S
C4021 H4024 0.950 . S
C4022 C4021 1.387 . S
C4022 C4025 1.387 . S
H4023 C4019 0.950 . S
H4024 C4021 0.950 . S
C4025 C4016 1.390 . S
C4025 H4018 0.950 . S
C4025 C4022 1.387 . S
C4026 C4027 1.387 . S
C4026 H4030 0.950 . S
C4026 C4035 1.390 . S
C4027 C4026 1.387 . S
C4027 C4029 1.387 . S
H4028 C4035 0.950 . S
C4029 C4027 1.387 . S
C4029 C4031 1.390 . S
C4029 H4033 0.950 . S
H4030 C4026 0.950 . S
C4031 C4029 1.390 . S
C4031 C4032 1.387 . S
C4031 H4034 0.950 . S
C4032 C4031 1.387 . S
C4032 C4035 1.387 . S
H4033 C4029 0.950 . S
H4034 C4031 0.950 . S
C4035 C4026 1.390 . S
C4035 H4028 0.950 . S
C4035 C4032 1.387 . S
C4036 C4037 1.387 . S
C4036 H4040 0.950 . S
C4036 C4045 1.390 . S
C4037 C4036 1.387 . S
C4037 C4039 1.387 . S
H4038 C4045 0.950 . S
C4039 C4037 1.387 . S
C4039 C4041 1.390 . S
C4039 H4043 0.950 . S
H4040 C4036 0.950 . S
C4041 C4039 1.390 . S
C4041 C4042 1.387 . S
C4041 H4044 0.950 . S
C4042 C4041 1.387 . S
C4042 C4045 1.387 . S
H4043 C4039 0.950 . S
H4044 C4041 0.950 . S
C4045 C4036 1.390 . S
C4045 H4038 0.950 . S
C4045 C4042 1.387 . S
C4046 C4047 1.387 . S
C4046 H4050 0.950 . S
C4046 C4055 1.390 . S
C4047 C4046 1.387 . S
C4047 C4049 1.387 . S
H4048 C4055 0.950 . S
C4049 C4047 1.387 . S
C4049 C4051 1.390 . S
C4049 H4053 0.950 . S
H4050 C4046 0.950 . S
C4051 C4049 1.390 . S
C4051 C4052 1.387 . S
C4051 H4054 0.950 . S
C4052 C4051 1.387 . S
C4052 C4055 1.387 . S
H4053 C4049 0.950 . S
H4054 C4051 0.950 . S
C4055 C4046 1.390 . S
C4055 H4048 0.950 . S
C4055 C4052 1.387 . S
C4056 C4057 1.387 . S
C4056 H4060 0.950 . S
C4056 C4065 1.390 . S
C4057 C4056 1.387 . S
C4057 C4059 1.387 . S
H4058 C4065 0.950 . S
C4059 C4057 1.387 . S
C4059 C4061 1.390 . S
C4059 H4063 0.950 . S
H4060 C4056 0.950 . S
C4061 C4059 1.390 . S
C4061 C4062 1.387 . S
C4061 H4064 0.950 . S
C4062 C4061 1.387 . S
C4062 C4065 1.387 . S
H4063 C4059 0.950 . S
H4064 C4061 0.950 . S
C4065 C4056 1.390 . S
C4065 H4058 0.950 . S
C4065 C4062 1.387 . S
C4066 C4067 1.387 . S
C4066 H4070 0.950 . S
C4066 C4075 1.390 . S
C4067 C4066 1.387 . S
C4067 C4069 1.387 . S
H4068 C4075 0.950 . S
C4069 C4067 1.387 . S
C4069 C4071 1.390 . S
C4069 H4073 0.950 . S
H4070 C4066 0.950 . S
C4071 C4069 1.390 . S
C4071 C4072 1.387 . S
C4071 H4074 0.950 . S
C4072 C4071 1.387 . S
C4072 C4075 1.387 . S
H4073 C4069 0.950 . S
H4074 C4071 0.950 . S
C4075 C4066 1.390 . S
C4075 H4068 0.950 . S
C4075 C4072 1.387 . S
C4076 C4077 1.387 . S
C4076 H4080 0.950 . S
C4076 C4085 1.390 . S
C4077 C4076 1.387 . S
C4077 C4079 1.387 . S
H4078 C4085 0.950 . S
C4079 C4077 1.387 . S
C4079 C4081 1.390 . S
C4079 H4083 0.950 . S
H4080 C4076 0.950 . S
C4081 C4079 1.390 . S
C4081 C4082 1.387 . S
C4081 H4084 0.950 . S
C4082 C4081 1.387 . S
C4082 C4085 1.387 . S
H4083 C4079 0.950 . S
H4084 C4081 0.950 . S
C4085 C4076 1.390 . S
C4085 H4078 0.950 . S
C4085 C4082 1.387 . S
C4086 C4087 1.387 . S
C4086 H4090 0.950 . S
C4086 C4095 1.390 . S
C4087 C4086 1.387 . S
C4087 C4089 1.387 . S
H4088 C4095 0.950 . S
C4089 C4087 1.387 . S
C4089 C4091 1.390 . S
C4089 H4093 0.950 . S
H4090 C4086 0.950 . S
C4091 C4089 1.390 . S
C4091 C4092 1.387 . S
C4091 H4094 0.950 . S
C4092 C4091 1.387 . S
C4092 C4095 1.387 . S
H4093 C4089 0.950 . S
H4094 C4091 0.950 . S
C4095 C4086 1.390 . S
C4095 H4088 0.950 . S
C4095 C4092 1.387 . S
C4096 C4097 1.387 . S
C4096 H4100 0.950 . S
C4096 C4105 1.390 . S
C4097 C4096 1.387 . S
C4097 C4099 1.387 . S
H4098 C4105 0.950 . S
C4099 C4097 1.387 . S
C4099 C4101 1.390 . S
C4099 H4103 0.950 . S
H4100 C4096 0.950 . S
C4101 C4099 1.390 . S
C4101 C4102 1.387 . S
C4101 H4104 0.950 . S
C4102 C4101 1.387 . S
C4102 C4105 1.387 . S
H4103 C4099 0.950 . S
H4104 C4101 0.950 . S
C4105 C4096 1.390 . S
C4105 H4098 0.950 . S
C4105 C4102 1.387 . S
C4106 C4107 1.387 . S
C4106 H4110 0.950 . S
C4106 C4115 1.390 . S
C4107 C4106 1.387 . S
C4107 C4109 1.387 . S
H4108 C4115 0.950 . S
C4109 C4107 1.387 . S
C4109 C4111 1.390 . S
C4109 H4113 0.950 . S
H4110 C4106 0.950 . S
C4111 C4109 1.390 . S
C4111 C4112 1.387 . S
C4111 H4114 0.950 . S
C4112 C4111 1.387 . S
C4112 C4115 1.387 . S
H4113 C4109 0.950 . S
H4114 C4111 0.950 . S
C4115 C4106 1.390 . S
C4115 H4108 0.950 . S
C4115 C4112 1.387 . S
C4116 C4117 1.387 . S
C4116 H4120 0.950 . S
C4116 C4125 1.390 . S
C4117 C4116 1.387 . S
C4117 C4119 1.387 . S
H4118 C4125 0.950 . S
C4119 C4117 1.387 . S
C4119 C4121 1.390 . S
C4119 H4123 0.950 . S
H4120 C4116 0.950 . S
C4121 C4119 1.390 . S
C4121 C4122 1.387 . S
C4121 H4124 0.950 . S
C4122 C4121 1.387 . S
C4122 C4125 1.387 . S
H4123 C4119 0.950 . S
H4124 C4121 0.950 . S
C4125 C4116 1.390 . S
C4125 H4118 0.950 . S
C4125 C4122 1.387 . S
C4126 C4127 1.387 . S
C4126 H4130 0.950 . S
C4126 C4135 1.390 . S
C4127 C4126 1.387 . S
C4127 C4129 1.387 . S
H4128 C4135 0.950 . S
C4129 C4127 1.387 . S
C4129 C4131 1.390 . S
C4129 H4133 0.950 . S
H4130 C4126 0.950 . S
C4131 C4129 1.390 . S
C4131 C4132 1.387 . S
C4131 H4134 0.950 . S
C4132 C4131 1.387 . S
C4132 C4135 1.387 . S
H4133 C4129 0.950 . S
H4134 C4131 0.950 . S
C4135 C4126 1.390 . S
C4135 H4128 0.950 . S
C4135 C4132 1.387 . S
C4136 C4137 1.387 . S
C4136 H4140 0.950 . S
C4136 C4145 1.390 . S
C4137 C4136 1.387 . S
C4137 C4139 1.387 . S
H4138 C4145 0.950 . S
C4139 C4137 1.387 . S
C4139 C4141 1.390 . S
C4139 H4143 0.950 . S
H4140 C4136 0.950 . S
C4141 C4139 1.390 . S
C4141 C4142 1.387 . S
C4141 H4144 0.950 . S
C4142 C4141 1.387 . S
C4142 C4145 1.387 . S
H4143 C4139 0.950 . S
H4144 C4141 0.950 . S
C4145 C4136 1.390 . S
C4145 H4138 0.950 . S
C4145 C4142 1.387 . S
C4146 C4147 1.387 . S
C4146 H4150 0.950 . S
C4146 C4155 1.390 . S
C4147 C4146 1.387 . S
C4147 C4149 1.387 . S
H4148 C4155 0.950 . S
C4149 C4147 1.387 . S
C4149 C4151 1.390 . S
C4149 H4153 0.950 . S
H4150 C4146 0.950 . S
C4151 C4149 1.390 . S
C4151 C4152 1.387 . S
C4151 H4154 0.950 . S
C4152 C4151 1.387 . S
C4152 C4155 1.387 . S
H4153 C4149 0.950 . S
H4154 C4151 0.950 . S
C4155 C4146 1.390 . S
C4155 H4148 0.950 . S
C4155 C4152 1.387 . S
C4156 C4157 1.387 . S
C4156 H4160 0.950 . S
C4156 C4165 1.390 . S
C4157 C4156 1.387 . S
C4157 C4159 1.387 . S
H4158 C4165 0.950 . S
C4159 C4157 1.387 . S
C4159 C4161 1.390 . S
C4159 H4163 0.950 . S
H4160 C4156 0.950 . S
C4161 C4159 1.390 . S
C4161 C4162 1.387 . S
C4161 H4164 0.950 . S
C4162 C4161 1.387 . S
C4162 C4165 1.387 . S
H4163 C4159 0.950 . S
H4164 C4161 0.950 . S
C4165 C4156 1.390 . S
C4165 H4158 0.950 . S
C4165 C4162 1.387 . S
C4166 C4167 1.387 . S
C4166 H4170 0.950 . S
C4166 C4175 1.390 . S
C4167 C4166 1.387 . S
C4167 C4169 1.387 . S
H4168 C4175 0.950 . S
C4169 C4167 1.387 . S
C4169 C4171 1.390 . S
C4169 H4173 0.950 . S
H4170 C4166 0.950 . S
C4171 C4169 1.390 . S
C4171 C4172 1.387 . S
C4171 H4174 0.950 . S
C4172 C4171 1.387 . S
C4172 C4175 1.387 . S
H4173 C4169 0.950 . S
H4174 C4171 0.950 . S
C4175 C4166 1.390 . S
C4175 H4168 0.950 . S
C4175 C4172 1.387 . S
C4176 C4177 1.387 . S
C4176 H4180 0.950 . S
C4176 C4185 1.390 . S
C4177 C4176 1.387 . S
C4177 C4179 1.387 . S
H4178 C4185 0.950 . S
C4179 C4177 1.387 . S
C4179 C4181 1.390 . S
C4179 H4183 0.950 . S
H4180 C4176 0.950 . S
C4181 C4179 1.390 . S
C4181 C4182 1.387 . S
C4181 H4184 0.950 . S
C4182 C4181 1.387 . S
C4182 C4185 1.387 . S
H4183 C4179 0.950 . S
H4184 C4181 0.950 . S
C4185 C4176 1.390 . S
C4185 H4178 0.950 . S
C4185 C4182 1.387 . S
C4186 C4187 1.387 . S
C4186 H4190 0.950 . S
C4186 C4195 1.390 . S
C4187 C4186 1.387 . S
C4187 C4189 1.387 . S
H4188 C4195 0.950 . S
C4189 C4187 1.387 . S
C4189 C4191 1.390 . S
C4189 H4193 0.950 . S
H4190 C4186 0.950 . S
C4191 C4189 1.390 . S
C4191 C4192 1.387 . S
C4191 H4194 0.950 . S
C4192 C4191 1.387 . S
C4192 C4195 1.387 . S
H4193 C4189 0.950 . S
H4194 C4191 0.950 . S
C4195 C4186 1.390 . S
C4195 H4188 0.950 . S
C4195 C4192 1.387 . S
C4196 C4197 1.387 . S
C4196 H4200 0.950 . S
C4196 C4205 1.390 . S
C4197 C4196 1.387 . S
C4197 C4199 1.387 . S
H4198 C4205 0.950 . S
C4199 C4197 1.387 . S
C4199 C4201 1.390 . S
C4199 H4203 0.950 . S
H4200 C4196 0.950 . S
C4201 C4199 1.390 . S
C4201 C4202 1.387 . S
C4201 H4204 0.950 . S
C4202 C4201 1.387 . S
C4202 C4205 1.387 . S
H4203 C4199 0.950 . S
H4204 C4201 0.950 . S
C4205 C4196 1.390 . S
C4205 H4198 0.950 . S
C4205 C4202 1.387 . S
C4206 C4207 1.387 . S
C4206 H4210 0.950 . S
C4206 C4215 1.390 . S
C4207 C4206 1.387 . S
C4207 C4209 1.387 . S
H4208 C4215 0.950 . S
C4209 C4207 1.387 . S
C4209 C4211 1.390 . S
C4209 H4213 0.950 . S
H4210 C4206 0.950 . S
C4211 C4209 1.390 . S
C4211 C4212 1.387 . S
C4211 H4214 0.950 . S
C4212 C4211 1.387 . S
C4212 C4215 1.387 . S
H4213 C4209 0.950 . S
H4214 C4211 0.950 . S
C4215 C4206 1.390 . S
C4215 H4208 0.950 . S
C4215 C4212 1.387 . S
C4216 C4217 1.387 . S
C4216 H4220 0.950 . S
C4216 C4225 1.390 . S
C4217 C4216 1.387 . S
C4217 C4219 1.387 . S
H4218 C4225 0.950 . S
C4219 C4217 1.387 . S
C4219 C4221 1.390 . S
C4219 H4223 0.950 . S
H4220 C4216 0.950 . S
C4221 C4219 1.390 . S
C4221 C4222 1.387 . S
C4221 H4224 0.950 . S
C4222 C4221 1.387 . S
C4222 C4225 1.387 . S
H4223 C4219 0.950 . S
H4224 C4221 0.950 . S
C4225 C4216 1.390 . S
C4225 H4218 0.950 . S
C4225 C4222 1.387 . S
C4226 C4227 1.387 . S
C4226 H4230 0.950 . S
C4226 C4235 1.390 . S
C4227 C4226 1.387 . S
C4227 C4229 1.387 . S
H4228 C4235 0.950 . S
C4229 C4227 1.387 . S
C4229 C4231 1.390 . S
C4229 H4233 0.950 . S
H4230 C4226 0.950 . S
C4231 C4229 1.390 . S
C4231 C4232 1.387 . S
C4231 H4234 0.950 . S
C4232 C4231 1.387 . S
C4232 C4235 1.387 . S
H4233 C4229 0.950 . S
H4234 C4231 0.950 . S
C4235 C4226 1.390 . S
C4235 H4228 0.950 . S
C4235 C4232 1.387 . S
C4236 C4237 1.387 . S
C4236 H4240 0.950 . S
C4236 C4245 1.390 . S
C4237 C4236 1.387 . S
C4237 C4239 1.387 . S
H4238 C4245 0.950 . S
C4239 C4237 1.387 . S
C4239 C4241 1.390 . S
C4239 H4243 0.950 . S
H4240 C4236 0.950 . S
C4241 C4239 1.390 . S
C4241 C4242 1.387 . S
C4241 H4244 0.950 . S
C4242 C4241 1.387 . S
C4242 C4245 1.387 . S
H4243 C4239 0.950 . S
H4244 C4241 0.950 . S
C4245 C4236 1.390 . S
C4245 H4238 0.950 . S
C4245 C4242 1.387 . S
C4246 C4247 1.387 . S
C4246 H4250 0.950 . S
C4246 C4255 1.390 . S
C4247 C4246 1.387 . S
C4247 C4249 1.387 . S
H4248 C4255 0.950 . S
C4249 C4247 1.387 . S
C4249 C4251 1.390 . S
C4249 H4253 0.950 . S
H4250 C4246 0.950 . S
C4251 C4249 1.390 . S
C4251 C4252 1.387 . S
C4251 H4254 0.950 . S
C4252 C4251 1.387 . S
C4252 C4255 1.387 . S
H4253 C4249 0.950 . S
H4254 C4251 0.950 . S
C4255 C4246 1.390 . S
C4255 H4248 0.950 . S
C4255 C4252 1.387 . S
C4256 C4257 1.387 . S
C4256 H4260 0.950 . S
C4256 C4265 1.390 . S
C4257 C4256 1.387 . S
C4257 C4259 1.387 . S
H4258 C4265 0.950 . S
C4259 C4257 1.387 . S
C4259 C4261 1.390 . S
C4259 H4263 0.950 . S
H4260 C4256 0.950 . S
C4261 C4259 1.390 . S
C4261 C4262 1.387 . S
C4261 H4264 0.950 . S
C4262 C4261 1.387 . S
C4262 C4265 1.387 . S
H4263 C4259 0.950 . S
H4264 C4261 0.950 . S
C4265 C4256 1.390 . S
C4265 H4258 0.950 . S
C4265 C4262 1.387 . S
C4266 C4267 1.387 . S
C4266 H4270 0.950 . S
C4266 C4275 1.390 . S
C4267 C4266 1.387 . S
C4267 C4269 1.387 . S
H4268 C4275 0.950 . S
C4269 C4267 1.387 . S
C4269 C4271 1.390 . S
C4269 H4273 0.950 . S
H4270 C4266 0.950 . S
C4271 C4269 1.390 . S
C4271 C4272 1.387 . S
C4271 H4274 0.950 . S
C4272 C4271 1.387 . S
C4272 C4275 1.387 . S
H4273 C4269 0.950 . S
H4274 C4271 0.950 . S
C4275 C4266 1.390 . S
C4275 H4268 0.950 . S
C4275 C4272 1.387 . S
C4276 C4277 1.387 . S
C4276 H4280 0.950 . S
C4276 C4285 1.390 . S
C4277 C4276 1.387 . S
C4277 C4279 1.387 . S
H4278 C4285 0.950 . S
C4279 C4277 1.387 . S
C4279 C4281 1.390 . S
C4279 H4283 0.950 . S
H4280 C4276 0.950 . S
C4281 C4279 1.390 . S
C4281 C4282 1.387 . S
C4281 H4284 0.950 . S
C4282 C4281 1.387 . S
C4282 C4285 1.387 . S
H4283 C4279 0.950 . S
H4284 C4281 0.950 . S
C4285 C4276 1.390 . S
C4285 H4278 0.950 . S
C4285 C4282 1.387 . S
C4286 C4287 1.387 . S
C4286 H4290 0.950 . S
C4286 C4295 1.390 . S
C4287 C4286 1.387 . S
C4287 C4289 1.387 . S
H4288 C4295 0.950 . S
C4289 C4287 1.387 . S
C4289 C4291 1.390 . S
C4289 H4293 0.950 . S
H4290 C4286 0.950 . S
C4291 C4289 1.390 . S
C4291 C4292 1.387 . S
C4291 H4294 0.950 . S
C4292 C4291 1.387 . S
C4292 C4295 1.387 . S
H4293 C4289 0.950 . S
H4294 C4291 0.950 . S
C4295 C4286 1.390 . S
C4295 H4288 0.950 . S
C4295 C4292 1.387 . S
C4296 C4297 1.387 . S
C4296 H4300 0.950 . S
C4296 C4305 1.390 . S
C4297 C4296 1.387 . S
C4297 C4299 1.387 . S
H4298 C4305 0.950 . S
C4299 C4297 1.387 . S
C4299 C4301 1.390 . S
C4299 H4303 0.950 . S
H4300 C4296 0.950 . S
C4301 C4299 1.390 . S
C4301 C4302 1.387 . S
C4301 H4304 0.950 . S
C4302 C4301 1.387 . S
C4302 C4305 1.387 . S
H4303 C4299 0.950 . S
H4304 C4301 0.950 . S
C4305 C4296 1.390 . S
C4305 H4298 0.950 . S
C4305 C4302 1.387 . S
C4306 C4307 1.387 . S
C4306 H4310 0.950 . S
C4306 C4315 1.390 . S
C4307 C4306 1.387 . S
C4307 C4309 1.387 . S
H4308 C4315 0.950 . S
C4309 C4307 1.387 . S
C4309 C4311 1.390 . S
C4309 H4313 0.950 . S
H4310 C4306 0.950 . S
C4311 C4309 1.390 . S
C4311 C4312 1.387 . S
C4311 H4314 0.950 . S
C4312 C4311 1.387 . S
C4312 C4315 1.387 . S
H4313 C4309 0.950 . S
H4314 C4311 0.950 . S
C4315 C4306 1.390 . S
C4315 H4308 0.950 . S
C4315 C4312 1.387 . S
C4316 C4317 1.387 . S
C4316 H4320 0.950 . S
C4316 C4325 1.390 . S
C4317 C4316 1.387 . S
C4317 C4319 1.387 . S
H4318 C4325 0.950 . S
C4319 C4317 1.387 . S
C4319 C4321 1.390 . S
C4319 H4323 0.950 . S
H4320 C4316 0.950 . S
C4321 C4319 1.390 . S
C4321 C4322 1.387 . S
C4321 H4324 0.950 . S
C4322 C4321 1.387 . S
C4322 C4325 1.387 . S
H4323 C4319 0.950 . S
H4324 C4321 0.950 . S
C4325 C4316 1.390 . S
C4325 H4318 0.950 . S
C4325 C4322 1.387 . S
C4326 C4327 1.387 . S
C4326 H4330 0.950 . S
C4326 C4335 1.390 . S
C4327 C4326 1.387 . S
C4327 C4329 1.387 . S
H4328 C4335 0.950 . S
C4329 C4327 1.387 . S
C4329 C4331 1.390 . S
C4329 H4333 0.950 . S
H4330 C4326 0.950 . S
C4331 C4329 1.390 . S
C4331 C4332 1.387 . S
C4331 H4334 0.950 . S
C4332 C4331 1.387 . S
C4332 C4335 1.387 . S
H4333 C4329 0.950 . S
H4334 C4331 0.950 . S
C4335 C4326 1.390 . S
C4335 H4328 0.950 . S
C4335 C4332 1.387 . S
C4336 C4337 1.387 . S
C4336 H4340 0.950 . S
C4336 C4345 1.390 . S
C4337 C4336 1.387 . S
C4337 C4339 1.387 . S
H4338 C4345 0.950 . S
C4339 C4337 1.387 . S
C4339 C4341 1.390 . S
C4339 H4343 0.950 . S
H4340 C4336 0.950 . S
C4341 C4339 1.390 . S
C4341 C4342 1.387 . S
C4341 H4344 0.950 . S
C4342 C4341 1.387 . S
C4342 C4345 1.387 . S
H4343 C4339 0.950 . S
H4344 C4341 0.950 . S
C4345 C4336 1.390 . S
C4345 H4338 0.950 . S
C4345 C4342 1.387 . S
C4346 C4347 1.387 . S
C4346 H4350 0.950 . S
C4346 C4355 1.390 . S
C4347 C4346 1.387 . S
C4347 C4349 1.387 . S
H4348 C4355 0.950 . S
C4349 C4347 1.387 . S
C4349 C4351 1.390 . S
C4349 H4353 0.950 . S
H4350 C4346 0.950 . S
C4351 C4349 1.390 . S
C4351 C4352 1.387 . S
C4351 H4354 0.950 . S
C4352 C4351 1.387 . S
C4352 C4355 1.387 . S
H4353 C4349 0.950 . S
H4354 C4351 0.950 . S
C4355 C4346 1.390 . S
C4355 H4348 0.950 . S
C4355 C4352 1.387 . S
C4356 C4357 1.387 . S
C4356 H4360 0.950 . S
C4356 C4365 1.390 . S
C4357 C4356 1.387 . S
C4357 C4359 1.387 . S
H4358 C4365 0.950 . S
C4359 C4357 1.387 . S
C4359 C4361 1.390 . S
C4359 H4363 0.950 . S
H4360 C4356 0.950 . S
C4361 C4359 1.390 . S
C4361 C4362 1.387 . S
C4361 H4364 0.950 . S
C4362 C4361 1.387 . S
C4362 C4365 1.387 . S
H4363 C4359 0.950 . S
H4364 C4361 0.950 . S
C4365 C4356 1.390 . S
C4365 H4358 0.950 . S
C4365 C4362 1.387 . S
C4366 C4367 1.387 . S
C4366 H4370 0.950 . S
C4366 C4375 1.390 . S
C4367 C4366 1.387 . S
C4367 C4369 1.387 . S
H4368 C4375 0.950 . S
C4369 C4367 1.387 . S
C4369 C4371 1.390 . S
C4369 H4373 0.950 . S
H4370 C4366 0.950 . S
C4371 C4369 1.390 . S
C4371 C4372 1.387 . S
C4371 H4374 0.950 . S
C4372 C4371 1.387 . S
C4372 C4375 1.387 . S
H4373 C4369 0.950 . S
H4374 C4371 0.950 . S
C4375 C4366 1.390 . S
C4375 H4368 0.950 . S
C4375 C4372 1.387 . S
C4376 C4377 1.387 . S
C4376 H4380 0.950 . S
C4376 C4385 1.390 . S
C4377 C4376 1.387 . S
C4377 C4379 1.387 . S
H4378 C4385 0.950 . S
C4379 C4377 1.387 . S
C4379 C4381 1.390 . S
C4379 H4383 0.950 . S
H4380 C4376 0.950 . S
C4381 C4379 1.390 . S
C4381 C4382 1.387 . S
C4381 H4384 0.950 . S
C4382 C4381 1.387 . S
C4382 C4385 1.387 . S
H4383 C4379 0.950 . S
H4384 C4381 0.950 . S
C4385 C4376 1.390 . S
C4385 H4378 0.950 . S
C4385 C4382 1.387 . S
C4386 C4387 1.387 . S
C4386 H4390 0.950 . S
C4386 C4395 1.390 . S
C4387 C4386 1.387 . S
C4387 C4389 1.387 . S
H4388 C4395 0.950 . S
C4389 C4387 1.387 . S
C4389 C4391 1.390 . S
C4389 H4393 0.950 . S
H4390 C4386 0.950 . S
C4391 C4389 1.390 . S
C4391 C4392 1.387 . S
C4391 H4394 0.950 . S
C4392 C4391 1.387 . S
C4392 C4395 1.387 . S
H4393 C4389 0.950 . S
H4394 C4391 0.950 . S
C4395 C4386 1.390 . S
C4395 H4388 0.950 . S
C4395 C4392 1.387 . S
C4396 C4397 1.387 . S
C4396 H4400 0.950 . S
C4396 C4405 1.390 . S
C4397 C4396 1.387 . S
C4397 C4399 1.387 . S
H4398 C4405 0.950 . S
C4399 C4397 1.387 . S
C4399 C4401 1.390 . S
C4399 H4403 0.950 . S
H4400 C4396 0.950 . S
C4401 C4399 1.390 . S
C4401 C4402 1.387 . S
C4401 H4404 0.950 . S
C4402 C4401 1.387 . S
C4402 C4405 1.387 . S
H4403 C4399 0.950 . S
H4404 C4401 0.950 . S
C4405 C4396 1.390 . S
C4405 H4398 0.950 . S
C4405 C4402 1.387 . S
C4406 C4407 1.387 . S
C4406 H4410 0.950 . S
C4406 C4415 1.390 . S
C4407 C4406 1.387 . S
C4407 C4409 1.387 . S
H4408 C4415 0.950 . S
C4409 C4407 1.387 . S
C4409 C4411 1.390 . S
C4409 H4413 0.950 . S
H4410 C4406 0.950 . S
C4411 C4409 1.390 . S
C4411 C4412 1.387 . S
C4411 H4414 0.950 . S
C4412 C4411 1.387 . S
C4412 C4415 1.387 . S
H4413 C4409 0.950 . S
H4414 C4411 0.950 . S
C4415 C4406 1.390 . S
C4415 H4408 0.950 . S
C4415 C4412 1.387 . S
C4416 C4417 1.387 . S
C4416 H4420 0.950 . S
C4416 C4425 1.390 . S
C4417 C4416 1.387 . S
C4417 C4419 1.387 . S
H4418 C4425 0.950 . S
C4419 C4417 1.387 . S
C4419 C4421 1.390 . S
C4419 H4423 0.950 . S
H4420 C4416 0.950 . S
C4421 C4419 1.390 . S
C4421 C4422 1.387 . S
C4421 H4424 0.950 . S
C4422 C4421 1.387 . S
C4422 C4425 1.387 . S
H4423 C4419 0.950 . S
H4424 C4421 0.950 . S
C4425 C4416 1.390 . S
C4425 H4418 0.950 . S
C4425 C4422 1.387 . S
C4426 C4427 1.387 . S
C4426 H4430 0.950 . S
C4426 C4435 1.390 . S
C4427 C4426 1.387 . S
C4427 C4429 1.387 . S
H4428 C4435 0.950 . S
C4429 C4427 1.387 . S
C4429 C4431 1.390 . S
C4429 H4433 0.950 . S
H4430 C4426 0.950 . S
C4431 C4429 1.390 . S
C4431 C4432 1.387 . S
C4431 H4434 0.950 . S
C4432 C4431 1.387 . S
C4432 C4435 1.387 . S
H4433 C4429 0.950 . S
H4434 C4431 0.950 . S
C4435 C4426 1.390 . S
C4435 H4428 0.950 . S
C4435 C4432 1.387 . S
C4436 C4437 1.387 . S
C4436 H4440 0.950 . S
C4436 C4445 1.390 . S
C4437 C4436 1.387 . S
C4437 C4439 1.387 . S
H4438 C4445 0.950 . S
C4439 C4437 1.387 . S
C4439 C4441 1.390 . S
C4439 H4443 0.950 . S
H4440 C4436 0.950 . S
C4441 C4439 1.390 . S
C4441 C4442 1.387 . S
C4441 H4444 0.950 . S
C4442 C4441 1.387 . S
C4442 C4445 1.387 . S
H4443 C4439 0.950 . S
H4444 C4441 0.950 . S
C4445 C4436 1.390 . S
C4445 H4438 0.950 . S
C4445 C4442 1.387 . S
C4446 C4447 1.387 . S
C4446 H4450 0.950 . S
C4446 C4455 1.390 . S
C4447 C4446 1.387 . S
C4447 C4449 1.387 . S
H4448 C4455 0.950 . S
C4449 C4447 1.387 . S
C4449 C4451 1.390 . S
C4449 H4453 0.950 . S
H4450 C4446 0.950 . S
C4451 C4449 1.390 . S
C4451 C4452 1.387 . S
C4451 H4454 0.950 . S
C4452 C4451 1.387 . S
C4452 C4455 1.387 . S
H4453 C4449 0.950 . S
H4454 C4451 0.950 . S
C4455 C4446 1.390 . S
C4455 H4448 0.950 . S
C4455 C4452 1.387 . S
C4456 C4457 1.387 . S
C4456 H4460 0.950 . S
C4456 C4465 1.390 . S
C4457 C4456 1.387 . S
C4457 C4459 1.387 . S
H4458 C4465 0.950 . S
C4459 C4457 1.387 . S
C4459 C4461 1.390 . S
C4459 H4463 0.950 . S
H4460 C4456 0.950 . S
C4461 C4459 1.390 . S
C4461 C4462 1.387 . S
C4461 H4464 0.950 . S
C4462 C4461 1.387 . S
C4462 C4465 1.387 . S
H4463 C4459 0.950 . S
H4464 C4461 0.950 . S
C4465 C4456 1.390 . S
C4465 H4458 0.950 . S
C4465 C4462 1.387 . S
C4466 C4467 1.387 . S
C4466 H4470 0.950 . S
C4466 C4475 1.390 . S
C4467 C4466 1.387 . S
C4467 C4469 1.387 . S
H4468 C4475 0.950 . S
C4469 C4467 1.387 . S
C4469 C4471 1.390 . S
C4469 H4473 0.950 . S
H4470 C4466 0.950 . S
C4471 C4469 1.390 . S
C4471 C4472 1.387 . S
C4471 H4474 0.950 . S
C4472 C4471 1.387 . S
C4472 C4475 1.387 . S
H4473 C4469 0.950 . S
H4474 C4471 0.950 . S
C4475 C4466 1.390 . S
C4475 H4468 0.950 . S
C4475 C4472 1.387 . S
C4476 C4477 1.387 . S
C4476 H4480 0.950 . S
C4476 C4485 1.390 . S
C4477 C4476 1.387 . S
C4477 C4479 1.387 . S
H4478 C4485 0.950 . S
C4479 C4477 1.387 . S
C4479 C4481 1.390 . S
C4479 H4483 0.950 . S
H4480 C4476 0.950 . S
C4481 C4479 1.390 . S
C4481 C4482 1.387 . S
C4481 H4484 0.950 . S
C4482 C4481 1.387 . S
C4482 C4485 1.387 . S
H4483 C4479 0.950 . S
H4484 C4481 0.950 . S
C4485 C4476 1.390 . S
C4485 H4478 0.950 . S
C4485 C4482 1.387 . S
C4486 C4487 1.387 . S
C4486 H4490 0.950 . S
C4486 C4495 1.390 . S
C4487 C4486 1.387 . S
C4487 C4489 1.387 . S
H4488 C4495 0.950 . S
C4489 C4487 1.387 . S
C4489 C4491 1.390 . S
C4489 H4493 0.950 . S
H4490 C4486 0.950 . S
C4491 C4489 1.390 . S
C4491 C4492 1.387 . S
C4491 H4494 0.950 . S
C4492 C4491 1.387 . S
C4492 C4495 1.387 . S
H4493 C4489 0.950 . S
H4494 C4491 0.950 . S
C4495 C4486 1.390 . S
C4495 H4488 0.950 . S
C4495 C4492 1.387 . S
C4496 C4497 1.387 . S
C4496 H4500 0.950 . S
C4496 C4505 1.390 . S
C4497 C4496 1.387 . S
C4497 C4499 1.387 . S
H4498 C4505 0.950 . S
C4499 C4497 1.387 . S
C4499 C4501 1.390 . S
C4499 H4503 0.950 . S
H4500 C4496 0.950 . S
C4501 C4499 1.390 . S
C4501 C4502 1.387 . S
C4501 H4504 0.950 . S
C4502 C4501 1.387 . S
C4502 C4505 1.387 . S
H4503 C4499 0.950 . S
H4504 C4501 0.950 . S
C4505 C4496 1.390 . S
C4505 H4498 0.950 . S
C4505 C4502 1.387 . S
C4506 C4507 1.387 . S
C4506 H4510 0.950 . S
C4506 C4515 1.390 . S
C4507 C4506 1.387 . S
C4507 C4509 1.387 . S
H4508 C4515 0.950 . S
C4509 C4507 1.387 . S
C4509 C4511 1.390 . S
C4509 H4513 0.950 . S
H4510 C4506 0.950 . S
C4511 C4509 1.390 . S
C4511 C4512 1.387 . S
C4511 H4514 0.950 . S
C4512 C4511 1.387 . S
C4512 C4515 1.387 . S
H4513 C4509 0.950 . S
H4514 C4511 0.950 . S
C4515 C4506 1.390 . S
C4515 H4508 0.950 . S
C4515 C4512 1.387 . S
C4516 C4517 1.387 . S
C4516 H4520 0.950 . S
C4516 C4525 1.390 . S
C4517 C4516 1.387 . S
C4517 C4519 1.387 . S
H4518 C4525 0.950 . S
C4519 C4517 1.387 . S
C4519 C4521 1.390 . S
C4519 H4523 0.950 . S
H4520 C4516 0.950 . S
C4521 C4519 1.390 . S
C4521 C4522 1.387 . S
C4521 H4524 0.950 . S
C4522 C4521 1.387 . S
C4522 C4525 1.387 . S
H4523 C4519 0.950 . S
H4524 C4521 0.950 . S
C4525 C4516 1.390 . S
C4525 H4518 0.950 . S
C4525 C4522 1.387 . S
C4526 C4527 1.387 . S
C4526 H4530 0.950 . S
C4526 C4535 1.390 . S
C4527 C4526 1.387 . S
C4527 C4529 1.387 . S
H4528 C4535 0.950 . S
C4529 C4527 1.387 . S
C4529 C4531 1.390 . S
C4529 H4533 0.950 . S
H4530 C4526 0.950 . S
C4531 C4529 1.390 . S
C4531 C4532 1.387 . S
C4531 H4534 0.950 . S
C4532 C4531 1.387 . S
C4532 C4535 1.387 . S
H4533 C4529 0.950 . S
H4534 C4531 0.950 . S
C4535 C4526 1.390 . S
C4535 H4528 0.950 . S
C4535 C4532 1.387 . S
C4536 C4537 1.387 . S
C4536 H4540 0.950 . S
C4536 C4545 1.390 . S
C4537 C4536 1.387 . S
C4537 C4539 1.387 . S
H4538 C4545 0.950 . S
C4539 C4537 1.387 . S
C4539 C4541 1.390 . S
C4539 H4543 0.950 . S
H4540 C4536 0.950 . S
C4541 C4539 1.390 . S
C4541 C4542 1.387 . S
C4541 H4544 0.950 . S
C4542 C4541 1.387 . S
C4542 C4545 1.387 . S
H4543 C4539 0.950 . S
H4544 C4541 0.950 . S
C4545 C4536 1.390 . S
C4545 H4538 0.950 . S
C4545 C4542 1.387 . S
C4546 C4547 1.387 . S
C4546 H4550 0.950 . S
C4546 C4555 1.390 . S
C4547 C4546 1.387 . S
C4547 C4549 1.387 . S
H4548 C4555 0.950 . S
C4549 C4547 1.387 . S
C4549 C4551 1.390 . S
C4549 H4553 0.950 . S
H4550 C4546 0.950 . S
C4551 C4549 1.390 . S
C4551 C4552 1.387 . S
C4551 H4554 0.950 . S
C4552 C4551 1.387 . S
C4552 C4555 1.387 . S
H4553 C4549 0.950 . S
H4554 C4551 0.950 . S
C4555 C4546 1.390 . S
C4555 H4548 0.950 . S
C4555 C4552 1.387 . S
C4556 C4557 1.387 . S
C4556 H4560 0.950 . S
C4556 C4565 1.390 . S
C4557 C4556 1.387 . S
C4557 C4559 1.387 . S
H4558 C4565 0.950 . S
C4559 C4557 1.387 . S
C4559 C4561 1.390 . S
C4559 H4563 0.950 . S
H4560 C4556 0.950 . S
C4561 C4559 1.390 . S
C4561 C4562 1.387 . S
C4561 H4564 0.950 . S
C4562 C4561 1.387 . S
C4562 C4565 1.387 . S
H4563 C4559 0.950 . S
H4564 C4561 0.950 . S
C4565 C4556 1.390 . S
C4565 H4558 0.950 . S
C4565 C4562 1.387 . S
C4566 C4567 1.387 . S
C4566 H4570 0.950 . S
C4566 C4575 1.390 . S
C4567 C4566 1.387 . S
C4567 C4569 1.387 . S
H4568 C4575 0.950 . S
C4569 C4567 1.387 . S
C4569 C4571 1.390 . S
C4569 H4573 0.950 . S
H4570 C4566 0.950 . S
C4571 C4569 1.390 . S
C4571 C4572 1.387 . S
C4571 H4574 0.950 . S
C4572 C4571 1.387 . S
C4572 C4575 1.387 . S
H4573 C4569 0.950 . S
H4574 C4571 0.950 . S
C4575 C4566 1.390 . S
C4575 H4568 0.950 . S
C4575 C4572 1.387 . S
C4576 C4577 1.387 . S
C4576 H4580 0.950 . S
C4576 C4585 1.390 . S
C4577 C4576 1.387 . S
C4577 C4579 1.387 . S
H4578 C4585 0.950 . S
C4579 C4577 1.387 . S
C4579 C4581 1.390 . S
C4579 H4583 0.950 . S
H4580 C4576 0.950 . S
C4581 C4579 1.390 . S
C4581 C4582 1.387 . S
C4581 H4584 0.950 . S
C4582 C4581 1.387 . S
C4582 C4585 1.387 . S
H4583 C4579 0.950 . S
H4584 C4581 0.950 . S
C4585 C4576 1.390 . S
C4585 H4578 0.950 . S
C4585 C4582 1.387 . S
C4586 C4587 1.387 . S
C4586 H4590 0.950 . S
C4586 C4595 1.390 . S
C4587 C4586 1.387 . S
C4587 C4589 1.387 . S
H4588 C4595 0.950 . S
C4589 C4587 1.387 . S
C4589 C4591 1.390 . S
C4589 H4593 0.950 . S
H4590 C4586 0.950 . S
C4591 C4589 1.390 . S
C4591 C4592 1.387 . S
C4591 H4594 0.950 . S
C4592 C4591 1.387 . S
C4592 C4595 1.387 . S
H4593 C4589 0.950 . S
H4594 C4591 0.950 . S
C4595 C4586 1.390 . S
C4595 H4588 0.950 . S
C4595 C4592 1.387 . S
C4596 C4597 1.387 . S
C4596 H4600 0.950 . S
C4596 C4605 1.390 . S
C4597 C4596 1.387 . S
C4597 C4599 1.387 . S
H4598 C4605 0.950 . S
C4599 C4597 1.387 . S
C4599 C4601 1.390 . S
C4599 H4603 0.950 . S
H4600 C4596 0.950 . S
C4601 C4599 1.390 . S
C4601 C4602 1.387 . S
C4601 H4604 0.950 . S
C4602 C4601 1.387 . S
C4602 C4605 1.387 . S
H4603 C4599 0.950 . S
H4604 C4601 0.950 . S
C4605 C4596 1.390 . S
C4605 H4598 0.950 . S
C4605 C4602 1.387 . S
C4606 C4607 1.387 . S
C4606 H4610 0.950 . S
C4606 C4615 1.390 . S
C4607 C4606 1.387 . S
C4607 C4609 1.387 . S
H4608 C4615 0.950 . S
C4609 C4607 1.387 . S
C4609 C4611 1.390 . S
C4609 H4613 0.950 . S
H4610 C4606 0.950 . S
C4611 C4609 1.390 . S
C4611 C4612 1.387 . S
C4611 H4614 0.950 . S
C4612 C4611 1.387 . S
C4612 C4615 1.387 . S
H4613 C4609 0.950 . S
H4614 C4611 0.950 . S
C4615 C4606 1.390 . S
C4615 H4608 0.950 . S
C4615 C4612 1.387 . S
C4616 C4617 1.387 . S
C4616 H4620 0.950 . S
C4616 C4625 1.390 . S
C4617 C4616 1.387 . S
C4617 C4619 1.387 . S
H4618 C4625 0.950 . S
C4619 C4617 1.387 . S
C4619 C4621 1.390 . S
C4619 H4623 0.950 . S
H4620 C4616 0.950 . S
C4621 C4619 1.390 . S
C4621 C4622 1.387 . S
C4621 H4624 0.950 . S
C4622 C4621 1.387 . S
C4622 C4625 1.387 . S
H4623 C4619 0.950 . S
H4624 C4621 0.950 . S
C4625 C4616 1.390 . S
C4625 H4618 0.950 . S
C4625 C4622 1.387 . S
C4626 C4627 1.387 . S
C4626 H4630 0.950 . S
C4626 C4635 1.390 . S
C4627 C4626 1.387 . S
C4627 C4629 1.387 . S
H4628 C4635 0.950 . S
C4629 C4627 1.387 . S
C4629 C4631 1.390 . S
C4629 H4633 0.950 . S
H4630 C4626 0.950 . S
C4631 C4629 1.390 . S
C4631 C4632 1.387 . S
C4631 H4634 0.950 . S
C4632 C4631 1.387 . S
C4632 C4635 1.387 . S
H4633 C4629 0.950 . S
H4634 C4631 0.950 . S
C4635 C4626 1.390 . S
C4635 H4628 0.950 . S
C4635 C4632 1.387 . S
C4636 C4637 1.387 . S
C4636 H4640 0.950 . S
C4636 C4645 1.390 . S
C4637 C4636 1.387 . S
C4637 C4639 1.387 . S
H4638 C4645 0.950 . S
C4639 C4637 1.387 . S
C4639 C4641 1.390 . S
C4639 H4643 0.950 . S
H4640 C4636 0.950 . S
C4641 C4639 1.390 . S
C4641 C4642 1.387 . S
C4641 H4644 0.950 . S
C4642 C4641 1.387 . S
C4642 C4645 1.387 . S
H4643 C4639 0.950 . S
H4644 C4641 0.950 . S
C4645 C4636 1.390 . S
C4645 H4638 0.950 . S
C4645 C4642 1.387 . S
C4646 C4647 1.387 . S
C4646 H4650 0.950 . S
C4646 C4655 1.390 . S
C4647 C4646 1.387 . S
C4647 C4649 1.387 . S
H4648 C4655 0.950 . S
C4649 C4647 1.387 . S
C4649 C4651 1.390 . S
C4649 H4653 0.950 . S
H4650 C4646 0.950 . S
C4651 C4649 1.390 . S
C4651 C4652 1.387 . S
C4651 H4654 0.950 . S
C4652 C4651 1.387 . S
C4652 C4655 1.387 . S
H4653 C4649 0.950 . S
H4654 C4651 0.950 . S
C4655 C4646 1.390 . S
C4655 H4648 0.950 . S
C4655 C4652 1.387 . S
C4656 C4657 1.387 . S
C4656 H4660 0.950 . S
C4656 C4665 1.390 . S
C4657 C4656 1.387 . S
C4657 C4659 1.387 . S
H4658 C4665 0.950 . S
C4659 C4657 1.387 . S
C4659 C4661 1.390 . S
C4659 H4663 0.950 . S
H4660 C4656 0.950 . S
C4661 C4659 1.390 . S
C4661 C4662 1.387 . S
C4661 H4664 0.950 . S
C4662 C4661 1.387 . S
C4662 C4665 1.387 . S
H4663 C4659 0.950 . S
H4664 C4661 0.950 . S
C4665 C4656 1.390 . S
C4665 H4658 0.950 . S
C4665 C4662 1.387 . S
C4666 C4667 1.387 . S
C4666 H4670 0.950 . S
C4666 C4675 1.390 . S
C4667 C4666 1.387 . S
C4667 C4669 1.387 . S
H4668 C4675 0.950 . S
C4669 C4667 1.387 . S
C4669 C4671 1.390 . S
C4669 H4673 0.950 . S
H4670 C4666 0.950 . S
C4671 C4669 1.390 . S
C4671 C4672 1.387 . S
C4671 H4674 0.950 . S
C4672 C4671 1.387 . S
C4672 C4675 1.387 . S
H4673 C4669 0.950 . S
H4674 C4671 0.950 . S
C4675 C4666 1.390 . S
C4675 H4668 0.950 . S
C4675 C4672 1.387 . S
C4676 C4677 1.387 . S
C4676 H4680 0.950 . S
C4676 C4685 1.390 . S
C4677 C4676 1.387 . S
C4677 C4679 1.387 . S
H4678 C4685 0.950 . S
C4679 C4677 1.387 . S
C4679 C4681 1.390 . S
C4679 H4683 0.950 . S
H4680 C4676 0.950 . S
C4681 C4679 1.390 . S
C4681 C4682 1.387 . S
C4681 H4684 0.950 . S
C4682 C4681 1.387 . S
C4682 C4685 1.387 . S
H4683 C4679 0.950 . S
H4684 C4681 0.950 . S
C4685 C4676 1.390 . S
C4685 H4678 0.950 . S
C4685 C4682 1.387 . S
C4686 C4687 1.387 . S
C4686 H4690 0.950 . S
C4686 C4695 1.390 . S
C4687 C4686 1.387 . S
C4687 C4689 1.387 . S
H4688 C4695 0.950 . S
C4689 C4687 1.387 . S
C4689 C4691 1.390 . S
C4689 H4693 0.950 . S
H4690 C4686 0.950 . S
C4691 C4689 1.390 . S
C4691 C4692 1.387 . S
C4691 H4694 0.950 . S
C4692 C4691 1.387 . S
C4692 C4695 1.387 . S
H4693 C4689 0.950 . S
H4694 C4691 0.950 . S
C4695 C4686 1.390 . S
C4695 H4688 0.950 . S
C4695 C4692 1.387 . S
C4696 C4697 1.387 . S
C4696 H4700 0.950 . S
C4696 C4705 1.390 . S
C4697 C4696 1.387 . S
C4697 C4699 1.387 . S
H4698 C4705 0.950 . S
C4699 C4697 1.387 . S
C4699 C4701 1.390 . S
C4699 H4703 0.950 . S
H4700 C4696 0.950 . S
C4701 C4699 1.390 . S
C4701 C4702 1.387 . S
C4701 H4704 0.950 . S
C4702 C4701 1.387 . S
C4702 C4705 1.387 . S
H4703 C4699 0.950 . S
H4704 C4701 0.950 . S
C4705 C4696 1.390 . S
C4705 H4698 0.950 . S
C4705 C4702 1.387 . S
C4706 C4707 1.387 . S
C4706 H4710 0.950 . S
C4706 C4715 1.390 . S
C4707 C4706 1.387 . S
C4707 C4709 1.387 . S
H4708 C4715 0.950 . S
C4709 C4707 1.387 . S
C4709 C4711 1.390 . S
C4709 H4713 0.950 . S
H4710 C4706 0.950 . S
C4711 C4709 1.390 . S
C4711 C4712 1.387 . S
C4711 H4714 0.950 . S
C4712 C4711 1.387 . S
C4712 C4715 1.387 . S
H4713 C4709 0.950 . S
H4714 C4711 0.950 . S
C4715 C4706 1.390 . S
C4715 H4708 0.950 . S
C4715 C4712 1.387 . S
C4716 C4717 1.387 . S
C4716 H4720 0.950 . S
C4716 C4725 1.390 . S
C4717 C4716 1.387 . S
C4717 C4719 1.387 . S
H4718 C4725 0.950 . S
C4719 C4717 1.387 . S
C4719 C4721 1.390 . S
C4719 H4723 0.950 . S
H4720 C4716 0.950 . S
C4721 C4719 1.390 . S
C4721 C4722 1.387 . S
C4721 H4724 0.950 . S
C4722 C4721 1.387 . S
C4722 C4725 1.387 . S
H4723 C4719 0.950 . S
H4724 C4721 0.950 . S
C4725 C4716 1.390 . S
C4725 H4718 0.950 . S
C4725 C4722 1.387 . S
C4726 C4727 1.387 . S
C4726 H4730 0.950 . S
C4726 C4735 1.390 . S
C4727 C4726 1.387 . S
C4727 C4729 1.387 . S
H4728 C4735 0.950 . S
C4729 C4727 1.387 . S
C4729 C4731 1.390 . S
C4729 H4733 0.950 . S
H4730 C4726 0.950 . S
C4731 C4729 1.390 . S
C4731 C4732 1.387 . S
C4731 H4734 0.950 . S
C4732 C4731 1.387 . S
C4732 C4735 1.387 . S
H4733 C4729 0.950 . S
H4734 C4731 0.950 . S
C4735 C4726 1.390 . S
C4735 H4728 0.950 . S
C4735 C4732 1.387 . S
C4736 C4737 1.387 . S
C4736 H4740 0.950 . S
C4736 C4745 1.390 . S
C4737 C4736 1.387 . S
C4737 C4739 1.387 . S
H4738 C4745 0.950 . S
C4739 C4737 1.387 . S
C4739 C4741 1.390 . S
C4739 H4743 0.950 . S
H4740 C4736 0.950 . S
C4741 C4739 1.390 . S
C4741 C4742 1.387 . S
C4741 H4744 0.950 . S
C4742 C4741 1.387 . S
C4742 C4745 1.387 . S
H4743 C4739 0.950 . S
H4744 C4741 0.950 . S
C4745 C4736 1.390 . S
C4745 H4738 0.950 . S
C4745 C4742 1.387 . S
C4746 C4747 1.387 . S
C4746 H4750 0.950 . S
C4746 C4755 1.390 . S
C4747 C4746 1.387 . S
C4747 C4749 1.387 . S
H4748 C4755 0.950 . S
C4749 C4747 1.387 . S
C4749 C4751 1.390 . S
C4749 H4753 0.950 . S
H4750 C4746 0.950 . S
C4751 C4749 1.390 . S
C4751 C4752 1.387 . S
C4751 H4754 0.950 . S
C4752 C4751 1.387 . S
C4752 C4755 1.387 . S
H4753 C4749 0.950 . S
H4754 C4751 0.950 . S
C4755 C4746 1.390 . S
C4755 H4748 0.950 . S
C4755 C4752 1.387 . S
C4756 C4757 1.387 . S
C4756 H4760 0.950 . S
C4756 C4765 1.390 . S
C4757 C4756 1.387 . S
C4757 C4759 1.387 . S
H4758 C4765 0.950 . S
C4759 C4757 1.387 . S
C4759 C4761 1.390 . S
C4759 H4763 0.950 . S
H4760 C4756 0.950 . S
C4761 C4759 1.390 . S
C4761 C4762 1.387 . S
C4761 H4764 0.950 . S
C4762 C4761 1.387 . S
C4762 C4765 1.387 . S
H4763 C4759 0.950 . S
H4764 C4761 0.950 . S
C4765 C4756 1.390 . S
C4765 H4758 0.950 . S
C4765 C4762 1.387 . S
C4766 C4767 1.387 . S
C4766 H4770 0.950 . S
C4766 C4775 1.390 . S
C4767 C4766 1.387 . S
C4767 C4769 1.387 . S
H4768 C4775 0.950 . S
C4769 C4767 1.387 . S
C4769 C4771 1.390 . S
C4769 H4773 0.950 . S
H4770 C4766 0.950 . S
C4771 C4769 1.390 . S
C4771 C4772 1.387 . S
C4771 H4774 0.950 . S
C4772 C4771 1.387 . S
C4772 C4775 1.387 . S
H4773 C4769 0.950 . S
H4774 C4771 0.950 . S
C4775 C4766 1.390 . S
C4775 H4768 0.950 . S
C4775 C4772 1.387 . S
C4776 C4777 1.387 . S
C4776 H4780 0.950 . S
C4776 C4785 1.390 . S
C4777 C4776 1.387 . S
C4777 C4779 1.387 . S
H4778 C4785 0.950 . S
C4779 C4777 1.387 . S
C4779 C4781 1.390 . S
C4779 H4783 0.950 . S
H4780 C4776 0.950 . S
C4781 C4779 1.390 . S
C4781 C4782 1.387 . S
C4781 H4784 0.950 . S
C4782 C4781 1.387 . S
C4782 C4785 1.387 . S
H4783 C4779 0.950 . S
H4784 C4781 0.950 . S
C4785 C4776 1.390 . S
C4785 H4778 0.950 . S
C4785 C4782 1.387 . S
C4786 C4787 1.387 . S
C4786 H4790 0.950 . S
C4786 C4795 1.390 . S
C4787 C4786 1.387 . S
C4787 C4789 1.387 . S
H4788 C4795 0.950 . S
C4789 C4787 1.387 . S
C4789 C4791 1.390 . S
C4789 H4793 0.950 . S
H4790 C4786 0.950 . S
C4791 C4789 1.390 . S
C4791 C4792 1.387 . S
C4791 H4794 0.950 . S
C4792 C4791 1.387 . S
C4792 C4795 1.387 . S
H4793 C4789 0.950 . S
H4794 C4791 0.950 . S
C4795 C4786 1.390 . S
C4795 H4788 0.950 . S
C4795 C4792 1.387 . S
C4796 C4797 1.387 . S
C4796 H4800 0.950 . S
C4796 C4805 1.390 . S
C4797 C4796 1.387 . S
C4797 C4799 1.387 . S
H4798 C4805 0.950 . S
C4799 C4797 1.387 . S
C4799 C4801 1.390 . S
C4799 H4803 0.950 . S
H4800 C4796 0.950 . S
C4801 C4799 1.390 . S
C4801 C4802 1.387 . S
C4801 H4804 0.950 . S
C4802 C4801 1.387 . S
C4802 C4805 1.387 . S
H4803 C4799 0.950 . S
H4804 C4801 0.950 . S
C4805 C4796 1.390 . S
C4805 H4798 0.950 . S
C4805 C4802 1.387 . S
C4806 C4807 1.387 . S
C4806 H4810 0.950 . S
C4806 C4815 1.390 . S
C4807 C4806 1.387 . S
C4807 C4809 1.387 . S
H4808 C4815 0.950 . S
C4809 C4807 1.387 . S
C4809 C4811 1.390 . S
C4809 H4813 0.950 . S
H4810 C4806 0.950 . S
C4811 C4809 1.390 . S
C4811 C4812 1.387 . S
C4811 H4814 0.950 . S
C4812 C4811 1.387 . S
C4812 C4815 1.387 . S
H4813 C4809 0.950 . S
H4814 C4811 0.950 . S
C4815 C4806 1.390 . S
C4815 H4808 0.950 . S
C4815 C4812 1.387 . S
C4816 C4817 1.387 . S
C4816 H4820 0.950 . S
C4816 C4825 1.390 . S
C4817 C4816 1.387 . S
C4817 C4819 1.387 . S
H4818 C4825 0.950 . S
C4819 C4817 1.387 . S
C4819 C4821 1.390 . S
C4819 H4823 0.950 . S
H4820 C4816 0.950 . S
C4821 C4819 1.390 . S
C4821 C4822 1.387 . S
C4821 H4824 0.950 . S
C4822 C4821 1.387 . S
C4822 C4825 1.387 . S
H4823 C4819 0.950 . S
H4824 C4821 0.950 . S
C4825 C4816 1.390 . S
C4825 H4818 0.950 . S
C4825 C4822 1.387 . S
C4826 C4827 1.387 . S
C4826 H4830 0.950 . S
C4826 C4835 1.390 . S
C4827 C4826 1.387 . S
C4827 C4829 1.387 . S
H4828 C4835 0.950 . S
C4829 C4827 1.387 . S
C4829 C4831 1.390 . S
C4829 H4833 0.950 . S
H4830 C4826 0.950 . S
C4831 C4829 1.390 . S
C4831 C4832 1.387 . S
C4831 H4834 0.950 . S
C4832 C4831 1.387 . S
C4832 C4835 1.387 . S
H4833 C4829 0.950 . S
H4834 C4831 0.950 . S
C4835 C4826 1.390 . S
C4835 H4828 0.950 . S
C4835 C4832 1.387 . S
C4836 C4837 1.387 . S
C4836 H4840 0.950 . S
C4836 C4845 1.390 . S
C4837 C4836 1.387 . S
C4837 C4839 1.387 . S
H4838 C4845 0.950 . S
C4839 C4837 1.387 . S
C4839 C4841 1.390 . S
C4839 H4843 0.950 . S
H4840 C4836 0.950 . S
C4841 C4839 1.390 . S
C4841 C4842 1.387 . S
C4841 H4844 0.950 . S
C4842 C4841 1.387 . S
C4842 C4845 1.387 . S
H4843 C4839 0.950 . S
H4844 C4841 0.950 . S
C4845 C4836 1.390 . S
C4845 H4838 0.950 . S
C4845 C4842 1.387 . S
C4846 C4847 1.387 . S
C4846 H4850 0.950 . S
C4846 C4855 1.390 . S
C4847 C4846 1.387 . S
C4847 C4849 1.387 . S
H4848 C4855 0.950 . S
C4849 C4847 1.387 . S
C4849 C4851 1.390 . S
C4849 H4853 0.950 . S
H4850 C4846 0.950 . S
C4851 C4849 1.390 . S
C4851 C4852 1.387 . S
C4851 H4854 0.950 . S
C4852 C4851 1.387 . S
C4852 C4855 1.387 . S
H4853 C4849 0.950 . S
H4854 C4851 0.950 . S
C4855 C4846 1.390 . S
C4855 H4848 0.950 . S
C4855 C4852 1.387 . S
C4856 C4857 1.387 . S
C4856 H4860 0.950 . S
C4856 C4865 1.390 . S
C4857 C4856 1.387 . S
C4857 C4859 1.387 . S
H4858 C4865 0.950 . S
C4859 C4857 1.387 . S
C4859 C4861 1.390 . S
C4859 H4863 0.950 . S
H4860 C4856 0.950 . S
C4861 C4859 1.390 . S
C4861 C4862 1.387 . S
C4861 H4864 0.950 . S
C4862 C4861 1.387 . S
C4862 C4865 1.387 . S
H4863 C4859 0.950 . S
H4864 C4861 0.950 . S
C4865 C4856 1.390 . S
C4865 H4858 0.950 . S
C4865 C4862 1.387 . S
C4866 C4867 1.387 . S
C4866 H4870 0.950 . S
C4866 C4875 1.390 . S
C4867 C4866 1.387 . S
C4867 C4869 1.387 . S
H4868 C4875 0.950 . S
C4869 C4867 1.387 . S
C4869 C4871 1.390 . S
C4869 H4873 0.950 . S
H4870 C4866 0.950 . S
C4871 C4869 1.390 . S
C4871 C4872 1.387 . S
C4871 H4874 0.950 . S
C4872 C4871 1.387 . S
C4872 C4875 1.387 . S
H4873 C4869 0.950 . S
H4874 C4871 0.950 . S
C4875 C4866 1.390 . S
C4875 H4868 0.950 . S
C4875 C4872 1.387 . S
C4876 C4877 1.387 . S
C4876 H4880 0.950 . S
C4876 C4885 1.390 . S
C4877 C4876 1.387 . S
C4877 C4879 1.387 . S
H4878 C4885 0.950 . S
C4879 C4877 1.387 . S
C4879 C4881 1.390 . S
C4879 H4883 0.950 . S
H4880 C4876 0.950 . S
C4881 C4879 1.390 . S
C4881 C4882 1.387 . S
C4881 H4884 0.950 . S
C4882 C4881 1.387 . S
C4882 C4885 1.387 . S
H4883 C4879 0.950 . S
H4884 C4881 0.950 . S
C4885 C4876 1.390 . S
C4885 H4878 0.950 . S
C4885 C4882 1.387 . S
C4886 C4887 1.387 . S
C4886 H4890 0.950 . S
C4886 C4895 1.390 . S
C4887 C4886 1.387 . S
C4887 C4889 1.387 . S
H4888 C4895 0.950 . S
C4889 C4887 1.387 . S
C4889 C4891 1.390 . S
C4889 H4893 0.950 . S
H4890 C4886 0.950 . S
C4891 C4889 1.390 . S
C4891 C4892 1.387 . S
C4891 H4894 0.950 . S
C4892 C4891 1.387 . S
C4892 C4895 1.387 . S
H4893 C4889 0.950 . S
H4894 C4891 0.950 . S
C4895 C4886 1.390 . S
C4895 H4888 0.950 . S
C4895 C4892 1.387 . S
C4896 C4897 1.387 . S
C4896 H4900 0.950 . S
C4896 C4905 1.390 . S
C4897 C4896 1.387 . S
C4897 C4899 1.387 . S
H4898 C4905 0.950 . S
C4899 C4897 1.387 . S
C4899 C4901 1.390 . S
C4899 H4903 0.950 . S
H4900 C4896 0.950 . S
C4901 C4899 1.390 . S
C4901 C4902 1.387 . S
C4901 H4904 0.950 . S
C4902 C4901 1.387 . S
C4902 C4905 1.387 . S
H4903 C4899 0.950 . S
H4904 C4901 0.950 . S
C4905 C4896 1.390 . S
C4905 H4898 0.950 . S
C4905 C4902 1.387 . S
C4906 C4907 1.387 . S
C4906 H4910 0.950 . S
C4906 C4915 1.390 . S
C4907 C4906 1.387 . S
C4907 C4909 1.387 . S
H4908 C4915 0.950 . S
C4909 C4907 1.387 . S
C4909 C4911 1.390 . S
C4909 H4913 0.950 . S
H4910 C4906 0.950 . S
C4911 C4909 1.390 . S
C4911 C4912 1.387 . S
C4911 H4914 0.950 . S
C4912 C4911 1.387 . S
C4912 C4915 1.387 . S
H4913 C4909 0.950 . S
H4914 C4911 0.950 . S
C4915 C4906 1.390 . S
C4915 H4908 0.950 . S
C4915 C4912 1.387 . S
C4916 C4917 1.387 . S
C4916 H4920 0.950 . S
C4916 C4925 1.390 . S
C4917 C4916 1.387 . S
C4917 C4919 1.387 . S
H4918 C4925 0.950 . S
C4919 C4917 1.387 . S
C4919 C4921 1.390 . S
C4919 H4923 0.950 . S
H4920 C4916 0.950 . S
C4921 C4919 1.390 . S
C4921 C4922 1.387 . S
C4921 H4924 0.950 . S
C4922 C4921 1.387 . S
C4922 C4925 1.387 . S
H4923 C4919 0.950 . S
H4924 C4921 0.950 . S
C4925 C4916 1.390 . S
C4925 H4918 0.950 . S
C4925 C4922 1.387 . S
C4926 C4927 1.387 . S
C4926 H4930 0.950 . S
C4926 C4935 1.390 . S
C4927 C4926 1.387 . S
C4927 C4929 1.387 . S
H4928 C4935 0.950 . S
C4929 C4927 1.387 . S
C4929 C4931 1.390 . S
C4929 H4933 0.950 . S
H4930 C4926 0.950 . S
C4931 C4929 1.390 . S
C4931 C4932 1.387 . S
C4931 H4934 0.950 . S
C4932 C4931 1.387 . S
C4932 C4935 1.387 . S
H4933 C4929 0.950 . S
H4934 C4931 0.950 . S
C4935 C4926 1.390 . S
C4935 H4928 0.950 . S
C4935 C4932 1.387 . S
C4936 C4937 1.387 . S
C4936 H4940 0.950 . S
C4936 C4945 1.390 . S
C4937 C4936 1.387 . S
C4937 C4939 1.387 . S
H4938 C4945 0.950 . S
C4939 C4937 1.387 . S
C4939 C4941 1.390 . S
C4939 H4943 0.950 . S
H4940 C4936 0.950 . S
C4941 C4939 1.390 . S
C4941 C4942 1.387 . S
C4941 H4944 0.950 . S
C4942 C4941 1.387 . S
C4942 C4945 1.387 . S
H4943 C4939 0.950 . S
H4944 C4941 0.950 . S
C4945 C4936 1.390 . S
C4945 H4938 0.950 . S
C4945 C4942 1.387 . S
C4946 C4947 1.387 . S
C4946 H4950 0.950 . S
C4946 C4955 1.390 . S
C4947 C4946 1.387 . S
C4947 C4949 1.387 . S
H4948 C4955 0.950 . S
C4949 C4947 1.387 . S
C4949 C4951 1.390 . S
C4949 H4953 0.950 . S
H4950 C4946 0.950 . S
C4951 C4949 1.390 . S
C4951 C4952 1.387 . S
C4951 H4954 0.950 . S
C4952 C4951 1.387 . S
C4952 C4955 1.387 . S
H4953 C4949 0.950 . S
H4954 C4951 0.950 . S
C4955 C4946 1.390 . S
C4955 H4948 0.950 . S
C4955 C4952 1.387 . S
C4956 C4957 1.387 . S
C4956 H4960 0.950 . S
C4956 C4965 1.390 . S
C4957 C4956 1.387 . S
C4957 C4959 1.387 . S
H4958 C4965 0.950 . S
C4959 C4957 1.387 . S
C4959 C4961 1.390 . S
C4959 H4963 0.950 . S
H4960 C4956 0.950 . S
C4961 C4959 1.390 . S
C4961 C4962 1.387 . S
C4961 H4964 0.950 . S
C4962 C4961 1.387 . S
C4962 C4965 1.387 . S
H4963 C4959 0.950 . S
H4964 C4961 0.950 . S
C4965 C4956 1.390 . S
C4965 H4958 0.950 . S
C4965 C4962 1.387 . S
C4966 C4967 1.387 . S
C4966 H4970 0.950 . S
C4966 C4975 1.390 . S
C4967 C4966 1.387 . S
C4967 C4969 1.387 . S
H4968 C4975 0.950 . S
C4969 C4967 1.387 . S
C4969 C4971 1.390 . S
C4969 H4973 0.950 . S
H4970 C4966 0.950 . S
C4971 C4969 1.390 . S
C4971 C4972 1.387 . S
C4971 H4974 0.950 . S
C4972 C4971 1.387 . S
C4972 C4975 1.387 . S
H4973 C4969 0.950 . S
H4974 C4971 0.950 . S
C4975 C4966 1.390 . S
C4975 H4968 0.950 . S
C4975 C4972 1.387 . S
C4976 C4977 1.387 . S
C4976 H4980 0.950 . S
C4976 C4985 1.390 . S
C4977 C4976 1.387 . S
C4977 C4979 1.387 . S
H4978 C4985 0.950 . S
C4979 C4977 1.387 . S
C4979 C4981 1.390 . S
C4979 H4983 0.950 . S
H4980 C4976 0.950 . S
C4981 C4979 1.390 . S
C4981 C4982 1.387 . S
C4981 H4984 0.950 . S
C4982 C4981 1.387 . S
C4982 C4985 1.387 . S
H4983 C4979 0.950 . S
H4984 C4981 0.950 . S
C4985 C4976 1.390 . S
C4985 H4978 0.950 . S
C4985 C4982 1.387 . S
C4986 C4987 1.387 . S
C4986 H4990 0.950 . S
C4986 C4995 1.390 . S
C4987 C4986 1.387 . S
C4987 C4989 1.387 . S
H4988 C4995 0.950 . S
C4989 C4987 1.387 . S
C4989 C4991 1.390 . S
C4989 H4993 0.950 . S
H4990 C4986 0.950 . S
C4991 C4989 1.390 . S
C4991 C4992 1.387 . S
C4991 H4994 0.950 . S
C4992 C4991 1.387 . S
C4992 C4995 1.387 . S
H4993 C4989 0.950 . S
H4994 C4991 0.950 . S
C4995 C4986 1.390 . S
C4995 H4988 0.950 . S
C4995 C4992 1.387 . S
C4996 C4997 1.387 . S
C4996 H5000 0.950 . S
C4996 C5005 1.390 . S
C4997 C4996 1.387 . S
C4997 C4999 1.387 . S
H4998 C5005 0.950 . S
C4999 C4997 1.387 . S
C4999 C5001 1.390 . S
C4999 H5003 0.950 . S
H5000 C4996 0.950 . S
C5001 C4999 1.390 . S
C5001 C5002 1.387 . S
C5001 H5004 0.950 . S
C5002 C5001 1.387 . S
C5002 C5005 1.387 . S
H5003 C4999 0.950 . S
H5004 C5001 0.950 . S
C5005 C4996 1.390 . S
C5005 H4998 0.950 . S
C5005 C5002 1.387 . S
C5006 C5007 1.387 . S
C5006 H5010 0.950 . S
C5006 C5015 1.390 . S
C5007 C5006 1.387 . S
C5007 C5009 1.387 . S
H5008 C5015 0.950 . S
C5009 C5007 1.387 . S
C5009 C5011 1.390 . S
C5009 H5013 0.950 . S
H5010 C5006 0.950 . S
C5011 C5009 1.390 . S
C5011 C5012 1.387 . S
C5011 H5014 0.950 . S
C5012 C5011 1.387 . S
C5012 C5015 1.387 . S
H5013 C5009 0.950 . S
H5014 C5011 0.950 . S
C5015 C5006 1.390 . S
C5015 H5008 0.950 . S
C5015 C5012 1.387 . S
C5016 C5017 1.387 . S
C5016 H5020 0.950 . S
C5016 C5025 1.390 . S
C5017 C5016 1.387 . S
C5017 C5019 1.387 . S
H5018 C5025 0.950 . S
C5019 C5017 1.387 . S
C5019 C5021 1.390 . S
C5019 H5023 0.950 . S
H5020 C5016 0.950 . S
C5021 C5019 1.390 . S
C5021 C5022 1.387 . S
C5021 H5024 0.950 . S
C5022 C5021 1.387 . S
C5022 C5025 1.387 . S
H5023 C5019 0.950 . S
H5024 C5021 0.950 . S
C5025 C5016 1.390 . S
C5025 H5018 0.950 . S
C5025 C5022 1.387 . S
C5026 C5027 1.387 . S
C5026 H5030 0.950 . S
C5026 C5035 1.390 . S
C5027 C5026 1.387 . S
C5027 C5029 1.387 . S
H5028 C5035 0.950 . S
C5029 C5027 1.387 . S
C5029 C5031 1.390 . S
C5029 H5033 0.950 . S
H5030 C5026 0.950 . S
C5031 C5029 1.390 . S
C5031 C5032 1.387 . S
C5031 H5034 0.950 . S
C5032 C5031 1.387 . S
C5032 C5035 1.387 . S
H5033 C5029 0.950 . S
H5034 C5031 0.950 . S
C5035 C5026 1.390 . S
C5035 H5028 0.950 . S
C5035 C5032 1.387 . S
C5036 C5037 1.387 . S
C5036 H5040 0.950 . S
C5036 C5045 1.390 . S
C5037 C5036 1.387 . S
C5037 C5039 1.387 . S
H5038 C5045 0.950 . S
C5039 C5037 1.387 . S
C5039 C5041 1.390 . S
C5039 H5043 0.950 . S
H5040 C5036 0.950 . S
C5041 C5039 1.390 . S
C5041 C5042 1.387 . S
C5041 H5044 0.950 . S
C5042 C5041 1.387 . S
C5042 C5045 1.387 . S
H5043 C5039 0.950 . S
H5044 C5041 0.950 . S
C5045 C5036 1.390 . S
C5045 H5038 0.950 . S
C5045 C5042 1.387 . S
C5046 C5047 1.387 . S
C5046 H5050 0.950 . S
C5046 C5055 1.390 . S
C5047 C5046 1.387 . S
C5047 C5049 1.387 . S
H5048 C5055 0.950 . S
C5049 C5047 1.387 . S
C5049 C5051 1.390 . S
C5049 H5053 0.950 . S
H5050 C5046 0.950 . S
C5051 C5049 1.390 . S
C5051 C5052 1.387 . S
C5051 H5054 0.950 . S
C5052 C5051 1.387 . S
C5052 C5055 1.387 . S
H5053 C5049 0.950 . S
H5054 C5051 0.950 . S
C5055 C5046 1.390 . S
C5055 H5048 0.950 . S
C5055 C5052 1.387 . S
C5056 C5057 1.387 . S
C5056 H5060 0.950 . S
C5056 C5065 1.390 . S
C5057 C5056 1.387 . S
C5057 C5059 1.387 . S
H5058 C5065 0.950 . S
C5059 C5057 1.387 . S
C5059 C5061 1.390 . S
C5059 H5063 0.950 . S
H5060 C5056 0.950 . S
C5061 C5059 1.390 . S
C5061 C5062 1.387 . S
C5061 H5064 0.950 . S
C5062 C5061 1.387 . S
C5062 C5065 1.387 . S
H5063 C5059 0.950 . S
H5064 C5061 0.950 . S
C5065 C5056 1.390 . S
C5065 H5058 0.950 . S
C5065 C5062 1.387 . S
C5066 C5067 1.387 . S
C5066 H5070 0.950 . S
C5066 C5075 1.390 . S
C5067 C5066 1.387 . S
C5067 C5069 1.387 . S
H5068 C5075 0.950 . S
C5069 C5067 1.387 . S
C5069 C5071 1.390 . S
C5069 H5073 0.950 . S
H5070 C5066 0.950 . S
C5071 C5069 1.390 . S
C5071 C5072 1.387 . S
C5071 H5074 0.950 . S
C5072 C5071 1.387 . S
C5072 C5075 1.387 . S
H5073 C5069 0.950 . S
H5074 C5071 0.950 . S
C5075 C5066 1.390 . S
C5075 H5068 0.950 . S
C5075 C5072 1.387 . S
C5076 C5077 1.387 . S
C5076 H5080 0.950 . S
C5076 C5085 1.390 . S
C5077 C5076 1.387 . S
C5077 C5079 1.387 . S
H5078 C5085 0.950 . S
C5079 C5077 1.387 . S
C5079 C5081 1.390 . S
C5079 H5083 0.950 . S
H5080 C5076 0.950 . S
C5081 C5079 1.390 . S
C5081 C5082 1.387 . S
C5081 H5084 0.950 . S
C5082 C5081 1.387 . S
C5082 C5085 1.387 . S
H5083 C5079 0.950 . S
H5084 C5081 0.950 . S
C5085 C5076 1.390 . S
C5085 H5078 0.950 . S
C5085 C5082 1.387 . S
C5086 C5087 1.387 . S
C5086 H5090 0.950 . S
C5086 C5095 1.390 . S
C5087 C5086 1.387 . S
C5087 C5089 1.387 . S
H5088 C5095 0.950 . S
C5089 C5087 1.387 . S
C5089 C5091 1.390 . S
C5089 H5093 0.950 . S
H5090 C5086 0.950 . S
C5091 C5089 1.390 . S
C5091 C5092 1.387 . S
C5091 H5094 0.950 . S
C5092 C5091 1.387 . S
C5092 C5095 1.387 . S
H5093 C5089 0.950 . S
H5094 C5091 0.950 . S
C5095 C5086 1.390 . S
C5095 H5088 0.950 . S
C5095 C5092 1.387 . S
C5096 C5097 1.387 . S
C5096 H5100 0.950 . S
C5096 C5105 1.390 . S
C5097 C5096 1.387 . S
C5097 C5099 1.387 . S
H5098 C5105 0.950 . S
C5099 C5097 1.387 . S
C5099 C5101 1.390 . S
C5099 H5103 0.950 . S
H5100 C5096 0.950 . S
C5101 C5099 1.390 . S
C5101 C5102 1.387 . S
C5101 H5104 0.950 . S
C5102 C5101 1.387 . S
C5102 C5105 1.387 . S
H5103 C5099 0.950 . S
H5104 C5101 0.950 . S
C5105 C5096 1.390 . S
C5105 H5098 0.950 . S
C5105 C5102 1.387 . S
C5106 C5107 1.387 . S
C5106 H5110 0.950 . S
C5106 C5115 1.390 . S
C5107 C5106 1.387 . S
C5107 C5109 1.387 . S
H5108 C5115 0.950 . S
C5109 C5107 1.387 . S
C5109 C5111 1.390 . S
C5109 H5113 0.950 . S
H5110 C5106 0.950 . S
C5111 C5109 1.390 . S
C5111 C5112 1.387 . S
C5111 H5114 0.950 . S
C5112 C5111 1.387 . S
C5112 C5115 1.387 . S
H5113 C5109 0.950 . S
H5114 C5111 0.950 . S
C5115 C5106 1.390 . S
C5115 H5108 0.950 . S
C5115 C5112 1.387 . S
C5116 C5117 1.387 . S
C5116 H5120 0.950 . S
C5116 C5125 1.390 . S
C5117 C5116 1.387 . S
C5117 C5119 1.387 . S
H5118 C5125 0.950 . S
C5119 C5117 1.387 . S
C5119 C5121 1.390 . S
C5119 H5123 0.950 . S
H5120 C5116 0.950 . S
C5121 C5119 1.390 . S
C5121 C5122 1.387 . S
C5121 H5124 0.950 . S
C5122 C5121 1.387 . S
C5122 C5125 1.387 . S
H5123 C5119 0.950 . S
H5124 C5121 0.950 . S
C5125 C5116 1.390 . S
C5125 H5118 0.950 . S
C5125 C5122 1.387 . S
C5126 C5127 1.387 . S
C5126 H5130 0.950 . S
C5126 C5135 1.390 . S
C5127 C5126 1.387 . S
C5127 C5129 1.387 . S
H5128 C5135 0.950 . S
C5129 C5127 1.387 . S
C5129 C5131 1.390 . S
C5129 H5133 0.950 . S
H5130 C5126 0.950 . S
C5131 C5129 1.390 . S
C5131 C5132 1.387 . S
C5131 H5134 0.950 . S
C5132 C5131 1.387 . S
C5132 C5135 1.387 . S
H5133 C5129 0.950 . S
H5134 C5131 0.950 . S
C5135 C5126 1.390 . S
C5135 H5128 0.950 . S
C5135 C5132 1.387 . S
C5136 C5137 1.387 . S
C5136 H5140 0.950 . S
C5136 C5145 1.390 . S
C5137 C5136 1.387 . S
C5137 C5139 1.387 . S
H5138 C5145 0.950 . S
C5139 C5137 1.387 . S
C5139 C5141 1.390 . S
C5139 H5143 0.950 . S
H5140 C5136 0.950 . S
C5141 C5139 1.390 . S
C5141 C5142 1.387 . S
C5141 H5144 0.950 . S
C5142 C5141 1.387 . S
C5142 C5145 1.387 . S
H5143 C5139 0.950 . S
H5144 C5141 0.950 . S
C5145 C5136 1.390 . S
C5145 H5138 0.950 . S
C5145 C5142 1.387 . S
C5146 C5147 1.387 . S
C5146 H5150 0.950 . S
C5146 C5155 1.390 . S
C5147 C5146 1.387 . S
C5147 C5149 1.387 . S
H5148 C5155 0.950 . S
C5149 C5147 1.387 . S
C5149 C5151 1.390 . S
C5149 H5153 0.950 . S
H5150 C5146 0.950 . S
C5151 C5149 1.390 . S
C5151 C5152 1.387 . S
C5151 H5154 0.950 . S
C5152 C5151 1.387 . S
C5152 C5155 1.387 . S
H5153 C5149 0.950 . S
H5154 C5151 0.950 . S
C5155 C5146 1.390 . S
C5155 H5148 0.950 . S
C5155 C5152 1.387 . S
C5156 C5157 1.387 . S
C5156 H5160 0.950 . S
C5156 C5165 1.390 . S
C5157 C5156 1.387 . S
C5157 C5159 1.387 . S
H5158 C5165 0.950 . S
C5159 C5157 1.387 . S
C5159 C5161 1.390 . S
C5159 H5163 0.950 . S
H5160 C5156 0.950 . S
C5161 C5159 1.390 . S
C5161 C5162 1.387 . S
C5161 H5164 0.950 . S
C5162 C5161 1.387 . S
C5162 C5165 1.387 . S
H5163 C5159 0.950 . S
H5164 C5161 0.950 . S
C5165 C5156 1.390 . S
C5165 H5158 0.950 . S
C5165 C5162 1.387 . S
C5166 C5167 1.387 . S
C5166 H5170 0.950 . S
C5166 C5175 1.390 . S
C5167 C5166 1.387 . S
C5167 C5169 1.387 . S
H5168 C5175 0.950 . S
C5169 C5167 1.387 . S
C5169 C5171 1.390 . S
C5169 H5173 0.950 . S
H5170 C5166 0.950 . S
C5171 C5169 1.390 . S
C5171 C5172 1.387 . S
C5171 H5174 0.950 . S
C5172 C5171 1.387 . S
C5172 C5175 1.387 . S
H5173 C5169 0.950 . S
H5174 C5171 0.950 . S
C5175 C5166 1.390 . S
C5175 H5168 0.950 . S
C5175 C5172 1.387 . S
C5176 C5177 1.387 . S
C5176 H5180 0.950 . S
C5176 C5185 1.390 . S
C5177 C5176 1.387 . S
C5177 C5179 1.387 . S
H5178 C5185 0.950 . S
C5179 C5177 1.387 . S
C5179 C5181 1.390 . S
C5179 H5183 0.950 . S
H5180 C5176 0.950 . S
C5181 C5179 1.390 . S
C5181 C5182 1.387 . S
C5181 H5184 0.950 . S
C5182 C5181 1.387 . S
C5182 C5185 1.387 . S
H5183 C5179 0.950 . S
H5184 C5181 0.950 . S
C5185 C5176 1.390 . S
C5185 H5178 0.950 . S
C5185 C5182 1.387 . S
C5186 C5187 1.387 . S
C5186 H5190 0.950 . S
C5186 C5195 1.390 . S
C5187 C5186 1.387 . S
C5187 C5189 1.387 . S
H5188 C5195 0.950 . S
C5189 C5187 1.387 . S
C5189 C5191 1.390 . S
C5189 H5193 0.950 . S
H5190 C5186 0.950 . S
C5191 C5189 1.390 . S
C5191 C5192 1.387 . S
C5191 H5194 0.950 . S
C5192 C5191 1.387 . S
C5192 C5195 1.387 . S
H5193 C5189 0.950 . S
H5194 C5191 0.950 . S
C5195 C5186 1.390 . S
C5195 H5188 0.950 . S
C5195 C5192 1.387 . S
C5196 C5197 1.387 . S
C5196 H5200 0.950 . S
C5196 C5205 1.390 . S
C5197 C5196 1.387 . S
C5197 C5199 1.387 . S
H5198 C5205 0.950 . S
C5199 C5197 1.387 . S
C5199 C5201 1.390 . S
C5199 H5203 0.950 . S
H5200 C5196 0.950 . S
C5201 C5199 1.390 . S
C5201 C5202 1.387 . S
C5201 H5204 0.950 . S
C5202 C5201 1.387 . S
C5202 C5205 1.387 . S
H5203 C5199 0.950 . S
H5204 C5201 0.950 . S
C5205 C5196 1.390 . S
C5205 H5198 0.950 . S
C5205 C5202 1.387 . S
C5206 C5207 1.387 . S
C5206 H5210 0.950 . S
C5206 C5215 1.390 . S
C5207 C5206 1.387 . S
C5207 C5209 1.387 . S
H5208 C5215 0.950 . S
C5209 C5207 1.387 . S
C5209 C5211 1.390 . S
C5209 H5213 0.950 . S
H5210 C5206 0.950 . S
C5211 C5209 1.390 . S
C5211 C5212 1.387 . S
C5211 H5214 0.950 . S
C5212 C5211 1.387 . S
C5212 C5215 1.387 . S
H5213 C5209 0.950 . S
H5214 C5211 0.950 . S
C5215 C5206 1.390 . S
C5215 H5208 0.950 . S
C5215 C5212 1.387 . S
C5216 C5217 1.387 . S
C5216 H5220 0.950 . S
C5216 C5225 1.390 . S
C5217 C5216 1.387 . S
C5217 C5219 1.387 . S
H5218 C5225 0.950 . S
C5219 C5217 1.387 . S
C5219 C5221 1.390 . S
C5219 H5223 0.950 . S
H5220 C5216 0.950 . S
C5221 C5219 1.390 . S
C5221 C5222 1.387 . S
C5221 H5224 0.950 . S
C5222 C5221 1.387 . S
C5222 C5225 1.387 . S
H5223 C5219 0.950 . S
H5224 C5221 0.950 . S
C5225 C5216 1.390 . S
C5225 H5218 0.950 . S
C5225 C5222 1.387 . S
C5226 C5227 1.387 . S
C5226 H5230 0.950 . S
C5226 C5235 1.390 . S
C5227 C5226 1.387 . S
C5227 C5229 1.387 . S
H5228 C5235 0.950 . S
C5229 C5227 1.387 . S
C5229 C5231 1.390 . S
C5229 H5233 0.950 . S
H5230 C5226 0.950 . S
C5231 C5229 1.390 . S
C5231 C5232 1.387 . S
C5231 H5234 0.950 . S
C5232 C5231 1.387 . S
C5232 C5235 1.387 . S
H5233 C5229 0.950 . S
H5234 C5231 0.950 . S
C5235 C5226 1.390 . S
C5235 H5228 0.950 . S
C5235 C5232 1.387 . S
C5236 C5237 1.387 . S
C5236 H5240 0.950 . S
C5236 C5245 1.390 . S
C5237 C5236 1.387 . S
C5237 C5239 1.387 . S
H5238 C5245 0.950 . S
C5239 C5237 1.387 . S
C5239 C5241 1.390 . S
C5239 H5243 0.950 . S
H5240 C5236 0.950 . S
C5241 C5239 1.390 . S
C5241 C5242 1.387 . S
C5241 H5244 0.950 . S
C5242 C5241 1.387 . S
C5242 C5245 1.387 . S
H5243 C5239 0.950 . S
H5244 C5241 0.950 . S
C5245 C5236 1.390 . S
C5245 H5238 0.950 . S
C5245 C5242 1.387 . S
C5246 C5247 1.387 . S
C5246 H5250 0.950 . S
C5246 C5255 1.390 . S
C5247 C5246 1.387 . S
C5247 C5249 1.387 . S
H5248 C5255 0.950 . S
C5249 C5247 1.387 . S
C5249 C5251 1.390 . S
C5249 H5253 0.950 . S
H5250 C5246 0.950 . S
C5251 C5249 1.390 . S
C5251 C5252 1.387 . S
C5251 H5254 0.950 . S
C5252 C5251 1.387 . S
C5252 C5255 1.387 . S
H5253 C5249 0.950 . S
H5254 C5251 0.950 . S
C5255 C5246 1.390 . S
C5255 H5248 0.950 . S
C5255 C5252 1.387 . S
C5256 C5257 1.387 . S
C5256 H5260 0.950 . S
C5256 C5265 1.390 . S
C5257 C5256 1.387 . S
C5257 C5259 1.387 . S
H5258 C5265 0.950 . S
C5259 C5257 1.387 . S
C5259 C5261 1.390 . S
C5259 H5263 0.950 . S
H5260 C5256 0.950 . S
C5261 C5259 1.390 . S
C5261 C5262 1.387 . S
C5261 H5264 0.950 . S
C5262 C5261 1.387 . S
C5262 C5265 1.387 . S
H5263 C5259 0.950 . S
H5264 C5261 0.950 . S
C5265 C5256 1.390 . S
C5265 H5258 0.950 . S
C5265 C5262 1.387 . S
C5266 C5267 1.387 . S
C5266 H5270 0.950 . S
C5266 C5275 1.390 . S
C5267 C5266 1.387 . S
C5267 C5269 1.387 . S
H5268 C5275 0.950 . S
C5269 C5267 1.387 . S
C5269 C5271 1.390 . S
C5269 H5273 0.950 . S
H5270 C5266 0.950 . S
C5271 C5269 1.390 . S
C5271 C5272 1.387 . S
C5271 H5274 0.950 . S
C5272 C5271 1.387 . S
C5272 C5275 1.387 . S
H5273 C5269 0.950 . S
H5274 C5271 0.950 . S
C5275 C5266 1.390 . S
C5275 H5268 0.950 . S
C5275 C5272 1.387 . S
C5276 C5277 1.387 . S
C5276 H5280 0.950 . S
C5276 C5285 1.390 . S
C5277 C5276 1.387 . S
C5277 C5279 1.387 . S
H5278 C5285 0.950 . S
C5279 C5277 1.387 . S
C5279 C5281 1.390 . S
C5279 H5283 0.950 . S
H5280 C5276 0.950 . S
C5281 C5279 1.390 . S
C5281 C5282 1.387 . S
C5281 H5284 0.950 . S
C5282 C5281 1.387 . S
C5282 C5285 1.387 . S
H5283 C5279 0.950 . S
H5284 C5281 0.950 . S
C5285 C5276 1.390 . S
C5285 H5278 0.950 . S
C5285 C5282 1.387 . S
C5286 C5287 1.387 . S
C5286 H5290 0.950 . S
C5286 C5295 1.390 . S
C5287 C5286 1.387 . S
C5287 C5289 1.387 . S
H5288 C5295 0.950 . S
C5289 C5287 1.387 . S
C5289 C5291 1.390 . S
C5289 H5293 0.950 . S
H5290 C5286 0.950 . S
C5291 C5289 1.390 . S
C5291 C5292 1.387 . S
C5291 H5294 0.950 . S
C5292 C5291 1.387 . S
C5292 C5295 1.387 . S
H5293 C5289 0.950 . S
H5294 C5291 0.950 . S
C5295 C5286 1.390 . S
C5295 H5288 0.950 . S
C5295 C5292 1.387 . S
C5296 C5297 1.387 . S
C5296 H5300 0.950 . S
C5296 C5305 1.390 . S
C5297 C5296 1.387 . S
C5297 C5299 1.387 . S
H5298 C5305 0.950 . S
C5299 C5297 1.387 . S
C5299 C5301 1.390 . S
C5299 H5303 0.950 . S
H5300 C5296 0.950 . S
C5301 C5299 1.390 . S
C5301 C5302 1.387 . S
C5301 H5304 0.950 . S
C5302 C5301 1.387 . S
C5302 C5305 1.387 . S
H5303 C5299 0.950 . S
H5304 C5301 0.950 . S
C5305 C5296 1.390 . S
C5305 H5298 0.950 . S
C5305 C5302 1.387 . S
C5306 C5307 1.387 . S
C5306 H5310 0.950 . S
C5306 C5315 1.390 . S
C5307 C5306 1.387 . S
C5307 C5309 1.387 . S
H5308 C5315 0.950 . S
C5309 C5307 1.387 . S
C5309 C5311 1.390 . S
C5309 H5313 0.950 . S
H5310 C5306 0.950 . S
C5311 C5309 1.390 . S
C5311 C5312 1.387 . S
C5311 H5314 0.950 . S
C5312 C5311 1.387 . S
C5312 C5315 1.387 . S
H5313 C5309 0.950 . S
H5314 C5311 0.950 . S
C5315 C5306 1.390 . S
C5315 H5308 0.950 . S
C5315 C5312 1.387 . S
C5316 C5317 1.387 . S
C5316 H5320 0.950 . S
C5316 C5325 1.390 . S
C5317 C5316 1.387 . S
C5317 C5319 1.387 . S
H5318 C5325 0.950 . S
C5319 C5317 1.387 . S
C5319 C5321 1.390 . S
C5319 H5323 0.950 . S
H5320 C5316 0.950 . S
C5321 C5319 1.390 . S
C5321 C5322 1.387 . S
C5321 H5324 0.950 . S
C5322 C5321 1.387 . S
C5322 C5325 1.387 . S
H5323 C5319 0.950 . S
H5324 C5321 0.950 . S
C5325 C5316 1.390 . S
C5325 H5318 0.950 . S
C5325 C5322 1.387 . S
C5326 C5327 1.387 . S
C5326 H5330 0.950 . S
C5326 C5335 1.390 . S
C5327 C5326 1.387 . S
C5327 C5329 1.387 . S
H5328 C5335 0.950 . S
C5329 C5327 1.387 . S
C5329 C5331 1.390 . S
C5329 H5333 0.950 . S
H5330 C5326 0.950 . S
C5331 C5329 1.390 . S
C5331 C5332 1.387 . S
C5331 H5334 0.950 . S
C5332 C5331 1.387 . S
C5332 C5335 1.387 . S
H5333 C5329 0.950 . S
H5334 C5331 0.950 . S
C5335 C5326 1.390 . S
C5335 H5328 0.950 . S
C5335 C5332 1.387 . S
C5336 C5337 1.387 . S
C5336 H5340 0.950 . S
C5336 C5345 1.390 . S
C5337 C5336 1.387 . S
C5337 C5339 1.387 . S
H5338 C5345 0.950 . S
C5339 C5337 1.387 . S
C5339 C5341 1.390 . S
C5339 H5343 0.950 . S
H5340 C5336 0.950 . S
C5341 C5339 1.390 . S
C5341 C5342 1.387 . S
C5341 H5344 0.950 . S
C5342 C5341 1.387 . S
C5342 C5345 1.387 . S
H5343 C5339 0.950 . S
H5344 C5341 0.950 . S
C5345 C5336 1.390 . S
C5345 H5338 0.950 . S
C5345 C5342 1.387 . S
C5346 C5347 1.387 . S
C5346 H5350 0.950 . S
C5346 C5355 1.390 . S
C5347 C5346 1.387 . S
C5347 C5349 1.387 . S
H5348 C5355 0.950 . S
C5349 C5347 1.387 . S
C5349 C5351 1.390 . S
C5349 H5353 0.950 . S
H5350 C5346 0.950 . S
C5351 C5349 1.390 . S
C5351 C5352 1.387 . S
C5351 H5354 0.950 . S
C5352 C5351 1.387 . S
C5352 C5355 1.387 . S
H5353 C5349 0.950 . S
H5354 C5351 0.950 . S
C5355 C5346 1.390 . S
C5355 H5348 0.950 . S
C5355 C5352 1.387 . S
C5356 C5357 1.387 . S
C5356 H5360 0.950 . S
C5356 C5365 1.390 . S
C5357 C5356 1.387 . S
C5357 C5359 1.387 . S
H5358 C5365 0.950 . S
C5359 C5357 1.387 . S
C5359 C5361 1.390 . S
C5359 H5363 0.950 . S
H5360 C5356 0.950 . S
C5361 C5359 1.390 . S
C5361 C5362 1.387 . S
C5361 H5364 0.950 . S
C5362 C5361 1.387 . S
C5362 C5365 1.387 . S
H5363 C5359 0.950 . S
H5364 C5361 0.950 . S
C5365 C5356 1.390 . S
C5365 H5358 0.950 . S
C5365 C5362 1.387 . S
C5366 C5367 1.387 . S
C5366 H5370 0.950 . S
C5366 C5375 1.390 . S
C5367 C5366 1.387 . S
C5367 C5369 1.387 . S
H5368 C5375 0.950 . S
C5369 C5367 1.387 . S
C5369 C5371 1.390 . S
C5369 H5373 0.950 . S
H5370 C5366 0.950 . S
C5371 C5369 1.390 . S
C5371 C5372 1.387 . S
C5371 H5374 0.950 . S
C5372 C5371 1.387 . S
C5372 C5375 1.387 . S
H5373 C5369 0.950 . S
H5374 C5371 0.950 . S
C5375 C5366 1.390 . S
C5375 H5368 0.950 . S
C5375 C5372 1.387 . S
C5376 C5377 1.387 . S
C5376 H5380 0.950 . S
C5376 C5385 1.390 . S
C5377 C5376 1.387 . S
C5377 C5379 1.387 . S
H5378 C5385 0.950 . S
C5379 C5377 1.387 . S
C5379 C5381 1.390 . S
C5379 H5383 0.950 . S
H5380 C5376 0.950 . S
C5381 C5379 1.390 . S
C5381 C5382 1.387 . S
C5381 H5384 0.950 . S
C5382 C5381 1.387 . S
C5382 C5385 1.387 . S
H5383 C5379 0.950 . S
H5384 C5381 0.950 . S
C5385 C5376 1.390 . S
C5385 H5378 0.950 . S
C5385 C5382 1.387 . S
C5386 C5387 1.387 . S
C5386 H5390 0.950 . S
C5386 C5395 1.390 . S
C5387 C5386 1.387 . S
C5387 C5389 1.387 . S
H5388 C5395 0.950 . S
C5389 C5387 1.387 . S
C5389 C5391 1.390 . S
C5389 H5393 0.950 . S
H5390 C5386 0.950 . S
C5391 C5389 1.390 . S
C5391 C5392 1.387 . S
C5391 H5394 0.950 . S
C5392 C5391 1.387 . S
C5392 C5395 1.387 . S
H5393 C5389 0.950 . S
H5394 C5391 0.950 . S
C5395 C5386 1.390 . S
C5395 H5388 0.950 . S
C5395 C5392 1.387 . S
C5396 C5397 1.387 . S
C5396 H5400 0.950 . S
C5396 C5405 1.390 . S
C5397 C5396 1.387 . S
C5397 C5399 1.387 . S
H5398 C5405 0.950 . S
C5399 C5397 1.387 . S
C5399 C5401 1.390 . S
C5399 H5403 0.950 . S
H5400 C5396 0.950 . S
C5401 C5399 1.390 . S
C5401 C5402 1.387 . S
C5401 H5404 0.950 . S
C5402 C5401 1.387 . S
C5402 C5405 1.387 . S
H5403 C5399 0.950 . S
H5404 C5401 0.950 . S
C5405 C5396 1.390 . S
C5405 H5398 0.950 . S
C5405 C5402 1.387 . S
C5406 C5407 1.387 . S
C5406 H5410 0.950 . S
C5406 C5415 1.390 . S
C5407 C5406 1.387 . S
C5407 C5409 1.387 . S
H5408 C5415 0.950 . S
C5409 C5407 1.387 . S
C5409 C5411 1.390 . S
C5409 H5413 0.950 . S
H5410 C5406 0.950 . S
C5411 C5409 1.390 . S
C5411 C5412 1.387 . S
C5411 H5414 0.950 . S
C5412 C5411 1.387 . S
C5412 C5415 1.387 . S
H5413 C5409 0.950 . S
H5414 C5411 0.950 . S
C5415 C5406 1.390 . S
C5415 H5408 0.950 . S
C5415 C5412 1.387 . S
C5416 C5417 1.387 . S
C5416 H5420 0.950 . S
C5416 C5425 1.390 . S
C5417 C5416 1.387 . S
C5417 C5419 1.387 . S
H5418 C5425 0.950 . S
C5419 C5417 1.387 . S
C5419 C5421 1.390 . S
C5419 H5423 0.950 . S
H5420 C5416 0.950 . S
C5421 C5419 1.390 . S
C5421 C5422 1.387 . S
C5421 H5424 0.950 . S
C5422 C5421 1.387 . S
C5422 C5425 1.387 . S
H5423 C5419 0.950 . S
H5424 C5421 0.950 . S
C5425 C5416 1.390 . S
C5425 H5418 0.950 . S
C5425 C5422 1.387 . S
C5426 C5427 1.387 . S
C5426 H5430 0.950 . S
C5426 C5435 1.390 . S
C5427 C5426 1.387 . S
C5427 C5429 1.387 . S
H5428 C5435 0.950 . S
C5429 C5427 1.387 . S
C5429 C5431 1.390 . S
C5429 H5433 0.950 . S
H5430 C5426 0.950 . S
C5431 C5429 1.390 . S
C5431 C5432 1.387 . S
C5431 H5434 0.950 . S
C5432 C5431 1.387 . S
C5432 C5435 1.387 . S
H5433 C5429 0.950 . S
H5434 C5431 0.950 . S
C5435 C5426 1.390 . S
C5435 H5428 0.950 . S
C5435 C5432 1.387 . S
C5436 C5437 1.387 . S
C5436 H5440 0.950 . S
C5436 C5445 1.390 . S
C5437 C5436 1.387 . S
C5437 C5439 1.387 . S
H5438 C5445 0.950 . S
C5439 C5437 1.387 . S
C5439 C5441 1.390 . S
C5439 H5443 0.950 . S
H5440 C5436 0.950 . S
C5441 C5439 1.390 . S
C5441 C5442 1.387 . S
C5441 H5444 0.950 . S
C5442 C5441 1.387 . S
C5442 C5445 1.387 . S
H5443 C5439 0.950 . S
H5444 C5441 0.950 . S
C5445 C5436 1.390 . S
C5445 H5438 0.950 . S
C5445 C5442 1.387 . S
C5446 C5447 1.387 . S
C5446 H5450 0.950 . S
C5446 C5455 1.390 . S
C5447 C5446 1.387 . S
C5447 C5449 1.387 . S
H5448 C5455 0.950 . S
C5449 C5447 1.387 . S
C5449 C5451 1.390 . S
C5449 H5453 0.950 . S
H5450 C5446 0.950 . S
C5451 C5449 1.390 . S
C5451 C5452 1.387 . S
C5451 H5454 0.950 . S
C5452 C5451 1.387 . S
C5452 C5455 1.387 . S
H5453 C5449 0.950 . S
H5454 C5451 0.950 . S
C5455 C5446 1.390 . S
C5455 H5448 0.950 . S
C5455 C5452 1.387 . S
C5456 C5457 1.387 . S
C5456 H5460 0.950 . S
C5456 C5465 1.390 . S
C5457 C5456 1.387 . S
C5457 C5459 1.387 . S
H5458 C5465 0.950 . S
C5459 C5457 1.387 . S
C5459 C5461 1.390 . S
C5459 H5463 0.950 . S
H5460 C5456 0.950 . S
C5461 C5459 1.390 . S
C5461 C5462 1.387 . S
C5461 H5464 0.950 . S
C5462 C5461 1.387 . S
C5462 C5465 1.387 . S
H5463 C5459 0.950 . S
H5464 C5461 0.950 . S
C5465 C5456 1.390 . S
C5465 H5458 0.950 . S
C5465 C5462 1.387 . S
C5466 C5467 1.387 . S
C5466 H5470 0.950 . S
C5466 C5475 1.390 . S
C5467 C5466 1.387 . S
C5467 C5469 1.387 . S
H5468 C5475 0.950 . S
C5469 C5467 1.387 . S
C5469 C5471 1.390 . S
C5469 H5473 0.950 . S
H5470 C5466 0.950 . S
C5471 C5469 1.390 . S
C5471 C5472 1.387 . S
C5471 H5474 0.950 . S
C5472 C5471 1.387 . S
C5472 C5475 1.387 . S
H5473 C5469 0.950 . S
H5474 C5471 0.950 . S
C5475 C5466 1.390 . S
C5475 H5468 0.950 . S
C5475 C5472 1.387 . S
C5476 C5477 1.387 . S
C5476 H5480 0.950 . S
C5476 C5485 1.390 . S
C5477 C5476 1.387 . S
C5477 C5479 1.387 . S
H5478 C5485 0.950 . S
C5479 C5477 1.387 . S
C5479 C5481 1.390 . S
C5479 H5483 0.950 . S
H5480 C5476 0.950 . S
C5481 C5479 1.390 . S
C5481 C5482 1.387 . S
C5481 H5484 0.950 . S
C5482 C5481 1.387 . S
C5482 C5485 1.387 . S
H5483 C5479 0.950 . S
H5484 C5481 0.950 . S
C5485 C5476 1.390 . S
C5485 H5478 0.950 . S
C5485 C5482 1.387 . S
C5486 C5487 1.387 . S
C5486 H5490 0.950 . S
C5486 C5495 1.390 . S
C5487 C5486 1.387 . S
C5487 C5489 1.387 . S
H5488 C5495 0.950 . S
C5489 C5487 1.387 . S
C5489 C5491 1.390 . S
C5489 H5493 0.950 . S
H5490 C5486 0.950 . S
C5491 C5489 1.390 . S
C5491 C5492 1.387 . S
C5491 H5494 0.950 . S
C5492 C5491 1.387 . S
C5492 C5495 1.387 . S
H5493 C5489 0.950 . S
H5494 C5491 0.950 . S
C5495 C5486 1.390 . S
C5495 H5488 0.950 . S
C5495 C5492 1.387 . S
C5496 C5497 1.387 . S
C5496 H5500 0.950 . S
C5496 C5505 1.390 . S
C5497 C5496 1.387 . S
C5497 C5499 1.387 . S
H5498 C5505 0.950 . S
C5499 C5497 1.387 . S
C5499 C5501 1.390 . S
C5499 H5503 0.950 . S
H5500 C5496 0.950 . S
C5501 C5499 1.390 . S
C5501 C5502 1.387 . S
C5501 H5504 0.950 . S
C5502 C5501 1.387 . S
C5502 C5505 1.387 . S
H5503 C5499 0.950 . S
H5504 C5501 0.950 . S
C5505 C5496 1.390 . S
C5505 H5498 0.950 . S
C5505 C5502 1.387 . S
C5506 C5507 1.387 . S
C5506 H5510 0.950 . S
C5506 C5515 1.390 . S
C5507 C5506 1.387 . S
C5507 C5509 1.387 . S
H5508 C5515 0.950 . S
C5509 C5507 1.387 . S
C5509 C5511 1.390 . S
C5509 H5513 0.950 . S
H5510 C5506 0.950 . S
C5511 C5509 1.390 . S
C5511 C5512 1.387 . S
C5511 H5514 0.950 . S
C5512 C5511 1.387 . S
C5512 C5515 1.387 . S
H5513 C5509 0.950 . S
H5514 C5511 0.950 . S
C5515 C5506 1.390 . S
C5515 H5508 0.950 . S
C5515 C5512 1.387 . S
C5516 C5517 1.387 . S
C5516 H5520 0.950 . S
C5516 C5525 1.390 . S
C5517 C5516 1.387 . S
C5517 C5519 1.387 . S
H5518 C5525 0.950 . S
C5519 C5517 1.387 . S
C5519 C5521 1.390 . S
C5519 H5523 0.950 . S
H5520 C5516 0.950 . S
C5521 C5519 1.390 . S
C5521 C5522 1.387 . S
C5521 H5524 0.950 . S
C5522 C5521 1.387 . S
C5522 C5525 1.387 . S
H5523 C5519 0.950 . S
H5524 C5521 0.950 . S
C5525 C5516 1.390 . S
C5525 H5518 0.950 . S
C5525 C5522 1.387 . S
C5526 C5527 1.387 . S
C5526 H5530 0.950 . S
C5526 C5535 1.390 . S
C5527 C5526 1.387 . S
C5527 C5529 1.387 . S
H5528 C5535 0.950 . S
C5529 C5527 1.387 . S
C5529 C5531 1.390 . S
C5529 H5533 0.950 . S
H5530 C5526 0.950 . S
C5531 C5529 1.390 . S
C5531 C5532 1.387 . S
C5531 H5534 0.950 . S
C5532 C5531 1.387 . S
C5532 C5535 1.387 . S
H5533 C5529 0.950 . S
H5534 C5531 0.950 . S
C5535 C5526 1.390 . S
C5535 H5528 0.950 . S
C5535 C5532 1.387 . S
C5536 C5537 1.387 . S
C5536 H5540 0.950 . S
C5536 C5545 1.390 . S
C5537 C5536 1.387 . S
C5537 C5539 1.387 . S
H5538 C5545 0.950 . S
C5539 C5537 1.387 . S
C5539 C5541 1.390 . S
C5539 H5543 0.950 . S
H5540 C5536 0.950 . S
C5541 C5539 1.390 . S
C5541 C5542 1.387 . S
C5541 H5544 0.950 . S
C5542 C5541 1.387 . S
C5542 C5545 1.387 . S
H5543 C5539 0.950 . S
H5544 C5541 0.950 . S
C5545 C5536 1.390 . S
C5545 H5538 0.950 . S
C5545 C5542 1.387 . S
C5546 C5547 1.387 . S
C5546 H5550 0.950 . S
C5546 C5555 1.390 . S
C5547 C5546 1.387 . S
C5547 C5549 1.387 . S
H5548 C5555 0.950 . S
C5549 C5547 1.387 . S
C5549 C5551 1.390 . S
C5549 H5553 0.950 . S
H5550 C5546 0.950 . S
C5551 C5549 1.390 . S
C5551 C5552 1.387 . S
C5551 H5554 0.950 . S
C5552 C5551 1.387 . S
C5552 C5555 1.387 . S
H5553 C5549 0.950 . S
H5554 C5551 0.950 . S
C5555 C5546 1.390 . S
C5555 H5548 0.950 . S
C5555 C5552 1.387 . S
C5556 C5557 1.387 . S
C5556 H5560 0.950 . S
C5556 C5565 1.390 . S
C5557 C5556 1.387 . S
C5557 C5559 1.387 . S
H5558 C5565 0.950 . S
C5559 C5557 1.387 . S
C5559 C5561 1.390 . S
C5559 H5563 0.950 . S
H5560 C5556 0.950 . S
C5561 C5559 1.390 . S
C5561 C5562 1.387 . S
C5561 H5564 0.950 . S
C5562 C5561 1.387 . S
C5562 C5565 1.387 . S
H5563 C5559 0.950 . S
H5564 C5561 0.950 . S
C5565 C5556 1.390 . S
C5565 H5558 0.950 . S
C5565 C5562 1.387 . S
C5566 C5567 1.387 . S
C5566 H5570 0.950 . S
C5566 C5575 1.390 . S
C5567 C5566 1.387 . S
C5567 C5569 1.387 . S
H5568 C5575 0.950 . S
C5569 C5567 1.387 . S
C5569 C5571 1.390 . S
C5569 H5573 0.950 . S
H5570 C5566 0.950 . S
C5571 C5569 1.390 . S
C5571 C5572 1.387 . S
C5571 H5574 0.950 . S
C5572 C5571 1.387 . S
C5572 C5575 1.387 . S
H5573 C5569 0.950 . S
H5574 C5571 0.950 . S
C5575 C5566 1.390 . S
C5575 H5568 0.950 . S
C5575 C5572 1.387 . S
C5576 C5577 1.387 . S
C5576 H5580 0.950 . S
C5576 C5585 1.390 . S
C5577 C5576 1.387 . S
C5577 C5579 1.387 . S
H5578 C5585 0.950 . S
C5579 C5577 1.387 . S
C5579 C5581 1.390 . S
C5579 H5583 0.950 . S
H5580 C5576 0.950 . S
C5581 C5579 1.390 . S
C5581 C5582 1.387 . S
C5581 H5584 0.950 . S
C5582 C5581 1.387 . S
C5582 C5585 1.387 . S
H5583 C5579 0.950 . S
H5584 C5581 0.950 . S
C5585 C5576 1.390 . S
C5585 H5578 0.950 . S
C5585 C5582 1.387 . S
C5586 C5587 1.387 . S
C5586 H5590 0.950 . S
C5586 C5595 1.390 . S
C5587 C5586 1.387 . S
C5587 C5589 1.387 . S
H5588 C5595 0.950 . S
C5589 C5587 1.387 . S
C5589 C5591 1.390 . S
C5589 H5593 0.950 . S
H5590 C5586 0.950 . S
C5591 C5589 1.390 . S
C5591 C5592 1.387 . S
C5591 H5594 0.950 . S
C5592 C5591 1.387 . S
C5592 C5595 1.387 . S
H5593 C5589 0.950 . S
H5594 C5591 0.950 . S
C5595 C5586 1.390 . S
C5595 H5588 0.950 . S
C5595 C5592 1.387 . S
C5596 C5597 1.387 . S
C5596 H5600 0.950 . S
C5596 C5605 1.390 . S
C5597 C5596 1.387 . S
C5597 C5599 1.387 . S
H5598 C5605 0.950 . S
C5599 C5597 1.387 . S
C5599 C5601 1.390 . S
C5599 H5603 0.950 . S
H5600 C5596 0.950 . S
C5601 C5599 1.390 . S
C5601 C5602 1.387 . S
C5601 H5604 0.950 . S
C5602 C5601 1.387 . S
C5602 C5605 1.387 . S
H5603 C5599 0.950 . S
H5604 C5601 0.950 . S
C5605 C5596 1.390 . S
C5605 H5598 0.950 . S
C5605 C5602 1.387 . S
C5606 C5607 1.387 . S
C5606 H5610 0.950 . S
C5606 C5615 1.390 . S
C5607 C5606 1.387 . S
C5607 C5609 1.387 . S
H5608 C5615 0.950 . S
C5609 C5607 1.387 . S
C5609 C5611 1.390 . S
C5609 H5613 0.950 . S
H5610 C5606 0.950 . S
C5611 C5609 1.390 . S
C5611 C5612 1.387 . S
C5611 H5614 0.950 . S
C5612 C5611 1.387 . S
C5612 C5615 1.387 . S
H5613 C5609 0.950 . S
H5614 C5611 0.950 . S
C5615 C5606 1.390 . S
C5615 H5608 0.950 . S
C5615 C5612 1.387 . S
C5616 C5617 1.387 . S
C5616 H5620 0.950 . S
C5616 C5625 1.390 . S
C5617 C5616 1.387 . S
C5617 C5619 1.387 . S
H5618 C5625 0.950 . S
C5619 C5617 1.387 . S
C5619 C5621 1.390 . S
C5619 H5623 0.950 . S
H5620 C5616 0.950 . S
C5621 C5619 1.390 . S
C5621 C5622 1.387 . S
C5621 H5624 0.950 . S
C5622 C5621 1.387 . S
C5622 C5625 1.387 . S
H5623 C5619 0.950 . S
H5624 C5621 0.950 . S
C5625 C5616 1.390 . S
C5625 H5618 0.950 . S
C5625 C5622 1.387 . S
C5626 C5627 1.387 . S
C5626 H5630 0.950 . S
C5626 C5635 1.390 . S
C5627 C5626 1.387 . S
C5627 C5629 1.387 . S
H5628 C5635 0.950 . S
C5629 C5627 1.387 . S
C5629 C5631 1.390 . S
C5629 H5633 0.950 . S
H5630 C5626 0.950 . S
C5631 C5629 1.390 . S
C5631 C5632 1.387 . S
C5631 H5634 0.950 . S
C5632 C5631 1.387 . S
C5632 C5635 1.387 . S
H5633 C5629 0.950 . S
H5634 C5631 0.950 . S
C5635 C5626 1.390 . S
C5635 H5628 0.950 . S
C5635 C5632 1.387 . S
C5636 C5637 1.387 . S
C5636 H5640 0.950 . S
C5636 C5645 1.390 . S
C5637 C5636 1.387 . S
C5637 C5639 1.387 . S
H5638 C5645 0.950 . S
C5639 C5637 1.387 . S
C5639 C5641 1.390 . S
C5639 H5643 0.950 . S
H5640 C5636 0.950 . S
C5641 C5639 1.390 . S
C5641 C5642 1.387 . S
C5641 H5644 0.950 . S
C5642 C5641 1.387 . S
C5642 C5645 1.387 . S
H5643 C5639 0.950 . S
H5644 C5641 0.950 . S
C5645 C5636 1.390 . S
C5645 H5638 0.950 . S
C5645 C5642 1.387 . S
C5646 C5647 1.387 . S
C5646 H5650 0.950 . S
C5646 C5655 1.390 . S
C5647 C5646 1.387 . S
C5647 C5649 1.387 . S
H5648 C5655 0.950 . S
C5649 C5647 1.387 . S
C5649 C5651 1.390 . S
C5649 H5653 0.950 . S
H5650 C5646 0.950 . S
C5651 C5649 1.390 . S
C5651 C5652 1.387 . S
C5651 H5654 0.950 . S
C5652 C5651 1.387 . S
C5652 C5655 1.387 . S
H5653 C5649 0.950 . S
H5654 C5651 0.950 . S
C5655 C5646 1.390 . S
C5655 H5648 0.950 . S
C5655 C5652 1.387 . S
C5656 C5657 1.387 . S
C5656 H5660 0.950 . S
C5656 C5665 1.390 . S
C5657 C5656 1.387 . S
C5657 C5659 1.387 . S
H5658 C5665 0.950 . S
C5659 C5657 1.387 . S
C5659 C5661 1.390 . S
C5659 H5663 0.950 . S
H5660 C5656 0.950 . S
C5661 C5659 1.390 . S
C5661 C5662 1.387 . S
C5661 H5664 0.950 . S
C5662 C5661 1.387 . S
C5662 C5665 1.387 . S
H5663 C5659 0.950 . S
H5664 C5661 0.950 . S
C5665 C5656 1.390 . S
C5665 H5658 0.950 . S
C5665 C5662 1.387 . S
C5666 C5667 1.387 . S
C5666 H5670 0.950 . S
C5666 C5675 1.390 . S
C5667 C5666 1.387 . S
C5667 C5669 1.387 . S
H5668 C5675 0.950 . S
C5669 C5667 1.387 . S
C5669 C5671 1.390 . S
C5669 H5673 0.950 . S
H5670 C5666 0.950 . S
C5671 C5669 1.390 . S
C5671 C5672 1.387 . S
C5671 H5674 0.950 . S
C5672 C5671 1.387 . S
C5672 C5675 1.387 . S
H5673 C5669 0.950 . S
H5674 C5671 0.950 . S
C5675 C5666 1.390 . S
C5675 H5668 0.950 . S
C5675 C5672 1.387 . S
C5676 C5677 1.387 . S
C5676 H5680 0.950 . S
C5676 C5685 1.390 . S
C5677 C5676 1.387 . S
C5677 C5679 1.387 . S
H5678 C5685 0.950 . S
C5679 C5677 1.387 . S
C5679 C5681 1.390 . S
C5679 H5683 0.950 . S
H5680 C5676 0.950 . S
C5681 C5679 1.390 . S
C5681 C5682 1.387 . S
C5681 H5684 0.950 . S
C5682 C5681 1.387 . S
C5682 C5685 1.387 . S
H5683 C5679 0.950 . S
H5684 C5681 0.950 . S
C5685 C5676 1.390 . S
C5685 H5678 0.950 . S
C5685 C5682 1.387 . S
C5686 C5687 1.387 . S
C5686 H5690 0.950 . S
C5686 C5695 1.390 . S
C5687 C5686 1.387 . S
C5687 C5689 1.387 . S
H5688 C5695 0.950 . S
C5689 C5687 1.387 . S
C5689 C5691 1.390 . S
C5689 H5693 0.950 . S
H5690 C5686 0.950 . S
C5691 C5689 1.390 . S
C5691 C5692 1.387 . S
C5691 H5694 0.950 . S
C5692 C5691 1.387 . S
C5692 C5695 1.387 . S
H5693 C5689 0.950 . S
H5694 C5691 0.950 . S
C5695 C5686 1.390 . S
C5695 H5688 0.950 . S
C5695 C5692 1.387 . S
C5696 C5697 1.387 . S
C5696 H5700 0.950 . S
C5696 C5705 1.390 . S
C5697 C5696 1.387 . S
C5697 C5699 1.387 . S
H5698 C5705 0.950 . S
C5699 C5697 1.387 . S
C5699 C5701 1.390 . S
C5699 H5703 0.950 . S
H5700 C5696 0.950 . S
C5701 C5699 1.390 . S
C5701 C5702 1.387 . S
C5701 H5704 0.950 . S
C5702 C5701 1.387 . S
C5702 C5705 1.387 . S
H5703 C5699 0.950 . S
H5704 C5701 0.950 . S
C5705 C5696 1.390 . S
C5705 H5698 0.950 . S
C5705 C5702 1.387 . S
C5706 C5707 1.387 . S
C5706 H5710 0.950 . S
C5706 C5715 1.390 . S
C5707 C5706 1.387 . S
C5707 C5709 1.387 . S
H5708 C5715 0.950 . S
C5709 C5707 1.387 . S
C5709 C5711 1.390 . S
C5709 H5713 0.950 . S
H5710 C5706 0.950 . S
C5711 C5709 1.390 . S
C5711 C5712 1.387 . S
C5711 H5714 0.950 . S
C5712 C5711 1.387 . S
C5712 C5715 1.387 . S
H5713 C5709 0.950 . S
H5714 C5711 0.950 . S
C5715 C5706 1.390 . S
C5715 H5708 0.950 . S
C5715 C5712 1.387 . S
C5716 C5717 1.387 . S
C5716 H5720 0.950 . S
C5716 C5725 1.390 . S
C5717 C5716 1.387 . S
C5717 C5719 1.387 . S
H5718 C5725 0.950 . S
C5719 C5717 1.387 . S
C5719 C5721 1.390 . S
C5719 H5723 0.950 . S
H5720 C5716 0.950 . S
C5721 C5719 1.390 . S
C5721 C5722 1.387 . S
C5721 H5724 0.950 . S
C5722 C5721 1.387 . S
C5722 C5725 1.387 . S
H5723 C5719 0.950 . S
H5724 C5721 0.950 . S
C5725 C5716 1.390 . S
C5725 H5718 0.950 . S
C5725 C5722 1.387 . S
C5726 C5727 1.387 . S
C5726 H5730 0.950 . S
C5726 C5735 1.390 . S
C5727 C5726 1.387 . S
C5727 C5729 1.387 . S
H5728 C5735 0.950 . S
C5729 C5727 1.387 . S
C5729 C5731 1.390 . S
C5729 H5733 0.950 . S
H5730 C5726 0.950 . S
C5731 C5729 1.390 . S
C5731 C5732 1.387 . S
C5731 H5734 0.950 . S
C5732 C5731 1.387 . S
C5732 C5735 1.387 . S
H5733 C5729 0.950 . S
H5734 C5731 0.950 . S
C5735 C5726 1.390 . S
C5735 H5728 0.950 . S
C5735 C5732 1.387 . S
C5736 C5737 1.387 . S
C5736 H5740 0.950 . S
C5736 C5745 1.390 . S
C5737 C5736 1.387 . S
C5737 C5739 1.387 . S
H5738 C5745 0.950 . S
C5739 C5737 1.387 . S
C5739 C5741 1.390 . S
C5739 H5743 0.950 . S
H5740 C5736 0.950 . S
C5741 C5739 1.390 . S
C5741 C5742 1.387 . S
C5741 H5744 0.950 . S
C5742 C5741 1.387 . S
C5742 C5745 1.387 . S
H5743 C5739 0.950 . S
H5744 C5741 0.950 . S
C5745 C5736 1.390 . S
C5745 H5738 0.950 . S
C5745 C5742 1.387 . S
C5746 C5747 1.387 . S
C5746 H5750 0.950 . S
C5746 C5755 1.390 . S
C5747 C5746 1.387 . S
C5747 C5749 1.387 . S
H5748 C5755 0.950 . S
C5749 C5747 1.387 . S
C5749 C5751 1.390 . S
C5749 H5753 0.950 . S
H5750 C5746 0.950 . S
C5751 C5749 1.390 . S
C5751 C5752 1.387 . S
C5751 H5754 0.950 . S
C5752 C5751 1.387 . S
C5752 C5755 1.387 . S
H5753 C5749 0.950 . S
H5754 C5751 0.950 . S
C5755 C5746 1.390 . S
C5755 H5748 0.950 . S
C5755 C5752 1.387 . S
C5756 C5757 1.387 . S
C5756 H5760 0.950 . S
C5756 C5765 1.390 . S
C5757 C5756 1.387 . S
C5757 C5759 1.387 . S
H5758 C5765 0.950 . S
C5759 C5757 1.387 . S
C5759 C5761 1.390 . S
C5759 H5763 0.950 . S
H5760 C5756 0.950 . S
C5761 C5759 1.390 . S
C5761 C5762 1.387 . S
C5761 H5764 0.950 . S
C5762 C5761 1.387 . S
C5762 C5765 1.387 . S
H5763 C5759 0.950 . S
H5764 C5761 0.950 . S
C5765 C5756 1.390 . S
C5765 H5758 0.950 . S
C5765 C5762 1.387 . S
C5766 C5767 1.387 . S
C5766 H5770 0.950 . S
C5766 C5775 1.390 . S
C5767 C5766 1.387 . S
C5767 C5769 1.387 . S
H5768 C5775 0.950 . S
C5769 C5767 1.387 . S
C5769 C5771 1.390 . S
C5769 H5773 0.950 . S
H5770 C5766 0.950 . S
C5771 C5769 1.390 . S
C5771 C5772 1.387 . S
C5771 H5774 0.950 . S
C5772 C5771 1.387 . S
C5772 C5775 1.387 . S
H5773 C5769 0.950 . S
H5774 C5771 0.950 . S
C5775 C5766 1.390 . S
C5775 H5768 0.950 . S
C5775 C5772 1.387 . S
C5776 C5777 1.387 . S
C5776 H5780 0.950 . S
C5776 C5785 1.390 . S
C5777 C5776 1.387 . S
C5777 C5779 1.387 . S
H5778 C5785 0.950 . S
C5779 C5777 1.387 . S
C5779 C5781 1.390 . S
C5779 H5783 0.950 . S
H5780 C5776 0.950 . S
C5781 C5779 1.390 . S
C5781 C5782 1.387 . S
C5781 H5784 0.950 . S
C5782 C5781 1.387 . S
C5782 C5785 1.387 . S
H5783 C5779 0.950 . S
H5784 C5781 0.950 . S
C5785 C5776 1.390 . S
C5785 H5778 0.950 . S
C5785 C5782 1.387 . S
C5786 C5787 1.387 . S
C5786 H5790 0.950 . S
C5786 C5795 1.390 . S
C5787 C5786 1.387 . S
C5787 C5789 1.387 . S
H5788 C5795 0.950 . S
C5789 C5787 1.387 . S
C5789 C5791 1.390 . S
C5789 H5793 0.950 . S
H5790 C5786 0.950 . S
C5791 C5789 1.390 . S
C5791 C5792 1.387 . S
C5791 H5794 0.950 . S
C5792 C5791 1.387 . S
C5792 C5795 1.387 . S
H5793 C5789 0.950 . S
H5794 C5791 0.950 . S
C5795 C5786 1.390 . S
C5795 H5788 0.950 . S
C5795 C5792 1.387 . S
C5796 C5797 1.387 . S
C5796 H5800 0.950 . S
C5796 C5805 1.390 . S
C5797 C5796 1.387 . S
C5797 C5799 1.387 . S
H5798 C5805 0.950 . S
C5799 C5797 1.387 . S
C5799 C5801 1.390 . S
C5799 H5803 0.950 . S
H5800 C5796 0.950 . S
C5801 C5799 1.390 . S
C5801 C5802 1.387 . S
C5801 H5804 0.950 . S
C5802 C5801 1.387 . S
C5802 C5805 1.387 . S
H5803 C5799 0.950 . S
H5804 C5801 0.950 . S
C5805 C5796 1.390 . S
C5805 H5798 0.950 . S
C5805 C5802 1.387 . S
C5806 C5807 1.387 . S
C5806 H5810 0.950 . S
C5806 C5815 1.390 . S
C5807 C5806 1.387 . S
C5807 C5809 1.387 . S
H5808 C5815 0.950 . S
C5809 C5807 1.387 . S
C5809 C5811 1.390 . S
C5809 H5813 0.950 . S
H5810 C5806 0.950 . S
C5811 C5809 1.390 . S
C5811 C5812 1.387 . S
C5811 H5814 0.950 . S
C5812 C5811 1.387 . S
C5812 C5815 1.387 . S
H5813 C5809 0.950 . S
H5814 C5811 0.950 . S
C5815 C5806 1.390 . S
C5815 H5808 0.950 . S
C5815 C5812 1.387 . S
C5816 C5817 1.387 . S
C5816 H5820 0.950 . S
C5816 C5825 1.390 . S
C5817 C5816 1.387 . S
C5817 C5819 1.387 . S
H5818 C5825 0.950 . S
C5819 C5817 1.387 . S
C5819 C5821 1.390 . S
C5819 H5823 0.950 . S
H5820 C5816 0.950 . S
C5821 C5819 1.390 . S
C5821 C5822 1.387 . S
C5821 H5824 0.950 . S
C5822 C5821 1.387 . S
C5822 C5825 1.387 . S
H5823 C5819 0.950 . S
H5824 C5821 0.950 . S
C5825 C5816 1.390 . S
C5825 H5818 0.950 . S
C5825 C5822 1.387 . S
C5826 C5827 1.387 . S
C5826 H5830 0.950 . S
C5826 C5835 1.390 . S
C5827 C5826 1.387 . S
C5827 C5829 1.387 . S
H5828 C5835 0.950 . S
C5829 C5827 1.387 . S
C5829 C5831 1.390 . S
C5829 H5833 0.950 . S
H5830 C5826 0.950 . S
C5831 C5829 1.390 . S
C5831 C5832 1.387 . S
C5831 H5834 0.950 . S
C5832 C5831 1.387 . S
C5832 C5835 1.387 . S
H5833 C5829 0.950 . S
H5834 C5831 0.950 . S
C5835 C5826 1.390 . S
C5835 H5828 0.950 . S
C5835 C5832 1.387 . S
C5836 C5837 1.387 . S
C5836 H5840 0.950 . S
C5836 C5845 1.390 . S
C5837 C5836 1.387 . S
C5837 C5839 1.387 . S
H5838 C5845 0.950 . S
C5839 C5837 1.387 . S
C5839 C5841 1.390 . S
C5839 H5843 0.950 . S
H5840 C5836 0.950 . S
C5841 C5839 1.390 . S
C5841 C5842 1.387 . S
C5841 H5844 0.950 . S
C5842 C5841 1.387 . S
C5842 C5845 1.387 . S
H5843 C5839 0.950 . S
H5844 C5841 0.950 . S
C5845 C5836 1.390 . S
C5845 H5838 0.950 . S
C5845 C5842 1.387 . S
C5846 C5847 1.387 . S
C5846 H5850 0.950 . S
C5846 C5855 1.390 . S
C5847 C5846 1.387 . S
C5847 C5849 1.387 . S
H5848 C5855 0.950 . S
C5849 C5847 1.387 . S
C5849 C5851 1.390 . S
C5849 H5853 0.950 . S
H5850 C5846 0.950 . S
C5851 C5849 1.390 . S
C5851 C5852 1.387 . S
C5851 H5854 0.950 . S
C5852 C5851 1.387 . S
C5852 C5855 1.387 . S
H5853 C5849 0.950 . S
H5854 C5851 0.950 . S
C5855 C5846 1.390 . S
C5855 H5848 0.950 . S
C5855 C5852 1.387 . S
C5856 C5857 1.387 . S
C5856 H5860 0.950 . S
C5856 C5865 1.390 . S
C5857 C5856 1.387 . S
C5857 C5859 1.387 . S
H5858 C5865 0.950 . S
C5859 C5857 1.387 . S
C5859 C5861 1.390 . S
C5859 H5863 0.950 . S
H5860 C5856 0.950 . S
C5861 C5859 1.390 . S
C5861 C5862 1.387 . S
C5861 H5864 0.950 . S
C5862 C5861 1.387 . S
C5862 C5865 1.387 . S
H5863 C5859 0.950 . S
H5864 C5861 0.950 . S
C5865 C5856 1.390 . S
C5865 H5858 0.950 . S
C5865 C5862 1.387 . S
C5866 C5867 1.387 . S
C5866 H5870 0.950 . S
C5866 C5875 1.390 . S
C5867 C5866 1.387 . S
C5867 C5869 1.387 . S
H5868 C5875 0.950 . S
C5869 C5867 1.387 . S
C5869 C5871 1.390 . S
C5869 H5873 0.950 . S
H5870 C5866 0.950 . S
C5871 C5869 1.390 . S
C5871 C5872 1.387 . S
C5871 H5874 0.950 . S
C5872 C5871 1.387 . S
C5872 C5875 1.387 . S
H5873 C5869 0.950 . S
H5874 C5871 0.950 . S
C5875 C5866 1.390 . S
C5875 H5868 0.950 . S
C5875 C5872 1.387 . S
C5876 C5877 1.387 . S
C5876 H5880 0.950 . S
C5876 C5885 1.390 . S
C5877 C5876 1.387 . S
C5877 C5879 1.387 . S
H5878 C5885 0.950 . S
C5879 C5877 1.387 . S
C5879 C5881 1.390 . S
C5879 H5883 0.950 . S
H5880 C5876 0.950 . S
C5881 C5879 1.390 . S
C5881 C5882 1.387 . S
C5881 H5884 0.950 . S
C5882 C5881 1.387 . S
C5882 C5885 1.387 . S
H5883 C5879 0.950 . S
H5884 C5881 0.950 . S
C5885 C5876 1.390 . S
C5885 H5878 0.950 . S
C5885 C5882 1.387 . S
C5886 C5887 1.387 . S
C5886 H5890 0.950 . S
C5886 C5895 1.390 . S
C5887 C5886 1.387 . S
C5887 C5889 1.387 . S
H5888 C5895 0.950 . S
C5889 C5887 1.387 . S
C5889 C5891 1.390 . S
C5889 H5893 0.950 . S
H5890 C5886 0.950 . S
C5891 C5889 1.390 . S
C5891 C5892 1.387 . S
C5891 H5894 0.950 . S
C5892 C5891 1.387 . S
C5892 C5895 1.387 . S
H5893 C5889 0.950 . S
H5894 C5891 0.950 . S
C5895 C5886 1.390 . S
C5895 H5888 0.950 . S
C5895 C5892 1.387 . S
C5896 C5897 1.387 . S
C5896 H5900 0.950 . S
C5896 C5905 1.390 . S
C5897 C5896 1.387 . S
C5897 C5899 1.387 . S
H5898 C5905 0.950 . S
C5899 C5897 1.387 . S
C5899 C5901 1.390 . S
C5899 H5903 0.950 . S
H5900 C5896 0.950 . S
C5901 C5899 1.390 . S
C5901 C5902 1.387 . S
C5901 H5904 0.950 . S
C5902 C5901 1.387 . S
C5902 C5905 1.387 . S
H5903 C5899 0.950 . S
H5904 C5901 0.950 . S
C5905 C5896 1.390 . S
C5905 H5898 0.950 . S
C5905 C5902 1.387 . S
C5906 C5907 1.387 . S
C5906 H5910 0.950 . S
C5906 C5915 1.390 . S
C5907 C5906 1.387 . S
C5907 C5909 1.387 . S
H5908 C5915 0.950 . S
C5909 C5907 1.387 . S
C5909 C5911 1.390 . S
C5909 H5913 0.950 . S
H5910 C5906 0.950 . S
C5911 C5909 1.390 . S
C5911 C5912 1.387 . S
C5911 H5914 0.950 . S
C5912 C5911 1.387 . S
C5912 C5915 1.387 . S
H5913 C5909 0.950 . S
H5914 C5911 0.950 . S
C5915 C5906 1.390 . S
C5915 H5908 0.950 . S
C5915 C5912 1.387 . S
C5916 C5917 1.387 . S
C5916 H5920 0.950 . S
C5916 C5925 1.390 . S
C5917 C5916 1.387 . S
C5917 C5919 1.387 . S
H5918 C5925 0.950 . S
C5919 C5917 1.387 . S
C5919 C5921 1.390 . S
C5919 H5923 0.950 . S
H5920 C5916 0.950 . S
C5921 C5919 1.390 . S
C5921 C5922 1.387 . S
C5921 H5924 0.950 . S
C5922 C5921 1.387 . S
C5922 C5925 1.387 . S
H5923 C5919 0.950 . S
H5924 C5921 0.950 . S
C5925 C5916 1.390 . S
C5925 H5918 0.950 . S
C5925 C5922 1.387 . S
C5926 C5927 1.387 . S
C5926 H5930 0.950 . S
C5926 C5935 1.390 . S
C5927 C5926 1.387 . S
C5927 C5929 1.387 . S
H5928 C5935 0.950 . S
C5929 C5927 1.387 . S
C5929 C5931 1.390 . S
C5929 H5933 0.950 . S
H5930 C5926 0.950 . S
C5931 C5929 1.390 . S
C5931 C5932 1.387 . S
C5931 H5934 0.950 . S
C5932 C5931 1.387 . S
C5932 C5935 1.387 . S
H5933 C5929 0.950 . S
H5934 C5931 0.950 . S
C5935 C5926 1.390 . S
C5935 H5928 0.950 . S
C5935 C5932 1.387 . S
C5936 C5937 1.387 . S
C5936 H5940 0.950 . S
C5936 C5945 1.390 . S
C5937 C5936 1.387 . S
C5937 C5939 1.387 . S
H5938 C5945 0.950 . S
C5939 C5937 1.387 . S
C5939 C5941 1.390 . S
C5939 H5943 0.950 . S
H5940 C5936 0.950 . S
C5941 C5939 1.390 . S
C5941 C5942 1.387 . S
C5941 H5944 0.950 . S
C5942 C5941 1.387 . S
C5942 C5945 1.387 . S
H5943 C5939 0.950 . S
H5944 C5941 0.950 . S
C5945 C5936 1.390 . S
C5945 H5938 0.950 . S
C5945 C5942 1.387 . S
C5946 C5947 1.387 . S
C5946 H5950 0.950 . S
C5946 C5955 1.390 . S
C5947 C5946 1.387 . S
C5947 C5949 1.387 . S
H5948 C5955 0.950 . S
C5949 C5947 1.387 . S
C5949 C5951 1.390 . S
C5949 H5953 0.950 . S
H5950 C5946 0.950 . S
C5951 C5949 1.390 . S
C5951 C5952 1.387 . S
C5951 H5954 0.950 . S
C5952 C5951 1.387 . S
C5952 C5955 1.387 . S
H5953 C5949 0.950 . S
H5954 C5951 0.950 . S
C5955 C5946 1.390 . S
C5955 H5948 0.950 . S
C5955 C5952 1.387 . S
C5956 C5957 1.387 . S
C5956 H5960 0.950 . S
C5956 C5965 1.390 . S
C5957 C5956 1.387 . S
C5957 C5959 1.387 . S
H5958 C5965 0.950 . S
C5959 C5957 1.387 . S
C5959 C5961 1.390 . S
C5959 H5963 0.950 . S
H5960 C5956 0.950 . S
C5961 C5959 1.390 . S
C5961 C5962 1.387 . S
C5961 H5964 0.950 . S
C5962 C5961 1.387 . S
C5962 C5965 1.387 . S
H5963 C5959 0.950 . S
H5964 C5961 0.950 . S
C5965 C5956 1.390 . S
C5965 H5958 0.950 . S
C5965 C5962 1.387 . S
C5966 C5967 1.387 . S
C5966 H5970 0.950 . S
C5966 C5975 1.390 . S
C5967 C5966 1.387 . S
C5967 C5969 1.387 . S
H5968 C5975 0.950 . S
C5969 C5967 1.387 . S
C5969 C5971 1.390 . S
C5969 H5973 0.950 . S
H5970 C5966 0.950 . S
C5971 C5969 1.390 . S
C5971 C5972 1.387 . S
C5971 H5974 0.950 . S
C5972 C5971 1.387 . S
C5972 C5975 1.387 . S
H5973 C5969 0.950 . S
H5974 C5971 0.950 . S
C5975 C5966 1.390 . S
C5975 H5968 0.950 . S
C5975 C5972 1.387 . S
C5976 C5977 1.387 . S
C5976 H5980 0.950 . S
C5976 C5985 1.390 . S
C5977 C5976 1.387 . S
C5977 C5979 1.387 . S
H5978 C5985 0.950 . S
C5979 C5977 1.387 . S
C5979 C5981 1.390 . S
C5979 H5983 0.950 . S
H5980 C5976 0.950 . S
C5981 C5979 1.390 . S
C5981 C5982 1.387 . S
C5981 H5984 0.950 . S
C5982 C5981 1.387 . S
C5982 C5985 1.387 . S
H5983 C5979 0.950 . S
H5984 C5981 0.950 . S
C5985 C5976 1.390 . S
C5985 H5978 0.950 . S
C5985 C5982 1.387 . S
C5986 C5987 1.387 . S
C5986 H5990 0.950 . S
C5986 C5995 1.390 . S
C5987 C5986 1.387 . S
C5987 C5989 1.387 . S
H5988 C5995 0.950 . S
C5989 C5987 1.387 . S
C5989 C5991 1.390 . S
C5989 H5993 0.950 . S
H5990 C5986 0.950 . S
C5991 C5989 1.390 . S
C5991 C5992 1.387 . S
C5991 H5994 0.950 . S
C5992 C5991 1.387 . S
C5992 C5995 1.387 . S
H5993 C5989 0.950 . S
H5994 C5991 0.950 . S
C5995 C5986 1.390 . S
C5995 H5988 0.950 . S
C5995 C5992 1.387 . S
C5996 C5997 1.387 . S
C5996 H6000 0.950 . S
C5996 C6005 1.390 . S
C5997 C5996 1.387 . S
C5997 C5999 1.387 . S
H5998 C6005 0.950 . S
C5999 C5997 1.387 . S
C5999 C6001 1.390 . S
C5999 H6003 0.950 . S
H6000 C5996 0.950 . S
C6001 C5999 1.390 . S
C6001 C6002 1.387 . S
C6001 H6004 0.950 . S
C6002 C6001 1.387 . S
C6002 C6005 1.387 . S
H6003 C5999 0.950 . S
H6004 C6001 0.950 . S
C6005 C5996 1.390 . S
C6005 H5998 0.950 . S
C6005 C6002 1.387 . S
C6006 C6007 1.387 . S
C6006 H6010 0.950 . S
C6006 C6015 1.390 . S
C6007 C6006 1.387 . S
C6007 C6009 1.387 . S
H6008 C6015 0.950 . S
C6009 C6007 1.387 . S
C6009 C6011 1.390 . S
C6009 H6013 0.950 . S
H6010 C6006 0.950 . S
C6011 C6009 1.390 . S
C6011 C6012 1.387 . S
C6011 H6014 0.950 . S
C6012 C6011 1.387 . S
C6012 C6015 1.387 . S
H6013 C6009 0.950 . S
H6014 C6011 0.950 . S
C6015 C6006 1.390 . S
C6015 H6008 0.950 . S
C6015 C6012 1.387 . S
C6016 C6017 1.387 . S
C6016 H6020 0.950 . S
C6016 C6025 1.390 . S
C6017 C6016 1.387 . S
C6017 C6019 1.387 . S
H6018 C6025 0.950 . S
C6019 C6017 1.387 . S
C6019 C6021 1.390 . S
C6019 H6023 0.950 . S
H6020 C6016 0.950 . S
C6021 C6019 1.390 . S
C6021 C6022 1.387 . S
C6021 H6024 0.950 . S
C6022 C6021 1.387 . S
C6022 C6025 1.387 . S
H6023 C6019 0.950 . S
H6024 C6021 0.950 . S
C6025 C6016 1.390 . S
C6025 H6018 0.950 . S
C6025 C6022 1.387 . S
C6026 C6027 1.387 . S
C6026 H6030 0.950 . S
C6026 C6035 1.390 . S
C6027 C6026 1.387 . S
C6027 C6029 1.387 . S
H6028 C6035 0.950 . S
C6029 C6027 1.387 . S
C6029 C6031 1.390 . S
C6029 H6033 0.950 . S
H6030 C6026 0.950 . S
C6031 C6029 1.390 . S
C6031 C6032 1.387 . S
C6031 H6034 0.950 . S
C6032 C6031 1.387 . S
C6032 C6035 1.387 . S
H6033 C6029 0.950 . S
H6034 C6031 0.950 . S
C6035 C6026 1.390 . S
C6035 H6028 0.950 . S
C6035 C6032 1.387 . S
C6036 C6037 1.387 . S
C6036 H6040 0.950 . S
C6036 C6045 1.390 . S
C6037 C6036 1.387 . S
C6037 C6039 1.387 . S
H6038 C6045 0.950 . S
C6039 C6037 1.387 . S
C6039 C6041 1.390 . S
C6039 H6043 0.950 . S
H6040 C6036 0.950 . S
C6041 C6039 1.390 . S
C6041 C6042 1.387 . S
C6041 H6044 0.950 . S
C6042 C6041 1.387 . S
C6042 C6045 1.387 . S
H6043 C6039 0.950 . S
H6044 C6041 0.950 . S
C6045 C6036 1.390 . S
C6045 H6038 0.950 . S
C6045 C6042 1.387 . S
C6046 C6047 1.387 . S
C6046 H6050 0.950 . S
C6046 C6055 1.390 . S
C6047 C6046 1.387 . S
C6047 C6049 1.387 . S
H6048 C6055 0.950 . S
C6049 C6047 1.387 . S
C6049 C6051 1.390 . S
C6049 H6053 0.950 . S
H6050 C6046 0.950 . S
C6051 C6049 1.390 . S
C6051 C6052 1.387 . S
C6051 H6054 0.950 . S
C6052 C6051 1.387 . S
C6052 C6055 1.387 . S
H6053 C6049 0.950 . S
H6054 C6051 0.950 . S
C6055 C6046 1.390 . S
C6055 H6048 0.950 . S
C6055 C6052 1.387 . S
C6056 C6057 1.387 . S
C6056 H6060 0.950 . S
C6056 C6065 1.390 . S
C6057 C6056 1.387 . S
C6057 C6059 1.387 . S
H6058 C6065 0.950 . S
C6059 C6057 1.387 . S
C6059 C6061 1.390 . S
C6059 H6063 0.950 . S
H6060 C6056 0.950 . S
C6061 C6059 1.390 . S
C6061 C6062 1.387 . S
C6061 H6064 0.950 . S
C6062 C6061 1.387 . S
C6062 C6065 1.387 . S
H6063 C6059 0.950 . S
H6064 C6061 0.950 . S
C6065 C6056 1.390 . S
C6065 H6058 0.950 . S
C6065 C6062 1.387 . S
C6066 C6067 1.387 . S
C6066 H6070 0.950 . S
C6066 C6075 1.390 . S
C6067 C6066 1.387 . S
C6067 C6069 1.387 . S
H6068 C6075 0.950 . S
C6069 C6067 1.387 . S
C6069 C6071 1.390 . S
C6069 H6073 0.950 . S
H6070 C6066 0.950 . S
C6071 C6069 1.390 . S
C6071 C6072 1.387 . S
C6071 H6074 0.950 . S
C6072 C6071 1.387 . S
C6072 C6075 1.387 . S
H6073 C6069 0.950 . S
H6074 C6071 0.950 . S
C6075 C6066 1.390 . S
C6075 H6068 0.950 . S
C6075 C6072 1.387 . S
C6076 C6077 1.387 . S
C6076 H6080 0.950 . S
C6076 C6085 1.390 . S
C6077 C6076 1.387 . S
C6077 C6079 1.387 . S
H6078 C6085 0.950 . S
C6079 C6077 1.387 . S
C6079 C6081 1.390 . S
C6079 H6083 0.950 . S
H6080 C6076 0.950 . S
C6081 C6079 1.390 . S
C6081 C6082 1.387 . S
C6081 H6084 0.950 . S
C6082 C6081 1.387 . S
C6082 C6085 1.387 . S
H6083 C6079 0.950 . S
H6084 C6081 0.950 . S
C6085 C6076 1.390 . S
C6085 H6078 0.950 . S
C6085 C6082 1.387 . S
C6086 C6087 1.387 . S
C6086 H6090 0.950 . S
C6086 C6095 1.390 . S
C6087 C6086 1.387 . S
C6087 C6089 1.387 . S
H6088 C6095 0.950 . S
C6089 C6087 1.387 . S
C6089 C6091 1.390 . S
C6089 H6093 0.950 . S
H6090 C6086 0.950 . S
C6091 C6089 1.390 . S
C6091 C6092 1.387 . S
C6091 H6094 0.950 . S
C6092 C6091 1.387 . S
C6092 C6095 1.387 . S
H6093 C6089 0.950 . S
H6094 C6091 0.950 . S
C6095 C6086 1.390 . S
C6095 H6088 0.950 . S
C6095 C6092 1.387 . S
C6096 C6097 1.387 . S
C6096 H6100 0.950 . S
C6096 C6105 1.390 . S
C6097 C6096 1.387 . S
C6097 C6099 1.387 . S
H6098 C6105 0.950 . S
C6099 C6097 1.387 . S
C6099 C6101 1.390 . S
C6099 H6103 0.950 . S
H6100 C6096 0.950 . S
C6101 C6099 1.390 . S
C6101 C6102 1.387 . S
C6101 H6104 0.950 . S
C6102 C6101 1.387 . S
C6102 C6105 1.387 . S
H6103 C6099 0.950 . S
H6104 C6101 0.950 . S
C6105 C6096 1.390 . S
C6105 H6098 0.950 . S
C6105 C6102 1.387 . S
C6106 C6107 1.387 . S
C6106 H6110 0.950 . S
C6106 C6115 1.390 . S
C6107 C6106 1.387 . S
C6107 C6109 1.387 . S
H6108 C6115 0.950 . S
C6109 C6107 1.387 . S
C6109 C6111 1.390 . S
C6109 H6113 0.950 . S
H6110 C6106 0.950 . S
C6111 C6109 1.390 . S
C6111 C6112 1.387 . S
C6111 H6114 0.950 . S
C6112 C6111 1.387 . S
C6112 C6115 1.387 . S
H6113 C6109 0.950 . S
H6114 C6111 0.950 . S
C6115 C6106 1.390 . S
C6115 H6108 0.950 . S
C6115 C6112 1.387 . S
C6116 C6117 1.387 . S
C6116 H6120 0.950 . S
C6116 C6125 1.390 . S
C6117 C6116 1.387 . S
C6117 C6119 1.387 . S
H6118 C6125 0.950 . S
C6119 C6117 1.387 . S
C6119 C6121 1.390 . S
C6119 H6123 0.950 . S
H6120 C6116 0.950 . S
C6121 C6119 1.390 . S
C6121 C6122 1.387 . S
C6121 H6124 0.950 . S
C6122 C6121 1.387 . S
C6122 C6125 1.387 . S
H6123 C6119 0.950 . S
H6124 C6121 0.950 . S
C6125 C6116 1.390 . S
C6125 H6118 0.950 . S
C6125 C6122 1.387 . S
C6126 C6127 1.387 . S
C6126 H6130 0.950 . S
C6126 C6135 1.390 . S
C6127 C6126 1.387 . S
C6127 C6129 1.387 . S
H6128 C6135 0.950 . S
C6129 C6127 1.387 . S
C6129 C6131 1.390 . S
C6129 H6133 0.950 . S
H6130 C6126 0.950 . S
C6131 C6129 1.390 . S
C6131 C6132 1.387 . S
C6131 H6134 0.950 . S
C6132 C6131 1.387 . S
C6132 C6135 1.387 . S
H6133 C6129 0.950 . S
H6134 C6131 0.950 . S
C6135 C6126 1.390 . S
C6135 H6128 0.950 . S
C6135 C6132 1.387 . S
C6136 C6137 1.387 . S
C6136 H6140 0.950 . S
C6136 C6145 1.390 . S
C6137 C6136 1.387 . S
C6137 C6139 1.387 . S
H6138 C6145 0.950 . S
C6139 C6137 1.387 . S
C6139 C6141 1.390 . S
C6139 H6143 0.950 . S
H6140 C6136 0.950 . S
C6141 C6139 1.390 . S
C6141 C6142 1.387 . S
C6141 H6144 0.950 . S
C6142 C6141 1.387 . S
C6142 C6145 1.387 . S
H6143 C6139 0.950 . S
H6144 C6141 0.950 . S
C6145 C6136 1.390 . S
C6145 H6138 0.950 . S
C6145 C6142 1.387 . S
C6146 C6147 1.387 . S
C6146 H6150 0.950 . S
C6146 C6155 1.390 . S
C6147 C6146 1.387 . S
C6147 C6149 1.387 . S
H6148 C6155 0.950 . S
C6149 C6147 1.387 . S
C6149 C6151 1.390 . S
C6149 H6153 0.950 . S
H6150 C6146 0.950 . S
C6151 C6149 1.390 . S
C6151 C6152 1.387 . S
C6151 H6154 0.950 . S
C6152 C6151 1.387 . S
C6152 C6155 1.387 . S
H6153 C6149 0.950 . S
H6154 C6151 0.950 . S
C6155 C6146 1.390 . S
C6155 H6148 0.950 . S
C6155 C6152 1.387 . S
C6156 C6157 1.387 . S
C6156 H6160 0.950 . S
C6156 C6165 1.390 . S
C6157 C6156 1.387 . S
C6157 C6159 1.387 . S
H6158 C6165 0.950 . S
C6159 C6157 1.387 . S
C6159 C6161 1.390 . S
C6159 H6163 0.950 . S
H6160 C6156 0.950 . S
C6161 C6159 1.390 . S
C6161 C6162 1.387 . S
C6161 H6164 0.950 . S
C6162 C6161 1.387 . S
C6162 C6165 1.387 . S
H6163 C6159 0.950 . S
H6164 C6161 0.950 . S
C6165 C6156 1.390 . S
C6165 H6158 0.950 . S
C6165 C6162 1.387 . S
C6166 C6167 1.387 . S
C6166 H6170 0.950 . S
C6166 C6175 1.390 . S
C6167 C6166 1.387 . S
C6167 C6169 1.387 . S
H6168 C6175 0.950 . S
C6169 C6167 1.387 . S
C6169 C6171 1.390 . S
C6169 H6173 0.950 . S
H6170 C6166 0.950 . S
C6171 C6169 1.390 . S
C6171 C6172 1.387 . S
C6171 H6174 0.950 . S
C6172 C6171 1.387 . S
C6172 C6175 1.387 . S
H6173 C6169 0.950 . S
H6174 C6171 0.950 . S
C6175 C6166 1.390 . S
C6175 H6168 0.950 . S
C6175 C6172 1.387 . S
C6176 C6177 1.387 . S
C6176 H6180 0.950 . S
C6176 C6185 1.390 . S
C6177 C6176 1.387 . S
C6177 C6179 1.387 . S
H6178 C6185 0.950 . S
C6179 C6177 1.387 . S
C6179 C6181 1.390 . S
C6179 H6183 0.950 . S
H6180 C6176 0.950 . S
C6181 C6179 1.390 . S
C6181 C6182 1.387 . S
C6181 H6184 0.950 . S
C6182 C6181 1.387 . S
C6182 C6185 1.387 . S
H6183 C6179 0.950 . S
H6184 C6181 0.950 . S
C6185 C6176 1.390 . S
C6185 H6178 0.950 . S
C6185 C6182 1.387 . S
C6186 C6187 1.387 . S
C6186 H6190 0.950 . S
C6186 C6195 1.390 . S
C6187 C6186 1.387 . S
C6187 C6189 1.387 . S
H6188 C6195 0.950 . S
C6189 C6187 1.387 . S
C6189 C6191 1.390 . S
C6189 H6193 0.950 . S
H6190 C6186 0.950 . S
C6191 C6189 1.390 . S
C6191 C6192 1.387 . S
C6191 H6194 0.950 . S
C6192 C6191 1.387 . S
C6192 C6195 1.387 . S
H6193 C6189 0.950 . S
H6194 C6191 0.950 . S
C6195 C6186 1.390 . S
C6195 H6188 0.950 . S
C6195 C6192 1.387 . S
C6196 C6197 1.387 . S
C6196 H6200 0.950 . S
C6196 C6205 1.390 . S
C6197 C6196 1.387 . S
C6197 C6199 1.387 . S
H6198 C6205 0.950 . S
C6199 C6197 1.387 . S
C6199 C6201 1.390 . S
C6199 H6203 0.950 . S
H6200 C6196 0.950 . S
C6201 C6199 1.390 . S
C6201 C6202 1.387 . S
C6201 H6204 0.950 . S
C6202 C6201 1.387 . S
C6202 C6205 1.387 . S
H6203 C6199 0.950 . S
H6204 C6201 0.950 . S
C6205 C6196 1.390 . S
C6205 H6198 0.950 . S
C6205 C6202 1.387 . S
C6206 C6207 1.387 . S
C6206 H6210 0.950 . S
C6206 C6215 1.390 . S
C6207 C6206 1.387 . S
C6207 C6209 1.387 . S
H6208 C6215 0.950 . S
C6209 C6207 1.387 . S
C6209 C6211 1.390 . S
C6209 H6213 0.950 . S
H6210 C6206 0.950 . S
C6211 C6209 1.390 . S
C6211 C6212 1.387 . S
C6211 H6214 0.950 . S
C6212 C6211 1.387 . S
C6212 C6215 1.387 . S
H6213 C6209 0.950 . S
H6214 C6211 0.950 . S
C6215 C6206 1.390 . S
C6215 H6208 0.950 . S
C6215 C6212 1.387 . S
C6216 C6217 1.387 . S
C6216 H6220 0.950 . S
C6216 C6225 1.390 . S
C6217 C6216 1.387 . S
C6217 C6219 1.387 . S
H6218 C6225 0.950 . S
C6219 C6217 1.387 . S
C6219 C6221 1.390 . S
C6219 H6223 0.950 . S
H6220 C6216 0.950 . S
C6221 C6219 1.390 . S
C6221 C6222 1.387 . S
C6221 H6224 0.950 . S
C6222 C6221 1.387 . S
C6222 C6225 1.387 . S
H6223 C6219 0.950 . S
H6224 C6221 0.950 . S
C6225 C6216 1.390 . S
C6225 H6218 0.950 . S
C6225 C6222 1.387 . S
C6226 C6227 1.387 . S
C6226 H6230 0.950 . S
C6226 C6235 1.390 . S
C6227 C6226 1.387 . S
C6227 C6229 1.387 . S
H6228 C6235 0.950 . S
C6229 C6227 1.387 . S
C6229 C6231 1.390 . S
C6229 H6233 0.950 . S
H6230 C6226 0.950 . S
C6231 C6229 1.390 . S
C6231 C6232 1.387 . S
C6231 H6234 0.950 . S
C6232 C6231 1.387 . S
C6232 C6235 1.387 . S
H6233 C6229 0.950 . S
H6234 C6231 0.950 . S
C6235 C6226 1.390 . S
C6235 H6228 0.950 . S
C6235 C6232 1.387 . S
C6236 C6237 1.387 . S
C6236 H6240 0.950 . S
C6236 C6245 1.390 . S
C6237 C6236 1.387 . S
C6237 C6239 1.387 . S
H6238 C6245 0.950 . S
C6239 C6237 1.387 . S
C6239 C6241 1.390 . S
C6239 H6243 0.950 . S
H6240 C6236 0.950 . S
C6241 C6239 1.390 . S
C6241 C6242 1.387 . S
C6241 H6244 0.950 . S
C6242 C6241 1.387 . S
C6242 C6245 1.387 . S
H6243 C6239 0.950 . S
H6244 C6241 0.950 . S
C6245 C6236 1.390 . S
C6245 H6238 0.950 . S
C6245 C6242 1.387 . S
C6246 C6247 1.387 . S
C6246 H6250 0.950 . S
C6246 C6255 1.390 . S
C6247 C6246 1.387 . S
C6247 C6249 1.387 . S
H6248 C6255 0.950 . S
C6249 C6247 1.387 . S
C6249 C6251 1.390 . S
C6249 H6253 0.950 . S
H6250 C6246 0.950 . S
C6251 C6249 1.390 . S
C6251 C6252 1.387 . S
C6251 H6254 0.950 . S
C6252 C6251 1.387 . S
C6252 C6255 1.387 . S
H6253 C6249 0.950 . S
H6254 C6251 0.950 . S
C6255 C6246 1.390 . S
C6255 H6248 0.950 . S
C6255 C6252 1.387 . S
C6256 C6257 1.387 . S
C6256 H6260 0.950 . S
C6256 C6265 1.390 . S
C6257 C6256 1.387 . S
C6257 C6259 1.387 . S
H6258 C6265 0.950 . S
C6259 C6257 1.387 . S
C6259 C6261 1.390 . S
C6259 H6263 0.950 . S
H6260 C6256 0.950 . S
C6261 C6259 1.390 . S
C6261 C6262 1.387 . S
C6261 H6264 0.950 . S
C6262 C6261 1.387 . S
C6262 C6265 1.387 . S
H6263 C6259 0.950 . S
H6264 C6261 0.950 . S
C6265 C6256 1.390 . S
C6265 H6258 0.950 . S
C6265 C6262 1.387 . S
C6266 C6267 1.387 . S
C6266 H6270 0.950 . S
C6266 C6275 1.390 . S
C6267 C6266 1.387 . S
C6267 C6269 1.387 . S
H6268 C6275 0.950 . S
C6269 C6267 1.387 . S
C6269 C6271 1.390 . S
C6269 H6273 0.950 . S
H6270 C6266 0.950 . S
C6271 C6269 1.390 . S
C6271 C6272 1.387 . S
C6271 H6274 0.950 . S
C6272 C6271 1.387 . S
C6272 C6275 1.387 . S
H6273 C6269 0.950 . S
H6274 C6271 0.950 . S
C6275 C6266 1.390 . S
C6275 H6268 0.950 . S
C6275 C6272 1.387 . S
C6276 C6277 1.387 . S
C6276 H6280 0.950 . S
C6276 C6285 1.390 . S
C6277 C6276 1.387 . S
C6277 C6279 1.387 . S
H6278 C6285 0.950 . S
C6279 C6277 1.387 . S
C6279 C6281 1.390 . S
C6279 H6283 0.950 . S
H6280 C6276 0.950 . S
C6281 C6279 1.390 . S
C6281 C6282 1.387 . S
C6281 H6284 0.950 . S
C6282 C6281 1.387 . S
C6282 C6285 1.387 . S
H6283 C6279 0.950 . S
H6284 C6281 0.950 . S
C6285 C6276 1.390 . S
C6285 H6278 0.950 . S
C6285 C6282 1.387 . S
C6286 C6287 1.387 . S
C6286 H6290 0.950 . S
C6286 C6295 1.390 . S
C6287 C6286 1.387 . S
C6287 C6289 1.387 . S
H6288 C6295 0.950 . S
C6289 C6287 1.387 . S
C6289 C6291 1.390 . S
C6289 H6293 0.950 . S
H6290 C6286 0.950 . S
C6291 C6289 1.390 . S
C6291 C6292 1.387 . S
C6291 H6294 0.950 . S
C6292 C6291 1.387 . S
C6292 C6295 1.387 . S
H6293 C6289 0.950 . S
H6294 C6291 0.950 . S
C6295 C6286 1.390 . S
C6295 H6288 0.950 . S
C6295 C6292 1.387 . S
C6296 C6297 1.387 . S
C6296 H6300 0.950 . S
C6296 C6305 1.390 . S
C6297 C6296 1.387 . S
C6297 C6299 1.387 . S
H6298 C6305 0.950 . S
C6299 C6297 1.387 . S
C6299 C6301 1.390 . S
C6299 H6303 0.950 . S
H6300 C6296 0.950 . S
C6301 C6299 1.390 . S
C6301 C6302 1.387 . S
C6301 H6304 0.950 . S
C6302 C6301 1.387 . S
C6302 C6305 1.387 . S
H6303 C6299 0.950 . S
H6304 C6301 0.950 . S
C6305 C6296 1.390 . S
C6305 H6298 0.950 . S
C6305 C6302 1.387 . S
C6306 C6307 1.387 . S
C6306 H6310 0.950 . S
C6306 C6315 1.390 . S
C6307 C6306 1.387 . S
C6307 C6309 1.387 . S
H6308 C6315 0.950 . S
C6309 C6307 1.387 . S
C6309 C6311 1.390 . S
C6309 H6313 0.950 . S
H6310 C6306 0.950 . S
C6311 C6309 1.390 . S
C6311 C6312 1.387 . S
C6311 H6314 0.950 . S
C6312 C6311 1.387 . S
C6312 C6315 1.387 . S
H6313 C6309 0.950 . S
H6314 C6311 0.950 . S
C6315 C6306 1.390 . S
C6315 H6308 0.950 . S
C6315 C6312 1.387 . S
C6316 C6317 1.387 . S
C6316 H6320 0.950 . S
C6316 C6325 1.390 . S
C6317 C6316 1.387 . S
C6317 C6319 1.387 . S
H6318 C6325 0.950 . S
C6319 C6317 1.387 . S
C6319 C6321 1.390 . S
C6319 H6323 0.950 . S
H6320 C6316 0.950 . S
C6321 C6319 1.390 . S
C6321 C6322 1.387 . S
C6321 H6324 0.950 . S
C6322 C6321 1.387 . S
C6322 C6325 1.387 . S
H6323 C6319 0.950 . S
H6324 C6321 0.950 . S
C6325 C6316 1.390 . S
C6325 H6318 0.950 . S
C6325 C6322 1.387 . S
C6326 C6327 1.387 . S
C6326 H6330 0.950 . S
C6326 C6335 1.390 . S
C6327 C6326 1.387 . S
C6327 C6329 1.387 . S
H6328 C6335 0.950 . S
C6329 C6327 1.387 . S
C6329 C6331 1.390 . S
C6329 H6333 0.950 . S
H6330 C6326 0.950 . S
C6331 C6329 1.390 . S
C6331 C6332 1.387 . S
C6331 H6334 0.950 . S
C6332 C6331 1.387 . S
C6332 C6335 1.387 . S
H6333 C6329 0.950 . S
H6334 C6331 0.950 . S
C6335 C6326 1.390 . S
C6335 H6328 0.950 . S
C6335 C6332 1.387 . S
C2497 C10 1.529 . S
C2502 C368 1.528 . S
C2507 C23 1.529 . S
C2512 C387 1.529 . S
C2517 C394 1.529 . S
C2522 C36 1.529 . S
C2527 C49 1.529 . S
C2532 C407 1.529 . S
C2537 C56 1.528 . S
C2542 C322 1.529 . S
C2547 C75 1.529 . S
C2552 C329 1.529 . S
C2557 C82 1.529 . S
C2562 C348 1.529 . S
C2567 C95 1.529 . S
C2572 C355 1.529 . S
C2577 C108 1.529 . S
C2582 C2370 1.529 . S
C2587 C121 1.529 . S
C2592 C2383 1.529 . S
C2597 C140 1.529 . S
C2602 C2350 1.529 . S
C2607 C147 1.528 . S
C2612 C2357 1.529 . S
C2617 C2318 1.529 . S
C2622 C160 1.529 . S
C2627 C2331 1.528 . S
C2632 C179 1.529 . S
C2637 C2292 1.529 . S
C2642 C186 1.528 . S
C2647 C205 1.529 . S
C2652 C2305 1.528 . S
C2657 C212 1.529 . S
C2662 C589 1.529 . S
C2667 C2441 1.529 . S
C2672 C231 1.529 . S
C2677 C238 1.528 . S
C2682 C1824 1.529 . S
C2687 C2415 1.529 . S
C2692 C257 1.529 . S
C2697 C270 1.529 . S
C2702 C1804 1.528 . S
C2707 C524 1.528 . S
C2712 C277 1.529 . S
C2717 C2493 1.528 . S
C2722 C290 1.529 . S
C2727 C303 1.529 . S
C2732 C2480 1.529 . S
C2737 C2064 1.529 . S
C2742 C420 1.529 . S
C2747 C2077 1.529 . S
C2752 C439 1.528 . S
C2757 C452 1.528 . S
C2762 C2032 1.529 . S
C2767 C2045 1.529 . S
C2772 C459 1.528 . S
C2777 C478 1.529 . S
C2782 C2012 1.529 . S
C2787 C2019 1.528 . S
C2792 C491 1.529 . S
C2797 C1980 1.529 . S
C2802 C504 1.529 . S
C2807 C1993 1.528 . S
C2812 C511 1.529 . S
C2817 C2129 1.529 . S
C2822 C543 1.529 . S
C2827 C1512 1.528 . S
C2832 C550 1.529 . S
C2837 C563 1.529 . S
C2842 C2103 1.529 . S
C2847 C576 1.529 . S
C2852 C1492 1.528 . S
C2857 C2181 1.528 . S
C2862 C602 1.529 . S
C2867 C615 1.528 . S
C2872 C2162 1.529 . S
C2877 C634 1.529 . S
C2882 C998 1.528 . S
C2887 C647 1.529 . S
C2892 C1005 1.529 . S
C2897 C660 1.529 . S
C2902 C1018 1.529 . S
C2907 C1037 1.529 . S
C2912 C667 1.528 . S
C2917 C686 1.528 . S
C2922 C946 1.529 . S
C2927 C693 1.529 . S
C2932 C959 1.529 . S
C2937 C966 1.529 . S
C2942 C706 1.529 . S
C2947 C985 1.529 . S
C2952 C725 1.529 . S
C2957 C1752 1.528 . S
C2962 C732 1.529 . S
C2967 C751 1.528 . S
C2972 C1765 1.529 . S
C2977 C764 1.529 . S
C2982 C1720 1.529 . S
C2987 C1739 1.529 . S
C2992 C771 1.528 . S
C2997 C790 1.529 . S
C3002 C1700 1.529 . S
C3007 C803 1.529 . S
C3012 C1713 1.528 . S
C3017 C1674 1.529 . S
C3022 C810 1.529 . S
C3027 C829 1.529 . S
C3032 C1681 1.529 . S
C3037 C1213 1.528 . S
C3042 C836 1.529 . S
C3047 C1817 1.529 . S
C3052 C855 1.529 . S
C3057 C862 1.529 . S
C3062 C2454 1.529 . S
C3067 C1791 1.528 . S
C3072 C881 1.529 . S
C3077 C894 1.528 . S
C3082 C2422 1.529 . S
C3087 C901 1.529 . S
C3092 C1148 1.529 . S
C3097 C1863 1.528 . S
C3102 C920 1.529 . S
C3107 C1850 1.529 . S
C3112 C933 1.528 . S
C3117 C1434 1.529 . S
C3122 C1050 1.529 . S
C3127 C1453 1.529 . S
C3132 C1057 1.528 . S
C3137 C1414 1.529 . S
C3142 C1076 1.529 . S
C3147 C1427 1.529 . S
C3152 C1083 1.528 . S
C3157 C1388 1.529 . S
C3162 C1102 1.529 . S
C3167 C1109 1.529 . S
C3172 C1395 1.528 . S
C3177 C1362 1.529 . S
C3182 C1128 1.528 . S
C3187 C1375 1.528 . S
C3192 C1141 1.529 . S
C3197 C1505 1.529 . S
C3202 C1167 1.529 . S
C3207 C1180 1.529 . S
C3212 C2136 1.529 . S
C3217 C1187 1.529 . S
C3222 C1479 1.529 . S
C3227 C2116 1.529 . S
C3232 C1200 1.529 . S
C3237 C1557 1.529 . S
C3242 C1232 1.529 . S
C3247 C1239 1.529 . S
C3252 C1538 1.528 . S
C3257 C1252 1.529 . S
C3262 C1616 1.528 . S
C3267 C1635 1.528 . S
C3272 C1271 1.529 . S
C3277 C1642 1.529 . S
C3282 C1284 1.529 . S
C3287 C1661 1.528 . S
C3292 C1297 1.529 . S
C3297 C1564 1.529 . S
C3302 C1310 1.528 . S
C3307 C1577 1.529 . S
C3312 C1317 1.529 . S
C3317 C1330 1.529 . S
C3322 C1596 1.529 . S
C3327 C1343 1.528 . S
C3332 C1603 1.529 . S
C3337 C1460 1.529 . S
C3342 C1843 1.529 . S
C3347 C1772 1.529 . S
C3352 C1531 1.529 . S
C3357 C1882 1.529 . S
C3362 C2240 1.528 . S
C3367 C2253 1.529 . S
C3372 C1895 1.529 . S
C3377 C1908 1.528 . S
C3382 C2266 1.529 . S
C3387 C2285 1.529 . S
C3392 C1915 1.529 . S
C3397 C1928 1.528 . S
C3402 C2194 1.529 . S
C3407 C2201 1.529 . S
C3412 C1947 1.529 . S
C3417 C2214 1.529 . S
C3422 C1960 1.529 . S
C3427 C1973 1.529 . S
C3432 C2227 1.528 . S
C3437 C2090 1.528 . S
C3442 C2461 1.529 . S
C3447 C2396 1.529 . S
C3452 C2155 1.529 . S
C3457 C4 1.447 . S
C3462 C914 1.447 . S
C3467 C218 1.448 . S
C3472 C17 1.448 . S
C3477 C30 1.447 . S
C3482 C927 1.447 . S
C3487 C2149 1.447 . S
C3492 C43 1.447 . S
C3497 C868 1.447 . S
C3502 C62 1.447 . S
C3507 C1499 1.447 . S
C3512 C69 1.447 . S
C3517 C88 1.448 . S
C3522 C264 1.448 . S
C3527 C101 1.448 . S
C3532 C1473 1.448 . S
C3537 C1421 1.447 . S
C3542 C114 1.448 . S
C3547 C127 1.447 . S
C3552 C816 1.447 . S
C3557 C1447 1.447 . S
C3562 C134 1.447 . S
C3567 C153 1.447 . S
C3572 C784 1.447 . S
C3577 C777 1.447 . S
C3582 C166 1.447 . S
C3587 C173 1.447 . S
C3592 C1356 1.447 . S
C3597 C745 1.447 . S
C3602 C192 1.447 . S
C3607 C1382 1.448 . S
C3612 C199 1.448 . S
C3617 C1349 1.448 . S
C3622 C225 1.447 . S
C3627 C680 1.447 . S
C3632 C244 1.447 . S
C3637 C1323 1.448 . S
C3642 C251 1.448 . S
C3647 C1921 1.448 . S
C3652 C283 1.448 . S
C3657 C296 1.447 . S
C3662 C628 1.447 . S
C3667 C654 1.447 . S
C3672 C309 1.447 . S
C3677 C316 1.447 . S
C3682 C1226 1.447 . S
C3687 C530 1.447 . S
C3692 C335 1.447 . S
C3697 C342 1.448 . S
C3702 C1245 1.448 . S
C3707 C2467 1.448 . S
C3712 C361 1.448 . S
C3717 C1174 1.448 . S
C3722 C374 1.448 . S
C3727 C1811 1.447 . S
C3732 C381 1.447 . S
C3737 C400 1.447 . S
C3742 C582 1.447 . S
C3747 C1785 1.448 . S
C3752 C413 1.448 . S
C3757 C426 1.448 . S
C3762 C1733 1.448 . S
C3767 C1122 1.447 . S
C3772 C433 1.447 . S
C3777 C446 1.448 . S
C3782 C1759 1.448 . S
C3787 C465 1.447 . S
C3792 C1096 1.447 . S
C3797 C472 1.447 . S
C3802 C1089 1.447 . S
C3807 C485 1.447 . S
C3812 C1668 1.447 . S
C3817 C1063 1.447 . S
C3822 C498 1.447 . S
C3827 C517 1.447 . S
C3832 C1694 1.447 . S
C3837 C537 1.448 . S
C3842 C1655 1.448 . S
C3847 C992 1.447 . S
C3852 C556 1.447 . S
C3857 C1629 1.448 . S
C3862 C569 1.448 . S
C3867 C2233 1.448 . S
C3872 C595 1.448 . S
C3877 C940 1.447 . S
C3882 C608 1.447 . S
C3887 C621 1.447 . S
C3892 C972 1.447 . S
C3897 C842 1.448 . S
C3902 C641 1.448 . S
C3907 C673 1.447 . S
C3912 C1525 1.447 . S
C3917 C2123 1.447 . S
C3922 C699 1.448 . S
C3927 C888 1.448 . S
C3932 C712 1.448 . S
C3937 C719 1.447 . S
C3942 C2097 1.447 . S
C3947 C738 1.448 . S
C3952 C2051 1.447 . S
C3957 C2071 1.447 . S
C3962 C758 1.447 . S
C3967 C1986 1.448 . S
C3972 C797 1.448 . S
C3977 C823 1.448 . S
C3982 C2006 1.448 . S
C3987 C1967 1.448 . S
C3992 C849 1.448 . S
C3997 C875 1.448 . S
C4002 C1941 1.448 . S
C4007 C907 1.448 . S
C4012 C1291 1.448 . S
C4017 C1154 1.448 . S
C4022 C953 1.448 . S
C4027 C979 1.447 . S
C4032 C1837 1.447 . S
C4037 C1011 1.447 . S
C4042 C2435 1.447 . S
C4047 C1024 1.447 . S
C4052 C1206 1.448 . S
C4057 C1031 1.447 . S
C4062 C2409 1.447 . S
C4067 C2363 1.448 . S
C4072 C1044 1.448 . S
C4077 C1070 1.448 . S
C4082 C2389 1.447 . S
C4087 C2298 1.447 . S
C4092 C1115 1.447 . S
C4097 C2324 1.447 . S
C4102 C1135 1.447 . S
C4107 C1161 1.448 . S
C4112 C2279 1.448 . S
C4117 C1193 1.448 . S
C4122 C2259 1.448 . S
C4127 C1219 1.448 . S
C4132 C1609 1.448 . S
C4137 C2168 1.447 . S
C4142 C1258 1.447 . S
C4147 C1265 1.448 . S
C4152 C1466 1.448 . S
C4157 C2175 1.447 . S
C4162 C1278 1.447 . S
C4167 C2110 1.447 . S
C4172 C1304 1.448 . S
C4177 C1518 1.447 . S
C4182 C1336 1.447 . S
C4187 C2058 1.448 . S
C4192 C1369 1.448 . S
C4197 C1401 1.448 . S
C4202 C2038 1.448 . S
C4207 C1408 1.448 . S
C4212 C2025 1.448 . S
C4217 C1440 1.448 . S
C4222 C1999 1.447 . S
C4227 C1934 1.447 . S
C4232 C1486 1.447 . S
C4237 C1876 1.448 . S
C4242 C1544 1.448 . S
C4247 C1902 1.448 . S
C4252 C1551 1.448 . S
C4257 C1570 1.447 . S
C4262 C2474 1.447 . S
C4267 C1778 1.447 . S
C4272 C1583 1.447 . S
C4277 C2487 1.447 . S
C4282 C1590 1.447 . S
C4287 C1622 1.448 . S
C4292 C2428 1.448 . S
C4297 C1830 1.448 . S
C4302 C1648 1.448 . S
C4307 C2376 1.448 . S
C4312 C1687 1.448 . S
C4317 C1707 1.447 . S
C4322 C2344 1.447 . S
C4327 C1726 1.448 . S
C4332 C2337 1.448 . S
C4337 C2311 1.447 . S
C4342 C1746 1.447 . S
C4347 C2246 1.448 . S
C4352 C1798 1.448 . S
C4357 C1856 1.447 . S
C4362 C2188 1.447 . S
C4367 C1869 1.448 . S
C4372 C2220 1.448 . S
C4377 C2084 1.448 . S
C4382 C1889 1.448 . S
C4387 C2142 1.448 . S
C4392 C1954 1.448 . S
C4397 C2402 1.448 . S
C4402 C2207 1.448 . S
C4407 C2272 1.447 . S
C4412 C2448 1.447 . S
C4417 C109 1.288 . S
C4422 C5 1.307 . S
C4427 C18 1.307 . S
C4432 C122 1.288 . S
C4437 C133 1.288 . S
C4442 C31 1.307 . S
C4447 C44 1.307 . S
C4452 C148 1.288 . S
C4457 C161 1.288 . S
C4462 C55 1.307 . S
C4467 C172 1.288 . S
C4472 C70 1.305 . S
C4477 C187 1.289 . S
C4482 C81 1.305 . S
C4487 C94 1.305 . S
C4492 C198 1.288 . S
C4497 C107 1.307 . S
C4502 C213 1.288 . S
C4507 C120 1.305 . S
C4512 C926 1.288 . S
C4517 C135 1.307 . S
C4522 C2148 1.288 . S
C4527 C913 1.288 . S
C4532 C146 1.307 . S
C4537 C159 1.307 . S
C4542 C848 1.288 . S
C4547 C174 1.305 . S
C4552 C1485 1.288 . S
C4557 C185 1.307 . S
C4562 C874 1.288 . S
C4567 C200 1.307 . S
C4572 C2137 1.288 . S
C4577 C3 1.288 . S
C4582 C211 1.305 . S
C4587 C226 1.307 . S
C4592 C679 1.288 . S
C4597 C1318 1.288 . S
C4602 C237 1.305 . S
C4607 C252 1.305 . S
C4612 C707 1.288 . S
C4617 C1966 1.288 . S
C4622 C265 1.307 . S
C4627 C276 1.307 . S
C4632 C1901 1.288 . S
C4637 C668 1.288 . S
C4642 C289 1.307 . S
C4647 C640 1.288 . S
C4652 C302 1.305 . S
C4657 C421 1.288 . S
C4662 C317 1.305 . S
C4667 C328 1.305 . S
C4672 C432 1.288 . S
C4677 C343 1.307 . S
C4682 C445 1.288 . S
C4687 C354 1.307 . S
C4692 C460 1.288 . S
C4697 C471 1.288 . S
C4702 C367 1.307 . S
C4707 C484 1.288 . S
C4712 C382 1.305 . S
C4717 C393 1.307 . S
C4722 C497 1.288 . S
C4727 C512 1.288 . S
C4732 C406 1.305 . S
C4737 C419 1.305 . S
C4742 C525 1.288 . S
C4747 C434 1.307 . S
C4752 C1240 1.288 . S
C4757 C2462 1.288 . S
C4762 C447 1.307 . S
C4767 C458 1.307 . S
C4772 C1225 1.288 . S
C4777 C473 1.305 . S
C4782 C1160 1.288 . S
C4787 C1797 1.288 . S
C4792 C486 1.307 . S
C4797 C1188 1.288 . S
C4802 C499 1.305 . S
C4807 C2447 1.288 . S
C4812 C510 1.305 . S
C4817 C315 1.288 . S
C4822 C523 1.307 . S
C4827 C538 1.305 . S
C4832 C991 1.288 . S
C4837 C1628 1.288 . S
C4842 C549 1.307 . S
C4847 C562 1.305 . S
C4852 C1019 1.288 . S
C4857 C2278 1.288 . S
C4862 C575 1.305 . S
C4867 C2215 1.288 . S
C4872 C588 1.305 . S
C4877 C978 1.288 . S
C4882 C601 1.307 . S
C4887 C952 1.288 . S
C4892 C614 1.305 . S
C4897 C733 1.288 . S
C4902 C629 1.307 . S
C4907 C642 1.305 . S
C4912 C744 1.288 . S
C4917 C757 1.288 . S
C4922 C655 1.307 . S
C4927 C666 1.307 . S
C4932 C772 1.288 . S
C4937 C681 1.307 . S
C4942 C783 1.287 . S
C4947 C692 1.305 . S
C4952 C796 1.288 . S
C4957 C811 1.288 . S
C4962 C705 1.305 . S
C4967 C720 1.307 . S
C4972 C822 1.288 . S
C4977 C837 1.288 . S
C4982 C731 1.305 . S
C4987 C304 1.288 . S
C4992 C746 1.305 . S
C4997 C759 1.305 . S
C5002 C1524 1.288 . S
C5007 C291 1.288 . S
C5012 C770 1.305 . S
C5017 C785 1.307 . S
C5022 C224 1.288 . S
C5027 C2109 1.288 . S
C5032 C798 1.305 . S
C5037 C250 1.288 . S
C5042 C809 1.305 . S
C5047 C824 1.307 . S
C5052 C1513 1.288 . S
C5057 C835 1.307 . S
C5062 C627 1.288 . S
C5067 C57 1.288 . S
C5072 C850 1.305 . S
C5077 C861 1.305 . S
C5082 C1940 1.288 . S
C5087 C83 1.288 . S
C5092 C876 1.305 . S
C5097 C889 1.307 . S
C5102 C1344 1.288 . S
C5107 C1277 1.288 . S
C5112 C900 1.305 . S
C5117 C915 1.307 . S
C5122 C42 1.288 . S
C5127 C16 1.288 . S
C5132 C928 1.305 . S
C5137 C941 1.305 . S
C5142 C1043 1.288 . S
C5147 C954 1.307 . S
C5152 C1058 1.288 . S
C5157 C1069 1.288 . S
C5162 C965 1.307 . S
C5167 C980 1.305 . S
C5172 C1084 1.288 . S
C5177 C1095 1.288 . S
C5182 C993 1.305 . S
C5187 C1110 1.288 . S
C5192 C1004 1.307 . S
C5197 C1121 1.288 . S
C5202 C1017 1.305 . S
C5207 C1134 1.288 . S
C5212 C1032 1.305 . S
C5217 C1045 1.305 . S
C5222 C1149 1.288 . S
C5227 C1056 1.307 . S
C5232 C616 1.288 . S
C5237 C1071 1.305 . S
C5242 C1836 1.288 . S
C5247 C603 1.288 . S
C5252 C1082 1.307 . S
C5257 C1097 1.305 . S
C5262 C536 1.288 . S
C5267 C1108 1.305 . S
C5272 C2423 1.288 . S
C5277 C1123 1.305 . S
C5282 C564 1.288 . S
C5287 C1136 1.307 . S
C5292 C1825 1.288 . S
C5297 C939 1.288 . S
C5302 C1147 1.307 . S
C5307 C1162 1.305 . S
C5312 C369 1.288 . S
C5317 C2254 1.289 . S
C5322 C1175 1.305 . S
C5327 C395 1.288 . S
C5332 C1186 1.305 . S
C5337 C1199 1.305 . S
C5342 C1654 1.288 . S
C5347 C1589 1.288 . S
C5352 C1212 1.305 . S
C5357 C356 1.288 . S
C5362 C1227 1.307 . S
C5367 C1238 1.307 . S
C5372 C330 1.288 . S
C5377 C1251 1.305 . S
C5382 C1355 1.288 . S
C5387 C1266 1.305 . S
C5392 C1368 1.288 . S
C5397 C1381 1.288 . S
C5402 C1279 1.305 . S
C5407 C1396 1.288 . S
C5412 C1292 1.305 . S
C5417 C1407 1.288 . S
C5422 C1305 1.305 . S
C5427 C1420 1.288 . S
C5432 C1316 1.307 . S
C5437 C1329 1.305 . S
C5442 C1435 1.288 . S
C5447 C1342 1.307 . S
C5452 C1446 1.288 . S
C5457 C1461 1.288 . S
C5462 C1357 1.305 . S
C5467 C1370 1.307 . S
C5472 C2174 1.288 . S
C5477 C1383 1.307 . S
C5482 C902 1.288 . S
C5487 C1394 1.307 . S
C5492 C2163 1.288 . S
C5497 C1409 1.307 . S
C5502 C2096 1.288 . S
C5507 C239 1.288 . S
C5512 C1422 1.305 . S
C5517 C1433 1.307 . S
C5522 C2122 1.288 . S
C5527 C887 1.288 . S
C5532 C1448 1.305 . S
C5537 C1253 1.288 . S
C5542 C1459 1.305 . S
C5547 C1929 1.288 . S
C5552 C1474 1.307 . S
C5557 C68 1.288 . S
C5562 C1487 1.307 . S
C5567 C1953 1.288 . S
C5572 C1500 1.307 . S
C5577 C718 1.288 . S
C5582 C1511 1.305 . S
C5587 C653 1.288 . S
C5592 C1526 1.305 . S
C5597 C1537 1.307 . S
C5602 C1916 1.288 . S
C5607 C1552 1.305 . S
C5612 C1888 1.288 . S
C5617 C1563 1.305 . S
C5622 C1667 1.288 . S
C5627 C1682 1.288 . S
C5632 C1576 1.305 . S
C5637 C1591 1.307 . S
C5642 C1693 1.288 . S
C5647 C1706 1.288 . S
C5652 C1602 1.307 . S
C5657 C1721 1.288 . S
C5662 C1615 1.305 . S
C5667 C1732 1.288 . S
C5672 C1630 1.305 . S
C5677 C1641 1.305 . S
C5682 C1745 1.288 . S
C5687 C1758 1.288 . S
C5692 C1656 1.307 . S
C5697 C1669 1.307 . S
C5702 C1773 1.288 . S
C5707 C2486 1.288 . S
C5712 C1680 1.307 . S
C5717 C1214 1.288 . S
C5722 C1695 1.305 . S
C5727 C2473 1.288 . S
C5732 C1708 1.307 . S
C5737 C2408 1.288 . S
C5742 C1719 1.305 . S
C5747 C551 1.288 . S
C5752 C1734 1.305 . S
C5757 C2434 1.288 . S
C5762 C1747 1.305 . S
C5767 C1201 1.287 . S
C5772 C1760 1.305 . S
C5777 C1565 1.288 . S
C5782 C1771 1.307 . S
C5787 C1786 1.307 . S
C5792 C2241 1.288 . S
C5797 C380 1.288 . S
C5802 C1799 1.307 . S
C5807 C1812 1.307 . S
C5812 C2267 1.288 . S
C5817 C1030 1.288 . S
C5822 C1823 1.307 . S
C5827 C967 1.288 . S
C5832 C1838 1.305 . S
C5837 C1849 1.305 . S
C5842 C2228 1.288 . S
C5847 C1862 1.305 . S
C5852 C2202 1.288 . S
C5857 C1981 1.288 . S
C5862 C1877 1.305 . S
C5867 C1890 1.305 . S
C5872 C1994 1.288 . S
C5877 C1903 1.305 . S
C5882 C2005 1.288 . S
C5887 C1914 1.307 . S
C5892 C2020 1.288 . S
C5897 C1927 1.307 . S
C5902 C2033 1.288 . S
C5907 C2046 1.288 . S
C5912 C1942 1.305 . S
C5917 C2057 1.289 . S
C5922 C1955 1.307 . S
C5927 C2070 1.288 . S
C5932 C1968 1.305 . S
C5937 C1979 1.305 . S
C5942 C2083 1.288 . S
C5947 C1992 1.305 . S
C5952 C1550 1.288 . S
C5957 C278 1.288 . S
C5962 C2007 1.305 . S
C5967 C2018 1.305 . S
C5972 C1539 1.288 . S
C5977 C1472 1.288 . S
C5982 C2031 1.305 . S
C5987 C863 1.288 . S
C5992 C2044 1.305 . S
C5997 C2059 1.307 . S
C6002 C1498 1.288 . S
C6007 C2072 1.307 . S
C6012 C263 1.288 . S
C6017 C1875 1.288 . S
C6022 C2085 1.307 . S
C6027 C2098 1.307 . S
C6032 C1303 1.288 . S
C6037 C694 1.288 . S
C6042 C2111 1.305 . S
C6047 C2124 1.305 . S
C6052 C1331 1.288 . S
C6057 C96 1.288 . S
C6062 C2135 1.305 . S
C6067 C2150 1.307 . S
C6072 C29 1.289 . S
C6077 C1290 1.288 . S
C6082 C2161 1.305 . S
C6087 C2176 1.305 . S
C6092 C1264 1.288 . S
C6097 C2189 1.307 . S
C6102 C2293 1.289 . S
C6107 C2306 1.288 . S
C6112 C2200 1.307 . S
C6117 C2213 1.307 . S
C6122 C2319 1.288 . S
C6127 C2226 1.307 . S
C6132 C2332 1.288 . S
C6137 C2343 1.288 . S
C6142 C2239 1.305 . S
C6147 C2252 1.307 . S
C6152 C2358 1.288 . S
C6157 C2265 1.305 . S
C6162 C2371 1.288 . S
C6167 C2280 1.305 . S
C6172 C2384 1.288 . S
C6177 C2291 1.307 . S
C6182 C2397 1.288 . S
C6187 C2304 1.305 . S
C6192 C1864 1.288 . S
C6197 C590 1.290 . S
C6202 C2317 1.307 . S
C6207 C2330 1.305 . S
C6212 C1851 1.288 . S
C6217 C2345 1.307 . S
C6222 C1784 1.288 . S
C6227 C2356 1.305 . S
C6232 C1173 1.288 . S
C6237 C2369 1.305 . S
C6242 C1810 1.288 . S
C6247 C577 1.287 . S
C6252 C2382 1.304 . S
C6257 C2395 1.307 . S
C6262 C2187 1.288 . S
C6267 C2410 1.307 . S
C6272 C1617 1.288 . S
C6277 C2421 1.305 . S
C6282 C1006 1.288 . S
C6287 C2436 1.307 . S
C6292 C1643 1.288 . S
C6297 C2449 1.305 . S
C6302 C408 1.288 . S
C6307 C2460 1.307 . S
C6312 C341 1.288 . S
C6317 C1604 1.288 . S
C6322 C2475 1.307 . S
C6327 C1578 1.288 . S
C6332 C2488 1.307 . S
