# Generated by pormake.
# Topology uou, (4)-cn, num edge types: 1
# Building blocks:
#     Node 0, Type 0, BuildingBlock: QUQFOY_clean_sbu_3, # of connection points: 4
#     Node 1, Type 0, BuildingBlock: QUQFOY_clean_sbu_3, # of connection points: 4
#     Node 2, Type 0, BuildingBlock: QUQFOY_clean_sbu_3, # of connection points: 4
#     Node 3, Type 0, BuildingBlock: QUQFOY_clean_sbu_3, # of connection points: 4
#     Node 4, Type 0, BuildingBlock: QUQFOY_clean_sbu_3, # of connection points: 4
#     Node 5, Type 0, BuildingBlock: QUQFOY_clean_sbu_3, # of connection points: 4
#     Node 6, Type 0, BuildingBlock: QUQFOY_clean_sbu_3, # of connection points: 4
#     Node 7, Type 0, BuildingBlock: QUQFOY_clean_sbu_3, # of connection points: 4
#     Node 8, Type 0, BuildingBlock: QUQFOY_clean_sbu_3, # of connection points: 4
#     Node 9, Type 0, BuildingBlock: QUQFOY_clean_sbu_3, # of connection points: 4
#     Node 10, Type 0, BuildingBlock: QUQFOY_clean_sbu_3, # of connection points: 4
#     Node 11, Type 0, BuildingBlock: QUQFOY_clean_sbu_3, # of connection points: 4
#     Node 12, Type 0, BuildingBlock: QUQFOY_clean_sbu_3, # of connection points: 4
#     Node 13, Type 0, BuildingBlock: QUQFOY_clean_sbu_3, # of connection points: 4
#     Node 14, Type 0, BuildingBlock: QUQFOY_clean_sbu_3, # of connection points: 4
#     Node 15, Type 0, BuildingBlock: QUQFOY_clean_sbu_3, # of connection points: 4
#     Edge 16, Type (0, 0), BuildingBlock: TEMPAE_clean_linker_10, # of connection points: 2
#     Edge 17, Type (0, 0), BuildingBlock: TEMPAE_clean_linker_10, # of connection points: 2
#     Edge 18, Type (0, 0), BuildingBlock: TEMPAE_clean_linker_10, # of connection points: 2
#     Edge 19, Type (0, 0), BuildingBlock: TEMPAE_clean_linker_10, # of connection points: 2
#     Edge 20, Type (0, 0), BuildingBlock: TEMPAE_clean_linker_10, # of connection points: 2
#     Edge 21, Type (0, 0), BuildingBlock: TEMPAE_clean_linker_10, # of connection points: 2
#     Edge 22, Type (0, 0), BuildingBlock: TEMPAE_clean_linker_10, # of connection points: 2
#     Edge 23, Type (0, 0), BuildingBlock: TEMPAE_clean_linker_10, # of connection points: 2
#     Edge 24, Type (0, 0), BuildingBlock: TEMPAE_clean_linker_10, # of connection points: 2
#     Edge 25, Type (0, 0), BuildingBlock: TEMPAE_clean_linker_10, # of connection points: 2
#     Edge 26, Type (0, 0), BuildingBlock: TEMPAE_clean_linker_10, # of connection points: 2
#     Edge 27, Type (0, 0), BuildingBlock: TEMPAE_clean_linker_10, # of connection points: 2
#     Edge 28, Type (0, 0), BuildingBlock: TEMPAE_clean_linker_10, # of connection points: 2
#     Edge 29, Type (0, 0), BuildingBlock: TEMPAE_clean_linker_10, # of connection points: 2
#     Edge 30, Type (0, 0), BuildingBlock: TEMPAE_clean_linker_10, # of connection points: 2
#     Edge 31, Type (0, 0), BuildingBlock: TEMPAE_clean_linker_10, # of connection points: 2
#     Edge 32, Type (0, 0), BuildingBlock: TEMPAE_clean_linker_10, # of connection points: 2
#     Edge 33, Type (0, 0), BuildingBlock: TEMPAE_clean_linker_10, # of connection points: 2
#     Edge 34, Type (0, 0), BuildingBlock: TEMPAE_clean_linker_10, # of connection points: 2
#     Edge 35, Type (0, 0), BuildingBlock: TEMPAE_clean_linker_10, # of connection points: 2
#     Edge 36, Type (0, 0), BuildingBlock: TEMPAE_clean_linker_10, # of connection points: 2
#     Edge 37, Type (0, 0), BuildingBlock: TEMPAE_clean_linker_10, # of connection points: 2
#     Edge 38, Type (0, 0), BuildingBlock: TEMPAE_clean_linker_10, # of connection points: 2
#     Edge 39, Type (0, 0), BuildingBlock: TEMPAE_clean_linker_10, # of connection points: 2
#     Edge 40, Type (0, 0), BuildingBlock: TEMPAE_clean_linker_10, # of connection points: 2
#     Edge 41, Type (0, 0), BuildingBlock: TEMPAE_clean_linker_10, # of connection points: 2
#     Edge 42, Type (0, 0), BuildingBlock: TEMPAE_clean_linker_10, # of connection points: 2
#     Edge 43, Type (0, 0), BuildingBlock: TEMPAE_clean_linker_10, # of connection points: 2
#     Edge 44, Type (0, 0), BuildingBlock: TEMPAE_clean_linker_10, # of connection points: 2
#     Edge 45, Type (0, 0), BuildingBlock: TEMPAE_clean_linker_10, # of connection points: 2
#     Edge 46, Type (0, 0), BuildingBlock: TEMPAE_clean_linker_10, # of connection points: 2
#     Edge 47, Type (0, 0), BuildingBlock: TEMPAE_clean_linker_10, # of connection points: 2
# Relax obj value: 0.038
# Max RMSD: 0.066
# Mean RMSD: 0.066
data_MOF--net-uou--node1-QUQFOY_clean_sbu_3--edge1-TEMPAE_clean_linker_10
_symmetry_space_group_name_H-M    P1
_symmetry_Int_Tables_number       1
_symmetry_cell_setting            triclinic
loop_
_symmetry_equiv_pos_as_xyz
'x, y, z'
_cell_length_a     40.784706
_cell_length_b     40.820981
_cell_length_c     56.960372
_cell_angle_alpha  89.93756
_cell_angle_beta   89.924389
_cell_angle_gamma 90.025794
loop_
_atom_site_label
_atom_site_type_symbol
_atom_site_fract_x
_atom_site_fract_y
_atom_site_fract_z
_atom_type_partial_charge
C0 C -0.00037 0.01949 0.1427 0.0
O1 O 0.97563 0.01477 0.12898 0.0
Cd2 Cd 0.97763 0.03708 0.09039 0.0
O3 O 0.02628 0.03201 0.13524 0.0
Cd4 Cd 0.05419 0.04843 0.09869 0.0
C5 C 0.0077 0.11557 0.1011 0.0
O6 O 0.0247 0.01327 0.07212 0.0
O7 O 0.05046 0.05401 0.05628 0.0
O8 O 0.09597 0.01057 0.11166 0.0
C9 C 0.03384 0.02804 0.05367 0.0
O10 O 0.98385 0.09656 0.09629 0.0
C11 C 0.12016 0.02889 0.10681 0.0
O12 O 0.03678 0.10475 0.10348 0.0
O13 O 0.11379 0.05704 0.0984 0.0
C14 C 0.47137 0.95863 0.14158 0.0
O15 O 0.49459 0.96417 0.12728 0.0
Cd16 Cd 0.49134 0.94418 0.08779 0.0
O17 O 0.44485 0.94535 0.13471 0.0
Cd18 Cd 0.41671 0.9269 0.09909 0.0
C19 C 0.46844 0.86344 0.09836 0.0
O20 O 0.44149 0.96471 0.07169 0.0
O21 O 0.4189 0.92182 0.05651 0.0
O22 O 0.37275 0.96082 0.1137 0.0
C23 C 0.43275 0.94929 0.05345 0.0
O24 O 0.48946 0.88406 0.09078 0.0
C25 C 0.34979 0.94108 0.10869 0.0
O26 O 0.43981 0.87255 0.10452 0.0
O27 O 0.35793 0.91379 0.09965 0.0
C28 C 0.50335 0.96619 0.31434 0.0
O29 O 0.47789 0.96876 0.32703 0.0
Cd30 Cd 0.47689 0.94779 0.36645 0.0
O31 O 0.52981 0.95476 0.32282 0.0
Cd32 Cd 0.55283 0.93571 0.36002 0.0
C33 C 0.5053 0.86883 0.35784 0.0
O34 O 0.52266 0.96938 0.3873 0.0
O35 O 0.545 0.92564 0.40175 0.0
O36 O 0.59734 0.9744 0.35927 0.0
C37 C 0.53003 0.95245 0.40521 0.0
O38 O 0.4821 0.88803 0.36381 0.0
C39 C 0.62009 0.95347 0.3572 0.0
O40 O 0.53394 0.87981 0.35355 0.0
O41 O 0.61174 0.92349 0.35598 0.0
C42 C 0.96972 0.01715 0.31505 0.0
O43 O -0.00418 0.01584 0.3271 0.0
Cd44 Cd -0.00185 0.04139 0.36472 0.0
O45 O 0.94355 0.02904 0.32373 0.0
Cd46 Cd 0.92103 0.05007 0.36076 0.0
C47 C 0.96559 0.11848 0.35414 0.0
O48 O 0.9543 0.01952 0.38783 0.0
O49 O 0.92997 0.06243 0.40198 0.0
O50 O 0.87698 0.0107 0.36377 0.0
C51 C 0.94696 0.03686 0.40553 0.0
O52 O -0.00949 0.10032 0.35767 0.0
C53 C 0.85408 0.03067 0.35922 0.0
O54 O 0.93669 0.10668 0.35399 0.0
O55 O 0.8621 0.06028 0.35535 0.0
C56 C 0.97301 0.94221 0.81703 0.0
O57 O -0.00246 0.93944 0.83063 0.0
Cd58 Cd -0.00631 0.93007 0.87208 0.0
O59 O 0.94376 0.9385 0.82441 0.0
Cd60 Cd 0.9127 0.92534 0.86009 0.0
C61 C 0.95611 0.85444 0.8683 0.0
O62 O 0.94677 0.96104 0.88228 0.0
O63 O 0.90895 0.93729 0.90244 0.0
O64 O 0.87211 0.96027 0.84158 0.0
C65 C 0.93323 0.95665 0.90197 0.0
O66 O 0.98044 0.87214 0.87428 0.0
C67 C 0.84749 0.94348 0.84803 0.0
O68 O 0.9294 0.86726 0.86108 0.0
O69 O 0.85328 0.9173 0.85942 0.0
C70 C 0.49998 0.05307 0.81851 0.0
O71 O 0.47488 0.05549 0.83164 0.0
Cd72 Cd 0.47725 0.06029 0.87365 0.0
O73 O 0.52889 0.05457 0.82683 0.0
Cd74 Cd 0.55828 0.06245 0.86387 0.0
C75 C 0.51789 0.13428 0.87477 0.0
O76 O 0.52185 0.02586 0.88378 0.0
O77 O 0.55941 0.04688 0.90561 0.0
O78 O 0.59819 0.02767 0.84446 0.0
C79 C 0.53468 0.02824 0.90388 0.0
O80 O 0.49259 0.11719 0.87953 0.0
C81 C 0.62318 0.043 0.85187 0.0
O82 O 0.54419 0.121 0.86721 0.0
O83 O 0.61799 0.0682 0.86444 0.0
C84 C 0.47823 0.04894 0.6438 0.0
O85 O 0.50249 0.05115 0.62985 0.0
Cd86 Cd 0.49743 0.0569 0.58802 0.0
O87 O 0.44885 0.05112 0.63646 0.0
Cd88 Cd 0.4177 0.0604 0.60035 0.0
C89 C 0.45911 0.13183 0.58949 0.0
O90 O 0.4517 0.0234 0.57855 0.0
O91 O 0.41391 0.04716 0.55839 0.0
O92 O 0.37754 0.0256 0.61975 0.0
C93 C 0.43768 0.02721 0.55897 0.0
O94 O 0.48357 0.11441 0.58336 0.0
C95 C 0.35272 0.042 0.61324 0.0
O96 O 0.43309 0.11878 0.59776 0.0
O97 O 0.35821 0.06782 0.60136 0.0
C98 C -0.00149 0.95335 0.64336 0.0
O99 O 0.97457 0.953 0.62911 0.0
Cd100 Cd 0.97985 0.94574 0.58752 0.0
O101 O 0.02784 0.94837 0.63654 0.0
Cd102 Cd 0.05981 0.9358 0.6012 0.0
C103 C 0.0124 0.86787 0.59071 0.0
O104 O 0.02894 0.97454 0.5791 0.0
O105 O 0.0661 0.94937 0.55928 0.0
O106 O 0.10167 0.96727 0.62143 0.0
C107 C 0.04313 0.97024 0.55964 0.0
O108 O -0.01059 0.8871 0.58447 0.0
C109 C 0.12552 0.94949 0.6149 0.0
O110 O 0.03952 0.87892 0.59864 0.0
O111 O 0.11864 0.92432 0.60272 0.0
C112 C 0.50815 0.52544 0.14217 0.0
O113 O 0.48204 0.52523 0.13001 0.0
Cd114 Cd 0.47867 0.54433 0.09014 0.0
O115 O 0.53539 0.53437 0.1333 0.0
Cd116 Cd 0.56058 0.55187 0.09631 0.0
C117 C 0.51437 0.62122 0.09656 0.0
O118 O 0.52485 0.5212 0.07173 0.0
O119 O 0.55779 0.55387 0.05329 0.0
O120 O 0.6034 0.51142 0.099 0.0
C121 C 0.5348 0.53297 0.05244 0.0
O122 O 0.48974 0.60308 0.09193 0.0
C123 C 0.62681 0.53166 0.10108 0.0
O124 O 0.54272 0.60904 0.10029 0.0
O125 O 0.61954 0.56196 0.10148 0.0
C126 C 0.97665 0.45824 0.14012 0.0
O127 O 0.00336 0.45704 0.12865 0.0
Cd128 Cd 0.00709 0.43273 0.09053 0.0
O129 O 0.9498 0.44875 0.13101 0.0
Cd130 Cd 0.9252 0.42873 0.09448 0.0
C131 C 0.96833 0.358 0.10013 0.0
O132 O 0.96294 0.45673 0.06972 0.0
O133 O 0.92899 0.42466 0.05173 0.0
O134 O 0.88275 0.47 0.09459 0.0
C135 C 0.95289 0.44451 0.05063 0.0
O136 O -0.00566 0.37488 0.09728 0.0
C137 C 0.85926 0.45041 0.09856 0.0
O138 O 0.94 0.37117 0.0998 0.0
O139 O 0.86626 0.42023 0.10082 0.0
C140 C 0.00272 0.45535 0.31259 0.0
O141 O 0.97885 0.46074 0.32633 0.0
Cd142 Cd 0.98141 0.43908 0.36504 0.0
O143 O 0.02923 0.44268 0.32011 0.0
Cd144 Cd 0.05738 0.42692 0.35661 0.0
C145 C 0.01062 0.36009 0.35494 0.0
O146 O 0.02873 0.46398 0.38229 0.0
O147 O 0.05403 0.42389 0.39924 0.0
O148 O 0.09905 0.46353 0.34179 0.0
C149 C 0.03814 0.45043 0.40111 0.0
O150 O 0.98693 0.37942 0.3595 0.0
C151 C 0.12328 0.44574 0.34737 0.0
O152 O 0.03982 0.3706 0.35261 0.0
O153 O 0.11699 0.41835 0.35703 0.0
C154 C 0.47338 0.53161 0.3147 0.0
O155 O 0.49625 0.52696 0.3294 0.0
Cd156 Cd 0.49009 0.54644 0.36882 0.0
O157 O 0.44591 0.54328 0.32116 0.0
Cd158 Cd 0.41541 0.55908 0.35645 0.0
C159 C 0.46264 0.62571 0.35804 0.0
O160 O 0.4412 0.52236 0.38406 0.0
O161 O 0.41647 0.56423 0.39903 0.0
O162 O 0.37389 0.52257 0.34139 0.0
C163 C 0.43113 0.53721 0.40219 0.0
O164 O 0.48465 0.60641 0.3659 0.0
C165 C 0.34974 0.54102 0.34603 0.0
O166 O 0.43485 0.61484 0.35146 0.0
O167 O 0.3561 0.56879 0.35504 0.0
C168 C 0.47514 0.46178 0.81769 0.0
O169 O 0.49665 0.47002 0.83264 0.0
Cd170 Cd 0.4887 0.45698 0.87333 0.0
O171 O 0.44781 0.44976 0.82417 0.0
Cd172 Cd 0.4149 0.43731 0.85894 0.0
C173 C 0.46694 0.37493 0.86845 0.0
O174 O 0.43685 0.47911 0.88433 0.0
O175 O 0.41039 0.44012 0.90152 0.0
O176 O 0.37341 0.46883 0.83885 0.0
C177 C 0.42552 0.46715 0.90319 0.0
O178 O 0.48716 0.39686 0.87513 0.0
C179 C 0.34978 0.44971 0.84357 0.0
O180 O 0.43892 0.38268 0.86021 0.0
O181 O 0.35653 0.42377 0.85499 0.0
C182 C -0.00586 0.52055 0.81432 0.0
O183 O 0.97141 0.51941 0.82952 0.0
Cd184 Cd 0.98178 0.53231 0.86985 0.0
O185 O 0.02297 0.52961 0.81972 0.0
Cd186 Cd 0.05545 0.54815 0.85321 0.0
C187 C 0.00513 0.61272 0.8618 0.0
O188 O 0.03334 0.50809 0.87999 0.0
O189 O 0.06062 0.54773 0.89573 0.0
O190 O 0.09781 0.51592 0.83445 0.0
C191 C 0.04601 0.52055 0.89818 0.0
O192 O 0.98511 0.59199 0.87046 0.0
C193 C 0.12111 0.53554 0.83882 0.0
O194 O 0.03197 0.60345 0.85239 0.0
O195 O 0.11375 0.56209 0.84921 0.0
C196 C 0.97843 0.53223 0.64116 0.0
O197 O 0.00399 0.53596 0.62867 0.0
Cd198 Cd 0.00382 0.54898 0.58751 0.0
O199 O 0.9499 0.53707 0.63286 0.0
Cd200 Cd 0.92257 0.55432 0.59673 0.0
C201 C 0.96735 0.62502 0.591 0.0
O202 O 0.95721 0.52163 0.57262 0.0
O203 O 0.92206 0.55132 0.55379 0.0
O204 O 0.88026 0.5136 0.60174 0.0
C205 C 0.94522 0.5306 0.55317 0.0
O206 O -0.00818 0.607 0.58588 0.0
C207 C 0.85676 0.53356 0.60436 0.0
O208 O 0.93988 0.61259 0.59716 0.0
O209 O 0.8637 0.56394 0.60405 0.0
C210 C 0.5045 0.46511 0.64373 0.0
O211 O 0.47849 0.46802 0.63163 0.0
Cd212 Cd 0.47462 0.45387 0.59072 0.0
O213 O 0.53122 0.45572 0.63436 0.0
Cd214 Cd 0.55555 0.44054 0.59668 0.0
C215 C 0.50471 0.37431 0.59277 0.0
O216 O 0.52238 0.47641 0.57378 0.0
O217 O 0.55323 0.44356 0.5538 0.0
O218 O 0.60026 0.47856 0.60112 0.0
C219 C 0.53193 0.46622 0.55393 0.0
O220 O 0.48139 0.3945 0.58919 0.0
C221 C 0.62265 0.4572 0.60293 0.0
O222 O 0.53379 0.38421 0.59717 0.0
O223 O 0.61405 0.42725 0.6023 0.0
C224 C 0.29081 0.93714 0.09752 0.0
C225 C 0.31525 0.95086 0.11169 0.0
C226 C 0.2587 0.94947 0.09796 0.0
C227 C 0.25084 0.97558 0.11333 0.0
C228 C 0.27506 0.98836 0.12853 0.0
C229 C 0.30711 0.97609 0.12732 0.0
C230 C 0.2336 0.93553 0.08126 0.0
C231 C 0.26738 0.01561 0.14558 0.0
C232 C 0.17968 0.03073 0.09668 0.0
C233 C 0.15405 0.01702 0.1098 0.0
C234 C 0.2114 0.01753 0.09776 0.0
C235 C 0.21766 0.9905 0.11271 0.0
C236 C 0.19211 0.97735 0.12664 0.0
C237 C 0.16048 0.99055 0.12482 0.0
C238 C 0.23797 0.0319 0.08239 0.0
C239 C 0.19806 0.94908 0.14322 0.0
H240 H 0.29713 0.9178 0.0853 0.0
H241 H 0.32597 0.9866 0.13841 0.0
H242 H 0.21159 0.92724 0.09106 0.0
H243 H 0.22552 0.95487 0.06883 0.0
H244 H 0.24336 0.91456 0.07098 0.0
H245 H 0.28819 0.0208 0.15758 0.0
H246 H 0.26147 0.03833 0.13576 0.0
H247 H 0.24552 0.00922 0.15626 0.0
H248 H 0.1747 0.05105 0.08495 0.0
H249 H 0.14071 0.98003 0.1351 0.0
H250 H 0.24744 0.01285 0.07026 0.0
H251 H 0.25886 0.04019 0.09333 0.0
H252 H 0.2291 0.05299 0.07182 0.0
H253 H 0.20528 0.92701 0.13311 0.0
H254 H 0.17603 0.94304 0.15387 0.0
H255 H 0.2186 0.95494 0.15526 0.0
C256 C 0.66388 0.99167 0.36983 0.0
C257 C 0.6546 0.96394 0.35699 0.0
C258 C 0.69649 0.00236 0.37007 0.0
C259 C 0.72013 0.98552 0.35647 0.0
C260 C 0.71078 0.95776 0.34314 0.0
C261 C 0.67811 0.94691 0.34389 0.0
C262 C 0.70571 0.03137 0.38513 0.0
C263 C 0.73518 0.9398 0.32792 0.0
C264 C 0.79756 0.03352 0.34271 0.0
C265 C 0.81979 0.01956 0.35851 0.0
C266 C 0.76521 0.02193 0.34131 0.0
C267 C 0.75475 -0.0033 0.35669 0.0
C268 C 0.77708 0.98293 0.37293 0.0
C269 C 0.80953 -0.00584 0.37335 0.0
C270 C 0.7423 0.03652 0.32331 0.0
C271 C 0.76655 0.9568 0.39016 0.0
H272 H 0.64567 0.00467 0.38011 0.0
H273 H 0.67077 0.92562 0.33382 0.0
H274 H 0.72524 0.02424 0.39769 0.0
H275 H 0.71571 0.05134 0.37401 0.0
H276 H 0.68452 0.0411 0.39521 0.0
H277 H 0.72363 0.91961 0.31781 0.0
H278 H 0.74682 0.95714 0.31541 0.0
H279 H 0.755 0.92938 0.33894 0.0
H280 H 0.8057 0.05292 0.33106 0.0
H281 H 0.82679 0.98352 0.38565 0.0
H282 H 0.7216 0.04898 0.33223 0.0
H283 H 0.73171 0.01681 0.31225 0.0
H284 H 0.75483 0.05452 0.31172 0.0
H285 H 0.74606 0.96605 0.40115 0.0
H286 H 0.78686 0.94905 0.4019 0.0
H287 H 0.75739 0.93498 0.38062 0.0
C288 C 0.78772 0.94258 0.85741 0.0
C289 C 0.81375 0.95556 0.84429 0.0
C290 C 0.75645 0.9568 0.85651 0.0
C291 C 0.75103 0.98431 0.84185 0.0
C292 C 0.77678 -0.00359 0.82761 0.0
C293 C 0.80795 0.98203 0.82914 0.0
C294 C 0.72963 0.94334 0.87209 0.0
C295 C 0.77174 0.02527 0.81142 0.0
C296 C 0.66188 0.00579 0.8308 0.0
C297 C 0.65663 0.03053 0.84746 0.0
C298 C 0.69287 0.99136 0.82809 0.0
C299 C 0.71901 0.00159 0.84265 0.0
C300 C 0.71409 0.02727 0.85898 0.0
C301 C 0.68298 0.04162 0.86106 0.0
C302 C 0.69738 0.96451 0.81016 0.0
C303 C 0.74133 0.03868 0.87495 0.0
H304 H 0.7921 0.92218 0.8692 0.0
H305 H 0.82797 0.99203 0.81884 0.0
H306 H 0.72241 0.96212 0.88519 0.0
H307 H 0.70756 0.93753 0.86154 0.0
H308 H 0.73738 0.92088 0.88161 0.0
H309 H 0.79322 0.02953 0.79979 0.0
H310 H 0.74971 0.02144 0.80034 0.0
H311 H 0.76747 0.04772 0.82194 0.0
H312 H 0.64161 -0.00272 0.82013 0.0
H313 H 0.67902 0.06067 0.874 0.0
H314 H 0.70212 0.94093 0.81923 0.0
H315 H 0.71898 0.96976 0.79891 0.0
H316 H 0.6755 0.96152 0.79876 0.0
H317 H 0.74899 0.01827 0.8866 0.0
H318 H 0.73383 0.05974 0.88606 0.0
H319 H 0.76306 0.04598 0.86445 0.0
C320 C 0.18529 0.94657 0.60573 0.0
C321 C 0.15976 0.95961 0.6193 0.0
C322 C 0.2171 0.9595 0.6071 0.0
C323 C 0.22359 0.98571 0.6227 0.0
C324 C 0.19835 -0.00238 0.63746 0.0
C325 C 0.16663 0.98461 0.63544 0.0
C326 C 0.24331 0.9463 0.59092 0.0
C327 C 0.20452 0.02502 0.65468 0.0
C328 C 0.31353 0.00425 0.63351 0.0
C329 C 0.31907 0.03005 0.61769 0.0
C330 C 0.28224 0.99036 0.63606 0.0
C331 C 0.25607 0.00221 0.62215 0.0
C332 C 0.26131 0.02891 0.60669 0.0
C333 C 0.29271 0.04268 0.60479 0.0
C334 C 0.27741 0.96239 0.65308 0.0
C335 C 0.23407 0.04206 0.59141 0.0
H336 H 0.18009 0.92732 0.59318 0.0
H337 H 0.147 -0.00538 0.64609 0.0
H338 H 0.25081 0.96566 0.57831 0.0
H339 H 0.26539 0.93931 0.60109 0.0
H340 H 0.23481 0.92463 0.58083 0.0
H341 H 0.18343 0.02885 0.66673 0.0
H342 H 0.22671 0.01982 0.6653 0.0
H343 H 0.20907 0.04816 0.64498 0.0
H344 H 0.33381 -0.00548 0.64363 0.0
H345 H 0.29687 0.06253 0.59248 0.0
H346 H 0.27201 0.93958 0.64325 0.0
H347 H 0.2561 0.9673 0.66469 0.0
H348 H 0.2994 0.95815 0.66416 0.0
H349 H 0.22559 0.02263 0.57923 0.0
H350 H 0.24192 0.06361 0.58088 0.0
H351 H 0.21278 0.04924 0.60238 0.0
C352 C 0.80293 0.44818 0.11558 0.0
C353 C 0.82533 0.46244 0.09999 0.0
C354 C 0.77076 0.46017 0.11732 0.0
C355 C 0.76063 0.48608 0.10244 0.0
C356 C 0.78318 0.50024 0.08648 0.0
C357 C 0.81548 0.48863 0.08577 0.0
C358 C 0.74766 0.44518 0.13507 0.0
C359 C 0.77299 0.52709 0.06973 0.0
C360 C 0.66998 0.49248 0.0889 0.0
C361 C 0.66094 0.52014 0.10191 0.0
C362 C 0.70242 0.48129 0.08881 0.0
C363 C 0.72608 0.49748 0.10277 0.0
C364 C 0.71688 0.52499 0.11642 0.0
C365 C 0.68443 0.53644 0.11545 0.0
C366 C 0.71151 0.45261 0.07338 0.0
C367 C 0.74124 0.54219 0.13208 0.0
H368 H 0.81077 0.42813 0.12674 0.0
H369 H 0.83286 0.49947 0.07361 0.0
H370 H 0.73697 0.46462 0.14633 0.0
H371 H 0.72704 0.43294 0.12593 0.0
H372 H 0.76005 0.4269 0.14647 0.0
H373 H 0.79346 0.53516 0.05821 0.0
H374 H 0.75255 0.51837 0.05851 0.0
H375 H 0.76388 0.54859 0.07966 0.0
H376 H 0.65177 0.48008 0.07827 0.0
H377 H 0.67726 0.55769 0.12564 0.0
H378 H 0.72133 0.4323 0.08422 0.0
H379 H 0.73113 0.45996 0.06092 0.0
H380 H 0.69029 0.44327 0.06316 0.0
H381 H 0.75282 0.52428 0.14417 0.0
H382 H 0.72967 0.56191 0.14266 0.0
H383 H 0.76111 0.55313 0.12132 0.0
C384 C 0.2902 0.5427 0.35593 0.0
C385 C 0.31586 0.52932 0.3427 0.0
C386 C 0.25871 0.52891 0.3552 0.0
C387 C 0.25273 0.50157 0.34052 0.0
C388 C 0.2782 0.48898 0.32628 0.0
C389 C 0.3096 0.5028 0.32773 0.0
C390 C 0.23221 0.54274 0.37086 0.0
C391 C 0.27252 0.46038 0.30999 0.0
C392 C 0.18264 0.4454 0.35785 0.0
C393 C 0.1571 0.45761 0.34398 0.0
C394 C 0.21409 0.45922 0.35666 0.0
C395 C 0.22017 0.48535 0.34085 0.0
C396 C 0.1948 0.49675 0.32604 0.0
C397 C 0.16344 0.48297 0.32797 0.0
C398 C 0.24048 0.44671 0.37295 0.0
C399 C 0.20059 0.524 0.30857 0.0
H400 H 0.29505 0.56306 0.36763 0.0
H401 H 0.3294 0.49254 0.31738 0.0
H402 H 0.21049 0.54965 0.36027 0.0
H403 H 0.22415 0.52378 0.3836 0.0
H404 H 0.24062 0.5646 0.38077 0.0
H405 H 0.29414 0.45532 0.29868 0.0
H406 H 0.26699 0.43807 0.3204 0.0
H407 H 0.25101 0.46517 0.29858 0.0
H408 H 0.17772 0.42593 0.37033 0.0
H409 H 0.14373 0.4923 0.3171 0.0
H410 H 0.24851 0.46671 0.38481 0.0
H411 H 0.26223 0.43886 0.36271 0.0
H412 H 0.23197 0.42575 0.38383 0.0
H413 H 0.20618 0.54709 0.31801 0.0
H414 H 0.17901 0.52822 0.29708 0.0
H415 H 0.22211 0.51825 0.29736 0.0
C416 C 0.16238 0.50007 0.81887 0.0
C417 C 0.15542 0.52599 0.83424 0.0
C418 C 0.19422 0.48737 0.81699 0.0
C419 C 0.21943 0.50047 0.83119 0.0
C420 C 0.21283 0.52761 0.84595 0.0
C421 C 0.18091 0.54027 0.84711 0.0
C422 C 0.20053 0.45904 0.80058 0.0
C423 C 0.23904 0.54209 0.86151 0.0
C424 C 0.28961 0.44623 0.85091 0.0
C425 C 0.31577 0.45913 0.83792 0.0
C426 C 0.25783 0.45884 0.84835 0.0
C427 C 0.25208 0.48443 0.83204 0.0
C428 C 0.27804 0.49608 0.81782 0.0
C429 C 0.3097 0.48352 0.82112 0.0
C430 C 0.23079 0.44598 0.86399 0.0
C431 C 0.27266 0.5227 0.79981 0.0
H432 H 0.14273 0.48913 0.80875 0.0
H433 H 0.17559 0.56022 0.85907 0.0
H434 H 0.22275 0.4637 0.78982 0.0
H435 H 0.20508 0.43647 0.81094 0.0
H436 H 0.17949 0.45448 0.78865 0.0
H437 H 0.23034 0.56414 0.87108 0.0
H438 H 0.24703 0.52353 0.87457 0.0
H439 H 0.26086 0.5489 0.85095 0.0
H440 H 0.29426 0.42748 0.86398 0.0
H441 H 0.32989 0.49337 0.8109 0.0
H442 H 0.20956 0.43801 0.85328 0.0
H443 H 0.2221 0.46584 0.87575 0.0
H444 H 0.23896 0.42503 0.87499 0.0
H445 H 0.25106 0.51693 0.78874 0.0
H446 H 0.29436 0.52613 0.78825 0.0
H447 H 0.26753 0.54622 0.80883 0.0
C448 C 0.67877 0.45189 0.62005 0.0
C449 C 0.65718 0.46728 0.60448 0.0
C450 C 0.7114 0.46264 0.62206 0.0
C451 C 0.72277 0.48835 0.60741 0.0
C452 C 0.70105 0.50346 0.59135 0.0
C453 C 0.66832 0.49317 0.59045 0.0
C454 C 0.73357 0.44676 0.63995 0.0
C455 C 0.71249 0.53004 0.57478 0.0
C456 C 0.79963 0.5379 0.62005 0.0
C457 C 0.8228 0.52158 0.60621 0.0
C458 C 0.76722 0.52638 0.62155 0.0
C459 C 0.75766 0.4988 0.60809 0.0
C460 C 0.78107 0.48236 0.59404 0.0
C461 C 0.81352 0.4936 0.59364 0.0
C462 C 0.74317 0.54384 0.63734 0.0
C463 C 0.77162 0.45366 0.57875 0.0
H464 H 0.6699 0.43208 0.63106 0.0
H465 H 0.65153 0.50487 0.57831 0.0
H466 H 0.7542 0.43424 0.63098 0.0
H467 H 0.74435 0.46574 0.65155 0.0
H468 H 0.72039 0.42855 0.65098 0.0
H469 H 0.69268 0.53851 0.56286 0.0
H470 H 0.72161 0.55139 0.58487 0.0
H471 H 0.73321 0.52091 0.56395 0.0
H472 H 0.80698 0.55937 0.62993 0.0
H473 H 0.83146 0.48115 0.58278 0.0
H474 H 0.73063 0.52596 0.64898 0.0
H475 H 0.72401 0.55593 0.62659 0.0
H476 H 0.75525 0.56273 0.64837 0.0
H477 H 0.76075 0.43385 0.58958 0.0
H478 H 0.79287 0.4435 0.56895 0.0
H479 H 0.7527 0.46143 0.56591 0.0
C480 C 0.94824 0.0228 0.27452 0.0
C481 C 0.97054 0.00822 0.29003 0.0
C482 C 0.95194 0.01943 0.25025 0.0
C483 C 0.97807 0.00028 0.24137 0.0
C484 C -0.0011 0.98315 0.25697 0.0
C485 C -0.0048 0.98774 0.28122 0.0
C486 C 0.92959 0.0386 0.23417 0.0
C487 C 0.02628 0.9616 0.24806 0.0
C488 C 0.97507 0.9873 0.17561 0.0
C489 C -0.00383 0.01216 0.16784 0.0
C490 C 0.97035 0.9817 0.19968 0.0
C491 C 0.98623 0.00224 0.2161 0.0
C492 C 0.0081 0.0269 0.20828 0.0
C493 C 0.01318 0.03121 0.18421 0.0
C494 C 0.94777 0.95447 0.20749 0.0
C495 C 0.02493 0.04982 0.22526 0.0
H496 H 0.92911 0.03865 0.28128 0.0
H497 H 0.01218 0.97605 0.29322 0.0
H498 H 0.94383 0.05827 0.22535 0.0
H499 H 0.91947 0.02256 0.22026 0.0
H500 H 0.90885 0.05007 0.24379 0.0
H501 H 0.03612 0.94544 0.26208 0.0
H502 H 0.01769 0.94617 0.23326 0.0
H503 H 0.0466 0.97713 0.2414 0.0
H504 H 0.96222 0.97233 0.16288 0.0
H505 H 0.02939 0.05054 0.17817 0.0
H506 H 0.9249 0.96504 0.21481 0.0
H507 H 0.95942 0.9398 0.22161 0.0
H508 H 0.94113 0.93791 0.19278 0.0
H509 H 0.00628 0.06403 0.23514 0.0
H510 H 0.04162 0.06732 0.21626 0.0
H511 H 0.03937 0.03565 0.23825 0.0
C512 C 0.49674 0.99079 0.17419 0.0
C513 C 0.47546 0.96596 0.16669 0.0
C514 C 0.50156 -0.00331 0.19821 0.0
C515 C 0.48553 0.97653 0.2149 0.0
C516 C 0.46361 0.95182 0.20735 0.0
C517 C 0.4585 0.94717 0.18333 0.0
C518 C 0.5243 0.0239 0.20573 0.0
C519 C 0.44664 0.92929 0.22459 0.0
C520 C 0.52356 0.95781 0.27366 0.0
C521 C 0.50161 0.9733 0.289 0.0
C522 C 0.51959 0.96008 0.24933 0.0
C523 C 0.49353 0.97903 0.24017 0.0
C524 C 0.47282 -0.00322 0.25552 0.0
C525 C 0.47679 -0.0067 0.27986 0.0
C526 C 0.54177 0.9402 0.23356 0.0
C527 C 0.44545 0.01805 0.24628 0.0
H528 H 0.50956 0.00557 0.1613 0.0
H529 H 0.44215 0.92785 0.17754 0.0
H530 H 0.51245 0.0392 0.21941 0.0
H531 H 0.54683 0.01333 0.21354 0.0
H532 H 0.53152 0.03986 0.19078 0.0
H533 H 0.42989 0.9117 0.21579 0.0
H534 H 0.46521 0.91517 0.23461 0.0
H535 H 0.43224 0.94376 0.23743 0.0
H536 H 0.54278 0.94227 0.28065 0.0
H537 H 0.46005 0.00565 0.29171 0.0
H538 H 0.55213 0.95577 0.21942 0.0
H539 H 0.52732 0.9205 0.22502 0.0
H540 H 0.56232 0.92873 0.24336 0.0
H541 H 0.45418 0.03326 0.23137 0.0
H542 H 0.43535 0.03442 0.26009 0.0
H543 H 0.42529 0.00234 0.23967 0.0
C544 C 0.96727 0.93952 0.6793 0.0
C545 C -0.00763 0.95737 0.6685 0.0
C546 C 0.96398 0.93948 0.70376 0.0
C547 C 0.98558 0.95875 0.71745 0.0
C548 C 0.00972 0.97836 0.70643 0.0
C549 C 0.0133 0.97687 0.68201 0.0
C550 C 0.93859 0.91749 0.71498 0.0
C551 C 0.0323 0.00015 0.72046 0.0
C552 C 0.9586 0.9714 0.78031 0.0
C553 C 0.97824 0.94856 0.79203 0.0
C554 C 0.96184 0.97619 0.75608 0.0
C555 C 0.98424 0.9566 0.74334 0.0
C556 C 0.00434 0.93367 0.75522 0.0
C557 C 0.00152 0.93039 0.7796 0.0
C558 C 0.94098 0.00175 0.74408 0.0
C559 C 0.02779 0.91166 0.74208 0.0
H560 H 0.9514 0.9242 0.6687 0.0
H561 H 0.03259 0.99077 0.67346 0.0
H562 H 0.95095 0.89892 0.72613 0.0
H563 H 0.92222 0.93194 0.72657 0.0
H564 H 0.92332 0.90457 0.70177 0.0
H565 H 0.04695 0.01672 0.70904 0.0
H566 H 0.01796 0.01523 0.73301 0.0
H567 H 0.04944 0.9849 0.73089 0.0
H568 H 0.94075 0.98553 0.79015 0.0
H569 H 0.01642 0.91253 0.78881 0.0
H570 H 0.92304 0.98968 0.7323 0.0
H571 H 0.95653 0.0179 0.73301 0.0
H572 H 0.9273 0.01713 0.75684 0.0
H573 H 0.01401 0.89648 0.72929 0.0
H574 H 0.04158 0.8951 0.754 0.0
H575 H 0.04563 0.92656 0.73196 0.0
C576 C 0.50775 0.06451 0.68015 0.0
C577 C 0.48382 0.04549 0.66908 0.0
C578 C 0.51065 0.06439 0.70466 0.0
C579 C 0.48987 0.04383 0.71812 0.0
C580 C 0.46678 0.02334 0.70684 0.0
C581 C 0.46358 0.02492 0.6824 0.0
C582 C 0.53489 0.08726 0.71617 0.0
C583 C 0.44508 0.00027 0.7206 0.0
C584 C 0.51681 0.02823 0.78066 0.0
C585 C 0.49594 0.0492 0.7931 0.0
C586 C 0.51434 0.02534 0.75624 0.0
C587 C 0.49133 0.04489 0.74406 0.0
C588 C 0.47017 0.06611 0.7566 0.0
C589 C 0.47234 0.06755 0.78112 0.0
C590 C 0.53645 0.00159 0.74348 0.0
C591 C 0.44598 0.08802 0.74409 0.0
H592 H 0.5231 0.08065 0.66973 0.0
H593 H 0.4452 0.01012 0.67366 0.0
H594 H 0.52163 0.10476 0.72766 0.0
H595 H 0.55202 0.07326 0.72746 0.0
H596 H 0.54944 0.10141 0.70313 0.0
H597 H 0.43069 0.98381 0.70899 0.0
H598 H 0.46011 0.98504 0.73262 0.0
H599 H 0.42773 0.0145 0.73159 0.0
H600 H 0.53491 0.0139 0.7901 0.0
H601 H 0.45648 0.08398 0.79085 0.0
H602 H 0.55332 0.01516 0.73169 0.0
H603 H 0.52161 0.98497 0.73233 0.0
H604 H 0.55133 0.98655 0.75575 0.0
H605 H 0.45919 0.10427 0.73163 0.0
H606 H 0.43169 0.10348 0.75645 0.0
H607 H 0.42861 0.07304 0.73367 0.0
C608 C 0.52898 0.53312 0.1827 0.0
C609 C 0.50648 0.51829 0.16748 0.0
C610 C 0.52511 0.53085 0.20705 0.0
C611 C 0.49861 0.51254 0.2163 0.0
C612 C 0.47736 0.49535 0.20103 0.0
C613 C 0.48122 0.49888 0.17669 0.0
C614 C 0.54783 0.55019 0.22274 0.0
C615 C 0.4495 0.47473 0.21035 0.0
C616 C 0.50014 0.50022 0.28228 0.0
C617 C 0.47887 0.52512 0.28964 0.0
C618 C 0.50574 0.49469 0.25829 0.0
C619 C 0.49057 0.51535 0.24155 0.0
C620 C 0.46894 0.54039 0.24898 0.0
C621 C 0.46298 0.54463 0.27294 0.0
C622 C 0.52809 0.46711 0.25087 0.0
C623 C 0.45295 0.5635 0.23168 0.0
H624 H 0.54852 0.54822 0.17561 0.0
H625 H 0.46408 0.48703 0.1649 0.0
H626 H 0.53398 0.57049 0.23108 0.0
H627 H 0.55752 0.53451 0.23703 0.0
H628 H 0.56885 0.56081 0.21291 0.0
H629 H 0.43897 0.45861 0.19658 0.0
H630 H 0.45788 0.45932 0.22524 0.0
H631 H 0.42975 0.49092 0.21702 0.0
H632 H 0.51214 0.48494 0.29526 0.0
H633 H 0.44669 0.56404 0.27867 0.0
H634 H 0.5506 0.47725 0.24268 0.0
H635 H 0.51582 0.45166 0.23748 0.0
H636 H 0.53538 0.45137 0.26591 0.0
H637 H 0.47206 0.57684 0.22161 0.0
H638 H 0.43686 0.58175 0.24043 0.0
H639 H 0.43802 0.5495 0.21889 0.0
C640 C 0.97992 0.48835 0.27955 0.0
C641 C -0.00054 0.46237 0.28743 0.0
C642 C 0.97588 0.49415 0.25545 0.0
C643 C -0.00924 0.47266 0.23914 0.0
C644 C 0.01089 0.4467 0.24711 0.0
C645 C 0.01541 0.44222 0.2712 0.0
C646 C 0.95522 0.52273 0.24747 0.0
C647 C 0.02654 0.42275 0.23025 0.0
C648 C 0.95337 0.45443 0.18025 0.0
C649 C 0.97717 0.46735 0.16509 0.0
C650 C 0.95641 0.45776 0.20457 0.0
C651 C 0.98342 0.47524 0.2138 0.0
C652 C 0.00587 0.4909 0.1985 0.0
C653 C 0.00278 0.48631 0.17422 0.0
C654 C 0.93234 0.44011 0.22032 0.0
C655 C 0.03426 0.51073 0.20779 0.0
H656 H 0.96793 0.50416 0.2922 0.0
H657 H 0.0304 0.42203 0.27737 0.0
H658 H 0.96826 0.53686 0.23366 0.0
H659 H 0.93206 0.51362 0.23966 0.0
H660 H 0.94903 0.53948 0.26217 0.0
H661 H 0.04164 0.40404 0.23939 0.0
H662 H 0.00724 0.40999 0.22003 0.0
H663 H 0.04238 0.43596 0.21755 0.0
H664 H 0.93351 0.43976 0.17322 0.0
H665 H 0.02092 0.49675 0.16246 0.0
H666 H 0.92303 0.45673 0.23418 0.0
H667 H 0.94493 0.41944 0.22921 0.0
H668 H 0.91109 0.43019 0.21041 0.0
H669 H 0.02623 0.52665 0.2225 0.0
H670 H 0.04549 0.52626 0.19392 0.0
H671 H 0.05339 0.49399 0.21469 0.0
C672 C 0.52711 0.45573 0.68369 0.0
C673 C 0.50348 0.47051 0.66929 0.0
C674 C 0.52465 0.45736 0.70816 0.0
C675 C 0.49831 0.47478 0.7184 0.0
C676 C 0.47554 0.49147 0.70397 0.0
C677 C 0.47816 0.48881 0.67951 0.0
C678 C 0.549 0.43866 0.72298 0.0
C679 C 0.44757 0.51088 0.71437 0.0
C680 C 0.46649 0.44399 0.77663 0.0
C681 C 0.4816 0.46544 0.79244 0.0
C682 C 0.47195 0.44675 0.75249 0.0
C683 C 0.49238 0.47213 0.74396 0.0
C684 C 0.50745 0.49417 0.7598 0.0
C685 C 0.50222 0.49027 0.784 0.0
C686 C 0.4561 0.42226 0.73616 0.0
C687 C 0.5288 0.5219 0.75116 0.0
H688 H 0.54671 0.4415 0.67587 0.0
H689 H 0.4601 0.50059 0.6684 0.0
H690 H 0.55914 0.45456 0.73697 0.0
H691 H 0.5364 0.41786 0.73174 0.0
H692 H 0.56965 0.4288 0.7124 0.0
H693 H 0.4348 0.52597 0.70096 0.0
H694 H 0.42948 0.4939 0.72236 0.0
H695 H 0.45661 0.52722 0.72851 0.0
H696 H 0.45076 0.4246 0.78319 0.0
H697 H 0.51368 0.507 0.79627 0.0
H698 H 0.47519 0.40956 0.72567 0.0
H699 H 0.43969 0.43508 0.72366 0.0
H700 H 0.44153 0.40353 0.74576 0.0
H701 H 0.55011 0.51203 0.74134 0.0
H702 H 0.53801 0.5374 0.76576 0.0
H703 H 0.51474 0.53756 0.73882 0.0
C704 C 0.96288 0.53239 0.77821 0.0
C705 C 0.98699 0.51408 0.78964 0.0
C706 C 0.96033 0.53167 0.75371 0.0
C707 C 0.98169 0.51121 0.74067 0.0
C708 C 0.00427 0.49066 0.75242 0.0
C709 C 0.00719 0.49293 0.77685 0.0
C710 C 0.93661 0.55464 0.74173 0.0
C711 C 0.02648 0.4676 0.73915 0.0
C712 C 0.95984 0.50185 0.67651 0.0
C713 C 0.98155 0.52414 0.66611 0.0
C714 C 0.96069 0.49603 0.70074 0.0
C715 C 0.98281 0.51407 0.7148 0.0
C716 C 0.0051 0.5363 0.70425 0.0
C717 C 0.00461 0.54059 0.67987 0.0
C718 C 0.93755 0.47119 0.71132 0.0
C719 C 0.02843 0.55664 0.71878 0.0
H720 H 0.94764 0.54902 0.78829 0.0
H721 H 0.0258 0.4788 0.78592 0.0
H722 H 0.95052 0.57331 0.73162 0.0
H723 H 0.92106 0.5411 0.72909 0.0
H724 H 0.92042 0.56746 0.75445 0.0
H725 H 0.03854 0.44964 0.75099 0.0
H726 H 0.01246 0.45405 0.72558 0.0
H727 H 0.04585 0.48181 0.73 0.0
H728 H 0.94215 0.48905 0.66566 0.0
H729 H 0.02111 0.55806 0.6717 0.0
H730 H 0.91897 0.48381 0.72229 0.0
H731 H 0.95117 0.45415 0.72296 0.0
H732 H 0.92459 0.45668 0.6977 0.0
H733 H 0.01436 0.57196 0.73134 0.0
H734 H 0.04397 0.57298 0.7078 0.0
H735 H 0.04469 0.54051 0.72924 0.0
C736 C 0.9776 0.16291 0.11812 0.0
C737 C 0.00166 0.15091 0.10286 0.0
C738 C 0.97127 0.19665 0.11956 0.0
C739 C -0.01156 0.21849 0.10461 0.0
C740 C 0.01249 0.20624 0.08893 0.0
C741 C 0.01928 0.17258 0.08861 0.0
C742 C 0.94644 0.20894 0.13714 0.0
C743 C 0.03054 0.22858 0.07216 0.0
C744 C 0.95078 0.3012 0.09048 0.0
C745 C 0.97139 0.32232 0.10298 0.0
C746 C 0.95581 0.2672 0.09104 0.0
C747 C 0.98125 0.25415 0.10514 0.0
C748 C 0.00102 0.27539 0.11874 0.0
C749 C -0.00373 0.30934 0.11711 0.0
C750 C 0.93492 0.24543 0.07572 0.0
C751 C 0.02758 0.26234 0.13464 0.0
H752 H 0.96416 0.14593 0.12918 0.0
H753 H 0.03765 0.16302 0.07666 0.0
H754 H 0.95782 0.22771 0.14863 0.0
H755 H 0.92573 0.22088 0.1279 0.0
H756 H 0.93653 0.18894 0.14833 0.0
H757 H 0.04746 0.21493 0.06042 0.0
H758 H 0.01271 0.24223 0.06117 0.0
H759 H 0.04496 0.24693 0.08211 0.0
H760 H 0.93175 0.3114 0.07939 0.0
H761 H 0.01202 0.3258 0.12689 0.0
H762 H 0.92285 0.22622 0.08645 0.0
H763 H 0.95068 0.23278 0.06267 0.0
H764 H 0.91572 0.25939 0.06617 0.0
H765 H 0.01764 0.24268 0.1461 0.0
H766 H 0.03832 0.28179 0.14589 0.0
H767 H 0.0475 0.2514 0.12395 0.0
C768 C 0.46092 0.80721 0.11496 0.0
C769 C 0.4773 0.82838 0.09951 0.0
C770 C 0.4686 0.77372 0.11572 0.0
C771 C 0.49264 0.76105 0.10025 0.0
C772 C 0.50946 0.78237 0.08476 0.0
C773 C 0.50185 0.81587 0.08477 0.0
C774 C 0.45064 0.75182 0.13282 0.0
C775 C 0.5347 0.76965 0.06762 0.0
C776 C 0.52944 0.6769 0.11148 0.0
C777 C 0.5096 0.65706 0.09732 0.0
C778 C 0.52402 0.71084 0.11284 0.0
C779 C 0.49876 0.7252 0.09925 0.0
C780 C 0.47913 0.7053 0.08457 0.0
C781 C 0.48454 0.67143 0.08401 0.0
C782 C 0.54496 0.73124 0.12906 0.0
C783 C 0.45246 0.71978 0.06938 0.0
H784 H 0.44215 0.81686 0.12654 0.0
H785 H 0.51445 0.83214 0.0727 0.0
H786 H 0.43527 0.73403 0.12307 0.0
H787 H 0.46842 0.7375 0.1434 0.0
H788 H 0.43458 0.7659 0.14492 0.0
H789 H 0.5463 0.78961 0.05726 0.0
H790 H 0.55418 0.75607 0.07709 0.0
H791 H 0.52296 0.75219 0.0553 0.0
H792 H 0.54868 0.66579 0.12191 0.0
H793 H 0.46935 0.65618 0.07287 0.0
H794 H 0.52917 0.74397 0.14204 0.0
H795 H 0.55807 0.75041 0.11891 0.0
H796 H 0.56331 0.71627 0.13867 0.0
H797 H 0.43368 0.73174 0.08056 0.0
H798 H 0.44017 0.70103 0.05833 0.0
H799 H 0.46291 0.73893 0.05773 0.0
C800 C 0.49305 0.67524 0.37162 0.0
C801 C 0.46946 0.66123 0.35683 0.0
C802 C 0.49917 0.70904 0.37122 0.0
C803 C 0.48181 0.72917 0.35526 0.0
C804 C 0.4585 0.71506 0.3399 0.0
C805 C 0.4523 0.68127 0.34106 0.0
C806 C 0.52371 0.7233 0.38822 0.0
C807 C 0.44002 0.73567 0.32231 0.0
C808 C 0.47333 0.81943 0.36973 0.0
C809 C 0.49891 0.83324 0.35656 0.0
C810 C 0.46753 0.78558 0.36946 0.0
C811 C 0.48731 0.76516 0.35524 0.0
C812 C 0.51273 0.77903 0.34148 0.0
C813 C 0.5185 0.81291 0.34254 0.0
C814 C 0.44064 0.77162 0.38476 0.0
C815 C 0.53384 0.75807 0.32572 0.0
H816 H 0.50622 0.65986 0.38394 0.0
H817 H 0.43425 0.67047 0.32945 0.0
H818 H 0.54335 0.73636 0.37851 0.0
H819 H 0.51145 0.74152 0.39971 0.0
H820 H 0.53519 0.70426 0.39948 0.0
H821 H 0.42402 0.72067 0.31077 0.0
H822 H 0.42456 0.75386 0.33161 0.0
H823 H 0.45752 0.74956 0.31116 0.0
H824 H 0.45828 0.83502 0.38075 0.0
H825 H 0.53815 0.82354 0.3322 0.0
H826 H 0.45115 0.75364 0.39729 0.0
H827 H 0.42253 0.75834 0.37381 0.0
H828 H 0.42757 0.79085 0.39489 0.0
H829 H 0.54776 0.74012 0.3364 0.0
H830 H 0.55154 0.77285 0.31531 0.0
H831 H 0.51818 0.74391 0.31346 0.0
C832 C 0.98022 0.31325 0.33755 0.0
C833 C 0.00417 0.32483 0.35303 0.0
C834 C 0.97363 0.27959 0.33579 0.0
C835 C -0.00958 0.25738 0.35065 0.0
C836 C 0.01441 0.26918 0.3665 0.0
C837 C 0.02149 0.30279 0.36714 0.0
C838 C 0.94885 0.26779 0.31804 0.0
C839 C 0.032 0.24645 0.3832 0.0
C840 C 0.95029 0.17565 0.36423 0.0
C841 C 0.9703 0.15403 0.35166 0.0
C842 C 0.95646 0.20945 0.36398 0.0
C843 C 0.98247 0.22187 0.35006 0.0
C844 C 0.00178 0.20016 0.33646 0.0
C845 C -0.0041 0.16634 0.33784 0.0
C846 C 0.93606 0.23166 0.37934 0.0
C847 C 0.02889 0.21261 0.32073 0.0
H848 H 0.96706 0.33051 0.32657 0.0
H849 H 0.03982 0.31202 0.37922 0.0
H850 H 0.95997 0.24873 0.30667 0.0
H851 H 0.92769 0.25638 0.32716 0.0
H852 H 0.93962 0.28799 0.30675 0.0
H853 H 0.04919 0.25973 0.39494 0.0
H854 H 0.01388 0.23312 0.3942 0.0
H855 H 0.04604 0.22783 0.37322 0.0
H856 H 0.93071 0.16595 0.37511 0.0
H857 H 0.01122 0.14949 0.32803 0.0
H858 H 0.92424 0.25097 0.36859 0.0
H859 H 0.95211 0.24417 0.39226 0.0
H860 H 0.91668 0.2181 0.38904 0.0
H861 H 0.01955 0.23243 0.30919 0.0
H862 H 0.03938 0.19291 0.30957 0.0
H863 H 0.04886 0.22318 0.33153 0.0
C864 C 0.01283 0.67066 0.84827 0.0
C865 C -0.00328 0.64798 0.86274 0.0
C866 C 0.00464 0.70405 0.84894 0.0
C867 C 0.98015 0.71504 0.86474 0.0
C868 C 0.96386 0.69228 0.87942 0.0
C869 C 0.97217 0.659 0.87812 0.0
C870 C 0.0223 0.72761 0.83284 0.0
C871 C 0.93803 0.70315 0.89677 0.0
C872 C 0.98462 0.8043 0.88266 0.0
C873 C 0.96012 0.81845 0.86867 0.0
C874 C -0.00915 0.77057 0.88191 0.0
C875 C 0.97248 0.75053 0.86653 0.0
C876 C 0.94728 0.76451 0.85267 0.0
C877 C 0.94119 0.79834 0.85406 0.0
C878 C 0.01749 0.75648 0.89731 0.0
C879 C 0.9274 0.74391 0.83591 0.0
H880 H 0.03165 0.66228 0.83624 0.0
H881 H 0.95971 0.64166 0.88946 0.0
H882 H 0.00429 0.74142 0.82211 0.0
H883 H 0.03616 0.74577 0.84338 0.0
H884 H 0.03968 0.71496 0.82087 0.0
H885 H 0.92731 0.68227 0.90668 0.0
H886 H 0.94887 0.72063 0.90948 0.0
H887 H 0.91799 0.71618 0.88751 0.0
H888 H -0.00084 0.81969 0.89413 0.0
H889 H 0.92239 0.80919 0.8431 0.0
H890 H 0.03726 0.74602 0.88623 0.0
H891 H 0.00751 0.73625 0.9082 0.0
H892 H 0.02843 0.77515 0.90912 0.0
H893 H 0.94383 0.73291 0.82252 0.0
H894 H 0.90818 0.75837 0.82679 0.0
H895 H 0.91548 0.72343 0.84548 0.0
C896 C 0.50202 0.33039 0.88512 0.0
C897 C 0.47644 0.34003 0.87017 0.0
C898 C 0.51122 0.29737 0.88704 0.0
C899 C 0.49482 0.27355 0.87338 0.0
C900 C 0.46927 0.28318 0.85804 0.0
C901 C 0.46018 0.31627 0.85678 0.0
C902 C 0.53812 0.28793 0.90393 0.0
C903 C 0.45147 0.25849 0.84298 0.0
C904 C 0.53382 0.19063 0.86172 0.0
C905 C 0.51528 0.1703 0.87648 0.0
C906 C 0.52803 0.22453 0.86092 0.0
C907 C 0.50359 0.23834 0.87557 0.0
C908 C 0.48609 0.21813 0.89142 0.0
C909 C 0.49193 0.18431 0.89152 0.0
C910 C 0.54692 0.2453 0.84362 0.0
C911 C 0.46035 0.23202 0.90768 0.0
H912 H 0.51456 0.34861 0.89563 0.0
H913 H 0.44057 0.32359 0.84507 0.0
H914 H 0.5284 0.27061 0.91726 0.0
H915 H 0.55811 0.27513 0.89443 0.0
H916 H 0.54865 0.30948 0.91313 0.0
H917 H 0.4331 0.27016 0.83126 0.0
H918 H 0.46929 0.24478 0.83201 0.0
H919 H 0.4387 0.24039 0.85429 0.0
H920 H 0.55174 0.17985 0.84997 0.0
H921 H 0.47774 0.16869 0.90312 0.0
H922 H 0.55826 0.26652 0.85265 0.0
H923 H 0.52988 0.25521 0.83021 0.0
H924 H 0.56649 0.23122 0.83455 0.0
H925 H 0.47044 0.25308 0.91763 0.0
H926 H 0.45109 0.21351 0.92037 0.0
H927 H 0.43932 0.24125 0.89726 0.0
C928 C 0.48405 0.18209 0.57215 0.0
C929 C 0.4624 0.16784 0.58836 0.0
C930 C 0.49001 0.21591 0.57219 0.0
C931 C 0.47452 0.23586 0.5892 0.0
C932 C 0.45218 0.22171 0.60536 0.0
C933 C 0.44608 0.18786 0.60457 0.0
C934 C 0.51333 0.23019 0.55427 0.0
C935 C 0.43558 0.24215 0.62398 0.0
C936 C 0.51692 0.3162 0.60389 0.0
C937 C 0.49745 0.33884 0.59175 0.0
C938 C 0.50939 0.28262 0.60355 0.0
C939 C 0.48222 0.27143 0.5903 0.0
C940 C 0.46279 0.29415 0.57774 0.0
C941 C 0.47043 0.3276 0.57882 0.0
C942 C 0.53035 0.25914 0.61747 0.0
C943 C 0.43412 0.28309 0.56297 0.0
H944 H 0.49656 0.16669 0.55949 0.0
H945 H 0.42957 0.17686 0.61727 0.0
H946 H 0.50131 0.25052 0.54462 0.0
H947 H 0.5351 0.24057 0.56325 0.0
H948 H 0.52181 0.21164 0.54136 0.0
H949 H 0.41844 0.22753 0.63496 0.0
H950 H 0.45436 0.25332 0.63558 0.0
H951 H 0.42174 0.26251 0.61574 0.0
H952 H 0.53767 0.3248 0.61404 0.0
H953 H 0.45544 0.34498 0.56924 0.0
H954 H 0.54205 0.24117 0.60551 0.0
H955 H 0.51483 0.24511 0.62995 0.0
H956 H 0.54988 0.2719 0.62752 0.0
H957 H 0.44262 0.2655 0.54943 0.0
H958 H 0.42168 0.30386 0.55406 0.0
H959 H 0.41591 0.27011 0.57408 0.0
C960 C 0.9817 0.81962 0.5752 0.0
C961 C 0.00639 0.83214 0.58979 0.0
C962 C 0.97428 0.78608 0.57496 0.0
C963 C -0.00841 0.76459 0.59 0.0
C964 C 0.01656 0.77705 0.60478 0.0
C965 C 0.0239 0.81066 0.60433 0.0
C966 C 0.94801 0.77362 0.55857 0.0
C967 C 0.03529 0.7549 0.62124 0.0
C968 C 0.95334 0.68188 0.60431 0.0
C969 C 0.97176 0.66094 0.58996 0.0
C970 C 0.95954 0.71576 0.60456 0.0
C971 C 0.98422 0.72893 0.58975 0.0
C972 C 0.00213 0.70796 0.57472 0.0
C973 C -0.0041 0.67423 0.57518 0.0
C974 C 0.94024 0.73737 0.62104 0.0
C975 C 0.0281 0.72112 0.55828 0.0
H976 H 0.96817 0.83608 0.56383 0.0
H977 H 0.04277 0.82025 0.61582 0.0
H978 H 0.95845 0.75489 0.5466 0.0
H979 H 0.92819 0.76159 0.56877 0.0
H980 H 0.93707 0.79352 0.54782 0.0
H981 H 0.05331 0.76856 0.63208 0.0
H982 H 0.01797 0.74198 0.63311 0.0
H983 H 0.04857 0.73591 0.61107 0.0
H984 H 0.93482 0.67166 0.61586 0.0
H985 H 0.01001 0.65816 0.56388 0.0
H986 H 0.92742 0.7568 0.611 0.0
H987 H 0.95718 0.74975 0.63342 0.0
H988 H 0.9218 0.72336 0.63134 0.0
H989 H 0.01749 0.74034 0.54679 0.0
H990 H 0.03887 0.70168 0.54703 0.0
H991 H 0.04809 0.73269 0.56853 0.0
C992 C 0.98179 0.97519 0.92449 0.0
C993 C 0.94798 0.9693 0.9236 0.0
C994 C -0.0033 0.98535 0.94535 0.0
C995 C 0.97707 0.9907 0.96545 0.0
C996 C 0.94273 0.98585 0.96441 0.0
C997 C 0.92861 0.97463 0.94351 0.0
C998 C 0.03351 0.98942 0.94605 0.0
C999 C 0.92099 0.99228 -0.01461 0.0
C1000 C 0.0151 0.98545 0.02581 0.0
C1001 C 0.02097 0.01849 0.03069 0.0
C1002 C 0.00151 0.97598 0.00431 0.0
C1003 C -0.00738 0.00035 -0.01218 0.0
C1004 C -0.0016 0.03382 -0.00726 0.0
C1005 C 0.01307 0.04248 0.01405 0.0
C1006 C -0.0034 0.93999 -0.00071 0.0
C1007 C -0.01166 0.06044 0.97578 0.0
H1008 H -0.00323 0.97083 0.90907 0.0
H1009 H 0.90241 0.97028 0.94266 0.0
H1010 H 0.03996 0.01471 0.95144 0.0
H1011 H 0.04409 0.97255 0.95931 0.0
H1012 H 0.04517 0.98433 0.9288 0.0
H1013 H 0.89456 0.9895 -0.01885 0.0
H1014 H 0.92717 0.97503 -0.00023 0.0
H1015 H 0.92522 0.01744 -0.0079 0.0
H1016 H 0.02141 0.967 0.03875 0.0
H1017 H 0.01732 0.06809 0.01806 0.0
H1018 H 0.00882 0.93334 -0.01746 0.0
H1019 H 0.9701 0.93464 -0.00277 0.0
H1020 H 0.00648 0.92415 0.01349 0.0
H1021 H 0.00081 0.05695 0.95866 0.0
H1022 H -0.00572 0.08532 -0.01756 0.0
H1023 H 0.96156 0.05902 0.97252 0.0
C1024 C 0.48508 0.00792 0.92467 0.0
C1025 C 0.5189 0.01398 0.9247 0.0
C1026 C 0.46923 -0.00349 0.94491 0.0
C1027 C 0.4879 0.99021 0.96532 0.0
C1028 C 0.52226 -0.00483 0.96515 0.0
C1029 C 0.53732 0.00751 0.94487 0.0
C1030 C 0.43244 0.99226 0.94469 0.0
C1031 C 0.54302 0.98787 -0.01354 0.0
C1032 C 0.44898 -0.00692 0.02555 0.0
C1033 C 0.44408 0.95977 0.03016 0.0
C1034 C 0.4621 0.00341 0.00406 0.0
C1035 C 0.4714 0.97969 -0.01279 0.0
C1036 C 0.46608 0.94601 -0.00832 0.0
C1037 C 0.45198 0.93645 0.01306 0.0
C1038 C 0.4666 0.03961 -0.00042 0.0
C1039 C 0.47645 0.92005 0.97432 0.0
H1040 H 0.47082 0.01317 0.90907 0.0
H1041 H 0.56352 0.012 0.94476 0.0
H1042 H 0.42581 0.96689 0.94981 0.0
H1043 H 0.42113 0.00894 0.95777 0.0
H1044 H 0.42165 -0.00246 0.92719 0.0
H1045 H 0.56964 0.99077 -0.01716 0.0
H1046 H 0.5362 0.00457 0.00101 0.0
H1047 H 0.53848 0.96246 -0.00739 0.0
H1048 H 0.44264 0.01106 0.0388 0.0
H1049 H 0.44844 0.91063 0.01679 0.0
H1050 H 0.45517 0.04654 -0.01738 0.0
H1051 H 0.49311 0.04543 -0.00172 0.0
H1052 H 0.45572 0.05487 0.01372 0.0
H1053 H 0.46508 0.9247 0.95696 0.0
H1054 H 0.46962 0.89499 -0.01982 0.0
H1055 H 0.50342 0.92104 0.97183 0.0
C1056 C 0.4309 0.00767 0.51795 0.0
C1057 C 0.45116 0.01288 0.5374 0.0
C1058 C 0.44382 -0.00451 0.49691 0.0
C1059 C 0.47791 0.98943 0.49521 0.0
C1060 C 0.49841 -0.00568 0.51491 0.0
C1061 C 0.48465 0.00557 0.53594 0.0
C1062 C 0.42113 0.98969 0.4764 0.0
C1063 C 0.53499 0.9889 0.51351 0.0
C1064 C 0.51011 0.93759 0.44513 0.0
C1065 C 0.51807 0.96171 0.42857 0.0
C1066 C 0.49678 0.94621 0.46695 0.0
C1067 C 0.49236 0.97973 0.47242 0.0
C1068 C 0.50129 0.00417 0.45598 0.0
C1069 C 0.51359 -0.0052 0.43405 0.0
C1070 C 0.48671 0.91954 0.48387 0.0
C1071 C 0.49772 0.04019 0.46149 0.0
H1072 H 0.40493 0.01311 0.51922 0.0
H1073 H 0.50034 0.00984 0.55098 0.0
H1074 H 0.42705 0.00705 0.46201 0.0
H1075 H 0.42459 0.96456 0.46942 0.0
H1076 H 0.39493 -0.0071 0.48126 0.0
H1077 H 0.54731 -0.00711 0.53066 0.0
H1078 H 0.54035 0.96364 0.5075 0.0
H1079 H 0.54582 0.00593 0.50042 0.0
H1080 H 0.51335 0.91196 0.44073 0.0
H1081 H 0.52 0.0134 0.42122 0.0
H1082 H 0.46008 0.9215 0.48767 0.0
H1083 H 0.49982 0.92248 0.50078 0.0
H1084 H 0.49183 0.89465 0.4769 0.0
H1085 H 0.47149 0.04628 0.4642 0.0
H1086 H 0.50753 0.05604 0.44725 0.0
H1087 H 0.5108 0.0461 0.47803 0.0
C1088 C -0.0034 0.99222 0.53647 0.0
C1089 C 0.02994 0.98428 0.5379 0.0
C1090 C 0.98286 0.00268 0.51526 0.0
C1091 C 0.00326 0.00621 0.49532 0.0
C1092 C 0.03728 -0.00019 0.497 0.0
C1093 C 0.05017 0.98834 0.51825 0.0
C1094 C 0.94632 0.00844 0.51393 0.0
C1095 C 0.05987 0.00427 0.47621 0.0
C1096 C 0.96571 -0.00336 0.43513 0.0
C1097 C 0.96056 0.0293 0.42869 0.0
C1098 C 0.97914 0.98881 0.457 0.0
C1099 C -0.01141 0.01437 0.47234 0.0
C1100 C 0.9838 0.04746 0.46577 0.0
C1101 C 0.96926 0.05455 0.44408 0.0
C1102 C 0.98302 0.95321 0.46374 0.0
C1103 C -0.00548 0.07527 0.48145 0.0
H1104 H 0.98094 0.98892 0.55168 0.0
H1105 H 0.07603 0.98246 0.5195 0.0
H1106 H 0.94116 0.03332 0.50704 0.0
H1107 H 0.93517 0.99066 0.50156 0.0
H1108 H 0.93414 0.00576 0.53129 0.0
H1109 H 0.08609 0.00155 0.48111 0.0
H1110 H 0.05402 0.98584 0.46254 0.0
H1111 H 0.05624 0.02883 0.46827 0.0
H1112 H 0.95876 0.9772 0.42317 0.0
H1113 H 0.96553 0.07983 0.43887 0.0
H1114 H 0.97016 0.94833 0.48057 0.0
H1115 H 0.00931 0.94744 0.46646 0.0
H1116 H 0.97313 0.93638 0.45017 0.0
H1117 H 0.98152 0.0739 0.49854 0.0
H1118 H -0.01029 0.09964 0.47346 0.0
H1119 H 0.02114 0.07318 0.48517 0.0
C1120 C 0.53464 0.51663 0.01062 0.0
C1121 C 0.51733 0.5263 0.03061 0.0
C1122 C 0.5179 0.50833 -0.00999 0.0
C1123 C 0.48329 0.51117 -0.01067 0.0
C1124 C 0.46591 0.52233 0.00927 0.0
C1125 C 0.48317 0.52914 0.02992 0.0
C1126 C 0.5371 0.49557 0.96926 0.0
C1127 C 0.42915 0.5268 0.00886 0.0
C1128 C 0.44703 0.51208 0.92826 0.0
C1129 C 0.43648 0.47958 0.92606 0.0
C1130 C 0.46099 0.52322 0.94924 0.0
C1131 C 0.46524 0.50099 0.96806 0.0
C1132 C 0.45376 0.46839 0.96613 0.0
C1133 C 0.43906 0.45819 0.9452 0.0
C1134 C 0.47204 0.55844 0.95103 0.0
C1135 C 0.45845 0.44385 -0.01429 0.0
H1136 H 0.56111 0.51443 0.01141 0.0
H1137 H 0.47002 0.53709 0.04544 0.0
H1138 H 0.5286 0.47051 0.96476 0.0
H1139 H 0.53279 0.51126 0.95367 0.0
H1140 H 0.56388 0.4947 0.97275 0.0
H1141 H 0.41979 0.53827 0.02523 0.0
H1142 H 0.42199 0.54233 -0.00629 0.0
H1143 H 0.41695 0.50273 0.00661 0.0
H1144 H 0.44479 0.52865 0.91346 0.0
H1145 H 0.43107 0.43297 0.94344 0.0
H1146 H 0.49919 0.55949 0.95186 0.0
H1147 H 0.46248 0.56968 0.96739 0.0
H1148 H 0.46378 0.57334 0.93581 0.0
H1149 H 0.48503 0.44028 -0.01102 0.0
H1150 H 0.44731 0.41969 -0.01839 0.0
H1151 H 0.44745 0.45314 0.00222 0.0
C1152 C 0.00282 0.45731 0.02756 0.0
C1153 C 0.96885 0.45253 0.02835 0.0
C1154 C 0.01833 0.46614 0.00655 0.0
C1155 C -0.00092 0.47153 -0.01372 0.0
C1156 C 0.96472 0.46657 -0.01297 0.0
C1157 C 0.95005 0.45646 0.00805 0.0
C1158 C 0.05514 0.47005 0.0061 0.0
C1159 C 0.94334 0.47305 0.96589 0.0
C1160 C 0.03058 0.52956 0.93974 0.0
C1161 C 0.03769 0.50782 0.92147 0.0
C1162 C 0.01844 0.51797 0.96118 0.0
C1163 C 0.01452 0.48383 0.96451 0.0
C1164 C 0.02349 0.46169 0.94653 0.0
C1165 C 0.0344 0.47405 0.92495 0.0
C1166 C 0.00826 0.54232 -0.02024 0.0
C1167 C 0.02074 0.42509 0.94985 0.0
H1168 H 0.01726 0.45387 0.04334 0.0
H1169 H 0.92373 0.4529 0.00887 0.0
H1170 H 0.06578 0.45557 -0.00852 0.0
H1171 H 0.06161 0.49607 0.00295 0.0
H1172 H 0.06671 0.46209 0.02281 0.0
H1173 H 0.91701 0.46818 0.9695 0.0
H1174 H 0.94605 0.49896 0.96029 0.0
H1175 H 0.9512 0.45751 0.95095 0.0
H1176 H 0.03288 0.55572 0.93684 0.0
H1177 H 0.04016 0.45736 0.91073 0.0
H1178 H 0.02105 0.5371 -0.00348 0.0
H1179 H 0.98155 0.54003 -0.01685 0.0
H1180 H 0.01362 0.56801 0.97455 0.0
H1181 H 0.03256 0.41761 0.96656 0.0
H1182 H 0.03225 0.4113 0.9352 0.0
H1183 H -0.00545 0.41796 0.95098 0.0
C1184 C 0.93953 0.51483 0.51134 0.0
C1185 C 0.95951 0.51962 0.53096 0.0
C1186 C 0.95284 0.50325 0.49025 0.0
C1187 C 0.98703 0.4976 0.48872 0.0
C1188 C 0.00739 0.50324 0.50838 0.0
C1189 C -0.00677 0.51365 0.52947 0.0
C1190 C 0.93032 0.49655 0.46978 0.0
C1191 C 0.04408 0.49849 0.5071 0.0
C1192 C 0.01896 0.44037 0.44183 0.0
C1193 C 0.02687 0.4625 0.42392 0.0
C1194 C 0.00571 0.45148 0.46305 0.0
C1195 C 0.00146 0.48554 0.46656 0.0
C1196 C 0.01051 0.50803 0.44878 0.0
C1197 C 0.0226 0.49614 0.42743 0.0
C1198 C -0.00456 0.4268 0.48142 0.0
C1199 C 0.00729 0.54456 0.45228 0.0
H1200 H 0.91339 0.51931 0.51269 0.0
H1201 H 0.00863 0.51771 0.5447 0.0
H1202 H 0.93727 0.51211 0.4546 0.0
H1203 H 0.93285 0.47065 0.46416 0.0
H1204 H 0.90419 0.50129 0.47414 0.0
H1205 H 0.05653 0.50543 0.5237 0.0
H1206 H 0.04983 0.47251 0.50321 0.0
H1207 H 0.05442 0.51344 0.49258 0.0
H1208 H 0.02201 0.4143 0.4389 0.0
H1209 H 0.02897 0.51315 0.41351 0.0
H1210 H 0.96891 0.4296 0.48529 0.0
H1211 H 0.00888 0.43125 0.49803 0.0
H1212 H 5e-05 0.40117 0.47577 0.0
H1213 H 0.98111 0.5512 0.45454 0.0
H1214 H 0.01737 0.55872 0.43725 0.0
H1215 H 0.0203 0.55209 0.4685 0.0
C1216 C 0.48267 0.48501 0.53229 0.0
C1217 C 0.5161 0.47723 0.53225 0.0
C1218 C 0.46687 0.49444 0.51156 0.0
C1219 C 0.48534 0.49727 0.49063 0.0
C1220 C 0.51931 0.4901 0.49064 0.0
C1221 C 0.5342 0.47952 0.51145 0.0
C1222 C 0.4304 0.50082 0.51197 0.0
C1223 C 0.53994 0.49385 0.46876 0.0
C1224 C 0.44504 0.4938 0.43094 0.0
C1225 C 0.44223 0.52711 0.42554 0.0
C1226 C 0.45783 0.48372 0.45257 0.0
C1227 C 0.46917 0.5076 0.46862 0.0
C1228 C 0.46612 0.54133 0.46327 0.0
C1229 C 0.45209 0.55071 0.44187 0.0
C1230 C 0.45971 0.44757 0.45807 0.0
C1231 C 0.47885 0.56742 0.47969 0.0
H1232 H 0.46869 0.48287 0.54843 0.0
H1233 H 0.56012 0.47363 0.51159 0.0
H1234 H 0.4253 0.52644 0.50661 0.0
H1235 H 0.41792 0.48459 0.49916 0.0
H1236 H 0.41951 0.49661 0.52961 0.0
H1237 H 0.56631 0.48885 0.47208 0.0
H1238 H 0.53117 0.4768 0.45498 0.0
H1239 H 0.53748 0.51908 0.46171 0.0
H1240 H 0.43721 0.47567 0.41822 0.0
H1241 H 0.45021 0.57649 0.43746 0.0
H1242 H 0.44834 0.4425 0.47541 0.0
H1243 H 0.48572 0.43981 0.45913 0.0
H1244 H 0.44723 0.43239 0.44459 0.0
H1245 H 0.46719 0.56495 0.4972 0.0
H1246 H 0.47422 0.59256 0.47299 0.0
H1247 H 0.50565 0.56426 0.48218 0.0
loop_
_geom_bond_atom_site_label_1
_geom_bond_atom_site_label_2
_geom_bond_distance
_geom_bond_site_symmetry_2
_ccdc_geom_bond_type
C0 O1 1.306 . S
C0 O3 1.160 . S
O1 C0 1.306 . S
O1 Cd2 2.228 1_455 S
Cd2 O1 2.228 1_655 S
Cd2 O6 2.273 1_655 S
Cd2 O10 2.277 1_655 S
O3 C0 1.160 . S
O3 Cd4 2.203 . S
Cd4 O3 2.203 . S
Cd4 O6 2.411 . S
Cd4 O7 2.333 . S
Cd4 O8 2.352 . S
Cd4 O12 2.277 . S
Cd4 O13 2.356 . S
C5 O10 1.209 . S
C5 O12 1.226 . S
O6 Cd2 2.273 1_455 S
O6 Cd4 2.411 . S
O6 C9 1.320 . S
O7 Cd4 2.333 . S
O7 C9 1.214 . S
O8 Cd4 2.352 . S
O8 C11 1.258 . S
C9 O6 1.320 . S
C9 O7 1.214 . S
O10 Cd2 2.277 1_455 S
O10 C5 1.209 . S
C11 O8 1.258 . S
C11 O13 1.282 . S
O12 Cd4 2.277 . S
O12 C5 1.226 . S
O13 Cd4 2.356 . S
O13 C11 1.282 . S
C14 O15 1.306 . S
C14 O17 1.160 . S
O15 C14 1.306 . S
O15 Cd16 2.228 . S
Cd16 O15 2.228 . S
Cd16 O20 2.273 . S
Cd16 O24 2.277 . S
O17 C14 1.160 . S
O17 Cd18 2.203 . S
Cd18 O17 2.203 . S
Cd18 O20 2.411 . S
Cd18 O21 2.333 . S
Cd18 O22 2.352 . S
Cd18 O26 2.277 . S
Cd18 O27 2.356 . S
C19 O24 1.209 . S
C19 O26 1.226 . S
O20 Cd16 2.273 . S
O20 Cd18 2.411 . S
O20 C23 1.320 . S
O21 Cd18 2.333 . S
O21 C23 1.214 . S
O22 Cd18 2.352 . S
O22 C25 1.258 . S
C23 O20 1.320 . S
C23 O21 1.214 . S
O24 Cd16 2.277 . S
O24 C19 1.209 . S
C25 O22 1.258 . S
C25 O27 1.282 . S
O26 Cd18 2.277 . S
O26 C19 1.226 . S
O27 Cd18 2.356 . S
O27 C25 1.282 . S
C28 O29 1.306 . S
C28 O31 1.160 . S
O29 C28 1.306 . S
O29 Cd30 2.228 . S
Cd30 O29 2.228 . S
Cd30 O34 2.273 . S
Cd30 O38 2.277 . S
O31 C28 1.160 . S
O31 Cd32 2.203 . S
Cd32 O31 2.203 . S
Cd32 O34 2.411 . S
Cd32 O35 2.333 . S
Cd32 O36 2.352 . S
Cd32 O40 2.277 . S
Cd32 O41 2.356 . S
C33 O38 1.209 . S
C33 O40 1.226 . S
O34 Cd30 2.273 . S
O34 Cd32 2.411 . S
O34 C37 1.320 . S
O35 Cd32 2.333 . S
O35 C37 1.214 . S
O36 Cd32 2.352 . S
O36 C39 1.258 . S
C37 O34 1.320 . S
C37 O35 1.214 . S
O38 Cd30 2.277 . S
O38 C33 1.209 . S
C39 O36 1.258 . S
C39 O41 1.282 . S
O40 Cd32 2.277 . S
O40 C33 1.226 . S
O41 Cd32 2.356 . S
O41 C39 1.282 . S
C42 O43 1.306 . S
C42 O45 1.160 . S
O43 C42 1.306 . S
O43 Cd44 2.228 1_655 S
Cd44 O43 2.228 1_455 S
Cd44 O48 2.273 1_455 S
Cd44 O52 2.277 1_455 S
O45 C42 1.160 . S
O45 Cd46 2.203 . S
Cd46 O45 2.203 . S
Cd46 O48 2.411 . S
Cd46 O49 2.333 . S
Cd46 O50 2.352 . S
Cd46 O54 2.277 . S
Cd46 O55 2.356 . S
C47 O52 1.209 . S
C47 O54 1.226 . S
O48 Cd44 2.273 1_655 S
O48 Cd46 2.411 . S
O48 C51 1.320 . S
O49 Cd46 2.333 . S
O49 C51 1.214 . S
O50 Cd46 2.352 . S
O50 C53 1.258 . S
C51 O48 1.320 . S
C51 O49 1.214 . S
O52 Cd44 2.277 1_655 S
O52 C47 1.209 . S
C53 O50 1.258 . S
C53 O55 1.282 . S
O54 Cd46 2.277 . S
O54 C47 1.226 . S
O55 Cd46 2.356 . S
O55 C53 1.282 . S
C56 O57 1.306 . S
C56 O59 1.160 . S
O57 C56 1.306 . S
O57 Cd58 2.228 1_655 S
Cd58 O57 2.228 1_455 S
Cd58 O62 2.273 1_455 S
Cd58 O66 2.277 1_455 S
O59 C56 1.160 . S
O59 Cd60 2.203 . S
Cd60 O59 2.203 . S
Cd60 O62 2.411 . S
Cd60 O63 2.333 . S
Cd60 O64 2.352 . S
Cd60 O68 2.277 . S
Cd60 O69 2.356 . S
C61 O66 1.209 . S
C61 O68 1.226 . S
O62 Cd58 2.273 1_655 S
O62 Cd60 2.411 . S
O62 C65 1.320 . S
O63 Cd60 2.333 . S
O63 C65 1.214 . S
O64 Cd60 2.352 . S
O64 C67 1.258 . S
C65 O62 1.320 . S
C65 O63 1.214 . S
O66 Cd58 2.277 1_655 S
O66 C61 1.209 . S
C67 O64 1.258 . S
C67 O69 1.282 . S
O68 Cd60 2.277 . S
O68 C61 1.226 . S
O69 Cd60 2.356 . S
O69 C67 1.282 . S
C70 O71 1.306 . S
C70 O73 1.160 . S
O71 C70 1.306 . S
O71 Cd72 2.228 . S
Cd72 O71 2.228 . S
Cd72 O76 2.273 . S
Cd72 O80 2.277 . S
O73 C70 1.160 . S
O73 Cd74 2.203 . S
Cd74 O73 2.203 . S
Cd74 O76 2.411 . S
Cd74 O77 2.333 . S
Cd74 O78 2.352 . S
Cd74 O82 2.277 . S
Cd74 O83 2.356 . S
C75 O80 1.209 . S
C75 O82 1.226 . S
O76 Cd72 2.273 . S
O76 Cd74 2.411 . S
O76 C79 1.320 . S
O77 Cd74 2.333 . S
O77 C79 1.214 . S
O78 Cd74 2.352 . S
O78 C81 1.258 . S
C79 O76 1.320 . S
C79 O77 1.214 . S
O80 Cd72 2.277 . S
O80 C75 1.209 . S
C81 O78 1.258 . S
C81 O83 1.282 . S
O82 Cd74 2.277 . S
O82 C75 1.226 . S
O83 Cd74 2.356 . S
O83 C81 1.282 . S
C84 O85 1.306 . S
C84 O87 1.160 . S
O85 C84 1.306 . S
O85 Cd86 2.228 . S
Cd86 O85 2.228 . S
Cd86 O90 2.273 . S
Cd86 O94 2.277 . S
O87 C84 1.160 . S
O87 Cd88 2.203 . S
Cd88 O87 2.203 . S
Cd88 O90 2.411 . S
Cd88 O91 2.333 . S
Cd88 O92 2.352 . S
Cd88 O96 2.277 . S
Cd88 O97 2.356 . S
C89 O94 1.209 . S
C89 O96 1.226 . S
O90 Cd86 2.273 . S
O90 Cd88 2.411 . S
O90 C93 1.320 . S
O91 Cd88 2.333 . S
O91 C93 1.214 . S
O92 Cd88 2.352 . S
O92 C95 1.258 . S
C93 O90 1.320 . S
C93 O91 1.214 . S
O94 Cd86 2.277 . S
O94 C89 1.209 . S
C95 O92 1.258 . S
C95 O97 1.282 . S
O96 Cd88 2.277 . S
O96 C89 1.226 . S
O97 Cd88 2.356 . S
O97 C95 1.282 . S
C98 O99 1.306 . S
C98 O101 1.160 . S
O99 C98 1.306 . S
O99 Cd100 2.228 1_455 S
Cd100 O99 2.228 1_655 S
Cd100 O104 2.273 1_655 S
Cd100 O108 2.277 1_655 S
O101 C98 1.160 . S
O101 Cd102 2.203 . S
Cd102 O101 2.203 . S
Cd102 O104 2.411 . S
Cd102 O105 2.333 . S
Cd102 O106 2.352 . S
Cd102 O110 2.277 . S
Cd102 O111 2.356 . S
C103 O108 1.209 . S
C103 O110 1.226 . S
O104 Cd100 2.273 1_455 S
O104 Cd102 2.411 . S
O104 C107 1.320 . S
O105 Cd102 2.333 . S
O105 C107 1.214 . S
O106 Cd102 2.352 . S
O106 C109 1.258 . S
C107 O104 1.320 . S
C107 O105 1.214 . S
O108 Cd100 2.277 1_455 S
O108 C103 1.209 . S
C109 O106 1.258 . S
C109 O111 1.282 . S
O110 Cd102 2.277 . S
O110 C103 1.226 . S
O111 Cd102 2.356 . S
O111 C109 1.282 . S
C112 O113 1.306 . S
C112 O115 1.160 . S
O113 C112 1.306 . S
O113 Cd114 2.228 . S
Cd114 O113 2.228 . S
Cd114 O118 2.273 . S
Cd114 O122 2.277 . S
O115 C112 1.160 . S
O115 Cd116 2.203 . S
Cd116 O115 2.203 . S
Cd116 O118 2.411 . S
Cd116 O119 2.333 . S
Cd116 O120 2.352 . S
Cd116 O124 2.277 . S
Cd116 O125 2.356 . S
C117 O122 1.209 . S
C117 O124 1.226 . S
O118 Cd114 2.273 . S
O118 Cd116 2.411 . S
O118 C121 1.320 . S
O119 Cd116 2.333 . S
O119 C121 1.214 . S
O120 Cd116 2.352 . S
O120 C123 1.258 . S
C121 O118 1.320 . S
C121 O119 1.214 . S
O122 Cd114 2.277 . S
O122 C117 1.209 . S
C123 O120 1.258 . S
C123 O125 1.282 . S
O124 Cd116 2.277 . S
O124 C117 1.226 . S
O125 Cd116 2.356 . S
O125 C123 1.282 . S
C126 O127 1.306 . S
C126 O129 1.160 . S
O127 C126 1.306 . S
O127 Cd128 2.228 1_655 S
Cd128 O127 2.228 1_455 S
Cd128 O132 2.273 1_455 S
Cd128 O136 2.277 1_455 S
O129 C126 1.160 . S
O129 Cd130 2.203 . S
Cd130 O129 2.203 . S
Cd130 O132 2.411 . S
Cd130 O133 2.333 . S
Cd130 O134 2.352 . S
Cd130 O138 2.277 . S
Cd130 O139 2.356 . S
C131 O136 1.209 . S
C131 O138 1.226 . S
O132 Cd128 2.273 1_655 S
O132 Cd130 2.411 . S
O132 C135 1.320 . S
O133 Cd130 2.333 . S
O133 C135 1.214 . S
O134 Cd130 2.352 . S
O134 C137 1.258 . S
C135 O132 1.320 . S
C135 O133 1.214 . S
O136 Cd128 2.277 1_655 S
O136 C131 1.209 . S
C137 O134 1.258 . S
C137 O139 1.282 . S
O138 Cd130 2.277 . S
O138 C131 1.226 . S
O139 Cd130 2.356 . S
O139 C137 1.282 . S
C140 O141 1.306 . S
C140 O143 1.160 . S
O141 C140 1.306 . S
O141 Cd142 2.228 1_455 S
Cd142 O141 2.228 1_655 S
Cd142 O146 2.273 1_655 S
Cd142 O150 2.277 1_655 S
O143 C140 1.160 . S
O143 Cd144 2.203 . S
Cd144 O143 2.203 . S
Cd144 O146 2.411 . S
Cd144 O147 2.333 . S
Cd144 O148 2.352 . S
Cd144 O152 2.277 . S
Cd144 O153 2.356 . S
C145 O150 1.209 . S
C145 O152 1.226 . S
O146 Cd142 2.273 1_455 S
O146 Cd144 2.411 . S
O146 C149 1.320 . S
O147 Cd144 2.333 . S
O147 C149 1.214 . S
O148 Cd144 2.352 . S
O148 C151 1.258 . S
C149 O146 1.320 . S
C149 O147 1.214 . S
O150 Cd142 2.277 1_455 S
O150 C145 1.209 . S
C151 O148 1.258 . S
C151 O153 1.282 . S
O152 Cd144 2.277 . S
O152 C145 1.226 . S
O153 Cd144 2.356 . S
O153 C151 1.282 . S
C154 O155 1.306 . S
C154 O157 1.160 . S
O155 C154 1.306 . S
O155 Cd156 2.228 . S
Cd156 O155 2.228 . S
Cd156 O160 2.273 . S
Cd156 O164 2.277 . S
O157 C154 1.160 . S
O157 Cd158 2.203 . S
Cd158 O157 2.203 . S
Cd158 O160 2.411 . S
Cd158 O161 2.333 . S
Cd158 O162 2.352 . S
Cd158 O166 2.277 . S
Cd158 O167 2.356 . S
C159 O164 1.209 . S
C159 O166 1.226 . S
O160 Cd156 2.273 . S
O160 Cd158 2.411 . S
O160 C163 1.320 . S
O161 Cd158 2.333 . S
O161 C163 1.214 . S
O162 Cd158 2.352 . S
O162 C165 1.258 . S
C163 O160 1.320 . S
C163 O161 1.214 . S
O164 Cd156 2.277 . S
O164 C159 1.209 . S
C165 O162 1.258 . S
C165 O167 1.282 . S
O166 Cd158 2.277 . S
O166 C159 1.226 . S
O167 Cd158 2.356 . S
O167 C165 1.282 . S
C168 O169 1.306 . S
C168 O171 1.160 . S
O169 C168 1.306 . S
O169 Cd170 2.228 . S
Cd170 O169 2.228 . S
Cd170 O174 2.273 . S
Cd170 O178 2.277 . S
O171 C168 1.160 . S
O171 Cd172 2.203 . S
Cd172 O171 2.203 . S
Cd172 O174 2.411 . S
Cd172 O175 2.333 . S
Cd172 O176 2.352 . S
Cd172 O180 2.277 . S
Cd172 O181 2.356 . S
C173 O178 1.209 . S
C173 O180 1.226 . S
O174 Cd170 2.273 . S
O174 Cd172 2.411 . S
O174 C177 1.320 . S
O175 Cd172 2.333 . S
O175 C177 1.214 . S
O176 Cd172 2.352 . S
O176 C179 1.258 . S
C177 O174 1.320 . S
C177 O175 1.214 . S
O178 Cd170 2.277 . S
O178 C173 1.209 . S
C179 O176 1.258 . S
C179 O181 1.282 . S
O180 Cd172 2.277 . S
O180 C173 1.226 . S
O181 Cd172 2.356 . S
O181 C179 1.282 . S
C182 O183 1.306 . S
C182 O185 1.160 . S
O183 C182 1.306 . S
O183 Cd184 2.228 1_455 S
Cd184 O183 2.228 1_655 S
Cd184 O188 2.273 1_655 S
Cd184 O192 2.277 1_655 S
O185 C182 1.160 . S
O185 Cd186 2.203 . S
Cd186 O185 2.203 . S
Cd186 O188 2.411 . S
Cd186 O189 2.333 . S
Cd186 O190 2.352 . S
Cd186 O194 2.277 . S
Cd186 O195 2.356 . S
C187 O192 1.209 . S
C187 O194 1.226 . S
O188 Cd184 2.273 1_455 S
O188 Cd186 2.411 . S
O188 C191 1.320 . S
O189 Cd186 2.333 . S
O189 C191 1.214 . S
O190 Cd186 2.352 . S
O190 C193 1.258 . S
C191 O188 1.320 . S
C191 O189 1.214 . S
O192 Cd184 2.277 1_455 S
O192 C187 1.209 . S
C193 O190 1.258 . S
C193 O195 1.282 . S
O194 Cd186 2.277 . S
O194 C187 1.226 . S
O195 Cd186 2.356 . S
O195 C193 1.282 . S
C196 O197 1.306 . S
C196 O199 1.160 . S
O197 C196 1.306 . S
O197 Cd198 2.228 1_655 S
Cd198 O197 2.228 1_455 S
Cd198 O202 2.273 1_455 S
Cd198 O206 2.277 1_455 S
O199 C196 1.160 . S
O199 Cd200 2.203 . S
Cd200 O199 2.203 . S
Cd200 O202 2.411 . S
Cd200 O203 2.333 . S
Cd200 O204 2.352 . S
Cd200 O208 2.277 . S
Cd200 O209 2.356 . S
C201 O206 1.209 . S
C201 O208 1.226 . S
O202 Cd198 2.273 1_655 S
O202 Cd200 2.411 . S
O202 C205 1.320 . S
O203 Cd200 2.333 . S
O203 C205 1.214 . S
O204 Cd200 2.352 . S
O204 C207 1.258 . S
C205 O202 1.320 . S
C205 O203 1.214 . S
O206 Cd198 2.277 1_655 S
O206 C201 1.209 . S
C207 O204 1.258 . S
C207 O209 1.282 . S
O208 Cd200 2.277 . S
O208 C201 1.226 . S
O209 Cd200 2.356 . S
O209 C207 1.282 . S
C210 O211 1.306 . S
C210 O213 1.160 . S
O211 C210 1.306 . S
O211 Cd212 2.228 . S
Cd212 O211 2.228 . S
Cd212 O216 2.273 . S
Cd212 O220 2.277 . S
O213 C210 1.160 . S
O213 Cd214 2.203 . S
Cd214 O213 2.203 . S
Cd214 O216 2.411 . S
Cd214 O217 2.333 . S
Cd214 O218 2.352 . S
Cd214 O222 2.277 . S
Cd214 O223 2.356 . S
C215 O220 1.209 . S
C215 O222 1.226 . S
O216 Cd212 2.273 . S
O216 Cd214 2.411 . S
O216 C219 1.320 . S
O217 Cd214 2.333 . S
O217 C219 1.214 . S
O218 Cd214 2.352 . S
O218 C221 1.258 . S
C219 O216 1.320 . S
C219 O217 1.214 . S
O220 Cd212 2.277 . S
O220 C215 1.209 . S
C221 O218 1.258 . S
C221 O223 1.282 . S
O222 Cd214 2.277 . S
O222 C215 1.226 . S
O223 Cd214 2.356 . S
O223 C221 1.282 . S
C224 C225 1.391 . S
C224 C226 1.394 . S
C224 H240 0.931 . S
C225 C224 1.391 . S
C225 C229 1.376 . S
C226 C224 1.394 . S
C226 C227 1.369 . S
C226 C230 1.531 . S
C227 C226 1.369 . S
C227 C228 1.410 . S
C227 C235 1.496 1_565 S
C228 C227 1.410 . S
C228 C229 1.392 . S
C228 C231 1.511 1_565 S
C229 C225 1.376 . S
C229 C228 1.392 . S
C229 H241 0.929 . S
C230 C226 1.531 . S
C230 H242 0.960 . S
C230 H243 0.962 . S
C230 H244 0.960 . S
C231 C228 1.511 1_545 S
C231 H245 0.961 . S
C231 H246 0.961 . S
C231 H247 0.975 . S
C232 C233 1.370 . S
C232 C234 1.363 . S
C232 H248 0.931 . S
C233 C232 1.370 . S
C233 C237 1.408 1_545 S
C234 C232 1.363 . S
C234 C235 1.389 . S
C234 C238 1.524 . S
C235 C227 1.496 1_545 S
C235 C234 1.389 . S
C235 C236 1.391 1_545 S
C236 C235 1.391 1_565 S
C236 C237 1.404 . S
C236 C239 1.539 . S
C237 C233 1.408 1_565 S
C237 C236 1.404 . S
C237 H249 0.930 . S
C238 C234 1.524 . S
C238 H250 0.956 . S
C238 H251 0.961 . S
C238 H252 0.961 . S
C239 C236 1.539 . S
C239 H253 0.958 . S
C239 H254 0.961 . S
C239 H255 0.960 . S
H240 C224 0.931 . S
H241 C229 0.929 . S
H242 C230 0.960 . S
H243 C230 0.962 . S
H244 C230 0.960 . S
H245 C231 0.961 . S
H246 C231 0.961 . S
H247 C231 0.975 . S
H248 C232 0.931 . S
H249 C237 0.930 . S
H250 C238 0.956 . S
H251 C238 0.961 . S
H252 C238 0.961 . S
H253 C239 0.958 . S
H254 C239 0.961 . S
H255 C239 0.960 . S
C256 C257 1.391 . S
C256 C258 1.394 1_565 S
C256 H272 0.931 1_565 S
C257 C256 1.391 . S
C257 C261 1.376 . S
C258 C256 1.394 1_545 S
C258 C259 1.369 1_545 S
C258 C262 1.531 . S
C259 C258 1.369 1_565 S
C259 C260 1.410 . S
C259 C267 1.503 1_565 S
C260 C259 1.410 . S
C260 C261 1.392 . S
C260 C263 1.511 . S
C261 C257 1.376 . S
C261 C260 1.392 . S
C261 H273 0.929 . S
C262 C258 1.531 . S
C262 H274 0.960 . S
C262 H275 0.962 . S
C262 H276 0.960 . S
C263 C260 1.511 . S
C263 H277 0.961 . S
C263 H278 0.961 . S
C263 H279 0.961 . S
C264 C265 1.370 . S
C264 C266 1.363 . S
C264 H280 0.931 . S
C265 C264 1.370 . S
C265 C269 1.425 . S
C266 C264 1.363 . S
C266 C267 1.370 . S
C266 C270 1.524 . S
C267 C259 1.503 1_545 S
C267 C266 1.370 . S
C267 C268 1.403 1_545 S
C268 C267 1.403 1_565 S
C268 C269 1.397 1_565 S
C268 C271 1.539 . S
C269 C265 1.425 . S
C269 C268 1.397 1_545 S
C269 H281 0.922 1_545 S
C270 C266 1.524 . S
C270 H282 0.956 . S
C270 H283 0.961 . S
C270 H284 0.961 . S
C271 C268 1.539 . S
C271 H285 0.958 . S
C271 H286 0.961 . S
C271 H287 0.960 . S
H272 C256 0.931 1_545 S
H273 C261 0.929 . S
H274 C262 0.960 . S
H275 C262 0.962 . S
H276 C262 0.960 . S
H277 C263 0.961 . S
H278 C263 0.961 . S
H279 C263 0.961 . S
H280 C264 0.931 . S
H281 C269 0.922 1_565 S
H282 C270 0.956 . S
H283 C270 0.961 . S
H284 C270 0.961 . S
H285 C271 0.958 . S
H286 C271 0.961 . S
H287 C271 0.960 . S
C288 C289 1.391 . S
C288 C290 1.394 . S
C288 H304 0.931 . S
C289 C288 1.391 . S
C289 C293 1.376 . S
C290 C288 1.394 . S
C290 C291 1.369 1_565 S
C290 C294 1.531 . S
C291 C290 1.369 1_545 S
C291 C292 1.409 1_545 S
C291 C299 1.503 . S
C292 C291 1.409 1_565 S
C292 C293 1.395 . S
C292 C295 1.509 1_565 S
C293 C289 1.376 . S
C293 C292 1.395 . S
C293 H305 0.929 . S
C294 C290 1.531 . S
C294 H306 0.960 1_565 S
C294 H307 0.962 . S
C294 H308 0.957 1_565 S
C295 C292 1.509 1_545 S
C295 H309 0.961 1_545 S
C295 H310 0.961 . S
C295 H311 0.961 . S
C296 C297 1.370 1_565 S
C296 C298 1.363 . S
C296 H312 0.931 . S
C297 C296 1.370 1_545 S
C297 C301 1.408 . S
C298 C296 1.363 . S
C298 C299 1.370 1_565 S
C298 C302 1.524 . S
C299 C291 1.503 . S
C299 C298 1.370 1_545 S
C299 C300 1.403 . S
C300 C299 1.403 . S
C300 C301 1.404 . S
C300 C303 1.539 . S
C301 C297 1.408 . S
C301 C300 1.404 . S
C301 H313 0.930 . S
C302 C298 1.524 . S
C302 H314 0.956 . S
C302 H315 0.961 . S
C302 H316 0.961 . S
C303 C300 1.539 . S
C303 H317 0.958 . S
C303 H318 0.961 . S
C303 H319 0.960 . S
H304 C288 0.931 . S
H305 C293 0.929 . S
H306 C294 0.960 1_545 S
H307 C294 0.962 . S
H308 C294 0.957 1_545 S
H309 C295 0.961 1_565 S
H310 C295 0.961 . S
H311 C295 0.961 . S
H312 C296 0.931 . S
H313 C301 0.930 . S
H314 C302 0.956 . S
H315 C302 0.961 . S
H316 C302 0.961 . S
H317 C303 0.958 . S
H318 C303 0.961 . S
H319 C303 0.960 . S
C320 C321 1.391 . S
C320 C322 1.394 . S
C320 H336 0.931 . S
C321 C320 1.391 . S
C321 C325 1.376 . S
C322 C320 1.394 . S
C322 C323 1.369 1_565 S
C322 C326 1.531 1_565 S
C323 C322 1.369 1_545 S
C323 C324 1.410 1_545 S
C323 C331 1.503 . S
C324 C323 1.410 1_565 S
C324 C325 1.392 . S
C324 C327 1.513 . S
C325 C321 1.376 . S
C325 C324 1.392 . S
C325 H337 0.929 . S
C326 C322 1.531 1_545 S
C326 H338 0.960 . S
C326 H339 0.962 1_545 S
C326 H340 0.960 . S
C327 C324 1.513 . S
C327 H341 0.967 . S
C327 H342 0.963 . S
C327 H343 0.951 1_565 S
C328 C329 1.370 1_565 S
C328 C330 1.363 . S
C328 H344 0.931 . S
C329 C328 1.370 1_545 S
C329 C333 1.408 . S
C330 C328 1.363 . S
C330 C331 1.370 1_565 S
C330 C334 1.524 . S
C331 C323 1.503 . S
C331 C330 1.370 1_545 S
C331 C332 1.403 . S
C332 C331 1.403 . S
C332 C333 1.404 . S
C332 C335 1.539 . S
C333 C329 1.408 . S
C333 C332 1.404 . S
C333 H345 0.930 . S
C334 C330 1.524 . S
C334 H346 0.956 . S
C334 H347 0.961 . S
C334 H348 0.961 . S
C335 C332 1.539 . S
C335 H349 0.958 . S
C335 H350 0.961 . S
C335 H351 0.960 . S
H336 C320 0.931 . S
H337 C325 0.929 . S
H338 C326 0.960 . S
H339 C326 0.962 1_565 S
H340 C326 0.960 . S
H341 C327 0.967 . S
H342 C327 0.963 . S
H343 C327 0.951 1_545 S
H344 C328 0.931 . S
H345 C333 0.930 . S
H346 C334 0.956 . S
H347 C334 0.961 . S
H348 C334 0.961 . S
H349 C335 0.958 . S
H350 C335 0.961 . S
H351 C335 0.960 . S
C352 C353 1.391 . S
C352 C354 1.394 . S
C352 H368 0.931 . S
C353 C352 1.391 . S
C353 C357 1.376 . S
C354 C352 1.394 . S
C354 C355 1.369 . S
C354 C358 1.531 . S
C355 C354 1.369 . S
C355 C356 1.410 . S
C355 C363 1.503 . S
C356 C355 1.410 . S
C356 C357 1.392 . S
C356 C359 1.511 . S
C357 C353 1.376 . S
C357 C356 1.392 . S
C357 H369 0.929 . S
C358 C354 1.531 . S
C358 H370 0.960 . S
C358 H371 0.962 . S
C358 H372 0.960 . S
C359 C356 1.511 . S
C359 H373 0.961 . S
C359 H374 0.961 . S
C359 H375 0.961 . S
C360 C361 1.370 . S
C360 C362 1.363 . S
C360 H376 0.931 . S
C361 C360 1.370 . S
C361 C365 1.408 . S
C362 C360 1.363 . S
C362 C363 1.370 . S
C362 C366 1.524 . S
C363 C355 1.503 . S
C363 C362 1.370 . S
C363 C364 1.403 . S
C364 C363 1.403 . S
C364 C365 1.404 . S
C364 C367 1.539 . S
C365 C361 1.408 . S
C365 C364 1.404 . S
C365 H377 0.930 . S
C366 C362 1.524 . S
C366 H378 0.956 . S
C366 H379 0.961 . S
C366 H380 0.961 . S
C367 C364 1.539 . S
C367 H381 0.958 . S
C367 H382 0.961 . S
C367 H383 0.960 . S
H368 C352 0.931 . S
H369 C357 0.929 . S
H370 C358 0.960 . S
H371 C358 0.962 . S
H372 C358 0.960 . S
H373 C359 0.961 . S
H374 C359 0.961 . S
H375 C359 0.961 . S
H376 C360 0.931 . S
H377 C365 0.930 . S
H378 C366 0.956 . S
H379 C366 0.961 . S
H380 C366 0.961 . S
H381 C367 0.958 . S
H382 C367 0.961 . S
H383 C367 0.960 . S
C384 C385 1.391 . S
C384 C386 1.394 . S
C384 H400 0.931 . S
C385 C384 1.391 . S
C385 C389 1.376 . S
C386 C384 1.394 . S
C386 C387 1.369 . S
C386 C390 1.531 . S
C387 C386 1.369 . S
C387 C388 1.410 . S
C387 C395 1.503 . S
C388 C387 1.410 . S
C388 C389 1.392 . S
C388 C391 1.511 . S
C389 C385 1.376 . S
C389 C388 1.392 . S
C389 H401 0.929 . S
C390 C386 1.531 . S
C390 H402 0.960 . S
C390 H403 0.962 . S
C390 H404 0.960 . S
C391 C388 1.511 . S
C391 H405 0.961 . S
C391 H406 0.961 . S
C391 H407 0.961 . S
C392 C393 1.370 . S
C392 C394 1.363 . S
C392 H408 0.931 . S
C393 C392 1.370 . S
C393 C397 1.408 . S
C394 C392 1.363 . S
C394 C395 1.370 . S
C394 C398 1.524 . S
C395 C387 1.503 . S
C395 C394 1.370 . S
C395 C396 1.403 . S
C396 C395 1.403 . S
C396 C397 1.404 . S
C396 C399 1.539 . S
C397 C393 1.408 . S
C397 C396 1.404 . S
C397 H409 0.930 . S
C398 C394 1.524 . S
C398 H410 0.956 . S
C398 H411 0.961 . S
C398 H412 0.961 . S
C399 C396 1.539 . S
C399 H413 0.958 . S
C399 H414 0.961 . S
C399 H415 0.960 . S
H400 C384 0.931 . S
H401 C389 0.929 . S
H402 C390 0.960 . S
H403 C390 0.962 . S
H404 C390 0.960 . S
H405 C391 0.961 . S
H406 C391 0.961 . S
H407 C391 0.961 . S
H408 C392 0.931 . S
H409 C397 0.930 . S
H410 C398 0.956 . S
H411 C398 0.961 . S
H412 C398 0.961 . S
H413 C399 0.958 . S
H414 C399 0.961 . S
H415 C399 0.960 . S
C416 C417 1.391 . S
C416 C418 1.394 . S
C416 H432 0.931 . S
C417 C416 1.391 . S
C417 C421 1.376 . S
C418 C416 1.394 . S
C418 C419 1.369 . S
C418 C422 1.531 . S
C419 C418 1.369 . S
C419 C420 1.410 . S
C419 C427 1.503 . S
C420 C419 1.410 . S
C420 C421 1.392 . S
C420 C423 1.511 . S
C421 C417 1.376 . S
C421 C420 1.392 . S
C421 H433 0.929 . S
C422 C418 1.531 . S
C422 H434 0.960 . S
C422 H435 0.962 . S
C422 H436 0.960 . S
C423 C420 1.511 . S
C423 H437 0.961 . S
C423 H438 0.961 . S
C423 H439 0.961 . S
C424 C425 1.370 . S
C424 C426 1.363 . S
C424 H440 0.931 . S
C425 C424 1.370 . S
C425 C429 1.408 . S
C426 C424 1.363 . S
C426 C427 1.370 . S
C426 C430 1.524 . S
C427 C419 1.503 . S
C427 C426 1.370 . S
C427 C428 1.403 . S
C428 C427 1.403 . S
C428 C429 1.404 . S
C428 C431 1.539 . S
C429 C425 1.408 . S
C429 C428 1.404 . S
C429 H441 0.930 . S
C430 C426 1.524 . S
C430 H442 0.956 . S
C430 H443 0.961 . S
C430 H444 0.961 . S
C431 C428 1.539 . S
C431 H445 0.958 . S
C431 H446 0.961 . S
C431 H447 0.960 . S
H432 C416 0.931 . S
H433 C421 0.929 . S
H434 C422 0.960 . S
H435 C422 0.962 . S
H436 C422 0.960 . S
H437 C423 0.961 . S
H438 C423 0.961 . S
H439 C423 0.961 . S
H440 C424 0.931 . S
H441 C429 0.930 . S
H442 C430 0.956 . S
H443 C430 0.961 . S
H444 C430 0.961 . S
H445 C431 0.958 . S
H446 C431 0.961 . S
H447 C431 0.960 . S
C448 C449 1.391 . S
C448 C450 1.394 . S
C448 H464 0.931 . S
C449 C448 1.391 . S
C449 C453 1.376 . S
C450 C448 1.394 . S
C450 C451 1.369 . S
C450 C454 1.531 . S
C451 C450 1.369 . S
C451 C452 1.410 . S
C451 C459 1.503 . S
C452 C451 1.410 . S
C452 C453 1.392 . S
C452 C455 1.511 . S
C453 C449 1.376 . S
C453 C452 1.392 . S
C453 H465 0.929 . S
C454 C450 1.531 . S
C454 H466 0.960 . S
C454 H467 0.962 . S
C454 H468 0.960 . S
C455 C452 1.511 . S
C455 H469 0.961 . S
C455 H470 0.961 . S
C455 H471 0.961 . S
C456 C457 1.370 . S
C456 C458 1.363 . S
C456 H472 0.931 . S
C457 C456 1.370 . S
C457 C461 1.408 . S
C458 C456 1.363 . S
C458 C459 1.370 . S
C458 C462 1.524 . S
C459 C451 1.503 . S
C459 C458 1.370 . S
C459 C460 1.403 . S
C460 C459 1.403 . S
C460 C461 1.404 . S
C460 C463 1.539 . S
C461 C457 1.408 . S
C461 C460 1.404 . S
C461 H473 0.930 . S
C462 C458 1.524 . S
C462 H474 0.956 . S
C462 H475 0.961 . S
C462 H476 0.961 . S
C463 C460 1.539 . S
C463 H477 0.958 . S
C463 H478 0.961 . S
C463 H479 0.960 . S
H464 C448 0.931 . S
H465 C453 0.929 . S
H466 C454 0.960 . S
H467 C454 0.962 . S
H468 C454 0.960 . S
H469 C455 0.961 . S
H470 C455 0.961 . S
H471 C455 0.961 . S
H472 C456 0.931 . S
H473 C461 0.930 . S
H474 C462 0.956 . S
H475 C462 0.961 . S
H476 C462 0.961 . S
H477 C463 0.958 . S
H478 C463 0.961 . S
H479 C463 0.960 . S
C480 C481 1.391 . S
C480 C482 1.394 . S
C480 H496 0.931 . S
C481 C480 1.391 . S
C481 C485 1.376 1_655 S
C482 C480 1.394 . S
C482 C483 1.369 . S
C482 C486 1.531 . S
C483 C482 1.369 . S
C483 C484 1.410 1_655 S
C483 C491 1.503 1_655 S
C484 C483 1.410 1_455 S
C484 C485 1.392 . S
C484 C487 1.511 . S
C485 C481 1.376 1_455 S
C485 C484 1.392 . S
C485 H497 0.929 . S
C486 C482 1.531 . S
C486 H498 0.960 . S
C486 H499 0.962 . S
C486 H500 0.960 . S
C487 C484 1.511 . S
C487 H501 0.961 . S
C487 H502 0.961 . S
C487 H503 0.961 . S
C488 C489 1.370 . S
C488 C490 1.363 . S
C488 H504 0.931 . S
C489 C488 1.370 . S
C489 C493 1.408 . S
C490 C488 1.363 . S
C490 C491 1.370 . S
C490 C494 1.524 1_455 S
C491 C483 1.503 1_455 S
C491 C490 1.370 . S
C491 C492 1.403 . S
C492 C491 1.403 . S
C492 C493 1.404 . S
C492 C495 1.539 . S
C493 C489 1.408 . S
C493 C492 1.404 . S
C493 H505 0.930 . S
C494 C490 1.524 1_655 S
C494 H506 0.956 . S
C494 H507 0.961 1_545 S
C494 H508 0.961 1_545 S
C495 C492 1.539 . S
C495 H509 0.958 . S
C495 H510 0.961 . S
C495 H511 0.960 . S
H496 C480 0.931 . S
H497 C485 0.929 . S
H498 C486 0.960 . S
H499 C486 0.962 . S
H500 C486 0.960 . S
H501 C487 0.961 . S
H502 C487 0.961 . S
H503 C487 0.961 . S
H504 C488 0.931 . S
H505 C493 0.930 . S
H506 C494 0.956 . S
H507 C494 0.961 1_565 S
H508 C494 0.961 1_565 S
H509 C495 0.958 . S
H510 C495 0.961 . S
H511 C495 0.960 . S
C512 C513 1.391 . S
C512 C514 1.394 . S
C512 H528 0.931 . S
C513 C512 1.391 . S
C513 C517 1.376 . S
C514 C512 1.394 . S
C514 C515 1.369 . S
C514 C518 1.531 . S
C515 C514 1.369 . S
C515 C516 1.410 . S
C515 C523 1.503 . S
C516 C515 1.410 . S
C516 C517 1.392 . S
C516 C519 1.511 . S
C517 C513 1.376 . S
C517 C516 1.392 . S
C517 H529 0.929 . S
C518 C514 1.531 . S
C518 H530 0.960 . S
C518 H531 0.962 . S
C518 H532 0.960 1_565 S
C519 C516 1.511 . S
C519 H533 0.961 . S
C519 H534 0.961 . S
C519 H535 0.961 . S
C520 C521 1.370 . S
C520 C522 1.363 . S
C520 H536 0.931 . S
C521 C520 1.370 . S
C521 C525 1.408 . S
C522 C520 1.363 . S
C522 C523 1.370 . S
C522 C526 1.524 . S
C523 C515 1.503 . S
C523 C522 1.370 . S
C523 C524 1.403 . S
C524 C523 1.403 . S
C524 C525 1.404 . S
C524 C527 1.550 . S
C525 C521 1.408 . S
C525 C524 1.404 . S
C525 H537 0.930 . S
C526 C522 1.524 . S
C526 H538 0.956 . S
C526 H539 0.961 . S
C526 H540 0.961 . S
C527 C524 1.550 . S
C527 H541 0.945 1_565 S
C527 H542 0.959 1_565 S
C527 H543 0.965 . S
H528 C512 0.931 . S
H529 C517 0.929 . S
H530 C518 0.960 . S
H531 C518 0.962 . S
H532 C518 0.960 1_545 S
H533 C519 0.961 . S
H534 C519 0.961 . S
H535 C519 0.961 . S
H536 C520 0.931 . S
H537 C525 0.930 . S
H538 C526 0.956 . S
H539 C526 0.961 . S
H540 C526 0.961 . S
H541 C527 0.945 1_545 S
H542 C527 0.959 1_545 S
H543 C527 0.965 . S
C544 C545 1.391 . S
C544 C546 1.394 1_455 S
C544 H560 0.931 1_455 S
C545 C544 1.391 . S
C545 C549 1.376 . S
C546 C544 1.394 1_655 S
C546 C547 1.369 1_655 S
C546 C550 1.531 . S
C547 C546 1.369 1_455 S
C547 C548 1.410 . S
C547 C555 1.503 1_455 S
C548 C547 1.410 . S
C548 C549 1.392 . S
C548 C551 1.511 . S
C549 C545 1.376 . S
C549 C548 1.392 . S
C549 H561 0.929 . S
C550 C546 1.531 . S
C550 H562 0.960 . S
C550 H563 0.962 . S
C550 H564 0.960 . S
C551 C548 1.511 . S
C551 H565 0.961 . S
C551 H566 0.961 . S
C551 H567 0.961 . S
C552 C553 1.370 . S
C552 C554 1.363 . S
C552 H568 0.931 . S
C553 C552 1.370 . S
C553 C557 1.408 . S
C554 C552 1.363 . S
C554 C555 1.370 . S
C554 C558 1.524 . S
C555 C547 1.503 1_655 S
C555 C554 1.370 . S
C555 C556 1.403 1_655 S
C556 C555 1.403 1_455 S
C556 C557 1.404 1_455 S
C556 C559 1.539 . S
C557 C553 1.408 . S
C557 C556 1.404 1_655 S
C557 H569 0.924 1_655 S
C558 C554 1.524 . S
C558 H570 0.956 . S
C558 H571 0.961 1_565 S
C558 H572 0.961 1_565 S
C559 C556 1.539 . S
C559 H573 0.958 . S
C559 H574 0.961 . S
C559 H575 0.960 . S
H560 C544 0.931 1_655 S
H561 C549 0.929 . S
H562 C550 0.960 . S
H563 C550 0.962 . S
H564 C550 0.960 . S
H565 C551 0.961 . S
H566 C551 0.961 . S
H567 C551 0.961 . S
H568 C552 0.931 . S
H569 C557 0.924 1_455 S
H570 C558 0.956 . S
H571 C558 0.961 1_545 S
H572 C558 0.961 1_545 S
H573 C559 0.958 . S
H574 C559 0.961 . S
H575 C559 0.960 . S
C576 C577 1.391 . S
C576 C578 1.394 . S
C576 H592 0.931 . S
C577 C576 1.391 . S
C577 C581 1.376 . S
C578 C576 1.394 . S
C578 C579 1.369 . S
C578 C582 1.531 . S
C579 C578 1.369 . S
C579 C580 1.410 . S
C579 C587 1.503 . S
C580 C579 1.410 . S
C580 C581 1.392 . S
C580 C583 1.511 . S
C581 C577 1.376 . S
C581 C580 1.392 . S
C581 H593 0.929 . S
C582 C578 1.531 . S
C582 H594 0.960 . S
C582 H595 0.962 . S
C582 H596 0.960 . S
C583 C580 1.511 . S
C583 H597 0.952 1_545 S
C583 H598 0.961 . S
C583 H599 0.961 . S
C584 C585 1.370 . S
C584 C586 1.363 . S
C584 H600 0.931 . S
C585 C584 1.370 . S
C585 C589 1.408 . S
C586 C584 1.363 . S
C586 C587 1.370 . S
C586 C590 1.524 . S
C587 C579 1.503 . S
C587 C586 1.370 . S
C587 C588 1.403 . S
C588 C587 1.403 . S
C588 C589 1.404 . S
C588 C591 1.539 . S
C589 C585 1.408 . S
C589 C588 1.404 . S
C589 H601 0.930 . S
C590 C586 1.524 . S
C590 H602 0.956 . S
C590 H603 0.961 . S
C590 H604 0.961 1_545 S
C591 C588 1.539 . S
C591 H605 0.958 . S
C591 H606 0.961 . S
C591 H607 0.960 . S
H592 C576 0.931 . S
H593 C581 0.929 . S
H594 C582 0.960 . S
H595 C582 0.962 . S
H596 C582 0.960 . S
H597 C583 0.952 1_565 S
H598 C583 0.961 . S
H599 C583 0.961 . S
H600 C584 0.931 . S
H601 C589 0.930 . S
H602 C590 0.956 . S
H603 C590 0.961 . S
H604 C590 0.961 1_565 S
H605 C591 0.958 . S
H606 C591 0.961 . S
H607 C591 0.960 . S
C608 C609 1.391 . S
C608 C610 1.394 . S
C608 H624 0.931 . S
C609 C608 1.391 . S
C609 C613 1.376 . S
C610 C608 1.394 . S
C610 C611 1.369 . S
C610 C614 1.531 . S
C611 C610 1.369 . S
C611 C612 1.410 . S
C611 C619 1.503 . S
C612 C611 1.410 . S
C612 C613 1.392 . S
C612 C615 1.511 . S
C613 C609 1.376 . S
C613 C612 1.392 . S
C613 H625 0.929 . S
C614 C610 1.531 . S
C614 H626 0.960 . S
C614 H627 0.962 . S
C614 H628 0.960 . S
C615 C612 1.511 . S
C615 H629 0.961 . S
C615 H630 0.961 . S
C615 H631 0.961 . S
C616 C617 1.370 . S
C616 C618 1.363 . S
C616 H632 0.931 . S
C617 C616 1.370 . S
C617 C621 1.408 . S
C618 C616 1.363 . S
C618 C619 1.370 . S
C618 C622 1.524 . S
C619 C611 1.503 . S
C619 C618 1.370 . S
C619 C620 1.403 . S
C620 C619 1.403 . S
C620 C621 1.404 . S
C620 C623 1.539 . S
C621 C617 1.408 . S
C621 C620 1.404 . S
C621 H633 0.930 . S
C622 C618 1.524 . S
C622 H634 0.956 . S
C622 H635 0.961 . S
C622 H636 0.961 . S
C623 C620 1.539 . S
C623 H637 0.958 . S
C623 H638 0.961 . S
C623 H639 0.960 . S
H624 C608 0.931 . S
H625 C613 0.929 . S
H626 C614 0.960 . S
H627 C614 0.962 . S
H628 C614 0.960 . S
H629 C615 0.961 . S
H630 C615 0.961 . S
H631 C615 0.961 . S
H632 C616 0.931 . S
H633 C621 0.930 . S
H634 C622 0.956 . S
H635 C622 0.961 . S
H636 C622 0.961 . S
H637 C623 0.958 . S
H638 C623 0.961 . S
H639 C623 0.960 . S
C640 C641 1.391 . S
C640 C642 1.394 1_455 S
C640 H656 0.931 1_455 S
C641 C640 1.391 . S
C641 C645 1.376 . S
C642 C640 1.394 1_655 S
C642 C643 1.369 1_655 S
C642 C646 1.531 . S
C643 C642 1.369 1_455 S
C643 C644 1.410 . S
C643 C651 1.503 1_455 S
C644 C643 1.410 . S
C644 C645 1.392 . S
C644 C647 1.511 . S
C645 C641 1.376 . S
C645 C644 1.392 . S
C645 H657 0.929 . S
C646 C642 1.531 . S
C646 H658 0.960 . S
C646 H659 0.962 . S
C646 H660 0.960 . S
C647 C644 1.511 . S
C647 H661 0.961 . S
C647 H662 0.961 . S
C647 H663 0.961 . S
C648 C649 1.370 . S
C648 C650 1.363 . S
C648 H664 0.931 . S
C649 C648 1.370 . S
C649 C653 1.395 1_655 S
C650 C648 1.363 . S
C650 C651 1.370 . S
C650 C654 1.524 . S
C651 C643 1.503 1_655 S
C651 C650 1.370 . S
C651 C652 1.403 1_655 S
C652 C651 1.403 1_455 S
C652 C653 1.410 . S
C652 C655 1.539 . S
C653 C649 1.395 1_455 S
C653 C652 1.410 . S
C653 H665 0.937 . S
C654 C650 1.524 . S
C654 H666 0.956 . S
C654 H667 0.961 . S
C654 H668 0.961 . S
C655 C652 1.539 . S
C655 H669 0.958 . S
C655 H670 0.961 . S
C655 H671 0.960 . S
H656 C640 0.931 1_655 S
H657 C645 0.929 . S
H658 C646 0.960 . S
H659 C646 0.962 . S
H660 C646 0.960 . S
H661 C647 0.961 . S
H662 C647 0.961 . S
H663 C647 0.961 . S
H664 C648 0.931 . S
H665 C653 0.937 . S
H666 C654 0.956 . S
H667 C654 0.961 . S
H668 C654 0.961 . S
H669 C655 0.958 . S
H670 C655 0.961 . S
H671 C655 0.960 . S
C672 C673 1.391 . S
C672 C674 1.394 . S
C672 H688 0.931 . S
C673 C672 1.391 . S
C673 C677 1.376 . S
C674 C672 1.394 . S
C674 C675 1.369 . S
C674 C678 1.531 . S
C675 C674 1.369 . S
C675 C676 1.410 . S
C675 C683 1.503 . S
C676 C675 1.410 . S
C676 C677 1.392 . S
C676 C679 1.511 . S
C677 C673 1.376 . S
C677 C676 1.392 . S
C677 H689 0.929 . S
C678 C674 1.531 . S
C678 H690 0.960 . S
C678 H691 0.962 . S
C678 H692 0.960 . S
C679 C676 1.511 . S
C679 H693 0.961 . S
C679 H694 0.961 . S
C679 H695 0.961 . S
C680 C681 1.370 . S
C680 C682 1.363 . S
C680 H696 0.931 . S
C681 C680 1.370 . S
C681 C685 1.408 . S
C682 C680 1.363 . S
C682 C683 1.370 . S
C682 C686 1.524 . S
C683 C675 1.503 . S
C683 C682 1.370 . S
C683 C684 1.403 . S
C684 C683 1.403 . S
C684 C685 1.404 . S
C684 C687 1.539 . S
C685 C681 1.408 . S
C685 C684 1.404 . S
C685 H697 0.930 . S
C686 C682 1.524 . S
C686 H698 0.956 . S
C686 H699 0.961 . S
C686 H700 0.961 . S
C687 C684 1.539 . S
C687 H701 0.958 . S
C687 H702 0.961 . S
C687 H703 0.960 . S
H688 C672 0.931 . S
H689 C677 0.929 . S
H690 C678 0.960 . S
H691 C678 0.962 . S
H692 C678 0.960 . S
H693 C679 0.961 . S
H694 C679 0.961 . S
H695 C679 0.961 . S
H696 C680 0.931 . S
H697 C685 0.930 . S
H698 C686 0.956 . S
H699 C686 0.961 . S
H700 C686 0.961 . S
H701 C687 0.958 . S
H702 C687 0.961 . S
H703 C687 0.960 . S
C704 C705 1.391 . S
C704 C706 1.394 1_455 S
C704 H720 0.931 1_455 S
C705 C704 1.391 . S
C705 C709 1.376 . S
C706 C704 1.394 1_655 S
C706 C707 1.369 1_655 S
C706 C710 1.531 . S
C707 C706 1.369 1_455 S
C707 C708 1.410 . S
C707 C715 1.503 1_455 S
C708 C707 1.410 . S
C708 C709 1.392 . S
C708 C711 1.511 . S
C709 C705 1.376 . S
C709 C708 1.392 . S
C709 H721 0.929 . S
C710 C706 1.531 . S
C710 H722 0.960 . S
C710 H723 0.962 . S
C710 H724 0.960 . S
C711 C708 1.511 . S
C711 H725 0.961 . S
C711 H726 0.961 . S
C711 H727 0.961 . S
C712 C713 1.370 . S
C712 C714 1.363 . S
C712 H728 0.931 . S
C713 C712 1.370 . S
C713 C717 1.408 . S
C714 C712 1.363 . S
C714 C715 1.370 . S
C714 C718 1.524 . S
C715 C707 1.503 1_655 S
C715 C714 1.370 . S
C715 C716 1.403 1_655 S
C716 C715 1.403 1_455 S
C716 C717 1.404 1_455 S
C716 C719 1.539 . S
C717 C713 1.408 . S
C717 C716 1.404 1_655 S
C717 H729 0.930 1_655 S
C718 C714 1.524 . S
C718 H730 0.956 . S
C718 H731 0.961 . S
C718 H732 0.961 . S
C719 C716 1.539 . S
C719 H733 0.958 . S
C719 H734 0.961 . S
C719 H735 0.960 . S
H720 C704 0.931 1_655 S
H721 C709 0.929 . S
H722 C710 0.960 . S
H723 C710 0.962 . S
H724 C710 0.960 . S
H725 C711 0.961 . S
H726 C711 0.961 . S
H727 C711 0.961 . S
H728 C712 0.931 . S
H729 C717 0.930 1_455 S
H730 C718 0.956 . S
H731 C718 0.961 . S
H732 C718 0.961 . S
H733 C719 0.958 . S
H734 C719 0.961 . S
H735 C719 0.960 . S
C736 C737 1.391 . S
C736 C738 1.389 1_455 S
C736 H752 0.930 1_455 S
C737 C736 1.391 . S
C737 C741 1.376 . S
C738 C736 1.389 1_655 S
C738 C739 1.362 1_655 S
C738 C742 1.543 . S
C739 C738 1.362 1_455 S
C739 C740 1.410 . S
C739 C747 1.503 1_455 S
C740 C739 1.410 . S
C740 C741 1.392 . S
C740 C743 1.511 . S
C741 C737 1.376 . S
C741 C740 1.392 . S
C741 H753 0.929 . S
C742 C738 1.543 . S
C742 H754 0.960 . S
C742 H755 0.962 . S
C742 H756 0.960 . S
C743 C740 1.511 . S
C743 H757 0.961 . S
C743 H758 0.961 . S
C743 H759 0.961 . S
C744 C745 1.370 . S
C744 C746 1.363 . S
C744 H760 0.931 . S
C745 C744 1.370 . S
C745 C749 1.408 1_655 S
C746 C744 1.363 . S
C746 C747 1.370 . S
C746 C750 1.524 . S
C747 C739 1.503 1_655 S
C747 C746 1.370 . S
C747 C748 1.403 1_655 S
C748 C747 1.403 1_455 S
C748 C749 1.404 . S
C748 C751 1.539 . S
C749 C745 1.408 1_455 S
C749 C748 1.404 . S
C749 H761 0.930 . S
C750 C746 1.524 . S
C750 H762 0.956 . S
C750 H763 0.961 . S
C750 H764 0.961 . S
C751 C748 1.539 . S
C751 H765 0.958 . S
C751 H766 0.961 . S
C751 H767 0.960 . S
H752 C736 0.930 1_655 S
H753 C741 0.929 . S
H754 C742 0.960 . S
H755 C742 0.962 . S
H756 C742 0.960 . S
H757 C743 0.961 . S
H758 C743 0.961 . S
H759 C743 0.961 . S
H760 C744 0.931 . S
H761 C749 0.930 . S
H762 C750 0.956 . S
H763 C750 0.961 . S
H764 C750 0.961 . S
H765 C751 0.958 . S
H766 C751 0.961 . S
H767 C751 0.960 . S
C768 C769 1.391 . S
C768 C770 1.394 . S
C768 H784 0.931 . S
C769 C768 1.391 . S
C769 C773 1.376 . S
C770 C768 1.394 . S
C770 C771 1.369 . S
C770 C774 1.531 . S
C771 C770 1.369 . S
C771 C772 1.410 . S
C771 C779 1.503 . S
C772 C771 1.410 . S
C772 C773 1.392 . S
C772 C775 1.511 . S
C773 C769 1.376 . S
C773 C772 1.392 . S
C773 H785 0.929 . S
C774 C770 1.531 . S
C774 H786 0.960 . S
C774 H787 0.962 . S
C774 H788 0.960 . S
C775 C772 1.511 . S
C775 H789 0.961 . S
C775 H790 0.961 . S
C775 H791 0.961 . S
C776 C777 1.370 . S
C776 C778 1.363 . S
C776 H792 0.931 . S
C777 C776 1.370 . S
C777 C781 1.408 . S
C778 C776 1.363 . S
C778 C779 1.370 . S
C778 C782 1.524 . S
C779 C771 1.503 . S
C779 C778 1.370 . S
C779 C780 1.403 . S
C780 C779 1.403 . S
C780 C781 1.404 . S
C780 C783 1.539 . S
C781 C777 1.408 . S
C781 C780 1.404 . S
C781 H793 0.930 . S
C782 C778 1.524 . S
C782 H794 0.956 . S
C782 H795 0.961 . S
C782 H796 0.961 . S
C783 C780 1.539 . S
C783 H797 0.958 . S
C783 H798 0.961 . S
C783 H799 0.960 . S
H784 C768 0.931 . S
H785 C773 0.929 . S
H786 C774 0.960 . S
H787 C774 0.962 . S
H788 C774 0.960 . S
H789 C775 0.961 . S
H790 C775 0.961 . S
H791 C775 0.961 . S
H792 C776 0.931 . S
H793 C781 0.930 . S
H794 C782 0.956 . S
H795 C782 0.961 . S
H796 C782 0.961 . S
H797 C783 0.958 . S
H798 C783 0.961 . S
H799 C783 0.960 . S
C800 C801 1.391 . S
C800 C802 1.394 . S
C800 H816 0.931 . S
C801 C800 1.391 . S
C801 C805 1.376 . S
C802 C800 1.394 . S
C802 C803 1.369 . S
C802 C806 1.531 . S
C803 C802 1.369 . S
C803 C804 1.410 . S
C803 C811 1.503 . S
C804 C803 1.410 . S
C804 C805 1.392 . S
C804 C807 1.511 . S
C805 C801 1.376 . S
C805 C804 1.392 . S
C805 H817 0.929 . S
C806 C802 1.531 . S
C806 H818 0.960 . S
C806 H819 0.962 . S
C806 H820 0.960 . S
C807 C804 1.511 . S
C807 H821 0.961 . S
C807 H822 0.961 . S
C807 H823 0.961 . S
C808 C809 1.370 . S
C808 C810 1.363 . S
C808 H824 0.931 . S
C809 C808 1.370 . S
C809 C813 1.408 . S
C810 C808 1.363 . S
C810 C811 1.370 . S
C810 C814 1.524 . S
C811 C803 1.503 . S
C811 C810 1.370 . S
C811 C812 1.403 . S
C812 C811 1.403 . S
C812 C813 1.404 . S
C812 C815 1.539 . S
C813 C809 1.408 . S
C813 C812 1.404 . S
C813 H825 0.930 . S
C814 C810 1.524 . S
C814 H826 0.956 . S
C814 H827 0.961 . S
C814 H828 0.961 . S
C815 C812 1.539 . S
C815 H829 0.958 . S
C815 H830 0.961 . S
C815 H831 0.960 . S
H816 C800 0.931 . S
H817 C805 0.929 . S
H818 C806 0.960 . S
H819 C806 0.962 . S
H820 C806 0.960 . S
H821 C807 0.961 . S
H822 C807 0.961 . S
H823 C807 0.961 . S
H824 C808 0.931 . S
H825 C813 0.930 . S
H826 C814 0.956 . S
H827 C814 0.961 . S
H828 C814 0.961 . S
H829 C815 0.958 . S
H830 C815 0.961 . S
H831 C815 0.960 . S
C832 C833 1.391 . S
C832 C834 1.394 1_455 S
C832 H848 0.931 1_455 S
C833 C832 1.391 . S
C833 C837 1.376 . S
C834 C832 1.394 1_655 S
C834 C835 1.369 1_655 S
C834 C838 1.531 . S
C835 C834 1.369 1_455 S
C835 C836 1.410 . S
C835 C843 1.503 1_455 S
C836 C835 1.410 . S
C836 C837 1.392 . S
C836 C839 1.511 . S
C837 C833 1.376 . S
C837 C836 1.392 . S
C837 H849 0.929 . S
C838 C834 1.531 . S
C838 H850 0.960 . S
C838 H851 0.962 . S
C838 H852 0.960 . S
C839 C836 1.511 . S
C839 H853 0.961 . S
C839 H854 0.961 . S
C839 H855 0.961 . S
C840 C841 1.370 . S
C840 C842 1.363 . S
C840 H856 0.931 . S
C841 C840 1.370 . S
C841 C845 1.408 1_655 S
C842 C840 1.363 . S
C842 C843 1.370 . S
C842 C846 1.524 . S
C843 C835 1.503 1_655 S
C843 C842 1.370 . S
C843 C844 1.403 1_655 S
C844 C843 1.403 1_455 S
C844 C845 1.404 . S
C844 C847 1.539 . S
C845 C841 1.408 1_455 S
C845 C844 1.404 . S
C845 H857 0.930 . S
C846 C842 1.524 . S
C846 H858 0.956 . S
C846 H859 0.961 . S
C846 H860 0.961 . S
C847 C844 1.539 . S
C847 H861 0.958 . S
C847 H862 0.961 . S
C847 H863 0.960 . S
H848 C832 0.931 1_655 S
H849 C837 0.929 . S
H850 C838 0.960 . S
H851 C838 0.962 . S
H852 C838 0.960 . S
H853 C839 0.961 . S
H854 C839 0.961 . S
H855 C839 0.961 . S
H856 C840 0.931 . S
H857 C845 0.930 . S
H858 C846 0.956 . S
H859 C846 0.961 . S
H860 C846 0.961 . S
H861 C847 0.958 . S
H862 C847 0.961 . S
H863 C847 0.960 . S
C864 C865 1.391 . S
C864 C866 1.394 . S
C864 H880 0.931 . S
C865 C864 1.391 . S
C865 C869 1.376 1_455 S
C866 C864 1.394 . S
C866 C867 1.369 . S
C866 C870 1.531 . S
C867 C866 1.369 . S
C867 C868 1.410 1_455 S
C867 C875 1.503 1_455 S
C868 C867 1.410 1_655 S
C868 C869 1.392 . S
C868 C871 1.511 . S
C869 C865 1.376 1_655 S
C869 C868 1.392 . S
C869 H881 0.929 . S
C870 C866 1.531 . S
C870 H882 0.960 . S
C870 H883 0.962 . S
C870 H884 0.960 . S
C871 C868 1.511 . S
C871 H885 0.961 . S
C871 H886 0.961 . S
C871 H887 0.961 . S
C872 C873 1.370 . S
C872 C874 1.363 . S
C872 H888 0.931 . S
C873 C872 1.370 . S
C873 C877 1.408 . S
C874 C872 1.363 . S
C874 C875 1.370 . S
C874 C878 1.524 1_655 S
C875 C867 1.503 1_655 S
C875 C874 1.370 . S
C875 C876 1.403 . S
C876 C875 1.403 . S
C876 C877 1.404 . S
C876 C879 1.539 . S
C877 C873 1.408 . S
C877 C876 1.404 . S
C877 H889 0.930 . S
C878 C874 1.524 1_455 S
C878 H890 0.956 . S
C878 H891 0.961 . S
C878 H892 0.961 . S
C879 C876 1.539 . S
C879 H893 0.958 . S
C879 H894 0.961 . S
C879 H895 0.960 . S
H880 C864 0.931 . S
H881 C869 0.929 . S
H882 C870 0.960 . S
H883 C870 0.962 . S
H884 C870 0.960 . S
H885 C871 0.961 . S
H886 C871 0.961 . S
H887 C871 0.961 . S
H888 C872 0.931 . S
H889 C877 0.930 . S
H890 C878 0.956 . S
H891 C878 0.961 . S
H892 C878 0.961 . S
H893 C879 0.958 . S
H894 C879 0.961 . S
H895 C879 0.960 . S
C896 C897 1.391 . S
C896 C898 1.394 . S
C896 H912 0.931 . S
C897 C896 1.391 . S
C897 C901 1.376 . S
C898 C896 1.394 . S
C898 C899 1.369 . S
C898 C902 1.531 . S
C899 C898 1.369 . S
C899 C900 1.410 . S
C899 C907 1.503 . S
C900 C899 1.410 . S
C900 C901 1.392 . S
C900 C903 1.511 . S
C901 C897 1.376 . S
C901 C900 1.392 . S
C901 H913 0.929 . S
C902 C898 1.531 . S
C902 H914 0.960 . S
C902 H915 0.962 . S
C902 H916 0.960 . S
C903 C900 1.511 . S
C903 H917 0.961 . S
C903 H918 0.961 . S
C903 H919 0.961 . S
C904 C905 1.370 . S
C904 C906 1.363 . S
C904 H920 0.931 . S
C905 C904 1.370 . S
C905 C909 1.408 . S
C906 C904 1.363 . S
C906 C907 1.370 . S
C906 C910 1.524 . S
C907 C899 1.503 . S
C907 C906 1.370 . S
C907 C908 1.403 . S
C908 C907 1.403 . S
C908 C909 1.404 . S
C908 C911 1.539 . S
C909 C905 1.408 . S
C909 C908 1.404 . S
C909 H921 0.930 . S
C910 C906 1.524 . S
C910 H922 0.956 . S
C910 H923 0.961 . S
C910 H924 0.961 . S
C911 C908 1.539 . S
C911 H925 0.958 . S
C911 H926 0.961 . S
C911 H927 0.960 . S
H912 C896 0.931 . S
H913 C901 0.929 . S
H914 C902 0.960 . S
H915 C902 0.962 . S
H916 C902 0.960 . S
H917 C903 0.961 . S
H918 C903 0.961 . S
H919 C903 0.961 . S
H920 C904 0.931 . S
H921 C909 0.930 . S
H922 C910 0.956 . S
H923 C910 0.961 . S
H924 C910 0.961 . S
H925 C911 0.958 . S
H926 C911 0.961 . S
H927 C911 0.960 . S
C928 C929 1.391 . S
C928 C930 1.394 . S
C928 H944 0.931 . S
C929 C928 1.391 . S
C929 C933 1.376 . S
C930 C928 1.394 . S
C930 C931 1.369 . S
C930 C934 1.531 . S
C931 C930 1.369 . S
C931 C932 1.410 . S
C931 C939 1.503 . S
C932 C931 1.410 . S
C932 C933 1.392 . S
C932 C935 1.511 . S
C933 C929 1.376 . S
C933 C932 1.392 . S
C933 H945 0.929 . S
C934 C930 1.531 . S
C934 H946 0.960 . S
C934 H947 0.962 . S
C934 H948 0.960 . S
C935 C932 1.511 . S
C935 H949 0.961 . S
C935 H950 0.961 . S
C935 H951 0.961 . S
C936 C937 1.370 . S
C936 C938 1.363 . S
C936 H952 0.931 . S
C937 C936 1.370 . S
C937 C941 1.408 . S
C938 C936 1.363 . S
C938 C939 1.370 . S
C938 C942 1.524 . S
C939 C931 1.503 . S
C939 C938 1.370 . S
C939 C940 1.403 . S
C940 C939 1.403 . S
C940 C941 1.404 . S
C940 C943 1.539 . S
C941 C937 1.408 . S
C941 C940 1.404 . S
C941 H953 0.930 . S
C942 C938 1.524 . S
C942 H954 0.956 . S
C942 H955 0.961 . S
C942 H956 0.961 . S
C943 C940 1.539 . S
C943 H957 0.958 . S
C943 H958 0.961 . S
C943 H959 0.960 . S
H944 C928 0.931 . S
H945 C933 0.929 . S
H946 C934 0.960 . S
H947 C934 0.962 . S
H948 C934 0.960 . S
H949 C935 0.961 . S
H950 C935 0.961 . S
H951 C935 0.961 . S
H952 C936 0.931 . S
H953 C941 0.930 . S
H954 C942 0.956 . S
H955 C942 0.961 . S
H956 C942 0.961 . S
H957 C943 0.958 . S
H958 C943 0.961 . S
H959 C943 0.960 . S
C960 C961 1.391 1_655 S
C960 C962 1.393 . S
C960 H976 0.930 . S
C961 C960 1.391 1_455 S
C961 C965 1.376 . S
C962 C960 1.393 . S
C962 C963 1.369 1_655 S
C962 C966 1.531 . S
C963 C962 1.369 1_455 S
C963 C964 1.410 . S
C963 C971 1.503 1_455 S
C964 C963 1.410 . S
C964 C965 1.392 . S
C964 C967 1.511 . S
C965 C961 1.376 . S
C965 C964 1.392 . S
C965 H977 0.929 . S
C966 C962 1.531 . S
C966 H978 0.960 . S
C966 H979 0.962 . S
C966 H980 0.960 . S
C967 C964 1.511 . S
C967 H981 0.961 . S
C967 H982 0.961 . S
C967 H983 0.961 . S
C968 C969 1.370 . S
C968 C970 1.363 . S
C968 H984 0.931 . S
C969 C968 1.370 . S
C969 C973 1.408 . S
C970 C968 1.363 . S
C970 C971 1.370 . S
C970 C974 1.524 . S
C971 C963 1.503 1_655 S
C971 C970 1.370 . S
C971 C972 1.403 1_655 S
C972 C971 1.403 1_455 S
C972 C973 1.404 1_455 S
C972 C975 1.539 . S
C973 C969 1.408 . S
C973 C972 1.404 1_655 S
C973 H985 0.930 1_655 S
C974 C970 1.524 . S
C974 H986 0.956 . S
C974 H987 0.961 . S
C974 H988 0.961 . S
C975 C972 1.539 . S
C975 H989 0.958 . S
C975 H990 0.961 . S
C975 H991 0.960 . S
H976 C960 0.930 . S
H977 C965 0.929 . S
H978 C966 0.960 . S
H979 C966 0.962 . S
H980 C966 0.960 . S
H981 C967 0.961 . S
H982 C967 0.961 . S
H983 C967 0.961 . S
H984 C968 0.931 . S
H985 C973 0.930 1_455 S
H986 C974 0.956 . S
H987 C974 0.961 . S
H988 C974 0.961 . S
H989 C975 0.958 . S
H990 C975 0.961 . S
H991 C975 0.960 . S
C992 C993 1.396 . S
C992 C994 1.392 1_665 S
C992 H1008 0.928 1_655 S
C993 C992 1.396 . S
C993 C997 1.376 . S
C994 C992 1.392 1_445 S
C994 C995 1.370 1_455 S
C994 C998 1.531 . S
C995 C994 1.370 1_655 S
C995 C996 1.407 1_545 S
C995 C1003 1.505 1_656 S
C996 C995 1.407 1_565 S
C996 C997 1.392 . S
C996 C999 1.511 1_556 S
C997 C993 1.376 . S
C997 C996 1.392 . S
C997 H1009 0.929 . S
C998 C994 1.531 . S
C998 H1010 0.960 . S
C998 H1011 0.962 . S
C998 H1012 0.960 . S
C999 C996 1.511 1_554 S
C999 H1013 0.961 . S
C999 H1014 0.961 . S
C999 H1015 0.961 . S
C1000 C1001 1.370 . S
C1000 C1002 1.363 1_545 S
C1000 H1016 0.931 1_545 S
C1001 C1000 1.370 . S
C1001 C1005 1.408 . S
C1002 C1000 1.363 1_565 S
C1002 C1003 1.370 1_565 S
C1002 C1006 1.524 . S
C1003 C995 1.505 1_454 S
C1003 C1002 1.370 1_545 S
C1003 C1004 1.403 1_455 S
C1004 C1003 1.403 1_655 S
C1004 C1005 1.404 1_655 S
C1004 C1007 1.539 . S
C1005 C1001 1.408 . S
C1005 C1004 1.404 1_455 S
C1005 H1017 0.930 1_455 S
C1006 C1002 1.524 . S
C1006 H1018 0.960 1_554 S
C1006 H1019 0.961 . S
C1006 H1020 0.961 . S
C1007 C1004 1.539 . S
C1007 H1021 0.958 1_554 S
C1007 H1022 0.961 . S
C1007 H1023 0.960 1_554 S
H1008 C992 0.928 1_455 S
H1009 C997 0.929 . S
H1010 C998 0.960 . S
H1011 C998 0.962 . S
H1012 C998 0.960 . S
H1013 C999 0.961 . S
H1014 C999 0.961 . S
H1015 C999 0.961 . S
H1016 C1000 0.931 1_565 S
H1017 C1005 0.930 1_655 S
H1018 C1006 0.960 1_556 S
H1019 C1006 0.961 . S
H1020 C1006 0.961 . S
H1021 C1007 0.958 1_556 S
H1022 C1007 0.961 . S
H1023 C1007 0.960 1_556 S
C1024 C1025 1.391 . S
C1024 C1026 1.394 . S
C1024 H1040 0.931 . S
C1025 C1024 1.391 . S
C1025 C1029 1.376 . S
C1026 C1024 1.394 . S
C1026 C1027 1.361 1_545 S
C1026 C1030 1.531 . S
C1027 C1026 1.361 1_565 S
C1027 C1028 1.406 1_565 S
C1027 C1035 1.513 1_556 S
C1028 C1027 1.406 1_545 S
C1028 C1029 1.392 . S
C1028 C1031 1.524 1_545 S
C1029 C1025 1.376 . S
C1029 C1028 1.392 . S
C1029 H1041 0.929 . S
C1030 C1026 1.531 . S
C1030 H1042 0.960 1_545 S
C1030 H1043 0.962 . S
C1030 H1044 0.960 1_545 S
C1031 C1028 1.524 1_565 S
C1031 H1045 0.963 1_565 S
C1031 H1046 0.944 1_556 S
C1031 H1047 0.963 . S
C1032 C1033 1.370 1_545 S
C1032 C1034 1.363 . S
C1032 H1048 0.931 . S
C1033 C1032 1.370 1_565 S
C1033 C1037 1.408 . S
C1034 C1032 1.363 . S
C1034 C1035 1.370 1_545 S
C1034 C1038 1.524 . S
C1035 C1027 1.513 1_554 S
C1035 C1034 1.370 1_565 S
C1035 C1036 1.403 . S
C1036 C1035 1.403 . S
C1036 C1037 1.404 . S
C1036 C1039 1.539 1_554 S
C1037 C1033 1.408 . S
C1037 C1036 1.404 . S
C1037 H1049 0.930 . S
C1038 C1034 1.524 . S
C1038 H1050 0.956 . S
C1038 H1051 0.961 . S
C1038 H1052 0.961 . S
C1039 C1036 1.539 1_556 S
C1039 H1053 0.958 . S
C1039 H1054 0.961 1_556 S
C1039 H1055 0.960 . S
H1040 C1024 0.931 . S
H1041 C1029 0.929 . S
H1042 C1030 0.960 1_565 S
H1043 C1030 0.962 . S
H1044 C1030 0.960 1_565 S
H1045 C1031 0.963 1_545 S
H1046 C1031 0.944 1_554 S
H1047 C1031 0.963 . S
H1048 C1032 0.931 . S
H1049 C1037 0.930 . S
H1050 C1038 0.956 . S
H1051 C1038 0.961 . S
H1052 C1038 0.961 . S
H1053 C1039 0.958 . S
H1054 C1039 0.961 1_554 S
H1055 C1039 0.960 . S
C1056 C1057 1.391 . S
C1056 C1058 1.394 . S
C1056 H1072 0.931 . S
C1057 C1056 1.391 . S
C1057 C1061 1.376 . S
C1058 C1056 1.394 . S
C1058 C1059 1.369 . S
C1058 C1062 1.531 . S
C1059 C1058 1.369 . S
C1059 C1060 1.410 . S
C1059 C1067 1.503 1_545 S
C1060 C1059 1.410 . S
C1060 C1061 1.392 . S
C1060 C1063 1.511 1_545 S
C1061 C1057 1.376 . S
C1061 C1060 1.392 . S
C1061 H1073 0.929 . S
C1062 C1058 1.531 . S
C1062 H1074 0.960 . S
C1062 H1075 0.962 . S
C1062 H1076 0.960 . S
C1063 C1060 1.511 1_565 S
C1063 H1077 0.961 . S
C1063 H1078 0.961 . S
C1063 H1079 0.961 1_565 S
C1064 C1065 1.370 . S
C1064 C1066 1.363 . S
C1064 H1080 0.931 . S
C1065 C1064 1.370 . S
C1065 C1069 1.408 1_565 S
C1066 C1064 1.363 . S
C1066 C1067 1.370 . S
C1066 C1070 1.524 . S
C1067 C1059 1.503 1_565 S
C1067 C1066 1.370 . S
C1067 C1068 1.403 1_565 S
C1068 C1067 1.403 1_545 S
C1068 C1069 1.404 . S
C1068 C1071 1.539 . S
C1069 C1065 1.408 1_545 S
C1069 C1068 1.404 . S
C1069 H1081 0.930 . S
C1070 C1066 1.524 . S
C1070 H1082 0.956 . S
C1070 H1083 0.961 . S
C1070 H1084 0.961 . S
C1071 C1068 1.539 . S
C1071 H1085 0.958 . S
C1071 H1086 0.961 . S
C1071 H1087 0.960 . S
H1072 C1056 0.931 . S
H1073 C1061 0.929 . S
H1074 C1062 0.960 . S
H1075 C1062 0.962 . S
H1076 C1062 0.960 . S
H1077 C1063 0.961 . S
H1078 C1063 0.961 . S
H1079 C1063 0.961 1_545 S
H1080 C1064 0.931 . S
H1081 C1069 0.930 . S
H1082 C1070 0.956 . S
H1083 C1070 0.961 . S
H1084 C1070 0.961 . S
H1085 C1071 0.958 . S
H1086 C1071 0.961 . S
H1087 C1071 0.960 . S
C1088 C1089 1.391 . S
C1088 C1090 1.394 1_465 S
C1088 H1104 0.922 1_465 S
C1089 C1088 1.391 . S
C1089 C1093 1.376 . S
C1090 C1088 1.394 1_645 S
C1090 C1091 1.368 1_655 S
C1090 C1094 1.531 . S
C1091 C1090 1.368 1_455 S
C1091 C1092 1.411 1_545 S
C1091 C1099 1.502 1_455 S
C1092 C1091 1.411 1_565 S
C1092 C1093 1.392 . S
C1092 C1095 1.511 . S
C1093 C1089 1.376 . S
C1093 C1092 1.392 . S
C1093 H1105 0.929 . S
C1094 C1090 1.531 . S
C1094 H1106 0.960 . S
C1094 H1107 0.962 . S
C1094 H1108 0.960 . S
C1095 C1092 1.511 . S
C1095 H1109 0.961 . S
C1095 H1110 0.961 . S
C1095 H1111 0.961 . S
C1096 C1097 1.370 . S
C1096 C1098 1.363 1_545 S
C1096 H1112 0.931 1_545 S
C1097 C1096 1.370 . S
C1097 C1101 1.408 . S
C1098 C1096 1.363 1_565 S
C1098 C1099 1.370 1_565 S
C1098 C1102 1.524 . S
C1099 C1091 1.502 1_655 S
C1099 C1098 1.370 1_545 S
C1099 C1100 1.403 1_655 S
C1100 C1099 1.403 1_455 S
C1100 C1101 1.404 1_455 S
C1100 C1103 1.539 . S
C1101 C1097 1.408 . S
C1101 C1100 1.404 1_655 S
C1101 H1113 0.930 1_655 S
C1102 C1098 1.524 . S
C1102 H1114 0.956 . S
C1102 H1115 0.961 . S
C1102 H1116 0.961 . S
C1103 C1100 1.539 . S
C1103 H1117 0.958 . S
C1103 H1118 0.961 . S
C1103 H1119 0.960 . S
H1104 C1088 0.922 1_645 S
H1105 C1093 0.929 . S
H1106 C1094 0.960 . S
H1107 C1094 0.962 . S
H1108 C1094 0.960 . S
H1109 C1095 0.961 . S
H1110 C1095 0.961 . S
H1111 C1095 0.961 . S
H1112 C1096 0.931 1_565 S
H1113 C1101 0.930 1_455 S
H1114 C1102 0.956 . S
H1115 C1102 0.961 . S
H1116 C1102 0.961 . S
H1117 C1103 0.958 . S
H1118 C1103 0.961 . S
H1119 C1103 0.960 . S
C1120 C1121 1.391 . S
C1120 C1122 1.394 . S
C1120 H1136 0.931 . S
C1121 C1120 1.391 . S
C1121 C1125 1.376 . S
C1122 C1120 1.394 . S
C1122 C1123 1.369 . S
C1122 C1126 1.531 . S
C1123 C1122 1.369 . S
C1123 C1124 1.410 . S
C1123 C1131 1.503 1_554 S
C1124 C1123 1.410 . S
C1124 C1125 1.392 . S
C1124 C1127 1.511 . S
C1125 C1121 1.376 . S
C1125 C1124 1.392 . S
C1125 H1137 0.929 . S
C1126 C1122 1.531 . S
C1126 H1138 0.960 . S
C1126 H1139 0.962 . S
C1126 H1140 0.960 . S
C1127 C1124 1.511 . S
C1127 H1141 0.961 . S
C1127 H1142 0.961 1_554 S
C1127 H1143 0.961 . S
C1128 C1129 1.370 . S
C1128 C1130 1.363 . S
C1128 H1144 0.931 . S
C1129 C1128 1.370 . S
C1129 C1133 1.408 . S
C1130 C1128 1.363 . S
C1130 C1131 1.370 . S
C1130 C1134 1.524 . S
C1131 C1123 1.503 1_556 S
C1131 C1130 1.370 . S
C1131 C1132 1.403 . S
C1132 C1131 1.403 . S
C1132 C1133 1.404 . S
C1132 C1135 1.539 1_556 S
C1133 C1129 1.408 . S
C1133 C1132 1.404 . S
C1133 H1145 0.930 . S
C1134 C1130 1.524 . S
C1134 H1146 0.956 . S
C1134 H1147 0.961 . S
C1134 H1148 0.961 . S
C1135 C1132 1.539 1_554 S
C1135 H1149 0.958 . S
C1135 H1150 0.961 . S
C1135 H1151 0.960 . S
H1136 C1120 0.931 . S
H1137 C1125 0.929 . S
H1138 C1126 0.960 . S
H1139 C1126 0.962 . S
H1140 C1126 0.960 . S
H1141 C1127 0.961 . S
H1142 C1127 0.961 1_556 S
H1143 C1127 0.961 . S
H1144 C1128 0.931 . S
H1145 C1133 0.930 . S
H1146 C1134 0.956 . S
H1147 C1134 0.961 . S
H1148 C1134 0.961 . S
H1149 C1135 0.958 . S
H1150 C1135 0.961 . S
H1151 C1135 0.960 . S
C1152 C1153 1.391 1_455 S
C1152 C1154 1.394 . S
C1152 H1168 0.931 . S
C1153 C1152 1.391 1_655 S
C1153 C1157 1.376 . S
C1154 C1152 1.394 . S
C1154 C1155 1.369 1_455 S
C1154 C1158 1.531 . S
C1155 C1154 1.369 1_655 S
C1155 C1156 1.410 . S
C1155 C1163 1.503 1_654 S
C1156 C1155 1.410 . S
C1156 C1157 1.392 . S
C1156 C1159 1.511 1_554 S
C1157 C1153 1.376 . S
C1157 C1156 1.392 . S
C1157 H1169 0.929 . S
C1158 C1154 1.531 . S
C1158 H1170 0.960 . S
C1158 H1171 0.962 . S
C1158 H1172 0.960 . S
C1159 C1156 1.511 1_556 S
C1159 H1173 0.961 1_556 S
C1159 H1174 0.961 . S
C1159 H1175 0.961 . S
C1160 C1161 1.370 . S
C1160 C1162 1.363 . S
C1160 H1176 0.931 . S
C1161 C1160 1.370 . S
C1161 C1165 1.408 . S
C1162 C1160 1.363 . S
C1162 C1163 1.370 . S
C1162 C1166 1.524 1_556 S
C1163 C1155 1.503 1_456 S
C1163 C1162 1.370 . S
C1163 C1164 1.403 . S
C1164 C1163 1.403 . S
C1164 C1165 1.404 . S
C1164 C1167 1.539 1_455 S
C1165 C1161 1.408 . S
C1165 C1164 1.404 . S
C1165 H1177 0.930 . S
C1166 C1162 1.524 1_554 S
C1166 H1178 0.956 . S
C1166 H1179 0.961 1_455 S
C1166 H1180 0.961 . S
C1167 C1164 1.539 1_655 S
C1167 H1181 0.958 1_655 S
C1167 H1182 0.961 . S
C1167 H1183 0.960 . S
H1168 C1152 0.931 . S
H1169 C1157 0.929 . S
H1170 C1158 0.960 . S
H1171 C1158 0.962 . S
H1172 C1158 0.960 . S
H1173 C1159 0.961 1_554 S
H1174 C1159 0.961 . S
H1175 C1159 0.961 . S
H1176 C1160 0.931 . S
H1177 C1165 0.930 . S
H1178 C1166 0.956 . S
H1179 C1166 0.961 1_655 S
H1180 C1166 0.961 . S
H1181 C1167 0.958 1_455 S
H1182 C1167 0.961 . S
H1183 C1167 0.960 . S
C1184 C1185 1.391 . S
C1184 C1186 1.394 . S
C1184 H1200 0.931 . S
C1185 C1184 1.391 . S
C1185 C1189 1.376 1_655 S
C1186 C1184 1.394 . S
C1186 C1187 1.369 . S
C1186 C1190 1.531 . S
C1187 C1186 1.369 . S
C1187 C1188 1.410 1_655 S
C1187 C1195 1.503 1_655 S
C1188 C1187 1.410 1_455 S
C1188 C1189 1.392 . S
C1188 C1191 1.511 . S
C1189 C1185 1.376 1_455 S
C1189 C1188 1.392 . S
C1189 H1201 0.929 . S
C1190 C1186 1.531 . S
C1190 H1202 0.960 . S
C1190 H1203 0.962 . S
C1190 H1204 0.960 . S
C1191 C1188 1.511 . S
C1191 H1205 0.961 . S
C1191 H1206 0.961 . S
C1191 H1207 0.961 . S
C1192 C1193 1.370 . S
C1192 C1194 1.363 . S
C1192 H1208 0.931 . S
C1193 C1192 1.370 . S
C1193 C1197 1.408 . S
C1194 C1192 1.363 . S
C1194 C1195 1.370 . S
C1194 C1198 1.524 . S
C1195 C1187 1.503 1_455 S
C1195 C1194 1.370 . S
C1195 C1196 1.403 . S
C1196 C1195 1.403 . S
C1196 C1197 1.404 . S
C1196 C1199 1.539 . S
C1197 C1193 1.408 . S
C1197 C1196 1.404 . S
C1197 H1209 0.930 . S
C1198 C1194 1.524 . S
C1198 H1210 0.956 1_455 S
C1198 H1211 0.961 . S
C1198 H1212 0.961 . S
C1199 C1196 1.539 . S
C1199 H1213 0.958 1_455 S
C1199 H1214 0.961 . S
C1199 H1215 0.960 . S
H1200 C1184 0.931 . S
H1201 C1189 0.929 . S
H1202 C1190 0.960 . S
H1203 C1190 0.962 . S
H1204 C1190 0.960 . S
H1205 C1191 0.961 . S
H1206 C1191 0.961 . S
H1207 C1191 0.961 . S
H1208 C1192 0.931 . S
H1209 C1197 0.930 . S
H1210 C1198 0.956 1_655 S
H1211 C1198 0.961 . S
H1212 C1198 0.961 . S
H1213 C1199 0.958 1_655 S
H1214 C1199 0.961 . S
H1215 C1199 0.960 . S
C1216 C1217 1.391 . S
C1216 C1218 1.394 . S
C1216 H1232 0.931 . S
C1217 C1216 1.391 . S
C1217 C1221 1.376 . S
C1218 C1216 1.394 . S
C1218 C1219 1.369 . S
C1218 C1222 1.531 . S
C1219 C1218 1.369 . S
C1219 C1220 1.410 . S
C1219 C1227 1.503 . S
C1220 C1219 1.410 . S
C1220 C1221 1.392 . S
C1220 C1223 1.511 . S
C1221 C1217 1.376 . S
C1221 C1220 1.392 . S
C1221 H1233 0.929 . S
C1222 C1218 1.531 . S
C1222 H1234 0.960 . S
C1222 H1235 0.962 . S
C1222 H1236 0.960 . S
C1223 C1220 1.511 . S
C1223 H1237 0.961 . S
C1223 H1238 0.961 . S
C1223 H1239 0.961 . S
C1224 C1225 1.370 . S
C1224 C1226 1.363 . S
C1224 H1240 0.931 . S
C1225 C1224 1.370 . S
C1225 C1229 1.408 . S
C1226 C1224 1.363 . S
C1226 C1227 1.370 . S
C1226 C1230 1.524 . S
C1227 C1219 1.503 . S
C1227 C1226 1.370 . S
C1227 C1228 1.403 . S
C1228 C1227 1.403 . S
C1228 C1229 1.404 . S
C1228 C1231 1.539 . S
C1229 C1225 1.408 . S
C1229 C1228 1.404 . S
C1229 H1241 0.930 . S
C1230 C1226 1.524 . S
C1230 H1242 0.956 . S
C1230 H1243 0.961 . S
C1230 H1244 0.961 . S
C1231 C1228 1.539 . S
C1231 H1245 0.958 . S
C1231 H1246 0.961 . S
C1231 H1247 0.960 . S
H1232 C1216 0.931 . S
H1233 C1221 0.929 . S
H1234 C1222 0.960 . S
H1235 C1222 0.962 . S
H1236 C1222 0.960 . S
H1237 C1223 0.961 . S
H1238 C1223 0.961 . S
H1239 C1223 0.961 . S
H1240 C1224 0.931 . S
H1241 C1229 0.930 . S
H1242 C1230 0.956 . S
H1243 C1230 0.961 . S
H1244 C1230 0.961 . S
H1245 C1231 0.958 . S
H1246 C1231 0.961 . S
H1247 C1231 0.960 . S
C225 C25 1.490 . S
C233 C11 1.505 . S
C257 C39 1.486 . S
C265 C53 1.503 . S
C289 C67 1.507 . S
C297 C81 1.496 . S
C321 C109 1.508 . S
C329 C95 1.497 . S
C353 C137 1.508 . S
C361 C123 1.498 . S
C385 C165 1.501 . S
C393 C151 1.502 . S
C417 C193 1.495 . S
C425 C179 1.505 . S
C449 C221 1.486 . S
C457 C207 1.502 . S
C481 C42 1.374 . S
C489 C0 1.391 . S
C513 C14 1.406 . S
C521 C28 1.394 . S
C545 C98 1.385 . S
C553 C56 1.386 . S
C577 C84 1.388 . S
C585 C70 1.386 . S
C609 C112 1.373 . S
C617 C154 1.392 . S
C641 C140 1.406 . S
C649 C126 1.392 . S
C673 C210 1.402 . S
C681 C168 1.399 . S
C705 C182 1.387 . S
C713 C196 1.386 . S
C737 C5 1.493 . S
C745 C131 1.499 . S
C769 C19 1.502 . S
C777 C117 1.503 . S
C801 C159 1.490 . S
C809 C33 1.498 . S
C833 C145 1.493 . S
C841 C47 1.499 . S
C865 C187 1.490 . S
C873 C61 1.498 . S
C897 C173 1.503 . S
C905 C75 1.503 . S
C929 C89 1.501 . S
C937 C215 1.502 . S
C961 C103 1.502 . S
C969 C201 1.502 . S
C993 C65 1.329 . S
C1001 C9 1.339 . S
C1025 C79 1.338 . S
C1033 C23 1.336 . S
C1057 C93 1.334 . S
C1065 C37 1.336 . S
C1089 C107 1.329 . S
C1097 C51 1.340 . S
C1121 C121 1.347 . S
C1129 C177 1.331 . S
C1153 C135 1.326 . S
C1161 C191 1.341 . S
C1185 C205 1.326 . S
C1193 C149 1.339 . S
C1217 C219 1.342 . S
C1225 C163 1.334 . S
