# Generated by pormake.
# Topology msp, (4)-cn, num edge types: 1
# Building blocks:
#     Node 0, Type 0, BuildingBlock: MUDLON_clean_sbu_0, # of connection points: 4
#     Node 1, Type 0, BuildingBlock: MUDLON_clean_sbu_0, # of connection points: 4
#     Node 2, Type 0, BuildingBlock: MUDLON_clean_sbu_0, # of connection points: 4
#     Node 3, Type 0, BuildingBlock: MUDLON_clean_sbu_0, # of connection points: 4
#     Node 4, Type 0, BuildingBlock: MUDLON_clean_sbu_0, # of connection points: 4
#     Node 5, Type 0, BuildingBlock: MUDLON_clean_sbu_0, # of connection points: 4
#     Node 6, Type 0, BuildingBlock: MUDLON_clean_sbu_0, # of connection points: 4
#     Node 7, Type 0, BuildingBlock: MUDLON_clean_sbu_0, # of connection points: 4
#     Edge 8, Type (0, 0), BuildingBlock: FUNLAD_clean_linker_1, # of connection points: 2
#     Edge 9, Type (0, 0), BuildingBlock: FUNLAD_clean_linker_1, # of connection points: 2
#     Edge 10, Type (0, 0), BuildingBlock: FUNLAD_clean_linker_1, # of connection points: 2
#     Edge 11, Type (0, 0), BuildingBlock: FUNLAD_clean_linker_1, # of connection points: 2
#     Edge 12, Type (0, 0), BuildingBlock: FUNLAD_clean_linker_1, # of connection points: 2
#     Edge 13, Type (0, 0), BuildingBlock: FUNLAD_clean_linker_1, # of connection points: 2
#     Edge 14, Type (0, 0), BuildingBlock: FUNLAD_clean_linker_1, # of connection points: 2
#     Edge 15, Type (0, 0), BuildingBlock: FUNLAD_clean_linker_1, # of connection points: 2
#     Edge 16, Type (0, 0), BuildingBlock: FUNLAD_clean_linker_1, # of connection points: 2
#     Edge 17, Type (0, 0), BuildingBlock: FUNLAD_clean_linker_1, # of connection points: 2
#     Edge 18, Type (0, 0), BuildingBlock: FUNLAD_clean_linker_1, # of connection points: 2
#     Edge 19, Type (0, 0), BuildingBlock: FUNLAD_clean_linker_1, # of connection points: 2
#     Edge 20, Type (0, 0), BuildingBlock: FUNLAD_clean_linker_1, # of connection points: 2
#     Edge 21, Type (0, 0), BuildingBlock: FUNLAD_clean_linker_1, # of connection points: 2
#     Edge 22, Type (0, 0), BuildingBlock: FUNLAD_clean_linker_1, # of connection points: 2
#     Edge 23, Type (0, 0), BuildingBlock: FUNLAD_clean_linker_1, # of connection points: 2
# Relax obj value: 0.165
# Max RMSD: 0.252
# Mean RMSD: 0.252
data_MOF--net-msp--node1-MUDLON_clean_sbu_0--edge1-FUNLAD_clean_linker_1
_symmetry_space_group_name_H-M    P1
_symmetry_Int_Tables_number       1
_symmetry_cell_setting            triclinic
loop_
_symmetry_equiv_pos_as_xyz
'x, y, z'
_cell_length_a     25.692928
_cell_length_b     25.393863
_cell_length_c     44.124316
_cell_angle_alpha  90.284868
_cell_angle_beta   101.59012
_cell_angle_gamma 89.411959
loop_
_atom_site_label
_atom_site_type_symbol
_atom_site_fract_x
_atom_site_fract_y
_atom_site_fract_z
_atom_type_partial_charge
Mg0 Mg 0.05693 0.29716 0.38246 0.0
C1 C 0.1314 0.27052 0.34131 0.0
O2 O 0.12483 0.22492 0.35393 0.0
C3 C 1.01217 0.36227 0.4278 0.0
O4 O 0.98635 0.31796 0.42811 0.0
C5 C 0.94898 0.29671 0.34226 0.0
O6 O 0.96239 0.34632 0.3409 0.0
O7 O 0.98121 0.265 0.35883 0.0
O8 O 0.10642 0.31071 0.34852 0.0
O9 O 0.10527 0.2461 0.41645 0.0
C10 C 0.09064 0.21975 0.43763 0.0
O11 O 0.04006 0.21751 0.43872 0.0
O12 O 0.04357 0.36701 0.40907 0.0
Mg13 Mg 0.48436 0.31564 0.64594 0.0
C14 C 0.41365 0.29271 0.6895 0.0
O15 O 0.4228 0.24547 0.67934 0.0
C16 C 0.52675 0.38758 0.60216 0.0
O17 O 0.5646 0.35158 0.60601 0.0
C18 C 0.57763 0.24288 0.67319 0.0
O19 O 0.54522 0.2059 0.66021 0.0
O20 O 0.5629 0.29083 0.67025 0.0
O21 O 0.43565 0.33216 0.67987 0.0
O22 O 0.43973 0.2571 0.61551 0.0
C23 C 0.44641 0.24887 0.58811 0.0
O24 O 0.48617 0.27128 0.57877 0.0
O25 O 0.48943 0.38391 0.61706 0.0
Mg26 Mg 0.98294 0.67762 0.65818 0.0
C27 C 0.91813 0.71263 0.70395 0.0
O28 O 0.93768 0.7577 0.69717 0.0
C29 C 0.94347 0.58614 0.61561 0.0
O30 O 0.8975 0.60328 0.62049 0.0
C31 C 0.10244 0.68428 0.67008 0.0
O32 O 0.09431 0.65884 0.64361 0.0
O33 O 0.06288 0.69836 0.68159 0.0
O34 O 0.93138 0.67054 0.69159 0.0
O35 O 0.94783 0.73486 0.62352 0.0
C36 C 0.8975 0.73904 0.61774 0.0
O37 O 0.87038 0.71406 0.63538 0.0
O38 O 0.98603 0.60713 0.63018 0.0
Mg39 Mg 0.55322 0.69162 0.36031 0.0
C40 C 0.63273 0.72693 0.32418 0.0
O41 O 0.62268 0.77111 0.33764 0.0
C42 C 0.53216 0.62416 0.4104 0.0
O43 O 0.51812 0.67131 0.41842 0.0
C44 C 0.4724 0.74412 0.31027 0.0
O45 O 0.51594 0.75591 0.30068 0.0
O46 O 0.4756 0.7183 0.33522 0.0
O47 O 0.60853 0.68531 0.32898 0.0
O48 O 0.58986 0.74323 0.3977 0.0
C49 C 0.63839 0.7316 0.40796 0.0
O50 O 0.66057 0.6941 0.39412 0.0
O51 O 0.54697 0.61848 0.38474 0.0
Mg52 Mg 0.54757 0.80632 0.87382 0.0
C53 C 0.62381 0.78098 0.83316 0.0
O54 O 0.61491 0.73426 0.84363 0.0
C55 C 0.57713 0.87796 0.92952 0.0
O56 O 0.61783 0.84526 0.93522 0.0
C57 C 0.45794 0.76562 0.82325 0.0
O58 O 0.49727 0.75584 0.80902 0.0
O59 O 0.46767 0.78542 0.85027 0.0
O60 O 0.59946 0.82082 0.8413 0.0
O61 O 0.58703 0.74472 0.90378 0.0
C62 C 0.57487 0.73367 0.92948 0.0
O63 O 0.53094 0.75338 0.93605 0.0
O64 O 0.54284 0.87325 0.90449 0.0
Mg65 Mg 0.98249 0.82102 0.14603 0.0
C66 C 0.91728 0.79764 0.19103 0.0
O67 O 0.92984 0.75107 0.18134 0.0
C68 C 1.0117 0.88392 0.09476 0.0
O69 O 1.01935 0.83584 0.08528 0.0
C70 C 0.09381 0.8141 0.18181 0.0
O71 O 0.08746 0.86541 0.17924 0.0
O72 O 0.05619 0.78427 0.1692 0.0
O73 O 0.93584 0.83845 0.18064 0.0
O74 O 0.93128 0.76832 0.11492 0.0
C75 C 0.89398 0.79097 0.09612 0.0
O76 O 0.89208 0.84269 0.09535 0.0
O77 O 0.99696 0.89049 0.12035 0.0
Mg78 Mg 0.49298 0.17754 0.16434 0.0
C79 C 0.41108 0.20443 0.20119 0.0
O80 O 0.4115 0.24723 0.18463 0.0
C81 C 0.5297 0.11154 0.11738 0.0
O82 O 0.53407 0.15977 0.10756 0.0
C83 C 0.56885 0.25148 0.20667 0.0
O84 O 0.52438 0.27222 0.21172 0.0
O85 O 0.56714 0.21409 0.18721 0.0
O86 O 0.44213 0.16637 0.1979 0.0
O87 O 0.44381 0.22029 0.12623 0.0
C88 C 0.40501 0.19181 0.11344 0.0
O89 O 0.40048 0.14452 0.12446 0.0
O90 O 0.51361 0.10496 0.14255 0.0
Mg91 Mg 0.05347 0.21489 0.86568 0.0
C92 C 0.12789 0.24522 0.82524 0.0
O93 O 0.11977 0.29068 0.83796 0.0
C94 C 0.03212 0.14628 0.91582 0.0
O95 O 0.02466 0.19357 0.92651 0.0
C96 C 0.9462 0.21315 0.8249 0.0
O97 O 0.96234 0.16424 0.82274 0.0
O98 O 0.97645 0.24519 0.84219 0.0
O99 O 0.10423 0.20464 0.83216 0.0
O100 O 0.09662 0.26476 0.90218 0.0
C101 C 0.14172 0.24497 0.91399 0.0
O102 O 0.15654 0.20095 0.90222 0.0
O103 O 0.04355 0.1417 0.8892 0.0
H104 H 0.03097 0.43994 0.4503 0.0
C105 C 1.00898 0.4038 0.45103 0.0
H106 H 0.96278 0.35906 0.47585 0.0
H107 H 0.04702 0.46304 0.60552 0.0
H108 H 0.09555 0.38004 0.61161 0.0
H109 H 0.09461 0.32094 0.56699 0.0
H110 H 0.0455 0.34457 0.51594 0.0
C111 C 0.98275 0.39613 0.47416 0.0
C112 C 0.98566 0.43392 0.50041 0.0
C113 C 1.01509 0.41984 0.53007 0.0
C114 C 1.01595 0.4541 0.55579 0.0
C115 C 0.04532 0.43872 0.58515 0.0
C116 C 0.07329 0.39113 0.58899 0.0
C117 C 0.07271 0.35782 0.56388 0.0
C118 C 0.04418 0.37183 0.5347 0.0
H119 H 0.90736 0.52862 0.58009 0.0
C120 C 0.94452 0.5472 0.59074 0.0
H121 H 0.02578 0.55596 0.58951 0.0
H122 H 0.92308 0.47169 0.4472 0.0
H123 H 0.87652 0.55578 0.44078 0.0
H124 H 0.88185 0.61731 0.48469 0.0
H125 H 0.93267 0.59475 0.53542 0.0
C126 C 0.98826 0.53789 0.57907 0.0
C127 C 0.98724 0.50238 0.5519 0.0
C128 C 0.95865 0.51703 0.52208 0.0
C129 C 0.95723 0.4824 0.49643 0.0
C130 C 0.92662 0.49705 0.46726 0.0
C131 C 0.89958 0.54514 0.46327 0.0
C132 C 0.90243 0.57972 0.48802 0.0
C133 C 0.93157 0.5661 0.5171 0.0
H134 H 0.54789 0.54122 0.42521 0.0
C135 C 0.53547 0.57968 0.4322 0.0
H136 H 0.51637 0.62573 0.46851 0.0
H137 H 0.48028 0.38807 0.52122 0.0
H138 H 0.40723 0.38038 0.47717 0.0
H139 H 0.39141 0.44834 0.43651 0.0
H140 H 0.44901 0.524 0.43944 0.0
C141 C 0.5265 0.58682 0.46097 0.0
C142 C 0.53624 0.54462 0.48479 0.0
C143 C 0.50142 0.50123 0.48301 0.0
C144 C 0.50943 0.46299 0.50703 0.0
C145 C 0.47512 0.41913 0.50416 0.0
C146 C 0.43316 0.41407 0.4789 0.0
C147 C 0.42434 0.45226 0.45597 0.0
C148 C 0.45788 0.49543 0.45789 0.0
H149 H 0.49063 0.45642 0.57521 0.0
C150 C 0.52377 0.42868 0.5783 0.0
H151 H 0.59208 0.40366 0.56204 0.0
H152 H 0.61146 0.6219 0.49479 0.0
H153 H 0.68328 0.63057 0.5394 0.0
H154 H 0.69645 0.56491 0.58134 0.0
H155 H 0.63694 0.49066 0.5792 0.0
C156 C 0.55825 0.43049 0.55908 0.0
C157 C 0.55128 0.46905 0.5332 0.0
C158 C 0.58666 0.51185 0.53467 0.0
C159 C 0.57906 0.54973 0.51049 0.0
C160 C 0.61494 0.59226 0.51264 0.0
C161 C 0.6566 0.59756 0.53805 0.0
C162 C 0.66393 0.56063 0.56168 0.0
C163 C 0.6295 0.51821 0.56015 0.0
H164 H 0.5381 0.02642 0.1075 0.0
C165 C 0.54112 0.06591 0.09868 0.0
H166 H 0.55785 0.11203 0.06217 0.0
H167 H 0.68848 0.95268 0.99937 0.0
H168 H 0.75877 0.00865 0.0263 0.0
H169 H 0.74153 0.07364 0.06492 0.0
H170 H 0.65372 0.08307 0.07682 0.0
C171 C 0.55351 0.07256 0.07069 0.0
C172 C 0.56495 0.0279 0.05085 0.0
C173 C 0.61664 0.02224 0.04441 0.0
C174 C 0.62674 0.98425 0.02242 0.0
C175 C 0.67858 0.98037 0.01609 0.0
C176 C 0.71937 0.01234 0.03135 0.0
C177 C 0.70965 0.04898 0.05307 0.0
C178 C 0.65899 0.0541 0.05958 0.0
H179 H 0.53742 0.94642 0.94661 0.0
C180 C 0.56848 0.91682 0.95309 0.0
H181 H 0.62668 0.88481 0.98908 0.0
H182 H 0.46069 0.02858 0.05701 0.0
H183 H 0.39274 0.96699 0.03388 0.0
H184 H 0.41274 0.89558 0.99974 0.0
H185 H 0.50046 0.8864 0.98785 0.0
C186 C 0.59541 0.91416 0.98257 0.0
C187 C 0.58517 0.95168 1.00694 0.0
C188 C 0.53446 0.95464 0.01509 0.0
C189 C 0.52387 0.99381 0.03634 0.0
C190 C 0.47176 0.99827 0.04217 0.0
C191 C 0.4322 0.96327 0.02891 0.0
C192 C 0.44339 0.92323 1.00958 0.0
C193 C 0.49382 0.91874 1.00269 0.0
H194 H 1.00874 0.96879 0.08351 0.0
C195 C 1.01654 0.92978 0.07509 0.0
H196 H 0.03374 0.88537 0.03765 0.0
H197 H 0.93618 0.05493 0.93733 0.0
H198 H 0.86915 0.9872 0.92736 0.0
H199 H 0.87339 0.91075 0.96207 0.0
H200 H 0.94455 0.90181 1.00708 0.0
C201 C 0.02792 0.92432 0.04679 0.0
C202 C 0.02672 0.9701 0.02566 0.0
C203 C 0.98555 0.97413 0.999 0.0
C204 C 0.98356 0.01782 0.9787 0.0
C205 C 0.94061 0.02192 0.95303 0.0
C206 C 0.90157 0.98345 0.94715 0.0
C207 C 0.90393 0.94045 0.9667 0.0
C208 C 0.94515 0.93574 0.99242 0.0
H209 H 0.03693 0.0608 0.92575 0.0
C210 C 0.03 0.09932 0.93513 0.0
H211 H 1.01643 0.14196 0.97408 0.0
H212 H 0.11321 0.97244 0.07344 0.0
H213 H 0.18053 0.04004 0.08337 0.0
H214 H 0.177 0.11594 0.04836 0.0
H215 H 0.10608 0.12481 1.0032 0.0
C216 C 0.02136 0.10343 0.96414 0.0
C217 C 0.02343 0.05689 0.98478 0.0
C218 C 0.06473 0.05275 1.01139 0.0
C219 C 0.06657 0.00916 0.03175 0.0
C220 C 0.10918 0.00526 0.0576 0.0
C221 C 0.1483 0.04366 0.06348 0.0
C222 C 0.1463 0.08641 0.04376 0.0
C223 C 0.10524 0.09105 0.01795 0.0
H224 H 0.61938 0.30232 0.24103 0.0
C225 C 0.61996 0.26892 0.22558 0.0
H226 H 0.66741 0.20991 0.21034 0.0
H227 H 0.88582 0.3269 0.25359 0.0
H228 H 0.87363 0.33464 0.19787 0.0
H229 H 0.78949 0.30836 0.16388 0.0
H230 H 0.71707 0.27391 0.18542 0.0
C231 C 0.66598 0.24296 0.2259 0.0
C232 C 0.71655 0.25914 0.24673 0.0
C233 C 0.75844 0.27945 0.23383 0.0
C234 C 0.8067 0.29534 0.25349 0.0
C235 C 0.84802 0.31496 0.23984 0.0
C236 C 0.84163 0.31948 0.20786 0.0
C237 C 0.79429 0.30462 0.18872 0.0
C238 C 0.75306 0.28483 0.20141 0.0
H239 H 0.88907 0.23595 0.32474 0.0
C240 C 0.89792 0.27763 0.32403 0.0
H241 H 0.87237 0.35171 0.30479 0.0
H242 H 0.64729 0.21524 0.27905 0.0
H243 H 0.65818 0.21017 0.33479 0.0
H244 H 0.73888 0.24412 0.36896 0.0
H245 H 0.80962 0.28229 0.34759 0.0
C246 C 0.86296 0.31031 0.30634 0.0
C247 C 0.81303 0.29116 0.28609 0.0
C248 C 0.77109 0.27087 0.29903 0.0
C249 C 0.72334 0.25369 0.27932 0.0
C250 C 0.6834 0.23092 0.29287 0.0
C251 C 0.68927 0.22743 0.32487 0.0
C252 C 0.73479 0.24636 0.3441 0.0
C253 C 0.7753 0.26791 0.33149 0.0
H254 H 0.64178 0.18691 0.69294 0.0
C255 C 0.63012 0.22824 0.69189 0.0
H256 H 0.65077 0.30505 0.7084 0.0
H257 H 0.8057 0.22167 0.82946 0.0
H258 H 0.73118 0.25296 0.85078 0.0
H259 H 0.64815 0.28273 0.81659 0.0
H260 H 0.63901 0.28092 0.76082 0.0
C261 C 0.66281 0.26392 0.70819 0.0
C262 C 0.71399 0.24793 0.72861 0.0
C263 C 0.7193 0.2506 0.7612 0.0
C264 C 0.7676 0.23436 0.78095 0.0
C265 C 0.77068 0.23504 0.81337 0.0
C266 C 0.72801 0.25257 0.82594 0.0
C267 C 0.68123 0.26926 0.80669 0.0
C268 C 0.67659 0.26815 0.7747 0.0
H269 H 0.88343 0.27246 0.80805 0.0
C270 C 0.89445 0.2312 0.80671 0.0
H271 H 0.873 0.15727 0.78612 0.0
H272 H 0.71867 0.24207 0.66721 0.0
H273 H 0.79337 0.21143 0.64578 0.0
H274 H 0.87699 0.18298 0.6799 0.0
H275 H 0.88649 0.18522 0.73567 0.0
C276 C 0.86148 0.19819 0.78829 0.0
C277 C 0.81104 0.21666 0.76804 0.0
C278 C 0.80585 0.21451 0.73542 0.0
C279 C 0.75744 0.23044 0.7157 0.0
C280 C 0.75403 0.22932 0.68326 0.0
C281 C 0.79676 0.21211 0.67063 0.0
C282 C 0.84384 0.19613 0.68984 0.0
C283 C 0.84866 0.19743 0.72185 0.0
H284 H 0.18961 0.68103 0.67553 0.0
C285 C 0.15743 0.69424 0.68647 0.0
H286 H 0.13735 0.72905 0.72623 0.0
H287 H 0.35659 0.66296 0.81218 0.0
H288 H 0.29534 0.60576 0.83105 0.0
H289 H 0.20122 0.60163 0.80473 0.0
H290 H 0.16793 0.65441 0.75921 0.0
C291 C 0.16897 0.71741 0.71444 0.0
C292 C 0.22504 0.72298 0.73133 0.0
C293 C 0.2436 0.69293 0.75843 0.0
C294 C 0.29767 0.69612 0.77399 0.0
C295 C 0.3156 0.66359 0.80007 0.0
C296 C 0.28093 0.63016 0.81101 0.0
C297 C 0.22797 0.62777 0.79617 0.0
C298 C 0.20936 0.65843 0.77008 0.0
H299 H 0.37103 0.76809 0.81977 0.0
C300 C 0.40232 0.75633 0.80773 0.0
H301 H 0.42016 0.72477 0.76662 0.0
H302 H 0.20128 0.78982 0.68179 0.0
H303 H 0.26236 0.84741 0.663 0.0
H304 H 0.35628 0.85234 0.68961 0.0
H305 H 0.38958 0.79993 0.73526 0.0
C306 C 0.38931 0.73519 0.77926 0.0
C307 C 0.33282 0.73049 0.76288 0.0
C308 C 0.31415 0.76077 0.73587 0.0
C309 C 0.26014 0.75739 0.72025 0.0
C310 C 0.2422 0.78962 0.69404 0.0
C311 C 0.27677 0.82321 0.68313 0.0
C312 C 0.32962 0.82603 0.69813 0.0
C313 C 0.34825 0.79553 0.72428 0.0
H314 H 0.42122 0.78263 0.27047 0.0
C315 C 0.42077 0.75941 0.29106 0.0
H316 H 0.37238 0.72223 0.31795 0.0
H317 H 0.17351 0.86849 0.26303 0.0
H318 H 0.19559 0.89948 0.31605 0.0
H319 H 0.27637 0.86758 0.3515 0.0
H320 H 0.33536 0.8041 0.33418 0.0
C321 C 0.37398 0.74449 0.29719 0.0
C322 C 0.32327 0.76052 0.27638 0.0
C323 C 0.28922 0.79758 0.28685 0.0
C324 C 0.24312 0.8166 0.26623 0.0
C325 C 0.20955 0.85331 0.27747 0.0
C326 C 0.22164 0.87134 0.30792 0.0
C327 C 0.26709 0.85334 0.32788 0.0
C328 C 0.30061 0.81689 0.31762 0.0
H329 H 0.14405 0.74889 0.20477 0.0
C330 C 0.14258 0.79112 0.2007 0.0
H331 H 0.18229 0.86344 0.21019 0.0
H332 H 0.37512 0.68298 0.25045 0.0
H333 H 0.355 0.65371 0.197 0.0
H334 H 0.27982 0.69246 0.1599 0.0
H335 H 0.22368 0.75967 0.17616 0.0
C336 C 0.18416 0.82103 0.21349 0.0
C337 C 0.23133 0.79881 0.23507 0.0
C338 C 0.26517 0.7612 0.22468 0.0
C339 C 0.31029 0.74096 0.24563 0.0
C340 C 0.34171 0.7013 0.23518 0.0
C341 C 0.33042 0.68389 0.2046 0.0
C342 C 0.28796 0.70554 0.18376 0.0
C343 C 0.25571 0.74385 0.1935 0.0
H344 H 0.37372 0.16399 0.23567 0.0
C345 C 0.37464 0.20054 0.22309 0.0
H346 H 0.34459 0.27828 0.21586 0.0
H347 H 0.14784 0.17485 0.2704 0.0
H348 H 0.12928 0.12541 0.22235 0.0
H349 H 0.19069 0.12773 0.18601 0.0
H350 H 0.27119 0.17921 0.19757 0.0
C351 C 0.34272 0.24101 0.22757 0.0
C352 C 0.30611 0.23812 0.24976 0.0
C353 C 0.25908 0.20792 0.24259 0.0
C354 C 0.22338 0.20701 0.26343 0.0
C355 C 0.17656 0.17672 0.25556 0.0
C356 C 0.16528 0.14829 0.22798 0.0
C357 C 0.19987 0.14957 0.20752 0.0
C358 C 0.24613 0.17912 0.21455 0.0
H359 H 0.17183 0.31292 0.30891 0.0
C360 C 0.16819 0.27505 0.31963 0.0
H361 H 0.19316 0.19542 0.32347 0.0
H362 H 0.3922 0.30059 0.27024 0.0
H363 H 0.41135 0.34947 0.3185 0.0
H364 H 0.35075 0.34614 0.35528 0.0
H365 H 0.27045 0.29443 0.34392 0.0
C366 C 0.1976 0.23367 0.31339 0.0
C367 C 0.23437 0.23677 0.29126 0.0
C368 C 0.28158 0.26679 0.2985 0.0
C369 C 0.31711 0.26792 0.27755 0.0
C370 C 0.36382 0.29837 0.28528 0.0
C371 C 0.37541 0.32649 0.31296 0.0
C372 C 0.34126 0.32466 0.33365 0.0
C373 C 0.29501 0.29505 0.32671 0.0
H374 H 0.37098 0.33956 0.71944 0.0
C375 C 0.37687 0.30012 0.71097 0.0
H376 H 0.3537 0.22042 0.71015 0.0
H377 H 0.2774 0.29525 0.83796 0.0
H378 H 0.37144 0.30184 0.86015 0.0
H379 H 0.43837 0.29195 0.82745 0.0
H380 H 0.41166 0.27562 0.77235 0.0
C381 C 0.34969 0.25963 0.71944 0.0
C382 C 0.30972 0.26728 0.73926 0.0
C383 C 0.32609 0.27684 0.77144 0.0
C384 C 0.2875 0.2821 0.79034 0.0
C385 C 0.30495 0.29119 0.82247 0.0
C386 C 0.35885 0.29492 0.83555 0.0
C387 C 0.39652 0.28938 0.81713 0.0
C388 C 0.3806 0.28024 0.78548 0.0
H389 H 0.17051 0.20263 0.79362 0.0
C390 C 0.16506 0.24084 0.80381 0.0
H391 H 0.18912 0.32032 0.8081 0.0
H392 H 0.2651 0.24976 0.67837 0.0
H393 H 0.171 0.24424 0.65603 0.0
H394 H 0.10401 0.25484 0.68863 0.0
H395 H 0.13069 0.27072 0.74377 0.0
C396 C 0.19278 0.28239 0.79718 0.0
C397 C 0.23269 0.27717 0.77709 0.0
C398 C 0.2163 0.26831 0.74483 0.0
C399 C 0.2549 0.26291 0.72596 0.0
C400 C 0.23748 0.25402 0.69381 0.0
C401 C 0.18358 0.25091 0.68065 0.0
C402 C 0.14587 0.25684 0.69901 0.0
C403 C 0.16177 0.26563 0.7307 0.0
H404 H 0.67113 0.82663 0.80579 0.0
C405 C 0.66338 0.78733 0.81336 0.0
H406 H 0.68252 0.70626 0.81221 0.0
H407 H 0.77758 0.71999 0.69105 0.0
H408 H 0.69068 0.68487 0.66944 0.0
H409 H 0.6218 0.67937 0.70099 0.0
H410 H 0.63934 0.70958 0.75429 0.0
C411 C 0.69089 0.74586 0.80542 0.0
C412 C 0.73203 0.75144 0.78624 0.0
C413 C 0.72165 0.73252 0.75536 0.0
C414 C 0.76181 0.7346 0.73739 0.0
C415 C 0.74935 0.71765 0.70614 0.0
C416 C 0.69939 0.69778 0.69333 0.0
C417 C 0.66059 0.69475 0.71108 0.0
C418 C 0.67126 0.71206 0.74168 0.0
H419 H 0.8632 0.67313 0.72904 0.0
C420 C 0.87743 0.71123 0.72328 0.0
H421 H 0.87013 0.79386 0.7271 0.0
H422 H 0.76567 0.78983 0.84502 0.0
H423 H 0.85232 0.82567 0.86655 0.0
H424 H 0.9219 0.82942 0.83542 0.0
H425 H 0.90529 0.79709 0.78259 0.0
C426 C 0.8557 0.75557 0.73235 0.0
C427 C 0.81286 0.75433 0.75066 0.0
C428 C 0.82287 0.77425 0.78136 0.0
C429 C 0.78255 0.77253 0.79924 0.0
C430 C 0.79437 0.79106 0.83017 0.0
C431 C 0.84409 0.81154 0.8429 0.0
C432 C 0.88327 0.81363 0.82538 0.0
C433 C 0.87312 0.79506 0.79502 0.0
H434 H 0.86952 0.84145 0.21951 0.0
C435 C 0.8794 0.80245 0.21196 0.0
H436 H 0.86577 0.72066 0.21373 0.0
H437 H 0.77623 0.72652 0.33652 0.0
H438 H 0.86365 0.68857 0.35537 0.0
H439 H 0.9301 0.68465 0.32207 0.0
H440 H 0.90957 0.7189 0.26975 0.0
C441 C 0.85537 0.7599 0.22063 0.0
C442 C 0.81555 0.76396 0.24075 0.0
C443 C 0.82799 0.74319 0.27114 0.0
C444 C 0.78954 0.745 0.29023 0.0
C445 C 0.80353 0.72524 0.32079 0.0
C446 C 0.8537 0.70357 0.33198 0.0
C447 C 0.89111 0.70139 0.31324 0.0
C448 C 0.87873 0.72105 0.2832 0.0
H449 H 0.6816 0.68766 0.29465 0.0
C450 C 0.67251 0.72528 0.30434 0.0
H451 H 0.6883 0.80697 0.30722 0.0
H452 H 0.77697 0.8032 0.18259 0.0
H453 H 0.6897 0.84135 0.1639 0.0
H454 H 0.62387 0.84656 0.19757 0.0
H455 H 0.64488 0.81307 0.25007 0.0
C456 C 0.69803 0.76882 0.29846 0.0
C457 C 0.7385 0.767 0.27871 0.0
C458 C 0.72613 0.7881 0.24841 0.0
C459 C 0.76446 0.78602 0.22923 0.0
C460 C 0.75008 0.80511 0.19853 0.0
C461 C 0.69991 0.82684 0.18741 0.0
C462 C 0.66283 0.8297 0.20634 0.0
C463 C 0.67546 0.81044 0.23646 0.0
H464 H 0.40783 0.22539 0.54091 0.0
C465 C 0.4037 0.22481 0.56495 0.0
H466 H 0.3518 0.21201 0.59563 0.0
H467 H 0.15717 0.29146 0.49397 0.0
H468 H 0.16519 0.36086 0.53223 0.0
H469 H 0.2376 0.35947 0.57831 0.0
H470 H 0.30346 0.28941 0.58583 0.0
C471 C 0.35708 0.21072 0.57181 0.0
C472 C 0.30884 0.20577 0.54685 0.0
C473 C 0.26915 0.24579 0.5436 0.0
C474 C 0.22661 0.24593 0.5174 0.0
C475 C 0.18956 0.28836 0.51373 0.0
C476 C 0.19372 0.3287 0.53554 0.0
C477 C 0.23459 0.32801 0.56142 0.0
C478 C 0.27211 0.28737 0.56545 0.0
H479 H 0.11767 0.18647 0.48447 0.0
C480 C 0.13099 0.20114 0.46424 0.0
H481 H 0.19698 0.22362 0.44548 0.0
H482 H 0.37413 0.11981 0.54842 0.0
H483 H 0.36593 0.04955 0.51017 0.0
H484 H 0.29217 0.04977 0.46468 0.0
H485 H 0.22597 0.12012 0.45721 0.0
C486 C 0.18307 0.20923 0.46558 0.0
C487 C 0.22306 0.20517 0.49495 0.0
C488 C 0.26127 0.16387 0.49901 0.0
C489 C 0.30411 0.16402 0.52506 0.0
C490 C 0.34145 0.12203 0.52871 0.0
C491 C 0.33702 0.08139 0.50703 0.0
C492 C 0.29545 0.08149 0.48143 0.0
C493 C 0.25785 0.12212 0.47736 0.0
H494 H 0.89411 0.77167 0.57112 0.0
C495 C 0.87011 0.75964 0.58752 0.0
H496 H 0.79338 0.73988 0.59382 0.0
H497 H 0.72116 0.84417 0.45511 0.0
H498 H 0.73505 0.92845 0.4816 0.0
H499 H 0.77513 0.93303 0.53727 0.0
H500 H 0.8021 0.85323 0.56675 0.0
C501 C 0.81742 0.75421 0.578 0.0
C502 C 0.79332 0.75247 0.54457 0.0
C503 C 0.77699 0.79925 0.5279 0.0
C504 C 0.75281 0.79649 0.49597 0.0
C505 C 0.73842 0.84392 0.47958 0.0
C506 C 0.74644 0.89255 0.49447 0.0
C507 C 0.76909 0.89514 0.52581 0.0
C508 C 0.78436 0.84914 0.54246 0.0
H509 H 0.64377 0.77173 0.45305 0.0
C510 C 0.66669 0.75264 0.43785 0.0
H511 H 0.74121 0.72262 0.43272 0.0
H512 H 0.8228 0.65539 0.5697 0.0
H513 H 0.80897 0.57116 0.5435 0.0
H514 H 0.76378 0.56586 0.48871 0.0
H515 H 0.73311 0.64475 0.45971 0.0
C516 C 0.71872 0.74253 0.44787 0.0
C517 C 0.74426 0.74678 0.48109 0.0
C518 C 0.76102 0.69994 0.49782 0.0
C519 C 0.78591 0.70285 0.52954 0.0
C520 C 0.80314 0.65553 0.54561 0.0
C521 C 0.79545 0.60682 0.53086 0.0
C522 C 0.7701 0.60385 0.50002 0.0
C523 C 0.75289 0.64963 0.4836 0.0
H524 H 0.84424 0.72 0.08588 0.0
C525 C 0.84934 0.76021 0.07876 0.0
H526 H 0.81826 0.82313 0.04964 0.0
H527 H 0.66899 0.62554 0.98246 0.0
H528 H 0.75038 0.57768 0.97924 0.0
H529 H 0.83791 0.61352 1.00339 0.0
H530 H 0.84471 0.69598 0.03163 0.0
C531 C 0.81321 0.7825 0.05609 0.0
C532 C 0.7615 0.75755 0.04259 0.0
C533 C 0.75892 0.71026 0.02508 0.0
C534 C 0.70876 0.69127 1.00939 0.0
C535 C 0.70653 0.64258 0.9935 0.0
C536 C 0.75276 0.61473 0.99166 0.0
C537 C 0.80202 0.6348 1.00538 0.0
C538 C 0.80533 0.6821 0.02179 0.0
H539 H 0.65786 0.71493 0.94878 0.0
C540 C 0.61853 0.71609 0.95439 0.0
H541 H 0.57466 0.7155 0.98967 0.0
H542 H 0.75161 0.84355 0.07889 0.0
H543 H 0.67008 0.8897 0.08255 0.0
H544 H 0.58375 0.85916 0.05317 0.0
H545 H 0.57835 0.78327 0.01961 0.0
C546 C 0.61391 0.71354 0.98415 0.0
C547 C 0.662 0.72163 1.00908 0.0
C548 C 0.664 0.76607 0.02893 0.0
C549 C 0.71386 0.78391 0.04574 0.0
C550 C 0.71496 0.82876 0.06515 0.0
C551 C 0.66843 0.85549 0.06765 0.0
C552 C 0.61984 0.83832 0.05109 0.0
C553 C 0.6174 0.79448 0.03178 0.0
H554 H 0.33809 0.17887 0.07507 0.0
C555 C 0.366 0.20858 0.08596 0.0
H556 H 0.39101 0.28725 0.08372 0.0
H557 H 0.2979 0.28386 0.93805 0.0
H558 H 0.39038 0.30645 0.94061 0.0
H559 H 0.45302 0.31185 0.99084 0.0
H560 H 0.42358 0.2951 0.03882 0.0
C561 C 0.36292 0.25714 0.07376 0.0
C562 C 0.32325 0.26798 0.0447 0.0
C563 C 0.34094 0.27908 0.01703 0.0
C564 C 0.305 0.27526 0.98805 0.0
C565 C 0.32382 0.28551 0.96064 0.0
C566 C 0.37669 0.29868 0.96179 0.0
C567 C 0.41194 0.30176 0.99009 0.0
C568 C 0.39455 0.29198 0.01746 0.0
H569 H 0.16091 0.30292 0.95236 0.0
C570 C 0.17465 0.26759 0.94227 0.0
H571 H 0.23353 0.20807 0.94621 0.0
H572 H 0.27371 0.26051 0.09371 0.0
H573 H 0.18117 0.23818 0.09152 0.0
H574 H 0.1204 0.22359 0.04136 0.0
H575 H 0.15106 0.23252 0.9933 0.0
C576 C 0.21916 0.2427 0.95669 0.0
C577 C 0.25167 0.26006 0.9868 0.0
C578 C 0.2328 0.25364 0.01465 0.0
C579 C 0.26842 0.25927 0.04363 0.0
C580 C 0.24857 0.25447 0.07117 0.0
C581 C 0.1956 0.24205 0.07022 0.0
C582 C 0.16134 0.23406 0.04198 0.0
C583 C 0.17951 0.23954 0.01447 0.0
loop_
_geom_bond_atom_site_label_1
_geom_bond_atom_site_label_2
_geom_bond_distance
_geom_bond_site_symmetry_2
_ccdc_geom_bond_type
Mg0 O7 2.141 1_455 S
Mg0 O8 2.048 . S
Mg0 O9 2.048 . S
Mg0 O12 2.141 . S
C1 O2 1.313 . S
C1 O8 1.195 . S
O2 C1 1.313 . S
C3 O4 1.245 . S
C3 O12 1.289 1_655 S
O4 C3 1.245 . S
C5 O6 1.245 . S
C5 O7 1.289 . S
O6 C5 1.245 . S
O7 Mg0 2.141 1_655 S
O7 C5 1.289 . S
O8 Mg0 2.048 . S
O8 C1 1.195 . S
O9 Mg0 2.048 . S
O9 C10 1.195 . S
C10 O9 1.195 . S
C10 O11 1.313 . S
O11 C10 1.313 . S
O12 Mg0 2.141 . S
O12 C3 1.289 1_455 S
Mg13 O20 2.141 . S
Mg13 O21 2.048 . S
Mg13 O22 2.048 . S
Mg13 O25 2.141 . S
C14 O15 1.313 . S
C14 O21 1.195 . S
O15 C14 1.313 . S
C16 O17 1.245 . S
C16 O25 1.289 . S
O17 C16 1.245 . S
C18 O19 1.245 . S
C18 O20 1.289 . S
O19 C18 1.245 . S
O20 Mg13 2.141 . S
O20 C18 1.289 . S
O21 Mg13 2.048 . S
O21 C14 1.195 . S
O22 Mg13 2.048 . S
O22 C23 1.195 . S
C23 O22 1.195 . S
C23 O24 1.313 . S
O24 C23 1.313 . S
O25 Mg13 2.141 . S
O25 C16 1.289 . S
Mg26 O33 2.141 1_655 S
Mg26 O34 2.048 . S
Mg26 O35 2.048 . S
Mg26 O38 2.141 . S
C27 O28 1.313 . S
C27 O34 1.195 . S
O28 C27 1.313 . S
C29 O30 1.245 1_455 S
C29 O38 1.289 1_455 S
O30 C29 1.245 1_655 S
C31 O32 1.245 . S
C31 O33 1.289 . S
O32 C31 1.245 . S
O33 Mg26 2.141 1_455 S
O33 C31 1.289 . S
O34 Mg26 2.048 . S
O34 C27 1.195 . S
O35 Mg26 2.048 . S
O35 C36 1.195 . S
C36 O35 1.195 . S
C36 O37 1.313 . S
O37 C36 1.313 . S
O38 Mg26 2.141 . S
O38 C29 1.289 1_655 S
Mg39 O46 2.141 . S
Mg39 O47 2.048 . S
Mg39 O48 2.048 . S
Mg39 O51 2.141 . S
C40 O41 1.313 . S
C40 O47 1.195 . S
O41 C40 1.313 . S
C42 O43 1.245 . S
C42 O51 1.289 . S
O43 C42 1.245 . S
C44 O45 1.245 . S
C44 O46 1.289 . S
O45 C44 1.245 . S
O46 Mg39 2.141 . S
O46 C44 1.289 . S
O47 Mg39 2.048 . S
O47 C40 1.195 . S
O48 Mg39 2.048 . S
O48 C49 1.195 . S
C49 O48 1.195 . S
C49 O50 1.313 . S
O50 C49 1.313 . S
O51 Mg39 2.141 . S
O51 C42 1.289 . S
Mg52 O59 2.141 . S
Mg52 O60 2.048 . S
Mg52 O61 2.048 . S
Mg52 O64 2.141 . S
C53 O54 1.313 . S
C53 O60 1.195 . S
O54 C53 1.313 . S
C55 O56 1.245 . S
C55 O64 1.289 . S
O56 C55 1.245 . S
C57 O58 1.245 . S
C57 O59 1.289 . S
O58 C57 1.245 . S
O59 Mg52 2.141 . S
O59 C57 1.289 . S
O60 Mg52 2.048 . S
O60 C53 1.195 . S
O61 Mg52 2.048 . S
O61 C62 1.195 . S
C62 O61 1.195 . S
C62 O63 1.313 . S
O63 C62 1.313 . S
O64 Mg52 2.141 . S
O64 C55 1.289 . S
Mg65 O72 2.141 1_655 S
Mg65 O73 2.048 . S
Mg65 O74 2.048 . S
Mg65 O77 2.141 . S
C66 O67 1.313 . S
C66 O73 1.195 . S
O67 C66 1.313 . S
C68 O69 1.245 . S
C68 O77 1.289 1_455 S
O69 C68 1.245 . S
C70 O71 1.245 . S
C70 O72 1.289 . S
O71 C70 1.245 . S
O72 Mg65 2.141 1_455 S
O72 C70 1.289 . S
O73 Mg65 2.048 . S
O73 C66 1.195 . S
O74 Mg65 2.048 . S
O74 C75 1.195 . S
C75 O74 1.195 . S
C75 O76 1.313 . S
O76 C75 1.313 . S
O77 Mg65 2.141 . S
O77 C68 1.289 1_655 S
Mg78 O85 2.141 . S
Mg78 O86 2.048 . S
Mg78 O87 2.048 . S
Mg78 O90 2.141 . S
C79 O80 1.313 . S
C79 O86 1.195 . S
O80 C79 1.313 . S
C81 O82 1.245 . S
C81 O90 1.289 . S
O82 C81 1.245 . S
C83 O84 1.245 . S
C83 O85 1.289 . S
O84 C83 1.245 . S
O85 Mg78 2.141 . S
O85 C83 1.289 . S
O86 Mg78 2.048 . S
O86 C79 1.195 . S
O87 Mg78 2.048 . S
O87 C88 1.195 . S
C88 O87 1.195 . S
C88 O89 1.313 . S
O89 C88 1.313 . S
O90 Mg78 2.141 . S
O90 C81 1.289 . S
Mg91 O98 2.141 1_455 S
Mg91 O99 2.048 . S
Mg91 O100 2.048 . S
Mg91 O103 2.141 . S
C92 O93 1.313 . S
C92 O99 1.195 . S
O93 C92 1.313 . S
C94 O95 1.245 1_655 S
C94 O103 1.289 1_655 S
O95 C94 1.245 1_455 S
C96 O97 1.245 . S
C96 O98 1.289 . S
O97 C96 1.245 . S
O98 Mg91 2.141 1_655 S
O98 C96 1.289 . S
O99 Mg91 2.048 . S
O99 C92 1.195 . S
O100 Mg91 2.048 . S
O100 C101 1.195 . S
C101 O100 1.195 . S
C101 O102 1.313 . S
O102 C101 1.313 . S
O103 Mg91 2.141 . S
O103 C94 1.289 1_455 S
H104 C105 0.951 . S
C105 H104 0.951 . S
C105 C111 1.265 . S
H106 C111 0.950 . S
H107 C115 0.949 . S
H108 C116 0.950 . S
H109 C117 0.951 . S
H110 C118 0.951 . S
C111 C105 1.265 . S
C111 H106 0.950 . S
C111 C112 1.478 . S
C112 C111 1.478 . S
C112 C113 1.397 1_655 S
C112 C129 1.394 . S
C113 C112 1.397 1_455 S
C113 C114 1.438 . S
C113 C118 1.429 . S
C114 C113 1.438 . S
C114 C115 1.428 . S
C114 C127 1.394 . S
C115 H107 0.949 . S
C115 C114 1.428 . S
C115 C116 1.345 . S
C116 H108 0.950 . S
C116 C115 1.345 . S
C116 C117 1.424 . S
C117 H109 0.951 . S
C117 C116 1.424 . S
C117 C118 1.347 . S
C118 H110 0.951 . S
C118 C113 1.429 . S
C118 C117 1.347 . S
H119 C120 0.951 . S
C120 H119 0.951 . S
C120 C126 1.265 . S
H121 C126 0.950 . S
H122 C130 0.949 . S
H123 C131 0.950 . S
H124 C132 0.951 . S
H125 C133 0.951 . S
C126 C120 1.265 . S
C126 H121 0.950 . S
C126 C127 1.478 . S
C127 C114 1.394 . S
C127 C126 1.478 . S
C127 C128 1.397 1_455 S
C128 C127 1.397 1_655 S
C128 C129 1.438 . S
C128 C133 1.429 . S
C129 C112 1.394 . S
C129 C128 1.438 . S
C129 C130 1.428 . S
C130 H122 0.949 . S
C130 C129 1.428 . S
C130 C131 1.345 . S
C131 H123 0.950 . S
C131 C130 1.345 . S
C131 C132 1.424 . S
C132 H124 0.951 . S
C132 C131 1.424 . S
C132 C133 1.347 . S
C133 H125 0.951 . S
C133 C128 1.429 . S
C133 C132 1.347 . S
H134 C135 0.951 . S
C135 H134 0.951 . S
C135 C141 1.265 . S
H136 C141 0.950 . S
H137 C145 0.949 . S
H138 C146 0.950 . S
H139 C147 0.951 . S
H140 C148 0.951 . S
C141 C135 1.265 . S
C141 H136 0.950 . S
C141 C142 1.478 . S
C142 C141 1.478 . S
C142 C143 1.397 . S
C142 C159 1.394 . S
C143 C142 1.397 . S
C143 C144 1.438 . S
C143 C148 1.429 . S
C144 C143 1.438 . S
C144 C145 1.428 . S
C144 C157 1.394 . S
C145 H137 0.949 . S
C145 C144 1.428 . S
C145 C146 1.345 . S
C146 H138 0.950 . S
C146 C145 1.345 . S
C146 C147 1.424 . S
C147 H139 0.951 . S
C147 C146 1.424 . S
C147 C148 1.347 . S
C148 H140 0.951 . S
C148 C143 1.429 . S
C148 C147 1.347 . S
H149 C150 0.951 . S
C150 H149 0.951 . S
C150 C156 1.265 . S
H151 C156 0.950 . S
H152 C160 0.949 . S
H153 C161 0.950 . S
H154 C162 0.951 . S
H155 C163 0.951 . S
C156 C150 1.265 . S
C156 H151 0.950 . S
C156 C157 1.478 . S
C157 C144 1.394 . S
C157 C156 1.478 . S
C157 C158 1.397 . S
C158 C157 1.397 . S
C158 C159 1.438 . S
C158 C163 1.429 . S
C159 C142 1.394 . S
C159 C158 1.438 . S
C159 C160 1.428 . S
C160 H152 0.949 . S
C160 C159 1.428 . S
C160 C161 1.345 . S
C161 H153 0.950 . S
C161 C160 1.345 . S
C161 C162 1.424 . S
C162 H154 0.951 . S
C162 C161 1.424 . S
C162 C163 1.347 . S
C163 H155 0.951 . S
C163 C158 1.429 . S
C163 C162 1.347 . S
H164 C165 0.951 . S
C165 H164 0.951 . S
C165 C171 1.265 . S
H166 C171 0.950 . S
H167 C175 0.949 1_565 S
H168 C176 0.950 . S
H169 C177 0.951 . S
H170 C178 0.951 . S
C171 C165 1.265 . S
C171 H166 0.950 . S
C171 C172 1.478 . S
C172 C171 1.478 . S
C172 C173 1.397 1_554 S
C172 C189 1.394 1_545 S
C173 C172 1.397 1_556 S
C173 C174 1.438 . S
C173 C178 1.429 . S
C174 C173 1.438 . S
C174 C175 1.428 . S
C174 C187 1.394 1_545 S
C175 H167 0.949 1_545 S
C175 C174 1.428 . S
C175 C176 1.345 . S
C176 H168 0.950 . S
C176 C175 1.345 . S
C176 C177 1.424 . S
C177 H169 0.951 . S
C177 C176 1.424 . S
C177 C178 1.347 . S
C178 H170 0.951 . S
C178 C173 1.429 . S
C178 C177 1.347 . S
H179 C180 0.951 . S
C180 H179 0.951 . S
C180 C186 1.265 . S
H181 C186 0.950 . S
H182 C190 0.949 1_545 S
H183 C191 0.950 . S
H184 C192 0.951 . S
H185 C193 0.951 . S
C186 C180 1.265 . S
C186 H181 0.950 . S
C186 C187 1.478 . S
C187 C174 1.394 1_565 S
C187 C186 1.478 . S
C187 C188 1.397 1_556 S
C188 C187 1.397 1_554 S
C188 C189 1.438 . S
C188 C193 1.429 . S
C189 C172 1.394 1_565 S
C189 C188 1.438 . S
C189 C190 1.428 . S
C190 H182 0.949 1_565 S
C190 C189 1.428 . S
C190 C191 1.345 . S
C191 H183 0.950 . S
C191 C190 1.345 . S
C191 C192 1.424 . S
C192 H184 0.951 . S
C192 C191 1.424 . S
C192 C193 1.347 . S
C193 H185 0.951 . S
C193 C188 1.429 . S
C193 C192 1.347 . S
H194 C195 0.951 1_655 S
C195 H194 0.951 1_455 S
C195 C201 1.265 . S
H196 C201 0.950 . S
H197 C205 0.949 1_545 S
H198 C206 0.950 . S
H199 C207 0.951 . S
H200 C208 0.951 . S
C201 C195 1.265 . S
C201 H196 0.950 . S
C201 C202 1.478 . S
C202 C201 1.478 . S
C202 C203 1.397 1_554 S
C202 C219 1.394 1_455 S
C203 C202 1.397 1_556 S
C203 C204 1.438 1_565 S
C203 C208 1.429 . S
C204 C203 1.438 1_545 S
C204 C205 1.428 1_545 S
C204 C217 1.394 1_455 S
C205 H197 0.949 1_565 S
C205 C204 1.428 1_565 S
C205 C206 1.345 . S
C206 H198 0.950 . S
C206 C205 1.345 . S
C206 C207 1.424 . S
C207 H199 0.951 . S
C207 C206 1.424 . S
C207 C208 1.347 . S
C208 H200 0.951 . S
C208 C203 1.429 . S
C208 C207 1.347 . S
H209 C210 0.951 1_455 S
C210 H209 0.951 1_655 S
C210 C216 1.265 . S
H211 C216 0.950 . S
H212 C220 0.949 1_565 S
H213 C221 0.950 . S
H214 C222 0.951 . S
H215 C223 0.951 . S
C216 C210 1.265 . S
C216 H211 0.950 . S
C216 C217 1.478 . S
C217 C204 1.394 1_655 S
C217 C216 1.478 . S
C217 C218 1.397 1_556 S
C218 C217 1.397 1_554 S
C218 C219 1.438 1_545 S
C218 C223 1.429 . S
C219 C202 1.394 1_655 S
C219 C218 1.438 1_565 S
C219 C220 1.428 1_565 S
C220 H212 0.949 1_545 S
C220 C219 1.428 1_545 S
C220 C221 1.345 . S
C221 H213 0.950 . S
C221 C220 1.345 . S
C221 C222 1.424 . S
C222 H214 0.951 . S
C222 C221 1.424 . S
C222 C223 1.347 . S
C223 H215 0.951 . S
C223 C218 1.429 . S
C223 C222 1.347 . S
H224 C225 0.951 . S
C225 H224 0.951 . S
C225 C231 1.265 . S
H226 C231 0.950 . S
H227 C235 0.949 . S
H228 C236 0.950 . S
H229 C237 0.951 . S
H230 C238 0.951 . S
C231 C225 1.265 . S
C231 H226 0.950 . S
C231 C232 1.478 . S
C232 C231 1.478 . S
C232 C233 1.397 . S
C232 C249 1.394 . S
C233 C232 1.397 . S
C233 C234 1.438 . S
C233 C238 1.429 . S
C234 C233 1.438 . S
C234 C235 1.428 . S
C234 C247 1.394 . S
C235 H227 0.949 . S
C235 C234 1.428 . S
C235 C236 1.345 . S
C236 H228 0.950 . S
C236 C235 1.345 . S
C236 C237 1.424 . S
C237 H229 0.951 . S
C237 C236 1.424 . S
C237 C238 1.347 . S
C238 H230 0.951 . S
C238 C233 1.429 . S
C238 C237 1.347 . S
H239 C240 0.951 . S
C240 H239 0.951 . S
C240 C246 1.265 . S
H241 C246 0.950 . S
H242 C250 0.949 . S
H243 C251 0.950 . S
H244 C252 0.951 . S
H245 C253 0.951 . S
C246 C240 1.265 . S
C246 H241 0.950 . S
C246 C247 1.478 . S
C247 C234 1.394 . S
C247 C246 1.478 . S
C247 C248 1.397 . S
C248 C247 1.397 . S
C248 C249 1.438 . S
C248 C253 1.429 . S
C249 C232 1.394 . S
C249 C248 1.438 . S
C249 C250 1.428 . S
C250 H242 0.949 . S
C250 C249 1.428 . S
C250 C251 1.345 . S
C251 H243 0.950 . S
C251 C250 1.345 . S
C251 C252 1.424 . S
C252 H244 0.951 . S
C252 C251 1.424 . S
C252 C253 1.347 . S
C253 H245 0.951 . S
C253 C248 1.429 . S
C253 C252 1.347 . S
H254 C255 0.951 . S
C255 H254 0.951 . S
C255 C261 1.265 . S
H256 C261 0.950 . S
H257 C265 0.949 . S
H258 C266 0.950 . S
H259 C267 0.951 . S
H260 C268 0.951 . S
C261 C255 1.265 . S
C261 H256 0.950 . S
C261 C262 1.478 . S
C262 C261 1.478 . S
C262 C263 1.397 . S
C262 C279 1.394 . S
C263 C262 1.397 . S
C263 C264 1.438 . S
C263 C268 1.429 . S
C264 C263 1.438 . S
C264 C265 1.428 . S
C264 C277 1.394 . S
C265 H257 0.949 . S
C265 C264 1.428 . S
C265 C266 1.345 . S
C266 H258 0.950 . S
C266 C265 1.345 . S
C266 C267 1.424 . S
C267 H259 0.951 . S
C267 C266 1.424 . S
C267 C268 1.347 . S
C268 H260 0.951 . S
C268 C263 1.429 . S
C268 C267 1.347 . S
H269 C270 0.951 . S
C270 H269 0.951 . S
C270 C276 1.265 . S
H271 C276 0.950 . S
H272 C280 0.949 . S
H273 C281 0.950 . S
H274 C282 0.951 . S
H275 C283 0.951 . S
C276 C270 1.265 . S
C276 H271 0.950 . S
C276 C277 1.478 . S
C277 C264 1.394 . S
C277 C276 1.478 . S
C277 C278 1.397 . S
C278 C277 1.397 . S
C278 C279 1.438 . S
C278 C283 1.429 . S
C279 C262 1.394 . S
C279 C278 1.438 . S
C279 C280 1.428 . S
C280 H272 0.949 . S
C280 C279 1.428 . S
C280 C281 1.345 . S
C281 H273 0.950 . S
C281 C280 1.345 . S
C281 C282 1.424 . S
C282 H274 0.951 . S
C282 C281 1.424 . S
C282 C283 1.347 . S
C283 H275 0.951 . S
C283 C278 1.429 . S
C283 C282 1.347 . S
H284 C285 0.951 . S
C285 H284 0.951 . S
C285 C291 1.265 . S
H286 C291 0.950 . S
H287 C295 0.949 . S
H288 C296 0.950 . S
H289 C297 0.951 . S
H290 C298 0.951 . S
C291 C285 1.265 . S
C291 H286 0.950 . S
C291 C292 1.478 . S
C292 C291 1.478 . S
C292 C293 1.397 . S
C292 C309 1.394 . S
C293 C292 1.397 . S
C293 C294 1.438 . S
C293 C298 1.429 . S
C294 C293 1.438 . S
C294 C295 1.428 . S
C294 C307 1.394 . S
C295 H287 0.949 . S
C295 C294 1.428 . S
C295 C296 1.345 . S
C296 H288 0.950 . S
C296 C295 1.345 . S
C296 C297 1.424 . S
C297 H289 0.951 . S
C297 C296 1.424 . S
C297 C298 1.347 . S
C298 H290 0.951 . S
C298 C293 1.429 . S
C298 C297 1.347 . S
H299 C300 0.951 . S
C300 H299 0.951 . S
C300 C306 1.265 . S
H301 C306 0.950 . S
H302 C310 0.949 . S
H303 C311 0.950 . S
H304 C312 0.951 . S
H305 C313 0.951 . S
C306 C300 1.265 . S
C306 H301 0.950 . S
C306 C307 1.478 . S
C307 C294 1.394 . S
C307 C306 1.478 . S
C307 C308 1.397 . S
C308 C307 1.397 . S
C308 C309 1.438 . S
C308 C313 1.429 . S
C309 C292 1.394 . S
C309 C308 1.438 . S
C309 C310 1.428 . S
C310 H302 0.949 . S
C310 C309 1.428 . S
C310 C311 1.345 . S
C311 H303 0.950 . S
C311 C310 1.345 . S
C311 C312 1.424 . S
C312 H304 0.951 . S
C312 C311 1.424 . S
C312 C313 1.347 . S
C313 H305 0.951 . S
C313 C308 1.429 . S
C313 C312 1.347 . S
H314 C315 0.951 . S
C315 H314 0.951 . S
C315 C321 1.265 . S
H316 C321 0.950 . S
H317 C325 0.949 . S
H318 C326 0.950 . S
H319 C327 0.951 . S
H320 C328 0.951 . S
C321 C315 1.265 . S
C321 H316 0.950 . S
C321 C322 1.478 . S
C322 C321 1.478 . S
C322 C323 1.397 . S
C322 C339 1.394 . S
C323 C322 1.397 . S
C323 C324 1.438 . S
C323 C328 1.429 . S
C324 C323 1.438 . S
C324 C325 1.428 . S
C324 C337 1.394 . S
C325 H317 0.949 . S
C325 C324 1.428 . S
C325 C326 1.345 . S
C326 H318 0.950 . S
C326 C325 1.345 . S
C326 C327 1.424 . S
C327 H319 0.951 . S
C327 C326 1.424 . S
C327 C328 1.347 . S
C328 H320 0.951 . S
C328 C323 1.429 . S
C328 C327 1.347 . S
H329 C330 0.951 . S
C330 H329 0.951 . S
C330 C336 1.265 . S
H331 C336 0.950 . S
H332 C340 0.949 . S
H333 C341 0.950 . S
H334 C342 0.951 . S
H335 C343 0.951 . S
C336 C330 1.265 . S
C336 H331 0.950 . S
C336 C337 1.478 . S
C337 C324 1.394 . S
C337 C336 1.478 . S
C337 C338 1.397 . S
C338 C337 1.397 . S
C338 C339 1.438 . S
C338 C343 1.429 . S
C339 C322 1.394 . S
C339 C338 1.438 . S
C339 C340 1.428 . S
C340 H332 0.949 . S
C340 C339 1.428 . S
C340 C341 1.345 . S
C341 H333 0.950 . S
C341 C340 1.345 . S
C341 C342 1.424 . S
C342 H334 0.951 . S
C342 C341 1.424 . S
C342 C343 1.347 . S
C343 H335 0.951 . S
C343 C338 1.429 . S
C343 C342 1.347 . S
H344 C345 0.951 . S
C345 H344 0.951 . S
C345 C351 1.265 . S
H346 C351 0.950 . S
H347 C355 0.949 . S
H348 C356 0.950 . S
H349 C357 0.951 . S
H350 C358 0.951 . S
C351 C345 1.265 . S
C351 H346 0.950 . S
C351 C352 1.478 . S
C352 C351 1.478 . S
C352 C353 1.397 . S
C352 C369 1.394 . S
C353 C352 1.397 . S
C353 C354 1.438 . S
C353 C358 1.429 . S
C354 C353 1.438 . S
C354 C355 1.428 . S
C354 C367 1.394 . S
C355 H347 0.949 . S
C355 C354 1.428 . S
C355 C356 1.345 . S
C356 H348 0.950 . S
C356 C355 1.345 . S
C356 C357 1.424 . S
C357 H349 0.951 . S
C357 C356 1.424 . S
C357 C358 1.347 . S
C358 H350 0.951 . S
C358 C353 1.429 . S
C358 C357 1.347 . S
H359 C360 0.951 . S
C360 H359 0.951 . S
C360 C366 1.265 . S
H361 C366 0.950 . S
H362 C370 0.949 . S
H363 C371 0.950 . S
H364 C372 0.951 . S
H365 C373 0.951 . S
C366 C360 1.265 . S
C366 H361 0.950 . S
C366 C367 1.478 . S
C367 C354 1.394 . S
C367 C366 1.478 . S
C367 C368 1.397 . S
C368 C367 1.397 . S
C368 C369 1.438 . S
C368 C373 1.429 . S
C369 C352 1.394 . S
C369 C368 1.438 . S
C369 C370 1.428 . S
C370 H362 0.949 . S
C370 C369 1.428 . S
C370 C371 1.345 . S
C371 H363 0.950 . S
C371 C370 1.345 . S
C371 C372 1.424 . S
C372 H364 0.951 . S
C372 C371 1.424 . S
C372 C373 1.347 . S
C373 H365 0.951 . S
C373 C368 1.429 . S
C373 C372 1.347 . S
H374 C375 0.951 . S
C375 H374 0.951 . S
C375 C381 1.265 . S
H376 C381 0.950 . S
H377 C385 0.949 . S
H378 C386 0.950 . S
H379 C387 0.951 . S
H380 C388 0.951 . S
C381 C375 1.265 . S
C381 H376 0.950 . S
C381 C382 1.478 . S
C382 C381 1.478 . S
C382 C383 1.397 . S
C382 C399 1.394 . S
C383 C382 1.397 . S
C383 C384 1.438 . S
C383 C388 1.429 . S
C384 C383 1.438 . S
C384 C385 1.428 . S
C384 C397 1.394 . S
C385 H377 0.949 . S
C385 C384 1.428 . S
C385 C386 1.345 . S
C386 H378 0.950 . S
C386 C385 1.345 . S
C386 C387 1.424 . S
C387 H379 0.951 . S
C387 C386 1.424 . S
C387 C388 1.347 . S
C388 H380 0.951 . S
C388 C383 1.429 . S
C388 C387 1.347 . S
H389 C390 0.951 . S
C390 H389 0.951 . S
C390 C396 1.265 . S
H391 C396 0.950 . S
H392 C400 0.949 . S
H393 C401 0.950 . S
H394 C402 0.951 . S
H395 C403 0.951 . S
C396 C390 1.265 . S
C396 H391 0.950 . S
C396 C397 1.478 . S
C397 C384 1.394 . S
C397 C396 1.478 . S
C397 C398 1.397 . S
C398 C397 1.397 . S
C398 C399 1.438 . S
C398 C403 1.429 . S
C399 C382 1.394 . S
C399 C398 1.438 . S
C399 C400 1.428 . S
C400 H392 0.949 . S
C400 C399 1.428 . S
C400 C401 1.345 . S
C401 H393 0.950 . S
C401 C400 1.345 . S
C401 C402 1.424 . S
C402 H394 0.951 . S
C402 C401 1.424 . S
C402 C403 1.347 . S
C403 H395 0.951 . S
C403 C398 1.429 . S
C403 C402 1.347 . S
H404 C405 0.951 . S
C405 H404 0.951 . S
C405 C411 1.265 . S
H406 C411 0.950 . S
H407 C415 0.949 . S
H408 C416 0.950 . S
H409 C417 0.951 . S
H410 C418 0.951 . S
C411 C405 1.265 . S
C411 H406 0.950 . S
C411 C412 1.478 . S
C412 C411 1.478 . S
C412 C413 1.397 . S
C412 C429 1.394 . S
C413 C412 1.397 . S
C413 C414 1.438 . S
C413 C418 1.429 . S
C414 C413 1.438 . S
C414 C415 1.428 . S
C414 C427 1.394 . S
C415 H407 0.949 . S
C415 C414 1.428 . S
C415 C416 1.345 . S
C416 H408 0.950 . S
C416 C415 1.345 . S
C416 C417 1.424 . S
C417 H409 0.951 . S
C417 C416 1.424 . S
C417 C418 1.347 . S
C418 H410 0.951 . S
C418 C413 1.429 . S
C418 C417 1.347 . S
H419 C420 0.951 . S
C420 H419 0.951 . S
C420 C426 1.265 . S
H421 C426 0.950 . S
H422 C430 0.949 . S
H423 C431 0.950 . S
H424 C432 0.951 . S
H425 C433 0.951 . S
C426 C420 1.265 . S
C426 H421 0.950 . S
C426 C427 1.478 . S
C427 C414 1.394 . S
C427 C426 1.478 . S
C427 C428 1.397 . S
C428 C427 1.397 . S
C428 C429 1.438 . S
C428 C433 1.429 . S
C429 C412 1.394 . S
C429 C428 1.438 . S
C429 C430 1.428 . S
C430 H422 0.949 . S
C430 C429 1.428 . S
C430 C431 1.345 . S
C431 H423 0.950 . S
C431 C430 1.345 . S
C431 C432 1.424 . S
C432 H424 0.951 . S
C432 C431 1.424 . S
C432 C433 1.347 . S
C433 H425 0.951 . S
C433 C428 1.429 . S
C433 C432 1.347 . S
H434 C435 0.951 . S
C435 H434 0.951 . S
C435 C441 1.265 . S
H436 C441 0.950 . S
H437 C445 0.949 . S
H438 C446 0.950 . S
H439 C447 0.951 . S
H440 C448 0.951 . S
C441 C435 1.265 . S
C441 H436 0.950 . S
C441 C442 1.478 . S
C442 C441 1.478 . S
C442 C443 1.397 . S
C442 C459 1.394 . S
C443 C442 1.397 . S
C443 C444 1.438 . S
C443 C448 1.429 . S
C444 C443 1.438 . S
C444 C445 1.428 . S
C444 C457 1.394 . S
C445 H437 0.949 . S
C445 C444 1.428 . S
C445 C446 1.345 . S
C446 H438 0.950 . S
C446 C445 1.345 . S
C446 C447 1.424 . S
C447 H439 0.951 . S
C447 C446 1.424 . S
C447 C448 1.347 . S
C448 H440 0.951 . S
C448 C443 1.429 . S
C448 C447 1.347 . S
H449 C450 0.951 . S
C450 H449 0.951 . S
C450 C456 1.265 . S
H451 C456 0.950 . S
H452 C460 0.949 . S
H453 C461 0.950 . S
H454 C462 0.951 . S
H455 C463 0.951 . S
C456 C450 1.265 . S
C456 H451 0.950 . S
C456 C457 1.478 . S
C457 C444 1.394 . S
C457 C456 1.478 . S
C457 C458 1.397 . S
C458 C457 1.397 . S
C458 C459 1.438 . S
C458 C463 1.429 . S
C459 C442 1.394 . S
C459 C458 1.438 . S
C459 C460 1.428 . S
C460 H452 0.949 . S
C460 C459 1.428 . S
C460 C461 1.345 . S
C461 H453 0.950 . S
C461 C460 1.345 . S
C461 C462 1.424 . S
C462 H454 0.951 . S
C462 C461 1.424 . S
C462 C463 1.347 . S
C463 H455 0.951 . S
C463 C458 1.429 . S
C463 C462 1.347 . S
H464 C465 0.951 . S
C465 H464 0.951 . S
C465 C471 1.265 . S
H466 C471 0.950 . S
H467 C475 0.949 . S
H468 C476 0.950 . S
H469 C477 0.951 . S
H470 C478 0.951 . S
C471 C465 1.265 . S
C471 H466 0.950 . S
C471 C472 1.478 . S
C472 C471 1.478 . S
C472 C473 1.397 . S
C472 C489 1.394 . S
C473 C472 1.397 . S
C473 C474 1.438 . S
C473 C478 1.429 . S
C474 C473 1.438 . S
C474 C475 1.428 . S
C474 C487 1.394 . S
C475 H467 0.949 . S
C475 C474 1.428 . S
C475 C476 1.345 . S
C476 H468 0.950 . S
C476 C475 1.345 . S
C476 C477 1.424 . S
C477 H469 0.951 . S
C477 C476 1.424 . S
C477 C478 1.347 . S
C478 H470 0.951 . S
C478 C473 1.429 . S
C478 C477 1.347 . S
H479 C480 0.951 . S
C480 H479 0.951 . S
C480 C486 1.265 . S
H481 C486 0.950 . S
H482 C490 0.949 . S
H483 C491 0.950 . S
H484 C492 0.951 . S
H485 C493 0.951 . S
C486 C480 1.265 . S
C486 H481 0.950 . S
C486 C487 1.478 . S
C487 C474 1.394 . S
C487 C486 1.478 . S
C487 C488 1.397 . S
C488 C487 1.397 . S
C488 C489 1.438 . S
C488 C493 1.429 . S
C489 C472 1.394 . S
C489 C488 1.438 . S
C489 C490 1.428 . S
C490 H482 0.949 . S
C490 C489 1.428 . S
C490 C491 1.345 . S
C491 H483 0.950 . S
C491 C490 1.345 . S
C491 C492 1.424 . S
C492 H484 0.951 . S
C492 C491 1.424 . S
C492 C493 1.347 . S
C493 H485 0.951 . S
C493 C488 1.429 . S
C493 C492 1.347 . S
H494 C495 0.951 . S
C495 H494 0.951 . S
C495 C501 1.265 . S
H496 C501 0.950 . S
H497 C505 0.949 . S
H498 C506 0.950 . S
H499 C507 0.951 . S
H500 C508 0.951 . S
C501 C495 1.265 . S
C501 H496 0.950 . S
C501 C502 1.478 . S
C502 C501 1.478 . S
C502 C503 1.397 . S
C502 C519 1.394 . S
C503 C502 1.397 . S
C503 C504 1.438 . S
C503 C508 1.429 . S
C504 C503 1.438 . S
C504 C505 1.428 . S
C504 C517 1.394 . S
C505 H497 0.949 . S
C505 C504 1.428 . S
C505 C506 1.345 . S
C506 H498 0.950 . S
C506 C505 1.345 . S
C506 C507 1.424 . S
C507 H499 0.951 . S
C507 C506 1.424 . S
C507 C508 1.347 . S
C508 H500 0.951 . S
C508 C503 1.429 . S
C508 C507 1.347 . S
H509 C510 0.951 . S
C510 H509 0.951 . S
C510 C516 1.265 . S
H511 C516 0.950 . S
H512 C520 0.949 . S
H513 C521 0.950 . S
H514 C522 0.951 . S
H515 C523 0.951 . S
C516 C510 1.265 . S
C516 H511 0.950 . S
C516 C517 1.478 . S
C517 C504 1.394 . S
C517 C516 1.478 . S
C517 C518 1.397 . S
C518 C517 1.397 . S
C518 C519 1.438 . S
C518 C523 1.429 . S
C519 C502 1.394 . S
C519 C518 1.438 . S
C519 C520 1.428 . S
C520 H512 0.949 . S
C520 C519 1.428 . S
C520 C521 1.345 . S
C521 H513 0.950 . S
C521 C520 1.345 . S
C521 C522 1.424 . S
C522 H514 0.951 . S
C522 C521 1.424 . S
C522 C523 1.347 . S
C523 H515 0.951 . S
C523 C518 1.429 . S
C523 C522 1.347 . S
H524 C525 0.951 . S
C525 H524 0.951 . S
C525 C531 1.265 . S
H526 C531 0.950 . S
H527 C535 0.949 . S
H528 C536 0.950 . S
H529 C537 0.951 . S
H530 C538 0.951 . S
C531 C525 1.265 . S
C531 H526 0.950 . S
C531 C532 1.478 . S
C532 C531 1.478 . S
C532 C533 1.397 . S
C532 C549 1.394 . S
C533 C532 1.397 . S
C533 C534 1.438 1_554 S
C533 C538 1.429 . S
C534 C533 1.438 1_556 S
C534 C535 1.428 . S
C534 C547 1.394 . S
C535 H527 0.949 . S
C535 C534 1.428 . S
C535 C536 1.345 . S
C536 H528 0.950 . S
C536 C535 1.345 . S
C536 C537 1.424 . S
C537 H529 0.951 . S
C537 C536 1.424 . S
C537 C538 1.347 1_556 S
C538 H530 0.951 . S
C538 C533 1.429 . S
C538 C537 1.347 1_554 S
H539 C540 0.951 . S
C540 H539 0.951 . S
C540 C546 1.265 . S
H541 C546 0.950 . S
H542 C550 0.949 . S
H543 C551 0.950 . S
H544 C552 0.951 . S
H545 C553 0.951 . S
C546 C540 1.265 . S
C546 H541 0.950 . S
C546 C547 1.478 . S
C547 C534 1.394 . S
C547 C546 1.478 . S
C547 C548 1.397 . S
C548 C547 1.397 . S
C548 C549 1.438 1_556 S
C548 C553 1.429 . S
C549 C532 1.394 . S
C549 C548 1.438 1_554 S
C549 C550 1.428 . S
C550 H542 0.949 . S
C550 C549 1.428 . S
C550 C551 1.345 . S
C551 H543 0.950 . S
C551 C550 1.345 . S
C551 C552 1.424 . S
C552 H544 0.951 . S
C552 C551 1.424 . S
C552 C553 1.347 1_554 S
C553 H545 0.951 . S
C553 C548 1.429 . S
C553 C552 1.347 1_556 S
H554 C555 0.951 . S
C555 H554 0.951 . S
C555 C561 1.265 . S
H556 C561 0.950 . S
H557 C565 0.949 . S
H558 C566 0.950 . S
H559 C567 0.952 . S
H560 C568 0.951 . S
C561 C555 1.265 . S
C561 H556 0.950 . S
C561 C562 1.478 . S
C562 C561 1.478 . S
C562 C563 1.397 . S
C562 C579 1.394 . S
C563 C562 1.397 . S
C563 C564 1.438 1_554 S
C563 C568 1.429 . S
C564 C563 1.438 1_556 S
C564 C565 1.428 . S
C564 C577 1.394 . S
C565 H557 0.949 . S
C565 C564 1.428 . S
C565 C566 1.345 . S
C566 H558 0.950 . S
C566 C565 1.345 . S
C566 C567 1.424 . S
C567 H559 0.952 . S
C567 C566 1.424 . S
C567 C568 1.347 1_556 S
C568 H560 0.951 . S
C568 C563 1.429 . S
C568 C567 1.347 1_554 S
H569 C570 0.951 . S
C570 H569 0.951 . S
C570 C576 1.265 . S
H571 C576 0.950 . S
H572 C580 0.949 . S
H573 C581 0.950 . S
H574 C582 0.952 . S
H575 C583 0.951 . S
C576 C570 1.265 . S
C576 H571 0.950 . S
C576 C577 1.478 . S
C577 C564 1.394 . S
C577 C576 1.478 . S
C577 C578 1.397 . S
C578 C577 1.397 . S
C578 C579 1.438 1_556 S
C578 C583 1.429 . S
C579 C562 1.394 . S
C579 C578 1.438 1_554 S
C579 C580 1.428 . S
C580 H572 0.949 . S
C580 C579 1.428 . S
C580 C581 1.345 . S
C581 H573 0.950 . S
C581 C580 1.345 . S
C581 C582 1.424 . S
C582 H574 0.952 . S
C582 C581 1.424 . S
C582 C583 1.347 1_554 S
C583 H575 0.951 . S
C583 C578 1.429 . S
C583 C582 1.347 1_556 S
C105 C3 1.908 . S
C120 C29 1.756 . S
C135 C42 1.764 . S
C150 C16 1.895 . S
C165 C81 1.829 . S
C180 C55 1.950 . S
C195 C68 1.897 . S
C210 C94 1.769 . S
C225 C83 2.047 . S
C240 C5 2.009 . S
C255 C18 1.975 . S
C270 C96 2.046 . S
C285 C31 2.034 . S
C300 C57 2.016 . S
C315 C44 2.045 . S
C330 C70 2.016 . S
C345 C79 2.186 . S
C360 C1 2.282 . S
C375 C14 2.247 . S
C390 C92 2.146 . S
C405 C53 2.278 . S
C420 C27 2.178 . S
C435 C66 2.278 . S
C450 C40 2.177 . S
C465 C23 0.406 . S
C480 C10 0.427 . S
C495 C36 0.424 . S
C510 C49 0.434 . S
C525 C75 0.611 . S
C540 C62 0.602 . S
C555 C88 0.557 . S
C570 C101 0.550 . S
