# Generated by pormake.
# Topology vba, (4)-cn, num edge types: 1
# Building blocks:
#     Node 0, Type 0, BuildingBlock: KOZSID_clean_sbu_0, # of connection points: 4
#     Node 1, Type 0, BuildingBlock: KOZSID_clean_sbu_0, # of connection points: 4
#     Node 2, Type 0, BuildingBlock: KOZSID_clean_sbu_0, # of connection points: 4
#     Node 3, Type 0, BuildingBlock: KOZSID_clean_sbu_0, # of connection points: 4
#     Node 4, Type 0, BuildingBlock: KOZSID_clean_sbu_0, # of connection points: 4
#     Node 5, Type 0, BuildingBlock: KOZSID_clean_sbu_0, # of connection points: 4
#     Node 6, Type 0, BuildingBlock: KOZSID_clean_sbu_0, # of connection points: 4
#     Node 7, Type 0, BuildingBlock: KOZSID_clean_sbu_0, # of connection points: 4
#     Node 8, Type 0, BuildingBlock: KOZSID_clean_sbu_0, # of connection points: 4
#     Node 9, Type 0, BuildingBlock: KOZSID_clean_sbu_0, # of connection points: 4
#     Node 10, Type 0, BuildingBlock: KOZSID_clean_sbu_0, # of connection points: 4
#     Node 11, Type 0, BuildingBlock: KOZSID_clean_sbu_0, # of connection points: 4
#     Node 12, Type 0, BuildingBlock: KOZSID_clean_sbu_0, # of connection points: 4
#     Node 13, Type 0, BuildingBlock: KOZSID_clean_sbu_0, # of connection points: 4
#     Node 14, Type 0, BuildingBlock: KOZSID_clean_sbu_0, # of connection points: 4
#     Node 15, Type 0, BuildingBlock: KOZSID_clean_sbu_0, # of connection points: 4
#     Node 16, Type 0, BuildingBlock: KOZSID_clean_sbu_0, # of connection points: 4
#     Node 17, Type 0, BuildingBlock: KOZSID_clean_sbu_0, # of connection points: 4
#     Node 18, Type 0, BuildingBlock: KOZSID_clean_sbu_0, # of connection points: 4
#     Node 19, Type 0, BuildingBlock: KOZSID_clean_sbu_0, # of connection points: 4
#     Node 20, Type 0, BuildingBlock: KOZSID_clean_sbu_0, # of connection points: 4
#     Node 21, Type 0, BuildingBlock: KOZSID_clean_sbu_0, # of connection points: 4
#     Node 22, Type 0, BuildingBlock: KOZSID_clean_sbu_0, # of connection points: 4
#     Node 23, Type 0, BuildingBlock: KOZSID_clean_sbu_0, # of connection points: 4
#     Node 24, Type 0, BuildingBlock: KOZSID_clean_sbu_0, # of connection points: 4
#     Node 25, Type 0, BuildingBlock: KOZSID_clean_sbu_0, # of connection points: 4
#     Node 26, Type 0, BuildingBlock: KOZSID_clean_sbu_0, # of connection points: 4
#     Node 27, Type 0, BuildingBlock: KOZSID_clean_sbu_0, # of connection points: 4
#     Node 28, Type 0, BuildingBlock: KOZSID_clean_sbu_0, # of connection points: 4
#     Node 29, Type 0, BuildingBlock: KOZSID_clean_sbu_0, # of connection points: 4
#     Node 30, Type 0, BuildingBlock: KOZSID_clean_sbu_0, # of connection points: 4
#     Node 31, Type 0, BuildingBlock: KOZSID_clean_sbu_0, # of connection points: 4
#     Edge 32, Type (0, 0), BuildingBlock: ZUJKAS_clean_linker_0, # of connection points: 2
#     Edge 33, Type (0, 0), BuildingBlock: ZUJKAS_clean_linker_0, # of connection points: 2
#     Edge 34, Type (0, 0), BuildingBlock: ZUJKAS_clean_linker_0, # of connection points: 2
#     Edge 35, Type (0, 0), BuildingBlock: ZUJKAS_clean_linker_0, # of connection points: 2
#     Edge 36, Type (0, 0), BuildingBlock: ZUJKAS_clean_linker_0, # of connection points: 2
#     Edge 37, Type (0, 0), BuildingBlock: ZUJKAS_clean_linker_0, # of connection points: 2
#     Edge 38, Type (0, 0), BuildingBlock: ZUJKAS_clean_linker_0, # of connection points: 2
#     Edge 39, Type (0, 0), BuildingBlock: ZUJKAS_clean_linker_0, # of connection points: 2
#     Edge 40, Type (0, 0), BuildingBlock: ZUJKAS_clean_linker_0, # of connection points: 2
#     Edge 41, Type (0, 0), BuildingBlock: ZUJKAS_clean_linker_0, # of connection points: 2
#     Edge 42, Type (0, 0), BuildingBlock: ZUJKAS_clean_linker_0, # of connection points: 2
#     Edge 43, Type (0, 0), BuildingBlock: ZUJKAS_clean_linker_0, # of connection points: 2
#     Edge 44, Type (0, 0), BuildingBlock: ZUJKAS_clean_linker_0, # of connection points: 2
#     Edge 45, Type (0, 0), BuildingBlock: ZUJKAS_clean_linker_0, # of connection points: 2
#     Edge 46, Type (0, 0), BuildingBlock: ZUJKAS_clean_linker_0, # of connection points: 2
#     Edge 47, Type (0, 0), BuildingBlock: ZUJKAS_clean_linker_0, # of connection points: 2
#     Edge 48, Type (0, 0), BuildingBlock: ZUJKAS_clean_linker_0, # of connection points: 2
#     Edge 49, Type (0, 0), BuildingBlock: ZUJKAS_clean_linker_0, # of connection points: 2
#     Edge 50, Type (0, 0), BuildingBlock: ZUJKAS_clean_linker_0, # of connection points: 2
#     Edge 51, Type (0, 0), BuildingBlock: ZUJKAS_clean_linker_0, # of connection points: 2
#     Edge 52, Type (0, 0), BuildingBlock: ZUJKAS_clean_linker_0, # of connection points: 2
#     Edge 53, Type (0, 0), BuildingBlock: ZUJKAS_clean_linker_0, # of connection points: 2
#     Edge 54, Type (0, 0), BuildingBlock: ZUJKAS_clean_linker_0, # of connection points: 2
#     Edge 55, Type (0, 0), BuildingBlock: ZUJKAS_clean_linker_0, # of connection points: 2
#     Edge 56, Type (0, 0), BuildingBlock: ZUJKAS_clean_linker_0, # of connection points: 2
#     Edge 57, Type (0, 0), BuildingBlock: ZUJKAS_clean_linker_0, # of connection points: 2
#     Edge 58, Type (0, 0), BuildingBlock: ZUJKAS_clean_linker_0, # of connection points: 2
#     Edge 59, Type (0, 0), BuildingBlock: ZUJKAS_clean_linker_0, # of connection points: 2
#     Edge 60, Type (0, 0), BuildingBlock: ZUJKAS_clean_linker_0, # of connection points: 2
#     Edge 61, Type (0, 0), BuildingBlock: ZUJKAS_clean_linker_0, # of connection points: 2
#     Edge 62, Type (0, 0), BuildingBlock: ZUJKAS_clean_linker_0, # of connection points: 2
#     Edge 63, Type (0, 0), BuildingBlock: ZUJKAS_clean_linker_0, # of connection points: 2
#     Edge 64, Type (0, 0), BuildingBlock: ZUJKAS_clean_linker_0, # of connection points: 2
#     Edge 65, Type (0, 0), BuildingBlock: ZUJKAS_clean_linker_0, # of connection points: 2
#     Edge 66, Type (0, 0), BuildingBlock: ZUJKAS_clean_linker_0, # of connection points: 2
#     Edge 67, Type (0, 0), BuildingBlock: ZUJKAS_clean_linker_0, # of connection points: 2
#     Edge 68, Type (0, 0), BuildingBlock: ZUJKAS_clean_linker_0, # of connection points: 2
#     Edge 69, Type (0, 0), BuildingBlock: ZUJKAS_clean_linker_0, # of connection points: 2
#     Edge 70, Type (0, 0), BuildingBlock: ZUJKAS_clean_linker_0, # of connection points: 2
#     Edge 71, Type (0, 0), BuildingBlock: ZUJKAS_clean_linker_0, # of connection points: 2
#     Edge 72, Type (0, 0), BuildingBlock: ZUJKAS_clean_linker_0, # of connection points: 2
#     Edge 73, Type (0, 0), BuildingBlock: ZUJKAS_clean_linker_0, # of connection points: 2
#     Edge 74, Type (0, 0), BuildingBlock: ZUJKAS_clean_linker_0, # of connection points: 2
#     Edge 75, Type (0, 0), BuildingBlock: ZUJKAS_clean_linker_0, # of connection points: 2
#     Edge 76, Type (0, 0), BuildingBlock: ZUJKAS_clean_linker_0, # of connection points: 2
#     Edge 77, Type (0, 0), BuildingBlock: ZUJKAS_clean_linker_0, # of connection points: 2
#     Edge 78, Type (0, 0), BuildingBlock: ZUJKAS_clean_linker_0, # of connection points: 2
#     Edge 79, Type (0, 0), BuildingBlock: ZUJKAS_clean_linker_0, # of connection points: 2
#     Edge 80, Type (0, 0), BuildingBlock: ZUJKAS_clean_linker_0, # of connection points: 2
#     Edge 81, Type (0, 0), BuildingBlock: ZUJKAS_clean_linker_0, # of connection points: 2
#     Edge 82, Type (0, 0), BuildingBlock: ZUJKAS_clean_linker_0, # of connection points: 2
#     Edge 83, Type (0, 0), BuildingBlock: ZUJKAS_clean_linker_0, # of connection points: 2
#     Edge 84, Type (0, 0), BuildingBlock: ZUJKAS_clean_linker_0, # of connection points: 2
#     Edge 85, Type (0, 0), BuildingBlock: ZUJKAS_clean_linker_0, # of connection points: 2
#     Edge 86, Type (0, 0), BuildingBlock: ZUJKAS_clean_linker_0, # of connection points: 2
#     Edge 87, Type (0, 0), BuildingBlock: ZUJKAS_clean_linker_0, # of connection points: 2
#     Edge 88, Type (0, 0), BuildingBlock: ZUJKAS_clean_linker_0, # of connection points: 2
#     Edge 89, Type (0, 0), BuildingBlock: ZUJKAS_clean_linker_0, # of connection points: 2
#     Edge 90, Type (0, 0), BuildingBlock: ZUJKAS_clean_linker_0, # of connection points: 2
#     Edge 91, Type (0, 0), BuildingBlock: ZUJKAS_clean_linker_0, # of connection points: 2
#     Edge 92, Type (0, 0), BuildingBlock: ZUJKAS_clean_linker_0, # of connection points: 2
#     Edge 93, Type (0, 0), BuildingBlock: ZUJKAS_clean_linker_0, # of connection points: 2
#     Edge 94, Type (0, 0), BuildingBlock: ZUJKAS_clean_linker_0, # of connection points: 2
#     Edge 95, Type (0, 0), BuildingBlock: ZUJKAS_clean_linker_0, # of connection points: 2
# Relax obj value: 0.009
# Max RMSD: 0.111
# Mean RMSD: 0.111
data_MOF--net-vba--node1-KOZSID_clean_sbu_0--edge1-ZUJKAS_clean_linker_0
_symmetry_space_group_name_H-M    P1
_symmetry_Int_Tables_number       1
_symmetry_cell_setting            triclinic
loop_
_symmetry_equiv_pos_as_xyz
'x, y, z'
_cell_length_a     37.370268
_cell_length_b     155.75417
_cell_length_c     75.135943
_cell_angle_alpha  90.047345
_cell_angle_beta   90.026772
_cell_angle_gamma 90.010661
loop_
_atom_site_label
_atom_site_type_symbol
_atom_site_fract_x
_atom_site_fract_y
_atom_site_fract_z
_atom_type_partial_charge
C0 C 0.23298 0.06011 0.03756 0.0
C1 C 0.20413 0.05452 0.03885 0.0
C2 C 0.20135 0.05045 0.02272 0.0
C3 C 0.22843 0.05378 0.01248 0.0
N4 N 0.24802 0.05969 0.02118 0.0
Co5 Co 0.28878 0.06628 0.01125 0.0
N6 N 0.27356 0.06387 0.98642 0.0
C7 C 0.25083 0.0576 0.98138 0.0
C8 C 0.24591 0.05724 0.96331 0.0
C9 C 0.26721 0.06359 0.95652 0.0
C10 C 0.28405 0.06752 0.9709 0.0
N11 N 0.32985 0.07282 1.00142 0.0
C12 C 0.33605 0.07565 0.98462 0.0
C13 C 0.36888 0.0798 0.98361 0.0
C14 C 0.38397 0.07936 1.00023 0.0
C15 C 0.35958 0.07502 0.0105 0.0
N16 N 0.30343 0.06866 0.03615 0.0
C17 C 0.33608 0.07118 0.04155 0.0
C18 C 0.33776 0.07252 0.05963 0.0
C19 C 0.30402 0.07072 0.06592 0.0
C20 C 0.28361 0.0684 0.05127 0.0
N21 N 0.31868 0.05581 0.01104 0.0
C22 C 0.36755 0.04194 0.01123 0.0
C23 C 0.34531 0.0436 0.02595 0.0
C24 C 0.32106 0.05054 0.02557 0.0
C25 C 0.36345 0.0472 0.99623 0.0
C26 C 0.33924 0.05403 0.99642 0.0
N27 N 0.25979 0.07682 0.01135 0.0
C28 C 0.2549 0.09195 0.01783 0.0
C29 C 0.21996 0.09219 0.01104 0.0
C30 C 0.20539 0.0845 0.00444 0.0
C31 C 0.22564 0.0769 0.00478 0.0
C32 C 0.27421 0.08426 0.01785 0.0
H33 H 0.21373 0.07108 0.99967 0.0
H34 H 0.30105 0.08438 0.02304 0.0
H35 H 0.30485 0.05175 0.03719 0.0
H36 H 0.33789 0.05798 0.98471 0.0
C37 C 0.2315 0.05292 0.99402 0.0
C38 C 0.24625 0.0655 0.05216 0.0
C39 C 0.31328 0.07378 0.96906 0.0
C40 C 0.36152 0.07386 0.02901 0.0
H41 H 0.18665 0.05356 0.05014 0.0
H42 H 0.18078 0.04596 0.01865 0.0
H43 H 0.22853 0.05296 0.95595 0.0
H44 H 0.27072 0.06499 0.94252 0.0
H45 H 0.38098 0.0827 0.97199 0.0
H46 H 0.40936 0.08204 0.00439 0.0
H47 H 0.36024 0.07492 0.06723 0.0
H48 H 0.29538 0.07109 0.07964 0.0
H49 H 0.34725 0.03975 0.0379 0.0
H50 H 0.37901 0.04609 0.98429 0.0
H51 H 0.26767 0.0977 0.02283 0.0
H52 H 0.17839 0.08431 0.99921 0.0
C53 C 0.02023 0.20655 0.03908 0.0
C54 C 0.0503 0.21177 0.03943 0.0
C55 C 0.05515 0.21468 0.02249 0.0
C56 C 0.02776 0.21113 0.01282 0.0
N57 N 0.00534 0.20624 0.02261 0.0
Co58 Co 0.96251 0.19976 0.01378 0.0
N59 N 0.97461 0.20234 0.98831 0.0
C60 C 1.00249 0.2071 0.98242 0.0
C61 C 1.00412 0.20782 0.96429 0.0
C62 C 0.97572 0.20319 0.95815 0.0
C63 C 0.95835 0.19986 0.97299 0.0
N64 N 0.9192 0.19344 0.00497 0.0
C65 C 0.90757 0.19194 0.9881 0.0
C66 C 0.87578 0.18733 0.98804 0.0
C67 C 0.86682 0.18596 0.00543 0.0
C68 C 0.89356 0.18976 0.01513 0.0
N69 N 0.95161 0.19689 0.03931 0.0
C70 C 0.92307 0.19243 0.04539 0.0
C71 C 0.92434 0.19079 0.0633 0.0
C72 C 0.95601 0.19422 0.06896 0.0
C73 C 0.9722 0.19783 0.05413 0.0
N74 N 0.93254 0.21051 0.01516 0.0
C75 C 0.88438 0.2247 0.01328 0.0
C76 C 0.87724 0.21757 0.02403 0.0
C77 C 0.90135 0.21069 0.02482 0.0
C78 C 0.91706 0.22474 0.00414 0.0
C79 C 0.94059 0.21771 0.00539 0.0
N80 N 0.99151 0.18906 0.01223 0.0
C81 C 0.99678 0.17373 0.01684 0.0
C82 C 0.0316 0.17364 0.01001 0.0
C83 C 0.04611 0.18151 0.00447 0.0
C84 C 0.02577 0.18909 0.00569 0.0
C85 C 0.97744 0.18139 0.01775 0.0
H86 H 0.0381 0.19491 1.00125 0.0
H87 H 0.95105 0.18096 0.02303 0.0
H88 H 0.89352 0.20552 0.03314 0.0
H89 H 0.96489 0.21825 0.9981 0.0
C90 C 0.02566 0.21116 0.99431 0.0
C91 C 0.00787 0.2017 0.05453 0.0
C92 C 0.92588 0.19464 0.97181 0.0
C93 C 0.89681 0.18941 0.03367 0.0
H94 H 0.0676 0.2131 0.05066 0.0
H95 H 0.07712 0.21855 0.01761 0.0
H96 H 0.02335 0.21139 0.95647 0.0
H97 H 0.9684 0.20248 0.9443 0.0
H98 H 0.86076 0.18511 0.97661 0.0
H99 H 0.84391 0.18245 0.0104 0.0
H100 H 0.90519 0.18722 0.07118 0.0
H101 H 0.96644 0.19389 0.08238 0.0
H102 H 0.85246 0.21714 0.03144 0.0
H103 H 0.9246 0.23018 0.99601 0.0
H104 H 0.98436 0.16791 0.02174 0.0
H105 H 0.07284 0.18183 0.99896 0.0
C106 C 0.24165 0.20763 0.21872 0.0
C107 C 0.21094 0.21265 0.21851 0.0
C108 C 0.20561 0.21541 0.23552 0.0
C109 C 0.23314 0.21193 0.24515 0.0
N110 N 0.25615 0.20722 0.23528 0.0
Co111 Co 0.29876 0.20066 0.24423 0.0
N112 N 0.28665 0.20331 0.26967 0.0
C113 C 0.25843 0.20795 0.27555 0.0
C114 C 0.25623 0.20849 0.29371 0.0
C115 C 0.28484 0.20395 0.29985 0.0
C116 C 0.30311 0.20094 0.285 0.0
N117 N 0.34171 0.19421 0.25314 0.0
C118 C 0.35361 0.19288 0.27002 0.0
C119 C 0.38543 0.18829 0.27018 0.0
C120 C 0.39396 0.18666 0.25283 0.0
C121 C 0.36706 0.19036 0.24307 0.0
N122 N 0.30995 0.19778 0.21875 0.0
C123 C 0.33847 0.19329 0.21272 0.0
C124 C 0.33764 0.19178 0.19474 0.0
C125 C 0.30632 0.19534 0.18898 0.0
C126 C 0.28978 0.19883 0.20383 0.0
N127 N 0.32897 0.21135 0.24295 0.0
C128 C 0.37629 0.22572 0.2445 0.0
C129 C 0.38495 0.21831 0.23488 0.0
C130 C 0.36123 0.21134 0.23421 0.0
C131 C 0.34269 0.22589 0.2528 0.0
C132 C 0.31965 0.21874 0.25178 0.0
N133 N 0.26932 0.18999 0.24563 0.0
C134 C 0.26296 0.17473 0.24013 0.0
C135 C 0.22795 0.17472 0.24668 0.0
C136 C 0.21415 0.18254 0.25291 0.0
C137 C 0.23505 0.19005 0.25219 0.0
C138 C 0.28293 0.18232 0.23979 0.0
H139 H 0.22299 0.19584 0.2569 0.0
H140 H 0.30942 0.18181 0.23468 0.0
H141 H 0.37014 0.20596 0.22676 0.0
H142 H 0.29459 0.21934 0.25843 0.0
C143 C 0.23504 0.21191 0.26367 0.0
C144 C 0.25456 0.20292 0.20316 0.0
C145 C 0.33626 0.19601 0.28621 0.0
C146 C 0.36418 0.19006 0.2245 0.0
H147 H 0.1933 0.21392 0.2074 0.0
H148 H 0.18318 0.21911 0.24047 0.0
H149 H 0.23632 0.21184 0.30154 0.0
H150 H 0.2916 0.20302 0.31372 0.0
H151 H 0.40098 0.18637 0.28166 0.0
H152 H 0.41699 0.18318 0.24792 0.0
H153 H 0.3569 0.18824 0.18686 0.0
H154 H 0.29635 0.19523 0.17545 0.0
H155 H 0.41053 0.21773 0.22823 0.0
H156 H 0.334 0.23151 0.26008 0.0
H157 H 0.27525 0.16885 0.23543 0.0
H158 H 0.18711 0.18291 0.25803 0.0
C159 C 0.02542 0.06123 0.22018 0.0
C160 C 0.05394 0.05557 0.2188 0.0
C161 C 0.05677 0.05153 0.23497 0.0
C162 C 0.02986 0.05492 0.24525 0.0
N163 N 0.01034 0.06083 0.23654 0.0
Co164 Co 0.96949 0.0674 0.24633 0.0
N165 N 0.98493 0.06516 0.27116 0.0
C166 C 0.00763 0.05891 0.27631 0.0
C167 C 0.01271 0.05868 0.29438 0.0
C168 C 0.99153 0.0651 0.30104 0.0
C169 C 0.9746 0.06892 0.28659 0.0
N170 N 0.92838 0.07396 0.25605 0.0
C171 C 0.92239 0.07692 0.27276 0.0
C172 C 0.88949 0.08104 0.27375 0.0
C173 C 0.8742 0.08045 0.25719 0.0
C174 C 0.89854 0.07605 0.24697 0.0
N175 N 0.95461 0.06957 0.22138 0.0
C176 C 0.92188 0.07202 0.21598 0.0
C177 C 0.92016 0.0733 0.19789 0.0
C178 C 0.95393 0.07154 0.19161 0.0
C179 C 0.97439 0.06926 0.20625 0.0
N180 N 0.93983 0.05688 0.24689 0.0
C181 C 0.89259 0.04267 0.24755 0.0
C182 C 0.91411 0.04438 0.23258 0.0
C183 C 0.93765 0.05146 0.23257 0.0
C184 C 0.89591 0.0482 0.26219 0.0
C185 C 0.91939 0.05518 0.2616 0.0
N186 N 0.99825 0.07798 0.24596 0.0
C187 C 1.00258 0.09312 0.23955 0.0
C188 C 0.0372 0.0935 0.24676 0.0
C189 C 0.05212 0.08582 0.25321 0.0
C190 C 0.03229 0.07816 0.25267 0.0
C191 C 0.9837 0.08537 0.23932 0.0
H192 H 0.04431 0.07239 0.25789 0.0
H193 H 0.95707 0.0854 0.23385 0.0
H194 H 0.95371 0.05262 0.22087 0.0
H195 H 0.92027 0.05931 0.27306 0.0
C196 C 0.02687 0.05414 0.26374 0.0
C197 C 0.01207 0.06655 0.20554 0.0
C198 C 0.94544 0.07522 0.28828 0.0
C199 C 0.89649 0.07476 0.2285 0.0
H200 H 0.07096 0.05451 0.20735 0.0
H201 H 0.07718 0.047 0.239 0.0
H202 H 0.03012 0.05445 0.30182 0.0
H203 H 0.98818 0.06661 0.315 0.0
H204 H 0.8775 0.08403 0.28531 0.0
H205 H 0.84874 0.08308 0.25301 0.0
H206 H 0.89767 0.0757 0.1903 0.0
H207 H 0.96253 0.072 0.1779 0.0
H208 H 0.91292 0.04026 0.22098 0.0
H209 H 0.87967 0.04731 0.27397 0.0
H210 H 0.99 0.09878 0.234 0.0
H211 H 0.07863 0.08574 0.25901 0.0
C212 C 0.7236 0.94831 0.95258 0.0
C213 C 0.70739 0.94475 0.93769 0.0
C214 C 0.67581 0.94126 0.94329 0.0
C215 C 0.67462 0.94282 0.96124 0.0
N216 N 0.70309 0.94729 0.96739 0.0
Co217 Co 0.71429 0.94997 0.99299 0.0
N218 N 0.67123 0.94354 1.00168 0.0
C219 C 0.64533 0.94 0.99146 0.0
C220 C 0.61816 0.93634 1.00109 0.0
C221 C 0.62706 0.93769 0.01851 0.0
C222 C 0.65938 0.94208 0.01851 0.0
N223 N 0.72685 0.95231 0.0185 0.0
C224 C 0.7107 0.94974 0.03376 0.0
C225 C 0.7293 0.95254 0.04869 0.0
C226 C 0.75781 0.95717 0.04267 0.0
C227 C 0.75524 0.95686 0.0245 0.0
N228 N 0.75674 0.95661 0.98427 0.0
C229 C 0.77912 0.96147 0.99417 0.0
C230 C 0.80624 0.96515 0.98454 0.0
C231 C 0.80127 0.96234 0.9675 0.0
C232 C 0.7714 0.95705 0.96777 0.0
N233 N 0.68412 0.96068 0.99223 0.0
C234 C 0.63499 0.97461 0.99537 0.0
C235 C 0.66755 0.97457 0.00463 0.0
C236 C 0.69154 0.96767 0.00279 0.0
C237 C 0.62871 0.96776 0.9837 0.0
C238 C 0.6533 0.961 0.98229 0.0
N239 N 0.74356 0.93931 0.99392 0.0
C240 C 0.79906 0.93186 1.00041 0.0
C241 C 0.78472 0.92405 0.99451 0.0
C242 C 0.74932 0.92404 0.98848 0.0
C243 C 0.72943 0.93164 0.98836 0.0
C244 C 0.77823 0.93937 0.99992 0.0
H245 H 0.70257 0.93116 0.98367 0.0
H246 H 0.79064 0.94519 0.00436 0.0
H247 H 0.71556 0.96808 0.01038 0.0
H248 H 0.64622 0.95605 0.97322 0.0
C249 C 0.64839 0.93976 0.97291 0.0
C250 C 0.7592 0.95222 0.95225 0.0
C251 C 0.67725 0.94491 0.03481 0.0
C252 C 0.77778 0.96118 0.01271 0.0
H253 H 0.71775 0.94449 0.92425 0.0
H254 H 0.65665 0.93772 0.93535 0.0
H255 H 0.59478 0.93303 0.99606 0.0
H256 H 0.61147 0.93571 0.02992 0.0
H257 H 0.72269 0.95146 0.06253 0.0
H258 H 0.77773 0.96046 0.0506 0.0
H259 H 0.82826 0.96898 0.9895 0.0
H260 H 0.81844 0.96375 0.95628 0.0
H261 H 0.67419 0.97972 0.01375 0.0
H262 H 0.60468 0.96757 0.97565 0.0
H263 H 0.82643 0.93223 0.00509 0.0
H264 H 0.7367 0.91815 0.98405 0.0
C265 C 0.03861 0.81867 0.95378 0.0
C266 C 0.05858 0.82103 0.939 0.0
C267 C 0.09237 0.82293 0.94506 0.0
C268 C 0.09118 0.8217 0.96316 0.0
N269 N 0.05875 0.81914 0.9688 0.0
Co270 Co 0.0446 0.81715 0.99394 0.0
N271 N 0.08562 0.82391 0.00319 0.0
C272 C 0.11516 0.826 0.99388 0.0
C273 C 0.13974 0.83047 0.00383 0.0
C274 C 0.12494 0.83113 0.02048 0.0
C275 C 0.09205 0.82699 0.01979 0.0
N276 N 0.02989 0.8151 0.01896 0.0
C277 C 0.04048 0.81902 0.03419 0.0
C278 C 0.02382 0.81535 0.04887 0.0
C279 C 1.00264 0.80884 0.04258 0.0
C280 C 0.00741 0.80888 0.02448 0.0
N281 N 1.00383 0.81038 0.98459 0.0
C282 C 0.98478 0.80451 0.99367 0.0
C283 C 0.95792 0.8009 0.98365 0.0
C284 C 0.96025 0.80477 0.96728 0.0
C285 C 0.98842 0.81055 0.96828 0.0
N286 N 0.07478 0.80673 0.99474 0.0
C287 C 0.12374 0.79289 0.99547 0.0
C288 C 0.12011 0.79847 0.00999 0.0
C289 C 0.09577 0.80527 0.00936 0.0
C290 C 0.10108 0.79422 0.98075 0.0
C291 C 0.07684 0.80116 0.98065 0.0
N292 N 0.01532 0.82763 0.99333 0.0
C293 C 0.9614 0.83538 1.0008 0.0
C294 C 0.97586 0.84305 0.99408 0.0
C295 C 0.01021 0.84272 0.98659 0.0
C296 C 0.02937 0.83501 0.98639 0.0
C297 C 0.98148 0.82776 1.00027 0.0
H298 H 0.05583 0.83506 0.98074 0.0
H299 H 0.96985 0.82199 0.00572 0.0
H300 H 0.09465 0.80945 0.02074 0.0
H301 H 0.06032 0.80214 0.96903 0.0
C302 C 0.11674 0.82459 0.97545 0.0
C303 C 1.0011 0.81576 0.95328 0.0
C304 C 0.06961 0.82534 0.03553 0.0
C305 C 0.98813 0.80394 0.01218 0.0
H306 H 0.0497 0.82147 0.92534 0.0
H307 H 0.11447 0.82542 0.93731 0.0
H308 H 0.16507 0.83309 0.99943 0.0
H309 H 0.13726 0.83416 0.03192 0.0
H310 H 0.02738 0.81703 0.06274 0.0
H311 H 0.98542 0.80466 0.05027 0.0
H312 H 0.93787 0.79635 0.98798 0.0
H313 H 0.94314 0.80351 0.95595 0.0
H314 H 0.13612 0.79764 0.02188 0.0
H315 H 0.1027 0.79009 0.96919 0.0
H316 H 0.93509 0.83527 0.00682 0.0
H317 H 0.0224 0.84837 0.98083 0.0
C318 C 0.72801 0.81848 0.7985 0.0
C319 C 0.70729 0.82113 0.8128 0.0
C320 C 0.67391 0.82296 0.80614 0.0
C321 C 0.67608 0.8214 0.78817 0.0
N322 N 0.70874 0.8187 0.78317 0.0
Co323 Co 0.72424 0.81624 0.7584 0.0
N324 N 0.68379 0.82283 0.74805 0.0
C325 C 0.65386 0.82514 0.75681 0.0
C326 C 0.62997 0.82947 0.74624 0.0
C327 C 0.6456 0.82979 0.72974 0.0
C328 C 0.67824 0.82557 0.73112 0.0
N329 N 0.74036 0.81372 0.73376 0.0
C330 C 0.73051 0.81731 0.71806 0.0
C331 C 0.74781 0.8133 0.70392 0.0
C332 C 0.76867 0.80694 0.71104 0.0
C333 C 0.76306 0.80739 0.72905 0.0
N334 N 0.76439 0.80962 0.76882 0.0
C335 C 0.78382 0.80357 0.76046 0.0
C336 C 0.80998 0.80011 0.77111 0.0
C337 C 0.80677 0.80426 0.78715 0.0
C338 C 0.77883 0.81006 0.78533 0.0
N339 N 0.694 0.80582 0.758 0.0
C340 C 0.64427 0.79215 0.75791 0.0
C341 C 0.64897 0.79738 0.74294 0.0
C342 C 0.6737 0.8041 0.74324 0.0
C343 C 0.66635 0.79371 0.77275 0.0
C344 C 0.69098 0.80057 0.77252 0.0
N345 N 0.75356 0.82672 0.75866 0.0
C346 C 0.80847 0.83427 0.75222 0.0
C347 C 0.79374 0.84203 0.7584 0.0
C348 C 0.75849 0.84187 0.76477 0.0
C349 C 0.73904 0.83421 0.7648 0.0
C350 C 0.788 0.8267 0.75251 0.0
H351 H 0.71198 0.8344 0.76968 0.0
H352 H 0.79998 0.82084 0.74769 0.0
H353 H 0.67561 0.80803 0.73153 0.0
H354 H 0.70697 0.80174 0.78425 0.0
C355 C 0.65129 0.82409 0.77532 0.0
C356 C 0.76541 0.81553 0.79975 0.0
C357 C 0.70131 0.82355 0.71578 0.0
C358 C 0.78152 0.80267 0.74198 0.0
H359 H 0.71542 0.82181 0.82655 0.0
H360 H 0.65145 0.82561 0.81338 0.0
H361 H 0.60456 0.83223 0.75012 0.0
H362 H 0.63399 0.83265 0.71795 0.0
H363 H 0.74483 0.81463 0.68987 0.0
H364 H 0.78613 0.80259 0.70394 0.0
H365 H 0.83014 0.79545 0.76742 0.0
H366 H 0.82316 0.80317 0.79882 0.0
H367 H 0.63342 0.79634 0.73096 0.0
H368 H 0.6639 0.78984 0.78465 0.0
H369 H 0.8357 0.83402 0.74734 0.0
H370 H 0.74555 0.84768 0.76942 0.0
C371 C 0.03915 0.94791 0.80218 0.0
C372 C 0.0556 0.94436 0.81701 0.0
C373 C 0.0871 0.94088 0.81127 0.0
C374 C 0.08811 0.94249 0.79334 0.0
N375 N 0.05953 0.94696 0.78731 0.0
Co376 Co 0.04863 0.94991 0.76183 0.0
N377 N 0.09232 0.94374 0.75298 0.0
C378 C 0.11802 0.94007 0.76312 0.0
C379 C 0.1451 0.93642 0.75341 0.0
C380 C 0.13634 0.9379 0.73604 0.0
C381 C 0.10432 0.94242 0.73612 0.0
N382 N 0.03656 0.95254 0.73637 0.0
C383 C 0.05323 0.95023 0.72104 0.0
C384 C 0.0357 0.95354 0.70622 0.0
C385 C 0.00679 0.95796 0.71237 0.0
C386 C 0.00831 0.95716 0.73049 0.0
N387 N 0.0055 0.95628 0.77074 0.0
C388 C 0.98256 0.96101 0.76088 0.0
C389 C 0.95484 0.96443 0.77047 0.0
C390 C 0.96006 0.96164 0.78746 0.0
C391 C 0.9909 0.95667 0.78729 0.0
N392 N 0.078 0.96071 0.76345 0.0
C393 C 0.12498 0.97512 0.76212 0.0
C394 C 0.09223 0.97511 0.75303 0.0
C395 C 0.06928 0.96797 0.75399 0.0
C396 C 0.13285 0.96792 0.7725 0.0
C397 C 0.10929 0.96092 0.77304 0.0
N398 N 0.02008 0.93914 0.76011 0.0
C399 C 0.96511 0.93154 0.75318 0.0
C400 C 0.97997 0.92371 0.75864 0.0
C401 C 0.01543 0.92378 0.76459 0.0
C402 C 0.03472 0.93146 0.76521 0.0
C403 C 0.98546 0.93913 0.75403 0.0
H404 H 0.06155 0.93102 0.76992 0.0
H405 H 0.97272 0.94494 0.74982 0.0
H406 H 0.04485 0.96845 0.74676 0.0
H407 H 0.11757 0.95569 0.78108 0.0
C408 C 0.11457 0.93958 0.78163 0.0
C409 C 1.00396 0.95201 0.80287 0.0
C410 C 0.08617 0.94519 0.71983 0.0
C411 C 0.98473 0.96106 0.74238 0.0
H412 H 0.04554 0.9442 0.83051 0.0
H413 H 0.10651 0.9374 0.81916 0.0
H414 H 0.16812 0.93295 0.75837 0.0
H415 H 0.15166 0.93582 0.72461 0.0
H416 H 0.04323 0.95294 0.69238 0.0
H417 H 0.98731 0.96147 0.70457 0.0
H418 H 0.93242 0.96813 0.76551 0.0
H419 H 0.94234 0.96288 0.79855 0.0
H420 H 0.08418 0.9806 0.74516 0.0
H421 H 0.15774 0.96752 0.77984 0.0
H422 H 0.9377 0.93187 0.74855 0.0
H423 H 0.02863 0.91791 0.76861 0.0
C424 C 0.23526 0.56105 0.53503 0.0
C425 C 0.20668 0.55538 0.53595 0.0
C426 C 0.20413 0.55154 0.51954 0.0
C427 C 0.23126 0.55506 0.50959 0.0
N428 N 0.25071 0.56083 0.51873 0.0
Co429 Co 0.29184 0.56751 0.50947 0.0
N430 N 0.27714 0.56549 0.48441 0.0
C431 C 0.25406 0.5594 0.47884 0.0
C432 C 0.24912 0.55942 0.46075 0.0
C433 C 0.27086 0.56583 0.4545 0.0
C434 C 0.28812 0.56935 0.46919 0.0
N435 N 0.33324 0.57417 0.5003 0.0
C436 C 0.34009 0.57716 0.48369 0.0
C437 C 0.37329 0.58116 0.48307 0.0
C438 C 0.3878 0.58051 0.49979 0.0
C439 C 0.3628 0.57618 0.50969 0.0
N440 N 0.30596 0.56947 0.53464 0.0
C441 C 0.33849 0.57191 0.54036 0.0
C442 C 0.33972 0.57307 0.55849 0.0
C443 C 0.30583 0.57122 0.56449 0.0
C444 C 0.28579 0.569 0.54964 0.0
N445 N 0.32157 0.55701 0.50871 0.0
C446 C 0.37054 0.54317 0.50823 0.0
C447 C 0.34781 0.54456 0.52289 0.0
C448 C 0.32355 0.55149 0.52286 0.0
C449 C 0.36687 0.54868 0.49361 0.0
C450 C 0.34253 0.55548 0.49411 0.0
N451 N 0.26303 0.57806 0.51007 0.0
C452 C 0.25849 0.59314 0.51706 0.0
C453 C 0.22406 0.59356 0.50966 0.0
C454 C 0.20931 0.58594 0.50282 0.0
C455 C 0.22916 0.57828 0.50318 0.0
C456 C 0.2774 0.5854 0.51709 0.0
H457 H 0.21727 0.57255 0.49767 0.0
H458 H 0.3039 0.58539 0.52271 0.0
H459 H 0.307 0.55251 0.53445 0.0
H460 H 0.34147 0.55961 0.48268 0.0
C461 C 0.23447 0.55452 0.49108 0.0
C462 C 0.24817 0.56621 0.55005 0.0
C463 C 0.31802 0.57546 0.46784 0.0
C464 C 0.36423 0.57475 0.52813 0.0
H465 H 0.18941 0.55419 0.54724 0.0
H466 H 0.18374 0.54708 0.51515 0.0
H467 H 0.23142 0.55537 0.45303 0.0
H468 H 0.2744 0.56754 0.44066 0.0
H469 H 0.38604 0.58405 0.47161 0.0
H470 H 0.41331 0.58302 0.50423 0.0
H471 H 0.36195 0.57544 0.56631 0.0
H472 H 0.29691 0.57157 0.57816 0.0
H473 H 0.34944 0.54049 0.53454 0.0
H474 H 0.38289 0.5478 0.48174 0.0
H475 H 0.27091 0.59875 0.52291 0.0
H476 H 0.18293 0.58589 0.49686 0.0
C477 C 0.02288 0.70765 0.53976 0.0
C478 C 0.05315 0.71281 0.54037 0.0
C479 C 0.05874 0.7157 0.52347 0.0
C480 C 0.03158 0.71221 0.51355 0.0
N481 N 0.00858 0.70738 0.52315 0.0
Co482 Co 0.96585 0.70099 0.5139 0.0
N483 N 0.97882 0.7036 0.48855 0.0
C484 C 0.00755 0.70813 0.48291 0.0
C485 C 0.0104 0.70864 0.46477 0.0
C486 C 0.98172 0.70418 0.45839 0.0
C487 C 0.96273 0.70127 0.47309 0.0
N488 N 0.92261 0.69477 0.50467 0.0
C489 C 0.91096 0.69353 0.48771 0.0
C490 C 0.87855 0.68918 0.48735 0.0
C491 C 0.86941 0.68762 0.50465 0.0
C492 C 0.89653 0.69112 0.51458 0.0
N493 N 0.95407 0.69808 0.53931 0.0
C494 C 0.92527 0.69362 0.54509 0.0
C495 C 0.92591 0.69193 0.56299 0.0
C496 C 0.95742 0.69532 0.56896 0.0
C497 C 0.97416 0.69896 0.55432 0.0
N498 N 0.93627 0.71178 0.51512 0.0
C499 C 0.88886 0.72609 0.51301 0.0
C500 C 0.88107 0.71897 0.52366 0.0
C501 C 0.90483 0.71202 0.52457 0.0
C502 C 0.92177 0.72606 0.50408 0.0
C503 C 0.94492 0.71896 0.50543 0.0
N504 N 0.99459 0.69024 0.51252 0.0
C505 C 0.99957 0.67491 0.51735 0.0
C506 C 0.03498 0.67486 0.51136 0.0
C507 C 0.04972 0.68269 0.50578 0.0
C508 C 0.02927 0.69025 0.50654 0.0
C509 C 0.98006 0.68257 0.51775 0.0
H510 H 0.04199 0.69606 0.50233 0.0
H511 H 0.95319 0.68212 0.52239 0.0
H512 H 0.89656 0.70685 0.53279 0.0
H513 H 0.96944 0.71942 0.49827 0.0
C514 C 0.03038 0.71216 0.49501 0.0
C515 C 0.00987 0.70282 0.55509 0.0
C516 C 0.92913 0.69652 0.47162 0.0
C517 C 0.89925 0.69069 0.53314 0.0
H518 H 0.07012 0.71409 0.55175 0.0
H519 H 0.0811 0.7195 0.51878 0.0
H520 H 0.03068 0.71194 0.4571 0.0
H521 H 0.97532 0.70327 0.44447 0.0
H522 H 0.86305 0.68735 0.47578 0.0
H523 H 0.84589 0.68428 0.50941 0.0
H524 H 0.90642 0.68837 0.57067 0.0
H525 H 0.96736 0.69495 0.58246 0.0
H526 H 0.85608 0.71859 0.5309 0.0
H527 H 0.92978 0.73149 0.49602 0.0
H528 H 0.98662 0.66903 0.52153 0.0
H529 H 0.07712 0.68301 0.50114 0.0
C530 C 0.23636 0.70791 0.72242 0.0
C531 C 0.20762 0.71355 0.72202 0.0
C532 C 0.20586 0.71729 0.73854 0.0
C533 C 0.23338 0.7137 0.74811 0.0
N534 N 0.25232 0.70796 0.73863 0.0
Co535 Co 0.29334 0.70109 0.74743 0.0
N536 N 0.27961 0.70302 0.77265 0.0
C537 C 0.25728 0.70918 0.77856 0.0
C538 C 0.25315 0.70912 0.79669 0.0
C539 C 0.27459 0.70258 0.8026 0.0
C540 C 0.29076 0.69901 0.78767 0.0
N541 N 0.33464 0.69425 0.75612 0.0
C542 C 0.34175 0.69111 0.77259 0.0
C543 C 0.37466 0.68697 0.77285 0.0
C544 C 0.38879 0.68771 0.75607 0.0
C545 C 0.36382 0.69222 0.74647 0.0
N546 N 0.30652 0.6992 0.72216 0.0
C547 C 0.33877 0.69674 0.71611 0.0
C548 C 0.33943 0.69577 0.69792 0.0
C549 C 0.30543 0.69776 0.69224 0.0
C550 C 0.2859 0.6998 0.70734 0.0
N551 N 0.32369 0.71148 0.74819 0.0
C552 C 0.37318 0.72521 0.74864 0.0
C553 C 0.34997 0.72395 0.7341 0.0
C554 C 0.32545 0.71707 0.73415 0.0
C555 C 0.36977 0.71963 0.76315 0.0
C556 C 0.34518 0.71288 0.76267 0.0
N557 N 0.2639 0.69064 0.74681 0.0
C558 C 0.25793 0.67566 0.7392 0.0
C559 C 0.22367 0.67535 0.74675 0.0
C560 C 0.20989 0.68292 0.75422 0.0
C561 C 0.2303 0.6905 0.75403 0.0
C562 C 0.2775 0.68331 0.73941 0.0
H563 H 0.219 0.69622 0.75982 0.0
H564 H 0.30392 0.68324 0.7337 0.0
H565 H 0.3085 0.71615 0.72267 0.0
H566 H 0.34431 0.70868 0.774 0.0
C567 C 0.23742 0.71415 0.76659 0.0
C568 C 0.2486 0.70279 0.70718 0.0
C569 C 0.31998 0.6927 0.78858 0.0
C570 C 0.3648 0.69376 0.72806 0.0
H571 H 0.18952 0.71478 0.71108 0.0
H572 H 0.18563 0.7217 0.74329 0.0
H573 H 0.23614 0.71323 0.80465 0.0
H574 H 0.27863 0.70082 0.81639 0.0
H575 H 0.38745 0.68391 0.7841 0.0
H576 H 0.41397 0.68513 0.75138 0.0
H577 H 0.3614 0.69349 0.68982 0.0
H578 H 0.29604 0.69768 0.67862 0.0
H579 H 0.35139 0.72807 0.72254 0.0
H580 H 0.38618 0.72042 0.77492 0.0
H581 H 0.27002 0.66997 0.73347 0.0
H582 H 0.18339 0.68304 0.76005 0.0
C583 C 0.02329 0.5609 0.71823 0.0
C584 C 0.05402 0.55589 0.71807 0.0
C585 C 0.05934 0.55317 0.73511 0.0
C586 C 0.03179 0.55666 0.74471 0.0
N587 N 0.00882 0.56136 0.73481 0.0
Co588 Co 0.96601 0.56785 0.74373 0.0
N589 N 0.97831 0.56532 0.76921 0.0
C590 C 0.00684 0.56081 0.77511 0.0
C591 C 0.00916 0.56033 0.79328 0.0
C592 C 0.98033 0.56481 0.7994 0.0
C593 C 0.96183 0.56771 0.78452 0.0
N594 N 0.9227 0.57417 0.75259 0.0
C595 C 0.91071 0.5755 0.76945 0.0
C596 C 0.87845 0.57991 0.76955 0.0
C597 C 0.86974 0.58142 0.75218 0.0
C598 C 0.89695 0.57783 0.74246 0.0
N599 N 0.95486 0.57069 0.71822 0.0
C600 C 0.92625 0.57514 0.71218 0.0
C601 C 0.92708 0.57666 0.69421 0.0
C602 C 0.95852 0.57315 0.68846 0.0
C603 C 0.97511 0.56967 0.70331 0.0
N604 N 0.93623 0.5571 0.74252 0.0
C605 C 0.88827 0.54291 0.74495 0.0
C606 C 0.88067 0.55002 0.73421 0.0
C607 C 0.90473 0.5569 0.73312 0.0
C608 C 0.9213 0.54289 0.75379 0.0
C609 C 0.94474 0.54993 0.75228 0.0
N610 N 0.99492 0.57858 0.74514 0.0
C611 C 0.99969 0.59394 0.74072 0.0
C612 C 0.03477 0.59404 0.74722 0.0
C613 C 0.04966 0.58618 0.7525 0.0
C614 C 0.02944 0.57858 0.75136 0.0
C615 C 0.9805 0.58625 0.73984 0.0
H616 H 0.04211 0.57278 0.75561 0.0
H617 H 0.95395 0.58667 0.73475 0.0
H618 H 0.89664 0.56206 0.72483 0.0
H619 H 0.96936 0.54944 0.75936 0.0
C620 C 0.03006 0.55678 0.76323 0.0
C621 C 0.01032 0.56557 0.70261 0.0
C622 C 0.9284 0.57254 0.7857 0.0
C623 C 0.90006 0.57817 0.72392 0.0
H624 H 0.07167 0.55461 0.70698 0.0
H625 H 0.08181 0.5495 0.74008 0.0
H626 H 0.02921 0.55705 0.80113 0.0
H627 H 0.97353 0.56576 0.81326 0.0
H628 H 0.86278 0.58181 0.781 0.0
H629 H 0.84643 0.58478 0.74722 0.0
H630 H 0.90765 0.58013 0.68631 0.0
H631 H 0.96845 0.57326 0.67493 0.0
H632 H 0.85562 0.55043 0.72701 0.0
H633 H 0.92918 0.53747 0.7619 0.0
H634 H 0.987 0.59977 0.73606 0.0
H635 H 0.07662 0.58587 0.75774 0.0
C636 C 0.72463 0.44988 0.45584 0.0
C637 C 0.70437 0.44741 0.44123 0.0
C638 C 0.67069 0.44557 0.44749 0.0
C639 C 0.67224 0.44695 0.46555 0.0
N640 N 0.70478 0.44954 0.47098 0.0
Co641 Co 0.71936 0.45173 0.49602 0.0
N642 N 0.67824 0.44511 0.50568 0.0
C643 C 0.64854 0.44299 0.49651 0.0
C644 C 0.62376 0.43874 0.5067 0.0
C645 C 0.63853 0.43828 0.52339 0.0
C646 C 0.67167 0.44229 0.52246 0.0
N647 N 0.73457 0.45396 0.52094 0.0
C648 C 0.72384 0.45027 0.53639 0.0
C649 C 0.74136 0.45393 0.55084 0.0
C650 C 0.76302 0.46026 0.54422 0.0
C651 C 0.75777 0.46009 0.52616 0.0
N652 N 0.76016 0.45837 0.48627 0.0
C653 C 0.77967 0.46424 0.49512 0.0
C654 C 0.80638 0.46775 0.48488 0.0
C655 C 0.8035 0.46381 0.4686 0.0
C656 C 0.77519 0.45808 0.46987 0.0
N657 N 0.68947 0.4622 0.49656 0.0
C658 C 0.64035 0.47601 0.49682 0.0
C659 C 0.6444 0.47063 0.51161 0.0
C660 C 0.66882 0.46384 0.51122 0.0
C661 C 0.66276 0.47452 0.48208 0.0
C662 C 0.68709 0.4676 0.48222 0.0
N663 N 0.74833 0.4412 0.49561 0.0
C664 C 0.80292 0.43352 0.5021 0.0
C665 C 0.78817 0.42583 0.49558 0.0
C666 C 0.75304 0.42608 0.48902 0.0
C667 C 0.73378 0.43377 0.48913 0.0
C668 C 0.78263 0.44111 0.50198 0.0
H669 H 0.70684 0.43367 0.48405 0.0
H670 H 0.79465 0.44691 0.50708 0.0
H671 H 0.6702 0.45982 0.52279 0.0
H672 H 0.70337 0.46649 0.47057 0.0
C673 C 0.64681 0.44421 0.47802 0.0
C674 C 0.76213 0.45279 0.45505 0.0
C675 C 0.6939 0.44419 0.53816 0.0
C676 C 0.77694 0.4649 0.51363 0.0
H677 H 0.71298 0.44688 0.42754 0.0
H678 H 0.64841 0.44304 0.43991 0.0
H679 H 0.59821 0.43617 0.50247 0.0
H680 H 0.62597 0.43551 0.53502 0.0
H681 H 0.73801 0.45237 0.56477 0.0
H682 H 0.78081 0.4644 0.55168 0.0
H683 H 0.82671 0.47228 0.48901 0.0
H684 H 0.8204 0.46498 0.45716 0.0
H685 H 0.62862 0.4716 0.52352 0.0
H686 H 0.66081 0.47849 0.47031 0.0
H687 H 0.83007 0.43371 0.50713 0.0
H688 H 0.74007 0.42034 0.4841 0.0
C689 C 0.03119 0.31846 0.45349 0.0
C690 C 0.04675 0.32154 0.43799 0.0
C691 C 0.07815 0.32536 0.44286 0.0
C692 C 0.08001 0.32441 0.46097 0.0
N693 N 0.05208 0.32003 0.46795 0.0
Co694 Co 0.04264 0.31785 0.49389 0.0
N695 N 0.08637 0.32445 0.5013 0.0
C696 C 0.11129 0.3279 0.49039 0.0
C697 C 0.13903 0.33176 0.49925 0.0
C698 C 0.13156 0.33067 0.51689 0.0
C699 C 0.09947 0.32621 0.51778 0.0
N700 N 0.03209 0.31598 0.51979 0.0
C701 C 0.04951 0.31879 0.53452 0.0
C702 C 0.03205 0.3163 0.55 0.0
C703 C 1.00291 0.31165 0.5449 0.0
C704 C 1.00403 0.31163 0.52668 0.0
N705 N 0.99947 0.31106 0.48645 0.0
C706 C 0.97719 0.30664 0.49726 0.0
C707 C 0.94915 0.30285 0.48854 0.0
C708 C 0.95344 0.30505 0.47113 0.0
C709 C 0.98414 0.31006 0.47018 0.0
N710 N 0.07255 0.30713 0.49339 0.0
C711 C 0.12059 0.29299 0.49624 0.0
C712 C 0.08814 0.29315 0.5056 0.0
C713 C 0.06466 0.30017 0.50389 0.0
C714 C 0.12756 0.2999 0.48486 0.0
C715 C 0.10348 0.30676 0.48358 0.0
N716 N 0.01353 0.32857 0.49456 0.0
C717 C 0.9588 0.33624 0.50159 0.0
C718 C 0.97312 0.34398 0.49524 0.0
C719 C 0.0081 0.3438 0.48865 0.0
C720 C 0.02753 0.33614 0.4884 0.0
C721 C 0.97927 0.32867 0.50111 0.0
H722 H 0.05396 0.33651 0.48317 0.0
H723 H 0.96691 0.32296 0.50605 0.0
H724 H 0.04051 0.29984 0.51141 0.0
H725 H 0.11108 0.31176 0.47478 0.0
C726 C 0.10687 0.32779 0.4719 0.0
C727 C 0.99631 0.31419 0.45378 0.0
C728 C 0.08293 0.32364 0.53457 0.0
C729 C 0.98008 0.30727 0.5157 0.0
H730 H 0.03621 0.32116 0.4246 0.0
H731 H 0.09698 0.32863 0.43426 0.0
H732 H 0.16186 0.33504 0.49356 0.0
H733 H 0.14792 0.33288 0.52786 0.0
H734 H 0.03974 0.31764 0.56362 0.0
H735 H 0.98343 0.30858 0.55344 0.0
H736 H 0.92707 0.29931 0.49431 0.0
H737 H 0.93511 0.30341 0.46052 0.0
H738 H 0.08077 0.28789 0.51425 0.0
H739 H 0.15218 0.30019 0.47729 0.0
H740 H 0.93173 0.33597 0.5067 0.0
H741 H 0.02088 0.3496 0.48387 0.0
C742 C 0.72196 0.31864 0.30197 0.0
C743 C 0.70588 0.32274 0.3163 0.0
C744 C 0.68183 0.32845 0.30937 0.0
C745 C 0.68431 0.32748 0.29127 0.0
N746 N 0.70787 0.32138 0.28628 0.0
Co747 Co 0.72003 0.31826 0.26121 0.0
N748 N 0.67837 0.32475 0.2515 0.0
C749 C 0.65857 0.33056 0.2604 0.0
C750 C 0.63109 0.33387 0.25042 0.0
C751 C 0.63382 0.32994 0.23416 0.0
C752 C 0.66308 0.32447 0.23511 0.0
N753 N 0.73245 0.31521 0.2362 0.0
C754 C 0.71276 0.31581 0.2211 0.0
C755 C 0.7324 0.31319 0.20636 0.0
C756 C 0.76541 0.31083 0.21248 0.0
C757 C 0.76416 0.31218 0.2305 0.0
N758 N 0.76188 0.31175 0.2708 0.0
C759 C 0.78971 0.30881 0.26113 0.0
C760 C 0.81555 0.30486 0.27111 0.0
C761 C 0.80382 0.30546 0.28826 0.0
C762 C 0.77127 0.30978 0.2878 0.0
N763 N 0.68966 0.3079 0.26286 0.0
C764 C 0.64223 0.29373 0.26177 0.0
C765 C 0.67716 0.29313 0.25491 0.0
C766 C 0.70042 0.30024 0.25569 0.0
C767 C 0.63219 0.30154 0.26962 0.0
C768 C 0.65607 0.30848 0.27001 0.0
N769 N 0.74971 0.32872 0.25938 0.0
C770 C 0.7902 0.339 0.27266 0.0
C771 C 0.78719 0.34447 0.25789 0.0
C772 C 0.76569 0.34171 0.24366 0.0
C773 C 0.74729 0.33387 0.24467 0.0
C774 C 0.77155 0.3312 0.27309 0.0
H775 H 0.73065 0.33207 0.23357 0.0
H776 H 0.7744 0.32728 0.28475 0.0
H777 H 0.72686 0.29957 0.25014 0.0
H778 H 0.64675 0.31441 0.2757 0.0
C779 C 0.66303 0.33167 0.2787 0.0
C780 C 0.75344 0.31304 0.30389 0.0
C781 C 0.6767 0.31947 0.21997 0.0
C782 C 0.78985 0.30945 0.24264 0.0
H783 H 0.71182 0.3219 0.33029 0.0
H784 H 0.66453 0.33277 0.31667 0.0
H785 H 0.61063 0.33834 0.25466 0.0
H786 H 0.61622 0.33098 0.22293 0.0
H787 H 0.72397 0.31306 0.19259 0.0
H788 H 0.78729 0.30819 0.20478 0.0
H789 H 0.84015 0.30195 0.26648 0.0
H790 H 0.81853 0.30328 0.29979 0.0
H791 H 0.68655 0.28722 0.24895 0.0
H792 H 0.60553 0.30243 0.27496 0.0
H793 H 0.8061 0.3408 0.28411 0.0
H794 H 0.76295 0.34556 0.23175 0.0
C795 C 0.03548 0.45027 0.30045 0.0
C796 C 0.0559 0.44767 0.3149 0.0
C797 C 0.08942 0.44581 0.30843 0.0
C798 C 0.08761 0.44731 0.29043 0.0
N799 N 0.05507 0.44999 0.28522 0.0
Co800 Co 0.04009 0.45235 0.26033 0.0
N801 N 0.08076 0.44571 0.2503 0.0
C802 C 0.11059 0.44349 0.25925 0.0
C803 C 0.13496 0.43922 0.24884 0.0
C804 C 0.11975 0.43884 0.23224 0.0
C805 C 0.08678 0.44292 0.23344 0.0
N806 N 0.02445 0.45474 0.23556 0.0
C807 C 0.03461 0.45106 0.21998 0.0
C808 C 0.01682 0.45481 0.20571 0.0
C809 C 0.99563 0.46117 0.21258 0.0
C810 C 1.00138 0.46094 0.23061 0.0
N811 N 0.99976 0.45903 0.27045 0.0
C812 C 0.98034 0.465 0.26186 0.0
C813 C 0.95395 0.46849 0.27232 0.0
C814 C 0.95694 0.46444 0.28847 0.0
C815 C 0.985 0.45866 0.2869 0.0
N816 N 0.07033 0.46278 0.25987 0.0
C817 C 0.118 0.47691 0.25915 0.0
C818 C 0.11413 0.47144 0.24445 0.0
C819 C 0.09045 0.46451 0.24507 0.0
C820 C 0.09688 0.47517 0.27424 0.0
C821 C 0.07312 0.46813 0.27429 0.0
N822 N 0.0107 0.44187 0.26059 0.0
C823 C 0.95562 0.43437 0.2541 0.0
C824 C 0.9706 0.42655 0.25967 0.0
C825 C 0.00586 0.42665 0.26605 0.0
C826 C 0.02524 0.43433 0.26647 0.0
C827 C 0.97612 0.44193 0.25458 0.0
H828 H 0.05223 0.43413 0.27147 0.0
H829 H 0.96413 0.44781 0.24992 0.0
H830 H 0.08914 0.46044 0.23353 0.0
H831 H 0.05734 0.46695 0.28608 0.0
C832 C 0.11273 0.4446 0.27776 0.0
C833 C 0.99807 0.45323 0.30148 0.0
C834 C 0.06417 0.4449 0.21793 0.0
C835 C 0.9827 0.46573 0.24335 0.0
H836 H 0.04751 0.44705 0.3286 0.0
H837 H 0.11174 0.44319 0.31584 0.0
H838 H 0.16049 0.43658 0.25287 0.0
H839 H 0.13191 0.43608 0.22049 0.0
H840 H 0.01962 0.45326 0.19173 0.0
H841 H 0.97777 0.46537 0.20531 0.0
H842 H 0.93371 0.47309 0.26842 0.0
H843 H 0.94028 0.46557 0.30001 0.0
H844 H 0.13007 0.47235 0.23257 0.0
H845 H 0.09851 0.47924 0.28591 0.0
H846 H 0.92854 0.43463 0.24899 0.0
H847 H 0.01845 0.42083 0.27082 0.0
C848 C 0.74062 0.0617 0.53823 0.0
C849 C 0.71003 0.05664 0.53842 0.0
C850 C 0.70432 0.05404 0.52132 0.0
C851 C 0.73154 0.05765 0.51168 0.0
N852 N 0.75466 0.0623 0.5216 0.0
Co853 Co 0.79719 0.0689 0.51271 0.0
N854 N 0.78429 0.06656 0.48723 0.0
C855 C 0.75556 0.06211 0.48131 0.0
C856 C 0.75273 0.06182 0.46315 0.0
C857 C 0.78141 0.06635 0.45705 0.0
C858 C 0.80037 0.06909 0.47192 0.0
N859 N 0.8403 0.07529 0.50386 0.0
C860 C 0.85197 0.07672 0.48698 0.0
C861 C 0.88427 0.08111 0.48686 0.0
C862 C 0.89334 0.08251 0.50423 0.0
C863 C 0.86628 0.07887 0.51396 0.0
N864 N 0.80889 0.07156 0.53823 0.0
C865 C 0.83753 0.07601 0.54428 0.0
C866 C 0.837 0.07741 0.5623 0.0
C867 C 0.80573 0.07383 0.56807 0.0
C868 C 0.78895 0.07043 0.55318 0.0
N869 N 0.827 0.05815 0.51338 0.0
C870 C 0.87461 0.04392 0.51051 0.0
C871 C 0.88253 0.05098 0.52135 0.0
C872 C 0.85864 0.05789 0.52266 0.0
C873 C 0.84148 0.04398 0.50176 0.0
C874 C 0.81824 0.05104 0.50347 0.0
N875 N 0.76817 0.07962 0.51186 0.0
C876 C 0.76326 0.09494 0.51693 0.0
C877 C 0.72763 0.095 0.51124 0.0
C878 C 0.71275 0.08717 0.5057 0.0
C879 C 0.7333 0.07962 0.50614 0.0
C880 C 0.78277 0.08728 0.51715 0.0
H881 H 0.72049 0.07383 0.50189 0.0
H882 H 0.80973 0.08772 0.52167 0.0
H883 H 0.86695 0.06301 0.53103 0.0
H884 H 0.79355 0.05062 0.49642 0.0
C885 C 0.73271 0.05795 0.49315 0.0
C886 C 0.75381 0.0663 0.55388 0.0
C887 C 0.83391 0.07387 0.47076 0.0
C888 C 0.8635 0.07912 0.53253 0.0
H889 H 0.6927 0.05525 0.54958 0.0
H890 H 0.68179 0.05038 0.51635 0.0
H891 H 0.73244 0.05862 0.45529 0.0
H892 H 0.78781 0.06744 0.44319 0.0
H893 H 0.89975 0.08308 0.4754 0.0
H894 H 0.91676 0.08584 0.50918 0.0
H895 H 0.85652 0.08085 0.57021 0.0
H896 H 0.79601 0.07385 0.58164 0.0
H897 H 0.90769 0.05135 0.52846 0.0
H898 H 0.83336 0.0386 0.49357 0.0
H899 H 0.77643 0.10081 0.52104 0.0
H900 H 0.6852 0.08683 0.5013 0.0
C901 C 0.52692 0.20836 0.53811 0.0
C902 C 0.55537 0.21402 0.53984 0.0
C903 C 0.55835 0.21823 0.52387 0.0
C904 C 0.53161 0.21492 0.51334 0.0
N905 N 0.51204 0.20892 0.52173 0.0
Co906 Co 0.47135 0.20243 0.5115 0.0
N907 N 0.48703 0.20495 0.48683 0.0
C908 C 0.50978 0.21125 0.48203 0.0
C909 C 0.51505 0.21167 0.46399 0.0
C910 C 0.49396 0.20532 0.45697 0.0
C911 C 0.47686 0.20135 0.47119 0.0
N912 N 0.43038 0.19596 0.50134 0.0
C913 C 0.42453 0.19319 0.48446 0.0
C914 C 0.39161 0.1891 0.48316 0.0
C915 C 0.37617 0.1895 0.49971 0.0
C916 C 0.40043 0.19377 0.51021 0.0
N917 N 0.45623 0.19997 0.53629 0.0
C918 C 0.42348 0.19743 0.54147 0.0
C919 C 0.42157 0.19595 0.55948 0.0
C920 C 0.45525 0.19766 0.56596 0.0
C921 C 0.47585 0.20013 0.55149 0.0
N922 N 0.44168 0.21293 0.51139 0.0
C923 C 0.39415 0.22705 0.51153 0.0
C924 C 0.41589 0.22522 0.52635 0.0
C925 C 0.43954 0.21818 0.52598 0.0
C926 C 0.39746 0.22171 0.4966 0.0
C927 C 0.42116 0.21477 0.49678 0.0
N928 N 0.50019 0.19188 0.51151 0.0
C929 C 0.5049 0.17673 0.51768 0.0
C930 C 0.54015 0.17654 0.5113 0.0
C931 C 0.55492 0.18426 0.50502 0.0
C932 C 0.53457 0.19184 0.50526 0.0
C933 C 0.48555 0.18441 0.51768 0.0
H934 H 0.54663 0.19768 0.5004 0.0
H935 H 0.45853 0.18426 0.52262 0.0
H936 H 0.4557 0.2169 0.5376 0.0
H937 H 0.42212 0.21078 0.48511 0.0
C938 C 0.52883 0.2159 0.49489 0.0
C939 C 0.51347 0.20287 0.55247 0.0
C940 C 0.44775 0.19506 0.4691 0.0
C941 C 0.39821 0.19484 0.52874 0.0
H942 H 0.57224 0.21497 0.55139 0.0
H943 H 0.57876 0.22282 0.52011 0.0
H944 H 0.53254 0.21599 0.45681 0.0
H945 H 0.49076 0.20396 0.44293 0.0
H946 H 0.37972 0.18626 0.47142 0.0
H947 H 0.35064 0.18683 0.50367 0.0
H948 H 0.39902 0.19345 0.56689 0.0
H949 H 0.46369 0.19707 0.57967 0.0
H950 H 0.41477 0.2292 0.53816 0.0
H951 H 0.38107 0.2227 0.4849 0.0
H952 H 0.49194 0.17095 0.5224 0.0
H953 H 0.58215 0.18449 0.50012 0.0
C954 C 0.73429 0.20836 0.72091 0.0
C955 C 0.70554 0.21398 0.71986 0.0
C956 C 0.70324 0.218 0.73608 0.0
C957 C 0.73047 0.21459 0.74611 0.0
N958 N 0.7497 0.20869 0.73722 0.0
Co959 Co 0.7905 0.202 0.74684 0.0
N960 N 0.77588 0.20434 0.77177 0.0
C961 C 0.75368 0.21067 0.77701 0.0
C962 C 0.74941 0.21104 0.79511 0.0
C963 C 0.77058 0.20462 0.80171 0.0
C964 C 0.78665 0.20063 0.78719 0.0
N965 N 0.83152 0.19534 0.75636 0.0
C966 C 0.83774 0.19234 0.77304 0.0
C967 C 0.87021 0.18802 0.77377 0.0
C968 C 0.88511 0.18855 0.75712 0.0
C969 C 0.86094 0.19309 0.7471 0.0
N970 N 0.80461 0.19973 0.72183 0.0
C971 C 0.83711 0.1972 0.71624 0.0
C972 C 0.83846 0.19597 0.69813 0.0
C973 C 0.80467 0.19785 0.69202 0.0
C974 C 0.78455 0.2001 0.7068 0.0
N975 N 0.82066 0.21242 0.74713 0.0
C976 C 0.86961 0.22626 0.74706 0.0
C977 C 0.8467 0.22477 0.73251 0.0
C978 C 0.82247 0.21784 0.73281 0.0
C979 C 0.86625 0.22084 0.76184 0.0
C980 C 0.8419 0.21403 0.76161 0.0
N981 N 0.76127 0.19151 0.74669 0.0
C982 C 0.75631 0.17638 0.7403 0.0
C983 C 0.72201 0.17606 0.74783 0.0
C984 C 0.70748 0.18376 0.75441 0.0
C985 C 0.72748 0.1914 0.75369 0.0
C986 C 0.77536 0.18409 0.73992 0.0
H987 H 0.71583 0.19719 0.75902 0.0
H988 H 0.80178 0.18402 0.73422 0.0
H989 H 0.80577 0.21674 0.7213 0.0
H990 H 0.84098 0.20997 0.77316 0.0
C991 C 0.73414 0.21542 0.76454 0.0
C992 C 0.74723 0.20304 0.70611 0.0
C993 C 0.8154 0.19421 0.78876 0.0
C994 C 0.86263 0.19438 0.72861 0.0
H995 H 0.68783 0.21503 0.70869 0.0
H996 H 0.68292 0.22251 0.74032 0.0
H997 H 0.73256 0.21539 0.80262 0.0
H998 H 0.77449 0.20324 0.81568 0.0
H999 H 0.88221 0.18493 0.7852 0.0
H1000 H 0.91017 0.18578 0.75276 0.0
H1001 H 0.86074 0.19357 0.69039 0.0
H1002 H 0.79578 0.19756 0.67832 0.0
H1003 H 0.84814 0.22877 0.72075 0.0
H1004 H 0.88248 0.2218 0.77361 0.0
H1005 H 0.76854 0.1707 0.73462 0.0
H1006 H 0.68118 0.18388 0.76043 0.0
C1007 C 0.52432 0.06158 0.7196 0.0
C1008 C 0.55474 0.05648 0.7192 0.0
C1009 C 0.56017 0.05367 0.73619 0.0
C1010 C 0.53276 0.05716 0.74592 0.0
N1011 N 0.50978 0.06191 0.73613 0.0
Co1012 Co 0.46664 0.06824 0.74505 0.0
N1013 N 0.47911 0.06569 0.77049 0.0
C1014 C 0.50783 0.06123 0.77636 0.0
C1015 C 0.5102 0.06074 0.79452 0.0
C1016 C 0.48121 0.06514 0.80067 0.0
C1017 C 0.46256 0.06801 0.78582 0.0
N1018 N 0.42299 0.07439 0.75394 0.0
C1019 C 0.41095 0.07565 0.77082 0.0
C1020 C 0.37844 0.07996 0.77096 0.0
C1021 C 0.36964 0.08147 0.7536 0.0
C1022 C 0.39705 0.07799 0.74385 0.0
N1023 N 0.45531 0.07108 0.71955 0.0
C1024 C 0.42655 0.07549 0.71355 0.0
C1025 C 0.4275 0.07713 0.69563 0.0
C1026 C 0.45917 0.07374 0.68988 0.0
C1027 C 0.47568 0.07016 0.70466 0.0
N1028 N 0.43748 0.05739 0.74369 0.0
C1029 C 0.39095 0.04291 0.74524 0.0
C1030 C 0.3829 0.05006 0.73473 0.0
C1031 C 0.40623 0.0571 0.7341 0.0
C1032 C 0.42363 0.04302 0.75439 0.0
C1033 C 0.44635 0.05021 0.75333 0.0
N1034 N 0.495 0.07904 0.74652 0.0
C1035 C 0.4996 0.09437 0.74152 0.0
C1036 C 0.53494 0.0945 0.74763 0.0
C1037 C 0.54981 0.08672 0.7534 0.0
C1038 C 0.52958 0.07911 0.75267 0.0
C1039 C 0.48033 0.08668 0.74114 0.0
H1040 H 0.54239 0.07334 0.75701 0.0
H1041 H 0.45353 0.08707 0.73638 0.0
H1042 H 0.39778 0.06228 0.72596 0.0
H1043 H 0.47073 0.04981 0.76063 0.0
C1044 C 0.53114 0.05723 0.76445 0.0
C1045 C 0.51142 0.06633 0.70413 0.0
C1046 C 0.42887 0.07273 0.78703 0.0
C1047 C 0.40018 0.07841 0.72531 0.0
H1048 H 0.5719 0.05517 0.70792 0.0
H1049 H 0.58252 0.04992 0.74103 0.0
H1050 H 0.53037 0.05748 0.80235 0.0
H1051 H 0.47438 0.06605 0.81454 0.0
H1052 H 0.36268 0.08179 0.78243 0.0
H1053 H 0.34616 0.08478 0.74868 0.0
H1054 H 0.40809 0.08064 0.6878 0.0
H1055 H 0.46936 0.07407 0.67642 0.0
H1056 H 0.35802 0.05039 0.72736 0.0
H1057 H 0.4318 0.03758 0.76238 0.0
H1058 H 0.48654 0.10021 0.73721 0.0
H1059 H 0.57715 0.08645 0.75815 0.0
C1060 C 0.22529 0.94992 0.4541 0.0
C1061 C 0.20473 0.94725 0.43975 0.0
C1062 C 0.1712 0.94549 0.4463 0.0
C1063 C 0.17313 0.94712 0.46426 0.0
N1064 N 0.20578 0.94979 0.46934 0.0
Co1065 Co 0.221 0.95233 0.49412 0.0
N1066 N 0.18032 0.94582 0.50442 0.0
C1067 C 0.15051 0.94347 0.49558 0.0
C1068 C 0.12676 0.93906 0.50607 0.0
C1069 C 0.14235 0.93873 0.52259 0.0
C1070 C 0.17479 0.94304 0.52132 0.0
N1071 N 0.23678 0.95495 0.51876 0.0
C1072 C 0.22665 0.95144 0.53448 0.0
C1073 C 0.24339 0.9556 0.54862 0.0
C1074 C 0.26427 0.96194 0.54146 0.0
C1075 C 0.25921 0.96135 0.52343 0.0
N1076 N 0.26142 0.95887 0.48377 0.0
C1077 C 0.28072 0.96496 0.49207 0.0
C1078 C 0.3071 0.96835 0.48146 0.0
C1079 C 0.30414 0.96411 0.4655 0.0
C1080 C 0.27612 0.95833 0.46734 0.0
N1081 N 0.19106 0.9628 0.49421 0.0
C1082 C 0.14415 0.97705 0.49431 0.0
C1083 C 0.14728 0.97165 0.50915 0.0
C1084 C 0.17064 0.96465 0.50884 0.0
C1085 C 0.16555 0.97516 0.4794 0.0
C1086 C 0.18889 0.96806 0.47965 0.0
N1087 N 0.25013 0.94182 0.49415 0.0
C1088 C 0.30494 0.93425 0.50077 0.0
C1089 C 0.29028 0.9265 0.49453 0.0
C1090 C 0.25507 0.92666 0.48808 0.0
C1091 C 0.23563 0.93432 0.488 0.0
C1092 C 0.2845 0.94183 0.50043 0.0
H1093 H 0.20863 0.93414 0.48303 0.0
H1094 H 0.29645 0.94769 0.50527 0.0
H1095 H 0.17153 0.96064 0.52048 0.0
H1096 H 0.20489 0.96676 0.46799 0.0
C1097 C 0.14815 0.94448 0.47705 0.0
C1098 C 0.26279 0.9528 0.45299 0.0
C1099 C 0.19782 0.94508 0.5367 0.0
C1100 C 0.27796 0.966 0.5105 0.0
H1101 H 0.21308 0.94651 0.42605 0.0
H1102 H 0.14879 0.94283 0.43901 0.0
H1103 H 0.10154 0.93622 0.5021 0.0
H1104 H 0.13085 0.93577 0.53429 0.0
H1105 H 0.24004 0.95439 0.56269 0.0
H1106 H 0.28139 0.96638 0.54856 0.0
H1107 H 0.32719 0.97303 0.48512 0.0
H1108 H 0.32071 0.96513 0.45389 0.0
H1109 H 0.13108 0.97268 0.52091 0.0
H1110 H 0.16448 0.97917 0.46764 0.0
H1111 H 0.33213 0.93451 0.50573 0.0
H1112 H 0.24217 0.92086 0.48339 0.0
C1113 C 0.53558 0.82041 0.45109 0.0
C1114 C 0.55228 0.82393 0.43631 0.0
C1115 C 0.58381 0.82737 0.44214 0.0
C1116 C 0.58459 0.82576 0.46008 0.0
N1117 N 0.55585 0.82133 0.46602 0.0
Co1118 Co 0.54453 0.81845 0.49148 0.0
N1119 N 0.58826 0.82456 0.50046 0.0
C1120 C 0.6143 0.82813 0.4904 0.0
C1121 C 0.6419 0.83152 0.50016 0.0
C1122 C 0.63317 0.82996 0.51751 0.0
C1123 C 0.6005 0.82573 0.51735 0.0
N1124 N 0.53198 0.81591 0.51692 0.0
C1125 C 0.54862 0.81818 0.53227 0.0
C1126 C 0.52973 0.81537 0.5471 0.0
C1127 C 0.50052 0.81106 0.5409 0.0
C1128 C 0.503 0.81154 0.52274 0.0
N1129 N 0.50142 0.81209 0.48245 0.0
C1130 C 0.47823 0.80743 0.49227 0.0
C1131 C 0.45065 0.80399 0.48259 0.0
C1132 C 0.45621 0.80672 0.46558 0.0
C1133 C 0.48709 0.81167 0.46584 0.0
N1134 N 0.57365 0.8076 0.49017 0.0
C1135 C 0.62071 0.79323 0.49225 0.0
C1136 C 0.588 0.79335 0.50137 0.0
C1137 C 0.56501 0.80047 0.50004 0.0
C1138 C 0.62841 0.80029 0.48141 0.0
C1139 C 0.6048 0.80727 0.4805 0.0
N1140 N 0.51623 0.82927 0.49294 0.0
C1141 C 0.46124 0.83696 0.49937 0.0
C1142 C 0.47661 0.84479 0.4942 0.0
C1143 C 0.51229 0.84465 0.4886 0.0
C1144 C 0.53133 0.83694 0.48807 0.0
C1145 C 0.48134 0.82934 0.49862 0.0
H1146 H 0.55835 0.83733 0.48363 0.0
H1147 H 0.46815 0.82355 0.50258 0.0
H1148 H 0.54062 0.8001 0.50735 0.0
H1149 H 0.61295 0.8124 0.47213 0.0
C1150 C 0.61107 0.82861 0.47187 0.0
C1151 C 0.50032 0.81634 0.45028 0.0
C1152 C 0.58265 0.82276 0.53354 0.0
C1153 C 0.47974 0.80756 0.5108 0.0
H1154 H 0.54237 0.82411 0.42278 0.0
H1155 H 0.6034 0.83082 0.43432 0.0
H1156 H 0.66549 0.83479 0.49525 0.0
H1157 H 0.64912 0.83171 0.52898 0.0
H1158 H 0.53654 0.81626 0.56098 0.0
H1159 H 0.48016 0.80785 0.54869 0.0
H1160 H 0.428 0.80036 0.48751 0.0
H1161 H 0.43861 0.80547 0.45444 0.0
H1162 H 0.58004 0.78797 0.50958 0.0
H1163 H 0.65323 0.8006 0.47401 0.0
H1164 H 0.43364 0.83667 0.5037 0.0
H1165 H 0.52584 0.85052 0.48479 0.0
C1166 C 0.22246 0.81977 0.29841 0.0
C1167 C 0.20273 0.82197 0.31337 0.0
C1168 C 0.16868 0.82378 0.30755 0.0
C1169 C 0.16951 0.82263 0.28941 0.0
N1170 N 0.20193 0.82021 0.28352 0.0
Co1171 Co 0.21551 0.81826 0.25829 0.0
N1172 N 0.17379 0.82486 0.24934 0.0
C1173 C 0.14439 0.82684 0.25887 0.0
C1174 C 0.11913 0.83116 0.24909 0.0
C1175 C 0.13329 0.83183 0.23231 0.0
C1176 C 0.16654 0.82786 0.23277 0.0
N1177 N 0.22966 0.81625 0.23317 0.0
C1178 C 0.21828 0.8201 0.218 0.0
C1179 C 0.235 0.81654 0.20321 0.0
C1180 C 0.25692 0.81014 0.20935 0.0
C1181 C 0.25257 0.81016 0.22747 0.0
N1182 N 0.25696 0.81163 0.26733 0.0
C1183 C 0.27624 0.80586 0.2581 0.0
C1184 C 0.30366 0.80238 0.26791 0.0
C1185 C 0.30146 0.80622 0.28432 0.0
C1186 C 0.2728 0.81187 0.28354 0.0
N1187 N 0.18598 0.80771 0.25769 0.0
C1188 C 0.13881 0.79349 0.25715 0.0
C1189 C 0.1414 0.79911 0.24264 0.0
C1190 C 0.16486 0.80609 0.24317 0.0
C1191 C 0.16106 0.79511 0.2719 0.0
C1192 C 0.18455 0.8022 0.27186 0.0
N1193 N 0.2442 0.82886 0.25876 0.0
C1194 C 0.29804 0.83671 0.25161 0.0
C1195 C 0.28374 0.84428 0.25892 0.0
C1196 C 0.24924 0.84388 0.2662 0.0
C1197 C 0.23003 0.83617 0.26595 0.0
C1198 C 0.27796 0.82908 0.25174 0.0
H1199 H 0.20348 0.83617 0.2715 0.0
H1200 H 0.28972 0.82337 0.2461 0.0
H1201 H 0.16515 0.81029 0.23183 0.0
H1202 H 0.20118 0.80329 0.2834 0.0
C1203 C 0.14342 0.82543 0.27732 0.0
C1204 C 0.26013 0.81702 0.29862 0.0
C1205 C 0.18845 0.82623 0.21684 0.0
C1206 C 0.27253 0.8053 0.23961 0.0
H1207 H 0.21197 0.82234 0.32699 0.0
H1208 H 0.14659 0.82613 0.31549 0.0
H1209 H 0.0937 0.83365 0.25366 0.0
H1210 H 0.12029 0.83473 0.22092 0.0
H1211 H 0.23097 0.81821 0.18938 0.0
H1212 H 0.27435 0.80607 0.20153 0.0
H1213 H 0.32398 0.79793 0.26342 0.0
H1214 H 0.31902 0.80505 0.29552 0.0
H1215 H 0.12459 0.79828 0.23102 0.0
H1216 H 0.16046 0.79092 0.2834 0.0
H1217 H 0.32471 0.83665 0.24599 0.0
H1218 H 0.23671 0.84955 0.27178 0.0
C1219 C 0.53678 0.94973 0.29927 0.0
C1220 C 0.55737 0.9472 0.31371 0.0
C1221 C 0.59094 0.94541 0.30722 0.0
C1222 C 0.58899 0.94688 0.28921 0.0
N1223 N 0.5563 0.94949 0.28404 0.0
Co1224 Co 0.54102 0.95178 0.25919 0.0
N1225 N 0.58171 0.94519 0.24913 0.0
C1226 C 0.61162 0.94298 0.25802 0.0
C1227 C 0.63558 0.93857 0.24763 0.0
C1228 C 0.61998 0.93809 0.23113 0.0
C1229 C 0.5873 0.94229 0.23233 0.0
N1230 N 0.52516 0.95416 0.23447 0.0
C1231 C 0.53513 0.95046 0.2189 0.0
C1232 C 0.51807 0.95438 0.20461 0.0
C1233 C 0.4972 0.9608 0.2115 0.0
C1234 C 0.50257 0.96047 0.22954 0.0
N1235 N 0.5006 0.9584 0.2693 0.0
C1236 C 0.4812 0.9644 0.26079 0.0
C1237 C 0.45479 0.96786 0.27128 0.0
C1238 C 0.45781 0.96377 0.28738 0.0
C1239 C 0.4859 0.958 0.28575 0.0
N1240 N 0.57099 0.96226 0.25867 0.0
C1241 C 0.61846 0.97642 0.25801 0.0
C1242 C 0.61482 0.97094 0.24331 0.0
C1243 C 0.59122 0.96398 0.2439 0.0
C1244 C 0.59719 0.97468 0.27305 0.0
C1245 C 0.57355 0.96762 0.27307 0.0
N1246 N 0.5119 0.94126 0.25953 0.0
C1247 C 0.4575 0.93355 0.25263 0.0
C1248 C 0.47234 0.92582 0.25889 0.0
C1249 C 0.50721 0.92611 0.26579 0.0
C1250 C 0.52639 0.93382 0.26595 0.0
C1251 C 0.47766 0.94118 0.25308 0.0
H1252 H 0.55318 0.93371 0.27122 0.0
H1253 H 0.4657 0.94699 0.24803 0.0
H1254 H 0.59005 0.95989 0.23238 0.0
H1255 H 0.55767 0.96644 0.28482 0.0
C1256 C 0.61401 0.94416 0.27651 0.0
C1257 C 0.49925 0.95259 0.30027 0.0
C1258 C 0.56409 0.94413 0.21693 0.0
C1259 C 0.48383 0.96524 0.2423 0.0
H1260 H 0.54905 0.94656 0.32743 0.0
H1261 H 0.61337 0.94284 0.3146 0.0
H1262 H 0.66097 0.93585 0.25165 0.0
H1263 H 0.63163 0.93511 0.21947 0.0
H1264 H 0.52118 0.95295 0.1906 0.0
H1265 H 0.47984 0.96512 0.20423 0.0
H1266 H 0.4346 0.97249 0.26744 0.0
H1267 H 0.44121 0.96488 0.29896 0.0
H1268 H 0.63086 0.97186 0.23147 0.0
H1269 H 0.59863 0.97876 0.28471 0.0
H1270 H 0.43079 0.93371 0.24706 0.0
H1271 H 0.51975 0.92041 0.27119 0.0
C1272 C 0.73075 0.55987 0.03559 0.0
C1273 C 0.70166 0.55435 0.03662 0.0
C1274 C 0.6987 0.55047 0.02029 0.0
C1275 C 0.72594 0.55384 0.01021 0.0
N1276 N 0.74582 0.55959 0.01919 0.0
Co1277 Co 0.7869 0.56618 0.00956 0.0
N1278 N 0.77162 0.56408 0.98461 0.0
C1279 C 0.74861 0.55792 0.97929 0.0
C1280 C 0.74377 0.55774 0.96121 0.0
C1281 C 0.76543 0.56409 0.9547 0.0
C1282 C 0.78241 0.56783 0.96924 0.0
N1283 N 0.8282 0.57276 1.00005 0.0
C1284 C 0.83457 0.57574 0.98337 0.0
C1285 C 0.86752 0.57985 0.98259 0.0
C1286 C 0.8825 0.57922 0.99922 0.0
C1287 C 0.85794 0.57481 0.00926 0.0
N1288 N 0.80164 0.56821 0.03459 0.0
C1289 C 0.8344 0.57059 0.0401 0.0
C1290 C 0.83614 0.57171 0.05824 0.0
C1291 C 0.80233 0.56993 0.06444 0.0
C1292 C 0.78181 0.56784 0.04969 0.0
N1293 N 0.81638 0.55564 0.00877 0.0
C1294 C 0.86347 0.54141 0.0078 0.0
C1295 C 0.84155 0.54299 0.02269 0.0
C1296 C 0.81816 0.55009 0.02289 0.0
C1297 C 0.86063 0.54709 0.99341 0.0
C1298 C 0.83714 0.55405 0.99412 0.0
N1299 N 0.75836 0.57679 0.01017 0.0
C1300 C 0.75423 0.59186 0.01726 0.0
C1301 C 0.71986 0.59237 0.00981 0.0
C1302 C 0.70493 0.58477 0.00289 0.0
C1303 C 0.72451 0.57707 0.00325 0.0
C1304 C 0.77292 0.58409 0.01722 0.0
H1305 H 0.71246 0.57137 0.99772 0.0
H1306 H 0.79943 0.58403 0.02283 0.0
H1307 H 0.80186 0.55117 0.03454 0.0
H1308 H 0.83654 0.55827 0.98281 0.0
C1309 C 0.72902 0.55317 0.99172 0.0
C1310 C 0.74424 0.56507 0.05045 0.0
C1311 C 0.812 0.57402 0.96767 0.0
C1312 C 0.85986 0.5734 0.0277 0.0
H1313 H 0.68417 0.55331 0.04788 0.0
H1314 H 0.67793 0.54608 0.01601 0.0
H1315 H 0.72623 0.55357 0.95366 0.0
H1316 H 0.76909 0.56559 0.94076 0.0
H1317 H 0.87979 0.58284 0.97112 0.0
H1318 H 0.90797 0.5818 0.00352 0.0
H1319 H 0.8587 0.57399 0.06595 0.0
H1320 H 0.79369 0.57019 0.07818 0.0
H1321 H 0.84229 0.53876 0.03411 0.0
H1322 H 0.87721 0.54633 0.9817 0.0
H1323 H 0.76681 0.59743 0.0232 0.0
H1324 H 0.67861 0.58478 0.99687 0.0
C1325 C 0.52568 0.70729 0.0364 0.0
C1326 C 0.55486 0.7128 0.03695 0.0
C1327 C 0.55743 0.71647 0.02041 0.0
C1328 C 0.52989 0.71298 0.01068 0.0
N1329 N 0.51016 0.70737 0.02008 0.0
Co1330 Co 0.46875 0.70067 0.01105 0.0
N1331 N 0.48319 0.70252 0.9859 0.0
C1332 C 0.50641 0.70851 0.98011 0.0
C1333 C 0.51112 0.70837 0.96201 0.0
C1334 C 0.4891 0.70197 0.95598 0.0
C1335 C 0.47195 0.69857 0.97081 0.0
N1336 N 0.42711 0.69401 1.00215 0.0
C1337 C 0.41998 0.69092 0.98562 0.0
C1338 C 0.38669 0.68696 0.98517 0.0
C1339 C 0.37237 0.68774 1.0019 0.0
C1340 C 0.39759 0.69211 0.01165 0.0
N1341 N 0.45486 0.69888 0.03627 0.0
C1342 C 0.42229 0.69657 0.04213 0.0
C1343 C 0.42109 0.69566 0.06032 0.0
C1344 C 0.45506 0.69752 0.0662 0.0
C1345 C 0.47513 0.69944 0.05121 0.0
N1346 N 0.43924 0.71121 0.0101 0.0
C1347 C 0.39076 0.72515 0.0093 0.0
C1348 C 0.41358 0.72383 0.02396 0.0
C1349 C 0.43758 0.71684 0.02409 0.0
C1350 C 0.39407 0.71952 0.99484 0.0
C1351 C 0.41816 0.71267 0.9955 0.0
N1352 N 0.49732 0.69008 0.01182 0.0
C1353 C 0.5015 0.67503 0.01905 0.0
C1354 C 0.53548 0.67445 0.0112 0.0
C1355 C 0.55026 0.68201 0.00407 0.0
C1356 C 0.53087 0.68973 0.00458 0.0
C1357 C 0.48296 0.68282 0.01915 0.0
H1358 H 0.54279 0.6954 0.99884 0.0
H1359 H 0.4567 0.68293 0.02503 0.0
H1360 H 0.4542 0.71587 0.03568 0.0
H1361 H 0.41896 0.70845 0.98419 0.0
C1362 C 0.52643 0.7134 0.99218 0.0
C1363 C 0.51262 0.70228 0.05161 0.0
C1364 C 0.44192 0.69249 0.96969 0.0
C1365 C 0.39633 0.69368 0.03004 0.0
H1366 H 0.57273 0.71397 0.04802 0.0
H1367 H 0.57817 0.72077 0.01576 0.0
H1368 H 0.52889 0.71233 0.95416 0.0
H1369 H 0.48535 0.70017 0.94219 0.0
H1370 H 0.37375 0.68402 0.97381 0.0
H1371 H 0.34684 0.68531 0.00646 0.0
H1372 H 0.39874 0.69348 0.06829 0.0
H1373 H 0.46409 0.69744 0.07989 0.0
H1374 H 0.41222 0.72799 0.03548 0.0
H1375 H 0.37796 0.72034 0.98298 0.0
H1376 H 0.48908 0.66949 0.02517 0.0
H1377 H 0.57627 0.68195 0.99774 0.0
C1378 C 0.73247 0.70836 0.22017 0.0
C1379 C 0.70401 0.71402 0.21853 0.0
C1380 C 0.7009 0.71815 0.2346 0.0
C1381 C 0.7276 0.7148 0.24509 0.0
N1382 N 0.74729 0.70885 0.23659 0.0
Co1383 Co 0.78797 0.70233 0.24675 0.0
N1384 N 0.77217 0.70475 0.27149 0.0
C1385 C 0.74926 0.711 0.27636 0.0
C1386 C 0.74401 0.7114 0.2944 0.0
C1387 C 0.76532 0.70509 0.30136 0.0
C1388 C 0.78252 0.70116 0.28711 0.0
N1389 N 0.82891 0.69583 0.25684 0.0
C1390 C 0.8349 0.69305 0.27371 0.0
C1391 C 0.86775 0.68893 0.2749 0.0
C1392 C 0.88306 0.68932 0.25833 0.0
C1393 C 0.85878 0.69362 0.24791 0.0
N1394 N 0.80318 0.69999 0.2219 0.0
C1395 C 0.83593 0.69745 0.21671 0.0
C1396 C 0.8379 0.69601 0.19868 0.0
C1397 C 0.80428 0.69776 0.19219 0.0
C1398 C 0.78363 0.70021 0.20667 0.0
N1399 N 0.81769 0.71285 0.24716 0.0
C1400 C 0.86521 0.72701 0.24752 0.0
C1401 C 0.8437 0.72522 0.23257 0.0
C1402 C 0.82005 0.71817 0.2327 0.0
C1403 C 0.86167 0.72159 0.2623 0.0
C1404 C 0.83802 0.71464 0.26187 0.0
N1405 N 0.75911 0.69176 0.24647 0.0
C1406 C 0.75414 0.67667 0.2396 0.0
C1407 C 0.71909 0.67642 0.24622 0.0
C1408 C 0.70453 0.68407 0.25298 0.0
C1409 C 0.72486 0.69166 0.25291 0.0
C1410 C 0.77358 0.68434 0.2399 0.0
H1411 H 0.7129 0.69746 0.25807 0.0
H1412 H 0.80052 0.68424 0.23484 0.0
H1413 H 0.80405 0.71694 0.22099 0.0
H1414 H 0.83697 0.7106 0.27345 0.0
C1415 C 0.73024 0.71569 0.26356 0.0
C1416 C 0.74599 0.70295 0.20568 0.0
C1417 C 0.81202 0.69498 0.28918 0.0
C1418 C 0.86104 0.69476 0.22941 0.0
H1419 H 0.68721 0.71502 0.20698 0.0
H1420 H 0.68043 0.7227 0.23845 0.0
H1421 H 0.72648 0.7157 0.30163 0.0
H1422 H 0.76865 0.70375 0.31539 0.0
H1423 H 0.87973 0.68608 0.2866 0.0
H1424 H 0.90855 0.68665 0.25431 0.0
H1425 H 0.86043 0.69351 0.19126 0.0
H1426 H 0.7959 0.69718 0.17846 0.0
H1427 H 0.84501 0.72925 0.22085 0.0
H1428 H 0.87787 0.72254 0.27409 0.0
H1429 H 0.76686 0.67093 0.23448 0.0
H1430 H 0.67745 0.68423 0.25809 0.0
C1431 C 0.52442 0.56179 0.21969 0.0
C1432 C 0.55322 0.55618 0.2188 0.0
C1433 C 0.55594 0.5524 0.23524 0.0
C1434 C 0.52868 0.55587 0.24517 0.0
N1435 N 0.50901 0.56158 0.236 0.0
Co1436 Co 0.46757 0.56816 0.24523 0.0
N1437 N 0.48242 0.56624 0.2703 0.0
C1438 C 0.50555 0.56018 0.2759 0.0
C1439 C 0.51022 0.56018 0.29401 0.0
C1440 C 0.48828 0.56656 0.30023 0.0
C1441 C 0.4713 0.57011 0.2855 0.0
N1442 N 0.42587 0.57471 0.25437 0.0
C1443 C 0.41897 0.57775 0.27096 0.0
C1444 C 0.38576 0.58173 0.27153 0.0
C1445 C 0.3712 0.581 0.25483 0.0
C1446 C 0.39624 0.57664 0.24498 0.0
N1447 N 0.45332 0.57001 0.22006 0.0
C1448 C 0.42068 0.57237 0.21434 0.0
C1449 C 0.41933 0.57345 0.1962 0.0
C1450 C 0.45325 0.57166 0.19019 0.0
C1451 C 0.47344 0.56954 0.20504 0.0
N1452 N 0.43835 0.55756 0.2461 0.0
C1453 C 0.39155 0.54328 0.24719 0.0
C1454 C 0.4132 0.54488 0.23222 0.0
C1455 C 0.43655 0.552 0.232 0.0
C1456 C 0.39452 0.54894 0.26161 0.0
C1457 C 0.41777 0.55596 0.26081 0.0
N1458 N 0.4959 0.5788 0.24456 0.0
C1459 C 0.49972 0.5939 0.23767 0.0
C1460 C 0.53408 0.59444 0.24514 0.0
C1461 C 0.54917 0.58684 0.25194 0.0
C1462 C 0.52973 0.57912 0.2515 0.0
C1463 C 0.48122 0.5861 0.23755 0.0
H1464 H 0.54188 0.57343 0.25701 0.0
H1465 H 0.45475 0.586 0.23189 0.0
H1466 H 0.45275 0.55308 0.22031 0.0
H1467 H 0.41831 0.56019 0.27211 0.0
C1468 C 0.52536 0.55533 0.26368 0.0
C1469 C 0.51118 0.56684 0.2046 0.0
C1470 C 0.44132 0.5762 0.28678 0.0
C1471 C 0.39485 0.57518 0.22655 0.0
H1472 H 0.57049 0.55499 0.20751 0.0
H1473 H 0.57647 0.54798 0.23965 0.0
H1474 H 0.52781 0.55612 0.30175 0.0
H1475 H 0.48441 0.56821 0.31409 0.0
H1476 H 0.37306 0.5847 0.28292 0.0
H1477 H 0.34568 0.58348 0.25036 0.0
H1478 H 0.39696 0.57574 0.18837 0.0
H1479 H 0.4621 0.57199 0.1765 0.0
H1480 H 0.41225 0.54066 0.22078 0.0
H1481 H 0.37816 0.54813 0.27338 0.0
H1482 H 0.48704 0.59949 0.23186 0.0
H1483 H 0.5755 0.58688 0.25795 0.0
C1484 C 0.22244 0.44918 0.95507 0.0
C1485 C 0.2024 0.4471 0.94015 0.0
C1486 C 0.16853 0.44519 0.9461 0.0
C1487 C 0.16977 0.44622 0.96426 0.0
N1488 N 0.20225 0.44867 0.97005 0.0
Co1489 Co 0.2162 0.45062 0.99524 0.0
N1490 N 0.17473 0.44396 0.00434 0.0
C1491 C 0.14529 0.44192 0.99487 0.0
C1492 C 0.12024 0.43756 0.00469 0.0
C1493 C 0.13455 0.43693 0.02145 0.0
C1494 C 0.16762 0.44099 0.02096 0.0
N1495 N 0.23084 0.45258 0.02036 0.0
C1496 C 0.21967 0.44874 0.03557 0.0
C1497 C 0.23658 0.45232 0.05031 0.0
C1498 C 0.25851 0.45869 0.04409 0.0
C1499 C 0.2539 0.45866 0.02598 0.0
N1500 N 0.25732 0.45735 0.98602 0.0
C1501 C 0.27691 0.46305 0.99529 0.0
C1502 C 0.30426 0.46654 0.98548 0.0
C1503 C 0.30171 0.46279 0.969 0.0
C1504 C 0.27273 0.45723 0.96968 0.0
N1505 N 0.18635 0.46111 0.99605 0.0
C1506 C 0.1368 0.47486 0.99664 0.0
C1507 C 0.14137 0.46945 0.01137 0.0
C1508 C 0.16584 0.46269 0.01079 0.0
C1509 C 0.15908 0.47343 0.98181 0.0
C1510 C 0.1837 0.46656 0.98181 0.0
N1511 N 0.24506 0.44006 0.99459 0.0
C1512 C 0.29896 0.4322 1.0016 0.0
C1513 C 0.28435 0.42461 0.99455 0.0
C1514 C 0.24972 0.425 0.9874 0.0
C1515 C 0.23068 0.43273 0.98757 0.0
C1516 C 0.27899 0.43984 1.00142 0.0
H1517 H 0.20402 0.43272 0.98213 0.0
H1518 H 0.29091 0.44557 0.00692 0.0
H1519 H 0.1673 0.4586 0.02228 0.0
H1520 H 0.19992 0.46553 0.97011 0.0
C1521 C 0.14397 0.44336 0.97643 0.0
C1522 C 0.25981 0.45211 0.95456 0.0
C1523 C 0.18954 0.44269 0.03689 0.0
C1524 C 0.27361 0.46353 0.0138 0.0
H1525 H 0.21137 0.44696 0.92646 0.0
H1526 H 0.14625 0.44291 0.93819 0.0
H1527 H 0.09485 0.43502 1.00017 0.0
H1528 H 0.12175 0.434 0.03284 0.0
H1529 H 0.23262 0.45071 0.06417 0.0
H1530 H 0.27601 0.46278 0.05184 0.0
H1531 H 0.32488 0.4709 0.99003 0.0
H1532 H 0.31948 0.46395 0.9579 0.0
H1533 H 0.12588 0.47037 0.0234 0.0
H1534 H 0.15684 0.47741 0.97006 0.0
H1535 H 0.32575 0.43227 0.00709 0.0
H1536 H 0.23693 0.41932 0.98203 0.0
C1537 C 0.53176 0.3191 0.95243 0.0
C1538 C 0.55011 0.32297 0.93854 0.0
C1539 C 0.58099 0.32621 0.9456 0.0
C1540 C 0.5797 0.32417 0.96333 0.0
N1541 N 0.55029 0.31963 0.96797 0.0
Co1542 Co 0.53583 0.31619 0.99272 0.0
N1543 N 0.57831 0.32208 0.00357 0.0
C1544 C 0.60581 0.32573 0.99466 0.0
C1545 C 0.6323 0.32881 0.00556 0.0
C1546 C 0.62125 0.32694 0.02245 0.0
C1547 C 0.58839 0.32286 0.02089 0.0
N1548 N 0.5199 0.31318 0.01743 0.0
C1549 C 0.53421 0.31523 0.03346 0.0
C1550 C 0.51308 0.31226 0.04738 0.0
C1551 C 0.48497 0.30801 0.03989 0.0
C1552 C 0.49021 0.30871 0.02192 0.0
N1553 N 0.49412 0.31002 0.98182 0.0
C1554 C 0.4701 0.30505 0.99042 0.0
C1555 C 0.44398 0.30176 0.97957 0.0
C1556 C 0.45146 0.30492 0.96306 0.0
C1557 C 0.48191 0.30997 0.96479 0.0
N1558 N 0.56521 0.30537 0.99136 0.0
C1559 C 0.61266 0.29107 0.99341 0.0
C1560 C 0.57994 0.29113 1.00251 0.0
C1561 C 0.55673 0.29822 1.00118 0.0
C1562 C 0.62019 0.29815 0.98261 0.0
C1563 C 0.59642 0.3051 0.98172 0.0
N1564 N 0.50737 0.32698 0.99424 0.0
C1565 C 0.45181 0.3346 0.99979 0.0
C1566 C 0.46797 0.34253 0.99609 0.0
C1567 C 0.50416 0.34245 0.99131 0.0
C1568 C 0.52311 0.33473 0.99056 0.0
C1569 C 0.47182 0.32696 0.99879 0.0
H1570 H 0.55058 0.33517 0.98685 0.0
H1571 H 0.45814 0.32109 1.00175 0.0
H1572 H 0.53229 0.29778 0.00845 0.0
H1573 H 0.60455 0.31024 0.97336 0.0
C1574 C 0.60492 0.32661 0.97614 0.0
C1575 C 0.4967 0.31507 0.95024 0.0
C1576 C 0.56829 0.31963 0.0362 0.0
C1577 C 0.46901 0.30485 0.00893 0.0
H1578 H 0.54174 0.32349 0.92479 0.0
H1579 H 0.60151 0.32982 0.93871 0.0
H1580 H 0.65666 0.33207 1.0017 0.0
H1581 H 0.63584 0.32839 0.03453 0.0
H1582 H 0.51774 0.31297 0.06152 0.0
H1583 H 0.46355 0.30469 0.04673 0.0
H1584 H 0.42095 0.29798 0.9834 0.0
H1585 H 0.43534 0.30391 0.95129 0.0
H1586 H 0.57213 0.28572 0.01069 0.0
H1587 H 0.64502 0.29851 0.97522 0.0
H1588 H 0.42397 0.33425 0.00369 0.0
H1589 H 0.51799 0.34833 0.98789 0.0
C1590 C 0.22256 0.31974 0.79776 0.0
C1591 C 0.20227 0.32208 0.81243 0.0
C1592 C 0.16861 0.32397 0.80616 0.0
C1593 C 0.17023 0.32271 0.78806 0.0
N1594 N 0.20278 0.32014 0.78265 0.0
Co1595 Co 0.21761 0.31797 0.75771 0.0
N1596 N 0.17709 0.32474 0.74806 0.0
C1597 C 0.14735 0.32694 0.75711 0.0
C1598 C 0.12347 0.3315 0.74694 0.0
C1599 C 0.13895 0.3321 0.73043 0.0
C1600 C 0.17149 0.32781 0.7314 0.0
N1601 N 0.23295 0.31572 0.73288 0.0
C1602 C 0.22301 0.31958 0.71751 0.0
C1603 C 0.23959 0.31571 0.70302 0.0
C1604 C 0.26014 0.30915 0.70959 0.0
C1605 C 0.25506 0.30936 0.72766 0.0
N1606 N 0.25788 0.31119 0.76743 0.0
C1607 C 0.27689 0.3052 0.75868 0.0
C1608 C 0.30353 0.30167 0.76896 0.0
C1609 C 0.30103 0.30572 0.78515 0.0
C1610 C 0.27299 0.31152 0.78378 0.0
N1611 N 0.18718 0.3076 0.75699 0.0
C1612 C 0.13801 0.29381 0.75649 0.0
C1613 C 0.14183 0.2993 0.74184 0.0
C1614 C 0.1663 0.30608 0.74234 0.0
C1615 C 0.16055 0.29522 0.77122 0.0
C1616 C 0.1849 0.30213 0.7712 0.0
N1617 N 0.2472 0.3284 0.75831 0.0
C1618 C 0.30202 0.33596 0.75167 0.0
C1619 C 0.28801 0.34362 0.75869 0.0
C1620 C 0.25315 0.34343 0.76555 0.0
C1621 C 0.23331 0.33582 0.7652 0.0
C1622 C 0.2813 0.32843 0.75169 0.0
H1623 H 0.2065 0.33598 0.77042 0.0
H1624 H 0.2928 0.32263 0.74629 0.0
H1625 H 0.16765 0.31019 0.73088 0.0
H1626 H 0.20132 0.30316 0.78284 0.0
C1627 C 0.14507 0.3256 0.77556 0.0
C1628 C 0.26007 0.31691 0.79841 0.0
C1629 C 0.19453 0.32606 0.71591 0.0
C1630 C 0.27385 0.30445 0.74018 0.0
H1631 H 0.21093 0.32249 0.82614 0.0
H1632 H 0.14631 0.32646 0.81377 0.0
H1633 H 0.09821 0.33424 0.75111 0.0
H1634 H 0.12732 0.3352 0.71892 0.0
H1635 H 0.23641 0.31727 0.68908 0.0
H1636 H 0.27716 0.30484 0.7021 0.0
H1637 H 0.32357 0.29705 0.76491 0.0
H1638 H 0.31796 0.30458 0.7966 0.0
H1639 H 0.12588 0.2984 0.72995 0.0
H1640 H 0.15875 0.29118 0.7829 0.0
H1641 H 0.32895 0.33575 0.74637 0.0
H1642 H 0.24085 0.34918 0.77088 0.0
C1643 C 0.53321 0.44982 0.80076 0.0
C1644 C 0.55293 0.44757 0.81569 0.0
C1645 C 0.58708 0.44587 0.80989 0.0
C1646 C 0.58633 0.44713 0.79179 0.0
N1647 N 0.55386 0.44952 0.7859 0.0
Co1648 Co 0.54048 0.45161 0.76068 0.0
N1649 N 0.58263 0.4452 0.75161 0.0
C1650 C 0.61195 0.44319 0.76119 0.0
C1651 C 0.63739 0.43895 0.75138 0.0
C1652 C 0.62344 0.43836 0.73453 0.0
C1653 C 0.59016 0.44233 0.73496 0.0
N1654 N 0.52652 0.45377 0.73557 0.0
C1655 C 0.53831 0.45008 0.72028 0.0
C1656 C 0.52189 0.4538 0.70557 0.0
C1657 C 0.4996 0.46008 0.71189 0.0
C1658 C 0.50352 0.45987 0.73004 0.0
N1659 N 0.49858 0.45805 0.76984 0.0
C1660 C 0.47914 0.46383 0.76074 0.0
C1661 C 0.45143 0.46717 0.77057 0.0
C1662 C 0.45362 0.46322 0.78686 0.0
C1663 C 0.48258 0.45766 0.786 0.0
N1664 N 0.56949 0.46224 0.76055 0.0
C1665 C 0.61605 0.47657 0.76059 0.0
C1666 C 0.61388 0.47104 0.74592 0.0
C1667 C 0.5907 0.464 0.74615 0.0
C1668 C 0.59374 0.47481 0.77523 0.0
C1669 C 0.57054 0.46766 0.7749 0.0
N1670 N 0.51235 0.44095 0.76066 0.0
C1671 C 0.45918 0.43297 0.75285 0.0
C1672 C 0.47412 0.42534 0.75955 0.0
C1673 C 0.5084 0.42581 0.76712 0.0
C1674 C 0.52693 0.4336 0.76751 0.0
C1675 C 0.47866 0.44068 0.75355 0.0
H1676 H 0.55328 0.43366 0.7733 0.0
H1677 H 0.46663 0.44641 0.74814 0.0
H1678 H 0.59073 0.45987 0.73468 0.0
H1679 H 0.55383 0.46646 0.78635 0.0
C1680 C 0.61263 0.44447 0.77968 0.0
C1681 C 0.49541 0.45248 0.80101 0.0
C1682 C 0.56832 0.444 0.719 0.0
C1683 C 0.48315 0.46456 0.74229 0.0
H1684 H 0.54361 0.4471 0.82928 0.0
H1685 H 0.60921 0.44353 0.81781 0.0
H1686 H 0.66275 0.43644 0.75598 0.0
H1687 H 0.63657 0.4355 0.72315 0.0
H1688 H 0.52636 0.45231 0.69168 0.0
H1689 H 0.48226 0.46421 0.70418 0.0
H1690 H 0.43097 0.4716 0.76616 0.0
H1691 H 0.43591 0.46427 0.79804 0.0
H1692 H 0.63079 0.47196 0.73438 0.0
H1693 H 0.59406 0.47892 0.78685 0.0
H1694 H 0.43292 0.43297 0.74677 0.0
H1695 H 0.52094 0.42019 0.77285 0.0
H1696 H 0.23565 0.05349 0.07809 0.0
H1697 H 0.19607 0.05446 0.1041 0.0
H1698 H 0.17012 0.08058 0.09008 0.0
H1699 H 0.20906 0.0795 0.06378 0.0
H1700 H 0.19487 0.0645 0.13321 0.0
H1701 H 0.07141 0.07026 0.09408 0.0
H1702 H 0.11295 0.06702 0.08387 0.0
H1703 H 0.10585 0.07805 0.09008 0.0
C1704 C 0.22152 0.05944 0.08066 0.0
C1705 C 0.22499 0.06639 0.06889 0.0
C1706 C 0.19891 0.06 0.09551 0.0
C1707 C 0.17931 0.06753 0.09893 0.0
C1708 C 0.18406 0.07462 0.08753 0.0
H1709 H 0.0702 0.07682 0.20098 0.0
H1710 H 0.11049 0.07753 0.17518 0.0
C1711 C 0.20657 0.07403 0.07261 0.0
C1712 C 0.15392 0.0679 0.11434 0.0
H1713 H 0.06621 0.07136 0.12545 0.0
C1714 C 0.16675 0.06601 0.13149 0.0
C1715 C 0.117 0.06973 0.11216 0.0
C1716 C 0.10083 0.0713 0.09405 0.0
C1717 C 0.14395 0.06596 0.14643 0.0
C1718 C 0.10724 0.06804 0.14433 0.0
C1719 C 0.09435 0.06986 0.12717 0.0
C1720 C 0.0816 0.06807 0.15966 0.0
C1721 C 0.1593 0.06341 0.16424 0.0
C1722 C 0.05099 0.0628 0.15935 0.0
C1723 C 0.02767 0.06252 0.17398 0.0
C1724 C 0.03429 0.06755 0.18915 0.0
C1725 C 0.06441 0.07294 0.18935 0.0
C1726 C 0.08762 0.07327 0.17469 0.0
H1727 H 0.18458 0.05972 0.16274 0.0
H1728 H 0.16538 0.06928 0.17204 0.0
H1729 H 0.14002 0.05945 0.17193 0.0
H1730 H 0.04561 0.05873 0.14796 0.0
H1731 H 0.00497 0.05819 0.17365 0.0
H1732 H 0.21836 0.18888 0.19098 0.0
H1733 H 0.1777 0.18796 0.16528 0.0
H1734 H 0.19772 0.21464 0.15352 0.0
H1735 H 0.23893 0.21547 0.17893 0.0
H1736 H 0.11586 0.19648 0.15905 0.0
H1737 H 0.21172 0.20398 0.10512 0.0
H1738 H 0.22604 0.20137 0.12741 0.0
H1739 H 0.21094 0.21205 0.12216 0.0
C1740 C 0.21436 0.1945 0.1827 0.0
C1741 C 0.23173 0.20224 0.18685 0.0
C1742 C 0.19104 0.19399 0.16809 0.0
C1743 C 0.18481 0.2012 0.15725 0.0
C1744 C 0.20253 0.20893 0.16136 0.0
H1745 H 1.00124 0.20958 0.08698 0.0
H1746 H 0.04342 0.20915 0.11207 0.0
C1747 C 0.22593 0.20942 0.17593 0.0
C1748 C 0.15879 0.20074 0.14211 0.0
H1749 H 0.14981 0.20441 0.09743 0.0
C1750 C 0.12338 0.19817 0.14556 0.0
C1751 C 0.1685 0.20283 0.1244 0.0
C1752 C 0.20645 0.20513 0.11948 0.0
C1753 C 0.09742 0.19781 0.13197 0.0
C1754 C 0.10677 0.20024 0.1144 0.0
C1755 C 0.14237 0.20263 0.11088 0.0
C1756 C 0.08026 0.2003 0.09944 0.0
C1757 C 0.06035 0.19467 0.13653 0.0
C1758 C 0.08701 0.19562 0.08377 0.0
C1759 C 0.06301 0.19592 0.06943 0.0
C1760 C 0.0317 0.20088 0.07044 0.0
C1761 C 0.02483 0.20556 0.08605 0.0
C1762 C 0.04891 0.20529 0.10039 0.0
H1763 H 0.0604 0.19073 0.14884 0.0
H1764 H 0.04265 0.20028 0.13886 0.0
H1765 H 0.04883 0.19079 0.12552 0.0
H1766 H 0.11102 0.19177 0.0826 0.0
H1767 H 0.06908 0.19235 0.05743 0.0
H1768 H 0.98934 0.96477 0.82682 0.0
H1769 H 0.94863 0.96423 0.85243 0.0
H1770 H 0.9273 0.93751 0.84153 0.0
H1771 H 0.96747 0.93815 0.81563 0.0
H1772 H 0.86593 0.94624 0.84774 0.0
H1773 H 0.96302 0.95389 0.9011 0.0
H1774 H 0.96232 0.96183 0.88382 0.0
H1775 H 0.97685 0.95108 0.87884 0.0
C1776 C 0.97618 0.95878 0.83005 0.0
C1777 C 0.98147 0.9515 0.81931 0.0
C1778 C 0.95306 0.95845 0.84474 0.0
C1779 C 0.9351 0.9508 0.84915 0.0
C1780 C 0.94083 0.94349 0.83849 0.0
H1781 H 0.82039 0.94284 0.94952 0.0
H1782 H 0.86215 0.94208 0.92431 0.0
C1783 C 0.96387 0.94383 0.82376 0.0
C1784 C 0.90933 0.95051 0.8644 0.0
H1785 H 0.90127 0.95453 0.90901 0.0
C1786 C 0.87376 0.94801 0.86115 0.0
C1787 C 0.91943 0.9527 0.88201 0.0
C1788 C 0.95756 0.95494 0.88673 0.0
C1789 C 0.84801 0.94782 0.87485 0.0
C1790 C 0.85777 0.95035 0.89231 0.0
C1791 C 0.89352 0.95268 0.89563 0.0
C1792 C 0.8315 0.95058 0.90736 0.0
C1793 C 0.81073 0.94474 0.8705 0.0
C1794 C 0.80032 0.95563 0.90638 0.0
C1795 C 0.77635 0.956 0.92074 0.0
C1796 C 0.78317 0.95137 0.93641 0.0
C1797 C 0.81437 0.94637 0.93748 0.0
C1798 C 0.83826 0.94597 0.92311 0.0
H1799 H 0.8104 0.94071 0.8583 0.0
H1800 H 0.79924 0.94096 0.88166 0.0
H1801 H 0.79323 0.95037 0.86809 0.0
H1802 H 0.79484 0.95943 0.89463 0.0
H1803 H 0.75283 0.96004 0.91976 0.0
H1804 H 0.75314 0.80881 0.83301 0.0
H1805 H 0.79199 0.80965 0.85933 0.0
H1806 H 0.86819 0.8246 0.8294 0.0
H1807 H 0.82871 0.824 0.80331 0.0
H1808 H 0.85804 0.80363 0.86417 0.0
H1809 H 0.86179 0.83884 0.87397 0.0
H1810 H 0.83006 0.83372 0.85929 0.0
H1811 H 0.87518 0.83569 0.85199 0.0
C1812 C 0.77769 0.81249 0.83226 0.0
C1813 C 0.78737 0.81658 0.8163 0.0
C1814 C 0.80011 0.81289 0.84724 0.0
C1815 C 0.83288 0.81734 0.8466 0.0
C1816 C 0.84269 0.82135 0.83054 0.0
H1817 H 0.01126 0.80846 0.92034 0.0
H1818 H 0.97126 0.80905 0.89445 0.0
C1819 C 0.82019 0.82098 0.81559 0.0
C1820 C 0.85746 0.81742 0.8624 0.0
H1821 H 0.90456 0.83066 0.89032 0.0
C1822 C 0.86806 0.80955 0.86991 0.0
C1823 C 0.87036 0.82513 0.87015 0.0
C1824 C 0.8585 0.83382 0.86357 0.0
C1825 C 0.89142 0.80917 0.88463 0.0
C1826 C 0.90544 0.81687 0.89193 0.0
C1827 C 0.89434 0.82474 0.88464 0.0
C1828 C 0.93098 0.81688 0.90734 0.0
C1829 C 0.90017 0.8005 0.89245 0.0
C1830 C 0.92259 0.82134 0.92309 0.0
C1831 C 0.94585 0.82114 0.93777 0.0
C1832 C 0.97824 0.81657 0.93699 0.0
C1833 C 0.98688 0.81219 0.92119 0.0
C1834 C 0.9637 0.81242 0.90648 0.0
H1835 H 0.8797 0.79562 0.88886 0.0
H1836 H 0.92628 0.79828 0.88713 0.0
H1837 H 0.90216 0.80083 0.90718 0.0
H1838 H 0.89763 0.82483 0.92418 0.0
H1839 H 0.93832 0.82447 0.94988 0.0
H1840 H 0.25623 0.5581 0.58222 0.0
H1841 H 0.21537 0.55844 0.60784 0.0
H1842 H 0.14716 0.57623 0.57985 0.0
H1843 H 0.18785 0.57579 0.55418 0.0
H1844 H 0.19218 0.57132 0.62977 0.0
H1845 H 0.07675 0.55757 0.59323 0.0
H1846 H 0.12145 0.55765 0.58417 0.0
H1847 H 0.0942 0.56716 0.58324 0.0
C1848 C 0.23278 0.56218 0.5817 0.0
C1849 C 0.22544 0.56702 0.56635 0.0
C1850 C 0.20932 0.56234 0.59629 0.0
C1851 C 0.17776 0.56727 0.59578 0.0
C1852 C 0.17084 0.57224 0.58053 0.0
H1853 H 0.04594 0.57951 0.68953 0.0
H1854 H 0.0858 0.5802 0.66353 0.0
C1855 C 0.19427 0.57206 0.56593 0.0
C1856 C 0.1521 0.56714 0.61111 0.0
H1857 H 0.06521 0.56274 0.62241 0.0
C1858 C 0.16442 0.56945 0.62814 0.0
C1859 C 0.11591 0.56456 0.60915 0.0
C1860 C 0.1013 0.56151 0.59151 0.0
C1861 C 0.14164 0.56935 0.6431 0.0
C1862 C 0.10516 0.56704 0.64103 0.0
C1863 C 0.09296 0.56463 0.62404 0.0
C1864 C 0.07957 0.56681 0.65639 0.0
C1865 C 0.15718 0.57153 0.66109 0.0
C1866 C 0.06144 0.55917 0.66071 0.0
C1867 C 0.03836 0.55881 0.67543 0.0
C1868 C 0.03286 0.56609 0.68616 0.0
C1869 C 0.04997 0.5738 0.68154 0.0
C1870 C 0.073 0.57417 0.66678 0.0
H1871 H 0.18678 0.57084 0.66123 0.0
H1872 H 0.1507 0.5783 0.66439 0.0
H1873 H 0.14578 0.56735 0.67163 0.0
H1874 H 0.0657 0.55341 0.65289 0.0
H1875 H 0.02527 0.55281 0.67866 0.0
H1876 H 0.07072 0.69334 0.5586 0.0
H1877 H 0.11126 0.69254 0.58431 0.0
H1878 H 0.04299 0.71001 0.61317 0.0
H1879 H 1.00218 0.71065 0.58754 0.0
H1880 H 0.15012 0.70484 0.60003 0.0
H1881 H 0.05648 0.69146 0.64987 0.0
H1882 H 0.04625 0.69169 0.62641 0.0
H1883 H 0.04013 0.70115 0.63986 0.0
C1884 C 0.06421 0.69689 0.57057 0.0
C1885 C 0.03307 0.70194 0.57124 0.0
C1886 C 0.08742 0.69647 0.58523 0.0
C1887 C 0.08005 0.7011 0.60091 0.0
C1888 C 0.04893 0.70619 0.6015 0.0
H1889 H 0.23537 0.71538 0.68272 0.0
H1890 H 0.19553 0.71474 0.65677 0.0
C1891 C 0.02564 0.70658 0.58684 0.0
C1892 C 0.10566 0.70086 0.61627 0.0
H1893 H 0.11169 0.69696 0.66103 0.0
C1894 C 0.14168 0.70307 0.61334 0.0
C1895 C 0.09505 0.69843 0.63367 0.0
C1896 C 0.05747 0.69546 0.63765 0.0
C1897 C 0.16699 0.7031 0.62726 0.0
C1898 C 0.15602 0.70104 0.64481 0.0
C1899 C 0.12019 0.69864 0.64768 0.0
C1900 C 0.18112 0.70138 0.66037 0.0
C1901 C 0.20542 0.70521 0.62293 0.0
C1902 C 0.18604 0.69416 0.67136 0.0
C1903 C 0.20859 0.69456 0.68631 0.0
C1904 C 0.22643 0.70221 0.69066 0.0
C1905 C 0.22192 0.7094 0.6796 0.0
C1906 C 0.19932 0.70901 0.66471 0.0
H1907 H 0.21149 0.70401 0.60866 0.0
H1908 H 0.21033 0.71211 0.62563 0.0
H1909 H 0.22418 0.70137 0.63118 0.0
H1910 H 0.17233 0.6882 0.66839 0.0
H1911 H 0.21163 0.68894 0.69466 0.0
H1912 H 0.00954 0.46004 0.3348 0.0
H1913 H 0.97029 0.45918 0.36094 0.0
H1914 H 0.89482 0.44413 0.33069 0.0
H1915 H 0.93469 0.44476 0.30476 0.0
H1916 H 0.90391 0.46509 0.36567 0.0
H1917 H 0.90117 0.42986 0.37519 0.0
H1918 H 0.9329 0.43505 0.36066 0.0
H1919 H 0.88791 0.43302 0.35321 0.0
C1920 C 0.98505 0.45634 0.33392 0.0
C1921 C 0.97572 0.45222 0.31791 0.0
C1922 C 0.96239 0.45592 0.34882 0.0
C1923 C 0.92972 0.45143 0.34805 0.0
C1924 C 0.92023 0.44741 0.33193 0.0
H1925 H 0.75111 0.45996 0.42205 0.0
H1926 H 0.79077 0.45942 0.39603 0.0
C1927 C 0.94296 0.4478 0.31706 0.0
C1928 C 0.90497 0.4513 0.3638 0.0
H1929 H 0.85827 0.43795 0.39161 0.0
C1930 C 0.89407 0.45914 0.37135 0.0
C1931 C 0.89228 0.44356 0.37149 0.0
C1932 C 0.90442 0.43489 0.36485 0.0
C1933 C 0.87066 0.45947 0.38606 0.0
C1934 C 0.8569 0.45174 0.39333 0.0
C1935 C 0.86827 0.44389 0.38598 0.0
C1936 C 0.83147 0.45167 0.40879 0.0
C1937 C 0.8616 0.46812 0.39392 0.0
C1938 C 0.84016 0.44723 0.42452 0.0
C1939 C 0.81711 0.4474 0.43928 0.0
C1940 C 0.78459 0.45193 0.43861 0.0
C1941 C 0.77559 0.45626 0.42283 0.0
C1942 C 0.79858 0.45606 0.40804 0.0
H1943 H 0.88182 0.47305 0.39031 0.0
H1944 H 0.83534 0.47027 0.38865 0.0
H1945 H 0.85975 0.46778 0.40865 0.0
H1946 H 0.86525 0.44378 0.42553 0.0
H1947 H 0.82495 0.44411 0.45137 0.0
H1948 H 0.76927 0.29962 0.3262 0.0
H1949 H 0.80972 0.29975 0.35212 0.0
H1950 H 0.82579 0.32695 0.3454 0.0
H1951 H 0.7861 0.32681 0.31935 0.0
H1952 H 0.88744 0.30726 0.34989 0.0
H1953 H 0.79825 0.32222 0.40047 0.0
H1954 H 0.78093 0.31619 0.38179 0.0
H1955 H 0.79872 0.32676 0.37841 0.0
C1956 C 0.78108 0.30563 0.33047 0.0
C1957 C 0.77435 0.31321 0.3209 0.0
C1958 C 0.80424 0.3057 0.34519 0.0
C1959 C 0.82063 0.31337 0.35074 0.0
C1960 C 0.8132 0.32098 0.34146 0.0
H1961 H 0.96204 0.32774 0.43836 0.0
H1962 H 0.92105 0.32755 0.41276 0.0
C1963 C 0.79043 0.3209 0.32664 0.0
C1964 C 0.84683 0.31339 0.36568 0.0
H1965 H 0.85826 0.31984 0.4088 0.0
C1966 C 0.88108 0.30996 0.36282 0.0
C1967 C 0.83862 0.31703 0.38242 0.0
C1968 C 0.80211 0.32074 0.38614 0.0
C1969 C 0.90753 0.31019 0.37618 0.0
C1970 C 0.89921 0.3137 0.39311 0.0
C1971 C 0.86482 0.31713 0.3959 0.0
C1972 C 0.92558 0.31386 0.40811 0.0
C1973 C 0.94446 0.3069 0.37176 0.0
C1974 C 0.94204 0.30627 0.41408 0.0
C1975 C 0.96584 0.30641 0.42851 0.0
C1976 C 0.97305 0.31412 0.43756 0.0
C1977 C 0.95689 0.32172 0.43157 0.0
C1978 C 0.93336 0.3216 0.41702 0.0
H1979 H 0.9496 0.30707 0.3572 0.0
H1980 H 0.9655 0.31072 0.37858 0.0
H1981 H 0.94677 0.30012 0.37615 0.0
H1982 H 0.93596 0.30018 0.40782 0.0
H1983 H 0.97798 0.30047 0.4329 0.0
H1984 H 0.71737 0.08017 0.56664 0.0
H1985 H 0.67743 0.08084 0.59262 0.0
H1986 H 0.69883 0.05414 0.60356 0.0
H1987 H 0.7393 0.05356 0.57785 0.0
H1988 H 0.61606 0.07206 0.59902 0.0
H1989 H 0.71402 0.06465 0.65213 0.0
H1990 H 0.72748 0.06743 0.6298 0.0
H1991 H 0.71316 0.05668 0.63488 0.0
C1992 C 0.71382 0.0745 0.57479 0.0
C1993 C 0.73136 0.06682 0.57033 0.0
C1994 C 0.69091 0.07486 0.58957 0.0
C1995 C 0.6853 0.06757 0.60026 0.0
C1996 C 0.70318 0.05991 0.59583 0.0
H1997 H 0.50449 0.0584 0.67177 0.0
H1998 H 0.54596 0.05898 0.64641 0.0
C1999 C 0.72615 0.05956 0.58109 0.0
C2000 C 0.65974 0.06789 0.61559 0.0
H2001 H 0.65241 0.06404 0.66028 0.0
C2002 C 0.6241 0.07035 0.61243 0.0
C2003 C 0.67014 0.06577 0.63318 0.0
C2004 C 0.70836 0.06357 0.63778 0.0
C2005 C 0.59856 0.07058 0.62622 0.0
C2006 C 0.60862 0.06813 0.64368 0.0
C2007 C 0.64444 0.06584 0.6469 0.0
C2008 C 0.58261 0.06795 0.65882 0.0
C2009 C 0.56117 0.07361 0.62198 0.0
C2010 C 0.58953 0.07264 0.67446 0.0
C2011 C 0.56594 0.07227 0.68895 0.0
C2012 C 0.5349 0.0672 0.68813 0.0
C2013 C 0.52789 0.06249 0.67256 0.0
C2014 C 0.55155 0.06284 0.65807 0.0
H2015 H 0.56057 0.07757 0.60969 0.0
H2016 H 0.54369 0.06795 0.61976 0.0
H2017 H 0.54984 0.07743 0.63311 0.0
H2018 H 0.61333 0.07659 0.67548 0.0
H2019 H 0.57211 0.07587 0.70091 0.0
H2020 H 0.50563 0.21087 0.58471 0.0
H2021 H 0.54607 0.21017 0.61048 0.0
H2022 H 0.61201 0.19183 0.58264 0.0
H2023 H 0.57191 0.19268 0.55677 0.0
H2024 H 0.56724 0.19736 0.63251 0.0
H2025 H 0.68502 0.20979 0.59591 0.0
H2026 H 0.64047 0.21001 0.58669 0.0
H2027 H 0.66637 0.20028 0.58615 0.0
C2028 C 0.5285 0.2066 0.58426 0.0
C2029 C 0.53548 0.20174 0.56889 0.0
C2030 C 0.5517 0.20623 0.59893 0.0
C2031 C 0.58256 0.20105 0.59848 0.0
C2032 C 0.58893 0.19602 0.58324 0.0
H2033 H 0.71057 0.18907 0.69393 0.0
H2034 H 0.67157 0.18814 0.6676 0.0
C2035 C 0.56583 0.19643 0.56854 0.0
C2036 C 0.60813 0.20102 0.61384 0.0
H2037 H 0.69549 0.20475 0.62524 0.0
C2038 C 0.59529 0.19897 0.6309 0.0
C2039 C 0.64471 0.20325 0.61189 0.0
C2040 C 0.65995 0.20604 0.59422 0.0
C2041 C 0.61788 0.19903 0.64594 0.0
C2042 C 0.6547 0.20101 0.6439 0.0
C2043 C 0.66746 0.20312 0.62685 0.0
C2044 C 0.68003 0.20131 0.65935 0.0
C2045 C 0.60176 0.19721 0.66396 0.0
C2046 C 0.69923 0.20887 0.6631 0.0
C2047 C 0.72187 0.20934 0.67796 0.0
C2048 C 0.72575 0.20228 0.68942 0.0
C2049 C 0.70772 0.19462 0.68536 0.0
C2050 C 0.68518 0.19412 0.67042 0.0
H2051 H 0.57228 0.19815 0.66393 0.0
H2052 H 0.60716 0.19044 0.66763 0.0
H2053 H 0.6136 0.20142 0.67434 0.0
H2054 H 0.69607 0.21448 0.65475 0.0
H2055 H 0.73574 0.2153 0.68077 0.0
H2056 H 0.32547 0.94407 0.44976 0.0
H2057 H 0.36583 0.94351 0.42398 0.0
H2058 H 0.29098 0.95868 0.39367 0.0
H2059 H 0.25126 0.95947 0.41964 0.0
H2060 H 0.35909 0.93736 0.39018 0.0
H2061 H 0.38172 0.9725 0.38807 0.0
H2062 H 0.35967 0.9673 0.40649 0.0
H2063 H 0.33536 0.96962 0.38638 0.0
C2064 C 0.31755 0.9472 0.4375 0.0
C2065 C 0.28496 0.95167 0.43658 0.0
C2066 C 0.34062 0.94689 0.42278 0.0
C2067 C 0.33182 0.95115 0.40686 0.0
C2068 C 0.2988 0.95547 0.40584 0.0
H2069 H 0.43636 0.94394 0.30347 0.0
H2070 H 0.39629 0.9433 0.32932 0.0
C2071 C 0.2758 0.9558 0.42059 0.0
C2072 C 0.3574 0.95116 0.39152 0.0
H2073 H 0.40448 0.96442 0.36376 0.0
C2074 C 0.36905 0.94328 0.38443 0.0
C2075 C 0.37106 0.95887 0.38414 0.0
C2076 C 0.36164 0.96755 0.39176 0.0
C2077 C 0.39331 0.9429 0.37008 0.0
C2078 C 0.40591 0.95062 0.36227 0.0
C2079 C 0.3947 0.95849 0.36955 0.0
C2080 C 0.43085 0.95071 0.34665 0.0
C2081 C 0.40579 0.93422 0.3637 0.0
C2082 C 0.46337 0.95525 0.34748 0.0
C2083 C 0.48611 0.95568 0.33264 0.0
C2084 C 0.47699 0.95151 0.31667 0.0
C2085 C 0.44443 0.94702 0.31578 0.0
C2086 C 0.4216 0.94662 0.33058 0.0
H2087 H 0.40248 0.92924 0.37414 0.0
H2088 H 0.38954 0.93226 0.35202 0.0
H2089 H 0.43434 0.9344 0.35962 0.0
H2090 H 0.47103 0.95855 0.35959 0.0
H2091 H 0.51044 0.95943 0.33352 0.0
H2092 H 0.4646 0.83031 0.43738 0.0
H2093 H 0.42448 0.83103 0.41147 0.0
H2094 H 0.44487 0.8043 0.40045 0.0
H2095 H 0.48556 0.80365 0.42613 0.0
H2096 H 0.44468 0.81373 0.37006 0.0
H2097 H 0.32366 0.82153 0.40951 0.0
H2098 H 0.35963 0.82902 0.41261 0.0
H2099 H 0.36492 0.81806 0.41969 0.0
C2100 C 0.46061 0.82462 0.42931 0.0
C2101 C 0.47786 0.81691 0.4338 0.0
C2102 C 0.43743 0.825 0.41461 0.0
C2103 C 0.43085 0.81767 0.40415 0.0
C2104 C 0.44915 0.81003 0.40833 0.0
H2105 H 0.25298 0.80884 0.33075 0.0
H2106 H 0.29439 0.8092 0.35617 0.0
C2107 C 0.47239 0.80966 0.42299 0.0
C2108 C 0.40497 0.81791 0.38891 0.0
H2109 H 0.31763 0.82207 0.37809 0.0
C2110 C 0.41691 0.81556 0.37184 0.0
C2111 C 0.36848 0.82016 0.39117 0.0
C2112 C 0.35323 0.82225 0.40925 0.0
C2113 C 0.39367 0.81549 0.35705 0.0
C2114 C 0.35745 0.818 0.3592 0.0
C2115 C 0.3454 0.82025 0.37631 0.0
C2116 C 0.33147 0.81812 0.344 0.0
C2117 C 0.40801 0.81251 0.33932 0.0
C2118 C 0.33791 0.82313 0.32876 0.0
C2119 C 0.31418 0.82294 0.31428 0.0
C2120 C 0.28318 0.81785 0.31482 0.0
C2121 C 0.2763 0.81296 0.33015 0.0
C2122 C 0.30007 0.81313 0.34463 0.0
H2123 H 0.43271 0.80861 0.34088 0.0
H2124 H 0.38782 0.80863 0.33203 0.0
H2125 H 0.41476 0.81819 0.33107 0.0
H2126 H 0.36146 0.82717 0.32801 0.0
H2127 H 0.32023 0.8267 0.30253 0.0
H2128 H 0.70706 0.57903 0.06228 0.0
H2129 H 0.66885 0.58013 0.08886 0.0
H2130 H 0.69424 0.55391 0.10239 0.0
H2131 H 0.73295 0.55292 0.07607 0.0
H2132 H 0.6091 0.57129 0.0975 0.0
H2133 H 0.71122 0.56558 0.1495 0.0
H2134 H 0.72292 0.56785 0.12668 0.0
H2135 H 0.70995 0.55717 0.13319 0.0
C2136 C 0.70477 0.57356 0.07112 0.0
C2137 C 0.72295 0.5659 0.06721 0.0
C2138 C 0.68284 0.57417 0.08625 0.0
C2139 C 0.67884 0.56714 0.09788 0.0
C2140 C 0.69735 0.5595 0.09397 0.0
H2141 H 0.5033 0.55839 0.17279 0.0
H2142 H 0.54323 0.55881 0.14686 0.0
C2143 C 0.71933 0.55891 0.07887 0.0
C2144 C 0.65428 0.56769 0.11363 0.0
H2145 H 0.65023 0.56471 0.15874 0.0
C2146 C 0.6182 0.5699 0.1109 0.0
C2147 C 0.666 0.566 0.13124 0.0
C2148 C 0.70471 0.56411 0.13539 0.0
C2149 C 0.59355 0.57027 0.12509 0.0
C2150 C 0.60493 0.56821 0.14258 0.0
C2151 C 0.6412 0.5662 0.14538 0.0
C2152 C 0.57981 0.56813 0.15816 0.0
C2153 C 0.55564 0.57302 0.12121 0.0
C2154 C 0.58722 0.57305 0.17345 0.0
C2155 C 0.56442 0.57278 0.18829 0.0
C2156 C 0.53361 0.56761 0.18818 0.0
C2157 C 0.52628 0.56263 0.173 0.0
C2158 C 0.54913 0.56288 0.15817 0.0
H2159 H 0.55395 0.5768 0.1087 0.0
H2160 H 0.53863 0.56723 0.11958 0.0
H2161 H 0.54454 0.57695 0.13225 0.0
H2162 H 0.61079 0.5771 0.17393 0.0
H2163 H 0.57102 0.57655 0.19996 0.0
H2164 H 0.68608 0.69321 0.20171 0.0
H2165 H 0.64646 0.6922 0.17567 0.0
H2166 H 0.71487 0.70975 0.14717 0.0
H2167 H 0.75466 0.71063 0.17312 0.0
H2168 H 0.60765 0.70439 0.15956 0.0
H2169 H 0.70307 0.6911 0.11043 0.0
H2170 H 0.7126 0.69137 0.13397 0.0
H2171 H 0.71891 0.70082 0.12055 0.0
C2172 C 0.69292 0.69671 0.18973 0.0
C2173 C 0.7239 0.70181 0.18923 0.0
C2174 C 0.6702 0.69617 0.17488 0.0
C2175 C 0.67786 0.70076 0.1592 0.0
C2176 C 0.70877 0.70593 0.15881 0.0
H2177 H 0.52504 0.71489 0.07619 0.0
H2178 H 0.56402 0.71427 0.10247 0.0
C2179 C 0.73155 0.70644 0.17365 0.0
C2180 C 0.65268 0.70045 0.14366 0.0
H2181 H 0.64813 0.69655 0.09885 0.0
C2182 C 0.61654 0.70262 0.14632 0.0
C2183 C 0.66388 0.69804 0.12633 0.0
C2184 C 0.70164 0.69511 0.12264 0.0
C2185 C 0.59167 0.70264 0.13219 0.0
C2186 C 0.60322 0.70059 0.11472 0.0
C2187 C 0.63917 0.69822 0.11214 0.0
C2188 C 0.57861 0.70091 0.09897 0.0
C2189 C 0.55309 0.70471 0.13623 0.0
C2190 C 0.57409 0.69368 0.08792 0.0
C2191 C 0.55201 0.69407 0.07279 0.0
C2192 C 0.53425 0.70172 0.06832 0.0
C2193 C 0.53839 0.70891 0.07941 0.0
C2194 C 0.56051 0.70854 0.09449 0.0
H2195 H 0.54657 0.70352 0.15044 0.0
H2196 H 0.54818 0.71161 0.13349 0.0
H2197 H 0.53464 0.70086 0.12782 0.0
H2198 H 0.58775 0.68773 0.09097 0.0
H2199 H 0.54927 0.68845 0.06441 0.0
H2200 H 0.43593 0.44257 0.80506 0.0
H2201 H 0.39533 0.44184 0.83075 0.0
H2202 H 0.46143 0.4601 0.85876 0.0
H2203 H 0.50226 0.4607 0.83315 0.0
H2204 H 0.44022 0.44725 0.88073 0.0
H2205 H 0.32218 0.45972 0.84438 0.0
H2206 H 0.34085 0.45023 0.83449 0.0
H2207 H 0.36669 0.45998 0.83511 0.0
C2208 C 0.44189 0.44635 0.81681 0.0
C2209 C 0.47249 0.45158 0.81725 0.0
C2210 C 0.41849 0.44601 0.83142 0.0
C2211 C 0.42482 0.45102 0.8467 0.0
C2212 C 0.4558 0.45617 0.8472 0.0
H2213 H 0.27125 0.46462 0.92967 0.0
H2214 H 0.31093 0.46408 0.90362 0.0
C2215 C 0.47924 0.45648 0.83261 0.0
C2216 C 0.39926 0.45095 0.86211 0.0
H2217 H 0.31184 0.45455 0.87364 0.0
C2218 C 0.41215 0.44885 0.87915 0.0
C2219 C 0.36262 0.45315 0.86024 0.0
C2220 C 0.34726 0.45598 0.84262 0.0
C2221 C 0.38957 0.44881 0.8942 0.0
C2222 C 0.3527 0.45075 0.89223 0.0
C2223 C 0.33989 0.45294 0.87522 0.0
C2224 C 0.32732 0.4509 0.90772 0.0
C2225 C 0.40577 0.44691 0.91218 0.0
C2226 C 0.32233 0.44362 0.91856 0.0
C2227 C 0.29972 0.44395 0.93349 0.0
C2228 C 0.28144 0.45154 0.93784 0.0
C2229 C 0.28525 0.45871 0.92665 0.0
C2230 C 0.30792 0.45839 0.91177 0.0
H2231 H 0.43522 0.44789 0.91218 0.0
H2232 H 0.39384 0.45104 0.92266 0.0
H2233 H 0.40052 0.44011 0.91568 0.0
H2234 H 0.3361 0.43768 0.91554 0.0
H2235 H 0.297 0.43832 0.94185 0.0
H2236 H 0.25319 0.30876 0.83047 0.0
H2237 H 0.29414 0.30942 0.856 0.0
H2238 H 0.35972 0.32775 0.82794 0.0
H2239 H 0.31902 0.32694 0.80229 0.0
H2240 H 0.40009 0.31546 0.84252 0.0
H2241 H 0.30646 0.32751 0.89382 0.0
H2242 H 0.2906 0.3179 0.88325 0.0
H2243 H 0.29566 0.32758 0.87041 0.0
C2244 C 0.27595 0.31306 0.82998 0.0
C2245 C 0.28259 0.31796 0.81464 0.0
C2246 C 0.29934 0.31345 0.84456 0.0
C2247 C 0.32978 0.31877 0.84413 0.0
C2248 C 0.33635 0.32366 0.82872 0.0
H2249 H 0.46054 0.32924 0.93888 0.0
H2250 H 0.42209 0.33062 0.91245 0.0
C2251 C 0.31304 0.32323 0.81412 0.0
C2252 C 0.35567 0.31892 0.85932 0.0
H2253 H 0.36207 0.32189 0.90433 0.0
C2254 C 0.39177 0.31692 0.85601 0.0
C2255 C 0.34515 0.32095 0.87694 0.0
C2256 C 0.30744 0.32369 0.88132 0.0
C2257 C 0.41727 0.3167 0.86982 0.0
C2258 C 0.40638 0.31833 0.88756 0.0
C2259 C 0.37049 0.32055 0.8908 0.0
C2260 C 0.43156 0.31768 0.90298 0.0
C2261 C 0.45577 0.31484 0.86516 0.0
C2262 C 0.44994 0.30998 0.9065 0.0
C2263 C 0.4721 0.30923 0.92148 0.0
C2264 C 0.47594 0.31612 0.93339 0.0
C2265 C 0.45806 0.32386 0.92981 0.0
C2266 C 0.43599 0.32462 0.91478 0.0
H2267 H 0.4616 0.31642 0.85104 0.0
H2268 H 0.47441 0.31852 0.87379 0.0
H2269 H 0.46108 0.30789 0.86707 0.0
H2270 H 0.44644 0.30446 0.89791 0.0
H2271 H 0.48548 0.30319 0.92405 0.0
H2272 H 0.43469 0.04213 0.99621 0.0
H2273 H 0.47855 0.03053 0.9947 0.0
H2274 H 0.40882 0.01426 0.02536 0.0
H2275 H 0.36393 0.02578 0.02655 0.0
H2276 H 0.49675 0.01701 0.03394 0.0
H2277 H 0.45258 1.00541 0.96731 0.0
H2278 H 0.45385 0.01681 0.97163 0.0
H2279 H 0.42165 0.01024 0.98286 0.0
C2280 C 0.42827 0.03607 1.00252 0.0
C2281 C 0.39525 0.03492 0.01132 0.0
C2282 C 0.45367 0.02946 1.00175 0.0
C2283 C 0.44698 0.02151 0.00984 0.0
C2284 C 0.41458 0.02035 0.01902 0.0
H2285 H 0.56158 0.9731 0.99573 0.0
H2286 H 0.51677 0.98434 0.99973 0.0
C2287 C 0.38898 0.02697 0.01975 0.0
C2288 C 0.47366 0.01441 0.00829 0.0
H2289 H 0.50364 0.99888 0.97973 0.0
C2290 C 0.49823 0.01302 0.02213 0.0
C2291 C 0.47553 1.0092 0.9929 0.0
C2292 C 0.44953 0.01041 0.97776 0.0
C2293 C 0.52478 1.0066 0.02092 0.0
C2294 C 0.52717 1.00148 0.00534 0.0
C2295 C 0.50212 1.00281 0.99163 0.0
C2296 C 0.55503 0.99464 0.00306 0.0
C2297 C 0.5497 1.00527 0.03647 0.0
C2298 C 0.59176 0.99662 0.00337 0.0
C2299 C 0.61766 0.99018 1.00093 0.0
C2300 C 0.60754 0.98157 0.998 0.0
C2301 C 0.57065 0.97963 0.99764 0.0
C2302 C 0.54484 0.98607 1.00005 0.0
H2303 H 0.5387 1.00806 0.04893 0.0
H2304 H 0.55496 0.99833 0.03866 0.0
H2305 H 0.5756 1.00847 0.03365 0.0
H2306 H 0.60047 1.00319 0.00525 0.0
H2307 H 0.64563 0.99198 1.00103 0.0
H2308 H 0.65653 0.28395 0.96781 0.0
H2309 H 0.70181 0.27275 0.97142 0.0
H2310 H 0.67491 0.2706 0.027 0.0
H2311 H 0.62964 0.28183 0.02354 0.0
H2312 H 0.7617 0.27248 0.99241 0.0
H2313 H 0.6724 0.24566 0.01181 0.0
H2314 H 0.65558 0.25555 1.0025 0.0
H2315 H 0.66782 0.255 0.02563 0.0
C2316 C 0.66015 0.28112 0.98084 0.0
C2317 C 0.63911 0.28384 0.99536 0.0
C2318 C 0.6861 0.27467 0.98287 0.0
C2319 C 0.69168 0.2707 0.99944 0.0
C2320 C 0.6707 0.27338 0.01396 0.0
H2321 H 0.84025 0.23167 0.03896 0.0
H2322 H 0.79478 0.24284 0.03548 0.0
C2323 C 0.64468 0.27982 0.01194 0.0
C2324 C 0.72019 0.26399 1.00158 0.0
H2325 H 0.73485 0.24321 0.0146 0.0
C2326 C 0.75574 0.26607 0.99718 0.0
C2327 C 0.7127 0.25559 0.00786 0.0
C2328 C 0.67503 0.25277 0.01207 0.0
C2329 C 0.78386 0.26009 0.99917 0.0
C2330 C 0.77636 0.2517 0.00542 0.0
C2331 C 0.74081 0.24962 0.00984 0.0
C2332 C 0.80487 0.24498 0.00749 0.0
C2333 C 0.82152 0.26293 0.99497 0.0
C2334 C 0.82584 0.24235 0.99293 0.0
C2335 C 0.85195 0.23592 0.99487 0.0
C2336 C 0.85765 0.23187 0.0114 0.0
C2337 C 0.83655 0.23453 0.02596 0.0
C2338 C 0.81051 0.24096 0.02401 0.0
H2339 H 0.82416 0.27003 0.99533 0.0
H2340 H 0.841 0.26012 0.00449 0.0
H2341 H 0.82869 0.26074 0.98138 0.0
H2342 H 0.82158 0.24515 0.97991 0.0
H2343 H 0.86703 0.23396 0.98325 0.0
H2344 H 0.389 0.23634 0.2733 0.0
H2345 H 0.43291 0.24794 0.27598 0.0
H2346 H 0.46834 0.24313 0.22233 0.0
H2347 H 0.42363 0.23181 0.21925 0.0
H2348 H 0.50531 0.24752 0.27421 0.0
H2349 H 0.4554 0.26873 0.22058 0.0
H2350 H 0.42965 0.2598 0.22894 0.0
H2351 H 0.46475 0.25805 0.21295 0.0
C2352 C 0.40559 0.23784 0.26191 0.0
C2353 C 0.40236 0.23308 0.24601 0.0
C2354 C 0.43103 0.24446 0.26353 0.0
C2355 C 0.45385 0.24656 0.24929 0.0
C2356 C 0.45072 0.24182 0.23343 0.0
H2357 H 0.63193 0.28247 0.23387 0.0
H2358 H 0.58752 0.27095 0.23129 0.0
C2359 C 0.42529 0.23522 0.23178 0.0
C2360 C 0.48162 0.25349 0.25121 0.0
H2361 H 0.5128 0.2721 0.23245 0.0
C2362 C 0.50672 0.25292 0.26513 0.0
C2363 C 0.48381 0.26057 0.23939 0.0
C2364 C 0.45676 0.26189 0.22474 0.0
C2365 C 0.53412 0.25908 0.26732 0.0
C2366 C 0.53641 0.26612 0.25543 0.0
C2367 C 0.51131 0.2667 0.24154 0.0
C2368 C 0.5643 0.27301 0.25731 0.0
C2369 C 0.56093 0.25786 0.28211 0.0
C2370 C 0.56623 0.27808 0.27276 0.0
C2371 C 0.59173 0.28467 0.27431 0.0
C2372 C 0.61606 0.28641 0.26042 0.0
C2373 C 0.61414 0.28128 0.24497 0.0
C2374 C 0.58849 0.27471 0.24341 0.0
H2375 H 0.56153 0.25111 0.28687 0.0
H2376 H 0.58825 0.25969 0.27773 0.0
H2377 H 0.55344 0.26201 0.29352 0.0
H2378 H 0.54762 0.27704 0.28358 0.0
H2379 H 0.59239 0.28841 0.28646 0.0
H2380 H 0.66284 0.9823 0.2848 0.0
H2381 H 0.7084 0.99362 0.28314 0.0
H2382 H 0.68084 0.99813 0.22824 0.0
H2383 H 0.63468 0.98708 0.22994 0.0
H2384 H 0.76815 0.99451 0.26165 0.0
H2385 H 0.68046 0.02236 0.24765 0.0
H2386 H 0.66315 0.01221 0.25539 0.0
H2387 H 0.67431 0.01366 0.23229 0.0
C2388 C 0.66595 0.98581 0.27246 0.0
C2389 C 0.64484 0.98372 0.25752 0.0
C2390 C 0.6923 0.99225 0.27148 0.0
C2391 C 0.698 0.99685 0.25561 0.0
C2392 C 0.67674 0.99484 0.24075 0.0
H2393 H 0.84853 0.03672 0.2207 0.0
H2394 H 0.80297 0.02541 0.22235 0.0
C2395 C 0.65049 0.9884 0.2417 0.0
C2396 C 0.72699 1.0035 0.25435 0.0
H2397 H 0.743 0.02457 0.24388 0.0
C2398 C 0.76256 1.00109 0.25788 0.0
C2399 C 0.71999 0.01212 0.24932 0.0
C2400 C 0.68239 0.01528 0.2461 0.0
C2401 C 0.79115 1.00696 0.25622 0.0
C2402 C 0.78416 0.01557 0.25118 0.0
C2403 C 0.74859 0.01798 0.24765 0.0
C2404 C 0.81314 0.02222 0.24992 0.0
C2405 C 0.82876 1.0038 0.25945 0.0
C2406 C 0.83428 0.02427 0.26481 0.0
C2407 C 0.8605 0.0307 0.26387 0.0
C2408 C 0.86628 0.03536 0.24803 0.0
C2409 C 0.84532 0.03324 0.23305 0.0
C2410 C 0.81897 0.0268 0.23403 0.0
H2411 H 0.83069 0.99672 0.25796 0.0
H2412 H 0.84799 1.00686 0.25014 0.0
H2413 H 0.83684 1.00546 0.27325 0.0
H2414 H 0.83007 0.02099 0.27734 0.0
H2415 H 0.8762 0.03206 0.27566 0.0
H2416 H 0.3224 0.72445 0.99593 0.0
H2417 H 0.2785 0.73598 0.99347 0.0
H2418 H 0.35115 0.75329 0.01991 0.0
H2419 H 0.39593 0.74181 0.02191 0.0
H2420 H 0.24421 0.74555 0.01859 0.0
H2421 H 0.32554 0.76696 0.9757 0.0
H2422 H 0.33762 0.75592 0.97981 0.0
H2423 H 0.34692 0.76404 0.99622 0.0
C2424 C 0.32939 0.73073 1.00106 0.0
C2425 C 0.36318 0.73218 0.00889 0.0
C2426 C 0.304 0.73732 0.99975 0.0
C2427 C 0.31155 0.7456 0.00616 0.0
C2428 C 0.34483 0.74704 0.01446 0.0
H2429 H 0.19197 0.79363 0.00898 0.0
H2430 H 0.23602 0.78213 0.01147 0.0
C2431 C 0.37033 0.74042 0.0158 0.0
C2432 C 0.28436 0.75263 0.00423 0.0
H2433 H 0.27058 0.77257 0.98627 0.0
C2434 C 0.24999 0.75144 0.01147 0.0
C2435 C 0.29165 0.76034 0.99491 0.0
C2436 C 0.32729 0.76189 0.98606 0.0
C2437 C 0.22315 0.75777 0.00995 0.0
C2438 C 0.23043 0.76549 1.00062 0.0
C2439 C 0.2648 0.76667 0.99339 0.0
C2440 C 0.2032 0.7725 0.99865 0.0
C2441 C 0.18749 0.75622 0.01878 0.0
C2442 C 0.17002 0.77105 0.99028 0.0
C2443 C 0.14445 0.77765 0.98892 0.0
C2444 C 0.15143 0.78588 0.99589 0.0
C2445 C 0.18513 0.78735 0.0038 0.0
C2446 C 0.2106 0.78078 0.00512 0.0
H2447 H 0.18922 0.75115 0.02914 0.0
H2448 H 0.17717 0.76219 0.02504 0.0
H2449 H 0.16786 0.75409 0.00862 0.0
H2450 H 0.16382 0.76479 0.98479 0.0
H2451 H 0.11892 0.77625 0.98275 0.0
H2452 H 0.64732 0.77573 0.7719 0.0
H2453 H 0.60156 0.76444 0.7702 0.0
H2454 H 0.53122 0.78176 0.74235 0.0
H2455 H 0.57649 0.79301 0.744 0.0
H2456 H 0.53201 0.76357 0.78259 0.0
H2457 H 0.53144 0.76131 0.709 0.0
H2458 H 0.56583 0.76699 0.7211 0.0
H2459 H 0.52316 0.77197 0.71708 0.0
C2460 C 0.62204 0.77716 0.7655 0.0
C2461 C 0.61599 0.78529 0.75785 0.0
C2462 C 0.5959 0.77067 0.76446 0.0
C2463 C 0.56312 0.77214 0.75573 0.0
C2464 C 0.55661 0.78033 0.74865 0.0
H2465 H 0.36911 0.74181 0.73565 0.0
H2466 H 0.41472 0.75314 0.73737 0.0
C2467 C 0.58265 0.78679 0.74963 0.0
C2468 C 0.53551 0.76519 0.75421 0.0
H2469 H 0.48495 0.75389 0.72416 0.0
C2470 C 0.52193 0.76142 0.7698 0.0
C2471 C 0.52206 0.76237 0.73754 0.0
C2472 C 0.53658 0.7658 0.72021 0.0
C2473 C 0.49498 0.75508 0.76921 0.0
C2474 C 0.48149 0.75228 0.75254 0.0
C2475 C 0.49505 0.75604 0.73695 0.0
C2476 C 0.45393 0.74532 0.75102 0.0
C2477 C 0.48059 0.75159 0.7865 0.0
C2478 C 0.46093 0.73707 0.75766 0.0
C2479 C 0.43503 0.73058 0.7566 0.0
C2480 C 0.40127 0.73213 0.74882 0.0
C2481 C 0.39469 0.74034 0.74168 0.0
C2482 C 0.42074 0.74685 0.74274 0.0
H2483 H 0.48618 0.75598 0.79782 0.0
H2484 H 0.45127 0.7505 0.7857 0.0
H2485 H 0.49368 0.74535 0.7894 0.0
H2486 H 0.4866 0.73562 0.76363 0.0
H2487 H 0.44164 0.7243 0.76182 0.0
H2488 H 0.16862 0.98202 0.78808 0.0
H2489 H 0.21316 0.99343 0.78508 0.0
H2490 H 0.18582 0.99622 0.72967 0.0
H2491 H 0.14133 0.98478 0.73251 0.0
H2492 H 0.27292 0.99426 0.76398 0.0
H2493 H 0.18126 0.02092 0.74649 0.0
H2494 H 0.16535 0.01083 0.75523 0.0
H2495 H 0.17718 0.01176 0.73211 0.0
C2496 C 0.17202 0.98504 0.77522 0.0
C2497 C 0.15107 0.98244 0.76055 0.0
C2498 C 0.19752 0.99161 0.77354 0.0
C2499 C 0.20271 0.99582 0.75721 0.0
C2500 C 0.18187 0.99325 0.74254 0.0
H2501 H 0.34768 0.03586 0.7193 0.0
H2502 H 0.30331 0.02442 0.72238 0.0
C2503 C 0.15631 0.98669 0.7442 0.0
C2504 C 0.23064 1.00268 0.75543 0.0
H2505 H 0.24347 0.02369 0.74358 0.0
C2506 C 0.2664 1.0007 0.75961 0.0
C2507 C 0.22238 0.01112 0.74969 0.0
C2508 C 0.18443 0.01383 0.74578 0.0
C2509 C 0.29401 1.00683 0.75789 0.0
C2510 C 0.28574 0.01526 0.75213 0.0
C2511 C 0.24999 0.01724 0.74796 0.0
C2512 C 0.31367 0.02212 0.7503 0.0
C2513 C 0.33196 1.00412 0.76182 0.0
C2514 C 0.33443 0.02474 0.76495 0.0
C2515 C 0.35988 0.03133 0.76325 0.0
C2516 C 0.36509 0.03555 0.74686 0.0
C2517 C 0.34428 0.03288 0.7322 0.0
C2518 C 0.31889 0.02629 0.73392 0.0
H2519 H 0.33513 0.99704 0.76121 0.0
H2520 H 0.35102 1.0071 0.75232 0.0
H2521 H 0.33924 1.00624 0.77546 0.0
H2522 H 0.33048 0.0218 0.77786 0.0
H2523 H 0.37477 0.03328 0.77494 0.0
H2524 H 0.64438 0.4925 0.48327 0.0
H2525 H 0.59903 0.50387 0.48485 0.0
H2526 H 0.52784 0.48669 0.51254 0.0
H2527 H 0.57234 0.47527 0.51053 0.0
H2528 H 0.49273 0.49587 0.48684 0.0
H2529 H 0.57342 0.51795 0.52868 0.0
H2530 H 0.59477 0.51481 0.50829 0.0
H2531 H 0.58584 0.50689 0.5251 0.0
C2532 C 0.61898 0.49111 0.48957 0.0
C2533 C 0.61241 0.48295 0.49696 0.0
C2534 C 0.59315 0.49767 0.49066 0.0
C2535 C 0.56012 0.49623 0.49918 0.0
C2536 C 0.55314 0.48803 0.50607 0.0
H2537 H 0.36622 0.52661 0.52142 0.0
H2538 H 0.41153 0.51524 0.51978 0.0
C2539 C 0.57886 0.4815 0.50502 0.0
C2540 C 0.53262 0.5032 0.50085 0.0
H2541 H 0.51806 0.52328 0.51803 0.0
C2542 C 0.49828 0.50185 0.49371 0.0
C2543 C 0.53962 0.51103 0.50985 0.0
C2544 C 0.57528 0.51276 0.51858 0.0
C2545 C 0.47116 0.50812 0.49499 0.0
C2546 C 0.47816 0.51595 0.504 0.0
C2547 C 0.51251 0.5173 0.51115 0.0
C2548 C 0.45065 0.52292 0.5057 0.0
C2549 C 0.43554 0.50639 0.48624 0.0
C2550 C 0.45776 0.53115 0.49897 0.0
C2551 C 0.43207 0.53769 0.50008 0.0
C2552 C 0.39842 0.53621 0.508 0.0
C2553 C 0.3917 0.52802 0.51522 0.0
C2554 C 0.41751 0.52146 0.51409 0.0
H2555 H 0.43749 0.50123 0.47606 0.0
H2556 H 0.41608 0.50429 0.49649 0.0
H2557 H 0.42489 0.51227 0.47978 0.0
H2558 H 0.48315 0.5325 0.49261 0.0
H2559 H 0.43873 0.54394 0.49471 0.0
H2560 H 0.66477 0.78606 0.46676 0.0
H2561 H 0.70955 0.77476 0.47046 0.0
H2562 H 0.68168 0.77257 0.52592 0.0
H2563 H 0.637 0.78391 0.52238 0.0
H2564 H 0.76916 0.77428 0.49188 0.0
H2565 H 0.678 0.74765 0.51025 0.0
H2566 H 0.66195 0.75761 0.50092 0.0
H2567 H 0.67346 0.75697 0.52413 0.0
C2568 C 0.6681 0.78321 0.47979 0.0
C2569 C 0.64694 0.78596 0.49425 0.0
C2570 C 0.69374 0.77669 0.48186 0.0
C2571 C 0.69887 0.77267 0.49842 0.0
C2572 C 0.6778 0.77538 0.51289 0.0
H2573 H 0.84435 0.73313 0.53845 0.0
H2574 H 0.79955 0.74444 0.53477 0.0
C2575 C 0.65212 0.7819 0.51083 0.0
C2576 C 0.72699 0.76587 0.50062 0.0
H2577 H 0.74024 0.74501 0.51342 0.0
C2578 C 0.76276 0.76787 0.4965 0.0
C2579 C 0.7189 0.75748 0.50671 0.0
C2580 C 0.68097 0.75475 0.51061 0.0
C2581 C 0.79052 0.76181 0.49861 0.0
C2582 C 0.78242 0.75342 0.50468 0.0
C2583 C 0.74665 0.75142 0.5088 0.0
C2584 C 0.81054 0.74661 0.50687 0.0
C2585 C 0.82845 0.76455 0.49474 0.0
C2586 C 0.8318 0.74396 0.49243 0.0
C2587 C 0.85753 0.73745 0.49449 0.0
C2588 C 0.86254 0.73335 0.51102 0.0
C2589 C 0.84117 0.73603 0.52546 0.0
C2590 C 0.8155 0.74255 0.52339 0.0
H2591 H 0.83141 0.77165 0.49519 0.0
H2592 H 0.84748 0.76167 0.50438 0.0
H2593 H 0.83594 0.76238 0.48118 0.0
H2594 H 0.82806 0.74681 0.47942 0.0
H2595 H 0.87283 0.73548 0.48295 0.0
H2596 H 0.87226 0.53358 0.77512 0.0
H2597 H 0.82739 0.52224 0.77872 0.0
H2598 H 0.79758 0.52488 0.72358 0.0
H2599 H 0.84309 0.53597 0.7197 0.0
H2600 H 0.75427 0.52278 0.77447 0.0
H2601 H 0.81142 0.4992 0.72723 0.0
H2602 H 0.83626 0.50841 0.73498 0.0
H2603 H 0.80401 0.50952 0.71733 0.0
C2604 C 0.85665 0.53165 0.76365 0.0
C2605 C 0.86166 0.53573 0.74708 0.0
C2606 C 0.83069 0.5252 0.76578 0.0
C2607 C 0.80923 0.52257 0.75138 0.0
C2608 C 0.81413 0.52663 0.73485 0.0
H2609 H 0.63354 0.48721 0.73273 0.0
H2610 H 0.67963 0.4983 0.73159 0.0
C2611 C 0.84002 0.53308 0.73271 0.0
C2612 C 0.78114 0.51578 0.75371 0.0
H2613 H 0.75199 0.4965 0.7372 0.0
C2614 C 0.75397 0.517 0.76642 0.0
C2615 C 0.78055 0.50819 0.74326 0.0
C2616 C 0.8098 0.50619 0.73006 0.0
C2617 C 0.72582 0.51104 0.76854 0.0
C2618 C 0.72494 0.50353 0.75788 0.0
C2619 C 0.75239 0.50225 0.74535 0.0
C2620 C 0.69553 0.497 0.75913 0.0
C2621 C 0.69662 0.51298 0.7818 0.0
C2622 C 0.68866 0.49252 0.77504 0.0
C2623 C 0.66219 0.48609 0.77573 0.0
C2624 C 0.64211 0.48393 0.76048 0.0
C2625 C 0.6487 0.48856 0.74469 0.0
C2626 C 0.67507 0.49496 0.74402 0.0
H2627 H 0.69621 0.51988 0.78557 0.0
H2628 H 0.66996 0.5112 0.7764 0.0
H2629 H 0.70128 0.50917 0.79406 0.0
H2630 H 0.70443 0.49382 0.78683 0.0
H2631 H 0.65835 0.48262 0.78805 0.0
H2632 H 0.138 0.28406 0.52678 0.0
H2633 H 0.18415 0.27304 0.53065 0.0
H2634 H 0.21055 0.27476 0.47496 0.0
H2635 H 0.16426 0.28565 0.47087 0.0
H2636 H 0.19406 0.25686 0.51421 0.0
H2637 H 0.30762 0.27858 0.4992 0.0
H2638 H 0.26323 0.28252 0.50403 0.0
H2639 H 0.27367 0.2784 0.48229 0.0
C2640 C 0.15327 0.28204 0.51527 0.0
C2641 C 0.14737 0.28587 0.49852 0.0
C2642 C 0.17988 0.27575 0.51755 0.0
C2643 C 0.20147 0.27317 0.5032 0.0
C2644 C 0.19498 0.27679 0.48638 0.0
H2645 H 0.37644 0.23785 0.48393 0.0
H2646 H 0.32983 0.24881 0.48301 0.0
C2647 C 0.16838 0.28304 0.48407 0.0
C2648 C 0.23067 0.26669 0.50572 0.0
H2649 H 0.32094 0.2637 0.50104 0.0
C2650 C 0.22184 0.25837 0.51147 0.0
C2651 C 0.26702 0.26864 0.50216 0.0
C2652 C 0.27862 0.27753 0.49674 0.0
C2653 C 0.24805 0.2519 0.51317 0.0
C2654 C 0.28439 0.25381 0.50941 0.0
C2655 C 0.29322 0.26218 0.50391 0.0
C2656 C 0.31343 0.24718 0.5104 0.0
C2657 C 0.23629 0.24297 0.51834 0.0
C2658 C 0.32064 0.24267 0.52623 0.0
C2659 C 0.34728 0.2363 0.52678 0.0
C2660 C 0.36756 0.2343 0.51151 0.0
C2661 C 0.36102 0.23904 0.49587 0.0
C2662 C 0.33442 0.24539 0.49534 0.0
H2663 H 0.20714 0.24202 0.51618 0.0
H2664 H 0.25107 0.23803 0.51063 0.0
H2665 H 0.24189 0.24195 0.53268 0.0
H2666 H 0.30555 0.24405 0.5382 0.0
H2667 H 0.35131 0.23279 0.53905 0.0
H2668 H 0.1337 0.48758 0.23104 0.0
H2669 H 0.18003 0.4986 0.2291 0.0
H2670 H 0.20896 0.49398 0.28378 0.0
H2671 H 0.16262 0.48285 0.28582 0.0
H2672 H 0.20624 0.51142 0.2755 0.0
H2673 H 0.28706 0.49424 0.22493 0.0
H2674 H 0.24131 0.49585 0.21848 0.0
H2675 H 0.25153 0.48909 0.23719 0.0
C2676 C 0.15002 0.48884 0.24267 0.0
C2677 C 0.14449 0.48419 0.25854 0.0
C2678 C 0.17666 0.49516 0.24151 0.0
C2679 C 0.19878 0.49702 0.25614 0.0
C2680 C 0.19254 0.49264 0.27222 0.0
H2681 H 0.37563 0.53281 0.27558 0.0
H2682 H 0.32963 0.52172 0.27765 0.0
C2683 C 0.16581 0.48629 0.27341 0.0
C2684 C 0.22813 0.50356 0.25463 0.0
H2685 H 0.30393 0.50863 0.23119 0.0
C2686 C 0.2277 0.51078 0.26588 0.0
C2687 C 0.25623 0.50279 0.24203 0.0
C2688 C 0.25938 0.49504 0.23007 0.0
C2689 C 0.25392 0.51727 0.26465 0.0
C2690 C 0.28204 0.5165 0.25206 0.0
C2691 C 0.28248 0.50928 0.24082 0.0
C2692 C 0.31132 0.52306 0.25048 0.0
C2693 C 0.25064 0.52503 0.27657 0.0
C2694 C 0.31779 0.52732 0.23428 0.0
C2695 C 0.3444 0.53369 0.23301 0.0
C2696 C 0.36533 0.53595 0.2479 0.0
C2697 C 0.35961 0.53143 0.26391 0.0
C2698 C 0.33313 0.52507 0.26515 0.0
H2699 H 0.22288 0.52585 0.28158 0.0
H2700 H 0.26849 0.52422 0.28825 0.0
H2701 H 0.25865 0.53098 0.26947 0.0
H2702 H 0.30164 0.52587 0.22269 0.0
H2703 H 0.34777 0.53703 0.22049 0.0
H2704 H 0.10063 0.98296 0.46722 0.0
H2705 H 0.05603 0.99451 0.46848 0.0
H2706 H 0.08301 0.99915 0.52342 0.0
H2707 H 0.12827 0.98789 0.52211 0.0
H2708 H 0.99603 0.99591 0.48944 0.0
H2709 H 0.08631 0.02323 0.50368 0.0
H2710 H 0.10273 0.01294 0.49621 0.0
H2711 H 0.09155 0.0146 0.51926 0.0
C2712 C 0.0976 0.98654 0.47948 0.0
C2713 C 0.11828 0.98444 0.49456 0.0
C2714 C 0.0718 0.99312 0.48022 0.0
C2715 C 0.06627 0.99782 0.49598 0.0
C2716 C 0.08706 0.99577 0.51098 0.0
H2717 H 0.92027 0.03689 0.53542 0.0
H2718 H 0.96551 0.02575 0.53112 0.0
C2719 C 0.11276 0.98922 0.51026 0.0
C2720 C 0.03799 1.00464 0.49704 0.0
H2721 H 0.02395 0.02569 0.50828 0.0
C2722 C 1.00222 1.00244 0.49339 0.0
C2723 C 0.04583 0.0132 0.50221 0.0
C2724 C 0.08372 0.01617 0.50539 0.0
C2725 C 0.97416 1.00844 0.49531 0.0
C2726 C 0.98196 0.01695 0.50078 0.0
C2727 C 0.01778 0.01918 0.50419 0.0
C2728 C 0.95345 0.02361 0.50331 0.0
C2729 C 0.93623 1.00552 0.49202 0.0
C2730 C 0.93142 0.02622 0.48912 0.0
C2731 C 0.9055 0.03265 0.49152 0.0
C2732 C 0.90102 0.03672 0.50815 0.0
C2733 C 0.92306 0.03404 0.52235 0.0
C2734 C 0.94896 0.02762 0.51993 0.0
H2735 H 0.93383 0.99841 0.49237 0.0
H2736 H 0.91771 1.00829 0.50204 0.0
H2737 H 0.92757 1.00773 0.47866 0.0
H2738 H 0.93475 0.02339 0.47606 0.0
H2739 H 0.88965 0.03461 0.48016 0.0
H2740 H 0.93805 0.22567 0.76033 0.0
H2741 H 0.98224 0.23719 0.76193 0.0
H2742 H 0.90963 0.25418 0.73465 0.0
H2743 H 0.86459 0.24273 0.73351 0.0
H2744 H 0.01625 0.24634 0.73597 0.0
H2745 H 0.93619 0.26844 0.77801 0.0
H2746 H 0.92388 0.25735 0.77462 0.0
H2747 H 0.91433 0.26523 0.75779 0.0
C2748 C 0.93114 0.23188 0.75483 0.0
C2749 C 0.89731 0.23326 0.74702 0.0
C2750 C 0.95668 0.23846 0.75565 0.0
C2751 C 0.94922 0.24664 0.74874 0.0
C2752 C 0.91588 0.248 0.74047 0.0
H2753 H 0.06989 0.29447 0.7428 0.0
H2754 H 0.02555 0.28299 0.74092 0.0
C2755 C 0.89023 0.2414 0.73963 0.0
C2756 C 0.97656 0.25366 0.75012 0.0
H2757 H 0.99106 0.27383 0.76685 0.0
C2758 C 0.01073 0.25234 0.74277 0.0
C2759 C 0.96959 0.26151 0.75903 0.0
C2760 C 0.93415 0.26322 0.76797 0.0
C2761 C 0.03771 0.25865 0.74379 0.0
C2762 C 0.03074 0.2665 0.75271 0.0
C2763 C 0.99656 0.26783 0.76004 0.0
C2764 C 0.05818 0.27349 0.7542 0.0
C2765 C 0.07316 0.25694 0.73487 0.0
C2766 C 0.09135 0.27209 0.7626 0.0
C2767 C 0.11708 0.27867 0.76361 0.0
C2768 C 0.11025 0.28683 0.75626 0.0
C2769 C 0.0766 0.28824 0.74828 0.0
C2770 C 0.05097 0.28169 0.7473 0.0
H2771 H 0.07111 0.25174 0.7248 0.0
H2772 H 0.0835 0.26282 0.72825 0.0
H2773 H 0.09293 0.25492 0.74505 0.0
H2774 H 0.0974 0.2659 0.7684 0.0
H2775 H 0.14258 0.2773 0.76984 0.0
H2776 H 0.12098 0.783 0.229 0.0
H2777 H 0.07453 0.77198 0.22759 0.0
H2778 H 0.05057 0.77611 0.28303 0.0
H2779 H 0.09638 0.78736 0.28443 0.0
H2780 H 0.06555 0.75674 0.24556 0.0
H2781 H 0.95212 0.77856 0.26042 0.0
H2782 H 0.99613 0.78248 0.25481 0.0
H2783 H 0.9869 0.77866 0.27692 0.0
C2784 C 0.10572 0.78164 0.24091 0.0
C2785 C 0.11237 0.7862 0.25679 0.0
C2786 C 0.0792 0.77526 0.24009 0.0
C2787 C 0.05833 0.77328 0.25509 0.0
C2788 C 0.06563 0.77762 0.27113 0.0
H2789 H 0.88242 0.73773 0.27542 0.0
H2790 H 0.92907 0.74869 0.27678 0.0
C2791 C 0.09226 0.784 0.27198 0.0
C2792 C 0.02916 0.76668 0.25384 0.0
H2793 H 0.93889 0.7637 0.25895 0.0
C2794 C 0.03785 0.75828 0.24844 0.0
C2795 C 0.99285 0.76863 0.25754 0.0
C2796 C 0.98125 0.77758 0.26259 0.0
C2797 C 0.0116 0.7518 0.247 0.0
C2798 C 0.97527 0.75375 0.25069 0.0
C2799 C 0.96659 0.76215 0.25608 0.0
C2800 C 0.94606 0.74715 0.24946 0.0
C2801 C 0.02327 0.74284 0.24202 0.0
C2802 C 0.93913 0.7427 0.23351 0.0
C2803 C 0.91243 0.73633 0.2327 0.0
C2804 C 0.89181 0.73427 0.24781 0.0
C2805 C 0.89808 0.73897 0.26358 0.0
C2806 C 0.92472 0.74531 0.26436 0.0
H2807 H 0.05234 0.74186 0.24438 0.0
H2808 H 0.00819 0.73794 0.2497 0.0
H2809 H 0.01803 0.74177 0.22766 0.0
H2810 H 0.95449 0.7441 0.22165 0.0
H2811 H 0.90863 0.73287 0.22034 0.0
H2812 H 0.13828 0.49116 0.98176 0.0
H2813 H 0.092 0.5023 0.9832 0.0
H2814 H 0.02501 0.4854 0.01405 0.0
H2815 H 0.06999 0.47416 0.01191 0.0
H2816 H 0.98589 0.49335 0.99011 0.0
H2817 H 0.06879 0.51779 0.02435 0.0
H2818 H 0.08742 0.51433 0.00354 0.0
H2819 H 0.0833 0.50682 0.02163 0.0
C2820 C 0.1136 0.48977 0.98873 0.0
C2821 C 0.10841 0.48173 0.99693 0.0
C2822 C 0.08725 0.49622 0.98977 0.0
C2823 C 0.05511 0.49483 0.99914 0.0
C2824 C 0.04957 0.48674 0.00692 0.0
H2825 H 0.90511 0.53473 0.03492 0.0
H2826 H 0.95002 0.52329 0.03309 0.0
C2827 C 0.07568 0.4803 0.00581 0.0
C2828 C 0.02682 0.50165 1.00065 0.0
H2829 H 0.01148 0.52231 0.01438 0.0
C2830 C 0.99159 0.49967 0.99544 0.0
C2831 C 0.03376 0.5099 0.00791 0.0
C2832 C 0.07026 0.51233 0.01485 0.0
C2833 C 0.96349 0.50566 0.99708 0.0
C2834 C 0.97068 0.51402 0.00371 0.0
C2835 C 0.0058 0.51597 0.00914 0.0
C2836 C 0.9423 0.52082 0.005 0.0
C2837 C 0.92614 0.50288 0.99206 0.0
C2838 C 0.92271 0.52331 0.98989 0.0
C2839 C 0.89665 0.52977 0.99095 0.0
C2840 C 0.88965 0.53406 0.00712 0.0
C2841 C 0.90922 0.53154 0.02229 0.0
C2842 C 0.93526 0.52503 0.02121 0.0
H2843 H 0.92317 0.49579 0.99275 0.0
H2844 H 0.9058 0.50585 1.00089 0.0
H2845 H 0.92054 0.50487 0.97816 0.0
H2846 H 0.92791 0.52033 0.97712 0.0
H2847 H 0.88203 0.5314 0.97899 0.0
H2848 H 0.37092 0.06669 0.95262 0.0
H2849 H 0.38902 0.06822 0.92143 0.0
H2850 H 0.30261 0.0861 0.91279 0.0
H2851 H 0.28434 0.08449 0.94409 0.0
H2852 H 0.30501 0.07347 0.88729 0.0
H2853 H 0.43988 0.08762 0.89563 0.0
H2854 H 0.4339 0.07798 0.90835 0.0
H2855 H 0.4075 0.08732 0.91345 0.0
C2856 C 0.35643 0.07111 0.94414 0.0
C2857 C 0.32677 0.07563 0.95078 0.0
C2858 C 0.36675 0.07198 0.92633 0.0
C2859 C 0.3476 0.07739 0.91478 0.0
C2860 C 0.31802 0.08195 0.92146 0.0
H2861 H 0.42467 0.08759 0.80623 0.0
H2862 H 0.40205 0.08942 0.83677 0.0
C2863 C 0.30772 0.08109 0.93932 0.0
C2864 C 0.35716 0.07782 0.89553 0.0
H2865 H 0.42674 0.08157 0.86705 0.0
C2866 C 0.33152 0.07533 0.88285 0.0
C2867 C 0.39159 0.08035 0.88966 0.0
C2868 C 0.4197 0.08355 0.90247 0.0
C2869 C 0.33976 0.075 0.86459 0.0
C2870 C 0.37477 0.07708 0.85883 0.0
C2871 C 0.4 0.07988 0.87144 0.0
C2872 C 0.38617 0.07614 0.83991 0.0
C2873 C 0.31082 0.07242 0.85164 0.0
C2874 C 0.38473 0.06809 0.83147 0.0
C2875 C 0.39745 0.06707 0.81407 0.0
C2876 C 0.41207 0.07406 0.80482 0.0
C2877 C 0.41317 0.08214 0.8131 0.0
C2878 C 0.40042 0.08316 0.83053 0.0
H2879 H 0.28372 0.07359 0.85722 0.0
H2880 H 0.31334 0.07599 0.8389 0.0
H2881 H 0.31316 0.06546 0.84875 0.0
H2882 H 0.37466 0.06253 0.83851 0.0
H2883 H 0.39676 0.06076 0.80798 0.0
H2884 H 0.86386 0.20083 0.95755 0.0
H2885 H 0.84188 0.19905 0.92697 0.0
H2886 H 0.93286 0.18301 0.91488 0.0
H2887 H 0.95384 0.1845 0.94566 0.0
H2888 H 0.87241 0.20436 0.89781 0.0
H2889 H 0.85591 0.16921 0.89174 0.0
H2890 H 0.86252 0.17443 0.91293 0.0
H2891 H 0.90019 0.17202 0.89884 0.0
C2892 C 0.87852 0.19674 0.94844 0.0
C2893 C 0.9103 0.19273 0.95393 0.0
C2894 C 0.86613 0.19576 0.93095 0.0
C2895 C 0.88539 0.1908 0.91857 0.0
C2896 C 0.91689 0.18667 0.92421 0.0
H2897 H 0.87646 0.19998 0.80458 0.0
H2898 H 0.89406 0.19851 0.83583 0.0
C2899 C 0.92903 0.18757 0.94175 0.0
C2900 C 0.87417 0.19056 0.89948 0.0
H2901 H 0.85761 0.17712 0.86435 0.0
C2902 C 0.8689 0.19838 0.89058 0.0
C2903 C 0.8691 0.18278 0.88997 0.0
C2904 C 0.87185 0.17414 0.89892 0.0
C2905 C 0.85948 0.19867 0.87248 0.0
C2906 C 0.8563 0.19092 0.86273 0.0
C2907 C 0.86066 0.18307 0.8717 0.0
C2908 C 0.84803 0.19088 0.8433 0.0
C2909 C 0.85239 0.20732 0.8641 0.0
C2910 C 0.81745 0.18664 0.83679 0.0
C2911 C 0.80789 0.18729 0.81879 0.0
C2912 C 0.82881 0.19217 0.80699 0.0
C2913 C 0.86017 0.19609 0.81335 0.0
C2914 C 0.86992 0.19535 0.83126 0.0
H2915 H 0.84527 0.21221 0.87426 0.0
H2916 H 0.87693 0.20955 0.8572 0.0
H2917 H 0.83035 0.20695 0.8542 0.0
H2918 H 0.80021 0.18311 0.84577 0.0
H2919 H 0.78337 0.18431 0.81421 0.0
H2920 H 0.4757 0.18392 0.44464 0.0
H2921 H 0.45857 0.1824 0.41315 0.0
H2922 H 0.37503 0.20117 0.42061 0.0
H2923 H 0.39181 0.20256 0.45204 0.0
H2924 H 0.35266 0.18764 0.4 0.0
H2925 H 0.48264 0.20021 0.37546 0.0
H2926 H 0.48614 0.19091 0.38946 0.0
H2927 H 0.46964 0.20083 0.39855 0.0
C2928 C 0.4533 0.18758 0.43954 0.0
C2929 C 0.43473 0.19327 0.45071 0.0
C2930 C 0.44377 0.18679 0.42155 0.0
C2931 C 0.41584 0.19177 0.4144 0.0
C2932 C 0.39665 0.19726 0.42577 0.0
H2933 H 0.36951 0.20785 0.30708 0.0
H2934 H 0.39022 0.20612 0.33789 0.0
C2935 C 0.4061 0.19803 0.44372 0.0
C2936 C 0.40704 0.1915 0.39505 0.0
H2937 H 0.44093 0.19577 0.3537 0.0
C2938 C 0.37202 0.18937 0.38987 0.0
C2939 C 0.43216 0.19388 0.38182 0.0
C2940 C 0.46966 0.19667 0.38654 0.0
C2941 C 0.36138 0.18959 0.3719 0.0
C2942 C 0.38663 0.19185 0.35865 0.0
C2943 C 0.4217 0.19394 0.36382 0.0
C2944 C 0.37652 0.19264 0.33952 0.0
C2945 C 0.32282 0.18771 0.36736 0.0
C2946 C 0.36288 0.18559 0.32997 0.0
C2947 C 0.35103 0.18659 0.31237 0.0
C2948 C 0.35293 0.19463 0.30402 0.0
C2949 C 0.36792 0.20159 0.31329 0.0
C2950 C 0.37968 0.2006 0.33086 0.0
H2951 H 0.30524 0.18809 0.37925 0.0
H2952 H 0.31269 0.19226 0.35717 0.0
H2953 H 0.32077 0.18112 0.36186 0.0
H2954 H 0.36084 0.17935 0.33621 0.0
H2955 H 0.33949 0.18115 0.30545 0.0
H2956 H 0.83878 0.08892 0.45225 0.0
H2957 H 0.86016 0.09093 0.42155 0.0
H2958 H 0.88587 0.06396 0.41846 0.0
H2959 H 0.86515 0.06202 0.4492 0.0
H2960 H 0.93801 0.07417 0.40327 0.0
H2961 H 0.80326 0.08309 0.37809 0.0
H2962 H 0.81977 0.08972 0.39585 0.0
H2963 H 0.81019 0.07859 0.39994 0.0
C2964 C 0.8495 0.08348 0.44502 0.0
C2965 C 0.85037 0.07532 0.45295 0.0
C2966 C 0.86137 0.0846 0.42747 0.0
C2967 C 0.87401 0.07756 0.41756 0.0
C2968 C 0.87611 0.06948 0.42579 0.0
H2969 H 0.88868 0.06801 0.30517 0.0
H2970 H 0.87176 0.06951 0.33654 0.0
C2971 C 0.86434 0.06837 0.44331 0.0
C2972 C 0.88418 0.0785 0.39848 0.0
H2973 H 0.8506 0.08329 0.35732 0.0
C2974 C 0.91898 0.07622 0.39323 0.0
C2975 C 0.85919 0.08107 0.38535 0.0
C2976 C 0.82091 0.08319 0.38999 0.0
C2977 C 0.92938 0.07637 0.37524 0.0
C2978 C 0.90449 0.07902 0.36212 0.0
C2979 C 0.86978 0.08136 0.36739 0.0
C2980 C 0.91313 0.07877 0.34277 0.0
C2981 C 0.96652 0.07337 0.37037 0.0
C2982 C 0.94137 0.08366 0.33566 0.0
C2983 C 0.95095 0.08282 0.3177 0.0
C2984 C 0.93214 0.07717 0.30654 0.0
C2985 C 0.90314 0.07252 0.31348 0.0
C2986 C 0.89361 0.07335 0.3314 0.0
H2987 H 0.97932 0.06974 0.38138 0.0
H2988 H 0.96586 0.06923 0.35834 0.0
H2989 H 0.98352 0.07903 0.36741 0.0
H2990 H 0.95645 0.08799 0.34409 0.0
H2991 H 0.97364 0.08639 0.31263 0.0
H2992 H 0.67332 0.92999 0.05377 0.0
H2993 H 0.65067 0.92805 0.08427 0.0
H2994 H 0.62257 0.9549 0.08635 0.0
H2995 H 0.64467 0.95677 0.05585 0.0
H2996 H 0.67528 0.93584 0.11454 0.0
H2997 H 0.53212 0.94371 0.10514 0.0
H2998 H 0.56161 0.9414 0.08672 0.0
H2999 H 0.56121 0.95191 0.09668 0.0
C3000 C 0.66164 0.93541 0.0607 0.0
C3001 C 0.66036 0.9435 0.05253 0.0
C3002 C 0.64887 0.93432 0.0781 0.0
C3003 C 0.63443 0.9413 0.08756 0.0
C3004 C 0.63277 0.94937 0.07923 0.0
H3005 H 0.62141 0.95108 0.20001 0.0
H3006 H 0.63875 0.94936 0.16876 0.0
C3007 C 0.6455 0.95045 0.06186 0.0
C3008 C 0.6232 0.94032 0.10649 0.0
H3009 H 0.55386 0.94399 0.13517 0.0
C3010 C 0.6486 0.93753 0.11901 0.0
C3011 C 0.58826 0.9424 0.11236 0.0
C3012 C 0.55912 0.94494 0.0995 0.0
C3013 C 0.64045 0.9371 0.13727 0.0
C3014 C 0.60613 0.93966 0.14325 0.0
C3015 C 0.58029 0.94211 0.13065 0.0
C3016 C 0.59698 0.9402 0.16253 0.0
C3017 C 0.66873 0.93391 0.14998 0.0
C3018 C 0.56743 0.93572 0.16946 0.0
C3019 C 0.55754 0.9367 0.18735 0.0
C3020 C 0.577 0.94219 0.19859 0.0
C3021 C 0.60661 0.94663 0.1917 0.0
C3022 C 0.6165 0.94565 0.17386 0.0
H3023 H 0.68863 0.92978 0.14311 0.0
H3024 H 0.68324 0.93949 0.15568 0.0
H3025 H 0.65667 0.93022 0.1611 0.0
H3026 H 0.55173 0.93155 0.16095 0.0
H3027 H 0.5342 0.93335 0.19233 0.0
H3028 H 0.04804 0.83795 0.05853 0.0
H3029 H 0.06853 0.84031 0.08932 0.0
H3030 H 0.14168 0.81902 0.08408 0.0
H3031 H 0.12189 0.81686 0.05331 0.0
H3032 H 0.06366 0.83001 0.11732 0.0
H3033 H 0.20698 0.83652 0.10572 0.0
H3034 H 0.17461 0.83649 0.0879 0.0
H3035 H 0.19376 0.82656 0.09571 0.0
C3036 C 0.06904 0.83393 0.06393 0.0
C3037 C 0.08395 0.82734 0.05357 0.0
C3038 C 0.08062 0.83523 0.0815 0.0
C3039 C 0.10725 0.82996 0.08899 0.0
C3040 C 0.122 0.82336 0.07853 0.0
H3041 H 0.14164 0.81629 0.19857 0.0
H3042 H 0.12057 0.81814 0.16793 0.0
C3043 C 0.11061 0.8221 0.06098 0.0
C3044 C 0.11805 0.83095 0.10803 0.0
H3045 H 0.19098 0.83217 0.13542 0.0
C3046 C 0.09148 0.83059 0.12125 0.0
C3047 C 0.15427 0.83188 0.11329 0.0
C3048 C 0.18397 0.83298 0.09989 0.0
C3049 C 0.10022 0.83076 0.13947 0.0
C3050 C 0.13664 0.83106 0.14471 0.0
C3051 C 0.16308 0.83181 0.1315 0.0
C3052 C 0.148 0.83022 0.16369 0.0
C3053 C 0.07021 0.83064 0.15289 0.0
C3054 C 0.17118 0.83627 0.17152 0.0
C3055 C 0.18357 0.83515 0.18901 0.0
C3056 C 0.17296 0.82796 0.19893 0.0
C3057 C 0.14962 0.82196 0.19121 0.0
C3058 C 0.13746 0.82304 0.17375 0.0
H3059 H 0.04529 0.83341 0.14724 0.0
H3060 H 0.06442 0.82389 0.15667 0.0
H3061 H 0.07738 0.83428 0.1651 0.0
H3062 H 0.17999 0.84182 0.16403 0.0
H3063 H 0.20192 0.83979 0.19467 0.0
H3064 H 0.64412 0.81617 0.69944 0.0
H3065 H 0.62616 0.81739 0.66813 0.0
H3066 H 0.71159 0.8355 0.65911 0.0
H3067 H 0.72977 0.83419 0.6905 0.0
H3068 H 0.60469 0.83114 0.6474 0.0
H3069 H 0.73101 0.81707 0.62163 0.0
H3070 H 0.71889 0.81667 0.64486 0.0
H3071 H 0.73675 0.82638 0.63547 0.0
C3072 C 0.65861 0.82052 0.6908 0.0
C3073 C 0.68802 0.82517 0.69735 0.0
C3074 C 0.64848 0.82119 0.67292 0.0
C3075 C 0.66778 0.82645 0.66116 0.0
C3076 C 0.69663 0.83129 0.66782 0.0
H3077 H 0.58948 0.83756 0.55282 0.0
H3078 H 0.612 0.83912 0.58345 0.0
C3079 C 0.70679 0.83062 0.68575 0.0
C3080 C 0.65801 0.82666 0.6419 0.0
H3081 H 0.68902 0.8218 0.60025 0.0
C3082 C 0.6232 0.82915 0.63708 0.0
C3083 C 0.68198 0.82394 0.62843 0.0
C3084 C 0.71915 0.82079 0.63279 0.0
C3085 C 0.61168 0.82897 0.61924 0.0
C3086 C 0.63581 0.82635 0.60574 0.0
C3087 C 0.67065 0.82389 0.61055 0.0
C3088 C 0.62471 0.82565 0.58671 0.0
C3089 C 0.57337 0.83128 0.61509 0.0
C3090 C 0.62571 0.81765 0.57807 0.0
C3091 C 0.61323 0.81679 0.56058 0.0
C3092 C 0.59969 0.82392 0.55136 0.0
C3093 C 0.59985 0.83199 0.55971 0.0
C3094 C 0.61239 0.83285 0.57722 0.0
H3095 H 0.55627 0.83116 0.62718 0.0
H3096 H 0.57244 0.83787 0.6095 0.0
H3097 H 0.56185 0.82681 0.60509 0.0
H3098 H 0.6352 0.812 0.58504 0.0
H3099 H 0.61325 0.8105 0.55438 0.0
H3100 H 0.13739 0.95104 0.55281 0.0
H3101 H 0.1203 0.94967 0.58414 0.0
H3102 H 0.21443 0.93436 0.594 0.0
H3103 H 0.23075 0.93545 0.56235 0.0
H3104 H 0.15747 0.92827 0.61252 0.0
H3105 H 0.16831 0.96335 0.62279 0.0
H3106 H 0.13673 0.96068 0.60568 0.0
H3107 H 0.18338 0.95817 0.60267 0.0
C3108 C 0.15391 0.9472 0.56159 0.0
C3109 C 0.18513 0.94325 0.55516 0.0
C3110 C 0.14445 0.94653 0.57955 0.0
C3111 C 0.16649 0.94208 0.59158 0.0
C3112 C 0.19706 0.93786 0.58503 0.0
H3113 H 0.148 0.9517 0.70598 0.0
H3114 H 0.17075 0.95013 0.6755 0.0
C3115 C 0.20634 0.93846 0.56698 0.0
C3116 C 0.15817 0.94207 0.61101 0.0
H3117 H 0.14086 0.95539 0.64614 0.0
C3118 C 0.15405 0.93419 0.6199 0.0
C3119 C 0.1545 0.94979 0.62082 0.0
C3120 C 0.16134 0.95847 0.61255 0.0
C3121 C 0.14532 0.93384 0.63813 0.0
C3122 C 0.13967 0.94158 0.64769 0.0
C3123 C 0.14478 0.94944 0.63888 0.0
C3124 C 0.12796 0.94175 0.66671 0.0
C3125 C 0.14287 0.92517 0.64699 0.0
C3126 C 0.09658 0.93749 0.6721 0.0
C3127 C 0.08401 0.93827 0.68959 0.0
C3128 C 0.10214 0.94346 0.70196 0.0
C3129 C 0.13378 0.9476 0.69671 0.0
C3130 C 0.1466 0.94674 0.67928 0.0
H3131 H 0.15928 0.92031 0.63987 0.0
H3132 H 0.15183 0.92547 0.66106 0.0
H3133 H 0.11466 0.92295 0.64669 0.0
H3134 H 0.08105 0.9338 0.66263 0.0
H3135 H 0.05933 0.93509 0.6933 0.0
H3136 H 0.31077 0.58978 0.44697 0.0
H3137 H 0.33273 0.59182 0.41634 0.0
H3138 H 0.38053 0.56661 0.41772 0.0
H3139 H 0.35944 0.56471 0.44836 0.0
H3140 H 0.42458 0.578 0.40209 0.0
H3141 H 0.28875 0.58085 0.37274 0.0
H3142 H 0.29855 0.58869 0.38958 0.0
H3143 H 0.29601 0.57751 0.39543 0.0
C3144 C 0.32628 0.58475 0.44069 0.0
C3145 C 0.33341 0.57709 0.44986 0.0
C3146 C 0.33853 0.58586 0.42318 0.0
C3147 C 0.35773 0.57929 0.41453 0.0
C3148 C 0.3657 0.57176 0.42401 0.0
H3149 H 0.38732 0.56779 0.30345 0.0
H3150 H 0.36732 0.56942 0.33436 0.0
C3151 C 0.35368 0.57067 0.44148 0.0
C3152 C 0.3692 0.58012 0.39557 0.0
H3153 H 0.33758 0.58243 0.3531 0.0
C3154 C 0.40557 0.57902 0.39139 0.0
C3155 C 0.34437 0.58133 0.38153 0.0
C3156 C 0.3047 0.58209 0.38496 0.0
C3157 C 0.41771 0.57899 0.37365 0.0
C3158 C 0.39295 0.58031 0.35963 0.0
C3159 C 0.35664 0.58151 0.36382 0.0
C3160 C 0.40371 0.57983 0.34052 0.0
C3161 C 0.45675 0.57718 0.37011 0.0
C3162 C 0.43024 0.58527 0.33347 0.0
C3163 C 0.44174 0.58431 0.3158 0.0
C3164 C 0.42646 0.578 0.30482 0.0
C3165 C 0.39914 0.57277 0.31165 0.0
C3166 C 0.38781 0.57369 0.3293 0.0
H3167 H 0.47011 0.57422 0.3818 0.0
H3168 H 0.46002 0.57284 0.3585 0.0
H3169 H 0.47069 0.5833 0.36713 0.0
H3170 H 0.44243 0.59017 0.3417 0.0
H3171 H 0.46302 0.58837 0.3108 0.0
H3172 H 0.78433 0.68422 0.31445 0.0
H3173 H 0.80262 0.68298 0.34582 0.0
H3174 H 0.88719 0.70131 0.33671 0.0
H3175 H 0.86913 0.70246 0.30541 0.0
H3176 H 0.90924 0.68769 0.35768 0.0
H3177 H 0.78197 0.70146 0.383 0.0
H3178 H 0.77681 0.69209 0.36929 0.0
H3179 H 0.79424 0.70182 0.35979 0.0
C3180 C 0.80717 0.68785 0.31916 0.0
C3181 C 0.82564 0.69334 0.30755 0.0
C3182 C 0.81739 0.68722 0.33708 0.0
C3183 C 0.84599 0.69215 0.34373 0.0
C3184 C 0.86507 0.69744 0.33194 0.0
H3185 H 0.8982 0.7086 0.45046 0.0
H3186 H 0.87691 0.70693 0.41973 0.0
C3187 C 0.85488 0.69807 0.31406 0.0
C3188 C 0.85563 0.69202 0.36301 0.0
H3189 H 0.82399 0.69692 0.40452 0.0
C3190 C 0.89053 0.68966 0.36794 0.0
C3191 C 0.8314 0.69472 0.37639 0.0
C3192 C 0.79411 0.69774 0.37191 0.0
C3193 C 0.90188 0.68994 0.3858 0.0
C3194 C 0.87751 0.69252 0.39921 0.0
C3195 C 0.84257 0.69486 0.39429 0.0
C3196 C 0.88837 0.69332 0.41826 0.0
C3197 C 0.94029 0.68776 0.39006 0.0
C3198 C 0.90106 0.6862 0.42788 0.0
C3199 C 0.91324 0.68716 0.44544 0.0
C3200 C 0.91268 0.69525 0.4537 0.0
C3201 C 0.8988 0.7023 0.44433 0.0
C3202 C 0.88669 0.70134 0.4268 0.0
H3203 H 0.95749 0.6879 0.378 0.0
H3204 H 0.95146 0.69229 0.40004 0.0
H3205 H 0.94153 0.68119 0.39572 0.0
H3206 H 0.90197 0.67991 0.42173 0.0
H3207 H 0.92386 0.68164 0.45243 0.0
H3208 H 0.45109 0.67836 0.94838 0.0
H3209 H 0.42941 0.67637 0.91769 0.0
H3210 H 0.37761 0.70111 0.92 0.0
H3211 H 0.39837 0.70294 0.95072 0.0
H3212 H 0.33563 0.6896 0.90366 0.0
H3213 H 0.47215 0.68802 0.87476 0.0
H3214 H 0.46318 0.67992 0.89115 0.0
H3215 H 0.46417 0.69104 0.89759 0.0
C3216 C 0.43469 0.68329 0.94231 0.0
C3217 C 0.4263 0.69079 0.95177 0.0
C3218 C 0.42262 0.6822 0.92475 0.0
C3219 C 0.40243 0.68867 0.91633 0.0
C3220 C 0.39319 0.69604 0.9261 0.0
H3221 H 0.37361 0.70104 0.8057 0.0
H3222 H 0.39344 0.69914 0.83657 0.0
C3223 C 0.405 0.69709 0.94364 0.0
C3224 C 0.39134 0.68793 0.89729 0.0
H3225 H 0.42383 0.68624 0.85487 0.0
C3226 C 0.35491 0.68881 0.893 0.0
C3227 C 0.41651 0.68702 0.88331 0.0
C3228 C 0.45621 0.68653 0.88686 0.0
C3229 C 0.34303 0.68894 0.87522 0.0
C3230 C 0.36814 0.68792 0.86125 0.0
C3231 C 0.40451 0.68692 0.86554 0.0
C3232 C 0.35764 0.68854 0.84211 0.0
C3233 C 0.30386 0.69055 0.8716 0.0
C3234 C 0.33154 0.68308 0.83471 0.0
C3235 C 0.3201 0.6842 0.81707 0.0
C3236 C 0.33505 0.69069 0.80647 0.0
C3237 C 0.36205 0.69592 0.81361 0.0
C3238 C 0.37328 0.69485 0.83124 0.0
H3239 H 0.29006 0.69334 0.88336 0.0
H3240 H 0.30027 0.69497 0.86015 0.0
H3241 H 0.29058 0.68437 0.86835 0.0
H3242 H 0.3196 0.67805 0.84265 0.0
H3243 H 0.29907 0.68014 0.81182 0.0
H3244 H 0.89545 0.56072 0.80673 0.0
H3245 H 0.87347 0.56261 0.83725 0.0
H3246 H 0.90275 0.58939 0.8354 0.0
H3247 H 0.92523 0.58743 0.80486 0.0
H3248 H 0.92676 0.58148 0.86577 0.0
H3249 H 0.78328 0.57406 0.85588 0.0
H3250 H 0.81216 0.5658 0.84746 0.0
H3251 H 0.8131 0.57631 0.83757 0.0
C3252 C 0.89658 0.56703 0.81279 0.0
C3253 C 0.91168 0.57395 0.8035 0.0
C3254 C 0.88393 0.56812 0.83019 0.0
C3255 C 0.88593 0.57617 0.8386 0.0
C3256 C 0.90069 0.58313 0.82918 0.0
H3257 H 0.78399 0.58488 0.94269 0.0
H3258 H 0.80264 0.58646 0.91144 0.0
C3259 C 0.91335 0.58203 0.81175 0.0
C3260 C 0.87455 0.57718 0.85752 0.0
H3261 H 0.80448 0.57386 0.88596 0.0
C3262 C 0.89991 0.5799 0.87015 0.0
C3263 C 0.83938 0.57524 0.86328 0.0
C3264 C 0.8103 0.57277 0.85032 0.0
C3265 C 0.89147 0.58041 0.88838 0.0
C3266 C 0.85687 0.57802 0.89424 0.0
C3267 C 0.83111 0.57562 0.88154 0.0
C3268 C 0.84722 0.57764 0.9135 0.0
C3269 C 0.91975 0.58353 0.90118 0.0
C3270 C 0.86603 0.57218 0.9251 0.0
C3271 C 0.8555 0.57133 0.94288 0.0
C3272 C 0.82593 0.5759 0.94946 0.0
C3273 C 0.80728 0.58143 0.93798 0.0
C3274 C 0.8178 0.58228 0.92014 0.0
H3275 H 0.94015 0.58753 0.89434 0.0
H3276 H 0.90776 0.58734 0.91216 0.0
H3277 H 0.93365 0.57791 0.90706 0.0
H3278 H 0.88817 0.56836 0.92024 0.0
H3279 H 0.86969 0.56686 0.95138 0.0
H3280 H 0.70116 0.43006 0.5596 0.0
H3281 H 0.67837 0.42818 0.59014 0.0
H3282 H 0.63123 0.45344 0.58798 0.0
H3283 H 0.65325 0.45519 0.55748 0.0
H3284 H 0.69319 0.43724 0.61991 0.0
H3285 H 0.54817 0.43963 0.60642 0.0
H3286 H 0.58064 0.43817 0.58891 0.0
H3287 H 0.57207 0.44871 0.59783 0.0
C3288 C 0.68548 0.43512 0.56565 0.0
C3289 C 0.67866 0.44273 0.55626 0.0
C3290 C 0.67257 0.43408 0.58308 0.0
C3291 C 0.65249 0.44061 0.59134 0.0
C3292 C 0.64576 0.44821 0.58183 0.0
H3293 H 0.62415 0.45202 0.70289 0.0
H3294 H 0.64522 0.45029 0.67221 0.0
C3295 C 0.65851 0.44924 0.56445 0.0
C3296 C 0.63999 0.43971 0.61014 0.0
H3297 H 0.56626 0.44172 0.63679 0.0
C3298 C 0.66536 0.43813 0.62356 0.0
C3299 C 0.60359 0.44071 0.615 0.0
C3300 C 0.57451 0.44181 0.60126 0.0
C3301 C 0.6556 0.43787 0.64166 0.0
C3302 C 0.61956 0.43942 0.6466 0.0
C3303 C 0.59397 0.44064 0.63312 0.0
C3304 C 0.60803 0.4401 0.6656 0.0
C3305 C 0.68407 0.4359 0.6553 0.0
C3306 C 0.57955 0.4351 0.67214 0.0
C3307 C 0.56735 0.43614 0.68968 0.0
C3308 C 0.58344 0.44219 0.70099 0.0
C3309 C 0.61193 0.44717 0.69451 0.0
C3310 C 0.62402 0.44616 0.677 0.0
H3311 H 0.70636 0.43214 0.64937 0.0
H3312 H 0.6954 0.44201 0.66041 0.0
H3313 H 0.67294 0.43224 0.6667 0.0
H3314 H 0.56649 0.43045 0.6636 0.0
H3315 H 0.54493 0.43234 0.69432 0.0
H3316 H 0.08648 0.33895 0.55219 0.0
H3317 H 0.10957 0.34155 0.5824 0.0
H3318 H 0.14022 0.31491 0.58628 0.0
H3319 H 0.11775 0.31239 0.55606 0.0
H3320 H 0.08549 0.33422 0.61295 0.0
H3321 H 0.22922 0.32676 0.60476 0.0
H3322 H 0.19989 0.3286 0.58604 0.0
H3323 H 0.20111 0.31826 0.59672 0.0
C3324 C 0.09894 0.33373 0.55942 0.0
C3325 C 0.10077 0.3255 0.55187 0.0
C3326 C 0.11193 0.3352 0.57666 0.0
C3327 C 0.12711 0.32846 0.58656 0.0
C3328 C 0.12948 0.32026 0.5788 0.0
H3329 H 0.13701 0.31936 0.69875 0.0
H3330 H 0.12033 0.32119 0.66746 0.0
C3331 C 0.11655 0.31881 0.56159 0.0
C3332 C 0.13797 0.32978 0.60544 0.0
H3333 H 0.20665 0.32655 0.63472 0.0
C3334 C 0.11214 0.33265 0.61766 0.0
C3335 C 0.17286 0.32787 0.61162 0.0
C3336 C 0.20246 0.32529 0.59906 0.0
C3337 C 0.11977 0.33327 0.63595 0.0
C3338 C 0.15397 0.33082 0.64226 0.0
C3339 C 0.1803 0.32834 0.62994 0.0
C3340 C 0.16241 0.33032 0.6616 0.0
C3341 C 0.09102 0.33652 0.64833 0.0
C3342 C 0.19187 0.33477 0.66876 0.0
C3343 C 0.20139 0.33372 0.68668 0.0
C3344 C 0.18163 0.3282 0.69769 0.0
C3345 C 0.152 0.32383 0.6906 0.0
C3346 C 0.14249 0.32488 0.67274 0.0
H3347 H 0.07148 0.34065 0.6412 0.0
H3348 H 0.07617 0.33097 0.6539 0.0
H3349 H 0.10265 0.34024 0.65954 0.0
H3350 H 0.20786 0.33893 0.66039 0.0
H3351 H 0.22477 0.337 0.69181 0.0
H3352 H 0.59202 0.30653 0.05699 0.0
H3353 H 0.60926 0.30711 0.08847 0.0
H3354 H 0.59575 0.33462 0.08811 0.0
H3355 H 0.57729 0.33398 0.05672 0.0
H3356 H 0.66245 0.31486 0.10625 0.0
H3357 H 0.53264 0.32806 0.12935 0.0
H3358 H 0.53914 0.32409 0.10702 0.0
H3359 H 0.55445 0.33466 0.11307 0.0
C3360 C 0.59304 0.31269 0.06366 0.0
C3361 C 0.58323 0.32021 0.05456 0.0
C3362 C 0.60281 0.31303 0.08162 0.0
C3363 C 0.60303 0.32089 0.09083 0.0
C3364 C 0.59483 0.32846 0.08147 0.0
H3365 H 0.66926 0.33365 0.19894 0.0
H3366 H 0.64941 0.33413 0.16777 0.0
C3367 C 0.58475 0.32811 0.06351 0.0
C3368 C 0.61161 0.32108 0.11021 0.0
H3369 H 0.57879 0.32696 0.15098 0.0
C3370 C 0.64408 0.31749 0.116 0.0
C3371 C 0.58756 0.32447 0.12302 0.0
C3372 C 0.55135 0.32796 0.11786 0.0
C3373 C 0.65328 0.31727 0.13414 0.0
C3374 C 0.62938 0.32071 0.14686 0.0
C3375 C 0.59705 0.32435 0.14115 0.0
C3376 C 0.63779 0.32055 0.16616 0.0
C3377 C 0.68865 0.31343 0.13965 0.0
C3378 C 0.63689 0.3128 0.17568 0.0
C3379 C 0.64766 0.31254 0.19353 0.0
C3380 C 0.65947 0.32004 0.20212 0.0
C3381 C 0.65945 0.32783 0.19271 0.0
C3382 C 0.6484 0.3281 0.17491 0.0
H3383 H 0.70642 0.31221 0.12807 0.0
H3384 H 0.70267 0.31776 0.14912 0.0
H3385 H 0.68382 0.30725 0.14656 0.0
H3386 H 0.62873 0.30691 0.16915 0.0
H3387 H 0.64803 0.30645 0.20045 0.0
H3388 H 0.10187 0.45603 0.19747 0.0
H3389 H 0.12289 0.45404 0.16683 0.0
H3390 H 0.08099 0.42822 0.1669 0.0
H3391 H 0.05918 0.43033 0.19755 0.0
H3392 H 0.16977 0.44288 0.15207 0.0
H3393 H 0.03514 0.43805 0.12244 0.0
H3394 H 0.04138 0.44187 0.14489 0.0
H3395 H 0.04618 0.43064 0.13989 0.0
C3396 C 0.09723 0.44994 0.19089 0.0
C3397 C 0.07866 0.44335 0.1997 0.0
C3398 C 0.10926 0.44879 0.17342 0.0
C3399 C 0.10303 0.44103 0.16436 0.0
C3400 C 0.08541 0.43434 0.17341 0.0
H3401 H 0.21176 0.43107 0.06191 0.0
H3402 H 0.19052 0.42968 0.09279 0.0
C3403 C 0.0732 0.4355 0.19092 0.0
C3404 C 0.11495 0.44007 0.14549 0.0
H3405 H 0.0846 0.43671 0.10307 0.0
C3406 C 0.15116 0.44148 0.14137 0.0
C3407 C 0.09064 0.43835 0.13144 0.0
C3408 C 0.05111 0.43721 0.13479 0.0
C3409 C 0.16364 0.44131 0.12369 0.0
C3410 C 0.13942 0.4395 0.10967 0.0
C3411 C 0.10327 0.43801 0.11379 0.0
C3412 C 0.15057 0.4397 0.09058 0.0
C3413 C 0.20241 0.44344 0.12017 0.0
C3414 C 0.13425 0.44552 0.07881 0.0
C3415 C 0.14601 0.44621 0.06118 0.0
C3416 C 0.17416 0.44106 0.05491 0.0
C3417 C 0.18983 0.43506 0.06645 0.0
C3418 C 0.17795 0.43434 0.08411 0.0
H3419 H 0.21507 0.44672 0.1317 0.0
H3420 H 0.2174 0.43741 0.11767 0.0
H3421 H 0.20517 0.44761 0.10828 0.0
H3422 H 0.11311 0.44973 0.08342 0.0
H3423 H 0.13388 0.45097 0.05256 0.0
H3424 H 0.00615 0.15751 1.00203 0.0
H3425 H 0.03856 0.1439 1.00213 0.0
H3426 H 0.13639 0.15722 0.01469 0.0
H3427 H 0.10398 0.17091 0.0152 0.0
H3428 H 0.14002 0.14394 0.98585 0.0
H3429 H 0.07887 0.13221 0.04872 0.0
H3430 H 0.04827 0.13631 0.0323 0.0
H3431 H 0.0797 0.14344 0.04271 0.0
C3432 C 0.03449 0.15759 0.00503 0.0
C3433 C 0.0522 0.16537 0.00886 0.0
C3434 C 0.05303 0.14977 0.00498 0.0
C3435 C 0.08982 0.14951 0.00863 0.0
C3436 C 0.10796 0.15726 0.01189 0.0
H3437 H 0.21764 0.10475 0.03669 0.0
H3438 H 0.18685 0.11859 0.0356 0.0
C3439 C 0.08936 0.1651 0.01207 0.0
C3440 C 0.10907 0.14112 0.00925 0.0
H3441 H 0.11448 0.12233 0.03265 0.0
C3442 C 0.13451 0.13922 0.99609 0.0
C3443 C 0.1021 0.13499 0.0227 0.0
C3444 C 0.07597 0.13682 0.03752 0.0
C3445 C 0.15273 0.13129 0.99586 0.0
C3446 C 0.14513 0.12506 0.00907 0.0
C3447 C 0.12011 0.12705 0.02241 0.0
C3448 C 0.16351 0.11654 0.0096 0.0
C3449 C 0.18043 0.12971 0.98163 0.0
C3450 C 0.16023 0.11065 0.99549 0.0
C3451 C 0.17797 0.10271 0.99605 0.0
C3452 C 0.19941 0.10045 0.01075 0.0
C3453 C 0.20194 0.1063 0.02501 0.0
C3454 C 0.18414 0.11422 0.02447 0.0
H3455 H 0.18937 0.13579 0.9753 0.0
H3456 H 0.20416 0.12636 0.98719 0.0
H3457 H 0.1687 0.12557 0.97111 0.0
H3458 H 0.14393 0.1122 0.98402 0.0
H3459 H 0.17547 0.09841 0.98478 0.0
H3460 H 0.18313 0.16868 0.27297 0.0
H3461 H 0.15025 0.15504 0.27361 0.0
H3462 H 0.19152 0.14867 0.2217 0.0
H3463 H 0.22389 0.16231 0.22083 0.0
H3464 H 0.11756 0.14546 0.22542 0.0
H3465 H 0.19528 0.13103 0.28088 0.0
H3466 H 0.17632 0.14141 0.28545 0.0
H3467 H 0.21054 0.14036 0.26882 0.0
C3468 C 0.18499 0.16441 0.26163 0.0
C3469 C 0.20646 0.1666 0.24691 0.0
C3470 C 0.16645 0.15656 0.26209 0.0
C3471 C 0.16884 0.15074 0.24782 0.0
C3472 C 0.18946 0.15301 0.23294 0.0
H3473 H 0.10953 0.09648 0.24215 0.0
H3474 H 0.14117 0.11026 0.24273 0.0
C3475 C 0.20815 0.16081 0.23251 0.0
C3476 C 0.14975 0.1423 0.24825 0.0
H3477 H 0.14557 0.12309 0.27029 0.0
C3478 C 0.12365 0.14058 0.23526 0.0
C3479 C 0.15799 0.13586 0.26092 0.0
C3480 C 0.18676 0.13718 0.27474 0.0
C3481 C 0.10532 0.13267 0.23474 0.0
C3482 C 0.11302 0.1263 0.24763 0.0
C3483 C 0.13946 0.12798 0.26048 0.0
C3484 C 0.09391 0.11787 0.24792 0.0
C3485 C 0.07824 0.13115 0.22018 0.0
C3486 C 0.0569 0.11751 0.251 0.0
C3487 C 0.03876 0.10963 0.25085 0.0
C3488 C 0.05711 0.10188 0.24757 0.0
C3489 C 0.09441 0.10226 0.24485 0.0
C3490 C 0.11258 0.11016 0.24509 0.0
H3491 H 0.08147 0.13576 0.20902 0.0
H3492 H 0.08051 0.12452 0.21485 0.0
H3493 H 0.0509 0.13194 0.22569 0.0
H3494 H 0.04198 0.12334 0.2536 0.0
H3495 H 0.01027 0.10963 0.25345 0.0
H3496 H 1.00267 0.85921 1.00044 0.0
H3497 H 0.97056 0.87286 1.00097 0.0
H3498 H 0.87139 0.85961 0.99081 0.0
H3499 H 0.9034 0.8459 0.98986 0.0
H3500 H 0.92894 0.88035 0.9736 0.0
H3501 H 0.84858 0.87475 0.03466 0.0
H3502 H 0.88731 0.86835 0.02909 0.0
H3503 H 0.8454 0.86647 0.01805 0.0
C3504 C 0.97406 0.85916 0.99815 0.0
C3505 C 0.95578 0.85138 0.99502 0.0
C3506 C 0.95569 0.867 0.99859 0.0
C3507 C 0.91849 0.86728 0.99611 0.0
C3508 C 0.90001 0.85956 0.99308 0.0
H3509 H 0.78729 0.91155 0.96881 0.0
H3510 H 0.82019 0.89798 0.96937 0.0
C3511 C 0.91841 0.8517 0.99256 0.0
C3512 C 0.89938 0.8757 0.9962 0.0
H3513 H 0.83531 0.88732 0.01811 0.0
C3514 C 0.90849 0.88187 0.98334 0.0
C3515 C 0.87299 0.87774 0.00904 0.0
C3516 C 0.86309 0.87153 0.02361 0.0
C3517 C 0.89154 0.88994 0.98278 0.0
C3518 C 0.86453 0.8919 0.99535 0.0
C3519 C 0.85585 0.8858 0.00841 0.0
C3520 C 0.84478 0.90023 0.99502 0.0
C3521 C 0.90299 0.89635 0.96886 0.0
C3522 C 0.84722 0.90601 0.00934 0.0
C3523 C 0.82834 0.9138 0.00908 0.0
C3524 C 0.80617 0.91593 0.99458 0.0
C3525 C 0.80381 0.9101 0.98027 0.0
C3526 C 0.82287 0.90236 0.98049 0.0
H3527 H 0.92948 0.89471 0.96308 0.0
H3528 H 0.88305 0.89641 0.95792 0.0
H3529 H 0.90438 0.90292 0.97457 0.0
H3530 H 0.86383 0.90449 0.02074 0.0
H3531 H 0.8305 0.91807 0.02041 0.0
H3532 H 0.79429 0.85491 0.78342 0.0
H3533 H 0.82508 0.86872 0.78213 0.0
H3534 H 0.87145 0.86176 0.73165 0.0
H3535 H 0.84033 0.84791 0.7327 0.0
H3536 H 0.92068 0.86926 0.75494 0.0
H3537 H 0.79787 0.8891 0.75049 0.0
H3538 H 0.79815 0.88188 0.76911 0.0
H3539 H 0.79764 0.87764 0.74684 0.0
C3540 C 0.81074 0.85632 0.77192 0.0
C3541 C 0.81441 0.85028 0.75806 0.0
C3542 C 0.82835 0.86425 0.77122 0.0
C3543 C 0.85004 0.86638 0.75662 0.0
C3544 C 0.85467 0.86029 0.743 0.0
H3545 H 0.93161 0.91812 0.73337 0.0
H3546 H 0.90016 0.9043 0.73222 0.0
C3547 C 0.837 0.85234 0.74368 0.0
C3548 C 0.86818 0.87492 0.75574 0.0
H3549 H 0.85236 0.89657 0.75614 0.0
C3550 C 0.90572 0.87523 0.75511 0.0
C3551 C 0.84873 0.88273 0.75569 0.0
C3552 C 0.80837 0.88286 0.75539 0.0
C3553 C 0.92429 0.8831 0.75496 0.0
C3554 C 0.90487 0.89091 0.75569 0.0
C3555 C 0.86731 0.8906 0.75578 0.0
C3556 C 0.92312 0.89943 0.75663 0.0
C3557 C 0.9646 0.88298 0.75388 0.0
C3558 C 0.94578 0.90141 0.77097 0.0
C3559 C 0.96359 0.90931 0.77173 0.0
C3560 C 0.95917 0.91548 0.75819 0.0
C3561 C 0.93559 0.91358 0.74409 0.0
C3562 C 0.91771 0.90565 0.74335 0.0
H3563 H 0.97468 0.87678 0.74852 0.0
H3564 H 0.97463 0.88827 0.74533 0.0
H3565 H 0.9759 0.88384 0.76742 0.0
H3566 H 0.94968 0.89683 0.78163 0.0
H3567 H 0.98077 0.91059 0.78304 0.0
H3568 H 0.0809 0.66898 0.48541 0.0
H3569 H 0.11323 0.65527 0.48458 0.0
H3570 H 0.06867 0.64846 0.53555 0.0
H3571 H 0.03679 0.66217 0.53662 0.0
H3572 H 0.14313 0.64524 0.53259 0.0
H3573 H 0.06746 0.6314 0.47573 0.0
H3574 H 0.0867 0.64181 0.47186 0.0
H3575 H 0.0518 0.64061 0.48809 0.0
C3576 C 0.07819 0.6646 0.49651 0.0
C3577 C 0.05598 0.66668 0.51102 0.0
C3578 C 0.09642 0.65672 0.49593 0.0
C3579 C 0.09296 0.65076 0.50988 0.0
C3580 C 0.07154 0.65291 0.52456 0.0
H3581 H 0.15169 0.59646 0.5141 0.0
H3582 H 0.12002 0.61025 0.51386 0.0
C3583 C 0.05316 0.66074 0.5251 0.0
C3584 C 0.11182 0.64231 0.50932 0.0
H3585 H 0.11659 0.62331 0.4865 0.0
C3586 C 0.13735 0.64046 0.5225 0.0
C3587 C 0.10397 0.636 0.4963 0.0
C3588 C 0.07579 0.63748 0.48226 0.0
C3589 C 0.15556 0.63254 0.52285 0.0
C3590 C 0.14828 0.62631 0.5096 0.0
C3591 C 0.12236 0.62811 0.49658 0.0
C3592 C 0.16736 0.61789 0.5091 0.0
C3593 C 0.1821 0.63086 0.53757 0.0
C3594 C 0.20441 0.61757 0.50614 0.0
C3595 C 0.22256 0.6097 0.5061 0.0
C3596 C 0.20415 0.60192 0.50905 0.0
C3597 C 0.16682 0.60227 0.51164 0.0
C3598 C 0.14865 0.61016 0.5116 0.0
H3599 H 0.17862 0.63539 0.54887 0.0
H3600 H 0.17945 0.62419 0.54263 0.0
H3601 H 0.20964 0.63165 0.53231 0.0
H3602 H 0.21935 0.62342 0.50381 0.0
H3603 H 0.25109 0.60972 0.50361 0.0
H3604 H 0.18303 0.66861 0.77389 0.0
H3605 H 0.15133 0.65483 0.77449 0.0
H3606 H 0.1862 0.64958 0.72091 0.0
H3607 H 0.21737 0.66339 0.72007 0.0
H3608 H 0.11311 0.64602 0.72675 0.0
H3609 H 0.19865 0.63092 0.77844 0.0
H3610 H 0.17986 0.64114 0.7845 0.0
H3611 H 0.21174 0.64053 0.76666 0.0
C3612 C 0.18371 0.66456 0.76217 0.0
C3613 C 0.20299 0.66712 0.74696 0.0
C3614 C 0.16588 0.65663 0.76261 0.0
C3615 C 0.16685 0.65108 0.74785 0.0
C3616 C 0.18531 0.6537 0.73252 0.0
H3617 H 0.10652 0.59688 0.74072 0.0
H3618 H 0.13875 0.6106 0.74117 0.0
C3619 C 0.20329 0.6616 0.7321 0.0
C3620 C 0.14834 0.64259 0.74825 0.0
H3621 H 0.14738 0.6231 0.76928 0.0
C3622 C 0.12062 0.64101 0.73605 0.0
C3623 C 0.15842 0.63599 0.76022 0.0
C3624 C 0.18899 0.63716 0.77312 0.0
C3625 C 0.10234 0.63311 0.7357 0.0
C3626 C 0.11179 0.6266 0.74797 0.0
C3627 C 0.13994 0.62811 0.75997 0.0
C3628 C 0.09262 0.6182 0.74852 0.0
C3629 C 0.07335 0.63175 0.722 0.0
C3630 C 0.05616 0.61785 0.75294 0.0
C3631 C 0.03773 0.61002 0.75285 0.0
C3632 C 0.05526 0.60231 0.74833 0.0
C3633 C 0.0921 0.60265 0.74439 0.0
C3634 C 0.11057 0.6105 0.74455 0.0
H3635 H 0.07511 0.63649 0.71099 0.0
H3636 H 0.07485 0.62518 0.71629 0.0
H3637 H 0.04683 0.63249 0.72846 0.0
H3638 H 0.04188 0.62366 0.75643 0.0
H3639 H 0.00965 0.61003 0.75639 0.0
H3640 H 0.83463 0.41977 0.52117 0.0
H3641 H 0.86616 0.40598 0.52173 0.0
H3642 H 0.81945 0.39926 0.47115 0.0
H3643 H 0.78833 0.41305 0.47031 0.0
H3644 H 0.81413 0.38612 0.49673 0.0
H3645 H 0.95314 0.39851 0.49187 0.0
H3646 H 0.92676 0.40311 0.50945 0.0
H3647 H 0.91456 0.40502 0.48667 0.0
C3648 C 0.83147 0.41543 0.51001 0.0
C3649 C 0.80878 0.41757 0.4957 0.0
C3650 C 0.84949 0.40752 0.51038 0.0
C3651 C 0.84542 0.40158 0.49642 0.0
C3652 C 0.82297 0.40371 0.48211 0.0
H3653 H 0.9724 0.35677 0.47007 0.0
H3654 H 0.94097 0.3705 0.47104 0.0
C3655 C 0.80504 0.41161 0.4817 0.0
C3656 C 0.86387 0.39308 0.49682 0.0
H3657 H 0.94642 0.38359 0.49671 0.0
C3658 C 0.84306 0.38556 0.49677 0.0
C3659 C 0.90163 0.39234 0.49669 0.0
C3660 C 0.92545 0.40016 0.49602 0.0
C3661 C 0.85892 0.37736 0.49668 0.0
C3662 C 0.89668 0.37662 0.4968 0.0
C3663 C 0.91749 0.38414 0.49676 0.0
C3664 C 0.91517 0.36813 0.49631 0.0
C3665 C 0.83511 0.36954 0.496 0.0
C3666 C 0.91126 0.36216 0.51022 0.0
C3667 C 0.92948 0.35428 0.50978 0.0
C3668 C 0.9522 0.35219 0.49545 0.0
C3669 C 0.9557 0.35817 0.48148 0.0
C3670 C 0.93758 0.36604 0.48196 0.0
H3671 H 0.80738 0.37119 0.49191 0.0
H3672 H 0.84593 0.36469 0.4866 0.0
H3673 H 0.83393 0.36658 0.50942 0.0
H3674 H 0.8946 0.36367 0.52159 0.0
H3675 H 0.92646 0.34992 0.52089 0.0
H3676 H 0.85313 0.34885 0.27181 0.0
H3677 H 0.88207 0.36293 0.27202 0.0
H3678 H 0.79325 0.37364 0.243 0.0
H3679 H 0.76348 0.35966 0.24313 0.0
H3680 H 0.86309 0.37822 0.22941 0.0
H3681 H 0.8508 0.38415 0.30206 0.0
H3682 H 0.87013 0.37399 0.296 0.0
H3683 H 0.82425 0.37619 0.29055 0.0
C3684 C 0.83938 0.3542 0.26565 0.0
C3685 C 0.80569 0.35304 0.25752 0.0
C3686 C 0.85611 0.36227 0.26575 0.0
C3687 C 0.83969 0.36939 0.25771 0.0
C3688 C 0.80645 0.36825 0.24931 0.0
H3689 H 0.90024 0.42358 0.26863 0.0
H3690 H 0.86748 0.40991 0.26762 0.0
C3691 C 0.78957 0.3602 0.2493 0.0
C3692 C 0.85733 0.37799 0.2579 0.0
H3693 H 0.88609 0.39401 0.28564 0.0
C3694 C 0.86803 0.38168 0.2417 0.0
C3695 C 0.86345 0.38257 0.27391 0.0
C3696 C 0.85134 0.37908 0.29164 0.0
C3697 C 0.88538 0.38971 0.24113 0.0
C3698 C 0.89238 0.39418 0.25718 0.0
C3699 C 0.88094 0.39058 0.27335 0.0
C3700 C 0.91204 0.40252 0.25748 0.0
C3701 C 0.89588 0.3934 0.22332 0.0
C3702 C 0.94805 0.40293 0.25222 0.0
C3703 C 0.96684 0.41071 0.25284 0.0
C3704 C 0.95007 0.41831 0.2587 0.0
C3705 C 0.9139 0.41789 0.26388 0.0
C3706 C 0.89519 0.41007 0.2634 0.0
H3707 H 0.88147 0.39022 0.21219 0.0
H3708 H 0.89036 0.4004 0.22284 0.0
H3709 H 0.92501 0.39245 0.22126 0.0
H3710 H 0.96179 0.39719 0.2478 0.0
H3711 H 0.99453 0.41079 0.2486 0.0
H3712 H 0.72888 0.10804 0.53586 0.0
H3713 H 0.69692 0.12171 0.53506 0.0
H3714 H 0.64651 0.11433 0.48577 0.0
H3715 H 0.67874 0.10063 0.48634 0.0
H3716 H 0.69967 0.13458 0.5095 0.0
H3717 H 0.56143 0.12195 0.51629 0.0
H3718 H 0.60048 0.11549 0.52088 0.0
H3719 H 0.58668 0.11736 0.49829 0.0
C3720 C 0.71114 0.10931 0.52477 0.0
C3721 C 0.70658 0.10319 0.51112 0.0
C3722 C 0.69273 0.11714 0.52439 0.0
C3723 C 0.66901 0.11905 0.51045 0.0
C3724 C 0.66413 0.11296 0.49685 0.0
H3725 H 0.58671 0.17054 0.48571 0.0
H3726 H 0.61858 0.1568 0.48512 0.0
C3727 C 0.68259 0.10511 0.49721 0.0
C3728 C 0.65018 0.12751 0.51005 0.0
H3729 H 0.56732 0.13685 0.51075 0.0
C3730 C 0.67072 0.13507 0.50974 0.0
C3731 C 0.6124 0.12818 0.51056 0.0
C3732 C 0.58886 0.12033 0.51168 0.0
C3733 C 0.6546 0.14325 0.50985 0.0
C3734 C 0.61681 0.14391 0.51005 0.0
C3735 C 0.59627 0.13635 0.51045 0.0
C3736 C 0.59805 0.15238 0.51043 0.0
C3737 C 0.67821 0.1511 0.51021 0.0
C3738 C 0.57552 0.15448 0.52474 0.0
C3739 C 0.55732 0.16234 0.52514 0.0
C3740 C 0.56092 0.1683 0.51115 0.0
C3741 C 0.58366 0.16619 0.49685 0.0
C3742 C 0.6019 0.15832 0.49648 0.0
H3743 H 0.70598 0.14953 0.51436 0.0
H3744 H 0.67936 0.15393 0.49667 0.0
H3745 H 0.66732 0.15604 0.51941 0.0
H3746 H 0.57213 0.15003 0.53569 0.0
H3747 H 0.54053 0.16376 0.53651 0.0
H3748 H 0.58048 0.10057 0.7736 0.0
H3749 H 0.61233 0.11435 0.77427 0.0
H3750 H 0.56795 0.12086 0.72308 0.0
H3751 H 0.53659 0.10708 0.72216 0.0
H3752 H 0.64198 0.12427 0.72606 0.0
H3753 H 0.56593 0.13814 0.78271 0.0
H3754 H 0.58565 0.1278 0.78678 0.0
H3755 H 0.55065 0.12883 0.77053 0.0
C3756 C 0.57771 0.1049 0.76242 0.0
C3757 C 0.5557 0.10272 0.74788 0.0
C3758 C 0.59566 0.11282 0.7629 0.0
C3759 C 0.59209 0.11872 0.74885 0.0
C3760 C 0.57089 0.11646 0.73415 0.0
H3761 H 0.64958 0.17311 0.74359 0.0
H3762 H 0.61803 0.15931 0.74418 0.0
C3763 C 0.55281 0.10859 0.7337 0.0
C3764 C 0.61065 0.12721 0.7493 0.0
H3765 H 0.61483 0.14629 0.77186 0.0
C3766 C 0.63606 0.12908 0.73609 0.0
C3767 C 0.6026 0.13354 0.76223 0.0
C3768 C 0.57452 0.13205 0.77631 0.0
C3769 C 0.65399 0.13702 0.73562 0.0
C3770 C 0.64653 0.14329 0.74879 0.0
C3771 C 0.62072 0.14148 0.76184 0.0
C3772 C 0.66544 0.15172 0.74919 0.0
C3773 C 0.68043 0.13872 0.72086 0.0
C3774 C 0.70246 0.15209 0.75221 0.0
C3775 C 0.72053 0.15997 0.75206 0.0
C3776 C 0.70207 0.16771 0.74883 0.0
C3777 C 0.66475 0.16733 0.74624 0.0
C3778 C 0.64664 0.15943 0.74648 0.0
H3779 H 0.67707 0.13414 0.70963 0.0
H3780 H 0.67753 0.14536 0.71572 0.0
H3781 H 0.70801 0.138 0.72613 0.0
H3782 H 0.71745 0.14627 0.7547 0.0
H3783 H 0.74906 0.15998 0.75457 0.0
H3784 H 0.29107 0.91368 0.46939 0.0
H3785 H 0.32201 0.89988 0.47057 0.0
H3786 H 0.368 0.90674 0.52122 0.0
H3787 H 0.33677 0.92058 0.52026 0.0
H3788 H 0.41745 0.89931 0.49815 0.0
H3789 H 0.29475 0.87939 0.50172 0.0
H3790 H 0.29528 0.88665 0.48316 0.0
H3791 H 0.29432 0.89084 0.50546 0.0
C3792 C 0.30746 0.91225 0.4809 0.0
C3793 C 0.31099 0.91826 0.49483 0.0
C3794 C 0.32516 0.90433 0.48155 0.0
C3795 C 0.34679 0.90216 0.49616 0.0
C3796 C 0.35128 0.90823 0.50985 0.0
H3797 H 0.42743 0.85033 0.51908 0.0
H3798 H 0.39614 0.86416 0.52017 0.0
C3799 C 0.33353 0.91617 0.50923 0.0
C3800 C 0.365 0.89363 0.49698 0.0
H3801 H 0.34937 0.87197 0.49618 0.0
C3802 C 0.40254 0.89334 0.49781 0.0
C3803 C 0.34562 0.8858 0.49681 0.0
C3804 C 0.30526 0.88565 0.49692 0.0
C3805 C 0.42117 0.88547 0.49795 0.0
C3806 C 0.40184 0.87765 0.497 0.0
C3807 C 0.36427 0.87794 0.4967 0.0
C3808 C 0.42016 0.86914 0.49611 0.0
C3809 C 0.46145 0.88562 0.49929 0.0
C3810 C 0.44343 0.86721 0.48199 0.0
C3811 C 0.46118 0.85929 0.48127 0.0
C3812 C 0.45606 0.85306 0.49462 0.0
C3813 C 0.43194 0.85492 0.5085 0.0
C3814 C 0.41414 0.86286 0.5092 0.0
H3815 H 0.47133 0.89179 0.50484 0.0
H3816 H 0.47135 0.88029 0.50778 0.0
H3817 H 0.47308 0.88483 0.4858 0.0
H3818 H 0.44782 0.87183 0.47145 0.0
H3819 H 0.47881 0.85804 0.47013 0.0
H3820 H 0.40011 0.92298 0.26425 0.0
H3821 H 0.36803 0.90925 0.26395 0.0
H3822 H 0.46627 0.89602 0.25182 0.0
H3823 H 0.4984 0.90967 0.25171 0.0
H3824 H 0.36159 0.89652 0.23653 0.0
H3825 H 0.4289 0.88352 0.2966 0.0
H3826 H 0.43004 0.89477 0.29087 0.0
H3827 H 0.45877 0.88729 0.27959 0.0
C3828 C 0.41491 0.91718 0.26133 0.0
C3829 C 0.45208 0.9175 0.25819 0.0
C3830 C 0.3965 0.90931 0.26125 0.0
C3831 C 0.41479 0.90156 0.25817 0.0
C3832 C 0.45165 0.90187 0.25464 0.0
H3833 H 0.32576 0.85101 0.23224 0.0
H3834 H 0.35737 0.86481 0.23192 0.0
C3835 C 0.47004 0.90972 0.25464 0.0
C3836 C 0.39549 0.89316 0.25861 0.0
H3837 H 0.39236 0.87385 0.28029 0.0
C3838 C 0.36827 0.89157 0.24612 0.0
C3839 C 0.40389 0.88671 0.27122 0.0
C3840 C 0.43176 0.88815 0.28545 0.0
C3841 C 0.34976 0.88368 0.24571 0.0
C3842 C 0.35883 0.87715 0.25803 0.0
C3843 C 0.3856 0.8788 0.27072 0.0
C3844 C 0.34028 0.86864 0.25827 0.0
C3845 C 0.32019 0.88245 0.23228 0.0
C3846 C 0.32092 0.86605 0.27335 0.0
C3847 C 0.30297 0.85814 0.27361 0.0
C3848 C 0.30419 0.85256 0.25884 0.0
C3849 C 0.32433 0.8551 0.24389 0.0
C3850 C 0.34212 0.86304 0.24361 0.0
H3851 H 0.31086 0.88867 0.22671 0.0
H3852 H 0.33024 0.87846 0.22111 0.0
H3853 H 0.29702 0.87909 0.23834 0.0
H3854 H 0.31931 0.8702 0.28489 0.0
H3855 H 0.28825 0.85637 0.28547 0.0
H3856 H 0.60807 0.67129 0.01388 0.0
H3857 H 0.63897 0.65745 0.01237 0.0
H3858 H 0.53772 0.64454 0.00606 0.0
H3859 H 0.50687 0.65831 0.0065 0.0
H3860 H 0.63569 0.64373 0.03354 0.0
H3861 H 0.59227 0.63375 0.96621 0.0
H3862 H 0.58562 0.64451 0.97445 0.0
H3863 H 0.5551 0.63605 0.98051 0.0
C3864 C 0.59234 0.66553 0.01182 0.0
C3865 C 0.5548 0.666 0.01027 0.0
C3866 C 0.6101 0.65759 0.01112 0.0
C3867 C 0.59086 0.64991 0.00879 0.0
C3868 C 0.55342 0.65035 0.00742 0.0
H3869 H 0.64727 0.59542 0.01335 0.0
H3870 H 0.61611 0.60926 0.01288 0.0
C3871 C 0.53569 0.65827 0.00799 0.0
C3872 C 0.60975 0.64143 0.00839 0.0
H3873 H 0.61939 0.62291 0.98419 0.0
C3874 C 0.63227 0.63922 0.02267 0.0
C3875 C 0.60546 0.63549 0.99421 0.0
C3876 C 0.5836 0.6376 0.9779 0.0
C3877 C 0.64995 0.63124 0.02332 0.0
C3878 C 0.64519 0.62528 0.0093 0.0
C3879 C 0.62278 0.62746 0.99501 0.0
C3880 C 0.66399 0.61683 0.00909 0.0
C3881 C 0.67325 0.62917 0.03914 0.0
C3882 C 0.70119 0.61645 0.00677 0.0
C3883 C 0.71907 0.60855 0.00676 0.0
C3884 C 0.70025 0.60078 0.00921 0.0
C3885 C 0.66278 0.6012 0.01126 0.0
C3886 C 0.64487 0.60913 0.01112 0.0
H3887 H 0.66892 0.63372 0.05033 0.0
H3888 H 0.66797 0.62254 0.04389 0.0
H3889 H 0.70179 0.62953 0.03512 0.0
H3890 H 0.71645 0.6223 0.00487 0.0
H3891 H 0.74773 0.60854 0.00467 0.0
H3892 H 0.71608 0.66419 0.2199 0.0
H3893 H 0.68441 0.65044 0.22021 0.0
H3894 H 0.64306 0.65615 0.27242 0.0
H3895 H 0.67523 0.66989 0.27236 0.0
H3896 H 0.67193 0.63926 0.26898 0.0
H3897 H 0.57584 0.64652 0.21471 0.0
H3898 H 0.62195 0.64837 0.20913 0.0
H3899 H 0.60096 0.65477 0.22607 0.0
C3900 C 0.70033 0.66253 0.23149 0.0
C3901 C 0.69829 0.66819 0.24611 0.0
C3902 C 0.68194 0.65469 0.23157 0.0
C3903 C 0.66099 0.65227 0.24626 0.0
C3904 C 0.65889 0.65788 0.26089 0.0
H3905 H 0.50606 0.61051 0.25121 0.0
H3906 H 0.53716 0.6243 0.25172 0.0
C3907 C 0.67711 0.66577 0.26078 0.0
C3908 C 0.64193 0.64383 0.24645 0.0
H3909 H 0.5779 0.63209 0.22478 0.0
C3910 C 0.65131 0.6377 0.25934 0.0
C3911 C 0.61478 0.6418 0.23398 0.0
C3912 C 0.60246 0.64822 0.22027 0.0
C3913 C 0.63475 0.62957 0.25991 0.0
C3914 C 0.60823 0.62746 0.24716 0.0
C3915 C 0.59844 0.63365 0.23446 0.0
C3916 C 0.58969 0.61895 0.247 0.0
C3917 C 0.64537 0.62335 0.27435 0.0
C3918 C 0.60871 0.61129 0.24405 0.0
C3919 C 0.59088 0.60335 0.24356 0.0
C3920 C 0.55352 0.60287 0.24596 0.0
C3921 C 0.53467 0.61058 0.24898 0.0
C3922 C 0.55248 0.6185 0.24939 0.0
H3923 H 0.65959 0.62661 0.28545 0.0
H3924 H 0.62154 0.62 0.27979 0.0
H3925 H 0.6636 0.61843 0.26868 0.0
H3926 H 0.63733 0.61146 0.24183 0.0
H3927 H 0.60634 0.59761 0.24094 0.0
H3928 H 0.28713 0.41218 0.96858 0.0
H3929 H 0.31713 0.39824 0.96963 0.0
H3930 H 0.35825 0.40421 0.0218 0.0
H3931 H 0.32749 0.4181 0.02106 0.0
H3932 H 0.38927 0.3942 0.97332 0.0
H3933 H 0.31084 0.38078 0.02953 0.0
H3934 H 0.29723 0.39031 0.01767 0.0
H3935 H 0.33201 0.39089 0.03416 0.0
C3936 C 0.30227 0.41052 0.98037 0.0
C3937 C 0.30451 0.41628 0.99481 0.0
C3938 C 0.31963 0.40255 0.9809 0.0
C3939 C 0.3395 0.40008 0.99592 0.0
C3940 C 0.34252 0.40587 0.0102 0.0
H3941 H 0.49226 0.35835 0.00719 0.0
H3942 H 0.46069 0.37207 0.00683 0.0
C3943 C 0.32523 0.41388 0.00966 0.0
C3944 C 0.3573 0.39148 0.99646 0.0
H3945 H 0.3601 0.37248 0.01935 0.0
C3946 C 0.38283 0.38946 0.98338 0.0
C3947 C 0.34869 0.38523 0.00947 0.0
C3948 C 0.32048 0.38685 0.02343 0.0
C3949 C 0.40038 0.38146 0.98317 0.0
C3950 C 0.39229 0.37529 0.99638 0.0
C3951 C 0.3664 0.37723 0.00929 0.0
C3952 C 0.41093 0.36683 0.99702 0.0
C3953 C 0.42736 0.37959 0.96876 0.0
C3954 C 0.39331 0.35926 0.99185 0.0
C3955 C 0.41148 0.35136 0.99177 0.0
C3956 C 0.44767 0.35085 0.997 0.0
C3957 C 0.46477 0.35846 1.00266 0.0
C3958 C 0.44668 0.36634 1.00259 0.0
H3959 H 0.42691 0.38452 0.95807 0.0
H3960 H 0.45459 0.37945 0.97465 0.0
H3961 H 0.42215 0.37319 0.96276 0.0
H3962 H 0.36568 0.3595 0.98751 0.0
H3963 H 0.39739 0.34571 0.98717 0.0
H3964 H 0.5019 0.4093 0.753 0.0
H3965 H 0.47066 0.39553 0.75241 0.0
H3966 H 0.37079 0.40838 0.76298 0.0
H3967 H 0.40193 0.42222 0.76391 0.0
H3968 H 0.43067 0.38772 0.77947 0.0
H3969 H 0.34735 0.39335 0.71941 0.0
H3970 H 0.38551 0.39995 0.7249 0.0
H3971 H 0.34372 0.40148 0.73628 0.0
C3972 C 0.47332 0.40924 0.75534 0.0
C3973 C 0.45458 0.41694 0.75857 0.0
C3974 C 0.45544 0.40133 0.75489 0.0
C3975 C 0.41828 0.4009 0.75747 0.0
C3976 C 0.39937 0.40855 0.76061 0.0
H3977 H 0.29238 0.35572 0.78517 0.0
H3978 H 0.32435 0.36943 0.78474 0.0
C3979 C 0.41726 0.41648 0.76112 0.0
C3980 C 0.3997 0.3924 0.75735 0.0
H3981 H 0.33526 0.38068 0.73591 0.0
C3982 C 0.40983 0.38618 0.76993 0.0
C3983 C 0.3728 0.39033 0.74477 0.0
C3984 C 0.36182 0.39659 0.73046 0.0
C3985 C 0.39346 0.37804 0.77046 0.0
C3986 C 0.36591 0.37605 0.75818 0.0
C3987 C 0.35619 0.38221 0.7454 0.0
C3988 C 0.34676 0.36764 0.75846 0.0
C3989 C 0.40616 0.37159 0.78401 0.0
C3990 C 0.34821 0.36208 0.74374 0.0
C3991 C 0.3298 0.35422 0.74391 0.0
C3992 C 0.30911 0.35179 0.75874 0.0
C3993 C 0.30776 0.35739 0.77346 0.0
C3994 C 0.32632 0.36521 0.77331 0.0
H3995 H 0.43302 0.37325 0.78934 0.0
H3996 H 0.3871 0.37145 0.79533 0.0
H3997 H 0.40731 0.36504 0.77817 0.0
H3998 H 0.36365 0.36382 0.73209 0.0
H3999 H 0.33113 0.35013 0.73226 0.0
loop_
_geom_bond_atom_site_label_1
_geom_bond_atom_site_label_2
_geom_bond_distance
_geom_bond_site_symmetry_2
_ccdc_geom_bond_type
C0 C1 1.443 . S
C0 N4 1.376 . S
C0 C38 1.389 . S
C1 C0 1.443 . S
C1 C2 1.340 . S
C1 H41 0.951 . S
C2 C1 1.340 . S
C2 C3 1.439 . S
C2 H42 0.950 . S
C3 C2 1.439 . S
C3 N4 1.374 . S
C3 C37 1.395 1_554 S
N4 C0 1.376 . S
N4 C3 1.374 . S
N4 Co5 2.008 . S
Co5 N4 2.008 . S
Co5 N6 1.995 1_554 S
Co5 N11 2.008 1_554 S
Co5 N16 1.995 . S
Co5 N21 2.282 . S
Co5 N27 2.282 . S
N6 Co5 1.995 1_556 S
N6 C7 1.376 . S
N6 C10 1.383 . S
C7 N6 1.376 . S
C7 C8 1.446 . S
C7 C37 1.391 . S
C8 C7 1.446 . S
C8 C9 1.339 . S
C8 H43 0.949 . S
C9 C8 1.339 . S
C9 C10 1.439 . S
C9 H44 0.950 . S
C10 N6 1.383 . S
C10 C9 1.439 . S
C10 C39 1.392 . S
N11 Co5 2.008 1_556 S
N11 C12 1.376 . S
N11 C15 1.374 1_556 S
C12 N11 1.376 . S
C12 C13 1.443 . S
C12 C39 1.389 . S
C13 C12 1.443 . S
C13 C14 1.340 . S
C13 H45 0.951 . S
C14 C13 1.340 . S
C14 C15 1.439 1_556 S
C14 H46 0.950 . S
C15 N11 1.374 1_554 S
C15 C14 1.439 1_554 S
C15 C40 1.395 . S
N16 Co5 1.995 . S
N16 C17 1.376 . S
N16 C20 1.383 . S
C17 N16 1.376 . S
C17 C18 1.446 . S
C17 C40 1.391 . S
C18 C17 1.446 . S
C18 C19 1.339 . S
C18 H47 0.949 . S
C19 C18 1.339 . S
C19 C20 1.439 . S
C19 H48 0.950 . S
C20 N16 1.383 . S
C20 C19 1.439 . S
C20 C38 1.392 . S
N21 Co5 2.282 . S
N21 C24 1.332 . S
N21 C26 1.332 1_554 S
C22 C23 1.386 . S
C22 C25 1.388 1_554 S
C23 C22 1.386 . S
C23 C24 1.382 . S
C23 H49 0.950 . S
C24 N21 1.332 . S
C24 C23 1.382 . S
C24 H35 0.952 . S
C25 C22 1.388 1_556 S
C25 C26 1.382 . S
C25 H50 0.950 . S
C26 N21 1.332 1_556 S
C26 C25 1.382 . S
C26 H36 0.948 . S
N27 Co5 2.282 . S
N27 C31 1.332 1_554 S
N27 C32 1.332 . S
C28 C29 1.388 . S
C28 C32 1.382 . S
C28 H51 0.950 . S
C29 C28 1.388 . S
C29 C30 1.386 1_554 S
C30 C29 1.386 1_556 S
C30 C31 1.382 . S
C30 H52 0.950 . S
C31 N27 1.332 1_556 S
C31 C30 1.382 . S
C31 H33 0.952 . S
C32 N27 1.332 . S
C32 C28 1.382 . S
C32 H34 0.948 . S
H33 C31 0.952 . S
H34 C32 0.948 . S
H35 C24 0.952 . S
H36 C26 0.948 . S
C37 C3 1.395 1_556 S
C37 C7 1.391 . S
C38 C0 1.389 . S
C38 C20 1.392 . S
C39 C10 1.392 . S
C39 C12 1.389 . S
C40 C15 1.395 . S
C40 C17 1.391 . S
H41 C1 0.951 . S
H42 C2 0.950 . S
H43 C8 0.949 . S
H44 C9 0.950 . S
H45 C13 0.951 . S
H46 C14 0.950 . S
H47 C18 0.949 . S
H48 C19 0.950 . S
H49 C23 0.950 . S
H50 C25 0.950 . S
H51 C28 0.950 . S
H52 C30 0.950 . S
C53 C54 1.443 . S
C53 N57 1.376 . S
C53 C91 1.389 . S
C54 C53 1.443 . S
C54 C55 1.340 . S
C54 H94 0.951 . S
C55 C54 1.340 . S
C55 C56 1.439 . S
C55 H95 0.950 . S
C56 C55 1.439 . S
C56 N57 1.374 . S
C56 C90 1.395 1_554 S
N57 C53 1.376 . S
N57 C56 1.374 . S
N57 Co58 2.008 1_455 S
Co58 N57 2.008 1_655 S
Co58 N59 1.995 1_554 S
Co58 N64 2.008 1_554 S
Co58 N69 1.995 . S
Co58 N74 2.282 . S
Co58 N80 2.282 1_655 S
N59 Co58 1.995 1_556 S
N59 C60 1.376 1_655 S
N59 C63 1.383 . S
C60 N59 1.376 1_455 S
C60 C61 1.446 . S
C60 C90 1.391 . S
C61 C60 1.446 . S
C61 C62 1.339 1_455 S
C61 H96 0.949 . S
C62 C61 1.339 1_655 S
C62 C63 1.439 . S
C62 H97 0.950 . S
C63 N59 1.383 . S
C63 C62 1.439 . S
C63 C92 1.392 . S
N64 Co58 2.008 1_556 S
N64 C65 1.376 . S
N64 C68 1.374 1_556 S
C65 N64 1.376 . S
C65 C66 1.443 . S
C65 C92 1.389 . S
C66 C65 1.443 . S
C66 C67 1.340 . S
C66 H98 0.951 . S
C67 C66 1.340 . S
C67 C68 1.439 1_556 S
C67 H99 0.950 . S
C68 N64 1.374 1_554 S
C68 C67 1.439 1_554 S
C68 C93 1.395 . S
N69 Co58 1.995 . S
N69 C70 1.376 . S
N69 C73 1.383 . S
C70 N69 1.376 . S
C70 C71 1.446 . S
C70 C93 1.391 . S
C71 C70 1.446 . S
C71 C72 1.339 . S
C71 H100 0.949 . S
C72 C71 1.339 . S
C72 C73 1.439 . S
C72 H101 0.950 . S
C73 N69 1.383 . S
C73 C72 1.439 . S
C73 C91 1.392 1_655 S
N74 Co58 2.282 . S
N74 C77 1.332 . S
N74 C79 1.332 1_554 S
C75 C76 1.386 . S
C75 C78 1.388 1_554 S
C76 C75 1.386 . S
C76 C77 1.382 . S
C76 H102 0.950 . S
C77 N74 1.332 . S
C77 C76 1.382 . S
C77 H88 0.952 . S
C78 C75 1.388 1_556 S
C78 C79 1.382 . S
C78 H103 0.950 . S
C79 N74 1.332 1_556 S
C79 C78 1.382 . S
C79 H89 0.948 . S
N80 Co58 2.282 1_455 S
N80 C84 1.332 1_554 S
N80 C85 1.332 . S
C81 C82 1.388 . S
C81 C85 1.382 . S
C81 H104 0.950 . S
C82 C81 1.388 . S
C82 C83 1.386 1_554 S
C83 C82 1.386 1_556 S
C83 C84 1.382 . S
C83 H105 0.950 . S
C84 N80 1.332 1_556 S
C84 C83 1.382 . S
C84 H86 0.952 . S
C85 N80 1.332 . S
C85 C81 1.382 . S
C85 H87 0.948 1_455 S
H86 C84 0.952 . S
H87 C85 0.948 1_655 S
H88 C77 0.952 . S
H89 C79 0.948 . S
C90 C56 1.395 1_556 S
C90 C60 1.391 . S
C91 C53 1.389 . S
C91 C73 1.392 1_455 S
C92 C63 1.392 . S
C92 C65 1.389 . S
C93 C68 1.395 . S
C93 C70 1.391 . S
H94 C54 0.951 . S
H95 C55 0.950 . S
H96 C61 0.949 . S
H97 C62 0.950 . S
H98 C66 0.951 . S
H99 C67 0.950 . S
H100 C71 0.949 . S
H101 C72 0.950 . S
H102 C76 0.950 . S
H103 C78 0.950 . S
H104 C81 0.950 . S
H105 C83 0.950 . S
C106 C107 1.443 . S
C106 N110 1.376 . S
C106 C144 1.389 . S
C107 C106 1.443 . S
C107 C108 1.340 . S
C107 H147 0.951 . S
C108 C107 1.340 . S
C108 C109 1.439 . S
C108 H148 0.950 . S
C109 C108 1.439 . S
C109 N110 1.374 . S
C109 C143 1.395 . S
N110 C106 1.376 . S
N110 C109 1.374 . S
N110 Co111 2.008 . S
Co111 N110 2.008 . S
Co111 N112 1.995 . S
Co111 N117 2.008 . S
Co111 N122 1.995 . S
Co111 N127 2.282 . S
Co111 N133 2.282 . S
N112 Co111 1.995 . S
N112 C113 1.376 . S
N112 C116 1.383 . S
C113 N112 1.376 . S
C113 C114 1.446 . S
C113 C143 1.391 . S
C114 C113 1.446 . S
C114 C115 1.339 . S
C114 H149 0.949 . S
C115 C114 1.339 . S
C115 C116 1.439 . S
C115 H150 0.950 . S
C116 N112 1.383 . S
C116 C115 1.439 . S
C116 C145 1.392 . S
N117 Co111 2.008 . S
N117 C118 1.376 . S
N117 C121 1.374 . S
C118 N117 1.376 . S
C118 C119 1.443 . S
C118 C145 1.389 . S
C119 C118 1.443 . S
C119 C120 1.340 . S
C119 H151 0.951 . S
C120 C119 1.340 . S
C120 C121 1.439 . S
C120 H152 0.950 . S
C121 N117 1.374 . S
C121 C120 1.439 . S
C121 C146 1.395 . S
N122 Co111 1.995 . S
N122 C123 1.376 . S
N122 C126 1.383 . S
C123 N122 1.376 . S
C123 C124 1.446 . S
C123 C146 1.391 . S
C124 C123 1.446 . S
C124 C125 1.339 . S
C124 H153 0.949 . S
C125 C124 1.339 . S
C125 C126 1.439 . S
C125 H154 0.950 . S
C126 N122 1.383 . S
C126 C125 1.439 . S
C126 C144 1.392 . S
N127 Co111 2.282 . S
N127 C130 1.332 . S
N127 C132 1.332 . S
C128 C129 1.386 . S
C128 C131 1.388 . S
C129 C128 1.386 . S
C129 C130 1.382 . S
C129 H155 0.950 . S
C130 N127 1.332 . S
C130 C129 1.382 . S
C130 H141 0.952 . S
C131 C128 1.388 . S
C131 C132 1.382 . S
C131 H156 0.950 . S
C132 N127 1.332 . S
C132 C131 1.382 . S
C132 H142 0.948 . S
N133 Co111 2.282 . S
N133 C137 1.332 . S
N133 C138 1.332 . S
C134 C135 1.388 . S
C134 C138 1.382 . S
C134 H157 0.950 . S
C135 C134 1.388 . S
C135 C136 1.386 . S
C136 C135 1.386 . S
C136 C137 1.382 . S
C136 H158 0.950 . S
C137 N133 1.332 . S
C137 C136 1.382 . S
C137 H139 0.952 . S
C138 N133 1.332 . S
C138 C134 1.382 . S
C138 H140 0.948 . S
H139 C137 0.952 . S
H140 C138 0.948 . S
H141 C130 0.952 . S
H142 C132 0.948 . S
C143 C109 1.395 . S
C143 C113 1.391 . S
C144 C106 1.389 . S
C144 C126 1.392 . S
C145 C116 1.392 . S
C145 C118 1.389 . S
C146 C121 1.395 . S
C146 C123 1.391 . S
H147 C107 0.951 . S
H148 C108 0.950 . S
H149 C114 0.949 . S
H150 C115 0.950 . S
H151 C119 0.951 . S
H152 C120 0.950 . S
H153 C124 0.949 . S
H154 C125 0.950 . S
H155 C129 0.950 . S
H156 C131 0.950 . S
H157 C134 0.950 . S
H158 C136 0.950 . S
C159 C160 1.443 . S
C159 N163 1.376 . S
C159 C197 1.389 . S
C160 C159 1.443 . S
C160 C161 1.340 . S
C160 H200 0.951 . S
C161 C160 1.340 . S
C161 C162 1.439 . S
C161 H201 0.950 . S
C162 C161 1.439 . S
C162 N163 1.374 . S
C162 C196 1.395 . S
N163 C159 1.376 . S
N163 C162 1.374 . S
N163 Co164 2.008 1_455 S
Co164 N163 2.008 1_655 S
Co164 N165 1.995 . S
Co164 N170 2.008 . S
Co164 N175 1.995 . S
Co164 N180 2.282 . S
Co164 N186 2.282 1_655 S
N165 Co164 1.995 . S
N165 C166 1.376 1_655 S
N165 C169 1.383 . S
C166 N165 1.376 1_455 S
C166 C167 1.446 . S
C166 C196 1.391 . S
C167 C166 1.446 . S
C167 C168 1.339 1_455 S
C167 H202 0.949 . S
C168 C167 1.339 1_655 S
C168 C169 1.439 . S
C168 H203 0.950 . S
C169 N165 1.383 . S
C169 C168 1.439 . S
C169 C198 1.392 . S
N170 Co164 2.008 . S
N170 C171 1.376 . S
N170 C174 1.374 . S
C171 N170 1.376 . S
C171 C172 1.443 . S
C171 C198 1.389 . S
C172 C171 1.443 . S
C172 C173 1.340 . S
C172 H204 0.951 . S
C173 C172 1.340 . S
C173 C174 1.439 . S
C173 H205 0.950 . S
C174 N170 1.374 . S
C174 C173 1.439 . S
C174 C199 1.395 . S
N175 Co164 1.995 . S
N175 C176 1.376 . S
N175 C179 1.383 . S
C176 N175 1.376 . S
C176 C177 1.446 . S
C176 C199 1.391 . S
C177 C176 1.446 . S
C177 C178 1.339 . S
C177 H206 0.949 . S
C178 C177 1.339 . S
C178 C179 1.439 . S
C178 H207 0.950 . S
C179 N175 1.383 . S
C179 C178 1.439 . S
C179 C197 1.392 1_655 S
N180 Co164 2.282 . S
N180 C183 1.332 . S
N180 C185 1.332 . S
C181 C182 1.386 . S
C181 C184 1.388 . S
C182 C181 1.386 . S
C182 C183 1.382 . S
C182 H208 0.950 . S
C183 N180 1.332 . S
C183 C182 1.382 . S
C183 H194 0.952 . S
C184 C181 1.388 . S
C184 C185 1.382 . S
C184 H209 0.950 . S
C185 N180 1.332 . S
C185 C184 1.382 . S
C185 H195 0.948 . S
N186 Co164 2.282 1_455 S
N186 C190 1.332 . S
N186 C191 1.332 . S
C187 C188 1.388 . S
C187 C191 1.382 . S
C187 H210 0.950 . S
C188 C187 1.388 . S
C188 C189 1.386 . S
C189 C188 1.386 . S
C189 C190 1.382 . S
C189 H211 0.950 . S
C190 N186 1.332 . S
C190 C189 1.382 . S
C190 H192 0.952 . S
C191 N186 1.332 . S
C191 C187 1.382 . S
C191 H193 0.948 1_455 S
H192 C190 0.952 . S
H193 C191 0.948 1_655 S
H194 C183 0.952 . S
H195 C185 0.948 . S
C196 C162 1.395 . S
C196 C166 1.391 . S
C197 C159 1.389 . S
C197 C179 1.392 1_455 S
C198 C169 1.392 . S
C198 C171 1.389 . S
C199 C174 1.395 . S
C199 C176 1.391 . S
H200 C160 0.951 . S
H201 C161 0.950 . S
H202 C167 0.949 . S
H203 C168 0.950 . S
H204 C172 0.951 . S
H205 C173 0.950 . S
H206 C177 0.949 . S
H207 C178 0.950 . S
H208 C182 0.950 . S
H209 C184 0.950 . S
H210 C187 0.950 . S
H211 C189 0.950 . S
C212 C213 1.443 . S
C212 N216 1.376 . S
C212 C250 1.389 . S
C213 C212 1.443 . S
C213 C214 1.340 . S
C213 H253 0.951 . S
C214 C213 1.340 . S
C214 C215 1.439 . S
C214 H254 0.950 . S
C215 C214 1.439 . S
C215 N216 1.374 . S
C215 C249 1.395 . S
N216 C212 1.376 . S
N216 C215 1.374 . S
N216 Co217 2.008 . S
Co217 N216 2.008 . S
Co217 N218 1.995 1_556 S
Co217 N223 2.008 1_556 S
Co217 N228 1.995 . S
Co217 N233 2.282 . S
Co217 N239 2.288 . S
N218 Co217 1.995 1_554 S
N218 C219 1.376 1_554 S
N218 C222 1.383 . S
C219 N218 1.376 1_556 S
C219 C220 1.446 1_556 S
C219 C249 1.391 . S
C220 C219 1.446 1_554 S
C220 C221 1.339 . S
C220 H255 0.949 . S
C221 C220 1.339 . S
C221 C222 1.439 . S
C221 H256 0.950 . S
C222 N218 1.383 . S
C222 C221 1.439 . S
C222 C251 1.392 . S
N223 Co217 2.008 1_554 S
N223 C224 1.376 . S
N223 C227 1.374 . S
C224 N223 1.376 . S
C224 C225 1.443 . S
C224 C251 1.389 . S
C225 C224 1.443 . S
C225 C226 1.340 . S
C225 H257 0.951 . S
C226 C225 1.340 . S
C226 C227 1.439 . S
C226 H258 0.950 . S
C227 N223 1.374 . S
C227 C226 1.439 . S
C227 C252 1.395 . S
N228 Co217 1.995 . S
N228 C229 1.376 . S
N228 C232 1.383 . S
C229 N228 1.376 . S
C229 C230 1.446 . S
C229 C252 1.391 1_556 S
C230 C229 1.446 . S
C230 C231 1.339 . S
C230 H259 0.949 . S
C231 C230 1.339 . S
C231 C232 1.439 . S
C231 H260 0.950 . S
C232 N228 1.383 . S
C232 C231 1.439 . S
C232 C250 1.392 . S
N233 Co217 2.282 . S
N233 C236 1.332 . S
N233 C238 1.332 . S
C234 C235 1.386 . S
C234 C237 1.388 . S
C235 C234 1.386 . S
C235 C236 1.382 . S
C235 H261 0.947 1_556 S
C236 N233 1.332 . S
C236 C235 1.382 . S
C236 H247 0.952 . S
C237 C234 1.388 . S
C237 C238 1.382 . S
C237 H262 0.950 . S
C238 N233 1.332 . S
C238 C237 1.382 . S
C238 H248 0.948 . S
N239 Co217 2.288 . S
N239 C243 1.342 . S
N239 C244 1.331 . S
C240 C241 1.388 . S
C240 C244 1.383 . S
C240 H263 0.950 . S
C241 C240 1.388 . S
C241 C242 1.386 . S
C242 C241 1.386 . S
C242 C243 1.382 . S
C242 H264 0.950 . S
C243 N239 1.342 . S
C243 C242 1.382 . S
C243 H245 0.952 . S
C244 N239 1.331 . S
C244 C240 1.383 . S
C244 H246 0.947 1_556 S
H245 C243 0.952 . S
H246 C244 0.947 1_554 S
H247 C236 0.952 . S
H248 C238 0.948 . S
C249 C215 1.395 . S
C249 C219 1.391 . S
C250 C212 1.389 . S
C250 C232 1.392 . S
C251 C222 1.392 . S
C251 C224 1.389 . S
C252 C227 1.395 . S
C252 C229 1.391 1_554 S
H253 C213 0.951 . S
H254 C214 0.950 . S
H255 C220 0.949 . S
H256 C221 0.950 . S
H257 C225 0.951 . S
H258 C226 0.950 . S
H259 C230 0.949 . S
H260 C231 0.950 . S
H261 C235 0.947 1_554 S
H262 C237 0.950 . S
H263 C240 0.950 . S
H264 C242 0.950 . S
C265 C266 1.443 . S
C265 N269 1.376 . S
C265 C303 1.389 1_455 S
C266 C265 1.443 . S
C266 C267 1.340 . S
C266 H306 0.951 . S
C267 C266 1.340 . S
C267 C268 1.439 . S
C267 H307 0.950 . S
C268 C267 1.439 . S
C268 N269 1.374 . S
C268 C302 1.395 . S
N269 C265 1.376 . S
N269 C268 1.374 . S
N269 Co270 2.008 . S
Co270 N269 2.008 . S
Co270 N271 1.995 1_556 S
Co270 N276 2.008 1_556 S
Co270 N281 1.995 1_455 S
Co270 N286 2.282 . S
Co270 N292 2.288 1_455 S
N271 Co270 1.995 1_554 S
N271 C272 1.376 1_554 S
N271 C275 1.383 . S
C272 N271 1.376 1_556 S
C272 C273 1.446 1_556 S
C272 C302 1.391 . S
C273 C272 1.446 1_554 S
C273 C274 1.339 . S
C273 H308 0.949 . S
C274 C273 1.339 . S
C274 C275 1.439 . S
C274 H309 0.950 . S
C275 N271 1.383 . S
C275 C274 1.439 . S
C275 C304 1.392 . S
N276 Co270 2.008 1_554 S
N276 C277 1.376 . S
N276 C280 1.374 1_455 S
C277 N276 1.376 . S
C277 C278 1.443 . S
C277 C304 1.389 . S
C278 C277 1.443 . S
C278 C279 1.340 1_455 S
C278 H310 0.951 . S
C279 C278 1.340 1_655 S
C279 C280 1.439 . S
C279 H311 0.950 . S
C280 N276 1.374 1_655 S
C280 C279 1.439 . S
C280 C305 1.395 . S
N281 Co270 1.995 1_655 S
N281 C282 1.376 . S
N281 C285 1.383 . S
C282 N281 1.376 . S
C282 C283 1.446 . S
C282 C305 1.391 1_556 S
C283 C282 1.446 . S
C283 C284 1.339 . S
C283 H312 0.949 . S
C284 C283 1.339 . S
C284 C285 1.439 . S
C284 H313 0.950 . S
C285 N281 1.383 . S
C285 C284 1.439 . S
C285 C303 1.392 . S
N286 Co270 2.282 . S
N286 C289 1.332 . S
N286 C291 1.332 . S
C287 C288 1.386 . S
C287 C290 1.388 . S
C288 C287 1.386 . S
C288 C289 1.382 . S
C288 H314 0.947 1_556 S
C289 N286 1.332 . S
C289 C288 1.382 . S
C289 H300 0.952 . S
C290 C287 1.388 . S
C290 C291 1.382 . S
C290 H315 0.950 . S
C291 N286 1.332 . S
C291 C290 1.382 . S
C291 H301 0.948 . S
N292 Co270 2.288 1_655 S
N292 C296 1.349 . S
N292 C297 1.331 . S
C293 C294 1.388 . S
C293 C297 1.383 . S
C293 H316 0.950 . S
C294 C293 1.388 . S
C294 C295 1.386 . S
C295 C294 1.386 . S
C295 C296 1.391 . S
C295 H317 0.950 . S
C296 N292 1.349 . S
C296 C295 1.391 . S
C296 H298 0.934 1_655 S
C297 N292 1.331 . S
C297 C293 1.383 . S
C297 H299 0.947 1_556 S
H298 C296 0.934 1_455 S
H299 C297 0.947 1_554 S
H300 C289 0.952 . S
H301 C291 0.948 . S
C302 C268 1.395 . S
C302 C272 1.391 . S
C303 C265 1.389 1_655 S
C303 C285 1.392 . S
C304 C275 1.392 . S
C304 C277 1.389 . S
C305 C280 1.395 . S
C305 C282 1.391 1_554 S
H306 C266 0.951 . S
H307 C267 0.950 . S
H308 C273 0.949 . S
H309 C274 0.950 . S
H310 C278 0.951 . S
H311 C279 0.950 . S
H312 C283 0.949 . S
H313 C284 0.950 . S
H314 C288 0.947 1_554 S
H315 C290 0.950 . S
H316 C293 0.950 . S
H317 C295 0.950 . S
C318 C319 1.443 . S
C318 N322 1.376 . S
C318 C356 1.389 . S
C319 C318 1.443 . S
C319 C320 1.340 . S
C319 H359 0.951 . S
C320 C319 1.340 . S
C320 C321 1.439 . S
C320 H360 0.950 . S
C321 C320 1.439 . S
C321 N322 1.374 . S
C321 C355 1.395 . S
N322 C318 1.376 . S
N322 C321 1.374 . S
N322 Co323 2.008 . S
Co323 N322 2.008 . S
Co323 N324 1.995 . S
Co323 N329 2.008 . S
Co323 N334 1.995 . S
Co323 N339 2.282 . S
Co323 N345 2.282 . S
N324 Co323 1.995 . S
N324 C325 1.376 . S
N324 C328 1.383 . S
C325 N324 1.376 . S
C325 C326 1.446 . S
C325 C355 1.391 . S
C326 C325 1.446 . S
C326 C327 1.339 . S
C326 H361 0.949 . S
C327 C326 1.339 . S
C327 C328 1.439 . S
C327 H362 0.950 . S
C328 N324 1.383 . S
C328 C327 1.439 . S
C328 C357 1.392 . S
N329 Co323 2.008 . S
N329 C330 1.376 . S
N329 C333 1.374 . S
C330 N329 1.376 . S
C330 C331 1.443 . S
C330 C357 1.389 . S
C331 C330 1.443 . S
C331 C332 1.340 . S
C331 H363 0.951 . S
C332 C331 1.340 . S
C332 C333 1.439 . S
C332 H364 0.950 . S
C333 N329 1.374 . S
C333 C332 1.439 . S
C333 C358 1.395 . S
N334 Co323 1.995 . S
N334 C335 1.376 . S
N334 C338 1.383 . S
C335 N334 1.376 . S
C335 C336 1.446 . S
C335 C358 1.391 . S
C336 C335 1.446 . S
C336 C337 1.339 . S
C336 H365 0.949 . S
C337 C336 1.339 . S
C337 C338 1.439 . S
C337 H366 0.950 . S
C338 N334 1.383 . S
C338 C337 1.439 . S
C338 C356 1.392 . S
N339 Co323 2.282 . S
N339 C342 1.332 . S
N339 C344 1.332 . S
C340 C341 1.386 . S
C340 C343 1.388 . S
C341 C340 1.386 . S
C341 C342 1.382 . S
C341 H367 0.950 . S
C342 N339 1.332 . S
C342 C341 1.382 . S
C342 H353 0.952 . S
C343 C340 1.388 . S
C343 C344 1.382 . S
C343 H368 0.950 . S
C344 N339 1.332 . S
C344 C343 1.382 . S
C344 H354 0.948 . S
N345 Co323 2.282 . S
N345 C349 1.332 . S
N345 C350 1.332 . S
C346 C347 1.388 . S
C346 C350 1.382 . S
C346 H369 0.950 . S
C347 C346 1.388 . S
C347 C348 1.386 . S
C348 C347 1.386 . S
C348 C349 1.382 . S
C348 H370 0.950 . S
C349 N345 1.332 . S
C349 C348 1.382 . S
C349 H351 0.952 . S
C350 N345 1.332 . S
C350 C346 1.382 . S
C350 H352 0.948 . S
H351 C349 0.952 . S
H352 C350 0.948 . S
H353 C342 0.952 . S
H354 C344 0.948 . S
C355 C321 1.395 . S
C355 C325 1.391 . S
C356 C318 1.389 . S
C356 C338 1.392 . S
C357 C328 1.392 . S
C357 C330 1.389 . S
C358 C333 1.395 . S
C358 C335 1.391 . S
H359 C319 0.951 . S
H360 C320 0.950 . S
H361 C326 0.949 . S
H362 C327 0.950 . S
H363 C331 0.951 . S
H364 C332 0.950 . S
H365 C336 0.949 . S
H366 C337 0.950 . S
H367 C341 0.950 . S
H368 C343 0.950 . S
H369 C346 0.950 . S
H370 C348 0.950 . S
C371 C372 1.443 . S
C371 N375 1.376 . S
C371 C409 1.389 1_455 S
C372 C371 1.443 . S
C372 C373 1.340 . S
C372 H412 0.951 . S
C373 C372 1.340 . S
C373 C374 1.439 . S
C373 H413 0.950 . S
C374 C373 1.439 . S
C374 N375 1.374 . S
C374 C408 1.395 . S
N375 C371 1.376 . S
N375 C374 1.374 . S
N375 Co376 2.008 . S
Co376 N375 2.008 . S
Co376 N377 1.995 . S
Co376 N382 2.008 . S
Co376 N387 1.995 1_455 S
Co376 N392 2.282 . S
Co376 N398 2.282 1_455 S
N377 Co376 1.995 . S
N377 C378 1.376 . S
N377 C381 1.383 . S
C378 N377 1.376 . S
C378 C379 1.446 . S
C378 C408 1.391 . S
C379 C378 1.446 . S
C379 C380 1.339 . S
C379 H414 0.949 . S
C380 C379 1.339 . S
C380 C381 1.439 . S
C380 H415 0.950 . S
C381 N377 1.383 . S
C381 C380 1.439 . S
C381 C410 1.392 . S
N382 Co376 2.008 . S
N382 C383 1.376 . S
N382 C386 1.374 1_455 S
C383 N382 1.376 . S
C383 C384 1.443 . S
C383 C410 1.389 . S
C384 C383 1.443 . S
C384 C385 1.340 1_455 S
C384 H416 0.951 . S
C385 C384 1.340 1_655 S
C385 C386 1.439 . S
C385 H417 0.950 . S
C386 N382 1.374 1_655 S
C386 C385 1.439 . S
C386 C411 1.395 . S
N387 Co376 1.995 1_655 S
N387 C388 1.376 . S
N387 C391 1.383 . S
C388 N387 1.376 . S
C388 C389 1.446 . S
C388 C411 1.391 . S
C389 C388 1.446 . S
C389 C390 1.339 . S
C389 H418 0.949 . S
C390 C389 1.339 . S
C390 C391 1.439 . S
C390 H419 0.950 . S
C391 N387 1.383 . S
C391 C390 1.439 . S
C391 C409 1.392 . S
N392 Co376 2.282 . S
N392 C395 1.332 . S
N392 C397 1.332 . S
C393 C394 1.386 . S
C393 C396 1.388 . S
C394 C393 1.386 . S
C394 C395 1.382 . S
C394 H420 0.950 . S
C395 N392 1.332 . S
C395 C394 1.382 . S
C395 H406 0.952 . S
C396 C393 1.388 . S
C396 C397 1.382 . S
C396 H421 0.950 . S
C397 N392 1.332 . S
C397 C396 1.382 . S
C397 H407 0.948 . S
N398 Co376 2.282 1_655 S
N398 C402 1.340 . S
N398 C403 1.332 . S
C399 C400 1.388 . S
C399 C403 1.382 . S
C399 H422 0.950 . S
C400 C399 1.388 . S
C400 C401 1.386 . S
C401 C400 1.386 . S
C401 C402 1.393 . S
C401 H423 0.950 . S
C402 N398 1.340 . S
C402 C401 1.393 . S
C402 H404 0.931 1_655 S
C403 N398 1.332 . S
C403 C399 1.382 . S
C403 H405 0.948 . S
H404 C402 0.931 1_455 S
H405 C403 0.948 . S
H406 C395 0.952 . S
H407 C397 0.948 . S
C408 C374 1.395 . S
C408 C378 1.391 . S
C409 C371 1.389 1_655 S
C409 C391 1.392 . S
C410 C381 1.392 . S
C410 C383 1.389 . S
C411 C386 1.395 . S
C411 C388 1.391 . S
H412 C372 0.951 . S
H413 C373 0.950 . S
H414 C379 0.949 . S
H415 C380 0.950 . S
H416 C384 0.951 . S
H417 C385 0.950 . S
H418 C389 0.949 . S
H419 C390 0.950 . S
H420 C394 0.950 . S
H421 C396 0.950 . S
H422 C399 0.950 . S
H423 C401 0.950 . S
C424 C425 1.443 . S
C424 N428 1.376 . S
C424 C462 1.389 . S
C425 C424 1.443 . S
C425 C426 1.340 . S
C425 H465 0.951 . S
C426 C425 1.340 . S
C426 C427 1.439 . S
C426 H466 0.950 . S
C427 C426 1.439 . S
C427 N428 1.374 . S
C427 C461 1.395 . S
N428 C424 1.376 . S
N428 C427 1.374 . S
N428 Co429 2.008 . S
Co429 N428 2.008 . S
Co429 N430 1.995 . S
Co429 N435 2.008 . S
Co429 N440 1.995 . S
Co429 N445 2.282 . S
Co429 N451 2.282 . S
N430 Co429 1.995 . S
N430 C431 1.376 . S
N430 C434 1.383 . S
C431 N430 1.376 . S
C431 C432 1.446 . S
C431 C461 1.391 . S
C432 C431 1.446 . S
C432 C433 1.339 . S
C432 H467 0.949 . S
C433 C432 1.339 . S
C433 C434 1.439 . S
C433 H468 0.950 . S
C434 N430 1.383 . S
C434 C433 1.439 . S
C434 C463 1.392 . S
N435 Co429 2.008 . S
N435 C436 1.376 . S
N435 C439 1.374 . S
C436 N435 1.376 . S
C436 C437 1.443 . S
C436 C463 1.389 . S
C437 C436 1.443 . S
C437 C438 1.340 . S
C437 H469 0.951 . S
C438 C437 1.340 . S
C438 C439 1.439 . S
C438 H470 0.950 . S
C439 N435 1.374 . S
C439 C438 1.439 . S
C439 C464 1.395 . S
N440 Co429 1.995 . S
N440 C441 1.376 . S
N440 C444 1.383 . S
C441 N440 1.376 . S
C441 C442 1.446 . S
C441 C464 1.391 . S
C442 C441 1.446 . S
C442 C443 1.339 . S
C442 H471 0.949 . S
C443 C442 1.339 . S
C443 C444 1.439 . S
C443 H472 0.950 . S
C444 N440 1.383 . S
C444 C443 1.439 . S
C444 C462 1.392 . S
N445 Co429 2.282 . S
N445 C448 1.332 . S
N445 C450 1.332 . S
C446 C447 1.386 . S
C446 C449 1.388 . S
C447 C446 1.386 . S
C447 C448 1.382 . S
C447 H473 0.950 . S
C448 N445 1.332 . S
C448 C447 1.382 . S
C448 H459 0.952 . S
C449 C446 1.388 . S
C449 C450 1.382 . S
C449 H474 0.950 . S
C450 N445 1.332 . S
C450 C449 1.382 . S
C450 H460 0.948 . S
N451 Co429 2.282 . S
N451 C455 1.332 . S
N451 C456 1.332 . S
C452 C453 1.388 . S
C452 C456 1.382 . S
C452 H475 0.950 . S
C453 C452 1.388 . S
C453 C454 1.386 . S
C454 C453 1.386 . S
C454 C455 1.382 . S
C454 H476 0.950 . S
C455 N451 1.332 . S
C455 C454 1.382 . S
C455 H457 0.952 . S
C456 N451 1.332 . S
C456 C452 1.382 . S
C456 H458 0.948 . S
H457 C455 0.952 . S
H458 C456 0.948 . S
H459 C448 0.952 . S
H460 C450 0.948 . S
C461 C427 1.395 . S
C461 C431 1.391 . S
C462 C424 1.389 . S
C462 C444 1.392 . S
C463 C434 1.392 . S
C463 C436 1.389 . S
C464 C439 1.395 . S
C464 C441 1.391 . S
H465 C425 0.951 . S
H466 C426 0.950 . S
H467 C432 0.949 . S
H468 C433 0.950 . S
H469 C437 0.951 . S
H470 C438 0.950 . S
H471 C442 0.949 . S
H472 C443 0.950 . S
H473 C447 0.950 . S
H474 C449 0.950 . S
H475 C452 0.950 . S
H476 C454 0.950 . S
C477 C478 1.443 . S
C477 N481 1.376 . S
C477 C515 1.389 . S
C478 C477 1.443 . S
C478 C479 1.340 . S
C478 H518 0.951 . S
C479 C478 1.340 . S
C479 C480 1.439 . S
C479 H519 0.950 . S
C480 C479 1.439 . S
C480 N481 1.374 . S
C480 C514 1.395 . S
N481 C477 1.376 . S
N481 C480 1.374 . S
N481 Co482 2.008 1_455 S
Co482 N481 2.008 1_655 S
Co482 N483 1.995 . S
Co482 N488 2.008 . S
Co482 N493 1.995 . S
Co482 N498 2.282 . S
Co482 N504 2.282 1_655 S
N483 Co482 1.995 . S
N483 C484 1.376 1_655 S
N483 C487 1.383 . S
C484 N483 1.376 1_455 S
C484 C485 1.446 . S
C484 C514 1.391 . S
C485 C484 1.446 . S
C485 C486 1.339 1_455 S
C485 H520 0.949 . S
C486 C485 1.339 1_655 S
C486 C487 1.439 . S
C486 H521 0.950 . S
C487 N483 1.383 . S
C487 C486 1.439 . S
C487 C516 1.392 . S
N488 Co482 2.008 . S
N488 C489 1.376 . S
N488 C492 1.374 . S
C489 N488 1.376 . S
C489 C490 1.443 . S
C489 C516 1.389 . S
C490 C489 1.443 . S
C490 C491 1.340 . S
C490 H522 0.951 . S
C491 C490 1.340 . S
C491 C492 1.439 . S
C491 H523 0.950 . S
C492 N488 1.374 . S
C492 C491 1.439 . S
C492 C517 1.395 . S
N493 Co482 1.995 . S
N493 C494 1.376 . S
N493 C497 1.383 . S
C494 N493 1.376 . S
C494 C495 1.446 . S
C494 C517 1.391 . S
C495 C494 1.446 . S
C495 C496 1.339 . S
C495 H524 0.949 . S
C496 C495 1.339 . S
C496 C497 1.439 . S
C496 H525 0.950 . S
C497 N493 1.383 . S
C497 C496 1.439 . S
C497 C515 1.392 1_655 S
N498 Co482 2.282 . S
N498 C501 1.332 . S
N498 C503 1.332 . S
C499 C500 1.386 . S
C499 C502 1.388 . S
C500 C499 1.386 . S
C500 C501 1.382 . S
C500 H526 0.950 . S
C501 N498 1.332 . S
C501 C500 1.382 . S
C501 H512 0.952 . S
C502 C499 1.388 . S
C502 C503 1.382 . S
C502 H527 0.950 . S
C503 N498 1.332 . S
C503 C502 1.382 . S
C503 H513 0.948 . S
N504 Co482 2.282 1_455 S
N504 C508 1.332 . S
N504 C509 1.332 . S
C505 C506 1.388 . S
C505 C509 1.382 . S
C505 H528 0.950 . S
C506 C505 1.388 . S
C506 C507 1.386 . S
C507 C506 1.386 . S
C507 C508 1.382 . S
C507 H529 0.950 . S
C508 N504 1.332 . S
C508 C507 1.382 . S
C508 H510 0.952 . S
C509 N504 1.332 . S
C509 C505 1.382 . S
C509 H511 0.948 1_455 S
H510 C508 0.952 . S
H511 C509 0.948 1_655 S
H512 C501 0.952 . S
H513 C503 0.948 . S
C514 C480 1.395 . S
C514 C484 1.391 . S
C515 C477 1.389 . S
C515 C497 1.392 1_455 S
C516 C487 1.392 . S
C516 C489 1.389 . S
C517 C492 1.395 . S
C517 C494 1.391 . S
H518 C478 0.951 . S
H519 C479 0.950 . S
H520 C485 0.949 . S
H521 C486 0.950 . S
H522 C490 0.951 . S
H523 C491 0.950 . S
H524 C495 0.949 . S
H525 C496 0.950 . S
H526 C500 0.950 . S
H527 C502 0.950 . S
H528 C505 0.950 . S
H529 C507 0.950 . S
C530 C531 1.443 . S
C530 N534 1.376 . S
C530 C568 1.389 . S
C531 C530 1.443 . S
C531 C532 1.340 . S
C531 H571 0.951 . S
C532 C531 1.340 . S
C532 C533 1.439 . S
C532 H572 0.950 . S
C533 C532 1.439 . S
C533 N534 1.374 . S
C533 C567 1.395 . S
N534 C530 1.376 . S
N534 C533 1.374 . S
N534 Co535 2.008 . S
Co535 N534 2.008 . S
Co535 N536 1.995 . S
Co535 N541 2.008 . S
Co535 N546 1.995 . S
Co535 N551 2.282 . S
Co535 N557 2.282 . S
N536 Co535 1.995 . S
N536 C537 1.376 . S
N536 C540 1.383 . S
C537 N536 1.376 . S
C537 C538 1.446 . S
C537 C567 1.391 . S
C538 C537 1.446 . S
C538 C539 1.339 . S
C538 H573 0.949 . S
C539 C538 1.339 . S
C539 C540 1.439 . S
C539 H574 0.950 . S
C540 N536 1.383 . S
C540 C539 1.439 . S
C540 C569 1.392 . S
N541 Co535 2.008 . S
N541 C542 1.376 . S
N541 C545 1.374 . S
C542 N541 1.376 . S
C542 C543 1.443 . S
C542 C569 1.389 . S
C543 C542 1.443 . S
C543 C544 1.340 . S
C543 H575 0.951 . S
C544 C543 1.340 . S
C544 C545 1.439 . S
C544 H576 0.950 . S
C545 N541 1.374 . S
C545 C544 1.439 . S
C545 C570 1.395 . S
N546 Co535 1.995 . S
N546 C547 1.376 . S
N546 C550 1.383 . S
C547 N546 1.376 . S
C547 C548 1.446 . S
C547 C570 1.391 . S
C548 C547 1.446 . S
C548 C549 1.339 . S
C548 H577 0.949 . S
C549 C548 1.339 . S
C549 C550 1.439 . S
C549 H578 0.950 . S
C550 N546 1.383 . S
C550 C549 1.439 . S
C550 C568 1.392 . S
N551 Co535 2.282 . S
N551 C554 1.332 . S
N551 C556 1.332 . S
C552 C553 1.386 . S
C552 C555 1.388 . S
C553 C552 1.386 . S
C553 C554 1.382 . S
C553 H579 0.950 . S
C554 N551 1.332 . S
C554 C553 1.382 . S
C554 H565 0.952 . S
C555 C552 1.388 . S
C555 C556 1.382 . S
C555 H580 0.950 . S
C556 N551 1.332 . S
C556 C555 1.382 . S
C556 H566 0.948 . S
N557 Co535 2.282 . S
N557 C561 1.332 . S
N557 C562 1.332 . S
C558 C559 1.388 . S
C558 C562 1.382 . S
C558 H581 0.950 . S
C559 C558 1.388 . S
C559 C560 1.386 . S
C560 C559 1.386 . S
C560 C561 1.382 . S
C560 H582 0.950 . S
C561 N557 1.332 . S
C561 C560 1.382 . S
C561 H563 0.952 . S
C562 N557 1.332 . S
C562 C558 1.382 . S
C562 H564 0.948 . S
H563 C561 0.952 . S
H564 C562 0.948 . S
H565 C554 0.952 . S
H566 C556 0.948 . S
C567 C533 1.395 . S
C567 C537 1.391 . S
C568 C530 1.389 . S
C568 C550 1.392 . S
C569 C540 1.392 . S
C569 C542 1.389 . S
C570 C545 1.395 . S
C570 C547 1.391 . S
H571 C531 0.951 . S
H572 C532 0.950 . S
H573 C538 0.949 . S
H574 C539 0.950 . S
H575 C543 0.951 . S
H576 C544 0.950 . S
H577 C548 0.949 . S
H578 C549 0.950 . S
H579 C553 0.950 . S
H580 C555 0.950 . S
H581 C558 0.950 . S
H582 C560 0.950 . S
C583 C584 1.443 . S
C583 N587 1.376 . S
C583 C621 1.389 . S
C584 C583 1.443 . S
C584 C585 1.340 . S
C584 H624 0.951 . S
C585 C584 1.340 . S
C585 C586 1.439 . S
C585 H625 0.950 . S
C586 C585 1.439 . S
C586 N587 1.374 . S
C586 C620 1.395 . S
N587 C583 1.376 . S
N587 C586 1.374 . S
N587 Co588 2.008 1_455 S
Co588 N587 2.008 1_655 S
Co588 N589 1.995 . S
Co588 N594 2.008 . S
Co588 N599 1.995 . S
Co588 N604 2.282 . S
Co588 N610 2.282 1_655 S
N589 Co588 1.995 . S
N589 C590 1.376 1_655 S
N589 C593 1.383 . S
C590 N589 1.376 1_455 S
C590 C591 1.446 . S
C590 C620 1.391 . S
C591 C590 1.446 . S
C591 C592 1.339 1_455 S
C591 H626 0.949 . S
C592 C591 1.339 1_655 S
C592 C593 1.439 . S
C592 H627 0.950 . S
C593 N589 1.383 . S
C593 C592 1.439 . S
C593 C622 1.392 . S
N594 Co588 2.008 . S
N594 C595 1.376 . S
N594 C598 1.374 . S
C595 N594 1.376 . S
C595 C596 1.443 . S
C595 C622 1.389 . S
C596 C595 1.443 . S
C596 C597 1.340 . S
C596 H628 0.951 . S
C597 C596 1.340 . S
C597 C598 1.439 . S
C597 H629 0.950 . S
C598 N594 1.374 . S
C598 C597 1.439 . S
C598 C623 1.395 . S
N599 Co588 1.995 . S
N599 C600 1.376 . S
N599 C603 1.383 . S
C600 N599 1.376 . S
C600 C601 1.446 . S
C600 C623 1.391 . S
C601 C600 1.446 . S
C601 C602 1.339 . S
C601 H630 0.949 . S
C602 C601 1.339 . S
C602 C603 1.439 . S
C602 H631 0.950 . S
C603 N599 1.383 . S
C603 C602 1.439 . S
C603 C621 1.392 1_655 S
N604 Co588 2.282 . S
N604 C607 1.332 . S
N604 C609 1.332 . S
C605 C606 1.386 . S
C605 C608 1.388 . S
C606 C605 1.386 . S
C606 C607 1.382 . S
C606 H632 0.950 . S
C607 N604 1.332 . S
C607 C606 1.382 . S
C607 H618 0.952 . S
C608 C605 1.388 . S
C608 C609 1.382 . S
C608 H633 0.950 . S
C609 N604 1.332 . S
C609 C608 1.382 . S
C609 H619 0.948 . S
N610 Co588 2.282 1_455 S
N610 C614 1.332 . S
N610 C615 1.332 . S
C611 C612 1.388 . S
C611 C615 1.382 . S
C611 H634 0.950 . S
C612 C611 1.388 . S
C612 C613 1.386 . S
C613 C612 1.386 . S
C613 C614 1.382 . S
C613 H635 0.950 . S
C614 N610 1.332 . S
C614 C613 1.382 . S
C614 H616 0.952 . S
C615 N610 1.332 . S
C615 C611 1.382 . S
C615 H617 0.948 1_455 S
H616 C614 0.952 . S
H617 C615 0.948 1_655 S
H618 C607 0.952 . S
H619 C609 0.948 . S
C620 C586 1.395 . S
C620 C590 1.391 . S
C621 C583 1.389 . S
C621 C603 1.392 1_455 S
C622 C593 1.392 . S
C622 C595 1.389 . S
C623 C598 1.395 . S
C623 C600 1.391 . S
H624 C584 0.951 . S
H625 C585 0.950 . S
H626 C591 0.949 . S
H627 C592 0.950 . S
H628 C596 0.951 . S
H629 C597 0.950 . S
H630 C601 0.949 . S
H631 C602 0.950 . S
H632 C606 0.950 . S
H633 C608 0.950 . S
H634 C611 0.950 . S
H635 C613 0.950 . S
C636 C637 1.443 . S
C636 N640 1.376 . S
C636 C674 1.389 . S
C637 C636 1.443 . S
C637 C638 1.340 . S
C637 H677 0.951 . S
C638 C637 1.340 . S
C638 C639 1.439 . S
C638 H678 0.950 . S
C639 C638 1.439 . S
C639 N640 1.374 . S
C639 C673 1.395 . S
N640 C636 1.376 . S
N640 C639 1.374 . S
N640 Co641 2.008 . S
Co641 N640 2.008 . S
Co641 N642 1.995 . S
Co641 N647 2.008 . S
Co641 N652 1.995 . S
Co641 N657 2.282 . S
Co641 N663 2.282 . S
N642 Co641 1.995 . S
N642 C643 1.376 . S
N642 C646 1.383 . S
C643 N642 1.376 . S
C643 C644 1.446 . S
C643 C673 1.391 . S
C644 C643 1.446 . S
C644 C645 1.339 . S
C644 H679 0.949 . S
C645 C644 1.339 . S
C645 C646 1.439 . S
C645 H680 0.950 . S
C646 N642 1.383 . S
C646 C645 1.439 . S
C646 C675 1.392 . S
N647 Co641 2.008 . S
N647 C648 1.376 . S
N647 C651 1.374 . S
C648 N647 1.376 . S
C648 C649 1.443 . S
C648 C675 1.389 . S
C649 C648 1.443 . S
C649 C650 1.340 . S
C649 H681 0.951 . S
C650 C649 1.340 . S
C650 C651 1.439 . S
C650 H682 0.950 . S
C651 N647 1.374 . S
C651 C650 1.439 . S
C651 C676 1.395 . S
N652 Co641 1.995 . S
N652 C653 1.376 . S
N652 C656 1.383 . S
C653 N652 1.376 . S
C653 C654 1.446 . S
C653 C676 1.391 . S
C654 C653 1.446 . S
C654 C655 1.339 . S
C654 H683 0.949 . S
C655 C654 1.339 . S
C655 C656 1.439 . S
C655 H684 0.950 . S
C656 N652 1.383 . S
C656 C655 1.439 . S
C656 C674 1.392 . S
N657 Co641 2.282 . S
N657 C660 1.332 . S
N657 C662 1.332 . S
C658 C659 1.386 . S
C658 C661 1.388 . S
C659 C658 1.386 . S
C659 C660 1.382 . S
C659 H685 0.950 . S
C660 N657 1.332 . S
C660 C659 1.382 . S
C660 H671 0.952 . S
C661 C658 1.388 . S
C661 C662 1.382 . S
C661 H686 0.950 . S
C662 N657 1.332 . S
C662 C661 1.382 . S
C662 H672 0.948 . S
N663 Co641 2.282 . S
N663 C667 1.332 . S
N663 C668 1.332 . S
C664 C665 1.388 . S
C664 C668 1.382 . S
C664 H687 0.950 . S
C665 C664 1.388 . S
C665 C666 1.386 . S
C666 C665 1.386 . S
C666 C667 1.382 . S
C666 H688 0.950 . S
C667 N663 1.332 . S
C667 C666 1.382 . S
C667 H669 0.952 . S
C668 N663 1.332 . S
C668 C664 1.382 . S
C668 H670 0.948 . S
H669 C667 0.952 . S
H670 C668 0.948 . S
H671 C660 0.952 . S
H672 C662 0.948 . S
C673 C639 1.395 . S
C673 C643 1.391 . S
C674 C636 1.389 . S
C674 C656 1.392 . S
C675 C646 1.392 . S
C675 C648 1.389 . S
C676 C651 1.395 . S
C676 C653 1.391 . S
H677 C637 0.951 . S
H678 C638 0.950 . S
H679 C644 0.949 . S
H680 C645 0.950 . S
H681 C649 0.951 . S
H682 C650 0.950 . S
H683 C654 0.949 . S
H684 C655 0.950 . S
H685 C659 0.950 . S
H686 C661 0.950 . S
H687 C664 0.950 . S
H688 C666 0.950 . S
C689 C690 1.443 . S
C689 N693 1.376 . S
C689 C727 1.389 1_455 S
C690 C689 1.443 . S
C690 C691 1.340 . S
C690 H730 0.951 . S
C691 C690 1.340 . S
C691 C692 1.439 . S
C691 H731 0.950 . S
C692 C691 1.439 . S
C692 N693 1.374 . S
C692 C726 1.395 . S
N693 C689 1.376 . S
N693 C692 1.374 . S
N693 Co694 2.008 . S
Co694 N693 2.008 . S
Co694 N695 1.995 . S
Co694 N700 2.008 . S
Co694 N705 1.995 1_455 S
Co694 N710 2.282 . S
Co694 N716 2.282 1_455 S
N695 Co694 1.995 . S
N695 C696 1.376 . S
N695 C699 1.383 . S
C696 N695 1.376 . S
C696 C697 1.446 . S
C696 C726 1.391 . S
C697 C696 1.446 . S
C697 C698 1.339 . S
C697 H732 0.949 . S
C698 C697 1.339 . S
C698 C699 1.439 . S
C698 H733 0.950 . S
C699 N695 1.383 . S
C699 C698 1.439 . S
C699 C728 1.392 . S
N700 Co694 2.008 . S
N700 C701 1.376 . S
N700 C704 1.374 1_455 S
C701 N700 1.376 . S
C701 C702 1.443 . S
C701 C728 1.389 . S
C702 C701 1.443 . S
C702 C703 1.340 1_455 S
C702 H734 0.951 . S
C703 C702 1.340 1_655 S
C703 C704 1.439 . S
C703 H735 0.950 . S
C704 N700 1.374 1_655 S
C704 C703 1.439 . S
C704 C729 1.395 . S
N705 Co694 1.995 1_655 S
N705 C706 1.376 . S
N705 C709 1.383 . S
C706 N705 1.376 . S
C706 C707 1.446 . S
C706 C729 1.391 . S
C707 C706 1.446 . S
C707 C708 1.339 . S
C707 H736 0.949 . S
C708 C707 1.339 . S
C708 C709 1.439 . S
C708 H737 0.950 . S
C709 N705 1.383 . S
C709 C708 1.439 . S
C709 C727 1.392 . S
N710 Co694 2.282 . S
N710 C713 1.332 . S
N710 C715 1.332 . S
C711 C712 1.386 . S
C711 C714 1.388 . S
C712 C711 1.386 . S
C712 C713 1.382 . S
C712 H738 0.950 . S
C713 N710 1.332 . S
C713 C712 1.382 . S
C713 H724 0.952 . S
C714 C711 1.388 . S
C714 C715 1.382 . S
C714 H739 0.950 . S
C715 N710 1.332 . S
C715 C714 1.382 . S
C715 H725 0.948 . S
N716 Co694 2.282 1_655 S
N716 C720 1.340 . S
N716 C721 1.332 . S
C717 C718 1.388 . S
C717 C721 1.382 . S
C717 H740 0.950 . S
C718 C717 1.388 . S
C718 C719 1.386 . S
C719 C718 1.386 . S
C719 C720 1.393 . S
C719 H741 0.950 . S
C720 N716 1.340 . S
C720 C719 1.393 . S
C720 H722 0.931 1_655 S
C721 N716 1.332 . S
C721 C717 1.382 . S
C721 H723 0.948 . S
H722 C720 0.931 1_455 S
H723 C721 0.948 . S
H724 C713 0.952 . S
H725 C715 0.948 . S
C726 C692 1.395 . S
C726 C696 1.391 . S
C727 C689 1.389 1_655 S
C727 C709 1.392 . S
C728 C699 1.392 . S
C728 C701 1.389 . S
C729 C704 1.395 . S
C729 C706 1.391 . S
H730 C690 0.951 . S
H731 C691 0.950 . S
H732 C697 0.949 . S
H733 C698 0.950 . S
H734 C702 0.951 . S
H735 C703 0.950 . S
H736 C707 0.949 . S
H737 C708 0.950 . S
H738 C712 0.950 . S
H739 C714 0.950 . S
H740 C717 0.950 . S
H741 C719 0.950 . S
C742 C743 1.443 . S
C742 N746 1.376 . S
C742 C780 1.389 . S
C743 C742 1.443 . S
C743 C744 1.340 . S
C743 H783 0.951 . S
C744 C743 1.340 . S
C744 C745 1.439 . S
C744 H784 0.950 . S
C745 C744 1.439 . S
C745 N746 1.374 . S
C745 C779 1.395 . S
N746 C742 1.376 . S
N746 C745 1.374 . S
N746 Co747 2.008 . S
Co747 N746 2.008 . S
Co747 N748 1.995 . S
Co747 N753 2.008 . S
Co747 N758 1.995 . S
Co747 N763 2.282 . S
Co747 N769 2.282 . S
N748 Co747 1.995 . S
N748 C749 1.376 . S
N748 C752 1.383 . S
C749 N748 1.376 . S
C749 C750 1.446 . S
C749 C779 1.391 . S
C750 C749 1.446 . S
C750 C751 1.339 . S
C750 H785 0.949 . S
C751 C750 1.339 . S
C751 C752 1.439 . S
C751 H786 0.950 . S
C752 N748 1.383 . S
C752 C751 1.439 . S
C752 C781 1.392 . S
N753 Co747 2.008 . S
N753 C754 1.376 . S
N753 C757 1.374 . S
C754 N753 1.376 . S
C754 C755 1.443 . S
C754 C781 1.389 . S
C755 C754 1.443 . S
C755 C756 1.340 . S
C755 H787 0.951 . S
C756 C755 1.340 . S
C756 C757 1.439 . S
C756 H788 0.950 . S
C757 N753 1.374 . S
C757 C756 1.439 . S
C757 C782 1.395 . S
N758 Co747 1.995 . S
N758 C759 1.376 . S
N758 C762 1.383 . S
C759 N758 1.376 . S
C759 C760 1.446 . S
C759 C782 1.391 . S
C760 C759 1.446 . S
C760 C761 1.339 . S
C760 H789 0.949 . S
C761 C760 1.339 . S
C761 C762 1.439 . S
C761 H790 0.950 . S
C762 N758 1.383 . S
C762 C761 1.439 . S
C762 C780 1.392 . S
N763 Co747 2.282 . S
N763 C766 1.332 . S
N763 C768 1.332 . S
C764 C765 1.386 . S
C764 C767 1.388 . S
C765 C764 1.386 . S
C765 C766 1.382 . S
C765 H791 0.950 . S
C766 N763 1.332 . S
C766 C765 1.382 . S
C766 H777 0.952 . S
C767 C764 1.388 . S
C767 C768 1.382 . S
C767 H792 0.950 . S
C768 N763 1.332 . S
C768 C767 1.382 . S
C768 H778 0.948 . S
N769 Co747 2.282 . S
N769 C773 1.332 . S
N769 C774 1.332 . S
C770 C771 1.388 . S
C770 C774 1.382 . S
C770 H793 0.950 . S
C771 C770 1.388 . S
C771 C772 1.386 . S
C772 C771 1.386 . S
C772 C773 1.382 . S
C772 H794 0.950 . S
C773 N769 1.332 . S
C773 C772 1.382 . S
C773 H775 0.952 . S
C774 N769 1.332 . S
C774 C770 1.382 . S
C774 H776 0.948 . S
H775 C773 0.952 . S
H776 C774 0.948 . S
H777 C766 0.952 . S
H778 C768 0.948 . S
C779 C745 1.395 . S
C779 C749 1.391 . S
C780 C742 1.389 . S
C780 C762 1.392 . S
C781 C752 1.392 . S
C781 C754 1.389 . S
C782 C757 1.395 . S
C782 C759 1.391 . S
H783 C743 0.951 . S
H784 C744 0.950 . S
H785 C750 0.949 . S
H786 C751 0.950 . S
H787 C755 0.951 . S
H788 C756 0.950 . S
H789 C760 0.949 . S
H790 C761 0.950 . S
H791 C765 0.950 . S
H792 C767 0.950 . S
H793 C770 0.950 . S
H794 C772 0.950 . S
C795 C796 1.443 . S
C795 N799 1.376 . S
C795 C833 1.389 1_455 S
C796 C795 1.443 . S
C796 C797 1.340 . S
C796 H836 0.951 . S
C797 C796 1.340 . S
C797 C798 1.439 . S
C797 H837 0.950 . S
C798 C797 1.439 . S
C798 N799 1.374 . S
C798 C832 1.395 . S
N799 C795 1.376 . S
N799 C798 1.374 . S
N799 Co800 2.008 . S
Co800 N799 2.008 . S
Co800 N801 1.995 . S
Co800 N806 2.008 . S
Co800 N811 1.995 1_455 S
Co800 N816 2.282 . S
Co800 N822 2.282 1_455 S
N801 Co800 1.995 . S
N801 C802 1.376 . S
N801 C805 1.383 . S
C802 N801 1.376 . S
C802 C803 1.446 . S
C802 C832 1.391 . S
C803 C802 1.446 . S
C803 C804 1.339 . S
C803 H838 0.949 . S
C804 C803 1.339 . S
C804 C805 1.439 . S
C804 H839 0.950 . S
C805 N801 1.383 . S
C805 C804 1.439 . S
C805 C834 1.392 . S
N806 Co800 2.008 . S
N806 C807 1.376 . S
N806 C810 1.374 1_455 S
C807 N806 1.376 . S
C807 C808 1.443 . S
C807 C834 1.389 . S
C808 C807 1.443 . S
C808 C809 1.340 1_455 S
C808 H840 0.951 . S
C809 C808 1.340 1_655 S
C809 C810 1.439 . S
C809 H841 0.950 . S
C810 N806 1.374 1_655 S
C810 C809 1.439 . S
C810 C835 1.395 . S
N811 Co800 1.995 1_655 S
N811 C812 1.376 . S
N811 C815 1.383 . S
C812 N811 1.376 . S
C812 C813 1.446 . S
C812 C835 1.391 . S
C813 C812 1.446 . S
C813 C814 1.339 . S
C813 H842 0.949 . S
C814 C813 1.339 . S
C814 C815 1.439 . S
C814 H843 0.950 . S
C815 N811 1.383 . S
C815 C814 1.439 . S
C815 C833 1.392 . S
N816 Co800 2.282 . S
N816 C819 1.332 . S
N816 C821 1.332 . S
C817 C818 1.386 . S
C817 C820 1.388 . S
C818 C817 1.386 . S
C818 C819 1.382 . S
C818 H844 0.950 . S
C819 N816 1.332 . S
C819 C818 1.382 . S
C819 H830 0.952 . S
C820 C817 1.388 . S
C820 C821 1.382 . S
C820 H845 0.950 . S
C821 N816 1.332 . S
C821 C820 1.382 . S
C821 H831 0.948 . S
N822 Co800 2.282 1_655 S
N822 C826 1.339 . S
N822 C827 1.332 . S
C823 C824 1.388 . S
C823 C827 1.382 . S
C823 H846 0.950 . S
C824 C823 1.388 . S
C824 C825 1.386 . S
C825 C824 1.386 . S
C825 C826 1.392 . S
C825 H847 0.950 . S
C826 N822 1.339 . S
C826 C825 1.392 . S
C826 H828 0.933 1_655 S
C827 N822 1.332 . S
C827 C823 1.382 . S
C827 H829 0.948 . S
H828 C826 0.933 1_455 S
H829 C827 0.948 . S
H830 C819 0.952 . S
H831 C821 0.948 . S
C832 C798 1.395 . S
C832 C802 1.391 . S
C833 C795 1.389 1_655 S
C833 C815 1.392 . S
C834 C805 1.392 . S
C834 C807 1.389 . S
C835 C810 1.395 . S
C835 C812 1.391 . S
H836 C796 0.951 . S
H837 C797 0.950 . S
H838 C803 0.949 . S
H839 C804 0.950 . S
H840 C808 0.951 . S
H841 C809 0.950 . S
H842 C813 0.949 . S
H843 C814 0.950 . S
H844 C818 0.950 . S
H845 C820 0.950 . S
H846 C823 0.950 . S
H847 C825 0.950 . S
C848 C849 1.443 . S
C848 N852 1.376 . S
C848 C886 1.389 . S
C849 C848 1.443 . S
C849 C850 1.340 . S
C849 H889 0.951 . S
C850 C849 1.340 . S
C850 C851 1.439 . S
C850 H890 0.950 . S
C851 C850 1.439 . S
C851 N852 1.374 . S
C851 C885 1.395 . S
N852 C848 1.376 . S
N852 C851 1.374 . S
N852 Co853 2.008 . S
Co853 N852 2.008 . S
Co853 N854 1.995 . S
Co853 N859 2.008 . S
Co853 N864 1.995 . S
Co853 N869 2.282 . S
Co853 N875 2.282 . S
N854 Co853 1.995 . S
N854 C855 1.376 . S
N854 C858 1.383 . S
C855 N854 1.376 . S
C855 C856 1.446 . S
C855 C885 1.391 . S
C856 C855 1.446 . S
C856 C857 1.339 . S
C856 H891 0.949 . S
C857 C856 1.339 . S
C857 C858 1.439 . S
C857 H892 0.950 . S
C858 N854 1.383 . S
C858 C857 1.439 . S
C858 C887 1.392 . S
N859 Co853 2.008 . S
N859 C860 1.376 . S
N859 C863 1.374 . S
C860 N859 1.376 . S
C860 C861 1.443 . S
C860 C887 1.389 . S
C861 C860 1.443 . S
C861 C862 1.340 . S
C861 H893 0.951 . S
C862 C861 1.340 . S
C862 C863 1.439 . S
C862 H894 0.950 . S
C863 N859 1.374 . S
C863 C862 1.439 . S
C863 C888 1.395 . S
N864 Co853 1.995 . S
N864 C865 1.376 . S
N864 C868 1.383 . S
C865 N864 1.376 . S
C865 C866 1.446 . S
C865 C888 1.391 . S
C866 C865 1.446 . S
C866 C867 1.339 . S
C866 H895 0.949 . S
C867 C866 1.339 . S
C867 C868 1.439 . S
C867 H896 0.950 . S
C868 N864 1.383 . S
C868 C867 1.439 . S
C868 C886 1.392 . S
N869 Co853 2.282 . S
N869 C872 1.332 . S
N869 C874 1.332 . S
C870 C871 1.386 . S
C870 C873 1.388 . S
C871 C870 1.386 . S
C871 C872 1.382 . S
C871 H897 0.950 . S
C872 N869 1.332 . S
C872 C871 1.382 . S
C872 H883 0.952 . S
C873 C870 1.388 . S
C873 C874 1.382 . S
C873 H898 0.950 . S
C874 N869 1.332 . S
C874 C873 1.382 . S
C874 H884 0.948 . S
N875 Co853 2.282 . S
N875 C879 1.332 . S
N875 C880 1.332 . S
C876 C877 1.388 . S
C876 C880 1.382 . S
C876 H899 0.950 . S
C877 C876 1.388 . S
C877 C878 1.386 . S
C878 C877 1.386 . S
C878 C879 1.382 . S
C878 H900 0.950 . S
C879 N875 1.332 . S
C879 C878 1.382 . S
C879 H881 0.952 . S
C880 N875 1.332 . S
C880 C876 1.382 . S
C880 H882 0.948 . S
H881 C879 0.952 . S
H882 C880 0.948 . S
H883 C872 0.952 . S
H884 C874 0.948 . S
C885 C851 1.395 . S
C885 C855 1.391 . S
C886 C848 1.389 . S
C886 C868 1.392 . S
C887 C858 1.392 . S
C887 C860 1.389 . S
C888 C863 1.395 . S
C888 C865 1.391 . S
H889 C849 0.951 . S
H890 C850 0.950 . S
H891 C856 0.949 . S
H892 C857 0.950 . S
H893 C861 0.951 . S
H894 C862 0.950 . S
H895 C866 0.949 . S
H896 C867 0.950 . S
H897 C871 0.950 . S
H898 C873 0.950 . S
H899 C876 0.950 . S
H900 C878 0.950 . S
C901 C902 1.443 . S
C901 N905 1.376 . S
C901 C939 1.389 . S
C902 C901 1.443 . S
C902 C903 1.340 . S
C902 H942 0.951 . S
C903 C902 1.340 . S
C903 C904 1.439 . S
C903 H943 0.950 . S
C904 C903 1.439 . S
C904 N905 1.374 . S
C904 C938 1.395 . S
N905 C901 1.376 . S
N905 C904 1.374 . S
N905 Co906 2.008 . S
Co906 N905 2.008 . S
Co906 N907 1.995 . S
Co906 N912 2.008 . S
Co906 N917 1.995 . S
Co906 N922 2.282 . S
Co906 N928 2.282 . S
N907 Co906 1.995 . S
N907 C908 1.376 . S
N907 C911 1.383 . S
C908 N907 1.376 . S
C908 C909 1.446 . S
C908 C938 1.391 . S
C909 C908 1.446 . S
C909 C910 1.339 . S
C909 H944 0.949 . S
C910 C909 1.339 . S
C910 C911 1.439 . S
C910 H945 0.950 . S
C911 N907 1.383 . S
C911 C910 1.439 . S
C911 C940 1.392 . S
N912 Co906 2.008 . S
N912 C913 1.376 . S
N912 C916 1.374 . S
C913 N912 1.376 . S
C913 C914 1.443 . S
C913 C940 1.389 . S
C914 C913 1.443 . S
C914 C915 1.340 . S
C914 H946 0.951 . S
C915 C914 1.340 . S
C915 C916 1.439 . S
C915 H947 0.950 . S
C916 N912 1.374 . S
C916 C915 1.439 . S
C916 C941 1.395 . S
N917 Co906 1.995 . S
N917 C918 1.376 . S
N917 C921 1.383 . S
C918 N917 1.376 . S
C918 C919 1.446 . S
C918 C941 1.391 . S
C919 C918 1.446 . S
C919 C920 1.339 . S
C919 H948 0.949 . S
C920 C919 1.339 . S
C920 C921 1.439 . S
C920 H949 0.950 . S
C921 N917 1.383 . S
C921 C920 1.439 . S
C921 C939 1.392 . S
N922 Co906 2.282 . S
N922 C925 1.332 . S
N922 C927 1.332 . S
C923 C924 1.386 . S
C923 C926 1.388 . S
C924 C923 1.386 . S
C924 C925 1.382 . S
C924 H950 0.950 . S
C925 N922 1.332 . S
C925 C924 1.382 . S
C925 H936 0.952 . S
C926 C923 1.388 . S
C926 C927 1.382 . S
C926 H951 0.950 . S
C927 N922 1.332 . S
C927 C926 1.382 . S
C927 H937 0.948 . S
N928 Co906 2.282 . S
N928 C932 1.332 . S
N928 C933 1.332 . S
C929 C930 1.388 . S
C929 C933 1.382 . S
C929 H952 0.950 . S
C930 C929 1.388 . S
C930 C931 1.386 . S
C931 C930 1.386 . S
C931 C932 1.382 . S
C931 H953 0.950 . S
C932 N928 1.332 . S
C932 C931 1.382 . S
C932 H934 0.952 . S
C933 N928 1.332 . S
C933 C929 1.382 . S
C933 H935 0.948 . S
H934 C932 0.952 . S
H935 C933 0.948 . S
H936 C925 0.952 . S
H937 C927 0.948 . S
C938 C904 1.395 . S
C938 C908 1.391 . S
C939 C901 1.389 . S
C939 C921 1.392 . S
C940 C911 1.392 . S
C940 C913 1.389 . S
C941 C916 1.395 . S
C941 C918 1.391 . S
H942 C902 0.951 . S
H943 C903 0.950 . S
H944 C909 0.949 . S
H945 C910 0.950 . S
H946 C914 0.951 . S
H947 C915 0.950 . S
H948 C919 0.949 . S
H949 C920 0.950 . S
H950 C924 0.950 . S
H951 C926 0.950 . S
H952 C929 0.950 . S
H953 C931 0.950 . S
C954 C955 1.443 . S
C954 N958 1.376 . S
C954 C992 1.389 . S
C955 C954 1.443 . S
C955 C956 1.340 . S
C955 H995 0.951 . S
C956 C955 1.340 . S
C956 C957 1.439 . S
C956 H996 0.950 . S
C957 C956 1.439 . S
C957 N958 1.374 . S
C957 C991 1.395 . S
N958 C954 1.376 . S
N958 C957 1.374 . S
N958 Co959 2.008 . S
Co959 N958 2.008 . S
Co959 N960 1.995 . S
Co959 N965 2.008 . S
Co959 N970 1.995 . S
Co959 N975 2.282 . S
Co959 N981 2.282 . S
N960 Co959 1.995 . S
N960 C961 1.376 . S
N960 C964 1.383 . S
C961 N960 1.376 . S
C961 C962 1.446 . S
C961 C991 1.391 . S
C962 C961 1.446 . S
C962 C963 1.339 . S
C962 H997 0.949 . S
C963 C962 1.339 . S
C963 C964 1.439 . S
C963 H998 0.950 . S
C964 N960 1.383 . S
C964 C963 1.439 . S
C964 C993 1.392 . S
N965 Co959 2.008 . S
N965 C966 1.376 . S
N965 C969 1.374 . S
C966 N965 1.376 . S
C966 C967 1.443 . S
C966 C993 1.389 . S
C967 C966 1.443 . S
C967 C968 1.340 . S
C967 H999 0.951 . S
C968 C967 1.340 . S
C968 C969 1.439 . S
C968 H1000 0.950 . S
C969 N965 1.374 . S
C969 C968 1.439 . S
C969 C994 1.395 . S
N970 Co959 1.995 . S
N970 C971 1.376 . S
N970 C974 1.383 . S
C971 N970 1.376 . S
C971 C972 1.446 . S
C971 C994 1.391 . S
C972 C971 1.446 . S
C972 C973 1.339 . S
C972 H1001 0.949 . S
C973 C972 1.339 . S
C973 C974 1.439 . S
C973 H1002 0.950 . S
C974 N970 1.383 . S
C974 C973 1.439 . S
C974 C992 1.392 . S
N975 Co959 2.282 . S
N975 C978 1.332 . S
N975 C980 1.332 . S
C976 C977 1.386 . S
C976 C979 1.388 . S
C977 C976 1.386 . S
C977 C978 1.382 . S
C977 H1003 0.950 . S
C978 N975 1.332 . S
C978 C977 1.382 . S
C978 H989 0.952 . S
C979 C976 1.388 . S
C979 C980 1.382 . S
C979 H1004 0.950 . S
C980 N975 1.332 . S
C980 C979 1.382 . S
C980 H990 0.948 . S
N981 Co959 2.282 . S
N981 C985 1.332 . S
N981 C986 1.332 . S
C982 C983 1.388 . S
C982 C986 1.382 . S
C982 H1005 0.950 . S
C983 C982 1.388 . S
C983 C984 1.386 . S
C984 C983 1.386 . S
C984 C985 1.382 . S
C984 H1006 0.950 . S
C985 N981 1.332 . S
C985 C984 1.382 . S
C985 H987 0.952 . S
C986 N981 1.332 . S
C986 C982 1.382 . S
C986 H988 0.948 . S
H987 C985 0.952 . S
H988 C986 0.948 . S
H989 C978 0.952 . S
H990 C980 0.948 . S
C991 C957 1.395 . S
C991 C961 1.391 . S
C992 C954 1.389 . S
C992 C974 1.392 . S
C993 C964 1.392 . S
C993 C966 1.389 . S
C994 C969 1.395 . S
C994 C971 1.391 . S
H995 C955 0.951 . S
H996 C956 0.950 . S
H997 C962 0.949 . S
H998 C963 0.950 . S
H999 C967 0.951 . S
H1000 C968 0.950 . S
H1001 C972 0.949 . S
H1002 C973 0.950 . S
H1003 C977 0.950 . S
H1004 C979 0.950 . S
H1005 C982 0.950 . S
H1006 C984 0.950 . S
C1007 C1008 1.443 . S
C1007 N1011 1.376 . S
C1007 C1045 1.389 . S
C1008 C1007 1.443 . S
C1008 C1009 1.340 . S
C1008 H1048 0.951 . S
C1009 C1008 1.340 . S
C1009 C1010 1.439 . S
C1009 H1049 0.950 . S
C1010 C1009 1.439 . S
C1010 N1011 1.374 . S
C1010 C1044 1.395 . S
N1011 C1007 1.376 . S
N1011 C1010 1.374 . S
N1011 Co1012 2.008 . S
Co1012 N1011 2.008 . S
Co1012 N1013 1.995 . S
Co1012 N1018 2.008 . S
Co1012 N1023 1.995 . S
Co1012 N1028 2.282 . S
Co1012 N1034 2.282 . S
N1013 Co1012 1.995 . S
N1013 C1014 1.376 . S
N1013 C1017 1.383 . S
C1014 N1013 1.376 . S
C1014 C1015 1.446 . S
C1014 C1044 1.391 . S
C1015 C1014 1.446 . S
C1015 C1016 1.339 . S
C1015 H1050 0.949 . S
C1016 C1015 1.339 . S
C1016 C1017 1.439 . S
C1016 H1051 0.950 . S
C1017 N1013 1.383 . S
C1017 C1016 1.439 . S
C1017 C1046 1.392 . S
N1018 Co1012 2.008 . S
N1018 C1019 1.376 . S
N1018 C1022 1.374 . S
C1019 N1018 1.376 . S
C1019 C1020 1.443 . S
C1019 C1046 1.389 . S
C1020 C1019 1.443 . S
C1020 C1021 1.340 . S
C1020 H1052 0.951 . S
C1021 C1020 1.340 . S
C1021 C1022 1.439 . S
C1021 H1053 0.950 . S
C1022 N1018 1.374 . S
C1022 C1021 1.439 . S
C1022 C1047 1.395 . S
N1023 Co1012 1.995 . S
N1023 C1024 1.376 . S
N1023 C1027 1.383 . S
C1024 N1023 1.376 . S
C1024 C1025 1.446 . S
C1024 C1047 1.391 . S
C1025 C1024 1.446 . S
C1025 C1026 1.339 . S
C1025 H1054 0.949 . S
C1026 C1025 1.339 . S
C1026 C1027 1.439 . S
C1026 H1055 0.950 . S
C1027 N1023 1.383 . S
C1027 C1026 1.439 . S
C1027 C1045 1.392 . S
N1028 Co1012 2.282 . S
N1028 C1031 1.332 . S
N1028 C1033 1.332 . S
C1029 C1030 1.386 . S
C1029 C1032 1.388 . S
C1030 C1029 1.386 . S
C1030 C1031 1.382 . S
C1030 H1056 0.950 . S
C1031 N1028 1.332 . S
C1031 C1030 1.382 . S
C1031 H1042 0.952 . S
C1032 C1029 1.388 . S
C1032 C1033 1.382 . S
C1032 H1057 0.950 . S
C1033 N1028 1.332 . S
C1033 C1032 1.382 . S
C1033 H1043 0.948 . S
N1034 Co1012 2.282 . S
N1034 C1038 1.332 . S
N1034 C1039 1.332 . S
C1035 C1036 1.388 . S
C1035 C1039 1.382 . S
C1035 H1058 0.950 . S
C1036 C1035 1.388 . S
C1036 C1037 1.386 . S
C1037 C1036 1.386 . S
C1037 C1038 1.382 . S
C1037 H1059 0.950 . S
C1038 N1034 1.332 . S
C1038 C1037 1.382 . S
C1038 H1040 0.952 . S
C1039 N1034 1.332 . S
C1039 C1035 1.382 . S
C1039 H1041 0.948 . S
H1040 C1038 0.952 . S
H1041 C1039 0.948 . S
H1042 C1031 0.952 . S
H1043 C1033 0.948 . S
C1044 C1010 1.395 . S
C1044 C1014 1.391 . S
C1045 C1007 1.389 . S
C1045 C1027 1.392 . S
C1046 C1017 1.392 . S
C1046 C1019 1.389 . S
C1047 C1022 1.395 . S
C1047 C1024 1.391 . S
H1048 C1008 0.951 . S
H1049 C1009 0.950 . S
H1050 C1015 0.949 . S
H1051 C1016 0.950 . S
H1052 C1020 0.951 . S
H1053 C1021 0.950 . S
H1054 C1025 0.949 . S
H1055 C1026 0.950 . S
H1056 C1030 0.950 . S
H1057 C1032 0.950 . S
H1058 C1035 0.950 . S
H1059 C1037 0.950 . S
C1060 C1061 1.443 . S
C1060 N1064 1.376 . S
C1060 C1098 1.389 . S
C1061 C1060 1.443 . S
C1061 C1062 1.340 . S
C1061 H1101 0.951 . S
C1062 C1061 1.340 . S
C1062 C1063 1.439 . S
C1062 H1102 0.950 . S
C1063 C1062 1.439 . S
C1063 N1064 1.374 . S
C1063 C1097 1.395 . S
N1064 C1060 1.376 . S
N1064 C1063 1.374 . S
N1064 Co1065 2.008 . S
Co1065 N1064 2.008 . S
Co1065 N1066 1.995 . S
Co1065 N1071 2.008 . S
Co1065 N1076 1.995 . S
Co1065 N1081 2.282 . S
Co1065 N1087 2.282 . S
N1066 Co1065 1.995 . S
N1066 C1067 1.376 . S
N1066 C1070 1.383 . S
C1067 N1066 1.376 . S
C1067 C1068 1.446 . S
C1067 C1097 1.391 . S
C1068 C1067 1.446 . S
C1068 C1069 1.339 . S
C1068 H1103 0.949 . S
C1069 C1068 1.339 . S
C1069 C1070 1.439 . S
C1069 H1104 0.950 . S
C1070 N1066 1.383 . S
C1070 C1069 1.439 . S
C1070 C1099 1.392 . S
N1071 Co1065 2.008 . S
N1071 C1072 1.376 . S
N1071 C1075 1.374 . S
C1072 N1071 1.376 . S
C1072 C1073 1.443 . S
C1072 C1099 1.389 . S
C1073 C1072 1.443 . S
C1073 C1074 1.340 . S
C1073 H1105 0.951 . S
C1074 C1073 1.340 . S
C1074 C1075 1.439 . S
C1074 H1106 0.950 . S
C1075 N1071 1.374 . S
C1075 C1074 1.439 . S
C1075 C1100 1.395 . S
N1076 Co1065 1.995 . S
N1076 C1077 1.376 . S
N1076 C1080 1.383 . S
C1077 N1076 1.376 . S
C1077 C1078 1.446 . S
C1077 C1100 1.391 . S
C1078 C1077 1.446 . S
C1078 C1079 1.339 . S
C1078 H1107 0.949 . S
C1079 C1078 1.339 . S
C1079 C1080 1.439 . S
C1079 H1108 0.950 . S
C1080 N1076 1.383 . S
C1080 C1079 1.439 . S
C1080 C1098 1.392 . S
N1081 Co1065 2.282 . S
N1081 C1084 1.332 . S
N1081 C1086 1.332 . S
C1082 C1083 1.386 . S
C1082 C1085 1.388 . S
C1083 C1082 1.386 . S
C1083 C1084 1.382 . S
C1083 H1109 0.950 . S
C1084 N1081 1.332 . S
C1084 C1083 1.382 . S
C1084 H1095 0.952 . S
C1085 C1082 1.388 . S
C1085 C1086 1.382 . S
C1085 H1110 0.950 . S
C1086 N1081 1.332 . S
C1086 C1085 1.382 . S
C1086 H1096 0.948 . S
N1087 Co1065 2.282 . S
N1087 C1091 1.332 . S
N1087 C1092 1.332 . S
C1088 C1089 1.388 . S
C1088 C1092 1.382 . S
C1088 H1111 0.950 . S
C1089 C1088 1.388 . S
C1089 C1090 1.386 . S
C1090 C1089 1.386 . S
C1090 C1091 1.382 . S
C1090 H1112 0.950 . S
C1091 N1087 1.332 . S
C1091 C1090 1.382 . S
C1091 H1093 0.952 . S
C1092 N1087 1.332 . S
C1092 C1088 1.382 . S
C1092 H1094 0.948 . S
H1093 C1091 0.952 . S
H1094 C1092 0.948 . S
H1095 C1084 0.952 . S
H1096 C1086 0.948 . S
C1097 C1063 1.395 . S
C1097 C1067 1.391 . S
C1098 C1060 1.389 . S
C1098 C1080 1.392 . S
C1099 C1070 1.392 . S
C1099 C1072 1.389 . S
C1100 C1075 1.395 . S
C1100 C1077 1.391 . S
H1101 C1061 0.951 . S
H1102 C1062 0.950 . S
H1103 C1068 0.949 . S
H1104 C1069 0.950 . S
H1105 C1073 0.951 . S
H1106 C1074 0.950 . S
H1107 C1078 0.949 . S
H1108 C1079 0.950 . S
H1109 C1083 0.950 . S
H1110 C1085 0.950 . S
H1111 C1088 0.950 . S
H1112 C1090 0.950 . S
C1113 C1114 1.443 . S
C1113 N1117 1.376 . S
C1113 C1151 1.389 . S
C1114 C1113 1.443 . S
C1114 C1115 1.340 . S
C1114 H1154 0.951 . S
C1115 C1114 1.340 . S
C1115 C1116 1.439 . S
C1115 H1155 0.950 . S
C1116 C1115 1.439 . S
C1116 N1117 1.374 . S
C1116 C1150 1.395 . S
N1117 C1113 1.376 . S
N1117 C1116 1.374 . S
N1117 Co1118 2.008 . S
Co1118 N1117 2.008 . S
Co1118 N1119 1.995 . S
Co1118 N1124 2.008 . S
Co1118 N1129 1.995 . S
Co1118 N1134 2.282 . S
Co1118 N1140 2.282 . S
N1119 Co1118 1.995 . S
N1119 C1120 1.376 . S
N1119 C1123 1.383 . S
C1120 N1119 1.376 . S
C1120 C1121 1.446 . S
C1120 C1150 1.391 . S
C1121 C1120 1.446 . S
C1121 C1122 1.339 . S
C1121 H1156 0.949 . S
C1122 C1121 1.339 . S
C1122 C1123 1.439 . S
C1122 H1157 0.950 . S
C1123 N1119 1.383 . S
C1123 C1122 1.439 . S
C1123 C1152 1.392 . S
N1124 Co1118 2.008 . S
N1124 C1125 1.376 . S
N1124 C1128 1.374 . S
C1125 N1124 1.376 . S
C1125 C1126 1.443 . S
C1125 C1152 1.389 . S
C1126 C1125 1.443 . S
C1126 C1127 1.340 . S
C1126 H1158 0.951 . S
C1127 C1126 1.340 . S
C1127 C1128 1.439 . S
C1127 H1159 0.950 . S
C1128 N1124 1.374 . S
C1128 C1127 1.439 . S
C1128 C1153 1.395 . S
N1129 Co1118 1.995 . S
N1129 C1130 1.376 . S
N1129 C1133 1.383 . S
C1130 N1129 1.376 . S
C1130 C1131 1.446 . S
C1130 C1153 1.391 . S
C1131 C1130 1.446 . S
C1131 C1132 1.339 . S
C1131 H1160 0.949 . S
C1132 C1131 1.339 . S
C1132 C1133 1.439 . S
C1132 H1161 0.950 . S
C1133 N1129 1.383 . S
C1133 C1132 1.439 . S
C1133 C1151 1.392 . S
N1134 Co1118 2.282 . S
N1134 C1137 1.332 . S
N1134 C1139 1.332 . S
C1135 C1136 1.386 . S
C1135 C1138 1.388 . S
C1136 C1135 1.386 . S
C1136 C1137 1.382 . S
C1136 H1162 0.950 . S
C1137 N1134 1.332 . S
C1137 C1136 1.382 . S
C1137 H1148 0.952 . S
C1138 C1135 1.388 . S
C1138 C1139 1.382 . S
C1138 H1163 0.950 . S
C1139 N1134 1.332 . S
C1139 C1138 1.382 . S
C1139 H1149 0.948 . S
N1140 Co1118 2.282 . S
N1140 C1144 1.332 . S
N1140 C1145 1.332 . S
C1141 C1142 1.388 . S
C1141 C1145 1.382 . S
C1141 H1164 0.950 . S
C1142 C1141 1.388 . S
C1142 C1143 1.386 . S
C1143 C1142 1.386 . S
C1143 C1144 1.382 . S
C1143 H1165 0.950 . S
C1144 N1140 1.332 . S
C1144 C1143 1.382 . S
C1144 H1146 0.952 . S
C1145 N1140 1.332 . S
C1145 C1141 1.382 . S
C1145 H1147 0.948 . S
H1146 C1144 0.952 . S
H1147 C1145 0.948 . S
H1148 C1137 0.952 . S
H1149 C1139 0.948 . S
C1150 C1116 1.395 . S
C1150 C1120 1.391 . S
C1151 C1113 1.389 . S
C1151 C1133 1.392 . S
C1152 C1123 1.392 . S
C1152 C1125 1.389 . S
C1153 C1128 1.395 . S
C1153 C1130 1.391 . S
H1154 C1114 0.951 . S
H1155 C1115 0.950 . S
H1156 C1121 0.949 . S
H1157 C1122 0.950 . S
H1158 C1126 0.951 . S
H1159 C1127 0.950 . S
H1160 C1131 0.949 . S
H1161 C1132 0.950 . S
H1162 C1136 0.950 . S
H1163 C1138 0.950 . S
H1164 C1141 0.950 . S
H1165 C1143 0.950 . S
C1166 C1167 1.443 . S
C1166 N1170 1.376 . S
C1166 C1204 1.389 . S
C1167 C1166 1.443 . S
C1167 C1168 1.340 . S
C1167 H1207 0.951 . S
C1168 C1167 1.340 . S
C1168 C1169 1.439 . S
C1168 H1208 0.950 . S
C1169 C1168 1.439 . S
C1169 N1170 1.374 . S
C1169 C1203 1.395 . S
N1170 C1166 1.376 . S
N1170 C1169 1.374 . S
N1170 Co1171 2.008 . S
Co1171 N1170 2.008 . S
Co1171 N1172 1.995 . S
Co1171 N1177 2.008 . S
Co1171 N1182 1.995 . S
Co1171 N1187 2.282 . S
Co1171 N1193 2.282 . S
N1172 Co1171 1.995 . S
N1172 C1173 1.376 . S
N1172 C1176 1.383 . S
C1173 N1172 1.376 . S
C1173 C1174 1.446 . S
C1173 C1203 1.391 . S
C1174 C1173 1.446 . S
C1174 C1175 1.339 . S
C1174 H1209 0.949 . S
C1175 C1174 1.339 . S
C1175 C1176 1.439 . S
C1175 H1210 0.950 . S
C1176 N1172 1.383 . S
C1176 C1175 1.439 . S
C1176 C1205 1.392 . S
N1177 Co1171 2.008 . S
N1177 C1178 1.376 . S
N1177 C1181 1.374 . S
C1178 N1177 1.376 . S
C1178 C1179 1.443 . S
C1178 C1205 1.389 . S
C1179 C1178 1.443 . S
C1179 C1180 1.340 . S
C1179 H1211 0.951 . S
C1180 C1179 1.340 . S
C1180 C1181 1.439 . S
C1180 H1212 0.950 . S
C1181 N1177 1.374 . S
C1181 C1180 1.439 . S
C1181 C1206 1.395 . S
N1182 Co1171 1.995 . S
N1182 C1183 1.376 . S
N1182 C1186 1.383 . S
C1183 N1182 1.376 . S
C1183 C1184 1.446 . S
C1183 C1206 1.391 . S
C1184 C1183 1.446 . S
C1184 C1185 1.339 . S
C1184 H1213 0.949 . S
C1185 C1184 1.339 . S
C1185 C1186 1.439 . S
C1185 H1214 0.950 . S
C1186 N1182 1.383 . S
C1186 C1185 1.439 . S
C1186 C1204 1.392 . S
N1187 Co1171 2.282 . S
N1187 C1190 1.332 . S
N1187 C1192 1.332 . S
C1188 C1189 1.386 . S
C1188 C1191 1.388 . S
C1189 C1188 1.386 . S
C1189 C1190 1.382 . S
C1189 H1215 0.950 . S
C1190 N1187 1.332 . S
C1190 C1189 1.382 . S
C1190 H1201 0.952 . S
C1191 C1188 1.388 . S
C1191 C1192 1.382 . S
C1191 H1216 0.950 . S
C1192 N1187 1.332 . S
C1192 C1191 1.382 . S
C1192 H1202 0.948 . S
N1193 Co1171 2.282 . S
N1193 C1197 1.332 . S
N1193 C1198 1.332 . S
C1194 C1195 1.388 . S
C1194 C1198 1.382 . S
C1194 H1217 0.950 . S
C1195 C1194 1.388 . S
C1195 C1196 1.386 . S
C1196 C1195 1.386 . S
C1196 C1197 1.382 . S
C1196 H1218 0.950 . S
C1197 N1193 1.332 . S
C1197 C1196 1.382 . S
C1197 H1199 0.952 . S
C1198 N1193 1.332 . S
C1198 C1194 1.382 . S
C1198 H1200 0.948 . S
H1199 C1197 0.952 . S
H1200 C1198 0.948 . S
H1201 C1190 0.952 . S
H1202 C1192 0.948 . S
C1203 C1169 1.395 . S
C1203 C1173 1.391 . S
C1204 C1166 1.389 . S
C1204 C1186 1.392 . S
C1205 C1176 1.392 . S
C1205 C1178 1.389 . S
C1206 C1181 1.395 . S
C1206 C1183 1.391 . S
H1207 C1167 0.951 . S
H1208 C1168 0.950 . S
H1209 C1174 0.949 . S
H1210 C1175 0.950 . S
H1211 C1179 0.951 . S
H1212 C1180 0.950 . S
H1213 C1184 0.949 . S
H1214 C1185 0.950 . S
H1215 C1189 0.950 . S
H1216 C1191 0.950 . S
H1217 C1194 0.950 . S
H1218 C1196 0.950 . S
C1219 C1220 1.443 . S
C1219 N1223 1.376 . S
C1219 C1257 1.389 . S
C1220 C1219 1.443 . S
C1220 C1221 1.340 . S
C1220 H1260 0.951 . S
C1221 C1220 1.340 . S
C1221 C1222 1.439 . S
C1221 H1261 0.950 . S
C1222 C1221 1.439 . S
C1222 N1223 1.374 . S
C1222 C1256 1.395 . S
N1223 C1219 1.376 . S
N1223 C1222 1.374 . S
N1223 Co1224 2.008 . S
Co1224 N1223 2.008 . S
Co1224 N1225 1.995 . S
Co1224 N1230 2.008 . S
Co1224 N1235 1.995 . S
Co1224 N1240 2.282 . S
Co1224 N1246 2.282 . S
N1225 Co1224 1.995 . S
N1225 C1226 1.376 . S
N1225 C1229 1.383 . S
C1226 N1225 1.376 . S
C1226 C1227 1.446 . S
C1226 C1256 1.391 . S
C1227 C1226 1.446 . S
C1227 C1228 1.339 . S
C1227 H1262 0.949 . S
C1228 C1227 1.339 . S
C1228 C1229 1.439 . S
C1228 H1263 0.950 . S
C1229 N1225 1.383 . S
C1229 C1228 1.439 . S
C1229 C1258 1.392 . S
N1230 Co1224 2.008 . S
N1230 C1231 1.376 . S
N1230 C1234 1.374 . S
C1231 N1230 1.376 . S
C1231 C1232 1.443 . S
C1231 C1258 1.389 . S
C1232 C1231 1.443 . S
C1232 C1233 1.340 . S
C1232 H1264 0.951 . S
C1233 C1232 1.340 . S
C1233 C1234 1.439 . S
C1233 H1265 0.950 . S
C1234 N1230 1.374 . S
C1234 C1233 1.439 . S
C1234 C1259 1.395 . S
N1235 Co1224 1.995 . S
N1235 C1236 1.376 . S
N1235 C1239 1.383 . S
C1236 N1235 1.376 . S
C1236 C1237 1.446 . S
C1236 C1259 1.391 . S
C1237 C1236 1.446 . S
C1237 C1238 1.339 . S
C1237 H1266 0.949 . S
C1238 C1237 1.339 . S
C1238 C1239 1.439 . S
C1238 H1267 0.950 . S
C1239 N1235 1.383 . S
C1239 C1238 1.439 . S
C1239 C1257 1.392 . S
N1240 Co1224 2.282 . S
N1240 C1243 1.332 . S
N1240 C1245 1.332 . S
C1241 C1242 1.386 . S
C1241 C1244 1.388 . S
C1242 C1241 1.386 . S
C1242 C1243 1.382 . S
C1242 H1268 0.950 . S
C1243 N1240 1.332 . S
C1243 C1242 1.382 . S
C1243 H1254 0.952 . S
C1244 C1241 1.388 . S
C1244 C1245 1.382 . S
C1244 H1269 0.950 . S
C1245 N1240 1.332 . S
C1245 C1244 1.382 . S
C1245 H1255 0.948 . S
N1246 Co1224 2.282 . S
N1246 C1250 1.332 . S
N1246 C1251 1.332 . S
C1247 C1248 1.388 . S
C1247 C1251 1.382 . S
C1247 H1270 0.950 . S
C1248 C1247 1.388 . S
C1248 C1249 1.386 . S
C1249 C1248 1.386 . S
C1249 C1250 1.382 . S
C1249 H1271 0.950 . S
C1250 N1246 1.332 . S
C1250 C1249 1.382 . S
C1250 H1252 0.952 . S
C1251 N1246 1.332 . S
C1251 C1247 1.382 . S
C1251 H1253 0.948 . S
H1252 C1250 0.952 . S
H1253 C1251 0.948 . S
H1254 C1243 0.952 . S
H1255 C1245 0.948 . S
C1256 C1222 1.395 . S
C1256 C1226 1.391 . S
C1257 C1219 1.389 . S
C1257 C1239 1.392 . S
C1258 C1229 1.392 . S
C1258 C1231 1.389 . S
C1259 C1234 1.395 . S
C1259 C1236 1.391 . S
H1260 C1220 0.951 . S
H1261 C1221 0.950 . S
H1262 C1227 0.949 . S
H1263 C1228 0.950 . S
H1264 C1232 0.951 . S
H1265 C1233 0.950 . S
H1266 C1237 0.949 . S
H1267 C1238 0.950 . S
H1268 C1242 0.950 . S
H1269 C1244 0.950 . S
H1270 C1247 0.950 . S
H1271 C1249 0.950 . S
C1272 C1273 1.443 . S
C1272 N1276 1.376 . S
C1272 C1310 1.389 . S
C1273 C1272 1.443 . S
C1273 C1274 1.340 . S
C1273 H1313 0.951 . S
C1274 C1273 1.340 . S
C1274 C1275 1.439 . S
C1274 H1314 0.950 . S
C1275 C1274 1.439 . S
C1275 N1276 1.374 . S
C1275 C1309 1.395 1_554 S
N1276 C1272 1.376 . S
N1276 C1275 1.374 . S
N1276 Co1277 2.008 . S
Co1277 N1276 2.008 . S
Co1277 N1278 1.995 1_554 S
Co1277 N1283 2.008 1_554 S
Co1277 N1288 1.995 . S
Co1277 N1293 2.282 . S
Co1277 N1299 2.282 . S
N1278 Co1277 1.995 1_556 S
N1278 C1279 1.376 . S
N1278 C1282 1.383 . S
C1279 N1278 1.376 . S
C1279 C1280 1.446 . S
C1279 C1309 1.391 . S
C1280 C1279 1.446 . S
C1280 C1281 1.339 . S
C1280 H1315 0.949 . S
C1281 C1280 1.339 . S
C1281 C1282 1.439 . S
C1281 H1316 0.950 . S
C1282 N1278 1.383 . S
C1282 C1281 1.439 . S
C1282 C1311 1.392 . S
N1283 Co1277 2.008 1_556 S
N1283 C1284 1.376 . S
N1283 C1287 1.374 1_556 S
C1284 N1283 1.376 . S
C1284 C1285 1.443 . S
C1284 C1311 1.389 . S
C1285 C1284 1.443 . S
C1285 C1286 1.340 . S
C1285 H1317 0.951 . S
C1286 C1285 1.340 . S
C1286 C1287 1.439 1_556 S
C1286 H1318 0.950 . S
C1287 N1283 1.374 1_554 S
C1287 C1286 1.439 1_554 S
C1287 C1312 1.395 . S
N1288 Co1277 1.995 . S
N1288 C1289 1.376 . S
N1288 C1292 1.383 . S
C1289 N1288 1.376 . S
C1289 C1290 1.446 . S
C1289 C1312 1.391 . S
C1290 C1289 1.446 . S
C1290 C1291 1.339 . S
C1290 H1319 0.949 . S
C1291 C1290 1.339 . S
C1291 C1292 1.439 . S
C1291 H1320 0.950 . S
C1292 N1288 1.383 . S
C1292 C1291 1.439 . S
C1292 C1310 1.392 . S
N1293 Co1277 2.282 . S
N1293 C1296 1.332 . S
N1293 C1298 1.332 1_554 S
C1294 C1295 1.386 . S
C1294 C1297 1.388 1_554 S
C1295 C1294 1.386 . S
C1295 C1296 1.382 . S
C1295 H1321 0.950 . S
C1296 N1293 1.332 . S
C1296 C1295 1.382 . S
C1296 H1307 0.952 . S
C1297 C1294 1.388 1_556 S
C1297 C1298 1.382 . S
C1297 H1322 0.950 . S
C1298 N1293 1.332 1_556 S
C1298 C1297 1.382 . S
C1298 H1308 0.948 . S
N1299 Co1277 2.282 . S
N1299 C1303 1.332 1_554 S
N1299 C1304 1.332 . S
C1300 C1301 1.388 . S
C1300 C1304 1.382 . S
C1300 H1323 0.950 . S
C1301 C1300 1.388 . S
C1301 C1302 1.386 1_554 S
C1302 C1301 1.386 1_556 S
C1302 C1303 1.382 . S
C1302 H1324 0.950 . S
C1303 N1299 1.332 1_556 S
C1303 C1302 1.382 . S
C1303 H1305 0.952 . S
C1304 N1299 1.332 . S
C1304 C1300 1.382 . S
C1304 H1306 0.948 . S
H1305 C1303 0.952 . S
H1306 C1304 0.948 . S
H1307 C1296 0.952 . S
H1308 C1298 0.948 . S
C1309 C1275 1.395 1_556 S
C1309 C1279 1.391 . S
C1310 C1272 1.389 . S
C1310 C1292 1.392 . S
C1311 C1282 1.392 . S
C1311 C1284 1.389 . S
C1312 C1287 1.395 . S
C1312 C1289 1.391 . S
H1313 C1273 0.951 . S
H1314 C1274 0.950 . S
H1315 C1280 0.949 . S
H1316 C1281 0.950 . S
H1317 C1285 0.951 . S
H1318 C1286 0.950 . S
H1319 C1290 0.949 . S
H1320 C1291 0.950 . S
H1321 C1295 0.950 . S
H1322 C1297 0.950 . S
H1323 C1300 0.950 . S
H1324 C1302 0.950 . S
C1325 C1326 1.443 . S
C1325 N1329 1.376 . S
C1325 C1363 1.389 . S
C1326 C1325 1.443 . S
C1326 C1327 1.340 . S
C1326 H1366 0.951 . S
C1327 C1326 1.340 . S
C1327 C1328 1.439 . S
C1327 H1367 0.950 . S
C1328 C1327 1.439 . S
C1328 N1329 1.374 . S
C1328 C1362 1.395 1_554 S
N1329 C1325 1.376 . S
N1329 C1328 1.374 . S
N1329 Co1330 2.008 . S
Co1330 N1329 2.008 . S
Co1330 N1331 1.995 1_554 S
Co1330 N1336 2.008 1_554 S
Co1330 N1341 1.995 . S
Co1330 N1346 2.282 . S
Co1330 N1352 2.282 . S
N1331 Co1330 1.995 1_556 S
N1331 C1332 1.376 . S
N1331 C1335 1.383 . S
C1332 N1331 1.376 . S
C1332 C1333 1.446 . S
C1332 C1362 1.391 . S
C1333 C1332 1.446 . S
C1333 C1334 1.339 . S
C1333 H1368 0.949 . S
C1334 C1333 1.339 . S
C1334 C1335 1.439 . S
C1334 H1369 0.950 . S
C1335 N1331 1.383 . S
C1335 C1334 1.439 . S
C1335 C1364 1.392 . S
N1336 Co1330 2.008 1_556 S
N1336 C1337 1.376 . S
N1336 C1340 1.374 1_556 S
C1337 N1336 1.376 . S
C1337 C1338 1.443 . S
C1337 C1364 1.389 . S
C1338 C1337 1.443 . S
C1338 C1339 1.340 . S
C1338 H1370 0.951 . S
C1339 C1338 1.340 . S
C1339 C1340 1.439 1_556 S
C1339 H1371 0.950 . S
C1340 N1336 1.374 1_554 S
C1340 C1339 1.439 1_554 S
C1340 C1365 1.395 . S
N1341 Co1330 1.995 . S
N1341 C1342 1.376 . S
N1341 C1345 1.383 . S
C1342 N1341 1.376 . S
C1342 C1343 1.446 . S
C1342 C1365 1.391 . S
C1343 C1342 1.446 . S
C1343 C1344 1.339 . S
C1343 H1372 0.949 . S
C1344 C1343 1.339 . S
C1344 C1345 1.439 . S
C1344 H1373 0.950 . S
C1345 N1341 1.383 . S
C1345 C1344 1.439 . S
C1345 C1363 1.392 . S
N1346 Co1330 2.282 . S
N1346 C1349 1.332 . S
N1346 C1351 1.332 1_554 S
C1347 C1348 1.386 . S
C1347 C1350 1.388 1_554 S
C1348 C1347 1.386 . S
C1348 C1349 1.382 . S
C1348 H1374 0.950 . S
C1349 N1346 1.332 . S
C1349 C1348 1.382 . S
C1349 H1360 0.952 . S
C1350 C1347 1.388 1_556 S
C1350 C1351 1.382 . S
C1350 H1375 0.950 . S
C1351 N1346 1.332 1_556 S
C1351 C1350 1.382 . S
C1351 H1361 0.948 . S
N1352 Co1330 2.282 . S
N1352 C1356 1.332 1_554 S
N1352 C1357 1.332 . S
C1353 C1354 1.388 . S
C1353 C1357 1.382 . S
C1353 H1376 0.950 . S
C1354 C1353 1.388 . S
C1354 C1355 1.386 1_554 S
C1355 C1354 1.386 1_556 S
C1355 C1356 1.382 . S
C1355 H1377 0.950 . S
C1356 N1352 1.332 1_556 S
C1356 C1355 1.382 . S
C1356 H1358 0.952 . S
C1357 N1352 1.332 . S
C1357 C1353 1.382 . S
C1357 H1359 0.948 . S
H1358 C1356 0.952 . S
H1359 C1357 0.948 . S
H1360 C1349 0.952 . S
H1361 C1351 0.948 . S
C1362 C1328 1.395 1_556 S
C1362 C1332 1.391 . S
C1363 C1325 1.389 . S
C1363 C1345 1.392 . S
C1364 C1335 1.392 . S
C1364 C1337 1.389 . S
C1365 C1340 1.395 . S
C1365 C1342 1.391 . S
H1366 C1326 0.951 . S
H1367 C1327 0.950 . S
H1368 C1333 0.949 . S
H1369 C1334 0.950 . S
H1370 C1338 0.951 . S
H1371 C1339 0.950 . S
H1372 C1343 0.949 . S
H1373 C1344 0.950 . S
H1374 C1348 0.950 . S
H1375 C1350 0.950 . S
H1376 C1353 0.950 . S
H1377 C1355 0.950 . S
C1378 C1379 1.443 . S
C1378 N1382 1.376 . S
C1378 C1416 1.389 . S
C1379 C1378 1.443 . S
C1379 C1380 1.340 . S
C1379 H1419 0.951 . S
C1380 C1379 1.340 . S
C1380 C1381 1.439 . S
C1380 H1420 0.950 . S
C1381 C1380 1.439 . S
C1381 N1382 1.374 . S
C1381 C1415 1.395 . S
N1382 C1378 1.376 . S
N1382 C1381 1.374 . S
N1382 Co1383 2.008 . S
Co1383 N1382 2.008 . S
Co1383 N1384 1.995 . S
Co1383 N1389 2.008 . S
Co1383 N1394 1.995 . S
Co1383 N1399 2.282 . S
Co1383 N1405 2.282 . S
N1384 Co1383 1.995 . S
N1384 C1385 1.376 . S
N1384 C1388 1.383 . S
C1385 N1384 1.376 . S
C1385 C1386 1.446 . S
C1385 C1415 1.391 . S
C1386 C1385 1.446 . S
C1386 C1387 1.339 . S
C1386 H1421 0.949 . S
C1387 C1386 1.339 . S
C1387 C1388 1.439 . S
C1387 H1422 0.950 . S
C1388 N1384 1.383 . S
C1388 C1387 1.439 . S
C1388 C1417 1.392 . S
N1389 Co1383 2.008 . S
N1389 C1390 1.376 . S
N1389 C1393 1.374 . S
C1390 N1389 1.376 . S
C1390 C1391 1.443 . S
C1390 C1417 1.389 . S
C1391 C1390 1.443 . S
C1391 C1392 1.340 . S
C1391 H1423 0.951 . S
C1392 C1391 1.340 . S
C1392 C1393 1.439 . S
C1392 H1424 0.950 . S
C1393 N1389 1.374 . S
C1393 C1392 1.439 . S
C1393 C1418 1.395 . S
N1394 Co1383 1.995 . S
N1394 C1395 1.376 . S
N1394 C1398 1.383 . S
C1395 N1394 1.376 . S
C1395 C1396 1.446 . S
C1395 C1418 1.391 . S
C1396 C1395 1.446 . S
C1396 C1397 1.339 . S
C1396 H1425 0.949 . S
C1397 C1396 1.339 . S
C1397 C1398 1.439 . S
C1397 H1426 0.950 . S
C1398 N1394 1.383 . S
C1398 C1397 1.439 . S
C1398 C1416 1.392 . S
N1399 Co1383 2.282 . S
N1399 C1402 1.332 . S
N1399 C1404 1.332 . S
C1400 C1401 1.386 . S
C1400 C1403 1.388 . S
C1401 C1400 1.386 . S
C1401 C1402 1.382 . S
C1401 H1427 0.950 . S
C1402 N1399 1.332 . S
C1402 C1401 1.382 . S
C1402 H1413 0.952 . S
C1403 C1400 1.388 . S
C1403 C1404 1.382 . S
C1403 H1428 0.950 . S
C1404 N1399 1.332 . S
C1404 C1403 1.382 . S
C1404 H1414 0.948 . S
N1405 Co1383 2.282 . S
N1405 C1409 1.332 . S
N1405 C1410 1.332 . S
C1406 C1407 1.388 . S
C1406 C1410 1.382 . S
C1406 H1429 0.950 . S
C1407 C1406 1.388 . S
C1407 C1408 1.386 . S
C1408 C1407 1.386 . S
C1408 C1409 1.382 . S
C1408 H1430 0.950 . S
C1409 N1405 1.332 . S
C1409 C1408 1.382 . S
C1409 H1411 0.952 . S
C1410 N1405 1.332 . S
C1410 C1406 1.382 . S
C1410 H1412 0.948 . S
H1411 C1409 0.952 . S
H1412 C1410 0.948 . S
H1413 C1402 0.952 . S
H1414 C1404 0.948 . S
C1415 C1381 1.395 . S
C1415 C1385 1.391 . S
C1416 C1378 1.389 . S
C1416 C1398 1.392 . S
C1417 C1388 1.392 . S
C1417 C1390 1.389 . S
C1418 C1393 1.395 . S
C1418 C1395 1.391 . S
H1419 C1379 0.951 . S
H1420 C1380 0.950 . S
H1421 C1386 0.949 . S
H1422 C1387 0.950 . S
H1423 C1391 0.951 . S
H1424 C1392 0.950 . S
H1425 C1396 0.949 . S
H1426 C1397 0.950 . S
H1427 C1401 0.950 . S
H1428 C1403 0.950 . S
H1429 C1406 0.950 . S
H1430 C1408 0.950 . S
C1431 C1432 1.443 . S
C1431 N1435 1.376 . S
C1431 C1469 1.389 . S
C1432 C1431 1.443 . S
C1432 C1433 1.340 . S
C1432 H1472 0.951 . S
C1433 C1432 1.340 . S
C1433 C1434 1.439 . S
C1433 H1473 0.950 . S
C1434 C1433 1.439 . S
C1434 N1435 1.374 . S
C1434 C1468 1.395 . S
N1435 C1431 1.376 . S
N1435 C1434 1.374 . S
N1435 Co1436 2.008 . S
Co1436 N1435 2.008 . S
Co1436 N1437 1.995 . S
Co1436 N1442 2.008 . S
Co1436 N1447 1.995 . S
Co1436 N1452 2.282 . S
Co1436 N1458 2.282 . S
N1437 Co1436 1.995 . S
N1437 C1438 1.376 . S
N1437 C1441 1.383 . S
C1438 N1437 1.376 . S
C1438 C1439 1.446 . S
C1438 C1468 1.391 . S
C1439 C1438 1.446 . S
C1439 C1440 1.339 . S
C1439 H1474 0.949 . S
C1440 C1439 1.339 . S
C1440 C1441 1.439 . S
C1440 H1475 0.950 . S
C1441 N1437 1.383 . S
C1441 C1440 1.439 . S
C1441 C1470 1.392 . S
N1442 Co1436 2.008 . S
N1442 C1443 1.376 . S
N1442 C1446 1.374 . S
C1443 N1442 1.376 . S
C1443 C1444 1.443 . S
C1443 C1470 1.389 . S
C1444 C1443 1.443 . S
C1444 C1445 1.340 . S
C1444 H1476 0.951 . S
C1445 C1444 1.340 . S
C1445 C1446 1.439 . S
C1445 H1477 0.950 . S
C1446 N1442 1.374 . S
C1446 C1445 1.439 . S
C1446 C1471 1.395 . S
N1447 Co1436 1.995 . S
N1447 C1448 1.376 . S
N1447 C1451 1.383 . S
C1448 N1447 1.376 . S
C1448 C1449 1.446 . S
C1448 C1471 1.391 . S
C1449 C1448 1.446 . S
C1449 C1450 1.339 . S
C1449 H1478 0.949 . S
C1450 C1449 1.339 . S
C1450 C1451 1.439 . S
C1450 H1479 0.950 . S
C1451 N1447 1.383 . S
C1451 C1450 1.439 . S
C1451 C1469 1.392 . S
N1452 Co1436 2.282 . S
N1452 C1455 1.332 . S
N1452 C1457 1.332 . S
C1453 C1454 1.386 . S
C1453 C1456 1.388 . S
C1454 C1453 1.386 . S
C1454 C1455 1.382 . S
C1454 H1480 0.950 . S
C1455 N1452 1.332 . S
C1455 C1454 1.382 . S
C1455 H1466 0.952 . S
C1456 C1453 1.388 . S
C1456 C1457 1.382 . S
C1456 H1481 0.950 . S
C1457 N1452 1.332 . S
C1457 C1456 1.382 . S
C1457 H1467 0.948 . S
N1458 Co1436 2.282 . S
N1458 C1462 1.332 . S
N1458 C1463 1.332 . S
C1459 C1460 1.388 . S
C1459 C1463 1.382 . S
C1459 H1482 0.950 . S
C1460 C1459 1.388 . S
C1460 C1461 1.386 . S
C1461 C1460 1.386 . S
C1461 C1462 1.382 . S
C1461 H1483 0.950 . S
C1462 N1458 1.332 . S
C1462 C1461 1.382 . S
C1462 H1464 0.952 . S
C1463 N1458 1.332 . S
C1463 C1459 1.382 . S
C1463 H1465 0.948 . S
H1464 C1462 0.952 . S
H1465 C1463 0.948 . S
H1466 C1455 0.952 . S
H1467 C1457 0.948 . S
C1468 C1434 1.395 . S
C1468 C1438 1.391 . S
C1469 C1431 1.389 . S
C1469 C1451 1.392 . S
C1470 C1441 1.392 . S
C1470 C1443 1.389 . S
C1471 C1446 1.395 . S
C1471 C1448 1.391 . S
H1472 C1432 0.951 . S
H1473 C1433 0.950 . S
H1474 C1439 0.949 . S
H1475 C1440 0.950 . S
H1476 C1444 0.951 . S
H1477 C1445 0.950 . S
H1478 C1449 0.949 . S
H1479 C1450 0.950 . S
H1480 C1454 0.950 . S
H1481 C1456 0.950 . S
H1482 C1459 0.950 . S
H1483 C1461 0.950 . S
C1484 C1485 1.443 . S
C1484 N1488 1.376 . S
C1484 C1522 1.389 . S
C1485 C1484 1.443 . S
C1485 C1486 1.340 . S
C1485 H1525 0.951 . S
C1486 C1485 1.340 . S
C1486 C1487 1.439 . S
C1486 H1526 0.950 . S
C1487 C1486 1.439 . S
C1487 N1488 1.374 . S
C1487 C1521 1.395 . S
N1488 C1484 1.376 . S
N1488 C1487 1.374 . S
N1488 Co1489 2.008 . S
Co1489 N1488 2.008 . S
Co1489 N1490 1.995 1_556 S
Co1489 N1495 2.008 1_556 S
Co1489 N1500 1.995 . S
Co1489 N1505 2.282 . S
Co1489 N1511 2.288 . S
N1490 Co1489 1.995 1_554 S
N1490 C1491 1.376 1_554 S
N1490 C1494 1.383 . S
C1491 N1490 1.376 1_556 S
C1491 C1492 1.446 1_556 S
C1491 C1521 1.391 . S
C1492 C1491 1.446 1_554 S
C1492 C1493 1.339 . S
C1492 H1527 0.949 . S
C1493 C1492 1.339 . S
C1493 C1494 1.439 . S
C1493 H1528 0.950 . S
C1494 N1490 1.383 . S
C1494 C1493 1.439 . S
C1494 C1523 1.392 . S
N1495 Co1489 2.008 1_554 S
N1495 C1496 1.376 . S
N1495 C1499 1.374 . S
C1496 N1495 1.376 . S
C1496 C1497 1.443 . S
C1496 C1523 1.389 . S
C1497 C1496 1.443 . S
C1497 C1498 1.340 . S
C1497 H1529 0.951 . S
C1498 C1497 1.340 . S
C1498 C1499 1.439 . S
C1498 H1530 0.950 . S
C1499 N1495 1.374 . S
C1499 C1498 1.439 . S
C1499 C1524 1.395 . S
N1500 Co1489 1.995 . S
N1500 C1501 1.376 . S
N1500 C1504 1.383 . S
C1501 N1500 1.376 . S
C1501 C1502 1.446 . S
C1501 C1524 1.391 1_556 S
C1502 C1501 1.446 . S
C1502 C1503 1.339 . S
C1502 H1531 0.949 . S
C1503 C1502 1.339 . S
C1503 C1504 1.439 . S
C1503 H1532 0.950 . S
C1504 N1500 1.383 . S
C1504 C1503 1.439 . S
C1504 C1522 1.392 . S
N1505 Co1489 2.282 . S
N1505 C1508 1.332 . S
N1505 C1510 1.332 . S
C1506 C1507 1.386 . S
C1506 C1509 1.388 . S
C1507 C1506 1.386 . S
C1507 C1508 1.382 . S
C1507 H1533 0.947 1_556 S
C1508 N1505 1.332 . S
C1508 C1507 1.382 . S
C1508 H1519 0.952 . S
C1509 C1506 1.388 . S
C1509 C1510 1.382 . S
C1509 H1534 0.950 . S
C1510 N1505 1.332 . S
C1510 C1509 1.382 . S
C1510 H1520 0.948 . S
N1511 Co1489 2.288 . S
N1511 C1515 1.342 . S
N1511 C1516 1.331 . S
C1512 C1513 1.388 . S
C1512 C1516 1.383 . S
C1512 H1535 0.950 . S
C1513 C1512 1.388 . S
C1513 C1514 1.386 . S
C1514 C1513 1.386 . S
C1514 C1515 1.382 . S
C1514 H1536 0.950 . S
C1515 N1511 1.342 . S
C1515 C1514 1.382 . S
C1515 H1517 0.952 . S
C1516 N1511 1.331 . S
C1516 C1512 1.383 . S
C1516 H1518 0.947 1_556 S
H1517 C1515 0.952 . S
H1518 C1516 0.947 1_554 S
H1519 C1508 0.952 . S
H1520 C1510 0.948 . S
C1521 C1487 1.395 . S
C1521 C1491 1.391 . S
C1522 C1484 1.389 . S
C1522 C1504 1.392 . S
C1523 C1494 1.392 . S
C1523 C1496 1.389 . S
C1524 C1499 1.395 . S
C1524 C1501 1.391 1_554 S
H1525 C1485 0.951 . S
H1526 C1486 0.950 . S
H1527 C1492 0.949 . S
H1528 C1493 0.950 . S
H1529 C1497 0.951 . S
H1530 C1498 0.950 . S
H1531 C1502 0.949 . S
H1532 C1503 0.950 . S
H1533 C1507 0.947 1_554 S
H1534 C1509 0.950 . S
H1535 C1512 0.950 . S
H1536 C1514 0.950 . S
C1537 C1538 1.443 . S
C1537 N1541 1.376 . S
C1537 C1575 1.389 . S
C1538 C1537 1.443 . S
C1538 C1539 1.340 . S
C1538 H1578 0.951 . S
C1539 C1538 1.340 . S
C1539 C1540 1.439 . S
C1539 H1579 0.950 . S
C1540 C1539 1.439 . S
C1540 N1541 1.374 . S
C1540 C1574 1.395 . S
N1541 C1537 1.376 . S
N1541 C1540 1.374 . S
N1541 Co1542 2.008 . S
Co1542 N1541 2.008 . S
Co1542 N1543 1.995 1_556 S
Co1542 N1548 2.008 1_556 S
Co1542 N1553 1.995 . S
Co1542 N1558 2.282 . S
Co1542 N1564 2.288 . S
N1543 Co1542 1.995 1_554 S
N1543 C1544 1.376 1_554 S
N1543 C1547 1.383 . S
C1544 N1543 1.376 1_556 S
C1544 C1545 1.446 1_556 S
C1544 C1574 1.391 . S
C1545 C1544 1.446 1_554 S
C1545 C1546 1.339 . S
C1545 H1580 0.949 . S
C1546 C1545 1.339 . S
C1546 C1547 1.439 . S
C1546 H1581 0.950 . S
C1547 N1543 1.383 . S
C1547 C1546 1.439 . S
C1547 C1576 1.392 . S
N1548 Co1542 2.008 1_554 S
N1548 C1549 1.376 . S
N1548 C1552 1.374 . S
C1549 N1548 1.376 . S
C1549 C1550 1.443 . S
C1549 C1576 1.389 . S
C1550 C1549 1.443 . S
C1550 C1551 1.340 . S
C1550 H1582 0.951 . S
C1551 C1550 1.340 . S
C1551 C1552 1.439 . S
C1551 H1583 0.950 . S
C1552 N1548 1.374 . S
C1552 C1551 1.439 . S
C1552 C1577 1.395 . S
N1553 Co1542 1.995 . S
N1553 C1554 1.376 . S
N1553 C1557 1.383 . S
C1554 N1553 1.376 . S
C1554 C1555 1.446 . S
C1554 C1577 1.391 1_556 S
C1555 C1554 1.446 . S
C1555 C1556 1.339 . S
C1555 H1584 0.949 . S
C1556 C1555 1.339 . S
C1556 C1557 1.439 . S
C1556 H1585 0.950 . S
C1557 N1553 1.383 . S
C1557 C1556 1.439 . S
C1557 C1575 1.392 . S
N1558 Co1542 2.282 . S
N1558 C1561 1.332 . S
N1558 C1563 1.332 . S
C1559 C1560 1.386 . S
C1559 C1562 1.388 . S
C1560 C1559 1.386 . S
C1560 C1561 1.382 . S
C1560 H1586 0.947 1_556 S
C1561 N1558 1.332 . S
C1561 C1560 1.382 . S
C1561 H1572 0.952 . S
C1562 C1559 1.388 . S
C1562 C1563 1.382 . S
C1562 H1587 0.950 . S
C1563 N1558 1.332 . S
C1563 C1562 1.382 . S
C1563 H1573 0.948 . S
N1564 Co1542 2.288 . S
N1564 C1568 1.342 . S
N1564 C1569 1.331 . S
C1565 C1566 1.388 . S
C1565 C1569 1.383 . S
C1565 H1588 0.950 . S
C1566 C1565 1.388 . S
C1566 C1567 1.386 . S
C1567 C1566 1.386 . S
C1567 C1568 1.382 . S
C1567 H1589 0.950 . S
C1568 N1564 1.342 . S
C1568 C1567 1.382 . S
C1568 H1570 0.952 . S
C1569 N1564 1.331 . S
C1569 C1565 1.383 . S
C1569 H1571 0.947 1_556 S
H1570 C1568 0.952 . S
H1571 C1569 0.947 1_554 S
H1572 C1561 0.952 . S
H1573 C1563 0.948 . S
C1574 C1540 1.395 . S
C1574 C1544 1.391 . S
C1575 C1537 1.389 . S
C1575 C1557 1.392 . S
C1576 C1547 1.392 . S
C1576 C1549 1.389 . S
C1577 C1552 1.395 . S
C1577 C1554 1.391 1_554 S
H1578 C1538 0.951 . S
H1579 C1539 0.950 . S
H1580 C1545 0.949 . S
H1581 C1546 0.950 . S
H1582 C1550 0.951 . S
H1583 C1551 0.950 . S
H1584 C1555 0.949 . S
H1585 C1556 0.950 . S
H1586 C1560 0.947 1_554 S
H1587 C1562 0.950 . S
H1588 C1565 0.950 . S
H1589 C1567 0.950 . S
C1590 C1591 1.443 . S
C1590 N1594 1.376 . S
C1590 C1628 1.389 . S
C1591 C1590 1.443 . S
C1591 C1592 1.340 . S
C1591 H1631 0.951 . S
C1592 C1591 1.340 . S
C1592 C1593 1.439 . S
C1592 H1632 0.950 . S
C1593 C1592 1.439 . S
C1593 N1594 1.374 . S
C1593 C1627 1.395 . S
N1594 C1590 1.376 . S
N1594 C1593 1.374 . S
N1594 Co1595 2.008 . S
Co1595 N1594 2.008 . S
Co1595 N1596 1.995 . S
Co1595 N1601 2.008 . S
Co1595 N1606 1.995 . S
Co1595 N1611 2.282 . S
Co1595 N1617 2.282 . S
N1596 Co1595 1.995 . S
N1596 C1597 1.376 . S
N1596 C1600 1.383 . S
C1597 N1596 1.376 . S
C1597 C1598 1.446 . S
C1597 C1627 1.391 . S
C1598 C1597 1.446 . S
C1598 C1599 1.339 . S
C1598 H1633 0.949 . S
C1599 C1598 1.339 . S
C1599 C1600 1.439 . S
C1599 H1634 0.950 . S
C1600 N1596 1.383 . S
C1600 C1599 1.439 . S
C1600 C1629 1.392 . S
N1601 Co1595 2.008 . S
N1601 C1602 1.376 . S
N1601 C1605 1.374 . S
C1602 N1601 1.376 . S
C1602 C1603 1.443 . S
C1602 C1629 1.389 . S
C1603 C1602 1.443 . S
C1603 C1604 1.340 . S
C1603 H1635 0.951 . S
C1604 C1603 1.340 . S
C1604 C1605 1.439 . S
C1604 H1636 0.950 . S
C1605 N1601 1.374 . S
C1605 C1604 1.439 . S
C1605 C1630 1.395 . S
N1606 Co1595 1.995 . S
N1606 C1607 1.376 . S
N1606 C1610 1.383 . S
C1607 N1606 1.376 . S
C1607 C1608 1.446 . S
C1607 C1630 1.391 . S
C1608 C1607 1.446 . S
C1608 C1609 1.339 . S
C1608 H1637 0.949 . S
C1609 C1608 1.339 . S
C1609 C1610 1.439 . S
C1609 H1638 0.950 . S
C1610 N1606 1.383 . S
C1610 C1609 1.439 . S
C1610 C1628 1.392 . S
N1611 Co1595 2.282 . S
N1611 C1614 1.332 . S
N1611 C1616 1.332 . S
C1612 C1613 1.386 . S
C1612 C1615 1.388 . S
C1613 C1612 1.386 . S
C1613 C1614 1.382 . S
C1613 H1639 0.950 . S
C1614 N1611 1.332 . S
C1614 C1613 1.382 . S
C1614 H1625 0.952 . S
C1615 C1612 1.388 . S
C1615 C1616 1.382 . S
C1615 H1640 0.950 . S
C1616 N1611 1.332 . S
C1616 C1615 1.382 . S
C1616 H1626 0.948 . S
N1617 Co1595 2.282 . S
N1617 C1621 1.332 . S
N1617 C1622 1.332 . S
C1618 C1619 1.388 . S
C1618 C1622 1.382 . S
C1618 H1641 0.950 . S
C1619 C1618 1.388 . S
C1619 C1620 1.386 . S
C1620 C1619 1.386 . S
C1620 C1621 1.382 . S
C1620 H1642 0.950 . S
C1621 N1617 1.332 . S
C1621 C1620 1.382 . S
C1621 H1623 0.952 . S
C1622 N1617 1.332 . S
C1622 C1618 1.382 . S
C1622 H1624 0.948 . S
H1623 C1621 0.952 . S
H1624 C1622 0.948 . S
H1625 C1614 0.952 . S
H1626 C1616 0.948 . S
C1627 C1593 1.395 . S
C1627 C1597 1.391 . S
C1628 C1590 1.389 . S
C1628 C1610 1.392 . S
C1629 C1600 1.392 . S
C1629 C1602 1.389 . S
C1630 C1605 1.395 . S
C1630 C1607 1.391 . S
H1631 C1591 0.951 . S
H1632 C1592 0.950 . S
H1633 C1598 0.949 . S
H1634 C1599 0.950 . S
H1635 C1603 0.951 . S
H1636 C1604 0.950 . S
H1637 C1608 0.949 . S
H1638 C1609 0.950 . S
H1639 C1613 0.950 . S
H1640 C1615 0.950 . S
H1641 C1618 0.950 . S
H1642 C1620 0.950 . S
C1643 C1644 1.443 . S
C1643 N1647 1.376 . S
C1643 C1681 1.389 . S
C1644 C1643 1.443 . S
C1644 C1645 1.340 . S
C1644 H1684 0.951 . S
C1645 C1644 1.340 . S
C1645 C1646 1.439 . S
C1645 H1685 0.950 . S
C1646 C1645 1.439 . S
C1646 N1647 1.374 . S
C1646 C1680 1.395 . S
N1647 C1643 1.376 . S
N1647 C1646 1.374 . S
N1647 Co1648 2.008 . S
Co1648 N1647 2.008 . S
Co1648 N1649 1.995 . S
Co1648 N1654 2.008 . S
Co1648 N1659 1.995 . S
Co1648 N1664 2.282 . S
Co1648 N1670 2.282 . S
N1649 Co1648 1.995 . S
N1649 C1650 1.376 . S
N1649 C1653 1.383 . S
C1650 N1649 1.376 . S
C1650 C1651 1.446 . S
C1650 C1680 1.391 . S
C1651 C1650 1.446 . S
C1651 C1652 1.339 . S
C1651 H1686 0.949 . S
C1652 C1651 1.339 . S
C1652 C1653 1.439 . S
C1652 H1687 0.950 . S
C1653 N1649 1.383 . S
C1653 C1652 1.439 . S
C1653 C1682 1.392 . S
N1654 Co1648 2.008 . S
N1654 C1655 1.376 . S
N1654 C1658 1.374 . S
C1655 N1654 1.376 . S
C1655 C1656 1.443 . S
C1655 C1682 1.389 . S
C1656 C1655 1.443 . S
C1656 C1657 1.340 . S
C1656 H1688 0.951 . S
C1657 C1656 1.340 . S
C1657 C1658 1.439 . S
C1657 H1689 0.950 . S
C1658 N1654 1.374 . S
C1658 C1657 1.439 . S
C1658 C1683 1.395 . S
N1659 Co1648 1.995 . S
N1659 C1660 1.376 . S
N1659 C1663 1.383 . S
C1660 N1659 1.376 . S
C1660 C1661 1.446 . S
C1660 C1683 1.391 . S
C1661 C1660 1.446 . S
C1661 C1662 1.339 . S
C1661 H1690 0.949 . S
C1662 C1661 1.339 . S
C1662 C1663 1.439 . S
C1662 H1691 0.950 . S
C1663 N1659 1.383 . S
C1663 C1662 1.439 . S
C1663 C1681 1.392 . S
N1664 Co1648 2.282 . S
N1664 C1667 1.332 . S
N1664 C1669 1.332 . S
C1665 C1666 1.386 . S
C1665 C1668 1.388 . S
C1666 C1665 1.386 . S
C1666 C1667 1.382 . S
C1666 H1692 0.950 . S
C1667 N1664 1.332 . S
C1667 C1666 1.382 . S
C1667 H1678 0.952 . S
C1668 C1665 1.388 . S
C1668 C1669 1.382 . S
C1668 H1693 0.950 . S
C1669 N1664 1.332 . S
C1669 C1668 1.382 . S
C1669 H1679 0.948 . S
N1670 Co1648 2.282 . S
N1670 C1674 1.332 . S
N1670 C1675 1.332 . S
C1671 C1672 1.388 . S
C1671 C1675 1.382 . S
C1671 H1694 0.950 . S
C1672 C1671 1.388 . S
C1672 C1673 1.386 . S
C1673 C1672 1.386 . S
C1673 C1674 1.382 . S
C1673 H1695 0.950 . S
C1674 N1670 1.332 . S
C1674 C1673 1.382 . S
C1674 H1676 0.952 . S
C1675 N1670 1.332 . S
C1675 C1671 1.382 . S
C1675 H1677 0.948 . S
H1676 C1674 0.952 . S
H1677 C1675 0.948 . S
H1678 C1667 0.952 . S
H1679 C1669 0.948 . S
C1680 C1646 1.395 . S
C1680 C1650 1.391 . S
C1681 C1643 1.389 . S
C1681 C1663 1.392 . S
C1682 C1653 1.392 . S
C1682 C1655 1.389 . S
C1683 C1658 1.395 . S
C1683 C1660 1.391 . S
H1684 C1644 0.951 . S
H1685 C1645 0.950 . S
H1686 C1651 0.949 . S
H1687 C1652 0.950 . S
H1688 C1656 0.951 . S
H1689 C1657 0.950 . S
H1690 C1661 0.949 . S
H1691 C1662 0.950 . S
H1692 C1666 0.950 . S
H1693 C1668 0.950 . S
H1694 C1671 0.950 . S
H1695 C1673 0.950 . S
H1696 C1704 0.929 . S
H1697 C1706 0.930 . S
H1698 C1708 0.930 . S
H1699 C1711 0.929 . S
H1700 C1714 0.930 . S
H1701 C1716 0.960 . S
H1702 C1716 0.960 . S
H1703 C1716 0.960 . S
C1704 H1696 0.929 . S
C1704 C1705 1.377 . S
C1704 C1706 1.384 . S
C1705 C1704 1.377 . S
C1705 C1711 1.390 . S
C1706 H1697 0.930 . S
C1706 C1704 1.384 . S
C1706 C1707 1.372 . S
C1707 C1706 1.372 . S
C1707 C1708 1.400 . S
C1707 C1712 1.490 . S
C1708 H1698 0.930 . S
C1708 C1707 1.400 . S
C1708 C1711 1.386 . S
H1709 C1725 0.930 . S
H1710 C1726 0.931 . S
C1711 H1699 0.929 . S
C1711 C1705 1.390 . S
C1711 C1708 1.386 . S
C1712 C1707 1.490 . S
C1712 C1714 1.395 . S
C1712 C1715 1.403 . S
H1713 C1719 0.930 . S
C1714 H1700 0.930 . S
C1714 C1712 1.395 . S
C1714 C1717 1.403 . S
C1715 C1712 1.403 . S
C1715 C1716 1.524 . S
C1715 C1719 1.400 . S
C1716 H1701 0.960 . S
C1716 H1702 0.960 . S
C1716 H1703 0.960 . S
C1716 C1715 1.524 . S
C1717 C1714 1.403 . S
C1717 C1718 1.392 . S
C1717 C1721 1.495 . S
C1718 C1717 1.392 . S
C1718 C1719 1.385 . S
C1718 C1720 1.478 . S
C1719 H1713 0.930 . S
C1719 C1715 1.400 . S
C1719 C1718 1.385 . S
C1720 C1718 1.478 . S
C1720 C1722 1.381 . S
C1720 C1726 1.383 . S
C1721 C1717 1.495 . S
C1721 H1727 0.959 . S
C1721 H1728 0.961 . S
C1721 H1729 0.960 . S
C1722 C1720 1.381 . S
C1722 C1723 1.394 . S
C1722 H1730 0.930 . S
C1723 C1722 1.394 . S
C1723 C1724 1.383 . S
C1723 H1731 0.929 . S
C1724 C1723 1.383 . S
C1724 C1725 1.377 . S
C1725 H1709 0.930 . S
C1725 C1724 1.377 . S
C1725 C1726 1.379 . S
C1726 H1710 0.931 . S
C1726 C1720 1.383 . S
C1726 C1725 1.379 . S
H1727 C1721 0.959 . S
H1728 C1721 0.961 . S
H1729 C1721 0.960 . S
H1730 C1722 0.930 . S
H1731 C1723 0.929 . S
H1732 C1740 0.929 . S
H1733 C1742 0.930 . S
H1734 C1744 0.930 . S
H1735 C1747 0.929 . S
H1736 C1750 0.930 . S
H1737 C1752 0.960 . S
H1738 C1752 0.960 . S
H1739 C1752 0.960 . S
C1740 H1732 0.929 . S
C1740 C1741 1.377 . S
C1740 C1742 1.384 . S
C1741 C1740 1.377 . S
C1741 C1747 1.390 . S
C1742 H1733 0.930 . S
C1742 C1740 1.384 . S
C1742 C1743 1.372 . S
C1743 C1742 1.372 . S
C1743 C1744 1.400 . S
C1743 C1748 1.490 . S
C1744 H1734 0.930 . S
C1744 C1743 1.400 . S
C1744 C1747 1.386 . S
H1745 C1761 0.930 . S
H1746 C1762 0.931 . S
C1747 H1735 0.929 . S
C1747 C1741 1.390 . S
C1747 C1744 1.386 . S
C1748 C1743 1.490 . S
C1748 C1750 1.395 . S
C1748 C1751 1.403 . S
H1749 C1755 0.930 . S
C1750 H1736 0.930 . S
C1750 C1748 1.395 . S
C1750 C1753 1.403 . S
C1751 C1748 1.403 . S
C1751 C1752 1.524 . S
C1751 C1755 1.400 . S
C1752 H1737 0.960 . S
C1752 H1738 0.960 . S
C1752 H1739 0.960 . S
C1752 C1751 1.524 . S
C1753 C1750 1.403 . S
C1753 C1754 1.392 . S
C1753 C1757 1.495 . S
C1754 C1753 1.392 . S
C1754 C1755 1.385 . S
C1754 C1756 1.478 . S
C1755 H1749 0.930 . S
C1755 C1751 1.400 . S
C1755 C1754 1.385 . S
C1756 C1754 1.478 . S
C1756 C1758 1.381 . S
C1756 C1762 1.383 . S
C1757 C1753 1.495 . S
C1757 H1763 0.959 . S
C1757 H1764 0.961 . S
C1757 H1765 0.960 . S
C1758 C1756 1.381 . S
C1758 C1759 1.394 . S
C1758 H1766 0.930 . S
C1759 C1758 1.394 . S
C1759 C1760 1.383 . S
C1759 H1767 0.929 . S
C1760 C1759 1.383 . S
C1760 C1761 1.377 . S
C1761 H1745 0.930 . S
C1761 C1760 1.377 . S
C1761 C1762 1.379 . S
C1762 H1746 0.931 . S
C1762 C1756 1.383 . S
C1762 C1761 1.379 . S
H1763 C1757 0.959 . S
H1764 C1757 0.961 . S
H1765 C1757 0.960 . S
H1766 C1758 0.930 . S
H1767 C1759 0.929 . S
H1768 C1776 0.929 . S
H1769 C1778 0.930 . S
H1770 C1780 0.930 . S
H1771 C1783 0.929 . S
H1772 C1786 0.930 . S
H1773 C1788 0.960 . S
H1774 C1788 0.960 . S
H1775 C1788 0.960 . S
C1776 H1768 0.929 . S
C1776 C1777 1.377 . S
C1776 C1778 1.384 . S
C1777 C1776 1.377 . S
C1777 C1783 1.390 . S
C1778 H1769 0.930 . S
C1778 C1776 1.384 . S
C1778 C1779 1.372 . S
C1779 C1778 1.372 . S
C1779 C1780 1.400 . S
C1779 C1784 1.490 . S
C1780 H1770 0.930 . S
C1780 C1779 1.400 . S
C1780 C1783 1.386 . S
H1781 C1797 0.930 . S
H1782 C1798 0.931 . S
C1783 H1771 0.929 . S
C1783 C1777 1.390 . S
C1783 C1780 1.386 . S
C1784 C1779 1.490 . S
C1784 C1786 1.395 . S
C1784 C1787 1.403 . S
H1785 C1791 0.930 . S
C1786 H1772 0.930 . S
C1786 C1784 1.395 . S
C1786 C1789 1.403 . S
C1787 C1784 1.403 . S
C1787 C1788 1.524 . S
C1787 C1791 1.400 . S
C1788 H1773 0.960 . S
C1788 H1774 0.960 . S
C1788 H1775 0.960 . S
C1788 C1787 1.524 . S
C1789 C1786 1.403 . S
C1789 C1790 1.392 . S
C1789 C1793 1.495 . S
C1790 C1789 1.392 . S
C1790 C1791 1.385 . S
C1790 C1792 1.478 . S
C1791 H1785 0.930 . S
C1791 C1787 1.400 . S
C1791 C1790 1.385 . S
C1792 C1790 1.478 . S
C1792 C1794 1.381 . S
C1792 C1798 1.383 . S
C1793 C1789 1.495 . S
C1793 H1799 0.959 . S
C1793 H1800 0.961 . S
C1793 H1801 0.960 . S
C1794 C1792 1.381 . S
C1794 C1795 1.394 . S
C1794 H1802 0.930 . S
C1795 C1794 1.394 . S
C1795 C1796 1.383 . S
C1795 H1803 0.929 . S
C1796 C1795 1.383 . S
C1796 C1797 1.377 . S
C1797 H1781 0.930 . S
C1797 C1796 1.377 . S
C1797 C1798 1.379 . S
C1798 H1782 0.931 . S
C1798 C1792 1.383 . S
C1798 C1797 1.379 . S
H1799 C1793 0.959 . S
H1800 C1793 0.961 . S
H1801 C1793 0.960 . S
H1802 C1794 0.930 . S
H1803 C1795 0.929 . S
H1804 C1812 0.929 . S
H1805 C1814 0.930 . S
H1806 C1816 0.930 . S
H1807 C1819 0.929 . S
H1808 C1822 0.930 . S
H1809 C1824 0.960 . S
H1810 C1824 0.960 . S
H1811 C1824 0.960 . S
C1812 H1804 0.929 . S
C1812 C1813 1.377 . S
C1812 C1814 1.384 . S
C1813 C1812 1.377 . S
C1813 C1819 1.390 . S
C1814 H1805 0.930 . S
C1814 C1812 1.384 . S
C1814 C1815 1.372 . S
C1815 C1814 1.372 . S
C1815 C1816 1.400 . S
C1815 C1820 1.490 . S
C1816 H1806 0.930 . S
C1816 C1815 1.400 . S
C1816 C1819 1.386 . S
H1817 C1833 0.930 . S
H1818 C1834 0.931 . S
C1819 H1807 0.929 . S
C1819 C1813 1.390 . S
C1819 C1816 1.386 . S
C1820 C1815 1.490 . S
C1820 C1822 1.395 . S
C1820 C1823 1.403 . S
H1821 C1827 0.930 . S
C1822 H1808 0.930 . S
C1822 C1820 1.395 . S
C1822 C1825 1.403 . S
C1823 C1820 1.403 . S
C1823 C1824 1.524 . S
C1823 C1827 1.400 . S
C1824 H1809 0.960 . S
C1824 H1810 0.960 . S
C1824 H1811 0.960 . S
C1824 C1823 1.524 . S
C1825 C1822 1.403 . S
C1825 C1826 1.392 . S
C1825 C1829 1.495 . S
C1826 C1825 1.392 . S
C1826 C1827 1.385 . S
C1826 C1828 1.478 . S
C1827 H1821 0.930 . S
C1827 C1823 1.400 . S
C1827 C1826 1.385 . S
C1828 C1826 1.478 . S
C1828 C1830 1.381 . S
C1828 C1834 1.383 . S
C1829 C1825 1.495 . S
C1829 H1835 0.959 . S
C1829 H1836 0.961 . S
C1829 H1837 0.960 . S
C1830 C1828 1.381 . S
C1830 C1831 1.394 . S
C1830 H1838 0.930 . S
C1831 C1830 1.394 . S
C1831 C1832 1.383 . S
C1831 H1839 0.929 . S
C1832 C1831 1.383 . S
C1832 C1833 1.377 . S
C1833 H1817 0.930 . S
C1833 C1832 1.377 . S
C1833 C1834 1.379 . S
C1834 H1818 0.931 . S
C1834 C1828 1.383 . S
C1834 C1833 1.379 . S
H1835 C1829 0.959 . S
H1836 C1829 0.961 . S
H1837 C1829 0.960 . S
H1838 C1830 0.930 . S
H1839 C1831 0.929 . S
H1840 C1848 0.929 . S
H1841 C1850 0.930 . S
H1842 C1852 0.930 . S
H1843 C1855 0.929 . S
H1844 C1858 0.930 . S
H1845 C1860 0.960 . S
H1846 C1860 0.960 . S
H1847 C1860 0.960 . S
C1848 H1840 0.929 . S
C1848 C1849 1.377 . S
C1848 C1850 1.384 . S
C1849 C1848 1.377 . S
C1849 C1855 1.390 . S
C1850 H1841 0.930 . S
C1850 C1848 1.384 . S
C1850 C1851 1.372 . S
C1851 C1850 1.372 . S
C1851 C1852 1.400 . S
C1851 C1856 1.490 . S
C1852 H1842 0.930 . S
C1852 C1851 1.400 . S
C1852 C1855 1.386 . S
H1853 C1869 0.930 . S
H1854 C1870 0.931 . S
C1855 H1843 0.929 . S
C1855 C1849 1.390 . S
C1855 C1852 1.386 . S
C1856 C1851 1.490 . S
C1856 C1858 1.395 . S
C1856 C1859 1.403 . S
H1857 C1863 0.930 . S
C1858 H1844 0.930 . S
C1858 C1856 1.395 . S
C1858 C1861 1.403 . S
C1859 C1856 1.403 . S
C1859 C1860 1.524 . S
C1859 C1863 1.400 . S
C1860 H1845 0.960 . S
C1860 H1846 0.960 . S
C1860 H1847 0.960 . S
C1860 C1859 1.524 . S
C1861 C1858 1.403 . S
C1861 C1862 1.392 . S
C1861 C1865 1.495 . S
C1862 C1861 1.392 . S
C1862 C1863 1.385 . S
C1862 C1864 1.478 . S
C1863 H1857 0.930 . S
C1863 C1859 1.400 . S
C1863 C1862 1.385 . S
C1864 C1862 1.478 . S
C1864 C1866 1.381 . S
C1864 C1870 1.383 . S
C1865 C1861 1.495 . S
C1865 H1871 0.959 . S
C1865 H1872 0.961 . S
C1865 H1873 0.960 . S
C1866 C1864 1.381 . S
C1866 C1867 1.394 . S
C1866 H1874 0.930 . S
C1867 C1866 1.394 . S
C1867 C1868 1.383 . S
C1867 H1875 0.929 . S
C1868 C1867 1.383 . S
C1868 C1869 1.377 . S
C1869 H1853 0.930 . S
C1869 C1868 1.377 . S
C1869 C1870 1.379 . S
C1870 H1854 0.931 . S
C1870 C1864 1.383 . S
C1870 C1869 1.379 . S
H1871 C1865 0.959 . S
H1872 C1865 0.961 . S
H1873 C1865 0.960 . S
H1874 C1866 0.930 . S
H1875 C1867 0.929 . S
H1876 C1884 0.929 . S
H1877 C1886 0.930 . S
H1878 C1888 0.930 . S
H1879 C1891 0.929 . S
H1880 C1894 0.930 . S
H1881 C1896 0.960 . S
H1882 C1896 0.960 . S
H1883 C1896 0.960 . S
C1884 H1876 0.929 . S
C1884 C1885 1.377 . S
C1884 C1886 1.384 . S
C1885 C1884 1.377 . S
C1885 C1891 1.390 . S
C1886 H1877 0.930 . S
C1886 C1884 1.384 . S
C1886 C1887 1.372 . S
C1887 C1886 1.372 . S
C1887 C1888 1.400 . S
C1887 C1892 1.490 . S
C1888 H1878 0.930 . S
C1888 C1887 1.400 . S
C1888 C1891 1.386 . S
H1889 C1905 0.930 . S
H1890 C1906 0.931 . S
C1891 H1879 0.929 . S
C1891 C1885 1.390 . S
C1891 C1888 1.386 . S
C1892 C1887 1.490 . S
C1892 C1894 1.395 . S
C1892 C1895 1.403 . S
H1893 C1899 0.930 . S
C1894 H1880 0.930 . S
C1894 C1892 1.395 . S
C1894 C1897 1.403 . S
C1895 C1892 1.403 . S
C1895 C1896 1.524 . S
C1895 C1899 1.400 . S
C1896 H1881 0.960 . S
C1896 H1882 0.960 . S
C1896 H1883 0.960 . S
C1896 C1895 1.524 . S
C1897 C1894 1.403 . S
C1897 C1898 1.392 . S
C1897 C1901 1.495 . S
C1898 C1897 1.392 . S
C1898 C1899 1.385 . S
C1898 C1900 1.478 . S
C1899 H1893 0.930 . S
C1899 C1895 1.400 . S
C1899 C1898 1.385 . S
C1900 C1898 1.478 . S
C1900 C1902 1.381 . S
C1900 C1906 1.383 . S
C1901 C1897 1.495 . S
C1901 H1907 0.959 . S
C1901 H1908 0.961 . S
C1901 H1909 0.960 . S
C1902 C1900 1.381 . S
C1902 C1903 1.394 . S
C1902 H1910 0.930 . S
C1903 C1902 1.394 . S
C1903 C1904 1.383 . S
C1903 H1911 0.929 . S
C1904 C1903 1.383 . S
C1904 C1905 1.377 . S
C1905 H1889 0.930 . S
C1905 C1904 1.377 . S
C1905 C1906 1.379 . S
C1906 H1890 0.931 . S
C1906 C1900 1.383 . S
C1906 C1905 1.379 . S
H1907 C1901 0.959 . S
H1908 C1901 0.961 . S
H1909 C1901 0.960 . S
H1910 C1902 0.930 . S
H1911 C1903 0.929 . S
H1912 C1920 0.929 . S
H1913 C1922 0.930 . S
H1914 C1924 0.930 . S
H1915 C1927 0.929 . S
H1916 C1930 0.930 . S
H1917 C1932 0.960 . S
H1918 C1932 0.960 . S
H1919 C1932 0.960 . S
C1920 H1912 0.929 . S
C1920 C1921 1.377 . S
C1920 C1922 1.384 . S
C1921 C1920 1.377 . S
C1921 C1927 1.390 . S
C1922 H1913 0.930 . S
C1922 C1920 1.384 . S
C1922 C1923 1.372 . S
C1923 C1922 1.372 . S
C1923 C1924 1.400 . S
C1923 C1928 1.490 . S
C1924 H1914 0.930 . S
C1924 C1923 1.400 . S
C1924 C1927 1.386 . S
H1925 C1941 0.930 . S
H1926 C1942 0.931 . S
C1927 H1915 0.929 . S
C1927 C1921 1.390 . S
C1927 C1924 1.386 . S
C1928 C1923 1.490 . S
C1928 C1930 1.395 . S
C1928 C1931 1.403 . S
H1929 C1935 0.930 . S
C1930 H1916 0.930 . S
C1930 C1928 1.395 . S
C1930 C1933 1.403 . S
C1931 C1928 1.403 . S
C1931 C1932 1.524 . S
C1931 C1935 1.400 . S
C1932 H1917 0.960 . S
C1932 H1918 0.960 . S
C1932 H1919 0.960 . S
C1932 C1931 1.524 . S
C1933 C1930 1.403 . S
C1933 C1934 1.392 . S
C1933 C1937 1.495 . S
C1934 C1933 1.392 . S
C1934 C1935 1.385 . S
C1934 C1936 1.478 . S
C1935 H1929 0.930 . S
C1935 C1931 1.400 . S
C1935 C1934 1.385 . S
C1936 C1934 1.478 . S
C1936 C1938 1.381 . S
C1936 C1942 1.383 . S
C1937 C1933 1.495 . S
C1937 H1943 0.959 . S
C1937 H1944 0.961 . S
C1937 H1945 0.960 . S
C1938 C1936 1.381 . S
C1938 C1939 1.394 . S
C1938 H1946 0.930 . S
C1939 C1938 1.394 . S
C1939 C1940 1.383 . S
C1939 H1947 0.929 . S
C1940 C1939 1.383 . S
C1940 C1941 1.377 . S
C1941 H1925 0.930 . S
C1941 C1940 1.377 . S
C1941 C1942 1.379 . S
C1942 H1926 0.931 . S
C1942 C1936 1.383 . S
C1942 C1941 1.379 . S
H1943 C1937 0.959 . S
H1944 C1937 0.961 . S
H1945 C1937 0.960 . S
H1946 C1938 0.930 . S
H1947 C1939 0.929 . S
H1948 C1956 0.929 . S
H1949 C1958 0.930 . S
H1950 C1960 0.930 . S
H1951 C1963 0.929 . S
H1952 C1966 0.930 . S
H1953 C1968 0.960 . S
H1954 C1968 0.960 . S
H1955 C1968 0.960 . S
C1956 H1948 0.929 . S
C1956 C1957 1.377 . S
C1956 C1958 1.384 . S
C1957 C1956 1.377 . S
C1957 C1963 1.390 . S
C1958 H1949 0.930 . S
C1958 C1956 1.384 . S
C1958 C1959 1.372 . S
C1959 C1958 1.372 . S
C1959 C1960 1.400 . S
C1959 C1964 1.490 . S
C1960 H1950 0.930 . S
C1960 C1959 1.400 . S
C1960 C1963 1.386 . S
H1961 C1977 0.930 . S
H1962 C1978 0.931 . S
C1963 H1951 0.929 . S
C1963 C1957 1.390 . S
C1963 C1960 1.386 . S
C1964 C1959 1.490 . S
C1964 C1966 1.395 . S
C1964 C1967 1.403 . S
H1965 C1971 0.930 . S
C1966 H1952 0.930 . S
C1966 C1964 1.395 . S
C1966 C1969 1.403 . S
C1967 C1964 1.403 . S
C1967 C1968 1.524 . S
C1967 C1971 1.400 . S
C1968 H1953 0.960 . S
C1968 H1954 0.960 . S
C1968 H1955 0.960 . S
C1968 C1967 1.524 . S
C1969 C1966 1.403 . S
C1969 C1970 1.392 . S
C1969 C1973 1.495 . S
C1970 C1969 1.392 . S
C1970 C1971 1.385 . S
C1970 C1972 1.478 . S
C1971 H1965 0.930 . S
C1971 C1967 1.400 . S
C1971 C1970 1.385 . S
C1972 C1970 1.478 . S
C1972 C1974 1.381 . S
C1972 C1978 1.383 . S
C1973 C1969 1.495 . S
C1973 H1979 0.959 . S
C1973 H1980 0.961 . S
C1973 H1981 0.960 . S
C1974 C1972 1.381 . S
C1974 C1975 1.394 . S
C1974 H1982 0.930 . S
C1975 C1974 1.394 . S
C1975 C1976 1.383 . S
C1975 H1983 0.929 . S
C1976 C1975 1.383 . S
C1976 C1977 1.377 . S
C1977 H1961 0.930 . S
C1977 C1976 1.377 . S
C1977 C1978 1.379 . S
C1978 H1962 0.931 . S
C1978 C1972 1.383 . S
C1978 C1977 1.379 . S
H1979 C1973 0.959 . S
H1980 C1973 0.961 . S
H1981 C1973 0.960 . S
H1982 C1974 0.930 . S
H1983 C1975 0.929 . S
H1984 C1992 0.929 . S
H1985 C1994 0.930 . S
H1986 C1996 0.930 . S
H1987 C1999 0.929 . S
H1988 C2002 0.930 . S
H1989 C2004 0.960 . S
H1990 C2004 0.960 . S
H1991 C2004 0.960 . S
C1992 H1984 0.929 . S
C1992 C1993 1.377 . S
C1992 C1994 1.384 . S
C1993 C1992 1.377 . S
C1993 C1999 1.390 . S
C1994 H1985 0.930 . S
C1994 C1992 1.384 . S
C1994 C1995 1.372 . S
C1995 C1994 1.372 . S
C1995 C1996 1.400 . S
C1995 C2000 1.490 . S
C1996 H1986 0.930 . S
C1996 C1995 1.400 . S
C1996 C1999 1.386 . S
H1997 C2013 0.930 . S
H1998 C2014 0.931 . S
C1999 H1987 0.929 . S
C1999 C1993 1.390 . S
C1999 C1996 1.386 . S
C2000 C1995 1.490 . S
C2000 C2002 1.395 . S
C2000 C2003 1.403 . S
H2001 C2007 0.930 . S
C2002 H1988 0.930 . S
C2002 C2000 1.395 . S
C2002 C2005 1.403 . S
C2003 C2000 1.403 . S
C2003 C2004 1.524 . S
C2003 C2007 1.400 . S
C2004 H1989 0.960 . S
C2004 H1990 0.960 . S
C2004 H1991 0.960 . S
C2004 C2003 1.524 . S
C2005 C2002 1.403 . S
C2005 C2006 1.392 . S
C2005 C2009 1.495 . S
C2006 C2005 1.392 . S
C2006 C2007 1.385 . S
C2006 C2008 1.478 . S
C2007 H2001 0.930 . S
C2007 C2003 1.400 . S
C2007 C2006 1.385 . S
C2008 C2006 1.478 . S
C2008 C2010 1.381 . S
C2008 C2014 1.383 . S
C2009 C2005 1.495 . S
C2009 H2015 0.959 . S
C2009 H2016 0.961 . S
C2009 H2017 0.960 . S
C2010 C2008 1.381 . S
C2010 C2011 1.394 . S
C2010 H2018 0.930 . S
C2011 C2010 1.394 . S
C2011 C2012 1.383 . S
C2011 H2019 0.929 . S
C2012 C2011 1.383 . S
C2012 C2013 1.377 . S
C2013 H1997 0.930 . S
C2013 C2012 1.377 . S
C2013 C2014 1.379 . S
C2014 H1998 0.931 . S
C2014 C2008 1.383 . S
C2014 C2013 1.379 . S
H2015 C2009 0.959 . S
H2016 C2009 0.961 . S
H2017 C2009 0.960 . S
H2018 C2010 0.930 . S
H2019 C2011 0.929 . S
H2020 C2028 0.929 . S
H2021 C2030 0.930 . S
H2022 C2032 0.930 . S
H2023 C2035 0.929 . S
H2024 C2038 0.930 . S
H2025 C2040 0.960 . S
H2026 C2040 0.960 . S
H2027 C2040 0.960 . S
C2028 H2020 0.929 . S
C2028 C2029 1.377 . S
C2028 C2030 1.384 . S
C2029 C2028 1.377 . S
C2029 C2035 1.390 . S
C2030 H2021 0.930 . S
C2030 C2028 1.384 . S
C2030 C2031 1.372 . S
C2031 C2030 1.372 . S
C2031 C2032 1.400 . S
C2031 C2036 1.490 . S
C2032 H2022 0.930 . S
C2032 C2031 1.400 . S
C2032 C2035 1.386 . S
H2033 C2049 0.930 . S
H2034 C2050 0.931 . S
C2035 H2023 0.929 . S
C2035 C2029 1.390 . S
C2035 C2032 1.386 . S
C2036 C2031 1.490 . S
C2036 C2038 1.395 . S
C2036 C2039 1.403 . S
H2037 C2043 0.930 . S
C2038 H2024 0.930 . S
C2038 C2036 1.395 . S
C2038 C2041 1.403 . S
C2039 C2036 1.403 . S
C2039 C2040 1.524 . S
C2039 C2043 1.400 . S
C2040 H2025 0.960 . S
C2040 H2026 0.960 . S
C2040 H2027 0.960 . S
C2040 C2039 1.524 . S
C2041 C2038 1.403 . S
C2041 C2042 1.392 . S
C2041 C2045 1.495 . S
C2042 C2041 1.392 . S
C2042 C2043 1.385 . S
C2042 C2044 1.478 . S
C2043 H2037 0.930 . S
C2043 C2039 1.400 . S
C2043 C2042 1.385 . S
C2044 C2042 1.478 . S
C2044 C2046 1.381 . S
C2044 C2050 1.383 . S
C2045 C2041 1.495 . S
C2045 H2051 0.959 . S
C2045 H2052 0.961 . S
C2045 H2053 0.960 . S
C2046 C2044 1.381 . S
C2046 C2047 1.394 . S
C2046 H2054 0.930 . S
C2047 C2046 1.394 . S
C2047 C2048 1.383 . S
C2047 H2055 0.929 . S
C2048 C2047 1.383 . S
C2048 C2049 1.377 . S
C2049 H2033 0.930 . S
C2049 C2048 1.377 . S
C2049 C2050 1.379 . S
C2050 H2034 0.931 . S
C2050 C2044 1.383 . S
C2050 C2049 1.379 . S
H2051 C2045 0.959 . S
H2052 C2045 0.961 . S
H2053 C2045 0.960 . S
H2054 C2046 0.930 . S
H2055 C2047 0.929 . S
H2056 C2064 0.929 . S
H2057 C2066 0.930 . S
H2058 C2068 0.930 . S
H2059 C2071 0.929 . S
H2060 C2074 0.930 . S
H2061 C2076 0.960 . S
H2062 C2076 0.960 . S
H2063 C2076 0.960 . S
C2064 H2056 0.929 . S
C2064 C2065 1.377 . S
C2064 C2066 1.384 . S
C2065 C2064 1.377 . S
C2065 C2071 1.390 . S
C2066 H2057 0.930 . S
C2066 C2064 1.384 . S
C2066 C2067 1.372 . S
C2067 C2066 1.372 . S
C2067 C2068 1.400 . S
C2067 C2072 1.490 . S
C2068 H2058 0.930 . S
C2068 C2067 1.400 . S
C2068 C2071 1.386 . S
H2069 C2085 0.930 . S
H2070 C2086 0.931 . S
C2071 H2059 0.929 . S
C2071 C2065 1.390 . S
C2071 C2068 1.386 . S
C2072 C2067 1.490 . S
C2072 C2074 1.395 . S
C2072 C2075 1.403 . S
H2073 C2079 0.930 . S
C2074 H2060 0.930 . S
C2074 C2072 1.395 . S
C2074 C2077 1.403 . S
C2075 C2072 1.403 . S
C2075 C2076 1.524 . S
C2075 C2079 1.400 . S
C2076 H2061 0.960 . S
C2076 H2062 0.960 . S
C2076 H2063 0.960 . S
C2076 C2075 1.524 . S
C2077 C2074 1.403 . S
C2077 C2078 1.392 . S
C2077 C2081 1.495 . S
C2078 C2077 1.392 . S
C2078 C2079 1.385 . S
C2078 C2080 1.478 . S
C2079 H2073 0.930 . S
C2079 C2075 1.400 . S
C2079 C2078 1.385 . S
C2080 C2078 1.478 . S
C2080 C2082 1.381 . S
C2080 C2086 1.383 . S
C2081 C2077 1.495 . S
C2081 H2087 0.959 . S
C2081 H2088 0.961 . S
C2081 H2089 0.960 . S
C2082 C2080 1.381 . S
C2082 C2083 1.394 . S
C2082 H2090 0.930 . S
C2083 C2082 1.394 . S
C2083 C2084 1.383 . S
C2083 H2091 0.929 . S
C2084 C2083 1.383 . S
C2084 C2085 1.377 . S
C2085 H2069 0.930 . S
C2085 C2084 1.377 . S
C2085 C2086 1.379 . S
C2086 H2070 0.931 . S
C2086 C2080 1.383 . S
C2086 C2085 1.379 . S
H2087 C2081 0.959 . S
H2088 C2081 0.961 . S
H2089 C2081 0.960 . S
H2090 C2082 0.930 . S
H2091 C2083 0.929 . S
H2092 C2100 0.929 . S
H2093 C2102 0.930 . S
H2094 C2104 0.930 . S
H2095 C2107 0.929 . S
H2096 C2110 0.930 . S
H2097 C2112 0.960 . S
H2098 C2112 0.960 . S
H2099 C2112 0.960 . S
C2100 H2092 0.929 . S
C2100 C2101 1.377 . S
C2100 C2102 1.384 . S
C2101 C2100 1.377 . S
C2101 C2107 1.390 . S
C2102 H2093 0.930 . S
C2102 C2100 1.384 . S
C2102 C2103 1.372 . S
C2103 C2102 1.372 . S
C2103 C2104 1.400 . S
C2103 C2108 1.490 . S
C2104 H2094 0.930 . S
C2104 C2103 1.400 . S
C2104 C2107 1.386 . S
H2105 C2121 0.930 . S
H2106 C2122 0.931 . S
C2107 H2095 0.929 . S
C2107 C2101 1.390 . S
C2107 C2104 1.386 . S
C2108 C2103 1.490 . S
C2108 C2110 1.395 . S
C2108 C2111 1.403 . S
H2109 C2115 0.930 . S
C2110 H2096 0.930 . S
C2110 C2108 1.395 . S
C2110 C2113 1.403 . S
C2111 C2108 1.403 . S
C2111 C2112 1.524 . S
C2111 C2115 1.400 . S
C2112 H2097 0.960 . S
C2112 H2098 0.960 . S
C2112 H2099 0.960 . S
C2112 C2111 1.524 . S
C2113 C2110 1.403 . S
C2113 C2114 1.392 . S
C2113 C2117 1.495 . S
C2114 C2113 1.392 . S
C2114 C2115 1.385 . S
C2114 C2116 1.478 . S
C2115 H2109 0.930 . S
C2115 C2111 1.400 . S
C2115 C2114 1.385 . S
C2116 C2114 1.478 . S
C2116 C2118 1.381 . S
C2116 C2122 1.383 . S
C2117 C2113 1.495 . S
C2117 H2123 0.959 . S
C2117 H2124 0.961 . S
C2117 H2125 0.960 . S
C2118 C2116 1.381 . S
C2118 C2119 1.394 . S
C2118 H2126 0.930 . S
C2119 C2118 1.394 . S
C2119 C2120 1.383 . S
C2119 H2127 0.929 . S
C2120 C2119 1.383 . S
C2120 C2121 1.377 . S
C2121 H2105 0.930 . S
C2121 C2120 1.377 . S
C2121 C2122 1.379 . S
C2122 H2106 0.931 . S
C2122 C2116 1.383 . S
C2122 C2121 1.379 . S
H2123 C2117 0.959 . S
H2124 C2117 0.961 . S
H2125 C2117 0.960 . S
H2126 C2118 0.930 . S
H2127 C2119 0.929 . S
H2128 C2136 0.929 . S
H2129 C2138 0.930 . S
H2130 C2140 0.930 . S
H2131 C2143 0.929 . S
H2132 C2146 0.930 . S
H2133 C2148 0.960 . S
H2134 C2148 0.960 . S
H2135 C2148 0.960 . S
C2136 H2128 0.929 . S
C2136 C2137 1.377 . S
C2136 C2138 1.384 . S
C2137 C2136 1.377 . S
C2137 C2143 1.390 . S
C2138 H2129 0.930 . S
C2138 C2136 1.384 . S
C2138 C2139 1.372 . S
C2139 C2138 1.372 . S
C2139 C2140 1.400 . S
C2139 C2144 1.490 . S
C2140 H2130 0.930 . S
C2140 C2139 1.400 . S
C2140 C2143 1.386 . S
H2141 C2157 0.930 . S
H2142 C2158 0.931 . S
C2143 H2131 0.929 . S
C2143 C2137 1.390 . S
C2143 C2140 1.386 . S
C2144 C2139 1.490 . S
C2144 C2146 1.395 . S
C2144 C2147 1.403 . S
H2145 C2151 0.930 . S
C2146 H2132 0.930 . S
C2146 C2144 1.395 . S
C2146 C2149 1.403 . S
C2147 C2144 1.403 . S
C2147 C2148 1.524 . S
C2147 C2151 1.400 . S
C2148 H2133 0.960 . S
C2148 H2134 0.960 . S
C2148 H2135 0.960 . S
C2148 C2147 1.524 . S
C2149 C2146 1.403 . S
C2149 C2150 1.392 . S
C2149 C2153 1.495 . S
C2150 C2149 1.392 . S
C2150 C2151 1.385 . S
C2150 C2152 1.478 . S
C2151 H2145 0.930 . S
C2151 C2147 1.400 . S
C2151 C2150 1.385 . S
C2152 C2150 1.478 . S
C2152 C2154 1.381 . S
C2152 C2158 1.383 . S
C2153 C2149 1.495 . S
C2153 H2159 0.959 . S
C2153 H2160 0.961 . S
C2153 H2161 0.960 . S
C2154 C2152 1.381 . S
C2154 C2155 1.394 . S
C2154 H2162 0.930 . S
C2155 C2154 1.394 . S
C2155 C2156 1.383 . S
C2155 H2163 0.929 . S
C2156 C2155 1.383 . S
C2156 C2157 1.377 . S
C2157 H2141 0.930 . S
C2157 C2156 1.377 . S
C2157 C2158 1.379 . S
C2158 H2142 0.931 . S
C2158 C2152 1.383 . S
C2158 C2157 1.379 . S
H2159 C2153 0.959 . S
H2160 C2153 0.961 . S
H2161 C2153 0.960 . S
H2162 C2154 0.930 . S
H2163 C2155 0.929 . S
H2164 C2172 0.929 . S
H2165 C2174 0.930 . S
H2166 C2176 0.930 . S
H2167 C2179 0.929 . S
H2168 C2182 0.930 . S
H2169 C2184 0.960 . S
H2170 C2184 0.960 . S
H2171 C2184 0.960 . S
C2172 H2164 0.929 . S
C2172 C2173 1.377 . S
C2172 C2174 1.384 . S
C2173 C2172 1.377 . S
C2173 C2179 1.390 . S
C2174 H2165 0.930 . S
C2174 C2172 1.384 . S
C2174 C2175 1.372 . S
C2175 C2174 1.372 . S
C2175 C2176 1.400 . S
C2175 C2180 1.490 . S
C2176 H2166 0.930 . S
C2176 C2175 1.400 . S
C2176 C2179 1.386 . S
H2177 C2193 0.930 . S
H2178 C2194 0.931 . S
C2179 H2167 0.929 . S
C2179 C2173 1.390 . S
C2179 C2176 1.386 . S
C2180 C2175 1.490 . S
C2180 C2182 1.395 . S
C2180 C2183 1.403 . S
H2181 C2187 0.930 . S
C2182 H2168 0.930 . S
C2182 C2180 1.395 . S
C2182 C2185 1.403 . S
C2183 C2180 1.403 . S
C2183 C2184 1.524 . S
C2183 C2187 1.400 . S
C2184 H2169 0.960 . S
C2184 H2170 0.960 . S
C2184 H2171 0.960 . S
C2184 C2183 1.524 . S
C2185 C2182 1.403 . S
C2185 C2186 1.392 . S
C2185 C2189 1.495 . S
C2186 C2185 1.392 . S
C2186 C2187 1.385 . S
C2186 C2188 1.478 . S
C2187 H2181 0.930 . S
C2187 C2183 1.400 . S
C2187 C2186 1.385 . S
C2188 C2186 1.478 . S
C2188 C2190 1.381 . S
C2188 C2194 1.383 . S
C2189 C2185 1.495 . S
C2189 H2195 0.959 . S
C2189 H2196 0.961 . S
C2189 H2197 0.960 . S
C2190 C2188 1.381 . S
C2190 C2191 1.394 . S
C2190 H2198 0.930 . S
C2191 C2190 1.394 . S
C2191 C2192 1.383 . S
C2191 H2199 0.929 . S
C2192 C2191 1.383 . S
C2192 C2193 1.377 . S
C2193 H2177 0.930 . S
C2193 C2192 1.377 . S
C2193 C2194 1.379 . S
C2194 H2178 0.931 . S
C2194 C2188 1.383 . S
C2194 C2193 1.379 . S
H2195 C2189 0.959 . S
H2196 C2189 0.961 . S
H2197 C2189 0.960 . S
H2198 C2190 0.930 . S
H2199 C2191 0.929 . S
H2200 C2208 0.929 . S
H2201 C2210 0.930 . S
H2202 C2212 0.930 . S
H2203 C2215 0.929 . S
H2204 C2218 0.930 . S
H2205 C2220 0.960 . S
H2206 C2220 0.960 . S
H2207 C2220 0.960 . S
C2208 H2200 0.929 . S
C2208 C2209 1.377 . S
C2208 C2210 1.384 . S
C2209 C2208 1.377 . S
C2209 C2215 1.390 . S
C2210 H2201 0.930 . S
C2210 C2208 1.384 . S
C2210 C2211 1.372 . S
C2211 C2210 1.372 . S
C2211 C2212 1.400 . S
C2211 C2216 1.490 . S
C2212 H2202 0.930 . S
C2212 C2211 1.400 . S
C2212 C2215 1.386 . S
H2213 C2229 0.930 . S
H2214 C2230 0.931 . S
C2215 H2203 0.929 . S
C2215 C2209 1.390 . S
C2215 C2212 1.386 . S
C2216 C2211 1.490 . S
C2216 C2218 1.395 . S
C2216 C2219 1.403 . S
H2217 C2223 0.930 . S
C2218 H2204 0.930 . S
C2218 C2216 1.395 . S
C2218 C2221 1.403 . S
C2219 C2216 1.403 . S
C2219 C2220 1.524 . S
C2219 C2223 1.400 . S
C2220 H2205 0.960 . S
C2220 H2206 0.960 . S
C2220 H2207 0.960 . S
C2220 C2219 1.524 . S
C2221 C2218 1.403 . S
C2221 C2222 1.392 . S
C2221 C2225 1.495 . S
C2222 C2221 1.392 . S
C2222 C2223 1.385 . S
C2222 C2224 1.478 . S
C2223 H2217 0.930 . S
C2223 C2219 1.400 . S
C2223 C2222 1.385 . S
C2224 C2222 1.478 . S
C2224 C2226 1.381 . S
C2224 C2230 1.383 . S
C2225 C2221 1.495 . S
C2225 H2231 0.959 . S
C2225 H2232 0.961 . S
C2225 H2233 0.960 . S
C2226 C2224 1.381 . S
C2226 C2227 1.394 . S
C2226 H2234 0.930 . S
C2227 C2226 1.394 . S
C2227 C2228 1.383 . S
C2227 H2235 0.929 . S
C2228 C2227 1.383 . S
C2228 C2229 1.377 . S
C2229 H2213 0.930 . S
C2229 C2228 1.377 . S
C2229 C2230 1.379 . S
C2230 H2214 0.931 . S
C2230 C2224 1.383 . S
C2230 C2229 1.379 . S
H2231 C2225 0.959 . S
H2232 C2225 0.961 . S
H2233 C2225 0.960 . S
H2234 C2226 0.930 . S
H2235 C2227 0.929 . S
H2236 C2244 0.929 . S
H2237 C2246 0.930 . S
H2238 C2248 0.930 . S
H2239 C2251 0.929 . S
H2240 C2254 0.930 . S
H2241 C2256 0.960 . S
H2242 C2256 0.960 . S
H2243 C2256 0.960 . S
C2244 H2236 0.929 . S
C2244 C2245 1.377 . S
C2244 C2246 1.384 . S
C2245 C2244 1.377 . S
C2245 C2251 1.390 . S
C2246 H2237 0.930 . S
C2246 C2244 1.384 . S
C2246 C2247 1.372 . S
C2247 C2246 1.372 . S
C2247 C2248 1.400 . S
C2247 C2252 1.490 . S
C2248 H2238 0.930 . S
C2248 C2247 1.400 . S
C2248 C2251 1.386 . S
H2249 C2265 0.930 . S
H2250 C2266 0.931 . S
C2251 H2239 0.929 . S
C2251 C2245 1.390 . S
C2251 C2248 1.386 . S
C2252 C2247 1.490 . S
C2252 C2254 1.395 . S
C2252 C2255 1.403 . S
H2253 C2259 0.930 . S
C2254 H2240 0.930 . S
C2254 C2252 1.395 . S
C2254 C2257 1.403 . S
C2255 C2252 1.403 . S
C2255 C2256 1.524 . S
C2255 C2259 1.400 . S
C2256 H2241 0.960 . S
C2256 H2242 0.960 . S
C2256 H2243 0.960 . S
C2256 C2255 1.524 . S
C2257 C2254 1.403 . S
C2257 C2258 1.392 . S
C2257 C2261 1.495 . S
C2258 C2257 1.392 . S
C2258 C2259 1.385 . S
C2258 C2260 1.478 . S
C2259 H2253 0.930 . S
C2259 C2255 1.400 . S
C2259 C2258 1.385 . S
C2260 C2258 1.478 . S
C2260 C2262 1.381 . S
C2260 C2266 1.383 . S
C2261 C2257 1.495 . S
C2261 H2267 0.959 . S
C2261 H2268 0.961 . S
C2261 H2269 0.960 . S
C2262 C2260 1.381 . S
C2262 C2263 1.394 . S
C2262 H2270 0.930 . S
C2263 C2262 1.394 . S
C2263 C2264 1.383 . S
C2263 H2271 0.929 . S
C2264 C2263 1.383 . S
C2264 C2265 1.377 . S
C2265 H2249 0.930 . S
C2265 C2264 1.377 . S
C2265 C2266 1.379 . S
C2266 H2250 0.931 . S
C2266 C2260 1.383 . S
C2266 C2265 1.379 . S
H2267 C2261 0.959 . S
H2268 C2261 0.961 . S
H2269 C2261 0.960 . S
H2270 C2262 0.930 . S
H2271 C2263 0.929 . S
H2272 C2280 0.929 . S
H2273 C2282 0.930 . S
H2274 C2284 0.930 . S
H2275 C2287 0.929 . S
H2276 C2290 0.930 . S
H2277 C2292 0.960 . S
H2278 C2292 0.960 . S
H2279 C2292 0.960 . S
C2280 H2272 0.929 . S
C2280 C2281 1.377 1_556 S
C2280 C2282 1.384 . S
C2281 C2280 1.377 1_554 S
C2281 C2287 1.390 . S
C2282 H2273 0.930 . S
C2282 C2280 1.384 . S
C2282 C2283 1.369 . S
C2283 C2282 1.369 . S
C2283 C2284 1.403 1_556 S
C2283 C2288 1.490 . S
C2284 H2274 0.930 . S
C2284 C2283 1.403 1_554 S
C2284 C2287 1.386 . S
H2285 C2301 0.930 . S
H2286 C2302 0.931 . S
C2287 H2275 0.929 . S
C2287 C2281 1.390 . S
C2287 C2284 1.386 . S
C2288 C2283 1.490 . S
C2288 C2290 1.394 1_556 S
C2288 C2291 1.403 1_545 S
H2289 C2295 0.930 . S
C2290 H2276 0.930 . S
C2290 C2288 1.394 1_554 S
C2290 C2293 1.403 . S
C2291 C2288 1.403 1_565 S
C2291 C2292 1.524 . S
C2291 C2295 1.400 . S
C2292 H2277 0.960 . S
C2292 H2278 0.960 . S
C2292 H2279 0.960 . S
C2292 C2291 1.524 . S
C2293 C2290 1.403 . S
C2293 C2294 1.406 1_545 S
C2293 C2297 1.495 . S
C2294 C2293 1.406 1_565 S
C2294 C2295 1.371 1_554 S
C2294 C2296 1.478 . S
C2295 H2289 0.930 . S
C2295 C2291 1.400 . S
C2295 C2294 1.371 1_556 S
C2296 C2294 1.478 . S
C2296 C2298 1.353 1_554 S
C2296 C2302 1.410 . S
C2297 C2293 1.495 . S
C2297 H2303 0.959 . S
C2297 H2304 0.961 . S
C2297 H2305 0.960 . S
C2298 C2296 1.353 1_556 S
C2298 C2299 1.394 . S
C2298 H2306 0.930 . S
C2299 C2298 1.394 . S
C2299 C2300 1.412 . S
C2299 H2307 0.929 . S
C2300 C2299 1.412 . S
C2300 C2301 1.347 1_556 S
C2301 H2285 0.930 . S
C2301 C2300 1.347 1_554 S
C2301 C2302 1.379 . S
C2302 H2286 0.931 . S
C2302 C2296 1.410 . S
C2302 C2301 1.379 . S
H2303 C2297 0.959 . S
H2304 C2297 0.961 . S
H2305 C2297 0.960 . S
H2306 C2298 0.930 . S
H2307 C2299 0.929 . S
H2308 C2316 0.929 . S
H2309 C2318 0.930 . S
H2310 C2320 0.930 . S
H2311 C2323 0.929 . S
H2312 C2326 0.930 . S
H2313 C2328 0.960 . S
H2314 C2328 0.960 1_556 S
H2315 C2328 0.960 . S
C2316 H2308 0.929 . S
C2316 C2317 1.377 . S
C2316 C2318 1.384 . S
C2317 C2316 1.377 . S
C2317 C2323 1.390 1_556 S
C2318 H2309 0.930 . S
C2318 C2316 1.384 . S
C2318 C2319 1.372 . S
C2319 C2318 1.372 . S
C2319 C2320 1.400 1_556 S
C2319 C2324 1.490 . S
C2320 H2310 0.930 . S
C2320 C2319 1.400 1_554 S
C2320 C2323 1.386 . S
H2321 C2337 0.930 . S
H2322 C2338 0.931 . S
C2323 H2311 0.929 . S
C2323 C2317 1.390 1_554 S
C2323 C2320 1.386 . S
C2324 C2319 1.490 . S
C2324 C2326 1.395 . S
C2324 C2327 1.403 1_556 S
H2325 C2331 0.930 . S
C2326 H2312 0.930 . S
C2326 C2324 1.395 . S
C2326 C2329 1.403 . S
C2327 C2324 1.403 1_554 S
C2327 C2328 1.524 . S
C2327 C2331 1.400 . S
C2328 H2313 0.960 . S
C2328 H2314 0.960 1_554 S
C2328 H2315 0.960 . S
C2328 C2327 1.524 . S
C2329 C2326 1.403 . S
C2329 C2330 1.407 . S
C2329 C2333 1.495 . S
C2330 C2329 1.407 . S
C2330 C2331 1.375 1_556 S
C2330 C2332 1.476 . S
C2331 H2325 0.930 . S
C2331 C2327 1.400 . S
C2331 C2330 1.375 1_554 S
C2332 C2330 1.476 . S
C2332 C2334 1.382 . S
C2332 C2338 1.382 1_556 S
C2333 C2329 1.495 . S
C2333 H2339 0.959 . S
C2333 H2340 0.961 1_556 S
C2333 H2341 0.960 . S
C2334 C2332 1.382 . S
C2334 C2335 1.394 . S
C2334 H2342 0.930 . S
C2335 C2334 1.394 . S
C2335 C2336 1.383 1_556 S
C2335 H2343 0.929 . S
C2336 C2335 1.383 1_554 S
C2336 C2337 1.377 . S
C2337 H2321 0.930 . S
C2337 C2336 1.377 . S
C2337 C2338 1.379 . S
C2338 H2322 0.931 . S
C2338 C2332 1.382 1_554 S
C2338 C2337 1.379 . S
H2339 C2333 0.959 . S
H2340 C2333 0.961 1_554 S
H2341 C2333 0.960 . S
H2342 C2334 0.930 . S
H2343 C2335 0.929 . S
H2344 C2352 0.929 . S
H2345 C2354 0.930 . S
H2346 C2356 0.930 . S
H2347 C2359 0.929 . S
H2348 C2362 0.930 . S
H2349 C2364 0.960 . S
H2350 C2364 0.960 . S
H2351 C2364 0.960 . S
C2352 H2344 0.929 . S
C2352 C2353 1.377 . S
C2352 C2354 1.384 . S
C2353 C2352 1.377 . S
C2353 C2359 1.390 . S
C2354 H2345 0.930 . S
C2354 C2352 1.384 . S
C2354 C2355 1.372 . S
C2355 C2354 1.372 . S
C2355 C2356 1.400 . S
C2355 C2360 1.490 . S
C2356 H2346 0.930 . S
C2356 C2355 1.400 . S
C2356 C2359 1.386 . S
H2357 C2373 0.930 . S
H2358 C2374 0.931 . S
C2359 H2347 0.929 . S
C2359 C2353 1.390 . S
C2359 C2356 1.386 . S
C2360 C2355 1.490 . S
C2360 C2362 1.395 . S
C2360 C2363 1.403 . S
H2361 C2367 0.930 . S
C2362 H2348 0.930 . S
C2362 C2360 1.395 . S
C2362 C2365 1.403 . S
C2363 C2360 1.403 . S
C2363 C2364 1.524 . S
C2363 C2367 1.400 . S
C2364 H2349 0.960 . S
C2364 H2350 0.960 . S
C2364 H2351 0.960 . S
C2364 C2363 1.524 . S
C2365 C2362 1.403 . S
C2365 C2366 1.392 . S
C2365 C2369 1.495 . S
C2366 C2365 1.392 . S
C2366 C2367 1.385 . S
C2366 C2368 1.478 . S
C2367 H2361 0.930 . S
C2367 C2363 1.400 . S
C2367 C2366 1.385 . S
C2368 C2366 1.478 . S
C2368 C2370 1.381 . S
C2368 C2374 1.383 . S
C2369 C2365 1.495 . S
C2369 H2375 0.959 . S
C2369 H2376 0.961 . S
C2369 H2377 0.960 . S
C2370 C2368 1.381 . S
C2370 C2371 1.394 . S
C2370 H2378 0.930 . S
C2371 C2370 1.394 . S
C2371 C2372 1.383 . S
C2371 H2379 0.929 . S
C2372 C2371 1.383 . S
C2372 C2373 1.377 . S
C2373 H2357 0.930 . S
C2373 C2372 1.377 . S
C2373 C2374 1.379 . S
C2374 H2358 0.931 . S
C2374 C2368 1.383 . S
C2374 C2373 1.379 . S
H2375 C2369 0.959 . S
H2376 C2369 0.961 . S
H2377 C2369 0.960 . S
H2378 C2370 0.930 . S
H2379 C2371 0.929 . S
H2380 C2388 0.929 . S
H2381 C2390 0.930 . S
H2382 C2392 0.930 . S
H2383 C2395 0.929 . S
H2384 C2398 0.930 . S
H2385 C2400 1.022 . S
H2386 C2400 0.889 1_565 S
H2387 C2400 0.982 . S
C2388 H2380 0.929 . S
C2388 C2389 1.377 . S
C2388 C2390 1.384 . S
C2389 C2388 1.377 . S
C2389 C2395 1.390 . S
C2390 H2381 0.930 . S
C2390 C2388 1.384 . S
C2390 C2391 1.372 . S
C2391 C2390 1.372 . S
C2391 C2392 1.400 . S
C2391 C2396 1.490 . S
C2392 H2382 0.930 . S
C2392 C2391 1.400 . S
C2392 C2395 1.386 . S
H2393 C2409 0.930 . S
H2394 C2410 0.931 . S
C2395 H2383 0.929 . S
C2395 C2389 1.390 . S
C2395 C2392 1.386 . S
C2396 C2391 1.490 . S
C2396 C2398 1.395 . S
C2396 C2399 1.399 . S
H2397 C2403 0.930 . S
C2398 H2384 0.930 . S
C2398 C2396 1.395 . S
C2398 C2401 1.403 . S
C2399 C2396 1.399 . S
C2399 C2400 1.520 1_565 S
C2399 C2403 1.403 1_565 S
C2400 H2385 1.022 . S
C2400 H2386 0.889 1_545 S
C2400 H2387 0.982 . S
C2400 C2399 1.520 1_545 S
C2401 C2398 1.403 . S
C2401 C2402 1.392 1_565 S
C2401 C2405 1.495 . S
C2402 C2401 1.392 1_545 S
C2402 C2403 1.385 . S
C2402 C2404 1.478 . S
C2403 H2397 0.930 . S
C2403 C2399 1.403 1_545 S
C2403 C2402 1.385 . S
C2404 C2402 1.478 . S
C2404 C2406 1.381 . S
C2404 C2410 1.383 . S
C2405 C2401 1.495 . S
C2405 H2411 0.959 . S
C2405 H2412 0.961 1_565 S
C2405 H2413 0.960 . S
C2406 C2404 1.381 . S
C2406 C2407 1.394 . S
C2406 H2414 0.930 . S
C2407 C2406 1.394 . S
C2407 C2408 1.383 . S
C2407 H2415 0.929 . S
C2408 C2407 1.383 . S
C2408 C2409 1.377 . S
C2409 H2393 0.930 . S
C2409 C2408 1.377 . S
C2409 C2410 1.379 . S
C2410 H2394 0.931 . S
C2410 C2404 1.383 . S
C2410 C2409 1.379 . S
H2411 C2405 0.959 . S
H2412 C2405 0.961 1_545 S
H2413 C2405 0.960 . S
H2414 C2406 0.930 . S
H2415 C2407 0.929 . S
H2416 C2424 0.929 . S
H2417 C2426 0.930 . S
H2418 C2428 0.930 . S
H2419 C2431 0.929 . S
H2420 C2434 0.930 . S
H2421 C2436 0.960 . S
H2422 C2436 0.960 1_556 S
H2423 C2436 0.960 . S
C2424 H2416 0.929 . S
C2424 C2425 1.377 1_556 S
C2424 C2426 1.384 . S
C2425 C2424 1.377 1_554 S
C2425 C2431 1.390 . S
C2426 H2417 0.930 . S
C2426 C2424 1.384 . S
C2426 C2427 1.382 . S
C2427 C2426 1.382 . S
C2427 C2428 1.390 1_556 S
C2427 C2432 1.490 . S
C2428 H2418 0.930 . S
C2428 C2427 1.390 1_554 S
C2428 C2431 1.386 . S
H2429 C2445 0.930 . S
H2430 C2446 0.931 . S
C2431 H2419 0.929 . S
C2431 C2425 1.390 . S
C2431 C2428 1.386 . S
C2432 C2427 1.490 . S
C2432 C2434 1.401 . S
C2432 C2435 1.399 1_556 S
H2433 C2439 0.939 . S
C2434 H2420 0.930 . S
C2434 C2432 1.401 . S
C2434 C2437 1.403 . S
C2435 C2432 1.399 1_554 S
C2435 C2436 1.524 . S
C2435 C2439 1.402 . S
C2436 H2421 0.960 . S
C2436 H2422 0.960 1_554 S
C2436 H2423 0.960 . S
C2436 C2435 1.524 . S
C2437 C2434 1.403 . S
C2437 C2438 1.392 . S
C2437 C2441 1.495 . S
C2438 C2437 1.392 . S
C2438 C2439 1.379 1_556 S
C2438 C2440 1.478 . S
C2439 H2433 0.939 . S
C2439 C2435 1.402 . S
C2439 C2438 1.379 1_554 S
C2440 C2438 1.478 . S
C2440 C2442 1.381 . S
C2440 C2446 1.383 1_556 S
C2441 C2437 1.495 . S
C2441 H2447 0.959 . S
C2441 H2448 0.961 1_556 S
C2441 H2449 0.960 . S
C2442 C2440 1.381 . S
C2442 C2443 1.394 . S
C2442 H2450 0.930 . S
C2443 C2442 1.394 . S
C2443 C2444 1.383 . S
C2443 H2451 0.929 . S
C2444 C2443 1.383 . S
C2444 C2445 1.377 1_556 S
C2445 H2429 0.930 . S
C2445 C2444 1.377 1_554 S
C2445 C2446 1.379 . S
C2446 H2430 0.931 . S
C2446 C2440 1.383 1_554 S
C2446 C2445 1.379 . S
H2447 C2441 0.959 . S
H2448 C2441 0.961 1_554 S
H2449 C2441 0.960 . S
H2450 C2442 0.930 . S
H2451 C2443 0.929 . S
H2452 C2460 0.929 . S
H2453 C2462 0.930 . S
H2454 C2464 0.930 . S
H2455 C2467 0.929 . S
H2456 C2470 0.930 . S
H2457 C2472 0.960 . S
H2458 C2472 0.960 . S
H2459 C2472 0.960 . S
C2460 H2452 0.929 . S
C2460 C2461 1.377 . S
C2460 C2462 1.384 . S
C2461 C2460 1.377 . S
C2461 C2467 1.390 . S
C2462 H2453 0.930 . S
C2462 C2460 1.384 . S
C2462 C2463 1.372 . S
C2463 C2462 1.372 . S
C2463 C2464 1.400 . S
C2463 C2468 1.490 . S
C2464 H2454 0.930 . S
C2464 C2463 1.400 . S
C2464 C2467 1.386 . S
H2465 C2481 0.930 . S
H2466 C2482 0.931 . S
C2467 H2455 0.929 . S
C2467 C2461 1.390 . S
C2467 C2464 1.386 . S
C2468 C2463 1.490 . S
C2468 C2470 1.395 . S
C2468 C2471 1.403 . S
H2469 C2475 0.930 . S
C2470 H2456 0.930 . S
C2470 C2468 1.395 . S
C2470 C2473 1.403 . S
C2471 C2468 1.403 . S
C2471 C2472 1.524 . S
C2471 C2475 1.400 . S
C2472 H2457 0.960 . S
C2472 H2458 0.960 . S
C2472 H2459 0.960 . S
C2472 C2471 1.524 . S
C2473 C2470 1.403 . S
C2473 C2474 1.392 . S
C2473 C2477 1.495 . S
C2474 C2473 1.392 . S
C2474 C2475 1.385 . S
C2474 C2476 1.478 . S
C2475 H2469 0.930 . S
C2475 C2471 1.400 . S
C2475 C2474 1.385 . S
C2476 C2474 1.478 . S
C2476 C2478 1.381 . S
C2476 C2482 1.383 . S
C2477 C2473 1.495 . S
C2477 H2483 0.959 . S
C2477 H2484 0.961 . S
C2477 H2485 0.960 . S
C2478 C2476 1.381 . S
C2478 C2479 1.394 . S
C2478 H2486 0.930 . S
C2479 C2478 1.394 . S
C2479 C2480 1.383 . S
C2479 H2487 0.929 . S
C2480 C2479 1.383 . S
C2480 C2481 1.377 . S
C2481 H2465 0.930 . S
C2481 C2480 1.377 . S
C2481 C2482 1.379 . S
C2482 H2466 0.931 . S
C2482 C2476 1.383 . S
C2482 C2481 1.379 . S
H2483 C2477 0.959 . S
H2484 C2477 0.961 . S
H2485 C2477 0.960 . S
H2486 C2478 0.930 . S
H2487 C2479 0.929 . S
H2488 C2496 0.929 . S
H2489 C2498 0.930 . S
H2490 C2500 0.930 . S
H2491 C2503 0.929 . S
H2492 C2506 0.930 . S
H2493 C2508 0.960 . S
H2494 C2508 0.960 . S
H2495 C2508 0.960 . S
C2496 H2488 0.929 . S
C2496 C2497 1.377 . S
C2496 C2498 1.384 . S
C2497 C2496 1.377 . S
C2497 C2503 1.390 . S
C2498 H2489 0.930 . S
C2498 C2496 1.384 . S
C2498 C2499 1.372 . S
C2499 C2498 1.372 . S
C2499 C2500 1.400 . S
C2499 C2504 1.490 . S
C2500 H2490 0.930 . S
C2500 C2499 1.400 . S
C2500 C2503 1.386 . S
H2501 C2517 0.930 . S
H2502 C2518 0.931 . S
C2503 H2491 0.929 . S
C2503 C2497 1.390 . S
C2503 C2500 1.386 . S
C2504 C2499 1.490 . S
C2504 C2506 1.395 . S
C2504 C2507 1.403 1_565 S
H2505 C2511 0.930 . S
C2506 H2492 0.930 . S
C2506 C2504 1.395 . S
C2506 C2509 1.403 . S
C2507 C2504 1.403 1_545 S
C2507 C2508 1.524 . S
C2507 C2511 1.400 . S
C2508 H2493 0.960 . S
C2508 H2494 0.960 . S
C2508 H2495 0.960 . S
C2508 C2507 1.524 . S
C2509 C2506 1.403 . S
C2509 C2510 1.392 1_565 S
C2509 C2513 1.495 . S
C2510 C2509 1.392 1_545 S
C2510 C2511 1.385 . S
C2510 C2512 1.478 . S
C2511 H2505 0.930 . S
C2511 C2507 1.400 . S
C2511 C2510 1.385 . S
C2512 C2510 1.478 . S
C2512 C2514 1.381 . S
C2512 C2518 1.383 . S
C2513 C2509 1.495 . S
C2513 H2519 0.959 . S
C2513 H2520 0.961 . S
C2513 H2521 0.960 . S
C2514 C2512 1.381 . S
C2514 C2515 1.394 . S
C2514 H2522 0.930 . S
C2515 C2514 1.394 . S
C2515 C2516 1.383 . S
C2515 H2523 0.929 . S
C2516 C2515 1.383 . S
C2516 C2517 1.377 . S
C2517 H2501 0.930 . S
C2517 C2516 1.377 . S
C2517 C2518 1.379 . S
C2518 H2502 0.931 . S
C2518 C2512 1.383 . S
C2518 C2517 1.379 . S
H2519 C2513 0.959 . S
H2520 C2513 0.961 . S
H2521 C2513 0.960 . S
H2522 C2514 0.930 . S
H2523 C2515 0.929 . S
H2524 C2532 0.929 . S
H2525 C2534 0.930 . S
H2526 C2536 0.930 . S
H2527 C2539 0.929 . S
H2528 C2542 0.930 . S
H2529 C2544 0.960 . S
H2530 C2544 0.960 . S
H2531 C2544 0.960 . S
C2532 H2524 0.929 . S
C2532 C2533 1.377 . S
C2532 C2534 1.384 . S
C2533 C2532 1.377 . S
C2533 C2539 1.390 . S
C2534 H2525 0.930 . S
C2534 C2532 1.384 . S
C2534 C2535 1.372 . S
C2535 C2534 1.372 . S
C2535 C2536 1.400 . S
C2535 C2540 1.490 . S
C2536 H2526 0.930 . S
C2536 C2535 1.400 . S
C2536 C2539 1.386 . S
H2537 C2553 0.930 . S
H2538 C2554 0.931 . S
C2539 H2527 0.929 . S
C2539 C2533 1.390 . S
C2539 C2536 1.386 . S
C2540 C2535 1.490 . S
C2540 C2542 1.395 . S
C2540 C2543 1.403 . S
H2541 C2547 0.930 . S
C2542 H2528 0.930 . S
C2542 C2540 1.395 . S
C2542 C2545 1.403 . S
C2543 C2540 1.403 . S
C2543 C2544 1.524 . S
C2543 C2547 1.400 . S
C2544 H2529 0.960 . S
C2544 H2530 0.960 . S
C2544 H2531 0.960 . S
C2544 C2543 1.524 . S
C2545 C2542 1.403 . S
C2545 C2546 1.392 . S
C2545 C2549 1.495 . S
C2546 C2545 1.392 . S
C2546 C2547 1.385 . S
C2546 C2548 1.478 . S
C2547 H2541 0.930 . S
C2547 C2543 1.400 . S
C2547 C2546 1.385 . S
C2548 C2546 1.478 . S
C2548 C2550 1.381 . S
C2548 C2554 1.383 . S
C2549 C2545 1.495 . S
C2549 H2555 0.959 . S
C2549 H2556 0.961 . S
C2549 H2557 0.960 . S
C2550 C2548 1.381 . S
C2550 C2551 1.394 . S
C2550 H2558 0.930 . S
C2551 C2550 1.394 . S
C2551 C2552 1.383 . S
C2551 H2559 0.929 . S
C2552 C2551 1.383 . S
C2552 C2553 1.377 . S
C2553 H2537 0.930 . S
C2553 C2552 1.377 . S
C2553 C2554 1.379 . S
C2554 H2538 0.931 . S
C2554 C2548 1.383 . S
C2554 C2553 1.379 . S
H2555 C2549 0.959 . S
H2556 C2549 0.961 . S
H2557 C2549 0.960 . S
H2558 C2550 0.930 . S
H2559 C2551 0.929 . S
H2560 C2568 0.929 . S
H2561 C2570 0.930 . S
H2562 C2572 0.930 . S
H2563 C2575 0.929 . S
H2564 C2578 0.930 . S
H2565 C2580 0.960 . S
H2566 C2580 0.960 . S
H2567 C2580 0.960 . S
C2568 H2560 0.929 . S
C2568 C2569 1.377 . S
C2568 C2570 1.384 . S
C2569 C2568 1.377 . S
C2569 C2575 1.390 . S
C2570 H2561 0.930 . S
C2570 C2568 1.384 . S
C2570 C2571 1.372 . S
C2571 C2570 1.372 . S
C2571 C2572 1.400 . S
C2571 C2576 1.490 . S
C2572 H2562 0.930 . S
C2572 C2571 1.400 . S
C2572 C2575 1.386 . S
H2573 C2589 0.930 . S
H2574 C2590 0.931 . S
C2575 H2563 0.929 . S
C2575 C2569 1.390 . S
C2575 C2572 1.386 . S
C2576 C2571 1.490 . S
C2576 C2578 1.395 . S
C2576 C2579 1.403 . S
H2577 C2583 0.930 . S
C2578 H2564 0.930 . S
C2578 C2576 1.395 . S
C2578 C2581 1.403 . S
C2579 C2576 1.403 . S
C2579 C2580 1.524 . S
C2579 C2583 1.400 . S
C2580 H2565 0.960 . S
C2580 H2566 0.960 . S
C2580 H2567 0.960 . S
C2580 C2579 1.524 . S
C2581 C2578 1.403 . S
C2581 C2582 1.392 . S
C2581 C2585 1.495 . S
C2582 C2581 1.392 . S
C2582 C2583 1.385 . S
C2582 C2584 1.478 . S
C2583 H2577 0.930 . S
C2583 C2579 1.400 . S
C2583 C2582 1.385 . S
C2584 C2582 1.478 . S
C2584 C2586 1.381 . S
C2584 C2590 1.383 . S
C2585 C2581 1.495 . S
C2585 H2591 0.959 . S
C2585 H2592 0.961 . S
C2585 H2593 0.960 . S
C2586 C2584 1.381 . S
C2586 C2587 1.394 . S
C2586 H2594 0.930 . S
C2587 C2586 1.394 . S
C2587 C2588 1.383 . S
C2587 H2595 0.929 . S
C2588 C2587 1.383 . S
C2588 C2589 1.377 . S
C2589 H2573 0.930 . S
C2589 C2588 1.377 . S
C2589 C2590 1.379 . S
C2590 H2574 0.931 . S
C2590 C2584 1.383 . S
C2590 C2589 1.379 . S
H2591 C2585 0.959 . S
H2592 C2585 0.961 . S
H2593 C2585 0.960 . S
H2594 C2586 0.930 . S
H2595 C2587 0.929 . S
H2596 C2604 0.929 . S
H2597 C2606 0.930 . S
H2598 C2608 0.930 . S
H2599 C2611 0.929 . S
H2600 C2614 0.930 . S
H2601 C2616 0.960 . S
H2602 C2616 0.960 . S
H2603 C2616 0.960 . S
C2604 H2596 0.929 . S
C2604 C2605 1.377 . S
C2604 C2606 1.384 . S
C2605 C2604 1.377 . S
C2605 C2611 1.390 . S
C2606 H2597 0.930 . S
C2606 C2604 1.384 . S
C2606 C2607 1.372 . S
C2607 C2606 1.372 . S
C2607 C2608 1.400 . S
C2607 C2612 1.490 . S
C2608 H2598 0.930 . S
C2608 C2607 1.400 . S
C2608 C2611 1.386 . S
H2609 C2625 0.930 . S
H2610 C2626 0.931 . S
C2611 H2599 0.929 . S
C2611 C2605 1.390 . S
C2611 C2608 1.386 . S
C2612 C2607 1.490 . S
C2612 C2614 1.395 . S
C2612 C2615 1.403 . S
H2613 C2619 0.930 . S
C2614 H2600 0.930 . S
C2614 C2612 1.395 . S
C2614 C2617 1.403 . S
C2615 C2612 1.403 . S
C2615 C2616 1.524 . S
C2615 C2619 1.400 . S
C2616 H2601 0.960 . S
C2616 H2602 0.960 . S
C2616 H2603 0.960 . S
C2616 C2615 1.524 . S
C2617 C2614 1.403 . S
C2617 C2618 1.392 . S
C2617 C2621 1.495 . S
C2618 C2617 1.392 . S
C2618 C2619 1.385 . S
C2618 C2620 1.478 . S
C2619 H2613 0.930 . S
C2619 C2615 1.400 . S
C2619 C2618 1.385 . S
C2620 C2618 1.478 . S
C2620 C2622 1.381 . S
C2620 C2626 1.383 . S
C2621 C2617 1.495 . S
C2621 H2627 0.959 . S
C2621 H2628 0.961 . S
C2621 H2629 0.960 . S
C2622 C2620 1.381 . S
C2622 C2623 1.394 . S
C2622 H2630 0.930 . S
C2623 C2622 1.394 . S
C2623 C2624 1.383 . S
C2623 H2631 0.929 . S
C2624 C2623 1.383 . S
C2624 C2625 1.377 . S
C2625 H2609 0.930 . S
C2625 C2624 1.377 . S
C2625 C2626 1.379 . S
C2626 H2610 0.931 . S
C2626 C2620 1.383 . S
C2626 C2625 1.379 . S
H2627 C2621 0.959 . S
H2628 C2621 0.961 . S
H2629 C2621 0.960 . S
H2630 C2622 0.930 . S
H2631 C2623 0.929 . S
H2632 C2640 0.929 . S
H2633 C2642 0.930 . S
H2634 C2644 0.930 . S
H2635 C2647 0.929 . S
H2636 C2650 0.930 . S
H2637 C2652 0.960 . S
H2638 C2652 0.960 . S
H2639 C2652 0.960 . S
C2640 H2632 0.929 . S
C2640 C2641 1.377 . S
C2640 C2642 1.384 . S
C2641 C2640 1.377 . S
C2641 C2647 1.390 . S
C2642 H2633 0.930 . S
C2642 C2640 1.384 . S
C2642 C2643 1.372 . S
C2643 C2642 1.372 . S
C2643 C2644 1.400 . S
C2643 C2648 1.490 . S
C2644 H2634 0.930 . S
C2644 C2643 1.400 . S
C2644 C2647 1.386 . S
H2645 C2661 0.930 . S
H2646 C2662 0.931 . S
C2647 H2635 0.929 . S
C2647 C2641 1.390 . S
C2647 C2644 1.386 . S
C2648 C2643 1.490 . S
C2648 C2650 1.395 . S
C2648 C2651 1.403 . S
H2649 C2655 0.930 . S
C2650 H2636 0.930 . S
C2650 C2648 1.395 . S
C2650 C2653 1.403 . S
C2651 C2648 1.403 . S
C2651 C2652 1.524 . S
C2651 C2655 1.400 . S
C2652 H2637 0.960 . S
C2652 H2638 0.960 . S
C2652 H2639 0.960 . S
C2652 C2651 1.524 . S
C2653 C2650 1.403 . S
C2653 C2654 1.392 . S
C2653 C2657 1.495 . S
C2654 C2653 1.392 . S
C2654 C2655 1.385 . S
C2654 C2656 1.478 . S
C2655 H2649 0.930 . S
C2655 C2651 1.400 . S
C2655 C2654 1.385 . S
C2656 C2654 1.478 . S
C2656 C2658 1.381 . S
C2656 C2662 1.383 . S
C2657 C2653 1.495 . S
C2657 H2663 0.959 . S
C2657 H2664 0.961 . S
C2657 H2665 0.960 . S
C2658 C2656 1.381 . S
C2658 C2659 1.394 . S
C2658 H2666 0.930 . S
C2659 C2658 1.394 . S
C2659 C2660 1.383 . S
C2659 H2667 0.929 . S
C2660 C2659 1.383 . S
C2660 C2661 1.377 . S
C2661 H2645 0.930 . S
C2661 C2660 1.377 . S
C2661 C2662 1.379 . S
C2662 H2646 0.931 . S
C2662 C2656 1.383 . S
C2662 C2661 1.379 . S
H2663 C2657 0.959 . S
H2664 C2657 0.961 . S
H2665 C2657 0.960 . S
H2666 C2658 0.930 . S
H2667 C2659 0.929 . S
H2668 C2676 0.929 . S
H2669 C2678 0.930 . S
H2670 C2680 0.930 . S
H2671 C2683 0.929 . S
H2672 C2686 0.930 . S
H2673 C2688 0.960 . S
H2674 C2688 0.960 . S
H2675 C2688 0.960 . S
C2676 H2668 0.929 . S
C2676 C2677 1.377 . S
C2676 C2678 1.384 . S
C2677 C2676 1.377 . S
C2677 C2683 1.390 . S
C2678 H2669 0.930 . S
C2678 C2676 1.384 . S
C2678 C2679 1.372 . S
C2679 C2678 1.372 . S
C2679 C2680 1.400 . S
C2679 C2684 1.490 . S
C2680 H2670 0.930 . S
C2680 C2679 1.400 . S
C2680 C2683 1.386 . S
H2681 C2697 0.930 . S
H2682 C2698 0.931 . S
C2683 H2671 0.929 . S
C2683 C2677 1.390 . S
C2683 C2680 1.386 . S
C2684 C2679 1.490 . S
C2684 C2686 1.395 . S
C2684 C2687 1.403 . S
H2685 C2691 0.930 . S
C2686 H2672 0.930 . S
C2686 C2684 1.395 . S
C2686 C2689 1.403 . S
C2687 C2684 1.403 . S
C2687 C2688 1.524 . S
C2687 C2691 1.400 . S
C2688 H2673 0.960 . S
C2688 H2674 0.960 . S
C2688 H2675 0.960 . S
C2688 C2687 1.524 . S
C2689 C2686 1.403 . S
C2689 C2690 1.392 . S
C2689 C2693 1.495 . S
C2690 C2689 1.392 . S
C2690 C2691 1.385 . S
C2690 C2692 1.478 . S
C2691 H2685 0.930 . S
C2691 C2687 1.400 . S
C2691 C2690 1.385 . S
C2692 C2690 1.478 . S
C2692 C2694 1.381 . S
C2692 C2698 1.383 . S
C2693 C2689 1.495 . S
C2693 H2699 0.959 . S
C2693 H2700 0.961 . S
C2693 H2701 0.960 . S
C2694 C2692 1.381 . S
C2694 C2695 1.394 . S
C2694 H2702 0.930 . S
C2695 C2694 1.394 . S
C2695 C2696 1.383 . S
C2695 H2703 0.929 . S
C2696 C2695 1.383 . S
C2696 C2697 1.377 . S
C2697 H2681 0.930 . S
C2697 C2696 1.377 . S
C2697 C2698 1.379 . S
C2698 H2682 0.931 . S
C2698 C2692 1.383 . S
C2698 C2697 1.379 . S
H2699 C2693 0.959 . S
H2700 C2693 0.961 . S
H2701 C2693 0.960 . S
H2702 C2694 0.930 . S
H2703 C2695 0.929 . S
H2704 C2712 0.929 . S
H2705 C2714 0.930 . S
H2706 C2716 0.930 . S
H2707 C2719 0.929 . S
H2708 C2722 0.930 . S
H2709 C2724 0.960 . S
H2710 C2724 0.960 . S
H2711 C2724 0.960 . S
C2712 H2704 0.929 . S
C2712 C2713 1.377 . S
C2712 C2714 1.384 . S
C2713 C2712 1.377 . S
C2713 C2719 1.390 . S
C2714 H2705 0.930 . S
C2714 C2712 1.384 . S
C2714 C2715 1.372 . S
C2715 C2714 1.372 . S
C2715 C2716 1.400 . S
C2715 C2720 1.490 . S
C2716 H2706 0.930 . S
C2716 C2715 1.400 . S
C2716 C2719 1.386 . S
H2717 C2733 0.930 . S
H2718 C2734 0.931 . S
C2719 H2707 0.929 . S
C2719 C2713 1.390 . S
C2719 C2716 1.386 . S
C2720 C2715 1.490 . S
C2720 C2722 1.395 1_455 S
C2720 C2723 1.403 1_565 S
H2721 C2727 0.929 1_455 S
C2722 H2708 0.930 . S
C2722 C2720 1.395 1_655 S
C2722 C2725 1.403 . S
C2723 C2720 1.403 1_545 S
C2723 C2724 1.524 . S
C2723 C2727 1.382 1_455 S
C2724 H2709 0.960 . S
C2724 H2710 0.960 . S
C2724 H2711 0.960 . S
C2724 C2723 1.524 . S
C2725 C2722 1.403 . S
C2725 C2726 1.392 1_565 S
C2725 C2729 1.495 . S
C2726 C2725 1.392 1_545 S
C2726 C2727 1.404 . S
C2726 C2728 1.478 . S
C2727 H2721 0.929 1_655 S
C2727 C2723 1.382 1_655 S
C2727 C2726 1.404 . S
C2728 C2726 1.478 . S
C2728 C2730 1.381 . S
C2728 C2734 1.383 . S
C2729 C2725 1.495 . S
C2729 H2735 0.959 . S
C2729 H2736 0.961 . S
C2729 H2737 0.960 . S
C2730 C2728 1.381 . S
C2730 C2731 1.394 . S
C2730 H2738 0.930 . S
C2731 C2730 1.394 . S
C2731 C2732 1.383 . S
C2731 H2739 0.929 . S
C2732 C2731 1.383 . S
C2732 C2733 1.377 . S
C2733 H2717 0.930 . S
C2733 C2732 1.377 . S
C2733 C2734 1.379 . S
C2734 H2718 0.931 . S
C2734 C2728 1.383 . S
C2734 C2733 1.379 . S
H2735 C2729 0.959 . S
H2736 C2729 0.961 . S
H2737 C2729 0.960 . S
H2738 C2730 0.930 . S
H2739 C2731 0.929 . S
H2740 C2748 0.929 . S
H2741 C2750 0.930 . S
H2742 C2752 0.930 . S
H2743 C2755 0.929 . S
H2744 C2758 0.930 . S
H2745 C2760 0.960 . S
H2746 C2760 0.960 . S
H2747 C2760 0.960 . S
C2748 H2740 0.929 . S
C2748 C2749 1.377 . S
C2748 C2750 1.384 . S
C2749 C2748 1.377 . S
C2749 C2755 1.390 . S
C2750 H2741 0.930 . S
C2750 C2748 1.384 . S
C2750 C2751 1.372 . S
C2751 C2750 1.372 . S
C2751 C2752 1.400 . S
C2751 C2756 1.490 . S
C2752 H2742 0.930 . S
C2752 C2751 1.400 . S
C2752 C2755 1.386 . S
H2753 C2769 0.930 . S
H2754 C2770 0.931 . S
C2755 H2743 0.929 . S
C2755 C2749 1.390 . S
C2755 C2752 1.386 . S
C2756 C2751 1.490 . S
C2756 C2758 1.395 1_655 S
C2756 C2759 1.403 . S
H2757 C2763 0.929 1_655 S
C2758 H2744 0.930 . S
C2758 C2756 1.395 1_455 S
C2758 C2761 1.403 . S
C2759 C2756 1.403 . S
C2759 C2760 1.524 . S
C2759 C2763 1.385 1_655 S
C2760 H2745 0.960 . S
C2760 H2746 0.960 . S
C2760 H2747 0.960 . S
C2760 C2759 1.524 . S
C2761 C2758 1.403 . S
C2761 C2762 1.392 . S
C2761 C2765 1.495 . S
C2762 C2761 1.392 . S
C2762 C2763 1.401 . S
C2762 C2764 1.478 . S
C2763 H2757 0.929 1_455 S
C2763 C2759 1.385 1_455 S
C2763 C2762 1.401 . S
C2764 C2762 1.478 . S
C2764 C2766 1.381 . S
C2764 C2770 1.383 . S
C2765 C2761 1.495 . S
C2765 H2771 0.959 . S
C2765 H2772 0.961 . S
C2765 H2773 0.960 . S
C2766 C2764 1.381 . S
C2766 C2767 1.394 . S
C2766 H2774 0.930 . S
C2767 C2766 1.394 . S
C2767 C2768 1.383 . S
C2767 H2775 0.929 . S
C2768 C2767 1.383 . S
C2768 C2769 1.377 . S
C2769 H2753 0.930 . S
C2769 C2768 1.377 . S
C2769 C2770 1.379 . S
C2770 H2754 0.931 . S
C2770 C2764 1.383 . S
C2770 C2769 1.379 . S
H2771 C2765 0.959 . S
H2772 C2765 0.961 . S
H2773 C2765 0.960 . S
H2774 C2766 0.930 . S
H2775 C2767 0.929 . S
H2776 C2784 0.929 . S
H2777 C2786 0.930 . S
H2778 C2788 0.930 . S
H2779 C2791 0.929 . S
H2780 C2794 0.930 . S
H2781 C2796 0.960 . S
H2782 C2796 0.960 . S
H2783 C2796 0.960 1_455 S
C2784 H2776 0.929 . S
C2784 C2785 1.377 . S
C2784 C2786 1.384 . S
C2785 C2784 1.377 . S
C2785 C2791 1.390 . S
C2786 H2777 0.930 . S
C2786 C2784 1.384 . S
C2786 C2787 1.372 . S
C2787 C2786 1.372 . S
C2787 C2788 1.400 . S
C2787 C2792 1.490 . S
C2788 H2778 0.930 . S
C2788 C2787 1.400 . S
C2788 C2791 1.386 . S
H2789 C2805 0.930 . S
H2790 C2806 0.931 . S
C2791 H2779 0.929 . S
C2791 C2785 1.390 . S
C2791 C2788 1.386 . S
C2792 C2787 1.490 . S
C2792 C2794 1.395 . S
C2792 C2795 1.403 1_455 S
H2793 C2799 0.930 . S
C2794 H2780 0.930 . S
C2794 C2792 1.395 . S
C2794 C2797 1.403 . S
C2795 C2792 1.403 1_655 S
C2795 C2796 1.524 . S
C2795 C2799 1.400 . S
C2796 H2781 0.960 . S
C2796 H2782 0.960 . S
C2796 H2783 0.960 1_655 S
C2796 C2795 1.524 . S
C2797 C2794 1.403 . S
C2797 C2798 1.392 1_455 S
C2797 C2801 1.495 . S
C2798 C2797 1.392 1_655 S
C2798 C2799 1.385 . S
C2798 C2800 1.478 . S
C2799 H2793 0.930 . S
C2799 C2795 1.400 . S
C2799 C2798 1.385 . S
C2800 C2798 1.478 . S
C2800 C2802 1.381 . S
C2800 C2806 1.383 . S
C2801 C2797 1.495 . S
C2801 H2807 0.959 . S
C2801 H2808 0.961 . S
C2801 H2809 0.960 1_455 S
C2802 C2800 1.381 . S
C2802 C2803 1.394 . S
C2802 H2810 0.930 . S
C2803 C2802 1.394 . S
C2803 C2804 1.383 . S
C2803 H2811 0.929 . S
C2804 C2803 1.383 . S
C2804 C2805 1.377 . S
C2805 H2789 0.930 . S
C2805 C2804 1.377 . S
C2805 C2806 1.379 . S
C2806 H2790 0.931 . S
C2806 C2800 1.383 . S
C2806 C2805 1.379 . S
H2807 C2801 0.959 . S
H2808 C2801 0.961 . S
H2809 C2801 0.960 1_655 S
H2810 C2802 0.930 . S
H2811 C2803 0.929 . S
H2812 C2820 0.929 . S
H2813 C2822 0.930 . S
H2814 C2824 0.930 . S
H2815 C2827 0.929 . S
H2816 C2830 0.931 . S
H2817 C2832 0.960 . S
H2818 C2832 0.960 . S
H2819 C2832 0.960 . S
C2820 H2812 0.929 . S
C2820 C2821 1.377 . S
C2820 C2822 1.384 . S
C2821 C2820 1.377 . S
C2821 C2827 1.390 1_556 S
C2822 H2813 0.930 . S
C2822 C2820 1.384 . S
C2822 C2823 1.372 . S
C2823 C2822 1.372 . S
C2823 C2824 1.400 1_556 S
C2823 C2828 1.490 . S
C2824 H2814 0.930 . S
C2824 C2823 1.400 1_554 S
C2824 C2827 1.386 . S
H2825 C2841 0.930 . S
H2826 C2842 0.931 . S
C2827 H2815 0.929 . S
C2827 C2821 1.390 1_554 S
C2827 C2824 1.386 . S
C2828 C2823 1.490 . S
C2828 C2830 1.395 1_455 S
C2828 C2831 1.403 1_556 S
H2829 C2835 0.930 . S
C2830 H2816 0.931 . S
C2830 C2828 1.395 1_655 S
C2830 C2833 1.403 . S
C2831 C2828 1.403 1_554 S
C2831 C2832 1.524 . S
C2831 C2835 1.400 1_455 S
C2832 H2817 0.960 . S
C2832 H2818 0.960 . S
C2832 H2819 0.960 . S
C2832 C2831 1.524 . S
C2833 C2830 1.403 . S
C2833 C2834 1.392 . S
C2833 C2837 1.495 . S
C2834 C2833 1.392 . S
C2834 C2835 1.385 1_556 S
C2834 C2836 1.478 . S
C2835 H2829 0.930 . S
C2835 C2831 1.400 1_655 S
C2835 C2834 1.385 1_554 S
C2836 C2834 1.478 . S
C2836 C2838 1.381 . S
C2836 C2842 1.383 1_556 S
C2837 C2833 1.495 . S
C2837 H2843 0.959 . S
C2837 H2844 0.961 . S
C2837 H2845 0.960 . S
C2838 C2836 1.381 . S
C2838 C2839 1.394 . S
C2838 H2846 0.930 . S
C2839 C2838 1.394 . S
C2839 C2840 1.342 1_556 S
C2839 H2847 0.929 . S
C2840 C2839 1.342 1_554 S
C2840 C2841 1.416 . S
C2841 H2825 0.930 . S
C2841 C2840 1.416 . S
C2841 C2842 1.379 . S
C2842 H2826 0.931 . S
C2842 C2836 1.383 1_554 S
C2842 C2841 1.379 . S
H2843 C2837 0.959 . S
H2844 C2837 0.961 . S
H2845 C2837 0.960 . S
H2846 C2838 0.930 . S
H2847 C2839 0.929 . S
H2848 C2856 0.929 . S
H2849 C2858 0.930 . S
H2850 C2860 0.930 . S
H2851 C2863 0.929 . S
H2852 C2866 0.930 . S
H2853 C2868 0.960 . S
H2854 C2868 0.960 . S
H2855 C2868 0.960 . S
C2856 H2848 0.929 . S
C2856 C2857 1.377 . S
C2856 C2858 1.384 . S
C2857 C2856 1.377 . S
C2857 C2863 1.390 . S
C2858 H2849 0.930 . S
C2858 C2856 1.384 . S
C2858 C2859 1.372 . S
C2859 C2858 1.372 . S
C2859 C2860 1.400 . S
C2859 C2864 1.490 . S
C2860 H2850 0.930 . S
C2860 C2859 1.400 . S
C2860 C2863 1.386 . S
H2861 C2877 0.930 . S
H2862 C2878 0.931 . S
C2863 H2851 0.929 . S
C2863 C2857 1.390 . S
C2863 C2860 1.386 . S
C2864 C2859 1.490 . S
C2864 C2866 1.395 . S
C2864 C2867 1.403 . S
H2865 C2871 0.930 . S
C2866 H2852 0.930 . S
C2866 C2864 1.395 . S
C2866 C2869 1.403 . S
C2867 C2864 1.403 . S
C2867 C2868 1.524 . S
C2867 C2871 1.400 . S
C2868 H2853 0.960 . S
C2868 H2854 0.960 . S
C2868 H2855 0.960 . S
C2868 C2867 1.524 . S
C2869 C2866 1.403 . S
C2869 C2870 1.392 . S
C2869 C2873 1.495 . S
C2870 C2869 1.392 . S
C2870 C2871 1.385 . S
C2870 C2872 1.478 . S
C2871 H2865 0.930 . S
C2871 C2867 1.400 . S
C2871 C2870 1.385 . S
C2872 C2870 1.478 . S
C2872 C2874 1.381 . S
C2872 C2878 1.383 . S
C2873 C2869 1.495 . S
C2873 H2879 0.959 . S
C2873 H2880 0.961 . S
C2873 H2881 0.960 . S
C2874 C2872 1.381 . S
C2874 C2875 1.394 . S
C2874 H2882 0.930 . S
C2875 C2874 1.394 . S
C2875 C2876 1.383 . S
C2875 H2883 0.929 . S
C2876 C2875 1.383 . S
C2876 C2877 1.377 . S
C2877 H2861 0.930 . S
C2877 C2876 1.377 . S
C2877 C2878 1.379 . S
C2878 H2862 0.931 . S
C2878 C2872 1.383 . S
C2878 C2877 1.379 . S
H2879 C2873 0.959 . S
H2880 C2873 0.961 . S
H2881 C2873 0.960 . S
H2882 C2874 0.930 . S
H2883 C2875 0.929 . S
H2884 C2892 0.929 . S
H2885 C2894 0.930 . S
H2886 C2896 0.930 . S
H2887 C2899 0.929 . S
H2888 C2902 0.930 . S
H2889 C2904 0.960 . S
H2890 C2904 0.960 . S
H2891 C2904 0.960 . S
C2892 H2884 0.929 . S
C2892 C2893 1.377 . S
C2892 C2894 1.384 . S
C2893 C2892 1.377 . S
C2893 C2899 1.390 . S
C2894 H2885 0.930 . S
C2894 C2892 1.384 . S
C2894 C2895 1.372 . S
C2895 C2894 1.372 . S
C2895 C2896 1.400 . S
C2895 C2900 1.490 . S
C2896 H2886 0.930 . S
C2896 C2895 1.400 . S
C2896 C2899 1.386 . S
H2897 C2913 0.930 . S
H2898 C2914 0.931 . S
C2899 H2887 0.929 . S
C2899 C2893 1.390 . S
C2899 C2896 1.386 . S
C2900 C2895 1.490 . S
C2900 C2902 1.395 . S
C2900 C2903 1.403 . S
H2901 C2907 0.930 . S
C2902 H2888 0.930 . S
C2902 C2900 1.395 . S
C2902 C2905 1.403 . S
C2903 C2900 1.403 . S
C2903 C2904 1.524 . S
C2903 C2907 1.400 . S
C2904 H2889 0.960 . S
C2904 H2890 0.960 . S
C2904 H2891 0.960 . S
C2904 C2903 1.524 . S
C2905 C2902 1.403 . S
C2905 C2906 1.392 . S
C2905 C2909 1.495 . S
C2906 C2905 1.392 . S
C2906 C2907 1.385 . S
C2906 C2908 1.478 . S
C2907 H2901 0.930 . S
C2907 C2903 1.400 . S
C2907 C2906 1.385 . S
C2908 C2906 1.478 . S
C2908 C2910 1.381 . S
C2908 C2914 1.383 . S
C2909 C2905 1.495 . S
C2909 H2915 0.959 . S
C2909 H2916 0.961 . S
C2909 H2917 0.960 . S
C2910 C2908 1.381 . S
C2910 C2911 1.394 . S
C2910 H2918 0.930 . S
C2911 C2910 1.394 . S
C2911 C2912 1.383 . S
C2911 H2919 0.929 . S
C2912 C2911 1.383 . S
C2912 C2913 1.377 . S
C2913 H2897 0.930 . S
C2913 C2912 1.377 . S
C2913 C2914 1.379 . S
C2914 H2898 0.931 . S
C2914 C2908 1.383 . S
C2914 C2913 1.379 . S
H2915 C2909 0.959 . S
H2916 C2909 0.961 . S
H2917 C2909 0.960 . S
H2918 C2910 0.930 . S
H2919 C2911 0.929 . S
H2920 C2928 0.929 . S
H2921 C2930 0.930 . S
H2922 C2932 0.930 . S
H2923 C2935 0.929 . S
H2924 C2938 0.930 . S
H2925 C2940 0.960 . S
H2926 C2940 0.960 . S
H2927 C2940 0.960 . S
C2928 H2920 0.929 . S
C2928 C2929 1.377 . S
C2928 C2930 1.384 . S
C2929 C2928 1.377 . S
C2929 C2935 1.390 . S
C2930 H2921 0.930 . S
C2930 C2928 1.384 . S
C2930 C2931 1.372 . S
C2931 C2930 1.372 . S
C2931 C2932 1.400 . S
C2931 C2936 1.490 . S
C2932 H2922 0.930 . S
C2932 C2931 1.400 . S
C2932 C2935 1.386 . S
H2933 C2949 0.930 . S
H2934 C2950 0.931 . S
C2935 H2923 0.929 . S
C2935 C2929 1.390 . S
C2935 C2932 1.386 . S
C2936 C2931 1.490 . S
C2936 C2938 1.395 . S
C2936 C2939 1.403 . S
H2937 C2943 0.930 . S
C2938 H2924 0.930 . S
C2938 C2936 1.395 . S
C2938 C2941 1.403 . S
C2939 C2936 1.403 . S
C2939 C2940 1.524 . S
C2939 C2943 1.400 . S
C2940 H2925 0.960 . S
C2940 H2926 0.960 . S
C2940 H2927 0.960 . S
C2940 C2939 1.524 . S
C2941 C2938 1.403 . S
C2941 C2942 1.392 . S
C2941 C2945 1.495 . S
C2942 C2941 1.392 . S
C2942 C2943 1.385 . S
C2942 C2944 1.478 . S
C2943 H2937 0.930 . S
C2943 C2939 1.400 . S
C2943 C2942 1.385 . S
C2944 C2942 1.478 . S
C2944 C2946 1.381 . S
C2944 C2950 1.383 . S
C2945 C2941 1.495 . S
C2945 H2951 0.959 . S
C2945 H2952 0.961 . S
C2945 H2953 0.960 . S
C2946 C2944 1.381 . S
C2946 C2947 1.394 . S
C2946 H2954 0.930 . S
C2947 C2946 1.394 . S
C2947 C2948 1.383 . S
C2947 H2955 0.929 . S
C2948 C2947 1.383 . S
C2948 C2949 1.377 . S
C2949 H2933 0.930 . S
C2949 C2948 1.377 . S
C2949 C2950 1.379 . S
C2950 H2934 0.931 . S
C2950 C2944 1.383 . S
C2950 C2949 1.379 . S
H2951 C2945 0.959 . S
H2952 C2945 0.961 . S
H2953 C2945 0.960 . S
H2954 C2946 0.930 . S
H2955 C2947 0.929 . S
H2956 C2964 0.929 . S
H2957 C2966 0.930 . S
H2958 C2968 0.930 . S
H2959 C2971 0.929 . S
H2960 C2974 0.930 . S
H2961 C2976 0.960 . S
H2962 C2976 0.960 . S
H2963 C2976 0.960 . S
C2964 H2956 0.929 . S
C2964 C2965 1.377 . S
C2964 C2966 1.384 . S
C2965 C2964 1.377 . S
C2965 C2971 1.390 . S
C2966 H2957 0.930 . S
C2966 C2964 1.384 . S
C2966 C2967 1.372 . S
C2967 C2966 1.372 . S
C2967 C2968 1.400 . S
C2967 C2972 1.490 . S
C2968 H2958 0.930 . S
C2968 C2967 1.400 . S
C2968 C2971 1.386 . S
H2969 C2985 0.930 . S
H2970 C2986 0.931 . S
C2971 H2959 0.929 . S
C2971 C2965 1.390 . S
C2971 C2968 1.386 . S
C2972 C2967 1.490 . S
C2972 C2974 1.395 . S
C2972 C2975 1.403 . S
H2973 C2979 0.930 . S
C2974 H2960 0.930 . S
C2974 C2972 1.395 . S
C2974 C2977 1.403 . S
C2975 C2972 1.403 . S
C2975 C2976 1.524 . S
C2975 C2979 1.400 . S
C2976 H2961 0.960 . S
C2976 H2962 0.960 . S
C2976 H2963 0.960 . S
C2976 C2975 1.524 . S
C2977 C2974 1.403 . S
C2977 C2978 1.392 . S
C2977 C2981 1.495 . S
C2978 C2977 1.392 . S
C2978 C2979 1.385 . S
C2978 C2980 1.478 . S
C2979 H2973 0.930 . S
C2979 C2975 1.400 . S
C2979 C2978 1.385 . S
C2980 C2978 1.478 . S
C2980 C2982 1.381 . S
C2980 C2986 1.383 . S
C2981 C2977 1.495 . S
C2981 H2987 0.959 . S
C2981 H2988 0.961 . S
C2981 H2989 0.960 . S
C2982 C2980 1.381 . S
C2982 C2983 1.394 . S
C2982 H2990 0.930 . S
C2983 C2982 1.394 . S
C2983 C2984 1.383 . S
C2983 H2991 0.929 . S
C2984 C2983 1.383 . S
C2984 C2985 1.377 . S
C2985 H2969 0.930 . S
C2985 C2984 1.377 . S
C2985 C2986 1.379 . S
C2986 H2970 0.931 . S
C2986 C2980 1.383 . S
C2986 C2985 1.379 . S
H2987 C2981 0.959 . S
H2988 C2981 0.961 . S
H2989 C2981 0.960 . S
H2990 C2982 0.930 . S
H2991 C2983 0.929 . S
H2992 C3000 0.929 . S
H2993 C3002 0.930 . S
H2994 C3004 0.930 . S
H2995 C3007 0.929 . S
H2996 C3010 0.930 . S
H2997 C3012 0.960 . S
H2998 C3012 0.960 . S
H2999 C3012 0.960 . S
C3000 H2992 0.929 . S
C3000 C3001 1.377 . S
C3000 C3002 1.384 . S
C3001 C3000 1.377 . S
C3001 C3007 1.390 . S
C3002 H2993 0.930 . S
C3002 C3000 1.384 . S
C3002 C3003 1.372 . S
C3003 C3002 1.372 . S
C3003 C3004 1.400 . S
C3003 C3008 1.490 . S
C3004 H2994 0.930 . S
C3004 C3003 1.400 . S
C3004 C3007 1.386 . S
H3005 C3021 0.930 . S
H3006 C3022 0.931 . S
C3007 H2995 0.929 . S
C3007 C3001 1.390 . S
C3007 C3004 1.386 . S
C3008 C3003 1.490 . S
C3008 C3010 1.395 . S
C3008 C3011 1.403 . S
H3009 C3015 0.930 . S
C3010 H2996 0.930 . S
C3010 C3008 1.395 . S
C3010 C3013 1.403 . S
C3011 C3008 1.403 . S
C3011 C3012 1.524 . S
C3011 C3015 1.400 . S
C3012 H2997 0.960 . S
C3012 H2998 0.960 . S
C3012 H2999 0.960 . S
C3012 C3011 1.524 . S
C3013 C3010 1.403 . S
C3013 C3014 1.392 . S
C3013 C3017 1.495 . S
C3014 C3013 1.392 . S
C3014 C3015 1.385 . S
C3014 C3016 1.478 . S
C3015 H3009 0.930 . S
C3015 C3011 1.400 . S
C3015 C3014 1.385 . S
C3016 C3014 1.478 . S
C3016 C3018 1.381 . S
C3016 C3022 1.383 . S
C3017 C3013 1.495 . S
C3017 H3023 0.959 . S
C3017 H3024 0.961 . S
C3017 H3025 0.960 . S
C3018 C3016 1.381 . S
C3018 C3019 1.394 . S
C3018 H3026 0.930 . S
C3019 C3018 1.394 . S
C3019 C3020 1.383 . S
C3019 H3027 0.929 . S
C3020 C3019 1.383 . S
C3020 C3021 1.377 . S
C3021 H3005 0.930 . S
C3021 C3020 1.377 . S
C3021 C3022 1.379 . S
C3022 H3006 0.931 . S
C3022 C3016 1.383 . S
C3022 C3021 1.379 . S
H3023 C3017 0.959 . S
H3024 C3017 0.961 . S
H3025 C3017 0.960 . S
H3026 C3018 0.930 . S
H3027 C3019 0.929 . S
H3028 C3036 0.929 . S
H3029 C3038 0.930 . S
H3030 C3040 0.930 . S
H3031 C3043 0.929 . S
H3032 C3046 0.930 . S
H3033 C3048 0.960 . S
H3034 C3048 0.960 . S
H3035 C3048 0.960 . S
C3036 H3028 0.929 . S
C3036 C3037 1.377 . S
C3036 C3038 1.384 . S
C3037 C3036 1.377 . S
C3037 C3043 1.390 . S
C3038 H3029 0.930 . S
C3038 C3036 1.384 . S
C3038 C3039 1.372 . S
C3039 C3038 1.372 . S
C3039 C3040 1.400 . S
C3039 C3044 1.490 . S
C3040 H3030 0.930 . S
C3040 C3039 1.400 . S
C3040 C3043 1.386 . S
H3041 C3057 0.930 . S
H3042 C3058 0.931 . S
C3043 H3031 0.929 . S
C3043 C3037 1.390 . S
C3043 C3040 1.386 . S
C3044 C3039 1.490 . S
C3044 C3046 1.395 . S
C3044 C3047 1.403 . S
H3045 C3051 0.930 . S
C3046 H3032 0.930 . S
C3046 C3044 1.395 . S
C3046 C3049 1.403 . S
C3047 C3044 1.403 . S
C3047 C3048 1.524 . S
C3047 C3051 1.400 . S
C3048 H3033 0.960 . S
C3048 H3034 0.960 . S
C3048 H3035 0.960 . S
C3048 C3047 1.524 . S
C3049 C3046 1.403 . S
C3049 C3050 1.392 . S
C3049 C3053 1.495 . S
C3050 C3049 1.392 . S
C3050 C3051 1.385 . S
C3050 C3052 1.478 . S
C3051 H3045 0.930 . S
C3051 C3047 1.400 . S
C3051 C3050 1.385 . S
C3052 C3050 1.478 . S
C3052 C3054 1.381 . S
C3052 C3058 1.383 . S
C3053 C3049 1.495 . S
C3053 H3059 0.959 . S
C3053 H3060 0.961 . S
C3053 H3061 0.960 . S
C3054 C3052 1.381 . S
C3054 C3055 1.394 . S
C3054 H3062 0.930 . S
C3055 C3054 1.394 . S
C3055 C3056 1.383 . S
C3055 H3063 0.929 . S
C3056 C3055 1.383 . S
C3056 C3057 1.377 . S
C3057 H3041 0.930 . S
C3057 C3056 1.377 . S
C3057 C3058 1.379 . S
C3058 H3042 0.931 . S
C3058 C3052 1.383 . S
C3058 C3057 1.379 . S
H3059 C3053 0.959 . S
H3060 C3053 0.961 . S
H3061 C3053 0.960 . S
H3062 C3054 0.930 . S
H3063 C3055 0.929 . S
H3064 C3072 0.929 . S
H3065 C3074 0.930 . S
H3066 C3076 0.930 . S
H3067 C3079 0.929 . S
H3068 C3082 0.930 . S
H3069 C3084 0.960 . S
H3070 C3084 0.960 . S
H3071 C3084 0.960 . S
C3072 H3064 0.929 . S
C3072 C3073 1.377 . S
C3072 C3074 1.384 . S
C3073 C3072 1.377 . S
C3073 C3079 1.390 . S
C3074 H3065 0.930 . S
C3074 C3072 1.384 . S
C3074 C3075 1.372 . S
C3075 C3074 1.372 . S
C3075 C3076 1.400 . S
C3075 C3080 1.490 . S
C3076 H3066 0.930 . S
C3076 C3075 1.400 . S
C3076 C3079 1.386 . S
H3077 C3093 0.930 . S
H3078 C3094 0.931 . S
C3079 H3067 0.929 . S
C3079 C3073 1.390 . S
C3079 C3076 1.386 . S
C3080 C3075 1.490 . S
C3080 C3082 1.395 . S
C3080 C3083 1.403 . S
H3081 C3087 0.930 . S
C3082 H3068 0.930 . S
C3082 C3080 1.395 . S
C3082 C3085 1.403 . S
C3083 C3080 1.403 . S
C3083 C3084 1.524 . S
C3083 C3087 1.400 . S
C3084 H3069 0.960 . S
C3084 H3070 0.960 . S
C3084 H3071 0.960 . S
C3084 C3083 1.524 . S
C3085 C3082 1.403 . S
C3085 C3086 1.392 . S
C3085 C3089 1.495 . S
C3086 C3085 1.392 . S
C3086 C3087 1.385 . S
C3086 C3088 1.478 . S
C3087 H3081 0.930 . S
C3087 C3083 1.400 . S
C3087 C3086 1.385 . S
C3088 C3086 1.478 . S
C3088 C3090 1.381 . S
C3088 C3094 1.383 . S
C3089 C3085 1.495 . S
C3089 H3095 0.959 . S
C3089 H3096 0.961 . S
C3089 H3097 0.960 . S
C3090 C3088 1.381 . S
C3090 C3091 1.394 . S
C3090 H3098 0.930 . S
C3091 C3090 1.394 . S
C3091 C3092 1.383 . S
C3091 H3099 0.929 . S
C3092 C3091 1.383 . S
C3092 C3093 1.377 . S
C3093 H3077 0.930 . S
C3093 C3092 1.377 . S
C3093 C3094 1.379 . S
C3094 H3078 0.931 . S
C3094 C3088 1.383 . S
C3094 C3093 1.379 . S
H3095 C3089 0.959 . S
H3096 C3089 0.961 . S
H3097 C3089 0.960 . S
H3098 C3090 0.930 . S
H3099 C3091 0.929 . S
H3100 C3108 0.929 . S
H3101 C3110 0.930 . S
H3102 C3112 0.930 . S
H3103 C3115 0.929 . S
H3104 C3118 0.930 . S
H3105 C3120 0.960 . S
H3106 C3120 0.960 . S
H3107 C3120 0.960 . S
C3108 H3100 0.929 . S
C3108 C3109 1.377 . S
C3108 C3110 1.384 . S
C3109 C3108 1.377 . S
C3109 C3115 1.390 . S
C3110 H3101 0.930 . S
C3110 C3108 1.384 . S
C3110 C3111 1.372 . S
C3111 C3110 1.372 . S
C3111 C3112 1.400 . S
C3111 C3116 1.490 . S
C3112 H3102 0.930 . S
C3112 C3111 1.400 . S
C3112 C3115 1.386 . S
H3113 C3129 0.930 . S
H3114 C3130 0.931 . S
C3115 H3103 0.929 . S
C3115 C3109 1.390 . S
C3115 C3112 1.386 . S
C3116 C3111 1.490 . S
C3116 C3118 1.395 . S
C3116 C3119 1.403 . S
H3117 C3123 0.930 . S
C3118 H3104 0.930 . S
C3118 C3116 1.395 . S
C3118 C3121 1.403 . S
C3119 C3116 1.403 . S
C3119 C3120 1.524 . S
C3119 C3123 1.400 . S
C3120 H3105 0.960 . S
C3120 H3106 0.960 . S
C3120 H3107 0.960 . S
C3120 C3119 1.524 . S
C3121 C3118 1.403 . S
C3121 C3122 1.392 . S
C3121 C3125 1.495 . S
C3122 C3121 1.392 . S
C3122 C3123 1.385 . S
C3122 C3124 1.478 . S
C3123 H3117 0.930 . S
C3123 C3119 1.400 . S
C3123 C3122 1.385 . S
C3124 C3122 1.478 . S
C3124 C3126 1.381 . S
C3124 C3130 1.383 . S
C3125 C3121 1.495 . S
C3125 H3131 0.959 . S
C3125 H3132 0.961 . S
C3125 H3133 0.960 . S
C3126 C3124 1.381 . S
C3126 C3127 1.394 . S
C3126 H3134 0.930 . S
C3127 C3126 1.394 . S
C3127 C3128 1.383 . S
C3127 H3135 0.929 . S
C3128 C3127 1.383 . S
C3128 C3129 1.377 . S
C3129 H3113 0.930 . S
C3129 C3128 1.377 . S
C3129 C3130 1.379 . S
C3130 H3114 0.931 . S
C3130 C3124 1.383 . S
C3130 C3129 1.379 . S
H3131 C3125 0.959 . S
H3132 C3125 0.961 . S
H3133 C3125 0.960 . S
H3134 C3126 0.930 . S
H3135 C3127 0.929 . S
H3136 C3144 0.929 . S
H3137 C3146 0.930 . S
H3138 C3148 0.930 . S
H3139 C3151 0.929 . S
H3140 C3154 0.930 . S
H3141 C3156 0.960 . S
H3142 C3156 0.960 . S
H3143 C3156 0.960 . S
C3144 H3136 0.929 . S
C3144 C3145 1.377 . S
C3144 C3146 1.384 . S
C3145 C3144 1.377 . S
C3145 C3151 1.390 . S
C3146 H3137 0.930 . S
C3146 C3144 1.384 . S
C3146 C3147 1.372 . S
C3147 C3146 1.372 . S
C3147 C3148 1.400 . S
C3147 C3152 1.490 . S
C3148 H3138 0.930 . S
C3148 C3147 1.400 . S
C3148 C3151 1.386 . S
H3149 C3165 0.930 . S
H3150 C3166 0.931 . S
C3151 H3139 0.929 . S
C3151 C3145 1.390 . S
C3151 C3148 1.386 . S
C3152 C3147 1.490 . S
C3152 C3154 1.395 . S
C3152 C3155 1.403 . S
H3153 C3159 0.930 . S
C3154 H3140 0.930 . S
C3154 C3152 1.395 . S
C3154 C3157 1.403 . S
C3155 C3152 1.403 . S
C3155 C3156 1.524 . S
C3155 C3159 1.400 . S
C3156 H3141 0.960 . S
C3156 H3142 0.960 . S
C3156 H3143 0.960 . S
C3156 C3155 1.524 . S
C3157 C3154 1.403 . S
C3157 C3158 1.392 . S
C3157 C3161 1.495 . S
C3158 C3157 1.392 . S
C3158 C3159 1.385 . S
C3158 C3160 1.478 . S
C3159 H3153 0.930 . S
C3159 C3155 1.400 . S
C3159 C3158 1.385 . S
C3160 C3158 1.478 . S
C3160 C3162 1.381 . S
C3160 C3166 1.383 . S
C3161 C3157 1.495 . S
C3161 H3167 0.959 . S
C3161 H3168 0.961 . S
C3161 H3169 0.960 . S
C3162 C3160 1.381 . S
C3162 C3163 1.394 . S
C3162 H3170 0.930 . S
C3163 C3162 1.394 . S
C3163 C3164 1.383 . S
C3163 H3171 0.929 . S
C3164 C3163 1.383 . S
C3164 C3165 1.377 . S
C3165 H3149 0.930 . S
C3165 C3164 1.377 . S
C3165 C3166 1.379 . S
C3166 H3150 0.931 . S
C3166 C3160 1.383 . S
C3166 C3165 1.379 . S
H3167 C3161 0.959 . S
H3168 C3161 0.961 . S
H3169 C3161 0.960 . S
H3170 C3162 0.930 . S
H3171 C3163 0.929 . S
H3172 C3180 0.929 . S
H3173 C3182 0.930 . S
H3174 C3184 0.930 . S
H3175 C3187 0.929 . S
H3176 C3190 0.930 . S
H3177 C3192 0.960 . S
H3178 C3192 0.960 . S
H3179 C3192 0.960 . S
C3180 H3172 0.929 . S
C3180 C3181 1.377 . S
C3180 C3182 1.384 . S
C3181 C3180 1.377 . S
C3181 C3187 1.390 . S
C3182 H3173 0.930 . S
C3182 C3180 1.384 . S
C3182 C3183 1.372 . S
C3183 C3182 1.372 . S
C3183 C3184 1.400 . S
C3183 C3188 1.490 . S
C3184 H3174 0.930 . S
C3184 C3183 1.400 . S
C3184 C3187 1.386 . S
H3185 C3201 0.930 . S
H3186 C3202 0.931 . S
C3187 H3175 0.929 . S
C3187 C3181 1.390 . S
C3187 C3184 1.386 . S
C3188 C3183 1.490 . S
C3188 C3190 1.395 . S
C3188 C3191 1.403 . S
H3189 C3195 0.930 . S
C3190 H3176 0.930 . S
C3190 C3188 1.395 . S
C3190 C3193 1.403 . S
C3191 C3188 1.403 . S
C3191 C3192 1.524 . S
C3191 C3195 1.400 . S
C3192 H3177 0.960 . S
C3192 H3178 0.960 . S
C3192 H3179 0.960 . S
C3192 C3191 1.524 . S
C3193 C3190 1.403 . S
C3193 C3194 1.392 . S
C3193 C3197 1.495 . S
C3194 C3193 1.392 . S
C3194 C3195 1.385 . S
C3194 C3196 1.478 . S
C3195 H3189 0.930 . S
C3195 C3191 1.400 . S
C3195 C3194 1.385 . S
C3196 C3194 1.478 . S
C3196 C3198 1.381 . S
C3196 C3202 1.383 . S
C3197 C3193 1.495 . S
C3197 H3203 0.959 . S
C3197 H3204 0.961 . S
C3197 H3205 0.960 . S
C3198 C3196 1.381 . S
C3198 C3199 1.394 . S
C3198 H3206 0.930 . S
C3199 C3198 1.394 . S
C3199 C3200 1.383 . S
C3199 H3207 0.929 . S
C3200 C3199 1.383 . S
C3200 C3201 1.377 . S
C3201 H3185 0.930 . S
C3201 C3200 1.377 . S
C3201 C3202 1.379 . S
C3202 H3186 0.931 . S
C3202 C3196 1.383 . S
C3202 C3201 1.379 . S
H3203 C3197 0.959 . S
H3204 C3197 0.961 . S
H3205 C3197 0.960 . S
H3206 C3198 0.930 . S
H3207 C3199 0.929 . S
H3208 C3216 0.929 . S
H3209 C3218 0.930 . S
H3210 C3220 0.930 . S
H3211 C3223 0.929 . S
H3212 C3226 0.930 . S
H3213 C3228 0.960 . S
H3214 C3228 0.960 . S
H3215 C3228 0.960 . S
C3216 H3208 0.929 . S
C3216 C3217 1.377 . S
C3216 C3218 1.384 . S
C3217 C3216 1.377 . S
C3217 C3223 1.390 . S
C3218 H3209 0.930 . S
C3218 C3216 1.384 . S
C3218 C3219 1.372 . S
C3219 C3218 1.372 . S
C3219 C3220 1.400 . S
C3219 C3224 1.490 . S
C3220 H3210 0.930 . S
C3220 C3219 1.400 . S
C3220 C3223 1.386 . S
H3221 C3237 0.930 . S
H3222 C3238 0.931 . S
C3223 H3211 0.929 . S
C3223 C3217 1.390 . S
C3223 C3220 1.386 . S
C3224 C3219 1.490 . S
C3224 C3226 1.395 . S
C3224 C3227 1.403 . S
H3225 C3231 0.930 . S
C3226 H3212 0.930 . S
C3226 C3224 1.395 . S
C3226 C3229 1.403 . S
C3227 C3224 1.403 . S
C3227 C3228 1.524 . S
C3227 C3231 1.400 . S
C3228 H3213 0.960 . S
C3228 H3214 0.960 . S
C3228 H3215 0.960 . S
C3228 C3227 1.524 . S
C3229 C3226 1.403 . S
C3229 C3230 1.392 . S
C3229 C3233 1.495 . S
C3230 C3229 1.392 . S
C3230 C3231 1.385 . S
C3230 C3232 1.478 . S
C3231 H3225 0.930 . S
C3231 C3227 1.400 . S
C3231 C3230 1.385 . S
C3232 C3230 1.478 . S
C3232 C3234 1.381 . S
C3232 C3238 1.383 . S
C3233 C3229 1.495 . S
C3233 H3239 0.959 . S
C3233 H3240 0.961 . S
C3233 H3241 0.960 . S
C3234 C3232 1.381 . S
C3234 C3235 1.394 . S
C3234 H3242 0.930 . S
C3235 C3234 1.394 . S
C3235 C3236 1.383 . S
C3235 H3243 0.929 . S
C3236 C3235 1.383 . S
C3236 C3237 1.377 . S
C3237 H3221 0.930 . S
C3237 C3236 1.377 . S
C3237 C3238 1.379 . S
C3238 H3222 0.931 . S
C3238 C3232 1.383 . S
C3238 C3237 1.379 . S
H3239 C3233 0.959 . S
H3240 C3233 0.961 . S
H3241 C3233 0.960 . S
H3242 C3234 0.930 . S
H3243 C3235 0.929 . S
H3244 C3252 0.929 . S
H3245 C3254 0.930 . S
H3246 C3256 0.930 . S
H3247 C3259 0.929 . S
H3248 C3262 0.930 . S
H3249 C3264 0.960 . S
H3250 C3264 0.960 . S
H3251 C3264 0.960 . S
C3252 H3244 0.929 . S
C3252 C3253 1.377 . S
C3252 C3254 1.384 . S
C3253 C3252 1.377 . S
C3253 C3259 1.390 . S
C3254 H3245 0.930 . S
C3254 C3252 1.384 . S
C3254 C3255 1.372 . S
C3255 C3254 1.372 . S
C3255 C3256 1.400 . S
C3255 C3260 1.490 . S
C3256 H3246 0.930 . S
C3256 C3255 1.400 . S
C3256 C3259 1.386 . S
H3257 C3273 0.930 . S
H3258 C3274 0.931 . S
C3259 H3247 0.929 . S
C3259 C3253 1.390 . S
C3259 C3256 1.386 . S
C3260 C3255 1.490 . S
C3260 C3262 1.395 . S
C3260 C3263 1.403 . S
H3261 C3267 0.930 . S
C3262 H3248 0.930 . S
C3262 C3260 1.395 . S
C3262 C3265 1.403 . S
C3263 C3260 1.403 . S
C3263 C3264 1.524 . S
C3263 C3267 1.400 . S
C3264 H3249 0.960 . S
C3264 H3250 0.960 . S
C3264 H3251 0.960 . S
C3264 C3263 1.524 . S
C3265 C3262 1.403 . S
C3265 C3266 1.392 . S
C3265 C3269 1.495 . S
C3266 C3265 1.392 . S
C3266 C3267 1.385 . S
C3266 C3268 1.478 . S
C3267 H3261 0.930 . S
C3267 C3263 1.400 . S
C3267 C3266 1.385 . S
C3268 C3266 1.478 . S
C3268 C3270 1.381 . S
C3268 C3274 1.383 . S
C3269 C3265 1.495 . S
C3269 H3275 0.959 . S
C3269 H3276 0.961 . S
C3269 H3277 0.960 . S
C3270 C3268 1.381 . S
C3270 C3271 1.394 . S
C3270 H3278 0.930 . S
C3271 C3270 1.394 . S
C3271 C3272 1.383 . S
C3271 H3279 0.929 . S
C3272 C3271 1.383 . S
C3272 C3273 1.377 . S
C3273 H3257 0.930 . S
C3273 C3272 1.377 . S
C3273 C3274 1.379 . S
C3274 H3258 0.931 . S
C3274 C3268 1.383 . S
C3274 C3273 1.379 . S
H3275 C3269 0.959 . S
H3276 C3269 0.961 . S
H3277 C3269 0.960 . S
H3278 C3270 0.930 . S
H3279 C3271 0.929 . S
H3280 C3288 0.929 . S
H3281 C3290 0.930 . S
H3282 C3292 0.930 . S
H3283 C3295 0.929 . S
H3284 C3298 0.930 . S
H3285 C3300 0.960 . S
H3286 C3300 0.960 . S
H3287 C3300 0.960 . S
C3288 H3280 0.929 . S
C3288 C3289 1.377 . S
C3288 C3290 1.384 . S
C3289 C3288 1.377 . S
C3289 C3295 1.390 . S
C3290 H3281 0.930 . S
C3290 C3288 1.384 . S
C3290 C3291 1.372 . S
C3291 C3290 1.372 . S
C3291 C3292 1.400 . S
C3291 C3296 1.490 . S
C3292 H3282 0.930 . S
C3292 C3291 1.400 . S
C3292 C3295 1.386 . S
H3293 C3309 0.930 . S
H3294 C3310 0.931 . S
C3295 H3283 0.929 . S
C3295 C3289 1.390 . S
C3295 C3292 1.386 . S
C3296 C3291 1.490 . S
C3296 C3298 1.395 . S
C3296 C3299 1.403 . S
H3297 C3303 0.930 . S
C3298 H3284 0.930 . S
C3298 C3296 1.395 . S
C3298 C3301 1.403 . S
C3299 C3296 1.403 . S
C3299 C3300 1.524 . S
C3299 C3303 1.400 . S
C3300 H3285 0.960 . S
C3300 H3286 0.960 . S
C3300 H3287 0.960 . S
C3300 C3299 1.524 . S
C3301 C3298 1.403 . S
C3301 C3302 1.392 . S
C3301 C3305 1.495 . S
C3302 C3301 1.392 . S
C3302 C3303 1.385 . S
C3302 C3304 1.478 . S
C3303 H3297 0.930 . S
C3303 C3299 1.400 . S
C3303 C3302 1.385 . S
C3304 C3302 1.478 . S
C3304 C3306 1.381 . S
C3304 C3310 1.383 . S
C3305 C3301 1.495 . S
C3305 H3311 0.959 . S
C3305 H3312 0.961 . S
C3305 H3313 0.960 . S
C3306 C3304 1.381 . S
C3306 C3307 1.394 . S
C3306 H3314 0.930 . S
C3307 C3306 1.394 . S
C3307 C3308 1.383 . S
C3307 H3315 0.929 . S
C3308 C3307 1.383 . S
C3308 C3309 1.377 . S
C3309 H3293 0.930 . S
C3309 C3308 1.377 . S
C3309 C3310 1.379 . S
C3310 H3294 0.931 . S
C3310 C3304 1.383 . S
C3310 C3309 1.379 . S
H3311 C3305 0.959 . S
H3312 C3305 0.961 . S
H3313 C3305 0.960 . S
H3314 C3306 0.930 . S
H3315 C3307 0.929 . S
H3316 C3324 0.929 . S
H3317 C3326 0.930 . S
H3318 C3328 0.930 . S
H3319 C3331 0.929 . S
H3320 C3334 0.930 . S
H3321 C3336 0.960 . S
H3322 C3336 0.960 . S
H3323 C3336 0.960 . S
C3324 H3316 0.929 . S
C3324 C3325 1.377 . S
C3324 C3326 1.384 . S
C3325 C3324 1.377 . S
C3325 C3331 1.390 . S
C3326 H3317 0.930 . S
C3326 C3324 1.384 . S
C3326 C3327 1.372 . S
C3327 C3326 1.372 . S
C3327 C3328 1.400 . S
C3327 C3332 1.490 . S
C3328 H3318 0.930 . S
C3328 C3327 1.400 . S
C3328 C3331 1.386 . S
H3329 C3345 0.930 . S
H3330 C3346 0.931 . S
C3331 H3319 0.929 . S
C3331 C3325 1.390 . S
C3331 C3328 1.386 . S
C3332 C3327 1.490 . S
C3332 C3334 1.395 . S
C3332 C3335 1.403 . S
H3333 C3339 0.930 . S
C3334 H3320 0.930 . S
C3334 C3332 1.395 . S
C3334 C3337 1.403 . S
C3335 C3332 1.403 . S
C3335 C3336 1.524 . S
C3335 C3339 1.400 . S
C3336 H3321 0.960 . S
C3336 H3322 0.960 . S
C3336 H3323 0.960 . S
C3336 C3335 1.524 . S
C3337 C3334 1.403 . S
C3337 C3338 1.392 . S
C3337 C3341 1.495 . S
C3338 C3337 1.392 . S
C3338 C3339 1.385 . S
C3338 C3340 1.478 . S
C3339 H3333 0.930 . S
C3339 C3335 1.400 . S
C3339 C3338 1.385 . S
C3340 C3338 1.478 . S
C3340 C3342 1.381 . S
C3340 C3346 1.383 . S
C3341 C3337 1.495 . S
C3341 H3347 0.959 . S
C3341 H3348 0.961 . S
C3341 H3349 0.960 . S
C3342 C3340 1.381 . S
C3342 C3343 1.394 . S
C3342 H3350 0.930 . S
C3343 C3342 1.394 . S
C3343 C3344 1.383 . S
C3343 H3351 0.929 . S
C3344 C3343 1.383 . S
C3344 C3345 1.377 . S
C3345 H3329 0.930 . S
C3345 C3344 1.377 . S
C3345 C3346 1.379 . S
C3346 H3330 0.931 . S
C3346 C3340 1.383 . S
C3346 C3345 1.379 . S
H3347 C3341 0.959 . S
H3348 C3341 0.961 . S
H3349 C3341 0.960 . S
H3350 C3342 0.930 . S
H3351 C3343 0.929 . S
H3352 C3360 0.929 . S
H3353 C3362 0.930 . S
H3354 C3364 0.930 . S
H3355 C3367 0.929 . S
H3356 C3370 0.930 . S
H3357 C3372 0.960 . S
H3358 C3372 0.960 . S
H3359 C3372 0.960 . S
C3360 H3352 0.929 . S
C3360 C3361 1.377 . S
C3360 C3362 1.384 . S
C3361 C3360 1.377 . S
C3361 C3367 1.390 . S
C3362 H3353 0.930 . S
C3362 C3360 1.384 . S
C3362 C3363 1.372 . S
C3363 C3362 1.372 . S
C3363 C3364 1.400 . S
C3363 C3368 1.490 . S
C3364 H3354 0.930 . S
C3364 C3363 1.400 . S
C3364 C3367 1.386 . S
H3365 C3381 0.930 . S
H3366 C3382 0.931 . S
C3367 H3355 0.929 . S
C3367 C3361 1.390 . S
C3367 C3364 1.386 . S
C3368 C3363 1.490 . S
C3368 C3370 1.395 . S
C3368 C3371 1.403 . S
H3369 C3375 0.930 . S
C3370 H3356 0.930 . S
C3370 C3368 1.395 . S
C3370 C3373 1.403 . S
C3371 C3368 1.403 . S
C3371 C3372 1.524 . S
C3371 C3375 1.400 . S
C3372 H3357 0.960 . S
C3372 H3358 0.960 . S
C3372 H3359 0.960 . S
C3372 C3371 1.524 . S
C3373 C3370 1.403 . S
C3373 C3374 1.392 . S
C3373 C3377 1.495 . S
C3374 C3373 1.392 . S
C3374 C3375 1.385 . S
C3374 C3376 1.478 . S
C3375 H3369 0.930 . S
C3375 C3371 1.400 . S
C3375 C3374 1.385 . S
C3376 C3374 1.478 . S
C3376 C3378 1.381 . S
C3376 C3382 1.383 . S
C3377 C3373 1.495 . S
C3377 H3383 0.959 . S
C3377 H3384 0.961 . S
C3377 H3385 0.960 . S
C3378 C3376 1.381 . S
C3378 C3379 1.394 . S
C3378 H3386 0.930 . S
C3379 C3378 1.394 . S
C3379 C3380 1.383 . S
C3379 H3387 0.929 . S
C3380 C3379 1.383 . S
C3380 C3381 1.377 . S
C3381 H3365 0.930 . S
C3381 C3380 1.377 . S
C3381 C3382 1.379 . S
C3382 H3366 0.931 . S
C3382 C3376 1.383 . S
C3382 C3381 1.379 . S
H3383 C3377 0.959 . S
H3384 C3377 0.961 . S
H3385 C3377 0.960 . S
H3386 C3378 0.930 . S
H3387 C3379 0.929 . S
H3388 C3396 0.929 . S
H3389 C3398 0.930 . S
H3390 C3400 0.930 . S
H3391 C3403 0.929 . S
H3392 C3406 0.930 . S
H3393 C3408 0.960 . S
H3394 C3408 0.960 . S
H3395 C3408 0.960 . S
C3396 H3388 0.929 . S
C3396 C3397 1.377 . S
C3396 C3398 1.384 . S
C3397 C3396 1.377 . S
C3397 C3403 1.390 . S
C3398 H3389 0.930 . S
C3398 C3396 1.384 . S
C3398 C3399 1.372 . S
C3399 C3398 1.372 . S
C3399 C3400 1.400 . S
C3399 C3404 1.490 . S
C3400 H3390 0.930 . S
C3400 C3399 1.400 . S
C3400 C3403 1.386 . S
H3401 C3417 0.930 . S
H3402 C3418 0.931 . S
C3403 H3391 0.929 . S
C3403 C3397 1.390 . S
C3403 C3400 1.386 . S
C3404 C3399 1.490 . S
C3404 C3406 1.395 . S
C3404 C3407 1.403 . S
H3405 C3411 0.930 . S
C3406 H3392 0.930 . S
C3406 C3404 1.395 . S
C3406 C3409 1.403 . S
C3407 C3404 1.403 . S
C3407 C3408 1.524 . S
C3407 C3411 1.400 . S
C3408 H3393 0.960 . S
C3408 H3394 0.960 . S
C3408 H3395 0.960 . S
C3408 C3407 1.524 . S
C3409 C3406 1.403 . S
C3409 C3410 1.392 . S
C3409 C3413 1.495 . S
C3410 C3409 1.392 . S
C3410 C3411 1.385 . S
C3410 C3412 1.478 . S
C3411 H3405 0.930 . S
C3411 C3407 1.400 . S
C3411 C3410 1.385 . S
C3412 C3410 1.478 . S
C3412 C3414 1.381 . S
C3412 C3418 1.383 . S
C3413 C3409 1.495 . S
C3413 H3419 0.959 . S
C3413 H3420 0.961 . S
C3413 H3421 0.960 . S
C3414 C3412 1.381 . S
C3414 C3415 1.394 . S
C3414 H3422 0.930 . S
C3415 C3414 1.394 . S
C3415 C3416 1.383 . S
C3415 H3423 0.929 . S
C3416 C3415 1.383 . S
C3416 C3417 1.377 . S
C3417 H3401 0.930 . S
C3417 C3416 1.377 . S
C3417 C3418 1.379 . S
C3418 H3402 0.931 . S
C3418 C3412 1.383 . S
C3418 C3417 1.379 . S
H3419 C3413 0.959 . S
H3420 C3413 0.961 . S
H3421 C3413 0.960 . S
H3422 C3414 0.930 . S
H3423 C3415 0.929 . S
H3424 C3432 0.929 . S
H3425 C3434 0.930 . S
H3426 C3436 0.930 . S
H3427 C3439 0.929 . S
H3428 C3442 0.930 . S
H3429 C3444 0.960 . S
H3430 C3444 0.960 . S
H3431 C3444 0.960 . S
C3432 H3424 0.929 . S
C3432 C3433 1.377 1_556 S
C3432 C3434 1.384 . S
C3433 C3432 1.377 1_554 S
C3433 C3439 1.390 . S
C3434 H3425 0.930 . S
C3434 C3432 1.384 . S
C3434 C3435 1.372 1_556 S
C3435 C3434 1.372 1_554 S
C3435 C3436 1.400 . S
C3435 C3440 1.490 . S
C3436 H3426 0.930 . S
C3436 C3435 1.400 . S
C3436 C3439 1.386 . S
H3437 C3453 0.930 . S
H3438 C3454 0.931 . S
C3439 H3427 0.929 . S
C3439 C3433 1.390 . S
C3439 C3436 1.386 . S
C3440 C3435 1.490 . S
C3440 C3442 1.395 1_554 S
C3440 C3443 1.403 . S
H3441 C3447 0.930 . S
C3442 H3428 0.930 . S
C3442 C3440 1.395 1_556 S
C3442 C3445 1.403 . S
C3443 C3440 1.403 . S
C3443 C3444 1.524 . S
C3443 C3447 1.400 . S
C3444 H3429 0.960 . S
C3444 H3430 0.960 . S
C3444 H3431 0.960 . S
C3444 C3443 1.524 . S
C3445 C3442 1.403 . S
C3445 C3446 1.392 1_556 S
C3445 C3449 1.495 . S
C3446 C3445 1.392 1_554 S
C3446 C3447 1.385 . S
C3446 C3448 1.478 . S
C3447 H3441 0.930 . S
C3447 C3443 1.400 . S
C3447 C3446 1.385 . S
C3448 C3446 1.478 . S
C3448 C3450 1.381 1_554 S
C3448 C3454 1.383 . S
C3449 C3445 1.495 . S
C3449 H3455 0.959 . S
C3449 H3456 0.961 . S
C3449 H3457 0.960 . S
C3450 C3448 1.381 1_556 S
C3450 C3451 1.394 . S
C3450 H3458 0.930 . S
C3451 C3450 1.394 . S
C3451 C3452 1.383 1_556 S
C3451 H3459 0.929 . S
C3452 C3451 1.383 1_554 S
C3452 C3453 1.377 . S
C3453 H3437 0.930 . S
C3453 C3452 1.377 . S
C3453 C3454 1.379 . S
C3454 H3438 0.931 . S
C3454 C3448 1.383 . S
C3454 C3453 1.379 . S
H3455 C3449 0.959 . S
H3456 C3449 0.961 . S
H3457 C3449 0.960 . S
H3458 C3450 0.930 . S
H3459 C3451 0.929 . S
H3460 C3468 0.929 . S
H3461 C3470 0.930 . S
H3462 C3472 0.930 . S
H3463 C3475 0.929 . S
H3464 C3478 0.930 . S
H3465 C3480 0.960 . S
H3466 C3480 0.960 . S
H3467 C3480 0.960 . S
C3468 H3460 0.929 . S
C3468 C3469 1.377 . S
C3468 C3470 1.384 . S
C3469 C3468 1.377 . S
C3469 C3475 1.390 . S
C3470 H3461 0.930 . S
C3470 C3468 1.384 . S
C3470 C3471 1.372 . S
C3471 C3470 1.372 . S
C3471 C3472 1.400 . S
C3471 C3476 1.490 . S
C3472 H3462 0.930 . S
C3472 C3471 1.400 . S
C3472 C3475 1.386 . S
H3473 C3489 0.930 . S
H3474 C3490 0.931 . S
C3475 H3463 0.929 . S
C3475 C3469 1.390 . S
C3475 C3472 1.386 . S
C3476 C3471 1.490 . S
C3476 C3478 1.395 . S
C3476 C3479 1.403 . S
H3477 C3483 0.930 . S
C3478 H3464 0.930 . S
C3478 C3476 1.395 . S
C3478 C3481 1.403 . S
C3479 C3476 1.403 . S
C3479 C3480 1.524 . S
C3479 C3483 1.400 . S
C3480 H3465 0.960 . S
C3480 H3466 0.960 . S
C3480 H3467 0.960 . S
C3480 C3479 1.524 . S
C3481 C3478 1.403 . S
C3481 C3482 1.392 . S
C3481 C3485 1.495 . S
C3482 C3481 1.392 . S
C3482 C3483 1.385 . S
C3482 C3484 1.478 . S
C3483 H3477 0.930 . S
C3483 C3479 1.400 . S
C3483 C3482 1.385 . S
C3484 C3482 1.478 . S
C3484 C3486 1.381 . S
C3484 C3490 1.383 . S
C3485 C3481 1.495 . S
C3485 H3491 0.959 . S
C3485 H3492 0.961 . S
C3485 H3493 0.960 . S
C3486 C3484 1.381 . S
C3486 C3487 1.394 . S
C3486 H3494 0.930 . S
C3487 C3486 1.394 . S
C3487 C3488 1.383 . S
C3487 H3495 0.929 . S
C3488 C3487 1.383 . S
C3488 C3489 1.377 . S
C3489 H3473 0.930 . S
C3489 C3488 1.377 . S
C3489 C3490 1.379 . S
C3490 H3474 0.931 . S
C3490 C3484 1.383 . S
C3490 C3489 1.379 . S
H3491 C3485 0.959 . S
H3492 C3485 0.961 . S
H3493 C3485 0.960 . S
H3494 C3486 0.930 . S
H3495 C3487 0.929 . S
H3496 C3504 0.929 1_554 S
H3497 C3506 0.920 1_554 S
H3498 C3508 0.930 . S
H3499 C3511 0.929 . S
H3500 C3514 0.930 . S
H3501 C3516 0.960 . S
H3502 C3516 0.960 . S
H3503 C3516 0.960 . S
C3504 H3496 0.929 1_556 S
C3504 C3505 1.377 . S
C3504 C3506 1.384 . S
C3505 C3504 1.377 . S
C3505 C3511 1.390 . S
C3506 H3497 0.920 1_556 S
C3506 C3504 1.384 . S
C3506 C3507 1.372 . S
C3507 C3506 1.372 . S
C3507 C3508 1.400 . S
C3507 C3512 1.490 . S
C3508 H3498 0.930 . S
C3508 C3507 1.400 . S
C3508 C3511 1.386 . S
H3509 C3525 0.930 . S
H3510 C3526 0.931 . S
C3511 H3499 0.929 . S
C3511 C3505 1.390 . S
C3511 C3508 1.386 . S
C3512 C3507 1.490 . S
C3512 C3514 1.395 . S
C3512 C3515 1.403 1_556 S
H3513 C3519 0.930 . S
C3514 H3500 0.930 . S
C3514 C3512 1.395 . S
C3514 C3517 1.403 . S
C3515 C3512 1.403 1_554 S
C3515 C3516 1.524 . S
C3515 C3519 1.400 . S
C3516 H3501 0.960 . S
C3516 H3502 0.960 . S
C3516 H3503 0.960 . S
C3516 C3515 1.524 . S
C3517 C3514 1.403 . S
C3517 C3518 1.392 . S
C3517 C3521 1.495 . S
C3518 C3517 1.392 . S
C3518 C3519 1.385 1_556 S
C3518 C3520 1.478 . S
C3519 H3513 0.930 . S
C3519 C3515 1.400 . S
C3519 C3518 1.385 1_554 S
C3520 C3518 1.478 . S
C3520 C3522 1.381 . S
C3520 C3526 1.383 . S
C3521 C3517 1.495 . S
C3521 H3527 0.959 . S
C3521 H3528 0.961 . S
C3521 H3529 0.960 . S
C3522 C3520 1.381 . S
C3522 C3523 1.394 . S
C3522 H3530 0.919 1_556 S
C3523 C3522 1.394 . S
C3523 C3524 1.383 . S
C3523 H3531 0.929 1_556 S
C3524 C3523 1.383 . S
C3524 C3525 1.377 . S
C3525 H3509 0.930 . S
C3525 C3524 1.377 . S
C3525 C3526 1.379 . S
C3526 H3510 0.931 . S
C3526 C3520 1.383 . S
C3526 C3525 1.379 . S
H3527 C3521 0.959 . S
H3528 C3521 0.961 . S
H3529 C3521 0.960 . S
H3530 C3522 0.919 1_554 S
H3531 C3523 0.929 1_554 S
H3532 C3540 0.929 . S
H3533 C3542 0.930 . S
H3534 C3544 0.930 . S
H3535 C3547 0.929 . S
H3536 C3550 0.930 . S
H3537 C3552 0.960 . S
H3538 C3552 0.960 . S
H3539 C3552 0.960 . S
C3540 H3532 0.929 . S
C3540 C3541 1.377 . S
C3540 C3542 1.384 . S
C3541 C3540 1.377 . S
C3541 C3547 1.390 . S
C3542 H3533 0.930 . S
C3542 C3540 1.384 . S
C3542 C3543 1.372 . S
C3543 C3542 1.372 . S
C3543 C3544 1.400 . S
C3543 C3548 1.490 . S
C3544 H3534 0.930 . S
C3544 C3543 1.400 . S
C3544 C3547 1.386 . S
H3545 C3561 0.930 . S
H3546 C3562 0.931 . S
C3547 H3535 0.929 . S
C3547 C3541 1.390 . S
C3547 C3544 1.386 . S
C3548 C3543 1.490 . S
C3548 C3550 1.395 . S
C3548 C3551 1.403 . S
H3549 C3555 0.930 . S
C3550 H3536 0.930 . S
C3550 C3548 1.395 . S
C3550 C3553 1.403 . S
C3551 C3548 1.403 . S
C3551 C3552 1.524 . S
C3551 C3555 1.400 . S
C3552 H3537 0.960 . S
C3552 H3538 0.960 . S
C3552 H3539 0.960 . S
C3552 C3551 1.524 . S
C3553 C3550 1.403 . S
C3553 C3554 1.392 . S
C3553 C3557 1.495 . S
C3554 C3553 1.392 . S
C3554 C3555 1.385 . S
C3554 C3556 1.478 . S
C3555 H3549 0.930 . S
C3555 C3551 1.400 . S
C3555 C3554 1.385 . S
C3556 C3554 1.478 . S
C3556 C3558 1.381 . S
C3556 C3562 1.383 . S
C3557 C3553 1.495 . S
C3557 H3563 0.959 . S
C3557 H3564 0.961 . S
C3557 H3565 0.960 . S
C3558 C3556 1.381 . S
C3558 C3559 1.394 . S
C3558 H3566 0.930 . S
C3559 C3558 1.394 . S
C3559 C3560 1.383 . S
C3559 H3567 0.929 . S
C3560 C3559 1.383 . S
C3560 C3561 1.377 . S
C3561 H3545 0.930 . S
C3561 C3560 1.377 . S
C3561 C3562 1.379 . S
C3562 H3546 0.931 . S
C3562 C3556 1.383 . S
C3562 C3561 1.379 . S
H3563 C3557 0.959 . S
H3564 C3557 0.961 . S
H3565 C3557 0.960 . S
H3566 C3558 0.930 . S
H3567 C3559 0.929 . S
H3568 C3576 0.929 . S
H3569 C3578 0.930 . S
H3570 C3580 0.930 . S
H3571 C3583 0.929 . S
H3572 C3586 0.930 . S
H3573 C3588 0.960 . S
H3574 C3588 0.960 . S
H3575 C3588 0.960 . S
C3576 H3568 0.929 . S
C3576 C3577 1.377 . S
C3576 C3578 1.384 . S
C3577 C3576 1.377 . S
C3577 C3583 1.390 . S
C3578 H3569 0.930 . S
C3578 C3576 1.384 . S
C3578 C3579 1.372 . S
C3579 C3578 1.372 . S
C3579 C3580 1.400 . S
C3579 C3584 1.490 . S
C3580 H3570 0.930 . S
C3580 C3579 1.400 . S
C3580 C3583 1.386 . S
H3581 C3597 0.930 . S
H3582 C3598 0.931 . S
C3583 H3571 0.929 . S
C3583 C3577 1.390 . S
C3583 C3580 1.386 . S
C3584 C3579 1.490 . S
C3584 C3586 1.395 . S
C3584 C3587 1.403 . S
H3585 C3591 0.930 . S
C3586 H3572 0.930 . S
C3586 C3584 1.395 . S
C3586 C3589 1.403 . S
C3587 C3584 1.403 . S
C3587 C3588 1.524 . S
C3587 C3591 1.400 . S
C3588 H3573 0.960 . S
C3588 H3574 0.960 . S
C3588 H3575 0.960 . S
C3588 C3587 1.524 . S
C3589 C3586 1.403 . S
C3589 C3590 1.392 . S
C3589 C3593 1.495 . S
C3590 C3589 1.392 . S
C3590 C3591 1.385 . S
C3590 C3592 1.478 . S
C3591 H3585 0.930 . S
C3591 C3587 1.400 . S
C3591 C3590 1.385 . S
C3592 C3590 1.478 . S
C3592 C3594 1.381 . S
C3592 C3598 1.383 . S
C3593 C3589 1.495 . S
C3593 H3599 0.959 . S
C3593 H3600 0.961 . S
C3593 H3601 0.960 . S
C3594 C3592 1.381 . S
C3594 C3595 1.394 . S
C3594 H3602 0.930 . S
C3595 C3594 1.394 . S
C3595 C3596 1.383 . S
C3595 H3603 0.929 . S
C3596 C3595 1.383 . S
C3596 C3597 1.377 . S
C3597 H3581 0.930 . S
C3597 C3596 1.377 . S
C3597 C3598 1.379 . S
C3598 H3582 0.931 . S
C3598 C3592 1.383 . S
C3598 C3597 1.379 . S
H3599 C3593 0.959 . S
H3600 C3593 0.961 . S
H3601 C3593 0.960 . S
H3602 C3594 0.930 . S
H3603 C3595 0.929 . S
H3604 C3612 0.929 . S
H3605 C3614 0.930 . S
H3606 C3616 0.930 . S
H3607 C3619 0.929 . S
H3608 C3622 0.930 . S
H3609 C3624 0.960 . S
H3610 C3624 0.960 . S
H3611 C3624 0.960 . S
C3612 H3604 0.929 . S
C3612 C3613 1.377 . S
C3612 C3614 1.384 . S
C3613 C3612 1.377 . S
C3613 C3619 1.390 . S
C3614 H3605 0.930 . S
C3614 C3612 1.384 . S
C3614 C3615 1.372 . S
C3615 C3614 1.372 . S
C3615 C3616 1.400 . S
C3615 C3620 1.490 . S
C3616 H3606 0.930 . S
C3616 C3615 1.400 . S
C3616 C3619 1.386 . S
H3617 C3633 0.930 . S
H3618 C3634 0.931 . S
C3619 H3607 0.929 . S
C3619 C3613 1.390 . S
C3619 C3616 1.386 . S
C3620 C3615 1.490 . S
C3620 C3622 1.395 . S
C3620 C3623 1.403 . S
H3621 C3627 0.930 . S
C3622 H3608 0.930 . S
C3622 C3620 1.395 . S
C3622 C3625 1.403 . S
C3623 C3620 1.403 . S
C3623 C3624 1.524 . S
C3623 C3627 1.400 . S
C3624 H3609 0.960 . S
C3624 H3610 0.960 . S
C3624 H3611 0.960 . S
C3624 C3623 1.524 . S
C3625 C3622 1.403 . S
C3625 C3626 1.392 . S
C3625 C3629 1.495 . S
C3626 C3625 1.392 . S
C3626 C3627 1.385 . S
C3626 C3628 1.478 . S
C3627 H3621 0.930 . S
C3627 C3623 1.400 . S
C3627 C3626 1.385 . S
C3628 C3626 1.478 . S
C3628 C3630 1.381 . S
C3628 C3634 1.383 . S
C3629 C3625 1.495 . S
C3629 H3635 0.959 . S
C3629 H3636 0.961 . S
C3629 H3637 0.960 . S
C3630 C3628 1.381 . S
C3630 C3631 1.394 . S
C3630 H3638 0.930 . S
C3631 C3630 1.394 . S
C3631 C3632 1.383 . S
C3631 H3639 0.929 . S
C3632 C3631 1.383 . S
C3632 C3633 1.377 . S
C3633 H3617 0.930 . S
C3633 C3632 1.377 . S
C3633 C3634 1.379 . S
C3634 H3618 0.931 . S
C3634 C3628 1.383 . S
C3634 C3633 1.379 . S
H3635 C3629 0.959 . S
H3636 C3629 0.961 . S
H3637 C3629 0.960 . S
H3638 C3630 0.930 . S
H3639 C3631 0.929 . S
H3640 C3648 0.929 . S
H3641 C3650 0.930 . S
H3642 C3652 0.930 . S
H3643 C3655 0.929 . S
H3644 C3658 0.930 . S
H3645 C3660 0.960 . S
H3646 C3660 0.960 . S
H3647 C3660 0.960 . S
C3648 H3640 0.929 . S
C3648 C3649 1.377 . S
C3648 C3650 1.384 . S
C3649 C3648 1.377 . S
C3649 C3655 1.390 . S
C3650 H3641 0.930 . S
C3650 C3648 1.384 . S
C3650 C3651 1.372 . S
C3651 C3650 1.372 . S
C3651 C3652 1.400 . S
C3651 C3656 1.490 . S
C3652 H3642 0.930 . S
C3652 C3651 1.400 . S
C3652 C3655 1.386 . S
H3653 C3669 0.930 . S
H3654 C3670 0.931 . S
C3655 H3643 0.929 . S
C3655 C3649 1.390 . S
C3655 C3652 1.386 . S
C3656 C3651 1.490 . S
C3656 C3658 1.395 . S
C3656 C3659 1.403 . S
H3657 C3663 0.930 . S
C3658 H3644 0.930 . S
C3658 C3656 1.395 . S
C3658 C3661 1.403 . S
C3659 C3656 1.403 . S
C3659 C3660 1.524 . S
C3659 C3663 1.400 . S
C3660 H3645 0.960 . S
C3660 H3646 0.960 . S
C3660 H3647 0.960 . S
C3660 C3659 1.524 . S
C3661 C3658 1.403 . S
C3661 C3662 1.392 . S
C3661 C3665 1.495 . S
C3662 C3661 1.392 . S
C3662 C3663 1.385 . S
C3662 C3664 1.478 . S
C3663 H3657 0.930 . S
C3663 C3659 1.400 . S
C3663 C3662 1.385 . S
C3664 C3662 1.478 . S
C3664 C3666 1.381 . S
C3664 C3670 1.383 . S
C3665 C3661 1.495 . S
C3665 H3671 0.959 . S
C3665 H3672 0.961 . S
C3665 H3673 0.960 . S
C3666 C3664 1.381 . S
C3666 C3667 1.394 . S
C3666 H3674 0.930 . S
C3667 C3666 1.394 . S
C3667 C3668 1.383 . S
C3667 H3675 0.929 . S
C3668 C3667 1.383 . S
C3668 C3669 1.377 . S
C3669 H3653 0.930 . S
C3669 C3668 1.377 . S
C3669 C3670 1.379 . S
C3670 H3654 0.931 . S
C3670 C3664 1.383 . S
C3670 C3669 1.379 . S
H3671 C3665 0.959 . S
H3672 C3665 0.961 . S
H3673 C3665 0.960 . S
H3674 C3666 0.930 . S
H3675 C3667 0.929 . S
H3676 C3684 0.929 . S
H3677 C3686 0.930 . S
H3678 C3688 0.930 . S
H3679 C3691 0.929 . S
H3680 C3694 0.930 . S
H3681 C3696 0.960 . S
H3682 C3696 0.960 . S
H3683 C3696 0.960 . S
C3684 H3676 0.929 . S
C3684 C3685 1.377 . S
C3684 C3686 1.384 . S
C3685 C3684 1.377 . S
C3685 C3691 1.390 . S
C3686 H3677 0.930 . S
C3686 C3684 1.384 . S
C3686 C3687 1.372 . S
C3687 C3686 1.372 . S
C3687 C3688 1.400 . S
C3687 C3692 1.490 . S
C3688 H3678 0.930 . S
C3688 C3687 1.400 . S
C3688 C3691 1.386 . S
H3689 C3705 0.930 . S
H3690 C3706 0.931 . S
C3691 H3679 0.929 . S
C3691 C3685 1.390 . S
C3691 C3688 1.386 . S
C3692 C3687 1.490 . S
C3692 C3694 1.395 . S
C3692 C3695 1.403 . S
H3693 C3699 0.930 . S
C3694 H3680 0.930 . S
C3694 C3692 1.395 . S
C3694 C3697 1.403 . S
C3695 C3692 1.403 . S
C3695 C3696 1.524 . S
C3695 C3699 1.400 . S
C3696 H3681 0.960 . S
C3696 H3682 0.960 . S
C3696 H3683 0.960 . S
C3696 C3695 1.524 . S
C3697 C3694 1.403 . S
C3697 C3698 1.392 . S
C3697 C3701 1.495 . S
C3698 C3697 1.392 . S
C3698 C3699 1.385 . S
C3698 C3700 1.478 . S
C3699 H3693 0.930 . S
C3699 C3695 1.400 . S
C3699 C3698 1.385 . S
C3700 C3698 1.478 . S
C3700 C3702 1.381 . S
C3700 C3706 1.383 . S
C3701 C3697 1.495 . S
C3701 H3707 0.959 . S
C3701 H3708 0.961 . S
C3701 H3709 0.960 . S
C3702 C3700 1.381 . S
C3702 C3703 1.394 . S
C3702 H3710 0.930 . S
C3703 C3702 1.394 . S
C3703 C3704 1.383 . S
C3703 H3711 0.929 . S
C3704 C3703 1.383 . S
C3704 C3705 1.377 . S
C3705 H3689 0.930 . S
C3705 C3704 1.377 . S
C3705 C3706 1.379 . S
C3706 H3690 0.931 . S
C3706 C3700 1.383 . S
C3706 C3705 1.379 . S
H3707 C3701 0.959 . S
H3708 C3701 0.961 . S
H3709 C3701 0.960 . S
H3710 C3702 0.930 . S
H3711 C3703 0.929 . S
H3712 C3720 0.929 . S
H3713 C3722 0.930 . S
H3714 C3724 0.930 . S
H3715 C3727 0.929 . S
H3716 C3730 0.930 . S
H3717 C3732 0.960 . S
H3718 C3732 0.960 . S
H3719 C3732 0.960 . S
C3720 H3712 0.929 . S
C3720 C3721 1.377 . S
C3720 C3722 1.384 . S
C3721 C3720 1.377 . S
C3721 C3727 1.390 . S
C3722 H3713 0.930 . S
C3722 C3720 1.384 . S
C3722 C3723 1.372 . S
C3723 C3722 1.372 . S
C3723 C3724 1.400 . S
C3723 C3728 1.490 . S
C3724 H3714 0.930 . S
C3724 C3723 1.400 . S
C3724 C3727 1.386 . S
H3725 C3741 0.930 . S
H3726 C3742 0.931 . S
C3727 H3715 0.929 . S
C3727 C3721 1.390 . S
C3727 C3724 1.386 . S
C3728 C3723 1.490 . S
C3728 C3730 1.395 . S
C3728 C3731 1.403 . S
H3729 C3735 0.930 . S
C3730 H3716 0.930 . S
C3730 C3728 1.395 . S
C3730 C3733 1.403 . S
C3731 C3728 1.403 . S
C3731 C3732 1.524 . S
C3731 C3735 1.400 . S
C3732 H3717 0.960 . S
C3732 H3718 0.960 . S
C3732 H3719 0.960 . S
C3732 C3731 1.524 . S
C3733 C3730 1.403 . S
C3733 C3734 1.392 . S
C3733 C3737 1.495 . S
C3734 C3733 1.392 . S
C3734 C3735 1.385 . S
C3734 C3736 1.478 . S
C3735 H3729 0.930 . S
C3735 C3731 1.400 . S
C3735 C3734 1.385 . S
C3736 C3734 1.478 . S
C3736 C3738 1.381 . S
C3736 C3742 1.383 . S
C3737 C3733 1.495 . S
C3737 H3743 0.959 . S
C3737 H3744 0.961 . S
C3737 H3745 0.960 . S
C3738 C3736 1.381 . S
C3738 C3739 1.394 . S
C3738 H3746 0.930 . S
C3739 C3738 1.394 . S
C3739 C3740 1.383 . S
C3739 H3747 0.929 . S
C3740 C3739 1.383 . S
C3740 C3741 1.377 . S
C3741 H3725 0.930 . S
C3741 C3740 1.377 . S
C3741 C3742 1.379 . S
C3742 H3726 0.931 . S
C3742 C3736 1.383 . S
C3742 C3741 1.379 . S
H3743 C3737 0.959 . S
H3744 C3737 0.961 . S
H3745 C3737 0.960 . S
H3746 C3738 0.930 . S
H3747 C3739 0.929 . S
H3748 C3756 0.929 . S
H3749 C3758 0.930 . S
H3750 C3760 0.930 . S
H3751 C3763 0.929 . S
H3752 C3766 0.930 . S
H3753 C3768 0.960 . S
H3754 C3768 0.960 . S
H3755 C3768 0.960 . S
C3756 H3748 0.929 . S
C3756 C3757 1.377 . S
C3756 C3758 1.384 . S
C3757 C3756 1.377 . S
C3757 C3763 1.390 . S
C3758 H3749 0.930 . S
C3758 C3756 1.384 . S
C3758 C3759 1.372 . S
C3759 C3758 1.372 . S
C3759 C3760 1.400 . S
C3759 C3764 1.490 . S
C3760 H3750 0.930 . S
C3760 C3759 1.400 . S
C3760 C3763 1.386 . S
H3761 C3777 0.930 . S
H3762 C3778 0.931 . S
C3763 H3751 0.929 . S
C3763 C3757 1.390 . S
C3763 C3760 1.386 . S
C3764 C3759 1.490 . S
C3764 C3766 1.395 . S
C3764 C3767 1.403 . S
H3765 C3771 0.930 . S
C3766 H3752 0.930 . S
C3766 C3764 1.395 . S
C3766 C3769 1.403 . S
C3767 C3764 1.403 . S
C3767 C3768 1.524 . S
C3767 C3771 1.400 . S
C3768 H3753 0.960 . S
C3768 H3754 0.960 . S
C3768 H3755 0.960 . S
C3768 C3767 1.524 . S
C3769 C3766 1.403 . S
C3769 C3770 1.392 . S
C3769 C3773 1.495 . S
C3770 C3769 1.392 . S
C3770 C3771 1.385 . S
C3770 C3772 1.478 . S
C3771 H3765 0.930 . S
C3771 C3767 1.400 . S
C3771 C3770 1.385 . S
C3772 C3770 1.478 . S
C3772 C3774 1.381 . S
C3772 C3778 1.383 . S
C3773 C3769 1.495 . S
C3773 H3779 0.959 . S
C3773 H3780 0.961 . S
C3773 H3781 0.960 . S
C3774 C3772 1.381 . S
C3774 C3775 1.394 . S
C3774 H3782 0.930 . S
C3775 C3774 1.394 . S
C3775 C3776 1.383 . S
C3775 H3783 0.929 . S
C3776 C3775 1.383 . S
C3776 C3777 1.377 . S
C3777 H3761 0.930 . S
C3777 C3776 1.377 . S
C3777 C3778 1.379 . S
C3778 H3762 0.931 . S
C3778 C3772 1.383 . S
C3778 C3777 1.379 . S
H3779 C3773 0.959 . S
H3780 C3773 0.961 . S
H3781 C3773 0.960 . S
H3782 C3774 0.930 . S
H3783 C3775 0.929 . S
H3784 C3792 0.929 . S
H3785 C3794 0.930 . S
H3786 C3796 0.930 . S
H3787 C3799 0.929 . S
H3788 C3802 0.930 . S
H3789 C3804 0.960 . S
H3790 C3804 0.960 . S
H3791 C3804 0.960 . S
C3792 H3784 0.929 . S
C3792 C3793 1.377 . S
C3792 C3794 1.384 . S
C3793 C3792 1.377 . S
C3793 C3799 1.390 . S
C3794 H3785 0.930 . S
C3794 C3792 1.384 . S
C3794 C3795 1.372 . S
C3795 C3794 1.372 . S
C3795 C3796 1.400 . S
C3795 C3800 1.490 . S
C3796 H3786 0.930 . S
C3796 C3795 1.400 . S
C3796 C3799 1.386 . S
H3797 C3813 0.930 . S
H3798 C3814 0.931 . S
C3799 H3787 0.929 . S
C3799 C3793 1.390 . S
C3799 C3796 1.386 . S
C3800 C3795 1.490 . S
C3800 C3802 1.395 . S
C3800 C3803 1.403 . S
H3801 C3807 0.930 . S
C3802 H3788 0.930 . S
C3802 C3800 1.395 . S
C3802 C3805 1.403 . S
C3803 C3800 1.403 . S
C3803 C3804 1.524 . S
C3803 C3807 1.400 . S
C3804 H3789 0.960 . S
C3804 H3790 0.960 . S
C3804 H3791 0.960 . S
C3804 C3803 1.524 . S
C3805 C3802 1.403 . S
C3805 C3806 1.392 . S
C3805 C3809 1.495 . S
C3806 C3805 1.392 . S
C3806 C3807 1.385 . S
C3806 C3808 1.478 . S
C3807 H3801 0.930 . S
C3807 C3803 1.400 . S
C3807 C3806 1.385 . S
C3808 C3806 1.478 . S
C3808 C3810 1.381 . S
C3808 C3814 1.383 . S
C3809 C3805 1.495 . S
C3809 H3815 0.959 . S
C3809 H3816 0.961 . S
C3809 H3817 0.960 . S
C3810 C3808 1.381 . S
C3810 C3811 1.394 . S
C3810 H3818 0.930 . S
C3811 C3810 1.394 . S
C3811 C3812 1.383 . S
C3811 H3819 0.929 . S
C3812 C3811 1.383 . S
C3812 C3813 1.377 . S
C3813 H3797 0.930 . S
C3813 C3812 1.377 . S
C3813 C3814 1.379 . S
C3814 H3798 0.931 . S
C3814 C3808 1.383 . S
C3814 C3813 1.379 . S
H3815 C3809 0.959 . S
H3816 C3809 0.961 . S
H3817 C3809 0.960 . S
H3818 C3810 0.930 . S
H3819 C3811 0.929 . S
H3820 C3828 0.929 . S
H3821 C3830 0.930 . S
H3822 C3832 0.930 . S
H3823 C3835 0.929 . S
H3824 C3838 0.930 . S
H3825 C3840 0.960 . S
H3826 C3840 0.960 . S
H3827 C3840 0.960 . S
C3828 H3820 0.929 . S
C3828 C3829 1.377 . S
C3828 C3830 1.384 . S
C3829 C3828 1.377 . S
C3829 C3835 1.390 . S
C3830 H3821 0.930 . S
C3830 C3828 1.384 . S
C3830 C3831 1.372 . S
C3831 C3830 1.372 . S
C3831 C3832 1.400 . S
C3831 C3836 1.490 . S
C3832 H3822 0.930 . S
C3832 C3831 1.400 . S
C3832 C3835 1.386 . S
H3833 C3849 0.930 . S
H3834 C3850 0.931 . S
C3835 H3823 0.929 . S
C3835 C3829 1.390 . S
C3835 C3832 1.386 . S
C3836 C3831 1.490 . S
C3836 C3838 1.395 . S
C3836 C3839 1.403 . S
H3837 C3843 0.930 . S
C3838 H3824 0.930 . S
C3838 C3836 1.395 . S
C3838 C3841 1.403 . S
C3839 C3836 1.403 . S
C3839 C3840 1.524 . S
C3839 C3843 1.400 . S
C3840 H3825 0.960 . S
C3840 H3826 0.960 . S
C3840 H3827 0.960 . S
C3840 C3839 1.524 . S
C3841 C3838 1.403 . S
C3841 C3842 1.392 . S
C3841 C3845 1.495 . S
C3842 C3841 1.392 . S
C3842 C3843 1.385 . S
C3842 C3844 1.478 . S
C3843 H3837 0.930 . S
C3843 C3839 1.400 . S
C3843 C3842 1.385 . S
C3844 C3842 1.478 . S
C3844 C3846 1.381 . S
C3844 C3850 1.383 . S
C3845 C3841 1.495 . S
C3845 H3851 0.959 . S
C3845 H3852 0.961 . S
C3845 H3853 0.960 . S
C3846 C3844 1.381 . S
C3846 C3847 1.394 . S
C3846 H3854 0.930 . S
C3847 C3846 1.394 . S
C3847 C3848 1.383 . S
C3847 H3855 0.929 . S
C3848 C3847 1.383 . S
C3848 C3849 1.377 . S
C3849 H3833 0.930 . S
C3849 C3848 1.377 . S
C3849 C3850 1.379 . S
C3850 H3834 0.931 . S
C3850 C3844 1.383 . S
C3850 C3849 1.379 . S
H3851 C3845 0.959 . S
H3852 C3845 0.961 . S
H3853 C3845 0.960 . S
H3854 C3846 0.930 . S
H3855 C3847 0.929 . S
H3856 C3864 0.929 . S
H3857 C3866 0.930 . S
H3858 C3868 0.930 . S
H3859 C3871 0.929 . S
H3860 C3874 0.930 . S
H3861 C3876 0.960 . S
H3862 C3876 0.960 . S
H3863 C3876 0.960 . S
C3864 H3856 0.929 . S
C3864 C3865 1.377 . S
C3864 C3866 1.384 . S
C3865 C3864 1.377 . S
C3865 C3871 1.390 . S
C3866 H3857 0.930 . S
C3866 C3864 1.384 . S
C3866 C3867 1.372 . S
C3867 C3866 1.372 . S
C3867 C3868 1.400 . S
C3867 C3872 1.490 . S
C3868 H3858 0.930 . S
C3868 C3867 1.400 . S
C3868 C3871 1.386 . S
H3869 C3885 0.930 . S
H3870 C3886 0.931 . S
C3871 H3859 0.929 . S
C3871 C3865 1.390 . S
C3871 C3868 1.386 . S
C3872 C3867 1.490 . S
C3872 C3874 1.395 . S
C3872 C3875 1.403 1_554 S
H3873 C3879 0.930 . S
C3874 H3860 0.930 . S
C3874 C3872 1.395 . S
C3874 C3877 1.403 . S
C3875 C3872 1.403 1_556 S
C3875 C3876 1.524 . S
C3875 C3879 1.400 . S
C3876 H3861 0.960 . S
C3876 H3862 0.960 . S
C3876 H3863 0.960 . S
C3876 C3875 1.524 . S
C3877 C3874 1.403 . S
C3877 C3878 1.392 . S
C3877 C3881 1.495 . S
C3878 C3877 1.392 . S
C3878 C3879 1.385 1_554 S
C3878 C3880 1.478 . S
C3879 H3873 0.930 . S
C3879 C3875 1.400 . S
C3879 C3878 1.385 1_556 S
C3880 C3878 1.478 . S
C3880 C3882 1.381 . S
C3880 C3886 1.383 . S
C3881 C3877 1.495 . S
C3881 H3887 0.959 . S
C3881 H3888 0.961 . S
C3881 H3889 0.960 . S
C3882 C3880 1.381 . S
C3882 C3883 1.394 . S
C3882 H3890 0.930 . S
C3883 C3882 1.394 . S
C3883 C3884 1.383 . S
C3883 H3891 0.929 . S
C3884 C3883 1.383 . S
C3884 C3885 1.377 . S
C3885 H3869 0.930 . S
C3885 C3884 1.377 . S
C3885 C3886 1.379 . S
C3886 H3870 0.931 . S
C3886 C3880 1.383 . S
C3886 C3885 1.379 . S
H3887 C3881 0.959 . S
H3888 C3881 0.961 . S
H3889 C3881 0.960 . S
H3890 C3882 0.930 . S
H3891 C3883 0.929 . S
H3892 C3900 0.929 . S
H3893 C3902 0.930 . S
H3894 C3904 0.930 . S
H3895 C3907 0.929 . S
H3896 C3910 0.930 . S
H3897 C3912 0.960 . S
H3898 C3912 0.960 . S
H3899 C3912 0.960 . S
C3900 H3892 0.929 . S
C3900 C3901 1.377 . S
C3900 C3902 1.384 . S
C3901 C3900 1.377 . S
C3901 C3907 1.390 . S
C3902 H3893 0.930 . S
C3902 C3900 1.384 . S
C3902 C3903 1.372 . S
C3903 C3902 1.372 . S
C3903 C3904 1.400 . S
C3903 C3908 1.490 . S
C3904 H3894 0.930 . S
C3904 C3903 1.400 . S
C3904 C3907 1.386 . S
H3905 C3921 0.930 . S
H3906 C3922 0.931 . S
C3907 H3895 0.929 . S
C3907 C3901 1.390 . S
C3907 C3904 1.386 . S
C3908 C3903 1.490 . S
C3908 C3910 1.395 . S
C3908 C3911 1.403 . S
H3909 C3915 0.930 . S
C3910 H3896 0.930 . S
C3910 C3908 1.395 . S
C3910 C3913 1.403 . S
C3911 C3908 1.403 . S
C3911 C3912 1.524 . S
C3911 C3915 1.400 . S
C3912 H3897 0.960 . S
C3912 H3898 0.960 . S
C3912 H3899 0.960 . S
C3912 C3911 1.524 . S
C3913 C3910 1.403 . S
C3913 C3914 1.392 . S
C3913 C3917 1.495 . S
C3914 C3913 1.392 . S
C3914 C3915 1.385 . S
C3914 C3916 1.478 . S
C3915 H3909 0.930 . S
C3915 C3911 1.400 . S
C3915 C3914 1.385 . S
C3916 C3914 1.478 . S
C3916 C3918 1.381 . S
C3916 C3922 1.383 . S
C3917 C3913 1.495 . S
C3917 H3923 0.959 . S
C3917 H3924 0.961 . S
C3917 H3925 0.960 . S
C3918 C3916 1.381 . S
C3918 C3919 1.394 . S
C3918 H3926 0.930 . S
C3919 C3918 1.394 . S
C3919 C3920 1.383 . S
C3919 H3927 0.929 . S
C3920 C3919 1.383 . S
C3920 C3921 1.377 . S
C3921 H3905 0.930 . S
C3921 C3920 1.377 . S
C3921 C3922 1.379 . S
C3922 H3906 0.931 . S
C3922 C3916 1.383 . S
C3922 C3921 1.379 . S
H3923 C3917 0.959 . S
H3924 C3917 0.961 . S
H3925 C3917 0.960 . S
H3926 C3918 0.930 . S
H3927 C3919 0.929 . S
H3928 C3936 0.929 . S
H3929 C3938 0.930 . S
H3930 C3940 0.930 . S
H3931 C3943 0.929 . S
H3932 C3946 0.930 . S
H3933 C3948 0.960 . S
H3934 C3948 0.960 . S
H3935 C3948 0.960 . S
C3936 H3928 0.929 . S
C3936 C3937 1.377 . S
C3936 C3938 1.384 . S
C3937 C3936 1.377 . S
C3937 C3943 1.390 1_556 S
C3938 H3929 0.930 . S
C3938 C3936 1.384 . S
C3938 C3939 1.372 . S
C3939 C3938 1.372 . S
C3939 C3940 1.400 1_556 S
C3939 C3944 1.490 . S
C3940 H3930 0.930 . S
C3940 C3939 1.400 1_554 S
C3940 C3943 1.386 . S
H3941 C3957 0.912 1_554 S
H3942 C3958 0.931 1_554 S
C3943 H3931 0.929 . S
C3943 C3937 1.390 1_554 S
C3943 C3940 1.386 . S
C3944 C3939 1.490 . S
C3944 C3946 1.395 . S
C3944 C3947 1.403 1_556 S
H3945 C3951 0.930 . S
C3946 H3932 0.930 . S
C3946 C3944 1.395 . S
C3946 C3949 1.403 . S
C3947 C3944 1.403 1_554 S
C3947 C3948 1.524 . S
C3947 C3951 1.400 . S
C3948 H3933 0.960 . S
C3948 H3934 0.960 . S
C3948 H3935 0.960 . S
C3948 C3947 1.524 . S
C3949 C3946 1.403 . S
C3949 C3950 1.392 . S
C3949 C3953 1.495 . S
C3950 C3949 1.392 . S
C3950 C3951 1.385 1_556 S
C3950 C3952 1.478 . S
C3951 H3945 0.930 . S
C3951 C3947 1.400 . S
C3951 C3950 1.385 1_554 S
C3952 C3950 1.478 . S
C3952 C3954 1.381 . S
C3952 C3958 1.383 . S
C3953 C3949 1.495 . S
C3953 H3959 0.959 . S
C3953 H3960 0.961 . S
C3953 H3961 0.960 . S
C3954 C3952 1.381 . S
C3954 C3955 1.394 . S
C3954 H3962 0.930 . S
C3955 C3954 1.394 . S
C3955 C3956 1.383 . S
C3955 H3963 0.929 . S
C3956 C3955 1.383 . S
C3956 C3957 1.392 . S
C3957 H3941 0.912 1_556 S
C3957 C3956 1.392 . S
C3957 C3958 1.383 . S
C3958 H3942 0.931 1_556 S
C3958 C3952 1.383 . S
C3958 C3957 1.383 . S
H3959 C3953 0.959 . S
H3960 C3953 0.961 . S
H3961 C3953 0.960 . S
H3962 C3954 0.930 . S
H3963 C3955 0.929 . S
H3964 C3972 0.929 . S
H3965 C3974 0.930 . S
H3966 C3976 0.930 . S
H3967 C3979 0.929 . S
H3968 C3982 0.930 . S
H3969 C3984 0.960 . S
H3970 C3984 0.960 . S
H3971 C3984 0.960 . S
C3972 H3964 0.929 . S
C3972 C3973 1.377 . S
C3972 C3974 1.384 . S
C3973 C3972 1.377 . S
C3973 C3979 1.390 . S
C3974 H3965 0.930 . S
C3974 C3972 1.384 . S
C3974 C3975 1.372 . S
C3975 C3974 1.372 . S
C3975 C3976 1.400 . S
C3975 C3980 1.490 . S
C3976 H3966 0.930 . S
C3976 C3975 1.400 . S
C3976 C3979 1.386 . S
H3977 C3993 0.930 . S
H3978 C3994 0.931 . S
C3979 H3967 0.929 . S
C3979 C3973 1.390 . S
C3979 C3976 1.386 . S
C3980 C3975 1.490 . S
C3980 C3982 1.395 . S
C3980 C3983 1.403 . S
H3981 C3987 0.930 . S
C3982 H3968 0.930 . S
C3982 C3980 1.395 . S
C3982 C3985 1.403 . S
C3983 C3980 1.403 . S
C3983 C3984 1.524 . S
C3983 C3987 1.400 . S
C3984 H3969 0.960 . S
C3984 H3970 0.960 . S
C3984 H3971 0.960 . S
C3984 C3983 1.524 . S
C3985 C3982 1.403 . S
C3985 C3986 1.392 . S
C3985 C3989 1.495 . S
C3986 C3985 1.392 . S
C3986 C3987 1.385 . S
C3986 C3988 1.478 . S
C3987 H3981 0.930 . S
C3987 C3983 1.400 . S
C3987 C3986 1.385 . S
C3988 C3986 1.478 . S
C3988 C3990 1.381 . S
C3988 C3994 1.383 . S
C3989 C3985 1.495 . S
C3989 H3995 0.959 . S
C3989 H3996 0.961 . S
C3989 H3997 0.960 . S
C3990 C3988 1.381 . S
C3990 C3991 1.394 . S
C3990 H3998 0.930 . S
C3991 C3990 1.394 . S
C3991 C3992 1.383 . S
C3991 H3999 0.929 . S
C3992 C3991 1.383 . S
C3992 C3993 1.377 . S
C3993 H3977 0.930 . S
C3993 C3992 1.377 . S
C3993 C3994 1.379 . S
C3994 H3978 0.931 . S
C3994 C3988 1.383 . S
C3994 C3993 1.379 . S
H3995 C3989 0.959 . S
H3996 C3989 0.961 . S
H3997 C3989 0.960 . S
H3998 C3990 0.930 . S
H3999 C3991 0.929 . S
C1705 C38 1.649 . S
C1724 C197 1.640 . S
C1741 C144 1.651 . S
C1760 C91 1.652 . S
C1777 C409 1.652 . S
C1796 C250 1.652 . S
C1813 C356 1.653 . S
C1832 C303 1.645 . S
C1849 C462 1.649 . S
C1868 C621 1.643 . S
C1885 C515 1.651 . S
C1904 C568 1.649 . S
C1921 C833 1.653 . S
C1940 C674 1.645 . S
C1957 C780 1.653 . S
C1976 C727 1.648 . S
C1993 C886 1.652 . S
C2012 C1045 1.653 . S
C2029 C939 1.649 . S
C2048 C992 1.643 . S
C2065 C1098 1.652 . S
C2084 C1257 1.653 . S
C2101 C1151 1.652 . S
C2120 C1204 1.645 . S
C2137 C1310 1.651 . S
C2156 C1469 1.650 . S
C2173 C1416 1.651 . S
C2192 C1363 1.650 . S
C2209 C1681 1.652 . S
C2228 C1522 1.647 . S
C2245 C1628 1.652 . S
C2264 C1575 1.652 . S
C2281 C22 1.735 . S
C2300 C234 1.743 . S
C2317 C1559 1.731 . S
C2336 C75 1.742 . S
C2353 C128 1.737 . S
C2372 C764 1.732 . S
C2389 C1241 1.729 . S
C2408 C181 1.734 . S
C2425 C1347 1.736 . S
C2444 C287 1.739 . S
C2461 C340 1.733 . S
C2480 C552 1.740 . S
C2497 C393 1.732 . S
C2516 C1029 1.742 . S
C2533 C658 1.731 . S
C2552 C446 1.742 . S
C2569 C1135 1.731 . S
C2588 C499 1.741 . S
C2605 C605 1.737 . S
C2624 C1665 1.735 . S
C2641 C711 1.730 . S
C2660 C923 1.720 . S
C2677 C817 1.733 . S
C2696 C1453 1.728 . S
C2713 C1082 1.732 . S
C2732 C870 1.742 . S
C2749 C976 1.737 . S
C2768 C1612 1.740 . S
C2785 C1188 1.730 . S
C2804 C1400 1.721 . S
C2821 C1506 1.732 . S
C2840 C1294 1.745 . S
C2857 C39 1.428 . S
C2876 C1046 1.432 . S
C2893 C92 1.427 . S
C2912 C993 1.424 . S
C2929 C940 1.425 . S
C2948 C145 1.416 . S
C2965 C887 1.424 . S
C2984 C198 1.414 . S
C3001 C251 1.427 . S
C3020 C1258 1.422 . S
C3037 C304 1.424 . S
C3056 C1205 1.432 . S
C3073 C357 1.423 . S
C3092 C1152 1.417 . S
C3109 C1099 1.425 . S
C3128 C410 1.413 . S
C3145 C463 1.425 . S
C3164 C1470 1.415 . S
C3181 C1417 1.425 . S
C3200 C516 1.416 . S
C3217 C1364 1.425 . S
C3236 C569 1.416 . S
C3253 C622 1.428 . S
C3272 C1311 1.432 . S
C3289 C675 1.426 . S
C3308 C1682 1.423 . S
C3325 C728 1.424 . S
C3344 C1629 1.431 . S
C3361 C1576 1.423 . S
C3380 C781 1.415 . S
C3397 C834 1.423 . S
C3416 C1523 1.417 . S
C3433 C82 1.692 . S
C3452 C29 1.680 . S
C3469 C135 1.695 . S
C3488 C188 1.681 . S
C3505 C294 1.697 . S
C3524 C241 1.706 . S
C3541 C347 1.698 . S
C3560 C400 1.685 . S
C3577 C506 1.695 . S
C3596 C453 1.681 . S
C3613 C559 1.695 . S
C3632 C612 1.680 . S
C3649 C665 1.701 . S
C3668 C718 1.706 . S
C3685 C771 1.702 . S
C3704 C824 1.691 . S
C3721 C877 1.697 . S
C3740 C930 1.706 . S
C3757 C1036 1.695 . S
C3776 C983 1.681 . S
C3793 C1089 1.697 . S
C3812 C1142 1.685 . S
C3829 C1248 1.699 . S
C3848 C1195 1.682 . S
C3865 C1354 1.697 . S
C3884 C1301 1.690 . S
C3901 C1407 1.696 . S
C3920 C1460 1.703 . S
C3937 C1513 1.696 . S
C3956 C1566 1.697 . S
C3973 C1672 1.701 . S
C3992 C1619 1.708 . S
