# Generated by pormake.
# Topology npo, (4)-cn, num edge types: 1
# Building blocks:
#     Node 0, Type 0, BuildingBlock: NAHDIM_clean_sbu_0, # of connection points: 4
#     Node 1, Type 0, BuildingBlock: NAHDIM_clean_sbu_0, # of connection points: 4
#     Node 2, Type 0, BuildingBlock: NAHDIM_clean_sbu_0, # of connection points: 4
#     Node 3, Type 0, BuildingBlock: NAHDIM_clean_sbu_0, # of connection points: 4
#     Node 4, Type 0, BuildingBlock: NAHDIM_clean_sbu_0, # of connection points: 4
#     Node 5, Type 0, BuildingBlock: NAHDIM_clean_sbu_0, # of connection points: 4
#     Edge 6, Type (0, 0), BuildingBlock: FUNLAD_clean_linker_0, # of connection points: 2
#     Edge 7, Type (0, 0), BuildingBlock: FUNLAD_clean_linker_0, # of connection points: 2
#     Edge 8, Type (0, 0), BuildingBlock: FUNLAD_clean_linker_0, # of connection points: 2
#     Edge 9, Type (0, 0), BuildingBlock: FUNLAD_clean_linker_0, # of connection points: 2
#     Edge 10, Type (0, 0), BuildingBlock: FUNLAD_clean_linker_0, # of connection points: 2
#     Edge 11, Type (0, 0), BuildingBlock: FUNLAD_clean_linker_0, # of connection points: 2
#     Edge 12, Type (0, 0), BuildingBlock: FUNLAD_clean_linker_0, # of connection points: 2
#     Edge 13, Type (0, 0), BuildingBlock: FUNLAD_clean_linker_0, # of connection points: 2
#     Edge 14, Type (0, 0), BuildingBlock: FUNLAD_clean_linker_0, # of connection points: 2
#     Edge 15, Type (0, 0), BuildingBlock: FUNLAD_clean_linker_0, # of connection points: 2
#     Edge 16, Type (0, 0), BuildingBlock: FUNLAD_clean_linker_0, # of connection points: 2
#     Edge 17, Type (0, 0), BuildingBlock: FUNLAD_clean_linker_0, # of connection points: 2
# Relax obj value: 0.249
# Max RMSD: 0.224
# Mean RMSD: 0.223
data_MOF--net-npo--node1-NAHDIM_clean_sbu_0--edge1-FUNLAD_clean_linker_0
_symmetry_space_group_name_H-M    P1
_symmetry_Int_Tables_number       1
_symmetry_cell_setting            triclinic
loop_
_symmetry_equiv_pos_as_xyz
'x, y, z'
_cell_length_a     47.670223
_cell_length_b     49.945911
_cell_length_c     29.04972
_cell_angle_alpha  92.25445
_cell_angle_beta   90.017264
_cell_angle_gamma 118.00205
loop_
_atom_site_label
_atom_site_type_symbol
_atom_site_fract_x
_atom_site_fract_y
_atom_site_fract_z
_atom_type_partial_charge
C0 C 0.50951 0.0387 0.27585 0.0
O1 O 0.52584 0.03313 0.24395 0.0
O2 O 0.57774 0.1161 0.24637 0.0
Zn3 Zn 0.53137 0.09382 0.22868 0.0
O4 O 0.52424 0.07115 0.16728 0.0
C5 C 0.53187 0.14979 0.21099 0.0
O6 O 0.55947 0.15537 0.19375 0.0
O7 O 0.50846 0.06366 0.2763 0.0
C8 C 0.51774 0.07959 0.12985 0.0
O9 O 0.51587 0.10498 0.12975 0.0
C10 C 0.59973 0.11408 0.22433 0.0
O11 O 0.59249 0.09584 0.18744 0.0
O12 O 0.51474 0.12417 0.22792 0.0
C13 C 0.46977 0.55579 0.62678 0.0
O14 O 0.44958 0.53882 0.65734 0.0
O15 O 0.4418 0.58396 0.72048 0.0
Zn16 Zn 0.48715 0.60178 0.6997 0.0
O17 O 0.51315 0.59396 0.74678 0.0
C18 C 0.503 0.6618 0.73137 0.0
O19 O 0.49653 0.64847 0.77093 0.0
O20 O 0.48843 0.58353 0.6374 0.0
C21 C 0.5266 0.57752 0.73912 0.0
O22 O 0.52548 0.56594 0.69736 0.0
C23 C 0.43405 0.57634 0.76168 0.0
O24 O 0.45597 0.57883 0.79147 0.0
O25 O 0.50225 0.64644 0.69506 0.0
C26 C 0.92547 0.4362 0.38783 0.0
O27 O 0.93095 0.45511 0.35472 0.0
O28 O 0.85215 0.41247 0.31297 0.0
Zn29 Zn 0.8832 0.39601 0.31885 0.0
O30 O 0.91542 0.41259 0.26946 0.0
C31 C 0.84901 0.33984 0.2694 0.0
O32 O 0.85633 0.35858 0.23561 0.0
O33 O 0.90525 0.40847 0.38074 0.0
C34 C 0.9342 0.40183 0.25959 0.0
O35 O 0.93282 0.37916 0.28268 0.0
C36 C 0.8593 0.43788 0.29588 0.0
O37 O 0.88839 0.4548 0.28204 0.0
O38 O 0.85872 0.35064 0.31005 0.0
C39 C 0.3835 0.88281 0.60691 0.0
O40 O 0.38089 0.85549 0.60867 0.0
O41 O 0.39163 0.84888 0.70833 0.0
Zn42 Zn 0.37205 0.87669 0.70456 0.0
O43 O 0.39179 0.90941 0.75453 0.0
C44 C 0.31027 0.85458 0.74773 0.0
O45 O 0.32587 0.87583 0.77973 0.0
O46 O 0.38034 0.89588 0.64345 0.0
C47 C 0.4004 0.90337 0.79245 0.0
O48 O 0.39544 0.87558 0.79858 0.0
C49 C 0.42094 0.85739 0.702 0.0
O50 O 0.43959 0.88539 0.69053 0.0
O51 O 0.325 0.85172 0.71299 0.0
C52 C 0.56564 0.46773 0.09032 0.0
O53 O 0.57982 0.45067 0.08679 0.0
O54 O 0.60196 0.45312 0.18799 0.0
Zn55 Zn 0.55817 0.44917 0.18365 0.0
O56 O 0.54947 0.46706 0.24148 0.0
C57 C 0.5254 0.38878 0.21213 0.0
O58 O 0.53812 0.40302 0.25172 0.0
O59 O 0.55425 0.47035 0.12875 0.0
C60 C 0.52159 0.46137 0.25303 0.0
O61 O 0.49732 0.44322 0.22622 0.0
C62 C 0.62449 0.4724 0.21376 0.0
O63 O 0.62026 0.49283 0.23832 0.0
O64 O 0.52897 0.40433 0.17695 0.0
C65 C 0.08586 0.5081 0.90851 0.0
O66 O 0.1047 0.49757 0.89244 0.0
O67 O 0.14655 0.5402 0.8256 0.0
Zn68 Zn 0.11019 0.54955 0.83391 0.0
O69 O 0.08272 0.53481 0.7768 0.0
C70 C 0.11361 0.60885 0.82777 0.0
O71 O 0.08565 0.59353 0.80719 0.0
O72 O 0.0846 0.5298 0.88887 0.0
C73 C 0.09577 0.54392 0.73839 0.0
O74 O 0.12644 0.5625 0.73776 0.0
C75 C 0.17123 0.55313 0.85143 0.0
O76 O 0.17224 0.57189 0.88518 0.0
O77 O 0.12793 0.59472 0.84219 0.0
C78 C 0.53753 0.1992 0.18543 0.0
C79 C 0.52116 0.17317 0.21093 0.0
C80 C 0.52857 0.22209 0.18687 0.0
C81 C 0.50301 0.21949 0.21396 0.0
C82 C 0.48649 0.19338 0.2392 0.0
C83 C 0.49525 0.17027 0.23736 0.0
C84 C 0.49537 0.24499 0.21993 0.0
C85 C 0.50098 0.26515 0.18717 0.0
C86 C 0.50075 0.29459 0.19539 0.0
C87 C 0.50046 0.31085 0.15721 0.0
C88 C 0.50627 0.34095 0.16283 0.0
C89 C 0.51283 0.35551 0.20685 0.0
H90 H 0.50617 0.29717 0.27012 0.0
C91 C 0.51106 0.33867 0.24536 0.0
C92 C 0.50517 0.30856 0.23976 0.0
H93 H 0.51592 0.3492 0.27977 0.0
H94 H 0.55763 0.20215 0.16481 0.0
H95 H 0.54256 0.24229 0.16811 0.0
H96 H 0.467 0.19102 0.26079 0.0
H97 H 0.48225 0.15052 0.25755 0.0
H98 H 0.48569 0.24749 0.25267 0.0
H99 H 0.50764 0.26066 0.15308 0.0
H100 H 0.49718 0.3007 0.12265 0.0
H101 H 0.50735 0.35324 0.13242 0.0
C102 C 0.37846 0.56698 0.7459 0.0
C103 C 0.40139 0.56759 0.77695 0.0
C104 C 0.34848 0.56135 0.76112 0.0
C105 C 0.34063 0.55595 0.80777 0.0
C106 C 0.36334 0.55593 0.83853 0.0
C107 C 0.39334 0.56156 0.8233 0.0
C108 C 0.31019 0.5528 0.8262 0.0
C109 C 0.28387 0.54441 0.79987 0.0
C110 C 0.25464 0.54483 0.81677 0.0
C111 C 0.22612 0.52815 0.79148 0.0
C112 C 0.19876 0.53009 0.80358 0.0
C113 C 0.19938 0.549 0.84115 0.0
H114 H 0.27671 0.57721 0.87472 0.0
C115 C 0.2277 0.56521 0.86714 0.0
C116 C 0.25508 0.56327 0.85502 0.0
H117 H 0.22903 0.58011 0.89612 0.0
H118 H 0.38395 0.57171 0.71 0.0
H119 H 0.33213 0.5625 0.73644 0.0
H120 H 0.35805 0.55207 0.87469 0.0
H121 H 0.41046 0.5619 0.84816 0.0
H122 H 0.30965 0.55758 0.86287 0.0
H123 H 0.28347 0.53682 0.76422 0.0
H124 H 0.22512 0.51395 0.76169 0.0
H125 H 0.17733 0.5173 0.78279 0.0
C126 C 0.65818 0.13616 0.21021 0.0
C127 C 0.63328 0.13418 0.23817 0.0
C128 C 0.68963 0.15753 0.22115 0.0
C129 C 0.69669 0.17737 0.26024 0.0
C130 C 0.67197 0.17406 0.28952 0.0
C131 C 0.64061 0.15285 0.27854 0.0
C132 C 0.72893 0.20288 0.27054 0.0
C133 C 0.75033 0.21667 0.23772 0.0
C134 C 0.77878 0.2467 0.24603 0.0
C135 C 0.7906 0.26595 0.20904 0.0
C136 C 0.81436 0.29589 0.21634 0.0
C137 C 0.82697 0.30717 0.26084 0.0
H138 H 0.78541 0.24283 0.3191 0.0
C139 C 0.81675 0.28732 0.29737 0.0
C140 C 0.79297 0.25733 0.29004 0.0
H141 H 0.82642 0.29517 0.33193 0.0
H142 H 0.65334 0.1218 0.1792 0.0
H143 H 0.70816 0.15865 0.19858 0.0
H144 H 0.67673 0.1888 0.32011 0.0
H145 H 0.62204 0.15167 0.30116 0.0
H146 H 0.73328 0.21308 0.30523 0.0
H147 H 0.74477 0.20801 0.20222 0.0
H148 H 0.78041 0.25826 0.17467 0.0
H149 H 0.822 0.31046 0.18731 0.0
C150 C 0.4654 0.8438 0.69847 0.0
C151 C 0.43395 0.83624 0.70981 0.0
C152 C 0.47759 0.82378 0.70677 0.0
C153 C 0.45852 0.79587 0.72677 0.0
C154 C 0.42728 0.78858 0.73853 0.0
C155 C 0.41504 0.80839 0.72987 0.0
C156 C 0.47017 0.77384 0.73664 0.0
C157 C 0.493 0.77125 0.71261 0.0
C158 C 0.50035 0.74588 0.71938 0.0
C159 C 0.50768 0.73252 0.68106 0.0
C160 C 0.51016 0.70591 0.68527 0.0
C161 C 0.50572 0.69242 0.72809 0.0
H162 H 0.49375 0.74406 0.79336 0.0
C163 C 0.50089 0.70718 0.7671 0.0
C164 C 0.49824 0.73365 0.76281 0.0
H165 H 0.49784 0.69765 0.80072 0.0
H166 H 0.48063 0.8652 0.68326 0.0
H167 H 0.50203 0.83047 0.69824 0.0
H168 H 0.41213 0.76731 0.75419 0.0
H169 H 0.3908 0.80193 0.73937 0.0
H170 H 0.45729 0.75724 0.7621 0.0
H171 H 0.50383 0.78567 0.6839 0.0
H172 H 0.50985 0.74176 0.64734 0.0
H173 H 0.51426 0.69528 0.65461 0.0
C174 C 0.67857 0.48959 0.24945 0.0
C175 C 0.65383 0.46959 0.21939 0.0
C176 C 0.70496 0.48508 0.25759 0.0
C177 C 0.70707 0.46045 0.23569 0.0
C178 C 0.68265 0.44092 0.20499 0.0
C179 C 0.65644 0.4455 0.19668 0.0
C180 C 0.73299 0.45299 0.24622 0.0
C181 C 0.76198 0.47333 0.26263 0.0
C182 C 0.78685 0.46442 0.27302 0.0
C183 C 0.81888 0.48489 0.26608 0.0
C184 C 0.84255 0.47644 0.27388 0.0
C185 C 0.83461 0.4475 0.28954 0.0
H186 H 0.75466 0.41984 0.29719 0.0
C187 C 0.80265 0.42746 0.29812 0.0
C188 C 0.77902 0.43581 0.28997 0.0
H189 H 0.79574 0.4051 0.31061 0.0
H190 H 0.67719 0.50828 0.26763 0.0
H191 H 0.72296 0.50025 0.28227 0.0
H192 H 0.68361 0.42172 0.1878 0.0
H193 H 0.63784 0.42962 0.17331 0.0
H194 H 0.72818 0.42973 0.23857 0.0
H195 H 0.76833 0.49724 0.26611 0.0
H196 H 0.82553 0.50719 0.25357 0.0
H197 H 0.86701 0.4925 0.2673 0.0
C198 C 0.26334 0.8289 0.7984 0.0
C199 C 0.27707 0.83147 0.7549 0.0
C200 C 0.23401 0.80407 0.80713 0.0
C201 C 0.2179 0.78144 0.77242 0.0
C202 C 0.23037 0.78539 0.72801 0.0
C203 C 0.25979 0.81003 0.71937 0.0
C204 C 0.18981 0.75222 0.78206 0.0
C205 C 0.18676 0.73879 0.8224 0.0
C206 C 0.16507 0.70605 0.8277 0.0
C207 C 0.17484 0.68999 0.85658 0.0
C208 C 0.15753 0.65846 0.85771 0.0
C209 C 0.12975 0.64238 0.83051 0.0
H210 H 0.12762 0.70203 0.78088 0.0
C211 C 0.11876 0.65862 0.80396 0.0
C212 C 0.1363 0.69021 0.80246 0.0
H213 H 0.09724 0.64688 0.78301 0.0
H214 H 0.27588 0.84527 0.82634 0.0
H215 H 0.2245 0.80219 0.84139 0.0
H216 H 0.21824 0.76846 0.70053 0.0
H217 H 0.26952 0.81162 0.68529 0.0
H218 H 0.17445 0.73934 0.75294 0.0
H219 H 0.20412 0.75064 0.85001 0.0
H220 H 0.19676 0.70169 0.87669 0.0
H221 H 0.1664 0.64663 0.879 0.0
C222 C 0.42653 0.92084 0.87027 0.0
C223 C 0.41571 0.92726 0.82927 0.0
C224 C 0.44092 0.94331 0.90523 0.0
C225 C 0.44494 0.97278 0.89978 0.0
C226 C 0.43385 0.97908 0.85898 0.0
C227 C 0.41954 0.95662 0.82393 0.0
C228 C 0.45892 -0.00308 0.93684 0.0
C229 C 0.47962 -0.00233 0.9691 0.0
C230 C 0.49135 0.02016 0.00865 0.0
C231 C 0.50129 0.01233 0.0491 0.0
C232 C 0.51052 0.0319 0.0882 0.0
C233 C 0.51024 0.05989 0.08752 0.0
H234 H 0.48613 0.0562 0.9763 0.0
C235 C 0.50164 0.06836 0.04644 0.0
C236 C 0.49239 0.04876 0.00732 0.0
H237 H 0.50164 0.08997 0.04459 0.0
H238 H 0.42372 0.89838 0.8756 0.0
H239 H 0.44808 0.93719 0.93678 0.0
H240 H 0.43632 0.00148 0.85414 0.0
H241 H 0.41134 0.96226 0.7928 0.0
H242 H 0.45137 0.01432 0.93754 0.0
H243 H 0.48719 0.98027 0.96806 0.0
H244 H 0.50108 0.9906 0.0509 0.0
H245 H 0.51729 0.02479 0.1192 0.0
C246 C 0.48603 0.46827 0.31058 0.0
C247 C 0.51673 0.47486 0.29657 0.0
C248 C 0.48162 0.48097 0.35196 0.0
C249 C 0.50791 0.50041 0.38028 0.0
C250 C 0.53854 0.50724 0.36587 0.0
C251 C 0.54294 0.49454 0.32464 0.0
C252 C 0.50463 0.51472 0.42432 0.0
C253 C 0.478 0.50339 0.44927 0.0
C254 C 0.4758 0.51752 0.49417 0.0
C255 C 0.45412 0.49929 0.52662 0.0
C256 C 0.45199 0.51169 0.56965 0.0
C257 C 0.47137 0.54269 0.58093 0.0
H258 H 0.51071 0.56381 0.48039 0.0
C259 C 0.49248 0.56111 0.54801 0.0
C260 C 0.49457 0.54873 0.50504 0.0
H261 H 0.50744 0.58517 0.55537 0.0
H262 H 0.46536 0.45338 0.28954 0.0
H263 H 0.45768 0.47585 0.36109 0.0
H264 H 0.55922 0.52232 0.38678 0.0
H265 H 0.56694 0.50019 0.31482 0.0
H266 H 0.52577 0.53446 0.43788 0.0
H267 H 0.45776 0.48205 0.43818 0.0
H268 H 0.43912 0.47526 0.51895 0.0
H269 H 0.43533 0.4969 0.59414 0.0
C270 C 0.06898 0.47258 0.97354 0.0
C271 C 0.06637 0.49513 0.94929 0.0
C272 C 0.05068 0.46068 0.01241 0.0
C273 C 0.02944 0.47121 0.02777 0.0
C274 C 0.02656 0.49339 0.00303 0.0
C275 C 0.04489 0.50533 0.9644 0.0
C276 C 0.00931 0.45943 0.06861 0.0
C277 C 0.01598 0.44605 0.10328 0.0
C278 C -0.00429 0.43563 0.14432 0.0
C279 C -0.00557 0.41118 0.16813 0.0
C280 C 0.97478 0.40033 0.20606 0.0
C281 C 0.95624 0.41396 0.22104 0.0
H282 H 0.97941 0.46968 0.14434 0.0
C283 C 0.9584 0.4391 0.19817 0.0
C284 C 0.97802 0.44993 0.16043 0.0
H285 H 0.94482 0.45044 0.2093 0.0
H286 H 0.08516 0.46409 0.96253 0.0
H287 H 0.05296 0.44298 0.02966 0.0
H288 H 0.01023 0.50175 0.01387 0.0
H289 H 0.04216 0.52258 0.9464 0.0
H290 H 0.98835 0.46268 0.07039 0.0
H291 H 0.03651 0.44213 0.10171 0.0
H292 H 0.00819 0.40007 0.15681 0.0
H293 H 0.97379 0.38104 0.22317 0.0
C294 C 0.47639 0.02306 0.34615 0.0
C295 C 0.49279 0.01642 0.31115 0.0
C296 C 0.46105 0.00238 0.3801 0.0
C297 C 0.46149 0.97437 0.37955 0.0
C298 C 0.47799 0.96782 0.34465 0.0
C299 C 0.4934 0.98856 0.31066 0.0
C300 C 0.44674 0.95239 0.41628 0.0
C301 C 0.42325 0.95165 0.44284 0.0
C302 C 0.41137 0.93237 0.48314 0.0
C303 C 0.39991 0.94277 0.52047 0.0
C304 C 0.39041 0.92642 0.56039 0.0
C305 C 0.39171 0.89902 0.56353 0.0
H306 H 0.41941 0.89523 0.45687 0.0
C307 C 0.40189 0.88789 0.52543 0.0
C308 C 0.41168 0.90443 0.48557 0.0
H309 H 0.40288 0.86671 0.52668 0.0
H310 H 0.47573 0.04446 0.34778 0.0
H311 H 0.44972 0.00896 0.40726 0.0
H312 H 0.47904 0.94659 0.3437 0.0
H313 H 0.50592 0.9828 0.28422 0.0
H314 H 0.4563 0.93688 0.42219 0.0
H315 H 0.41356 0.96704 0.43698 0.0
H316 H 0.39914 0.96407 0.51927 0.0
H317 H 0.38239 0.93546 0.58899 0.0
C318 C 0.53922 0.5796 0.82317 0.0
C319 C 0.54003 0.56871 0.77809 0.0
C320 C 0.54865 0.56886 0.86065 0.0
C321 C 0.5589 0.5468 0.85388 0.0
C322 C 0.56141 0.53721 0.80872 0.0
C323 C 0.55192 0.54793 0.77114 0.0
C324 C 0.56646 0.53294 0.89312 0.0
C325 C 0.55168 0.52911 0.93376 0.0
C326 C 0.55679 0.51374 0.97329 0.0
C327 C 0.54513 0.51705 0.01635 0.0
C328 C 0.54816 0.50228 0.05433 0.0
C329 C 0.56285 0.48366 0.05012 0.0
H330 H 0.5802 0.49115 0.93645 0.0
C331 C 0.5746 0.48029 0.00713 0.0
C332 C 0.57154 0.49507 0.96904 0.0
H333 H 0.58589 0.46596 0.00271 0.0
H334 H 0.53063 0.59596 0.8297 0.0
H335 H 0.54765 0.57776 0.89483 0.0
H336 H 0.56967 0.52057 0.80254 0.0
H337 H 0.55309 0.53927 0.73682 0.0
H338 H 0.58336 0.52444 0.88713 0.0
H339 H 0.53432 0.53724 0.93846 0.0
H340 H 0.53349 0.53111 0.02067 0.0
H341 H 0.53882 0.50537 0.08695 0.0
C342 C 0.04379 0.51454 0.69579 0.0
C343 C 0.07674 0.53372 0.69505 0.0
C344 C 0.02585 0.50468 0.65479 0.0
C345 C 0.04059 0.51361 0.61208 0.0
C346 C 0.07341 0.53319 0.61148 0.0
C347 C 0.09135 0.54307 0.65247 0.0
C348 C 0.02252 0.50369 0.56761 0.0
C349 C -0.00551 0.47827 0.56187 0.0
C350 C 0.97692 0.46813 0.51702 0.0
C351 C 0.95533 0.43727 0.50908 0.0
C352 C 0.93852 0.42681 0.4672 0.0
C353 C 0.94283 0.44712 0.43246 0.0
H354 H -0.00384 0.51267 0.48787 0.0
C355 C 0.96395 0.4781 0.44069 0.0
C356 C 0.98069 0.48855 0.48257 0.0
H357 H 0.9675 0.49439 0.41486 0.0
H358 H 0.03176 0.50721 0.72809 0.0
H359 H 0.00045 0.49049 0.65695 0.0
H360 H 0.08532 0.54068 0.57912 0.0
H361 H 0.11667 0.55797 0.65071 0.0
H362 H 0.03374 0.51709 0.5381 0.0
H363 H 0.98473 0.46328 0.59025 0.0
H364 H 0.95171 0.4211 0.5352 0.0
H365 H 0.92229 0.40281 0.462 0.0
loop_
_geom_bond_atom_site_label_1
_geom_bond_atom_site_label_2
_geom_bond_distance
_geom_bond_site_symmetry_2
_ccdc_geom_bond_type
C0 O1 1.160 . S
C0 O7 1.185 . S
O1 C0 1.160 . S
O2 Zn3 1.899 . S
O2 C10 1.284 . S
Zn3 O2 1.899 . S
Zn3 O4 2.032 . S
Zn3 O7 2.086 . S
Zn3 O12 1.977 . S
O4 Zn3 2.032 . S
O4 C8 1.278 . S
C5 O6 1.203 . S
C5 O12 1.267 . S
O6 C5 1.203 . S
O7 C0 1.185 . S
O7 Zn3 2.086 . S
C8 O4 1.278 . S
C8 O9 1.211 . S
O9 C8 1.211 . S
C10 O2 1.284 . S
C10 O11 1.273 . S
O11 C10 1.273 . S
O12 Zn3 1.977 . S
O12 C5 1.267 . S
C13 O14 1.160 . S
C13 O20 1.185 . S
O14 C13 1.160 . S
O15 Zn16 1.899 . S
O15 C23 1.284 . S
Zn16 O15 1.899 . S
Zn16 O17 2.032 . S
Zn16 O20 2.086 . S
Zn16 O25 1.977 . S
O17 Zn16 2.032 . S
O17 C21 1.278 . S
C18 O19 1.203 . S
C18 O25 1.267 . S
O19 C18 1.203 . S
O20 C13 1.185 . S
O20 Zn16 2.086 . S
C21 O17 1.278 . S
C21 O22 1.211 . S
O22 C21 1.211 . S
C23 O15 1.284 . S
C23 O24 1.273 . S
O24 C23 1.273 . S
O25 Zn16 1.977 . S
O25 C18 1.267 . S
C26 O27 1.160 . S
C26 O33 1.185 . S
O27 C26 1.160 . S
O28 Zn29 1.899 . S
O28 C36 1.284 . S
Zn29 O28 1.899 . S
Zn29 O30 2.032 . S
Zn29 O33 2.086 . S
Zn29 O38 1.977 . S
O30 Zn29 2.032 . S
O30 C34 1.278 . S
C31 O32 1.203 . S
C31 O38 1.267 . S
O32 C31 1.203 . S
O33 C26 1.185 . S
O33 Zn29 2.086 . S
C34 O30 1.278 . S
C34 O35 1.211 . S
O35 C34 1.211 . S
C36 O28 1.284 . S
C36 O37 1.273 . S
O37 C36 1.273 . S
O38 Zn29 1.977 . S
O38 C31 1.267 . S
C39 O40 1.160 . S
C39 O46 1.185 . S
O40 C39 1.160 . S
O41 Zn42 1.899 . S
O41 C49 1.284 . S
Zn42 O41 1.899 . S
Zn42 O43 2.032 . S
Zn42 O46 2.086 . S
Zn42 O51 1.977 . S
O43 Zn42 2.032 . S
O43 C47 1.278 . S
C44 O45 1.203 . S
C44 O51 1.267 . S
O45 C44 1.203 . S
O46 C39 1.185 . S
O46 Zn42 2.086 . S
C47 O43 1.278 . S
C47 O48 1.211 . S
O48 C47 1.211 . S
C49 O41 1.284 . S
C49 O50 1.273 . S
O50 C49 1.273 . S
O51 Zn42 1.977 . S
O51 C44 1.267 . S
C52 O53 1.160 . S
C52 O59 1.185 . S
O53 C52 1.160 . S
O54 Zn55 1.899 . S
O54 C62 1.284 . S
Zn55 O54 1.899 . S
Zn55 O56 2.032 . S
Zn55 O59 2.086 . S
Zn55 O64 1.977 . S
O56 Zn55 2.032 . S
O56 C60 1.278 . S
C57 O58 1.203 . S
C57 O64 1.267 . S
O58 C57 1.203 . S
O59 C52 1.185 . S
O59 Zn55 2.086 . S
C60 O56 1.278 . S
C60 O61 1.211 . S
O61 C60 1.211 . S
C62 O54 1.284 . S
C62 O63 1.273 . S
O63 C62 1.273 . S
O64 Zn55 1.977 . S
O64 C57 1.267 . S
C65 O66 1.160 . S
C65 O72 1.185 . S
O66 C65 1.160 . S
O67 Zn68 1.899 . S
O67 C75 1.284 . S
Zn68 O67 1.899 . S
Zn68 O69 2.032 . S
Zn68 O72 2.086 . S
Zn68 O77 1.977 . S
O69 Zn68 2.032 . S
O69 C73 1.278 . S
C70 O71 1.203 . S
C70 O77 1.267 . S
O71 C70 1.203 . S
O72 C65 1.185 . S
O72 Zn68 2.086 . S
C73 O69 1.278 . S
C73 O74 1.211 . S
O74 C73 1.211 . S
C75 O67 1.284 . S
C75 O76 1.273 . S
O76 C75 1.273 . S
O77 Zn68 1.977 . S
O77 C70 1.267 . S
C78 C79 1.386 . S
C78 C80 1.383 . S
C78 H94 0.951 . S
C79 C78 1.386 . S
C79 C83 1.383 . S
C80 C78 1.383 . S
C80 C81 1.402 . S
C80 H95 0.951 . S
C81 C80 1.402 . S
C81 C82 1.375 . S
C81 C84 1.481 . S
C82 C81 1.375 . S
C82 C83 1.367 . S
C82 H96 0.951 . S
C83 C79 1.383 . S
C83 C82 1.367 . S
C83 H97 0.950 . S
C84 C81 1.481 . S
C84 C85 1.297 . S
C84 H98 0.950 . S
C85 C84 1.297 . S
C85 C86 1.479 . S
C85 H99 0.950 . S
C86 C85 1.479 . S
C86 C87 1.375 . S
C86 C92 1.404 . S
C87 C86 1.375 . S
C87 C88 1.369 . S
C87 H100 0.950 . S
C88 C87 1.369 . S
C88 C89 1.392 . S
C88 H101 0.951 . S
C89 C88 1.392 . S
C89 C91 1.384 . S
H90 C92 0.949 . S
C91 C89 1.384 . S
C91 C92 1.385 . S
C91 H93 0.950 . S
C92 C86 1.404 . S
C92 H90 0.949 . S
C92 C91 1.385 . S
H93 C91 0.950 . S
H94 C78 0.951 . S
H95 C80 0.951 . S
H96 C82 0.951 . S
H97 C83 0.950 . S
H98 C84 0.950 . S
H99 C85 0.950 . S
H100 C87 0.950 . S
H101 C88 0.951 . S
C102 C103 1.386 . S
C102 C104 1.383 . S
C102 H118 0.951 . S
C103 C102 1.386 . S
C103 C107 1.383 . S
C104 C102 1.383 . S
C104 C105 1.402 . S
C104 H119 0.951 . S
C105 C104 1.402 . S
C105 C106 1.375 . S
C105 C108 1.481 . S
C106 C105 1.375 . S
C106 C107 1.367 . S
C106 H120 0.951 . S
C107 C103 1.383 . S
C107 C106 1.367 . S
C107 H121 0.950 . S
C108 C105 1.481 . S
C108 C109 1.297 . S
C108 H122 0.950 . S
C109 C108 1.297 . S
C109 C110 1.479 . S
C109 H123 0.950 . S
C110 C109 1.479 . S
C110 C111 1.375 . S
C110 C116 1.404 . S
C111 C110 1.375 . S
C111 C112 1.369 . S
C111 H124 0.950 . S
C112 C111 1.369 . S
C112 C113 1.392 . S
C112 H125 0.951 . S
C113 C112 1.392 . S
C113 C115 1.384 . S
H114 C116 0.949 . S
C115 C113 1.384 . S
C115 C116 1.385 . S
C115 H117 0.950 . S
C116 C110 1.404 . S
C116 H114 0.949 . S
C116 C115 1.385 . S
H117 C115 0.950 . S
H118 C102 0.951 . S
H119 C104 0.951 . S
H120 C106 0.951 . S
H121 C107 0.950 . S
H122 C108 0.950 . S
H123 C109 0.950 . S
H124 C111 0.950 . S
H125 C112 0.951 . S
C126 C127 1.386 . S
C126 C128 1.383 . S
C126 H142 0.951 . S
C127 C126 1.386 . S
C127 C131 1.383 . S
C128 C126 1.383 . S
C128 C129 1.402 . S
C128 H143 0.951 . S
C129 C128 1.402 . S
C129 C130 1.375 . S
C129 C132 1.481 . S
C130 C129 1.375 . S
C130 C131 1.367 . S
C130 H144 0.951 . S
C131 C127 1.383 . S
C131 C130 1.367 . S
C131 H145 0.950 . S
C132 C129 1.481 . S
C132 C133 1.297 . S
C132 H146 0.950 . S
C133 C132 1.297 . S
C133 C134 1.479 . S
C133 H147 0.950 . S
C134 C133 1.479 . S
C134 C135 1.375 . S
C134 C140 1.404 . S
C135 C134 1.375 . S
C135 C136 1.369 . S
C135 H148 0.950 . S
C136 C135 1.369 . S
C136 C137 1.392 . S
C136 H149 0.951 . S
C137 C136 1.392 . S
C137 C139 1.384 . S
H138 C140 0.949 . S
C139 C137 1.384 . S
C139 C140 1.385 . S
C139 H141 0.950 . S
C140 C134 1.404 . S
C140 H138 0.949 . S
C140 C139 1.385 . S
H141 C139 0.950 . S
H142 C126 0.951 . S
H143 C128 0.951 . S
H144 C130 0.951 . S
H145 C131 0.950 . S
H146 C132 0.950 . S
H147 C133 0.950 . S
H148 C135 0.950 . S
H149 C136 0.951 . S
C150 C151 1.386 . S
C150 C152 1.383 . S
C150 H166 0.951 . S
C151 C150 1.386 . S
C151 C155 1.383 . S
C152 C150 1.383 . S
C152 C153 1.402 . S
C152 H167 0.951 . S
C153 C152 1.402 . S
C153 C154 1.375 . S
C153 C156 1.481 . S
C154 C153 1.375 . S
C154 C155 1.367 . S
C154 H168 0.951 . S
C155 C151 1.383 . S
C155 C154 1.367 . S
C155 H169 0.950 . S
C156 C153 1.481 . S
C156 C157 1.297 . S
C156 H170 0.950 . S
C157 C156 1.297 . S
C157 C158 1.479 . S
C157 H171 0.950 . S
C158 C157 1.479 . S
C158 C159 1.375 . S
C158 C164 1.404 . S
C159 C158 1.375 . S
C159 C160 1.369 . S
C159 H172 0.950 . S
C160 C159 1.369 . S
C160 C161 1.392 . S
C160 H173 0.951 . S
C161 C160 1.392 . S
C161 C163 1.384 . S
H162 C164 0.949 . S
C163 C161 1.384 . S
C163 C164 1.385 . S
C163 H165 0.950 . S
C164 C158 1.404 . S
C164 H162 0.949 . S
C164 C163 1.385 . S
H165 C163 0.950 . S
H166 C150 0.951 . S
H167 C152 0.951 . S
H168 C154 0.951 . S
H169 C155 0.950 . S
H170 C156 0.950 . S
H171 C157 0.950 . S
H172 C159 0.950 . S
H173 C160 0.951 . S
C174 C175 1.386 . S
C174 C176 1.383 . S
C174 H190 0.951 . S
C175 C174 1.386 . S
C175 C179 1.383 . S
C176 C174 1.383 . S
C176 C177 1.402 . S
C176 H191 0.951 . S
C177 C176 1.402 . S
C177 C178 1.375 . S
C177 C180 1.481 . S
C178 C177 1.375 . S
C178 C179 1.367 . S
C178 H192 0.951 . S
C179 C175 1.383 . S
C179 C178 1.367 . S
C179 H193 0.950 . S
C180 C177 1.481 . S
C180 C181 1.297 . S
C180 H194 0.950 . S
C181 C180 1.297 . S
C181 C182 1.479 . S
C181 H195 0.950 . S
C182 C181 1.479 . S
C182 C183 1.375 . S
C182 C188 1.404 . S
C183 C182 1.375 . S
C183 C184 1.369 . S
C183 H196 0.950 . S
C184 C183 1.369 . S
C184 C185 1.392 . S
C184 H197 0.951 . S
C185 C184 1.392 . S
C185 C187 1.384 . S
H186 C188 0.949 . S
C187 C185 1.384 . S
C187 C188 1.385 . S
C187 H189 0.950 . S
C188 C182 1.404 . S
C188 H186 0.949 . S
C188 C187 1.385 . S
H189 C187 0.950 . S
H190 C174 0.951 . S
H191 C176 0.951 . S
H192 C178 0.951 . S
H193 C179 0.950 . S
H194 C180 0.950 . S
H195 C181 0.950 . S
H196 C183 0.950 . S
H197 C184 0.951 . S
C198 C199 1.386 . S
C198 C200 1.383 . S
C198 H214 0.951 . S
C199 C198 1.386 . S
C199 C203 1.383 . S
C200 C198 1.383 . S
C200 C201 1.402 . S
C200 H215 0.951 . S
C201 C200 1.402 . S
C201 C202 1.375 . S
C201 C204 1.481 . S
C202 C201 1.375 . S
C202 C203 1.367 . S
C202 H216 0.951 . S
C203 C199 1.383 . S
C203 C202 1.367 . S
C203 H217 0.950 . S
C204 C201 1.481 . S
C204 C205 1.297 . S
C204 H218 0.950 . S
C205 C204 1.297 . S
C205 C206 1.479 . S
C205 H219 0.950 . S
C206 C205 1.479 . S
C206 C207 1.375 . S
C206 C212 1.404 . S
C207 C206 1.375 . S
C207 C208 1.369 . S
C207 H220 0.950 . S
C208 C207 1.369 . S
C208 C209 1.392 . S
C208 H221 0.951 . S
C209 C208 1.392 . S
C209 C211 1.384 . S
H210 C212 0.949 . S
C211 C209 1.384 . S
C211 C212 1.385 . S
C211 H213 0.950 . S
C212 C206 1.404 . S
C212 H210 0.949 . S
C212 C211 1.385 . S
H213 C211 0.950 . S
H214 C198 0.951 . S
H215 C200 0.951 . S
H216 C202 0.951 . S
H217 C203 0.950 . S
H218 C204 0.950 . S
H219 C205 0.950 . S
H220 C207 0.950 . S
H221 C208 0.951 . S
C222 C223 1.386 . S
C222 C224 1.383 . S
C222 H238 0.951 . S
C223 C222 1.386 . S
C223 C227 1.383 . S
C224 C222 1.383 . S
C224 C225 1.402 . S
C224 H239 0.951 . S
C225 C224 1.402 . S
C225 C226 1.375 . S
C225 C228 1.481 1_565 S
C226 C225 1.375 . S
C226 C227 1.367 . S
C226 H240 0.951 1_565 S
C227 C223 1.383 . S
C227 C226 1.367 . S
C227 H241 0.950 . S
C228 C225 1.481 1_545 S
C228 C229 1.297 1_556 S
C228 H242 0.950 . S
C229 C228 1.297 1_554 S
C229 C230 1.479 . S
C229 H243 0.950 1_545 S
C230 C229 1.479 . S
C230 C231 1.375 . S
C230 C236 1.404 . S
C231 C230 1.375 . S
C231 C232 1.369 . S
C231 H244 0.950 . S
C232 C231 1.369 . S
C232 C233 1.392 . S
C232 H245 0.951 . S
C233 C232 1.392 . S
C233 C235 1.384 . S
H234 C236 0.949 . S
C235 C233 1.384 . S
C235 C236 1.385 . S
C235 H237 0.950 . S
C236 C230 1.404 . S
C236 H234 0.949 . S
C236 C235 1.385 . S
H237 C235 0.950 . S
H238 C222 0.951 . S
H239 C224 0.951 . S
H240 C226 0.951 1_545 S
H241 C227 0.950 . S
H242 C228 0.950 . S
H243 C229 0.950 1_565 S
H244 C231 0.950 . S
H245 C232 0.951 . S
C246 C247 1.386 . S
C246 C248 1.383 . S
C246 H262 0.951 . S
C247 C246 1.386 . S
C247 C251 1.383 . S
C248 C246 1.383 . S
C248 C249 1.402 . S
C248 H263 0.951 . S
C249 C248 1.402 . S
C249 C250 1.375 . S
C249 C252 1.481 . S
C250 C249 1.375 . S
C250 C251 1.367 . S
C250 H264 0.951 . S
C251 C247 1.383 . S
C251 C250 1.367 . S
C251 H265 0.950 . S
C252 C249 1.481 . S
C252 C253 1.297 . S
C252 H266 0.950 . S
C253 C252 1.297 . S
C253 C254 1.479 . S
C253 H267 0.950 . S
C254 C253 1.479 . S
C254 C255 1.375 . S
C254 C260 1.404 . S
C255 C254 1.375 . S
C255 C256 1.369 . S
C255 H268 0.950 . S
C256 C255 1.369 . S
C256 C257 1.392 . S
C256 H269 0.951 . S
C257 C256 1.392 . S
C257 C259 1.384 . S
H258 C260 0.949 . S
C259 C257 1.384 . S
C259 C260 1.385 . S
C259 H261 0.950 . S
C260 C254 1.404 . S
C260 H258 0.949 . S
C260 C259 1.385 . S
H261 C259 0.950 . S
H262 C246 0.951 . S
H263 C248 0.951 . S
H264 C250 0.951 . S
H265 C251 0.950 . S
H266 C252 0.950 . S
H267 C253 0.950 . S
H268 C255 0.950 . S
H269 C256 0.951 . S
C270 C271 1.386 . S
C270 C272 1.383 . S
C270 H286 0.951 . S
C271 C270 1.386 . S
C271 C275 1.383 . S
C272 C270 1.383 . S
C272 C273 1.402 . S
C272 H287 0.951 . S
C273 C272 1.402 . S
C273 C274 1.375 . S
C273 C276 1.481 1_556 S
C274 C273 1.375 . S
C274 C275 1.367 . S
C274 H288 0.951 . S
C275 C271 1.383 . S
C275 C274 1.367 . S
C275 H289 0.950 . S
C276 C273 1.481 1_554 S
C276 C277 1.297 . S
C276 H290 0.950 . S
C277 C276 1.297 . S
C277 C278 1.479 1_455 S
C277 H291 0.950 . S
C278 C277 1.479 1_655 S
C278 C279 1.375 . S
C278 C284 1.404 . S
C279 C278 1.375 . S
C279 C280 1.369 . S
C279 H292 0.950 . S
C280 C279 1.369 . S
C280 C281 1.392 . S
C280 H293 0.951 . S
C281 C280 1.392 . S
C281 C283 1.384 . S
H282 C284 0.949 . S
C283 C281 1.384 . S
C283 C284 1.385 . S
C283 H285 0.950 . S
C284 C278 1.404 . S
C284 H282 0.949 . S
C284 C283 1.385 . S
H285 C283 0.950 . S
H286 C270 0.951 . S
H287 C272 0.951 . S
H288 C274 0.951 . S
H289 C275 0.950 . S
H290 C276 0.950 . S
H291 C277 0.950 . S
H292 C279 0.950 . S
H293 C280 0.951 . S
C294 C295 1.386 . S
C294 C296 1.383 . S
C294 H310 0.951 . S
C295 C294 1.386 . S
C295 C299 1.383 . S
C296 C294 1.383 . S
C296 C297 1.402 . S
C296 H311 0.951 . S
C297 C296 1.402 . S
C297 C298 1.375 . S
C297 C300 1.481 1_545 S
C298 C297 1.375 . S
C298 C299 1.367 . S
C298 H312 0.951 1_545 S
C299 C295 1.383 . S
C299 C298 1.367 . S
C299 H313 0.950 . S
C300 C297 1.481 1_565 S
C300 C301 1.297 . S
C300 H314 0.950 . S
C301 C300 1.297 . S
C301 C302 1.479 . S
C301 H315 0.950 . S
C302 C301 1.479 . S
C302 C303 1.375 . S
C302 C308 1.404 . S
C303 C302 1.375 . S
C303 C304 1.369 . S
C303 H316 0.950 . S
C304 C303 1.369 . S
C304 C305 1.392 . S
C304 H317 0.951 . S
C305 C304 1.392 . S
C305 C307 1.384 . S
H306 C308 0.949 . S
C307 C305 1.384 . S
C307 C308 1.385 . S
C307 H309 0.950 . S
C308 C302 1.404 . S
C308 H306 0.949 . S
C308 C307 1.385 . S
H309 C307 0.950 . S
H310 C294 0.951 . S
H311 C296 0.951 . S
H312 C298 0.951 1_565 S
H313 C299 0.950 . S
H314 C300 0.950 . S
H315 C301 0.950 . S
H316 C303 0.950 . S
H317 C304 0.951 . S
C318 C319 1.386 . S
C318 C320 1.383 . S
C318 H334 0.951 . S
C319 C318 1.386 . S
C319 C323 1.383 . S
C320 C318 1.383 . S
C320 C321 1.402 . S
C320 H335 0.951 . S
C321 C320 1.402 . S
C321 C322 1.375 . S
C321 C324 1.481 . S
C322 C321 1.375 . S
C322 C323 1.367 . S
C322 H336 0.951 . S
C323 C319 1.383 . S
C323 C322 1.367 . S
C323 H337 0.950 . S
C324 C321 1.481 . S
C324 C325 1.297 . S
C324 H338 0.950 . S
C325 C324 1.297 . S
C325 C326 1.479 1_556 S
C325 H339 0.950 . S
C326 C325 1.479 1_554 S
C326 C327 1.375 . S
C326 C332 1.404 . S
C327 C326 1.375 . S
C327 C328 1.369 . S
C327 H340 0.950 . S
C328 C327 1.369 . S
C328 C329 1.392 . S
C328 H341 0.951 . S
C329 C328 1.392 . S
C329 C331 1.384 . S
H330 C332 0.949 . S
C331 C329 1.384 . S
C331 C332 1.385 . S
C331 H333 0.950 . S
C332 C326 1.404 . S
C332 H330 0.949 . S
C332 C331 1.385 . S
H333 C331 0.950 . S
H334 C318 0.951 . S
H335 C320 0.951 . S
H336 C322 0.951 . S
H337 C323 0.950 . S
H338 C324 0.950 . S
H339 C325 0.950 . S
H340 C327 0.950 . S
H341 C328 0.951 . S
C342 C343 1.386 . S
C342 C344 1.383 . S
C342 H358 0.951 . S
C343 C342 1.386 . S
C343 C347 1.383 . S
C344 C342 1.383 . S
C344 C345 1.402 . S
C344 H359 0.951 1_455 S
C345 C344 1.402 . S
C345 C346 1.375 . S
C345 C348 1.481 . S
C346 C345 1.375 . S
C346 C347 1.367 . S
C346 H360 0.951 . S
C347 C343 1.383 . S
C347 C346 1.367 . S
C347 H361 0.950 . S
C348 C345 1.481 . S
C348 C349 1.297 1_455 S
C348 H362 0.950 . S
C349 C348 1.297 1_655 S
C349 C350 1.479 . S
C349 H363 0.950 . S
C350 C349 1.479 . S
C350 C351 1.375 . S
C350 C356 1.404 . S
C351 C350 1.375 . S
C351 C352 1.369 . S
C351 H364 0.950 . S
C352 C351 1.369 . S
C352 C353 1.392 . S
C352 H365 0.951 . S
C353 C352 1.392 . S
C353 C355 1.384 . S
H354 C356 0.949 1_455 S
C355 C353 1.384 . S
C355 C356 1.385 . S
C355 H357 0.950 . S
C356 C350 1.404 . S
C356 H354 0.949 1_655 S
C356 C355 1.385 . S
H357 C355 0.950 . S
H358 C342 0.951 . S
H359 C344 0.951 1_655 S
H360 C346 0.951 . S
H361 C347 0.950 . S
H362 C348 0.950 . S
H363 C349 0.950 . S
H364 C351 0.950 . S
H365 C352 0.951 . S
C79 C5 0.860 . S
C89 C57 0.924 . S
C103 C23 0.903 . S
C113 C75 0.854 . S
C127 C10 0.897 . S
C137 C31 0.787 . S
C151 C49 0.836 . S
C161 C18 0.823 . S
C175 C62 0.845 . S
C185 C36 0.934 . S
C199 C44 0.850 . S
C209 C70 0.915 . S
C223 C47 1.298 . S
C233 C8 1.276 . S
C247 C60 1.331 . S
C257 C13 1.350 . S
C271 C65 1.299 . S
C281 C34 1.330 . S
C295 C0 1.320 . S
C305 C39 1.297 . S
C319 C21 1.320 . S
C329 C52 1.277 . S
C343 C73 1.292 . S
C353 C26 1.260 . S
