# Generated by pormake.
# Topology uoq, (4)-cn, num edge types: 1
# Building blocks:
#     Node 0, Type 0, BuildingBlock: UXUYUI_clean_sbu_0, # of connection points: 4
#     Node 1, Type 0, BuildingBlock: UXUYUI_clean_sbu_0, # of connection points: 4
#     Node 2, Type 0, BuildingBlock: UXUYUI_clean_sbu_0, # of connection points: 4
#     Node 3, Type 0, BuildingBlock: UXUYUI_clean_sbu_0, # of connection points: 4
#     Node 4, Type 0, BuildingBlock: UXUYUI_clean_sbu_0, # of connection points: 4
#     Node 5, Type 0, BuildingBlock: UXUYUI_clean_sbu_0, # of connection points: 4
#     Node 6, Type 0, BuildingBlock: UXUYUI_clean_sbu_0, # of connection points: 4
#     Node 7, Type 0, BuildingBlock: UXUYUI_clean_sbu_0, # of connection points: 4
#     Node 8, Type 0, BuildingBlock: UXUYUI_clean_sbu_0, # of connection points: 4
#     Node 9, Type 0, BuildingBlock: UXUYUI_clean_sbu_0, # of connection points: 4
#     Node 10, Type 0, BuildingBlock: UXUYUI_clean_sbu_0, # of connection points: 4
#     Node 11, Type 0, BuildingBlock: UXUYUI_clean_sbu_0, # of connection points: 4
#     Edge 12, Type (0, 0), BuildingBlock: XUDNAN_clean_linker_2, # of connection points: 2
#     Edge 13, Type (0, 0), BuildingBlock: XUDNAN_clean_linker_2, # of connection points: 2
#     Edge 14, Type (0, 0), BuildingBlock: XUDNAN_clean_linker_2, # of connection points: 2
#     Edge 15, Type (0, 0), BuildingBlock: XUDNAN_clean_linker_2, # of connection points: 2
#     Edge 16, Type (0, 0), BuildingBlock: XUDNAN_clean_linker_2, # of connection points: 2
#     Edge 17, Type (0, 0), BuildingBlock: XUDNAN_clean_linker_2, # of connection points: 2
#     Edge 18, Type (0, 0), BuildingBlock: XUDNAN_clean_linker_2, # of connection points: 2
#     Edge 19, Type (0, 0), BuildingBlock: XUDNAN_clean_linker_2, # of connection points: 2
#     Edge 20, Type (0, 0), BuildingBlock: XUDNAN_clean_linker_2, # of connection points: 2
#     Edge 21, Type (0, 0), BuildingBlock: XUDNAN_clean_linker_2, # of connection points: 2
#     Edge 22, Type (0, 0), BuildingBlock: XUDNAN_clean_linker_2, # of connection points: 2
#     Edge 23, Type (0, 0), BuildingBlock: XUDNAN_clean_linker_2, # of connection points: 2
#     Edge 24, Type (0, 0), BuildingBlock: XUDNAN_clean_linker_2, # of connection points: 2
#     Edge 25, Type (0, 0), BuildingBlock: XUDNAN_clean_linker_2, # of connection points: 2
#     Edge 26, Type (0, 0), BuildingBlock: XUDNAN_clean_linker_2, # of connection points: 2
#     Edge 27, Type (0, 0), BuildingBlock: XUDNAN_clean_linker_2, # of connection points: 2
#     Edge 28, Type (0, 0), BuildingBlock: XUDNAN_clean_linker_2, # of connection points: 2
#     Edge 29, Type (0, 0), BuildingBlock: XUDNAN_clean_linker_2, # of connection points: 2
#     Edge 30, Type (0, 0), BuildingBlock: XUDNAN_clean_linker_2, # of connection points: 2
#     Edge 31, Type (0, 0), BuildingBlock: XUDNAN_clean_linker_2, # of connection points: 2
#     Edge 32, Type (0, 0), BuildingBlock: XUDNAN_clean_linker_2, # of connection points: 2
#     Edge 33, Type (0, 0), BuildingBlock: XUDNAN_clean_linker_2, # of connection points: 2
#     Edge 34, Type (0, 0), BuildingBlock: XUDNAN_clean_linker_2, # of connection points: 2
#     Edge 35, Type (0, 0), BuildingBlock: XUDNAN_clean_linker_2, # of connection points: 2
# Relax obj value: 0.147
# Max RMSD: 0.104
# Mean RMSD: 0.104
data_MOF--net-uoq--node1-UXUYUI_clean_sbu_0--edge1-XUDNAN_clean_linker_2
_symmetry_space_group_name_H-M    P1
_symmetry_Int_Tables_number       1
_symmetry_cell_setting            triclinic
loop_
_symmetry_equiv_pos_as_xyz
'x, y, z'
_cell_length_a     84.384576
_cell_length_b     84.454923
_cell_length_c     35.214408
_cell_angle_alpha  89.943964
_cell_angle_beta   90.005536
_cell_angle_gamma 119.95204
loop_
_atom_site_label
_atom_site_type_symbol
_atom_site_fract_x
_atom_site_fract_y
_atom_site_fract_z
_atom_type_partial_charge
Li0 Li 0.29246 0.44456 0.28833 0.0
Li1 Li 0.31328 0.43529 0.2621 0.0
Li2 Li 0.32239 0.46833 0.26468 0.0
Li3 Li 0.29754 0.44648 0.22041 0.0
C4 C 0.32425 0.45384 0.34154 0.0
N5 N 0.33941 0.45975 0.41336 0.0
C6 C 0.3254 0.43988 0.3605 0.0
C7 C 0.33072 0.47077 0.3593 0.0
C8 C 0.33314 0.44315 0.39672 0.0
C9 C 0.33836 0.4735 0.39557 0.0
C10 C 0.27695 0.4073 0.26988 0.0
C11 C 0.2552 0.37501 0.26771 0.0
N12 N 0.25835 0.37362 0.30512 0.0
C13 C 0.27993 0.40556 0.30831 0.0
C14 C 0.26446 0.39193 0.24939 0.0
C15 C 0.2704 0.38841 0.32561 0.0
C16 C 0.25695 0.43413 0.31519 0.0
N17 N 0.27439 0.43989 0.32661 0.0
C18 C 0.26657 0.44203 0.39089 0.0
C19 C 0.27927 0.4435 0.36375 0.0
C20 C 0.24869 0.43691 0.37972 0.0
C21 C 0.24383 0.43269 0.34137 0.0
H22 H 0.2534 0.43127 0.28549 0.0
H23 H 0.29311 0.44804 0.37238 0.0
C24 C 0.3425 0.43143 0.28131 0.0
N25 N 0.32471 0.4209 0.27094 0.0
C26 C 0.35205 0.42348 0.29692 0.0
C27 C 0.32533 0.39374 0.28795 0.0
C28 C 0.31617 0.40233 0.27271 0.0
C29 C 0.34328 0.40445 0.30161 0.0
H30 H 0.34892 0.44615 0.27966 0.0
H31 H 0.30204 0.39419 0.26414 0.0
C32 C 0.28734 0.4719 0.26904 0.0
N33 N 0.26471 0.48314 0.30109 0.0
C34 C 0.27145 0.46874 0.25021 0.0
C35 C 0.29182 0.48095 0.30398 0.0
C36 C 0.26017 0.47451 0.2669 0.0
C37 C 0.28017 0.48646 0.31979 0.0
C38 C 0.32874 0.4467 0.19082 0.0
C39 C 0.34556 0.45674 0.17241 0.0
C40 C 0.31632 0.42902 0.17848 0.0
C41 C 0.34967 0.44894 0.14172 0.0
C42 C 0.32095 0.42171 0.14768 0.0
N43 N 0.33738 0.43174 0.13009 0.0
C44 C 0.35886 0.49356 0.28318 0.0
C45 C 0.33988 0.50667 0.27624 0.0
C46 C 0.3732 0.5101 0.29663 0.0
N47 N 0.34251 0.49208 0.27412 0.0
C48 C 0.35378 0.52341 0.2899 0.0
C49 C 0.37056 0.52515 0.30108 0.0
H50 H 0.36046 0.48164 0.28165 0.0
H51 H 0.32677 0.50513 0.26875 0.0
C52 C 0.26772 0.43634 0.17005 0.0
N53 N 0.28629 0.44518 0.17217 0.0
C54 C 0.25903 0.43732 0.13694 0.0
C55 C 0.28872 0.45558 0.10807 0.0
C56 C 0.29682 0.4545 0.14189 0.0
C57 C 0.26955 0.44737 0.10547 0.0
H58 H 0.25965 0.42919 0.19471 0.0
H59 H 0.31155 0.46159 0.14429 0.0
O60 O 0.31692 0.45097 0.30578 0.0
O61 O 0.2861 0.42392 0.25216 0.0
O62 O 0.29828 0.46587 0.25368 0.0
O63 O 0.32457 0.45415 0.22099 0.0
H64 H 0.32034 0.42662 0.34751 0.0
H65 H 0.32976 0.48168 0.34544 0.0
H66 H 0.33415 0.43248 0.41163 0.0
H67 H 0.34342 0.48654 0.40958 0.0
H68 H 0.24552 0.36299 0.25218 0.0
H69 H 0.28949 0.41728 0.32462 0.0
H70 H 0.262 0.39308 0.21961 0.0
H71 H 0.27261 0.38687 0.35532 0.0
H72 H 0.27094 0.4456 0.42009 0.0
H73 H 0.23013 0.42856 0.33167 0.0
H74 H 0.36596 0.4322 0.30661 0.0
H75 H 0.31811 0.37902 0.29105 0.0
H76 H 0.26779 0.46182 0.22311 0.0
H77 H 0.30399 0.48337 0.31908 0.0
H78 H 0.24777 0.47207 0.25274 0.0
H79 H 0.28338 0.4933 0.347 0.0
H80 H 0.35533 0.47042 0.18176 0.0
H81 H 0.30326 0.42102 0.19245 0.0
H82 H 0.36263 0.45656 0.12715 0.0
H83 H 0.31147 0.40806 0.13778 0.0
H84 H 0.38587 0.51084 0.30524 0.0
H85 H 0.35129 0.53477 0.29249 0.0
H86 H 0.24427 0.43093 0.13674 0.0
H87 H 0.29748 0.46311 0.08447 0.0
Li88 Li 0.84855 0.28964 0.62364 0.0
Li89 Li 0.87854 0.31035 0.59264 0.0
Li90 Li 0.8542 0.31847 0.59096 0.0
Li91 Li 0.85196 0.29366 0.55424 0.0
C92 C 0.8716 0.33075 0.6564 0.0
N93 N 0.88037 0.36283 0.69394 0.0
C94 C 0.88848 0.34649 0.65005 0.0
C95 C 0.85918 0.33134 0.68182 0.0
C96 C 0.89267 0.36256 0.66937 0.0
C97 C 0.86386 0.34769 0.70049 0.0
C98 C 0.87543 0.27794 0.59342 0.0
C99 C 0.89951 0.27344 0.56853 0.0
N100 N 0.90225 0.2687 0.60384 0.0
C101 C 0.87839 0.27292 0.62941 0.0
C102 C 0.88598 0.27811 0.56266 0.0
C103 C 0.89205 0.26832 0.6341 0.0
C104 C 0.82583 0.25538 0.65789 0.0
N105 N 0.83714 0.27345 0.66487 0.0
C106 C 0.83258 0.26847 0.73173 0.0
C107 C 0.84081 0.28011 0.70086 0.0
C108 C 0.82064 0.24975 0.72545 0.0
C109 C 0.81738 0.24321 0.68795 0.0
H110 H 0.82345 0.25043 0.62898 0.0
H111 H 0.85026 0.29445 0.70564 0.0
C112 C 0.91657 0.327 0.57197 0.0
N113 N 0.90414 0.31947 0.60051 0.0
C114 C 0.93516 0.33371 0.57913 0.0
C115 C 0.9278 0.32488 0.64488 0.0
C116 C 0.90939 0.31833 0.63644 0.0
C117 C 0.94102 0.33275 0.61606 0.0
H118 H 0.91207 0.3279 0.54372 0.0
H119 H 0.89921 0.31231 0.65863 0.0
C120 C 0.81798 0.28681 0.56434 0.0
N121 N 0.78877 0.27246 0.51461 0.0
C122 C 0.81494 0.2984 0.5409 0.0
C123 C 0.80612 0.26794 0.56265 0.0
C124 C 0.80008 0.29087 0.51597 0.0
C125 C 0.79146 0.26094 0.53723 0.0
C126 C 0.87198 0.32333 0.51168 0.0
C127 C 0.86455 0.33338 0.49588 0.0
C128 C 0.88058 0.31655 0.48824 0.0
C129 C 0.86572 0.33634 0.45668 0.0
C130 C 0.88143 0.31977 0.44917 0.0
N131 N 0.87404 0.32951 0.43434 0.0
C132 C 0.86226 0.35554 0.58972 0.0
C133 C 0.83294 0.33398 0.61313 0.0
C134 C 0.85935 0.36997 0.59925 0.0
N135 N 0.84918 0.338 0.59715 0.0
C136 C 0.82942 0.34794 0.62295 0.0
C137 C 0.84281 0.36625 0.61647 0.0
H138 H 0.87517 0.35835 0.5775 0.0
H139 H 0.82295 0.31992 0.61948 0.0
C140 C 0.83907 0.2618 0.51016 0.0
N141 N 0.84171 0.27905 0.50871 0.0
C142 C 0.83002 0.24944 0.48072 0.0
C143 C 0.82673 0.27279 0.4482 0.0
C144 C 0.8357 0.28466 0.47848 0.0
C145 C 0.8236 0.25479 0.4491 0.0
H146 H 0.8435 0.25743 0.53483 0.0
H147 H 0.83737 0.29818 0.47818 0.0
O148 O 0.86698 0.31506 0.63673 0.0
O149 O 0.86251 0.283 0.58843 0.0
O150 O 0.8327 0.2939 0.5883 0.0
O151 O 0.87113 0.32045 0.55 0.0
H152 H 0.89814 0.34641 0.62999 0.0
H153 H 0.84589 0.31941 0.68646 0.0
H154 H 0.90565 0.37486 0.66462 0.0
H155 H 0.85432 0.34838 0.71999 0.0
H156 H 0.90785 0.27362 0.54504 0.0
H157 H 0.87039 0.2728 0.65353 0.0
H158 H 0.88381 0.28194 0.53463 0.0
H159 H 0.89458 0.26453 0.66183 0.0
H160 H 0.83573 0.27401 0.76022 0.0
H161 H 0.80822 0.22888 0.68189 0.0
H162 H 0.94488 0.33987 0.55612 0.0
H163 H 0.9316 0.32361 0.67362 0.0
H164 H 0.82411 0.31302 0.54152 0.0
H165 H 0.80835 0.25879 0.58044 0.0
H166 H 0.79762 0.29966 0.4975 0.0
H167 H 0.78225 0.24635 0.53541 0.0
H168 H 0.85785 0.33873 0.51364 0.0
H169 H 0.88639 0.30874 0.50005 0.0
H170 H 0.85997 0.34403 0.44402 0.0
H171 H 0.88795 0.31451 0.43065 0.0
H172 H 0.86999 0.38387 0.59347 0.0
H173 H 0.8166 0.34444 0.63671 0.0
H174 H 0.82763 0.23565 0.48336 0.0
H175 H 0.82223 0.27769 0.42444 0.0
Li176 Li 0.57366 0.87949 0.9183 0.0
Li177 Li 0.56019 0.84808 0.94605 0.0
Li178 Li 0.55914 0.85231 0.87647 0.0
Li179 Li 0.5413 0.85929 0.91883 0.0
C180 C 0.59863 0.86723 0.9214 0.0
N181 N 0.63435 0.88155 0.94554 0.0
C182 C 0.60293 0.87079 0.9599 0.0
C183 C 0.61248 0.87092 0.89515 0.0
C184 C 0.62107 0.87805 0.97155 0.0
C185 C 0.63046 0.87816 0.90793 0.0
C186 C 0.54844 0.87374 0.9873 0.0
C187 C 0.52541 0.8658 0.03562 0.0
N188 N 0.52796 0.88301 0.03383 0.0
C189 C 0.55086 0.89137 0.986 0.0
C190 C 0.53564 0.86085 0.01234 0.0
C191 C 0.54037 0.89578 0.00976 0.0
C192 C 0.60004 0.91785 0.90159 0.0
N193 N 0.59274 0.90446 0.92843 0.0
C194 C 0.60989 0.92624 0.97707 0.0
C195 C 0.59761 0.90836 0.96559 0.0
C196 C 0.61742 0.94032 0.95001 0.0
C197 C 0.6125 0.93588 0.91176 0.0
H198 H 0.596 0.91486 0.87237 0.0
H199 H 0.59156 0.89762 0.98664 0.0
C200 C 0.56196 0.81768 0.97269 0.0
N201 N 0.56213 0.83313 0.98397 0.0
C202 C 0.56211 0.8056 0.99961 0.0
C203 C 0.56285 0.82571 0.04923 0.0
C204 C 0.56288 0.83749 0.02132 0.0
C205 C 0.56222 0.80936 0.03858 0.0
H206 H 0.56145 0.81463 0.94272 0.0
H207 H 0.5632 0.84998 0.02948 0.0
C208 C 0.56556 0.88516 0.84491 0.0
N209 N 0.58418 0.90616 0.78259 0.0
C210 C 0.55975 0.89622 0.82734 0.0
C211 C 0.58085 0.88476 0.83071 0.0
C212 C 0.56936 0.90677 0.79592 0.0
C213 C 0.59005 0.89546 0.79916 0.0
C214 C 0.52433 0.82368 0.88964 0.0
C215 C 0.51779 0.83073 0.86168 0.0
C216 C 0.51579 0.8048 0.8952 0.0
C217 C 0.50278 0.81872 0.8397 0.0
C218 C 0.5008 0.79325 0.87265 0.0
N219 N 0.49466 0.80039 0.8456 0.0
C220 C 0.56428 0.82788 0.82954 0.0
C221 C 0.55287 0.84452 0.79658 0.0
C222 C 0.56327 0.81817 0.79651 0.0
N223 N 0.55908 0.84074 0.82904 0.0
C224 C 0.55198 0.83543 0.76282 0.0
C225 C 0.55696 0.82179 0.76237 0.0
H226 H 0.56885 0.82488 0.85588 0.0
H227 H 0.54838 0.85448 0.79687 0.0
C228 C 0.51884 0.87503 0.92058 0.0
N229 N 0.51888 0.85922 0.92736 0.0
C230 C 0.50457 0.87732 0.9341 0.0
C231 C 0.48994 0.84649 0.95877 0.0
C232 C 0.50461 0.84485 0.94507 0.0
C233 C 0.49015 0.86313 0.95449 0.0
H234 H 0.53048 0.88629 0.90681 0.0
H235 H 0.50517 0.83254 0.95068 0.0
O236 O 0.58101 0.86037 0.90927 0.0
O237 O 0.55822 0.86901 0.9635 0.0
O238 O 0.55594 0.87447 0.87512 0.0
O239 O 0.53917 0.8351 0.91121 0.0
H240 H 0.59241 0.86819 0.98052 0.0
H241 H 0.60937 0.86822 0.86523 0.0
H242 H 0.6246 0.88094 1.00125 0.0
H243 H 0.64133 0.8811 0.88795 0.0
H244 H 0.51534 0.85592 0.0549 0.0
H245 H 0.56049 0.90144 0.96638 0.0
H246 H 0.53334 0.84706 0.01324 0.0
H247 H 0.54201 0.90932 0.00886 0.0
H248 H 0.6134 0.92902 0.00684 0.0
H249 H 0.61778 0.94634 0.88998 0.0
H250 H 0.56203 0.7934 0.98991 0.0
H251 H 0.56276 0.82916 0.0788 0.0
H252 H 0.54789 0.8966 0.83784 0.0
H253 H 0.5856 0.87634 0.84382 0.0
H254 H 0.56501 0.9154 0.78208 0.0
H255 H 0.60188 0.89527 0.78789 0.0
H256 H 0.52426 0.84529 0.85686 0.0
H257 H 0.52075 0.79915 0.91667 0.0
H258 H 0.49759 0.82398 0.81793 0.0
H259 H 0.49406 0.7786 0.87662 0.0
H260 H 0.56695 0.80761 0.79813 0.0
H261 H 0.54737 0.8391 0.73737 0.0
H262 H 0.50513 0.8903 0.9299 0.0
H263 H 0.47916 0.83529 0.9746 0.0
Li264 Li 0.71389 0.55782 0.28458 0.0
Li265 Li 0.69362 0.56549 0.25286 0.0
Li266 Li 0.68501 0.53347 0.25593 0.0
Li267 Li 0.71219 0.557 0.21449 0.0
C268 C 0.68495 0.55782 0.32847 0.0
N269 N 0.6771 0.57481 0.38658 0.0
C270 C 0.69786 0.57553 0.33962 0.0
C271 C 0.66809 0.54868 0.34712 0.0
C272 C 0.69364 0.5839 0.36899 0.0
C273 C 0.66437 0.55752 0.37638 0.0
C274 C 0.73021 0.5961 0.24074 0.0
C275 C 0.74066 0.62079 0.19557 0.0
N276 N 0.7498 0.63295 0.22382 0.0
C277 C 0.73992 0.60881 0.26924 0.0
C278 C 0.73076 0.60209 0.20352 0.0
C279 C 0.74965 0.62739 0.26015 0.0
C280 C 0.74874 0.57324 0.3181 0.0
N281 N 0.73054 0.563 0.32534 0.0
C282 C 0.73638 0.55967 0.39036 0.0
C283 C 0.72418 0.55616 0.36053 0.0
C284 C 0.75532 0.57018 0.38383 0.0
C285 C 0.76144 0.57699 0.34704 0.0
H286 H 0.75337 0.57833 0.28968 0.0
H287 H 0.70962 0.5479 0.36538 0.0
C288 C 0.66356 0.56946 0.26757 0.0
N289 N 0.68173 0.57983 0.25995 0.0
C290 C 0.65392 0.57732 0.28305 0.0
C291 C 0.68151 0.60675 0.28068 0.0
C292 C 0.69069 0.59827 0.26514 0.0
C293 C 0.66303 0.59609 0.29121 0.0
H294 H 0.65684 0.55479 0.26434 0.0
H295 H 0.70516 0.60631 0.25969 0.0
C296 C 0.72002 0.53105 0.26967 0.0
N297 N 0.74006 0.51956 0.31175 0.0
C298 C 0.73778 0.53591 0.25859 0.0
C299 C 0.71241 0.52028 0.30204 0.0
C300 C 0.7477 0.52997 0.28026 0.0
C301 C 0.72277 0.51462 0.32296 0.0
C302 C 0.67256 0.55077 0.19192 0.0
C303 C 0.65395 0.5377 0.19304 0.0
C304 C 0.6783 0.56725 0.17275 0.0
C305 C 0.64135 0.54151 0.1756 0.0
C306 C 0.66528 0.57056 0.15569 0.0
N307 N 0.64723 0.55774 0.15749 0.0
C308 C 0.64946 0.50711 0.27684 0.0
C309 C 0.66803 0.49456 0.25943 0.0
C310 C 0.63548 0.48999 0.28861 0.0
N311 N 0.66546 0.50913 0.26334 0.0
C312 C 0.65441 0.47716 0.27094 0.0
C313 C 0.638 0.47477 0.28659 0.0
H314 H 0.64782 0.51896 0.27967 0.0
H315 H 0.68091 0.49656 0.24869 0.0
C316 C 0.74552 0.57024 0.17781 0.0
N317 N 0.72725 0.5609 0.17083 0.0
C318 C 0.75802 0.57346 0.14874 0.0
C319 C 0.73274 0.55759 0.10532 0.0
C320 C 0.72065 0.55458 0.13546 0.0
C321 C 0.75176 0.56718 0.11174 0.0
H322 H 0.75038 0.57504 0.20625 0.0
H323 H 0.70604 0.54717 0.13066 0.0
O324 O 0.68852 0.54975 0.2985 0.0
O325 O 0.72074 0.57785 0.24913 0.0
O326 O 0.7103 0.53724 0.24963 0.0
O327 O 0.68505 0.54733 0.20922 0.0
H328 H 0.7109 0.58283 0.32532 0.0
H329 H 0.65792 0.53497 0.33895 0.0
H330 H 0.70346 0.59766 0.37767 0.0
H331 H 0.65133 0.55065 0.39089 0.0
H332 H 0.74115 0.62563 0.16689 0.0
H333 H 0.73995 0.6044 0.29807 0.0
H334 H 0.72379 0.59243 0.18092 0.0
H335 H 0.75713 0.63739 0.28196 0.0
H336 H 0.73099 0.55432 0.41829 0.0
H337 H 0.77589 0.58488 0.34049 0.0
H338 H 0.63963 0.56861 0.29023 0.0
H339 H 0.68909 0.62126 0.28668 0.0
H340 H 0.74389 0.54426 0.23367 0.0
H341 H 0.69877 0.51662 0.31132 0.0
H342 H 0.76149 0.53369 0.27211 0.0
H343 H 0.71711 0.5064 0.34824 0.0
H344 H 0.64929 0.52477 0.20725 0.0
H345 H 0.69261 0.57745 0.17135 0.0
H346 H 0.62691 0.53156 0.17643 0.0
H347 H 0.66953 0.58333 0.14104 0.0
H348 H 0.62318 0.48888 0.30078 0.0
H349 H 0.65685 0.46578 0.26835 0.0
H350 H 0.77246 0.58059 0.15546 0.0
H351 H 0.72725 0.55263 0.07727 0.0
Li352 Li 0.16089 0.71398 0.61952 0.0
Li353 Li 0.1298 0.69436 0.59368 0.0
Li354 Li 0.15167 0.68303 0.59882 0.0
Li355 Li 0.15603 0.70628 0.55111 0.0
C356 C 0.13668 0.67801 0.66708 0.0
N357 N 0.12793 0.65063 0.71988 0.0
C358 C 0.11869 0.66359 0.67026 0.0
C359 C 0.15019 0.67858 0.69098 0.0
C360 C 0.11454 0.64988 0.69713 0.0
C361 C 0.1455 0.66457 0.71738 0.0
C362 C 0.13775 0.72903 0.58025 0.0
C363 C 0.11515 0.73428 0.54999 0.0
N364 N 0.11671 0.74568 0.57881 0.0
C365 C 0.13924 0.7409 0.60944 0.0
C366 C 0.12573 0.72578 0.55013 0.0
C367 C 0.12844 0.74915 0.60825 0.0
C368 C 0.18901 0.74851 0.64699 0.0
N369 N 0.17422 0.73225 0.65672 0.0
C370 C 0.17793 0.74095 0.72208 0.0
C371 C 0.16837 0.72845 0.69328 0.0
C372 C 0.19378 0.75755 0.71327 0.0
C373 C 0.19918 0.7613 0.67497 0.0
H374 H 0.19309 0.75141 0.61757 0.0
H375 H 0.15625 0.71567 0.70014 0.0
C376 C 0.09079 0.6719 0.58908 0.0
N377 N 0.10491 0.68737 0.60402 0.0
C378 C 0.0731 0.66476 0.60395 0.0
C379 C 0.08473 0.69019 0.64754 0.0
C380 C 0.10216 0.69662 0.63238 0.0
C381 C 0.06997 0.67366 0.63441 0.0
H382 H 0.09346 0.6645 0.56732 0.0
H383 H 0.11368 0.70847 0.64476 0.0
C384 C 0.19233 0.71743 0.59435 0.0
N385 N 0.22839 0.74175 0.6124 0.0
C386 C 0.20351 0.73113 0.56866 0.0
C387 C 0.19953 0.7161 0.6292 0.0
C388 C 0.2217 0.74327 0.5783 0.0
C389 C 0.21778 0.72853 0.63782 0.0
C390 C 0.13295 0.67417 0.51954 0.0
C391 C 0.1403 0.66332 0.50823 0.0
C392 C 0.12357 0.67887 0.49327 0.0
C393 C 0.13835 0.65753 0.4705 0.0
C394 C 0.12193 0.67282 0.4558 0.0
N395 N 0.1293 0.66238 0.44528 0.0
C396 C 0.13842 0.64544 0.61453 0.0
C397 C 0.1705 0.66458 0.62032 0.0
C398 C 0.13945 0.63067 0.62978 0.0
N399 N 0.15377 0.66209 0.61116 0.0
C400 C 0.17215 0.65026 0.63577 0.0
C401 C 0.15644 0.63315 0.64161 0.0
H402 H 0.12527 0.64385 0.607 0.0
H403 H 0.18251 0.67784 0.61681 0.0
C404 C 0.16767 0.73186 0.48961 0.0
N405 N 0.16627 0.71594 0.50198 0.0
C406 C 0.17837 0.74086 0.45775 0.0
C407 C 0.18529 0.7165 0.45102 0.0
C408 C 0.17459 0.70806 0.48305 0.0
C409 C 0.18781 0.73345 0.43859 0.0
H410 H 0.1613 0.7381 0.50566 0.0
H411 H 0.17375 0.69571 0.49404 0.0
O412 O 0.14113 0.6913 0.64021 0.0
O413 O 0.14812 0.72075 0.58105 0.0
O414 O 0.17444 0.70543 0.5855 0.0
O415 O 0.13485 0.6801 0.55621 0.0
H416 H 0.10807 0.66286 0.65193 0.0
H417 H 0.16418 0.68961 0.68887 0.0
H418 H 0.1007 0.63859 0.69976 0.0
H419 H 0.15585 0.66476 0.73582 0.0
H420 H 0.10572 0.73183 0.52695 0.0
H421 H 0.14854 0.7436 0.6329 0.0
H422 H 0.12454 0.71673 0.52721 0.0
H423 H 0.12936 0.75829 0.63073 0.0
H424 H 0.17287 0.73763 0.75091 0.0
H425 H 0.21133 0.77381 0.66665 0.0
H426 H 0.06228 0.65187 0.59313 0.0
H427 H 0.08303 0.69778 0.67038 0.0
H428 H 0.19823 0.73249 0.54166 0.0
H429 H 0.19106 0.70575 0.64965 0.0
H430 H 0.23049 0.75395 0.55871 0.0
H431 H 0.22347 0.72771 0.66478 0.0
H432 H 0.14757 0.65955 0.5283 0.0
H433 H 0.11767 0.68713 0.50173 0.0
H434 H 0.14406 0.64921 0.46125 0.0
H435 H 0.11479 0.67642 0.43509 0.0
H436 H 0.12699 0.61773 0.6339 0.0
H437 H 0.18556 0.65265 0.6438 0.0
H438 H 0.18005 0.75397 0.44959 0.0
H439 H 0.19204 0.71009 0.43694 0.0
Li440 Li 0.44466 0.15268 0.96042 0.0
Li441 Li 0.43365 0.12374 0.9283 0.0
Li442 Li 0.46699 0.1459 0.92828 0.0
Li443 Li 0.4449 0.15061 0.89 0.0
C444 C 0.4605 0.13657 0.00477 0.0
N445 N 0.48114 0.14306 0.06984 0.0
C446 C 0.45765 0.12205 0.02833 0.0
C447 C 0.47382 0.15438 0.01433 0.0
C448 C 0.46823 0.12561 0.0611 0.0
C449 C 0.48412 0.15739 0.04733 0.0
C450 C 0.40559 0.12799 0.92675 0.0
C451 C 0.37815 0.10444 0.89704 0.0
N452 N 0.36928 0.10098 0.93091 0.0
C453 C 0.39617 0.1243 0.9612 0.0
C454 C 0.3965 0.11806 0.89434 0.0
C455 C 0.37782 0.11056 0.96274 0.0
C456 C 0.44416 0.18104 0.00549 0.0
N457 N 0.44054 0.16345 0.00449 0.0
C458 C 0.43006 0.15884 0.06884 0.0
C459 C 0.43342 0.15231 0.03521 0.0
C460 C 0.43388 0.17701 0.07088 0.0
C461 C 0.44096 0.18814 0.03854 0.0
H462 H 0.4494 0.18959 0.98073 0.0
H463 H 0.43032 0.13826 0.03358 0.0
C464 C 0.40963 0.08581 0.9078 0.0
N465 N 0.41634 0.09843 0.93611 0.0
C466 C 0.39737 0.06743 0.91623 0.0
C467 C 0.39928 0.07547 0.98259 0.0
C468 C 0.41132 0.09363 0.97288 0.0
C469 C 0.39222 0.06205 0.95416 0.0
H470 H 0.41388 0.08999 0.87879 0.0
H471 H 0.41673 0.10399 0.99476 0.0
C472 C 0.47229 0.18656 0.9263 0.0
N473 N 0.48729 0.22406 0.92983 0.0
C474 C 0.46297 0.19483 0.91068 0.0
C475 C 0.48925 0.1974 0.94371 0.0
C476 C 0.47079 0.2138 0.91272 0.0
C477 C 0.49659 0.21632 0.94526 0.0
C478 C 0.4546 0.13127 0.8474 0.0
C479 C 0.4726 0.13981 0.8341 0.0
C480 C 0.4401 0.12373 0.82158 0.0
C481 C 0.4758 0.14085 0.795 0.0
C482 C 0.44387 0.12508 0.7827 0.0
N483 N 0.46149 0.13355 0.77033 0.0
C484 C 0.49224 0.13556 0.95293 0.0
C485 C 0.50601 0.16455 0.92308 0.0
C486 C 0.50932 0.13826 0.96382 0.0
N487 N 0.49086 0.14886 0.93404 0.0
C488 C 0.52342 0.16772 0.93286 0.0
C489 C 0.52527 0.1547 0.95452 0.0
H490 H 0.47998 0.12313 0.96105 0.0
H491 H 0.50454 0.17482 0.90763 0.0
C492 C 0.42636 0.16212 0.84 0.0
N493 N 0.44236 0.16211 0.84473 0.0
C494 C 0.42467 0.17274 0.81158 0.0
C495 C 0.45565 0.18258 0.792 0.0
C496 C 0.45686 0.17196 0.82126 0.0
C497 C 0.43954 0.1834 0.78754 0.0
H498 H 0.41519 0.15461 0.85953 0.0
H499 H 0.46964 0.17225 0.82629 0.0
O500 O 0.45039 0.13325 0.97231 0.0
O501 O 0.42371 0.14099 0.92493 0.0
O502 O 0.46507 0.16803 0.92395 0.0
O503 O 0.45119 0.13031 0.88553 0.0
H504 H 0.44745 0.10816 0.02123 0.0
H505 H 0.47617 0.16576 0.99649 0.0
H506 H 0.46621 0.11451 0.07955 0.0
H507 H 0.49448 0.17111 0.05505 0.0
H508 H 0.37099 0.09656 0.87224 0.0
H509 H 0.40297 0.13185 0.98654 0.0
H510 H 0.4036 0.12071 0.86748 0.0
H511 H 0.37039 0.10749 0.98926 0.0
H512 H 0.42474 0.14979 0.09311 0.0
H513 H 0.44378 0.20214 0.03856 0.0
H514 H 0.39231 0.05749 0.89348 0.0
H515 H 0.39546 0.07199 0.01207 0.0
H516 H 0.44968 0.18671 0.89786 0.0
H517 H 0.4967 0.1913 0.95598 0.0
H518 H 0.46368 0.22034 0.90088 0.0
H519 H 0.50969 0.22485 0.9587 0.0
H520 H 0.48397 0.14568 0.85372 0.0
H521 H 0.42609 0.11702 0.83143 0.0
H522 H 0.48967 0.1475 0.78428 0.0
H523 H 0.43279 0.11941 0.76237 0.0
H524 H 0.50988 0.12784 0.98075 0.0
H525 H 0.53527 0.1804 0.92409 0.0
H526 H 0.41201 0.17299 0.80906 0.0
H527 H 0.46751 0.1908 0.77439 0.0
Li528 Li 0.53927 0.68419 0.41413 0.0
Li529 Li 0.56217 0.7121 0.44803 0.0
Li530 Li 0.56185 0.71077 0.37689 0.0
Li531 Li 0.5722 0.69294 0.41421 0.0
C532 C 0.52852 0.71167 0.40364 0.0
N533 N 0.49922 0.71653 0.38706 0.0
C534 C 0.52093 0.71748 0.43188 0.0
C535 C 0.52124 0.70838 0.36695 0.0
C536 C 0.50611 0.71984 0.42293 0.0
C537 C 0.50642 0.7109 0.35914 0.0
C538 C 0.56359 0.68474 0.49045 0.0
C539 C 0.59098 0.69549 0.52797 0.0
N540 N 0.58131 0.68239 0.55436 0.0
C541 C 0.55394 0.67134 0.51783 0.0
C542 C 0.58229 0.69689 0.49543 0.0
C543 C 0.56313 0.6704 0.55 0.0
C544 C 0.5135 0.64726 0.40327 0.0
N545 N 0.51501 0.66361 0.4123 0.0
C546 C 0.4825 0.65037 0.41065 0.0
C547 C 0.49993 0.6653 0.41692 0.0
C548 C 0.48049 0.6334 0.40003 0.0
C549 C 0.49632 0.63192 0.39705 0.0
H550 H 0.52571 0.64627 0.39993 0.0
H551 H 0.50134 0.67829 0.42464 0.0
C552 C 0.56512 0.74389 0.47888 0.0
N553 N 0.56438 0.72804 0.48953 0.0
C554 C 0.56411 0.75541 0.50605 0.0
C555 C 0.56266 0.73474 0.5551 0.0
C556 C 0.56333 0.72339 0.52689 0.0
C557 C 0.5626 0.75076 0.5447 0.0
H558 H 0.56573 0.74718 0.44903 0.0
H559 H 0.56231 0.7106 0.535 0.0
C560 C 0.54927 0.67524 0.33901 0.0
N561 N 0.53811 0.6557 0.27198 0.0
C562 C 0.56037 0.66955 0.32115 0.0
C563 C 0.53247 0.67095 0.32281 0.0
C564 C 0.5545 0.65971 0.28726 0.0
C565 C 0.52707 0.66106 0.28892 0.0
C566 C 0.59938 0.72877 0.39159 0.0
C567 C 0.60104 0.72064 0.35843 0.0
C568 C 0.61387 0.74561 0.40324 0.0
C569 C 0.61723 0.72949 0.33747 0.0
C570 C 0.62986 0.75404 0.38151 0.0
N571 N 0.63119 0.74587 0.34934 0.0
C572 C 0.56244 0.73876 0.33088 0.0
C573 C 0.56762 0.7174 0.29758 0.0
C574 C 0.56225 0.74719 0.29677 0.0
N575 N 0.56466 0.72387 0.33057 0.0
C576 C 0.56745 0.72532 0.26296 0.0
C577 C 0.56433 0.74015 0.26217 0.0
H578 H 0.56016 0.74368 0.35752 0.0
H579 H 0.56976 0.70585 0.29787 0.0
C580 C 0.57672 0.66292 0.41068 0.0
N581 N 0.58686 0.68144 0.41242 0.0
C582 C 0.58512 0.65247 0.40495 0.0
C583 C 0.61443 0.68029 0.40369 0.0
C584 C 0.60545 0.69024 0.41 0.0
C585 C 0.60419 0.66116 0.40074 0.0
H586 H 0.56197 0.6563 0.41256 0.0
H587 H 0.61331 0.70495 0.41217 0.0
O588 O 0.54304 0.70931 0.41197 0.0
O589 O 0.55481 0.68566 0.45862 0.0
O590 O 0.55484 0.68488 0.37225 0.0
O591 O 0.58357 0.72051 0.41233 0.0
H592 H 0.52635 0.72 0.46047 0.0
H593 H 0.527 0.70402 0.34468 0.0
H594 H 0.50008 0.72429 0.44452 0.0
H595 H 0.50066 0.70841 0.33087 0.0
H596 H 0.60543 0.70482 0.53223 0.0
H597 H 0.53949 0.66177 0.51425 0.0
H598 H 0.59001 0.70731 0.4745 0.0
H599 H 0.55583 0.66012 0.57148 0.0
H600 H 0.47079 0.65231 0.413 0.0
H601 H 0.4955 0.61909 0.38972 0.0
H602 H 0.56413 0.76767 0.49688 0.0
H603 H 0.56127 0.73056 0.58457 0.0
H604 H 0.57347 0.67282 0.33315 0.0
H605 H 0.52361 0.67506 0.33636 0.0
H606 H 0.56299 0.65527 0.27308 0.0
H607 H 0.51409 0.65762 0.27612 0.0
H608 H 0.59002 0.70754 0.34921 0.0
H609 H 0.61275 0.75211 0.4288 0.0
H610 H 0.61871 0.72332 0.3118 0.0
H611 H 0.6412 0.76708 0.39019 0.0
H612 H 0.55976 0.75858 0.29736 0.0
H613 H 0.56948 0.7197 0.23697 0.0
H614 H 0.57669 0.63777 0.40257 0.0
H615 H 0.62919 0.68747 0.40108 0.0
Li616 Li 0.85219 0.5579 0.78512 0.0
Li617 Li 0.85597 0.53531 0.74278 0.0
Li618 Li 0.87909 0.5673 0.74297 0.0
Li619 Li 0.84985 0.55831 0.7164 0.0
C620 C 0.8873 0.55611 0.80463 0.0
N621 N 0.9214 0.5704 0.83765 0.0
C622 C 0.89902 0.54968 0.7939 0.0
C623 C 0.89284 0.56971 0.83228 0.0
C624 C 0.91623 0.55711 0.81088 0.0
C625 C 0.91016 0.57677 0.84863 0.0
C626 C 0.81585 0.53276 0.75269 0.0
C627 C 0.7843 0.51053 0.73995 0.0
N628 N 0.77905 0.52182 0.75607 0.0
C629 C 0.81012 0.54413 0.7691 0.0
C630 C 0.80283 0.5158 0.73803 0.0
C631 C 0.79147 0.53836 0.77056 0.0
C632 C 0.84657 0.57862 0.84084 0.0
N633 N 0.84313 0.56149 0.83246 0.0
C634 C 0.82436 0.54957 0.88793 0.0
C635 C 0.83235 0.54706 0.85529 0.0
C636 C 0.82743 0.56711 0.89709 0.0
C637 C 0.8388 0.58174 0.87296 0.0
H638 H 0.85502 0.58982 0.822 0.0
H639 H 0.82968 0.53353 0.84775 0.0
C640 C 0.86516 0.50954 0.71724 0.0
N641 N 0.85208 0.51122 0.73636 0.0
C642 C 0.86209 0.49233 0.70644 0.0
C643 C 0.83245 0.4788 0.73668 0.0
C644 C 0.8361 0.49631 0.74689 0.0
C645 C 0.84539 0.47666 0.71545 0.0
H646 H 0.8777 0.52167 0.70899 0.0
H647 H 0.82598 0.49804 0.76225 0.0
C648 C 0.86398 0.59315 0.7318 0.0
N649 N 0.86225 0.62018 0.69088 0.0
C650 C 0.87783 0.6039 0.706 0.0
C651 C 0.84932 0.59624 0.737 0.0
C652 C 0.87669 0.61748 0.68555 0.0
C653 C 0.84868 0.60994 0.71597 0.0
C654 C 0.86211 0.54151 0.66599 0.0
C655 C 0.87443 0.54478 0.63645 0.0
C656 C 0.84376 0.52804 0.66173 0.0
C657 C 0.86822 0.53445 0.6032 0.0
C658 C 0.83808 0.51799 0.62808 0.0
N659 N 0.85032 0.52137 0.59975 0.0
C660 C 0.91373 0.57732 0.71336 0.0
C661 C 0.91405 0.59922 0.75583 0.0
C662 C 0.93248 0.58828 0.70681 0.0
N663 N 0.90492 0.58297 0.7373 0.0
C664 C 0.93287 0.61058 0.75032 0.0
C665 C 0.94231 0.6052 0.7253 0.0
H666 H 0.90617 0.56422 0.69939 0.0
H667 H 0.90668 0.60339 0.77467 0.0
C668 C 0.82065 0.5583 0.67192 0.0
N669 N 0.8387 0.56346 0.67374 0.0
C670 C 0.81349 0.56194 0.63951 0.0
C671 C 0.8436 0.57642 0.61138 0.0
C672 C 0.85016 0.57241 0.64426 0.0
C673 C 0.82499 0.57104 0.60861 0.0
H674 H 0.81167 0.55129 0.69527 0.0
H675 H 0.86444 0.57634 0.64618 0.0
O676 O 0.87067 0.54946 0.78744 0.0
O677 O 0.83404 0.53796 0.75169 0.0
O678 O 0.86467 0.57953 0.75148 0.0
O679 O 0.86806 0.55156 0.69871 0.0
H680 H 0.89493 0.53921 0.77236 0.0
H681 H 0.88393 0.57489 0.84069 0.0
H682 H 0.92551 0.55236 0.8027 0.0
H683 H 0.91468 0.58738 0.86993 0.0
H684 H 0.7741 0.49746 0.72866 0.0
H685 H 0.81992 0.55742 0.77995 0.0
H686 H 0.80696 0.5068 0.72517 0.0
H687 H 0.78687 0.54707 0.78304 0.0
H688 H 0.81591 0.5379 0.90577 0.0
H689 H 0.84134 0.59544 0.87822 0.0
H690 H 0.87238 0.49141 0.68975 0.0
H691 H 0.81951 0.46709 0.74479 0.0
H692 H 0.88918 0.6016 0.70133 0.0
H693 H 0.8385 0.58807 0.75684 0.0
H694 H 0.88725 0.62581 0.6653 0.0
H695 H 0.83736 0.61241 0.71955 0.0
H696 H 0.88866 0.55524 0.63911 0.0
H697 H 0.834 0.52536 0.68411 0.0
H698 H 0.87762 0.53684 0.58013 0.0
H699 H 0.82392 0.50752 0.62448 0.0
H700 H 0.93925 0.58344 0.68783 0.0
H701 H 0.93989 0.62357 0.76498 0.0
H702 H 0.79909 0.55774 0.63872 0.0
H703 H 0.85292 0.5833 0.58807 0.0
Li704 Li 0.32589 0.85925 0.0829 0.0
Li705 Li 0.296 0.84785 0.12227 0.0
Li706 Li 0.29595 0.8489 0.05194 0.0
Li707 Li 0.30992 0.87658 0.08754 0.0
C708 C 0.29586 0.81865 0.06462 0.0
N709 N 0.27983 0.78755 0.02027 0.0
C710 C 0.27831 0.80441 0.07321 0.0
C711 C 0.30529 0.81707 0.03357 0.0
C712 C 0.27043 0.78879 0.05043 0.0
C713 C 0.29694 0.80124 0.01147 0.0
C714 C 0.32976 0.88528 0.15104 0.0
C715 C 0.32855 0.90764 0.19163 0.0
N716 N 0.34715 0.91729 0.1925 0.0
C717 C 0.34885 0.8953 0.15268 0.0
C718 C 0.31952 0.89139 0.17099 0.0
C719 C 0.35739 0.91148 0.17367 0.0
C720 C 0.36324 0.8776 0.06813 0.0
N721 N 0.34906 0.86086 0.07726 0.0
C722 C 0.36825 0.84761 0.07161 0.0
C723 C 0.35122 0.84597 0.07944 0.0
C724 C 0.38313 0.86473 0.06154 0.0
C725 C 0.38044 0.87986 0.06015 0.0
H726 H 0.36108 0.88917 0.06647 0.0
H727 H 0.33967 0.83278 0.08662 0.0
C728 C 0.26467 0.8226 0.16498 0.0
N729 N 0.28305 0.83422 0.16637 0.0
C730 C 0.25542 0.81164 0.19635 0.0
C731 C 0.28412 0.82515 0.23026 0.0
C732 C 0.29279 0.83584 0.1983 0.0
C733 C 0.26522 0.8126 0.22942 0.0
H734 H 0.25725 0.82156 0.13917 0.0
H735 H 0.30739 0.84522 0.19868 0.0
C736 C 0.32153 0.88254 0.0134 0.0
N737 N 0.32554 0.9075 0.95806 0.0
C738 C 0.30648 0.88399 1.00173 0.0
C739 C 0.3386 0.89369 0.99668 0.0
C740 C 0.30878 0.89672 0.9738 0.0
C741 C 0.34035 0.90624 0.96879 0.0
C742 C 0.27057 0.86123 0.09562 0.0
C743 C 0.26007 0.86224 0.066 0.0
C744 C 0.26713 0.86428 0.13294 0.0
C745 C 0.2466 0.86675 0.07414 0.0
C746 C 0.25353 0.86874 0.13992 0.0
N747 N 0.24365 0.8699 0.11062 0.0
C748 C 0.26399 0.82642 0.0082 0.0
C749 C 0.29199 0.84071 0.97415 0.0
C750 C 0.25423 0.81901 0.9746 0.0
N751 N 0.2825 0.83722 0.00721 0.0
C752 C 0.28278 0.83393 0.93993 0.0
C753 C 0.26367 0.82311 0.93992 0.0
H754 H 0.25682 0.82383 0.03498 0.0
H755 H 0.30673 0.84906 0.97427 0.0
C756 C 0.33428 0.91381 0.07908 0.0
N757 N 0.31612 0.90189 0.08411 0.0
C758 C 0.34034 0.93166 0.06685 0.0
C759 C 0.309 0.92503 0.06662 0.0
C760 C 0.30354 0.9073 0.07914 0.0
C761 C 0.32758 0.93731 0.05926 0.0
H762 H 0.34398 0.90906 0.08185 0.0
H763 H 0.28918 0.89768 0.08261 0.0
O764 O 0.30355 0.8343 0.08576 0.0
O765 O 0.32117 0.86952 0.13023 0.0
O766 O 0.31968 0.87066 0.04186 0.0
O767 O 0.2837 0.85669 0.08815 0.0
H768 H 0.27079 0.80548 0.097 0.0
H769 H 0.3188 0.82809 0.02626 0.0
H770 H 0.25682 0.77769 0.05663 0.0
H771 H 0.30403 0.79987 0.98721 0.0
H772 H 0.32079 0.9126 0.20695 0.0
H773 H 0.357 0.89064 0.13792 0.0
H774 H 0.30477 0.88376 0.17028 0.0
H775 H 0.37215 0.91942 0.17501 0.0
H776 H 0.36974 0.83561 0.07338 0.0
H777 H 0.39138 0.89327 0.05196 0.0
H778 H 0.24089 0.80208 0.19423 0.0
H779 H 0.2922 0.82661 0.25528 0.0
H780 H 0.29321 0.87555 0.01452 0.0
H781 H 0.3504 0.89273 0.00522 0.0
H782 H 0.29726 0.89807 0.96475 0.0
H783 H 0.3535 0.91501 0.95573 0.0
H784 H 0.26229 0.85958 0.03701 0.0
H785 H 0.27473 0.86305 0.15632 0.0
H786 H 0.23846 0.86769 0.05147 0.0
H787 H 0.25077 0.8712 0.16866 0.0
H788 H 0.23946 0.81068 0.97552 0.0
H789 H 0.29049 0.83715 0.9137 0.0
H790 H 0.35475 0.94053 0.061 0.0
H791 H 0.29873 0.92889 0.06145 0.0
Li792 Li 0.4711 0.31757 0.41621 0.0
Li793 Li 0.4492 0.2926 0.46008 0.0
Li794 Li 0.44808 0.28949 0.39235 0.0
Li795 Li 0.43924 0.31092 0.41848 0.0
C796 C 0.47326 0.28105 0.41358 0.0
N797 N 0.48233 0.25582 0.38663 0.0
C798 C 0.4699 0.26592 0.43566 0.0
C799 C 0.48166 0.28353 0.37813 0.0
C800 C 0.47448 0.25327 0.42148 0.0
C801 C 0.48601 0.27058 0.36488 0.0
C802 C 0.45112 0.32451 0.49159 0.0
C803 C 0.42677 0.31798 0.53581 0.0
N804 N 0.43775 0.33409 0.55372 0.0
C805 C 0.46214 0.34102 0.51035 0.0
C806 C 0.43327 0.31289 0.50431 0.0
C807 C 0.45513 0.34561 0.54174 0.0
C808 C 0.49861 0.3548 0.40964 0.0
N809 N 0.49555 0.33739 0.40971 0.0
C810 C 0.52663 0.34789 0.39246 0.0
C811 C 0.50919 0.33376 0.40205 0.0
C812 C 0.53011 0.36599 0.39088 0.0
C813 C 0.51586 0.36938 0.40013 0.0
H814 H 0.48749 0.3573 0.41587 0.0
H815 H 0.50644 0.31983 0.4024 0.0
C816 C 0.43709 0.26177 0.50836 0.0
N817 N 0.44631 0.28037 0.50812 0.0
C818 C 0.43548 0.25214 0.54183 0.0
C819 C 0.45242 0.28092 0.57471 0.0
C820 C 0.45403 0.29001 0.54041 0.0
C821 C 0.44316 0.26172 0.57562 0.0
H822 H 0.43147 0.25439 0.48221 0.0
H823 H 0.46166 0.30477 0.53956 0.0
C824 C 0.46504 0.32803 0.34932 0.0
N825 N 0.48765 0.35731 0.3033 0.0
C826 C 0.4626 0.3432 0.3467 0.0
C827 C 0.47876 0.32763 0.32775 0.0
C828 C 0.47421 0.35788 0.32346 0.0
C829 C 0.49012 0.3426 0.30491 0.0
C830 C 0.41261 0.27019 0.40889 0.0
C831 C 0.40851 0.27309 0.37195 0.0
C832 C 0.40197 0.25311 0.42598 0.0
C833 C 0.39404 0.25876 0.35248 0.0
C834 C 0.38759 0.23913 0.40559 0.0
N835 N 0.38398 0.24221 0.36955 0.0
C836 C 0.4363 0.25389 0.36278 0.0
C837 C 0.44475 0.27717 0.31655 0.0
C838 C 0.43249 0.24091 0.33445 0.0
N839 N 0.44246 0.27165 0.35337 0.0
C840 C 0.44116 0.26469 0.28735 0.0
C841 C 0.43505 0.2463 0.29615 0.0
H842 H 0.43448 0.24985 0.39233 0.0
H843 H 0.44929 0.29127 0.30981 0.0
C844 C 0.43239 0.34025 0.42486 0.0
N845 N 0.42431 0.32226 0.41549 0.0
C846 C 0.42313 0.34994 0.41968 0.0
C847 C 0.39703 0.32229 0.39671 0.0
C848 C 0.40681 0.31312 0.40236 0.0
C849 C 0.40527 0.34104 0.4049 0.0
H850 H 0.44636 0.34729 0.43493 0.0
H851 H 0.40047 0.29878 0.39568 0.0
O852 O 0.46862 0.29346 0.42688 0.0
O853 O 0.45775 0.31995 0.46059 0.0
O854 O 0.45407 0.31369 0.37273 0.0
O855 O 0.427 0.28396 0.42808 0.0
H856 H 0.46395 0.26398 0.46356 0.0
H857 H 0.48458 0.29519 0.36078 0.0
H858 H 0.47184 0.24146 0.43825 0.0
H859 H 0.49229 0.27225 0.33729 0.0
H860 H 0.41301 0.30912 0.546 0.0
H861 H 0.47595 0.35019 0.50068 0.0
H862 H 0.42451 0.3001 0.49006 0.0
H863 H 0.46351 0.35834 0.55656 0.0
H864 H 0.53711 0.34458 0.38522 0.0
H865 H 0.51797 0.38312 0.39983 0.0
H866 H 0.42819 0.23734 0.54134 0.0
H867 H 0.4587 0.28882 0.60009 0.0
H868 H 0.45188 0.34367 0.36234 0.0
H869 H 0.48075 0.31599 0.32881 0.0
H870 H 0.47252 0.36974 0.32146 0.0
H871 H 0.50091 0.34252 0.28848 0.0
H872 H 0.41663 0.28621 0.35822 0.0
H873 H 0.40468 0.25068 0.45476 0.0
H874 H 0.39086 0.26079 0.32376 0.0
H875 H 0.37929 0.22584 0.41845 0.0
H876 H 0.42791 0.22689 0.34247 0.0
H877 H 0.44299 0.26935 0.25818 0.0
H878 H 0.43018 0.36442 0.42598 0.0
H879 H 0.38317 0.31478 0.38594 0.0
Li880 Li 0.14947 0.46515 0.75285 0.0
Li881 Li 0.15604 0.44406 0.78818 0.0
Li882 Li 0.15782 0.44486 0.72102 0.0
Li883 Li 0.12788 0.43056 0.75038 0.0
C884 C 0.19013 0.46742 0.75821 0.0
N885 N 0.22473 0.47173 0.76471 0.0
C886 C 0.19256 0.45221 0.75646 0.0
C887 C 0.20534 0.48481 0.76324 0.0
C888 C 0.21014 0.45468 0.75981 0.0
C889 C 0.22271 0.48671 0.76647 0.0
C890 C 0.13388 0.45306 0.83095 0.0
C891 C 0.1213 0.44604 0.89429 0.0
N892 N 0.13282 0.46365 0.90473 0.0
C893 C 0.14542 0.47113 0.84221 0.0
C894 C 0.12156 0.44044 0.85709 0.0
C895 C 0.14475 0.4762 0.87966 0.0
C896 C 0.13553 0.48892 0.73875 0.0
N897 N 0.15068 0.48818 0.74897 0.0
C898 C 0.16874 0.52076 0.7485 0.0
C899 C 0.16707 0.50362 0.75401 0.0
C900 C 0.1534 0.52204 0.73753 0.0
C901 C 0.13658 0.50581 0.73284 0.0
H902 H 0.1227 0.47638 0.73459 0.0
H903 H 0.17891 0.5026 0.76178 0.0
C904 C 0.17002 0.42901 0.84623 0.0
N905 N 0.16882 0.44369 0.834 0.0
C906 C 0.18179 0.43081 0.87615 0.0
C907 C 0.19054 0.46262 0.88109 0.0
C908 C 0.17879 0.46025 0.851 0.0
C909 C 0.19255 0.4479 0.89362 0.0
H910 H 0.16254 0.41605 0.83197 0.0
H911 H 0.17824 0.47193 0.8401 0.0
C912 C 0.13682 0.44942 0.67094 0.0
N913 N 0.13721 0.45027 0.59254 0.0
C914 C 0.1291 0.43313 0.6503 0.0
C915 C 0.14457 0.46614 0.65179 0.0
C916 C 0.12949 0.43385 0.61065 0.0
C917 C 0.14466 0.46628 0.61211 0.0
C918 C 0.13952 0.40641 0.77238 0.0
C919 C 0.14539 0.39399 0.76404 0.0
C920 C 0.12652 0.40232 0.80087 0.0
C921 C 0.13819 0.37767 0.78456 0.0
C922 C 0.11963 0.38586 0.82073 0.0
N923 N 0.12557 0.37398 0.81225 0.0
C924 C 0.18047 0.45977 0.65737 0.0
C925 C 0.16735 0.42765 0.66311 0.0
C926 C 0.18781 0.45957 0.62202 0.0
N927 N 0.17015 0.44391 0.67664 0.0
C928 C 0.17474 0.42686 0.6281 0.0
C929 C 0.18477 0.44293 0.60682 0.0
H930 H 0.1824 0.47249 0.66891 0.0
H931 H 0.15892 0.41524 0.67896 0.0
C932 C 0.09022 0.41845 0.74466 0.0
N933 N 0.1028 0.41297 0.74107 0.0
C934 C 0.07243 0.40752 0.73087 0.0
C935 C 0.08068 0.38516 0.71136 0.0
C936 C 0.09832 0.39656 0.72532 0.0
C937 C 0.06757 0.3908 0.71301 0.0
H938 H 0.09429 0.43178 0.75643 0.0
H939 H 0.10867 0.3927 0.72187 0.0
O940 O 0.17299 0.46537 0.75576 0.0
O941 O 0.13431 0.44786 0.79432 0.0
O942 O 0.13709 0.44902 0.70973 0.0
O943 O 0.14646 0.42241 0.75245 0.0
H944 H 0.18104 0.43862 0.75274 0.0
H945 H 0.20377 0.49674 0.76484 0.0
H946 H 0.21218 0.44302 0.75858 0.0
H947 H 0.23458 0.50009 0.77044 0.0
H948 H 0.11188 0.4364 0.91483 0.0
H949 H 0.15498 0.48111 0.82242 0.0
H950 H 0.11219 0.42649 0.84879 0.0
H951 H 0.15374 0.49012 0.88881 0.0
H952 H 0.18204 0.53286 0.75187 0.0
H953 H 0.12437 0.50614 0.72473 0.0
H954 H 0.18302 0.4191 0.8843 0.0
H955 H 0.19828 0.47602 0.89383 0.0
H956 H 0.12316 0.42009 0.66474 0.0
H957 H 0.15066 0.47887 0.6674 0.0
H958 H 0.12372 0.42137 0.59428 0.0
H959 H 0.15072 0.47912 0.59687 0.0
H960 H 0.15546 0.39696 0.74203 0.0
H961 H 0.12176 0.41171 0.80739 0.0
H962 H 0.14264 0.36794 0.77848 0.0
H963 H 0.10956 0.38253 0.84286 0.0
H964 H 0.19562 0.47226 0.60653 0.0
H965 H 0.17206 0.41377 0.61713 0.0
H966 H 0.06293 0.41259 0.73235 0.0
H967 H 0.07754 0.37231 0.69835 0.0
Li968 Li 0.71117 0.15384 0.12618 0.0
Li969 Li 0.68538 0.14866 0.08458 0.0
Li970 Li 0.697 0.12599 0.08627 0.0
Li971 Li 0.71534 0.15707 0.06002 0.0
C972 C 0.67532 0.13355 0.15772 0.0
N973 N 0.65504 0.13528 0.21748 0.0
C974 C 0.67903 0.15048 0.17208 0.0
C975 C 0.66133 0.1175 0.17377 0.0
C976 C 0.66861 0.15107 0.2023 0.0
C977 C 0.65122 0.11866 0.20397 0.0
C978 C 0.71744 0.18848 0.07728 0.0
C979 C 0.71697 0.21239 0.04061 0.0
N980 N 0.73551 0.22246 0.04301 0.0
C981 C 0.73648 0.19912 0.07955 0.0
C982 C 0.70758 0.19519 0.05777 0.0
C983 C 0.74537 0.21624 0.06196 0.0
C984 C 0.73162 0.18212 0.17929 0.0
N985 N 0.72298 0.16369 0.17444 0.0
C986 C 0.73426 0.16017 0.23443 0.0
C987 C 0.72361 0.15264 0.20181 0.0
C988 C 0.744 0.17924 0.23934 0.0
C989 C 0.7422 0.19021 0.21163 0.0
H990 H 0.73064 0.19064 0.15764 0.0
H991 H 0.71631 0.13799 0.19777 0.0
C992 C 0.65192 0.13939 0.0497 0.0
N993 N 0.66384 0.15033 0.07675 0.0
C994 C 0.63717 0.14156 0.03897 0.0
C995 C 0.64654 0.16542 0.08592 0.0
C996 C 0.66126 0.16295 0.09537 0.0
C997 C 0.63445 0.15495 0.05666 0.0
H998 H 0.65423 0.12939 0.03545 0.0
H999 H 0.67098 0.17155 0.11667 0.0
C1000 C 0.73685 0.14512 0.11666 0.0
N1001 N 0.76385 0.14842 0.16586 0.0
C1002 C 0.75325 0.16171 0.11965 0.0
C1003 C 0.73423 0.13016 0.13847 0.0
C1004 C 0.7667 0.16312 0.14479 0.0
C1005 C 0.74805 0.13211 0.16319 0.0
C1006 C 0.69315 0.13623 0.00446 0.0
C1007 C 0.70274 0.128 0.99024 0.0
C1008 C 0.68622 0.14413 0.97938 0.0
C1009 C 0.70532 0.12786 0.95108 0.0
C1010 C 0.68905 0.14368 0.9404 0.0
N1011 N 0.69848 0.13564 0.92718 0.0
C1012 C 0.67155 0.08841 0.07563 0.0
C1013 C 0.7026 0.09649 0.06818 0.0
C1014 C 0.66577 0.07068 0.06268 0.0
N1015 N 0.68968 0.10094 0.07754 0.0
C1016 C 0.69744 0.07894 0.05523 0.0
C1017 C 0.6788 0.06586 0.05138 0.0
H1018 H 0.66157 0.09245 0.08248 0.0
H1019 H 0.71691 0.10682 0.06905 0.0
C1020 C 0.72782 0.17898 0.99285 0.0
N1021 N 0.73175 0.16943 0.01863 0.0
C1022 C 0.73886 0.18661 0.96097 0.0
C1023 C 0.7578 0.17438 0.98241 0.0
C1024 C 0.74643 0.16706 0.01405 0.0
C1025 C 0.75399 0.18421 0.95525 0.0
H1026 H 0.71576 0.1802 0.99637 0.0
H1027 H 0.74905 0.15909 0.03448 0.0
O1028 O 0.68531 0.13259 0.12816 0.0
O1029 O 0.70848 0.17166 0.09428 0.0
O1030 O 0.72337 0.14358 0.09277 0.0
O1031 O 0.69091 0.13692 0.04279 0.0
H1032 H 0.6898 0.16305 0.16001 0.0
H1033 H 0.65831 0.10428 0.16295 0.0
H1034 H 0.67132 0.16408 0.21366 0.0
H1035 H 0.64033 0.10634 0.21666 0.0
H1036 H 0.70951 0.2177 0.02526 0.0
H1037 H 0.74434 0.19415 0.09443 0.0
H1038 H 0.69287 0.18713 0.05543 0.0
H1039 H 0.76011 0.22456 0.06331 0.0
H1040 H 0.73502 0.15118 0.25539 0.0
H1041 H 0.74948 0.20496 0.21416 0.0
H1042 H 0.62845 0.13327 0.01601 0.0
H1043 H 0.64485 0.17563 0.10104 0.0
H1044 H 0.75553 0.17339 0.10289 0.0
H1045 H 0.72154 0.11728 0.13688 0.0
H1046 H 0.77941 0.17591 0.14757 0.0
H1047 H 0.74616 0.12069 0.18043 0.0
H1048 H 0.70843 0.12207 0.00926 0.0
H1049 H 0.67901 0.15082 0.9899 0.0
H1050 H 0.71283 0.12165 0.9397 0.0
H1051 H 0.68386 0.14982 0.92067 0.0
H1052 H 0.65126 0.06117 0.05976 0.0
H1053 H 0.70798 0.07581 0.04733 0.0
H1054 H 0.73522 0.19378 0.94036 0.0
H1055 H 0.76938 0.17228 0.97913 0.0
H1056 H 0.34693 0.37459 0.28327 0.0
H1057 H 0.36015 0.41579 0.36999 0.0
H1058 H 0.37607 0.40313 0.40704 0.0
H1059 H 0.33965 0.33744 0.34736 0.0
H1060 H 0.35013 0.32854 0.31579 0.0
H1061 H 0.3389 0.3402 0.29673 0.0
H1062 H 0.36857 0.36271 0.26094 0.0
H1063 H 0.37986 0.3511 0.27982 0.0
H1064 H 0.38961 0.37533 0.28712 0.0
H1065 H 0.39115 0.38666 0.43409 0.0
H1066 H 0.40536 0.36797 0.44856 0.0
H1067 H 0.38336 0.33781 0.34371 0.0
C1068 C 0.35303 0.38079 0.31024 0.0
C1069 C 0.35238 0.39622 0.32371 0.0
C1070 C 0.36068 0.4041 0.35894 0.0
C1071 C 0.36965 0.39693 0.3803 0.0
C1072 C 0.37026 0.38187 0.36611 0.0
C1073 C 0.36223 0.37388 0.33187 0.0
C1074 C 0.36561 0.35827 0.32249 0.0
C1075 C 0.34749 0.34003 0.32048 0.0
C1076 C 0.37656 0.36209 0.2854 0.0
C1077 C 0.37687 0.35886 0.35664 0.0
C1078 C 0.37925 0.37249 0.38155 0.0
C1079 C 0.3894 0.37594 0.41479 0.0
C1080 C 0.39752 0.36531 0.42265 0.0
C1081 C 0.39558 0.35143 0.39727 0.0
C1082 C 0.38493 0.34811 0.364 0.0
H1083 H 0.9605 0.35202 0.679 0.0
H1084 H 0.96624 0.32958 0.5724 0.0
H1085 H 0.99895 0.34144 0.58623 0.0
H1086 H 1.004 0.39302 0.67679 0.0
H1087 H 0.0079 0.39318 0.72715 0.0
H1088 H 0.98489 0.38276 0.70911 0.0
H1089 H 0.97701 0.35245 0.74297 0.0
H1090 H 1.0 0.36278 0.76115 0.0
H1091 H 0.99076 0.34199 0.73387 0.0
H1092 H 0.03109 0.35601 0.61128 0.0
H1093 H 0.0605 0.37273 0.64497 0.0
H1094 H 0.03374 0.38492 0.73646 0.0
C1095 C 0.96857 0.34943 0.6587 0.0
C1096 C 0.96075 0.33986 0.62453 0.0
C1097 C 0.97193 0.33706 0.5985 0.0
C1098 C 0.9905 0.34364 0.60624 0.0
C1099 C 0.99774 0.35299 0.64015 0.0
C1100 C 0.98713 0.3559 0.66596 0.0
C1101 C 0.99834 0.36659 0.70006 0.0
C1102 C 0.99881 0.38498 0.70345 0.0
C1103 C 0.9911 0.35527 0.73668 0.0
C1104 C 0.01694 0.36931 0.68931 0.0
C1105 C 0.01626 0.3613 0.65471 0.0
C1106 C 0.03175 0.36221 0.63855 0.0
C1107 C 0.0484 0.37163 0.65814 0.0
C1108 C 0.04951 0.38005 0.69367 0.0
C1109 C 0.03345 0.37875 0.70935 0.0
H1110 H 0.6139 0.95886 0.01068 0.0
H1111 H 0.64909 0.96547 0.91497 0.0
H1112 H 0.66914 0.9979 0.93202 0.0
H1113 H 0.61661 1.00203 1.00225 0.0
H1114 H 0.61675 0.0058 0.05266 0.0
H1115 H 0.60567 0.98285 0.03428 0.0
H1116 H 0.62561 0.97512 0.07791 0.0
H1117 H 0.63671 0.99804 0.09655 0.0
H1118 H 0.65017 0.98907 0.07594 0.0
H1119 H 0.68472 0.02978 0.95794 0.0
H1120 H 0.69464 0.05909 0.99031 0.0
H1121 H 0.64961 0.03191 0.07002 0.0
C1122 C 0.62599 0.96706 0.99368 0.0
C1123 C 0.62995 0.9596 0.96151 0.0
C1124 C 0.6457 0.9709 0.93954 0.0
C1125 C 0.65722 0.98932 0.94912 0.0
C1126 C 0.65282 0.99627 0.98076 0.0
C1127 C 0.6376 0.98551 1.00275 0.0
C1128 C 0.63562 0.99655 0.03446 0.0
C1129 C 0.6176 0.99682 0.03067 0.0
C1130 C 0.63712 0.98926 0.07353 0.0
C1131 C 0.65202 0.01523 0.02665 0.0
C1132 C 0.66181 0.01472 0.99569 0.0
C1133 C 0.67728 0.03032 0.98247 0.0
C1134 C 0.68288 0.04691 1.00127 0.0
C1135 C 0.67305 0.04787 0.03305 0.0
C1136 C 0.65742 0.03171 0.04582 0.0
H1137 H 0.66379 0.62897 0.28059 0.0
H1138 H 0.64139 0.58111 0.35346 0.0
H1139 H 0.62527 0.59333 0.39096 0.0
H1140 H 0.67047 0.66176 0.35544 0.0
H1141 H 0.66399 0.67497 0.32565 0.0
H1142 H 0.67437 0.66283 0.30493 0.0
H1143 H 0.64677 0.64605 0.25939 0.0
H1144 H 0.63635 0.65816 0.27988 0.0
H1145 H 0.62399 0.63354 0.27879 0.0
H1146 H 0.6106 0.60987 0.41917 0.0
H1147 H 0.59802 0.62979 0.43605 0.0
H1148 H 0.63004 0.66738 0.34612 0.0
C1149 C 0.65562 0.62116 0.30464 0.0
C1150 C 0.65369 0.60396 0.31377 0.0
C1151 C 0.64278 0.59412 0.34537 0.0
C1152 C 0.63369 0.60102 0.36709 0.0
C1153 C 0.63569 0.61788 0.35713 0.0
C1154 C 0.64639 0.62787 0.32672 0.0
C1155 C 0.64574 0.64539 0.3216 0.0
C1156 C 0.66478 0.66223 0.32725 0.0
C1157 C 0.63773 0.6458 0.2826 0.0
C1158 C 0.63286 0.64354 0.35359 0.0
C1159 C 0.62731 0.62758 0.37378 0.0
C1160 C 0.61492 0.62246 0.40373 0.0
C1161 C 0.6078 0.63382 0.41303 0.0
C1162 C 0.61308 0.65014 0.39251 0.0
C1163 C 0.62598 0.65514 0.36271 0.0
H1164 H 0.96096 0.61292 0.65746 0.0
H1165 H 0.9689 0.62414 0.77834 0.0
H1166 H 1.00218 0.64332 0.76788 0.0
H1167 H 1.00117 0.60956 0.64187 0.0
H1168 H 0.00611 0.62052 0.59603 0.0
H1169 H 0.98286 0.60801 0.61281 0.0
H1170 H 0.9796 0.63668 0.6034 0.0
H1171 H 1.00284 0.64928 0.58654 0.0
H1172 H 0.9957 0.65785 0.62596 0.0
H1173 H 0.03456 0.66009 0.74482 0.0
H1174 H 0.06391 0.67422 0.71086 0.0
H1175 H 0.0351 0.65317 0.60412 0.0
C1176 C 0.96971 0.61936 0.68176 0.0
C1177 C 0.96231 0.61703 0.71877 0.0
C1178 C 0.97421 0.62589 0.74971 0.0
C1179 C 0.99314 0.63673 0.74407 0.0
C1180 C 0.99997 0.63868 0.70728 0.0
C1181 C 0.98864 0.63033 0.6766 0.0
C1182 C 0.99952 0.63466 0.63998 0.0
C1183 C 0.99728 0.61714 0.6216 0.0
C1184 C 0.99409 0.64525 0.61234 0.0
C1185 C 0.01877 0.64662 0.65493 0.0
C1186 C 0.01869 0.64873 0.69382 0.0
C1187 C 0.03478 0.65876 0.71429 0.0
C1188 C 0.05143 0.66689 0.69455 0.0
C1189 C 0.05197 0.66516 0.65452 0.0
C1190 C 0.03529 0.65481 0.63462 0.0
H1191 H 0.35783 0.97058 0.07552 0.0
H1192 H 0.31111 0.9444 0.99988 0.0
H1193 H 0.32219 0.9735 0.96524 0.0
H1194 H 0.36007 0.01474 0.07964 0.0
H1195 H 0.38472 0.0274 0.08032 0.0
H1196 H 0.37261 0.00471 0.10011 0.0
H1197 H 0.39072 0.9948 0.05609 0.0
H1198 H 0.40281 0.01743 0.03603 0.0
H1199 H 0.39042 0.99791 0.00549 0.0
H1200 H 0.33941 0.00515 0.93645 0.0
H1201 H 0.36045 0.03736 0.91845 0.0
H1202 H 0.3958 0.04274 0.01293 0.0
C1203 C 0.34987 0.971 0.05182 0.0
C1204 C 0.33352 0.95523 0.0406 0.0
C1205 C 0.32349 0.95638 0.00947 0.0
C1206 C 0.32975 0.97281 0.98941 0.0
C1207 C 0.34603 0.98803 1.00091 0.0
C1208 C 0.35587 0.98732 0.03161 0.0
C1209 C 0.37305 0.00555 0.03791 0.0
C1210 C 0.37258 0.01357 0.0768 0.0
C1211 C 0.39026 0.00381 0.03361 0.0
C1212 C 0.37145 0.01659 0.00576 0.0
C1213 C 0.3558 0.00625 0.98464 0.0
C1214 C 0.35165 0.01341 0.95293 0.0
C1215 C 0.36372 0.03167 0.94277 0.0
C1216 C 0.37971 0.04259 0.96436 0.0
C1217 C 0.38355 0.03483 0.99618 0.0
H1218 H 0.19061 0.4243 0.95087 0.0
H1219 H 0.22664 0.47791 0.90247 0.0
H1220 H 0.24977 0.48331 0.9509 0.0
H1221 H 0.2023 0.43659 0.04854 0.0
H1222 H 0.20172 0.41564 0.06137 0.0
H1223 H 0.18767 0.41581 0.02304 0.0
H1224 H 0.2021 0.40236 0.97768 0.0
H1225 H 0.21616 0.4021 0.01591 0.0
H1226 H 0.22661 0.41389 0.97229 0.0
H1227 H 0.2688 0.4835 0.00518 0.0
H1228 H 0.28296 0.47814 0.06094 0.0
H1229 H 0.23589 0.42356 0.07253 0.0
C1230 C 0.2034 0.43713 0.95023 0.0
C1231 C 0.20657 0.45077 0.92296 0.0
C1232 C 0.22355 0.46739 0.92349 0.0
C1233 C 0.23691 0.47056 0.95075 0.0
C1234 C 0.23328 0.45694 0.97728 0.0
C1235 C 0.21702 0.4405 0.9772 0.0
C1236 C 0.21675 0.42815 0.00892 0.0
C1237 C 0.20118 0.4238 0.03713 0.0
C1238 C 0.21532 0.41058 0.99273 0.0
C1239 C 0.23535 0.4403 0.02688 0.0
C1240 C 0.2446 0.45683 0.00813 0.0
C1241 C 0.2618 0.4705 0.01981 0.0
C1242 C 0.26982 0.46722 0.05146 0.0
C1243 C 0.26079 0.45029 0.07118 0.0
C1244 C 0.24325 0.43668 0.05845 0.0
H1245 H 0.79465 0.25168 0.40627 0.0
H1246 H 0.82956 0.22788 0.42044 0.0
H1247 H 0.81227 0.20539 0.37051 0.0
H1248 H 0.75285 0.21012 0.3876 0.0
H1249 H 0.74509 0.22006 0.35202 0.0
H1250 H 0.75987 0.23407 0.38971 0.0
H1251 H 0.783 0.25632 0.34021 0.0
H1252 H 0.76826 0.24244 0.30237 0.0
H1253 H 0.7917 0.24756 0.30405 0.0
H1254 H 0.79103 0.18522 0.31911 0.0
H1255 H 0.76864 0.17015 0.26742 0.0
H1256 H 0.74839 0.20781 0.28458 0.0
C1257 C 0.79886 0.24191 0.39869 0.0
C1258 C 0.81348 0.24158 0.4178 0.0
C1259 C 0.81822 0.22828 0.40704 0.0
C1260 C 0.80854 0.21547 0.37846 0.0
C1261 C 0.79417 0.21614 0.36051 0.0
C1262 C 0.78944 0.22911 0.36995 0.0
C1263 C 0.7737 0.22711 0.34564 0.0
C1264 C 0.75688 0.22257 0.37022 0.0
C1265 C 0.77952 0.24438 0.32164 0.0
C1266 C 0.77035 0.21101 0.321 0.0
C1267 C 0.78221 0.20479 0.33026 0.0
C1268 C 0.78167 0.18998 0.31162 0.0
C1269 C 0.76882 0.18142 0.28247 0.0
C1270 C 0.75672 0.18775 0.27198 0.0
C1271 C 0.75752 0.20272 0.29175 0.0
H1272 H 0.57805 0.80678 0.7382 0.0
H1273 H 0.53119 0.81209 0.70577 0.0
H1274 H 0.52841 0.79557 0.64659 0.0
H1275 H 0.59713 0.811 0.64548 0.0
H1276 H 0.60347 0.79378 0.65307 0.0
H1277 H 0.60242 0.80672 0.69266 0.0
H1278 H 0.57977 0.77669 0.7271 0.0
H1279 H 0.58081 0.76366 0.68769 0.0
H1280 H 0.55904 0.76038 0.70338 0.0
H1281 H 0.53094 0.7791 0.58995 0.0
H1282 H 0.53723 0.76165 0.54192 0.0
H1283 H 0.58068 0.76451 0.61261 0.0
C1284 C 0.56706 0.80437 0.71898 0.0
C1285 C 0.55507 0.81119 0.72684 0.0
C1286 C 0.541 0.80767 0.70032 0.0
C1287 C 0.53916 0.79809 0.66659 0.0
C1288 C 0.55128 0.79176 0.65973 0.0
C1289 C 0.56482 0.79453 0.68534 0.0
C1290 C 0.57566 0.78573 0.67147 0.0
C1291 C 0.59587 0.80017 0.66531 0.0
C1292 C 0.57369 0.77072 0.69905 0.0
C1293 C 0.56613 0.77767 0.63401 0.0
C1294 C 0.55222 0.78149 0.62769 0.0
C1295 C 0.54174 0.77594 0.59467 0.0
C1296 C 0.54547 0.76613 0.56747 0.0
C1297 C 0.55943 0.76175 0.57353 0.0
C1298 C 0.56985 0.76758 0.60736 0.0
H1299 H 0.74894 0.54445 0.05215 0.0
H1300 H 0.78497 0.59809 0.10009 0.0
H1301 H 0.80807 0.6035 0.05143 0.0
H1302 H 0.78336 0.53353 0.0276 0.0
H1303 H 0.77292 0.52252 0.9834 0.0
H1304 H 0.75891 0.52269 0.0218 0.0
H1305 H 0.74538 0.53758 0.97785 0.0
H1306 H 0.75923 0.5373 0.93921 0.0
H1307 H 0.76058 0.55847 0.95318 0.0
H1308 H 0.82784 0.60281 0.99932 0.0
H1309 H 0.8423 0.59683 0.94472 0.0
H1310 H 0.79298 0.54445 0.92743 0.0
C1311 C 0.76157 0.55744 0.05217 0.0
C1312 C 0.76513 0.57074 0.08048 0.0
C1313 C 0.78199 0.58747 0.07944 0.0
C1314 C 0.7952 0.59075 0.0517 0.0
C1315 C 0.79138 0.57726 0.02475 0.0
C1316 C 0.77493 0.56101 0.02444 0.0
C1317 C 0.77432 0.54887 0.99202 0.0
C1318 C 0.77226 0.53084 0.00712 0.0
C1319 C 0.75897 0.54536 0.9639 0.0
C1320 C 0.79306 0.56079 0.97444 0.0
C1321 C 0.80266 0.57708 0.99389 0.0
C1322 C 0.82037 0.5902 0.98356 0.0
C1323 C 0.82843 0.58669 0.95226 0.0
C1324 C 0.8188 0.57024 0.93124 0.0
C1325 C 0.80086 0.55711 0.94286 0.0
H1326 H 0.18561 0.75493 0.38134 0.0
H1327 H 0.22124 0.73632 0.42755 0.0
H1328 H 0.24429 0.754 0.37888 0.0
H1329 H 0.19716 0.75455 0.28242 0.0
H1330 H 0.19662 0.77505 0.27056 0.0
H1331 H 0.1825 0.76052 0.30849 0.0
H1332 H 0.19689 0.78799 0.35478 0.0
H1333 H 0.21105 0.8026 0.317 0.0
H1334 H 0.22139 0.80081 0.36039 0.0
H1335 H 0.26385 0.774 0.32633 0.0
H1336 H 0.27857 0.79486 0.27239 0.0
H1337 H 0.23101 0.80153 0.26027 0.0
C1338 C 0.19826 0.75457 0.38126 0.0
C1339 C 0.20142 0.74396 0.40818 0.0
C1340 C 0.2182 0.74391 0.40684 0.0
C1341 C 0.2315 0.75406 0.37943 0.0
C1342 C 0.22794 0.76431 0.35342 0.0
C1343 C 0.21176 0.76467 0.35398 0.0
C1344 C 0.21156 0.77704 0.32283 0.0
C1345 C 0.19604 0.76613 0.29439 0.0
C1346 C 0.21014 0.79306 0.33977 0.0
C1347 C 0.23018 0.78357 0.30484 0.0
C1348 C 0.23937 0.77605 0.32304 0.0
C1349 C 0.25681 0.78003 0.31191 0.0
C1350 C 0.26513 0.79203 0.28136 0.0
C1351 C 0.25606 0.80001 0.26212 0.0
C1352 C 0.23828 0.7956 0.27412 0.0
H1353 H 0.4489 0.18836 0.71157 0.0
H1354 H 0.42834 0.20794 0.80221 0.0
H1355 H 0.4272 0.23012 0.75814 0.0
H1356 H 0.47713 0.23183 0.66589 0.0
H1357 H 0.47182 0.22272 0.61839 0.0
H1358 H 0.47126 0.2085 0.65713 0.0
H1359 H 0.43783 0.18453 0.64023 0.0
H1360 H 0.43829 0.19867 0.60143 0.0
H1361 H 0.42083 0.19147 0.6374 0.0
H1362 H 0.42922 0.25087 0.70493 0.0
H1363 H 0.43236 0.26744 0.64492 0.0
H1364 H 0.45024 0.23363 0.58763 0.0
C1365 C 0.4442 0.19736 0.72204 0.0
C1366 C 0.43867 0.19642 0.7603 0.0
C1367 C 0.43246 0.20831 0.77294 0.0
C1368 C 0.43185 0.22101 0.74817 0.0
C1369 C 0.43734 0.22158 0.71065 0.0
C1370 C 0.44324 0.20997 0.69748 0.0
C1371 C 0.44794 0.21314 0.65553 0.0
C1372 C 0.46825 0.21943 0.64886 0.0
C1373 C 0.43548 0.19593 0.63228 0.0
C1374 C 0.44387 0.2284 0.6473 0.0
C1375 C 0.43792 0.23316 0.6796 0.0
C1376 C 0.43377 0.2472 0.6794 0.0
C1377 C 0.43566 0.25658 0.64526 0.0
C1378 C 0.44146 0.25178 0.61164 0.0
C1379 C 0.44557 0.23746 0.6128 0.0
H1380 H 0.20486 0.42708 0.58529 0.0
H1381 H 0.18 0.45766 0.54195 0.0
H1382 H 0.19177 0.45743 0.47774 0.0
H1383 H 0.24572 0.45056 0.5316 0.0
H1384 H 0.24803 0.43073 0.52363 0.0
H1385 H 0.23641 0.43202 0.56535 0.0
H1386 H 0.20776 0.40131 0.54721 0.0
H1387 H 0.21931 0.39995 0.50536 0.0
H1388 H 0.1975 0.39886 0.50111 0.0
H1389 H 0.20704 0.45472 0.41889 0.0
H1390 H 0.22647 0.45156 0.37046 0.0
H1391 H 0.24198 0.42333 0.45242 0.0
C1392 C 0.20172 0.4335 0.5621 0.0
C1393 C 0.1915 0.44234 0.56835 0.0
C1394 C 0.1879 0.4509 0.53762 0.0
C1395 C 0.19441 0.45073 0.50109 0.0
C1396 C 0.20457 0.44202 0.49586 0.0
C1397 C 0.20831 0.43365 0.52554 0.0
C1398 C 0.22052 0.42626 0.5128 0.0
C1399 C 0.23875 0.43545 0.53464 0.0
C1400 C 0.21068 0.40535 0.51686 0.0
C1401 C 0.22324 0.43198 0.47146 0.0
C1402 C 0.21373 0.44082 0.46212 0.0
C1403 C 0.21445 0.44771 0.42578 0.0
C1404 C 0.22543 0.44575 0.39841 0.0
C1405 C 0.23566 0.43714 0.40766 0.0
C1406 C 0.23433 0.43 0.44458 0.0
H1407 H 0.80462 0.25551 0.78753 0.0
H1408 H 0.81621 0.21563 0.73653 0.0
H1409 H 0.80107 0.19473 0.79062 0.0
H1410 H 0.812 0.24741 0.88506 0.0
H1411 H 0.79364 0.25035 0.90311 0.0
H1412 H 0.80567 0.26223 0.86072 0.0
H1413 H 0.77499 0.2481 0.82396 0.0
H1414 H 0.76287 0.23619 0.86621 0.0
H1415 H 0.76036 0.22362 0.82315 0.0
H1416 H 0.78457 0.17821 0.85032 0.0
H1417 H 0.76689 0.1668 0.90985 0.0
H1418 H 0.76633 0.21767 0.92165 0.0
C1419 C 0.80414 0.24246 0.78793 0.0
C1420 C 0.81163 0.2372 0.7579 0.0
C1421 C 0.81042 0.21986 0.7591 0.0
C1422 C 0.80195 0.20796 0.78979 0.0
C1423 C 0.79473 0.21359 0.81894 0.0
C1424 C 0.79568 0.23041 0.81819 0.0
C1425 C 0.78647 0.23302 0.85257 0.0
C1426 C 0.80027 0.24921 0.87679 0.0
C1427 C 0.77021 0.23537 0.84075 0.0
C1428 C 0.78012 0.21502 0.87275 0.0
C1429 C 0.78511 0.20404 0.85304 0.0
C1430 C 0.78065 0.18672 0.86607 0.0
C1431 C 0.77071 0.1804 0.90001 0.0
C1432 C 0.76528 0.19136 0.92041 0.0
C1433 C 0.77017 0.20892 0.90654 0.0
H1434 H 0.57875 0.8164 0.10918 0.0
H1435 H 0.54246 0.77192 0.03475 0.0
H1436 H 0.53984 0.74968 0.0831 0.0
H1437 H 0.60198 0.79451 0.1504 0.0
H1438 H 0.60301 0.80353 0.19728 0.0
H1439 H 0.60277 0.8161 0.15614 0.0
H1440 H 0.57444 0.81668 0.1828 0.0
H1441 H 0.57459 0.8041 0.224 0.0
H1442 H 0.55427 0.79547 0.19524 0.0
H1443 H 0.5407 0.73219 0.1394 0.0
H1444 H 0.54454 0.72053 0.20094 0.0
H1445 H 0.5792 0.77616 0.2403 0.0
C1446 C 0.57016 0.802 0.10302 0.0
C1447 C 0.56096 0.79599 0.0678 0.0
C1448 C 0.55002 0.77695 0.06099 0.0
C1449 C 0.5483 0.76417 0.08845 0.0
C1450 C 0.5575 0.77058 0.12276 0.0
C1451 C 0.56816 0.78902 0.13026 0.0
C1452 C 0.57623 0.79224 0.16988 0.0
C1453 C 0.59725 0.80218 0.16831 0.0
C1454 C 0.56947 0.80274 0.19442 0.0
C1455 C 0.56838 0.77271 0.18348 0.0
C1456 C 0.5577 0.76045 0.15571 0.0
C1457 C 0.54907 0.74164 0.16135 0.0
C1458 C 0.55141 0.73516 0.19631 0.0
C1459 C 0.56223 0.74744 0.22531 0.0
C1460 C 0.57076 0.76647 0.21874 0.0
H1461 H 0.75302 0.54689 0.44092 0.0
H1462 H 0.78759 0.60193 0.39788 0.0
H1463 H 0.80949 0.60804 0.44997 0.0
H1464 H 0.75957 0.55901 0.53975 0.0
H1465 H 0.75943 0.53845 0.55416 0.0
H1466 H 0.74681 0.53827 0.51276 0.0
H1467 H 0.76422 0.52627 0.47214 0.0
H1468 H 0.7769 0.52642 0.51341 0.0
H1469 H 0.78887 0.53881 0.47137 0.0
H1470 H 0.82754 0.60817 0.50728 0.0
H1471 H 0.84003 0.60241 0.56592 0.0
H1472 H 0.79315 0.5476 0.57188 0.0
C1473 C 0.7651 0.5603 0.44255 0.0
C1474 C 0.76856 0.57391 0.41516 0.0
C1475 C 0.78473 0.59117 0.41812 0.0
C1476 C 0.79721 0.59482 0.44776 0.0
C1477 C 0.7933 0.5811 0.47429 0.0
C1478 C 0.77761 0.56421 0.472 0.0
C1479 C 0.77648 0.55187 0.50435 0.0
C1480 C 0.75957 0.5466 0.52922 0.0
C1481 C 0.77663 0.53484 0.48941 0.0
C1482 C 0.79398 0.56448 0.52529 0.0
C1483 C 0.80354 0.58125 0.50745 0.0
C1484 C 0.82018 0.59508 0.52148 0.0
C1485 C 0.82719 0.59166 0.55467 0.0
C1486 C 0.81754 0.57459 0.5735 0.0
C1487 C 0.80073 0.56088 0.55844 0.0
H1488 H 0.19994 0.7498 0.786 0.0
H1489 H 0.21239 0.79518 0.71015 0.0
H1490 H 0.23133 0.81679 0.76011 0.0
H1491 H 0.19578 0.77177 0.87123 0.0
H1492 H 0.20571 0.76176 0.90139 0.0
H1493 H 0.19321 0.74983 0.85949 0.0
H1494 H 0.22131 0.748 0.83569 0.0
H1495 H 0.23391 0.75997 0.87742 0.0
H1496 H 0.24307 0.7687 0.83094 0.0
H1497 H 0.25003 0.83342 0.81728 0.0
H1498 H 0.26591 0.84393 0.87902 0.0
H1499 H 0.23942 0.78791 0.91903 0.0
C1500 C 0.20635 0.76427 0.77993 0.0
C1501 C 0.20468 0.7707 0.74384 0.0
C1502 C 0.21369 0.78981 0.73716 0.0
C1503 C 0.22438 0.80224 0.7655 0.0
C1504 C 0.22575 0.79538 0.80057 0.0
C1505 C 0.21684 0.77685 0.80801 0.0
C1506 C 0.22052 0.77303 0.84813 0.0
C1507 C 0.20274 0.76354 0.87143 0.0
C1508 C 0.23029 0.76176 0.84801 0.0
C1509 C 0.23305 0.79231 0.86199 0.0
C1510 C 0.23597 0.805 0.83402 0.0
C1511 C 0.2477 0.82364 0.83951 0.0
C1512 C 0.25668 0.82947 0.87451 0.0
C1513 C 0.25373 0.81671 0.90361 0.0
C1514 C 0.24167 0.79792 0.89733 0.0
H1515 H 0.45531 0.21095 0.10232 0.0
H1516 H 0.40494 0.15961 0.12019 0.0
H1517 H 0.39985 0.17156 0.18012 0.0
H1518 H 0.46942 0.21943 0.19926 0.0
H1519 H 0.47841 0.24374 0.19608 0.0
H1520 H 0.4781 0.2311 0.15467 0.0
H1521 H 0.45976 0.2433 0.11792 0.0
H1522 H 0.46005 0.25601 0.1592 0.0
H1523 H 0.43858 0.24002 0.13748 0.0
H1524 H 0.40037 0.18914 0.23843 0.0
H1525 H 0.40621 0.21129 0.28994 0.0
H1526 H 0.45597 0.2511 0.23307 0.0
C1527 C 0.44309 0.20226 0.11856 0.0
C1528 C 0.43056 0.18431 0.10654 0.0
C1529 C 0.41489 0.17331 0.12906 0.0
C1530 C 0.41182 0.18001 0.16304 0.0
C1531 C 0.42449 0.19775 0.17406 0.0
C1532 C 0.43978 0.20874 0.15243 0.0
C1533 C 0.4513 0.2273 0.17056 0.0
C1534 C 0.47044 0.23057 0.18075 0.0
C1535 C 0.45248 0.24256 0.14475 0.0
C1536 C 0.44011 0.22503 0.20579 0.0
C1537 C 0.42471 0.20789 0.20738 0.0
C1538 C 0.41238 0.20261 0.23749 0.0
C1539 C 0.41586 0.21523 0.26669 0.0
C1540 C 0.43151 0.23292 0.26546 0.0
C1541 C 0.44376 0.23778 0.23456 0.0
H1542 H 0.40762 0.54406 0.28735 0.0
H1543 H 0.36546 0.54433 0.35741 0.0
H1544 H 0.38894 0.5718 0.39075 0.0
H1545 H 0.442 0.55824 0.3596 0.0
H1546 H 0.46069 0.57251 0.32838 0.0
H1547 H 0.44058 0.55294 0.3097 0.0
H1548 H 0.43647 0.57365 0.26103 0.0
H1549 H 0.45663 0.59326 0.27939 0.0
H1550 H 0.43526 0.5932 0.27764 0.0
H1551 H 0.41707 0.59851 0.41807 0.0
H1552 H 0.44768 0.62378 0.43486 0.0
H1553 H 0.47144 0.60703 0.34495 0.0
C1554 C 0.40336 0.54992 0.30972 0.0
C1555 C 0.38472 0.54211 0.31974 0.0
C1556 C 0.37964 0.55024 0.34895 0.0
C1557 C 0.39288 0.56576 0.36822 0.0
C1558 C 0.41114 0.57307 0.35779 0.0
C1559 C 0.41639 0.56554 0.329 0.0
C1560 C 0.43691 0.57625 0.32298 0.0
C1561 C 0.44555 0.56427 0.33063 0.0
C1562 C 0.44159 0.58459 0.28288 0.0
C1563 C 0.44237 0.59089 0.35306 0.0
C1564 C 0.42732 0.58874 0.37294 0.0
C1565 C 0.42895 0.60044 0.40244 0.0
C1566 C 0.44642 0.61485 0.41161 0.0
C1567 C 0.46208 0.61757 0.39116 0.0
C1568 C 0.45989 0.60529 0.36157 0.0
H1569 H 0.86841 0.46236 0.71046 0.0
H1570 H 0.81284 0.44977 0.68652 0.0
H1571 H 0.80609 0.42016 0.65919 0.0
H1572 H 0.8748 0.44339 0.62507 0.0
H1573 H 0.888 0.43452 0.64734 0.0
H1574 H 0.88831 0.45441 0.66663 0.0
H1575 H 0.87799 0.43839 0.73207 0.0
H1576 H 0.87775 0.41849 0.71303 0.0
H1577 H 0.85751 0.41635 0.73519 0.0
H1578 H 0.80563 0.39235 0.63246 0.0
H1579 H 0.81128 0.36792 0.60995 0.0
H1580 H 0.86717 0.39863 0.651 0.0
C1581 C 0.85482 0.45339 0.69947 0.0
C1582 C 0.84113 0.4584 0.70087 0.0
C1583 C 0.82347 0.44615 0.68645 0.0
C1584 C 0.81954 0.42934 0.67057 0.0
C1585 C 0.83339 0.42494 0.6693 0.0
C1586 C 0.85065 0.43656 0.68351 0.0
C1587 C 0.86314 0.42862 0.67834 0.0
C1588 C 0.87953 0.44097 0.65282 0.0
C1589 C 0.86946 0.42526 0.71696 0.0
C1590 C 0.85023 0.41079 0.65871 0.0
C1591 C 0.83314 0.40893 0.65382 0.0
C1592 C 0.81894 0.39362 0.63632 0.0
C1593 C 0.82227 0.37978 0.62375 0.0
C1594 C 0.83965 0.38132 0.62869 0.0
C1595 C 0.8538 0.39713 0.64632 0.0
H1596 H 0.45271 0.84064 0.95642 0.0
H1597 H 0.49659 0.89264 0.99714 0.0
H1598 H 0.47411 0.89807 0.03088 0.0
H1599 H 0.42031 0.85573 0.94027 0.0
H1600 H 0.40082 0.83457 0.95549 0.0
H1601 H 0.42041 0.83453 0.93535 0.0
H1602 H 0.423 0.81826 0.99548 0.0
H1603 H 0.40347 0.81834 0.0159 0.0
H1604 H 0.42481 0.82839 0.04147 0.0
H1605 H 0.44708 0.89794 0.06016 0.0
H1606 H 0.41701 0.89302 0.08059 0.0
H1607 H 0.39035 0.84145 0.01969 0.0
C1608 C 0.45755 0.85312 0.97258 0.0
C1609 C 0.47638 0.86629 0.97398 0.0
C1610 C 0.4822 0.88251 0.9952 0.0
C1611 C 0.46956 0.88565 0.01471 0.0
C1612 C 0.45111 0.87244 0.0127 0.0
C1613 C 0.44507 0.85654 0.99204 0.0
C1614 C 0.4244 0.84486 0.99368 0.0
C1615 C 0.41599 0.84228 0.95383 0.0
C1616 C 0.41858 0.82637 0.01278 0.0
C1617 C 0.4198 0.85671 0.01837 0.0
C1618 C 0.43543 0.87249 0.02922 0.0
C1619 C 0.43473 0.88567 0.05173 0.0
C1620 C 0.41756 0.88279 0.06303 0.0
C1621 C 0.40126 0.8669 0.05162 0.0
C1622 C 0.40251 0.85363 0.02931 0.0
H1623 H 0.60039 0.45808 0.28252 0.0
H1624 H 0.64426 0.4512 0.32892 0.0
H1625 H 0.62152 0.42254 0.35978 0.0
H1626 H 0.5716 0.44229 0.36417 0.0
H1627 H 0.55058 0.43073 0.3376 0.0
H1628 H 0.57023 0.45027 0.31744 0.0
H1629 H 0.56856 0.43112 0.25855 0.0
H1630 H 0.54882 0.41155 0.27842 0.0
H1631 H 0.5686 0.40996 0.26503 0.0
H1632 H 0.59409 0.39534 0.38805 0.0
H1633 H 0.56385 0.37091 0.4097 0.0
H1634 H 0.53776 0.39531 0.34469 0.0
C1635 C 0.60523 0.45054 0.29911 0.0
C1636 C 0.62416 0.45689 0.30307 0.0
C1637 C 0.62986 0.4465 0.32483 0.0
C1638 C 0.61704 0.43025 0.34275 0.0
C1639 C 0.59853 0.42452 0.33862 0.0
C1640 C 0.59261 0.43427 0.31716 0.0
C1641 C 0.57193 0.4252 0.31765 0.0
C1642 C 0.56573 0.43788 0.33527 0.0
C1643 C 0.56402 0.41909 0.27753 0.0
C1644 C 0.56717 0.40894 0.34308 0.0
C1645 C 0.58271 0.40879 0.35483 0.0
C1646 C 0.58181 0.39523 0.37878 0.0
C1647 C 0.56455 0.38136 0.39081 0.0
C1648 C 0.54838 0.38111 0.37887 0.0
C1649 C 0.54982 0.39518 0.35474 0.0
H1650 H 0.13955 0.59649 0.62386 0.0
H1651 H 0.17617 0.63653 0.70553 0.0
H1652 H 0.17865 0.61237 0.73978 0.0
H1653 H 0.11558 0.55927 0.6908 0.0
H1654 H 0.1138 0.54201 0.65824 0.0
H1655 H 0.11458 0.56238 0.64037 0.0
H1656 H 0.14242 0.56904 0.59827 0.0
H1657 H 0.1417 0.54867 0.61592 0.0
H1658 H 0.16244 0.57043 0.61991 0.0
H1659 H 0.17739 0.58406 0.76498 0.0
H1660 H 0.17311 0.55351 0.77859 0.0
H1661 H 0.13769 0.53176 0.68013 0.0
C1662 C 0.14798 0.60012 0.6491 0.0
C1663 C 0.15775 0.61842 0.66191 0.0
C1664 C 0.16878 0.62266 0.69486 0.0
C1665 C 0.17018 0.60901 0.71467 0.0
C1666 C 0.16046 0.59115 0.70122 0.0
C1667 C 0.14961 0.58666 0.66916 0.0
C1668 C 0.14096 0.56645 0.66028 0.0
C1669 C 0.11998 0.55697 0.66257 0.0
C1670 C 0.14726 0.56348 0.62128 0.0
C1671 C 0.1487 0.56034 0.69229 0.0
C1672 C 0.15984 0.5748 0.71564 0.0
C1673 C 0.16872 0.57263 0.74685 0.0
C1674 C 0.16628 0.55523 0.75422 0.0
C1675 C 0.15511 0.54021 0.7304 0.0
C1676 C 0.14612 0.54287 0.69919 0.0
H1677 H 0.60001 0.13014 0.02961 0.0
H1678 H 0.63545 0.18799 0.05271 0.0
H1679 H 0.61153 0.19412 0.02941 0.0
H1680 H 0.58211 0.13657 0.94167 0.0
H1681 H 0.55952 0.11734 0.94921 0.0
H1682 H 0.57913 0.1173 0.96936 0.0
H1683 H 0.5645 0.11182 0.03626 0.0
H1684 H 0.54485 0.11183 0.01632 0.0
H1685 H 0.55747 0.12734 0.05429 0.0
H1686 H 0.58366 0.19403 1.00378 0.0
H1687 H 0.55406 0.18775 0.97743 0.0
H1688 H 0.53786 0.13039 0.96572 0.0
C1689 C 0.60287 0.14414 0.0296 0.0
C1690 C 0.61969 0.15853 0.04345 0.0
C1691 C 0.6226 0.1766 0.04321 0.0
C1692 C 0.60914 0.18028 0.02965 0.0
C1693 C 0.59284 0.16581 0.01601 0.0
C1694 C 0.58968 0.14811 0.01573 0.0
C1695 C 0.57112 0.13507 0.99884 0.0
C1696 C 0.5731 0.12604 0.96261 0.0
C1697 C 0.55876 0.12067 0.02819 0.0
C1698 C 0.56432 0.14821 0.98981 0.0
C1699 C 0.57703 0.16585 1.00004 0.0
C1700 C 0.57367 0.18029 0.99528 0.0
C1701 C 0.55682 0.17658 0.97988 0.0
C1702 C 0.54351 0.15857 0.96902 0.0
C1703 C 0.54753 0.14428 0.97393 0.0
loop_
_geom_bond_atom_site_label_1
_geom_bond_atom_site_label_2
_geom_bond_distance
_geom_bond_site_symmetry_2
_ccdc_geom_bond_type
Li0 N17 1.990 . S
Li0 O60 1.956 . S
Li0 O61 1.970 . S
Li0 O62 1.961 . S
Li1 N25 1.990 . S
Li1 O60 1.970 . S
Li1 O61 1.956 . S
Li1 O63 1.961 . S
Li2 N47 1.990 . S
Li2 O60 1.961 . S
Li2 O62 1.956 . S
Li2 O63 1.970 . S
Li3 N53 1.990 . S
Li3 O61 1.961 . S
Li3 O62 1.970 . S
Li3 O63 1.956 . S
C4 C6 1.348 . S
C4 C7 1.356 . S
C4 O60 1.325 . S
N5 C8 1.314 . S
N5 C9 1.279 . S
C6 C4 1.348 . S
C6 C8 1.353 . S
C6 H64 0.929 . S
C7 C4 1.356 . S
C7 C9 1.358 . S
C7 H65 0.930 . S
C8 N5 1.314 . S
C8 C6 1.353 . S
C8 H66 0.930 . S
C9 N5 1.279 . S
C9 C7 1.358 . S
C9 H67 0.930 . S
C10 C13 1.348 . S
C10 C14 1.356 . S
C10 O61 1.325 . S
C11 N12 1.279 . S
C11 C14 1.358 . S
C11 H68 0.930 . S
N12 C11 1.279 . S
N12 C15 1.314 . S
C13 C10 1.348 . S
C13 C15 1.353 . S
C13 H69 0.929 . S
C14 C10 1.356 . S
C14 C11 1.358 . S
C14 H70 0.930 . S
C15 N12 1.314 . S
C15 C13 1.353 . S
C15 H71 0.930 . S
C16 N17 1.314 . S
C16 C21 1.353 . S
C16 H22 0.930 . S
N17 Li0 1.990 . S
N17 C16 1.314 . S
N17 C19 1.279 . S
C18 C19 1.358 . S
C18 C20 1.356 . S
C18 H72 0.930 . S
C19 N17 1.279 . S
C19 C18 1.358 . S
C19 H23 0.930 . S
C20 C18 1.356 . S
C20 C21 1.348 . S
C21 C16 1.353 . S
C21 C20 1.348 . S
C21 H73 0.929 . S
H22 C16 0.930 . S
H23 C19 0.930 . S
C24 N25 1.314 . S
C24 C26 1.353 . S
C24 H30 0.930 . S
N25 Li1 1.990 . S
N25 C24 1.314 . S
N25 C28 1.279 . S
C26 C24 1.353 . S
C26 C29 1.348 . S
C26 H74 0.929 . S
C27 C28 1.358 . S
C27 C29 1.356 . S
C27 H75 0.930 . S
C28 N25 1.279 . S
C28 C27 1.358 . S
C28 H31 0.930 . S
C29 C26 1.348 . S
C29 C27 1.356 . S
H30 C24 0.930 . S
H31 C28 0.930 . S
C32 C34 1.348 . S
C32 C35 1.356 . S
C32 O62 1.325 . S
N33 C36 1.314 . S
N33 C37 1.279 . S
C34 C32 1.348 . S
C34 C36 1.353 . S
C34 H76 0.929 . S
C35 C32 1.356 . S
C35 C37 1.358 . S
C35 H77 0.930 . S
C36 N33 1.314 . S
C36 C34 1.353 . S
C36 H78 0.930 . S
C37 N33 1.279 . S
C37 C35 1.358 . S
C37 H79 0.930 . S
C38 C39 1.348 . S
C38 C40 1.356 . S
C38 O63 1.325 . S
C39 C38 1.348 . S
C39 C41 1.353 . S
C39 H80 0.929 . S
C40 C38 1.356 . S
C40 C42 1.358 . S
C40 H81 0.930 . S
C41 C39 1.353 . S
C41 N43 1.314 . S
C41 H82 0.930 . S
C42 C40 1.358 . S
C42 N43 1.279 . S
C42 H83 0.930 . S
N43 C41 1.314 . S
N43 C42 1.279 . S
C44 C46 1.353 . S
C44 N47 1.314 . S
C44 H50 0.930 . S
C45 N47 1.279 . S
C45 C48 1.358 . S
C45 H51 0.930 . S
C46 C44 1.353 . S
C46 C49 1.348 . S
C46 H84 0.929 . S
N47 Li2 1.990 . S
N47 C44 1.314 . S
N47 C45 1.279 . S
C48 C45 1.358 . S
C48 C49 1.356 . S
C48 H85 0.930 . S
C49 C46 1.348 . S
C49 C48 1.356 . S
H50 C44 0.930 . S
H51 C45 0.930 . S
C52 N53 1.314 . S
C52 C54 1.353 . S
C52 H58 0.930 . S
N53 Li3 1.990 . S
N53 C52 1.314 . S
N53 C56 1.279 . S
C54 C52 1.353 . S
C54 C57 1.348 . S
C54 H86 0.929 . S
C55 C56 1.358 . S
C55 C57 1.356 . S
C55 H87 0.930 . S
C56 N53 1.279 . S
C56 C55 1.358 . S
C56 H59 0.930 . S
C57 C54 1.348 . S
C57 C55 1.356 . S
H58 C52 0.930 . S
H59 C56 0.930 . S
O60 Li0 1.956 . S
O60 Li1 1.970 . S
O60 Li2 1.961 . S
O60 C4 1.325 . S
O61 Li0 1.970 . S
O61 Li1 1.956 . S
O61 Li3 1.961 . S
O61 C10 1.325 . S
O62 Li0 1.961 . S
O62 Li2 1.956 . S
O62 Li3 1.970 . S
O62 C32 1.325 . S
O63 Li1 1.961 . S
O63 Li2 1.970 . S
O63 Li3 1.956 . S
O63 C38 1.325 . S
H64 C6 0.929 . S
H65 C7 0.930 . S
H66 C8 0.930 . S
H67 C9 0.930 . S
H68 C11 0.930 . S
H69 C13 0.929 . S
H70 C14 0.930 . S
H71 C15 0.930 . S
H72 C18 0.930 . S
H73 C21 0.929 . S
H74 C26 0.929 . S
H75 C27 0.930 . S
H76 C34 0.929 . S
H77 C35 0.930 . S
H78 C36 0.930 . S
H79 C37 0.930 . S
H80 C39 0.929 . S
H81 C40 0.930 . S
H82 C41 0.930 . S
H83 C42 0.930 . S
H84 C46 0.929 . S
H85 C48 0.930 . S
H86 C54 0.929 . S
H87 C55 0.930 . S
Li88 N105 1.990 . S
Li88 O148 1.956 . S
Li88 O149 1.970 . S
Li88 O150 1.961 . S
Li89 N113 1.990 . S
Li89 O148 1.970 . S
Li89 O149 1.956 . S
Li89 O151 1.961 . S
Li90 N135 1.990 . S
Li90 O148 1.961 . S
Li90 O150 1.956 . S
Li90 O151 1.970 . S
Li91 N141 1.990 . S
Li91 O149 1.961 . S
Li91 O150 1.970 . S
Li91 O151 1.956 . S
C92 C94 1.348 . S
C92 C95 1.356 . S
C92 O148 1.325 . S
N93 C96 1.314 . S
N93 C97 1.279 . S
C94 C92 1.348 . S
C94 C96 1.353 . S
C94 H152 0.929 . S
C95 C92 1.356 . S
C95 C97 1.358 . S
C95 H153 0.930 . S
C96 N93 1.314 . S
C96 C94 1.353 . S
C96 H154 0.930 . S
C97 N93 1.279 . S
C97 C95 1.358 . S
C97 H155 0.930 . S
C98 C101 1.348 . S
C98 C102 1.356 . S
C98 O149 1.325 . S
C99 N100 1.279 . S
C99 C102 1.358 . S
C99 H156 0.930 . S
N100 C99 1.279 . S
N100 C103 1.314 . S
C101 C98 1.348 . S
C101 C103 1.353 . S
C101 H157 0.929 . S
C102 C98 1.356 . S
C102 C99 1.358 . S
C102 H158 0.930 . S
C103 N100 1.314 . S
C103 C101 1.353 . S
C103 H159 0.930 . S
C104 N105 1.314 . S
C104 C109 1.353 . S
C104 H110 0.930 . S
N105 Li88 1.990 . S
N105 C104 1.314 . S
N105 C107 1.279 . S
C106 C107 1.358 . S
C106 C108 1.356 . S
C106 H160 0.930 . S
C107 N105 1.279 . S
C107 C106 1.358 . S
C107 H111 0.930 . S
C108 C106 1.356 . S
C108 C109 1.348 . S
C109 C104 1.353 . S
C109 C108 1.348 . S
C109 H161 0.929 . S
H110 C104 0.930 . S
H111 C107 0.930 . S
C112 N113 1.314 . S
C112 C114 1.353 . S
C112 H118 0.930 . S
N113 Li89 1.990 . S
N113 C112 1.314 . S
N113 C116 1.279 . S
C114 C112 1.353 . S
C114 C117 1.348 . S
C114 H162 0.929 . S
C115 C116 1.358 . S
C115 C117 1.356 . S
C115 H163 0.930 . S
C116 N113 1.279 . S
C116 C115 1.358 . S
C116 H119 0.930 . S
C117 C114 1.348 . S
C117 C115 1.356 . S
H118 C112 0.930 . S
H119 C116 0.930 . S
C120 C122 1.348 . S
C120 C123 1.356 . S
C120 O150 1.325 . S
N121 C124 1.314 . S
N121 C125 1.279 . S
C122 C120 1.348 . S
C122 C124 1.353 . S
C122 H164 0.929 . S
C123 C120 1.356 . S
C123 C125 1.358 . S
C123 H165 0.930 . S
C124 N121 1.314 . S
C124 C122 1.353 . S
C124 H166 0.930 . S
C125 N121 1.279 . S
C125 C123 1.358 . S
C125 H167 0.930 . S
C126 C127 1.348 . S
C126 C128 1.356 . S
C126 O151 1.325 . S
C127 C126 1.348 . S
C127 C129 1.353 . S
C127 H168 0.929 . S
C128 C126 1.356 . S
C128 C130 1.358 . S
C128 H169 0.930 . S
C129 C127 1.353 . S
C129 N131 1.314 . S
C129 H170 0.930 . S
C130 C128 1.358 . S
C130 N131 1.279 . S
C130 H171 0.930 . S
N131 C129 1.314 . S
N131 C130 1.279 . S
C132 C134 1.353 . S
C132 N135 1.314 . S
C132 H138 0.930 . S
C133 N135 1.279 . S
C133 C136 1.358 . S
C133 H139 0.930 . S
C134 C132 1.353 . S
C134 C137 1.348 . S
C134 H172 0.929 . S
N135 Li90 1.990 . S
N135 C132 1.314 . S
N135 C133 1.279 . S
C136 C133 1.358 . S
C136 C137 1.356 . S
C136 H173 0.930 . S
C137 C134 1.348 . S
C137 C136 1.356 . S
H138 C132 0.930 . S
H139 C133 0.930 . S
C140 N141 1.314 . S
C140 C142 1.353 . S
C140 H146 0.930 . S
N141 Li91 1.990 . S
N141 C140 1.314 . S
N141 C144 1.279 . S
C142 C140 1.353 . S
C142 C145 1.348 . S
C142 H174 0.929 . S
C143 C144 1.358 . S
C143 C145 1.356 . S
C143 H175 0.930 . S
C144 N141 1.279 . S
C144 C143 1.358 . S
C144 H147 0.930 . S
C145 C142 1.348 . S
C145 C143 1.356 . S
H146 C140 0.930 . S
H147 C144 0.930 . S
O148 Li88 1.956 . S
O148 Li89 1.970 . S
O148 Li90 1.961 . S
O148 C92 1.325 . S
O149 Li88 1.970 . S
O149 Li89 1.956 . S
O149 Li91 1.961 . S
O149 C98 1.325 . S
O150 Li88 1.961 . S
O150 Li90 1.956 . S
O150 Li91 1.970 . S
O150 C120 1.325 . S
O151 Li89 1.961 . S
O151 Li90 1.970 . S
O151 Li91 1.956 . S
O151 C126 1.325 . S
H152 C94 0.929 . S
H153 C95 0.930 . S
H154 C96 0.930 . S
H155 C97 0.930 . S
H156 C99 0.930 . S
H157 C101 0.929 . S
H158 C102 0.930 . S
H159 C103 0.930 . S
H160 C106 0.930 . S
H161 C109 0.929 . S
H162 C114 0.929 . S
H163 C115 0.930 . S
H164 C122 0.929 . S
H165 C123 0.930 . S
H166 C124 0.930 . S
H167 C125 0.930 . S
H168 C127 0.929 . S
H169 C128 0.930 . S
H170 C129 0.930 . S
H171 C130 0.930 . S
H172 C134 0.929 . S
H173 C136 0.930 . S
H174 C142 0.929 . S
H175 C143 0.930 . S
Li176 N193 1.990 . S
Li176 O236 1.956 . S
Li176 O237 1.970 . S
Li176 O238 1.961 . S
Li177 N201 1.990 1_556 S
Li177 O236 1.970 . S
Li177 O237 1.956 . S
Li177 O239 1.961 . S
Li178 N223 1.990 . S
Li178 O236 1.961 . S
Li178 O238 1.956 . S
Li178 O239 1.970 . S
Li179 N229 1.990 . S
Li179 O237 1.961 . S
Li179 O238 1.970 . S
Li179 O239 1.956 . S
C180 C182 1.348 . S
C180 C183 1.356 . S
C180 O236 1.325 . S
N181 C184 1.314 . S
N181 C185 1.279 . S
C182 C180 1.348 . S
C182 C184 1.353 . S
C182 H240 0.929 . S
C183 C180 1.356 . S
C183 C185 1.358 . S
C183 H241 0.930 . S
C184 N181 1.314 . S
C184 C182 1.353 . S
C184 H242 0.930 . S
C185 N181 1.279 . S
C185 C183 1.358 . S
C185 H243 0.930 . S
C186 C189 1.348 . S
C186 C190 1.356 . S
C186 O237 1.325 1_554 S
C187 N188 1.279 . S
C187 C190 1.358 . S
C187 H244 0.930 . S
N188 C187 1.279 . S
N188 C191 1.314 . S
C189 C186 1.348 . S
C189 C191 1.353 . S
C189 H245 0.929 . S
C190 C186 1.356 . S
C190 C187 1.358 . S
C190 H246 0.930 . S
C191 N188 1.314 . S
C191 C189 1.353 . S
C191 H247 0.930 . S
C192 N193 1.314 . S
C192 C197 1.353 . S
C192 H198 0.930 . S
N193 Li176 1.990 . S
N193 C192 1.314 . S
N193 C195 1.279 . S
C194 C195 1.358 . S
C194 C196 1.356 . S
C194 H248 0.930 . S
C195 N193 1.279 . S
C195 C194 1.358 . S
C195 H199 0.930 . S
C196 C194 1.356 . S
C196 C197 1.348 . S
C197 C192 1.353 . S
C197 C196 1.348 . S
C197 H249 0.929 . S
H198 C192 0.930 . S
H199 C195 0.930 . S
C200 N201 1.314 . S
C200 C202 1.353 . S
C200 H206 0.930 1_554 S
N201 Li177 1.990 1_554 S
N201 C200 1.314 . S
N201 C204 1.279 . S
C202 C200 1.353 . S
C202 C205 1.348 . S
C202 H250 0.929 . S
C203 C204 1.358 . S
C203 C205 1.356 . S
C203 H251 0.930 . S
C204 N201 1.279 . S
C204 C203 1.358 . S
C204 H207 0.930 . S
C205 C202 1.348 . S
C205 C203 1.356 . S
H206 C200 0.930 1_556 S
H207 C204 0.930 . S
C208 C210 1.348 . S
C208 C211 1.356 . S
C208 O238 1.325 . S
N209 C212 1.314 . S
N209 C213 1.279 . S
C210 C208 1.348 . S
C210 C212 1.353 . S
C210 H252 0.929 . S
C211 C208 1.356 . S
C211 C213 1.358 . S
C211 H253 0.930 . S
C212 N209 1.314 . S
C212 C210 1.353 . S
C212 H254 0.930 . S
C213 N209 1.279 . S
C213 C211 1.358 . S
C213 H255 0.930 . S
C214 C215 1.348 . S
C214 C216 1.356 . S
C214 O239 1.325 . S
C215 C214 1.348 . S
C215 C217 1.353 . S
C215 H256 0.929 . S
C216 C214 1.356 . S
C216 C218 1.358 . S
C216 H257 0.930 . S
C217 C215 1.353 . S
C217 N219 1.314 . S
C217 H258 0.930 . S
C218 C216 1.358 . S
C218 N219 1.279 . S
C218 H259 0.930 . S
N219 C217 1.314 . S
N219 C218 1.279 . S
C220 C222 1.353 . S
C220 N223 1.314 . S
C220 H226 0.930 . S
C221 N223 1.279 . S
C221 C224 1.358 . S
C221 H227 0.930 . S
C222 C220 1.353 . S
C222 C225 1.348 . S
C222 H260 0.929 . S
N223 Li178 1.990 . S
N223 C220 1.314 . S
N223 C221 1.279 . S
C224 C221 1.358 . S
C224 C225 1.356 . S
C224 H261 0.930 . S
C225 C222 1.348 . S
C225 C224 1.356 . S
H226 C220 0.930 . S
H227 C221 0.930 . S
C228 N229 1.314 . S
C228 C230 1.353 . S
C228 H234 0.930 . S
N229 Li179 1.990 . S
N229 C228 1.314 . S
N229 C232 1.279 . S
C230 C228 1.353 . S
C230 C233 1.348 . S
C230 H262 0.929 . S
C231 C232 1.358 . S
C231 C233 1.356 . S
C231 H263 0.930 . S
C232 N229 1.279 . S
C232 C231 1.358 . S
C232 H235 0.930 . S
C233 C230 1.348 . S
C233 C231 1.356 . S
H234 C228 0.930 . S
H235 C232 0.930 . S
O236 Li176 1.956 . S
O236 Li177 1.970 . S
O236 Li178 1.961 . S
O236 C180 1.325 . S
O237 Li176 1.970 . S
O237 Li177 1.956 . S
O237 Li179 1.961 . S
O237 C186 1.325 1_556 S
O238 Li176 1.961 . S
O238 Li178 1.956 . S
O238 Li179 1.970 . S
O238 C208 1.325 . S
O239 Li177 1.961 . S
O239 Li178 1.970 . S
O239 Li179 1.956 . S
O239 C214 1.325 . S
H240 C182 0.929 . S
H241 C183 0.930 . S
H242 C184 0.930 . S
H243 C185 0.930 . S
H244 C187 0.930 . S
H245 C189 0.929 . S
H246 C190 0.930 . S
H247 C191 0.930 . S
H248 C194 0.930 . S
H249 C197 0.929 . S
H250 C202 0.929 . S
H251 C203 0.930 . S
H252 C210 0.929 . S
H253 C211 0.930 . S
H254 C212 0.930 . S
H255 C213 0.930 . S
H256 C215 0.929 . S
H257 C216 0.930 . S
H258 C217 0.930 . S
H259 C218 0.930 . S
H260 C222 0.929 . S
H261 C224 0.930 . S
H262 C230 0.929 . S
H263 C231 0.930 . S
Li264 N281 1.990 . S
Li264 O324 1.956 . S
Li264 O325 1.970 . S
Li264 O326 1.961 . S
Li265 N289 1.990 . S
Li265 O324 1.970 . S
Li265 O325 1.956 . S
Li265 O327 1.961 . S
Li266 N311 1.990 . S
Li266 O324 1.961 . S
Li266 O326 1.956 . S
Li266 O327 1.970 . S
Li267 N317 1.990 . S
Li267 O325 1.961 . S
Li267 O326 1.970 . S
Li267 O327 1.956 . S
C268 C270 1.348 . S
C268 C271 1.356 . S
C268 O324 1.325 . S
N269 C272 1.314 . S
N269 C273 1.279 . S
C270 C268 1.348 . S
C270 C272 1.353 . S
C270 H328 0.929 . S
C271 C268 1.356 . S
C271 C273 1.358 . S
C271 H329 0.930 . S
C272 N269 1.314 . S
C272 C270 1.353 . S
C272 H330 0.930 . S
C273 N269 1.279 . S
C273 C271 1.358 . S
C273 H331 0.930 . S
C274 C277 1.348 . S
C274 C278 1.356 . S
C274 O325 1.325 . S
C275 N276 1.279 . S
C275 C278 1.358 . S
C275 H332 0.930 . S
N276 C275 1.279 . S
N276 C279 1.314 . S
C277 C274 1.348 . S
C277 C279 1.353 . S
C277 H333 0.929 . S
C278 C274 1.356 . S
C278 C275 1.358 . S
C278 H334 0.930 . S
C279 N276 1.314 . S
C279 C277 1.353 . S
C279 H335 0.930 . S
C280 N281 1.314 . S
C280 C285 1.353 . S
C280 H286 0.930 . S
N281 Li264 1.990 . S
N281 C280 1.314 . S
N281 C283 1.279 . S
C282 C283 1.358 . S
C282 C284 1.356 . S
C282 H336 0.930 . S
C283 N281 1.279 . S
C283 C282 1.358 . S
C283 H287 0.930 . S
C284 C282 1.356 . S
C284 C285 1.348 . S
C285 C280 1.353 . S
C285 C284 1.348 . S
C285 H337 0.929 . S
H286 C280 0.930 . S
H287 C283 0.930 . S
C288 N289 1.314 . S
C288 C290 1.353 . S
C288 H294 0.930 . S
N289 Li265 1.990 . S
N289 C288 1.314 . S
N289 C292 1.279 . S
C290 C288 1.353 . S
C290 C293 1.348 . S
C290 H338 0.929 . S
C291 C292 1.358 . S
C291 C293 1.356 . S
C291 H339 0.930 . S
C292 N289 1.279 . S
C292 C291 1.358 . S
C292 H295 0.930 . S
C293 C290 1.348 . S
C293 C291 1.356 . S
H294 C288 0.930 . S
H295 C292 0.930 . S
C296 C298 1.348 . S
C296 C299 1.356 . S
C296 O326 1.325 . S
N297 C300 1.314 . S
N297 C301 1.279 . S
C298 C296 1.348 . S
C298 C300 1.353 . S
C298 H340 0.929 . S
C299 C296 1.356 . S
C299 C301 1.358 . S
C299 H341 0.930 . S
C300 N297 1.314 . S
C300 C298 1.353 . S
C300 H342 0.930 . S
C301 N297 1.279 . S
C301 C299 1.358 . S
C301 H343 0.930 . S
C302 C303 1.348 . S
C302 C304 1.356 . S
C302 O327 1.325 . S
C303 C302 1.348 . S
C303 C305 1.353 . S
C303 H344 0.929 . S
C304 C302 1.356 . S
C304 C306 1.358 . S
C304 H345 0.930 . S
C305 C303 1.353 . S
C305 N307 1.314 . S
C305 H346 0.930 . S
C306 C304 1.358 . S
C306 N307 1.279 . S
C306 H347 0.930 . S
N307 C305 1.314 . S
N307 C306 1.279 . S
C308 C310 1.353 . S
C308 N311 1.314 . S
C308 H314 0.930 . S
C309 N311 1.279 . S
C309 C312 1.358 . S
C309 H315 0.930 . S
C310 C308 1.353 . S
C310 C313 1.348 . S
C310 H348 0.929 . S
N311 Li266 1.990 . S
N311 C308 1.314 . S
N311 C309 1.279 . S
C312 C309 1.358 . S
C312 C313 1.356 . S
C312 H349 0.930 . S
C313 C310 1.348 . S
C313 C312 1.356 . S
H314 C308 0.930 . S
H315 C309 0.930 . S
C316 N317 1.314 . S
C316 C318 1.353 . S
C316 H322 0.930 . S
N317 Li267 1.990 . S
N317 C316 1.314 . S
N317 C320 1.279 . S
C318 C316 1.353 . S
C318 C321 1.348 . S
C318 H350 0.929 . S
C319 C320 1.358 . S
C319 C321 1.356 . S
C319 H351 0.930 . S
C320 N317 1.279 . S
C320 C319 1.358 . S
C320 H323 0.930 . S
C321 C318 1.348 . S
C321 C319 1.356 . S
H322 C316 0.930 . S
H323 C320 0.930 . S
O324 Li264 1.956 . S
O324 Li265 1.970 . S
O324 Li266 1.961 . S
O324 C268 1.325 . S
O325 Li264 1.970 . S
O325 Li265 1.956 . S
O325 Li267 1.961 . S
O325 C274 1.325 . S
O326 Li264 1.961 . S
O326 Li266 1.956 . S
O326 Li267 1.970 . S
O326 C296 1.325 . S
O327 Li265 1.961 . S
O327 Li266 1.970 . S
O327 Li267 1.956 . S
O327 C302 1.325 . S
H328 C270 0.929 . S
H329 C271 0.930 . S
H330 C272 0.930 . S
H331 C273 0.930 . S
H332 C275 0.930 . S
H333 C277 0.929 . S
H334 C278 0.930 . S
H335 C279 0.930 . S
H336 C282 0.930 . S
H337 C285 0.929 . S
H338 C290 0.929 . S
H339 C291 0.930 . S
H340 C298 0.929 . S
H341 C299 0.930 . S
H342 C300 0.930 . S
H343 C301 0.930 . S
H344 C303 0.929 . S
H345 C304 0.930 . S
H346 C305 0.930 . S
H347 C306 0.930 . S
H348 C310 0.929 . S
H349 C312 0.930 . S
H350 C318 0.929 . S
H351 C319 0.930 . S
Li352 N369 1.990 . S
Li352 O412 1.956 . S
Li352 O413 1.970 . S
Li352 O414 1.961 . S
Li353 N377 1.990 . S
Li353 O412 1.970 . S
Li353 O413 1.956 . S
Li353 O415 1.961 . S
Li354 N399 1.990 . S
Li354 O412 1.961 . S
Li354 O414 1.956 . S
Li354 O415 1.970 . S
Li355 N405 1.990 . S
Li355 O413 1.961 . S
Li355 O414 1.970 . S
Li355 O415 1.956 . S
C356 C358 1.348 . S
C356 C359 1.356 . S
C356 O412 1.325 . S
N357 C360 1.314 . S
N357 C361 1.279 . S
C358 C356 1.348 . S
C358 C360 1.353 . S
C358 H416 0.929 . S
C359 C356 1.356 . S
C359 C361 1.358 . S
C359 H417 0.930 . S
C360 N357 1.314 . S
C360 C358 1.353 . S
C360 H418 0.930 . S
C361 N357 1.279 . S
C361 C359 1.358 . S
C361 H419 0.930 . S
C362 C365 1.348 . S
C362 C366 1.356 . S
C362 O413 1.325 . S
C363 N364 1.279 . S
C363 C366 1.358 . S
C363 H420 0.930 . S
N364 C363 1.279 . S
N364 C367 1.314 . S
C365 C362 1.348 . S
C365 C367 1.353 . S
C365 H421 0.929 . S
C366 C362 1.356 . S
C366 C363 1.358 . S
C366 H422 0.930 . S
C367 N364 1.314 . S
C367 C365 1.353 . S
C367 H423 0.930 . S
C368 N369 1.314 . S
C368 C373 1.353 . S
C368 H374 0.930 . S
N369 Li352 1.990 . S
N369 C368 1.314 . S
N369 C371 1.279 . S
C370 C371 1.358 . S
C370 C372 1.356 . S
C370 H424 0.930 . S
C371 N369 1.279 . S
C371 C370 1.358 . S
C371 H375 0.930 . S
C372 C370 1.356 . S
C372 C373 1.348 . S
C373 C368 1.353 . S
C373 C372 1.348 . S
C373 H425 0.929 . S
H374 C368 0.930 . S
H375 C371 0.930 . S
C376 N377 1.314 . S
C376 C378 1.353 . S
C376 H382 0.930 . S
N377 Li353 1.990 . S
N377 C376 1.314 . S
N377 C380 1.279 . S
C378 C376 1.353 . S
C378 C381 1.348 . S
C378 H426 0.929 . S
C379 C380 1.358 . S
C379 C381 1.356 . S
C379 H427 0.930 . S
C380 N377 1.279 . S
C380 C379 1.358 . S
C380 H383 0.930 . S
C381 C378 1.348 . S
C381 C379 1.356 . S
H382 C376 0.930 . S
H383 C380 0.930 . S
C384 C386 1.348 . S
C384 C387 1.356 . S
C384 O414 1.325 . S
N385 C388 1.314 . S
N385 C389 1.279 . S
C386 C384 1.348 . S
C386 C388 1.353 . S
C386 H428 0.929 . S
C387 C384 1.356 . S
C387 C389 1.358 . S
C387 H429 0.930 . S
C388 N385 1.314 . S
C388 C386 1.353 . S
C388 H430 0.930 . S
C389 N385 1.279 . S
C389 C387 1.358 . S
C389 H431 0.930 . S
C390 C391 1.348 . S
C390 C392 1.356 . S
C390 O415 1.325 . S
C391 C390 1.348 . S
C391 C393 1.353 . S
C391 H432 0.929 . S
C392 C390 1.356 . S
C392 C394 1.358 . S
C392 H433 0.930 . S
C393 C391 1.353 . S
C393 N395 1.314 . S
C393 H434 0.930 . S
C394 C392 1.358 . S
C394 N395 1.279 . S
C394 H435 0.930 . S
N395 C393 1.314 . S
N395 C394 1.279 . S
C396 C398 1.353 . S
C396 N399 1.314 . S
C396 H402 0.930 . S
C397 N399 1.279 . S
C397 C400 1.358 . S
C397 H403 0.930 . S
C398 C396 1.353 . S
C398 C401 1.348 . S
C398 H436 0.929 . S
N399 Li354 1.990 . S
N399 C396 1.314 . S
N399 C397 1.279 . S
C400 C397 1.358 . S
C400 C401 1.356 . S
C400 H437 0.930 . S
C401 C398 1.348 . S
C401 C400 1.356 . S
H402 C396 0.930 . S
H403 C397 0.930 . S
C404 N405 1.314 . S
C404 C406 1.353 . S
C404 H410 0.930 . S
N405 Li355 1.990 . S
N405 C404 1.314 . S
N405 C408 1.279 . S
C406 C404 1.353 . S
C406 C409 1.348 . S
C406 H438 0.929 . S
C407 C408 1.358 . S
C407 C409 1.356 . S
C407 H439 0.930 . S
C408 N405 1.279 . S
C408 C407 1.358 . S
C408 H411 0.930 . S
C409 C406 1.348 . S
C409 C407 1.356 . S
H410 C404 0.930 . S
H411 C408 0.930 . S
O412 Li352 1.956 . S
O412 Li353 1.970 . S
O412 Li354 1.961 . S
O412 C356 1.325 . S
O413 Li352 1.970 . S
O413 Li353 1.956 . S
O413 Li355 1.961 . S
O413 C362 1.325 . S
O414 Li352 1.961 . S
O414 Li354 1.956 . S
O414 Li355 1.970 . S
O414 C384 1.325 . S
O415 Li353 1.961 . S
O415 Li354 1.970 . S
O415 Li355 1.956 . S
O415 C390 1.325 . S
H416 C358 0.929 . S
H417 C359 0.930 . S
H418 C360 0.930 . S
H419 C361 0.930 . S
H420 C363 0.930 . S
H421 C365 0.929 . S
H422 C366 0.930 . S
H423 C367 0.930 . S
H424 C370 0.930 . S
H425 C373 0.929 . S
H426 C378 0.929 . S
H427 C379 0.930 . S
H428 C386 0.929 . S
H429 C387 0.930 . S
H430 C388 0.930 . S
H431 C389 0.930 . S
H432 C391 0.929 . S
H433 C392 0.930 . S
H434 C393 0.930 . S
H435 C394 0.930 . S
H436 C398 0.929 . S
H437 C400 0.930 . S
H438 C406 0.929 . S
H439 C407 0.930 . S
Li440 N457 1.990 1_556 S
Li440 O500 1.956 . S
Li440 O501 1.970 . S
Li440 O502 1.961 . S
Li441 N465 1.990 . S
Li441 O500 1.970 . S
Li441 O501 1.956 . S
Li441 O503 1.961 . S
Li442 N487 1.990 . S
Li442 O500 1.961 . S
Li442 O502 1.956 . S
Li442 O503 1.970 . S
Li443 N493 1.990 . S
Li443 O501 1.961 . S
Li443 O502 1.970 . S
Li443 O503 1.956 . S
C444 C446 1.348 . S
C444 C447 1.356 . S
C444 O500 1.325 1_554 S
N445 C448 1.314 . S
N445 C449 1.279 . S
C446 C444 1.348 . S
C446 C448 1.353 . S
C446 H504 0.929 . S
C447 C444 1.356 . S
C447 C449 1.358 . S
C447 H505 0.930 . S
C448 N445 1.314 . S
C448 C446 1.353 . S
C448 H506 0.930 . S
C449 N445 1.279 . S
C449 C447 1.358 . S
C449 H507 0.930 . S
C450 C453 1.348 . S
C450 C454 1.356 . S
C450 O501 1.325 . S
C451 N452 1.279 . S
C451 C454 1.358 . S
C451 H508 0.930 . S
N452 C451 1.279 . S
N452 C455 1.314 . S
C453 C450 1.348 . S
C453 C455 1.353 . S
C453 H509 0.929 . S
C454 C450 1.356 . S
C454 C451 1.358 . S
C454 H510 0.930 . S
C455 N452 1.314 . S
C455 C453 1.353 . S
C455 H511 0.930 . S
C456 N457 1.314 . S
C456 C461 1.353 . S
C456 H462 0.930 1_554 S
N457 Li440 1.990 1_554 S
N457 C456 1.314 . S
N457 C459 1.279 . S
C458 C459 1.358 . S
C458 C460 1.356 . S
C458 H512 0.930 . S
C459 N457 1.279 . S
C459 C458 1.358 . S
C459 H463 0.930 . S
C460 C458 1.356 . S
C460 C461 1.348 . S
C461 C456 1.353 . S
C461 C460 1.348 . S
C461 H513 0.929 . S
H462 C456 0.930 1_556 S
H463 C459 0.930 . S
C464 N465 1.314 . S
C464 C466 1.353 . S
C464 H470 0.930 . S
N465 Li441 1.990 . S
N465 C464 1.314 . S
N465 C468 1.279 . S
C466 C464 1.353 . S
C466 C469 1.348 . S
C466 H514 0.929 . S
C467 C468 1.358 . S
C467 C469 1.356 . S
C467 H515 0.930 . S
C468 N465 1.279 . S
C468 C467 1.358 . S
C468 H471 0.930 . S
C469 C466 1.348 . S
C469 C467 1.356 . S
H470 C464 0.930 . S
H471 C468 0.930 . S
C472 C474 1.348 . S
C472 C475 1.356 . S
C472 O502 1.325 . S
N473 C476 1.314 . S
N473 C477 1.279 . S
C474 C472 1.348 . S
C474 C476 1.353 . S
C474 H516 0.929 . S
C475 C472 1.356 . S
C475 C477 1.358 . S
C475 H517 0.930 . S
C476 N473 1.314 . S
C476 C474 1.353 . S
C476 H518 0.930 . S
C477 N473 1.279 . S
C477 C475 1.358 . S
C477 H519 0.930 . S
C478 C479 1.348 . S
C478 C480 1.356 . S
C478 O503 1.325 . S
C479 C478 1.348 . S
C479 C481 1.353 . S
C479 H520 0.929 . S
C480 C478 1.356 . S
C480 C482 1.358 . S
C480 H521 0.930 . S
C481 C479 1.353 . S
C481 N483 1.314 . S
C481 H522 0.930 . S
C482 C480 1.358 . S
C482 N483 1.279 . S
C482 H523 0.930 . S
N483 C481 1.314 . S
N483 C482 1.279 . S
C484 C486 1.353 . S
C484 N487 1.314 . S
C484 H490 0.930 . S
C485 N487 1.279 . S
C485 C488 1.358 . S
C485 H491 0.930 . S
C486 C484 1.353 . S
C486 C489 1.348 . S
C486 H524 0.929 . S
N487 Li442 1.990 . S
N487 C484 1.314 . S
N487 C485 1.279 . S
C488 C485 1.358 . S
C488 C489 1.356 . S
C488 H525 0.930 . S
C489 C486 1.348 . S
C489 C488 1.356 . S
H490 C484 0.930 . S
H491 C485 0.930 . S
C492 N493 1.314 . S
C492 C494 1.353 . S
C492 H498 0.930 . S
N493 Li443 1.990 . S
N493 C492 1.314 . S
N493 C496 1.279 . S
C494 C492 1.353 . S
C494 C497 1.348 . S
C494 H526 0.929 . S
C495 C496 1.358 . S
C495 C497 1.356 . S
C495 H527 0.930 . S
C496 N493 1.279 . S
C496 C495 1.358 . S
C496 H499 0.930 . S
C497 C494 1.348 . S
C497 C495 1.356 . S
H498 C492 0.930 . S
H499 C496 0.930 . S
O500 Li440 1.956 . S
O500 Li441 1.970 . S
O500 Li442 1.961 . S
O500 C444 1.325 1_556 S
O501 Li440 1.970 . S
O501 Li441 1.956 . S
O501 Li443 1.961 . S
O501 C450 1.325 . S
O502 Li440 1.961 . S
O502 Li442 1.956 . S
O502 Li443 1.970 . S
O502 C472 1.325 . S
O503 Li441 1.961 . S
O503 Li442 1.970 . S
O503 Li443 1.956 . S
O503 C478 1.325 . S
H504 C446 0.929 . S
H505 C447 0.930 . S
H506 C448 0.930 . S
H507 C449 0.930 . S
H508 C451 0.930 . S
H509 C453 0.929 . S
H510 C454 0.930 . S
H511 C455 0.930 . S
H512 C458 0.930 . S
H513 C461 0.929 . S
H514 C466 0.929 . S
H515 C467 0.930 . S
H516 C474 0.929 . S
H517 C475 0.930 . S
H518 C476 0.930 . S
H519 C477 0.930 . S
H520 C479 0.929 . S
H521 C480 0.930 . S
H522 C481 0.930 . S
H523 C482 0.930 . S
H524 C486 0.929 . S
H525 C488 0.930 . S
H526 C494 0.929 . S
H527 C495 0.930 . S
Li528 N545 1.990 . S
Li528 O588 1.956 . S
Li528 O589 1.970 . S
Li528 O590 1.961 . S
Li529 N553 1.990 . S
Li529 O588 1.970 . S
Li529 O589 1.956 . S
Li529 O591 1.961 . S
Li530 N575 1.990 . S
Li530 O588 1.961 . S
Li530 O590 1.956 . S
Li530 O591 1.970 . S
Li531 N581 1.990 . S
Li531 O589 1.961 . S
Li531 O590 1.970 . S
Li531 O591 1.956 . S
C532 C534 1.348 . S
C532 C535 1.356 . S
C532 O588 1.325 . S
N533 C536 1.314 . S
N533 C537 1.279 . S
C534 C532 1.348 . S
C534 C536 1.353 . S
C534 H592 0.929 . S
C535 C532 1.356 . S
C535 C537 1.358 . S
C535 H593 0.930 . S
C536 N533 1.314 . S
C536 C534 1.353 . S
C536 H594 0.930 . S
C537 N533 1.279 . S
C537 C535 1.358 . S
C537 H595 0.930 . S
C538 C541 1.348 . S
C538 C542 1.356 . S
C538 O589 1.325 . S
C539 N540 1.279 . S
C539 C542 1.358 . S
C539 H596 0.930 . S
N540 C539 1.279 . S
N540 C543 1.314 . S
C541 C538 1.348 . S
C541 C543 1.353 . S
C541 H597 0.929 . S
C542 C538 1.356 . S
C542 C539 1.358 . S
C542 H598 0.930 . S
C543 N540 1.314 . S
C543 C541 1.353 . S
C543 H599 0.930 . S
C544 N545 1.314 . S
C544 C549 1.353 . S
C544 H550 0.930 . S
N545 Li528 1.990 . S
N545 C544 1.314 . S
N545 C547 1.279 . S
C546 C547 1.358 . S
C546 C548 1.356 . S
C546 H600 0.930 . S
C547 N545 1.279 . S
C547 C546 1.358 . S
C547 H551 0.930 . S
C548 C546 1.356 . S
C548 C549 1.348 . S
C549 C544 1.353 . S
C549 C548 1.348 . S
C549 H601 0.929 . S
H550 C544 0.930 . S
H551 C547 0.930 . S
C552 N553 1.314 . S
C552 C554 1.353 . S
C552 H558 0.930 . S
N553 Li529 1.990 . S
N553 C552 1.314 . S
N553 C556 1.279 . S
C554 C552 1.353 . S
C554 C557 1.348 . S
C554 H602 0.929 . S
C555 C556 1.358 . S
C555 C557 1.356 . S
C555 H603 0.930 . S
C556 N553 1.279 . S
C556 C555 1.358 . S
C556 H559 0.930 . S
C557 C554 1.348 . S
C557 C555 1.356 . S
H558 C552 0.930 . S
H559 C556 0.930 . S
C560 C562 1.348 . S
C560 C563 1.356 . S
C560 O590 1.325 . S
N561 C564 1.314 . S
N561 C565 1.279 . S
C562 C560 1.348 . S
C562 C564 1.353 . S
C562 H604 0.929 . S
C563 C560 1.356 . S
C563 C565 1.358 . S
C563 H605 0.930 . S
C564 N561 1.314 . S
C564 C562 1.353 . S
C564 H606 0.930 . S
C565 N561 1.279 . S
C565 C563 1.358 . S
C565 H607 0.930 . S
C566 C567 1.348 . S
C566 C568 1.356 . S
C566 O591 1.325 . S
C567 C566 1.348 . S
C567 C569 1.353 . S
C567 H608 0.929 . S
C568 C566 1.356 . S
C568 C570 1.358 . S
C568 H609 0.930 . S
C569 C567 1.353 . S
C569 N571 1.314 . S
C569 H610 0.930 . S
C570 C568 1.358 . S
C570 N571 1.279 . S
C570 H611 0.930 . S
N571 C569 1.314 . S
N571 C570 1.279 . S
C572 C574 1.353 . S
C572 N575 1.314 . S
C572 H578 0.930 . S
C573 N575 1.279 . S
C573 C576 1.358 . S
C573 H579 0.930 . S
C574 C572 1.353 . S
C574 C577 1.348 . S
C574 H612 0.929 . S
N575 Li530 1.990 . S
N575 C572 1.314 . S
N575 C573 1.279 . S
C576 C573 1.358 . S
C576 C577 1.356 . S
C576 H613 0.930 . S
C577 C574 1.348 . S
C577 C576 1.356 . S
H578 C572 0.930 . S
H579 C573 0.930 . S
C580 N581 1.314 . S
C580 C582 1.353 . S
C580 H586 0.930 . S
N581 Li531 1.990 . S
N581 C580 1.314 . S
N581 C584 1.279 . S
C582 C580 1.353 . S
C582 C585 1.348 . S
C582 H614 0.929 . S
C583 C584 1.358 . S
C583 C585 1.356 . S
C583 H615 0.930 . S
C584 N581 1.279 . S
C584 C583 1.358 . S
C584 H587 0.930 . S
C585 C582 1.348 . S
C585 C583 1.356 . S
H586 C580 0.930 . S
H587 C584 0.930 . S
O588 Li528 1.956 . S
O588 Li529 1.970 . S
O588 Li530 1.961 . S
O588 C532 1.325 . S
O589 Li528 1.970 . S
O589 Li529 1.956 . S
O589 Li531 1.961 . S
O589 C538 1.325 . S
O590 Li528 1.961 . S
O590 Li530 1.956 . S
O590 Li531 1.970 . S
O590 C560 1.325 . S
O591 Li529 1.961 . S
O591 Li530 1.970 . S
O591 Li531 1.956 . S
O591 C566 1.325 . S
H592 C534 0.929 . S
H593 C535 0.930 . S
H594 C536 0.930 . S
H595 C537 0.930 . S
H596 C539 0.930 . S
H597 C541 0.929 . S
H598 C542 0.930 . S
H599 C543 0.930 . S
H600 C546 0.930 . S
H601 C549 0.929 . S
H602 C554 0.929 . S
H603 C555 0.930 . S
H604 C562 0.929 . S
H605 C563 0.930 . S
H606 C564 0.930 . S
H607 C565 0.930 . S
H608 C567 0.929 . S
H609 C568 0.930 . S
H610 C569 0.930 . S
H611 C570 0.930 . S
H612 C574 0.929 . S
H613 C576 0.930 . S
H614 C582 0.929 . S
H615 C583 0.930 . S
Li616 N633 1.990 . S
Li616 O676 1.956 . S
Li616 O677 1.970 . S
Li616 O678 1.961 . S
Li617 N641 1.990 . S
Li617 O676 1.970 . S
Li617 O677 1.956 . S
Li617 O679 1.961 . S
Li618 N663 1.990 . S
Li618 O676 1.961 . S
Li618 O678 1.956 . S
Li618 O679 1.970 . S
Li619 N669 1.990 . S
Li619 O677 1.961 . S
Li619 O678 1.970 . S
Li619 O679 1.956 . S
C620 C622 1.348 . S
C620 C623 1.356 . S
C620 O676 1.325 . S
N621 C624 1.314 . S
N621 C625 1.279 . S
C622 C620 1.348 . S
C622 C624 1.353 . S
C622 H680 0.929 . S
C623 C620 1.356 . S
C623 C625 1.358 . S
C623 H681 0.930 . S
C624 N621 1.314 . S
C624 C622 1.353 . S
C624 H682 0.930 . S
C625 N621 1.279 . S
C625 C623 1.358 . S
C625 H683 0.930 . S
C626 C629 1.348 . S
C626 C630 1.356 . S
C626 O677 1.325 . S
C627 N628 1.279 . S
C627 C630 1.358 . S
C627 H684 0.930 . S
N628 C627 1.279 . S
N628 C631 1.314 . S
C629 C626 1.348 . S
C629 C631 1.353 . S
C629 H685 0.929 . S
C630 C626 1.356 . S
C630 C627 1.358 . S
C630 H686 0.930 . S
C631 N628 1.314 . S
C631 C629 1.353 . S
C631 H687 0.930 . S
C632 N633 1.314 . S
C632 C637 1.353 . S
C632 H638 0.930 . S
N633 Li616 1.990 . S
N633 C632 1.314 . S
N633 C635 1.279 . S
C634 C635 1.358 . S
C634 C636 1.356 . S
C634 H688 0.930 . S
C635 N633 1.279 . S
C635 C634 1.358 . S
C635 H639 0.930 . S
C636 C634 1.356 . S
C636 C637 1.348 . S
C637 C632 1.353 . S
C637 C636 1.348 . S
C637 H689 0.929 . S
H638 C632 0.930 . S
H639 C635 0.930 . S
C640 N641 1.314 . S
C640 C642 1.353 . S
C640 H646 0.930 . S
N641 Li617 1.990 . S
N641 C640 1.314 . S
N641 C644 1.279 . S
C642 C640 1.353 . S
C642 C645 1.348 . S
C642 H690 0.929 . S
C643 C644 1.358 . S
C643 C645 1.356 . S
C643 H691 0.930 . S
C644 N641 1.279 . S
C644 C643 1.358 . S
C644 H647 0.930 . S
C645 C642 1.348 . S
C645 C643 1.356 . S
H646 C640 0.930 . S
H647 C644 0.930 . S
C648 C650 1.348 . S
C648 C651 1.356 . S
C648 O678 1.325 . S
N649 C652 1.314 . S
N649 C653 1.279 . S
C650 C648 1.348 . S
C650 C652 1.353 . S
C650 H692 0.929 . S
C651 C648 1.356 . S
C651 C653 1.358 . S
C651 H693 0.930 . S
C652 N649 1.314 . S
C652 C650 1.353 . S
C652 H694 0.930 . S
C653 N649 1.279 . S
C653 C651 1.358 . S
C653 H695 0.930 . S
C654 C655 1.348 . S
C654 C656 1.356 . S
C654 O679 1.325 . S
C655 C654 1.348 . S
C655 C657 1.353 . S
C655 H696 0.929 . S
C656 C654 1.356 . S
C656 C658 1.358 . S
C656 H697 0.930 . S
C657 C655 1.353 . S
C657 N659 1.314 . S
C657 H698 0.930 . S
C658 C656 1.358 . S
C658 N659 1.279 . S
C658 H699 0.930 . S
N659 C657 1.314 . S
N659 C658 1.279 . S
C660 C662 1.353 . S
C660 N663 1.314 . S
C660 H666 0.930 . S
C661 N663 1.279 . S
C661 C664 1.358 . S
C661 H667 0.930 . S
C662 C660 1.353 . S
C662 C665 1.348 . S
C662 H700 0.929 . S
N663 Li618 1.990 . S
N663 C660 1.314 . S
N663 C661 1.279 . S
C664 C661 1.358 . S
C664 C665 1.356 . S
C664 H701 0.930 . S
C665 C662 1.348 . S
C665 C664 1.356 . S
H666 C660 0.930 . S
H667 C661 0.930 . S
C668 N669 1.314 . S
C668 C670 1.353 . S
C668 H674 0.930 . S
N669 Li619 1.990 . S
N669 C668 1.314 . S
N669 C672 1.279 . S
C670 C668 1.353 . S
C670 C673 1.348 . S
C670 H702 0.929 . S
C671 C672 1.358 . S
C671 C673 1.356 . S
C671 H703 0.930 . S
C672 N669 1.279 . S
C672 C671 1.358 . S
C672 H675 0.930 . S
C673 C670 1.348 . S
C673 C671 1.356 . S
H674 C668 0.930 . S
H675 C672 0.930 . S
O676 Li616 1.956 . S
O676 Li617 1.970 . S
O676 Li618 1.961 . S
O676 C620 1.325 . S
O677 Li616 1.970 . S
O677 Li617 1.956 . S
O677 Li619 1.961 . S
O677 C626 1.325 . S
O678 Li616 1.961 . S
O678 Li618 1.956 . S
O678 Li619 1.970 . S
O678 C648 1.325 . S
O679 Li617 1.961 . S
O679 Li618 1.970 . S
O679 Li619 1.956 . S
O679 C654 1.325 . S
H680 C622 0.929 . S
H681 C623 0.930 . S
H682 C624 0.930 . S
H683 C625 0.930 . S
H684 C627 0.930 . S
H685 C629 0.929 . S
H686 C630 0.930 . S
H687 C631 0.930 . S
H688 C634 0.930 . S
H689 C637 0.929 . S
H690 C642 0.929 . S
H691 C643 0.930 . S
H692 C650 0.929 . S
H693 C651 0.930 . S
H694 C652 0.930 . S
H695 C653 0.930 . S
H696 C655 0.929 . S
H697 C656 0.930 . S
H698 C657 0.930 . S
H699 C658 0.930 . S
H700 C662 0.929 . S
H701 C664 0.930 . S
H702 C670 0.929 . S
H703 C671 0.930 . S
Li704 N721 1.990 . S
Li704 O764 1.956 . S
Li704 O765 1.970 . S
Li704 O766 1.961 . S
Li705 N729 1.990 . S
Li705 O764 1.970 . S
Li705 O765 1.956 . S
Li705 O767 1.961 . S
Li706 N751 1.990 1_554 S
Li706 O764 1.961 . S
Li706 O766 1.956 . S
Li706 O767 1.970 . S
Li707 N757 1.990 . S
Li707 O765 1.961 . S
Li707 O766 1.970 . S
Li707 O767 1.956 . S
C708 C710 1.348 . S
C708 C711 1.356 . S
C708 O764 1.325 . S
N709 C712 1.314 . S
N709 C713 1.279 . S
C710 C708 1.348 . S
C710 C712 1.353 . S
C710 H768 0.929 . S
C711 C708 1.356 . S
C711 C713 1.358 . S
C711 H769 0.930 . S
C712 N709 1.314 . S
C712 C710 1.353 . S
C712 H770 0.930 . S
C713 N709 1.279 . S
C713 C711 1.358 . S
C713 H771 0.930 . S
C714 C717 1.348 . S
C714 C718 1.356 . S
C714 O765 1.325 . S
C715 N716 1.279 . S
C715 C718 1.358 . S
C715 H772 0.930 . S
N716 C715 1.279 . S
N716 C719 1.314 . S
C717 C714 1.348 . S
C717 C719 1.353 . S
C717 H773 0.929 . S
C718 C714 1.356 . S
C718 C715 1.358 . S
C718 H774 0.930 . S
C719 N716 1.314 . S
C719 C717 1.353 . S
C719 H775 0.930 . S
C720 N721 1.314 . S
C720 C725 1.353 . S
C720 H726 0.930 . S
N721 Li704 1.990 . S
N721 C720 1.314 . S
N721 C723 1.279 . S
C722 C723 1.358 . S
C722 C724 1.356 . S
C722 H776 0.930 . S
C723 N721 1.279 . S
C723 C722 1.358 . S
C723 H727 0.930 . S
C724 C722 1.356 . S
C724 C725 1.348 . S
C725 C720 1.353 . S
C725 C724 1.348 . S
C725 H777 0.929 . S
H726 C720 0.930 . S
H727 C723 0.930 . S
C728 N729 1.314 . S
C728 C730 1.353 . S
C728 H734 0.930 . S
N729 Li705 1.990 . S
N729 C728 1.314 . S
N729 C732 1.279 . S
C730 C728 1.353 . S
C730 C733 1.348 . S
C730 H778 0.929 . S
C731 C732 1.358 . S
C731 C733 1.356 . S
C731 H779 0.930 . S
C732 N729 1.279 . S
C732 C731 1.358 . S
C732 H735 0.930 . S
C733 C730 1.348 . S
C733 C731 1.356 . S
H734 C728 0.930 . S
H735 C732 0.930 . S
C736 C738 1.348 . S
C736 C739 1.356 . S
C736 O766 1.325 1_556 S
N737 C740 1.314 . S
N737 C741 1.279 . S
C738 C736 1.348 . S
C738 C740 1.353 . S
C738 H780 0.929 . S
C739 C736 1.356 . S
C739 C741 1.358 . S
C739 H781 0.930 . S
C740 N737 1.314 . S
C740 C738 1.353 . S
C740 H782 0.930 . S
C741 N737 1.279 . S
C741 C739 1.358 . S
C741 H783 0.930 . S
C742 C743 1.348 . S
C742 C744 1.356 . S
C742 O767 1.325 . S
C743 C742 1.348 . S
C743 C745 1.353 . S
C743 H784 0.929 . S
C744 C742 1.356 . S
C744 C746 1.358 . S
C744 H785 0.930 . S
C745 C743 1.353 . S
C745 N747 1.314 . S
C745 H786 0.930 . S
C746 C744 1.358 . S
C746 N747 1.279 . S
C746 H787 0.930 . S
N747 C745 1.314 . S
N747 C746 1.279 . S
C748 C750 1.353 . S
C748 N751 1.314 . S
C748 H754 0.930 1_556 S
C749 N751 1.279 . S
C749 C752 1.358 . S
C749 H755 0.930 . S
C750 C748 1.353 . S
C750 C753 1.348 . S
C750 H788 0.929 . S
N751 Li706 1.990 1_556 S
N751 C748 1.314 . S
N751 C749 1.279 . S
C752 C749 1.358 . S
C752 C753 1.356 . S
C752 H789 0.930 . S
C753 C750 1.348 . S
C753 C752 1.356 . S
H754 C748 0.930 1_554 S
H755 C749 0.930 . S
C756 N757 1.314 . S
C756 C758 1.353 . S
C756 H762 0.930 . S
N757 Li707 1.990 . S
N757 C756 1.314 . S
N757 C760 1.279 . S
C758 C756 1.353 . S
C758 C761 1.348 . S
C758 H790 0.929 . S
C759 C760 1.358 . S
C759 C761 1.356 . S
C759 H791 0.930 . S
C760 N757 1.279 . S
C760 C759 1.358 . S
C760 H763 0.930 . S
C761 C758 1.348 . S
C761 C759 1.356 . S
H762 C756 0.930 . S
H763 C760 0.930 . S
O764 Li704 1.956 . S
O764 Li705 1.970 . S
O764 Li706 1.961 . S
O764 C708 1.325 . S
O765 Li704 1.970 . S
O765 Li705 1.956 . S
O765 Li707 1.961 . S
O765 C714 1.325 . S
O766 Li704 1.961 . S
O766 Li706 1.956 . S
O766 Li707 1.970 . S
O766 C736 1.325 1_554 S
O767 Li705 1.961 . S
O767 Li706 1.970 . S
O767 Li707 1.956 . S
O767 C742 1.325 . S
H768 C710 0.929 . S
H769 C711 0.930 . S
H770 C712 0.930 . S
H771 C713 0.930 . S
H772 C715 0.930 . S
H773 C717 0.929 . S
H774 C718 0.930 . S
H775 C719 0.930 . S
H776 C722 0.930 . S
H777 C725 0.929 . S
H778 C730 0.929 . S
H779 C731 0.930 . S
H780 C738 0.929 . S
H781 C739 0.930 . S
H782 C740 0.930 . S
H783 C741 0.930 . S
H784 C743 0.929 . S
H785 C744 0.930 . S
H786 C745 0.930 . S
H787 C746 0.930 . S
H788 C750 0.929 . S
H789 C752 0.930 . S
H790 C758 0.929 . S
H791 C759 0.930 . S
Li792 N809 1.990 . S
Li792 O852 1.956 . S
Li792 O853 1.970 . S
Li792 O854 1.961 . S
Li793 N817 1.990 . S
Li793 O852 1.970 . S
Li793 O853 1.956 . S
Li793 O855 1.961 . S
Li794 N839 1.990 . S
Li794 O852 1.961 . S
Li794 O854 1.956 . S
Li794 O855 1.970 . S
Li795 N845 1.990 . S
Li795 O853 1.961 . S
Li795 O854 1.970 . S
Li795 O855 1.956 . S
C796 C798 1.348 . S
C796 C799 1.356 . S
C796 O852 1.325 . S
N797 C800 1.314 . S
N797 C801 1.279 . S
C798 C796 1.348 . S
C798 C800 1.353 . S
C798 H856 0.929 . S
C799 C796 1.356 . S
C799 C801 1.358 . S
C799 H857 0.930 . S
C800 N797 1.314 . S
C800 C798 1.353 . S
C800 H858 0.930 . S
C801 N797 1.279 . S
C801 C799 1.358 . S
C801 H859 0.930 . S
C802 C805 1.348 . S
C802 C806 1.356 . S
C802 O853 1.325 . S
C803 N804 1.279 . S
C803 C806 1.358 . S
C803 H860 0.930 . S
N804 C803 1.279 . S
N804 C807 1.314 . S
C805 C802 1.348 . S
C805 C807 1.353 . S
C805 H861 0.929 . S
C806 C802 1.356 . S
C806 C803 1.358 . S
C806 H862 0.930 . S
C807 N804 1.314 . S
C807 C805 1.353 . S
C807 H863 0.930 . S
C808 N809 1.314 . S
C808 C813 1.353 . S
C808 H814 0.930 . S
N809 Li792 1.990 . S
N809 C808 1.314 . S
N809 C811 1.279 . S
C810 C811 1.358 . S
C810 C812 1.356 . S
C810 H864 0.930 . S
C811 N809 1.279 . S
C811 C810 1.358 . S
C811 H815 0.930 . S
C812 C810 1.356 . S
C812 C813 1.348 . S
C813 C808 1.353 . S
C813 C812 1.348 . S
C813 H865 0.929 . S
H814 C808 0.930 . S
H815 C811 0.930 . S
C816 N817 1.314 . S
C816 C818 1.353 . S
C816 H822 0.930 . S
N817 Li793 1.990 . S
N817 C816 1.314 . S
N817 C820 1.279 . S
C818 C816 1.353 . S
C818 C821 1.348 . S
C818 H866 0.929 . S
C819 C820 1.358 . S
C819 C821 1.356 . S
C819 H867 0.930 . S
C820 N817 1.279 . S
C820 C819 1.358 . S
C820 H823 0.930 . S
C821 C818 1.348 . S
C821 C819 1.356 . S
H822 C816 0.930 . S
H823 C820 0.930 . S
C824 C826 1.348 . S
C824 C827 1.356 . S
C824 O854 1.325 . S
N825 C828 1.314 . S
N825 C829 1.279 . S
C826 C824 1.348 . S
C826 C828 1.353 . S
C826 H868 0.929 . S
C827 C824 1.356 . S
C827 C829 1.358 . S
C827 H869 0.930 . S
C828 N825 1.314 . S
C828 C826 1.353 . S
C828 H870 0.930 . S
C829 N825 1.279 . S
C829 C827 1.358 . S
C829 H871 0.930 . S
C830 C831 1.348 . S
C830 C832 1.356 . S
C830 O855 1.325 . S
C831 C830 1.348 . S
C831 C833 1.353 . S
C831 H872 0.929 . S
C832 C830 1.356 . S
C832 C834 1.358 . S
C832 H873 0.930 . S
C833 C831 1.353 . S
C833 N835 1.314 . S
C833 H874 0.930 . S
C834 C832 1.358 . S
C834 N835 1.279 . S
C834 H875 0.930 . S
N835 C833 1.314 . S
N835 C834 1.279 . S
C836 C838 1.353 . S
C836 N839 1.314 . S
C836 H842 0.930 . S
C837 N839 1.279 . S
C837 C840 1.358 . S
C837 H843 0.930 . S
C838 C836 1.353 . S
C838 C841 1.348 . S
C838 H876 0.929 . S
N839 Li794 1.990 . S
N839 C836 1.314 . S
N839 C837 1.279 . S
C840 C837 1.358 . S
C840 C841 1.356 . S
C840 H877 0.930 . S
C841 C838 1.348 . S
C841 C840 1.356 . S
H842 C836 0.930 . S
H843 C837 0.930 . S
C844 N845 1.314 . S
C844 C846 1.353 . S
C844 H850 0.930 . S
N845 Li795 1.990 . S
N845 C844 1.314 . S
N845 C848 1.279 . S
C846 C844 1.353 . S
C846 C849 1.348 . S
C846 H878 0.929 . S
C847 C848 1.358 . S
C847 C849 1.356 . S
C847 H879 0.930 . S
C848 N845 1.279 . S
C848 C847 1.358 . S
C848 H851 0.930 . S
C849 C846 1.348 . S
C849 C847 1.356 . S
H850 C844 0.930 . S
H851 C848 0.930 . S
O852 Li792 1.956 . S
O852 Li793 1.970 . S
O852 Li794 1.961 . S
O852 C796 1.325 . S
O853 Li792 1.970 . S
O853 Li793 1.956 . S
O853 Li795 1.961 . S
O853 C802 1.325 . S
O854 Li792 1.961 . S
O854 Li794 1.956 . S
O854 Li795 1.970 . S
O854 C824 1.325 . S
O855 Li793 1.961 . S
O855 Li794 1.970 . S
O855 Li795 1.956 . S
O855 C830 1.325 . S
H856 C798 0.929 . S
H857 C799 0.930 . S
H858 C800 0.930 . S
H859 C801 0.930 . S
H860 C803 0.930 . S
H861 C805 0.929 . S
H862 C806 0.930 . S
H863 C807 0.930 . S
H864 C810 0.930 . S
H865 C813 0.929 . S
H866 C818 0.929 . S
H867 C819 0.930 . S
H868 C826 0.929 . S
H869 C827 0.930 . S
H870 C828 0.930 . S
H871 C829 0.930 . S
H872 C831 0.929 . S
H873 C832 0.930 . S
H874 C833 0.930 . S
H875 C834 0.930 . S
H876 C838 0.929 . S
H877 C840 0.930 . S
H878 C846 0.929 . S
H879 C847 0.930 . S
Li880 N897 1.990 . S
Li880 O940 1.956 . S
Li880 O941 1.970 . S
Li880 O942 1.961 . S
Li881 N905 1.990 . S
Li881 O940 1.970 . S
Li881 O941 1.956 . S
Li881 O943 1.961 . S
Li882 N927 1.990 . S
Li882 O940 1.961 . S
Li882 O942 1.956 . S
Li882 O943 1.970 . S
Li883 N933 1.990 . S
Li883 O941 1.961 . S
Li883 O942 1.970 . S
Li883 O943 1.956 . S
C884 C886 1.348 . S
C884 C887 1.356 . S
C884 O940 1.325 . S
N885 C888 1.314 . S
N885 C889 1.279 . S
C886 C884 1.348 . S
C886 C888 1.353 . S
C886 H944 0.929 . S
C887 C884 1.356 . S
C887 C889 1.358 . S
C887 H945 0.930 . S
C888 N885 1.314 . S
C888 C886 1.353 . S
C888 H946 0.930 . S
C889 N885 1.279 . S
C889 C887 1.358 . S
C889 H947 0.930 . S
C890 C893 1.348 . S
C890 C894 1.356 . S
C890 O941 1.325 . S
C891 N892 1.279 . S
C891 C894 1.358 . S
C891 H948 0.930 . S
N892 C891 1.279 . S
N892 C895 1.314 . S
C893 C890 1.348 . S
C893 C895 1.353 . S
C893 H949 0.929 . S
C894 C890 1.356 . S
C894 C891 1.358 . S
C894 H950 0.930 . S
C895 N892 1.314 . S
C895 C893 1.353 . S
C895 H951 0.930 . S
C896 N897 1.314 . S
C896 C901 1.353 . S
C896 H902 0.930 . S
N897 Li880 1.990 . S
N897 C896 1.314 . S
N897 C899 1.279 . S
C898 C899 1.358 . S
C898 C900 1.356 . S
C898 H952 0.930 . S
C899 N897 1.279 . S
C899 C898 1.358 . S
C899 H903 0.930 . S
C900 C898 1.356 . S
C900 C901 1.348 . S
C901 C896 1.353 . S
C901 C900 1.348 . S
C901 H953 0.929 . S
H902 C896 0.930 . S
H903 C899 0.930 . S
C904 N905 1.314 . S
C904 C906 1.353 . S
C904 H910 0.930 . S
N905 Li881 1.990 . S
N905 C904 1.314 . S
N905 C908 1.279 . S
C906 C904 1.353 . S
C906 C909 1.348 . S
C906 H954 0.929 . S
C907 C908 1.358 . S
C907 C909 1.356 . S
C907 H955 0.930 . S
C908 N905 1.279 . S
C908 C907 1.358 . S
C908 H911 0.930 . S
C909 C906 1.348 . S
C909 C907 1.356 . S
H910 C904 0.930 . S
H911 C908 0.930 . S
C912 C914 1.348 . S
C912 C915 1.356 . S
C912 O942 1.325 . S
N913 C916 1.314 . S
N913 C917 1.279 . S
C914 C912 1.348 . S
C914 C916 1.353 . S
C914 H956 0.929 . S
C915 C912 1.356 . S
C915 C917 1.358 . S
C915 H957 0.930 . S
C916 N913 1.314 . S
C916 C914 1.353 . S
C916 H958 0.930 . S
C917 N913 1.279 . S
C917 C915 1.358 . S
C917 H959 0.930 . S
C918 C919 1.348 . S
C918 C920 1.356 . S
C918 O943 1.325 . S
C919 C918 1.348 . S
C919 C921 1.353 . S
C919 H960 0.929 . S
C920 C918 1.356 . S
C920 C922 1.358 . S
C920 H961 0.930 . S
C921 C919 1.353 . S
C921 N923 1.314 . S
C921 H962 0.930 . S
C922 C920 1.358 . S
C922 N923 1.279 . S
C922 H963 0.930 . S
N923 C921 1.314 . S
N923 C922 1.279 . S
C924 C926 1.353 . S
C924 N927 1.314 . S
C924 H930 0.930 . S
C925 N927 1.279 . S
C925 C928 1.358 . S
C925 H931 0.930 . S
C926 C924 1.353 . S
C926 C929 1.348 . S
C926 H964 0.929 . S
N927 Li882 1.990 . S
N927 C924 1.314 . S
N927 C925 1.279 . S
C928 C925 1.358 . S
C928 C929 1.356 . S
C928 H965 0.930 . S
C929 C926 1.348 . S
C929 C928 1.356 . S
H930 C924 0.930 . S
H931 C925 0.930 . S
C932 N933 1.314 . S
C932 C934 1.353 . S
C932 H938 0.930 . S
N933 Li883 1.990 . S
N933 C932 1.314 . S
N933 C936 1.279 . S
C934 C932 1.353 . S
C934 C937 1.348 . S
C934 H966 0.929 . S
C935 C936 1.358 . S
C935 C937 1.356 . S
C935 H967 0.930 . S
C936 N933 1.279 . S
C936 C935 1.358 . S
C936 H939 0.930 . S
C937 C934 1.348 . S
C937 C935 1.356 . S
H938 C932 0.930 . S
H939 C936 0.930 . S
O940 Li880 1.956 . S
O940 Li881 1.970 . S
O940 Li882 1.961 . S
O940 C884 1.325 . S
O941 Li880 1.970 . S
O941 Li881 1.956 . S
O941 Li883 1.961 . S
O941 C890 1.325 . S
O942 Li880 1.961 . S
O942 Li882 1.956 . S
O942 Li883 1.970 . S
O942 C912 1.325 . S
O943 Li881 1.961 . S
O943 Li882 1.970 . S
O943 Li883 1.956 . S
O943 C918 1.325 . S
H944 C886 0.929 . S
H945 C887 0.930 . S
H946 C888 0.930 . S
H947 C889 0.930 . S
H948 C891 0.930 . S
H949 C893 0.929 . S
H950 C894 0.930 . S
H951 C895 0.930 . S
H952 C898 0.930 . S
H953 C901 0.929 . S
H954 C906 0.929 . S
H955 C907 0.930 . S
H956 C914 0.929 . S
H957 C915 0.930 . S
H958 C916 0.930 . S
H959 C917 0.930 . S
H960 C919 0.929 . S
H961 C920 0.930 . S
H962 C921 0.930 . S
H963 C922 0.930 . S
H964 C926 0.929 . S
H965 C928 0.930 . S
H966 C934 0.929 . S
H967 C935 0.930 . S
Li968 N985 1.990 . S
Li968 O1028 1.956 . S
Li968 O1029 1.970 . S
Li968 O1030 1.961 . S
Li969 N993 1.990 . S
Li969 O1028 1.970 . S
Li969 O1029 1.956 . S
Li969 O1031 1.961 . S
Li970 N1015 1.990 . S
Li970 O1028 1.961 . S
Li970 O1030 1.956 . S
Li970 O1031 1.970 . S
Li971 N1021 1.990 1_554 S
Li971 O1029 1.961 . S
Li971 O1030 1.970 . S
Li971 O1031 1.956 . S
C972 C974 1.348 . S
C972 C975 1.356 . S
C972 O1028 1.325 . S
N973 C976 1.314 . S
N973 C977 1.279 . S
C974 C972 1.348 . S
C974 C976 1.353 . S
C974 H1032 0.929 . S
C975 C972 1.356 . S
C975 C977 1.358 . S
C975 H1033 0.930 . S
C976 N973 1.314 . S
C976 C974 1.353 . S
C976 H1034 0.930 . S
C977 N973 1.279 . S
C977 C975 1.358 . S
C977 H1035 0.930 . S
C978 C981 1.348 . S
C978 C982 1.356 . S
C978 O1029 1.325 . S
C979 N980 1.279 . S
C979 C982 1.358 . S
C979 H1036 0.930 . S
N980 C979 1.279 . S
N980 C983 1.314 . S
C981 C978 1.348 . S
C981 C983 1.353 . S
C981 H1037 0.929 . S
C982 C978 1.356 . S
C982 C979 1.358 . S
C982 H1038 0.930 . S
C983 N980 1.314 . S
C983 C981 1.353 . S
C983 H1039 0.930 . S
C984 N985 1.314 . S
C984 C989 1.353 . S
C984 H990 0.930 . S
N985 Li968 1.990 . S
N985 C984 1.314 . S
N985 C987 1.279 . S
C986 C987 1.358 . S
C986 C988 1.356 . S
C986 H1040 0.930 . S
C987 N985 1.279 . S
C987 C986 1.358 . S
C987 H991 0.930 . S
C988 C986 1.356 . S
C988 C989 1.348 . S
C989 C984 1.353 . S
C989 C988 1.348 . S
C989 H1041 0.929 . S
H990 C984 0.930 . S
H991 C987 0.930 . S
C992 N993 1.314 . S
C992 C994 1.353 . S
C992 H998 0.930 . S
N993 Li969 1.990 . S
N993 C992 1.314 . S
N993 C996 1.279 . S
C994 C992 1.353 . S
C994 C997 1.348 . S
C994 H1042 0.929 . S
C995 C996 1.358 . S
C995 C997 1.356 . S
C995 H1043 0.930 . S
C996 N993 1.279 . S
C996 C995 1.358 . S
C996 H999 0.930 . S
C997 C994 1.348 . S
C997 C995 1.356 . S
H998 C992 0.930 . S
H999 C996 0.930 . S
C1000 C1002 1.348 . S
C1000 C1003 1.356 . S
C1000 O1030 1.325 . S
N1001 C1004 1.314 . S
N1001 C1005 1.279 . S
C1002 C1000 1.348 . S
C1002 C1004 1.353 . S
C1002 H1044 0.929 . S
C1003 C1000 1.356 . S
C1003 C1005 1.358 . S
C1003 H1045 0.930 . S
C1004 N1001 1.314 . S
C1004 C1002 1.353 . S
C1004 H1046 0.930 . S
C1005 N1001 1.279 . S
C1005 C1003 1.358 . S
C1005 H1047 0.930 . S
C1006 C1007 1.348 . S
C1006 C1008 1.356 . S
C1006 O1031 1.325 1_556 S
C1007 C1006 1.348 . S
C1007 C1009 1.353 . S
C1007 H1048 0.929 . S
C1008 C1006 1.356 . S
C1008 C1010 1.358 . S
C1008 H1049 0.930 . S
C1009 C1007 1.353 . S
C1009 N1011 1.314 . S
C1009 H1050 0.930 . S
C1010 C1008 1.358 . S
C1010 N1011 1.279 . S
C1010 H1051 0.930 . S
N1011 C1009 1.314 . S
N1011 C1010 1.279 . S
C1012 C1014 1.353 . S
C1012 N1015 1.314 . S
C1012 H1018 0.930 . S
C1013 N1015 1.279 . S
C1013 C1016 1.358 . S
C1013 H1019 0.930 . S
C1014 C1012 1.353 . S
C1014 C1017 1.348 . S
C1014 H1052 0.929 . S
N1015 Li970 1.990 . S
N1015 C1012 1.314 . S
N1015 C1013 1.279 . S
C1016 C1013 1.358 . S
C1016 C1017 1.356 . S
C1016 H1053 0.930 . S
C1017 C1014 1.348 . S
C1017 C1016 1.356 . S
H1018 C1012 0.930 . S
H1019 C1013 0.930 . S
C1020 N1021 1.314 . S
C1020 C1022 1.353 . S
C1020 H1026 0.930 1_556 S
N1021 Li971 1.990 1_556 S
N1021 C1020 1.314 . S
N1021 C1024 1.279 . S
C1022 C1020 1.353 . S
C1022 C1025 1.348 . S
C1022 H1054 0.929 . S
C1023 C1024 1.358 . S
C1023 C1025 1.356 . S
C1023 H1055 0.930 . S
C1024 N1021 1.279 . S
C1024 C1023 1.358 . S
C1024 H1027 0.930 . S
C1025 C1022 1.348 . S
C1025 C1023 1.356 . S
H1026 C1020 0.930 1_554 S
H1027 C1024 0.930 . S
O1028 Li968 1.956 . S
O1028 Li969 1.970 . S
O1028 Li970 1.961 . S
O1028 C972 1.325 . S
O1029 Li968 1.970 . S
O1029 Li969 1.956 . S
O1029 Li971 1.961 . S
O1029 C978 1.325 . S
O1030 Li968 1.961 . S
O1030 Li970 1.956 . S
O1030 Li971 1.970 . S
O1030 C1000 1.325 . S
O1031 Li969 1.961 . S
O1031 Li970 1.970 . S
O1031 Li971 1.956 . S
O1031 C1006 1.325 1_554 S
H1032 C974 0.929 . S
H1033 C975 0.930 . S
H1034 C976 0.930 . S
H1035 C977 0.930 . S
H1036 C979 0.930 . S
H1037 C981 0.929 . S
H1038 C982 0.930 . S
H1039 C983 0.930 . S
H1040 C986 0.930 . S
H1041 C989 0.929 . S
H1042 C994 0.929 . S
H1043 C995 0.930 . S
H1044 C1002 0.929 . S
H1045 C1003 0.930 . S
H1046 C1004 0.930 . S
H1047 C1005 0.930 . S
H1048 C1007 0.929 . S
H1049 C1008 0.930 . S
H1050 C1009 0.930 . S
H1051 C1010 0.930 . S
H1052 C1014 0.929 . S
H1053 C1016 0.930 . S
H1054 C1022 0.929 . S
H1055 C1023 0.930 . S
H1056 C1068 0.930 . S
H1057 C1070 0.930 . S
H1058 C1071 0.930 . S
H1059 C1075 0.959 . S
H1060 C1075 0.959 . S
H1061 C1075 0.961 . S
H1062 C1076 0.960 . S
H1063 C1076 0.961 . S
H1064 C1076 0.959 . S
H1065 C1079 0.929 . S
H1066 C1080 0.931 . S
H1067 C1082 0.930 . S
C1068 H1056 0.930 . S
C1068 C1069 1.399 . S
C1068 C1073 1.399 . S
C1069 C1068 1.399 . S
C1069 C1070 1.376 . S
C1070 H1057 0.930 . S
C1070 C1069 1.376 . S
C1070 C1071 1.388 . S
C1071 H1058 0.930 . S
C1071 C1070 1.388 . S
C1071 C1072 1.390 . S
C1072 C1071 1.390 . S
C1072 C1073 1.394 . S
C1072 C1078 1.465 . S
C1073 C1068 1.399 . S
C1073 C1072 1.394 . S
C1073 C1074 1.516 . S
C1074 C1073 1.516 . S
C1074 C1075 1.502 . S
C1074 C1076 1.561 . S
C1074 C1077 1.526 . S
C1075 H1059 0.959 . S
C1075 H1060 0.959 . S
C1075 H1061 0.961 . S
C1075 C1074 1.502 . S
C1076 H1062 0.960 . S
C1076 H1063 0.961 . S
C1076 H1064 0.959 . S
C1076 C1074 1.561 . S
C1077 C1074 1.526 . S
C1077 C1078 1.396 . S
C1077 C1082 1.390 . S
C1078 C1072 1.465 . S
C1078 C1077 1.396 . S
C1078 C1079 1.399 . S
C1079 H1065 0.929 . S
C1079 C1078 1.399 . S
C1079 C1080 1.385 . S
C1080 H1066 0.931 . S
C1080 C1079 1.385 . S
C1080 C1081 1.389 . S
C1081 C1080 1.389 . S
C1081 C1082 1.387 . S
C1082 H1067 0.930 . S
C1082 C1077 1.390 . S
C1082 C1081 1.387 . S
H1083 C1095 0.930 . S
H1084 C1097 0.930 . S
H1085 C1098 0.930 . S
H1086 C1102 0.959 . S
H1087 C1102 0.959 . S
H1088 C1102 0.961 . S
H1089 C1103 0.960 . S
H1090 C1103 0.961 . S
H1091 C1103 0.959 . S
H1092 C1106 0.929 . S
H1093 C1107 0.931 . S
H1094 C1109 0.930 . S
C1095 H1083 0.930 . S
C1095 C1096 1.399 . S
C1095 C1100 1.399 . S
C1096 C1095 1.399 . S
C1096 C1097 1.376 . S
C1097 H1084 0.930 . S
C1097 C1096 1.376 . S
C1097 C1098 1.388 . S
C1098 H1085 0.930 . S
C1098 C1097 1.388 . S
C1098 C1099 1.390 . S
C1099 C1098 1.390 . S
C1099 C1100 1.394 . S
C1099 C1105 1.465 1_655 S
C1100 C1095 1.399 . S
C1100 C1099 1.394 . S
C1100 C1101 1.516 . S
C1101 C1100 1.516 . S
C1101 C1102 1.502 . S
C1101 C1103 1.561 . S
C1101 C1104 1.526 1_655 S
C1102 H1086 0.959 . S
C1102 H1087 0.959 . S
C1102 H1088 0.961 . S
C1102 C1101 1.502 . S
C1103 H1089 0.960 . S
C1103 H1090 0.961 . S
C1103 H1091 0.959 . S
C1103 C1101 1.561 . S
C1104 C1101 1.526 1_455 S
C1104 C1105 1.396 . S
C1104 C1109 1.390 . S
C1105 C1099 1.465 1_455 S
C1105 C1104 1.396 . S
C1105 C1106 1.399 . S
C1106 H1092 0.929 . S
C1106 C1105 1.399 . S
C1106 C1107 1.385 . S
C1107 H1093 0.931 . S
C1107 C1106 1.385 . S
C1107 C1108 1.389 . S
C1108 C1107 1.389 . S
C1108 C1109 1.387 . S
C1109 H1094 0.930 . S
C1109 C1104 1.390 . S
C1109 C1108 1.387 . S
H1110 C1122 0.930 . S
H1111 C1124 0.930 . S
H1112 C1125 0.930 . S
H1113 C1129 0.959 . S
H1114 C1129 0.959 . S
H1115 C1129 0.961 . S
H1116 C1130 0.960 . S
H1117 C1130 0.961 . S
H1118 C1130 0.959 . S
H1119 C1133 0.929 . S
H1120 C1134 0.931 . S
H1121 C1136 0.930 . S
C1122 H1110 0.930 . S
C1122 C1123 1.399 1_554 S
C1122 C1127 1.399 . S
C1123 C1122 1.399 1_556 S
C1123 C1124 1.376 . S
C1124 H1111 0.930 . S
C1124 C1123 1.376 . S
C1124 C1125 1.388 . S
C1125 H1112 0.930 . S
C1125 C1124 1.388 . S
C1125 C1126 1.390 . S
C1126 C1125 1.390 . S
C1126 C1127 1.394 1_556 S
C1126 C1132 1.465 1_565 S
C1127 C1122 1.399 . S
C1127 C1126 1.394 1_554 S
C1127 C1128 1.516 . S
C1128 C1127 1.516 . S
C1128 C1129 1.502 . S
C1128 C1130 1.561 . S
C1128 C1131 1.526 1_565 S
C1129 H1113 0.959 . S
C1129 H1114 0.959 . S
C1129 H1115 0.961 . S
C1129 C1128 1.502 . S
C1130 H1116 0.960 . S
C1130 H1117 0.961 . S
C1130 H1118 0.959 . S
C1130 C1128 1.561 . S
C1131 C1128 1.526 1_545 S
C1131 C1132 1.396 1_554 S
C1131 C1136 1.390 . S
C1132 C1126 1.465 1_545 S
C1132 C1131 1.396 1_556 S
C1132 C1133 1.399 . S
C1133 H1119 0.929 . S
C1133 C1132 1.399 . S
C1133 C1134 1.385 . S
C1134 H1120 0.931 . S
C1134 C1133 1.385 . S
C1134 C1135 1.389 1_556 S
C1135 C1134 1.389 1_554 S
C1135 C1136 1.387 . S
C1136 H1121 0.930 . S
C1136 C1131 1.390 . S
C1136 C1135 1.387 . S
H1137 C1149 0.930 . S
H1138 C1151 0.930 . S
H1139 C1152 0.930 . S
H1140 C1156 0.959 . S
H1141 C1156 0.959 . S
H1142 C1156 0.961 . S
H1143 C1157 0.960 . S
H1144 C1157 0.961 . S
H1145 C1157 0.959 . S
H1146 C1160 0.929 . S
H1147 C1161 0.931 . S
H1148 C1163 0.930 . S
C1149 H1137 0.930 . S
C1149 C1150 1.399 . S
C1149 C1154 1.399 . S
C1150 C1149 1.399 . S
C1150 C1151 1.376 . S
C1151 H1138 0.930 . S
C1151 C1150 1.376 . S
C1151 C1152 1.388 . S
C1152 H1139 0.930 . S
C1152 C1151 1.388 . S
C1152 C1153 1.390 . S
C1153 C1152 1.390 . S
C1153 C1154 1.394 . S
C1153 C1159 1.465 . S
C1154 C1149 1.399 . S
C1154 C1153 1.394 . S
C1154 C1155 1.516 . S
C1155 C1154 1.516 . S
C1155 C1156 1.502 . S
C1155 C1157 1.561 . S
C1155 C1158 1.526 . S
C1156 H1140 0.959 . S
C1156 H1141 0.959 . S
C1156 H1142 0.961 . S
C1156 C1155 1.502 . S
C1157 H1143 0.960 . S
C1157 H1144 0.961 . S
C1157 H1145 0.959 . S
C1157 C1155 1.561 . S
C1158 C1155 1.526 . S
C1158 C1159 1.396 . S
C1158 C1163 1.390 . S
C1159 C1153 1.465 . S
C1159 C1158 1.396 . S
C1159 C1160 1.399 . S
C1160 H1146 0.929 . S
C1160 C1159 1.399 . S
C1160 C1161 1.385 . S
C1161 H1147 0.931 . S
C1161 C1160 1.385 . S
C1161 C1162 1.389 . S
C1162 C1161 1.389 . S
C1162 C1163 1.387 . S
C1163 H1148 0.930 . S
C1163 C1158 1.390 . S
C1163 C1162 1.387 . S
H1164 C1176 0.930 . S
H1165 C1178 0.930 . S
H1166 C1179 0.930 . S
H1167 C1183 0.982 . S
H1168 C1183 0.959 1_455 S
H1169 C1183 0.961 . S
H1170 C1184 0.960 . S
H1171 C1184 0.961 . S
H1172 C1184 0.959 . S
H1173 C1187 0.929 . S
H1174 C1188 0.931 . S
H1175 C1190 0.930 . S
C1176 H1164 0.930 . S
C1176 C1177 1.399 . S
C1176 C1181 1.399 . S
C1177 C1176 1.399 . S
C1177 C1178 1.376 . S
C1178 H1165 0.930 . S
C1178 C1177 1.376 . S
C1178 C1179 1.388 . S
C1179 H1166 0.930 . S
C1179 C1178 1.388 . S
C1179 C1180 1.390 . S
C1180 C1179 1.390 . S
C1180 C1181 1.394 . S
C1180 C1186 1.465 1_655 S
C1181 C1176 1.399 . S
C1181 C1180 1.394 . S
C1181 C1182 1.516 . S
C1182 C1181 1.516 . S
C1182 C1183 1.502 . S
C1182 C1184 1.561 . S
C1182 C1185 1.526 1_655 S
C1183 H1167 0.982 . S
C1183 H1168 0.959 1_655 S
C1183 H1169 0.961 . S
C1183 C1182 1.502 . S
C1184 H1170 0.960 . S
C1184 H1171 0.961 . S
C1184 H1172 0.959 . S
C1184 C1182 1.561 . S
C1185 C1182 1.526 1_455 S
C1185 C1186 1.396 . S
C1185 C1190 1.390 . S
C1186 C1180 1.465 1_455 S
C1186 C1185 1.396 . S
C1186 C1187 1.399 . S
C1187 H1173 0.929 . S
C1187 C1186 1.399 . S
C1187 C1188 1.385 . S
C1188 H1174 0.931 . S
C1188 C1187 1.385 . S
C1188 C1189 1.389 . S
C1189 C1188 1.389 . S
C1189 C1190 1.387 . S
C1190 H1175 0.930 . S
C1190 C1185 1.390 . S
C1190 C1189 1.387 . S
H1191 C1203 0.930 . S
H1192 C1205 0.930 . S
H1193 C1206 0.930 . S
H1194 C1210 0.959 . S
H1195 C1210 0.959 . S
H1196 C1210 0.937 1_565 S
H1197 C1211 0.960 . S
H1198 C1211 0.961 . S
H1199 C1211 0.959 . S
H1200 C1214 0.929 . S
H1201 C1215 0.931 . S
H1202 C1217 0.930 1_554 S
C1203 H1191 0.930 . S
C1203 C1204 1.399 . S
C1203 C1208 1.399 . S
C1204 C1203 1.399 . S
C1204 C1205 1.376 1_554 S
C1205 H1192 0.930 . S
C1205 C1204 1.376 1_556 S
C1205 C1206 1.388 . S
C1206 H1193 0.930 . S
C1206 C1205 1.388 . S
C1206 C1207 1.390 . S
C1207 C1206 1.390 . S
C1207 C1208 1.394 1_556 S
C1207 C1213 1.465 1_565 S
C1208 C1203 1.399 . S
C1208 C1207 1.394 1_554 S
C1208 C1209 1.516 1_565 S
C1209 C1208 1.516 1_545 S
C1209 C1210 1.502 . S
C1209 C1211 1.561 . S
C1209 C1212 1.526 . S
C1210 H1194 0.959 . S
C1210 H1195 0.959 . S
C1210 H1196 0.937 1_545 S
C1210 C1209 1.502 . S
C1211 H1197 0.960 . S
C1211 H1198 0.961 . S
C1211 H1199 0.959 . S
C1211 C1209 1.561 . S
C1212 C1209 1.526 . S
C1212 C1213 1.396 1_554 S
C1212 C1217 1.390 1_554 S
C1213 C1207 1.465 1_545 S
C1213 C1212 1.396 1_556 S
C1213 C1214 1.399 . S
C1214 H1200 0.929 . S
C1214 C1213 1.399 . S
C1214 C1215 1.385 . S
C1215 H1201 0.931 . S
C1215 C1214 1.385 . S
C1215 C1216 1.389 . S
C1216 C1215 1.389 . S
C1216 C1217 1.387 . S
C1217 H1202 0.930 1_556 S
C1217 C1212 1.390 1_556 S
C1217 C1216 1.387 . S
H1218 C1230 0.930 . S
H1219 C1232 0.930 . S
H1220 C1233 0.930 . S
H1221 C1237 0.959 . S
H1222 C1237 0.959 . S
H1223 C1237 0.975 . S
H1224 C1238 0.960 . S
H1225 C1238 0.961 . S
H1226 C1238 0.959 . S
H1227 C1241 0.929 . S
H1228 C1242 0.931 . S
H1229 C1244 0.930 . S
C1230 H1218 0.930 . S
C1230 C1231 1.399 . S
C1230 C1235 1.399 . S
C1231 C1230 1.399 . S
C1231 C1232 1.376 . S
C1232 H1219 0.930 . S
C1232 C1231 1.376 . S
C1232 C1233 1.388 . S
C1233 H1220 0.930 . S
C1233 C1232 1.388 . S
C1233 C1234 1.390 . S
C1234 C1233 1.390 . S
C1234 C1235 1.394 . S
C1234 C1240 1.465 1_556 S
C1235 C1230 1.399 . S
C1235 C1234 1.394 . S
C1235 C1236 1.516 . S
C1236 C1235 1.516 . S
C1236 C1237 1.502 1_556 S
C1236 C1238 1.561 . S
C1236 C1239 1.526 1_556 S
C1237 H1221 0.959 . S
C1237 H1222 0.959 . S
C1237 H1223 0.975 . S
C1237 C1236 1.502 1_554 S
C1238 H1224 0.960 . S
C1238 H1225 0.961 . S
C1238 H1226 0.959 . S
C1238 C1236 1.561 . S
C1239 C1236 1.526 1_554 S
C1239 C1240 1.396 . S
C1239 C1244 1.390 . S
C1240 C1234 1.465 1_554 S
C1240 C1239 1.396 . S
C1240 C1241 1.399 . S
C1241 H1227 0.929 . S
C1241 C1240 1.399 . S
C1241 C1242 1.385 . S
C1242 H1228 0.931 . S
C1242 C1241 1.385 . S
C1242 C1243 1.389 . S
C1243 C1242 1.389 . S
C1243 C1244 1.387 . S
C1244 H1229 0.930 . S
C1244 C1239 1.390 . S
C1244 C1243 1.387 . S
H1245 C1257 0.930 . S
H1246 C1259 0.930 . S
H1247 C1260 0.930 . S
H1248 C1264 0.959 . S
H1249 C1264 0.959 . S
H1250 C1264 0.961 . S
H1251 C1265 0.960 . S
H1252 C1265 0.961 . S
H1253 C1265 0.959 . S
H1254 C1268 0.929 . S
H1255 C1269 0.931 . S
H1256 C1271 0.930 . S
C1257 H1245 0.930 . S
C1257 C1258 1.399 . S
C1257 C1262 1.399 . S
C1258 C1257 1.399 . S
C1258 C1259 1.376 . S
C1259 H1246 0.930 . S
C1259 C1258 1.376 . S
C1259 C1260 1.388 . S
C1260 H1247 0.930 . S
C1260 C1259 1.388 . S
C1260 C1261 1.390 . S
C1261 C1260 1.390 . S
C1261 C1262 1.394 . S
C1261 C1267 1.465 . S
C1262 C1257 1.399 . S
C1262 C1261 1.394 . S
C1262 C1263 1.516 . S
C1263 C1262 1.516 . S
C1263 C1264 1.502 . S
C1263 C1265 1.561 . S
C1263 C1266 1.526 . S
C1264 H1248 0.959 . S
C1264 H1249 0.959 . S
C1264 H1250 0.961 . S
C1264 C1263 1.502 . S
C1265 H1251 0.960 . S
C1265 H1252 0.961 . S
C1265 H1253 0.959 . S
C1265 C1263 1.561 . S
C1266 C1263 1.526 . S
C1266 C1267 1.396 . S
C1266 C1271 1.390 . S
C1267 C1261 1.465 . S
C1267 C1266 1.396 . S
C1267 C1268 1.399 . S
C1268 H1254 0.929 . S
C1268 C1267 1.399 . S
C1268 C1269 1.385 . S
C1269 H1255 0.931 . S
C1269 C1268 1.385 . S
C1269 C1270 1.389 . S
C1270 C1269 1.389 . S
C1270 C1271 1.387 . S
C1271 H1256 0.930 . S
C1271 C1266 1.390 . S
C1271 C1270 1.387 . S
H1272 C1284 0.930 . S
H1273 C1286 0.930 . S
H1274 C1287 0.930 . S
H1275 C1291 0.959 . S
H1276 C1291 0.959 . S
H1277 C1291 0.961 . S
H1278 C1292 0.960 . S
H1279 C1292 0.961 . S
H1280 C1292 0.959 . S
H1281 C1295 0.929 . S
H1282 C1296 0.931 . S
H1283 C1298 0.930 . S
C1284 H1272 0.930 . S
C1284 C1285 1.399 . S
C1284 C1289 1.399 . S
C1285 C1284 1.399 . S
C1285 C1286 1.376 . S
C1286 H1273 0.930 . S
C1286 C1285 1.376 . S
C1286 C1287 1.388 . S
C1287 H1274 0.930 . S
C1287 C1286 1.388 . S
C1287 C1288 1.390 . S
C1288 C1287 1.390 . S
C1288 C1289 1.394 . S
C1288 C1294 1.465 . S
C1289 C1284 1.399 . S
C1289 C1288 1.394 . S
C1289 C1290 1.516 . S
C1290 C1289 1.516 . S
C1290 C1291 1.502 . S
C1290 C1292 1.561 . S
C1290 C1293 1.526 . S
C1291 H1275 0.959 . S
C1291 H1276 0.959 . S
C1291 H1277 0.961 . S
C1291 C1290 1.502 . S
C1292 H1278 0.960 . S
C1292 H1279 0.961 . S
C1292 H1280 0.959 . S
C1292 C1290 1.561 . S
C1293 C1290 1.526 . S
C1293 C1294 1.396 . S
C1293 C1298 1.390 . S
C1294 C1288 1.465 . S
C1294 C1293 1.396 . S
C1294 C1295 1.399 . S
C1295 H1281 0.929 . S
C1295 C1294 1.399 . S
C1295 C1296 1.385 . S
C1296 H1282 0.931 . S
C1296 C1295 1.385 . S
C1296 C1297 1.389 . S
C1297 C1296 1.389 . S
C1297 C1298 1.387 . S
C1298 H1283 0.930 . S
C1298 C1293 1.390 . S
C1298 C1297 1.387 . S
H1299 C1311 0.930 . S
H1300 C1313 0.930 . S
H1301 C1314 0.930 . S
H1302 C1318 0.959 . S
H1303 C1318 0.959 1_556 S
H1304 C1318 0.961 . S
H1305 C1319 0.960 . S
H1306 C1319 0.961 . S
H1307 C1319 0.959 . S
H1308 C1322 0.929 . S
H1309 C1323 0.931 . S
H1310 C1325 0.930 . S
C1311 H1299 0.930 . S
C1311 C1312 1.399 . S
C1311 C1316 1.399 . S
C1312 C1311 1.399 . S
C1312 C1313 1.376 . S
C1313 H1300 0.930 . S
C1313 C1312 1.376 . S
C1313 C1314 1.388 . S
C1314 H1301 0.930 . S
C1314 C1313 1.388 . S
C1314 C1315 1.390 . S
C1315 C1314 1.390 . S
C1315 C1316 1.394 . S
C1315 C1321 1.465 1_554 S
C1316 C1311 1.399 . S
C1316 C1315 1.394 . S
C1316 C1317 1.516 1_554 S
C1317 C1316 1.516 1_556 S
C1317 C1318 1.502 1_556 S
C1317 C1319 1.561 . S
C1317 C1320 1.526 . S
C1318 H1302 0.959 . S
C1318 H1303 0.959 1_554 S
C1318 H1304 0.961 . S
C1318 C1317 1.502 1_554 S
C1319 H1305 0.960 . S
C1319 H1306 0.961 . S
C1319 H1307 0.959 . S
C1319 C1317 1.561 . S
C1320 C1317 1.526 . S
C1320 C1321 1.396 . S
C1320 C1325 1.390 . S
C1321 C1315 1.465 1_556 S
C1321 C1320 1.396 . S
C1321 C1322 1.399 . S
C1322 H1308 0.929 . S
C1322 C1321 1.399 . S
C1322 C1323 1.385 . S
C1323 H1309 0.931 . S
C1323 C1322 1.385 . S
C1323 C1324 1.389 . S
C1324 C1323 1.389 . S
C1324 C1325 1.387 . S
C1325 H1310 0.930 . S
C1325 C1320 1.390 . S
C1325 C1324 1.387 . S
H1326 C1338 0.930 . S
H1327 C1340 0.930 . S
H1328 C1341 0.930 . S
H1329 C1345 0.959 . S
H1330 C1345 0.959 . S
H1331 C1345 0.961 . S
H1332 C1346 0.960 . S
H1333 C1346 0.961 . S
H1334 C1346 0.959 . S
H1335 C1349 0.929 . S
H1336 C1350 0.931 . S
H1337 C1352 0.930 . S
C1338 H1326 0.930 . S
C1338 C1339 1.399 . S
C1338 C1343 1.399 . S
C1339 C1338 1.399 . S
C1339 C1340 1.376 . S
C1340 H1327 0.930 . S
C1340 C1339 1.376 . S
C1340 C1341 1.388 . S
C1341 H1328 0.930 . S
C1341 C1340 1.388 . S
C1341 C1342 1.390 . S
C1342 C1341 1.390 . S
C1342 C1343 1.394 . S
C1342 C1348 1.465 . S
C1343 C1338 1.399 . S
C1343 C1342 1.394 . S
C1343 C1344 1.516 . S
C1344 C1343 1.516 . S
C1344 C1345 1.502 . S
C1344 C1346 1.561 . S
C1344 C1347 1.526 . S
C1345 H1329 0.959 . S
C1345 H1330 0.959 . S
C1345 H1331 0.961 . S
C1345 C1344 1.502 . S
C1346 H1332 0.960 . S
C1346 H1333 0.961 . S
C1346 H1334 0.959 . S
C1346 C1344 1.561 . S
C1347 C1344 1.526 . S
C1347 C1348 1.396 . S
C1347 C1352 1.390 . S
C1348 C1342 1.465 . S
C1348 C1347 1.396 . S
C1348 C1349 1.399 . S
C1349 H1335 0.929 . S
C1349 C1348 1.399 . S
C1349 C1350 1.385 . S
C1350 H1336 0.931 . S
C1350 C1349 1.385 . S
C1350 C1351 1.389 . S
C1351 C1350 1.389 . S
C1351 C1352 1.387 . S
C1352 H1337 0.930 . S
C1352 C1347 1.390 . S
C1352 C1351 1.387 . S
H1353 C1365 0.930 . S
H1354 C1367 0.930 . S
H1355 C1368 0.930 . S
H1356 C1372 0.959 . S
H1357 C1372 0.959 . S
H1358 C1372 0.961 . S
H1359 C1373 0.960 . S
H1360 C1373 0.961 . S
H1361 C1373 0.959 . S
H1362 C1376 0.929 . S
H1363 C1377 0.931 . S
H1364 C1379 0.930 . S
C1365 H1353 0.930 . S
C1365 C1366 1.399 . S
C1365 C1370 1.399 . S
C1366 C1365 1.399 . S
C1366 C1367 1.376 . S
C1367 H1354 0.930 . S
C1367 C1366 1.376 . S
C1367 C1368 1.388 . S
C1368 H1355 0.930 . S
C1368 C1367 1.388 . S
C1368 C1369 1.390 . S
C1369 C1368 1.390 . S
C1369 C1370 1.394 . S
C1369 C1375 1.465 . S
C1370 C1365 1.399 . S
C1370 C1369 1.394 . S
C1370 C1371 1.516 . S
C1371 C1370 1.516 . S
C1371 C1372 1.502 . S
C1371 C1373 1.561 . S
C1371 C1374 1.526 . S
C1372 H1356 0.959 . S
C1372 H1357 0.959 . S
C1372 H1358 0.961 . S
C1372 C1371 1.502 . S
C1373 H1359 0.960 . S
C1373 H1360 0.961 . S
C1373 H1361 0.959 . S
C1373 C1371 1.561 . S
C1374 C1371 1.526 . S
C1374 C1375 1.396 . S
C1374 C1379 1.390 . S
C1375 C1369 1.465 . S
C1375 C1374 1.396 . S
C1375 C1376 1.399 . S
C1376 H1362 0.929 . S
C1376 C1375 1.399 . S
C1376 C1377 1.385 . S
C1377 H1363 0.931 . S
C1377 C1376 1.385 . S
C1377 C1378 1.389 . S
C1378 C1377 1.389 . S
C1378 C1379 1.387 . S
C1379 H1364 0.930 . S
C1379 C1374 1.390 . S
C1379 C1378 1.387 . S
H1380 C1392 0.930 . S
H1381 C1394 0.930 . S
H1382 C1395 0.930 . S
H1383 C1399 0.959 . S
H1384 C1399 0.959 . S
H1385 C1399 0.961 . S
H1386 C1400 0.960 . S
H1387 C1400 0.961 . S
H1388 C1400 0.959 . S
H1389 C1403 0.929 . S
H1390 C1404 0.931 . S
H1391 C1406 0.930 . S
C1392 H1380 0.930 . S
C1392 C1393 1.399 . S
C1392 C1397 1.399 . S
C1393 C1392 1.399 . S
C1393 C1394 1.376 . S
C1394 H1381 0.930 . S
C1394 C1393 1.376 . S
C1394 C1395 1.388 . S
C1395 H1382 0.930 . S
C1395 C1394 1.388 . S
C1395 C1396 1.390 . S
C1396 C1395 1.390 . S
C1396 C1397 1.394 . S
C1396 C1402 1.465 . S
C1397 C1392 1.399 . S
C1397 C1396 1.394 . S
C1397 C1398 1.516 . S
C1398 C1397 1.516 . S
C1398 C1399 1.502 . S
C1398 C1400 1.561 . S
C1398 C1401 1.526 . S
C1399 H1383 0.959 . S
C1399 H1384 0.959 . S
C1399 H1385 0.961 . S
C1399 C1398 1.502 . S
C1400 H1386 0.960 . S
C1400 H1387 0.961 . S
C1400 H1388 0.959 . S
C1400 C1398 1.561 . S
C1401 C1398 1.526 . S
C1401 C1402 1.396 . S
C1401 C1406 1.390 . S
C1402 C1396 1.465 . S
C1402 C1401 1.396 . S
C1402 C1403 1.399 . S
C1403 H1389 0.929 . S
C1403 C1402 1.399 . S
C1403 C1404 1.385 . S
C1404 H1390 0.931 . S
C1404 C1403 1.385 . S
C1404 C1405 1.389 . S
C1405 C1404 1.389 . S
C1405 C1406 1.387 . S
C1406 H1391 0.930 . S
C1406 C1401 1.390 . S
C1406 C1405 1.387 . S
H1407 C1419 0.930 . S
H1408 C1421 0.930 . S
H1409 C1422 0.930 . S
H1410 C1426 0.959 . S
H1411 C1426 0.959 . S
H1412 C1426 0.961 . S
H1413 C1427 0.960 . S
H1414 C1427 0.961 . S
H1415 C1427 0.959 . S
H1416 C1430 0.929 . S
H1417 C1431 0.931 . S
H1418 C1433 0.930 . S
C1419 H1407 0.930 . S
C1419 C1420 1.399 . S
C1419 C1424 1.399 . S
C1420 C1419 1.399 . S
C1420 C1421 1.376 . S
C1421 H1408 0.930 . S
C1421 C1420 1.376 . S
C1421 C1422 1.388 . S
C1422 H1409 0.930 . S
C1422 C1421 1.388 . S
C1422 C1423 1.390 . S
C1423 C1422 1.390 . S
C1423 C1424 1.394 . S
C1423 C1429 1.465 . S
C1424 C1419 1.399 . S
C1424 C1423 1.394 . S
C1424 C1425 1.516 . S
C1425 C1424 1.516 . S
C1425 C1426 1.502 . S
C1425 C1427 1.561 . S
C1425 C1428 1.526 . S
C1426 H1410 0.959 . S
C1426 H1411 0.959 . S
C1426 H1412 0.961 . S
C1426 C1425 1.502 . S
C1427 H1413 0.960 . S
C1427 H1414 0.961 . S
C1427 H1415 0.959 . S
C1427 C1425 1.561 . S
C1428 C1425 1.526 . S
C1428 C1429 1.396 . S
C1428 C1433 1.390 . S
C1429 C1423 1.465 . S
C1429 C1428 1.396 . S
C1429 C1430 1.399 . S
C1430 H1416 0.929 . S
C1430 C1429 1.399 . S
C1430 C1431 1.385 . S
C1431 H1417 0.931 . S
C1431 C1430 1.385 . S
C1431 C1432 1.389 . S
C1432 C1431 1.389 . S
C1432 C1433 1.387 . S
C1433 H1418 0.930 . S
C1433 C1428 1.390 . S
C1433 C1432 1.387 . S
H1434 C1446 0.930 . S
H1435 C1448 0.930 . S
H1436 C1449 0.930 . S
H1437 C1453 0.959 . S
H1438 C1453 0.959 . S
H1439 C1453 0.961 . S
H1440 C1454 0.960 . S
H1441 C1454 0.961 . S
H1442 C1454 0.959 . S
H1443 C1457 0.929 . S
H1444 C1458 0.931 . S
H1445 C1460 0.930 . S
C1446 H1434 0.930 . S
C1446 C1447 1.399 . S
C1446 C1451 1.399 . S
C1447 C1446 1.399 . S
C1447 C1448 1.376 . S
C1448 H1435 0.930 . S
C1448 C1447 1.376 . S
C1448 C1449 1.388 . S
C1449 H1436 0.930 . S
C1449 C1448 1.388 . S
C1449 C1450 1.390 . S
C1450 C1449 1.390 . S
C1450 C1451 1.394 . S
C1450 C1456 1.465 . S
C1451 C1446 1.399 . S
C1451 C1450 1.394 . S
C1451 C1452 1.516 . S
C1452 C1451 1.516 . S
C1452 C1453 1.502 . S
C1452 C1454 1.561 . S
C1452 C1455 1.526 . S
C1453 H1437 0.959 . S
C1453 H1438 0.959 . S
C1453 H1439 0.961 . S
C1453 C1452 1.502 . S
C1454 H1440 0.960 . S
C1454 H1441 0.961 . S
C1454 H1442 0.959 . S
C1454 C1452 1.561 . S
C1455 C1452 1.526 . S
C1455 C1456 1.396 . S
C1455 C1460 1.390 . S
C1456 C1450 1.465 . S
C1456 C1455 1.396 . S
C1456 C1457 1.399 . S
C1457 H1443 0.929 . S
C1457 C1456 1.399 . S
C1457 C1458 1.385 . S
C1458 H1444 0.931 . S
C1458 C1457 1.385 . S
C1458 C1459 1.389 . S
C1459 C1458 1.389 . S
C1459 C1460 1.387 . S
C1460 H1445 0.930 . S
C1460 C1455 1.390 . S
C1460 C1459 1.387 . S
H1461 C1473 0.930 . S
H1462 C1475 0.930 . S
H1463 C1476 0.930 . S
H1464 C1480 0.959 . S
H1465 C1480 0.959 . S
H1466 C1480 0.961 . S
H1467 C1481 0.960 . S
H1468 C1481 0.961 . S
H1469 C1481 0.959 . S
H1470 C1484 0.929 . S
H1471 C1485 0.931 . S
H1472 C1487 0.930 . S
C1473 H1461 0.930 . S
C1473 C1474 1.399 . S
C1473 C1478 1.399 . S
C1474 C1473 1.399 . S
C1474 C1475 1.376 . S
C1475 H1462 0.930 . S
C1475 C1474 1.376 . S
C1475 C1476 1.388 . S
C1476 H1463 0.930 . S
C1476 C1475 1.388 . S
C1476 C1477 1.390 . S
C1477 C1476 1.390 . S
C1477 C1478 1.394 . S
C1477 C1483 1.465 . S
C1478 C1473 1.399 . S
C1478 C1477 1.394 . S
C1478 C1479 1.516 . S
C1479 C1478 1.516 . S
C1479 C1480 1.502 . S
C1479 C1481 1.561 . S
C1479 C1482 1.526 . S
C1480 H1464 0.959 . S
C1480 H1465 0.959 . S
C1480 H1466 0.961 . S
C1480 C1479 1.502 . S
C1481 H1467 0.960 . S
C1481 H1468 0.961 . S
C1481 H1469 0.959 . S
C1481 C1479 1.561 . S
C1482 C1479 1.526 . S
C1482 C1483 1.396 . S
C1482 C1487 1.390 . S
C1483 C1477 1.465 . S
C1483 C1482 1.396 . S
C1483 C1484 1.399 . S
C1484 H1470 0.929 . S
C1484 C1483 1.399 . S
C1484 C1485 1.385 . S
C1485 H1471 0.931 . S
C1485 C1484 1.385 . S
C1485 C1486 1.389 . S
C1486 C1485 1.389 . S
C1486 C1487 1.387 . S
C1487 H1472 0.930 . S
C1487 C1482 1.390 . S
C1487 C1486 1.387 . S
H1488 C1500 0.930 . S
H1489 C1502 0.930 . S
H1490 C1503 0.930 . S
H1491 C1507 0.959 . S
H1492 C1507 0.959 . S
H1493 C1507 0.961 . S
H1494 C1508 0.960 . S
H1495 C1508 0.961 . S
H1496 C1508 0.959 . S
H1497 C1511 0.929 . S
H1498 C1512 0.931 . S
H1499 C1514 0.930 . S
C1500 H1488 0.930 . S
C1500 C1501 1.399 . S
C1500 C1505 1.399 . S
C1501 C1500 1.399 . S
C1501 C1502 1.376 . S
C1502 H1489 0.930 . S
C1502 C1501 1.376 . S
C1502 C1503 1.388 . S
C1503 H1490 0.930 . S
C1503 C1502 1.388 . S
C1503 C1504 1.390 . S
C1504 C1503 1.390 . S
C1504 C1505 1.394 . S
C1504 C1510 1.465 . S
C1505 C1500 1.399 . S
C1505 C1504 1.394 . S
C1505 C1506 1.516 . S
C1506 C1505 1.516 . S
C1506 C1507 1.502 . S
C1506 C1508 1.561 . S
C1506 C1509 1.526 . S
C1507 H1491 0.959 . S
C1507 H1492 0.959 . S
C1507 H1493 0.961 . S
C1507 C1506 1.502 . S
C1508 H1494 0.960 . S
C1508 H1495 0.961 . S
C1508 H1496 0.959 . S
C1508 C1506 1.561 . S
C1509 C1506 1.526 . S
C1509 C1510 1.396 . S
C1509 C1514 1.390 . S
C1510 C1504 1.465 . S
C1510 C1509 1.396 . S
C1510 C1511 1.399 . S
C1511 H1497 0.929 . S
C1511 C1510 1.399 . S
C1511 C1512 1.385 . S
C1512 H1498 0.931 . S
C1512 C1511 1.385 . S
C1512 C1513 1.389 . S
C1513 C1512 1.389 . S
C1513 C1514 1.387 . S
C1514 H1499 0.930 . S
C1514 C1509 1.390 . S
C1514 C1513 1.387 . S
H1515 C1527 0.930 . S
H1516 C1529 0.930 . S
H1517 C1530 0.930 . S
H1518 C1534 0.959 . S
H1519 C1534 0.959 . S
H1520 C1534 0.961 . S
H1521 C1535 0.960 . S
H1522 C1535 0.961 . S
H1523 C1535 0.959 . S
H1524 C1538 0.929 . S
H1525 C1539 0.931 . S
H1526 C1541 0.930 . S
C1527 H1515 0.930 . S
C1527 C1528 1.399 . S
C1527 C1532 1.399 . S
C1528 C1527 1.399 . S
C1528 C1529 1.376 . S
C1529 H1516 0.930 . S
C1529 C1528 1.376 . S
C1529 C1530 1.388 . S
C1530 H1517 0.930 . S
C1530 C1529 1.388 . S
C1530 C1531 1.390 . S
C1531 C1530 1.390 . S
C1531 C1532 1.394 . S
C1531 C1537 1.465 . S
C1532 C1527 1.399 . S
C1532 C1531 1.394 . S
C1532 C1533 1.516 . S
C1533 C1532 1.516 . S
C1533 C1534 1.502 . S
C1533 C1535 1.561 . S
C1533 C1536 1.526 . S
C1534 H1518 0.959 . S
C1534 H1519 0.959 . S
C1534 H1520 0.961 . S
C1534 C1533 1.502 . S
C1535 H1521 0.960 . S
C1535 H1522 0.961 . S
C1535 H1523 0.959 . S
C1535 C1533 1.561 . S
C1536 C1533 1.526 . S
C1536 C1537 1.396 . S
C1536 C1541 1.390 . S
C1537 C1531 1.465 . S
C1537 C1536 1.396 . S
C1537 C1538 1.399 . S
C1538 H1524 0.929 . S
C1538 C1537 1.399 . S
C1538 C1539 1.385 . S
C1539 H1525 0.931 . S
C1539 C1538 1.385 . S
C1539 C1540 1.389 . S
C1540 C1539 1.389 . S
C1540 C1541 1.387 . S
C1541 H1526 0.930 . S
C1541 C1536 1.390 . S
C1541 C1540 1.387 . S
H1542 C1554 0.930 . S
H1543 C1556 0.930 . S
H1544 C1557 0.930 . S
H1545 C1561 0.959 . S
H1546 C1561 0.959 . S
H1547 C1561 0.961 . S
H1548 C1562 0.960 . S
H1549 C1562 0.961 . S
H1550 C1562 0.959 . S
H1551 C1565 0.929 . S
H1552 C1566 0.931 . S
H1553 C1568 0.930 . S
C1554 H1542 0.930 . S
C1554 C1555 1.399 . S
C1554 C1559 1.399 . S
C1555 C1554 1.399 . S
C1555 C1556 1.376 . S
C1556 H1543 0.930 . S
C1556 C1555 1.376 . S
C1556 C1557 1.388 . S
C1557 H1544 0.930 . S
C1557 C1556 1.388 . S
C1557 C1558 1.390 . S
C1558 C1557 1.390 . S
C1558 C1559 1.394 . S
C1558 C1564 1.465 . S
C1559 C1554 1.399 . S
C1559 C1558 1.394 . S
C1559 C1560 1.516 . S
C1560 C1559 1.516 . S
C1560 C1561 1.502 . S
C1560 C1562 1.561 . S
C1560 C1563 1.526 . S
C1561 H1545 0.959 . S
C1561 H1546 0.959 . S
C1561 H1547 0.961 . S
C1561 C1560 1.502 . S
C1562 H1548 0.960 . S
C1562 H1549 0.961 . S
C1562 H1550 0.959 . S
C1562 C1560 1.561 . S
C1563 C1560 1.526 . S
C1563 C1564 1.396 . S
C1563 C1568 1.390 . S
C1564 C1558 1.465 . S
C1564 C1563 1.396 . S
C1564 C1565 1.399 . S
C1565 H1551 0.929 . S
C1565 C1564 1.399 . S
C1565 C1566 1.385 . S
C1566 H1552 0.931 . S
C1566 C1565 1.385 . S
C1566 C1567 1.389 . S
C1567 C1566 1.389 . S
C1567 C1568 1.387 . S
C1568 H1553 0.930 . S
C1568 C1563 1.390 . S
C1568 C1567 1.387 . S
H1569 C1581 0.930 . S
H1570 C1583 0.930 . S
H1571 C1584 0.930 . S
H1572 C1588 0.959 . S
H1573 C1588 0.959 . S
H1574 C1588 0.961 . S
H1575 C1589 0.960 . S
H1576 C1589 0.961 . S
H1577 C1589 0.959 . S
H1578 C1592 0.929 . S
H1579 C1593 0.931 . S
H1580 C1595 0.930 . S
C1581 H1569 0.930 . S
C1581 C1582 1.399 . S
C1581 C1586 1.399 . S
C1582 C1581 1.399 . S
C1582 C1583 1.376 . S
C1583 H1570 0.930 . S
C1583 C1582 1.376 . S
C1583 C1584 1.388 . S
C1584 H1571 0.930 . S
C1584 C1583 1.388 . S
C1584 C1585 1.390 . S
C1585 C1584 1.390 . S
C1585 C1586 1.394 . S
C1585 C1591 1.465 . S
C1586 C1581 1.399 . S
C1586 C1585 1.394 . S
C1586 C1587 1.516 . S
C1587 C1586 1.516 . S
C1587 C1588 1.502 . S
C1587 C1589 1.561 . S
C1587 C1590 1.526 . S
C1588 H1572 0.959 . S
C1588 H1573 0.959 . S
C1588 H1574 0.961 . S
C1588 C1587 1.502 . S
C1589 H1575 0.960 . S
C1589 H1576 0.961 . S
C1589 H1577 0.959 . S
C1589 C1587 1.561 . S
C1590 C1587 1.526 . S
C1590 C1591 1.396 . S
C1590 C1595 1.390 . S
C1591 C1585 1.465 . S
C1591 C1590 1.396 . S
C1591 C1592 1.399 . S
C1592 H1578 0.929 . S
C1592 C1591 1.399 . S
C1592 C1593 1.385 . S
C1593 H1579 0.931 . S
C1593 C1592 1.385 . S
C1593 C1594 1.389 . S
C1594 C1593 1.389 . S
C1594 C1595 1.387 . S
C1595 H1580 0.930 . S
C1595 C1590 1.390 . S
C1595 C1594 1.387 . S
H1596 C1608 0.930 . S
H1597 C1610 0.930 1_554 S
H1598 C1611 0.930 . S
H1599 C1615 0.959 . S
H1600 C1615 0.959 . S
H1601 C1615 0.961 . S
H1602 C1616 0.960 1_556 S
H1603 C1616 0.961 . S
H1604 C1616 0.959 . S
H1605 C1619 0.929 . S
H1606 C1620 0.931 . S
H1607 C1622 0.930 . S
C1608 H1596 0.930 . S
C1608 C1609 1.399 . S
C1608 C1613 1.399 . S
C1609 C1608 1.399 . S
C1609 C1610 1.376 . S
C1610 H1597 0.930 1_556 S
C1610 C1609 1.376 . S
C1610 C1611 1.388 1_556 S
C1611 H1598 0.930 . S
C1611 C1610 1.388 1_554 S
C1611 C1612 1.390 . S
C1612 C1611 1.390 . S
C1612 C1613 1.394 1_554 S
C1612 C1618 1.465 . S
C1613 C1608 1.399 . S
C1613 C1612 1.394 1_556 S
C1613 C1614 1.516 . S
C1614 C1613 1.516 . S
C1614 C1615 1.502 . S
C1614 C1616 1.561 1_556 S
C1614 C1617 1.526 1_556 S
C1615 H1599 0.959 . S
C1615 H1600 0.959 . S
C1615 H1601 0.961 . S
C1615 C1614 1.502 . S
C1616 H1602 0.960 1_554 S
C1616 H1603 0.961 . S
C1616 H1604 0.959 . S
C1616 C1614 1.561 1_554 S
C1617 C1614 1.526 1_554 S
C1617 C1618 1.396 . S
C1617 C1622 1.390 . S
C1618 C1612 1.465 . S
C1618 C1617 1.396 . S
C1618 C1619 1.399 . S
C1619 H1605 0.929 . S
C1619 C1618 1.399 . S
C1619 C1620 1.385 . S
C1620 H1606 0.931 . S
C1620 C1619 1.385 . S
C1620 C1621 1.389 . S
C1621 C1620 1.389 . S
C1621 C1622 1.387 . S
C1622 H1607 0.930 . S
C1622 C1617 1.390 . S
C1622 C1621 1.387 . S
H1623 C1635 0.930 . S
H1624 C1637 0.930 . S
H1625 C1638 0.930 . S
H1626 C1642 0.959 . S
H1627 C1642 0.959 . S
H1628 C1642 0.961 . S
H1629 C1643 0.960 . S
H1630 C1643 0.961 . S
H1631 C1643 0.959 . S
H1632 C1646 0.929 . S
H1633 C1647 0.931 . S
H1634 C1649 0.930 . S
C1635 H1623 0.930 . S
C1635 C1636 1.399 . S
C1635 C1640 1.399 . S
C1636 C1635 1.399 . S
C1636 C1637 1.376 . S
C1637 H1624 0.930 . S
C1637 C1636 1.376 . S
C1637 C1638 1.388 . S
C1638 H1625 0.930 . S
C1638 C1637 1.388 . S
C1638 C1639 1.390 . S
C1639 C1638 1.390 . S
C1639 C1640 1.394 . S
C1639 C1645 1.465 . S
C1640 C1635 1.399 . S
C1640 C1639 1.394 . S
C1640 C1641 1.516 . S
C1641 C1640 1.516 . S
C1641 C1642 1.502 . S
C1641 C1643 1.561 . S
C1641 C1644 1.526 . S
C1642 H1626 0.959 . S
C1642 H1627 0.959 . S
C1642 H1628 0.961 . S
C1642 C1641 1.502 . S
C1643 H1629 0.960 . S
C1643 H1630 0.961 . S
C1643 H1631 0.959 . S
C1643 C1641 1.561 . S
C1644 C1641 1.526 . S
C1644 C1645 1.396 . S
C1644 C1649 1.390 . S
C1645 C1639 1.465 . S
C1645 C1644 1.396 . S
C1645 C1646 1.399 . S
C1646 H1632 0.929 . S
C1646 C1645 1.399 . S
C1646 C1647 1.385 . S
C1647 H1633 0.931 . S
C1647 C1646 1.385 . S
C1647 C1648 1.389 . S
C1648 C1647 1.389 . S
C1648 C1649 1.387 . S
C1649 H1634 0.930 . S
C1649 C1644 1.390 . S
C1649 C1648 1.387 . S
H1650 C1662 0.930 . S
H1651 C1664 0.930 . S
H1652 C1665 0.930 . S
H1653 C1669 0.959 . S
H1654 C1669 0.959 . S
H1655 C1669 0.961 . S
H1656 C1670 0.960 . S
H1657 C1670 0.961 . S
H1658 C1670 0.959 . S
H1659 C1673 0.929 . S
H1660 C1674 0.931 . S
H1661 C1676 0.930 . S
C1662 H1650 0.930 . S
C1662 C1663 1.399 . S
C1662 C1667 1.399 . S
C1663 C1662 1.399 . S
C1663 C1664 1.376 . S
C1664 H1651 0.930 . S
C1664 C1663 1.376 . S
C1664 C1665 1.388 . S
C1665 H1652 0.930 . S
C1665 C1664 1.388 . S
C1665 C1666 1.390 . S
C1666 C1665 1.390 . S
C1666 C1667 1.394 . S
C1666 C1672 1.465 . S
C1667 C1662 1.399 . S
C1667 C1666 1.394 . S
C1667 C1668 1.516 . S
C1668 C1667 1.516 . S
C1668 C1669 1.502 . S
C1668 C1670 1.561 . S
C1668 C1671 1.526 . S
C1669 H1653 0.959 . S
C1669 H1654 0.959 . S
C1669 H1655 0.961 . S
C1669 C1668 1.502 . S
C1670 H1656 0.960 . S
C1670 H1657 0.961 . S
C1670 H1658 0.959 . S
C1670 C1668 1.561 . S
C1671 C1668 1.526 . S
C1671 C1672 1.396 . S
C1671 C1676 1.390 . S
C1672 C1666 1.465 . S
C1672 C1671 1.396 . S
C1672 C1673 1.399 . S
C1673 H1659 0.929 . S
C1673 C1672 1.399 . S
C1673 C1674 1.385 . S
C1674 H1660 0.931 . S
C1674 C1673 1.385 . S
C1674 C1675 1.389 . S
C1675 C1674 1.389 . S
C1675 C1676 1.387 . S
C1676 H1661 0.930 . S
C1676 C1671 1.390 . S
C1676 C1675 1.387 . S
H1677 C1689 0.930 . S
H1678 C1691 0.930 . S
H1679 C1692 0.930 . S
H1680 C1696 0.959 . S
H1681 C1696 0.959 . S
H1682 C1696 0.961 . S
H1683 C1697 0.960 . S
H1684 C1697 0.961 . S
H1685 C1697 0.959 . S
H1686 C1700 0.929 . S
H1687 C1701 0.931 . S
H1688 C1703 0.930 . S
C1689 H1677 0.930 . S
C1689 C1690 1.399 . S
C1689 C1694 1.399 . S
C1690 C1689 1.399 . S
C1690 C1691 1.376 . S
C1691 H1678 0.930 . S
C1691 C1690 1.376 . S
C1691 C1692 1.388 . S
C1692 H1679 0.930 . S
C1692 C1691 1.388 . S
C1692 C1693 1.390 . S
C1693 C1692 1.390 . S
C1693 C1694 1.394 . S
C1693 C1699 1.465 . S
C1694 C1689 1.399 . S
C1694 C1693 1.394 . S
C1694 C1695 1.516 1_554 S
C1695 C1694 1.516 1_556 S
C1695 C1696 1.502 . S
C1695 C1697 1.561 1_556 S
C1695 C1698 1.526 . S
C1696 H1680 0.959 . S
C1696 H1681 0.959 . S
C1696 H1682 0.961 . S
C1696 C1695 1.502 . S
C1697 H1683 0.960 . S
C1697 H1684 0.961 . S
C1697 H1685 0.959 . S
C1697 C1695 1.561 1_554 S
C1698 C1695 1.526 . S
C1698 C1699 1.396 1_556 S
C1698 C1703 1.390 . S
C1699 C1693 1.465 . S
C1699 C1698 1.396 1_554 S
C1699 C1700 1.399 . S
C1700 H1686 0.929 . S
C1700 C1699 1.399 . S
C1700 C1701 1.385 1_554 S
C1701 H1687 0.931 . S
C1701 C1700 1.385 1_556 S
C1701 C1702 1.389 . S
C1702 C1701 1.389 . S
C1702 C1703 1.387 . S
C1703 H1688 0.930 . S
C1703 C1698 1.390 . S
C1703 C1702 1.387 . S
C1069 C29 1.376 . S
C1081 C849 1.391 . S
C1096 C117 1.417 . S
C1108 C937 1.380 . S
C1123 C196 1.420 . S
C1135 C1017 1.386 . S
C1150 C293 1.373 . S
C1162 C585 1.399 . S
C1177 C665 1.418 . S
C1189 C381 1.398 . S
C1204 C761 1.373 . S
C1216 C469 1.399 . S
C1231 C909 1.948 . S
C1243 C57 1.952 . S
C1258 C145 1.958 . S
C1270 C988 1.960 . S
C1285 C225 1.950 . S
C1297 C557 1.949 . S
C1312 C321 1.960 . S
C1324 C636 1.958 . S
C1339 C409 1.947 . S
C1351 C733 1.954 . S
C1366 C497 1.949 . S
C1378 C821 1.960 . S
C1393 C929 0.077 . S
C1405 C20 0.218 . S
C1420 C108 0.293 . S
C1432 C1025 0.111 . S
C1447 C205 0.130 . S
C1459 C577 0.155 . S
C1474 C284 0.344 . S
C1486 C673 0.269 . S
C1501 C372 0.313 . S
C1513 C753 0.145 . S
C1528 C460 0.285 . S
C1540 C841 0.338 . S
C1555 C49 1.664 . S
C1567 C548 1.681 . S
C1582 C645 1.669 . S
C1594 C137 1.677 . S
C1609 C233 1.650 . S
C1621 C724 1.673 . S
C1636 C313 1.658 . S
C1648 C812 1.683 . S
C1663 C401 1.656 . S
C1675 C900 1.683 . S
C1690 C997 1.681 . S
C1702 C489 1.665 . S
