# Generated by pormake.
# Topology uoj, (4)-cn, num edge types: 1
# Building blocks:
#     Node 0, Type 0, BuildingBlock: KUFVIS_clean_sbu_0, # of connection points: 4
#     Node 1, Type 0, BuildingBlock: KUFVIS_clean_sbu_0, # of connection points: 4
#     Node 2, Type 0, BuildingBlock: KUFVIS_clean_sbu_0, # of connection points: 4
#     Node 3, Type 0, BuildingBlock: KUFVIS_clean_sbu_0, # of connection points: 4
#     Node 4, Type 0, BuildingBlock: KUFVIS_clean_sbu_0, # of connection points: 4
#     Node 5, Type 0, BuildingBlock: KUFVIS_clean_sbu_0, # of connection points: 4
#     Node 6, Type 0, BuildingBlock: KUFVIS_clean_sbu_0, # of connection points: 4
#     Node 7, Type 0, BuildingBlock: KUFVIS_clean_sbu_0, # of connection points: 4
#     Edge 8, Type (0, 0), BuildingBlock: KIFKEQ_clean_linker_1, # of connection points: 2
#     Edge 9, Type (0, 0), BuildingBlock: KIFKEQ_clean_linker_1, # of connection points: 2
#     Edge 10, Type (0, 0), BuildingBlock: KIFKEQ_clean_linker_1, # of connection points: 2
#     Edge 11, Type (0, 0), BuildingBlock: KIFKEQ_clean_linker_1, # of connection points: 2
#     Edge 12, Type (0, 0), BuildingBlock: KIFKEQ_clean_linker_1, # of connection points: 2
#     Edge 13, Type (0, 0), BuildingBlock: KIFKEQ_clean_linker_1, # of connection points: 2
#     Edge 14, Type (0, 0), BuildingBlock: KIFKEQ_clean_linker_1, # of connection points: 2
#     Edge 15, Type (0, 0), BuildingBlock: KIFKEQ_clean_linker_1, # of connection points: 2
#     Edge 16, Type (0, 0), BuildingBlock: KIFKEQ_clean_linker_1, # of connection points: 2
#     Edge 17, Type (0, 0), BuildingBlock: KIFKEQ_clean_linker_1, # of connection points: 2
#     Edge 18, Type (0, 0), BuildingBlock: KIFKEQ_clean_linker_1, # of connection points: 2
#     Edge 19, Type (0, 0), BuildingBlock: KIFKEQ_clean_linker_1, # of connection points: 2
#     Edge 20, Type (0, 0), BuildingBlock: KIFKEQ_clean_linker_1, # of connection points: 2
#     Edge 21, Type (0, 0), BuildingBlock: KIFKEQ_clean_linker_1, # of connection points: 2
#     Edge 22, Type (0, 0), BuildingBlock: KIFKEQ_clean_linker_1, # of connection points: 2
#     Edge 23, Type (0, 0), BuildingBlock: KIFKEQ_clean_linker_1, # of connection points: 2
# Relax obj value: 0.138
# Max RMSD: 0.160
# Mean RMSD: 0.160
data_MOF--net-uoj--node1-KUFVIS_clean_sbu_0--edge1-KIFKEQ_clean_linker_1
_symmetry_space_group_name_H-M    P1
_symmetry_Int_Tables_number       1
_symmetry_cell_setting            triclinic
loop_
_symmetry_equiv_pos_as_xyz
'x, y, z'
_cell_length_a     33.333971
_cell_length_b     33.317543
_cell_length_c     36.420141
_cell_angle_alpha  90.003865
_cell_angle_beta   90.005426
_cell_angle_gamma 90.005364
loop_
_atom_site_label
_atom_site_type_symbol
_atom_site_fract_x
_atom_site_fract_y
_atom_site_fract_z
_atom_type_partial_charge
Mn0 Mn 0.07215 0.30044 0.42974 0.0
Mn1 Mn 0.06807 0.31432 0.52163 0.0
C2 C 0.04687 0.35928 0.45248 0.0
C3 C 0.10799 0.30295 0.37494 0.0
C4 C 0.00691 0.26538 0.47946 0.0
O5 O 0.10716 0.25613 0.44954 0.0
O6 O 0.1053 0.26907 0.51012 0.0
C7 C 0.1514 0.34273 0.53216 0.0
N8 N 0.1112 0.34875 0.53585 0.0
C9 C 0.12188 0.4129 0.5646 0.0
C10 C 0.16342 0.40726 0.56135 0.0
C11 C 0.17823 0.37205 0.54499 0.0
C12 C 0.09662 0.38256 0.55144 0.0
H13 H 0.16288 0.31578 0.51946 0.0
C14 C 0.11729 0.24848 0.48249 0.0
O15 O 0.07765 0.27887 0.37899 0.0
O16 O 0.11806 0.32467 0.40303 0.0
N17 N 0.03354 0.3568 0.53754 0.0
C18 C 0.99267 0.35807 0.53772 0.0
C19 C 0.97306 0.39173 0.55245 0.0
C20 C 0.99562 0.4234 0.56734 0.0
C21 C 0.03761 0.42098 0.56764 0.0
C22 C 0.05549 0.38661 0.55271 0.0
H23 H 0.97516 0.3338 0.52635 0.0
O24 O 0.03937 0.34837 0.41899 0.0
O25 O 0.07075 0.33622 0.47149 0.0
O26 O 0.02199 0.27071 0.44759 0.0
O27 O 0.02217 0.27962 0.50892 0.0
C28 C 0.06245 0.45166 0.58151 0.0
C29 C 0.10455 0.44766 0.57992 0.0
H30 H 0.18421 0.42987 0.57108 0.0
H31 H 0.21024 0.36757 0.54223 0.0
H32 H 0.94063 0.39332 0.55222 0.0
H33 H 0.9804 0.44946 0.57836 0.0
H34 H 0.04948 0.47861 0.59314 0.0
H35 H 0.12333 0.47163 0.59034 0.0
Mn36 Mn 0.29813 0.92258 0.5718 0.0
Mn37 Mn 0.31615 0.92596 0.48042 0.0
C38 C 0.35862 0.94571 0.55101 0.0
C39 C 0.29741 0.88794 0.6273 0.0
C40 C 0.26973 0.99025 0.5205 0.0
O41 O 0.25382 0.88831 0.55112 0.0
O42 O 0.26686 0.89374 0.49076 0.0
C43 C 0.33616 0.83987 0.47204 0.0
N44 N 0.34638 0.87918 0.46786 0.0
C45 C 0.40993 0.86131 0.44112 0.0
C46 C 0.39995 0.82063 0.4449 0.0
C47 C 0.36294 0.80988 0.4605 0.0
C48 C 0.38201 0.88985 0.45308 0.0
H49 H 0.30781 0.83145 0.48415 0.0
C50 C 0.24577 0.88086 0.5177 0.0
O51 O 0.27472 0.91911 0.622 0.0
O52 O 0.31957 0.87629 0.60003 0.0
N53 N 0.36242 0.9556 0.46507 0.0
C54 C 0.36764 0.99615 0.46359 0.0
C55 C 0.40338 0.01188 0.44908 0.0
C56 C 0.43303 0.98583 0.43559 0.0
C57 C 0.42653 0.94427 0.43643 0.0
C58 C 0.39025 0.93033 0.4511 0.0
H59 H 0.34497 0.01632 0.47393 0.0
O60 O 0.34637 0.9541 0.5839 0.0
O61 O 0.33586 0.92215 0.5313 0.0
O62 O 0.27053 0.97343 0.55206 0.0
O63 O 0.28619 0.97531 0.49187 0.0
C64 C 0.4549 0.91609 0.42389 0.0
C65 C 0.44665 0.87464 0.42631 0.0
H66 H 0.42056 0.7974 0.4361 0.0
H67 H 0.3551 0.77854 0.46367 0.0
H68 H 0.40812 0.044 0.44841 0.0
H69 H 0.4607 -0.00196 0.42474 0.0
H70 H 0.48331 0.92596 0.41262 0.0
H71 H 0.46883 0.85325 0.41684 0.0
Mn72 Mn 0.92019 0.69623 0.43217 0.0
Mn73 Mn 0.92674 0.68115 0.52382 0.0
C74 C 0.9481 0.6381 0.45398 0.0
C75 C 0.8843 0.69281 0.37737 0.0
C76 C 0.98527 0.73271 0.48156 0.0
O77 O 0.88304 0.73841 0.45281 0.0
O78 O 0.88904 0.72619 0.51334 0.0
C79 C 0.84391 0.65161 0.53504 0.0
N80 N 0.88423 0.64606 0.53823 0.0
C81 C 0.87473 0.58153 0.5666 0.0
C82 C 0.83308 0.58668 0.56387 0.0
C83 C 0.81762 0.62184 0.54795 0.0
C84 C 0.89943 0.61229 0.55338 0.0
H85 H 0.83193 0.67852 0.52267 0.0
C86 C 0.87471 0.746 0.4862 0.0
O87 O 0.91343 0.71827 0.38171 0.0
O88 O 0.87534 0.67025 0.40522 0.0
N89 N 0.96198 0.63888 0.53882 0.0
C90 C 0.00286 0.63805 0.53839 0.0
C91 C 0.02309 0.60447 0.55256 0.0
C92 C 0.00114 0.57244 0.56756 0.0
C93 C 0.95913 0.57439 0.56849 0.0
C94 C 0.94062 0.60869 0.55409 0.0
H95 H 0.01988 0.66262 0.52693 0.0
O96 O 0.95512 0.65 0.42068 0.0
O97 O 0.9235 0.65989 0.47346 0.0
O98 O 0.96913 0.72816 0.45002 0.0
O99 O 0.97186 0.71657 0.51092 0.0
C100 C 0.93487 0.54333 0.58247 0.0
C101 C 0.8927 0.54684 0.58145 0.0
H102 H 0.8127 0.56373 0.57367 0.0
H103 H 0.78552 0.62595 0.54558 0.0
H104 H 0.05552 0.60324 0.55184 0.0
H105 H 0.01683 0.54644 0.57815 0.0
H106 H 0.94832 0.51643 0.59373 0.0
H107 H 0.87436 0.52256 0.59191 0.0
Mn108 Mn 0.69536 0.07469 0.56931 0.0
Mn109 Mn 0.67927 0.06803 0.47779 0.0
C110 C 0.63694 0.04706 0.54817 0.0
C111 C 0.69282 0.11081 0.62401 0.0
C112 C 0.7299 0.00856 0.51978 0.0
O113 O 0.73764 0.11135 0.54831 0.0
O114 O 0.72528 0.10475 0.48789 0.0
C115 C 0.65165 0.15163 0.46694 0.0
N116 N 0.64507 0.11143 0.46375 0.0
C117 C 0.58048 0.12257 0.43607 0.0
C118 C 0.58668 0.16409 0.43881 0.0
C119 C 0.62239 0.17867 0.45438 0.0
C120 C 0.61076 0.09709 0.44894 0.0
H121 H 0.67897 0.16294 0.47904 0.0
C122 C 0.74529 0.1192 0.51486 0.0
O123 O 0.71796 0.08141 0.61958 0.0
O124 O 0.67012 0.1199 0.5963 0.0
N125 N 0.63605 0.03383 0.46298 0.0
C126 C 0.63435 0.99295 0.46307 0.0
C127 C 0.60018 0.97357 0.4491 0.0
C128 C 0.56845 0.99634 0.4346 0.0
C129 C 0.57134 0.03832 0.43392 0.0
C130 C 0.6062 0.05597 0.44812 0.0
H131 H 0.65868 0.97529 0.47413 0.0
O132 O 0.6491 0.04024 0.58141 0.0
O133 O 0.65853 0.07155 0.52835 0.0
O134 O 0.72642 0.02525 0.55122 0.0
O135 O 0.7136 0.02203 0.4905 0.0
C136 C 0.5407 0.06339 0.42036 0.0
C137 C 0.54522 0.10548 0.42151 0.0
H138 H 0.56412 0.18505 0.42927 0.0
H139 H 0.62731 0.21067 0.45676 0.0
H140 H 0.59824 0.94115 0.4496 0.0
H141 H 0.54199 0.9813 0.42416 0.0
H142 H 0.51336 0.05065 0.4093 0.0
H143 H 0.52128 0.12444 0.41133 0.0
Mn144 Mn 0.42171 0.79958 0.93104 0.0
Mn145 Mn 0.42672 0.81525 0.02274 0.0
C146 C 0.44662 0.85906 0.95272 0.0
C147 C 0.38596 0.80068 0.87615 0.0
C148 C 0.48822 0.76667 0.98094 0.0
O149 O 0.38692 0.75544 0.95163 0.0
O150 O 0.39097 0.76865 0.01211 0.0
C151 C 0.3426 0.8413 0.03309 0.0
N152 N 0.38262 0.84858 0.03663 0.0
C153 C 0.37008 0.91285 0.06449 0.0
C154 C 0.32872 0.90592 0.06141 0.0
C155 C 0.31494 0.87002 0.04556 0.0
C156 C 0.39621 0.88309 0.05167 0.0
H157 H 0.3319 0.81382 0.02078 0.0
C158 C 0.37812 0.74792 0.98492 0.0
O159 O 0.41674 0.77727 0.88058 0.0
O160 O 0.37532 0.82258 0.90396 0.0
N161 N 0.46 0.85901 0.03798 0.0
C162 C 0.50082 0.8614 0.03828 0.0
C163 C 0.51946 0.89582 0.05261 0.0
C164 C 0.49599 0.92706 0.06706 0.0
C165 C 0.45409 0.92346 0.06735 0.0
C166 C 0.4372 0.88839 0.05281 0.0
H167 H 0.51901 0.83743 0.02727 0.0
O168 O 0.454 0.84754 0.91939 0.0
O169 O 0.42303 0.83621 0.97227 0.0
O170 O 0.47232 0.77064 0.94922 0.0
O171 O 0.47348 0.78176 0.01025 0.0
C172 C 0.42837 0.95359 0.08086 0.0
C173 C 0.3864 0.94834 0.07935 0.0
H174 H 0.30729 0.92805 0.07088 0.0
H175 H 0.28307 0.86453 0.04292 0.0
H176 H 0.55182 0.89831 0.05242 0.0
H177 H 0.51044 0.95371 0.07777 0.0
H178 H 0.44054 0.98108 0.09216 0.0
H179 H 0.36694 0.97189 0.0895 0.0
Mn180 Mn 0.79993 0.57444 0.06964 0.0
Mn181 Mn 0.81539 0.56887 0.97799 0.0
C182 C 0.85857 0.54772 0.04788 0.0
C183 C 0.80249 0.61 0.12467 0.0
C184 C 0.76538 0.50862 0.01976 0.0
O185 O 0.75713 0.61096 0.04918 0.0
O186 O 0.76933 0.60527 0.98865 0.0
C187 C 0.84258 0.65268 0.96763 0.0
N188 N 0.84929 0.61255 0.96408 0.0
C189 C 0.9136 0.62423 0.93605 0.0
C190 C 0.90725 0.6657 0.93916 0.0
C191 C 0.87162 0.67997 0.9551 0.0
C192 C 0.88353 0.59849 0.94894 0.0
H193 H 0.8153 0.66376 0.98 0.0
C194 C 0.74933 0.61922 0.01583 0.0
O195 O 0.77763 0.58039 0.1201 0.0
O196 O 0.82492 0.61962 0.09692 0.0
N197 N 0.85865 0.535 0.96269 0.0
C198 C 0.86053 0.49413 0.9625 0.0
C199 C 0.89466 0.47503 0.94814 0.0
C200 C 0.92614 0.49808 0.93356 0.0
C201 C 0.92307 0.54005 0.93321 0.0
C202 C 0.88827 0.55741 0.94779 0.0
H203 H 0.83638 0.47626 0.97361 0.0
O204 O 0.84671 0.54033 0.08111 0.0
O205 O 0.83648 0.57211 0.02843 0.0
O206 O 0.76915 0.52492 0.05134 0.0
O207 O 0.78131 0.52257 0.9905 0.0
C208 C 0.95348 0.56537 0.9196 0.0
C209 C 0.9488 0.60743 0.9211 0.0
H210 H 0.92964 0.68685 0.92964 0.0
H211 H 0.86658 0.71193 0.95776 0.0
H212 H 0.89675 0.44262 0.94839 0.0
H213 H 0.95256 0.48327 0.92282 0.0
H214 H 0.98074 0.55284 0.90822 0.0
H215 H 0.97257 0.62658 0.91089 0.0
Mn216 Mn 0.57474 0.19592 0.93136 0.0
Mn217 Mn 0.56863 0.18057 0.023 0.0
C218 C 0.54769 0.13738 0.95304 0.0
C219 C 0.61058 0.19323 0.87652 0.0
C220 C 0.50871 0.23059 0.9809 0.0
O221 O 0.61121 0.23871 0.95193 0.0
O222 O 0.60501 0.22671 0.01244 0.0
C223 C 0.65237 0.15345 0.03364 0.0
N224 N 0.61226 0.14672 0.03709 0.0
C225 C 0.62386 0.08238 0.06516 0.0
C226 C 0.66532 0.08875 0.06217 0.0
C227 C 0.67962 0.12441 0.04627 0.0
C228 C 0.59817 0.11244 0.0522 0.0
H229 H 0.66348 0.18074 0.02129 0.0
C230 C 0.61916 0.24665 0.98531 0.0
O231 O 0.58102 0.21818 0.88092 0.0
O232 O 0.61997 0.17078 0.90432 0.0
N233 N 0.53474 0.13729 0.03824 0.0
C234 C 0.49389 0.1354 0.03835 0.0
C235 C 0.47477 0.10126 0.05269 0.0
C236 C 0.49777 0.06977 0.06732 0.0
C237 C 0.53972 0.07286 0.06778 0.0
C238 C 0.55711 0.10768 0.05323 0.0
H239 H 0.47606 0.15956 0.0272 0.0
O240 O 0.54058 0.14922 0.91975 0.0
O241 O 0.57206 0.1594 0.97259 0.0
O242 O 0.52523 0.22685 0.94942 0.0
O243 O 0.5224 0.2146 0.01024 0.0
C244 C 0.565 0.04245 0.08146 0.0
C245 C 0.60704 0.04716 0.08007 0.0
H246 H 0.68643 0.06637 0.07176 0.0
H247 H 0.71157 0.12946 0.04369 0.0
H248 H 0.44237 0.09916 0.05236 0.0
H249 H 0.48294 0.04333 0.07803 0.0
H250 H 0.55244 0.01516 0.09281 0.0
H251 H 0.62616 0.02339 0.09033 0.0
Mn252 Mn 0.19582 0.42059 0.06836 0.0
Mn253 Mn 0.18049 0.42681 0.97675 0.0
C254 C 0.13735 0.44773 0.0467 0.0
C255 C 0.1929 0.3846 0.12309 0.0
C256 C 0.23069 0.48658 0.01888 0.0
O257 O 0.2385 0.38406 0.04777 0.0
O258 O 0.22654 0.39032 0.98725 0.0
C259 C 0.15323 0.34308 0.96602 0.0
N260 N 0.14655 0.38323 0.96265 0.0
C261 C 0.08212 0.37175 0.93476 0.0
C262 C 0.08844 0.33026 0.93767 0.0
C263 C 0.12411 0.31588 0.95345 0.0
C264 C 0.11226 0.3974 0.94766 0.0
H265 H 0.18052 0.3319 0.97829 0.0
C266 C 0.24645 0.37612 0.01439 0.0
O267 O 0.21795 0.41411 0.11884 0.0
O268 O 0.17053 0.37534 0.0952 0.0
N269 N 0.13726 0.4608 0.96162 0.0
C270 C 0.13542 0.50167 0.96161 0.0
C271 C 0.10126 0.52087 0.94743 0.0
C272 C 0.06971 0.49792 0.93285 0.0
C273 C 0.07273 0.45596 0.9323 0.0
C274 C 0.10756 0.43849 0.9467 0.0
H275 H 0.15963 0.51945 0.97274 0.0
O276 O 0.14921 0.45484 0.07999 0.0
O277 O 0.15935 0.42337 0.02714 0.0
O278 O 0.22688 0.47008 0.05038 0.0
O279 O 0.21463 0.47296 0.98954 0.0
C280 C 0.04224 0.43073 0.91868 0.0
C281 C 0.04689 0.38867 0.91999 0.0
H282 H 0.066 0.30919 0.92812 0.0
H283 H 0.12912 0.2839 0.95597 0.0
H284 H 0.09921 0.55328 0.94783 0.0
H285 H 0.04327 0.51282 0.92225 0.0
H286 H 0.01495 0.44336 0.90744 0.0
H287 H 0.02306 0.36959 0.90977 0.0
H288 H 0.13173 0.33548 0.14362 0.0
H289 H 0.24108 0.38934 0.1838 0.0
H290 H 0.11692 0.31054 0.20467 0.0
H291 H 0.22742 0.36257 0.24489 0.0
H292 H 0.15824 0.36323 0.3544 0.0
H293 H 0.18398 0.37714 0.29341 0.0
H294 H 0.13034 0.26724 0.25351 0.0
H295 H 0.10278 0.25454 0.31447 0.0
C296 C 0.15314 0.34116 0.16539 0.0
C297 C 0.18735 0.36474 0.15901 0.0
C298 C 0.1448 0.32657 0.20049 0.0
C299 C 0.17078 0.3347 0.23003 0.0
C300 C 0.20623 0.35644 0.22307 0.0
C301 C 0.21425 0.37157 0.188 0.0
C302 C 0.15236 0.34177 0.3327 0.0
C303 C 0.12811 0.30803 0.3391 0.0
C304 C 0.16741 0.34959 0.29765 0.0
C305 C 0.15907 0.32352 0.26821 0.0
C306 C 0.13663 0.28851 0.27523 0.0
C307 C 0.12104 0.28103 0.31023 0.0
H308 H 0.3262 0.81331 0.643 0.0
H309 H 0.27737 0.9197 0.69371 0.0
H310 H 0.34028 0.7852 0.7034 0.0
H311 H 0.29348 0.89298 0.754 0.0
H312 H 0.3126 0.83348 0.86165 0.0
H313 H 0.28353 0.84782 0.80165 0.0
H314 H 0.3873 0.79459 0.74945 0.0
H315 H 0.41488 0.77836 0.80931 0.0
C316 C 0.31827 0.83056 0.66714 0.0
C317 C 0.30095 0.86877 0.6637 0.0
C318 C 0.32664 0.81463 0.70181 0.0
C319 C 0.31869 0.83696 0.73383 0.0
C320 C 0.29964 0.87451 0.73021 0.0
C321 C 0.29055 0.89004 0.69555 0.0
C322 C 0.32875 0.82425 0.83726 0.0
C323 C 0.3661 0.80502 0.84012 0.0
C324 C 0.31228 0.83275 0.80281 0.0
C325 C 0.33318 0.82292 0.77043 0.0
C326 C 0.36986 0.80218 0.77353 0.0
C327 C 0.38592 0.79304 0.80796 0.0
H328 H 0.83594 0.6311 0.3564 0.0
H329 H 0.88841 0.74149 0.31701 0.0
H330 H 0.81102 0.61659 0.29521 0.0
H331 H 0.86175 0.72807 0.25584 0.0
H332 H 0.86275 0.66009 0.14571 0.0
H333 H 0.8768 0.685 0.20697 0.0
H334 H 0.76725 0.63048 0.24653 0.0
H335 H 0.75432 0.60387 0.18525 0.0
C336 C 0.84134 0.65277 0.33479 0.0
C337 C 0.86451 0.68722 0.34142 0.0
C338 C 0.82677 0.6446 0.29962 0.0
C339 C 0.83456 0.67097 0.27027 0.0
C340 C 0.85591 0.70659 0.2775 0.0
C341 C 0.87097 0.71447 0.31262 0.0
C342 C 0.84138 0.65384 0.16738 0.0
C343 C 0.80765 0.62966 0.16075 0.0
C344 C 0.84929 0.66841 0.2026 0.0
C345 C 0.82335 0.6596 0.232 0.0
C346 C 0.7884 0.63716 0.22482 0.0
C347 C 0.78079 0.62212 0.18963 0.0
H348 H 0.60535 0.2417 0.81607 0.0
H349 H 0.66013 0.1325 0.85557 0.0
H350 H 0.63211 0.22867 0.75487 0.0
H351 H 0.68516 0.11834 0.79437 0.0
H352 H 0.63192 0.16012 0.64498 0.0
H353 H 0.61776 0.18519 0.70615 0.0
H354 H 0.72844 0.13286 0.74555 0.0
H355 H 0.74149 0.10603 0.68437 0.0
C356 C 0.62332 0.21504 0.8117 0.0
C357 C 0.6304 0.18799 0.84053 0.0
C358 C 0.63845 0.20738 0.77656 0.0
C359 C 0.66049 0.17217 0.76937 0.0
C360 C 0.66888 0.14604 0.79875 0.0
C361 C 0.65424 0.15401 0.83393 0.0
C362 C 0.65351 0.1544 0.66659 0.0
C363 C 0.6876 0.13073 0.65996 0.0
C364 C 0.64554 0.16906 0.70175 0.0
C365 C 0.67176 0.16088 0.7311 0.0
C366 C 0.70707 0.13903 0.72389 0.0
C367 C 0.71475 0.12387 0.68875 0.0
H368 H 0.27518 0.04253 0.46311 0.0
H369 H 0.21865 0.0273 0.56906 0.0
H370 H 0.24193 0.10665 0.45579 0.0
H371 H 0.1839 0.09121 0.56096 0.0
H372 H 0.15287 0.2243 0.54695 0.0
H373 H 0.19192 0.16332 0.5575 0.0
H374 H 0.17626 0.13009 0.44367 0.0
H375 H 0.13868 0.19107 0.43287 0.0
C376 C 0.25546 0.05272 0.48482 0.0
C377 C 0.24941 0.02954 0.5166 0.0
C378 C 0.2362 0.08952 0.48051 0.0
C379 C 0.20989 0.10396 0.5076 0.0
C380 C 0.20428 0.08117 0.53972 0.0
C381 C 0.22397 0.0444 0.54424 0.0
C382 C 0.15807 0.20408 0.52414 0.0
C383 C 0.14269 0.2127 0.48904 0.0
C384 C 0.18021 0.16902 0.53025 0.0
C385 C 0.18729 0.14181 0.50143 0.0
C386 C 0.1721 0.15068 0.46637 0.0
C387 C 0.1503 0.1857 0.46021 0.0
H388 H 0.20826 0.82797 0.56306 0.0
H389 H 0.20092 0.88029 0.45473 0.0
H390 H 0.14587 0.79225 0.55231 0.0
H391 H 0.13727 0.84583 0.44445 0.0
H392 H 0.01393 0.7707 0.54218 0.0
H393 H 0.07694 0.80643 0.54888 0.0
H394 H 0.1048 0.78301 0.4349 0.0
H395 H 0.04057 0.7486 0.42787 0.0
C396 C 0.19318 0.83194 0.53695 0.0
C397 C 0.20934 0.85713 0.50983 0.0
C398 C 0.1572 0.8117 0.53087 0.0
C399 C 0.13607 0.81667 0.49774 0.0
C400 C 0.15282 0.84106 0.47018 0.0
C401 C 0.18925 0.8609 0.47609 0.0
C402 C 0.03339 0.77337 0.51847 0.0
C403 C 0.02239 0.75669 0.48454 0.0
C404 C 0.06974 0.79359 0.52237 0.0
C405 C 0.09638 0.79706 0.4926 0.0
C406 C 0.08493 0.78118 0.45835 0.0
C407 C 0.04816 0.76138 0.45432 0.0
H408 H 0.74465 0.95373 0.57407 0.0
H409 H 0.76521 0.97707 0.45892 0.0
H410 H 0.77639 0.88811 0.56766 0.0
H411 H 0.7984 0.91258 0.45278 0.0
H412 H 0.82006 0.78129 0.44082 0.0
H413 H 0.78382 0.84367 0.45086 0.0
H414 H 0.83805 0.85451 0.55829 0.0
H415 H 0.87281 0.79107 0.5488 0.0
C416 C 0.75655 0.9451 0.54755 0.0
C417 C 0.75232 0.97046 0.51697 0.0
C418 C 0.77478 0.9075 0.54385 0.0
C419 C 0.7896 0.89475 0.50959 0.0
C420 C 0.78637 0.92081 0.47935 0.0
C421 C 0.76768 0.95802 0.48293 0.0
C422 C 0.82384 0.79678 0.46675 0.0
C423 C 0.84944 0.7814 0.49393 0.0
C424 C 0.80336 0.83276 0.47241 0.0
C425 C 0.80854 0.85461 0.50514 0.0
C426 C 0.83305 0.83842 0.53287 0.0
C427 C 0.85307 0.80205 0.52741 0.0
H428 H 0.78104 0.17357 0.56017 0.0
H429 H 0.78988 0.12136 0.45189 0.0
H430 H 0.84314 0.21009 0.54979 0.0
H431 H 0.85306 0.15656 0.442 0.0
H432 H 0.97639 0.22926 0.54044 0.0
H433 H 0.91221 0.1956 0.54702 0.0
H434 H 0.88576 0.21911 0.43279 0.0
H435 H 0.95097 0.25146 0.42588 0.0
C436 C 0.79628 0.16994 0.53411 0.0
C437 C 0.78071 0.1444 0.50694 0.0
C438 C 0.83209 0.19061 0.52824 0.0
C439 C 0.85357 0.18575 0.4953 0.0
C440 C 0.83722 0.16127 0.46759 0.0
C441 C 0.80103 0.14101 0.47328 0.0
C442 C 0.95698 0.22709 0.51666 0.0
C443 C 0.96876 0.24305 0.48265 0.0
C444 C 0.91995 0.20809 0.52051 0.0
C445 C 0.89346 0.20508 0.49057 0.0
C446 C 0.90551 0.22055 0.45635 0.0
C447 C 0.94288 0.23915 0.45239 0.0
H448 H 0.26729 0.51686 0.95819 0.0
H449 H 0.24545 0.54187 0.07284 0.0
H450 H 0.30179 0.58063 0.95188 0.0
H451 H 0.27851 0.60683 0.06623 0.0
H452 H 0.37582 0.70302 0.04769 0.0
H453 H 0.34072 0.63969 0.05728 0.0
H454 H 0.28826 0.64956 0.94903 0.0
H455 H 0.32481 0.71171 0.93894 0.0
C456 C 0.26972 0.53614 0.98204 0.0
C457 C 0.25361 0.52438 0.01599 0.0
C458 C 0.2892 0.57294 0.97837 0.0
C459 C 0.29247 0.59929 0.0084 0.0
C460 C 0.2769 0.58721 0.04258 0.0
C461 C 0.25789 0.55 0.04639 0.0
C462 C 0.35648 0.69177 0.02612 0.0
C463 C 0.35335 0.7121 0.99244 0.0
C464 C 0.33625 0.6555 0.03163 0.0
C465 C 0.31204 0.63912 0.00375 0.0
C466 C 0.30754 0.66059 0.97073 0.0
C467 C 0.32823 0.69643 0.96502 0.0
H468 H 0.71383 0.67335 0.06158 0.0
H469 H 0.70445 0.6218 0.95308 0.0
H470 H 0.65204 0.71046 0.05138 0.0
H471 H 0.64154 0.65748 0.94339 0.0
H472 H 0.54404 0.75248 0.92731 0.0
H473 H 0.60917 0.71992 0.93421 0.0
H474 H 0.58297 0.69724 0.04865 0.0
H475 H 0.519 0.7312 0.04206 0.0
C476 C 0.69851 0.66995 0.03552 0.0
C477 C 0.71387 0.64449 0.00822 0.0
C478 C 0.66287 0.69097 0.02975 0.0
C479 C 0.64133 0.6865 0.99678 0.0
C480 C 0.65743 0.66197 0.96899 0.0
C481 C 0.69347 0.6414 0.97457 0.0
C482 C 0.55222 0.74035 0.95387 0.0
C483 C 0.52647 0.74455 0.98417 0.0
C484 C 0.58952 0.7216 0.95784 0.0
C485 C 0.60161 0.70624 0.99209 0.0
C486 C 0.57526 0.70963 0.0221 0.0
C487 C 0.53834 0.72882 0.01825 0.0
H488 H 0.75033 0.45345 0.07373 0.0
H489 H 0.72995 0.47765 0.9587 0.0
H490 H 0.71789 0.3882 0.06701 0.0
H491 H 0.69608 0.41355 0.95227 0.0
H492 H 0.67346 0.28231 0.93984 0.0
H493 H 0.70988 0.34454 0.95 0.0
H494 H 0.65588 0.3552 0.05753 0.0
H495 H 0.62088 0.29186 0.0479 0.0
C496 C 0.73835 0.44508 0.04716 0.0
C497 C 0.74282 0.4706 0.01672 0.0
C498 C 0.7197 0.40771 0.04329 0.0
C499 C 0.70469 0.39531 0.00899 0.0
C500 C 0.70822 0.4215 0.97887 0.0
C501 C 0.72733 0.45849 0.98262 0.0
C502 C 0.6697 0.29775 0.9658 0.0
C503 C 0.64414 0.28231 0.99298 0.0
C504 C 0.69031 0.33365 0.97154 0.0
C505 C 0.68533 0.35538 0.00436 0.0
C506 C 0.66074 0.33919 0.03204 0.0
C507 C 0.64057 0.3029 0.0265 0.0
H508 H 0.47741 0.26609 0.04176 0.0
H509 H 0.45389 0.24559 0.92663 0.0
H510 H 0.41322 0.29979 0.04789 0.0
H511 H 0.38856 0.27789 0.93303 0.0
H512 H 0.29183 0.37467 0.95192 0.0
H513 H 0.3553 0.33988 0.94246 0.0
H514 H 0.34428 0.28546 0.0498 0.0
H515 H 0.28192 0.32166 0.05979 0.0
C516 C 0.45839 0.26866 0.01776 0.0
C517 C 0.47069 0.25315 0.98373 0.0
C518 C 0.42135 0.28767 0.02132 0.0
C519 C 0.39532 0.29109 0.99109 0.0
C520 C 0.40793 0.27613 0.95684 0.0
C521 C 0.44536 0.25757 0.95315 0.0
C522 C 0.30282 0.35492 0.97331 0.0
C523 C 0.2821 0.35117 0.00674 0.0
C524 C 0.33918 0.33488 0.96786 0.0
C525 C 0.3553 0.31026 0.99556 0.0
C526 C 0.33343 0.30507 0.02827 0.0
C527 C 0.29747 0.32555 0.03391 0.0
H528 H 0.02405 0.61168 0.44782 0.0
H529 H 0.90575 0.57574 0.4823 0.0
H530 H 0.04814 0.54349 0.45645 0.0
H531 H 0.93017 0.50782 0.494 0.0
H532 H 0.97092 0.3856 0.44826 0.0
H533 H 0.9471 0.45374 0.45733 0.0
H534 H 0.06583 0.48928 0.49298 0.0
H535 H 0.08993 0.42125 0.48091 0.0
C536 C 0.00361 0.58923 0.45849 0.0
C537 C 0.96346 0.5989 0.46548 0.0
C538 C 0.01743 0.55019 0.46385 0.0
C539 C 0.9912 0.5199 0.47608 0.0
C540 C 0.95114 0.53014 0.4841 0.0
C541 C 0.93722 0.56913 0.47807 0.0
C542 C 0.99158 0.40798 0.45869 0.0
C543 C 0.03185 0.39824 0.46495 0.0
C544 C 0.97794 0.44701 0.46428 0.0
C545 C 0.00445 0.47727 0.47603 0.0
C546 C 0.04464 0.46696 0.48346 0.0
C547 C 0.05839 0.42793 0.47722 0.0
H548 H 0.61189 0.97078 0.55494 0.0
H549 H 0.57375 0.08827 0.51997 0.0
H550 H 0.54395 0.94564 0.54759 0.0
H551 H 0.50605 0.06274 0.50941 0.0
H552 H 0.38498 0.02153 0.55593 0.0
H553 H 0.45299 0.04563 0.54707 0.0
H554 H 0.48931 0.92675 0.51233 0.0
H555 H 0.42132 0.90239 0.52416 0.0
C556 C 0.58899 0.99079 0.5444 0.0
C557 C 0.59796 0.03103 0.53697 0.0
C558 C 0.55009 0.97637 0.53978 0.0
C559 C 0.51925 0.00207 0.52783 0.0
C560 C 0.5288 0.04218 0.51921 0.0
C561 C 0.56766 0.05673 0.52456 0.0
C562 C 0.40754 0.00086 0.54586 0.0
C563 C 0.39799 0.96051 0.53961 0.0
C564 C 0.44648 0.01467 0.54035 0.0
C565 C 0.47686 0.98828 0.52868 0.0
C566 C 0.46687 0.94788 0.52172 0.0
C567 C 0.42789 0.93397 0.52785 0.0
H568 H 0.58962 0.07465 0.98131 0.0
H569 H 0.47155 0.11166 0.94711 0.0
H570 H 0.56463 0.00687 0.99285 0.0
H571 H 0.44687 0.04367 0.95563 0.0
H572 H 0.40411 0.92167 0.98073 0.0
H573 H 0.42879 0.98963 0.99221 0.0
H574 H 0.54701 0.95299 0.95611 0.0
H575 H 0.52262 0.88496 0.94757 0.0
C576 C 0.55809 0.0683 0.9771 0.0
C577 C 0.53207 0.09832 0.96463 0.0
C578 C 0.54383 0.02941 0.98304 0.0
C579 C 0.50365 0.01954 0.97508 0.0
C580 C 0.47767 0.05008 0.96298 0.0
C581 C 0.49181 0.089 0.9577 0.0
C582 C 0.43566 0.92812 0.97675 0.0
C583 C 0.4619 0.89815 0.96457 0.0
C584 C 0.44974 0.96711 0.98267 0.0
C585 C 0.48998 0.97705 0.97504 0.0
C586 C 0.51616 0.94653 0.96324 0.0
C587 C 0.50218 0.90757 0.95795 0.0
H588 H 0.11132 0.52377 0.05271 0.0
H589 H 0.07469 0.40545 0.01869 0.0
H590 H 0.04318 0.54808 0.04466 0.0
H591 H 0.0067 0.43008 0.00765 0.0
H592 H 0.88483 0.47171 0.05345 0.0
H593 H 0.95293 0.44753 0.04475 0.0
H594 H 0.98896 0.56585 0.00827 0.0
H595 H 0.92104 0.59032 0.01995 0.0
C596 C 0.08871 0.50337 0.04224 0.0
C597 C 0.09819 0.46316 0.03523 0.0
C598 C 0.0497 0.51731 0.03724 0.0
C599 C 0.0192 0.49114 0.02535 0.0
C600 C 0.02921 0.45101 0.0173 0.0
C601 C 0.06822 0.43697 0.02294 0.0
C602 C 0.90734 0.49221 0.04299 0.0
C603 C 0.89775 0.53246 0.03628 0.0
C604 C 0.94632 0.47836 0.0376 0.0
C605 C 0.97668 0.50463 0.02562 0.0
C606 C 0.96657 0.54483 0.01796 0.0
C607 C 0.9276 0.55879 0.02398 0.0
loop_
_geom_bond_atom_site_label_1
_geom_bond_atom_site_label_2
_geom_bond_distance
_geom_bond_site_symmetry_2
_ccdc_geom_bond_type
Mn0 O5 2.095 . S
Mn0 O15 2.162 . S
Mn0 O16 2.297 . S
Mn0 O24 2.385 . S
Mn0 O25 2.209 . S
Mn0 O26 2.094 . S
Mn1 O6 2.121 . S
Mn1 N8 2.257 . S
Mn1 N17 2.282 . S
Mn1 O25 2.215 . S
Mn1 O27 2.117 . S
C2 O24 1.234 . S
C2 O25 1.283 . S
C3 O15 1.281 . S
C3 O16 1.236 . S
C4 O26 1.240 1_655 S
C4 O27 1.264 1_655 S
O5 Mn0 2.095 . S
O5 C14 1.250 . S
O6 Mn1 2.121 . S
O6 C14 1.258 . S
C7 N8 1.326 . S
C7 C11 1.460 . S
C7 H13 0.929 . S
N8 Mn1 2.257 . S
N8 C7 1.326 . S
N8 C12 1.362 . S
C9 C10 1.258 . S
C9 C12 1.431 . S
C9 C29 1.449 . S
C10 C9 1.258 . S
C10 C11 1.477 . S
C10 H30 0.931 . S
C11 C7 1.460 . S
C11 C10 1.477 . S
C11 H31 0.930 . S
C12 N8 1.362 . S
C12 C9 1.431 . S
C12 C22 1.476 . S
H13 C7 0.929 . S
C14 O5 1.250 . S
C14 O6 1.258 . S
O15 Mn0 2.162 . S
O15 C3 1.281 . S
O16 Mn0 2.297 . S
O16 C3 1.236 . S
N17 Mn1 2.282 . S
N17 C18 1.328 1_455 S
N17 C22 1.318 . S
C18 N17 1.328 1_655 S
C18 C19 1.457 . S
C18 H23 0.929 . S
C19 C18 1.457 . S
C19 C20 1.291 . S
C19 H32 0.931 . S
C20 C19 1.291 . S
C20 C21 1.373 1_655 S
C20 H33 0.929 . S
C21 C20 1.373 1_455 S
C21 C22 1.396 . S
C21 C28 1.403 . S
C22 C12 1.476 . S
C22 N17 1.318 . S
C22 C21 1.396 . S
H23 C18 0.929 . S
O24 Mn0 2.385 . S
O24 C2 1.234 . S
O25 Mn0 2.209 . S
O25 Mn1 2.215 . S
O25 C2 1.283 . S
O26 Mn0 2.094 . S
O26 C4 1.240 1_455 S
O27 Mn1 2.117 . S
O27 C4 1.264 1_455 S
C28 C21 1.403 . S
C28 C29 1.399 . S
C28 H34 0.929 . S
C29 C9 1.449 . S
C29 C28 1.399 . S
C29 H35 0.930 . S
H30 C10 0.931 . S
H31 C11 0.930 . S
H32 C19 0.931 . S
H33 C20 0.929 . S
H34 C28 0.929 . S
H35 C29 0.930 . S
Mn36 O41 2.095 . S
Mn36 O51 2.162 . S
Mn36 O52 2.297 . S
Mn36 O60 2.385 . S
Mn36 O61 2.209 . S
Mn36 O62 2.094 . S
Mn37 O42 2.121 . S
Mn37 N44 2.257 . S
Mn37 N53 2.282 . S
Mn37 O61 2.215 . S
Mn37 O63 2.117 . S
C38 O60 1.234 . S
C38 O61 1.283 . S
C39 O51 1.281 . S
C39 O52 1.236 . S
C40 O62 1.240 1_545 S
C40 O63 1.264 1_545 S
O41 Mn36 2.095 . S
O41 C50 1.250 . S
O42 Mn37 2.121 . S
O42 C50 1.258 . S
C43 N44 1.326 . S
C43 C47 1.460 . S
C43 H49 0.929 . S
N44 Mn37 2.257 . S
N44 C43 1.326 . S
N44 C48 1.362 . S
C45 C46 1.258 . S
C45 C48 1.431 . S
C45 C65 1.449 . S
C46 C45 1.258 . S
C46 C47 1.477 . S
C46 H66 0.931 . S
C47 C43 1.460 . S
C47 C46 1.477 . S
C47 H67 0.930 . S
C48 N44 1.362 . S
C48 C45 1.431 . S
C48 C58 1.476 . S
H49 C43 0.929 . S
C50 O41 1.250 . S
C50 O42 1.258 . S
O51 Mn36 2.162 . S
O51 C39 1.281 . S
O52 Mn36 2.297 . S
O52 C39 1.236 . S
N53 Mn37 2.282 . S
N53 C54 1.328 1_565 S
N53 C58 1.318 . S
C54 N53 1.328 1_545 S
C54 C55 1.457 . S
C54 H59 0.929 . S
C55 C54 1.457 . S
C55 C56 1.291 . S
C55 H68 0.931 . S
C56 C55 1.291 . S
C56 C57 1.373 1_545 S
C56 H69 0.929 . S
C57 C56 1.373 1_565 S
C57 C58 1.396 . S
C57 C64 1.403 . S
C58 C48 1.476 . S
C58 N53 1.318 . S
C58 C57 1.396 . S
H59 C54 0.929 . S
O60 Mn36 2.385 . S
O60 C38 1.234 . S
O61 Mn36 2.209 . S
O61 Mn37 2.215 . S
O61 C38 1.283 . S
O62 Mn36 2.094 . S
O62 C40 1.240 1_565 S
O63 Mn37 2.117 . S
O63 C40 1.264 1_565 S
C64 C57 1.403 . S
C64 C65 1.399 . S
C64 H70 0.929 . S
C65 C45 1.449 . S
C65 C64 1.399 . S
C65 H71 0.930 . S
H66 C46 0.931 . S
H67 C47 0.930 . S
H68 C55 0.931 . S
H69 C56 0.929 . S
H70 C64 0.929 . S
H71 C65 0.930 . S
Mn72 O77 2.095 . S
Mn72 O87 2.162 . S
Mn72 O88 2.297 . S
Mn72 O96 2.385 . S
Mn72 O97 2.209 . S
Mn72 O98 2.094 . S
Mn73 O78 2.121 . S
Mn73 N80 2.257 . S
Mn73 N89 2.282 . S
Mn73 O97 2.215 . S
Mn73 O99 2.117 . S
C74 O96 1.234 . S
C74 O97 1.283 . S
C75 O87 1.281 . S
C75 O88 1.236 . S
C76 O98 1.240 1_455 S
C76 O99 1.264 1_455 S
O77 Mn72 2.095 . S
O77 C86 1.250 . S
O78 Mn73 2.121 . S
O78 C86 1.258 . S
C79 N80 1.326 . S
C79 C83 1.460 . S
C79 H85 0.929 . S
N80 Mn73 2.257 . S
N80 C79 1.326 . S
N80 C84 1.362 . S
C81 C82 1.258 . S
C81 C84 1.431 . S
C81 C101 1.449 . S
C82 C81 1.258 . S
C82 C83 1.477 . S
C82 H102 0.931 . S
C83 C79 1.460 . S
C83 C82 1.477 . S
C83 H103 0.930 . S
C84 N80 1.362 . S
C84 C81 1.431 . S
C84 C94 1.476 . S
H85 C79 0.929 . S
C86 O77 1.250 . S
C86 O78 1.258 . S
O87 Mn72 2.162 . S
O87 C75 1.281 . S
O88 Mn72 2.297 . S
O88 C75 1.236 . S
N89 Mn73 2.282 . S
N89 C90 1.328 1_655 S
N89 C94 1.318 . S
C90 N89 1.328 1_455 S
C90 C91 1.457 . S
C90 H95 0.929 . S
C91 C90 1.457 . S
C91 C92 1.291 . S
C91 H104 0.931 . S
C92 C91 1.291 . S
C92 C93 1.373 1_455 S
C92 H105 0.929 . S
C93 C92 1.373 1_655 S
C93 C94 1.396 . S
C93 C100 1.403 . S
C94 C84 1.476 . S
C94 N89 1.318 . S
C94 C93 1.396 . S
H95 C90 0.929 . S
O96 Mn72 2.385 . S
O96 C74 1.234 . S
O97 Mn72 2.209 . S
O97 Mn73 2.215 . S
O97 C74 1.283 . S
O98 Mn72 2.094 . S
O98 C76 1.240 1_655 S
O99 Mn73 2.117 . S
O99 C76 1.264 1_655 S
C100 C93 1.403 . S
C100 C101 1.399 . S
C100 H106 0.929 . S
C101 C81 1.449 . S
C101 C100 1.399 . S
C101 H107 0.930 . S
H102 C82 0.931 . S
H103 C83 0.930 . S
H104 C91 0.931 . S
H105 C92 0.929 . S
H106 C100 0.929 . S
H107 C101 0.930 . S
Mn108 O113 2.095 . S
Mn108 O123 2.162 . S
Mn108 O124 2.297 . S
Mn108 O132 2.385 . S
Mn108 O133 2.209 . S
Mn108 O134 2.094 . S
Mn109 O114 2.121 . S
Mn109 N116 2.257 . S
Mn109 N125 2.282 . S
Mn109 O133 2.215 . S
Mn109 O135 2.117 . S
C110 O132 1.234 . S
C110 O133 1.283 . S
C111 O123 1.281 . S
C111 O124 1.236 . S
C112 O134 1.240 1_565 S
C112 O135 1.264 1_565 S
O113 Mn108 2.095 . S
O113 C122 1.250 . S
O114 Mn109 2.121 . S
O114 C122 1.258 . S
C115 N116 1.326 . S
C115 C119 1.460 . S
C115 H121 0.929 . S
N116 Mn109 2.257 . S
N116 C115 1.326 . S
N116 C120 1.362 . S
C117 C118 1.258 . S
C117 C120 1.431 . S
C117 C137 1.449 . S
C118 C117 1.258 . S
C118 C119 1.477 . S
C118 H138 0.931 . S
C119 C115 1.460 . S
C119 C118 1.477 . S
C119 H139 0.930 . S
C120 N116 1.362 . S
C120 C117 1.431 . S
C120 C130 1.476 . S
H121 C115 0.929 . S
C122 O113 1.250 . S
C122 O114 1.258 . S
O123 Mn108 2.162 . S
O123 C111 1.281 . S
O124 Mn108 2.297 . S
O124 C111 1.236 . S
N125 Mn109 2.282 . S
N125 C126 1.328 1_545 S
N125 C130 1.318 . S
C126 N125 1.328 1_565 S
C126 C127 1.457 . S
C126 H131 0.929 . S
C127 C126 1.457 . S
C127 C128 1.291 . S
C127 H140 0.931 . S
C128 C127 1.291 . S
C128 C129 1.373 1_565 S
C128 H141 0.929 . S
C129 C128 1.373 1_545 S
C129 C130 1.396 . S
C129 C136 1.403 . S
C130 C120 1.476 . S
C130 N125 1.318 . S
C130 C129 1.396 . S
H131 C126 0.929 . S
O132 Mn108 2.385 . S
O132 C110 1.234 . S
O133 Mn108 2.209 . S
O133 Mn109 2.215 . S
O133 C110 1.283 . S
O134 Mn108 2.094 . S
O134 C112 1.240 1_545 S
O135 Mn109 2.117 . S
O135 C112 1.264 1_545 S
C136 C129 1.403 . S
C136 C137 1.399 . S
C136 H142 0.929 . S
C137 C117 1.449 . S
C137 C136 1.399 . S
C137 H143 0.930 . S
H138 C118 0.931 . S
H139 C119 0.930 . S
H140 C127 0.931 . S
H141 C128 0.929 . S
H142 C136 0.929 . S
H143 C137 0.930 . S
Mn144 O149 2.095 . S
Mn144 O159 2.162 . S
Mn144 O160 2.297 . S
Mn144 O168 2.385 . S
Mn144 O169 2.209 . S
Mn144 O170 2.094 . S
Mn145 O150 2.121 . S
Mn145 N152 2.257 . S
Mn145 N161 2.282 . S
Mn145 O169 2.215 1_554 S
Mn145 O171 2.117 . S
C146 O168 1.234 . S
C146 O169 1.283 . S
C147 O159 1.281 . S
C147 O160 1.236 . S
C148 O170 1.240 . S
C148 O171 1.264 1_556 S
O149 Mn144 2.095 . S
O149 C158 1.250 . S
O150 Mn145 2.121 . S
O150 C158 1.258 1_554 S
C151 N152 1.326 . S
C151 C155 1.460 . S
C151 H157 0.929 . S
N152 Mn145 2.257 . S
N152 C151 1.326 . S
N152 C156 1.362 . S
C153 C154 1.258 . S
C153 C156 1.431 . S
C153 C173 1.449 . S
C154 C153 1.258 . S
C154 C155 1.477 . S
C154 H174 0.931 . S
C155 C151 1.460 . S
C155 C154 1.477 . S
C155 H175 0.930 . S
C156 N152 1.362 . S
C156 C153 1.431 . S
C156 C166 1.476 . S
H157 C151 0.929 . S
C158 O149 1.250 . S
C158 O150 1.258 1_556 S
O159 Mn144 2.162 . S
O159 C147 1.281 . S
O160 Mn144 2.297 . S
O160 C147 1.236 . S
N161 Mn145 2.282 . S
N161 C162 1.328 . S
N161 C166 1.318 . S
C162 N161 1.328 . S
C162 C163 1.457 . S
C162 H167 0.929 . S
C163 C162 1.457 . S
C163 C164 1.291 . S
C163 H176 0.931 . S
C164 C163 1.291 . S
C164 C165 1.373 . S
C164 H177 0.929 . S
C165 C164 1.373 . S
C165 C166 1.396 . S
C165 C172 1.403 . S
C166 C156 1.476 . S
C166 N161 1.318 . S
C166 C165 1.396 . S
H167 C162 0.929 . S
O168 Mn144 2.385 . S
O168 C146 1.234 . S
O169 Mn144 2.209 . S
O169 Mn145 2.215 1_556 S
O169 C146 1.283 . S
O170 Mn144 2.094 . S
O170 C148 1.240 . S
O171 Mn145 2.117 . S
O171 C148 1.264 1_554 S
C172 C165 1.403 . S
C172 C173 1.399 . S
C172 H178 0.929 . S
C173 C153 1.449 . S
C173 C172 1.399 . S
C173 H179 0.930 . S
H174 C154 0.931 . S
H175 C155 0.930 . S
H176 C163 0.931 . S
H177 C164 0.929 . S
H178 C172 0.929 . S
H179 C173 0.930 . S
Mn180 O185 2.095 . S
Mn180 O195 2.162 . S
Mn180 O196 2.297 . S
Mn180 O204 2.385 . S
Mn180 O205 2.209 . S
Mn180 O206 2.094 . S
Mn181 O186 2.121 . S
Mn181 N188 2.257 . S
Mn181 N197 2.282 . S
Mn181 O205 2.215 1_556 S
Mn181 O207 2.117 . S
C182 O204 1.234 . S
C182 O205 1.283 . S
C183 O195 1.281 . S
C183 O196 1.236 . S
C184 O206 1.240 . S
C184 O207 1.264 1_554 S
O185 Mn180 2.095 . S
O185 C194 1.250 . S
O186 Mn181 2.121 . S
O186 C194 1.258 1_556 S
C187 N188 1.326 . S
C187 C191 1.460 . S
C187 H193 0.929 . S
N188 Mn181 2.257 . S
N188 C187 1.326 . S
N188 C192 1.362 . S
C189 C190 1.258 . S
C189 C192 1.431 . S
C189 C209 1.449 . S
C190 C189 1.258 . S
C190 C191 1.477 . S
C190 H210 0.931 . S
C191 C187 1.460 . S
C191 C190 1.477 . S
C191 H211 0.930 . S
C192 N188 1.362 . S
C192 C189 1.431 . S
C192 C202 1.476 . S
H193 C187 0.929 . S
C194 O185 1.250 . S
C194 O186 1.258 1_554 S
O195 Mn180 2.162 . S
O195 C183 1.281 . S
O196 Mn180 2.297 . S
O196 C183 1.236 . S
N197 Mn181 2.282 . S
N197 C198 1.328 . S
N197 C202 1.318 . S
C198 N197 1.328 . S
C198 C199 1.457 . S
C198 H203 0.929 . S
C199 C198 1.457 . S
C199 C200 1.291 . S
C199 H212 0.931 . S
C200 C199 1.291 . S
C200 C201 1.373 . S
C200 H213 0.929 . S
C201 C200 1.373 . S
C201 C202 1.396 . S
C201 C208 1.403 . S
C202 C192 1.476 . S
C202 N197 1.318 . S
C202 C201 1.396 . S
H203 C198 0.929 . S
O204 Mn180 2.385 . S
O204 C182 1.234 . S
O205 Mn180 2.209 . S
O205 Mn181 2.215 1_554 S
O205 C182 1.283 . S
O206 Mn180 2.094 . S
O206 C184 1.240 . S
O207 Mn181 2.117 . S
O207 C184 1.264 1_556 S
C208 C201 1.403 . S
C208 C209 1.399 . S
C208 H214 0.929 . S
C209 C189 1.449 . S
C209 C208 1.399 . S
C209 H215 0.930 . S
H210 C190 0.931 . S
H211 C191 0.930 . S
H212 C199 0.931 . S
H213 C200 0.929 . S
H214 C208 0.929 . S
H215 C209 0.930 . S
Mn216 O221 2.095 . S
Mn216 O231 2.162 . S
Mn216 O232 2.297 . S
Mn216 O240 2.385 . S
Mn216 O241 2.209 . S
Mn216 O242 2.094 . S
Mn217 O222 2.121 . S
Mn217 N224 2.257 . S
Mn217 N233 2.282 . S
Mn217 O241 2.215 1_554 S
Mn217 O243 2.117 . S
C218 O240 1.234 . S
C218 O241 1.283 . S
C219 O231 1.281 . S
C219 O232 1.236 . S
C220 O242 1.240 . S
C220 O243 1.264 1_556 S
O221 Mn216 2.095 . S
O221 C230 1.250 . S
O222 Mn217 2.121 . S
O222 C230 1.258 1_554 S
C223 N224 1.326 . S
C223 C227 1.460 . S
C223 H229 0.929 . S
N224 Mn217 2.257 . S
N224 C223 1.326 . S
N224 C228 1.362 . S
C225 C226 1.258 . S
C225 C228 1.431 . S
C225 C245 1.449 . S
C226 C225 1.258 . S
C226 C227 1.477 . S
C226 H246 0.931 . S
C227 C223 1.460 . S
C227 C226 1.477 . S
C227 H247 0.930 . S
C228 N224 1.362 . S
C228 C225 1.431 . S
C228 C238 1.476 . S
H229 C223 0.929 . S
C230 O221 1.250 . S
C230 O222 1.258 1_556 S
O231 Mn216 2.162 . S
O231 C219 1.281 . S
O232 Mn216 2.297 . S
O232 C219 1.236 . S
N233 Mn217 2.282 . S
N233 C234 1.328 . S
N233 C238 1.318 . S
C234 N233 1.328 . S
C234 C235 1.457 . S
C234 H239 0.929 . S
C235 C234 1.457 . S
C235 C236 1.291 . S
C235 H248 0.931 . S
C236 C235 1.291 . S
C236 C237 1.373 . S
C236 H249 0.929 . S
C237 C236 1.373 . S
C237 C238 1.396 . S
C237 C244 1.403 . S
C238 C228 1.476 . S
C238 N233 1.318 . S
C238 C237 1.396 . S
H239 C234 0.929 . S
O240 Mn216 2.385 . S
O240 C218 1.234 . S
O241 Mn216 2.209 . S
O241 Mn217 2.215 1_556 S
O241 C218 1.283 . S
O242 Mn216 2.094 . S
O242 C220 1.240 . S
O243 Mn217 2.117 . S
O243 C220 1.264 1_554 S
C244 C237 1.403 . S
C244 C245 1.399 . S
C244 H250 0.929 . S
C245 C225 1.449 . S
C245 C244 1.399 . S
C245 H251 0.930 . S
H246 C226 0.931 . S
H247 C227 0.930 . S
H248 C235 0.931 . S
H249 C236 0.929 . S
H250 C244 0.929 . S
H251 C245 0.930 . S
Mn252 O257 2.095 . S
Mn252 O267 2.162 . S
Mn252 O268 2.297 . S
Mn252 O276 2.385 . S
Mn252 O277 2.209 . S
Mn252 O278 2.094 . S
Mn253 O258 2.121 . S
Mn253 N260 2.257 . S
Mn253 N269 2.282 . S
Mn253 O277 2.215 1_556 S
Mn253 O279 2.117 . S
C254 O276 1.234 . S
C254 O277 1.283 . S
C255 O267 1.281 . S
C255 O268 1.236 . S
C256 O278 1.240 . S
C256 O279 1.264 1_554 S
O257 Mn252 2.095 . S
O257 C266 1.250 . S
O258 Mn253 2.121 . S
O258 C266 1.258 1_556 S
C259 N260 1.326 . S
C259 C263 1.460 . S
C259 H265 0.929 . S
N260 Mn253 2.257 . S
N260 C259 1.326 . S
N260 C264 1.362 . S
C261 C262 1.258 . S
C261 C264 1.431 . S
C261 C281 1.449 . S
C262 C261 1.258 . S
C262 C263 1.477 . S
C262 H282 0.931 . S
C263 C259 1.460 . S
C263 C262 1.477 . S
C263 H283 0.930 . S
C264 N260 1.362 . S
C264 C261 1.431 . S
C264 C274 1.476 . S
H265 C259 0.929 . S
C266 O257 1.250 . S
C266 O258 1.258 1_554 S
O267 Mn252 2.162 . S
O267 C255 1.281 . S
O268 Mn252 2.297 . S
O268 C255 1.236 . S
N269 Mn253 2.282 . S
N269 C270 1.328 . S
N269 C274 1.318 . S
C270 N269 1.328 . S
C270 C271 1.457 . S
C270 H275 0.929 . S
C271 C270 1.457 . S
C271 C272 1.291 . S
C271 H284 0.931 . S
C272 C271 1.291 . S
C272 C273 1.373 . S
C272 H285 0.929 . S
C273 C272 1.373 . S
C273 C274 1.396 . S
C273 C280 1.403 . S
C274 C264 1.476 . S
C274 N269 1.318 . S
C274 C273 1.396 . S
H275 C270 0.929 . S
O276 Mn252 2.385 . S
O276 C254 1.234 . S
O277 Mn252 2.209 . S
O277 Mn253 2.215 1_554 S
O277 C254 1.283 . S
O278 Mn252 2.094 . S
O278 C256 1.240 . S
O279 Mn253 2.117 . S
O279 C256 1.264 1_556 S
C280 C273 1.403 . S
C280 C281 1.399 . S
C280 H286 0.929 . S
C281 C261 1.449 . S
C281 C280 1.399 . S
C281 H287 0.930 . S
H282 C262 0.931 . S
H283 C263 0.930 . S
H284 C271 0.931 . S
H285 C272 0.929 . S
H286 C280 0.929 . S
H287 C281 0.930 . S
H288 C296 0.950 . S
H289 C301 0.950 . S
H290 C298 0.950 . S
H291 C300 0.950 . S
H292 C302 0.950 . S
H293 C304 0.950 . S
H294 C306 0.950 . S
H295 C307 0.950 . S
C296 H288 0.950 . S
C296 C297 1.386 . S
C296 C298 1.391 . S
C297 C296 1.386 . S
C297 C301 1.393 . S
C298 H290 0.950 . S
C298 C296 1.391 . S
C298 C299 1.400 . S
C299 C298 1.400 . S
C299 C300 1.398 . S
C299 C305 1.491 . S
C300 H291 0.950 . S
C300 C299 1.398 . S
C300 C301 1.391 . S
C301 H289 0.950 . S
C301 C297 1.393 . S
C301 C300 1.391 . S
C302 H292 0.950 . S
C302 C303 1.386 . S
C302 C304 1.391 . S
C303 C302 1.386 . S
C303 C307 1.393 . S
C304 H293 0.950 . S
C304 C302 1.391 . S
C304 C305 1.400 . S
C305 C299 1.491 . S
C305 C304 1.400 . S
C305 C306 1.398 . S
C306 H294 0.950 . S
C306 C305 1.398 . S
C306 C307 1.391 . S
C307 H295 0.950 . S
C307 C303 1.393 . S
C307 C306 1.391 . S
H308 C316 0.950 . S
H309 C321 0.950 . S
H310 C318 0.950 . S
H311 C320 0.950 . S
H312 C322 0.950 . S
H313 C324 0.950 . S
H314 C326 0.950 . S
H315 C327 0.950 . S
C316 H308 0.950 . S
C316 C317 1.386 . S
C316 C318 1.391 . S
C317 C316 1.386 . S
C317 C321 1.393 . S
C318 H310 0.950 . S
C318 C316 1.391 . S
C318 C319 1.400 . S
C319 C318 1.400 . S
C319 C320 1.398 . S
C319 C325 1.491 . S
C320 H311 0.950 . S
C320 C319 1.398 . S
C320 C321 1.391 . S
C321 H309 0.950 . S
C321 C317 1.393 . S
C321 C320 1.391 . S
C322 H312 0.950 . S
C322 C323 1.386 . S
C322 C324 1.391 . S
C323 C322 1.386 . S
C323 C327 1.393 . S
C324 H313 0.950 . S
C324 C322 1.391 . S
C324 C325 1.400 . S
C325 C319 1.491 . S
C325 C324 1.400 . S
C325 C326 1.398 . S
C326 H314 0.950 . S
C326 C325 1.398 . S
C326 C327 1.391 . S
C327 H315 0.950 . S
C327 C323 1.393 . S
C327 C326 1.391 . S
H328 C336 0.950 . S
H329 C341 0.950 . S
H330 C338 0.950 . S
H331 C340 0.950 . S
H332 C342 0.950 . S
H333 C344 0.950 . S
H334 C346 0.950 . S
H335 C347 0.950 . S
C336 H328 0.950 . S
C336 C337 1.386 . S
C336 C338 1.391 . S
C337 C336 1.386 . S
C337 C341 1.393 . S
C338 H330 0.950 . S
C338 C336 1.391 . S
C338 C339 1.400 . S
C339 C338 1.400 . S
C339 C340 1.398 . S
C339 C345 1.491 . S
C340 H331 0.950 . S
C340 C339 1.398 . S
C340 C341 1.391 . S
C341 H329 0.950 . S
C341 C337 1.393 . S
C341 C340 1.391 . S
C342 H332 0.950 . S
C342 C343 1.386 . S
C342 C344 1.391 . S
C343 C342 1.386 . S
C343 C347 1.393 . S
C344 H333 0.950 . S
C344 C342 1.391 . S
C344 C345 1.400 . S
C345 C339 1.491 . S
C345 C344 1.400 . S
C345 C346 1.398 . S
C346 H334 0.950 . S
C346 C345 1.398 . S
C346 C347 1.391 . S
C347 H335 0.950 . S
C347 C343 1.393 . S
C347 C346 1.391 . S
H348 C356 0.950 . S
H349 C361 0.950 . S
H350 C358 0.950 . S
H351 C360 0.950 . S
H352 C362 0.950 . S
H353 C364 0.950 . S
H354 C366 0.950 . S
H355 C367 0.950 . S
C356 H348 0.950 . S
C356 C357 1.386 . S
C356 C358 1.391 . S
C357 C356 1.386 . S
C357 C361 1.393 . S
C358 H350 0.950 . S
C358 C356 1.391 . S
C358 C359 1.400 . S
C359 C358 1.400 . S
C359 C360 1.398 . S
C359 C365 1.491 . S
C360 H351 0.950 . S
C360 C359 1.398 . S
C360 C361 1.391 . S
C361 H349 0.950 . S
C361 C357 1.393 . S
C361 C360 1.391 . S
C362 H352 0.950 . S
C362 C363 1.386 . S
C362 C364 1.391 . S
C363 C362 1.386 . S
C363 C367 1.393 . S
C364 H353 0.950 . S
C364 C362 1.391 . S
C364 C365 1.400 . S
C365 C359 1.491 . S
C365 C364 1.400 . S
C365 C366 1.398 . S
C366 H354 0.950 . S
C366 C365 1.398 . S
C366 C367 1.391 . S
C367 H355 0.950 . S
C367 C363 1.393 . S
C367 C366 1.391 . S
H368 C376 0.950 . S
H369 C381 0.950 . S
H370 C378 0.950 . S
H371 C380 0.950 . S
H372 C382 0.950 . S
H373 C384 0.950 . S
H374 C386 0.950 . S
H375 C387 0.950 . S
C376 H368 0.950 . S
C376 C377 1.386 . S
C376 C378 1.391 . S
C377 C376 1.386 . S
C377 C381 1.393 . S
C378 H370 0.950 . S
C378 C376 1.391 . S
C378 C379 1.400 . S
C379 C378 1.400 . S
C379 C380 1.398 . S
C379 C385 1.491 . S
C380 H371 0.950 . S
C380 C379 1.398 . S
C380 C381 1.391 . S
C381 H369 0.950 . S
C381 C377 1.393 . S
C381 C380 1.391 . S
C382 H372 0.950 . S
C382 C383 1.386 . S
C382 C384 1.391 . S
C383 C382 1.386 . S
C383 C387 1.393 . S
C384 H373 0.950 . S
C384 C382 1.391 . S
C384 C385 1.400 . S
C385 C379 1.491 . S
C385 C384 1.400 . S
C385 C386 1.398 . S
C386 H374 0.950 . S
C386 C385 1.398 . S
C386 C387 1.391 . S
C387 H375 0.950 . S
C387 C383 1.393 . S
C387 C386 1.391 . S
H388 C396 0.950 . S
H389 C401 0.950 . S
H390 C398 0.950 . S
H391 C400 0.950 . S
H392 C402 0.950 . S
H393 C404 0.950 . S
H394 C406 0.950 . S
H395 C407 0.950 . S
C396 H388 0.950 . S
C396 C397 1.386 . S
C396 C398 1.391 . S
C397 C396 1.386 . S
C397 C401 1.393 . S
C398 H390 0.950 . S
C398 C396 1.391 . S
C398 C399 1.400 . S
C399 C398 1.400 . S
C399 C400 1.398 . S
C399 C405 1.491 . S
C400 H391 0.950 . S
C400 C399 1.398 . S
C400 C401 1.391 . S
C401 H389 0.950 . S
C401 C397 1.393 . S
C401 C400 1.391 . S
C402 H392 0.950 . S
C402 C403 1.386 . S
C402 C404 1.391 . S
C403 C402 1.386 . S
C403 C407 1.393 . S
C404 H393 0.950 . S
C404 C402 1.391 . S
C404 C405 1.400 . S
C405 C399 1.491 . S
C405 C404 1.400 . S
C405 C406 1.398 . S
C406 H394 0.950 . S
C406 C405 1.398 . S
C406 C407 1.391 . S
C407 H395 0.950 . S
C407 C403 1.393 . S
C407 C406 1.391 . S
H408 C416 0.950 . S
H409 C421 0.950 . S
H410 C418 0.950 . S
H411 C420 0.950 . S
H412 C422 0.950 . S
H413 C424 0.950 . S
H414 C426 0.950 . S
H415 C427 0.950 . S
C416 H408 0.950 . S
C416 C417 1.386 . S
C416 C418 1.391 . S
C417 C416 1.386 . S
C417 C421 1.393 . S
C418 H410 0.950 . S
C418 C416 1.391 . S
C418 C419 1.400 . S
C419 C418 1.400 . S
C419 C420 1.398 . S
C419 C425 1.491 . S
C420 H411 0.950 . S
C420 C419 1.398 . S
C420 C421 1.391 . S
C421 H409 0.950 . S
C421 C417 1.393 . S
C421 C420 1.391 . S
C422 H412 0.950 . S
C422 C423 1.386 . S
C422 C424 1.391 . S
C423 C422 1.386 . S
C423 C427 1.393 . S
C424 H413 0.950 . S
C424 C422 1.391 . S
C424 C425 1.400 . S
C425 C419 1.491 . S
C425 C424 1.400 . S
C425 C426 1.398 . S
C426 H414 0.950 . S
C426 C425 1.398 . S
C426 C427 1.391 . S
C427 H415 0.950 . S
C427 C423 1.393 . S
C427 C426 1.391 . S
H428 C436 0.950 . S
H429 C441 0.950 . S
H430 C438 0.950 . S
H431 C440 0.950 . S
H432 C442 0.950 . S
H433 C444 0.950 . S
H434 C446 0.950 . S
H435 C447 0.950 . S
C436 H428 0.950 . S
C436 C437 1.386 . S
C436 C438 1.391 . S
C437 C436 1.386 . S
C437 C441 1.393 . S
C438 H430 0.950 . S
C438 C436 1.391 . S
C438 C439 1.400 . S
C439 C438 1.400 . S
C439 C440 1.398 . S
C439 C445 1.491 . S
C440 H431 0.950 . S
C440 C439 1.398 . S
C440 C441 1.391 . S
C441 H429 0.950 . S
C441 C437 1.393 . S
C441 C440 1.391 . S
C442 H432 0.950 . S
C442 C443 1.386 . S
C442 C444 1.391 . S
C443 C442 1.386 . S
C443 C447 1.393 . S
C444 H433 0.950 . S
C444 C442 1.391 . S
C444 C445 1.400 . S
C445 C439 1.491 . S
C445 C444 1.400 . S
C445 C446 1.398 . S
C446 H434 0.950 . S
C446 C445 1.398 . S
C446 C447 1.391 . S
C447 H435 0.950 . S
C447 C443 1.393 . S
C447 C446 1.391 . S
H448 C456 0.950 . S
H449 C461 0.950 . S
H450 C458 0.950 . S
H451 C460 0.950 . S
H452 C462 0.950 . S
H453 C464 0.950 . S
H454 C466 0.950 . S
H455 C467 0.950 . S
C456 H448 0.950 . S
C456 C457 1.386 1_556 S
C456 C458 1.391 . S
C457 C456 1.386 1_554 S
C457 C461 1.393 . S
C458 H450 0.950 . S
C458 C456 1.391 . S
C458 C459 1.400 1_556 S
C459 C458 1.400 1_554 S
C459 C460 1.398 . S
C459 C465 1.491 . S
C460 H451 0.950 . S
C460 C459 1.398 . S
C460 C461 1.391 . S
C461 H449 0.950 . S
C461 C457 1.393 . S
C461 C460 1.391 . S
C462 H452 0.950 . S
C462 C463 1.386 1_554 S
C462 C464 1.391 . S
C463 C462 1.386 1_556 S
C463 C467 1.393 . S
C464 H453 0.950 . S
C464 C462 1.391 . S
C464 C465 1.400 . S
C465 C459 1.491 . S
C465 C464 1.400 . S
C465 C466 1.398 1_554 S
C466 H454 0.950 . S
C466 C465 1.398 1_556 S
C466 C467 1.391 . S
C467 H455 0.950 . S
C467 C463 1.393 . S
C467 C466 1.391 . S
H468 C476 0.950 . S
H469 C481 0.950 . S
H470 C478 0.950 . S
H471 C480 0.950 . S
H472 C482 0.950 . S
H473 C484 0.950 . S
H474 C486 0.950 . S
H475 C487 0.950 . S
C476 H468 0.950 . S
C476 C477 1.386 . S
C476 C478 1.391 . S
C477 C476 1.386 . S
C477 C481 1.393 1_554 S
C478 H470 0.950 . S
C478 C476 1.391 . S
C478 C479 1.400 1_554 S
C479 C478 1.400 1_556 S
C479 C480 1.398 . S
C479 C485 1.491 . S
C480 H471 0.950 . S
C480 C479 1.398 . S
C480 C481 1.391 . S
C481 H469 0.950 . S
C481 C477 1.393 1_556 S
C481 C480 1.391 . S
C482 H472 0.950 . S
C482 C483 1.386 . S
C482 C484 1.391 . S
C483 C482 1.386 . S
C483 C487 1.393 1_556 S
C484 H473 0.950 . S
C484 C482 1.391 . S
C484 C485 1.400 . S
C485 C479 1.491 . S
C485 C484 1.400 . S
C485 C486 1.398 1_556 S
C486 H474 0.950 . S
C486 C485 1.398 1_554 S
C486 C487 1.391 . S
C487 H475 0.950 . S
C487 C483 1.393 1_554 S
C487 C486 1.391 . S
H488 C496 0.950 . S
H489 C501 0.950 . S
H490 C498 0.950 . S
H491 C500 0.953 . S
H492 C502 0.950 . S
H493 C504 0.950 . S
H494 C506 0.950 . S
H495 C507 0.950 1_554 S
C496 H488 0.950 . S
C496 C497 1.386 . S
C496 C498 1.391 . S
C497 C496 1.386 . S
C497 C501 1.393 . S
C498 H490 0.950 . S
C498 C496 1.391 . S
C498 C499 1.400 . S
C499 C498 1.400 . S
C499 C500 1.398 . S
C499 C505 1.492 . S
C500 H491 0.953 . S
C500 C499 1.398 . S
C500 C501 1.391 . S
C501 H489 0.950 . S
C501 C497 1.393 . S
C501 C500 1.391 . S
C502 H492 0.950 . S
C502 C503 1.386 . S
C502 C504 1.391 . S
C503 C502 1.386 . S
C503 C507 1.393 . S
C504 H493 0.950 . S
C504 C502 1.391 . S
C504 C505 1.398 1_556 S
C505 C499 1.492 . S
C505 C504 1.398 1_554 S
C505 C506 1.399 . S
C506 H494 0.950 . S
C506 C505 1.399 . S
C506 C507 1.391 1_554 S
C507 H495 0.950 1_556 S
C507 C503 1.393 . S
C507 C506 1.391 1_556 S
H508 C516 0.950 . S
H509 C521 0.950 . S
H510 C518 0.950 . S
H511 C520 0.950 . S
H512 C522 0.950 . S
H513 C524 0.950 . S
H514 C526 0.950 . S
H515 C527 0.950 . S
C516 H508 0.950 . S
C516 C517 1.386 1_554 S
C516 C518 1.391 . S
C517 C516 1.386 1_556 S
C517 C521 1.393 . S
C518 H510 0.950 . S
C518 C516 1.391 . S
C518 C519 1.400 1_554 S
C519 C518 1.400 1_556 S
C519 C520 1.398 . S
C519 C525 1.492 . S
C520 H511 0.950 . S
C520 C519 1.398 . S
C520 C521 1.391 . S
C521 H509 0.950 . S
C521 C517 1.393 . S
C521 C520 1.391 . S
C522 H512 0.950 . S
C522 C523 1.386 1_556 S
C522 C524 1.391 . S
C523 C522 1.386 1_554 S
C523 C527 1.393 . S
C524 H513 0.950 . S
C524 C522 1.391 . S
C524 C525 1.405 . S
C525 C519 1.492 . S
C525 C524 1.405 . S
C525 C526 1.392 1_556 S
C526 H514 0.950 . S
C526 C525 1.392 1_554 S
C526 C527 1.391 . S
C527 H515 0.950 . S
C527 C523 1.393 . S
C527 C526 1.391 . S
H528 C536 0.950 1_455 S
H529 C541 0.950 . S
H530 C538 0.950 . S
H531 C540 0.950 . S
H532 C542 0.950 1_655 S
H533 C544 0.950 . S
H534 C546 0.950 . S
H535 C547 0.950 . S
C536 H528 0.950 1_655 S
C536 C537 1.386 . S
C536 C538 1.391 1_655 S
C537 C536 1.386 . S
C537 C541 1.393 . S
C538 H530 0.950 . S
C538 C536 1.391 1_455 S
C538 C539 1.400 1_455 S
C539 C538 1.400 1_655 S
C539 C540 1.398 . S
C539 C545 1.491 1_655 S
C540 H531 0.950 . S
C540 C539 1.398 . S
C540 C541 1.391 . S
C541 H529 0.950 . S
C541 C537 1.393 . S
C541 C540 1.391 . S
C542 H532 0.950 1_455 S
C542 C543 1.386 . S
C542 C544 1.391 1_455 S
C543 C542 1.386 . S
C543 C547 1.393 . S
C544 H533 0.950 . S
C544 C542 1.391 1_655 S
C544 C545 1.400 1_655 S
C545 C539 1.491 1_455 S
C545 C544 1.400 1_455 S
C545 C546 1.398 . S
C546 H534 0.950 . S
C546 C545 1.398 . S
C546 C547 1.391 . S
C547 H535 0.950 . S
C547 C543 1.393 . S
C547 C546 1.391 . S
H548 C556 0.950 . S
H549 C561 0.950 . S
H550 C558 0.937 1_565 S
H551 C560 0.950 . S
H552 C562 0.950 . S
H553 C564 0.937 1_545 S
H554 C566 0.950 . S
H555 C567 0.950 . S
C556 H548 0.950 . S
C556 C557 1.386 . S
C556 C558 1.400 . S
C557 C556 1.386 . S
C557 C561 1.393 . S
C558 H550 0.937 1_545 S
C558 C556 1.400 . S
C558 C559 1.405 . S
C559 C558 1.405 . S
C559 C560 1.398 . S
C559 C565 1.491 1_545 S
C560 H551 0.950 . S
C560 C559 1.398 . S
C560 C561 1.391 . S
C561 H549 0.950 . S
C561 C557 1.393 . S
C561 C560 1.391 . S
C562 H552 0.950 . S
C562 C563 1.386 . S
C562 C564 1.400 . S
C563 C562 1.386 . S
C563 C567 1.393 . S
C564 H553 0.937 1_565 S
C564 C562 1.400 . S
C564 C565 1.405 . S
C565 C559 1.491 1_565 S
C565 C564 1.405 . S
C565 C566 1.398 . S
C566 H554 0.950 . S
C566 C565 1.398 . S
C566 C567 1.391 . S
C567 H555 0.950 . S
C567 C563 1.393 . S
C567 C566 1.391 . S
H568 C576 0.950 . S
H569 C581 0.950 . S
H570 C578 0.950 . S
H571 C580 0.950 . S
H572 C582 0.950 . S
H573 C584 0.950 . S
H574 C586 0.950 . S
H575 C587 0.950 . S
C576 H568 0.950 . S
C576 C577 1.386 . S
C576 C578 1.391 . S
C577 C576 1.386 . S
C577 C581 1.393 1_556 S
C578 H570 0.950 . S
C578 C576 1.391 . S
C578 C579 1.400 . S
C579 C578 1.400 . S
C579 C580 1.398 1_556 S
C579 C585 1.491 1_545 S
C580 H571 0.950 . S
C580 C579 1.398 1_554 S
C580 C581 1.391 . S
C581 H569 0.950 . S
C581 C577 1.393 1_554 S
C581 C580 1.391 . S
C582 H572 0.950 . S
C582 C583 1.386 1_554 S
C582 C584 1.391 . S
C583 C582 1.386 1_556 S
C583 C587 1.393 . S
C584 H573 0.950 . S
C584 C582 1.391 . S
C584 C585 1.400 1_554 S
C585 C579 1.491 1_565 S
C585 C584 1.400 1_556 S
C585 C586 1.398 . S
C586 H574 0.950 . S
C586 C585 1.398 . S
C586 C587 1.391 . S
C587 H575 0.950 . S
C587 C583 1.393 . S
C587 C586 1.391 . S
H588 C596 0.950 . S
H589 C601 0.950 . S
H590 C598 0.950 . S
H591 C600 0.927 1_655 S
H592 C602 0.950 . S
H593 C604 0.950 . S
H594 C606 0.927 1_455 S
H595 C607 0.950 . S
C596 H588 0.950 . S
C596 C597 1.386 . S
C596 C598 1.391 . S
C597 C596 1.386 . S
C597 C601 1.393 . S
C598 H590 0.950 . S
C598 C596 1.391 . S
C598 C599 1.400 . S
C599 C598 1.400 . S
C599 C600 1.398 . S
C599 C605 1.491 1_455 S
C600 H591 0.927 1_455 S
C600 C599 1.398 . S
C600 C601 1.391 . S
C601 H589 0.950 . S
C601 C597 1.393 . S
C601 C600 1.391 . S
C602 H592 0.950 . S
C602 C603 1.386 . S
C602 C604 1.391 . S
C603 C602 1.386 . S
C603 C607 1.393 . S
C604 H593 0.950 . S
C604 C602 1.391 . S
C604 C605 1.400 . S
C605 C599 1.491 1_655 S
C605 C604 1.400 . S
C605 C606 1.398 . S
C606 H594 0.927 1_655 S
C606 C605 1.398 . S
C606 C607 1.391 . S
C607 H595 0.950 . S
C607 C603 1.393 . S
C607 C606 1.391 . S
C297 C255 1.547 . S
C303 C3 1.544 . S
C317 C39 1.548 . S
C323 C147 1.549 . S
C337 C75 1.548 . S
C343 C183 1.547 . S
C357 C219 1.548 . S
C363 C111 1.548 . S
C377 C40 1.450 . S
C383 C14 1.399 . S
C397 C50 1.398 . S
C403 C76 1.449 . S
C417 C112 1.447 . S
C423 C86 1.381 . S
C437 C122 1.398 . S
C443 C4 1.449 . S
C457 C256 1.447 . S
C463 C158 1.381 . S
C477 C194 1.408 . S
C483 C148 1.451 . S
C497 C184 1.450 . S
C503 C230 1.404 . S
C517 C220 1.450 . S
C523 C266 1.405 . S
C537 C74 0.923 . S
C543 C2 0.885 . S
C557 C110 0.906 . S
C563 C38 0.926 . S
C577 C218 0.925 . S
C583 C146 0.909 . S
C597 C254 0.923 . S
C603 C182 0.886 . S
