# Generated by pormake.
# Topology umk, (4)-cn, num edge types: 1
# Building blocks:
#     Node 0, Type 0, BuildingBlock: ICAMEG_clean_sbu_1, # of connection points: 4
#     Node 1, Type 0, BuildingBlock: ICAMEG_clean_sbu_1, # of connection points: 4
#     Node 2, Type 0, BuildingBlock: ICAMEG_clean_sbu_1, # of connection points: 4
#     Node 3, Type 0, BuildingBlock: ICAMEG_clean_sbu_1, # of connection points: 4
#     Node 4, Type 0, BuildingBlock: ICAMEG_clean_sbu_1, # of connection points: 4
#     Node 5, Type 0, BuildingBlock: ICAMEG_clean_sbu_1, # of connection points: 4
#     Node 6, Type 0, BuildingBlock: ICAMEG_clean_sbu_1, # of connection points: 4
#     Node 7, Type 0, BuildingBlock: ICAMEG_clean_sbu_1, # of connection points: 4
#     Node 8, Type 0, BuildingBlock: ICAMEG_clean_sbu_1, # of connection points: 4
#     Node 9, Type 0, BuildingBlock: ICAMEG_clean_sbu_1, # of connection points: 4
#     Node 10, Type 0, BuildingBlock: ICAMEG_clean_sbu_1, # of connection points: 4
#     Node 11, Type 0, BuildingBlock: ICAMEG_clean_sbu_1, # of connection points: 4
#     Node 12, Type 0, BuildingBlock: ICAMEG_clean_sbu_1, # of connection points: 4
#     Node 13, Type 0, BuildingBlock: ICAMEG_clean_sbu_1, # of connection points: 4
#     Node 14, Type 0, BuildingBlock: ICAMEG_clean_sbu_1, # of connection points: 4
#     Node 15, Type 0, BuildingBlock: ICAMEG_clean_sbu_1, # of connection points: 4
#     Node 16, Type 0, BuildingBlock: ICAMEG_clean_sbu_1, # of connection points: 4
#     Node 17, Type 0, BuildingBlock: ICAMEG_clean_sbu_1, # of connection points: 4
#     Node 18, Type 0, BuildingBlock: ICAMEG_clean_sbu_1, # of connection points: 4
#     Node 19, Type 0, BuildingBlock: ICAMEG_clean_sbu_1, # of connection points: 4
#     Node 20, Type 0, BuildingBlock: ICAMEG_clean_sbu_1, # of connection points: 4
#     Node 21, Type 0, BuildingBlock: ICAMEG_clean_sbu_1, # of connection points: 4
#     Node 22, Type 0, BuildingBlock: ICAMEG_clean_sbu_1, # of connection points: 4
#     Node 23, Type 0, BuildingBlock: ICAMEG_clean_sbu_1, # of connection points: 4
#     Edge 24, Type (0, 0), BuildingBlock: CIFDUS_clean_linker_0, # of connection points: 2
#     Edge 25, Type (0, 0), BuildingBlock: CIFDUS_clean_linker_0, # of connection points: 2
#     Edge 26, Type (0, 0), BuildingBlock: CIFDUS_clean_linker_0, # of connection points: 2
#     Edge 27, Type (0, 0), BuildingBlock: CIFDUS_clean_linker_0, # of connection points: 2
#     Edge 28, Type (0, 0), BuildingBlock: CIFDUS_clean_linker_0, # of connection points: 2
#     Edge 29, Type (0, 0), BuildingBlock: CIFDUS_clean_linker_0, # of connection points: 2
#     Edge 30, Type (0, 0), BuildingBlock: CIFDUS_clean_linker_0, # of connection points: 2
#     Edge 31, Type (0, 0), BuildingBlock: CIFDUS_clean_linker_0, # of connection points: 2
#     Edge 32, Type (0, 0), BuildingBlock: CIFDUS_clean_linker_0, # of connection points: 2
#     Edge 33, Type (0, 0), BuildingBlock: CIFDUS_clean_linker_0, # of connection points: 2
#     Edge 34, Type (0, 0), BuildingBlock: CIFDUS_clean_linker_0, # of connection points: 2
#     Edge 35, Type (0, 0), BuildingBlock: CIFDUS_clean_linker_0, # of connection points: 2
#     Edge 36, Type (0, 0), BuildingBlock: CIFDUS_clean_linker_0, # of connection points: 2
#     Edge 37, Type (0, 0), BuildingBlock: CIFDUS_clean_linker_0, # of connection points: 2
#     Edge 38, Type (0, 0), BuildingBlock: CIFDUS_clean_linker_0, # of connection points: 2
#     Edge 39, Type (0, 0), BuildingBlock: CIFDUS_clean_linker_0, # of connection points: 2
#     Edge 40, Type (0, 0), BuildingBlock: CIFDUS_clean_linker_0, # of connection points: 2
#     Edge 41, Type (0, 0), BuildingBlock: CIFDUS_clean_linker_0, # of connection points: 2
#     Edge 42, Type (0, 0), BuildingBlock: CIFDUS_clean_linker_0, # of connection points: 2
#     Edge 43, Type (0, 0), BuildingBlock: CIFDUS_clean_linker_0, # of connection points: 2
#     Edge 44, Type (0, 0), BuildingBlock: CIFDUS_clean_linker_0, # of connection points: 2
#     Edge 45, Type (0, 0), BuildingBlock: CIFDUS_clean_linker_0, # of connection points: 2
#     Edge 46, Type (0, 0), BuildingBlock: CIFDUS_clean_linker_0, # of connection points: 2
#     Edge 47, Type (0, 0), BuildingBlock: CIFDUS_clean_linker_0, # of connection points: 2
#     Edge 48, Type (0, 0), BuildingBlock: CIFDUS_clean_linker_0, # of connection points: 2
#     Edge 49, Type (0, 0), BuildingBlock: CIFDUS_clean_linker_0, # of connection points: 2
#     Edge 50, Type (0, 0), BuildingBlock: CIFDUS_clean_linker_0, # of connection points: 2
#     Edge 51, Type (0, 0), BuildingBlock: CIFDUS_clean_linker_0, # of connection points: 2
#     Edge 52, Type (0, 0), BuildingBlock: CIFDUS_clean_linker_0, # of connection points: 2
#     Edge 53, Type (0, 0), BuildingBlock: CIFDUS_clean_linker_0, # of connection points: 2
#     Edge 54, Type (0, 0), BuildingBlock: CIFDUS_clean_linker_0, # of connection points: 2
#     Edge 55, Type (0, 0), BuildingBlock: CIFDUS_clean_linker_0, # of connection points: 2
#     Edge 56, Type (0, 0), BuildingBlock: CIFDUS_clean_linker_0, # of connection points: 2
#     Edge 57, Type (0, 0), BuildingBlock: CIFDUS_clean_linker_0, # of connection points: 2
#     Edge 58, Type (0, 0), BuildingBlock: CIFDUS_clean_linker_0, # of connection points: 2
#     Edge 59, Type (0, 0), BuildingBlock: CIFDUS_clean_linker_0, # of connection points: 2
#     Edge 60, Type (0, 0), BuildingBlock: CIFDUS_clean_linker_0, # of connection points: 2
#     Edge 61, Type (0, 0), BuildingBlock: CIFDUS_clean_linker_0, # of connection points: 2
#     Edge 62, Type (0, 0), BuildingBlock: CIFDUS_clean_linker_0, # of connection points: 2
#     Edge 63, Type (0, 0), BuildingBlock: CIFDUS_clean_linker_0, # of connection points: 2
#     Edge 64, Type (0, 0), BuildingBlock: CIFDUS_clean_linker_0, # of connection points: 2
#     Edge 65, Type (0, 0), BuildingBlock: CIFDUS_clean_linker_0, # of connection points: 2
#     Edge 66, Type (0, 0), BuildingBlock: CIFDUS_clean_linker_0, # of connection points: 2
#     Edge 67, Type (0, 0), BuildingBlock: CIFDUS_clean_linker_0, # of connection points: 2
#     Edge 68, Type (0, 0), BuildingBlock: CIFDUS_clean_linker_0, # of connection points: 2
#     Edge 69, Type (0, 0), BuildingBlock: CIFDUS_clean_linker_0, # of connection points: 2
#     Edge 70, Type (0, 0), BuildingBlock: CIFDUS_clean_linker_0, # of connection points: 2
#     Edge 71, Type (0, 0), BuildingBlock: CIFDUS_clean_linker_0, # of connection points: 2
# Relax obj value: 0.071
# Max RMSD: 0.105
# Mean RMSD: 0.105
data_MOF--net-umk--node1-ICAMEG_clean_sbu_1--edge1-CIFDUS_clean_linker_0
_symmetry_space_group_name_H-M    P1
_symmetry_Int_Tables_number       1
_symmetry_cell_setting            triclinic
loop_
_symmetry_equiv_pos_as_xyz
'x, y, z'
_cell_length_a     60.518109
_cell_length_b     60.541697
_cell_length_c     43.376117
_cell_angle_alpha  89.962109
_cell_angle_beta   89.988742
_cell_angle_gamma 120.0092
loop_
_atom_site_label
_atom_site_type_symbol
_atom_site_fract_x
_atom_site_fract_y
_atom_site_fract_z
_atom_type_partial_charge
Co0 Co 0.37218 0.49845 0.11413 0.0
Co1 Co 0.34168 0.45996 0.05156 0.0
O2 O 0.34163 0.47457 0.09157 0.0
C3 C 0.34621 0.45617 0.15882 0.0
O4 O 0.34491 0.4405 0.13706 0.0
C5 C 0.31048 0.4769 0.0162 0.0
O6 O 0.3297 0.4886 0.99699 0.0
O7 O 0.36657 0.49431 0.03486 0.0
O8 O 0.38905 0.51742 0.07564 0.0
H9 H 0.38149 0.44785 0.95615 0.0
H10 H 0.32157 0.48936 0.13462 0.0
O11 O 0.35597 0.47992 0.15332 0.0
H12 H 0.37194 0.58149 0.11233 0.0
H13 H 0.41917 0.55424 0.20471 0.0
H14 H 0.42792 0.52217 0.10359 0.0
H15 H 0.39086 0.55396 0.10571 0.0
H16 H 0.38103 0.52478 0.17473 0.0
O17 O 0.31221 0.46474 0.03927 0.0
H18 H 0.38148 0.46582 0.00719 0.0
H19 H 0.30053 0.42298 0.00991 0.0
H20 H 0.46657 0.55183 0.13264 0.0
H21 H 0.30195 0.51625 0.14182 0.0
H22 H 0.46232 0.56805 0.1836 0.0
H23 H 0.3272 0.56266 0.13061 0.0
O24 O 0.38762 0.47644 0.10807 0.0
H25 H 0.26365 0.39692 0.11011 0.0
H26 H 0.3386 0.40921 0.05101 0.0
H27 H 0.30906 0.36692 0.07301 0.0
H28 H 0.27121 0.36055 0.10274 0.0
H29 H 0.29382 0.43896 0.08798 0.0
H30 H 0.29963 0.40463 0.95883 0.0
H31 H 0.34033 0.41702 0.93164 0.0
O32 O 0.37073 0.4548 0.06412 0.0
C33 C 0.38486 0.51446 0.04673 0.0
C34 C 0.36363 0.44226 0.96779 0.0
C35 C 0.31768 0.41802 0.96928 0.0
N36 N 0.34104 0.44536 0.01154 0.0
C37 C 0.36351 0.45234 0.99671 0.0
C38 C 0.3183 0.42848 0.99817 0.0
C39 C 0.34053 0.42498 0.95405 0.0
C40 C 0.33271 0.50957 0.12987 0.0
N41 N 0.35735 0.5201 0.11989 0.0
C42 C 0.32149 0.52469 0.13391 0.0
C43 C 0.33565 0.55072 0.12758 0.0
C44 C 0.36075 0.5613 0.11731 0.0
C45 C 0.37134 0.5456 0.11352 0.0
C46 C 0.42127 0.54736 0.18249 0.0
C47 C 0.42592 0.52931 0.12564 0.0
C48 C 0.39975 0.53064 0.16544 0.0
N49 N 0.40226 0.52196 0.13732 0.0
C50 C 0.44787 0.54603 0.14203 0.0
C51 C 0.44548 0.5551 0.17063 0.0
C52 C 0.38617 0.46115 0.08687 0.0
C53 C 0.28002 0.39944 0.09712 0.0
C54 C 0.32223 0.40662 0.06401 0.0
C55 C 0.30553 0.38261 0.07635 0.0
C56 C 0.2843 0.37905 0.09301 0.0
N57 N 0.31786 0.42651 0.06804 0.0
C58 C 0.29712 0.42318 0.08442 0.0
Co59 Co 0.89176 0.37481 0.6023 0.0
Co60 Co 0.88831 0.33961 0.53749 0.0
O61 O 0.87874 0.34234 0.58009 0.0
C62 C 0.89441 0.33861 0.64905 0.0
O63 O 0.88854 0.32057 0.6286 0.0
C64 C 0.83162 0.31381 0.53495 0.0
O65 O 0.83336 0.33293 0.55112 0.0
O66 O 0.88176 0.36713 0.5231 0.0
O67 O 0.88846 0.39172 0.56461 0.0
H68 H 0.9342 0.37361 0.43693 0.0
H69 H 0.84737 0.32736 0.62672 0.0
O70 O 0.89589 0.35967 0.64155 0.0
H71 H 0.81628 0.388 0.61292 0.0
H72 H 0.89984 0.43032 0.69301 0.0
H73 H 0.92858 0.42876 0.58704 0.0
H74 H 0.86082 0.40068 0.60057 0.0
H75 H 0.88297 0.38969 0.66482 0.0
O76 O 0.85181 0.31337 0.52762 0.0
H77 H 0.92203 0.37666 0.49038 0.0
H78 H 0.87426 0.29617 0.4944 0.0
H79 H 0.94573 0.46984 0.61429 0.0
H80 H 0.80281 0.31399 0.63967 0.0
H81 H 0.93137 0.47079 0.66768 0.0
H82 H 0.78693 0.34438 0.63271 0.0
O83 O 0.92759 0.38511 0.59113 0.0
H84 H 0.86622 0.25745 0.59103 0.0
H85 H 0.93155 0.32951 0.53038 0.0
H86 H 0.93996 0.29566 0.54787 0.0
H87 H 0.90711 0.25924 0.57834 0.0
H88 H 0.85879 0.29196 0.57352 0.0
H89 H 0.88574 0.29227 0.44092 0.0
H90 H 0.916 0.33118 0.41186 0.0
O91 O 0.92494 0.36558 0.54611 0.0
C92 C 0.8838 0.38699 0.53603 0.0
C93 C 0.92106 0.35652 0.44939 0.0
C94 C 0.89383 0.31086 0.45161 0.0
N95 N 0.8976 0.33661 0.49555 0.0
C96 C 0.91415 0.35812 0.47968 0.0
C97 C 0.88736 0.3132 0.48186 0.0
C98 C 0.91082 0.3327 0.43532 0.0
C99 C 0.8408 0.34085 0.62406 0.0
N100 N 0.85687 0.3649 0.61326 0.0
C101 C 0.81545 0.3331 0.63125 0.0
C102 C 0.80654 0.35014 0.62727 0.0
C103 C 0.82299 0.3746 0.61615 0.0
C104 C 0.8482 0.38167 0.60916 0.0
C105 C 0.9062 0.43016 0.66973 0.0
C106 C 0.9221 0.42904 0.61019 0.0
C107 C 0.89676 0.40721 0.65367 0.0
N108 N 0.90464 0.40687 0.62421 0.0
C109 C 0.93193 0.45235 0.62554 0.0
C110 C 0.92389 0.45286 0.6555 0.0
C111 C 0.93784 0.38111 0.56768 0.0
C112 C 0.88067 0.27321 0.57774 0.0
C113 C 0.91727 0.31389 0.54392 0.0
C114 C 0.92209 0.29469 0.55361 0.0
C115 C 0.90363 0.27424 0.57066 0.0
N116 N 0.89472 0.31277 0.55101 0.0
C117 C 0.87652 0.29275 0.56764 0.0
Co118 Co 0.52906 0.88837 0.11556 0.0
Co119 Co 0.55234 0.88154 0.0464 0.0
O120 O 0.54463 0.87332 0.09002 0.0
C121 C 0.56356 0.90586 0.1698 0.0
O122 O 0.56891 0.92921 0.16327 0.0
C123 C 0.52872 0.82934 0.01908 0.0
O124 O 0.51503 0.83548 1.00131 0.0
O125 O 0.51619 0.87244 0.03863 0.0
O126 O 0.50775 0.88868 0.0805 0.0
H127 H 0.54887 0.91984 0.94502 0.0
H128 H 0.528 0.84104 0.13568 0.0
O129 O 0.54956 0.88762 0.15157 0.0
H130 H 0.43779 0.81887 0.13106 0.0
H131 H 0.4893 0.89857 0.21277 0.0
H132 H 0.51816 0.93057 0.10733 0.0
H133 H 0.47209 0.86232 0.11826 0.0
H134 H 0.50779 0.87887 0.1796 0.0
O135 O 0.54363 0.84516 0.0392 0.0
H136 H 0.5403 0.91015 1.00043 0.0
H137 H 0.58007 0.86892 0.99878 0.0
H138 H 0.49968 0.95077 0.13967 0.0
H139 H 0.49429 0.79742 0.14907 0.0
H140 H 0.48512 0.93477 0.19281 0.0
H141 H 0.44881 0.78608 0.14676 0.0
O142 O 0.5567 0.92311 0.10363 0.0
H143 H 0.62121 0.86854 0.09246 0.0
H144 H 0.60331 0.92556 0.02938 0.0
H145 H 0.6479 0.93762 0.04039 0.0
H146 H 0.6571 0.90895 0.07203 0.0
H147 H 0.57687 0.85737 0.08123 0.0
H148 H 0.58903 0.87812 0.94333 0.0
H149 H 0.5734 0.90377 0.91609 0.0
O150 O 0.56195 0.91816 0.05336 0.0
C151 C 0.5024 0.8794 0.05334 0.0
C152 C 0.55581 0.90867 0.95664 0.0
C153 C 0.57834 0.88525 0.95568 0.0
N154 N 0.55972 0.88905 0.00284 0.0
C155 C 0.55104 0.90315 0.98801 0.0
C156 C 0.5732 0.88009 0.98707 0.0
C157 C 0.56957 0.89964 0.94042 0.0
C158 C 0.50826 0.83631 0.1348 0.0
N159 N 0.50206 0.85427 0.12632 0.0
C160 C 0.48925 0.81155 0.14233 0.0
C161 C 0.46373 0.80519 0.141 0.0
C162 C 0.45754 0.82357 0.13217 0.0
C163 C 0.47706 0.84813 0.12482 0.0
C164 C 0.49556 0.9057 0.18964 0.0
C165 C 0.5118 0.92346 0.1304 0.0
C166 C 0.50606 0.89463 0.17076 0.0
N167 N 0.51402 0.90354 0.14152 0.0
C168 C 0.50138 0.93499 0.14861 0.0
C169 C 0.49322 0.92601 0.17843 0.0
C170 C 0.5655 0.93221 0.07696 0.0
C171 C 0.61745 0.88116 0.07859 0.0
C172 C 0.60712 0.91307 0.04335 0.0
C173 C 0.63243 0.91995 0.04941 0.0
C174 C 0.63758 0.90385 0.06714 0.0
N175 N 0.58747 0.89072 0.05453 0.0
C176 C 0.59238 0.8749 0.07206 0.0
Co177 Co 0.64607 0.52075 0.60965 0.0
Co178 Co 0.67984 0.55318 0.54463 0.0
O179 O 0.678 0.54121 0.58703 0.0
C180 C 0.66873 0.56301 0.65617 0.0
O181 O 0.66806 0.57885 0.63603 0.0
C182 C 0.70779 0.52438 0.5397 0.0
O183 O 0.68841 0.50526 0.5537 0.0
O184 O 0.65334 0.51849 0.53047 0.0
O185 O 0.62894 0.50031 0.57218 0.0
H186 H 0.64381 0.56231 0.44421 0.0
H187 H 0.69442 0.5264 0.63375 0.0
O188 O 0.66233 0.54028 0.64843 0.0
H189 H 0.63776 0.43395 0.61873 0.0
H190 H 0.59366 0.47221 0.7019 0.0
H191 H 0.5913 0.50122 0.59632 0.0
H192 H 0.62269 0.4641 0.60714 0.0
H193 H 0.63343 0.49732 0.67239 0.0
O194 O 0.70753 0.54501 0.53475 0.0
H195 H 0.64176 0.54761 0.49773 0.0
H196 H 0.72264 0.58423 0.50126 0.0
H197 H 0.55105 0.4759 0.62491 0.0
H198 H 0.71021 0.4969 0.64591 0.0
H199 H 0.55208 0.46123 0.67811 0.0
H200 H 0.68181 0.45031 0.63832 0.0
O201 O 0.63388 0.54495 0.59878 0.0
H202 H 0.75954 0.61608 0.6003 0.0
H203 H 0.68743 0.60549 0.53651 0.0
H204 H 0.71943 0.64843 0.55444 0.0
H205 H 0.75585 0.65394 0.5865 0.0
H206 H 0.72696 0.57343 0.5821 0.0
H207 H 0.72555 0.59916 0.44769 0.0
H208 H 0.68594 0.58827 0.41884 0.0
O209 O 0.65265 0.56195 0.5534 0.0
C210 C 0.63366 0.50045 0.54355 0.0
C211 C 0.66121 0.56724 0.45657 0.0
C212 C 0.70709 0.58789 0.45851 0.0
N213 N 0.68206 0.5652 0.50266 0.0
C214 C 0.66017 0.55903 0.4869 0.0
C215 C 0.70531 0.57933 0.48881 0.0
C216 C 0.68485 0.58178 0.44234 0.0
C217 C 0.6819 0.50613 0.63061 0.0
N218 N 0.65765 0.49698 0.61982 0.0
C219 C 0.69097 0.48953 0.63744 0.0
C220 C 0.67503 0.4634 0.63314 0.0
C221 C 0.65032 0.4542 0.62213 0.0
C222 C 0.64191 0.47138 0.61551 0.0
C223 C 0.59296 0.47844 0.67872 0.0
C224 C 0.59189 0.49476 0.61938 0.0
C225 C 0.61543 0.49273 0.66191 0.0
N226 N 0.61468 0.50059 0.63256 0.0
C227 C 0.56904 0.48049 0.63549 0.0
C228 C 0.56964 0.47229 0.66535 0.0
C229 C 0.63715 0.55889 0.57516 0.0
C230 C 0.74379 0.61393 0.58628 0.0
C231 C 0.70316 0.60771 0.55057 0.0
C232 C 0.72126 0.63208 0.56059 0.0
C233 C 0.74169 0.63516 0.57856 0.0
N234 N 0.7054 0.58699 0.55815 0.0
C235 C 0.72533 0.58985 0.57584 0.0
Co236 Co 0.14054 0.64469 0.11043 0.0
Co237 Co 0.13448 0.67554 0.04673 0.0
O238 O 0.14803 0.67534 0.08747 0.0
C239 C 0.12265 0.6701 0.15406 0.0
O240 O 0.1086 0.67129 0.13179 0.0
C241 C 0.18349 0.70596 0.01245 0.0
O242 O 0.17567 0.68678 0.99315 0.0
O243 O 0.14364 0.65015 0.0311 0.0
O244 O 0.1437 0.62791 0.07249 0.0
H245 H 0.0844 0.63634 0.95003 0.0
H246 H 0.18155 0.69512 0.13205 0.0
O247 O 0.13711 0.66078 0.14914 0.0
H248 H 0.22365 0.64457 0.11329 0.0
H249 H 0.14635 0.59721 0.20254 0.0
H250 H 0.10861 0.58904 0.09948 0.0
H251 H 0.17744 0.62585 0.10448 0.0
H252 H 0.15612 0.6355 0.17214 0.0
O253 O 0.1694 0.70453 0.03519 0.0
H254 H 0.10105 0.63601 0.00185 0.0
H255 H 0.14044 0.71698 0.00426 0.0
H256 H 0.09854 0.55025 0.12893 0.0
H257 H 0.22779 0.71452 0.14142 0.0
H258 H 0.11746 0.5542 0.18087 0.0
H259 H 0.24913 0.68919 0.13199 0.0
O260 O 0.10332 0.62942 0.1026 0.0
H261 H 0.14984 0.75422 0.10379 0.0
H262 H 0.08743 0.67969 0.04403 0.0
H263 H 0.07504 0.70989 0.06465 0.0
H264 H 0.10638 0.74752 0.0947 0.0
H265 H 0.16135 0.72341 0.08301 0.0
H266 H 0.12432 0.71821 0.9524 0.0
H267 H 0.09604 0.67767 0.92497 0.0
O268 O 0.09965 0.6469 0.05849 0.0
C269 C 0.1453 0.63192 0.04352 0.0
C270 C 0.09667 0.65413 0.96177 0.0
C271 C 0.11909 0.70008 0.96309 0.0
N272 N 0.12159 0.67644 0.00608 0.0
C273 C 0.10611 0.65406 0.99112 0.0
C274 C 0.12817 0.69927 0.99242 0.0
C275 C 0.10322 0.67733 0.94772 0.0
C276 C 0.19069 0.68394 0.12806 0.0
N277 N 0.17681 0.65936 0.11787 0.0
C278 C 0.21688 0.69504 0.13333 0.0
C279 C 0.22885 0.68083 0.12801 0.0
C280 C 0.21457 0.65579 0.1175 0.0
C281 C 0.18842 0.64532 0.11247 0.0
C282 C 0.13804 0.59524 0.1799 0.0
C283 C 0.11707 0.59091 0.12196 0.0
C284 C 0.14347 0.61685 0.16261 0.0
N285 N 0.13313 0.61449 0.13395 0.0
C286 C 0.11123 0.56888 0.13857 0.0
C287 C 0.12183 0.57111 0.16773 0.0
C288 C 0.08999 0.63121 0.08097 0.0
C289 C 0.13604 0.73794 0.09064 0.0
C290 C 0.10115 0.69597 0.05717 0.0
C291 C 0.09404 0.71304 0.06873 0.0
C292 C 0.11164 0.73415 0.08557 0.0
N293 N 0.12516 0.69987 0.06213 0.0
C294 C 0.14248 0.72048 0.07871 0.0
Co295 Co 0.49889 0.12211 0.62348 0.0
Co296 Co 0.47124 0.1304 0.55763 0.0
O297 O 0.48067 0.1367 0.60162 0.0
C298 C 0.45891 0.11729 0.67072 0.0
O299 O 0.44905 0.12787 0.65326 0.0
C300 C 0.49431 0.18284 0.53148 0.0
O301 O 0.50661 0.17615 0.51212 0.0
O302 O 0.50679 0.13929 0.54591 0.0
O303 O 0.52143 0.12856 0.58737 0.0
H304 H 0.4692 0.09501 0.45226 0.0
H305 H 0.4945 0.16529 0.64993 0.0
O306 O 0.47734 0.11459 0.66129 0.0
H307 H 0.58662 0.19534 0.64742 0.0
H308 H 0.54047 0.1063 0.715 0.0
H309 H 0.51716 0.08676 0.60543 0.0
H310 H 0.55559 0.15235 0.62891 0.0
H311 H 0.51857 0.12558 0.68761 0.0
O312 O 0.48044 0.1673 0.55261 0.0
H313 H 0.48059 0.10303 0.50733 0.0
H314 H 0.44144 0.14464 0.51502 0.0
H315 H 0.5393 0.06728 0.63187 0.0
H316 H 0.52478 0.20822 0.6691 0.0
H317 H 0.5511 0.07701 0.68706 0.0
H318 H 0.57128 0.22359 0.66792 0.0
O319 O 0.47415 0.08737 0.60798 0.0
H320 H 0.40569 0.14426 0.61159 0.0
H321 H 0.41916 0.08689 0.54349 0.0
H322 H 0.37542 0.07534 0.55854 0.0
H323 H 0.36844 0.10419 0.59273 0.0
H324 H 0.44917 0.15488 0.59635 0.0
H325 H 0.42965 0.13709 0.46003 0.0
H326 H 0.44355 0.11211 0.42826 0.0
O327 O 0.46132 0.09353 0.56182 0.0
C328 C 0.52366 0.13611 0.55962 0.0
C329 C 0.46301 0.10591 0.46587 0.0
C330 C 0.44082 0.12952 0.47023 0.0
N331 N 0.46168 0.12426 0.51439 0.0
C332 C 0.46939 0.1105 0.49706 0.0
C333 C 0.44755 0.13374 0.50135 0.0
C334 C 0.44863 0.11551 0.45242 0.0
C335 C 0.51457 0.17155 0.64971 0.0
N336 N 0.5231 0.15599 0.63877 0.0
C337 C 0.5317 0.19603 0.66043 0.0
C338 C 0.55779 0.20466 0.65971 0.0
C339 C 0.5664 0.18883 0.64821 0.0
C340 C 0.54871 0.16448 0.63768 0.0
C341 C 0.53549 0.10196 0.69093 0.0
C342 C 0.5224 0.09125 0.62938 0.0
C343 C 0.52302 0.11277 0.67531 0.0
N344 N 0.51677 0.10747 0.64485 0.0
C345 C 0.53487 0.08009 0.64426 0.0
C346 C 0.54145 0.08553 0.67524 0.0
C347 C 0.46199 0.079 0.58271 0.0
C348 C 0.40848 0.13156 0.59664 0.0
C349 C 0.41634 0.09942 0.55862 0.0
C350 C 0.39149 0.09284 0.56694 0.0
C351 C 0.38759 0.10905 0.58609 0.0
N352 N 0.43674 0.12155 0.56902 0.0
C353 C 0.43305 0.13751 0.58783 0.0
Co354 Co 0.51613 0.6411 0.88971 0.0
Co355 Co 0.55407 0.67565 0.9513 0.0
O356 O 0.53866 0.6732 0.91076 0.0
C357 C 0.55718 0.66968 0.84346 0.0
O358 O 0.5743 0.67846 0.8655 0.0
C359 C 0.52428 0.70198 0.95879 0.0
O360 O 0.50575 0.68249 0.9443 0.0
O361 O 0.52104 0.64866 0.96908 0.0
O362 O 0.49794 0.62527 0.92887 0.0
H363 H 0.57321 0.64167 0.04715 0.0
H364 H 0.52171 0.68931 0.86536 0.0
O365 O 0.53357 0.65559 0.84955 0.0
H366 H 0.43031 0.63566 0.8901 0.0
H367 H 0.46087 0.58735 0.80206 0.0
H368 H 0.49626 0.5865 0.90418 0.0
H369 H 0.46003 0.61947 0.89813 0.0
H370 H 0.48864 0.6276 0.82947 0.0
O371 O 0.54526 0.70242 0.96396 0.0
H372 H 0.55387 0.63857 0.99611 0.0
H373 H 0.58717 0.71913 0.9926 0.0
H374 H 0.46833 0.54579 0.87773 0.0
H375 H 0.49261 0.70622 0.85676 0.0
H376 H 0.45045 0.54606 0.82627 0.0
H377 H 0.44657 0.67933 0.86927 0.0
O378 O 0.54035 0.62852 0.8973 0.0
H379 H 0.61058 0.7559 0.89212 0.0
H380 H 0.60733 0.6849 0.95164 0.0
H381 H 0.64825 0.7177 0.92941 0.0
H382 H 0.65006 0.75355 0.89946 0.0
H383 H 0.57001 0.72255 0.91449 0.0
H384 H 0.60669 0.7231 0.04372 0.0
H385 H 0.59984 0.68418 0.07128 0.0
O386 O 0.56318 0.64906 0.93929 0.0
C387 C 0.50115 0.62975 0.95767 0.0
C388 C 0.5764 0.65877 0.03533 0.0
C389 C 0.59517 0.70447 0.03343 0.0
N390 N 0.56956 0.67865 0.99133 0.0
C391 C 0.56557 0.65714 0.0064 0.0
C392 C 0.58402 0.70211 0.00453 0.0
C393 C 0.59132 0.68263 0.04887 0.0
C394 C 0.50165 0.67743 0.87057 0.0
N395 N 0.49257 0.65341 0.88212 0.0
C396 C 0.48529 0.68713 0.86577 0.0
C397 C 0.45946 0.67205 0.87284 0.0
C398 C 0.45033 0.64755 0.88455 0.0
C399 C 0.46726 0.6385 0.88911 0.0
C400 C 0.46848 0.58698 0.82451 0.0
C401 C 0.48838 0.58676 0.8819 0.0
C402 C 0.48426 0.60971 0.84012 0.0
N403 N 0.49387 0.60938 0.86852 0.0
C404 C 0.47265 0.56365 0.86699 0.0
C405 C 0.46265 0.56382 0.83811 0.0
C406 C 0.55717 0.63264 0.9177 0.0
C407 C 0.61005 0.74041 0.90519 0.0
C408 C 0.60794 0.70039 0.93853 0.0
C409 C 0.63118 0.71894 0.92607 0.0
C410 C 0.63218 0.73906 0.90929 0.0
N411 N 0.58632 0.70188 0.93448 0.0
C412 C 0.58715 0.72153 0.91802 0.0
Co413 Co 0.88444 0.52129 0.38926 0.0
Co414 Co 0.89067 0.55881 0.45258 0.0
O415 O 0.8761 0.54417 0.41204 0.0
C416 C 0.88632 0.55841 0.34037 0.0
O417 O 0.88333 0.57301 0.36025 0.0
C418 C 0.83501 0.53314 0.47016 0.0
O419 O 0.8326 0.51074 0.46448 0.0
O420 O 0.88232 0.52473 0.4694 0.0
O421 O 0.88366 0.50335 0.42797 0.0
H422 H 0.94407 0.57244 0.54701 0.0
H423 H 0.84024 0.52681 0.37049 0.0
O424 O 0.88613 0.53819 0.34893 0.0
H425 H 0.80446 0.4352 0.39197 0.0
H426 H 0.87886 0.46495 0.30062 0.0
H427 H 0.9196 0.50137 0.40059 0.0
H428 H 0.85057 0.46517 0.39754 0.0
H429 H 0.8677 0.49308 0.32952 0.0
O430 O 0.85646 0.55348 0.46629 0.0
H431 H 0.92612 0.55442 0.49601 0.0
H432 H 0.88489 0.59421 0.49528 0.0
H433 H 0.93107 0.47306 0.37263 0.0
H434 H 0.79406 0.4975 0.36431 0.0
H435 H 0.91066 0.45467 0.32224 0.0
H436 H 0.77586 0.45131 0.37512 0.0
O437 O 0.92155 0.54549 0.39444 0.0
H438 H 0.87225 0.62128 0.39842 0.0
H439 H 0.93777 0.6101 0.45225 0.0
H440 H 0.9489 0.65244 0.43184 0.0
H441 H 0.91599 0.65826 0.40481 0.0
H442 H 0.86204 0.57917 0.41872 0.0
H443 H 0.90222 0.61248 0.54639 0.0
H444 H 0.93212 0.60169 0.57255 0.0
O445 O 0.92529 0.56514 0.43965 0.0
C446 C 0.8819 0.50544 0.45691 0.0
C447 C 0.93112 0.57734 0.53581 0.0
C448 C 0.9076 0.59979 0.53548 0.0
N449 N 0.90462 0.57339 0.49259 0.0
C450 C 0.92095 0.56726 0.5069 0.0
C451 C 0.89781 0.58934 0.50657 0.0
C452 C 0.92438 0.59373 0.55014 0.0
C453 C 0.83255 0.50674 0.37492 0.0
N454 N 0.84819 0.49772 0.38401 0.0
C455 C 0.80634 0.49022 0.37153 0.0
C456 C 0.79614 0.46432 0.37764 0.0
C457 C 0.81217 0.45528 0.38711 0.0
C458 C 0.83828 0.47235 0.39028 0.0
C459 C 0.88783 0.4728 0.32259 0.0
C460 C 0.91048 0.49328 0.3788 0.0
C461 C 0.88164 0.48879 0.33904 0.0
N462 N 0.89283 0.49869 0.36686 0.0
C463 C 0.91712 0.47733 0.36302 0.0
C464 C 0.90568 0.46703 0.33474 0.0
C465 C 0.93495 0.56043 0.41611 0.0
C466 C 0.88675 0.61899 0.41019 0.0
C467 C 0.9234 0.61239 0.44023 0.0
C468 C 0.92979 0.63646 0.42887 0.0
C469 C 0.91131 0.63973 0.41374 0.0
N470 N 0.89927 0.59214 0.43664 0.0
C471 C 0.88105 0.59521 0.42186 0.0
Co472 Co 0.37344 0.8787 0.88366 0.0
Co473 Co 0.3454 0.88106 0.95243 0.0
O474 O 0.34356 0.8692 0.90977 0.0
C475 C 0.3353 0.88237 0.84078 0.0
O476 O 0.31781 0.87629 0.8621 0.0
C477 C 0.31661 0.82456 0.95691 0.0
O478 O 0.33435 0.82466 0.9394 0.0
O479 O 0.37278 0.87308 0.96355 0.0
O480 O 0.39224 0.87483 0.91889 0.0
H481 H 0.38962 0.93019 0.04796 0.0
H482 H 0.32206 0.83577 0.86645 0.0
O483 O 0.3564 0.8834 0.84671 0.0
H484 H 0.37815 0.79856 0.86972 0.0
H485 H 0.41891 0.87925 0.78607 0.0
H486 H 0.42917 0.91234 0.89211 0.0
H487 H 0.3953 0.84422 0.88049 0.0
H488 H 0.38136 0.86627 0.81937 0.0
O489 O 0.31844 0.84563 0.96516 0.0
H490 H 0.38719 0.91539 0.99444 0.0
H491 H 0.30644 0.87103 1.00083 0.0
H492 H 0.46727 0.92556 0.8597 0.0
H493 H 0.30418 0.79017 0.85516 0.0
H494 H 0.46226 0.90901 0.80626 0.0
H495 H 0.33225 0.77118 0.85685 0.0
O496 O 0.38733 0.91539 0.89362 0.0
H497 H 0.26082 0.86237 0.9088 0.0
H498 H 0.3392 0.92656 0.96103 0.0
H499 H 0.3059 0.93707 0.94781 0.0
H500 H 0.26632 0.90481 0.92161 0.0
H501 H 0.29478 0.85279 0.922 0.0
H502 H 0.308 0.8852 0.05449 0.0
H503 H 0.34981 0.91507 0.07836 0.0
O504 O 0.37197 0.91667 0.94039 0.0
C505 C 0.39036 0.87238 0.94806 0.0
C506 C 0.37128 0.91723 0.03779 0.0
C507 C 0.32547 0.89195 0.04147 0.0
N508 N 0.3467 0.89249 0.99448 0.0
C509 C 0.36978 0.90884 0.00748 0.0
C510 C 0.32472 0.88394 0.0111 0.0
C511 C 0.34894 0.90872 0.05484 0.0
C512 C 0.33455 0.82788 0.86675 0.0
N513 N 0.35982 0.84286 0.87377 0.0
C514 C 0.32424 0.80193 0.86054 0.0
C515 C 0.33999 0.79127 0.86157 0.0
C516 C 0.36572 0.80661 0.86881 0.0
C517 C 0.37533 0.83248 0.87496 0.0
C518 C 0.42135 0.88654 0.80935 0.0
C519 C 0.42685 0.90487 0.86897 0.0
C520 C 0.40015 0.8793 0.8283 0.0
N521 N 0.40308 0.88836 0.85778 0.0
C522 C 0.44849 0.9125 0.85069 0.0
C523 C 0.44566 0.90323 0.82069 0.0
C524 C 0.38596 0.92758 0.91686 0.0
C525 C 0.27797 0.87657 0.92025 0.0
C526 C 0.32215 0.9125 0.94935 0.0
C527 C 0.3033 0.91852 0.94207 0.0
C528 C 0.28108 0.9004 0.9274 0.0
N529 N 0.31897 0.88908 0.94225 0.0
C530 C 0.29723 0.87122 0.9279 0.0
Co531 Co 0.49438 0.36838 0.39976 0.0
Co532 Co 0.46262 0.33238 0.46416 0.0
O533 O 0.47517 0.33559 0.42151 0.0
C534 C 0.4572 0.33239 0.35115 0.0
O535 O 0.44506 0.31344 0.37056 0.0
C536 C 0.49375 0.30682 0.46696 0.0
O537 O 0.51131 0.32608 0.45107 0.0
O538 O 0.49656 0.3599 0.479 0.0
O539 O 0.51395 0.38513 0.43783 0.0
H540 H 0.4501 0.36519 0.56519 0.0
H541 H 0.49276 0.32159 0.3755 0.0
O542 O 0.47592 0.35358 0.36 0.0
H543 H 0.584 0.38389 0.38992 0.0
H544 H 0.54237 0.42559 0.3103 0.0
H545 H 0.51011 0.42185 0.41572 0.0
H546 H 0.55129 0.39547 0.40189 0.0
H547 H 0.51895 0.38452 0.33774 0.0
O548 O 0.47294 0.30618 0.4738 0.0
H549 H 0.46556 0.36886 0.51177 0.0
H550 H 0.43304 0.28844 0.50665 0.0
H551 H 0.53372 0.46337 0.38924 0.0
H552 H 0.52482 0.30931 0.36288 0.0
H553 H 0.55001 0.46542 0.33613 0.0
H554 H 0.57085 0.34055 0.37016 0.0
O555 O 0.46806 0.3777 0.41064 0.0
H556 H 0.40321 0.25097 0.40897 0.0
H557 H 0.40913 0.32187 0.47119 0.0
H558 H 0.36704 0.28811 0.45308 0.0
H559 H 0.36388 0.25227 0.42182 0.0
H560 H 0.44497 0.28535 0.4272 0.0
H561 H 0.41742 0.28392 0.5601 0.0
H562 H 0.42585 0.32248 0.5897 0.0
O563 O 0.4518 0.35824 0.45591 0.0
C564 C 0.51405 0.38014 0.4663 0.0
C565 C 0.44624 0.34824 0.5525 0.0
C566 C 0.42793 0.30263 0.54966 0.0
N567 N 0.45006 0.32888 0.50604 0.0
C568 C 0.45489 0.35019 0.52222 0.0
C569 C 0.43687 0.30532 0.51942 0.0
C570 C 0.43266 0.32427 0.56625 0.0
C571 C 0.51271 0.33544 0.3783 0.0
N572 N 0.52007 0.35934 0.38909 0.0
C573 C 0.5308 0.32831 0.3713 0.0
C574 C 0.55662 0.34582 0.37546 0.0
C575 C 0.56401 0.37013 0.38656 0.0
C576 C 0.54537 0.37657 0.39337 0.0
C577 C 0.53542 0.42496 0.33347 0.0
C578 C 0.5173 0.4226 0.39269 0.0
C579 C 0.52208 0.40174 0.3491 0.0
N580 N 0.51332 0.4008 0.37842 0.0
C581 C 0.53059 0.44616 0.37778 0.0
C582 C 0.5397 0.44729 0.34797 0.0
C583 C 0.4539 0.37351 0.43426 0.0
C584 C 0.40433 0.26646 0.42262 0.0
C585 C 0.40795 0.30648 0.45736 0.0
C586 C 0.38404 0.28734 0.4473 0.0
C587 C 0.38228 0.26722 0.42979 0.0
N588 N 0.4295 0.30559 0.45022 0.0
C589 C 0.42792 0.28592 0.4331 0.0
Co590 Co 0.14081 0.49894 0.88962 0.0
Co591 Co 0.13449 0.46055 0.95211 0.0
O592 O 0.14872 0.4756 0.91175 0.0
C593 C 0.13169 0.45836 0.84333 0.0
O594 O 0.12638 0.44145 0.86517 0.0
C595 C 0.19039 0.48846 0.96072 0.0
O596 O 0.19033 0.50748 0.94628 0.0
O597 O 0.14148 0.49404 0.96925 0.0
O598 O 0.14278 0.51737 0.92842 0.0
H599 H 0.07971 0.4437 0.04604 0.0
H600 H 0.18314 0.4917 0.86786 0.0
O601 O 0.13824 0.48138 0.84963 0.0
H602 H 0.22279 0.58332 0.89195 0.0
H603 H 0.14676 0.55538 0.80089 0.0
H604 H 0.10706 0.52038 0.90183 0.0
H605 H 0.17643 0.55475 0.89828 0.0
H606 H 0.15719 0.52655 0.8295 0.0
O607 O 0.16936 0.468 0.96593 0.0
H608 H 0.09747 0.46249 0.99518 0.0
H609 H 0.14237 0.42653 0.99487 0.0
H610 H 0.0963 0.54936 0.87415 0.0
H611 H 0.22956 0.51961 0.86099 0.0
H612 H 0.1162 0.56705 0.82328 0.0
H613 H 0.24968 0.56577 0.87318 0.0
O614 O 0.1037 0.47566 0.89592 0.0
H615 H 0.15671 0.40113 0.89722 0.0
H616 H 0.08897 0.40823 0.95159 0.0
H617 H 0.07976 0.36659 0.93077 0.0
H618 H 0.1138 0.36282 0.90345 0.0
H619 H 0.16499 0.44249 0.91798 0.0
H620 H 0.12527 0.40753 0.04585 0.0
H621 H 0.09363 0.41601 0.07171 0.0
O622 O 0.09947 0.45283 0.93871 0.0
C623 C 0.14335 0.51418 0.95735 0.0
C624 C 0.09343 0.4398 0.03496 0.0
C625 C 0.11903 0.41953 0.03487 0.0
N626 N 0.12077 0.44545 0.992 0.0
C627 C 0.10348 0.45032 0.00613 0.0
C628 C 0.12868 0.43038 0.00605 0.0
C629 C 0.10126 0.42429 0.04936 0.0
C630 C 0.19172 0.51181 0.87288 0.0
N631 N 0.17708 0.5216 0.88328 0.0
C632 C 0.21803 0.5275 0.86908 0.0
C633 C 0.22931 0.55339 0.87597 0.0
C634 C 0.21424 0.56324 0.88653 0.0
C635 C 0.188 0.54697 0.89012 0.0
C636 C 0.13801 0.54785 0.82307 0.0
C637 C 0.11595 0.52816 0.87981 0.0
C638 C 0.14381 0.53148 0.83936 0.0
N639 N 0.13292 0.52198 0.86744 0.0
C640 C 0.10972 0.54449 0.8642 0.0
C641 C 0.12087 0.55439 0.83565 0.0
C642 C 0.09008 0.45925 0.91631 0.0
C643 C 0.14174 0.40251 0.90914 0.0
C644 C 0.10383 0.4068 0.93952 0.0
C645 C 0.09853 0.38314 0.92789 0.0
C646 C 0.11765 0.38104 0.9126 0.0
N647 N 0.12751 0.42778 0.93604 0.0
C648 C 0.14635 0.42586 0.92109 0.0
Co649 Co 0.64091 0.12872 0.38141 0.0
Co650 Co 0.6768 0.13654 0.44713 0.0
O651 O 0.67367 0.1431 0.40329 0.0
C652 C 0.67621 0.12392 0.33459 0.0
O653 O 0.69646 0.13428 0.35236 0.0
C654 C 0.70643 0.18896 0.47335 0.0
O655 O 0.68758 0.18231 0.49295 0.0
O656 O 0.65012 0.14529 0.45915 0.0
O657 O 0.62482 0.13506 0.41762 0.0
H658 H 0.64357 0.1003 0.55232 0.0
H659 H 0.68873 0.17194 0.35534 0.0
O660 O 0.65503 0.12133 0.34365 0.0
H661 H 0.62686 0.20223 0.35745 0.0
H662 H 0.58384 0.11351 0.28975 0.0
H663 H 0.58716 0.09357 0.39932 0.0
H664 H 0.61462 0.15909 0.37576 0.0
H665 H 0.62496 0.13246 0.31724 0.0
O666 O 0.70456 0.17339 0.4522 0.0
H667 H 0.64012 0.10871 0.4974 0.0
H668 H 0.7209 0.15061 0.48954 0.0
H669 H 0.54559 0.07444 0.37279 0.0
H670 H 0.70165 0.215 0.33637 0.0
H671 H 0.54376 0.08437 0.31759 0.0
H672 H 0.67064 0.2305 0.33736 0.0
O673 O 0.63068 0.09382 0.39669 0.0
H674 H 0.75631 0.15065 0.39308 0.0
H675 H 0.68506 0.09276 0.46056 0.0
H676 H 0.71719 0.0812 0.44525 0.0
H677 H 0.75322 0.11031 0.41138 0.0
H678 H 0.72352 0.16127 0.40854 0.0
H679 H 0.72522 0.14267 0.54438 0.0
H680 H 0.68636 0.11734 0.57616 0.0
O681 O 0.64978 0.09979 0.44274 0.0
C682 C 0.63008 0.14223 0.44551 0.0
C683 C 0.66064 0.11136 0.53871 0.0
C684 C 0.70646 0.13514 0.53426 0.0
N685 N 0.68027 0.13015 0.49028 0.0
C686 C 0.65881 0.11618 0.5076 0.0
C687 C 0.7039 0.13958 0.50322 0.0
C688 C 0.68465 0.12093 0.55208 0.0
C689 C 0.67497 0.17826 0.35551 0.0
N690 N 0.65079 0.1627 0.36627 0.0
C691 C 0.68247 0.20281 0.34489 0.0
C692 C 0.66508 0.21152 0.3455 0.0
C693 C 0.64053 0.19567 0.35678 0.0
C694 C 0.63373 0.17125 0.36722 0.0
C695 C 0.58438 0.10908 0.31382 0.0
C696 C 0.5865 0.09814 0.37537 0.0
C697 C 0.60762 0.1197 0.3295 0.0
N698 N 0.60845 0.1143 0.35996 0.0
C699 C 0.56292 0.08718 0.36044 0.0
C700 C 0.5619 0.09274 0.32946 0.0
C701 C 0.63448 0.08534 0.42189 0.0
C702 C 0.74074 0.13783 0.4079 0.0
C703 C 0.70052 0.10542 0.44557 0.0
C704 C 0.71874 0.09883 0.4371 0.0
C705 C 0.73897 0.11518 0.41813 0.0
N706 N 0.7024 0.1277 0.43548 0.0
C707 C 0.72216 0.1438 0.41684 0.0
Co708 Co 0.64468 0.5217 0.89507 0.0
Co709 Co 0.68083 0.55368 0.95863 0.0
O710 O 0.67724 0.54055 0.9167 0.0
C711 C 0.65648 0.55246 0.83758 0.0
O712 O 0.63837 0.5574 0.84507 0.0
C713 C 0.7092 0.53091 0.98852 0.0
O714 O 0.69048 0.5202 0.00858 0.0
O715 O 0.65382 0.51955 0.97339 0.0
O716 O 0.62676 0.50292 0.93348 0.0
H717 H 0.64888 0.5652 0.06086 0.0
H718 H 0.6906 0.5216 0.87137 0.0
O719 O 0.66236 0.53971 0.85592 0.0
H720 H 0.62688 0.43112 0.88886 0.0
H721 H 0.58843 0.4728 0.80542 0.0
H722 H 0.59146 0.50841 0.90858 0.0
H723 H 0.61639 0.46481 0.89954 0.0
H724 H 0.62906 0.49565 0.83386 0.0
O725 O 0.70793 0.54418 0.96638 0.0
H726 H 0.64476 0.54943 0.00755 0.0
H727 H 0.72538 0.58547 0.99953 0.0
H728 H 0.55038 0.48557 0.88103 0.0
H729 H 0.70181 0.48849 0.86 0.0
H730 H 0.5487 0.4676 0.82905 0.0
H731 H 0.66983 0.44287 0.86879 0.0
O732 O 0.63634 0.54889 0.90494 0.0
H733 H 0.7597 0.6136 0.89918 0.0
H734 H 0.69082 0.60695 0.96622 0.0
H735 H 0.72341 0.64911 0.94678 0.0
H736 H 0.75825 0.65265 0.91311 0.0
H737 H 0.72652 0.57177 0.91884 0.0
H738 H 0.73039 0.60157 0.05279 0.0
H739 H 0.69195 0.59147 0.08381 0.0
O740 O 0.6543 0.56376 0.95121 0.0
C741 C 0.6328 0.50257 0.96159 0.0
C742 C 0.66578 0.56976 0.04756 0.0
C743 C 0.71152 0.59016 0.04304 0.0
N744 N 0.68479 0.56659 1.00043 0.0
C745 C 0.66356 0.56091 0.01736 0.0
C746 C 0.70857 0.58099 0.01291 0.0
C747 C 0.68995 0.58449 0.06043 0.0
C748 C 0.67653 0.50178 0.8751 0.0
N749 N 0.65283 0.49516 0.88603 0.0
C750 C 0.68301 0.48312 0.86869 0.0
C751 C 0.66507 0.45753 0.87366 0.0
C752 C 0.64098 0.45093 0.88494 0.0
C753 C 0.63518 0.4701 0.89108 0.0
C754 C 0.5889 0.48052 0.82807 0.0
C755 C 0.59085 0.50055 0.88603 0.0
C756 C 0.61186 0.4935 0.84427 0.0
N757 N 0.61261 0.50328 0.87291 0.0
C758 C 0.56755 0.48767 0.87051 0.0
C759 C 0.56662 0.47761 0.84134 0.0
C760 C 0.63981 0.5624 0.92899 0.0
C761 C 0.74466 0.61232 0.9139 0.0
C762 C 0.7058 0.6083 0.95142 0.0
C763 C 0.72427 0.63224 0.94057 0.0
C764 C 0.74382 0.63421 0.9217 0.0
N765 N 0.70683 0.58691 0.94381 0.0
C766 C 0.72586 0.58869 0.92519 0.0
Co767 Co 0.1316 0.64597 0.38724 0.0
Co768 Co 0.13867 0.67229 0.45915 0.0
O769 O 0.14727 0.67547 0.41506 0.0
C770 C 0.11575 0.66601 0.33462 0.0
O771 O 0.09207 0.64863 0.34087 0.0
C772 C 0.19574 0.70788 0.45535 0.0
O773 O 0.19611 0.69877 0.4281 0.0
O774 O 0.14764 0.64488 0.46333 0.0
O775 O 0.12956 0.62215 0.42059 0.0
H776 H 0.09738 0.62322 0.55589 0.0
H777 H 0.17961 0.69122 0.36599 0.0
O778 O 0.13364 0.66914 0.35283 0.0
H779 H 0.19864 0.62103 0.37028 0.0
H780 H 0.12099 0.59978 0.28675 0.0
H781 H 0.08759 0.59339 0.39208 0.0
H782 H 0.15599 0.61355 0.38428 0.0
H783 H 0.14153 0.63629 0.32238 0.0
O784 O 0.17492 0.69893 0.47045 0.0
H785 H 0.10808 0.62844 0.50051 0.0
H786 H 0.15181 0.70884 0.51155 0.0
H787 H 0.06652 0.55639 0.35722 0.0
H788 H 0.22234 0.69935 0.35106 0.0
H789 H 0.0832 0.55945 0.30412 0.0
H790 H 0.23215 0.66415 0.35335 0.0
O791 O 0.09733 0.63981 0.39912 0.0
H792 H 0.1526 0.75697 0.42189 0.0
H793 H 0.09514 0.67878 0.47968 0.0
H794 H 0.08359 0.71221 0.47333 0.0
H795 H 0.1125 0.75173 0.44437 0.0
H796 H 0.16323 0.72291 0.42847 0.0
H797 H 0.14175 0.70447 0.56709 0.0
H798 H 0.11426 0.66143 0.58958 0.0
O799 O 0.10187 0.64614 0.45016 0.0
C800 C 0.13952 0.62465 0.44718 0.0
C801 C 0.10931 0.64209 0.54634 0.0
C802 C 0.13424 0.68768 0.55264 0.0
N803 N 0.1304 0.66891 0.50275 0.0
C804 C 0.11539 0.64516 0.51499 0.0
C805 C 0.13993 0.69003 0.52118 0.0
C806 C 0.11881 0.66353 0.56524 0.0
C807 C 0.1836 0.67571 0.36671 0.0
N808 N 0.16529 0.65197 0.37615 0.0
C809 C 0.2079 0.68047 0.35838 0.0
C810 C 0.2134 0.66073 0.35973 0.0
C811 C 0.19463 0.63655 0.36929 0.0
C812 C 0.17054 0.63249 0.37742 0.0
C813 C 0.11355 0.5982 0.30984 0.0
C814 C 0.09501 0.59487 0.36904 0.0
C815 C 0.1251 0.61882 0.33013 0.0
N816 N 0.11578 0.617 0.35933 0.0
C817 C 0.08299 0.57385 0.34939 0.0
C818 C 0.09235 0.57558 0.3196 0.0
C819 C 0.08798 0.63769 0.42599 0.0
C820 C 0.13989 0.73988 0.43465 0.0
C821 C 0.10775 0.69584 0.46692 0.0
C822 C 0.10115 0.71475 0.46347 0.0
C823 C 0.11738 0.73692 0.44723 0.0
N824 N 0.12995 0.69894 0.45467 0.0
C825 C 0.14587 0.72056 0.43856 0.0
Co826 Co 0.49278 0.12613 0.89831 0.0
Co827 Co 0.4612 0.12897 0.96355 0.0
O828 O 0.47341 0.13893 0.92101 0.0
C829 C 0.45475 0.12544 0.85164 0.0
O830 O 0.44394 0.13319 0.87178 0.0
C831 C 0.48391 0.17977 0.9943 0.0
O832 O 0.49495 0.17168 0.01374 0.0
O833 O 0.49574 0.13658 0.97736 0.0
O834 O 0.51297 0.12892 0.9359 0.0
H835 H 0.45211 0.08477 0.06475 0.0
H836 H 0.49043 0.17151 0.87575 0.0
O837 O 0.47343 0.12243 0.8592 0.0
H838 H 0.58197 0.2006 0.88699 0.0
H839 H 0.53959 0.11824 0.8067 0.0
H840 H 0.50966 0.08897 0.91267 0.0
H841 H 0.5496 0.15628 0.89943 0.0
H842 H 0.51621 0.1352 0.83559 0.0
O843 O 0.47039 0.16539 0.9722 0.0
H844 H 0.46695 0.09714 0.0112 0.0
H845 H 0.42957 0.14059 0.00624 0.0
H846 H 0.53324 0.07174 0.88473 0.0
H847 H 0.52213 0.21584 0.86268 0.0
H848 H 0.54836 0.08636 0.83134 0.0
H849 H 0.56832 0.23071 0.86828 0.0
O850 O 0.46707 0.09037 0.909 0.0
H851 H 0.39875 0.14805 0.9105 0.0
H852 H 0.40857 0.08439 0.97071 0.0
H853 H 0.36576 0.07439 0.95347 0.0
H854 H 0.36061 0.10639 0.92325 0.0
H855 H 0.44129 0.15709 0.92769 0.0
H856 H 0.41437 0.12876 0.05975 0.0
H857 H 0.42562 0.10063 0.08937 0.0
O858 O 0.45165 0.09256 0.95532 0.0
C859 C 0.5133 0.13414 0.96438 0.0
C860 C 0.44705 0.09701 0.05207 0.0
C861 C 0.42588 0.1217 0.04927 0.0
N862 N 0.44907 0.11949 0.00559 0.0
C863 C 0.45538 0.10405 0.02174 0.0
C864 C 0.43454 0.12834 0.01899 0.0
C865 C 0.4322 0.10592 0.06587 0.0
C866 C 0.51042 0.17761 0.87786 0.0
N867 N 0.51805 0.16107 0.88783 0.0
C868 C 0.52833 0.20285 0.8706 0.0
C869 C 0.55424 0.2112 0.8738 0.0
C870 C 0.5619 0.19432 0.8843 0.0
C871 C 0.54345 0.16923 0.89134 0.0
C872 C 0.53316 0.11177 0.82998 0.0
C873 C 0.51636 0.09559 0.88953 0.0
C874 C 0.51985 0.12126 0.84643 0.0
N875 N 0.51176 0.11324 0.8759 0.0
C876 C 0.52962 0.08569 0.87379 0.0
C877 C 0.53807 0.09388 0.84382 0.0
C878 C 0.45366 0.0799 0.93298 0.0
C879 C 0.40074 0.13396 0.92369 0.0
C880 C 0.40657 0.09831 0.95725 0.0
C881 C 0.38223 0.09259 0.94771 0.0
C882 C 0.37935 0.11057 0.9308 0.0
N883 N 0.42747 0.12129 0.95016 0.0
C884 C 0.42478 0.13902 0.93362 0.0
Co885 Co 0.37055 0.49266 0.39245 0.0
Co886 Co 0.34607 0.46468 0.46304 0.0
O887 O 0.34221 0.4742 0.42109 0.0
C888 C 0.3523 0.45779 0.33874 0.0
O889 O 0.37102 0.45324 0.34393 0.0
C890 C 0.31969 0.4945 0.47303 0.0
O891 O 0.33801 0.5129 0.45689 0.0
O892 O 0.37429 0.5001 0.47188 0.0
O893 O 0.39335 0.51452 0.42605 0.0
H894 H 0.39475 0.46116 0.5549 0.0
H895 H 0.32041 0.48824 0.37942 0.0
O896 O 0.34805 0.47143 0.35758 0.0
H897 H 0.38133 0.58061 0.38558 0.0
H898 H 0.41052 0.53678 0.29219 0.0
H899 H 0.4257 0.50933 0.39321 0.0
H900 H 0.39602 0.54956 0.39223 0.0
H901 H 0.37533 0.51465 0.32941 0.0
O902 O 0.32007 0.4739 0.47793 0.0
H903 H 0.38976 0.47255 0.50176 0.0
H904 H 0.30954 0.43709 0.51418 0.0
H905 H 0.4615 0.5316 0.35678 0.0
H906 H 0.30494 0.51864 0.37234 0.0
H907 H 0.45401 0.54544 0.30583 0.0
H908 H 0.33549 0.5652 0.37548 0.0
O909 O 0.38238 0.46785 0.39991 0.0
H910 H 0.25968 0.39907 0.42376 0.0
H911 H 0.33914 0.41276 0.47257 0.0
H912 H 0.30484 0.36894 0.4613 0.0
H913 H 0.26471 0.36187 0.43682 0.0
H914 H 0.29459 0.44261 0.43513 0.0
H915 H 0.31368 0.42548 0.56754 0.0
H916 H 0.35652 0.43745 0.58817 0.0
O917 O 0.37168 0.45476 0.4489 0.0
C918 C 0.39236 0.51668 0.45514 0.0
C919 C 0.37598 0.45576 0.54614 0.0
C920 C 0.33047 0.43577 0.55325 0.0
N921 N 0.34938 0.45531 0.50482 0.0
C922 C 0.37303 0.46209 0.51605 0.0
C923 C 0.32826 0.44245 0.52305 0.0
C924 C 0.35452 0.44248 0.56481 0.0
C925 C 0.33386 0.50847 0.38053 0.0
N926 N 0.35911 0.5171 0.38602 0.0
C927 C 0.32497 0.52559 0.37662 0.0
C928 C 0.34212 0.55171 0.37843 0.0
C929 C 0.36784 0.56037 0.38412 0.0
C930 C 0.37603 0.54269 0.38794 0.0
C931 C 0.41404 0.53086 0.31433 0.0
C932 C 0.42231 0.51539 0.37114 0.0
C933 C 0.39417 0.51828 0.33548 0.0
N934 N 0.39845 0.51072 0.36348 0.0
C935 C 0.44265 0.52796 0.35058 0.0
C936 C 0.43843 0.53571 0.322 0.0
C937 C 0.38305 0.45573 0.42363 0.0
C938 C 0.27706 0.40191 0.43447 0.0
C939 C 0.32181 0.40986 0.46173 0.0
C940 C 0.30242 0.38499 0.4555 0.0
C941 C 0.2799 0.38104 0.44178 0.0
N942 N 0.31884 0.43022 0.45459 0.0
C943 C 0.29686 0.4265 0.44104 0.0
Co944 Co 0.89299 0.37745 0.88355 0.0
Co945 Co 0.88587 0.33609 0.94332 0.0
O946 O 0.87858 0.34302 0.9012 0.0
C947 C 0.89854 0.34663 0.83119 0.0
O948 O 0.89012 0.32561 0.84737 0.0
C949 C 0.83408 0.30717 0.97103 0.0
O950 O 0.84224 0.32503 0.99222 0.0
O951 O 0.87911 0.36266 0.96114 0.0
O952 O 0.88717 0.39048 0.92281 0.0
H953 H 0.92564 0.35992 0.04855 0.0
H954 H 0.85016 0.33262 0.85258 0.0
O955 O 0.89988 0.36656 0.84282 0.0
H956 H 0.81891 0.39265 0.87071 0.0
H957 H 0.90712 0.44194 0.80108 0.0
H958 H 0.9287 0.42937 0.90684 0.0
H959 H 0.86225 0.40353 0.88668 0.0
H960 H 0.88844 0.39871 0.82315 0.0
O961 O 0.8487 0.3092 0.94858 0.0
H962 H 0.91626 0.36817 0.99583 0.0
H963 H 0.87072 0.28855 0.97959 0.0
H964 H 0.94759 0.47295 0.88578 0.0
H965 H 0.80684 0.32111 0.83584 0.0
H966 H 0.93683 0.47944 0.83252 0.0
H967 H 0.79089 0.35121 0.84491 0.0
O968 O 0.92799 0.38631 0.89695 0.0
H969 H 0.8663 0.25985 0.8781 0.0
H970 H 0.9284 0.32474 0.94917 0.0
H971 H 0.93745 0.29263 0.92696 0.0
H972 H 0.90622 0.2598 0.89125 0.0
H973 H 0.8582 0.29258 0.90044 0.0
H974 H 0.87956 0.27945 0.03215 0.0
H975 H 0.90722 0.31529 0.06703 0.0
O976 O 0.92284 0.36225 0.93873 0.0
C977 C 0.88138 0.38338 0.95064 0.0
C978 C 0.91358 0.34414 0.03357 0.0
C979 C 0.88771 0.29898 0.02437 0.0
N980 N 0.89299 0.32888 0.98463 0.0
C981 C 0.90821 0.3487 0.00369 0.0
C982 C 0.88277 0.30426 0.99463 0.0
C983 C 0.90323 0.3191 0.04392 0.0
C984 C 0.84356 0.34597 0.85631 0.0
N985 N 0.85894 0.36887 0.87028 0.0
C986 C 0.81891 0.33928 0.84692 0.0
C987 C 0.80996 0.35615 0.85205 0.0
C988 C 0.82565 0.37939 0.86654 0.0
C989 C 0.85018 0.38542 0.87562 0.0
C990 C 0.91191 0.43936 0.82434 0.0
C991 C 0.92378 0.43205 0.88372 0.0
C992 C 0.90145 0.41492 0.83694 0.0
N993 N 0.90732 0.41152 0.86637 0.0
C994 C 0.9346 0.45677 0.87189 0.0
C995 C 0.92858 0.4604 0.84199 0.0
C996 C 0.93689 0.3797 0.91958 0.0
C997 C 0.88003 0.27402 0.89369 0.0
C998 C 0.91482 0.31069 0.93342 0.0
C999 C 0.92 0.29246 0.92103 0.0
C1000 C 0.90245 0.27403 0.90103 0.0
N1001 N 0.89276 0.31054 0.92614 0.0
C1002 C 0.8755 0.29254 0.90652 0.0
Co1003 Co 0.52519 0.87948 0.39538 0.0
Co1004 Co 0.56246 0.89125 0.46071 0.0
O1005 O 0.54988 0.87524 0.42032 0.0
C1006 C 0.56833 0.89933 0.35079 0.0
O1007 O 0.58326 0.91518 0.37207 0.0
C1008 C 0.5418 0.83554 0.47257 0.0
O1009 O 0.52396 0.83035 0.452 0.0
O1010 O 0.52727 0.88054 0.47513 0.0
O1011 O 0.50436 0.87614 0.43257 0.0
H1012 H 0.56888 0.94632 0.55073 0.0
H1013 H 0.53873 0.84066 0.37675 0.0
O1014 O 0.54523 0.88295 0.35704 0.0
H1015 H 0.4461 0.79269 0.39668 0.0
H1016 H 0.4704 0.86517 0.30179 0.0
H1017 H 0.49775 0.90831 0.40246 0.0
H1018 H 0.47043 0.83946 0.40257 0.0
H1019 H 0.50085 0.8597 0.33412 0.0
O1020 O 0.5587 0.85863 0.47815 0.0
H1021 H 0.55337 0.92593 0.50003 0.0
H1022 H 0.59837 0.89031 0.50713 0.0
H1023 H 0.46705 0.91407 0.37101 0.0
H1024 H 0.51507 0.79391 0.37024 0.0
H1025 H 0.4532 0.89243 0.32026 0.0
H1026 H 0.46843 0.76961 0.38035 0.0
O1027 O 0.54472 0.91727 0.40083 0.0
H1028 H 0.62965 0.87746 0.41129 0.0
H1029 H 0.61213 0.94024 0.46133 0.0
H1030 H 0.65558 0.95381 0.44267 0.0
H1031 H 0.66458 0.92229 0.41752 0.0
H1032 H 0.58639 0.86477 0.43005 0.0
H1033 H 0.61419 0.91012 0.55803 0.0
H1034 H 0.59951 0.93844 0.58009 0.0
O1035 O 0.56668 0.9243 0.44493 0.0
C1036 C 0.50673 0.87623 0.46176 0.0
C1037 C 0.57548 0.93408 0.54132 0.0
C1038 C 0.60089 0.91374 0.54544 0.0
N1039 N 0.57511 0.90712 0.50054 0.0
C1040 C 0.56682 0.92254 0.51259 0.0
C1041 C 0.59182 0.90253 0.51664 0.0
C1042 C 0.59265 0.92963 0.55779 0.0
C1043 C 0.51839 0.83023 0.38089 0.0
N1044 N 0.50598 0.84277 0.38996 0.0
C1045 C 0.50512 0.80376 0.3773 0.0
C1046 C 0.47895 0.79013 0.38303 0.0
C1047 C 0.46642 0.80307 0.39222 0.0
C1048 C 0.48032 0.82954 0.39562 0.0
C1049 C 0.47624 0.87465 0.3239 0.0
C1050 C 0.49166 0.89867 0.38051 0.0
C1051 C 0.49351 0.87166 0.34229 0.0
N1052 N 0.50089 0.8835 0.37029 0.0
C1053 C 0.47434 0.90207 0.36276 0.0
C1054 C 0.46659 0.88994 0.33428 0.0
C1055 C 0.55966 0.93216 0.42162 0.0
C1056 C 0.62598 0.89135 0.42229 0.0
C1057 C 0.61587 0.92643 0.45031 0.0
C1058 C 0.64053 0.93422 0.43986 0.0
C1059 C 0.64556 0.91652 0.42576 0.0
N1060 N 0.59679 0.90169 0.44692 0.0
C1061 C 0.60156 0.88425 0.43305 0.0
Co1062 Co 0.50053 0.37729 0.11596 0.0
Co1063 Co 0.46555 0.33772 0.05543 0.0
O1064 O 0.47983 0.34329 0.09747 0.0
C1065 C 0.465 0.34554 0.16869 0.0
O1066 O 0.4518 0.32498 0.15195 0.0
C1067 C 0.49484 0.3101 0.05423 0.0
O1068 O 0.51348 0.32947 0.06878 0.0
O1069 O 0.49905 0.36373 0.03747 0.0
O1070 O 0.51858 0.39112 0.07623 0.0
H1071 H 0.44955 0.36492 0.9523 0.0
H1072 H 0.49853 0.33162 0.14451 0.0
O1073 O 0.48356 0.36562 0.15717 0.0
H1074 H 0.58954 0.39077 0.12317 0.0
H1075 H 0.55337 0.43965 0.19901 0.0
H1076 H 0.51686 0.42985 0.09491 0.0
H1077 H 0.55722 0.40275 0.11058 0.0
H1078 H 0.52782 0.39698 0.17589 0.0
O1079 O 0.47446 0.31035 0.04767 0.0
H1080 H 0.46727 0.37153 0.00487 0.0
H1081 H 0.43325 0.29147 0.01741 0.0
H1082 H 0.54255 0.4729 0.11704 0.0
H1083 H 0.5302 0.31898 0.15785 0.0
H1084 H 0.56099 0.478 0.16947 0.0
H1085 H 0.57611 0.34862 0.14709 0.0
O1086 O 0.47443 0.38686 0.1047 0.0
H1087 H 0.40748 0.26084 0.11904 0.0
H1088 H 0.41219 0.32799 0.05035 0.0
H1089 H 0.37069 0.29625 0.07231 0.0
H1090 H 0.36813 0.2623 0.10685 0.0
H1091 H 0.44867 0.2932 0.0969 0.0
H1092 H 0.41535 0.284 0.96489 0.0
H1093 H 0.42339 0.32089 0.93198 0.0
O1094 O 0.45595 0.36455 0.06174 0.0
C1095 C 0.51729 0.3845 0.04817 0.0
C1096 C 0.44586 0.34869 0.96644 0.0
C1097 C 0.4267 0.30327 0.97349 0.0
N1098 N 0.45119 0.33191 0.01426 0.0
C1099 C 0.45579 0.35231 0.99625 0.0
C1100 C 0.43694 0.30763 0.00319 0.0
C1101 C 0.43121 0.32398 0.95504 0.0
C1102 C 0.51844 0.3448 0.14015 0.0
N1103 N 0.52596 0.36803 0.12706 0.0
C1104 C 0.53631 0.33746 0.14758 0.0
C1105 C 0.56206 0.35407 0.14148 0.0
C1106 C 0.5696 0.3777 0.12804 0.0
C1107 C 0.55118 0.38436 0.12088 0.0
C1108 C 0.54548 0.43768 0.17612 0.0
C1109 C 0.52496 0.43192 0.11766 0.0
C1110 C 0.53093 0.41356 0.16293 0.0
N1111 N 0.521 0.41093 0.13396 0.0
C1112 C 0.53943 0.45635 0.13011 0.0
C1113 C 0.54975 0.45919 0.15953 0.0
C1114 C 0.45932 0.38134 0.08182 0.0
C1115 C 0.40834 0.27551 0.10398 0.0
C1116 C 0.41129 0.31343 0.06557 0.0
C1117 C 0.38771 0.29542 0.07782 0.0
C1118 C 0.38628 0.27636 0.09717 0.0
N1119 N 0.43285 0.31246 0.07236 0.0
C1120 C 0.43159 0.29383 0.09129 0.0
Co1121 Co 0.14063 0.50167 0.6113 0.0
Co1122 Co 0.1354 0.46323 0.5491 0.0
O1123 O 0.14769 0.47698 0.59072 0.0
C1124 C 0.12949 0.46213 0.66195 0.0
O1125 O 0.13354 0.44666 0.6448 0.0
C1126 C 0.19203 0.48734 0.53839 0.0
O1127 O 0.19511 0.50957 0.54663 0.0
O1128 O 0.14577 0.49791 0.53177 0.0
O1129 O 0.14813 0.52158 0.57278 0.0
H1130 H 0.08734 0.4518 0.45045 0.0
H1131 H 0.17871 0.48908 0.63648 0.0
O1132 O 0.13247 0.48304 0.65135 0.0
H1133 H 0.22566 0.58227 0.62145 0.0
H1134 H 0.14359 0.5581 0.69849 0.0
H1135 H 0.11244 0.52795 0.59319 0.0
H1136 H 0.17984 0.55697 0.6091 0.0
H1137 H 0.15322 0.5276 0.67272 0.0
O1138 O 0.16983 0.46758 0.53846 0.0
H1139 H 0.10292 0.4691 0.50242 0.0
H1140 H 0.14229 0.42758 0.50802 0.0
H1141 H 0.10263 0.55871 0.61799 0.0
H1142 H 0.2244 0.51364 0.64949 0.0
H1143 H 0.11823 0.57397 0.67103 0.0
H1144 H 0.24825 0.5606 0.64192 0.0
O1145 O 0.10365 0.4811 0.60064 0.0
H1146 H 0.14805 0.39894 0.60813 0.0
H1147 H 0.08768 0.41252 0.54591 0.0
H1148 H 0.07414 0.36975 0.56688 0.0
H1149 H 0.10446 0.36272 0.59815 0.0
H1150 H 0.16068 0.44149 0.58709 0.0
H1151 H 0.1273 0.41 0.45602 0.0
H1152 H 0.09954 0.42203 0.42691 0.0
O1153 O 0.10069 0.45778 0.55899 0.0
C1154 C 0.14972 0.51875 0.54403 0.0
C1155 C 0.09938 0.44638 0.46292 0.0
C1156 C 0.12184 0.42295 0.46603 0.0
N1157 N 0.12341 0.44928 0.50829 0.0
C1158 C 0.10822 0.45607 0.49238 0.0
C1159 C 0.13033 0.43302 0.49544 0.0
C1160 C 0.10626 0.42969 0.44972 0.0
C1161 C 0.18882 0.5095 0.63339 0.0
N1162 N 0.17651 0.52155 0.6222 0.0
C1163 C 0.21476 0.52332 0.64068 0.0
C1164 C 0.22814 0.54966 0.63639 0.0
C1165 C 0.21549 0.56182 0.62488 0.0
C1166 C 0.18955 0.54737 0.61783 0.0
C1167 C 0.13674 0.55164 0.67534 0.0
C1168 C 0.11947 0.53467 0.61618 0.0
C1169 C 0.14207 0.53432 0.66065 0.0
N1170 N 0.13358 0.52616 0.63135 0.0
C1171 C 0.11378 0.55201 0.63014 0.0
C1172 C 0.12251 0.56054 0.65992 0.0
C1173 C 0.09066 0.46496 0.57972 0.0
C1174 C 0.13467 0.40175 0.5945 0.0
C1175 C 0.10092 0.40968 0.55971 0.0
C1176 C 0.09318 0.38539 0.57141 0.0
C1177 C 0.11021 0.38145 0.58892 0.0
N1178 N 0.12496 0.42951 0.56526 0.0
C1179 C 0.14175 0.42579 0.58242 0.0
Co1180 Co 0.65073 0.1358 0.10879 0.0
Co1181 Co 0.68076 0.13002 0.04362 0.0
O1182 O 0.68128 0.14452 0.08435 0.0
C1183 C 0.68852 0.13492 0.15439 0.0
O1184 O 0.70588 0.13989 0.13326 0.0
C1185 C 0.7065 0.18577 0.03328 0.0
O1186 O 0.68791 0.18524 0.04945 0.0
O1187 O 0.65261 0.13543 0.02882 0.0
O1188 O 0.63225 0.13679 0.0713 0.0
H1189 H 0.63972 0.07339 0.95195 0.0
H1190 H 0.70096 0.18038 0.12613 0.0
O1191 O 0.66744 0.13375 0.1478 0.0
H1192 H 0.64373 0.21524 0.10959 0.0
H1193 H 0.60277 0.14012 0.20138 0.0
H1194 H 0.59535 0.10053 0.09973 0.0
H1195 H 0.6278 0.16923 0.10357 0.0
H1196 H 0.64114 0.15176 0.17014 0.0
O1197 O 0.70658 0.16506 0.02805 0.0
H1198 H 0.64045 0.09158 0.00307 0.0
H1199 H 0.721 0.13866 0.99773 0.0
H1200 H 0.55646 0.08857 0.13005 0.0
H1201 H 0.7176 0.22641 0.13269 0.0
H1202 H 0.56004 0.1084 0.18128 0.0
H1203 H 0.68894 0.24419 0.12431 0.0
O1204 O 0.63787 0.09885 0.10269 0.0
H1205 H 0.76615 0.1562 0.09108 0.0
H1206 H 0.68936 0.08561 0.04325 0.0
H1207 H 0.72389 0.07831 0.06094 0.0
H1208 H 0.76269 0.11379 0.08495 0.0
H1209 H 0.73098 0.16256 0.07354 0.0
H1210 H 0.72112 0.12115 0.94643 0.0
H1211 H 0.68028 0.08819 0.92327 0.0
O1212 O 0.65504 0.09485 0.05852 0.0
C1213 C 0.63458 0.13685 0.04214 0.0
C1214 C 0.65765 0.08768 0.96183 0.0
C1215 C 0.70333 0.11451 0.95872 0.0
N1216 N 0.68076 0.116 0.00345 0.0
C1217 C 0.65819 0.09799 0.99081 0.0
C1218 C 0.70314 0.1244 0.98774 0.0
C1219 C 0.68041 0.09601 0.94575 0.0
C1220 C 0.68822 0.1878 0.12295 0.0
N1221 N 0.66332 0.17196 0.11494 0.0
C1222 C 0.69782 0.21397 0.12648 0.0
C1223 C 0.68175 0.22394 0.12171 0.0
C1224 C 0.65639 0.20771 0.11343 0.0
C1225 C 0.64748 0.18166 0.11005 0.0
C1226 C 0.60096 0.1314 0.17905 0.0
C1227 C 0.59704 0.1094 0.12189 0.0
C1228 C 0.62262 0.13787 0.16129 0.0
N1229 N 0.62046 0.127 0.13301 0.0
C1230 C 0.57496 0.10248 0.139 0.0
C1231 C 0.57699 0.1136 0.16776 0.0
C1232 C 0.64038 0.08535 0.08193 0.0
C1233 C 0.74936 0.1406 0.08061 0.0
C1234 C 0.70605 0.10109 0.05396 0.0
C1235 C 0.72561 0.09687 0.06378 0.0
C1236 C 0.74739 0.11679 0.07721 0.0
N1237 N 0.70812 0.12449 0.0574 0.0
C1238 C 0.72943 0.14412 0.07049 0.0
Co1239 Co 0.5226 0.64703 0.62209 0.0
Co1240 Co 0.55315 0.67243 0.5521 0.0
O1241 O 0.54365 0.67613 0.59467 0.0
C1242 C 0.56584 0.68428 0.66423 0.0
O1243 O 0.57802 0.70157 0.64291 0.0
C1244 C 0.53616 0.71195 0.54792 0.0
O1245 O 0.52982 0.70895 0.57714 0.0
O1246 O 0.51739 0.64551 0.54218 0.0
O1247 O 0.49942 0.62808 0.58752 0.0
H1248 H 0.55502 0.62259 0.46055 0.0
H1249 H 0.53329 0.69881 0.6411 0.0
O1250 O 0.54491 0.664 0.65848 0.0
H1251 H 0.43965 0.64658 0.6348 0.0
H1252 H 0.47716 0.60501 0.72093 0.0
H1253 H 0.49836 0.59089 0.61567 0.0
H1254 H 0.46662 0.62781 0.6232 0.0
H1255 H 0.50274 0.64142 0.68642 0.0
O1256 O 0.54526 0.69908 0.53547 0.0
H1257 H 0.5436 0.62819 0.5134 0.0
H1258 H 0.58276 0.70859 0.5013 0.0
H1259 H 0.47246 0.55391 0.64931 0.0
H1260 H 0.50707 0.7182 0.65354 0.0
H1261 H 0.46173 0.56086 0.70238 0.0
H1262 H 0.45985 0.69209 0.65027 0.0
O1263 O 0.544 0.63139 0.61303 0.0
H1264 H 0.62212 0.75691 0.59323 0.0
H1265 H 0.60383 0.67664 0.54263 0.0
H1266 H 0.64834 0.70898 0.55415 0.0
H1267 H 0.65776 0.74956 0.57948 0.0
H1268 H 0.57795 0.72393 0.5818 0.0
H1269 H 0.59442 0.70384 0.44822 0.0
H1270 H 0.58061 0.6606 0.42757 0.0
O1271 O 0.56135 0.64581 0.5664 0.0
C1272 C 0.49883 0.62898 0.5583 0.0
C1273 C 0.56122 0.64154 0.46931 0.0
C1274 C 0.58329 0.68714 0.46238 0.0
N1275 N 0.56263 0.66869 0.5105 0.0
C1276 C 0.55487 0.64483 0.49925 0.0
C1277 C 0.57657 0.6897 0.49242 0.0
C1278 C 0.57555 0.66287 0.45081 0.0
C1279 C 0.51282 0.68716 0.64007 0.0
N1280 N 0.5016 0.66214 0.63152 0.0
C1281 C 0.49803 0.69833 0.64693 0.0
C1282 C 0.47154 0.68369 0.64502 0.0
C1283 C 0.46021 0.65817 0.63629 0.0
C1284 C 0.47561 0.64768 0.62957 0.0
C1285 C 0.48165 0.60173 0.69782 0.0
C1286 C 0.49359 0.59406 0.63863 0.0
C1287 C 0.49617 0.62227 0.67818 0.0
N1288 N 0.50186 0.61828 0.64893 0.0
C1289 C 0.47899 0.57305 0.65762 0.0
C1290 C 0.473 0.57696 0.6874 0.0
C1291 C 0.55756 0.63196 0.59022 0.0
C1292 C 0.61828 0.73938 0.58198 0.0
C1293 C 0.6077 0.69418 0.55375 0.0
C1294 C 0.63298 0.71247 0.56015 0.0
C1295 C 0.63826 0.73523 0.57434 0.0
N1296 N 0.58816 0.69845 0.56108 0.0
C1297 C 0.59322 0.72066 0.5752 0.0
Co1298 Co 0.89163 0.51616 0.10703 0.0
Co1299 Co 0.88698 0.55097 0.04632 0.0
O1300 O 0.87845 0.53692 0.08844 0.0
C1301 C 0.89619 0.55249 0.15879 0.0
O1302 O 0.88922 0.56575 0.14153 0.0
C1303 C 0.83012 0.52152 0.04588 0.0
O1304 O 0.83118 0.50313 0.06061 0.0
O1305 O 0.87934 0.51736 0.0288 0.0
O1306 O 0.88691 0.49763 0.06761 0.0
H1307 H 0.92967 0.56628 0.94293 0.0
H1308 H 0.84841 0.51879 0.13595 0.0
O1309 O 0.8973 0.53355 0.14788 0.0
H1310 H 0.81567 0.42754 0.11568 0.0
H1311 H 0.90133 0.46391 0.19082 0.0
H1312 H 0.92743 0.49926 0.08607 0.0
H1313 H 0.85996 0.45948 0.10238 0.0
H1314 H 0.88429 0.48944 0.16738 0.0
O1315 O 0.85061 0.5419 0.03881 0.0
H1316 H 0.91885 0.54893 0.99573 0.0
H1317 H 0.87272 0.58289 0.00797 0.0
H1318 H 0.94471 0.47358 0.10853 0.0
H1319 H 0.80414 0.48751 0.14998 0.0
H1320 H 0.93167 0.45572 0.16128 0.0
H1321 H 0.78743 0.44148 0.13978 0.0
O1322 O 0.92728 0.54196 0.0953 0.0
H1323 H 0.86829 0.60945 0.1091 0.0
H1324 H 0.93059 0.60428 0.04062 0.0
H1325 H 0.94038 0.64592 0.06201 0.0
H1326 H 0.90906 0.64871 0.09644 0.0
H1327 H 0.85944 0.56812 0.08754 0.0
H1328 H 0.88287 0.60041 0.95523 0.0
H1329 H 0.91162 0.59222 0.92235 0.0
O1330 O 0.92354 0.5607 0.05248 0.0
C1331 C 0.88145 0.4989 0.03961 0.0
C1332 C 0.91718 0.57004 0.95705 0.0
C1333 C 0.89088 0.58917 0.96394 0.0
N1334 N 0.8953 0.56503 0.00498 0.0
C1335 C 0.91104 0.56033 0.98699 0.0
C1336 C 0.88516 0.57915 0.99377 0.0
C1337 C 0.90702 0.58457 0.94552 0.0
C1338 C 0.84149 0.49883 0.13183 0.0
N1339 N 0.85695 0.49103 0.11865 0.0
C1340 C 0.8163 0.48118 0.13965 0.0
C1341 C 0.80692 0.45536 0.13386 0.0
C1342 C 0.82275 0.44754 0.12033 0.0
C1343 C 0.84781 0.46574 0.11277 0.0
C1344 C 0.90711 0.47154 0.16779 0.0
C1345 C 0.92153 0.4914 0.10896 0.0
C1346 C 0.89757 0.48607 0.15441 0.0
N1347 N 0.90471 0.49567 0.12527 0.0
C1348 C 0.93144 0.47694 0.12159 0.0
C1349 C 0.92413 0.46695 0.1512 0.0
C1350 C 0.93694 0.55721 0.07252 0.0
C1351 C 0.88207 0.60849 0.09409 0.0
C1352 C 0.91697 0.60528 0.05581 0.0
C1353 C 0.92256 0.62894 0.06774 0.0
C1354 C 0.90497 0.6305 0.08702 0.0
N1355 N 0.89447 0.58377 0.06286 0.0
C1356 C 0.87712 0.58515 0.08172 0.0
Co1357 Co 0.37434 0.87462 0.61176 0.0
Co1358 Co 0.34261 0.88177 0.54915 0.0
O1359 O 0.34308 0.86772 0.59003 0.0
C1360 C 0.34376 0.8841 0.66034 0.0
O1361 O 0.32644 0.88245 0.64084 0.0
C1362 C 0.31218 0.82533 0.54165 0.0
O1363 O 0.32843 0.82376 0.56022 0.0
O1364 O 0.36892 0.87431 0.53223 0.0
O1365 O 0.38904 0.87003 0.5731 0.0
H1366 H 0.38185 0.93636 0.45537 0.0
H1367 H 0.32418 0.83496 0.63616 0.0
O1368 O 0.36173 0.88031 0.6519 0.0
H1369 H 0.37152 0.79007 0.61418 0.0
H1370 H 0.42512 0.86825 0.69988 0.0
H1371 H 0.42951 0.90544 0.59732 0.0
H1372 H 0.3913 0.8363 0.60475 0.0
H1373 H 0.38576 0.85907 0.67239 0.0
O1374 O 0.315 0.84706 0.53458 0.0
H1375 H 0.38219 0.91838 0.50631 0.0
H1376 H 0.30123 0.87468 0.50594 0.0
H1377 H 0.46934 0.91487 0.62384 0.0
H1378 H 0.30377 0.78879 0.64623 0.0
H1379 H 0.46729 0.89623 0.67552 0.0
H1380 H 0.32747 0.76601 0.63513 0.0
O1381 O 0.39002 0.91177 0.60362 0.0
H1382 H 0.26086 0.8605 0.60322 0.0
H1383 H 0.33649 0.9277 0.54934 0.0
H1384 H 0.30423 0.93738 0.56973 0.0
H1385 H 0.26604 0.90362 0.59681 0.0
H1386 H 0.29377 0.85175 0.58286 0.0
H1387 H 0.30002 0.89201 0.45488 0.0
H1388 H 0.34054 0.92317 0.42931 0.0
O1389 O 0.37009 0.91664 0.56265 0.0
C1390 C 0.38599 0.87054 0.54418 0.0
C1391 C 0.36407 0.92285 0.46631 0.0
C1392 C 0.31814 0.89794 0.46602 0.0
N1393 N 0.34175 0.89564 0.50915 0.0
C1394 C 0.36413 0.91266 0.49519 0.0
C1395 C 0.31894 0.88814 0.49489 0.0
C1396 C 0.34088 0.91542 0.45169 0.0
C1397 C 0.33474 0.82528 0.63168 0.0
N1398 N 0.35898 0.83839 0.62016 0.0
C1399 C 0.32303 0.79909 0.63725 0.0
C1400 C 0.33631 0.78631 0.63095 0.0
C1401 C 0.36103 0.7998 0.61917 0.0
C1402 C 0.3721 0.82597 0.61382 0.0
C1403 C 0.42626 0.87642 0.67733 0.0
C1404 C 0.42846 0.89709 0.61969 0.0
C1405 C 0.40404 0.87133 0.66167 0.0
N1406 N 0.40533 0.8815 0.63312 0.0
C1407 C 0.45108 0.90257 0.63464 0.0
C1408 C 0.44991 0.89212 0.66365 0.0
C1409 C 0.38684 0.92569 0.58408 0.0
C1410 C 0.27739 0.87535 0.5914 0.0
C1411 C 0.32002 0.91295 0.56129 0.0
C1412 C 0.30177 0.91852 0.57268 0.0
C1413 C 0.28033 0.89956 0.58784 0.0
N1414 N 0.31699 0.88915 0.56485 0.0
C1415 C 0.29603 0.87047 0.57969 0.0
H1416 H 0.32878 0.4745 0.20365 0.0
H1417 H 0.35181 0.4188 0.18625 0.0
H1418 H 0.35202 0.4113 0.24165 0.0
H1419 H 0.35229 0.42577 0.29478 0.0
H1420 H 0.32826 0.48086 0.31186 0.0
H1421 H 0.32122 0.48293 0.25691 0.0
C1422 C 0.33327 0.4603 0.21204 0.0
C1423 C 0.34066 0.4475 0.1911 0.0
C1424 C 0.33336 0.45613 0.24383 0.0
C1425 C 0.3461 0.4289 0.20202 0.0
C1426 C 0.34639 0.42474 0.23369 0.0
C1427 C 0.34491 0.43775 0.28654 0.0
C1428 C 0.34139 0.45356 0.30733 0.0
C1429 C 0.34103 0.439 0.25481 0.0
C1430 C 0.33138 0.46865 0.29639 0.0
C1431 C 0.32751 0.47001 0.26489 0.0
H1432 H 0.92142 0.37437 0.69145 0.0
H1433 H 0.87276 0.29316 0.68085 0.0
H1434 H 0.87181 0.28769 0.73705 0.0
H1435 H 0.88105 0.30706 0.78953 0.0
H1436 H 0.92949 0.38867 0.79808 0.0
H1437 H 0.93441 0.39283 0.74249 0.0
C1438 C 0.91084 0.3554 0.70139 0.0
C1439 C 0.89692 0.33425 0.68212 0.0
C1440 C 0.91021 0.3525 0.73345 0.0
C1441 C 0.88363 0.30976 0.69526 0.0
C1442 C 0.88297 0.30667 0.72739 0.0
C1443 C 0.89309 0.32562 0.77919 0.0
C1444 C 0.90458 0.34754 0.79796 0.0
C1445 C 0.89564 0.32802 0.74681 0.0
C1446 C 0.92012 0.37151 0.7842 0.0
C1447 C 0.92297 0.37396 0.75236 0.0
H1448 H 0.55053 0.86441 0.30486 0.0
H1449 H 0.60315 0.94386 0.32319 0.0
H1450 H 0.60884 0.95265 0.26783 0.0
H1451 H 0.5941 0.93867 0.21458 0.0
H1452 H 0.54197 0.85886 0.19677 0.0
H1453 H 0.54122 0.84932 0.25138 0.0
C1454 C 0.56367 0.88354 0.29669 0.0
C1455 C 0.57616 0.9035 0.31804 0.0
C1456 C 0.56676 0.88847 0.26488 0.0
C1457 C 0.59333 0.92815 0.30722 0.0
C1458 C 0.59643 0.93323 0.27554 0.0
C1459 C 0.583 0.91912 0.22256 0.0
C1460 C 0.5678 0.89964 0.20157 0.0
C1461 C 0.58254 0.91369 0.25419 0.0
C1462 C 0.55377 0.87433 0.2123 0.0
C1463 C 0.55318 0.86882 0.24364 0.0
H1464 H 0.65419 0.584 0.79427 0.0
H1465 H 0.68009 0.53 0.80844 0.0
H1466 H 0.68891 0.53073 0.75356 0.0
H1467 H 0.6843 0.54254 0.70081 0.0
H1468 H 0.65933 0.59713 0.68618 0.0
H1469 H 0.65556 0.60065 0.74188 0.0
C1470 C 0.66217 0.57274 0.78541 0.0
C1471 C 0.66611 0.55672 0.80544 0.0
C1472 C 0.66726 0.57322 0.75367 0.0
C1473 C 0.67678 0.54247 0.79363 0.0
C1474 C 0.68173 0.54275 0.76215 0.0
C1475 C 0.67853 0.5556 0.70986 0.0
C1476 C 0.67185 0.56934 0.68941 0.0
C1477 C 0.67631 0.55744 0.74186 0.0
C1478 C 0.66465 0.58638 0.70143 0.0
C1479 C 0.66228 0.58824 0.73329 0.0
H1480 H 0.08381 0.66436 0.28912 0.0
H1481 H 0.16305 0.68984 0.30815 0.0
H1482 H 0.17276 0.69608 0.25337 0.0
H1483 H 0.15758 0.68793 0.19983 0.0
H1484 H 0.07883 0.66358 0.18022 0.0
H1485 H 0.07019 0.66356 0.23534 0.0
C1486 C 0.10331 0.67185 0.28134 0.0
C1487 C 0.12251 0.67607 0.30276 0.0
C1488 C 0.10883 0.6753 0.24962 0.0
C1489 C 0.14777 0.68617 0.29228 0.0
C1490 C 0.15337 0.68961 0.26085 0.0
C1491 C 0.13867 0.68316 0.20766 0.0
C1492 C 0.11879 0.67542 0.18618 0.0
C1493 C 0.13387 0.68322 0.23929 0.0
C1494 C 0.09444 0.66959 0.19641 0.0
C1495 C 0.08945 0.66941 0.22792 0.0
H1496 H 0.45756 0.09356 0.81091 0.0
H1497 H 0.43632 0.15148 0.81852 0.0
H1498 H 0.43217 0.15185 0.76223 0.0
H1499 H 0.44032 0.1395 0.71051 0.0
H1500 H 0.46202 0.08168 0.70473 0.0
H1501 H 0.45986 0.07722 0.76049 0.0
C1502 C 0.45161 0.10598 0.80027 0.0
C1503 C 0.44757 0.12269 0.8187 0.0
C1504 C 0.44948 0.1062 0.76814 0.0
C1505 C 0.43954 0.13844 0.80474 0.0
C1506 C 0.43733 0.13876 0.77255 0.0
C1507 C 0.44387 0.12547 0.72148 0.0
C1508 C 0.45163 0.11117 0.70351 0.0
C1509 C 0.44302 0.12325 0.75392 0.0
C1510 C 0.45629 0.09312 0.71804 0.0
C1511 C 0.45514 0.09059 0.74997 0.0
H1512 H 0.56075 0.6484 0.70396 0.0
H1513 H 0.58867 0.72912 0.69734 0.0
H1514 H 0.59208 0.73273 0.75383 0.0
H1515 H 0.58048 0.71113 0.80524 0.0
H1516 H 0.54985 0.62981 0.80965 0.0
H1517 H 0.55422 0.62811 0.75395 0.0
C1518 C 0.56812 0.66691 0.71487 0.0
C1519 C 0.5742 0.68842 0.69671 0.0
C1520 C 0.56922 0.66858 0.74702 0.0
C1521 C 0.58395 0.71232 0.71094 0.0
C1522 C 0.58563 0.7143 0.74322 0.0
C1523 C 0.57548 0.69328 0.7939 0.0
C1524 C 0.5649 0.6706 0.8112 0.0
C1525 C 0.57738 0.69235 0.76155 0.0
C1526 C 0.55807 0.64742 0.79654 0.0
C1527 C 0.56047 0.64643 0.76477 0.0
H1528 H 0.91277 0.54705 0.3003 0.0
H1529 H 0.86701 0.58318 0.30585 0.0
H1530 H 0.86804 0.58715 0.24935 0.0
H1531 H 0.87847 0.57598 0.19806 0.0
H1532 H 0.92417 0.53948 0.19484 0.0
H1533 H 0.92679 0.54025 0.25068 0.0
C1534 C 0.90319 0.55603 0.28919 0.0
C1535 C 0.88952 0.56446 0.30708 0.0
C1536 C 0.90377 0.55806 0.25705 0.0
C1537 C 0.87762 0.57648 0.29248 0.0
C1538 C 0.8781 0.57862 0.2602 0.0
C1539 C 0.88939 0.56869 0.20963 0.0
C1540 C 0.90079 0.55736 0.19227 0.0
C1541 C 0.89063 0.56888 0.24215 0.0
C1542 C 0.91489 0.54796 0.2076 0.0
C1543 C 0.91642 0.54837 0.23959 0.0
H1544 H 0.30359 0.86688 0.70089 0.0
H1545 H 0.38483 0.91735 0.69235 0.0
H1546 H 0.38851 0.92431 0.74778 0.0
H1547 H 0.37004 0.9116 0.79877 0.0
H1548 H 0.28948 0.85943 0.80962 0.0
H1549 H 0.2839 0.85796 0.75337 0.0
C1550 C 0.32189 0.87987 0.71124 0.0
C1551 C 0.34395 0.89146 0.69274 0.0
C1552 C 0.32402 0.88327 0.74352 0.0
C1553 C 0.36765 0.90808 0.70627 0.0
C1554 C 0.36979 0.91205 0.73794 0.0
C1555 C 0.35115 0.90024 0.78886 0.0
C1556 C 0.33027 0.88539 0.80817 0.0
C1557 C 0.34831 0.89903 0.75682 0.0
C1558 C 0.30585 0.87104 0.79514 0.0
C1559 C 0.30273 0.87004 0.76299 0.0
H1560 H 0.46865 0.36967 0.30973 0.0
H1561 H 0.43324 0.28791 0.31726 0.0
H1562 H 0.4301 0.28417 0.26083 0.0
H1563 H 0.44164 0.30497 0.20907 0.0
H1564 H 0.478 0.38709 0.20377 0.0
H1565 H 0.47646 0.38976 0.25946 0.0
C1566 C 0.46 0.35095 0.29911 0.0
C1567 C 0.45148 0.32914 0.31766 0.0
C1568 C 0.45861 0.34903 0.26692 0.0
C1569 C 0.43997 0.30503 0.3035 0.0
C1570 C 0.43832 0.30291 0.27122 0.0
C1571 C 0.44879 0.32336 0.22014 0.0
C1572 C 0.4602 0.3458 0.2022 0.0
C1573 C 0.44817 0.32488 0.25261 0.0
C1574 C 0.46943 0.36951 0.21693 0.0
C1575 C 0.46856 0.37111 0.24886 0.0
H1576 H 0.14202 0.43586 0.70384 0.0
H1577 H 0.10153 0.47736 0.694 0.0
H1578 H 0.09668 0.47763 0.74947 0.0
H1579 H 0.10843 0.4711 0.80073 0.0
H1580 H 0.14827 0.42946 0.81302 0.0
H1581 H 0.14871 0.42393 0.75681 0.0
C1582 C 0.13162 0.44436 0.71391 0.0
C1583 C 0.12254 0.45694 0.69487 0.0
C1584 C 0.12908 0.44474 0.74624 0.0
C1585 C 0.10907 0.46791 0.70818 0.0
C1586 C 0.10629 0.46813 0.73993 0.0
C1587 C 0.11687 0.46047 0.79107 0.0
C1588 C 0.12858 0.45098 0.81063 0.0
C1589 C 0.11699 0.45744 0.75914 0.0
C1590 C 0.13916 0.43693 0.79815 0.0
C1591 C 0.13951 0.43391 0.76608 0.0
H1592 H 0.71714 0.14713 0.29516 0.0
H1593 H 0.63806 0.08795 0.30041 0.0
H1594 H 0.63592 0.08427 0.24456 0.0
H1595 H 0.65434 0.10192 0.19442 0.0
H1596 H 0.73306 0.16106 0.18725 0.0
H1597 H 0.73771 0.16056 0.24352 0.0
C1598 C 0.69973 0.13295 0.28404 0.0
C1599 C 0.6777 0.11807 0.30185 0.0
C1600 C 0.69844 0.13122 0.25158 0.0
C1601 C 0.65519 0.09983 0.28717 0.0
C1602 C 0.65389 0.09776 0.25522 0.0
C1603 C 0.67265 0.11439 0.20518 0.0
C1604 C 0.69322 0.13173 0.187 0.0
C1605 C 0.67505 0.11403 0.23723 0.0
C1606 C 0.71695 0.14756 0.20095 0.0
C1607 C 0.71954 0.14736 0.23309 0.0
H1608 H 0.19838 0.45819 1.00054 0.0
H1609 H 0.23783 0.52278 0.93955 0.0
H1610 H 0.27832 0.52499 0.95134 0.0
H1611 H 0.30258 0.50811 0.97813 0.0
H1612 H 0.2635 0.44455 0.0406 0.0
H1613 H 0.223 0.44251 0.02916 0.0
C1614 C 0.21585 0.47279 0.98989 0.0
C1615 C 0.21501 0.49024 0.96913 0.0
C1616 C 0.2392 0.47414 0.99701 0.0
C1617 C 0.23788 0.50915 0.95571 0.0
C1618 C 0.26108 0.51039 0.96236 0.0
C1619 C 0.28521 0.49383 0.98927 0.0
C1620 C 0.28611 0.47644 0.01008 0.0
C1621 C 0.26197 0.49292 0.98284 0.0
C1622 C 0.26342 0.45822 0.02454 0.0
C1623 C 0.2402 0.45698 0.01795 0.0
H1624 H 0.71675 0.22745 0.51394 0.0
H1625 H 0.75246 0.20352 0.44583 0.0
H1626 H 0.79411 0.23986 0.45871 0.0
H1627 H 0.82083 0.27759 0.49082 0.0
H1628 H 0.785 0.30204 0.55809 0.0
H1629 H 0.74317 0.26643 0.54408 0.0
C1630 C 0.73359 0.23027 0.50169 0.0
C1631 C 0.73133 0.21261 0.47895 0.0
C1632 C 0.7576 0.25127 0.50925 0.0
C1633 C 0.75347 0.21675 0.46333 0.0
C1634 C 0.77739 0.2375 0.47081 0.0
C1635 C 0.80387 0.27515 0.50241 0.0
C1636 C 0.80616 0.29245 0.52564 0.0
C1637 C 0.77975 0.25472 0.494 0.0
C1638 C 0.78389 0.28909 0.54014 0.0
C1639 C 0.75991 0.26868 0.53215 0.0
H1640 H 0.49806 0.78972 0.98097 0.0
H1641 H 0.56197 0.81576 0.0432 0.0
H1642 H 0.56622 0.77888 0.03022 0.0
H1643 H 0.55283 0.73984 0.99986 0.0
H1644 H 0.48826 0.71315 0.93865 0.0
H1645 H 0.48333 0.74954 0.95254 0.0
C1646 C 0.51281 0.78726 0.99187 0.0
C1647 C 0.52968 0.80564 0.01299 0.0
C1648 C 0.51517 0.76588 0.98435 0.0
C1649 C 0.54862 0.80198 0.02693 0.0
C1650 C 0.55117 0.78089 0.01942 0.0
C1651 C 0.53766 0.74197 0.98959 0.0
C1652 C 0.52103 0.7238 0.96813 0.0
C1653 C 0.53473 0.76285 0.99792 0.0
C1654 C 0.50132 0.72677 0.95527 0.0
C1655 C 0.4985 0.74763 0.96317 0.0
H1656 H 0.75183 0.5609 0.51288 0.0
H1657 H 0.71324 0.48207 0.54164 0.0
H1658 H 0.74867 0.47754 0.52214 0.0
H1659 H 0.79075 0.49595 0.49653 0.0
H1660 H 0.8296 0.5752 0.46949 0.0
H1661 H 0.79397 0.57943 0.48847 0.0
C1662 C 0.75111 0.5427 0.51494 0.0
C1663 C 0.72974 0.52184 0.52866 0.0
C1664 C 0.77164 0.54024 0.50382 0.0
C1665 C 0.72935 0.49847 0.53119 0.0
C1666 C 0.74963 0.49584 0.51997 0.0
C1667 C 0.79137 0.51411 0.49468 0.0
C1668 C 0.81286 0.53518 0.48145 0.0
C1669 C 0.77087 0.51657 0.50612 0.0
C1670 C 0.81339 0.55865 0.47958 0.0
C1671 C 0.79298 0.56111 0.49044 0.0
H1672 H 0.27987 0.8166 0.99919 0.0
H1673 H 0.30131 0.77724 0.93329 0.0
H1674 H 0.26238 0.7372 0.94485 0.0
H1675 H 0.22158 0.71343 0.97264 0.0
H1676 H 0.20061 0.75255 0.03943 0.0
H1677 H 0.23995 0.79243 0.02862 0.0
C1678 C 0.27609 0.79925 0.98743 0.0
C1679 C 0.29355 0.80003 0.96533 0.0
C1680 C 0.25366 0.77618 0.99431 0.0
C1681 C 0.28833 0.77727 0.95047 0.0
C1682 C 0.26599 0.75433 0.957 0.0
C1683 C 0.22562 0.73066 0.98489 0.0
C1684 C 0.20801 0.72992 0.00673 0.0
C1685 C 0.24842 0.75357 0.97871 0.0
C1686 C 0.21375 0.75246 0.02254 0.0
C1687 C 0.23626 0.77534 0.01632 0.0
H1688 H 0.52276 0.22116 0.49075 0.0
H1689 H 0.46253 0.19742 0.55809 0.0
H1690 H 0.45711 0.23352 0.5442 0.0
H1691 H 0.46814 0.27089 0.51136 0.0
H1692 H 0.529 0.29519 0.44485 0.0
H1693 H 0.53539 0.25987 0.45993 0.0
C1694 C 0.50859 0.22397 0.50262 0.0
C1695 C 0.49306 0.20644 0.52543 0.0
C1696 C 0.50551 0.24482 0.49446 0.0
C1697 C 0.47486 0.21056 0.54056 0.0
C1698 C 0.47163 0.23117 0.53249 0.0
C1699 C 0.48282 0.26848 0.50016 0.0
C1700 C 0.49794 0.28564 0.47681 0.0
C1701 C 0.4866 0.24824 0.50919 0.0
C1702 C 0.51707 0.28233 0.46286 0.0
C1703 C 0.52073 0.26209 0.47146 0.0
H1704 H 0.82085 0.5485 0.00275 0.0
H1705 H 0.78313 0.48865 0.07022 0.0
H1706 H 0.74225 0.48564 0.05782 0.0
H1707 H 0.71742 0.50105 0.02892 0.0
H1708 H 0.75532 0.56005 0.96039 0.0
H1709 H 0.79577 0.56215 0.97195 0.0
C1710 C 0.80369 0.53477 0.01475 0.0
C1711 C 0.80512 0.51896 0.03757 0.0
C1712 C 0.78021 0.53294 0.00726 0.0
C1713 C 0.78261 0.50105 0.05257 0.0
C1714 C 0.75921 0.49935 0.04552 0.0
C1715 C 0.73449 0.51426 0.01636 0.0
C1716 C 0.73324 0.53043 0.99388 0.0
C1717 C 0.7578 0.51533 0.02305 0.0
C1718 C 0.75559 0.54731 0.97774 0.0
C1719 C 0.77882 0.54862 0.98443 0.0
H1720 H 0.21383 0.71863 0.51423 0.0
H1721 H 0.22909 0.7491 0.42193 0.0
H1722 H 0.26567 0.78869 0.4405 0.0
H1723 H 0.29331 0.815 0.48327 0.0
H1724 H 0.28125 0.78261 0.5744 0.0
H1725 H 0.24362 0.74358 0.55626 0.0
C1726 C 0.2253 0.73393 0.49825 0.0
C1727 C 0.21876 0.73101 0.46678 0.0
C1728 C 0.24686 0.75635 0.50895 0.0
C1729 C 0.23386 0.75085 0.44622 0.0
C1730 C 0.25471 0.77354 0.45685 0.0
C1731 C 0.28238 0.79934 0.49907 0.0
C1732 C 0.28981 0.80169 0.53016 0.0
C1733 C 0.26137 0.77657 0.48818 0.0
C1734 C 0.27582 0.78119 0.55036 0.0
C1735 C 0.2543 0.7589 0.54001 0.0
H1736 H 0.51449 0.21763 0.0345 0.0
H1737 H 0.45434 0.19695 0.96777 0.0
H1738 H 0.45263 0.23533 0.98029 0.0
H1739 H 0.46701 0.27401 0.01137 0.0
H1740 H 0.52796 0.29571 0.07708 0.0
H1741 H 0.53054 0.25776 0.06374 0.0
C1742 C 0.5011 0.22158 0.02255 0.0
C1743 C 0.48451 0.20427 1.00028 0.0
C1744 C 0.50026 0.24384 0.02979 0.0
C1745 C 0.46741 0.20987 0.98493 0.0
C1746 C 0.46632 0.23181 0.99217 0.0
C1747 C 0.48089 0.27047 0.0228 0.0
C1748 C 0.49714 0.28762 0.0454 0.0
C1749 C 0.48245 0.24878 0.01478 0.0
C1750 C 0.51522 0.28286 0.05962 0.0
C1751 C 0.51667 0.26112 0.05204 0.0
H1752 H 0.23888 0.52503 0.51863 0.0
H1753 H 0.195 0.44393 0.53514 0.0
H1754 H 0.23061 0.43908 0.51738 0.0
H1755 H 0.274 0.45758 0.49617 0.0
H1756 H 0.31724 0.53831 0.4771 0.0
H1757 H 0.28225 0.5435 0.49672 0.0
C1758 C 0.23717 0.50632 0.51851 0.0
C1759 C 0.21424 0.48491 0.52833 0.0
C1760 C 0.25764 0.50354 0.50766 0.0
C1761 C 0.21233 0.46077 0.52767 0.0
C1762 C 0.23273 0.45795 0.51752 0.0
C1763 C 0.27584 0.47635 0.4964 0.0
C1764 C 0.29835 0.49753 0.48524 0.0
C1765 C 0.25544 0.47916 0.5073 0.0
C1766 C 0.3002 0.52164 0.48549 0.0
C1767 C 0.28016 0.52465 0.49676 0.0
H1768 H 0.79555 0.2988 0.01026 0.0
H1769 H 0.81803 0.26078 0.94373 0.0
H1770 H 0.78045 0.21991 0.95668 0.0
H1771 H 0.74224 0.1945 0.98901 0.0
H1772 H 0.71944 0.23307 0.05441 0.0
H1773 H 0.756 0.274 0.03983 0.0
C1774 C 0.79213 0.28162 0.99836 0.0
C1775 C 0.80971 0.28292 0.97613 0.0
C1776 C 0.77046 0.25815 0.00591 0.0
C1777 C 0.80482 0.26043 0.96083 0.0
C1778 C 0.78338 0.23698 0.96837 0.0
C1779 C 0.74523 0.21188 0.99997 0.0
C1780 C 0.72815 0.21063 0.02292 0.0
C1781 C 0.76625 0.23553 0.99122 0.0
C1782 C 0.7322 0.2334 0.03666 0.0
C1783 C 0.75317 0.25686 0.02838 0.0
H1784 H 0.52782 0.78736 0.45334 0.0
H1785 H 0.55587 0.83712 0.53231 0.0
H1786 H 0.55516 0.80291 0.56308 0.0
H1787 H 0.54694 0.75885 0.56757 0.0
H1788 H 0.5235 0.71046 0.48733 0.0
H1789 H 0.52197 0.7439 0.45707 0.0
C1790 C 0.53372 0.79063 0.4773 0.0
C1791 C 0.54172 0.81468 0.4906 0.0
C1792 C 0.53405 0.77106 0.49463 0.0
C1793 C 0.54969 0.8188 0.52153 0.0
C1794 C 0.54922 0.79922 0.53917 0.0
C1795 C 0.54134 0.75561 0.5435 0.0
C1796 C 0.53498 0.73211 0.52978 0.0
C1797 C 0.54145 0.77527 0.52599 0.0
C1798 C 0.52834 0.72836 0.49841 0.0
C1799 C 0.52748 0.74747 0.48112 0.0
H1800 H 0.38798 0.42645 0.04826 0.0
H1801 H 0.42149 0.46932 0.13159 0.0
H1802 H 0.44723 0.44887 0.13716 0.0
H1803 H 0.45967 0.41808 0.11911 0.0
H1804 H 0.42575 0.37518 0.03586 0.0
H1805 H 0.40088 0.39637 0.02979 0.0
C1806 C 0.40093 0.43142 0.06765 0.0
C1807 C 0.40261 0.4494 0.08949 0.0
C1808 C 0.41564 0.41949 0.07088 0.0
C1809 C 0.41965 0.45555 0.11438 0.0
C1810 C 0.43442 0.44382 0.11765 0.0
C1811 C 0.44687 0.41335 0.09961 0.0
C1812 C 0.44461 0.39487 0.07813 0.0
C1813 C 0.43246 0.42563 0.09615 0.0
C1814 C 0.42792 0.38917 0.05294 0.0
C1815 C 0.41363 0.40132 0.04936 0.0
H1816 H 0.05593 0.42959 0.53986 0.0
H1817 H 0.06121 0.47284 0.62146 0.0
H1818 H 0.01476 0.45101 0.62478 0.0
H1819 H 0.97251 0.41875 0.60554 0.0
H1820 H 0.96742 0.37569 0.52382 0.0
H1821 H 0.01379 0.39827 0.51982 0.0
C1822 C 0.04702 0.43438 0.55836 0.0
C1823 C 0.06229 0.45286 0.58044 0.0
C1824 C 0.0202 0.42163 0.5603 0.0
C1825 C 0.05013 0.45875 0.6041 0.0
C1826 C 0.02348 0.44619 0.6061 0.0
C1827 C 0.98147 0.41423 0.58683 0.0
C1828 C 0.96625 0.39527 0.56519 0.0
C1829 C 1.0083 0.42742 0.58451 0.0
C1830 C 0.97843 0.38999 0.54099 0.0
C1831 C 1.00505 0.40296 0.53861 0.0
H1832 H 0.57311 0.96901 0.119 0.0
H1833 H 0.59133 0.95917 0.02555 0.0
H1834 H 0.61634 1.0053 0.01901 0.0
H1835 H 0.63319 0.04868 0.03966 0.0
H1836 H 0.61375 0.05827 0.13262 0.0
H1837 H 0.58921 0.01219 0.13926 0.0
C1838 C 0.58258 0.97688 0.09719 0.0
C1839 C 0.58042 0.96043 0.07296 0.0
C1840 C 0.59678 1.00352 0.09338 0.0
C1841 C 0.59269 0.97119 0.04478 0.0
C1842 C 0.60704 0.99766 0.04094 0.0
C1843 C 0.62364 0.04073 0.0614 0.0
C1844 C 0.62546 0.05711 0.08556 0.0
C1845 C 0.60926 0.01404 0.06509 0.0
C1846 C 0.61274 0.04629 0.11351 0.0
C1847 C 0.59867 0.01985 0.1174 0.0
H1848 H 0.60482 0.56119 0.61775 0.0
H1849 H 0.63733 0.58859 0.52748 0.0
H1850 H 0.61541 0.61297 0.52406 0.0
H1851 H 0.58772 0.62736 0.54675 0.0
H1852 H 0.55521 0.60035 0.63706 0.0
H1853 H 0.57633 0.57506 0.64014 0.0
C1854 C 0.60707 0.5724 0.59726 0.0
C1855 C 0.62287 0.57299 0.573 0.0
C1856 C 0.59442 0.58658 0.59537 0.0
C1857 C 0.62544 0.58772 0.54665 0.0
C1858 C 0.61288 0.60174 0.54461 0.0
C1859 C 0.58518 0.61595 0.56715 0.0
C1860 C 0.5699 0.61597 0.59166 0.0
C1861 C 0.59744 0.60145 0.56887 0.0
C1862 C 0.56685 0.60087 0.6178 0.0
C1863 C 0.57896 0.58635 0.61962 0.0
H1864 H 0.97301 0.55675 0.11023 0.0
H1865 H 0.96482 0.59127 0.02701 0.0
H1866 H 1.01103 0.6166 0.02196 0.0
H1867 H 0.05396 0.62975 0.04148 0.0
H1868 H 0.06215 0.59535 0.1248 0.0
H1869 H 0.01595 0.5693 0.1292 0.0
C1870 C 0.98126 0.56976 0.09093 0.0
C1871 C 0.96523 0.57206 0.06918 0.0
C1872 C 1.008 0.58441 0.08809 0.0
C1873 C 0.97649 0.58905 0.04428 0.0
C1874 C 1.00302 0.60361 0.0413 0.0
C1875 C 0.04571 0.61654 0.06059 0.0
C1876 C 0.06173 0.61472 0.08279 0.0
C1877 C 0.01898 0.60157 0.06314 0.0
C1878 C 0.05047 0.59734 0.10733 0.0
C1879 C 0.02396 0.58237 0.10993 0.0
H1880 H 0.46012 0.04145 0.61959 0.0
H1881 H 0.43075 0.05294 0.53403 0.0
H1882 H 0.40519 1.00691 0.52674 0.0
H1883 H 0.39029 0.96311 0.54512 0.0
H1884 H 0.42048 0.95204 0.63034 0.0
H1885 H 0.44645 0.99797 0.637 0.0
C1886 C 0.44819 0.03397 0.59928 0.0
C1887 C 0.44731 0.05087 0.5776 0.0
C1888 C 0.43354 0.00739 0.59508 0.0
C1889 C 0.4318 0.04058 0.55131 0.0
C1890 C 0.41711 0.01417 0.54707 0.0
C1891 C 0.40257 0.9707 0.56513 0.0
C1892 C 0.40321 0.9539 0.58718 0.0
C1893 C 0.41768 0.99735 0.5689 0.0
C1894 C 0.41944 0.9643 0.61288 0.0
C1895 C 0.43436 0.99067 0.6168 0.0
H1896 H 0.5924 0.63285 0.95771 0.0
H1897 H 0.5521 0.59842 0.87316 0.0
H1898 H 0.57392 0.57395 0.86924 0.0
H1899 H 0.60446 0.56217 0.88946 0.0
H1900 H 0.64451 0.5961 0.97427 0.0
H1901 H 0.62277 0.62071 0.97824 0.0
C1902 C 0.58835 0.62002 0.9384 0.0
C1903 C 0.57055 0.61764 0.9158 0.0
C1904 C 0.60097 0.60582 0.93622 0.0
C1905 C 0.56562 0.60076 0.891 0.0
C1906 C 0.57814 0.5867 0.88867 0.0
C1907 C 0.60855 0.57498 0.90881 0.0
C1908 C 0.62633 0.57728 0.93138 0.0
C1909 C 0.59587 0.58908 0.9111 0.0
C1910 C 0.63107 0.5939 0.95639 0.0
C1911 C 0.6186 0.60804 0.95874 0.0
H1912 H 0.97075 0.58754 0.4603 0.0
H1913 H 0.96305 0.56227 0.36578 0.0
H1914 H 1.00932 0.58394 0.36057 0.0
H1915 H 0.05203 0.61032 0.38241 0.0
H1916 H 0.06003 0.63435 0.47745 0.0
H1917 H 0.01371 0.61297 0.4827 0.0
C1918 C 0.97915 0.58675 0.43854 0.0
C1919 C 0.96325 0.57328 0.41347 0.0
C1920 C 1.00591 0.59912 0.43569 0.0
C1921 C 0.97465 0.5724 0.38554 0.0
C1922 C 1.00118 0.58485 0.38248 0.0
C1923 C 0.04372 0.611 0.4043 0.0
C1924 C 0.0597 0.62429 0.42937 0.0
C1925 C 0.01701 0.59833 0.40734 0.0
C1926 C 0.04838 0.62453 0.45763 0.0
C1927 C 0.02181 0.61224 0.4607 0.0
H1928 H 0.45394 0.04608 0.89151 0.0
H1929 H 0.42197 0.04957 0.97921 0.0
H1930 H 0.39878 1.00309 0.98225 0.0
H1931 H 0.38705 0.96132 0.95983 0.0
H1932 H 0.41904 0.95809 0.87201 0.0
H1933 H 0.44272 1.0045 0.8695 0.0
C1934 C 0.44191 0.03676 0.91134 0.0
C1935 C 0.43971 0.05152 0.935 0.0
C1936 C 0.42857 0.00996 0.91302 0.0
C1937 C 0.42405 0.03888 0.96053 0.0
C1938 C 0.41075 0.01222 0.96234 0.0
C1939 C 0.39921 0.97069 0.94012 0.0
C1940 C 0.40105 0.95599 0.9161 0.0
C1941 C 0.41279 0.99754 0.93867 0.0
C1942 C 0.41707 0.96871 0.89085 0.0
C1943 C 0.43067 0.99534 0.88934 0.0
H1944 H 0.38565 0.42304 0.46551 0.0
H1945 H 0.41447 0.45818 0.37675 0.0
H1946 H 0.43866 0.43612 0.3723 0.0
H1947 H 0.45173 0.40672 0.39316 0.0
H1948 H 0.42278 0.37119 0.48169 0.0
H1949 H 0.39873 0.39347 0.48642 0.0
C1950 C 0.39719 0.4259 0.44517 0.0
C1951 C 0.39797 0.44225 0.42147 0.0
C1952 C 0.41113 0.41302 0.44259 0.0
C1953 C 0.4132 0.44564 0.39534 0.0
C1954 C 0.42716 0.43304 0.39273 0.0
C1955 C 0.44016 0.40377 0.41352 0.0
C1956 C 0.43916 0.38715 0.43695 0.0
C1957 C 0.42624 0.41663 0.41615 0.0
C1958 C 0.424 0.38374 0.46315 0.0
C1959 C 0.41019 0.39653 0.46595 0.0
H1960 H 0.05324 0.42262 0.95344 0.0
H1961 H 0.06309 0.46835 0.87252 0.0
H1962 H 0.01705 0.44822 0.86676 0.0
H1963 H 0.97383 0.41733 0.88397 0.0
H1964 H 0.96365 0.37144 0.96479 0.0
H1965 H 1.00978 0.39196 0.97111 0.0
C1966 C 0.04537 0.42822 0.93454 0.0
C1967 C 0.06183 0.44699 0.91344 0.0
C1968 C 0.01868 0.41651 0.93122 0.0
C1969 C 0.05108 0.45396 0.88915 0.0
C1970 C 0.02465 0.44245 0.88578 0.0
C1971 C 0.98162 0.41178 0.90302 0.0
C1972 C 0.96508 0.39271 0.92374 0.0
C1973 C 1.00825 0.42364 0.90658 0.0
C1974 C 0.97575 0.38594 0.94833 0.0
C1975 C 1.00221 0.3977 0.95201 0.0
H1976 H 0.59035 0.97016 0.46154 0.0
H1977 H 0.55327 0.95746 0.373 0.0
H1978 H 0.57245 1.0034 0.36564 0.0
H1979 H 0.60082 0.04737 0.38353 0.0
H1980 H 0.63773 0.05974 0.47219 0.0
H1981 H 0.61751 0.01388 0.48009 0.0
C1982 C 0.58635 0.97735 0.44063 0.0
C1983 C 0.57039 0.96017 0.41784 0.0
C1984 C 0.5975 1.00386 0.43644 0.0
C1985 C 0.56544 0.97007 0.391 0.0
C1986 C 0.57646 0.99642 0.38671 0.0
C1987 C 0.60441 0.04009 0.40465 0.0
C1988 C 0.62102 0.05723 0.42707 0.0
C1989 C 0.59269 0.01352 0.40916 0.0
C1990 C 0.62523 0.04723 0.45435 0.0
C1991 C 0.61364 0.0209 0.45896 0.0
H1992 H 0.45631 0.58761 0.94187 0.0
H1993 H 0.49998 0.63073 0.02093 0.0
H1994 H 0.46719 0.59955 0.05527 0.0
H1995 H 0.42709 0.5593 0.06285 0.0
H1996 H 0.38408 0.51586 0.98358 0.0
H1997 H 0.41571 0.5482 0.94939 0.0
C1998 C 0.4587 0.59038 0.9666 0.0
C1999 C 0.48073 0.61157 0.9787 0.0
C2000 C 0.43989 0.57231 0.98622 0.0
C2001 C 0.48331 0.61466 0.01088 0.0
C2002 C 0.46455 0.59681 0.03057 0.0
C2003 C 0.42445 0.55691 0.0381 0.0
C2004 C 0.40312 0.53503 0.02592 0.0
C2005 C 0.44289 0.57544 0.01849 0.0
C2006 C 0.40019 0.53242 0.99372 0.0
C2007 C 0.41834 0.5509 0.97409 0.0
H2008 H 0.8839 0.42983 0.55584 0.0
H2009 H 0.87805 0.38721 0.47336 0.0
H2010 H 0.87588 0.4196 0.44208 0.0
H2011 H 0.87729 0.46049 0.43795 0.0
H2012 H 0.88314 0.50334 0.52018 0.0
H2013 H 0.88347 0.47004 0.55181 0.0
C2014 C 0.88198 0.42744 0.53104 0.0
C2015 C 0.8812 0.406 0.51705 0.0
C2016 C 0.88076 0.44615 0.51315 0.0
C2017 C 0.8787 0.40341 0.48484 0.0
C2018 C 0.87749 0.42196 0.4669 0.0
C2019 C 0.87844 0.46259 0.4628 0.0
C2020 C 0.88023 0.48454 0.47658 0.0
C2021 C 0.87873 0.44348 0.4808 0.0
C2022 C 0.88169 0.48671 0.50888 0.0
C2023 C 0.88196 0.4677 0.52699 0.0
H2024 H 0.40316 0.88033 0.00915 0.0
H2025 H 0.42367 0.85923 0.92328 0.0
H2026 H 0.45922 0.85843 0.94826 0.0
H2027 H 0.48602 0.86572 0.99388 0.0
H2028 H 0.46675 0.8889 0.07919 0.0
H2029 H 0.42951 0.88684 0.05507 0.0
C2030 C 0.41519 0.87524 0.99598 0.0
C2031 C 0.41054 0.86976 0.96435 0.0
C2032 C 0.43611 0.87536 0.01035 0.0
C2033 C 0.42663 0.8635 0.94764 0.0
C2034 C 0.44711 0.86311 0.9619 0.0
C2035 C 0.47361 0.87016 0.00729 0.0
C2036 C 0.47931 0.87735 0.03839 0.0
C2037 C 0.45227 0.86933 0.99315 0.0
C2038 C 0.46296 0.8832 0.05524 0.0
C2039 C 0.44157 0.88207 0.04146 0.0
H2040 H 0.55734 0.42211 0.4462 0.0
H2041 H 0.51893 0.38183 0.52933 0.0
H2042 H 0.55308 0.41506 0.56036 0.0
H2043 H 0.59272 0.45625 0.56385 0.0
H2044 H 0.63135 0.49606 0.48057 0.0
H2045 H 0.59811 0.46196 0.4496 0.0
C2046 C 0.55643 0.42035 0.47109 0.0
C2047 C 0.53545 0.39939 0.48532 0.0
C2048 C 0.57613 0.43945 0.48877 0.0
C2049 C 0.53479 0.39765 0.51767 0.0
C2050 C 0.5543 0.4167 0.53545 0.0
C2051 C 0.59408 0.45747 0.53893 0.0
C2052 C 0.61459 0.47885 0.52464 0.0
C2053 C 0.57492 0.43779 0.52124 0.0
C2054 C 0.61589 0.4799 0.49227 0.0
C2055 C 0.59683 0.46042 0.47452 0.0
H2056 H 0.14743 0.55944 0.94052 0.0
H2057 H 0.14455 0.51561 0.02063 0.0
H2058 H 0.14638 0.54886 0.05419 0.0
H2059 H 0.14695 0.58939 0.06078 0.0
H2060 H 0.1487 0.63253 0.98046 0.0
H2061 H 0.14938 0.60049 0.94708 0.0
C2062 C 0.14734 0.55711 0.96532 0.0
C2063 C 0.14578 0.5349 0.97793 0.0
C2064 C 0.14819 0.57619 0.9845 0.0
C2065 C 0.14571 0.53241 0.01018 0.0
C2066 C 0.14674 0.55144 0.02943 0.0
C2067 C 0.14768 0.59197 0.03598 0.0
C2068 C 0.14775 0.61346 0.02326 0.0
C2069 C 0.14772 0.57328 0.01683 0.0
C2070 C 0.14868 0.6163 0.99101 0.0
C2071 C 0.14899 0.59791 0.97185 0.0
H2072 H 0.53373 0.14424 0.49779 0.0
H2073 H 0.56595 0.13722 0.58358 0.0
H2074 H 0.60279 0.14112 0.55643 0.0
H2075 H 0.62475 0.1434 0.50797 0.0
H2076 H 0.59131 0.1478 0.42193 0.0
H2077 H 0.55663 0.14834 0.44946 0.0
C2078 C 0.54893 0.14386 0.5106 0.0
C2079 C 0.54689 0.14046 0.54274 0.0
C2080 C 0.57003 0.14557 0.49475 0.0
C2081 C 0.56683 0.13986 0.55885 0.0
C2082 C 0.58801 0.14203 0.54333 0.0
C2083 C 0.6101 0.14486 0.49526 0.0
C2084 C 0.61079 0.14556 0.46288 0.0
C2085 C 0.58966 0.14448 0.51122 0.0
C2086 C 0.59142 0.14723 0.44684 0.0
C2087 C 0.57142 0.14746 0.46257 0.0
H2088 H 0.56222 0.42606 0.0643 0.0
H2089 H 0.51808 0.3847 0.98472 0.0
H2090 H 0.5501 0.41747 0.95087 0.0
H2091 H 0.58961 0.45881 0.9442 0.0
H2092 H 0.63382 0.4991 0.02435 0.0
H2093 H 0.60255 0.46562 0.05766 0.0
C2094 C 0.55959 0.42393 0.03956 0.0
C2095 C 0.53764 0.40284 0.02717 0.0
C2096 C 0.57801 0.44276 0.02032 0.0
C2097 C 0.53477 0.40061 0.99496 0.0
C2098 C 0.55303 0.41943 0.97559 0.0
C2099 C 0.59256 0.46024 0.96893 0.0
C2100 C 0.61414 0.4816 0.98164 0.0
C2101 C 0.57458 0.44074 0.98806 0.0
C2102 C 0.61751 0.48297 0.0138 0.0
C2103 C 0.5996 0.46382 0.03293 0.0
H2104 H 0.16878 0.62414 0.49469 0.0
H2105 H 0.11321 0.57522 0.42748 0.0
H2106 H 0.11385 0.5383 0.44883 0.0
H2107 H 0.12768 0.51917 0.48939 0.0
H2108 H 0.18333 0.56831 0.55615 0.0
H2109 H 0.18553 0.60568 0.53193 0.0
C2110 C 0.15686 0.60542 0.48467 0.0
C2111 C 0.14076 0.60251 0.45979 0.0
C2112 C 0.15742 0.58419 0.49689 0.0
C2113 C 0.12572 0.5781 0.44678 0.0
C2114 C 0.12607 0.55689 0.45894 0.0
C2115 C 0.14077 0.53813 0.49804 0.0
C2116 C 0.15516 0.54098 0.52465 0.0
C2117 C 0.1416 0.55962 0.48427 0.0
C2118 C 0.17183 0.56563 0.53589 0.0
C2119 C 0.17304 0.58702 0.52212 0.0
H2120 H 0.59444 0.1418 0.06183 0.0
H2121 H 0.6298 0.13391 0.97919 0.0
H2122 H 0.59583 0.13311 0.94806 0.0
H2123 H 0.55548 0.13311 0.94439 0.0
H2124 H 0.51999 0.14089 0.02696 0.0
H2125 H 0.55481 0.14331 0.05796 0.0
C2126 C 0.59489 0.14006 0.03699 0.0
C2127 C 0.61476 0.13788 0.02297 0.0
C2128 C 0.57524 0.13951 0.01918 0.0
C2129 C 0.61486 0.13566 0.9907 0.0
C2130 C 0.59538 0.13514 0.97284 0.0
C2131 C 0.55533 0.13549 0.96914 0.0
C2132 C 0.53501 0.1368 0.98322 0.0
C2133 C 0.57538 0.13682 0.98686 0.0
C2134 C 0.53532 0.13988 0.01539 0.0
C2135 C 0.55523 0.14121 0.03318 0.0
H2136 H 0.49174 0.61754 0.49677 0.0
H2137 H 0.45409 0.59363 0.58514 0.0
H2138 H 0.41786 0.55739 0.56117 0.0
H2139 H 0.3974 0.53106 0.51563 0.0
H2140 H 0.43516 0.55456 0.42728 0.0
H2141 H 0.47049 0.59204 0.4508 0.0
C2142 C 0.4755 0.60461 0.51075 0.0
C2143 C 0.47582 0.60849 0.54275 0.0
C2144 C 0.45466 0.58342 0.49689 0.0
C2145 C 0.45454 0.59131 0.56045 0.0
C2146 C 0.43373 0.57041 0.54679 0.0
C2147 C 0.4133 0.54439 0.50147 0.0
C2148 C 0.41351 0.53978 0.46974 0.0
C2149 C 0.43372 0.56605 0.51511 0.0
C2150 C 0.43434 0.55744 0.4518 0.0
C2151 C 0.45466 0.57899 0.46521 0.0
H2152 H 0.87825 0.42524 0.93489 0.0
H2153 H 0.87802 0.38161 0.01387 0.0
H2154 H 0.87688 0.41305 0.0482 0.0
H2155 H 0.87844 0.45393 0.05562 0.0
H2156 H 0.87813 0.49719 0.9765 0.0
H2157 H 0.87685 0.46454 0.94227 0.0
C2158 C 0.87769 0.42234 0.95958 0.0
C2159 C 0.87833 0.40102 0.97169 0.0
C2160 C 0.87704 0.44045 0.97914 0.0
C2161 C 0.87752 0.39774 0.00384 0.0
C2162 C 0.87695 0.41578 0.02349 0.0
C2163 C 0.87783 0.4562 0.03091 0.0
C2164 C 0.87848 0.47816 0.01873 0.0
C2165 C 0.87708 0.43737 0.01137 0.0
C2166 C 0.87763 0.48057 0.98659 0.0
C2167 C 0.87697 0.46192 0.96698 0.0
H2168 H 0.46223 0.87317 0.44278 0.0
H2169 H 0.50168 0.8702 0.52435 0.0
H2170 H 0.46681 0.8662 0.55649 0.0
H2171 H 0.42657 0.86586 0.56178 0.0
H2172 H 0.38771 0.87082 0.48079 0.0
H2173 H 0.42092 0.87142 0.44808 0.0
C2174 C 0.46318 0.87146 0.46757 0.0
C2175 C 0.48472 0.87212 0.48106 0.0
C2176 C 0.44321 0.86954 0.48604 0.0
C2177 C 0.48549 0.86988 0.51327 0.0
C2178 C 0.46553 0.86758 0.53171 0.0
C2179 C 0.42512 0.86688 0.53696 0.0
C2180 C 0.4046 0.86839 0.52386 0.0
C2181 C 0.4445 0.86774 0.51837 0.0
C2182 C 0.40322 0.86964 0.49159 0.0
C2183 C 0.42228 0.87007 0.47285 0.0
loop_
_geom_bond_atom_site_label_1
_geom_bond_atom_site_label_2
_geom_bond_distance
_geom_bond_site_symmetry_2
_ccdc_geom_bond_type
Co0 O2 2.143 . S
Co0 O8 2.074 . S
Co0 O11 2.093 . S
Co0 O24 2.097 . S
Co0 N41 2.151 . S
Co0 N49 2.214 . S
Co1 O2 2.160 . S
Co1 O7 2.058 . S
Co1 O17 2.057 . S
Co1 O32 2.037 . S
Co1 N36 2.144 . S
Co1 N57 2.257 . S
O2 Co0 2.143 . S
O2 Co1 2.160 . S
C3 O4 1.278 . S
C3 O11 1.224 . S
O4 C3 1.278 . S
C5 O6 1.245 . S
C5 O17 1.232 . S
O6 C5 1.245 . S
O7 Co1 2.058 . S
O7 C33 1.269 . S
O8 Co0 2.074 . S
O8 C33 1.257 . S
H9 C34 0.930 . S
H10 C40 0.930 . S
O11 Co0 2.093 . S
O11 C3 1.224 . S
H12 C44 0.929 . S
H13 C46 0.930 . S
H14 C47 0.930 . S
H15 C45 0.929 . S
H16 C48 0.928 . S
O17 Co1 2.057 . S
O17 C5 1.232 . S
H18 C37 0.929 . S
H19 C38 0.929 . S
H20 C50 0.931 . S
H21 C42 0.929 . S
H22 C51 0.930 . S
H23 C43 0.931 . S
O24 Co0 2.097 . S
O24 C52 1.214 . S
H25 C53 0.929 . S
H26 C54 0.929 . S
H27 C55 0.930 . S
H28 C56 0.929 . S
H29 C58 0.930 . S
H30 C35 0.930 . S
H31 C39 0.930 . S
O32 Co1 2.037 . S
O32 C52 1.234 . S
C33 O7 1.269 . S
C33 O8 1.257 . S
C34 H9 0.930 . S
C34 C37 1.388 . S
C34 C39 1.418 . S
C35 H30 0.930 . S
C35 C38 1.404 . S
C35 C39 1.353 . S
N36 Co1 2.144 . S
N36 C37 1.397 1_554 S
N36 C38 1.334 1_554 S
C37 H18 0.929 . S
C37 C34 1.388 . S
C37 N36 1.397 1_556 S
C38 H19 0.929 . S
C38 C35 1.404 . S
C38 N36 1.334 1_556 S
C39 H31 0.930 . S
C39 C34 1.418 . S
C39 C35 1.353 . S
C40 H10 0.930 . S
C40 N41 1.330 . S
C40 C42 1.446 . S
N41 Co0 2.151 . S
N41 C40 1.330 . S
N41 C45 1.418 . S
C42 H21 0.929 . S
C42 C40 1.446 . S
C42 C43 1.332 . S
C43 H23 0.931 . S
C43 C42 1.332 . S
C43 C44 1.267 . S
C44 H12 0.929 . S
C44 C43 1.267 . S
C44 C45 1.251 . S
C45 H15 0.929 . S
C45 N41 1.418 . S
C45 C44 1.251 . S
C46 H13 0.930 . S
C46 C48 1.406 . S
C46 C51 1.261 . S
C47 H14 0.930 . S
C47 N49 1.325 . S
C47 C50 1.357 . S
C48 H16 0.928 . S
C48 C46 1.406 . S
C48 N49 1.261 . S
N49 Co0 2.214 . S
N49 C47 1.325 . S
N49 C48 1.261 . S
C50 H20 0.931 . S
C50 C47 1.357 . S
C50 C51 1.312 . S
C51 H22 0.930 . S
C51 C46 1.261 . S
C51 C50 1.312 . S
C52 O24 1.214 . S
C52 O32 1.234 . S
C53 H25 0.929 . S
C53 C56 1.391 . S
C53 C58 1.391 . S
C54 H26 0.929 . S
C54 C55 1.390 . S
C54 N57 1.391 . S
C55 H27 0.930 . S
C55 C54 1.390 . S
C55 C56 1.392 . S
C56 H28 0.929 . S
C56 C53 1.391 . S
C56 C55 1.392 . S
N57 Co1 2.257 . S
N57 C54 1.391 . S
N57 C58 1.388 . S
C58 H29 0.930 . S
C58 C53 1.391 . S
C58 N57 1.388 . S
Co59 O61 2.143 . S
Co59 O67 2.074 . S
Co59 O70 2.093 . S
Co59 O83 2.097 . S
Co59 N100 2.151 . S
Co59 N108 2.214 . S
Co60 O61 2.160 . S
Co60 O66 2.058 . S
Co60 O76 2.057 . S
Co60 O91 2.037 . S
Co60 N95 2.145 . S
Co60 N116 2.257 . S
O61 Co59 2.143 . S
O61 Co60 2.160 . S
C62 O63 1.278 . S
C62 O70 1.224 . S
O63 C62 1.278 . S
C64 O65 1.245 . S
C64 O76 1.232 . S
O65 C64 1.245 . S
O66 Co60 2.058 . S
O66 C92 1.269 . S
O67 Co59 2.074 . S
O67 C92 1.257 . S
H68 C93 0.930 . S
H69 C99 0.930 . S
O70 Co59 2.093 . S
O70 C62 1.224 . S
H71 C103 0.929 . S
H72 C105 0.930 . S
H73 C106 0.930 . S
H74 C104 0.929 . S
H75 C107 0.928 . S
O76 Co60 2.057 . S
O76 C64 1.232 . S
H77 C96 0.929 . S
H78 C97 0.929 . S
H79 C109 0.931 . S
H80 C101 0.929 . S
H81 C110 0.930 . S
H82 C102 0.931 . S
O83 Co59 2.097 . S
O83 C111 1.214 . S
H84 C112 0.929 . S
H85 C113 0.929 . S
H86 C114 0.930 . S
H87 C115 0.929 . S
H88 C117 0.930 . S
H89 C94 0.930 . S
H90 C98 0.930 . S
O91 Co60 2.037 . S
O91 C111 1.234 . S
C92 O66 1.269 . S
C92 O67 1.257 . S
C93 H68 0.930 . S
C93 C96 1.388 . S
C93 C98 1.418 . S
C94 H89 0.930 . S
C94 C97 1.404 . S
C94 C98 1.353 . S
N95 Co60 2.145 . S
N95 C96 1.397 . S
N95 C97 1.334 . S
C96 H77 0.929 . S
C96 C93 1.388 . S
C96 N95 1.397 . S
C97 H78 0.929 . S
C97 C94 1.404 . S
C97 N95 1.334 . S
C98 H90 0.930 . S
C98 C93 1.418 . S
C98 C94 1.353 . S
C99 H69 0.930 . S
C99 N100 1.330 . S
C99 C101 1.446 . S
N100 Co59 2.151 . S
N100 C99 1.330 . S
N100 C104 1.418 . S
C101 H80 0.929 . S
C101 C99 1.446 . S
C101 C102 1.332 . S
C102 H82 0.931 . S
C102 C101 1.332 . S
C102 C103 1.267 . S
C103 H71 0.929 . S
C103 C102 1.267 . S
C103 C104 1.251 . S
C104 H74 0.929 . S
C104 N100 1.418 . S
C104 C103 1.251 . S
C105 H72 0.930 . S
C105 C107 1.406 . S
C105 C110 1.261 . S
C106 H73 0.930 . S
C106 N108 1.325 . S
C106 C109 1.357 . S
C107 H75 0.928 . S
C107 C105 1.406 . S
C107 N108 1.261 . S
N108 Co59 2.214 . S
N108 C106 1.325 . S
N108 C107 1.261 . S
C109 H79 0.931 . S
C109 C106 1.357 . S
C109 C110 1.312 . S
C110 H81 0.930 . S
C110 C105 1.261 . S
C110 C109 1.312 . S
C111 O83 1.214 . S
C111 O91 1.234 . S
C112 H84 0.929 . S
C112 C115 1.391 . S
C112 C117 1.391 . S
C113 H85 0.929 . S
C113 C114 1.390 . S
C113 N116 1.391 . S
C114 H86 0.930 . S
C114 C113 1.390 . S
C114 C115 1.392 . S
C115 H87 0.929 . S
C115 C112 1.391 . S
C115 C114 1.392 . S
N116 Co60 2.257 . S
N116 C113 1.391 . S
N116 C117 1.388 . S
C117 H88 0.930 . S
C117 C112 1.391 . S
C117 N116 1.388 . S
Co118 O120 2.143 . S
Co118 O126 2.074 . S
Co118 O129 2.093 . S
Co118 O142 2.097 . S
Co118 N159 2.151 . S
Co118 N167 2.214 . S
Co119 O120 2.160 . S
Co119 O125 2.058 . S
Co119 O135 2.057 . S
Co119 O150 2.037 . S
Co119 N154 2.144 . S
Co119 N175 2.257 . S
O120 Co118 2.143 . S
O120 Co119 2.160 . S
C121 O122 1.278 . S
C121 O129 1.224 . S
O122 C121 1.278 . S
C123 O124 1.245 . S
C123 O135 1.232 . S
O124 C123 1.245 . S
O125 Co119 2.058 . S
O125 C151 1.269 . S
O126 Co118 2.074 . S
O126 C151 1.257 . S
H127 C152 0.930 . S
H128 C158 0.930 . S
O129 Co118 2.093 . S
O129 C121 1.224 . S
H130 C162 0.929 . S
H131 C164 0.930 . S
H132 C165 0.930 . S
H133 C163 0.929 . S
H134 C166 0.928 . S
O135 Co119 2.057 . S
O135 C123 1.232 . S
H136 C155 0.929 . S
H137 C156 0.929 . S
H138 C168 0.931 . S
H139 C160 0.929 . S
H140 C169 0.930 . S
H141 C161 0.931 . S
O142 Co118 2.097 . S
O142 C170 1.214 . S
H143 C171 0.929 . S
H144 C172 0.929 . S
H145 C173 0.930 . S
H146 C174 0.929 . S
H147 C176 0.930 . S
H148 C153 0.930 . S
H149 C157 0.930 . S
O150 Co119 2.037 . S
O150 C170 1.234 . S
C151 O125 1.269 . S
C151 O126 1.257 . S
C152 H127 0.930 . S
C152 C155 1.388 . S
C152 C157 1.418 . S
C153 H148 0.930 . S
C153 C156 1.404 . S
C153 C157 1.353 . S
N154 Co119 2.144 . S
N154 C155 1.397 1_554 S
N154 C156 1.334 1_554 S
C155 H136 0.929 . S
C155 C152 1.388 . S
C155 N154 1.397 1_556 S
C156 H137 0.929 . S
C156 C153 1.404 . S
C156 N154 1.334 1_556 S
C157 H149 0.930 . S
C157 C152 1.418 . S
C157 C153 1.353 . S
C158 H128 0.930 . S
C158 N159 1.330 . S
C158 C160 1.446 . S
N159 Co118 2.151 . S
N159 C158 1.330 . S
N159 C163 1.418 . S
C160 H139 0.929 . S
C160 C158 1.446 . S
C160 C161 1.332 . S
C161 H141 0.931 . S
C161 C160 1.332 . S
C161 C162 1.267 . S
C162 H130 0.929 . S
C162 C161 1.267 . S
C162 C163 1.251 . S
C163 H133 0.929 . S
C163 N159 1.418 . S
C163 C162 1.251 . S
C164 H131 0.930 . S
C164 C166 1.406 . S
C164 C169 1.261 . S
C165 H132 0.930 . S
C165 N167 1.325 . S
C165 C168 1.357 . S
C166 H134 0.928 . S
C166 C164 1.406 . S
C166 N167 1.261 . S
N167 Co118 2.214 . S
N167 C165 1.325 . S
N167 C166 1.261 . S
C168 H138 0.931 . S
C168 C165 1.357 . S
C168 C169 1.312 . S
C169 H140 0.930 . S
C169 C164 1.261 . S
C169 C168 1.312 . S
C170 O142 1.214 . S
C170 O150 1.234 . S
C171 H143 0.929 . S
C171 C174 1.391 . S
C171 C176 1.391 . S
C172 H144 0.929 . S
C172 C173 1.390 . S
C172 N175 1.391 . S
C173 H145 0.930 . S
C173 C172 1.390 . S
C173 C174 1.392 . S
C174 H146 0.929 . S
C174 C171 1.391 . S
C174 C173 1.392 . S
N175 Co119 2.257 . S
N175 C172 1.391 . S
N175 C176 1.388 . S
C176 H147 0.930 . S
C176 C171 1.391 . S
C176 N175 1.388 . S
Co177 O179 2.143 . S
Co177 O185 2.074 . S
Co177 O188 2.093 . S
Co177 O201 2.097 . S
Co177 N218 2.151 . S
Co177 N226 2.214 . S
Co178 O179 2.160 . S
Co178 O184 2.058 . S
Co178 O194 2.057 . S
Co178 O209 2.037 . S
Co178 N213 2.145 . S
Co178 N234 2.257 . S
O179 Co177 2.143 . S
O179 Co178 2.160 . S
C180 O181 1.278 . S
C180 O188 1.224 . S
O181 C180 1.278 . S
C182 O183 1.245 . S
C182 O194 1.232 . S
O183 C182 1.245 . S
O184 Co178 2.058 . S
O184 C210 1.269 . S
O185 Co177 2.074 . S
O185 C210 1.257 . S
H186 C211 0.930 . S
H187 C217 0.930 . S
O188 Co177 2.093 . S
O188 C180 1.224 . S
H189 C221 0.929 . S
H190 C223 0.930 . S
H191 C224 0.930 . S
H192 C222 0.929 . S
H193 C225 0.928 . S
O194 Co178 2.057 . S
O194 C182 1.232 . S
H195 C214 0.929 . S
H196 C215 0.929 . S
H197 C227 0.931 . S
H198 C219 0.929 . S
H199 C228 0.930 . S
H200 C220 0.931 . S
O201 Co177 2.097 . S
O201 C229 1.214 . S
H202 C230 0.929 . S
H203 C231 0.929 . S
H204 C232 0.930 . S
H205 C233 0.929 . S
H206 C235 0.930 . S
H207 C212 0.930 . S
H208 C216 0.930 . S
O209 Co178 2.037 . S
O209 C229 1.234 . S
C210 O184 1.269 . S
C210 O185 1.257 . S
C211 H186 0.930 . S
C211 C214 1.388 . S
C211 C216 1.418 . S
C212 H207 0.930 . S
C212 C215 1.404 . S
C212 C216 1.353 . S
N213 Co178 2.145 . S
N213 C214 1.397 . S
N213 C215 1.334 . S
C214 H195 0.929 . S
C214 C211 1.388 . S
C214 N213 1.397 . S
C215 H196 0.929 . S
C215 C212 1.404 . S
C215 N213 1.334 . S
C216 H208 0.930 . S
C216 C211 1.418 . S
C216 C212 1.353 . S
C217 H187 0.930 . S
C217 N218 1.330 . S
C217 C219 1.446 . S
N218 Co177 2.151 . S
N218 C217 1.330 . S
N218 C222 1.418 . S
C219 H198 0.929 . S
C219 C217 1.446 . S
C219 C220 1.332 . S
C220 H200 0.931 . S
C220 C219 1.332 . S
C220 C221 1.267 . S
C221 H189 0.929 . S
C221 C220 1.267 . S
C221 C222 1.251 . S
C222 H192 0.929 . S
C222 N218 1.418 . S
C222 C221 1.251 . S
C223 H190 0.930 . S
C223 C225 1.406 . S
C223 C228 1.261 . S
C224 H191 0.930 . S
C224 N226 1.325 . S
C224 C227 1.357 . S
C225 H193 0.928 . S
C225 C223 1.406 . S
C225 N226 1.261 . S
N226 Co177 2.214 . S
N226 C224 1.325 . S
N226 C225 1.261 . S
C227 H197 0.931 . S
C227 C224 1.357 . S
C227 C228 1.312 . S
C228 H199 0.930 . S
C228 C223 1.261 . S
C228 C227 1.312 . S
C229 O201 1.214 . S
C229 O209 1.234 . S
C230 H202 0.929 . S
C230 C233 1.391 . S
C230 C235 1.391 . S
C231 H203 0.929 . S
C231 C232 1.390 . S
C231 N234 1.391 . S
C232 H204 0.930 . S
C232 C231 1.390 . S
C232 C233 1.392 . S
C233 H205 0.929 . S
C233 C230 1.391 . S
C233 C232 1.392 . S
N234 Co178 2.257 . S
N234 C231 1.391 . S
N234 C235 1.388 . S
C235 H206 0.930 . S
C235 C230 1.391 . S
C235 N234 1.388 . S
Co236 O238 2.143 . S
Co236 O244 2.074 . S
Co236 O247 2.093 . S
Co236 O260 2.097 . S
Co236 N277 2.151 . S
Co236 N285 2.214 . S
Co237 O238 2.160 . S
Co237 O243 2.058 . S
Co237 O253 2.057 . S
Co237 O268 2.037 . S
Co237 N272 2.144 . S
Co237 N293 2.257 . S
O238 Co236 2.143 . S
O238 Co237 2.160 . S
C239 O240 1.278 . S
C239 O247 1.224 . S
O240 C239 1.278 . S
C241 O242 1.245 . S
C241 O253 1.232 . S
O242 C241 1.245 . S
O243 Co237 2.058 . S
O243 C269 1.269 . S
O244 Co236 2.074 . S
O244 C269 1.257 . S
H245 C270 0.930 . S
H246 C276 0.930 . S
O247 Co236 2.093 . S
O247 C239 1.224 . S
H248 C280 0.929 . S
H249 C282 0.930 . S
H250 C283 0.930 . S
H251 C281 0.929 . S
H252 C284 0.928 . S
O253 Co237 2.057 . S
O253 C241 1.232 . S
H254 C273 0.929 . S
H255 C274 0.929 . S
H256 C286 0.931 . S
H257 C278 0.929 . S
H258 C287 0.930 . S
H259 C279 0.931 . S
O260 Co236 2.097 . S
O260 C288 1.214 . S
H261 C289 0.929 . S
H262 C290 0.929 . S
H263 C291 0.930 . S
H264 C292 0.929 . S
H265 C294 0.930 . S
H266 C271 0.930 . S
H267 C275 0.930 . S
O268 Co237 2.037 . S
O268 C288 1.234 . S
C269 O243 1.269 . S
C269 O244 1.257 . S
C270 H245 0.930 . S
C270 C273 1.388 . S
C270 C275 1.418 . S
C271 H266 0.930 . S
C271 C274 1.404 . S
C271 C275 1.353 . S
N272 Co237 2.144 . S
N272 C273 1.397 1_554 S
N272 C274 1.334 1_554 S
C273 H254 0.929 . S
C273 C270 1.388 . S
C273 N272 1.397 1_556 S
C274 H255 0.929 . S
C274 C271 1.404 . S
C274 N272 1.334 1_556 S
C275 H267 0.930 . S
C275 C270 1.418 . S
C275 C271 1.353 . S
C276 H246 0.930 . S
C276 N277 1.330 . S
C276 C278 1.446 . S
N277 Co236 2.151 . S
N277 C276 1.330 . S
N277 C281 1.418 . S
C278 H257 0.929 . S
C278 C276 1.446 . S
C278 C279 1.332 . S
C279 H259 0.931 . S
C279 C278 1.332 . S
C279 C280 1.267 . S
C280 H248 0.929 . S
C280 C279 1.267 . S
C280 C281 1.251 . S
C281 H251 0.929 . S
C281 N277 1.418 . S
C281 C280 1.251 . S
C282 H249 0.930 . S
C282 C284 1.406 . S
C282 C287 1.261 . S
C283 H250 0.930 . S
C283 N285 1.325 . S
C283 C286 1.357 . S
C284 H252 0.928 . S
C284 C282 1.406 . S
C284 N285 1.261 . S
N285 Co236 2.214 . S
N285 C283 1.325 . S
N285 C284 1.261 . S
C286 H256 0.931 . S
C286 C283 1.357 . S
C286 C287 1.312 . S
C287 H258 0.930 . S
C287 C282 1.261 . S
C287 C286 1.312 . S
C288 O260 1.214 . S
C288 O268 1.234 . S
C289 H261 0.929 . S
C289 C292 1.391 . S
C289 C294 1.391 . S
C290 H262 0.929 . S
C290 C291 1.390 . S
C290 N293 1.391 . S
C291 H263 0.930 . S
C291 C290 1.390 . S
C291 C292 1.392 . S
C292 H264 0.929 . S
C292 C289 1.391 . S
C292 C291 1.392 . S
N293 Co237 2.257 . S
N293 C290 1.391 . S
N293 C294 1.388 . S
C294 H265 0.930 . S
C294 C289 1.391 . S
C294 N293 1.388 . S
Co295 O297 2.143 . S
Co295 O303 2.074 . S
Co295 O306 2.093 . S
Co295 O319 2.097 . S
Co295 N336 2.151 . S
Co295 N344 2.214 . S
Co296 O297 2.160 . S
Co296 O302 2.058 . S
Co296 O312 2.057 . S
Co296 O327 2.037 . S
Co296 N331 2.145 . S
Co296 N352 2.257 . S
O297 Co295 2.143 . S
O297 Co296 2.160 . S
C298 O299 1.278 . S
C298 O306 1.224 . S
O299 C298 1.278 . S
C300 O301 1.245 . S
C300 O312 1.232 . S
O301 C300 1.245 . S
O302 Co296 2.058 . S
O302 C328 1.269 . S
O303 Co295 2.074 . S
O303 C328 1.257 . S
H304 C329 0.930 . S
H305 C335 0.930 . S
O306 Co295 2.093 . S
O306 C298 1.224 . S
H307 C339 0.929 . S
H308 C341 0.930 . S
H309 C342 0.930 . S
H310 C340 0.929 . S
H311 C343 0.928 . S
O312 Co296 2.057 . S
O312 C300 1.232 . S
H313 C332 0.929 . S
H314 C333 0.929 . S
H315 C345 0.931 . S
H316 C337 0.929 . S
H317 C346 0.930 . S
H318 C338 0.931 . S
O319 Co295 2.097 . S
O319 C347 1.214 . S
H320 C348 0.929 . S
H321 C349 0.929 . S
H322 C350 0.930 . S
H323 C351 0.929 . S
H324 C353 0.930 . S
H325 C330 0.930 . S
H326 C334 0.930 . S
O327 Co296 2.037 . S
O327 C347 1.234 . S
C328 O302 1.269 . S
C328 O303 1.257 . S
C329 H304 0.930 . S
C329 C332 1.388 . S
C329 C334 1.418 . S
C330 H325 0.930 . S
C330 C333 1.404 . S
C330 C334 1.353 . S
N331 Co296 2.145 . S
N331 C332 1.397 . S
N331 C333 1.334 . S
C332 H313 0.929 . S
C332 C329 1.388 . S
C332 N331 1.397 . S
C333 H314 0.929 . S
C333 C330 1.404 . S
C333 N331 1.334 . S
C334 H326 0.930 . S
C334 C329 1.418 . S
C334 C330 1.353 . S
C335 H305 0.930 . S
C335 N336 1.330 . S
C335 C337 1.446 . S
N336 Co295 2.151 . S
N336 C335 1.330 . S
N336 C340 1.418 . S
C337 H316 0.929 . S
C337 C335 1.446 . S
C337 C338 1.332 . S
C338 H318 0.931 . S
C338 C337 1.332 . S
C338 C339 1.267 . S
C339 H307 0.929 . S
C339 C338 1.267 . S
C339 C340 1.251 . S
C340 H310 0.929 . S
C340 N336 1.418 . S
C340 C339 1.251 . S
C341 H308 0.930 . S
C341 C343 1.406 . S
C341 C346 1.261 . S
C342 H309 0.930 . S
C342 N344 1.325 . S
C342 C345 1.357 . S
C343 H311 0.928 . S
C343 C341 1.406 . S
C343 N344 1.261 . S
N344 Co295 2.214 . S
N344 C342 1.325 . S
N344 C343 1.261 . S
C345 H315 0.931 . S
C345 C342 1.357 . S
C345 C346 1.312 . S
C346 H317 0.930 . S
C346 C341 1.261 . S
C346 C345 1.312 . S
C347 O319 1.214 . S
C347 O327 1.234 . S
C348 H320 0.929 . S
C348 C351 1.391 . S
C348 C353 1.391 . S
C349 H321 0.929 . S
C349 C350 1.390 . S
C349 N352 1.391 . S
C350 H322 0.930 . S
C350 C349 1.390 . S
C350 C351 1.392 . S
C351 H323 0.929 . S
C351 C348 1.391 . S
C351 C350 1.392 . S
N352 Co296 2.257 . S
N352 C349 1.391 . S
N352 C353 1.388 . S
C353 H324 0.930 . S
C353 C348 1.391 . S
C353 N352 1.388 . S
Co354 O356 2.143 . S
Co354 O362 2.074 . S
Co354 O365 2.093 . S
Co354 O378 2.097 . S
Co354 N395 2.151 . S
Co354 N403 2.214 . S
Co355 O356 2.160 . S
Co355 O361 2.058 . S
Co355 O371 2.057 . S
Co355 O386 2.037 . S
Co355 N390 2.144 . S
Co355 N411 2.257 . S
O356 Co354 2.143 . S
O356 Co355 2.160 . S
C357 O358 1.278 . S
C357 O365 1.224 . S
O358 C357 1.278 . S
C359 O360 1.245 . S
C359 O371 1.232 . S
O360 C359 1.245 . S
O361 Co355 2.058 . S
O361 C387 1.269 . S
O362 Co354 2.074 . S
O362 C387 1.257 . S
H363 C388 0.930 . S
H364 C394 0.930 . S
O365 Co354 2.093 . S
O365 C357 1.224 . S
H366 C398 0.929 . S
H367 C400 0.930 . S
H368 C401 0.930 . S
H369 C399 0.929 . S
H370 C402 0.928 . S
O371 Co355 2.057 . S
O371 C359 1.232 . S
H372 C391 0.929 . S
H373 C392 0.929 . S
H374 C404 0.931 . S
H375 C396 0.929 . S
H376 C405 0.930 . S
H377 C397 0.931 . S
O378 Co354 2.097 . S
O378 C406 1.214 . S
H379 C407 0.929 . S
H380 C408 0.929 . S
H381 C409 0.930 . S
H382 C410 0.929 . S
H383 C412 0.930 . S
H384 C389 0.930 . S
H385 C393 0.930 . S
O386 Co355 2.037 . S
O386 C406 1.234 . S
C387 O361 1.269 . S
C387 O362 1.257 . S
C388 H363 0.930 . S
C388 C391 1.388 . S
C388 C393 1.418 . S
C389 H384 0.930 . S
C389 C392 1.404 . S
C389 C393 1.353 . S
N390 Co355 2.144 . S
N390 C391 1.397 1_556 S
N390 C392 1.334 1_556 S
C391 H372 0.929 . S
C391 C388 1.388 . S
C391 N390 1.397 1_554 S
C392 H373 0.929 . S
C392 C389 1.404 . S
C392 N390 1.334 1_554 S
C393 H385 0.930 . S
C393 C388 1.418 . S
C393 C389 1.353 . S
C394 H364 0.930 . S
C394 N395 1.330 . S
C394 C396 1.446 . S
N395 Co354 2.151 . S
N395 C394 1.330 . S
N395 C399 1.418 . S
C396 H375 0.929 . S
C396 C394 1.446 . S
C396 C397 1.332 . S
C397 H377 0.931 . S
C397 C396 1.332 . S
C397 C398 1.267 . S
C398 H366 0.929 . S
C398 C397 1.267 . S
C398 C399 1.251 . S
C399 H369 0.929 . S
C399 N395 1.418 . S
C399 C398 1.251 . S
C400 H367 0.930 . S
C400 C402 1.406 . S
C400 C405 1.261 . S
C401 H368 0.930 . S
C401 N403 1.325 . S
C401 C404 1.357 . S
C402 H370 0.928 . S
C402 C400 1.406 . S
C402 N403 1.261 . S
N403 Co354 2.214 . S
N403 C401 1.325 . S
N403 C402 1.261 . S
C404 H374 0.931 . S
C404 C401 1.357 . S
C404 C405 1.312 . S
C405 H376 0.930 . S
C405 C400 1.261 . S
C405 C404 1.312 . S
C406 O378 1.214 . S
C406 O386 1.234 . S
C407 H379 0.929 . S
C407 C410 1.391 . S
C407 C412 1.391 . S
C408 H380 0.929 . S
C408 C409 1.390 . S
C408 N411 1.391 . S
C409 H381 0.930 . S
C409 C408 1.390 . S
C409 C410 1.392 . S
C410 H382 0.929 . S
C410 C407 1.391 . S
C410 C409 1.392 . S
N411 Co355 2.257 . S
N411 C408 1.391 . S
N411 C412 1.388 . S
C412 H383 0.930 . S
C412 C407 1.391 . S
C412 N411 1.388 . S
Co413 O415 2.143 . S
Co413 O421 2.074 . S
Co413 O424 2.093 . S
Co413 O437 2.097 . S
Co413 N454 2.151 . S
Co413 N462 2.214 . S
Co414 O415 2.160 . S
Co414 O420 2.058 . S
Co414 O430 2.057 . S
Co414 O445 2.037 . S
Co414 N449 2.145 . S
Co414 N470 2.257 . S
O415 Co413 2.143 . S
O415 Co414 2.160 . S
C416 O417 1.278 . S
C416 O424 1.224 . S
O417 C416 1.278 . S
C418 O419 1.245 . S
C418 O430 1.232 . S
O419 C418 1.245 . S
O420 Co414 2.058 . S
O420 C446 1.269 . S
O421 Co413 2.074 . S
O421 C446 1.257 . S
H422 C447 0.930 . S
H423 C453 0.930 . S
O424 Co413 2.093 . S
O424 C416 1.224 . S
H425 C457 0.929 . S
H426 C459 0.930 . S
H427 C460 0.930 . S
H428 C458 0.929 . S
H429 C461 0.928 . S
O430 Co414 2.057 . S
O430 C418 1.232 . S
H431 C450 0.929 . S
H432 C451 0.929 . S
H433 C463 0.931 . S
H434 C455 0.929 . S
H435 C464 0.930 . S
H436 C456 0.931 . S
O437 Co413 2.097 . S
O437 C465 1.214 . S
H438 C466 0.929 . S
H439 C467 0.929 . S
H440 C468 0.930 . S
H441 C469 0.929 . S
H442 C471 0.930 . S
H443 C448 0.930 . S
H444 C452 0.930 . S
O445 Co414 2.037 . S
O445 C465 1.234 . S
C446 O420 1.269 . S
C446 O421 1.257 . S
C447 H422 0.930 . S
C447 C450 1.388 . S
C447 C452 1.418 . S
C448 H443 0.930 . S
C448 C451 1.404 . S
C448 C452 1.353 . S
N449 Co414 2.145 . S
N449 C450 1.397 . S
N449 C451 1.334 . S
C450 H431 0.929 . S
C450 C447 1.388 . S
C450 N449 1.397 . S
C451 H432 0.929 . S
C451 C448 1.404 . S
C451 N449 1.334 . S
C452 H444 0.930 . S
C452 C447 1.418 . S
C452 C448 1.353 . S
C453 H423 0.930 . S
C453 N454 1.330 . S
C453 C455 1.446 . S
N454 Co413 2.151 . S
N454 C453 1.330 . S
N454 C458 1.418 . S
C455 H434 0.929 . S
C455 C453 1.446 . S
C455 C456 1.332 . S
C456 H436 0.931 . S
C456 C455 1.332 . S
C456 C457 1.267 . S
C457 H425 0.929 . S
C457 C456 1.267 . S
C457 C458 1.251 . S
C458 H428 0.929 . S
C458 N454 1.418 . S
C458 C457 1.251 . S
C459 H426 0.930 . S
C459 C461 1.406 . S
C459 C464 1.261 . S
C460 H427 0.930 . S
C460 N462 1.325 . S
C460 C463 1.357 . S
C461 H429 0.928 . S
C461 C459 1.406 . S
C461 N462 1.261 . S
N462 Co413 2.214 . S
N462 C460 1.325 . S
N462 C461 1.261 . S
C463 H433 0.931 . S
C463 C460 1.357 . S
C463 C464 1.312 . S
C464 H435 0.930 . S
C464 C459 1.261 . S
C464 C463 1.312 . S
C465 O437 1.214 . S
C465 O445 1.234 . S
C466 H438 0.929 . S
C466 C469 1.391 . S
C466 C471 1.391 . S
C467 H439 0.929 . S
C467 C468 1.390 . S
C467 N470 1.391 . S
C468 H440 0.930 . S
C468 C467 1.390 . S
C468 C469 1.392 . S
C469 H441 0.929 . S
C469 C466 1.391 . S
C469 C468 1.392 . S
N470 Co414 2.257 . S
N470 C467 1.391 . S
N470 C471 1.388 . S
C471 H442 0.930 . S
C471 C466 1.391 . S
C471 N470 1.388 . S
Co472 O474 2.143 . S
Co472 O480 2.074 . S
Co472 O483 2.093 . S
Co472 O496 2.097 . S
Co472 N513 2.151 . S
Co472 N521 2.214 . S
Co473 O474 2.160 . S
Co473 O479 2.058 . S
Co473 O489 2.057 . S
Co473 O504 2.037 . S
Co473 N508 2.144 . S
Co473 N529 2.257 . S
O474 Co472 2.143 . S
O474 Co473 2.160 . S
C475 O476 1.278 . S
C475 O483 1.224 . S
O476 C475 1.278 . S
C477 O478 1.245 . S
C477 O489 1.232 . S
O478 C477 1.245 . S
O479 Co473 2.058 . S
O479 C505 1.269 . S
O480 Co472 2.074 . S
O480 C505 1.257 . S
H481 C506 0.930 . S
H482 C512 0.930 . S
O483 Co472 2.093 . S
O483 C475 1.224 . S
H484 C516 0.929 . S
H485 C518 0.930 . S
H486 C519 0.930 . S
H487 C517 0.929 . S
H488 C520 0.928 . S
O489 Co473 2.057 . S
O489 C477 1.232 . S
H490 C509 0.929 . S
H491 C510 0.929 . S
H492 C522 0.931 . S
H493 C514 0.929 . S
H494 C523 0.930 . S
H495 C515 0.931 . S
O496 Co472 2.097 . S
O496 C524 1.214 . S
H497 C525 0.929 . S
H498 C526 0.929 . S
H499 C527 0.930 . S
H500 C528 0.929 . S
H501 C530 0.930 . S
H502 C507 0.930 . S
H503 C511 0.930 . S
O504 Co473 2.037 . S
O504 C524 1.234 . S
C505 O479 1.269 . S
C505 O480 1.257 . S
C506 H481 0.930 . S
C506 C509 1.388 . S
C506 C511 1.418 . S
C507 H502 0.930 . S
C507 C510 1.404 . S
C507 C511 1.353 . S
N508 Co473 2.144 . S
N508 C509 1.397 1_556 S
N508 C510 1.334 1_556 S
C509 H490 0.929 . S
C509 C506 1.388 . S
C509 N508 1.397 1_554 S
C510 H491 0.929 . S
C510 C507 1.404 . S
C510 N508 1.334 1_554 S
C511 H503 0.930 . S
C511 C506 1.418 . S
C511 C507 1.353 . S
C512 H482 0.930 . S
C512 N513 1.330 . S
C512 C514 1.446 . S
N513 Co472 2.151 . S
N513 C512 1.330 . S
N513 C517 1.418 . S
C514 H493 0.929 . S
C514 C512 1.446 . S
C514 C515 1.332 . S
C515 H495 0.931 . S
C515 C514 1.332 . S
C515 C516 1.267 . S
C516 H484 0.929 . S
C516 C515 1.267 . S
C516 C517 1.251 . S
C517 H487 0.929 . S
C517 N513 1.418 . S
C517 C516 1.251 . S
C518 H485 0.930 . S
C518 C520 1.406 . S
C518 C523 1.261 . S
C519 H486 0.930 . S
C519 N521 1.325 . S
C519 C522 1.357 . S
C520 H488 0.928 . S
C520 C518 1.406 . S
C520 N521 1.261 . S
N521 Co472 2.214 . S
N521 C519 1.325 . S
N521 C520 1.261 . S
C522 H492 0.931 . S
C522 C519 1.357 . S
C522 C523 1.312 . S
C523 H494 0.930 . S
C523 C518 1.261 . S
C523 C522 1.312 . S
C524 O496 1.214 . S
C524 O504 1.234 . S
C525 H497 0.929 . S
C525 C528 1.391 . S
C525 C530 1.391 . S
C526 H498 0.929 . S
C526 C527 1.390 . S
C526 N529 1.391 . S
C527 H499 0.930 . S
C527 C526 1.390 . S
C527 C528 1.392 . S
C528 H500 0.929 . S
C528 C525 1.391 . S
C528 C527 1.392 . S
N529 Co473 2.257 . S
N529 C526 1.391 . S
N529 C530 1.388 . S
C530 H501 0.930 . S
C530 C525 1.391 . S
C530 N529 1.388 . S
Co531 O533 2.143 . S
Co531 O539 2.074 . S
Co531 O542 2.093 . S
Co531 O555 2.097 . S
Co531 N572 2.151 . S
Co531 N580 2.214 . S
Co532 O533 2.160 . S
Co532 O538 2.058 . S
Co532 O548 2.057 . S
Co532 O563 2.037 . S
Co532 N567 2.145 . S
Co532 N588 2.257 . S
O533 Co531 2.143 . S
O533 Co532 2.160 . S
C534 O535 1.278 . S
C534 O542 1.224 . S
O535 C534 1.278 . S
C536 O537 1.245 . S
C536 O548 1.232 . S
O537 C536 1.245 . S
O538 Co532 2.058 . S
O538 C564 1.269 . S
O539 Co531 2.074 . S
O539 C564 1.257 . S
H540 C565 0.930 . S
H541 C571 0.930 . S
O542 Co531 2.093 . S
O542 C534 1.224 . S
H543 C575 0.929 . S
H544 C577 0.930 . S
H545 C578 0.930 . S
H546 C576 0.929 . S
H547 C579 0.928 . S
O548 Co532 2.057 . S
O548 C536 1.232 . S
H549 C568 0.929 . S
H550 C569 0.929 . S
H551 C581 0.931 . S
H552 C573 0.929 . S
H553 C582 0.930 . S
H554 C574 0.931 . S
O555 Co531 2.097 . S
O555 C583 1.214 . S
H556 C584 0.929 . S
H557 C585 0.929 . S
H558 C586 0.930 . S
H559 C587 0.929 . S
H560 C589 0.930 . S
H561 C566 0.930 . S
H562 C570 0.930 . S
O563 Co532 2.037 . S
O563 C583 1.234 . S
C564 O538 1.269 . S
C564 O539 1.257 . S
C565 H540 0.930 . S
C565 C568 1.388 . S
C565 C570 1.418 . S
C566 H561 0.930 . S
C566 C569 1.404 . S
C566 C570 1.353 . S
N567 Co532 2.145 . S
N567 C568 1.397 . S
N567 C569 1.334 . S
C568 H549 0.929 . S
C568 C565 1.388 . S
C568 N567 1.397 . S
C569 H550 0.929 . S
C569 C566 1.404 . S
C569 N567 1.334 . S
C570 H562 0.930 . S
C570 C565 1.418 . S
C570 C566 1.353 . S
C571 H541 0.930 . S
C571 N572 1.330 . S
C571 C573 1.446 . S
N572 Co531 2.151 . S
N572 C571 1.330 . S
N572 C576 1.418 . S
C573 H552 0.929 . S
C573 C571 1.446 . S
C573 C574 1.332 . S
C574 H554 0.931 . S
C574 C573 1.332 . S
C574 C575 1.267 . S
C575 H543 0.929 . S
C575 C574 1.267 . S
C575 C576 1.251 . S
C576 H546 0.929 . S
C576 N572 1.418 . S
C576 C575 1.251 . S
C577 H544 0.930 . S
C577 C579 1.406 . S
C577 C582 1.261 . S
C578 H545 0.930 . S
C578 N580 1.325 . S
C578 C581 1.357 . S
C579 H547 0.928 . S
C579 C577 1.406 . S
C579 N580 1.261 . S
N580 Co531 2.214 . S
N580 C578 1.325 . S
N580 C579 1.261 . S
C581 H551 0.931 . S
C581 C578 1.357 . S
C581 C582 1.312 . S
C582 H553 0.930 . S
C582 C577 1.261 . S
C582 C581 1.312 . S
C583 O555 1.214 . S
C583 O563 1.234 . S
C584 H556 0.929 . S
C584 C587 1.391 . S
C584 C589 1.391 . S
C585 H557 0.929 . S
C585 C586 1.390 . S
C585 N588 1.391 . S
C586 H558 0.930 . S
C586 C585 1.390 . S
C586 C587 1.392 . S
C587 H559 0.929 . S
C587 C584 1.391 . S
C587 C586 1.392 . S
N588 Co532 2.257 . S
N588 C585 1.391 . S
N588 C589 1.388 . S
C589 H560 0.930 . S
C589 C584 1.391 . S
C589 N588 1.388 . S
Co590 O592 2.143 . S
Co590 O598 2.074 . S
Co590 O601 2.093 . S
Co590 O614 2.097 . S
Co590 N631 2.151 . S
Co590 N639 2.214 . S
Co591 O592 2.160 . S
Co591 O597 2.058 . S
Co591 O607 2.057 . S
Co591 O622 2.037 . S
Co591 N626 2.144 . S
Co591 N647 2.257 . S
O592 Co590 2.143 . S
O592 Co591 2.160 . S
C593 O594 1.278 . S
C593 O601 1.224 . S
O594 C593 1.278 . S
C595 O596 1.245 . S
C595 O607 1.232 . S
O596 C595 1.245 . S
O597 Co591 2.058 . S
O597 C623 1.269 . S
O598 Co590 2.074 . S
O598 C623 1.257 . S
H599 C624 0.930 . S
H600 C630 0.930 . S
O601 Co590 2.093 . S
O601 C593 1.224 . S
H602 C634 0.929 . S
H603 C636 0.930 . S
H604 C637 0.930 . S
H605 C635 0.929 . S
H606 C638 0.928 . S
O607 Co591 2.057 . S
O607 C595 1.232 . S
H608 C627 0.929 . S
H609 C628 0.929 . S
H610 C640 0.931 . S
H611 C632 0.929 . S
H612 C641 0.930 . S
H613 C633 0.931 . S
O614 Co590 2.097 . S
O614 C642 1.214 . S
H615 C643 0.929 . S
H616 C644 0.929 . S
H617 C645 0.930 . S
H618 C646 0.929 . S
H619 C648 0.930 . S
H620 C625 0.930 . S
H621 C629 0.930 . S
O622 Co591 2.037 . S
O622 C642 1.234 . S
C623 O597 1.269 . S
C623 O598 1.257 . S
C624 H599 0.930 . S
C624 C627 1.388 . S
C624 C629 1.418 . S
C625 H620 0.930 . S
C625 C628 1.404 . S
C625 C629 1.353 . S
N626 Co591 2.144 . S
N626 C627 1.397 1_556 S
N626 C628 1.334 1_556 S
C627 H608 0.929 . S
C627 C624 1.388 . S
C627 N626 1.397 1_554 S
C628 H609 0.929 . S
C628 C625 1.404 . S
C628 N626 1.334 1_554 S
C629 H621 0.930 . S
C629 C624 1.418 . S
C629 C625 1.353 . S
C630 H600 0.930 . S
C630 N631 1.330 . S
C630 C632 1.446 . S
N631 Co590 2.151 . S
N631 C630 1.330 . S
N631 C635 1.418 . S
C632 H611 0.929 . S
C632 C630 1.446 . S
C632 C633 1.332 . S
C633 H613 0.931 . S
C633 C632 1.332 . S
C633 C634 1.267 . S
C634 H602 0.929 . S
C634 C633 1.267 . S
C634 C635 1.251 . S
C635 H605 0.929 . S
C635 N631 1.418 . S
C635 C634 1.251 . S
C636 H603 0.930 . S
C636 C638 1.406 . S
C636 C641 1.261 . S
C637 H604 0.930 . S
C637 N639 1.325 . S
C637 C640 1.357 . S
C638 H606 0.928 . S
C638 C636 1.406 . S
C638 N639 1.261 . S
N639 Co590 2.214 . S
N639 C637 1.325 . S
N639 C638 1.261 . S
C640 H610 0.931 . S
C640 C637 1.357 . S
C640 C641 1.312 . S
C641 H612 0.930 . S
C641 C636 1.261 . S
C641 C640 1.312 . S
C642 O614 1.214 . S
C642 O622 1.234 . S
C643 H615 0.929 . S
C643 C646 1.391 . S
C643 C648 1.391 . S
C644 H616 0.929 . S
C644 C645 1.390 . S
C644 N647 1.391 . S
C645 H617 0.930 . S
C645 C644 1.390 . S
C645 C646 1.392 . S
C646 H618 0.929 . S
C646 C643 1.391 . S
C646 C645 1.392 . S
N647 Co591 2.257 . S
N647 C644 1.391 . S
N647 C648 1.388 . S
C648 H619 0.930 . S
C648 C643 1.391 . S
C648 N647 1.388 . S
Co649 O651 2.143 . S
Co649 O657 2.074 . S
Co649 O660 2.093 . S
Co649 O673 2.097 . S
Co649 N690 2.151 . S
Co649 N698 2.214 . S
Co650 O651 2.160 . S
Co650 O656 2.058 . S
Co650 O666 2.057 . S
Co650 O681 2.037 . S
Co650 N685 2.145 . S
Co650 N706 2.257 . S
O651 Co649 2.143 . S
O651 Co650 2.160 . S
C652 O653 1.278 . S
C652 O660 1.224 . S
O653 C652 1.278 . S
C654 O655 1.245 . S
C654 O666 1.232 . S
O655 C654 1.245 . S
O656 Co650 2.058 . S
O656 C682 1.269 . S
O657 Co649 2.074 . S
O657 C682 1.257 . S
H658 C683 0.930 . S
H659 C689 0.930 . S
O660 Co649 2.093 . S
O660 C652 1.224 . S
H661 C693 0.929 . S
H662 C695 0.930 . S
H663 C696 0.930 . S
H664 C694 0.929 . S
H665 C697 0.928 . S
O666 Co650 2.057 . S
O666 C654 1.232 . S
H667 C686 0.929 . S
H668 C687 0.929 . S
H669 C699 0.931 . S
H670 C691 0.929 . S
H671 C700 0.930 . S
H672 C692 0.931 . S
O673 Co649 2.097 . S
O673 C701 1.214 . S
H674 C702 0.929 . S
H675 C703 0.929 . S
H676 C704 0.930 . S
H677 C705 0.929 . S
H678 C707 0.930 . S
H679 C684 0.930 . S
H680 C688 0.930 . S
O681 Co650 2.037 . S
O681 C701 1.234 . S
C682 O656 1.269 . S
C682 O657 1.257 . S
C683 H658 0.930 . S
C683 C686 1.388 . S
C683 C688 1.418 . S
C684 H679 0.930 . S
C684 C687 1.404 . S
C684 C688 1.353 . S
N685 Co650 2.145 . S
N685 C686 1.397 . S
N685 C687 1.334 . S
C686 H667 0.929 . S
C686 C683 1.388 . S
C686 N685 1.397 . S
C687 H668 0.929 . S
C687 C684 1.404 . S
C687 N685 1.334 . S
C688 H680 0.930 . S
C688 C683 1.418 . S
C688 C684 1.353 . S
C689 H659 0.930 . S
C689 N690 1.330 . S
C689 C691 1.446 . S
N690 Co649 2.151 . S
N690 C689 1.330 . S
N690 C694 1.418 . S
C691 H670 0.929 . S
C691 C689 1.446 . S
C691 C692 1.332 . S
C692 H672 0.931 . S
C692 C691 1.332 . S
C692 C693 1.267 . S
C693 H661 0.929 . S
C693 C692 1.267 . S
C693 C694 1.251 . S
C694 H664 0.929 . S
C694 N690 1.418 . S
C694 C693 1.251 . S
C695 H662 0.930 . S
C695 C697 1.406 . S
C695 C700 1.261 . S
C696 H663 0.930 . S
C696 N698 1.325 . S
C696 C699 1.357 . S
C697 H665 0.928 . S
C697 C695 1.406 . S
C697 N698 1.261 . S
N698 Co649 2.214 . S
N698 C696 1.325 . S
N698 C697 1.261 . S
C699 H669 0.931 . S
C699 C696 1.357 . S
C699 C700 1.312 . S
C700 H671 0.930 . S
C700 C695 1.261 . S
C700 C699 1.312 . S
C701 O673 1.214 . S
C701 O681 1.234 . S
C702 H674 0.929 . S
C702 C705 1.391 . S
C702 C707 1.391 . S
C703 H675 0.929 . S
C703 C704 1.390 . S
C703 N706 1.391 . S
C704 H676 0.930 . S
C704 C703 1.390 . S
C704 C705 1.392 . S
C705 H677 0.929 . S
C705 C702 1.391 . S
C705 C704 1.392 . S
N706 Co650 2.257 . S
N706 C703 1.391 . S
N706 C707 1.388 . S
C707 H678 0.930 . S
C707 C702 1.391 . S
C707 N706 1.388 . S
Co708 O710 2.143 . S
Co708 O716 2.074 . S
Co708 O719 2.093 . S
Co708 O732 2.097 . S
Co708 N749 2.151 . S
Co708 N757 2.214 . S
Co709 O710 2.160 . S
Co709 O715 2.058 . S
Co709 O725 2.057 . S
Co709 O740 2.037 . S
Co709 N744 2.144 . S
Co709 N765 2.257 . S
O710 Co708 2.143 . S
O710 Co709 2.160 . S
C711 O712 1.278 . S
C711 O719 1.224 . S
O712 C711 1.278 . S
C713 O714 1.245 . S
C713 O725 1.232 . S
O714 C713 1.245 . S
O715 Co709 2.058 . S
O715 C741 1.269 . S
O716 Co708 2.074 . S
O716 C741 1.257 . S
H717 C742 0.930 . S
H718 C748 0.930 . S
O719 Co708 2.093 . S
O719 C711 1.224 . S
H720 C752 0.929 . S
H721 C754 0.930 . S
H722 C755 0.930 . S
H723 C753 0.929 . S
H724 C756 0.928 . S
O725 Co709 2.057 . S
O725 C713 1.232 . S
H726 C745 0.929 . S
H727 C746 0.929 . S
H728 C758 0.931 . S
H729 C750 0.929 . S
H730 C759 0.930 . S
H731 C751 0.931 . S
O732 Co708 2.097 . S
O732 C760 1.214 . S
H733 C761 0.929 . S
H734 C762 0.929 . S
H735 C763 0.930 . S
H736 C764 0.929 . S
H737 C766 0.930 . S
H738 C743 0.930 . S
H739 C747 0.930 . S
O740 Co709 2.037 . S
O740 C760 1.234 . S
C741 O715 1.269 . S
C741 O716 1.257 . S
C742 H717 0.930 . S
C742 C745 1.388 . S
C742 C747 1.418 . S
C743 H738 0.930 . S
C743 C746 1.404 . S
C743 C747 1.353 . S
N744 Co709 2.144 . S
N744 C745 1.397 1_556 S
N744 C746 1.334 1_556 S
C745 H726 0.929 . S
C745 C742 1.388 . S
C745 N744 1.397 1_554 S
C746 H727 0.929 . S
C746 C743 1.404 . S
C746 N744 1.334 1_554 S
C747 H739 0.930 . S
C747 C742 1.418 . S
C747 C743 1.353 . S
C748 H718 0.930 . S
C748 N749 1.330 . S
C748 C750 1.446 . S
N749 Co708 2.151 . S
N749 C748 1.330 . S
N749 C753 1.418 . S
C750 H729 0.929 . S
C750 C748 1.446 . S
C750 C751 1.332 . S
C751 H731 0.931 . S
C751 C750 1.332 . S
C751 C752 1.267 . S
C752 H720 0.929 . S
C752 C751 1.267 . S
C752 C753 1.251 . S
C753 H723 0.929 . S
C753 N749 1.418 . S
C753 C752 1.251 . S
C754 H721 0.930 . S
C754 C756 1.406 . S
C754 C759 1.261 . S
C755 H722 0.930 . S
C755 N757 1.325 . S
C755 C758 1.357 . S
C756 H724 0.928 . S
C756 C754 1.406 . S
C756 N757 1.261 . S
N757 Co708 2.214 . S
N757 C755 1.325 . S
N757 C756 1.261 . S
C758 H728 0.931 . S
C758 C755 1.357 . S
C758 C759 1.312 . S
C759 H730 0.930 . S
C759 C754 1.261 . S
C759 C758 1.312 . S
C760 O732 1.214 . S
C760 O740 1.234 . S
C761 H733 0.929 . S
C761 C764 1.391 . S
C761 C766 1.391 . S
C762 H734 0.929 . S
C762 C763 1.390 . S
C762 N765 1.391 . S
C763 H735 0.930 . S
C763 C762 1.390 . S
C763 C764 1.392 . S
C764 H736 0.929 . S
C764 C761 1.391 . S
C764 C763 1.392 . S
N765 Co709 2.257 . S
N765 C762 1.391 . S
N765 C766 1.388 . S
C766 H737 0.930 . S
C766 C761 1.391 . S
C766 N765 1.388 . S
Co767 O769 2.143 . S
Co767 O775 2.074 . S
Co767 O778 2.093 . S
Co767 O791 2.097 . S
Co767 N808 2.151 . S
Co767 N816 2.214 . S
Co768 O769 2.160 . S
Co768 O774 2.058 . S
Co768 O784 2.057 . S
Co768 O799 2.037 . S
Co768 N803 2.145 . S
Co768 N824 2.257 . S
O769 Co767 2.143 . S
O769 Co768 2.160 . S
C770 O771 1.278 . S
C770 O778 1.224 . S
O771 C770 1.278 . S
C772 O773 1.245 . S
C772 O784 1.232 . S
O773 C772 1.245 . S
O774 Co768 2.058 . S
O774 C800 1.269 . S
O775 Co767 2.074 . S
O775 C800 1.257 . S
H776 C801 0.930 . S
H777 C807 0.930 . S
O778 Co767 2.093 . S
O778 C770 1.224 . S
H779 C811 0.929 . S
H780 C813 0.930 . S
H781 C814 0.930 . S
H782 C812 0.929 . S
H783 C815 0.928 . S
O784 Co768 2.057 . S
O784 C772 1.232 . S
H785 C804 0.929 . S
H786 C805 0.929 . S
H787 C817 0.931 . S
H788 C809 0.929 . S
H789 C818 0.930 . S
H790 C810 0.931 . S
O791 Co767 2.097 . S
O791 C819 1.214 . S
H792 C820 0.929 . S
H793 C821 0.929 . S
H794 C822 0.930 . S
H795 C823 0.929 . S
H796 C825 0.930 . S
H797 C802 0.930 . S
H798 C806 0.930 . S
O799 Co768 2.037 . S
O799 C819 1.234 . S
C800 O774 1.269 . S
C800 O775 1.257 . S
C801 H776 0.930 . S
C801 C804 1.388 . S
C801 C806 1.418 . S
C802 H797 0.930 . S
C802 C805 1.404 . S
C802 C806 1.353 . S
N803 Co768 2.145 . S
N803 C804 1.397 . S
N803 C805 1.334 . S
C804 H785 0.929 . S
C804 C801 1.388 . S
C804 N803 1.397 . S
C805 H786 0.929 . S
C805 C802 1.404 . S
C805 N803 1.334 . S
C806 H798 0.930 . S
C806 C801 1.418 . S
C806 C802 1.353 . S
C807 H777 0.930 . S
C807 N808 1.330 . S
C807 C809 1.446 . S
N808 Co767 2.151 . S
N808 C807 1.330 . S
N808 C812 1.418 . S
C809 H788 0.929 . S
C809 C807 1.446 . S
C809 C810 1.332 . S
C810 H790 0.931 . S
C810 C809 1.332 . S
C810 C811 1.267 . S
C811 H779 0.929 . S
C811 C810 1.267 . S
C811 C812 1.251 . S
C812 H782 0.929 . S
C812 N808 1.418 . S
C812 C811 1.251 . S
C813 H780 0.930 . S
C813 C815 1.406 . S
C813 C818 1.261 . S
C814 H781 0.930 . S
C814 N816 1.325 . S
C814 C817 1.357 . S
C815 H783 0.928 . S
C815 C813 1.406 . S
C815 N816 1.261 . S
N816 Co767 2.214 . S
N816 C814 1.325 . S
N816 C815 1.261 . S
C817 H787 0.931 . S
C817 C814 1.357 . S
C817 C818 1.312 . S
C818 H789 0.930 . S
C818 C813 1.261 . S
C818 C817 1.312 . S
C819 O791 1.214 . S
C819 O799 1.234 . S
C820 H792 0.929 . S
C820 C823 1.391 . S
C820 C825 1.391 . S
C821 H793 0.929 . S
C821 C822 1.390 . S
C821 N824 1.391 . S
C822 H794 0.930 . S
C822 C821 1.390 . S
C822 C823 1.392 . S
C823 H795 0.929 . S
C823 C820 1.391 . S
C823 C822 1.392 . S
N824 Co768 2.257 . S
N824 C821 1.391 . S
N824 C825 1.388 . S
C825 H796 0.930 . S
C825 C820 1.391 . S
C825 N824 1.388 . S
Co826 O828 2.143 . S
Co826 O834 2.074 . S
Co826 O837 2.093 . S
Co826 O850 2.097 . S
Co826 N867 2.151 . S
Co826 N875 2.214 . S
Co827 O828 2.160 . S
Co827 O833 2.058 . S
Co827 O843 2.057 . S
Co827 O858 2.037 . S
Co827 N862 2.144 . S
Co827 N883 2.257 . S
O828 Co826 2.143 . S
O828 Co827 2.160 . S
C829 O830 1.278 . S
C829 O837 1.224 . S
O830 C829 1.278 . S
C831 O832 1.245 . S
C831 O843 1.232 . S
O832 C831 1.245 . S
O833 Co827 2.058 . S
O833 C859 1.269 . S
O834 Co826 2.074 . S
O834 C859 1.257 . S
H835 C860 0.930 . S
H836 C866 0.930 . S
O837 Co826 2.093 . S
O837 C829 1.224 . S
H838 C870 0.929 . S
H839 C872 0.930 . S
H840 C873 0.930 . S
H841 C871 0.929 . S
H842 C874 0.928 . S
O843 Co827 2.057 . S
O843 C831 1.232 . S
H844 C863 0.929 . S
H845 C864 0.929 . S
H846 C876 0.931 . S
H847 C868 0.929 . S
H848 C877 0.930 . S
H849 C869 0.931 . S
O850 Co826 2.097 . S
O850 C878 1.214 . S
H851 C879 0.929 . S
H852 C880 0.929 . S
H853 C881 0.930 . S
H854 C882 0.929 . S
H855 C884 0.930 . S
H856 C861 0.930 . S
H857 C865 0.930 . S
O858 Co827 2.037 . S
O858 C878 1.234 . S
C859 O833 1.269 . S
C859 O834 1.257 . S
C860 H835 0.930 . S
C860 C863 1.388 . S
C860 C865 1.418 . S
C861 H856 0.930 . S
C861 C864 1.404 . S
C861 C865 1.353 . S
N862 Co827 2.144 . S
N862 C863 1.397 1_556 S
N862 C864 1.334 1_556 S
C863 H844 0.929 . S
C863 C860 1.388 . S
C863 N862 1.397 1_554 S
C864 H845 0.929 . S
C864 C861 1.404 . S
C864 N862 1.334 1_554 S
C865 H857 0.930 . S
C865 C860 1.418 . S
C865 C861 1.353 . S
C866 H836 0.930 . S
C866 N867 1.330 . S
C866 C868 1.446 . S
N867 Co826 2.151 . S
N867 C866 1.330 . S
N867 C871 1.418 . S
C868 H847 0.929 . S
C868 C866 1.446 . S
C868 C869 1.332 . S
C869 H849 0.931 . S
C869 C868 1.332 . S
C869 C870 1.267 . S
C870 H838 0.929 . S
C870 C869 1.267 . S
C870 C871 1.251 . S
C871 H841 0.929 . S
C871 N867 1.418 . S
C871 C870 1.251 . S
C872 H839 0.930 . S
C872 C874 1.406 . S
C872 C877 1.261 . S
C873 H840 0.930 . S
C873 N875 1.325 . S
C873 C876 1.357 . S
C874 H842 0.928 . S
C874 C872 1.406 . S
C874 N875 1.261 . S
N875 Co826 2.214 . S
N875 C873 1.325 . S
N875 C874 1.261 . S
C876 H846 0.931 . S
C876 C873 1.357 . S
C876 C877 1.312 . S
C877 H848 0.930 . S
C877 C872 1.261 . S
C877 C876 1.312 . S
C878 O850 1.214 . S
C878 O858 1.234 . S
C879 H851 0.929 . S
C879 C882 1.391 . S
C879 C884 1.391 . S
C880 H852 0.929 . S
C880 C881 1.390 . S
C880 N883 1.391 . S
C881 H853 0.930 . S
C881 C880 1.390 . S
C881 C882 1.392 . S
C882 H854 0.929 . S
C882 C879 1.391 . S
C882 C881 1.392 . S
N883 Co827 2.257 . S
N883 C880 1.391 . S
N883 C884 1.388 . S
C884 H855 0.930 . S
C884 C879 1.391 . S
C884 N883 1.388 . S
Co885 O887 2.143 . S
Co885 O893 2.074 . S
Co885 O896 2.093 . S
Co885 O909 2.097 . S
Co885 N926 2.151 . S
Co885 N934 2.214 . S
Co886 O887 2.160 . S
Co886 O892 2.058 . S
Co886 O902 2.057 . S
Co886 O917 2.037 . S
Co886 N921 2.145 . S
Co886 N942 2.257 . S
O887 Co885 2.143 . S
O887 Co886 2.160 . S
C888 O889 1.278 . S
C888 O896 1.224 . S
O889 C888 1.278 . S
C890 O891 1.245 . S
C890 O902 1.232 . S
O891 C890 1.245 . S
O892 Co886 2.058 . S
O892 C918 1.269 . S
O893 Co885 2.074 . S
O893 C918 1.257 . S
H894 C919 0.930 . S
H895 C925 0.930 . S
O896 Co885 2.093 . S
O896 C888 1.224 . S
H897 C929 0.929 . S
H898 C931 0.930 . S
H899 C932 0.930 . S
H900 C930 0.929 . S
H901 C933 0.928 . S
O902 Co886 2.057 . S
O902 C890 1.232 . S
H903 C922 0.929 . S
H904 C923 0.929 . S
H905 C935 0.931 . S
H906 C927 0.929 . S
H907 C936 0.930 . S
H908 C928 0.931 . S
O909 Co885 2.097 . S
O909 C937 1.214 . S
H910 C938 0.929 . S
H911 C939 0.929 . S
H912 C940 0.930 . S
H913 C941 0.929 . S
H914 C943 0.930 . S
H915 C920 0.930 . S
H916 C924 0.930 . S
O917 Co886 2.037 . S
O917 C937 1.234 . S
C918 O892 1.269 . S
C918 O893 1.257 . S
C919 H894 0.930 . S
C919 C922 1.388 . S
C919 C924 1.418 . S
C920 H915 0.930 . S
C920 C923 1.404 . S
C920 C924 1.353 . S
N921 Co886 2.145 . S
N921 C922 1.397 . S
N921 C923 1.334 . S
C922 H903 0.929 . S
C922 C919 1.388 . S
C922 N921 1.397 . S
C923 H904 0.929 . S
C923 C920 1.404 . S
C923 N921 1.334 . S
C924 H916 0.930 . S
C924 C919 1.418 . S
C924 C920 1.353 . S
C925 H895 0.930 . S
C925 N926 1.330 . S
C925 C927 1.446 . S
N926 Co885 2.151 . S
N926 C925 1.330 . S
N926 C930 1.418 . S
C927 H906 0.929 . S
C927 C925 1.446 . S
C927 C928 1.332 . S
C928 H908 0.931 . S
C928 C927 1.332 . S
C928 C929 1.267 . S
C929 H897 0.929 . S
C929 C928 1.267 . S
C929 C930 1.251 . S
C930 H900 0.929 . S
C930 N926 1.418 . S
C930 C929 1.251 . S
C931 H898 0.930 . S
C931 C933 1.406 . S
C931 C936 1.261 . S
C932 H899 0.930 . S
C932 N934 1.325 . S
C932 C935 1.357 . S
C933 H901 0.928 . S
C933 C931 1.406 . S
C933 N934 1.261 . S
N934 Co885 2.214 . S
N934 C932 1.325 . S
N934 C933 1.261 . S
C935 H905 0.931 . S
C935 C932 1.357 . S
C935 C936 1.312 . S
C936 H907 0.930 . S
C936 C931 1.261 . S
C936 C935 1.312 . S
C937 O909 1.214 . S
C937 O917 1.234 . S
C938 H910 0.929 . S
C938 C941 1.391 . S
C938 C943 1.391 . S
C939 H911 0.929 . S
C939 C940 1.390 . S
C939 N942 1.391 . S
C940 H912 0.930 . S
C940 C939 1.390 . S
C940 C941 1.392 . S
C941 H913 0.929 . S
C941 C938 1.391 . S
C941 C940 1.392 . S
N942 Co886 2.257 . S
N942 C939 1.391 . S
N942 C943 1.388 . S
C943 H914 0.930 . S
C943 C938 1.391 . S
C943 N942 1.388 . S
Co944 O946 2.143 . S
Co944 O952 2.074 . S
Co944 O955 2.093 . S
Co944 O968 2.097 . S
Co944 N985 2.151 . S
Co944 N993 2.214 . S
Co945 O946 2.160 . S
Co945 O951 2.058 . S
Co945 O961 2.057 . S
Co945 O976 2.037 . S
Co945 N980 2.144 . S
Co945 N1001 2.257 . S
O946 Co944 2.143 . S
O946 Co945 2.160 . S
C947 O948 1.278 . S
C947 O955 1.224 . S
O948 C947 1.278 . S
C949 O950 1.245 . S
C949 O961 1.232 . S
O950 C949 1.245 . S
O951 Co945 2.058 . S
O951 C977 1.269 . S
O952 Co944 2.074 . S
O952 C977 1.257 . S
H953 C978 0.930 . S
H954 C984 0.930 . S
O955 Co944 2.093 . S
O955 C947 1.224 . S
H956 C988 0.929 . S
H957 C990 0.930 . S
H958 C991 0.930 . S
H959 C989 0.929 . S
H960 C992 0.928 . S
O961 Co945 2.057 . S
O961 C949 1.232 . S
H962 C981 0.929 . S
H963 C982 0.929 . S
H964 C994 0.931 . S
H965 C986 0.929 . S
H966 C995 0.930 . S
H967 C987 0.931 . S
O968 Co944 2.097 . S
O968 C996 1.214 . S
H969 C997 0.929 . S
H970 C998 0.929 . S
H971 C999 0.930 . S
H972 C1000 0.929 . S
H973 C1002 0.930 . S
H974 C979 0.930 . S
H975 C983 0.930 . S
O976 Co945 2.037 . S
O976 C996 1.234 . S
C977 O951 1.269 . S
C977 O952 1.257 . S
C978 H953 0.930 . S
C978 C981 1.388 . S
C978 C983 1.418 . S
C979 H974 0.930 . S
C979 C982 1.404 . S
C979 C983 1.353 . S
N980 Co945 2.144 . S
N980 C981 1.397 1_556 S
N980 C982 1.334 1_556 S
C981 H962 0.929 . S
C981 C978 1.388 . S
C981 N980 1.397 1_554 S
C982 H963 0.929 . S
C982 C979 1.404 . S
C982 N980 1.334 1_554 S
C983 H975 0.930 . S
C983 C978 1.418 . S
C983 C979 1.353 . S
C984 H954 0.930 . S
C984 N985 1.330 . S
C984 C986 1.446 . S
N985 Co944 2.151 . S
N985 C984 1.330 . S
N985 C989 1.418 . S
C986 H965 0.929 . S
C986 C984 1.446 . S
C986 C987 1.332 . S
C987 H967 0.931 . S
C987 C986 1.332 . S
C987 C988 1.267 . S
C988 H956 0.929 . S
C988 C987 1.267 . S
C988 C989 1.251 . S
C989 H959 0.929 . S
C989 N985 1.418 . S
C989 C988 1.251 . S
C990 H957 0.930 . S
C990 C992 1.406 . S
C990 C995 1.261 . S
C991 H958 0.930 . S
C991 N993 1.325 . S
C991 C994 1.357 . S
C992 H960 0.928 . S
C992 C990 1.406 . S
C992 N993 1.261 . S
N993 Co944 2.214 . S
N993 C991 1.325 . S
N993 C992 1.261 . S
C994 H964 0.931 . S
C994 C991 1.357 . S
C994 C995 1.312 . S
C995 H966 0.930 . S
C995 C990 1.261 . S
C995 C994 1.312 . S
C996 O968 1.214 . S
C996 O976 1.234 . S
C997 H969 0.929 . S
C997 C1000 1.391 . S
C997 C1002 1.391 . S
C998 H970 0.929 . S
C998 C999 1.390 . S
C998 N1001 1.391 . S
C999 H971 0.930 . S
C999 C998 1.390 . S
C999 C1000 1.392 . S
C1000 H972 0.929 . S
C1000 C997 1.391 . S
C1000 C999 1.392 . S
N1001 Co945 2.257 . S
N1001 C998 1.391 . S
N1001 C1002 1.388 . S
C1002 H973 0.930 . S
C1002 C997 1.391 . S
C1002 N1001 1.388 . S
Co1003 O1005 2.143 . S
Co1003 O1011 2.074 . S
Co1003 O1014 2.093 . S
Co1003 O1027 2.097 . S
Co1003 N1044 2.151 . S
Co1003 N1052 2.214 . S
Co1004 O1005 2.160 . S
Co1004 O1010 2.058 . S
Co1004 O1020 2.057 . S
Co1004 O1035 2.037 . S
Co1004 N1039 2.145 . S
Co1004 N1060 2.257 . S
O1005 Co1003 2.143 . S
O1005 Co1004 2.160 . S
C1006 O1007 1.278 . S
C1006 O1014 1.224 . S
O1007 C1006 1.278 . S
C1008 O1009 1.245 . S
C1008 O1020 1.232 . S
O1009 C1008 1.245 . S
O1010 Co1004 2.058 . S
O1010 C1036 1.269 . S
O1011 Co1003 2.074 . S
O1011 C1036 1.257 . S
H1012 C1037 0.930 . S
H1013 C1043 0.930 . S
O1014 Co1003 2.093 . S
O1014 C1006 1.224 . S
H1015 C1047 0.929 . S
H1016 C1049 0.930 . S
H1017 C1050 0.930 . S
H1018 C1048 0.929 . S
H1019 C1051 0.928 . S
O1020 Co1004 2.057 . S
O1020 C1008 1.232 . S
H1021 C1040 0.929 . S
H1022 C1041 0.929 . S
H1023 C1053 0.931 . S
H1024 C1045 0.929 . S
H1025 C1054 0.930 . S
H1026 C1046 0.931 . S
O1027 Co1003 2.097 . S
O1027 C1055 1.214 . S
H1028 C1056 0.929 . S
H1029 C1057 0.929 . S
H1030 C1058 0.930 . S
H1031 C1059 0.929 . S
H1032 C1061 0.930 . S
H1033 C1038 0.930 . S
H1034 C1042 0.930 . S
O1035 Co1004 2.037 . S
O1035 C1055 1.234 . S
C1036 O1010 1.269 . S
C1036 O1011 1.257 . S
C1037 H1012 0.930 . S
C1037 C1040 1.388 . S
C1037 C1042 1.418 . S
C1038 H1033 0.930 . S
C1038 C1041 1.404 . S
C1038 C1042 1.353 . S
N1039 Co1004 2.145 . S
N1039 C1040 1.397 . S
N1039 C1041 1.334 . S
C1040 H1021 0.929 . S
C1040 C1037 1.388 . S
C1040 N1039 1.397 . S
C1041 H1022 0.929 . S
C1041 C1038 1.404 . S
C1041 N1039 1.334 . S
C1042 H1034 0.930 . S
C1042 C1037 1.418 . S
C1042 C1038 1.353 . S
C1043 H1013 0.930 . S
C1043 N1044 1.330 . S
C1043 C1045 1.446 . S
N1044 Co1003 2.151 . S
N1044 C1043 1.330 . S
N1044 C1048 1.418 . S
C1045 H1024 0.929 . S
C1045 C1043 1.446 . S
C1045 C1046 1.332 . S
C1046 H1026 0.931 . S
C1046 C1045 1.332 . S
C1046 C1047 1.267 . S
C1047 H1015 0.929 . S
C1047 C1046 1.267 . S
C1047 C1048 1.251 . S
C1048 H1018 0.929 . S
C1048 N1044 1.418 . S
C1048 C1047 1.251 . S
C1049 H1016 0.930 . S
C1049 C1051 1.406 . S
C1049 C1054 1.261 . S
C1050 H1017 0.930 . S
C1050 N1052 1.325 . S
C1050 C1053 1.357 . S
C1051 H1019 0.928 . S
C1051 C1049 1.406 . S
C1051 N1052 1.261 . S
N1052 Co1003 2.214 . S
N1052 C1050 1.325 . S
N1052 C1051 1.261 . S
C1053 H1023 0.931 . S
C1053 C1050 1.357 . S
C1053 C1054 1.312 . S
C1054 H1025 0.930 . S
C1054 C1049 1.261 . S
C1054 C1053 1.312 . S
C1055 O1027 1.214 . S
C1055 O1035 1.234 . S
C1056 H1028 0.929 . S
C1056 C1059 1.391 . S
C1056 C1061 1.391 . S
C1057 H1029 0.929 . S
C1057 C1058 1.390 . S
C1057 N1060 1.391 . S
C1058 H1030 0.930 . S
C1058 C1057 1.390 . S
C1058 C1059 1.392 . S
C1059 H1031 0.929 . S
C1059 C1056 1.391 . S
C1059 C1058 1.392 . S
N1060 Co1004 2.257 . S
N1060 C1057 1.391 . S
N1060 C1061 1.388 . S
C1061 H1032 0.930 . S
C1061 C1056 1.391 . S
C1061 N1060 1.388 . S
Co1062 O1064 2.143 . S
Co1062 O1070 2.074 . S
Co1062 O1073 2.093 . S
Co1062 O1086 2.097 . S
Co1062 N1103 2.151 . S
Co1062 N1111 2.214 . S
Co1063 O1064 2.160 . S
Co1063 O1069 2.058 . S
Co1063 O1079 2.057 . S
Co1063 O1094 2.037 . S
Co1063 N1098 2.144 . S
Co1063 N1119 2.257 . S
O1064 Co1062 2.143 . S
O1064 Co1063 2.160 . S
C1065 O1066 1.278 . S
C1065 O1073 1.224 . S
O1066 C1065 1.278 . S
C1067 O1068 1.245 . S
C1067 O1079 1.232 . S
O1068 C1067 1.245 . S
O1069 Co1063 2.058 . S
O1069 C1095 1.269 . S
O1070 Co1062 2.074 . S
O1070 C1095 1.257 . S
H1071 C1096 0.930 . S
H1072 C1102 0.930 . S
O1073 Co1062 2.093 . S
O1073 C1065 1.224 . S
H1074 C1106 0.929 . S
H1075 C1108 0.930 . S
H1076 C1109 0.930 . S
H1077 C1107 0.929 . S
H1078 C1110 0.928 . S
O1079 Co1063 2.057 . S
O1079 C1067 1.232 . S
H1080 C1099 0.929 . S
H1081 C1100 0.929 . S
H1082 C1112 0.931 . S
H1083 C1104 0.929 . S
H1084 C1113 0.930 . S
H1085 C1105 0.931 . S
O1086 Co1062 2.097 . S
O1086 C1114 1.214 . S
H1087 C1115 0.929 . S
H1088 C1116 0.929 . S
H1089 C1117 0.930 . S
H1090 C1118 0.929 . S
H1091 C1120 0.930 . S
H1092 C1097 0.930 . S
H1093 C1101 0.930 . S
O1094 Co1063 2.037 . S
O1094 C1114 1.234 . S
C1095 O1069 1.269 . S
C1095 O1070 1.257 . S
C1096 H1071 0.930 . S
C1096 C1099 1.388 . S
C1096 C1101 1.418 . S
C1097 H1092 0.930 . S
C1097 C1100 1.404 . S
C1097 C1101 1.353 . S
N1098 Co1063 2.144 . S
N1098 C1099 1.397 1_554 S
N1098 C1100 1.334 1_554 S
C1099 H1080 0.929 . S
C1099 C1096 1.388 . S
C1099 N1098 1.397 1_556 S
C1100 H1081 0.929 . S
C1100 C1097 1.404 . S
C1100 N1098 1.334 1_556 S
C1101 H1093 0.930 . S
C1101 C1096 1.418 . S
C1101 C1097 1.353 . S
C1102 H1072 0.930 . S
C1102 N1103 1.330 . S
C1102 C1104 1.446 . S
N1103 Co1062 2.151 . S
N1103 C1102 1.330 . S
N1103 C1107 1.418 . S
C1104 H1083 0.929 . S
C1104 C1102 1.446 . S
C1104 C1105 1.332 . S
C1105 H1085 0.931 . S
C1105 C1104 1.332 . S
C1105 C1106 1.267 . S
C1106 H1074 0.929 . S
C1106 C1105 1.267 . S
C1106 C1107 1.251 . S
C1107 H1077 0.929 . S
C1107 N1103 1.418 . S
C1107 C1106 1.251 . S
C1108 H1075 0.930 . S
C1108 C1110 1.406 . S
C1108 C1113 1.261 . S
C1109 H1076 0.930 . S
C1109 N1111 1.325 . S
C1109 C1112 1.357 . S
C1110 H1078 0.928 . S
C1110 C1108 1.406 . S
C1110 N1111 1.261 . S
N1111 Co1062 2.214 . S
N1111 C1109 1.325 . S
N1111 C1110 1.261 . S
C1112 H1082 0.931 . S
C1112 C1109 1.357 . S
C1112 C1113 1.312 . S
C1113 H1084 0.930 . S
C1113 C1108 1.261 . S
C1113 C1112 1.312 . S
C1114 O1086 1.214 . S
C1114 O1094 1.234 . S
C1115 H1087 0.929 . S
C1115 C1118 1.391 . S
C1115 C1120 1.391 . S
C1116 H1088 0.929 . S
C1116 C1117 1.390 . S
C1116 N1119 1.391 . S
C1117 H1089 0.930 . S
C1117 C1116 1.390 . S
C1117 C1118 1.392 . S
C1118 H1090 0.929 . S
C1118 C1115 1.391 . S
C1118 C1117 1.392 . S
N1119 Co1063 2.257 . S
N1119 C1116 1.391 . S
N1119 C1120 1.388 . S
C1120 H1091 0.930 . S
C1120 C1115 1.391 . S
C1120 N1119 1.388 . S
Co1121 O1123 2.143 . S
Co1121 O1129 2.074 . S
Co1121 O1132 2.093 . S
Co1121 O1145 2.097 . S
Co1121 N1162 2.151 . S
Co1121 N1170 2.214 . S
Co1122 O1123 2.160 . S
Co1122 O1128 2.058 . S
Co1122 O1138 2.057 . S
Co1122 O1153 2.037 . S
Co1122 N1157 2.145 . S
Co1122 N1178 2.257 . S
O1123 Co1121 2.143 . S
O1123 Co1122 2.160 . S
C1124 O1125 1.278 . S
C1124 O1132 1.224 . S
O1125 C1124 1.278 . S
C1126 O1127 1.245 . S
C1126 O1138 1.232 . S
O1127 C1126 1.245 . S
O1128 Co1122 2.058 . S
O1128 C1154 1.269 . S
O1129 Co1121 2.074 . S
O1129 C1154 1.257 . S
H1130 C1155 0.930 . S
H1131 C1161 0.930 . S
O1132 Co1121 2.093 . S
O1132 C1124 1.224 . S
H1133 C1165 0.929 . S
H1134 C1167 0.930 . S
H1135 C1168 0.930 . S
H1136 C1166 0.929 . S
H1137 C1169 0.928 . S
O1138 Co1122 2.057 . S
O1138 C1126 1.232 . S
H1139 C1158 0.929 . S
H1140 C1159 0.929 . S
H1141 C1171 0.931 . S
H1142 C1163 0.929 . S
H1143 C1172 0.930 . S
H1144 C1164 0.931 . S
O1145 Co1121 2.097 . S
O1145 C1173 1.214 . S
H1146 C1174 0.929 . S
H1147 C1175 0.929 . S
H1148 C1176 0.930 . S
H1149 C1177 0.929 . S
H1150 C1179 0.930 . S
H1151 C1156 0.930 . S
H1152 C1160 0.930 . S
O1153 Co1122 2.037 . S
O1153 C1173 1.234 . S
C1154 O1128 1.269 . S
C1154 O1129 1.257 . S
C1155 H1130 0.930 . S
C1155 C1158 1.388 . S
C1155 C1160 1.418 . S
C1156 H1151 0.930 . S
C1156 C1159 1.404 . S
C1156 C1160 1.353 . S
N1157 Co1122 2.145 . S
N1157 C1158 1.397 . S
N1157 C1159 1.334 . S
C1158 H1139 0.929 . S
C1158 C1155 1.388 . S
C1158 N1157 1.397 . S
C1159 H1140 0.929 . S
C1159 C1156 1.404 . S
C1159 N1157 1.334 . S
C1160 H1152 0.930 . S
C1160 C1155 1.418 . S
C1160 C1156 1.353 . S
C1161 H1131 0.930 . S
C1161 N1162 1.330 . S
C1161 C1163 1.446 . S
N1162 Co1121 2.151 . S
N1162 C1161 1.330 . S
N1162 C1166 1.418 . S
C1163 H1142 0.929 . S
C1163 C1161 1.446 . S
C1163 C1164 1.332 . S
C1164 H1144 0.931 . S
C1164 C1163 1.332 . S
C1164 C1165 1.267 . S
C1165 H1133 0.929 . S
C1165 C1164 1.267 . S
C1165 C1166 1.251 . S
C1166 H1136 0.929 . S
C1166 N1162 1.418 . S
C1166 C1165 1.251 . S
C1167 H1134 0.930 . S
C1167 C1169 1.406 . S
C1167 C1172 1.261 . S
C1168 H1135 0.930 . S
C1168 N1170 1.325 . S
C1168 C1171 1.357 . S
C1169 H1137 0.928 . S
C1169 C1167 1.406 . S
C1169 N1170 1.261 . S
N1170 Co1121 2.214 . S
N1170 C1168 1.325 . S
N1170 C1169 1.261 . S
C1171 H1141 0.931 . S
C1171 C1168 1.357 . S
C1171 C1172 1.312 . S
C1172 H1143 0.930 . S
C1172 C1167 1.261 . S
C1172 C1171 1.312 . S
C1173 O1145 1.214 . S
C1173 O1153 1.234 . S
C1174 H1146 0.929 . S
C1174 C1177 1.391 . S
C1174 C1179 1.391 . S
C1175 H1147 0.929 . S
C1175 C1176 1.390 . S
C1175 N1178 1.391 . S
C1176 H1148 0.930 . S
C1176 C1175 1.390 . S
C1176 C1177 1.392 . S
C1177 H1149 0.929 . S
C1177 C1174 1.391 . S
C1177 C1176 1.392 . S
N1178 Co1122 2.257 . S
N1178 C1175 1.391 . S
N1178 C1179 1.388 . S
C1179 H1150 0.930 . S
C1179 C1174 1.391 . S
C1179 N1178 1.388 . S
Co1180 O1182 2.143 . S
Co1180 O1188 2.074 . S
Co1180 O1191 2.093 . S
Co1180 O1204 2.097 . S
Co1180 N1221 2.151 . S
Co1180 N1229 2.214 . S
Co1181 O1182 2.160 . S
Co1181 O1187 2.058 . S
Co1181 O1197 2.057 . S
Co1181 O1212 2.037 . S
Co1181 N1216 2.144 . S
Co1181 N1237 2.257 . S
O1182 Co1180 2.143 . S
O1182 Co1181 2.160 . S
C1183 O1184 1.278 . S
C1183 O1191 1.224 . S
O1184 C1183 1.278 . S
C1185 O1186 1.245 . S
C1185 O1197 1.232 . S
O1186 C1185 1.245 . S
O1187 Co1181 2.058 . S
O1187 C1213 1.269 . S
O1188 Co1180 2.074 . S
O1188 C1213 1.257 . S
H1189 C1214 0.930 . S
H1190 C1220 0.930 . S
O1191 Co1180 2.093 . S
O1191 C1183 1.224 . S
H1192 C1224 0.929 . S
H1193 C1226 0.930 . S
H1194 C1227 0.930 . S
H1195 C1225 0.929 . S
H1196 C1228 0.928 . S
O1197 Co1181 2.057 . S
O1197 C1185 1.232 . S
H1198 C1217 0.929 . S
H1199 C1218 0.929 . S
H1200 C1230 0.931 . S
H1201 C1222 0.929 . S
H1202 C1231 0.930 . S
H1203 C1223 0.931 . S
O1204 Co1180 2.097 . S
O1204 C1232 1.214 . S
H1205 C1233 0.929 . S
H1206 C1234 0.929 . S
H1207 C1235 0.930 . S
H1208 C1236 0.929 . S
H1209 C1238 0.930 . S
H1210 C1215 0.930 . S
H1211 C1219 0.930 . S
O1212 Co1181 2.037 . S
O1212 C1232 1.234 . S
C1213 O1187 1.269 . S
C1213 O1188 1.257 . S
C1214 H1189 0.930 . S
C1214 C1217 1.388 . S
C1214 C1219 1.418 . S
C1215 H1210 0.930 . S
C1215 C1218 1.404 . S
C1215 C1219 1.353 . S
N1216 Co1181 2.144 . S
N1216 C1217 1.397 1_554 S
N1216 C1218 1.334 1_554 S
C1217 H1198 0.929 . S
C1217 C1214 1.388 . S
C1217 N1216 1.397 1_556 S
C1218 H1199 0.929 . S
C1218 C1215 1.404 . S
C1218 N1216 1.334 1_556 S
C1219 H1211 0.930 . S
C1219 C1214 1.418 . S
C1219 C1215 1.353 . S
C1220 H1190 0.930 . S
C1220 N1221 1.330 . S
C1220 C1222 1.446 . S
N1221 Co1180 2.151 . S
N1221 C1220 1.330 . S
N1221 C1225 1.418 . S
C1222 H1201 0.929 . S
C1222 C1220 1.446 . S
C1222 C1223 1.332 . S
C1223 H1203 0.931 . S
C1223 C1222 1.332 . S
C1223 C1224 1.267 . S
C1224 H1192 0.929 . S
C1224 C1223 1.267 . S
C1224 C1225 1.251 . S
C1225 H1195 0.929 . S
C1225 N1221 1.418 . S
C1225 C1224 1.251 . S
C1226 H1193 0.930 . S
C1226 C1228 1.406 . S
C1226 C1231 1.261 . S
C1227 H1194 0.930 . S
C1227 N1229 1.325 . S
C1227 C1230 1.357 . S
C1228 H1196 0.928 . S
C1228 C1226 1.406 . S
C1228 N1229 1.261 . S
N1229 Co1180 2.214 . S
N1229 C1227 1.325 . S
N1229 C1228 1.261 . S
C1230 H1200 0.931 . S
C1230 C1227 1.357 . S
C1230 C1231 1.312 . S
C1231 H1202 0.930 . S
C1231 C1226 1.261 . S
C1231 C1230 1.312 . S
C1232 O1204 1.214 . S
C1232 O1212 1.234 . S
C1233 H1205 0.929 . S
C1233 C1236 1.391 . S
C1233 C1238 1.391 . S
C1234 H1206 0.929 . S
C1234 C1235 1.390 . S
C1234 N1237 1.391 . S
C1235 H1207 0.930 . S
C1235 C1234 1.390 . S
C1235 C1236 1.392 . S
C1236 H1208 0.929 . S
C1236 C1233 1.391 . S
C1236 C1235 1.392 . S
N1237 Co1181 2.257 . S
N1237 C1234 1.391 . S
N1237 C1238 1.388 . S
C1238 H1209 0.930 . S
C1238 C1233 1.391 . S
C1238 N1237 1.388 . S
Co1239 O1241 2.143 . S
Co1239 O1247 2.074 . S
Co1239 O1250 2.093 . S
Co1239 O1263 2.097 . S
Co1239 N1280 2.151 . S
Co1239 N1288 2.214 . S
Co1240 O1241 2.160 . S
Co1240 O1246 2.058 . S
Co1240 O1256 2.057 . S
Co1240 O1271 2.037 . S
Co1240 N1275 2.145 . S
Co1240 N1296 2.257 . S
O1241 Co1239 2.143 . S
O1241 Co1240 2.160 . S
C1242 O1243 1.278 . S
C1242 O1250 1.224 . S
O1243 C1242 1.278 . S
C1244 O1245 1.245 . S
C1244 O1256 1.232 . S
O1245 C1244 1.245 . S
O1246 Co1240 2.058 . S
O1246 C1272 1.269 . S
O1247 Co1239 2.074 . S
O1247 C1272 1.257 . S
H1248 C1273 0.930 . S
H1249 C1279 0.930 . S
O1250 Co1239 2.093 . S
O1250 C1242 1.224 . S
H1251 C1283 0.929 . S
H1252 C1285 0.930 . S
H1253 C1286 0.930 . S
H1254 C1284 0.929 . S
H1255 C1287 0.928 . S
O1256 Co1240 2.057 . S
O1256 C1244 1.232 . S
H1257 C1276 0.929 . S
H1258 C1277 0.929 . S
H1259 C1289 0.931 . S
H1260 C1281 0.929 . S
H1261 C1290 0.930 . S
H1262 C1282 0.931 . S
O1263 Co1239 2.097 . S
O1263 C1291 1.214 . S
H1264 C1292 0.929 . S
H1265 C1293 0.929 . S
H1266 C1294 0.930 . S
H1267 C1295 0.929 . S
H1268 C1297 0.930 . S
H1269 C1274 0.930 . S
H1270 C1278 0.930 . S
O1271 Co1240 2.037 . S
O1271 C1291 1.234 . S
C1272 O1246 1.269 . S
C1272 O1247 1.257 . S
C1273 H1248 0.930 . S
C1273 C1276 1.388 . S
C1273 C1278 1.418 . S
C1274 H1269 0.930 . S
C1274 C1277 1.404 . S
C1274 C1278 1.353 . S
N1275 Co1240 2.145 . S
N1275 C1276 1.397 . S
N1275 C1277 1.334 . S
C1276 H1257 0.929 . S
C1276 C1273 1.388 . S
C1276 N1275 1.397 . S
C1277 H1258 0.929 . S
C1277 C1274 1.404 . S
C1277 N1275 1.334 . S
C1278 H1270 0.930 . S
C1278 C1273 1.418 . S
C1278 C1274 1.353 . S
C1279 H1249 0.930 . S
C1279 N1280 1.330 . S
C1279 C1281 1.446 . S
N1280 Co1239 2.151 . S
N1280 C1279 1.330 . S
N1280 C1284 1.418 . S
C1281 H1260 0.929 . S
C1281 C1279 1.446 . S
C1281 C1282 1.332 . S
C1282 H1262 0.931 . S
C1282 C1281 1.332 . S
C1282 C1283 1.267 . S
C1283 H1251 0.929 . S
C1283 C1282 1.267 . S
C1283 C1284 1.251 . S
C1284 H1254 0.929 . S
C1284 N1280 1.418 . S
C1284 C1283 1.251 . S
C1285 H1252 0.930 . S
C1285 C1287 1.406 . S
C1285 C1290 1.261 . S
C1286 H1253 0.930 . S
C1286 N1288 1.325 . S
C1286 C1289 1.357 . S
C1287 H1255 0.928 . S
C1287 C1285 1.406 . S
C1287 N1288 1.261 . S
N1288 Co1239 2.214 . S
N1288 C1286 1.325 . S
N1288 C1287 1.261 . S
C1289 H1259 0.931 . S
C1289 C1286 1.357 . S
C1289 C1290 1.312 . S
C1290 H1261 0.930 . S
C1290 C1285 1.261 . S
C1290 C1289 1.312 . S
C1291 O1263 1.214 . S
C1291 O1271 1.234 . S
C1292 H1264 0.929 . S
C1292 C1295 1.391 . S
C1292 C1297 1.391 . S
C1293 H1265 0.929 . S
C1293 C1294 1.390 . S
C1293 N1296 1.391 . S
C1294 H1266 0.930 . S
C1294 C1293 1.390 . S
C1294 C1295 1.392 . S
C1295 H1267 0.929 . S
C1295 C1292 1.391 . S
C1295 C1294 1.392 . S
N1296 Co1240 2.257 . S
N1296 C1293 1.391 . S
N1296 C1297 1.388 . S
C1297 H1268 0.930 . S
C1297 C1292 1.391 . S
C1297 N1296 1.388 . S
Co1298 O1300 2.143 . S
Co1298 O1306 2.074 . S
Co1298 O1309 2.093 . S
Co1298 O1322 2.097 . S
Co1298 N1339 2.151 . S
Co1298 N1347 2.214 . S
Co1299 O1300 2.160 . S
Co1299 O1305 2.058 . S
Co1299 O1315 2.057 . S
Co1299 O1330 2.037 . S
Co1299 N1334 2.144 . S
Co1299 N1355 2.257 . S
O1300 Co1298 2.143 . S
O1300 Co1299 2.160 . S
C1301 O1302 1.278 . S
C1301 O1309 1.224 . S
O1302 C1301 1.278 . S
C1303 O1304 1.245 . S
C1303 O1315 1.232 . S
O1304 C1303 1.245 . S
O1305 Co1299 2.058 . S
O1305 C1331 1.269 . S
O1306 Co1298 2.074 . S
O1306 C1331 1.257 . S
H1307 C1332 0.930 . S
H1308 C1338 0.930 . S
O1309 Co1298 2.093 . S
O1309 C1301 1.224 . S
H1310 C1342 0.929 . S
H1311 C1344 0.930 . S
H1312 C1345 0.930 . S
H1313 C1343 0.929 . S
H1314 C1346 0.928 . S
O1315 Co1299 2.057 . S
O1315 C1303 1.232 . S
H1316 C1335 0.929 . S
H1317 C1336 0.929 . S
H1318 C1348 0.931 . S
H1319 C1340 0.929 . S
H1320 C1349 0.930 . S
H1321 C1341 0.931 . S
O1322 Co1298 2.097 . S
O1322 C1350 1.214 . S
H1323 C1351 0.929 . S
H1324 C1352 0.929 . S
H1325 C1353 0.930 . S
H1326 C1354 0.929 . S
H1327 C1356 0.930 . S
H1328 C1333 0.930 . S
H1329 C1337 0.930 . S
O1330 Co1299 2.037 . S
O1330 C1350 1.234 . S
C1331 O1305 1.269 . S
C1331 O1306 1.257 . S
C1332 H1307 0.930 . S
C1332 C1335 1.388 . S
C1332 C1337 1.418 . S
C1333 H1328 0.930 . S
C1333 C1336 1.404 . S
C1333 C1337 1.353 . S
N1334 Co1299 2.144 . S
N1334 C1335 1.397 1_554 S
N1334 C1336 1.334 1_554 S
C1335 H1316 0.929 . S
C1335 C1332 1.388 . S
C1335 N1334 1.397 1_556 S
C1336 H1317 0.929 . S
C1336 C1333 1.404 . S
C1336 N1334 1.334 1_556 S
C1337 H1329 0.930 . S
C1337 C1332 1.418 . S
C1337 C1333 1.353 . S
C1338 H1308 0.930 . S
C1338 N1339 1.330 . S
C1338 C1340 1.446 . S
N1339 Co1298 2.151 . S
N1339 C1338 1.330 . S
N1339 C1343 1.418 . S
C1340 H1319 0.929 . S
C1340 C1338 1.446 . S
C1340 C1341 1.332 . S
C1341 H1321 0.931 . S
C1341 C1340 1.332 . S
C1341 C1342 1.267 . S
C1342 H1310 0.929 . S
C1342 C1341 1.267 . S
C1342 C1343 1.251 . S
C1343 H1313 0.929 . S
C1343 N1339 1.418 . S
C1343 C1342 1.251 . S
C1344 H1311 0.930 . S
C1344 C1346 1.406 . S
C1344 C1349 1.261 . S
C1345 H1312 0.930 . S
C1345 N1347 1.325 . S
C1345 C1348 1.357 . S
C1346 H1314 0.928 . S
C1346 C1344 1.406 . S
C1346 N1347 1.261 . S
N1347 Co1298 2.214 . S
N1347 C1345 1.325 . S
N1347 C1346 1.261 . S
C1348 H1318 0.931 . S
C1348 C1345 1.357 . S
C1348 C1349 1.312 . S
C1349 H1320 0.930 . S
C1349 C1344 1.261 . S
C1349 C1348 1.312 . S
C1350 O1322 1.214 . S
C1350 O1330 1.234 . S
C1351 H1323 0.929 . S
C1351 C1354 1.391 . S
C1351 C1356 1.391 . S
C1352 H1324 0.929 . S
C1352 C1353 1.390 . S
C1352 N1355 1.391 . S
C1353 H1325 0.930 . S
C1353 C1352 1.390 . S
C1353 C1354 1.392 . S
C1354 H1326 0.929 . S
C1354 C1351 1.391 . S
C1354 C1353 1.392 . S
N1355 Co1299 2.257 . S
N1355 C1352 1.391 . S
N1355 C1356 1.388 . S
C1356 H1327 0.930 . S
C1356 C1351 1.391 . S
C1356 N1355 1.388 . S
Co1357 O1359 2.143 . S
Co1357 O1365 2.074 . S
Co1357 O1368 2.093 . S
Co1357 O1381 2.097 . S
Co1357 N1398 2.151 . S
Co1357 N1406 2.214 . S
Co1358 O1359 2.160 . S
Co1358 O1364 2.058 . S
Co1358 O1374 2.057 . S
Co1358 O1389 2.037 . S
Co1358 N1393 2.145 . S
Co1358 N1414 2.257 . S
O1359 Co1357 2.143 . S
O1359 Co1358 2.160 . S
C1360 O1361 1.278 . S
C1360 O1368 1.224 . S
O1361 C1360 1.278 . S
C1362 O1363 1.245 . S
C1362 O1374 1.232 . S
O1363 C1362 1.245 . S
O1364 Co1358 2.058 . S
O1364 C1390 1.269 . S
O1365 Co1357 2.074 . S
O1365 C1390 1.257 . S
H1366 C1391 0.930 . S
H1367 C1397 0.930 . S
O1368 Co1357 2.093 . S
O1368 C1360 1.224 . S
H1369 C1401 0.929 . S
H1370 C1403 0.930 . S
H1371 C1404 0.930 . S
H1372 C1402 0.929 . S
H1373 C1405 0.928 . S
O1374 Co1358 2.057 . S
O1374 C1362 1.232 . S
H1375 C1394 0.929 . S
H1376 C1395 0.929 . S
H1377 C1407 0.931 . S
H1378 C1399 0.929 . S
H1379 C1408 0.930 . S
H1380 C1400 0.931 . S
O1381 Co1357 2.097 . S
O1381 C1409 1.214 . S
H1382 C1410 0.929 . S
H1383 C1411 0.929 . S
H1384 C1412 0.930 . S
H1385 C1413 0.929 . S
H1386 C1415 0.930 . S
H1387 C1392 0.930 . S
H1388 C1396 0.930 . S
O1389 Co1358 2.037 . S
O1389 C1409 1.234 . S
C1390 O1364 1.269 . S
C1390 O1365 1.257 . S
C1391 H1366 0.930 . S
C1391 C1394 1.388 . S
C1391 C1396 1.418 . S
C1392 H1387 0.930 . S
C1392 C1395 1.404 . S
C1392 C1396 1.353 . S
N1393 Co1358 2.145 . S
N1393 C1394 1.397 . S
N1393 C1395 1.334 . S
C1394 H1375 0.929 . S
C1394 C1391 1.388 . S
C1394 N1393 1.397 . S
C1395 H1376 0.929 . S
C1395 C1392 1.404 . S
C1395 N1393 1.334 . S
C1396 H1388 0.930 . S
C1396 C1391 1.418 . S
C1396 C1392 1.353 . S
C1397 H1367 0.930 . S
C1397 N1398 1.330 . S
C1397 C1399 1.446 . S
N1398 Co1357 2.151 . S
N1398 C1397 1.330 . S
N1398 C1402 1.418 . S
C1399 H1378 0.929 . S
C1399 C1397 1.446 . S
C1399 C1400 1.332 . S
C1400 H1380 0.931 . S
C1400 C1399 1.332 . S
C1400 C1401 1.267 . S
C1401 H1369 0.929 . S
C1401 C1400 1.267 . S
C1401 C1402 1.251 . S
C1402 H1372 0.929 . S
C1402 N1398 1.418 . S
C1402 C1401 1.251 . S
C1403 H1370 0.930 . S
C1403 C1405 1.406 . S
C1403 C1408 1.261 . S
C1404 H1371 0.930 . S
C1404 N1406 1.325 . S
C1404 C1407 1.357 . S
C1405 H1373 0.928 . S
C1405 C1403 1.406 . S
C1405 N1406 1.261 . S
N1406 Co1357 2.214 . S
N1406 C1404 1.325 . S
N1406 C1405 1.261 . S
C1407 H1377 0.931 . S
C1407 C1404 1.357 . S
C1407 C1408 1.312 . S
C1408 H1379 0.930 . S
C1408 C1403 1.261 . S
C1408 C1407 1.312 . S
C1409 O1381 1.214 . S
C1409 O1389 1.234 . S
C1410 H1382 0.929 . S
C1410 C1413 1.391 . S
C1410 C1415 1.391 . S
C1411 H1383 0.929 . S
C1411 C1412 1.390 . S
C1411 N1414 1.391 . S
C1412 H1384 0.930 . S
C1412 C1411 1.390 . S
C1412 C1413 1.392 . S
C1413 H1385 0.929 . S
C1413 C1410 1.391 . S
C1413 C1412 1.392 . S
N1414 Co1358 2.257 . S
N1414 C1411 1.391 . S
N1414 C1415 1.388 . S
C1415 H1386 0.930 . S
C1415 C1410 1.391 . S
C1415 N1414 1.388 . S
H1416 C1422 0.930 . S
H1417 C1425 0.930 . S
H1418 C1426 0.930 . S
H1419 C1427 0.930 . S
H1420 C1430 0.930 . S
H1421 C1431 0.930 . S
C1422 H1416 0.930 . S
C1422 C1423 1.355 . S
C1422 C1424 1.415 . S
C1423 C1422 1.355 . S
C1423 C1425 1.419 . S
C1424 C1422 1.415 . S
C1424 C1429 1.425 . S
C1424 C1431 1.409 . S
C1425 H1417 0.930 . S
C1425 C1423 1.419 . S
C1425 C1426 1.362 . S
C1426 H1418 0.930 . S
C1426 C1425 1.362 . S
C1426 C1429 1.409 . S
C1427 H1419 0.930 . S
C1427 C1428 1.355 . S
C1427 C1429 1.415 . S
C1428 C1427 1.355 . S
C1428 C1430 1.419 . S
C1429 C1424 1.425 . S
C1429 C1426 1.409 . S
C1429 C1427 1.415 . S
C1430 H1420 0.930 . S
C1430 C1428 1.419 . S
C1430 C1431 1.362 . S
C1431 H1421 0.930 . S
C1431 C1424 1.409 . S
C1431 C1430 1.362 . S
H1432 C1438 0.930 . S
H1433 C1441 0.930 . S
H1434 C1442 0.930 . S
H1435 C1443 0.930 . S
H1436 C1446 0.930 . S
H1437 C1447 0.930 . S
C1438 H1432 0.930 . S
C1438 C1439 1.355 . S
C1438 C1440 1.415 . S
C1439 C1438 1.355 . S
C1439 C1441 1.419 . S
C1440 C1438 1.415 . S
C1440 C1445 1.425 . S
C1440 C1447 1.409 . S
C1441 H1433 0.930 . S
C1441 C1439 1.419 . S
C1441 C1442 1.362 . S
C1442 H1434 0.930 . S
C1442 C1441 1.362 . S
C1442 C1445 1.409 . S
C1443 H1435 0.930 . S
C1443 C1444 1.355 . S
C1443 C1445 1.415 . S
C1444 C1443 1.355 . S
C1444 C1446 1.419 . S
C1445 C1440 1.425 . S
C1445 C1442 1.409 . S
C1445 C1443 1.415 . S
C1446 H1436 0.930 . S
C1446 C1444 1.419 . S
C1446 C1447 1.362 . S
C1447 H1437 0.930 . S
C1447 C1440 1.409 . S
C1447 C1446 1.362 . S
H1448 C1454 0.930 . S
H1449 C1457 0.930 . S
H1450 C1458 0.930 . S
H1451 C1459 0.930 . S
H1452 C1462 0.930 . S
H1453 C1463 0.930 . S
C1454 H1448 0.930 . S
C1454 C1455 1.355 . S
C1454 C1456 1.415 . S
C1455 C1454 1.355 . S
C1455 C1457 1.419 . S
C1456 C1454 1.415 . S
C1456 C1461 1.425 . S
C1456 C1463 1.409 . S
C1457 H1449 0.930 . S
C1457 C1455 1.419 . S
C1457 C1458 1.362 . S
C1458 H1450 0.930 . S
C1458 C1457 1.362 . S
C1458 C1461 1.409 . S
C1459 H1451 0.930 . S
C1459 C1460 1.355 . S
C1459 C1461 1.415 . S
C1460 C1459 1.355 . S
C1460 C1462 1.419 . S
C1461 C1456 1.425 . S
C1461 C1458 1.409 . S
C1461 C1459 1.415 . S
C1462 H1452 0.930 . S
C1462 C1460 1.419 . S
C1462 C1463 1.362 . S
C1463 H1453 0.930 . S
C1463 C1456 1.409 . S
C1463 C1462 1.362 . S
H1464 C1470 0.930 . S
H1465 C1473 0.930 . S
H1466 C1474 0.930 . S
H1467 C1475 0.930 . S
H1468 C1478 0.930 . S
H1469 C1479 0.930 . S
C1470 H1464 0.930 . S
C1470 C1471 1.355 . S
C1470 C1472 1.415 . S
C1471 C1470 1.355 . S
C1471 C1473 1.419 . S
C1472 C1470 1.415 . S
C1472 C1477 1.425 . S
C1472 C1479 1.409 . S
C1473 H1465 0.930 . S
C1473 C1471 1.419 . S
C1473 C1474 1.362 . S
C1474 H1466 0.930 . S
C1474 C1473 1.362 . S
C1474 C1477 1.409 . S
C1475 H1467 0.930 . S
C1475 C1476 1.355 . S
C1475 C1477 1.415 . S
C1476 C1475 1.355 . S
C1476 C1478 1.419 . S
C1477 C1472 1.425 . S
C1477 C1474 1.409 . S
C1477 C1475 1.415 . S
C1478 H1468 0.930 . S
C1478 C1476 1.419 . S
C1478 C1479 1.362 . S
C1479 H1469 0.930 . S
C1479 C1472 1.409 . S
C1479 C1478 1.362 . S
H1480 C1486 0.930 . S
H1481 C1489 0.930 . S
H1482 C1490 0.930 . S
H1483 C1491 0.930 . S
H1484 C1494 0.930 . S
H1485 C1495 0.930 . S
C1486 H1480 0.930 . S
C1486 C1487 1.355 . S
C1486 C1488 1.415 . S
C1487 C1486 1.355 . S
C1487 C1489 1.419 . S
C1488 C1486 1.415 . S
C1488 C1493 1.425 . S
C1488 C1495 1.409 . S
C1489 H1481 0.930 . S
C1489 C1487 1.419 . S
C1489 C1490 1.362 . S
C1490 H1482 0.930 . S
C1490 C1489 1.362 . S
C1490 C1493 1.409 . S
C1491 H1483 0.930 . S
C1491 C1492 1.355 . S
C1491 C1493 1.415 . S
C1492 C1491 1.355 . S
C1492 C1494 1.419 . S
C1493 C1488 1.425 . S
C1493 C1490 1.409 . S
C1493 C1491 1.415 . S
C1494 H1484 0.930 . S
C1494 C1492 1.419 . S
C1494 C1495 1.362 . S
C1495 H1485 0.930 . S
C1495 C1488 1.409 . S
C1495 C1494 1.362 . S
H1496 C1502 0.930 . S
H1497 C1505 0.930 . S
H1498 C1506 0.930 . S
H1499 C1507 0.930 . S
H1500 C1510 0.930 . S
H1501 C1511 0.930 . S
C1502 H1496 0.930 . S
C1502 C1503 1.355 . S
C1502 C1504 1.415 . S
C1503 C1502 1.355 . S
C1503 C1505 1.419 . S
C1504 C1502 1.415 . S
C1504 C1509 1.425 . S
C1504 C1511 1.409 . S
C1505 H1497 0.930 . S
C1505 C1503 1.419 . S
C1505 C1506 1.362 . S
C1506 H1498 0.930 . S
C1506 C1505 1.362 . S
C1506 C1509 1.409 . S
C1507 H1499 0.930 . S
C1507 C1508 1.355 . S
C1507 C1509 1.415 . S
C1508 C1507 1.355 . S
C1508 C1510 1.419 . S
C1509 C1504 1.425 . S
C1509 C1506 1.409 . S
C1509 C1507 1.415 . S
C1510 H1500 0.930 . S
C1510 C1508 1.419 . S
C1510 C1511 1.362 . S
C1511 H1501 0.930 . S
C1511 C1504 1.409 . S
C1511 C1510 1.362 . S
H1512 C1518 0.930 . S
H1513 C1521 0.930 . S
H1514 C1522 0.930 . S
H1515 C1523 0.930 . S
H1516 C1526 0.930 . S
H1517 C1527 0.930 . S
C1518 H1512 0.930 . S
C1518 C1519 1.355 . S
C1518 C1520 1.415 . S
C1519 C1518 1.355 . S
C1519 C1521 1.419 . S
C1520 C1518 1.415 . S
C1520 C1525 1.425 . S
C1520 C1527 1.409 . S
C1521 H1513 0.930 . S
C1521 C1519 1.419 . S
C1521 C1522 1.362 . S
C1522 H1514 0.930 . S
C1522 C1521 1.362 . S
C1522 C1525 1.409 . S
C1523 H1515 0.930 . S
C1523 C1524 1.355 . S
C1523 C1525 1.415 . S
C1524 C1523 1.355 . S
C1524 C1526 1.419 . S
C1525 C1520 1.425 . S
C1525 C1522 1.409 . S
C1525 C1523 1.415 . S
C1526 H1516 0.930 . S
C1526 C1524 1.419 . S
C1526 C1527 1.362 . S
C1527 H1517 0.930 . S
C1527 C1520 1.409 . S
C1527 C1526 1.362 . S
H1528 C1534 0.930 . S
H1529 C1537 0.930 . S
H1530 C1538 0.930 . S
H1531 C1539 0.930 . S
H1532 C1542 0.930 . S
H1533 C1543 0.930 . S
C1534 H1528 0.930 . S
C1534 C1535 1.355 . S
C1534 C1536 1.415 . S
C1535 C1534 1.355 . S
C1535 C1537 1.419 . S
C1536 C1534 1.415 . S
C1536 C1541 1.425 . S
C1536 C1543 1.409 . S
C1537 H1529 0.930 . S
C1537 C1535 1.419 . S
C1537 C1538 1.362 . S
C1538 H1530 0.930 . S
C1538 C1537 1.362 . S
C1538 C1541 1.409 . S
C1539 H1531 0.930 . S
C1539 C1540 1.355 . S
C1539 C1541 1.415 . S
C1540 C1539 1.355 . S
C1540 C1542 1.419 . S
C1541 C1536 1.425 . S
C1541 C1538 1.409 . S
C1541 C1539 1.415 . S
C1542 H1532 0.930 . S
C1542 C1540 1.419 . S
C1542 C1543 1.362 . S
C1543 H1533 0.930 . S
C1543 C1536 1.409 . S
C1543 C1542 1.362 . S
H1544 C1550 0.930 . S
H1545 C1553 0.930 . S
H1546 C1554 0.930 . S
H1547 C1555 0.930 . S
H1548 C1558 0.930 . S
H1549 C1559 0.930 . S
C1550 H1544 0.930 . S
C1550 C1551 1.355 . S
C1550 C1552 1.415 . S
C1551 C1550 1.355 . S
C1551 C1553 1.419 . S
C1552 C1550 1.415 . S
C1552 C1557 1.425 . S
C1552 C1559 1.409 . S
C1553 H1545 0.930 . S
C1553 C1551 1.419 . S
C1553 C1554 1.362 . S
C1554 H1546 0.930 . S
C1554 C1553 1.362 . S
C1554 C1557 1.409 . S
C1555 H1547 0.930 . S
C1555 C1556 1.355 . S
C1555 C1557 1.415 . S
C1556 C1555 1.355 . S
C1556 C1558 1.419 . S
C1557 C1552 1.425 . S
C1557 C1554 1.409 . S
C1557 C1555 1.415 . S
C1558 H1548 0.930 . S
C1558 C1556 1.419 . S
C1558 C1559 1.362 . S
C1559 H1549 0.930 . S
C1559 C1552 1.409 . S
C1559 C1558 1.362 . S
H1560 C1566 0.930 . S
H1561 C1569 0.930 . S
H1562 C1570 0.930 . S
H1563 C1571 0.930 . S
H1564 C1574 0.930 . S
H1565 C1575 0.930 . S
C1566 H1560 0.930 . S
C1566 C1567 1.355 . S
C1566 C1568 1.415 . S
C1567 C1566 1.355 . S
C1567 C1569 1.419 . S
C1568 C1566 1.415 . S
C1568 C1573 1.425 . S
C1568 C1575 1.409 . S
C1569 H1561 0.930 . S
C1569 C1567 1.419 . S
C1569 C1570 1.362 . S
C1570 H1562 0.930 . S
C1570 C1569 1.362 . S
C1570 C1573 1.409 . S
C1571 H1563 0.930 . S
C1571 C1572 1.355 . S
C1571 C1573 1.415 . S
C1572 C1571 1.355 . S
C1572 C1574 1.419 . S
C1573 C1568 1.425 . S
C1573 C1570 1.409 . S
C1573 C1571 1.415 . S
C1574 H1564 0.930 . S
C1574 C1572 1.419 . S
C1574 C1575 1.362 . S
C1575 H1565 0.930 . S
C1575 C1568 1.409 . S
C1575 C1574 1.362 . S
H1576 C1582 0.930 . S
H1577 C1585 0.930 . S
H1578 C1586 0.930 . S
H1579 C1587 0.930 . S
H1580 C1590 0.930 . S
H1581 C1591 0.930 . S
C1582 H1576 0.930 . S
C1582 C1583 1.355 . S
C1582 C1584 1.415 . S
C1583 C1582 1.355 . S
C1583 C1585 1.419 . S
C1584 C1582 1.415 . S
C1584 C1589 1.425 . S
C1584 C1591 1.409 . S
C1585 H1577 0.930 . S
C1585 C1583 1.419 . S
C1585 C1586 1.362 . S
C1586 H1578 0.930 . S
C1586 C1585 1.362 . S
C1586 C1589 1.409 . S
C1587 H1579 0.930 . S
C1587 C1588 1.355 . S
C1587 C1589 1.415 . S
C1588 C1587 1.355 . S
C1588 C1590 1.419 . S
C1589 C1584 1.425 . S
C1589 C1586 1.409 . S
C1589 C1587 1.415 . S
C1590 H1580 0.930 . S
C1590 C1588 1.419 . S
C1590 C1591 1.362 . S
C1591 H1581 0.930 . S
C1591 C1584 1.409 . S
C1591 C1590 1.362 . S
H1592 C1598 0.930 . S
H1593 C1601 0.930 . S
H1594 C1602 0.930 . S
H1595 C1603 0.930 . S
H1596 C1606 0.930 . S
H1597 C1607 0.930 . S
C1598 H1592 0.930 . S
C1598 C1599 1.355 . S
C1598 C1600 1.415 . S
C1599 C1598 1.355 . S
C1599 C1601 1.419 . S
C1600 C1598 1.415 . S
C1600 C1605 1.425 . S
C1600 C1607 1.409 . S
C1601 H1593 0.930 . S
C1601 C1599 1.419 . S
C1601 C1602 1.362 . S
C1602 H1594 0.930 . S
C1602 C1601 1.362 . S
C1602 C1605 1.409 . S
C1603 H1595 0.930 . S
C1603 C1604 1.355 . S
C1603 C1605 1.415 . S
C1604 C1603 1.355 . S
C1604 C1606 1.419 . S
C1605 C1600 1.425 . S
C1605 C1602 1.409 . S
C1605 C1603 1.415 . S
C1606 H1596 0.930 . S
C1606 C1604 1.419 . S
C1606 C1607 1.362 . S
C1607 H1597 0.930 . S
C1607 C1600 1.409 . S
C1607 C1606 1.362 . S
H1608 C1614 0.930 1_554 S
H1609 C1617 0.930 . S
H1610 C1618 0.930 . S
H1611 C1619 0.930 1_556 S
H1612 C1622 0.930 . S
H1613 C1623 0.930 . S
C1614 H1608 0.930 1_556 S
C1614 C1615 1.355 . S
C1614 C1616 1.415 1_556 S
C1615 C1614 1.355 . S
C1615 C1617 1.419 . S
C1616 C1614 1.415 1_554 S
C1616 C1621 1.425 1_554 S
C1616 C1623 1.409 . S
C1617 H1609 0.930 . S
C1617 C1615 1.419 . S
C1617 C1618 1.362 . S
C1618 H1610 0.930 . S
C1618 C1617 1.362 . S
C1618 C1621 1.409 . S
C1619 H1611 0.930 1_554 S
C1619 C1620 1.355 . S
C1619 C1621 1.415 1_554 S
C1620 C1619 1.355 . S
C1620 C1622 1.419 . S
C1621 C1616 1.425 1_556 S
C1621 C1618 1.409 . S
C1621 C1619 1.415 1_556 S
C1622 H1612 0.930 . S
C1622 C1620 1.419 . S
C1622 C1623 1.362 . S
C1623 H1613 0.930 . S
C1623 C1616 1.409 . S
C1623 C1622 1.362 . S
H1624 C1630 0.930 . S
H1625 C1633 0.930 . S
H1626 C1634 0.930 . S
H1627 C1635 0.930 . S
H1628 C1638 0.930 . S
H1629 C1639 0.930 . S
C1630 H1624 0.930 . S
C1630 C1631 1.355 . S
C1630 C1632 1.415 . S
C1631 C1630 1.355 . S
C1631 C1633 1.419 . S
C1632 C1630 1.415 . S
C1632 C1637 1.425 . S
C1632 C1639 1.409 . S
C1633 H1625 0.930 . S
C1633 C1631 1.419 . S
C1633 C1634 1.362 . S
C1634 H1626 0.930 . S
C1634 C1633 1.362 . S
C1634 C1637 1.409 . S
C1635 H1627 0.930 . S
C1635 C1636 1.355 . S
C1635 C1637 1.415 . S
C1636 C1635 1.355 . S
C1636 C1638 1.419 . S
C1637 C1632 1.425 . S
C1637 C1634 1.409 . S
C1637 C1635 1.415 . S
C1638 H1628 0.930 . S
C1638 C1636 1.419 . S
C1638 C1639 1.362 . S
C1639 H1629 0.930 . S
C1639 C1632 1.409 . S
C1639 C1638 1.362 . S
H1640 C1646 0.930 . S
H1641 C1649 0.930 . S
H1642 C1650 0.930 . S
H1643 C1651 0.930 . S
H1644 C1654 0.930 . S
H1645 C1655 0.930 . S
C1646 H1640 0.930 . S
C1646 C1647 1.355 . S
C1646 C1648 1.426 . S
C1647 C1646 1.355 . S
C1647 C1649 1.419 . S
C1648 C1646 1.426 . S
C1648 C1653 1.424 1_554 S
C1648 C1655 1.399 1_554 S
C1649 H1641 0.930 . S
C1649 C1647 1.419 . S
C1649 C1650 1.362 . S
C1650 H1642 0.930 . S
C1650 C1649 1.362 . S
C1650 C1653 1.399 1_554 S
C1651 H1643 0.930 . S
C1651 C1652 1.355 . S
C1651 C1653 1.426 . S
C1652 C1651 1.355 . S
C1652 C1654 1.419 . S
C1653 C1648 1.424 1_556 S
C1653 C1650 1.399 1_556 S
C1653 C1651 1.426 . S
C1654 H1644 0.930 . S
C1654 C1652 1.419 . S
C1654 C1655 1.362 . S
C1655 H1645 0.930 . S
C1655 C1648 1.399 1_556 S
C1655 C1654 1.362 . S
H1656 C1662 0.930 . S
H1657 C1665 0.930 . S
H1658 C1666 0.930 . S
H1659 C1667 0.930 . S
H1660 C1670 0.930 . S
H1661 C1671 0.930 . S
C1662 H1656 0.930 . S
C1662 C1663 1.355 . S
C1662 C1664 1.415 . S
C1663 C1662 1.355 . S
C1663 C1665 1.419 . S
C1664 C1662 1.415 . S
C1664 C1669 1.425 . S
C1664 C1671 1.409 . S
C1665 H1657 0.930 . S
C1665 C1663 1.419 . S
C1665 C1666 1.362 . S
C1666 H1658 0.930 . S
C1666 C1665 1.362 . S
C1666 C1669 1.409 . S
C1667 H1659 0.930 . S
C1667 C1668 1.355 . S
C1667 C1669 1.415 . S
C1668 C1667 1.355 . S
C1668 C1670 1.419 . S
C1669 C1664 1.425 . S
C1669 C1666 1.409 . S
C1669 C1667 1.415 . S
C1670 H1660 0.930 . S
C1670 C1668 1.419 . S
C1670 C1671 1.362 . S
C1671 H1661 0.930 . S
C1671 C1664 1.409 . S
C1671 C1670 1.362 . S
H1672 C1678 0.930 . S
H1673 C1681 0.930 . S
H1674 C1682 0.930 . S
H1675 C1683 0.930 . S
H1676 C1686 0.930 . S
H1677 C1687 0.930 . S
C1678 H1672 0.930 . S
C1678 C1679 1.355 . S
C1678 C1680 1.414 1_556 S
C1679 C1678 1.355 . S
C1679 C1681 1.419 . S
C1680 C1678 1.414 1_554 S
C1680 C1685 1.425 1_554 S
C1680 C1687 1.410 . S
C1681 H1673 0.930 . S
C1681 C1679 1.419 . S
C1681 C1682 1.362 . S
C1682 H1674 0.930 . S
C1682 C1681 1.362 . S
C1682 C1685 1.410 . S
C1683 H1675 0.930 . S
C1683 C1684 1.355 . S
C1683 C1685 1.414 1_554 S
C1684 C1683 1.355 . S
C1684 C1686 1.419 . S
C1685 C1680 1.425 1_556 S
C1685 C1682 1.410 . S
C1685 C1683 1.414 1_556 S
C1686 H1676 0.930 . S
C1686 C1684 1.419 . S
C1686 C1687 1.362 . S
C1687 H1677 0.930 . S
C1687 C1680 1.410 . S
C1687 C1686 1.362 . S
H1688 C1694 0.930 . S
H1689 C1697 0.930 . S
H1690 C1698 0.930 . S
H1691 C1699 0.930 . S
H1692 C1702 0.930 . S
H1693 C1703 0.930 . S
C1694 H1688 0.930 . S
C1694 C1695 1.355 . S
C1694 C1696 1.415 . S
C1695 C1694 1.355 . S
C1695 C1697 1.419 . S
C1696 C1694 1.415 . S
C1696 C1701 1.425 . S
C1696 C1703 1.409 . S
C1697 H1689 0.930 . S
C1697 C1695 1.419 . S
C1697 C1698 1.362 . S
C1698 H1690 0.930 . S
C1698 C1697 1.362 . S
C1698 C1701 1.409 . S
C1699 H1691 0.930 . S
C1699 C1700 1.355 . S
C1699 C1701 1.415 . S
C1700 C1699 1.355 . S
C1700 C1702 1.419 . S
C1701 C1696 1.425 . S
C1701 C1698 1.409 . S
C1701 C1699 1.415 . S
C1702 H1692 0.930 . S
C1702 C1700 1.419 . S
C1702 C1703 1.362 . S
C1703 H1693 0.930 . S
C1703 C1696 1.409 . S
C1703 C1702 1.362 . S
H1704 C1710 0.930 . S
H1705 C1713 0.930 . S
H1706 C1714 0.930 . S
H1707 C1715 0.930 . S
H1708 C1718 0.930 . S
H1709 C1719 0.930 . S
C1710 H1704 0.930 . S
C1710 C1711 1.355 . S
C1710 C1712 1.415 . S
C1711 C1710 1.355 . S
C1711 C1713 1.419 . S
C1712 C1710 1.415 . S
C1712 C1717 1.425 1_554 S
C1712 C1719 1.409 . S
C1713 H1705 0.930 . S
C1713 C1711 1.419 . S
C1713 C1714 1.362 1_554 S
C1714 H1706 0.930 . S
C1714 C1713 1.362 1_556 S
C1714 C1717 1.409 . S
C1715 H1707 0.930 . S
C1715 C1716 1.355 . S
C1715 C1717 1.415 . S
C1716 C1715 1.355 . S
C1716 C1718 1.419 . S
C1717 C1712 1.425 1_556 S
C1717 C1714 1.409 . S
C1717 C1715 1.415 . S
C1718 H1708 0.930 . S
C1718 C1716 1.419 . S
C1718 C1719 1.362 1_556 S
C1719 H1709 0.930 . S
C1719 C1712 1.409 . S
C1719 C1718 1.362 1_554 S
H1720 C1726 0.930 . S
H1721 C1729 0.930 . S
H1722 C1730 0.930 . S
H1723 C1731 0.930 . S
H1724 C1734 0.930 . S
H1725 C1735 0.930 . S
C1726 H1720 0.930 . S
C1726 C1727 1.355 . S
C1726 C1728 1.415 . S
C1727 C1726 1.355 . S
C1727 C1729 1.419 . S
C1728 C1726 1.415 . S
C1728 C1733 1.425 . S
C1728 C1735 1.409 . S
C1729 H1721 0.930 . S
C1729 C1727 1.419 . S
C1729 C1730 1.362 . S
C1730 H1722 0.930 . S
C1730 C1729 1.362 . S
C1730 C1733 1.409 . S
C1731 H1723 0.930 . S
C1731 C1732 1.355 . S
C1731 C1733 1.415 . S
C1732 C1731 1.355 . S
C1732 C1734 1.419 . S
C1733 C1728 1.425 . S
C1733 C1730 1.409 . S
C1733 C1731 1.415 . S
C1734 H1724 0.930 . S
C1734 C1732 1.419 . S
C1734 C1735 1.362 . S
C1735 H1725 0.930 . S
C1735 C1728 1.409 . S
C1735 C1734 1.362 . S
H1736 C1742 0.930 . S
H1737 C1745 0.930 . S
H1738 C1746 0.930 . S
H1739 C1747 0.930 . S
H1740 C1750 0.930 . S
H1741 C1751 0.930 . S
C1742 H1736 0.930 . S
C1742 C1743 1.355 . S
C1742 C1744 1.415 . S
C1743 C1742 1.355 . S
C1743 C1745 1.419 . S
C1744 C1742 1.415 . S
C1744 C1749 1.425 1_556 S
C1744 C1751 1.409 1_556 S
C1745 H1737 0.930 . S
C1745 C1743 1.419 . S
C1745 C1746 1.362 . S
C1746 H1738 0.930 . S
C1746 C1745 1.362 . S
C1746 C1749 1.409 1_556 S
C1747 H1739 0.930 . S
C1747 C1748 1.355 . S
C1747 C1749 1.415 . S
C1748 C1747 1.355 . S
C1748 C1750 1.419 . S
C1749 C1744 1.425 1_554 S
C1749 C1746 1.409 1_554 S
C1749 C1747 1.415 . S
C1750 H1740 0.930 . S
C1750 C1748 1.419 . S
C1750 C1751 1.362 . S
C1751 H1741 0.930 . S
C1751 C1744 1.409 1_554 S
C1751 C1750 1.362 . S
H1752 C1758 0.930 . S
H1753 C1761 0.930 . S
H1754 C1762 0.930 . S
H1755 C1763 0.930 . S
H1756 C1766 0.930 . S
H1757 C1767 0.930 . S
C1758 H1752 0.930 . S
C1758 C1759 1.355 . S
C1758 C1760 1.415 . S
C1759 C1758 1.355 . S
C1759 C1761 1.419 . S
C1760 C1758 1.415 . S
C1760 C1765 1.425 . S
C1760 C1767 1.409 . S
C1761 H1753 0.930 . S
C1761 C1759 1.419 . S
C1761 C1762 1.362 . S
C1762 H1754 0.930 . S
C1762 C1761 1.362 . S
C1762 C1765 1.409 . S
C1763 H1755 0.930 . S
C1763 C1764 1.355 . S
C1763 C1765 1.415 . S
C1764 C1763 1.355 . S
C1764 C1766 1.419 . S
C1765 C1760 1.425 . S
C1765 C1762 1.409 . S
C1765 C1763 1.415 . S
C1766 H1756 0.930 . S
C1766 C1764 1.419 . S
C1766 C1767 1.362 . S
C1767 H1757 0.930 . S
C1767 C1760 1.409 . S
C1767 C1766 1.362 . S
H1768 C1774 0.930 . S
H1769 C1777 0.930 . S
H1770 C1778 0.930 . S
H1771 C1779 0.930 . S
H1772 C1782 0.930 . S
H1773 C1783 0.930 . S
C1774 H1768 0.930 . S
C1774 C1775 1.355 . S
C1774 C1776 1.415 1_556 S
C1775 C1774 1.355 . S
C1775 C1777 1.419 . S
C1776 C1774 1.415 1_554 S
C1776 C1781 1.425 1_554 S
C1776 C1783 1.409 . S
C1777 H1769 0.930 . S
C1777 C1775 1.419 . S
C1777 C1778 1.362 . S
C1778 H1770 0.930 . S
C1778 C1777 1.362 . S
C1778 C1781 1.409 . S
C1779 H1771 0.930 . S
C1779 C1780 1.355 . S
C1779 C1781 1.415 1_554 S
C1780 C1779 1.355 . S
C1780 C1782 1.419 . S
C1781 C1776 1.425 1_556 S
C1781 C1778 1.409 . S
C1781 C1779 1.415 1_556 S
C1782 H1772 0.930 . S
C1782 C1780 1.419 . S
C1782 C1783 1.362 . S
C1783 H1773 0.930 . S
C1783 C1776 1.409 . S
C1783 C1782 1.362 . S
H1784 C1790 0.930 . S
H1785 C1793 0.930 . S
H1786 C1794 0.930 . S
H1787 C1795 0.930 . S
H1788 C1798 0.930 . S
H1789 C1799 0.930 . S
C1790 H1784 0.930 . S
C1790 C1791 1.355 . S
C1790 C1792 1.415 . S
C1791 C1790 1.355 . S
C1791 C1793 1.419 . S
C1792 C1790 1.415 . S
C1792 C1797 1.425 . S
C1792 C1799 1.409 . S
C1793 H1785 0.930 . S
C1793 C1791 1.419 . S
C1793 C1794 1.362 . S
C1794 H1786 0.930 . S
C1794 C1793 1.362 . S
C1794 C1797 1.409 . S
C1795 H1787 0.930 . S
C1795 C1796 1.355 . S
C1795 C1797 1.415 . S
C1796 C1795 1.355 . S
C1796 C1798 1.419 . S
C1797 C1792 1.425 . S
C1797 C1794 1.409 . S
C1797 C1795 1.415 . S
C1798 H1788 0.930 . S
C1798 C1796 1.419 . S
C1798 C1799 1.362 . S
C1799 H1789 0.930 . S
C1799 C1792 1.409 . S
C1799 C1798 1.362 . S
H1800 C1806 0.930 . S
H1801 C1809 0.930 . S
H1802 C1810 0.930 . S
H1803 C1811 0.930 . S
H1804 C1814 0.930 . S
H1805 C1815 0.930 . S
C1806 H1800 0.930 . S
C1806 C1807 1.355 . S
C1806 C1808 1.415 . S
C1807 C1806 1.355 . S
C1807 C1809 1.419 . S
C1808 C1806 1.415 . S
C1808 C1813 1.425 . S
C1808 C1815 1.409 . S
C1809 H1801 0.930 . S
C1809 C1807 1.419 . S
C1809 C1810 1.362 . S
C1810 H1802 0.930 . S
C1810 C1809 1.362 . S
C1810 C1813 1.409 . S
C1811 H1803 0.930 . S
C1811 C1812 1.355 . S
C1811 C1813 1.415 . S
C1812 C1811 1.355 . S
C1812 C1814 1.419 . S
C1813 C1808 1.425 . S
C1813 C1810 1.409 . S
C1813 C1811 1.415 . S
C1814 H1804 0.930 . S
C1814 C1812 1.419 . S
C1814 C1815 1.362 . S
C1815 H1805 0.930 . S
C1815 C1808 1.409 . S
C1815 C1814 1.362 . S
H1816 C1822 0.930 . S
H1817 C1825 0.930 . S
H1818 C1826 0.930 . S
H1819 C1827 0.930 . S
H1820 C1830 0.930 . S
H1821 C1831 0.930 . S
C1822 H1816 0.930 . S
C1822 C1823 1.355 . S
C1822 C1824 1.415 . S
C1823 C1822 1.355 . S
C1823 C1825 1.419 . S
C1824 C1822 1.415 . S
C1824 C1829 1.425 1_455 S
C1824 C1831 1.409 1_455 S
C1825 H1817 0.930 . S
C1825 C1823 1.419 . S
C1825 C1826 1.362 . S
C1826 H1818 0.930 . S
C1826 C1825 1.362 . S
C1826 C1829 1.409 1_455 S
C1827 H1819 0.930 . S
C1827 C1828 1.355 . S
C1827 C1829 1.415 . S
C1828 C1827 1.355 . S
C1828 C1830 1.419 . S
C1829 C1824 1.425 1_655 S
C1829 C1826 1.409 1_655 S
C1829 C1827 1.415 . S
C1830 H1820 0.930 . S
C1830 C1828 1.419 . S
C1830 C1831 1.362 . S
C1831 H1821 0.930 . S
C1831 C1824 1.409 1_655 S
C1831 C1830 1.362 . S
H1832 C1838 0.930 . S
H1833 C1841 0.930 . S
H1834 C1842 0.930 . S
H1835 C1843 0.930 . S
H1836 C1846 0.930 . S
H1837 C1847 0.930 . S
C1838 H1832 0.930 . S
C1838 C1839 1.355 . S
C1838 C1840 1.415 . S
C1839 C1838 1.355 . S
C1839 C1841 1.419 . S
C1840 C1838 1.415 . S
C1840 C1845 1.425 1_565 S
C1840 C1847 1.409 1_565 S
C1841 H1833 0.930 . S
C1841 C1839 1.419 . S
C1841 C1842 1.362 . S
C1842 H1834 0.930 . S
C1842 C1841 1.362 . S
C1842 C1845 1.409 1_565 S
C1843 H1835 0.930 . S
C1843 C1844 1.355 . S
C1843 C1845 1.415 . S
C1844 C1843 1.355 . S
C1844 C1846 1.419 . S
C1845 C1840 1.425 1_545 S
C1845 C1842 1.409 1_545 S
C1845 C1843 1.415 . S
C1846 H1836 0.930 . S
C1846 C1844 1.419 . S
C1846 C1847 1.362 . S
C1847 H1837 0.930 . S
C1847 C1840 1.409 1_545 S
C1847 C1846 1.362 . S
H1848 C1854 0.930 . S
H1849 C1857 0.930 . S
H1850 C1858 0.930 . S
H1851 C1859 0.930 . S
H1852 C1862 0.930 . S
H1853 C1863 0.930 . S
C1854 H1848 0.930 . S
C1854 C1855 1.355 . S
C1854 C1856 1.415 . S
C1855 C1854 1.355 . S
C1855 C1857 1.419 . S
C1856 C1854 1.415 . S
C1856 C1861 1.425 . S
C1856 C1863 1.409 . S
C1857 H1849 0.930 . S
C1857 C1855 1.419 . S
C1857 C1858 1.362 . S
C1858 H1850 0.930 . S
C1858 C1857 1.362 . S
C1858 C1861 1.409 . S
C1859 H1851 0.930 . S
C1859 C1860 1.355 . S
C1859 C1861 1.415 . S
C1860 C1859 1.355 . S
C1860 C1862 1.419 . S
C1861 C1856 1.425 . S
C1861 C1858 1.409 . S
C1861 C1859 1.415 . S
C1862 H1852 0.930 . S
C1862 C1860 1.419 . S
C1862 C1863 1.362 . S
C1863 H1853 0.930 . S
C1863 C1856 1.409 . S
C1863 C1862 1.362 . S
H1864 C1870 0.930 . S
H1865 C1873 0.930 . S
H1866 C1874 0.930 . S
H1867 C1875 0.930 . S
H1868 C1878 0.930 . S
H1869 C1879 0.930 . S
C1870 H1864 0.930 . S
C1870 C1871 1.355 . S
C1870 C1872 1.415 . S
C1871 C1870 1.355 . S
C1871 C1873 1.419 . S
C1872 C1870 1.415 . S
C1872 C1877 1.425 1_655 S
C1872 C1879 1.409 1_655 S
C1873 H1865 0.930 . S
C1873 C1871 1.419 . S
C1873 C1874 1.362 . S
C1874 H1866 0.930 . S
C1874 C1873 1.362 . S
C1874 C1877 1.409 1_655 S
C1875 H1867 0.930 . S
C1875 C1876 1.355 . S
C1875 C1877 1.415 . S
C1876 C1875 1.355 . S
C1876 C1878 1.419 . S
C1877 C1872 1.425 1_455 S
C1877 C1874 1.409 1_455 S
C1877 C1875 1.415 . S
C1878 H1868 0.930 . S
C1878 C1876 1.419 . S
C1878 C1879 1.362 . S
C1879 H1869 0.930 . S
C1879 C1872 1.409 1_455 S
C1879 C1878 1.362 . S
H1880 C1886 0.930 . S
H1881 C1889 0.930 . S
H1882 C1890 0.930 . S
H1883 C1891 0.930 . S
H1884 C1894 0.930 . S
H1885 C1895 0.930 . S
C1886 H1880 0.930 . S
C1886 C1887 1.355 . S
C1886 C1888 1.415 . S
C1887 C1886 1.355 . S
C1887 C1889 1.419 . S
C1888 C1886 1.415 . S
C1888 C1893 1.425 1_545 S
C1888 C1895 1.409 1_545 S
C1889 H1881 0.930 . S
C1889 C1887 1.419 . S
C1889 C1890 1.362 . S
C1890 H1882 0.930 . S
C1890 C1889 1.362 . S
C1890 C1893 1.409 1_545 S
C1891 H1883 0.930 . S
C1891 C1892 1.355 . S
C1891 C1893 1.415 . S
C1892 C1891 1.355 . S
C1892 C1894 1.419 . S
C1893 C1888 1.425 1_565 S
C1893 C1890 1.409 1_565 S
C1893 C1891 1.415 . S
C1894 H1884 0.930 . S
C1894 C1892 1.419 . S
C1894 C1895 1.362 . S
C1895 H1885 0.930 . S
C1895 C1888 1.409 1_565 S
C1895 C1894 1.362 . S
H1896 C1902 0.930 . S
H1897 C1905 0.930 . S
H1898 C1906 0.930 . S
H1899 C1907 0.930 . S
H1900 C1910 0.930 . S
H1901 C1911 0.930 . S
C1902 H1896 0.930 . S
C1902 C1903 1.355 . S
C1902 C1904 1.415 . S
C1903 C1902 1.355 . S
C1903 C1905 1.419 . S
C1904 C1902 1.415 . S
C1904 C1909 1.425 . S
C1904 C1911 1.409 . S
C1905 H1897 0.930 . S
C1905 C1903 1.419 . S
C1905 C1906 1.362 . S
C1906 H1898 0.930 . S
C1906 C1905 1.362 . S
C1906 C1909 1.409 . S
C1907 H1899 0.930 . S
C1907 C1908 1.355 . S
C1907 C1909 1.415 . S
C1908 C1907 1.355 . S
C1908 C1910 1.419 . S
C1909 C1904 1.425 . S
C1909 C1906 1.409 . S
C1909 C1907 1.415 . S
C1910 H1900 0.930 . S
C1910 C1908 1.419 . S
C1910 C1911 1.362 . S
C1911 H1901 0.930 . S
C1911 C1904 1.409 . S
C1911 C1910 1.362 . S
H1912 C1918 0.930 . S
H1913 C1921 0.930 . S
H1914 C1922 0.930 . S
H1915 C1923 0.930 . S
H1916 C1926 0.930 . S
H1917 C1927 0.930 . S
C1918 H1912 0.930 . S
C1918 C1919 1.355 . S
C1918 C1920 1.415 . S
C1919 C1918 1.355 . S
C1919 C1921 1.419 . S
C1920 C1918 1.415 . S
C1920 C1925 1.425 1_655 S
C1920 C1927 1.409 1_655 S
C1921 H1913 0.930 . S
C1921 C1919 1.419 . S
C1921 C1922 1.362 . S
C1922 H1914 0.930 . S
C1922 C1921 1.362 . S
C1922 C1925 1.409 1_655 S
C1923 H1915 0.930 . S
C1923 C1924 1.355 . S
C1923 C1925 1.415 . S
C1924 C1923 1.355 . S
C1924 C1926 1.419 . S
C1925 C1920 1.425 1_455 S
C1925 C1922 1.409 1_455 S
C1925 C1923 1.415 . S
C1926 H1916 0.930 . S
C1926 C1924 1.419 . S
C1926 C1927 1.362 . S
C1927 H1917 0.930 . S
C1927 C1920 1.409 1_455 S
C1927 C1926 1.362 . S
H1928 C1934 0.930 . S
H1929 C1937 0.930 . S
H1930 C1938 0.930 . S
H1931 C1939 0.930 . S
H1932 C1942 0.930 . S
H1933 C1943 0.930 . S
C1934 H1928 0.930 . S
C1934 C1935 1.355 . S
C1934 C1936 1.415 . S
C1935 C1934 1.355 . S
C1935 C1937 1.419 . S
C1936 C1934 1.415 . S
C1936 C1941 1.425 1_545 S
C1936 C1943 1.409 1_545 S
C1937 H1929 0.930 . S
C1937 C1935 1.419 . S
C1937 C1938 1.362 . S
C1938 H1930 0.930 . S
C1938 C1937 1.362 . S
C1938 C1941 1.409 1_545 S
C1939 H1931 0.930 . S
C1939 C1940 1.355 . S
C1939 C1941 1.415 . S
C1940 C1939 1.355 . S
C1940 C1942 1.419 . S
C1941 C1936 1.425 1_565 S
C1941 C1938 1.409 1_565 S
C1941 C1939 1.415 . S
C1942 H1932 0.930 . S
C1942 C1940 1.419 . S
C1942 C1943 1.362 . S
C1943 H1933 0.930 . S
C1943 C1936 1.409 1_565 S
C1943 C1942 1.362 . S
H1944 C1950 0.930 . S
H1945 C1953 0.930 . S
H1946 C1954 0.930 . S
H1947 C1955 0.930 . S
H1948 C1958 0.930 . S
H1949 C1959 0.930 . S
C1950 H1944 0.930 . S
C1950 C1951 1.355 . S
C1950 C1952 1.415 . S
C1951 C1950 1.355 . S
C1951 C1953 1.419 . S
C1952 C1950 1.415 . S
C1952 C1957 1.425 . S
C1952 C1959 1.409 . S
C1953 H1945 0.930 . S
C1953 C1951 1.419 . S
C1953 C1954 1.362 . S
C1954 H1946 0.930 . S
C1954 C1953 1.362 . S
C1954 C1957 1.409 . S
C1955 H1947 0.930 . S
C1955 C1956 1.355 . S
C1955 C1957 1.415 . S
C1956 C1955 1.355 . S
C1956 C1958 1.419 . S
C1957 C1952 1.425 . S
C1957 C1954 1.409 . S
C1957 C1955 1.415 . S
C1958 H1948 0.930 . S
C1958 C1956 1.419 . S
C1958 C1959 1.362 . S
C1959 H1949 0.930 . S
C1959 C1952 1.409 . S
C1959 C1958 1.362 . S
H1960 C1966 0.930 . S
H1961 C1969 0.930 . S
H1962 C1970 0.930 . S
H1963 C1971 0.930 . S
H1964 C1974 0.930 . S
H1965 C1975 0.930 . S
C1966 H1960 0.930 . S
C1966 C1967 1.355 . S
C1966 C1968 1.415 . S
C1967 C1966 1.355 . S
C1967 C1969 1.419 . S
C1968 C1966 1.415 . S
C1968 C1973 1.425 1_455 S
C1968 C1975 1.409 1_455 S
C1969 H1961 0.930 . S
C1969 C1967 1.419 . S
C1969 C1970 1.362 . S
C1970 H1962 0.930 . S
C1970 C1969 1.362 . S
C1970 C1973 1.409 1_455 S
C1971 H1963 0.930 . S
C1971 C1972 1.355 . S
C1971 C1973 1.415 . S
C1972 C1971 1.355 . S
C1972 C1974 1.419 . S
C1973 C1968 1.425 1_655 S
C1973 C1970 1.409 1_655 S
C1973 C1971 1.415 . S
C1974 H1964 0.930 . S
C1974 C1972 1.419 . S
C1974 C1975 1.362 . S
C1975 H1965 0.930 . S
C1975 C1968 1.409 1_655 S
C1975 C1974 1.362 . S
H1976 C1982 0.930 . S
H1977 C1985 0.930 . S
H1978 C1986 0.930 . S
H1979 C1987 0.930 . S
H1980 C1990 0.930 . S
H1981 C1991 0.930 . S
C1982 H1976 0.930 . S
C1982 C1983 1.355 . S
C1982 C1984 1.415 . S
C1983 C1982 1.355 . S
C1983 C1985 1.419 . S
C1984 C1982 1.415 . S
C1984 C1989 1.425 1_565 S
C1984 C1991 1.409 1_565 S
C1985 H1977 0.930 . S
C1985 C1983 1.419 . S
C1985 C1986 1.362 . S
C1986 H1978 0.930 . S
C1986 C1985 1.362 . S
C1986 C1989 1.409 1_565 S
C1987 H1979 0.930 . S
C1987 C1988 1.355 . S
C1987 C1989 1.415 . S
C1988 C1987 1.355 . S
C1988 C1990 1.419 . S
C1989 C1984 1.425 1_545 S
C1989 C1986 1.409 1_545 S
C1989 C1987 1.415 . S
C1990 H1980 0.930 . S
C1990 C1988 1.419 . S
C1990 C1991 1.362 . S
C1991 H1981 0.930 . S
C1991 C1984 1.409 1_545 S
C1991 C1990 1.362 . S
H1992 C1998 0.936 . S
H1993 C2001 0.930 . S
H1994 C2002 0.930 . S
H1995 C2003 0.936 . S
H1996 C2006 0.930 . S
H1997 C2007 0.930 . S
C1998 H1992 0.936 . S
C1998 C1999 1.355 . S
C1998 C2000 1.415 1_556 S
C1999 C1998 1.355 . S
C1999 C2001 1.419 . S
C2000 C1998 1.415 1_554 S
C2000 C2005 1.425 1_554 S
C2000 C2007 1.409 . S
C2001 H1993 0.930 . S
C2001 C1999 1.419 . S
C2001 C2002 1.362 . S
C2002 H1994 0.930 . S
C2002 C2001 1.362 . S
C2002 C2005 1.409 . S
C2003 H1995 0.936 . S
C2003 C2004 1.355 . S
C2003 C2005 1.415 1_554 S
C2004 C2003 1.355 . S
C2004 C2006 1.419 . S
C2005 C2000 1.425 1_556 S
C2005 C2002 1.409 . S
C2005 C2003 1.415 1_556 S
C2006 H1996 0.930 . S
C2006 C2004 1.419 . S
C2006 C2007 1.362 . S
C2007 H1997 0.930 . S
C2007 C2000 1.409 . S
C2007 C2006 1.362 . S
H2008 C2014 0.930 . S
H2009 C2017 0.930 . S
H2010 C2018 0.930 . S
H2011 C2019 0.930 . S
H2012 C2022 0.930 . S
H2013 C2023 0.930 . S
C2014 H2008 0.930 . S
C2014 C2015 1.355 . S
C2014 C2016 1.415 . S
C2015 C2014 1.355 . S
C2015 C2017 1.419 . S
C2016 C2014 1.415 . S
C2016 C2021 1.425 . S
C2016 C2023 1.409 . S
C2017 H2009 0.930 . S
C2017 C2015 1.419 . S
C2017 C2018 1.362 . S
C2018 H2010 0.930 . S
C2018 C2017 1.362 . S
C2018 C2021 1.409 . S
C2019 H2011 0.930 . S
C2019 C2020 1.355 . S
C2019 C2021 1.415 . S
C2020 C2019 1.355 . S
C2020 C2022 1.419 . S
C2021 C2016 1.425 . S
C2021 C2018 1.409 . S
C2021 C2019 1.415 . S
C2022 H2012 0.930 . S
C2022 C2020 1.419 . S
C2022 C2023 1.362 . S
C2023 H2013 0.930 . S
C2023 C2016 1.409 . S
C2023 C2022 1.362 . S
H2024 C2030 0.930 . S
H2025 C2033 0.930 . S
H2026 C2034 0.930 . S
H2027 C2035 0.930 . S
H2028 C2038 0.930 . S
H2029 C2039 0.930 . S
C2030 H2024 0.930 . S
C2030 C2031 1.355 1_554 S
C2030 C2032 1.415 . S
C2031 C2030 1.355 1_556 S
C2031 C2033 1.419 . S
C2032 C2030 1.415 . S
C2032 C2037 1.425 1_554 S
C2032 C2039 1.409 . S
C2033 H2025 0.930 . S
C2033 C2031 1.419 . S
C2033 C2034 1.362 . S
C2034 H2026 0.930 . S
C2034 C2033 1.362 . S
C2034 C2037 1.409 . S
C2035 H2027 0.930 . S
C2035 C2036 1.355 1_556 S
C2035 C2037 1.415 . S
C2036 C2035 1.355 1_554 S
C2036 C2038 1.419 . S
C2037 C2032 1.425 1_556 S
C2037 C2034 1.409 . S
C2037 C2035 1.415 . S
C2038 H2028 0.930 . S
C2038 C2036 1.419 . S
C2038 C2039 1.362 . S
C2039 H2029 0.930 . S
C2039 C2032 1.409 . S
C2039 C2038 1.362 . S
H2040 C2046 0.930 . S
H2041 C2049 0.930 . S
H2042 C2050 0.930 . S
H2043 C2051 0.930 . S
H2044 C2054 0.930 . S
H2045 C2055 0.930 . S
C2046 H2040 0.930 . S
C2046 C2047 1.355 . S
C2046 C2048 1.415 . S
C2047 C2046 1.355 . S
C2047 C2049 1.419 . S
C2048 C2046 1.415 . S
C2048 C2053 1.425 . S
C2048 C2055 1.409 . S
C2049 H2041 0.930 . S
C2049 C2047 1.419 . S
C2049 C2050 1.362 . S
C2050 H2042 0.930 . S
C2050 C2049 1.362 . S
C2050 C2053 1.409 . S
C2051 H2043 0.930 . S
C2051 C2052 1.355 . S
C2051 C2053 1.415 . S
C2052 C2051 1.355 . S
C2052 C2054 1.419 . S
C2053 C2048 1.425 . S
C2053 C2050 1.409 . S
C2053 C2051 1.415 . S
C2054 H2044 0.930 . S
C2054 C2052 1.419 . S
C2054 C2055 1.362 . S
C2055 H2045 0.930 . S
C2055 C2048 1.409 . S
C2055 C2054 1.362 . S
H2056 C2062 0.930 . S
H2057 C2065 0.934 . S
H2058 C2066 0.930 . S
H2059 C2067 0.930 . S
H2060 C2070 0.934 . S
H2061 C2071 0.930 . S
C2062 H2056 0.930 . S
C2062 C2063 1.355 . S
C2062 C2064 1.415 . S
C2063 C2062 1.355 . S
C2063 C2065 1.419 . S
C2064 C2062 1.415 . S
C2064 C2069 1.425 1_556 S
C2064 C2071 1.409 . S
C2065 H2057 0.934 . S
C2065 C2063 1.419 . S
C2065 C2066 1.362 1_556 S
C2066 H2058 0.930 . S
C2066 C2065 1.362 1_554 S
C2066 C2069 1.409 . S
C2067 H2059 0.930 . S
C2067 C2068 1.355 . S
C2067 C2069 1.415 . S
C2068 C2067 1.355 . S
C2068 C2070 1.419 . S
C2069 C2064 1.425 1_554 S
C2069 C2066 1.409 . S
C2069 C2067 1.415 . S
C2070 H2060 0.934 . S
C2070 C2068 1.419 . S
C2070 C2071 1.362 1_554 S
C2071 H2061 0.930 . S
C2071 C2064 1.409 . S
C2071 C2070 1.362 1_556 S
H2072 C2078 0.930 . S
H2073 C2081 0.930 . S
H2074 C2082 0.930 . S
H2075 C2083 0.930 . S
H2076 C2086 0.930 . S
H2077 C2087 0.930 . S
C2078 H2072 0.930 . S
C2078 C2079 1.355 . S
C2078 C2080 1.415 . S
C2079 C2078 1.355 . S
C2079 C2081 1.419 . S
C2080 C2078 1.415 . S
C2080 C2085 1.425 . S
C2080 C2087 1.409 . S
C2081 H2073 0.930 . S
C2081 C2079 1.419 . S
C2081 C2082 1.362 . S
C2082 H2074 0.930 . S
C2082 C2081 1.362 . S
C2082 C2085 1.409 . S
C2083 H2075 0.930 . S
C2083 C2084 1.355 . S
C2083 C2085 1.415 . S
C2084 C2083 1.355 . S
C2084 C2086 1.419 . S
C2085 C2080 1.425 . S
C2085 C2082 1.409 . S
C2085 C2083 1.415 . S
C2086 H2076 0.930 . S
C2086 C2084 1.419 . S
C2086 C2087 1.362 . S
C2087 H2077 0.930 . S
C2087 C2080 1.409 . S
C2087 C2086 1.362 . S
H2088 C2094 0.930 . S
H2089 C2097 0.930 . S
H2090 C2098 0.930 . S
H2091 C2099 0.930 . S
H2092 C2102 0.930 . S
H2093 C2103 0.930 . S
C2094 H2088 0.930 . S
C2094 C2095 1.355 . S
C2094 C2096 1.415 . S
C2095 C2094 1.355 . S
C2095 C2097 1.419 . S
C2096 C2094 1.415 . S
C2096 C2101 1.425 1_554 S
C2096 C2103 1.409 . S
C2097 H2089 0.930 . S
C2097 C2095 1.419 . S
C2097 C2098 1.362 1_554 S
C2098 H2090 0.930 . S
C2098 C2097 1.362 1_556 S
C2098 C2101 1.409 . S
C2099 H2091 0.930 . S
C2099 C2100 1.355 . S
C2099 C2101 1.415 . S
C2100 C2099 1.355 . S
C2100 C2102 1.419 . S
C2101 C2096 1.425 1_556 S
C2101 C2098 1.409 . S
C2101 C2099 1.415 . S
C2102 H2092 0.930 . S
C2102 C2100 1.419 . S
C2102 C2103 1.362 1_556 S
C2103 H2093 0.930 . S
C2103 C2096 1.409 . S
C2103 C2102 1.362 1_554 S
H2104 C2110 0.930 . S
H2105 C2113 0.930 . S
H2106 C2114 0.930 . S
H2107 C2115 0.930 . S
H2108 C2118 0.930 . S
H2109 C2119 0.930 . S
C2110 H2104 0.930 . S
C2110 C2111 1.355 . S
C2110 C2112 1.415 . S
C2111 C2110 1.355 . S
C2111 C2113 1.419 . S
C2112 C2110 1.415 . S
C2112 C2117 1.425 . S
C2112 C2119 1.409 . S
C2113 H2105 0.930 . S
C2113 C2111 1.419 . S
C2113 C2114 1.362 . S
C2114 H2106 0.930 . S
C2114 C2113 1.362 . S
C2114 C2117 1.409 . S
C2115 H2107 0.930 . S
C2115 C2116 1.355 . S
C2115 C2117 1.415 . S
C2116 C2115 1.355 . S
C2116 C2118 1.419 . S
C2117 C2112 1.425 . S
C2117 C2114 1.409 . S
C2117 C2115 1.415 . S
C2118 H2108 0.930 . S
C2118 C2116 1.419 . S
C2118 C2119 1.362 . S
C2119 H2109 0.930 . S
C2119 C2112 1.409 . S
C2119 C2118 1.362 . S
H2120 C2126 0.930 1_556 S
H2121 C2129 0.930 . S
H2122 C2130 0.930 . S
H2123 C2131 0.930 1_554 S
H2124 C2134 0.930 . S
H2125 C2135 0.930 . S
C2126 H2120 0.930 1_554 S
C2126 C2127 1.355 . S
C2126 C2128 1.415 1_554 S
C2127 C2126 1.355 . S
C2127 C2129 1.419 . S
C2128 C2126 1.415 1_556 S
C2128 C2133 1.425 1_556 S
C2128 C2135 1.409 . S
C2129 H2121 0.930 . S
C2129 C2127 1.419 . S
C2129 C2130 1.362 . S
C2130 H2122 0.930 . S
C2130 C2129 1.362 . S
C2130 C2133 1.409 . S
C2131 H2123 0.930 1_556 S
C2131 C2132 1.355 . S
C2131 C2133 1.415 1_556 S
C2132 C2131 1.355 . S
C2132 C2134 1.419 . S
C2133 C2128 1.425 1_554 S
C2133 C2130 1.409 . S
C2133 C2131 1.415 1_554 S
C2134 H2124 0.930 . S
C2134 C2132 1.419 . S
C2134 C2135 1.362 . S
C2135 H2125 0.930 . S
C2135 C2128 1.409 . S
C2135 C2134 1.362 . S
H2136 C2142 0.930 . S
H2137 C2145 0.930 . S
H2138 C2146 0.930 . S
H2139 C2147 0.930 . S
H2140 C2150 0.930 . S
H2141 C2151 0.930 . S
C2142 H2136 0.930 . S
C2142 C2143 1.355 . S
C2142 C2144 1.415 . S
C2143 C2142 1.355 . S
C2143 C2145 1.419 . S
C2144 C2142 1.415 . S
C2144 C2149 1.425 . S
C2144 C2151 1.409 . S
C2145 H2137 0.930 . S
C2145 C2143 1.419 . S
C2145 C2146 1.362 . S
C2146 H2138 0.930 . S
C2146 C2145 1.362 . S
C2146 C2149 1.409 . S
C2147 H2139 0.930 . S
C2147 C2148 1.355 . S
C2147 C2149 1.415 . S
C2148 C2147 1.355 . S
C2148 C2150 1.419 . S
C2149 C2144 1.425 . S
C2149 C2146 1.409 . S
C2149 C2147 1.415 . S
C2150 H2140 0.930 . S
C2150 C2148 1.419 . S
C2150 C2151 1.362 . S
C2151 H2141 0.930 . S
C2151 C2144 1.409 . S
C2151 C2150 1.362 . S
H2152 C2158 0.930 . S
H2153 C2161 0.930 . S
H2154 C2162 0.930 . S
H2155 C2163 0.930 . S
H2156 C2166 0.930 . S
H2157 C2167 0.930 . S
C2158 H2152 0.930 . S
C2158 C2159 1.355 . S
C2158 C2160 1.415 . S
C2159 C2158 1.355 . S
C2159 C2161 1.419 . S
C2160 C2158 1.415 . S
C2160 C2165 1.425 1_556 S
C2160 C2167 1.409 . S
C2161 H2153 0.930 . S
C2161 C2159 1.419 . S
C2161 C2162 1.362 1_556 S
C2162 H2154 0.930 . S
C2162 C2161 1.362 1_554 S
C2162 C2165 1.409 . S
C2163 H2155 0.930 . S
C2163 C2164 1.355 . S
C2163 C2165 1.415 . S
C2164 C2163 1.355 . S
C2164 C2166 1.419 . S
C2165 C2160 1.425 1_554 S
C2165 C2162 1.409 . S
C2165 C2163 1.415 . S
C2166 H2156 0.930 . S
C2166 C2164 1.419 . S
C2166 C2167 1.362 1_554 S
C2167 H2157 0.930 . S
C2167 C2160 1.409 . S
C2167 C2166 1.362 1_556 S
H2168 C2174 0.930 . S
H2169 C2177 0.930 . S
H2170 C2178 0.930 . S
H2171 C2179 0.930 . S
H2172 C2182 0.930 . S
H2173 C2183 0.930 . S
C2174 H2168 0.930 . S
C2174 C2175 1.355 . S
C2174 C2176 1.415 . S
C2175 C2174 1.355 . S
C2175 C2177 1.419 . S
C2176 C2174 1.415 . S
C2176 C2181 1.425 . S
C2176 C2183 1.409 . S
C2177 H2169 0.930 . S
C2177 C2175 1.419 . S
C2177 C2178 1.362 . S
C2178 H2170 0.930 . S
C2178 C2177 1.362 . S
C2178 C2181 1.409 . S
C2179 H2171 0.930 . S
C2179 C2180 1.355 . S
C2179 C2181 1.415 . S
C2180 C2179 1.355 . S
C2180 C2182 1.419 . S
C2181 C2176 1.425 . S
C2181 C2178 1.409 . S
C2181 C2179 1.415 . S
C2182 H2172 0.930 . S
C2182 C2180 1.419 . S
C2182 C2183 1.362 . S
C2183 H2173 0.930 . S
C2183 C2176 1.409 . S
C2183 C2182 1.362 . S
C1423 C3 1.536 . S
C1428 C888 1.566 . S
C1439 C62 1.575 . S
C1444 C947 1.526 . S
C1455 C1006 1.546 . S
C1460 C121 1.556 . S
C1471 C711 1.543 . S
C1476 C180 1.559 . S
C1487 C770 1.561 . S
C1492 C239 1.541 . S
C1503 C829 1.568 . S
C1508 C298 1.534 . S
C1519 C1242 1.575 . S
C1524 C357 1.526 . S
C1535 C416 1.575 . S
C1540 C1301 1.526 . S
C1551 C1360 1.535 . S
C1556 C475 1.566 . S
C1567 C534 1.563 . S
C1572 C1065 1.538 . S
C1583 C1124 1.526 . S
C1588 C593 1.575 . S
C1599 C652 1.526 . S
C1604 C1183 1.575 . S
C1615 C595 1.520 . S
C1620 C5 1.529 . S
C1631 C654 1.527 . S
C1636 C64 1.517 . S
C1647 C123 1.528 . S
C1652 C359 1.518 . S
C1663 C182 1.525 . S
C1668 C418 1.531 . S
C1679 C477 1.508 . S
C1684 C241 1.519 . S
C1695 C300 1.520 . S
C1700 C536 1.509 . S
C1711 C1303 1.505 . S
C1716 C713 1.516 . S
C1727 C772 1.531 . S
C1732 C1362 1.530 . S
C1743 C831 1.516 . S
C1748 C1067 1.505 . S
C1759 C1126 1.510 . S
C1764 C890 1.501 . S
C1775 C949 1.525 . S
C1780 C1185 1.514 . S
C1791 C1008 1.503 . S
C1796 C1244 1.499 . S
C1807 C52 1.496 . S
C1812 C1114 1.505 . S
C1823 C1173 1.495 . S
C1828 C111 1.506 . S
C1839 C170 1.506 . S
C1844 C1232 1.495 . S
C1855 C229 1.501 . S
C1860 C1291 1.500 . S
C1871 C1350 1.507 . S
C1876 C288 1.494 . S
C1887 C347 1.506 . S
C1892 C1409 1.495 . S
C1903 C406 1.498 . S
C1908 C760 1.503 . S
C1919 C465 1.502 . S
C1924 C819 1.499 . S
C1935 C878 1.502 . S
C1940 C524 1.499 . S
C1951 C937 1.494 . S
C1956 C583 1.507 . S
C1967 C642 1.500 . S
C1972 C996 1.501 . S
C1983 C1055 1.504 . S
C1988 C701 1.497 . S
C1999 C387 1.558 . S
C2004 C33 1.557 . S
C2015 C92 1.561 . S
C2020 C446 1.563 . S
C2031 C505 1.554 . S
C2036 C151 1.554 . S
C2047 C564 1.561 . S
C2052 C210 1.559 . S
C2063 C623 1.573 . S
C2068 C269 1.572 . S
C2079 C328 1.554 . S
C2084 C682 1.555 . S
C2095 C1095 1.569 . S
C2100 C741 1.571 . S
C2111 C800 1.553 . S
C2116 C1154 1.552 . S
C2127 C1213 1.554 . S
C2132 C859 1.555 . S
C2143 C1272 1.554 . S
C2148 C918 1.553 . S
C2159 C977 1.572 . S
C2164 C1331 1.574 . S
C2175 C1036 1.586 . S
C2180 C1390 1.585 . S
