# Generated by pormake.
# Topology wme, (6)-cn, num edge types: 1
# Building blocks:
#     Node 0, Type 0, BuildingBlock: JUFBIX_clean_sbu_0, # of connection points: 6
#     Node 1, Type 0, BuildingBlock: JUFBIX_clean_sbu_0, # of connection points: 6
#     Node 2, Type 0, BuildingBlock: JUFBIX_clean_sbu_0, # of connection points: 6
#     Node 3, Type 0, BuildingBlock: JUFBIX_clean_sbu_0, # of connection points: 6
#     Node 4, Type 0, BuildingBlock: JUFBIX_clean_sbu_0, # of connection points: 6
#     Node 5, Type 0, BuildingBlock: JUFBIX_clean_sbu_0, # of connection points: 6
#     Node 6, Type 0, BuildingBlock: JUFBIX_clean_sbu_0, # of connection points: 6
#     Node 7, Type 0, BuildingBlock: JUFBIX_clean_sbu_0, # of connection points: 6
#     Node 8, Type 0, BuildingBlock: JUFBIX_clean_sbu_0, # of connection points: 6
#     Node 9, Type 0, BuildingBlock: JUFBIX_clean_sbu_0, # of connection points: 6
#     Node 10, Type 0, BuildingBlock: JUFBIX_clean_sbu_0, # of connection points: 6
#     Node 11, Type 0, BuildingBlock: JUFBIX_clean_sbu_0, # of connection points: 6
#     Edge 12, Type (0, 0), BuildingBlock: AJUNOK_clean_linker_0, # of connection points: 2
#     Edge 13, Type (0, 0), BuildingBlock: AJUNOK_clean_linker_0, # of connection points: 2
#     Edge 14, Type (0, 0), BuildingBlock: AJUNOK_clean_linker_0, # of connection points: 2
#     Edge 15, Type (0, 0), BuildingBlock: AJUNOK_clean_linker_0, # of connection points: 2
#     Edge 16, Type (0, 0), BuildingBlock: AJUNOK_clean_linker_0, # of connection points: 2
#     Edge 17, Type (0, 0), BuildingBlock: AJUNOK_clean_linker_0, # of connection points: 2
#     Edge 18, Type (0, 0), BuildingBlock: AJUNOK_clean_linker_0, # of connection points: 2
#     Edge 19, Type (0, 0), BuildingBlock: AJUNOK_clean_linker_0, # of connection points: 2
#     Edge 20, Type (0, 0), BuildingBlock: AJUNOK_clean_linker_0, # of connection points: 2
#     Edge 21, Type (0, 0), BuildingBlock: AJUNOK_clean_linker_0, # of connection points: 2
#     Edge 22, Type (0, 0), BuildingBlock: AJUNOK_clean_linker_0, # of connection points: 2
#     Edge 23, Type (0, 0), BuildingBlock: AJUNOK_clean_linker_0, # of connection points: 2
#     Edge 24, Type (0, 0), BuildingBlock: AJUNOK_clean_linker_0, # of connection points: 2
#     Edge 25, Type (0, 0), BuildingBlock: AJUNOK_clean_linker_0, # of connection points: 2
#     Edge 26, Type (0, 0), BuildingBlock: AJUNOK_clean_linker_0, # of connection points: 2
#     Edge 27, Type (0, 0), BuildingBlock: AJUNOK_clean_linker_0, # of connection points: 2
#     Edge 28, Type (0, 0), BuildingBlock: AJUNOK_clean_linker_0, # of connection points: 2
#     Edge 29, Type (0, 0), BuildingBlock: AJUNOK_clean_linker_0, # of connection points: 2
#     Edge 30, Type (0, 0), BuildingBlock: AJUNOK_clean_linker_0, # of connection points: 2
#     Edge 31, Type (0, 0), BuildingBlock: AJUNOK_clean_linker_0, # of connection points: 2
#     Edge 32, Type (0, 0), BuildingBlock: AJUNOK_clean_linker_0, # of connection points: 2
#     Edge 33, Type (0, 0), BuildingBlock: AJUNOK_clean_linker_0, # of connection points: 2
#     Edge 34, Type (0, 0), BuildingBlock: AJUNOK_clean_linker_0, # of connection points: 2
#     Edge 35, Type (0, 0), BuildingBlock: AJUNOK_clean_linker_0, # of connection points: 2
#     Edge 36, Type (0, 0), BuildingBlock: AJUNOK_clean_linker_0, # of connection points: 2
#     Edge 37, Type (0, 0), BuildingBlock: AJUNOK_clean_linker_0, # of connection points: 2
#     Edge 38, Type (0, 0), BuildingBlock: AJUNOK_clean_linker_0, # of connection points: 2
#     Edge 39, Type (0, 0), BuildingBlock: AJUNOK_clean_linker_0, # of connection points: 2
#     Edge 40, Type (0, 0), BuildingBlock: AJUNOK_clean_linker_0, # of connection points: 2
#     Edge 41, Type (0, 0), BuildingBlock: AJUNOK_clean_linker_0, # of connection points: 2
#     Edge 42, Type (0, 0), BuildingBlock: AJUNOK_clean_linker_0, # of connection points: 2
#     Edge 43, Type (0, 0), BuildingBlock: AJUNOK_clean_linker_0, # of connection points: 2
#     Edge 44, Type (0, 0), BuildingBlock: AJUNOK_clean_linker_0, # of connection points: 2
#     Edge 45, Type (0, 0), BuildingBlock: AJUNOK_clean_linker_0, # of connection points: 2
#     Edge 46, Type (0, 0), BuildingBlock: AJUNOK_clean_linker_0, # of connection points: 2
#     Edge 47, Type (0, 0), BuildingBlock: AJUNOK_clean_linker_0, # of connection points: 2
# Relax obj value: 0.324
# Max RMSD: 0.238
# Mean RMSD: 0.238
data_MOF--net-wme--node1-JUFBIX_clean_sbu_0--edge1-AJUNOK_clean_linker_0
_symmetry_space_group_name_H-M    P1
_symmetry_Int_Tables_number       1
_symmetry_cell_setting            triclinic
loop_
_symmetry_equiv_pos_as_xyz
'x, y, z'
_cell_length_a     25.461267
_cell_length_b     25.546373
_cell_length_c     39.226901
_cell_angle_alpha  90.020157
_cell_angle_beta   90.065253
_cell_angle_gamma 119.66336
loop_
_atom_site_label
_atom_site_type_symbol
_atom_site_fract_x
_atom_site_fract_y
_atom_site_fract_z
_atom_type_partial_charge
Co0 Co 0.17611 0.35383 0.13401 0.0
C1 C 0.20399 0.29325 0.08303 0.0
Co2 Co 0.21285 0.2976 0.15316 0.0
C3 C 0.14711 0.45186 0.13208 0.0
C4 C 0.10834 0.38944 0.09079 0.0
N5 N 0.14476 0.40211 0.11816 0.0
N6 N 0.11392 0.47078 0.11426 0.0
C7 C 0.08936 0.43122 0.08836 0.0
H8 H 0.17228 0.47354 0.15498 0.0
H9 H 0.09472 0.35094 0.07424 0.0
C10 C 0.18992 0.35518 0.20521 0.0
N11 N 0.23868 0.2456 0.16876 0.0
C12 C 0.20886 0.18612 0.16157 0.0
C13 C 0.28318 0.25317 0.19035 0.0
N14 N 0.23164 0.15582 0.17818 0.0
C15 C 0.27924 0.19781 0.19598 0.0
C16 C 0.30109 0.41566 0.13848 0.0
O17 O 0.16697 0.37232 0.18164 0.0
O18 O 0.21402 0.32392 0.19715 0.0
O19 O 0.2955 0.36436 0.14626 0.0
O20 O 0.25401 0.41971 0.1334 0.0
O21 O 0.21271 0.27002 0.10924 0.0
H22 H 0.31531 0.29567 0.20182 0.0
H23 H 0.17072 0.16516 0.14431 0.0
O24 O 0.18838 0.33355 0.08684 0.0
O25 O 0.09699 0.28812 0.13463 0.0
O26 O 0.13008 0.2342 0.16016 0.0
C27 C 0.08609 0.23955 0.14905 0.0
H28 H 0.05818 0.43115 0.06956 0.0
H29 H 0.30806 0.18889 0.21244 0.0
Co30 Co 0.8759 0.17002 0.6489 0.0
C31 C 0.86494 0.21771 0.71248 0.0
Co32 Co 0.9057 0.26554 0.65115 0.0
C33 C 0.85706 0.04591 0.64807 0.0
C34 C 0.78214 0.0551 0.66482 0.0
N35 N 0.83911 0.08704 0.6525 0.0
N36 N 0.81298 0.99008 0.65701 0.0
C37 C 0.76596 0.99591 0.66733 0.0
H38 H 0.90146 0.05672 0.63903 0.0
H39 H 0.75441 0.07401 0.67284 0.0
C40 C 0.92735 0.22422 0.58896 0.0
N41 N 0.93438 0.34777 0.64759 0.0
C42 C 0.89985 0.37424 0.64738 0.0
C43 C 0.9896 0.3916 0.63783 0.0
N44 N 0.93012 0.43166 0.63655 0.0
C45 C 0.98719 0.44333 0.63113 0.0
C46 C 0.99304 0.23342 0.66573 0.0
O47 O 0.90694 0.1727 0.60317 0.0
O48 O 0.92106 0.2644 0.60446 0.0
O49 O 0.98473 0.27796 0.66005 0.0
O50 O 0.94829 0.18035 0.6659 0.0
O51 O 0.89318 0.26849 0.69804 0.0
H52 H 0.02823 0.38559 0.63378 0.0
H53 H 0.85216 0.35103 0.65311 0.0
O54 O 0.84923 0.17037 0.69496 0.0
O55 O 0.80292 0.15823 0.63095 0.0
O56 O 0.82474 0.24976 0.64201 0.0
C57 C 0.7864 0.19709 0.63254 0.0
H58 H 0.72374 0.96012 0.67731 0.0
H59 H 0.02428 0.4855 0.62219 0.0
Co60 Co 0.63538 0.81942 0.12886 0.0
C61 C 0.69755 0.91148 0.08209 0.0
Co62 Co 0.69177 0.90867 0.1529 0.0
C63 C 0.53655 0.69592 0.12659 0.0
C64 C 0.59483 0.71697 0.08349 0.0
N65 N 0.58508 0.742 0.11131 0.0
N66 N 0.51631 0.64302 0.10984 0.0
C67 C 0.5526 0.65639 0.08242 0.0
H68 H 0.51768 0.70053 0.15036 0.0
H69 H 0.63159 0.74075 0.06572 0.0
C70 C 0.63252 0.82285 0.20072 0.0
N71 N 0.74625 0.98413 0.1707 0.0
C72 C 0.80157 0.0196 0.15714 0.0
C73 C 0.74707 0.01108 0.20049 0.0
N74 N 0.83669 0.0672 0.17693 0.0
C75 C 0.80309 0.06218 0.2045 0.0
C76 C 0.5752 0.88351 0.13983 0.0
O77 O 0.61501 0.78732 0.17515 0.0
O78 O 0.66659 0.8787 0.19607 0.0
O79 O 0.62611 0.92676 0.15003 0.0
O80 O 0.57146 0.8347 0.12951 0.0
O81 O 0.71711 0.93973 0.10969 0.0
H82 H 0.7106 0.99336 0.21881 0.0
H83 H 0.81752 0.00895 0.13403 0.0
O84 O 0.65796 0.85541 0.0829 0.0
O85 O 0.69857 0.80312 0.12882 0.0
O86 O 0.7544 0.88727 0.15625 0.0
C87 C 0.74694 0.83762 0.14446 0.0
H88 H 0.54894 0.62488 0.06286 0.0
H89 H 0.8183 0.0925 0.22613 0.0
Co90 Co 0.87031 0.70746 0.63523 0.0
C91 C 0.83142 0.65306 0.7005 0.0
Co92 Co 0.77349 0.64822 0.64179 0.0
C93 C 0.9929 0.81271 0.63251 0.0
C94 C 0.98942 0.72801 0.6397 0.0
N95 N 0.95398 0.75282 0.63406 0.0
N96 N 0.05078 0.82527 0.63632 0.0
C97 C 0.04853 0.77214 0.6409 0.0
H98 H 0.97915 0.84637 0.62974 0.0
H99 H 0.97332 0.6808 0.64453 0.0
C100 C 0.8067 0.70722 0.57832 0.0
N101 N 0.69059 0.59634 0.64363 0.0
C102 C 0.66457 0.53636 0.64868 0.0
C103 C 0.64487 0.60537 0.63397 0.0
N104 N 0.60517 0.50704 0.64132 0.0
C105 C 0.59231 0.55039 0.63222 0.0
C106 C 0.81352 0.76667 0.65846 0.0
O107 O 0.86073 0.73449 0.59005 0.0
O108 O 0.76632 0.66389 0.59557 0.0
O109 O 0.76541 0.7163 0.65371 0.0
O110 O 0.86464 0.77071 0.65398 0.0
O111 O 0.7793 0.63399 0.68797 0.0
H112 H 0.65013 0.64841 0.62641 0.0
H113 H 0.6897 0.5138 0.65494 0.0
O114 O 0.87732 0.68179 0.68124 0.0
O115 O 0.87679 0.64412 0.61561 0.0
O116 O 0.78449 0.58135 0.63007 0.0
C117 C 0.83465 0.59064 0.61842 0.0
H118 H 0.08674 0.76599 0.64663 0.0
H119 H 0.54882 0.54271 0.62327 0.0
Co120 Co 0.16592 0.80921 0.14106 0.0
C121 C 0.07874 0.79013 0.09138 0.0
Co122 Co 0.07457 0.77572 0.1617 0.0
C123 C 0.29104 0.83694 0.14059 0.0
C124 C 0.26894 0.87185 0.09674 0.0
N125 N 0.24446 0.83846 0.12499 0.0
N126 N 0.34348 0.86772 0.12316 0.0
C127 C 0.32958 0.88977 0.09553 0.0
H128 H 0.28692 0.81536 0.16491 0.0
H129 H 0.24467 0.88379 0.07855 0.0
C130 C 0.15371 0.79158 0.21263 0.0
N131 N 0.99771 0.75127 0.17707 0.0
C132 C 0.96834 0.78135 0.16932 0.0
C133 C 0.95774 0.70293 0.19511 0.0
N134 N 0.9118 0.75412 0.18142 0.0
C135 C 0.90428 0.70439 0.19766 0.0
C136 C 0.0994 0.68464 0.14328 0.0
O137 O 0.19281 0.81192 0.18861 0.0
O138 O 0.09886 0.77253 0.20544 0.0
O139 O 0.05664 0.69282 0.15419 0.0
O140 O 0.15052 0.7298 0.13664 0.0
O141 O 0.04729 0.77787 0.11801 0.0
H142 H 0.96643 0.66843 0.20502 0.0
H143 H 0.98712 0.82136 0.15359 0.0
O144 O 0.13439 0.80445 0.0942 0.0
O145 O 0.18315 0.88895 0.14529 0.0
O146 O 0.09564 0.85923 0.16923 0.0
C147 C 0.14672 0.90192 0.15969 0.0
H148 H 0.36097 0.91672 0.07575 0.0
H149 H 0.86312 0.67133 0.21001 0.0
Co150 Co 0.32969 0.1685 0.63837 0.0
C151 C 0.38221 0.17701 0.7035 0.0
Co152 Co 0.39016 0.13253 0.6431 0.0
C153 C 0.22679 0.19095 0.63831 0.0
C154 C 0.31344 0.26964 0.64433 0.0
N155 N 0.2865 0.20951 0.63865 0.0
N156 N 0.21649 0.23757 0.64278 0.0
C157 C 0.27079 0.28689 0.64654 0.0
H158 H 0.19166 0.14431 0.6361 0.0
H159 H 0.36116 0.29927 0.64874 0.0
C160 C 0.33374 0.11465 0.57937 0.0
N161 N 0.43961 0.09895 0.64211 0.0
C162 C 0.49878 0.1286 0.65017 0.0
C163 C 0.4318 0.05164 0.6231 0.0
N164 N 0.52918 0.10428 0.63506 0.0
C165 C 0.48689 0.05487 0.61868 0.0
C166 C 0.26887 0.05096 0.65474 0.0
O167 O 0.30329 0.13682 0.59269 0.0
O168 O 0.3786 0.11886 0.59578 0.0
O169 O 0.32074 0.05606 0.65012 0.0
O170 O 0.26352 0.09782 0.65498 0.0
O171 O 0.40081 0.14403 0.69021 0.0
H172 H 0.39033 0.02085 0.61012 0.0
H173 H 0.51966 0.16973 0.66494 0.0
O174 O 0.35463 0.19649 0.68479 0.0
O175 O 0.39569 0.23916 0.62063 0.0
O176 O 0.45923 0.21062 0.63622 0.0
C177 C 0.44957 0.25169 0.62538 0.0
H178 H 0.27872 0.33159 0.65262 0.0
H179 H 0.49578 0.02615 0.6022 0.0
Co180 Co 0.71939 0.83756 0.40028 0.0
C181 C 0.64654 0.78117 0.342 0.0
Co182 Co 0.64826 0.74336 0.40524 0.0
C183 C 0.80124 0.96946 0.4036 0.0
C184 C 0.80579 0.92713 0.35748 0.0
N185 N 0.77903 0.91499 0.38843 0.0
N186 N 0.83955 0.01457 0.38281 0.0
C187 C 0.84279 0.98785 0.35402 0.0
H188 H 0.78909 0.97603 0.42905 0.0
H189 H 0.79837 0.89373 0.3383 0.0
C190 C 0.72135 0.7942 0.46356 0.0
N191 N 0.58687 0.66567 0.41522 0.0
C192 C 0.52669 0.64516 0.41633 0.0
C193 C 0.59313 0.61902 0.42618 0.0
N194 N 0.49527 0.58806 0.42799 0.0
C195 C 0.53705 0.57122 0.4337 0.0
C196 C 0.75797 0.75516 0.38639 0.0
O197 O 0.75254 0.84186 0.44587 0.0
O198 O 0.67266 0.75237 0.45091 0.0
O199 O 0.7052 0.71512 0.39572 0.0
O200 O 0.76985 0.80929 0.38462 0.0
O201 O 0.62396 0.73279 0.35903 0.0
H202 H 0.63576 0.61988 0.4292 0.0
H203 H 0.50618 0.67203 0.40955 0.0
O204 O 0.68596 0.82999 0.35573 0.0
O205 O 0.66884 0.86749 0.41561 0.0
O206 O 0.59368 0.77488 0.4146 0.0
C207 C 0.6124 0.83112 0.41755 0.0
H208 H 0.87142 0.01059 0.33237 0.0
H209 H 0.52804 0.52735 0.44233 0.0
Co210 Co 0.86339 0.70563 0.91267 0.0
C211 C 0.85765 0.65221 0.84818 0.0
Co212 Co 0.90231 0.64598 0.90987 0.0
C213 C 0.83856 0.80794 0.91294 0.0
C214 C 0.76175 0.72142 0.90357 0.0
N215 N 0.82146 0.74872 0.91118 0.0
N216 N 0.79151 0.81761 0.90713 0.0
C217 C 0.74331 0.76323 0.90153 0.0
H218 H 0.88458 0.84319 0.91757 0.0
H219 H 0.73327 0.67397 0.89821 0.0
C220 C 0.91959 0.70531 0.9726 0.0
N221 N 0.93616 0.59592 0.91141 0.0
C222 C 0.90583 0.53534 0.9076 0.0
C223 C 0.98957 0.60842 0.92528 0.0
N224 N 0.93699 0.50927 0.91969 0.0
C225 C 0.99007 0.55538 0.93063 0.0
C226 C 0.98172 0.76708 0.89597 0.0
O227 O 0.8932 0.7316 0.95882 0.0
O228 O 0.91925 0.66156 0.95696 0.0
O229 O 0.97854 0.7161 0.90087 0.0
O230 O 0.93397 0.77106 0.89665 0.0
O231 O 0.88863 0.63234 0.8628 0.0
H232 H 0.02385 0.65257 0.93364 0.0
H233 H 0.86012 0.51022 0.89793 0.0
O234 O 0.83781 0.68068 0.86585 0.0
O235 O 0.79278 0.64051 0.92967 0.0
O236 O 0.82421 0.57737 0.91874 0.0
C237 C 0.78201 0.58698 0.92774 0.0
H238 H 0.69853 0.75474 0.89472 0.0
H239 H 0.0249 0.55112 0.94406 0.0
Co240 Co 0.16913 0.85529 0.423 0.0
C241 C 0.20071 0.83419 0.35755 0.0
Co242 Co 0.26624 0.88895 0.4148 0.0
C243 C 0.04129 0.80872 0.40597 0.0
C244 C 0.0573 0.80664 0.45936 0.0
N245 N 0.08604 0.82381 0.42914 0.0
N246 N 0.98582 0.78319 0.42065 0.0
C247 C 0.99622 0.7821 0.45428 0.0
H248 H 0.0494 0.8151 0.37885 0.0
H249 H 0.07924 0.81094 0.48364 0.0
C250 C 0.2408 0.91997 0.47814 0.0
N251 N 0.34974 0.91683 0.41082 0.0
C252 C 0.37813 0.88404 0.40702 0.0
C253 C 0.39464 0.97289 0.41804 0.0
N254 N 0.43869 0.91719 0.41188 0.0
C255 C 0.44892 0.97321 0.41885 0.0
C256 C 0.22735 0.97105 0.39973 0.0
O257 O 0.18626 0.89427 0.46756 0.0
O258 O 0.27929 0.91384 0.46066 0.0
O259 O 0.27519 0.96682 0.40299 0.0
O260 O 0.17613 0.92516 0.40493 0.0
O261 O 0.25423 0.86615 0.36867 0.0
H262 H 0.38799 0.01032 0.42463 0.0
H263 H 0.35461 0.8361 0.40201 0.0
O264 O 0.15625 0.82095 0.3776 0.0
O265 O 0.16042 0.78364 0.44129 0.0
O266 O 0.25292 0.81025 0.42631 0.0
C267 C 0.20165 0.7703 0.43735 0.0
H268 H 0.96213 0.76572 0.47405 0.0
H269 H 0.49191 0.01112 0.42625 0.0
Co270 Co 0.31828 0.17394 0.91124 0.0
C271 C 0.38209 0.2152 0.84921 0.0
Co272 Co 0.38087 0.27079 0.90795 0.0
C273 C 0.21225 0.0493 0.91305 0.0
C274 C 0.29793 0.05724 0.90141 0.0
N275 N 0.27159 0.0903 0.90985 0.0
N276 N 0.20197 0.99258 0.90765 0.0
C277 C 0.25572 0.99783 0.90015 0.0
H278 H 0.17746 0.06067 0.91862 0.0
H279 H 0.34518 0.07533 0.89526 0.0
C280 C 0.31123 0.23394 0.968 0.0
N281 N 0.43528 0.35268 0.908 0.0
C282 C 0.49546 0.37612 0.90447 0.0
C283 C 0.42804 0.39987 0.91644 0.0
N284 N 0.52654 0.4353 0.9116 0.0
C285 C 0.48428 0.45076 0.91903 0.0
C286 C 0.26494 0.23624 0.88598 0.0
O287 O 0.28677 0.18102 0.95499 0.0
O288 O 0.35759 0.27621 0.95348 0.0
O289 O 0.31609 0.28249 0.89245 0.0
O290 O 0.25808 0.18387 0.89021 0.0
O291 O 0.40205 0.26691 0.86224 0.0
H292 H 0.38512 0.39696 0.92197 0.0
H293 H 0.51663 0.3494 0.89908 0.0
O294 O 0.3484 0.16929 0.86708 0.0
O295 O 0.37802 0.16329 0.93288 0.0
O296 O 0.44502 0.25611 0.9236 0.0
C297 C 0.43255 0.20396 0.93335 0.0
H298 H 0.26349 0.96133 0.89284 0.0
H299 H 0.49342 0.49504 0.92703 0.0
Co300 Co 0.155 0.30884 0.41713 0.0
C301 C 0.16276 0.3649 0.3521 0.0
Co302 Co 0.11857 0.37071 0.41293 0.0
C303 C 0.17723 0.20418 0.41602 0.0
C304 C 0.2529 0.28989 0.40376 0.0
N305 N 0.19449 0.26347 0.41388 0.0
N306 N 0.22308 0.19368 0.40791 0.0
C307 C 0.2705 0.24767 0.40045 0.0
H308 H 0.13197 0.16956 0.42272 0.0
H309 H 0.28087 0.33704 0.39756 0.0
C310 C 0.10239 0.31137 0.47656 0.0
N311 N 0.08803 0.42325 0.41548 0.0
C312 C 0.12086 0.48295 0.40936 0.0
C313 C 0.0379 0.41583 0.43139 0.0
N314 N 0.09471 0.5137 0.42178 0.0
C315 C 0.04202 0.47143 0.43544 0.0
C316 C 0.03564 0.25104 0.39938 0.0
O317 O 0.12714 0.28314 0.46335 0.0
O318 O 0.10178 0.35345 0.45959 0.0
O319 O 0.04026 0.30288 0.40292 0.0
O320 O 0.08211 0.24496 0.40191 0.0
O321 O 0.13314 0.38664 0.36621 0.0
H322 H 1.00329 0.37369 0.44199 0.0
H323 H 0.16604 0.50421 0.39895 0.0
O324 O 0.17904 0.33378 0.37012 0.0
O325 O 0.228 0.37293 0.43375 0.0
O326 O 0.19808 0.43731 0.42296 0.0
C327 C 0.23944 0.4268 0.43248 0.0
H328 H 0.31417 0.25568 0.39166 0.0
H329 H 1.01042 0.48033 0.44918 0.0
Co330 Co 0.86215 0.1588 0.92268 0.0
C331 C 0.83281 0.18136 0.85842 0.0
Co332 Co 0.76716 0.13274 0.91703 0.0
C333 C 0.98418 0.18913 0.90465 0.0
C334 C 0.97436 0.20388 0.95746 0.0
N335 N 0.94275 0.18224 0.92829 0.0
N336 N 0.0404 0.2147 0.91797 0.0
C337 C 0.03433 0.22387 0.95118 0.0
H338 H 0.9736 0.17751 0.87803 0.0
H339 H 0.95524 0.20661 0.98156 0.0
C340 C 0.79029 0.09897 0.97905 0.0
N341 N 0.68649 0.11308 0.91289 0.0
C342 C 0.66113 0.1439 0.9267 0.0
C343 C 0.64094 0.06693 0.89595 0.0
N344 N 0.60205 0.11905 0.91908 0.0
C345 C 0.58887 0.07044 0.89979 0.0
C346 C 0.79415 0.04281 0.90085 0.0
O347 O 0.84351 0.12098 0.96697 0.0
O348 O 0.75253 0.10889 0.96326 0.0
O349 O 0.74933 0.05133 0.90603 0.0
O350 O 0.8474 0.08617 0.90464 0.0
O351 O 0.77978 0.15336 0.8706 0.0
H352 H 0.64533 0.03334 0.8814 0.0
H353 H 0.68511 0.18377 0.94233 0.0
O354 O 0.87765 0.19284 0.87762 0.0
O355 O 0.87934 0.23298 0.94064 0.0
O356 O 0.78932 0.21579 0.92734 0.0
C357 C 0.84307 0.25264 0.93669 0.0
H358 H 0.07073 0.2434 0.96964 0.0
H359 H 0.54517 0.04062 0.88855 0.0
C360 C 0.22875 0.00864 0.16681 0.0
C361 C 0.16636 0.96623 0.16639 0.0
C362 C 0.24982 0.07017 0.17196 0.0
C363 C 0.20938 0.09191 0.17634 0.0
H364 H 0.26187 0.99431 0.16299 0.0
H365 H 0.29802 0.10125 0.1714 0.0
S366 S 0.042 1.00012 0.17936 0.0
N367 N 0.06454 0.95051 0.17244 0.0
N368 N 0.10421 0.06639 0.18178 0.0
C369 C 0.14698 0.05011 0.17678 0.0
C370 C 0.12546 0.98722 0.17196 0.0
C371 C 0.11771 0.19495 0.67092 0.0
C372 C 0.16026 0.23608 0.64794 0.0
C373 C 0.06499 0.19691 0.67841 0.0
C374 C 0.05359 0.24027 0.66326 0.0
H375 H 0.12567 0.16169 0.68338 0.0
H376 H 0.03231 0.1635 0.69561 0.0
S377 S 0.14953 0.35444 0.59909 0.0
N378 N 0.18696 0.31905 0.60887 0.0
N379 N 0.0879 0.32296 0.62273 0.0
C380 C 0.09605 0.28153 0.64016 0.0
C381 C 0.14936 0.27925 0.63249 0.0
C382 C 0.94457 0.12015 0.1934 0.0
C383 C 0.89869 0.11092 0.17016 0.0
C384 C 1.00571 0.15988 0.18578 0.0
C385 C 0.02258 0.19255 0.15501 0.0
H386 H 0.93304 0.0958 0.2173 0.0
H387 H 0.03978 0.16632 0.20446 0.0
S388 S 0.9189 0.18343 0.08579 0.0
N389 N 0.87391 0.13609 0.11509 0.0
N390 N 0.98819 0.21214 0.10112 0.0
C391 C 0.97685 0.18339 0.13164 0.0
C392 C 0.91505 0.14218 0.13912 0.0
C393 C 0.76099 0.82566 0.65098 0.0
C394 C 0.81146 0.82269 0.66282 0.0
C395 C 0.76251 0.88088 0.6486 0.0
C396 C 0.8144 0.93486 0.65797 0.0
H397 H 0.72099 0.78554 0.64212 0.0
H398 H 0.72311 0.88162 0.63878 0.0
S399 S 0.95599 0.95073 0.69401 0.0
N400 N 0.91334 0.87792 0.68644 0.0
N401 N 0.91547 0.98181 0.68201 0.0
C402 C 0.86441 0.93245 0.67091 0.0
C403 C 0.86297 0.87623 0.67346 0.0
C404 C 0.88548 0.83431 0.17716 0.0
C405 C 0.86851 0.77305 0.1743 0.0
C406 C 0.84646 0.8553 0.16693 0.0
C407 C 0.78946 0.81578 0.15291 0.0
H408 H 0.92944 0.86613 0.18736 0.0
H409 H 0.86115 0.90274 0.16998 0.0
S410 S 0.72494 0.65096 0.13923 0.0
N411 N 0.79215 0.6734 0.15615 0.0
N412 N 0.71826 0.71189 0.13664 0.0
C413 C 0.77224 0.75421 0.14976 0.0
C414 C 0.81182 0.73302 0.16062 0.0
C415 C 0.10511 0.928 0.66006 0.0
C416 C 0.10438 0.88278 0.63936 0.0
C417 C 0.15917 0.98185 0.66607 0.0
C418 C 0.21404 0.99159 0.65186 0.0
H419 H 0.06397 0.92109 0.67217 0.0
H420 H 0.15802 0.01607 0.68187 0.0
S421 S 0.23372 0.8894 0.59243 0.0
N422 N 0.16126 0.85292 0.60235 0.0
N423 N 0.26296 0.95332 0.61388 0.0
C424 C 0.21332 0.94696 0.63053 0.0
C425 C 0.15839 0.89276 0.62419 0.0
C426 C 0.87407 0.71991 0.42106 0.0
C427 C 0.92737 0.76458 0.40524 0.0
C428 C 0.8167 0.71039 0.41158 0.0
C429 C 0.8105 0.74507 0.38579 0.0
H430 H 0.87691 0.69456 0.44239 0.0
H431 H 0.77796 0.68001 0.42677 0.0
S432 S 0.93358 0.85964 0.33205 0.0
N433 N 0.96849 0.83811 0.35938 0.0
N434 N 0.86094 0.81886 0.34101 0.0
C435 C 0.86247 0.78476 0.36719 0.0
C436 C 0.92088 0.79498 0.37705 0.0
C437 C 0.04447 0.87668 0.8833 0.0
C438 C 0.04023 0.82338 0.89652 0.0
C439 C 0.09666 0.93265 0.88812 0.0
C440 C 0.14592 0.93698 0.90649 0.0
H441 H 1.00696 0.8752 0.86939 0.0
H442 H 0.09909 0.97249 0.87686 0.0
S443 S 0.15554 0.81261 0.94928 0.0
N444 N 0.08878 0.77956 0.93046 0.0
N445 N 0.18622 0.88482 0.93987 0.0
C446 C 0.14182 0.88445 0.92042 0.0
C447 C 0.08921 0.82756 0.91525 0.0
C448 C 0.27514 0.13466 0.41457 0.0
C449 C 0.22327 0.13759 0.40496 0.0
C450 C 0.27819 0.08171 0.41051 0.0
C451 C 0.22942 0.02971 0.39659 0.0
H452 H 0.31329 0.17344 0.42601 0.0
H453 H 0.31782 0.08078 0.4198 0.0
S454 S 0.08581 0.01571 0.36402 0.0
N455 N 0.12414 0.08546 0.3785 0.0
N456 N 0.12922 0.9856 0.37092 0.0
C457 C 0.17812 0.03273 0.3857 0.0
C458 C 0.17505 0.08662 0.38998 0.0
C459 C 0.20625 0.28643 0.90143 0.0
C460 C 0.20988 0.24124 0.88287 0.0
C461 C 0.15009 0.27951 0.91073 0.0
C462 C 0.0959 0.22772 0.90141 0.0
H463 H 0.24667 0.32431 0.91181 0.0
H464 H 0.14903 0.31305 0.92716 0.0
S465 S 0.08134 0.10232 0.84725 0.0
N466 N 0.15492 0.14769 0.85107 0.0
N467 N 0.04931 0.13473 0.8687 0.0
C468 C 0.09892 0.18567 0.87965 0.0
C469 C 0.15607 0.19255 0.87027 0.0
C470 C 0.96248 0.15242 0.42359 0.0
C471 C 0.97657 0.19599 0.39801 0.0
C472 C 0.91338 0.09408 0.42007 0.0
C473 C 0.87766 0.07729 0.39052 0.0
H474 H 0.99161 0.16268 0.44567 0.0
H475 H 0.90635 0.06066 0.43918 0.0
S476 S 0.89161 0.17684 0.31818 0.0
N477 N 0.94775 0.22061 0.344 0.0
N478 N 0.85552 0.1103 0.33695 0.0
C479 C 0.88871 0.12174 0.36593 0.0
C480 C 0.93829 0.18141 0.36976 0.0
C481 C 0.74358 0.87947 0.91782 0.0
C482 C 0.79141 0.87356 0.90393 0.0
C483 C 0.74162 0.93314 0.91439 0.0
C484 C 0.78725 0.98238 0.89667 0.0
H485 H 0.70838 0.84279 0.93226 0.0
H486 H 0.7061 0.93713 0.92722 0.0
S487 S 0.91708 0.98626 0.8513 0.0
N488 N 0.8816 0.91878 0.86891 0.0
N489 N 0.87831 0.01975 0.86222 0.0
C490 C 0.83346 0.9757 0.88109 0.0
C491 C 0.83561 0.92135 0.88487 0.0
C492 C 0.09317 0.58795 0.16235 0.0
C493 C 0.09129 0.62426 0.13595 0.0
C494 C 0.10012 0.53755 0.15519 0.0
C495 C 0.10526 0.5217 0.12138 0.0
H496 H 0.092 0.60012 0.18868 0.0
H497 H 0.10212 0.51116 0.17623 0.0
S498 S 0.10414 0.60372 0.04344 0.0
N499 N 0.0956 0.64155 0.07504 0.0
N500 N 0.10844 0.54753 0.06144 0.0
C501 C 0.10232 0.55737 0.09487 0.0
C502 C 0.09555 0.6085 0.10221 0.0
C503 C 0.68022 0.11439 0.62671 0.0
C504 C 0.72123 0.17675 0.62899 0.0
C505 C 0.61799 0.09152 0.62874 0.0
C506 C 0.59373 0.12987 0.63245 0.0
H507 H 0.69606 0.08226 0.62449 0.0
H508 H 0.58866 0.04314 0.62818 0.0
S509 S 0.68086 0.29751 0.63337 0.0
N510 N 0.73295 0.27701 0.63168 0.0
N511 N 0.61533 0.23425 0.6336 0.0
C512 C 0.63386 0.19273 0.63255 0.0
C513 C 0.69772 0.21607 0.63114 0.0
C514 C 0.41442 0.58259 0.1345 0.0
C515 C 0.4655 0.58516 0.1192 0.0
C516 C 0.36303 0.52738 0.14199 0.0
C517 C 0.36031 0.47195 0.1349 0.0
H518 H 0.41325 0.62363 0.13965 0.0
H519 H 0.32428 0.52823 0.15278 0.0
S520 S 0.48368 0.45328 0.09765 0.0
N521 N 0.51179 0.52704 0.09934 0.0
N522 N 0.41453 0.4231 0.1133 0.0
C523 C 0.41186 0.47357 0.12095 0.0
C524 C 0.46444 0.53014 0.11301 0.0
C525 C 0.82732 0.49766 0.64246 0.0
C526 C 0.85021 0.54239 0.61719 0.0
C527 C 0.85372 0.46181 0.6485 0.0
C528 C 0.90343 0.46873 0.62922 0.0
H529 H 0.79154 0.49307 0.65929 0.0
H530 H 0.8364 0.42997 0.66935 0.0
S531 S 0.97308 0.57283 0.55612 0.0
N532 N 0.92108 0.58794 0.57048 0.0
N533 N 0.96897 0.51847 0.5807 0.0
C534 C 0.92395 0.51057 0.60229 0.0
C535 C 0.89758 0.54771 0.59648 0.0
C536 C 0.51294 0.93307 0.12746 0.0
C537 C 0.51813 0.88532 0.14151 0.0
C538 C 0.45569 0.92778 0.12246 0.0
C539 C 0.40198 0.87479 0.13154 0.0
H540 H 0.55285 0.9732 0.11862 0.0
H541 H 0.45335 0.96488 0.11068 0.0
S542 S 0.39267 0.73876 0.17154 0.0
N543 N 0.4657 0.78536 0.16667 0.0
N544 N 0.35887 0.77485 0.15653 0.0
C545 C 0.40726 0.82806 0.14709 0.0
C546 C 0.46516 0.83353 0.15224 0.0
C547 C 0.52583 0.41925 0.61021 0.0
C548 C 0.56798 0.44274 0.63703 0.0
C549 C 0.49054 0.35698 0.60503 0.0
C550 C 0.49663 0.31579 0.62616 0.0
H551 H 0.51995 0.44916 0.59307 0.0
H552 H 0.45698 0.34085 0.58488 0.0
S553 S 0.59881 0.35368 0.70072 0.0
N554 N 0.61238 0.41953 0.68564 0.0
N555 N 0.54733 0.30267 0.6752 0.0
C556 C 0.53953 0.33855 0.65257 0.0
C557 C 0.57478 0.40194 0.65823 0.0
C558 C 0.46547 0.83752 0.42457 0.0
C559 C 0.48235 0.89619 0.41319 0.0
C560 C 0.50774 0.8171 0.42672 0.0
C561 C 0.56892 0.85465 0.41793 0.0
H562 H 0.41931 0.80721 0.43221 0.0
H563 H 0.49229 0.77147 0.4353 0.0
S564 S 0.63538 0.01021 0.38351 0.0
N565 N 0.56392 0.98978 0.39064 0.0
N566 N 0.64316 0.95253 0.3955 0.0
C567 C 0.5862 0.91323 0.40623 0.0
C568 C 0.5431 0.93367 0.40367 0.0
C569 C 0.6772 0.54681 0.94863 0.0
C570 C 0.71818 0.53929 0.92801 0.0
C571 C 0.61478 0.51274 0.94315 0.0
C572 C 0.591 0.47035 0.91657 0.0
H573 H 0.69371 0.58108 0.96832 0.0
H574 H 0.58499 0.52004 0.95968 0.0
S575 S 0.67943 0.4347 0.85484 0.0
N576 N 0.73086 0.48615 0.88021 0.0
N577 N 0.6136 0.42317 0.86917 0.0
C578 C 0.63151 0.46149 0.89619 0.0
C579 C 0.69508 0.49558 0.90215 0.0
C580 C 0.14167 0.66598 0.46018 0.0
C581 C 0.18347 0.70582 0.43631 0.0
C582 C 0.1129 0.60337 0.45535 0.0
C583 C 0.12374 0.5783 0.42601 0.0
H584 H 0.13001 0.68344 0.48234 0.0
H585 H 0.08177 0.57451 0.4747 0.0
S586 S 0.22507 0.66399 0.35426 0.0
N587 N 0.23277 0.71622 0.38178 0.0
N588 N 0.17687 0.599 0.37186 0.0
C589 C 0.16528 0.61792 0.40185 0.0
C590 C 0.1956 0.68151 0.40721 0.0
C591 C 0.57998 0.20298 0.92122 0.0
C592 C 0.56256 0.14234 0.92768 0.0
C593 C 0.53918 0.22452 0.92576 0.0
C594 C 0.47985 0.18626 0.93742 0.0
H595 H 0.62434 0.233 0.91087 0.0
H596 H 0.5532 0.27038 0.91824 0.0
S597 S 0.41693 0.02646 0.96394 0.0
N598 N 0.4855 0.04655 0.95 0.0
N599 N 0.40934 0.08671 0.95991 0.0
C600 C 0.46407 0.12681 0.94671 0.0
C601 C 0.50518 0.10485 0.94138 0.0
C602 C 0.32807 0.52299 0.41314 0.0
C603 C 0.30272 0.47517 0.43656 0.0
C604 C 0.39095 0.5609 0.41116 0.0
C605 C 0.4306 0.55261 0.43273 0.0
H606 H 0.29953 0.5287 0.39473 0.0
H607 H 0.40867 0.59501 0.39148 0.0
S608 S 0.38509 0.44077 0.5028 0.0
N609 N 0.32084 0.42577 0.48431 0.0
N610 N 0.43857 0.49844 0.48172 0.0
C611 C 0.40514 0.50778 0.45802 0.0
C612 C 0.34132 0.46877 0.45966 0.0
C613 C 0.85227 0.40603 0.93125 0.0
C614 C 0.91424 0.44553 0.92482 0.0
C615 C 0.82945 0.34392 0.93622 0.0
C616 C 0.86782 0.31901 0.93549 0.0
H617 H 0.82104 0.42316 0.93258 0.0
H618 H 0.78139 0.31521 0.94039 0.0
S619 S 0.0331 0.40246 0.91743 0.0
N620 N 0.01267 0.45444 0.91622 0.0
N621 N 0.97105 0.33903 0.92659 0.0
C622 C 0.93003 0.35827 0.92927 0.0
C623 C 0.95288 0.42109 0.92372 0.0
C624 C 0.21374 0.35371 0.30057 0.0
C625 C 0.17425 0.37132 0.31469 0.0
C626 C 0.22029 0.35189 0.26528 0.0
C627 C 0.18729 0.36706 0.2422 0.0
H628 H 0.23885 0.33963 0.31687 0.0
H629 H 0.25045 0.33649 0.2561 0.0
S630 S 0.08178 0.42164 0.26592 0.0
N631 N 0.10475 0.40886 0.30281 0.0
N632 N 0.11684 0.40464 0.23622 0.0
C633 C 0.14989 0.38777 0.25586 0.0
C634 C 0.14339 0.39001 0.2921 0.0
C635 C 0.80357 0.16382 0.76337 0.0
C636 C 0.85528 0.2132 0.74971 0.0
C637 C 0.79603 0.1553 0.79867 0.0
C638 C 0.84077 0.19487 0.82158 0.0
H639 H 0.76894 0.13116 0.74664 0.0
H640 H 0.75569 0.11615 0.80803 0.0
S641 S 0.98438 0.33142 0.79876 0.0
N642 N 0.95137 0.30321 0.76174 0.0
N643 N 0.93794 0.28585 0.8282 0.0
C644 C 0.89246 0.24474 0.8083 0.0
C645 C 0.89948 0.2543 0.77233 0.0
C646 C 0.62226 0.75122 0.24722 0.0
C647 C 0.61833 0.80156 0.23619 0.0
C648 C 0.62676 0.74161 0.28218 0.0
C649 C 0.62786 0.78239 0.30669 0.0
H650 H 0.62673 0.72206 0.2288 0.0
H651 H 0.63396 0.70489 0.28984 0.0
S652 S 0.60636 0.91352 0.29111 0.0
N653 N 0.60591 0.88659 0.25277 0.0
N654 N 0.61559 0.86911 0.31806 0.0
C655 C 0.61838 0.8294 0.29606 0.0
C656 C 0.61317 0.83876 0.26083 0.0
C657 C 0.79249 0.64498 0.75991 0.0
C658 C 0.83766 0.64793 0.73787 0.0
C659 C 0.79874 0.64544 0.7955 0.0
C660 C 0.84968 0.64725 0.81055 0.0
H661 H 0.75268 0.64436 0.74963 0.0
H662 H 0.76357 0.64478 0.81133 0.0
S663 S 0.97972 0.65274 0.76437 0.0
N664 N 0.93452 0.65156 0.73379 0.0
N665 N 0.94565 0.6505 0.8006 0.0
C666 C 0.89436 0.64828 0.78884 0.0
C667 C 0.88857 0.6492 0.75256 0.0
C668 C 0.22625 0.83892 0.26159 0.0
C669 C 0.16982 0.79431 0.2493 0.0
C670 C 0.23669 0.84974 0.2968 0.0
C671 C 0.19098 0.81662 0.32098 0.0
H672 H 0.26139 0.86784 0.24393 0.0
H673 H 0.28005 0.88633 0.305 0.0
S674 S 0.03896 0.6879 0.30219 0.0
N675 N 0.07042 0.71133 0.26442 0.0
N676 N 0.08997 0.73263 0.33016 0.0
C677 C 0.13591 0.76931 0.30908 0.0
C678 C 0.12543 0.75788 0.27339 0.0
C679 C 0.39355 0.25155 0.78909 0.0
C680 C 0.39063 0.20839 0.8125 0.0
C681 C 0.39193 0.24171 0.75379 0.0
C682 C 0.38886 0.18905 0.74065 0.0
H683 H 0.39417 0.29196 0.79808 0.0
H684 H 0.39223 0.27516 0.73669 0.0
S685 S 0.38481 0.06422 0.79125 0.0
N686 N 0.38719 0.11242 0.8201 0.0
N687 N 0.38596 0.09454 0.75389 0.0
C688 C 0.3888 0.14688 0.76381 0.0
C689 C 0.38917 0.15636 0.7997 0.0
C690 C 0.23766 0.20416 1.01741 0.0
C691 C 0.28148 0.24929 0.99642 0.0
C692 C 0.20926 0.21838 0.04385 0.0
C693 C 0.22176 0.27803 0.04985 0.0
H694 H 0.2264 0.15766 1.01405 0.0
H695 H 0.17851 0.18246 0.06055 0.0
S696 S 0.32972 0.41274 1.00116 0.0
N697 N 0.33387 0.3566 0.98301 0.0
N698 N 0.27942 0.38211 0.03196 0.0
C699 C 0.26327 0.32313 1.02822 0.0
C700 C 0.29335 0.30909 1.0018 0.0
C701 C 0.03771 0.23046 0.51976 0.0
C702 C 0.06386 0.29041 0.50795 0.0
C703 C 0.99196 0.20799 0.54505 0.0
C704 C 0.96954 0.24412 0.55894 0.0
H705 H 0.05148 0.20022 0.5088 0.0
H706 H 0.97427 0.16212 0.55383 0.0
S707 S 0.02458 0.40527 0.53735 0.0
N708 N 0.06627 0.38634 0.51398 0.0
N709 N 0.97837 0.34374 0.55843 0.0
C710 C 0.99569 0.30419 0.54712 0.0
C711 C 0.0433 0.32738 0.52261 0.0
C712 C 0.68144 0.96205 0.03199 0.0
C713 C 0.72003 0.94833 0.05076 0.0
C714 C 0.70474 0.01188 1.00978 0.0
C715 C 0.7677 0.05028 1.00543 0.0
H716 H 0.63303 0.9362 0.03593 0.0
H717 H 0.67284 0.02035 0.99598 0.0
S718 S 0.88771 0.03208 0.04839 0.0
N719 N 0.82397 0.97617 0.06335 0.0
N720 N 0.86782 0.06871 1.02133 0.0
C721 C 0.8066 0.03578 1.02349 0.0
C722 C 0.78278 0.98525 0.04615 0.0
C723 C 0.82685 0.78156 0.52945 0.0
C724 C 0.78649 0.73024 0.54848 0.0
C725 C 0.806 0.80517 0.50322 0.0
C726 C 0.74381 0.77936 0.49557 0.0
H727 H 0.87489 0.80333 0.53459 0.0
H728 H 0.83893 0.84261 0.4882 0.0
S729 S 0.61865 0.64673 0.53887 0.0
N730 N 0.68056 0.65509 0.55719 0.0
N731 N 0.64217 0.70171 0.51084 0.0
C732 C 0.70317 0.72965 0.51537 0.0
C733 C 0.7242 0.70452 0.54089 0.0
C734 C 1.01078 0.72083 1.00579 0.0
C735 C 0.96131 0.73135 1.00255 0.0
C736 C 0.05249 0.7449 0.03282 0.0
C737 C 0.046 0.77965 0.05835 0.0
H738 H 0.01744 0.69324 0.98732 0.0
H739 H 0.08796 0.73332 0.03471 0.0
S740 S 0.92692 0.8236 0.06161 0.0
N741 N 0.91106 0.78245 1.02661 0.0
N742 N 0.98769 0.82573 0.07812 0.0
C743 C 0.99793 0.79214 0.05502 0.0
C744 C 0.95614 0.76859 1.02704 0.0
C745 C 0.22551 0.98706 0.5203 0.0
C746 C 0.26348 0.96772 0.50533 0.0
C747 C 0.24865 0.03735 0.5425 0.0
C748 C 0.3109 0.07112 0.55018 0.0
H749 H 0.17753 0.9633 0.51479 0.0
H750 H 0.21724 0.04855 0.55458 0.0
S751 S 0.43033 0.04128 0.51698 0.0
N752 N 0.36711 0.98737 0.50036 0.0
N753 N 0.41018 0.08262 0.53979 0.0
C754 C 0.34933 0.05311 0.53466 0.0
C755 C 0.32582 1.00133 0.51301 0.0
loop_
_geom_bond_atom_site_label_1
_geom_bond_atom_site_label_2
_geom_bond_distance
_geom_bond_site_symmetry_2
_ccdc_geom_bond_type
Co0 N5 2.057 . S
Co0 O17 2.021 . S
Co0 O20 2.062 . S
Co0 O24 2.117 . S
Co0 O25 2.020 . S
C1 O21 1.259 . S
C1 O24 1.258 . S
Co2 N11 2.057 . S
Co2 O18 2.117 . S
Co2 O19 2.020 . S
Co2 O21 2.021 . S
Co2 O26 2.062 . S
C3 N5 1.316 . S
C3 N6 1.347 . S
C3 H8 0.931 . S
C4 N5 1.375 . S
C4 C7 1.350 . S
C4 H9 0.930 . S
N5 Co0 2.057 . S
N5 C3 1.316 . S
N5 C4 1.375 . S
N6 C3 1.347 . S
N6 C7 1.373 . S
C7 C4 1.350 . S
C7 N6 1.373 . S
C7 H28 0.931 . S
H8 C3 0.931 . S
H9 C4 0.930 . S
C10 O17 1.259 . S
C10 O18 1.258 . S
N11 Co2 2.057 . S
N11 C12 1.316 . S
N11 C13 1.375 . S
C12 N11 1.316 . S
C12 N14 1.347 . S
C12 H23 0.931 . S
C13 N11 1.375 . S
C13 C15 1.350 . S
C13 H22 0.930 . S
N14 C12 1.347 . S
N14 C15 1.373 . S
C15 C13 1.350 . S
C15 N14 1.373 . S
C15 H29 0.931 . S
C16 O19 1.256 . S
C16 O20 1.255 . S
O17 Co0 2.021 . S
O17 C10 1.259 . S
O18 Co2 2.117 . S
O18 C10 1.258 . S
O19 Co2 2.020 . S
O19 C16 1.256 . S
O20 Co0 2.062 . S
O20 C16 1.255 . S
O21 C1 1.259 . S
O21 Co2 2.021 . S
H22 C13 0.930 . S
H23 C12 0.931 . S
O24 Co0 2.117 . S
O24 C1 1.258 . S
O25 Co0 2.020 . S
O25 C27 1.256 . S
O26 Co2 2.062 . S
O26 C27 1.255 . S
C27 O25 1.256 . S
C27 O26 1.255 . S
H28 C7 0.931 . S
H29 C15 0.931 . S
Co30 N35 2.057 . S
Co30 O47 2.021 . S
Co30 O50 2.062 . S
Co30 O54 2.117 . S
Co30 O55 2.020 . S
C31 O51 1.259 . S
C31 O54 1.258 . S
Co32 N41 2.057 . S
Co32 O48 2.117 . S
Co32 O49 2.020 . S
Co32 O51 2.021 . S
Co32 O56 2.062 . S
C33 N35 1.316 . S
C33 N36 1.347 1_545 S
C33 H38 0.931 . S
C34 N35 1.375 . S
C34 C37 1.350 1_545 S
C34 H39 0.930 . S
N35 Co30 2.057 . S
N35 C33 1.316 . S
N35 C34 1.375 . S
N36 C33 1.347 1_565 S
N36 C37 1.373 . S
C37 C34 1.350 1_565 S
C37 N36 1.373 . S
C37 H58 0.931 . S
H38 C33 0.931 . S
H39 C34 0.930 . S
C40 O47 1.259 . S
C40 O48 1.258 . S
N41 Co32 2.057 . S
N41 C42 1.316 . S
N41 C43 1.375 . S
C42 N41 1.316 . S
C42 N44 1.347 . S
C42 H53 0.931 . S
C43 N41 1.375 . S
C43 C45 1.350 . S
C43 H52 0.930 . S
N44 C42 1.347 . S
N44 C45 1.373 . S
C45 C43 1.350 . S
C45 N44 1.373 . S
C45 H59 0.931 . S
C46 O49 1.256 . S
C46 O50 1.255 . S
O47 Co30 2.021 . S
O47 C40 1.259 . S
O48 Co32 2.117 . S
O48 C40 1.258 . S
O49 Co32 2.020 . S
O49 C46 1.256 . S
O50 Co30 2.062 . S
O50 C46 1.255 . S
O51 C31 1.259 . S
O51 Co32 2.021 . S
H52 C43 0.930 . S
H53 C42 0.931 . S
O54 Co30 2.117 . S
O54 C31 1.258 . S
O55 Co30 2.020 . S
O55 C57 1.256 . S
O56 Co32 2.062 . S
O56 C57 1.255 . S
C57 O55 1.256 . S
C57 O56 1.255 . S
H58 C37 0.931 . S
H59 C45 0.931 . S
Co60 N65 2.057 . S
Co60 O77 2.021 . S
Co60 O80 2.062 . S
Co60 O84 2.117 . S
Co60 O85 2.020 . S
C61 O81 1.259 . S
C61 O84 1.258 . S
Co62 N71 2.057 1_565 S
Co62 O78 2.117 . S
Co62 O79 2.020 . S
Co62 O81 2.021 . S
Co62 O86 2.062 . S
C63 N65 1.316 . S
C63 N66 1.347 . S
C63 H68 0.931 . S
C64 N65 1.375 . S
C64 C67 1.350 . S
C64 H69 0.930 . S
N65 Co60 2.057 . S
N65 C63 1.316 . S
N65 C64 1.375 . S
N66 C63 1.347 . S
N66 C67 1.373 . S
C67 C64 1.350 . S
C67 N66 1.373 . S
C67 H88 0.931 . S
H68 C63 0.931 . S
H69 C64 0.930 . S
C70 O77 1.259 . S
C70 O78 1.258 . S
N71 Co62 2.057 1_545 S
N71 C72 1.316 . S
N71 C73 1.375 . S
C72 N71 1.316 . S
C72 N74 1.347 . S
C72 H83 0.931 . S
C73 N71 1.375 . S
C73 C75 1.350 . S
C73 H82 0.930 1_545 S
N74 C72 1.347 . S
N74 C75 1.373 . S
C75 C73 1.350 . S
C75 N74 1.373 . S
C75 H89 0.931 . S
C76 O79 1.256 . S
C76 O80 1.255 . S
O77 Co60 2.021 . S
O77 C70 1.259 . S
O78 Co62 2.117 . S
O78 C70 1.258 . S
O79 Co62 2.020 . S
O79 C76 1.256 . S
O80 Co60 2.062 . S
O80 C76 1.255 . S
O81 C61 1.259 . S
O81 Co62 2.021 . S
H82 C73 0.930 1_565 S
H83 C72 0.931 . S
O84 Co60 2.117 . S
O84 C61 1.258 . S
O85 Co60 2.020 . S
O85 C87 1.256 . S
O86 Co62 2.062 . S
O86 C87 1.255 . S
C87 O85 1.256 . S
C87 O86 1.255 . S
H88 C67 0.931 . S
H89 C75 0.931 . S
Co90 N95 2.057 . S
Co90 O107 2.021 . S
Co90 O110 2.062 . S
Co90 O114 2.117 . S
Co90 O115 2.020 . S
C91 O111 1.259 . S
C91 O114 1.258 . S
Co92 N101 2.057 . S
Co92 O108 2.117 . S
Co92 O109 2.020 . S
Co92 O111 2.021 . S
Co92 O116 2.062 . S
C93 N95 1.316 . S
C93 N96 1.347 1_655 S
C93 H98 0.931 . S
C94 N95 1.375 . S
C94 C97 1.350 1_655 S
C94 H99 0.930 . S
N95 Co90 2.057 . S
N95 C93 1.316 . S
N95 C94 1.375 . S
N96 C93 1.347 1_455 S
N96 C97 1.373 . S
C97 C94 1.350 1_455 S
C97 N96 1.373 . S
C97 H118 0.931 . S
H98 C93 0.931 . S
H99 C94 0.930 . S
C100 O107 1.259 . S
C100 O108 1.258 . S
N101 Co92 2.057 . S
N101 C102 1.316 . S
N101 C103 1.375 . S
C102 N101 1.316 . S
C102 N104 1.347 . S
C102 H113 0.931 . S
C103 N101 1.375 . S
C103 C105 1.350 . S
C103 H112 0.930 . S
N104 C102 1.347 . S
N104 C105 1.373 . S
C105 C103 1.350 . S
C105 N104 1.373 . S
C105 H119 0.931 . S
C106 O109 1.256 . S
C106 O110 1.255 . S
O107 Co90 2.021 . S
O107 C100 1.259 . S
O108 Co92 2.117 . S
O108 C100 1.258 . S
O109 Co92 2.020 . S
O109 C106 1.256 . S
O110 Co90 2.062 . S
O110 C106 1.255 . S
O111 C91 1.259 . S
O111 Co92 2.021 . S
H112 C103 0.930 . S
H113 C102 0.931 . S
O114 Co90 2.117 . S
O114 C91 1.258 . S
O115 Co90 2.020 . S
O115 C117 1.256 . S
O116 Co92 2.062 . S
O116 C117 1.255 . S
C117 O115 1.256 . S
C117 O116 1.255 . S
H118 C97 0.931 . S
H119 C105 0.931 . S
Co120 N125 2.057 . S
Co120 O137 2.021 . S
Co120 O140 2.062 . S
Co120 O144 2.117 . S
Co120 O145 2.020 . S
C121 O141 1.259 . S
C121 O144 1.258 . S
Co122 N131 2.057 1_455 S
Co122 O138 2.117 . S
Co122 O139 2.020 . S
Co122 O141 2.021 . S
Co122 O146 2.062 . S
C123 N125 1.316 . S
C123 N126 1.347 . S
C123 H128 0.931 . S
C124 N125 1.375 . S
C124 C127 1.350 . S
C124 H129 0.930 . S
N125 Co120 2.057 . S
N125 C123 1.316 . S
N125 C124 1.375 . S
N126 C123 1.347 . S
N126 C127 1.373 . S
C127 C124 1.350 . S
C127 N126 1.373 . S
C127 H148 0.931 . S
H128 C123 0.931 . S
H129 C124 0.930 . S
C130 O137 1.259 . S
C130 O138 1.258 . S
N131 Co122 2.057 1_655 S
N131 C132 1.316 . S
N131 C133 1.375 . S
C132 N131 1.316 . S
C132 N134 1.347 . S
C132 H143 0.931 . S
C133 N131 1.375 . S
C133 C135 1.350 . S
C133 H142 0.930 1_655 S
N134 C132 1.347 . S
N134 C135 1.373 . S
C135 C133 1.350 . S
C135 N134 1.373 . S
C135 H149 0.931 . S
C136 O139 1.256 . S
C136 O140 1.255 . S
O137 Co120 2.021 . S
O137 C130 1.259 . S
O138 Co122 2.117 . S
O138 C130 1.258 . S
O139 Co122 2.020 . S
O139 C136 1.256 . S
O140 Co120 2.062 . S
O140 C136 1.255 . S
O141 C121 1.259 . S
O141 Co122 2.021 . S
H142 C133 0.930 1_455 S
H143 C132 0.931 . S
O144 Co120 2.117 . S
O144 C121 1.258 . S
O145 Co120 2.020 . S
O145 C147 1.256 . S
O146 Co122 2.062 . S
O146 C147 1.255 . S
C147 O145 1.256 . S
C147 O146 1.255 . S
H148 C127 0.931 . S
H149 C135 0.931 . S
Co150 N155 2.057 . S
Co150 O167 2.021 . S
Co150 O170 2.062 . S
Co150 O174 2.117 . S
Co150 O175 2.020 . S
C151 O171 1.259 . S
C151 O174 1.258 . S
Co152 N161 2.057 . S
Co152 O168 2.117 . S
Co152 O169 2.020 . S
Co152 O171 2.021 . S
Co152 O176 2.062 . S
C153 N155 1.316 . S
C153 N156 1.347 . S
C153 H158 0.931 . S
C154 N155 1.375 . S
C154 C157 1.350 . S
C154 H159 0.930 . S
N155 Co150 2.057 . S
N155 C153 1.316 . S
N155 C154 1.375 . S
N156 C153 1.347 . S
N156 C157 1.373 . S
C157 C154 1.350 . S
C157 N156 1.373 . S
C157 H178 0.931 . S
H158 C153 0.931 . S
H159 C154 0.930 . S
C160 O167 1.259 . S
C160 O168 1.258 . S
N161 Co152 2.057 . S
N161 C162 1.316 . S
N161 C163 1.375 . S
C162 N161 1.316 . S
C162 N164 1.347 . S
C162 H173 0.931 . S
C163 N161 1.375 . S
C163 C165 1.350 . S
C163 H172 0.930 . S
N164 C162 1.347 . S
N164 C165 1.373 . S
C165 C163 1.350 . S
C165 N164 1.373 . S
C165 H179 0.931 . S
C166 O169 1.256 . S
C166 O170 1.255 . S
O167 Co150 2.021 . S
O167 C160 1.259 . S
O168 Co152 2.117 . S
O168 C160 1.258 . S
O169 Co152 2.020 . S
O169 C166 1.256 . S
O170 Co150 2.062 . S
O170 C166 1.255 . S
O171 C151 1.259 . S
O171 Co152 2.021 . S
H172 C163 0.930 . S
H173 C162 0.931 . S
O174 Co150 2.117 . S
O174 C151 1.258 . S
O175 Co150 2.020 . S
O175 C177 1.256 . S
O176 Co152 2.062 . S
O176 C177 1.255 . S
C177 O175 1.256 . S
C177 O176 1.255 . S
H178 C157 0.931 . S
H179 C165 0.931 . S
Co180 N185 2.057 . S
Co180 O197 2.021 . S
Co180 O200 2.062 . S
Co180 O204 2.117 . S
Co180 O205 2.020 . S
C181 O201 1.259 . S
C181 O204 1.258 . S
Co182 N191 2.057 . S
Co182 O198 2.117 . S
Co182 O199 2.020 . S
Co182 O201 2.021 . S
Co182 O206 2.062 . S
C183 N185 1.316 . S
C183 N186 1.347 1_565 S
C183 H188 0.931 . S
C184 N185 1.375 . S
C184 C187 1.350 1_565 S
C184 H189 0.930 . S
N185 Co180 2.057 . S
N185 C183 1.316 . S
N185 C184 1.375 . S
N186 C183 1.347 1_545 S
N186 C187 1.373 . S
C187 C184 1.350 1_545 S
C187 N186 1.373 . S
C187 H208 0.931 . S
H188 C183 0.931 . S
H189 C184 0.930 . S
C190 O197 1.259 . S
C190 O198 1.258 . S
N191 Co182 2.057 . S
N191 C192 1.316 . S
N191 C193 1.375 . S
C192 N191 1.316 . S
C192 N194 1.347 . S
C192 H203 0.931 . S
C193 N191 1.375 . S
C193 C195 1.350 . S
C193 H202 0.930 . S
N194 C192 1.347 . S
N194 C195 1.373 . S
C195 C193 1.350 . S
C195 N194 1.373 . S
C195 H209 0.931 . S
C196 O199 1.256 . S
C196 O200 1.255 . S
O197 Co180 2.021 . S
O197 C190 1.259 . S
O198 Co182 2.117 . S
O198 C190 1.258 . S
O199 Co182 2.020 . S
O199 C196 1.256 . S
O200 Co180 2.062 . S
O200 C196 1.255 . S
O201 C181 1.259 . S
O201 Co182 2.021 . S
H202 C193 0.930 . S
H203 C192 0.931 . S
O204 Co180 2.117 . S
O204 C181 1.258 . S
O205 Co180 2.020 . S
O205 C207 1.256 . S
O206 Co182 2.062 . S
O206 C207 1.255 . S
C207 O205 1.256 . S
C207 O206 1.255 . S
H208 C187 0.931 . S
H209 C195 0.931 . S
Co210 N215 2.057 . S
Co210 O227 2.021 . S
Co210 O230 2.062 . S
Co210 O234 2.117 . S
Co210 O235 2.020 . S
C211 O231 1.259 . S
C211 O234 1.258 . S
Co212 N221 2.057 . S
Co212 O228 2.117 . S
Co212 O229 2.020 . S
Co212 O231 2.021 . S
Co212 O236 2.062 . S
C213 N215 1.316 . S
C213 N216 1.347 . S
C213 H218 0.931 . S
C214 N215 1.375 . S
C214 C217 1.350 . S
C214 H219 0.930 . S
N215 Co210 2.057 . S
N215 C213 1.316 . S
N215 C214 1.375 . S
N216 C213 1.347 . S
N216 C217 1.373 . S
C217 C214 1.350 . S
C217 N216 1.373 . S
C217 H238 0.931 . S
H218 C213 0.931 . S
H219 C214 0.930 . S
C220 O227 1.259 . S
C220 O228 1.258 . S
N221 Co212 2.057 . S
N221 C222 1.316 . S
N221 C223 1.375 . S
C222 N221 1.316 . S
C222 N224 1.347 . S
C222 H233 0.931 . S
C223 N221 1.375 . S
C223 C225 1.350 . S
C223 H232 0.930 . S
N224 C222 1.347 . S
N224 C225 1.373 . S
C225 C223 1.350 . S
C225 N224 1.373 . S
C225 H239 0.931 . S
C226 O229 1.256 . S
C226 O230 1.255 . S
O227 Co210 2.021 . S
O227 C220 1.259 . S
O228 Co212 2.117 . S
O228 C220 1.258 . S
O229 Co212 2.020 . S
O229 C226 1.256 . S
O230 Co210 2.062 . S
O230 C226 1.255 . S
O231 C211 1.259 . S
O231 Co212 2.021 . S
H232 C223 0.930 . S
H233 C222 0.931 . S
O234 Co210 2.117 . S
O234 C211 1.258 . S
O235 Co210 2.020 . S
O235 C237 1.256 . S
O236 Co212 2.062 . S
O236 C237 1.255 . S
C237 O235 1.256 . S
C237 O236 1.255 . S
H238 C217 0.931 . S
H239 C225 0.931 . S
Co240 N245 2.057 . S
Co240 O257 2.021 . S
Co240 O260 2.062 . S
Co240 O264 2.117 . S
Co240 O265 2.020 . S
C241 O261 1.259 . S
C241 O264 1.258 . S
Co242 N251 2.057 . S
Co242 O258 2.117 . S
Co242 O259 2.020 . S
Co242 O261 2.021 . S
Co242 O266 2.062 . S
C243 N245 1.316 . S
C243 N246 1.347 1_455 S
C243 H248 0.931 . S
C244 N245 1.375 . S
C244 C247 1.350 1_455 S
C244 H249 0.930 . S
N245 Co240 2.057 . S
N245 C243 1.316 . S
N245 C244 1.375 . S
N246 C243 1.347 1_655 S
N246 C247 1.373 . S
C247 C244 1.350 1_655 S
C247 N246 1.373 . S
C247 H268 0.931 . S
H248 C243 0.931 . S
H249 C244 0.930 . S
C250 O257 1.259 . S
C250 O258 1.258 . S
N251 Co242 2.057 . S
N251 C252 1.316 . S
N251 C253 1.375 . S
C252 N251 1.316 . S
C252 N254 1.347 . S
C252 H263 0.931 . S
C253 N251 1.375 . S
C253 C255 1.350 . S
C253 H262 0.930 . S
N254 C252 1.347 . S
N254 C255 1.373 . S
C255 C253 1.350 . S
C255 N254 1.373 . S
C255 H269 0.931 . S
C256 O259 1.256 . S
C256 O260 1.255 . S
O257 Co240 2.021 . S
O257 C250 1.259 . S
O258 Co242 2.117 . S
O258 C250 1.258 . S
O259 Co242 2.020 . S
O259 C256 1.256 . S
O260 Co240 2.062 . S
O260 C256 1.255 . S
O261 C241 1.259 . S
O261 Co242 2.021 . S
H262 C253 0.930 . S
H263 C252 0.931 . S
O264 Co240 2.117 . S
O264 C241 1.258 . S
O265 Co240 2.020 . S
O265 C267 1.256 . S
O266 Co242 2.062 . S
O266 C267 1.255 . S
C267 O265 1.256 . S
C267 O266 1.255 . S
H268 C247 0.931 . S
H269 C255 0.931 . S
Co270 N275 2.057 . S
Co270 O287 2.021 . S
Co270 O290 2.062 . S
Co270 O294 2.117 . S
Co270 O295 2.020 . S
C271 O291 1.259 . S
C271 O294 1.258 . S
Co272 N281 2.057 . S
Co272 O288 2.117 . S
Co272 O289 2.020 . S
Co272 O291 2.021 . S
Co272 O296 2.062 . S
C273 N275 1.316 . S
C273 N276 1.347 1_545 S
C273 H278 0.931 . S
C274 N275 1.375 . S
C274 C277 1.350 1_545 S
C274 H279 0.930 . S
N275 Co270 2.057 . S
N275 C273 1.316 . S
N275 C274 1.375 . S
N276 C273 1.347 1_565 S
N276 C277 1.373 . S
C277 C274 1.350 1_565 S
C277 N276 1.373 . S
C277 H298 0.931 . S
H278 C273 0.931 . S
H279 C274 0.930 . S
C280 O287 1.259 . S
C280 O288 1.258 . S
N281 Co272 2.057 . S
N281 C282 1.316 . S
N281 C283 1.375 . S
C282 N281 1.316 . S
C282 N284 1.347 . S
C282 H293 0.931 . S
C283 N281 1.375 . S
C283 C285 1.350 . S
C283 H292 0.930 . S
N284 C282 1.347 . S
N284 C285 1.373 . S
C285 C283 1.350 . S
C285 N284 1.373 . S
C285 H299 0.931 . S
C286 O289 1.256 . S
C286 O290 1.255 . S
O287 Co270 2.021 . S
O287 C280 1.259 . S
O288 Co272 2.117 . S
O288 C280 1.258 . S
O289 Co272 2.020 . S
O289 C286 1.256 . S
O290 Co270 2.062 . S
O290 C286 1.255 . S
O291 C271 1.259 . S
O291 Co272 2.021 . S
H292 C283 0.930 . S
H293 C282 0.931 . S
O294 Co270 2.117 . S
O294 C271 1.258 . S
O295 Co270 2.020 . S
O295 C297 1.256 . S
O296 Co272 2.062 . S
O296 C297 1.255 . S
C297 O295 1.256 . S
C297 O296 1.255 . S
H298 C277 0.931 . S
H299 C285 0.931 . S
Co300 N305 2.057 . S
Co300 O317 2.021 . S
Co300 O320 2.062 . S
Co300 O324 2.117 . S
Co300 O325 2.020 . S
C301 O321 1.259 . S
C301 O324 1.258 . S
Co302 N311 2.057 . S
Co302 O318 2.117 . S
Co302 O319 2.020 . S
Co302 O321 2.021 . S
Co302 O326 2.062 . S
C303 N305 1.316 . S
C303 N306 1.347 . S
C303 H308 0.931 . S
C304 N305 1.375 . S
C304 C307 1.350 . S
C304 H309 0.930 . S
N305 Co300 2.057 . S
N305 C303 1.316 . S
N305 C304 1.375 . S
N306 C303 1.347 . S
N306 C307 1.373 . S
C307 C304 1.350 . S
C307 N306 1.373 . S
C307 H328 0.931 . S
H308 C303 0.931 . S
H309 C304 0.930 . S
C310 O317 1.259 . S
C310 O318 1.258 . S
N311 Co302 2.057 . S
N311 C312 1.316 . S
N311 C313 1.375 . S
C312 N311 1.316 . S
C312 N314 1.347 . S
C312 H323 0.931 . S
C313 N311 1.375 . S
C313 C315 1.350 . S
C313 H322 0.930 . S
N314 C312 1.347 . S
N314 C315 1.373 . S
C315 C313 1.350 . S
C315 N314 1.373 . S
C315 H329 0.931 . S
C316 O319 1.256 . S
C316 O320 1.255 . S
O317 Co300 2.021 . S
O317 C310 1.259 . S
O318 Co302 2.117 . S
O318 C310 1.258 . S
O319 Co302 2.020 . S
O319 C316 1.256 . S
O320 Co300 2.062 . S
O320 C316 1.255 . S
O321 C301 1.259 . S
O321 Co302 2.021 . S
H322 C313 0.930 . S
H323 C312 0.931 . S
O324 Co300 2.117 . S
O324 C301 1.258 . S
O325 Co300 2.020 . S
O325 C327 1.256 . S
O326 Co302 2.062 . S
O326 C327 1.255 . S
C327 O325 1.256 . S
C327 O326 1.255 . S
H328 C307 0.931 . S
H329 C315 0.931 . S
Co330 N335 2.057 . S
Co330 O347 2.021 . S
Co330 O350 2.062 . S
Co330 O354 2.117 . S
Co330 O355 2.020 . S
C331 O351 1.259 . S
C331 O354 1.258 . S
Co332 N341 2.057 . S
Co332 O348 2.117 . S
Co332 O349 2.020 . S
Co332 O351 2.021 . S
Co332 O356 2.062 . S
C333 N335 1.316 . S
C333 N336 1.347 1_655 S
C333 H338 0.931 . S
C334 N335 1.375 . S
C334 C337 1.350 1_655 S
C334 H339 0.930 . S
N335 Co330 2.057 . S
N335 C333 1.316 . S
N335 C334 1.375 . S
N336 C333 1.347 1_455 S
N336 C337 1.373 . S
C337 C334 1.350 1_455 S
C337 N336 1.373 . S
C337 H358 0.931 . S
H338 C333 0.931 . S
H339 C334 0.930 . S
C340 O347 1.259 . S
C340 O348 1.258 . S
N341 Co332 2.057 . S
N341 C342 1.316 . S
N341 C343 1.375 . S
C342 N341 1.316 . S
C342 N344 1.347 . S
C342 H353 0.931 . S
C343 N341 1.375 . S
C343 C345 1.350 . S
C343 H352 0.930 . S
N344 C342 1.347 . S
N344 C345 1.373 . S
C345 C343 1.350 . S
C345 N344 1.373 . S
C345 H359 0.931 . S
C346 O349 1.256 . S
C346 O350 1.255 . S
O347 Co330 2.021 . S
O347 C340 1.259 . S
O348 Co332 2.117 . S
O348 C340 1.258 . S
O349 Co332 2.020 . S
O349 C346 1.256 . S
O350 Co330 2.062 . S
O350 C346 1.255 . S
O351 C331 1.259 . S
O351 Co332 2.021 . S
H352 C343 0.930 . S
H353 C342 0.931 . S
O354 Co330 2.117 . S
O354 C331 1.258 . S
O355 Co330 2.020 . S
O355 C357 1.256 . S
O356 Co332 2.062 . S
O356 C357 1.255 . S
C357 O355 1.256 . S
C357 O356 1.255 . S
H358 C337 0.931 . S
H359 C345 0.931 . S
C360 C361 1.369 1_545 S
C360 C362 1.419 . S
C360 H364 0.930 1_545 S
C361 C360 1.369 1_565 S
C361 C370 1.429 1_565 S
C362 C360 1.419 . S
C362 C363 1.363 . S
C362 H365 0.929 . S
C363 C362 1.363 . S
C363 C369 1.428 . S
H364 C360 0.930 1_565 S
H365 C362 0.929 . S
S366 N367 1.613 1_545 S
S366 N368 1.610 . S
N367 S366 1.613 1_565 S
N367 C370 1.350 1_565 S
N368 S366 1.610 . S
N368 C369 1.351 . S
C369 C363 1.428 . S
C369 N368 1.351 . S
C369 C370 1.434 . S
C370 C361 1.429 1_545 S
C370 N367 1.350 1_545 S
C370 C369 1.434 . S
C371 C372 1.369 . S
C371 C373 1.419 . S
C371 H375 0.930 . S
C372 C371 1.369 . S
C372 C381 1.429 . S
C373 C371 1.419 . S
C373 C374 1.363 . S
C373 H376 0.929 1_455 S
C374 C373 1.363 . S
C374 C380 1.428 . S
H375 C371 0.930 . S
H376 C373 0.929 1_655 S
S377 N378 1.613 . S
S377 N379 1.610 . S
N378 S377 1.613 . S
N378 C381 1.350 . S
N379 S377 1.610 . S
N379 C380 1.351 . S
C380 C374 1.428 . S
C380 N379 1.351 . S
C380 C381 1.434 . S
C381 C372 1.429 . S
C381 N378 1.350 . S
C381 C380 1.434 . S
C382 C383 1.369 . S
C382 C384 1.419 1_655 S
C382 H386 0.930 . S
C383 C382 1.369 . S
C383 C392 1.429 . S
C384 C382 1.419 1_455 S
C384 C385 1.363 . S
C384 H387 0.929 . S
C385 C384 1.363 . S
C385 C391 1.428 1_455 S
H386 C382 0.930 . S
H387 C384 0.929 . S
S388 N389 1.613 . S
S388 N390 1.610 1_655 S
N389 S388 1.613 . S
N389 C392 1.350 . S
N390 S388 1.610 1_455 S
N390 C391 1.351 1_455 S
C391 C385 1.428 1_655 S
C391 N390 1.351 1_655 S
C391 C392 1.434 . S
C392 C383 1.429 . S
C392 N389 1.350 . S
C392 C391 1.434 . S
C393 C394 1.369 . S
C393 C395 1.419 . S
C393 H397 0.930 . S
C394 C393 1.369 . S
C394 C403 1.429 . S
C395 C393 1.419 . S
C395 C396 1.363 . S
C395 H398 0.929 . S
C396 C395 1.363 . S
C396 C402 1.428 . S
H397 C393 0.930 . S
H398 C395 0.929 . S
S399 N400 1.613 . S
S399 N401 1.610 . S
N400 S399 1.613 . S
N400 C403 1.350 . S
N401 S399 1.610 . S
N401 C402 1.351 . S
C402 C396 1.428 . S
C402 N401 1.351 . S
C402 C403 1.434 . S
C403 C394 1.429 . S
C403 N400 1.350 . S
C403 C402 1.434 . S
C404 C405 1.369 . S
C404 C406 1.419 . S
C404 H408 0.930 . S
C405 C404 1.369 . S
C405 C414 1.429 . S
C406 C404 1.419 . S
C406 C407 1.363 . S
C406 H409 0.929 . S
C407 C406 1.363 . S
C407 C413 1.428 . S
H408 C404 0.930 . S
H409 C406 0.929 . S
S410 N411 1.613 . S
S410 N412 1.610 . S
N411 S410 1.613 . S
N411 C414 1.350 . S
N412 S410 1.610 . S
N412 C413 1.351 . S
C413 C407 1.428 . S
C413 N412 1.351 . S
C413 C414 1.434 . S
C414 C405 1.429 . S
C414 N411 1.350 . S
C414 C413 1.434 . S
C415 C416 1.369 . S
C415 C417 1.419 . S
C415 H419 0.930 . S
C416 C415 1.369 . S
C416 C425 1.429 . S
C417 C415 1.419 . S
C417 C418 1.363 . S
C417 H420 0.929 . S
C418 C417 1.363 . S
C418 C424 1.428 . S
H419 C415 0.930 . S
H420 C417 0.929 . S
S421 N422 1.613 . S
S421 N423 1.610 . S
N422 S421 1.613 . S
N422 C425 1.350 . S
N423 S421 1.610 . S
N423 C424 1.351 . S
C424 C418 1.428 . S
C424 N423 1.351 . S
C424 C425 1.434 . S
C425 C416 1.429 . S
C425 N422 1.350 . S
C425 C424 1.434 . S
C426 C427 1.369 . S
C426 C428 1.419 . S
C426 H430 0.930 . S
C427 C426 1.369 . S
C427 C436 1.429 . S
C428 C426 1.419 . S
C428 C429 1.363 . S
C428 H431 0.929 . S
C429 C428 1.363 . S
C429 C435 1.428 . S
H430 C426 0.930 . S
H431 C428 0.929 . S
S432 N433 1.613 . S
S432 N434 1.610 . S
N433 S432 1.613 . S
N433 C436 1.350 . S
N434 S432 1.610 . S
N434 C435 1.351 . S
C435 C429 1.428 . S
C435 N434 1.351 . S
C435 C436 1.434 . S
C436 C427 1.429 . S
C436 N433 1.350 . S
C436 C435 1.434 . S
C437 C438 1.374 . S
C437 C439 1.421 . S
C437 H441 0.922 1_455 S
C438 C437 1.374 . S
C438 C447 1.429 . S
C439 C437 1.421 . S
C439 C440 1.363 . S
C439 H442 0.929 . S
C440 C439 1.363 . S
C440 C446 1.428 . S
H441 C437 0.922 1_655 S
H442 C439 0.929 . S
S443 N444 1.613 . S
S443 N445 1.610 . S
N444 S443 1.613 . S
N444 C447 1.350 . S
N445 S443 1.610 . S
N445 C446 1.351 . S
C446 C440 1.428 . S
C446 N445 1.351 . S
C446 C447 1.434 . S
C447 C438 1.429 . S
C447 N444 1.350 . S
C447 C446 1.434 . S
C448 C449 1.369 . S
C448 C450 1.419 . S
C448 H452 0.930 . S
C449 C448 1.369 . S
C449 C458 1.429 . S
C450 C448 1.419 . S
C450 C451 1.363 . S
C450 H453 0.929 . S
C451 C450 1.363 . S
C451 C457 1.428 . S
H452 C448 0.930 . S
H453 C450 0.929 . S
S454 N455 1.613 1_565 S
S454 N456 1.610 . S
N455 S454 1.613 1_545 S
N455 C458 1.350 . S
N456 S454 1.610 . S
N456 C457 1.351 1_565 S
C457 C451 1.428 . S
C457 N456 1.351 1_545 S
C457 C458 1.434 . S
C458 C449 1.429 . S
C458 N455 1.350 . S
C458 C457 1.434 . S
C459 C460 1.369 . S
C459 C461 1.419 . S
C459 H463 0.930 . S
C460 C459 1.369 . S
C460 C469 1.429 . S
C461 C459 1.419 . S
C461 C462 1.363 . S
C461 H464 0.929 . S
C462 C461 1.363 . S
C462 C468 1.428 . S
H463 C459 0.930 . S
H464 C461 0.929 . S
S465 N466 1.613 . S
S465 N467 1.610 . S
N466 S465 1.613 . S
N466 C469 1.350 . S
N467 S465 1.610 . S
N467 C468 1.351 . S
C468 C462 1.428 . S
C468 N467 1.351 . S
C468 C469 1.434 . S
C469 C460 1.429 . S
C469 N466 1.350 . S
C469 C468 1.434 . S
C470 C471 1.377 . S
C470 C472 1.423 . S
C470 H474 0.917 1_655 S
C471 C470 1.377 . S
C471 C480 1.429 . S
C472 C470 1.423 . S
C472 C473 1.363 . S
C472 H475 0.929 . S
C473 C472 1.363 . S
C473 C479 1.428 . S
H474 C470 0.917 1_455 S
H475 C472 0.929 . S
S476 N477 1.613 . S
S476 N478 1.610 . S
N477 S476 1.613 . S
N477 C480 1.350 . S
N478 S476 1.610 . S
N478 C479 1.351 . S
C479 C473 1.428 . S
C479 N478 1.351 . S
C479 C480 1.434 . S
C480 C471 1.429 . S
C480 N477 1.350 . S
C480 C479 1.434 . S
C481 C482 1.369 . S
C481 C483 1.419 . S
C481 H485 0.930 . S
C482 C481 1.369 . S
C482 C491 1.429 . S
C483 C481 1.419 . S
C483 C484 1.363 . S
C483 H486 0.929 . S
C484 C483 1.363 . S
C484 C490 1.428 . S
H485 C481 0.930 . S
H486 C483 0.929 . S
S487 N488 1.613 1_545 S
S487 N489 1.610 . S
N488 S487 1.613 1_565 S
N488 C491 1.350 . S
N489 S487 1.610 . S
N489 C490 1.351 1_545 S
C490 C484 1.428 . S
C490 N489 1.351 1_565 S
C490 C491 1.434 . S
C491 C482 1.429 . S
C491 N488 1.350 . S
C491 C490 1.434 . S
C492 C493 1.369 . S
C492 C494 1.419 . S
C492 H496 0.930 . S
C493 C492 1.369 . S
C493 C502 1.429 . S
C494 C492 1.419 . S
C494 C495 1.363 . S
C494 H497 0.929 . S
C495 C494 1.363 . S
C495 C501 1.428 . S
H496 C492 0.930 . S
H497 C494 0.929 . S
S498 N499 1.613 . S
S498 N500 1.610 . S
N499 S498 1.613 . S
N499 C502 1.350 . S
N500 S498 1.610 . S
N500 C501 1.351 . S
C501 C495 1.428 . S
C501 N500 1.351 . S
C501 C502 1.434 . S
C502 C493 1.429 . S
C502 N499 1.350 . S
C502 C501 1.434 . S
C503 C504 1.369 . S
C503 C505 1.419 . S
C503 H507 0.930 . S
C504 C503 1.369 . S
C504 C513 1.429 . S
C505 C503 1.419 . S
C505 C506 1.363 . S
C505 H508 0.929 . S
C506 C505 1.363 . S
C506 C512 1.428 . S
H507 C503 0.930 . S
H508 C505 0.929 . S
S509 N510 1.613 . S
S509 N511 1.610 . S
N510 S509 1.613 . S
N510 C513 1.350 . S
N511 S509 1.610 . S
N511 C512 1.351 . S
C512 C506 1.428 . S
C512 N511 1.351 . S
C512 C513 1.434 . S
C513 C504 1.429 . S
C513 N510 1.350 . S
C513 C512 1.434 . S
C514 C515 1.369 . S
C514 C516 1.419 . S
C514 H518 0.930 . S
C515 C514 1.369 . S
C515 C524 1.429 . S
C516 C514 1.419 . S
C516 C517 1.363 . S
C516 H519 0.929 . S
C517 C516 1.363 . S
C517 C523 1.428 . S
H518 C514 0.930 . S
H519 C516 0.929 . S
S520 N521 1.613 . S
S520 N522 1.610 . S
N521 S520 1.613 . S
N521 C524 1.350 . S
N522 S520 1.610 . S
N522 C523 1.351 . S
C523 C517 1.428 . S
C523 N522 1.351 . S
C523 C524 1.434 . S
C524 C515 1.429 . S
C524 N521 1.350 . S
C524 C523 1.434 . S
C525 C526 1.369 . S
C525 C527 1.419 . S
C525 H529 0.930 . S
C526 C525 1.369 . S
C526 C535 1.429 . S
C527 C525 1.419 . S
C527 C528 1.363 . S
C527 H530 0.929 . S
C528 C527 1.363 . S
C528 C534 1.428 . S
H529 C525 0.930 . S
H530 C527 0.929 . S
S531 N532 1.613 . S
S531 N533 1.610 . S
N532 S531 1.613 . S
N532 C535 1.350 . S
N533 S531 1.610 . S
N533 C534 1.351 . S
C534 C528 1.428 . S
C534 N533 1.351 . S
C534 C535 1.434 . S
C535 C526 1.429 . S
C535 N532 1.350 . S
C535 C534 1.434 . S
C536 C537 1.369 . S
C536 C538 1.419 . S
C536 H540 0.930 . S
C537 C536 1.369 . S
C537 C546 1.429 . S
C538 C536 1.419 . S
C538 C539 1.363 . S
C538 H541 0.929 . S
C539 C538 1.363 . S
C539 C545 1.428 . S
H540 C536 0.930 . S
H541 C538 0.929 . S
S542 N543 1.613 . S
S542 N544 1.610 . S
N543 S542 1.613 . S
N543 C546 1.350 . S
N544 S542 1.610 . S
N544 C545 1.351 . S
C545 C539 1.428 . S
C545 N544 1.351 . S
C545 C546 1.434 . S
C546 C537 1.429 . S
C546 N543 1.350 . S
C546 C545 1.434 . S
C547 C548 1.369 . S
C547 C549 1.419 . S
C547 H551 0.930 . S
C548 C547 1.369 . S
C548 C557 1.429 . S
C549 C547 1.419 . S
C549 C550 1.363 . S
C549 H552 0.929 . S
C550 C549 1.363 . S
C550 C556 1.428 . S
H551 C547 0.930 . S
H552 C549 0.929 . S
S553 N554 1.613 . S
S553 N555 1.610 . S
N554 S553 1.613 . S
N554 C557 1.350 . S
N555 S553 1.610 . S
N555 C556 1.351 . S
C556 C550 1.428 . S
C556 N555 1.351 . S
C556 C557 1.434 . S
C557 C548 1.429 . S
C557 N554 1.350 . S
C557 C556 1.434 . S
C558 C559 1.369 . S
C558 C560 1.419 . S
C558 H562 0.930 . S
C559 C558 1.369 . S
C559 C568 1.429 . S
C560 C558 1.419 . S
C560 C561 1.363 . S
C560 H563 0.929 . S
C561 C560 1.363 . S
C561 C567 1.428 . S
H562 C558 0.930 . S
H563 C560 0.929 . S
S564 N565 1.617 1_545 S
S564 N566 1.595 1_545 S
N565 S564 1.617 1_565 S
N565 C568 1.350 . S
N566 S564 1.595 1_565 S
N566 C567 1.351 . S
C567 C561 1.428 . S
C567 N566 1.351 . S
C567 C568 1.434 . S
C568 C559 1.429 . S
C568 N565 1.350 . S
C568 C567 1.434 . S
C569 C570 1.369 . S
C569 C571 1.419 . S
C569 H573 0.930 . S
C570 C569 1.369 . S
C570 C579 1.429 . S
C571 C569 1.419 . S
C571 C572 1.363 . S
C571 H574 0.929 . S
C572 C571 1.363 . S
C572 C578 1.428 . S
H573 C569 0.930 . S
H574 C571 0.929 . S
S575 N576 1.613 . S
S575 N577 1.610 . S
N576 S575 1.613 . S
N576 C579 1.350 . S
N577 S575 1.610 . S
N577 C578 1.351 . S
C578 C572 1.428 . S
C578 N577 1.351 . S
C578 C579 1.434 . S
C579 C570 1.429 . S
C579 N576 1.350 . S
C579 C578 1.434 . S
C580 C581 1.369 . S
C580 C582 1.419 . S
C580 H584 0.930 . S
C581 C580 1.369 . S
C581 C590 1.429 . S
C582 C580 1.419 . S
C582 C583 1.363 . S
C582 H585 0.929 . S
C583 C582 1.363 . S
C583 C589 1.428 . S
H584 C580 0.930 . S
H585 C582 0.929 . S
S586 N587 1.613 . S
S586 N588 1.610 . S
N587 S586 1.613 . S
N587 C590 1.350 . S
N588 S586 1.610 . S
N588 C589 1.351 . S
C589 C583 1.428 . S
C589 N588 1.351 . S
C589 C590 1.434 . S
C590 C581 1.429 . S
C590 N587 1.350 . S
C590 C589 1.434 . S
C591 C592 1.369 . S
C591 C593 1.419 . S
C591 H595 0.930 . S
C592 C591 1.369 . S
C592 C601 1.429 . S
C593 C591 1.419 . S
C593 C594 1.363 . S
C593 H596 0.929 . S
C594 C593 1.363 . S
C594 C600 1.428 . S
H595 C591 0.930 . S
H596 C593 0.929 . S
S597 N598 1.613 1_565 S
S597 N599 1.610 1_565 S
N598 S597 1.613 1_545 S
N598 C601 1.350 . S
N599 S597 1.610 1_545 S
N599 C600 1.351 . S
C600 C594 1.428 . S
C600 N599 1.351 . S
C600 C601 1.434 . S
C601 C592 1.429 . S
C601 N598 1.350 . S
C601 C600 1.434 . S
C602 C603 1.369 . S
C602 C604 1.419 . S
C602 H606 0.930 . S
C603 C602 1.369 . S
C603 C612 1.429 . S
C604 C602 1.419 . S
C604 C605 1.363 . S
C604 H607 0.929 . S
C605 C604 1.363 . S
C605 C611 1.428 . S
H606 C602 0.930 . S
H607 C604 0.929 . S
S608 N609 1.613 . S
S608 N610 1.610 . S
N609 S608 1.613 . S
N609 C612 1.350 . S
N610 S608 1.610 . S
N610 C611 1.351 . S
C611 C605 1.428 . S
C611 N610 1.351 . S
C611 C612 1.434 . S
C612 C603 1.429 . S
C612 N609 1.350 . S
C612 C611 1.434 . S
C613 C614 1.369 . S
C613 C615 1.419 . S
C613 H617 0.930 . S
C614 C613 1.369 . S
C614 C623 1.429 . S
C615 C613 1.419 . S
C615 C616 1.363 . S
C615 H618 0.929 . S
C616 C615 1.363 . S
C616 C622 1.428 . S
H617 C613 0.930 . S
H618 C615 0.929 . S
S619 N620 1.613 . S
S619 N621 1.610 . S
N620 S619 1.613 . S
N620 C623 1.350 . S
N621 S619 1.610 . S
N621 C622 1.351 . S
C622 C616 1.428 . S
C622 N621 1.351 . S
C622 C623 1.434 . S
C623 C614 1.429 . S
C623 N620 1.350 . S
C623 C622 1.434 . S
C624 C625 1.369 . S
C624 C626 1.419 . S
C624 H628 0.930 . S
C625 C624 1.369 . S
C625 C634 1.429 . S
C626 C624 1.419 . S
C626 C627 1.363 . S
C626 H629 0.929 . S
C627 C626 1.363 . S
C627 C633 1.428 . S
H628 C624 0.930 . S
H629 C626 0.929 . S
S630 N631 1.613 . S
S630 N632 1.610 . S
N631 S630 1.613 . S
N631 C634 1.350 . S
N632 S630 1.610 . S
N632 C633 1.351 . S
C633 C627 1.428 . S
C633 N632 1.351 . S
C633 C634 1.434 . S
C634 C625 1.429 . S
C634 N631 1.350 . S
C634 C633 1.434 . S
C635 C636 1.369 . S
C635 C637 1.419 . S
C635 H639 0.930 . S
C636 C635 1.369 . S
C636 C645 1.429 . S
C637 C635 1.419 . S
C637 C638 1.363 . S
C637 H640 0.929 . S
C638 C637 1.363 . S
C638 C644 1.428 . S
H639 C635 0.930 . S
H640 C637 0.929 . S
S641 N642 1.613 . S
S641 N643 1.610 . S
N642 S641 1.613 . S
N642 C645 1.350 . S
N643 S641 1.610 . S
N643 C644 1.351 . S
C644 C638 1.428 . S
C644 N643 1.351 . S
C644 C645 1.434 . S
C645 C636 1.429 . S
C645 N642 1.350 . S
C645 C644 1.434 . S
C646 C647 1.369 . S
C646 C648 1.419 . S
C646 H650 0.930 . S
C647 C646 1.369 . S
C647 C656 1.429 . S
C648 C646 1.419 . S
C648 C649 1.363 . S
C648 H651 0.929 . S
C649 C648 1.363 . S
C649 C655 1.428 . S
H650 C646 0.930 . S
H651 C648 0.929 . S
S652 N653 1.613 . S
S652 N654 1.610 . S
N653 S652 1.613 . S
N653 C656 1.350 . S
N654 S652 1.610 . S
N654 C655 1.351 . S
C655 C649 1.428 . S
C655 N654 1.351 . S
C655 C656 1.434 . S
C656 C647 1.429 . S
C656 N653 1.350 . S
C656 C655 1.434 . S
C657 C658 1.369 . S
C657 C659 1.419 . S
C657 H661 0.930 . S
C658 C657 1.369 . S
C658 C667 1.429 . S
C659 C657 1.419 . S
C659 C660 1.363 . S
C659 H662 0.929 . S
C660 C659 1.363 . S
C660 C666 1.428 . S
H661 C657 0.930 . S
H662 C659 0.929 . S
S663 N664 1.613 . S
S663 N665 1.610 . S
N664 S663 1.613 . S
N664 C667 1.350 . S
N665 S663 1.610 . S
N665 C666 1.351 . S
C666 C660 1.428 . S
C666 N665 1.351 . S
C666 C667 1.434 . S
C667 C658 1.429 . S
C667 N664 1.350 . S
C667 C666 1.434 . S
C668 C669 1.369 . S
C668 C670 1.419 . S
C668 H672 0.930 . S
C669 C668 1.369 . S
C669 C678 1.429 . S
C670 C668 1.419 . S
C670 C671 1.363 . S
C670 H673 0.929 . S
C671 C670 1.363 . S
C671 C677 1.428 . S
H672 C668 0.930 . S
H673 C670 0.929 . S
S674 N675 1.613 . S
S674 N676 1.610 . S
N675 S674 1.613 . S
N675 C678 1.350 . S
N676 S674 1.610 . S
N676 C677 1.351 . S
C677 C671 1.428 . S
C677 N676 1.351 . S
C677 C678 1.434 . S
C678 C669 1.429 . S
C678 N675 1.350 . S
C678 C677 1.434 . S
C679 C680 1.369 . S
C679 C681 1.419 . S
C679 H683 0.930 . S
C680 C679 1.369 . S
C680 C689 1.429 . S
C681 C679 1.419 . S
C681 C682 1.363 . S
C681 H684 0.929 . S
C682 C681 1.363 . S
C682 C688 1.428 . S
H683 C679 0.930 . S
H684 C681 0.929 . S
S685 N686 1.613 . S
S685 N687 1.610 . S
N686 S685 1.613 . S
N686 C689 1.350 . S
N687 S685 1.610 . S
N687 C688 1.351 . S
C688 C682 1.428 . S
C688 N687 1.351 . S
C688 C689 1.434 . S
C689 C680 1.429 . S
C689 N686 1.350 . S
C689 C688 1.434 . S
C690 C691 1.369 1_554 S
C690 C692 1.419 . S
C690 H694 0.930 . S
C691 C690 1.369 1_556 S
C691 C700 1.429 . S
C692 C690 1.419 . S
C692 C693 1.363 . S
C692 H695 0.929 . S
C693 C692 1.363 . S
C693 C699 1.428 1_554 S
H694 C690 0.930 . S
H695 C692 0.929 . S
S696 N697 1.613 . S
S696 N698 1.610 . S
N697 S696 1.613 . S
N697 C700 1.350 . S
N698 S696 1.610 . S
N698 C699 1.351 . S
C699 C693 1.428 1_556 S
C699 N698 1.351 . S
C699 C700 1.434 . S
C700 C691 1.429 . S
C700 N697 1.350 . S
C700 C699 1.434 . S
C701 C702 1.369 . S
C701 C703 1.417 . S
C701 H705 0.930 . S
C702 C701 1.369 . S
C702 C711 1.429 1_455 S
C703 C701 1.417 . S
C703 C704 1.365 1_455 S
C703 H706 0.929 . S
C704 C703 1.365 1_655 S
C704 C710 1.428 . S
H705 C701 0.930 . S
H706 C703 0.929 . S
S707 N708 1.613 . S
S707 N709 1.610 . S
N708 S707 1.613 . S
N708 C711 1.350 . S
N709 S707 1.610 . S
N709 C710 1.351 . S
C710 C704 1.428 . S
C710 N709 1.351 . S
C710 C711 1.434 . S
C711 C702 1.429 1_655 S
C711 N708 1.350 . S
C711 C710 1.434 . S
C712 C713 1.369 1_556 S
C712 C714 1.419 1_565 S
C712 H716 0.930 . S
C713 C712 1.369 1_554 S
C713 C722 1.429 . S
C714 C712 1.419 1_545 S
C714 C715 1.363 . S
C714 H717 0.929 . S
C715 C714 1.363 . S
C715 C721 1.428 1_556 S
H716 C712 0.930 . S
H717 C714 0.929 . S
S718 N719 1.613 . S
S718 N720 1.610 . S
N719 S718 1.613 . S
N719 C722 1.350 1_545 S
N720 S718 1.610 . S
N720 C721 1.351 . S
C721 C715 1.428 1_554 S
C721 N720 1.351 . S
C721 C722 1.434 1_545 S
C722 C713 1.429 . S
C722 N719 1.350 1_565 S
C722 C721 1.434 1_565 S
C723 C724 1.369 . S
C723 C725 1.419 . S
C723 H727 0.930 . S
C724 C723 1.369 . S
C724 C733 1.429 . S
C725 C723 1.419 . S
C725 C726 1.363 . S
C725 H728 0.929 . S
C726 C725 1.363 . S
C726 C732 1.428 . S
H727 C723 0.930 . S
H728 C725 0.929 . S
S729 N730 1.613 . S
S729 N731 1.610 . S
N730 S729 1.613 . S
N730 C733 1.350 . S
N731 S729 1.610 . S
N731 C732 1.351 . S
C732 C726 1.428 . S
C732 N731 1.351 . S
C732 C733 1.434 . S
C733 C724 1.429 . S
C733 N730 1.350 . S
C733 C732 1.434 . S
C734 C735 1.369 . S
C734 C736 1.419 1_655 S
C734 H738 0.930 . S
C735 C734 1.369 . S
C735 C744 1.429 1_556 S
C736 C734 1.419 1_455 S
C736 C737 1.363 1_556 S
C736 H739 0.929 . S
C737 C736 1.363 1_554 S
C737 C743 1.428 . S
H738 C734 0.930 . S
H739 C736 0.929 . S
S740 N741 1.613 . S
S740 N742 1.610 1_655 S
N741 S740 1.613 . S
N741 C744 1.350 . S
N742 S740 1.610 1_455 S
N742 C743 1.351 . S
C743 C737 1.428 . S
C743 N742 1.351 . S
C743 C744 1.434 1_455 S
C744 C735 1.429 1_554 S
C744 N741 1.350 . S
C744 C743 1.434 1_655 S
C745 C746 1.369 . S
C745 C747 1.419 1_565 S
C745 H749 0.930 . S
C746 C745 1.369 . S
C746 C755 1.431 . S
C747 C745 1.419 1_545 S
C747 C748 1.363 . S
C747 H750 0.927 . S
C748 C747 1.363 . S
C748 C754 1.428 . S
H749 C745 0.930 . S
H750 C747 0.927 . S
S751 N752 1.613 . S
S751 N753 1.610 . S
N752 S751 1.613 . S
N752 C755 1.350 1_545 S
N753 S751 1.610 . S
N753 C754 1.351 . S
C754 C748 1.428 . S
C754 N753 1.351 . S
C754 C755 1.430 1_545 S
C755 C746 1.431 . S
C755 N752 1.350 1_565 S
C755 C754 1.430 1_565 S
C361 C147 1.216 . S
C363 N14 1.213 . S
C372 N156 0.980 . S
C374 C46 1.019 1_455 S
C383 N74 1.219 . S
C385 C27 1.211 . S
C394 C106 1.016 . S
C396 N36 0.984 . S
C405 N134 1.220 . S
C407 C87 1.207 . S
C416 N96 0.989 . S
C418 C166 1.014 1_565 S
C427 N246 0.986 . S
C429 C196 1.014 . S
C438 C226 1.017 1_455 S
C440 N276 0.984 . S
C449 N306 0.988 . S
C451 C256 1.012 1_545 S
C460 C286 1.021 . S
C462 N336 0.979 . S
C471 C316 1.019 1_655 S
C473 N186 0.982 . S
C482 N216 0.988 . S
C484 C346 1.012 1_565 S
C493 C136 1.288 . S
C495 N6 1.330 . S
C504 C57 1.415 . S
C506 N164 1.363 . S
C515 N66 1.328 . S
C517 C16 1.293 . S
C526 C117 1.417 . S
C528 N44 1.360 . S
C537 C76 1.288 . S
C539 N126 1.331 . S
C548 N104 1.370 . S
C550 C177 1.411 . S
C559 N254 1.364 . S
C561 C207 1.412 . S
C570 C237 1.413 . S
C572 N284 1.367 . S
C581 C267 1.412 . S
C583 N314 1.364 . S
C592 N344 1.366 . S
C594 C297 1.413 . S
C603 C327 1.417 . S
C605 N194 1.358 . S
C614 N224 1.371 . S
C616 C357 1.411 . S
C625 C301 1.598 . S
C627 C10 1.618 . S
C636 C31 1.599 . S
C638 C331 1.602 . S
C647 C70 1.617 . S
C649 C181 1.602 . S
C658 C91 1.602 . S
C660 C211 1.600 . S
C669 C130 1.617 . S
C671 C241 1.601 . S
C680 C271 1.602 . S
C682 C151 1.600 . S
C691 C280 1.977 . S
C693 C1 1.894 . S
C702 C310 1.976 . S
C704 C40 1.984 . S
C713 C61 1.884 . S
C715 C340 1.984 . S
C724 C100 1.981 . S
C726 C190 1.981 . S
C735 C220 1.982 . S
C737 C121 1.887 . S
C746 C250 1.978 . S
C748 C160 1.983 . S
