# Generated by pormake.
# Topology ukn, (4)-cn, num edge types: 1
# Building blocks:
#     Node 0, Type 0, BuildingBlock: GALJAG_clean_sbu_0, # of connection points: 4
#     Node 1, Type 0, BuildingBlock: GALJAG_clean_sbu_0, # of connection points: 4
#     Node 2, Type 0, BuildingBlock: GALJAG_clean_sbu_0, # of connection points: 4
#     Node 3, Type 0, BuildingBlock: GALJAG_clean_sbu_0, # of connection points: 4
#     Node 4, Type 0, BuildingBlock: GALJAG_clean_sbu_0, # of connection points: 4
#     Node 5, Type 0, BuildingBlock: GALJAG_clean_sbu_0, # of connection points: 4
#     Node 6, Type 0, BuildingBlock: GALJAG_clean_sbu_0, # of connection points: 4
#     Node 7, Type 0, BuildingBlock: GALJAG_clean_sbu_0, # of connection points: 4
#     Node 8, Type 0, BuildingBlock: GALJAG_clean_sbu_0, # of connection points: 4
#     Node 9, Type 0, BuildingBlock: GALJAG_clean_sbu_0, # of connection points: 4
#     Node 10, Type 0, BuildingBlock: GALJAG_clean_sbu_0, # of connection points: 4
#     Node 11, Type 0, BuildingBlock: GALJAG_clean_sbu_0, # of connection points: 4
#     Node 12, Type 0, BuildingBlock: GALJAG_clean_sbu_0, # of connection points: 4
#     Node 13, Type 0, BuildingBlock: GALJAG_clean_sbu_0, # of connection points: 4
#     Node 14, Type 0, BuildingBlock: GALJAG_clean_sbu_0, # of connection points: 4
#     Node 15, Type 0, BuildingBlock: GALJAG_clean_sbu_0, # of connection points: 4
#     Node 16, Type 0, BuildingBlock: GALJAG_clean_sbu_0, # of connection points: 4
#     Node 17, Type 0, BuildingBlock: GALJAG_clean_sbu_0, # of connection points: 4
#     Node 18, Type 0, BuildingBlock: GALJAG_clean_sbu_0, # of connection points: 4
#     Node 19, Type 0, BuildingBlock: GALJAG_clean_sbu_0, # of connection points: 4
#     Node 20, Type 0, BuildingBlock: GALJAG_clean_sbu_0, # of connection points: 4
#     Node 21, Type 0, BuildingBlock: GALJAG_clean_sbu_0, # of connection points: 4
#     Node 22, Type 0, BuildingBlock: GALJAG_clean_sbu_0, # of connection points: 4
#     Node 23, Type 0, BuildingBlock: GALJAG_clean_sbu_0, # of connection points: 4
#     Node 24, Type 0, BuildingBlock: GALJAG_clean_sbu_0, # of connection points: 4
#     Node 25, Type 0, BuildingBlock: GALJAG_clean_sbu_0, # of connection points: 4
#     Node 26, Type 0, BuildingBlock: GALJAG_clean_sbu_0, # of connection points: 4
#     Node 27, Type 0, BuildingBlock: GALJAG_clean_sbu_0, # of connection points: 4
#     Node 28, Type 0, BuildingBlock: GALJAG_clean_sbu_0, # of connection points: 4
#     Node 29, Type 0, BuildingBlock: GALJAG_clean_sbu_0, # of connection points: 4
#     Node 30, Type 0, BuildingBlock: GALJAG_clean_sbu_0, # of connection points: 4
#     Node 31, Type 0, BuildingBlock: GALJAG_clean_sbu_0, # of connection points: 4
#     Node 32, Type 0, BuildingBlock: GALJAG_clean_sbu_0, # of connection points: 4
#     Node 33, Type 0, BuildingBlock: GALJAG_clean_sbu_0, # of connection points: 4
#     Node 34, Type 0, BuildingBlock: GALJAG_clean_sbu_0, # of connection points: 4
#     Node 35, Type 0, BuildingBlock: GALJAG_clean_sbu_0, # of connection points: 4
#     Edge 36, Type (0, 0), BuildingBlock: XUDNAN_clean_linker_2, # of connection points: 2
#     Edge 37, Type (0, 0), BuildingBlock: XUDNAN_clean_linker_2, # of connection points: 2
#     Edge 38, Type (0, 0), BuildingBlock: XUDNAN_clean_linker_2, # of connection points: 2
#     Edge 39, Type (0, 0), BuildingBlock: XUDNAN_clean_linker_2, # of connection points: 2
#     Edge 40, Type (0, 0), BuildingBlock: XUDNAN_clean_linker_2, # of connection points: 2
#     Edge 41, Type (0, 0), BuildingBlock: XUDNAN_clean_linker_2, # of connection points: 2
#     Edge 42, Type (0, 0), BuildingBlock: XUDNAN_clean_linker_2, # of connection points: 2
#     Edge 43, Type (0, 0), BuildingBlock: XUDNAN_clean_linker_2, # of connection points: 2
#     Edge 44, Type (0, 0), BuildingBlock: XUDNAN_clean_linker_2, # of connection points: 2
#     Edge 45, Type (0, 0), BuildingBlock: XUDNAN_clean_linker_2, # of connection points: 2
#     Edge 46, Type (0, 0), BuildingBlock: XUDNAN_clean_linker_2, # of connection points: 2
#     Edge 47, Type (0, 0), BuildingBlock: XUDNAN_clean_linker_2, # of connection points: 2
#     Edge 48, Type (0, 0), BuildingBlock: XUDNAN_clean_linker_2, # of connection points: 2
#     Edge 49, Type (0, 0), BuildingBlock: XUDNAN_clean_linker_2, # of connection points: 2
#     Edge 50, Type (0, 0), BuildingBlock: XUDNAN_clean_linker_2, # of connection points: 2
#     Edge 51, Type (0, 0), BuildingBlock: XUDNAN_clean_linker_2, # of connection points: 2
#     Edge 52, Type (0, 0), BuildingBlock: XUDNAN_clean_linker_2, # of connection points: 2
#     Edge 53, Type (0, 0), BuildingBlock: XUDNAN_clean_linker_2, # of connection points: 2
#     Edge 54, Type (0, 0), BuildingBlock: XUDNAN_clean_linker_2, # of connection points: 2
#     Edge 55, Type (0, 0), BuildingBlock: XUDNAN_clean_linker_2, # of connection points: 2
#     Edge 56, Type (0, 0), BuildingBlock: XUDNAN_clean_linker_2, # of connection points: 2
#     Edge 57, Type (0, 0), BuildingBlock: XUDNAN_clean_linker_2, # of connection points: 2
#     Edge 58, Type (0, 0), BuildingBlock: XUDNAN_clean_linker_2, # of connection points: 2
#     Edge 59, Type (0, 0), BuildingBlock: XUDNAN_clean_linker_2, # of connection points: 2
#     Edge 60, Type (0, 0), BuildingBlock: XUDNAN_clean_linker_2, # of connection points: 2
#     Edge 61, Type (0, 0), BuildingBlock: XUDNAN_clean_linker_2, # of connection points: 2
#     Edge 62, Type (0, 0), BuildingBlock: XUDNAN_clean_linker_2, # of connection points: 2
#     Edge 63, Type (0, 0), BuildingBlock: XUDNAN_clean_linker_2, # of connection points: 2
#     Edge 64, Type (0, 0), BuildingBlock: XUDNAN_clean_linker_2, # of connection points: 2
#     Edge 65, Type (0, 0), BuildingBlock: XUDNAN_clean_linker_2, # of connection points: 2
#     Edge 66, Type (0, 0), BuildingBlock: XUDNAN_clean_linker_2, # of connection points: 2
#     Edge 67, Type (0, 0), BuildingBlock: XUDNAN_clean_linker_2, # of connection points: 2
#     Edge 68, Type (0, 0), BuildingBlock: XUDNAN_clean_linker_2, # of connection points: 2
#     Edge 69, Type (0, 0), BuildingBlock: XUDNAN_clean_linker_2, # of connection points: 2
#     Edge 70, Type (0, 0), BuildingBlock: XUDNAN_clean_linker_2, # of connection points: 2
#     Edge 71, Type (0, 0), BuildingBlock: XUDNAN_clean_linker_2, # of connection points: 2
#     Edge 72, Type (0, 0), BuildingBlock: XUDNAN_clean_linker_2, # of connection points: 2
#     Edge 73, Type (0, 0), BuildingBlock: XUDNAN_clean_linker_2, # of connection points: 2
#     Edge 74, Type (0, 0), BuildingBlock: XUDNAN_clean_linker_2, # of connection points: 2
#     Edge 75, Type (0, 0), BuildingBlock: XUDNAN_clean_linker_2, # of connection points: 2
#     Edge 76, Type (0, 0), BuildingBlock: XUDNAN_clean_linker_2, # of connection points: 2
#     Edge 77, Type (0, 0), BuildingBlock: XUDNAN_clean_linker_2, # of connection points: 2
#     Edge 78, Type (0, 0), BuildingBlock: XUDNAN_clean_linker_2, # of connection points: 2
#     Edge 79, Type (0, 0), BuildingBlock: XUDNAN_clean_linker_2, # of connection points: 2
#     Edge 80, Type (0, 0), BuildingBlock: XUDNAN_clean_linker_2, # of connection points: 2
#     Edge 81, Type (0, 0), BuildingBlock: XUDNAN_clean_linker_2, # of connection points: 2
#     Edge 82, Type (0, 0), BuildingBlock: XUDNAN_clean_linker_2, # of connection points: 2
#     Edge 83, Type (0, 0), BuildingBlock: XUDNAN_clean_linker_2, # of connection points: 2
#     Edge 84, Type (0, 0), BuildingBlock: XUDNAN_clean_linker_2, # of connection points: 2
#     Edge 85, Type (0, 0), BuildingBlock: XUDNAN_clean_linker_2, # of connection points: 2
#     Edge 86, Type (0, 0), BuildingBlock: XUDNAN_clean_linker_2, # of connection points: 2
#     Edge 87, Type (0, 0), BuildingBlock: XUDNAN_clean_linker_2, # of connection points: 2
#     Edge 88, Type (0, 0), BuildingBlock: XUDNAN_clean_linker_2, # of connection points: 2
#     Edge 89, Type (0, 0), BuildingBlock: XUDNAN_clean_linker_2, # of connection points: 2
#     Edge 90, Type (0, 0), BuildingBlock: XUDNAN_clean_linker_2, # of connection points: 2
#     Edge 91, Type (0, 0), BuildingBlock: XUDNAN_clean_linker_2, # of connection points: 2
#     Edge 92, Type (0, 0), BuildingBlock: XUDNAN_clean_linker_2, # of connection points: 2
#     Edge 93, Type (0, 0), BuildingBlock: XUDNAN_clean_linker_2, # of connection points: 2
#     Edge 94, Type (0, 0), BuildingBlock: XUDNAN_clean_linker_2, # of connection points: 2
#     Edge 95, Type (0, 0), BuildingBlock: XUDNAN_clean_linker_2, # of connection points: 2
#     Edge 96, Type (0, 0), BuildingBlock: XUDNAN_clean_linker_2, # of connection points: 2
#     Edge 97, Type (0, 0), BuildingBlock: XUDNAN_clean_linker_2, # of connection points: 2
#     Edge 98, Type (0, 0), BuildingBlock: XUDNAN_clean_linker_2, # of connection points: 2
#     Edge 99, Type (0, 0), BuildingBlock: XUDNAN_clean_linker_2, # of connection points: 2
#     Edge 100, Type (0, 0), BuildingBlock: XUDNAN_clean_linker_2, # of connection points: 2
#     Edge 101, Type (0, 0), BuildingBlock: XUDNAN_clean_linker_2, # of connection points: 2
#     Edge 102, Type (0, 0), BuildingBlock: XUDNAN_clean_linker_2, # of connection points: 2
#     Edge 103, Type (0, 0), BuildingBlock: XUDNAN_clean_linker_2, # of connection points: 2
#     Edge 104, Type (0, 0), BuildingBlock: XUDNAN_clean_linker_2, # of connection points: 2
#     Edge 105, Type (0, 0), BuildingBlock: XUDNAN_clean_linker_2, # of connection points: 2
#     Edge 106, Type (0, 0), BuildingBlock: XUDNAN_clean_linker_2, # of connection points: 2
#     Edge 107, Type (0, 0), BuildingBlock: XUDNAN_clean_linker_2, # of connection points: 2
# Relax obj value: 0.060
# Max RMSD: 0.091
# Mean RMSD: 0.091
data_MOF--net-ukn--node1-GALJAG_clean_sbu_0--edge1-XUDNAN_clean_linker_2
_symmetry_space_group_name_H-M    P1
_symmetry_Int_Tables_number       1
_symmetry_cell_setting            triclinic
loop_
_symmetry_equiv_pos_as_xyz
'x, y, z'
_cell_length_a     103.5605
_cell_length_b     103.58067
_cell_length_c     27.777207
_cell_angle_alpha  89.982184
_cell_angle_beta   90.012703
_cell_angle_gamma 120.01328
loop_
_atom_site_label
_atom_site_type_symbol
_atom_site_fract_x
_atom_site_fract_y
_atom_site_fract_z
_atom_type_partial_charge
In0 In 0.08055 0.3008 0.06215 0.0
O1 O 0.08491 0.28155 0.07963 0.0
O2 O 0.10306 0.30397 0.08006 0.0
C3 C 0.05127 0.28997 0.04699 0.0
C4 C 0.08432 0.3168 0.14274 0.0
C5 C 0.08897 0.30785 0.9695 0.0
O6 O 0.05625 0.28142 0.0585 0.0
O7 O 0.06095 0.30362 0.04503 0.0
O8 O 0.09202 0.31776 1.00118 0.0
O9 O 0.08204 0.29464 0.98498 0.0
C10 C 0.09876 0.29033 0.08584 0.0
O11 O 0.08912 0.32285 0.10207 0.0
O12 O 0.07746 0.3027 0.1425 0.0
In13 In 0.70008 0.77938 0.06166 0.0
O14 O 0.71847 0.80347 0.07697 0.0
O15 O 0.69567 0.7976 0.08503 0.0
C16 C 0.71248 0.76362 0.03025 0.0
C17 C 0.68891 0.76592 0.14696 0.0
C18 C 0.69045 0.7802 0.97226 0.0
O19 O 0.72044 0.77658 0.0477 0.0
O20 O 0.69858 0.75868 0.03114 0.0
O21 O 0.68152 0.77166 0.00434 0.0
O22 O 0.70368 0.78849 0.98642 0.0
C23 C 0.70921 0.80767 0.08721 0.0
O24 O 0.68059 0.76631 0.11416 0.0
O25 O 0.70257 0.77208 0.13615 0.0
In26 In 0.22802 0.92018 0.07679 0.0
O27 O 0.24211 0.91693 0.13399 0.0
O28 O 0.231 0.92871 0.15387 0.0
C29 C 0.23794 0.9148 0.99337 0.0
C30 C 0.20199 0.89524 0.09458 0.0
C31 C 0.23243 0.94712 0.05109 0.0
O32 O 0.24642 0.92082 0.02908 0.0
O33 O 0.22448 0.91098 1.00057 0.0
O34 O 0.21946 0.93606 0.05658 0.0
O35 O 0.2429 0.94459 0.06026 0.0
C36 C 0.23913 0.92346 0.1669 0.0
O37 O 0.20248 0.90722 0.08204 0.0
O38 O 0.21448 0.89592 0.09717 0.0
In39 In 0.29327 0.07825 0.9157 0.0
O40 O 0.31476 0.08296 0.87726 0.0
O41 O 0.29515 0.07556 0.83506 0.0
C42 C 0.30086 0.08395 0.00962 0.0
C43 C 0.28786 0.10059 0.89697 0.0
C44 C 0.27517 0.04868 0.92588 0.0
O45 O 0.31034 0.08585 0.97759 0.0
O46 O 0.28788 0.07949 0.99397 0.0
O47 O 0.27016 0.05724 0.91528 0.0
O48 O 0.28918 0.05502 0.92932 0.0
C49 C 0.30887 0.0797 0.83588 0.0
O50 O 0.27754 0.08711 0.89682 0.0
O51 O 0.30067 0.10261 0.90624 0.0
In52 In 0.91593 0.22397 0.94784 0.0
O53 O 0.90722 0.23751 0.90881 0.0
O54 O 0.91629 0.22684 0.8663 0.0
C55 C 0.9114 0.22689 0.04205 0.0
C56 C 0.89622 0.19481 0.93492 0.0
C57 C 0.94586 0.24038 0.95118 0.0
O58 O 0.90691 0.23216 0.00919 0.0
O59 O 0.91787 0.22008 0.02717 0.0
O60 O 0.93921 0.22629 0.94898 0.0
O61 O 0.93744 0.24591 0.94997 0.0
C62 C 0.9103 0.2349 0.86714 0.0
O63 O 0.9101 0.19989 0.93052 0.0
O64 O 0.89257 0.20438 0.94569 0.0
In65 In 0.77251 0.68984 0.93476 0.0
O66 O 0.79778 0.70331 0.91847 0.0
O67 O 0.78721 0.67981 0.92935 0.0
C68 C 0.7608 0.70779 0.9309 0.0
C69 C 0.75979 0.67415 0.85437 0.0
C70 C 0.76833 0.68311 0.02928 0.0
O71 O 0.77477 0.71313 0.93418 0.0
O72 O 0.75315 0.69376 0.92908 0.0
O73 O 0.76154 0.67339 0.99708 0.0
O74 O 0.77715 0.69603 0.01365 0.0
C75 C 0.79902 0.69174 0.91949 0.0
O76 O 0.75578 0.66855 0.89603 0.0
O77 O 0.77002 0.68768 0.85359 0.0
In78 In 0.92284 0.70005 0.927 0.0
O79 O 0.92139 0.68046 0.88497 0.0
O80 O 0.92468 0.69945 0.84516 0.0
C81 C 0.92122 0.68836 0.0156 0.0
C82 C 0.89621 0.69781 0.91115 0.0
C83 C 0.94964 0.72511 0.93641 0.0
O84 O 0.92887 0.68739 0.98203 0.0
O85 O 0.91411 0.69483 0.00426 0.0
O86 O 0.93766 0.72491 0.94682 0.0
O87 O 0.94786 0.71312 0.91897 0.0
C88 C 0.92286 0.68644 0.84413 0.0
O89 O 0.90794 0.71043 0.91488 0.0
O90 O 0.89808 0.68675 0.91602 0.0
In91 In 0.305 0.22691 0.91085 0.0
O92 O 0.28627 0.20303 0.89562 0.0
O93 O 0.3089 0.20789 0.89484 0.0
C94 C 0.2931 0.24375 0.93534 0.0
C95 C 0.31617 0.23831 0.82329 0.0
C96 C 0.31395 0.2264 1.00157 0.0
O97 O 0.28496 0.23011 0.92435 0.0
O98 O 0.30699 0.24874 0.93216 0.0
O99 O 0.32328 0.23428 0.96927 0.0
O100 O 0.30063 0.2189 0.98734 0.0
C101 C 0.29528 0.1982 0.89053 0.0
O102 O 0.32457 0.23895 0.85759 0.0
O103 O 0.30249 0.23221 0.83379 0.0
In104 In 0.77537 0.07698 0.90605 0.0
O105 O 0.76438 0.08252 0.84425 0.0
O106 O 0.77694 0.07197 0.82713 0.0
C107 C 0.7668 0.08554 0.98557 0.0
C108 C 0.80431 0.09834 0.90674 0.0
C109 C 0.75965 0.04771 0.92677 0.0
O110 O 0.76285 0.08708 0.9438 0.0
O111 O 0.77506 0.07981 0.98683 0.0
O112 O 0.77375 0.05489 0.92974 0.0
O113 O 0.7539 0.05519 0.91176 0.0
C114 C 0.76915 0.07738 0.81188 0.0
O115 O 0.80049 0.08466 0.90878 0.0
O116 O 0.79364 0.10088 0.90386 0.0
In117 In 0.69878 0.92053 0.10985 0.0
O118 O 0.68184 0.91551 0.17012 0.0
O119 O 0.70491 0.92858 0.18726 0.0
C120 C 0.68235 0.90913 0.0295 0.0
C121 C 0.70868 0.90102 0.11834 0.0
C122 C 0.71046 0.94892 0.0804 0.0
O123 O 0.67639 0.90756 0.07049 0.0
O124 O 0.69642 0.91615 0.02957 0.0
O125 O 0.71861 0.94313 0.08674 0.0
O126 O 0.6969 0.94061 0.09105 0.0
C127 C 0.6916 0.92252 0.20202 0.0
O128 O 0.71749 0.91461 0.10857 0.0
O129 O 0.69529 0.89763 0.12442 0.0
In130 In 0.07626 0.78171 0.10241 0.0
O131 O 0.09208 0.80722 0.10101 0.0
O132 O 0.10031 0.79307 0.124 0.0
C133 C 0.04925 0.77619 0.07299 0.0
C134 C 0.0711 0.7715 0.19381 0.0
C135 C 0.08299 0.77187 0.02189 0.0
O136 O 0.05916 0.78915 0.08587 0.0
O137 O 0.05288 0.76628 0.07694 0.0
O138 O 0.0804 0.76497 0.06153 0.0
O139 O 0.08232 0.7837 0.02327 0.0
C140 C 0.10306 0.80617 0.1162 0.0
O141 O 0.07504 0.76568 0.16117 0.0
O142 O 0.06917 0.78202 0.17981 0.0
In143 In 0.22164 0.30285 0.08869 0.0
O144 O 0.23691 0.32294 0.13427 0.0
O145 O 0.22427 0.30218 0.17055 0.0
C146 C 0.22346 0.31649 0.00396 0.0
C147 C 0.19227 0.29136 0.1052 0.0
C148 C 0.23917 0.29117 0.06925 0.0
O149 O 0.22667 0.32329 0.04373 0.0
O150 O 0.2193 0.30281 0.00687 0.0
O151 O 0.22519 0.2829 0.07389 0.0
O152 O 0.24396 0.30487 0.07568 0.0
C153 C 0.23365 0.31595 0.17374 0.0
O154 O 0.19756 0.283 0.09497 0.0
O155 O 0.20177 0.30504 0.10751 0.0
In156 In 0.74234 0.62506 0.43655 0.0
O157 O 0.74618 0.64185 0.49633 0.0
O158 O 0.7348 0.61885 0.51448 0.0
C159 C 0.74999 0.64217 0.35687 0.0
C160 C 0.76533 0.61982 0.44245 0.0
C161 C 0.71398 0.60669 0.40913 0.0
O162 O 0.74965 0.6472 0.39804 0.0
O163 O 0.74669 0.62868 0.35629 0.0
O164 O 0.72293 0.60197 0.41697 0.0
O165 O 0.71922 0.62043 0.41691 0.0
C166 C 0.73999 0.6321 0.52874 0.0
O167 O 0.75203 0.60939 0.43747 0.0
O168 O 0.7669 0.63267 0.44476 0.0
In169 In 0.3578 0.10493 0.41805 0.0
O170 O 0.37618 0.12973 0.41498 0.0
O171 O 0.35528 0.12372 0.44765 0.0
C172 C 0.36992 0.08834 0.39136 0.0
C173 C 0.35026 0.09535 0.50953 0.0
C174 C 0.34124 0.10092 0.33839 0.0
O175 O 0.37787 0.10234 0.39646 0.0
O176 O 0.35628 0.08301 0.40092 0.0
O177 O 0.3354 0.09547 0.37875 0.0
O178 O 0.35528 0.10858 0.33871 0.0
C179 C 0.36818 0.13395 0.43665 0.0
O180 O 0.34061 0.09299 0.47753 0.0
O181 O 0.36361 0.10211 0.49487 0.0
In182 In 0.8805 0.2555 0.44829 0.0
O183 O 0.85525 0.24657 0.44978 0.0
O184 O 0.86295 0.23105 0.45288 0.0
C185 C 0.89084 0.284 0.42122 0.0
C186 C 0.88894 0.25663 0.54147 0.0
C187 C 0.88977 0.24753 0.36863 0.0
O188 O 0.87711 0.27493 0.42732 0.0
O189 O 0.89931 0.27884 0.4307 0.0
O190 O 0.89531 0.24811 0.40972 0.0
O191 O 0.87959 0.25084 0.36808 0.0
C192 C 0.85193 0.23308 0.45203 0.0
O193 O 0.89291 0.25093 0.50863 0.0
O194 O 0.88107 0.26203 0.52709 0.0
In195 In 0.96802 0.40824 0.23337 0.0
O196 O 0.98336 0.40842 0.17373 0.0
O197 O 0.96097 0.40189 0.15535 0.0
C198 C 0.98444 0.41457 0.31431 0.0
C199 C 0.96917 0.43457 0.22145 0.0
C200 C 0.94628 0.38109 0.26092 0.0
O201 O 0.98881 0.41207 0.27467 0.0
O202 O 0.97195 0.41391 0.31275 0.0
O203 O 0.94385 0.39177 0.25384 0.0
O204 O 0.95944 0.38403 0.25213 0.0
C205 C 0.97364 0.40455 0.14099 0.0
O206 O 0.95709 0.42291 0.23223 0.0
O207 O 0.98028 0.43277 0.21726 0.0
In208 In 0.58737 0.5625 0.25677 0.0
O209 O 0.57495 0.53712 0.2464 0.0
O210 O 0.56283 0.54874 0.24078 0.0
C211 C 0.61457 0.56542 0.26845 0.0
C212 C 0.5867 0.5762 0.17482 0.0
C213 C 0.58431 0.57134 0.34586 0.0
O214 O 0.60277 0.55295 0.27255 0.0
O215 O 0.61255 0.57597 0.25595 0.0
O216 O 0.59305 0.58028 0.31476 0.0
O217 O 0.57672 0.55806 0.33168 0.0
C218 C 0.56256 0.53643 0.23875 0.0
O219 O 0.58376 0.57949 0.21561 0.0
O220 O 0.59042 0.56631 0.17553 0.0
In221 In 0.43849 0.02543 0.24348 0.0
O222 O 0.46312 0.04443 0.24787 0.0
O223 O 0.45778 0.02513 0.20652 0.0
C224 C 0.42139 0.03767 0.2623 0.0
C225 C 0.42512 0.01188 0.16023 0.0
C226 C 0.43667 0.01142 0.3278 0.0
O227 O 0.43516 0.04577 0.2532 0.0
O228 O 0.41658 0.02386 0.26041 0.0
O229 O 0.43412 0.00489 0.28762 0.0
O230 O 0.44048 0.025 0.3253 0.0
C231 C 0.46774 0.03766 0.22139 0.0
O232 O 0.4232 0.00486 0.19932 0.0
O233 O 0.43373 0.02583 0.1631 0.0
In234 In 0.58029 0.03091 0.24175 0.0
O235 O 0.57337 0.04892 0.2447 0.0
O236 O 0.5592 0.02834 0.20916 0.0
C237 C 0.60824 0.04256 0.27545 0.0
C238 C 0.58464 0.02381 0.15206 0.0
C239 C 0.56752 0.01455 0.32135 0.0
O240 O 0.60291 0.05086 0.26448 0.0
O241 O 0.59971 0.02886 0.26733 0.0
O242 O 0.5669 0.00853 0.28109 0.0
O243 O 0.57392 0.02858 0.32054 0.0
C244 C 0.56144 0.04099 0.22152 0.0
O245 O 0.57639 0.01402 0.18246 0.0
O246 O 0.59083 0.03709 0.16729 0.0
In247 In 0.96909 0.55403 0.25968 0.0
O248 O 0.98962 0.57236 0.22161 0.0
O249 O 0.97044 0.55829 0.1793 0.0
C250 C 0.97594 0.5561 0.3538 0.0
C251 C 0.9695 0.52898 0.23885 0.0
C252 C 0.94876 0.56273 0.26755 0.0
O253 O 0.98511 0.56494 0.32298 0.0
O254 O 0.96359 0.54628 0.33686 0.0
O255 O 0.94497 0.54934 0.25774 0.0
O256 O 0.96262 0.5715 0.27131 0.0
C257 C 0.98379 0.56887 0.18013 0.0
O258 O 0.95729 0.529 0.24135 0.0
O259 O 0.98102 0.54131 0.24751 0.0
In260 In 0.44797 0.41329 0.27607 0.0
O261 O 0.4291 0.41451 0.23799 0.0
O262 O 0.44348 0.40981 0.1958 0.0
C263 C 0.44562 0.41823 0.36999 0.0
C264 C 0.47231 0.43917 0.25283 0.0
C265 C 0.44052 0.38458 0.28515 0.0
O266 O 0.43649 0.41787 0.33899 0.0
O267 O 0.4559 0.41636 0.35331 0.0
O268 O 0.45381 0.39463 0.27631 0.0
O269 O 0.43122 0.38905 0.2874 0.0
C270 C 0.43261 0.41214 0.19658 0.0
O271 O 0.4729 0.42728 0.25657 0.0
O272 O 0.45978 0.43786 0.26173 0.0
In273 In 0.36964 0.25224 0.4144 0.0
O274 O 0.38344 0.24039 0.40743 0.0
O275 O 0.36443 0.23092 0.45288 0.0
C276 C 0.38994 0.28099 0.39624 0.0
C277 C 0.35793 0.25553 0.49742 0.0
C278 C 0.35395 0.24218 0.33114 0.0
O279 O 0.39378 0.2716 0.40801 0.0
O280 O 0.37606 0.27593 0.39533 0.0
O281 O 0.34774 0.23985 0.37179 0.0
O282 O 0.36797 0.24934 0.33257 0.0
C283 C 0.37523 0.23004 0.43605 0.0
O284 O 0.35118 0.25284 0.4575 0.0
O285 O 0.3708 0.25701 0.49525 0.0
In286 In 0.74003 0.10795 0.40645 0.0
O287 O 0.74612 0.13189 0.42623 0.0
O288 O 0.76351 0.12728 0.4099 0.0
C289 C 0.71007 0.09207 0.40289 0.0
C290 C 0.74583 0.09692 0.4863 0.0
C291 C 0.74487 0.1055 0.31229 0.0
O292 O 0.71702 0.10618 0.40344 0.0
O293 O 0.7182 0.08624 0.40576 0.0
O294 O 0.74837 0.09923 0.34476 0.0
O295 O 0.73917 0.11299 0.32755 0.0
C296 C 0.75999 0.13685 0.42203 0.0
O297 O 0.74896 0.09446 0.44449 0.0
O298 O 0.73959 0.10474 0.48759 0.0
In299 In 0.89215 0.63483 0.42759 0.0
O300 O 0.90234 0.65266 0.48693 0.0
O301 O 0.89684 0.63058 0.50456 0.0
C302 C 0.90323 0.65242 0.34881 0.0
C303 C 0.86321 0.62674 0.43704 0.0
C304 C 0.89891 0.61426 0.39642 0.0
O305 O 0.91135 0.65293 0.38344 0.0
O306 O 0.8895 0.64359 0.35487 0.0
O307 O 0.8856 0.61149 0.39983 0.0
O308 O 0.90859 0.62712 0.41022 0.0
C309 C 0.90197 0.64381 0.51882 0.0
O310 O 0.86754 0.61732 0.43417 0.0
O311 O 0.8735 0.64021 0.43542 0.0
In312 In 0.40874 0.96187 0.74954 0.0
O313 O 0.40941 0.97998 0.79927 0.0
O314 O 0.39976 0.95765 0.82538 0.0
C315 C 0.41685 0.97216 0.65878 0.0
C316 C 0.43364 0.96269 0.7804 0.0
C317 C 0.38165 0.9394 0.72603 0.0
O318 O 0.41315 0.97901 0.68869 0.0
O319 O 0.41669 0.96078 0.67541 0.0
O320 O 0.39263 0.93742 0.73271 0.0
O321 O 0.38425 0.95256 0.73266 0.0
C322 C 0.40345 0.97103 0.83423 0.0
O323 O 0.422 0.95047 0.77059 0.0
O324 O 0.4326 0.9742 0.7744 0.0
In325 In 0.03272 0.44233 0.73623 0.0
O326 O 0.05026 0.46671 0.75374 0.0
O327 O 0.02815 0.46142 0.73608 0.0
C328 C 0.04697 0.42665 0.73474 0.0
C329 C 0.01606 0.43074 0.81618 0.0
C330 C 0.02543 0.43807 0.642 0.0
O331 O 0.05409 0.44077 0.73403 0.0
O332 O 0.033 0.42077 0.73811 0.0
O333 O 0.0156 0.43335 0.67466 0.0
O334 O 0.03868 0.44511 0.65702 0.0
C335 C 0.04115 0.47135 0.74769 0.0
O336 O 0.01042 0.42843 0.77445 0.0
O337 O 0.03008 0.43896 0.81747 0.0
In338 In 0.55214 0.59166 0.75802 0.0
O339 O 0.56374 0.58606 0.81798 0.0
O340 O 0.5548 0.59999 0.83538 0.0
C341 C 0.56331 0.58515 0.67974 0.0
C342 C 0.52388 0.56914 0.76791 0.0
C343 C 0.56001 0.61938 0.72768 0.0
O344 O 0.57108 0.59135 0.71661 0.0
O345 O 0.54981 0.58165 0.68321 0.0
O346 O 0.54654 0.60906 0.72863 0.0
O347 O 0.56916 0.61579 0.74373 0.0
C348 C 0.56161 0.59347 0.84988 0.0
O349 O 0.52693 0.58248 0.76178 0.0
O350 O 0.53505 0.56731 0.76914 0.0
In351 In 0.63662 0.74623 0.55741 0.0
O352 O 0.65376 0.74392 0.51198 0.0
O353 O 0.63504 0.7426 0.47588 0.0
C354 C 0.65171 0.75598 0.64159 0.0
C355 C 0.63366 0.77011 0.53841 0.0
C356 C 0.61543 0.71808 0.57829 0.0
O357 O 0.65813 0.75695 0.60201 0.0
O358 O 0.63774 0.75003 0.63879 0.0
O359 O 0.6122 0.7277 0.56387 0.0
O360 O 0.62921 0.72257 0.58034 0.0
C361 C 0.64722 0.74267 0.47236 0.0
O362 O 0.62305 0.75831 0.55603 0.0
O363 O 0.64543 0.7697 0.53077 0.0
In364 In 0.2551 0.88437 0.57535 0.0
O365 O 0.2532 0.9026 0.53452 0.0
O366 O 0.25752 0.88791 0.49368 0.0
C367 C 0.25335 0.89789 0.65612 0.0
C368 C 0.23168 0.8563 0.56801 0.0
C369 C 0.28107 0.88562 0.59761 0.0
O370 O 0.26423 0.90406 0.62738 0.0
O371 O 0.24295 0.88531 0.6426 0.0
O372 O 0.2706 0.88184 0.62721 0.0
O373 O 0.27829 0.8881 0.55548 0.0
C374 C 0.25531 0.89882 0.49343 0.0
O375 O 0.24499 0.85901 0.56816 0.0
O376 O 0.23029 0.86767 0.57113 0.0
In377 In 0.11352 0.36505 0.56262 0.0
O378 O 0.1018 0.34821 0.5018 0.0
O379 O 0.11125 0.37128 0.48569 0.0
C380 C 0.1095 0.3482 0.64131 0.0
C381 C 0.14299 0.37606 0.55106 0.0
C382 C 0.097 0.37654 0.59566 0.0
O383 O 0.10411 0.34247 0.60075 0.0
O384 O 0.11709 0.36225 0.64154 0.0
O385 O 0.11075 0.38476 0.58655 0.0
O386 O 0.0917 0.36293 0.5857 0.0
C387 C 0.10443 0.35803 0.47026 0.0
O388 O 0.13785 0.3843 0.56429 0.0
O389 O 0.13331 0.36262 0.54368 0.0
In390 In 0.25484 0.36686 0.58901 0.0
O391 O 0.25027 0.38618 0.57791 0.0
O392 O 0.23299 0.36384 0.56364 0.0
C393 C 0.28298 0.37725 0.61846 0.0
C394 C 0.25613 0.35679 0.50099 0.0
C395 C 0.24267 0.35621 0.67576 0.0
O396 O 0.27833 0.38604 0.60647 0.0
O397 O 0.27356 0.36354 0.61414 0.0
O398 O 0.24264 0.34761 0.64316 0.0
O399 O 0.24852 0.36973 0.6638 0.0
C400 C 0.23691 0.37751 0.56486 0.0
O401 O 0.24787 0.34802 0.5338 0.0
O402 O 0.26378 0.37032 0.51331 0.0
In403 In 0.63504 0.88819 0.6065 0.0
O404 O 0.62145 0.86345 0.58542 0.0
O405 O 0.64522 0.87441 0.58378 0.0
C406 C 0.61497 0.8971 0.61961 0.0
C407 C 0.64981 0.90382 0.52776 0.0
C408 C 0.64288 0.88874 0.69959 0.0
O409 O 0.61109 0.88382 0.60824 0.0
O410 O 0.62887 0.90581 0.62247 0.0
O411 O 0.65169 0.89815 0.66929 0.0
O412 O 0.63049 0.87907 0.68253 0.0
C413 C 0.633 0.86263 0.57639 0.0
O414 O 0.65591 0.90633 0.56886 0.0
O415 O 0.63617 0.89393 0.52712 0.0
In416 In 0.10445 0.74598 0.59868 0.0
O417 O 0.12838 0.75203 0.57889 0.0
O418 O 0.124 0.76948 0.59644 0.0
C419 C 0.08884 0.71606 0.60359 0.0
C420 C 0.09252 0.75083 0.51909 0.0
C421 C 0.10159 0.75026 0.69303 0.0
O422 O 0.10293 0.72309 0.60077 0.0
O423 O 0.08288 0.7241 0.60198 0.0
O424 O 0.09641 0.75497 0.66056 0.0
O425 O 0.10833 0.74378 0.67769 0.0
C426 C 0.1335 0.76589 0.58412 0.0
O427 O 0.0905 0.75442 0.56077 0.0
O428 O 0.1005 0.74477 0.51775 0.0
In429 In 0.03263 0.58631 0.76228 0.0
O430 O 0.05098 0.57979 0.76216 0.0
O431 O 0.02821 0.56291 0.76997 0.0
C432 C 0.04366 0.6147 0.73414 0.0
C433 C 0.02582 0.58769 0.85506 0.0
C434 C 0.01591 0.57581 0.68256 0.0
O435 O 0.05201 0.60903 0.73742 0.0
O436 O 0.03034 0.6063 0.74725 0.0
O437 O 0.01012 0.5741 0.72392 0.0
O438 O 0.02998 0.58251 0.68193 0.0
C439 C 0.0416 0.56602 0.76681 0.0
O440 O 0.01597 0.58084 0.8233 0.0
O441 O 0.0391 0.59385 0.83993 0.0
In442 In 0.41295 0.44225 0.77906 0.0
O443 O 0.41874 0.43095 0.83925 0.0
O444 O 0.40618 0.44141 0.85746 0.0
C445 C 0.42301 0.43563 0.69876 0.0
C446 C 0.43257 0.47174 0.78359 0.0
C447 C 0.38389 0.42588 0.75646 0.0
O448 O 0.42512 0.43194 0.74019 0.0
O449 O 0.41598 0.44266 0.6982 0.0
O450 O 0.39056 0.43999 0.75677 0.0
O451 O 0.39181 0.42031 0.76866 0.0
C452 C 0.41226 0.43415 0.87177 0.0
O453 O 0.41877 0.46681 0.77743 0.0
O454 O 0.43617 0.46185 0.78799 0.0
In455 In 0.55468 0.96923 0.74549 0.0
O456 O 0.57294 0.98982 0.78434 0.0
O457 O 0.55977 0.97002 0.82513 0.0
C458 C 0.55447 0.97643 0.65215 0.0
C459 C 0.52917 0.96757 0.7738 0.0
C460 C 0.5636 0.94922 0.73193 0.0
O461 O 0.56392 0.98564 0.68164 0.0
O462 O 0.54529 0.96398 0.67007 0.0
O463 O 0.55039 0.94535 0.74432 0.0
O464 O 0.57227 0.96312 0.7283 0.0
C465 C 0.56992 0.98356 0.82528 0.0
O466 O 0.53002 0.95592 0.76702 0.0
O467 O 0.54096 0.9797 0.76548 0.0
H468 H 0.12585 0.30704 0.1262 0.0
H469 H 0.09627 0.26288 0.06955 0.0
H470 H 0.11645 0.25668 0.0781 0.0
H471 H 0.15702 0.31346 0.06547 0.0
H472 H 0.16999 0.32352 0.11322 0.0
H473 H 0.15259 0.32335 0.10986 0.0
H474 H 0.14613 0.313 0.19693 0.0
H475 H 0.16362 0.31322 0.2007 0.0
H476 H 0.14637 0.29621 0.21228 0.0
H477 H 0.1415 0.25704 0.08229 0.0
H478 H 0.16814 0.26375 0.08307 0.0
H479 H 0.18022 0.3075 0.13835 0.0
C480 C 0.12348 0.29593 0.11665 0.0
C481 C 0.10956 0.28542 0.09724 0.0
C482 C 0.10687 0.27103 0.08491 0.0
C483 C 0.11826 0.26744 0.08962 0.0
C484 C 0.1321 0.2783 0.10753 0.0
C485 C 0.1346 0.29219 0.12149 0.0
C486 C 0.15061 0.30241 0.13597 0.0
C487 C 0.15798 0.3165 0.10422 0.0
C488 C 0.15174 0.30644 0.18967 0.0
C489 C 0.15699 0.29239 0.12613 0.0
C490 C 0.14621 0.27845 0.11034 0.0
C491 C 0.14995 0.26783 0.09551 0.0
C492 C 0.16508 0.27171 0.09608 0.0
C493 C 0.17621 0.28612 0.11091 0.0
C494 C 0.17197 0.29636 0.12715 0.0
H495 H 0.69117 0.81758 0.12116 0.0
H496 H 0.73672 0.83299 0.07653 0.0
H497 H 0.74257 0.85919 0.08659 0.0
H498 H 0.68655 0.84396 0.05938 0.0
H499 H 0.67527 0.84595 0.10493 0.0
H500 H 0.67538 0.82871 0.09959 0.0
H501 H 0.6832 0.83054 0.18914 0.0
H502 H 0.68305 0.84779 0.19485 0.0
H503 H 0.69959 0.84707 0.21027 0.0
H504 H 0.74237 0.88385 0.09376 0.0
H505 H 0.73624 0.90413 0.09872 0.0
H506 H 0.69093 0.87172 0.13938 0.0
C507 C 0.70247 0.82644 0.11431 0.0
C508 C 0.71351 0.82328 0.09814 0.0
C509 C 0.72813 0.83519 0.08929 0.0
C510 C 0.73153 0.85009 0.09487 0.0
C511 C 0.72023 0.8528 0.10985 0.0
C512 C 0.70603 0.84124 0.11988 0.0
C513 C 0.69556 0.84688 0.13265 0.0
C514 C 0.68242 0.84103 0.097 0.0
C515 C 0.69003 0.84283 0.18484 0.0
C516 C 0.70592 0.86345 0.12702 0.0
C517 C 0.72015 0.86676 0.11424 0.0
C518 C 0.73132 0.88137 0.10444 0.0
C519 C 0.72775 0.89282 0.10732 0.0
C520 C 0.71314 0.8895 0.11964 0.0
C521 C 0.70224 0.87465 0.13027 0.0
H522 H 0.11469 0.83528 0.08478 0.0
H523 H 0.12575 0.80576 0.16287 0.0
H524 H 0.15177 0.82592 0.16967 0.0
H525 H 0.14768 0.85311 0.01614 0.0
H526 H 0.14977 0.87145 0.0182 0.0
H527 H 0.13152 0.85521 0.02297 0.0
H528 H 0.12719 0.86495 0.10375 0.0
H529 H 0.14542 0.88129 0.0991 0.0
H530 H 0.14047 0.86968 0.15197 0.0
H531 H 0.17667 0.84792 0.16223 0.0
H532 H 0.19951 0.87152 0.14364 0.0
H533 H 0.17312 0.88769 0.07163 0.0
C534 C 0.12256 0.8332 0.10407 0.0
C535 C 0.11821 0.81897 0.12335 0.0
C536 C 0.12884 0.81657 0.14775 0.0
C537 C 0.14365 0.82796 0.15194 0.0
C538 C 0.14769 0.84174 0.13174 0.0
C539 C 0.13751 0.84452 0.10858 0.0
C540 C 0.14514 0.86023 0.08817 0.0
C541 C 0.14343 0.85997 0.0331 0.0
C542 C 0.1392 0.86959 0.11219 0.0
C543 C 0.16119 0.86563 0.10262 0.0
C544 C 0.16231 0.85474 0.12788 0.0
C545 C 0.17595 0.85664 0.14304 0.0
C546 C 0.18886 0.87005 0.1321 0.0
C547 C 0.18805 0.88142 0.10641 0.0
C548 C 0.17401 0.87923 0.09182 0.0
H549 H 0.30901 0.12973 0.88741 0.0
H550 H 0.2611 0.10005 0.88876 0.0
H551 H 0.2574 0.12185 0.8809 0.0
H552 H 0.30958 0.15774 0.95846 0.0
H553 H 0.32461 0.17288 0.92606 0.0
H554 H 0.32324 0.15488 0.92747 0.0
H555 H 0.32319 0.15423 0.83412 0.0
H556 H 0.32458 0.17227 0.83241 0.0
H557 H 0.30957 0.15674 0.80134 0.0
H558 H 0.25932 0.1475 0.87969 0.0
H559 H 0.26667 0.17425 0.88429 0.0
H560 H 0.31325 0.18625 0.88232 0.0
C561 C 0.29772 0.12776 0.88542 0.0
C562 C 0.28533 0.11323 0.88866 0.0
C563 C 0.27074 0.11113 0.88613 0.0
C564 C 0.26855 0.12343 0.88165 0.0
C565 C 0.28107 0.13767 0.87929 0.0
C566 C 0.29536 0.13982 0.88076 0.0
C567 C 0.30701 0.15617 0.87986 0.0
C568 C 0.31667 0.16067 0.92569 0.0
C569 C 0.31665 0.16008 0.83421 0.0
C570 C 0.29708 0.16297 0.87871 0.0
C571 C 0.28215 0.1522 0.87811 0.0
C572 C 0.27099 0.15601 0.87954 0.0
C573 C 0.27525 0.1712 0.88215 0.0
C574 C 0.29052 0.1823 0.88341 0.0
C575 C 0.30148 0.17805 0.88097 0.0
H576 H 0.81341 0.12768 0.91468 0.0
H577 H 0.83036 0.09704 0.90433 0.0
H578 H 0.85627 0.11848 0.90866 0.0
H579 H 0.84149 0.15715 0.84372 0.0
H580 H 0.84184 0.17157 0.88094 0.0
H581 H 0.82497 0.15381 0.87585 0.0
H582 H 0.82402 0.15086 0.96873 0.0
H583 H 0.84087 0.1686 0.97413 0.0
H584 H 0.83989 0.15218 1.00004 0.0
H585 H 0.8806 0.14408 0.91417 0.0
H586 H 0.90035 0.17063 0.92313 0.0
H587 H 0.8663 0.18324 0.93149 0.0
C588 C 0.82253 0.12541 0.91306 0.0
C589 C 0.8199 0.11072 0.90891 0.0
C590 C 0.83217 0.10825 0.9074 0.0
C591 C 0.84689 0.12035 0.90978 0.0
C592 C 0.84905 0.13475 0.91389 0.0
C593 C 0.83713 0.13723 0.9157 0.0
C594 C 0.84214 0.15355 0.92135 0.0
C595 C 0.83733 0.15936 0.87787 0.0
C596 C 0.83639 0.15646 0.96889 0.0
C597 C 0.85881 0.16001 0.92243 0.0
C598 C 0.8627 0.1491 0.91787 0.0
C599 C 0.87762 0.15267 0.91783 0.0
C600 C 0.88875 0.16774 0.92286 0.0
C601 C 0.88484 0.17896 0.92816 0.0
C602 C 0.86967 0.17494 0.92772 0.0
H603 H 0.82845 0.71413 0.93112 0.0
H604 H 0.80047 0.66856 0.88214 0.0
H605 H 0.8227 0.66644 0.86732 0.0
H606 H 0.86034 0.72377 0.84776 0.0
H607 H 0.87414 0.73448 0.89274 0.0
H608 H 0.8562 0.73334 0.8941 0.0
H609 H 0.8523 0.72364 0.98186 0.0
H610 H 0.87019 0.72471 0.98073 0.0
H611 H 0.85368 0.70735 0.99547 0.0
H612 H 0.84691 0.66795 0.86487 0.0
H613 H 0.87259 0.67302 0.87546 0.0
H614 H 0.88601 0.71762 0.92646 0.0
C615 C 0.82712 0.70387 0.91628 0.0
C616 C 0.81278 0.69152 0.90756 0.0
C617 C 0.81136 0.67813 0.88916 0.0
C618 C 0.82392 0.67683 0.88035 0.0
C619 C 0.83787 0.68901 0.89021 0.0
C620 C 0.83965 0.7023 0.90772 0.0
C621 C 0.85596 0.71315 0.91879 0.0
C622 C 0.86202 0.72701 0.88641 0.0
C623 C 0.85815 0.71746 0.9724 0.0
C624 C 0.86289 0.70368 0.90597 0.0
C625 C 0.85219 0.68987 0.88904 0.0
C626 C 0.85547 0.67877 0.87746 0.0
C627 C 0.87007 0.68175 0.88382 0.0
C628 C 0.88127 0.69572 0.90159 0.0
C629 C 0.87769 0.70693 0.91213 0.0
H630 H 0.85158 0.64521 0.44395 0.0
H631 H 0.839 0.5985 0.43765 0.0
H632 H 0.81237 0.5914 0.44071 0.0
H633 H 0.82245 0.64083 0.52594 0.0
H634 H 0.81987 0.65486 0.49634 0.0
H635 H 0.83785 0.65611 0.49525 0.0
H636 H 0.83792 0.65715 0.40198 0.0
H637 H 0.81994 0.65588 0.40278 0.0
H638 H 0.82259 0.64254 0.36893 0.0
H639 H 0.787 0.58956 0.44148 0.0
H640 H 0.7651 0.5932 0.44085 0.0
H641 H 0.7947 0.6411 0.44732 0.0
C642 C 0.84323 0.63348 0.44354 0.0
C643 C 0.84732 0.6224 0.44063 0.0
C644 C 0.83608 0.60717 0.43998 0.0
C645 C 0.82094 0.60303 0.4417 0.0
C646 C 0.81728 0.61426 0.44423 0.0
C647 C 0.82813 0.62917 0.44531 0.0
C648 C 0.82132 0.63911 0.44715 0.0
C649 C 0.82563 0.64826 0.49396 0.0
C650 C 0.8257 0.64926 0.40255 0.0
C651 C 0.80494 0.62748 0.44654 0.0
C652 C 0.80279 0.61321 0.44493 0.0
C653 C 0.78855 0.60069 0.44302 0.0
C654 C 0.7762 0.60285 0.44264 0.0
C655 C 0.77822 0.61741 0.44419 0.0
C656 C 0.79279 0.62982 0.44638 0.0
H657 H 0.38291 0.15907 0.3804 0.0
H658 H 0.36353 0.14335 0.52151 0.0
H659 H 0.36742 0.16823 0.54112 0.0
H660 H 0.4102 0.19928 0.41664 0.0
H661 H 0.4069 0.20638 0.36156 0.0
H662 H 0.40582 0.18845 0.3621 0.0
H663 H 0.3791 0.1763 0.32704 0.0
H664 H 0.38003 0.1941 0.32673 0.0
H665 H 0.3651 0.17859 0.35817 0.0
H666 H 0.36889 0.19248 0.54071 0.0
H667 H 0.36826 0.21532 0.52074 0.0
H668 H 0.38676 0.21635 0.37983 0.0
C669 C 0.38012 0.16115 0.41605 0.0
C670 C 0.37319 0.14948 0.44992 0.0
C671 C 0.36902 0.15227 0.49548 0.0
C672 C 0.37124 0.16637 0.50696 0.0
C673 C 0.37759 0.17755 0.47235 0.0
C674 C 0.38207 0.17521 0.42786 0.0
C675 C 0.3867 0.18858 0.39515 0.0
C676 C 0.4034 0.19612 0.38316 0.0
C677 C 0.37716 0.18412 0.34908 0.0
C678 C 0.38341 0.19841 0.42742 0.0
C679 C 0.37841 0.19188 0.47206 0.0
C680 C 0.37315 0.19791 0.50641 0.0
C681 C 0.37275 0.21083 0.49467 0.0
C682 C 0.37764 0.21763 0.44908 0.0
C683 C 0.38335 0.21155 0.4154 0.0
H684 H 0.84305 0.20362 0.44635 0.0
H685 H 0.82591 0.23412 0.45623 0.0
H686 H 0.80008 0.21268 0.45283 0.0
H687 H 0.81672 0.17918 0.36158 0.0
H688 H 0.81554 0.16264 0.38729 0.0
H689 H 0.83243 0.18032 0.39342 0.0
H690 H 0.83113 0.17717 0.48623 0.0
H691 H 0.81423 0.15946 0.48039 0.0
H692 H 0.81452 0.17382 0.51777 0.0
H693 H 0.77594 0.18743 0.44646 0.0
H694 H 0.75609 0.16105 0.43528 0.0
H695 H 0.78985 0.14802 0.42775 0.0
C696 C 0.83388 0.20582 0.44828 0.0
C697 C 0.83645 0.2205 0.45181 0.0
C698 C 0.82415 0.22292 0.45368 0.0
C699 C 0.80947 0.21083 0.45183 0.0
C700 C 0.80734 0.19646 0.44799 0.0
C701 C 0.81926 0.19397 0.44617 0.0
C702 C 0.81418 0.17762 0.44017 0.0
C703 C 0.82007 0.17478 0.3928 0.0
C704 C 0.81879 0.17167 0.48374 0.0
C705 C 0.79751 0.17124 0.43851 0.0
C706 C 0.79369 0.18219 0.44345 0.0
C707 C 0.77883 0.17878 0.44263 0.0
C708 C 0.76764 0.16381 0.43632 0.0
C709 C 0.77146 0.15254 0.4305 0.0
C710 C 0.78658 0.15639 0.43192 0.0
H711 H 0.94859 0.49916 0.25061 0.0
H712 H 0.99344 0.52933 0.19935 0.0
H713 H 0.99709 0.50805 0.1832 0.0
H714 H 0.95767 0.47523 0.31298 0.0
H715 H 0.94076 0.45818 0.2987 0.0
H716 H 0.94071 0.47552 0.301 0.0
H717 H 0.93045 0.47131 0.21388 0.0
H718 H 0.93041 0.45389 0.21138 0.0
H719 H 0.9403 0.468 0.16638 0.0
H720 H 0.99699 0.48446 0.17855 0.0
H721 H 0.99324 0.4592 0.18628 0.0
H722 H 0.9486 0.44343 0.24181 0.0
C723 C 0.95902 0.50118 0.23501 0.0
C724 C 0.97071 0.51584 0.22593 0.0
C725 C 0.98435 0.51817 0.20655 0.0
C726 C 0.98652 0.50616 0.19704 0.0
C727 C 0.97495 0.49187 0.20723 0.0
C728 C 0.96146 0.48924 0.22574 0.0
C729 C 0.95138 0.47278 0.2367 0.0
C730 C 0.9474 0.47029 0.29054 0.0
C731 C 0.9373 0.4661 0.2052 0.0
C732 C 0.96151 0.46673 0.22251 0.0
C733 C 0.97496 0.47799 0.2051 0.0
C734 C 0.98645 0.47549 0.19161 0.0
C735 C 0.98422 0.4611 0.19633 0.0
C736 C 0.97062 0.44936 0.21455 0.0
C737 C 0.95904 0.45218 0.22733 0.0
H738 H 0.55577 0.50765 0.25925 0.0
H739 H 0.53777 0.53377 0.19683 0.0
H740 H 0.51354 0.51096 0.18544 0.0
H741 H 0.53397 0.47362 0.18368 0.0
H742 H 0.53112 0.46118 0.23309 0.0
H743 H 0.54777 0.47924 0.23065 0.0
H744 H 0.54191 0.48538 0.31548 0.0
H745 H 0.52526 0.46738 0.31814 0.0
H746 H 0.52413 0.48405 0.32641 0.0
H747 H 0.49091 0.4865 0.18884 0.0
H748 H 0.47056 0.46117 0.20707 0.0
H749 H 0.50241 0.44996 0.26701 0.0
C750 C 0.54679 0.50846 0.24217 0.0
C751 C 0.54862 0.52243 0.22865 0.0
C752 C 0.53658 0.52317 0.20741 0.0
C753 C 0.5228 0.51026 0.20055 0.0
C754 C 0.52122 0.4967 0.21511 0.0
C755 C 0.53284 0.49562 0.23538 0.0
C756 C 0.52765 0.47976 0.25159 0.0
C757 C 0.5356 0.47305 0.22303 0.0
C758 C 0.52987 0.47911 0.30614 0.0
C759 C 0.51123 0.47226 0.23856 0.0
C760 C 0.50789 0.48227 0.21705 0.0
C761 C 0.49339 0.47846 0.20491 0.0
C762 C 0.48191 0.46408 0.21562 0.0
C763 C 0.48497 0.45365 0.23812 0.0
C764 C 0.49985 0.45768 0.24894 0.0
H765 H 0.54824 0.05191 0.28204 0.0
H766 H 0.54939 0.03923 0.13427 0.0
H767 H 0.52774 0.04214 0.11501 0.0
H768 H 0.51076 0.03089 0.29438 0.0
H769 H 0.50796 0.04346 0.33196 0.0
H770 H 0.52568 0.04424 0.33196 0.0
H771 H 0.5389 0.07224 0.30945 0.0
H772 H 0.52116 0.07158 0.30965 0.0
H773 H 0.53291 0.07811 0.25704 0.0
H774 H 0.50375 0.04134 0.11492 0.0
H775 H 0.47857 0.03679 0.13407 0.0
H776 H 0.49193 0.04992 0.28197 0.0
C777 C 0.5443 0.05047 0.24524 0.0
C778 C 0.55062 0.04573 0.2092 0.0
C779 C 0.5448 0.04314 0.16196 0.0
C780 C 0.53255 0.04481 0.15072 0.0
C781 C 0.52615 0.04897 0.18728 0.0
C782 C 0.53183 0.05184 0.23362 0.0
C783 C 0.52148 0.05389 0.26758 0.0
C784 C 0.51616 0.04243 0.30887 0.0
C785 C 0.52907 0.06991 0.28708 0.0
C786 C 0.5088 0.05094 0.23363 0.0
C787 C 0.51192 0.04844 0.18727 0.0
C788 C 0.50133 0.04372 0.15066 0.0
C789 C 0.48706 0.04113 0.16184 0.0
C790 C 0.48351 0.04336 0.20909 0.0
C791 C 0.49461 0.0487 0.24517 0.0
H792 H 0.44333 0.94284 0.7632 0.0
H793 H 0.45598 0.98544 0.82966 0.0
H794 H 0.48107 0.98936 0.84584 0.0
H795 H 0.46708 0.93308 0.8416 0.0
H796 H 0.47177 0.92514 0.79151 0.0
H797 H 0.45392 0.92423 0.79325 0.0
H798 H 0.45925 0.93704 0.70974 0.0
H799 H 0.4771 0.93808 0.70786 0.0
H800 H 0.47597 0.9548 0.70121 0.0
H801 H 0.50536 0.99072 0.84334 0.0
H802 H 0.52776 0.98927 0.82336 0.0
H803 H 0.50006 0.94575 0.75891 0.0
C804 C 0.45127 0.95273 0.78262 0.0
C805 C 0.44776 0.96379 0.79561 0.0
C806 C 0.45849 0.97682 0.8196 0.0
C807 C 0.47273 0.97911 0.82917 0.0
C808 C 0.47605 0.96825 0.81457 0.0
C809 C 0.46564 0.95525 0.79206 0.0
C810 C 0.47267 0.94624 0.77516 0.0
C811 C 0.46596 0.93129 0.802 0.0
C812 C 0.47116 0.94392 0.72025 0.0
C813 C 0.48874 0.95652 0.78985 0.0
C814 C 0.49034 0.96903 0.81317 0.0
C815 C 0.50424 0.98084 0.82613 0.0
C816 C 0.51689 0.97995 0.81438 0.0
C817 C 0.51556 0.96735 0.79005 0.0
C818 C 0.5013 0.95534 0.77853 0.0
H819 H 0.02226 0.53641 0.76085 0.0
H820 H 0.0695 0.56853 0.77116 0.0
H821 H 0.07502 0.54774 0.76947 0.0
H822 H 0.02189 0.5079 0.83441 0.0
H823 H 0.00825 0.49301 0.79744 0.0
H824 H 0.00839 0.51044 0.801 0.0
H825 H 0.01059 0.51297 0.70803 0.0
H826 H 0.01044 0.49555 0.70416 0.0
H827 H 0.02559 0.51215 0.67795 0.0
H828 H 0.0748 0.52257 0.76662 0.0
H829 H 0.069 0.49627 0.75957 0.0
H830 H 0.02194 0.48191 0.74888 0.0
C831 C 0.0338 0.53915 0.7631 0.0
C832 C 0.04546 0.55407 0.7665 0.0
C833 C 0.0604 0.55714 0.76871 0.0
C834 C 0.06361 0.54541 0.76782 0.0
C835 C 0.05174 0.53077 0.76438 0.0
C836 C 0.03715 0.5277 0.76182 0.0
C837 C 0.02631 0.51123 0.7568 0.0
C838 C 0.01558 0.5053 0.79999 0.0
C839 C 0.01773 0.50778 0.70889 0.0
C840 C 0.03701 0.50535 0.75705 0.0
C841 C 0.05164 0.51668 0.76169 0.0
C842 C 0.06337 0.51366 0.7629 0.0
C843 C 0.05999 0.49872 0.75895 0.0
C844 C 0.04504 0.48708 0.75352 0.0
C845 C 0.03349 0.49054 0.75278 0.0
H846 H 0.46249 0.48373 0.79363 0.0
H847 H 0.4284 0.49588 0.77312 0.0
H848 H 0.44803 0.52257 0.76979 0.0
H849 H 0.48723 0.51511 0.86821 0.0
H850 H 0.50378 0.51664 0.84137 0.0
H851 H 0.48695 0.49877 0.84447 0.0
H852 H 0.4879 0.49575 0.75209 0.0
H853 H 0.5047 0.5136 0.74867 0.0
H854 H 0.48875 0.50999 0.71269 0.0
H855 H 0.47194 0.54802 0.76588 0.0
H856 H 0.49763 0.56964 0.76132 0.0
H857 H 0.51539 0.54002 0.78378 0.0
C858 C 0.45909 0.49198 0.78889 0.0
C859 C 0.44392 0.48776 0.7838 0.0
C860 C 0.43997 0.49891 0.77728 0.0
C861 C 0.45104 0.51406 0.77535 0.0
C862 C 0.46594 0.51781 0.78007 0.0
C863 C 0.46992 0.50704 0.78679 0.0
C864 C 0.48665 0.51376 0.78934 0.0
C865 C 0.49143 0.5109 0.83879 0.0
C866 C 0.49233 0.50793 0.74825 0.0
C867 C 0.49155 0.53004 0.7826 0.0
C868 C 0.4795 0.53223 0.77753 0.0
C869 C 0.48143 0.54641 0.77003 0.0
C870 C 0.49604 0.55861 0.76749 0.0
C871 C 0.50848 0.55649 0.77223 0.0
C872 C 0.50612 0.54201 0.78011 0.0
H873 H 0.61387 0.83326 0.59952 0.0
H874 H 0.65179 0.86228 0.51023 0.0
H875 H 0.6534 0.84061 0.48165 0.0
H876 H 0.62856 0.81167 0.63982 0.0
H877 H 0.61128 0.79414 0.64107 0.0
H878 H 0.61111 0.81132 0.64783 0.0
H879 H 0.5929 0.80421 0.57578 0.0
H880 H 0.593 0.78694 0.56886 0.0
H881 H 0.59782 0.79957 0.51868 0.0
H882 H 0.65318 0.8171 0.4705 0.0
H883 H 0.65177 0.7928 0.47946 0.0
H884 H 0.61439 0.77834 0.57741 0.0
C885 C 0.62218 0.83489 0.57285 0.0
C886 C 0.63261 0.84932 0.55648 0.0
C887 C 0.64368 0.85124 0.5229 0.0
C888 C 0.64462 0.83902 0.50625 0.0
C889 C 0.63445 0.82495 0.52384 0.0
C890 C 0.62344 0.82276 0.55646 0.0
C891 C 0.61518 0.80672 0.57398 0.0
C892 C 0.61663 0.80593 0.62892 0.0
C893 C 0.59875 0.7989 0.55838 0.0
C894 C 0.62364 0.80046 0.54742 0.0
C895 C 0.63451 0.81115 0.51804 0.0
C896 C 0.64456 0.80854 0.4927 0.0
C897 C 0.64371 0.79473 0.49819 0.0
C898 C 0.63292 0.78371 0.52889 0.0
C899 C 0.62254 0.78649 0.553 0.0
H900 H 0.14563 0.79599 0.5861 0.0
H901 H 0.15715 0.76141 0.56679 0.0
H902 H 0.18377 0.78081 0.55821 0.0
H903 H 0.17211 0.82216 0.5007 0.0
H904 H 0.17594 0.83815 0.53678 0.0
H905 H 0.15793 0.8215 0.53998 0.0
H906 H 0.16085 0.8205 0.63241 0.0
H907 H 0.17887 0.83712 0.6295 0.0
H908 H 0.177 0.82042 0.65627 0.0
H909 H 0.20942 0.8044 0.55517 0.0
H910 H 0.23149 0.82986 0.55611 0.0
H911 H 0.20244 0.84838 0.57606 0.0
C912 C 0.15372 0.79246 0.57983 0.0
C913 C 0.14936 0.77721 0.57716 0.0
C914 C 0.16028 0.77306 0.56887 0.0
C915 C 0.1754 0.78399 0.56399 0.0
C916 C 0.17933 0.79896 0.56719 0.0
C917 C 0.16875 0.80316 0.57468 0.0
C918 C 0.17573 0.81991 0.57736 0.0
C919 C 0.17009 0.82577 0.53625 0.0
C920 C 0.17295 0.82477 0.62682 0.0
C921 C 0.19195 0.82456 0.5707 0.0
C922 C 0.19387 0.81237 0.56487 0.0
C923 C 0.20801 0.81401 0.55939 0.0
C924 C 0.22047 0.82849 0.56 0.0
C925 C 0.21865 0.84107 0.56594 0.0
C926 C 0.20419 0.839 0.57111 0.0
H927 H 0.21007 0.36142 0.52177 0.0
H928 H 0.2389 0.40433 0.58813 0.0
H929 H 0.21853 0.41032 0.58289 0.0
H930 H 0.18938 0.37349 0.44107 0.0
H931 H 0.17224 0.35615 0.44999 0.0
H932 H 0.18985 0.35657 0.45196 0.0
H933 H 0.18329 0.34448 0.53676 0.0
H934 H 0.16578 0.34413 0.53528 0.0
H935 H 0.17861 0.35333 0.58413 0.0
H936 H 0.19352 0.4098 0.58027 0.0
H937 H 0.16687 0.40299 0.57937 0.0
H938 H 0.15529 0.36044 0.51479 0.0
C939 C 0.21226 0.37226 0.53409 0.0
C940 C 0.22603 0.38244 0.55523 0.0
C941 C 0.22844 0.39643 0.57136 0.0
C942 C 0.21693 0.39991 0.56856 0.0
C943 C 0.20325 0.38933 0.54893 0.0
C944 C 0.201 0.37586 0.53144 0.0
C945 C 0.18505 0.36577 0.51601 0.0
C946 C 0.18408 0.36283 0.46151 0.0
C947 C 0.17777 0.35108 0.54478 0.0
C948 C 0.17845 0.37539 0.52915 0.0
C949 C 0.18907 0.38903 0.5475 0.0
C950 C 0.18518 0.39926 0.56516 0.0
C951 C 0.17005 0.39531 0.56456 0.0
C952 C 0.15906 0.38122 0.54691 0.0
C953 C 0.16344 0.37134 0.52821 0.0
H954 H 0.02789 0.26093 0.03782 0.0
H955 H 0.03938 0.30726 0.02417 0.0
H956 H 0.01414 0.29936 0.99489 0.0
H957 H 0.00481 0.24757 0.93197 0.0
H958 H 0.9911 0.23016 0.95846 0.0
H959 H 0.01014 0.2392 0.97914 0.0
H960 H 0.00138 0.23912 0.06655 0.0
H961 H 0.9823 0.22992 0.04622 0.0
H962 H 0.98984 0.24721 0.079 0.0
H963 H 0.98826 0.287 0.9661 0.0
H964 H 0.96193 0.27049 0.94462 0.0
H965 H 0.96628 0.23179 0.97653 0.0
C966 C 0.02502 0.26937 0.02903 0.0
C967 C 0.03563 0.28472 0.03326 0.0
C968 C 0.03147 0.29544 0.02123 0.0
C969 C 0.01716 0.29108 0.00438 0.0
C970 C 0.00706 0.27593 0.99978 0.0
C971 C 0.01066 0.26519 0.01212 0.0
C972 C 0.99746 0.24965 0.00415 0.0
C973 C 0.0011 0.24115 0.96616 0.0
C974 C 0.99245 0.24097 0.05182 0.0
C975 C 0.98595 0.25342 0.98553 0.0
C976 C 0.99184 0.26867 0.98312 0.0
C977 C 0.98347 0.27503 0.9678 0.0
C978 C 0.96854 0.26555 0.95559 0.0
C979 C 0.96208 0.24987 0.95879 0.0
C980 C 0.97098 0.24373 0.97327 0.0
H981 H 0.76966 0.73439 0.97792 0.0
H982 H 0.73492 0.70094 0.88728 0.0
H983 H 0.71996 0.71317 0.89791 0.0
H984 H 0.74589 0.73587 0.06266 0.0
H985 H 0.75643 0.75566 0.07377 0.0
H986 H 0.76578 0.74598 0.05329 0.0
H987 H 0.77668 0.76395 0.98065 0.0
H988 H 0.76752 0.77384 1.00126 0.0
H989 H 0.7643 0.76642 0.94099 0.0
H990 H 0.70739 0.72636 0.92607 0.0
H991 H 0.69808 0.74113 0.96679 0.0
H992 H 0.74056 0.76675 0.04008 0.0
C993 C 0.75914 0.73001 0.95905 0.0
C994 C 0.75346 0.71684 0.93134 0.0
C995 C 0.73946 0.71108 0.90841 0.0
C996 C 0.7309 0.71795 0.91418 0.0
C997 C 0.7365 0.73058 0.94307 0.0
C998 C 0.75033 0.73671 0.96484 0.0
C999 C 0.753 0.74963 0.99735 0.0
C1000 C 0.75541 0.7466 0.04987 0.0
C1001 C 0.76616 0.76433 0.97895 0.0
C1002 C 0.73832 0.74944 0.99141 0.0
C1003 C 0.72907 0.73839 0.95964 0.0
C1004 C 0.71459 0.73522 0.9504 0.0
C1005 C 0.70937 0.74361 0.97405 0.0
C1006 C 0.71861 0.75509 0.00652 0.0
C1007 C 0.73334 0.75814 0.01503 0.0
H1008 H 0.25951 0.97114 0.0315 0.0
H1009 H 0.21214 0.95588 0.02714 0.0
H1010 H 0.21765 0.98005 0.9913 0.0
H1011 H 0.27191 0.00908 0.06262 0.0
H1012 H 0.28842 0.01631 0.02582 0.0
H1013 H 0.28048 0.99792 0.05127 0.0
H1014 H 0.27875 0.987 0.96594 0.0
H1015 H 0.28655 0.00535 0.94016 0.0
H1016 H 0.26882 0.99051 0.91922 0.0
H1017 H 0.2288 0.00634 0.95594 0.0
H1018 H 0.2445 0.03233 0.92717 0.0
H1019 H 0.28417 0.0293 0.95393 0.0
C1020 C 0.25026 0.97287 0.02332 0.0
C1021 C 0.2354 0.96168 0.03224 0.0
C1022 C 0.22362 0.96436 0.02073 0.0
C1023 C 0.22665 0.97802 1.00024 0.0
C1024 C 0.24148 0.98877 0.9914 0.0
C1025 C 0.25306 0.98631 1.00276 0.0
C1026 C 0.26803 0.99953 0.98995 0.0
C1027 C 0.27778 0.0061 0.0351 0.0
C1028 C 0.276 0.99534 0.95153 0.0
C1029 C 0.26312 0.00993 0.96983 0.0
C1030 C 0.24778 0.00358 0.97075 0.0
C1031 C 0.24081 0.01137 0.9549 0.0
C1032 C 0.24979 0.02609 0.93849 0.0
C1033 C 0.26553 0.03279 0.93812 0.0
C1034 C 0.27217 0.02447 0.95341 0.0
H1035 H 0.97569 0.72523 0.92671 0.0
H1036 H 0.95724 0.75192 0.98032 0.0
H1037 H 0.98186 0.76981 0.01552 0.0
H1038 H 0.99512 0.72748 0.02887 0.0
H1039 H 0.01075 0.72796 0.99865 0.0
H1040 H 0.99273 0.71902 0.9704 0.0
H1041 H 0.00379 0.73592 0.89526 0.0
H1042 H 0.02196 0.7448 0.92302 0.0
H1043 H 0.01408 0.75589 0.90244 0.0
H1044 H 0.00841 0.7835 0.0514 0.0
H1045 H 0.03338 0.79085 0.08552 0.0
H1046 H 0.0327 0.75365 0.01184 0.0
C1047 C 0.97689 0.73507 0.94457 0.0
C1048 C 0.96461 0.73729 0.95033 0.0
C1049 C 0.96658 0.75012 0.97498 0.0
C1050 C 0.98051 0.76031 0.99512 0.0
C1051 C 0.99228 0.75745 0.99025 0.0
C1052 C 0.99054 0.74512 0.96531 0.0
C1053 C 0.00419 0.74348 0.96915 0.0
C1054 C 0.00046 0.72861 0.99321 0.0
C1055 C 0.01143 0.74513 0.91952 0.0
C1056 C 0.01382 0.75658 1.0012 0.0
C1057 C 0.00699 0.76475 0.0124 0.0
C1058 C 0.01386 0.77721 0.04255 0.0
C1059 C 0.02799 0.7813 0.06181 0.0
C1060 C 0.03483 0.77271 0.05162 0.0
C1061 C 0.02766 0.76033 0.02063 0.0
H1062 H 0.26376 0.23566 0.95386 0.0
H1063 H 0.30914 0.27296 0.96003 0.0
H1064 H 0.30008 0.28848 0.99717 0.0
H1065 H 0.24629 0.25776 0.92539 0.0
H1066 H 0.23002 0.24659 0.96178 0.0
H1067 H 0.23996 0.23827 0.93494 0.0
H1068 H 0.24302 0.22935 0.0191 0.0
H1069 H 0.23323 0.23778 0.04626 0.0
H1070 H 0.25165 0.24276 0.0669 0.0
H1071 H 0.28673 0.29984 0.035 0.0
H1072 H 0.26931 0.3073 0.0669 0.0
H1073 H 0.23209 0.2631 0.03657 0.0
C1074 C 0.27174 0.24713 0.96266 0.0
C1075 C 0.28716 0.2531 0.95404 0.0
C1076 C 0.29728 0.26814 0.96624 0.0
C1077 C 0.29226 0.27705 0.98751 0.0
C1078 C 0.27707 0.2708 0.99629 0.0
C1079 C 0.2669 0.25626 0.98395 0.0
C1080 C 0.25116 0.25248 0.99724 0.0
C1081 C 0.24128 0.24854 0.95215 0.0
C1082 C 0.24437 0.23984 0.0346 0.0
C1083 C 0.25415 0.26718 0.01895 0.0
C1084 C 0.26922 0.2775 0.01814 0.0
C1085 C 0.2749 0.2919 0.03576 0.0
C1086 C 0.26489 0.296 0.0539 0.0
C1087 C 0.24934 0.28579 0.05424 0.0
C1088 C 0.24392 0.27111 0.03706 0.0
H1089 H 0.7684 0.02879 0.96708 0.0
H1090 H 0.72947 0.03172 0.92577 0.0
H1091 H 0.71314 0.00706 0.96112 0.0
H1092 H 0.75146 0.98854 0.94342 0.0
H1093 H 0.76047 0.98544 0.99403 0.0
H1094 H 0.76934 0.00324 0.9639 0.0
H1095 H 0.77114 0.01633 0.04508 0.0
H1096 H 0.76213 0.99857 0.07537 0.0
H1097 H 0.75445 0.01077 0.07973 0.0
H1098 H 0.70101 0.98336 0.00508 0.0
H1099 H 0.69323 0.95998 0.04862 0.0
H1100 H 0.73947 0.97094 0.05984 0.0
C1101 C 0.75644 0.02411 0.96492 0.0
C1102 C 0.75022 0.0322 0.94369 0.0
C1103 C 0.73451 0.02576 0.94178 0.0
C1104 C 0.72512 0.01176 0.9619 0.0
C1105 C 0.73155 0.00423 0.98347 0.0
C1106 C 0.7468 0.00998 0.98459 0.0
C1107 C 0.75063 0.99937 0.01025 0.0
C1108 C 0.75844 0.99381 0.97584 0.0
C1109 C 0.76015 0.0067 0.05528 0.0
C1110 C 0.73514 0.98689 0.02372 0.0
C1111 C 0.72438 0.99008 0.00809 0.0
C1112 C 0.70929 0.98064 0.01715 0.0
C1113 C 0.70501 0.96741 0.04218 0.0
C1114 C 0.71573 0.96361 0.05758 0.0
C1115 C 0.73103 0.97354 0.0484 0.0
H1116 H 0.6395 0.59228 0.28132 0.0
H1117 H 0.62283 0.54475 0.29238 0.0
H1118 H 0.647 0.54994 0.32746 0.0
H1119 H 0.67833 0.60399 0.25393 0.0
H1120 H 0.68523 0.62059 0.29011 0.0
H1121 H 0.66731 0.61291 0.2612 0.0
H1122 H 0.65508 0.61165 0.34384 0.0
H1123 H 0.67291 0.61913 0.3731 0.0
H1124 H 0.65747 0.60159 0.39273 0.0
H1125 H 0.67298 0.56077 0.36502 0.0
H1126 H 0.69799 0.57611 0.40183 0.0
H1127 H 0.6962 0.61615 0.3695 0.0
C1128 C 0.64101 0.58293 0.29005 0.0
C1129 C 0.62938 0.56811 0.28362 0.0
C1130 C 0.63168 0.5562 0.2966 0.0
C1131 C 0.64535 0.55904 0.31661 0.0
C1132 C 0.65647 0.57385 0.3236 0.0
C1133 C 0.6544 0.58557 0.31058 0.0
C1134 C 0.66757 0.60044 0.32456 0.0
C1135 C 0.67505 0.61004 0.27978 0.0
C1136 C 0.66298 0.60868 0.3607 0.0
C1137 C 0.6774 0.59531 0.34792 0.0
C1138 C 0.67094 0.57997 0.34669 0.0
C1139 C 0.67812 0.57279 0.36613 0.0
C1140 C 0.69227 0.58156 0.38704 0.0
C1141 C 0.69893 0.59728 0.38885 0.0
C1142 C 0.69132 0.60415 0.36912 0.0
H1143 H 0.42879 0.06681 0.28324 0.0
H1144 H 0.3916 0.02138 0.27644 0.0
H1145 H 0.3749 0.02967 0.30861 0.0
H1146 H 0.41833 0.0767 0.3935 0.0
H1147 H 0.42367 0.09547 0.37575 0.0
H1148 H 0.43297 0.08636 0.34987 0.0
H1149 H 0.42627 0.09101 0.26421 0.0
H1150 H 0.41707 0.10026 0.28982 0.0
H1151 H 0.40708 0.08474 0.24946 0.0
H1152 H 0.36239 0.04201 0.3448 0.0
H1153 H 0.35399 0.05843 0.37885 0.0
H1154 H 0.39864 0.09645 0.36237 0.0
C1155 C 0.4171 0.05869 0.28794 0.0
C1156 C 0.41151 0.04344 0.27731 0.0
C1157 C 0.39616 0.03311 0.28431 0.0
C1158 C 0.38656 0.03769 0.30265 0.0
C1159 C 0.39241 0.05268 0.31368 0.0
C1160 C 0.40724 0.0631 0.30625 0.0
C1161 C 0.41047 0.07851 0.32185 0.0
C1162 C 0.42205 0.08461 0.36267 0.0
C1163 C 0.41552 0.08927 0.27876 0.0
C1164 C 0.39517 0.07498 0.33965 0.0
C1165 C 0.38499 0.05998 0.33451 0.0
C1166 C 0.3702 0.05381 0.34875 0.0
C1167 C 0.36556 0.06325 0.3682 0.0
C1168 C 0.37564 0.07873 0.37323 0.0
C1169 C 0.39069 0.08466 0.359 0.0
H1170 H 0.91905 0.30305 0.3895 0.0
H1171 H 0.87529 0.29858 0.40442 0.0
H1172 H 0.88451 0.32294 0.36385 0.0
H1173 H 0.94075 0.34284 0.4087 0.0
H1174 H 0.9546 0.34539 0.36461 0.0
H1175 H 0.94458 0.32798 0.39654 0.0
H1176 H 0.93624 0.31387 0.31522 0.0
H1177 H 0.94611 0.33125 0.28304 0.0
H1178 H 0.92651 0.31893 0.27214 0.0
H1179 H 0.89871 0.34787 0.32064 0.0
H1180 H 0.91676 0.3713 0.27967 0.0
H1181 H 0.95069 0.35856 0.29117 0.0
C1182 C 0.91144 0.30727 0.3848 0.0
C1183 C 0.89649 0.29901 0.4004 0.0
C1184 C 0.88682 0.3048 0.39294 0.0
C1185 C 0.89195 0.31859 0.36985 0.0
C1186 C 0.90672 0.32636 0.35424 0.0
C1187 C 0.91632 0.32089 0.3615 0.0
C1188 C 0.93156 0.33117 0.34041 0.0
C1189 C 0.94358 0.3372 0.37993 0.0
C1190 C 0.93532 0.32333 0.30032 0.0
C1191 C 0.92909 0.34332 0.32022 0.0
C1192 C 0.91472 0.3404 0.32856 0.0
C1193 C 0.90998 0.35024 0.31381 0.0
C1194 C 0.92028 0.36348 0.29048 0.0
C1195 C 0.93507 0.36669 0.28197 0.0
C1196 C 0.93941 0.35636 0.29672 0.0
H1197 H 0.6908 0.10085 0.36723 0.0
H1198 H 0.69294 0.06238 0.41856 0.0
H1199 H 0.66677 0.04598 0.39493 0.0
H1200 H 0.6512 0.08698 0.40184 0.0
H1201 H 0.64752 0.09458 0.34863 0.0
H1202 H 0.66596 0.10363 0.37447 0.0
H1203 H 0.67681 0.10179 0.29242 0.0
H1204 H 0.65841 0.09258 0.26648 0.0
H1205 H 0.66969 0.08382 0.26415 0.0
H1206 H 0.64178 0.03352 0.35893 0.0
H1207 H 0.6181 0.02545 0.31688 0.0
H1208 H 0.63119 0.07166 0.28845 0.0
C1209 C 0.6856 0.08902 0.37463 0.0
C1210 C 0.69385 0.08286 0.39498 0.0
C1211 C 0.68681 0.06731 0.40315 0.0
C1212 C 0.67195 0.05791 0.38986 0.0
C1213 C 0.66425 0.06422 0.36853 0.0
C1214 C 0.6707 0.07941 0.36134 0.0
C1215 C 0.66006 0.08309 0.33513 0.0
C1216 C 0.65594 0.09263 0.36693 0.0
C1217 C 0.66664 0.09077 0.28667 0.0
C1218 C 0.6468 0.06756 0.32787 0.0
C1219 C 0.64953 0.05691 0.34763 0.0
C1220 C 0.6394 0.04174 0.34384 0.0
C1221 C 0.62601 0.03728 0.31956 0.0
C1222 C 0.62278 0.04793 0.29941 0.0
C1223 C 0.63332 0.06329 0.30374 0.0
H1224 H 0.92672 0.62014 0.37203 0.0
H1225 H 0.88043 0.58486 0.37211 0.0
H1226 H 0.88776 0.56776 0.33441 0.0
H1227 H 0.93632 0.611 0.25725 0.0
H1228 H 0.95482 0.61577 0.27633 0.0
H1229 H 0.94577 0.62506 0.30274 0.0
H1230 H 0.9495 0.6172 0.38796 0.0
H1231 H 0.95867 0.60802 0.36186 0.0
H1232 H 0.94274 0.59777 0.40049 0.0
H1233 H 0.90073 0.55437 0.29884 0.0
H1234 H 0.91807 0.546 0.27041 0.0
H1235 H 0.95533 0.59072 0.29208 0.0
C1236 C 0.9181 0.6088 0.36429 0.0
C1237 C 0.90303 0.60376 0.37521 0.0
C1238 C 0.89207 0.5889 0.36411 0.0
C1239 C 0.89612 0.57915 0.3426 0.0
C1240 C 0.91113 0.58453 0.33206 0.0
C1241 C 0.92192 0.59904 0.34253 0.0
C1242 C 0.93728 0.60218 0.32818 0.0
C1243 C 0.94393 0.61421 0.28878 0.0
C1244 C 0.94765 0.60654 0.37225 0.0
C1245 C 0.93356 0.58709 0.30877 0.0
C1246 C 0.91844 0.57702 0.31098 0.0
C1247 C 0.91257 0.56221 0.29659 0.0
C1248 C 0.92247 0.55757 0.28038 0.0
C1249 C 0.93801 0.56773 0.27881 0.0
C1250 C 0.9435 0.5827 0.29245 0.0
H1251 H 0.41245 0.36174 0.30118 0.0
H1252 H 0.45858 0.37229 0.29646 0.0
H1253 H 0.45086 0.34668 0.32441 0.0
H1254 H 0.40267 0.34069 0.40779 0.0
H1255 H 0.38409 0.32737 0.38813 0.0
H1256 H 0.3932 0.34609 0.36478 0.0
H1257 H 0.38932 0.33592 0.27751 0.0
H1258 H 0.38001 0.31715 0.30056 0.0
H1259 H 0.39585 0.32332 0.26117 0.0
H1260 H 0.43775 0.31992 0.35727 0.0
H1261 H 0.42046 0.2944 0.3874 0.0
H1262 H 0.38338 0.30237 0.37046 0.0
C1263 C 0.42094 0.35865 0.30536 0.0
C1264 C 0.43611 0.36897 0.29654 0.0
C1265 C 0.44688 0.36449 0.30272 0.0
C1266 C 0.4426 0.35 0.31876 0.0
C1267 C 0.42753 0.3402 0.32821 0.0
C1268 C 0.41689 0.34434 0.32126 0.0
C1269 C 0.40149 0.332 0.33488 0.0
C1270 C 0.39499 0.33683 0.37636 0.0
C1271 C 0.39106 0.32679 0.29091 0.0
C1272 C 0.40507 0.32023 0.35104 0.0
C1273 C 0.42012 0.32508 0.34701 0.0
C1274 C 0.42595 0.31602 0.36036 0.0
C1275 C 0.41608 0.30158 0.37761 0.0
C1276 C 0.40061 0.29643 0.38133 0.0
C1277 C 0.39515 0.30597 0.36812 0.0
H1278 H 0.29494 0.90184 0.67601 0.0
H1279 H 0.30135 0.87973 0.5537 0.0
H1280 H 0.32745 0.88873 0.5799 0.0
H1281 H 0.3294 0.93434 0.66374 0.0
H1282 H 0.3323 0.93816 0.72734 0.0
H1283 H 0.31365 0.92786 0.70377 0.0
H1284 H 0.30772 0.90619 0.76268 0.0
H1285 H 0.32638 0.91642 0.78652 0.0
H1286 H 0.3194 0.89787 0.76315 0.0
H1287 H 0.35308 0.9009 0.61917 0.0
H1288 H 0.37695 0.91818 0.65957 0.0
H1289 H 0.35409 0.93465 0.74925 0.0
C1290 C 0.30175 0.89856 0.65557 0.0
C1291 C 0.29617 0.88979 0.61373 0.0
C1292 C 0.30547 0.88625 0.58637 0.0
C1293 C 0.32023 0.89125 0.60111 0.0
C1294 C 0.32548 0.90004 0.64253 0.0
C1295 C 0.31655 0.90387 0.66881 0.0
C1296 C 0.32527 0.91505 0.70786 0.0
C1297 C 0.32515 0.92972 0.70018 0.0
C1298 C 0.31934 0.90848 0.75802 0.0
C1299 C 0.34059 0.91708 0.69931 0.0
C1300 C 0.34042 0.90802 0.66242 0.0
C1301 C 0.35333 0.90802 0.64808 0.0
C1302 C 0.36679 0.91779 0.6713 0.0
C1303 C 0.36724 0.92766 0.70732 0.0
C1304 C 0.35397 0.92717 0.72179 0.0
H1305 H 0.07473 0.43524 0.69696 0.0
H1306 H 0.03442 0.397 0.75123 0.0
H1307 H 0.04357 0.38038 0.72439 0.0
H1308 H 0.07743 0.41845 0.59204 0.0
H1309 H 0.09744 0.42685 0.5919 0.0
H1310 H 0.08887 0.43626 0.62062 0.0
H1311 H 0.10229 0.43751 0.70064 0.0
H1312 H 0.11113 0.42832 0.67196 0.0
H1313 H 0.10038 0.42063 0.72611 0.0
H1314 H 0.05517 0.36767 0.68352 0.0
H1315 H 0.07007 0.35944 0.63771 0.0
H1316 H 0.10356 0.4056 0.61059 0.0
C1317 C 0.06808 0.42342 0.70449 0.0
C1318 C 0.0539 0.41739 0.72637 0.0
C1319 C 0.04533 0.40185 0.73464 0.0
C1320 C 0.05042 0.39231 0.71949 0.0
C1321 C 0.06415 0.39849 0.69636 0.0
C1322 C 0.07302 0.41368 0.68949 0.0
C1323 C 0.08697 0.41723 0.66125 0.0
C1324 C 0.08771 0.42516 0.61364 0.0
C1325 C 0.10103 0.42647 0.69183 0.0
C1326 C 0.08432 0.40163 0.6524 0.0
C1327 C 0.07106 0.39104 0.67305 0.0
C1328 C 0.06569 0.37584 0.66781 0.0
C1329 C 0.07419 0.37128 0.64137 0.0
C1330 C 0.08798 0.38188 0.62068 0.0
C1331 C 0.0931 0.39727 0.62628 0.0
H1332 H 0.58864 0.64124 0.7128 0.0
H1333 H 0.54285 0.63064 0.6917 0.0
H1334 H 0.55186 0.65483 0.64988 0.0
H1335 H 0.6045 0.68063 0.73381 0.0
H1336 H 0.62147 0.68536 0.70196 0.0
H1337 H 0.6112 0.66758 0.73161 0.0
H1338 H 0.60987 0.65424 0.65123 0.0
H1339 H 0.62 0.67197 0.62121 0.0
H1340 H 0.60206 0.65799 0.59871 0.0
H1341 H 0.56636 0.68043 0.60938 0.0
H1342 H 0.58485 0.70495 0.57519 0.0
H1343 H 0.62067 0.69758 0.62149 0.0
C1344 C 0.58047 0.64404 0.6999 0.0
C1345 C 0.56505 0.63414 0.70575 0.0
C1346 C 0.55473 0.63814 0.68781 0.0
C1347 C 0.55975 0.65182 0.66394 0.0
C1348 C 0.57508 0.66125 0.6582 0.0
C1349 C 0.58525 0.6575 0.67582 0.0
C1350 C 0.6011 0.66929 0.66431 0.0
C1351 C 0.61009 0.67612 0.71068 0.0
C1352 C 0.6087 0.66299 0.63193 0.0
C1353 C 0.59833 0.68035 0.63744 0.0
C1354 C 0.58328 0.6756 0.63427 0.0
C1355 C 0.57816 0.68421 0.61158 0.0
C1356 C 0.58872 0.69809 0.59218 0.0
C1357 C 0.60417 0.70311 0.59544 0.0
C1358 C 0.60893 0.69401 0.61802 0.0
H1359 H 0.36463 0.43459 0.71959 0.0
H1360 H 0.36813 0.39564 0.75579 0.0
H1361 H 0.34293 0.37934 0.7237 0.0
H1362 H 0.32512 0.4181 0.74913 0.0
H1363 H 0.32133 0.42708 0.69995 0.0
H1364 H 0.33959 0.43586 0.72697 0.0
H1365 H 0.35132 0.43731 0.64334 0.0
H1366 H 0.33308 0.42842 0.61613 0.0
H1367 H 0.345 0.42051 0.60859 0.0
H1368 H 0.31813 0.36722 0.68574 0.0
H1369 H 0.29397 0.35963 0.64755 0.0
H1370 H 0.3057 0.40607 0.63579 0.0
C1371 C 0.36001 0.42263 0.72117 0.0
C1372 C 0.36833 0.41638 0.74023 0.0
C1373 C 0.36196 0.40068 0.74141 0.0
C1374 C 0.34766 0.39131 0.72319 0.0
C1375 C 0.33984 0.39778 0.704 0.0
C1376 C 0.34566 0.41304 0.70311 0.0
C1377 C 0.33477 0.41698 0.68007 0.0
C1378 C 0.32992 0.42498 0.71619 0.0
C1379 C 0.34145 0.42636 0.63431 0.0
C1380 C 0.322 0.40153 0.66803 0.0
C1381 C 0.32526 0.39068 0.68211 0.0
C1382 C 0.3154 0.37559 0.67471 0.0
C1383 C 0.3017 0.3714 0.65284 0.0
C1384 C 0.29794 0.38226 0.6387 0.0
C1385 C 0.30829 0.39754 0.64616 0.0
H1386 H 0.62124 0.92537 0.63965 0.0
H1387 H 0.58462 0.8798 0.63037 0.0
H1388 H 0.56726 0.88797 0.6599 0.0
H1389 H 0.6099 0.935 0.74755 0.0
H1390 H 0.61573 0.95381 0.72896 0.0
H1391 H 0.62506 0.94443 0.70547 0.0
H1392 H 0.61945 0.94911 0.61823 0.0
H1393 H 0.61028 0.95868 0.64143 0.0
H1394 H 0.6005 0.94314 0.60098 0.0
H1395 H 0.55419 0.90129 0.69387 0.0
H1396 H 0.54625 0.91882 0.72335 0.0
H1397 H 0.59171 0.9554 0.70933 0.0
C1398 C 0.60954 0.91711 0.64335 0.0
C1399 C 0.60424 0.90196 0.6327 0.0
C1400 C 0.58887 0.89149 0.63812 0.0
C1401 C 0.57897 0.89602 0.65507 0.0
C1402 C 0.58464 0.91104 0.66616 0.0
C1403 C 0.59956 0.92143 0.66 0.0
C1404 C 0.60294 0.93688 0.67448 0.0
C1405 C 0.61406 0.94287 0.71662 0.0
C1406 C 0.60862 0.94758 0.6312 0.0
C1407 C 0.58761 0.93359 0.69001 0.0
C1408 C 0.57718 0.91863 0.6852 0.0
C1409 C 0.56226 0.91303 0.69761 0.0
C1410 C 0.55787 0.92304 0.71454 0.0
C1411 C 0.56837 0.93844 0.71865 0.0
C1412 C 0.58343 0.94368 0.70664 0.0
H1413 H 0.07218 0.63745 0.71147 0.0
H1414 H 0.02543 0.62501 0.70663 0.0
H1415 H 0.03207 0.64863 0.66644 0.0
H1416 H 0.08583 0.67615 0.73829 0.0
H1417 H 0.10245 0.68295 0.70219 0.0
H1418 H 0.09408 0.66462 0.72848 0.0
H1419 H 0.09241 0.6533 0.64396 0.0
H1420 H 0.10063 0.67161 0.61737 0.0
H1421 H 0.08285 0.65692 0.59621 0.0
H1422 H 0.04319 0.67321 0.6282 0.0
H1423 H 0.05872 0.69908 0.60049 0.0
H1424 H 0.09866 0.69678 0.63088 0.0
C1425 C 0.06339 0.63973 0.70184 0.0
C1426 C 0.04829 0.62937 0.71213 0.0
C1427 C 0.03708 0.63278 0.69931 0.0
C1428 C 0.04071 0.64613 0.67611 0.0
C1429 C 0.05562 0.65606 0.66614 0.0
C1430 C 0.06684 0.65319 0.67898 0.0
C1431 C 0.08203 0.6663 0.66614 0.0
C1432 C 0.09166 0.67289 0.71148 0.0
C1433 C 0.08994 0.66175 0.62869 0.0
C1434 C 0.07751 0.67695 0.64466 0.0
C1435 C 0.06219 0.67065 0.64452 0.0
C1436 C 0.05521 0.67829 0.62792 0.0
C1437 C 0.06414 0.69298 0.61219 0.0
C1438 C 0.07988 0.69991 0.61341 0.0
C1439 C 0.08665 0.69168 0.62897 0.0
H1440 H 0.11527 0.35863 0.73359 0.0
H1441 H 0.09678 0.31787 0.64979 0.0
H1442 H 0.09089 0.3032 0.72512 0.0
H1443 H 0.13139 0.34729 0.83003 0.0
H1444 H 0.12654 0.35639 0.87606 0.0
H1445 H 0.13026 0.36367 0.8156 0.0
H1446 H 0.10443 0.36194 0.81279 0.0
H1447 H 0.10062 0.35465 0.87316 0.0
H1448 H 0.08788 0.34435 0.82516 0.0
H1449 H 0.08622 0.29302 0.80952 0.0
H1450 H 0.0822 0.28787 0.89657 0.0
H1451 H 0.10317 0.33533 0.92536 0.0
C1452 C 0.11017 0.34663 0.73104 0.0
C1453 C 0.10658 0.33936 0.68587 0.0
C1454 C 0.09967 0.32364 0.68404 0.0
C1455 C 0.09633 0.31524 0.7266 0.0
C1456 C 0.0999 0.32275 0.77057 0.0
C1457 C 0.10664 0.33809 0.77308 0.0
C1458 C 0.10858 0.34341 0.8248 0.0
C1459 C 0.12518 0.35327 0.83735 0.0
C1460 C 0.09985 0.35157 0.83453 0.0
C1461 C 0.10177 0.32864 0.85112 0.0
C1462 C 0.09695 0.31688 0.81917 0.0
C1463 C 0.09 0.30214 0.83484 0.0
C1464 C 0.08778 0.29934 0.8844 0.0
C1465 C 0.0924 0.3112 0.91776 0.0
C1466 C 0.0996 0.32604 0.90077 0.0
H1467 H 0.66311 0.76261 0.92788 0.0
H1468 H 0.70909 0.79641 0.89975 0.0
H1469 H 0.704 0.79407 0.81283 0.0
H1470 H 0.6588 0.73942 0.8283 0.0
H1471 H 0.63992 0.73469 0.81449 0.0
H1472 H 0.64677 0.7394 0.87525 0.0
H1473 H 0.63981 0.76019 0.87687 0.0
H1474 H 0.63281 0.75544 0.81623 0.0
H1475 H 0.64689 0.77429 0.83061 0.0
H1476 H 0.69482 0.78671 0.72901 0.0
H1477 H 0.68115 0.77645 0.65284 0.0
H1478 H 0.64072 0.74839 0.73355 0.0
C1479 C 0.67202 0.76967 0.90342 0.0
C1480 C 0.6865 0.77969 0.92073 0.0
C1481 C 0.69789 0.78867 0.8875 0.0
C1482 C 0.69514 0.78741 0.83793 0.0
C1483 C 0.68088 0.77724 0.82192 0.0
C1484 C 0.66942 0.76867 0.85352 0.0
C1485 C 0.65515 0.75853 0.82633 0.0
C1486 C 0.64985 0.74203 0.83672 0.0
C1487 C 0.64294 0.76235 0.83822 0.0
C1488 C 0.66049 0.7626 0.77472 0.0
C1489 C 0.67541 0.77335 0.77312 0.0
C1490 C 0.68308 0.77843 0.72971 0.0
C1491 C 0.67525 0.7725 0.68667 0.0
C1492 C 0.65989 0.76174 0.68735 0.0
C1493 C 0.65244 0.75675 0.73201 0.0
H1494 H 0.22143 0.89791 0.91723 0.0
H1495 H 0.26675 0.92938 0.96091 0.0
H1496 H 0.2755 0.92945 0.87793 0.0
H1497 H 0.23116 0.87645 0.83697 0.0
H1498 H 0.2167 0.87313 0.79432 0.0
H1499 H 0.21422 0.87564 0.8571 0.0
H1500 H 0.20927 0.89708 0.83477 0.0
H1501 H 0.21197 0.89479 0.77197 0.0
H1502 H 0.22298 0.91271 0.80034 0.0
H1503 H 0.27901 0.92693 0.78902 0.0
H1504 H 0.2776 0.9196 0.70364 0.0
H1505 H 0.23011 0.889 0.71928 0.0
C1506 C 0.23322 0.90472 0.90941 0.0
C1507 C 0.24343 0.91365 0.94539 0.0
C1508 C 0.25876 0.92238 0.93389 0.0
C1509 C 0.26381 0.92258 0.88681 0.0
C1510 C 0.25339 0.91386 0.85191 0.0
C1511 C 0.23845 0.90489 0.86286 0.0
C1512 C 0.22959 0.89626 0.81918 0.0
C1513 C 0.2225 0.87937 0.82739 0.0
C1514 C 0.21775 0.90047 0.80579 0.0
C1515 C 0.24185 0.90181 0.7818 0.0
C1516 C 0.25547 0.91209 0.80123 0.0
C1517 C 0.26842 0.91885 0.77349 0.0
C1518 C 0.26748 0.91471 0.72495 0.0
C1519 C 0.25374 0.90378 0.70486 0.0
C1520 C 0.24076 0.89742 0.73363 0.0
H1521 H 0.32832 0.09585 0.05375 0.0
H1522 H 0.2811 0.07693 0.08323 0.0
H1523 H 0.2863 0.07968 0.17038 0.0
H1524 H 0.33634 0.0788 0.15242 0.0
H1525 H 0.35432 0.09478 0.16516 0.0
H1526 H 0.34696 0.09159 0.10488 0.0
H1527 H 0.3499 0.11795 0.10366 0.0
H1528 H 0.35729 0.12123 0.16396 0.0
H1529 H 0.34133 0.12319 0.1504 0.0
H1530 H 0.29641 0.08341 0.25451 0.0
H1531 H 0.31103 0.08886 0.32977 0.0
H1532 H 0.35171 0.10621 0.24593 0.0
C1533 C 0.3191 0.09236 0.07858 0.0
C1534 C 0.30431 0.08617 0.0617 0.0
C1535 C 0.29253 0.08173 0.09531 0.0
C1536 C 0.29536 0.08323 0.14492 0.0
C1537 C 0.31005 0.08931 0.16045 0.0
C1538 C 0.32174 0.0939 0.12835 0.0
C1539 C 0.33648 0.10004 0.15465 0.0
C1540 C 0.34396 0.09075 0.14362 0.0
C1541 C 0.34686 0.11659 0.14244 0.0
C1542 C 0.33121 0.09806 0.20644 0.0
C1543 C 0.31591 0.0918 0.20901 0.0
C1544 C 0.30842 0.08844 0.25299 0.0
C1545 C 0.31679 0.09155 0.29551 0.0
C1546 C 0.33248 0.09806 0.29366 0.0
C1547 C 0.33974 0.1014 0.24848 0.0
H1548 H 0.88239 0.2498 0.27571 0.0
H1549 H 0.90851 0.2361 0.36143 0.0
H1550 H 0.91667 0.22911 0.28703 0.0
H1551 H 0.87019 0.22105 0.18604 0.0
H1552 H 0.87167 0.23312 0.137 0.0
H1553 H 0.86777 0.23687 0.19696 0.0
H1554 H 0.89069 0.26353 0.19265 0.0
H1555 H 0.89465 0.25987 0.13267 0.0
H1556 H 0.90877 0.26594 0.17871 0.0
H1557 H 0.92159 0.22325 0.20349 0.0
H1558 H 0.92386 0.21987 0.11661 0.0
H1559 H 0.89513 0.23814 0.08496 0.0
C1560 C 0.8898 0.24529 0.27885 0.0
C1561 C 0.89478 0.24342 0.32434 0.0
C1562 C 0.90456 0.23761 0.32694 0.0
C1563 C 0.90923 0.23359 0.28491 0.0
C1564 C 0.90409 0.23556 0.24063 0.0
C1565 C 0.89466 0.24136 0.2373 0.0
C1566 C 0.89097 0.24261 0.18529 0.0
C1567 C 0.87415 0.23282 0.17578 0.0
C1568 C 0.89661 0.25896 0.17153 0.0
C1569 C 0.89976 0.23655 0.1598 0.0
C1570 C 0.90718 0.23249 0.19244 0.0
C1571 C 0.91587 0.22644 0.17763 0.0
C1572 C 0.91707 0.22454 0.12818 0.0
C1573 C 0.90969 0.22876 0.09403 0.0
C1574 C 0.90093 0.23485 0.1102 0.0
H1575 H 0.74557 0.63206 0.26425 0.0
H1576 H 0.76247 0.67246 0.34926 0.0
H1577 H 0.76872 0.68737 0.27436 0.0
H1578 H 0.77262 0.64697 0.17004 0.0
H1579 H 0.75949 0.6366 0.12298 0.0
H1580 H 0.75638 0.62921 0.18322 0.0
H1581 H 0.7303 0.62696 0.18394 0.0
H1582 H 0.73333 0.63435 0.1237 0.0
H1583 H 0.72871 0.64318 0.17127 0.0
H1584 H 0.77395 0.69783 0.19019 0.0
H1585 H 0.77681 0.7031 0.10291 0.0
H1586 H 0.75541 0.65569 0.07304 0.0
C1587 C 0.75061 0.64405 0.26712 0.0
C1588 C 0.75364 0.65115 0.31246 0.0
C1589 C 0.76009 0.66683 0.3148 0.0
C1590 C 0.76367 0.67537 0.27251 0.0
C1591 C 0.76056 0.66801 0.22833 0.0
C1592 C 0.75407 0.65269 0.22537 0.0
C1593 C 0.75171 0.64748 0.17351 0.0
C1594 C 0.76058 0.6396 0.16176 0.0
C1595 C 0.73502 0.6374 0.16247 0.0
C1596 C 0.75805 0.66228 0.14764 0.0
C1597 C 0.76315 0.67398 0.17992 0.0
C1598 C 0.7699 0.68875 0.1646 0.0
C1599 C 0.7715 0.69163 0.11499 0.0
C1600 C 0.76626 0.67979 0.08132 0.0
C1601 C 0.75938 0.66494 0.09798 0.0
H1602 H 0.89933 0.67974 0.08346 0.0
H1603 H 0.94328 0.68554 0.05913 0.0
H1604 H 0.94415 0.67858 0.14386 0.0
H1605 H 0.90483 0.69322 0.20516 0.0
H1606 H 0.88646 0.67939 0.22502 0.0
H1607 H 0.88952 0.68539 0.16312 0.0
H1608 H 0.87861 0.65804 0.13488 0.0
H1609 H 0.87536 0.65194 0.19664 0.0
H1610 H 0.88632 0.64709 0.15826 0.0
H1611 H 0.94053 0.67192 0.23209 0.0
H1612 H 0.93126 0.66238 0.31393 0.0
H1613 H 0.88888 0.65904 0.27868 0.0
C1614 C 0.90912 0.67953 0.09608 0.0
C1615 C 0.92128 0.68324 0.06508 0.0
C1616 C 0.93384 0.68268 0.08244 0.0
C1617 C 0.93447 0.67885 0.13051 0.0
C1618 C 0.92234 0.6754 0.16039 0.0
C1619 C 0.90978 0.67541 0.1436 0.0
C1620 C 0.89791 0.6704 0.18224 0.0
C1621 C 0.89448 0.68284 0.19461 0.0
C1622 C 0.88371 0.65601 0.1671 0.0
C1623 C 0.90577 0.66759 0.22346 0.0
C1624 C 0.91995 0.67081 0.21039 0.0
C1625 C 0.92941 0.66929 0.24265 0.0
C1626 C 0.9241 0.66397 0.28911 0.0
C1627 C 0.90937 0.65999 0.30248 0.0
C1628 C 0.90019 0.662 0.26934 0.0
H1629 H 0.34161 0.24177 0.04605 0.0
H1630 H 0.29477 0.21065 0.07349 0.0
H1631 H 0.30007 0.21082 0.15978 0.0
H1632 H 0.35605 0.22614 0.13544 0.0
H1633 H 0.3713 0.24408 0.15298 0.0
H1634 H 0.36402 0.24123 0.09258 0.0
H1635 H 0.35946 0.2635 0.10267 0.0
H1636 H 0.36668 0.26639 0.16311 0.0
H1637 H 0.34829 0.26359 0.15231 0.0
H1638 H 0.3099 0.21522 0.2435 0.0
H1639 H 0.32412 0.22296 0.31966 0.0
H1640 H 0.36477 0.25062 0.23936 0.0
C1641 C 0.33253 0.2349 0.07021 0.0
C1642 C 0.31778 0.2262 0.05289 0.0
C1643 C 0.30617 0.21741 0.08575 0.0
C1644 C 0.30905 0.21742 0.13495 0.0
C1645 C 0.32363 0.2262 0.151 0.0
C1646 C 0.33522 0.23471 0.11975 0.0
C1647 C 0.34983 0.24328 0.14694 0.0
C1648 C 0.36096 0.23839 0.13103 0.0
C1649 C 0.35645 0.26019 0.14089 0.0
C1650 C 0.34455 0.23837 0.19819 0.0
C1651 C 0.32938 0.22852 0.19963 0.0
C1652 C 0.32181 0.22282 0.24289 0.0
C1653 C 0.32997 0.22729 0.28595 0.0
C1654 C 0.34553 0.23729 0.2854 0.0
C1655 C 0.35289 0.24283 0.24085 0.0
H1656 H 0.77159 0.08039 0.07856 0.0
H1657 H 0.75148 0.10068 0.9926 0.0
H1658 H 0.74386 0.10818 0.06713 0.0
H1659 H 0.74349 0.06573 0.17077 0.0
H1660 H 0.75656 0.06924 0.21877 0.0
H1661 H 0.76058 0.0657 0.15873 0.0
H1662 H 0.78568 0.09064 0.16009 0.0
H1663 H 0.78174 0.09428 0.22012 0.0
H1664 H 0.78576 0.10774 0.17299 0.0
H1665 H 0.7387 0.11362 0.15088 0.0
H1666 H 0.73567 0.11608 0.23788 0.0
H1667 H 0.75874 0.09175 0.26927 0.0
C1668 C 0.76561 0.08644 0.07538 0.0
C1669 C 0.76215 0.09001 0.02984 0.0
C1670 C 0.75423 0.09785 0.02717 0.0
C1671 C 0.74988 0.10216 0.06926 0.0
C1672 C 0.75349 0.09846 0.1136 0.0
C1673 C 0.76112 0.09073 0.11695 0.0
C1674 C 0.76344 0.08796 0.16896 0.0
C1675 C 0.75555 0.07116 0.17994 0.0
C1676 C 0.78015 0.09562 0.18125 0.0
C1677 C 0.75595 0.09538 0.19446 0.0
C1678 C 0.75033 0.10141 0.16185 0.0
C1679 C 0.74303 0.10892 0.17673 0.0
C1680 C 0.74139 0.11027 0.22623 0.0
C1681 C 0.74696 0.1041 0.26031 0.0
C1682 C 0.75434 0.09656 0.24407 0.0
H1683 H 0.66979 0.90602 0.74519 0.0
H1684 H 0.62355 0.87268 0.77133 0.0
H1685 H 0.62858 0.87403 0.85852 0.0
H1686 H 0.6854 0.89271 0.83673 0.0
H1687 H 0.69988 0.91117 0.85333 0.0
H1688 H 0.69266 0.90751 0.79281 0.0
H1689 H 0.68636 0.9287 0.80027 0.0
H1690 H 0.69352 0.93239 0.86084 0.0
H1691 H 0.67473 0.92834 0.84917 0.0
H1692 H 0.63832 0.87989 0.94344 0.0
H1693 H 0.65261 0.88879 0.01949 0.0
H1694 H 0.69264 0.91738 0.93779 0.0
C1695 C 0.66075 0.89897 0.76928 0.0
C1696 C 0.64628 0.88926 0.75151 0.0
C1697 C 0.63475 0.88018 0.78414 0.0
C1698 C 0.63747 0.88088 0.83376 0.0
C1699 C 0.65183 0.89062 0.85021 0.0
C1700 C 0.66332 0.8994 0.81897 0.0
C1701 C 0.67775 0.90885 0.84603 0.0
C1702 C 0.68962 0.90481 0.83135 0.0
C1703 C 0.68342 0.92556 0.83863 0.0
C1704 C 0.67254 0.90409 0.8973 0.0
C1705 C 0.65753 0.89364 0.899 0.0
C1706 C 0.65011 0.88797 0.94256 0.0
C1707 C 0.65829 0.8931 0.98552 0.0
C1708 C 0.67372 0.90365 0.98444 0.0
C1709 C 0.68088 0.90916 0.93968 0.0
H1710 H 0.09244 0.76804 0.73767 0.0
H1711 H 0.10628 0.73553 0.76588 0.0
H1712 H 0.10272 0.73725 0.85296 0.0
H1713 H 0.1108 0.79117 0.84077 0.0
H1714 H 0.09626 0.79551 0.85218 0.0
H1715 H 0.09951 0.79146 0.79182 0.0
H1716 H 0.07187 0.77051 0.78547 0.0
H1717 H 0.06855 0.7745 0.84584 0.0
H1718 H 0.06428 0.7559 0.83003 0.0
H1719 H 0.09709 0.74199 0.93685 0.0
H1720 H 0.09119 0.75066 0.01232 0.0
H1721 H 0.0822 0.78093 0.93008 0.0
C1722 C 0.09469 0.76128 0.76222 0.0
C1723 C 0.09959 0.75163 0.74507 0.0
C1724 C 0.10254 0.74303 0.77828 0.0
C1725 C 0.10052 0.74389 0.8278 0.0
C1726 C 0.09567 0.7535 0.84362 0.0
C1727 C 0.0929 0.76214 0.81193 0.0
C1728 C 0.08816 0.77185 0.83856 0.0
C1729 C 0.09936 0.78848 0.83035 0.0
C1730 C 0.07227 0.76795 0.82411 0.0
C1731 C 0.08867 0.76729 0.89005 0.0
C1732 C 0.0929 0.7566 0.89216 0.0
C1733 C 0.09385 0.75043 0.93572 0.0
C1734 C 0.09046 0.75539 0.97834 0.0
C1735 C 0.08635 0.76652 0.97699 0.0
C1736 C 0.08545 0.7725 0.93221 0.0
H1737 H 0.22404 0.30638 0.91316 0.0
H1738 H 0.22588 0.34366 0.99049 0.0
H1739 H 0.22867 0.35672 0.91348 0.0
H1740 H 0.25201 0.32823 0.82837 0.0
H1741 H 0.24331 0.31564 0.77857 0.0
H1742 H 0.24001 0.30856 0.8392 0.0
H1743 H 0.21153 0.2967 0.82613 0.0
H1744 H 0.21476 0.30379 0.76541 0.0
H1745 H 0.20406 0.30823 0.80642 0.0
H1746 H 0.23249 0.36623 0.82978 0.0
H1747 H 0.23861 0.37247 0.7443 0.0
H1748 H 0.23501 0.32938 0.71986 0.0
C1749 C 0.22481 0.3172 0.91373 0.0
C1750 C 0.22464 0.324 0.95768 0.0
C1751 C 0.22596 0.33827 0.95719 0.0
C1752 C 0.22748 0.34573 0.91365 0.0
C1753 C 0.22771 0.33878 0.87097 0.0
C1754 C 0.2265 0.32488 0.87055 0.0
C1755 C 0.22815 0.32041 0.81988 0.0
C1756 C 0.24168 0.31808 0.81632 0.0
C1757 C 0.21377 0.30646 0.8035 0.0
C1758 C 0.23073 0.33409 0.79201 0.0
C1759 C 0.23023 0.34444 0.82227 0.0
C1760 C 0.23282 0.35819 0.80566 0.0
C1761 C 0.2363 0.36163 0.757 0.0
C1762 C 0.23725 0.35139 0.7254 0.0
C1763 C 0.23418 0.33734 0.74304 0.0
H1764 H 0.99835 0.42796 0.59724 0.0
H1765 H 0.0447 0.44161 0.56984 0.0
H1766 H 0.03918 0.43645 0.48329 0.0
H1767 H 0.98219 0.39818 0.50994 0.0
H1768 H 0.96774 0.40206 0.49211 0.0
H1769 H 0.97523 0.40643 0.55225 0.0
H1770 H 0.98176 0.43388 0.54054 0.0
H1771 H 0.97426 0.42958 0.48044 0.0
H1772 H 0.99316 0.44436 0.49013 0.0
H1773 H 0.02856 0.42941 0.39975 0.0
H1774 H 0.01382 0.42257 0.32439 0.0
H1775 H 0.97472 0.41459 0.40568 0.0
C1776 C 0.00731 0.42983 0.57299 0.0
C1777 C 0.02194 0.43515 0.5902 0.0
C1778 C 0.03341 0.43757 0.55737 0.0
C1779 C 0.03038 0.43462 0.50817 0.0
C1780 C 0.01584 0.42937 0.49228 0.0
C1781 C 0.00451 0.42711 0.52359 0.0
C1782 C 0.98997 0.42185 0.49693 0.0
C1783 C 0.97808 0.4062 0.51382 0.0
C1784 C 0.98447 0.43309 0.50233 0.0
C1785 C 0.99491 0.42153 0.44582 0.0
C1786 C 0.00984 0.42576 0.44395 0.0
C1787 C 0.01687 0.42613 0.40071 0.0
C1788 C 0.00842 0.42221 0.35815 0.0
C1789 C 0.99319 0.41814 0.35924 0.0
C1790 C 0.98639 0.41776 0.40373 0.0
H1791 H 0.56114 0.55809 0.4096 0.0
H1792 H 0.60666 0.59443 0.3951 0.0
H1793 H 0.6068 0.60077 0.48104 0.0
H1794 H 0.54918 0.5781 0.48696 0.0
H1795 H 0.5368 0.56186 0.52174 0.0
H1796 H 0.54064 0.55986 0.45983 0.0
H1797 H 0.54922 0.54129 0.48582 0.0
H1798 H 0.5456 0.5434 0.54791 0.0
H1799 H 0.56382 0.54694 0.53004 0.0
H1800 H 0.60226 0.60246 0.56926 0.0
H1801 H 0.59215 0.60199 0.65029 0.0
H1802 H 0.54895 0.56588 0.60548 0.0
C1803 C 0.57111 0.56739 0.42461 0.0
C1804 C 0.58392 0.57575 0.39603 0.0
C1805 C 0.59672 0.58795 0.41652 0.0
C1806 C 0.59694 0.59154 0.46531 0.0
C1807 C 0.58418 0.58297 0.49276 0.0
C1808 C 0.5714 0.57134 0.47294 0.0
C1809 C 0.55889 0.56448 0.50954 0.0
C1810 C 0.5456 0.56619 0.49356 0.0
C1811 C 0.55411 0.54805 0.51887 0.0
C1812 C 0.56665 0.57407 0.55304 0.0
C1813 C 0.58131 0.58446 0.54287 0.0
C1814 C 0.59078 0.59442 0.57758 0.0
C1815 C 0.58497 0.594 0.62355 0.0
C1816 C 0.5698 0.5839 0.63396 0.0
C1817 C 0.5606 0.57371 0.59838 0.0
H1818 H 0.42184 0.99797 0.61169 0.0
H1819 H 0.41996 0.95555 0.58953 0.0
H1820 H 0.42537 0.96128 0.50364 0.0
H1821 H 0.40478 0.99849 0.49969 0.0
H1822 H 0.41667 0.0182 0.48958 0.0
H1823 H 0.41281 0.01099 0.55008 0.0
H1824 H 0.44114 0.02317 0.56672 0.0
H1825 H 0.44508 0.03041 0.50622 0.0
H1826 H 0.45249 0.019 0.52772 0.0
H1827 H 0.42981 0.97075 0.41969 0.0
H1828 H 0.4341 0.98418 0.34254 0.0
H1829 H 0.43433 0.02102 0.41773 0.0
C1830 C 0.42262 0.98994 0.5887 0.0
C1831 C 0.42046 0.97631 0.60745 0.0
C1832 C 0.4216 0.9661 0.57619 0.0
C1833 C 0.42466 0.96922 0.5272 0.0
C1834 C 0.42671 0.98269 0.50977 0.0
C1835 C 0.42585 0.99297 0.53941 0.0
C1836 C 0.4286 0.00662 0.51094 0.0
C1837 C 0.4149 0.00869 0.51268 0.0
C1838 C 0.44267 0.02063 0.52898 0.0
C1839 C 0.43092 0.00227 0.46083 0.0
C1840 C 0.42973 0.98839 0.46107 0.0
C1841 C 0.43091 0.9817 0.41901 0.0
C1842 C 0.43332 0.98939 0.37539 0.0
C1843 C 0.43467 0.00366 0.37423 0.0
C1844 C 0.43354 0.0102 0.41763 0.0
H1845 H 0.56938 0.00348 0.60514 0.0
H1846 H 0.53879 0.95632 0.58198 0.0
H1847 H 0.53817 0.96092 0.49516 0.0
H1848 H 0.55224 0.01656 0.5185 0.0
H1849 H 0.56974 0.03208 0.49888 0.0
H1850 H 0.56782 0.02511 0.55943 0.0
H1851 H 0.59046 0.02127 0.54629 0.0
H1852 H 0.59246 0.02826 0.48578 0.0
H1853 H 0.59036 0.01013 0.49627 0.0
H1854 H 0.54178 0.97043 0.41005 0.0
H1855 H 0.54868 0.98451 0.33329 0.0
H1856 H 0.57574 0.02555 0.41225 0.0
C1857 C 0.56255 0.99415 0.58176 0.0
C1858 C 0.55416 0.97954 0.60029 0.0
C1859 C 0.54529 0.96762 0.56859 0.0
C1860 C 0.54487 0.97011 0.51918 0.0
C1861 C 0.55325 0.98462 0.50198 0.0
C1862 C 0.56184 0.99647 0.53228 0.0
C1863 C 0.56972 0.01098 0.50448 0.0
C1864 C 0.56457 0.02182 0.52133 0.0
C1865 C 0.58676 0.01807 0.50844 0.0
C1866 C 0.56432 0.0054 0.4539 0.0
C1867 C 0.55488 0.99016 0.45315 0.0
C1868 C 0.54902 0.9824 0.41021 0.0
C1869 C 0.55299 0.99046 0.36684 0.0
C1870 C 0.56256 0.0061 0.36694 0.0
C1871 C 0.56817 0.01362 0.41114 0.0
H1872 H 0.00292 0.57286 0.39894 0.0
H1873 H 0.9561 0.54172 0.42616 0.0
H1874 H 0.96111 0.54344 0.51348 0.0
H1875 H 0.01712 0.55867 0.4904 0.0
H1876 H 0.03239 0.57676 0.50651 0.0
H1877 H 0.02506 0.57337 0.44617 0.0
H1878 H 0.02044 0.5957 0.45333 0.0
H1879 H 0.02778 0.59916 0.51369 0.0
H1880 H 0.00937 0.59626 0.50248 0.0
H1881 H 0.97114 0.5489 0.59808 0.0
H1882 H 0.98579 0.55697 0.67362 0.0
H1883 H 0.0261 0.58367 0.5907 0.0
C1884 C 0.99373 0.56644 0.42332 0.0
C1885 C 0.97913 0.55719 0.40589 0.0
C1886 C 0.9674 0.54886 0.43882 0.0
C1887 C 0.97012 0.54978 0.48846 0.0
C1888 C 0.98465 0.55898 0.50455 0.0
C1889 C 0.99628 0.5671 0.47299 0.0
C1890 C 0.01091 0.5759 0.49958 0.0
C1891 C 0.02202 0.57087 0.48478 0.0
C1892 C 0.01751 0.59275 0.49181 0.0
C1893 C 0.00567 0.57147 0.55095 0.0
C1894 C 0.99047 0.56179 0.55313 0.0
C1895 C 0.98307 0.55642 0.59685 0.0
C1896 C 0.99145 0.56105 0.63949 0.0
C1897 C 0.00705 0.57083 0.63788 0.0
C1898 C 0.0142 0.57606 0.59299 0.0
H1899 H 0.42763 0.42703 0.41477 0.0
H1900 H 0.46062 0.4138 0.44272 0.0
H1901 H 0.45824 0.41649 0.53003 0.0
H1902 H 0.44006 0.45498 0.50789 0.0
H1903 H 0.42151 0.45103 0.52312 0.0
H1904 H 0.42559 0.44778 0.46279 0.0
H1905 H 0.40423 0.42029 0.4681 0.0
H1906 H 0.4001 0.42346 0.52848 0.0
H1907 H 0.40412 0.40871 0.51674 0.0
H1908 H 0.45185 0.42002 0.61452 0.0
H1909 H 0.44285 0.42558 0.68997 0.0
H1910 H 0.41487 0.43748 0.60669 0.0
C1911 C 0.43433 0.42469 0.43931 0.0
C1912 C 0.44427 0.42017 0.42206 0.0
C1913 C 0.45294 0.41731 0.45521 0.0
C1914 C 0.45165 0.41876 0.50486 0.0
C1915 C 0.44173 0.42321 0.52077 0.0
C1916 C 0.43331 0.42626 0.48902 0.0
C1917 C 0.42373 0.43118 0.5155 0.0
C1918 C 0.42798 0.44719 0.50149 0.0
C1919 C 0.40706 0.42025 0.50668 0.0
C1920 C 0.42806 0.43038 0.56703 0.0
C1921 C 0.43837 0.42566 0.56936 0.0
C1922 C 0.44382 0.42381 0.61318 0.0
C1923 C 0.43864 0.42696 0.65579 0.0
C1924 C 0.42825 0.43203 0.65407 0.0
C1925 C 0.42291 0.43373 0.60907 0.0
H1926 H 0.07949 0.30649 0.23569 0.0
H1927 H 0.09543 0.34685 0.15101 0.0
H1928 H 0.10083 0.36159 0.22587 0.0
H1929 H 0.06246 0.31671 0.3326 0.0
H1930 H 0.06822 0.30841 0.37873 0.0
H1931 H 0.06466 0.30092 0.31854 0.0
H1932 H 0.09118 0.3043 0.315 0.0
H1933 H 0.09482 0.31178 0.37512 0.0
H1934 H 0.10712 0.32241 0.3266 0.0
H1935 H 0.10543 0.37204 0.30989 0.0
H1936 H 0.10969 0.37759 0.39677 0.0
H1937 H 0.09119 0.33047 0.42694 0.0
C1938 C 0.08394 0.31841 0.23289 0.0
C1939 C 0.08696 0.32553 0.18752 0.0
C1940 C 0.093 0.34117 0.18538 0.0
C1941 C 0.09607 0.34962 0.2277 0.0
C1942 C 0.09307 0.34227 0.27187 0.0
C1943 C 0.08718 0.32702 0.27478 0.0
C1944 C 0.08571 0.32195 0.32671 0.0
C1945 C 0.06928 0.31137 0.33991 0.0
C1946 C 0.09528 0.31469 0.33641 0.0
C1947 C 0.09185 0.33676 0.35258 0.0
C1948 C 0.09591 0.34832 0.32029 0.0
C1949 C 0.10222 0.36307 0.33551 0.0
C1950 C 0.10458 0.3661 0.38496 0.0
C1951 C 0.10073 0.35447 0.41866 0.0
C1952 C 0.09415 0.33959 0.40211 0.0
H1953 H 0.63812 0.74578 0.38235 0.0
H1954 H 0.67209 0.74049 0.45632 0.0
H1955 H 0.68514 0.74355 0.37911 0.0
H1956 H 0.63822 0.727 0.26854 0.0
H1957 H 0.63574 0.73998 0.23198 0.0
H1958 H 0.62812 0.73562 0.29199 0.0
H1959 H 0.64242 0.76371 0.31358 0.0
H1960 H 0.65013 0.76816 0.25382 0.0
H1961 H 0.66235 0.77428 0.30535 0.0
H1962 H 0.69583 0.74974 0.2962 0.0
H1963 H 0.70337 0.7583 0.21273 0.0
H1964 H 0.66249 0.7595 0.19121 0.0
C1965 C 0.6481 0.7449 0.38209 0.0
C1966 C 0.65403 0.74277 0.42533 0.0
C1967 C 0.6673 0.74202 0.42365 0.0
C1968 C 0.67478 0.74373 0.37993 0.0
C1969 C 0.66883 0.74614 0.33813 0.0
C1970 C 0.65575 0.74665 0.33871 0.0
C1971 C 0.65232 0.75044 0.28924 0.0
C1972 C 0.63774 0.73749 0.26926 0.0
C1973 C 0.65178 0.76501 0.2906 0.0
C1974 C 0.66571 0.75234 0.26103 0.0
C1975 C 0.67502 0.74969 0.28994 0.0
C1976 C 0.68853 0.75162 0.27305 0.0
C1977 C 0.69273 0.75653 0.22559 0.0
C1978 C 0.68347 0.75945 0.19535 0.0
C1979 C 0.66967 0.7571 0.21321 0.0
H1980 H 0.2495 0.90649 0.20943 0.0
H1981 H 0.23822 0.94077 0.23935 0.0
H1982 H 0.24311 0.93958 0.32584 0.0
H1983 H 0.23155 0.88453 0.31028 0.0
H1984 H 0.24515 0.87889 0.3216 0.0
H1985 H 0.24257 0.88367 0.26148 0.0
H1986 H 0.27066 0.90343 0.25642 0.0
H1987 H 0.27336 0.89864 0.31653 0.0
H1988 H 0.27889 0.91768 0.302 0.0
H1989 H 0.2473 0.9333 0.40963 0.0
H1990 H 0.25024 0.92221 0.48467 0.0
H1991 H 0.2583 0.89163 0.40059 0.0
C1992 C 0.24841 0.91399 0.23406 0.0
C1993 C 0.24363 0.92384 0.21767 0.0
C1994 C 0.24196 0.93322 0.25113 0.0
C1995 C 0.24474 0.93263 0.3003 0.0
C1996 C 0.24914 0.92259 0.31548 0.0
C1997 C 0.251 0.91345 0.28337 0.0
C1998 C 0.25474 0.90287 0.30943 0.0
C1999 C 0.24279 0.88653 0.30014 0.0
C2000 C 0.27034 0.90584 0.29525 0.0
C2001 C 0.25442 0.9073 0.36123 0.0
C2002 C 0.25132 0.9188 0.3639 0.0
C2003 C 0.24988 0.9244 0.40796 0.0
C2004 C 0.25155 0.91802 0.45039 0.0
C2005 C 0.25455 0.9061 0.44849 0.0
C2006 C 0.25613 0.90081 0.40322 0.0
H2007 H 0.32282 0.08431 0.55228 0.0
H2008 H 0.36912 0.09854 0.58326 0.0
H2009 H 0.36328 0.09466 0.6701 0.0
H2010 H 0.31722 0.10229 0.6506 0.0
H2011 H 0.29834 0.08778 0.66239 0.0
H2012 H 0.30582 0.09035 0.60245 0.0
H2013 H 0.29947 0.06277 0.60039 0.0
H2014 H 0.29188 0.06009 0.66032 0.0
H2015 H 0.30639 0.05581 0.64735 0.0
H2016 H 0.35277 0.09098 0.75412 0.0
H2017 H 0.33826 0.0874 0.8286 0.0
H2018 H 0.29886 0.07556 0.74276 0.0
C2019 C 0.33167 0.08634 0.57726 0.0
C2020 C 0.34641 0.09165 0.56097 0.0
C2021 C 0.35773 0.0944 0.59489 0.0
C2022 C 0.35452 0.09223 0.64431 0.0
C2023 C 0.33994 0.08725 0.65927 0.0
C2024 C 0.32867 0.08426 0.62673 0.0
C2025 C 0.31409 0.07972 0.65234 0.0
C2026 C 0.30855 0.09069 0.64128 0.0
C2027 C 0.30226 0.06364 0.63932 0.0
C2028 C 0.31897 0.08087 0.70434 0.0
C2029 C 0.33389 0.08514 0.70761 0.0
C2030 C 0.34104 0.08748 0.75198 0.0
C2031 C 0.33272 0.08544 0.79409 0.0
C2032 C 0.31743 0.08114 0.79151 0.0
C2033 C 0.3105 0.07873 0.74595 0.0
H2034 H 0.91453 0.22939 0.77344 0.0
H2035 H 0.89843 0.25322 0.86038 0.0
H2036 H 0.89231 0.26231 0.78638 0.0
H2037 H 0.93094 0.257 0.67789 0.0
H2038 H 0.9254 0.24322 0.63092 0.0
H2039 H 0.92907 0.23907 0.69068 0.0
H2040 H 0.90275 0.21562 0.69346 0.0
H2041 H 0.89901 0.21969 0.63374 0.0
H2042 H 0.88661 0.21752 0.68254 0.0
H2043 H 0.88711 0.26807 0.70303 0.0
H2044 H 0.88292 0.26986 0.61637 0.0
H2045 H 0.90247 0.24236 0.58332 0.0
C2046 C 0.90982 0.23661 0.77692 0.0
C2047 C 0.90699 0.24063 0.82272 0.0
C2048 C 0.90071 0.25001 0.82571 0.0
C2049 C 0.89722 0.25525 0.78387 0.0
C2050 C 0.9001 0.25103 0.73928 0.0
C2051 C 0.90626 0.24192 0.73551 0.0
C2052 C 0.90782 0.23868 0.68324 0.0
C2053 C 0.92429 0.24487 0.66991 0.0
C2054 C 0.89849 0.22188 0.67264 0.0
C2055 C 0.90144 0.24728 0.6582 0.0
C2056 C 0.89711 0.25436 0.69121 0.0
C2057 C 0.89054 0.26264 0.67686 0.0
C2058 C 0.8882 0.26359 0.62753 0.0
C2059 C 0.89242 0.25631 0.59305 0.0
C2060 C 0.89925 0.24816 0.60875 0.0
H2061 H 0.7669 0.68401 0.76148 0.0
H2062 H 0.73871 0.64459 0.8464 0.0
H2063 H 0.7294 0.62976 0.77167 0.0
H2064 H 0.74093 0.67541 0.66105 0.0
H2065 H 0.75559 0.68271 0.61666 0.0
H2066 H 0.75927 0.69035 0.67665 0.0
H2067 H 0.78105 0.68494 0.68477 0.0
H2068 H 0.77742 0.67727 0.62492 0.0
H2069 H 0.77757 0.66626 0.67497 0.0
H2070 H 0.72453 0.61893 0.68798 0.0
H2071 H 0.72411 0.61299 0.60162 0.0
H2072 H 0.75514 0.65961 0.57138 0.0
C2073 C 0.75862 0.6723 0.76436 0.0
C2074 C 0.75349 0.66544 0.80974 0.0
C2075 C 0.74275 0.65007 0.812 0.0
C2076 C 0.7374 0.64157 0.76976 0.0
C2077 C 0.74283 0.64864 0.7256 0.0
C2078 C 0.75314 0.66367 0.72262 0.0
C2079 C 0.7576 0.66848 0.67089 0.0
C2080 C 0.75307 0.67991 0.65541 0.0
C2081 C 0.77441 0.67459 0.66348 0.0
C2082 C 0.74838 0.65374 0.64523 0.0
C2083 C 0.73989 0.64244 0.67741 0.0
C2084 C 0.731 0.62772 0.66242 0.0
C2085 C 0.73085 0.62445 0.61333 0.0
C2086 C 0.73951 0.63585 0.57982 0.0
C2087 C 0.74825 0.6507 0.59607 0.0
H2088 H 0.90958 0.67059 0.56184 0.0
H2089 H 0.90455 0.62709 0.59005 0.0
H2090 H 0.91098 0.63394 0.6754 0.0
H2091 H 0.94069 0.69178 0.64497 0.0
H2092 H 0.9338 0.70391 0.66343 0.0
H2093 H 0.92987 0.69602 0.60377 0.0
H2094 H 0.90157 0.68491 0.61884 0.0
H2095 H 0.90541 0.69275 0.67848 0.0
H2096 H 0.89304 0.67303 0.67031 0.0
H2097 H 0.9165 0.64488 0.75845 0.0
H2098 H 0.9205 0.65912 0.83367 0.0
H2099 H 0.92191 0.69552 0.75195 0.0
C2100 C 0.91004 0.66259 0.58586 0.0
C2101 C 0.90664 0.64833 0.56928 0.0
C2102 C 0.90715 0.63809 0.60195 0.0
C2103 C 0.91082 0.64189 0.65048 0.0
C2104 C 0.91395 0.65597 0.66583 0.0
C2105 C 0.91362 0.66618 0.63453 0.0
C2106 C 0.91674 0.68028 0.6608 0.0
C2107 C 0.93113 0.6938 0.64213 0.0
C2108 C 0.90339 0.68289 0.65687 0.0
C2109 C 0.91866 0.67632 0.71182 0.0
C2110 C 0.91711 0.66228 0.71385 0.0
C2111 C 0.91787 0.65594 0.75726 0.0
C2112 C 0.92014 0.66411 0.7998 0.0
C2113 C 0.9216 0.67845 0.79865 0.0
C2114 C 0.921 0.68465 0.75392 0.0
H2115 H 0.34281 0.24435 0.78108 0.0
H2116 H 0.30128 0.24374 0.75302 0.0
H2117 H 0.30856 0.25025 0.66819 0.0
H2118 H 0.36632 0.27514 0.69701 0.0
H2119 H 0.37689 0.2665 0.67823 0.0
H2120 H 0.36922 0.26336 0.73816 0.0
H2121 H 0.3556 0.23484 0.72359 0.0
H2122 H 0.36318 0.23789 0.66366 0.0
H2123 H 0.34329 0.22711 0.6726 0.0
H2124 H 0.31907 0.25459 0.58529 0.0
H2125 H 0.33229 0.25652 0.50932 0.0
H2126 H 0.36717 0.25443 0.58948 0.0
C2127 C 0.33543 0.24593 0.75725 0.0
C2128 C 0.32151 0.24364 0.77376 0.0
C2129 C 0.312 0.24547 0.74125 0.0
C2130 C 0.31606 0.24921 0.69296 0.0
C2131 C 0.32968 0.2511 0.67751 0.0
C2132 C 0.33927 0.24957 0.70859 0.0
C2133 C 0.35279 0.25122 0.68172 0.0
C2134 C 0.36716 0.26487 0.69987 0.0
C2135 C 0.35376 0.23691 0.68563 0.0
C2136 C 0.34912 0.25361 0.6307 0.0
C2137 C 0.33579 0.25361 0.62925 0.0
C2138 C 0.32963 0.2548 0.58601 0.0
C2139 C 0.3372 0.25587 0.54302 0.0
C2140 C 0.35081 0.25576 0.54346 0.0
C2141 C 0.35691 0.2548 0.58805 0.0
H2142 H 0.75461 0.09049 0.76957 0.0
H2143 H 0.77706 0.06565 0.73702 0.0
H2144 H 0.77275 0.06714 0.65021 0.0
H2145 H 0.72641 0.07421 0.67596 0.0
H2146 H 0.72683 0.09147 0.66307 0.0
H2147 H 0.73117 0.08793 0.72272 0.0
H2148 H 0.7566 0.11251 0.71941 0.0
H2149 H 0.75234 0.11612 0.65979 0.0
H2150 H 0.76923 0.11557 0.6704 0.0
H2151 H 0.76664 0.07199 0.56666 0.0
H2152 H 0.75937 0.08007 0.49269 0.0
H2153 H 0.74103 0.10182 0.57985 0.0
C2154 C 0.75852 0.08526 0.7442 0.0
C2155 C 0.76614 0.07791 0.76004 0.0
C2156 C 0.77118 0.07132 0.72569 0.0
C2157 C 0.76877 0.07209 0.67632 0.0
C2158 C 0.7613 0.07949 0.66186 0.0
C2159 C 0.75624 0.08596 0.69478 0.0
C2160 C 0.74889 0.09363 0.66974 0.0
C2161 C 0.73234 0.08637 0.6837 0.0
C2162 C 0.75727 0.11045 0.68047 0.0
C2163 C 0.75071 0.09055 0.61759 0.0
C2164 C 0.75783 0.08233 0.6138 0.0
C2165 C 0.76099 0.07837 0.56921 0.0
C2166 C 0.75683 0.08301 0.5274 0.0
C2167 C 0.74961 0.09153 0.5305 0.0
C2168 C 0.74647 0.09525 0.57629 0.0
H2169 H 0.66406 0.90754 0.24502 0.0
H2170 H 0.71068 0.93882 0.27451 0.0
H2171 H 0.70471 0.93908 0.3605 0.0
H2172 H 0.64833 0.92262 0.33194 0.0
H2173 H 0.63331 0.90443 0.34852 0.0
H2174 H 0.64106 0.90763 0.28871 0.0
H2175 H 0.6464 0.88588 0.29952 0.0
H2176 H 0.63865 0.8826 0.35923 0.0
H2177 H 0.65734 0.88601 0.35022 0.0
H2178 H 0.69391 0.93465 0.44426 0.0
H2179 H 0.6792 0.92544 0.51927 0.0
H2180 H 0.63967 0.8971 0.43505 0.0
C2181 C 0.67298 0.9146 0.26946 0.0
C2182 C 0.68783 0.92322 0.25304 0.0
C2183 C 0.69921 0.93216 0.28627 0.0
C2184 C 0.69592 0.93241 0.33516 0.0
C2185 C 0.68119 0.92368 0.3503 0.0
C2186 C 0.6699 0.91494 0.31842 0.0
C2187 C 0.65514 0.90595 0.34433 0.0
C2188 C 0.64379 0.91043 0.32736 0.0
C2189 C 0.64903 0.88912 0.33795 0.0
C2190 C 0.65994 0.91081 0.39582 0.0
C2191 C 0.67499 0.92112 0.39851 0.0
C2192 C 0.68209 0.9267 0.44254 0.0
C2193 C 0.67365 0.92142 0.48496 0.0
C2194 C 0.65827 0.91065 0.48302 0.0
C2195 C 0.65135 0.90549 0.43772 0.0
H2196 H 0.09532 0.74379 0.42606 0.0
H2197 H 0.07588 0.76461 0.51255 0.0
H2198 H 0.06644 0.77039 0.43862 0.0
H2199 H 0.10775 0.76979 0.33095 0.0
H2200 H 0.10366 0.75623 0.28415 0.0
H2201 H 0.10791 0.75282 0.34401 0.0
H2202 H 0.08292 0.72776 0.34652 0.0
H2203 H 0.07857 0.73112 0.28662 0.0
H2204 H 0.0657 0.7276 0.33524 0.0
H2205 H 0.06076 0.77552 0.35487 0.0
H2206 H 0.0593 0.77965 0.26786 0.0
H2207 H 0.08195 0.75495 0.23614 0.0
C2208 C 0.08893 0.74942 0.42951 0.0
C2209 C 0.0863 0.75373 0.47507 0.0
C2210 C 0.07799 0.76117 0.47803 0.0
C2211 C 0.07256 0.76447 0.43624 0.0
C2212 C 0.07546 0.76017 0.39183 0.0
C2213 C 0.0834 0.75275 0.38821 0.0
C2214 C 0.08553 0.74991 0.33609 0.0
C2215 C 0.1022 0.75765 0.32305 0.0
C2216 C 0.07771 0.7331 0.32551 0.0
C2217 C 0.0778 0.75715 0.31086 0.0
C2218 C 0.07199 0.76293 0.34364 0.0
C2219 C 0.06509 0.77087 0.32889 0.0
C2220 C 0.06431 0.77316 0.27941 0.0
C2221 C 0.07037 0.76749 0.24526 0.0
C2222 C 0.07697 0.75918 0.26133 0.0
H2223 H 0.22382 0.30585 0.26572 0.0
H2224 H 0.25817 0.34329 0.18569 0.0
H2225 H 0.26876 0.35676 0.2617 0.0
H2226 H 0.21766 0.32755 0.35104 0.0
H2227 H 0.21452 0.31531 0.4013 0.0
H2228 H 0.21041 0.30791 0.34109 0.0
H2229 H 0.22775 0.29683 0.35291 0.0
H2230 H 0.23193 0.30422 0.41323 0.0
H2231 H 0.24684 0.30887 0.371 0.0
H2232 H 0.2748 0.3668 0.34471 0.0
H2233 H 0.27549 0.37332 0.43025 0.0
H2234 H 0.23705 0.32973 0.45818 0.0
C2235 C 0.23371 0.31678 0.26437 0.0
C2236 C 0.24025 0.3235 0.21986 0.0
C2237 C 0.25301 0.33793 0.21939 0.0
C2238 C 0.25914 0.34565 0.26238 0.0
C2239 C 0.25236 0.33881 0.30561 0.0
C2240 C 0.23991 0.32473 0.30709 0.0
C2241 C 0.23426 0.32041 0.35833 0.0
C2242 C 0.21827 0.31764 0.36321 0.0
C2243 C 0.23526 0.30677 0.37484 0.0
C2244 C 0.24534 0.33437 0.38519 0.0
C2245 C 0.25576 0.34474 0.35399 0.0
C2246 C 0.26679 0.35873 0.3696 0.0
C2247 C 0.26707 0.36233 0.41829 0.0
C2248 C 0.25636 0.35202 0.45093 0.0
C2249 C 0.24548 0.33777 0.43419 0.0
H2250 H 0.02593 0.43347 0.90929 0.0
H2251 H 0.9857 0.41348 0.82244 0.0
H2252 H 0.97051 0.40303 0.89595 0.0
H2253 H 0.01352 0.40319 0.99642 0.0
H2254 H 0.02241 0.4156 0.04646 0.0
H2255 H 0.03016 0.42095 0.98685 0.0
H2256 H 0.02884 0.44522 0.99319 0.0
H2257 H 0.02117 0.43999 0.05284 0.0
H2258 H 0.0113 0.44406 0.00736 0.0
H2259 H 0.95965 0.39597 0.9793 0.0
H2260 H 0.95392 0.39305 0.06632 0.0
H2261 H 0.00124 0.41713 0.09876 0.0
C2262 C 0.01393 0.42681 0.90569 0.0
C2263 C 0.00698 0.42427 0.86012 0.0
C2264 C 0.99125 0.41555 0.85697 0.0
C2265 C 0.98254 0.40954 0.8985 0.0
C2266 C 0.98973 0.41228 0.94289 0.0
C2267 C 0.00507 0.42069 0.94675 0.0
C2268 C 0.01001 0.42238 0.99886 0.0
C2269 C 0.01959 0.41509 0.00765 0.0
C2270 C 0.01831 0.43889 0.01394 0.0
C2271 C 0.99504 0.41382 0.02381 0.0
C2272 C 0.98348 0.40802 0.99086 0.0
C2273 C 0.96861 0.40031 0.00539 0.0
C2274 C 0.96546 0.3987 0.05488 0.0
C2275 C 0.97713 0.40472 0.08926 0.0
C2276 C 0.99209 0.41216 0.07334 0.0
H2277 H 0.58831 0.56783 0.08236 0.0
H2278 H 0.57995 0.59842 0.16518 0.0
H2279 H 0.57411 0.60728 0.09016 0.0
H2280 H 0.60484 0.59206 0.97641 0.0
H2281 H 0.59613 0.57669 0.93481 0.0
H2282 H 0.60096 0.57375 0.99454 0.0
H2283 H 0.57361 0.55296 0.00872 0.0
H2284 H 0.56867 0.55588 0.94923 0.0
H2285 H 0.55878 0.55711 1.00083 0.0
H2286 H 0.56728 0.61138 0.00719 0.0
H2287 H 0.56041 0.61081 0.92175 0.0
H2288 H 0.57325 0.5776 0.89261 0.0
C2289 C 0.58553 0.5766 0.08461 0.0
C2290 C 0.58467 0.58251 0.12957 0.0
C2291 C 0.58075 0.59379 0.1311 0.0
C2292 C 0.57742 0.5989 0.08869 0.0
C2293 C 0.5781 0.59264 0.04503 0.0
C2294 C 0.58214 0.5818 0.04262 0.0
C2295 C 0.58125 0.57635 0.99141 0.0
C2296 C 0.59672 0.57993 0.97323 0.0
C2297 C 0.5699 0.55958 0.98733 0.0
C2298 C 0.57583 0.58563 0.96554 0.0
C2299 C 0.57416 0.59501 0.9971 0.0
C2300 C 0.56869 0.6042 0.98204 0.0
C2301 C 0.56479 0.60378 0.93348 0.0
C2302 C 0.56636 0.59422 0.90053 0.0
C2303 C 0.57206 0.58512 0.91686 0.0
H2304 H 0.43285 0.02265 0.06777 0.0
H2305 H 0.40192 0.98356 0.14946 0.0
H2306 H 0.39111 0.96993 0.07375 0.0
H2307 H 0.40756 0.0175 0.96595 0.0
H2308 H 0.42223 0.02356 0.92185 0.0
H2309 H 0.42648 0.03091 0.98223 0.0
H2310 H 0.44604 0.02241 0.99015 0.0
H2311 H 0.44189 0.0151 0.92987 0.0
H2312 H 0.44048 0.00316 0.97923 0.0
H2313 H 0.38509 0.95983 0.99056 0.0
H2314 H 0.38486 0.9535 0.90492 0.0
H2315 H 0.41967 0.99889 0.87539 0.0
C2316 C 0.4236 0.01132 0.06961 0.0
C2317 C 0.41813 0.00418 0.11451 0.0
C2318 C 0.40625 0.98925 0.11551 0.0
C2319 C 0.39999 0.98144 0.07268 0.0
C2320 C 0.40574 0.9887 0.02903 0.0
C2321 C 0.41729 0.00329 0.02705 0.0
C2322 C 0.42218 0.00803 0.97537 0.0
C2323 C 0.41944 0.02076 0.96048 0.0
C2324 C 0.43862 0.01243 0.96826 0.0
C2325 C 0.41179 0.99372 0.94878 0.0
C2326 C 0.40229 0.98279 0.98052 0.0
C2327 C 0.39232 0.96835 0.96527 0.0
C2328 C 0.39228 0.96485 0.91654 0.0
C2329 C 0.40212 0.97573 0.88344 0.0
C2330 C 0.41178 0.99045 0.89967 0.0
H2331 H 0.56196 0.97303 0.91704 0.0
H2332 H 0.59208 0.0127 0.83628 0.0
H2333 H 0.6007 0.02695 0.9124 0.0
H2334 H 0.55041 0.99071 0.99873 0.0
H2335 H 0.54916 0.97938 0.04974 0.0
H2336 H 0.54674 0.97193 0.98982 0.0
H2337 H 0.56788 0.96591 0.00438 0.0
H2338 H 0.57032 0.97327 0.06458 0.0
H2339 H 0.58595 0.98051 0.02384 0.0
H2340 H 0.60429 0.03732 0.9968 0.0
H2341 H 0.60274 0.04297 0.08232 0.0
H2342 H 0.57006 0.99649 0.10761 0.0
C2343 C 0.57062 0.98464 0.91538 0.0
C2344 C 0.57646 0.99174 0.87073 0.0
C2345 C 0.58755 0.00701 0.8701 0.0
C2346 C 0.59251 0.01518 0.91316 0.0
C2347 C 0.58627 0.0079 0.95651 0.0
C2348 C 0.57562 0.99294 0.95791 0.0
C2349 C 0.56993 0.98797 0.00868 0.0
C2350 C 0.55306 0.98216 0.0119 0.0
C2351 C 0.57376 0.97622 0.02641 0.0
C2352 C 0.5788 0.00254 0.03559 0.0
C2353 C 0.58826 0.01388 0.00495 0.0
C2354 C 0.59705 0.02848 0.02118 0.0
C2355 C 0.59608 0.03159 0.06982 0.0
C2356 C 0.58634 0.02016 0.10171 0.0
C2357 C 0.57773 0.00543 0.08428 0.0
H2358 H 0.99843 0.57224 0.89809 0.0
H2359 H 0.04489 0.60413 0.9275 0.0
H2360 H 0.03883 0.60434 0.0135 0.0
H2361 H 0.98221 0.58686 0.98401 0.0
H2362 H 0.9674 0.56858 1.00077 0.0
H2363 H 0.97522 0.57181 0.94106 0.0
H2364 H 0.98109 0.55043 0.95267 0.0
H2365 H 0.97326 0.54712 0.01227 0.0
H2366 H 0.99208 0.55088 0.00365 0.0
H2367 H 0.02787 0.60003 0.09711 0.0
H2368 H 0.01305 0.59085 0.17193 0.0
H2369 H 0.97388 0.56167 0.08747 0.0
C2370 C 0.0073 0.57941 0.92251 0.0
C2371 C 0.02212 0.58823 0.90614 0.0
C2372 C 0.03345 0.59731 0.93931 0.0
C2373 C 0.03011 0.59754 0.98817 0.0
C2374 C 0.01539 0.58862 0.00323 0.0
C2375 C 0.00418 0.57971 0.97138 0.0
C2376 C 0.98944 0.57055 0.99709 0.0
C2377 C 0.97789 0.5747 0.97969 0.0
C2378 C 0.98364 0.55375 0.99106 0.0
C2379 C 0.99414 0.57554 0.04849 0.0
C2380 C 0.00912 0.58607 0.05129 0.0
C2381 C 0.01611 0.59189 0.0953 0.0
C2382 C 0.0076 0.58662 0.13759 0.0
C2383 C 0.99231 0.57561 0.13549 0.0
C2384 C 0.98551 0.5702 0.09023 0.0
H2385 H 0.43969 0.4093 0.10377 0.0
H2386 H 0.41012 0.41864 0.18851 0.0
H2387 H 0.40051 0.42381 0.11381 0.0
H2388 H 0.44976 0.43788 0.0199 0.0
H2389 H 0.45035 0.42745 0.96884 0.0
H2390 H 0.45378 0.42299 0.02836 0.0
H2391 H 0.43264 0.39562 0.01747 0.0
H2392 H 0.4292 0.39996 0.95767 0.0
H2393 H 0.41422 0.39179 1.00086 0.0
H2394 H 0.3959 0.43024 0.03057 0.0
H2395 H 0.39584 0.43644 0.9447 0.0
H2396 H 0.42821 0.42259 0.9142 0.0
C2397 C 0.43097 0.41213 0.10658 0.0
C2398 C 0.42559 0.4135 0.15194 0.0
C2399 C 0.41433 0.41744 0.15413 0.0
C2400 C 0.40882 0.4204 0.1119 0.0
C2401 C 0.41462 0.41929 0.06781 0.0
C2402 C 0.42535 0.41511 0.06484 0.0
C2403 C 0.43027 0.41545 0.01326 0.0
C2404 C 0.44703 0.42661 0.00727 0.0
C2405 C 0.42634 0.39977 0.99632 0.0
C2406 C 0.42087 0.42078 0.98774 0.0
C2407 C 0.41188 0.42288 0.01982 0.0
C2408 C 0.40275 0.42846 0.00505 0.0
C2409 C 0.40283 0.432 0.95625 0.0
C2410 C 0.41195 0.42992 0.92279 0.0
C2411 C 0.42099 0.42414 0.93885 0.0
loop_
_geom_bond_atom_site_label_1
_geom_bond_atom_site_label_2
_geom_bond_distance
_geom_bond_site_symmetry_2
_ccdc_geom_bond_type
In0 O1 2.294 . S
In0 O2 2.326 . S
In0 O6 2.266 . S
In0 O7 2.326 . S
In0 O8 2.266 . S
In0 O9 2.326 1_554 S
In0 O11 2.294 . S
In0 O12 2.326 . S
O1 In0 2.294 . S
O1 C10 1.240 . S
O2 In0 2.326 . S
O2 C10 1.252 . S
C3 O6 1.252 . S
C3 O7 1.260 . S
C4 O11 1.240 . S
C4 O12 1.252 . S
C5 O8 1.252 1_556 S
C5 O9 1.260 . S
O6 In0 2.266 . S
O6 C3 1.252 . S
O7 In0 2.326 . S
O7 C3 1.260 . S
O8 In0 2.266 . S
O8 C5 1.252 1_554 S
O9 In0 2.326 1_556 S
O9 C5 1.260 . S
C10 O1 1.240 . S
C10 O2 1.252 . S
O11 In0 2.294 . S
O11 C4 1.240 . S
O12 In0 2.326 . S
O12 C4 1.252 . S
In13 O14 2.294 . S
In13 O15 2.326 . S
In13 O19 2.266 . S
In13 O20 2.326 . S
In13 O21 2.266 . S
In13 O22 2.326 1_554 S
In13 O24 2.294 . S
In13 O25 2.326 . S
O14 In13 2.294 . S
O14 C23 1.240 . S
O15 In13 2.326 . S
O15 C23 1.252 . S
C16 O19 1.252 . S
C16 O20 1.260 . S
C17 O24 1.240 . S
C17 O25 1.252 . S
C18 O21 1.252 1_556 S
C18 O22 1.260 . S
O19 In13 2.266 . S
O19 C16 1.252 . S
O20 In13 2.326 . S
O20 C16 1.260 . S
O21 In13 2.266 . S
O21 C18 1.252 1_554 S
O22 In13 2.326 1_556 S
O22 C18 1.260 . S
C23 O14 1.240 . S
C23 O15 1.252 . S
O24 In13 2.294 . S
O24 C17 1.240 . S
O25 In13 2.326 . S
O25 C17 1.252 . S
In26 O27 2.294 . S
In26 O28 2.326 . S
In26 O32 2.266 . S
In26 O33 2.326 1_554 S
In26 O34 2.266 . S
In26 O35 2.326 . S
In26 O37 2.294 . S
In26 O38 2.326 . S
O27 In26 2.294 . S
O27 C36 1.240 . S
O28 In26 2.326 . S
O28 C36 1.252 . S
C29 O32 1.252 1_556 S
C29 O33 1.260 . S
C30 O37 1.240 . S
C30 O38 1.252 . S
C31 O34 1.252 . S
C31 O35 1.260 . S
O32 In26 2.266 . S
O32 C29 1.252 1_554 S
O33 In26 2.326 1_556 S
O33 C29 1.260 . S
O34 In26 2.266 . S
O34 C31 1.252 . S
O35 In26 2.326 . S
O35 C31 1.260 . S
C36 O27 1.240 . S
C36 O28 1.252 . S
O37 In26 2.294 . S
O37 C30 1.240 . S
O38 In26 2.326 . S
O38 C30 1.252 . S
In39 O40 2.294 . S
In39 O41 2.326 . S
In39 O45 2.266 . S
In39 O46 2.326 1_556 S
In39 O47 2.266 . S
In39 O48 2.326 . S
In39 O50 2.294 . S
In39 O51 2.326 . S
O40 In39 2.294 . S
O40 C49 1.240 . S
O41 In39 2.326 . S
O41 C49 1.252 . S
C42 O45 1.252 1_554 S
C42 O46 1.260 . S
C43 O50 1.240 . S
C43 O51 1.252 . S
C44 O47 1.252 . S
C44 O48 1.260 . S
O45 In39 2.266 . S
O45 C42 1.252 1_556 S
O46 In39 2.326 1_554 S
O46 C42 1.260 . S
O47 In39 2.266 . S
O47 C44 1.252 . S
O48 In39 2.326 . S
O48 C44 1.260 . S
C49 O40 1.240 . S
C49 O41 1.252 . S
O50 In39 2.294 . S
O50 C43 1.240 . S
O51 In39 2.326 . S
O51 C43 1.252 . S
In52 O53 2.294 . S
In52 O54 2.326 . S
In52 O58 2.266 . S
In52 O59 2.326 1_556 S
In52 O60 2.266 . S
In52 O61 2.326 . S
In52 O63 2.294 . S
In52 O64 2.326 . S
O53 In52 2.294 . S
O53 C62 1.240 . S
O54 In52 2.326 . S
O54 C62 1.252 . S
C55 O58 1.252 1_554 S
C55 O59 1.260 . S
C56 O63 1.240 . S
C56 O64 1.252 . S
C57 O60 1.252 . S
C57 O61 1.260 . S
O58 In52 2.266 . S
O58 C55 1.252 1_556 S
O59 In52 2.326 1_554 S
O59 C55 1.260 . S
O60 In52 2.266 . S
O60 C57 1.252 . S
O61 In52 2.326 . S
O61 C57 1.260 . S
C62 O53 1.240 . S
C62 O54 1.252 . S
O63 In52 2.294 . S
O63 C56 1.240 . S
O64 In52 2.326 . S
O64 C56 1.252 . S
In65 O66 2.294 . S
In65 O67 2.326 . S
In65 O71 2.266 . S
In65 O72 2.326 . S
In65 O73 2.266 . S
In65 O74 2.326 1_556 S
In65 O76 2.294 . S
In65 O77 2.326 . S
O66 In65 2.294 . S
O66 C75 1.240 . S
O67 In65 2.326 . S
O67 C75 1.252 . S
C68 O71 1.252 . S
C68 O72 1.260 . S
C69 O76 1.240 . S
C69 O77 1.252 . S
C70 O73 1.252 1_554 S
C70 O74 1.260 . S
O71 In65 2.266 . S
O71 C68 1.252 . S
O72 In65 2.326 . S
O72 C68 1.260 . S
O73 In65 2.266 . S
O73 C70 1.252 1_556 S
O74 In65 2.326 1_554 S
O74 C70 1.260 . S
C75 O66 1.240 . S
C75 O67 1.252 . S
O76 In65 2.294 . S
O76 C69 1.240 . S
O77 In65 2.326 . S
O77 C69 1.252 . S
In78 O79 2.294 . S
In78 O80 2.326 . S
In78 O84 2.266 . S
In78 O85 2.326 1_556 S
In78 O86 2.266 . S
In78 O87 2.326 . S
In78 O89 2.294 . S
In78 O90 2.326 . S
O79 In78 2.294 . S
O79 C88 1.240 . S
O80 In78 2.326 . S
O80 C88 1.252 . S
C81 O84 1.252 1_554 S
C81 O85 1.260 . S
C82 O89 1.240 . S
C82 O90 1.252 . S
C83 O86 1.252 . S
C83 O87 1.260 . S
O84 In78 2.266 . S
O84 C81 1.252 1_556 S
O85 In78 2.326 1_554 S
O85 C81 1.260 . S
O86 In78 2.266 . S
O86 C83 1.252 . S
O87 In78 2.326 . S
O87 C83 1.260 . S
C88 O79 1.240 . S
C88 O80 1.252 . S
O89 In78 2.294 . S
O89 C82 1.240 . S
O90 In78 2.326 . S
O90 C82 1.252 . S
In91 O92 2.294 . S
In91 O93 2.326 . S
In91 O97 2.266 . S
In91 O98 2.326 . S
In91 O99 2.266 . S
In91 O100 2.326 1_556 S
In91 O102 2.294 . S
In91 O103 2.326 . S
O92 In91 2.294 . S
O92 C101 1.240 . S
O93 In91 2.326 . S
O93 C101 1.252 . S
C94 O97 1.252 . S
C94 O98 1.260 . S
C95 O102 1.240 . S
C95 O103 1.252 . S
C96 O99 1.252 1_554 S
C96 O100 1.260 . S
O97 In91 2.266 . S
O97 C94 1.252 . S
O98 In91 2.326 . S
O98 C94 1.260 . S
O99 In91 2.266 . S
O99 C96 1.252 1_556 S
O100 In91 2.326 1_554 S
O100 C96 1.260 . S
C101 O92 1.240 . S
C101 O93 1.252 . S
O102 In91 2.294 . S
O102 C95 1.240 . S
O103 In91 2.326 . S
O103 C95 1.252 . S
In104 O105 2.294 . S
In104 O106 2.326 . S
In104 O110 2.266 . S
In104 O111 2.326 1_556 S
In104 O112 2.266 . S
In104 O113 2.326 . S
In104 O115 2.294 . S
In104 O116 2.326 . S
O105 In104 2.294 . S
O105 C114 1.240 . S
O106 In104 2.326 . S
O106 C114 1.252 . S
C107 O110 1.252 1_554 S
C107 O111 1.260 . S
C108 O115 1.240 . S
C108 O116 1.252 . S
C109 O112 1.252 . S
C109 O113 1.260 . S
O110 In104 2.266 . S
O110 C107 1.252 1_556 S
O111 In104 2.326 1_554 S
O111 C107 1.260 . S
O112 In104 2.266 . S
O112 C109 1.252 . S
O113 In104 2.326 . S
O113 C109 1.260 . S
C114 O105 1.240 . S
C114 O106 1.252 . S
O115 In104 2.294 . S
O115 C108 1.240 . S
O116 In104 2.326 . S
O116 C108 1.252 . S
In117 O118 2.294 . S
In117 O119 2.326 . S
In117 O123 2.266 . S
In117 O124 2.326 1_554 S
In117 O125 2.266 . S
In117 O126 2.326 . S
In117 O128 2.294 . S
In117 O129 2.326 . S
O118 In117 2.294 . S
O118 C127 1.240 . S
O119 In117 2.326 . S
O119 C127 1.252 . S
C120 O123 1.252 1_556 S
C120 O124 1.260 . S
C121 O128 1.240 . S
C121 O129 1.252 . S
C122 O125 1.252 . S
C122 O126 1.260 . S
O123 In117 2.266 . S
O123 C120 1.252 1_554 S
O124 In117 2.326 1_556 S
O124 C120 1.260 . S
O125 In117 2.266 . S
O125 C122 1.252 . S
O126 In117 2.326 . S
O126 C122 1.260 . S
C127 O118 1.240 . S
C127 O119 1.252 . S
O128 In117 2.294 . S
O128 C121 1.240 . S
O129 In117 2.326 . S
O129 C121 1.252 . S
In130 O131 2.294 . S
In130 O132 2.326 . S
In130 O136 2.266 . S
In130 O137 2.326 . S
In130 O138 2.266 . S
In130 O139 2.326 1_554 S
In130 O141 2.294 . S
In130 O142 2.326 . S
O131 In130 2.294 . S
O131 C140 1.240 . S
O132 In130 2.326 . S
O132 C140 1.252 . S
C133 O136 1.252 . S
C133 O137 1.260 . S
C134 O141 1.240 . S
C134 O142 1.252 . S
C135 O138 1.252 1_556 S
C135 O139 1.260 . S
O136 In130 2.266 . S
O136 C133 1.252 . S
O137 In130 2.326 . S
O137 C133 1.260 . S
O138 In130 2.266 . S
O138 C135 1.252 1_554 S
O139 In130 2.326 1_556 S
O139 C135 1.260 . S
C140 O131 1.240 . S
C140 O132 1.252 . S
O141 In130 2.294 . S
O141 C134 1.240 . S
O142 In130 2.326 . S
O142 C134 1.252 . S
In143 O144 2.294 . S
In143 O145 2.326 . S
In143 O149 2.266 . S
In143 O150 2.326 1_554 S
In143 O151 2.266 . S
In143 O152 2.326 . S
In143 O154 2.294 . S
In143 O155 2.326 . S
O144 In143 2.294 . S
O144 C153 1.240 . S
O145 In143 2.326 . S
O145 C153 1.252 . S
C146 O149 1.252 1_556 S
C146 O150 1.260 . S
C147 O154 1.240 . S
C147 O155 1.252 . S
C148 O151 1.252 . S
C148 O152 1.260 . S
O149 In143 2.266 . S
O149 C146 1.252 1_554 S
O150 In143 2.326 1_556 S
O150 C146 1.260 . S
O151 In143 2.266 . S
O151 C148 1.252 . S
O152 In143 2.326 . S
O152 C148 1.260 . S
C153 O144 1.240 . S
C153 O145 1.252 . S
O154 In143 2.294 . S
O154 C147 1.240 . S
O155 In143 2.326 . S
O155 C147 1.252 . S
In156 O157 2.294 . S
In156 O158 2.326 . S
In156 O162 2.266 . S
In156 O163 2.326 . S
In156 O164 2.266 . S
In156 O165 2.326 . S
In156 O167 2.294 . S
In156 O168 2.326 . S
O157 In156 2.294 . S
O157 C166 1.240 . S
O158 In156 2.326 . S
O158 C166 1.252 . S
C159 O162 1.252 . S
C159 O163 1.260 . S
C160 O167 1.240 . S
C160 O168 1.252 . S
C161 O164 1.252 . S
C161 O165 1.260 . S
O162 In156 2.266 . S
O162 C159 1.252 . S
O163 In156 2.326 . S
O163 C159 1.260 . S
O164 In156 2.266 . S
O164 C161 1.252 . S
O165 In156 2.326 . S
O165 C161 1.260 . S
C166 O157 1.240 . S
C166 O158 1.252 . S
O167 In156 2.294 . S
O167 C160 1.240 . S
O168 In156 2.326 . S
O168 C160 1.252 . S
In169 O170 2.294 . S
In169 O171 2.326 . S
In169 O175 2.266 . S
In169 O176 2.326 . S
In169 O177 2.266 . S
In169 O178 2.326 . S
In169 O180 2.294 . S
In169 O181 2.326 . S
O170 In169 2.294 . S
O170 C179 1.240 . S
O171 In169 2.326 . S
O171 C179 1.252 . S
C172 O175 1.252 . S
C172 O176 1.260 . S
C173 O180 1.240 . S
C173 O181 1.252 . S
C174 O177 1.252 . S
C174 O178 1.260 . S
O175 In169 2.266 . S
O175 C172 1.252 . S
O176 In169 2.326 . S
O176 C172 1.260 . S
O177 In169 2.266 . S
O177 C174 1.252 . S
O178 In169 2.326 . S
O178 C174 1.260 . S
C179 O170 1.240 . S
C179 O171 1.252 . S
O180 In169 2.294 . S
O180 C173 1.240 . S
O181 In169 2.326 . S
O181 C173 1.252 . S
In182 O183 2.294 . S
In182 O184 2.326 . S
In182 O188 2.266 . S
In182 O189 2.326 . S
In182 O190 2.266 . S
In182 O191 2.326 . S
In182 O193 2.294 . S
In182 O194 2.326 . S
O183 In182 2.294 . S
O183 C192 1.240 . S
O184 In182 2.326 . S
O184 C192 1.252 . S
C185 O188 1.252 . S
C185 O189 1.260 . S
C186 O193 1.240 . S
C186 O194 1.252 . S
C187 O190 1.252 . S
C187 O191 1.260 . S
O188 In182 2.266 . S
O188 C185 1.252 . S
O189 In182 2.326 . S
O189 C185 1.260 . S
O190 In182 2.266 . S
O190 C187 1.252 . S
O191 In182 2.326 . S
O191 C187 1.260 . S
C192 O183 1.240 . S
C192 O184 1.252 . S
O193 In182 2.294 . S
O193 C186 1.240 . S
O194 In182 2.326 . S
O194 C186 1.252 . S
In195 O196 2.294 . S
In195 O197 2.326 . S
In195 O201 2.266 . S
In195 O202 2.326 . S
In195 O203 2.266 . S
In195 O204 2.326 . S
In195 O206 2.294 . S
In195 O207 2.326 . S
O196 In195 2.294 . S
O196 C205 1.240 . S
O197 In195 2.326 . S
O197 C205 1.252 . S
C198 O201 1.252 . S
C198 O202 1.260 . S
C199 O206 1.240 . S
C199 O207 1.252 . S
C200 O203 1.252 . S
C200 O204 1.260 . S
O201 In195 2.266 . S
O201 C198 1.252 . S
O202 In195 2.326 . S
O202 C198 1.260 . S
O203 In195 2.266 . S
O203 C200 1.252 . S
O204 In195 2.326 . S
O204 C200 1.260 . S
C205 O196 1.240 . S
C205 O197 1.252 . S
O206 In195 2.294 . S
O206 C199 1.240 . S
O207 In195 2.326 . S
O207 C199 1.252 . S
In208 O209 2.294 . S
In208 O210 2.326 . S
In208 O214 2.266 . S
In208 O215 2.326 . S
In208 O216 2.266 . S
In208 O217 2.326 . S
In208 O219 2.294 . S
In208 O220 2.326 . S
O209 In208 2.294 . S
O209 C218 1.240 . S
O210 In208 2.326 . S
O210 C218 1.252 . S
C211 O214 1.252 . S
C211 O215 1.260 . S
C212 O219 1.240 . S
C212 O220 1.252 . S
C213 O216 1.252 . S
C213 O217 1.260 . S
O214 In208 2.266 . S
O214 C211 1.252 . S
O215 In208 2.326 . S
O215 C211 1.260 . S
O216 In208 2.266 . S
O216 C213 1.252 . S
O217 In208 2.326 . S
O217 C213 1.260 . S
C218 O209 1.240 . S
C218 O210 1.252 . S
O219 In208 2.294 . S
O219 C212 1.240 . S
O220 In208 2.326 . S
O220 C212 1.252 . S
In221 O222 2.294 . S
In221 O223 2.326 . S
In221 O227 2.266 . S
In221 O228 2.326 . S
In221 O229 2.266 . S
In221 O230 2.326 . S
In221 O232 2.294 . S
In221 O233 2.326 . S
O222 In221 2.294 . S
O222 C231 1.240 . S
O223 In221 2.326 . S
O223 C231 1.252 . S
C224 O227 1.252 . S
C224 O228 1.260 . S
C225 O232 1.240 . S
C225 O233 1.252 . S
C226 O229 1.252 . S
C226 O230 1.260 . S
O227 In221 2.266 . S
O227 C224 1.252 . S
O228 In221 2.326 . S
O228 C224 1.260 . S
O229 In221 2.266 . S
O229 C226 1.252 . S
O230 In221 2.326 . S
O230 C226 1.260 . S
C231 O222 1.240 . S
C231 O223 1.252 . S
O232 In221 2.294 . S
O232 C225 1.240 . S
O233 In221 2.326 . S
O233 C225 1.252 . S
In234 O235 2.294 . S
In234 O236 2.326 . S
In234 O240 2.266 . S
In234 O241 2.326 . S
In234 O242 2.266 . S
In234 O243 2.326 . S
In234 O245 2.294 . S
In234 O246 2.326 . S
O235 In234 2.294 . S
O235 C244 1.240 . S
O236 In234 2.326 . S
O236 C244 1.252 . S
C237 O240 1.252 . S
C237 O241 1.260 . S
C238 O245 1.240 . S
C238 O246 1.252 . S
C239 O242 1.252 . S
C239 O243 1.260 . S
O240 In234 2.266 . S
O240 C237 1.252 . S
O241 In234 2.326 . S
O241 C237 1.260 . S
O242 In234 2.266 . S
O242 C239 1.252 . S
O243 In234 2.326 . S
O243 C239 1.260 . S
C244 O235 1.240 . S
C244 O236 1.252 . S
O245 In234 2.294 . S
O245 C238 1.240 . S
O246 In234 2.326 . S
O246 C238 1.252 . S
In247 O248 2.294 . S
In247 O249 2.326 . S
In247 O253 2.266 . S
In247 O254 2.326 . S
In247 O255 2.266 . S
In247 O256 2.326 . S
In247 O258 2.294 . S
In247 O259 2.326 . S
O248 In247 2.294 . S
O248 C257 1.240 . S
O249 In247 2.326 . S
O249 C257 1.252 . S
C250 O253 1.252 . S
C250 O254 1.260 . S
C251 O258 1.240 . S
C251 O259 1.252 . S
C252 O255 1.252 . S
C252 O256 1.260 . S
O253 In247 2.266 . S
O253 C250 1.252 . S
O254 In247 2.326 . S
O254 C250 1.260 . S
O255 In247 2.266 . S
O255 C252 1.252 . S
O256 In247 2.326 . S
O256 C252 1.260 . S
C257 O248 1.240 . S
C257 O249 1.252 . S
O258 In247 2.294 . S
O258 C251 1.240 . S
O259 In247 2.326 . S
O259 C251 1.252 . S
In260 O261 2.294 . S
In260 O262 2.326 . S
In260 O266 2.266 . S
In260 O267 2.326 . S
In260 O268 2.266 . S
In260 O269 2.326 . S
In260 O271 2.294 . S
In260 O272 2.326 . S
O261 In260 2.294 . S
O261 C270 1.240 . S
O262 In260 2.326 . S
O262 C270 1.252 . S
C263 O266 1.252 . S
C263 O267 1.260 . S
C264 O271 1.240 . S
C264 O272 1.252 . S
C265 O268 1.252 . S
C265 O269 1.260 . S
O266 In260 2.266 . S
O266 C263 1.252 . S
O267 In260 2.326 . S
O267 C263 1.260 . S
O268 In260 2.266 . S
O268 C265 1.252 . S
O269 In260 2.326 . S
O269 C265 1.260 . S
C270 O261 1.240 . S
C270 O262 1.252 . S
O271 In260 2.294 . S
O271 C264 1.240 . S
O272 In260 2.326 . S
O272 C264 1.252 . S
In273 O274 2.294 . S
In273 O275 2.326 . S
In273 O279 2.266 . S
In273 O280 2.326 . S
In273 O281 2.266 . S
In273 O282 2.326 . S
In273 O284 2.294 . S
In273 O285 2.326 . S
O274 In273 2.294 . S
O274 C283 1.240 . S
O275 In273 2.326 . S
O275 C283 1.252 . S
C276 O279 1.252 . S
C276 O280 1.260 . S
C277 O284 1.240 . S
C277 O285 1.252 . S
C278 O281 1.252 . S
C278 O282 1.260 . S
O279 In273 2.266 . S
O279 C276 1.252 . S
O280 In273 2.326 . S
O280 C276 1.260 . S
O281 In273 2.266 . S
O281 C278 1.252 . S
O282 In273 2.326 . S
O282 C278 1.260 . S
C283 O274 1.240 . S
C283 O275 1.252 . S
O284 In273 2.294 . S
O284 C277 1.240 . S
O285 In273 2.326 . S
O285 C277 1.252 . S
In286 O287 2.294 . S
In286 O288 2.326 . S
In286 O292 2.266 . S
In286 O293 2.326 . S
In286 O294 2.266 . S
In286 O295 2.326 . S
In286 O297 2.294 . S
In286 O298 2.326 . S
O287 In286 2.294 . S
O287 C296 1.240 . S
O288 In286 2.326 . S
O288 C296 1.252 . S
C289 O292 1.252 . S
C289 O293 1.260 . S
C290 O297 1.240 . S
C290 O298 1.252 . S
C291 O294 1.252 . S
C291 O295 1.260 . S
O292 In286 2.266 . S
O292 C289 1.252 . S
O293 In286 2.326 . S
O293 C289 1.260 . S
O294 In286 2.266 . S
O294 C291 1.252 . S
O295 In286 2.326 . S
O295 C291 1.260 . S
C296 O287 1.240 . S
C296 O288 1.252 . S
O297 In286 2.294 . S
O297 C290 1.240 . S
O298 In286 2.326 . S
O298 C290 1.252 . S
In299 O300 2.294 . S
In299 O301 2.326 . S
In299 O305 2.266 . S
In299 O306 2.326 . S
In299 O307 2.266 . S
In299 O308 2.326 . S
In299 O310 2.294 . S
In299 O311 2.326 . S
O300 In299 2.294 . S
O300 C309 1.240 . S
O301 In299 2.326 . S
O301 C309 1.252 . S
C302 O305 1.252 . S
C302 O306 1.260 . S
C303 O310 1.240 . S
C303 O311 1.252 . S
C304 O307 1.252 . S
C304 O308 1.260 . S
O305 In299 2.266 . S
O305 C302 1.252 . S
O306 In299 2.326 . S
O306 C302 1.260 . S
O307 In299 2.266 . S
O307 C304 1.252 . S
O308 In299 2.326 . S
O308 C304 1.260 . S
C309 O300 1.240 . S
C309 O301 1.252 . S
O310 In299 2.294 . S
O310 C303 1.240 . S
O311 In299 2.326 . S
O311 C303 1.252 . S
In312 O313 2.294 . S
In312 O314 2.326 . S
In312 O318 2.266 . S
In312 O319 2.326 . S
In312 O320 2.266 . S
In312 O321 2.326 . S
In312 O323 2.294 . S
In312 O324 2.326 . S
O313 In312 2.294 . S
O313 C322 1.240 . S
O314 In312 2.326 . S
O314 C322 1.252 . S
C315 O318 1.252 . S
C315 O319 1.260 . S
C316 O323 1.240 . S
C316 O324 1.252 . S
C317 O320 1.252 . S
C317 O321 1.260 . S
O318 In312 2.266 . S
O318 C315 1.252 . S
O319 In312 2.326 . S
O319 C315 1.260 . S
O320 In312 2.266 . S
O320 C317 1.252 . S
O321 In312 2.326 . S
O321 C317 1.260 . S
C322 O313 1.240 . S
C322 O314 1.252 . S
O323 In312 2.294 . S
O323 C316 1.240 . S
O324 In312 2.326 . S
O324 C316 1.252 . S
In325 O326 2.294 . S
In325 O327 2.326 . S
In325 O331 2.266 . S
In325 O332 2.326 . S
In325 O333 2.266 . S
In325 O334 2.326 . S
In325 O336 2.294 . S
In325 O337 2.326 . S
O326 In325 2.294 . S
O326 C335 1.240 . S
O327 In325 2.326 . S
O327 C335 1.252 . S
C328 O331 1.252 . S
C328 O332 1.260 . S
C329 O336 1.240 . S
C329 O337 1.252 . S
C330 O333 1.252 . S
C330 O334 1.260 . S
O331 In325 2.266 . S
O331 C328 1.252 . S
O332 In325 2.326 . S
O332 C328 1.260 . S
O333 In325 2.266 . S
O333 C330 1.252 . S
O334 In325 2.326 . S
O334 C330 1.260 . S
C335 O326 1.240 . S
C335 O327 1.252 . S
O336 In325 2.294 . S
O336 C329 1.240 . S
O337 In325 2.326 . S
O337 C329 1.252 . S
In338 O339 2.294 . S
In338 O340 2.326 . S
In338 O344 2.266 . S
In338 O345 2.326 . S
In338 O346 2.266 . S
In338 O347 2.326 . S
In338 O349 2.294 . S
In338 O350 2.326 . S
O339 In338 2.294 . S
O339 C348 1.240 . S
O340 In338 2.326 . S
O340 C348 1.252 . S
C341 O344 1.252 . S
C341 O345 1.260 . S
C342 O349 1.240 . S
C342 O350 1.252 . S
C343 O346 1.252 . S
C343 O347 1.260 . S
O344 In338 2.266 . S
O344 C341 1.252 . S
O345 In338 2.326 . S
O345 C341 1.260 . S
O346 In338 2.266 . S
O346 C343 1.252 . S
O347 In338 2.326 . S
O347 C343 1.260 . S
C348 O339 1.240 . S
C348 O340 1.252 . S
O349 In338 2.294 . S
O349 C342 1.240 . S
O350 In338 2.326 . S
O350 C342 1.252 . S
In351 O352 2.294 . S
In351 O353 2.326 . S
In351 O357 2.266 . S
In351 O358 2.326 . S
In351 O359 2.266 . S
In351 O360 2.326 . S
In351 O362 2.294 . S
In351 O363 2.326 . S
O352 In351 2.294 . S
O352 C361 1.240 . S
O353 In351 2.326 . S
O353 C361 1.252 . S
C354 O357 1.252 . S
C354 O358 1.260 . S
C355 O362 1.240 . S
C355 O363 1.252 . S
C356 O359 1.252 . S
C356 O360 1.260 . S
O357 In351 2.266 . S
O357 C354 1.252 . S
O358 In351 2.326 . S
O358 C354 1.260 . S
O359 In351 2.266 . S
O359 C356 1.252 . S
O360 In351 2.326 . S
O360 C356 1.260 . S
C361 O352 1.240 . S
C361 O353 1.252 . S
O362 In351 2.294 . S
O362 C355 1.240 . S
O363 In351 2.326 . S
O363 C355 1.252 . S
In364 O365 2.294 . S
In364 O366 2.326 . S
In364 O370 2.266 . S
In364 O371 2.326 . S
In364 O372 2.266 . S
In364 O373 2.326 . S
In364 O375 2.294 . S
In364 O376 2.326 . S
O365 In364 2.294 . S
O365 C374 1.240 . S
O366 In364 2.326 . S
O366 C374 1.252 . S
C367 O370 1.252 . S
C367 O371 1.260 . S
C368 O375 1.240 . S
C368 O376 1.252 . S
C369 O372 1.252 . S
C369 O373 1.260 . S
O370 In364 2.266 . S
O370 C367 1.252 . S
O371 In364 2.326 . S
O371 C367 1.260 . S
O372 In364 2.266 . S
O372 C369 1.252 . S
O373 In364 2.326 . S
O373 C369 1.260 . S
C374 O365 1.240 . S
C374 O366 1.252 . S
O375 In364 2.294 . S
O375 C368 1.240 . S
O376 In364 2.326 . S
O376 C368 1.252 . S
In377 O378 2.294 . S
In377 O379 2.326 . S
In377 O383 2.266 . S
In377 O384 2.326 . S
In377 O385 2.266 . S
In377 O386 2.326 . S
In377 O388 2.294 . S
In377 O389 2.326 . S
O378 In377 2.294 . S
O378 C387 1.240 . S
O379 In377 2.326 . S
O379 C387 1.252 . S
C380 O383 1.252 . S
C380 O384 1.260 . S
C381 O388 1.240 . S
C381 O389 1.252 . S
C382 O385 1.252 . S
C382 O386 1.260 . S
O383 In377 2.266 . S
O383 C380 1.252 . S
O384 In377 2.326 . S
O384 C380 1.260 . S
O385 In377 2.266 . S
O385 C382 1.252 . S
O386 In377 2.326 . S
O386 C382 1.260 . S
C387 O378 1.240 . S
C387 O379 1.252 . S
O388 In377 2.294 . S
O388 C381 1.240 . S
O389 In377 2.326 . S
O389 C381 1.252 . S
In390 O391 2.294 . S
In390 O392 2.326 . S
In390 O396 2.266 . S
In390 O397 2.326 . S
In390 O398 2.266 . S
In390 O399 2.326 . S
In390 O401 2.294 . S
In390 O402 2.326 . S
O391 In390 2.294 . S
O391 C400 1.240 . S
O392 In390 2.326 . S
O392 C400 1.252 . S
C393 O396 1.252 . S
C393 O397 1.260 . S
C394 O401 1.240 . S
C394 O402 1.252 . S
C395 O398 1.252 . S
C395 O399 1.260 . S
O396 In390 2.266 . S
O396 C393 1.252 . S
O397 In390 2.326 . S
O397 C393 1.260 . S
O398 In390 2.266 . S
O398 C395 1.252 . S
O399 In390 2.326 . S
O399 C395 1.260 . S
C400 O391 1.240 . S
C400 O392 1.252 . S
O401 In390 2.294 . S
O401 C394 1.240 . S
O402 In390 2.326 . S
O402 C394 1.252 . S
In403 O404 2.294 . S
In403 O405 2.326 . S
In403 O409 2.266 . S
In403 O410 2.326 . S
In403 O411 2.266 . S
In403 O412 2.326 . S
In403 O414 2.294 . S
In403 O415 2.326 . S
O404 In403 2.294 . S
O404 C413 1.240 . S
O405 In403 2.326 . S
O405 C413 1.252 . S
C406 O409 1.252 . S
C406 O410 1.260 . S
C407 O414 1.240 . S
C407 O415 1.252 . S
C408 O411 1.252 . S
C408 O412 1.260 . S
O409 In403 2.266 . S
O409 C406 1.252 . S
O410 In403 2.326 . S
O410 C406 1.260 . S
O411 In403 2.266 . S
O411 C408 1.252 . S
O412 In403 2.326 . S
O412 C408 1.260 . S
C413 O404 1.240 . S
C413 O405 1.252 . S
O414 In403 2.294 . S
O414 C407 1.240 . S
O415 In403 2.326 . S
O415 C407 1.252 . S
In416 O417 2.294 . S
In416 O418 2.326 . S
In416 O422 2.266 . S
In416 O423 2.326 . S
In416 O424 2.266 . S
In416 O425 2.326 . S
In416 O427 2.294 . S
In416 O428 2.326 . S
O417 In416 2.294 . S
O417 C426 1.240 . S
O418 In416 2.326 . S
O418 C426 1.252 . S
C419 O422 1.252 . S
C419 O423 1.260 . S
C420 O427 1.240 . S
C420 O428 1.252 . S
C421 O424 1.252 . S
C421 O425 1.260 . S
O422 In416 2.266 . S
O422 C419 1.252 . S
O423 In416 2.326 . S
O423 C419 1.260 . S
O424 In416 2.266 . S
O424 C421 1.252 . S
O425 In416 2.326 . S
O425 C421 1.260 . S
C426 O417 1.240 . S
C426 O418 1.252 . S
O427 In416 2.294 . S
O427 C420 1.240 . S
O428 In416 2.326 . S
O428 C420 1.252 . S
In429 O430 2.294 . S
In429 O431 2.326 . S
In429 O435 2.266 . S
In429 O436 2.326 . S
In429 O437 2.266 . S
In429 O438 2.326 . S
In429 O440 2.294 . S
In429 O441 2.326 . S
O430 In429 2.294 . S
O430 C439 1.240 . S
O431 In429 2.326 . S
O431 C439 1.252 . S
C432 O435 1.252 . S
C432 O436 1.260 . S
C433 O440 1.240 . S
C433 O441 1.252 . S
C434 O437 1.252 . S
C434 O438 1.260 . S
O435 In429 2.266 . S
O435 C432 1.252 . S
O436 In429 2.326 . S
O436 C432 1.260 . S
O437 In429 2.266 . S
O437 C434 1.252 . S
O438 In429 2.326 . S
O438 C434 1.260 . S
C439 O430 1.240 . S
C439 O431 1.252 . S
O440 In429 2.294 . S
O440 C433 1.240 . S
O441 In429 2.326 . S
O441 C433 1.252 . S
In442 O443 2.294 . S
In442 O444 2.326 . S
In442 O448 2.266 . S
In442 O449 2.326 . S
In442 O450 2.266 . S
In442 O451 2.326 . S
In442 O453 2.294 . S
In442 O454 2.326 . S
O443 In442 2.294 . S
O443 C452 1.240 . S
O444 In442 2.326 . S
O444 C452 1.252 . S
C445 O448 1.252 . S
C445 O449 1.260 . S
C446 O453 1.240 . S
C446 O454 1.252 . S
C447 O450 1.252 . S
C447 O451 1.260 . S
O448 In442 2.266 . S
O448 C445 1.252 . S
O449 In442 2.326 . S
O449 C445 1.260 . S
O450 In442 2.266 . S
O450 C447 1.252 . S
O451 In442 2.326 . S
O451 C447 1.260 . S
C452 O443 1.240 . S
C452 O444 1.252 . S
O453 In442 2.294 . S
O453 C446 1.240 . S
O454 In442 2.326 . S
O454 C446 1.252 . S
In455 O456 2.294 . S
In455 O457 2.326 . S
In455 O461 2.266 . S
In455 O462 2.326 . S
In455 O463 2.266 . S
In455 O464 2.326 . S
In455 O466 2.294 . S
In455 O467 2.326 . S
O456 In455 2.294 . S
O456 C465 1.240 . S
O457 In455 2.326 . S
O457 C465 1.252 . S
C458 O461 1.252 . S
C458 O462 1.260 . S
C459 O466 1.240 . S
C459 O467 1.252 . S
C460 O463 1.252 . S
C460 O464 1.260 . S
O461 In455 2.266 . S
O461 C458 1.252 . S
O462 In455 2.326 . S
O462 C458 1.260 . S
O463 In455 2.266 . S
O463 C460 1.252 . S
O464 In455 2.326 . S
O464 C460 1.260 . S
C465 O456 1.240 . S
C465 O457 1.252 . S
O466 In455 2.294 . S
O466 C459 1.240 . S
O467 In455 2.326 . S
O467 C459 1.252 . S
H468 C480 0.930 . S
H469 C482 0.930 . S
H470 C483 0.930 . S
H471 C487 0.959 . S
H472 C487 0.959 . S
H473 C487 0.961 . S
H474 C488 0.960 . S
H475 C488 0.961 . S
H476 C488 0.959 . S
H477 C491 0.929 . S
H478 C492 0.931 . S
H479 C494 0.930 . S
C480 H468 0.930 . S
C480 C481 1.399 . S
C480 C485 1.399 . S
C481 C480 1.399 . S
C481 C482 1.376 . S
C482 H469 0.930 . S
C482 C481 1.376 . S
C482 C483 1.388 . S
C483 H470 0.930 . S
C483 C482 1.388 . S
C483 C484 1.390 . S
C484 C483 1.390 . S
C484 C485 1.394 . S
C484 C490 1.465 . S
C485 C480 1.399 . S
C485 C484 1.394 . S
C485 C486 1.516 . S
C486 C485 1.516 . S
C486 C487 1.502 . S
C486 C488 1.561 . S
C486 C489 1.526 . S
C487 H471 0.959 . S
C487 H472 0.959 . S
C487 H473 0.961 . S
C487 C486 1.502 . S
C488 H474 0.960 . S
C488 H475 0.961 . S
C488 H476 0.959 . S
C488 C486 1.561 . S
C489 C486 1.526 . S
C489 C490 1.396 . S
C489 C494 1.390 . S
C490 C484 1.465 . S
C490 C489 1.396 . S
C490 C491 1.399 . S
C491 H477 0.929 . S
C491 C490 1.399 . S
C491 C492 1.385 . S
C492 H478 0.931 . S
C492 C491 1.385 . S
C492 C493 1.389 . S
C493 C492 1.389 . S
C493 C494 1.387 . S
C494 H479 0.930 . S
C494 C489 1.390 . S
C494 C493 1.387 . S
H495 C507 0.930 . S
H496 C509 0.930 . S
H497 C510 0.930 . S
H498 C514 0.959 . S
H499 C514 0.959 . S
H500 C514 0.961 . S
H501 C515 0.960 . S
H502 C515 0.961 . S
H503 C515 0.959 . S
H504 C518 0.929 . S
H505 C519 0.931 . S
H506 C521 0.930 . S
C507 H495 0.930 . S
C507 C508 1.399 . S
C507 C512 1.399 . S
C508 C507 1.399 . S
C508 C509 1.376 . S
C509 H496 0.930 . S
C509 C508 1.376 . S
C509 C510 1.388 . S
C510 H497 0.930 . S
C510 C509 1.388 . S
C510 C511 1.390 . S
C511 C510 1.390 . S
C511 C512 1.394 . S
C511 C517 1.465 . S
C512 C507 1.399 . S
C512 C511 1.394 . S
C512 C513 1.516 . S
C513 C512 1.516 . S
C513 C514 1.502 . S
C513 C515 1.561 . S
C513 C516 1.526 . S
C514 H498 0.959 . S
C514 H499 0.959 . S
C514 H500 0.961 . S
C514 C513 1.502 . S
C515 H501 0.960 . S
C515 H502 0.961 . S
C515 H503 0.959 . S
C515 C513 1.561 . S
C516 C513 1.526 . S
C516 C517 1.396 . S
C516 C521 1.390 . S
C517 C511 1.465 . S
C517 C516 1.396 . S
C517 C518 1.399 . S
C518 H504 0.929 . S
C518 C517 1.399 . S
C518 C519 1.385 . S
C519 H505 0.931 . S
C519 C518 1.385 . S
C519 C520 1.389 . S
C520 C519 1.389 . S
C520 C521 1.387 . S
C521 H506 0.930 . S
C521 C516 1.390 . S
C521 C520 1.387 . S
H522 C534 0.930 . S
H523 C536 0.930 . S
H524 C537 0.930 . S
H525 C541 0.959 . S
H526 C541 0.959 . S
H527 C541 0.961 . S
H528 C542 0.960 . S
H529 C542 0.961 . S
H530 C542 0.959 . S
H531 C545 0.929 . S
H532 C546 0.931 . S
H533 C548 0.930 . S
C534 H522 0.930 . S
C534 C535 1.399 . S
C534 C539 1.399 . S
C535 C534 1.399 . S
C535 C536 1.376 . S
C536 H523 0.930 . S
C536 C535 1.376 . S
C536 C537 1.388 . S
C537 H524 0.930 . S
C537 C536 1.388 . S
C537 C538 1.390 . S
C538 C537 1.390 . S
C538 C539 1.394 . S
C538 C544 1.465 . S
C539 C534 1.399 . S
C539 C538 1.394 . S
C539 C540 1.516 . S
C540 C539 1.516 . S
C540 C541 1.502 . S
C540 C542 1.561 . S
C540 C543 1.526 . S
C541 H525 0.959 . S
C541 H526 0.959 . S
C541 H527 0.961 . S
C541 C540 1.502 . S
C542 H528 0.960 . S
C542 H529 0.961 . S
C542 H530 0.959 . S
C542 C540 1.561 . S
C543 C540 1.526 . S
C543 C544 1.396 . S
C543 C548 1.390 . S
C544 C538 1.465 . S
C544 C543 1.396 . S
C544 C545 1.399 . S
C545 H531 0.929 . S
C545 C544 1.399 . S
C545 C546 1.385 . S
C546 H532 0.931 . S
C546 C545 1.385 . S
C546 C547 1.389 . S
C547 C546 1.389 . S
C547 C548 1.387 . S
C548 H533 0.930 . S
C548 C543 1.390 . S
C548 C547 1.387 . S
H549 C561 0.930 . S
H550 C563 0.930 . S
H551 C564 0.930 . S
H552 C568 0.959 . S
H553 C568 0.959 . S
H554 C568 0.961 . S
H555 C569 0.960 . S
H556 C569 0.961 . S
H557 C569 0.959 . S
H558 C572 0.929 . S
H559 C573 0.931 . S
H560 C575 0.930 . S
C561 H549 0.930 . S
C561 C562 1.399 . S
C561 C566 1.399 . S
C562 C561 1.399 . S
C562 C563 1.376 . S
C563 H550 0.930 . S
C563 C562 1.376 . S
C563 C564 1.388 . S
C564 H551 0.930 . S
C564 C563 1.388 . S
C564 C565 1.390 . S
C565 C564 1.390 . S
C565 C566 1.394 . S
C565 C571 1.465 . S
C566 C561 1.399 . S
C566 C565 1.394 . S
C566 C567 1.516 . S
C567 C566 1.516 . S
C567 C568 1.502 . S
C567 C569 1.561 . S
C567 C570 1.526 . S
C568 H552 0.959 . S
C568 H553 0.959 . S
C568 H554 0.961 . S
C568 C567 1.502 . S
C569 H555 0.960 . S
C569 H556 0.961 . S
C569 H557 0.959 . S
C569 C567 1.561 . S
C570 C567 1.526 . S
C570 C571 1.396 . S
C570 C575 1.390 . S
C571 C565 1.465 . S
C571 C570 1.396 . S
C571 C572 1.399 . S
C572 H558 0.929 . S
C572 C571 1.399 . S
C572 C573 1.385 . S
C573 H559 0.931 . S
C573 C572 1.385 . S
C573 C574 1.389 . S
C574 C573 1.389 . S
C574 C575 1.387 . S
C575 H560 0.930 . S
C575 C570 1.390 . S
C575 C574 1.387 . S
H576 C588 0.930 . S
H577 C590 0.930 . S
H578 C591 0.930 . S
H579 C595 0.959 . S
H580 C595 0.959 1_554 S
H581 C595 0.963 . S
H582 C596 0.960 . S
H583 C596 0.961 . S
H584 C596 0.959 1_556 S
H585 C599 0.929 . S
H586 C600 0.931 . S
H587 C602 0.930 . S
C588 H576 0.930 . S
C588 C589 1.399 . S
C588 C593 1.399 . S
C589 C588 1.399 . S
C589 C590 1.376 . S
C590 H577 0.930 . S
C590 C589 1.376 . S
C590 C591 1.388 . S
C591 H578 0.930 . S
C591 C590 1.388 . S
C591 C592 1.390 . S
C592 C591 1.390 . S
C592 C593 1.394 . S
C592 C598 1.465 . S
C593 C588 1.399 . S
C593 C592 1.394 . S
C593 C594 1.516 . S
C594 C593 1.516 . S
C594 C595 1.502 . S
C594 C596 1.561 1_556 S
C594 C597 1.526 . S
C595 H579 0.959 . S
C595 H580 0.959 1_556 S
C595 H581 0.963 . S
C595 C594 1.502 . S
C596 H582 0.960 . S
C596 H583 0.961 . S
C596 H584 0.959 1_554 S
C596 C594 1.561 1_554 S
C597 C594 1.526 . S
C597 C598 1.396 . S
C597 C602 1.390 . S
C598 C592 1.465 . S
C598 C597 1.396 . S
C598 C599 1.399 . S
C599 H585 0.929 . S
C599 C598 1.399 . S
C599 C600 1.385 . S
C600 H586 0.931 . S
C600 C599 1.385 . S
C600 C601 1.389 . S
C601 C600 1.389 . S
C601 C602 1.387 . S
C602 H587 0.930 . S
C602 C597 1.390 . S
C602 C601 1.387 . S
H603 C615 0.930 . S
H604 C617 0.930 . S
H605 C618 0.930 . S
H606 C622 0.959 . S
H607 C622 0.959 . S
H608 C622 0.961 . S
H609 C623 0.960 . S
H610 C623 0.961 . S
H611 C623 0.959 . S
H612 C626 0.929 . S
H613 C627 0.931 . S
H614 C629 0.930 . S
C615 H603 0.930 . S
C615 C616 1.399 . S
C615 C620 1.399 . S
C616 C615 1.399 . S
C616 C617 1.376 . S
C617 H604 0.930 . S
C617 C616 1.376 . S
C617 C618 1.388 . S
C618 H605 0.930 . S
C618 C617 1.388 . S
C618 C619 1.390 . S
C619 C618 1.390 . S
C619 C620 1.394 . S
C619 C625 1.465 . S
C620 C615 1.399 . S
C620 C619 1.394 . S
C620 C621 1.516 . S
C621 C620 1.516 . S
C621 C622 1.502 . S
C621 C623 1.561 . S
C621 C624 1.526 . S
C622 H606 0.959 . S
C622 H607 0.959 . S
C622 H608 0.961 . S
C622 C621 1.502 . S
C623 H609 0.960 . S
C623 H610 0.961 . S
C623 H611 0.959 . S
C623 C621 1.561 . S
C624 C621 1.526 . S
C624 C625 1.396 . S
C624 C629 1.390 . S
C625 C619 1.465 . S
C625 C624 1.396 . S
C625 C626 1.399 . S
C626 H612 0.929 . S
C626 C625 1.399 . S
C626 C627 1.385 . S
C627 H613 0.931 . S
C627 C626 1.385 . S
C627 C628 1.389 . S
C628 C627 1.389 . S
C628 C629 1.387 . S
C629 H614 0.930 . S
C629 C624 1.390 . S
C629 C628 1.387 . S
H630 C642 0.930 . S
H631 C644 0.930 . S
H632 C645 0.930 . S
H633 C649 0.959 . S
H634 C649 0.959 . S
H635 C649 0.961 . S
H636 C650 0.960 . S
H637 C650 0.961 . S
H638 C650 0.959 . S
H639 C653 0.929 . S
H640 C654 0.931 . S
H641 C656 0.930 . S
C642 H630 0.930 . S
C642 C643 1.399 . S
C642 C647 1.399 . S
C643 C642 1.399 . S
C643 C644 1.376 . S
C644 H631 0.930 . S
C644 C643 1.376 . S
C644 C645 1.388 . S
C645 H632 0.930 . S
C645 C644 1.388 . S
C645 C646 1.390 . S
C646 C645 1.390 . S
C646 C647 1.394 . S
C646 C652 1.465 . S
C647 C642 1.399 . S
C647 C646 1.394 . S
C647 C648 1.516 . S
C648 C647 1.516 . S
C648 C649 1.502 . S
C648 C650 1.561 . S
C648 C651 1.526 . S
C649 H633 0.959 . S
C649 H634 0.959 . S
C649 H635 0.961 . S
C649 C648 1.502 . S
C650 H636 0.960 . S
C650 H637 0.961 . S
C650 H638 0.959 . S
C650 C648 1.561 . S
C651 C648 1.526 . S
C651 C652 1.396 . S
C651 C656 1.390 . S
C652 C646 1.465 . S
C652 C651 1.396 . S
C652 C653 1.399 . S
C653 H639 0.929 . S
C653 C652 1.399 . S
C653 C654 1.385 . S
C654 H640 0.931 . S
C654 C653 1.385 . S
C654 C655 1.389 . S
C655 C654 1.389 . S
C655 C656 1.387 . S
C656 H641 0.930 . S
C656 C651 1.390 . S
C656 C655 1.387 . S
H657 C669 0.930 . S
H658 C671 0.930 . S
H659 C672 0.930 . S
H660 C676 0.959 . S
H661 C676 0.959 . S
H662 C676 0.961 . S
H663 C677 0.960 . S
H664 C677 0.961 . S
H665 C677 0.959 . S
H666 C680 0.929 . S
H667 C681 0.931 . S
H668 C683 0.930 . S
C669 H657 0.930 . S
C669 C670 1.399 . S
C669 C674 1.399 . S
C670 C669 1.399 . S
C670 C671 1.376 . S
C671 H658 0.930 . S
C671 C670 1.376 . S
C671 C672 1.388 . S
C672 H659 0.930 . S
C672 C671 1.388 . S
C672 C673 1.390 . S
C673 C672 1.390 . S
C673 C674 1.394 . S
C673 C679 1.465 . S
C674 C669 1.399 . S
C674 C673 1.394 . S
C674 C675 1.516 . S
C675 C674 1.516 . S
C675 C676 1.502 . S
C675 C677 1.561 . S
C675 C678 1.526 . S
C676 H660 0.959 . S
C676 H661 0.959 . S
C676 H662 0.961 . S
C676 C675 1.502 . S
C677 H663 0.960 . S
C677 H664 0.961 . S
C677 H665 0.959 . S
C677 C675 1.561 . S
C678 C675 1.526 . S
C678 C679 1.396 . S
C678 C683 1.390 . S
C679 C673 1.465 . S
C679 C678 1.396 . S
C679 C680 1.399 . S
C680 H666 0.929 . S
C680 C679 1.399 . S
C680 C681 1.385 . S
C681 H667 0.931 . S
C681 C680 1.385 . S
C681 C682 1.389 . S
C682 C681 1.389 . S
C682 C683 1.387 . S
C683 H668 0.930 . S
C683 C678 1.390 . S
C683 C682 1.387 . S
H684 C696 0.930 . S
H685 C698 0.930 . S
H686 C699 0.930 . S
H687 C703 0.959 . S
H688 C703 0.959 . S
H689 C703 0.961 . S
H690 C704 0.960 . S
H691 C704 0.961 . S
H692 C704 0.959 . S
H693 C707 0.929 . S
H694 C708 0.931 . S
H695 C710 0.930 . S
C696 H684 0.930 . S
C696 C697 1.399 . S
C696 C701 1.399 . S
C697 C696 1.399 . S
C697 C698 1.376 . S
C698 H685 0.930 . S
C698 C697 1.376 . S
C698 C699 1.388 . S
C699 H686 0.930 . S
C699 C698 1.388 . S
C699 C700 1.390 . S
C700 C699 1.390 . S
C700 C701 1.394 . S
C700 C706 1.465 . S
C701 C696 1.399 . S
C701 C700 1.394 . S
C701 C702 1.516 . S
C702 C701 1.516 . S
C702 C703 1.502 . S
C702 C704 1.561 . S
C702 C705 1.526 . S
C703 H687 0.959 . S
C703 H688 0.959 . S
C703 H689 0.961 . S
C703 C702 1.502 . S
C704 H690 0.960 . S
C704 H691 0.961 . S
C704 H692 0.959 . S
C704 C702 1.561 . S
C705 C702 1.526 . S
C705 C706 1.396 . S
C705 C710 1.390 . S
C706 C700 1.465 . S
C706 C705 1.396 . S
C706 C707 1.399 . S
C707 H693 0.929 . S
C707 C706 1.399 . S
C707 C708 1.385 . S
C708 H694 0.931 . S
C708 C707 1.385 . S
C708 C709 1.389 . S
C709 C708 1.389 . S
C709 C710 1.387 . S
C710 H695 0.930 . S
C710 C705 1.390 . S
C710 C709 1.387 . S
H711 C723 0.930 . S
H712 C725 0.930 . S
H713 C726 0.930 . S
H714 C730 0.959 . S
H715 C730 0.959 . S
H716 C730 0.961 . S
H717 C731 0.960 . S
H718 C731 0.961 . S
H719 C731 0.959 . S
H720 C734 0.929 . S
H721 C735 0.931 . S
H722 C737 0.930 . S
C723 H711 0.930 . S
C723 C724 1.399 . S
C723 C728 1.399 . S
C724 C723 1.399 . S
C724 C725 1.376 . S
C725 H712 0.930 . S
C725 C724 1.376 . S
C725 C726 1.388 . S
C726 H713 0.930 . S
C726 C725 1.388 . S
C726 C727 1.390 . S
C727 C726 1.390 . S
C727 C728 1.394 . S
C727 C733 1.465 . S
C728 C723 1.399 . S
C728 C727 1.394 . S
C728 C729 1.516 . S
C729 C728 1.516 . S
C729 C730 1.502 . S
C729 C731 1.561 . S
C729 C732 1.526 . S
C730 H714 0.959 . S
C730 H715 0.959 . S
C730 H716 0.961 . S
C730 C729 1.502 . S
C731 H717 0.960 . S
C731 H718 0.961 . S
C731 H719 0.959 . S
C731 C729 1.561 . S
C732 C729 1.526 . S
C732 C733 1.396 . S
C732 C737 1.390 . S
C733 C727 1.465 . S
C733 C732 1.396 . S
C733 C734 1.399 . S
C734 H720 0.929 . S
C734 C733 1.399 . S
C734 C735 1.385 . S
C735 H721 0.931 . S
C735 C734 1.385 . S
C735 C736 1.389 . S
C736 C735 1.389 . S
C736 C737 1.387 . S
C737 H722 0.930 . S
C737 C732 1.390 . S
C737 C736 1.387 . S
H738 C750 0.930 . S
H739 C752 0.930 . S
H740 C753 0.930 . S
H741 C757 0.959 . S
H742 C757 0.959 . S
H743 C757 0.961 . S
H744 C758 0.960 . S
H745 C758 0.961 . S
H746 C758 0.959 . S
H747 C761 0.929 . S
H748 C762 0.931 . S
H749 C764 0.930 . S
C750 H738 0.930 . S
C750 C751 1.399 . S
C750 C755 1.399 . S
C751 C750 1.399 . S
C751 C752 1.376 . S
C752 H739 0.930 . S
C752 C751 1.376 . S
C752 C753 1.388 . S
C753 H740 0.930 . S
C753 C752 1.388 . S
C753 C754 1.390 . S
C754 C753 1.390 . S
C754 C755 1.394 . S
C754 C760 1.465 . S
C755 C750 1.399 . S
C755 C754 1.394 . S
C755 C756 1.516 . S
C756 C755 1.516 . S
C756 C757 1.502 . S
C756 C758 1.561 . S
C756 C759 1.526 . S
C757 H741 0.959 . S
C757 H742 0.959 . S
C757 H743 0.961 . S
C757 C756 1.502 . S
C758 H744 0.960 . S
C758 H745 0.961 . S
C758 H746 0.959 . S
C758 C756 1.561 . S
C759 C756 1.526 . S
C759 C760 1.396 . S
C759 C764 1.390 . S
C760 C754 1.465 . S
C760 C759 1.396 . S
C760 C761 1.399 . S
C761 H747 0.929 . S
C761 C760 1.399 . S
C761 C762 1.385 . S
C762 H748 0.931 . S
C762 C761 1.385 . S
C762 C763 1.389 . S
C763 C762 1.389 . S
C763 C764 1.387 . S
C764 H749 0.930 . S
C764 C759 1.390 . S
C764 C763 1.387 . S
H765 C777 0.930 . S
H766 C779 0.930 . S
H767 C780 0.930 . S
H768 C784 0.959 . S
H769 C784 0.959 . S
H770 C784 0.961 . S
H771 C785 0.960 . S
H772 C785 0.961 . S
H773 C785 0.959 . S
H774 C788 0.929 . S
H775 C789 0.931 . S
H776 C791 0.930 . S
C777 H765 0.930 . S
C777 C778 1.399 . S
C777 C782 1.399 . S
C778 C777 1.399 . S
C778 C779 1.376 . S
C779 H766 0.930 . S
C779 C778 1.376 . S
C779 C780 1.388 . S
C780 H767 0.930 . S
C780 C779 1.388 . S
C780 C781 1.390 . S
C781 C780 1.390 . S
C781 C782 1.394 . S
C781 C787 1.465 . S
C782 C777 1.399 . S
C782 C781 1.394 . S
C782 C783 1.516 . S
C783 C782 1.516 . S
C783 C784 1.502 . S
C783 C785 1.561 . S
C783 C786 1.526 . S
C784 H768 0.959 . S
C784 H769 0.959 . S
C784 H770 0.961 . S
C784 C783 1.502 . S
C785 H771 0.960 . S
C785 H772 0.961 . S
C785 H773 0.959 . S
C785 C783 1.561 . S
C786 C783 1.526 . S
C786 C787 1.396 . S
C786 C791 1.390 . S
C787 C781 1.465 . S
C787 C786 1.396 . S
C787 C788 1.399 . S
C788 H774 0.929 . S
C788 C787 1.399 . S
C788 C789 1.385 . S
C789 H775 0.931 . S
C789 C788 1.385 . S
C789 C790 1.389 . S
C790 C789 1.389 . S
C790 C791 1.387 . S
C791 H776 0.930 . S
C791 C786 1.390 . S
C791 C790 1.387 . S
H792 C804 0.930 . S
H793 C806 0.930 . S
H794 C807 0.930 . S
H795 C811 0.959 . S
H796 C811 0.959 . S
H797 C811 0.961 . S
H798 C812 0.960 . S
H799 C812 0.961 . S
H800 C812 0.959 . S
H801 C815 0.929 . S
H802 C816 0.931 . S
H803 C818 0.930 . S
C804 H792 0.930 . S
C804 C805 1.399 . S
C804 C809 1.399 . S
C805 C804 1.399 . S
C805 C806 1.376 . S
C806 H793 0.930 . S
C806 C805 1.376 . S
C806 C807 1.388 . S
C807 H794 0.930 . S
C807 C806 1.388 . S
C807 C808 1.390 . S
C808 C807 1.390 . S
C808 C809 1.394 . S
C808 C814 1.465 . S
C809 C804 1.399 . S
C809 C808 1.394 . S
C809 C810 1.516 . S
C810 C809 1.516 . S
C810 C811 1.502 . S
C810 C812 1.561 . S
C810 C813 1.526 . S
C811 H795 0.959 . S
C811 H796 0.959 . S
C811 H797 0.961 . S
C811 C810 1.502 . S
C812 H798 0.960 . S
C812 H799 0.961 . S
C812 H800 0.959 . S
C812 C810 1.561 . S
C813 C810 1.526 . S
C813 C814 1.396 . S
C813 C818 1.390 . S
C814 C808 1.465 . S
C814 C813 1.396 . S
C814 C815 1.399 . S
C815 H801 0.929 . S
C815 C814 1.399 . S
C815 C816 1.385 . S
C816 H802 0.931 . S
C816 C815 1.385 . S
C816 C817 1.389 . S
C817 C816 1.389 . S
C817 C818 1.387 . S
C818 H803 0.930 . S
C818 C813 1.390 . S
C818 C817 1.387 . S
H819 C831 0.930 . S
H820 C833 0.930 . S
H821 C834 0.930 . S
H822 C838 0.959 . S
H823 C838 0.959 . S
H824 C838 0.961 . S
H825 C839 0.960 . S
H826 C839 0.961 . S
H827 C839 0.959 . S
H828 C842 0.929 . S
H829 C843 0.931 . S
H830 C845 0.930 . S
C831 H819 0.930 . S
C831 C832 1.399 . S
C831 C836 1.399 . S
C832 C831 1.399 . S
C832 C833 1.376 . S
C833 H820 0.930 . S
C833 C832 1.376 . S
C833 C834 1.388 . S
C834 H821 0.930 . S
C834 C833 1.388 . S
C834 C835 1.390 . S
C835 C834 1.390 . S
C835 C836 1.394 . S
C835 C841 1.465 . S
C836 C831 1.399 . S
C836 C835 1.394 . S
C836 C837 1.516 . S
C837 C836 1.516 . S
C837 C838 1.502 . S
C837 C839 1.561 . S
C837 C840 1.526 . S
C838 H822 0.959 . S
C838 H823 0.959 . S
C838 H824 0.961 . S
C838 C837 1.502 . S
C839 H825 0.960 . S
C839 H826 0.961 . S
C839 H827 0.959 . S
C839 C837 1.561 . S
C840 C837 1.526 . S
C840 C841 1.396 . S
C840 C845 1.390 . S
C841 C835 1.465 . S
C841 C840 1.396 . S
C841 C842 1.399 . S
C842 H828 0.929 . S
C842 C841 1.399 . S
C842 C843 1.385 . S
C843 H829 0.931 . S
C843 C842 1.385 . S
C843 C844 1.389 . S
C844 C843 1.389 . S
C844 C845 1.387 . S
C845 H830 0.930 . S
C845 C840 1.390 . S
C845 C844 1.387 . S
H846 C858 0.930 . S
H847 C860 0.930 . S
H848 C861 0.930 . S
H849 C865 0.959 . S
H850 C865 0.959 . S
H851 C865 0.961 . S
H852 C866 0.960 . S
H853 C866 0.961 . S
H854 C866 0.959 . S
H855 C869 0.929 . S
H856 C870 0.931 . S
H857 C872 0.930 . S
C858 H846 0.930 . S
C858 C859 1.399 . S
C858 C863 1.399 . S
C859 C858 1.399 . S
C859 C860 1.376 . S
C860 H847 0.930 . S
C860 C859 1.376 . S
C860 C861 1.388 . S
C861 H848 0.930 . S
C861 C860 1.388 . S
C861 C862 1.390 . S
C862 C861 1.390 . S
C862 C863 1.394 . S
C862 C868 1.465 . S
C863 C858 1.399 . S
C863 C862 1.394 . S
C863 C864 1.516 . S
C864 C863 1.516 . S
C864 C865 1.502 . S
C864 C866 1.561 . S
C864 C867 1.526 . S
C865 H849 0.959 . S
C865 H850 0.959 . S
C865 H851 0.961 . S
C865 C864 1.502 . S
C866 H852 0.960 . S
C866 H853 0.961 . S
C866 H854 0.959 . S
C866 C864 1.561 . S
C867 C864 1.526 . S
C867 C868 1.396 . S
C867 C872 1.390 . S
C868 C862 1.465 . S
C868 C867 1.396 . S
C868 C869 1.399 . S
C869 H855 0.929 . S
C869 C868 1.399 . S
C869 C870 1.385 . S
C870 H856 0.931 . S
C870 C869 1.385 . S
C870 C871 1.389 . S
C871 C870 1.389 . S
C871 C872 1.387 . S
C872 H857 0.930 . S
C872 C867 1.390 . S
C872 C871 1.387 . S
H873 C885 0.930 . S
H874 C887 0.930 . S
H875 C888 0.930 . S
H876 C892 0.959 . S
H877 C892 0.959 . S
H878 C892 0.961 . S
H879 C893 0.960 . S
H880 C893 0.961 . S
H881 C893 0.959 . S
H882 C896 0.929 . S
H883 C897 0.931 . S
H884 C899 0.930 . S
C885 H873 0.930 . S
C885 C886 1.399 . S
C885 C890 1.399 . S
C886 C885 1.399 . S
C886 C887 1.376 . S
C887 H874 0.930 . S
C887 C886 1.376 . S
C887 C888 1.388 . S
C888 H875 0.930 . S
C888 C887 1.388 . S
C888 C889 1.390 . S
C889 C888 1.390 . S
C889 C890 1.394 . S
C889 C895 1.465 . S
C890 C885 1.399 . S
C890 C889 1.394 . S
C890 C891 1.516 . S
C891 C890 1.516 . S
C891 C892 1.502 . S
C891 C893 1.561 . S
C891 C894 1.526 . S
C892 H876 0.959 . S
C892 H877 0.959 . S
C892 H878 0.961 . S
C892 C891 1.502 . S
C893 H879 0.960 . S
C893 H880 0.961 . S
C893 H881 0.959 . S
C893 C891 1.561 . S
C894 C891 1.526 . S
C894 C895 1.396 . S
C894 C899 1.390 . S
C895 C889 1.465 . S
C895 C894 1.396 . S
C895 C896 1.399 . S
C896 H882 0.929 . S
C896 C895 1.399 . S
C896 C897 1.385 . S
C897 H883 0.931 . S
C897 C896 1.385 . S
C897 C898 1.389 . S
C898 C897 1.389 . S
C898 C899 1.387 . S
C899 H884 0.930 . S
C899 C894 1.390 . S
C899 C898 1.387 . S
H900 C912 0.930 . S
H901 C914 0.930 . S
H902 C915 0.930 . S
H903 C919 0.959 . S
H904 C919 0.959 . S
H905 C919 0.961 . S
H906 C920 0.960 . S
H907 C920 0.961 . S
H908 C920 0.959 . S
H909 C923 0.929 . S
H910 C924 0.931 . S
H911 C926 0.930 . S
C912 H900 0.930 . S
C912 C913 1.399 . S
C912 C917 1.399 . S
C913 C912 1.399 . S
C913 C914 1.376 . S
C914 H901 0.930 . S
C914 C913 1.376 . S
C914 C915 1.388 . S
C915 H902 0.930 . S
C915 C914 1.388 . S
C915 C916 1.390 . S
C916 C915 1.390 . S
C916 C917 1.394 . S
C916 C922 1.465 . S
C917 C912 1.399 . S
C917 C916 1.394 . S
C917 C918 1.516 . S
C918 C917 1.516 . S
C918 C919 1.502 . S
C918 C920 1.561 . S
C918 C921 1.526 . S
C919 H903 0.959 . S
C919 H904 0.959 . S
C919 H905 0.961 . S
C919 C918 1.502 . S
C920 H906 0.960 . S
C920 H907 0.961 . S
C920 H908 0.959 . S
C920 C918 1.561 . S
C921 C918 1.526 . S
C921 C922 1.396 . S
C921 C926 1.390 . S
C922 C916 1.465 . S
C922 C921 1.396 . S
C922 C923 1.399 . S
C923 H909 0.929 . S
C923 C922 1.399 . S
C923 C924 1.385 . S
C924 H910 0.931 . S
C924 C923 1.385 . S
C924 C925 1.389 . S
C925 C924 1.389 . S
C925 C926 1.387 . S
C926 H911 0.930 . S
C926 C921 1.390 . S
C926 C925 1.387 . S
H927 C939 0.930 . S
H928 C941 0.930 . S
H929 C942 0.930 . S
H930 C946 0.959 . S
H931 C946 0.959 . S
H932 C946 0.961 . S
H933 C947 0.960 . S
H934 C947 0.961 . S
H935 C947 0.959 . S
H936 C950 0.929 . S
H937 C951 0.931 . S
H938 C953 0.930 . S
C939 H927 0.930 . S
C939 C940 1.399 . S
C939 C944 1.399 . S
C940 C939 1.399 . S
C940 C941 1.376 . S
C941 H928 0.930 . S
C941 C940 1.376 . S
C941 C942 1.388 . S
C942 H929 0.930 . S
C942 C941 1.388 . S
C942 C943 1.390 . S
C943 C942 1.390 . S
C943 C944 1.394 . S
C943 C949 1.465 . S
C944 C939 1.399 . S
C944 C943 1.394 . S
C944 C945 1.516 . S
C945 C944 1.516 . S
C945 C946 1.502 . S
C945 C947 1.561 . S
C945 C948 1.526 . S
C946 H930 0.959 . S
C946 H931 0.959 . S
C946 H932 0.961 . S
C946 C945 1.502 . S
C947 H933 0.960 . S
C947 H934 0.961 . S
C947 H935 0.959 . S
C947 C945 1.561 . S
C948 C945 1.526 . S
C948 C949 1.396 . S
C948 C953 1.390 . S
C949 C943 1.465 . S
C949 C948 1.396 . S
C949 C950 1.399 . S
C950 H936 0.929 . S
C950 C949 1.399 . S
C950 C951 1.385 . S
C951 H937 0.931 . S
C951 C950 1.385 . S
C951 C952 1.389 . S
C952 C951 1.389 . S
C952 C953 1.387 . S
C953 H938 0.930 . S
C953 C948 1.390 . S
C953 C952 1.387 . S
H954 C966 0.930 . S
H955 C968 0.930 . S
H956 C969 0.930 . S
H957 C973 0.959 . S
H958 C973 0.959 . S
H959 C973 0.961 . S
H960 C974 0.960 . S
H961 C974 0.961 . S
H962 C974 0.959 . S
H963 C977 0.929 . S
H964 C978 0.931 . S
H965 C980 0.930 1_554 S
C966 H954 0.930 . S
C966 C967 1.399 . S
C966 C971 1.399 . S
C967 C966 1.399 . S
C967 C968 1.376 1_554 S
C968 H955 0.930 . S
C968 C967 1.376 1_556 S
C968 C969 1.388 . S
C969 H956 0.930 . S
C969 C968 1.388 . S
C969 C970 1.390 . S
C970 C969 1.390 . S
C970 C971 1.394 1_556 S
C970 C976 1.465 1_455 S
C971 C966 1.399 . S
C971 C970 1.394 1_554 S
C971 C972 1.516 1_455 S
C972 C971 1.516 1_655 S
C972 C973 1.502 . S
C972 C974 1.561 . S
C972 C975 1.526 . S
C973 H957 0.959 . S
C973 H958 0.959 . S
C973 H959 0.961 . S
C973 C972 1.502 . S
C974 H960 0.960 . S
C974 H961 0.961 . S
C974 H962 0.959 . S
C974 C972 1.561 . S
C975 C972 1.526 . S
C975 C976 1.396 1_554 S
C975 C980 1.390 1_554 S
C976 C970 1.465 1_655 S
C976 C975 1.396 1_556 S
C976 C977 1.399 . S
C977 H963 0.929 . S
C977 C976 1.399 . S
C977 C978 1.385 . S
C978 H964 0.931 . S
C978 C977 1.385 . S
C978 C979 1.389 . S
C979 C978 1.389 . S
C979 C980 1.387 . S
C980 H965 0.930 1_556 S
C980 C975 1.390 1_556 S
C980 C979 1.387 . S
H981 C993 0.930 . S
H982 C995 0.930 . S
H983 C996 0.930 . S
H984 C1000 0.959 . S
H985 C1000 0.959 . S
H986 C1000 0.961 1_556 S
H987 C1001 0.960 . S
H988 C1001 0.961 . S
H989 C1001 0.959 . S
H990 C1004 0.929 . S
H991 C1005 0.931 . S
H992 C1007 0.930 . S
C993 H981 0.930 . S
C993 C994 1.399 . S
C993 C998 1.399 . S
C994 C993 1.399 . S
C994 C995 1.376 . S
C995 H982 0.930 . S
C995 C994 1.376 . S
C995 C996 1.388 . S
C996 H983 0.930 . S
C996 C995 1.388 . S
C996 C997 1.390 . S
C997 C996 1.390 . S
C997 C998 1.394 . S
C997 C1003 1.465 1_556 S
C998 C993 1.399 . S
C998 C997 1.394 . S
C998 C999 1.516 . S
C999 C998 1.516 . S
C999 C1000 1.502 1_556 S
C999 C1001 1.561 . S
C999 C1002 1.526 1_556 S
C1000 H984 0.959 . S
C1000 H985 0.959 . S
C1000 H986 0.961 1_554 S
C1000 C999 1.502 1_554 S
C1001 H987 0.960 . S
C1001 H988 0.961 . S
C1001 H989 0.959 . S
C1001 C999 1.561 . S
C1002 C999 1.526 1_554 S
C1002 C1003 1.396 . S
C1002 C1007 1.390 . S
C1003 C997 1.465 1_554 S
C1003 C1002 1.396 . S
C1003 C1004 1.399 . S
C1004 H990 0.929 . S
C1004 C1003 1.399 . S
C1004 C1005 1.385 . S
C1005 H991 0.931 . S
C1005 C1004 1.385 . S
C1005 C1006 1.389 . S
C1006 C1005 1.389 . S
C1006 C1007 1.387 . S
C1007 H992 0.930 . S
C1007 C1002 1.390 . S
C1007 C1006 1.387 . S
H1008 C1020 0.930 1_556 S
H1009 C1022 0.930 . S
H1010 C1023 0.930 . S
H1011 C1027 0.959 . S
H1012 C1027 0.989 . S
H1013 C1027 0.961 . S
H1014 C1028 0.960 . S
H1015 C1028 0.961 . S
H1016 C1028 0.959 . S
H1017 C1031 0.929 . S
H1018 C1032 0.931 1_554 S
H1019 C1034 0.930 . S
C1020 H1008 0.930 1_554 S
C1020 C1021 1.399 . S
C1020 C1025 1.399 1_554 S
C1021 C1020 1.399 . S
C1021 C1022 1.376 . S
C1022 H1009 0.930 . S
C1022 C1021 1.376 . S
C1022 C1023 1.388 . S
C1023 H1010 0.930 . S
C1023 C1022 1.388 . S
C1023 C1024 1.390 . S
C1024 C1023 1.390 . S
C1024 C1025 1.394 1_554 S
C1024 C1030 1.465 1_565 S
C1025 C1020 1.399 1_556 S
C1025 C1024 1.394 1_556 S
C1025 C1026 1.516 . S
C1026 C1025 1.516 . S
C1026 C1027 1.502 . S
C1026 C1028 1.561 . S
C1026 C1029 1.526 1_565 S
C1027 H1011 0.959 . S
C1027 H1012 0.989 . S
C1027 H1013 0.961 . S
C1027 C1026 1.502 . S
C1028 H1014 0.960 . S
C1028 H1015 0.961 . S
C1028 H1016 0.959 . S
C1028 C1026 1.561 . S
C1029 C1026 1.526 1_545 S
C1029 C1030 1.396 1_556 S
C1029 C1034 1.390 . S
C1030 C1024 1.465 1_545 S
C1030 C1029 1.396 1_554 S
C1030 C1031 1.399 . S
C1031 H1017 0.929 . S
C1031 C1030 1.399 . S
C1031 C1032 1.385 1_554 S
C1032 H1018 0.931 1_556 S
C1032 C1031 1.385 1_556 S
C1032 C1033 1.389 . S
C1033 C1032 1.389 . S
C1033 C1034 1.387 . S
C1034 H1019 0.930 . S
C1034 C1029 1.390 . S
C1034 C1033 1.387 . S
H1035 C1047 0.930 . S
H1036 C1049 0.930 . S
H1037 C1050 0.930 . S
H1038 C1054 0.959 . S
H1039 C1054 0.959 . S
H1040 C1054 0.961 . S
H1041 C1055 0.960 1_655 S
H1042 C1055 0.961 . S
H1043 C1055 0.959 . S
H1044 C1058 0.929 . S
H1045 C1059 0.931 . S
H1046 C1061 0.930 1_556 S
C1047 H1035 0.930 . S
C1047 C1048 1.399 . S
C1047 C1052 1.399 . S
C1048 C1047 1.399 . S
C1048 C1049 1.376 1_556 S
C1049 H1036 0.930 . S
C1049 C1048 1.376 1_554 S
C1049 C1050 1.388 . S
C1050 H1037 0.930 . S
C1050 C1049 1.388 . S
C1050 C1051 1.390 . S
C1051 C1050 1.390 . S
C1051 C1052 1.394 1_554 S
C1051 C1057 1.465 1_655 S
C1052 C1047 1.399 . S
C1052 C1051 1.394 1_556 S
C1052 C1053 1.516 1_655 S
C1053 C1052 1.516 1_455 S
C1053 C1054 1.502 . S
C1053 C1055 1.561 . S
C1053 C1056 1.519 1_556 S
C1054 H1038 0.959 . S
C1054 H1039 0.959 . S
C1054 H1040 0.961 . S
C1054 C1053 1.502 . S
C1055 H1041 0.960 1_455 S
C1055 H1042 0.961 . S
C1055 H1043 0.959 . S
C1055 C1053 1.561 . S
C1056 C1053 1.519 1_554 S
C1056 C1057 1.402 . S
C1056 C1061 1.391 . S
C1057 C1051 1.465 1_455 S
C1057 C1056 1.402 . S
C1057 C1058 1.399 . S
C1058 H1044 0.929 . S
C1058 C1057 1.399 . S
C1058 C1059 1.385 . S
C1059 H1045 0.931 . S
C1059 C1058 1.385 . S
C1059 C1060 1.389 . S
C1060 C1059 1.389 . S
C1060 C1061 1.387 . S
C1061 H1046 0.930 1_554 S
C1061 C1056 1.391 . S
C1061 C1060 1.387 . S
H1062 C1074 0.938 . S
H1063 C1076 0.930 . S
H1064 C1077 0.930 . S
H1065 C1081 0.959 . S
H1066 C1081 0.959 . S
H1067 C1081 0.961 . S
H1068 C1082 0.960 . S
H1069 C1082 0.961 . S
H1070 C1082 0.959 . S
H1071 C1085 0.929 . S
H1072 C1086 0.931 . S
H1073 C1088 0.930 . S
C1074 H1062 0.938 . S
C1074 C1075 1.399 . S
C1074 C1079 1.396 1_556 S
C1075 C1074 1.399 . S
C1075 C1076 1.376 . S
C1076 H1063 0.930 . S
C1076 C1075 1.376 . S
C1076 C1077 1.388 . S
C1077 H1064 0.930 . S
C1077 C1076 1.388 . S
C1077 C1078 1.390 . S
C1078 C1077 1.390 . S
C1078 C1079 1.389 1_556 S
C1078 C1084 1.465 . S
C1079 C1074 1.396 1_554 S
C1079 C1078 1.389 1_554 S
C1079 C1080 1.523 . S
C1080 C1079 1.523 . S
C1080 C1081 1.502 . S
C1080 C1082 1.561 . S
C1080 C1083 1.526 . S
C1081 H1065 0.959 . S
C1081 H1066 0.959 . S
C1081 H1067 0.961 . S
C1081 C1080 1.502 . S
C1082 H1068 0.960 . S
C1082 H1069 0.961 . S
C1082 H1070 0.959 . S
C1082 C1080 1.561 . S
C1083 C1080 1.526 . S
C1083 C1084 1.396 1_554 S
C1083 C1088 1.390 . S
C1084 C1078 1.465 . S
C1084 C1083 1.396 1_556 S
C1084 C1085 1.399 . S
C1085 H1071 0.929 . S
C1085 C1084 1.399 . S
C1085 C1086 1.385 1_556 S
C1086 H1072 0.931 . S
C1086 C1085 1.385 1_554 S
C1086 C1087 1.389 . S
C1087 C1086 1.389 . S
C1087 C1088 1.387 . S
C1088 H1073 0.930 . S
C1088 C1083 1.390 . S
C1088 C1087 1.387 . S
H1089 C1101 0.930 1_554 S
H1090 C1103 0.930 . S
H1091 C1104 0.930 . S
H1092 C1108 0.959 . S
H1093 C1108 0.959 . S
H1094 C1108 0.961 . S
H1095 C1109 0.960 . S
H1096 C1109 0.961 . S
H1097 C1109 0.959 . S
H1098 C1112 0.929 . S
H1099 C1113 0.931 . S
H1100 C1115 0.930 . S
C1101 H1089 0.930 1_556 S
C1101 C1102 1.399 . S
C1101 C1106 1.399 1_556 S
C1102 C1101 1.399 . S
C1102 C1103 1.376 . S
C1103 H1090 0.930 . S
C1103 C1102 1.376 . S
C1103 C1104 1.388 . S
C1104 H1091 0.930 . S
C1104 C1103 1.388 . S
C1104 C1105 1.390 . S
C1105 C1104 1.390 . S
C1105 C1106 1.394 1_556 S
C1105 C1111 1.465 1_545 S
C1106 C1101 1.399 1_554 S
C1106 C1105 1.394 1_554 S
C1106 C1107 1.516 . S
C1107 C1106 1.516 . S
C1107 C1108 1.502 . S
C1107 C1109 1.561 . S
C1107 C1110 1.526 1_545 S
C1108 H1092 0.959 . S
C1108 H1093 0.959 . S
C1108 H1094 0.961 . S
C1108 C1107 1.502 . S
C1109 H1095 0.960 . S
C1109 H1096 0.961 . S
C1109 H1097 0.959 . S
C1109 C1107 1.561 . S
C1110 C1107 1.526 1_565 S
C1110 C1111 1.396 1_554 S
C1110 C1115 1.390 . S
C1111 C1105 1.465 1_565 S
C1111 C1110 1.396 1_556 S
C1111 C1112 1.399 . S
C1112 H1098 0.929 . S
C1112 C1111 1.399 . S
C1112 C1113 1.385 . S
C1113 H1099 0.931 . S
C1113 C1112 1.385 . S
C1113 C1114 1.389 1_556 S
C1114 C1113 1.389 1_554 S
C1114 C1115 1.387 . S
C1115 H1100 0.930 . S
C1115 C1110 1.390 . S
C1115 C1114 1.387 . S
H1116 C1128 0.930 . S
H1117 C1130 0.930 . S
H1118 C1131 0.930 . S
H1119 C1135 0.959 . S
H1120 C1135 0.959 . S
H1121 C1135 0.961 . S
H1122 C1136 0.960 . S
H1123 C1136 0.961 . S
H1124 C1136 0.959 . S
H1125 C1139 0.929 . S
H1126 C1140 0.931 . S
H1127 C1142 0.930 . S
C1128 H1116 0.930 . S
C1128 C1129 1.399 . S
C1128 C1133 1.399 . S
C1129 C1128 1.399 . S
C1129 C1130 1.376 . S
C1130 H1117 0.930 . S
C1130 C1129 1.376 . S
C1130 C1131 1.388 . S
C1131 H1118 0.930 . S
C1131 C1130 1.388 . S
C1131 C1132 1.390 . S
C1132 C1131 1.390 . S
C1132 C1133 1.394 . S
C1132 C1138 1.465 . S
C1133 C1128 1.399 . S
C1133 C1132 1.394 . S
C1133 C1134 1.516 . S
C1134 C1133 1.516 . S
C1134 C1135 1.502 . S
C1134 C1136 1.561 . S
C1134 C1137 1.526 . S
C1135 H1119 0.959 . S
C1135 H1120 0.959 . S
C1135 H1121 0.961 . S
C1135 C1134 1.502 . S
C1136 H1122 0.960 . S
C1136 H1123 0.961 . S
C1136 H1124 0.959 . S
C1136 C1134 1.561 . S
C1137 C1134 1.526 . S
C1137 C1138 1.396 . S
C1137 C1142 1.390 . S
C1138 C1132 1.465 . S
C1138 C1137 1.396 . S
C1138 C1139 1.399 . S
C1139 H1125 0.929 . S
C1139 C1138 1.399 . S
C1139 C1140 1.385 . S
C1140 H1126 0.931 . S
C1140 C1139 1.385 . S
C1140 C1141 1.389 . S
C1141 C1140 1.389 . S
C1141 C1142 1.387 . S
C1142 H1127 0.930 . S
C1142 C1137 1.390 . S
C1142 C1141 1.387 . S
H1143 C1155 0.930 . S
H1144 C1157 0.930 . S
H1145 C1158 0.930 . S
H1146 C1162 0.959 . S
H1147 C1162 0.959 . S
H1148 C1162 0.961 . S
H1149 C1163 0.960 . S
H1150 C1163 0.961 . S
H1151 C1163 0.959 . S
H1152 C1166 0.929 . S
H1153 C1167 0.931 . S
H1154 C1169 0.930 . S
C1155 H1143 0.930 . S
C1155 C1156 1.399 . S
C1155 C1160 1.399 . S
C1156 C1155 1.399 . S
C1156 C1157 1.376 . S
C1157 H1144 0.930 . S
C1157 C1156 1.376 . S
C1157 C1158 1.388 . S
C1158 H1145 0.930 . S
C1158 C1157 1.388 . S
C1158 C1159 1.390 . S
C1159 C1158 1.390 . S
C1159 C1160 1.394 . S
C1159 C1165 1.465 . S
C1160 C1155 1.399 . S
C1160 C1159 1.394 . S
C1160 C1161 1.516 . S
C1161 C1160 1.516 . S
C1161 C1162 1.502 . S
C1161 C1163 1.561 . S
C1161 C1164 1.526 . S
C1162 H1146 0.959 . S
C1162 H1147 0.959 . S
C1162 H1148 0.961 . S
C1162 C1161 1.502 . S
C1163 H1149 0.960 . S
C1163 H1150 0.961 . S
C1163 H1151 0.959 . S
C1163 C1161 1.561 . S
C1164 C1161 1.526 . S
C1164 C1165 1.396 . S
C1164 C1169 1.390 . S
C1165 C1159 1.465 . S
C1165 C1164 1.396 . S
C1165 C1166 1.399 . S
C1166 H1152 0.929 . S
C1166 C1165 1.399 . S
C1166 C1167 1.385 . S
C1167 H1153 0.931 . S
C1167 C1166 1.385 . S
C1167 C1168 1.389 . S
C1168 C1167 1.389 . S
C1168 C1169 1.387 . S
C1169 H1154 0.930 . S
C1169 C1164 1.390 . S
C1169 C1168 1.387 . S
H1170 C1182 0.930 . S
H1171 C1184 0.930 . S
H1172 C1185 0.930 . S
H1173 C1189 0.959 . S
H1174 C1189 0.959 . S
H1175 C1189 0.961 . S
H1176 C1190 0.960 . S
H1177 C1190 0.961 . S
H1178 C1190 0.959 . S
H1179 C1193 0.929 . S
H1180 C1194 0.931 . S
H1181 C1196 0.930 . S
C1182 H1170 0.930 . S
C1182 C1183 1.399 . S
C1182 C1187 1.399 . S
C1183 C1182 1.399 . S
C1183 C1184 1.376 . S
C1184 H1171 0.930 . S
C1184 C1183 1.376 . S
C1184 C1185 1.388 . S
C1185 H1172 0.930 . S
C1185 C1184 1.388 . S
C1185 C1186 1.390 . S
C1186 C1185 1.390 . S
C1186 C1187 1.394 . S
C1186 C1192 1.465 . S
C1187 C1182 1.399 . S
C1187 C1186 1.394 . S
C1187 C1188 1.516 . S
C1188 C1187 1.516 . S
C1188 C1189 1.502 . S
C1188 C1190 1.561 . S
C1188 C1191 1.526 . S
C1189 H1173 0.959 . S
C1189 H1174 0.959 . S
C1189 H1175 0.961 . S
C1189 C1188 1.502 . S
C1190 H1176 0.960 . S
C1190 H1177 0.961 . S
C1190 H1178 0.959 . S
C1190 C1188 1.561 . S
C1191 C1188 1.526 . S
C1191 C1192 1.396 . S
C1191 C1196 1.390 . S
C1192 C1186 1.465 . S
C1192 C1191 1.396 . S
C1192 C1193 1.399 . S
C1193 H1179 0.929 . S
C1193 C1192 1.399 . S
C1193 C1194 1.385 . S
C1194 H1180 0.931 . S
C1194 C1193 1.385 . S
C1194 C1195 1.389 . S
C1195 C1194 1.389 . S
C1195 C1196 1.387 . S
C1196 H1181 0.930 . S
C1196 C1191 1.390 . S
C1196 C1195 1.387 . S
H1197 C1209 0.930 . S
H1198 C1211 0.930 . S
H1199 C1212 0.930 . S
H1200 C1216 0.959 . S
H1201 C1216 0.959 . S
H1202 C1216 0.961 . S
H1203 C1217 0.960 . S
H1204 C1217 0.961 . S
H1205 C1217 0.959 . S
H1206 C1220 0.929 . S
H1207 C1221 0.931 . S
H1208 C1223 0.930 . S
C1209 H1197 0.930 . S
C1209 C1210 1.399 . S
C1209 C1214 1.399 . S
C1210 C1209 1.399 . S
C1210 C1211 1.376 . S
C1211 H1198 0.930 . S
C1211 C1210 1.376 . S
C1211 C1212 1.388 . S
C1212 H1199 0.930 . S
C1212 C1211 1.388 . S
C1212 C1213 1.390 . S
C1213 C1212 1.390 . S
C1213 C1214 1.394 . S
C1213 C1219 1.465 . S
C1214 C1209 1.399 . S
C1214 C1213 1.394 . S
C1214 C1215 1.516 . S
C1215 C1214 1.516 . S
C1215 C1216 1.502 . S
C1215 C1217 1.561 . S
C1215 C1218 1.526 . S
C1216 H1200 0.959 . S
C1216 H1201 0.959 . S
C1216 H1202 0.961 . S
C1216 C1215 1.502 . S
C1217 H1203 0.960 . S
C1217 H1204 0.961 . S
C1217 H1205 0.959 . S
C1217 C1215 1.561 . S
C1218 C1215 1.526 . S
C1218 C1219 1.396 . S
C1218 C1223 1.390 . S
C1219 C1213 1.465 . S
C1219 C1218 1.396 . S
C1219 C1220 1.399 . S
C1220 H1206 0.929 . S
C1220 C1219 1.399 . S
C1220 C1221 1.385 . S
C1221 H1207 0.931 . S
C1221 C1220 1.385 . S
C1221 C1222 1.389 . S
C1222 C1221 1.389 . S
C1222 C1223 1.387 . S
C1223 H1208 0.930 . S
C1223 C1218 1.390 . S
C1223 C1222 1.387 . S
H1224 C1236 0.930 . S
H1225 C1238 0.930 . S
H1226 C1239 0.930 . S
H1227 C1243 0.959 . S
H1228 C1243 0.959 . S
H1229 C1243 0.961 . S
H1230 C1244 0.960 . S
H1231 C1244 0.961 . S
H1232 C1244 0.959 . S
H1233 C1247 0.929 . S
H1234 C1248 0.931 . S
H1235 C1250 0.930 . S
C1236 H1224 0.930 . S
C1236 C1237 1.399 . S
C1236 C1241 1.399 . S
C1237 C1236 1.399 . S
C1237 C1238 1.376 . S
C1238 H1225 0.930 . S
C1238 C1237 1.376 . S
C1238 C1239 1.388 . S
C1239 H1226 0.930 . S
C1239 C1238 1.388 . S
C1239 C1240 1.390 . S
C1240 C1239 1.390 . S
C1240 C1241 1.394 . S
C1240 C1246 1.465 . S
C1241 C1236 1.399 . S
C1241 C1240 1.394 . S
C1241 C1242 1.516 . S
C1242 C1241 1.516 . S
C1242 C1243 1.502 . S
C1242 C1244 1.561 . S
C1242 C1245 1.526 . S
C1243 H1227 0.959 . S
C1243 H1228 0.959 . S
C1243 H1229 0.961 . S
C1243 C1242 1.502 . S
C1244 H1230 0.960 . S
C1244 H1231 0.961 . S
C1244 H1232 0.959 . S
C1244 C1242 1.561 . S
C1245 C1242 1.526 . S
C1245 C1246 1.396 . S
C1245 C1250 1.390 . S
C1246 C1240 1.465 . S
C1246 C1245 1.396 . S
C1246 C1247 1.399 . S
C1247 H1233 0.929 . S
C1247 C1246 1.399 . S
C1247 C1248 1.385 . S
C1248 H1234 0.931 . S
C1248 C1247 1.385 . S
C1248 C1249 1.389 . S
C1249 C1248 1.389 . S
C1249 C1250 1.387 . S
C1250 H1235 0.930 . S
C1250 C1245 1.390 . S
C1250 C1249 1.387 . S
H1251 C1263 0.930 . S
H1252 C1265 0.930 . S
H1253 C1266 0.930 . S
H1254 C1270 0.959 . S
H1255 C1270 0.959 . S
H1256 C1270 0.961 . S
H1257 C1271 0.960 . S
H1258 C1271 0.961 . S
H1259 C1271 0.959 . S
H1260 C1274 0.929 . S
H1261 C1275 0.931 . S
H1262 C1277 0.930 . S
C1263 H1251 0.930 . S
C1263 C1264 1.399 . S
C1263 C1268 1.399 . S
C1264 C1263 1.399 . S
C1264 C1265 1.376 . S
C1265 H1252 0.930 . S
C1265 C1264 1.376 . S
C1265 C1266 1.388 . S
C1266 H1253 0.930 . S
C1266 C1265 1.388 . S
C1266 C1267 1.390 . S
C1267 C1266 1.390 . S
C1267 C1268 1.394 . S
C1267 C1273 1.465 . S
C1268 C1263 1.399 . S
C1268 C1267 1.394 . S
C1268 C1269 1.516 . S
C1269 C1268 1.516 . S
C1269 C1270 1.502 . S
C1269 C1271 1.561 . S
C1269 C1272 1.526 . S
C1270 H1254 0.959 . S
C1270 H1255 0.959 . S
C1270 H1256 0.961 . S
C1270 C1269 1.502 . S
C1271 H1257 0.960 . S
C1271 H1258 0.961 . S
C1271 H1259 0.959 . S
C1271 C1269 1.561 . S
C1272 C1269 1.526 . S
C1272 C1273 1.396 . S
C1272 C1277 1.390 . S
C1273 C1267 1.465 . S
C1273 C1272 1.396 . S
C1273 C1274 1.399 . S
C1274 H1260 0.929 . S
C1274 C1273 1.399 . S
C1274 C1275 1.385 . S
C1275 H1261 0.931 . S
C1275 C1274 1.385 . S
C1275 C1276 1.389 . S
C1276 C1275 1.389 . S
C1276 C1277 1.387 . S
C1277 H1262 0.930 . S
C1277 C1272 1.390 . S
C1277 C1276 1.387 . S
H1278 C1290 0.930 . S
H1279 C1292 0.930 . S
H1280 C1293 0.930 . S
H1281 C1297 0.959 . S
H1282 C1297 0.959 . S
H1283 C1297 0.961 . S
H1284 C1298 0.960 . S
H1285 C1298 0.961 . S
H1286 C1298 0.959 . S
H1287 C1301 0.929 . S
H1288 C1302 0.931 . S
H1289 C1304 0.930 . S
C1290 H1278 0.930 . S
C1290 C1291 1.399 . S
C1290 C1295 1.399 . S
C1291 C1290 1.399 . S
C1291 C1292 1.376 . S
C1292 H1279 0.930 . S
C1292 C1291 1.376 . S
C1292 C1293 1.388 . S
C1293 H1280 0.930 . S
C1293 C1292 1.388 . S
C1293 C1294 1.390 . S
C1294 C1293 1.390 . S
C1294 C1295 1.394 . S
C1294 C1300 1.465 . S
C1295 C1290 1.399 . S
C1295 C1294 1.394 . S
C1295 C1296 1.516 . S
C1296 C1295 1.516 . S
C1296 C1297 1.502 . S
C1296 C1298 1.561 . S
C1296 C1299 1.526 . S
C1297 H1281 0.959 . S
C1297 H1282 0.959 . S
C1297 H1283 0.961 . S
C1297 C1296 1.502 . S
C1298 H1284 0.960 . S
C1298 H1285 0.961 . S
C1298 H1286 0.959 . S
C1298 C1296 1.561 . S
C1299 C1296 1.526 . S
C1299 C1300 1.396 . S
C1299 C1304 1.390 . S
C1300 C1294 1.465 . S
C1300 C1299 1.396 . S
C1300 C1301 1.399 . S
C1301 H1287 0.929 . S
C1301 C1300 1.399 . S
C1301 C1302 1.385 . S
C1302 H1288 0.931 . S
C1302 C1301 1.385 . S
C1302 C1303 1.389 . S
C1303 C1302 1.389 . S
C1303 C1304 1.387 . S
C1304 H1289 0.930 . S
C1304 C1299 1.390 . S
C1304 C1303 1.387 . S
H1305 C1317 0.930 . S
H1306 C1319 0.930 . S
H1307 C1320 0.930 . S
H1308 C1324 0.959 . S
H1309 C1324 0.959 . S
H1310 C1324 0.961 . S
H1311 C1325 0.960 . S
H1312 C1325 0.961 . S
H1313 C1325 0.959 . S
H1314 C1328 0.929 . S
H1315 C1329 0.931 . S
H1316 C1331 0.930 . S
C1317 H1305 0.930 . S
C1317 C1318 1.399 . S
C1317 C1322 1.399 . S
C1318 C1317 1.399 . S
C1318 C1319 1.376 . S
C1319 H1306 0.930 . S
C1319 C1318 1.376 . S
C1319 C1320 1.388 . S
C1320 H1307 0.930 . S
C1320 C1319 1.388 . S
C1320 C1321 1.390 . S
C1321 C1320 1.390 . S
C1321 C1322 1.394 . S
C1321 C1327 1.465 . S
C1322 C1317 1.399 . S
C1322 C1321 1.394 . S
C1322 C1323 1.516 . S
C1323 C1322 1.516 . S
C1323 C1324 1.502 . S
C1323 C1325 1.561 . S
C1323 C1326 1.526 . S
C1324 H1308 0.959 . S
C1324 H1309 0.959 . S
C1324 H1310 0.961 . S
C1324 C1323 1.502 . S
C1325 H1311 0.960 . S
C1325 H1312 0.961 . S
C1325 H1313 0.959 . S
C1325 C1323 1.561 . S
C1326 C1323 1.526 . S
C1326 C1327 1.396 . S
C1326 C1331 1.390 . S
C1327 C1321 1.465 . S
C1327 C1326 1.396 . S
C1327 C1328 1.399 . S
C1328 H1314 0.929 . S
C1328 C1327 1.399 . S
C1328 C1329 1.385 . S
C1329 H1315 0.931 . S
C1329 C1328 1.385 . S
C1329 C1330 1.389 . S
C1330 C1329 1.389 . S
C1330 C1331 1.387 . S
C1331 H1316 0.930 . S
C1331 C1326 1.390 . S
C1331 C1330 1.387 . S
H1332 C1344 0.930 . S
H1333 C1346 0.930 . S
H1334 C1347 0.930 . S
H1335 C1351 0.959 . S
H1336 C1351 0.959 . S
H1337 C1351 0.961 . S
H1338 C1352 0.960 . S
H1339 C1352 0.961 . S
H1340 C1352 0.959 . S
H1341 C1355 0.929 . S
H1342 C1356 0.931 . S
H1343 C1358 0.930 . S
C1344 H1332 0.930 . S
C1344 C1345 1.399 . S
C1344 C1349 1.399 . S
C1345 C1344 1.399 . S
C1345 C1346 1.376 . S
C1346 H1333 0.930 . S
C1346 C1345 1.376 . S
C1346 C1347 1.388 . S
C1347 H1334 0.930 . S
C1347 C1346 1.388 . S
C1347 C1348 1.390 . S
C1348 C1347 1.390 . S
C1348 C1349 1.394 . S
C1348 C1354 1.465 . S
C1349 C1344 1.399 . S
C1349 C1348 1.394 . S
C1349 C1350 1.516 . S
C1350 C1349 1.516 . S
C1350 C1351 1.502 . S
C1350 C1352 1.561 . S
C1350 C1353 1.526 . S
C1351 H1335 0.959 . S
C1351 H1336 0.959 . S
C1351 H1337 0.961 . S
C1351 C1350 1.502 . S
C1352 H1338 0.960 . S
C1352 H1339 0.961 . S
C1352 H1340 0.959 . S
C1352 C1350 1.561 . S
C1353 C1350 1.526 . S
C1353 C1354 1.396 . S
C1353 C1358 1.390 . S
C1354 C1348 1.465 . S
C1354 C1353 1.396 . S
C1354 C1355 1.399 . S
C1355 H1341 0.929 . S
C1355 C1354 1.399 . S
C1355 C1356 1.385 . S
C1356 H1342 0.931 . S
C1356 C1355 1.385 . S
C1356 C1357 1.389 . S
C1357 C1356 1.389 . S
C1357 C1358 1.387 . S
C1358 H1343 0.930 . S
C1358 C1353 1.390 . S
C1358 C1357 1.387 . S
H1359 C1371 0.930 . S
H1360 C1373 0.930 . S
H1361 C1374 0.930 . S
H1362 C1378 0.959 . S
H1363 C1378 0.959 . S
H1364 C1378 0.961 . S
H1365 C1379 0.960 . S
H1366 C1379 0.961 . S
H1367 C1379 0.959 . S
H1368 C1382 0.929 . S
H1369 C1383 0.931 . S
H1370 C1385 0.930 . S
C1371 H1359 0.930 . S
C1371 C1372 1.399 . S
C1371 C1376 1.399 . S
C1372 C1371 1.399 . S
C1372 C1373 1.376 . S
C1373 H1360 0.930 . S
C1373 C1372 1.376 . S
C1373 C1374 1.388 . S
C1374 H1361 0.930 . S
C1374 C1373 1.388 . S
C1374 C1375 1.390 . S
C1375 C1374 1.390 . S
C1375 C1376 1.394 . S
C1375 C1381 1.465 . S
C1376 C1371 1.399 . S
C1376 C1375 1.394 . S
C1376 C1377 1.516 . S
C1377 C1376 1.516 . S
C1377 C1378 1.502 . S
C1377 C1379 1.561 . S
C1377 C1380 1.526 . S
C1378 H1362 0.959 . S
C1378 H1363 0.959 . S
C1378 H1364 0.961 . S
C1378 C1377 1.502 . S
C1379 H1365 0.960 . S
C1379 H1366 0.961 . S
C1379 H1367 0.959 . S
C1379 C1377 1.561 . S
C1380 C1377 1.526 . S
C1380 C1381 1.396 . S
C1380 C1385 1.390 . S
C1381 C1375 1.465 . S
C1381 C1380 1.396 . S
C1381 C1382 1.399 . S
C1382 H1368 0.929 . S
C1382 C1381 1.399 . S
C1382 C1383 1.385 . S
C1383 H1369 0.931 . S
C1383 C1382 1.385 . S
C1383 C1384 1.389 . S
C1384 C1383 1.389 . S
C1384 C1385 1.387 . S
C1385 H1370 0.930 . S
C1385 C1380 1.390 . S
C1385 C1384 1.387 . S
H1386 C1398 0.930 . S
H1387 C1400 0.930 . S
H1388 C1401 0.930 . S
H1389 C1405 0.959 . S
H1390 C1405 0.959 . S
H1391 C1405 0.961 . S
H1392 C1406 0.960 . S
H1393 C1406 0.961 . S
H1394 C1406 0.959 . S
H1395 C1409 0.929 . S
H1396 C1410 0.931 . S
H1397 C1412 0.930 . S
C1398 H1386 0.930 . S
C1398 C1399 1.399 . S
C1398 C1403 1.399 . S
C1399 C1398 1.399 . S
C1399 C1400 1.376 . S
C1400 H1387 0.930 . S
C1400 C1399 1.376 . S
C1400 C1401 1.388 . S
C1401 H1388 0.930 . S
C1401 C1400 1.388 . S
C1401 C1402 1.390 . S
C1402 C1401 1.390 . S
C1402 C1403 1.394 . S
C1402 C1408 1.465 . S
C1403 C1398 1.399 . S
C1403 C1402 1.394 . S
C1403 C1404 1.516 . S
C1404 C1403 1.516 . S
C1404 C1405 1.502 . S
C1404 C1406 1.561 . S
C1404 C1407 1.526 . S
C1405 H1389 0.959 . S
C1405 H1390 0.959 . S
C1405 H1391 0.961 . S
C1405 C1404 1.502 . S
C1406 H1392 0.960 . S
C1406 H1393 0.961 . S
C1406 H1394 0.959 . S
C1406 C1404 1.561 . S
C1407 C1404 1.526 . S
C1407 C1408 1.396 . S
C1407 C1412 1.390 . S
C1408 C1402 1.465 . S
C1408 C1407 1.396 . S
C1408 C1409 1.399 . S
C1409 H1395 0.929 . S
C1409 C1408 1.399 . S
C1409 C1410 1.385 . S
C1410 H1396 0.931 . S
C1410 C1409 1.385 . S
C1410 C1411 1.389 . S
C1411 C1410 1.389 . S
C1411 C1412 1.387 . S
C1412 H1397 0.930 . S
C1412 C1407 1.390 . S
C1412 C1411 1.387 . S
H1413 C1425 0.930 . S
H1414 C1427 0.930 . S
H1415 C1428 0.930 . S
H1416 C1432 0.959 . S
H1417 C1432 0.959 . S
H1418 C1432 0.961 . S
H1419 C1433 0.960 . S
H1420 C1433 0.961 . S
H1421 C1433 0.959 . S
H1422 C1436 0.929 . S
H1423 C1437 0.931 . S
H1424 C1439 0.930 . S
C1425 H1413 0.930 . S
C1425 C1426 1.399 . S
C1425 C1430 1.399 . S
C1426 C1425 1.399 . S
C1426 C1427 1.376 . S
C1427 H1414 0.930 . S
C1427 C1426 1.376 . S
C1427 C1428 1.388 . S
C1428 H1415 0.930 . S
C1428 C1427 1.388 . S
C1428 C1429 1.390 . S
C1429 C1428 1.390 . S
C1429 C1430 1.394 . S
C1429 C1435 1.465 . S
C1430 C1425 1.399 . S
C1430 C1429 1.394 . S
C1430 C1431 1.516 . S
C1431 C1430 1.516 . S
C1431 C1432 1.502 . S
C1431 C1433 1.561 . S
C1431 C1434 1.526 . S
C1432 H1416 0.959 . S
C1432 H1417 0.959 . S
C1432 H1418 0.961 . S
C1432 C1431 1.502 . S
C1433 H1419 0.960 . S
C1433 H1420 0.961 . S
C1433 H1421 0.959 . S
C1433 C1431 1.561 . S
C1434 C1431 1.526 . S
C1434 C1435 1.396 . S
C1434 C1439 1.390 . S
C1435 C1429 1.465 . S
C1435 C1434 1.396 . S
C1435 C1436 1.399 . S
C1436 H1422 0.929 . S
C1436 C1435 1.399 . S
C1436 C1437 1.385 . S
C1437 H1423 0.931 . S
C1437 C1436 1.385 . S
C1437 C1438 1.389 . S
C1438 C1437 1.389 . S
C1438 C1439 1.387 . S
C1439 H1424 0.930 . S
C1439 C1434 1.390 . S
C1439 C1438 1.387 . S
H1440 C1452 0.930 . S
H1441 C1454 0.930 . S
H1442 C1455 0.930 . S
H1443 C1459 0.959 . S
H1444 C1459 0.959 . S
H1445 C1459 0.961 . S
H1446 C1460 0.960 . S
H1447 C1460 0.961 . S
H1448 C1460 0.959 . S
H1449 C1463 0.929 . S
H1450 C1464 0.931 . S
H1451 C1466 0.930 . S
C1452 H1440 0.930 . S
C1452 C1453 1.399 . S
C1452 C1457 1.399 . S
C1453 C1452 1.399 . S
C1453 C1454 1.376 . S
C1454 H1441 0.930 . S
C1454 C1453 1.376 . S
C1454 C1455 1.388 . S
C1455 H1442 0.930 . S
C1455 C1454 1.388 . S
C1455 C1456 1.390 . S
C1456 C1455 1.390 . S
C1456 C1457 1.394 . S
C1456 C1462 1.465 . S
C1457 C1452 1.399 . S
C1457 C1456 1.394 . S
C1457 C1458 1.516 . S
C1458 C1457 1.516 . S
C1458 C1459 1.502 . S
C1458 C1460 1.561 . S
C1458 C1461 1.526 . S
C1459 H1443 0.959 . S
C1459 H1444 0.959 . S
C1459 H1445 0.961 . S
C1459 C1458 1.502 . S
C1460 H1446 0.960 . S
C1460 H1447 0.961 . S
C1460 H1448 0.959 . S
C1460 C1458 1.561 . S
C1461 C1458 1.526 . S
C1461 C1462 1.396 . S
C1461 C1466 1.390 . S
C1462 C1456 1.465 . S
C1462 C1461 1.396 . S
C1462 C1463 1.399 . S
C1463 H1449 0.929 . S
C1463 C1462 1.399 . S
C1463 C1464 1.385 . S
C1464 H1450 0.931 . S
C1464 C1463 1.385 . S
C1464 C1465 1.389 . S
C1465 C1464 1.389 . S
C1465 C1466 1.387 . S
C1466 H1451 0.930 . S
C1466 C1461 1.390 . S
C1466 C1465 1.387 . S
H1467 C1479 0.930 . S
H1468 C1481 0.930 . S
H1469 C1482 0.930 . S
H1470 C1486 0.959 . S
H1471 C1486 0.959 . S
H1472 C1486 0.961 . S
H1473 C1487 0.960 . S
H1474 C1487 0.961 . S
H1475 C1487 0.959 . S
H1476 C1490 0.929 . S
H1477 C1491 0.931 . S
H1478 C1493 0.930 . S
C1479 H1467 0.930 . S
C1479 C1480 1.399 . S
C1479 C1484 1.399 . S
C1480 C1479 1.399 . S
C1480 C1481 1.376 . S
C1481 H1468 0.930 . S
C1481 C1480 1.376 . S
C1481 C1482 1.388 . S
C1482 H1469 0.930 . S
C1482 C1481 1.388 . S
C1482 C1483 1.390 . S
C1483 C1482 1.390 . S
C1483 C1484 1.394 . S
C1483 C1489 1.465 . S
C1484 C1479 1.399 . S
C1484 C1483 1.394 . S
C1484 C1485 1.516 . S
C1485 C1484 1.516 . S
C1485 C1486 1.502 . S
C1485 C1487 1.561 . S
C1485 C1488 1.526 . S
C1486 H1470 0.959 . S
C1486 H1471 0.959 . S
C1486 H1472 0.961 . S
C1486 C1485 1.502 . S
C1487 H1473 0.960 . S
C1487 H1474 0.961 . S
C1487 H1475 0.959 . S
C1487 C1485 1.561 . S
C1488 C1485 1.526 . S
C1488 C1489 1.396 . S
C1488 C1493 1.390 . S
C1489 C1483 1.465 . S
C1489 C1488 1.396 . S
C1489 C1490 1.399 . S
C1490 H1476 0.929 . S
C1490 C1489 1.399 . S
C1490 C1491 1.385 . S
C1491 H1477 0.931 . S
C1491 C1490 1.385 . S
C1491 C1492 1.389 . S
C1492 C1491 1.389 . S
C1492 C1493 1.387 . S
C1493 H1478 0.930 . S
C1493 C1488 1.390 . S
C1493 C1492 1.387 . S
H1494 C1506 0.930 . S
H1495 C1508 0.930 . S
H1496 C1509 0.930 . S
H1497 C1513 0.959 . S
H1498 C1513 0.959 . S
H1499 C1513 0.961 . S
H1500 C1514 0.960 . S
H1501 C1514 0.961 . S
H1502 C1514 0.959 . S
H1503 C1517 0.929 . S
H1504 C1518 0.931 . S
H1505 C1520 0.930 . S
C1506 H1494 0.930 . S
C1506 C1507 1.399 . S
C1506 C1511 1.399 . S
C1507 C1506 1.399 . S
C1507 C1508 1.376 . S
C1508 H1495 0.930 . S
C1508 C1507 1.376 . S
C1508 C1509 1.388 . S
C1509 H1496 0.930 . S
C1509 C1508 1.388 . S
C1509 C1510 1.390 . S
C1510 C1509 1.390 . S
C1510 C1511 1.394 . S
C1510 C1516 1.465 . S
C1511 C1506 1.399 . S
C1511 C1510 1.394 . S
C1511 C1512 1.516 . S
C1512 C1511 1.516 . S
C1512 C1513 1.502 . S
C1512 C1514 1.561 . S
C1512 C1515 1.526 . S
C1513 H1497 0.959 . S
C1513 H1498 0.959 . S
C1513 H1499 0.961 . S
C1513 C1512 1.502 . S
C1514 H1500 0.960 . S
C1514 H1501 0.961 . S
C1514 H1502 0.959 . S
C1514 C1512 1.561 . S
C1515 C1512 1.526 . S
C1515 C1516 1.396 . S
C1515 C1520 1.390 . S
C1516 C1510 1.465 . S
C1516 C1515 1.396 . S
C1516 C1517 1.399 . S
C1517 H1503 0.929 . S
C1517 C1516 1.399 . S
C1517 C1518 1.385 . S
C1518 H1504 0.931 . S
C1518 C1517 1.385 . S
C1518 C1519 1.389 . S
C1519 C1518 1.389 . S
C1519 C1520 1.387 . S
C1520 H1505 0.930 . S
C1520 C1515 1.390 . S
C1520 C1519 1.387 . S
H1521 C1533 0.930 . S
H1522 C1535 0.930 . S
H1523 C1536 0.930 . S
H1524 C1540 0.959 . S
H1525 C1540 0.959 . S
H1526 C1540 0.961 . S
H1527 C1541 0.960 . S
H1528 C1541 0.961 . S
H1529 C1541 0.959 . S
H1530 C1544 0.929 . S
H1531 C1545 0.931 . S
H1532 C1547 0.930 . S
C1533 H1521 0.930 . S
C1533 C1534 1.399 . S
C1533 C1538 1.399 . S
C1534 C1533 1.399 . S
C1534 C1535 1.376 . S
C1535 H1522 0.930 . S
C1535 C1534 1.376 . S
C1535 C1536 1.388 . S
C1536 H1523 0.930 . S
C1536 C1535 1.388 . S
C1536 C1537 1.390 . S
C1537 C1536 1.390 . S
C1537 C1538 1.394 . S
C1537 C1543 1.465 . S
C1538 C1533 1.399 . S
C1538 C1537 1.394 . S
C1538 C1539 1.516 . S
C1539 C1538 1.516 . S
C1539 C1540 1.502 . S
C1539 C1541 1.561 . S
C1539 C1542 1.526 . S
C1540 H1524 0.959 . S
C1540 H1525 0.959 . S
C1540 H1526 0.961 . S
C1540 C1539 1.502 . S
C1541 H1527 0.960 . S
C1541 H1528 0.961 . S
C1541 H1529 0.959 . S
C1541 C1539 1.561 . S
C1542 C1539 1.526 . S
C1542 C1543 1.396 . S
C1542 C1547 1.390 . S
C1543 C1537 1.465 . S
C1543 C1542 1.396 . S
C1543 C1544 1.399 . S
C1544 H1530 0.929 . S
C1544 C1543 1.399 . S
C1544 C1545 1.385 . S
C1545 H1531 0.931 . S
C1545 C1544 1.385 . S
C1545 C1546 1.389 . S
C1546 C1545 1.389 . S
C1546 C1547 1.387 . S
C1547 H1532 0.930 . S
C1547 C1542 1.390 . S
C1547 C1546 1.387 . S
H1548 C1560 0.930 . S
H1549 C1562 0.930 . S
H1550 C1563 0.930 . S
H1551 C1567 0.959 . S
H1552 C1567 0.959 . S
H1553 C1567 0.961 . S
H1554 C1568 0.960 . S
H1555 C1568 0.961 . S
H1556 C1568 0.959 . S
H1557 C1571 0.929 . S
H1558 C1572 0.931 . S
H1559 C1574 0.930 . S
C1560 H1548 0.930 . S
C1560 C1561 1.399 . S
C1560 C1565 1.399 . S
C1561 C1560 1.399 . S
C1561 C1562 1.376 . S
C1562 H1549 0.930 . S
C1562 C1561 1.376 . S
C1562 C1563 1.388 . S
C1563 H1550 0.930 . S
C1563 C1562 1.388 . S
C1563 C1564 1.390 . S
C1564 C1563 1.390 . S
C1564 C1565 1.394 . S
C1564 C1570 1.465 . S
C1565 C1560 1.399 . S
C1565 C1564 1.394 . S
C1565 C1566 1.516 . S
C1566 C1565 1.516 . S
C1566 C1567 1.502 . S
C1566 C1568 1.561 . S
C1566 C1569 1.526 . S
C1567 H1551 0.959 . S
C1567 H1552 0.959 . S
C1567 H1553 0.961 . S
C1567 C1566 1.502 . S
C1568 H1554 0.960 . S
C1568 H1555 0.961 . S
C1568 H1556 0.959 . S
C1568 C1566 1.561 . S
C1569 C1566 1.526 . S
C1569 C1570 1.396 . S
C1569 C1574 1.390 . S
C1570 C1564 1.465 . S
C1570 C1569 1.396 . S
C1570 C1571 1.399 . S
C1571 H1557 0.929 . S
C1571 C1570 1.399 . S
C1571 C1572 1.385 . S
C1572 H1558 0.931 . S
C1572 C1571 1.385 . S
C1572 C1573 1.389 . S
C1573 C1572 1.389 . S
C1573 C1574 1.387 . S
C1574 H1559 0.930 . S
C1574 C1569 1.390 . S
C1574 C1573 1.387 . S
H1575 C1587 0.930 . S
H1576 C1589 0.930 . S
H1577 C1590 0.930 . S
H1578 C1594 0.959 . S
H1579 C1594 0.959 . S
H1580 C1594 0.961 . S
H1581 C1595 0.960 . S
H1582 C1595 0.961 . S
H1583 C1595 0.959 . S
H1584 C1598 0.929 . S
H1585 C1599 0.931 . S
H1586 C1601 0.930 . S
C1587 H1575 0.930 . S
C1587 C1588 1.399 . S
C1587 C1592 1.399 . S
C1588 C1587 1.399 . S
C1588 C1589 1.376 . S
C1589 H1576 0.930 . S
C1589 C1588 1.376 . S
C1589 C1590 1.388 . S
C1590 H1577 0.930 . S
C1590 C1589 1.388 . S
C1590 C1591 1.390 . S
C1591 C1590 1.390 . S
C1591 C1592 1.394 . S
C1591 C1597 1.465 . S
C1592 C1587 1.399 . S
C1592 C1591 1.394 . S
C1592 C1593 1.516 . S
C1593 C1592 1.516 . S
C1593 C1594 1.502 . S
C1593 C1595 1.561 . S
C1593 C1596 1.526 . S
C1594 H1578 0.959 . S
C1594 H1579 0.959 . S
C1594 H1580 0.961 . S
C1594 C1593 1.502 . S
C1595 H1581 0.960 . S
C1595 H1582 0.961 . S
C1595 H1583 0.959 . S
C1595 C1593 1.561 . S
C1596 C1593 1.526 . S
C1596 C1597 1.396 . S
C1596 C1601 1.390 . S
C1597 C1591 1.465 . S
C1597 C1596 1.396 . S
C1597 C1598 1.399 . S
C1598 H1584 0.929 . S
C1598 C1597 1.399 . S
C1598 C1599 1.385 . S
C1599 H1585 0.931 . S
C1599 C1598 1.385 . S
C1599 C1600 1.389 . S
C1600 C1599 1.389 . S
C1600 C1601 1.387 . S
C1601 H1586 0.930 . S
C1601 C1596 1.390 . S
C1601 C1600 1.387 . S
H1602 C1614 0.930 . S
H1603 C1616 0.930 . S
H1604 C1617 0.930 . S
H1605 C1621 0.959 . S
H1606 C1621 0.959 . S
H1607 C1621 0.961 . S
H1608 C1622 0.960 . S
H1609 C1622 0.961 . S
H1610 C1622 0.959 . S
H1611 C1625 0.929 . S
H1612 C1626 0.931 . S
H1613 C1628 0.930 . S
C1614 H1602 0.930 . S
C1614 C1615 1.399 . S
C1614 C1619 1.399 . S
C1615 C1614 1.399 . S
C1615 C1616 1.376 . S
C1616 H1603 0.930 . S
C1616 C1615 1.376 . S
C1616 C1617 1.388 . S
C1617 H1604 0.930 . S
C1617 C1616 1.388 . S
C1617 C1618 1.390 . S
C1618 C1617 1.390 . S
C1618 C1619 1.394 . S
C1618 C1624 1.465 . S
C1619 C1614 1.399 . S
C1619 C1618 1.394 . S
C1619 C1620 1.516 . S
C1620 C1619 1.516 . S
C1620 C1621 1.502 . S
C1620 C1622 1.561 . S
C1620 C1623 1.526 . S
C1621 H1605 0.959 . S
C1621 H1606 0.959 . S
C1621 H1607 0.961 . S
C1621 C1620 1.502 . S
C1622 H1608 0.960 . S
C1622 H1609 0.961 . S
C1622 H1610 0.959 . S
C1622 C1620 1.561 . S
C1623 C1620 1.526 . S
C1623 C1624 1.396 . S
C1623 C1628 1.390 . S
C1624 C1618 1.465 . S
C1624 C1623 1.396 . S
C1624 C1625 1.399 . S
C1625 H1611 0.929 . S
C1625 C1624 1.399 . S
C1625 C1626 1.385 . S
C1626 H1612 0.931 . S
C1626 C1625 1.385 . S
C1626 C1627 1.389 . S
C1627 C1626 1.389 . S
C1627 C1628 1.387 . S
C1628 H1613 0.930 . S
C1628 C1623 1.390 . S
C1628 C1627 1.387 . S
H1629 C1641 0.930 . S
H1630 C1643 0.930 . S
H1631 C1644 0.930 . S
H1632 C1648 0.959 . S
H1633 C1648 0.959 . S
H1634 C1648 0.961 . S
H1635 C1649 0.960 . S
H1636 C1649 0.961 . S
H1637 C1649 0.959 . S
H1638 C1652 0.929 . S
H1639 C1653 0.931 . S
H1640 C1655 0.930 . S
C1641 H1629 0.930 . S
C1641 C1642 1.399 . S
C1641 C1646 1.399 . S
C1642 C1641 1.399 . S
C1642 C1643 1.376 . S
C1643 H1630 0.930 . S
C1643 C1642 1.376 . S
C1643 C1644 1.388 . S
C1644 H1631 0.930 . S
C1644 C1643 1.388 . S
C1644 C1645 1.390 . S
C1645 C1644 1.390 . S
C1645 C1646 1.394 . S
C1645 C1651 1.465 . S
C1646 C1641 1.399 . S
C1646 C1645 1.394 . S
C1646 C1647 1.516 . S
C1647 C1646 1.516 . S
C1647 C1648 1.502 . S
C1647 C1649 1.561 . S
C1647 C1650 1.526 . S
C1648 H1632 0.959 . S
C1648 H1633 0.959 . S
C1648 H1634 0.961 . S
C1648 C1647 1.502 . S
C1649 H1635 0.960 . S
C1649 H1636 0.961 . S
C1649 H1637 0.959 . S
C1649 C1647 1.561 . S
C1650 C1647 1.526 . S
C1650 C1651 1.396 . S
C1650 C1655 1.390 . S
C1651 C1645 1.465 . S
C1651 C1650 1.396 . S
C1651 C1652 1.399 . S
C1652 H1638 0.929 . S
C1652 C1651 1.399 . S
C1652 C1653 1.385 . S
C1653 H1639 0.931 . S
C1653 C1652 1.385 . S
C1653 C1654 1.389 . S
C1654 C1653 1.389 . S
C1654 C1655 1.387 . S
C1655 H1640 0.930 . S
C1655 C1650 1.390 . S
C1655 C1654 1.387 . S
H1656 C1668 0.930 . S
H1657 C1670 0.930 . S
H1658 C1671 0.930 . S
H1659 C1675 0.959 . S
H1660 C1675 0.959 . S
H1661 C1675 0.961 . S
H1662 C1676 0.960 . S
H1663 C1676 0.961 . S
H1664 C1676 0.959 . S
H1665 C1679 0.929 . S
H1666 C1680 0.931 . S
H1667 C1682 0.930 . S
C1668 H1656 0.930 . S
C1668 C1669 1.399 . S
C1668 C1673 1.399 . S
C1669 C1668 1.399 . S
C1669 C1670 1.376 . S
C1670 H1657 0.930 . S
C1670 C1669 1.376 . S
C1670 C1671 1.388 . S
C1671 H1658 0.930 . S
C1671 C1670 1.388 . S
C1671 C1672 1.390 . S
C1672 C1671 1.390 . S
C1672 C1673 1.394 . S
C1672 C1678 1.465 . S
C1673 C1668 1.399 . S
C1673 C1672 1.394 . S
C1673 C1674 1.516 . S
C1674 C1673 1.516 . S
C1674 C1675 1.502 . S
C1674 C1676 1.561 . S
C1674 C1677 1.526 . S
C1675 H1659 0.959 . S
C1675 H1660 0.959 . S
C1675 H1661 0.961 . S
C1675 C1674 1.502 . S
C1676 H1662 0.960 . S
C1676 H1663 0.961 . S
C1676 H1664 0.959 . S
C1676 C1674 1.561 . S
C1677 C1674 1.526 . S
C1677 C1678 1.396 . S
C1677 C1682 1.390 . S
C1678 C1672 1.465 . S
C1678 C1677 1.396 . S
C1678 C1679 1.399 . S
C1679 H1665 0.929 . S
C1679 C1678 1.399 . S
C1679 C1680 1.385 . S
C1680 H1666 0.931 . S
C1680 C1679 1.385 . S
C1680 C1681 1.389 . S
C1681 C1680 1.389 . S
C1681 C1682 1.387 . S
C1682 H1667 0.930 . S
C1682 C1677 1.390 . S
C1682 C1681 1.387 . S
H1683 C1695 0.930 . S
H1684 C1697 0.930 . S
H1685 C1698 0.930 . S
H1686 C1702 0.959 . S
H1687 C1702 0.959 . S
H1688 C1702 0.961 . S
H1689 C1703 0.960 . S
H1690 C1703 0.961 . S
H1691 C1703 0.959 . S
H1692 C1706 0.929 . S
H1693 C1707 0.931 . S
H1694 C1709 0.930 . S
C1695 H1683 0.930 . S
C1695 C1696 1.399 . S
C1695 C1700 1.399 . S
C1696 C1695 1.399 . S
C1696 C1697 1.376 . S
C1697 H1684 0.930 . S
C1697 C1696 1.376 . S
C1697 C1698 1.388 . S
C1698 H1685 0.930 . S
C1698 C1697 1.388 . S
C1698 C1699 1.390 . S
C1699 C1698 1.390 . S
C1699 C1700 1.394 . S
C1699 C1705 1.465 . S
C1700 C1695 1.399 . S
C1700 C1699 1.394 . S
C1700 C1701 1.516 . S
C1701 C1700 1.516 . S
C1701 C1702 1.502 . S
C1701 C1703 1.561 . S
C1701 C1704 1.526 . S
C1702 H1686 0.959 . S
C1702 H1687 0.959 . S
C1702 H1688 0.961 . S
C1702 C1701 1.502 . S
C1703 H1689 0.960 . S
C1703 H1690 0.961 . S
C1703 H1691 0.959 . S
C1703 C1701 1.561 . S
C1704 C1701 1.526 . S
C1704 C1705 1.396 . S
C1704 C1709 1.390 . S
C1705 C1699 1.465 . S
C1705 C1704 1.396 . S
C1705 C1706 1.399 . S
C1706 H1692 0.929 . S
C1706 C1705 1.399 . S
C1706 C1707 1.385 . S
C1707 H1693 0.931 . S
C1707 C1706 1.385 . S
C1707 C1708 1.389 . S
C1708 C1707 1.389 . S
C1708 C1709 1.387 . S
C1709 H1694 0.930 . S
C1709 C1704 1.390 . S
C1709 C1708 1.387 . S
H1710 C1722 0.930 . S
H1711 C1724 0.930 . S
H1712 C1725 0.930 . S
H1713 C1729 0.959 . S
H1714 C1729 0.959 . S
H1715 C1729 0.961 . S
H1716 C1730 0.960 . S
H1717 C1730 0.961 . S
H1718 C1730 0.959 . S
H1719 C1733 0.929 . S
H1720 C1734 0.931 . S
H1721 C1736 0.930 . S
C1722 H1710 0.930 . S
C1722 C1723 1.399 . S
C1722 C1727 1.399 . S
C1723 C1722 1.399 . S
C1723 C1724 1.376 . S
C1724 H1711 0.930 . S
C1724 C1723 1.376 . S
C1724 C1725 1.388 . S
C1725 H1712 0.930 . S
C1725 C1724 1.388 . S
C1725 C1726 1.390 . S
C1726 C1725 1.390 . S
C1726 C1727 1.394 . S
C1726 C1732 1.465 . S
C1727 C1722 1.399 . S
C1727 C1726 1.394 . S
C1727 C1728 1.516 . S
C1728 C1727 1.516 . S
C1728 C1729 1.502 . S
C1728 C1730 1.561 . S
C1728 C1731 1.526 . S
C1729 H1713 0.959 . S
C1729 H1714 0.959 . S
C1729 H1715 0.961 . S
C1729 C1728 1.502 . S
C1730 H1716 0.960 . S
C1730 H1717 0.961 . S
C1730 H1718 0.959 . S
C1730 C1728 1.561 . S
C1731 C1728 1.526 . S
C1731 C1732 1.396 . S
C1731 C1736 1.390 . S
C1732 C1726 1.465 . S
C1732 C1731 1.396 . S
C1732 C1733 1.399 . S
C1733 H1719 0.929 . S
C1733 C1732 1.399 . S
C1733 C1734 1.385 . S
C1734 H1720 0.931 . S
C1734 C1733 1.385 . S
C1734 C1735 1.389 . S
C1735 C1734 1.389 . S
C1735 C1736 1.387 . S
C1736 H1721 0.930 . S
C1736 C1731 1.390 . S
C1736 C1735 1.387 . S
H1737 C1749 0.930 . S
H1738 C1751 0.930 . S
H1739 C1752 0.930 . S
H1740 C1756 0.959 . S
H1741 C1756 0.959 . S
H1742 C1756 0.961 . S
H1743 C1757 0.960 . S
H1744 C1757 0.961 . S
H1745 C1757 0.959 . S
H1746 C1760 0.929 . S
H1747 C1761 0.931 . S
H1748 C1763 0.930 . S
C1749 H1737 0.930 . S
C1749 C1750 1.399 . S
C1749 C1754 1.399 . S
C1750 C1749 1.399 . S
C1750 C1751 1.376 . S
C1751 H1738 0.930 . S
C1751 C1750 1.376 . S
C1751 C1752 1.388 . S
C1752 H1739 0.930 . S
C1752 C1751 1.388 . S
C1752 C1753 1.390 . S
C1753 C1752 1.390 . S
C1753 C1754 1.394 . S
C1753 C1759 1.465 . S
C1754 C1749 1.399 . S
C1754 C1753 1.394 . S
C1754 C1755 1.516 . S
C1755 C1754 1.516 . S
C1755 C1756 1.502 . S
C1755 C1757 1.561 . S
C1755 C1758 1.526 . S
C1756 H1740 0.959 . S
C1756 H1741 0.959 . S
C1756 H1742 0.961 . S
C1756 C1755 1.502 . S
C1757 H1743 0.960 . S
C1757 H1744 0.961 . S
C1757 H1745 0.959 . S
C1757 C1755 1.561 . S
C1758 C1755 1.526 . S
C1758 C1759 1.396 . S
C1758 C1763 1.390 . S
C1759 C1753 1.465 . S
C1759 C1758 1.396 . S
C1759 C1760 1.399 . S
C1760 H1746 0.929 . S
C1760 C1759 1.399 . S
C1760 C1761 1.385 . S
C1761 H1747 0.931 . S
C1761 C1760 1.385 . S
C1761 C1762 1.389 . S
C1762 C1761 1.389 . S
C1762 C1763 1.387 . S
C1763 H1748 0.930 . S
C1763 C1758 1.390 . S
C1763 C1762 1.387 . S
H1764 C1776 0.930 . S
H1765 C1778 0.930 . S
H1766 C1779 0.930 . S
H1767 C1783 0.959 . S
H1768 C1783 0.959 . S
H1769 C1783 0.961 . S
H1770 C1784 0.960 . S
H1771 C1784 0.961 . S
H1772 C1784 0.959 . S
H1773 C1787 0.929 . S
H1774 C1788 0.931 . S
H1775 C1790 0.930 . S
C1776 H1764 0.930 . S
C1776 C1777 1.399 . S
C1776 C1781 1.399 . S
C1777 C1776 1.399 . S
C1777 C1778 1.376 . S
C1778 H1765 0.930 . S
C1778 C1777 1.376 . S
C1778 C1779 1.388 . S
C1779 H1766 0.930 . S
C1779 C1778 1.388 . S
C1779 C1780 1.390 . S
C1780 C1779 1.390 . S
C1780 C1781 1.394 . S
C1780 C1786 1.465 1_455 S
C1781 C1776 1.399 . S
C1781 C1780 1.394 . S
C1781 C1782 1.516 1_455 S
C1782 C1781 1.516 1_655 S
C1782 C1783 1.502 1_655 S
C1782 C1784 1.561 . S
C1782 C1785 1.526 . S
C1783 H1767 0.959 . S
C1783 H1768 0.959 . S
C1783 H1769 0.961 . S
C1783 C1782 1.502 1_455 S
C1784 H1770 0.960 . S
C1784 H1771 0.961 . S
C1784 H1772 0.959 . S
C1784 C1782 1.561 . S
C1785 C1782 1.526 . S
C1785 C1786 1.396 . S
C1785 C1790 1.390 . S
C1786 C1780 1.465 1_655 S
C1786 C1785 1.396 . S
C1786 C1787 1.399 . S
C1787 H1773 0.929 . S
C1787 C1786 1.399 . S
C1787 C1788 1.385 . S
C1788 H1774 0.931 . S
C1788 C1787 1.385 . S
C1788 C1789 1.389 . S
C1789 C1788 1.389 . S
C1789 C1790 1.387 . S
C1790 H1775 0.930 . S
C1790 C1785 1.390 . S
C1790 C1789 1.387 . S
H1791 C1803 0.930 . S
H1792 C1805 0.930 . S
H1793 C1806 0.930 . S
H1794 C1810 0.959 . S
H1795 C1810 0.959 . S
H1796 C1810 0.961 . S
H1797 C1811 0.960 . S
H1798 C1811 0.961 . S
H1799 C1811 0.959 . S
H1800 C1814 0.929 . S
H1801 C1815 0.931 . S
H1802 C1817 0.930 . S
C1803 H1791 0.930 . S
C1803 C1804 1.399 . S
C1803 C1808 1.399 . S
C1804 C1803 1.399 . S
C1804 C1805 1.376 . S
C1805 H1792 0.930 . S
C1805 C1804 1.376 . S
C1805 C1806 1.388 . S
C1806 H1793 0.930 . S
C1806 C1805 1.388 . S
C1806 C1807 1.390 . S
C1807 C1806 1.390 . S
C1807 C1808 1.394 . S
C1807 C1813 1.465 . S
C1808 C1803 1.399 . S
C1808 C1807 1.394 . S
C1808 C1809 1.516 . S
C1809 C1808 1.516 . S
C1809 C1810 1.502 . S
C1809 C1811 1.561 . S
C1809 C1812 1.526 . S
C1810 H1794 0.959 . S
C1810 H1795 0.959 . S
C1810 H1796 0.961 . S
C1810 C1809 1.502 . S
C1811 H1797 0.960 . S
C1811 H1798 0.961 . S
C1811 H1799 0.959 . S
C1811 C1809 1.561 . S
C1812 C1809 1.526 . S
C1812 C1813 1.396 . S
C1812 C1817 1.390 . S
C1813 C1807 1.465 . S
C1813 C1812 1.396 . S
C1813 C1814 1.399 . S
C1814 H1800 0.929 . S
C1814 C1813 1.399 . S
C1814 C1815 1.385 . S
C1815 H1801 0.931 . S
C1815 C1814 1.385 . S
C1815 C1816 1.389 . S
C1816 C1815 1.389 . S
C1816 C1817 1.387 . S
C1817 H1802 0.930 . S
C1817 C1812 1.390 . S
C1817 C1816 1.387 . S
H1818 C1830 0.927 . S
H1819 C1832 0.930 . S
H1820 C1833 0.930 . S
H1821 C1837 0.959 . S
H1822 C1837 0.959 . S
H1823 C1837 0.961 . S
H1824 C1838 0.960 . S
H1825 C1838 0.961 . S
H1826 C1838 0.959 . S
H1827 C1841 0.929 . S
H1828 C1842 0.931 . S
H1829 C1844 0.930 . S
C1830 H1818 0.927 . S
C1830 C1831 1.402 1_545 S
C1830 C1835 1.399 . S
C1831 C1830 1.402 1_565 S
C1831 C1832 1.376 . S
C1832 H1819 0.930 . S
C1832 C1831 1.376 . S
C1832 C1833 1.388 . S
C1833 H1820 0.930 . S
C1833 C1832 1.388 . S
C1833 C1834 1.390 . S
C1834 C1833 1.390 . S
C1834 C1835 1.394 1_565 S
C1834 C1840 1.465 . S
C1835 C1830 1.399 . S
C1835 C1834 1.394 1_545 S
C1835 C1836 1.516 . S
C1836 C1835 1.516 . S
C1836 C1837 1.502 . S
C1836 C1838 1.561 . S
C1836 C1839 1.526 . S
C1837 H1821 0.959 . S
C1837 H1822 0.959 . S
C1837 H1823 0.961 . S
C1837 C1836 1.502 . S
C1838 H1824 0.960 . S
C1838 H1825 0.961 . S
C1838 H1826 0.959 . S
C1838 C1836 1.561 . S
C1839 C1836 1.526 . S
C1839 C1840 1.396 1_545 S
C1839 C1844 1.390 . S
C1840 C1834 1.465 . S
C1840 C1839 1.396 1_565 S
C1840 C1841 1.399 . S
C1841 H1827 0.929 . S
C1841 C1840 1.399 . S
C1841 C1842 1.385 . S
C1842 H1828 0.931 . S
C1842 C1841 1.385 . S
C1842 C1843 1.389 1_565 S
C1843 C1842 1.389 1_545 S
C1843 C1844 1.387 . S
C1844 H1829 0.930 . S
C1844 C1839 1.390 . S
C1844 C1843 1.387 . S
H1845 C1857 0.930 1_545 S
H1846 C1859 0.930 . S
H1847 C1860 0.930 . S
H1848 C1864 0.959 . S
H1849 C1864 0.959 . S
H1850 C1864 0.961 . S
H1851 C1865 0.960 . S
H1852 C1865 0.961 . S
H1853 C1865 0.959 . S
H1854 C1868 0.929 . S
H1855 C1869 0.934 1_565 S
H1856 C1871 0.930 . S
C1857 H1845 0.930 1_565 S
C1857 C1858 1.399 . S
C1857 C1862 1.399 1_565 S
C1858 C1857 1.399 . S
C1858 C1859 1.376 . S
C1859 H1846 0.930 . S
C1859 C1858 1.376 . S
C1859 C1860 1.388 . S
C1860 H1847 0.930 . S
C1860 C1859 1.388 . S
C1860 C1861 1.390 . S
C1861 C1860 1.390 . S
C1861 C1862 1.394 1_565 S
C1861 C1867 1.465 . S
C1862 C1857 1.399 1_545 S
C1862 C1861 1.394 1_545 S
C1862 C1863 1.516 . S
C1863 C1862 1.516 . S
C1863 C1864 1.502 . S
C1863 C1865 1.561 . S
C1863 C1866 1.526 . S
C1864 H1848 0.959 . S
C1864 H1849 0.959 . S
C1864 H1850 0.961 . S
C1864 C1863 1.502 . S
C1865 H1851 0.960 . S
C1865 H1852 0.961 . S
C1865 H1853 0.959 . S
C1865 C1863 1.561 . S
C1866 C1863 1.526 . S
C1866 C1867 1.396 1_545 S
C1866 C1871 1.390 . S
C1867 C1861 1.465 . S
C1867 C1866 1.396 1_565 S
C1867 C1868 1.399 . S
C1868 H1854 0.929 . S
C1868 C1867 1.399 . S
C1868 C1869 1.388 1_565 S
C1869 H1855 0.934 1_545 S
C1869 C1868 1.388 1_545 S
C1869 C1870 1.384 . S
C1870 C1869 1.384 . S
C1870 C1871 1.387 . S
C1871 H1856 0.930 . S
C1871 C1866 1.390 . S
C1871 C1870 1.387 . S
H1872 C1884 0.930 1_455 S
H1873 C1886 0.930 . S
H1874 C1887 0.930 . S
H1875 C1891 0.959 . S
H1876 C1891 0.959 . S
H1877 C1891 0.961 . S
H1878 C1892 0.960 . S
H1879 C1892 0.961 . S
H1880 C1892 0.959 . S
H1881 C1895 0.929 . S
H1882 C1896 0.931 . S
H1883 C1898 0.930 . S
C1884 H1872 0.930 1_655 S
C1884 C1885 1.399 . S
C1884 C1889 1.392 1_655 S
C1885 C1884 1.399 . S
C1885 C1886 1.376 . S
C1886 H1873 0.930 . S
C1886 C1885 1.376 . S
C1886 C1887 1.388 . S
C1887 H1874 0.930 . S
C1887 C1886 1.388 . S
C1887 C1888 1.390 . S
C1888 C1887 1.390 . S
C1888 C1889 1.379 1_655 S
C1888 C1894 1.465 . S
C1889 C1884 1.392 1_455 S
C1889 C1888 1.379 1_455 S
C1889 C1890 1.538 . S
C1890 C1889 1.538 . S
C1890 C1891 1.502 . S
C1890 C1892 1.561 . S
C1890 C1893 1.526 . S
C1891 H1875 0.959 . S
C1891 H1876 0.959 . S
C1891 H1877 0.961 . S
C1891 C1890 1.502 . S
C1892 H1878 0.960 . S
C1892 H1879 0.961 . S
C1892 H1880 0.959 . S
C1892 C1890 1.561 . S
C1893 C1890 1.526 . S
C1893 C1894 1.396 1_455 S
C1893 C1898 1.390 . S
C1894 C1888 1.465 . S
C1894 C1893 1.396 1_655 S
C1894 C1895 1.399 . S
C1895 H1881 0.929 . S
C1895 C1894 1.399 . S
C1895 C1896 1.385 . S
C1896 H1882 0.931 . S
C1896 C1895 1.385 . S
C1896 C1897 1.389 1_655 S
C1897 C1896 1.389 1_455 S
C1897 C1898 1.387 . S
C1898 H1883 0.930 . S
C1898 C1893 1.390 . S
C1898 C1897 1.387 . S
H1899 C1911 0.930 . S
H1900 C1913 0.930 . S
H1901 C1914 0.930 . S
H1902 C1918 0.959 . S
H1903 C1918 0.959 . S
H1904 C1918 0.961 . S
H1905 C1919 0.960 . S
H1906 C1919 0.961 . S
H1907 C1919 0.959 . S
H1908 C1922 0.929 . S
H1909 C1923 0.931 . S
H1910 C1925 0.930 . S
C1911 H1899 0.930 . S
C1911 C1912 1.399 . S
C1911 C1916 1.399 . S
C1912 C1911 1.399 . S
C1912 C1913 1.376 . S
C1913 H1900 0.930 . S
C1913 C1912 1.376 . S
C1913 C1914 1.388 . S
C1914 H1901 0.930 . S
C1914 C1913 1.388 . S
C1914 C1915 1.390 . S
C1915 C1914 1.390 . S
C1915 C1916 1.394 . S
C1915 C1921 1.465 . S
C1916 C1911 1.399 . S
C1916 C1915 1.394 . S
C1916 C1917 1.516 . S
C1917 C1916 1.516 . S
C1917 C1918 1.502 . S
C1917 C1919 1.561 . S
C1917 C1920 1.526 . S
C1918 H1902 0.959 . S
C1918 H1903 0.959 . S
C1918 H1904 0.961 . S
C1918 C1917 1.502 . S
C1919 H1905 0.960 . S
C1919 H1906 0.961 . S
C1919 H1907 0.959 . S
C1919 C1917 1.561 . S
C1920 C1917 1.526 . S
C1920 C1921 1.396 . S
C1920 C1925 1.390 . S
C1921 C1915 1.465 . S
C1921 C1920 1.396 . S
C1921 C1922 1.399 . S
C1922 H1908 0.929 . S
C1922 C1921 1.399 . S
C1922 C1923 1.385 . S
C1923 H1909 0.931 . S
C1923 C1922 1.385 . S
C1923 C1924 1.389 . S
C1924 C1923 1.389 . S
C1924 C1925 1.387 . S
C1925 H1910 0.930 . S
C1925 C1920 1.390 . S
C1925 C1924 1.387 . S
H1926 C1938 0.930 . S
H1927 C1940 0.930 . S
H1928 C1941 0.930 . S
H1929 C1945 0.959 . S
H1930 C1945 0.959 . S
H1931 C1945 0.961 . S
H1932 C1946 0.960 . S
H1933 C1946 0.961 . S
H1934 C1946 0.959 . S
H1935 C1949 0.929 . S
H1936 C1950 0.931 . S
H1937 C1952 0.930 . S
C1938 H1926 0.930 . S
C1938 C1939 1.399 . S
C1938 C1943 1.399 . S
C1939 C1938 1.399 . S
C1939 C1940 1.376 . S
C1940 H1927 0.930 . S
C1940 C1939 1.376 . S
C1940 C1941 1.388 . S
C1941 H1928 0.930 . S
C1941 C1940 1.388 . S
C1941 C1942 1.390 . S
C1942 C1941 1.390 . S
C1942 C1943 1.394 . S
C1942 C1948 1.465 . S
C1943 C1938 1.399 . S
C1943 C1942 1.394 . S
C1943 C1944 1.516 . S
C1944 C1943 1.516 . S
C1944 C1945 1.502 . S
C1944 C1946 1.561 . S
C1944 C1947 1.526 . S
C1945 H1929 0.959 . S
C1945 H1930 0.959 . S
C1945 H1931 0.961 . S
C1945 C1944 1.502 . S
C1946 H1932 0.960 . S
C1946 H1933 0.961 . S
C1946 H1934 0.959 . S
C1946 C1944 1.561 . S
C1947 C1944 1.526 . S
C1947 C1948 1.396 . S
C1947 C1952 1.390 . S
C1948 C1942 1.465 . S
C1948 C1947 1.396 . S
C1948 C1949 1.399 . S
C1949 H1935 0.929 . S
C1949 C1948 1.399 . S
C1949 C1950 1.385 . S
C1950 H1936 0.931 . S
C1950 C1949 1.385 . S
C1950 C1951 1.389 . S
C1951 C1950 1.389 . S
C1951 C1952 1.387 . S
C1952 H1937 0.930 . S
C1952 C1947 1.390 . S
C1952 C1951 1.387 . S
H1953 C1965 0.930 . S
H1954 C1967 0.930 . S
H1955 C1968 0.930 . S
H1956 C1972 0.959 . S
H1957 C1972 0.959 . S
H1958 C1972 0.961 . S
H1959 C1973 0.960 . S
H1960 C1973 0.961 . S
H1961 C1973 0.959 . S
H1962 C1976 0.929 . S
H1963 C1977 0.931 . S
H1964 C1979 0.930 . S
C1965 H1953 0.930 . S
C1965 C1966 1.399 . S
C1965 C1970 1.399 . S
C1966 C1965 1.399 . S
C1966 C1967 1.376 . S
C1967 H1954 0.930 . S
C1967 C1966 1.376 . S
C1967 C1968 1.388 . S
C1968 H1955 0.930 . S
C1968 C1967 1.388 . S
C1968 C1969 1.390 . S
C1969 C1968 1.390 . S
C1969 C1970 1.394 . S
C1969 C1975 1.465 . S
C1970 C1965 1.399 . S
C1970 C1969 1.394 . S
C1970 C1971 1.516 . S
C1971 C1970 1.516 . S
C1971 C1972 1.502 . S
C1971 C1973 1.561 . S
C1971 C1974 1.526 . S
C1972 H1956 0.959 . S
C1972 H1957 0.959 . S
C1972 H1958 0.961 . S
C1972 C1971 1.502 . S
C1973 H1959 0.960 . S
C1973 H1960 0.961 . S
C1973 H1961 0.959 . S
C1973 C1971 1.561 . S
C1974 C1971 1.526 . S
C1974 C1975 1.396 . S
C1974 C1979 1.390 . S
C1975 C1969 1.465 . S
C1975 C1974 1.396 . S
C1975 C1976 1.399 . S
C1976 H1962 0.929 . S
C1976 C1975 1.399 . S
C1976 C1977 1.385 . S
C1977 H1963 0.931 . S
C1977 C1976 1.385 . S
C1977 C1978 1.389 . S
C1978 C1977 1.389 . S
C1978 C1979 1.387 . S
C1979 H1964 0.930 . S
C1979 C1974 1.390 . S
C1979 C1978 1.387 . S
H1980 C1992 0.930 . S
H1981 C1994 0.930 . S
H1982 C1995 0.930 . S
H1983 C1999 0.959 . S
H1984 C1999 0.959 . S
H1985 C1999 0.961 . S
H1986 C2000 0.960 . S
H1987 C2000 0.961 . S
H1988 C2000 0.959 . S
H1989 C2003 0.929 . S
H1990 C2004 0.931 . S
H1991 C2006 0.930 . S
C1992 H1980 0.930 . S
C1992 C1993 1.399 . S
C1992 C1997 1.399 . S
C1993 C1992 1.399 . S
C1993 C1994 1.376 . S
C1994 H1981 0.930 . S
C1994 C1993 1.376 . S
C1994 C1995 1.388 . S
C1995 H1982 0.930 . S
C1995 C1994 1.388 . S
C1995 C1996 1.390 . S
C1996 C1995 1.390 . S
C1996 C1997 1.394 . S
C1996 C2002 1.465 . S
C1997 C1992 1.399 . S
C1997 C1996 1.394 . S
C1997 C1998 1.516 . S
C1998 C1997 1.516 . S
C1998 C1999 1.502 . S
C1998 C2000 1.561 . S
C1998 C2001 1.526 . S
C1999 H1983 0.959 . S
C1999 H1984 0.959 . S
C1999 H1985 0.961 . S
C1999 C1998 1.502 . S
C2000 H1986 0.960 . S
C2000 H1987 0.961 . S
C2000 H1988 0.959 . S
C2000 C1998 1.561 . S
C2001 C1998 1.526 . S
C2001 C2002 1.396 . S
C2001 C2006 1.390 . S
C2002 C1996 1.465 . S
C2002 C2001 1.396 . S
C2002 C2003 1.399 . S
C2003 H1989 0.929 . S
C2003 C2002 1.399 . S
C2003 C2004 1.385 . S
C2004 H1990 0.931 . S
C2004 C2003 1.385 . S
C2004 C2005 1.389 . S
C2005 C2004 1.389 . S
C2005 C2006 1.387 . S
C2006 H1991 0.930 . S
C2006 C2001 1.390 . S
C2006 C2005 1.387 . S
H2007 C2019 0.930 . S
H2008 C2021 0.930 . S
H2009 C2022 0.930 . S
H2010 C2026 0.959 . S
H2011 C2026 0.959 . S
H2012 C2026 0.961 . S
H2013 C2027 0.960 . S
H2014 C2027 0.961 . S
H2015 C2027 0.959 . S
H2016 C2030 0.929 . S
H2017 C2031 0.931 . S
H2018 C2033 0.930 . S
C2019 H2007 0.930 . S
C2019 C2020 1.399 . S
C2019 C2024 1.399 . S
C2020 C2019 1.399 . S
C2020 C2021 1.376 . S
C2021 H2008 0.930 . S
C2021 C2020 1.376 . S
C2021 C2022 1.388 . S
C2022 H2009 0.930 . S
C2022 C2021 1.388 . S
C2022 C2023 1.390 . S
C2023 C2022 1.390 . S
C2023 C2024 1.394 . S
C2023 C2029 1.465 . S
C2024 C2019 1.399 . S
C2024 C2023 1.394 . S
C2024 C2025 1.516 . S
C2025 C2024 1.516 . S
C2025 C2026 1.502 . S
C2025 C2027 1.561 . S
C2025 C2028 1.526 . S
C2026 H2010 0.959 . S
C2026 H2011 0.959 . S
C2026 H2012 0.961 . S
C2026 C2025 1.502 . S
C2027 H2013 0.960 . S
C2027 H2014 0.961 . S
C2027 H2015 0.959 . S
C2027 C2025 1.561 . S
C2028 C2025 1.526 . S
C2028 C2029 1.396 . S
C2028 C2033 1.390 . S
C2029 C2023 1.465 . S
C2029 C2028 1.396 . S
C2029 C2030 1.399 . S
C2030 H2016 0.929 . S
C2030 C2029 1.399 . S
C2030 C2031 1.385 . S
C2031 H2017 0.931 . S
C2031 C2030 1.385 . S
C2031 C2032 1.389 . S
C2032 C2031 1.389 . S
C2032 C2033 1.387 . S
C2033 H2018 0.930 . S
C2033 C2028 1.390 . S
C2033 C2032 1.387 . S
H2034 C2046 0.930 . S
H2035 C2048 0.930 . S
H2036 C2049 0.930 . S
H2037 C2053 0.959 . S
H2038 C2053 0.959 . S
H2039 C2053 0.961 . S
H2040 C2054 0.960 . S
H2041 C2054 0.961 . S
H2042 C2054 0.959 . S
H2043 C2057 0.929 . S
H2044 C2058 0.931 . S
H2045 C2060 0.930 . S
C2046 H2034 0.930 . S
C2046 C2047 1.399 . S
C2046 C2051 1.399 . S
C2047 C2046 1.399 . S
C2047 C2048 1.376 . S
C2048 H2035 0.930 . S
C2048 C2047 1.376 . S
C2048 C2049 1.388 . S
C2049 H2036 0.930 . S
C2049 C2048 1.388 . S
C2049 C2050 1.390 . S
C2050 C2049 1.390 . S
C2050 C2051 1.394 . S
C2050 C2056 1.465 . S
C2051 C2046 1.399 . S
C2051 C2050 1.394 . S
C2051 C2052 1.516 . S
C2052 C2051 1.516 . S
C2052 C2053 1.502 . S
C2052 C2054 1.561 . S
C2052 C2055 1.526 . S
C2053 H2037 0.959 . S
C2053 H2038 0.959 . S
C2053 H2039 0.961 . S
C2053 C2052 1.502 . S
C2054 H2040 0.960 . S
C2054 H2041 0.961 . S
C2054 H2042 0.959 . S
C2054 C2052 1.561 . S
C2055 C2052 1.526 . S
C2055 C2056 1.396 . S
C2055 C2060 1.390 . S
C2056 C2050 1.465 . S
C2056 C2055 1.396 . S
C2056 C2057 1.399 . S
C2057 H2043 0.929 . S
C2057 C2056 1.399 . S
C2057 C2058 1.385 . S
C2058 H2044 0.931 . S
C2058 C2057 1.385 . S
C2058 C2059 1.389 . S
C2059 C2058 1.389 . S
C2059 C2060 1.387 . S
C2060 H2045 0.930 . S
C2060 C2055 1.390 . S
C2060 C2059 1.387 . S
H2061 C2073 0.930 . S
H2062 C2075 0.930 . S
H2063 C2076 0.930 . S
H2064 C2080 0.959 . S
H2065 C2080 0.959 . S
H2066 C2080 0.961 . S
H2067 C2081 0.960 . S
H2068 C2081 0.961 . S
H2069 C2081 0.959 . S
H2070 C2084 0.929 . S
H2071 C2085 0.931 . S
H2072 C2087 0.930 . S
C2073 H2061 0.930 . S
C2073 C2074 1.399 . S
C2073 C2078 1.399 . S
C2074 C2073 1.399 . S
C2074 C2075 1.376 . S
C2075 H2062 0.930 . S
C2075 C2074 1.376 . S
C2075 C2076 1.388 . S
C2076 H2063 0.930 . S
C2076 C2075 1.388 . S
C2076 C2077 1.390 . S
C2077 C2076 1.390 . S
C2077 C2078 1.394 . S
C2077 C2083 1.465 . S
C2078 C2073 1.399 . S
C2078 C2077 1.394 . S
C2078 C2079 1.516 . S
C2079 C2078 1.516 . S
C2079 C2080 1.502 . S
C2079 C2081 1.561 . S
C2079 C2082 1.526 . S
C2080 H2064 0.959 . S
C2080 H2065 0.959 . S
C2080 H2066 0.961 . S
C2080 C2079 1.502 . S
C2081 H2067 0.960 . S
C2081 H2068 0.961 . S
C2081 H2069 0.959 . S
C2081 C2079 1.561 . S
C2082 C2079 1.526 . S
C2082 C2083 1.396 . S
C2082 C2087 1.390 . S
C2083 C2077 1.465 . S
C2083 C2082 1.396 . S
C2083 C2084 1.399 . S
C2084 H2070 0.929 . S
C2084 C2083 1.399 . S
C2084 C2085 1.385 . S
C2085 H2071 0.931 . S
C2085 C2084 1.385 . S
C2085 C2086 1.389 . S
C2086 C2085 1.389 . S
C2086 C2087 1.387 . S
C2087 H2072 0.930 . S
C2087 C2082 1.390 . S
C2087 C2086 1.387 . S
H2088 C2100 0.930 . S
H2089 C2102 0.930 . S
H2090 C2103 0.930 . S
H2091 C2107 0.959 . S
H2092 C2107 0.959 . S
H2093 C2107 0.961 . S
H2094 C2108 0.960 . S
H2095 C2108 0.961 . S
H2096 C2108 0.959 . S
H2097 C2111 0.929 . S
H2098 C2112 0.931 . S
H2099 C2114 0.930 . S
C2100 H2088 0.930 . S
C2100 C2101 1.399 . S
C2100 C2105 1.399 . S
C2101 C2100 1.399 . S
C2101 C2102 1.376 . S
C2102 H2089 0.930 . S
C2102 C2101 1.376 . S
C2102 C2103 1.388 . S
C2103 H2090 0.930 . S
C2103 C2102 1.388 . S
C2103 C2104 1.390 . S
C2104 C2103 1.390 . S
C2104 C2105 1.394 . S
C2104 C2110 1.465 . S
C2105 C2100 1.399 . S
C2105 C2104 1.394 . S
C2105 C2106 1.516 . S
C2106 C2105 1.516 . S
C2106 C2107 1.502 . S
C2106 C2108 1.561 . S
C2106 C2109 1.526 . S
C2107 H2091 0.959 . S
C2107 H2092 0.959 . S
C2107 H2093 0.961 . S
C2107 C2106 1.502 . S
C2108 H2094 0.960 . S
C2108 H2095 0.961 . S
C2108 H2096 0.959 . S
C2108 C2106 1.561 . S
C2109 C2106 1.526 . S
C2109 C2110 1.396 . S
C2109 C2114 1.390 . S
C2110 C2104 1.465 . S
C2110 C2109 1.396 . S
C2110 C2111 1.399 . S
C2111 H2097 0.929 . S
C2111 C2110 1.399 . S
C2111 C2112 1.385 . S
C2112 H2098 0.931 . S
C2112 C2111 1.385 . S
C2112 C2113 1.389 . S
C2113 C2112 1.389 . S
C2113 C2114 1.387 . S
C2114 H2099 0.930 . S
C2114 C2109 1.390 . S
C2114 C2113 1.387 . S
H2115 C2127 0.930 . S
H2116 C2129 0.930 . S
H2117 C2130 0.930 . S
H2118 C2134 0.959 . S
H2119 C2134 0.959 . S
H2120 C2134 0.961 . S
H2121 C2135 0.960 . S
H2122 C2135 0.961 . S
H2123 C2135 0.959 . S
H2124 C2138 0.929 . S
H2125 C2139 0.931 . S
H2126 C2141 0.930 . S
C2127 H2115 0.930 . S
C2127 C2128 1.399 . S
C2127 C2132 1.399 . S
C2128 C2127 1.399 . S
C2128 C2129 1.376 . S
C2129 H2116 0.930 . S
C2129 C2128 1.376 . S
C2129 C2130 1.388 . S
C2130 H2117 0.930 . S
C2130 C2129 1.388 . S
C2130 C2131 1.390 . S
C2131 C2130 1.390 . S
C2131 C2132 1.394 . S
C2131 C2137 1.465 . S
C2132 C2127 1.399 . S
C2132 C2131 1.394 . S
C2132 C2133 1.516 . S
C2133 C2132 1.516 . S
C2133 C2134 1.502 . S
C2133 C2135 1.561 . S
C2133 C2136 1.526 . S
C2134 H2118 0.959 . S
C2134 H2119 0.959 . S
C2134 H2120 0.961 . S
C2134 C2133 1.502 . S
C2135 H2121 0.960 . S
C2135 H2122 0.961 . S
C2135 H2123 0.959 . S
C2135 C2133 1.561 . S
C2136 C2133 1.526 . S
C2136 C2137 1.396 . S
C2136 C2141 1.390 . S
C2137 C2131 1.465 . S
C2137 C2136 1.396 . S
C2137 C2138 1.399 . S
C2138 H2124 0.929 . S
C2138 C2137 1.399 . S
C2138 C2139 1.385 . S
C2139 H2125 0.931 . S
C2139 C2138 1.385 . S
C2139 C2140 1.389 . S
C2140 C2139 1.389 . S
C2140 C2141 1.387 . S
C2141 H2126 0.930 . S
C2141 C2136 1.390 . S
C2141 C2140 1.387 . S
H2142 C2154 0.930 . S
H2143 C2156 0.930 . S
H2144 C2157 0.930 . S
H2145 C2161 0.959 . S
H2146 C2161 0.959 . S
H2147 C2161 0.961 . S
H2148 C2162 0.960 . S
H2149 C2162 0.961 . S
H2150 C2162 0.959 . S
H2151 C2165 0.929 . S
H2152 C2166 0.931 . S
H2153 C2168 0.930 . S
C2154 H2142 0.930 . S
C2154 C2155 1.399 . S
C2154 C2159 1.399 . S
C2155 C2154 1.399 . S
C2155 C2156 1.376 . S
C2156 H2143 0.930 . S
C2156 C2155 1.376 . S
C2156 C2157 1.388 . S
C2157 H2144 0.930 . S
C2157 C2156 1.388 . S
C2157 C2158 1.390 . S
C2158 C2157 1.390 . S
C2158 C2159 1.394 . S
C2158 C2164 1.465 . S
C2159 C2154 1.399 . S
C2159 C2158 1.394 . S
C2159 C2160 1.516 . S
C2160 C2159 1.516 . S
C2160 C2161 1.502 . S
C2160 C2162 1.561 . S
C2160 C2163 1.526 . S
C2161 H2145 0.959 . S
C2161 H2146 0.959 . S
C2161 H2147 0.961 . S
C2161 C2160 1.502 . S
C2162 H2148 0.960 . S
C2162 H2149 0.961 . S
C2162 H2150 0.959 . S
C2162 C2160 1.561 . S
C2163 C2160 1.526 . S
C2163 C2164 1.396 . S
C2163 C2168 1.390 . S
C2164 C2158 1.465 . S
C2164 C2163 1.396 . S
C2164 C2165 1.399 . S
C2165 H2151 0.929 . S
C2165 C2164 1.399 . S
C2165 C2166 1.385 . S
C2166 H2152 0.931 . S
C2166 C2165 1.385 . S
C2166 C2167 1.389 . S
C2167 C2166 1.389 . S
C2167 C2168 1.387 . S
C2168 H2153 0.930 . S
C2168 C2163 1.390 . S
C2168 C2167 1.387 . S
H2169 C2181 0.930 . S
H2170 C2183 0.930 . S
H2171 C2184 0.930 . S
H2172 C2188 0.959 . S
H2173 C2188 0.959 . S
H2174 C2188 0.961 . S
H2175 C2189 0.960 . S
H2176 C2189 0.961 . S
H2177 C2189 0.959 . S
H2178 C2192 0.929 . S
H2179 C2193 0.931 . S
H2180 C2195 0.930 . S
C2181 H2169 0.930 . S
C2181 C2182 1.399 . S
C2181 C2186 1.399 . S
C2182 C2181 1.399 . S
C2182 C2183 1.376 . S
C2183 H2170 0.930 . S
C2183 C2182 1.376 . S
C2183 C2184 1.388 . S
C2184 H2171 0.930 . S
C2184 C2183 1.388 . S
C2184 C2185 1.390 . S
C2185 C2184 1.390 . S
C2185 C2186 1.394 . S
C2185 C2191 1.465 . S
C2186 C2181 1.399 . S
C2186 C2185 1.394 . S
C2186 C2187 1.516 . S
C2187 C2186 1.516 . S
C2187 C2188 1.502 . S
C2187 C2189 1.561 . S
C2187 C2190 1.526 . S
C2188 H2172 0.959 . S
C2188 H2173 0.959 . S
C2188 H2174 0.961 . S
C2188 C2187 1.502 . S
C2189 H2175 0.960 . S
C2189 H2176 0.961 . S
C2189 H2177 0.959 . S
C2189 C2187 1.561 . S
C2190 C2187 1.526 . S
C2190 C2191 1.396 . S
C2190 C2195 1.390 . S
C2191 C2185 1.465 . S
C2191 C2190 1.396 . S
C2191 C2192 1.399 . S
C2192 H2178 0.929 . S
C2192 C2191 1.399 . S
C2192 C2193 1.385 . S
C2193 H2179 0.931 . S
C2193 C2192 1.385 . S
C2193 C2194 1.389 . S
C2194 C2193 1.389 . S
C2194 C2195 1.387 . S
C2195 H2180 0.930 . S
C2195 C2190 1.390 . S
C2195 C2194 1.387 . S
H2196 C2208 0.930 . S
H2197 C2210 0.930 . S
H2198 C2211 0.930 . S
H2199 C2215 0.959 . S
H2200 C2215 0.959 . S
H2201 C2215 0.961 . S
H2202 C2216 0.960 . S
H2203 C2216 0.961 . S
H2204 C2216 0.959 . S
H2205 C2219 0.929 . S
H2206 C2220 0.931 . S
H2207 C2222 0.930 . S
C2208 H2196 0.930 . S
C2208 C2209 1.399 . S
C2208 C2213 1.399 . S
C2209 C2208 1.399 . S
C2209 C2210 1.376 . S
C2210 H2197 0.930 . S
C2210 C2209 1.376 . S
C2210 C2211 1.388 . S
C2211 H2198 0.930 . S
C2211 C2210 1.388 . S
C2211 C2212 1.390 . S
C2212 C2211 1.390 . S
C2212 C2213 1.394 . S
C2212 C2218 1.465 . S
C2213 C2208 1.399 . S
C2213 C2212 1.394 . S
C2213 C2214 1.516 . S
C2214 C2213 1.516 . S
C2214 C2215 1.502 . S
C2214 C2216 1.561 . S
C2214 C2217 1.526 . S
C2215 H2199 0.959 . S
C2215 H2200 0.959 . S
C2215 H2201 0.961 . S
C2215 C2214 1.502 . S
C2216 H2202 0.960 . S
C2216 H2203 0.961 . S
C2216 H2204 0.959 . S
C2216 C2214 1.561 . S
C2217 C2214 1.526 . S
C2217 C2218 1.396 . S
C2217 C2222 1.390 . S
C2218 C2212 1.465 . S
C2218 C2217 1.396 . S
C2218 C2219 1.399 . S
C2219 H2205 0.929 . S
C2219 C2218 1.399 . S
C2219 C2220 1.385 . S
C2220 H2206 0.931 . S
C2220 C2219 1.385 . S
C2220 C2221 1.389 . S
C2221 C2220 1.389 . S
C2221 C2222 1.387 . S
C2222 H2207 0.930 . S
C2222 C2217 1.390 . S
C2222 C2221 1.387 . S
H2223 C2235 0.930 . S
H2224 C2237 0.930 . S
H2225 C2238 0.930 . S
H2226 C2242 0.959 . S
H2227 C2242 0.959 . S
H2228 C2242 0.961 . S
H2229 C2243 0.960 . S
H2230 C2243 0.961 . S
H2231 C2243 0.959 . S
H2232 C2246 0.929 . S
H2233 C2247 0.931 . S
H2234 C2249 0.930 . S
C2235 H2223 0.930 . S
C2235 C2236 1.399 . S
C2235 C2240 1.399 . S
C2236 C2235 1.399 . S
C2236 C2237 1.376 . S
C2237 H2224 0.930 . S
C2237 C2236 1.376 . S
C2237 C2238 1.388 . S
C2238 H2225 0.930 . S
C2238 C2237 1.388 . S
C2238 C2239 1.390 . S
C2239 C2238 1.390 . S
C2239 C2240 1.394 . S
C2239 C2245 1.465 . S
C2240 C2235 1.399 . S
C2240 C2239 1.394 . S
C2240 C2241 1.516 . S
C2241 C2240 1.516 . S
C2241 C2242 1.502 . S
C2241 C2243 1.561 . S
C2241 C2244 1.526 . S
C2242 H2226 0.959 . S
C2242 H2227 0.959 . S
C2242 H2228 0.961 . S
C2242 C2241 1.502 . S
C2243 H2229 0.960 . S
C2243 H2230 0.961 . S
C2243 H2231 0.959 . S
C2243 C2241 1.561 . S
C2244 C2241 1.526 . S
C2244 C2245 1.396 . S
C2244 C2249 1.390 . S
C2245 C2239 1.465 . S
C2245 C2244 1.396 . S
C2245 C2246 1.399 . S
C2246 H2232 0.929 . S
C2246 C2245 1.399 . S
C2246 C2247 1.385 . S
C2247 H2233 0.931 . S
C2247 C2246 1.385 . S
C2247 C2248 1.389 . S
C2248 C2247 1.389 . S
C2248 C2249 1.387 . S
C2249 H2234 0.930 . S
C2249 C2244 1.390 . S
C2249 C2248 1.387 . S
H2250 C2262 0.930 . S
H2251 C2264 0.932 . S
H2252 C2265 0.930 . S
H2253 C2269 0.959 . S
H2254 C2269 0.959 . S
H2255 C2269 0.961 . S
H2256 C2270 0.960 1_556 S
H2257 C2270 0.961 . S
H2258 C2270 0.959 . S
H2259 C2273 0.929 . S
H2260 C2274 0.931 . S
H2261 C2276 0.930 1_455 S
C2262 H2250 0.930 . S
C2262 C2263 1.399 . S
C2262 C2267 1.399 . S
C2263 C2262 1.399 . S
C2263 C2264 1.366 1_455 S
C2264 H2251 0.932 . S
C2264 C2263 1.366 1_655 S
C2264 C2265 1.397 . S
C2265 H2252 0.930 . S
C2265 C2264 1.397 . S
C2265 C2266 1.390 . S
C2266 C2265 1.390 . S
C2266 C2267 1.394 1_655 S
C2266 C2272 1.465 1_556 S
C2267 C2262 1.399 . S
C2267 C2266 1.394 1_455 S
C2267 C2268 1.516 1_556 S
C2268 C2267 1.516 1_554 S
C2268 C2269 1.502 . S
C2268 C2270 1.561 . S
C2268 C2271 1.520 1_455 S
C2269 H2253 0.959 . S
C2269 H2254 0.959 . S
C2269 H2255 0.961 . S
C2269 C2268 1.502 . S
C2270 H2256 0.960 1_554 S
C2270 H2257 0.961 . S
C2270 H2258 0.959 . S
C2270 C2268 1.561 . S
C2271 C2268 1.520 1_655 S
C2271 C2272 1.399 . S
C2271 C2276 1.392 . S
C2272 C2266 1.465 1_554 S
C2272 C2271 1.399 . S
C2272 C2273 1.399 . S
C2273 H2259 0.929 . S
C2273 C2272 1.399 . S
C2273 C2274 1.385 . S
C2274 H2260 0.931 . S
C2274 C2273 1.385 . S
C2274 C2275 1.389 . S
C2275 C2274 1.389 . S
C2275 C2276 1.387 . S
C2276 H2261 0.930 1_655 S
C2276 C2271 1.392 . S
C2276 C2275 1.387 . S
H2277 C2289 0.930 . S
H2278 C2291 0.930 . S
H2279 C2292 0.930 . S
H2280 C2296 0.959 . S
H2281 C2296 0.959 . S
H2282 C2296 0.961 . S
H2283 C2297 0.960 1_554 S
H2284 C2297 0.961 . S
H2285 C2297 0.959 . S
H2286 C2300 0.929 . S
H2287 C2301 0.931 . S
H2288 C2303 0.930 . S
C2289 H2277 0.930 . S
C2289 C2290 1.399 . S
C2289 C2294 1.399 . S
C2290 C2289 1.399 . S
C2290 C2291 1.376 . S
C2291 H2278 0.930 . S
C2291 C2290 1.376 . S
C2291 C2292 1.388 . S
C2292 H2279 0.930 . S
C2292 C2291 1.388 . S
C2292 C2293 1.390 . S
C2293 C2292 1.390 . S
C2293 C2294 1.394 . S
C2293 C2299 1.465 1_554 S
C2294 C2289 1.399 . S
C2294 C2293 1.394 . S
C2294 C2295 1.516 1_554 S
C2295 C2294 1.516 1_556 S
C2295 C2296 1.502 . S
C2295 C2297 1.561 . S
C2295 C2298 1.526 . S
C2296 H2280 0.959 . S
C2296 H2281 0.959 . S
C2296 H2282 0.961 . S
C2296 C2295 1.502 . S
C2297 H2283 0.960 1_556 S
C2297 H2284 0.961 . S
C2297 H2285 0.959 . S
C2297 C2295 1.561 . S
C2298 C2295 1.526 . S
C2298 C2299 1.396 . S
C2298 C2303 1.390 . S
C2299 C2293 1.465 1_556 S
C2299 C2298 1.396 . S
C2299 C2300 1.399 . S
C2300 H2286 0.929 . S
C2300 C2299 1.399 . S
C2300 C2301 1.385 . S
C2301 H2287 0.931 . S
C2301 C2300 1.385 . S
C2301 C2302 1.389 . S
C2302 C2301 1.389 . S
C2302 C2303 1.387 . S
C2303 H2288 0.930 . S
C2303 C2298 1.390 . S
C2303 C2302 1.387 . S
H2304 C2316 0.930 . S
H2305 C2318 0.930 1_565 S
H2306 C2319 0.930 . S
H2307 C2323 0.959 . S
H2308 C2323 0.959 . S
H2309 C2323 0.961 . S
H2310 C2324 0.960 . S
H2311 C2324 0.961 . S
H2312 C2324 0.959 . S
H2313 C2327 0.929 . S
H2314 C2328 0.931 . S
H2315 C2330 0.930 1_545 S
C2316 H2304 0.930 . S
C2316 C2317 1.399 . S
C2316 C2321 1.399 . S
C2317 C2316 1.399 . S
C2317 C2318 1.376 . S
C2318 H2305 0.930 1_545 S
C2318 C2317 1.376 . S
C2318 C2319 1.388 1_545 S
C2319 H2306 0.930 . S
C2319 C2318 1.388 1_565 S
C2319 C2320 1.390 . S
C2320 C2319 1.390 . S
C2320 C2321 1.394 1_565 S
C2320 C2326 1.465 1_554 S
C2321 C2316 1.399 . S
C2321 C2320 1.394 1_545 S
C2321 C2322 1.516 1_554 S
C2322 C2321 1.516 1_556 S
C2322 C2323 1.502 . S
C2322 C2324 1.561 . S
C2322 C2325 1.526 . S
C2323 H2307 0.959 . S
C2323 H2308 0.959 . S
C2323 H2309 0.961 . S
C2323 C2322 1.502 . S
C2324 H2310 0.960 . S
C2324 H2311 0.961 . S
C2324 H2312 0.959 . S
C2324 C2322 1.561 . S
C2325 C2322 1.526 . S
C2325 C2326 1.396 1_545 S
C2325 C2330 1.390 1_545 S
C2326 C2320 1.465 1_556 S
C2326 C2325 1.396 1_565 S
C2326 C2327 1.399 . S
C2327 H2313 0.929 . S
C2327 C2326 1.399 . S
C2327 C2328 1.385 . S
C2328 H2314 0.931 . S
C2328 C2327 1.385 . S
C2328 C2329 1.389 . S
C2329 C2328 1.389 . S
C2329 C2330 1.387 . S
C2330 H2315 0.930 1_565 S
C2330 C2325 1.390 1_565 S
C2330 C2329 1.387 . S
H2331 C2343 0.930 . S
H2332 C2345 0.928 1_545 S
H2333 C2346 0.930 . S
H2334 C2350 0.959 . S
H2335 C2350 0.959 . S
H2336 C2350 0.961 . S
H2337 C2351 0.960 . S
H2338 C2351 0.961 . S
H2339 C2351 0.959 . S
H2340 C2354 0.929 . S
H2341 C2355 0.931 . S
H2342 C2357 0.930 1_565 S
C2343 H2331 0.930 . S
C2343 C2344 1.399 . S
C2343 C2348 1.399 . S
C2344 C2343 1.399 . S
C2344 C2345 1.411 . S
C2345 H2332 0.928 1_565 S
C2345 C2344 1.411 . S
C2345 C2346 1.362 1_565 S
C2346 H2333 0.930 . S
C2346 C2345 1.362 1_545 S
C2346 C2347 1.390 . S
C2347 C2346 1.390 . S
C2347 C2348 1.394 1_545 S
C2347 C2353 1.465 1_556 S
C2348 C2343 1.399 . S
C2348 C2347 1.394 1_565 S
C2348 C2349 1.516 1_556 S
C2349 C2348 1.516 1_554 S
C2349 C2350 1.502 . S
C2349 C2351 1.561 . S
C2349 C2352 1.526 . S
C2350 H2334 0.959 . S
C2350 H2335 0.959 . S
C2350 H2336 0.961 . S
C2350 C2349 1.502 . S
C2351 H2337 0.960 . S
C2351 H2338 0.961 . S
C2351 H2339 0.959 . S
C2351 C2349 1.561 . S
C2352 C2349 1.526 . S
C2352 C2353 1.396 1_565 S
C2352 C2357 1.390 1_565 S
C2353 C2347 1.465 1_554 S
C2353 C2352 1.396 1_545 S
C2353 C2354 1.399 . S
C2354 H2340 0.929 . S
C2354 C2353 1.399 . S
C2354 C2355 1.385 . S
C2355 H2341 0.931 . S
C2355 C2354 1.385 . S
C2355 C2356 1.389 . S
C2356 C2355 1.389 . S
C2356 C2357 1.387 . S
C2357 H2342 0.930 1_545 S
C2357 C2352 1.390 1_545 S
C2357 C2356 1.387 . S
H2358 C2370 0.930 . S
H2359 C2372 0.930 . S
H2360 C2373 0.930 . S
H2361 C2377 0.959 . S
H2362 C2377 0.959 . S
H2363 C2377 0.961 . S
H2364 C2378 0.960 1_556 S
H2365 C2378 0.961 1_655 S
H2366 C2378 0.959 . S
H2367 C2381 0.929 . S
H2368 C2382 0.931 . S
H2369 C2384 0.930 . S
C2370 H2358 0.930 . S
C2370 C2371 1.399 . S
C2370 C2375 1.399 . S
C2371 C2370 1.399 . S
C2371 C2372 1.376 . S
C2372 H2359 0.930 . S
C2372 C2371 1.376 . S
C2372 C2373 1.388 . S
C2373 H2360 0.930 . S
C2373 C2372 1.388 . S
C2373 C2374 1.390 . S
C2374 C2373 1.390 . S
C2374 C2375 1.394 . S
C2374 C2380 1.465 1_556 S
C2375 C2370 1.399 . S
C2375 C2374 1.394 . S
C2375 C2376 1.516 1_455 S
C2376 C2375 1.516 1_655 S
C2376 C2377 1.502 . S
C2376 C2378 1.561 1_656 S
C2376 C2379 1.526 1_556 S
C2377 H2361 0.959 . S
C2377 H2362 0.959 . S
C2377 H2363 0.961 . S
C2377 C2376 1.502 . S
C2378 H2364 0.960 1_554 S
C2378 H2365 0.961 1_455 S
C2378 H2366 0.959 . S
C2378 C2376 1.561 1_454 S
C2379 C2376 1.526 1_554 S
C2379 C2380 1.396 1_655 S
C2379 C2384 1.390 . S
C2380 C2374 1.465 1_554 S
C2380 C2379 1.396 1_455 S
C2380 C2381 1.399 . S
C2381 H2367 0.929 . S
C2381 C2380 1.399 . S
C2381 C2382 1.385 1_455 S
C2382 H2368 0.931 . S
C2382 C2381 1.385 1_655 S
C2382 C2383 1.389 . S
C2383 C2382 1.389 . S
C2383 C2384 1.387 . S
C2384 H2369 0.930 . S
C2384 C2379 1.390 . S
C2384 C2383 1.387 . S
H2385 C2397 0.930 . S
H2386 C2399 0.930 . S
H2387 C2400 0.930 . S
H2388 C2404 0.959 . S
H2389 C2404 0.959 . S
H2390 C2404 0.961 . S
H2391 C2405 0.960 . S
H2392 C2405 0.961 . S
H2393 C2405 0.959 . S
H2394 C2408 0.929 . S
H2395 C2409 0.931 . S
H2396 C2411 0.930 . S
C2397 H2385 0.930 . S
C2397 C2398 1.399 . S
C2397 C2402 1.399 . S
C2398 C2397 1.399 . S
C2398 C2399 1.376 . S
C2399 H2386 0.930 . S
C2399 C2398 1.376 . S
C2399 C2400 1.388 . S
C2400 H2387 0.930 . S
C2400 C2399 1.388 . S
C2400 C2401 1.390 . S
C2401 C2400 1.390 . S
C2401 C2402 1.394 . S
C2401 C2407 1.465 1_554 S
C2402 C2397 1.399 . S
C2402 C2401 1.394 . S
C2402 C2403 1.516 1_554 S
C2403 C2402 1.516 1_556 S
C2403 C2404 1.502 . S
C2403 C2405 1.561 . S
C2403 C2406 1.526 . S
C2404 H2388 0.959 . S
C2404 H2389 0.959 . S
C2404 H2390 0.961 . S
C2404 C2403 1.502 . S
C2405 H2391 0.960 . S
C2405 H2392 0.961 . S
C2405 H2393 0.959 . S
C2405 C2403 1.561 . S
C2406 C2403 1.526 . S
C2406 C2407 1.396 . S
C2406 C2411 1.390 . S
C2407 C2401 1.465 1_556 S
C2407 C2406 1.396 . S
C2407 C2408 1.399 . S
C2408 H2394 0.929 . S
C2408 C2407 1.399 . S
C2408 C2409 1.385 . S
C2409 H2395 0.931 . S
C2409 C2408 1.385 . S
C2409 C2410 1.389 . S
C2410 C2409 1.389 . S
C2410 C2411 1.387 . S
C2411 H2396 0.930 . S
C2411 C2406 1.390 . S
C2411 C2410 1.387 . S
C481 C10 1.441 . S
C493 C147 1.438 . S
C508 C23 1.454 . S
C520 C121 1.450 . S
C535 C140 1.429 . S
C547 C30 1.431 . S
C562 C43 1.448 . S
C574 C101 1.444 . S
C589 C108 1.456 . S
C601 C56 1.454 . S
C616 C75 1.429 . S
C628 C82 1.429 . S
C643 C303 1.431 . S
C655 C160 1.435 . S
C670 C179 1.436 . S
C682 C283 1.441 . S
C697 C192 1.447 . S
C709 C296 1.442 . S
C724 C251 1.429 . S
C736 C199 1.432 . S
C751 C218 1.435 . S
C763 C264 1.440 . S
C778 C244 1.437 . S
C790 C231 1.434 . S
C805 C316 1.429 . S
C817 C459 1.429 . S
C832 C439 1.456 . S
C844 C335 1.454 . S
C859 C446 1.456 . S
C871 C342 1.454 . S
C886 C413 1.441 . S
C898 C355 1.437 . S
C913 C426 1.429 . S
C925 C368 1.432 . S
C940 C400 1.451 . S
C952 C381 1.454 . S
C967 C3 1.354 . S
C979 C57 1.386 . S
C994 C68 1.368 . S
C1006 C16 1.366 . S
C1021 C31 1.392 . S
C1033 C44 1.370 . S
C1048 C83 1.356 . S
C1060 C133 1.385 . S
C1075 C94 1.368 . S
C1087 C148 1.357 . S
C1102 C109 1.380 . S
C1114 C122 1.355 . S
C1129 C211 1.388 . S
C1141 C161 1.376 . S
C1156 C224 1.357 . S
C1168 C172 1.379 . S
C1183 C185 1.394 . S
C1195 C200 1.365 . S
C1210 C289 1.357 . S
C1222 C237 1.366 . S
C1237 C304 1.395 . S
C1249 C252 1.376 . S
C1264 C265 1.394 . S
C1276 C276 1.368 . S
C1291 C369 1.393 . S
C1303 C317 1.357 . S
C1318 C328 1.390 . S
C1330 C382 1.355 . S
C1345 C343 1.354 . S
C1357 C356 1.386 . S
C1372 C447 1.359 . S
C1384 C393 1.364 . S
C1399 C406 1.386 . S
C1411 C460 1.390 . S
C1426 C432 1.378 . S
C1438 C419 1.355 . S
C1453 C380 1.316 . S
C1465 C5 1.300 . S
C1480 C18 1.293 . S
C1492 C354 1.296 . S
C1507 C29 1.302 . S
C1519 C367 1.316 . S
C1534 C42 1.295 . S
C1546 C174 1.315 . S
C1561 C187 1.310 . S
C1573 C55 1.291 . S
C1588 C159 1.315 . S
C1600 C70 1.295 . S
C1615 C81 1.311 . S
C1627 C302 1.315 . S
C1642 C96 1.298 . S
C1654 C278 1.313 . S
C1669 C107 1.289 . S
C1681 C291 1.295 . S
C1696 C408 1.291 . S
C1708 C120 1.304 . S
C1723 C421 1.289 . S
C1735 C135 1.295 . S
C1750 C146 1.301 . S
C1762 C395 1.290 . S
C1777 C330 1.297 . S
C1789 C198 1.292 . S
C1804 C213 1.302 . S
C1816 C341 1.316 . S
C1831 C315 1.290 . S
C1843 C226 1.309 . S
C1858 C458 1.308 . S
C1870 C239 1.316 . S
C1885 C250 1.292 . S
C1897 C434 1.306 . S
C1912 C263 1.290 . S
C1924 C445 1.293 . S
C1939 C4 1.516 . S
C1951 C387 1.526 . S
C1966 C361 1.515 . S
C1978 C17 1.521 . S
C1993 C36 1.531 . S
C2005 C374 1.532 . S
C2020 C173 1.525 . S
C2032 C49 1.516 . S
C2047 C62 1.524 . S
C2059 C186 1.532 . S
C2074 C69 1.517 . S
C2086 C166 1.526 . S
C2101 C309 1.526 . S
C2113 C88 1.521 . S
C2128 C95 1.533 . S
C2140 C277 1.531 . S
C2155 C114 1.515 . S
C2167 C290 1.516 . S
C2182 C127 1.530 . S
C2194 C407 1.526 . S
C2209 C420 1.519 . S
C2221 C134 1.524 . S
C2236 C153 1.529 . S
C2248 C394 1.532 . S
C2263 C329 1.522 . S
C2275 C205 1.531 . S
C2290 C212 1.522 . S
C2302 C348 1.531 . S
C2317 C225 1.515 . S
C2329 C322 1.522 . S
C2344 C465 1.529 . S
C2356 C238 1.532 . S
C2371 C433 1.532 . S
C2383 C257 1.528 . S
C2398 C270 1.524 . S
C2410 C452 1.529 . S
