# Generated by pormake.
# Topology uni, (4)-cn, num edge types: 1
# Building blocks:
#     Node 0, Type 0, BuildingBlock: KUFVIS_clean_sbu_0, # of connection points: 4
#     Node 1, Type 0, BuildingBlock: KUFVIS_clean_sbu_0, # of connection points: 4
#     Node 2, Type 0, BuildingBlock: KUFVIS_clean_sbu_0, # of connection points: 4
#     Node 3, Type 0, BuildingBlock: KUFVIS_clean_sbu_0, # of connection points: 4
#     Node 4, Type 0, BuildingBlock: KUFVIS_clean_sbu_0, # of connection points: 4
#     Node 5, Type 0, BuildingBlock: KUFVIS_clean_sbu_0, # of connection points: 4
#     Edge 6, Type (0, 0), BuildingBlock: FUNLAD_clean_linker_0, # of connection points: 2
#     Edge 7, Type (0, 0), BuildingBlock: FUNLAD_clean_linker_0, # of connection points: 2
#     Edge 8, Type (0, 0), BuildingBlock: FUNLAD_clean_linker_0, # of connection points: 2
#     Edge 9, Type (0, 0), BuildingBlock: FUNLAD_clean_linker_0, # of connection points: 2
#     Edge 10, Type (0, 0), BuildingBlock: FUNLAD_clean_linker_0, # of connection points: 2
#     Edge 11, Type (0, 0), BuildingBlock: FUNLAD_clean_linker_0, # of connection points: 2
#     Edge 12, Type (0, 0), BuildingBlock: FUNLAD_clean_linker_0, # of connection points: 2
#     Edge 13, Type (0, 0), BuildingBlock: FUNLAD_clean_linker_0, # of connection points: 2
#     Edge 14, Type (0, 0), BuildingBlock: FUNLAD_clean_linker_0, # of connection points: 2
#     Edge 15, Type (0, 0), BuildingBlock: FUNLAD_clean_linker_0, # of connection points: 2
#     Edge 16, Type (0, 0), BuildingBlock: FUNLAD_clean_linker_0, # of connection points: 2
#     Edge 17, Type (0, 0), BuildingBlock: FUNLAD_clean_linker_0, # of connection points: 2
# Relax obj value: 0.055
# Max RMSD: 0.074
# Mean RMSD: 0.074
data_MOF--net-uni--node1-KUFVIS_clean_sbu_0--edge1-FUNLAD_clean_linker_0
_symmetry_space_group_name_H-M    P1
_symmetry_Int_Tables_number       1
_symmetry_cell_setting            triclinic
loop_
_symmetry_equiv_pos_as_xyz
'x, y, z'
_cell_length_a     44.377713
_cell_length_b     44.429638
_cell_length_c     26.785973
_cell_angle_alpha  89.892315
_cell_angle_beta   89.853164
_cell_angle_gamma 119.91433
loop_
_atom_site_label
_atom_site_type_symbol
_atom_site_fract_x
_atom_site_fract_y
_atom_site_fract_z
_atom_type_partial_charge
Mn0 Mn 0.65686 0.03355 0.06866 0.0
Mn1 Mn 0.65437 0.10645 0.09571 0.0
C2 C 0.6154 0.03099 0.12378 0.0
C3 C 0.67846 0.99616 0.08488 0.0
C4 C 0.62771 0.06686 0.99845 0.0
O5 O 0.70377 0.07222 0.04351 0.0
O6 O 0.7015 0.11909 0.07062 0.0
C7 C 0.70314 0.13166 0.18087 0.0
N8 N 0.67109 0.12158 0.16181 0.0
C9 C 0.65142 0.13234 0.24003 0.0
C10 C 0.68431 0.14309 0.26041 0.0
C11 C 0.71025 0.14267 0.23072 0.0
C12 C 0.64592 0.12184 0.19004 0.0
H13 H 0.72309 0.13123 0.15821 0.0
C14 C 0.71741 0.10495 0.04981 0.0
O15 O 0.6658 0.99686 0.04149 0.0
O16 O 0.67972 0.01806 0.11791 0.0
N17 N 0.61037 0.09803 0.12071 0.0
C18 C 0.57943 0.08477 0.09636 0.0
C19 C 0.5504 0.08222 0.1214 0.0
C20 C 0.55354 0.09357 0.17101 0.0
C21 C 0.58573 0.10746 0.19512 0.0
C22 C 0.61381 0.10955 0.16818 0.0
H23 H 0.57686 0.07599 0.05824 0.0
O24 O 0.61105 1.00313 0.10177 0.0
O25 O 0.64417 0.05946 0.11346 0.0
O26 O 0.63259 0.04166 0.00945 0.0
O27 O 0.63596 0.09268 0.02732 0.0
C28 C 0.59087 0.11859 0.24517 0.0
C29 C 0.62367 0.13095 0.26764 0.0
H30 H 0.68984 0.1514 0.29893 0.0
H31 H 0.73564 0.15074 0.24626 0.0
H32 H 0.52563 0.07142 0.10255 0.0
H33 H 0.531 0.09124 0.19035 0.0
H34 H 0.56962 0.11719 0.26697 0.0
H35 H 0.62714 0.13888 0.30639 0.0
Mn36 Mn 0.66359 0.66026 0.23417 0.0
Mn37 Mn 0.58721 0.65735 0.2564 0.0
C38 C 0.62527 0.62192 0.29306 0.0
C39 C 0.72269 0.68277 0.25036 0.0
C40 C 0.60098 0.6259 0.16464 0.0
O41 O 0.67104 0.70563 0.20327 0.0
O42 O 0.62096 0.70307 0.22697 0.0
C43 C 0.60961 0.71066 0.33546 0.0
N44 N 0.5882 0.67756 0.31971 0.0
C45 C 0.55735 0.66199 0.39806 0.0
C46 C 0.57885 0.69601 0.41494 0.0
C47 C 0.60516 0.72041 0.38356 0.0
C48 C 0.56288 0.65384 0.34966 0.0
H49 H 0.62997 0.72943 0.31155 0.0
C50 C 0.65119 0.71877 0.20663 0.0
O51 O 0.70908 0.66798 0.20814 0.0
O52 O 0.70229 0.68591 0.2821 0.0
N53 N 0.55237 0.6146 0.2855 0.0
C54 C 0.53546 0.58233 0.26482 0.0
C55 C 0.50923 0.55458 0.29216 0.0
C56 C 0.50048 0.56033 0.34026 0.0
C57 C 0.51803 0.59382 0.36057 0.0
C58 C 0.54379 0.62051 0.33145 0.0
H59 H 0.54206 0.57775 0.22788 0.0
O60 O 0.64881 0.61652 0.27309 0.0
O61 O 0.62498 0.64963 0.27821 0.0
O62 O 0.63141 0.63246 0.17681 0.0
O63 O 0.5829 0.63516 0.1908 0.0
C64 C 0.51149 0.60161 0.40898 0.0
C65 C 0.53116 0.63566 0.42773 0.0
H66 H 0.57565 0.70359 0.45213 0.0
H67 H 0.62202 0.74666 0.39645 0.0
H68 H 0.49586 0.5288 0.27626 0.0
H69 H 0.48047 0.53879 0.36141 0.0
H70 H 0.49181 0.58147 0.43243 0.0
H71 H 0.52629 0.6412 0.46531 0.0
Mn72 Mn 0.04027 0.66156 0.40055 0.0
Mn73 Mn 0.96595 0.58723 0.42795 0.0
C74 C 0.04025 0.62439 0.46136 0.0
C75 C 0.07919 0.72085 0.40943 0.0
C76 C 1.00922 0.59663 0.33532 0.0
O77 O 1.00267 0.66972 0.3702 0.0
O78 O 0.95483 0.62105 0.39651 0.0
C79 C 0.93805 0.61408 0.50575 0.0
N80 N 0.94824 0.59114 0.49124 0.0
C81 C 0.9331 0.56271 0.57137 0.0
C82 C 0.92213 0.58582 0.58703 0.0
C83 C 0.92473 0.61168 0.55412 0.0
C84 C 0.94605 0.56628 0.52269 0.0
H85 H 0.94015 0.63408 0.48065 0.0
C86 C 0.9697 0.65076 0.37476 0.0
O87 O 0.07766 0.70426 0.36891 0.0
O88 O 0.05701 0.70323 0.44456 0.0
N89 N 0.97269 0.55224 0.45913 0.0
C90 C 0.98626 0.53332 0.43924 0.0
C91 C 0.98664 0.50703 0.46793 0.0
C92 C 0.97279 0.50023 0.51653 0.0
C93 C 0.9586 0.51975 0.53598 0.0
C94 C 0.95874 0.54549 0.50554 0.0
H95 H 0.99687 0.53836 0.40187 0.0
O96 O 0.06901 0.64661 0.43948 0.0
O97 O 1.01238 0.62478 0.44747 0.0
O98 O 0.03341 0.62709 0.34577 0.0
O99 O 0.9821 0.57974 0.3624 0.0
C100 C 0.94499 0.51519 0.58475 0.0
C101 C 0.93232 0.5367 0.60247 0.0
H102 H 0.91199 0.58416 0.62438 0.0
H103 H 0.91654 0.62976 0.56605 0.0
H104 H 0.99766 0.49209 0.45266 0.0
H105 H 0.97344 0.48015 0.53871 0.0
H106 H 0.94467 0.4956 0.60923 0.0
H107 H 0.92243 0.53331 0.64031 0.0
Mn108 Mn 0.4107 0.03976 0.5726 0.0
Mn109 Mn 0.41361 0.96599 0.59187 0.0
C110 C 0.44958 0.03909 0.6293 0.0
C111 C 0.38893 0.07694 0.5892 0.0
C112 C 0.4452 0.012 0.50103 0.0
O113 O 0.36452 1.00242 0.54389 0.0
O114 O 0.36846 0.95479 0.5613 0.0
C115 C 0.35873 0.93401 0.66931 0.0
N116 N 0.39215 0.9458 0.6544 0.0
C117 C 0.40618 0.92916 0.73268 0.0
C118 C 0.37185 0.91663 0.74877 0.0
C119 C 0.34805 0.91915 0.71697 0.0
C120 C 0.41528 0.94358 0.68472 0.0
H121 H 0.34039 0.93596 0.64502 0.0
C122 C 0.35218 0.96958 0.54392 0.0
O123 O 0.40326 0.07746 0.5467 0.0
O124 O 0.38613 0.05392 0.62167 0.0
N125 N 0.45572 0.97282 0.62164 0.0
C126 C 0.48827 0.98776 0.60147 0.0
C127 C 0.51539 0.98828 0.62905 0.0
C128 C 0.50872 0.97319 0.67685 0.0
C129 C 0.47493 0.95759 0.69657 0.0
C130 C 0.4489 0.95766 0.66722 0.0
H131 H 0.49354 0.99937 0.56473 0.0
O132 O 0.45511 0.06814 0.60964 0.0
O133 O 0.42142 0.01127 0.61535 0.0
O134 O 0.43743 0.03497 0.51356 0.0
O135 O 0.43701 0.9849 0.52713 0.0
C136 C 0.46621 0.94261 0.7446 0.0
C137 C 0.43187 0.92846 0.76268 0.0
H138 H 0.36354 0.90529 0.78559 0.0
H139 H 0.32156 0.90969 0.72921 0.0
H140 H 0.5414 1.00039 0.61358 0.0
H141 H 0.52978 0.97394 0.69821 0.0
H142 H 0.48583 0.94231 0.76824 0.0
H143 H 0.4256 0.91747 0.79994 0.0
Mn144 Mn 0.41305 0.41479 0.73319 0.0
Mn145 Mn 0.48838 0.41869 0.76653 0.0
C146 C 0.44967 0.45607 0.7897 0.0
C147 C 0.35372 0.39489 0.74283 0.0
C148 C 0.47931 0.44704 0.66861 0.0
O149 O 0.40539 0.36759 0.71073 0.0
O150 O 0.45666 0.37333 0.73482 0.0
C151 C 0.45986 0.36498 0.84582 0.0
N152 N 0.48267 0.39807 0.83104 0.0
C153 C 0.50812 0.41289 0.91288 0.0
C154 C 0.48504 0.3789 0.92891 0.0
C155 C 0.46074 0.35488 0.89526 0.0
C156 C 0.50604 0.42143 0.86316 0.0
H157 H 0.44115 0.34646 0.82005 0.0
C158 C 0.42664 0.3562 0.71457 0.0
O159 O 0.36955 0.40685 0.70048 0.0
O160 O 0.372 0.39273 0.779 0.0
N161 N 0.52179 0.461 0.79768 0.0
C162 C 0.54107 0.49314 0.7769 0.0
C163 C 0.56603 0.52044 0.80599 0.0
C164 C 0.57121 0.51431 0.85585 0.0
C165 C 0.55143 0.48089 0.87615 0.0
C166 C 0.52701 0.45468 0.84533 0.0
H167 H 0.53726 0.49795 0.73854 0.0
O168 O 0.42736 0.46065 0.7645 0.0
O169 O 0.4499 0.42731 0.78141 0.0
O170 O 0.44767 0.43875 0.67581 0.0
O171 O 0.49715 0.441 0.70021 0.0
C172 C 0.55453 0.47268 0.92602 0.0
C173 C 0.53278 0.43875 0.94444 0.0
H174 H 0.48558 0.37103 0.96705 0.0
H175 H 0.44275 0.32864 0.90742 0.0
H176 H 0.5812 0.54616 0.79003 0.0
H177 H 0.59027 0.5355 0.87829 0.0
H178 H 0.57321 0.4924 0.95073 0.0
H179 H 0.53505 0.43289 0.98305 0.0
Mn180 Mn 0.03431 0.41074 0.90314 0.0
Mn181 Mn 0.10609 0.48706 0.92959 0.0
C182 C 0.03052 0.44966 0.95617 0.0
C183 C 0.99681 0.35215 0.92141 0.0
C184 C 0.06703 0.47321 0.8319 0.0
O185 O 0.07362 0.40244 0.88131 0.0
O186 O 0.11982 0.45369 0.90335 0.0
C187 C 0.13234 0.46354 0.01385 0.0
N188 N 0.1214 0.48507 0.99551 0.0
C189 C 0.13046 0.51367 0.07479 0.0
C190 C 0.14206 0.49197 0.09445 0.0
C191 C 0.14294 0.46677 0.06385 0.0
C192 C 0.12045 0.50942 0.0246 0.0
H193 H 0.13289 0.44403 0.99052 0.0
C194 C 0.10635 0.42296 0.88525 0.0
O195 O 0.99796 0.36463 0.87707 0.0
O196 O 0.01849 0.37333 0.95403 0.0
N197 N 0.09659 0.52159 0.95554 0.0
C198 C 0.08281 0.53904 0.93167 0.0
C199 C 0.07908 0.56447 0.95754 0.0
C200 C 0.08974 0.57182 0.00752 0.0
C201 C 0.10417 0.55378 0.03113 0.0
C202 C 0.10749 0.52891 1.00334 0.0
H203 H 0.07448 0.53341 0.8933 0.0
O204 O 1.00312 0.42611 0.93346 0.0
O205 O 0.05936 0.44966 0.94724 0.0
O206 O 0.04295 0.44237 0.84226 0.0
O207 O 0.0919 0.49183 0.86162 0.0
C208 C 0.11469 0.55895 0.08146 0.0
C209 C 0.12777 0.53887 0.1033 0.0
H210 H 0.15004 0.49421 0.13308 0.0
H211 H 0.15168 0.4498 0.07883 0.0
H212 H 0.06787 0.57825 0.93908 0.0
H213 H 0.08648 0.59119 0.02751 0.0
H214 H 0.11231 0.57791 0.10393 0.0
H215 H 0.13526 0.54272 0.14223 0.0
C216 C 0.60579 0.0407 0.21249 0.0
C217 C 0.59211 0.02795 0.16507 0.0
C218 C 0.58369 0.03634 0.25254 0.0
C219 C 0.54741 0.0184 0.24602 0.0
C220 C 0.53378 1.0044 0.19898 0.0
C221 C 0.55595 0.00908 0.15883 0.0
C222 C 0.52327 0.01219 0.28829 0.0
C223 C 0.53081 0.03507 0.32565 0.0
C224 C 0.50722 0.02833 0.36888 0.0
C225 C 0.50662 0.05631 0.39209 0.0
C226 C 0.48578 0.05092 0.43419 0.0
C227 C 0.46572 0.01746 0.45472 0.0
H228 H 0.48735 0.97274 0.37271 0.0
C229 C 0.46647 0.98946 0.43157 0.0
C230 C 0.48684 0.99478 0.38896 0.0
H231 H 0.45143 0.96338 0.4465 0.0
H232 H 0.63359 0.0538 0.21865 0.0
H233 H 0.59505 0.04634 0.28873 0.0
H234 H 0.50593 0.98992 0.19324 0.0
H235 H 0.54488 0.9981 0.12284 0.0
H236 H 0.49802 0.98865 0.28754 0.0
H237 H 0.55451 0.06015 0.32381 0.0
H238 H 0.52234 0.08244 0.3776 0.0
H239 H 0.48605 0.07311 0.45136 0.0
C240 C 0.5885 0.56566 0.33752 0.0
C241 C 0.60616 0.60207 0.33755 0.0
C242 C 0.57069 0.54708 0.3803 0.0
C243 C 0.57083 0.56477 0.42395 0.0
C244 C 0.58945 0.60118 0.42416 0.0
C245 C 0.60744 0.61966 0.38159 0.0
C246 C 0.55104 0.5461 0.4693 0.0
C247 C 0.54733 0.51545 0.48395 0.0
C248 C 0.52933 0.49802 0.53103 0.0
C249 C 0.54157 0.47944 0.55856 0.0
C250 C 0.52553 0.46319 0.60345 0.0
C251 C 0.49631 0.46445 0.62113 0.0
H252 H 0.48947 0.51267 0.52747 0.0
C253 C 0.48354 0.48238 0.59292 0.0
C254 C 0.50001 0.49919 0.54846 0.0
H255 H 0.46103 0.48375 0.60545 0.0
H256 H 0.58783 0.55165 0.3041 0.0
H257 H 0.55622 0.519 0.37876 0.0
H258 H 0.59014 0.61539 0.45737 0.0
H259 H 0.6221 0.64776 0.38293 0.0
H260 H 0.54138 0.55924 0.49314 0.0
H261 H 0.56009 0.50404 0.4629 0.0
H262 H 0.56395 0.47794 0.54569 0.0
H263 H 0.53583 0.44932 0.62403 0.0
C264 C 0.03484 0.47838 0.75823 0.0
C265 C 0.06631 0.48884 0.78332 0.0
C266 C 0.03438 0.49489 0.71383 0.0
C267 C 0.06548 0.52179 0.69337 0.0
C268 C 0.09696 0.53133 0.71754 0.0
C269 C 0.09736 0.51538 0.76233 0.0
C270 C 0.06609 0.54023 0.64674 0.0
C271 C 0.04092 0.54753 0.63512 0.0
C272 C 0.0426 0.56823 0.59047 0.0
C273 C 0.02663 0.58866 0.59252 0.0
C274 C 0.02632 0.60727 0.5506 0.0
C275 C 0.04115 0.60506 0.50547 0.0
H276 H 0.07091 0.55137 0.54252 0.0
C277 C 0.05833 0.58579 0.50367 0.0
C278 C 0.05876 0.5672 0.54568 0.0
H279 H 0.07049 0.58431 0.46936 0.0
H280 H 1.01052 0.458 0.77346 0.0
H281 H 1.00975 0.48641 0.69542 0.0
H282 H 0.12128 0.55174 0.70231 0.0
H283 H 0.12207 0.52383 0.7805 0.0
H284 H 0.08934 0.55063 0.62367 0.0
H285 H 0.01941 0.54015 0.66096 0.0
H286 H 0.0142 0.59011 0.62659 0.0
H287 H 0.01404 0.62305 0.55324 0.0
C288 C 0.59105 0.03486 0.92446 0.0
C289 C 0.61117 0.06621 0.95017 0.0
C290 C 0.57426 0.03429 0.88001 0.0
C291 C 0.57757 0.06516 0.86015 0.0
C292 C 0.59855 0.09656 0.88497 0.0
C293 C 0.61485 0.09706 0.92976 0.0
C294 C 0.5597 0.06554 0.81358 0.0
C295 C 0.52798 0.03949 0.80113 0.0
C296 C 0.5087 0.04083 0.75677 0.0
C297 C 0.47225 0.02344 0.75866 0.0
C298 C 0.45313 0.02321 0.71721 0.0
C299 C 0.47007 0.03953 0.67263 0.0
H300 H 0.55379 0.07153 0.70951 0.0
C301 C 0.5065 0.05789 0.67093 0.0
C302 C 0.52573 0.05828 0.71252 0.0
H303 H 0.52003 0.07118 0.63706 0.0
H304 H 0.58778 0.01066 0.9391 0.0
H305 H 0.55894 0.00975 0.86109 0.0
H306 H 0.60177 0.12072 0.8702 0.0
H307 H 0.63042 0.12171 0.94834 0.0
H308 H 0.57174 0.08918 0.79131 0.0
H309 H 0.51448 0.01742 0.82621 0.0
H310 H 0.45851 0.00998 0.79233 0.0
H311 H 0.42503 0.00999 0.71983 0.0
C312 C 0.55658 0.60553 0.09635 0.0
C313 C 0.58513 0.60542 0.11884 0.0
C314 C 0.54063 0.58505 0.05443 0.0
C315 C 0.55269 0.56374 0.03439 0.0
C316 C 0.58111 0.56353 0.05688 0.0
C317 C 0.59744 0.58444 0.09831 0.0
C318 C 0.53494 0.54006 0.99193 0.0
C319 C 0.51945 0.54778 0.95488 0.0
C320 C 0.50148 0.52378 0.91284 0.0
C321 C 0.50159 0.5375 0.86554 0.0
C322 C 0.48499 0.51544 0.82524 0.0
C323 C 0.46815 0.47931 0.83162 0.0
H324 H 0.4815 0.47611 0.95598 0.0
C325 C 0.46642 0.46553 0.87937 0.0
C326 C 0.48322 0.48752 0.91959 0.0
H327 H 0.45203 0.43772 0.88556 0.0
H328 H 0.54637 0.62129 0.11133 0.0
H329 H 0.51825 0.58521 0.03873 0.0
H330 H 0.59068 0.5471 0.04237 0.0
H331 H 0.61917 0.5835 0.11497 0.0
H332 H 0.53592 0.51614 0.99025 0.0
H333 H 0.52146 0.57318 0.95386 0.0
H334 H 0.51491 0.56534 0.85961 0.0
H335 H 0.48569 0.52657 0.78894 0.0
C336 C 0.03856 0.46633 0.04568 0.0
C337 C 0.02627 0.46836 0.99834 0.0
C338 C 0.03283 0.48219 0.08673 0.0
C339 C 0.0141 0.49987 0.08127 0.0
C340 C 1.00061 0.50062 0.0342 0.0
C341 C 1.00657 0.4849 0.99306 0.0
C342 C 1.00713 0.51646 0.12443 0.0
C343 C 0.02972 0.53088 0.1623 0.0
C344 C 0.02335 0.54782 0.20551 0.0
C345 C 0.05186 0.5757 0.22867 0.0
C346 C 0.04709 0.59179 0.27023 0.0
C347 C 1.01369 0.57983 0.29036 0.0
H348 H 0.96739 0.5138 0.20903 0.0
C349 C 0.9851 0.55155 0.26761 0.0
C350 C 0.98984 0.53581 0.22535 0.0
H351 H 0.95908 0.54163 0.28234 0.0
H352 H 0.05229 0.45213 0.05102 0.0
H353 H 0.04249 0.47995 0.1228 0.0
H354 H 0.98561 0.51357 0.02921 0.0
H355 H 0.99594 0.48578 0.95707 0.0
H356 H 0.98368 0.5184 0.12366 0.0
H357 H 0.05476 0.53207 0.16043 0.0
H358 H 0.07795 0.5852 0.21439 0.0
H359 H 0.06974 0.61328 0.28712 0.0
C360 C 0.64762 0.77306 0.20391 0.0
C361 C 0.66326 0.75418 0.18675 0.0
C362 C 0.65751 0.80586 0.18463 0.0
C363 C 0.68326 0.82073 0.14741 0.0
C364 C 0.69888 0.80193 0.1299 0.0
C365 C 0.68931 0.76911 0.14986 0.0
C366 C 0.69219 0.85475 0.12462 0.0
C367 C 0.69186 0.88016 0.15161 0.0
C368 C 0.69427 0.91223 0.13029 0.0
C369 C 0.702 0.93994 0.16266 0.0
C370 C 0.69882 0.96819 0.14687 0.0
C371 C 0.6875 0.96928 0.09831 0.0
H372 H 0.67805 0.89311 0.05483 0.0
C373 C 0.68153 0.94249 0.06491 0.0
C374 C 0.68484 0.91418 0.08071 0.0
H375 H 0.67269 0.94255 0.02727 0.0
H376 H 0.62743 0.76241 0.2322 0.0
H377 H 0.64413 0.81908 0.19798 0.0
H378 H 0.71849 0.81266 0.10081 0.0
H379 H 0.70168 0.75512 0.1356 0.0
H380 H 0.6987 0.85859 0.08515 0.0
H381 H 0.68858 0.8769 0.19187 0.0
H382 H 0.70923 0.93913 0.20105 0.0
H383 H 0.70376 0.98842 0.17354 0.0
C384 C 0.91256 0.64899 0.37288 0.0
C385 C 0.9468 0.66339 0.3548 0.0
C386 C 0.89009 0.6595 0.35366 0.0
C387 C 0.90115 0.68464 0.31557 0.0
C388 C 0.93529 0.69903 0.2972 0.0
C389 C 0.9581 0.68885 0.31708 0.0
C390 C 0.87647 0.69406 0.29254 0.0
C391 C 0.85091 0.69453 0.31925 0.0
C392 C 0.82166 0.69744 0.29739 0.0
C393 C 0.80185 0.70601 0.32912 0.0
C394 C 0.77074 0.70334 0.31276 0.0
C395 C 0.75849 0.69167 0.26431 0.0
H396 H 0.82456 0.68024 0.22248 0.0
C397 C 0.77917 0.68486 0.23156 0.0
C398 C 0.81045 0.68768 0.24789 0.0
H399 H 0.77041 0.67573 0.19402 0.0
H400 H 0.90289 0.6293 0.40186 0.0
H401 H 0.86368 0.64703 0.36774 0.0
H402 H 0.94431 0.71813 0.26743 0.0
H403 H 0.98424 0.70028 0.30212 0.0
H404 H 0.8793 0.70025 0.25298 0.0
H405 H 0.85069 0.69156 0.35957 0.0
H406 H 0.80975 0.71349 0.36745 0.0
H407 H 0.75549 0.70884 0.33896 0.0
C408 C 0.11322 0.77352 0.4632 0.0
C409 C 0.10759 0.75706 0.41662 0.0
C410 C 0.14349 0.80539 0.47174 0.0
C411 C 0.16861 0.8213 0.43371 0.0
C412 C 0.16192 0.80568 0.38653 0.0
C413 C 0.13172 0.77408 0.37796 0.0
C414 C 0.20382 0.85125 0.44333 0.0
C415 C 0.2116 0.8742 0.48065 0.0
C416 C 0.2482 0.89979 0.49332 0.0
C417 C 0.25689 0.93275 0.51156 0.0
C418 C 0.29106 0.95624 0.52618 0.0
C419 C 0.31685 0.94667 0.52409 0.0
H420 H 0.26831 0.8651 0.47775 0.0
C421 C 0.30807 0.91371 0.50571 0.0
C422 C 0.27425 0.89062 0.49035 0.0
H423 H 0.32731 0.90552 0.50374 0.0
H424 H 0.09515 0.761 0.49377 0.0
H425 H 0.14799 0.8163 0.50887 0.0
H426 H 0.18081 0.81729 0.35662 0.0
H427 H 0.12815 0.76223 0.34154 0.0
H428 H 0.22465 0.85397 0.41888 0.0
H429 H 0.191 0.87419 0.50263 0.0
H430 H 0.23719 0.94027 0.5147 0.0
H431 H 0.297 0.98134 0.54069 0.0
C432 C 0.38308 0.29469 0.69018 0.0
C433 C 0.41759 0.32222 0.69248 0.0
C434 C 0.37567 0.26247 0.67036 0.0
C435 C 0.40267 0.25768 0.65163 0.0
C436 C 0.43687 0.28552 0.65284 0.0
C437 C 0.44432 0.31722 0.67354 0.0
C438 C 0.3966 0.22449 0.62965 0.0
C439 C 0.37227 0.19293 0.64624 0.0
C440 C 0.37162 0.1608 0.62893 0.0
C441 C 0.36354 0.13373 0.663 0.0
C442 C 0.36761 0.10549 0.64954 0.0
C443 C 0.37945 0.10367 0.60151 0.0
H444 H 0.38643 0.17754 0.55215 0.0
C445 C 0.38509 0.12952 0.56638 0.0
C446 C 0.38116 0.15773 0.57988 0.0
H447 H 0.39375 0.12866 0.52884 0.0
H448 H 0.36198 0.2979 0.7044 0.0
H449 H 0.34892 0.24161 0.66908 0.0
H450 H 0.4581 0.2826 0.63837 0.0
H451 H 0.47114 0.33803 0.6742 0.0
H452 H 0.41564 0.22629 0.60242 0.0
H453 H 0.35547 0.19092 0.67717 0.0
H454 H 0.35577 0.13527 0.70086 0.0
H455 H 0.3628 0.08585 0.67736 0.0
C456 C 0.16451 0.43589 0.85311 0.0
C457 C 0.13048 0.41124 0.86758 0.0
C458 C 0.18779 0.42543 0.83699 0.0
C459 C 0.17776 0.39002 0.83541 0.0
C460 C 0.14394 0.36532 0.85048 0.0
C461 C 0.1203 0.37578 0.86574 0.0
C462 C 0.20302 0.3789 0.82059 0.0
C463 C 0.22664 0.39532 0.78413 0.0
C464 C 0.25558 0.38876 0.77207 0.0
C465 C 0.27106 0.39822 0.72462 0.0
C466 C 0.30175 0.3979 0.71411 0.0
C467 C 0.31803 0.38865 0.75117 0.0
H468 H 0.25987 0.37057 0.84562 0.0
C469 C 0.30167 0.37748 0.79797 0.0
C470 C 0.27068 0.37746 0.80834 0.0
H471 H 0.31362 0.3703 0.82737 0.0
H472 H 0.17321 0.4634 0.8541 0.0
H473 H 0.21395 0.4452 0.82688 0.0
H474 H 0.13574 0.33791 0.85013 0.0
H475 H 0.09434 0.35619 0.87704 0.0
H476 H 0.2019 0.35681 0.83979 0.0
H477 H 0.22508 0.4151 0.76217 0.0
H478 H 0.26005 0.40714 0.69605 0.0
H479 H 0.31363 0.40667 0.67768 0.0
C480 C 0.94207 0.29591 0.904 0.0
C481 C 0.96946 0.31682 0.93642 0.0
C482 C 0.9133 0.2652 0.92139 0.0
C483 C 0.91149 0.25483 0.97158 0.0
C484 C 0.93975 0.27487 1.00303 0.0
C485 C 0.96844 0.30538 0.98566 0.0
C486 C 0.87929 0.22606 0.99419 0.0
C487 C 0.85358 0.2 0.96823 0.0
C488 C 0.81979 0.17495 0.99178 0.0
C489 C 0.80074 0.14088 0.97359 0.0
C490 C 0.76794 0.11761 0.9935 0.0
C491 C 0.75322 0.12829 0.0312 0.0
H492 H 0.8187 0.21173 0.04408 0.0
C493 C 0.77241 0.16238 0.04943 0.0
C494 C 0.80527 0.18539 0.03007 0.0
H495 H 0.76187 0.17153 0.07837 0.0
H496 H 0.94203 0.3041 0.86591 0.0
H497 H 0.89183 0.25087 0.89615 0.0
H498 H 0.93908 0.26759 0.04182 0.0
H499 H 0.98912 0.3208 0.01163 0.0
H500 H 0.87646 0.22681 0.03442 0.0
H501 H 0.85716 0.19675 0.9289 0.0
H502 H 0.81118 0.13231 0.94375 0.0
H503 H 0.75371 0.09161 0.97834 0.0
loop_
_geom_bond_atom_site_label_1
_geom_bond_atom_site_label_2
_geom_bond_distance
_geom_bond_site_symmetry_2
_ccdc_geom_bond_type
Mn0 O5 2.095 . S
Mn0 O15 2.162 1_545 S
Mn0 O16 2.297 1_545 S
Mn0 O24 2.385 1_545 S
Mn0 O25 2.209 . S
Mn0 O26 2.094 1_554 S
Mn1 O6 2.121 . S
Mn1 N8 2.257 . S
Mn1 N17 2.282 . S
Mn1 O25 2.215 . S
Mn1 O27 2.117 . S
C2 O24 1.234 1_545 S
C2 O25 1.283 . S
C3 O15 1.281 . S
C3 O16 1.236 . S
C4 O26 1.240 . S
C4 O27 1.264 1_556 S
O5 Mn0 2.095 . S
O5 C14 1.250 . S
O6 Mn1 2.121 . S
O6 C14 1.258 . S
C7 N8 1.326 . S
C7 C11 1.460 . S
C7 H13 0.929 . S
N8 Mn1 2.257 . S
N8 C7 1.326 . S
N8 C12 1.362 . S
C9 C10 1.258 . S
C9 C12 1.431 . S
C9 C29 1.449 . S
C10 C9 1.258 . S
C10 C11 1.477 . S
C10 H30 0.931 . S
C11 C7 1.460 . S
C11 C10 1.477 . S
C11 H31 0.930 . S
C12 N8 1.362 . S
C12 C9 1.431 . S
C12 C22 1.476 . S
H13 C7 0.929 . S
C14 O5 1.250 . S
C14 O6 1.258 . S
O15 Mn0 2.162 1_565 S
O15 C3 1.281 . S
O16 Mn0 2.297 1_565 S
O16 C3 1.236 . S
N17 Mn1 2.282 . S
N17 C18 1.328 . S
N17 C22 1.318 . S
C18 N17 1.328 . S
C18 C19 1.457 . S
C18 H23 0.929 . S
C19 C18 1.457 . S
C19 C20 1.291 . S
C19 H32 0.931 . S
C20 C19 1.291 . S
C20 C21 1.373 . S
C20 H33 0.929 . S
C21 C20 1.373 . S
C21 C22 1.396 . S
C21 C28 1.403 . S
C22 C12 1.476 . S
C22 N17 1.318 . S
C22 C21 1.396 . S
H23 C18 0.929 . S
O24 Mn0 2.385 1_565 S
O24 C2 1.234 1_565 S
O25 Mn0 2.209 . S
O25 Mn1 2.215 . S
O25 C2 1.283 . S
O26 Mn0 2.094 1_556 S
O26 C4 1.240 . S
O27 Mn1 2.117 . S
O27 C4 1.264 1_554 S
C28 C21 1.403 . S
C28 C29 1.399 . S
C28 H34 0.929 . S
C29 C9 1.449 . S
C29 C28 1.399 . S
C29 H35 0.930 . S
H30 C10 0.931 . S
H31 C11 0.930 . S
H32 C19 0.931 . S
H33 C20 0.929 . S
H34 C28 0.929 . S
H35 C29 0.930 . S
Mn36 O41 2.095 . S
Mn36 O51 2.162 . S
Mn36 O52 2.297 . S
Mn36 O60 2.385 . S
Mn36 O61 2.209 . S
Mn36 O62 2.094 . S
Mn37 O42 2.121 . S
Mn37 N44 2.257 . S
Mn37 N53 2.282 . S
Mn37 O61 2.215 . S
Mn37 O63 2.117 . S
C38 O60 1.234 . S
C38 O61 1.283 . S
C39 O51 1.281 . S
C39 O52 1.236 . S
C40 O62 1.240 . S
C40 O63 1.264 . S
O41 Mn36 2.095 . S
O41 C50 1.250 . S
O42 Mn37 2.121 . S
O42 C50 1.258 . S
C43 N44 1.326 . S
C43 C47 1.460 . S
C43 H49 0.929 . S
N44 Mn37 2.257 . S
N44 C43 1.326 . S
N44 C48 1.362 . S
C45 C46 1.258 . S
C45 C48 1.431 . S
C45 C65 1.449 . S
C46 C45 1.258 . S
C46 C47 1.477 . S
C46 H66 0.931 . S
C47 C43 1.460 . S
C47 C46 1.477 . S
C47 H67 0.930 . S
C48 N44 1.362 . S
C48 C45 1.431 . S
C48 C58 1.476 . S
H49 C43 0.929 . S
C50 O41 1.250 . S
C50 O42 1.258 . S
O51 Mn36 2.162 . S
O51 C39 1.281 . S
O52 Mn36 2.297 . S
O52 C39 1.236 . S
N53 Mn37 2.282 . S
N53 C54 1.328 . S
N53 C58 1.318 . S
C54 N53 1.328 . S
C54 C55 1.457 . S
C54 H59 0.929 . S
C55 C54 1.457 . S
C55 C56 1.291 . S
C55 H68 0.931 . S
C56 C55 1.291 . S
C56 C57 1.373 . S
C56 H69 0.929 . S
C57 C56 1.373 . S
C57 C58 1.396 . S
C57 C64 1.403 . S
C58 C48 1.476 . S
C58 N53 1.318 . S
C58 C57 1.396 . S
H59 C54 0.929 . S
O60 Mn36 2.385 . S
O60 C38 1.234 . S
O61 Mn36 2.209 . S
O61 Mn37 2.215 . S
O61 C38 1.283 . S
O62 Mn36 2.094 . S
O62 C40 1.240 . S
O63 Mn37 2.117 . S
O63 C40 1.264 . S
C64 C57 1.403 . S
C64 C65 1.399 . S
C64 H70 0.929 . S
C65 C45 1.449 . S
C65 C64 1.399 . S
C65 H71 0.930 . S
H66 C46 0.931 . S
H67 C47 0.930 . S
H68 C55 0.931 . S
H69 C56 0.929 . S
H70 C64 0.929 . S
H71 C65 0.930 . S
Mn72 O77 2.095 1_455 S
Mn72 O87 2.162 . S
Mn72 O88 2.297 . S
Mn72 O96 2.385 . S
Mn72 O97 2.209 . S
Mn72 O98 2.094 . S
Mn73 O78 2.121 . S
Mn73 N80 2.257 . S
Mn73 N89 2.282 . S
Mn73 O97 2.215 1_655 S
Mn73 O99 2.117 . S
C74 O96 1.234 . S
C74 O97 1.283 . S
C75 O87 1.281 . S
C75 O88 1.236 . S
C76 O98 1.240 . S
C76 O99 1.264 1_455 S
O77 Mn72 2.095 1_655 S
O77 C86 1.250 . S
O78 Mn73 2.121 . S
O78 C86 1.258 . S
C79 N80 1.326 . S
C79 C83 1.460 . S
C79 H85 0.929 . S
N80 Mn73 2.257 . S
N80 C79 1.326 . S
N80 C84 1.362 . S
C81 C82 1.258 . S
C81 C84 1.431 . S
C81 C101 1.449 . S
C82 C81 1.258 . S
C82 C83 1.477 . S
C82 H102 0.931 . S
C83 C79 1.460 . S
C83 C82 1.477 . S
C83 H103 0.930 . S
C84 N80 1.362 . S
C84 C81 1.431 . S
C84 C94 1.476 . S
H85 C79 0.929 . S
C86 O77 1.250 . S
C86 O78 1.258 . S
O87 Mn72 2.162 . S
O87 C75 1.281 . S
O88 Mn72 2.297 . S
O88 C75 1.236 . S
N89 Mn73 2.282 . S
N89 C90 1.328 . S
N89 C94 1.318 . S
C90 N89 1.328 . S
C90 C91 1.457 . S
C90 H95 0.919 1_655 S
C91 C90 1.457 . S
C91 C92 1.291 . S
C91 H104 0.931 1_655 S
C92 C91 1.291 . S
C92 C93 1.373 . S
C92 H105 0.929 . S
C93 C92 1.373 . S
C93 C94 1.396 . S
C93 C100 1.403 . S
C94 C84 1.476 . S
C94 N89 1.318 . S
C94 C93 1.396 . S
H95 C90 0.919 1_455 S
O96 Mn72 2.385 . S
O96 C74 1.234 . S
O97 Mn72 2.209 . S
O97 Mn73 2.215 1_455 S
O97 C74 1.283 . S
O98 Mn72 2.094 . S
O98 C76 1.240 . S
O99 Mn73 2.117 . S
O99 C76 1.264 1_655 S
C100 C93 1.403 . S
C100 C101 1.399 . S
C100 H106 0.929 . S
C101 C81 1.449 . S
C101 C100 1.399 . S
C101 H107 0.930 . S
H102 C82 0.931 . S
H103 C83 0.930 . S
H104 C91 0.931 1_455 S
H105 C92 0.929 . S
H106 C100 0.929 . S
H107 C101 0.930 . S
Mn108 O113 2.095 . S
Mn108 O123 2.162 . S
Mn108 O124 2.297 . S
Mn108 O132 2.385 . S
Mn108 O133 2.209 . S
Mn108 O134 2.094 . S
Mn109 O114 2.121 . S
Mn109 N116 2.257 . S
Mn109 N125 2.282 . S
Mn109 O133 2.215 1_565 S
Mn109 O135 2.117 . S
C110 O132 1.234 . S
C110 O133 1.283 . S
C111 O123 1.281 . S
C111 O124 1.236 . S
C112 O134 1.240 . S
C112 O135 1.264 1_545 S
O113 Mn108 2.095 . S
O113 C122 1.250 1_545 S
O114 Mn109 2.121 . S
O114 C122 1.258 . S
C115 N116 1.326 . S
C115 C119 1.460 . S
C115 H121 0.929 . S
N116 Mn109 2.257 . S
N116 C115 1.326 . S
N116 C120 1.362 . S
C117 C118 1.258 . S
C117 C120 1.431 . S
C117 C137 1.449 . S
C118 C117 1.258 . S
C118 C119 1.477 . S
C118 H138 0.931 . S
C119 C115 1.460 . S
C119 C118 1.477 . S
C119 H139 0.930 . S
C120 N116 1.362 . S
C120 C117 1.431 . S
C120 C130 1.476 . S
H121 C115 0.929 . S
C122 O113 1.250 1_565 S
C122 O114 1.258 . S
O123 Mn108 2.162 . S
O123 C111 1.281 . S
O124 Mn108 2.297 . S
O124 C111 1.236 . S
N125 Mn109 2.282 . S
N125 C126 1.328 . S
N125 C130 1.318 . S
C126 N125 1.328 . S
C126 C127 1.457 . S
C126 H131 0.929 1_565 S
C127 C126 1.457 . S
C127 C128 1.291 . S
C127 H140 0.931 1_565 S
C128 C127 1.291 . S
C128 C129 1.373 . S
C128 H141 0.929 . S
C129 C128 1.373 . S
C129 C130 1.396 . S
C129 C136 1.403 . S
C130 C120 1.476 . S
C130 N125 1.318 . S
C130 C129 1.396 . S
H131 C126 0.929 1_545 S
O132 Mn108 2.385 . S
O132 C110 1.234 . S
O133 Mn108 2.209 . S
O133 Mn109 2.215 1_545 S
O133 C110 1.283 . S
O134 Mn108 2.094 . S
O134 C112 1.240 . S
O135 Mn109 2.117 . S
O135 C112 1.264 1_565 S
C136 C129 1.403 . S
C136 C137 1.399 . S
C136 H142 0.929 . S
C137 C117 1.449 . S
C137 C136 1.399 . S
C137 H143 0.930 . S
H138 C118 0.931 . S
H139 C119 0.930 . S
H140 C127 0.931 1_545 S
H141 C128 0.929 . S
H142 C136 0.929 . S
H143 C137 0.930 . S
Mn144 O149 2.095 . S
Mn144 O159 2.162 . S
Mn144 O160 2.297 . S
Mn144 O168 2.385 . S
Mn144 O169 2.209 . S
Mn144 O170 2.094 . S
Mn145 O150 2.121 . S
Mn145 N152 2.257 . S
Mn145 N161 2.282 . S
Mn145 O169 2.215 . S
Mn145 O171 2.117 . S
C146 O168 1.234 . S
C146 O169 1.283 . S
C147 O159 1.281 . S
C147 O160 1.236 . S
C148 O170 1.240 . S
C148 O171 1.264 . S
O149 Mn144 2.095 . S
O149 C158 1.250 . S
O150 Mn145 2.121 . S
O150 C158 1.258 . S
C151 N152 1.326 . S
C151 C155 1.460 . S
C151 H157 0.929 . S
N152 Mn145 2.257 . S
N152 C151 1.326 . S
N152 C156 1.362 . S
C153 C154 1.258 . S
C153 C156 1.431 . S
C153 C173 1.449 . S
C154 C153 1.258 . S
C154 C155 1.477 . S
C154 H174 0.931 . S
C155 C151 1.460 . S
C155 C154 1.477 . S
C155 H175 0.930 . S
C156 N152 1.362 . S
C156 C153 1.431 . S
C156 C166 1.476 . S
H157 C151 0.929 . S
C158 O149 1.250 . S
C158 O150 1.258 . S
O159 Mn144 2.162 . S
O159 C147 1.281 . S
O160 Mn144 2.297 . S
O160 C147 1.236 . S
N161 Mn145 2.282 . S
N161 C162 1.328 . S
N161 C166 1.318 . S
C162 N161 1.328 . S
C162 C163 1.457 . S
C162 H167 0.929 . S
C163 C162 1.457 . S
C163 C164 1.291 . S
C163 H176 0.931 . S
C164 C163 1.291 . S
C164 C165 1.373 . S
C164 H177 0.929 . S
C165 C164 1.373 . S
C165 C166 1.396 . S
C165 C172 1.403 . S
C166 C156 1.476 . S
C166 N161 1.318 . S
C166 C165 1.396 . S
H167 C162 0.929 . S
O168 Mn144 2.385 . S
O168 C146 1.234 . S
O169 Mn144 2.209 . S
O169 Mn145 2.215 . S
O169 C146 1.283 . S
O170 Mn144 2.094 . S
O170 C148 1.240 . S
O171 Mn145 2.117 . S
O171 C148 1.264 . S
C172 C165 1.403 . S
C172 C173 1.399 . S
C172 H178 0.929 . S
C173 C153 1.449 . S
C173 C172 1.399 . S
C173 H179 0.930 . S
H174 C154 0.931 . S
H175 C155 0.930 . S
H176 C163 0.931 . S
H177 C164 0.929 . S
H178 C172 0.929 . S
H179 C173 0.930 . S
Mn180 O185 2.095 . S
Mn180 O195 2.162 1_455 S
Mn180 O196 2.297 1_455 S
Mn180 O204 2.385 1_455 S
Mn180 O205 2.209 . S
Mn180 O206 2.092 1_455 S
Mn181 O186 2.121 . S
Mn181 N188 2.257 . S
Mn181 N197 2.282 . S
Mn181 O205 2.215 . S
Mn181 O207 2.117 . S
C182 O204 1.234 1_455 S
C182 O205 1.283 . S
C183 O195 1.281 . S
C183 O196 1.236 . S
C184 O206 1.238 1_455 S
C184 O207 1.264 . S
O185 Mn180 2.095 . S
O185 C194 1.250 . S
O186 Mn181 2.121 . S
O186 C194 1.258 . S
C187 N188 1.326 . S
C187 C191 1.460 1_556 S
C187 H193 0.929 . S
N188 Mn181 2.257 . S
N188 C187 1.326 . S
N188 C192 1.362 . S
C189 C190 1.258 . S
C189 C192 1.431 1_554 S
C189 C209 1.449 . S
C190 C189 1.258 . S
C190 C191 1.477 . S
C190 H210 0.931 . S
C191 C187 1.460 1_554 S
C191 C190 1.477 . S
C191 H211 0.930 . S
C192 N188 1.362 . S
C192 C189 1.431 1_556 S
C192 C202 1.476 . S
H193 C187 0.929 . S
C194 O185 1.250 . S
C194 O186 1.258 . S
O195 Mn180 2.162 1_655 S
O195 C183 1.281 . S
O196 Mn180 2.297 1_655 S
O196 C183 1.236 . S
N197 Mn181 2.282 . S
N197 C198 1.328 . S
N197 C202 1.318 . S
C198 N197 1.328 . S
C198 C199 1.457 . S
C198 H203 0.929 . S
C199 C198 1.457 . S
C199 C200 1.291 . S
C199 H212 0.931 . S
C200 C199 1.291 . S
C200 C201 1.373 . S
C200 H213 0.929 . S
C201 C200 1.373 . S
C201 C202 1.396 . S
C201 C208 1.403 1_556 S
C202 C192 1.476 . S
C202 N197 1.318 . S
C202 C201 1.396 . S
H203 C198 0.929 . S
O204 Mn180 2.385 1_655 S
O204 C182 1.234 1_655 S
O205 Mn180 2.209 . S
O205 Mn181 2.215 . S
O205 C182 1.283 . S
O206 Mn180 2.092 1_655 S
O206 C184 1.238 1_655 S
O207 Mn181 2.117 . S
O207 C184 1.264 . S
C208 C201 1.403 1_554 S
C208 C209 1.399 . S
C208 H214 0.929 . S
C209 C189 1.449 . S
C209 C208 1.399 . S
C209 H215 0.930 . S
H210 C190 0.931 . S
H211 C191 0.930 . S
H212 C199 0.931 . S
H213 C200 0.929 . S
H214 C208 0.929 . S
H215 C209 0.930 . S
C216 C217 1.386 . S
C216 C218 1.383 . S
C216 H232 0.951 . S
C217 C216 1.386 . S
C217 C221 1.383 . S
C218 C216 1.383 . S
C218 C219 1.402 . S
C218 H233 0.951 . S
C219 C218 1.402 . S
C219 C220 1.375 . S
C219 C222 1.481 . S
C220 C219 1.375 . S
C220 C221 1.367 . S
C220 H234 0.951 . S
C221 C217 1.383 . S
C221 C220 1.367 . S
C221 H235 0.950 . S
C222 C219 1.481 . S
C222 C223 1.297 . S
C222 H236 0.950 . S
C223 C222 1.297 . S
C223 C224 1.479 . S
C223 H237 0.950 . S
C224 C223 1.479 . S
C224 C225 1.375 . S
C224 C230 1.404 . S
C225 C224 1.375 . S
C225 C226 1.369 . S
C225 H238 0.950 . S
C226 C225 1.369 . S
C226 C227 1.392 . S
C226 H239 0.951 . S
C227 C226 1.392 . S
C227 C229 1.384 . S
H228 C230 0.949 . S
C229 C227 1.384 . S
C229 C230 1.385 . S
C229 H231 0.950 . S
C230 C224 1.404 . S
C230 H228 0.949 . S
C230 C229 1.385 . S
H231 C229 0.950 . S
H232 C216 0.951 . S
H233 C218 0.951 . S
H234 C220 0.951 . S
H235 C221 0.950 . S
H236 C222 0.950 . S
H237 C223 0.950 . S
H238 C225 0.950 . S
H239 C226 0.951 . S
C240 C241 1.386 . S
C240 C242 1.383 . S
C240 H256 0.951 . S
C241 C240 1.386 . S
C241 C245 1.383 . S
C242 C240 1.383 . S
C242 C243 1.402 . S
C242 H257 0.951 . S
C243 C242 1.402 . S
C243 C244 1.375 . S
C243 C246 1.481 . S
C244 C243 1.375 . S
C244 C245 1.367 . S
C244 H258 0.951 . S
C245 C241 1.383 . S
C245 C244 1.367 . S
C245 H259 0.950 . S
C246 C243 1.481 . S
C246 C247 1.297 . S
C246 H260 0.950 . S
C247 C246 1.297 . S
C247 C248 1.479 . S
C247 H261 0.950 . S
C248 C247 1.479 . S
C248 C249 1.375 . S
C248 C254 1.404 . S
C249 C248 1.375 . S
C249 C250 1.369 . S
C249 H262 0.950 . S
C250 C249 1.369 . S
C250 C251 1.392 . S
C250 H263 0.951 . S
C251 C250 1.392 . S
C251 C253 1.384 . S
H252 C254 0.949 . S
C253 C251 1.384 . S
C253 C254 1.385 . S
C253 H255 0.950 . S
C254 C248 1.404 . S
C254 H252 0.949 . S
C254 C253 1.385 . S
H255 C253 0.950 . S
H256 C240 0.951 . S
H257 C242 0.951 . S
H258 C244 0.951 . S
H259 C245 0.950 . S
H260 C246 0.950 . S
H261 C247 0.950 . S
H262 C249 0.950 . S
H263 C250 0.951 . S
C264 C265 1.386 1_655 S
C264 C266 1.375 . S
C264 H280 0.951 . S
C265 C264 1.386 1_455 S
C265 C269 1.383 . S
C266 C264 1.375 . S
C266 C267 1.394 1_655 S
C266 H281 0.966 . S
C267 C266 1.394 1_455 S
C267 C268 1.375 . S
C267 C270 1.481 . S
C268 C267 1.375 . S
C268 C269 1.367 . S
C268 H282 0.951 . S
C269 C265 1.383 . S
C269 C268 1.367 . S
C269 H283 0.950 . S
C270 C267 1.481 . S
C270 C271 1.297 . S
C270 H284 0.950 . S
C271 C270 1.297 . S
C271 C272 1.479 . S
C271 H285 0.950 1_455 S
C272 C271 1.479 . S
C272 C273 1.375 1_455 S
C272 C278 1.404 . S
C273 C272 1.375 1_655 S
C273 C274 1.369 . S
C273 H286 0.950 . S
C274 C273 1.369 . S
C274 C275 1.392 1_655 S
C274 H287 0.951 . S
C275 C274 1.392 1_455 S
C275 C277 1.384 . S
H276 C278 0.949 . S
C277 C275 1.384 . S
C277 C278 1.385 . S
C277 H279 0.950 . S
C278 C272 1.404 . S
C278 H276 0.949 . S
C278 C277 1.385 . S
H279 C277 0.950 . S
H280 C264 0.951 . S
H281 C266 0.966 . S
H282 C268 0.951 . S
H283 C269 0.950 . S
H284 C270 0.950 . S
H285 C271 0.950 1_655 S
H286 C273 0.950 . S
H287 C274 0.951 . S
C288 C289 1.386 . S
C288 C290 1.383 . S
C288 H304 0.951 1_545 S
C289 C288 1.386 . S
C289 C293 1.383 . S
C290 C288 1.383 . S
C290 C291 1.402 . S
C290 H305 0.951 1_545 S
C291 C290 1.402 . S
C291 C292 1.375 . S
C291 C294 1.481 . S
C292 C291 1.375 . S
C292 C293 1.367 . S
C292 H306 0.951 . S
C293 C289 1.383 . S
C293 C292 1.367 . S
C293 H307 0.950 . S
C294 C291 1.481 . S
C294 C295 1.297 . S
C294 H308 0.950 . S
C295 C294 1.297 . S
C295 C296 1.479 . S
C295 H309 0.950 . S
C296 C295 1.479 . S
C296 C297 1.368 1_545 S
C296 C302 1.404 . S
C297 C296 1.368 1_565 S
C297 C298 1.365 1_565 S
C297 H310 0.963 . S
C298 C297 1.365 1_545 S
C298 C299 1.389 . S
C298 H311 0.952 1_545 S
C299 C298 1.389 . S
C299 C301 1.384 . S
H300 C302 0.949 . S
C301 C299 1.384 . S
C301 C302 1.385 . S
C301 H303 0.950 . S
C302 C296 1.404 . S
C302 H300 0.949 . S
C302 C301 1.385 . S
H303 C301 0.950 . S
H304 C288 0.951 1_565 S
H305 C290 0.951 1_565 S
H306 C292 0.951 . S
H307 C293 0.950 . S
H308 C294 0.950 . S
H309 C295 0.950 . S
H310 C297 0.963 . S
H311 C298 0.952 1_565 S
C312 C313 1.386 . S
C312 C314 1.383 . S
C312 H328 0.951 . S
C313 C312 1.386 . S
C313 C317 1.383 . S
C314 C312 1.383 . S
C314 C315 1.402 . S
C314 H329 0.951 1_554 S
C315 C314 1.402 . S
C315 C316 1.375 . S
C315 C318 1.481 1_554 S
C316 C315 1.375 . S
C316 C317 1.367 . S
C316 H330 0.951 . S
C317 C313 1.383 . S
C317 C316 1.367 . S
C317 H331 0.950 . S
C318 C315 1.481 1_556 S
C318 C319 1.297 . S
C318 H332 0.950 1_556 S
C319 C318 1.297 . S
C319 C320 1.479 . S
C319 H333 0.950 . S
C320 C319 1.479 . S
C320 C321 1.375 . S
C320 C326 1.404 . S
C321 C320 1.375 . S
C321 C322 1.369 . S
C321 H334 0.950 . S
C322 C321 1.369 . S
C322 C323 1.392 . S
C322 H335 0.951 . S
C323 C322 1.392 . S
C323 C325 1.384 . S
H324 C326 0.949 . S
C325 C323 1.384 . S
C325 C326 1.385 . S
C325 H327 0.950 . S
C326 C320 1.404 . S
C326 H324 0.949 . S
C326 C325 1.385 . S
H327 C325 0.950 . S
H328 C312 0.951 . S
H329 C314 0.951 1_556 S
H330 C316 0.951 . S
H331 C317 0.950 . S
H332 C318 0.950 1_554 S
H333 C319 0.950 . S
H334 C321 0.950 . S
H335 C322 0.951 . S
C336 C337 1.386 . S
C336 C338 1.383 . S
C336 H352 0.951 . S
C337 C336 1.386 . S
C337 C341 1.383 1_554 S
C338 C336 1.383 . S
C338 C339 1.402 . S
C338 H353 0.951 . S
C339 C338 1.402 . S
C339 C340 1.375 . S
C339 C342 1.481 . S
C340 C339 1.375 . S
C340 C341 1.367 1_554 S
C340 H354 0.951 . S
C341 C337 1.383 1_556 S
C341 C340 1.367 1_556 S
C341 H355 0.950 . S
C342 C339 1.481 . S
C342 C343 1.297 . S
C342 H356 0.950 . S
C343 C342 1.297 . S
C343 C344 1.479 . S
C343 H357 0.950 . S
C344 C343 1.479 . S
C344 C345 1.375 . S
C344 C350 1.404 . S
C345 C344 1.375 . S
C345 C346 1.369 . S
C345 H358 0.950 . S
C346 C345 1.369 . S
C346 C347 1.392 . S
C346 H359 0.951 . S
C347 C346 1.392 . S
C347 C349 1.384 . S
H348 C350 0.949 . S
C349 C347 1.384 . S
C349 C350 1.385 . S
C349 H351 0.950 . S
C350 C344 1.404 . S
C350 H348 0.949 . S
C350 C349 1.385 . S
H351 C349 0.950 . S
H352 C336 0.951 . S
H353 C338 0.951 . S
H354 C340 0.951 . S
H355 C341 0.950 . S
H356 C342 0.950 . S
H357 C343 0.950 . S
H358 C345 0.950 . S
H359 C346 0.951 . S
C360 C361 1.386 . S
C360 C362 1.383 . S
C360 H376 0.951 . S
C361 C360 1.386 . S
C361 C365 1.383 . S
C362 C360 1.383 . S
C362 C363 1.402 . S
C362 H377 0.951 . S
C363 C362 1.402 . S
C363 C364 1.375 . S
C363 C366 1.481 . S
C364 C363 1.375 . S
C364 C365 1.367 . S
C364 H378 0.951 . S
C365 C361 1.383 . S
C365 C364 1.367 . S
C365 H379 0.950 . S
C366 C363 1.481 . S
C366 C367 1.297 . S
C366 H380 0.950 . S
C367 C366 1.297 . S
C367 C368 1.479 . S
C367 H381 0.950 . S
C368 C367 1.479 . S
C368 C369 1.375 . S
C368 C374 1.404 . S
C369 C368 1.375 . S
C369 C370 1.369 . S
C369 H382 0.950 . S
C370 C369 1.369 . S
C370 C371 1.392 . S
C370 H383 0.951 . S
C371 C370 1.392 . S
C371 C373 1.384 . S
H372 C374 0.949 . S
C373 C371 1.384 . S
C373 C374 1.385 . S
C373 H375 0.950 . S
C374 C368 1.404 . S
C374 H372 0.949 . S
C374 C373 1.385 . S
H375 C373 0.950 . S
H376 C360 0.951 . S
H377 C362 0.951 . S
H378 C364 0.951 . S
H379 C365 0.950 . S
H380 C366 0.950 . S
H381 C367 0.950 . S
H382 C369 0.950 . S
H383 C370 0.951 . S
C384 C385 1.386 . S
C384 C386 1.383 . S
C384 H400 0.951 . S
C385 C384 1.386 . S
C385 C389 1.383 . S
C386 C384 1.383 . S
C386 C387 1.402 . S
C386 H401 0.951 . S
C387 C386 1.402 . S
C387 C388 1.375 . S
C387 C390 1.481 . S
C388 C387 1.375 . S
C388 C389 1.367 . S
C388 H402 0.951 . S
C389 C385 1.383 . S
C389 C388 1.367 . S
C389 H403 0.950 . S
C390 C387 1.481 . S
C390 C391 1.297 . S
C390 H404 0.950 . S
C391 C390 1.297 . S
C391 C392 1.479 . S
C391 H405 0.950 . S
C392 C391 1.479 . S
C392 C393 1.375 . S
C392 C398 1.404 . S
C393 C392 1.375 . S
C393 C394 1.369 . S
C393 H406 0.950 . S
C394 C393 1.369 . S
C394 C395 1.392 . S
C394 H407 0.951 . S
C395 C394 1.392 . S
C395 C397 1.384 . S
H396 C398 0.949 . S
C397 C395 1.384 . S
C397 C398 1.385 . S
C397 H399 0.950 . S
C398 C392 1.404 . S
C398 H396 0.949 . S
C398 C397 1.385 . S
H399 C397 0.950 . S
H400 C384 0.951 . S
H401 C386 0.951 . S
H402 C388 0.951 . S
H403 C389 0.950 . S
H404 C390 0.950 . S
H405 C391 0.950 . S
H406 C393 0.950 . S
H407 C394 0.951 . S
C408 C409 1.386 . S
C408 C410 1.383 . S
C408 H424 0.951 . S
C409 C408 1.386 . S
C409 C413 1.383 . S
C410 C408 1.383 . S
C410 C411 1.402 . S
C410 H425 0.951 . S
C411 C410 1.402 . S
C411 C412 1.375 . S
C411 C414 1.481 . S
C412 C411 1.375 . S
C412 C413 1.367 . S
C412 H426 0.951 . S
C413 C409 1.383 . S
C413 C412 1.367 . S
C413 H427 0.950 . S
C414 C411 1.481 . S
C414 C415 1.297 . S
C414 H428 0.950 . S
C415 C414 1.297 . S
C415 C416 1.479 . S
C415 H429 0.950 . S
C416 C415 1.479 . S
C416 C417 1.375 . S
C416 C422 1.404 . S
C417 C416 1.375 . S
C417 C418 1.369 . S
C417 H430 0.950 . S
C418 C417 1.369 . S
C418 C419 1.392 . S
C418 H431 0.951 . S
C419 C418 1.392 . S
C419 C421 1.384 . S
H420 C422 0.949 . S
C421 C419 1.384 . S
C421 C422 1.385 . S
C421 H423 0.950 . S
C422 C416 1.404 . S
C422 H420 0.949 . S
C422 C421 1.385 . S
H423 C421 0.950 . S
H424 C408 0.951 . S
H425 C410 0.951 . S
H426 C412 0.951 . S
H427 C413 0.950 . S
H428 C414 0.950 . S
H429 C415 0.950 . S
H430 C417 0.950 . S
H431 C418 0.951 . S
C432 C433 1.386 . S
C432 C434 1.383 . S
C432 H448 0.951 . S
C433 C432 1.386 . S
C433 C437 1.383 . S
C434 C432 1.383 . S
C434 C435 1.402 . S
C434 H449 0.951 . S
C435 C434 1.402 . S
C435 C436 1.375 . S
C435 C438 1.481 . S
C436 C435 1.375 . S
C436 C437 1.367 . S
C436 H450 0.951 . S
C437 C433 1.383 . S
C437 C436 1.367 . S
C437 H451 0.950 . S
C438 C435 1.481 . S
C438 C439 1.297 . S
C438 H452 0.950 . S
C439 C438 1.297 . S
C439 C440 1.479 . S
C439 H453 0.950 . S
C440 C439 1.479 . S
C440 C441 1.375 . S
C440 C446 1.404 . S
C441 C440 1.375 . S
C441 C442 1.369 . S
C441 H454 0.950 . S
C442 C441 1.369 . S
C442 C443 1.392 . S
C442 H455 0.951 . S
C443 C442 1.392 . S
C443 C445 1.384 . S
H444 C446 0.949 . S
C445 C443 1.384 . S
C445 C446 1.385 . S
C445 H447 0.950 . S
C446 C440 1.404 . S
C446 H444 0.949 . S
C446 C445 1.385 . S
H447 C445 0.950 . S
H448 C432 0.951 . S
H449 C434 0.951 . S
H450 C436 0.951 . S
H451 C437 0.950 . S
H452 C438 0.950 . S
H453 C439 0.950 . S
H454 C441 0.950 . S
H455 C442 0.951 . S
C456 C457 1.386 . S
C456 C458 1.383 . S
C456 H472 0.951 . S
C457 C456 1.386 . S
C457 C461 1.383 . S
C458 C456 1.383 . S
C458 C459 1.402 . S
C458 H473 0.951 . S
C459 C458 1.402 . S
C459 C460 1.375 . S
C459 C462 1.481 . S
C460 C459 1.375 . S
C460 C461 1.367 . S
C460 H474 0.951 . S
C461 C457 1.383 . S
C461 C460 1.367 . S
C461 H475 0.950 . S
C462 C459 1.481 . S
C462 C463 1.297 . S
C462 H476 0.950 . S
C463 C462 1.297 . S
C463 C464 1.479 . S
C463 H477 0.950 . S
C464 C463 1.479 . S
C464 C465 1.375 . S
C464 C470 1.404 . S
C465 C464 1.375 . S
C465 C466 1.369 . S
C465 H478 0.950 . S
C466 C465 1.369 . S
C466 C467 1.392 . S
C466 H479 0.951 . S
C467 C466 1.392 . S
C467 C469 1.384 . S
H468 C470 0.949 . S
C469 C467 1.384 . S
C469 C470 1.385 . S
C469 H471 0.950 . S
C470 C464 1.404 . S
C470 H468 0.949 . S
C470 C469 1.385 . S
H471 C469 0.950 . S
H472 C456 0.951 . S
H473 C458 0.951 . S
H474 C460 0.951 . S
H475 C461 0.950 . S
H476 C462 0.950 . S
H477 C463 0.950 . S
H478 C465 0.950 . S
H479 C466 0.951 . S
C480 C481 1.386 . S
C480 C482 1.383 . S
C480 H496 0.951 . S
C481 C480 1.386 . S
C481 C485 1.383 . S
C482 C480 1.383 . S
C482 C483 1.402 . S
C482 H497 0.951 . S
C483 C482 1.402 . S
C483 C484 1.375 1_556 S
C483 C486 1.481 1_556 S
C484 C483 1.375 1_554 S
C484 C485 1.367 1_554 S
C484 H498 0.951 . S
C485 C481 1.383 . S
C485 C484 1.367 1_556 S
C485 H499 0.950 . S
C486 C483 1.481 1_554 S
C486 C487 1.293 1_554 S
C486 H500 0.950 . S
C487 C486 1.293 1_556 S
C487 C488 1.473 1_556 S
C487 H501 0.963 . S
C488 C487 1.473 1_554 S
C488 C489 1.375 1_554 S
C488 C494 1.404 . S
C489 C488 1.375 1_556 S
C489 C490 1.369 1_556 S
C489 H502 0.950 . S
C490 C489 1.369 1_554 S
C490 C491 1.392 . S
C490 H503 0.951 1_554 S
C491 C490 1.392 . S
C491 C493 1.384 . S
H492 C494 0.949 . S
C493 C491 1.384 . S
C493 C494 1.385 . S
C493 H495 0.950 . S
C494 C488 1.404 . S
C494 H492 0.949 . S
C494 C493 1.385 . S
H495 C493 0.950 . S
H496 C480 0.951 . S
H497 C482 0.951 . S
H498 C484 0.951 . S
H499 C485 0.950 . S
H500 C486 0.950 . S
H501 C487 0.963 . S
H502 C489 0.950 . S
H503 C490 0.951 1_556 S
C217 C2 1.597 . S
C227 C112 1.607 . S
C241 C38 1.613 . S
C251 C148 1.582 . S
C265 C184 1.595 . S
C275 C74 1.614 . S
C289 C4 1.596 . S
C299 C110 1.603 . S
C313 C40 1.607 . S
C323 C146 1.597 . S
C337 C182 1.598 1_554 S
C347 C76 1.606 . S
C361 C50 1.319 . S
C371 C3 1.358 . S
C385 C86 1.319 . S
C395 C39 1.354 . S
C409 C75 1.339 . S
C419 C122 1.206 . S
C433 C158 1.253 . S
C443 C111 1.339 . S
C457 C194 1.289 . S
C467 C147 1.334 . S
C481 C183 1.352 . S
C491 C14 1.331 . S
