# Generated by pormake.
# Topology tzs, (4)-cn, num edge types: 1
# Building blocks:
#     Node 0, Type 0, BuildingBlock: UXUYUI_clean_sbu_0, # of connection points: 4
#     Node 1, Type 0, BuildingBlock: UXUYUI_clean_sbu_0, # of connection points: 4
#     Node 2, Type 0, BuildingBlock: UXUYUI_clean_sbu_0, # of connection points: 4
#     Node 3, Type 0, BuildingBlock: UXUYUI_clean_sbu_0, # of connection points: 4
#     Node 4, Type 0, BuildingBlock: UXUYUI_clean_sbu_0, # of connection points: 4
#     Node 5, Type 0, BuildingBlock: UXUYUI_clean_sbu_0, # of connection points: 4
#     Node 6, Type 0, BuildingBlock: UXUYUI_clean_sbu_0, # of connection points: 4
#     Node 7, Type 0, BuildingBlock: UXUYUI_clean_sbu_0, # of connection points: 4
#     Node 8, Type 0, BuildingBlock: UXUYUI_clean_sbu_0, # of connection points: 4
#     Node 9, Type 0, BuildingBlock: UXUYUI_clean_sbu_0, # of connection points: 4
#     Node 10, Type 0, BuildingBlock: UXUYUI_clean_sbu_0, # of connection points: 4
#     Node 11, Type 0, BuildingBlock: UXUYUI_clean_sbu_0, # of connection points: 4
#     Node 12, Type 0, BuildingBlock: UXUYUI_clean_sbu_0, # of connection points: 4
#     Node 13, Type 0, BuildingBlock: UXUYUI_clean_sbu_0, # of connection points: 4
#     Node 14, Type 0, BuildingBlock: UXUYUI_clean_sbu_0, # of connection points: 4
#     Node 15, Type 0, BuildingBlock: UXUYUI_clean_sbu_0, # of connection points: 4
#     Edge 16, Type (0, 0), BuildingBlock: ZUJKAS_clean_linker_0, # of connection points: 2
#     Edge 17, Type (0, 0), BuildingBlock: ZUJKAS_clean_linker_0, # of connection points: 2
#     Edge 18, Type (0, 0), BuildingBlock: ZUJKAS_clean_linker_0, # of connection points: 2
#     Edge 19, Type (0, 0), BuildingBlock: ZUJKAS_clean_linker_0, # of connection points: 2
#     Edge 20, Type (0, 0), BuildingBlock: ZUJKAS_clean_linker_0, # of connection points: 2
#     Edge 21, Type (0, 0), BuildingBlock: ZUJKAS_clean_linker_0, # of connection points: 2
#     Edge 22, Type (0, 0), BuildingBlock: ZUJKAS_clean_linker_0, # of connection points: 2
#     Edge 23, Type (0, 0), BuildingBlock: ZUJKAS_clean_linker_0, # of connection points: 2
#     Edge 24, Type (0, 0), BuildingBlock: ZUJKAS_clean_linker_0, # of connection points: 2
#     Edge 25, Type (0, 0), BuildingBlock: ZUJKAS_clean_linker_0, # of connection points: 2
#     Edge 26, Type (0, 0), BuildingBlock: ZUJKAS_clean_linker_0, # of connection points: 2
#     Edge 27, Type (0, 0), BuildingBlock: ZUJKAS_clean_linker_0, # of connection points: 2
#     Edge 28, Type (0, 0), BuildingBlock: ZUJKAS_clean_linker_0, # of connection points: 2
#     Edge 29, Type (0, 0), BuildingBlock: ZUJKAS_clean_linker_0, # of connection points: 2
#     Edge 30, Type (0, 0), BuildingBlock: ZUJKAS_clean_linker_0, # of connection points: 2
#     Edge 31, Type (0, 0), BuildingBlock: ZUJKAS_clean_linker_0, # of connection points: 2
#     Edge 32, Type (0, 0), BuildingBlock: ZUJKAS_clean_linker_0, # of connection points: 2
#     Edge 33, Type (0, 0), BuildingBlock: ZUJKAS_clean_linker_0, # of connection points: 2
#     Edge 34, Type (0, 0), BuildingBlock: ZUJKAS_clean_linker_0, # of connection points: 2
#     Edge 35, Type (0, 0), BuildingBlock: ZUJKAS_clean_linker_0, # of connection points: 2
#     Edge 36, Type (0, 0), BuildingBlock: ZUJKAS_clean_linker_0, # of connection points: 2
#     Edge 37, Type (0, 0), BuildingBlock: ZUJKAS_clean_linker_0, # of connection points: 2
#     Edge 38, Type (0, 0), BuildingBlock: ZUJKAS_clean_linker_0, # of connection points: 2
#     Edge 39, Type (0, 0), BuildingBlock: ZUJKAS_clean_linker_0, # of connection points: 2
#     Edge 40, Type (0, 0), BuildingBlock: ZUJKAS_clean_linker_0, # of connection points: 2
#     Edge 41, Type (0, 0), BuildingBlock: ZUJKAS_clean_linker_0, # of connection points: 2
#     Edge 42, Type (0, 0), BuildingBlock: ZUJKAS_clean_linker_0, # of connection points: 2
#     Edge 43, Type (0, 0), BuildingBlock: ZUJKAS_clean_linker_0, # of connection points: 2
#     Edge 44, Type (0, 0), BuildingBlock: ZUJKAS_clean_linker_0, # of connection points: 2
#     Edge 45, Type (0, 0), BuildingBlock: ZUJKAS_clean_linker_0, # of connection points: 2
#     Edge 46, Type (0, 0), BuildingBlock: ZUJKAS_clean_linker_0, # of connection points: 2
#     Edge 47, Type (0, 0), BuildingBlock: ZUJKAS_clean_linker_0, # of connection points: 2
# Relax obj value: 0.120
# Max RMSD: 0.120
# Mean RMSD: 0.120
data_MOF--net-tzs--node1-UXUYUI_clean_sbu_0--edge1-ZUJKAS_clean_linker_0
_symmetry_space_group_name_H-M    P1
_symmetry_Int_Tables_number       1
_symmetry_cell_setting            triclinic
loop_
_symmetry_equiv_pos_as_xyz
'x, y, z'
_cell_length_a     84.387071
_cell_length_b     84.395285
_cell_length_c     72.721768
_cell_angle_alpha  89.99726
_cell_angle_beta   89.9932
_cell_angle_gamma 90.006245
loop_
_atom_site_label
_atom_site_type_symbol
_atom_site_fract_x
_atom_site_fract_y
_atom_site_fract_z
_atom_type_partial_charge
Li0 Li 0.15552 0.34202 0.19041 0.0
Li1 Li 0.14946 0.36977 0.18899 0.0
Li2 Li 0.12783 0.3496 0.18996 0.0
Li3 Li 0.14538 0.35277 0.1624 0.0
C4 C 0.1444 0.35266 0.22706 0.0
N5 N 0.14524 0.34875 0.26478 0.0
C6 C 0.15469 0.36179 0.23777 0.0
C7 C 0.13434 0.34172 0.23558 0.0
C8 C 0.15499 0.35958 0.2568 0.0
C9 C 0.135 0.33987 0.25465 0.0
C10 C 0.18062 0.36257 0.17952 0.0
C11 C 0.20655 0.37272 0.17202 0.0
N12 N 0.21068 0.37184 0.19007 0.0
C13 C 0.18512 0.36177 0.19798 0.0
C14 C 0.19142 0.36807 0.16641 0.0
C15 C 0.20037 0.3665 0.20305 0.0
C16 C 0.1825 0.32244 0.18899 0.0
N17 N 0.16989 0.3264 0.19969 0.0
C18 C 0.17751 0.30734 0.2223 0.0
C19 C 0.1672 0.31905 0.21602 0.0
C20 C 0.19068 0.30305 0.2116 0.0
C21 C 0.19312 0.31077 0.19473 0.0
H22 H 0.18419 0.32822 0.17586 0.0
H23 H 0.15693 0.32203 0.22406 0.0
C24 C 0.14409 0.39575 0.21105 0.0
N25 N 0.15403 0.39041 0.19775 0.0
C26 C 0.14627 0.41072 0.21872 0.0
C27 C 0.16881 0.41455 0.19868 0.0
C28 C 0.16614 0.39948 0.19133 0.0
C29 C 0.15883 0.42033 0.21263 0.0
H30 H 0.13443 0.38833 0.21568 0.0
H31 H 0.17371 0.39509 0.1805 0.0
C32 C 0.14161 0.31746 0.17595 0.0
N33 N 0.14979 0.28591 0.17923 0.0
C34 C 0.15148 0.3104 0.16287 0.0
C35 C 0.1358 0.30847 0.19061 0.0
C36 C 0.1555 0.29443 0.1648 0.0
C37 C 0.1401 0.29254 0.19205 0.0
C38 C 0.12898 0.38171 0.16259 0.0
C39 C 0.11444 0.38945 0.16071 0.0
C40 C 0.14235 0.38764 0.15355 0.0
C41 C 0.1135 0.40302 0.14975 0.0
C42 C 0.14092 0.40124 0.14272 0.0
N43 N 0.12665 0.40858 0.14106 0.0
C44 C 0.10099 0.35538 0.21147 0.0
C45 C 0.09883 0.33303 0.19186 0.0
C46 C 0.08585 0.35264 0.21848 0.0
N47 N 0.10714 0.34556 0.19852 0.0
C48 C 0.08362 0.32985 0.19847 0.0
C49 C 0.07697 0.33969 0.21202 0.0
H50 H 0.10792 0.3653 0.2164 0.0
H51 H 0.10404 0.32547 0.18149 0.0
C52 C 0.15964 0.35045 0.12757 0.0
N53 N 0.14559 0.35188 0.13651 0.0
C54 C 0.16006 0.35022 0.10838 0.0
C55 C 0.1315 0.3527 0.10807 0.0
C56 C 0.13164 0.35293 0.12726 0.0
C57 C 0.14585 0.3514 0.0984 0.0
H58 H 0.17051 0.34951 0.13536 0.0
H59 H 0.12066 0.35409 0.13482 0.0
O60 O 0.14369 0.35488 0.20843 0.0
O61 O 0.16572 0.35815 0.17418 0.0
O62 O 0.13794 0.33318 0.17461 0.0
O63 O 0.13006 0.36844 0.17331 0.0
H64 H 0.1623 0.37058 0.2315 0.0
H65 H 0.12625 0.3346 0.22753 0.0
H66 H 0.16294 0.36653 0.26524 0.0
H67 H 0.12738 0.33136 0.26141 0.0
H68 H 0.21501 0.37704 0.16203 0.0
H69 H 0.17699 0.35743 0.20825 0.0
H70 H 0.18809 0.36886 0.15207 0.0
H71 H 0.20401 0.36591 0.21729 0.0
H72 H 0.17522 0.30179 0.23546 0.0
H73 H 0.20297 0.30764 0.1859 0.0
H74 H 0.13804 0.4148 0.22912 0.0
H75 H 0.17867 0.4215 0.19361 0.0
H76 H 0.15612 0.31725 0.15149 0.0
H77 H 0.12825 0.31381 0.20092 0.0
H78 H 0.16322 0.28882 0.15486 0.0
H79 H 0.13579 0.28546 0.2034 0.0
H80 H 0.10399 0.38501 0.16765 0.0
H81 H 0.15371 0.38183 0.15485 0.0
H82 H 0.10232 0.40914 0.14816 0.0
H83 H 0.15117 0.40595 0.13565 0.0
H84 H 0.08109 0.36068 0.22868 0.0
H85 H 0.07725 0.31967 0.19323 0.0
H86 H 0.17135 0.34901 0.10145 0.0
H87 H 0.12031 0.3538 0.10089 0.0
Li88 Li 0.62736 0.1499 0.18777 0.0
Li89 Li 0.65521 0.1573 0.19019 0.0
Li90 Li 0.644 0.14472 0.16159 0.0
Li91 Li 0.64816 0.1289 0.18944 0.0
C92 C 0.62845 0.17789 0.17252 0.0
N93 N 0.6064 0.2021 0.17284 0.0
C94 C 0.6303 0.19071 0.18449 0.0
C95 C 0.61548 0.17747 0.16057 0.0
C96 C 0.619 0.20282 0.18447 0.0
C97 C 0.60444 0.18979 0.16099 0.0
C98 C 0.64853 0.1455 0.22553 0.0
C99 C 0.66919 0.13848 0.24696 0.0
N100 N 0.66119 0.14608 0.26059 0.0
C101 C 0.64042 0.15308 0.2398 0.0
C102 C 0.66295 0.138 0.22918 0.0
C103 C 0.64705 0.15331 0.25741 0.0
C104 C 0.59405 0.1473 0.18888 0.0
N105 N 0.60664 0.15536 0.1958 0.0
C106 C 0.58969 0.17024 0.21568 0.0
C107 C 0.60475 0.16675 0.20884 0.0
C108 C 0.57648 0.16197 0.2089 0.0
C109 C 0.57878 0.1505 0.19517 0.0
H110 H 0.59589 0.13814 0.17875 0.0
H111 H 0.61498 0.17301 0.21407 0.0
C112 C 0.68308 0.17543 0.18929 0.0
N113 N 0.66974 0.17256 0.19921 0.0
C114 C 0.69413 0.18655 0.1954 0.0
C115 C 0.67725 0.19189 0.22155 0.0
C116 C 0.66658 0.18062 0.21497 0.0
C117 C 0.69128 0.19493 0.21176 0.0
H118 H 0.68512 0.16907 0.1766 0.0
H119 H 0.65568 0.17845 0.22232 0.0
C120 C 0.62279 0.12105 0.15963 0.0
N121 N 0.61071 0.10336 0.13088 0.0
C122 C 0.62689 0.10508 0.15776 0.0
C123 C 0.6124 0.12796 0.14699 0.0
C124 C 0.62069 0.09635 0.14311 0.0
C125 C 0.60647 0.11884 0.13251 0.0
C126 C 0.67878 0.13298 0.17351 0.0
C127 C 0.68274 0.12378 0.1582 0.0
C128 C 0.68993 0.13512 0.18752 0.0
C129 C 0.6976 0.11651 0.1574 0.0
C130 C 0.70466 0.12766 0.18622 0.0
N131 N 0.70815 0.11856 0.17132 0.0
C132 C 0.64348 0.15876 0.12656 0.0
C133 C 0.64738 0.13096 0.12601 0.0
C134 C 0.64382 0.15937 0.10739 0.0
N135 N 0.64511 0.14469 0.13544 0.0
C136 C 0.64772 0.131 0.10683 0.0
C137 C 0.64586 0.14534 0.09725 0.0
H138 H 0.64193 0.16954 0.13438 0.0
H139 H 0.64874 0.11993 0.13337 0.0
C140 C 0.64536 0.10469 0.2153 0.0
N141 N 0.65263 0.10843 0.1992 0.0
C142 C 0.64751 0.08981 0.22322 0.0
C143 C 0.6643 0.08265 0.19762 0.0
C144 C 0.66194 0.09776 0.19027 0.0
C145 C 0.65698 0.07848 0.2143 0.0
H146 H 0.63776 0.11327 0.22194 0.0
H147 H 0.66714 0.10078 0.17719 0.0
O148 O 0.63921 0.16577 0.17259 0.0
O149 O 0.64222 0.14525 0.20817 0.0
O150 O 0.62883 0.1298 0.17385 0.0
O151 O 0.66431 0.1403 0.1744 0.0
H152 H 0.64027 0.19126 0.19378 0.0
H153 H 0.61393 0.1677 0.15113 0.0
H154 H 0.62024 0.21277 0.19374 0.0
H155 H 0.5943 0.18956 0.15189 0.0
H156 H 0.68035 0.13273 0.24995 0.0
H157 H 0.62915 0.15877 0.23733 0.0
H158 H 0.66914 0.13167 0.21849 0.0
H159 H 0.64095 0.15922 0.26854 0.0
H160 H 0.58838 0.17923 0.22619 0.0
H161 H 0.56892 0.1437 0.18979 0.0
H162 H 0.70466 0.18873 0.18728 0.0
H163 H 0.67463 0.19804 0.23426 0.0
H164 H 0.63479 0.09948 0.16748 0.0
H165 H 0.60907 0.14027 0.14823 0.0
H166 H 0.62381 0.084 0.14145 0.0
H167 H 0.59851 0.12408 0.12256 0.0
H168 H 0.6744 0.12215 0.1471 0.0
H169 H 0.68735 0.1426 0.19918 0.0
H170 H 0.70074 0.10924 0.1457 0.0
H171 H 0.71336 0.12918 0.197 0.0
H172 H 0.64263 0.17073 0.1006 0.0
H173 H 0.64914 0.11988 0.0996 0.0
H174 H 0.64177 0.08723 0.23619 0.0
H175 H 0.67142 0.07421 0.19004 0.0
Li176 Li 0.84294 0.65802 0.19136 0.0
Li177 Li 0.84899 0.62967 0.18992 0.0
Li178 Li 0.86947 0.64967 0.19028 0.0
Li179 Li 0.85257 0.64668 0.16308 0.0
C180 C 0.86284 0.64623 0.22542 0.0
N181 N 0.88197 0.64892 0.25613 0.0
C182 C 0.86638 0.63287 0.23601 0.0
C183 C 0.86875 0.66101 0.23072 0.0
C184 C 0.87613 0.63446 0.25143 0.0
C185 C 0.87849 0.66212 0.2462 0.0
C186 C 0.81755 0.63828 0.18197 0.0
C187 C 0.79014 0.63182 0.17625 0.0
N188 N 0.78735 0.63187 0.19467 0.0
C189 C 0.8144 0.63826 0.20086 0.0
C190 C 0.80532 0.63505 0.16956 0.0
C191 C 0.79905 0.635 0.20699 0.0
C192 C 0.81785 0.67987 0.18905 0.0
N193 N 0.82843 0.67319 0.20082 0.0
C194 C 0.81774 0.68784 0.226 0.0
C195 C 0.82849 0.67683 0.21901 0.0
C196 C 0.80681 0.69514 0.21415 0.0
C197 C 0.80696 0.69102 0.19542 0.0
H198 H 0.81791 0.67653 0.1747 0.0
H199 H 0.83674 0.67104 0.22814 0.0
C200 C 0.85777 0.60055 0.2038 0.0
N201 N 0.84482 0.60838 0.19742 0.0
C202 C 0.85653 0.58492 0.20984 0.0
C203 C 0.82869 0.58542 0.20209 0.0
C204 C 0.83049 0.60105 0.19613 0.0
C205 C 0.84182 0.57719 0.20916 0.0
H206 H 0.8691 0.60654 0.20429 0.0
H207 H 0.82045 0.60718 0.19037 0.0
C208 C 0.85519 0.68182 0.17283 0.0
N209 N 0.84481 0.7127 0.16879 0.0
C210 C 0.84721 0.68644 0.15686 0.0
C211 C 0.85808 0.69299 0.18663 0.0
C212 C 0.84202 0.70208 0.1551 0.0
C213 C 0.85267 0.70851 0.18437 0.0
C214 C 0.86851 0.61796 0.16273 0.0
C215 C 0.88303 0.61048 0.15969 0.0
C216 C 0.85477 0.61192 0.15456 0.0
C217 C 0.8836 0.59706 0.14846 0.0
C218 C 0.85584 0.59849 0.14342 0.0
N219 N 0.87011 0.5914 0.14062 0.0
C220 C 0.89858 0.64089 0.20553 0.0
C221 C 0.89705 0.66802 0.19719 0.0
C222 C 0.91379 0.64307 0.21259 0.0
N223 N 0.89052 0.65333 0.19824 0.0
C224 C 0.91227 0.67072 0.20404 0.0
C225 C 0.92078 0.65817 0.21201 0.0
H226 H 0.89306 0.62933 0.20607 0.0
H227 H 0.89036 0.67766 0.19126 0.0
C228 C 0.83769 0.6488 0.1285 0.0
N229 N 0.85187 0.64709 0.13711 0.0
C230 C 0.83693 0.64906 0.10934 0.0
C231 C 0.86538 0.64567 0.10831 0.0
C232 C 0.86559 0.64557 0.1275 0.0
C233 C 0.8509 0.64746 0.09897 0.0
H234 H 0.82701 0.65013 0.13656 0.0
H235 H 0.87669 0.64419 0.13478 0.0
O236 O 0.85356 0.64486 0.21003 0.0
O237 O 0.8324 0.64172 0.17551 0.0
O238 O 0.86012 0.66647 0.17494 0.0
O239 O 0.86781 0.63106 0.1738 0.0
H240 H 0.8616 0.62141 0.23246 0.0
H241 H 0.86605 0.67149 0.2228 0.0
H242 H 0.87903 0.62419 0.25967 0.0
H243 H 0.8833 0.67346 0.25029 0.0
H244 H 0.78057 0.62928 0.1668 0.0
H245 H 0.82365 0.64067 0.21072 0.0
H246 H 0.80753 0.63501 0.15491 0.0
H247 H 0.79646 0.63494 0.22156 0.0
H248 H 0.81783 0.69038 0.2406 0.0
H249 H 0.79886 0.69644 0.18574 0.0
H250 H 0.86695 0.57907 0.21527 0.0
H251 H 0.81721 0.57977 0.20098 0.0
H252 H 0.84492 0.67803 0.14599 0.0
H253 H 0.8643 0.68971 0.19903 0.0
H254 H 0.83574 0.70578 0.14286 0.0
H255 H 0.85472 0.71723 0.19501 0.0
H256 H 0.89376 0.61499 0.16598 0.0
H257 H 0.8434 0.6175 0.1568 0.0
H258 H 0.89477 0.59114 0.14598 0.0
H259 H 0.84531 0.59369 0.13701 0.0
H260 H 0.92003 0.63301 0.21836 0.0
H261 H 0.91717 0.68257 0.20345 0.0
H262 H 0.82555 0.65072 0.10274 0.0
H263 H 0.8764 0.64416 0.10091 0.0
Li264 Li 0.37023 0.84921 0.18904 0.0
Li265 Li 0.34234 0.84123 0.1909 0.0
Li266 Li 0.3537 0.85374 0.16258 0.0
Li267 Li 0.34862 0.86981 0.18993 0.0
C268 C 0.36918 0.82045 0.17381 0.0
N269 N 0.39008 0.79524 0.17382 0.0
C270 C 0.36572 0.80677 0.18388 0.0
C271 C 0.38317 0.82122 0.16355 0.0
C272 C 0.37646 0.79417 0.18375 0.0
C273 C 0.39362 0.80838 0.1638 0.0
C274 C 0.35049 0.85244 0.22684 0.0
C275 C 0.33285 0.8585 0.25199 0.0
N276 N 0.34201 0.84962 0.26342 0.0
C277 C 0.35985 0.84357 0.2389 0.0
C278 C 0.33698 0.86013 0.23349 0.0
C279 C 0.35531 0.8422 0.25731 0.0
C280 C 0.40241 0.85584 0.19439 0.0
N281 N 0.39107 0.84476 0.19757 0.0
C282 C 0.40958 0.82849 0.21378 0.0
C283 C 0.39432 0.83128 0.20711 0.0
C284 C 0.42148 0.83983 0.21087 0.0
C285 C 0.41778 0.85362 0.20096 0.0
H286 H 0.39948 0.86654 0.18698 0.0
H287 H 0.38501 0.8228 0.20979 0.0
C288 C 0.31468 0.82275 0.18989 0.0
N289 N 0.3279 0.82581 0.19995 0.0
C290 C 0.30357 0.81173 0.19608 0.0
C291 C 0.32011 0.80689 0.22264 0.0
C292 C 0.3309 0.81798 0.2159 0.0
C293 C 0.30617 0.80372 0.21274 0.0
H294 H 0.31272 0.82897 0.17708 0.0
H295 H 0.34176 0.82016 0.22329 0.0
C296 C 0.37418 0.87749 0.16024 0.0
N297 N 0.38587 0.89411 0.13045 0.0
C298 C 0.36846 0.89265 0.1563 0.0
C299 C 0.386 0.87086 0.14918 0.0
C300 C 0.37449 0.90085 0.14114 0.0
C301 C 0.3917 0.87943 0.13413 0.0
C302 C 0.31807 0.86414 0.17562 0.0
C303 C 0.31161 0.87196 0.16043 0.0
C304 C 0.30902 0.86244 0.1916 0.0
C305 C 0.29634 0.87826 0.16162 0.0
C306 C 0.29379 0.86888 0.19225 0.0
N307 N 0.28782 0.87662 0.17739 0.0
C308 C 0.35768 0.8406 0.12723 0.0
C309 C 0.34826 0.86705 0.12737 0.0
C310 C 0.35772 0.84038 0.10805 0.0
N311 N 0.35311 0.85383 0.13645 0.0
C312 C 0.34814 0.86738 0.10818 0.0
C313 C 0.35297 0.85393 0.09826 0.0
H314 H 0.36125 0.83017 0.13478 0.0
H315 H 0.34462 0.87739 0.13503 0.0
C316 C 0.35081 0.89463 0.21505 0.0
N317 N 0.34339 0.89018 0.19929 0.0
C318 C 0.34807 0.90956 0.22261 0.0
C319 C 0.3303 0.91524 0.19738 0.0
C320 C 0.33334 0.90014 0.19035 0.0
C321 C 0.33774 0.92012 0.21372 0.0
H322 H 0.35903 0.88661 0.22164 0.0
H323 H 0.32793 0.89652 0.17758 0.0
O324 O 0.35885 0.83294 0.17386 0.0
O325 O 0.35481 0.85392 0.20877 0.0
O326 O 0.36826 0.86919 0.17486 0.0
O327 O 0.33303 0.85792 0.17466 0.0
H328 H 0.3549 0.8059 0.19176 0.0
H329 H 0.38599 0.83166 0.1556 0.0
H330 H 0.37397 0.78355 0.19156 0.0
H331 H 0.40454 0.80887 0.15603 0.0
H332 H 0.3224 0.86436 0.25729 0.0
H333 H 0.37043 0.83769 0.23409 0.0
H334 H 0.32987 0.86747 0.22455 0.0
H335 H 0.36238 0.83526 0.26675 0.0
H336 H 0.41193 0.81781 0.22157 0.0
H337 H 0.42666 0.8626 0.19833 0.0
H338 H 0.29295 0.80968 0.18807 0.0
H339 H 0.32275 0.80071 0.23532 0.0
H340 H 0.35937 0.89798 0.16475 0.0
H341 H 0.39065 0.85921 0.15214 0.0
H342 H 0.3701 0.91255 0.13786 0.0
H343 H 0.40077 0.8744 0.12538 0.0
H344 H 0.31834 0.87323 0.14787 0.0
H345 H 0.31361 0.85603 0.20329 0.0
H346 H 0.29124 0.88444 0.15 0.0
H347 H 0.28669 0.86767 0.20456 0.0
H348 H 0.36127 0.82966 0.10097 0.0
H349 H 0.34452 0.87812 0.1012 0.0
H350 H 0.35431 0.91295 0.23501 0.0
H351 H 0.32225 0.92301 0.19009 0.0
Li352 Li 0.1281 0.65053 0.30881 0.0
Li353 Li 0.14386 0.64564 0.33657 0.0
Li354 Li 0.15599 0.65641 0.30755 0.0
Li355 Li 0.14828 0.62857 0.30945 0.0
C356 C 0.12935 0.67839 0.32592 0.0
N357 N 0.1076 0.70266 0.32961 0.0
C358 C 0.12134 0.68057 0.34256 0.0
C359 C 0.12646 0.6887 0.31126 0.0
C360 C 0.11035 0.69288 0.34413 0.0
C361 C 0.11537 0.70085 0.31336 0.0
C362 C 0.12139 0.62071 0.33599 0.0
C363 C 0.12247 0.59775 0.35571 0.0
N364 N 0.10683 0.5996 0.35965 0.0
C365 C 0.10527 0.62225 0.34004 0.0
C366 C 0.13002 0.60825 0.34372 0.0
C367 C 0.09814 0.61152 0.3521 0.0
C368 C 0.10481 0.65563 0.28175 0.0
N369 N 0.10761 0.65615 0.30014 0.0
C370 C 0.08071 0.66342 0.30599 0.0
C371 C 0.09596 0.65998 0.31226 0.0
C372 C 0.07742 0.66281 0.28707 0.0
C373 C 0.08975 0.65898 0.27487 0.0
H374 H 0.11419 0.65227 0.27243 0.0
H375 H 0.09844 0.66014 0.32683 0.0
C376 C 0.15809 0.64977 0.37122 0.0
N377 N 0.14413 0.64647 0.3627 0.0
C378 C 0.1589 0.6503 0.39039 0.0
C379 C 0.13089 0.6444 0.39163 0.0
C380 C 0.13061 0.64405 0.37246 0.0
C381 C 0.14519 0.64748 0.40083 0.0
H382 H 0.16861 0.65189 0.3631 0.0
H383 H 0.11955 0.64207 0.3654 0.0
C384 C 0.14944 0.64827 0.27284 0.0
N385 N 0.16214 0.65729 0.23941 0.0
C386 C 0.15894 0.63776 0.26289 0.0
C387 C 0.14621 0.66328 0.26564 0.0
C388 C 0.16529 0.64256 0.24604 0.0
C389 C 0.1528 0.66765 0.24877 0.0
C390 C 0.17644 0.63028 0.33006 0.0
C391 C 0.19111 0.63092 0.32115 0.0
C392 C 0.1744 0.61999 0.34493 0.0
C393 C 0.20334 0.62095 0.32694 0.0
C394 C 0.18691 0.61022 0.35033 0.0
N395 N 0.201 0.61087 0.34128 0.0
C396 C 0.17066 0.68609 0.30296 0.0
C397 C 0.18296 0.66515 0.28659 0.0
C398 C 0.18163 0.69692 0.29603 0.0
N399 N 0.17146 0.67057 0.29807 0.0
C400 C 0.19412 0.67557 0.27925 0.0
C401 C 0.19353 0.6917 0.28395 0.0
H402 H 0.16148 0.69007 0.31223 0.0
H403 H 0.18343 0.65272 0.28306 0.0
C404 C 0.14019 0.5973 0.30069 0.0
N405 N 0.15258 0.60756 0.30132 0.0
C406 C 0.14241 0.58179 0.29462 0.0
C407 C 0.17003 0.58783 0.2892 0.0
C408 C 0.1673 0.60319 0.29562 0.0
C409 C 0.15748 0.57691 0.28875 0.0
H410 H 0.1285 0.60121 0.30471 0.0
H411 H 0.17684 0.6117 0.29564 0.0
O412 O 0.14004 0.6663 0.32407 0.0
O413 O 0.12856 0.63119 0.32426 0.0
O414 O 0.14326 0.64384 0.28947 0.0
O415 O 0.16434 0.64001 0.32456 0.0
H416 H 0.12351 0.67281 0.3541 0.0
H417 H 0.13267 0.6873 0.29837 0.0
H418 H 0.104 0.69465 0.35689 0.0
H419 H 0.11294 0.70884 0.30208 0.0
H420 H 0.12904 0.58807 0.36181 0.0
H421 H 0.09833 0.63168 0.33401 0.0
H422 H 0.14234 0.60654 0.34029 0.0
H423 H 0.08571 0.61265 0.35546 0.0
H424 H 0.07158 0.66642 0.31586 0.0
H425 H 0.08768 0.65808 0.26021 0.0
H426 H 0.17017 0.65266 0.39696 0.0
H427 H 0.11997 0.64251 0.39916 0.0
H428 H 0.16144 0.62605 0.26814 0.0
H429 H 0.13876 0.6715 0.27305 0.0
H430 H 0.17274 0.63457 0.23826 0.0
H431 H 0.15049 0.67928 0.24311 0.0
H432 H 0.19301 0.63896 0.3098 0.0
H433 H 0.16335 0.61969 0.35241 0.0
H434 H 0.21469 0.62123 0.32005 0.0
H435 H 0.18545 0.60217 0.36179 0.0
H436 H 0.18067 0.70928 0.29988 0.0
H437 H 0.20323 0.67102 0.27019 0.0
H438 H 0.13236 0.57382 0.29409 0.0
H439 H 0.1818 0.58451 0.28469 0.0
Li440 Li 0.34917 0.12964 0.30693 0.0
Li441 Li 0.35354 0.14569 0.33559 0.0
Li442 Li 0.3414 0.15677 0.30673 0.0
Li443 Li 0.36869 0.15046 0.30765 0.0
C444 C 0.32302 0.12744 0.32622 0.0
N445 N 0.30345 0.10163 0.33194 0.0
C446 C 0.32294 0.11971 0.34322 0.0
C447 C 0.31304 0.1221 0.31217 0.0
C448 C 0.31298 0.10668 0.34583 0.0
C449 C 0.30327 0.10901 0.31531 0.0
C450 C 0.38295 0.12528 0.32179 0.0
C451 C 0.40974 0.12354 0.33311 0.0
N452 N 0.41379 0.11482 0.3181 0.0
C453 C 0.38734 0.11625 0.30651 0.0
C454 C 0.39419 0.12893 0.33524 0.0
C455 C 0.40301 0.11109 0.30488 0.0
C456 C 0.34256 0.1059 0.28052 0.0
N457 N 0.34514 0.10866 0.29868 0.0
C458 C 0.34297 0.08103 0.30541 0.0
C459 C 0.3455 0.09663 0.3111 0.0
C460 C 0.34015 0.07783 0.28673 0.0
C461 C 0.33993 0.09051 0.27423 0.0
H462 H 0.34282 0.11561 0.27086 0.0
H463 H 0.34782 0.09917 0.32543 0.0
C464 C 0.34531 0.15737 0.3704 0.0
N465 N 0.35325 0.14564 0.36154 0.0
C466 C 0.34494 0.15776 0.38958 0.0
C467 C 0.36061 0.13376 0.39007 0.0
C468 C 0.36076 0.13389 0.37088 0.0
C469 C 0.35269 0.14586 0.39966 0.0
H470 H 0.33935 0.16647 0.36253 0.0
H471 H 0.36681 0.12461 0.36341 0.0
C472 C 0.34741 0.15284 0.2727 0.0
N473 N 0.33397 0.16876 0.24335 0.0
C474 C 0.35529 0.16567 0.26465 0.0
C475 C 0.3327 0.14811 0.26576 0.0
C476 C 0.34831 0.17354 0.24982 0.0
C477 C 0.32609 0.15632 0.25095 0.0
C478 C 0.36855 0.17803 0.32605 0.0
C479 C 0.37327 0.18776 0.31148 0.0
C480 C 0.37508 0.18039 0.34352 0.0
C481 C 0.38447 0.19965 0.31461 0.0
C482 C 0.38623 0.19243 0.34609 0.0
N483 N 0.39066 0.20172 0.3317 0.0
C484 C 0.31017 0.16673 0.2986 0.0
C485 C 0.33 0.1858 0.2921 0.0
C486 C 0.29843 0.17681 0.29182 0.0
N487 N 0.32561 0.1713 0.29843 0.0
C488 C 0.31867 0.19626 0.28521 0.0
C489 C 0.30265 0.19177 0.28492 0.0
H490 H 0.30696 0.15524 0.30391 0.0
H491 H 0.34231 0.18916 0.29208 0.0
C492 C 0.393 0.15121 0.28136 0.0
N493 N 0.3897 0.15513 0.29908 0.0
C494 C 0.40812 0.15365 0.27418 0.0
C495 C 0.4164 0.16374 0.30374 0.0
C496 C 0.40113 0.16099 0.31038 0.0
C497 C 0.42007 0.16009 0.28537 0.0
H498 H 0.38393 0.14591 0.27287 0.0
H499 H 0.39849 0.16335 0.32464 0.0
O500 O 0.3329 0.14006 0.3233 0.0
O501 O 0.36779 0.13081 0.32335 0.0
O502 O 0.35389 0.1452 0.28752 0.0
O503 O 0.35749 0.1664 0.32335 0.0
H504 H 0.33053 0.12366 0.35427 0.0
H505 H 0.31302 0.12782 0.29887 0.0
H506 H 0.31285 0.10056 0.3589 0.0
H507 H 0.2956 0.10468 0.30451 0.0
H508 H 0.4186 0.12635 0.34335 0.0
H509 H 0.37879 0.11343 0.29591 0.0
H510 H 0.39101 0.13606 0.34705 0.0
H511 H 0.40661 0.10417 0.29308 0.0
H512 H 0.34319 0.0716 0.3155 0.0
H513 H 0.33815 0.08853 0.25966 0.0
H514 H 0.33853 0.16717 0.39644 0.0
H515 H 0.36682 0.12443 0.39732 0.0
H516 H 0.36658 0.16965 0.26991 0.0
H517 H 0.32628 0.1384 0.27196 0.0
H518 H 0.35426 0.18352 0.24353 0.0
H519 H 0.31466 0.15285 0.24556 0.0
H520 H 0.36864 0.18594 0.29781 0.0
H521 H 0.37168 0.17296 0.35495 0.0
H522 H 0.38831 0.20717 0.30342 0.0
H523 H 0.3914 0.19435 0.35952 0.0
H524 H 0.28619 0.17298 0.2921 0.0
H525 H 0.32246 0.20762 0.27985 0.0
H526 H 0.41049 0.15018 0.26011 0.0
H527 H 0.42522 0.16869 0.31291 0.0
Li528 Li 0.86962 0.34691 0.30855 0.0
Li529 Li 0.85394 0.35241 0.33626 0.0
Li530 Li 0.84162 0.34151 0.30757 0.0
Li531 Li 0.8498 0.36925 0.30891 0.0
C532 C 0.86782 0.31917 0.3261 0.0
N533 N 0.8888 0.29426 0.33008 0.0
C534 C 0.87515 0.31641 0.34303 0.0
C535 C 0.87101 0.30914 0.31126 0.0
C536 C 0.88575 0.30378 0.34475 0.0
C537 C 0.8817 0.29666 0.31352 0.0
C538 C 0.87749 0.37652 0.33504 0.0
C539 C 0.87857 0.40029 0.35343 0.0
N540 N 0.89387 0.39697 0.35786 0.0
C541 C 0.8933 0.37348 0.33956 0.0
C542 C 0.87012 0.39015 0.34184 0.0
C543 C 0.90134 0.3839 0.3512 0.0
C544 C 0.8927 0.34308 0.28126 0.0
N545 N 0.88996 0.34109 0.29952 0.0
C546 C 0.91659 0.33234 0.30422 0.0
C547 C 0.90152 0.33584 0.31103 0.0
C548 C 0.91983 0.33445 0.28541 0.0
C549 C 0.90759 0.3398 0.27388 0.0
H550 H 0.8834 0.34756 0.27247 0.0
H551 H 0.89913 0.33459 0.32555 0.0
C552 C 0.83955 0.34959 0.37099 0.0
N553 N 0.85367 0.3519 0.36241 0.0
C554 C 0.83872 0.34928 0.39016 0.0
C555 C 0.86707 0.35327 0.3913 0.0
C556 C 0.86733 0.35351 0.37212 0.0
C557 C 0.85261 0.35121 0.40058 0.0
H558 H 0.82891 0.34798 0.36292 0.0
H559 H 0.87847 0.3548 0.36501 0.0
C560 C 0.84785 0.34922 0.27284 0.0
N561 N 0.83423 0.34023 0.2399 0.0
C562 C 0.83761 0.35952 0.26362 0.0
C563 C 0.85133 0.33443 0.26519 0.0
C564 C 0.83081 0.35474 0.247 0.0
C565 C 0.84427 0.33008 0.24857 0.0
C566 C 0.82211 0.36865 0.33021 0.0
C567 C 0.80687 0.36813 0.32269 0.0
C568 C 0.82551 0.37953 0.34415 0.0
C569 C 0.79539 0.37877 0.32895 0.0
C570 C 0.81371 0.38996 0.35005 0.0
N571 N 0.79902 0.38938 0.34238 0.0
C572 C 0.82732 0.31178 0.30203 0.0
C573 C 0.8139 0.33318 0.28776 0.0
C574 C 0.81638 0.30103 0.29491 0.0
N575 N 0.82598 0.32748 0.29822 0.0
C576 C 0.80269 0.32284 0.28035 0.0
C577 C 0.8039 0.30651 0.28382 0.0
H578 H 0.83688 0.3076 0.31062 0.0
H579 H 0.81309 0.34573 0.28501 0.0
C580 C 0.85939 0.3992 0.2976 0.0
N581 N 0.84625 0.39019 0.30025 0.0
C582 C 0.85807 0.41451 0.29058 0.0
C583 C 0.82969 0.41096 0.28882 0.0
C584 C 0.83156 0.3957 0.29596 0.0
C585 C 0.84308 0.42055 0.28595 0.0
H586 H 0.87095 0.39442 0.30081 0.0
H587 H 0.82135 0.38814 0.29759 0.0
O588 O 0.85746 0.33153 0.32413 0.0
O589 O 0.86945 0.36641 0.32364 0.0
O590 O 0.85447 0.35361 0.28924 0.0
O591 O 0.8335 0.35833 0.32418 0.0
H592 H 0.87271 0.32393 0.35471 0.0
H593 H 0.86536 0.31103 0.29811 0.0
H594 H 0.89157 0.30155 0.35776 0.0
H595 H 0.88435 0.28887 0.30211 0.0
H596 H 0.87298 0.41085 0.35882 0.0
H597 H 0.89926 0.36311 0.33427 0.0
H598 H 0.85809 0.393 0.33803 0.0
H599 H 0.91354 0.3816 0.35493 0.0
H600 H 0.92561 0.32813 0.3136 0.0
H601 H 0.90961 0.34193 0.25938 0.0
H602 H 0.82737 0.34735 0.39672 0.0
H603 H 0.87806 0.35487 0.39876 0.0
H604 H 0.83485 0.37103 0.26928 0.0
H605 H 0.85935 0.32639 0.27204 0.0
H606 H 0.82278 0.36256 0.23977 0.0
H607 H 0.84678 0.31862 0.24256 0.0
H608 H 0.80395 0.35967 0.31206 0.0
H609 H 0.83706 0.3798 0.35051 0.0
H610 H 0.78359 0.37857 0.32315 0.0
H611 H 0.8162 0.39846 0.3608 0.0
H612 H 0.81759 0.28857 0.29821 0.0
H613 H 0.79333 0.32756 0.27174 0.0
H614 H 0.8687 0.42153 0.28881 0.0
H615 H 0.81794 0.41503 0.28512 0.0
Li616 Li 0.64774 0.86932 0.30911 0.0
Li617 Li 0.64481 0.85258 0.33631 0.0
Li618 Li 0.6563 0.84231 0.30799 0.0
Li619 Li 0.62802 0.8481 0.31019 0.0
C620 C 0.68009 0.8556 0.32548 0.0
N621 N 0.71138 0.8462 0.32791 0.0
C622 C 0.68566 0.84826 0.34145 0.0
C623 C 0.69045 0.85826 0.3108 0.0
C624 C 0.70153 0.84359 0.34241 0.0
C625 C 0.70621 0.85338 0.31228 0.0
C626 C 0.62371 0.87516 0.34048 0.0
C627 C 0.60832 0.87578 0.36842 0.0
N628 N 0.61397 0.89055 0.37205 0.0
C629 C 0.62933 0.89036 0.34445 0.0
C630 C 0.61306 0.86782 0.3525 0.0
C631 C 0.62427 0.89794 0.36049 0.0
C632 C 0.63862 0.89843 0.29409 0.0
N633 N 0.6513 0.89028 0.30066 0.0
C634 C 0.66842 0.9122 0.29461 0.0
C635 C 0.666 0.89683 0.30116 0.0
C636 C 0.65558 0.92087 0.28751 0.0
C637 C 0.64051 0.91376 0.2873 0.0
H638 H 0.62704 0.89293 0.29402 0.0
H639 H 0.67582 0.89016 0.30671 0.0
C640 C 0.64134 0.83906 0.37163 0.0
N641 N 0.64609 0.8522 0.36235 0.0
C642 C 0.642 0.83869 0.3908 0.0
C643 C 0.65255 0.86533 0.39045 0.0
C644 C 0.65183 0.86513 0.37129 0.0
C645 C 0.64756 0.85199 0.40043 0.0
H646 H 0.63703 0.82888 0.36416 0.0
H647 H 0.6558 0.87529 0.36349 0.0
C648 C 0.642 0.86234 0.27459 0.0
N649 N 0.64017 0.88208 0.24435 0.0
C650 C 0.62724 0.86658 0.26738 0.0
C651 C 0.65583 0.86807 0.26635 0.0
C652 C 0.62657 0.87657 0.25208 0.0
C653 C 0.65465 0.87807 0.2511 0.0
C654 C 0.63101 0.81917 0.3229 0.0
C655 C 0.63486 0.80706 0.31058 0.0
C656 C 0.61715 0.81809 0.33335 0.0
C657 C 0.62469 0.79407 0.30884 0.0
C658 C 0.60727 0.80493 0.33118 0.0
N659 N 0.61122 0.7933 0.31907 0.0
C660 C 0.67904 0.81802 0.31005 0.0
C661 C 0.67435 0.82776 0.27995 0.0
C662 C 0.6904 0.80747 0.30344 0.0
N663 N 0.67145 0.828 0.29832 0.0
C664 C 0.68552 0.81729 0.2727 0.0
C665 C 0.69374 0.80703 0.28453 0.0
H666 H 0.67623 0.81829 0.32456 0.0
H667 H 0.66796 0.83566 0.27092 0.0
C668 C 0.59479 0.85034 0.30835 0.0
N669 N 0.60752 0.8422 0.30193 0.0
C670 C 0.57967 0.84706 0.30165 0.0
C671 C 0.591 0.82693 0.28198 0.0
C672 C 0.60594 0.8307 0.28897 0.0
C673 C 0.5776 0.83529 0.28817 0.0
H674 H 0.59644 0.85968 0.31832 0.0
H675 H 0.61633 0.82465 0.28385 0.0
O676 O 0.66453 0.86001 0.32416 0.0
O677 O 0.62876 0.86741 0.32504 0.0
O678 O 0.6429 0.85282 0.28978 0.0
O679 O 0.6407 0.83207 0.32464 0.0
H680 H 0.6778 0.84605 0.35292 0.0
H681 H 0.6863 0.86381 0.29829 0.0
H682 H 0.70599 0.83783 0.35465 0.0
H683 H 0.71433 0.85524 0.30096 0.0
H684 H 0.60018 0.87021 0.37792 0.0
H685 H 0.63764 0.89618 0.33536 0.0
H686 H 0.60868 0.85602 0.34969 0.0
H687 H 0.62857 0.90968 0.36378 0.0
H688 H 0.68018 0.9173 0.29533 0.0
H689 H 0.6303 0.91988 0.28175 0.0
H690 H 0.63797 0.8282 0.39801 0.0
H691 H 0.65712 0.87573 0.39738 0.0
H692 H 0.61641 0.86233 0.27361 0.0
H693 H 0.66734 0.86501 0.27184 0.0
H694 H 0.61523 0.88001 0.24641 0.0
H695 H 0.66526 0.88268 0.24468 0.0
H696 H 0.6455 0.80771 0.30234 0.0
H697 H 0.61394 0.82741 0.34286 0.0
H698 H 0.62749 0.78464 0.29931 0.0
H699 H 0.59645 0.80399 0.33908 0.0
H700 H 0.69632 0.79957 0.31295 0.0
H701 H 0.68781 0.81734 0.25805 0.0
H702 H 0.56979 0.85408 0.30653 0.0
H703 H 0.58999 0.81769 0.27173 0.0
Li704 Li 0.84927 0.62883 0.80899 0.0
Li705 Li 0.85378 0.64452 0.83694 0.0
Li706 Li 0.84216 0.65642 0.80841 0.0
Li707 Li 0.87035 0.65 0.80964 0.0
C708 C 0.82153 0.62872 0.82681 0.0
N709 N 0.79809 0.60614 0.83102 0.0
C710 C 0.81949 0.6211 0.84371 0.0
C711 C 0.81151 0.625 0.81212 0.0
C712 C 0.80759 0.60969 0.84555 0.0
C713 C 0.79978 0.61351 0.8145 0.0
C714 C 0.87955 0.62253 0.83509 0.0
C715 C 0.90352 0.6228 0.85317 0.0
N716 N 0.90144 0.60718 0.85705 0.0
C717 C 0.87777 0.60642 0.83905 0.0
C718 C 0.89262 0.63075 0.84203 0.0
C719 C 0.88891 0.59889 0.85026 0.0
C720 C 0.84639 0.60573 0.78146 0.0
N721 N 0.84458 0.60826 0.7998 0.0
C722 C 0.83709 0.58124 0.80444 0.0
C723 C 0.84008 0.59639 0.81132 0.0
C724 C 0.83903 0.57826 0.78558 0.0
C725 C 0.84368 0.59074 0.77402 0.0
H726 H 0.85018 0.61531 0.77264 0.0
H727 H 0.83904 0.59861 0.8259 0.0
C728 C 0.84884 0.65818 0.87165 0.0
N729 N 0.85315 0.64453 0.86308 0.0
C730 C 0.84817 0.65889 0.89081 0.0
C731 C 0.85612 0.63139 0.89197 0.0
C732 C 0.85657 0.6312 0.87279 0.0
C733 C 0.85192 0.64538 0.90121 0.0
H734 H 0.84596 0.66855 0.86356 0.0
H735 H 0.85938 0.62035 0.8657 0.0
C736 C 0.85011 0.65106 0.77363 0.0
N737 N 0.83996 0.66456 0.74108 0.0
C738 C 0.85972 0.66196 0.76441 0.0
C739 C 0.83544 0.64686 0.76617 0.0
C740 C 0.85435 0.66869 0.74799 0.0
C741 C 0.83048 0.65387 0.74974 0.0
C742 C 0.86788 0.67724 0.83185 0.0
C743 C 0.86653 0.69261 0.82484 0.0
C744 C 0.87866 0.67418 0.84598 0.0
C745 C 0.87626 0.70457 0.83182 0.0
C746 C 0.88818 0.68646 0.85261 0.0
N747 N 0.88681 0.70127 0.84542 0.0
C748 C 0.81163 0.66909 0.80283 0.0
C749 C 0.83243 0.68383 0.78913 0.0
C750 C 0.80038 0.67955 0.79576 0.0
N751 N 0.82728 0.67133 0.79928 0.0
C752 C 0.82158 0.69454 0.78171 0.0
C753 C 0.80531 0.69243 0.78494 0.0
H754 H 0.80787 0.65914 0.81109 0.0
H755 H 0.84495 0.6854 0.78666 0.0
C756 C 0.90114 0.64287 0.79846 0.0
N757 N 0.89101 0.65517 0.80114 0.0
C758 C 0.91641 0.64558 0.79185 0.0
C759 C 0.91045 0.67357 0.79036 0.0
C760 C 0.8953 0.67032 0.79713 0.0
C761 C 0.92123 0.6611 0.78768 0.0
H762 H 0.89728 0.6309 0.80129 0.0
H763 H 0.88689 0.67984 0.79884 0.0
O764 O 0.83317 0.63986 0.82473 0.0
O765 O 0.86873 0.63006 0.82411 0.0
O766 O 0.85505 0.64454 0.78987 0.0
O767 O 0.85842 0.66539 0.82514 0.0
H768 H 0.82703 0.62391 0.85527 0.0
H769 H 0.81285 0.63085 0.79899 0.0
H770 H 0.80593 0.60364 0.85852 0.0
H771 H 0.79202 0.61043 0.80321 0.0
H772 H 0.91367 0.62904 0.85866 0.0
H773 H 0.86785 0.59981 0.83364 0.0
H774 H 0.8945 0.64307 0.83866 0.0
H775 H 0.88761 0.58646 0.85355 0.0
H776 H 0.83376 0.57186 0.81384 0.0
H777 H 0.84523 0.58893 0.75939 0.0
H778 H 0.84494 0.66993 0.89741 0.0
H779 H 0.85876 0.62062 0.89946 0.0
H780 H 0.87114 0.66529 0.76993 0.0
H781 H 0.82792 0.63834 0.77304 0.0
H782 H 0.86162 0.67722 0.74077 0.0
H783 H 0.8191 0.65081 0.74388 0.0
H784 H 0.85811 0.69527 0.81407 0.0
H785 H 0.87955 0.6625 0.85195 0.0
H786 H 0.87542 0.71649 0.82642 0.0
H787 H 0.8966 0.68422 0.86352 0.0
H788 H 0.78794 0.67743 0.79847 0.0
H789 H 0.8259 0.70444 0.77366 0.0
H790 H 0.92422 0.63559 0.7896 0.0
H791 H 0.9137 0.6857 0.78729 0.0
Li792 Li 0.37002 0.84716 0.80804 0.0
Li793 Li 0.35484 0.85239 0.83617 0.0
Li794 Li 0.34209 0.84121 0.80781 0.0
Li795 Li 0.34987 0.86914 0.80892 0.0
C796 C 0.36912 0.81941 0.8254 0.0
N797 N 0.39078 0.79499 0.82826 0.0
C798 C 0.37731 0.81696 0.84185 0.0
C799 C 0.37178 0.80932 0.81048 0.0
C800 C 0.38825 0.80457 0.84301 0.0
C801 C 0.38284 0.79709 0.81217 0.0
C802 C 0.37756 0.87722 0.83423 0.0
C803 C 0.37783 0.90129 0.85212 0.0
N804 N 0.3933 0.89867 0.85639 0.0
C805 C 0.39352 0.87489 0.83858 0.0
C806 C 0.36969 0.89062 0.84087 0.0
C807 C 0.40125 0.88582 0.84989 0.0
C808 C 0.39249 0.84361 0.78002 0.0
N809 N 0.39028 0.84176 0.79841 0.0
C810 C 0.41728 0.8339 0.80233 0.0
C811 C 0.40229 0.83703 0.8096 0.0
C812 C 0.41996 0.83594 0.78341 0.0
C813 C 0.40731 0.84076 0.7722 0.0
H814 H 0.38283 0.84761 0.77146 0.0
H815 H 0.40032 0.83599 0.82423 0.0
C816 C 0.34104 0.84937 0.87113 0.0
N817 N 0.355 0.85198 0.86231 0.0
C818 C 0.34044 0.8492 0.8903 0.0
C819 C 0.36868 0.85393 0.89099 0.0
C820 C 0.36873 0.85402 0.8718 0.0
C821 C 0.35438 0.85159 0.9005 0.0
H822 H 0.33036 0.84742 0.86324 0.0
H823 H 0.37975 0.85558 0.8645 0.0
C824 C 0.34755 0.8494 0.7728 0.0
N825 N 0.33357 0.84093 0.73988 0.0
C826 C 0.33742 0.85996 0.76379 0.0
C827 C 0.35074 0.83463 0.76494 0.0
C828 C 0.33043 0.85543 0.74718 0.0
C829 C 0.3435 0.83054 0.74834 0.0
C830 C 0.32229 0.86768 0.83078 0.0
C831 C 0.30702 0.86639 0.82349 0.0
C832 C 0.3253 0.87874 0.84465 0.0
C833 C 0.29509 0.87644 0.82994 0.0
C834 C 0.31306 0.88856 0.85074 0.0
N835 N 0.29833 0.88724 0.8433 0.0
C836 C 0.32751 0.81141 0.80369 0.0
C837 C 0.31458 0.83236 0.78799 0.0
C838 C 0.31649 0.80051 0.79699 0.0
N839 N 0.32644 0.82695 0.79897 0.0
C840 C 0.30341 0.82186 0.78082 0.0
C841 C 0.30433 0.8057 0.78527 0.0
H842 H 0.33695 0.80746 0.81261 0.0
H843 H 0.31385 0.84482 0.7847 0.0
C844 C 0.35897 0.8987 0.79625 0.0
N845 N 0.34589 0.89001 0.80032 0.0
C846 C 0.35747 0.91399 0.78923 0.0
C847 C 0.32898 0.91111 0.7905 0.0
C848 C 0.33106 0.89583 0.79751 0.0
C849 C 0.34232 0.92036 0.78617 0.0
H850 H 0.37062 0.89369 0.79837 0.0
H851 H 0.32083 0.88854 0.80028 0.0
O852 O 0.35845 0.83155 0.82396 0.0
O853 O 0.36984 0.86664 0.82313 0.0
O854 O 0.35437 0.85356 0.78917 0.0
O855 O 0.3341 0.85792 0.82461 0.0
H856 H 0.3753 0.82457 0.85358 0.0
H857 H 0.36545 0.81097 0.79771 0.0
H858 H 0.39474 0.80259 0.85563 0.0
H859 H 0.3851 0.78926 0.80069 0.0
H860 H 0.37186 0.91169 0.85739 0.0
H861 H 0.39985 0.86469 0.8334 0.0
H862 H 0.3575 0.8929 0.83721 0.0
H863 H 0.41357 0.88409 0.85348 0.0
H864 H 0.4268 0.83043 0.81147 0.0
H865 H 0.40887 0.84239 0.75753 0.0
H866 H 0.32921 0.84705 0.89706 0.0
H867 H 0.3797 0.85586 0.89828 0.0
H868 H 0.33488 0.87147 0.76962 0.0
H869 H 0.35866 0.82639 0.77165 0.0
H870 H 0.32249 0.86344 0.74012 0.0
H871 H 0.34578 0.8191 0.74217 0.0
H872 H 0.30441 0.85778 0.81292 0.0
H873 H 0.33691 0.87961 0.85082 0.0
H874 H 0.28324 0.87564 0.82433 0.0
H875 H 0.31525 0.89719 0.86144 0.0
H876 H 0.31764 0.78813 0.80067 0.0
H877 H 0.29407 0.82634 0.77203 0.0
H878 H 0.36807 0.92076 0.78628 0.0
H879 H 0.3171 0.91547 0.78806 0.0
Li880 Li 0.14964 0.36981 0.80886 0.0
Li881 Li 0.14416 0.35412 0.83645 0.0
Li882 Li 0.15572 0.34179 0.80794 0.0
Li883 Li 0.12772 0.34945 0.80902 0.0
C884 C 0.17788 0.36784 0.82597 0.0
N885 N 0.20366 0.38791 0.8287 0.0
C886 C 0.18113 0.37558 0.84254 0.0
C887 C 0.18789 0.37012 0.81089 0.0
C888 C 0.19418 0.38573 0.84362 0.0
C889 C 0.20081 0.38037 0.81251 0.0
C890 C 0.12024 0.37704 0.83576 0.0
C891 C 0.09706 0.37774 0.85515 0.0
N892 N 0.10073 0.39282 0.86018 0.0
C893 C 0.12365 0.39263 0.84091 0.0
C894 C 0.10673 0.3696 0.84275 0.0
C895 C 0.1137 0.40037 0.85335 0.0
C896 C 0.15314 0.39314 0.78172 0.0
N897 N 0.15537 0.39021 0.7999 0.0
C898 C 0.16462 0.41665 0.80473 0.0
C899 C 0.16094 0.40159 0.81144 0.0
C900 C 0.16235 0.42007 0.786 0.0
C901 C 0.15658 0.40804 0.77444 0.0
H902 H 0.14839 0.38399 0.77291 0.0
H903 H 0.16234 0.39906 0.82591 0.0
C904 C 0.14472 0.33983 0.87145 0.0
N905 N 0.14436 0.35402 0.86261 0.0
C906 C 0.14485 0.33923 0.89062 0.0
C907 C 0.14479 0.36786 0.89127 0.0
C908 C 0.14455 0.3679 0.87208 0.0
C909 C 0.14487 0.35338 0.90077 0.0
H910 H 0.14503 0.32896 0.86361 0.0
H911 H 0.14476 0.37902 0.86475 0.0
C912 C 0.14779 0.3485 0.77274 0.0
N913 N 0.15654 0.33643 0.7389 0.0
C914 C 0.13752 0.3385 0.76311 0.0
C915 C 0.1624 0.35256 0.76502 0.0
C916 C 0.14219 0.33247 0.74606 0.0
C917 C 0.16664 0.34628 0.74794 0.0
C918 C 0.12909 0.32127 0.82916 0.0
C919 C 0.13127 0.30629 0.82135 0.0
C920 C 0.11696 0.32358 0.84196 0.0
C921 C 0.12105 0.29395 0.8262 0.0
C922 C 0.10699 0.31095 0.84646 0.0
N923 N 0.10921 0.29653 0.83853 0.0
C924 C 0.18544 0.32692 0.80467 0.0
C925 C 0.16506 0.31509 0.78694 0.0
C926 C 0.19645 0.31601 0.79802 0.0
N927 N 0.17014 0.32637 0.79891 0.0
C928 C 0.17568 0.304 0.77986 0.0
C929 C 0.19165 0.30439 0.78534 0.0
H930 H 0.1891 0.3358 0.81448 0.0
H931 H 0.15277 0.31473 0.78284 0.0
C932 C 0.09707 0.35762 0.7981 0.0
N933 N 0.10695 0.34504 0.80024 0.0
C934 C 0.08183 0.35545 0.79114 0.0
C935 C 0.08721 0.3274 0.78855 0.0
C936 C 0.10238 0.33013 0.79553 0.0
C937 C 0.07674 0.34018 0.7862 0.0
H938 H 0.1011 0.36939 0.80167 0.0
H939 H 0.11061 0.32041 0.79672 0.0
O940 O 0.16508 0.35795 0.82461 0.0
O941 O 0.12988 0.36928 0.82358 0.0
O942 O 0.14347 0.35441 0.78953 0.0
O943 O 0.13895 0.3335 0.82448 0.0
H944 H 0.17365 0.37382 0.85442 0.0
H945 H 0.1857 0.36404 0.79807 0.0
H946 H 0.19678 0.39186 0.85633 0.0
H947 H 0.20859 0.38231 0.8009 0.0
H948 H 0.08659 0.3721 0.86071 0.0
H949 H 0.13394 0.39864 0.83547 0.0
H950 H 0.10362 0.35774 0.8385 0.0
H951 H 0.11628 0.41239 0.85757 0.0
H952 H 0.16913 0.42551 0.81413 0.0
H953 H 0.15432 0.41021 0.76 0.0
H954 H 0.14522 0.32781 0.89742 0.0
H955 H 0.14479 0.37904 0.89858 0.0
H956 H 0.12612 0.33533 0.76878 0.0
H957 H 0.17036 0.3605 0.77211 0.0
H958 H 0.1344 0.32463 0.73852 0.0
H959 H 0.17796 0.34926 0.74186 0.0
H960 H 0.14071 0.30422 0.8116 0.0
H961 H 0.11537 0.33495 0.84852 0.0
H962 H 0.12254 0.28233 0.82017 0.0
H963 H 0.09753 0.3126 0.85632 0.0
H964 H 0.20856 0.31656 0.80292 0.0
H965 H 0.17146 0.29535 0.77001 0.0
H966 H 0.0741 0.36561 0.78967 0.0
H967 H 0.08387 0.31549 0.78458 0.0
Li968 Li 0.62768 0.14839 0.80767 0.0
Li969 Li 0.64396 0.14417 0.83515 0.0
Li970 Li 0.65611 0.15532 0.80628 0.0
Li971 Li 0.64857 0.12752 0.80895 0.0
C972 C 0.633 0.17934 0.82346 0.0
N973 N 0.62045 0.20954 0.82595 0.0
C974 C 0.62435 0.18386 0.83899 0.0
C975 C 0.63553 0.19032 0.80936 0.0
C976 C 0.61802 0.19913 0.83995 0.0
C977 C 0.62902 0.20549 0.81083 0.0
C978 C 0.62008 0.1234 0.83777 0.0
C979 C 0.61799 0.10744 0.86518 0.0
N980 N 0.60265 0.11209 0.86714 0.0
C981 C 0.60427 0.12795 0.83999 0.0
C982 C 0.62698 0.11298 0.85039 0.0
C983 C 0.59566 0.12212 0.85495 0.0
C984 C 0.60265 0.14489 0.78308 0.0
N985 N 0.60715 0.15309 0.79829 0.0
C986 C 0.58229 0.16662 0.79908 0.0
C987 C 0.5973 0.16372 0.80644 0.0
C988 C 0.57736 0.15843 0.78326 0.0
C989 C 0.58779 0.14746 0.77523 0.0
H990 H 0.61064 0.13635 0.77702 0.0
H991 H 0.60092 0.16974 0.81881 0.0
C992 C 0.65838 0.1432 0.87 0.0
N993 N 0.6443 0.14535 0.86129 0.0
C994 C 0.65917 0.14363 0.88917 0.0
C995 C 0.63099 0.14867 0.89003 0.0
C996 C 0.63076 0.14821 0.87086 0.0
C997 C 0.64533 0.14632 0.89946 0.0
H998 H 0.66901 0.14116 0.86207 0.0
H999 H 0.61972 0.14996 0.86362 0.0
C1000 C 0.64292 0.14846 0.77119 0.0
N1001 N 0.64139 0.16067 0.73595 0.0
C1002 C 0.64937 0.14003 0.75643 0.0
C1003 C 0.63548 0.16298 0.76795 0.0
C1004 C 0.64855 0.14644 0.73874 0.0
C1005 C 0.63487 0.16899 0.75007 0.0
C1006 C 0.67693 0.12862 0.82317 0.0
C1007 C 0.68945 0.13072 0.81083 0.0
C1008 C 0.67681 0.11545 0.83482 0.0
C1009 C 0.70159 0.11947 0.8102 0.0
C1010 C 0.68916 0.10445 0.83375 0.0
N1011 N 0.70118 0.10667 0.82156 0.0
C1012 C 0.67542 0.18225 0.80783 0.0
C1013 C 0.67791 0.16762 0.78015 0.0
C1014 C 0.68643 0.19337 0.80162 0.0
N1015 N 0.67127 0.16981 0.79699 0.0
C1016 C 0.68892 0.17847 0.77337 0.0
C1017 C 0.69325 0.1916 0.78413 0.0
H1018 H 0.67008 0.18357 0.82126 0.0
H1019 H 0.67481 0.15736 0.77206 0.0
C1020 C 0.64644 0.09411 0.8082 0.0
N1021 N 0.65396 0.10683 0.8008 0.0
C1022 C 0.64986 0.07886 0.80198 0.0
C1023 C 0.66869 0.09009 0.78056 0.0
C1024 C 0.66498 0.10512 0.7873 0.0
C1025 C 0.66101 0.07673 0.78786 0.0
H1026 H 0.63758 0.09582 0.81873 0.0
H1027 H 0.67081 0.11546 0.78171 0.0
O1028 O 0.63941 0.16444 0.82242 0.0
O1029 O 0.62871 0.12906 0.82326 0.0
O1030 O 0.6437 0.14235 0.78861 0.0
O1031 O 0.66478 0.13933 0.82372 0.0
H1032 H 0.62242 0.17564 0.85015 0.0
H1033 H 0.6426 0.18729 0.79749 0.0
H1034 H 0.61119 0.20272 0.85183 0.0
H1035 H 0.63086 0.21407 0.79999 0.0
H1036 H 0.62321 0.09946 0.87512 0.0
H1037 H 0.59871 0.13593 0.83032 0.0
H1038 H 0.6392 0.10935 0.8489 0.0
H1039 H 0.58344 0.12559 0.85688 0.0
H1040 H 0.57451 0.17495 0.80594 0.0
H1041 H 0.58457 0.14098 0.76293 0.0
H1042 H 0.67054 0.14203 0.89583 0.0
H1043 H 0.61999 0.15058 0.89737 0.0
H1044 H 0.65501 0.12868 0.7586 0.0
H1045 H 0.63 0.16943 0.77906 0.0
H1046 H 0.65358 0.14008 0.72722 0.0
H1047 H 0.62914 0.18022 0.7474 0.0
H1048 H 0.68974 0.14085 0.80173 0.0
H1049 H 0.66723 0.11367 0.84447 0.0
H1050 H 0.71132 0.1209 0.80065 0.0
H1051 H 0.68916 0.09415 0.84259 0.0
H1052 H 0.68938 0.20337 0.81031 0.0
H1053 H 0.69415 0.1765 0.75996 0.0
H1054 H 0.64351 0.06889 0.80778 0.0
H1055 H 0.67744 0.08892 0.76975 0.0
Li1056 Li 0.86917 0.34868 0.68967 0.0
Li1057 Li 0.84112 0.34177 0.69085 0.0
Li1058 Li 0.85236 0.35433 0.66259 0.0
Li1059 Li 0.84774 0.36942 0.69093 0.0
C1060 C 0.86684 0.32198 0.66604 0.0
N1061 N 0.88557 0.29888 0.65012 0.0
C1062 C 0.86554 0.30621 0.67172 0.0
C1063 C 0.87748 0.32595 0.65206 0.0
C1064 C 0.87517 0.29472 0.66356 0.0
C1065 C 0.88689 0.31412 0.64423 0.0
C1066 C 0.84925 0.34626 0.72559 0.0
C1067 C 0.82992 0.34202 0.74951 0.0
N1068 N 0.83974 0.33125 0.75749 0.0
C1069 C 0.85921 0.33525 0.7341 0.0
C1070 C 0.83455 0.34979 0.73342 0.0
C1071 C 0.85417 0.32775 0.7502 0.0
C1072 C 0.89921 0.35639 0.70246 0.0
N1073 N 0.88995 0.34382 0.69792 0.0
C1074 C 0.91063 0.32576 0.70598 0.0
C1075 C 0.89525 0.32869 0.69973 0.0
C1076 C 0.92057 0.33855 0.71047 0.0
C1077 C 0.91464 0.35403 0.70871 0.0
H1078 H 0.89456 0.36829 0.70125 0.0
H1079 H 0.88753 0.31888 0.69652 0.0
C1080 C 0.81089 0.32845 0.6968 0.0
N1081 N 0.82666 0.32634 0.69966 0.0
C1082 C 0.80001 0.31746 0.70357 0.0
C1083 C 0.82183 0.30227 0.71598 0.0
C1084 C 0.83228 0.31351 0.70887 0.0
C1085 C 0.80545 0.3042 0.71338 0.0
H1086 H 0.80675 0.3387 0.68931 0.0
H1087 H 0.8449 0.31207 0.7108 0.0
C1088 C 0.87822 0.37662 0.66534 0.0
N1089 N 0.90073 0.39261 0.64488 0.0
C1090 C 0.8764 0.39278 0.66167 0.0
C1091 C 0.89164 0.36868 0.65888 0.0
C1092 C 0.88786 0.40063 0.65121 0.0
C1093 C 0.90285 0.37695 0.64849 0.0
C1094 C 0.82012 0.36962 0.6732 0.0
C1095 C 0.81812 0.37757 0.6565 0.0
C1096 C 0.81013 0.3731 0.68799 0.0
C1097 C 0.80626 0.38905 0.65496 0.0
C1098 C 0.79843 0.38468 0.68591 0.0
N1099 N 0.79677 0.39236 0.66958 0.0
C1100 C 0.84676 0.3412 0.62784 0.0
C1101 C 0.85583 0.36777 0.62682 0.0
C1102 C 0.84629 0.34051 0.60867 0.0
N1103 N 0.85167 0.35462 0.63647 0.0
C1104 C 0.85561 0.36759 0.60763 0.0
C1105 C 0.85088 0.3538 0.59833 0.0
H1106 H 0.84334 0.33098 0.63588 0.0
H1107 H 0.85919 0.37845 0.63396 0.0
C1108 C 0.84438 0.39194 0.71905 0.0
N1109 N 0.84283 0.38976 0.70062 0.0
C1110 C 0.8417 0.40681 0.7268 0.0
C1111 C 0.83561 0.41691 0.6965 0.0
C1112 C 0.83855 0.40186 0.68931 0.0
C1113 C 0.83734 0.41955 0.71546 0.0
H1114 H 0.84798 0.38217 0.7277 0.0
H1115 H 0.83769 0.39991 0.67467 0.0
O1116 O 0.85747 0.33336 0.67392 0.0
O1117 O 0.85387 0.35352 0.70965 0.0
O1118 O 0.86711 0.3688 0.67565 0.0
O1119 O 0.83172 0.35841 0.675 0.0
H1120 H 0.85724 0.30287 0.68236 0.0
H1121 H 0.87834 0.33797 0.64712 0.0
H1122 H 0.87436 0.28249 0.66791 0.0
H1123 H 0.89519 0.31705 0.63342 0.0
H1124 H 0.81852 0.34455 0.75565 0.0
H1125 H 0.87065 0.33241 0.72825 0.0
H1126 H 0.82674 0.35834 0.72706 0.0
H1127 H 0.86171 0.31913 0.75688 0.0
H1128 H 0.91472 0.31364 0.70713 0.0
H1129 H 0.92177 0.36422 0.7124 0.0
H1130 H 0.78747 0.31945 0.7014 0.0
H1131 H 0.82651 0.2921 0.72325 0.0
H1132 H 0.86621 0.39918 0.66671 0.0
H1133 H 0.89354 0.35632 0.66204 0.0
H1134 H 0.88654 0.41311 0.64816 0.0
H1135 H 0.91327 0.37092 0.64338 0.0
H1136 H 0.82567 0.37496 0.64488 0.0
H1137 H 0.81148 0.36702 0.70098 0.0
H1138 H 0.80463 0.39536 0.64214 0.0
H1139 H 0.7907 0.38757 0.69728 0.0
H1140 H 0.84265 0.32962 0.60203 0.0
H1141 H 0.85893 0.37819 0.60017 0.0
H1142 H 0.84308 0.40836 0.7415 0.0
H1143 H 0.8325 0.42649 0.68726 0.0
Li1144 Li 0.64994 0.8689 0.69004 0.0
Li1145 Li 0.65666 0.84174 0.69101 0.0
Li1146 Li 0.64505 0.85363 0.66229 0.0
Li1147 Li 0.62931 0.84912 0.69119 0.0
C1148 C 0.67713 0.86918 0.67088 0.0
N1149 N 0.70012 0.89177 0.66402 0.0
C1150 C 0.68713 0.87429 0.68502 0.0
C1151 C 0.67886 0.87554 0.65324 0.0
C1152 C 0.69866 0.88573 0.68128 0.0
C1153 C 0.69055 0.88694 0.65005 0.0
C1154 C 0.65251 0.84741 0.72507 0.0
C1155 C 0.6552 0.82609 0.74695 0.0
N1156 N 0.66805 0.83345 0.75435 0.0
C1157 C 0.66572 0.85478 0.73292 0.0
C1158 C 0.64718 0.83297 0.73217 0.0
C1159 C 0.67341 0.84753 0.74771 0.0
C1160 C 0.65138 0.89292 0.71662 0.0
N1161 N 0.65464 0.88988 0.69866 0.0
C1162 C 0.66281 0.91673 0.69401 0.0
C1163 C 0.66 0.9015 0.68727 0.0
C1164 C 0.6598 0.92012 0.71261 0.0
C1165 C 0.65393 0.90797 0.72392 0.0
H1166 H 0.6465 0.88369 0.72523 0.0
H1167 H 0.66192 0.89903 0.67288 0.0
C1168 C 0.66736 0.81073 0.69937 0.0
N1169 N 0.67156 0.82628 0.69922 0.0
C1170 C 0.67789 0.79929 0.7059 0.0
C1171 C 0.69697 0.82004 0.71173 0.0
C1172 C 0.6861 0.83105 0.70503 0.0
C1173 C 0.69289 0.80392 0.7123 0.0
H1174 H 0.65579 0.80721 0.69454 0.0
H1175 H 0.6892 0.84343 0.70466 0.0
C1176 C 0.62433 0.88284 0.67687 0.0
N1177 N 0.61354 0.91344 0.68188 0.0
C1178 C 0.61552 0.88673 0.69251 0.0
C1179 C 0.6276 0.89449 0.66374 0.0
C1180 C 0.61019 0.90227 0.6948 0.0
C1181 C 0.62204 0.90989 0.66653 0.0
C1182 C 0.62781 0.82248 0.67177 0.0
C1183 C 0.62043 0.82179 0.65457 0.0
C1184 C 0.62275 0.81238 0.68584 0.0
C1185 C 0.60803 0.81108 0.65179 0.0
C1186 C 0.61029 0.80186 0.68252 0.0
N1187 N 0.60325 0.80144 0.6657 0.0
C1188 C 0.65576 0.84365 0.62786 0.0
C1189 C 0.63431 0.86176 0.62665 0.0
C1190 C 0.65633 0.84292 0.60871 0.0
N1191 N 0.64495 0.85305 0.63636 0.0
C1192 C 0.63449 0.86145 0.60746 0.0
C1193 C 0.64565 0.85197 0.59822 0.0
H1194 H 0.66398 0.83676 0.63602 0.0
H1195 H 0.6257 0.86895 0.63382 0.0
C1196 C 0.60614 0.84473 0.71862 0.0
N1197 N 0.60859 0.84471 0.70015 0.0
C1198 C 0.59105 0.84193 0.72572 0.0
C1199 C 0.5812 0.83925 0.69465 0.0
C1200 C 0.59647 0.8423 0.68814 0.0
C1201 C 0.57836 0.8391 0.71368 0.0
H1202 H 0.61588 0.84713 0.72785 0.0
H1203 H 0.59866 0.84283 0.67351 0.0
O1204 O 0.66584 0.85788 0.67418 0.0
O1205 O 0.64507 0.85411 0.71025 0.0
O1206 O 0.63004 0.8678 0.67467 0.0
O1207 O 0.63989 0.83299 0.6748 0.0
H1208 H 0.68579 0.86978 0.69883 0.0
H1209 H 0.67124 0.87178 0.64212 0.0
H1210 H 0.70638 0.88988 0.69213 0.0
H1211 H 0.69199 0.89198 0.63648 0.0
H1212 H 0.65126 0.81487 0.7525 0.0
H1213 H 0.67016 0.86585 0.7275 0.0
H1214 H 0.63707 0.82702 0.72619 0.0
H1215 H 0.6837 0.85306 0.75385 0.0
H1216 H 0.66731 0.92571 0.68477 0.0
H1217 H 0.651 0.91014 0.7382 0.0
H1218 H 0.67423 0.78699 0.70622 0.0
H1219 H 0.7085 0.8241 0.71627 0.0
H1220 H 0.61302 0.87789 0.70289 0.0
H1221 H 0.63462 0.89174 0.6517 0.0
H1222 H 0.60343 0.90548 0.70688 0.0
H1223 H 0.62458 0.91906 0.65655 0.0
H1224 H 0.62416 0.82947 0.6435 0.0
H1225 H 0.62821 0.81281 0.69927 0.0
H1226 H 0.60219 0.81047 0.63857 0.0
H1227 H 0.60619 0.79407 0.69333 0.0
H1228 H 0.66494 0.83523 0.60221 0.0
H1229 H 0.62613 0.86873 0.59997 0.0
H1230 H 0.58932 0.84192 0.74048 0.0
H1231 H 0.57166 0.8374 0.68492 0.0
Li1232 Li 0.12769 0.64804 0.68853 0.0
Li1233 Li 0.15525 0.65648 0.69192 0.0
Li1234 Li 0.14488 0.64478 0.66256 0.0
Li1235 Li 0.1494 0.62787 0.68942 0.0
C1236 C 0.12828 0.67705 0.67569 0.0
N1237 N 0.1061 0.701 0.6784 0.0
C1238 C 0.13051 0.68942 0.6882 0.0
C1239 C 0.11486 0.67693 0.66444 0.0
C1240 C 0.11915 0.70141 0.68938 0.0
C1241 C 0.10375 0.68912 0.66606 0.0
C1242 C 0.14753 0.64172 0.72666 0.0
C1243 C 0.16662 0.63278 0.74906 0.0
N1244 N 0.15745 0.63884 0.76274 0.0
C1245 C 0.13821 0.64771 0.74096 0.0
C1246 C 0.16178 0.63407 0.73076 0.0
C1247 C 0.14347 0.6462 0.75909 0.0
C1248 C 0.09448 0.64395 0.68913 0.0
N1249 N 0.10667 0.65238 0.69644 0.0
C1250 C 0.08885 0.66671 0.71582 0.0
C1251 C 0.10416 0.66361 0.70951 0.0
C1252 C 0.07601 0.6581 0.70863 0.0
C1253 C 0.07898 0.64667 0.69501 0.0
H1254 H 0.09681 0.63501 0.67885 0.0
H1255 H 0.11409 0.67008 0.71514 0.0
C1256 C 0.18008 0.67801 0.68978 0.0
N1257 N 0.16927 0.67188 0.70166 0.0
C1258 C 0.19103 0.68925 0.6958 0.0
C1259 C 0.17938 0.68782 0.72612 0.0
C1260 C 0.16859 0.67667 0.71948 0.0
C1261 C 0.19085 0.69424 0.71423 0.0
H1262 H 0.18021 0.67408 0.67562 0.0
H1263 H 0.15971 0.67187 0.72858 0.0
C1264 C 0.12537 0.6203 0.65846 0.0
N1265 N 0.11585 0.60356 0.62774 0.0
C1266 C 0.1311 0.605 0.65537 0.0
C1267 C 0.11467 0.62703 0.64603 0.0
C1268 C 0.12616 0.59673 0.63974 0.0
C1269 C 0.11005 0.6184 0.63055 0.0
C1270 C 0.18064 0.63574 0.67527 0.0
C1271 C 0.18705 0.62859 0.65961 0.0
C1272 C 0.1903 0.63836 0.69059 0.0
C1273 C 0.20292 0.62387 0.65968 0.0
C1274 C 0.20612 0.63349 0.69012 0.0
N1275 N 0.21204 0.62638 0.67481 0.0
C1276 C 0.14261 0.65931 0.62772 0.0
C1277 C 0.15104 0.63253 0.62702 0.0
C1278 C 0.14316 0.66014 0.60856 0.0
N1279 N 0.1464 0.64561 0.6365 0.0
C1280 C 0.15164 0.63278 0.60786 0.0
C1281 C 0.14761 0.6467 0.59839 0.0
H1282 H 0.13907 0.66958 0.6356 0.0
H1283 H 0.15412 0.62182 0.63435 0.0
C1284 C 0.14454 0.60112 0.71074 0.0
N1285 N 0.15463 0.60728 0.69807 0.0
C1286 C 0.14718 0.58605 0.71798 0.0
C1287 C 0.17055 0.58387 0.69892 0.0
C1288 C 0.16741 0.59899 0.692 0.0
C1289 C 0.16035 0.57721 0.71211 0.0
H1290 H 0.13438 0.60794 0.71516 0.0
H1291 H 0.17515 0.604 0.68173 0.0
O1292 O 0.13914 0.66507 0.67456 0.0
O1293 O 0.1425 0.64311 0.70883 0.0
O1294 O 0.1302 0.62864 0.67358 0.0
O1295 O 0.16513 0.64052 0.67535 0.0
H1296 H 0.14084 0.68969 0.697 0.0
H1297 H 0.11296 0.66743 0.65469 0.0
H1298 H 0.12067 0.71102 0.69906 0.0
H1299 H 0.09324 0.68912 0.65754 0.0
H1300 H 0.17764 0.62689 0.7524 0.0
H1301 H 0.12706 0.6535 0.7381 0.0
H1302 H 0.16895 0.629 0.71998 0.0
H1303 H 0.13641 0.65086 0.77027 0.0
H1304 H 0.08715 0.67548 0.7265 0.0
H1305 H 0.06943 0.63988 0.68893 0.0
H1306 H 0.19945 0.69407 0.68605 0.0
H1307 H 0.17886 0.6912 0.74047 0.0
H1308 H 0.13936 0.59959 0.66486 0.0
H1309 H 0.11014 0.63888 0.6482 0.0
H1310 H 0.13056 0.58491 0.63712 0.0
H1311 H 0.10188 0.62351 0.62074 0.0
H1312 H 0.17985 0.62663 0.64754 0.0
H1313 H 0.18575 0.64424 0.70267 0.0
H1314 H 0.20799 0.61823 0.64768 0.0
H1315 H 0.21369 0.63541 0.70191 0.0
H1316 H 0.13985 0.67107 0.60177 0.0
H1317 H 0.15533 0.62223 0.60054 0.0
H1318 H 0.13883 0.58129 0.72784 0.0
H1319 H 0.1809 0.57754 0.69408 0.0
Li1320 Li 0.34908 0.12882 0.68886 0.0
Li1321 Li 0.34136 0.15676 0.69005 0.0
Li1322 Li 0.35406 0.14558 0.6616 0.0
Li1323 Li 0.36915 0.15068 0.68965 0.0
C1324 C 0.32102 0.13093 0.66716 0.0
N1325 N 0.29595 0.11268 0.65486 0.0
C1326 C 0.30607 0.13241 0.67528 0.0
C1327 C 0.32311 0.12038 0.65254 0.0
C1328 C 0.29358 0.12302 0.66894 0.0
C1329 C 0.31033 0.11121 0.64658 0.0
C1330 C 0.34654 0.14823 0.72501 0.0
C1331 C 0.34146 0.16693 0.74939 0.0
N1332 N 0.33206 0.15606 0.75786 0.0
C1333 C 0.33692 0.1372 0.73403 0.0
C1334 C 0.34894 0.16317 0.73281 0.0
C1335 C 0.32968 0.1414 0.7506 0.0
C1336 C 0.35793 0.0991 0.70148 0.0
N1337 N 0.34494 0.10791 0.69735 0.0
C1338 C 0.32782 0.0867 0.7063 0.0
C1339 C 0.33005 0.10211 0.69977 0.0
C1340 C 0.34105 0.07724 0.71042 0.0
C1341 C 0.35627 0.08366 0.70797 0.0
H1342 H 0.36962 0.10414 0.69978 0.0
H1343 H 0.31989 0.10945 0.6969 0.0
C1344 C 0.32672 0.18655 0.69353 0.0
N1345 N 0.32574 0.17113 0.69878 0.0
C1346 C 0.31571 0.19757 0.69996 0.0
C1347 C 0.30278 0.17659 0.71691 0.0
C1348 C 0.31398 0.16597 0.71007 0.0
C1349 C 0.30358 0.19265 0.71191 0.0
H1350 H 0.33604 0.19029 0.68432 0.0
H1351 H 0.31339 0.15363 0.71393 0.0
C1352 C 0.37548 0.11981 0.66328 0.0
N1353 N 0.38854 0.09678 0.64089 0.0
C1354 C 0.39151 0.12048 0.6585 0.0
C1355 C 0.36618 0.10725 0.65694 0.0
C1356 C 0.39787 0.10878 0.64708 0.0
C1357 C 0.37297 0.09577 0.64557 0.0
C1358 C 0.36878 0.17819 0.67283 0.0
C1359 C 0.37783 0.18011 0.65689 0.0
C1360 C 0.37114 0.18835 0.68775 0.0
C1361 C 0.38929 0.19205 0.65625 0.0
C1362 C 0.38274 0.20012 0.6866 0.0
N1363 N 0.3915 0.20171 0.67101 0.0
C1364 C 0.34043 0.14918 0.62661 0.0
C1365 C 0.36799 0.14382 0.62609 0.0
C1366 C 0.33993 0.14947 0.60744 0.0
N1367 N 0.35427 0.14615 0.63549 0.0
C1368 C 0.36805 0.14405 0.6069 0.0
C1369 C 0.35386 0.14679 0.59731 0.0
H1370 H 0.32975 0.15128 0.63445 0.0
H1371 H 0.37894 0.14199 0.63347 0.0
C1372 C 0.39156 0.15737 0.71729 0.0
N1373 N 0.38948 0.1563 0.69881 0.0
C1374 C 0.40649 0.16073 0.72454 0.0
C1375 C 0.41686 0.16194 0.69358 0.0
C1376 C 0.40171 0.15858 0.68694 0.0
C1377 C 0.41944 0.16288 0.71265 0.0
H1378 H 0.38169 0.15536 0.72644 0.0
H1379 H 0.39974 0.15756 0.6723 0.0
O1380 O 0.33336 0.14011 0.67318 0.0
O1381 O 0.35364 0.14435 0.7087 0.0
O1382 O 0.36908 0.13121 0.67445 0.0
O1383 O 0.35768 0.1664 0.67382 0.0
H1384 H 0.30413 0.14064 0.68642 0.0
H1385 H 0.33441 0.11943 0.64566 0.0
H1386 H 0.28199 0.12396 0.6752 0.0
H1387 H 0.31182 0.10298 0.63531 0.0
H1388 H 0.34312 0.1785 0.75551 0.0
H1389 H 0.33501 0.12555 0.72827 0.0
H1390 H 0.35638 0.17183 0.72607 0.0
H1391 H 0.32215 0.13301 0.75768 0.0
H1392 H 0.31589 0.08221 0.70799 0.0
H1393 H 0.36679 0.07691 0.71134 0.0
H1394 H 0.31662 0.20977 0.69547 0.0
H1395 H 0.29375 0.17229 0.72624 0.0
H1396 H 0.39896 0.12998 0.66346 0.0
H1397 H 0.35391 0.10623 0.66094 0.0
H1398 H 0.41023 0.10923 0.64317 0.0
H1399 H 0.36587 0.08601 0.64055 0.0
H1400 H 0.3761 0.17242 0.64518 0.0
H1401 H 0.36418 0.18708 0.70014 0.0
H1402 H 0.39644 0.19362 0.64405 0.0
H1403 H 0.38477 0.20799 0.6981 0.0
H1404 H 0.3287 0.15152 0.60064 0.0
H1405 H 0.37914 0.1423 0.59968 0.0
H1406 H 0.40789 0.16153 0.73931 0.0
H1407 H 0.42653 0.16329 0.68391 0.0
H1408 H 0.30006 0.22373 0.29023 0.0
H1409 H 0.28022 0.24166 0.27726 0.0
H1410 H 0.25775 0.20231 0.24986 0.0
H1411 H 0.27778 0.18432 0.26243 0.0
H1412 H 0.26298 0.22928 0.22722 0.0
H1413 H 0.23327 0.24488 0.29292 0.0
H1414 H 0.25441 0.24744 0.29305 0.0
H1415 H 0.24616 0.22792 0.29063 0.0
C1416 C 0.29093 0.2189 0.28138 0.0
C1417 C 0.29045 0.20261 0.27739 0.0
C1418 C 0.27954 0.22913 0.27414 0.0
C1419 C 0.26743 0.22325 0.26283 0.0
C1420 C 0.26696 0.20703 0.25869 0.0
H1421 H 0.18342 0.27507 0.2287 0.0
H1422 H 0.20183 0.25509 0.24044 0.0
C1423 C 0.27833 0.19677 0.26597 0.0
C1424 C 0.25549 0.23411 0.25497 0.0
H1425 H 0.22631 0.2602 0.26669 0.0
C1426 C 0.25489 0.23599 0.23581 0.0
C1427 C 0.24487 0.24268 0.26625 0.0
C1428 C 0.24456 0.24056 0.28685 0.0
C1429 C 0.24417 0.24656 0.22763 0.0
C1430 C 0.23395 0.25554 0.23896 0.0
C1431 C 0.23428 0.25337 0.25808 0.0
C1432 C 0.22289 0.26738 0.23128 0.0
C1433 C 0.24378 0.24797 0.20696 0.0
C1434 C 0.22869 0.28092 0.22235 0.0
C1435 C 0.21823 0.29242 0.21577 0.0
C1436 C 0.20178 0.2906 0.21807 0.0
C1437 C 0.19603 0.27694 0.22693 0.0
C1438 C 0.2065 0.26547 0.23355 0.0
H1439 H 0.24953 0.23767 0.20017 0.0
H1440 H 0.2314 0.24895 0.20191 0.0
H1441 H 0.25024 0.25884 0.20276 0.0
H1442 H 0.24133 0.28273 0.22079 0.0
H1443 H 0.22305 0.30292 0.20927 0.0
H1444 H 0.77173 0.31004 0.28125 0.0
H1445 H 0.75256 0.29117 0.26863 0.0
H1446 H 0.79052 0.25874 0.256 0.0
H1447 H 0.80976 0.27755 0.26846 0.0
H1448 H 0.75099 0.27804 0.233 0.0
H1449 H 0.7596 0.23166 0.28625 0.0
H1450 H 0.76652 0.25175 0.28914 0.0
H1451 H 0.77752 0.23804 0.27519 0.0
C1452 C 0.776 0.29893 0.27567 0.0
C1453 C 0.79225 0.29523 0.27596 0.0
C1454 C 0.76504 0.28815 0.26855 0.0
C1455 C 0.77012 0.27348 0.26168 0.0
C1456 C 0.78634 0.26986 0.26164 0.0
H1457 H 0.72355 0.19236 0.21281 0.0
H1458 H 0.74262 0.21188 0.22425 0.0
C1459 C 0.7973 0.28061 0.26877 0.0
C1460 C 0.75847 0.26202 0.25434 0.0
H1461 H 0.74384 0.22469 0.26047 0.0
C1462 C 0.74935 0.2664 0.23903 0.0
C1463 C 0.75641 0.24687 0.26228 0.0
C1464 C 0.76542 0.2418 0.27922 0.0
C1465 C 0.73839 0.25587 0.23122 0.0
C1466 C 0.73638 0.2407 0.23912 0.0
C1467 C 0.74548 0.23633 0.25444 0.0
C1468 C 0.72483 0.22917 0.23175 0.0
C1469 C 0.72927 0.26093 0.21436 0.0
C1470 C 0.70855 0.23243 0.23233 0.0
C1471 C 0.69764 0.22134 0.22577 0.0
C1472 C 0.70285 0.20678 0.21856 0.0
C1473 C 0.71919 0.20355 0.21805 0.0
C1474 C 0.73008 0.21463 0.22467 0.0
H1475 H 0.73484 0.2713 0.2075 0.0
H1476 H 0.72843 0.25107 0.2043 0.0
H1477 H 0.71706 0.26431 0.21844 0.0
H1478 H 0.70426 0.24349 0.23802 0.0
H1479 H 0.68514 0.22421 0.22622 0.0
H1480 H 0.81171 0.71817 0.24007 0.0
H1481 H 0.79238 0.73692 0.25243 0.0
H1482 H 0.75664 0.71797 0.21619 0.0
H1483 H 0.77564 0.69867 0.20439 0.0
H1484 H 0.77571 0.76012 0.23488 0.0
H1485 H 0.7345 0.71625 0.26554 0.0
H1486 H 0.75412 0.711 0.25779 0.0
H1487 H 0.73817 0.71296 0.24154 0.0
C1488 C 0.79967 0.71782 0.23492 0.0
C1489 C 0.7952 0.70683 0.22133 0.0
C1490 C 0.78868 0.72862 0.2419 0.0
C1491 C 0.77302 0.72865 0.23545 0.0
C1492 C 0.76858 0.71792 0.22165 0.0
H1493 H 0.69107 0.78805 0.25429 0.0
H1494 H 0.71071 0.76933 0.24226 0.0
C1495 C 0.77953 0.70704 0.21473 0.0
C1496 C 0.76142 0.74013 0.2429 0.0
H1497 H 0.72545 0.74294 0.26416 0.0
C1498 C 0.76477 0.75637 0.24138 0.0
C1499 C 0.74717 0.73518 0.25142 0.0
C1500 C 0.74332 0.7179 0.25435 0.0
C1501 C 0.7541 0.76782 0.24787 0.0
C1502 C 0.73979 0.76285 0.25613 0.0
C1503 C 0.73643 0.74665 0.25771 0.0
C1504 C 0.72814 0.77433 0.26327 0.0
C1505 C 0.75802 0.78515 0.2456 0.0
C1506 C 0.73149 0.78319 0.2791 0.0
C1507 C 0.72031 0.79383 0.28603 0.0
C1508 C 0.70564 0.7958 0.27716 0.0
C1509 C 0.70235 0.7869 0.26127 0.0
C1510 C 0.71349 0.77618 0.25445 0.0
H1511 H 0.76822 0.78704 0.23619 0.0
H1512 H 0.74761 0.79173 0.2402 0.0
H1513 H 0.76107 0.79026 0.25921 0.0
H1514 H 0.74271 0.78179 0.28615 0.0
H1515 H 0.72319 0.80063 0.29822 0.0
H1516 H 0.29012 0.78103 0.19335 0.0
H1517 H 0.27058 0.76209 0.20509 0.0
H1518 H 0.2765 0.781 0.25974 0.0
H1519 H 0.29576 0.8002 0.24808 0.0
H1520 H 0.27522 0.73892 0.23345 0.0
H1521 H 0.22805 0.78231 0.25096 0.0
H1522 H 0.24432 0.78704 0.23579 0.0
H1523 H 0.24727 0.78676 0.26025 0.0
C1524 C 0.28713 0.78127 0.20783 0.0
C1525 C 0.29443 0.79214 0.21979 0.0
C1526 C 0.27605 0.77039 0.21452 0.0
C1527 C 0.27199 0.77031 0.23321 0.0
C1528 C 0.27932 0.78106 0.24521 0.0
H1529 H 0.20909 0.71543 0.30206 0.0
H1530 H 0.22833 0.73418 0.28939 0.0
C1531 C 0.29043 0.7919 0.23856 0.0
C1532 C 0.26032 0.75877 0.24028 0.0
H1533 H 0.22418 0.75587 0.26104 0.0
C1534 C 0.26401 0.74258 0.2394 0.0
C1535 C 0.24576 0.76365 0.24804 0.0
C1536 C 0.24099 0.78087 0.24872 0.0
C1537 C 0.25363 0.73111 0.24648 0.0
C1538 C 0.23908 0.73599 0.25429 0.0
C1539 C 0.23536 0.75219 0.25506 0.0
C1540 C 0.22755 0.72451 0.26185 0.0
C1541 C 0.25853 0.71391 0.24597 0.0
C1542 C 0.22062 0.71299 0.2505 0.0
C1543 C 0.20963 0.70228 0.25769 0.0
C1544 C 0.20526 0.70301 0.27633 0.0
C1545 C 0.21211 0.71467 0.28762 0.0
C1546 C 0.22314 0.72533 0.28042 0.0
H1547 H 0.27152 0.71258 0.24401 0.0
H1548 H 0.25506 0.70774 0.25884 0.0
H1549 H 0.2525 0.70796 0.2343 0.0
H1550 H 0.22359 0.7124 0.23602 0.0
H1551 H 0.20435 0.6936 0.24859 0.0
H1552 H 0.71167 0.80637 0.74277 0.0
H1553 H 0.73079 0.78702 0.75434 0.0
H1554 H 0.71883 0.7553 0.70997 0.0
H1555 H 0.69969 0.77463 0.69824 0.0
H1556 H 0.72018 0.74051 0.74431 0.0
H1557 H 0.77392 0.77673 0.73126 0.0
H1558 H 0.75907 0.78664 0.74471 0.0
H1559 H 0.75489 0.78135 0.72126 0.0
C1560 C 0.71322 0.79534 0.73537 0.0
C1561 C 0.70426 0.79206 0.71951 0.0
C1562 C 0.72414 0.78431 0.742 0.0
C1563 C 0.72639 0.76987 0.73282 0.0
C1564 C 0.71729 0.76643 0.71718 0.0
H1565 H 0.80485 0.70494 0.75027 0.0
H1566 H 0.78541 0.72329 0.73725 0.0
C1567 C 0.70633 0.77744 0.71056 0.0
C1568 C 0.73809 0.75825 0.73971 0.0
H1569 H 0.7774 0.75342 0.74917 0.0
C1570 C 0.73271 0.74328 0.74531 0.0
C1571 C 0.75443 0.76186 0.74074 0.0
C1572 C 0.76098 0.77746 0.73401 0.0
C1573 C 0.74322 0.7319 0.75231 0.0
C1574 C 0.75947 0.73574 0.75399 0.0
C1575 C 0.7649 0.75058 0.74802 0.0
C1576 C 0.77108 0.7245 0.76189 0.0
C1577 C 0.73687 0.71583 0.75762 0.0
C1578 C 0.76954 0.71928 0.78011 0.0
C1579 C 0.78063 0.70884 0.7876 0.0
C1580 C 0.79354 0.70354 0.77702 0.0
C1581 C 0.79512 0.70893 0.75882 0.0
C1582 C 0.784 0.71934 0.75133 0.0
H1583 H 0.72527 0.71336 0.75098 0.0
H1584 H 0.74531 0.70629 0.75379 0.0
H1585 H 0.73512 0.71542 0.77274 0.0
H1586 H 0.75986 0.72343 0.78862 0.0
H1587 H 0.77925 0.7051 0.80176 0.0
H1588 H 0.18604 0.71848 0.73873 0.0
H1589 H 0.20554 0.73739 0.75031 0.0
H1590 H 0.24149 0.71604 0.71621 0.0
H1591 H 0.22229 0.69655 0.70527 0.0
H1592 H 0.25206 0.72127 0.75063 0.0
H1593 H 0.22325 0.77557 0.72382 0.0
H1594 H 0.21039 0.764 0.73816 0.0
H1595 H 0.21736 0.75595 0.71672 0.0
C1596 C 0.19812 0.7177 0.73379 0.0
C1597 C 0.20257 0.70601 0.72101 0.0
C1598 C 0.2092 0.72868 0.74023 0.0
C1599 C 0.22488 0.72832 0.73384 0.0
C1600 C 0.2294 0.71661 0.72119 0.0
H1601 H 0.294 0.80344 0.74982 0.0
H1602 H 0.2751 0.78435 0.73712 0.0
C1603 C 0.21837 0.70557 0.71484 0.0
C1604 C 0.23672 0.73982 0.74077 0.0
H1605 H 0.24431 0.77935 0.74522 0.0
C1606 C 0.25042 0.73397 0.74936 0.0
C1607 C 0.23466 0.75637 0.73885 0.0
C1608 C 0.2207 0.76336 0.72872 0.0
C1609 C 0.26199 0.74424 0.75639 0.0
C1610 C 0.25959 0.7608 0.75521 0.0
C1611 C 0.24604 0.76665 0.74631 0.0
C1612 C 0.27105 0.77229 0.76297 0.0
C1613 C 0.2768 0.73723 0.76472 0.0
C1614 C 0.27487 0.77198 0.78175 0.0
C1615 C 0.28572 0.78279 0.789 0.0
C1616 C 0.29274 0.79429 0.77764 0.0
C1617 C 0.28868 0.79478 0.75891 0.0
C1618 C 0.27793 0.78386 0.75164 0.0
H1619 H 0.27893 0.72497 0.75972 0.0
H1620 H 0.28737 0.74456 0.76149 0.0
H1621 H 0.27545 0.73672 0.77988 0.0
H1622 H 0.26936 0.76343 0.79085 0.0
H1623 H 0.28845 0.78232 0.80354 0.0
H1624 H 0.18705 0.27278 0.77853 0.0
H1625 H 0.20611 0.25383 0.76591 0.0
H1626 H 0.24146 0.29061 0.76297 0.0
H1627 H 0.22242 0.30977 0.77514 0.0
H1628 H 0.22363 0.25708 0.73084 0.0
H1629 H 0.26235 0.25325 0.79261 0.0
H1630 H 0.24217 0.26034 0.79369 0.0
H1631 H 0.25752 0.27287 0.78474 0.0
C1632 C 0.19883 0.27689 0.77505 0.0
C1633 C 0.20321 0.2928 0.77788 0.0
C1634 C 0.20971 0.26603 0.76795 0.0
C1635 C 0.22519 0.27083 0.76373 0.0
C1636 C 0.22962 0.28666 0.76645 0.0
H1637 H 0.30898 0.22308 0.72336 0.0
H1638 H 0.28966 0.24213 0.73511 0.0
C1639 C 0.21874 0.29756 0.77345 0.0
C1640 C 0.23664 0.25934 0.75616 0.0
H1641 H 0.27108 0.23994 0.76588 0.0
C1642 C 0.23399 0.25326 0.73848 0.0
C1643 C 0.25013 0.25451 0.76619 0.0
C1644 C 0.25324 0.26045 0.78543 0.0
C1645 C 0.24468 0.24261 0.7304 0.0
C1646 C 0.25814 0.23766 0.74049 0.0
C1647 C 0.26075 0.24376 0.75819 0.0
C1648 C 0.26968 0.22617 0.73295 0.0
C1649 C 0.24167 0.23708 0.71097 0.0
C1650 C 0.26485 0.21085 0.72799 0.0
C1651 C 0.27582 0.2 0.72105 0.0
C1652 C 0.29187 0.20421 0.71915 0.0
C1653 C 0.29668 0.21953 0.72434 0.0
C1654 C 0.28568 0.23039 0.7312 0.0
H1655 H 0.23358 0.24523 0.7035 0.0
H1656 H 0.25291 0.23609 0.70312 0.0
H1657 H 0.236 0.22522 0.71135 0.0
H1658 H 0.25262 0.20724 0.7296 0.0
H1659 H 0.27169 0.18835 0.71705 0.0
H1660 H 0.71787 0.20528 0.80271 0.0
H1661 H 0.73687 0.2248 0.79104 0.0
H1662 H 0.71399 0.22367 0.73804 0.0
H1663 H 0.69478 0.20439 0.74967 0.0
H1664 H 0.75768 0.22103 0.75966 0.0
H1665 H 0.71581 0.27145 0.75197 0.0
H1666 H 0.71148 0.25439 0.76611 0.0
H1667 H 0.70958 0.25316 0.74155 0.0
C1668 C 0.71679 0.20932 0.78863 0.0
C1669 C 0.70481 0.20336 0.77712 0.0
C1670 C 0.72769 0.22038 0.78198 0.0
C1671 C 0.72668 0.22577 0.76377 0.0
C1672 C 0.71481 0.21979 0.75221 0.0
H1673 H 0.77942 0.29166 0.69642 0.0
H1674 H 0.76063 0.27237 0.70891 0.0
C1675 C 0.70395 0.20869 0.75882 0.0
C1676 C 0.73828 0.23739 0.75673 0.0
H1677 H 0.7416 0.27492 0.73976 0.0
C1678 C 0.75422 0.23285 0.75539 0.0
C1679 C 0.73364 0.25274 0.75114 0.0
C1680 C 0.71672 0.25834 0.75287 0.0
C1681 C 0.76567 0.2432 0.74821 0.0
C1682 C 0.76104 0.25857 0.74262 0.0
C1683 C 0.74509 0.26312 0.74405 0.0
C1684 C 0.77254 0.27013 0.73513 0.0
C1685 C 0.78251 0.23744 0.74623 0.0
C1686 C 0.78534 0.27538 0.74583 0.0
C1687 C 0.79608 0.28638 0.73874 0.0
C1688 C 0.79411 0.29245 0.72088 0.0
C1689 C 0.78117 0.2873 0.71027 0.0
C1690 C 0.77047 0.27624 0.71735 0.0
H1691 H 0.78321 0.22429 0.7465 0.0
H1692 H 0.78787 0.24175 0.73322 0.0
H1693 H 0.78969 0.24204 0.75785 0.0
H1694 H 0.78692 0.27109 0.75975 0.0
H1695 H 0.80578 0.29034 0.74734 0.0
H1696 H 0.16289 0.37146 0.9239 0.0
H1697 H 0.16342 0.3707 0.95754 0.0
H1698 H 0.12789 0.33395 0.95726 0.0
H1699 H 0.12739 0.33455 0.92363 0.0
H1700 H 0.13948 0.37634 0.98211 0.0
H1701 H 0.16181 0.31489 0.99003 0.0
H1702 H 0.16233 0.32529 0.96836 0.0
H1703 H 0.14425 0.31626 0.97622 0.0
C1704 C 0.15517 0.36325 0.93102 0.0
C1705 C 0.14515 0.35301 0.92114 0.0
C1706 C 0.15553 0.36278 0.95022 0.0
C1707 C 0.1459 0.35207 0.95987 0.0
C1708 C 0.13572 0.342 0.95006 0.0
H1709 H 0.126 0.33549 0.07512 0.0
H1710 H 0.12604 0.33597 0.04143 0.0
C1711 C 0.13542 0.34239 0.93086 0.0
C1712 C 0.1462 0.35177 0.98023 0.0
H1713 H 0.15262 0.32765 0.0172 0.0
C1714 C 0.14244 0.36573 0.98979 0.0
C1715 C 0.15008 0.3379 0.99019 0.0
C1716 C 0.155 0.32277 0.98069 0.0
C1717 C 0.1422 0.36611 0.00907 0.0
C1718 C 0.14593 0.35221 0.01899 0.0
C1719 C 0.14971 0.33826 0.00948 0.0
C1720 C 0.14601 0.35193 0.0393 0.0
C1721 C 0.13766 0.38128 0.01871 0.0
C1722 C 0.15734 0.36062 0.04915 0.0
C1723 C 0.15735 0.36038 0.06835 0.0
C1724 C 0.14601 0.35144 0.07801 0.0
C1725 C 0.13475 0.34264 0.06806 0.0
C1726 C 0.13481 0.34283 0.04885 0.0
H1727 H 0.13203 0.3899 0.00919 0.0
H1728 H 0.12938 0.37883 0.03023 0.0
H1729 H 0.14846 0.38685 0.02454 0.0
H1730 H 0.16619 0.36757 0.04197 0.0
H1731 H 0.16609 0.36737 0.07564 0.0
H1732 H 0.62932 0.16615 0.92281 0.0
H1733 H 0.62977 0.16613 0.95645 0.0
H1734 H 0.66297 0.12732 0.95598 0.0
H1735 H 0.66237 0.12699 0.92236 0.0
H1736 H 0.62219 0.13945 0.98023 0.0
H1737 H 0.68371 0.16167 0.98957 0.0
H1738 H 0.67291 0.16403 0.9683 0.0
H1739 H 0.68145 0.1452 0.9741 0.0
C1740 C 0.63664 0.15753 0.92984 0.0
C1741 C 0.64583 0.14658 0.91988 0.0
C1742 C 0.63695 0.15761 0.94905 0.0
C1743 C 0.64654 0.14686 0.95862 0.0
C1744 C 0.65571 0.1359 0.94879 0.0
H1745 H 0.66491 0.12844 0.07386 0.0
H1746 H 0.66458 0.12856 0.04024 0.0
C1747 C 0.65538 0.13577 0.92958 0.0
C1748 C 0.64659 0.14678 0.97894 0.0
H1749 H 0.67013 0.15329 0.01633 0.0
C1750 C 0.63263 0.14253 0.98817 0.0
C1751 C 0.66027 0.15073 0.98915 0.0
C1752 C 0.67543 0.15579 0.97984 0.0
C1753 C 0.63205 0.14188 0.00743 0.0
C1754 C 0.64571 0.14595 0.01768 0.0
C1755 C 0.65968 0.15019 0.00842 0.0
C1756 C 0.64576 0.14587 0.03804 0.0
C1757 C 0.61694 0.13647 0.0166 0.0
C1758 C 0.63542 0.1557 0.04793 0.0
C1759 C 0.63545 0.15553 0.06713 0.0
C1760 C 0.64595 0.14564 0.07682 0.0
C1761 C 0.65648 0.136 0.06684 0.0
C1762 C 0.6564 0.13613 0.04763 0.0
H1763 H 0.60927 0.12969 0.00698 0.0
H1764 H 0.6195 0.12893 0.02875 0.0
H1765 H 0.61018 0.14698 0.02131 0.0
H1766 H 0.62733 0.16354 0.04079 0.0
H1767 H 0.62709 0.16301 0.07437 0.0
H1768 H 0.87338 0.63299 0.92536 0.0
H1769 H 0.87231 0.63348 0.95897 0.0
H1770 H 0.82818 0.65918 0.9567 0.0
H1771 H 0.82921 0.65882 0.92306 0.0
H1772 H 0.84899 0.67182 0.98162 0.0
H1773 H 0.84369 0.60692 0.99171 0.0
H1774 H 0.86059 0.61248 0.97817 0.0
H1775 H 0.84094 0.61623 0.9696 0.0
C1776 C 0.86338 0.63862 0.93203 0.0
C1777 C 0.85134 0.6458 0.92158 0.0
C1778 C 0.86277 0.63886 0.95122 0.0
C1779 C 0.85002 0.64612 0.96031 0.0
C1780 C 0.83809 0.65347 0.94993 0.0
H1781 H 0.82877 0.6338 0.07642 0.0
H1782 H 0.82786 0.63429 0.04283 0.0
C1783 C 0.83873 0.6533 0.93074 0.0
C1784 C 0.84931 0.64632 0.98065 0.0
H1785 H 0.84913 0.62232 0.01842 0.0
C1786 C 0.84893 0.66101 0.98968 0.0
C1787 C 0.84899 0.63219 0.99111 0.0
C1788 C 0.84841 0.61606 0.98217 0.0
C1789 C 0.8486 0.66196 0.00894 0.0
C1790 C 0.84899 0.64783 0.01941 0.0
C1791 C 0.84901 0.63314 0.01036 0.0
C1792 C 0.84937 0.64799 0.03977 0.0
C1793 C 0.84761 0.67807 0.01787 0.0
C1794 C 0.86183 0.65543 0.04917 0.0
C1795 C 0.86229 0.65534 0.06837 0.0
C1796 C 0.85037 0.64765 0.07854 0.0
C1797 C 0.83799 0.64007 0.06904 0.0
C1798 C 0.83751 0.64023 0.04984 0.0
H1799 H 0.84282 0.68711 0.00825 0.0
H1800 H 0.84 0.67775 0.03033 0.0
H1801 H 0.85966 0.68189 0.02204 0.0
H1802 H 0.87129 0.66121 0.04166 0.0
H1803 H 0.87192 0.66142 0.07523 0.0
H1804 H 0.37533 0.84138 0.07523 0.0
H1805 H 0.37523 0.8412 0.04159 0.0
H1806 H 0.33079 0.86641 0.04146 0.0
H1807 H 0.33069 0.86651 0.0751 0.0
H1808 H 0.35183 0.82822 0.01795 0.0
H1809 H 0.35935 0.893 0.0073 0.0
H1810 H 0.36335 0.88348 0.02905 0.0
H1811 H 0.34329 0.88752 0.02223 0.0
C1812 C 0.36549 0.84681 0.06805 0.0
C1813 C 0.35303 0.85399 0.07784 0.0
C1814 C 0.36549 0.84676 0.04885 0.0
C1815 C 0.35311 0.85397 0.03908 0.0
C1816 C 0.34062 0.86107 0.04876 0.0
H1817 H 0.3322 0.86514 0.92299 0.0
H1818 H 0.33157 0.86511 0.95663 0.0
C1819 C 0.34059 0.86113 0.06798 0.0
C1820 C 0.3531 0.85369 0.01874 0.0
H1821 H 0.35423 0.87749 0.98081 0.0
C1822 C 0.35241 0.83897 0.0098 0.0
C1823 C 0.35381 0.86776 0.00821 0.0
C1824 C 0.35512 0.88385 0.01714 0.0
C1825 C 0.35219 0.83795 0.99055 0.0
C1826 C 0.35298 0.85201 0.98001 0.0
C1827 C 0.35361 0.86673 0.98896 0.0
C1828 C 0.35327 0.85172 0.95967 0.0
C1829 C 0.3508 0.82185 0.98166 0.0
C1830 C 0.36576 0.84431 0.95027 0.0
C1831 C 0.3661 0.84421 0.93107 0.0
C1832 C 0.35399 0.85161 0.92091 0.0
C1833 C 0.34156 0.85912 0.9304 0.0
C1834 C 0.34124 0.85922 0.94961 0.0
H1835 H 0.34616 0.81284 0.99141 0.0
H1836 H 0.3429 0.82229 0.96947 0.0
H1837 H 0.3627 0.81792 0.97703 0.0
H1838 H 0.3753 0.83869 0.9578 0.0
H1839 H 0.37577 0.83821 0.92418 0.0
H1840 H 0.13625 0.62439 0.57464 0.0
H1841 H 0.13653 0.62515 0.54097 0.0
H1842 H 0.15941 0.67081 0.54247 0.0
H1843 H 0.15938 0.67006 0.57617 0.0
H1844 H 0.12254 0.65027 0.51813 0.0
H1845 H 0.18744 0.64259 0.50775 0.0
H1846 H 0.17761 0.6371 0.52889 0.0
H1847 H 0.18141 0.65757 0.5239 0.0
C1848 C 0.1415 0.63451 0.56779 0.0
C1849 C 0.14786 0.64714 0.57802 0.0
C1850 C 0.14157 0.63496 0.5486 0.0
C1851 C 0.14813 0.64796 0.53932 0.0
C1852 C 0.15446 0.6606 0.54944 0.0
H1853 H 0.16037 0.66882 0.42302 0.0
H1854 H 0.16087 0.66937 0.45669 0.0
C1855 C 0.15432 0.66021 0.56865 0.0
C1856 C 0.14796 0.64843 0.51902 0.0
H1857 H 0.17192 0.64711 0.48125 0.0
C1858 C 0.13331 0.64957 0.51002 0.0
C1859 C 0.16206 0.64762 0.50859 0.0
C1860 C 0.17805 0.64604 0.51769 0.0
C1861 C 0.13238 0.65002 0.49077 0.0
C1862 C 0.14647 0.64891 0.4803 0.0
C1863 C 0.16114 0.64793 0.48933 0.0
C1864 C 0.14622 0.64851 0.45995 0.0
C1865 C 0.11635 0.65197 0.48186 0.0
C1866 C 0.13805 0.63644 0.45066 0.0
C1867 C 0.13772 0.63612 0.43147 0.0
C1868 C 0.14573 0.64775 0.42121 0.0
C1869 C 0.15418 0.65965 0.43055 0.0
C1870 C 0.15442 0.66001 0.44977 0.0
H1871 H 0.10759 0.6572 0.49152 0.0
H1872 H 0.1171 0.65962 0.46947 0.0
H1873 H 0.11185 0.64018 0.4776 0.0
H1874 H 0.132 0.62721 0.45825 0.0
H1875 H 0.13137 0.62664 0.42465 0.0
H1876 H 0.33746 0.16676 0.57448 0.0
H1877 H 0.33684 0.16653 0.54085 0.0
H1878 H 0.3692 0.127 0.54027 0.0
H1879 H 0.36969 0.12694 0.57389 0.0
H1880 H 0.37725 0.15275 0.51602 0.0
H1881 H 0.31489 0.13258 0.50802 0.0
H1882 H 0.31778 0.1493 0.52297 0.0
H1883 H 0.32577 0.13034 0.52925 0.0
C1884 C 0.3443 0.15789 0.56722 0.0
C1885 C 0.35358 0.14683 0.57689 0.0
C1886 C 0.34395 0.1578 0.54801 0.0
C1887 C 0.35284 0.14664 0.53814 0.0
C1888 C 0.36224 0.1357 0.54769 0.0
H1889 H 0.34796 0.12093 0.42303 0.0
H1890 H 0.34824 0.12129 0.45671 0.0
C1891 C 0.36257 0.13574 0.56689 0.0
C1892 C 0.35256 0.14652 0.51782 0.0
H1893 H 0.32844 0.14014 0.48087 0.0
C1894 C 0.36659 0.14999 0.50831 0.0
C1895 C 0.33866 0.14277 0.50788 0.0
C1896 C 0.32342 0.1384 0.51749 0.0
C1897 C 0.36706 0.14999 0.48903 0.0
C1898 C 0.35308 0.14655 0.47909 0.0
C1899 C 0.33909 0.14289 0.48859 0.0
C1900 C 0.35283 0.14644 0.45877 0.0
C1901 C 0.38252 0.15345 0.47941 0.0
C1902 C 0.35515 0.16051 0.44886 0.0
C1903 C 0.35502 0.16034 0.42965 0.0
C1904 C 0.35257 0.14608 0.42005 0.0
C1905 C 0.35009 0.13204 0.43005 0.0
C1906 C 0.35015 0.13224 0.44926 0.0
H1907 H 0.39279 0.15256 0.48892 0.0
H1908 H 0.38438 0.14515 0.46776 0.0
H1909 H 0.3822 0.16566 0.47378 0.0
H1910 H 0.35705 0.17161 0.456 0.0
H1911 H 0.35707 0.17132 0.42232 0.0
H1912 H 0.83039 0.36485 0.42299 0.0
H1913 H 0.82968 0.36485 0.4566 0.0
H1914 H 0.87298 0.33774 0.45796 0.0
H1915 H 0.87349 0.33718 0.42435 0.0
H1916 H 0.85011 0.32649 0.48205 0.0
H1917 H 0.85841 0.39141 0.48976 0.0
H1918 H 0.84197 0.38595 0.47542 0.0
H1919 H 0.86182 0.3812 0.46832 0.0
C1920 C 0.83969 0.35876 0.43043 0.0
C1921 C 0.85205 0.35108 0.42098 0.0
C1922 C 0.83935 0.35892 0.44963 0.0
C1923 C 0.85143 0.35153 0.45974 0.0
C1924 C 0.86362 0.34362 0.45039 0.0
H1925 H 0.87354 0.36503 0.5749 0.0
H1926 H 0.87355 0.36405 0.54128 0.0
C1927 C 0.86396 0.34342 0.43119 0.0
C1928 C 0.85131 0.35192 0.48008 0.0
H1929 H 0.85239 0.37699 0.51688 0.0
C1930 C 0.85063 0.33752 0.4897 0.0
C1931 C 0.85221 0.36632 0.48997 0.0
C1932 C 0.85379 0.3821 0.48038 0.0
C1933 C 0.85065 0.33713 0.50899 0.0
C1934 C 0.85107 0.35156 0.51887 0.0
C1935 C 0.85192 0.36595 0.50925 0.0
C1936 C 0.85097 0.35201 0.53922 0.0
C1937 C 0.85055 0.32128 0.51859 0.0
C1938 C 0.83819 0.34573 0.54918 0.0
C1939 C 0.83816 0.34625 0.56839 0.0
C1940 C 0.85084 0.35324 0.57795 0.0
C1941 C 0.86353 0.3597 0.56791 0.0
C1942 C 0.86358 0.3591 0.54873 0.0
H1943 H 0.85446 0.31158 0.5093 0.0
H1944 H 0.85838 0.32142 0.53086 0.0
H1945 H 0.83832 0.31855 0.52321 0.0
H1946 H 0.82816 0.34055 0.5421 0.0
H1947 H 0.82811 0.34141 0.57574 0.0
H1948 H 0.62069 0.85216 0.57408 0.0
H1949 H 0.62173 0.85199 0.54052 0.0
H1950 H 0.67278 0.85009 0.54251 0.0
H1951 H 0.67189 0.85104 0.57606 0.0
H1952 H 0.66232 0.87158 0.51768 0.0
H1953 H 0.63111 0.81444 0.50764 0.0
H1954 H 0.6199 0.82836 0.52101 0.0
H1955 H 0.63835 0.82081 0.52979 0.0
C1956 C 0.63215 0.85184 0.5674 0.0
C1957 C 0.64621 0.85156 0.5778 0.0
C1958 C 0.63271 0.85152 0.5482 0.0
C1959 C 0.64732 0.85071 0.53903 0.0
C1960 C 0.66137 0.85056 0.54933 0.0
H1961 H 0.65837 0.82845 0.42296 0.0
H1962 H 0.65906 0.82833 0.45661 0.0
C1963 C 0.66083 0.85097 0.56852 0.0
C1964 C 0.64798 0.85048 0.51867 0.0
H1965 H 0.63495 0.83032 0.48091 0.0
C1966 C 0.65641 0.86251 0.50963 0.0
C1967 C 0.64047 0.8385 0.50822 0.0
C1968 C 0.63209 0.82471 0.51715 0.0
C1969 C 0.65728 0.86308 0.49037 0.0
C1970 C 0.64917 0.8515 0.4799 0.0
C1971 C 0.64101 0.83929 0.48896 0.0
C1972 C 0.64902 0.8518 0.45953 0.0
C1973 C 0.66708 0.87592 0.48147 0.0
C1974 C 0.64301 0.86497 0.45003 0.0
C1975 C 0.64268 0.86509 0.43083 0.0
C1976 C 0.64814 0.85195 0.42079 0.0
C1977 C 0.65398 0.8387 0.43034 0.0
C1978 C 0.65443 0.83863 0.44954 0.0
H1979 H 0.6761 0.88074 0.49109 0.0
H1980 H 0.67322 0.87145 0.46899 0.0
H1981 H 0.6592 0.88583 0.47734 0.0
H1982 H 0.63838 0.87507 0.45746 0.0
H1983 H 0.63787 0.87535 0.42382 0.0
H1984 H 0.17289 0.56792 0.25739 0.0
H1985 H 0.17485 0.54116 0.24448 0.0
H1986 H 0.14967 0.5225 0.29136 0.0
H1987 H 0.14741 0.54923 0.30412 0.0
H1988 H 0.18785 0.51343 0.25703 0.0
H1989 H 0.12284 0.50691 0.24898 0.0
H1990 H 0.13205 0.52565 0.2543 0.0
H1991 H 0.12862 0.51128 0.27216 0.0
C1992 C 0.16791 0.55807 0.265 0.0
C1993 C 0.15985 0.56064 0.28165 0.0
C1994 C 0.169 0.54282 0.2576 0.0
C1995 C 0.16209 0.52991 0.26676 0.0
C1996 C 0.15468 0.53236 0.2838 0.0
H1997 H 0.15558 0.42927 0.24862 0.0
H1998 H 0.15747 0.456 0.2614 0.0
C1999 C 0.15344 0.54761 0.29111 0.0
C2000 C 0.16235 0.51392 0.25836 0.0
H2001 H 0.13831 0.48367 0.24441 0.0
C2002 C 0.17703 0.50696 0.25416 0.0
C2003 C 0.14819 0.50557 0.25447 0.0
C2004 C 0.13203 0.51279 0.25753 0.0
C2005 C 0.17791 0.49167 0.24661 0.0
C2006 C 0.16377 0.48322 0.24322 0.0
C2007 C 0.14912 0.49022 0.2472 0.0
C2008 C 0.16385 0.46702 0.23562 0.0
C2009 C 0.19388 0.48445 0.24258 0.0
C2010 C 0.16686 0.46447 0.2169 0.0
C2011 C 0.16556 0.44925 0.20946 0.0
C2012 C 0.16123 0.43634 0.22066 0.0
C2013 C 0.15865 0.43897 0.23954 0.0
C2014 C 0.15985 0.45419 0.24691 0.0
H2015 H 0.20378 0.49186 0.24784 0.0
H2016 H 0.1947 0.47247 0.24883 0.0
H2017 H 0.19531 0.48307 0.22749 0.0
H2018 H 0.16979 0.47432 0.20797 0.0
H2019 H 0.16744 0.4477 0.19484 0.0
H2020 H 0.56827 0.16409 0.2451 0.0
H2021 H 0.54153 0.16581 0.25803 0.0
H2022 H 0.52195 0.16772 0.20328 0.0
H2023 H 0.54863 0.16571 0.19028 0.0
H2024 H 0.51757 0.18755 0.25525 0.0
H2025 H 0.49906 0.13001 0.22516 0.0
H2026 H 0.51942 0.13651 0.22532 0.0
H2027 H 0.50584 0.14401 0.20834 0.0
C2028 C 0.55826 0.16507 0.23584 0.0
C2029 C 0.56049 0.16461 0.21669 0.0
C2030 C 0.54301 0.166 0.24323 0.0
C2031 C 0.52975 0.16654 0.23161 0.0
C2032 C 0.532 0.16687 0.21249 0.0
H2033 H 0.42852 0.17054 0.25107 0.0
H2034 H 0.45525 0.17301 0.23836 0.0
C2035 C 0.54723 0.16578 0.20509 0.0
C2036 C 0.51357 0.16629 0.23951 0.0
H2037 H 0.479 0.14523 0.23967 0.0
C2038 C 0.50915 0.17828 0.25188 0.0
C2039 C 0.50265 0.15409 0.2352 0.0
C2040 C 0.507 0.14034 0.22293 0.0
C2041 C 0.49399 0.17852 0.25985 0.0
C2042 C 0.48307 0.16647 0.25529 0.0
C2043 C 0.48745 0.1545 0.24296 0.0
C2044 C 0.46706 0.16589 0.2634 0.0
C2045 C 0.48963 0.19167 0.27294 0.0
C2046 C 0.46495 0.16103 0.28166 0.0
C2047 C 0.44971 0.15935 0.28891 0.0
C2048 C 0.43631 0.16256 0.27799 0.0
C2049 C 0.43855 0.16773 0.25977 0.0
C2050 C 0.45379 0.16927 0.25251 0.0
H2051 H 0.49866 0.20124 0.27316 0.0
H2052 H 0.47799 0.19683 0.26908 0.0
H2053 H 0.48848 0.18677 0.28704 0.0
H2054 H 0.4751 0.15817 0.29016 0.0
H2055 H 0.44844 0.15511 0.30288 0.0
H2056 H 0.86212 0.5524 0.20372 0.0
H2057 H 0.86036 0.52572 0.21665 0.0
H2058 H 0.81629 0.538 0.24309 0.0
H2059 H 0.81799 0.56476 0.23025 0.0
H2060 H 0.8594 0.51844 0.25411 0.0
H2061 H 0.80602 0.49566 0.21793 0.0
H2062 H 0.81672 0.51296 0.21022 0.0
H2063 H 0.80346 0.51431 0.22948 0.0
C2064 C 0.85204 0.54942 0.21225 0.0
C2065 C 0.84021 0.5607 0.216 0.0
C2066 C 0.85101 0.53416 0.21955 0.0
C2067 C 0.83812 0.52985 0.23066 0.0
C2068 C 0.82617 0.54099 0.23424 0.0
H2069 H 0.82031 0.44301 0.29292 0.0
H2070 H 0.81841 0.46973 0.27987 0.0
C2071 C 0.82717 0.55627 0.2269 0.0
C2072 C 0.83775 0.51399 0.23931 0.0
H2073 H 0.81698 0.47928 0.24113 0.0
C2074 C 0.85013 0.50987 0.25126 0.0
C2075 C 0.82557 0.50291 0.23566 0.0
C2076 C 0.81224 0.50657 0.22251 0.0
C2077 C 0.85072 0.49492 0.25962 0.0
C2078 C 0.83872 0.48374 0.25571 0.0
C2079 C 0.82615 0.48793 0.24406 0.0
C2080 C 0.83943 0.46743 0.26307 0.0
C2081 C 0.86414 0.49122 0.27265 0.0
C2082 C 0.85169 0.45726 0.25761 0.0
C2083 C 0.85275 0.44201 0.26491 0.0
C2084 C 0.84156 0.43663 0.27781 0.0
C2085 C 0.82906 0.44675 0.28293 0.0
C2086 C 0.82799 0.46203 0.27556 0.0
H2087 H 0.87006 0.50216 0.27767 0.0
H2088 H 0.85982 0.48436 0.28469 0.0
H2089 H 0.87312 0.48393 0.2654 0.0
H2090 H 0.86046 0.46114 0.2477 0.0
H2091 H 0.8623 0.43441 0.26033 0.0
H2092 H 0.57039 0.82879 0.25217 0.0
H2093 H 0.54415 0.82636 0.23835 0.0
H2094 H 0.52255 0.8338 0.2914 0.0
H2095 H 0.54875 0.83536 0.30555 0.0
H2096 H 0.50701 0.81122 0.27146 0.0
H2097 H 0.51704 0.86511 0.2292 0.0
H2098 H 0.53127 0.84967 0.22534 0.0
H2099 H 0.5303 0.85925 0.2474 0.0
C2100 C 0.56009 0.82956 0.261 0.0
C2101 C 0.56171 0.83245 0.27997 0.0
C2102 C 0.54508 0.82838 0.25301 0.0
C2103 C 0.53141 0.83029 0.26377 0.0
C2104 C 0.53296 0.83245 0.28281 0.0
H2105 H 0.43927 0.86148 0.22943 0.0
H2106 H 0.46584 0.85802 0.24212 0.0
C2107 C 0.54795 0.83349 0.29085 0.0
C2108 C 0.51551 0.83075 0.25516 0.0
H2109 H 0.49302 0.85141 0.22441 0.0
C2110 C 0.50393 0.81997 0.26113 0.0
C2111 C 0.51149 0.84234 0.24188 0.0
C2112 C 0.52311 0.85485 0.23568 0.0
C2113 C 0.48839 0.82051 0.25425 0.0
C2114 C 0.48447 0.83192 0.24074 0.0
C2115 C 0.49609 0.8426 0.23467 0.0
C2116 C 0.46819 0.83362 0.23335 0.0
C2117 C 0.47622 0.80922 0.26197 0.0
C2118 C 0.4607 0.82106 0.22413 0.0
C2119 C 0.44545 0.82299 0.21695 0.0
C2120 C 0.43756 0.8376 0.21862 0.0
C2121 C 0.44514 0.85015 0.22775 0.0
C2122 C 0.46029 0.84817 0.23506 0.0
H2123 H 0.48005 0.80414 0.27534 0.0
H2124 H 0.46463 0.81523 0.26393 0.0
H2125 H 0.47449 0.79927 0.25219 0.0
H2126 H 0.46673 0.80985 0.22227 0.0
H2127 H 0.43994 0.81318 0.20979 0.0
H2128 H 0.81482 0.55751 0.7925 0.0
H2129 H 0.81175 0.53052 0.78057 0.0
H2130 H 0.85542 0.53549 0.75025 0.0
H2131 H 0.85839 0.5625 0.76184 0.0
H2132 H 0.8324 0.52192 0.72967 0.0
H2133 H 0.83645 0.49215 0.79764 0.0
H2134 H 0.82087 0.50654 0.79595 0.0
H2135 H 0.8412 0.51281 0.79449 0.0
C2136 C 0.82377 0.55279 0.78333 0.0
C2137 C 0.83686 0.56207 0.77812 0.0
C2138 C 0.82203 0.53738 0.77658 0.0
C2139 C 0.83349 0.53091 0.76476 0.0
C2140 C 0.84644 0.54025 0.75936 0.0
H2141 H 0.85668 0.43456 0.73987 0.0
H2142 H 0.85425 0.46154 0.75171 0.0
C2143 C 0.84811 0.55568 0.76595 0.0
C2144 C 0.83215 0.51442 0.75797 0.0
H2145 H 0.83136 0.47581 0.77194 0.0
C2146 C 0.8321 0.51182 0.7389 0.0
C2147 C 0.83193 0.50128 0.77006 0.0
C2148 C 0.83276 0.50326 0.79067 0.0
C2149 C 0.83211 0.49645 0.73156 0.0
C2150 C 0.83173 0.48332 0.74365 0.0
C2151 C 0.83152 0.48591 0.76272 0.0
C2152 C 0.83265 0.46679 0.73686 0.0
C2153 C 0.83316 0.49444 0.71097 0.0
C2154 C 0.82116 0.4607 0.72481 0.0
C2155 C 0.8226 0.4453 0.71792 0.0
C2156 C 0.83539 0.43566 0.72322 0.0
C2157 C 0.84662 0.44166 0.73568 0.0
C2158 C 0.84526 0.45708 0.74241 0.0
H2159 H 0.8373 0.50544 0.70407 0.0
H2160 H 0.84136 0.48464 0.7073 0.0
H2161 H 0.82125 0.49152 0.70547 0.0
H2162 H 0.81113 0.46787 0.72069 0.0
H2163 H 0.81366 0.44089 0.70852 0.0
H2164 H 0.56307 0.85611 0.7401 0.0
H2165 H 0.53622 0.85215 0.75178 0.0
H2166 H 0.53027 0.81215 0.71547 0.0
H2167 H 0.55709 0.81631 0.70343 0.0
H2168 H 0.50507 0.83093 0.71438 0.0
H2169 H 0.51999 0.81949 0.78715 0.0
H2170 H 0.52821 0.83794 0.77949 0.0
H2171 H 0.5348 0.81965 0.76924 0.0
C2172 C 0.5561 0.84636 0.73477 0.0
C2173 C 0.56218 0.83645 0.72095 0.0
C2174 C 0.54079 0.84405 0.74152 0.0
C2175 C 0.53136 0.83162 0.73482 0.0
C2176 C 0.53738 0.82175 0.72094 0.0
H2177 H 0.44087 0.81173 0.7897 0.0
H2178 H 0.46761 0.80868 0.77696 0.0
C2179 C 0.55266 0.82415 0.71404 0.0
C2180 C 0.51493 0.82952 0.74167 0.0
H2181 H 0.49299 0.82706 0.78099 0.0
C2182 C 0.50244 0.82987 0.72893 0.0
C2183 C 0.51149 0.82778 0.76061 0.0
C2184 C 0.52436 0.82601 0.77487 0.0
C2185 C 0.48658 0.8293 0.73469 0.0
C2186 C 0.48314 0.82882 0.75373 0.0
C2187 C 0.49563 0.82769 0.76641 0.0
C2188 C 0.46673 0.83023 0.76084 0.0
C2189 C 0.47371 0.82921 0.72029 0.0
C2190 C 0.45744 0.84343 0.75618 0.0
C2191 C 0.44219 0.84513 0.76332 0.0
C2192 C 0.436 0.83379 0.77552 0.0
C2193 C 0.44537 0.82066 0.78037 0.0
C2194 C 0.4606 0.81889 0.77306 0.0
H2195 H 0.47805 0.82415 0.70712 0.0
H2196 H 0.46324 0.8223 0.72489 0.0
H2197 H 0.4699 0.84157 0.71755 0.0
H2198 H 0.46209 0.8526 0.74727 0.0
H2199 H 0.43537 0.85553 0.75964 0.0
H2200 H 0.17533 0.42831 0.75276 0.0
H2201 H 0.1781 0.45494 0.73981 0.0
H2202 H 0.15891 0.47501 0.78956 0.0
H2203 H 0.15575 0.44849 0.80248 0.0
H2204 H 0.15206 0.47653 0.73505 0.0
H2205 H 0.19946 0.50157 0.77933 0.0
H2206 H 0.19615 0.48051 0.777 0.0
H2207 H 0.18348 0.49218 0.79151 0.0
C2208 C 0.17171 0.43839 0.76097 0.0
C2209 C 0.16529 0.43625 0.77866 0.0
C2210 C 0.17341 0.45358 0.75359 0.0
C2211 C 0.16888 0.4669 0.76383 0.0
C2212 C 0.16277 0.46487 0.7816 0.0
H2213 H 0.15647 0.56681 0.7475 0.0
H2214 H 0.15942 0.53982 0.75913 0.0
C2215 C 0.161 0.44969 0.78896 0.0
C2216 C 0.1694 0.48286 0.75546 0.0
H2217 H 0.18528 0.51979 0.76051 0.0
C2218 C 0.15945 0.48597 0.74044 0.0
C2219 C 0.17899 0.4951 0.76266 0.0
C2220 C 0.19024 0.49221 0.77842 0.0
C2221 C 0.1584 0.50118 0.7328 0.0
C2222 C 0.16787 0.51351 0.74011 0.0
C2223 C 0.17805 0.51031 0.75493 0.0
C2224 C 0.16686 0.52994 0.73307 0.0
C2225 C 0.1467 0.50406 0.71745 0.0
C2226 C 0.17038 0.53339 0.71464 0.0
C2227 C 0.16848 0.54877 0.70787 0.0
C2228 C 0.1632 0.56103 0.71947 0.0
C2229 C 0.16024 0.5576 0.73809 0.0
C2230 C 0.16206 0.54221 0.74481 0.0
H2231 H 0.13767 0.4945 0.71662 0.0
H2232 H 0.14051 0.51556 0.7193 0.0
H2233 H 0.15312 0.50441 0.70415 0.0
H2234 H 0.1744 0.52414 0.70543 0.0
H2235 H 0.17079 0.55096 0.69344 0.0
H2236 H 0.43301 0.1483 0.74227 0.0
H2237 H 0.45994 0.15143 0.75387 0.0
H2238 H 0.46978 0.18564 0.71133 0.0
H2239 H 0.44267 0.18276 0.69972 0.0
H2240 H 0.49251 0.16156 0.71423 0.0
H2241 H 0.48004 0.1884 0.78225 0.0
H2242 H 0.46872 0.17078 0.77792 0.0
H2243 H 0.46564 0.18805 0.76387 0.0
C2244 C 0.44076 0.15675 0.73559 0.0
C2245 C 0.43564 0.16535 0.72011 0.0
C2246 C 0.45616 0.15852 0.74224 0.0
C2247 C 0.46675 0.16895 0.73363 0.0
C2248 C 0.46173 0.1776 0.71822 0.0
H2249 H 0.56133 0.18653 0.77943 0.0
H2250 H 0.53484 0.1906 0.76647 0.0
C2251 C 0.44628 0.17587 0.71156 0.0
C2252 C 0.48335 0.16998 0.74009 0.0
H2253 H 0.50584 0.17698 0.77823 0.0
C2254 C 0.49547 0.16513 0.72814 0.0
C2255 C 0.48717 0.17484 0.75816 0.0
C2256 C 0.47473 0.18096 0.77125 0.0
C2257 C 0.51125 0.16429 0.73408 0.0
C2258 C 0.51493 0.16822 0.7525 0.0
C2259 C 0.50294 0.1738 0.76418 0.0
C2260 C 0.531 0.16586 0.76013 0.0
C2261 C 0.52384 0.15905 0.72067 0.0
C2262 C 0.53745 0.15057 0.76111 0.0
C2263 C 0.55248 0.14819 0.76861 0.0
C2264 C 0.56135 0.16105 0.77534 0.0
C2265 C 0.55476 0.17636 0.77451 0.0
C2266 C 0.53968 0.17872 0.76702 0.0
H2267 H 0.52 0.16079 0.70619 0.0
H2268 H 0.53508 0.16563 0.7229 0.0
H2269 H 0.52625 0.14624 0.7227 0.0
H2270 H 0.53076 0.14044 0.75626 0.0
H2271 H 0.55704 0.13621 0.7694 0.0
H2272 H 0.66561 0.04917 0.80686 0.0
H2273 H 0.66855 0.02244 0.79422 0.0
H2274 H 0.66556 0.04138 0.73923 0.0
H2275 H 0.66286 0.06812 0.75176 0.0
H2276 H 0.64708 0.00692 0.77372 0.0
H2277 H 0.70307 0.01207 0.73438 0.0
H2278 H 0.69699 0.02667 0.75109 0.0
H2279 H 0.68887 0.02696 0.72821 0.0
C2280 C 0.66574 0.04763 0.79207 0.0
C2281 C 0.66404 0.06072 0.78028 0.0
C2282 C 0.66747 0.03238 0.78488 0.0
C2283 C 0.66751 0.02994 0.76578 0.0
C2284 C 0.66601 0.04302 0.75399 0.0
H2285 H 0.65349 0.94859 0.69598 0.0
H2286 H 0.65656 0.97514 0.70904 0.0
C2287 C 0.66441 0.05829 0.76117 0.0
C2288 C 0.66781 0.01363 0.75826 0.0
H2289 H 0.68694 0.98938 0.72786 0.0
C2290 C 0.65591 0.00304 0.76385 0.0
C2291 C 0.67932 0.00859 0.74535 0.0
C2292 C 0.69288 0.01912 0.73954 0.0
C2293 C 0.65499 0.98769 0.75658 0.0
C2294 C 0.66628 0.98281 0.74343 0.0
C2295 C 0.67828 0.99327 0.73791 0.0
C2296 C 0.6656 0.96687 0.73514 0.0
C2297 C 0.64177 0.97685 0.76267 0.0
C2298 C 0.66994 0.95355 0.74546 0.0
C2299 C 0.66836 0.93838 0.73801 0.0
C2300 C 0.66234 0.93629 0.72012 0.0
C2301 C 0.65834 0.94977 0.70969 0.0
C2302 C 0.66001 0.96494 0.71714 0.0
H2303 H 0.6328 0.98312 0.77118 0.0
H2304 H 0.63577 0.97159 0.75053 0.0
H2305 H 0.64679 0.96699 0.77092 0.0
H2306 H 0.67438 0.95489 0.75935 0.0
H2307 H 0.67181 0.92829 0.74628 0.0
H2308 H 0.94928 0.6482 0.79894 0.0
H2309 H 0.97539 0.65149 0.7849 0.0
H2310 H 0.95566 0.68402 0.74532 0.0
H2311 H 0.92937 0.68052 0.75906 0.0
H2312 H 0.97377 0.65978 0.72969 0.0
H2313 H 0.00633 0.68902 0.7865 0.0
H2314 H 0.99605 0.6714 0.79355 0.0
H2315 H 0.98495 0.68824 0.78557 0.0
C2316 C 0.95051 0.65611 0.7873 0.0
C2317 C 0.93727 0.66409 0.78008 0.0
C2318 C 0.96546 0.65811 0.77942 0.0
C2319 C 0.96748 0.66816 0.76424 0.0
C2320 C 0.95435 0.67632 0.75714 0.0
H2321 H 0.06166 0.68626 0.71757 0.0
H2322 H 0.03495 0.69017 0.73 0.0
C2323 C 0.93938 0.67437 0.76506 0.0
C2324 C 0.98308 0.66919 0.75502 0.0
H2325 H 0.02215 0.67724 0.76276 0.0
C2326 C 0.98432 0.6638 0.73682 0.0
C2327 C 0.99678 0.6746 0.76429 0.0
C2328 C 0.99598 0.6813 0.7835 0.0
C2329 C 0.99905 0.663 0.72792 0.0
C2330 C 0.01287 0.66752 0.73758 0.0
C2331 C 0.01154 0.67362 0.75547 0.0
C2332 C 0.02887 0.66527 0.72969 0.0
C2333 C -0.00029 0.65717 0.70833 0.0
C2334 C 0.03431 0.64997 0.72563 0.0
C2335 C 0.04955 0.64768 0.71867 0.0
C2336 C 0.05969 0.66066 0.71569 0.0
C2337 C 0.0542 0.676 0.71985 0.0
C2338 C 0.03893 0.67827 0.72686 0.0
H2339 H 0.98808 0.65846 0.70133 0.0
H2340 H 0.00882 0.66369 0.70031 0.0
H2341 H 0.00289 0.64441 0.70828 0.0
H2342 H 0.02684 0.63975 0.72812 0.0
H2343 H 0.0535 0.63569 0.716 0.0
H2344 H 0.35801 0.05092 0.70093 0.0
H2345 H 0.35605 0.02435 0.71411 0.0
H2346 H 0.31789 0.03991 0.74917 0.0
H2347 H 0.31985 0.06661 0.73616 0.0
H2348 H 0.36004 0.01721 0.75186 0.0
H2349 H 0.30085 0.99847 0.72613 0.0
H2350 H 0.31173 0.01476 0.71612 0.0
H2351 H 0.30157 0.01733 0.73761 0.0
C2352 C 0.34918 0.0487 0.71143 0.0
C2353 C 0.33912 0.06088 0.71755 0.0
C2354 C 0.34803 0.0335 0.71887 0.0
C2355 C 0.33674 0.03016 0.73247 0.0
C2356 C 0.32648 0.04219 0.73843 0.0
H2357 H 0.32125 0.94357 0.79613 0.0
H2358 H 0.31923 0.97049 0.7836 0.0
C2359 C 0.32762 0.05742 0.73099 0.0
C2360 C 0.33644 0.01431 0.74114 0.0
H2361 H 0.31395 0.98098 0.74651 0.0
C2362 C 0.34997 0.00928 0.7507 0.0
C2363 C 0.32321 0.00409 0.73972 0.0
C2364 C 0.30853 0.00882 0.72924 0.0
C2365 C 0.35069 0.99424 0.75881 0.0
C2366 C 0.33763 0.98386 0.757 0.0
C2367 C 0.32395 0.98899 0.7478 0.0
C2368 C 0.33828 0.96743 0.76402 0.0
C2369 C 0.36539 0.98962 0.76934 0.0
C2370 C 0.34941 0.95676 0.75683 0.0
C2371 C 0.35056 0.94144 0.76389 0.0
C2372 C 0.34055 0.93646 0.77823 0.0
C2373 C 0.32908 0.94704 0.78504 0.0
C2374 C 0.32794 0.96241 0.77795 0.0
H2375 H 0.37234 0.00018 0.77364 0.0
H2376 H 0.36233 0.98261 0.78176 0.0
H2377 H 0.37307 0.98222 0.76042 0.0
H2378 H 0.35725 0.96032 0.74578 0.0
H2379 H 0.35927 0.93346 0.75806 0.0
H2380 H 0.06182 0.35828 0.76037 0.0
H2381 H 0.03528 0.35457 0.74759 0.0
H2382 H 0.02917 0.31258 0.78061 0.0
H2383 H 0.05564 0.31639 0.7938 0.0
H2384 H 0.02304 0.32707 0.7284 0.0
H2385 H 0.99012 0.34089 0.79283 0.0
H2386 H 0.01065 0.34626 0.78962 0.0
H2387 H 0.00538 0.32606 0.79433 0.0
C2388 C 0.05477 0.34834 0.76506 0.0
C2389 C 0.06076 0.3377 0.77822 0.0
C2390 C 0.03968 0.34617 0.75764 0.0
C2391 C 0.03025 0.3334 0.76331 0.0
C2392 C 0.03623 0.32261 0.77624 0.0
H2393 H 0.93084 0.31616 0.73504 0.0
H2394 H 0.95773 0.31265 0.74707 0.0
C2395 C 0.05137 0.32474 0.78364 0.0
C2396 C 0.01414 0.33154 0.75565 0.0
H2397 H 0.97496 0.33477 0.76664 0.0
C2398 C 0.01251 0.32864 0.73675 0.0
C2399 C 0.00047 0.33349 0.76665 0.0
C2400 C 0.00163 0.33695 0.78697 0.0
C2401 C 0.99752 0.32789 0.72847 0.0
C2402 C 0.98386 0.33045 0.73934 0.0
C2403 C 0.98547 0.33283 0.75835 0.0
C2404 C 0.96786 0.33177 0.73112 0.0
C2405 C 0.99645 0.3244 0.70816 0.0
C2406 C 0.96467 0.3437 0.71821 0.0
C2407 C 0.94939 0.34568 0.71126 0.0
C2408 C 0.93695 0.33585 0.7172 0.0
C2409 C 0.94021 0.3238 0.73002 0.0
C2410 C 0.95553 0.32182 0.73698 0.0
H2411 H 0.00708 0.31791 0.70321 0.0
H2412 H 0.98574 0.31728 0.70491 0.0
H2413 H 0.99574 0.33573 0.70047 0.0
H2414 H 0.97395 0.35172 0.71379 0.0
H2415 H 0.94731 0.35498 0.70128 0.0
H2416 H 0.35703 0.05159 0.29683 0.0
H2417 H 0.3546 0.02468 0.28462 0.0
H2418 H 0.31649 0.03987 0.24928 0.0
H2419 H 0.31863 0.06679 0.26167 0.0
H2420 H 0.31147 0.00988 0.2684 0.0
H2421 H 0.36899 0.01323 0.23132 0.0
H2422 H 0.36976 0.0183 0.25531 0.0
H2423 H 0.35878 0.03059 0.23969 0.0
C2424 C 0.34798 0.04916 0.28665 0.0
C2425 C 0.33807 0.06132 0.28013 0.0
C2426 C 0.3467 0.03382 0.27959 0.0
C2427 C 0.33551 0.03039 0.2659 0.0
C2428 C 0.32526 0.04235 0.25977 0.0
H2429 H 0.33678 0.94796 0.19453 0.0
H2430 H 0.3346 0.97483 0.20692 0.0
C2431 C 0.32657 0.05771 0.26677 0.0
C2432 C 0.3348 0.01441 0.25763 0.0
H2433 H 0.35618 0.98827 0.23183 0.0
C2434 C 0.3212 0.00513 0.26036 0.0
C2435 C 0.34745 0.0084 0.24695 0.0
C2436 C 0.36204 0.01816 0.24296 0.0
C2437 C 0.32008 0.98979 0.25299 0.0
C2438 C 0.33293 0.98361 0.24279 0.0
C2439 C 0.34638 0.99303 0.23975 0.0
C2440 C 0.33285 0.96731 0.23529 0.0
C2441 C 0.30511 0.98037 0.25602 0.0
C2442 C 0.33252 0.95422 0.24715 0.0
C2443 C 0.33371 0.93886 0.24012 0.0
C2444 C 0.33532 0.93634 0.22109 0.0
C2445 C 0.33535 0.94949 0.20922 0.0
C2446 C 0.3342 0.96485 0.21627 0.0
H2447 H 0.29502 0.9881 0.26003 0.0
H2448 H 0.30181 0.97369 0.24344 0.0
H2449 H 0.30709 0.97171 0.26726 0.0
H2450 H 0.33174 0.95589 0.26189 0.0
H2451 H 0.33354 0.92896 0.24959 0.0
H2452 H 0.94815 0.342 0.30156 0.0
H2453 H 0.97467 0.33964 0.28832 0.0
H2454 H 0.95481 0.31931 0.23908 0.0
H2455 H 0.92821 0.32124 0.25235 0.0
H2456 H 0.99103 0.3112 0.27244 0.0
H2457 H 0.97996 0.36033 0.2229 0.0
H2458 H 0.96801 0.35748 0.24324 0.0
H2459 H 0.96551 0.34467 0.22378 0.0
C2460 C 0.94941 0.33672 0.28806 0.0
C2461 C 0.93602 0.33189 0.27797 0.0
C2462 C 0.96457 0.33546 0.2805 0.0
C2463 C 0.96661 0.32947 0.26269 0.0
C2464 C 0.95339 0.32415 0.25278 0.0
H2465 H 0.05055 0.33061 0.19284 0.0
H2466 H 0.02383 0.32619 0.20484 0.0
C2467 C 0.93823 0.32534 0.26035 0.0
C2468 C 0.98252 0.32942 0.25424 0.0
H2469 H 0.00499 0.34815 0.22188 0.0
C2470 C 0.99411 0.31921 0.26133 0.0
C2471 C 0.98639 0.33986 0.23973 0.0
C2472 C 0.97439 0.35131 0.23197 0.0
C2473 C 0.00959 0.31919 0.25426 0.0
C2474 C 0.01359 0.32994 0.24006 0.0
C2475 C 0.00188 0.33993 0.23276 0.0
C2476 C 0.02999 0.33152 0.23305 0.0
C2477 C 0.02147 0.30759 0.26195 0.0
C2478 C 0.04229 0.33604 0.24493 0.0
C2479 C 0.05757 0.33847 0.23815 0.0
C2480 C 0.06083 0.33657 0.21931 0.0
C2481 C 0.04849 0.33197 0.20745 0.0
C2482 C 0.0332 0.32952 0.21426 0.0
H2483 H 0.01551 0.29724 0.2684 0.0
H2484 H 0.02962 0.30324 0.25107 0.0
H2485 H 0.02864 0.31356 0.2727 0.0
H2486 H 0.04 0.33798 0.25941 0.0
H2487 H 0.06684 0.34186 0.24767 0.0
H2488 H 0.63575 0.94626 0.29172 0.0
H2489 H 0.63879 0.97284 0.27901 0.0
H2490 H 0.68378 0.95953 0.25549 0.0
H2491 H 0.68048 0.93262 0.2674 0.0
H2492 H 0.66176 0.99505 0.28514 0.0
H2493 H 0.66068 0.97777 0.21136 0.0
H2494 H 0.6551 0.9643 0.22951 0.0
H2495 H 0.67567 0.96813 0.22484 0.0
C2496 C 0.6462 0.94889 0.28362 0.0
C2497 C 0.65779 0.93723 0.28041 0.0
C2498 C 0.64798 0.96414 0.27651 0.0
C2499 C 0.66139 0.96809 0.26607 0.0
C2500 C 0.67319 0.95664 0.2632 0.0
H2501 H 0.68354 0.0596 0.21462 0.0
H2502 H 0.68612 0.03282 0.22733 0.0
C2503 C 0.67137 0.94132 0.27022 0.0
C2504 C 0.6629 0.98425 0.25833 0.0
H2505 H 0.66471 0.00487 0.21795 0.0
C2506 C 0.66248 0.99719 0.27045 0.0
C2507 C 0.66387 0.987 0.23915 0.0
C2508 C 0.66372 0.97359 0.22541 0.0
C2509 C 0.66274 0.01281 0.2639 0.0
C2510 C 0.66337 0.01553 0.24476 0.0
C2511 C 0.66428 0.00266 0.23263 0.0
C2512 C 0.66194 0.03165 0.23706 0.0
C2513 C 0.66216 0.02633 0.27745 0.0
C2514 C 0.64743 0.03965 0.23813 0.0
C2515 C 0.64584 0.0548 0.23069 0.0
C2516 C 0.65877 0.06229 0.2221 0.0
C2517 C 0.67331 0.05414 0.22097 0.0
C2518 C 0.67484 0.0389 0.22832 0.0
H2519 H 0.66505 0.0224 0.29164 0.0
H2520 H 0.67053 0.03586 0.27337 0.0
H2521 H 0.65004 0.03145 0.27755 0.0
H2522 H 0.63728 0.03409 0.24459 0.0
H2523 H 0.63438 0.06053 0.23145 0.0
H2524 H 0.0682 0.6792 0.25634 0.0
H2525 H 0.0414 0.68157 0.24373 0.0
H2526 H 0.02303 0.65438 0.2892 0.0
H2527 H 0.04972 0.65187 0.30183 0.0
H2528 H 0.0223 0.65655 0.23302 0.0
H2529 H 0.99268 0.69198 0.28721 0.0
H2530 H 0.01397 0.6905 0.28538 0.0
H2531 H 0.00275 0.67485 0.29598 0.0
C2532 C 0.05843 0.6738 0.2637 0.0
C2533 C 0.06108 0.66536 0.2801 0.0
C2534 C 0.04314 0.67523 0.25653 0.0
C2535 C 0.03022 0.66835 0.26567 0.0
C2536 C 0.03278 0.66012 0.28217 0.0
H2537 H 0.93278 0.64655 0.24419 0.0
H2538 H 0.95952 0.65009 0.2565 0.0
C2539 C 0.04806 0.65869 0.28936 0.0
C2540 C 0.01423 0.66872 0.25731 0.0
H2541 H 0.97573 0.6788 0.26571 0.0
C2542 C 0.01214 0.6616 0.24004 0.0
C2543 C 0.00103 0.67528 0.26654 0.0
C2544 C 0.0027 0.68372 0.28473 0.0
C2545 C 0.99707 0.66034 0.23204 0.0
C2546 C 0.98381 0.66659 0.24147 0.0
C2547 C 0.98594 0.674 0.25856 0.0
C2548 C 0.96755 0.66496 0.23413 0.0
C2549 C 0.99536 0.65182 0.2139 0.0
C2550 C 0.96319 0.67233 0.2176 0.0
C2551 C 0.94796 0.67025 0.21046 0.0
C2552 C 0.93683 0.66078 0.21977 0.0
C2553 C 0.94117 0.65368 0.23653 0.0
C2554 C 0.95639 0.65579 0.24366 0.0
H2555 H 0.00612 0.64486 0.21039 0.0
H2556 H 0.985 0.6437 0.21416 0.0
H2557 H 0.99339 0.66064 0.20282 0.0
H2558 H 0.9716 0.67962 0.21018 0.0
H2559 H 0.94499 0.6758 0.19749 0.0
loop_
_geom_bond_atom_site_label_1
_geom_bond_atom_site_label_2
_geom_bond_distance
_geom_bond_site_symmetry_2
_ccdc_geom_bond_type
Li0 N17 1.990 . S
Li0 O60 1.956 . S
Li0 O61 1.970 . S
Li0 O62 1.961 . S
Li1 N25 1.990 . S
Li1 O60 1.970 . S
Li1 O61 1.956 . S
Li1 O63 1.961 . S
Li2 N47 1.990 . S
Li2 O60 1.961 . S
Li2 O62 1.956 . S
Li2 O63 1.970 . S
Li3 N53 1.990 . S
Li3 O61 1.961 . S
Li3 O62 1.970 . S
Li3 O63 1.956 . S
C4 C6 1.348 . S
C4 C7 1.356 . S
C4 O60 1.325 . S
N5 C8 1.314 . S
N5 C9 1.279 . S
C6 C4 1.348 . S
C6 C8 1.353 . S
C6 H64 0.929 . S
C7 C4 1.356 . S
C7 C9 1.358 . S
C7 H65 0.930 . S
C8 N5 1.314 . S
C8 C6 1.353 . S
C8 H66 0.930 . S
C9 N5 1.279 . S
C9 C7 1.358 . S
C9 H67 0.930 . S
C10 C13 1.348 . S
C10 C14 1.356 . S
C10 O61 1.325 . S
C11 N12 1.279 . S
C11 C14 1.358 . S
C11 H68 0.930 . S
N12 C11 1.279 . S
N12 C15 1.314 . S
C13 C10 1.348 . S
C13 C15 1.353 . S
C13 H69 0.929 . S
C14 C10 1.356 . S
C14 C11 1.358 . S
C14 H70 0.930 . S
C15 N12 1.314 . S
C15 C13 1.353 . S
C15 H71 0.930 . S
C16 N17 1.314 . S
C16 C21 1.353 . S
C16 H22 0.930 . S
N17 Li0 1.990 . S
N17 C16 1.314 . S
N17 C19 1.279 . S
C18 C19 1.358 . S
C18 C20 1.356 . S
C18 H72 0.930 . S
C19 N17 1.279 . S
C19 C18 1.358 . S
C19 H23 0.930 . S
C20 C18 1.356 . S
C20 C21 1.348 . S
C21 C16 1.353 . S
C21 C20 1.348 . S
C21 H73 0.929 . S
H22 C16 0.930 . S
H23 C19 0.930 . S
C24 N25 1.314 . S
C24 C26 1.353 . S
C24 H30 0.930 . S
N25 Li1 1.990 . S
N25 C24 1.314 . S
N25 C28 1.279 . S
C26 C24 1.353 . S
C26 C29 1.348 . S
C26 H74 0.929 . S
C27 C28 1.358 . S
C27 C29 1.356 . S
C27 H75 0.930 . S
C28 N25 1.279 . S
C28 C27 1.358 . S
C28 H31 0.930 . S
C29 C26 1.348 . S
C29 C27 1.356 . S
H30 C24 0.930 . S
H31 C28 0.930 . S
C32 C34 1.348 . S
C32 C35 1.356 . S
C32 O62 1.325 . S
N33 C36 1.314 . S
N33 C37 1.279 . S
C34 C32 1.348 . S
C34 C36 1.353 . S
C34 H76 0.929 . S
C35 C32 1.356 . S
C35 C37 1.358 . S
C35 H77 0.930 . S
C36 N33 1.314 . S
C36 C34 1.353 . S
C36 H78 0.930 . S
C37 N33 1.279 . S
C37 C35 1.358 . S
C37 H79 0.930 . S
C38 C39 1.348 . S
C38 C40 1.356 . S
C38 O63 1.325 . S
C39 C38 1.348 . S
C39 C41 1.353 . S
C39 H80 0.929 . S
C40 C38 1.356 . S
C40 C42 1.358 . S
C40 H81 0.930 . S
C41 C39 1.353 . S
C41 N43 1.314 . S
C41 H82 0.930 . S
C42 C40 1.358 . S
C42 N43 1.279 . S
C42 H83 0.930 . S
N43 C41 1.314 . S
N43 C42 1.279 . S
C44 C46 1.353 . S
C44 N47 1.314 . S
C44 H50 0.930 . S
C45 N47 1.279 . S
C45 C48 1.358 . S
C45 H51 0.930 . S
C46 C44 1.353 . S
C46 C49 1.348 . S
C46 H84 0.929 . S
N47 Li2 1.990 . S
N47 C44 1.314 . S
N47 C45 1.279 . S
C48 C45 1.358 . S
C48 C49 1.356 . S
C48 H85 0.930 . S
C49 C46 1.348 . S
C49 C48 1.356 . S
H50 C44 0.930 . S
H51 C45 0.930 . S
C52 N53 1.314 . S
C52 C54 1.353 . S
C52 H58 0.930 . S
N53 Li3 1.990 . S
N53 C52 1.314 . S
N53 C56 1.279 . S
C54 C52 1.353 . S
C54 C57 1.348 . S
C54 H86 0.929 . S
C55 C56 1.358 . S
C55 C57 1.356 . S
C55 H87 0.930 . S
C56 N53 1.279 . S
C56 C55 1.358 . S
C56 H59 0.930 . S
C57 C54 1.348 . S
C57 C55 1.356 . S
H58 C52 0.930 . S
H59 C56 0.930 . S
O60 Li0 1.956 . S
O60 Li1 1.970 . S
O60 Li2 1.961 . S
O60 C4 1.325 . S
O61 Li0 1.970 . S
O61 Li1 1.956 . S
O61 Li3 1.961 . S
O61 C10 1.325 . S
O62 Li0 1.961 . S
O62 Li2 1.956 . S
O62 Li3 1.970 . S
O62 C32 1.325 . S
O63 Li1 1.961 . S
O63 Li2 1.970 . S
O63 Li3 1.956 . S
O63 C38 1.325 . S
H64 C6 0.929 . S
H65 C7 0.930 . S
H66 C8 0.930 . S
H67 C9 0.930 . S
H68 C11 0.930 . S
H69 C13 0.929 . S
H70 C14 0.930 . S
H71 C15 0.930 . S
H72 C18 0.930 . S
H73 C21 0.929 . S
H74 C26 0.929 . S
H75 C27 0.930 . S
H76 C34 0.929 . S
H77 C35 0.930 . S
H78 C36 0.930 . S
H79 C37 0.930 . S
H80 C39 0.929 . S
H81 C40 0.930 . S
H82 C41 0.930 . S
H83 C42 0.930 . S
H84 C46 0.929 . S
H85 C48 0.930 . S
H86 C54 0.929 . S
H87 C55 0.930 . S
Li88 N105 1.990 . S
Li88 O148 1.956 . S
Li88 O149 1.970 . S
Li88 O150 1.961 . S
Li89 N113 1.990 . S
Li89 O148 1.970 . S
Li89 O149 1.956 . S
Li89 O151 1.961 . S
Li90 N135 1.990 . S
Li90 O148 1.961 . S
Li90 O150 1.956 . S
Li90 O151 1.970 . S
Li91 N141 1.990 . S
Li91 O149 1.961 . S
Li91 O150 1.970 . S
Li91 O151 1.956 . S
C92 C94 1.348 . S
C92 C95 1.356 . S
C92 O148 1.325 . S
N93 C96 1.314 . S
N93 C97 1.279 . S
C94 C92 1.348 . S
C94 C96 1.353 . S
C94 H152 0.929 . S
C95 C92 1.356 . S
C95 C97 1.358 . S
C95 H153 0.930 . S
C96 N93 1.314 . S
C96 C94 1.353 . S
C96 H154 0.930 . S
C97 N93 1.279 . S
C97 C95 1.358 . S
C97 H155 0.930 . S
C98 C101 1.348 . S
C98 C102 1.356 . S
C98 O149 1.325 . S
C99 N100 1.279 . S
C99 C102 1.358 . S
C99 H156 0.930 . S
N100 C99 1.279 . S
N100 C103 1.314 . S
C101 C98 1.348 . S
C101 C103 1.353 . S
C101 H157 0.929 . S
C102 C98 1.356 . S
C102 C99 1.358 . S
C102 H158 0.930 . S
C103 N100 1.314 . S
C103 C101 1.353 . S
C103 H159 0.930 . S
C104 N105 1.314 . S
C104 C109 1.353 . S
C104 H110 0.930 . S
N105 Li88 1.990 . S
N105 C104 1.314 . S
N105 C107 1.279 . S
C106 C107 1.358 . S
C106 C108 1.356 . S
C106 H160 0.930 . S
C107 N105 1.279 . S
C107 C106 1.358 . S
C107 H111 0.930 . S
C108 C106 1.356 . S
C108 C109 1.348 . S
C109 C104 1.353 . S
C109 C108 1.348 . S
C109 H161 0.929 . S
H110 C104 0.930 . S
H111 C107 0.930 . S
C112 N113 1.314 . S
C112 C114 1.353 . S
C112 H118 0.930 . S
N113 Li89 1.990 . S
N113 C112 1.314 . S
N113 C116 1.279 . S
C114 C112 1.353 . S
C114 C117 1.348 . S
C114 H162 0.929 . S
C115 C116 1.358 . S
C115 C117 1.356 . S
C115 H163 0.930 . S
C116 N113 1.279 . S
C116 C115 1.358 . S
C116 H119 0.930 . S
C117 C114 1.348 . S
C117 C115 1.356 . S
H118 C112 0.930 . S
H119 C116 0.930 . S
C120 C122 1.348 . S
C120 C123 1.356 . S
C120 O150 1.325 . S
N121 C124 1.314 . S
N121 C125 1.279 . S
C122 C120 1.348 . S
C122 C124 1.353 . S
C122 H164 0.929 . S
C123 C120 1.356 . S
C123 C125 1.358 . S
C123 H165 0.930 . S
C124 N121 1.314 . S
C124 C122 1.353 . S
C124 H166 0.930 . S
C125 N121 1.279 . S
C125 C123 1.358 . S
C125 H167 0.930 . S
C126 C127 1.348 . S
C126 C128 1.356 . S
C126 O151 1.325 . S
C127 C126 1.348 . S
C127 C129 1.353 . S
C127 H168 0.929 . S
C128 C126 1.356 . S
C128 C130 1.358 . S
C128 H169 0.930 . S
C129 C127 1.353 . S
C129 N131 1.314 . S
C129 H170 0.930 . S
C130 C128 1.358 . S
C130 N131 1.279 . S
C130 H171 0.930 . S
N131 C129 1.314 . S
N131 C130 1.279 . S
C132 C134 1.353 . S
C132 N135 1.314 . S
C132 H138 0.930 . S
C133 N135 1.279 . S
C133 C136 1.358 . S
C133 H139 0.930 . S
C134 C132 1.353 . S
C134 C137 1.348 . S
C134 H172 0.929 . S
N135 Li90 1.990 . S
N135 C132 1.314 . S
N135 C133 1.279 . S
C136 C133 1.358 . S
C136 C137 1.356 . S
C136 H173 0.930 . S
C137 C134 1.348 . S
C137 C136 1.356 . S
H138 C132 0.930 . S
H139 C133 0.930 . S
C140 N141 1.314 . S
C140 C142 1.353 . S
C140 H146 0.930 . S
N141 Li91 1.990 . S
N141 C140 1.314 . S
N141 C144 1.279 . S
C142 C140 1.353 . S
C142 C145 1.348 . S
C142 H174 0.929 . S
C143 C144 1.358 . S
C143 C145 1.356 . S
C143 H175 0.930 . S
C144 N141 1.279 . S
C144 C143 1.358 . S
C144 H147 0.930 . S
C145 C142 1.348 . S
C145 C143 1.356 . S
H146 C140 0.930 . S
H147 C144 0.930 . S
O148 Li88 1.956 . S
O148 Li89 1.970 . S
O148 Li90 1.961 . S
O148 C92 1.325 . S
O149 Li88 1.970 . S
O149 Li89 1.956 . S
O149 Li91 1.961 . S
O149 C98 1.325 . S
O150 Li88 1.961 . S
O150 Li90 1.956 . S
O150 Li91 1.970 . S
O150 C120 1.325 . S
O151 Li89 1.961 . S
O151 Li90 1.970 . S
O151 Li91 1.956 . S
O151 C126 1.325 . S
H152 C94 0.929 . S
H153 C95 0.930 . S
H154 C96 0.930 . S
H155 C97 0.930 . S
H156 C99 0.930 . S
H157 C101 0.929 . S
H158 C102 0.930 . S
H159 C103 0.930 . S
H160 C106 0.930 . S
H161 C109 0.929 . S
H162 C114 0.929 . S
H163 C115 0.930 . S
H164 C122 0.929 . S
H165 C123 0.930 . S
H166 C124 0.930 . S
H167 C125 0.930 . S
H168 C127 0.929 . S
H169 C128 0.930 . S
H170 C129 0.930 . S
H171 C130 0.930 . S
H172 C134 0.929 . S
H173 C136 0.930 . S
H174 C142 0.929 . S
H175 C143 0.930 . S
Li176 N193 1.990 . S
Li176 O236 1.956 . S
Li176 O237 1.970 . S
Li176 O238 1.961 . S
Li177 N201 1.990 . S
Li177 O236 1.970 . S
Li177 O237 1.956 . S
Li177 O239 1.961 . S
Li178 N223 1.990 . S
Li178 O236 1.961 . S
Li178 O238 1.956 . S
Li178 O239 1.970 . S
Li179 N229 1.990 . S
Li179 O237 1.961 . S
Li179 O238 1.970 . S
Li179 O239 1.956 . S
C180 C182 1.348 . S
C180 C183 1.356 . S
C180 O236 1.325 . S
N181 C184 1.314 . S
N181 C185 1.279 . S
C182 C180 1.348 . S
C182 C184 1.353 . S
C182 H240 0.929 . S
C183 C180 1.356 . S
C183 C185 1.358 . S
C183 H241 0.930 . S
C184 N181 1.314 . S
C184 C182 1.353 . S
C184 H242 0.930 . S
C185 N181 1.279 . S
C185 C183 1.358 . S
C185 H243 0.930 . S
C186 C189 1.348 . S
C186 C190 1.356 . S
C186 O237 1.325 . S
C187 N188 1.279 . S
C187 C190 1.358 . S
C187 H244 0.930 . S
N188 C187 1.279 . S
N188 C191 1.314 . S
C189 C186 1.348 . S
C189 C191 1.353 . S
C189 H245 0.929 . S
C190 C186 1.356 . S
C190 C187 1.358 . S
C190 H246 0.930 . S
C191 N188 1.314 . S
C191 C189 1.353 . S
C191 H247 0.930 . S
C192 N193 1.314 . S
C192 C197 1.353 . S
C192 H198 0.930 . S
N193 Li176 1.990 . S
N193 C192 1.314 . S
N193 C195 1.279 . S
C194 C195 1.358 . S
C194 C196 1.356 . S
C194 H248 0.930 . S
C195 N193 1.279 . S
C195 C194 1.358 . S
C195 H199 0.930 . S
C196 C194 1.356 . S
C196 C197 1.348 . S
C197 C192 1.353 . S
C197 C196 1.348 . S
C197 H249 0.929 . S
H198 C192 0.930 . S
H199 C195 0.930 . S
C200 N201 1.314 . S
C200 C202 1.353 . S
C200 H206 0.930 . S
N201 Li177 1.990 . S
N201 C200 1.314 . S
N201 C204 1.279 . S
C202 C200 1.353 . S
C202 C205 1.348 . S
C202 H250 0.929 . S
C203 C204 1.358 . S
C203 C205 1.356 . S
C203 H251 0.930 . S
C204 N201 1.279 . S
C204 C203 1.358 . S
C204 H207 0.930 . S
C205 C202 1.348 . S
C205 C203 1.356 . S
H206 C200 0.930 . S
H207 C204 0.930 . S
C208 C210 1.348 . S
C208 C211 1.356 . S
C208 O238 1.325 . S
N209 C212 1.314 . S
N209 C213 1.279 . S
C210 C208 1.348 . S
C210 C212 1.353 . S
C210 H252 0.929 . S
C211 C208 1.356 . S
C211 C213 1.358 . S
C211 H253 0.930 . S
C212 N209 1.314 . S
C212 C210 1.353 . S
C212 H254 0.930 . S
C213 N209 1.279 . S
C213 C211 1.358 . S
C213 H255 0.930 . S
C214 C215 1.348 . S
C214 C216 1.356 . S
C214 O239 1.325 . S
C215 C214 1.348 . S
C215 C217 1.353 . S
C215 H256 0.929 . S
C216 C214 1.356 . S
C216 C218 1.358 . S
C216 H257 0.930 . S
C217 C215 1.353 . S
C217 N219 1.314 . S
C217 H258 0.930 . S
C218 C216 1.358 . S
C218 N219 1.279 . S
C218 H259 0.930 . S
N219 C217 1.314 . S
N219 C218 1.279 . S
C220 C222 1.353 . S
C220 N223 1.314 . S
C220 H226 0.930 . S
C221 N223 1.279 . S
C221 C224 1.358 . S
C221 H227 0.930 . S
C222 C220 1.353 . S
C222 C225 1.348 . S
C222 H260 0.929 . S
N223 Li178 1.990 . S
N223 C220 1.314 . S
N223 C221 1.279 . S
C224 C221 1.358 . S
C224 C225 1.356 . S
C224 H261 0.930 . S
C225 C222 1.348 . S
C225 C224 1.356 . S
H226 C220 0.930 . S
H227 C221 0.930 . S
C228 N229 1.314 . S
C228 C230 1.353 . S
C228 H234 0.930 . S
N229 Li179 1.990 . S
N229 C228 1.314 . S
N229 C232 1.279 . S
C230 C228 1.353 . S
C230 C233 1.348 . S
C230 H262 0.929 . S
C231 C232 1.358 . S
C231 C233 1.356 . S
C231 H263 0.930 . S
C232 N229 1.279 . S
C232 C231 1.358 . S
C232 H235 0.930 . S
C233 C230 1.348 . S
C233 C231 1.356 . S
H234 C228 0.930 . S
H235 C232 0.930 . S
O236 Li176 1.956 . S
O236 Li177 1.970 . S
O236 Li178 1.961 . S
O236 C180 1.325 . S
O237 Li176 1.970 . S
O237 Li177 1.956 . S
O237 Li179 1.961 . S
O237 C186 1.325 . S
O238 Li176 1.961 . S
O238 Li178 1.956 . S
O238 Li179 1.970 . S
O238 C208 1.325 . S
O239 Li177 1.961 . S
O239 Li178 1.970 . S
O239 Li179 1.956 . S
O239 C214 1.325 . S
H240 C182 0.929 . S
H241 C183 0.930 . S
H242 C184 0.930 . S
H243 C185 0.930 . S
H244 C187 0.930 . S
H245 C189 0.929 . S
H246 C190 0.930 . S
H247 C191 0.930 . S
H248 C194 0.930 . S
H249 C197 0.929 . S
H250 C202 0.929 . S
H251 C203 0.930 . S
H252 C210 0.929 . S
H253 C211 0.930 . S
H254 C212 0.930 . S
H255 C213 0.930 . S
H256 C215 0.929 . S
H257 C216 0.930 . S
H258 C217 0.930 . S
H259 C218 0.930 . S
H260 C222 0.929 . S
H261 C224 0.930 . S
H262 C230 0.929 . S
H263 C231 0.930 . S
Li264 N281 1.990 . S
Li264 O324 1.956 . S
Li264 O325 1.970 . S
Li264 O326 1.961 . S
Li265 N289 1.990 . S
Li265 O324 1.970 . S
Li265 O325 1.956 . S
Li265 O327 1.961 . S
Li266 N311 1.990 . S
Li266 O324 1.961 . S
Li266 O326 1.956 . S
Li266 O327 1.970 . S
Li267 N317 1.990 . S
Li267 O325 1.961 . S
Li267 O326 1.970 . S
Li267 O327 1.956 . S
C268 C270 1.348 . S
C268 C271 1.356 . S
C268 O324 1.325 . S
N269 C272 1.314 . S
N269 C273 1.279 . S
C270 C268 1.348 . S
C270 C272 1.353 . S
C270 H328 0.929 . S
C271 C268 1.356 . S
C271 C273 1.358 . S
C271 H329 0.930 . S
C272 N269 1.314 . S
C272 C270 1.353 . S
C272 H330 0.930 . S
C273 N269 1.279 . S
C273 C271 1.358 . S
C273 H331 0.930 . S
C274 C277 1.348 . S
C274 C278 1.356 . S
C274 O325 1.325 . S
C275 N276 1.279 . S
C275 C278 1.358 . S
C275 H332 0.930 . S
N276 C275 1.279 . S
N276 C279 1.314 . S
C277 C274 1.348 . S
C277 C279 1.353 . S
C277 H333 0.929 . S
C278 C274 1.356 . S
C278 C275 1.358 . S
C278 H334 0.930 . S
C279 N276 1.314 . S
C279 C277 1.353 . S
C279 H335 0.930 . S
C280 N281 1.314 . S
C280 C285 1.353 . S
C280 H286 0.930 . S
N281 Li264 1.990 . S
N281 C280 1.314 . S
N281 C283 1.279 . S
C282 C283 1.358 . S
C282 C284 1.356 . S
C282 H336 0.930 . S
C283 N281 1.279 . S
C283 C282 1.358 . S
C283 H287 0.930 . S
C284 C282 1.356 . S
C284 C285 1.348 . S
C285 C280 1.353 . S
C285 C284 1.348 . S
C285 H337 0.929 . S
H286 C280 0.930 . S
H287 C283 0.930 . S
C288 N289 1.314 . S
C288 C290 1.353 . S
C288 H294 0.930 . S
N289 Li265 1.990 . S
N289 C288 1.314 . S
N289 C292 1.279 . S
C290 C288 1.353 . S
C290 C293 1.348 . S
C290 H338 0.929 . S
C291 C292 1.358 . S
C291 C293 1.356 . S
C291 H339 0.930 . S
C292 N289 1.279 . S
C292 C291 1.358 . S
C292 H295 0.930 . S
C293 C290 1.348 . S
C293 C291 1.356 . S
H294 C288 0.930 . S
H295 C292 0.930 . S
C296 C298 1.348 . S
C296 C299 1.356 . S
C296 O326 1.325 . S
N297 C300 1.314 . S
N297 C301 1.279 . S
C298 C296 1.348 . S
C298 C300 1.353 . S
C298 H340 0.929 . S
C299 C296 1.356 . S
C299 C301 1.358 . S
C299 H341 0.930 . S
C300 N297 1.314 . S
C300 C298 1.353 . S
C300 H342 0.930 . S
C301 N297 1.279 . S
C301 C299 1.358 . S
C301 H343 0.930 . S
C302 C303 1.348 . S
C302 C304 1.356 . S
C302 O327 1.325 . S
C303 C302 1.348 . S
C303 C305 1.353 . S
C303 H344 0.929 . S
C304 C302 1.356 . S
C304 C306 1.358 . S
C304 H345 0.930 . S
C305 C303 1.353 . S
C305 N307 1.314 . S
C305 H346 0.930 . S
C306 C304 1.358 . S
C306 N307 1.279 . S
C306 H347 0.930 . S
N307 C305 1.314 . S
N307 C306 1.279 . S
C308 C310 1.353 . S
C308 N311 1.314 . S
C308 H314 0.930 . S
C309 N311 1.279 . S
C309 C312 1.358 . S
C309 H315 0.930 . S
C310 C308 1.353 . S
C310 C313 1.348 . S
C310 H348 0.929 . S
N311 Li266 1.990 . S
N311 C308 1.314 . S
N311 C309 1.279 . S
C312 C309 1.358 . S
C312 C313 1.356 . S
C312 H349 0.930 . S
C313 C310 1.348 . S
C313 C312 1.356 . S
H314 C308 0.930 . S
H315 C309 0.930 . S
C316 N317 1.314 . S
C316 C318 1.353 . S
C316 H322 0.930 . S
N317 Li267 1.990 . S
N317 C316 1.314 . S
N317 C320 1.279 . S
C318 C316 1.353 . S
C318 C321 1.348 . S
C318 H350 0.929 . S
C319 C320 1.358 . S
C319 C321 1.356 . S
C319 H351 0.930 . S
C320 N317 1.279 . S
C320 C319 1.358 . S
C320 H323 0.930 . S
C321 C318 1.348 . S
C321 C319 1.356 . S
H322 C316 0.930 . S
H323 C320 0.930 . S
O324 Li264 1.956 . S
O324 Li265 1.970 . S
O324 Li266 1.961 . S
O324 C268 1.325 . S
O325 Li264 1.970 . S
O325 Li265 1.956 . S
O325 Li267 1.961 . S
O325 C274 1.325 . S
O326 Li264 1.961 . S
O326 Li266 1.956 . S
O326 Li267 1.970 . S
O326 C296 1.325 . S
O327 Li265 1.961 . S
O327 Li266 1.970 . S
O327 Li267 1.956 . S
O327 C302 1.325 . S
H328 C270 0.929 . S
H329 C271 0.930 . S
H330 C272 0.930 . S
H331 C273 0.930 . S
H332 C275 0.930 . S
H333 C277 0.929 . S
H334 C278 0.930 . S
H335 C279 0.930 . S
H336 C282 0.930 . S
H337 C285 0.929 . S
H338 C290 0.929 . S
H339 C291 0.930 . S
H340 C298 0.929 . S
H341 C299 0.930 . S
H342 C300 0.930 . S
H343 C301 0.930 . S
H344 C303 0.929 . S
H345 C304 0.930 . S
H346 C305 0.930 . S
H347 C306 0.930 . S
H348 C310 0.929 . S
H349 C312 0.930 . S
H350 C318 0.929 . S
H351 C319 0.930 . S
Li352 N369 1.990 . S
Li352 O412 1.956 . S
Li352 O413 1.970 . S
Li352 O414 1.961 . S
Li353 N377 1.990 . S
Li353 O412 1.970 . S
Li353 O413 1.956 . S
Li353 O415 1.961 . S
Li354 N399 1.990 . S
Li354 O412 1.961 . S
Li354 O414 1.956 . S
Li354 O415 1.970 . S
Li355 N405 1.990 . S
Li355 O413 1.961 . S
Li355 O414 1.970 . S
Li355 O415 1.956 . S
C356 C358 1.348 . S
C356 C359 1.356 . S
C356 O412 1.325 . S
N357 C360 1.314 . S
N357 C361 1.279 . S
C358 C356 1.348 . S
C358 C360 1.353 . S
C358 H416 0.929 . S
C359 C356 1.356 . S
C359 C361 1.358 . S
C359 H417 0.930 . S
C360 N357 1.314 . S
C360 C358 1.353 . S
C360 H418 0.930 . S
C361 N357 1.279 . S
C361 C359 1.358 . S
C361 H419 0.930 . S
C362 C365 1.348 . S
C362 C366 1.356 . S
C362 O413 1.325 . S
C363 N364 1.279 . S
C363 C366 1.358 . S
C363 H420 0.930 . S
N364 C363 1.279 . S
N364 C367 1.314 . S
C365 C362 1.348 . S
C365 C367 1.353 . S
C365 H421 0.929 . S
C366 C362 1.356 . S
C366 C363 1.358 . S
C366 H422 0.930 . S
C367 N364 1.314 . S
C367 C365 1.353 . S
C367 H423 0.930 . S
C368 N369 1.314 . S
C368 C373 1.353 . S
C368 H374 0.930 . S
N369 Li352 1.990 . S
N369 C368 1.314 . S
N369 C371 1.279 . S
C370 C371 1.358 . S
C370 C372 1.356 . S
C370 H424 0.930 . S
C371 N369 1.279 . S
C371 C370 1.358 . S
C371 H375 0.930 . S
C372 C370 1.356 . S
C372 C373 1.348 . S
C373 C368 1.353 . S
C373 C372 1.348 . S
C373 H425 0.929 . S
H374 C368 0.930 . S
H375 C371 0.930 . S
C376 N377 1.314 . S
C376 C378 1.353 . S
C376 H382 0.930 . S
N377 Li353 1.990 . S
N377 C376 1.314 . S
N377 C380 1.279 . S
C378 C376 1.353 . S
C378 C381 1.348 . S
C378 H426 0.929 . S
C379 C380 1.358 . S
C379 C381 1.356 . S
C379 H427 0.930 . S
C380 N377 1.279 . S
C380 C379 1.358 . S
C380 H383 0.930 . S
C381 C378 1.348 . S
C381 C379 1.356 . S
H382 C376 0.930 . S
H383 C380 0.930 . S
C384 C386 1.348 . S
C384 C387 1.356 . S
C384 O414 1.325 . S
N385 C388 1.314 . S
N385 C389 1.279 . S
C386 C384 1.348 . S
C386 C388 1.353 . S
C386 H428 0.929 . S
C387 C384 1.356 . S
C387 C389 1.358 . S
C387 H429 0.930 . S
C388 N385 1.314 . S
C388 C386 1.353 . S
C388 H430 0.930 . S
C389 N385 1.279 . S
C389 C387 1.358 . S
C389 H431 0.930 . S
C390 C391 1.348 . S
C390 C392 1.356 . S
C390 O415 1.325 . S
C391 C390 1.348 . S
C391 C393 1.353 . S
C391 H432 0.929 . S
C392 C390 1.356 . S
C392 C394 1.358 . S
C392 H433 0.930 . S
C393 C391 1.353 . S
C393 N395 1.314 . S
C393 H434 0.930 . S
C394 C392 1.358 . S
C394 N395 1.279 . S
C394 H435 0.930 . S
N395 C393 1.314 . S
N395 C394 1.279 . S
C396 C398 1.353 . S
C396 N399 1.314 . S
C396 H402 0.930 . S
C397 N399 1.279 . S
C397 C400 1.358 . S
C397 H403 0.930 . S
C398 C396 1.353 . S
C398 C401 1.348 . S
C398 H436 0.929 . S
N399 Li354 1.990 . S
N399 C396 1.314 . S
N399 C397 1.279 . S
C400 C397 1.358 . S
C400 C401 1.356 . S
C400 H437 0.930 . S
C401 C398 1.348 . S
C401 C400 1.356 . S
H402 C396 0.930 . S
H403 C397 0.930 . S
C404 N405 1.314 . S
C404 C406 1.353 . S
C404 H410 0.930 . S
N405 Li355 1.990 . S
N405 C404 1.314 . S
N405 C408 1.279 . S
C406 C404 1.353 . S
C406 C409 1.348 . S
C406 H438 0.929 . S
C407 C408 1.358 . S
C407 C409 1.356 . S
C407 H439 0.930 . S
C408 N405 1.279 . S
C408 C407 1.358 . S
C408 H411 0.930 . S
C409 C406 1.348 . S
C409 C407 1.356 . S
H410 C404 0.930 . S
H411 C408 0.930 . S
O412 Li352 1.956 . S
O412 Li353 1.970 . S
O412 Li354 1.961 . S
O412 C356 1.325 . S
O413 Li352 1.970 . S
O413 Li353 1.956 . S
O413 Li355 1.961 . S
O413 C362 1.325 . S
O414 Li352 1.961 . S
O414 Li354 1.956 . S
O414 Li355 1.970 . S
O414 C384 1.325 . S
O415 Li353 1.961 . S
O415 Li354 1.970 . S
O415 Li355 1.956 . S
O415 C390 1.325 . S
H416 C358 0.929 . S
H417 C359 0.930 . S
H418 C360 0.930 . S
H419 C361 0.930 . S
H420 C363 0.930 . S
H421 C365 0.929 . S
H422 C366 0.930 . S
H423 C367 0.930 . S
H424 C370 0.930 . S
H425 C373 0.929 . S
H426 C378 0.929 . S
H427 C379 0.930 . S
H428 C386 0.929 . S
H429 C387 0.930 . S
H430 C388 0.930 . S
H431 C389 0.930 . S
H432 C391 0.929 . S
H433 C392 0.930 . S
H434 C393 0.930 . S
H435 C394 0.930 . S
H436 C398 0.929 . S
H437 C400 0.930 . S
H438 C406 0.929 . S
H439 C407 0.930 . S
Li440 N457 1.990 . S
Li440 O500 1.956 . S
Li440 O501 1.970 . S
Li440 O502 1.961 . S
Li441 N465 1.990 . S
Li441 O500 1.970 . S
Li441 O501 1.956 . S
Li441 O503 1.961 . S
Li442 N487 1.990 . S
Li442 O500 1.961 . S
Li442 O502 1.956 . S
Li442 O503 1.970 . S
Li443 N493 1.990 . S
Li443 O501 1.961 . S
Li443 O502 1.970 . S
Li443 O503 1.956 . S
C444 C446 1.348 . S
C444 C447 1.356 . S
C444 O500 1.325 . S
N445 C448 1.314 . S
N445 C449 1.279 . S
C446 C444 1.348 . S
C446 C448 1.353 . S
C446 H504 0.929 . S
C447 C444 1.356 . S
C447 C449 1.358 . S
C447 H505 0.930 . S
C448 N445 1.314 . S
C448 C446 1.353 . S
C448 H506 0.930 . S
C449 N445 1.279 . S
C449 C447 1.358 . S
C449 H507 0.930 . S
C450 C453 1.348 . S
C450 C454 1.356 . S
C450 O501 1.325 . S
C451 N452 1.279 . S
C451 C454 1.358 . S
C451 H508 0.930 . S
N452 C451 1.279 . S
N452 C455 1.314 . S
C453 C450 1.348 . S
C453 C455 1.353 . S
C453 H509 0.929 . S
C454 C450 1.356 . S
C454 C451 1.358 . S
C454 H510 0.930 . S
C455 N452 1.314 . S
C455 C453 1.353 . S
C455 H511 0.930 . S
C456 N457 1.314 . S
C456 C461 1.353 . S
C456 H462 0.930 . S
N457 Li440 1.990 . S
N457 C456 1.314 . S
N457 C459 1.279 . S
C458 C459 1.358 . S
C458 C460 1.356 . S
C458 H512 0.930 . S
C459 N457 1.279 . S
C459 C458 1.358 . S
C459 H463 0.930 . S
C460 C458 1.356 . S
C460 C461 1.348 . S
C461 C456 1.353 . S
C461 C460 1.348 . S
C461 H513 0.929 . S
H462 C456 0.930 . S
H463 C459 0.930 . S
C464 N465 1.314 . S
C464 C466 1.353 . S
C464 H470 0.930 . S
N465 Li441 1.990 . S
N465 C464 1.314 . S
N465 C468 1.279 . S
C466 C464 1.353 . S
C466 C469 1.348 . S
C466 H514 0.929 . S
C467 C468 1.358 . S
C467 C469 1.356 . S
C467 H515 0.930 . S
C468 N465 1.279 . S
C468 C467 1.358 . S
C468 H471 0.930 . S
C469 C466 1.348 . S
C469 C467 1.356 . S
H470 C464 0.930 . S
H471 C468 0.930 . S
C472 C474 1.348 . S
C472 C475 1.356 . S
C472 O502 1.325 . S
N473 C476 1.314 . S
N473 C477 1.279 . S
C474 C472 1.348 . S
C474 C476 1.353 . S
C474 H516 0.929 . S
C475 C472 1.356 . S
C475 C477 1.358 . S
C475 H517 0.930 . S
C476 N473 1.314 . S
C476 C474 1.353 . S
C476 H518 0.930 . S
C477 N473 1.279 . S
C477 C475 1.358 . S
C477 H519 0.930 . S
C478 C479 1.348 . S
C478 C480 1.356 . S
C478 O503 1.325 . S
C479 C478 1.348 . S
C479 C481 1.353 . S
C479 H520 0.929 . S
C480 C478 1.356 . S
C480 C482 1.358 . S
C480 H521 0.930 . S
C481 C479 1.353 . S
C481 N483 1.314 . S
C481 H522 0.930 . S
C482 C480 1.358 . S
C482 N483 1.279 . S
C482 H523 0.930 . S
N483 C481 1.314 . S
N483 C482 1.279 . S
C484 C486 1.353 . S
C484 N487 1.314 . S
C484 H490 0.930 . S
C485 N487 1.279 . S
C485 C488 1.358 . S
C485 H491 0.930 . S
C486 C484 1.353 . S
C486 C489 1.348 . S
C486 H524 0.929 . S
N487 Li442 1.990 . S
N487 C484 1.314 . S
N487 C485 1.279 . S
C488 C485 1.358 . S
C488 C489 1.356 . S
C488 H525 0.930 . S
C489 C486 1.348 . S
C489 C488 1.356 . S
H490 C484 0.930 . S
H491 C485 0.930 . S
C492 N493 1.314 . S
C492 C494 1.353 . S
C492 H498 0.930 . S
N493 Li443 1.990 . S
N493 C492 1.314 . S
N493 C496 1.279 . S
C494 C492 1.353 . S
C494 C497 1.348 . S
C494 H526 0.929 . S
C495 C496 1.358 . S
C495 C497 1.356 . S
C495 H527 0.930 . S
C496 N493 1.279 . S
C496 C495 1.358 . S
C496 H499 0.930 . S
C497 C494 1.348 . S
C497 C495 1.356 . S
H498 C492 0.930 . S
H499 C496 0.930 . S
O500 Li440 1.956 . S
O500 Li441 1.970 . S
O500 Li442 1.961 . S
O500 C444 1.325 . S
O501 Li440 1.970 . S
O501 Li441 1.956 . S
O501 Li443 1.961 . S
O501 C450 1.325 . S
O502 Li440 1.961 . S
O502 Li442 1.956 . S
O502 Li443 1.970 . S
O502 C472 1.325 . S
O503 Li441 1.961 . S
O503 Li442 1.970 . S
O503 Li443 1.956 . S
O503 C478 1.325 . S
H504 C446 0.929 . S
H505 C447 0.930 . S
H506 C448 0.930 . S
H507 C449 0.930 . S
H508 C451 0.930 . S
H509 C453 0.929 . S
H510 C454 0.930 . S
H511 C455 0.930 . S
H512 C458 0.930 . S
H513 C461 0.929 . S
H514 C466 0.929 . S
H515 C467 0.930 . S
H516 C474 0.929 . S
H517 C475 0.930 . S
H518 C476 0.930 . S
H519 C477 0.930 . S
H520 C479 0.929 . S
H521 C480 0.930 . S
H522 C481 0.930 . S
H523 C482 0.930 . S
H524 C486 0.929 . S
H525 C488 0.930 . S
H526 C494 0.929 . S
H527 C495 0.930 . S
Li528 N545 1.990 . S
Li528 O588 1.956 . S
Li528 O589 1.970 . S
Li528 O590 1.961 . S
Li529 N553 1.990 . S
Li529 O588 1.970 . S
Li529 O589 1.956 . S
Li529 O591 1.961 . S
Li530 N575 1.990 . S
Li530 O588 1.961 . S
Li530 O590 1.956 . S
Li530 O591 1.970 . S
Li531 N581 1.990 . S
Li531 O589 1.961 . S
Li531 O590 1.970 . S
Li531 O591 1.956 . S
C532 C534 1.348 . S
C532 C535 1.356 . S
C532 O588 1.325 . S
N533 C536 1.314 . S
N533 C537 1.279 . S
C534 C532 1.348 . S
C534 C536 1.353 . S
C534 H592 0.929 . S
C535 C532 1.356 . S
C535 C537 1.358 . S
C535 H593 0.930 . S
C536 N533 1.314 . S
C536 C534 1.353 . S
C536 H594 0.930 . S
C537 N533 1.279 . S
C537 C535 1.358 . S
C537 H595 0.930 . S
C538 C541 1.348 . S
C538 C542 1.356 . S
C538 O589 1.325 . S
C539 N540 1.279 . S
C539 C542 1.358 . S
C539 H596 0.930 . S
N540 C539 1.279 . S
N540 C543 1.314 . S
C541 C538 1.348 . S
C541 C543 1.353 . S
C541 H597 0.929 . S
C542 C538 1.356 . S
C542 C539 1.358 . S
C542 H598 0.930 . S
C543 N540 1.314 . S
C543 C541 1.353 . S
C543 H599 0.930 . S
C544 N545 1.314 . S
C544 C549 1.353 . S
C544 H550 0.930 . S
N545 Li528 1.990 . S
N545 C544 1.314 . S
N545 C547 1.279 . S
C546 C547 1.358 . S
C546 C548 1.356 . S
C546 H600 0.930 . S
C547 N545 1.279 . S
C547 C546 1.358 . S
C547 H551 0.930 . S
C548 C546 1.356 . S
C548 C549 1.348 . S
C549 C544 1.353 . S
C549 C548 1.348 . S
C549 H601 0.929 . S
H550 C544 0.930 . S
H551 C547 0.930 . S
C552 N553 1.314 . S
C552 C554 1.353 . S
C552 H558 0.930 . S
N553 Li529 1.990 . S
N553 C552 1.314 . S
N553 C556 1.279 . S
C554 C552 1.353 . S
C554 C557 1.348 . S
C554 H602 0.929 . S
C555 C556 1.358 . S
C555 C557 1.356 . S
C555 H603 0.930 . S
C556 N553 1.279 . S
C556 C555 1.358 . S
C556 H559 0.930 . S
C557 C554 1.348 . S
C557 C555 1.356 . S
H558 C552 0.930 . S
H559 C556 0.930 . S
C560 C562 1.348 . S
C560 C563 1.356 . S
C560 O590 1.325 . S
N561 C564 1.314 . S
N561 C565 1.279 . S
C562 C560 1.348 . S
C562 C564 1.353 . S
C562 H604 0.929 . S
C563 C560 1.356 . S
C563 C565 1.358 . S
C563 H605 0.930 . S
C564 N561 1.314 . S
C564 C562 1.353 . S
C564 H606 0.930 . S
C565 N561 1.279 . S
C565 C563 1.358 . S
C565 H607 0.930 . S
C566 C567 1.348 . S
C566 C568 1.356 . S
C566 O591 1.325 . S
C567 C566 1.348 . S
C567 C569 1.353 . S
C567 H608 0.929 . S
C568 C566 1.356 . S
C568 C570 1.358 . S
C568 H609 0.930 . S
C569 C567 1.353 . S
C569 N571 1.314 . S
C569 H610 0.930 . S
C570 C568 1.358 . S
C570 N571 1.279 . S
C570 H611 0.930 . S
N571 C569 1.314 . S
N571 C570 1.279 . S
C572 C574 1.353 . S
C572 N575 1.314 . S
C572 H578 0.930 . S
C573 N575 1.279 . S
C573 C576 1.358 . S
C573 H579 0.930 . S
C574 C572 1.353 . S
C574 C577 1.348 . S
C574 H612 0.929 . S
N575 Li530 1.990 . S
N575 C572 1.314 . S
N575 C573 1.279 . S
C576 C573 1.358 . S
C576 C577 1.356 . S
C576 H613 0.930 . S
C577 C574 1.348 . S
C577 C576 1.356 . S
H578 C572 0.930 . S
H579 C573 0.930 . S
C580 N581 1.314 . S
C580 C582 1.353 . S
C580 H586 0.930 . S
N581 Li531 1.990 . S
N581 C580 1.314 . S
N581 C584 1.279 . S
C582 C580 1.353 . S
C582 C585 1.348 . S
C582 H614 0.929 . S
C583 C584 1.358 . S
C583 C585 1.356 . S
C583 H615 0.930 . S
C584 N581 1.279 . S
C584 C583 1.358 . S
C584 H587 0.930 . S
C585 C582 1.348 . S
C585 C583 1.356 . S
H586 C580 0.930 . S
H587 C584 0.930 . S
O588 Li528 1.956 . S
O588 Li529 1.970 . S
O588 Li530 1.961 . S
O588 C532 1.325 . S
O589 Li528 1.970 . S
O589 Li529 1.956 . S
O589 Li531 1.961 . S
O589 C538 1.325 . S
O590 Li528 1.961 . S
O590 Li530 1.956 . S
O590 Li531 1.970 . S
O590 C560 1.325 . S
O591 Li529 1.961 . S
O591 Li530 1.970 . S
O591 Li531 1.956 . S
O591 C566 1.325 . S
H592 C534 0.929 . S
H593 C535 0.930 . S
H594 C536 0.930 . S
H595 C537 0.930 . S
H596 C539 0.930 . S
H597 C541 0.929 . S
H598 C542 0.930 . S
H599 C543 0.930 . S
H600 C546 0.930 . S
H601 C549 0.929 . S
H602 C554 0.929 . S
H603 C555 0.930 . S
H604 C562 0.929 . S
H605 C563 0.930 . S
H606 C564 0.930 . S
H607 C565 0.930 . S
H608 C567 0.929 . S
H609 C568 0.930 . S
H610 C569 0.930 . S
H611 C570 0.930 . S
H612 C574 0.929 . S
H613 C576 0.930 . S
H614 C582 0.929 . S
H615 C583 0.930 . S
Li616 N633 1.990 . S
Li616 O676 1.956 . S
Li616 O677 1.970 . S
Li616 O678 1.961 . S
Li617 N641 1.990 . S
Li617 O676 1.970 . S
Li617 O677 1.956 . S
Li617 O679 1.961 . S
Li618 N663 1.990 . S
Li618 O676 1.961 . S
Li618 O678 1.956 . S
Li618 O679 1.970 . S
Li619 N669 1.990 . S
Li619 O677 1.961 . S
Li619 O678 1.970 . S
Li619 O679 1.956 . S
C620 C622 1.348 . S
C620 C623 1.356 . S
C620 O676 1.325 . S
N621 C624 1.314 . S
N621 C625 1.279 . S
C622 C620 1.348 . S
C622 C624 1.353 . S
C622 H680 0.929 . S
C623 C620 1.356 . S
C623 C625 1.358 . S
C623 H681 0.930 . S
C624 N621 1.314 . S
C624 C622 1.353 . S
C624 H682 0.930 . S
C625 N621 1.279 . S
C625 C623 1.358 . S
C625 H683 0.930 . S
C626 C629 1.348 . S
C626 C630 1.356 . S
C626 O677 1.325 . S
C627 N628 1.279 . S
C627 C630 1.358 . S
C627 H684 0.930 . S
N628 C627 1.279 . S
N628 C631 1.314 . S
C629 C626 1.348 . S
C629 C631 1.353 . S
C629 H685 0.929 . S
C630 C626 1.356 . S
C630 C627 1.358 . S
C630 H686 0.930 . S
C631 N628 1.314 . S
C631 C629 1.353 . S
C631 H687 0.930 . S
C632 N633 1.314 . S
C632 C637 1.353 . S
C632 H638 0.930 . S
N633 Li616 1.990 . S
N633 C632 1.314 . S
N633 C635 1.279 . S
C634 C635 1.358 . S
C634 C636 1.356 . S
C634 H688 0.930 . S
C635 N633 1.279 . S
C635 C634 1.358 . S
C635 H639 0.930 . S
C636 C634 1.356 . S
C636 C637 1.348 . S
C637 C632 1.353 . S
C637 C636 1.348 . S
C637 H689 0.929 . S
H638 C632 0.930 . S
H639 C635 0.930 . S
C640 N641 1.314 . S
C640 C642 1.353 . S
C640 H646 0.930 . S
N641 Li617 1.990 . S
N641 C640 1.314 . S
N641 C644 1.279 . S
C642 C640 1.353 . S
C642 C645 1.348 . S
C642 H690 0.929 . S
C643 C644 1.358 . S
C643 C645 1.356 . S
C643 H691 0.930 . S
C644 N641 1.279 . S
C644 C643 1.358 . S
C644 H647 0.930 . S
C645 C642 1.348 . S
C645 C643 1.356 . S
H646 C640 0.930 . S
H647 C644 0.930 . S
C648 C650 1.348 . S
C648 C651 1.356 . S
C648 O678 1.325 . S
N649 C652 1.314 . S
N649 C653 1.279 . S
C650 C648 1.348 . S
C650 C652 1.353 . S
C650 H692 0.929 . S
C651 C648 1.356 . S
C651 C653 1.358 . S
C651 H693 0.930 . S
C652 N649 1.314 . S
C652 C650 1.353 . S
C652 H694 0.930 . S
C653 N649 1.279 . S
C653 C651 1.358 . S
C653 H695 0.930 . S
C654 C655 1.348 . S
C654 C656 1.356 . S
C654 O679 1.325 . S
C655 C654 1.348 . S
C655 C657 1.353 . S
C655 H696 0.929 . S
C656 C654 1.356 . S
C656 C658 1.358 . S
C656 H697 0.930 . S
C657 C655 1.353 . S
C657 N659 1.314 . S
C657 H698 0.930 . S
C658 C656 1.358 . S
C658 N659 1.279 . S
C658 H699 0.930 . S
N659 C657 1.314 . S
N659 C658 1.279 . S
C660 C662 1.353 . S
C660 N663 1.314 . S
C660 H666 0.930 . S
C661 N663 1.279 . S
C661 C664 1.358 . S
C661 H667 0.930 . S
C662 C660 1.353 . S
C662 C665 1.348 . S
C662 H700 0.929 . S
N663 Li618 1.990 . S
N663 C660 1.314 . S
N663 C661 1.279 . S
C664 C661 1.358 . S
C664 C665 1.356 . S
C664 H701 0.930 . S
C665 C662 1.348 . S
C665 C664 1.356 . S
H666 C660 0.930 . S
H667 C661 0.930 . S
C668 N669 1.314 . S
C668 C670 1.353 . S
C668 H674 0.930 . S
N669 Li619 1.990 . S
N669 C668 1.314 . S
N669 C672 1.279 . S
C670 C668 1.353 . S
C670 C673 1.348 . S
C670 H702 0.929 . S
C671 C672 1.358 . S
C671 C673 1.356 . S
C671 H703 0.930 . S
C672 N669 1.279 . S
C672 C671 1.358 . S
C672 H675 0.930 . S
C673 C670 1.348 . S
C673 C671 1.356 . S
H674 C668 0.930 . S
H675 C672 0.930 . S
O676 Li616 1.956 . S
O676 Li617 1.970 . S
O676 Li618 1.961 . S
O676 C620 1.325 . S
O677 Li616 1.970 . S
O677 Li617 1.956 . S
O677 Li619 1.961 . S
O677 C626 1.325 . S
O678 Li616 1.961 . S
O678 Li618 1.956 . S
O678 Li619 1.970 . S
O678 C648 1.325 . S
O679 Li617 1.961 . S
O679 Li618 1.970 . S
O679 Li619 1.956 . S
O679 C654 1.325 . S
H680 C622 0.929 . S
H681 C623 0.930 . S
H682 C624 0.930 . S
H683 C625 0.930 . S
H684 C627 0.930 . S
H685 C629 0.929 . S
H686 C630 0.930 . S
H687 C631 0.930 . S
H688 C634 0.930 . S
H689 C637 0.929 . S
H690 C642 0.929 . S
H691 C643 0.930 . S
H692 C650 0.929 . S
H693 C651 0.930 . S
H694 C652 0.930 . S
H695 C653 0.930 . S
H696 C655 0.929 . S
H697 C656 0.930 . S
H698 C657 0.930 . S
H699 C658 0.930 . S
H700 C662 0.929 . S
H701 C664 0.930 . S
H702 C670 0.929 . S
H703 C671 0.930 . S
Li704 N721 1.990 . S
Li704 O764 1.956 . S
Li704 O765 1.970 . S
Li704 O766 1.961 . S
Li705 N729 1.990 . S
Li705 O764 1.970 . S
Li705 O765 1.956 . S
Li705 O767 1.961 . S
Li706 N751 1.990 . S
Li706 O764 1.961 . S
Li706 O766 1.956 . S
Li706 O767 1.970 . S
Li707 N757 1.990 . S
Li707 O765 1.961 . S
Li707 O766 1.970 . S
Li707 O767 1.956 . S
C708 C710 1.348 . S
C708 C711 1.356 . S
C708 O764 1.325 . S
N709 C712 1.314 . S
N709 C713 1.279 . S
C710 C708 1.348 . S
C710 C712 1.353 . S
C710 H768 0.929 . S
C711 C708 1.356 . S
C711 C713 1.358 . S
C711 H769 0.930 . S
C712 N709 1.314 . S
C712 C710 1.353 . S
C712 H770 0.930 . S
C713 N709 1.279 . S
C713 C711 1.358 . S
C713 H771 0.930 . S
C714 C717 1.348 . S
C714 C718 1.356 . S
C714 O765 1.325 . S
C715 N716 1.279 . S
C715 C718 1.358 . S
C715 H772 0.930 . S
N716 C715 1.279 . S
N716 C719 1.314 . S
C717 C714 1.348 . S
C717 C719 1.353 . S
C717 H773 0.929 . S
C718 C714 1.356 . S
C718 C715 1.358 . S
C718 H774 0.930 . S
C719 N716 1.314 . S
C719 C717 1.353 . S
C719 H775 0.930 . S
C720 N721 1.314 . S
C720 C725 1.353 . S
C720 H726 0.930 . S
N721 Li704 1.990 . S
N721 C720 1.314 . S
N721 C723 1.279 . S
C722 C723 1.358 . S
C722 C724 1.356 . S
C722 H776 0.930 . S
C723 N721 1.279 . S
C723 C722 1.358 . S
C723 H727 0.930 . S
C724 C722 1.356 . S
C724 C725 1.348 . S
C725 C720 1.353 . S
C725 C724 1.348 . S
C725 H777 0.929 . S
H726 C720 0.930 . S
H727 C723 0.930 . S
C728 N729 1.314 . S
C728 C730 1.353 . S
C728 H734 0.930 . S
N729 Li705 1.990 . S
N729 C728 1.314 . S
N729 C732 1.279 . S
C730 C728 1.353 . S
C730 C733 1.348 . S
C730 H778 0.929 . S
C731 C732 1.358 . S
C731 C733 1.356 . S
C731 H779 0.930 . S
C732 N729 1.279 . S
C732 C731 1.358 . S
C732 H735 0.930 . S
C733 C730 1.348 . S
C733 C731 1.356 . S
H734 C728 0.930 . S
H735 C732 0.930 . S
C736 C738 1.348 . S
C736 C739 1.356 . S
C736 O766 1.325 . S
N737 C740 1.314 . S
N737 C741 1.279 . S
C738 C736 1.348 . S
C738 C740 1.353 . S
C738 H780 0.929 . S
C739 C736 1.356 . S
C739 C741 1.358 . S
C739 H781 0.930 . S
C740 N737 1.314 . S
C740 C738 1.353 . S
C740 H782 0.930 . S
C741 N737 1.279 . S
C741 C739 1.358 . S
C741 H783 0.930 . S
C742 C743 1.348 . S
C742 C744 1.356 . S
C742 O767 1.325 . S
C743 C742 1.348 . S
C743 C745 1.353 . S
C743 H784 0.929 . S
C744 C742 1.356 . S
C744 C746 1.358 . S
C744 H785 0.930 . S
C745 C743 1.353 . S
C745 N747 1.314 . S
C745 H786 0.930 . S
C746 C744 1.358 . S
C746 N747 1.279 . S
C746 H787 0.930 . S
N747 C745 1.314 . S
N747 C746 1.279 . S
C748 C750 1.353 . S
C748 N751 1.314 . S
C748 H754 0.930 . S
C749 N751 1.279 . S
C749 C752 1.358 . S
C749 H755 0.930 . S
C750 C748 1.353 . S
C750 C753 1.348 . S
C750 H788 0.929 . S
N751 Li706 1.990 . S
N751 C748 1.314 . S
N751 C749 1.279 . S
C752 C749 1.358 . S
C752 C753 1.356 . S
C752 H789 0.930 . S
C753 C750 1.348 . S
C753 C752 1.356 . S
H754 C748 0.930 . S
H755 C749 0.930 . S
C756 N757 1.314 . S
C756 C758 1.353 . S
C756 H762 0.930 . S
N757 Li707 1.990 . S
N757 C756 1.314 . S
N757 C760 1.279 . S
C758 C756 1.353 . S
C758 C761 1.348 . S
C758 H790 0.929 . S
C759 C760 1.358 . S
C759 C761 1.356 . S
C759 H791 0.930 . S
C760 N757 1.279 . S
C760 C759 1.358 . S
C760 H763 0.930 . S
C761 C758 1.348 . S
C761 C759 1.356 . S
H762 C756 0.930 . S
H763 C760 0.930 . S
O764 Li704 1.956 . S
O764 Li705 1.970 . S
O764 Li706 1.961 . S
O764 C708 1.325 . S
O765 Li704 1.970 . S
O765 Li705 1.956 . S
O765 Li707 1.961 . S
O765 C714 1.325 . S
O766 Li704 1.961 . S
O766 Li706 1.956 . S
O766 Li707 1.970 . S
O766 C736 1.325 . S
O767 Li705 1.961 . S
O767 Li706 1.970 . S
O767 Li707 1.956 . S
O767 C742 1.325 . S
H768 C710 0.929 . S
H769 C711 0.930 . S
H770 C712 0.930 . S
H771 C713 0.930 . S
H772 C715 0.930 . S
H773 C717 0.929 . S
H774 C718 0.930 . S
H775 C719 0.930 . S
H776 C722 0.930 . S
H777 C725 0.929 . S
H778 C730 0.929 . S
H779 C731 0.930 . S
H780 C738 0.929 . S
H781 C739 0.930 . S
H782 C740 0.930 . S
H783 C741 0.930 . S
H784 C743 0.929 . S
H785 C744 0.930 . S
H786 C745 0.930 . S
H787 C746 0.930 . S
H788 C750 0.929 . S
H789 C752 0.930 . S
H790 C758 0.929 . S
H791 C759 0.930 . S
Li792 N809 1.990 . S
Li792 O852 1.956 . S
Li792 O853 1.970 . S
Li792 O854 1.961 . S
Li793 N817 1.990 . S
Li793 O852 1.970 . S
Li793 O853 1.956 . S
Li793 O855 1.961 . S
Li794 N839 1.990 . S
Li794 O852 1.961 . S
Li794 O854 1.956 . S
Li794 O855 1.970 . S
Li795 N845 1.990 . S
Li795 O853 1.961 . S
Li795 O854 1.970 . S
Li795 O855 1.956 . S
C796 C798 1.348 . S
C796 C799 1.356 . S
C796 O852 1.325 . S
N797 C800 1.314 . S
N797 C801 1.279 . S
C798 C796 1.348 . S
C798 C800 1.353 . S
C798 H856 0.929 . S
C799 C796 1.356 . S
C799 C801 1.358 . S
C799 H857 0.930 . S
C800 N797 1.314 . S
C800 C798 1.353 . S
C800 H858 0.930 . S
C801 N797 1.279 . S
C801 C799 1.358 . S
C801 H859 0.930 . S
C802 C805 1.348 . S
C802 C806 1.356 . S
C802 O853 1.325 . S
C803 N804 1.279 . S
C803 C806 1.358 . S
C803 H860 0.930 . S
N804 C803 1.279 . S
N804 C807 1.314 . S
C805 C802 1.348 . S
C805 C807 1.353 . S
C805 H861 0.929 . S
C806 C802 1.356 . S
C806 C803 1.358 . S
C806 H862 0.930 . S
C807 N804 1.314 . S
C807 C805 1.353 . S
C807 H863 0.930 . S
C808 N809 1.314 . S
C808 C813 1.353 . S
C808 H814 0.930 . S
N809 Li792 1.990 . S
N809 C808 1.314 . S
N809 C811 1.279 . S
C810 C811 1.358 . S
C810 C812 1.356 . S
C810 H864 0.930 . S
C811 N809 1.279 . S
C811 C810 1.358 . S
C811 H815 0.930 . S
C812 C810 1.356 . S
C812 C813 1.348 . S
C813 C808 1.353 . S
C813 C812 1.348 . S
C813 H865 0.929 . S
H814 C808 0.930 . S
H815 C811 0.930 . S
C816 N817 1.314 . S
C816 C818 1.353 . S
C816 H822 0.930 . S
N817 Li793 1.990 . S
N817 C816 1.314 . S
N817 C820 1.279 . S
C818 C816 1.353 . S
C818 C821 1.348 . S
C818 H866 0.929 . S
C819 C820 1.358 . S
C819 C821 1.356 . S
C819 H867 0.930 . S
C820 N817 1.279 . S
C820 C819 1.358 . S
C820 H823 0.930 . S
C821 C818 1.348 . S
C821 C819 1.356 . S
H822 C816 0.930 . S
H823 C820 0.930 . S
C824 C826 1.348 . S
C824 C827 1.356 . S
C824 O854 1.325 . S
N825 C828 1.314 . S
N825 C829 1.279 . S
C826 C824 1.348 . S
C826 C828 1.353 . S
C826 H868 0.929 . S
C827 C824 1.356 . S
C827 C829 1.358 . S
C827 H869 0.930 . S
C828 N825 1.314 . S
C828 C826 1.353 . S
C828 H870 0.930 . S
C829 N825 1.279 . S
C829 C827 1.358 . S
C829 H871 0.930 . S
C830 C831 1.348 . S
C830 C832 1.356 . S
C830 O855 1.325 . S
C831 C830 1.348 . S
C831 C833 1.353 . S
C831 H872 0.929 . S
C832 C830 1.356 . S
C832 C834 1.358 . S
C832 H873 0.930 . S
C833 C831 1.353 . S
C833 N835 1.314 . S
C833 H874 0.930 . S
C834 C832 1.358 . S
C834 N835 1.279 . S
C834 H875 0.930 . S
N835 C833 1.314 . S
N835 C834 1.279 . S
C836 C838 1.353 . S
C836 N839 1.314 . S
C836 H842 0.930 . S
C837 N839 1.279 . S
C837 C840 1.358 . S
C837 H843 0.930 . S
C838 C836 1.353 . S
C838 C841 1.348 . S
C838 H876 0.929 . S
N839 Li794 1.990 . S
N839 C836 1.314 . S
N839 C837 1.279 . S
C840 C837 1.358 . S
C840 C841 1.356 . S
C840 H877 0.930 . S
C841 C838 1.348 . S
C841 C840 1.356 . S
H842 C836 0.930 . S
H843 C837 0.930 . S
C844 N845 1.314 . S
C844 C846 1.353 . S
C844 H850 0.930 . S
N845 Li795 1.990 . S
N845 C844 1.314 . S
N845 C848 1.279 . S
C846 C844 1.353 . S
C846 C849 1.348 . S
C846 H878 0.929 . S
C847 C848 1.358 . S
C847 C849 1.356 . S
C847 H879 0.930 . S
C848 N845 1.279 . S
C848 C847 1.358 . S
C848 H851 0.930 . S
C849 C846 1.348 . S
C849 C847 1.356 . S
H850 C844 0.930 . S
H851 C848 0.930 . S
O852 Li792 1.956 . S
O852 Li793 1.970 . S
O852 Li794 1.961 . S
O852 C796 1.325 . S
O853 Li792 1.970 . S
O853 Li793 1.956 . S
O853 Li795 1.961 . S
O853 C802 1.325 . S
O854 Li792 1.961 . S
O854 Li794 1.956 . S
O854 Li795 1.970 . S
O854 C824 1.325 . S
O855 Li793 1.961 . S
O855 Li794 1.970 . S
O855 Li795 1.956 . S
O855 C830 1.325 . S
H856 C798 0.929 . S
H857 C799 0.930 . S
H858 C800 0.930 . S
H859 C801 0.930 . S
H860 C803 0.930 . S
H861 C805 0.929 . S
H862 C806 0.930 . S
H863 C807 0.930 . S
H864 C810 0.930 . S
H865 C813 0.929 . S
H866 C818 0.929 . S
H867 C819 0.930 . S
H868 C826 0.929 . S
H869 C827 0.930 . S
H870 C828 0.930 . S
H871 C829 0.930 . S
H872 C831 0.929 . S
H873 C832 0.930 . S
H874 C833 0.930 . S
H875 C834 0.930 . S
H876 C838 0.929 . S
H877 C840 0.930 . S
H878 C846 0.929 . S
H879 C847 0.930 . S
Li880 N897 1.990 . S
Li880 O940 1.956 . S
Li880 O941 1.970 . S
Li880 O942 1.961 . S
Li881 N905 1.990 . S
Li881 O940 1.970 . S
Li881 O941 1.956 . S
Li881 O943 1.961 . S
Li882 N927 1.990 . S
Li882 O940 1.961 . S
Li882 O942 1.956 . S
Li882 O943 1.970 . S
Li883 N933 1.990 . S
Li883 O941 1.961 . S
Li883 O942 1.970 . S
Li883 O943 1.956 . S
C884 C886 1.348 . S
C884 C887 1.356 . S
C884 O940 1.325 . S
N885 C888 1.314 . S
N885 C889 1.279 . S
C886 C884 1.348 . S
C886 C888 1.353 . S
C886 H944 0.929 . S
C887 C884 1.356 . S
C887 C889 1.358 . S
C887 H945 0.930 . S
C888 N885 1.314 . S
C888 C886 1.353 . S
C888 H946 0.930 . S
C889 N885 1.279 . S
C889 C887 1.358 . S
C889 H947 0.930 . S
C890 C893 1.348 . S
C890 C894 1.356 . S
C890 O941 1.325 . S
C891 N892 1.279 . S
C891 C894 1.358 . S
C891 H948 0.930 . S
N892 C891 1.279 . S
N892 C895 1.314 . S
C893 C890 1.348 . S
C893 C895 1.353 . S
C893 H949 0.929 . S
C894 C890 1.356 . S
C894 C891 1.358 . S
C894 H950 0.930 . S
C895 N892 1.314 . S
C895 C893 1.353 . S
C895 H951 0.930 . S
C896 N897 1.314 . S
C896 C901 1.353 . S
C896 H902 0.930 . S
N897 Li880 1.990 . S
N897 C896 1.314 . S
N897 C899 1.279 . S
C898 C899 1.358 . S
C898 C900 1.356 . S
C898 H952 0.930 . S
C899 N897 1.279 . S
C899 C898 1.358 . S
C899 H903 0.930 . S
C900 C898 1.356 . S
C900 C901 1.348 . S
C901 C896 1.353 . S
C901 C900 1.348 . S
C901 H953 0.929 . S
H902 C896 0.930 . S
H903 C899 0.930 . S
C904 N905 1.314 . S
C904 C906 1.353 . S
C904 H910 0.930 . S
N905 Li881 1.990 . S
N905 C904 1.314 . S
N905 C908 1.279 . S
C906 C904 1.353 . S
C906 C909 1.348 . S
C906 H954 0.929 . S
C907 C908 1.358 . S
C907 C909 1.356 . S
C907 H955 0.930 . S
C908 N905 1.279 . S
C908 C907 1.358 . S
C908 H911 0.930 . S
C909 C906 1.348 . S
C909 C907 1.356 . S
H910 C904 0.930 . S
H911 C908 0.930 . S
C912 C914 1.348 . S
C912 C915 1.356 . S
C912 O942 1.325 . S
N913 C916 1.314 . S
N913 C917 1.279 . S
C914 C912 1.348 . S
C914 C916 1.353 . S
C914 H956 0.929 . S
C915 C912 1.356 . S
C915 C917 1.358 . S
C915 H957 0.930 . S
C916 N913 1.314 . S
C916 C914 1.353 . S
C916 H958 0.930 . S
C917 N913 1.279 . S
C917 C915 1.358 . S
C917 H959 0.930 . S
C918 C919 1.348 . S
C918 C920 1.356 . S
C918 O943 1.325 . S
C919 C918 1.348 . S
C919 C921 1.353 . S
C919 H960 0.929 . S
C920 C918 1.356 . S
C920 C922 1.358 . S
C920 H961 0.930 . S
C921 C919 1.353 . S
C921 N923 1.314 . S
C921 H962 0.930 . S
C922 C920 1.358 . S
C922 N923 1.279 . S
C922 H963 0.930 . S
N923 C921 1.314 . S
N923 C922 1.279 . S
C924 C926 1.353 . S
C924 N927 1.314 . S
C924 H930 0.930 . S
C925 N927 1.279 . S
C925 C928 1.358 . S
C925 H931 0.930 . S
C926 C924 1.353 . S
C926 C929 1.348 . S
C926 H964 0.929 . S
N927 Li882 1.990 . S
N927 C924 1.314 . S
N927 C925 1.279 . S
C928 C925 1.358 . S
C928 C929 1.356 . S
C928 H965 0.930 . S
C929 C926 1.348 . S
C929 C928 1.356 . S
H930 C924 0.930 . S
H931 C925 0.930 . S
C932 N933 1.314 . S
C932 C934 1.353 . S
C932 H938 0.930 . S
N933 Li883 1.990 . S
N933 C932 1.314 . S
N933 C936 1.279 . S
C934 C932 1.353 . S
C934 C937 1.348 . S
C934 H966 0.929 . S
C935 C936 1.358 . S
C935 C937 1.356 . S
C935 H967 0.930 . S
C936 N933 1.279 . S
C936 C935 1.358 . S
C936 H939 0.930 . S
C937 C934 1.348 . S
C937 C935 1.356 . S
H938 C932 0.930 . S
H939 C936 0.930 . S
O940 Li880 1.956 . S
O940 Li881 1.970 . S
O940 Li882 1.961 . S
O940 C884 1.325 . S
O941 Li880 1.970 . S
O941 Li881 1.956 . S
O941 Li883 1.961 . S
O941 C890 1.325 . S
O942 Li880 1.961 . S
O942 Li882 1.956 . S
O942 Li883 1.970 . S
O942 C912 1.325 . S
O943 Li881 1.961 . S
O943 Li882 1.970 . S
O943 Li883 1.956 . S
O943 C918 1.325 . S
H944 C886 0.929 . S
H945 C887 0.930 . S
H946 C888 0.930 . S
H947 C889 0.930 . S
H948 C891 0.930 . S
H949 C893 0.929 . S
H950 C894 0.930 . S
H951 C895 0.930 . S
H952 C898 0.930 . S
H953 C901 0.929 . S
H954 C906 0.929 . S
H955 C907 0.930 . S
H956 C914 0.929 . S
H957 C915 0.930 . S
H958 C916 0.930 . S
H959 C917 0.930 . S
H960 C919 0.929 . S
H961 C920 0.930 . S
H962 C921 0.930 . S
H963 C922 0.930 . S
H964 C926 0.929 . S
H965 C928 0.930 . S
H966 C934 0.929 . S
H967 C935 0.930 . S
Li968 N985 1.990 . S
Li968 O1028 1.956 . S
Li968 O1029 1.970 . S
Li968 O1030 1.961 . S
Li969 N993 1.990 . S
Li969 O1028 1.970 . S
Li969 O1029 1.956 . S
Li969 O1031 1.961 . S
Li970 N1015 1.990 . S
Li970 O1028 1.961 . S
Li970 O1030 1.956 . S
Li970 O1031 1.970 . S
Li971 N1021 1.990 . S
Li971 O1029 1.961 . S
Li971 O1030 1.970 . S
Li971 O1031 1.956 . S
C972 C974 1.348 . S
C972 C975 1.356 . S
C972 O1028 1.325 . S
N973 C976 1.314 . S
N973 C977 1.279 . S
C974 C972 1.348 . S
C974 C976 1.353 . S
C974 H1032 0.929 . S
C975 C972 1.356 . S
C975 C977 1.358 . S
C975 H1033 0.930 . S
C976 N973 1.314 . S
C976 C974 1.353 . S
C976 H1034 0.930 . S
C977 N973 1.279 . S
C977 C975 1.358 . S
C977 H1035 0.930 . S
C978 C981 1.348 . S
C978 C982 1.356 . S
C978 O1029 1.325 . S
C979 N980 1.279 . S
C979 C982 1.358 . S
C979 H1036 0.930 . S
N980 C979 1.279 . S
N980 C983 1.314 . S
C981 C978 1.348 . S
C981 C983 1.353 . S
C981 H1037 0.929 . S
C982 C978 1.356 . S
C982 C979 1.358 . S
C982 H1038 0.930 . S
C983 N980 1.314 . S
C983 C981 1.353 . S
C983 H1039 0.930 . S
C984 N985 1.314 . S
C984 C989 1.353 . S
C984 H990 0.930 . S
N985 Li968 1.990 . S
N985 C984 1.314 . S
N985 C987 1.279 . S
C986 C987 1.358 . S
C986 C988 1.356 . S
C986 H1040 0.930 . S
C987 N985 1.279 . S
C987 C986 1.358 . S
C987 H991 0.930 . S
C988 C986 1.356 . S
C988 C989 1.348 . S
C989 C984 1.353 . S
C989 C988 1.348 . S
C989 H1041 0.929 . S
H990 C984 0.930 . S
H991 C987 0.930 . S
C992 N993 1.314 . S
C992 C994 1.353 . S
C992 H998 0.930 . S
N993 Li969 1.990 . S
N993 C992 1.314 . S
N993 C996 1.279 . S
C994 C992 1.353 . S
C994 C997 1.348 . S
C994 H1042 0.929 . S
C995 C996 1.358 . S
C995 C997 1.356 . S
C995 H1043 0.930 . S
C996 N993 1.279 . S
C996 C995 1.358 . S
C996 H999 0.930 . S
C997 C994 1.348 . S
C997 C995 1.356 . S
H998 C992 0.930 . S
H999 C996 0.930 . S
C1000 C1002 1.348 . S
C1000 C1003 1.356 . S
C1000 O1030 1.325 . S
N1001 C1004 1.314 . S
N1001 C1005 1.279 . S
C1002 C1000 1.348 . S
C1002 C1004 1.353 . S
C1002 H1044 0.929 . S
C1003 C1000 1.356 . S
C1003 C1005 1.358 . S
C1003 H1045 0.930 . S
C1004 N1001 1.314 . S
C1004 C1002 1.353 . S
C1004 H1046 0.930 . S
C1005 N1001 1.279 . S
C1005 C1003 1.358 . S
C1005 H1047 0.930 . S
C1006 C1007 1.348 . S
C1006 C1008 1.356 . S
C1006 O1031 1.325 . S
C1007 C1006 1.348 . S
C1007 C1009 1.353 . S
C1007 H1048 0.929 . S
C1008 C1006 1.356 . S
C1008 C1010 1.358 . S
C1008 H1049 0.930 . S
C1009 C1007 1.353 . S
C1009 N1011 1.314 . S
C1009 H1050 0.930 . S
C1010 C1008 1.358 . S
C1010 N1011 1.279 . S
C1010 H1051 0.930 . S
N1011 C1009 1.314 . S
N1011 C1010 1.279 . S
C1012 C1014 1.353 . S
C1012 N1015 1.314 . S
C1012 H1018 0.930 . S
C1013 N1015 1.279 . S
C1013 C1016 1.358 . S
C1013 H1019 0.930 . S
C1014 C1012 1.353 . S
C1014 C1017 1.348 . S
C1014 H1052 0.929 . S
N1015 Li970 1.990 . S
N1015 C1012 1.314 . S
N1015 C1013 1.279 . S
C1016 C1013 1.358 . S
C1016 C1017 1.356 . S
C1016 H1053 0.930 . S
C1017 C1014 1.348 . S
C1017 C1016 1.356 . S
H1018 C1012 0.930 . S
H1019 C1013 0.930 . S
C1020 N1021 1.314 . S
C1020 C1022 1.353 . S
C1020 H1026 0.930 . S
N1021 Li971 1.990 . S
N1021 C1020 1.314 . S
N1021 C1024 1.279 . S
C1022 C1020 1.353 . S
C1022 C1025 1.348 . S
C1022 H1054 0.929 . S
C1023 C1024 1.358 . S
C1023 C1025 1.356 . S
C1023 H1055 0.930 . S
C1024 N1021 1.279 . S
C1024 C1023 1.358 . S
C1024 H1027 0.930 . S
C1025 C1022 1.348 . S
C1025 C1023 1.356 . S
H1026 C1020 0.930 . S
H1027 C1024 0.930 . S
O1028 Li968 1.956 . S
O1028 Li969 1.970 . S
O1028 Li970 1.961 . S
O1028 C972 1.325 . S
O1029 Li968 1.970 . S
O1029 Li969 1.956 . S
O1029 Li971 1.961 . S
O1029 C978 1.325 . S
O1030 Li968 1.961 . S
O1030 Li970 1.956 . S
O1030 Li971 1.970 . S
O1030 C1000 1.325 . S
O1031 Li969 1.961 . S
O1031 Li970 1.970 . S
O1031 Li971 1.956 . S
O1031 C1006 1.325 . S
H1032 C974 0.929 . S
H1033 C975 0.930 . S
H1034 C976 0.930 . S
H1035 C977 0.930 . S
H1036 C979 0.930 . S
H1037 C981 0.929 . S
H1038 C982 0.930 . S
H1039 C983 0.930 . S
H1040 C986 0.930 . S
H1041 C989 0.929 . S
H1042 C994 0.929 . S
H1043 C995 0.930 . S
H1044 C1002 0.929 . S
H1045 C1003 0.930 . S
H1046 C1004 0.930 . S
H1047 C1005 0.930 . S
H1048 C1007 0.929 . S
H1049 C1008 0.930 . S
H1050 C1009 0.930 . S
H1051 C1010 0.930 . S
H1052 C1014 0.929 . S
H1053 C1016 0.930 . S
H1054 C1022 0.929 . S
H1055 C1023 0.930 . S
Li1056 N1073 1.990 . S
Li1056 O1116 1.956 . S
Li1056 O1117 1.970 . S
Li1056 O1118 1.961 . S
Li1057 N1081 1.990 . S
Li1057 O1116 1.970 . S
Li1057 O1117 1.956 . S
Li1057 O1119 1.961 . S
Li1058 N1103 1.990 . S
Li1058 O1116 1.961 . S
Li1058 O1118 1.956 . S
Li1058 O1119 1.970 . S
Li1059 N1109 1.990 . S
Li1059 O1117 1.961 . S
Li1059 O1118 1.970 . S
Li1059 O1119 1.956 . S
C1060 C1062 1.348 . S
C1060 C1063 1.356 . S
C1060 O1116 1.325 . S
N1061 C1064 1.314 . S
N1061 C1065 1.279 . S
C1062 C1060 1.348 . S
C1062 C1064 1.353 . S
C1062 H1120 0.929 . S
C1063 C1060 1.356 . S
C1063 C1065 1.358 . S
C1063 H1121 0.930 . S
C1064 N1061 1.314 . S
C1064 C1062 1.353 . S
C1064 H1122 0.930 . S
C1065 N1061 1.279 . S
C1065 C1063 1.358 . S
C1065 H1123 0.930 . S
C1066 C1069 1.348 . S
C1066 C1070 1.356 . S
C1066 O1117 1.325 . S
C1067 N1068 1.279 . S
C1067 C1070 1.358 . S
C1067 H1124 0.930 . S
N1068 C1067 1.279 . S
N1068 C1071 1.314 . S
C1069 C1066 1.348 . S
C1069 C1071 1.353 . S
C1069 H1125 0.929 . S
C1070 C1066 1.356 . S
C1070 C1067 1.358 . S
C1070 H1126 0.930 . S
C1071 N1068 1.314 . S
C1071 C1069 1.353 . S
C1071 H1127 0.930 . S
C1072 N1073 1.314 . S
C1072 C1077 1.353 . S
C1072 H1078 0.930 . S
N1073 Li1056 1.990 . S
N1073 C1072 1.314 . S
N1073 C1075 1.279 . S
C1074 C1075 1.358 . S
C1074 C1076 1.356 . S
C1074 H1128 0.930 . S
C1075 N1073 1.279 . S
C1075 C1074 1.358 . S
C1075 H1079 0.930 . S
C1076 C1074 1.356 . S
C1076 C1077 1.348 . S
C1077 C1072 1.353 . S
C1077 C1076 1.348 . S
C1077 H1129 0.929 . S
H1078 C1072 0.930 . S
H1079 C1075 0.930 . S
C1080 N1081 1.314 . S
C1080 C1082 1.353 . S
C1080 H1086 0.930 . S
N1081 Li1057 1.990 . S
N1081 C1080 1.314 . S
N1081 C1084 1.279 . S
C1082 C1080 1.353 . S
C1082 C1085 1.348 . S
C1082 H1130 0.929 . S
C1083 C1084 1.358 . S
C1083 C1085 1.356 . S
C1083 H1131 0.930 . S
C1084 N1081 1.279 . S
C1084 C1083 1.358 . S
C1084 H1087 0.930 . S
C1085 C1082 1.348 . S
C1085 C1083 1.356 . S
H1086 C1080 0.930 . S
H1087 C1084 0.930 . S
C1088 C1090 1.348 . S
C1088 C1091 1.356 . S
C1088 O1118 1.325 . S
N1089 C1092 1.314 . S
N1089 C1093 1.279 . S
C1090 C1088 1.348 . S
C1090 C1092 1.353 . S
C1090 H1132 0.929 . S
C1091 C1088 1.356 . S
C1091 C1093 1.358 . S
C1091 H1133 0.930 . S
C1092 N1089 1.314 . S
C1092 C1090 1.353 . S
C1092 H1134 0.930 . S
C1093 N1089 1.279 . S
C1093 C1091 1.358 . S
C1093 H1135 0.930 . S
C1094 C1095 1.348 . S
C1094 C1096 1.356 . S
C1094 O1119 1.325 . S
C1095 C1094 1.348 . S
C1095 C1097 1.353 . S
C1095 H1136 0.929 . S
C1096 C1094 1.356 . S
C1096 C1098 1.358 . S
C1096 H1137 0.930 . S
C1097 C1095 1.353 . S
C1097 N1099 1.314 . S
C1097 H1138 0.930 . S
C1098 C1096 1.358 . S
C1098 N1099 1.279 . S
C1098 H1139 0.930 . S
N1099 C1097 1.314 . S
N1099 C1098 1.279 . S
C1100 C1102 1.353 . S
C1100 N1103 1.314 . S
C1100 H1106 0.930 . S
C1101 N1103 1.279 . S
C1101 C1104 1.358 . S
C1101 H1107 0.930 . S
C1102 C1100 1.353 . S
C1102 C1105 1.348 . S
C1102 H1140 0.929 . S
N1103 Li1058 1.990 . S
N1103 C1100 1.314 . S
N1103 C1101 1.279 . S
C1104 C1101 1.358 . S
C1104 C1105 1.356 . S
C1104 H1141 0.930 . S
C1105 C1102 1.348 . S
C1105 C1104 1.356 . S
H1106 C1100 0.930 . S
H1107 C1101 0.930 . S
C1108 N1109 1.314 . S
C1108 C1110 1.353 . S
C1108 H1114 0.930 . S
N1109 Li1059 1.990 . S
N1109 C1108 1.314 . S
N1109 C1112 1.279 . S
C1110 C1108 1.353 . S
C1110 C1113 1.348 . S
C1110 H1142 0.929 . S
C1111 C1112 1.358 . S
C1111 C1113 1.356 . S
C1111 H1143 0.930 . S
C1112 N1109 1.279 . S
C1112 C1111 1.358 . S
C1112 H1115 0.930 . S
C1113 C1110 1.348 . S
C1113 C1111 1.356 . S
H1114 C1108 0.930 . S
H1115 C1112 0.930 . S
O1116 Li1056 1.956 . S
O1116 Li1057 1.970 . S
O1116 Li1058 1.961 . S
O1116 C1060 1.325 . S
O1117 Li1056 1.970 . S
O1117 Li1057 1.956 . S
O1117 Li1059 1.961 . S
O1117 C1066 1.325 . S
O1118 Li1056 1.961 . S
O1118 Li1058 1.956 . S
O1118 Li1059 1.970 . S
O1118 C1088 1.325 . S
O1119 Li1057 1.961 . S
O1119 Li1058 1.970 . S
O1119 Li1059 1.956 . S
O1119 C1094 1.325 . S
H1120 C1062 0.929 . S
H1121 C1063 0.930 . S
H1122 C1064 0.930 . S
H1123 C1065 0.930 . S
H1124 C1067 0.930 . S
H1125 C1069 0.929 . S
H1126 C1070 0.930 . S
H1127 C1071 0.930 . S
H1128 C1074 0.930 . S
H1129 C1077 0.929 . S
H1130 C1082 0.929 . S
H1131 C1083 0.930 . S
H1132 C1090 0.929 . S
H1133 C1091 0.930 . S
H1134 C1092 0.930 . S
H1135 C1093 0.930 . S
H1136 C1095 0.929 . S
H1137 C1096 0.930 . S
H1138 C1097 0.930 . S
H1139 C1098 0.930 . S
H1140 C1102 0.929 . S
H1141 C1104 0.930 . S
H1142 C1110 0.929 . S
H1143 C1111 0.930 . S
Li1144 N1161 1.990 . S
Li1144 O1204 1.956 . S
Li1144 O1205 1.970 . S
Li1144 O1206 1.961 . S
Li1145 N1169 1.990 . S
Li1145 O1204 1.970 . S
Li1145 O1205 1.956 . S
Li1145 O1207 1.961 . S
Li1146 N1191 1.990 . S
Li1146 O1204 1.961 . S
Li1146 O1206 1.956 . S
Li1146 O1207 1.970 . S
Li1147 N1197 1.990 . S
Li1147 O1205 1.961 . S
Li1147 O1206 1.970 . S
Li1147 O1207 1.956 . S
C1148 C1150 1.348 . S
C1148 C1151 1.356 . S
C1148 O1204 1.325 . S
N1149 C1152 1.314 . S
N1149 C1153 1.279 . S
C1150 C1148 1.348 . S
C1150 C1152 1.353 . S
C1150 H1208 0.929 . S
C1151 C1148 1.356 . S
C1151 C1153 1.358 . S
C1151 H1209 0.930 . S
C1152 N1149 1.314 . S
C1152 C1150 1.353 . S
C1152 H1210 0.930 . S
C1153 N1149 1.279 . S
C1153 C1151 1.358 . S
C1153 H1211 0.930 . S
C1154 C1157 1.348 . S
C1154 C1158 1.356 . S
C1154 O1205 1.325 . S
C1155 N1156 1.279 . S
C1155 C1158 1.358 . S
C1155 H1212 0.930 . S
N1156 C1155 1.279 . S
N1156 C1159 1.314 . S
C1157 C1154 1.348 . S
C1157 C1159 1.353 . S
C1157 H1213 0.929 . S
C1158 C1154 1.356 . S
C1158 C1155 1.358 . S
C1158 H1214 0.930 . S
C1159 N1156 1.314 . S
C1159 C1157 1.353 . S
C1159 H1215 0.930 . S
C1160 N1161 1.314 . S
C1160 C1165 1.353 . S
C1160 H1166 0.930 . S
N1161 Li1144 1.990 . S
N1161 C1160 1.314 . S
N1161 C1163 1.279 . S
C1162 C1163 1.358 . S
C1162 C1164 1.356 . S
C1162 H1216 0.930 . S
C1163 N1161 1.279 . S
C1163 C1162 1.358 . S
C1163 H1167 0.930 . S
C1164 C1162 1.356 . S
C1164 C1165 1.348 . S
C1165 C1160 1.353 . S
C1165 C1164 1.348 . S
C1165 H1217 0.929 . S
H1166 C1160 0.930 . S
H1167 C1163 0.930 . S
C1168 N1169 1.314 . S
C1168 C1170 1.353 . S
C1168 H1174 0.930 . S
N1169 Li1145 1.990 . S
N1169 C1168 1.314 . S
N1169 C1172 1.279 . S
C1170 C1168 1.353 . S
C1170 C1173 1.348 . S
C1170 H1218 0.929 . S
C1171 C1172 1.358 . S
C1171 C1173 1.356 . S
C1171 H1219 0.930 . S
C1172 N1169 1.279 . S
C1172 C1171 1.358 . S
C1172 H1175 0.930 . S
C1173 C1170 1.348 . S
C1173 C1171 1.356 . S
H1174 C1168 0.930 . S
H1175 C1172 0.930 . S
C1176 C1178 1.348 . S
C1176 C1179 1.356 . S
C1176 O1206 1.325 . S
N1177 C1180 1.314 . S
N1177 C1181 1.279 . S
C1178 C1176 1.348 . S
C1178 C1180 1.353 . S
C1178 H1220 0.929 . S
C1179 C1176 1.356 . S
C1179 C1181 1.358 . S
C1179 H1221 0.930 . S
C1180 N1177 1.314 . S
C1180 C1178 1.353 . S
C1180 H1222 0.930 . S
C1181 N1177 1.279 . S
C1181 C1179 1.358 . S
C1181 H1223 0.930 . S
C1182 C1183 1.348 . S
C1182 C1184 1.356 . S
C1182 O1207 1.325 . S
C1183 C1182 1.348 . S
C1183 C1185 1.353 . S
C1183 H1224 0.929 . S
C1184 C1182 1.356 . S
C1184 C1186 1.358 . S
C1184 H1225 0.930 . S
C1185 C1183 1.353 . S
C1185 N1187 1.314 . S
C1185 H1226 0.930 . S
C1186 C1184 1.358 . S
C1186 N1187 1.279 . S
C1186 H1227 0.930 . S
N1187 C1185 1.314 . S
N1187 C1186 1.279 . S
C1188 C1190 1.353 . S
C1188 N1191 1.314 . S
C1188 H1194 0.930 . S
C1189 N1191 1.279 . S
C1189 C1192 1.358 . S
C1189 H1195 0.930 . S
C1190 C1188 1.353 . S
C1190 C1193 1.348 . S
C1190 H1228 0.929 . S
N1191 Li1146 1.990 . S
N1191 C1188 1.314 . S
N1191 C1189 1.279 . S
C1192 C1189 1.358 . S
C1192 C1193 1.356 . S
C1192 H1229 0.930 . S
C1193 C1190 1.348 . S
C1193 C1192 1.356 . S
H1194 C1188 0.930 . S
H1195 C1189 0.930 . S
C1196 N1197 1.314 . S
C1196 C1198 1.353 . S
C1196 H1202 0.930 . S
N1197 Li1147 1.990 . S
N1197 C1196 1.314 . S
N1197 C1200 1.279 . S
C1198 C1196 1.353 . S
C1198 C1201 1.348 . S
C1198 H1230 0.929 . S
C1199 C1200 1.358 . S
C1199 C1201 1.356 . S
C1199 H1231 0.930 . S
C1200 N1197 1.279 . S
C1200 C1199 1.358 . S
C1200 H1203 0.930 . S
C1201 C1198 1.348 . S
C1201 C1199 1.356 . S
H1202 C1196 0.930 . S
H1203 C1200 0.930 . S
O1204 Li1144 1.956 . S
O1204 Li1145 1.970 . S
O1204 Li1146 1.961 . S
O1204 C1148 1.325 . S
O1205 Li1144 1.970 . S
O1205 Li1145 1.956 . S
O1205 Li1147 1.961 . S
O1205 C1154 1.325 . S
O1206 Li1144 1.961 . S
O1206 Li1146 1.956 . S
O1206 Li1147 1.970 . S
O1206 C1176 1.325 . S
O1207 Li1145 1.961 . S
O1207 Li1146 1.970 . S
O1207 Li1147 1.956 . S
O1207 C1182 1.325 . S
H1208 C1150 0.929 . S
H1209 C1151 0.930 . S
H1210 C1152 0.930 . S
H1211 C1153 0.930 . S
H1212 C1155 0.930 . S
H1213 C1157 0.929 . S
H1214 C1158 0.930 . S
H1215 C1159 0.930 . S
H1216 C1162 0.930 . S
H1217 C1165 0.929 . S
H1218 C1170 0.929 . S
H1219 C1171 0.930 . S
H1220 C1178 0.929 . S
H1221 C1179 0.930 . S
H1222 C1180 0.930 . S
H1223 C1181 0.930 . S
H1224 C1183 0.929 . S
H1225 C1184 0.930 . S
H1226 C1185 0.930 . S
H1227 C1186 0.930 . S
H1228 C1190 0.929 . S
H1229 C1192 0.930 . S
H1230 C1198 0.929 . S
H1231 C1199 0.930 . S
Li1232 N1249 1.990 . S
Li1232 O1292 1.956 . S
Li1232 O1293 1.970 . S
Li1232 O1294 1.961 . S
Li1233 N1257 1.990 . S
Li1233 O1292 1.970 . S
Li1233 O1293 1.956 . S
Li1233 O1295 1.961 . S
Li1234 N1279 1.990 . S
Li1234 O1292 1.961 . S
Li1234 O1294 1.956 . S
Li1234 O1295 1.970 . S
Li1235 N1285 1.990 . S
Li1235 O1293 1.961 . S
Li1235 O1294 1.970 . S
Li1235 O1295 1.956 . S
C1236 C1238 1.348 . S
C1236 C1239 1.356 . S
C1236 O1292 1.325 . S
N1237 C1240 1.314 . S
N1237 C1241 1.279 . S
C1238 C1236 1.348 . S
C1238 C1240 1.353 . S
C1238 H1296 0.929 . S
C1239 C1236 1.356 . S
C1239 C1241 1.358 . S
C1239 H1297 0.930 . S
C1240 N1237 1.314 . S
C1240 C1238 1.353 . S
C1240 H1298 0.930 . S
C1241 N1237 1.279 . S
C1241 C1239 1.358 . S
C1241 H1299 0.930 . S
C1242 C1245 1.348 . S
C1242 C1246 1.356 . S
C1242 O1293 1.325 . S
C1243 N1244 1.279 . S
C1243 C1246 1.358 . S
C1243 H1300 0.930 . S
N1244 C1243 1.279 . S
N1244 C1247 1.314 . S
C1245 C1242 1.348 . S
C1245 C1247 1.353 . S
C1245 H1301 0.929 . S
C1246 C1242 1.356 . S
C1246 C1243 1.358 . S
C1246 H1302 0.930 . S
C1247 N1244 1.314 . S
C1247 C1245 1.353 . S
C1247 H1303 0.930 . S
C1248 N1249 1.314 . S
C1248 C1253 1.353 . S
C1248 H1254 0.930 . S
N1249 Li1232 1.990 . S
N1249 C1248 1.314 . S
N1249 C1251 1.279 . S
C1250 C1251 1.358 . S
C1250 C1252 1.356 . S
C1250 H1304 0.930 . S
C1251 N1249 1.279 . S
C1251 C1250 1.358 . S
C1251 H1255 0.930 . S
C1252 C1250 1.356 . S
C1252 C1253 1.348 . S
C1253 C1248 1.353 . S
C1253 C1252 1.348 . S
C1253 H1305 0.929 . S
H1254 C1248 0.930 . S
H1255 C1251 0.930 . S
C1256 N1257 1.314 . S
C1256 C1258 1.353 . S
C1256 H1262 0.930 . S
N1257 Li1233 1.990 . S
N1257 C1256 1.314 . S
N1257 C1260 1.279 . S
C1258 C1256 1.353 . S
C1258 C1261 1.348 . S
C1258 H1306 0.929 . S
C1259 C1260 1.358 . S
C1259 C1261 1.356 . S
C1259 H1307 0.930 . S
C1260 N1257 1.279 . S
C1260 C1259 1.358 . S
C1260 H1263 0.930 . S
C1261 C1258 1.348 . S
C1261 C1259 1.356 . S
H1262 C1256 0.930 . S
H1263 C1260 0.930 . S
C1264 C1266 1.348 . S
C1264 C1267 1.356 . S
C1264 O1294 1.325 . S
N1265 C1268 1.314 . S
N1265 C1269 1.279 . S
C1266 C1264 1.348 . S
C1266 C1268 1.353 . S
C1266 H1308 0.929 . S
C1267 C1264 1.356 . S
C1267 C1269 1.358 . S
C1267 H1309 0.930 . S
C1268 N1265 1.314 . S
C1268 C1266 1.353 . S
C1268 H1310 0.930 . S
C1269 N1265 1.279 . S
C1269 C1267 1.358 . S
C1269 H1311 0.930 . S
C1270 C1271 1.348 . S
C1270 C1272 1.356 . S
C1270 O1295 1.325 . S
C1271 C1270 1.348 . S
C1271 C1273 1.353 . S
C1271 H1312 0.929 . S
C1272 C1270 1.356 . S
C1272 C1274 1.358 . S
C1272 H1313 0.930 . S
C1273 C1271 1.353 . S
C1273 N1275 1.314 . S
C1273 H1314 0.930 . S
C1274 C1272 1.358 . S
C1274 N1275 1.279 . S
C1274 H1315 0.930 . S
N1275 C1273 1.314 . S
N1275 C1274 1.279 . S
C1276 C1278 1.353 . S
C1276 N1279 1.314 . S
C1276 H1282 0.930 . S
C1277 N1279 1.279 . S
C1277 C1280 1.358 . S
C1277 H1283 0.930 . S
C1278 C1276 1.353 . S
C1278 C1281 1.348 . S
C1278 H1316 0.929 . S
N1279 Li1234 1.990 . S
N1279 C1276 1.314 . S
N1279 C1277 1.279 . S
C1280 C1277 1.358 . S
C1280 C1281 1.356 . S
C1280 H1317 0.930 . S
C1281 C1278 1.348 . S
C1281 C1280 1.356 . S
H1282 C1276 0.930 . S
H1283 C1277 0.930 . S
C1284 N1285 1.314 . S
C1284 C1286 1.353 . S
C1284 H1290 0.930 . S
N1285 Li1235 1.990 . S
N1285 C1284 1.314 . S
N1285 C1288 1.279 . S
C1286 C1284 1.353 . S
C1286 C1289 1.348 . S
C1286 H1318 0.929 . S
C1287 C1288 1.358 . S
C1287 C1289 1.356 . S
C1287 H1319 0.930 . S
C1288 N1285 1.279 . S
C1288 C1287 1.358 . S
C1288 H1291 0.930 . S
C1289 C1286 1.348 . S
C1289 C1287 1.356 . S
H1290 C1284 0.930 . S
H1291 C1288 0.930 . S
O1292 Li1232 1.956 . S
O1292 Li1233 1.970 . S
O1292 Li1234 1.961 . S
O1292 C1236 1.325 . S
O1293 Li1232 1.970 . S
O1293 Li1233 1.956 . S
O1293 Li1235 1.961 . S
O1293 C1242 1.325 . S
O1294 Li1232 1.961 . S
O1294 Li1234 1.956 . S
O1294 Li1235 1.970 . S
O1294 C1264 1.325 . S
O1295 Li1233 1.961 . S
O1295 Li1234 1.970 . S
O1295 Li1235 1.956 . S
O1295 C1270 1.325 . S
H1296 C1238 0.929 . S
H1297 C1239 0.930 . S
H1298 C1240 0.930 . S
H1299 C1241 0.930 . S
H1300 C1243 0.930 . S
H1301 C1245 0.929 . S
H1302 C1246 0.930 . S
H1303 C1247 0.930 . S
H1304 C1250 0.930 . S
H1305 C1253 0.929 . S
H1306 C1258 0.929 . S
H1307 C1259 0.930 . S
H1308 C1266 0.929 . S
H1309 C1267 0.930 . S
H1310 C1268 0.930 . S
H1311 C1269 0.930 . S
H1312 C1271 0.929 . S
H1313 C1272 0.930 . S
H1314 C1273 0.930 . S
H1315 C1274 0.930 . S
H1316 C1278 0.929 . S
H1317 C1280 0.930 . S
H1318 C1286 0.929 . S
H1319 C1287 0.930 . S
Li1320 N1337 1.990 . S
Li1320 O1380 1.956 . S
Li1320 O1381 1.970 . S
Li1320 O1382 1.961 . S
Li1321 N1345 1.990 . S
Li1321 O1380 1.970 . S
Li1321 O1381 1.956 . S
Li1321 O1383 1.961 . S
Li1322 N1367 1.990 . S
Li1322 O1380 1.961 . S
Li1322 O1382 1.956 . S
Li1322 O1383 1.970 . S
Li1323 N1373 1.990 . S
Li1323 O1381 1.961 . S
Li1323 O1382 1.970 . S
Li1323 O1383 1.956 . S
C1324 C1326 1.348 . S
C1324 C1327 1.356 . S
C1324 O1380 1.325 . S
N1325 C1328 1.314 . S
N1325 C1329 1.279 . S
C1326 C1324 1.348 . S
C1326 C1328 1.353 . S
C1326 H1384 0.929 . S
C1327 C1324 1.356 . S
C1327 C1329 1.358 . S
C1327 H1385 0.930 . S
C1328 N1325 1.314 . S
C1328 C1326 1.353 . S
C1328 H1386 0.930 . S
C1329 N1325 1.279 . S
C1329 C1327 1.358 . S
C1329 H1387 0.930 . S
C1330 C1333 1.348 . S
C1330 C1334 1.356 . S
C1330 O1381 1.325 . S
C1331 N1332 1.279 . S
C1331 C1334 1.358 . S
C1331 H1388 0.930 . S
N1332 C1331 1.279 . S
N1332 C1335 1.314 . S
C1333 C1330 1.348 . S
C1333 C1335 1.353 . S
C1333 H1389 0.929 . S
C1334 C1330 1.356 . S
C1334 C1331 1.358 . S
C1334 H1390 0.930 . S
C1335 N1332 1.314 . S
C1335 C1333 1.353 . S
C1335 H1391 0.930 . S
C1336 N1337 1.314 . S
C1336 C1341 1.353 . S
C1336 H1342 0.930 . S
N1337 Li1320 1.990 . S
N1337 C1336 1.314 . S
N1337 C1339 1.279 . S
C1338 C1339 1.358 . S
C1338 C1340 1.356 . S
C1338 H1392 0.930 . S
C1339 N1337 1.279 . S
C1339 C1338 1.358 . S
C1339 H1343 0.930 . S
C1340 C1338 1.356 . S
C1340 C1341 1.348 . S
C1341 C1336 1.353 . S
C1341 C1340 1.348 . S
C1341 H1393 0.929 . S
H1342 C1336 0.930 . S
H1343 C1339 0.930 . S
C1344 N1345 1.314 . S
C1344 C1346 1.353 . S
C1344 H1350 0.930 . S
N1345 Li1321 1.990 . S
N1345 C1344 1.314 . S
N1345 C1348 1.279 . S
C1346 C1344 1.353 . S
C1346 C1349 1.348 . S
C1346 H1394 0.929 . S
C1347 C1348 1.358 . S
C1347 C1349 1.356 . S
C1347 H1395 0.930 . S
C1348 N1345 1.279 . S
C1348 C1347 1.358 . S
C1348 H1351 0.930 . S
C1349 C1346 1.348 . S
C1349 C1347 1.356 . S
H1350 C1344 0.930 . S
H1351 C1348 0.930 . S
C1352 C1354 1.348 . S
C1352 C1355 1.356 . S
C1352 O1382 1.325 . S
N1353 C1356 1.314 . S
N1353 C1357 1.279 . S
C1354 C1352 1.348 . S
C1354 C1356 1.353 . S
C1354 H1396 0.929 . S
C1355 C1352 1.356 . S
C1355 C1357 1.358 . S
C1355 H1397 0.930 . S
C1356 N1353 1.314 . S
C1356 C1354 1.353 . S
C1356 H1398 0.930 . S
C1357 N1353 1.279 . S
C1357 C1355 1.358 . S
C1357 H1399 0.930 . S
C1358 C1359 1.348 . S
C1358 C1360 1.356 . S
C1358 O1383 1.325 . S
C1359 C1358 1.348 . S
C1359 C1361 1.353 . S
C1359 H1400 0.929 . S
C1360 C1358 1.356 . S
C1360 C1362 1.358 . S
C1360 H1401 0.930 . S
C1361 C1359 1.353 . S
C1361 N1363 1.314 . S
C1361 H1402 0.930 . S
C1362 C1360 1.358 . S
C1362 N1363 1.279 . S
C1362 H1403 0.930 . S
N1363 C1361 1.314 . S
N1363 C1362 1.279 . S
C1364 C1366 1.353 . S
C1364 N1367 1.314 . S
C1364 H1370 0.930 . S
C1365 N1367 1.279 . S
C1365 C1368 1.358 . S
C1365 H1371 0.930 . S
C1366 C1364 1.353 . S
C1366 C1369 1.348 . S
C1366 H1404 0.929 . S
N1367 Li1322 1.990 . S
N1367 C1364 1.314 . S
N1367 C1365 1.279 . S
C1368 C1365 1.358 . S
C1368 C1369 1.356 . S
C1368 H1405 0.930 . S
C1369 C1366 1.348 . S
C1369 C1368 1.356 . S
H1370 C1364 0.930 . S
H1371 C1365 0.930 . S
C1372 N1373 1.314 . S
C1372 C1374 1.353 . S
C1372 H1378 0.930 . S
N1373 Li1323 1.990 . S
N1373 C1372 1.314 . S
N1373 C1376 1.279 . S
C1374 C1372 1.353 . S
C1374 C1377 1.348 . S
C1374 H1406 0.929 . S
C1375 C1376 1.358 . S
C1375 C1377 1.356 . S
C1375 H1407 0.930 . S
C1376 N1373 1.279 . S
C1376 C1375 1.358 . S
C1376 H1379 0.930 . S
C1377 C1374 1.348 . S
C1377 C1375 1.356 . S
H1378 C1372 0.930 . S
H1379 C1376 0.930 . S
O1380 Li1320 1.956 . S
O1380 Li1321 1.970 . S
O1380 Li1322 1.961 . S
O1380 C1324 1.325 . S
O1381 Li1320 1.970 . S
O1381 Li1321 1.956 . S
O1381 Li1323 1.961 . S
O1381 C1330 1.325 . S
O1382 Li1320 1.961 . S
O1382 Li1322 1.956 . S
O1382 Li1323 1.970 . S
O1382 C1352 1.325 . S
O1383 Li1321 1.961 . S
O1383 Li1322 1.970 . S
O1383 Li1323 1.956 . S
O1383 C1358 1.325 . S
H1384 C1326 0.929 . S
H1385 C1327 0.930 . S
H1386 C1328 0.930 . S
H1387 C1329 0.930 . S
H1388 C1331 0.930 . S
H1389 C1333 0.929 . S
H1390 C1334 0.930 . S
H1391 C1335 0.930 . S
H1392 C1338 0.930 . S
H1393 C1341 0.929 . S
H1394 C1346 0.929 . S
H1395 C1347 0.930 . S
H1396 C1354 0.929 . S
H1397 C1355 0.930 . S
H1398 C1356 0.930 . S
H1399 C1357 0.930 . S
H1400 C1359 0.929 . S
H1401 C1360 0.930 . S
H1402 C1361 0.930 . S
H1403 C1362 0.930 . S
H1404 C1366 0.929 . S
H1405 C1368 0.930 . S
H1406 C1374 0.929 . S
H1407 C1375 0.930 . S
H1408 C1416 0.929 . S
H1409 C1418 0.930 . S
H1410 C1420 0.930 . S
H1411 C1423 0.929 . S
H1412 C1426 0.930 . S
H1413 C1428 0.960 . S
H1414 C1428 0.960 . S
H1415 C1428 0.960 . S
C1416 H1408 0.929 . S
C1416 C1417 1.377 . S
C1416 C1418 1.384 . S
C1417 C1416 1.377 . S
C1417 C1423 1.390 . S
C1418 H1409 0.930 . S
C1418 C1416 1.384 . S
C1418 C1419 1.372 . S
C1419 C1418 1.372 . S
C1419 C1420 1.400 . S
C1419 C1424 1.490 . S
C1420 H1410 0.930 . S
C1420 C1419 1.400 . S
C1420 C1423 1.386 . S
H1421 C1437 0.930 . S
H1422 C1438 0.931 . S
C1423 H1411 0.929 . S
C1423 C1417 1.390 . S
C1423 C1420 1.386 . S
C1424 C1419 1.490 . S
C1424 C1426 1.395 . S
C1424 C1427 1.403 . S
H1425 C1431 0.930 . S
C1426 H1412 0.930 . S
C1426 C1424 1.395 . S
C1426 C1429 1.403 . S
C1427 C1424 1.403 . S
C1427 C1428 1.524 . S
C1427 C1431 1.400 . S
C1428 H1413 0.960 . S
C1428 H1414 0.960 . S
C1428 H1415 0.960 . S
C1428 C1427 1.524 . S
C1429 C1426 1.403 . S
C1429 C1430 1.392 . S
C1429 C1433 1.495 . S
C1430 C1429 1.392 . S
C1430 C1431 1.385 . S
C1430 C1432 1.478 . S
C1431 H1425 0.930 . S
C1431 C1427 1.400 . S
C1431 C1430 1.385 . S
C1432 C1430 1.478 . S
C1432 C1434 1.381 . S
C1432 C1438 1.383 . S
C1433 C1429 1.495 . S
C1433 H1439 0.959 . S
C1433 H1440 0.961 . S
C1433 H1441 0.960 . S
C1434 C1432 1.381 . S
C1434 C1435 1.394 . S
C1434 H1442 0.930 . S
C1435 C1434 1.394 . S
C1435 C1436 1.383 . S
C1435 H1443 0.929 . S
C1436 C1435 1.383 . S
C1436 C1437 1.377 . S
C1437 H1421 0.930 . S
C1437 C1436 1.377 . S
C1437 C1438 1.379 . S
C1438 H1422 0.931 . S
C1438 C1432 1.383 . S
C1438 C1437 1.379 . S
H1439 C1433 0.959 . S
H1440 C1433 0.961 . S
H1441 C1433 0.960 . S
H1442 C1434 0.930 . S
H1443 C1435 0.929 . S
H1444 C1452 0.929 . S
H1445 C1454 0.930 . S
H1446 C1456 0.930 . S
H1447 C1459 0.929 . S
H1448 C1462 0.930 . S
H1449 C1464 0.960 . S
H1450 C1464 0.960 . S
H1451 C1464 0.960 . S
C1452 H1444 0.929 . S
C1452 C1453 1.377 . S
C1452 C1454 1.384 . S
C1453 C1452 1.377 . S
C1453 C1459 1.390 . S
C1454 H1445 0.930 . S
C1454 C1452 1.384 . S
C1454 C1455 1.372 . S
C1455 C1454 1.372 . S
C1455 C1456 1.400 . S
C1455 C1460 1.490 . S
C1456 H1446 0.930 . S
C1456 C1455 1.400 . S
C1456 C1459 1.386 . S
H1457 C1473 0.930 . S
H1458 C1474 0.931 . S
C1459 H1447 0.929 . S
C1459 C1453 1.390 . S
C1459 C1456 1.386 . S
C1460 C1455 1.490 . S
C1460 C1462 1.395 . S
C1460 C1463 1.403 . S
H1461 C1467 0.930 . S
C1462 H1448 0.930 . S
C1462 C1460 1.395 . S
C1462 C1465 1.403 . S
C1463 C1460 1.403 . S
C1463 C1464 1.524 . S
C1463 C1467 1.400 . S
C1464 H1449 0.960 . S
C1464 H1450 0.960 . S
C1464 H1451 0.960 . S
C1464 C1463 1.524 . S
C1465 C1462 1.403 . S
C1465 C1466 1.392 . S
C1465 C1469 1.495 . S
C1466 C1465 1.392 . S
C1466 C1467 1.385 . S
C1466 C1468 1.478 . S
C1467 H1461 0.930 . S
C1467 C1463 1.400 . S
C1467 C1466 1.385 . S
C1468 C1466 1.478 . S
C1468 C1470 1.381 . S
C1468 C1474 1.383 . S
C1469 C1465 1.495 . S
C1469 H1475 0.959 . S
C1469 H1476 0.961 . S
C1469 H1477 0.960 . S
C1470 C1468 1.381 . S
C1470 C1471 1.394 . S
C1470 H1478 0.930 . S
C1471 C1470 1.394 . S
C1471 C1472 1.383 . S
C1471 H1479 0.929 . S
C1472 C1471 1.383 . S
C1472 C1473 1.377 . S
C1473 H1457 0.930 . S
C1473 C1472 1.377 . S
C1473 C1474 1.379 . S
C1474 H1458 0.931 . S
C1474 C1468 1.383 . S
C1474 C1473 1.379 . S
H1475 C1469 0.959 . S
H1476 C1469 0.961 . S
H1477 C1469 0.960 . S
H1478 C1470 0.930 . S
H1479 C1471 0.929 . S
H1480 C1488 0.929 . S
H1481 C1490 0.930 . S
H1482 C1492 0.930 . S
H1483 C1495 0.929 . S
H1484 C1498 0.930 . S
H1485 C1500 0.960 . S
H1486 C1500 0.960 . S
H1487 C1500 0.960 . S
C1488 H1480 0.929 . S
C1488 C1489 1.377 . S
C1488 C1490 1.384 . S
C1489 C1488 1.377 . S
C1489 C1495 1.390 . S
C1490 H1481 0.930 . S
C1490 C1488 1.384 . S
C1490 C1491 1.372 . S
C1491 C1490 1.372 . S
C1491 C1492 1.400 . S
C1491 C1496 1.490 . S
C1492 H1482 0.930 . S
C1492 C1491 1.400 . S
C1492 C1495 1.386 . S
H1493 C1509 0.930 . S
H1494 C1510 0.931 . S
C1495 H1483 0.929 . S
C1495 C1489 1.390 . S
C1495 C1492 1.386 . S
C1496 C1491 1.490 . S
C1496 C1498 1.395 . S
C1496 C1499 1.403 . S
H1497 C1503 0.930 . S
C1498 H1484 0.930 . S
C1498 C1496 1.395 . S
C1498 C1501 1.403 . S
C1499 C1496 1.403 . S
C1499 C1500 1.524 . S
C1499 C1503 1.400 . S
C1500 H1485 0.960 . S
C1500 H1486 0.960 . S
C1500 H1487 0.960 . S
C1500 C1499 1.524 . S
C1501 C1498 1.403 . S
C1501 C1502 1.392 . S
C1501 C1505 1.495 . S
C1502 C1501 1.392 . S
C1502 C1503 1.385 . S
C1502 C1504 1.478 . S
C1503 H1497 0.930 . S
C1503 C1499 1.400 . S
C1503 C1502 1.385 . S
C1504 C1502 1.478 . S
C1504 C1506 1.381 . S
C1504 C1510 1.383 . S
C1505 C1501 1.495 . S
C1505 H1511 0.959 . S
C1505 H1512 0.961 . S
C1505 H1513 0.960 . S
C1506 C1504 1.381 . S
C1506 C1507 1.394 . S
C1506 H1514 0.930 . S
C1507 C1506 1.394 . S
C1507 C1508 1.383 . S
C1507 H1515 0.929 . S
C1508 C1507 1.383 . S
C1508 C1509 1.377 . S
C1509 H1493 0.930 . S
C1509 C1508 1.377 . S
C1509 C1510 1.379 . S
C1510 H1494 0.931 . S
C1510 C1504 1.383 . S
C1510 C1509 1.379 . S
H1511 C1505 0.959 . S
H1512 C1505 0.961 . S
H1513 C1505 0.960 . S
H1514 C1506 0.930 . S
H1515 C1507 0.929 . S
H1516 C1524 0.929 . S
H1517 C1526 0.930 . S
H1518 C1528 0.930 . S
H1519 C1531 0.929 . S
H1520 C1534 0.930 . S
H1521 C1536 0.960 . S
H1522 C1536 0.960 . S
H1523 C1536 0.960 . S
C1524 H1516 0.929 . S
C1524 C1525 1.377 . S
C1524 C1526 1.384 . S
C1525 C1524 1.377 . S
C1525 C1531 1.390 . S
C1526 H1517 0.930 . S
C1526 C1524 1.384 . S
C1526 C1527 1.372 . S
C1527 C1526 1.372 . S
C1527 C1528 1.400 . S
C1527 C1532 1.490 . S
C1528 H1518 0.930 . S
C1528 C1527 1.400 . S
C1528 C1531 1.386 . S
H1529 C1545 0.930 . S
H1530 C1546 0.931 . S
C1531 H1519 0.929 . S
C1531 C1525 1.390 . S
C1531 C1528 1.386 . S
C1532 C1527 1.490 . S
C1532 C1534 1.395 . S
C1532 C1535 1.403 . S
H1533 C1539 0.930 . S
C1534 H1520 0.930 . S
C1534 C1532 1.395 . S
C1534 C1537 1.403 . S
C1535 C1532 1.403 . S
C1535 C1536 1.524 . S
C1535 C1539 1.400 . S
C1536 H1521 0.960 . S
C1536 H1522 0.960 . S
C1536 H1523 0.960 . S
C1536 C1535 1.524 . S
C1537 C1534 1.403 . S
C1537 C1538 1.392 . S
C1537 C1541 1.495 . S
C1538 C1537 1.392 . S
C1538 C1539 1.385 . S
C1538 C1540 1.478 . S
C1539 H1533 0.930 . S
C1539 C1535 1.400 . S
C1539 C1538 1.385 . S
C1540 C1538 1.478 . S
C1540 C1542 1.381 . S
C1540 C1546 1.383 . S
C1541 C1537 1.495 . S
C1541 H1547 0.959 . S
C1541 H1548 0.961 . S
C1541 H1549 0.960 . S
C1542 C1540 1.381 . S
C1542 C1543 1.394 . S
C1542 H1550 0.930 . S
C1543 C1542 1.394 . S
C1543 C1544 1.383 . S
C1543 H1551 0.929 . S
C1544 C1543 1.383 . S
C1544 C1545 1.377 . S
C1545 H1529 0.930 . S
C1545 C1544 1.377 . S
C1545 C1546 1.379 . S
C1546 H1530 0.931 . S
C1546 C1540 1.383 . S
C1546 C1545 1.379 . S
H1547 C1541 0.959 . S
H1548 C1541 0.961 . S
H1549 C1541 0.960 . S
H1550 C1542 0.930 . S
H1551 C1543 0.929 . S
H1552 C1560 0.929 . S
H1553 C1562 0.930 . S
H1554 C1564 0.930 . S
H1555 C1567 0.929 . S
H1556 C1570 0.930 . S
H1557 C1572 0.960 . S
H1558 C1572 0.960 . S
H1559 C1572 0.960 . S
C1560 H1552 0.929 . S
C1560 C1561 1.377 . S
C1560 C1562 1.384 . S
C1561 C1560 1.377 . S
C1561 C1567 1.390 . S
C1562 H1553 0.930 . S
C1562 C1560 1.384 . S
C1562 C1563 1.372 . S
C1563 C1562 1.372 . S
C1563 C1564 1.400 . S
C1563 C1568 1.490 . S
C1564 H1554 0.930 . S
C1564 C1563 1.400 . S
C1564 C1567 1.386 . S
H1565 C1581 0.930 . S
H1566 C1582 0.931 . S
C1567 H1555 0.929 . S
C1567 C1561 1.390 . S
C1567 C1564 1.386 . S
C1568 C1563 1.490 . S
C1568 C1570 1.395 . S
C1568 C1571 1.403 . S
H1569 C1575 0.930 . S
C1570 H1556 0.930 . S
C1570 C1568 1.395 . S
C1570 C1573 1.403 . S
C1571 C1568 1.403 . S
C1571 C1572 1.524 . S
C1571 C1575 1.400 . S
C1572 H1557 0.960 . S
C1572 H1558 0.960 . S
C1572 H1559 0.960 . S
C1572 C1571 1.524 . S
C1573 C1570 1.403 . S
C1573 C1574 1.392 . S
C1573 C1577 1.495 . S
C1574 C1573 1.392 . S
C1574 C1575 1.385 . S
C1574 C1576 1.478 . S
C1575 H1569 0.930 . S
C1575 C1571 1.400 . S
C1575 C1574 1.385 . S
C1576 C1574 1.478 . S
C1576 C1578 1.381 . S
C1576 C1582 1.383 . S
C1577 C1573 1.495 . S
C1577 H1583 0.959 . S
C1577 H1584 0.961 . S
C1577 H1585 0.960 . S
C1578 C1576 1.381 . S
C1578 C1579 1.394 . S
C1578 H1586 0.930 . S
C1579 C1578 1.394 . S
C1579 C1580 1.383 . S
C1579 H1587 0.929 . S
C1580 C1579 1.383 . S
C1580 C1581 1.377 . S
C1581 H1565 0.930 . S
C1581 C1580 1.377 . S
C1581 C1582 1.379 . S
C1582 H1566 0.931 . S
C1582 C1576 1.383 . S
C1582 C1581 1.379 . S
H1583 C1577 0.959 . S
H1584 C1577 0.961 . S
H1585 C1577 0.960 . S
H1586 C1578 0.930 . S
H1587 C1579 0.929 . S
H1588 C1596 0.929 . S
H1589 C1598 0.930 . S
H1590 C1600 0.930 . S
H1591 C1603 0.929 . S
H1592 C1606 0.930 . S
H1593 C1608 0.960 . S
H1594 C1608 0.960 . S
H1595 C1608 0.960 . S
C1596 H1588 0.929 . S
C1596 C1597 1.377 . S
C1596 C1598 1.384 . S
C1597 C1596 1.377 . S
C1597 C1603 1.390 . S
C1598 H1589 0.930 . S
C1598 C1596 1.384 . S
C1598 C1599 1.372 . S
C1599 C1598 1.372 . S
C1599 C1600 1.400 . S
C1599 C1604 1.490 . S
C1600 H1590 0.930 . S
C1600 C1599 1.400 . S
C1600 C1603 1.386 . S
H1601 C1617 0.930 . S
H1602 C1618 0.931 . S
C1603 H1591 0.929 . S
C1603 C1597 1.390 . S
C1603 C1600 1.386 . S
C1604 C1599 1.490 . S
C1604 C1606 1.395 . S
C1604 C1607 1.403 . S
H1605 C1611 0.930 . S
C1606 H1592 0.930 . S
C1606 C1604 1.395 . S
C1606 C1609 1.403 . S
C1607 C1604 1.403 . S
C1607 C1608 1.524 . S
C1607 C1611 1.400 . S
C1608 H1593 0.960 . S
C1608 H1594 0.960 . S
C1608 H1595 0.960 . S
C1608 C1607 1.524 . S
C1609 C1606 1.403 . S
C1609 C1610 1.392 . S
C1609 C1613 1.495 . S
C1610 C1609 1.392 . S
C1610 C1611 1.385 . S
C1610 C1612 1.478 . S
C1611 H1605 0.930 . S
C1611 C1607 1.400 . S
C1611 C1610 1.385 . S
C1612 C1610 1.478 . S
C1612 C1614 1.381 . S
C1612 C1618 1.383 . S
C1613 C1609 1.495 . S
C1613 H1619 0.959 . S
C1613 H1620 0.961 . S
C1613 H1621 0.960 . S
C1614 C1612 1.381 . S
C1614 C1615 1.394 . S
C1614 H1622 0.930 . S
C1615 C1614 1.394 . S
C1615 C1616 1.383 . S
C1615 H1623 0.929 . S
C1616 C1615 1.383 . S
C1616 C1617 1.377 . S
C1617 H1601 0.930 . S
C1617 C1616 1.377 . S
C1617 C1618 1.379 . S
C1618 H1602 0.931 . S
C1618 C1612 1.383 . S
C1618 C1617 1.379 . S
H1619 C1613 0.959 . S
H1620 C1613 0.961 . S
H1621 C1613 0.960 . S
H1622 C1614 0.930 . S
H1623 C1615 0.929 . S
H1624 C1632 0.929 . S
H1625 C1634 0.930 . S
H1626 C1636 0.930 . S
H1627 C1639 0.929 . S
H1628 C1642 0.930 . S
H1629 C1644 0.960 . S
H1630 C1644 0.960 . S
H1631 C1644 0.960 . S
C1632 H1624 0.929 . S
C1632 C1633 1.377 . S
C1632 C1634 1.384 . S
C1633 C1632 1.377 . S
C1633 C1639 1.390 . S
C1634 H1625 0.930 . S
C1634 C1632 1.384 . S
C1634 C1635 1.372 . S
C1635 C1634 1.372 . S
C1635 C1636 1.400 . S
C1635 C1640 1.490 . S
C1636 H1626 0.930 . S
C1636 C1635 1.400 . S
C1636 C1639 1.386 . S
H1637 C1653 0.930 . S
H1638 C1654 0.931 . S
C1639 H1627 0.929 . S
C1639 C1633 1.390 . S
C1639 C1636 1.386 . S
C1640 C1635 1.490 . S
C1640 C1642 1.395 . S
C1640 C1643 1.403 . S
H1641 C1647 0.930 . S
C1642 H1628 0.930 . S
C1642 C1640 1.395 . S
C1642 C1645 1.403 . S
C1643 C1640 1.403 . S
C1643 C1644 1.524 . S
C1643 C1647 1.400 . S
C1644 H1629 0.960 . S
C1644 H1630 0.960 . S
C1644 H1631 0.960 . S
C1644 C1643 1.524 . S
C1645 C1642 1.403 . S
C1645 C1646 1.392 . S
C1645 C1649 1.495 . S
C1646 C1645 1.392 . S
C1646 C1647 1.385 . S
C1646 C1648 1.478 . S
C1647 H1641 0.930 . S
C1647 C1643 1.400 . S
C1647 C1646 1.385 . S
C1648 C1646 1.478 . S
C1648 C1650 1.381 . S
C1648 C1654 1.383 . S
C1649 C1645 1.495 . S
C1649 H1655 0.959 . S
C1649 H1656 0.961 . S
C1649 H1657 0.960 . S
C1650 C1648 1.381 . S
C1650 C1651 1.394 . S
C1650 H1658 0.930 . S
C1651 C1650 1.394 . S
C1651 C1652 1.383 . S
C1651 H1659 0.929 . S
C1652 C1651 1.383 . S
C1652 C1653 1.377 . S
C1653 H1637 0.930 . S
C1653 C1652 1.377 . S
C1653 C1654 1.379 . S
C1654 H1638 0.931 . S
C1654 C1648 1.383 . S
C1654 C1653 1.379 . S
H1655 C1649 0.959 . S
H1656 C1649 0.961 . S
H1657 C1649 0.960 . S
H1658 C1650 0.930 . S
H1659 C1651 0.929 . S
H1660 C1668 0.929 . S
H1661 C1670 0.930 . S
H1662 C1672 0.930 . S
H1663 C1675 0.929 . S
H1664 C1678 0.930 . S
H1665 C1680 0.960 . S
H1666 C1680 0.960 . S
H1667 C1680 0.960 . S
C1668 H1660 0.929 . S
C1668 C1669 1.377 . S
C1668 C1670 1.384 . S
C1669 C1668 1.377 . S
C1669 C1675 1.390 . S
C1670 H1661 0.930 . S
C1670 C1668 1.384 . S
C1670 C1671 1.372 . S
C1671 C1670 1.372 . S
C1671 C1672 1.400 . S
C1671 C1676 1.490 . S
C1672 H1662 0.930 . S
C1672 C1671 1.400 . S
C1672 C1675 1.386 . S
H1673 C1689 0.930 . S
H1674 C1690 0.931 . S
C1675 H1663 0.929 . S
C1675 C1669 1.390 . S
C1675 C1672 1.386 . S
C1676 C1671 1.490 . S
C1676 C1678 1.395 . S
C1676 C1679 1.403 . S
H1677 C1683 0.930 . S
C1678 H1664 0.930 . S
C1678 C1676 1.395 . S
C1678 C1681 1.403 . S
C1679 C1676 1.403 . S
C1679 C1680 1.524 . S
C1679 C1683 1.400 . S
C1680 H1665 0.960 . S
C1680 H1666 0.960 . S
C1680 H1667 0.960 . S
C1680 C1679 1.524 . S
C1681 C1678 1.403 . S
C1681 C1682 1.392 . S
C1681 C1685 1.495 . S
C1682 C1681 1.392 . S
C1682 C1683 1.385 . S
C1682 C1684 1.478 . S
C1683 H1677 0.930 . S
C1683 C1679 1.400 . S
C1683 C1682 1.385 . S
C1684 C1682 1.478 . S
C1684 C1686 1.381 . S
C1684 C1690 1.383 . S
C1685 C1681 1.495 . S
C1685 H1691 0.959 . S
C1685 H1692 0.961 . S
C1685 H1693 0.960 . S
C1686 C1684 1.381 . S
C1686 C1687 1.394 . S
C1686 H1694 0.930 . S
C1687 C1686 1.394 . S
C1687 C1688 1.383 . S
C1687 H1695 0.929 . S
C1688 C1687 1.383 . S
C1688 C1689 1.377 . S
C1689 H1673 0.930 . S
C1689 C1688 1.377 . S
C1689 C1690 1.379 . S
C1690 H1674 0.931 . S
C1690 C1684 1.383 . S
C1690 C1689 1.379 . S
H1691 C1685 0.959 . S
H1692 C1685 0.961 . S
H1693 C1685 0.960 . S
H1694 C1686 0.930 . S
H1695 C1687 0.929 . S
H1696 C1704 0.929 . S
H1697 C1706 0.930 . S
H1698 C1708 0.930 . S
H1699 C1711 0.929 . S
H1700 C1714 0.930 . S
H1701 C1716 0.960 . S
H1702 C1716 0.960 . S
H1703 C1716 0.960 . S
C1704 H1696 0.929 . S
C1704 C1705 1.377 . S
C1704 C1706 1.384 . S
C1705 C1704 1.377 . S
C1705 C1711 1.390 . S
C1706 H1697 0.930 . S
C1706 C1704 1.384 . S
C1706 C1707 1.372 . S
C1707 C1706 1.372 . S
C1707 C1708 1.400 . S
C1707 C1712 1.490 . S
C1708 H1698 0.930 . S
C1708 C1707 1.400 . S
C1708 C1711 1.386 . S
H1709 C1725 0.930 . S
H1710 C1726 0.931 . S
C1711 H1699 0.929 . S
C1711 C1705 1.390 . S
C1711 C1708 1.386 . S
C1712 C1707 1.490 . S
C1712 C1714 1.395 . S
C1712 C1715 1.403 . S
H1713 C1719 0.930 . S
C1714 H1700 0.930 . S
C1714 C1712 1.395 . S
C1714 C1717 1.403 1_556 S
C1715 C1712 1.403 . S
C1715 C1716 1.524 . S
C1715 C1719 1.400 1_556 S
C1716 H1701 0.960 . S
C1716 H1702 0.960 . S
C1716 H1703 0.960 . S
C1716 C1715 1.524 . S
C1717 C1714 1.403 1_554 S
C1717 C1718 1.392 . S
C1717 C1721 1.495 . S
C1718 C1717 1.392 . S
C1718 C1719 1.385 . S
C1718 C1720 1.478 . S
C1719 H1713 0.930 . S
C1719 C1715 1.400 1_554 S
C1719 C1718 1.385 . S
C1720 C1718 1.478 . S
C1720 C1722 1.381 . S
C1720 C1726 1.383 . S
C1721 C1717 1.495 . S
C1721 H1727 0.959 . S
C1721 H1728 0.961 . S
C1721 H1729 0.960 . S
C1722 C1720 1.381 . S
C1722 C1723 1.394 . S
C1722 H1730 0.930 . S
C1723 C1722 1.394 . S
C1723 C1724 1.383 . S
C1723 H1731 0.929 . S
C1724 C1723 1.383 . S
C1724 C1725 1.377 . S
C1725 H1709 0.930 . S
C1725 C1724 1.377 . S
C1725 C1726 1.379 . S
C1726 H1710 0.931 . S
C1726 C1720 1.383 . S
C1726 C1725 1.379 . S
H1727 C1721 0.959 . S
H1728 C1721 0.961 . S
H1729 C1721 0.960 . S
H1730 C1722 0.930 . S
H1731 C1723 0.929 . S
H1732 C1740 0.929 . S
H1733 C1742 0.930 . S
H1734 C1744 0.930 . S
H1735 C1747 0.929 . S
H1736 C1750 0.930 . S
H1737 C1752 0.960 . S
H1738 C1752 0.960 . S
H1739 C1752 0.960 . S
C1740 H1732 0.929 . S
C1740 C1741 1.377 . S
C1740 C1742 1.384 . S
C1741 C1740 1.377 . S
C1741 C1747 1.390 . S
C1742 H1733 0.930 . S
C1742 C1740 1.384 . S
C1742 C1743 1.372 . S
C1743 C1742 1.372 . S
C1743 C1744 1.400 . S
C1743 C1748 1.490 . S
C1744 H1734 0.930 . S
C1744 C1743 1.400 . S
C1744 C1747 1.386 . S
H1745 C1761 0.930 . S
H1746 C1762 0.931 . S
C1747 H1735 0.929 . S
C1747 C1741 1.390 . S
C1747 C1744 1.386 . S
C1748 C1743 1.490 . S
C1748 C1750 1.395 . S
C1748 C1751 1.403 . S
H1749 C1755 0.930 . S
C1750 H1736 0.930 . S
C1750 C1748 1.395 . S
C1750 C1753 1.403 1_556 S
C1751 C1748 1.403 . S
C1751 C1752 1.524 . S
C1751 C1755 1.400 1_556 S
C1752 H1737 0.960 . S
C1752 H1738 0.960 . S
C1752 H1739 0.960 . S
C1752 C1751 1.524 . S
C1753 C1750 1.403 1_554 S
C1753 C1754 1.392 . S
C1753 C1757 1.495 . S
C1754 C1753 1.392 . S
C1754 C1755 1.385 . S
C1754 C1756 1.478 . S
C1755 H1749 0.930 . S
C1755 C1751 1.400 1_554 S
C1755 C1754 1.385 . S
C1756 C1754 1.478 . S
C1756 C1758 1.381 . S
C1756 C1762 1.383 . S
C1757 C1753 1.495 . S
C1757 H1763 0.959 . S
C1757 H1764 0.961 . S
C1757 H1765 0.960 . S
C1758 C1756 1.381 . S
C1758 C1759 1.394 . S
C1758 H1766 0.930 . S
C1759 C1758 1.394 . S
C1759 C1760 1.383 . S
C1759 H1767 0.929 . S
C1760 C1759 1.383 . S
C1760 C1761 1.377 . S
C1761 H1745 0.930 . S
C1761 C1760 1.377 . S
C1761 C1762 1.379 . S
C1762 H1746 0.931 . S
C1762 C1756 1.383 . S
C1762 C1761 1.379 . S
H1763 C1757 0.959 . S
H1764 C1757 0.961 . S
H1765 C1757 0.960 . S
H1766 C1758 0.930 . S
H1767 C1759 0.929 . S
H1768 C1776 0.929 . S
H1769 C1778 0.930 . S
H1770 C1780 0.930 . S
H1771 C1783 0.929 . S
H1772 C1786 0.930 . S
H1773 C1788 0.960 . S
H1774 C1788 0.960 . S
H1775 C1788 0.960 . S
C1776 H1768 0.929 . S
C1776 C1777 1.377 . S
C1776 C1778 1.384 . S
C1777 C1776 1.377 . S
C1777 C1783 1.390 . S
C1778 H1769 0.930 . S
C1778 C1776 1.384 . S
C1778 C1779 1.372 . S
C1779 C1778 1.372 . S
C1779 C1780 1.400 . S
C1779 C1784 1.490 . S
C1780 H1770 0.930 . S
C1780 C1779 1.400 . S
C1780 C1783 1.386 . S
H1781 C1797 0.930 . S
H1782 C1798 0.931 . S
C1783 H1771 0.929 . S
C1783 C1777 1.390 . S
C1783 C1780 1.386 . S
C1784 C1779 1.490 . S
C1784 C1786 1.395 . S
C1784 C1787 1.403 . S
H1785 C1791 0.930 . S
C1786 H1772 0.930 . S
C1786 C1784 1.395 . S
C1786 C1789 1.403 1_556 S
C1787 C1784 1.403 . S
C1787 C1788 1.524 . S
C1787 C1791 1.400 1_556 S
C1788 H1773 0.960 . S
C1788 H1774 0.960 . S
C1788 H1775 0.960 . S
C1788 C1787 1.524 . S
C1789 C1786 1.403 1_554 S
C1789 C1790 1.392 . S
C1789 C1793 1.495 . S
C1790 C1789 1.392 . S
C1790 C1791 1.385 . S
C1790 C1792 1.478 . S
C1791 H1785 0.930 . S
C1791 C1787 1.400 1_554 S
C1791 C1790 1.385 . S
C1792 C1790 1.478 . S
C1792 C1794 1.381 . S
C1792 C1798 1.383 . S
C1793 C1789 1.495 . S
C1793 H1799 0.959 . S
C1793 H1800 0.961 . S
C1793 H1801 0.960 . S
C1794 C1792 1.381 . S
C1794 C1795 1.394 . S
C1794 H1802 0.930 . S
C1795 C1794 1.394 . S
C1795 C1796 1.383 . S
C1795 H1803 0.929 . S
C1796 C1795 1.383 . S
C1796 C1797 1.377 . S
C1797 H1781 0.930 . S
C1797 C1796 1.377 . S
C1797 C1798 1.379 . S
C1798 H1782 0.931 . S
C1798 C1792 1.383 . S
C1798 C1797 1.379 . S
H1799 C1793 0.959 . S
H1800 C1793 0.961 . S
H1801 C1793 0.960 . S
H1802 C1794 0.930 . S
H1803 C1795 0.929 . S
H1804 C1812 0.929 . S
H1805 C1814 0.930 . S
H1806 C1816 0.930 . S
H1807 C1819 0.929 . S
H1808 C1822 0.930 . S
H1809 C1824 0.960 . S
H1810 C1824 0.960 . S
H1811 C1824 0.960 . S
C1812 H1804 0.929 . S
C1812 C1813 1.377 . S
C1812 C1814 1.384 . S
C1813 C1812 1.377 . S
C1813 C1819 1.390 . S
C1814 H1805 0.930 . S
C1814 C1812 1.384 . S
C1814 C1815 1.372 . S
C1815 C1814 1.372 . S
C1815 C1816 1.400 . S
C1815 C1820 1.490 . S
C1816 H1806 0.930 . S
C1816 C1815 1.400 . S
C1816 C1819 1.386 . S
H1817 C1833 0.930 . S
H1818 C1834 0.931 . S
C1819 H1807 0.929 . S
C1819 C1813 1.390 . S
C1819 C1816 1.386 . S
C1820 C1815 1.490 . S
C1820 C1822 1.395 . S
C1820 C1823 1.403 . S
H1821 C1827 0.930 . S
C1822 H1808 0.930 . S
C1822 C1820 1.395 . S
C1822 C1825 1.403 1_554 S
C1823 C1820 1.403 . S
C1823 C1824 1.524 . S
C1823 C1827 1.400 1_554 S
C1824 H1809 0.960 . S
C1824 H1810 0.960 . S
C1824 H1811 0.960 . S
C1824 C1823 1.524 . S
C1825 C1822 1.403 1_556 S
C1825 C1826 1.392 . S
C1825 C1829 1.495 . S
C1826 C1825 1.392 . S
C1826 C1827 1.385 . S
C1826 C1828 1.478 . S
C1827 H1821 0.930 . S
C1827 C1823 1.400 1_556 S
C1827 C1826 1.385 . S
C1828 C1826 1.478 . S
C1828 C1830 1.381 . S
C1828 C1834 1.383 . S
C1829 C1825 1.495 . S
C1829 H1835 0.959 . S
C1829 H1836 0.961 . S
C1829 H1837 0.960 . S
C1830 C1828 1.381 . S
C1830 C1831 1.394 . S
C1830 H1838 0.930 . S
C1831 C1830 1.394 . S
C1831 C1832 1.383 . S
C1831 H1839 0.929 . S
C1832 C1831 1.383 . S
C1832 C1833 1.377 . S
C1833 H1817 0.930 . S
C1833 C1832 1.377 . S
C1833 C1834 1.379 . S
C1834 H1818 0.931 . S
C1834 C1828 1.383 . S
C1834 C1833 1.379 . S
H1835 C1829 0.959 . S
H1836 C1829 0.961 . S
H1837 C1829 0.960 . S
H1838 C1830 0.930 . S
H1839 C1831 0.929 . S
H1840 C1848 0.929 . S
H1841 C1850 0.930 . S
H1842 C1852 0.930 . S
H1843 C1855 0.929 . S
H1844 C1858 0.930 . S
H1845 C1860 0.960 . S
H1846 C1860 0.960 . S
H1847 C1860 0.960 . S
C1848 H1840 0.929 . S
C1848 C1849 1.377 . S
C1848 C1850 1.384 . S
C1849 C1848 1.377 . S
C1849 C1855 1.390 . S
C1850 H1841 0.930 . S
C1850 C1848 1.384 . S
C1850 C1851 1.372 . S
C1851 C1850 1.372 . S
C1851 C1852 1.400 . S
C1851 C1856 1.490 . S
C1852 H1842 0.930 . S
C1852 C1851 1.400 . S
C1852 C1855 1.386 . S
H1853 C1869 0.930 . S
H1854 C1870 0.931 . S
C1855 H1843 0.929 . S
C1855 C1849 1.390 . S
C1855 C1852 1.386 . S
C1856 C1851 1.490 . S
C1856 C1858 1.395 . S
C1856 C1859 1.403 . S
H1857 C1863 0.930 . S
C1858 H1844 0.930 . S
C1858 C1856 1.395 . S
C1858 C1861 1.403 . S
C1859 C1856 1.403 . S
C1859 C1860 1.524 . S
C1859 C1863 1.400 . S
C1860 H1845 0.960 . S
C1860 H1846 0.960 . S
C1860 H1847 0.960 . S
C1860 C1859 1.524 . S
C1861 C1858 1.403 . S
C1861 C1862 1.392 . S
C1861 C1865 1.495 . S
C1862 C1861 1.392 . S
C1862 C1863 1.385 . S
C1862 C1864 1.478 . S
C1863 H1857 0.930 . S
C1863 C1859 1.400 . S
C1863 C1862 1.385 . S
C1864 C1862 1.478 . S
C1864 C1866 1.381 . S
C1864 C1870 1.383 . S
C1865 C1861 1.495 . S
C1865 H1871 0.959 . S
C1865 H1872 0.961 . S
C1865 H1873 0.960 . S
C1866 C1864 1.381 . S
C1866 C1867 1.394 . S
C1866 H1874 0.930 . S
C1867 C1866 1.394 . S
C1867 C1868 1.383 . S
C1867 H1875 0.929 . S
C1868 C1867 1.383 . S
C1868 C1869 1.377 . S
C1869 H1853 0.930 . S
C1869 C1868 1.377 . S
C1869 C1870 1.379 . S
C1870 H1854 0.931 . S
C1870 C1864 1.383 . S
C1870 C1869 1.379 . S
H1871 C1865 0.959 . S
H1872 C1865 0.961 . S
H1873 C1865 0.960 . S
H1874 C1866 0.930 . S
H1875 C1867 0.929 . S
H1876 C1884 0.929 . S
H1877 C1886 0.930 . S
H1878 C1888 0.930 . S
H1879 C1891 0.929 . S
H1880 C1894 0.930 . S
H1881 C1896 0.960 . S
H1882 C1896 0.960 . S
H1883 C1896 0.960 . S
C1884 H1876 0.929 . S
C1884 C1885 1.377 . S
C1884 C1886 1.384 . S
C1885 C1884 1.377 . S
C1885 C1891 1.390 . S
C1886 H1877 0.930 . S
C1886 C1884 1.384 . S
C1886 C1887 1.372 . S
C1887 C1886 1.372 . S
C1887 C1888 1.400 . S
C1887 C1892 1.490 . S
C1888 H1878 0.930 . S
C1888 C1887 1.400 . S
C1888 C1891 1.386 . S
H1889 C1905 0.930 . S
H1890 C1906 0.931 . S
C1891 H1879 0.929 . S
C1891 C1885 1.390 . S
C1891 C1888 1.386 . S
C1892 C1887 1.490 . S
C1892 C1894 1.395 . S
C1892 C1895 1.403 . S
H1893 C1899 0.930 . S
C1894 H1880 0.930 . S
C1894 C1892 1.395 . S
C1894 C1897 1.403 . S
C1895 C1892 1.403 . S
C1895 C1896 1.524 . S
C1895 C1899 1.400 . S
C1896 H1881 0.960 . S
C1896 H1882 0.960 . S
C1896 H1883 0.960 . S
C1896 C1895 1.524 . S
C1897 C1894 1.403 . S
C1897 C1898 1.392 . S
C1897 C1901 1.495 . S
C1898 C1897 1.392 . S
C1898 C1899 1.385 . S
C1898 C1900 1.478 . S
C1899 H1893 0.930 . S
C1899 C1895 1.400 . S
C1899 C1898 1.385 . S
C1900 C1898 1.478 . S
C1900 C1902 1.381 . S
C1900 C1906 1.383 . S
C1901 C1897 1.495 . S
C1901 H1907 0.959 . S
C1901 H1908 0.961 . S
C1901 H1909 0.960 . S
C1902 C1900 1.381 . S
C1902 C1903 1.394 . S
C1902 H1910 0.930 . S
C1903 C1902 1.394 . S
C1903 C1904 1.383 . S
C1903 H1911 0.929 . S
C1904 C1903 1.383 . S
C1904 C1905 1.377 . S
C1905 H1889 0.930 . S
C1905 C1904 1.377 . S
C1905 C1906 1.379 . S
C1906 H1890 0.931 . S
C1906 C1900 1.383 . S
C1906 C1905 1.379 . S
H1907 C1901 0.959 . S
H1908 C1901 0.961 . S
H1909 C1901 0.960 . S
H1910 C1902 0.930 . S
H1911 C1903 0.929 . S
H1912 C1920 0.929 . S
H1913 C1922 0.930 . S
H1914 C1924 0.930 . S
H1915 C1927 0.929 . S
H1916 C1930 0.930 . S
H1917 C1932 0.960 . S
H1918 C1932 0.960 . S
H1919 C1932 0.960 . S
C1920 H1912 0.929 . S
C1920 C1921 1.377 . S
C1920 C1922 1.384 . S
C1921 C1920 1.377 . S
C1921 C1927 1.390 . S
C1922 H1913 0.930 . S
C1922 C1920 1.384 . S
C1922 C1923 1.372 . S
C1923 C1922 1.372 . S
C1923 C1924 1.400 . S
C1923 C1928 1.490 . S
C1924 H1914 0.930 . S
C1924 C1923 1.400 . S
C1924 C1927 1.386 . S
H1925 C1941 0.930 . S
H1926 C1942 0.931 . S
C1927 H1915 0.929 . S
C1927 C1921 1.390 . S
C1927 C1924 1.386 . S
C1928 C1923 1.490 . S
C1928 C1930 1.395 . S
C1928 C1931 1.403 . S
H1929 C1935 0.930 . S
C1930 H1916 0.930 . S
C1930 C1928 1.395 . S
C1930 C1933 1.403 . S
C1931 C1928 1.403 . S
C1931 C1932 1.524 . S
C1931 C1935 1.400 . S
C1932 H1917 0.960 . S
C1932 H1918 0.960 . S
C1932 H1919 0.960 . S
C1932 C1931 1.524 . S
C1933 C1930 1.403 . S
C1933 C1934 1.392 . S
C1933 C1937 1.495 . S
C1934 C1933 1.392 . S
C1934 C1935 1.385 . S
C1934 C1936 1.478 . S
C1935 H1929 0.930 . S
C1935 C1931 1.400 . S
C1935 C1934 1.385 . S
C1936 C1934 1.478 . S
C1936 C1938 1.381 . S
C1936 C1942 1.383 . S
C1937 C1933 1.495 . S
C1937 H1943 0.959 . S
C1937 H1944 0.961 . S
C1937 H1945 0.960 . S
C1938 C1936 1.381 . S
C1938 C1939 1.394 . S
C1938 H1946 0.930 . S
C1939 C1938 1.394 . S
C1939 C1940 1.383 . S
C1939 H1947 0.929 . S
C1940 C1939 1.383 . S
C1940 C1941 1.377 . S
C1941 H1925 0.930 . S
C1941 C1940 1.377 . S
C1941 C1942 1.379 . S
C1942 H1926 0.931 . S
C1942 C1936 1.383 . S
C1942 C1941 1.379 . S
H1943 C1937 0.959 . S
H1944 C1937 0.961 . S
H1945 C1937 0.960 . S
H1946 C1938 0.930 . S
H1947 C1939 0.929 . S
H1948 C1956 0.929 . S
H1949 C1958 0.930 . S
H1950 C1960 0.930 . S
H1951 C1963 0.929 . S
H1952 C1966 0.930 . S
H1953 C1968 0.960 . S
H1954 C1968 0.960 . S
H1955 C1968 0.960 . S
C1956 H1948 0.929 . S
C1956 C1957 1.377 . S
C1956 C1958 1.384 . S
C1957 C1956 1.377 . S
C1957 C1963 1.390 . S
C1958 H1949 0.930 . S
C1958 C1956 1.384 . S
C1958 C1959 1.372 . S
C1959 C1958 1.372 . S
C1959 C1960 1.400 . S
C1959 C1964 1.490 . S
C1960 H1950 0.930 . S
C1960 C1959 1.400 . S
C1960 C1963 1.386 . S
H1961 C1977 0.930 . S
H1962 C1978 0.931 . S
C1963 H1951 0.929 . S
C1963 C1957 1.390 . S
C1963 C1960 1.386 . S
C1964 C1959 1.490 . S
C1964 C1966 1.395 . S
C1964 C1967 1.403 . S
H1965 C1971 0.930 . S
C1966 H1952 0.930 . S
C1966 C1964 1.395 . S
C1966 C1969 1.403 . S
C1967 C1964 1.403 . S
C1967 C1968 1.524 . S
C1967 C1971 1.400 . S
C1968 H1953 0.960 . S
C1968 H1954 0.960 . S
C1968 H1955 0.960 . S
C1968 C1967 1.524 . S
C1969 C1966 1.403 . S
C1969 C1970 1.392 . S
C1969 C1973 1.495 . S
C1970 C1969 1.392 . S
C1970 C1971 1.385 . S
C1970 C1972 1.478 . S
C1971 H1965 0.930 . S
C1971 C1967 1.400 . S
C1971 C1970 1.385 . S
C1972 C1970 1.478 . S
C1972 C1974 1.381 . S
C1972 C1978 1.383 . S
C1973 C1969 1.495 . S
C1973 H1979 0.959 . S
C1973 H1980 0.961 . S
C1973 H1981 0.960 . S
C1974 C1972 1.381 . S
C1974 C1975 1.394 . S
C1974 H1982 0.930 . S
C1975 C1974 1.394 . S
C1975 C1976 1.383 . S
C1975 H1983 0.929 . S
C1976 C1975 1.383 . S
C1976 C1977 1.377 . S
C1977 H1961 0.930 . S
C1977 C1976 1.377 . S
C1977 C1978 1.379 . S
C1978 H1962 0.931 . S
C1978 C1972 1.383 . S
C1978 C1977 1.379 . S
H1979 C1973 0.959 . S
H1980 C1973 0.961 . S
H1981 C1973 0.960 . S
H1982 C1974 0.930 . S
H1983 C1975 0.929 . S
H1984 C1992 0.929 . S
H1985 C1994 0.930 . S
H1986 C1996 0.930 . S
H1987 C1999 0.929 . S
H1988 C2002 0.930 . S
H1989 C2004 0.960 . S
H1990 C2004 0.960 . S
H1991 C2004 0.960 . S
C1992 H1984 0.929 . S
C1992 C1993 1.377 . S
C1992 C1994 1.384 . S
C1993 C1992 1.377 . S
C1993 C1999 1.390 . S
C1994 H1985 0.930 . S
C1994 C1992 1.384 . S
C1994 C1995 1.372 . S
C1995 C1994 1.372 . S
C1995 C1996 1.400 . S
C1995 C2000 1.490 . S
C1996 H1986 0.930 . S
C1996 C1995 1.400 . S
C1996 C1999 1.386 . S
H1997 C2013 0.930 . S
H1998 C2014 0.931 . S
C1999 H1987 0.929 . S
C1999 C1993 1.390 . S
C1999 C1996 1.386 . S
C2000 C1995 1.490 . S
C2000 C2002 1.395 . S
C2000 C2003 1.403 . S
H2001 C2007 0.930 . S
C2002 H1988 0.930 . S
C2002 C2000 1.395 . S
C2002 C2005 1.403 . S
C2003 C2000 1.403 . S
C2003 C2004 1.524 . S
C2003 C2007 1.400 . S
C2004 H1989 0.960 . S
C2004 H1990 0.960 . S
C2004 H1991 0.960 . S
C2004 C2003 1.524 . S
C2005 C2002 1.403 . S
C2005 C2006 1.392 . S
C2005 C2009 1.495 . S
C2006 C2005 1.392 . S
C2006 C2007 1.385 . S
C2006 C2008 1.478 . S
C2007 H2001 0.930 . S
C2007 C2003 1.400 . S
C2007 C2006 1.385 . S
C2008 C2006 1.478 . S
C2008 C2010 1.381 . S
C2008 C2014 1.383 . S
C2009 C2005 1.495 . S
C2009 H2015 0.959 . S
C2009 H2016 0.961 . S
C2009 H2017 0.960 . S
C2010 C2008 1.381 . S
C2010 C2011 1.394 . S
C2010 H2018 0.930 . S
C2011 C2010 1.394 . S
C2011 C2012 1.383 . S
C2011 H2019 0.929 . S
C2012 C2011 1.383 . S
C2012 C2013 1.377 . S
C2013 H1997 0.930 . S
C2013 C2012 1.377 . S
C2013 C2014 1.379 . S
C2014 H1998 0.931 . S
C2014 C2008 1.383 . S
C2014 C2013 1.379 . S
H2015 C2009 0.959 . S
H2016 C2009 0.961 . S
H2017 C2009 0.960 . S
H2018 C2010 0.930 . S
H2019 C2011 0.929 . S
H2020 C2028 0.929 . S
H2021 C2030 0.930 . S
H2022 C2032 0.930 . S
H2023 C2035 0.929 . S
H2024 C2038 0.930 . S
H2025 C2040 0.960 . S
H2026 C2040 0.960 . S
H2027 C2040 0.960 . S
C2028 H2020 0.929 . S
C2028 C2029 1.377 . S
C2028 C2030 1.384 . S
C2029 C2028 1.377 . S
C2029 C2035 1.390 . S
C2030 H2021 0.930 . S
C2030 C2028 1.384 . S
C2030 C2031 1.372 . S
C2031 C2030 1.372 . S
C2031 C2032 1.400 . S
C2031 C2036 1.490 . S
C2032 H2022 0.930 . S
C2032 C2031 1.400 . S
C2032 C2035 1.386 . S
H2033 C2049 0.930 . S
H2034 C2050 0.931 . S
C2035 H2023 0.929 . S
C2035 C2029 1.390 . S
C2035 C2032 1.386 . S
C2036 C2031 1.490 . S
C2036 C2038 1.395 . S
C2036 C2039 1.403 . S
H2037 C2043 0.930 . S
C2038 H2024 0.930 . S
C2038 C2036 1.395 . S
C2038 C2041 1.403 . S
C2039 C2036 1.403 . S
C2039 C2040 1.524 . S
C2039 C2043 1.400 . S
C2040 H2025 0.960 . S
C2040 H2026 0.960 . S
C2040 H2027 0.960 . S
C2040 C2039 1.524 . S
C2041 C2038 1.403 . S
C2041 C2042 1.392 . S
C2041 C2045 1.495 . S
C2042 C2041 1.392 . S
C2042 C2043 1.385 . S
C2042 C2044 1.478 . S
C2043 H2037 0.930 . S
C2043 C2039 1.400 . S
C2043 C2042 1.385 . S
C2044 C2042 1.478 . S
C2044 C2046 1.381 . S
C2044 C2050 1.383 . S
C2045 C2041 1.495 . S
C2045 H2051 0.959 . S
C2045 H2052 0.961 . S
C2045 H2053 0.960 . S
C2046 C2044 1.381 . S
C2046 C2047 1.394 . S
C2046 H2054 0.930 . S
C2047 C2046 1.394 . S
C2047 C2048 1.383 . S
C2047 H2055 0.929 . S
C2048 C2047 1.383 . S
C2048 C2049 1.377 . S
C2049 H2033 0.930 . S
C2049 C2048 1.377 . S
C2049 C2050 1.379 . S
C2050 H2034 0.931 . S
C2050 C2044 1.383 . S
C2050 C2049 1.379 . S
H2051 C2045 0.959 . S
H2052 C2045 0.961 . S
H2053 C2045 0.960 . S
H2054 C2046 0.930 . S
H2055 C2047 0.929 . S
H2056 C2064 0.929 . S
H2057 C2066 0.930 . S
H2058 C2068 0.930 . S
H2059 C2071 0.929 . S
H2060 C2074 0.930 . S
H2061 C2076 0.960 . S
H2062 C2076 0.960 . S
H2063 C2076 0.960 . S
C2064 H2056 0.929 . S
C2064 C2065 1.377 . S
C2064 C2066 1.384 . S
C2065 C2064 1.377 . S
C2065 C2071 1.390 . S
C2066 H2057 0.930 . S
C2066 C2064 1.384 . S
C2066 C2067 1.372 . S
C2067 C2066 1.372 . S
C2067 C2068 1.400 . S
C2067 C2072 1.490 . S
C2068 H2058 0.930 . S
C2068 C2067 1.400 . S
C2068 C2071 1.386 . S
H2069 C2085 0.930 . S
H2070 C2086 0.931 . S
C2071 H2059 0.929 . S
C2071 C2065 1.390 . S
C2071 C2068 1.386 . S
C2072 C2067 1.490 . S
C2072 C2074 1.395 . S
C2072 C2075 1.403 . S
H2073 C2079 0.930 . S
C2074 H2060 0.930 . S
C2074 C2072 1.395 . S
C2074 C2077 1.403 . S
C2075 C2072 1.403 . S
C2075 C2076 1.524 . S
C2075 C2079 1.400 . S
C2076 H2061 0.960 . S
C2076 H2062 0.960 . S
C2076 H2063 0.960 . S
C2076 C2075 1.524 . S
C2077 C2074 1.403 . S
C2077 C2078 1.392 . S
C2077 C2081 1.495 . S
C2078 C2077 1.392 . S
C2078 C2079 1.385 . S
C2078 C2080 1.478 . S
C2079 H2073 0.930 . S
C2079 C2075 1.400 . S
C2079 C2078 1.385 . S
C2080 C2078 1.478 . S
C2080 C2082 1.381 . S
C2080 C2086 1.383 . S
C2081 C2077 1.495 . S
C2081 H2087 0.959 . S
C2081 H2088 0.961 . S
C2081 H2089 0.960 . S
C2082 C2080 1.381 . S
C2082 C2083 1.394 . S
C2082 H2090 0.930 . S
C2083 C2082 1.394 . S
C2083 C2084 1.383 . S
C2083 H2091 0.929 . S
C2084 C2083 1.383 . S
C2084 C2085 1.377 . S
C2085 H2069 0.930 . S
C2085 C2084 1.377 . S
C2085 C2086 1.379 . S
C2086 H2070 0.931 . S
C2086 C2080 1.383 . S
C2086 C2085 1.379 . S
H2087 C2081 0.959 . S
H2088 C2081 0.961 . S
H2089 C2081 0.960 . S
H2090 C2082 0.930 . S
H2091 C2083 0.929 . S
H2092 C2100 0.929 . S
H2093 C2102 0.930 . S
H2094 C2104 0.930 . S
H2095 C2107 0.929 . S
H2096 C2110 0.930 . S
H2097 C2112 0.960 . S
H2098 C2112 0.960 . S
H2099 C2112 0.960 . S
C2100 H2092 0.929 . S
C2100 C2101 1.377 . S
C2100 C2102 1.384 . S
C2101 C2100 1.377 . S
C2101 C2107 1.390 . S
C2102 H2093 0.930 . S
C2102 C2100 1.384 . S
C2102 C2103 1.372 . S
C2103 C2102 1.372 . S
C2103 C2104 1.400 . S
C2103 C2108 1.490 . S
C2104 H2094 0.930 . S
C2104 C2103 1.400 . S
C2104 C2107 1.386 . S
H2105 C2121 0.930 . S
H2106 C2122 0.931 . S
C2107 H2095 0.929 . S
C2107 C2101 1.390 . S
C2107 C2104 1.386 . S
C2108 C2103 1.490 . S
C2108 C2110 1.395 . S
C2108 C2111 1.403 . S
H2109 C2115 0.930 . S
C2110 H2096 0.930 . S
C2110 C2108 1.395 . S
C2110 C2113 1.403 . S
C2111 C2108 1.403 . S
C2111 C2112 1.524 . S
C2111 C2115 1.400 . S
C2112 H2097 0.960 . S
C2112 H2098 0.960 . S
C2112 H2099 0.960 . S
C2112 C2111 1.524 . S
C2113 C2110 1.403 . S
C2113 C2114 1.392 . S
C2113 C2117 1.495 . S
C2114 C2113 1.392 . S
C2114 C2115 1.385 . S
C2114 C2116 1.478 . S
C2115 H2109 0.930 . S
C2115 C2111 1.400 . S
C2115 C2114 1.385 . S
C2116 C2114 1.478 . S
C2116 C2118 1.381 . S
C2116 C2122 1.383 . S
C2117 C2113 1.495 . S
C2117 H2123 0.959 . S
C2117 H2124 0.961 . S
C2117 H2125 0.960 . S
C2118 C2116 1.381 . S
C2118 C2119 1.394 . S
C2118 H2126 0.930 . S
C2119 C2118 1.394 . S
C2119 C2120 1.383 . S
C2119 H2127 0.929 . S
C2120 C2119 1.383 . S
C2120 C2121 1.377 . S
C2121 H2105 0.930 . S
C2121 C2120 1.377 . S
C2121 C2122 1.379 . S
C2122 H2106 0.931 . S
C2122 C2116 1.383 . S
C2122 C2121 1.379 . S
H2123 C2117 0.959 . S
H2124 C2117 0.961 . S
H2125 C2117 0.960 . S
H2126 C2118 0.930 . S
H2127 C2119 0.929 . S
H2128 C2136 0.929 . S
H2129 C2138 0.930 . S
H2130 C2140 0.930 . S
H2131 C2143 0.929 . S
H2132 C2146 0.930 . S
H2133 C2148 0.960 . S
H2134 C2148 0.960 . S
H2135 C2148 0.960 . S
C2136 H2128 0.929 . S
C2136 C2137 1.377 . S
C2136 C2138 1.384 . S
C2137 C2136 1.377 . S
C2137 C2143 1.390 . S
C2138 H2129 0.930 . S
C2138 C2136 1.384 . S
C2138 C2139 1.372 . S
C2139 C2138 1.372 . S
C2139 C2140 1.400 . S
C2139 C2144 1.490 . S
C2140 H2130 0.930 . S
C2140 C2139 1.400 . S
C2140 C2143 1.386 . S
H2141 C2157 0.930 . S
H2142 C2158 0.931 . S
C2143 H2131 0.929 . S
C2143 C2137 1.390 . S
C2143 C2140 1.386 . S
C2144 C2139 1.490 . S
C2144 C2146 1.395 . S
C2144 C2147 1.403 . S
H2145 C2151 0.930 . S
C2146 H2132 0.930 . S
C2146 C2144 1.395 . S
C2146 C2149 1.403 . S
C2147 C2144 1.403 . S
C2147 C2148 1.524 . S
C2147 C2151 1.400 . S
C2148 H2133 0.960 . S
C2148 H2134 0.960 . S
C2148 H2135 0.960 . S
C2148 C2147 1.524 . S
C2149 C2146 1.403 . S
C2149 C2150 1.392 . S
C2149 C2153 1.495 . S
C2150 C2149 1.392 . S
C2150 C2151 1.385 . S
C2150 C2152 1.478 . S
C2151 H2145 0.930 . S
C2151 C2147 1.400 . S
C2151 C2150 1.385 . S
C2152 C2150 1.478 . S
C2152 C2154 1.381 . S
C2152 C2158 1.383 . S
C2153 C2149 1.495 . S
C2153 H2159 0.959 . S
C2153 H2160 0.961 . S
C2153 H2161 0.960 . S
C2154 C2152 1.381 . S
C2154 C2155 1.394 . S
C2154 H2162 0.930 . S
C2155 C2154 1.394 . S
C2155 C2156 1.383 . S
C2155 H2163 0.929 . S
C2156 C2155 1.383 . S
C2156 C2157 1.377 . S
C2157 H2141 0.930 . S
C2157 C2156 1.377 . S
C2157 C2158 1.379 . S
C2158 H2142 0.931 . S
C2158 C2152 1.383 . S
C2158 C2157 1.379 . S
H2159 C2153 0.959 . S
H2160 C2153 0.961 . S
H2161 C2153 0.960 . S
H2162 C2154 0.930 . S
H2163 C2155 0.929 . S
H2164 C2172 0.929 . S
H2165 C2174 0.930 . S
H2166 C2176 0.930 . S
H2167 C2179 0.929 . S
H2168 C2182 0.930 . S
H2169 C2184 0.960 . S
H2170 C2184 0.960 . S
H2171 C2184 0.960 . S
C2172 H2164 0.929 . S
C2172 C2173 1.377 . S
C2172 C2174 1.384 . S
C2173 C2172 1.377 . S
C2173 C2179 1.390 . S
C2174 H2165 0.930 . S
C2174 C2172 1.384 . S
C2174 C2175 1.372 . S
C2175 C2174 1.372 . S
C2175 C2176 1.400 . S
C2175 C2180 1.490 . S
C2176 H2166 0.930 . S
C2176 C2175 1.400 . S
C2176 C2179 1.386 . S
H2177 C2193 0.930 . S
H2178 C2194 0.931 . S
C2179 H2167 0.929 . S
C2179 C2173 1.390 . S
C2179 C2176 1.386 . S
C2180 C2175 1.490 . S
C2180 C2182 1.395 . S
C2180 C2183 1.403 . S
H2181 C2187 0.930 . S
C2182 H2168 0.930 . S
C2182 C2180 1.395 . S
C2182 C2185 1.403 . S
C2183 C2180 1.403 . S
C2183 C2184 1.524 . S
C2183 C2187 1.400 . S
C2184 H2169 0.960 . S
C2184 H2170 0.960 . S
C2184 H2171 0.960 . S
C2184 C2183 1.524 . S
C2185 C2182 1.403 . S
C2185 C2186 1.392 . S
C2185 C2189 1.495 . S
C2186 C2185 1.392 . S
C2186 C2187 1.385 . S
C2186 C2188 1.478 . S
C2187 H2181 0.930 . S
C2187 C2183 1.400 . S
C2187 C2186 1.385 . S
C2188 C2186 1.478 . S
C2188 C2190 1.381 . S
C2188 C2194 1.383 . S
C2189 C2185 1.495 . S
C2189 H2195 0.959 . S
C2189 H2196 0.961 . S
C2189 H2197 0.960 . S
C2190 C2188 1.381 . S
C2190 C2191 1.394 . S
C2190 H2198 0.930 . S
C2191 C2190 1.394 . S
C2191 C2192 1.383 . S
C2191 H2199 0.929 . S
C2192 C2191 1.383 . S
C2192 C2193 1.377 . S
C2193 H2177 0.930 . S
C2193 C2192 1.377 . S
C2193 C2194 1.379 . S
C2194 H2178 0.931 . S
C2194 C2188 1.383 . S
C2194 C2193 1.379 . S
H2195 C2189 0.959 . S
H2196 C2189 0.961 . S
H2197 C2189 0.960 . S
H2198 C2190 0.930 . S
H2199 C2191 0.929 . S
H2200 C2208 0.929 . S
H2201 C2210 0.930 . S
H2202 C2212 0.930 . S
H2203 C2215 0.929 . S
H2204 C2218 0.930 . S
H2205 C2220 0.960 . S
H2206 C2220 0.960 . S
H2207 C2220 0.960 . S
C2208 H2200 0.929 . S
C2208 C2209 1.377 . S
C2208 C2210 1.384 . S
C2209 C2208 1.377 . S
C2209 C2215 1.390 . S
C2210 H2201 0.930 . S
C2210 C2208 1.384 . S
C2210 C2211 1.372 . S
C2211 C2210 1.372 . S
C2211 C2212 1.400 . S
C2211 C2216 1.490 . S
C2212 H2202 0.930 . S
C2212 C2211 1.400 . S
C2212 C2215 1.386 . S
H2213 C2229 0.930 . S
H2214 C2230 0.931 . S
C2215 H2203 0.929 . S
C2215 C2209 1.390 . S
C2215 C2212 1.386 . S
C2216 C2211 1.490 . S
C2216 C2218 1.395 . S
C2216 C2219 1.403 . S
H2217 C2223 0.930 . S
C2218 H2204 0.930 . S
C2218 C2216 1.395 . S
C2218 C2221 1.403 . S
C2219 C2216 1.403 . S
C2219 C2220 1.524 . S
C2219 C2223 1.400 . S
C2220 H2205 0.960 . S
C2220 H2206 0.960 . S
C2220 H2207 0.960 . S
C2220 C2219 1.524 . S
C2221 C2218 1.403 . S
C2221 C2222 1.392 . S
C2221 C2225 1.495 . S
C2222 C2221 1.392 . S
C2222 C2223 1.385 . S
C2222 C2224 1.478 . S
C2223 H2217 0.930 . S
C2223 C2219 1.400 . S
C2223 C2222 1.385 . S
C2224 C2222 1.478 . S
C2224 C2226 1.381 . S
C2224 C2230 1.383 . S
C2225 C2221 1.495 . S
C2225 H2231 0.959 . S
C2225 H2232 0.961 . S
C2225 H2233 0.960 . S
C2226 C2224 1.381 . S
C2226 C2227 1.394 . S
C2226 H2234 0.930 . S
C2227 C2226 1.394 . S
C2227 C2228 1.383 . S
C2227 H2235 0.929 . S
C2228 C2227 1.383 . S
C2228 C2229 1.377 . S
C2229 H2213 0.930 . S
C2229 C2228 1.377 . S
C2229 C2230 1.379 . S
C2230 H2214 0.931 . S
C2230 C2224 1.383 . S
C2230 C2229 1.379 . S
H2231 C2225 0.959 . S
H2232 C2225 0.961 . S
H2233 C2225 0.960 . S
H2234 C2226 0.930 . S
H2235 C2227 0.929 . S
H2236 C2244 0.929 . S
H2237 C2246 0.930 . S
H2238 C2248 0.930 . S
H2239 C2251 0.929 . S
H2240 C2254 0.930 . S
H2241 C2256 0.960 . S
H2242 C2256 0.960 . S
H2243 C2256 0.960 . S
C2244 H2236 0.929 . S
C2244 C2245 1.377 . S
C2244 C2246 1.384 . S
C2245 C2244 1.377 . S
C2245 C2251 1.390 . S
C2246 H2237 0.930 . S
C2246 C2244 1.384 . S
C2246 C2247 1.372 . S
C2247 C2246 1.372 . S
C2247 C2248 1.400 . S
C2247 C2252 1.490 . S
C2248 H2238 0.930 . S
C2248 C2247 1.400 . S
C2248 C2251 1.386 . S
H2249 C2265 0.930 . S
H2250 C2266 0.931 . S
C2251 H2239 0.929 . S
C2251 C2245 1.390 . S
C2251 C2248 1.386 . S
C2252 C2247 1.490 . S
C2252 C2254 1.395 . S
C2252 C2255 1.403 . S
H2253 C2259 0.930 . S
C2254 H2240 0.930 . S
C2254 C2252 1.395 . S
C2254 C2257 1.403 . S
C2255 C2252 1.403 . S
C2255 C2256 1.524 . S
C2255 C2259 1.400 . S
C2256 H2241 0.960 . S
C2256 H2242 0.960 . S
C2256 H2243 0.960 . S
C2256 C2255 1.524 . S
C2257 C2254 1.403 . S
C2257 C2258 1.392 . S
C2257 C2261 1.495 . S
C2258 C2257 1.392 . S
C2258 C2259 1.385 . S
C2258 C2260 1.478 . S
C2259 H2253 0.930 . S
C2259 C2255 1.400 . S
C2259 C2258 1.385 . S
C2260 C2258 1.478 . S
C2260 C2262 1.381 . S
C2260 C2266 1.383 . S
C2261 C2257 1.495 . S
C2261 H2267 0.959 . S
C2261 H2268 0.961 . S
C2261 H2269 0.960 . S
C2262 C2260 1.381 . S
C2262 C2263 1.394 . S
C2262 H2270 0.930 . S
C2263 C2262 1.394 . S
C2263 C2264 1.383 . S
C2263 H2271 0.929 . S
C2264 C2263 1.383 . S
C2264 C2265 1.377 . S
C2265 H2249 0.930 . S
C2265 C2264 1.377 . S
C2265 C2266 1.379 . S
C2266 H2250 0.931 . S
C2266 C2260 1.383 . S
C2266 C2265 1.379 . S
H2267 C2261 0.959 . S
H2268 C2261 0.961 . S
H2269 C2261 0.960 . S
H2270 C2262 0.930 . S
H2271 C2263 0.929 . S
H2272 C2280 0.929 . S
H2273 C2282 0.930 . S
H2274 C2284 0.930 . S
H2275 C2287 0.929 . S
H2276 C2290 0.930 . S
H2277 C2292 0.960 . S
H2278 C2292 0.960 . S
H2279 C2292 0.960 . S
C2280 H2272 0.929 . S
C2280 C2281 1.377 . S
C2280 C2282 1.384 . S
C2281 C2280 1.377 . S
C2281 C2287 1.390 . S
C2282 H2273 0.930 . S
C2282 C2280 1.384 . S
C2282 C2283 1.372 . S
C2283 C2282 1.372 . S
C2283 C2284 1.400 . S
C2283 C2288 1.490 . S
C2284 H2274 0.930 . S
C2284 C2283 1.400 . S
C2284 C2287 1.386 . S
H2285 C2301 0.930 . S
H2286 C2302 0.931 . S
C2287 H2275 0.929 . S
C2287 C2281 1.390 . S
C2287 C2284 1.386 . S
C2288 C2283 1.490 . S
C2288 C2290 1.395 . S
C2288 C2291 1.403 . S
H2289 C2295 0.930 . S
C2290 H2276 0.930 . S
C2290 C2288 1.395 . S
C2290 C2293 1.403 1_545 S
C2291 C2288 1.403 . S
C2291 C2292 1.524 . S
C2291 C2295 1.400 1_545 S
C2292 H2277 0.960 . S
C2292 H2278 0.960 . S
C2292 H2279 0.960 . S
C2292 C2291 1.524 . S
C2293 C2290 1.403 1_565 S
C2293 C2294 1.392 . S
C2293 C2297 1.495 . S
C2294 C2293 1.392 . S
C2294 C2295 1.385 . S
C2294 C2296 1.478 . S
C2295 H2289 0.930 . S
C2295 C2291 1.400 1_565 S
C2295 C2294 1.385 . S
C2296 C2294 1.478 . S
C2296 C2298 1.381 . S
C2296 C2302 1.383 . S
C2297 C2293 1.495 . S
C2297 H2303 0.959 . S
C2297 H2304 0.961 . S
C2297 H2305 0.960 . S
C2298 C2296 1.381 . S
C2298 C2299 1.394 . S
C2298 H2306 0.930 . S
C2299 C2298 1.394 . S
C2299 C2300 1.383 . S
C2299 H2307 0.929 . S
C2300 C2299 1.383 . S
C2300 C2301 1.377 . S
C2301 H2285 0.930 . S
C2301 C2300 1.377 . S
C2301 C2302 1.379 . S
C2302 H2286 0.931 . S
C2302 C2296 1.383 . S
C2302 C2301 1.379 . S
H2303 C2297 0.959 . S
H2304 C2297 0.961 . S
H2305 C2297 0.960 . S
H2306 C2298 0.930 . S
H2307 C2299 0.929 . S
H2308 C2316 0.929 . S
H2309 C2318 0.930 . S
H2310 C2320 0.930 . S
H2311 C2323 0.929 . S
H2312 C2326 0.930 . S
H2313 C2328 0.960 1_455 S
H2314 C2328 0.960 . S
H2315 C2328 0.960 . S
C2316 H2308 0.929 . S
C2316 C2317 1.377 . S
C2316 C2318 1.384 . S
C2317 C2316 1.377 . S
C2317 C2323 1.390 . S
C2318 H2309 0.930 . S
C2318 C2316 1.384 . S
C2318 C2319 1.372 . S
C2319 C2318 1.372 . S
C2319 C2320 1.400 . S
C2319 C2324 1.490 . S
C2320 H2310 0.930 . S
C2320 C2319 1.400 . S
C2320 C2323 1.386 . S
H2321 C2337 0.930 . S
H2322 C2338 0.931 . S
C2323 H2311 0.929 . S
C2323 C2317 1.390 . S
C2323 C2320 1.386 . S
C2324 C2319 1.490 . S
C2324 C2326 1.395 . S
C2324 C2327 1.403 . S
H2325 C2331 0.930 . S
C2326 H2312 0.930 . S
C2326 C2324 1.395 . S
C2326 C2329 1.403 1_655 S
C2327 C2324 1.403 . S
C2327 C2328 1.524 . S
C2327 C2331 1.400 1_655 S
C2328 H2313 0.960 1_655 S
C2328 H2314 0.960 . S
C2328 H2315 0.960 . S
C2328 C2327 1.524 . S
C2329 C2326 1.403 1_455 S
C2329 C2330 1.392 . S
C2329 C2333 1.495 . S
C2330 C2329 1.392 . S
C2330 C2331 1.385 . S
C2330 C2332 1.478 . S
C2331 H2325 0.930 . S
C2331 C2327 1.400 1_455 S
C2331 C2330 1.385 . S
C2332 C2330 1.478 . S
C2332 C2334 1.381 . S
C2332 C2338 1.383 . S
C2333 C2329 1.495 . S
C2333 H2339 0.921 1_455 S
C2333 H2340 0.961 . S
C2333 H2341 0.960 . S
C2334 C2332 1.381 . S
C2334 C2335 1.394 . S
C2334 H2342 0.930 . S
C2335 C2334 1.394 . S
C2335 C2336 1.383 . S
C2335 H2343 0.929 . S
C2336 C2335 1.383 . S
C2336 C2337 1.377 . S
C2337 H2321 0.930 . S
C2337 C2336 1.377 . S
C2337 C2338 1.379 . S
C2338 H2322 0.931 . S
C2338 C2332 1.383 . S
C2338 C2337 1.379 . S
H2339 C2333 0.921 1_655 S
H2340 C2333 0.961 . S
H2341 C2333 0.960 . S
H2342 C2334 0.930 . S
H2343 C2335 0.929 . S
H2344 C2352 0.929 . S
H2345 C2354 0.930 . S
H2346 C2356 0.930 . S
H2347 C2359 0.929 . S
H2348 C2362 0.930 . S
H2349 C2364 0.960 . S
H2350 C2364 0.960 . S
H2351 C2364 0.960 . S
C2352 H2344 0.929 . S
C2352 C2353 1.377 . S
C2352 C2354 1.384 . S
C2353 C2352 1.377 . S
C2353 C2359 1.390 . S
C2354 H2345 0.930 . S
C2354 C2352 1.384 . S
C2354 C2355 1.372 . S
C2355 C2354 1.372 . S
C2355 C2356 1.400 . S
C2355 C2360 1.490 . S
C2356 H2346 0.930 . S
C2356 C2355 1.400 . S
C2356 C2359 1.386 . S
H2357 C2373 0.930 . S
H2358 C2374 0.931 . S
C2359 H2347 0.929 . S
C2359 C2353 1.390 . S
C2359 C2356 1.386 . S
C2360 C2355 1.490 . S
C2360 C2362 1.395 . S
C2360 C2363 1.403 . S
H2361 C2367 0.930 . S
C2362 H2348 0.930 . S
C2362 C2360 1.395 . S
C2362 C2365 1.403 1_545 S
C2363 C2360 1.403 . S
C2363 C2364 1.524 . S
C2363 C2367 1.400 1_545 S
C2364 H2349 0.960 . S
C2364 H2350 0.960 . S
C2364 H2351 0.960 . S
C2364 C2363 1.524 . S
C2365 C2362 1.403 1_565 S
C2365 C2366 1.392 . S
C2365 C2369 1.495 . S
C2366 C2365 1.392 . S
C2366 C2367 1.385 . S
C2366 C2368 1.478 . S
C2367 H2361 0.930 . S
C2367 C2363 1.400 1_565 S
C2367 C2366 1.385 . S
C2368 C2366 1.478 . S
C2368 C2370 1.381 . S
C2368 C2374 1.383 . S
C2369 C2365 1.495 . S
C2369 H2375 0.959 . S
C2369 H2376 0.961 . S
C2369 H2377 0.960 . S
C2370 C2368 1.381 . S
C2370 C2371 1.394 . S
C2370 H2378 0.930 . S
C2371 C2370 1.394 . S
C2371 C2372 1.383 . S
C2371 H2379 0.929 . S
C2372 C2371 1.383 . S
C2372 C2373 1.377 . S
C2373 H2357 0.930 . S
C2373 C2372 1.377 . S
C2373 C2374 1.379 . S
C2374 H2358 0.931 . S
C2374 C2368 1.383 . S
C2374 C2373 1.379 . S
H2375 C2369 0.959 . S
H2376 C2369 0.961 . S
H2377 C2369 0.960 . S
H2378 C2370 0.930 . S
H2379 C2371 0.929 . S
H2380 C2388 0.929 . S
H2381 C2390 0.930 . S
H2382 C2392 0.930 . S
H2383 C2395 0.929 . S
H2384 C2398 0.930 . S
H2385 C2400 0.960 1_655 S
H2386 C2400 0.960 . S
H2387 C2400 0.960 . S
C2388 H2380 0.929 . S
C2388 C2389 1.377 . S
C2388 C2390 1.384 . S
C2389 C2388 1.377 . S
C2389 C2395 1.390 . S
C2390 H2381 0.930 . S
C2390 C2388 1.384 . S
C2390 C2391 1.372 . S
C2391 C2390 1.372 . S
C2391 C2392 1.400 . S
C2391 C2396 1.490 . S
C2392 H2382 0.930 . S
C2392 C2391 1.400 . S
C2392 C2395 1.386 . S
H2393 C2409 0.930 . S
H2394 C2410 0.931 . S
C2395 H2383 0.929 . S
C2395 C2389 1.390 . S
C2395 C2392 1.386 . S
C2396 C2391 1.490 . S
C2396 C2398 1.395 . S
C2396 C2399 1.403 . S
H2397 C2403 0.930 . S
C2398 H2384 0.930 . S
C2398 C2396 1.395 . S
C2398 C2401 1.403 1_455 S
C2399 C2396 1.403 . S
C2399 C2400 1.524 . S
C2399 C2403 1.400 1_455 S
C2400 H2385 0.960 1_455 S
C2400 H2386 0.960 . S
C2400 H2387 0.960 . S
C2400 C2399 1.524 . S
C2401 C2398 1.403 1_655 S
C2401 C2402 1.392 . S
C2401 C2405 1.495 . S
C2402 C2401 1.392 . S
C2402 C2403 1.385 . S
C2402 C2404 1.478 . S
C2403 H2397 0.930 . S
C2403 C2399 1.400 1_655 S
C2403 C2402 1.385 . S
C2404 C2402 1.478 . S
C2404 C2406 1.381 . S
C2404 C2410 1.383 . S
C2405 C2401 1.495 . S
C2405 H2411 0.959 1_655 S
C2405 H2412 0.961 . S
C2405 H2413 0.960 . S
C2406 C2404 1.381 . S
C2406 C2407 1.394 . S
C2406 H2414 0.930 . S
C2407 C2406 1.394 . S
C2407 C2408 1.383 . S
C2407 H2415 0.929 . S
C2408 C2407 1.383 . S
C2408 C2409 1.377 . S
C2409 H2393 0.930 . S
C2409 C2408 1.377 . S
C2409 C2410 1.379 . S
C2410 H2394 0.931 . S
C2410 C2404 1.383 . S
C2410 C2409 1.379 . S
H2411 C2405 0.959 1_455 S
H2412 C2405 0.961 . S
H2413 C2405 0.960 . S
H2414 C2406 0.930 . S
H2415 C2407 0.929 . S
H2416 C2424 0.929 . S
H2417 C2426 0.930 . S
H2418 C2428 0.930 . S
H2419 C2431 0.929 . S
H2420 C2434 0.930 . S
H2421 C2436 0.960 . S
H2422 C2436 0.960 . S
H2423 C2436 0.960 . S
C2424 H2416 0.929 . S
C2424 C2425 1.377 . S
C2424 C2426 1.384 . S
C2425 C2424 1.377 . S
C2425 C2431 1.390 . S
C2426 H2417 0.930 . S
C2426 C2424 1.384 . S
C2426 C2427 1.372 . S
C2427 C2426 1.372 . S
C2427 C2428 1.400 . S
C2427 C2432 1.490 . S
C2428 H2418 0.930 . S
C2428 C2427 1.400 . S
C2428 C2431 1.386 . S
H2429 C2445 0.930 . S
H2430 C2446 0.931 . S
C2431 H2419 0.929 . S
C2431 C2425 1.390 . S
C2431 C2428 1.386 . S
C2432 C2427 1.490 . S
C2432 C2434 1.395 . S
C2432 C2435 1.403 . S
H2433 C2439 0.930 . S
C2434 H2420 0.930 . S
C2434 C2432 1.395 . S
C2434 C2437 1.403 1_545 S
C2435 C2432 1.403 . S
C2435 C2436 1.524 . S
C2435 C2439 1.400 1_545 S
C2436 H2421 0.960 . S
C2436 H2422 0.960 . S
C2436 H2423 0.960 . S
C2436 C2435 1.524 . S
C2437 C2434 1.403 1_565 S
C2437 C2438 1.392 . S
C2437 C2441 1.495 . S
C2438 C2437 1.392 . S
C2438 C2439 1.385 . S
C2438 C2440 1.478 . S
C2439 H2433 0.930 . S
C2439 C2435 1.400 1_565 S
C2439 C2438 1.385 . S
C2440 C2438 1.478 . S
C2440 C2442 1.381 . S
C2440 C2446 1.383 . S
C2441 C2437 1.495 . S
C2441 H2447 0.959 . S
C2441 H2448 0.961 . S
C2441 H2449 0.960 . S
C2442 C2440 1.381 . S
C2442 C2443 1.394 . S
C2442 H2450 0.930 . S
C2443 C2442 1.394 . S
C2443 C2444 1.383 . S
C2443 H2451 0.929 . S
C2444 C2443 1.383 . S
C2444 C2445 1.377 . S
C2445 H2429 0.930 . S
C2445 C2444 1.377 . S
C2445 C2446 1.379 . S
C2446 H2430 0.931 . S
C2446 C2440 1.383 . S
C2446 C2445 1.379 . S
H2447 C2441 0.959 . S
H2448 C2441 0.961 . S
H2449 C2441 0.960 . S
H2450 C2442 0.930 . S
H2451 C2443 0.929 . S
H2452 C2460 0.929 . S
H2453 C2462 0.930 . S
H2454 C2464 0.930 . S
H2455 C2467 0.929 . S
H2456 C2470 0.930 . S
H2457 C2472 0.960 . S
H2458 C2472 0.960 . S
H2459 C2472 0.960 . S
C2460 H2452 0.929 . S
C2460 C2461 1.377 . S
C2460 C2462 1.384 . S
C2461 C2460 1.377 . S
C2461 C2467 1.390 . S
C2462 H2453 0.930 . S
C2462 C2460 1.384 . S
C2462 C2463 1.372 . S
C2463 C2462 1.372 . S
C2463 C2464 1.400 . S
C2463 C2468 1.490 . S
C2464 H2454 0.930 . S
C2464 C2463 1.400 . S
C2464 C2467 1.386 . S
H2465 C2481 0.930 . S
H2466 C2482 0.931 . S
C2467 H2455 0.929 . S
C2467 C2461 1.390 . S
C2467 C2464 1.386 . S
C2468 C2463 1.490 . S
C2468 C2470 1.395 . S
C2468 C2471 1.403 . S
H2469 C2475 0.930 . S
C2470 H2456 0.930 . S
C2470 C2468 1.395 . S
C2470 C2473 1.403 1_655 S
C2471 C2468 1.403 . S
C2471 C2472 1.524 . S
C2471 C2475 1.400 1_655 S
C2472 H2457 0.960 . S
C2472 H2458 0.960 . S
C2472 H2459 0.960 . S
C2472 C2471 1.524 . S
C2473 C2470 1.403 1_455 S
C2473 C2474 1.392 . S
C2473 C2477 1.495 . S
C2474 C2473 1.392 . S
C2474 C2475 1.385 . S
C2474 C2476 1.478 . S
C2475 H2469 0.930 . S
C2475 C2471 1.400 1_455 S
C2475 C2474 1.385 . S
C2476 C2474 1.478 . S
C2476 C2478 1.381 . S
C2476 C2482 1.383 . S
C2477 C2473 1.495 . S
C2477 H2483 0.959 . S
C2477 H2484 0.961 . S
C2477 H2485 0.960 . S
C2478 C2476 1.381 . S
C2478 C2479 1.394 . S
C2478 H2486 0.930 . S
C2479 C2478 1.394 . S
C2479 C2480 1.383 . S
C2479 H2487 0.929 . S
C2480 C2479 1.383 . S
C2480 C2481 1.377 . S
C2481 H2465 0.930 . S
C2481 C2480 1.377 . S
C2481 C2482 1.379 . S
C2482 H2466 0.931 . S
C2482 C2476 1.383 . S
C2482 C2481 1.379 . S
H2483 C2477 0.959 . S
H2484 C2477 0.961 . S
H2485 C2477 0.960 . S
H2486 C2478 0.930 . S
H2487 C2479 0.929 . S
H2488 C2496 0.929 . S
H2489 C2498 0.930 . S
H2490 C2500 0.930 . S
H2491 C2503 0.929 . S
H2492 C2506 0.930 . S
H2493 C2508 0.960 . S
H2494 C2508 0.960 . S
H2495 C2508 0.960 . S
C2496 H2488 0.929 . S
C2496 C2497 1.377 . S
C2496 C2498 1.384 . S
C2497 C2496 1.377 . S
C2497 C2503 1.390 . S
C2498 H2489 0.930 . S
C2498 C2496 1.384 . S
C2498 C2499 1.372 . S
C2499 C2498 1.372 . S
C2499 C2500 1.400 . S
C2499 C2504 1.490 . S
C2500 H2490 0.930 . S
C2500 C2499 1.400 . S
C2500 C2503 1.386 . S
H2501 C2517 0.930 . S
H2502 C2518 0.931 . S
C2503 H2491 0.929 . S
C2503 C2497 1.390 . S
C2503 C2500 1.386 . S
C2504 C2499 1.490 . S
C2504 C2506 1.395 . S
C2504 C2507 1.403 . S
H2505 C2511 0.930 . S
C2506 H2492 0.930 . S
C2506 C2504 1.395 . S
C2506 C2509 1.403 1_565 S
C2507 C2504 1.403 . S
C2507 C2508 1.524 . S
C2507 C2511 1.400 1_565 S
C2508 H2493 0.960 . S
C2508 H2494 0.960 . S
C2508 H2495 0.960 . S
C2508 C2507 1.524 . S
C2509 C2506 1.403 1_545 S
C2509 C2510 1.392 . S
C2509 C2513 1.495 . S
C2510 C2509 1.392 . S
C2510 C2511 1.385 . S
C2510 C2512 1.478 . S
C2511 H2505 0.930 . S
C2511 C2507 1.400 1_545 S
C2511 C2510 1.385 . S
C2512 C2510 1.478 . S
C2512 C2514 1.381 . S
C2512 C2518 1.383 . S
C2513 C2509 1.495 . S
C2513 H2519 0.959 . S
C2513 H2520 0.961 . S
C2513 H2521 0.960 . S
C2514 C2512 1.381 . S
C2514 C2515 1.394 . S
C2514 H2522 0.930 . S
C2515 C2514 1.394 . S
C2515 C2516 1.383 . S
C2515 H2523 0.929 . S
C2516 C2515 1.383 . S
C2516 C2517 1.377 . S
C2517 H2501 0.930 . S
C2517 C2516 1.377 . S
C2517 C2518 1.379 . S
C2518 H2502 0.931 . S
C2518 C2512 1.383 . S
C2518 C2517 1.379 . S
H2519 C2513 0.959 . S
H2520 C2513 0.961 . S
H2521 C2513 0.960 . S
H2522 C2514 0.930 . S
H2523 C2515 0.929 . S
H2524 C2532 0.929 . S
H2525 C2534 0.930 . S
H2526 C2536 0.930 . S
H2527 C2539 0.929 . S
H2528 C2542 0.930 . S
H2529 C2544 0.960 1_655 S
H2530 C2544 0.960 . S
H2531 C2544 0.960 . S
C2532 H2524 0.929 . S
C2532 C2533 1.377 . S
C2532 C2534 1.384 . S
C2533 C2532 1.377 . S
C2533 C2539 1.390 . S
C2534 H2525 0.930 . S
C2534 C2532 1.384 . S
C2534 C2535 1.372 . S
C2535 C2534 1.372 . S
C2535 C2536 1.400 . S
C2535 C2540 1.490 . S
C2536 H2526 0.930 . S
C2536 C2535 1.400 . S
C2536 C2539 1.386 . S
H2537 C2553 0.930 . S
H2538 C2554 0.931 . S
C2539 H2527 0.929 . S
C2539 C2533 1.390 . S
C2539 C2536 1.386 . S
C2540 C2535 1.490 . S
C2540 C2542 1.395 . S
C2540 C2543 1.403 . S
H2541 C2547 0.930 . S
C2542 H2528 0.930 . S
C2542 C2540 1.395 . S
C2542 C2545 1.403 1_455 S
C2543 C2540 1.403 . S
C2543 C2544 1.524 . S
C2543 C2547 1.400 1_455 S
C2544 H2529 0.960 1_455 S
C2544 H2530 0.960 . S
C2544 H2531 0.960 . S
C2544 C2543 1.524 . S
C2545 C2542 1.403 1_655 S
C2545 C2546 1.392 . S
C2545 C2549 1.495 . S
C2546 C2545 1.392 . S
C2546 C2547 1.385 . S
C2546 C2548 1.478 . S
C2547 H2541 0.930 . S
C2547 C2543 1.400 1_655 S
C2547 C2546 1.385 . S
C2548 C2546 1.478 . S
C2548 C2550 1.381 . S
C2548 C2554 1.383 . S
C2549 C2545 1.495 . S
C2549 H2555 0.959 1_655 S
C2549 H2556 0.961 . S
C2549 H2557 0.960 . S
C2550 C2548 1.381 . S
C2550 C2551 1.394 . S
C2550 H2558 0.930 . S
C2551 C2550 1.394 . S
C2551 C2552 1.383 . S
C2551 H2559 0.929 . S
C2552 C2551 1.383 . S
C2552 C2553 1.377 . S
C2553 H2537 0.930 . S
C2553 C2552 1.377 . S
C2553 C2554 1.379 . S
C2554 H2538 0.931 . S
C2554 C2548 1.383 . S
C2554 C2553 1.379 . S
H2555 C2549 0.959 1_455 S
H2556 C2549 0.961 . S
H2557 C2549 0.960 . S
H2558 C2550 0.930 . S
H2559 C2551 0.929 . S
C1417 C489 0.845 . S
C1436 C20 0.840 . S
C1453 C577 0.844 . S
C1472 C117 0.841 . S
C1489 C196 0.845 . S
C1508 C665 0.841 . S
C1525 C293 0.843 . S
C1544 C401 0.847 . S
C1561 C1173 0.845 . S
C1580 C753 0.840 . S
C1597 C1261 0.845 . S
C1616 C841 0.840 . S
C1633 C929 0.844 . S
C1652 C1349 0.842 . S
C1669 C1017 0.843 . S
C1688 C1085 0.846 . S
C1705 C909 1.506 . S
C1724 C57 1.497 . S
C1741 C997 1.505 . S
C1760 C137 1.497 . S
C1777 C733 1.504 . S
C1796 C233 1.505 . S
C1813 C313 1.504 . S
C1832 C821 1.506 . S
C1849 C1281 1.505 . S
C1868 C381 1.500 . S
C1885 C1369 1.506 . S
C1904 C469 1.499 . S
C1921 C557 1.504 . S
C1940 C1105 1.506 . S
C1957 C1193 1.505 . S
C1976 C645 1.499 . S
C1993 C409 1.359 . S
C2012 C29 1.370 . S
C2029 C108 1.359 . S
C2048 C497 1.370 . S
C2065 C205 1.360 . S
C2084 C585 1.351 . S
C2101 C673 1.360 . S
C2120 C284 1.369 . S
C2137 C724 1.405 . S
C2156 C1113 1.405 . S
C2173 C1201 1.401 . S
C2192 C812 1.397 . S
C2209 C900 1.405 . S
C2228 C1289 1.395 . S
C2245 C1377 1.401 . S
C2264 C988 1.391 . S
C2281 C1025 1.363 . S
C2300 C1164 1.346 . S
C2317 C761 1.361 . S
C2336 C1252 1.348 . S
C2353 C1340 1.361 . S
C2372 C849 1.347 . S
C2389 C937 1.358 . S
C2408 C1076 1.365 . S
C2425 C460 1.401 . S
C2444 C321 1.405 . S
C2461 C548 1.402 . S
C2480 C49 1.410 . S
C2497 C636 1.401 . S
C2516 C145 1.394 . S
C2533 C372 1.405 . S
C2552 C225 1.398 . S
