# Generated by pormake.
# Topology mon, (4)-cn, num edge types: 1
# Building blocks:
#     Node 0, Type 0, BuildingBlock: QUQFOY_clean_sbu_1, # of connection points: 4
#     Node 1, Type 0, BuildingBlock: QUQFOY_clean_sbu_1, # of connection points: 4
#     Node 2, Type 0, BuildingBlock: QUQFOY_clean_sbu_1, # of connection points: 4
#     Node 3, Type 0, BuildingBlock: QUQFOY_clean_sbu_1, # of connection points: 4
#     Node 4, Type 0, BuildingBlock: QUQFOY_clean_sbu_1, # of connection points: 4
#     Node 5, Type 0, BuildingBlock: QUQFOY_clean_sbu_1, # of connection points: 4
#     Node 6, Type 0, BuildingBlock: QUQFOY_clean_sbu_1, # of connection points: 4
#     Node 7, Type 0, BuildingBlock: QUQFOY_clean_sbu_1, # of connection points: 4
#     Node 8, Type 0, BuildingBlock: QUQFOY_clean_sbu_1, # of connection points: 4
#     Node 9, Type 0, BuildingBlock: QUQFOY_clean_sbu_1, # of connection points: 4
#     Node 10, Type 0, BuildingBlock: QUQFOY_clean_sbu_1, # of connection points: 4
#     Node 11, Type 0, BuildingBlock: QUQFOY_clean_sbu_1, # of connection points: 4
#     Node 12, Type 0, BuildingBlock: QUQFOY_clean_sbu_1, # of connection points: 4
#     Node 13, Type 0, BuildingBlock: QUQFOY_clean_sbu_1, # of connection points: 4
#     Node 14, Type 0, BuildingBlock: QUQFOY_clean_sbu_1, # of connection points: 4
#     Node 15, Type 0, BuildingBlock: QUQFOY_clean_sbu_1, # of connection points: 4
#     Edge 16, Type (0, 0), BuildingBlock: TEMPAE_clean_linker_10, # of connection points: 2
#     Edge 17, Type (0, 0), BuildingBlock: TEMPAE_clean_linker_10, # of connection points: 2
#     Edge 18, Type (0, 0), BuildingBlock: TEMPAE_clean_linker_10, # of connection points: 2
#     Edge 19, Type (0, 0), BuildingBlock: TEMPAE_clean_linker_10, # of connection points: 2
#     Edge 20, Type (0, 0), BuildingBlock: TEMPAE_clean_linker_10, # of connection points: 2
#     Edge 21, Type (0, 0), BuildingBlock: TEMPAE_clean_linker_10, # of connection points: 2
#     Edge 22, Type (0, 0), BuildingBlock: TEMPAE_clean_linker_10, # of connection points: 2
#     Edge 23, Type (0, 0), BuildingBlock: TEMPAE_clean_linker_10, # of connection points: 2
#     Edge 24, Type (0, 0), BuildingBlock: TEMPAE_clean_linker_10, # of connection points: 2
#     Edge 25, Type (0, 0), BuildingBlock: TEMPAE_clean_linker_10, # of connection points: 2
#     Edge 26, Type (0, 0), BuildingBlock: TEMPAE_clean_linker_10, # of connection points: 2
#     Edge 27, Type (0, 0), BuildingBlock: TEMPAE_clean_linker_10, # of connection points: 2
#     Edge 28, Type (0, 0), BuildingBlock: TEMPAE_clean_linker_10, # of connection points: 2
#     Edge 29, Type (0, 0), BuildingBlock: TEMPAE_clean_linker_10, # of connection points: 2
#     Edge 30, Type (0, 0), BuildingBlock: TEMPAE_clean_linker_10, # of connection points: 2
#     Edge 31, Type (0, 0), BuildingBlock: TEMPAE_clean_linker_10, # of connection points: 2
#     Edge 32, Type (0, 0), BuildingBlock: TEMPAE_clean_linker_10, # of connection points: 2
#     Edge 33, Type (0, 0), BuildingBlock: TEMPAE_clean_linker_10, # of connection points: 2
#     Edge 34, Type (0, 0), BuildingBlock: TEMPAE_clean_linker_10, # of connection points: 2
#     Edge 35, Type (0, 0), BuildingBlock: TEMPAE_clean_linker_10, # of connection points: 2
#     Edge 36, Type (0, 0), BuildingBlock: TEMPAE_clean_linker_10, # of connection points: 2
#     Edge 37, Type (0, 0), BuildingBlock: TEMPAE_clean_linker_10, # of connection points: 2
#     Edge 38, Type (0, 0), BuildingBlock: TEMPAE_clean_linker_10, # of connection points: 2
#     Edge 39, Type (0, 0), BuildingBlock: TEMPAE_clean_linker_10, # of connection points: 2
#     Edge 40, Type (0, 0), BuildingBlock: TEMPAE_clean_linker_10, # of connection points: 2
#     Edge 41, Type (0, 0), BuildingBlock: TEMPAE_clean_linker_10, # of connection points: 2
#     Edge 42, Type (0, 0), BuildingBlock: TEMPAE_clean_linker_10, # of connection points: 2
#     Edge 43, Type (0, 0), BuildingBlock: TEMPAE_clean_linker_10, # of connection points: 2
#     Edge 44, Type (0, 0), BuildingBlock: TEMPAE_clean_linker_10, # of connection points: 2
#     Edge 45, Type (0, 0), BuildingBlock: TEMPAE_clean_linker_10, # of connection points: 2
#     Edge 46, Type (0, 0), BuildingBlock: TEMPAE_clean_linker_10, # of connection points: 2
#     Edge 47, Type (0, 0), BuildingBlock: TEMPAE_clean_linker_10, # of connection points: 2
# Relax obj value: 0.203
# Max RMSD: 0.220
# Mean RMSD: 0.220
data_MOF--net-mon--node1-QUQFOY_clean_sbu_1--edge1-TEMPAE_clean_linker_10
_symmetry_space_group_name_H-M    P1
_symmetry_Int_Tables_number       1
_symmetry_cell_setting            triclinic
loop_
_symmetry_equiv_pos_as_xyz
'x, y, z'
_cell_length_a     36.859009
_cell_length_b     36.883052
_cell_length_c     85.195761
_cell_angle_alpha  89.980335
_cell_angle_beta   90.016369
_cell_angle_gamma 89.961985
loop_
_atom_site_label
_atom_site_type_symbol
_atom_site_fract_x
_atom_site_fract_y
_atom_site_fract_z
_atom_type_partial_charge
O0 O 0.01054 0.07991 0.55167 0.0
Cd1 Cd 0.0025 0.09921 0.57399 0.0
Cd2 Cd 0.04743 0.0403 0.58274 0.0
O3 O 0.04502 0.03384 0.55871 0.0
O4 O 0.98696 0.15038 0.57158 0.0
O5 O 0.03717 0.13407 0.58407 0.0
C6 C 0.01575 0.15951 0.57923 0.0
C7 C 0.10052 0.01475 0.59333 0.0
C8 C 0.02892 0.05199 0.54812 0.0
C9 C 0.97012 0.04554 0.59572 0.0
O10 O 0.0012 0.03055 0.59585 0.0
O11 O 0.96412 0.07327 0.58729 0.0
O12 O 0.07487 0.99534 0.58757 0.0
O13 O 0.0961 0.04945 0.59338 0.0
O14 O 0.26726 0.7228 0.80464 0.0
Cd15 Cd 0.25416 0.71365 0.82792 0.0
Cd16 Cd 0.31565 0.75684 0.83264 0.0
O17 O 0.31238 0.76076 0.80878 0.0
O18 O 0.20307 0.69685 0.82733 0.0
O19 O 0.22033 0.74722 0.83937 0.0
C20 C 0.19461 0.72535 0.83529 0.0
C21 C 0.33953 0.8086 0.8448 0.0
C22 C 0.29176 0.7438 0.79941 0.0
C23 C 0.31616 0.67869 0.84415 0.0
O24 O 0.33307 0.70817 0.84177 0.0
O25 O 0.28314 0.67521 0.84019 0.0
O26 O 0.35911 0.78731 0.8364 0.0
O27 O 0.30569 0.80051 0.8465 0.0
O28 O 0.62312 0.93719 0.05682 0.0
Cd29 Cd 0.63702 0.91848 0.0787 0.0
Cd30 Cd 0.59662 0.97659 0.08944 0.0
O31 O 0.59604 0.98632 0.06564 0.0
O32 O 0.64949 0.86656 0.07631 0.0
O33 O 0.60404 0.88618 0.09113 0.0
C34 C 0.6229 0.85943 0.08566 0.0
C35 C 0.54451 0.00036 0.10142 0.0
C36 C 0.60708 0.96707 0.05426 0.0
C37 C 0.67539 0.96963 0.09955 0.0
O38 O 0.6444 0.98396 0.10167 0.0
O39 O 0.67935 0.94369 0.08992 0.0
O40 O 0.57008 0.02063 0.09616 0.0
O41 O 0.54874 0.96572 0.10035 0.0
O42 O 0.32311 0.25589 0.31219 0.0
Cd43 Cd 0.32964 0.2555 0.3362 0.0
Cd44 Cd 0.27578 0.20325 0.33403 0.0
O45 O 0.28903 0.20699 0.3108 0.0
O46 O 0.37758 0.2789 0.33927 0.0
O47 O 0.36645 0.22171 0.34557 0.0
C48 C 0.38938 0.24806 0.34427 0.0
C49 C 0.25429 0.14619 0.34181 0.0
C50 C 0.30658 0.23218 0.30411 0.0
C51 C 0.25858 0.27576 0.34939 0.0
O52 O 0.24738 0.24627 0.3434 0.0
O53 O 0.29209 0.28376 0.3492 0.0
O54 O 0.23667 0.16654 0.33224 0.0
O55 O 0.28484 0.15806 0.34712 0.0
O56 O 0.99103 0.92605 0.4355 0.0
Cd57 Cd 0.97654 0.90985 0.41332 0.0
Cd58 Cd 0.01963 0.96578 0.40299 0.0
O59 O 0.02306 0.97239 0.42698 0.0
O60 O 0.96572 0.85733 0.41381 0.0
O61 O 0.01036 0.88135 0.3997 0.0
C62 C 0.99237 0.85304 0.40414 0.0
C63 C 0.07135 0.98903 0.39049 0.0
C64 C 0.01033 0.95381 0.43824 0.0
C65 C 0.9396 0.96383 0.39362 0.0
O66 O 0.97118 0.97697 0.39169 0.0
O67 O 0.93466 0.93703 0.40271 0.0
O68 O 0.04733 0.00954 0.39684 0.0
O69 O 0.06581 0.9545 0.39083 0.0
O70 O 0.34897 0.74591 0.67534 0.0
Cd71 Cd 0.35933 0.74624 0.65152 0.0
Cd72 Cd 0.30226 0.79562 0.65204 0.0
O73 O 0.31273 0.79338 0.67561 0.0
O74 O 0.40872 0.72515 0.64982 0.0
O75 O 0.39562 0.78151 0.64283 0.0
C76 C 0.41956 0.75624 0.64474 0.0
C77 C 0.27862 0.85112 0.64324 0.0
C78 C 0.33039 0.76909 0.68287 0.0
C79 C 0.29176 0.72217 0.63634 0.0
O80 O 0.2779 0.75076 0.64212 0.0
O81 O 0.32559 0.71615 0.63741 0.0
O82 O 0.26081 0.83003 0.65243 0.0
O83 O 0.3106 0.84094 0.63893 0.0
O84 O 0.59915 0.05415 0.93386 0.0
Cd85 Cd 0.60061 0.06284 0.90992 0.0
Cd86 Cd 0.55089 0.00671 0.91046 0.0
O87 O 0.55089 0.01903 0.93389 0.0
O88 O 0.62209 0.11189 0.90776 0.0
O89 O 0.56625 0.0985 0.90009 0.0
C90 C 0.59153 0.1224 0.90195 0.0
C91 C 0.4961 0.98319 0.90087 0.0
C92 C 0.57493 0.03669 0.94129 0.0
C93 C 0.62534 0.99414 0.89598 0.0
O94 O 0.59626 0.98094 0.90159 0.0
O95 O 0.6315 0.02796 0.89669 0.0
O96 O 0.516 0.96575 0.91068 0.0
O97 O 0.507 0.01484 0.89646 0.0
O98 O 0.28965 0.26631 0.17851 0.0
Cd99 Cd 0.28456 0.26822 0.15443 0.0
Cd100 Cd 0.33719 0.21503 0.15597 0.0
O101 O 0.32181 0.21603 0.179 0.0
O102 O 0.23658 0.29116 0.15096 0.0
O103 O 0.24912 0.2345 0.14419 0.0
C104 C 0.22567 0.26044 0.14548 0.0
C105 C 0.35864 0.15847 0.14754 0.0
C106 C 0.30469 0.24084 0.18614 0.0
C107 C 0.35635 0.28863 0.14221 0.0
O108 O 0.36693 0.25857 0.14789 0.0
O109 O 0.32292 0.29701 0.14215 0.0
O110 O 0.37564 0.17761 0.15776 0.0
O111 O 0.32884 0.17137 0.14188 0.0
O112 O 0.89102 0.18262 0.18811 0.0
Cd113 Cd 0.90909 0.1727 0.16574 0.0
Cd114 Cd 0.8529 0.21709 0.15632 0.0
O115 O 0.84523 0.21651 0.1803 0.0
O116 O 0.96163 0.16183 0.16676 0.0
O117 O 0.93871 0.20898 0.15389 0.0
C118 C 0.9667 0.19029 0.15821 0.0
C119 C 0.82971 0.27033 0.14497 0.0
C120 C 0.86309 0.20139 0.19125 0.0
C121 C 0.85601 0.13879 0.14459 0.0
O122 O 0.84226 0.17036 0.14371 0.0
O123 O 0.88302 0.13272 0.15345 0.0
O124 O 0.80914 0.24555 0.15069 0.0
O125 O 0.86427 0.26484 0.14536 0.0
O126 O 0.75673 0.82404 0.68517 0.0
Cd127 Cd 0.74006 0.8371 0.66289 0.0
Cd128 Cd 0.79782 0.79316 0.65343 0.0
O129 O 0.80362 0.79158 0.67747 0.0
O130 O 0.68811 0.85053 0.66433 0.0
O131 O 0.70819 0.80347 0.65061 0.0
C132 C 0.68127 0.82299 0.65546 0.0
C133 C 0.82194 0.74103 0.64158 0.0
C134 C 0.78456 0.80518 0.68839 0.0
C135 C 0.79511 0.87227 0.64285 0.0
O136 O 0.80894 0.84082 0.64164 0.0
O137 O 0.7676 0.8777 0.6515 0.0
O138 O 0.84203 0.76524 0.64802 0.0
O139 O 0.78736 0.7465 0.64152 0.0
O140 O 0.72913 0.17902 0.30292 0.0
Cd141 Cd 0.70974 0.16842 0.32505 0.0
Cd142 Cd 0.76554 0.21307 0.33531 0.0
O143 O 0.77485 0.21196 0.31146 0.0
O144 O 0.65748 0.15662 0.32329 0.0
O145 O 0.67851 0.20398 0.33656 0.0
C146 C 0.65121 0.18483 0.33184 0.0
C147 C 0.78927 0.26629 0.34642 0.0
C148 C 0.75752 0.19744 0.30023 0.0
C149 C 0.76141 0.13492 0.34711 0.0
O150 O 0.77465 0.16662 0.34835 0.0
O151 O 0.73557 0.12864 0.33765 0.0
O152 O 0.80958 0.2406 0.34131 0.0
O153 O 0.75463 0.26167 0.34564 0.0
O154 O 0.86163 0.79323 0.81013 0.0
Cd155 Cd 0.87061 0.79357 0.83406 0.0
Cd156 Cd 0.81398 0.74376 0.83311 0.0
O157 O 0.82585 0.74547 0.80965 0.0
O158 O 0.91945 0.81565 0.83616 0.0
O159 O 0.90711 0.75933 0.84342 0.0
C160 C 0.9306 0.78501 0.84162 0.0
C161 C 0.79016 0.68843 0.84192 0.0
C162 C 0.84375 0.7697 0.80248 0.0
C163 C 0.80194 0.81731 0.84852 0.0
O164 O 0.78862 0.78853 0.8427 0.0
O165 O 0.83575 0.82359 0.84769 0.0
O166 O 0.77273 0.70923 0.83246 0.0
O167 O 0.82195 0.69875 0.84642 0.0
O168 O 0.56587 0.5276 0.06667 0.0
Cd169 Cd 0.56704 0.53502 0.09065 0.0
Cd170 Cd 0.61764 0.47909 0.08807 0.0
O171 O 0.61447 0.49312 0.06487 0.0
O172 O 0.54198 0.58229 0.0933 0.0
O173 O 0.59946 0.57346 0.09975 0.0
C174 C 0.57225 0.59534 0.09832 0.0
C175 C 0.67381 0.45561 0.09613 0.0
C176 C 0.58914 0.51095 0.05838 0.0
C177 C 0.54509 0.46457 0.10388 0.0
O178 O 0.57351 0.45214 0.09736 0.0
O179 O 0.53876 0.4984 0.10405 0.0
O180 O 0.65319 0.4388 0.0864 0.0
O181 O 0.66281 0.48655 0.10136 0.0
O182 O 0.0747 0.49351 0.55003 0.0
Cd183 Cd 0.08169 0.48452 0.57376 0.0
Cd184 Cd 0.03445 0.54447 0.57543 0.0
O185 O 0.03209 0.53522 0.55183 0.0
O186 O 0.10356 0.43536 0.57451 0.0
O187 O 0.0498 0.44817 0.58466 0.0
C188 C 0.07452 0.42442 0.58147 0.0
C189 C 0.98083 0.56812 0.58607 0.0
C190 C 0.05197 0.51469 0.54358 0.0
C191 C 0.11127 0.55185 0.58801 0.0
O192 O 0.08157 0.56682 0.58408 0.0
O193 O 0.11628 0.51812 0.58594 0.0
O194 O 0.00094 0.58646 0.57666 0.0
O195 O 0.99116 0.53573 0.58967 0.0
O196 O 0.52981 0.45784 0.93694 0.0
Cd197 Cd 0.51917 0.44539 0.91371 0.0
Cd198 Cd 0.56277 0.50669 0.90879 0.0
O199 O 0.56807 0.50258 0.93257 0.0
O200 O 0.50183 0.39453 0.91432 0.0
O201 O 0.55193 0.41137 0.90194 0.0
C202 C 0.53 0.38584 0.90618 0.0
C203 C 0.61415 0.53072 0.89638 0.0
C204 C 0.55149 0.4819 0.94203 0.0
C205 C 0.484 0.50807 0.89806 0.0
O206 O 0.51374 0.52469 0.90026 0.0
O207 O 0.48044 0.475 0.90187 0.0
O208 O 0.59325 0.5501 0.90506 0.0
O209 O 0.60579 0.49702 0.89451 0.0
O210 O 0.05455 0.53196 0.41744 0.0
Cd211 Cd 0.05422 0.53524 0.3933 0.0
Cd212 Cd 0.00207 0.48209 0.39728 0.0
O213 O 0.00345 0.50163 0.41973 0.0
O214 O 0.07973 0.58166 0.3893 0.0
O215 O 0.02207 0.57254 0.38321 0.0
C216 C 0.0494 0.5944 0.38416 0.0
C217 C 0.94595 0.45823 0.38949 0.0
C218 C 0.02947 0.51892 0.42594 0.0
C219 C 0.07504 0.46223 0.38305 0.0
O220 O 0.04627 0.45202 0.38998 0.0
O221 O 0.08189 0.49572 0.38128 0.0
O222 O 0.96534 0.44335 0.40025 0.0
O223 O 0.95824 0.48735 0.383 0.0
C224 C 0.04877 0.20885 0.59355 0.0
C225 C 0.0242 0.19818 0.58187 0.0
C226 C 0.05737 0.24563 0.59575 0.0
C227 C 0.04171 0.27206 0.58576 0.0
C228 C 0.01661 0.26137 0.57407 0.0
C229 C 0.00787 0.22463 0.57239 0.0
C230 C 0.08357 0.25616 0.60858 0.0
C231 C -0.00015 0.2886 0.56296 0.0
C232 C 0.04012 0.37326 0.5939 0.0
C233 C 0.06876 0.38532 0.58442 0.0
C234 C 0.03234 0.33609 0.59528 0.0
C235 C 0.05316 0.31064 0.58668 0.0
C236 C 0.08296 0.32264 0.57759 0.0
C237 C 0.09061 0.35978 0.57671 0.0
C238 C 0.00093 0.3242 0.6054 0.0
C239 C 0.10546 0.29648 0.56802 0.0
H240 H 0.06118 0.18848 0.60099 0.0
H241 H 0.98896 0.2165 0.5633 0.0
H242 H 0.10886 0.267 0.60332 0.0
H243 H 0.07174 0.27799 0.61594 0.0
H244 H 0.09072 0.23285 0.61624 0.0
H245 H 0.98033 0.27589 0.55469 0.0
H246 H 0.98547 0.30999 0.56967 0.0
H247 H 0.02147 0.3021 0.55604 0.0
H248 H 0.02334 0.39288 0.59998 0.0
H249 H 0.11277 0.36889 0.56934 0.0
H250 H 0.00903 0.30108 0.61297 0.0
H251 H 0.97833 0.31479 0.59783 0.0
H252 H 0.99075 0.34652 0.61297 0.0
H253 H 0.11552 0.27403 0.57551 0.0
H254 H 0.1291 0.30988 0.56238 0.0
H255 H 0.08836 0.28426 0.5587 0.0
C256 C 0.98187 0.74888 0.85304 0.0
C257 C 0.96972 0.7788 0.84435 0.0
C258 C 0.01906 0.74079 0.85409 0.0
C259 C 0.0444 0.76254 0.84587 0.0
C260 C 0.03232 0.79361 0.83763 0.0
C261 C 0.99518 0.80159 0.83714 0.0
C262 C 0.03106 0.70809 0.86339 0.0
C263 C 0.05831 0.81709 0.82843 0.0
C264 C 0.14665 0.7564 0.85126 0.0
C265 C 0.15623 0.73328 0.83888 0.0
C266 C 0.11008 0.76485 0.85423 0.0
C267 C 0.08278 0.7507 0.84426 0.0
C268 C 0.09239 0.72699 0.83187 0.0
C269 C 0.12894 0.71821 0.82948 0.0
C270 C 0.10072 0.78936 0.86782 0.0
C271 C 0.06423 0.71198 0.82074 0.0
H272 H 0.96229 0.7314 0.85877 0.0
H273 H 0.98597 0.82473 0.83037 0.0
H274 H 0.0395 0.6862 0.85525 0.0
H275 H 0.05485 0.71487 0.87082 0.0
H276 H 0.00904 0.6975 0.87103 0.0
H277 H 0.04492 0.8416 0.82352 0.0
H278 H 0.08122 0.82585 0.83596 0.0
H279 H 0.06993 0.80118 0.81858 0.0
H280 H 0.16772 0.76782 0.85863 0.0
H281 H 0.13624 0.70046 0.81984 0.0
H282 H 0.07894 0.77701 0.87505 0.0
H283 H 0.09024 0.81559 0.86334 0.0
H284 H 0.12455 0.79484 0.87544 0.0
H285 H 0.04319 0.69691 0.82736 0.0
H286 H 0.07619 0.6935 0.81184 0.0
H287 H 0.05044 0.73458 0.81454 0.0
C288 C 0.60793 0.64921 0.10743 0.0
C289 C 0.57636 0.63485 0.10069 0.0
C290 C 0.61424 0.68677 0.10747 0.0
C291 C 0.58876 0.71027 0.10028 0.0
C292 C 0.55591 0.69605 0.09429 0.0
C293 C 0.54996 0.65855 0.09472 0.0
C294 C 0.64914 0.70106 0.11436 0.0
C295 C 0.52825 0.72006 0.08632 0.0
C296 C 0.5952 0.81298 0.10347 0.0
C297 C 0.6143 0.8215 0.08973 0.0
C298 C 0.58753 0.77674 0.10738 0.0
C299 C 0.59842 0.74867 0.09706 0.0
C300 C 0.61755 0.75727 0.08314 0.0
C301 C 0.62561 0.79352 0.07975 0.0
C302 C 0.56784 0.76847 0.12249 0.0
C303 C 0.62894 0.72822 0.07164 0.0
H304 H 0.62826 0.63105 0.11221 0.0
H305 H 0.52543 0.64769 0.08952 0.0
H306 H 0.6677 0.70923 0.10474 0.0
H307 H 0.64386 0.72546 0.12163 0.0
H308 H 0.66312 0.68042 0.12169 0.0
H309 H 0.50258 0.70544 0.08376 0.0
H310 H 0.52194 0.74401 0.09369 0.0
H311 H 0.5396 0.73024 0.07508 0.0
H312 H 0.58671 0.83459 0.11127 0.0
H313 H 0.64021 0.80002 0.06907 0.0
H314 H 0.58382 0.74895 0.1296 0.0
H315 H 0.54137 0.75551 0.1199 0.0
H316 H 0.5629 0.79322 0.12961 0.0
H317 H 0.6471 0.70841 0.0775 0.0
H318 H 0.64332 0.73954 0.06128 0.0
H319 H 0.60475 0.71314 0.06747 0.0
C320 C 0.60595 0.21571 0.34923 0.0
C321 C 0.61359 0.19498 0.33584 0.0
C322 C 0.57004 0.22505 0.35307 0.0
C323 C 0.54143 0.21425 0.34301 0.0
C324 C 0.54914 0.19342 0.32945 0.0
C325 C 0.58506 0.18364 0.32616 0.0
C326 C 0.56271 0.24647 0.36782 0.0
C327 C 0.51952 0.18207 0.31821 0.0
C328 C 0.44169 0.21053 0.35376 0.0
C329 C 0.42871 0.2422 0.3466 0.0
C330 C 0.47893 0.20233 0.35376 0.0
C331 C 0.50347 0.22594 0.34607 0.0
C332 C 0.4907 0.25887 0.33958 0.0
C333 C 0.45353 0.26679 0.34009 0.0
C334 C 0.4917 0.16747 0.36122 0.0
C335 C 0.51581 0.2845 0.33102 0.0
H336 H 0.62798 0.2242 0.35682 0.0
H337 H 0.59091 0.16777 0.31576 0.0
H338 H 0.5511 0.2733 0.36477 0.0
H339 H 0.54237 0.23218 0.37517 0.0
H340 H 0.58767 0.25077 0.3749 0.0
H341 H 0.53016 0.16619 0.30814 0.0
H342 H 0.49903 0.16541 0.32443 0.0
H343 H 0.50539 0.20642 0.31359 0.0
H344 H 0.42266 0.19159 0.35894 0.0
H345 H 0.44372 0.29133 0.33451 0.0
H346 H 0.51645 0.17224 0.36835 0.0
H347 H 0.49885 0.14767 0.35192 0.0
H348 H 0.47053 0.15519 0.36883 0.0
H349 H 0.54005 0.29058 0.33826 0.0
H350 H 0.50227 0.31045 0.32791 0.0
H351 H 0.52547 0.27146 0.32005 0.0
C352 C 0.99293 0.7862 0.40767 0.0
C353 C 0.00204 0.81644 0.39855 0.0
C354 C 0.00209 0.75112 0.40282 0.0
C355 C 0.01997 0.74603 0.38827 0.0
C356 C 0.02853 0.77641 0.37881 0.0
C357 C 0.01991 0.81142 0.38418 0.0
C358 C 0.9932 0.71953 0.41345 0.0
C359 C 0.04669 0.7719 0.36305 0.0
C360 C 0.0716 0.65769 0.38733 0.0
C361 C 0.04501 0.63385 0.38165 0.0
C362 C 0.0648 0.69496 0.3885 0.0
C363 C 0.03087 0.70881 0.38354 0.0
C364 C 0.00539 0.68541 0.37632 0.0
C365 C 0.01259 0.64804 0.37562 0.0
C366 C 0.09257 0.71882 0.39646 0.0
C367 C 0.9694 0.69938 0.37041 0.0
H368 H 0.97927 0.79003 0.41881 0.0
H369 H 0.02664 0.83481 0.37705 0.0
H370 H 0.97505 0.70023 0.40729 0.0
H371 H 0.0184 0.70465 0.41652 0.0
H372 H 0.97973 0.72823 0.42449 0.0
H373 H 0.04968 0.7981 0.35675 0.0
H374 H 0.07397 0.75973 0.3646 0.0
H375 H 0.03072 0.75305 0.35562 0.0
H376 H 0.09684 0.64699 0.39195 0.0
H377 H 0.9921 0.62981 0.37104 0.0
H378 H 0.08262 0.72632 0.40832 0.0
H379 H 0.09662 0.74431 0.38979 0.0
H380 H 0.1192 0.70502 0.39776 0.0
H381 H 0.95119 0.70464 0.38053 0.0
H382 H 0.95589 0.67958 0.36252 0.0
H383 H 0.97295 0.72536 0.36402 0.0
C384 C 0.47076 0.79471 0.63486 0.0
C385 C 0.45872 0.76344 0.64263 0.0
C386 C 0.50779 0.80377 0.63458 0.0
C387 C 0.53306 0.7815 0.64259 0.0
C388 C 0.52119 0.74907 0.64983 0.0
C389 C 0.48423 0.74025 0.6496 0.0
C390 C 0.5196 0.83802 0.62635 0.0
C391 C 0.54712 0.7249 0.65874 0.0
C392 C 0.63531 0.79182 0.63849 0.0
C393 C 0.64341 0.8136 0.65151 0.0
C394 C 0.59927 0.78228 0.635 0.0
C395 C 0.57098 0.794 0.64504 0.0
C396 C 0.5791 0.8162 0.65813 0.0
C397 C 0.61514 0.82608 0.66108 0.0
C398 C 0.5915 0.75935 0.62072 0.0
C399 C 0.54984 0.82862 0.66934 0.0
H400 H 0.45119 0.81255 0.62932 0.0
H401 H 0.47513 0.71604 0.65564 0.0
H402 H 0.52702 0.85881 0.63519 0.0
H403 H 0.54399 0.83284 0.61905 0.0
H404 H 0.49783 0.84928 0.61875 0.0
H405 H 0.53409 0.69931 0.66268 0.0
H406 H 0.57093 0.71801 0.65137 0.0
H407 H 0.55737 0.73951 0.66923 0.0
H408 H 0.65711 0.78239 0.63099 0.0
H409 H 0.62129 0.84276 0.67121 0.0
H410 H 0.57013 0.77228 0.61344 0.0
H411 H 0.58109 0.73246 0.62441 0.0
H412 H 0.61604 0.75517 0.61337 0.0
H413 H 0.52874 0.8441 0.66291 0.0
H414 H 0.56069 0.84599 0.6789 0.0
H415 H 0.53639 0.80472 0.6747 0.0
C416 C 0.5612 0.33753 0.89046 0.0
C417 C 0.53769 0.34738 0.90267 0.0
C418 C 0.56985 0.30093 0.88774 0.0
C419 C 0.55548 0.27389 0.89777 0.0
C420 C 0.53122 0.28375 0.90992 0.0
C421 C 0.52227 0.32031 0.91208 0.0
C422 C 0.59495 0.29129 0.87438 0.0
C423 C 0.51592 0.25589 0.92111 0.0
C424 C 0.55524 0.17266 0.88983 0.0
C425 C 0.58493 0.16128 0.89886 0.0
C426 C 0.54675 0.20968 0.88839 0.0
C427 C 0.56784 0.23562 0.89657 0.0
C428 C 0.5987 0.22431 0.90517 0.0
C429 C 0.60711 0.18732 0.90604 0.0
C430 C 0.51431 0.22085 0.87872 0.0
C431 C 0.6215 0.25098 0.91432 0.0
H432 H 0.5729 0.35841 0.88307 0.0
H433 H 0.5042 0.32781 0.92158 0.0
H434 H 0.62127 0.28165 0.87912 0.0
H435 H 0.58328 0.26885 0.86732 0.0
H436 H 0.60017 0.31478 0.86653 0.0
H437 H 0.4968 0.26797 0.92973 0.0
H438 H 0.50146 0.23439 0.91451 0.0
H439 H 0.53836 0.24265 0.92765 0.0
H440 H 0.53824 0.15263 0.88412 0.0
H441 H 0.63007 0.17871 0.91307 0.0
H442 H 0.52112 0.24441 0.87117 0.0
H443 H 0.49192 0.2293 0.88661 0.0
H444 H 0.50437 0.1984 0.87117 0.0
H445 H 0.63039 0.27357 0.90665 0.0
H446 H 0.64591 0.2381 0.91957 0.0
H447 H 0.605 0.26291 0.92392 0.0
C448 C 0.17464 0.22221 0.13532 0.0
C449 C 0.18661 0.25403 0.14267 0.0
C450 C 0.13765 0.21308 0.13514 0.0
C451 C 0.11235 0.23587 0.14285 0.0
C452 C 0.12405 0.26911 0.14939 0.0
C453 C 0.16099 0.27798 0.14906 0.0
C454 C 0.126 0.17796 0.12759 0.0
C455 C 0.09811 0.29393 0.15795 0.0
C456 C 0.0102 0.22223 0.14036 0.0
C457 C 0.0038 0.20133 0.15382 0.0
C458 C 0.04564 0.23262 0.13623 0.0
C459 C 0.07497 0.22278 0.14609 0.0
C460 C 0.06851 0.20167 0.15969 0.0
C461 C 0.03307 0.19081 0.16326 0.0
C462 C 0.05167 0.25422 0.12141 0.0
C463 C 0.09891 0.19128 0.17072 0.0
H464 H 0.19429 0.20379 0.13021 0.0
H465 H 0.17001 0.30266 0.15475 0.0
H466 H 0.1201 0.15763 0.13684 0.0
H467 H 0.1008 0.1819 0.12067 0.0
H468 H 0.14737 0.16677 0.11977 0.0
H469 H 0.11071 0.3204 0.16093 0.0
H470 H 0.07352 0.29901 0.15078 0.0
H471 H 0.08917 0.28071 0.16899 0.0
H472 H 0.98759 0.23007 0.13296 0.0
H473 H 0.02816 0.17479 0.17372 0.0
H474 H 0.07255 0.24085 0.11402 0.0
H475 H 0.06202 0.2816 0.12438 0.0
H476 H 0.02641 0.25729 0.11442 0.0
H477 H 0.11974 0.17533 0.16435 0.0
H478 H 0.08921 0.175 0.18086 0.0
H479 H 0.11235 0.21606 0.17527 0.0
C480 C 0.99657 0.95142 0.467 0.0
C481 C 0.01669 0.96603 0.45455 0.0
C482 C 0.00026 0.96507 0.48229 0.0
C483 C 0.0249 0.99375 0.48518 0.0
C484 C 0.04616 0.00777 0.47278 0.0
C485 C 0.04171 0.99384 0.4576 0.0
C486 C 0.97706 0.94952 0.49525 0.0
C487 C 0.07302 0.03806 0.47547 0.0
C488 C 0.00636 0.05374 0.52043 0.0
C489 C 0.02984 0.03894 0.5317 0.0
C490 C 0.00477 0.03949 0.50519 0.0
C491 C 0.02743 0.00997 0.50109 0.0
C492 C 0.05194 0.99559 0.51225 0.0
C493 C 0.05276 0.01016 0.52745 0.0
C494 C 0.97823 0.05548 0.49358 0.0
C495 C 0.07682 0.9644 0.50822 0.0
H496 H 0.97716 0.92999 0.46473 0.0
H497 H 0.05757 0.00512 0.44806 0.0
H498 H 0.99441 0.94011 0.50508 0.0
H499 H 0.95887 0.97089 0.49996 0.0
H500 H 0.96016 0.92644 0.49117 0.0
H501 H 0.08894 0.04449 0.46475 0.0
H502 H 0.05846 0.06289 0.47925 0.0
H503 H 0.09211 0.03065 0.48502 0.0
H504 H 0.9885 0.07589 0.52363 0.0
H505 H 0.07111 -0.00134 0.53606 0.0
H506 H 0.95846 0.03446 0.48989 0.0
H507 H 0.99275 0.06461 0.48289 0.0
H508 H 0.96303 0.07885 0.49852 0.0
H509 H 0.0605 0.94008 0.50526 0.0
H510 H 0.09542 0.95741 0.51803 0.0
H511 H 0.0933 0.97118 0.49773 0.0
C512 C 0.32616 0.76929 0.77672 0.0
C513 C 0.29744 0.74789 0.78231 0.0
C514 C 0.33275 0.77287 0.76061 0.0
C515 C 0.30999 0.75473 0.74981 0.0
C516 C 0.28089 0.73317 0.75533 0.0
C517 C 0.27497 0.72996 0.77154 0.0
C518 C 0.36405 0.79608 0.75514 0.0
C519 C 0.25599 0.71357 0.7441 0.0
C520 C 0.30483 0.79101 0.7083 0.0
C521 C 0.32709 0.76653 0.70014 0.0
C522 C 0.29916 0.78752 0.72448 0.0
C523 C 0.31625 0.75894 0.73272 0.0
C524 C 0.3393 0.73454 0.72466 0.0
C525 C 0.34445 0.73862 0.70844 0.0
C526 C 0.27447 0.81412 0.73271 0.0
C527 C 0.35814 0.70389 0.73314 0.0
H528 H 0.34377 0.78319 0.78494 0.0
H529 H 0.25276 0.71336 0.77576 0.0
H530 H 0.38293 0.77968 0.74789 0.0
H531 H 0.35386 0.81845 0.74762 0.0
H532 H 0.37949 0.80801 0.76507 0.0
H533 H 0.23477 0.69767 0.75029 0.0
H534 H 0.2425 0.73338 0.73622 0.0
H535 H 0.27195 0.69489 0.73658 0.0
H536 H 0.29129 0.81268 0.702 0.0
H537 H 0.36168 0.71959 0.70224 0.0
H538 H 0.28937 0.82792 0.74232 0.0
H539 H 0.25136 0.79949 0.73813 0.0
H540 H 0.26354 0.83506 0.72461 0.0
H541 H 0.37507 0.71479 0.74282 0.0
H542 H 0.37571 0.68766 0.72521 0.0
H543 H 0.3377 0.68563 0.7385 0.0
C544 C 0.61346 0.95925 0.02522 0.0
C545 C 0.60151 0.98001 0.038 0.0
C546 C 0.60846 0.97139 0.00978 0.0
C547 C 0.59112 0.00508 0.00706 0.0
C548 C 0.57912 0.02625 0.01987 0.0
C549 C 0.58444 0.01346 0.0352 0.0
C550 C 0.62155 0.94804 -0.00364 0.0
C551 C 0.5605 0.06229 0.01739 0.0
C552 C 0.60728 0.04582 0.96682 0.0
C553 C 0.57673 0.03349 0.95858 0.0
C554 C 0.61169 0.03802 0.98282 0.0
C555 C 0.58485 0.01755 0.99073 0.0
C556 C 0.55303 0.00683 0.9827 0.0
C557 C 0.54935 0.01492 0.96672 0.0
C558 C 0.64588 0.05011 0.99106 0.0
C559 C 0.52364 0.98526 0.9908 0.0
H560 H 0.6267 0.93343 0.02727 0.0
H561 H 0.57516 0.02975 0.045 0.0
H562 H 0.59833 0.94047 0.98875 0.0
H563 H 0.64099 0.96347 0.989 0.0
H564 H 0.63503 0.92282 0.00048 0.0
H565 H 0.55342 0.07579 0.02864 0.0
H566 H 0.57829 0.08065 0.01053 0.0
H567 H 0.53528 0.05839 0.01048 0.0
H568 H 0.62852 0.06027 0.96063 0.0
H569 H 0.52549 0.00557 0.96049 0.0
H570 H 0.66255 0.02605 -0.00589 0.0
H571 H 0.63914 0.06414 0.0022 0.0
H572 H 0.66248 0.06858 0.98369 0.0
H573 H 0.53426 0.95807 0.99398 0.0
H574 H 0.4993 0.98165 0.98326 0.0
H575 H 0.51529 -0.00118 0.00184 0.0
C576 C 0.28196 0.26496 0.2118 0.0
C577 C 0.30391 0.24058 0.20347 0.0
C578 C 0.28185 0.26513 0.22827 0.0
C579 C 0.30443 0.24058 0.2365 0.0
C580 C 0.32676 0.21609 0.22816 0.0
C581 C 0.32609 0.21627 0.21175 0.0
C582 C 0.25744 0.29135 0.23685 0.0
C583 C 0.35135 0.18964 0.23657 0.0
C584 C 0.32936 0.25867 0.27894 0.0
C585 C 0.30624 0.2346 0.28682 0.0
C586 C 0.32873 0.26132 0.26252 0.0
C587 C 0.30418 0.23964 0.25387 0.0
C588 C 0.28045 0.21568 0.26176 0.0
C589 C 0.2819 0.21331 0.27814 0.0
C590 C 0.35467 0.28688 0.25442 0.0
C591 C 0.25374 0.19232 0.2529 0.0
H592 H 0.26476 0.28379 0.20546 0.0
H593 H 0.34334 0.1975 0.20541 0.0
H594 H 0.23811 0.27619 0.24437 0.0
H595 H 0.27381 0.3089 0.2447 0.0
H596 H 0.24174 0.30889 0.2287 0.0
H597 H 0.36772 0.17303 0.22831 0.0
H598 H 0.37009 0.20449 0.24447 0.0
H599 H 0.33497 0.17114 0.24399 0.0
H600 H 0.34819 0.27521 0.28559 0.0
H601 H 0.26369 0.19489 0.28416 0.0
H602 H 0.33943 0.30616 0.2469 0.0
H603 H 0.37311 0.27132 0.24664 0.0
H604 H 0.37134 0.3026 0.26289 0.0
H605 H 0.23631 0.20947 0.2453 0.0
H606 H 0.23606 0.17631 0.26086 0.0
H607 H 0.26856 0.17328 0.24512 0.0
C608 C 0.86352 0.18121 0.2193 0.0
C609 C 0.84963 0.20401 0.20757 0.0
C610 C 0.84868 0.18127 0.23447 0.0
C611 C 0.81952 0.20491 0.23799 0.0
C612 C 0.80612 0.22876 0.22635 0.0
C613 C 0.82125 0.22793 0.21126 0.0
C614 C 0.8636 0.1554 0.24661 0.0
C615 C 0.77534 0.25465 0.22974 0.0
C616 C 0.75778 0.17944 0.27189 0.0
C617 C 0.7718 0.20083 0.28406 0.0
C618 C 0.77291 0.18071 0.25678 0.0
C619 C 0.80252 0.20414 0.25378 0.0
C620 C 0.81622 0.22643 0.26591 0.0
C621 C 0.80078 0.22443 0.28091 0.0
C622 C 0.75766 0.15647 0.24411 0.0
C623 C 0.84753 0.25203 0.26309 0.0
H624 H 0.88535 0.16259 0.21654 0.0
H625 H 0.81048 0.24579 0.20229 0.0
H626 H 0.87249 0.17059 0.25717 0.0
H627 H 0.84202 0.13634 0.25038 0.0
H628 H 0.88694 0.13942 0.24211 0.0
H629 H 0.76915 0.27253 0.21959 0.0
H630 H 0.75053 0.23917 0.23278 0.0
H631 H 0.78211 0.27187 0.24001 0.0
H632 H 0.73548 0.16108 0.27423 0.0
H633 H 0.81168 0.24121 0.29023 0.0
H634 H 0.77902 0.13765 0.23989 0.0
H635 H 0.74886 0.173 0.23392 0.0
H636 H 0.73419 0.14023 0.24829 0.0
H637 H 0.87201 0.23642 0.25965 0.0
H638 H 0.85414 0.26845 0.27364 0.0
H639 H 0.84106 0.27067 0.25326 0.0
C640 C 0.77436 0.81322 0.71722 0.0
C641 C 0.79543 0.79931 0.70491 0.0
C642 C 0.78457 0.80792 0.73291 0.0
C643 C 0.81664 0.78831 0.73635 0.0
C644 C 0.83815 0.77437 0.72401 0.0
C645 C 0.82727 0.77999 0.70844 0.0
C646 C 0.7609 0.82309 0.7458 0.0
C647 C 0.87252 0.75336 0.72727 0.0
C648 C 0.85544 0.80205 0.77714 0.0
C649 C 0.84078 0.7723 0.7852 0.0
C650 C 0.84879 0.80703 0.76107 0.0
C651 C 0.82703 0.78165 0.75292 0.0
C652 C 0.81355 0.75074 0.76082 0.0
C653 C 0.82061 0.74642 0.77686 0.0
C654 C 0.86381 0.84019 0.75296 0.0
C655 C 0.79043 0.72295 0.75248 0.0
H656 H 0.74977 0.82819 0.71461 0.0
H657 H 0.84381 0.76922 0.69901 0.0
H658 H 0.75091 0.80073 0.75337 0.0
H659 H 0.77695 0.84158 0.75336 0.0
H660 H 0.73714 0.8382 0.74114 0.0
H661 H 0.88663 0.74502 0.71633 0.0
H662 H 0.89139 0.77 0.73441 0.0
H663 H 0.86614 0.7287 0.7342 0.0
H664 H 0.87112 0.82213 0.78348 0.0
H665 H 0.80936 0.72321 0.78296 0.0
H666 H 0.84117 0.85819 0.74935 0.0
H667 H 0.87863 0.83228 0.74216 0.0
H668 H 0.88246 0.85584 0.76064 0.0
H669 H 0.76457 0.73563 0.74868 0.0
H670 H 0.78402 0.69929 0.76006 0.0
H671 H 0.80441 0.7131 0.74177 0.0
C672 C 0.54073 0.46335 0.96994 0.0
C673 C 0.55716 0.48673 0.95908 0.0
C674 C 0.54587 0.46813 0.98612 0.0
C675 C 0.56785 0.49703 0.99153 0.0
C676 C 0.58436 0.52078 0.98065 0.0
C677 C 0.57889 0.51531 0.96457 0.0
C678 C 0.52797 0.4422 -0.00256 0.0
C679 C 0.6079 0.55194 0.98601 0.0
C680 C 0.55624 0.52762 0.03371 0.0
C681 C 0.58518 0.50976 0.04112 0.0
C682 C 0.55046 0.52402 0.01752 0.0
C683 C 0.57416 0.50203 0.00857 0.0
C684 C 0.60387 0.48461 0.01589 0.0
C685 C 0.60907 0.48875 0.03207 0.0
C686 C 0.51865 0.54323 0.01003 0.0
C687 C 0.62977 0.46103 0.00668 0.0
H688 H 0.52391 0.44123 0.9658 0.0
H689 H 0.59161 0.53362 0.95629 0.0
H690 H 0.54891 0.42831 0.00461 0.0
H691 H 0.51018 0.45735 0.00564 0.0
H692 H 0.51145 0.42133 0.99134 0.0
H693 H 0.6183 0.56831 0.97603 0.0
H694 H 0.59228 0.56999 0.99394 0.0
H695 H 0.63137 0.54147 0.99279 0.0
H696 H 0.53767 0.54393 0.0406 0.0
H697 H 0.63151 0.47484 0.03768 0.0
H698 H 0.4998 0.52304 0.00488 0.0
H699 H 0.52819 0.56084 0.00031 0.0
H700 H 0.50339 0.56015 0.01856 0.0
H701 H 0.61479 0.43807 0.00133 0.0
H702 H 0.65192 0.44991 0.01411 0.0
H703 H 0.64204 0.47682 -0.00304 0.0
C704 C 0.02846 0.54389 0.5192 0.0
C705 C 0.049 0.51634 0.5263 0.0
C706 C 0.02544 0.5462 0.50285 0.0
C707 C 0.04314 0.52016 0.49339 0.0
C708 C 0.06402 0.49235 0.50044 0.0
C709 C 0.06683 0.49084 0.51684 0.0
C710 C 0.00313 0.57637 0.4957 0.0
C711 C 0.08304 0.46396 0.49067 0.0
C712 C 0.00646 0.50304 0.45259 0.0
C713 C 0.03171 0.52149 0.44321 0.0
C714 C 0.00976 0.50264 0.46896 0.0
C715 C 0.03885 0.52135 0.47612 0.0
C716 C 0.06392 0.54082 0.46678 0.0
C717 C 0.0601 0.54059 0.45041 0.0
C718 C 0.98251 0.48158 0.47857 0.0
C719 C 0.09506 0.56138 0.47408 0.0
H720 H 0.0148 0.56388 0.52641 0.0
H721 H 0.08273 0.46949 0.52225 0.0
H722 H 0.01992 0.59223 0.48736 0.0
H723 H 0.98018 0.56478 0.48894 0.0
H724 H 0.99203 0.59513 0.5047 0.0
H725 H 0.09869 0.44448 0.49796 0.0
H726 H 0.06283 0.44861 0.48367 0.0
H727 H 0.10185 0.47714 0.48226 0.0
H728 H 0.98445 0.48817 0.44714 0.0
H729 H 0.07966 0.55498 0.44324 0.0
H730 H 0.9693 0.49969 0.48725 0.0
H731 H 0.99654 0.45988 0.48525 0.0
H732 H 0.96112 0.46895 0.47119 0.0
H733 H 0.08464 0.58116 0.4828 0.0
H734 H 0.11143 0.57618 0.46521 0.0
H735 H 0.1131 0.54231 0.48046 0.0
C736 C 0.2734 0.9012 0.62341 0.0
C737 C 0.26128 0.88451 0.63723 0.0
C738 C 0.25271 0.92862 0.6162 0.0
C739 C 0.21935 0.9394 0.62303 0.0
C740 C 0.20884 0.92487 0.63771 0.0
C741 C 0.2299 0.89758 0.6446 0.0
C742 C 0.26508 0.94386 0.60066 0.0
C743 C 0.17366 0.93573 0.6455 0.0
C744 C 0.15937 0.01636 0.60835 0.0
C745 C 0.13336 0.99699 0.59974 0.0
C746 C 0.18892 -0.00162 0.61539 0.0
C747 C 0.19227 0.96029 0.61376 0.0
C748 C 0.167 0.94102 0.60445 0.0
C749 C 0.13796 0.95958 0.59759 0.0
C750 C 0.21555 0.01984 0.6251 0.0
C751 C 0.16954 0.9004 0.60234 0.0
H752 H 0.29781 0.89139 0.61772 0.0
H753 H 0.22075 0.88524 0.65545 0.0
H754 H 0.24926 0.93112 0.59105 0.0
H755 H 0.26023 0.97352 0.6001 0.0
H756 H 0.29433 0.93848 0.59853 0.0
H757 H 0.17187 0.92571 0.65778 0.0
H758 H 0.1706 0.96564 0.64557 0.0
H759 H 0.15054 0.92435 0.63877 0.0
H760 H 0.1561 0.04533 0.60997 0.0
H761 H 0.11829 0.94443 0.59077 0.0
H762 H 0.24381 0.0116 0.62238 0.0
H763 H 0.21085 0.01426 0.63773 0.0
H764 H 0.21277 0.04949 0.62311 0.0
H765 H 0.19695 0.89272 0.59813 0.0
H766 H 0.14915 0.88992 0.59388 0.0
H767 H 0.16519 0.88674 0.6138 0.0
C768 C 0.33589 0.86408 0.86194 0.0
C769 C 0.3562 0.84056 0.85243 0.0
C770 C 0.35272 0.89296 0.86991 0.0
C771 C 0.39067 0.89798 0.86843 0.0
C772 C 0.41091 0.87515 0.85836 0.0
C773 C 0.39343 0.84689 0.85047 0.0
C774 C 0.33019 0.91715 0.88035 0.0
C775 C 0.45148 0.8794 0.85647 0.0
C776 C 0.44678 0.97922 0.8806 0.0
C777 C 0.46349 0.96567 0.89418 0.0
C778 C 0.4202 0.95883 0.87271 0.0
C779 C 0.41046 0.92419 0.87854 0.0
C780 C 0.42499 0.91197 0.89297 0.0
C781 C 0.45126 0.93289 0.90062 0.0
C782 C 0.40471 0.97309 0.85752 0.0
C783 C 0.41533 0.87528 0.89966 0.0
H784 H 0.30704 0.85953 0.8634 0.0
H785 H 0.40933 0.82908 0.84305 0.0
H786 H 0.33587 0.91066 0.89282 0.0
H787 H 0.33738 0.94605 0.87848 0.0
H788 H 0.30066 0.91363 0.87822 0.0
H789 H 0.46284 0.86066 0.84753 0.0
H790 H 0.45819 0.9076 0.85302 0.0
H791 H 0.46513 0.87394 0.86784 0.0
H792 H 0.45584 0.00474 0.87566 0.0
H793 H 0.46359 0.92253 0.91127 0.0
H794 H 0.37522 0.96739 0.85674 0.0
H795 H 0.41808 0.95926 0.84751 0.0
H796 H 0.40911 0.00275 0.85626 0.0
H797 H 0.38553 0.87122 0.89959 0.0
H798 H 0.42537 0.87181 0.91187 0.0
H799 H 0.42752 0.85372 0.89226 0.0
C800 C 0.50886 0.05499 0.10865 0.0
C801 C 0.51147 0.01708 0.10813 0.0
C802 C 0.47838 0.07216 0.11495 0.0
C803 C 0.44953 0.05097 0.12094 0.0
C804 C 0.45145 0.01264 0.12017 0.0
C805 C 0.48256 0.99607 0.11378 0.0
C806 C 0.47756 0.11314 0.11554 0.0
C807 C 0.42111 0.98925 0.12637 0.0
C808 C 0.40129 0.1071 0.15114 0.0
C809 C 0.37494 0.12433 0.14191 0.0
C810 C 0.42332 0.07978 0.1449 0.0
C811 C 0.41908 0.06972 0.12898 0.0
C812 C 0.38994 0.08427 0.12012 0.0
C813 C 0.36803 0.11149 0.12673 0.0
C814 C 0.45369 0.06468 0.15486 0.0
C815 C 0.3842 0.07385 0.10318 0.0
H816 H 0.53091 0.0715 0.10422 0.0
H817 H 0.48433 0.96675 0.11332 0.0
H818 H 0.45278 0.1235 0.10966 0.0
H819 H 0.47671 0.12236 0.12793 0.0
H820 H 0.50159 0.12556 0.1098 0.0
H821 H 0.42455 0.96033 0.12305 0.0
H822 H 0.42032 0.99109 0.13936 0.0
H823 H 0.39453 -0.00102 0.12193 0.0
H824 H 0.40618 0.11646 0.16302 0.0
H825 H 0.34744 0.12454 0.1196 0.0
H826 H 0.4797 0.07735 0.15126 0.0
H827 H 0.45638 0.035 0.15316 0.0
H828 H 0.4494 0.07023 0.16754 0.0
H829 H 0.4042 0.08837 0.09575 0.0
H830 H 0.35654 0.08113 0.09906 0.0
H831 H 0.38849 0.04435 0.10144 0.0
C832 C 0.10815 0.04313 0.38367 0.0
C833 C 0.10403 0.00535 0.3833 0.0
C834 C 0.13809 0.05999 0.37676 0.0
C835 C 0.16486 0.0386 0.36927 0.0
C836 C 0.16155 0.00033 0.3692 0.0
C837 C 0.13099 0.98408 0.3762 0.0
C838 C 0.14043 0.10092 0.37712 0.0
C839 C 0.1897 0.9767 0.36141 0.0
C840 C 0.20926 0.09673 0.33867 0.0
C841 C 0.23786 0.11195 0.34728 0.0
C842 C 0.18747 0.06946 0.3451 0.0
C843 C 0.19435 0.0573 0.36057 0.0
C844 C 0.22558 0.06973 0.36864 0.0
C845 C 0.24711 0.09703 0.36187 0.0
C846 C 0.15476 0.05668 0.33597 0.0
C847 C 0.23419 0.05695 0.38505 0.0
H848 H 0.08763 0.05982 0.38922 0.0
H849 H 0.12808 0.95485 0.37597 0.0
H850 H 0.16661 0.10956 0.38233 0.0
H851 H 0.13933 0.11176 0.36498 0.0
H852 H 0.11806 0.11342 0.38398 0.0
H853 H 0.18614 0.94762 0.36443 0.0
H854 H 0.18763 0.97964 0.34849 0.0
H855 H 0.21743 0.98529 0.36486 0.0
H856 H 0.20249 0.10767 0.32722 0.0
H857 H 0.26945 0.10847 0.3685 0.0
H858 H 0.13 0.06962 0.34083 0.0
H859 H 0.1514 0.02691 0.33705 0.0
H860 H 0.15672 0.06379 0.32333 0.0
H861 H 0.21623 0.07112 0.39351 0.0
H862 H 0.2628 0.06277 0.38829 0.0
H863 H 0.22919 0.02742 0.38625 0.0
C864 C 0.87335 0.97853 0.39226 0.0
C865 C 0.90839 0.98178 0.38599 0.0
C866 C 0.84457 -0.00052 0.38637 0.0
C867 C 0.85103 0.02378 0.37382 0.0
C868 C 0.88586 0.02546 0.36685 0.0
C869 C 0.91416 0.00464 0.37309 0.0
C870 C 0.80786 0.99713 0.39415 0.0
C871 C 0.89372 0.05059 0.35326 0.0
C872 C 0.77722 0.06928 0.34987 0.0
C873 C 0.77896 0.10482 0.35568 0.0
C874 C 0.79909 0.04178 0.35625 0.0
C875 C 0.82277 0.05008 0.36883 0.0
C876 C 0.82249 0.08523 0.37549 0.0
C877 C 0.80079 0.11225 0.36876 0.0
C878 C 0.79874 0.00466 0.34881 0.0
C879 C 0.84686 0.09499 0.38911 0.0
H880 H 0.86877 0.96093 0.40226 0.0
H881 H 0.9411 0.00692 0.36808 0.0
H882 H 0.80271 0.02237 0.40087 0.0
H883 H 0.78607 0.99472 0.38523 0.0
H884 H 0.806 0.97375 0.40233 0.0
H885 H 0.9212 0.04616 0.34826 0.0
H886 H 0.87336 0.04676 0.34381 0.0
H887 H 0.89176 0.07916 0.35725 0.0
H888 H 0.7604 0.0634 0.33975 0.0
H889 H 0.80188 0.13959 0.37341 0.0
H890 H 0.79795 0.98317 0.35791 0.0
H891 H 0.82404 0.00079 0.34195 0.0
H892 H 0.77525 0.00104 0.34079 0.0
H893 H 0.84461 0.07442 0.39856 0.0
H894 H 0.84027 0.12204 0.39408 0.0
H895 H 0.87552 0.09529 0.38513 0.0
C896 C 0.70249 0.00753 0.12067 0.0
C897 C 0.70727 0.98584 0.10734 0.0
C898 C 0.73126 0.0278 0.12683 0.0
C899 C 0.7655 0.02674 0.11931 0.0
C900 C 0.77111 0.00322 0.10642 0.0
C901 C 0.74189 0.98279 0.10063 0.0
C902 C 0.72436 0.05204 0.1408 0.0
C903 C 0.80719 0.00147 0.09808 0.0
C904 C 0.81458 0.11593 0.12377 0.0
C905 C 0.83793 0.10859 0.13635 0.0
C906 C 0.79262 0.0887 0.11739 0.0
C907 C 0.79369 0.05341 0.12391 0.0
C908 C 0.81881 0.04526 0.13598 0.0
C909 C 0.84088 0.07298 0.14201 0.0
C910 C 0.76667 0.09833 0.1043 0.0
C911 C 0.82062 0.00799 0.14326 0.0
H912 H 0.67587 0.0096 0.12602 0.0
H913 H 0.7457 0.96607 0.09029 0.0
H914 H 0.74581 0.04822 0.14979 0.0
H915 H 0.72519 0.08084 0.13704 0.0
H916 H 0.69756 0.04673 0.14631 0.0
H917 H 0.80875 0.97811 0.08988 0.0
H918 H 0.81125 0.02677 0.09125 0.0
H919 H 0.82978 -0.00054 0.10664 0.0
H920 H 0.81255 0.14332 0.11923 0.0
H921 H 0.85888 0.06718 0.15175 0.0
H922 H 0.73843 0.09779 0.10881 0.0
H923 H 0.76849 0.07815 0.09468 0.0
H924 H 0.77207 0.1257 0.09938 0.0
H925 H 0.79623 0.0036 0.15065 0.0
H926 H 0.84508 0.00456 0.15074 0.0
H927 H 0.82068 0.98669 0.13407 0.0
C928 C 0.78961 0.86751 0.86753 0.0
C929 C 0.7774 0.84428 0.85564 0.0
C930 C 0.76606 0.8929 0.87441 0.0
C931 C 0.7299 0.8957 0.86891 0.0
C932 C 0.71775 0.87283 0.85666 0.0
C933 C 0.74151 0.84704 0.85033 0.0
C934 C 0.77963 0.91618 0.88774 0.0
C935 C 0.67964 0.87557 0.85023 0.0
C936 C 0.65539 0.93381 0.8947 0.0
C937 C 0.65266 0.96951 0.88918 0.0
C938 C 0.68127 0.90989 0.88855 0.0
C939 C 0.70423 0.92167 0.87626 0.0
C940 C 0.70157 0.9577 0.87061 0.0
C941 C 0.6761 0.98141 0.87731 0.0
C942 C 0.68388 0.87195 0.89514 0.0
C943 C 0.72497 0.97089 0.85723 0.0
H944 H 0.81733 0.86528 0.87168 0.0
H945 H 0.73214 0.82939 0.841 0.0
H946 H 0.77676 0.94528 0.88471 0.0
H947 H 0.76295 0.91126 0.89837 0.0
H948 H 0.8085 0.91065 0.89063 0.0
H949 H 0.67515 0.8572 0.84008 0.0
H950 H 0.65976 0.86866 0.85953 0.0
H951 H 0.67395 0.90382 0.84646 0.0
H952 H 0.63758 0.9247 0.90403 0.0
H953 H 0.6739 0.00899 0.87301 0.0
H954 H 0.71219 0.86612 0.8988 0.0
H955 H 0.67658 0.85192 0.88597 0.0
H956 H 0.6657 0.86786 0.90539 0.0
H957 H 0.75407 0.96765 0.86023 0.0
H958 H 0.71979 -0.0002 0.85432 0.0
H959 H 0.71974 0.95424 0.84662 0.0
C960 C 0.8349 0.89663 0.62178 0.0
C961 C 0.81334 0.90295 0.63503 0.0
C962 C 0.85651 0.92416 0.61543 0.0
C963 C 0.85711 0.95865 0.62272 0.0
C964 C 0.8341 0.96574 0.63566 0.0
C965 C 0.81216 0.93779 0.6416 0.0
C966 C 0.88008 0.91575 0.60139 0.0
C967 C 0.8343 0.00204 0.64383 0.0
C968 C 0.94759 0.00479 0.6169 0.0
C969 C 0.94006 0.02817 0.60435 0.0
C970 C 0.92013 0.98381 0.62371 0.0
C971 C 0.88444 0.98576 0.61762 0.0
C972 C 0.87625 0.01076 0.60552 0.0
C973 C 0.90418 0.03197 0.5991 0.0
C974 C 0.92979 0.95801 0.63684 0.0
C975 C 0.83861 0.01335 0.59862 0.0
H976 H 0.83557 0.86979 0.61659 0.0
H977 H 0.79563 0.9427 0.65191 0.0
H978 H 0.87675 0.93691 0.59224 0.0
H979 H 0.90902 0.9157 0.60497 0.0
H980 H 0.87363 0.88894 0.59614 0.0
H981 H 0.8117 0.00467 0.65238 0.0
H982 H 0.86032 0.00543 0.65021 0.0
H983 H 0.83235 0.02442 0.63517 0.0
H984 H 0.97523 0.00209 0.6211 0.0
H985 H 0.89825 0.04994 0.58936 0.0
H986 H 0.9283 0.92969 0.63251 0.0
H987 H 0.91016 0.96064 0.64665 0.0
H988 H 0.95757 0.96286 0.64146 0.0
H989 H 0.83294 0.9886 0.59163 0.0
H990 H 0.83554 0.03734 0.59084 0.0
H991 H 0.81789 0.01481 0.60803 0.0
C992 C 0.8345 0.33006 0.13075 0.0
C993 C 0.81339 0.30359 0.13826 0.0
C994 C 0.81814 0.36065 0.12382 0.0
C995 C 0.77992 0.36455 0.1244 0.0
C996 C 0.75876 0.33848 0.13244 0.0
C997 C 0.77573 0.30846 0.13925 0.0
C998 C 0.84156 0.38807 0.11546 0.0
C999 C 0.7179 0.34151 0.13337 0.0
C1000 C 0.72281 0.44765 0.11626 0.0
C1001 C 0.70731 0.43796 0.10184 0.0
C1002 C 0.74962 0.42574 0.12322 0.0
C1003 C 0.76097 0.39364 0.11551 0.0
C1004 C 0.74803 0.38595 0.10023 0.0
C1005 C 0.7213 0.40817 0.09361 0.0
C1006 C 0.76323 0.43518 0.13941 0.0
C1007 C 0.7596 0.35224 0.0915 0.0
H1008 H 0.86366 0.32657 0.13004 0.0
H1009 H 0.75919 0.28838 0.14517 0.0
H1010 H 0.83772 0.38538 0.1026 0.0
H1011 H 0.83353 0.41606 0.11874 0.0
H1012 H 0.87082 0.38427 0.11814 0.0
H1013 H 0.70567 0.31989 0.14075 0.0
H1014 H 0.71001 0.3682 0.1383 0.0
H1015 H 0.70609 0.33963 0.12141 0.0
H1016 H 0.71232 0.47087 0.12261 0.0
H1017 H 0.70991 0.40096 0.0823 0.0
H1018 H 0.79274 0.42972 0.14044 0.0
H1019 H 0.74913 0.41805 0.1482 0.0
H1020 H 0.75802 0.46407 0.14234 0.0
H1021 H 0.78941 0.34849 0.09221 0.0
H1022 H 0.75155 0.35313 0.07894 0.0
H1023 H 0.74672 0.32816 0.09698 0.0
C1024 C 0.78489 0.32882 0.35818 0.0
C1025 C 0.80596 0.29982 0.35265 0.0
C1026 C 0.80143 0.36037 0.36414 0.0
C1027 C 0.83979 0.36265 0.36461 0.0
C1028 C 0.86102 0.33367 0.35876 0.0
C1029 C 0.84388 0.30275 0.35288 0.0
C1030 C 0.778 0.39084 0.37021 0.0
C1031 C 0.90204 0.33487 0.35905 0.0
C1032 C 0.89894 0.44565 0.36897 0.0
C1033 C 0.91232 0.44026 0.38419 0.0
C1034 C 0.87214 0.42259 0.36279 0.0
C1035 C 0.85855 0.39381 0.37211 0.0
C1036 C 0.86927 0.39087 0.38801 0.0
C1037 C 0.89614 0.41405 0.39383 0.0
C1038 C 0.86108 0.42689 0.34584 0.0
C1039 C 0.85524 0.36088 0.39844 0.0
H1040 H 0.75556 0.32681 0.35794 0.0
H1041 H 0.86045 0.28061 0.34856 0.0
H1042 H 0.78124 0.39315 0.38311 0.0
H1043 H 0.78665 0.41704 0.36503 0.0
H1044 H 0.74881 0.38651 0.36754 0.0
H1045 H 0.91448 0.31061 0.3535 0.0
H1046 H 0.91191 0.35935 0.35281 0.0
H1047 H 0.91175 0.33657 0.37135 0.0
H1048 H 0.91118 0.46608 0.36152 0.0
H1049 H 0.90593 0.41027 0.40572 0.0
H1050 H 0.83156 0.42213 0.34435 0.0
H1051 H 0.87561 0.40648 0.33862 0.0
H1052 H 0.86785 0.45427 0.34126 0.0
H1053 H 0.82553 0.35753 0.39702 0.0
H1054 H 0.86126 0.36603 0.41102 0.0
H1055 H 0.86827 0.3349 0.39503 0.0
C1056 C 0.9319 0.57103 0.60654 0.0
C1057 C 0.94821 0.58511 0.59299 0.0
C1058 C 0.90492 0.59076 0.61451 0.0
C1059 C 0.89428 0.6252 0.60873 0.0
C1060 C 0.90844 0.63788 0.59431 0.0
C1061 C 0.93522 0.6177 0.58663 0.0
C1062 C 0.88994 0.57605 0.6297 0.0
C1063 C 0.89772 0.67432 0.58765 0.0
C1064 C 0.81874 0.68423 0.62525 0.0
C1065 C 0.83883 0.70863 0.63441 0.0
C1066 C 0.83598 0.65527 0.61748 0.0
C1067 C 0.87404 0.65096 0.6189 0.0
C1068 C 0.89398 0.67444 0.62879 0.0
C1069 C 0.87615 0.70288 0.6364 0.0
C1070 C 0.81378 0.63044 0.60721 0.0
C1071 C 0.93462 0.67083 0.63068 0.0
H1072 H 0.94157 0.54564 0.61141 0.0
H1073 H 0.9472 0.62839 0.57597 0.0
H1074 H 0.90322 0.58999 0.63971 0.0
H1075 H 0.86035 0.58123 0.63058 0.0
H1076 H 0.89492 0.54646 0.63088 0.0
H1077 H 0.90758 0.67809 0.57544 0.0
H1078 H 0.86781 0.67758 0.58775 0.0
H1079 H 0.90935 0.69618 0.59505 0.0
H1080 H 0.78982 0.68834 0.62378 0.0
H1081 H 0.89183 0.72126 0.64365 0.0
H1082 H 0.82199 0.60177 0.60893 0.0
H1083 H 0.81859 0.63728 0.5947 0.0
H1084 H 0.78426 0.63303 0.60961 0.0
H1085 H 0.94186 0.64271 0.63408 0.0
H1086 H 0.94563 0.68966 0.63967 0.0
H1087 H 0.94817 0.67667 0.61933 0.0
C1088 C 0.73972 0.64377 0.84147 0.0
C1089 C 0.77247 0.65545 0.84815 0.0
C1090 C 0.71853 0.6172 0.84877 0.0
C1091 C 0.73042 0.60182 0.86309 0.0
C1092 C 0.76506 0.61098 0.86911 0.0
C1093 C 0.78575 0.63786 0.86156 0.0
C1094 C 0.68185 0.60816 0.84188 0.0
C1095 C 0.77899 0.5946 0.88418 0.0
C1096 C 0.65269 0.58452 0.89093 0.0
C1097 C 0.64607 0.54743 0.88874 0.0
C1098 C 0.68112 0.60201 0.88315 0.0
C1099 C 0.70383 0.58193 0.87297 0.0
C1100 C 0.69844 0.54412 0.87122 0.0
C1101 C 0.6694 0.52727 0.87908 0.0
C1102 C 0.68576 0.64243 0.88533 0.0
C1103 C 0.72247 0.52177 0.86064 0.0
H1104 H 0.72959 0.65677 0.83093 0.0
H1105 H 0.81124 0.6465 0.86668 0.0
H1106 H 0.67746 0.57843 0.84174 0.0
H1107 H 0.66027 0.62032 0.84928 0.0
H1108 H 0.67875 0.61867 0.82973 0.0
H1109 H 0.80869 0.59863 0.88555 0.0
H1110 H 0.76515 0.60761 0.89428 0.0
H1111 H 0.77297 0.56515 0.88467 0.0
H1112 H 0.63502 0.60029 0.89846 0.0
H1113 H 0.66462 0.49853 0.87745 0.0
H1114 H 0.68064 0.65656 0.87404 0.0
H1115 H 0.71399 0.64871 0.88893 0.0
H1116 H 0.66698 0.65366 0.8943 0.0
H1117 H 0.71614 0.52804 0.84821 0.0
H1118 H 0.71859 0.49222 0.86253 0.0
H1119 H 0.75145 0.52855 0.8626 0.0
C1120 C 0.43134 0.51245 0.87971 0.0
C1121 C 0.45336 0.52815 0.89124 0.0
C1122 C 0.40493 0.53322 0.87191 0.0
C1123 C 0.39998 0.57004 0.87615 0.0
C1124 C 0.42061 0.58513 0.88854 0.0
C1125 C 0.44749 0.56415 0.89576 0.0
C1126 C 0.38404 0.51648 0.85851 0.0
C1127 C 0.41549 0.62398 0.89371 0.0
C1128 C 0.37214 0.64224 0.84716 0.0
C1129 C 0.33586 0.64815 0.85126 0.0
C1130 C 0.39255 0.61511 0.85449 0.0
C1131 C 0.37657 0.59422 0.86659 0.0
C1132 C 0.33955 0.59934 0.87047 0.0
C1133 C 0.31937 0.62602 0.86255 0.0
C1134 C 0.43168 0.60986 0.84971 0.0
C1135 C 0.32188 0.57818 0.88356 0.0
H1136 H 0.43607 0.48457 0.87623 0.0
H1137 H 0.46429 0.57606 0.90485 0.0
H1138 H 0.35466 0.52241 0.85961 0.0
H1139 H 0.39337 0.52853 0.84728 0.0
H1140 H 0.38788 0.48664 0.85791 0.0
H1141 H 0.43027 0.63003 0.90477 0.0
H1142 H 0.4256 0.64253 0.88444 0.0
H1143 H 0.38627 0.62996 0.89549 0.0
H1144 H 0.38467 0.65911 0.83825 0.0
H1145 H 0.29128 0.63077 0.86571 0.0
H1146 H 0.43745 0.5807 0.84769 0.0
H1147 H 0.44978 0.61921 0.85929 0.0
H1148 H 0.43858 0.62518 0.83889 0.0
H1149 H 0.32741 0.54878 0.88226 0.0
H1150 H 0.29206 0.58245 0.88395 0.0
H1151 H 0.33359 0.58681 0.89496 0.0
C1152 C 0.16486 0.56044 0.60561 0.0
C1153 C 0.14051 0.57449 0.59454 0.0
C1154 C 0.1916 0.58261 0.61236 0.0
C1155 C 0.19457 0.61925 0.60753 0.0
C1156 C 0.17093 0.63306 0.59588 0.0
C1157 C 0.14383 0.61064 0.5897 0.0
C1158 C 0.21572 0.56727 0.62505 0.0
C1159 C 0.17381 0.67171 0.59015 0.0
C1160 C 0.23221 0.69103 0.63473 0.0
C1161 C 0.2677 0.69501 0.62911 0.0
C1162 C 0.20865 0.66542 0.62818 0.0
C1163 C 0.22055 0.64405 0.61538 0.0
C1164 C 0.25643 0.64786 0.60967 0.0
C1165 C 0.27985 0.673 0.61679 0.0
C1166 C 0.17087 0.66153 0.63485 0.0
C1167 C 0.26969 0.6262 0.59578 0.0
H1168 H 0.1622 0.53248 0.60936 0.0
H1169 H 0.12531 0.62138 0.58096 0.0
H1170 H 0.24468 0.57148 0.62203 0.0
H1171 H 0.2106 0.58179 0.63625 0.0
H1172 H 0.21104 0.53785 0.62697 0.0
H1173 H 0.15559 0.67718 0.58003 0.0
H1174 H 0.16665 0.69064 0.59978 0.0
H1175 H 0.20213 0.67779 0.58659 0.0
H1176 H 0.22296 0.70769 0.64442 0.0
H1177 H 0.30731 0.67617 0.61244 0.0
H1178 H 0.16536 0.63273 0.63777 0.0
H1179 H 0.15054 0.67001 0.62598 0.0
H1180 H 0.16687 0.67816 0.64559 0.0
H1181 H 0.26627 0.59678 0.59801 0.0
H1182 H 0.29867 0.6316 0.59307 0.0
H1183 H 0.25317 0.63297 0.58528 0.0
C1184 C 0.10401 0.40171 0.38613 0.0
C1185 C 0.10186 0.43484 0.37811 0.0
C1186 C 0.13033 0.37587 0.38218 0.0
C1187 C 0.1544 0.38296 0.36962 0.0
C1188 C 0.1521 0.41621 0.36135 0.0
C1189 C 0.12613 0.44204 0.36585 0.0
C1190 C 0.13249 0.34107 0.39149 0.0
C1191 C 0.17674 0.42428 0.34764 0.0
C1192 C 0.24195 0.32924 0.366 0.0
C1193 C 0.23182 0.3022 0.35531 0.0
C1194 C 0.21682 0.35543 0.371 0.0
C1195 C 0.18115 0.35503 0.36481 0.0
C1196 C 0.17085 0.32781 0.35401 0.0
C1197 C 0.19618 0.30146 0.34955 0.0
C1198 C 0.22841 0.38353 0.38286 0.0
C1199 C 0.13327 0.32691 0.34692 0.0
H1200 H 0.08558 0.39628 0.39577 0.0
H1201 H 0.12444 0.46763 0.35964 0.0
H1202 H 0.12693 0.31757 0.38374 0.0
H1203 H 0.16028 0.33749 0.39627 0.0
H1204 H 0.11289 0.34052 0.40139 0.0
H1205 H 0.17123 0.45128 0.34236 0.0
H1206 H 0.2055 0.42337 0.35144 0.0
H1207 H 0.17325 0.40326 0.33844 0.0
H1208 H 0.26945 0.3298 0.37051 0.0
H1209 H 0.18833 0.28086 0.34113 0.0
H1210 H 0.20999 0.38288 0.39316 0.0
H1211 H 0.22642 0.41102 0.37765 0.0
H1212 H 0.25668 0.37922 0.38699 0.0
H1213 H 0.11263 0.32399 0.35631 0.0
H1214 H 0.12985 0.30429 0.33845 0.0
H1215 H 0.12767 0.35285 0.34077 0.0
C1216 C 0.49368 0.44984 0.12193 0.0
C1217 C 0.51791 0.43907 0.11015 0.0
C1218 C 0.46702 0.42593 0.12751 0.0
C1219 C 0.46399 0.39093 0.12081 0.0
C1220 C 0.48821 0.3801 0.10881 0.0
C1221 C 0.5152 0.40414 0.10378 0.0
C1222 C 0.44227 0.43799 0.14063 0.0
C1223 C 0.48532 0.34328 0.10114 0.0
C1224 C 0.41853 0.31462 0.14308 0.0
C1225 C 0.3836 0.31479 0.13656 0.0
C1226 C 0.44465 0.33989 0.13834 0.0
C1227 C 0.43591 0.36527 0.12647 0.0
C1228 C 0.40077 0.36539 0.11973 0.0
C1229 C 0.3748 0.34041 0.12504 0.0
C1230 C 0.48156 0.33951 0.14606 0.0
C1231 C 0.39084 0.39148 0.10676 0.0
H1232 H 0.49583 0.47682 0.12689 0.0
H1233 H 0.53361 0.3959 0.09452 0.0
H1234 H 0.41365 0.43757 0.13661 0.0
H1235 H 0.44442 0.4189 0.15066 0.0
H1236 H 0.44879 0.46574 0.14484 0.0
H1237 H 0.50549 0.33956 0.09159 0.0
H1238 H 0.48948 0.32165 0.11001 0.0
H1239 H 0.45772 0.33957 0.09618 0.0
H1240 H 0.42525 0.29512 0.15216 0.0
H1241 H 0.34781 0.34049 0.11997 0.0
H1242 H 0.48778 0.36667 0.15096 0.0
H1243 H 0.50276 0.33326 0.13723 0.0
H1244 H 0.48336 0.31919 0.15566 0.0
H1245 H 0.39425 0.41982 0.11085 0.0
H1246 H 0.36244 0.38784 0.10268 0.0
H1247 H 0.40934 0.3876 0.09662 0.0
loop_
_geom_bond_atom_site_label_1
_geom_bond_atom_site_label_2
_geom_bond_distance
_geom_bond_site_symmetry_2
_ccdc_geom_bond_type
O0 Cd1 2.223 . S
O0 C8 1.315 1_655 S
Cd1 O0 2.223 . S
Cd1 O4 2.297 1_655 S
Cd1 O5 2.439 1_655 S
Cd1 O11 2.240 1_655 S
Cd2 O3 2.240 1_565 S
Cd2 O10 2.223 . S
Cd2 O12 2.297 . S
Cd2 O13 2.439 1_565 S
O3 Cd2 2.240 1_545 S
O3 C8 1.279 . S
O4 Cd1 2.297 1_455 S
O4 C6 1.247 . S
O5 Cd1 2.439 1_455 S
O5 C6 1.208 . S
C6 O4 1.247 . S
C6 O5 1.208 . S
C7 O12 1.247 . S
C7 O13 1.208 1_565 S
C8 O0 1.315 1_455 S
C8 O3 1.279 . S
C9 O10 1.315 1_655 S
C9 O11 1.279 1_665 S
O10 Cd2 2.223 . S
O10 C9 1.315 1_455 S
O11 Cd1 2.240 1_455 S
O11 C9 1.279 1_445 S
O12 Cd2 2.297 . S
O12 C7 1.247 . S
O13 Cd2 2.439 1_545 S
O13 C7 1.208 1_545 S
O14 Cd15 2.223 . S
O14 C22 1.315 . S
Cd15 O14 2.223 . S
Cd15 O18 2.297 . S
Cd15 O19 2.439 . S
Cd15 O25 2.240 . S
Cd16 O17 2.240 . S
Cd16 O24 2.223 . S
Cd16 O26 2.297 . S
Cd16 O27 2.439 . S
O17 Cd16 2.240 . S
O17 C22 1.279 . S
O18 Cd15 2.297 . S
O18 C20 1.247 . S
O19 Cd15 2.439 . S
O19 C20 1.208 . S
C20 O18 1.247 . S
C20 O19 1.208 . S
C21 O26 1.247 . S
C21 O27 1.208 . S
C22 O14 1.315 . S
C22 O17 1.279 . S
C23 O24 1.315 . S
C23 O25 1.279 . S
O24 Cd16 2.223 . S
O24 C23 1.315 . S
O25 Cd15 2.240 . S
O25 C23 1.279 . S
O26 Cd16 2.297 . S
O26 C21 1.247 . S
O27 Cd16 2.439 . S
O27 C21 1.208 . S
O28 Cd29 2.223 . S
O28 C36 1.315 . S
Cd29 O28 2.223 . S
Cd29 O32 2.297 . S
Cd29 O33 2.439 . S
Cd29 O39 2.240 . S
Cd30 O31 2.240 1_545 S
Cd30 O38 2.223 . S
Cd30 O40 2.297 . S
Cd30 O41 2.439 1_545 S
O31 Cd30 2.240 1_565 S
O31 C36 1.279 . S
O32 Cd29 2.297 . S
O32 C34 1.247 . S
O33 Cd29 2.439 . S
O33 C34 1.208 . S
C34 O32 1.247 . S
C34 O33 1.208 . S
C35 O40 1.247 . S
C35 O41 1.208 1_545 S
C36 O28 1.315 . S
C36 O31 1.279 . S
C37 O38 1.315 . S
C37 O39 1.279 1_545 S
O38 Cd30 2.223 . S
O38 C37 1.315 . S
O39 Cd29 2.240 . S
O39 C37 1.279 1_565 S
O40 Cd30 2.297 . S
O40 C35 1.247 . S
O41 Cd30 2.439 1_565 S
O41 C35 1.208 1_565 S
O42 Cd43 2.223 . S
O42 C50 1.315 . S
Cd43 O42 2.223 . S
Cd43 O46 2.297 . S
Cd43 O47 2.439 . S
Cd43 O53 2.240 . S
Cd44 O45 2.240 . S
Cd44 O52 2.223 . S
Cd44 O54 2.297 . S
Cd44 O55 2.439 . S
O45 Cd44 2.240 . S
O45 C50 1.279 . S
O46 Cd43 2.297 . S
O46 C48 1.247 . S
O47 Cd43 2.439 . S
O47 C48 1.208 . S
C48 O46 1.247 . S
C48 O47 1.208 . S
C49 O54 1.247 . S
C49 O55 1.208 . S
C50 O42 1.315 . S
C50 O45 1.279 . S
C51 O52 1.315 . S
C51 O53 1.279 . S
O52 Cd44 2.223 . S
O52 C51 1.315 . S
O53 Cd43 2.240 . S
O53 C51 1.279 . S
O54 Cd44 2.297 . S
O54 C49 1.247 . S
O55 Cd44 2.439 . S
O55 C49 1.208 . S
O56 Cd57 2.223 . S
O56 C64 1.315 1_655 S
Cd57 O56 2.223 . S
Cd57 O60 2.297 1_655 S
Cd57 O61 2.439 1_655 S
Cd57 O67 2.240 1_655 S
Cd58 O59 2.240 1_545 S
Cd58 O66 2.223 . S
Cd58 O68 2.297 . S
Cd58 O69 2.439 1_545 S
O59 Cd58 2.240 1_565 S
O59 C64 1.279 . S
O60 Cd57 2.297 1_455 S
O60 C62 1.247 . S
O61 Cd57 2.439 1_455 S
O61 C62 1.208 . S
C62 O60 1.247 . S
C62 O61 1.208 . S
C63 O68 1.247 . S
C63 O69 1.208 1_545 S
C64 O56 1.315 1_455 S
C64 O59 1.279 . S
C65 O66 1.315 1_655 S
C65 O67 1.279 1_645 S
O66 Cd58 2.223 . S
O66 C65 1.315 1_455 S
O67 Cd57 2.240 1_455 S
O67 C65 1.279 1_465 S
O68 Cd58 2.297 . S
O68 C63 1.247 . S
O69 Cd58 2.439 1_565 S
O69 C63 1.208 1_565 S
O70 Cd71 2.223 . S
O70 C78 1.315 . S
Cd71 O70 2.223 . S
Cd71 O74 2.297 . S
Cd71 O75 2.439 . S
Cd71 O81 2.240 . S
Cd72 O73 2.240 . S
Cd72 O80 2.223 . S
Cd72 O82 2.297 . S
Cd72 O83 2.439 . S
O73 Cd72 2.240 . S
O73 C78 1.279 . S
O74 Cd71 2.297 . S
O74 C76 1.247 . S
O75 Cd71 2.439 . S
O75 C76 1.208 . S
C76 O74 1.247 . S
C76 O75 1.208 . S
C77 O82 1.247 . S
C77 O83 1.208 . S
C78 O70 1.315 . S
C78 O73 1.279 . S
C79 O80 1.315 . S
C79 O81 1.279 . S
O80 Cd72 2.223 . S
O80 C79 1.315 . S
O81 Cd71 2.240 . S
O81 C79 1.279 . S
O82 Cd72 2.297 . S
O82 C77 1.247 . S
O83 Cd72 2.439 . S
O83 C77 1.208 . S
O84 Cd85 2.223 . S
O84 C92 1.315 . S
Cd85 O84 2.223 . S
Cd85 O88 2.297 . S
Cd85 O89 2.439 . S
Cd85 O95 2.240 . S
Cd86 O87 2.240 1_565 S
Cd86 O94 2.223 . S
Cd86 O96 2.297 . S
Cd86 O97 2.439 1_565 S
O87 Cd86 2.240 1_545 S
O87 C92 1.279 . S
O88 Cd85 2.297 . S
O88 C90 1.247 . S
O89 Cd85 2.439 . S
O89 C90 1.208 . S
C90 O88 1.247 . S
C90 O89 1.208 . S
C91 O96 1.247 . S
C91 O97 1.208 1_565 S
C92 O84 1.315 . S
C92 O87 1.279 . S
C93 O94 1.315 . S
C93 O95 1.279 1_565 S
O94 Cd86 2.223 . S
O94 C93 1.315 . S
O95 Cd85 2.240 . S
O95 C93 1.279 1_545 S
O96 Cd86 2.297 . S
O96 C91 1.247 . S
O97 Cd86 2.439 1_545 S
O97 C91 1.208 1_545 S
O98 Cd99 2.223 . S
O98 C106 1.315 . S
Cd99 O98 2.223 . S
Cd99 O102 2.297 . S
Cd99 O103 2.439 . S
Cd99 O109 2.240 . S
Cd100 O101 2.240 . S
Cd100 O108 2.223 . S
Cd100 O110 2.297 . S
Cd100 O111 2.439 . S
O101 Cd100 2.240 . S
O101 C106 1.279 . S
O102 Cd99 2.297 . S
O102 C104 1.247 . S
O103 Cd99 2.439 . S
O103 C104 1.208 . S
C104 O102 1.247 . S
C104 O103 1.208 . S
C105 O110 1.247 . S
C105 O111 1.208 . S
C106 O98 1.315 . S
C106 O101 1.279 . S
C107 O108 1.315 . S
C107 O109 1.279 . S
O108 Cd100 2.223 . S
O108 C107 1.315 . S
O109 Cd99 2.240 . S
O109 C107 1.279 . S
O110 Cd100 2.297 . S
O110 C105 1.247 . S
O111 Cd100 2.439 . S
O111 C105 1.208 . S
O112 Cd113 2.223 . S
O112 C120 1.315 . S
Cd113 O112 2.223 . S
Cd113 O116 2.297 . S
Cd113 O117 2.439 . S
Cd113 O123 2.240 . S
Cd114 O115 2.240 . S
Cd114 O122 2.223 . S
Cd114 O124 2.297 . S
Cd114 O125 2.439 . S
O115 Cd114 2.240 . S
O115 C120 1.279 . S
O116 Cd113 2.297 . S
O116 C118 1.247 . S
O117 Cd113 2.439 . S
O117 C118 1.208 . S
C118 O116 1.247 . S
C118 O117 1.208 . S
C119 O124 1.247 . S
C119 O125 1.208 . S
C120 O112 1.315 . S
C120 O115 1.279 . S
C121 O122 1.315 . S
C121 O123 1.279 . S
O122 Cd114 2.223 . S
O122 C121 1.315 . S
O123 Cd113 2.240 . S
O123 C121 1.279 . S
O124 Cd114 2.297 . S
O124 C119 1.247 . S
O125 Cd114 2.439 . S
O125 C119 1.208 . S
O126 Cd127 2.223 . S
O126 C134 1.315 . S
Cd127 O126 2.223 . S
Cd127 O130 2.297 . S
Cd127 O131 2.439 . S
Cd127 O137 2.240 . S
Cd128 O129 2.240 . S
Cd128 O136 2.223 . S
Cd128 O138 2.297 . S
Cd128 O139 2.439 . S
O129 Cd128 2.240 . S
O129 C134 1.279 . S
O130 Cd127 2.297 . S
O130 C132 1.247 . S
O131 Cd127 2.439 . S
O131 C132 1.208 . S
C132 O130 1.247 . S
C132 O131 1.208 . S
C133 O138 1.247 . S
C133 O139 1.208 . S
C134 O126 1.315 . S
C134 O129 1.279 . S
C135 O136 1.315 . S
C135 O137 1.279 . S
O136 Cd128 2.223 . S
O136 C135 1.315 . S
O137 Cd127 2.240 . S
O137 C135 1.279 . S
O138 Cd128 2.297 . S
O138 C133 1.247 . S
O139 Cd128 2.439 . S
O139 C133 1.208 . S
O140 Cd141 2.223 . S
O140 C148 1.315 . S
Cd141 O140 2.223 . S
Cd141 O144 2.297 . S
Cd141 O145 2.439 . S
Cd141 O151 2.240 . S
Cd142 O143 2.240 . S
Cd142 O150 2.223 . S
Cd142 O152 2.297 . S
Cd142 O153 2.439 . S
O143 Cd142 2.240 . S
O143 C148 1.279 . S
O144 Cd141 2.297 . S
O144 C146 1.247 . S
O145 Cd141 2.439 . S
O145 C146 1.208 . S
C146 O144 1.247 . S
C146 O145 1.208 . S
C147 O152 1.247 . S
C147 O153 1.208 . S
C148 O140 1.315 . S
C148 O143 1.279 . S
C149 O150 1.315 . S
C149 O151 1.279 . S
O150 Cd142 2.223 . S
O150 C149 1.315 . S
O151 Cd141 2.240 . S
O151 C149 1.279 . S
O152 Cd142 2.297 . S
O152 C147 1.247 . S
O153 Cd142 2.439 . S
O153 C147 1.208 . S
O154 Cd155 2.223 . S
O154 C162 1.315 . S
Cd155 O154 2.223 . S
Cd155 O158 2.297 . S
Cd155 O159 2.439 . S
Cd155 O165 2.240 . S
Cd156 O157 2.240 . S
Cd156 O164 2.223 . S
Cd156 O166 2.297 . S
Cd156 O167 2.439 . S
O157 Cd156 2.240 . S
O157 C162 1.279 . S
O158 Cd155 2.297 . S
O158 C160 1.247 . S
O159 Cd155 2.439 . S
O159 C160 1.208 . S
C160 O158 1.247 . S
C160 O159 1.208 . S
C161 O166 1.247 . S
C161 O167 1.208 . S
C162 O154 1.315 . S
C162 O157 1.279 . S
C163 O164 1.315 . S
C163 O165 1.279 . S
O164 Cd156 2.223 . S
O164 C163 1.315 . S
O165 Cd155 2.240 . S
O165 C163 1.279 . S
O166 Cd156 2.297 . S
O166 C161 1.247 . S
O167 Cd156 2.439 . S
O167 C161 1.208 . S
O168 Cd169 2.223 . S
O168 C176 1.315 . S
Cd169 O168 2.223 . S
Cd169 O172 2.297 . S
Cd169 O173 2.439 . S
Cd169 O179 2.240 . S
Cd170 O171 2.240 . S
Cd170 O178 2.223 . S
Cd170 O180 2.297 . S
Cd170 O181 2.439 . S
O171 Cd170 2.240 . S
O171 C176 1.279 . S
O172 Cd169 2.297 . S
O172 C174 1.247 . S
O173 Cd169 2.439 . S
O173 C174 1.208 . S
C174 O172 1.247 . S
C174 O173 1.208 . S
C175 O180 1.247 . S
C175 O181 1.208 . S
C176 O168 1.315 . S
C176 O171 1.279 . S
C177 O178 1.315 . S
C177 O179 1.279 . S
O178 Cd170 2.223 . S
O178 C177 1.315 . S
O179 Cd169 2.240 . S
O179 C177 1.279 . S
O180 Cd170 2.297 . S
O180 C175 1.247 . S
O181 Cd170 2.439 . S
O181 C175 1.208 . S
O182 Cd183 2.223 . S
O182 C190 1.315 . S
Cd183 O182 2.223 . S
Cd183 O186 2.297 . S
Cd183 O187 2.439 . S
Cd183 O193 2.240 . S
Cd184 O185 2.240 . S
Cd184 O192 2.223 . S
Cd184 O194 2.297 . S
Cd184 O195 2.439 . S
O185 Cd184 2.240 . S
O185 C190 1.279 . S
O186 Cd183 2.297 . S
O186 C188 1.247 . S
O187 Cd183 2.439 . S
O187 C188 1.208 . S
C188 O186 1.247 . S
C188 O187 1.208 . S
C189 O194 1.247 . S
C189 O195 1.208 . S
C190 O182 1.315 . S
C190 O185 1.279 . S
C191 O192 1.315 . S
C191 O193 1.279 . S
O192 Cd184 2.223 . S
O192 C191 1.315 . S
O193 Cd183 2.240 . S
O193 C191 1.279 . S
O194 Cd184 2.297 . S
O194 C189 1.247 . S
O195 Cd184 2.439 . S
O195 C189 1.208 . S
O196 Cd197 2.223 . S
O196 C204 1.315 . S
Cd197 O196 2.223 . S
Cd197 O200 2.297 . S
Cd197 O201 2.439 . S
Cd197 O207 2.240 . S
Cd198 O199 2.240 . S
Cd198 O206 2.223 . S
Cd198 O208 2.297 . S
Cd198 O209 2.439 . S
O199 Cd198 2.240 . S
O199 C204 1.279 . S
O200 Cd197 2.297 . S
O200 C202 1.247 . S
O201 Cd197 2.439 . S
O201 C202 1.208 . S
C202 O200 1.247 . S
C202 O201 1.208 . S
C203 O208 1.247 . S
C203 O209 1.208 . S
C204 O196 1.315 . S
C204 O199 1.279 . S
C205 O206 1.315 . S
C205 O207 1.279 . S
O206 Cd198 2.223 . S
O206 C205 1.315 . S
O207 Cd197 2.240 . S
O207 C205 1.279 . S
O208 Cd198 2.297 . S
O208 C203 1.247 . S
O209 Cd198 2.439 . S
O209 C203 1.208 . S
O210 Cd211 2.223 . S
O210 C218 1.315 . S
Cd211 O210 2.223 . S
Cd211 O214 2.297 . S
Cd211 O215 2.439 . S
Cd211 O221 2.240 . S
Cd212 O213 2.240 . S
Cd212 O220 2.223 . S
Cd212 O222 2.297 . S
Cd212 O223 2.439 . S
O213 Cd212 2.240 . S
O213 C218 1.279 . S
O214 Cd211 2.297 . S
O214 C216 1.247 . S
O215 Cd211 2.439 . S
O215 C216 1.208 . S
C216 O214 1.247 . S
C216 O215 1.208 . S
C217 O222 1.247 . S
C217 O223 1.208 . S
C218 O210 1.315 . S
C218 O213 1.279 . S
C219 O220 1.315 . S
C219 O221 1.279 . S
O220 Cd212 2.223 . S
O220 C219 1.315 . S
O221 Cd211 2.240 . S
O221 C219 1.279 . S
O222 Cd212 2.297 . S
O222 C217 1.247 . S
O223 Cd212 2.439 . S
O223 C217 1.208 . S
C224 C225 1.391 . S
C224 C226 1.394 . S
C224 H240 0.931 . S
C225 C224 1.391 . S
C225 C229 1.376 . S
C226 C224 1.394 . S
C226 C227 1.369 . S
C226 C230 1.531 . S
C227 C226 1.369 . S
C227 C228 1.410 . S
C227 C235 1.503 . S
C228 C227 1.410 . S
C228 C229 1.392 . S
C228 C231 1.511 1_455 S
C229 C225 1.376 . S
C229 C228 1.392 . S
C229 H241 0.929 . S
C230 C226 1.531 . S
C230 H242 0.960 . S
C230 H243 0.962 . S
C230 H244 0.960 . S
C231 C228 1.511 1_655 S
C231 H245 0.961 . S
C231 H246 0.961 . S
C231 H247 0.961 . S
C232 C233 1.370 . S
C232 C234 1.363 . S
C232 H248 0.931 . S
C233 C232 1.370 . S
C233 C237 1.408 . S
C234 C232 1.363 . S
C234 C235 1.370 . S
C234 C238 1.524 . S
C235 C227 1.503 . S
C235 C234 1.370 . S
C235 C236 1.403 . S
C236 C235 1.403 . S
C236 C237 1.404 . S
C236 C239 1.539 . S
C237 C233 1.408 . S
C237 C236 1.404 . S
C237 H249 0.930 . S
C238 C234 1.524 . S
C238 H250 0.956 . S
C238 H251 0.961 . S
C238 H252 0.961 . S
C239 C236 1.539 . S
C239 H253 0.958 . S
C239 H254 0.961 . S
C239 H255 0.960 . S
H240 C224 0.931 . S
H241 C229 0.929 . S
H242 C230 0.960 . S
H243 C230 0.962 . S
H244 C230 0.960 . S
H245 C231 0.961 . S
H246 C231 0.961 . S
H247 C231 0.961 . S
H248 C232 0.931 . S
H249 C237 0.930 . S
H250 C238 0.956 . S
H251 C238 0.961 . S
H252 C238 0.961 . S
H253 C239 0.958 . S
H254 C239 0.961 . S
H255 C239 0.960 . S
C256 C257 1.391 . S
C256 C258 1.394 1_655 S
C256 H272 0.931 . S
C257 C256 1.391 . S
C257 C261 1.376 . S
C258 C256 1.394 1_455 S
C258 C259 1.369 . S
C258 C262 1.531 . S
C259 C258 1.369 . S
C259 C260 1.410 . S
C259 C267 1.503 . S
C260 C259 1.410 . S
C260 C261 1.392 1_455 S
C260 C263 1.511 . S
C261 C257 1.376 . S
C261 C260 1.392 1_655 S
C261 H273 0.929 . S
C262 C258 1.531 . S
C262 H274 0.960 . S
C262 H275 0.962 . S
C262 H276 0.960 . S
C263 C260 1.511 . S
C263 H277 0.961 . S
C263 H278 0.961 . S
C263 H279 0.961 . S
C264 C265 1.370 . S
C264 C266 1.363 . S
C264 H280 0.931 . S
C265 C264 1.370 . S
C265 C269 1.408 . S
C266 C264 1.363 . S
C266 C267 1.370 . S
C266 C270 1.524 . S
C267 C259 1.503 . S
C267 C266 1.370 . S
C267 C268 1.403 . S
C268 C267 1.403 . S
C268 C269 1.404 . S
C268 C271 1.539 . S
C269 C265 1.408 . S
C269 C268 1.404 . S
C269 H281 0.930 . S
C270 C266 1.524 . S
C270 H282 0.956 . S
C270 H283 0.961 . S
C270 H284 0.961 . S
C271 C268 1.539 . S
C271 H285 0.958 . S
C271 H286 0.961 . S
C271 H287 0.960 . S
H272 C256 0.931 . S
H273 C261 0.929 . S
H274 C262 0.960 . S
H275 C262 0.962 . S
H276 C262 0.960 . S
H277 C263 0.961 . S
H278 C263 0.961 . S
H279 C263 0.961 . S
H280 C264 0.931 . S
H281 C269 0.930 . S
H282 C270 0.956 . S
H283 C270 0.961 . S
H284 C270 0.961 . S
H285 C271 0.958 . S
H286 C271 0.961 . S
H287 C271 0.960 . S
C288 C289 1.391 . S
C288 C290 1.394 . S
C288 H304 0.931 . S
C289 C288 1.391 . S
C289 C293 1.376 . S
C290 C288 1.394 . S
C290 C291 1.369 . S
C290 C294 1.531 . S
C291 C290 1.369 . S
C291 C292 1.410 . S
C291 C299 1.503 . S
C292 C291 1.410 . S
C292 C293 1.392 . S
C292 C295 1.511 . S
C293 C289 1.376 . S
C293 C292 1.392 . S
C293 H305 0.929 . S
C294 C290 1.531 . S
C294 H306 0.960 . S
C294 H307 0.962 . S
C294 H308 0.960 . S
C295 C292 1.511 . S
C295 H309 0.961 . S
C295 H310 0.961 . S
C295 H311 0.961 . S
C296 C297 1.370 . S
C296 C298 1.363 . S
C296 H312 0.931 . S
C297 C296 1.370 . S
C297 C301 1.408 . S
C298 C296 1.363 . S
C298 C299 1.370 . S
C298 C302 1.524 . S
C299 C291 1.503 . S
C299 C298 1.370 . S
C299 C300 1.403 . S
C300 C299 1.403 . S
C300 C301 1.404 . S
C300 C303 1.539 . S
C301 C297 1.408 . S
C301 C300 1.404 . S
C301 H313 0.930 . S
C302 C298 1.524 . S
C302 H314 0.956 . S
C302 H315 0.961 . S
C302 H316 0.961 . S
C303 C300 1.539 . S
C303 H317 0.958 . S
C303 H318 0.961 . S
C303 H319 0.960 . S
H304 C288 0.931 . S
H305 C293 0.929 . S
H306 C294 0.960 . S
H307 C294 0.962 . S
H308 C294 0.960 . S
H309 C295 0.961 . S
H310 C295 0.961 . S
H311 C295 0.961 . S
H312 C296 0.931 . S
H313 C301 0.930 . S
H314 C302 0.956 . S
H315 C302 0.961 . S
H316 C302 0.961 . S
H317 C303 0.958 . S
H318 C303 0.961 . S
H319 C303 0.960 . S
C320 C321 1.391 . S
C320 C322 1.394 . S
C320 H336 0.931 . S
C321 C320 1.391 . S
C321 C325 1.376 . S
C322 C320 1.394 . S
C322 C323 1.369 . S
C322 C326 1.531 . S
C323 C322 1.369 . S
C323 C324 1.410 . S
C323 C331 1.503 . S
C324 C323 1.410 . S
C324 C325 1.392 . S
C324 C327 1.511 . S
C325 C321 1.376 . S
C325 C324 1.392 . S
C325 H337 0.929 . S
C326 C322 1.531 . S
C326 H338 0.960 . S
C326 H339 0.962 . S
C326 H340 0.960 . S
C327 C324 1.511 . S
C327 H341 0.961 . S
C327 H342 0.961 . S
C327 H343 0.961 . S
C328 C329 1.370 . S
C328 C330 1.363 . S
C328 H344 0.931 . S
C329 C328 1.370 . S
C329 C333 1.408 . S
C330 C328 1.363 . S
C330 C331 1.370 . S
C330 C334 1.524 . S
C331 C323 1.503 . S
C331 C330 1.370 . S
C331 C332 1.403 . S
C332 C331 1.403 . S
C332 C333 1.404 . S
C332 C335 1.539 . S
C333 C329 1.408 . S
C333 C332 1.404 . S
C333 H345 0.930 . S
C334 C330 1.524 . S
C334 H346 0.956 . S
C334 H347 0.961 . S
C334 H348 0.961 . S
C335 C332 1.539 . S
C335 H349 0.958 . S
C335 H350 0.961 . S
C335 H351 0.960 . S
H336 C320 0.931 . S
H337 C325 0.929 . S
H338 C326 0.960 . S
H339 C326 0.962 . S
H340 C326 0.960 . S
H341 C327 0.961 . S
H342 C327 0.961 . S
H343 C327 0.961 . S
H344 C328 0.931 . S
H345 C333 0.930 . S
H346 C334 0.956 . S
H347 C334 0.961 . S
H348 C334 0.961 . S
H349 C335 0.958 . S
H350 C335 0.961 . S
H351 C335 0.960 . S
C352 C353 1.391 . S
C352 C354 1.394 . S
C352 H368 0.903 1_455 S
C353 C352 1.391 . S
C353 C357 1.376 . S
C354 C352 1.394 . S
C354 C355 1.369 . S
C354 C358 1.531 1_455 S
C355 C354 1.369 . S
C355 C356 1.410 . S
C355 C363 1.503 . S
C356 C355 1.410 . S
C356 C357 1.392 . S
C356 C359 1.511 . S
C357 C353 1.376 . S
C357 C356 1.392 . S
C357 H369 0.929 . S
C358 C354 1.531 1_655 S
C358 H370 0.960 . S
C358 H371 0.962 . S
C358 H372 0.960 . S
C359 C356 1.511 . S
C359 H373 0.961 . S
C359 H374 0.961 . S
C359 H375 0.961 . S
C360 C361 1.370 . S
C360 C362 1.363 . S
C360 H376 0.931 . S
C361 C360 1.370 . S
C361 C365 1.408 . S
C362 C360 1.363 . S
C362 C363 1.370 . S
C362 C366 1.524 . S
C363 C355 1.503 . S
C363 C362 1.370 . S
C363 C364 1.403 . S
C364 C363 1.403 . S
C364 C365 1.404 . S
C364 C367 1.539 . S
C365 C361 1.408 . S
C365 C364 1.404 . S
C365 H377 0.930 . S
C366 C362 1.524 . S
C366 H378 0.956 . S
C366 H379 0.961 . S
C366 H380 0.961 . S
C367 C364 1.539 . S
C367 H381 0.958 . S
C367 H382 0.961 . S
C367 H383 0.960 . S
H368 C352 0.903 1_655 S
H369 C357 0.929 . S
H370 C358 0.960 . S
H371 C358 0.962 . S
H372 C358 0.960 . S
H373 C359 0.961 . S
H374 C359 0.961 . S
H375 C359 0.961 . S
H376 C360 0.931 . S
H377 C365 0.930 . S
H378 C366 0.956 . S
H379 C366 0.961 . S
H380 C366 0.961 . S
H381 C367 0.958 . S
H382 C367 0.961 . S
H383 C367 0.960 . S
C384 C385 1.391 . S
C384 C386 1.394 . S
C384 H400 0.931 . S
C385 C384 1.391 . S
C385 C389 1.376 . S
C386 C384 1.394 . S
C386 C387 1.369 . S
C386 C390 1.531 . S
C387 C386 1.369 . S
C387 C388 1.410 . S
C387 C395 1.503 . S
C388 C387 1.410 . S
C388 C389 1.392 . S
C388 C391 1.511 . S
C389 C385 1.376 . S
C389 C388 1.392 . S
C389 H401 0.929 . S
C390 C386 1.531 . S
C390 H402 0.960 . S
C390 H403 0.962 . S
C390 H404 0.960 . S
C391 C388 1.511 . S
C391 H405 0.961 . S
C391 H406 0.961 . S
C391 H407 0.961 . S
C392 C393 1.370 . S
C392 C394 1.363 . S
C392 H408 0.931 . S
C393 C392 1.370 . S
C393 C397 1.408 . S
C394 C392 1.363 . S
C394 C395 1.370 . S
C394 C398 1.524 . S
C395 C387 1.503 . S
C395 C394 1.370 . S
C395 C396 1.403 . S
C396 C395 1.403 . S
C396 C397 1.404 . S
C396 C399 1.539 . S
C397 C393 1.408 . S
C397 C396 1.404 . S
C397 H409 0.930 . S
C398 C394 1.524 . S
C398 H410 0.956 . S
C398 H411 0.961 . S
C398 H412 0.961 . S
C399 C396 1.539 . S
C399 H413 0.958 . S
C399 H414 0.961 . S
C399 H415 0.960 . S
H400 C384 0.931 . S
H401 C389 0.929 . S
H402 C390 0.960 . S
H403 C390 0.962 . S
H404 C390 0.960 . S
H405 C391 0.961 . S
H406 C391 0.961 . S
H407 C391 0.961 . S
H408 C392 0.931 . S
H409 C397 0.930 . S
H410 C398 0.956 . S
H411 C398 0.961 . S
H412 C398 0.961 . S
H413 C399 0.958 . S
H414 C399 0.961 . S
H415 C399 0.960 . S
C416 C417 1.391 . S
C416 C418 1.394 . S
C416 H432 0.931 . S
C417 C416 1.391 . S
C417 C421 1.376 . S
C418 C416 1.394 . S
C418 C419 1.369 . S
C418 C422 1.531 . S
C419 C418 1.369 . S
C419 C420 1.410 . S
C419 C427 1.503 . S
C420 C419 1.410 . S
C420 C421 1.392 . S
C420 C423 1.511 . S
C421 C417 1.376 . S
C421 C420 1.392 . S
C421 H433 0.929 . S
C422 C418 1.531 . S
C422 H434 0.960 . S
C422 H435 0.962 . S
C422 H436 0.960 . S
C423 C420 1.511 . S
C423 H437 0.961 . S
C423 H438 0.961 . S
C423 H439 0.961 . S
C424 C425 1.370 . S
C424 C426 1.363 . S
C424 H440 0.931 . S
C425 C424 1.370 . S
C425 C429 1.408 . S
C426 C424 1.363 . S
C426 C427 1.370 . S
C426 C430 1.524 . S
C427 C419 1.503 . S
C427 C426 1.370 . S
C427 C428 1.403 . S
C428 C427 1.403 . S
C428 C429 1.404 . S
C428 C431 1.539 . S
C429 C425 1.408 . S
C429 C428 1.404 . S
C429 H441 0.930 . S
C430 C426 1.524 . S
C430 H442 0.956 . S
C430 H443 0.961 . S
C430 H444 0.961 . S
C431 C428 1.539 . S
C431 H445 0.958 . S
C431 H446 0.961 . S
C431 H447 0.960 . S
H432 C416 0.931 . S
H433 C421 0.929 . S
H434 C422 0.960 . S
H435 C422 0.962 . S
H436 C422 0.960 . S
H437 C423 0.961 . S
H438 C423 0.961 . S
H439 C423 0.961 . S
H440 C424 0.931 . S
H441 C429 0.930 . S
H442 C430 0.956 . S
H443 C430 0.961 . S
H444 C430 0.961 . S
H445 C431 0.958 . S
H446 C431 0.961 . S
H447 C431 0.960 . S
C448 C449 1.391 . S
C448 C450 1.394 . S
C448 H464 0.931 . S
C449 C448 1.391 . S
C449 C453 1.376 . S
C450 C448 1.394 . S
C450 C451 1.369 . S
C450 C454 1.531 . S
C451 C450 1.369 . S
C451 C452 1.410 . S
C451 C459 1.503 . S
C452 C451 1.410 . S
C452 C453 1.392 . S
C452 C455 1.511 . S
C453 C449 1.376 . S
C453 C452 1.392 . S
C453 H465 0.929 . S
C454 C450 1.531 . S
C454 H466 0.960 . S
C454 H467 0.962 . S
C454 H468 0.960 . S
C455 C452 1.511 . S
C455 H469 0.961 . S
C455 H470 0.961 . S
C455 H471 0.961 . S
C456 C457 1.370 . S
C456 C458 1.363 1_655 S
C456 H472 0.931 . S
C457 C456 1.370 . S
C457 C461 1.408 . S
C458 C456 1.363 1_455 S
C458 C459 1.370 . S
C458 C462 1.524 . S
C459 C451 1.503 . S
C459 C458 1.370 . S
C459 C460 1.403 . S
C460 C459 1.403 . S
C460 C461 1.404 1_455 S
C460 C463 1.539 . S
C461 C457 1.408 . S
C461 C460 1.404 1_655 S
C461 H473 0.930 . S
C462 C458 1.524 . S
C462 H474 0.956 . S
C462 H475 0.961 . S
C462 H476 0.961 . S
C463 C460 1.539 . S
C463 H477 0.958 . S
C463 H478 0.961 . S
C463 H479 0.960 . S
H464 C448 0.931 . S
H465 C453 0.929 . S
H466 C454 0.960 . S
H467 C454 0.962 . S
H468 C454 0.960 . S
H469 C455 0.961 . S
H470 C455 0.961 . S
H471 C455 0.961 . S
H472 C456 0.931 . S
H473 C461 0.930 . S
H474 C462 0.956 . S
H475 C462 0.961 . S
H476 C462 0.961 . S
H477 C463 0.958 . S
H478 C463 0.961 . S
H479 C463 0.960 . S
C480 C481 1.391 1_655 S
C480 C482 1.394 . S
C480 H496 0.931 . S
C481 C480 1.391 1_455 S
C481 C485 1.376 . S
C482 C480 1.394 . S
C482 C483 1.369 1_655 S
C482 C486 1.531 . S
C483 C482 1.369 1_455 S
C483 C484 1.410 . S
C483 C491 1.503 . S
C484 C483 1.410 . S
C484 C485 1.392 . S
C484 C487 1.511 1_565 S
C485 C481 1.376 . S
C485 C484 1.392 . S
C485 H497 0.929 . S
C486 C482 1.531 . S
C486 H498 0.960 . S
C486 H499 0.962 . S
C486 H500 0.960 . S
C487 C484 1.511 1_545 S
C487 H501 0.961 . S
C487 H502 0.962 . S
C487 H503 0.959 1_545 S
C488 C489 1.376 . S
C488 C490 1.364 . S
C488 H504 0.925 1_455 S
C489 C488 1.376 . S
C489 C493 1.408 1_545 S
C490 C488 1.364 . S
C490 C491 1.370 1_545 S
C490 C494 1.524 1_455 S
C491 C483 1.503 . S
C491 C490 1.370 1_565 S
C491 C492 1.403 . S
C492 C491 1.403 . S
C492 C493 1.404 . S
C492 C495 1.539 . S
C493 C489 1.408 1_565 S
C493 C492 1.404 . S
C493 H505 0.930 . S
C494 C490 1.524 1_655 S
C494 H506 0.956 . S
C494 H507 0.961 1_655 S
C494 H508 0.961 . S
C495 C492 1.539 . S
C495 H509 0.958 . S
C495 H510 0.961 . S
C495 H511 0.960 . S
H496 C480 0.931 . S
H497 C485 0.929 . S
H498 C486 0.960 . S
H499 C486 0.962 . S
H500 C486 0.960 . S
H501 C487 0.961 . S
H502 C487 0.962 . S
H503 C487 0.959 1_565 S
H504 C488 0.925 1_655 S
H505 C493 0.930 . S
H506 C494 0.956 . S
H507 C494 0.961 1_455 S
H508 C494 0.961 . S
H509 C495 0.958 . S
H510 C495 0.961 . S
H511 C495 0.960 . S
C512 C513 1.391 . S
C512 C514 1.394 . S
C512 H528 0.931 . S
C513 C512 1.391 . S
C513 C517 1.376 . S
C514 C512 1.394 . S
C514 C515 1.369 . S
C514 C518 1.531 . S
C515 C514 1.369 . S
C515 C516 1.410 . S
C515 C523 1.503 . S
C516 C515 1.410 . S
C516 C517 1.392 . S
C516 C519 1.511 . S
C517 C513 1.376 . S
C517 C516 1.392 . S
C517 H529 0.929 . S
C518 C514 1.531 . S
C518 H530 0.960 . S
C518 H531 0.962 . S
C518 H532 0.960 . S
C519 C516 1.511 . S
C519 H533 0.961 . S
C519 H534 0.961 . S
C519 H535 0.961 . S
C520 C521 1.370 . S
C520 C522 1.363 . S
C520 H536 0.931 . S
C521 C520 1.370 . S
C521 C525 1.408 . S
C522 C520 1.363 . S
C522 C523 1.370 . S
C522 C526 1.524 . S
C523 C515 1.503 . S
C523 C522 1.370 . S
C523 C524 1.403 . S
C524 C523 1.403 . S
C524 C525 1.404 . S
C524 C527 1.539 . S
C525 C521 1.408 . S
C525 C524 1.404 . S
C525 H537 0.930 . S
C526 C522 1.524 . S
C526 H538 0.956 . S
C526 H539 0.961 . S
C526 H540 0.961 . S
C527 C524 1.539 . S
C527 H541 0.958 . S
C527 H542 0.961 . S
C527 H543 0.960 . S
H528 C512 0.931 . S
H529 C517 0.929 . S
H530 C518 0.960 . S
H531 C518 0.962 . S
H532 C518 0.960 . S
H533 C519 0.961 . S
H534 C519 0.961 . S
H535 C519 0.961 . S
H536 C520 0.931 . S
H537 C525 0.930 . S
H538 C526 0.956 . S
H539 C526 0.961 . S
H540 C526 0.961 . S
H541 C527 0.958 . S
H542 C527 0.961 . S
H543 C527 0.960 . S
C544 C545 1.391 . S
C544 C546 1.394 . S
C544 H560 0.931 . S
C545 C544 1.391 . S
C545 C549 1.376 1_565 S
C546 C544 1.394 . S
C546 C547 1.369 . S
C546 C550 1.531 . S
C547 C546 1.369 . S
C547 C548 1.410 1_565 S
C547 C555 1.503 1_554 S
C548 C547 1.410 1_545 S
C548 C549 1.392 . S
C548 C551 1.511 . S
C549 C545 1.376 1_545 S
C549 C548 1.392 . S
C549 H561 0.929 . S
C550 C546 1.531 . S
C550 H562 0.960 1_554 S
C550 H563 0.962 . S
C550 H564 0.960 . S
C551 C548 1.511 . S
C551 H565 0.961 . S
C551 H566 0.961 . S
C551 H567 0.961 . S
C552 C553 1.370 . S
C552 C554 1.363 . S
C552 H568 0.931 . S
C553 C552 1.370 . S
C553 C557 1.408 1_545 S
C554 C552 1.363 . S
C554 C555 1.370 1_545 S
C554 C558 1.524 . S
C555 C547 1.503 1_556 S
C555 C554 1.370 1_565 S
C555 C556 1.403 . S
C556 C555 1.403 . S
C556 C557 1.404 . S
C556 C559 1.539 . S
C557 C553 1.408 1_565 S
C557 C556 1.404 . S
C557 H569 0.930 . S
C558 C554 1.524 . S
C558 H570 0.956 1_556 S
C558 H571 0.961 1_556 S
C558 H572 0.961 . S
C559 C556 1.539 . S
C559 H573 0.958 . S
C559 H574 0.961 . S
C559 H575 0.960 . S
H560 C544 0.931 . S
H561 C549 0.929 . S
H562 C550 0.960 1_556 S
H563 C550 0.962 . S
H564 C550 0.960 . S
H565 C551 0.961 . S
H566 C551 0.961 . S
H567 C551 0.961 . S
H568 C552 0.931 . S
H569 C557 0.930 . S
H570 C558 0.956 1_554 S
H571 C558 0.961 1_554 S
H572 C558 0.961 . S
H573 C559 0.958 . S
H574 C559 0.961 . S
H575 C559 0.960 . S
C576 C577 1.391 . S
C576 C578 1.394 . S
C576 H592 0.931 . S
C577 C576 1.391 . S
C577 C581 1.376 . S
C578 C576 1.394 . S
C578 C579 1.369 . S
C578 C582 1.531 . S
C579 C578 1.369 . S
C579 C580 1.410 . S
C579 C587 1.503 . S
C580 C579 1.410 . S
C580 C581 1.392 . S
C580 C583 1.511 . S
C581 C577 1.376 . S
C581 C580 1.392 . S
C581 H593 0.929 . S
C582 C578 1.531 . S
C582 H594 0.960 . S
C582 H595 0.962 . S
C582 H596 0.960 . S
C583 C580 1.511 . S
C583 H597 0.961 . S
C583 H598 0.961 . S
C583 H599 0.961 . S
C584 C585 1.370 . S
C584 C586 1.363 . S
C584 H600 0.931 . S
C585 C584 1.370 . S
C585 C589 1.408 . S
C586 C584 1.363 . S
C586 C587 1.370 . S
C586 C590 1.524 . S
C587 C579 1.503 . S
C587 C586 1.370 . S
C587 C588 1.403 . S
C588 C587 1.403 . S
C588 C589 1.404 . S
C588 C591 1.539 . S
C589 C585 1.408 . S
C589 C588 1.404 . S
C589 H601 0.930 . S
C590 C586 1.524 . S
C590 H602 0.956 . S
C590 H603 0.961 . S
C590 H604 0.961 . S
C591 C588 1.539 . S
C591 H605 0.958 . S
C591 H606 0.961 . S
C591 H607 0.960 . S
H592 C576 0.931 . S
H593 C581 0.929 . S
H594 C582 0.960 . S
H595 C582 0.962 . S
H596 C582 0.960 . S
H597 C583 0.961 . S
H598 C583 0.961 . S
H599 C583 0.961 . S
H600 C584 0.931 . S
H601 C589 0.930 . S
H602 C590 0.956 . S
H603 C590 0.961 . S
H604 C590 0.961 . S
H605 C591 0.958 . S
H606 C591 0.961 . S
H607 C591 0.960 . S
C608 C609 1.391 . S
C608 C610 1.394 . S
C608 H624 0.931 . S
C609 C608 1.391 . S
C609 C613 1.376 . S
C610 C608 1.394 . S
C610 C611 1.369 . S
C610 C614 1.531 . S
C611 C610 1.369 . S
C611 C612 1.410 . S
C611 C619 1.503 . S
C612 C611 1.410 . S
C612 C613 1.392 . S
C612 C615 1.511 . S
C613 C609 1.376 . S
C613 C612 1.392 . S
C613 H625 0.929 . S
C614 C610 1.531 . S
C614 H626 0.960 . S
C614 H627 0.962 . S
C614 H628 0.960 . S
C615 C612 1.511 . S
C615 H629 0.961 . S
C615 H630 0.961 . S
C615 H631 0.961 . S
C616 C617 1.370 . S
C616 C618 1.363 . S
C616 H632 0.931 . S
C617 C616 1.370 . S
C617 C621 1.408 . S
C618 C616 1.363 . S
C618 C619 1.370 . S
C618 C622 1.524 . S
C619 C611 1.503 . S
C619 C618 1.370 . S
C619 C620 1.403 . S
C620 C619 1.403 . S
C620 C621 1.404 . S
C620 C623 1.539 . S
C621 C617 1.408 . S
C621 C620 1.404 . S
C621 H633 0.930 . S
C622 C618 1.524 . S
C622 H634 0.956 . S
C622 H635 0.961 . S
C622 H636 0.961 . S
C623 C620 1.539 . S
C623 H637 0.958 . S
C623 H638 0.961 . S
C623 H639 0.960 . S
H624 C608 0.931 . S
H625 C613 0.929 . S
H626 C614 0.960 . S
H627 C614 0.962 . S
H628 C614 0.960 . S
H629 C615 0.961 . S
H630 C615 0.961 . S
H631 C615 0.961 . S
H632 C616 0.931 . S
H633 C621 0.930 . S
H634 C622 0.956 . S
H635 C622 0.961 . S
H636 C622 0.961 . S
H637 C623 0.958 . S
H638 C623 0.961 . S
H639 C623 0.960 . S
C640 C641 1.391 . S
C640 C642 1.394 . S
C640 H656 0.931 . S
C641 C640 1.391 . S
C641 C645 1.376 . S
C642 C640 1.394 . S
C642 C643 1.369 . S
C642 C646 1.531 . S
C643 C642 1.369 . S
C643 C644 1.410 . S
C643 C651 1.503 . S
C644 C643 1.410 . S
C644 C645 1.392 . S
C644 C647 1.511 . S
C645 C641 1.376 . S
C645 C644 1.392 . S
C645 H657 0.929 . S
C646 C642 1.531 . S
C646 H658 0.960 . S
C646 H659 0.962 . S
C646 H660 0.960 . S
C647 C644 1.511 . S
C647 H661 0.961 . S
C647 H662 0.961 . S
C647 H663 0.961 . S
C648 C649 1.370 . S
C648 C650 1.363 . S
C648 H664 0.931 . S
C649 C648 1.370 . S
C649 C653 1.408 . S
C650 C648 1.363 . S
C650 C651 1.370 . S
C650 C654 1.524 . S
C651 C643 1.503 . S
C651 C650 1.370 . S
C651 C652 1.403 . S
C652 C651 1.403 . S
C652 C653 1.404 . S
C652 C655 1.539 . S
C653 C649 1.408 . S
C653 C652 1.404 . S
C653 H665 0.930 . S
C654 C650 1.524 . S
C654 H666 0.956 . S
C654 H667 0.961 . S
C654 H668 0.961 . S
C655 C652 1.539 . S
C655 H669 0.958 . S
C655 H670 0.961 . S
C655 H671 0.960 . S
H656 C640 0.931 . S
H657 C645 0.929 . S
H658 C646 0.960 . S
H659 C646 0.962 . S
H660 C646 0.960 . S
H661 C647 0.961 . S
H662 C647 0.961 . S
H663 C647 0.961 . S
H664 C648 0.931 . S
H665 C653 0.930 . S
H666 C654 0.956 . S
H667 C654 0.961 . S
H668 C654 0.961 . S
H669 C655 0.958 . S
H670 C655 0.961 . S
H671 C655 0.960 . S
C672 C673 1.391 . S
C672 C674 1.394 . S
C672 H688 0.931 . S
C673 C672 1.391 . S
C673 C677 1.376 . S
C674 C672 1.394 . S
C674 C675 1.369 . S
C674 C678 1.531 . S
C675 C674 1.369 . S
C675 C676 1.410 . S
C675 C683 1.503 1_556 S
C676 C675 1.410 . S
C676 C677 1.392 . S
C676 C679 1.511 . S
C677 C673 1.376 . S
C677 C676 1.392 . S
C677 H689 0.929 . S
C678 C674 1.531 . S
C678 H690 0.960 1_556 S
C678 H691 0.962 . S
C678 H692 0.960 . S
C679 C676 1.511 . S
C679 H693 0.961 . S
C679 H694 0.961 1_556 S
C679 H695 0.961 . S
C680 C681 1.370 . S
C680 C682 1.363 . S
C680 H696 0.931 . S
C681 C680 1.370 . S
C681 C685 1.408 . S
C682 C680 1.363 . S
C682 C683 1.370 . S
C682 C686 1.524 . S
C683 C675 1.503 1_554 S
C683 C682 1.370 . S
C683 C684 1.403 . S
C684 C683 1.403 . S
C684 C685 1.404 . S
C684 C687 1.539 . S
C685 C681 1.408 . S
C685 C684 1.404 . S
C685 H697 0.930 . S
C686 C682 1.524 . S
C686 H698 0.956 1_554 S
C686 H699 0.961 1_554 S
C686 H700 0.961 . S
C687 C684 1.539 . S
C687 H701 0.958 . S
C687 H702 0.961 . S
C687 H703 0.960 . S
H688 C672 0.931 . S
H689 C677 0.929 . S
H690 C678 0.960 1_554 S
H691 C678 0.962 . S
H692 C678 0.960 . S
H693 C679 0.961 . S
H694 C679 0.961 1_554 S
H695 C679 0.961 . S
H696 C680 0.931 . S
H697 C685 0.930 . S
H698 C686 0.956 1_556 S
H699 C686 0.961 1_556 S
H700 C686 0.961 . S
H701 C687 0.958 . S
H702 C687 0.961 . S
H703 C687 0.960 . S
C704 C705 1.391 . S
C704 C706 1.394 . S
C704 H720 0.931 . S
C705 C704 1.391 . S
C705 C709 1.376 . S
C706 C704 1.394 . S
C706 C707 1.369 . S
C706 C710 1.531 . S
C707 C706 1.369 . S
C707 C708 1.410 . S
C707 C715 1.503 . S
C708 C707 1.410 . S
C708 C709 1.392 . S
C708 C711 1.511 . S
C709 C705 1.376 . S
C709 C708 1.392 . S
C709 H721 0.929 . S
C710 C706 1.531 . S
C710 H722 0.960 . S
C710 H723 0.962 . S
C710 H724 0.960 . S
C711 C708 1.511 . S
C711 H725 0.961 . S
C711 H726 0.961 . S
C711 H727 0.961 . S
C712 C713 1.370 . S
C712 C714 1.363 . S
C712 H728 0.931 . S
C713 C712 1.370 . S
C713 C717 1.408 . S
C714 C712 1.363 . S
C714 C715 1.370 . S
C714 C718 1.524 . S
C715 C707 1.503 . S
C715 C714 1.370 . S
C715 C716 1.403 . S
C716 C715 1.403 . S
C716 C717 1.404 . S
C716 C719 1.539 . S
C717 C713 1.408 . S
C717 C716 1.404 . S
C717 H729 0.930 . S
C718 C714 1.524 . S
C718 H730 0.956 . S
C718 H731 0.961 . S
C718 H732 0.961 . S
C719 C716 1.539 . S
C719 H733 0.958 . S
C719 H734 0.961 . S
C719 H735 0.960 . S
H720 C704 0.931 . S
H721 C709 0.929 . S
H722 C710 0.960 . S
H723 C710 0.962 . S
H724 C710 0.960 . S
H725 C711 0.961 . S
H726 C711 0.961 . S
H727 C711 0.961 . S
H728 C712 0.931 . S
H729 C717 0.930 . S
H730 C718 0.956 . S
H731 C718 0.961 . S
H732 C718 0.961 . S
H733 C719 0.958 . S
H734 C719 0.961 . S
H735 C719 0.960 . S
C736 C737 1.391 . S
C736 C738 1.394 . S
C736 H752 0.931 . S
C737 C736 1.391 . S
C737 C741 1.376 . S
C738 C736 1.394 . S
C738 C739 1.369 . S
C738 C742 1.531 . S
C739 C738 1.369 . S
C739 C740 1.410 . S
C739 C747 1.503 . S
C740 C739 1.410 . S
C740 C741 1.392 . S
C740 C743 1.511 . S
C741 C737 1.376 . S
C741 C740 1.392 . S
C741 H753 0.929 . S
C742 C738 1.531 . S
C742 H754 0.960 . S
C742 H755 0.962 . S
C742 H756 0.960 . S
C743 C740 1.511 . S
C743 H757 0.961 . S
C743 H758 0.961 . S
C743 H759 0.961 . S
C744 C745 1.370 . S
C744 C746 1.363 . S
C744 H760 0.931 . S
C745 C744 1.370 . S
C745 C749 1.408 . S
C746 C744 1.363 . S
C746 C747 1.370 . S
C746 C750 1.524 . S
C747 C739 1.503 . S
C747 C746 1.370 . S
C747 C748 1.403 . S
C748 C747 1.403 . S
C748 C749 1.404 . S
C748 C751 1.539 . S
C749 C745 1.408 . S
C749 C748 1.404 . S
C749 H761 0.930 . S
C750 C746 1.524 . S
C750 H762 0.956 . S
C750 H763 0.961 . S
C750 H764 0.961 . S
C751 C748 1.539 . S
C751 H765 0.958 . S
C751 H766 0.961 . S
C751 H767 0.960 . S
H752 C736 0.931 . S
H753 C741 0.929 . S
H754 C742 0.960 . S
H755 C742 0.962 . S
H756 C742 0.960 . S
H757 C743 0.961 . S
H758 C743 0.961 . S
H759 C743 0.961 . S
H760 C744 0.931 . S
H761 C749 0.930 . S
H762 C750 0.956 . S
H763 C750 0.961 . S
H764 C750 0.961 . S
H765 C751 0.958 . S
H766 C751 0.961 . S
H767 C751 0.960 . S
C768 C769 1.391 . S
C768 C770 1.394 . S
C768 H784 0.931 . S
C769 C768 1.391 . S
C769 C773 1.376 . S
C770 C768 1.394 . S
C770 C771 1.369 . S
C770 C774 1.531 . S
C771 C770 1.369 . S
C771 C772 1.410 . S
C771 C779 1.503 . S
C772 C771 1.410 . S
C772 C773 1.392 . S
C772 C775 1.511 . S
C773 C769 1.376 . S
C773 C772 1.392 . S
C773 H785 0.929 . S
C774 C770 1.531 . S
C774 H786 0.960 . S
C774 H787 0.962 . S
C774 H788 0.960 . S
C775 C772 1.511 . S
C775 H789 0.961 . S
C775 H790 0.961 . S
C775 H791 0.961 . S
C776 C777 1.370 . S
C776 C778 1.363 . S
C776 H792 0.931 . S
C777 C776 1.370 . S
C777 C781 1.408 . S
C778 C776 1.363 . S
C778 C779 1.370 . S
C778 C782 1.524 . S
C779 C771 1.503 . S
C779 C778 1.370 . S
C779 C780 1.403 . S
C780 C779 1.403 . S
C780 C781 1.404 . S
C780 C783 1.539 . S
C781 C777 1.408 . S
C781 C780 1.404 . S
C781 H793 0.930 . S
C782 C778 1.524 . S
C782 H794 0.956 . S
C782 H795 0.961 . S
C782 H796 0.961 . S
C783 C780 1.539 . S
C783 H797 0.958 . S
C783 H798 0.961 . S
C783 H799 0.960 . S
H784 C768 0.931 . S
H785 C773 0.929 . S
H786 C774 0.960 . S
H787 C774 0.962 . S
H788 C774 0.960 . S
H789 C775 0.961 . S
H790 C775 0.961 . S
H791 C775 0.961 . S
H792 C776 0.931 . S
H793 C781 0.930 . S
H794 C782 0.956 . S
H795 C782 0.961 . S
H796 C782 0.961 . S
H797 C783 0.958 . S
H798 C783 0.961 . S
H799 C783 0.960 . S
C800 C801 1.391 . S
C800 C802 1.394 . S
C800 H816 0.931 . S
C801 C800 1.391 . S
C801 C805 1.376 . S
C802 C800 1.394 . S
C802 C803 1.369 . S
C802 C806 1.531 . S
C803 C802 1.369 . S
C803 C804 1.410 . S
C803 C811 1.503 . S
C804 C803 1.410 . S
C804 C805 1.392 . S
C804 C807 1.511 . S
C805 C801 1.376 . S
C805 C804 1.392 . S
C805 H817 0.929 . S
C806 C802 1.531 . S
C806 H818 0.960 . S
C806 H819 0.962 . S
C806 H820 0.960 . S
C807 C804 1.511 . S
C807 H821 0.961 . S
C807 H822 0.961 . S
C807 H823 0.961 . S
C808 C809 1.370 . S
C808 C810 1.363 . S
C808 H824 0.931 . S
C809 C808 1.370 . S
C809 C813 1.408 . S
C810 C808 1.363 . S
C810 C811 1.370 . S
C810 C814 1.524 . S
C811 C803 1.503 . S
C811 C810 1.370 . S
C811 C812 1.403 . S
C812 C811 1.403 . S
C812 C813 1.404 . S
C812 C815 1.539 . S
C813 C809 1.408 . S
C813 C812 1.404 . S
C813 H825 0.930 . S
C814 C810 1.524 . S
C814 H826 0.956 . S
C814 H827 0.961 . S
C814 H828 0.961 . S
C815 C812 1.539 . S
C815 H829 0.958 . S
C815 H830 0.961 . S
C815 H831 0.960 . S
H816 C800 0.931 . S
H817 C805 0.929 . S
H818 C806 0.960 . S
H819 C806 0.962 . S
H820 C806 0.960 . S
H821 C807 0.961 . S
H822 C807 0.961 . S
H823 C807 0.961 . S
H824 C808 0.931 . S
H825 C813 0.930 . S
H826 C814 0.956 . S
H827 C814 0.961 . S
H828 C814 0.961 . S
H829 C815 0.958 . S
H830 C815 0.961 . S
H831 C815 0.960 . S
C832 C833 1.391 . S
C832 C834 1.394 . S
C832 H848 0.931 . S
C833 C832 1.391 . S
C833 C837 1.376 . S
C834 C832 1.394 . S
C834 C835 1.369 . S
C834 C838 1.531 . S
C835 C834 1.369 . S
C835 C836 1.410 . S
C835 C843 1.503 . S
C836 C835 1.410 . S
C836 C837 1.392 . S
C836 C839 1.511 . S
C837 C833 1.376 . S
C837 C836 1.392 . S
C837 H849 0.929 . S
C838 C834 1.531 . S
C838 H850 0.960 . S
C838 H851 0.962 . S
C838 H852 0.960 . S
C839 C836 1.511 . S
C839 H853 0.961 . S
C839 H854 0.961 . S
C839 H855 0.961 . S
C840 C841 1.370 . S
C840 C842 1.363 . S
C840 H856 0.931 . S
C841 C840 1.370 . S
C841 C845 1.408 . S
C842 C840 1.363 . S
C842 C843 1.370 . S
C842 C846 1.524 . S
C843 C835 1.503 . S
C843 C842 1.370 . S
C843 C844 1.403 . S
C844 C843 1.403 . S
C844 C845 1.404 . S
C844 C847 1.539 . S
C845 C841 1.408 . S
C845 C844 1.404 . S
C845 H857 0.930 . S
C846 C842 1.524 . S
C846 H858 0.956 . S
C846 H859 0.961 . S
C846 H860 0.961 . S
C847 C844 1.539 . S
C847 H861 0.958 . S
C847 H862 0.961 . S
C847 H863 0.960 . S
H848 C832 0.931 . S
H849 C837 0.929 . S
H850 C838 0.960 . S
H851 C838 0.962 . S
H852 C838 0.960 . S
H853 C839 0.961 . S
H854 C839 0.961 . S
H855 C839 0.961 . S
H856 C840 0.931 . S
H857 C845 0.930 . S
H858 C846 0.956 . S
H859 C846 0.961 . S
H860 C846 0.961 . S
H861 C847 0.958 . S
H862 C847 0.961 . S
H863 C847 0.960 . S
C864 C865 1.391 . S
C864 C866 1.394 . S
C864 H880 0.931 . S
C865 C864 1.391 . S
C865 C869 1.376 . S
C866 C864 1.394 . S
C866 C867 1.369 . S
C866 C870 1.531 . S
C867 C866 1.369 . S
C867 C868 1.410 . S
C867 C875 1.503 . S
C868 C867 1.410 . S
C868 C869 1.392 . S
C868 C871 1.511 . S
C869 C865 1.376 . S
C869 C868 1.392 . S
C869 H881 0.956 . S
C870 C866 1.531 . S
C870 H882 0.960 . S
C870 H883 0.962 . S
C870 H884 0.960 . S
C871 C868 1.511 . S
C871 H885 0.961 . S
C871 H886 0.961 . S
C871 H887 0.961 . S
C872 C873 1.370 . S
C872 C874 1.363 . S
C872 H888 0.931 . S
C873 C872 1.370 . S
C873 C877 1.408 . S
C874 C872 1.363 . S
C874 C875 1.370 . S
C874 C878 1.524 . S
C875 C867 1.503 . S
C875 C874 1.370 . S
C875 C876 1.403 . S
C876 C875 1.403 . S
C876 C877 1.404 . S
C876 C879 1.539 . S
C877 C873 1.408 . S
C877 C876 1.404 . S
C877 H889 0.930 . S
C878 C874 1.524 . S
C878 H890 0.956 . S
C878 H891 0.961 . S
C878 H892 0.961 . S
C879 C876 1.539 . S
C879 H893 0.958 . S
C879 H894 0.961 . S
C879 H895 0.960 . S
H880 C864 0.931 . S
H881 C869 0.956 . S
H882 C870 0.960 . S
H883 C870 0.962 . S
H884 C870 0.960 . S
H885 C871 0.961 . S
H886 C871 0.961 . S
H887 C871 0.961 . S
H888 C872 0.931 . S
H889 C877 0.930 . S
H890 C878 0.956 . S
H891 C878 0.961 . S
H892 C878 0.961 . S
H893 C879 0.958 . S
H894 C879 0.961 . S
H895 C879 0.960 . S
C896 C897 1.391 . S
C896 C898 1.394 . S
C896 H912 0.931 . S
C897 C896 1.391 . S
C897 C901 1.376 . S
C898 C896 1.394 . S
C898 C899 1.369 . S
C898 C902 1.531 . S
C899 C898 1.369 . S
C899 C900 1.410 . S
C899 C907 1.503 . S
C900 C899 1.410 . S
C900 C901 1.392 . S
C900 C903 1.511 . S
C901 C897 1.376 . S
C901 C900 1.392 . S
C901 H913 0.929 . S
C902 C898 1.531 . S
C902 H914 0.960 . S
C902 H915 0.962 . S
C902 H916 0.960 . S
C903 C900 1.511 . S
C903 H917 0.961 . S
C903 H918 0.961 . S
C903 H919 0.961 . S
C904 C905 1.370 . S
C904 C906 1.363 . S
C904 H920 0.931 . S
C905 C904 1.370 . S
C905 C909 1.408 . S
C906 C904 1.363 . S
C906 C907 1.370 . S
C906 C910 1.524 . S
C907 C899 1.503 . S
C907 C906 1.370 . S
C907 C908 1.403 . S
C908 C907 1.403 . S
C908 C909 1.404 . S
C908 C911 1.539 . S
C909 C905 1.408 . S
C909 C908 1.404 . S
C909 H921 0.930 . S
C910 C906 1.524 . S
C910 H922 0.956 . S
C910 H923 0.961 . S
C910 H924 0.961 . S
C911 C908 1.539 . S
C911 H925 0.958 . S
C911 H926 0.961 . S
C911 H927 0.960 . S
H912 C896 0.931 . S
H913 C901 0.929 . S
H914 C902 0.960 . S
H915 C902 0.962 . S
H916 C902 0.960 . S
H917 C903 0.961 . S
H918 C903 0.961 . S
H919 C903 0.961 . S
H920 C904 0.931 . S
H921 C909 0.930 . S
H922 C910 0.956 . S
H923 C910 0.961 . S
H924 C910 0.961 . S
H925 C911 0.958 . S
H926 C911 0.961 . S
H927 C911 0.960 . S
C928 C929 1.391 . S
C928 C930 1.394 . S
C928 H944 0.931 . S
C929 C928 1.391 . S
C929 C933 1.376 . S
C930 C928 1.394 . S
C930 C931 1.369 . S
C930 C934 1.531 . S
C931 C930 1.369 . S
C931 C932 1.410 . S
C931 C939 1.503 . S
C932 C931 1.410 . S
C932 C933 1.392 . S
C932 C935 1.511 . S
C933 C929 1.376 . S
C933 C932 1.392 . S
C933 H945 0.929 . S
C934 C930 1.531 . S
C934 H946 0.960 . S
C934 H947 0.962 . S
C934 H948 0.960 . S
C935 C932 1.511 . S
C935 H949 0.961 . S
C935 H950 0.961 . S
C935 H951 0.961 . S
C936 C937 1.370 . S
C936 C938 1.363 . S
C936 H952 0.931 . S
C937 C936 1.370 . S
C937 C941 1.408 . S
C938 C936 1.363 . S
C938 C939 1.370 . S
C938 C942 1.524 . S
C939 C931 1.503 . S
C939 C938 1.370 . S
C939 C940 1.403 . S
C940 C939 1.403 . S
C940 C941 1.404 . S
C940 C943 1.539 . S
C941 C937 1.408 . S
C941 C940 1.404 . S
C941 H953 0.930 . S
C942 C938 1.524 . S
C942 H954 0.956 . S
C942 H955 0.961 . S
C942 H956 0.961 . S
C943 C940 1.539 . S
C943 H957 0.958 . S
C943 H958 0.961 . S
C943 H959 0.960 . S
H944 C928 0.931 . S
H945 C933 0.929 . S
H946 C934 0.960 . S
H947 C934 0.962 . S
H948 C934 0.960 . S
H949 C935 0.961 . S
H950 C935 0.961 . S
H951 C935 0.961 . S
H952 C936 0.931 . S
H953 C941 0.930 . S
H954 C942 0.956 . S
H955 C942 0.961 . S
H956 C942 0.961 . S
H957 C943 0.958 . S
H958 C943 0.961 . S
H959 C943 0.960 . S
C960 C961 1.391 . S
C960 C962 1.394 . S
C960 H976 0.931 . S
C961 C960 1.391 . S
C961 C965 1.376 . S
C962 C960 1.394 . S
C962 C963 1.369 . S
C962 C966 1.531 . S
C963 C962 1.369 . S
C963 C964 1.410 . S
C963 C971 1.503 . S
C964 C963 1.410 . S
C964 C965 1.392 . S
C964 C967 1.511 . S
C965 C961 1.376 . S
C965 C964 1.392 . S
C965 H977 0.929 . S
C966 C962 1.531 . S
C966 H978 0.960 . S
C966 H979 0.962 . S
C966 H980 0.960 . S
C967 C964 1.511 . S
C967 H981 0.961 . S
C967 H982 0.961 . S
C967 H983 0.961 . S
C968 C969 1.370 . S
C968 C970 1.363 . S
C968 H984 0.931 . S
C969 C968 1.370 . S
C969 C973 1.408 . S
C970 C968 1.363 . S
C970 C971 1.370 . S
C970 C974 1.524 . S
C971 C963 1.503 . S
C971 C970 1.370 . S
C971 C972 1.403 . S
C972 C971 1.403 . S
C972 C973 1.404 . S
C972 C975 1.539 . S
C973 C969 1.408 . S
C973 C972 1.404 . S
C973 H985 0.930 . S
C974 C970 1.524 . S
C974 H986 0.956 . S
C974 H987 0.961 . S
C974 H988 0.961 . S
C975 C972 1.539 . S
C975 H989 0.958 . S
C975 H990 0.961 . S
C975 H991 0.960 . S
H976 C960 0.931 . S
H977 C965 0.929 . S
H978 C966 0.960 . S
H979 C966 0.962 . S
H980 C966 0.960 . S
H981 C967 0.961 . S
H982 C967 0.961 . S
H983 C967 0.961 . S
H984 C968 0.931 . S
H985 C973 0.930 . S
H986 C974 0.956 . S
H987 C974 0.961 . S
H988 C974 0.961 . S
H989 C975 0.958 . S
H990 C975 0.961 . S
H991 C975 0.960 . S
C992 C993 1.391 . S
C992 C994 1.394 . S
C992 H1008 0.931 . S
C993 C992 1.391 . S
C993 C997 1.376 . S
C994 C992 1.394 . S
C994 C995 1.369 . S
C994 C998 1.531 . S
C995 C994 1.369 . S
C995 C996 1.410 . S
C995 C1003 1.503 . S
C996 C995 1.410 . S
C996 C997 1.392 . S
C996 C999 1.511 . S
C997 C993 1.376 . S
C997 C996 1.392 . S
C997 H1009 0.929 . S
C998 C994 1.531 . S
C998 H1010 0.960 . S
C998 H1011 0.962 . S
C998 H1012 0.960 . S
C999 C996 1.511 . S
C999 H1013 0.961 . S
C999 H1014 0.961 . S
C999 H1015 0.961 . S
C1000 C1001 1.370 . S
C1000 C1002 1.363 . S
C1000 H1016 0.931 . S
C1001 C1000 1.370 . S
C1001 C1005 1.408 . S
C1002 C1000 1.363 . S
C1002 C1003 1.370 . S
C1002 C1006 1.524 . S
C1003 C995 1.503 . S
C1003 C1002 1.370 . S
C1003 C1004 1.403 . S
C1004 C1003 1.403 . S
C1004 C1005 1.404 . S
C1004 C1007 1.539 . S
C1005 C1001 1.408 . S
C1005 C1004 1.404 . S
C1005 H1017 0.930 . S
C1006 C1002 1.524 . S
C1006 H1018 0.956 . S
C1006 H1019 0.961 . S
C1006 H1020 0.961 . S
C1007 C1004 1.539 . S
C1007 H1021 0.958 . S
C1007 H1022 0.961 . S
C1007 H1023 0.960 . S
H1008 C992 0.931 . S
H1009 C997 0.929 . S
H1010 C998 0.960 . S
H1011 C998 0.962 . S
H1012 C998 0.960 . S
H1013 C999 0.961 . S
H1014 C999 0.961 . S
H1015 C999 0.961 . S
H1016 C1000 0.931 . S
H1017 C1005 0.930 . S
H1018 C1006 0.956 . S
H1019 C1006 0.961 . S
H1020 C1006 0.961 . S
H1021 C1007 0.958 . S
H1022 C1007 0.961 . S
H1023 C1007 0.960 . S
C1024 C1025 1.391 . S
C1024 C1026 1.394 . S
C1024 H1040 0.931 . S
C1025 C1024 1.391 . S
C1025 C1029 1.376 . S
C1026 C1024 1.394 . S
C1026 C1027 1.369 . S
C1026 C1030 1.531 . S
C1027 C1026 1.369 . S
C1027 C1028 1.410 . S
C1027 C1035 1.503 . S
C1028 C1027 1.410 . S
C1028 C1029 1.392 . S
C1028 C1031 1.511 . S
C1029 C1025 1.376 . S
C1029 C1028 1.392 . S
C1029 H1041 0.929 . S
C1030 C1026 1.531 . S
C1030 H1042 0.960 . S
C1030 H1043 0.962 . S
C1030 H1044 0.960 . S
C1031 C1028 1.511 . S
C1031 H1045 0.961 . S
C1031 H1046 0.961 . S
C1031 H1047 0.961 . S
C1032 C1033 1.370 . S
C1032 C1034 1.363 . S
C1032 H1048 0.931 . S
C1033 C1032 1.370 . S
C1033 C1037 1.408 . S
C1034 C1032 1.363 . S
C1034 C1035 1.370 . S
C1034 C1038 1.524 . S
C1035 C1027 1.503 . S
C1035 C1034 1.370 . S
C1035 C1036 1.403 . S
C1036 C1035 1.403 . S
C1036 C1037 1.404 . S
C1036 C1039 1.539 . S
C1037 C1033 1.408 . S
C1037 C1036 1.404 . S
C1037 H1049 0.930 . S
C1038 C1034 1.524 . S
C1038 H1050 0.956 . S
C1038 H1051 0.961 . S
C1038 H1052 0.961 . S
C1039 C1036 1.539 . S
C1039 H1053 0.958 . S
C1039 H1054 0.961 . S
C1039 H1055 0.960 . S
H1040 C1024 0.931 . S
H1041 C1029 0.929 . S
H1042 C1030 0.960 . S
H1043 C1030 0.962 . S
H1044 C1030 0.960 . S
H1045 C1031 0.961 . S
H1046 C1031 0.961 . S
H1047 C1031 0.961 . S
H1048 C1032 0.931 . S
H1049 C1037 0.930 . S
H1050 C1038 0.956 . S
H1051 C1038 0.961 . S
H1052 C1038 0.961 . S
H1053 C1039 0.958 . S
H1054 C1039 0.961 . S
H1055 C1039 0.960 . S
C1056 C1057 1.391 . S
C1056 C1058 1.394 . S
C1056 H1072 0.931 . S
C1057 C1056 1.391 . S
C1057 C1061 1.381 . S
C1058 C1056 1.394 . S
C1058 C1059 1.369 . S
C1058 C1062 1.531 . S
C1059 C1058 1.369 . S
C1059 C1060 1.410 . S
C1059 C1067 1.503 . S
C1060 C1059 1.410 . S
C1060 C1061 1.405 . S
C1060 C1063 1.511 . S
C1061 C1057 1.381 . S
C1061 C1060 1.405 . S
C1061 H1073 0.911 1_655 S
C1062 C1058 1.531 . S
C1062 H1074 0.960 . S
C1062 H1075 0.962 . S
C1062 H1076 0.960 . S
C1063 C1060 1.511 . S
C1063 H1077 0.961 1_655 S
C1063 H1078 0.961 . S
C1063 H1079 0.961 . S
C1064 C1065 1.370 . S
C1064 C1066 1.363 . S
C1064 H1080 0.931 . S
C1065 C1064 1.370 . S
C1065 C1069 1.408 . S
C1066 C1064 1.363 . S
C1066 C1067 1.370 . S
C1066 C1070 1.524 . S
C1067 C1059 1.503 . S
C1067 C1066 1.370 . S
C1067 C1068 1.403 . S
C1068 C1067 1.403 . S
C1068 C1069 1.404 . S
C1068 C1071 1.539 . S
C1069 C1065 1.408 . S
C1069 C1068 1.404 . S
C1069 H1081 0.930 . S
C1070 C1066 1.524 . S
C1070 H1082 0.956 . S
C1070 H1083 0.961 . S
C1070 H1084 0.961 . S
C1071 C1068 1.539 . S
C1071 H1085 0.958 . S
C1071 H1086 0.961 . S
C1071 H1087 0.960 . S
H1072 C1056 0.931 . S
H1073 C1061 0.911 1_455 S
H1074 C1062 0.960 . S
H1075 C1062 0.962 . S
H1076 C1062 0.960 . S
H1077 C1063 0.961 1_455 S
H1078 C1063 0.961 . S
H1079 C1063 0.961 . S
H1080 C1064 0.931 . S
H1081 C1069 0.930 . S
H1082 C1070 0.956 . S
H1083 C1070 0.961 . S
H1084 C1070 0.961 . S
H1085 C1071 0.958 . S
H1086 C1071 0.961 . S
H1087 C1071 0.960 . S
C1088 C1089 1.391 . S
C1088 C1090 1.394 . S
C1088 H1104 0.931 . S
C1089 C1088 1.391 . S
C1089 C1093 1.376 . S
C1090 C1088 1.394 . S
C1090 C1091 1.369 . S
C1090 C1094 1.531 . S
C1091 C1090 1.369 . S
C1091 C1092 1.410 . S
C1091 C1099 1.503 . S
C1092 C1091 1.410 . S
C1092 C1093 1.392 . S
C1092 C1095 1.511 . S
C1093 C1089 1.376 . S
C1093 C1092 1.392 . S
C1093 H1105 0.929 . S
C1094 C1090 1.531 . S
C1094 H1106 0.960 . S
C1094 H1107 0.962 . S
C1094 H1108 0.960 . S
C1095 C1092 1.511 . S
C1095 H1109 0.961 . S
C1095 H1110 0.961 . S
C1095 H1111 0.961 . S
C1096 C1097 1.370 . S
C1096 C1098 1.363 . S
C1096 H1112 0.931 . S
C1097 C1096 1.370 . S
C1097 C1101 1.408 . S
C1098 C1096 1.363 . S
C1098 C1099 1.370 . S
C1098 C1102 1.524 . S
C1099 C1091 1.503 . S
C1099 C1098 1.370 . S
C1099 C1100 1.403 . S
C1100 C1099 1.403 . S
C1100 C1101 1.404 . S
C1100 C1103 1.539 . S
C1101 C1097 1.408 . S
C1101 C1100 1.404 . S
C1101 H1113 0.930 . S
C1102 C1098 1.524 . S
C1102 H1114 0.956 . S
C1102 H1115 0.961 . S
C1102 H1116 0.961 . S
C1103 C1100 1.539 . S
C1103 H1117 0.958 . S
C1103 H1118 0.961 . S
C1103 H1119 0.960 . S
H1104 C1088 0.931 . S
H1105 C1093 0.929 . S
H1106 C1094 0.960 . S
H1107 C1094 0.962 . S
H1108 C1094 0.960 . S
H1109 C1095 0.961 . S
H1110 C1095 0.961 . S
H1111 C1095 0.961 . S
H1112 C1096 0.931 . S
H1113 C1101 0.930 . S
H1114 C1102 0.956 . S
H1115 C1102 0.961 . S
H1116 C1102 0.961 . S
H1117 C1103 0.958 . S
H1118 C1103 0.961 . S
H1119 C1103 0.960 . S
C1120 C1121 1.391 . S
C1120 C1122 1.394 . S
C1120 H1136 0.931 . S
C1121 C1120 1.391 . S
C1121 C1125 1.376 . S
C1122 C1120 1.394 . S
C1122 C1123 1.369 . S
C1122 C1126 1.531 . S
C1123 C1122 1.369 . S
C1123 C1124 1.410 . S
C1123 C1131 1.503 . S
C1124 C1123 1.410 . S
C1124 C1125 1.392 . S
C1124 C1127 1.511 . S
C1125 C1121 1.376 . S
C1125 C1124 1.392 . S
C1125 H1137 0.929 . S
C1126 C1122 1.531 . S
C1126 H1138 0.960 . S
C1126 H1139 0.962 . S
C1126 H1140 0.960 . S
C1127 C1124 1.511 . S
C1127 H1141 0.961 . S
C1127 H1142 0.961 . S
C1127 H1143 0.961 . S
C1128 C1129 1.370 . S
C1128 C1130 1.363 . S
C1128 H1144 0.931 . S
C1129 C1128 1.370 . S
C1129 C1133 1.408 . S
C1130 C1128 1.363 . S
C1130 C1131 1.370 . S
C1130 C1134 1.524 . S
C1131 C1123 1.503 . S
C1131 C1130 1.370 . S
C1131 C1132 1.403 . S
C1132 C1131 1.403 . S
C1132 C1133 1.404 . S
C1132 C1135 1.539 . S
C1133 C1129 1.408 . S
C1133 C1132 1.404 . S
C1133 H1145 0.930 . S
C1134 C1130 1.524 . S
C1134 H1146 0.956 . S
C1134 H1147 0.961 . S
C1134 H1148 0.961 . S
C1135 C1132 1.539 . S
C1135 H1149 0.958 . S
C1135 H1150 0.961 . S
C1135 H1151 0.960 . S
H1136 C1120 0.931 . S
H1137 C1125 0.929 . S
H1138 C1126 0.960 . S
H1139 C1126 0.962 . S
H1140 C1126 0.960 . S
H1141 C1127 0.961 . S
H1142 C1127 0.961 . S
H1143 C1127 0.961 . S
H1144 C1128 0.931 . S
H1145 C1133 0.930 . S
H1146 C1134 0.956 . S
H1147 C1134 0.961 . S
H1148 C1134 0.961 . S
H1149 C1135 0.958 . S
H1150 C1135 0.961 . S
H1151 C1135 0.960 . S
C1152 C1153 1.391 . S
C1152 C1154 1.394 . S
C1152 H1168 0.931 . S
C1153 C1152 1.391 . S
C1153 C1157 1.376 . S
C1154 C1152 1.394 . S
C1154 C1155 1.369 . S
C1154 C1158 1.531 . S
C1155 C1154 1.369 . S
C1155 C1156 1.410 . S
C1155 C1163 1.503 . S
C1156 C1155 1.410 . S
C1156 C1157 1.392 . S
C1156 C1159 1.511 . S
C1157 C1153 1.376 . S
C1157 C1156 1.392 . S
C1157 H1169 0.929 . S
C1158 C1154 1.531 . S
C1158 H1170 0.960 . S
C1158 H1171 0.962 . S
C1158 H1172 0.960 . S
C1159 C1156 1.511 . S
C1159 H1173 0.961 . S
C1159 H1174 0.961 . S
C1159 H1175 0.961 . S
C1160 C1161 1.370 . S
C1160 C1162 1.363 . S
C1160 H1176 0.931 . S
C1161 C1160 1.370 . S
C1161 C1165 1.408 . S
C1162 C1160 1.363 . S
C1162 C1163 1.370 . S
C1162 C1166 1.524 . S
C1163 C1155 1.503 . S
C1163 C1162 1.370 . S
C1163 C1164 1.403 . S
C1164 C1163 1.403 . S
C1164 C1165 1.404 . S
C1164 C1167 1.539 . S
C1165 C1161 1.408 . S
C1165 C1164 1.404 . S
C1165 H1177 0.930 . S
C1166 C1162 1.524 . S
C1166 H1178 0.956 . S
C1166 H1179 0.961 . S
C1166 H1180 0.961 . S
C1167 C1164 1.539 . S
C1167 H1181 0.958 . S
C1167 H1182 0.961 . S
C1167 H1183 0.960 . S
H1168 C1152 0.931 . S
H1169 C1157 0.929 . S
H1170 C1158 0.960 . S
H1171 C1158 0.962 . S
H1172 C1158 0.960 . S
H1173 C1159 0.961 . S
H1174 C1159 0.961 . S
H1175 C1159 0.961 . S
H1176 C1160 0.931 . S
H1177 C1165 0.930 . S
H1178 C1166 0.956 . S
H1179 C1166 0.961 . S
H1180 C1166 0.961 . S
H1181 C1167 0.958 . S
H1182 C1167 0.961 . S
H1183 C1167 0.960 . S
C1184 C1185 1.391 . S
C1184 C1186 1.394 . S
C1184 H1200 0.931 . S
C1185 C1184 1.391 . S
C1185 C1189 1.376 . S
C1186 C1184 1.394 . S
C1186 C1187 1.369 . S
C1186 C1190 1.531 . S
C1187 C1186 1.369 . S
C1187 C1188 1.410 . S
C1187 C1195 1.503 . S
C1188 C1187 1.410 . S
C1188 C1189 1.392 . S
C1188 C1191 1.511 . S
C1189 C1185 1.376 . S
C1189 C1188 1.392 . S
C1189 H1201 0.929 . S
C1190 C1186 1.531 . S
C1190 H1202 0.960 . S
C1190 H1203 0.962 . S
C1190 H1204 0.960 . S
C1191 C1188 1.511 . S
C1191 H1205 0.961 . S
C1191 H1206 0.961 . S
C1191 H1207 0.961 . S
C1192 C1193 1.370 . S
C1192 C1194 1.363 . S
C1192 H1208 0.931 . S
C1193 C1192 1.370 . S
C1193 C1197 1.408 . S
C1194 C1192 1.363 . S
C1194 C1195 1.370 . S
C1194 C1198 1.524 . S
C1195 C1187 1.503 . S
C1195 C1194 1.370 . S
C1195 C1196 1.403 . S
C1196 C1195 1.403 . S
C1196 C1197 1.404 . S
C1196 C1199 1.539 . S
C1197 C1193 1.408 . S
C1197 C1196 1.404 . S
C1197 H1209 0.930 . S
C1198 C1194 1.524 . S
C1198 H1210 0.956 . S
C1198 H1211 0.961 . S
C1198 H1212 0.961 . S
C1199 C1196 1.539 . S
C1199 H1213 0.958 . S
C1199 H1214 0.961 . S
C1199 H1215 0.960 . S
H1200 C1184 0.931 . S
H1201 C1189 0.929 . S
H1202 C1190 0.960 . S
H1203 C1190 0.962 . S
H1204 C1190 0.960 . S
H1205 C1191 0.961 . S
H1206 C1191 0.961 . S
H1207 C1191 0.961 . S
H1208 C1192 0.931 . S
H1209 C1197 0.930 . S
H1210 C1198 0.956 . S
H1211 C1198 0.961 . S
H1212 C1198 0.961 . S
H1213 C1199 0.958 . S
H1214 C1199 0.961 . S
H1215 C1199 0.960 . S
C1216 C1217 1.391 . S
C1216 C1218 1.394 . S
C1216 H1232 0.931 . S
C1217 C1216 1.391 . S
C1217 C1221 1.376 . S
C1218 C1216 1.394 . S
C1218 C1219 1.369 . S
C1218 C1222 1.531 . S
C1219 C1218 1.369 . S
C1219 C1220 1.410 . S
C1219 C1227 1.503 . S
C1220 C1219 1.410 . S
C1220 C1221 1.392 . S
C1220 C1223 1.511 . S
C1221 C1217 1.376 . S
C1221 C1220 1.392 . S
C1221 H1233 0.929 . S
C1222 C1218 1.531 . S
C1222 H1234 0.960 . S
C1222 H1235 0.962 . S
C1222 H1236 0.960 . S
C1223 C1220 1.511 . S
C1223 H1237 0.961 . S
C1223 H1238 0.961 . S
C1223 H1239 0.961 . S
C1224 C1225 1.370 . S
C1224 C1226 1.363 . S
C1224 H1240 0.931 . S
C1225 C1224 1.370 . S
C1225 C1229 1.408 . S
C1226 C1224 1.363 . S
C1226 C1227 1.370 . S
C1226 C1230 1.524 . S
C1227 C1219 1.503 . S
C1227 C1226 1.370 . S
C1227 C1228 1.403 . S
C1228 C1227 1.403 . S
C1228 C1229 1.404 . S
C1228 C1231 1.539 . S
C1229 C1225 1.408 . S
C1229 C1228 1.404 . S
C1229 H1241 0.930 . S
C1230 C1226 1.524 . S
C1230 H1242 0.956 . S
C1230 H1243 0.961 . S
C1230 H1244 0.961 . S
C1231 C1228 1.539 . S
C1231 H1245 0.958 . S
C1231 H1246 0.961 . S
C1231 H1247 0.960 . S
H1232 C1216 0.931 . S
H1233 C1221 0.929 . S
H1234 C1222 0.960 . S
H1235 C1222 0.962 . S
H1236 C1222 0.960 . S
H1237 C1223 0.961 . S
H1238 C1223 0.961 . S
H1239 C1223 0.961 . S
H1240 C1224 0.931 . S
H1241 C1229 0.930 . S
H1242 C1230 0.956 . S
H1243 C1230 0.961 . S
H1244 C1230 0.961 . S
H1245 C1231 0.958 . S
H1246 C1231 0.961 . S
H1247 C1231 0.960 . S
C225 C6 1.390 . S
C233 C188 1.389 . S
C257 C160 1.416 . S
C265 C20 1.376 . S
C289 C174 1.367 . S
C297 C34 1.398 . S
C321 C146 1.411 . S
C329 C48 1.379 . S
C353 C62 1.383 . S
C361 C216 1.388 . S
C385 C76 1.383 . S
C393 C132 1.391 . S
C417 C202 1.391 . S
C425 C90 1.388 . S
C449 C104 1.368 . S
C457 C118 1.398 . S
C481 C64 1.746 . S
C489 C8 1.761 . S
C513 C22 1.756 . S
C521 C78 1.763 . S
C545 C36 1.747 . S
C553 C92 1.761 . S
C577 C106 1.753 . S
C585 C50 1.757 . S
C609 C120 1.753 . S
C617 C148 1.764 . S
C641 C134 1.752 . S
C649 C162 1.757 . S
C673 C204 1.750 . S
C681 C176 1.764 . S
C705 C190 1.764 . S
C713 C218 1.761 . S
C737 C77 1.463 . S
C745 C7 1.409 . S
C769 C21 1.462 . S
C777 C91 1.403 . S
C801 C35 1.421 . S
C809 C105 1.433 . S
C833 C63 1.402 . S
C841 C49 1.438 . S
C865 C65 1.310 . S
C873 C149 1.309 . S
C897 C37 1.329 . S
C905 C121 1.339 . S
C929 C163 1.347 . S
C937 C93 1.336 . S
C961 C135 1.341 . S
C969 C9 1.338 . S
C993 C119 1.419 . S
C1001 C175 1.408 . S
C1025 C147 1.456 . S
C1033 C217 1.402 1_655 S
C1057 C189 1.462 1_655 S
C1065 C133 1.404 . S
C1089 C161 1.372 . S
C1097 C203 1.432 . S
C1121 C205 1.354 . S
C1129 C23 1.332 . S
C1153 C191 1.350 . S
C1161 C79 1.319 . S
C1185 C219 1.296 . S
C1193 C51 1.311 . S
C1217 C177 1.350 . S
C1225 C107 1.320 . S
