# Generated by pormake.
# Topology tfs, (6)-cn, num edge types: 1
# Building blocks:
#     Node 0, Type 0, BuildingBlock: MIDCAF_clean_sbu_0, # of connection points: 6
#     Node 1, Type 0, BuildingBlock: MIDCAF_clean_sbu_0, # of connection points: 6
#     Node 2, Type 0, BuildingBlock: MIDCAF_clean_sbu_0, # of connection points: 6
#     Node 3, Type 0, BuildingBlock: MIDCAF_clean_sbu_0, # of connection points: 6
#     Node 4, Type 0, BuildingBlock: MIDCAF_clean_sbu_0, # of connection points: 6
#     Node 5, Type 0, BuildingBlock: MIDCAF_clean_sbu_0, # of connection points: 6
#     Edge 6, Type (0, 0), BuildingBlock: TEMPAE_clean_linker_10, # of connection points: 2
#     Edge 7, Type (0, 0), BuildingBlock: TEMPAE_clean_linker_10, # of connection points: 2
#     Edge 8, Type (0, 0), BuildingBlock: TEMPAE_clean_linker_10, # of connection points: 2
#     Edge 9, Type (0, 0), BuildingBlock: TEMPAE_clean_linker_10, # of connection points: 2
#     Edge 10, Type (0, 0), BuildingBlock: TEMPAE_clean_linker_10, # of connection points: 2
#     Edge 11, Type (0, 0), BuildingBlock: TEMPAE_clean_linker_10, # of connection points: 2
#     Edge 12, Type (0, 0), BuildingBlock: TEMPAE_clean_linker_10, # of connection points: 2
#     Edge 13, Type (0, 0), BuildingBlock: TEMPAE_clean_linker_10, # of connection points: 2
#     Edge 14, Type (0, 0), BuildingBlock: TEMPAE_clean_linker_10, # of connection points: 2
#     Edge 15, Type (0, 0), BuildingBlock: TEMPAE_clean_linker_10, # of connection points: 2
#     Edge 16, Type (0, 0), BuildingBlock: TEMPAE_clean_linker_10, # of connection points: 2
#     Edge 17, Type (0, 0), BuildingBlock: TEMPAE_clean_linker_10, # of connection points: 2
#     Edge 18, Type (0, 0), BuildingBlock: TEMPAE_clean_linker_10, # of connection points: 2
#     Edge 19, Type (0, 0), BuildingBlock: TEMPAE_clean_linker_10, # of connection points: 2
#     Edge 20, Type (0, 0), BuildingBlock: TEMPAE_clean_linker_10, # of connection points: 2
#     Edge 21, Type (0, 0), BuildingBlock: TEMPAE_clean_linker_10, # of connection points: 2
#     Edge 22, Type (0, 0), BuildingBlock: TEMPAE_clean_linker_10, # of connection points: 2
#     Edge 23, Type (0, 0), BuildingBlock: TEMPAE_clean_linker_10, # of connection points: 2
# Relax obj value: 0.134
# Max RMSD: 0.124
# Mean RMSD: 0.124
data_MOF--net-tfs--node1-MIDCAF_clean_sbu_0--edge1-TEMPAE_clean_linker_10
_symmetry_space_group_name_H-M    P1
_symmetry_Int_Tables_number       1
_symmetry_cell_setting            triclinic
loop_
_symmetry_equiv_pos_as_xyz
'x, y, z'
_cell_length_a     42.341001
_cell_length_b     42.340901
_cell_length_c     15.449019
_cell_angle_alpha  89.978341
_cell_angle_beta   89.980562
_cell_angle_gamma 119.96849
loop_
_atom_site_label
_atom_site_type_symbol
_atom_site_fract_x
_atom_site_fract_y
_atom_site_fract_z
_atom_type_partial_charge
Zn0 Zn 0.15738 0.41802 0.8673 0.0
Zn1 Zn 0.26366 0.42165 0.02296 0.0
Zn2 Zn 0.20614 0.41328 0.95198 0.0
C3 C 0.2515 0.37267 0.89767 0.0
C4 C 0.20399 0.38333 0.13913 0.0
O5 O 0.21821 0.47129 0.93488 0.0
O6 O 0.1749 0.47014 0.85266 0.0
C7 C 0.1807 0.3798 0.76272 0.0
O8 O 0.22384 0.37734 0.88776 0.0
O9 O 0.27722 0.39361 0.94685 0.0
O10 O 0.23785 0.39584 0.1305 0.0
O11 O 0.18545 0.38713 0.07818 0.0
O12 O 0.15764 0.39035 0.76511 0.0
O13 O 0.2025 0.38612 0.82683 0.0
O14 O 0.15425 0.37906 0.0225 0.0
O15 O 0.1169 0.39096 0.94803 0.0
C16 C 0.122 0.37374 0.0078 0.0
O17 O 0.24986 0.47271 0.96638 0.0
O18 O 0.29763 0.47399 0.0281 0.0
C19 C 0.20362 0.48801 0.89618 0.0
C20 C 0.28289 0.49067 0.99545 0.0
Zn21 Zn 0.73553 0.14866 0.92595 0.0
Zn22 Zn 0.83649 0.25452 0.07471 0.0
Zn23 Zn 0.78794 0.20106 0.99672 0.0
C24 C 0.87263 0.2477 0.93819 0.0
C25 C 0.81666 0.19666 0.18619 0.0
O26 O 0.742 0.21351 0.97548 0.0
O27 O 0.69986 0.16395 0.90981 0.0
C28 C 0.79425 0.17171 0.81189 0.0
O29 O 0.8406 0.21986 0.92682 0.0
O30 O 0.87745 0.27104 0.99485 0.0
O31 O 0.84005 0.22999 0.17924 0.0
O32 O 0.79356 0.18025 0.12479 0.0
O33 O 0.76163 0.14671 0.82182 0.0
O34 O 0.81007 0.19623 0.87076 0.0
O35 O 0.77284 0.14911 0.06758 0.0
O36 O 0.7212 0.10862 0.00707 0.0
C37 C 0.7465 0.11594 0.06005 0.0
O38 O 0.77192 0.24456 0.01188 0.0
O39 O 0.81719 0.28721 0.08858 0.0
C40 C 0.70992 0.19496 0.94124 0.0
C41 C 0.78738 0.27605 0.04966 0.0
Zn42 Zn 0.59574 0.84681 0.10684 0.0
Zn43 Zn 0.58125 0.73643 0.96013 0.0
Zn44 Zn 0.59056 0.79349 0.03057 0.0
C45 C 0.627 0.74452 0.08775 0.0
C46 C 0.62078 0.79314 0.84219 0.0
O47 O 0.53411 0.78423 0.05896 0.0
O48 O 0.54594 0.8335 0.1332 0.0
C49 C 0.63023 0.82179 0.2144 0.0
O50 O 0.62458 0.77359 0.09464 0.0
O51 O 0.60467 0.71873 0.04067 0.0
O52 O 0.60954 0.75968 0.8537 0.0
O53 O 0.61568 0.81171 0.90101 0.0
O54 O 0.62613 0.84913 0.20586 0.0
O55 O 0.61825 0.79692 0.1555 0.0
O56 O 0.62653 0.84396 0.95382 0.0
O57 O 0.61917 0.88554 0.0219 0.0
C58 C 0.63412 0.87731 0.96257 0.0
O59 O 0.52992 0.7526 0.0176 0.0
O60 O 0.52867 0.70639 0.94795 0.0
C61 C 0.52305 0.80362 0.0998 0.0
C62 C 0.51189 0.72062 0.98261 0.0
Zn63 Zn 0.74027 0.58321 0.08826 0.0
Zn64 Zn 0.841 0.57679 0.93 0.0
Zn65 Zn 0.79345 0.58559 0.013 0.0
C66 C 0.87706 0.62111 0.07001 0.0
C67 C 0.82078 0.6167 0.82189 0.0
O68 O 0.74709 0.52776 0.03057 0.0
O69 O 0.70584 0.53183 0.10947 0.0
C70 C 0.8 0.62152 0.19797 0.0
O71 O 0.84536 0.61738 0.08354 0.0
O72 O 0.88166 0.60349 0.01036 0.0
O73 O 0.84193 0.6038 0.82526 0.0
O74 O 0.79955 0.61253 0.88596 0.0
O75 O 0.76716 0.61336 0.18926 0.0
O76 O 0.81565 0.61266 0.13893 0.0
O77 O 0.77745 0.62154 0.94273 0.0
O78 O 0.72477 0.60695 0.00335 0.0
C79 C 0.74969 0.62614 0.95039 0.0
O80 O 0.77787 0.52657 1.00056 0.0
O81 O 0.82028 0.52391 0.92217 0.0
C82 C 0.71582 0.51242 0.06935 0.0
C83 C 0.79114 0.50804 0.96507 0.0
Zn84 Zn 0.1834 0.75616 0.1328 0.0
Zn85 Zn 0.26229 0.83477 0.92939 0.0
Zn86 Zn 0.21385 0.79675 0.02796 0.0
C87 C 0.25312 0.88118 0.0428 0.0
C88 C 0.19886 0.80404 0.83238 0.0
O89 O 0.22557 0.74985 0.03071 0.0
O90 O 0.17479 0.70842 0.09159 0.0
C91 C 0.21984 0.81206 0.22725 0.0
O92 O 0.23283 0.85117 0.08319 0.0
O93 O 0.26869 0.88108 0.97333 0.0
O94 O 0.23282 0.8175 0.82356 0.0
O95 O 0.18422 0.79524 0.908 0.0
O96 O 0.21752 0.78119 0.23043 0.0
O97 O 0.21568 0.82391 0.15365 0.0
O98 O 0.15792 0.77512 0.98107 0.0
O99 O 0.14276 0.76625 0.11878 0.0
C100 C 0.13494 0.76972 0.04183 0.0
O101 O 0.25841 0.78207 0.02248 0.0
O102 O 0.30273 0.82569 0.94501 0.0
C103 C 0.20313 0.71604 0.04915 0.0
C104 C 0.29144 0.79802 0.99272 0.0
Zn105 Zn 0.41375 0.26388 0.91013 0.0
Zn106 Zn 0.41836 0.16212 0.06436 0.0
Zn107 Zn 0.41031 0.2099 0.9844 0.0
C108 C 0.37198 0.12588 0.92853 0.0
C109 C 0.37978 0.18279 0.17512 0.0
O110 O 0.46875 0.25608 0.97183 0.0
O111 O 0.4652 0.29995 0.90359 0.0
C112 C 0.37742 0.20495 0.79694 0.0
O113 O 0.37652 0.1579 0.91484 0.0
O114 O 0.39043 0.12123 0.98586 0.0
O115 O 0.39249 0.16152 0.17098 0.0
O116 O 0.3838 0.20409 0.11136 0.0
O117 O 0.38819 0.23853 0.80318 0.0
O118 O 0.3832 0.18814 0.8589 0.0
O119 O 0.37425 0.22568 0.05576 0.0
O120 O 0.38522 0.27599 0.98782 0.0
C121 C 0.36763 0.252 0.04403 0.0
O122 O 0.46927 0.22374 0.99239 0.0
O123 O 0.47071 0.18047 0.0699 0.0
C124 C 0.48429 0.28889 0.94101 0.0
C125 C 0.48709 0.2092 0.02568 0.0
C126 C 0.33244 0.27921 0.10038 0.0
C127 C 0.3323 0.24843 0.06694 0.0
C128 C 0.30686 0.28885 0.07197 0.0
C129 C 0.28123 0.26756 0.00725 0.0
C130 C 0.27732 0.23342 0.98447 0.0
C131 C 0.30253 0.22383 0.01646 0.0
C132 C 0.31069 0.32449 0.10219 0.0
C133 C 0.25017 0.20943 0.91705 0.0
C134 C 0.22338 0.30866 0.94022 0.0
C135 C 0.248 0.3366 0.88529 0.0
C136 C 0.2319 0.28317 0.97547 0.0
C137 C 0.26507 0.28494 0.95217 0.0
C138 C 0.28664 0.30908 0.88516 0.0
C139 C 0.27811 0.33503 0.85342 0.0
C140 C 0.20782 0.25795 0.04591 0.0
C141 C 0.32136 0.31076 0.85491 0.0
H142 H 0.35539 0.29828 0.13941 0.0
H143 H 0.30237 0.2 0.99006 0.0
H144 H 0.32462 0.34551 0.05132 0.0
H145 H 0.28352 0.32166 0.11364 0.0
H146 H 0.32696 0.33427 0.16267 0.0
H147 H 0.24325 0.18057 0.92463 0.0
H148 H 0.22475 0.21087 0.92015 0.0
H149 H 0.26228 0.21879 0.85182 0.0
H150 H 0.20025 0.31002 0.96602 0.0
H151 H 0.29731 0.35671 0.81152 0.0
H152 H 0.21752 0.27164 0.10949 0.0
H153 H 0.20859 0.23217 0.04758 0.0
H154 H 0.17913 0.25146 0.0375 0.0
H155 H 0.34275 0.32433 0.90507 0.0
H156 H 0.33154 0.32634 0.79355 0.0
H157 H 0.31705 0.28293 0.84499 0.0
C158 C 0.08069 0.30892 0.98438 0.0
C159 C 0.08921 0.33992 0.03407 0.0
C160 C 0.04436 0.28366 0.96289 0.0
C161 C 0.016 0.28876 0.99552 0.0
C162 C 0.02436 0.31663 0.05741 0.0
C163 C 0.06098 0.34241 0.0745 0.0
C164 C 0.03712 0.25478 0.89625 0.0
C165 C 0.99483 0.32185 0.09785 0.0
C166 C 0.93383 0.27704 0.87243 0.0
C167 C 0.90572 0.24675 0.91431 0.0
C168 C 0.9705 0.28841 0.89061 0.0
C169 C 0.97901 0.2699 0.95503 0.0
C170 C 0.95079 0.2368 0.98952 0.0
C171 C 0.91443 0.22514 0.96691 0.0
C172 C 0.99987 0.32271 0.84831 0.0
C173 C 0.95816 0.21626 0.05897 0.0
H174 H 0.10252 0.30731 0.95162 0.0
H175 H 0.06746 0.36655 0.11202 0.0
H176 H 0.01092 0.22942 0.90848 0.0
H177 H 0.03541 0.2651 0.83136 0.0
H178 H 0.05942 0.24817 0.89469 0.0
H179 H 0.00493 0.33988 0.15555 0.0
H180 H 0.98496 0.33445 0.04987 0.0
H181 H 0.97128 0.29523 0.11731 0.0
H182 H 0.92719 0.29404 0.83264 0.0
H183 H 0.89268 0.20204 1.0008 0.0
H184 H 0.02359 0.31963 0.83051 0.0
H185 H 0.00953 0.34577 0.89453 0.0
H186 H 0.98972 0.32978 0.78928 0.0
H187 H 0.98465 0.21743 0.04887 0.0
H188 H 0.93619 0.18725 0.06173 0.0
H189 H 0.95927 0.22888 0.12269 0.0
C190 C 0.72249 0.05404 0.11829 0.0
C191 C 0.75168 0.08499 0.08112 0.0
C192 C 0.7146 0.01896 0.09324 0.0
C193 C 0.7358 0.01498 0.02746 0.0
C194 C 0.76831 0.04602 0.99943 0.0
C195 C 0.77633 0.08074 0.02841 0.0
C196 C 0.68074 0.98645 0.12879 0.0
C197 C 0.79197 0.04346 0.92999 0.0
C198 C 0.69955 0.91526 0.97942 0.0
C199 C 0.66854 0.90801 0.93119 0.0
C200 C 0.72472 0.95105 0.00529 0.0
C201 C 0.7196 0.98005 0.97783 0.0
C202 C 0.69273 0.97329 0.91433 0.0
C203 C 0.66712 0.93715 0.89252 0.0
C204 C 0.75312 0.95671 0.07185 0.0
C205 C 0.68767 0.00368 0.87885 0.0
H206 H 0.7033 0.05722 0.15866 0.0
H207 H 0.7988 0.10466 0.99873 0.0
H208 H 0.65854 0.97691 0.08017 0.0
H209 H 0.68579 0.9636 0.14221 0.0
H210 H 0.67125 0.99328 0.18929 0.0
H211 H 0.82059 0.0661 0.93564 0.0
H212 H 0.79164 0.01712 0.93245 0.0
H213 H 0.78155 0.04564 0.86565 0.0
H214 H 0.70073 0.89273 0.0096 0.0
H215 H 0.64326 0.93166 0.855 0.0
H216 H 0.74172 0.95512 0.13746 0.0
H217 H 0.77797 0.98384 0.06508 0.0
H218 H 0.76084 0.93525 0.06701 0.0
H219 H 0.67392 0.01171 0.92816 0.0
H220 H 0.67069 0.9952 0.81931 0.0
H221 H 0.71441 0.02802 0.86384 0.0
C222 C 0.77595 0.69085 0.98115 0.0
C223 C 0.75228 0.66119 0.92915 0.0
C224 C 0.76564 0.71573 0.01141 0.0
C225 C 0.73176 0.71164 0.98534 0.0
C226 C 0.71141 0.68598 0.9198 0.0
C227 C 0.72165 0.66062 0.89339 0.0
C228 C 0.78848 0.74272 0.08038 0.0
C229 C 0.67614 0.68201 0.88619 0.0
C230 C 0.66257 0.7155 0.1319 0.0
C231 C 0.66229 0.74621 0.09957 0.0
C232 C 0.68845 0.70641 0.10273 0.0
C233 C 0.7137 0.7279 0.03741 0.0
C234 C 0.71638 0.76136 0.01297 0.0
C235 C 0.691 0.77049 0.04592 0.0
C236 C 0.68577 0.67138 0.13412 0.0
C237 C 0.7426 0.78521 0.94373 0.0
H238 H 0.79957 0.69123 0.00958 0.0
H239 H 0.70326 0.63768 0.85339 0.0
H240 H 0.78719 0.76819 0.07582 0.0
H241 H 0.77791 0.73049 0.14499 0.0
H242 H 0.81742 0.74958 0.07614 0.0
H243 H 0.66734 0.66591 0.82532 0.0
H244 H 0.6544 0.66782 0.93538 0.0
H245 H 0.67896 0.70914 0.87413 0.0
H246 H 0.64025 0.69654 0.17272 0.0
H247 H 0.69056 0.79404 0.0196 0.0
H248 H 0.71329 0.67521 0.14634 0.0
H249 H 0.67256 0.65009 0.08359 0.0
H250 H 0.6694 0.66133 0.19444 0.0
H251 H 0.76832 0.78429 0.94498 0.0
H252 H 0.74913 0.81397 0.95076 0.0
H253 H 0.72977 0.77535 0.87936 0.0
C254 C 0.0746 0.73894 0.96733 0.0
C255 C 0.09815 0.7643 0.02782 0.0
C256 C 0.03658 0.72263 0.97783 0.0
C257 C 0.02231 0.73173 0.05091 0.0
C258 C 0.04615 0.76053 0.10566 0.0
C259 C 0.08379 0.77672 0.0928 0.0
C260 C 0.01184 0.69305 0.91582 0.0
C261 C 0.03236 0.77131 0.184 0.0
C262 C 0.91916 0.6868 0.06363 0.0
C263 C 0.91034 0.65317 0.10091 0.0
C264 C 0.9557 0.7138 0.05038 0.0
C265 C 0.98379 0.70724 0.07785 0.0
C266 C 0.9748 0.67522 0.12567 0.0
C267 C 0.9381 0.64825 0.13535 0.0
C268 C 0.96384 0.74725 0.99856 0.0
C269 C 0.00394 0.66785 0.15966 0.0
H270 H 0.08564 0.72927 0.91726 0.0
H271 H 0.10215 0.79662 0.13936 0.0
H272 H 0.00144 0.66605 0.94718 0.0
H273 H 0.98796 0.69597 0.89887 0.0
H274 H 0.02629 0.69349 0.85538 0.0
H275 H 0.05319 0.79824 0.20995 0.0
H276 H 0.0073 0.77231 0.1686 0.0
H277 H 0.02536 0.75059 0.2356 0.0
H278 H 0.89767 0.69023 0.03492 0.0
H279 H 0.93125 0.622 0.16273 0.0
H280 H 0.96905 0.74308 0.93026 0.0
H281 H 0.98853 0.77181 0.02284 0.0
H282 H 0.94056 0.75241 0.99964 0.0
H283 H 0.01716 0.66205 0.1047 0.0
H284 H 0.99264 0.64419 0.20457 0.0
H285 H 0.02537 0.69212 0.19408 0.0
C286 C 0.28274 0.94453 0.09537 0.0
C287 C 0.25199 0.91464 0.05992 0.0
C288 C 0.29244 0.98021 0.07082 0.0
C289 C 0.27167 0.98574 0.00665 0.0
C290 C 0.23828 0.95586 0.97876 0.0
C291 C 0.22851 0.92064 0.00722 0.0
C292 C 0.32729 0.01159 0.10591 0.0
C293 C 0.21531 0.96007 0.91014 0.0
C294 C 0.30768 0.08564 0.95857 0.0
C295 C 0.3377 0.09291 0.90632 0.0
C296 C 0.28348 0.05002 0.9872 0.0
C297 C 0.2885 0.02108 0.95881 0.0
C298 C 0.31473 0.02771 0.89361 0.0
C299 C 0.33955 0.06376 0.86929 0.0
C300 C 0.25617 0.04456 0.05672 0.0
C301 C 0.31963 0.99731 0.85754 0.0
H302 H 0.3012 0.93991 0.135 0.0
H303 H 0.20504 0.89739 0.97839 0.0
H304 H 0.34914 0.02035 0.05655 0.0
H305 H 0.32367 0.03526 0.12045 0.0
H306 H 0.33642 0.00386 0.16564 0.0
H307 H 0.18654 0.93755 0.91332 0.0
H308 H 0.2159 0.98646 0.91598 0.0
H309 H 0.22629 0.95926 0.84543 0.0
H310 H 0.30649 0.10825 0.98826 0.0
H311 H 0.36287 0.06933 0.82943 0.0
H312 H 0.26847 0.04585 0.121 0.0
H313 H 0.23105 0.01758 0.05119 0.0
H314 H 0.24867 0.06622 0.05434 0.0
H315 H 0.33383 0.98946 0.90597 0.0
H316 H 0.33609 0.00567 0.79715 0.0
H317 H 0.29281 0.97288 0.84379 0.0
C318 C 0.18063 0.64974 0.02765 0.0
C319 C 0.20949 0.68587 0.02263 0.0
C320 C 0.18527 0.62039 0.00374 0.0
C321 C 0.21994 0.62704 0.97598 0.0
C322 C 0.24936 0.66331 0.97156 0.0
C323 C 0.24349 0.69228 0.99305 0.0
C324 C 0.15287 0.58219 0.00793 0.0
C325 C 0.28694 0.67158 0.94389 0.0
C326 C 0.22655 0.54138 0.99497 0.0
C327 C 0.21684 0.52707 0.91133 0.0
C328 C 0.23088 0.57564 0.0154 0.0
C329 C 0.22458 0.59563 0.95086 0.0
C330 C 0.21703 0.58228 0.86492 0.0
C331 C 0.21317 0.54808 0.84625 0.0
C332 C 0.23931 0.58914 0.10753 0.0
C333 C 0.20988 0.60256 0.79431 0.0
H334 H 0.15402 0.64429 0.04936 0.0
H335 H 0.26559 0.71978 0.98732 0.0
H336 H 0.14792 0.56909 0.94335 0.0
H337 H 0.15852 0.56539 0.05359 0.0
H338 H 0.1276 0.58176 0.02919 0.0
H339 H 0.30803 0.70008 0.95904 0.0
H340 H 0.29448 0.65286 0.97611 0.0
H341 H 0.28717 0.66741 0.87308 0.0
H342 H 0.22803 0.52459 0.04596 0.0
H343 H 0.2053 0.53685 0.78164 0.0
H344 H 0.21518 0.5887 0.13688 0.0
H345 H 0.26202 0.6178 0.10891 0.0
H346 H 0.24671 0.57215 0.14809 0.0
H347 H 0.18347 0.60132 0.80677 0.0
H348 H 0.20871 0.59083 0.72927 0.0
H349 H 0.23135 0.63172 0.7939 0.0
C350 C 0.55001 0.22872 0.07396 0.0
C351 C 0.52587 0.22303 0.00624 0.0
C352 C 0.58447 0.23294 0.05784 0.0
C353 C 0.59436 0.2297 0.97186 0.0
C354 C 0.57087 0.22643 0.90258 0.0
C355 C 0.53708 0.22381 0.92074 0.0
C356 C 0.60819 0.23725 0.135 0.0
C357 C 0.57858 0.22076 0.81027 0.0
C358 C 0.6885 0.24092 0.92911 0.0
C359 C 0.68182 0.20582 0.94876 0.0
C360 C 0.6601 0.24923 0.93359 0.0
C361 C 0.6245 0.22169 0.95789 0.0
C362 C 0.61768 0.18597 0.97467 0.0
C363 C 0.64636 0.17866 0.97061 0.0
C364 C 0.66795 0.28702 0.91014 0.0
C365 C 0.58002 0.15529 0.9977 0.0
H366 H 0.54129 0.22826 0.14022 0.0
H367 H 0.51806 0.21885 0.86847 0.0
H368 H 0.59427 0.21249 0.17617 0.0
H369 H 0.63549 0.24172 0.11747 0.0
H370 H 0.61171 0.26057 0.17508 0.0
H371 H 0.56789 0.23341 0.76447 0.0
H372 H 0.60796 0.23183 0.79733 0.0
H373 H 0.56427 0.19105 0.79667 0.0
H374 H 0.71554 0.2615 0.90855 0.0
H375 H 0.64096 0.15132 0.98495 0.0
H376 H 0.65451 0.29678 0.95596 0.0
H377 H 0.65704 0.28667 0.84474 0.0
H378 H 0.69764 0.3066 0.90878 0.0
H379 H 0.57286 0.15954 0.06409 0.0
H380 H 0.57825 0.12822 0.99562 0.0
H381 H 0.55938 0.15486 0.95269 0.0
C382 C 0.44633 0.69778 0.9437 0.0
C383 C 0.4725 0.69632 0.99643 0.0
C384 C 0.41001 0.66854 0.94249 0.0
C385 C 0.4003 0.637 0.99319 0.0
C386 C 0.4265 0.6365 0.04937 0.0
C387 C 0.46204 0.66628 0.0508 0.0
C388 C 0.38256 0.67068 0.88426 0.0
C389 C 0.41796 0.60327 0.10296 0.0
C390 C 0.30784 0.55496 0.04354 0.0
C391 C 0.30609 0.53011 0.98154 0.0
C392 C 0.33638 0.59141 0.04251 0.0
C393 C 0.36477 0.6026 0.98059 0.0
C394 C 0.36209 0.5777 0.91562 0.0
C395 C 0.33251 0.54193 0.91639 0.0
C396 C 0.33707 0.61726 0.11049 0.0
C397 C 0.39242 0.58741 0.85109 0.0
H398 H 0.45457 0.72087 0.90079 0.0
H399 H 0.48254 0.66504 0.09044 0.0
H400 H 0.37876 0.65458 0.8247 0.0
H401 H 0.35566 0.65902 0.91687 0.0
H402 H 0.39162 0.69918 0.86472 0.0
H403 H 0.44148 0.60737 0.14312 0.0
H404 H 0.39456 0.59628 0.14653 0.0
H405 H 0.41014 0.57953 0.0598 0.0
H406 H 0.28812 0.54541 0.09576 0.0
H407 H 0.33155 0.52225 0.86995 0.0
H408 H 0.3636 0.63087 0.14473 0.0
H409 H 0.31515 0.60332 0.15939 0.0
H410 H 0.3334 0.63864 0.07845 0.0
H411 H 0.39977 0.61337 0.81788 0.0
H412 H 0.38496 0.56589 0.80131 0.0
H413 H 0.41709 0.59128 0.88567 0.0
C414 C 0.76434 0.44431 0.91328 0.0
C415 C 0.77552 0.4689 0.98215 0.0
C416 C 0.75685 0.40839 0.92573 0.0
C417 C 0.763 0.39763 0.00828 0.0
C418 C 0.77263 0.42218 0.0791 0.0
C419 C 0.77771 0.45722 0.06534 0.0
C420 C 0.74341 0.38268 0.84928 0.0
C421 C 0.77999 0.41299 0.16864 0.0
C422 C 0.74576 0.30229 0.06665 0.0
C423 C 0.77687 0.30368 0.03123 0.0
C424 C 0.74014 0.33237 0.05864 0.0
C425 C 0.76666 0.36447 0.01577 0.0
C426 C 0.79846 0.36586 0.98202 0.0
C427 C 0.80265 0.33527 0.98855 0.0
C428 C 0.70665 0.33009 0.09909 0.0
C429 C 0.82892 0.40009 0.94136 0.0
H430 H 0.76221 0.45349 0.84914 0.0
H431 H 0.78647 0.47653 0.11845 0.0
H432 H 0.75392 0.36341 0.84886 0.0
H433 H 0.71327 0.36626 0.85243 0.0
H434 H 0.75077 0.39772 0.78684 0.0
H435 H 0.80096 0.43779 0.20256 0.0
H436 H 0.75458 0.40182 0.20736 0.0
H437 H 0.78925 0.39269 0.16798 0.0
H438 H 0.72643 0.27826 0.10228 0.0
H439 H 0.82716 0.33655 0.96309 0.0
H440 H 0.69748 0.34691 0.06374 0.0
H441 H 0.71286 0.33992 0.16682 0.0
H442 H 0.68396 0.30152 0.10131 0.0
H443 H 0.82041 0.40415 0.87636 0.0
H444 H 0.85427 0.39869 0.93355 0.0
H445 H 0.8353 0.42438 0.98124 0.0
C446 C 0.32253 0.77975 0.10198 0.0
C447 C 0.31697 0.78536 0.01539 0.0
C448 C 0.35225 0.77548 0.12554 0.0
C449 C 0.376 0.77583 0.06034 0.0
C450 C 0.36783 0.77747 0.97212 0.0
C451 C 0.33887 0.78305 0.95082 0.0
C452 C 0.36015 0.77461 0.22042 0.0
C453 C 0.3916 0.77672 0.90022 0.0
C454 C 0.47782 0.82418 0.09182 0.0
C455 C 0.4847 0.79508 0.09779 0.0
C456 C 0.44234 0.81812 0.08483 0.0
C457 C 0.41276 0.78197 0.08294 0.0
C458 C 0.41926 0.75248 0.0937 0.0
C459 C 0.45533 0.7594 0.1014 0.0
C460 C 0.43672 0.85054 0.07595 0.0
C461 C 0.3882 0.71379 0.09517 0.0
H462 H 0.30545 0.78158 0.15176 0.0
H463 H 0.33409 0.78686 0.88365 0.0
H464 H 0.37376 0.75849 0.23289 0.0
H465 H 0.37869 0.8029 0.24285 0.0
H466 H 0.33478 0.76319 0.25961 0.0
H467 H 0.3767 0.76849 0.83765 0.0
H468 H 0.41562 0.80439 0.89219 0.0
H469 H 0.40171 0.75774 0.91554 0.0
H470 H 0.50044 0.85196 0.08995 0.0
H471 H 0.46054 0.73713 0.11092 0.0
H472 H 0.41542 0.84812 0.12173 0.0
H473 H 0.42722 0.85135 0.00949 0.0
H474 H 0.46212 0.87677 0.08835 0.0
H475 H 0.36868 0.7102 0.14732 0.0
H476 H 0.3979 0.69416 0.10584 0.0
H477 H 0.37303 0.70745 0.03319 0.0
C478 C 0.65974 0.45663 0.11814 0.0
C479 C 0.68934 0.47296 0.06075 0.0
C480 C 0.62959 0.42232 0.10071 0.0
C481 C 0.62975 0.40303 0.02603 0.0
C482 C 0.66118 0.4176 0.973 0.0
C483 C 0.6901 0.45301 0.9892 0.0
C484 C 0.59647 0.40809 0.1586 0.0
C485 C 0.66352 0.39623 0.89756 0.0
C486 C 0.54443 0.30965 0.01614 0.0
C487 C 0.52358 0.31547 0.95451 0.0
C488 C 0.58051 0.33668 0.03459 0.0
C489 C 0.59492 0.37149 0.99574 0.0
C490 C 0.57384 0.37767 0.93404 0.0
C491 C 0.53912 0.34927 0.91207 0.0
C492 C 0.60271 0.32764 0.09578 0.0
C493 C 0.5869 0.41494 0.89478 0.0
H494 H 0.65901 0.47177 0.17397 0.0
H495 H 0.71196 0.46583 0.94267 0.0
H496 H 0.57258 0.40417 0.12034 0.0
H497 H 0.58979 0.3812 0.18575 0.0
H498 H 0.60058 0.42683 0.21319 0.0
H499 H 0.68884 0.41219 0.8593 0.0
H500 H 0.66263 0.37119 0.92251 0.0
H501 H 0.63989 0.38727 0.85358 0.0
H502 H 0.53212 0.28483 0.05331 0.0
H503 H 0.52329 0.35436 0.86474 0.0
H504 H 0.58498 0.30666 0.14371 0.0
H505 H 0.62378 0.3518 0.13105 0.0
H506 H 0.61695 0.31633 0.05752 0.0
H507 H 0.59458 0.43561 0.94674 0.0
H508 H 0.56585 0.41576 0.85346 0.0
H509 H 0.61146 0.42305 0.85456 0.0
C510 C 0.21621 0.38432 0.63169 0.0
C511 C 0.18432 0.36465 0.68018 0.0
C512 C 0.21584 0.37977 0.5415 0.0
C513 C 0.18298 0.35427 0.49981 0.0
C514 C 0.15193 0.33144 0.55029 0.0
C515 C 0.15278 0.33736 0.63986 0.0
C516 C 0.24957 0.40482 0.49016 0.0
C517 C 0.11688 0.30288 0.50915 0.0
C518 C 0.1729 0.38402 0.27449 0.0
C519 C 0.18801 0.36757 0.22381 0.0
C520 C 0.16925 0.37835 0.36447 0.0
C521 C 0.18013 0.35494 0.4037 0.0
C522 C 0.19183 0.3354 0.35106 0.0
C523 C 0.19626 0.34248 0.2618 0.0
C524 C 0.15682 0.3999 0.41823 0.0
C525 C 0.20222 0.30908 0.38949 0.0
H526 H 0.24035 0.40585 0.66278 0.0
H527 H 0.128 0.32237 0.67756 0.0
H528 H 0.25628 0.38898 0.44405 0.0
H529 H 0.24443 0.42393 0.45163 0.0
H530 H 0.27358 0.42102 0.53243 0.0
H531 H 0.09823 0.28274 0.55747 0.0
H532 H 0.10271 0.31622 0.47927 0.0
H533 H 0.1224 0.2882 0.45718 0.0
H534 H 0.16713 0.40386 0.24512 0.0
H535 H 0.20816 0.32992 0.2223 0.0
H536 H 0.17973 0.4197 0.45916 0.0
H537 H 0.13439 0.38156 0.46223 0.0
H538 H 0.14725 0.41513 0.37762 0.0
H539 H 0.22939 0.32454 0.4205 0.0
H540 H 0.20357 0.29097 0.3394 0.0
H541 H 0.18244 0.292 0.44018 0.0
C542 C 0.80497 0.14193 0.68621 0.0
C543 C 0.81102 0.1741 0.72686 0.0
C544 C 0.80973 0.14081 0.59659 0.0
C545 C 0.81958 0.17231 0.54632 0.0
C546 C 0.82846 0.20559 0.58819 0.0
C547 C 0.82454 0.20618 0.67844 0.0
C548 C 0.80157 0.10522 0.55525 0.0
C549 C 0.83892 0.23982 0.53701 0.0
C550 C 0.84694 0.18546 0.30982 0.0
C551 C 0.81456 0.17923 0.27004 0.0
C552 C 0.84833 0.18028 0.39916 0.0
C553 C 0.81687 0.16987 0.45008 0.0
C554 C 0.7834 0.16081 0.40898 0.0
C555 C 0.78256 0.16516 0.31893 0.0
C556 C 0.88413 0.18868 0.43963 0.0
C557 C 0.74921 0.14975 0.46088 0.0
H558 H 0.7944 0.11706 0.7239 0.0
H559 H 0.8287 0.23089 0.70978 0.0
H560 H 0.77435 0.0925 0.5241 0.0
H561 H 0.82186 0.1098 0.50419 0.0
H562 H 0.80144 0.08573 0.60361 0.0
H563 H 0.84727 0.2639 0.57943 0.0
H564 H 0.86165 0.24574 0.4921 0.0
H565 H 0.81538 0.23581 0.49716 0.0
H566 H 0.87176 0.19654 0.27177 0.0
H567 H 0.75771 0.16094 0.28825 0.0
H568 H 0.87991 0.16824 0.49002 0.0
H569 H 0.89668 0.21575 0.47144 0.0
H570 H 0.90362 0.18924 0.39062 0.0
H571 H 0.74372 0.12698 0.50525 0.0
H572 H 0.72496 0.14122 0.41893 0.0
H573 H 0.75301 0.17306 0.50134 0.0
C574 C 0.66046 0.79918 0.71781 0.0
C575 C 0.63627 0.80849 0.75668 0.0
C576 C 0.66773 0.80403 0.62865 0.0
C577 C 0.64932 0.81728 0.5768 0.0
C578 C 0.62673 0.82899 0.61687 0.0
C579 C 0.62088 0.82491 0.70681 0.0
C580 C 0.69321 0.79272 0.58939 0.0
C581 C 0.60636 0.84305 0.56396 0.0
C582 C 0.67041 0.84743 0.34257 0.0
C583 C 0.64305 0.81684 0.29929 0.0
C584 C 0.67491 0.84703 0.43253 0.0
C585 C 0.65067 0.81569 0.48047 0.0
C586 C 0.62494 0.78376 0.43601 0.0
C587 C 0.6218 0.78459 0.34553 0.0
C588 C 0.70373 0.8811 0.47667 0.0
C589 C 0.5984 0.74978 0.48457 0.0
H590 H 0.67231 0.78637 0.75662 0.0
H591 H 0.60178 0.83158 0.73675 0.0
H592 H 0.67712 0.76627 0.55553 0.0
H593 H 0.71136 0.81301 0.54082 0.0
H594 H 0.71028 0.7895 0.63933 0.0
H595 H 0.59151 0.85287 0.60517 0.0
H596 H 0.62544 0.86569 0.52143 0.0
H597 H 0.58635 0.82094 0.52152 0.0
H598 H 0.6868 0.87246 0.30671 0.0
H599 H 0.6003 0.76114 0.31229 0.0
H600 H 0.71752 0.87423 0.5283 0.0
H601 H 0.69078 0.89543 0.50762 0.0
H602 H 0.72458 0.90013 0.43012 0.0
H603 H 0.61308 0.7416 0.53068 0.0
H604 H 0.58194 0.72654 0.44043 0.0
H605 H 0.57958 0.75541 0.52289 0.0
C606 C 0.78732 0.61507 0.68921 0.0
C607 C 0.81901 0.63285 0.7391 0.0
C608 C 0.78863 0.62078 0.59932 0.0
C609 C 0.82227 0.64555 0.55936 0.0
C610 C 0.85341 0.66639 0.61133 0.0
C611 C 0.85156 0.65928 0.70051 0.0
C612 C 0.75478 0.59779 0.54633 0.0
C613 C 0.88938 0.69414 0.57214 0.0
C614 C 0.83086 0.61781 0.33073 0.0
C615 C 0.81708 0.6362 0.28253 0.0
C616 C 0.8347 0.62219 0.42101 0.0
C617 C 0.82549 0.64631 0.46315 0.0
C618 C 0.81553 0.66794 0.41308 0.0
C619 C 0.81083 0.66216 0.32342 0.0
C620 C 0.8453 0.59846 0.47192 0.0
C621 C 0.80707 0.6951 0.4547 0.0
H622 H 0.76237 0.59414 0.71897 0.0
H623 H 0.87617 0.67277 0.73927 0.0
H624 H 0.74935 0.61522 0.50231 0.0
H625 H 0.75899 0.57864 0.50544 0.0
H626 H 0.73034 0.5817 0.58749 0.0
H627 H 0.9084 0.71299 0.62186 0.0
H628 H 0.90238 0.67992 0.5409 0.0
H629 H 0.88531 0.71038 0.52153 0.0
H630 H 0.83518 0.59738 0.29923 0.0
H631 H 0.80007 0.67634 0.28593 0.0
H632 H 0.82168 0.57861 0.51111 0.0
H633 H 0.86776 0.61521 0.51742 0.0
H634 H 0.85407 0.58311 0.42934 0.0
H635 H 0.77974 0.68043 0.48536 0.0
H636 H 0.80702 0.71459 0.40659 0.0
H637 H 0.82715 0.71068 0.50619 0.0
C638 C 0.23982 0.83144 0.37761 0.0
C639 C 0.216 0.82698 0.31003 0.0
C640 C 0.22972 0.83131 0.46418 0.0
C641 C 0.1944 0.82539 0.48364 0.0
C642 C 0.17139 0.82387 0.41526 0.0
C643 C 0.18266 0.82501 0.32898 0.0
C644 C 0.25572 0.83427 0.53482 0.0
C645 C 0.13354 0.81738 0.4325 0.0
C646 C 0.16737 0.77504 0.69647 0.0
C647 C 0.17916 0.80415 0.7543 0.0
C648 C 0.16763 0.78081 0.60674 0.0
C649 C 0.18084 0.81669 0.57473 0.0
C650 C 0.18806 0.84511 0.63357 0.0
C651 C 0.18682 0.83836 0.72292 0.0
C652 C 0.15828 0.74936 0.54631 0.0
C653 C 0.20193 0.88367 0.6029 0.0
H654 H 0.26529 0.8323 0.36291 0.0
H655 H 0.16378 0.82056 0.2767 0.0
H656 H 0.25781 0.85394 0.58507 0.0
H657 H 0.24527 0.80736 0.56662 0.0
H658 H 0.28346 0.84313 0.50935 0.0
H659 H 0.12272 0.8253 0.37611 0.0
H660 H 0.115 0.78793 0.44527 0.0
H661 H 0.13302 0.83262 0.49033 0.0
H662 H 0.16201 0.74873 0.72047 0.0
H663 H 0.19654 0.86109 0.76767 0.0
H664 H 0.18381 0.75136 0.52141 0.0
H665 H 0.14251 0.75024 0.48994 0.0
H666 H 0.14223 0.72267 0.57951 0.0
H667 H 0.23143 0.89642 0.58776 0.0
H668 H 0.19846 0.90043 0.65324 0.0
H669 H 0.18776 0.88421 0.54304 0.0
C670 C 0.37987 0.1732 0.66491 0.0
C671 C 0.36207 0.18752 0.71336 0.0
C672 C 0.37482 0.1689 0.57491 0.0
C673 C 0.35065 0.17824 0.53354 0.0
C674 C 0.32957 0.18871 0.58412 0.0
C675 C 0.33604 0.19389 0.67343 0.0
C676 C 0.39801 0.1578 0.52336 0.0
C677 C 0.30236 0.19732 0.54331 0.0
C678 C 0.38177 0.2163 0.30777 0.0
C679 C 0.36385 0.1846 0.25806 0.0
C680 C 0.37609 0.21506 0.39758 0.0
C681 C 0.35117 0.18147 0.4375 0.0
C682 C 0.33012 0.15036 0.38564 0.0
C683 C 0.33724 0.15212 0.29654 0.0
C684 C 0.39932 0.24886 0.45054 0.0
C685 C 0.30215 0.1145 0.42487 0.0
H686 H 0.40036 0.16882 0.69586 0.0
H687 H 0.32239 0.20512 0.71128 0.0
H688 H 0.38085 0.13528 0.47837 0.0
H689 H 0.41782 0.18121 0.48359 0.0
H690 H 0.41337 0.1489 0.56553 0.0
H691 H 0.28305 0.19737 0.59196 0.0
H692 H 0.31701 0.22469 0.51287 0.0
H693 H 0.28659 0.17731 0.49183 0.0
H694 H 0.40278 0.24118 0.27794 0.0
H695 H 0.32361 0.12753 0.25775 0.0
H696 H 0.41832 0.24445 0.49147 0.0
H697 H 0.38204 0.25452 0.49451 0.0
H698 H 0.41558 0.27325 0.40935 0.0
H699 H 0.31616 0.10115 0.45553 0.0
H700 H 0.28305 0.09567 0.37523 0.0
H701 H 0.28621 0.11877 0.47591 0.0
loop_
_geom_bond_atom_site_label_1
_geom_bond_atom_site_label_2
_geom_bond_distance
_geom_bond_site_symmetry_2
_ccdc_geom_bond_type
Zn0 O6 1.920 . S
Zn0 O12 1.898 . S
Zn0 O15 1.905 . S
Zn1 O9 1.905 . S
Zn1 O10 1.898 . S
Zn1 O18 1.920 . S
Zn2 O5 2.080 . S
Zn2 O8 2.114 . S
Zn2 O11 2.120 . S
Zn2 O13 2.120 1_554 S
Zn2 O14 2.114 1_554 S
Zn2 O17 2.080 1_554 S
C3 O8 1.166 . S
C3 O9 1.182 . S
C4 O10 1.167 . S
C4 O11 1.299 . S
O5 Zn2 2.080 . S
O5 C19 1.305 1_554 S
O6 Zn0 1.920 . S
O6 C19 1.234 . S
C7 O12 1.167 . S
C7 O13 1.299 . S
O8 Zn2 2.114 . S
O8 C3 1.166 . S
O9 Zn1 1.905 . S
O9 C3 1.182 . S
O10 Zn1 1.898 . S
O10 C4 1.167 . S
O11 Zn2 2.120 . S
O11 C4 1.299 . S
O12 Zn0 1.898 . S
O12 C7 1.167 . S
O13 Zn2 2.120 1_556 S
O13 C7 1.299 . S
O14 Zn2 2.114 1_556 S
O14 C16 1.166 . S
O15 Zn0 1.905 . S
O15 C16 1.182 . S
C16 O14 1.166 . S
C16 O15 1.182 . S
O17 Zn2 2.080 1_556 S
O17 C20 1.305 1_556 S
O18 Zn1 1.920 . S
O18 C20 1.234 . S
C19 O5 1.305 1_556 S
C19 O6 1.234 . S
C20 O17 1.305 1_554 S
C20 O18 1.234 . S
Zn21 O27 1.920 . S
Zn21 O33 1.898 . S
Zn21 O36 1.905 . S
Zn22 O30 1.905 . S
Zn22 O31 1.898 . S
Zn22 O39 1.920 . S
Zn23 O26 2.080 . S
Zn23 O29 2.114 . S
Zn23 O32 2.120 . S
Zn23 O34 2.120 1_554 S
Zn23 O35 2.114 1_554 S
Zn23 O38 2.080 1_554 S
C24 O29 1.166 . S
C24 O30 1.182 . S
C25 O31 1.167 . S
C25 O32 1.299 . S
O26 Zn23 2.080 . S
O26 C40 1.305 1_554 S
O27 Zn21 1.920 . S
O27 C40 1.234 . S
C28 O33 1.167 . S
C28 O34 1.299 . S
O29 Zn23 2.114 . S
O29 C24 1.166 . S
O30 Zn22 1.905 . S
O30 C24 1.182 . S
O31 Zn22 1.898 . S
O31 C25 1.167 . S
O32 Zn23 2.120 . S
O32 C25 1.299 . S
O33 Zn21 1.898 . S
O33 C28 1.167 . S
O34 Zn23 2.120 1_556 S
O34 C28 1.299 . S
O35 Zn23 2.114 1_556 S
O35 C37 1.166 . S
O36 Zn21 1.905 . S
O36 C37 1.182 . S
C37 O35 1.166 . S
C37 O36 1.182 . S
O38 Zn23 2.080 1_556 S
O38 C41 1.305 1_556 S
O39 Zn22 1.920 . S
O39 C41 1.234 . S
C40 O26 1.305 1_556 S
C40 O27 1.234 . S
C41 O38 1.305 1_554 S
C41 O39 1.234 . S
Zn42 O48 1.920 . S
Zn42 O54 1.898 . S
Zn42 O57 1.905 . S
Zn43 O51 1.905 . S
Zn43 O52 1.898 . S
Zn43 O60 1.920 . S
Zn44 O47 2.080 1_554 S
Zn44 O50 2.114 1_554 S
Zn44 O53 2.120 1_554 S
Zn44 O55 2.120 . S
Zn44 O56 2.114 . S
Zn44 O59 2.080 . S
C45 O50 1.166 . S
C45 O51 1.182 . S
C46 O52 1.167 . S
C46 O53 1.299 . S
O47 Zn44 2.080 1_556 S
O47 C61 1.305 1_556 S
O48 Zn42 1.920 . S
O48 C61 1.234 . S
C49 O54 1.167 . S
C49 O55 1.299 . S
O50 Zn44 2.114 1_556 S
O50 C45 1.166 . S
O51 Zn43 1.905 . S
O51 C45 1.182 . S
O52 Zn43 1.898 . S
O52 C46 1.167 . S
O53 Zn44 2.120 1_556 S
O53 C46 1.299 . S
O54 Zn42 1.898 . S
O54 C49 1.167 . S
O55 Zn44 2.120 . S
O55 C49 1.299 . S
O56 Zn44 2.114 . S
O56 C58 1.166 . S
O57 Zn42 1.905 . S
O57 C58 1.182 . S
C58 O56 1.166 . S
C58 O57 1.182 . S
O59 Zn44 2.080 . S
O59 C62 1.305 1_554 S
O60 Zn43 1.920 . S
O60 C62 1.234 . S
C61 O47 1.305 1_554 S
C61 O48 1.234 . S
C62 O59 1.305 1_556 S
C62 O60 1.234 . S
Zn63 O69 1.920 . S
Zn63 O75 1.898 . S
Zn63 O78 1.905 . S
Zn64 O72 1.905 . S
Zn64 O73 1.898 . S
Zn64 O81 1.920 . S
Zn65 O68 2.080 1_554 S
Zn65 O71 2.114 1_554 S
Zn65 O74 2.120 1_554 S
Zn65 O76 2.120 . S
Zn65 O77 2.114 . S
Zn65 O80 2.080 . S
C66 O71 1.166 . S
C66 O72 1.182 . S
C67 O73 1.167 . S
C67 O74 1.299 . S
O68 Zn65 2.080 1_556 S
O68 C82 1.305 1_556 S
O69 Zn63 1.920 . S
O69 C82 1.234 . S
C70 O75 1.167 . S
C70 O76 1.299 . S
O71 Zn65 2.114 1_556 S
O71 C66 1.166 . S
O72 Zn64 1.905 . S
O72 C66 1.182 . S
O73 Zn64 1.898 . S
O73 C67 1.167 . S
O74 Zn65 2.120 1_556 S
O74 C67 1.299 . S
O75 Zn63 1.898 . S
O75 C70 1.167 . S
O76 Zn65 2.120 . S
O76 C70 1.299 . S
O77 Zn65 2.114 . S
O77 C79 1.166 . S
O78 Zn63 1.905 . S
O78 C79 1.182 . S
C79 O77 1.166 . S
C79 O78 1.182 . S
O80 Zn65 2.080 . S
O80 C83 1.305 1_554 S
O81 Zn64 1.920 . S
O81 C83 1.234 . S
C82 O68 1.305 1_554 S
C82 O69 1.234 . S
C83 O80 1.305 1_556 S
C83 O81 1.234 . S
Zn84 O90 1.920 . S
Zn84 O96 1.898 . S
Zn84 O99 1.905 . S
Zn85 O93 1.905 . S
Zn85 O94 1.898 . S
Zn85 O102 1.920 . S
Zn86 O89 2.080 1_554 S
Zn86 O92 2.114 1_554 S
Zn86 O95 2.120 1_554 S
Zn86 O97 2.120 . S
Zn86 O98 2.114 . S
Zn86 O101 2.080 . S
C87 O92 1.166 . S
C87 O93 1.182 . S
C88 O94 1.167 . S
C88 O95 1.299 . S
O89 Zn86 2.080 1_556 S
O89 C103 1.305 1_556 S
O90 Zn84 1.920 . S
O90 C103 1.234 . S
C91 O96 1.167 . S
C91 O97 1.299 . S
O92 Zn86 2.114 1_556 S
O92 C87 1.166 . S
O93 Zn85 1.905 . S
O93 C87 1.182 . S
O94 Zn85 1.898 . S
O94 C88 1.167 . S
O95 Zn86 2.120 1_556 S
O95 C88 1.299 . S
O96 Zn84 1.898 . S
O96 C91 1.167 . S
O97 Zn86 2.120 . S
O97 C91 1.299 . S
O98 Zn86 2.114 . S
O98 C100 1.166 . S
O99 Zn84 1.905 . S
O99 C100 1.182 . S
C100 O98 1.166 . S
C100 O99 1.182 . S
O101 Zn86 2.080 . S
O101 C104 1.305 1_554 S
O102 Zn85 1.920 . S
O102 C104 1.234 . S
C103 O89 1.305 1_554 S
C103 O90 1.234 . S
C104 O101 1.305 1_556 S
C104 O102 1.234 . S
Zn105 O111 1.920 . S
Zn105 O117 1.898 . S
Zn105 O120 1.905 . S
Zn106 O114 1.905 . S
Zn106 O115 1.898 . S
Zn106 O123 1.920 . S
Zn107 O110 2.080 . S
Zn107 O113 2.114 . S
Zn107 O116 2.120 . S
Zn107 O118 2.120 1_554 S
Zn107 O119 2.114 1_554 S
Zn107 O122 2.080 1_554 S
C108 O113 1.166 . S
C108 O114 1.182 . S
C109 O115 1.167 . S
C109 O116 1.299 . S
O110 Zn107 2.080 . S
O110 C124 1.305 1_554 S
O111 Zn105 1.920 . S
O111 C124 1.234 . S
C112 O117 1.167 . S
C112 O118 1.299 . S
O113 Zn107 2.114 . S
O113 C108 1.166 . S
O114 Zn106 1.905 . S
O114 C108 1.182 . S
O115 Zn106 1.898 . S
O115 C109 1.167 . S
O116 Zn107 2.120 . S
O116 C109 1.299 . S
O117 Zn105 1.898 . S
O117 C112 1.167 . S
O118 Zn107 2.120 1_556 S
O118 C112 1.299 . S
O119 Zn107 2.114 1_556 S
O119 C121 1.166 . S
O120 Zn105 1.905 . S
O120 C121 1.182 . S
C121 O119 1.166 . S
C121 O120 1.182 . S
O122 Zn107 2.080 1_556 S
O122 C125 1.305 1_556 S
O123 Zn106 1.920 . S
O123 C125 1.234 . S
C124 O110 1.305 1_556 S
C124 O111 1.234 . S
C125 O122 1.305 1_554 S
C125 O123 1.234 . S
C126 C127 1.391 . S
C126 C128 1.394 . S
C126 H142 0.931 . S
C127 C126 1.391 . S
C127 C131 1.376 1_554 S
C128 C126 1.394 . S
C128 C129 1.369 . S
C128 C132 1.531 . S
C129 C128 1.369 . S
C129 C130 1.410 1_554 S
C129 C137 1.503 . S
C130 C129 1.410 1_556 S
C130 C131 1.392 . S
C130 C133 1.511 . S
C131 C127 1.376 1_556 S
C131 C130 1.392 . S
C131 H143 0.929 . S
C132 C128 1.531 . S
C132 H144 0.960 . S
C132 H145 0.962 . S
C132 H146 0.960 . S
C133 C130 1.511 . S
C133 H147 0.961 . S
C133 H148 0.961 . S
C133 H149 0.961 . S
C134 C135 1.370 . S
C134 C136 1.363 . S
C134 H150 0.931 . S
C135 C134 1.370 . S
C135 C139 1.408 1_556 S
C136 C134 1.363 . S
C136 C137 1.370 1_556 S
C136 C140 1.524 . S
C137 C129 1.503 . S
C137 C136 1.370 1_554 S
C137 C138 1.403 . S
C138 C137 1.403 . S
C138 C139 1.404 . S
C138 C141 1.539 . S
C139 C135 1.408 1_554 S
C139 C138 1.404 . S
C139 H151 0.930 . S
C140 C136 1.524 . S
C140 H152 0.956 . S
C140 H153 0.961 . S
C140 H154 0.961 . S
C141 C138 1.539 . S
C141 H155 0.958 . S
C141 H156 0.961 . S
C141 H157 0.960 . S
H142 C126 0.931 . S
H143 C131 0.929 . S
H144 C132 0.960 . S
H145 C132 0.962 . S
H146 C132 0.960 . S
H147 C133 0.961 . S
H148 C133 0.961 . S
H149 C133 0.961 . S
H150 C134 0.931 . S
H151 C139 0.930 . S
H152 C140 0.956 . S
H153 C140 0.961 . S
H154 C140 0.961 . S
H155 C141 0.958 . S
H156 C141 0.961 . S
H157 C141 0.960 . S
C158 C159 1.391 . S
C158 C160 1.394 . S
C158 H174 0.931 . S
C159 C158 1.391 . S
C159 C163 1.376 . S
C160 C158 1.394 . S
C160 C161 1.369 . S
C160 C164 1.531 . S
C161 C160 1.369 . S
C161 C162 1.410 . S
C161 C169 1.503 1_455 S
C162 C161 1.410 . S
C162 C163 1.392 . S
C162 C165 1.511 . S
C163 C159 1.376 . S
C163 C162 1.392 . S
C163 H175 0.929 . S
C164 C160 1.531 . S
C164 H176 0.960 1_455 S
C164 H177 0.962 1_554 S
C164 H178 0.960 . S
C165 C162 1.511 . S
C165 H179 0.961 1_554 S
C165 H180 0.961 1_454 S
C165 H181 0.961 . S
C166 C167 1.370 . S
C166 C168 1.363 . S
C166 H182 0.931 . S
C167 C166 1.370 . S
C167 C171 1.408 1_556 S
C168 C166 1.363 . S
C168 C169 1.370 1_556 S
C168 C172 1.524 . S
C169 C161 1.503 1_655 S
C169 C168 1.370 1_554 S
C169 C170 1.403 . S
C170 C169 1.403 . S
C170 C171 1.404 . S
C170 C173 1.539 . S
C171 C167 1.408 1_554 S
C171 C170 1.404 . S
C171 H183 0.930 . S
C172 C168 1.524 . S
C172 H184 0.956 1_655 S
C172 H185 0.961 1_655 S
C172 H186 0.961 . S
C173 C170 1.539 . S
C173 H187 0.958 . S
C173 H188 0.961 . S
C173 H189 0.960 . S
H174 C158 0.931 . S
H175 C163 0.929 . S
H176 C164 0.960 1_655 S
H177 C164 0.962 1_556 S
H178 C164 0.960 . S
H179 C165 0.961 1_556 S
H180 C165 0.961 1_656 S
H181 C165 0.961 . S
H182 C166 0.931 . S
H183 C171 0.930 . S
H184 C172 0.956 1_455 S
H185 C172 0.961 1_455 S
H186 C172 0.961 . S
H187 C173 0.958 . S
H188 C173 0.961 . S
H189 C173 0.960 . S
C190 C191 1.391 1_556 S
C190 C192 1.394 . S
C190 H206 0.931 . S
C191 C190 1.391 1_554 S
C191 C195 1.376 . S
C192 C190 1.394 . S
C192 C193 1.369 . S
C192 C196 1.531 . S
C193 C192 1.369 . S
C193 C194 1.410 1_556 S
C193 C201 1.503 1_545 S
C194 C193 1.410 1_554 S
C194 C195 1.392 . S
C194 C197 1.511 . S
C195 C191 1.376 . S
C195 C194 1.392 . S
C195 H207 0.929 . S
C196 C192 1.531 . S
C196 H208 0.960 . S
C196 H209 0.962 . S
C196 H210 0.960 . S
C197 C194 1.511 . S
C197 H211 0.961 . S
C197 H212 0.961 1_545 S
C197 H213 0.961 . S
C198 C199 1.370 1_554 S
C198 C200 1.363 . S
C198 H214 0.931 . S
C199 C198 1.370 1_556 S
C199 C203 1.408 . S
C200 C198 1.363 . S
C200 C201 1.370 1_554 S
C200 C204 1.524 . S
C201 C193 1.503 1_565 S
C201 C200 1.370 1_556 S
C201 C202 1.403 . S
C202 C201 1.403 . S
C202 C203 1.404 . S
C202 C205 1.539 . S
C203 C199 1.408 . S
C203 C202 1.404 . S
C203 H215 0.930 . S
C204 C200 1.524 . S
C204 H216 0.956 . S
C204 H217 0.961 . S
C204 H218 0.961 . S
C205 C202 1.539 . S
C205 H219 0.958 . S
C205 H220 0.961 . S
C205 H221 0.960 1_565 S
H206 C190 0.931 . S
H207 C195 0.929 . S
H208 C196 0.960 . S
H209 C196 0.962 . S
H210 C196 0.960 . S
H211 C197 0.961 . S
H212 C197 0.961 1_565 S
H213 C197 0.961 . S
H214 C198 0.931 . S
H215 C203 0.930 . S
H216 C204 0.956 . S
H217 C204 0.961 . S
H218 C204 0.961 . S
H219 C205 0.958 . S
H220 C205 0.961 . S
H221 C205 0.960 1_545 S
C222 C223 1.391 1_554 S
C222 C224 1.394 . S
C222 H238 0.931 . S
C223 C222 1.391 1_556 S
C223 C227 1.376 . S
C224 C222 1.394 . S
C224 C225 1.369 . S
C224 C228 1.531 . S
C225 C224 1.369 . S
C225 C226 1.410 1_554 S
C225 C233 1.503 . S
C226 C225 1.410 1_556 S
C226 C227 1.392 . S
C226 C229 1.511 . S
C227 C223 1.376 . S
C227 C226 1.392 . S
C227 H239 0.929 . S
C228 C224 1.531 . S
C228 H240 0.960 . S
C228 H241 0.962 . S
C228 H242 0.960 . S
C229 C226 1.511 . S
C229 H243 0.961 . S
C229 H244 0.961 . S
C229 H245 0.961 . S
C230 C231 1.370 1_556 S
C230 C232 1.363 . S
C230 H246 0.931 . S
C231 C230 1.370 1_554 S
C231 C235 1.408 . S
C232 C230 1.363 . S
C232 C233 1.370 1_556 S
C232 C236 1.524 . S
C233 C225 1.503 . S
C233 C232 1.370 1_554 S
C233 C234 1.403 . S
C234 C233 1.403 . S
C234 C235 1.404 . S
C234 C237 1.539 . S
C235 C231 1.408 . S
C235 C234 1.404 . S
C235 H247 0.930 . S
C236 C232 1.524 . S
C236 H248 0.956 . S
C236 H249 0.961 . S
C236 H250 0.961 . S
C237 C234 1.539 . S
C237 H251 0.958 . S
C237 H252 0.961 . S
C237 H253 0.960 . S
H238 C222 0.931 . S
H239 C227 0.929 . S
H240 C228 0.960 . S
H241 C228 0.962 . S
H242 C228 0.960 . S
H243 C229 0.961 . S
H244 C229 0.961 . S
H245 C229 0.961 . S
H246 C230 0.931 . S
H247 C235 0.930 . S
H248 C236 0.956 . S
H249 C236 0.961 . S
H250 C236 0.961 . S
H251 C237 0.958 . S
H252 C237 0.961 . S
H253 C237 0.960 . S
C254 C255 1.391 . S
C254 C256 1.394 . S
C254 H270 0.931 . S
C255 C254 1.391 . S
C255 C259 1.373 1_556 S
C256 C254 1.394 . S
C256 C257 1.369 1_556 S
C256 C260 1.531 . S
C257 C256 1.369 1_554 S
C257 C258 1.410 . S
C257 C265 1.503 1_455 S
C258 C257 1.410 . S
C258 C259 1.395 . S
C258 C261 1.511 . S
C259 C255 1.373 1_554 S
C259 C258 1.395 . S
C259 H271 0.929 . S
C260 C256 1.531 . S
C260 H272 0.960 1_456 S
C260 H273 0.962 . S
C260 H274 0.960 1_556 S
C261 C258 1.511 . S
C261 H275 0.961 . S
C261 H276 0.961 1_455 S
C261 H277 0.961 . S
C262 C263 1.370 1_556 S
C262 C264 1.363 . S
C262 H278 0.931 . S
C263 C262 1.370 1_554 S
C263 C267 1.408 . S
C264 C262 1.363 . S
C264 C265 1.370 1_556 S
C264 C268 1.524 . S
C265 C257 1.503 1_655 S
C265 C264 1.370 1_554 S
C265 C266 1.403 . S
C266 C265 1.403 . S
C266 C267 1.404 . S
C266 C269 1.539 . S
C267 C263 1.408 . S
C267 C266 1.404 . S
C267 H279 0.930 . S
C268 C264 1.524 . S
C268 H280 0.956 . S
C268 H281 0.961 . S
C268 H282 0.961 . S
C269 C266 1.539 . S
C269 H283 0.958 . S
C269 H284 0.961 . S
C269 H285 0.960 1_655 S
H270 C254 0.931 . S
H271 C259 0.929 . S
H272 C260 0.960 1_654 S
H273 C260 0.962 . S
H274 C260 0.960 1_554 S
H275 C261 0.961 . S
H276 C261 0.961 1_655 S
H277 C261 0.961 . S
H278 C262 0.931 . S
H279 C267 0.930 . S
H280 C268 0.956 . S
H281 C268 0.961 . S
H282 C268 0.961 . S
H283 C269 0.958 . S
H284 C269 0.961 . S
H285 C269 0.960 1_455 S
C286 C287 1.391 . S
C286 C288 1.394 . S
C286 H302 0.931 . S
C287 C286 1.391 . S
C287 C291 1.376 1_554 S
C288 C286 1.394 . S
C288 C289 1.369 . S
C288 C292 1.531 . S
C289 C288 1.369 . S
C289 C290 1.410 1_554 S
C289 C297 1.503 1_564 S
C290 C289 1.410 1_556 S
C290 C291 1.392 . S
C290 C293 1.511 . S
C291 C287 1.376 1_556 S
C291 C290 1.392 . S
C291 H303 0.929 . S
C292 C288 1.531 . S
C292 H304 0.960 1_565 S
C292 H305 0.962 . S
C292 H306 0.960 . S
C293 C290 1.511 . S
C293 H307 0.961 . S
C293 H308 0.961 . S
C293 H309 0.961 . S
C294 C295 1.370 . S
C294 C296 1.363 . S
C294 H310 0.931 . S
C295 C294 1.370 . S
C295 C299 1.408 . S
C296 C294 1.363 . S
C296 C297 1.370 . S
C296 C300 1.524 1_556 S
C297 C289 1.503 1_546 S
C297 C296 1.370 . S
C297 C298 1.403 . S
C298 C297 1.403 . S
C298 C299 1.404 . S
C298 C301 1.539 . S
C299 C295 1.408 . S
C299 C298 1.404 . S
C299 H311 0.930 . S
C300 C296 1.524 1_554 S
C300 H312 0.956 . S
C300 H313 0.961 1_544 S
C300 H314 0.961 . S
C301 C298 1.539 . S
C301 H315 0.958 1_556 S
C301 H316 0.961 . S
C301 H317 0.960 1_545 S
H302 C286 0.931 . S
H303 C291 0.929 . S
H304 C292 0.960 1_545 S
H305 C292 0.962 . S
H306 C292 0.960 . S
H307 C293 0.961 . S
H308 C293 0.961 . S
H309 C293 0.961 . S
H310 C294 0.931 . S
H311 C299 0.930 . S
H312 C300 0.956 . S
H313 C300 0.961 1_566 S
H314 C300 0.961 . S
H315 C301 0.958 1_554 S
H316 C301 0.961 . S
H317 C301 0.960 1_565 S
C318 C319 1.391 . S
C318 C320 1.394 . S
C318 H334 0.931 . S
C319 C318 1.391 . S
C319 C323 1.376 1_554 S
C320 C318 1.394 . S
C320 C321 1.369 1_554 S
C320 C324 1.531 . S
C321 C320 1.369 1_556 S
C321 C322 1.410 . S
C321 C329 1.503 . S
C322 C321 1.410 . S
C322 C323 1.392 . S
C322 C325 1.511 . S
C323 C319 1.376 1_556 S
C323 C322 1.392 . S
C323 H335 0.929 . S
C324 C320 1.531 . S
C324 H336 0.960 . S
C324 H337 0.962 . S
C324 H338 0.960 . S
C325 C322 1.511 . S
C325 H339 0.961 . S
C325 H340 0.961 . S
C325 H341 0.961 . S
C326 C327 1.370 1_554 S
C326 C328 1.363 . S
C326 H342 0.931 . S
C327 C326 1.370 1_556 S
C327 C331 1.408 . S
C328 C326 1.363 . S
C328 C329 1.370 1_554 S
C328 C332 1.524 . S
C329 C321 1.503 . S
C329 C328 1.370 1_556 S
C329 C330 1.403 . S
C330 C329 1.403 . S
C330 C331 1.404 . S
C330 C333 1.539 . S
C331 C327 1.408 . S
C331 C330 1.404 . S
C331 H343 0.930 . S
C332 C328 1.524 . S
C332 H344 0.956 . S
C332 H345 0.961 . S
C332 H346 0.961 . S
C333 C330 1.539 . S
C333 H347 0.958 . S
C333 H348 0.961 . S
C333 H349 0.960 . S
H334 C318 0.931 . S
H335 C323 0.929 . S
H336 C324 0.960 . S
H337 C324 0.962 . S
H338 C324 0.960 . S
H339 C325 0.961 . S
H340 C325 0.961 . S
H341 C325 0.961 . S
H342 C326 0.931 . S
H343 C331 0.930 . S
H344 C332 0.956 . S
H345 C332 0.961 . S
H346 C332 0.961 . S
H347 C333 0.958 . S
H348 C333 0.961 . S
H349 C333 0.960 . S
C350 C351 1.391 . S
C350 C352 1.394 . S
C350 H366 0.931 . S
C351 C350 1.391 . S
C351 C355 1.376 1_554 S
C352 C350 1.394 . S
C352 C353 1.369 1_554 S
C352 C356 1.531 . S
C353 C352 1.369 1_556 S
C353 C354 1.410 . S
C353 C361 1.503 . S
C354 C353 1.410 . S
C354 C355 1.392 . S
C354 C357 1.511 . S
C355 C351 1.376 1_556 S
C355 C354 1.392 . S
C355 H367 0.929 . S
C356 C352 1.531 . S
C356 H368 0.960 . S
C356 H369 0.962 . S
C356 H370 0.960 . S
C357 C354 1.511 . S
C357 H371 0.961 . S
C357 H372 0.961 . S
C357 H373 0.961 . S
C358 C359 1.370 1_554 S
C358 C360 1.363 . S
C358 H374 0.931 . S
C359 C358 1.370 1_556 S
C359 C363 1.408 . S
C360 C358 1.363 . S
C360 C361 1.370 1_554 S
C360 C364 1.524 . S
C361 C353 1.503 . S
C361 C360 1.370 1_556 S
C361 C362 1.403 . S
C362 C361 1.403 . S
C362 C363 1.404 . S
C362 C365 1.539 . S
C363 C359 1.408 . S
C363 C362 1.404 . S
C363 H375 0.930 . S
C364 C360 1.524 . S
C364 H376 0.956 . S
C364 H377 0.961 . S
C364 H378 0.961 . S
C365 C362 1.539 . S
C365 H379 0.958 . S
C365 H380 0.961 . S
C365 H381 0.960 . S
H366 C350 0.931 . S
H367 C355 0.929 . S
H368 C356 0.960 . S
H369 C356 0.962 . S
H370 C356 0.960 . S
H371 C357 0.961 . S
H372 C357 0.961 . S
H373 C357 0.961 . S
H374 C358 0.931 . S
H375 C363 0.930 . S
H376 C364 0.956 . S
H377 C364 0.961 . S
H378 C364 0.961 . S
H379 C365 0.958 . S
H380 C365 0.961 . S
H381 C365 0.960 . S
C382 C383 1.391 . S
C382 C384 1.394 . S
C382 H398 0.931 . S
C383 C382 1.391 . S
C383 C387 1.376 1_556 S
C384 C382 1.394 . S
C384 C385 1.369 . S
C384 C388 1.531 . S
C385 C384 1.369 . S
C385 C386 1.410 1_556 S
C385 C393 1.503 . S
C386 C385 1.410 1_554 S
C386 C387 1.392 . S
C386 C389 1.511 . S
C387 C383 1.376 1_554 S
C387 C386 1.392 . S
C387 H399 0.929 . S
C388 C384 1.531 . S
C388 H400 0.960 . S
C388 H401 0.962 . S
C388 H402 0.960 . S
C389 C386 1.511 . S
C389 H403 0.961 . S
C389 H404 0.961 . S
C389 H405 0.961 . S
C390 C391 1.370 . S
C390 C392 1.363 . S
C390 H406 0.931 . S
C391 C390 1.370 . S
C391 C395 1.408 1_554 S
C392 C390 1.363 . S
C392 C393 1.370 1_554 S
C392 C396 1.524 . S
C393 C385 1.503 . S
C393 C392 1.370 1_556 S
C393 C394 1.403 . S
C394 C393 1.403 . S
C394 C395 1.404 . S
C394 C397 1.539 . S
C395 C391 1.408 1_556 S
C395 C394 1.404 . S
C395 H407 0.930 . S
C396 C392 1.524 . S
C396 H408 0.956 . S
C396 H409 0.961 . S
C396 H410 0.961 . S
C397 C394 1.539 . S
C397 H411 0.958 . S
C397 H412 0.961 . S
C397 H413 0.960 . S
H398 C382 0.931 . S
H399 C387 0.929 . S
H400 C388 0.960 . S
H401 C388 0.962 . S
H402 C388 0.960 . S
H403 C389 0.961 . S
H404 C389 0.961 . S
H405 C389 0.961 . S
H406 C390 0.931 . S
H407 C395 0.930 . S
H408 C396 0.956 . S
H409 C396 0.961 . S
H410 C396 0.961 . S
H411 C397 0.958 . S
H412 C397 0.961 . S
H413 C397 0.960 . S
C414 C415 1.391 . S
C414 C416 1.394 . S
C414 H430 0.931 . S
C415 C414 1.391 . S
C415 C419 1.376 1_556 S
C416 C414 1.394 . S
C416 C417 1.369 . S
C416 C420 1.531 . S
C417 C416 1.369 . S
C417 C418 1.410 1_556 S
C417 C425 1.503 . S
C418 C417 1.410 1_554 S
C418 C419 1.392 . S
C418 C421 1.511 . S
C419 C415 1.376 1_554 S
C419 C418 1.392 . S
C419 H431 0.929 . S
C420 C416 1.531 . S
C420 H432 0.960 . S
C420 H433 0.962 . S
C420 H434 0.960 . S
C421 C418 1.511 . S
C421 H435 0.961 . S
C421 H436 0.961 . S
C421 H437 0.961 . S
C422 C423 1.370 . S
C422 C424 1.363 . S
C422 H438 0.931 . S
C423 C422 1.370 . S
C423 C427 1.408 1_554 S
C424 C422 1.363 . S
C424 C425 1.370 1_554 S
C424 C428 1.524 . S
C425 C417 1.503 . S
C425 C424 1.370 1_556 S
C425 C426 1.403 . S
C426 C425 1.403 . S
C426 C427 1.404 . S
C426 C429 1.539 . S
C427 C423 1.408 1_556 S
C427 C426 1.404 . S
C427 H439 0.930 . S
C428 C424 1.524 . S
C428 H440 0.956 . S
C428 H441 0.961 . S
C428 H442 0.961 . S
C429 C426 1.539 . S
C429 H443 0.958 . S
C429 H444 0.961 . S
C429 H445 0.960 . S
H430 C414 0.931 . S
H431 C419 0.929 . S
H432 C420 0.960 . S
H433 C420 0.962 . S
H434 C420 0.960 . S
H435 C421 0.961 . S
H436 C421 0.961 . S
H437 C421 0.961 . S
H438 C422 0.931 . S
H439 C427 0.930 . S
H440 C428 0.956 . S
H441 C428 0.961 . S
H442 C428 0.961 . S
H443 C429 0.958 . S
H444 C429 0.961 . S
H445 C429 0.960 . S
C446 C447 1.391 1_554 S
C446 C448 1.394 . S
C446 H462 0.931 . S
C447 C446 1.391 1_556 S
C447 C451 1.376 . S
C448 C446 1.394 . S
C448 C449 1.369 1_554 S
C448 C452 1.531 . S
C449 C448 1.369 1_556 S
C449 C450 1.410 . S
C449 C457 1.503 1_556 S
C450 C449 1.410 . S
C450 C451 1.392 . S
C450 C453 1.511 . S
C451 C447 1.376 . S
C451 C450 1.392 . S
C451 H463 0.929 . S
C452 C448 1.531 . S
C452 H464 0.960 . S
C452 H465 0.962 . S
C452 H466 0.960 . S
C453 C450 1.511 . S
C453 H467 0.961 . S
C453 H468 0.961 . S
C453 H469 0.961 . S
C454 C455 1.370 . S
C454 C456 1.363 . S
C454 H470 0.931 . S
C455 C454 1.370 . S
C455 C459 1.408 . S
C456 C454 1.363 . S
C456 C457 1.370 . S
C456 C460 1.524 1_554 S
C457 C449 1.503 1_554 S
C457 C456 1.370 . S
C457 C458 1.403 . S
C458 C457 1.403 . S
C458 C459 1.404 . S
C458 C461 1.539 . S
C459 C455 1.408 . S
C459 C458 1.404 . S
C459 H471 0.930 . S
C460 C456 1.524 1_556 S
C460 H472 0.956 1_556 S
C460 H473 0.961 . S
C460 H474 0.961 . S
C461 C458 1.539 . S
C461 H475 0.958 . S
C461 H476 0.961 . S
C461 H477 0.960 1_554 S
H462 C446 0.931 . S
H463 C451 0.929 . S
H464 C452 0.960 . S
H465 C452 0.962 . S
H466 C452 0.960 . S
H467 C453 0.961 . S
H468 C453 0.961 . S
H469 C453 0.961 . S
H470 C454 0.931 . S
H471 C459 0.930 . S
H472 C460 0.956 1_554 S
H473 C460 0.961 . S
H474 C460 0.961 . S
H475 C461 0.958 . S
H476 C461 0.961 . S
H477 C461 0.960 1_556 S
C478 C479 1.391 . S
C478 C480 1.394 . S
C478 H494 0.931 . S
C479 C478 1.391 . S
C479 C483 1.376 1_554 S
C480 C478 1.394 . S
C480 C481 1.369 1_554 S
C480 C484 1.531 . S
C481 C480 1.369 1_556 S
C481 C482 1.410 . S
C481 C489 1.503 . S
C482 C481 1.410 . S
C482 C483 1.392 . S
C482 C485 1.511 . S
C483 C479 1.376 1_556 S
C483 C482 1.392 . S
C483 H495 0.929 . S
C484 C480 1.531 . S
C484 H496 0.960 . S
C484 H497 0.962 . S
C484 H498 0.960 . S
C485 C482 1.511 . S
C485 H499 0.961 . S
C485 H500 0.961 . S
C485 H501 0.961 . S
C486 C487 1.370 1_554 S
C486 C488 1.363 . S
C486 H502 0.931 . S
C487 C486 1.370 1_556 S
C487 C491 1.408 . S
C488 C486 1.363 . S
C488 C489 1.370 1_554 S
C488 C492 1.524 . S
C489 C481 1.503 . S
C489 C488 1.370 1_556 S
C489 C490 1.403 . S
C490 C489 1.403 . S
C490 C491 1.404 . S
C490 C493 1.539 . S
C491 C487 1.408 . S
C491 C490 1.404 . S
C491 H503 0.930 . S
C492 C488 1.524 . S
C492 H504 0.956 . S
C492 H505 0.961 . S
C492 H506 0.961 . S
C493 C490 1.539 . S
C493 H507 0.958 . S
C493 H508 0.961 . S
C493 H509 0.960 . S
H494 C478 0.931 . S
H495 C483 0.929 . S
H496 C484 0.960 . S
H497 C484 0.962 . S
H498 C484 0.960 . S
H499 C485 0.961 . S
H500 C485 0.961 . S
H501 C485 0.961 . S
H502 C486 0.931 . S
H503 C491 0.930 . S
H504 C492 0.956 . S
H505 C492 0.961 . S
H506 C492 0.961 . S
H507 C493 0.958 . S
H508 C493 0.961 . S
H509 C493 0.960 . S
C510 C511 1.391 . S
C510 C512 1.394 . S
C510 H526 0.931 . S
C511 C510 1.391 . S
C511 C515 1.376 . S
C512 C510 1.394 . S
C512 C513 1.369 . S
C512 C516 1.531 . S
C513 C512 1.369 . S
C513 C514 1.410 . S
C513 C521 1.503 . S
C514 C513 1.410 . S
C514 C515 1.392 . S
C514 C517 1.511 . S
C515 C511 1.376 . S
C515 C514 1.392 . S
C515 H527 0.929 . S
C516 C512 1.531 . S
C516 H528 0.960 . S
C516 H529 0.962 . S
C516 H530 0.960 . S
C517 C514 1.511 . S
C517 H531 0.961 . S
C517 H532 0.961 . S
C517 H533 0.961 . S
C518 C519 1.370 . S
C518 C520 1.363 . S
C518 H534 0.931 . S
C519 C518 1.370 . S
C519 C523 1.408 . S
C520 C518 1.363 . S
C520 C521 1.370 . S
C520 C524 1.524 . S
C521 C513 1.503 . S
C521 C520 1.370 . S
C521 C522 1.403 . S
C522 C521 1.403 . S
C522 C523 1.404 . S
C522 C525 1.539 . S
C523 C519 1.408 . S
C523 C522 1.404 . S
C523 H535 0.930 . S
C524 C520 1.524 . S
C524 H536 0.956 . S
C524 H537 0.961 . S
C524 H538 0.961 . S
C525 C522 1.539 . S
C525 H539 0.958 . S
C525 H540 0.961 . S
C525 H541 0.960 . S
H526 C510 0.931 . S
H527 C515 0.929 . S
H528 C516 0.960 . S
H529 C516 0.962 . S
H530 C516 0.960 . S
H531 C517 0.961 . S
H532 C517 0.961 . S
H533 C517 0.961 . S
H534 C518 0.931 . S
H535 C523 0.930 . S
H536 C524 0.956 . S
H537 C524 0.961 . S
H538 C524 0.961 . S
H539 C525 0.958 . S
H540 C525 0.961 . S
H541 C525 0.960 . S
C542 C543 1.391 . S
C542 C544 1.394 . S
C542 H558 0.931 . S
C543 C542 1.391 . S
C543 C547 1.376 . S
C544 C542 1.394 . S
C544 C545 1.369 . S
C544 C548 1.531 . S
C545 C544 1.369 . S
C545 C546 1.410 . S
C545 C553 1.503 . S
C546 C545 1.410 . S
C546 C547 1.392 . S
C546 C549 1.511 . S
C547 C543 1.376 . S
C547 C546 1.392 . S
C547 H559 0.929 . S
C548 C544 1.531 . S
C548 H560 0.960 . S
C548 H561 0.962 . S
C548 H562 0.960 . S
C549 C546 1.511 . S
C549 H563 0.961 . S
C549 H564 0.961 . S
C549 H565 0.961 . S
C550 C551 1.370 . S
C550 C552 1.363 . S
C550 H566 0.931 . S
C551 C550 1.370 . S
C551 C555 1.408 . S
C552 C550 1.363 . S
C552 C553 1.370 . S
C552 C556 1.524 . S
C553 C545 1.503 . S
C553 C552 1.370 . S
C553 C554 1.403 . S
C554 C553 1.403 . S
C554 C555 1.404 . S
C554 C557 1.539 . S
C555 C551 1.408 . S
C555 C554 1.404 . S
C555 H567 0.930 . S
C556 C552 1.524 . S
C556 H568 0.956 . S
C556 H569 0.961 . S
C556 H570 0.961 . S
C557 C554 1.539 . S
C557 H571 0.958 . S
C557 H572 0.961 . S
C557 H573 0.960 . S
H558 C542 0.931 . S
H559 C547 0.929 . S
H560 C548 0.960 . S
H561 C548 0.962 . S
H562 C548 0.960 . S
H563 C549 0.961 . S
H564 C549 0.961 . S
H565 C549 0.961 . S
H566 C550 0.931 . S
H567 C555 0.930 . S
H568 C556 0.956 . S
H569 C556 0.961 . S
H570 C556 0.961 . S
H571 C557 0.958 . S
H572 C557 0.961 . S
H573 C557 0.960 . S
C574 C575 1.391 . S
C574 C576 1.394 . S
C574 H590 0.931 . S
C575 C574 1.391 . S
C575 C579 1.376 . S
C576 C574 1.394 . S
C576 C577 1.369 . S
C576 C580 1.531 . S
C577 C576 1.369 . S
C577 C578 1.410 . S
C577 C585 1.503 . S
C578 C577 1.410 . S
C578 C579 1.392 . S
C578 C581 1.511 . S
C579 C575 1.376 . S
C579 C578 1.392 . S
C579 H591 0.929 . S
C580 C576 1.531 . S
C580 H592 0.960 . S
C580 H593 0.962 . S
C580 H594 0.960 . S
C581 C578 1.511 . S
C581 H595 0.961 . S
C581 H596 0.961 . S
C581 H597 0.961 . S
C582 C583 1.370 . S
C582 C584 1.363 . S
C582 H598 0.931 . S
C583 C582 1.370 . S
C583 C587 1.408 . S
C584 C582 1.363 . S
C584 C585 1.370 . S
C584 C588 1.524 . S
C585 C577 1.503 . S
C585 C584 1.370 . S
C585 C586 1.403 . S
C586 C585 1.403 . S
C586 C587 1.404 . S
C586 C589 1.539 . S
C587 C583 1.408 . S
C587 C586 1.404 . S
C587 H599 0.930 . S
C588 C584 1.524 . S
C588 H600 0.956 . S
C588 H601 0.961 . S
C588 H602 0.961 . S
C589 C586 1.539 . S
C589 H603 0.958 . S
C589 H604 0.961 . S
C589 H605 0.960 . S
H590 C574 0.931 . S
H591 C579 0.929 . S
H592 C580 0.960 . S
H593 C580 0.962 . S
H594 C580 0.960 . S
H595 C581 0.961 . S
H596 C581 0.961 . S
H597 C581 0.961 . S
H598 C582 0.931 . S
H599 C587 0.930 . S
H600 C588 0.956 . S
H601 C588 0.961 . S
H602 C588 0.961 . S
H603 C589 0.958 . S
H604 C589 0.961 . S
H605 C589 0.960 . S
C606 C607 1.391 . S
C606 C608 1.394 . S
C606 H622 0.931 . S
C607 C606 1.391 . S
C607 C611 1.376 . S
C608 C606 1.394 . S
C608 C609 1.369 . S
C608 C612 1.531 . S
C609 C608 1.369 . S
C609 C610 1.410 . S
C609 C617 1.503 . S
C610 C609 1.410 . S
C610 C611 1.392 . S
C610 C613 1.511 . S
C611 C607 1.376 . S
C611 C610 1.392 . S
C611 H623 0.929 . S
C612 C608 1.531 . S
C612 H624 0.960 . S
C612 H625 0.962 . S
C612 H626 0.960 . S
C613 C610 1.511 . S
C613 H627 0.961 . S
C613 H628 0.961 . S
C613 H629 0.961 . S
C614 C615 1.370 . S
C614 C616 1.363 . S
C614 H630 0.931 . S
C615 C614 1.370 . S
C615 C619 1.408 . S
C616 C614 1.363 . S
C616 C617 1.370 . S
C616 C620 1.524 . S
C617 C609 1.503 . S
C617 C616 1.370 . S
C617 C618 1.403 . S
C618 C617 1.403 . S
C618 C619 1.404 . S
C618 C621 1.539 . S
C619 C615 1.408 . S
C619 C618 1.404 . S
C619 H631 0.930 . S
C620 C616 1.524 . S
C620 H632 0.956 . S
C620 H633 0.961 . S
C620 H634 0.961 . S
C621 C618 1.539 . S
C621 H635 0.958 . S
C621 H636 0.961 . S
C621 H637 0.960 . S
H622 C606 0.931 . S
H623 C611 0.929 . S
H624 C612 0.960 . S
H625 C612 0.962 . S
H626 C612 0.960 . S
H627 C613 0.961 . S
H628 C613 0.961 . S
H629 C613 0.961 . S
H630 C614 0.931 . S
H631 C619 0.930 . S
H632 C620 0.956 . S
H633 C620 0.961 . S
H634 C620 0.961 . S
H635 C621 0.958 . S
H636 C621 0.961 . S
H637 C621 0.960 . S
C638 C639 1.391 . S
C638 C640 1.394 . S
C638 H654 0.931 . S
C639 C638 1.391 . S
C639 C643 1.376 . S
C640 C638 1.394 . S
C640 C641 1.369 . S
C640 C644 1.531 . S
C641 C640 1.369 . S
C641 C642 1.410 . S
C641 C649 1.503 . S
C642 C641 1.410 . S
C642 C643 1.392 . S
C642 C645 1.511 . S
C643 C639 1.376 . S
C643 C642 1.392 . S
C643 H655 0.929 . S
C644 C640 1.531 . S
C644 H656 0.960 . S
C644 H657 0.962 . S
C644 H658 0.960 . S
C645 C642 1.511 . S
C645 H659 0.961 . S
C645 H660 0.961 . S
C645 H661 0.961 . S
C646 C647 1.370 . S
C646 C648 1.363 . S
C646 H662 0.931 . S
C647 C646 1.370 . S
C647 C651 1.408 . S
C648 C646 1.363 . S
C648 C649 1.370 . S
C648 C652 1.524 . S
C649 C641 1.503 . S
C649 C648 1.370 . S
C649 C650 1.403 . S
C650 C649 1.403 . S
C650 C651 1.404 . S
C650 C653 1.539 . S
C651 C647 1.408 . S
C651 C650 1.404 . S
C651 H663 0.930 . S
C652 C648 1.524 . S
C652 H664 0.956 . S
C652 H665 0.961 . S
C652 H666 0.961 . S
C653 C650 1.539 . S
C653 H667 0.958 . S
C653 H668 0.961 . S
C653 H669 0.960 . S
H654 C638 0.931 . S
H655 C643 0.929 . S
H656 C644 0.960 . S
H657 C644 0.962 . S
H658 C644 0.960 . S
H659 C645 0.961 . S
H660 C645 0.961 . S
H661 C645 0.961 . S
H662 C646 0.931 . S
H663 C651 0.930 . S
H664 C652 0.956 . S
H665 C652 0.961 . S
H666 C652 0.961 . S
H667 C653 0.958 . S
H668 C653 0.961 . S
H669 C653 0.960 . S
C670 C671 1.391 . S
C670 C672 1.394 . S
C670 H686 0.931 . S
C671 C670 1.391 . S
C671 C675 1.376 . S
C672 C670 1.394 . S
C672 C673 1.369 . S
C672 C676 1.531 . S
C673 C672 1.369 . S
C673 C674 1.410 . S
C673 C681 1.503 . S
C674 C673 1.410 . S
C674 C675 1.392 . S
C674 C677 1.511 . S
C675 C671 1.376 . S
C675 C674 1.392 . S
C675 H687 0.929 . S
C676 C672 1.531 . S
C676 H688 0.960 . S
C676 H689 0.962 . S
C676 H690 0.960 . S
C677 C674 1.511 . S
C677 H691 0.961 . S
C677 H692 0.961 . S
C677 H693 0.961 . S
C678 C679 1.370 . S
C678 C680 1.363 . S
C678 H694 0.931 . S
C679 C678 1.370 . S
C679 C683 1.408 . S
C680 C678 1.363 . S
C680 C681 1.370 . S
C680 C684 1.524 . S
C681 C673 1.503 . S
C681 C680 1.370 . S
C681 C682 1.403 . S
C682 C681 1.403 . S
C682 C683 1.404 . S
C682 C685 1.539 . S
C683 C679 1.408 . S
C683 C682 1.404 . S
C683 H695 0.930 . S
C684 C680 1.524 . S
C684 H696 0.956 . S
C684 H697 0.961 . S
C684 H698 0.961 . S
C685 C682 1.539 . S
C685 H699 0.958 . S
C685 H700 0.961 . S
C685 H701 0.960 . S
H686 C670 0.931 . S
H687 C675 0.929 . S
H688 C676 0.960 . S
H689 C676 0.962 . S
H690 C676 0.960 . S
H691 C677 0.961 . S
H692 C677 0.961 . S
H693 C677 0.961 . S
H694 C678 0.931 . S
H695 C683 0.930 . S
H696 C684 0.956 . S
H697 C684 0.961 . S
H698 C684 0.961 . S
H699 C685 0.958 . S
H700 C685 0.961 . S
H701 C685 0.960 . S
C127 C121 1.279 1_554 S
C135 C3 1.258 1_556 S
C159 C16 1.324 1_554 S
C167 C24 1.254 1_556 S
C191 C37 1.246 1_554 S
C199 C58 1.305 1_556 S
C223 C79 1.273 1_556 S
C231 C45 1.301 1_554 S
C255 C100 1.219 1_556 S
C263 C66 1.302 1_554 S
C287 C87 1.238 1_554 S
C295 C108 1.273 1_556 S
C319 C103 1.434 . S
C327 C19 1.426 . S
C351 C125 1.413 . S
C359 C40 1.421 . S
C383 C62 1.400 . S
C391 C20 1.430 . S
C415 C83 1.396 . S
C423 C41 1.425 . S
C447 C104 1.466 . S
C455 C61 1.449 . S
C479 C82 1.418 . S
C487 C124 1.422 . S
C511 C7 1.333 . S
C519 C4 1.301 . S
C543 C28 1.242 . S
C551 C25 1.318 . S
C575 C46 1.237 . S
C583 C49 1.313 . S
C607 C67 1.293 . S
C615 C70 1.316 . S
C639 C91 1.337 . S
C647 C88 1.299 . S
C671 C112 1.318 . S
C679 C109 1.308 . S
