# Generated by pormake.
# Topology hbo, (4)-cn, num edge types: 1
# Building blocks:
#     Node 0, Type 0, BuildingBlock: KUFVIS_clean_sbu_0, # of connection points: 4
#     Node 1, Type 0, BuildingBlock: KUFVIS_clean_sbu_0, # of connection points: 4
#     Node 2, Type 0, BuildingBlock: KUFVIS_clean_sbu_0, # of connection points: 4
#     Node 3, Type 0, BuildingBlock: KUFVIS_clean_sbu_0, # of connection points: 4
#     Node 4, Type 0, BuildingBlock: KUFVIS_clean_sbu_0, # of connection points: 4
#     Node 5, Type 0, BuildingBlock: KUFVIS_clean_sbu_0, # of connection points: 4
#     Node 6, Type 0, BuildingBlock: KUFVIS_clean_sbu_0, # of connection points: 4
#     Node 7, Type 0, BuildingBlock: KUFVIS_clean_sbu_0, # of connection points: 4
#     Node 8, Type 0, BuildingBlock: KUFVIS_clean_sbu_0, # of connection points: 4
#     Node 9, Type 0, BuildingBlock: KUFVIS_clean_sbu_0, # of connection points: 4
#     Node 10, Type 0, BuildingBlock: KUFVIS_clean_sbu_0, # of connection points: 4
#     Node 11, Type 0, BuildingBlock: KUFVIS_clean_sbu_0, # of connection points: 4
#     Node 12, Type 0, BuildingBlock: KUFVIS_clean_sbu_0, # of connection points: 4
#     Node 13, Type 0, BuildingBlock: KUFVIS_clean_sbu_0, # of connection points: 4
#     Node 14, Type 0, BuildingBlock: KUFVIS_clean_sbu_0, # of connection points: 4
#     Node 15, Type 0, BuildingBlock: KUFVIS_clean_sbu_0, # of connection points: 4
#     Node 16, Type 0, BuildingBlock: KUFVIS_clean_sbu_0, # of connection points: 4
#     Node 17, Type 0, BuildingBlock: KUFVIS_clean_sbu_0, # of connection points: 4
#     Node 18, Type 0, BuildingBlock: KUFVIS_clean_sbu_0, # of connection points: 4
#     Node 19, Type 0, BuildingBlock: KUFVIS_clean_sbu_0, # of connection points: 4
#     Node 20, Type 0, BuildingBlock: KUFVIS_clean_sbu_0, # of connection points: 4
#     Node 21, Type 0, BuildingBlock: KUFVIS_clean_sbu_0, # of connection points: 4
#     Node 22, Type 0, BuildingBlock: KUFVIS_clean_sbu_0, # of connection points: 4
#     Node 23, Type 0, BuildingBlock: KUFVIS_clean_sbu_0, # of connection points: 4
#     Edge 24, Type (0, 0), BuildingBlock: XIVTED_clean_linker_0, # of connection points: 2
#     Edge 25, Type (0, 0), BuildingBlock: XIVTED_clean_linker_0, # of connection points: 2
#     Edge 26, Type (0, 0), BuildingBlock: XIVTED_clean_linker_0, # of connection points: 2
#     Edge 27, Type (0, 0), BuildingBlock: XIVTED_clean_linker_0, # of connection points: 2
#     Edge 28, Type (0, 0), BuildingBlock: XIVTED_clean_linker_0, # of connection points: 2
#     Edge 29, Type (0, 0), BuildingBlock: XIVTED_clean_linker_0, # of connection points: 2
#     Edge 30, Type (0, 0), BuildingBlock: XIVTED_clean_linker_0, # of connection points: 2
#     Edge 31, Type (0, 0), BuildingBlock: XIVTED_clean_linker_0, # of connection points: 2
#     Edge 32, Type (0, 0), BuildingBlock: XIVTED_clean_linker_0, # of connection points: 2
#     Edge 33, Type (0, 0), BuildingBlock: XIVTED_clean_linker_0, # of connection points: 2
#     Edge 34, Type (0, 0), BuildingBlock: XIVTED_clean_linker_0, # of connection points: 2
#     Edge 35, Type (0, 0), BuildingBlock: XIVTED_clean_linker_0, # of connection points: 2
#     Edge 36, Type (0, 0), BuildingBlock: XIVTED_clean_linker_0, # of connection points: 2
#     Edge 37, Type (0, 0), BuildingBlock: XIVTED_clean_linker_0, # of connection points: 2
#     Edge 38, Type (0, 0), BuildingBlock: XIVTED_clean_linker_0, # of connection points: 2
#     Edge 39, Type (0, 0), BuildingBlock: XIVTED_clean_linker_0, # of connection points: 2
#     Edge 40, Type (0, 0), BuildingBlock: XIVTED_clean_linker_0, # of connection points: 2
#     Edge 41, Type (0, 0), BuildingBlock: XIVTED_clean_linker_0, # of connection points: 2
#     Edge 42, Type (0, 0), BuildingBlock: XIVTED_clean_linker_0, # of connection points: 2
#     Edge 43, Type (0, 0), BuildingBlock: XIVTED_clean_linker_0, # of connection points: 2
#     Edge 44, Type (0, 0), BuildingBlock: XIVTED_clean_linker_0, # of connection points: 2
#     Edge 45, Type (0, 0), BuildingBlock: XIVTED_clean_linker_0, # of connection points: 2
#     Edge 46, Type (0, 0), BuildingBlock: XIVTED_clean_linker_0, # of connection points: 2
#     Edge 47, Type (0, 0), BuildingBlock: XIVTED_clean_linker_0, # of connection points: 2
#     Edge 48, Type (0, 0), BuildingBlock: XIVTED_clean_linker_0, # of connection points: 2
#     Edge 49, Type (0, 0), BuildingBlock: XIVTED_clean_linker_0, # of connection points: 2
#     Edge 50, Type (0, 0), BuildingBlock: XIVTED_clean_linker_0, # of connection points: 2
#     Edge 51, Type (0, 0), BuildingBlock: XIVTED_clean_linker_0, # of connection points: 2
#     Edge 52, Type (0, 0), BuildingBlock: XIVTED_clean_linker_0, # of connection points: 2
#     Edge 53, Type (0, 0), BuildingBlock: XIVTED_clean_linker_0, # of connection points: 2
#     Edge 54, Type (0, 0), BuildingBlock: XIVTED_clean_linker_0, # of connection points: 2
#     Edge 55, Type (0, 0), BuildingBlock: XIVTED_clean_linker_0, # of connection points: 2
#     Edge 56, Type (0, 0), BuildingBlock: XIVTED_clean_linker_0, # of connection points: 2
#     Edge 57, Type (0, 0), BuildingBlock: XIVTED_clean_linker_0, # of connection points: 2
#     Edge 58, Type (0, 0), BuildingBlock: XIVTED_clean_linker_0, # of connection points: 2
#     Edge 59, Type (0, 0), BuildingBlock: XIVTED_clean_linker_0, # of connection points: 2
#     Edge 60, Type (0, 0), BuildingBlock: XIVTED_clean_linker_0, # of connection points: 2
#     Edge 61, Type (0, 0), BuildingBlock: XIVTED_clean_linker_0, # of connection points: 2
#     Edge 62, Type (0, 0), BuildingBlock: XIVTED_clean_linker_0, # of connection points: 2
#     Edge 63, Type (0, 0), BuildingBlock: XIVTED_clean_linker_0, # of connection points: 2
#     Edge 64, Type (0, 0), BuildingBlock: XIVTED_clean_linker_0, # of connection points: 2
#     Edge 65, Type (0, 0), BuildingBlock: XIVTED_clean_linker_0, # of connection points: 2
#     Edge 66, Type (0, 0), BuildingBlock: XIVTED_clean_linker_0, # of connection points: 2
#     Edge 67, Type (0, 0), BuildingBlock: XIVTED_clean_linker_0, # of connection points: 2
#     Edge 68, Type (0, 0), BuildingBlock: XIVTED_clean_linker_0, # of connection points: 2
#     Edge 69, Type (0, 0), BuildingBlock: XIVTED_clean_linker_0, # of connection points: 2
#     Edge 70, Type (0, 0), BuildingBlock: XIVTED_clean_linker_0, # of connection points: 2
#     Edge 71, Type (0, 0), BuildingBlock: XIVTED_clean_linker_0, # of connection points: 2
# Relax obj value: 0.252
# Max RMSD: 0.307
# Mean RMSD: 0.266
data_MOF--net-hbo--node1-KUFVIS_clean_sbu_0--edge1-XIVTED_clean_linker_0
_symmetry_space_group_name_H-M    P1
_symmetry_Int_Tables_number       1
_symmetry_cell_setting            triclinic
loop_
_symmetry_equiv_pos_as_xyz
'x, y, z'
_cell_length_a     51.540078
_cell_length_b     52.655554
_cell_length_c     52.502204
_cell_angle_alpha  9.637619
_cell_angle_beta   89.907676
_cell_angle_gamma 96.096994
loop_
_atom_site_label
_atom_site_type_symbol
_atom_site_fract_x
_atom_site_fract_y
_atom_site_fract_z
_atom_type_partial_charge
Mn0 Mn -0.06584 -1.44705 1.77561 0.0
Mn1 Mn -0.01405 -0.94745 1.28525 0.0
C2 C -0.01013 -1.25753 1.57564 0.0
C3 C -0.10576 -1.73754 2.04013 0.0
C4 C -0.03364 -1.21176 1.59236 0.0
O5 O -0.0985 -1.3961 1.7304 0.0
O6 O -0.06219 -1.06219 1.40064 0.0
C7 C -0.03216 -0.87652 1.1657 0.0
N8 N -0.00824 -0.84381 1.14935 0.0
C9 C 0.03617 -0.62815 0.9057 0.0
C10 C 0.01204 -0.65836 0.91882 0.0
C11 C -0.02228 -0.78339 1.04968 0.0
C12 C 0.02482 -0.72434 1.02443 0.0
H13 H -0.05857 -0.97332 1.26688 0.0
C14 C -0.09213 -1.23082 1.5688 0.0
O15 O -0.10344 -1.74008 2.06726 0.0
O16 O -0.0855 -1.56645 1.85978 0.0
N17 N 0.03338 -0.81382 1.15169 0.0
C18 C 0.05331 -0.80348 1.15965 0.0
C19 C 0.08831 -0.68621 1.03933 0.0
C20 C 0.10248 -0.5793 0.91075 0.0
C21 C 0.08157 -0.58898 0.90214 0.0
C22 C 0.04693 -0.70666 1.02403 0.0
H23 H 0.04253 -0.88527 1.25814 0.0
O24 O -0.02749 -1.44343 1.76498 0.0
O25 O -0.02616 -1.18914 1.50927 0.0
O26 O -0.0519 -1.37709 1.74396 0.0
O27 O -0.01835 -1.0439 1.41547 0.0
C28 C 0.09363 -0.48885 0.77958 0.0
C29 C 0.07094 -0.50879 0.7817 0.0
H30 H 0.01954 -0.58748 0.83021 0.0
H31 H -0.04106 -0.80822 1.06136 0.0
H32 H 0.1043 -0.67894 1.04631 0.0
H33 H 0.12943 -0.49074 0.81978 0.0
H34 H 0.12026 -0.39769 0.68458 0.0
H35 H 0.08046 -0.43268 0.6883 0.0
Mn36 Mn -0.47732 -4.99595 5.63807 0.0
Mn37 Mn -0.54254 -5.48545 6.12112 0.0
C38 C -0.46743 -5.21327 5.85884 0.0
C39 C -0.44636 -4.71441 5.38487 0.0
C40 C -0.51366 -5.22051 5.81208 0.0
O41 O -0.5189 -5.01971 5.66533 0.0
O42 O -0.55894 -5.34776 5.99735 0.0
C43 C -0.55975 -5.5768 6.26618 0.0
N44 N -0.54993 -5.60595 6.27273 0.0
C45 C -0.54809 -5.8456 6.52932 0.0
C46 C -0.55834 -5.81882 6.52596 0.0
C47 C -0.56417 -5.68378 6.39375 0.0
C48 C -0.54451 -5.73673 6.4005 0.0
H49 H -0.56397 -5.47191 6.16364 0.0
C50 C -0.54841 -5.17046 5.82182 0.0
O51 O -0.44628 -4.69816 5.34415 0.0
O52 O -0.46382 -4.89047 5.56845 0.0
N53 N -0.52851 -5.63008 6.25306 0.0
C54 C -0.5161 -5.62681 6.22671 0.0
C55 C -0.50755 -5.74724 6.34165 0.0
C56 C -0.51184 -5.86976 6.48243 0.0
C57 C -0.52458 -5.87039 6.50671 0.0
C58 C -0.53299 -5.74874 6.38936 0.0
H59 H -0.51263 -5.53279 6.11855 0.0
O60 O -0.44266 -5.03108 5.67217 0.0
O61 O -0.49669 -5.25943 5.90741 0.0
O62 O -0.48714 -5.06355 5.66699 0.0
O63 O -0.5366 -5.37687 5.97932 0.0
C64 C -0.52861 -5.98403 6.63998 0.0
C65 C -0.54033 -5.97162 6.65126 0.0
H66 H -0.56141 -5.89935 6.62251 0.0
H67 H -0.57189 -5.66138 6.38942 0.0
H68 H -0.4976 -5.7453 6.32145 0.0
H69 H -0.50507 -5.96174 6.57012 0.0
H70 H -0.52238 -6.07962 6.73272 0.0
H71 H -0.54277 -6.05727 6.752 0.0
Mn72 Mn 0.62041 -1.53744 2.21649 0.0
Mn73 Mn 0.59523 -1.99239 2.65664 0.0
C74 C 0.59877 -1.7564 2.4664 0.0
C75 C 0.60862 -1.32456 2.00274 0.0
C76 C 0.6691 -1.6168 2.28767 0.0
O77 O 0.61719 -1.56849 2.20919 0.0
O78 O 0.59426 -1.88712 2.51919 0.0
C79 C 0.52354 -2.21264 2.8602 0.0
N80 N 0.54694 -2.18855 2.8521 0.0
C81 C 0.50331 -2.47068 3.15633 0.0
C82 C 0.47873 -2.49942 3.16871 0.0
C83 C 0.48891 -2.36969 3.01987 0.0
C84 C 0.53745 -2.31305 2.99497 0.0
H85 H 0.53128 -2.11237 2.74534 0.0
C86 C 0.6049 -1.71967 2.34485 0.0
O87 O 0.6396 -1.25802 1.93666 0.0
O88 O 0.58459 -1.51412 2.19319 0.0
N89 N 0.59498 -2.10908 2.80286 0.0
C90 C 0.6217 -2.05169 2.76083 0.0
C91 C 0.61579 -2.16077 2.89067 0.0
C92 C 0.58252 -2.32761 3.06223 0.0
C93 C 0.55544 -2.3841 3.10259 0.0
C94 C 0.5629 -2.27081 2.96876 0.0
H95 H 0.64729 -1.92289 2.62856 0.0
O96 O 0.61725 -1.56742 2.28381 0.0
O97 O 0.59311 -1.81033 2.49594 0.0
O98 O 0.66377 -1.49981 2.17855 0.0
O99 O 0.64532 -1.80174 2.46643 0.0
C100 C 0.52128 -2.54569 3.26802 0.0
C101 C 0.49523 -2.58904 3.29494 0.0
H102 H 0.45198 -2.61919 3.2906 0.0
H103 H 0.47009 -2.39019 3.02778 0.0
H104 H 0.63681 -2.11585 2.85815 0.0
H105 H 0.57804 -2.41023 3.16102 0.0
H106 H 0.51472 -2.63591 3.37398 0.0
H107 H 0.46904 -2.71187 3.42115 0.0
Mn108 Mn 0.23783 -5.18686 5.55867 0.0
Mn109 Mn 0.3169 -4.74741 5.11728 0.0
C110 C 0.25424 -5.02601 5.36142 0.0
C111 C 0.18122 -5.37668 5.7573 0.0
C112 C 0.30087 -5.14291 5.50619 0.0
O113 O 0.25394 -5.10743 5.51619 0.0
O114 O 0.30606 -4.81109 5.21733 0.0
C115 C 0.30346 -4.49343 4.88769 0.0
N116 N 0.31424 -4.54116 4.91518 0.0
C117 C 0.32476 -4.28225 4.63302 0.0
C118 C 0.31412 -4.22898 4.60047 0.0
C119 C 0.30337 -4.33531 4.72861 0.0
C120 C 0.32454 -4.44022 4.79312 0.0
H121 H 0.29484 -4.57601 4.98696 0.0
C122 C 0.28206 -4.95173 5.37058 0.0
O123 O 0.19626 -5.45107 5.83087 0.0
O124 O 0.1997 -5.18856 5.56643 0.0
N125 N 0.33096 -4.66455 5.00078 0.0
C126 C 0.33957 -4.73814 5.05576 0.0
C127 C 0.3501 -4.65129 4.94558 0.0
C128 C 0.35205 -4.48853 4.77895 0.0
C129 C 0.34379 -4.41266 4.72272 0.0
C130 C 0.33368 -4.50446 4.83744 0.0
H131 H 0.33796 -4.86384 5.18426 0.0
O132 O 0.22871 -5.21445 5.54912 0.0
O133 O 0.26888 -4.93361 5.29141 0.0
O134 O 0.26917 -5.24808 5.61396 0.0
O135 O 0.32147 -4.95335 5.31792 0.0
C136 C 0.34458 -4.25193 4.55954 0.0
C137 C 0.33505 -4.18685 4.5148 0.0
H138 H 0.31381 -4.1079 4.47867 0.0
H139 H 0.29489 -4.29602 4.70532 0.0
H140 H 0.3565 -4.71046 4.98971 0.0
H141 H 0.35982 -4.42338 4.69567 0.0
H142 H 0.35215 -4.17857 4.46865 0.0
H143 H 0.33545 -4.06435 4.3901 0.0
Mn144 Mn -0.11064 -2.69699 2.84295 0.0
Mn145 Mn -0.05122 -2.74377 2.8796 0.0
C146 C -0.0546 -2.41839 2.56314 0.0
C147 C -0.14219 -2.67705 2.85265 0.0
C148 C -0.09758 -2.79838 2.89198 0.0
O149 O -0.13584 -2.98719 3.13801 0.0
O150 O -0.09225 -2.98767 3.13627 0.0
C151 C -0.03633 -2.76024 2.94975 0.0
N152 N -0.02538 -2.6769 2.84377 0.0
C153 C 0.03275 -2.4553 2.63849 0.0
C154 C 0.02213 -2.53973 2.74637 0.0
C155 C -0.01258 -2.69229 2.90213 0.0
C156 C 0.00791 -2.52876 2.69243 0.0
H157 H -0.06299 -2.87758 3.06959 0.0
C158 C -0.12317 -3.07154 3.22416 0.0
O159 O -0.15217 -2.72642 2.87794 0.0
O160 O -0.11496 -2.64686 2.82914 0.0
N161 N -0.00956 -2.51902 2.64242 0.0
C162 C -0.00363 -2.4483 2.54823 0.0
C163 C 0.02978 -2.29271 2.38652 0.0
C164 C 0.05679 -2.21374 2.32541 0.0
C165 C 0.05014 -2.29156 2.42706 0.0
C166 C 0.01633 -2.44706 2.58756 0.0
H167 H -0.02421 -2.50948 2.59549 0.0
O168 O -0.0782 -2.40632 2.54859 0.0
O169 O -0.06427 -2.59058 2.73966 0.0
O170 O -0.11277 -2.75292 2.85996 0.0
O171 O -0.07591 -2.80871 2.91165 0.0
C172 C 0.07566 -2.21834 2.37301 0.0
C173 C 0.06695 -2.2994 2.47795 0.0
H174 H 0.04036 -2.48764 2.71001 0.0
H175 H -0.02098 -2.75748 2.9854 0.0
H176 H 0.03471 -2.23387 2.30921 0.0
H177 H 0.08249 -2.09257 2.19953 0.0
H178 H 0.102 -2.09758 2.24898 0.0
H179 H 0.08674 -2.23972 2.43301 0.0
Mn180 Mn -0.33976 -5.73351 6.49391 0.0
Mn181 Mn -0.36843 -5.96248 6.66337 0.0
C182 C -0.38062 -5.75166 6.49026 0.0
C183 C -0.30145 -5.44345 6.23038 0.0
C184 C -0.38595 -6.17818 6.92713 0.0
O185 O -0.30403 -5.75229 6.50098 0.0
O186 O -0.32189 -5.86234 6.56947 0.0
C187 C -0.32302 -5.62903 6.29795 0.0
N188 N -0.35486 -5.78011 6.45593 0.0
C189 C -0.37994 -5.72088 6.36454 0.0
C190 C -0.34741 -5.56485 6.20101 0.0
C191 C -0.31883 -5.5184 6.1673 0.0
C192 C -0.38253 -5.82607 6.48978 0.0
H193 H -0.30101 -5.59343 6.27206 0.0
C194 C -0.30035 -5.79598 6.52192 0.0
O195 O -0.31784 -5.61673 6.41225 0.0
O196 O -0.30597 -5.43963 6.20242 0.0
N197 N -0.4135 -6.06313 6.75606 0.0
C198 C -0.44283 -6.20805 6.91182 0.0
C199 C -0.47369 -6.26637 6.9604 0.0
C200 C -0.47408 -6.17602 6.84921 0.0
C201 C -0.44355 -6.0271 6.68946 0.0
C202 C -0.41359 -5.97554 6.64837 0.0
H203 H -0.4427 -6.27852 6.99825 0.0
O204 O -0.37706 -5.71977 6.48309 0.0
O205 O -0.36042 -5.77218 6.49991 0.0
O206 O -0.3728 -6.03047 6.79588 0.0
O207 O -0.38424 -6.16496 6.88981 0.0
C208 C -0.44161 -5.92608 6.56789 0.0
C209 C -0.40985 -5.77366 6.40606 0.0
H210 H -0.34407 -5.47863 6.09942 0.0
H211 H -0.29364 -5.39775 6.04102 0.0
H212 H -0.49714 -6.38098 7.08352 0.0
H213 H -0.49795 -6.22191 6.88765 0.0
H214 H -0.46435 -5.96285 6.59616 0.0
H215 H -0.40867 -5.69565 6.31242 0.0
Mn216 Mn 0.44535 -1.95926 2.83719 0.0
Mn217 Mn 0.38855 -1.89506 2.78569 0.0
C218 C 0.45718 -1.67082 2.53974 0.0
C219 C 0.46366 -2.08526 2.9355 0.0
C220 C 0.43592 -1.84811 2.77907 0.0
O221 O 0.40263 -2.23372 3.11763 0.0
O222 O 0.36506 -2.18364 3.07137 0.0
C223 C 0.34665 -2.07861 2.92067 0.0
N224 N 0.36625 -1.9196 2.77926 0.0
C225 C 0.3579 -1.72853 2.56454 0.0
C226 C 0.3374 -1.89085 2.70858 0.0
C227 C 0.33183 -2.06644 2.88718 0.0
C228 C 0.37182 -1.74978 2.60672 0.0
H229 H 0.34242 -2.21359 3.05784 0.0
C230 C 0.37258 -2.29675 3.18288 0.0
O231 O 0.47184 -2.0518 2.92638 0.0
O232 O 0.44448 -2.04898 2.89125 0.0
N233 N 0.40743 -1.62375 2.51737 0.0
C234 C 0.42968 -1.47643 2.38844 0.0
C235 C 0.43893 -1.2887 2.19995 0.0
C236 C 0.42502 -1.25469 2.14644 0.0
C237 C 0.40188 -1.40906 2.28228 0.0
C238 C 0.39343 -1.59351 2.46856 0.0
H239 H 0.44057 -1.50118 2.42816 0.0
O240 O 0.4814 -1.67847 2.54922 0.0
O241 O 0.42652 -1.83443 2.70588 0.0
O242 O 0.4522 -1.87658 2.79262 0.0
O243 O 0.41095 -1.86077 2.78427 0.0
C244 C 0.38758 -1.38563 2.23825 0.0
C245 C 0.36564 -1.54515 2.37916 0.0
H246 H 0.32608 -1.88167 2.68286 0.0
H247 H 0.3162 -2.19191 2.99855 0.0
H248 H 0.45687 -1.1702 2.09579 0.0
H249 H 0.43253 -1.109 2.00005 0.0
H250 H 0.39377 -1.24446 2.0951 0.0
H251 H 0.35525 -1.52432 2.34235 0.0
Mn252 Mn -0.08855 -6.2512 6.52262 0.0
Mn253 Mn -0.10309 -6.29745 6.63159 0.0
C254 C -0.04614 -6.15884 6.45931 0.0
C255 C -0.07175 -6.05562 6.29289 0.0
C256 C -0.13122 -6.64577 6.94031 0.0
O257 O -0.13225 -6.29525 6.56955 0.0
O258 O -0.13425 -6.27096 6.58828 0.0
C259 C -0.08069 -5.90068 6.25111 0.0
N260 N -0.07818 -6.04348 6.39625 0.0
C261 C -0.03497 -5.84513 6.23186 0.0
C262 C -0.03729 -5.69657 6.08141 0.0
C263 C -0.06019 -5.72431 6.09087 0.0
C264 C -0.05618 -6.01822 6.38846 0.0
H265 H -0.09812 -5.92112 6.25742 0.0
C266 C -0.14508 -6.28616 6.58073 0.0
O267 O -0.08988 -6.24666 6.48006 0.0
O268 O -0.06439 -5.9808 6.24159 0.0
N269 N -0.07422 -6.32276 6.67536 0.0
C270 C -0.07367 -6.47518 6.82609 0.0
C271 C -0.05126 -6.4675 6.83479 0.0
C272 C -0.02983 -6.30395 6.68926 0.0
C273 C -0.03112 -6.14986 6.53674 0.0
C274 C -0.05417 -6.16646 6.53668 0.0
H275 H -0.09008 -6.60129 6.93839 0.0
O276 O -0.04427 -6.19266 6.46906 0.0
O277 O -0.07225 -6.17618 6.48273 0.0
O278 O -0.11514 -6.54617 6.82173 0.0
O279 O -0.12923 -6.56609 6.88263 0.0
C280 C -0.00998 -5.97867 6.38267 0.0
C281 C -0.01188 -5.82635 6.23025 0.0
H282 H -0.02135 -5.55974 5.95686 0.0
H283 H -0.06196 -5.60977 5.97464 0.0
H284 H -0.05041 -6.58702 6.95297 0.0
H285 H -0.01235 -6.29768 6.69541 0.0
H286 H 0.00819 -5.96135 6.3784 0.0
H287 H 0.00488 -5.6941 6.11097 0.0
Mn288 Mn -0.27738 -4.0807 4.94206 0.0
Mn289 Mn -0.3328 -3.99915 4.86653 0.0
C290 C -0.30547 -4.10152 4.92694 0.0
C291 C -0.26795 -4.30531 5.1675 0.0
C292 C -0.25618 -3.67122 4.54203 0.0
O293 O -0.28493 -4.08881 4.98825 0.0
O294 O -0.32687 -4.07314 4.97359 0.0
C295 C -0.39522 -4.4058 5.28081 0.0
N296 N -0.37833 -4.2421 5.10379 0.0
C297 C -0.42752 -4.39058 5.22429 0.0
C298 C -0.44554 -4.56039 5.40762 0.0
C299 C -0.42928 -4.56813 5.43606 0.0
C300 C -0.3937 -4.23298 5.07473 0.0
H301 H -0.38274 -4.41227 5.30316 0.0
C302 C -0.30696 -4.09239 5.00364 0.0
O303 O -0.24293 -4.11553 4.98139 0.0
O304 O -0.29807 -4.36314 5.22166 0.0
N305 N -0.34108 -3.92597 4.76284 0.0
C306 C -0.31953 -3.75643 4.58133 0.0
C307 C -0.33149 -3.72819 4.53144 0.0
C308 C -0.36551 -3.87349 4.66777 0.0
C309 C -0.38731 -4.04556 4.85267 0.0
C310 C -0.37402 -4.06492 4.89361 0.0
H311 H -0.29337 -3.64415 4.47587 0.0
O312 O -0.27835 -4.08154 4.90492 0.0
O313 O -0.31613 -4.11703 4.96537 0.0
O314 O -0.24796 -3.77781 4.64286 0.0
O315 O -0.28676 -3.74144 4.61444 0.0
C316 C -0.4215 -4.20058 4.99957 0.0
C317 C -0.44157 -4.37313 5.18538 0.0
H318 H -0.47175 -4.68639 5.52813 0.0
H319 H -0.44297 -4.69906 5.57744 0.0
H320 H -0.31451 -3.59499 4.38845 0.0
H321 H -0.37456 -3.85204 4.62947 0.0
H322 H -0.43245 -4.19004 4.97237 0.0
H323 H -0.46766 -4.49262 5.29819 0.0
Mn324 Mn 0.52991 -0.40057 1.1432 0.0
Mn325 Mn 0.5411 -0.17256 0.97322 0.0
C326 C 0.51323 -0.57398 1.35195 0.0
C327 C 0.55234 -0.47853 1.18984 0.0
C328 C 0.48274 -0.32858 1.09148 0.0
O329 O 0.5615 -0.11293 0.84898 0.0
O330 O 0.56942 0.02942 0.74623 0.0
C331 C 0.61282 0.01282 0.79845 0.0
N332 N 0.57998 -0.10904 0.92704 0.0
C333 C 0.59453 -0.18862 1.04408 0.0
C334 C 0.62854 -0.06276 0.91179 0.0
C335 C 0.63771 0.03824 0.78859 0.0
C336 C 0.57088 -0.20685 1.04619 0.0
H337 H 0.61994 0.08957 0.70455 0.0
C338 C 0.575 0.03871 0.71305 0.0
O339 O 0.52688 -0.48648 1.19216 0.0
O340 O 0.56509 -0.41941 1.15397 0.0
N341 N 0.5157 -0.34813 1.1749 0.0
C342 C 0.48166 -0.46916 1.29896 0.0
C343 C 0.46821 -0.58467 1.43543 0.0
C344 C 0.48989 -0.57318 1.44169 0.0
C345 C 0.5249 -0.44485 1.3101 0.0
C346 C 0.53688 -0.33228 1.17636 0.0
H347 H 0.46483 -0.47986 1.29598 0.0
O348 O 0.50147 -0.6659 1.42127 0.0
O349 O 0.5358 -0.38121 1.16047 0.0
O350 O 0.49052 -0.39725 1.14236 0.0
O351 O 0.50015 -0.24038 1.02447 0.0
C352 C 0.5483 -0.42716 1.30906 0.0
C353 C 0.58308 -0.29919 1.17619 0.0
H354 H 0.64778 -0.04376 0.90466 0.0
H355 H 0.66387 0.13478 0.68689 0.0
H356 H 0.44116 -0.68334 1.53649 0.0
H357 H 0.47937 -0.66419 1.54869 0.0
H358 H 0.53976 -0.51289 1.41126 0.0
H359 H 0.60077 -0.2883 1.1781 0.0
Mn360 Mn 0.17193 -4.79942 4.93962 0.0
Mn361 Mn 0.24648 -4.69314 4.82301 0.0
C362 C 0.20494 -4.75288 4.92714 0.0
C363 C 0.11345 -5.04617 5.18817 0.0
C364 C 0.23576 -4.39287 4.52139 0.0
O365 O 0.16961 -4.8619 4.96392 0.0
O366 O 0.21654 -4.82902 4.92724 0.0
C367 C 0.22328 -5.09938 5.22219 0.0
N368 N 0.24356 -4.91508 5.05052 0.0
C369 C 0.26906 -5.00194 5.16451 0.0
C370 C 0.24861 -5.19227 5.34199 0.0
C371 C 0.22559 -5.24121 5.371 0.0
C372 C 0.26585 -4.86622 5.02085 0.0
H373 H 0.20543 -5.13784 5.24541 0.0
C374 C 0.18881 -4.87789 4.96695 0.0
O375 O 0.12672 -4.86544 5.00374 0.0
O376 O 0.13398 -5.08226 5.22646 0.0
N377 N 0.27776 -4.56286 4.72198 0.0
C378 C 0.29407 -4.37731 4.54794 0.0
C379 C 0.31708 -4.30802 4.4996 0.0
C380 C 0.32327 -4.42945 4.62982 0.0
C381 C 0.30653 -4.61884 4.80687 0.0
C382 C 0.28408 -4.67933 4.84643 0.0
H383 H 0.28938 -4.2833 4.44731 0.0
O384 O 0.18107 -4.74381 4.92174 0.0
O385 O 0.20781 -4.79699 4.94789 0.0
O386 O 0.20547 -4.50041 4.63637 0.0
O387 O 0.25205 -4.45535 4.57976 0.0
C388 C 0.31062 -4.75174 4.9478 0.0
C389 C 0.29189 -4.94316 5.1265 0.0
H390 H 0.25012 -5.30262 5.4578 0.0
H391 H 0.20959 -5.38816 5.50805 0.0
H392 H 0.3299 -4.16167 4.36267 0.0
H393 H 0.34074 -4.37635 4.59307 0.0
H394 H 0.32769 -4.70939 4.92164 0.0
H395 H 0.29487 -5.04505 5.23498 0.0
Mn396 Mn 0.21479 -0.90587 1.1037 0.0
Mn397 Mn 0.2348 -0.96228 1.10109 0.0
C398 C 0.17966 -1.20391 1.37844 0.0
C399 C 0.18909 -0.82351 1.04823 0.0
C400 C 0.26572 -0.96949 1.15647 0.0
O401 O 0.2508 -0.62657 0.81603 0.0
O402 O 0.26437 -0.67314 0.82357 0.0
C403 C 0.2105 -0.78905 0.90036 0.0
N404 N 0.2091 -0.94555 1.0603 0.0
C405 C 0.1644 -1.15052 1.23245 0.0
C406 C 0.16556 -0.99099 1.06888 0.0
C407 C 0.18872 -0.8095 0.90215 0.0
C408 C 0.18697 -1.12074 1.22135 0.0
H409 H 0.22802 -0.64983 0.77261 0.0
C410 C 0.26814 -0.5629 0.73267 0.0
O411 O 0.21312 -0.81976 1.05317 0.0
O412 O 0.18123 -0.86634 1.06672 0.0
N413 N 0.20815 -1.23289 1.35815 0.0
C414 C 0.20937 -1.37418 1.50639 0.0
C415 C 0.18713 -1.56607 1.68582 0.0
C416 C 0.16406 -1.61025 1.71046 0.0
C417 C 0.16363 -1.46156 1.5547 0.0
C418 C 0.18658 -1.2726 1.3787 0.0
H419 H 0.22685 -1.34137 1.48874 0.0
O420 O 0.17855 -1.19251 1.39172 0.0
O421 O 0.20107 -1.03806 1.20208 0.0
O422 O 0.25046 -0.93632 1.1388 0.0
O423 O 0.26136 -0.98621 1.14886 0.0
C424 C 0.14091 -1.49437 1.56846 0.0
C425 C 0.1413 -1.33896 1.40744 0.0
H426 H 0.14861 -1.00665 1.07031 0.0
H427 H 0.18963 -0.68607 0.77582 0.0
H428 H 0.18761 -1.68006 1.80539 0.0
H429 H 0.1467 -1.75901 1.84986 0.0
H430 H 0.12279 -1.63913 1.70294 0.0
H431 H 0.12349 -1.36651 1.42047 0.0
Mn432 Mn 0.24035 -4.94089 5.59572 0.0
Mn433 Mn 0.20931 -5.4052 6.04163 0.0
C434 C 0.1837 -5.183 5.82533 0.0
C435 C 0.25565 -4.70809 5.39641 0.0
C436 C 0.25281 -5.05689 5.66063 0.0
O437 O 0.27729 -4.94508 5.61176 0.0
O438 O 0.25005 -5.27163 5.93118 0.0
C439 C 0.18777 -5.58528 6.27111 0.0
N440 N 0.18023 -5.58619 6.24713 0.0
C441 C 0.12296 -5.88967 6.55298 0.0
C442 C 0.13015 -5.8927 6.58162 0.0
C443 C 0.16267 -5.73946 6.4397 0.0
C444 C 0.14902 -5.73255 6.38242 0.0
H445 H 0.21275 -5.46775 6.16232 0.0
C446 C 0.27515 -5.09567 5.76438 0.0
O447 O 0.26907 -4.65336 5.31968 0.0
O448 O 0.23329 -4.89684 5.5875 0.0
N449 N 0.16942 -5.55196 6.16606 0.0
C450 C 0.16592 -5.51907 6.1089 0.0
C451 C 0.13445 -5.65407 6.23022 0.0
C452 C 0.10703 -5.82231 6.40975 0.0
C453 C 0.11133 -5.85398 6.46632 0.0
C454 C 0.1433 -5.71462 6.33964 0.0
H455 H 0.18693 -5.39056 5.97156 0.0
O456 O 0.19772 -4.99724 5.64026 0.0
O457 O 0.20291 -5.22032 5.87011 0.0
O458 O 0.25376 -4.93062 5.54862 0.0
O459 O 0.23836 -5.23244 5.84207 0.0
C460 C 0.08498 -6.01632 6.64158 0.0
C461 C 0.09077 -6.03396 6.6847 0.0
H462 H 0.11082 -6.01083 6.71098 0.0
H463 H 0.16836 -5.74025 6.46029 0.0
H464 H 0.13133 -5.62855 6.18549 0.0
H465 H 0.08275 -5.92543 6.50232 0.0
H466 H 0.05999 -6.1265 6.74244 0.0
H467 H 0.07012 -6.15735 6.81798 0.0
Mn468 Mn 0.64498 -1.49671 1.88575 0.0
Mn469 Mn 0.69948 -1.01812 1.43081 0.0
C470 C 0.63051 -1.30053 1.68666 0.0
C471 C 0.62676 -1.73668 2.09271 0.0
C472 C 0.65666 -1.365 1.81046 0.0
O473 O 0.68938 -1.4407 1.83436 0.0
O474 O 0.72527 -1.11105 1.51554 0.0
C475 C 0.73901 -0.82869 1.19598 0.0
N476 N 0.71891 -0.84521 1.23096 0.0
C477 C 0.72132 -0.58796 0.95757 0.0
C478 C 0.74229 -0.56702 0.9176 0.0
C479 C 0.75113 -0.68813 1.03753 0.0
C480 C 0.71037 -0.72876 1.11589 0.0
H481 H 0.74564 -0.92253 1.2887 0.0
C482 C 0.71914 -1.27458 1.67271 0.0
O483 O 0.62029 -1.78223 2.16174 0.0
O484 O 0.64406 -1.55192 1.90376 0.0
N485 N 0.67749 -0.91121 1.33183 0.0
C486 C 0.65464 -0.96223 1.40088 0.0
C487 C 0.64186 -0.86197 1.30342 0.0
C488 C 0.6527 -0.71035 1.13609 0.0
C489 C 0.67628 -0.66012 1.06747 0.0
C490 C 0.68839 -0.76389 1.16948 0.0
H491 H 0.64594 -1.07982 1.53045 0.0
O492 O 0.60718 -1.49226 1.8765 0.0
O493 O 0.66163 -1.22999 1.61917 0.0
O494 O 0.63997 -1.50043 1.92768 0.0
O495 O 0.68034 -1.18214 1.62426 0.0
C496 C 0.68752 -0.51491 0.90515 0.0
C497 C 0.71006 -0.47867 0.85008 0.0
H498 H 0.7514 -0.46029 0.79686 0.0
H499 H 0.7671 -0.67385 1.0085 0.0
H500 H 0.62352 -0.90237 1.35796 0.0
H501 H 0.64248 -0.635 1.06275 0.0
H502 H 0.67852 -0.43267 0.82378 0.0
H503 H 0.71806 -0.36904 0.72713 0.0
Mn504 Mn -0.52915 -5.68115 6.03585 0.0
Mn505 Mn -0.6 -6.09612 6.47207 0.0
C506 C -0.53057 -5.93921 6.30123 0.0
C507 C -0.50104 -5.49717 5.81732 0.0
C508 C -0.5499 -5.71215 6.1217 0.0
O509 O -0.56465 -5.65541 6.00453 0.0
O510 O -0.61219 -5.9512 6.3105 0.0
C511 C -0.63677 -6.31763 6.64406 0.0
N512 N -0.6227 -6.30593 6.65512 0.0
C513 C -0.63869 -6.62687 6.96619 0.0
C514 C -0.6536 -6.64312 6.95897 0.0
C515 C -0.65259 -6.48771 6.79708 0.0
C516 C -0.6236 -6.45473 6.81039 0.0
H517 H -0.63582 -6.19781 6.51914 0.0
C518 C -0.59659 -5.78025 6.13121 0.0
O519 O -0.49379 -5.41179 5.75499 0.0
O520 O -0.52393 -5.68891 6.0063 0.0
N521 N -0.59184 -6.24994 6.64235 0.0
C522 C -0.57466 -6.20613 6.62124 0.0
C523 C -0.57228 -6.34344 6.76745 0.0
C524 C -0.58769 -6.52448 6.93402 0.0
C525 C -0.60553 -6.56708 6.95344 0.0
C526 C -0.60736 -6.42543 6.80402 0.0
H527 H -0.56263 -6.06679 6.49304 0.0
O528 O -0.50173 -5.76255 6.12301 0.0
O529 O -0.5577 -5.96017 6.31842 0.0
O530 O -0.52754 -5.61646 6.00958 0.0
O531 O -0.57789 -5.8889 6.29369 0.0
C532 C -0.62098 -6.74277 7.11316 0.0
C533 C -0.63755 -6.77264 7.11954 0.0
H534 H -0.66558 -6.77332 7.07587 0.0
H535 H -0.66386 -6.49865 6.78989 0.0
H536 H -0.55844 -6.30939 6.7513 0.0
H537 H -0.58548 -6.62905 7.04538 0.0
H538 H -0.6199 -6.85478 7.23064 0.0
H539 H -0.64897 -6.90721 7.24186 0.0
Mn540 Mn -0.0541 -1.16463 1.78793 0.0
Mn541 Mn -0.0277 -0.72547 1.33278 0.0
C542 C 0.00247 -0.89301 1.5216 0.0
C543 C -0.07791 -1.38474 2.03944 0.0
C544 C -0.04574 -1.0582 1.62689 0.0
O545 O -0.09708 -1.20694 1.82554 0.0
O546 O -0.07695 -0.89638 1.5111 0.0
C547 C -0.03453 -0.57209 1.22856 0.0
N548 N -0.01487 -0.55145 1.18876 0.0
C549 C 0.03468 -0.24321 0.90118 0.0
C550 C 0.01488 -0.26007 0.93783 0.0
C551 C -0.01987 -0.42541 1.10243 0.0
C552 C 0.01859 -0.39286 1.03067 0.0
H553 H -0.06116 -0.7 1.35616 0.0
C554 C -0.10125 -1.08056 1.69798 0.0
O555 O -0.08053 -1.44767 2.07861 0.0
O556 O -0.06137 -1.19721 1.85708 0.0
N557 N 0.01944 -0.54637 1.14678 0.0
C558 C 0.03549 -0.5593 1.14013 0.0
C559 C 0.07064 -0.40953 0.98889 0.0
C560 C 0.08894 -0.24794 0.84595 0.0
C561 C 0.07188 -0.23726 0.85519 0.0
C562 C 0.03675 -0.38997 1.00823 0.0
H563 H 0.0217 -0.68377 1.25033 0.0
O564 O -0.00758 -1.07052 1.69902 0.0
O565 O -0.02126 -0.88047 1.50721 0.0
O566 O -0.05062 -1.17638 1.76099 0.0
O567 O -0.03927 -0.89423 1.46955 0.0
C568 C 0.08849 -0.08343 0.72121 0.0
C569 C 0.06991 -0.08633 0.7441 0.0
H570 H 0.02616 -0.14822 0.84199 0.0
H571 H -0.03527 -0.44033 1.13267 0.0
H572 H 0.08365 -0.41926 0.98326 0.0
H573 H 0.11611 -0.13382 0.73079 0.0
H574 H 0.11565 0.03642 0.60162 0.0
H575 H 0.08304 0.03135 0.64176 0.0
Mn576 Mn 0.17629 -4.15398 5.00328 0.0
Mn577 Mn 0.11422 -4.12823 4.98489 0.0
C578 C 0.12128 -4.42794 5.26643 0.0
C579 C 0.21763 -4.10675 4.93086 0.0
C580 C 0.14671 -4.17083 5.07132 0.0
O581 O 0.20175 -3.86139 4.71591 0.0
O582 O 0.15899 -3.85387 4.71137 0.0
C583 C 0.1197 -3.96468 4.77234 0.0
N584 N 0.10089 -4.11028 4.93409 0.0
C585 C 0.05223 -4.29728 5.09141 0.0
C586 C 0.071 -4.14856 4.92582 0.0
C587 C 0.10489 -3.98163 4.76568 0.0
C588 C 0.06826 -4.27149 5.08896 0.0
H589 H 0.14584 -3.83693 4.64964 0.0
C590 C 0.19062 -3.7682 4.62548 0.0
O591 O 0.21939 -4.11067 4.95941 0.0
O592 O 0.19244 -4.1261 4.94054 0.0
N593 N 0.06971 -4.38124 5.23735 0.0
C594 C 0.05547 -4.51396 5.38816 0.0
C595 C 0.02182 -4.69123 5.56135 0.0
C596 C 0.00313 -4.72952 5.57711 0.0
C597 C 0.01817 -4.58924 5.41867 0.0
C598 C 0.05168 -4.41432 5.24899 0.0
H599 H 0.06978 -4.48569 5.37718 0.0
O600 O 0.14394 -4.44595 5.28856 0.0
O601 O 0.13183 -4.24826 5.08821 0.0
O602 O 0.16683 -4.17743 5.06467 0.0
O603 O 0.12619 -4.15176 5.04276 0.0
C604 C 0.00141 -4.61743 5.4236 0.0
C605 C 0.01844 -4.47163 5.26016 0.0
H606 H 0.05975 -4.16172 4.92068 0.0
H607 H 0.1196 -3.86678 4.63785 0.0
H608 H 0.01038 -4.79865 5.68289 0.0
H609 H -0.0227 -4.86737 5.71176 0.0
H610 H -0.02447 -4.75155 5.5531 0.0
H611 H 0.00539 -4.49584 5.26645 0.0
Mn612 Mn 0.51917 -0.80322 1.0545 0.0
Mn613 Mn 0.50539 -0.68366 0.99267 0.0
C614 C 0.54618 -0.78929 1.07653 0.0
C615 C 0.50034 -1.05638 1.27607 0.0
C616 C 0.55092 -0.38232 0.65311 0.0
O617 O 0.47785 -0.82928 1.07386 0.0
O618 O 0.46672 -0.78529 1.06994 0.0
C619 C 0.44565 -1.08241 1.40465 0.0
N620 N 0.47806 -0.91209 1.23998 0.0
C621 C 0.48136 -1.03099 1.39764 0.0
C622 C 0.44792 -1.20709 1.56843 0.0
C623 C 0.43001 -1.23293 1.57196 0.0
C624 C 0.49549 -0.88527 1.23462 0.0
H625 H 0.43188 -1.10338 1.40838 0.0
C626 C 0.45934 -0.8278 1.08832 0.0
O627 O 0.52 -0.87254 1.08676 0.0
O628 O 0.49175 -1.09099 1.33405 0.0
N629 N 0.54078 -0.58541 0.91973 0.0
C630 C 0.57354 -0.41293 0.74865 0.0
C631 C 0.59535 -0.36807 0.72445 0.0
C632 C 0.58324 -0.5004 0.87583 0.0
C633 C 0.54935 -0.67606 1.04976 0.0
C634 C 0.5287 -0.71204 1.06484 0.0
H635 H 0.58305 -0.31108 0.63215 0.0
O636 O 0.55737 -0.78286 1.04771 0.0
O637 O 0.51883 -0.81015 1.0979 0.0
O638 O 0.54955 -0.49891 0.7528 0.0
O639 O 0.53438 -0.44015 0.73126 0.0
C640 C 0.53547 -0.81914 1.21073 0.0
C641 C 0.50151 -0.9964 1.38447 0.0
H642 H 0.43587 -1.32435 1.69847 0.0
H643 H 0.40427 -1.36894 1.70366 0.0
H644 H 0.62149 -0.23237 0.58992 0.0
H645 H 0.60026 -0.46634 0.85752 0.0
H646 H 0.55086 -0.79566 1.20357 0.0
H647 H 0.49128 -1.10654 1.50829 0.0
Mn648 Mn -0.32173 -4.93727 5.09037 0.0
Mn649 Mn -0.24696 -4.83694 4.98518 0.0
C650 C -0.31702 -5.16917 5.33154 0.0
C651 C -0.35671 -4.91965 5.09819 0.0
C652 C -0.29412 -4.95079 5.05324 0.0
O653 O -0.28857 -4.64083 4.79211 0.0
O654 O -0.23928 -4.58494 4.73688 0.0
C655 C -0.21695 -4.64261 4.84283 0.0
N656 N -0.22723 -4.78922 4.97092 0.0
C657 C -0.21135 -4.92992 5.13874 0.0
C658 C -0.20033 -4.77946 5.00756 0.0
C659 C -0.20318 -4.63533 4.85911 0.0
C660 C -0.22458 -4.92857 5.11422 0.0
H661 H -0.21937 -4.53252 4.7296 0.0
C662 C -0.2563 -4.52498 4.67726 0.0
O663 O -0.36138 -4.94444 5.09821 0.0
O664 O -0.3316 -4.90091 5.08905 0.0
N665 N -0.25105 -5.06879 5.21386 0.0
C666 C -0.26436 -5.20939 5.33439 0.0
C667 C -0.2643 -5.36722 5.49375 0.0
C668 C -0.25048 -5.37859 5.52721 0.0
C669 C -0.23662 -5.23111 5.40004 0.0
C670 C -0.23703 -5.07603 5.24223 0.0
H671 H -0.27522 -5.20229 5.31032 0.0
O672 O -0.34657 -5.22234 5.37947 0.0
O673 O -0.29127 -4.98139 5.14392 0.0
O674 O -0.31815 -4.98004 5.0949 0.0
O675 O -0.26629 -4.89107 5.00415 0.0
C676 C -0.22298 -5.23387 5.42582 0.0
C677 C -0.21037 -5.08347 5.29536 0.0
H678 H -0.18994 -4.77423 5.02061 0.0
H679 H -0.19493 -4.51948 4.7581 0.0
H680 H -0.27507 -5.48056 5.59134 0.0
H681 H -0.25083 -5.50179 5.65164 0.0
H682 H -0.22243 -5.3523 5.54694 0.0
H683 H -0.20033 -5.08855 5.31817 0.0
Mn684 Mn 0.24288 -0.27646 1.03511 0.0
Mn685 Mn 0.26605 -0.20187 0.89956 0.0
C686 C 0.21017 -0.27904 1.00746 0.0
C687 C 0.21433 -0.49881 1.28869 0.0
C688 C 0.30094 0.12512 0.61612 0.0
O689 O 0.2781 -0.31201 1.06888 0.0
O690 O 0.28597 -0.30378 1.0183 0.0
C691 C 0.23 -0.61409 1.29028 0.0
N692 N 0.23608 -0.43987 1.11557 0.0
C693 C 0.19786 -0.56539 1.20415 0.0
C694 C 0.19133 -0.74587 1.38464 0.0
C695 C 0.20744 -0.77037 1.42796 0.0
C696 C 0.22085 -0.4143 1.07192 0.0
H697 H 0.24226 -0.63354 1.32424 0.0
C698 C 0.29096 -0.32898 1.06618 0.0
O699 O 0.23837 -0.3105 1.10662 0.0
O700 O 0.20749 -0.55705 1.32278 0.0
N701 N 0.24815 -0.10423 0.78353 0.0
C702 C 0.25507 0.07278 0.61048 0.0
C703 C 0.23971 0.11715 0.54968 0.0
C704 C 0.21755 -0.02033 0.66676 0.0
C705 C 0.21099 -0.20099 0.84362 0.0
C706 C 0.22724 -0.23642 0.89594 0.0
H707 H 0.272 0.17873 0.52022 0.0
O708 O 0.20741 -0.25267 1.00523 0.0
O709 O 0.2314 -0.30747 1.03032 0.0
O710 O 0.28048 0.0243 0.73423 0.0
O711 O 0.29822 0.05221 0.66637 0.0
C712 C 0.18831 -0.34935 0.97251 0.0
C713 C 0.18177 -0.53137 1.15258 0.0
H714 H 0.17371 -0.86741 1.492 0.0
H715 H 0.20238 -0.90959 1.5674 0.0
H716 H 0.24483 0.25668 0.41324 0.0
H717 H 0.20548 0.0136 0.62035 0.0
H718 H 0.1753 -0.3264 0.93626 0.0
H719 H 0.16383 -0.64557 1.25201 0.0
Mn720 Mn 0.46173 -2.5214 2.68926 0.0
Mn721 Mn 0.50202 -2.70619 2.86948 0.0
C722 C 0.48694 -2.52308 2.72687 0.0
C723 C 0.46442 -2.24998 2.41454 0.0
C724 C 0.4252 -2.96123 3.12112 0.0
O725 O 0.46804 -2.53629 2.66641 0.0
O726 O 0.5007 -2.62379 2.75309 0.0
C727 C 0.57129 -2.34461 2.49838 0.0
N728 N 0.54991 -2.49779 2.66618 0.0
C729 C 0.59583 -2.38557 2.58355 0.0
C730 C 0.61839 -2.22729 2.41044 0.0
C731 C 0.60605 -2.20673 2.3677 0.0
C732 C 0.56152 -2.5197 2.7094 0.0
H733 H 0.56184 -2.32757 2.46438 0.0
C734 C 0.48563 -2.5712 2.68961 0.0
O735 O 0.43558 -2.43 2.59206 0.0
O736 O 0.49136 -2.2288 2.39779 0.0
N737 N 0.50497 -2.78913 2.98427 0.0
C738 C 0.47955 -2.94156 3.1498 0.0
C739 C 0.48744 -2.97795 3.20937 0.0
C740 C 0.52134 -2.85741 3.09828 0.0
C741 C 0.54707 -2.70178 2.92879 0.0
C742 C 0.53772 -2.67403 2.87791 0.0
H743 H 0.45344 -3.0338 3.23493 0.0
O744 O 0.46365 -2.50723 2.71322 0.0
O745 O 0.49473 -2.53524 2.71591 0.0
O746 O 0.42393 -2.8233 2.98874 0.0
O747 O 0.45291 -2.93128 3.0894 0.0
C748 C 0.58153 -2.57047 2.80598 0.0
C749 C 0.6059 -2.41254 2.63354 0.0
H750 H 0.64517 -2.11948 2.30825 0.0
H751 H 0.62327 -2.08429 2.23379 0.0
H752 H 0.46743 -3.0979 3.33995 0.0
H753 H 0.52728 -2.88462 3.14352 0.0
H754 H 0.58951 -2.58796 2.84131 0.0
H755 H 0.63225 -2.31093 2.53886 0.0
Mn756 Mn -0.41526 -6.56261 6.83922 0.0
Mn757 Mn -0.43307 -6.81185 7.14051 0.0
C758 C -0.45713 -6.62959 6.93163 0.0
C759 C -0.38335 -6.27605 6.53182 0.0
C760 C -0.45478 -7.00654 7.28122 0.0
O761 O -0.37433 -6.54034 6.82275 0.0
O762 O -0.38649 -6.69443 7.01308 0.0
C763 C -0.38345 -6.47538 6.84176 0.0
N764 N -0.41618 -6.63347 6.99226 0.0
C765 C -0.43682 -6.57572 6.97185 0.0
C766 C -0.40331 -6.41325 6.81769 0.0
C767 C -0.37652 -6.36284 6.75233 0.0
C768 C -0.44214 -6.68385 7.05693 0.0
H769 H -0.3628 -6.43514 6.78998 0.0
C770 C -0.367 -6.59747 6.89803 0.0
O771 O -0.39917 -6.44895 6.69251 0.0
O772 O -0.38626 -6.26895 6.5493 0.0
N773 N -0.47718 -6.92941 7.26966 0.0
C774 C -0.50808 -7.08172 7.41038 0.0
C775 C -0.53762 -7.14569 7.48634 0.0
C776 C -0.53509 -7.05269 7.41709 0.0
C777 C -0.50301 -6.89673 7.27273 0.0
C778 C -0.47446 -6.84067 7.20394 0.0
H779 H -0.51015 -7.15258 7.46288 0.0
O780 O -0.45671 -6.59231 6.87076 0.0
O781 O -0.43258 -6.62369 6.93379 0.0
O782 O -0.44339 -6.85121 7.11525 0.0
O783 O -0.45195 -7.01006 7.3088 0.0
C784 C -0.49824 -6.79195 7.19136 0.0
C785 C -0.46517 -6.63167 7.04115 0.0
H786 H -0.39788 -6.32491 6.74704 0.0
H787 H -0.35061 -6.2369 6.6326 0.0
H788 H -0.56228 -7.26568 7.59721 0.0
H789 H -0.55793 -7.10114 7.4746 0.0
H790 H -0.51984 -6.83176 7.24143 0.0
H791 H -0.46184 -6.55067 6.978 0.0
Mn792 Mn -0.05196 -1.79863 2.65638 0.0
Mn793 Mn -0.13009 -1.93682 2.79193 0.0
C794 C -0.07647 -1.82924 2.64834 0.0
C795 C 0.00646 -1.54528 2.40896 0.0
C796 C -0.11696 -2.22248 3.08369 0.0
O797 O -0.05992 -1.76522 2.65997 0.0
O798 O -0.11004 -1.83219 2.72286 0.0
C799 C -0.11126 -1.54272 2.40765 0.0
N800 N -0.12698 -1.71415 2.56384 0.0
C801 C -0.14569 -1.60799 2.4269 0.0
C802 C -0.12989 -1.43078 2.26515 0.0
C803 C -0.11256 -1.39793 2.25538 0.0
C804 C -0.14378 -1.74749 2.57495 0.0
H805 H -0.09778 -1.51674 2.39936 0.0
C806 C -0.08437 -1.78102 2.68513 0.0
O807 O -0.0075 -1.72757 2.59458 0.0
O808 O -0.01356 -1.51042 2.3682 0.0
N809 N -0.15254 -2.04114 2.86297 0.0
C810 C -0.1645 -2.21397 3.02239 0.0
C811 C -0.18145 -2.26593 3.05035 0.0
C812 C -0.18612 -2.14045 2.91502 0.0
C813 C -0.1739 -1.96441 2.75328 0.0
C814 C -0.15746 -1.9212 2.73395 0.0
H815 H -0.1609 -2.31066 3.12655 0.0
O816 O -0.0515 -1.83083 2.65075 0.0
O817 O -0.08566 -1.80385 2.64482 0.0
O818 O -0.08488 -2.10005 2.95932 0.0
O819 O -0.1357 -2.17502 3.03532 0.0
C820 C -0.1767 -1.82788 2.60798 0.0
C821 C -0.16259 -1.64975 2.44485 0.0
H822 H -0.13062 -1.31809 2.14667 0.0
H823 H -0.10014 -1.26107 2.13048 0.0
H824 H -0.19078 -2.40196 3.17546 0.0
H825 H -0.1989 -2.18006 2.936 0.0
H826 H -0.1892 -1.85697 2.61864 0.0
H827 H -0.16445 -1.54461 2.33259 0.0
Mn828 Mn -0.07513 -5.94472 6.6485 0.0
Mn829 Mn -0.11418 -6.16779 6.81365 0.0
C830 C -0.04756 -5.97869 6.65157 0.0
C831 C -0.04505 -5.66033 6.39182 0.0
C832 C -0.1295 -6.38997 7.08286 0.0
O833 O -0.11478 -5.95269 6.65624 0.0
O834 O -0.13636 -6.0709 6.73393 0.0
C835 C -0.09482 -5.82031 6.44104 0.0
N836 N -0.09456 -5.97304 6.59466 0.0
C837 C -0.06166 -5.87865 6.463 0.0
C838 C -0.0618 -5.72129 6.3042 0.0
C839 C -0.07845 -5.69199 6.29319 0.0
C840 C -0.07867 -6.0028 6.60691 0.0
H841 H -0.10733 -5.79616 6.43102 0.0
C842 C -0.13544 -5.99817 6.68352 0.0
O843 O -0.06333 -5.83465 6.57473 0.0
O844 O -0.04371 -5.65207 6.35897 0.0
N845 N -0.09452 -6.26334 6.89073 0.0
C846 C -0.09539 -6.41624 7.04841 0.0
C847 C -0.07911 -6.46184 7.07785 0.0
C848 C -0.06218 -6.35018 6.94529 0.0
C849 C -0.06182 -6.19434 6.78483 0.0
C850 C -0.07874 -6.1569 6.76401 0.0
H851 H -0.10815 -6.50176 7.15004 0.0
O852 O -0.03742 -5.94445 6.64124 0.0
O853 O -0.07288 -5.98462 6.65245 0.0
O854 O -0.10665 -6.23965 6.94749 0.0
O855 O -0.13522 -6.37952 7.04915 0.0
C856 C -0.04485 -6.07269 6.64299 0.0
C857 C -0.04478 -5.915 6.48223 0.0
H858 H -0.04899 -5.6211 6.18909 0.0
H859 H -0.07851 -5.57019 6.1705 0.0
H860 H -0.07945 -6.5821 7.20183 0.0
H861 H -0.0494 -6.38469 6.96753 0.0
H862 H -0.03151 -6.09792 6.65509 0.0
H863 H -0.03138 -5.82135 6.37313 0.0
H864 H -0.0632 -1.40182 1.94635 0.0
H865 H -0.07116 -1.53124 1.941 0.0
H866 H -0.02651 -0.81898 1.349 0.0
H867 H 0.00622 -0.89289 1.30867 0.0
H868 H -0.0749 -1.51864 1.97485 0.0
H869 H -0.05875 -1.46306 1.96222 0.0
C870 C -0.05454 -1.28759 1.81941 0.0
C871 C -0.0454 -1.10527 1.64642 0.0
C872 C -0.05655 -1.38204 1.82945 0.0
C873 C -0.04033 -1.17451 1.66386 0.0
C874 C -0.05444 -1.38897 1.80982 0.0
C875 C -0.03237 -1.21267 1.62142 0.0
C876 C -0.03647 -1.19736 1.6592 0.0
C877 C -0.01148 -1.03265 1.45677 0.0
C878 C -0.05216 -1.32316 1.82906 0.0
C879 C -0.03408 -0.96227 1.48608 0.0
N880 N -0.01442 -1.0297 1.47945 0.0
N881 N -0.03168 -0.99964 1.49851 0.0
H882 H 0.34186 -4.76069 5.4308 0.0
H883 H -0.60732 -5.43146 6.10649 0.0
H884 H 0.27548 -5.36423 6.05501 0.0
H885 H -0.54062 -4.8325 5.48491 0.0
H886 H -0.64555 -5.37944 6.07039 0.0
H887 H 0.39006 -4.75077 5.42592 0.0
C888 C 0.33758 -4.88894 5.56542 0.0
C889 C 0.30464 -5.06582 5.74504 0.0
C890 C -0.62241 -5.25859 5.9413 0.0
C891 C 0.35922 -5.05679 5.74133 0.0
C892 C -0.6007 -5.28887 5.96224 0.0
C893 C -0.57117 -5.13786 5.79959 0.0
C894 C -0.61486 -5.07708 5.75712 0.0
C895 C -0.56347 -4.95445 5.61523 0.0
C896 C 0.36505 -4.88373 5.56292 0.0
C897 C 0.30045 -5.22694 5.91467 0.0
N898 N -0.5855 -4.93018 5.59963 0.0
N899 N 0.32739 -5.22003 5.9096 0.0
H900 H 0.67343 -1.12398 1.61284 0.0
H901 H 0.5925 -1.97123 2.55508 0.0
H902 H 0.61828 -1.73768 2.19948 0.0
H903 H 0.61921 -1.40212 2.00605 0.0
H904 H 0.6025 -1.89306 2.43219 0.0
H905 H 0.6562 -1.22402 1.75594 0.0
C906 C 0.65779 -1.27968 1.77166 0.0
C907 C 0.6473 -1.4226 1.89432 0.0
C908 C 0.60578 -1.78679 2.34017 0.0
C909 C 0.62741 -1.5382 2.05913 0.0
C910 C 0.59999 -1.83146 2.41031 0.0
C911 C 0.60556 -1.69183 2.28956 0.0
C912 C 0.61742 -1.6011 2.14806 0.0
C913 C 0.61515 -1.51323 2.10337 0.0
C914 C 0.64775 -1.33694 1.85347 0.0
C915 C 0.62686 -1.62258 2.09946 0.0
N916 N 0.62115 -1.47222 2.03764 0.0
N917 N 0.61771 -1.67454 2.1756 0.0
H918 H -0.57439 -5.45073 5.77848 0.0
H919 H 0.26712 -5.53735 5.90333 0.0
H920 H -0.66209 -5.95431 6.31642 0.0
H921 H 0.36397 -4.99186 5.34007 0.0
H922 H 0.28865 -5.71184 6.0691 0.0
H923 H -0.60165 -5.30633 5.63306 0.0
C924 C -0.5996 -5.53252 5.8673 0.0
C925 C -0.6157 -5.71324 6.0588 0.0
C926 C 0.30513 -5.55419 5.90937 0.0
C927 C -0.64685 -5.54733 5.89186 0.0
C928 C 0.29292 -5.45394 5.81413 0.0
C929 C 0.31391 -5.24878 5.60682 0.0
C930 C 0.33851 -5.44908 5.79696 0.0
C931 C 0.34703 -5.14941 5.49978 0.0
C932 C -0.61506 -5.4493 5.78355 0.0
C933 C -0.64858 -5.81376 6.16766 0.0
N934 N 0.35834 -5.25065 5.59627 0.0
N935 N -0.66293 -5.72798 6.08151 0.0
H936 H -0.59669 -5.82235 6.26719 0.0
H937 H -0.46368 -5.03966 5.59665 0.0
H938 H -0.48995 -5.37524 5.80811 0.0
H939 H -0.57232 -5.44256 6.00488 0.0
H940 H -0.47181 -5.13235 5.64309 0.0
H941 H -0.58744 -5.66501 6.15232 0.0
C942 C -0.5712 -5.69096 6.14212 0.0
C943 C -0.54398 -5.61333 6.04865 0.0
C944 C -0.49381 -5.19739 5.71941 0.0
C945 C -0.53314 -5.43076 5.91504 0.0
C946 C -0.48919 -5.14336 5.69169 0.0
C947 C -0.51739 -5.23567 5.79915 0.0
C948 C -0.52682 -5.34434 5.85535 0.0
C949 C -0.54988 -5.37011 5.92149 0.0
C950 C -0.56596 -5.59997 6.07542 0.0
C951 C -0.51163 -5.44067 5.88519 0.0
N952 N -0.55367 -5.42194 5.94791 0.0
N953 N -0.50701 -5.35604 5.82459 0.0
H954 H 0.72664 -1.22367 1.89807 0.0
H955 H -0.16045 -1.46101 2.07254 0.0
H956 H 0.69179 -1.81324 2.46822 0.0
H957 H -0.1205 -0.86478 1.4991 0.0
H958 H -0.21556 -1.58751 2.21309 0.0
H959 H 0.78255 -1.08576 1.74559 0.0
C960 C 0.73079 -1.32439 1.9918 0.0
C961 C 0.70429 -1.53086 2.19668 0.0
C962 C -0.19488 -1.42884 2.05628 0.0
C963 C 0.7681 -1.37328 2.02202 0.0
C964 C -0.16335 -1.35612 1.9754 0.0
C965 C -0.13568 -1.1518 1.77374 0.0
C966 C -0.19899 -1.29692 1.93541 0.0
C967 C -0.14114 -1.02333 1.65523 0.0
C968 C 0.76268 -1.24519 1.90411 0.0
C969 C 0.71126 -1.65339 2.30987 0.0
N970 N -0.17218 -1.09827 1.73831 0.0
N971 N 0.74237 -1.57268 2.22087 0.0
H972 H 0.27617 -4.72864 5.30735 0.0
H973 H 0.26424 -5.24892 5.69534 0.0
H974 H 0.26236 -5.26676 5.83747 0.0
H975 H 0.31099 -4.63071 5.08482 0.0
H976 H 0.26601 -5.24747 5.74016 0.0
H977 H 0.29216 -4.67492 5.2091 0.0
C978 C 0.27697 -4.83382 5.40159 0.0
C979 C 0.26719 -5.00478 5.5831 0.0
C980 C 0.27632 -5.1109 5.5953 0.0
C981 C 0.28531 -4.9443 5.47188 0.0
C982 C 0.27515 -5.11217 5.57016 0.0
C983 C 0.28712 -4.94035 5.38697 0.0
C984 C 0.28883 -4.93762 5.43727 0.0
C985 C 0.3014 -4.76622 5.22855 0.0
C986 C 0.28617 -4.80272 5.34511 0.0
C987 C 0.26898 -5.13501 5.69832 0.0
N988 N 0.3013 -4.76999 5.25821 0.0
N989 N 0.27738 -5.10331 5.64196 0.0
H990 H 0.71755 -1.58826 1.97616 0.0
H991 H -0.08951 -0.91345 1.26292 0.0
H992 H 0.78623 -0.94766 1.34289 0.0
H993 H -0.15888 -1.55424 1.89685 0.0
H994 H -0.13465 -0.92199 1.28794 0.0
H995 H 0.7633 -1.57681 1.94937 0.0
C996 C 0.74235 -1.44491 1.83147 0.0
C997 C 0.74793 -1.26853 1.66125 0.0
C998 C -0.14 -1.06062 1.42135 0.0
C999 C 0.80041 -1.25479 1.62957 0.0
C1000 C -0.11429 -1.05608 1.40723 0.0
C1001 C -0.12029 -1.23352 1.57823 0.0
C1002 C -0.17196 -1.24376 1.60768 0.0
C1003 C -0.15297 -1.41357 1.76091 0.0
C1004 C 0.76844 -1.43864 1.8163 0.0
C1005 C 0.78069 -1.08746 1.47815 0.0
N1006 N -0.17749 -1.41391 1.77077 0.0
N1007 N 0.80564 -1.08532 1.46701 0.0
H1008 H -0.18849 -4.22785 4.3913 0.0
H1009 H -0.19275 -3.35279 3.50014 0.0
H1010 H -0.2812 -4.33086 4.47841 0.0
H1011 H -0.10341 -3.26752 3.43783 0.0
H1012 H -0.22688 -3.71002 3.86039 0.0
H1013 H -0.15776 -3.87341 4.04146 0.0
C1014 C -0.20241 -4.17606 4.3369 0.0
C1015 C -0.23744 -4.30949 4.46436 0.0
C1016 C -0.19985 -3.61235 3.76737 0.0
C1017 C -0.20233 -3.90256 4.06282 0.0
C1018 C -0.18042 -3.40867 3.56209 0.0
C1019 C -0.14515 -3.28102 3.43917 0.0
C1020 C -0.18375 -3.68732 3.8487 0.0
C1021 C -0.13045 -3.36092 3.5269 0.0
C1022 C -0.18485 -3.97329 4.13692 0.0
C1023 C -0.25415 -4.23328 4.38532 0.0
N1024 N -0.14976 -3.55892 3.72602 0.0
N1025 N -0.23638 -4.03443 4.18904 0.0
H1026 H -0.43055 -6.35347 7.14089 0.0
H1027 H 0.363 0.33684 0.38525 0.0
H1028 H -0.3831 -6.45599 7.18521 0.0
H1029 H 0.30423 0.3967 0.3769 0.0
H1030 H 0.4082 0.69375 0.03306 0.0
H1031 H -0.46729 -6.7071 7.5024 0.0
C1032 C -0.42741 -6.44959 7.22635 0.0
C1033 C -0.4042 -6.37755 7.13499 0.0
C1034 C 0.3856 0.6299 0.10739 0.0
C1035 C -0.44566 -6.77786 7.5441 0.0
C1036 C 0.35974 0.42581 0.30874 0.0
C1037 C 0.32965 0.33805 0.40906 0.0
C1038 C 0.38124 0.74884 0.00349 0.0
C1039 C 0.32704 0.4596 0.30386 0.0
C1040 C -0.44841 -6.65081 7.43194 0.0
C1041 C -0.40107 -6.5069 7.25092 0.0
N1042 N 0.35234 0.66018 0.1051 0.0
N1043 N -0.42169 -6.70054 7.44909 0.0
H1044 H 0.37825 -2.58189 3.47057 0.0
H1045 H 0.18012 -3.49871 4.36223 0.0
H1046 H 0.30378 -2.50632 3.3872 0.0
H1047 H 0.25939 -3.53894 4.40017 0.0
H1048 H 0.22362 -3.13841 4.01117 0.0
H1049 H 0.33322 -2.93838 3.82102 0.0
C1050 C 0.35238 -2.64015 3.52598 0.0
C1051 C 0.34487 -2.51346 3.39854 0.0
C1052 C 0.23132 -3.22698 4.09716 0.0
C1053 C 0.29297 -2.92358 3.80147 0.0
C1054 C 0.20656 -3.43231 4.29717 0.0
C1055 C 0.21604 -3.54978 4.41137 0.0
C1056 C 0.26565 -3.13968 4.01203 0.0
C1057 C 0.2507 -3.45548 4.31904 0.0
C1058 C 0.32662 -2.84429 3.72659 0.0
C1059 C 0.31075 -2.59843 3.47999 0.0
N1060 N 0.27411 -3.2567 4.12556 0.0
N1061 N 0.286 -2.7987 3.67662 0.0
H1062 H 0.54976 -0.11054 0.40722 0.0
H1063 H -0.14004 -6.89092 7.14429 0.0
H1064 H 0.60419 -0.16034 0.3992 0.0
H1065 H -0.17716 -6.90301 7.23071 0.0
H1066 H -0.18242 -7.25584 7.50403 0.0
H1067 H 0.5907 0.24656 0.05016 0.0
C1068 C 0.57029 -0.04658 0.33043 0.0
C1069 C 0.57377 -0.16643 0.43446 0.0
C1070 C -0.181 -7.17726 7.44285 0.0
C1071 C 0.62122 0.24634 0.02178 0.0
C1072 C -0.15691 -6.96954 7.23812 0.0
C1073 C -0.15498 -6.86542 7.15643 0.0
C1074 C -0.20352 -7.27993 7.5649 0.0
C1075 C -0.17747 -6.97531 7.2854 0.0
C1076 C 0.59379 0.1582 0.12575 0.0
C1077 C 0.60066 -0.07354 0.32501 0.0
N1078 N -0.2008 -7.17543 7.48198 0.0
N1079 N 0.62364 0.12836 0.12371 0.0
H1080 H -0.1766 -2.48133 3.36467 0.0
H1081 H -0.19334 -3.43214 4.2824 0.0
H1082 H -0.09563 -2.43523 3.28464 0.0
H1083 H -0.25924 -3.41452 4.31324 0.0
H1084 H -0.15505 -3.06844 3.91927 0.0
H1085 H -0.20588 -2.82538 3.71494 0.0
C1086 C -0.16496 -2.54398 3.42112 0.0
C1087 C -0.13378 -2.42993 3.29551 0.0
C1088 C -0.17766 -3.14471 4.00633 0.0
C1089 C -0.16739 -2.82666 3.69935 0.0
C1090 C -0.1994 -3.35169 4.21308 0.0
C1091 C -0.22975 -3.45345 4.32755 0.0
C1092 C -0.18657 -3.04091 3.91558 0.0
C1093 C -0.23645 -3.34257 4.23079 0.0
C1094 C -0.18163 -2.74074 3.62161 0.0
C1095 C -0.11971 -2.51859 3.37692 0.0
N1096 N -0.21526 -3.14311 4.031 0.0
N1097 N -0.13685 -2.71318 3.57492 0.0
H1098 H 0.61583 0.40656 0.37178 0.0
H1099 H -0.17504 -6.75701 7.42386 0.0
H1100 H 0.58611 0.11826 0.5834 0.0
H1101 H -0.13225 -6.46923 7.21199 0.0
H1102 H 0.64125 0.66729 0.00284 0.0
H1103 H 0.65228 0.72799 0.03241 0.0
C1104 C 0.61696 0.4106 0.34717 0.0
C1105 C 0.59782 0.23498 0.50652 0.0
C1106 C -0.19306 -6.94411 7.64169 0.0
C1107 C 0.63935 0.6017 0.11919 0.0
C1108 C -0.17302 -6.76101 7.4483 0.0
C1109 C -0.15066 -6.58578 7.28907 0.0
C1110 C -0.19089 -6.95192 7.67598 0.0
C1111 C -0.14904 -6.60031 7.32995 0.0
C1112 C 0.63782 0.59407 0.15348 0.0
C1113 C 0.60041 0.24944 0.46554 0.0
N1114 N -0.16898 -6.78015 7.51936 0.0
N1115 N 0.62068 0.4295 0.27602 0.0
H1116 H 0.28389 -4.16037 4.2557 0.0
H1117 H 0.36047 -3.13638 3.31108 0.0
H1118 H 0.23329 -4.13785 4.29695 0.0
H1119 H 0.41728 -3.25061 3.38026 0.0
H1120 H 0.30857 -3.48076 3.64379 0.0
H1121 H 0.32662 -3.80025 3.90036 0.0
C1122 C 0.28138 -4.07876 4.18876 0.0
C1123 C 0.25532 -4.17861 4.30566 0.0
C1124 C 0.33246 -3.42889 3.58456 0.0
C1125 C 0.30469 -3.76639 3.89949 0.0
C1126 C 0.362 -3.23326 3.39558 0.0
C1127 C 0.3933 -3.16571 3.31911 0.0
C1128 C 0.33435 -3.55483 3.69441 0.0
C1129 C 0.39388 -3.29675 3.43409 0.0
C1130 C 0.30591 -3.87335 3.98619 0.0
C1131 C 0.25306 -4.06584 4.21142 0.0
N1132 N 0.36493 -3.48415 3.61511 0.0
N1133 N 0.27791 -3.86486 4.01332 0.0
H1134 H 0.33074 -0.37168 0.56187 0.0
H1135 H -0.48638 -7.09966 7.32744 0.0
H1136 H 0.26665 -0.27854 0.4344 0.0
H1137 H -0.45869 -7.32328 7.60597 0.0
H1138 H -0.5104 -7.39463 7.59336 0.0
H1139 H 0.36803 -0.02828 0.23745 0.0
C1140 C 0.32556 -0.27511 0.46077 0.0
C1141 C 0.29607 -0.35023 0.52156 0.0
C1142 C -0.4989 -7.37812 7.59521 0.0
C1143 C 0.33741 0.03641 0.15713 0.0
C1144 C -0.48535 -7.21093 7.44464 0.0
C1145 C -0.47087 -7.18861 7.44638 0.0
C1146 C 0.35407 0.22286 -0.01322 0.0
C1147 C -0.47009 -7.3365 7.60097 0.0
C1148 C 0.34641 -0.08115 0.27796 0.0
C1149 C 0.28958 -0.22325 0.3898 0.0
N1150 N 0.36833 0.24758 -0.01455 0.0
N1151 N 0.30994 -0.03556 0.21351 0.0
H1152 H 0.41236 -0.83917 1.1264 0.0
H1153 H 0.30435 -1.03634 1.19763 0.0
H1154 H 0.43435 -0.92639 1.13717 0.0
H1155 H 0.28429 -0.92939 1.16682 0.0
H1156 H 0.34876 -1.02803 1.20757 0.0
H1157 H 0.36212 -0.90205 1.17174 0.0
C1158 C 0.40661 -0.87212 1.1389 0.0
C1159 C 0.42788 -0.87523 1.12568 0.0
C1160 C 0.33449 -1.00751 1.19976 0.0
C1161 C 0.37037 -0.94754 1.17782 0.0
C1162 C 0.3091 -1.01227 1.19411 0.0
C1163 C 0.29077 -0.98121 1.17902 0.0
C1164 C 0.34167 -0.97111 1.18991 0.0
C1165 C 0.29792 -0.95243 1.17675 0.0
C1166 C 0.37788 -0.90824 1.16503 0.0
C1167 C 0.41893 -0.92054 1.14466 0.0
N1168 N 0.32297 -0.94669 1.18066 0.0
N1169 N 0.39097 -0.95376 1.16862 0.0
H1170 H -0.17629 -6.00178 6.65301 0.0
H1171 H -0.25632 -5.76176 6.52205 0.0
H1172 H -0.14689 -5.89815 6.62982 0.0
H1173 H -0.27765 -5.80304 6.48243 0.0
H1174 H -0.21355 -5.79304 6.54319 0.0
H1175 H -0.21279 -5.92129 6.58241 0.0
C1176 C -0.1776 -5.96303 6.63396 0.0
C1177 C -0.15863 -5.95752 6.64814 0.0
C1178 C -0.22743 -5.79345 6.52809 0.0
C1179 C -0.19994 -5.86383 6.56588 0.0
C1180 C -0.25169 -5.7745 6.51496 0.0
C1181 C -0.27095 -5.78319 6.50388 0.0
C1182 C -0.2226 -5.82167 6.53061 0.0
C1183 C -0.26384 -5.79941 6.49469 0.0
C1184 C -0.19822 -5.91572 6.59228 0.0
C1185 C -0.16105 -5.90443 6.62025 0.0
N1186 N -0.2405 -5.82024 6.51038 0.0
N1187 N -0.18139 -5.86028 6.58108 0.0
H1188 H 0.48202 -1.84923 2.8062 0.0
H1189 H 0.46293 -2.4312 2.5199 0.0
H1190 H 0.41631 -1.70723 2.6742 0.0
H1191 H 0.50956 -2.69937 2.78359 0.0
H1192 H 0.45566 -2.47175 2.5141 0.0
H1193 H 0.5007 -2.74451 2.74671 0.0
C1194 C 0.47155 -1.796 2.76461 0.0
C1195 C 0.44733 -1.78861 2.74681 0.0
C1196 C 0.4677 -2.52048 2.57198 0.0
C1197 C 0.46891 -2.66667 2.67632 0.0
C1198 C 0.47195 -2.49697 2.57495 0.0
C1199 C 0.48624 -2.56579 2.6562 0.0
C1200 C 0.47771 -2.61388 2.65118 0.0
C1201 C 0.49803 -2.64636 2.7218 0.0
C1202 C 0.48228 -1.73595 2.73032 0.0
C1203 C 0.43476 -1.71748 2.69164 0.0
N1204 N 0.49311 -2.67055 2.72015 0.0
N1205 N 0.44569 -1.65946 2.65852 0.0
H1206 H -0.30629 -6.22837 6.53025 0.0
H1207 H -0.20111 -6.56232 6.82597 0.0
H1208 H -0.35276 -6.84544 7.14389 0.0
H1209 H -0.1594 -6.07404 6.39482 0.0
H1210 H -0.25607 -6.63784 6.90288 0.0
H1211 H -0.2504 -6.13939 6.4381 0.0
C1212 C -0.30452 -6.34439 6.64499 0.0
C1213 C -0.33367 -6.54374 6.84443 0.0
C1214 C -0.23466 -6.5129 6.78988 0.0
C1215 C -0.27084 -6.44467 6.74078 0.0
C1216 C -0.2034 -6.46852 6.74451 0.0
C1217 C -0.17598 -6.31168 6.60376 0.0
C1218 C -0.23794 -6.39604 6.68969 0.0
C1219 C -0.18013 -6.19607 6.50419 0.0
C1220 C -0.27289 -6.29389 6.59264 0.0
C1221 C -0.33055 -6.69003 6.98879 0.0
N1222 N -0.21063 -6.23991 6.54833 0.0
N1223 N -0.29953 -6.63769 6.93391 0.0
H1224 H -0.04211 -1.74604 2.68603 0.0
H1225 H -0.12862 -2.70712 2.76999 0.0
H1226 H -0.12811 -1.769 2.70145 0.0
H1227 H -0.075 -2.93291 2.99273 0.0
H1228 H -0.12549 -2.69119 2.70744 0.0
H1229 H -0.04805 -1.75711 2.74303 0.0
C1230 C -0.06202 -1.75101 2.69899 0.0
C1231 C -0.08486 -1.75871 2.69094 0.0
C1232 C -0.11476 -2.74575 2.77167 0.0
C1233 C -0.09197 -1.77356 2.7585 0.0
C1234 C -0.11672 -2.75623 2.80868 0.0
C1235 C -0.10175 -2.81948 2.88485 0.0
C1236 C -0.09736 -2.79652 2.80904 0.0
C1237 C -0.08655 -2.88065 2.9315 0.0
C1238 C -0.06558 -1.7592 2.73341 0.0
C1239 C -0.11012 -1.76468 2.70852 0.0
N1240 N -0.08441 -2.86533 2.89067 0.0
N1241 N -0.1131 -1.77263 2.74219 0.0
H1242 H 0.45153 -0.26682 1.06582 0.0
H1243 H 0.31822 -0.41709 1.11743 0.0
H1244 H 0.44296 -0.4478 1.16663 0.0
H1245 H 0.31797 -0.32771 1.10994 0.0
H1246 H 0.36217 -0.44248 1.14905 0.0
H1247 H 0.4015 -0.29835 1.09138 0.0
C1248 C 0.43913 -0.31354 1.09363 0.0
C1249 C 0.45171 -0.35329 1.11261 0.0
C1250 C 0.35226 -0.4192 1.14237 0.0
C1251 C 0.39413 -0.38949 1.14187 0.0
C1252 C 0.32717 -0.4044 1.12405 0.0
C1253 C 0.31462 -0.36774 1.10855 0.0
C1254 C 0.36508 -0.39572 1.14371 0.0
C1255 C 0.32697 -0.3548 1.12015 0.0
C1256 C 0.41039 -0.33235 1.10909 0.0
C1257 C 0.43425 -0.41496 1.15032 0.0
N1258 N 0.35176 -0.36672 1.13496 0.0
N1259 N 0.40647 -0.42964 1.16213 0.0
H1260 H 0.19154 -4.16537 5.09496 0.0
H1261 H 0.13313 -4.9893 5.05053 0.0
H1262 H 0.10643 -4.17883 5.1143 0.0
H1263 H 0.22149 -4.94404 4.99894 0.0
H1264 H 0.11897 -5.09871 5.11453 0.0
H1265 H 0.19845 -4.12729 5.10341 0.0
C1266 C 0.17406 -4.16248 5.1031 0.0
C1267 C 0.14867 -4.17233 5.10087 0.0
C1268 C 0.14135 -5.06582 5.09023 0.0
C1269 C 0.15662 -4.12749 5.10932 0.0
C1270 C 0.14951 -5.003 5.05336 0.0
C1271 C 0.17882 -4.9547 5.01658 0.0
C1272 C 0.16266 -5.0803 5.09015 0.0
C1273 C 0.19886 -4.97732 5.02413 0.0
C1274 C 0.17809 -4.14021 5.10742 0.0
C1275 C 0.12667 -4.16907 5.11296 0.0
N1276 N 0.19052 -5.03718 5.05872 0.0
N1277 N 0.13136 -4.14509 5.11483 0.0
H1278 H -0.34609 -5.0467 5.11741 0.0
H1279 H -0.26455 -4.08911 5.03244 0.0
H1280 H -0.25245 -4.94862 5.01842 0.0
H1281 H -0.35223 -4.12515 5.06835 0.0
H1282 H -0.2636 -4.075 5.06491 0.0
H1283 H -0.35205 -5.10829 5.13243 0.0
C1284 C -0.32681 -5.03836 5.09914 0.0
C1285 C -0.29859 -4.99078 5.06505 0.0
C1286 C -0.28316 -4.08714 5.06681 0.0
C1287 C -0.30538 -5.06222 5.08319 0.0
C1288 C -0.28381 -4.09603 5.04906 0.0
C1289 C -0.30828 -4.1062 5.04545 0.0
C1290 C -0.30716 -4.08863 5.08131 0.0
C1291 C -0.33265 -4.11532 5.06829 0.0
C1292 C -0.33026 -5.07372 5.1079 0.0
C1293 C -0.27451 -4.98298 5.04329 0.0
N1294 N -0.33133 -4.10501 5.08392 0.0
N1295 N -0.27844 -5.01789 5.05237 0.0
H1296 H -0.12527 -1.77651 2.02919 0.0
H1297 H -0.148 -2.73099 2.95716 0.0
H1298 H -0.13519 -2.11599 2.42905 0.0
H1299 H -0.1678 -2.49163 2.65941 0.0
H1300 H -0.15409 -2.54751 2.80637 0.0
H1301 H -0.15056 -2.06488 2.287 0.0
C1302 C -0.13341 -1.91324 2.17282 0.0
C1303 C -0.12753 -1.92139 2.20673 0.0
C1304 C -0.15811 -2.53901 2.77795 0.0
C1305 C -0.156 -2.25135 2.50174 0.0
C1306 C -0.15477 -2.64457 2.86486 0.0
C1307 C -0.15706 -2.62429 2.81861 0.0
C1308 C -0.16271 -2.40749 2.63903 0.0
C1309 C -0.16582 -2.51076 2.6984 0.0
C1310 C -0.14796 -2.07826 2.32039 0.0
C1311 C -0.13894 -2.10277 2.39608 0.0
N1312 N -0.16739 -2.40186 2.60802 0.0
N1313 N -0.15192 -2.25936 2.53516 0.0
H1314 H -0.44566 -5.8897 6.63101 0.0
H1315 H -0.4297 -5.30299 5.92824 0.0
H1316 H -0.35227 -5.48324 6.1873 0.0
H1317 H -0.48499 -5.36633 6.05745 0.0
H1318 H -0.41155 -5.46243 6.10923 0.0
H1319 H -0.4716 -5.78823 6.50391 0.0
C1320 C -0.43089 -5.78081 6.50841 0.0
C1321 C -0.39735 -5.69853 6.4225 0.0
C1322 C -0.42856 -5.44681 6.10289 0.0
C1323 C -0.42627 -5.58462 6.27969 0.0
C1324 C -0.43873 -5.35596 5.99986 0.0
C1325 C -0.45979 -5.32965 5.98583 0.0
C1326 C -0.43971 -5.51092 6.19143 0.0
C1327 C -0.46998 -5.39313 6.07381 0.0
C1328 C -0.44556 -5.72395 6.43699 0.0
C1329 C -0.37866 -5.55465 6.26122 0.0
N1330 N -0.46005 -5.48272 6.1748 0.0
N1331 N -0.39348 -5.50326 6.19578 0.0
H1332 H 0.53075 -2.0444 2.75058 0.0
H1333 H 0.52289 -2.02208 2.87785 0.0
H1334 H 0.61798 -1.76704 2.52479 0.0
H1335 H 0.43875 -2.2639 3.06614 0.0
H1336 H 0.55418 -2.02416 2.8449 0.0
H1337 H 0.49385 -2.22245 2.96324 0.0
C1338 C 0.54208 -2.02743 2.75208 0.0
C1339 C 0.57731 -1.89509 2.62418 0.0
C1340 C 0.52853 -2.08172 2.89852 0.0
C1341 C 0.53537 -2.0858 2.85518 0.0
C1342 C 0.51062 -2.0814 2.91819 0.0
C1343 C 0.47864 -2.13785 2.96949 0.0
C1344 C 0.51417 -2.13886 2.93052 0.0
C1345 C 0.46375 -2.21443 3.02127 0.0
C1346 C 0.52103 -2.12695 2.87149 0.0
C1347 C 0.59081 -1.86985 2.62349 0.0
N1348 N 0.48188 -2.2094 2.99708 0.0
N1349 N 0.56979 -1.96194 2.73499 0.0
H1350 H 0.13542 -5.78168 6.15939 0.0
H1351 H -0.01227 -5.80106 6.12764 0.0
H1352 H 0.14221 -5.26769 5.64776 0.0
H1353 H -0.01164 -6.28451 6.59695 0.0
H1354 H 0.03923 -5.62385 5.97814 0.0
H1355 H 0.07566 -5.9901 6.35367 0.0
C1356 C 0.12414 -5.71314 6.08903 0.0
C1357 C 0.14396 -5.50655 5.88603 0.0
C1358 C 0.02796 -5.76961 6.11502 0.0
C1359 C 0.07596 -5.74333 6.10625 0.0
C1360 C -0.00138 -5.87051 6.20022 0.0
C1361 C -0.01632 -6.05856 6.37649 0.0
C1362 C 0.04269 -5.8566 6.20555 0.0
C1363 C -0.00091 -6.14055 6.46222 0.0
C1364 C 0.0901 -5.83213 6.19975 0.0
C1365 C 0.12798 -5.42603 5.80311 0.0
N1366 N 0.02785 -6.03898 6.37595 0.0
N1367 N 0.095 -5.54437 5.91289 0.0
H1368 H -0.28449 -3.89319 4.67637 0.0
H1369 H -0.46871 -4.67295 5.3873 0.0
H1370 H -0.37139 -4.41741 5.2319 0.0
H1371 H -0.37912 -4.38376 5.05491 0.0
H1372 H -0.43319 -4.47242 5.22529 0.0
H1373 H -0.31898 -3.9849 4.72836 0.0
C1374 C -0.31099 -4.02528 4.80706 0.0
C1375 C -0.32578 -4.14428 4.94659 0.0
C1376 C -0.42131 -4.44832 5.18316 0.0
C1377 C -0.36477 -4.24845 5.00603 0.0
C1378 C -0.44153 -4.56109 5.27395 0.0
C1379 C -0.42663 -4.5453 5.23508 0.0
C1380 C -0.38596 -4.32078 5.05451 0.0
C1381 C -0.3914 -4.39921 5.08792 0.0
C1382 C -0.33051 -4.07683 4.83613 0.0
C1383 C -0.35966 -4.31746 5.11694 0.0
N1384 N -0.37198 -4.29468 5.00534 0.0
N1385 N -0.37813 -4.36365 5.14124 0.0
H1386 H 0.61637 -0.33958 1.0455 0.0
H1387 H 0.54648 -1.42601 2.09685 0.0
H1388 H 0.51269 -0.81805 1.49754 0.0
H1389 H 0.65331 -0.9196 1.59969 0.0
H1390 H 0.53417 -1.20188 1.87101 0.0
H1391 H 0.63174 -0.53741 1.2276 0.0
C1392 C 0.59708 -0.48413 1.18007 0.0
C1393 C 0.56324 -0.5637 1.25777 0.0
C1394 C 0.56034 -1.1397 1.81092 0.0
C1395 C 0.58019 -0.79454 1.47164 0.0
C1396 C 0.56736 -1.26757 1.93999 0.0
C1397 C 0.60094 -1.19106 1.86712 0.0
C1398 C 0.58705 -0.93379 1.60778 0.0
C1399 C 0.62702 -0.98484 1.66243 0.0
C1400 C 0.60577 -0.59788 1.28503 0.0
C1401 C 0.5391 -0.75165 1.43282 0.0
N1402 N 0.6195 -0.86333 1.54021 0.0
N1403 N 0.54787 -0.8633 1.53704 0.0
H1404 H 0.2065 -5.04294 5.22659 0.0
H1405 H 0.25591 -4.71697 5.04614 0.0
H1406 H 0.23799 -4.48212 4.69761 0.0
H1407 H 0.26391 -5.1257 5.41467 0.0
H1408 H 0.25338 -4.6086 4.89672 0.0
H1409 H 0.22973 -5.06647 5.28865 0.0
C1410 C 0.21919 -4.92237 5.12097 0.0
C1411 C 0.22168 -4.757 4.95326 0.0
C1412 C 0.25668 -4.71784 5.00616 0.0
C1413 C 0.24676 -4.78621 5.02697 0.0
C1414 C 0.25839 -4.77817 5.08985 0.0
C1415 C 0.26087 -4.92661 5.23881 0.0
C1416 C 0.25616 -4.81282 5.07835 0.0
C1417 C 0.26241 -5.00884 5.29799 0.0
C1418 C 0.2323 -4.93584 5.15644 0.0
C1419 C 0.23647 -4.60955 4.82614 0.0
N1420 N 0.25968 -4.95228 5.21895 0.0
N1421 N 0.24841 -4.62783 4.86603 0.0
H1422 H 0.04432 -1.20293 1.54067 0.0
H1423 H 0.14615 -0.75703 0.96917 0.0
H1424 H 0.01002 -1.07879 1.35274 0.0
H1425 H 0.18261 -0.86951 1.14548 0.0
H1426 H 0.1012 -0.81884 1.05663 0.0
H1427 H 0.0989 -1.03983 1.358 0.0
C1428 C 0.04863 -1.13849 1.45824 0.0
C1429 C 0.02342 -1.14761 1.45531 0.0
C1430 C 0.11929 -0.82723 1.0736 0.0
C1431 C 0.08494 -0.96633 1.25129 0.0
C1432 C 0.14507 -0.79095 1.02271 0.0
C1433 C 0.16774 -0.81142 1.05327 0.0
C1434 C 0.11584 -0.88772 1.15881 0.0
C1435 C 0.16546 -0.85357 1.121 0.0
C1436 C 0.07967 -1.04527 1.3539 0.0
C1437 C 0.02947 -1.06814 1.35227 0.0
N1438 N 0.13948 -0.89425 1.17531 0.0
N1439 N 0.05966 -0.98076 1.25425 0.0
H1440 H 0.13716 -1.24749 1.38597 0.0
H1441 H -0.00897 -2.28387 2.46759 0.0
H1442 H 0.15563 -1.57244 1.75369 0.0
H1443 H -0.02127 -2.14247 2.2526 0.0
H1444 H 0.05127 -1.99179 2.17734 0.0
H1445 H 0.07937 -1.55614 1.68315 0.0
C1446 C 0.12948 -1.38567 1.53007 0.0
C1447 C 0.15101 -1.38716 1.5476 0.0
C1448 C 0.03548 -2.02575 2.1946 0.0
C1449 C 0.08505 -1.73345 1.88249 0.0
C1450 C 0.00131 -2.19132 2.35919 0.0
C1451 C -0.01916 -2.23949 2.38574 0.0
C1452 C 0.04886 -1.9069 2.05513 0.0
C1453 C -0.00557 -2.11113 2.23785 0.0
C1454 C 0.09649 -1.56045 1.69865 0.0
C1455 C 0.13964 -1.56713 1.73581 0.0
N1456 N 0.02797 -1.94981 2.07784 0.0
N1457 N 0.1071 -1.73318 1.89647 0.0
H1458 H -0.2527 -5.06201 5.83711 0.0
H1459 H -0.30963 -4.6785 5.55577 0.0
H1460 H -0.31051 -5.40812 6.24572 0.0
H1461 H -0.2157 -4.26724 5.10814 0.0
H1462 H -0.30774 -4.94318 5.80843 0.0
H1463 H -0.23489 -4.76345 5.56382 0.0
C1464 C -0.26089 -5.0742 5.86862 0.0
C1465 C -0.28341 -5.26012 6.06431 0.0
C1466 C -0.28706 -4.79423 5.65465 0.0
C1467 C -0.26393 -4.92057 5.75345 0.0
C1468 C -0.28819 -4.64341 5.51063 0.0
C1469 C -0.26288 -4.45175 5.31166 0.0
C1470 C -0.26102 -4.75446 5.59989 0.0
C1471 C -0.23566 -4.41345 5.26037 0.0
C1472 C -0.2507 -4.90375 5.71259 0.0
C1473 C -0.29321 -5.2677 6.09703 0.0
N1474 N -0.23586 -4.56491 5.40439 0.0
N1475 N -0.28413 -5.10101 5.94359 0.0
H1476 H 0.42666 -1.66464 2.49257 0.0
H1477 H 0.55731 -0.54525 1.35597 0.0
H1478 H 0.50591 -1.28437 2.17122 0.0
H1479 H 0.45102 -0.88306 1.67427 0.0
H1480 H 0.5427 -0.80205 1.64028 0.0
H1481 H 0.4392 -1.37331 2.1845 0.0
C1482 C 0.44626 -1.51928 2.35687 0.0
C1483 C 0.46425 -1.49693 2.35633 0.0
C1484 C 0.5226 -0.81634 1.64488 0.0
C1485 C 0.47962 -1.16478 2.00478 0.0
C1486 C 0.53088 -0.6696 1.48273 0.0
C1487 C 0.50516 -0.69236 1.49173 0.0
C1488 C 0.48861 -0.98901 1.81806 0.0
C1489 C 0.47139 -0.86021 1.66212 0.0
C1490 C 0.45347 -1.35374 2.18181 0.0
C1491 C 0.49089 -1.30585 2.17626 0.0
N1492 N 0.46405 -1.00421 1.82039 0.0
N1493 N 0.4979 -1.14542 2.00598 0.0
H1494 H 0.07559 -5.44215 5.57288 0.0
H1495 H -0.04688 -5.67436 5.9126 0.0
H1496 H 0.06957 -5.00649 5.17035 0.0
H1497 H -0.06062 -6.13411 6.32308 0.0
H1498 H -0.01013 -5.43527 5.64277 0.0
H1499 H 0.02067 -5.70371 5.85089 0.0
C1500 C 0.06223 -5.40225 5.54325 0.0
C1501 C 0.07721 -5.20277 5.34901 0.0
C1502 C -0.02175 -5.58914 5.79221 0.0
C1503 C 0.01476 -5.50073 5.6665 0.0
C1504 C -0.04272 -5.72578 5.94643 0.0
C1505 C -0.05635 -5.92357 6.13987 0.0
C1506 C -0.01375 -5.64983 5.83109 0.0
C1507 C -0.05041 -5.98264 6.17577 0.0
C1508 C 0.03086 -5.55164 5.70204 0.0
C1509 C 0.05885 -5.15876 5.31824 0.0
N1510 N -0.02891 -5.84531 6.02203 0.0
N1511 N 0.02889 -5.30645 5.4758 0.0
H1512 H 0.23454 -3.97355 4.7504 0.0
H1513 H 0.28694 -4.31428 5.00122 0.0
H1514 H 0.25031 -4.25075 5.08284 0.0
H1515 H 0.24404 -4.77412 5.5126 0.0
H1516 H 0.29297 -4.09445 4.81653 0.0
H1517 H 0.25766 -4.06101 4.80537 0.0
C1518 C 0.24399 -4.04717 4.82947 0.0
C1519 C 0.24019 -4.10739 4.91441 0.0
C1520 C 0.28242 -4.24314 4.96882 0.0
C1521 C 0.26646 -4.20953 4.97949 0.0
C1522 C 0.27917 -4.368 5.07371 0.0
C1523 C 0.26413 -4.56397 5.27369 0.0
C1524 C 0.27059 -4.31571 5.06542 0.0
C1525 C 0.25498 -4.62551 5.35995 0.0
C1526 C 0.25743 -4.09607 4.85983 0.0
C1527 C 0.25277 -4.20225 5.01544 0.0
N1528 N 0.25807 -4.50234 5.2558 0.0
N1529 N 0.26445 -4.25584 5.05036 0.0
H1530 H 0.51043 -1.09148 1.40918 0.0
H1531 H 0.66105 -1.03856 1.38886 0.0
H1532 H 0.61192 -0.57215 0.8758 0.0
H1533 H 0.57885 -1.30992 1.71096 0.0
H1534 H 0.64342 -0.86659 1.19926 0.0
H1535 H 0.53364 -1.17695 1.52572 0.0
C1536 C 0.53756 -0.9918 1.31375 0.0
C1537 C 0.55938 -0.82129 1.13024 0.0
C1538 C 0.62974 -0.9595 1.30763 0.0
C1539 C 0.58606 -0.92388 1.26681 0.0
C1540 C 0.63993 -1.05628 1.41456 0.0
C1541 C 0.62216 -1.18096 1.55877 0.0
C1542 C 0.60054 -0.99603 1.35275 0.0
C1543 C 0.59357 -1.21054 1.5969 0.0
C1544 C 0.55079 -1.04112 1.38059 0.0
C1545 C 0.59441 -0.70284 1.01663 0.0
N1546 N 0.58332 -1.11997 1.49552 0.0
N1547 N 0.60678 -0.7577 1.08793 0.0
H1548 H -0.51907 -5.62863 5.89835 0.0
H1549 H -0.34261 -4.72182 4.94676 0.0
H1550 H -0.44496 -5.10467 5.4245 0.0
H1551 H -0.42574 -5.17234 5.34434 0.0
H1552 H -0.38226 -4.83062 5.0894 0.0
H1553 H -0.4883 -5.4459 5.6789 0.0
C1554 C -0.4964 -5.47449 5.74747 0.0
C1555 C -0.48413 -5.38254 5.68041 0.0
C1556 C -0.3921 -4.90276 5.1424 0.0
C1557 C -0.44879 -5.1724 5.42832 0.0
C1558 C -0.36947 -4.83985 5.06016 0.0
C1559 C -0.38102 -4.93991 5.13573 0.0
C1560 C -0.42635 -5.07049 5.30505 0.0
C1561 C -0.41593 -5.09167 5.28237 0.0
C1562 C -0.479 -5.36973 5.62171 0.0
C1563 C -0.45502 -5.18185 5.48281 0.0
N1564 N -0.43736 -5.15612 5.36624 0.0
N1565 N -0.43801 -5.08427 5.36451 0.0
H1566 H 0.02582 -0.6179 1.28674 0.0
H1567 H 0.17125 -0.60423 1.29961 0.0
H1568 H 0.05824 -0.80824 1.4167 0.0
H1569 H 0.18793 -0.07384 0.79536 0.0
H1570 H 0.12611 -0.69565 1.3611 0.0
H1571 H 0.08287 -0.41151 1.10119 0.0
C1572 C 0.04547 -0.60816 1.26752 0.0
C1573 C 0.03781 -0.72575 1.36242 0.0
C1574 C 0.14014 -0.55691 1.23422 0.0
C1575 C 0.10177 -0.50326 1.16436 0.0
C1576 C 0.16588 -0.50466 1.19891 0.0
C1577 C 0.18422 -0.3269 1.03672 0.0
C1578 C 0.13166 -0.43485 1.11166 0.0
C1579 C 0.17485 -0.20924 0.91834 0.0
C1580 C 0.07782 -0.49242 1.16379 0.0
C1581 C 0.06348 -0.71735 1.34317 0.0
N1582 N 0.14886 -0.26603 0.9589 0.0
N1583 N 0.0942 -0.61138 1.24981 0.0
H1584 H 0.64987 -1.6888 1.99707 0.0
H1585 H 0.47201 -2.66383 2.91487 0.0
H1586 H 0.57113 -2.12991 2.48495 0.0
H1587 H 0.55427 -2.22488 2.4313 0.0
H1588 H 0.51124 -2.5103 2.7994 0.0
H1589 H 0.61973 -1.92372 2.19443 0.0
C1590 C 0.62642 -1.83664 2.14726 0.0
C1591 C 0.6125 -1.8893 2.22387 0.0
C1592 C 0.52089 -2.45087 2.72171 0.0
C1593 C 0.57736 -2.15726 2.44895 0.0
C1594 C 0.49854 -2.53814 2.78739 0.0
C1595 C 0.51032 -2.45837 2.68408 0.0
C1596 C 0.55483 -2.27989 2.54865 0.0
C1597 C 0.54456 -2.29334 2.51754 0.0
C1598 C 0.60918 -1.97096 2.26016 0.0
C1599 C 0.58243 -2.08337 2.42013 0.0
N1600 N 0.56558 -2.20873 2.45419 0.0
N1601 N 0.56536 -2.20947 2.5249 0.0
H1602 H -0.49614 -5.98856 6.38313 0.0
H1603 H -0.52404 -6.81099 7.10718 0.0
H1604 H -0.5636 -6.25746 6.58465 0.0
H1605 H -0.43481 -6.39202 6.73801 0.0
H1606 H -0.5524 -6.70536 7.02426 0.0
H1607 H -0.48747 -6.23074 6.61867 0.0
C1608 C -0.5099 -6.10287 6.48172 0.0
C1609 C -0.53107 -6.10688 6.46853 0.0
C1610 C -0.52704 -6.64182 6.96723 0.0
C1611 C -0.52079 -6.37914 6.73273 0.0
C1612 C -0.51097 -6.70226 7.0148 0.0
C1613 C -0.47735 -6.61176 6.93133 0.0
C1614 C -0.50897 -6.48732 6.83234 0.0
C1615 C -0.46109 -6.46896 6.80945 0.0
C1616 C -0.505 -6.24053 6.61561 0.0
C1617 C -0.54781 -6.2539 6.59513 0.0
N1618 N -0.47693 -6.40925 6.76159 0.0
N1619 N -0.54209 -6.38357 6.72119 0.0
H1620 H -0.07751 -1.53872 2.34757 0.0
H1621 H -0.08464 -1.71669 2.37623 0.0
H1622 H -0.09497 -2.05409 2.82793 0.0
H1623 H -0.10112 -1.34021 2.03824 0.0
H1624 H -0.0934 -1.86817 2.56798 0.0
H1625 H -0.08938 -1.4789 2.24647 0.0
C1626 C -0.08481 -1.64229 2.43475 0.0
C1627 C -0.08675 -1.8058 2.60053 0.0
C1628 C -0.09591 -1.7558 2.455 0.0
C1629 C -0.09855 -1.73346 2.48056 0.0
C1630 C -0.09109 -1.67044 2.34669 0.0
C1631 C -0.09149 -1.51359 2.18938 0.0
C1632 C -0.10095 -1.68191 2.40341 0.0
C1633 C -0.09987 -1.45807 2.15591 0.0
C1634 C -0.09136 -1.60781 2.37665 0.0
C1635 C -0.09417 -1.9292 2.70194 0.0
N1636 N -0.10375 -1.53995 2.25983 0.0
N1637 N -0.09969 -1.89008 2.63975 0.0
H1638 H 0.14409 -5.44862 6.1245 0.0
H1639 H -0.02198 -6.16522 6.83132 0.0
H1640 H 0.14004 -5.25331 5.85742 0.0
H1641 H -0.01815 -5.70353 6.34191 0.0
H1642 H 0.03359 -6.01071 6.65999 0.0
H1643 H 0.08268 -5.70618 6.37878 0.0
C1644 C 0.13011 -5.46399 6.12308 0.0
C1645 C 0.14685 -5.33708 5.97676 0.0
C1646 C 0.02169 -5.94739 6.59343 0.0
C1647 C 0.07672 -5.62826 6.26413 0.0
C1648 C -0.01004 -6.03636 6.69177 0.0
C1649 C -0.02416 -5.94506 6.59881 0.0
C1650 C 0.03957 -5.76312 6.39898 0.0
C1651 C -0.00785 -5.7777 6.41763 0.0
C1652 C 0.09517 -5.61151 6.26861 0.0
C1653 C 0.12772 -5.35357 5.97262 0.0
N1654 N 0.02381 -5.68809 6.32012 0.0
N1655 N 0.09333 -5.49669 6.11443 0.0
H1656 H 0.07691 -4.78881 5.64531 0.0
H1657 H -0.01297 -5.28562 6.00423 0.0
H1658 H 0.09361 -4.4588 5.25146 0.0
H1659 H -0.03596 -5.6204 6.40402 0.0
H1660 H 0.0201 -4.9814 5.72836 0.0
H1661 H 0.02907 -5.09395 5.92606 0.0
C1662 C 0.06973 -4.78089 5.61846 0.0
C1663 C 0.08843 -4.5998 5.42645 0.0
C1664 C 0.00761 -5.12133 5.87643 0.0
C1665 C 0.03505 -4.94648 5.74478 0.0
C1666 C -0.01113 -5.29508 6.03398 0.0
C1667 C -0.02672 -5.4779 6.22667 0.0
C1668 C 0.01114 -5.13014 5.91148 0.0
C1669 C -0.02399 -5.482 6.25722 0.0
C1670 C 0.04261 -4.95441 5.77804 0.0
C1671 C 0.07904 -4.5958 5.39769 0.0
N1672 N -0.00501 -5.31006 6.10066 0.0
N1673 N 0.05313 -4.76731 5.55572 0.0
H1674 H 0.52097 -1.86948 2.02828 0.0
H1675 H 0.43969 -1.4274 1.64291 0.0
H1676 H 0.41354 -2.23059 2.39922 0.0
H1677 H 0.53787 -1.06362 1.24705 0.0
H1678 H 0.42737 -1.7219 1.91573 0.0
H1679 H 0.52633 -1.57353 1.73694 0.0
C1680 C 0.49841 -1.8866 2.04822 0.0
C1681 C 0.46683 -2.07453 2.2383 0.0
C1682 C 0.45131 -1.57776 1.76871 0.0
C1683 C 0.47285 -1.73606 1.90531 0.0
C1684 C 0.4583 -1.40964 1.61293 0.0
C1685 C 0.48989 -1.22198 1.42329 0.0
C1686 C 0.47651 -1.55844 1.7356 0.0
C1687 C 0.51318 -1.20617 1.3915 0.0
C1688 C 0.50147 -1.7175 1.88161 0.0
C1689 C 0.4384 -2.08832 2.2554 0.0
N1690 N 0.50635 -1.37315 1.54747 0.0
N1691 N 0.44218 -1.92088 2.09109 0.0
H1692 H -0.29037 -5.11941 5.32892 0.0
H1693 H -0.37304 -6.2537 6.45855 0.0
H1694 H -0.34227 -5.53462 5.6775 0.0
H1695 H -0.34935 -5.89143 6.16626 0.0
H1696 H -0.34671 -5.9638 6.14475 0.0
H1697 H -0.29685 -5.37443 5.60673 0.0
C1698 C -0.30224 -5.26305 5.46258 0.0
C1699 C -0.31523 -5.30685 5.48112 0.0
C1700 C -0.34695 -5.94739 6.14894 0.0
C1701 C -0.32372 -5.59875 5.79894 0.0
C1702 C -0.36201 -6.11262 6.32785 0.0
C1703 C -0.36399 -6.09697 6.33877 0.0
C1704 C -0.33386 -5.76551 5.98004 0.0
C1705 C -0.34879 -5.91015 6.16444 0.0
C1706 C -0.30618 -5.40841 5.62094 0.0
C1707 C -0.33156 -5.49598 5.65827 0.0
N1708 N -0.33467 -5.75145 5.99193 0.0
N1709 N -0.33544 -5.63586 5.81127 0.0
H1710 H 0.05389 -1.58416 2.4368 0.0
H1711 H 0.19784 -0.42766 1.26377 0.0
H1712 H 0.04292 -1.147 2.01963 0.0
H1713 H 0.18173 -0.89316 1.67959 0.0
H1714 H 0.15268 -0.67968 1.54224 0.0
H1715 H 0.11249 -1.31778 2.15952 0.0
C1716 C 0.06415 -1.43175 2.28724 0.0
C1717 C 0.04351 -1.38712 2.2503 0.0
C1718 C 0.15969 -0.7256 1.57181 0.0
C1719 C 0.11017 -1.08362 1.93452 0.0
C1720 C 0.18549 -0.58228 1.4135 0.0
C1721 C 0.19308 -0.64067 1.44961 0.0
C1722 C 0.14197 -0.92739 1.7664 0.0
C1723 C 0.17625 -0.84272 1.64604 0.0
C1724 C 0.09745 -1.28034 2.12947 0.0
C1725 C 0.05794 -1.18743 2.05386 0.0
N1726 N 0.15127 -0.97919 1.79733 0.0
N1727 N 0.09032 -1.04289 1.90292 0.0
loop_
_geom_bond_atom_site_label_1
_geom_bond_atom_site_label_2
_geom_bond_distance
_geom_bond_site_symmetry_2
_ccdc_geom_bond_type
Mn0 O5 2.095 . S
Mn0 O15 2.162 . S
Mn0 O16 2.297 . S
Mn0 O24 2.385 . S
Mn0 O25 2.209 . S
Mn0 O26 2.094 . S
Mn1 O6 2.121 . S
Mn1 N8 2.257 . S
Mn1 N17 2.282 . S
Mn1 O25 2.215 . S
Mn1 O27 2.117 . S
C2 O24 1.234 . S
C2 O25 1.283 . S
C3 O15 1.281 . S
C3 O16 1.236 . S
C4 O26 1.240 . S
C4 O27 1.264 . S
O5 Mn0 2.095 . S
O5 C14 1.250 . S
O6 Mn1 2.121 . S
O6 C14 1.258 . S
C7 N8 1.326 . S
C7 C11 1.460 . S
C7 H13 0.929 . S
N8 Mn1 2.257 . S
N8 C7 1.326 . S
N8 C12 1.362 . S
C9 C10 1.258 . S
C9 C12 1.431 . S
C9 C29 1.449 . S
C10 C9 1.258 . S
C10 C11 1.477 . S
C10 H30 0.931 . S
C11 C7 1.460 . S
C11 C10 1.477 . S
C11 H31 0.930 . S
C12 N8 1.362 . S
C12 C9 1.431 . S
C12 C22 1.476 . S
H13 C7 0.929 . S
C14 O5 1.250 . S
C14 O6 1.258 . S
O15 Mn0 2.162 . S
O15 C3 1.281 . S
O16 Mn0 2.297 . S
O16 C3 1.236 . S
N17 Mn1 2.282 . S
N17 C18 1.328 . S
N17 C22 1.318 . S
C18 N17 1.328 . S
C18 C19 1.457 . S
C18 H23 0.929 . S
C19 C18 1.457 . S
C19 C20 1.291 . S
C19 H32 0.931 . S
C20 C19 1.291 . S
C20 C21 1.373 . S
C20 H33 0.929 . S
C21 C20 1.373 . S
C21 C22 1.396 . S
C21 C28 1.403 . S
C22 C12 1.476 . S
C22 N17 1.318 . S
C22 C21 1.396 . S
H23 C18 0.929 . S
O24 Mn0 2.385 . S
O24 C2 1.234 . S
O25 Mn0 2.209 . S
O25 Mn1 2.215 . S
O25 C2 1.283 . S
O26 Mn0 2.094 . S
O26 C4 1.240 . S
O27 Mn1 2.117 . S
O27 C4 1.264 . S
C28 C21 1.403 . S
C28 C29 1.399 . S
C28 H34 0.929 . S
C29 C9 1.449 . S
C29 C28 1.399 . S
C29 H35 0.930 . S
H30 C10 0.931 . S
H31 C11 0.930 . S
H32 C19 0.931 . S
H33 C20 0.929 . S
H34 C28 0.929 . S
H35 C29 0.930 . S
Mn36 O41 2.095 . S
Mn36 O51 2.162 . S
Mn36 O52 2.297 . S
Mn36 O60 2.385 . S
Mn36 O61 2.209 . S
Mn36 O62 2.094 . S
Mn37 O42 2.121 . S
Mn37 N44 2.257 . S
Mn37 N53 2.282 . S
Mn37 O61 2.215 . S
Mn37 O63 2.117 . S
C38 O60 1.234 . S
C38 O61 1.283 . S
C39 O51 1.281 . S
C39 O52 1.236 . S
C40 O62 1.240 . S
C40 O63 1.264 . S
O41 Mn36 2.095 . S
O41 C50 1.250 . S
O42 Mn37 2.121 . S
O42 C50 1.258 . S
C43 N44 1.326 . S
C43 C47 1.460 . S
C43 H49 0.929 . S
N44 Mn37 2.257 . S
N44 C43 1.326 . S
N44 C48 1.362 . S
C45 C46 1.258 . S
C45 C48 1.431 . S
C45 C65 1.449 . S
C46 C45 1.258 . S
C46 C47 1.477 . S
C46 H66 0.931 . S
C47 C43 1.460 . S
C47 C46 1.477 . S
C47 H67 0.930 . S
C48 N44 1.362 . S
C48 C45 1.431 . S
C48 C58 1.476 . S
H49 C43 0.929 . S
C50 O41 1.250 . S
C50 O42 1.258 . S
O51 Mn36 2.162 . S
O51 C39 1.281 . S
O52 Mn36 2.297 . S
O52 C39 1.236 . S
N53 Mn37 2.282 . S
N53 C54 1.328 . S
N53 C58 1.318 . S
C54 N53 1.328 . S
C54 C55 1.457 . S
C54 H59 0.929 . S
C55 C54 1.457 . S
C55 C56 1.291 . S
C55 H68 0.931 . S
C56 C55 1.291 . S
C56 C57 1.373 . S
C56 H69 0.929 . S
C57 C56 1.373 . S
C57 C58 1.396 . S
C57 C64 1.403 . S
C58 C48 1.476 . S
C58 N53 1.318 . S
C58 C57 1.396 . S
H59 C54 0.929 . S
O60 Mn36 2.385 . S
O60 C38 1.234 . S
O61 Mn36 2.209 . S
O61 Mn37 2.215 . S
O61 C38 1.283 . S
O62 Mn36 2.094 . S
O62 C40 1.240 . S
O63 Mn37 2.117 . S
O63 C40 1.264 . S
C64 C57 1.403 . S
C64 C65 1.399 . S
C64 H70 0.929 . S
C65 C45 1.449 . S
C65 C64 1.399 . S
C65 H71 0.930 . S
H66 C46 0.931 . S
H67 C47 0.930 . S
H68 C55 0.931 . S
H69 C56 0.929 . S
H70 C64 0.929 . S
H71 C65 0.930 . S
Mn72 O77 2.095 . S
Mn72 O87 2.162 . S
Mn72 O88 2.297 . S
Mn72 O96 2.385 . S
Mn72 O97 2.209 . S
Mn72 O98 2.094 . S
Mn73 O78 2.121 . S
Mn73 N80 2.257 . S
Mn73 N89 2.282 . S
Mn73 O97 2.215 . S
Mn73 O99 2.117 . S
C74 O96 1.234 . S
C74 O97 1.283 . S
C75 O87 1.281 . S
C75 O88 1.236 . S
C76 O98 1.240 . S
C76 O99 1.264 . S
O77 Mn72 2.095 . S
O77 C86 1.250 . S
O78 Mn73 2.121 . S
O78 C86 1.258 . S
C79 N80 1.326 . S
C79 C83 1.460 . S
C79 H85 0.929 . S
N80 Mn73 2.257 . S
N80 C79 1.326 . S
N80 C84 1.362 . S
C81 C82 1.258 . S
C81 C84 1.431 . S
C81 C101 1.449 . S
C82 C81 1.258 . S
C82 C83 1.477 . S
C82 H102 0.931 . S
C83 C79 1.460 . S
C83 C82 1.477 . S
C83 H103 0.930 . S
C84 N80 1.362 . S
C84 C81 1.431 . S
C84 C94 1.476 . S
H85 C79 0.929 . S
C86 O77 1.250 . S
C86 O78 1.258 . S
O87 Mn72 2.162 . S
O87 C75 1.281 . S
O88 Mn72 2.297 . S
O88 C75 1.236 . S
N89 Mn73 2.282 . S
N89 C90 1.328 . S
N89 C94 1.318 . S
C90 N89 1.328 . S
C90 C91 1.457 . S
C90 H95 0.929 . S
C91 C90 1.457 . S
C91 C92 1.291 . S
C91 H104 0.931 . S
C92 C91 1.291 . S
C92 C93 1.373 . S
C92 H105 0.929 . S
C93 C92 1.373 . S
C93 C94 1.396 . S
C93 C100 1.403 . S
C94 C84 1.476 . S
C94 N89 1.318 . S
C94 C93 1.396 . S
H95 C90 0.929 . S
O96 Mn72 2.385 . S
O96 C74 1.234 . S
O97 Mn72 2.209 . S
O97 Mn73 2.215 . S
O97 C74 1.283 . S
O98 Mn72 2.094 . S
O98 C76 1.240 . S
O99 Mn73 2.117 . S
O99 C76 1.264 . S
C100 C93 1.403 . S
C100 C101 1.399 . S
C100 H106 0.929 . S
C101 C81 1.449 . S
C101 C100 1.399 . S
C101 H107 0.930 . S
H102 C82 0.931 . S
H103 C83 0.930 . S
H104 C91 0.931 . S
H105 C92 0.929 . S
H106 C100 0.929 . S
H107 C101 0.930 . S
Mn108 O113 2.095 . S
Mn108 O123 2.162 . S
Mn108 O124 2.297 . S
Mn108 O132 2.385 . S
Mn108 O133 2.209 . S
Mn108 O134 2.094 . S
Mn109 O114 2.121 . S
Mn109 N116 2.257 . S
Mn109 N125 2.282 . S
Mn109 O133 2.215 . S
Mn109 O135 2.117 . S
C110 O132 1.234 . S
C110 O133 1.283 . S
C111 O123 1.281 . S
C111 O124 1.236 . S
C112 O134 1.240 . S
C112 O135 1.264 . S
O113 Mn108 2.095 . S
O113 C122 1.250 . S
O114 Mn109 2.121 . S
O114 C122 1.258 . S
C115 N116 1.326 . S
C115 C119 1.460 . S
C115 H121 0.929 . S
N116 Mn109 2.257 . S
N116 C115 1.326 . S
N116 C120 1.362 . S
C117 C118 1.258 . S
C117 C120 1.431 . S
C117 C137 1.449 . S
C118 C117 1.258 . S
C118 C119 1.477 . S
C118 H138 0.931 . S
C119 C115 1.460 . S
C119 C118 1.477 . S
C119 H139 0.930 . S
C120 N116 1.362 . S
C120 C117 1.431 . S
C120 C130 1.476 . S
H121 C115 0.929 . S
C122 O113 1.250 . S
C122 O114 1.258 . S
O123 Mn108 2.162 . S
O123 C111 1.281 . S
O124 Mn108 2.297 . S
O124 C111 1.236 . S
N125 Mn109 2.282 . S
N125 C126 1.328 . S
N125 C130 1.318 . S
C126 N125 1.328 . S
C126 C127 1.457 . S
C126 H131 0.929 . S
C127 C126 1.457 . S
C127 C128 1.291 . S
C127 H140 0.931 . S
C128 C127 1.291 . S
C128 C129 1.373 . S
C128 H141 0.929 . S
C129 C128 1.373 . S
C129 C130 1.396 . S
C129 C136 1.403 . S
C130 C120 1.476 . S
C130 N125 1.318 . S
C130 C129 1.396 . S
H131 C126 0.929 . S
O132 Mn108 2.385 . S
O132 C110 1.234 . S
O133 Mn108 2.209 . S
O133 Mn109 2.215 . S
O133 C110 1.283 . S
O134 Mn108 2.094 . S
O134 C112 1.240 . S
O135 Mn109 2.117 . S
O135 C112 1.264 . S
C136 C129 1.403 . S
C136 C137 1.399 . S
C136 H142 0.929 . S
C137 C117 1.449 . S
C137 C136 1.399 . S
C137 H143 0.930 . S
H138 C118 0.931 . S
H139 C119 0.930 . S
H140 C127 0.931 . S
H141 C128 0.929 . S
H142 C136 0.929 . S
H143 C137 0.930 . S
Mn144 O149 2.095 . S
Mn144 O159 2.162 . S
Mn144 O160 2.297 . S
Mn144 O168 2.385 . S
Mn144 O169 2.209 . S
Mn144 O170 2.094 . S
Mn145 O150 2.121 . S
Mn145 N152 2.257 . S
Mn145 N161 2.282 . S
Mn145 O169 2.215 . S
Mn145 O171 2.117 . S
C146 O168 1.234 . S
C146 O169 1.283 . S
C147 O159 1.281 . S
C147 O160 1.236 . S
C148 O170 1.240 . S
C148 O171 1.264 . S
O149 Mn144 2.095 . S
O149 C158 1.250 . S
O150 Mn145 2.121 . S
O150 C158 1.258 . S
C151 N152 1.326 . S
C151 C155 1.460 . S
C151 H157 0.929 . S
N152 Mn145 2.257 . S
N152 C151 1.326 . S
N152 C156 1.362 . S
C153 C154 1.258 . S
C153 C156 1.431 . S
C153 C173 1.449 . S
C154 C153 1.258 . S
C154 C155 1.477 . S
C154 H174 0.931 . S
C155 C151 1.460 . S
C155 C154 1.477 . S
C155 H175 0.930 . S
C156 N152 1.362 . S
C156 C153 1.431 . S
C156 C166 1.476 . S
H157 C151 0.929 . S
C158 O149 1.250 . S
C158 O150 1.258 . S
O159 Mn144 2.162 . S
O159 C147 1.281 . S
O160 Mn144 2.297 . S
O160 C147 1.236 . S
N161 Mn145 2.282 . S
N161 C162 1.328 . S
N161 C166 1.318 . S
C162 N161 1.328 . S
C162 C163 1.457 . S
C162 H167 0.929 . S
C163 C162 1.457 . S
C163 C164 1.291 . S
C163 H176 0.931 . S
C164 C163 1.291 . S
C164 C165 1.373 . S
C164 H177 0.929 . S
C165 C164 1.373 . S
C165 C166 1.396 . S
C165 C172 1.403 . S
C166 C156 1.476 . S
C166 N161 1.318 . S
C166 C165 1.396 . S
H167 C162 0.929 . S
O168 Mn144 2.385 . S
O168 C146 1.234 . S
O169 Mn144 2.209 . S
O169 Mn145 2.215 . S
O169 C146 1.283 . S
O170 Mn144 2.094 . S
O170 C148 1.240 . S
O171 Mn145 2.117 . S
O171 C148 1.264 . S
C172 C165 1.403 . S
C172 C173 1.399 . S
C172 H178 0.929 . S
C173 C153 1.449 . S
C173 C172 1.399 . S
C173 H179 0.930 . S
H174 C154 0.931 . S
H175 C155 0.930 . S
H176 C163 0.931 . S
H177 C164 0.929 . S
H178 C172 0.929 . S
H179 C173 0.930 . S
Mn180 O185 2.095 . S
Mn180 O195 2.162 . S
Mn180 O196 2.297 . S
Mn180 O204 2.385 . S
Mn180 O205 2.209 . S
Mn180 O206 2.094 . S
Mn181 O186 2.121 . S
Mn181 N188 2.257 . S
Mn181 N197 2.282 . S
Mn181 O205 2.215 . S
Mn181 O207 2.117 . S
C182 O204 1.234 . S
C182 O205 1.283 . S
C183 O195 1.281 . S
C183 O196 1.236 . S
C184 O206 1.240 . S
C184 O207 1.264 . S
O185 Mn180 2.095 . S
O185 C194 1.250 . S
O186 Mn181 2.121 . S
O186 C194 1.258 . S
C187 N188 1.326 . S
C187 C191 1.460 . S
C187 H193 0.929 . S
N188 Mn181 2.257 . S
N188 C187 1.326 . S
N188 C192 1.362 . S
C189 C190 1.258 . S
C189 C192 1.431 . S
C189 C209 1.449 . S
C190 C189 1.258 . S
C190 C191 1.477 . S
C190 H210 0.931 . S
C191 C187 1.460 . S
C191 C190 1.477 . S
C191 H211 0.930 . S
C192 N188 1.362 . S
C192 C189 1.431 . S
C192 C202 1.476 . S
H193 C187 0.929 . S
C194 O185 1.250 . S
C194 O186 1.258 . S
O195 Mn180 2.162 . S
O195 C183 1.281 . S
O196 Mn180 2.297 . S
O196 C183 1.236 . S
N197 Mn181 2.282 . S
N197 C198 1.328 . S
N197 C202 1.318 . S
C198 N197 1.328 . S
C198 C199 1.457 . S
C198 H203 0.929 . S
C199 C198 1.457 . S
C199 C200 1.291 . S
C199 H212 0.931 . S
C200 C199 1.291 . S
C200 C201 1.373 . S
C200 H213 0.929 . S
C201 C200 1.373 . S
C201 C202 1.396 . S
C201 C208 1.403 . S
C202 C192 1.476 . S
C202 N197 1.318 . S
C202 C201 1.396 . S
H203 C198 0.929 . S
O204 Mn180 2.385 . S
O204 C182 1.234 . S
O205 Mn180 2.209 . S
O205 Mn181 2.215 . S
O205 C182 1.283 . S
O206 Mn180 2.094 . S
O206 C184 1.240 . S
O207 Mn181 2.117 . S
O207 C184 1.264 . S
C208 C201 1.403 . S
C208 C209 1.399 . S
C208 H214 0.929 . S
C209 C189 1.449 . S
C209 C208 1.399 . S
C209 H215 0.930 . S
H210 C190 0.931 . S
H211 C191 0.930 . S
H212 C199 0.931 . S
H213 C200 0.929 . S
H214 C208 0.929 . S
H215 C209 0.930 . S
Mn216 O221 2.095 . S
Mn216 O231 2.162 . S
Mn216 O232 2.297 . S
Mn216 O240 2.385 . S
Mn216 O241 2.209 . S
Mn216 O242 2.094 . S
Mn217 O222 2.121 . S
Mn217 N224 2.257 . S
Mn217 N233 2.282 . S
Mn217 O241 2.215 . S
Mn217 O243 2.117 . S
C218 O240 1.234 . S
C218 O241 1.283 . S
C219 O231 1.281 . S
C219 O232 1.236 . S
C220 O242 1.240 . S
C220 O243 1.264 . S
O221 Mn216 2.095 . S
O221 C230 1.250 . S
O222 Mn217 2.121 . S
O222 C230 1.258 . S
C223 N224 1.326 . S
C223 C227 1.460 . S
C223 H229 0.929 . S
N224 Mn217 2.257 . S
N224 C223 1.326 . S
N224 C228 1.362 . S
C225 C226 1.258 . S
C225 C228 1.431 . S
C225 C245 1.449 . S
C226 C225 1.258 . S
C226 C227 1.477 . S
C226 H246 0.931 . S
C227 C223 1.460 . S
C227 C226 1.477 . S
C227 H247 0.930 . S
C228 N224 1.362 . S
C228 C225 1.431 . S
C228 C238 1.476 . S
H229 C223 0.929 . S
C230 O221 1.250 . S
C230 O222 1.258 . S
O231 Mn216 2.162 . S
O231 C219 1.281 . S
O232 Mn216 2.297 . S
O232 C219 1.236 . S
N233 Mn217 2.282 . S
N233 C234 1.328 . S
N233 C238 1.318 . S
C234 N233 1.328 . S
C234 C235 1.457 . S
C234 H239 0.929 . S
C235 C234 1.457 . S
C235 C236 1.291 . S
C235 H248 0.931 . S
C236 C235 1.291 . S
C236 C237 1.373 . S
C236 H249 0.929 . S
C237 C236 1.373 . S
C237 C238 1.396 . S
C237 C244 1.403 . S
C238 C228 1.476 . S
C238 N233 1.318 . S
C238 C237 1.396 . S
H239 C234 0.929 . S
O240 Mn216 2.385 . S
O240 C218 1.234 . S
O241 Mn216 2.209 . S
O241 Mn217 2.215 . S
O241 C218 1.283 . S
O242 Mn216 2.094 . S
O242 C220 1.240 . S
O243 Mn217 2.117 . S
O243 C220 1.264 . S
C244 C237 1.403 . S
C244 C245 1.399 . S
C244 H250 0.929 . S
C245 C225 1.449 . S
C245 C244 1.399 . S
C245 H251 0.930 . S
H246 C226 0.931 . S
H247 C227 0.930 . S
H248 C235 0.931 . S
H249 C236 0.929 . S
H250 C244 0.929 . S
H251 C245 0.930 . S
Mn252 O257 2.095 . S
Mn252 O267 2.162 . S
Mn252 O268 2.297 . S
Mn252 O276 2.385 . S
Mn252 O277 2.209 . S
Mn252 O278 2.094 . S
Mn253 O258 2.121 . S
Mn253 N260 2.257 . S
Mn253 N269 2.282 . S
Mn253 O277 2.215 . S
Mn253 O279 2.117 . S
C254 O276 1.234 . S
C254 O277 1.283 . S
C255 O267 1.281 . S
C255 O268 1.236 . S
C256 O278 1.240 . S
C256 O279 1.264 . S
O257 Mn252 2.095 . S
O257 C266 1.250 . S
O258 Mn253 2.121 . S
O258 C266 1.258 . S
C259 N260 1.326 . S
C259 C263 1.460 . S
C259 H265 0.929 . S
N260 Mn253 2.257 . S
N260 C259 1.326 . S
N260 C264 1.362 . S
C261 C262 1.258 . S
C261 C264 1.431 . S
C261 C281 1.449 . S
C262 C261 1.258 . S
C262 C263 1.477 . S
C262 H282 0.931 . S
C263 C259 1.460 . S
C263 C262 1.477 . S
C263 H283 0.930 . S
C264 N260 1.362 . S
C264 C261 1.431 . S
C264 C274 1.476 . S
H265 C259 0.929 . S
C266 O257 1.250 . S
C266 O258 1.258 . S
O267 Mn252 2.162 . S
O267 C255 1.281 . S
O268 Mn252 2.297 . S
O268 C255 1.236 . S
N269 Mn253 2.282 . S
N269 C270 1.328 . S
N269 C274 1.318 . S
C270 N269 1.328 . S
C270 C271 1.457 . S
C270 H275 0.929 . S
C271 C270 1.457 . S
C271 C272 1.291 . S
C271 H284 0.931 . S
C272 C271 1.291 . S
C272 C273 1.373 . S
C272 H285 0.929 . S
C273 C272 1.373 . S
C273 C274 1.396 . S
C273 C280 1.403 . S
C274 C264 1.476 . S
C274 N269 1.318 . S
C274 C273 1.396 . S
H275 C270 0.929 . S
O276 Mn252 2.385 . S
O276 C254 1.234 . S
O277 Mn252 2.209 . S
O277 Mn253 2.215 . S
O277 C254 1.283 . S
O278 Mn252 2.094 . S
O278 C256 1.240 . S
O279 Mn253 2.117 . S
O279 C256 1.264 . S
C280 C273 1.403 . S
C280 C281 1.399 . S
C280 H286 0.929 . S
C281 C261 1.449 . S
C281 C280 1.399 . S
C281 H287 0.930 . S
H282 C262 0.931 . S
H283 C263 0.930 . S
H284 C271 0.931 . S
H285 C272 0.929 . S
H286 C280 0.929 . S
H287 C281 0.930 . S
Mn288 O293 2.095 . S
Mn288 O303 2.162 . S
Mn288 O304 2.297 . S
Mn288 O312 2.385 . S
Mn288 O313 2.209 . S
Mn288 O314 2.094 . S
Mn289 O294 2.121 . S
Mn289 N296 2.257 . S
Mn289 N305 2.282 . S
Mn289 O313 2.215 . S
Mn289 O315 2.117 . S
C290 O312 1.234 . S
C290 O313 1.283 . S
C291 O303 1.281 . S
C291 O304 1.236 . S
C292 O314 1.240 . S
C292 O315 1.264 . S
O293 Mn288 2.095 . S
O293 C302 1.250 . S
O294 Mn289 2.121 . S
O294 C302 1.258 . S
C295 N296 1.326 . S
C295 C299 1.460 . S
C295 H301 0.929 . S
N296 Mn289 2.257 . S
N296 C295 1.326 . S
N296 C300 1.362 . S
C297 C298 1.258 . S
C297 C300 1.431 . S
C297 C317 1.449 . S
C298 C297 1.258 . S
C298 C299 1.477 . S
C298 H318 0.931 . S
C299 C295 1.460 . S
C299 C298 1.477 . S
C299 H319 0.930 . S
C300 N296 1.362 . S
C300 C297 1.431 . S
C300 C310 1.476 . S
H301 C295 0.929 . S
C302 O293 1.250 . S
C302 O294 1.258 . S
O303 Mn288 2.162 . S
O303 C291 1.281 . S
O304 Mn288 2.297 . S
O304 C291 1.236 . S
N305 Mn289 2.282 . S
N305 C306 1.328 . S
N305 C310 1.318 . S
C306 N305 1.328 . S
C306 C307 1.457 . S
C306 H311 0.929 . S
C307 C306 1.457 . S
C307 C308 1.291 . S
C307 H320 0.931 . S
C308 C307 1.291 . S
C308 C309 1.373 . S
C308 H321 0.929 . S
C309 C308 1.373 . S
C309 C310 1.396 . S
C309 C316 1.403 . S
C310 C300 1.476 . S
C310 N305 1.318 . S
C310 C309 1.396 . S
H311 C306 0.929 . S
O312 Mn288 2.385 . S
O312 C290 1.234 . S
O313 Mn288 2.209 . S
O313 Mn289 2.215 . S
O313 C290 1.283 . S
O314 Mn288 2.094 . S
O314 C292 1.240 . S
O315 Mn289 2.117 . S
O315 C292 1.264 . S
C316 C309 1.403 . S
C316 C317 1.399 . S
C316 H322 0.929 . S
C317 C297 1.449 . S
C317 C316 1.399 . S
C317 H323 0.930 . S
H318 C298 0.931 . S
H319 C299 0.930 . S
H320 C307 0.931 . S
H321 C308 0.929 . S
H322 C316 0.929 . S
H323 C317 0.930 . S
Mn324 O329 2.095 . S
Mn324 O339 2.162 . S
Mn324 O340 2.297 . S
Mn324 O348 2.385 . S
Mn324 O349 2.209 . S
Mn324 O350 2.094 . S
Mn325 O330 2.121 . S
Mn325 N332 2.257 . S
Mn325 N341 2.282 . S
Mn325 O349 2.215 . S
Mn325 O351 2.117 . S
C326 O348 1.234 . S
C326 O349 1.283 . S
C327 O339 1.281 . S
C327 O340 1.236 . S
C328 O350 1.240 . S
C328 O351 1.264 . S
O329 Mn324 2.095 . S
O329 C338 1.250 . S
O330 Mn325 2.121 . S
O330 C338 1.258 . S
C331 N332 1.326 . S
C331 C335 1.460 . S
C331 H337 0.929 . S
N332 Mn325 2.257 . S
N332 C331 1.326 . S
N332 C336 1.362 . S
C333 C334 1.258 . S
C333 C336 1.431 . S
C333 C353 1.449 . S
C334 C333 1.258 . S
C334 C335 1.477 . S
C334 H354 0.931 . S
C335 C331 1.460 . S
C335 C334 1.477 . S
C335 H355 0.930 . S
C336 N332 1.362 . S
C336 C333 1.431 . S
C336 C346 1.476 . S
H337 C331 0.929 . S
C338 O329 1.250 . S
C338 O330 1.258 . S
O339 Mn324 2.162 . S
O339 C327 1.281 . S
O340 Mn324 2.297 . S
O340 C327 1.236 . S
N341 Mn325 2.282 . S
N341 C342 1.328 . S
N341 C346 1.318 . S
C342 N341 1.328 . S
C342 C343 1.457 . S
C342 H347 0.929 . S
C343 C342 1.457 . S
C343 C344 1.291 . S
C343 H356 0.931 . S
C344 C343 1.291 . S
C344 C345 1.373 . S
C344 H357 0.929 . S
C345 C344 1.373 . S
C345 C346 1.396 . S
C345 C352 1.403 . S
C346 C336 1.476 . S
C346 N341 1.318 . S
C346 C345 1.396 . S
H347 C342 0.929 . S
O348 Mn324 2.385 . S
O348 C326 1.234 . S
O349 Mn324 2.209 . S
O349 Mn325 2.215 . S
O349 C326 1.283 . S
O350 Mn324 2.094 . S
O350 C328 1.240 . S
O351 Mn325 2.117 . S
O351 C328 1.264 . S
C352 C345 1.403 . S
C352 C353 1.399 . S
C352 H358 0.929 . S
C353 C333 1.449 . S
C353 C352 1.399 . S
C353 H359 0.930 . S
H354 C334 0.931 . S
H355 C335 0.930 . S
H356 C343 0.931 . S
H357 C344 0.929 . S
H358 C352 0.929 . S
H359 C353 0.930 . S
Mn360 O365 2.095 . S
Mn360 O375 2.162 . S
Mn360 O376 2.297 . S
Mn360 O384 2.385 . S
Mn360 O385 2.209 . S
Mn360 O386 2.094 . S
Mn361 O366 2.121 . S
Mn361 N368 2.257 . S
Mn361 N377 2.282 . S
Mn361 O385 2.215 . S
Mn361 O387 2.117 . S
C362 O384 1.234 . S
C362 O385 1.283 . S
C363 O375 1.281 . S
C363 O376 1.236 . S
C364 O386 1.240 . S
C364 O387 1.264 . S
O365 Mn360 2.095 . S
O365 C374 1.250 . S
O366 Mn361 2.121 . S
O366 C374 1.258 . S
C367 N368 1.326 . S
C367 C371 1.460 . S
C367 H373 0.929 . S
N368 Mn361 2.257 . S
N368 C367 1.326 . S
N368 C372 1.362 . S
C369 C370 1.258 . S
C369 C372 1.431 . S
C369 C389 1.449 . S
C370 C369 1.258 . S
C370 C371 1.477 . S
C370 H390 0.931 . S
C371 C367 1.460 . S
C371 C370 1.477 . S
C371 H391 0.930 . S
C372 N368 1.362 . S
C372 C369 1.431 . S
C372 C382 1.476 . S
H373 C367 0.929 . S
C374 O365 1.250 . S
C374 O366 1.258 . S
O375 Mn360 2.162 . S
O375 C363 1.281 . S
O376 Mn360 2.297 . S
O376 C363 1.236 . S
N377 Mn361 2.282 . S
N377 C378 1.328 . S
N377 C382 1.318 . S
C378 N377 1.328 . S
C378 C379 1.457 . S
C378 H383 0.929 . S
C379 C378 1.457 . S
C379 C380 1.291 . S
C379 H392 0.931 . S
C380 C379 1.291 . S
C380 C381 1.373 . S
C380 H393 0.929 . S
C381 C380 1.373 . S
C381 C382 1.396 . S
C381 C388 1.403 . S
C382 C372 1.476 . S
C382 N377 1.318 . S
C382 C381 1.396 . S
H383 C378 0.929 . S
O384 Mn360 2.385 . S
O384 C362 1.234 . S
O385 Mn360 2.209 . S
O385 Mn361 2.215 . S
O385 C362 1.283 . S
O386 Mn360 2.094 . S
O386 C364 1.240 . S
O387 Mn361 2.117 . S
O387 C364 1.264 . S
C388 C381 1.403 . S
C388 C389 1.399 . S
C388 H394 0.929 . S
C389 C369 1.449 . S
C389 C388 1.399 . S
C389 H395 0.930 . S
H390 C370 0.931 . S
H391 C371 0.930 . S
H392 C379 0.931 . S
H393 C380 0.929 . S
H394 C388 0.929 . S
H395 C389 0.930 . S
Mn396 O401 2.095 . S
Mn396 O411 2.162 . S
Mn396 O412 2.297 . S
Mn396 O420 2.385 . S
Mn396 O421 2.209 . S
Mn396 O422 2.094 . S
Mn397 O402 2.121 . S
Mn397 N404 2.257 . S
Mn397 N413 2.282 . S
Mn397 O421 2.215 . S
Mn397 O423 2.117 . S
C398 O420 1.234 . S
C398 O421 1.283 . S
C399 O411 1.281 . S
C399 O412 1.236 . S
C400 O422 1.240 . S
C400 O423 1.264 . S
O401 Mn396 2.095 . S
O401 C410 1.250 . S
O402 Mn397 2.121 . S
O402 C410 1.258 . S
C403 N404 1.326 . S
C403 C407 1.460 . S
C403 H409 0.929 . S
N404 Mn397 2.257 . S
N404 C403 1.326 . S
N404 C408 1.362 . S
C405 C406 1.258 . S
C405 C408 1.431 . S
C405 C425 1.449 . S
C406 C405 1.258 . S
C406 C407 1.477 . S
C406 H426 0.931 . S
C407 C403 1.460 . S
C407 C406 1.477 . S
C407 H427 0.930 . S
C408 N404 1.362 . S
C408 C405 1.431 . S
C408 C418 1.476 . S
H409 C403 0.929 . S
C410 O401 1.250 . S
C410 O402 1.258 . S
O411 Mn396 2.162 . S
O411 C399 1.281 . S
O412 Mn396 2.297 . S
O412 C399 1.236 . S
N413 Mn397 2.282 . S
N413 C414 1.328 . S
N413 C418 1.318 . S
C414 N413 1.328 . S
C414 C415 1.457 . S
C414 H419 0.929 . S
C415 C414 1.457 . S
C415 C416 1.291 . S
C415 H428 0.931 . S
C416 C415 1.291 . S
C416 C417 1.373 . S
C416 H429 0.929 . S
C417 C416 1.373 . S
C417 C418 1.396 . S
C417 C424 1.403 . S
C418 C408 1.476 . S
C418 N413 1.318 . S
C418 C417 1.396 . S
H419 C414 0.929 . S
O420 Mn396 2.385 . S
O420 C398 1.234 . S
O421 Mn396 2.209 . S
O421 Mn397 2.215 . S
O421 C398 1.283 . S
O422 Mn396 2.094 . S
O422 C400 1.240 . S
O423 Mn397 2.117 . S
O423 C400 1.264 . S
C424 C417 1.403 . S
C424 C425 1.399 . S
C424 H430 0.929 . S
C425 C405 1.449 . S
C425 C424 1.399 . S
C425 H431 0.930 . S
H426 C406 0.931 . S
H427 C407 0.930 . S
H428 C415 0.931 . S
H429 C416 0.929 . S
H430 C424 0.929 . S
H431 C425 0.930 . S
Mn432 O437 2.095 . S
Mn432 O447 2.162 . S
Mn432 O448 2.297 . S
Mn432 O456 2.385 . S
Mn432 O457 2.209 . S
Mn432 O458 2.094 . S
Mn433 O438 2.121 . S
Mn433 N440 2.257 . S
Mn433 N449 2.282 . S
Mn433 O457 2.215 . S
Mn433 O459 2.117 . S
C434 O456 1.234 . S
C434 O457 1.283 . S
C435 O447 1.281 . S
C435 O448 1.236 . S
C436 O458 1.240 . S
C436 O459 1.264 . S
O437 Mn432 2.095 . S
O437 C446 1.250 . S
O438 Mn433 2.121 . S
O438 C446 1.258 . S
C439 N440 1.326 . S
C439 C443 1.460 . S
C439 H445 0.929 . S
N440 Mn433 2.257 . S
N440 C439 1.326 . S
N440 C444 1.362 . S
C441 C442 1.258 . S
C441 C444 1.431 . S
C441 C461 1.449 . S
C442 C441 1.258 . S
C442 C443 1.477 . S
C442 H462 0.931 . S
C443 C439 1.460 . S
C443 C442 1.477 . S
C443 H463 0.930 . S
C444 N440 1.362 . S
C444 C441 1.431 . S
C444 C454 1.476 . S
H445 C439 0.929 . S
C446 O437 1.250 . S
C446 O438 1.258 . S
O447 Mn432 2.162 . S
O447 C435 1.281 . S
O448 Mn432 2.297 . S
O448 C435 1.236 . S
N449 Mn433 2.282 . S
N449 C450 1.328 . S
N449 C454 1.318 . S
C450 N449 1.328 . S
C450 C451 1.457 . S
C450 H455 0.929 . S
C451 C450 1.457 . S
C451 C452 1.291 . S
C451 H464 0.931 . S
C452 C451 1.291 . S
C452 C453 1.373 . S
C452 H465 0.929 . S
C453 C452 1.373 . S
C453 C454 1.396 . S
C453 C460 1.403 . S
C454 C444 1.476 . S
C454 N449 1.318 . S
C454 C453 1.396 . S
H455 C450 0.929 . S
O456 Mn432 2.385 . S
O456 C434 1.234 . S
O457 Mn432 2.209 . S
O457 Mn433 2.215 . S
O457 C434 1.283 . S
O458 Mn432 2.094 . S
O458 C436 1.240 . S
O459 Mn433 2.117 . S
O459 C436 1.264 . S
C460 C453 1.403 . S
C460 C461 1.399 . S
C460 H466 0.929 . S
C461 C441 1.449 . S
C461 C460 1.399 . S
C461 H467 0.930 . S
H462 C442 0.931 . S
H463 C443 0.930 . S
H464 C451 0.931 . S
H465 C452 0.929 . S
H466 C460 0.929 . S
H467 C461 0.930 . S
Mn468 O473 2.095 . S
Mn468 O483 2.162 . S
Mn468 O484 2.297 . S
Mn468 O492 2.385 . S
Mn468 O493 2.209 . S
Mn468 O494 2.094 . S
Mn469 O474 2.121 . S
Mn469 N476 2.257 . S
Mn469 N485 2.282 . S
Mn469 O493 2.215 . S
Mn469 O495 2.117 . S
C470 O492 1.234 . S
C470 O493 1.283 . S
C471 O483 1.281 . S
C471 O484 1.236 . S
C472 O494 1.240 . S
C472 O495 1.264 . S
O473 Mn468 2.095 . S
O473 C482 1.250 . S
O474 Mn469 2.121 . S
O474 C482 1.258 . S
C475 N476 1.326 . S
C475 C479 1.460 . S
C475 H481 0.929 . S
N476 Mn469 2.257 . S
N476 C475 1.326 . S
N476 C480 1.362 . S
C477 C478 1.258 . S
C477 C480 1.431 . S
C477 C497 1.449 . S
C478 C477 1.258 . S
C478 C479 1.477 . S
C478 H498 0.931 . S
C479 C475 1.460 . S
C479 C478 1.477 . S
C479 H499 0.930 . S
C480 N476 1.362 . S
C480 C477 1.431 . S
C480 C490 1.476 . S
H481 C475 0.929 . S
C482 O473 1.250 . S
C482 O474 1.258 . S
O483 Mn468 2.162 . S
O483 C471 1.281 . S
O484 Mn468 2.297 . S
O484 C471 1.236 . S
N485 Mn469 2.282 . S
N485 C486 1.328 . S
N485 C490 1.318 . S
C486 N485 1.328 . S
C486 C487 1.457 . S
C486 H491 0.929 . S
C487 C486 1.457 . S
C487 C488 1.291 . S
C487 H500 0.931 . S
C488 C487 1.291 . S
C488 C489 1.373 . S
C488 H501 0.929 . S
C489 C488 1.373 . S
C489 C490 1.396 . S
C489 C496 1.403 . S
C490 C480 1.476 . S
C490 N485 1.318 . S
C490 C489 1.396 . S
H491 C486 0.929 . S
O492 Mn468 2.385 . S
O492 C470 1.234 . S
O493 Mn468 2.209 . S
O493 Mn469 2.215 . S
O493 C470 1.283 . S
O494 Mn468 2.094 . S
O494 C472 1.240 . S
O495 Mn469 2.117 . S
O495 C472 1.264 . S
C496 C489 1.403 . S
C496 C497 1.399 . S
C496 H502 0.929 . S
C497 C477 1.449 . S
C497 C496 1.399 . S
C497 H503 0.930 . S
H498 C478 0.931 . S
H499 C479 0.930 . S
H500 C487 0.931 . S
H501 C488 0.929 . S
H502 C496 0.929 . S
H503 C497 0.930 . S
Mn504 O509 2.095 . S
Mn504 O519 2.162 . S
Mn504 O520 2.297 . S
Mn504 O528 2.385 . S
Mn504 O529 2.209 . S
Mn504 O530 2.094 . S
Mn505 O510 2.121 . S
Mn505 N512 2.257 . S
Mn505 N521 2.282 . S
Mn505 O529 2.215 . S
Mn505 O531 2.117 . S
C506 O528 1.234 . S
C506 O529 1.283 . S
C507 O519 1.281 . S
C507 O520 1.236 . S
C508 O530 1.240 . S
C508 O531 1.264 . S
O509 Mn504 2.095 . S
O509 C518 1.250 . S
O510 Mn505 2.121 . S
O510 C518 1.258 . S
C511 N512 1.326 . S
C511 C515 1.460 . S
C511 H517 0.929 . S
N512 Mn505 2.257 . S
N512 C511 1.326 . S
N512 C516 1.362 . S
C513 C514 1.258 . S
C513 C516 1.431 . S
C513 C533 1.449 . S
C514 C513 1.258 . S
C514 C515 1.477 . S
C514 H534 0.931 . S
C515 C511 1.460 . S
C515 C514 1.477 . S
C515 H535 0.930 . S
C516 N512 1.362 . S
C516 C513 1.431 . S
C516 C526 1.476 . S
H517 C511 0.929 . S
C518 O509 1.250 . S
C518 O510 1.258 . S
O519 Mn504 2.162 . S
O519 C507 1.281 . S
O520 Mn504 2.297 . S
O520 C507 1.236 . S
N521 Mn505 2.282 . S
N521 C522 1.328 . S
N521 C526 1.318 . S
C522 N521 1.328 . S
C522 C523 1.457 . S
C522 H527 0.929 . S
C523 C522 1.457 . S
C523 C524 1.291 . S
C523 H536 0.931 . S
C524 C523 1.291 . S
C524 C525 1.373 . S
C524 H537 0.929 . S
C525 C524 1.373 . S
C525 C526 1.396 . S
C525 C532 1.403 . S
C526 C516 1.476 . S
C526 N521 1.318 . S
C526 C525 1.396 . S
H527 C522 0.929 . S
O528 Mn504 2.385 . S
O528 C506 1.234 . S
O529 Mn504 2.209 . S
O529 Mn505 2.215 . S
O529 C506 1.283 . S
O530 Mn504 2.094 . S
O530 C508 1.240 . S
O531 Mn505 2.117 . S
O531 C508 1.264 . S
C532 C525 1.403 . S
C532 C533 1.399 . S
C532 H538 0.929 . S
C533 C513 1.449 . S
C533 C532 1.399 . S
C533 H539 0.930 . S
H534 C514 0.931 . S
H535 C515 0.930 . S
H536 C523 0.931 . S
H537 C524 0.929 . S
H538 C532 0.929 . S
H539 C533 0.930 . S
Mn540 O545 2.095 . S
Mn540 O555 2.162 . S
Mn540 O556 2.297 . S
Mn540 O564 2.385 . S
Mn540 O565 2.209 . S
Mn540 O566 2.094 . S
Mn541 O546 2.121 . S
Mn541 N548 2.257 . S
Mn541 N557 2.282 . S
Mn541 O565 2.215 . S
Mn541 O567 2.117 . S
C542 O564 1.234 . S
C542 O565 1.283 . S
C543 O555 1.281 . S
C543 O556 1.236 . S
C544 O566 1.240 . S
C544 O567 1.264 . S
O545 Mn540 2.095 . S
O545 C554 1.250 . S
O546 Mn541 2.121 . S
O546 C554 1.258 . S
C547 N548 1.326 . S
C547 C551 1.460 . S
C547 H553 0.929 . S
N548 Mn541 2.257 . S
N548 C547 1.326 . S
N548 C552 1.362 . S
C549 C550 1.258 . S
C549 C552 1.431 . S
C549 C569 1.449 . S
C550 C549 1.258 . S
C550 C551 1.477 . S
C550 H570 0.931 . S
C551 C547 1.460 . S
C551 C550 1.477 . S
C551 H571 0.930 . S
C552 N548 1.362 . S
C552 C549 1.431 . S
C552 C562 1.476 . S
H553 C547 0.929 . S
C554 O545 1.250 . S
C554 O546 1.258 . S
O555 Mn540 2.162 . S
O555 C543 1.281 . S
O556 Mn540 2.297 . S
O556 C543 1.236 . S
N557 Mn541 2.282 . S
N557 C558 1.328 . S
N557 C562 1.318 . S
C558 N557 1.328 . S
C558 C559 1.457 . S
C558 H563 0.929 . S
C559 C558 1.457 . S
C559 C560 1.291 . S
C559 H572 0.931 . S
C560 C559 1.291 . S
C560 C561 1.373 . S
C560 H573 0.929 . S
C561 C560 1.373 . S
C561 C562 1.396 . S
C561 C568 1.403 . S
C562 C552 1.476 . S
C562 N557 1.318 . S
C562 C561 1.396 . S
H563 C558 0.929 . S
O564 Mn540 2.385 . S
O564 C542 1.234 . S
O565 Mn540 2.209 . S
O565 Mn541 2.215 . S
O565 C542 1.283 . S
O566 Mn540 2.094 . S
O566 C544 1.240 . S
O567 Mn541 2.117 . S
O567 C544 1.264 . S
C568 C561 1.403 . S
C568 C569 1.399 . S
C568 H574 0.929 . S
C569 C549 1.449 . S
C569 C568 1.399 . S
C569 H575 0.930 . S
H570 C550 0.931 . S
H571 C551 0.930 . S
H572 C559 0.931 . S
H573 C560 0.929 . S
H574 C568 0.929 . S
H575 C569 0.930 . S
Mn576 O581 2.095 . S
Mn576 O591 2.162 . S
Mn576 O592 2.297 . S
Mn576 O600 2.385 . S
Mn576 O601 2.209 . S
Mn576 O602 2.094 . S
Mn577 O582 2.121 . S
Mn577 N584 2.257 . S
Mn577 N593 2.282 . S
Mn577 O601 2.215 . S
Mn577 O603 2.117 . S
C578 O600 1.234 . S
C578 O601 1.283 . S
C579 O591 1.281 . S
C579 O592 1.236 . S
C580 O602 1.240 . S
C580 O603 1.264 . S
O581 Mn576 2.095 . S
O581 C590 1.250 . S
O582 Mn577 2.121 . S
O582 C590 1.258 . S
C583 N584 1.326 . S
C583 C587 1.460 . S
C583 H589 0.929 . S
N584 Mn577 2.257 . S
N584 C583 1.326 . S
N584 C588 1.362 . S
C585 C586 1.258 . S
C585 C588 1.431 . S
C585 C605 1.449 . S
C586 C585 1.258 . S
C586 C587 1.477 . S
C586 H606 0.931 . S
C587 C583 1.460 . S
C587 C586 1.477 . S
C587 H607 0.930 . S
C588 N584 1.362 . S
C588 C585 1.431 . S
C588 C598 1.476 . S
H589 C583 0.929 . S
C590 O581 1.250 . S
C590 O582 1.258 . S
O591 Mn576 2.162 . S
O591 C579 1.281 . S
O592 Mn576 2.297 . S
O592 C579 1.236 . S
N593 Mn577 2.282 . S
N593 C594 1.328 . S
N593 C598 1.318 . S
C594 N593 1.328 . S
C594 C595 1.457 . S
C594 H599 0.929 . S
C595 C594 1.457 . S
C595 C596 1.291 . S
C595 H608 0.931 . S
C596 C595 1.291 . S
C596 C597 1.373 . S
C596 H609 0.929 . S
C597 C596 1.373 . S
C597 C598 1.396 . S
C597 C604 1.403 . S
C598 C588 1.476 . S
C598 N593 1.318 . S
C598 C597 1.396 . S
H599 C594 0.929 . S
O600 Mn576 2.385 . S
O600 C578 1.234 . S
O601 Mn576 2.209 . S
O601 Mn577 2.215 . S
O601 C578 1.283 . S
O602 Mn576 2.094 . S
O602 C580 1.240 . S
O603 Mn577 2.117 . S
O603 C580 1.264 . S
C604 C597 1.403 . S
C604 C605 1.399 . S
C604 H610 0.929 . S
C605 C585 1.449 . S
C605 C604 1.399 . S
C605 H611 0.930 . S
H606 C586 0.931 . S
H607 C587 0.930 . S
H608 C595 0.931 . S
H609 C596 0.929 . S
H610 C604 0.929 . S
H611 C605 0.930 . S
Mn612 O617 2.095 . S
Mn612 O627 2.162 . S
Mn612 O628 2.297 . S
Mn612 O636 2.385 . S
Mn612 O637 2.209 . S
Mn612 O638 2.094 . S
Mn613 O618 2.121 . S
Mn613 N620 2.257 . S
Mn613 N629 2.282 . S
Mn613 O637 2.215 . S
Mn613 O639 2.117 . S
C614 O636 1.234 . S
C614 O637 1.283 . S
C615 O627 1.281 . S
C615 O628 1.236 . S
C616 O638 1.240 . S
C616 O639 1.264 . S
O617 Mn612 2.095 . S
O617 C626 1.250 . S
O618 Mn613 2.121 . S
O618 C626 1.258 . S
C619 N620 1.326 . S
C619 C623 1.460 . S
C619 H625 0.929 . S
N620 Mn613 2.257 . S
N620 C619 1.326 . S
N620 C624 1.362 . S
C621 C622 1.258 . S
C621 C624 1.431 . S
C621 C641 1.449 . S
C622 C621 1.258 . S
C622 C623 1.477 . S
C622 H642 0.931 . S
C623 C619 1.460 . S
C623 C622 1.477 . S
C623 H643 0.930 . S
C624 N620 1.362 . S
C624 C621 1.431 . S
C624 C634 1.476 . S
H625 C619 0.929 . S
C626 O617 1.250 . S
C626 O618 1.258 . S
O627 Mn612 2.162 . S
O627 C615 1.281 . S
O628 Mn612 2.297 . S
O628 C615 1.236 . S
N629 Mn613 2.282 . S
N629 C630 1.328 . S
N629 C634 1.318 . S
C630 N629 1.328 . S
C630 C631 1.457 . S
C630 H635 0.929 . S
C631 C630 1.457 . S
C631 C632 1.291 . S
C631 H644 0.931 . S
C632 C631 1.291 . S
C632 C633 1.373 . S
C632 H645 0.929 . S
C633 C632 1.373 . S
C633 C634 1.396 . S
C633 C640 1.403 . S
C634 C624 1.476 . S
C634 N629 1.318 . S
C634 C633 1.396 . S
H635 C630 0.929 . S
O636 Mn612 2.385 . S
O636 C614 1.234 . S
O637 Mn612 2.209 . S
O637 Mn613 2.215 . S
O637 C614 1.283 . S
O638 Mn612 2.094 . S
O638 C616 1.240 . S
O639 Mn613 2.117 . S
O639 C616 1.264 . S
C640 C633 1.403 . S
C640 C641 1.399 . S
C640 H646 0.929 . S
C641 C621 1.449 . S
C641 C640 1.399 . S
C641 H647 0.930 . S
H642 C622 0.931 . S
H643 C623 0.930 . S
H644 C631 0.931 . S
H645 C632 0.929 . S
H646 C640 0.929 . S
H647 C641 0.930 . S
Mn648 O653 2.095 . S
Mn648 O663 2.162 . S
Mn648 O664 2.297 . S
Mn648 O672 2.385 . S
Mn648 O673 2.209 . S
Mn648 O674 2.094 . S
Mn649 O654 2.121 . S
Mn649 N656 2.257 . S
Mn649 N665 2.282 . S
Mn649 O673 2.215 . S
Mn649 O675 2.117 . S
C650 O672 1.234 . S
C650 O673 1.283 . S
C651 O663 1.281 . S
C651 O664 1.236 . S
C652 O674 1.240 . S
C652 O675 1.264 . S
O653 Mn648 2.095 . S
O653 C662 1.250 . S
O654 Mn649 2.121 . S
O654 C662 1.258 . S
C655 N656 1.326 . S
C655 C659 1.460 . S
C655 H661 0.929 . S
N656 Mn649 2.257 . S
N656 C655 1.326 . S
N656 C660 1.362 . S
C657 C658 1.258 . S
C657 C660 1.431 . S
C657 C677 1.449 . S
C658 C657 1.258 . S
C658 C659 1.477 . S
C658 H678 0.931 . S
C659 C655 1.460 . S
C659 C658 1.477 . S
C659 H679 0.930 . S
C660 N656 1.362 . S
C660 C657 1.431 . S
C660 C670 1.476 . S
H661 C655 0.929 . S
C662 O653 1.250 . S
C662 O654 1.258 . S
O663 Mn648 2.162 . S
O663 C651 1.281 . S
O664 Mn648 2.297 . S
O664 C651 1.236 . S
N665 Mn649 2.282 . S
N665 C666 1.328 . S
N665 C670 1.318 . S
C666 N665 1.328 . S
C666 C667 1.457 . S
C666 H671 0.929 . S
C667 C666 1.457 . S
C667 C668 1.291 . S
C667 H680 0.931 . S
C668 C667 1.291 . S
C668 C669 1.373 . S
C668 H681 0.929 . S
C669 C668 1.373 . S
C669 C670 1.396 . S
C669 C676 1.403 . S
C670 C660 1.476 . S
C670 N665 1.318 . S
C670 C669 1.396 . S
H671 C666 0.929 . S
O672 Mn648 2.385 . S
O672 C650 1.234 . S
O673 Mn648 2.209 . S
O673 Mn649 2.215 . S
O673 C650 1.283 . S
O674 Mn648 2.094 . S
O674 C652 1.240 . S
O675 Mn649 2.117 . S
O675 C652 1.264 . S
C676 C669 1.403 . S
C676 C677 1.399 . S
C676 H682 0.929 . S
C677 C657 1.449 . S
C677 C676 1.399 . S
C677 H683 0.930 . S
H678 C658 0.931 . S
H679 C659 0.930 . S
H680 C667 0.931 . S
H681 C668 0.929 . S
H682 C676 0.929 . S
H683 C677 0.930 . S
Mn684 O689 2.095 . S
Mn684 O699 2.162 . S
Mn684 O700 2.297 . S
Mn684 O708 2.385 . S
Mn684 O709 2.209 . S
Mn684 O710 2.094 . S
Mn685 O690 2.121 . S
Mn685 N692 2.257 . S
Mn685 N701 2.282 . S
Mn685 O709 2.215 . S
Mn685 O711 2.117 . S
C686 O708 1.234 . S
C686 O709 1.283 . S
C687 O699 1.281 . S
C687 O700 1.236 . S
C688 O710 1.240 . S
C688 O711 1.264 . S
O689 Mn684 2.095 . S
O689 C698 1.250 . S
O690 Mn685 2.121 . S
O690 C698 1.258 . S
C691 N692 1.326 . S
C691 C695 1.460 . S
C691 H697 0.929 . S
N692 Mn685 2.257 . S
N692 C691 1.326 . S
N692 C696 1.362 . S
C693 C694 1.258 . S
C693 C696 1.431 . S
C693 C713 1.449 . S
C694 C693 1.258 . S
C694 C695 1.477 . S
C694 H714 0.931 . S
C695 C691 1.460 . S
C695 C694 1.477 . S
C695 H715 0.930 . S
C696 N692 1.362 . S
C696 C693 1.431 . S
C696 C706 1.476 . S
H697 C691 0.929 . S
C698 O689 1.250 . S
C698 O690 1.258 . S
O699 Mn684 2.162 . S
O699 C687 1.281 . S
O700 Mn684 2.297 . S
O700 C687 1.236 . S
N701 Mn685 2.282 . S
N701 C702 1.328 . S
N701 C706 1.318 . S
C702 N701 1.328 . S
C702 C703 1.457 . S
C702 H707 0.929 . S
C703 C702 1.457 . S
C703 C704 1.291 . S
C703 H716 0.931 . S
C704 C703 1.291 . S
C704 C705 1.373 . S
C704 H717 0.929 . S
C705 C704 1.373 . S
C705 C706 1.396 . S
C705 C712 1.403 . S
C706 C696 1.476 . S
C706 N701 1.318 . S
C706 C705 1.396 . S
H707 C702 0.929 . S
O708 Mn684 2.385 . S
O708 C686 1.234 . S
O709 Mn684 2.209 . S
O709 Mn685 2.215 . S
O709 C686 1.283 . S
O710 Mn684 2.094 . S
O710 C688 1.240 . S
O711 Mn685 2.117 . S
O711 C688 1.264 . S
C712 C705 1.403 . S
C712 C713 1.399 . S
C712 H718 0.929 . S
C713 C693 1.449 . S
C713 C712 1.399 . S
C713 H719 0.930 . S
H714 C694 0.931 . S
H715 C695 0.930 . S
H716 C703 0.931 . S
H717 C704 0.929 . S
H718 C712 0.929 . S
H719 C713 0.930 . S
Mn720 O725 2.095 . S
Mn720 O735 2.162 . S
Mn720 O736 2.297 . S
Mn720 O744 2.385 . S
Mn720 O745 2.209 . S
Mn720 O746 2.094 . S
Mn721 O726 2.121 . S
Mn721 N728 2.257 . S
Mn721 N737 2.282 . S
Mn721 O745 2.215 . S
Mn721 O747 2.117 . S
C722 O744 1.234 . S
C722 O745 1.283 . S
C723 O735 1.281 . S
C723 O736 1.236 . S
C724 O746 1.240 . S
C724 O747 1.264 . S
O725 Mn720 2.095 . S
O725 C734 1.250 . S
O726 Mn721 2.121 . S
O726 C734 1.258 . S
C727 N728 1.326 . S
C727 C731 1.460 . S
C727 H733 0.929 . S
N728 Mn721 2.257 . S
N728 C727 1.326 . S
N728 C732 1.362 . S
C729 C730 1.258 . S
C729 C732 1.431 . S
C729 C749 1.449 . S
C730 C729 1.258 . S
C730 C731 1.477 . S
C730 H750 0.931 . S
C731 C727 1.460 . S
C731 C730 1.477 . S
C731 H751 0.930 . S
C732 N728 1.362 . S
C732 C729 1.431 . S
C732 C742 1.476 . S
H733 C727 0.929 . S
C734 O725 1.250 . S
C734 O726 1.258 . S
O735 Mn720 2.162 . S
O735 C723 1.281 . S
O736 Mn720 2.297 . S
O736 C723 1.236 . S
N737 Mn721 2.282 . S
N737 C738 1.328 . S
N737 C742 1.318 . S
C738 N737 1.328 . S
C738 C739 1.457 . S
C738 H743 0.929 . S
C739 C738 1.457 . S
C739 C740 1.291 . S
C739 H752 0.931 . S
C740 C739 1.291 . S
C740 C741 1.373 . S
C740 H753 0.929 . S
C741 C740 1.373 . S
C741 C742 1.396 . S
C741 C748 1.403 . S
C742 C732 1.476 . S
C742 N737 1.318 . S
C742 C741 1.396 . S
H743 C738 0.929 . S
O744 Mn720 2.385 . S
O744 C722 1.234 . S
O745 Mn720 2.209 . S
O745 Mn721 2.215 . S
O745 C722 1.283 . S
O746 Mn720 2.094 . S
O746 C724 1.240 . S
O747 Mn721 2.117 . S
O747 C724 1.264 . S
C748 C741 1.403 . S
C748 C749 1.399 . S
C748 H754 0.929 . S
C749 C729 1.449 . S
C749 C748 1.399 . S
C749 H755 0.930 . S
H750 C730 0.931 . S
H751 C731 0.930 . S
H752 C739 0.931 . S
H753 C740 0.929 . S
H754 C748 0.929 . S
H755 C749 0.930 . S
Mn756 O761 2.095 . S
Mn756 O771 2.162 . S
Mn756 O772 2.297 . S
Mn756 O780 2.385 . S
Mn756 O781 2.209 . S
Mn756 O782 2.094 . S
Mn757 O762 2.121 . S
Mn757 N764 2.257 . S
Mn757 N773 2.282 . S
Mn757 O781 2.215 . S
Mn757 O783 2.117 . S
C758 O780 1.234 . S
C758 O781 1.283 . S
C759 O771 1.281 . S
C759 O772 1.236 . S
C760 O782 1.240 . S
C760 O783 1.264 . S
O761 Mn756 2.095 . S
O761 C770 1.250 . S
O762 Mn757 2.121 . S
O762 C770 1.258 . S
C763 N764 1.326 . S
C763 C767 1.460 . S
C763 H769 0.929 . S
N764 Mn757 2.257 . S
N764 C763 1.326 . S
N764 C768 1.362 . S
C765 C766 1.258 . S
C765 C768 1.431 . S
C765 C785 1.449 . S
C766 C765 1.258 . S
C766 C767 1.477 . S
C766 H786 0.931 . S
C767 C763 1.460 . S
C767 C766 1.477 . S
C767 H787 0.930 . S
C768 N764 1.362 . S
C768 C765 1.431 . S
C768 C778 1.476 . S
H769 C763 0.929 . S
C770 O761 1.250 . S
C770 O762 1.258 . S
O771 Mn756 2.162 . S
O771 C759 1.281 . S
O772 Mn756 2.297 . S
O772 C759 1.236 . S
N773 Mn757 2.282 . S
N773 C774 1.328 . S
N773 C778 1.318 . S
C774 N773 1.328 . S
C774 C775 1.457 . S
C774 H779 0.929 . S
C775 C774 1.457 . S
C775 C776 1.291 . S
C775 H788 0.931 . S
C776 C775 1.291 . S
C776 C777 1.373 . S
C776 H789 0.929 . S
C777 C776 1.373 . S
C777 C778 1.396 . S
C777 C784 1.403 . S
C778 C768 1.476 . S
C778 N773 1.318 . S
C778 C777 1.396 . S
H779 C774 0.929 . S
O780 Mn756 2.385 . S
O780 C758 1.234 . S
O781 Mn756 2.209 . S
O781 Mn757 2.215 . S
O781 C758 1.283 . S
O782 Mn756 2.094 . S
O782 C760 1.240 . S
O783 Mn757 2.117 . S
O783 C760 1.264 . S
C784 C777 1.403 . S
C784 C785 1.399 . S
C784 H790 0.929 . S
C785 C765 1.449 . S
C785 C784 1.399 . S
C785 H791 0.930 . S
H786 C766 0.931 . S
H787 C767 0.930 . S
H788 C775 0.931 . S
H789 C776 0.929 . S
H790 C784 0.929 . S
H791 C785 0.930 . S
Mn792 O797 2.095 . S
Mn792 O807 2.162 . S
Mn792 O808 2.297 . S
Mn792 O816 2.385 . S
Mn792 O817 2.209 . S
Mn792 O818 2.094 . S
Mn793 O798 2.121 . S
Mn793 N800 2.257 . S
Mn793 N809 2.282 . S
Mn793 O817 2.215 . S
Mn793 O819 2.117 . S
C794 O816 1.234 . S
C794 O817 1.283 . S
C795 O807 1.281 . S
C795 O808 1.236 . S
C796 O818 1.240 . S
C796 O819 1.264 . S
O797 Mn792 2.095 . S
O797 C806 1.250 . S
O798 Mn793 2.121 . S
O798 C806 1.258 . S
C799 N800 1.326 . S
C799 C803 1.460 . S
C799 H805 0.929 . S
N800 Mn793 2.257 . S
N800 C799 1.326 . S
N800 C804 1.362 . S
C801 C802 1.258 . S
C801 C804 1.431 . S
C801 C821 1.449 . S
C802 C801 1.258 . S
C802 C803 1.477 . S
C802 H822 0.931 . S
C803 C799 1.460 . S
C803 C802 1.477 . S
C803 H823 0.930 . S
C804 N800 1.362 . S
C804 C801 1.431 . S
C804 C814 1.476 . S
H805 C799 0.929 . S
C806 O797 1.250 . S
C806 O798 1.258 . S
O807 Mn792 2.162 . S
O807 C795 1.281 . S
O808 Mn792 2.297 . S
O808 C795 1.236 . S
N809 Mn793 2.282 . S
N809 C810 1.328 . S
N809 C814 1.318 . S
C810 N809 1.328 . S
C810 C811 1.457 . S
C810 H815 0.929 . S
C811 C810 1.457 . S
C811 C812 1.291 . S
C811 H824 0.931 . S
C812 C811 1.291 . S
C812 C813 1.373 . S
C812 H825 0.929 . S
C813 C812 1.373 . S
C813 C814 1.396 . S
C813 C820 1.403 . S
C814 C804 1.476 . S
C814 N809 1.318 . S
C814 C813 1.396 . S
H815 C810 0.929 . S
O816 Mn792 2.385 . S
O816 C794 1.234 . S
O817 Mn792 2.209 . S
O817 Mn793 2.215 . S
O817 C794 1.283 . S
O818 Mn792 2.094 . S
O818 C796 1.240 . S
O819 Mn793 2.117 . S
O819 C796 1.264 . S
C820 C813 1.403 . S
C820 C821 1.399 . S
C820 H826 0.929 . S
C821 C801 1.449 . S
C821 C820 1.399 . S
C821 H827 0.930 . S
H822 C802 0.931 . S
H823 C803 0.930 . S
H824 C811 0.931 . S
H825 C812 0.929 . S
H826 C820 0.929 . S
H827 C821 0.930 . S
Mn828 O833 2.095 . S
Mn828 O843 2.162 . S
Mn828 O844 2.297 . S
Mn828 O852 2.385 . S
Mn828 O853 2.209 . S
Mn828 O854 2.094 . S
Mn829 O834 2.121 . S
Mn829 N836 2.257 . S
Mn829 N845 2.282 . S
Mn829 O853 2.215 . S
Mn829 O855 2.117 . S
C830 O852 1.234 . S
C830 O853 1.283 . S
C831 O843 1.281 . S
C831 O844 1.236 . S
C832 O854 1.240 . S
C832 O855 1.264 . S
O833 Mn828 2.095 . S
O833 C842 1.250 . S
O834 Mn829 2.121 . S
O834 C842 1.258 . S
C835 N836 1.326 . S
C835 C839 1.460 . S
C835 H841 0.929 . S
N836 Mn829 2.257 . S
N836 C835 1.326 . S
N836 C840 1.362 . S
C837 C838 1.258 . S
C837 C840 1.431 . S
C837 C857 1.449 . S
C838 C837 1.258 . S
C838 C839 1.477 . S
C838 H858 0.931 . S
C839 C835 1.460 . S
C839 C838 1.477 . S
C839 H859 0.930 . S
C840 N836 1.362 . S
C840 C837 1.431 . S
C840 C850 1.476 . S
H841 C835 0.929 . S
C842 O833 1.250 . S
C842 O834 1.258 . S
O843 Mn828 2.162 . S
O843 C831 1.281 . S
O844 Mn828 2.297 . S
O844 C831 1.236 . S
N845 Mn829 2.282 . S
N845 C846 1.328 . S
N845 C850 1.318 . S
C846 N845 1.328 . S
C846 C847 1.457 . S
C846 H851 0.929 . S
C847 C846 1.457 . S
C847 C848 1.291 . S
C847 H860 0.931 . S
C848 C847 1.291 . S
C848 C849 1.373 . S
C848 H861 0.929 . S
C849 C848 1.373 . S
C849 C850 1.396 . S
C849 C856 1.403 . S
C850 C840 1.476 . S
C850 N845 1.318 . S
C850 C849 1.396 . S
H851 C846 0.929 . S
O852 Mn828 2.385 . S
O852 C830 1.234 . S
O853 Mn828 2.209 . S
O853 Mn829 2.215 . S
O853 C830 1.283 . S
O854 Mn828 2.094 . S
O854 C832 1.240 . S
O855 Mn829 2.117 . S
O855 C832 1.264 . S
C856 C849 1.403 . S
C856 C857 1.399 . S
C856 H862 0.929 . S
C857 C837 1.449 . S
C857 C856 1.399 . S
C857 H863 0.930 . S
H858 C838 0.931 . S
H859 C839 0.930 . S
H860 C847 0.931 . S
H861 C848 0.929 . S
H862 C856 0.929 . S
H863 C857 0.930 . S
H864 C870 0.930 . S
H865 C874 0.930 . S
H866 C879 0.929 . S
H867 C877 0.929 . S
H868 C872 0.929 . S
H869 C878 0.929 . S
C870 H864 0.930 . S
C870 C871 1.367 . S
C870 C878 1.378 . S
C871 C870 1.367 . S
C871 C879 1.433 . S
C872 H868 0.929 . S
C872 C874 1.378 . S
C872 C876 1.350 . S
C873 C876 1.463 . S
C873 C878 1.350 . S
C873 N881 1.427 . S
C874 H865 0.930 . S
C874 C872 1.378 . S
C874 C875 1.367 . S
C875 C874 1.367 . S
C875 C877 1.433 . S
C876 C872 1.350 . S
C876 C873 1.463 . S
C876 N880 1.427 . S
C877 H867 0.929 . S
C877 C875 1.433 . S
C877 N880 1.384 . S
C878 H869 0.929 . S
C878 C870 1.378 . S
C878 C873 1.350 . S
C879 H866 0.929 . S
C879 C871 1.433 . S
C879 N881 1.384 . S
N880 C876 1.427 . S
N880 C877 1.384 . S
N881 C873 1.427 . S
N881 C879 1.384 . S
H882 C888 0.930 . S
H883 C892 0.930 . S
H884 C897 0.929 . S
H885 C895 0.929 . S
H886 C890 0.929 . S
H887 C896 0.929 . S
C888 H882 0.930 . S
C888 C889 1.367 . S
C888 C896 1.378 . S
C889 C888 1.367 . S
C889 C897 1.433 . S
C890 H886 0.929 . S
C890 C892 1.378 . S
C890 C894 1.350 . S
C891 C894 1.463 1_655 S
C891 C896 1.350 . S
C891 N899 1.427 . S
C892 H883 0.930 . S
C892 C890 1.378 . S
C892 C893 1.367 . S
C893 C892 1.367 . S
C893 C895 1.433 . S
C894 C890 1.350 . S
C894 C891 1.463 1_455 S
C894 N898 1.427 . S
C895 H885 0.929 . S
C895 C893 1.433 . S
C895 N898 1.384 . S
C896 H887 0.929 . S
C896 C888 1.378 . S
C896 C891 1.350 . S
C897 H884 0.929 . S
C897 C889 1.433 . S
C897 N899 1.384 . S
N898 C894 1.427 . S
N898 C895 1.384 . S
N899 C891 1.427 . S
N899 C897 1.384 . S
H900 C906 0.930 . S
H901 C910 0.930 . S
H902 C915 0.929 . S
H903 C913 0.929 . S
H904 C908 0.929 . S
H905 C914 0.929 . S
C906 H900 0.930 . S
C906 C907 1.367 . S
C906 C914 1.378 . S
C907 C906 1.367 . S
C907 C915 1.433 . S
C908 H904 0.929 . S
C908 C910 1.378 . S
C908 C912 1.350 . S
C909 C912 1.463 . S
C909 C914 1.350 . S
C909 N917 1.427 . S
C910 H901 0.930 . S
C910 C908 1.378 . S
C910 C911 1.367 . S
C911 C910 1.367 . S
C911 C913 1.433 . S
C912 C908 1.350 . S
C912 C909 1.463 . S
C912 N916 1.427 . S
C913 H903 0.929 . S
C913 C911 1.433 . S
C913 N916 1.384 . S
C914 H905 0.929 . S
C914 C906 1.378 . S
C914 C909 1.350 . S
C915 H902 0.929 . S
C915 C907 1.433 . S
C915 N917 1.384 . S
N916 C912 1.427 . S
N916 C913 1.384 . S
N917 C909 1.427 . S
N917 C915 1.384 . S
H918 C924 0.930 . S
H919 C928 0.930 . S
H920 C933 0.929 . S
H921 C931 0.929 . S
H922 C926 0.929 . S
H923 C932 0.929 . S
C924 H918 0.930 . S
C924 C925 1.367 . S
C924 C932 1.378 . S
C925 C924 1.367 . S
C925 C933 1.433 . S
C926 H922 0.929 . S
C926 C928 1.378 . S
C926 C930 1.350 . S
C927 C930 1.463 1_455 S
C927 C932 1.350 . S
C927 N935 1.427 . S
C928 H919 0.930 . S
C928 C926 1.378 . S
C928 C929 1.367 . S
C929 C928 1.367 . S
C929 C931 1.433 . S
C930 C926 1.350 . S
C930 C927 1.463 1_655 S
C930 N934 1.427 . S
C931 H921 0.929 . S
C931 C929 1.433 . S
C931 N934 1.384 . S
C932 H923 0.929 . S
C932 C924 1.378 . S
C932 C927 1.350 . S
C933 H920 0.929 . S
C933 C925 1.433 . S
C933 N935 1.384 . S
N934 C930 1.427 . S
N934 C931 1.384 . S
N935 C927 1.427 . S
N935 C933 1.384 . S
H936 C942 0.930 . S
H937 C946 0.930 . S
H938 C951 0.929 . S
H939 C949 0.929 . S
H940 C944 0.929 . S
H941 C950 0.929 . S
C942 H936 0.930 . S
C942 C943 1.367 . S
C942 C950 1.378 . S
C943 C942 1.367 . S
C943 C951 1.433 . S
C944 H940 0.929 . S
C944 C946 1.378 . S
C944 C948 1.350 . S
C945 C948 1.463 . S
C945 C950 1.350 . S
C945 N953 1.427 . S
C946 H937 0.930 . S
C946 C944 1.378 . S
C946 C947 1.367 . S
C947 C946 1.367 . S
C947 C949 1.433 . S
C948 C944 1.350 . S
C948 C945 1.463 . S
C948 N952 1.427 . S
C949 H939 0.929 . S
C949 C947 1.433 . S
C949 N952 1.384 . S
C950 H941 0.929 . S
C950 C942 1.378 . S
C950 C945 1.350 . S
C951 H938 0.929 . S
C951 C943 1.433 . S
C951 N953 1.384 . S
N952 C948 1.427 . S
N952 C949 1.384 . S
N953 C945 1.427 . S
N953 C951 1.384 . S
H954 C960 0.930 . S
H955 C964 0.930 . S
H956 C969 0.929 . S
H957 C967 0.929 . S
H958 C962 0.929 . S
H959 C968 0.929 1_455 S
C960 H954 0.930 . S
C960 C961 1.367 . S
C960 C968 1.378 . S
C961 C960 1.367 . S
C961 C969 1.433 . S
C962 H958 0.929 . S
C962 C964 1.378 . S
C962 C966 1.350 . S
C963 C966 1.463 . S
C963 C968 1.350 1_455 S
C963 N971 1.427 1_455 S
C964 H955 0.930 . S
C964 C962 1.378 . S
C964 C965 1.367 . S
C965 C964 1.367 . S
C965 C967 1.433 . S
C966 C962 1.350 . S
C966 C963 1.463 . S
C966 N970 1.427 . S
C967 H957 0.929 . S
C967 C965 1.433 . S
C967 N970 1.384 . S
C968 H959 0.929 1_655 S
C968 C960 1.378 . S
C968 C963 1.350 1_655 S
C969 H956 0.929 . S
C969 C961 1.433 . S
C969 N971 1.384 . S
N970 C966 1.427 . S
N970 C967 1.384 . S
N971 C963 1.427 1_655 S
N971 C969 1.384 . S
H972 C978 0.930 . S
H973 C982 0.930 . S
H974 C987 0.929 . S
H975 C985 0.929 . S
H976 C980 0.929 . S
H977 C986 0.929 . S
C978 H972 0.930 . S
C978 C979 1.367 . S
C978 C986 1.378 . S
C979 C978 1.367 . S
C979 C987 1.433 . S
C980 H976 0.929 . S
C980 C982 1.378 . S
C980 C984 1.350 . S
C981 C984 1.463 . S
C981 C986 1.350 . S
C981 N989 1.427 . S
C982 H973 0.930 . S
C982 C980 1.378 . S
C982 C983 1.367 . S
C983 C982 1.367 . S
C983 C985 1.433 . S
C984 C980 1.350 . S
C984 C981 1.463 . S
C984 N988 1.427 . S
C985 H975 0.929 . S
C985 C983 1.433 . S
C985 N988 1.384 . S
C986 H977 0.929 . S
C986 C978 1.378 . S
C986 C981 1.350 . S
C987 H974 0.929 . S
C987 C979 1.433 . S
C987 N989 1.384 . S
N988 C984 1.427 . S
N988 C985 1.384 . S
N989 C981 1.427 . S
N989 C987 1.384 . S
H990 C996 0.930 . S
H991 C1000 0.930 . S
H992 C1005 0.929 . S
H993 C1003 0.929 . S
H994 C998 0.929 . S
H995 C1004 0.929 . S
C996 H990 0.930 . S
C996 C997 1.367 . S
C996 C1004 1.378 . S
C997 C996 1.367 . S
C997 C1005 1.433 . S
C998 H994 0.929 . S
C998 C1000 1.378 . S
C998 C1002 1.350 . S
C999 C1002 1.463 1_655 S
C999 C1004 1.350 . S
C999 N1007 1.427 . S
C1000 H991 0.930 . S
C1000 C998 1.378 . S
C1000 C1001 1.367 . S
C1001 C1000 1.367 . S
C1001 C1003 1.433 . S
C1002 C998 1.350 . S
C1002 C999 1.463 1_455 S
C1002 N1006 1.427 . S
C1003 H993 0.929 . S
C1003 C1001 1.433 . S
C1003 N1006 1.384 . S
C1004 H995 0.929 . S
C1004 C996 1.378 . S
C1004 C999 1.350 . S
C1005 H992 0.929 . S
C1005 C997 1.433 . S
C1005 N1007 1.384 . S
N1006 C1002 1.427 . S
N1006 C1003 1.384 . S
N1007 C999 1.427 . S
N1007 C1005 1.384 . S
H1008 C1014 0.930 . S
H1009 C1018 0.930 . S
H1010 C1023 0.929 . S
H1011 C1021 0.929 . S
H1012 C1016 0.929 . S
H1013 C1022 0.929 . S
C1014 H1008 0.930 . S
C1014 C1015 1.367 . S
C1014 C1022 1.378 . S
C1015 C1014 1.367 . S
C1015 C1023 1.433 . S
C1016 H1012 0.929 . S
C1016 C1018 1.378 . S
C1016 C1020 1.350 . S
C1017 C1020 1.463 . S
C1017 C1022 1.350 . S
C1017 N1025 1.427 . S
C1018 H1009 0.930 . S
C1018 C1016 1.378 . S
C1018 C1019 1.367 . S
C1019 C1018 1.367 . S
C1019 C1021 1.433 . S
C1020 C1016 1.350 . S
C1020 C1017 1.463 . S
C1020 N1024 1.427 . S
C1021 H1011 0.929 . S
C1021 C1019 1.433 . S
C1021 N1024 1.384 . S
C1022 H1013 0.929 . S
C1022 C1014 1.378 . S
C1022 C1017 1.350 . S
C1023 H1010 0.929 . S
C1023 C1015 1.433 . S
C1023 N1025 1.384 . S
N1024 C1020 1.427 . S
N1024 C1021 1.384 . S
N1025 C1017 1.427 . S
N1025 C1023 1.384 . S
H1026 C1032 0.930 . S
H1027 C1036 0.930 . S
H1028 C1041 0.929 . S
H1029 C1039 0.929 . S
H1030 C1034 0.929 . S
H1031 C1040 0.929 . S
C1032 H1026 0.930 . S
C1032 C1033 1.367 . S
C1032 C1040 1.378 . S
C1033 C1032 1.367 . S
C1033 C1041 1.433 . S
C1034 H1030 0.929 . S
C1034 C1036 1.378 . S
C1034 C1038 1.350 . S
C1035 C1038 1.463 1_556 S
C1035 C1040 1.350 . S
C1035 N1043 1.427 . S
C1036 H1027 0.930 . S
C1036 C1034 1.378 . S
C1036 C1037 1.367 . S
C1037 C1036 1.367 . S
C1037 C1039 1.433 . S
C1038 C1034 1.350 . S
C1038 C1035 1.463 1_554 S
C1038 N1042 1.427 . S
C1039 H1029 0.929 . S
C1039 C1037 1.433 . S
C1039 N1042 1.384 . S
C1040 H1031 0.929 . S
C1040 C1032 1.378 . S
C1040 C1035 1.350 . S
C1041 H1028 0.929 . S
C1041 C1033 1.433 . S
C1041 N1043 1.384 . S
N1042 C1038 1.427 . S
N1042 C1039 1.384 . S
N1043 C1035 1.427 . S
N1043 C1041 1.384 . S
H1044 C1050 0.930 . S
H1045 C1054 0.930 . S
H1046 C1059 0.929 . S
H1047 C1057 0.929 . S
H1048 C1052 0.929 . S
H1049 C1058 0.929 . S
C1050 H1044 0.930 . S
C1050 C1051 1.367 . S
C1050 C1058 1.378 . S
C1051 C1050 1.367 . S
C1051 C1059 1.433 . S
C1052 H1048 0.929 . S
C1052 C1054 1.378 . S
C1052 C1056 1.350 . S
C1053 C1056 1.463 . S
C1053 C1058 1.350 . S
C1053 N1061 1.427 . S
C1054 H1045 0.930 . S
C1054 C1052 1.378 . S
C1054 C1055 1.367 . S
C1055 C1054 1.367 . S
C1055 C1057 1.433 . S
C1056 C1052 1.350 . S
C1056 C1053 1.463 . S
C1056 N1060 1.427 . S
C1057 H1047 0.929 . S
C1057 C1055 1.433 . S
C1057 N1060 1.384 . S
C1058 H1049 0.929 . S
C1058 C1050 1.378 . S
C1058 C1053 1.350 . S
C1059 H1046 0.929 . S
C1059 C1051 1.433 . S
C1059 N1061 1.384 . S
N1060 C1056 1.427 . S
N1060 C1057 1.384 . S
N1061 C1053 1.427 . S
N1061 C1059 1.384 . S
H1062 C1068 0.930 . S
H1063 C1072 0.930 . S
H1064 C1077 0.929 . S
H1065 C1075 0.929 . S
H1066 C1070 0.929 . S
H1067 C1076 0.929 . S
C1068 H1062 0.930 . S
C1068 C1069 1.367 . S
C1068 C1076 1.378 . S
C1069 C1068 1.367 . S
C1069 C1077 1.433 . S
C1070 H1066 0.929 . S
C1070 C1072 1.378 . S
C1070 C1074 1.350 . S
C1071 C1074 1.463 1_554 S
C1071 C1076 1.350 . S
C1071 N1079 1.427 . S
C1072 H1063 0.930 . S
C1072 C1070 1.378 . S
C1072 C1073 1.367 . S
C1073 C1072 1.367 . S
C1073 C1075 1.433 . S
C1074 C1070 1.350 . S
C1074 C1071 1.463 1_556 S
C1074 N1078 1.427 . S
C1075 H1065 0.929 . S
C1075 C1073 1.433 . S
C1075 N1078 1.384 . S
C1076 H1067 0.929 . S
C1076 C1068 1.378 . S
C1076 C1071 1.350 . S
C1077 H1064 0.929 . S
C1077 C1069 1.433 . S
C1077 N1079 1.384 . S
N1078 C1074 1.427 . S
N1078 C1075 1.384 . S
N1079 C1071 1.427 . S
N1079 C1077 1.384 . S
H1080 C1086 0.930 . S
H1081 C1090 0.930 . S
H1082 C1095 0.929 . S
H1083 C1093 0.929 . S
H1084 C1088 0.929 . S
H1085 C1094 0.929 . S
C1086 H1080 0.930 . S
C1086 C1087 1.367 . S
C1086 C1094 1.378 . S
C1087 C1086 1.367 . S
C1087 C1095 1.433 . S
C1088 H1084 0.929 . S
C1088 C1090 1.378 . S
C1088 C1092 1.350 . S
C1089 C1092 1.463 . S
C1089 C1094 1.350 . S
C1089 N1097 1.427 . S
C1090 H1081 0.930 . S
C1090 C1088 1.378 . S
C1090 C1091 1.367 . S
C1091 C1090 1.367 . S
C1091 C1093 1.433 . S
C1092 C1088 1.350 . S
C1092 C1089 1.463 . S
C1092 N1096 1.427 . S
C1093 H1083 0.929 . S
C1093 C1091 1.433 . S
C1093 N1096 1.384 . S
C1094 H1085 0.929 . S
C1094 C1086 1.378 . S
C1094 C1089 1.350 . S
C1095 H1082 0.929 . S
C1095 C1087 1.433 . S
C1095 N1097 1.384 . S
N1096 C1092 1.427 . S
N1096 C1093 1.384 . S
N1097 C1089 1.427 . S
N1097 C1095 1.384 . S
H1098 C1104 0.930 . S
H1099 C1108 0.930 . S
H1100 C1113 0.929 . S
H1101 C1111 0.929 . S
H1102 C1106 0.929 . S
H1103 C1112 0.929 . S
C1104 H1098 0.930 . S
C1104 C1105 1.367 . S
C1104 C1112 1.378 . S
C1105 C1104 1.367 . S
C1105 C1113 1.433 . S
C1106 H1102 0.929 . S
C1106 C1108 1.378 . S
C1106 C1110 1.350 . S
C1107 C1110 1.463 1_554 S
C1107 C1112 1.350 . S
C1107 N1115 1.427 . S
C1108 H1099 0.930 . S
C1108 C1106 1.378 . S
C1108 C1109 1.367 . S
C1109 C1108 1.367 . S
C1109 C1111 1.433 . S
C1110 C1106 1.350 . S
C1110 C1107 1.463 1_556 S
C1110 N1114 1.427 . S
C1111 H1101 0.929 . S
C1111 C1109 1.433 . S
C1111 N1114 1.384 . S
C1112 H1103 0.929 . S
C1112 C1104 1.378 . S
C1112 C1107 1.350 . S
C1113 H1100 0.929 . S
C1113 C1105 1.433 . S
C1113 N1115 1.384 . S
N1114 C1110 1.427 . S
N1114 C1111 1.384 . S
N1115 C1107 1.427 . S
N1115 C1113 1.384 . S
H1116 C1122 0.930 . S
H1117 C1126 0.930 . S
H1118 C1131 0.929 . S
H1119 C1129 0.929 . S
H1120 C1124 0.929 . S
H1121 C1130 0.929 . S
C1122 H1116 0.930 . S
C1122 C1123 1.367 . S
C1122 C1130 1.378 . S
C1123 C1122 1.367 . S
C1123 C1131 1.433 . S
C1124 H1120 0.929 . S
C1124 C1126 1.378 . S
C1124 C1128 1.350 . S
C1125 C1128 1.463 . S
C1125 C1130 1.350 . S
C1125 N1133 1.427 . S
C1126 H1117 0.930 . S
C1126 C1124 1.378 . S
C1126 C1127 1.367 . S
C1127 C1126 1.367 . S
C1127 C1129 1.433 . S
C1128 C1124 1.350 . S
C1128 C1125 1.463 . S
C1128 N1132 1.427 . S
C1129 H1119 0.929 . S
C1129 C1127 1.433 . S
C1129 N1132 1.384 . S
C1130 H1121 0.929 . S
C1130 C1122 1.378 . S
C1130 C1125 1.350 . S
C1131 H1118 0.929 . S
C1131 C1123 1.433 . S
C1131 N1133 1.384 . S
N1132 C1128 1.427 . S
N1132 C1129 1.384 . S
N1133 C1125 1.427 . S
N1133 C1131 1.384 . S
H1134 C1140 0.930 . S
H1135 C1144 0.930 . S
H1136 C1149 0.929 . S
H1137 C1147 0.929 . S
H1138 C1142 0.929 . S
H1139 C1148 0.929 . S
C1140 H1134 0.930 . S
C1140 C1141 1.367 . S
C1140 C1148 1.378 . S
C1141 C1140 1.367 . S
C1141 C1149 1.433 . S
C1142 H1138 0.929 . S
C1142 C1144 1.378 . S
C1142 C1146 1.350 . S
C1143 C1146 1.463 1_554 S
C1143 C1148 1.350 . S
C1143 N1151 1.427 . S
C1144 H1135 0.930 . S
C1144 C1142 1.378 . S
C1144 C1145 1.367 . S
C1145 C1144 1.367 . S
C1145 C1147 1.433 . S
C1146 C1142 1.350 . S
C1146 C1143 1.463 1_556 S
C1146 N1150 1.427 . S
C1147 H1137 0.929 . S
C1147 C1145 1.433 . S
C1147 N1150 1.384 . S
C1148 H1139 0.929 . S
C1148 C1140 1.378 . S
C1148 C1143 1.350 . S
C1149 H1136 0.929 . S
C1149 C1141 1.433 . S
C1149 N1151 1.384 . S
N1150 C1146 1.427 . S
N1150 C1147 1.384 . S
N1151 C1143 1.427 . S
N1151 C1149 1.384 . S
H1152 C1158 0.930 . S
H1153 C1162 0.930 . S
H1154 C1167 0.929 . S
H1155 C1165 0.929 . S
H1156 C1160 0.929 . S
H1157 C1166 0.929 . S
C1158 H1152 0.930 . S
C1158 C1159 1.367 . S
C1158 C1166 1.378 . S
C1159 C1158 1.367 . S
C1159 C1167 1.433 . S
C1160 H1156 0.929 . S
C1160 C1162 1.378 . S
C1160 C1164 1.350 . S
C1161 C1164 1.463 . S
C1161 C1166 1.350 . S
C1161 N1169 1.427 . S
C1162 H1153 0.930 . S
C1162 C1160 1.378 . S
C1162 C1163 1.367 . S
C1163 C1162 1.367 . S
C1163 C1165 1.433 . S
C1164 C1160 1.350 . S
C1164 C1161 1.463 . S
C1164 N1168 1.427 . S
C1165 H1155 0.929 . S
C1165 C1163 1.433 . S
C1165 N1168 1.384 . S
C1166 H1157 0.929 . S
C1166 C1158 1.378 . S
C1166 C1161 1.350 . S
C1167 H1154 0.929 . S
C1167 C1159 1.433 . S
C1167 N1169 1.384 . S
N1168 C1164 1.427 . S
N1168 C1165 1.384 . S
N1169 C1161 1.427 . S
N1169 C1167 1.384 . S
H1170 C1176 0.930 . S
H1171 C1180 0.930 . S
H1172 C1185 0.929 . S
H1173 C1183 0.929 . S
H1174 C1178 0.929 . S
H1175 C1184 0.929 . S
C1176 H1170 0.930 . S
C1176 C1177 1.367 . S
C1176 C1184 1.378 . S
C1177 C1176 1.367 . S
C1177 C1185 1.433 . S
C1178 H1174 0.929 . S
C1178 C1180 1.378 . S
C1178 C1182 1.350 . S
C1179 C1182 1.463 . S
C1179 C1184 1.350 . S
C1179 N1187 1.427 . S
C1180 H1171 0.930 . S
C1180 C1178 1.378 . S
C1180 C1181 1.367 . S
C1181 C1180 1.367 . S
C1181 C1183 1.433 . S
C1182 C1178 1.350 . S
C1182 C1179 1.463 . S
C1182 N1186 1.427 . S
C1183 H1173 0.929 . S
C1183 C1181 1.433 . S
C1183 N1186 1.384 . S
C1184 H1175 0.929 . S
C1184 C1176 1.378 . S
C1184 C1179 1.350 . S
C1185 H1172 0.929 . S
C1185 C1177 1.433 . S
C1185 N1187 1.384 . S
N1186 C1182 1.427 . S
N1186 C1183 1.384 . S
N1187 C1179 1.427 . S
N1187 C1185 1.384 . S
H1188 C1194 0.930 . S
H1189 C1198 0.930 . S
H1190 C1203 0.929 . S
H1191 C1201 0.929 . S
H1192 C1196 0.929 . S
H1193 C1202 0.929 . S
C1194 H1188 0.930 . S
C1194 C1195 1.367 . S
C1194 C1202 1.378 . S
C1195 C1194 1.367 . S
C1195 C1203 1.433 . S
C1196 H1192 0.929 . S
C1196 C1198 1.378 . S
C1196 C1200 1.350 . S
C1197 C1200 1.463 1_565 S
C1197 C1202 1.350 . S
C1197 N1205 1.427 . S
C1198 H1189 0.930 . S
C1198 C1196 1.378 . S
C1198 C1199 1.367 . S
C1199 C1198 1.367 . S
C1199 C1201 1.433 . S
C1200 C1196 1.350 . S
C1200 C1197 1.463 1_545 S
C1200 N1204 1.427 . S
C1201 H1191 0.929 . S
C1201 C1199 1.433 . S
C1201 N1204 1.384 . S
C1202 H1193 0.929 . S
C1202 C1194 1.378 . S
C1202 C1197 1.350 . S
C1203 H1190 0.929 . S
C1203 C1195 1.433 . S
C1203 N1205 1.384 . S
N1204 C1200 1.427 . S
N1204 C1201 1.384 . S
N1205 C1197 1.427 . S
N1205 C1203 1.384 . S
H1206 C1212 0.930 . S
H1207 C1216 0.930 . S
H1208 C1221 0.929 . S
H1209 C1219 0.929 . S
H1210 C1214 0.929 . S
H1211 C1220 0.929 . S
C1212 H1206 0.930 . S
C1212 C1213 1.367 . S
C1212 C1220 1.378 . S
C1213 C1212 1.367 . S
C1213 C1221 1.433 . S
C1214 H1210 0.929 . S
C1214 C1216 1.378 . S
C1214 C1218 1.350 . S
C1215 C1218 1.463 . S
C1215 C1220 1.350 . S
C1215 N1223 1.427 . S
C1216 H1207 0.930 . S
C1216 C1214 1.378 . S
C1216 C1217 1.367 . S
C1217 C1216 1.367 . S
C1217 C1219 1.433 . S
C1218 C1214 1.350 . S
C1218 C1215 1.463 . S
C1218 N1222 1.427 . S
C1219 H1209 0.929 . S
C1219 C1217 1.433 . S
C1219 N1222 1.384 . S
C1220 H1211 0.929 . S
C1220 C1212 1.378 . S
C1220 C1215 1.350 . S
C1221 H1208 0.929 . S
C1221 C1213 1.433 . S
C1221 N1223 1.384 . S
N1222 C1218 1.427 . S
N1222 C1219 1.384 . S
N1223 C1215 1.427 . S
N1223 C1221 1.384 . S
H1224 C1230 0.930 . S
H1225 C1234 0.930 . S
H1226 C1239 0.929 . S
H1227 C1237 0.929 . S
H1228 C1232 0.929 . S
H1229 C1238 0.929 . S
C1230 H1224 0.930 . S
C1230 C1231 1.367 . S
C1230 C1238 1.378 . S
C1231 C1230 1.367 . S
C1231 C1239 1.433 . S
C1232 H1228 0.929 . S
C1232 C1234 1.378 . S
C1232 C1236 1.350 . S
C1233 C1236 1.463 1_565 S
C1233 C1238 1.350 . S
C1233 N1241 1.427 . S
C1234 H1225 0.930 . S
C1234 C1232 1.378 . S
C1234 C1235 1.367 . S
C1235 C1234 1.367 . S
C1235 C1237 1.433 . S
C1236 C1232 1.350 . S
C1236 C1233 1.463 1_545 S
C1236 N1240 1.427 . S
C1237 H1227 0.929 . S
C1237 C1235 1.433 . S
C1237 N1240 1.384 . S
C1238 H1229 0.929 . S
C1238 C1230 1.378 . S
C1238 C1233 1.350 . S
C1239 H1226 0.929 . S
C1239 C1231 1.433 . S
C1239 N1241 1.384 . S
N1240 C1236 1.427 . S
N1240 C1237 1.384 . S
N1241 C1233 1.427 . S
N1241 C1239 1.384 . S
H1242 C1248 0.930 . S
H1243 C1252 0.930 . S
H1244 C1257 0.929 . S
H1245 C1255 0.929 . S
H1246 C1250 0.929 . S
H1247 C1256 0.929 . S
C1248 H1242 0.930 . S
C1248 C1249 1.367 . S
C1248 C1256 1.378 . S
C1249 C1248 1.367 . S
C1249 C1257 1.433 . S
C1250 H1246 0.929 . S
C1250 C1252 1.378 . S
C1250 C1254 1.350 . S
C1251 C1254 1.463 . S
C1251 C1256 1.350 . S
C1251 N1259 1.427 . S
C1252 H1243 0.930 . S
C1252 C1250 1.378 . S
C1252 C1253 1.367 . S
C1253 C1252 1.367 . S
C1253 C1255 1.433 . S
C1254 C1250 1.350 . S
C1254 C1251 1.463 . S
C1254 N1258 1.427 . S
C1255 H1245 0.929 . S
C1255 C1253 1.433 . S
C1255 N1258 1.384 . S
C1256 H1247 0.929 . S
C1256 C1248 1.378 . S
C1256 C1251 1.350 . S
C1257 H1244 0.929 . S
C1257 C1249 1.433 . S
C1257 N1259 1.384 . S
N1258 C1254 1.427 . S
N1258 C1255 1.384 . S
N1259 C1251 1.427 . S
N1259 C1257 1.384 . S
H1260 C1266 0.930 . S
H1261 C1270 0.930 . S
H1262 C1275 0.929 . S
H1263 C1273 0.929 . S
H1264 C1268 0.929 . S
H1265 C1274 0.929 . S
C1266 H1260 0.930 . S
C1266 C1267 1.367 . S
C1266 C1274 1.378 . S
C1267 C1266 1.367 . S
C1267 C1275 1.433 . S
C1268 H1264 0.929 . S
C1268 C1270 1.378 . S
C1268 C1272 1.350 . S
C1269 C1272 1.463 1_565 S
C1269 C1274 1.350 . S
C1269 N1277 1.427 . S
C1270 H1261 0.930 . S
C1270 C1268 1.378 . S
C1270 C1271 1.367 . S
C1271 C1270 1.367 . S
C1271 C1273 1.433 . S
C1272 C1268 1.350 . S
C1272 C1269 1.463 1_545 S
C1272 N1276 1.427 . S
C1273 H1263 0.929 . S
C1273 C1271 1.433 . S
C1273 N1276 1.384 . S
C1274 H1265 0.929 . S
C1274 C1266 1.378 . S
C1274 C1269 1.350 . S
C1275 H1262 0.929 . S
C1275 C1267 1.433 . S
C1275 N1277 1.384 . S
N1276 C1272 1.427 . S
N1276 C1273 1.384 . S
N1277 C1269 1.427 . S
N1277 C1275 1.384 . S
H1278 C1284 0.930 . S
H1279 C1288 0.930 . S
H1280 C1293 0.929 . S
H1281 C1291 0.929 . S
H1282 C1286 0.929 . S
H1283 C1292 0.929 . S
C1284 H1278 0.930 . S
C1284 C1285 1.367 . S
C1284 C1292 1.378 . S
C1285 C1284 1.367 . S
C1285 C1293 1.433 . S
C1286 H1282 0.929 . S
C1286 C1288 1.378 . S
C1286 C1290 1.350 . S
C1287 C1290 1.463 1_545 S
C1287 C1292 1.350 . S
C1287 N1295 1.427 . S
C1288 H1279 0.930 . S
C1288 C1286 1.378 . S
C1288 C1289 1.367 . S
C1289 C1288 1.367 . S
C1289 C1291 1.433 . S
C1290 C1286 1.350 . S
C1290 C1287 1.463 1_565 S
C1290 N1294 1.427 . S
C1291 H1281 0.929 . S
C1291 C1289 1.433 . S
C1291 N1294 1.384 . S
C1292 H1283 0.929 . S
C1292 C1284 1.378 . S
C1292 C1287 1.350 . S
C1293 H1280 0.929 . S
C1293 C1285 1.433 . S
C1293 N1295 1.384 . S
N1294 C1290 1.427 . S
N1294 C1291 1.384 . S
N1295 C1287 1.427 . S
N1295 C1293 1.384 . S
H1296 C1302 0.930 . S
H1297 C1306 0.930 . S
H1298 C1311 0.929 . S
H1299 C1309 0.929 . S
H1300 C1304 0.929 . S
H1301 C1310 0.929 . S
C1302 H1296 0.930 . S
C1302 C1303 1.367 . S
C1302 C1310 1.378 . S
C1303 C1302 1.367 . S
C1303 C1311 1.433 . S
C1304 H1300 0.929 . S
C1304 C1306 1.378 . S
C1304 C1308 1.350 . S
C1305 C1308 1.463 . S
C1305 C1310 1.350 . S
C1305 N1313 1.427 . S
C1306 H1297 0.930 . S
C1306 C1304 1.378 . S
C1306 C1307 1.367 . S
C1307 C1306 1.367 . S
C1307 C1309 1.433 . S
C1308 C1304 1.350 . S
C1308 C1305 1.463 . S
C1308 N1312 1.427 . S
C1309 H1299 0.929 . S
C1309 C1307 1.433 . S
C1309 N1312 1.384 . S
C1310 H1301 0.929 . S
C1310 C1302 1.378 . S
C1310 C1305 1.350 . S
C1311 H1298 0.929 . S
C1311 C1303 1.433 . S
C1311 N1313 1.384 . S
N1312 C1308 1.427 . S
N1312 C1309 1.384 . S
N1313 C1305 1.427 . S
N1313 C1311 1.384 . S
H1314 C1320 0.930 . S
H1315 C1324 0.930 . S
H1316 C1329 0.929 . S
H1317 C1327 0.929 . S
H1318 C1322 0.929 . S
H1319 C1328 0.929 . S
C1320 H1314 0.930 . S
C1320 C1321 1.367 . S
C1320 C1328 1.378 . S
C1321 C1320 1.367 . S
C1321 C1329 1.433 . S
C1322 H1318 0.929 . S
C1322 C1324 1.378 . S
C1322 C1326 1.350 . S
C1323 C1326 1.463 . S
C1323 C1328 1.350 . S
C1323 N1331 1.427 . S
C1324 H1315 0.930 . S
C1324 C1322 1.378 . S
C1324 C1325 1.367 . S
C1325 C1324 1.367 . S
C1325 C1327 1.433 . S
C1326 C1322 1.350 . S
C1326 C1323 1.463 . S
C1326 N1330 1.427 . S
C1327 H1317 0.929 . S
C1327 C1325 1.433 . S
C1327 N1330 1.384 . S
C1328 H1319 0.929 . S
C1328 C1320 1.378 . S
C1328 C1323 1.350 . S
C1329 H1316 0.929 . S
C1329 C1321 1.433 . S
C1329 N1331 1.384 . S
N1330 C1326 1.427 . S
N1330 C1327 1.384 . S
N1331 C1323 1.427 . S
N1331 C1329 1.384 . S
H1332 C1338 0.930 . S
H1333 C1342 0.930 . S
H1334 C1347 0.929 . S
H1335 C1345 0.929 . S
H1336 C1340 0.929 . S
H1337 C1346 0.929 . S
C1338 H1332 0.930 . S
C1338 C1339 1.367 . S
C1338 C1346 1.378 . S
C1339 C1338 1.367 . S
C1339 C1347 1.433 . S
C1340 H1336 0.929 . S
C1340 C1342 1.378 . S
C1340 C1344 1.350 . S
C1341 C1344 1.463 . S
C1341 C1346 1.350 . S
C1341 N1349 1.427 . S
C1342 H1333 0.930 . S
C1342 C1340 1.378 . S
C1342 C1343 1.367 . S
C1343 C1342 1.367 . S
C1343 C1345 1.433 . S
C1344 C1340 1.350 . S
C1344 C1341 1.463 . S
C1344 N1348 1.427 . S
C1345 H1335 0.929 . S
C1345 C1343 1.433 . S
C1345 N1348 1.384 . S
C1346 H1337 0.929 . S
C1346 C1338 1.378 . S
C1346 C1341 1.350 . S
C1347 H1334 0.929 . S
C1347 C1339 1.433 . S
C1347 N1349 1.384 . S
N1348 C1344 1.427 . S
N1348 C1345 1.384 . S
N1349 C1341 1.427 . S
N1349 C1347 1.384 . S
H1350 C1356 0.930 . S
H1351 C1360 0.930 . S
H1352 C1365 0.929 . S
H1353 C1363 0.929 . S
H1354 C1358 0.929 . S
H1355 C1364 0.929 . S
C1356 H1350 0.930 . S
C1356 C1357 1.367 . S
C1356 C1364 1.378 . S
C1357 C1356 1.367 . S
C1357 C1365 1.433 . S
C1358 H1354 0.929 . S
C1358 C1360 1.378 . S
C1358 C1362 1.350 . S
C1359 C1362 1.463 . S
C1359 C1364 1.350 . S
C1359 N1367 1.427 . S
C1360 H1351 0.930 . S
C1360 C1358 1.378 . S
C1360 C1361 1.367 . S
C1361 C1360 1.367 . S
C1361 C1363 1.433 . S
C1362 C1358 1.350 . S
C1362 C1359 1.463 . S
C1362 N1366 1.427 . S
C1363 H1353 0.929 . S
C1363 C1361 1.433 . S
C1363 N1366 1.384 . S
C1364 H1355 0.929 . S
C1364 C1356 1.378 . S
C1364 C1359 1.350 . S
C1365 H1352 0.929 . S
C1365 C1357 1.433 . S
C1365 N1367 1.384 . S
N1366 C1362 1.427 . S
N1366 C1363 1.384 . S
N1367 C1359 1.427 . S
N1367 C1365 1.384 . S
H1368 C1374 0.930 . S
H1369 C1378 0.930 . S
H1370 C1383 0.929 . S
H1371 C1381 0.929 . S
H1372 C1376 0.929 . S
H1373 C1382 0.929 . S
C1374 H1368 0.930 . S
C1374 C1375 1.367 . S
C1374 C1382 1.378 . S
C1375 C1374 1.367 . S
C1375 C1383 1.433 . S
C1376 H1372 0.929 . S
C1376 C1378 1.378 . S
C1376 C1380 1.350 . S
C1377 C1380 1.463 . S
C1377 C1382 1.350 . S
C1377 N1385 1.427 . S
C1378 H1369 0.930 . S
C1378 C1376 1.378 . S
C1378 C1379 1.367 . S
C1379 C1378 1.367 . S
C1379 C1381 1.433 . S
C1380 C1376 1.350 . S
C1380 C1377 1.463 . S
C1380 N1384 1.427 . S
C1381 H1371 0.929 . S
C1381 C1379 1.433 . S
C1381 N1384 1.384 . S
C1382 H1373 0.929 . S
C1382 C1374 1.378 . S
C1382 C1377 1.350 . S
C1383 H1370 0.929 . S
C1383 C1375 1.433 . S
C1383 N1385 1.384 . S
N1384 C1380 1.427 . S
N1384 C1381 1.384 . S
N1385 C1377 1.427 . S
N1385 C1383 1.384 . S
H1386 C1392 0.930 . S
H1387 C1396 0.930 . S
H1388 C1401 0.929 . S
H1389 C1399 0.929 . S
H1390 C1394 0.929 . S
H1391 C1400 0.929 . S
C1392 H1386 0.930 . S
C1392 C1393 1.367 . S
C1392 C1400 1.378 . S
C1393 C1392 1.367 . S
C1393 C1401 1.433 . S
C1394 H1390 0.929 . S
C1394 C1396 1.378 . S
C1394 C1398 1.350 . S
C1395 C1398 1.463 . S
C1395 C1400 1.350 . S
C1395 N1403 1.427 . S
C1396 H1387 0.930 . S
C1396 C1394 1.378 . S
C1396 C1397 1.367 . S
C1397 C1396 1.367 . S
C1397 C1399 1.433 . S
C1398 C1394 1.350 . S
C1398 C1395 1.463 . S
C1398 N1402 1.427 . S
C1399 H1389 0.929 . S
C1399 C1397 1.433 . S
C1399 N1402 1.384 . S
C1400 H1391 0.929 . S
C1400 C1392 1.378 . S
C1400 C1395 1.350 . S
C1401 H1388 0.929 . S
C1401 C1393 1.433 . S
C1401 N1403 1.384 . S
N1402 C1398 1.427 . S
N1402 C1399 1.384 . S
N1403 C1395 1.427 . S
N1403 C1401 1.384 . S
H1404 C1410 0.930 . S
H1405 C1414 0.930 . S
H1406 C1419 0.929 . S
H1407 C1417 0.929 . S
H1408 C1412 0.929 . S
H1409 C1418 0.929 . S
C1410 H1404 0.930 . S
C1410 C1411 1.367 . S
C1410 C1418 1.378 . S
C1411 C1410 1.367 . S
C1411 C1419 1.433 . S
C1412 H1408 0.929 . S
C1412 C1414 1.378 . S
C1412 C1416 1.350 . S
C1413 C1416 1.463 . S
C1413 C1418 1.350 . S
C1413 N1421 1.427 . S
C1414 H1405 0.930 . S
C1414 C1412 1.378 . S
C1414 C1415 1.367 . S
C1415 C1414 1.367 . S
C1415 C1417 1.433 . S
C1416 C1412 1.350 . S
C1416 C1413 1.463 . S
C1416 N1420 1.427 . S
C1417 H1407 0.929 . S
C1417 C1415 1.433 . S
C1417 N1420 1.384 . S
C1418 H1409 0.929 . S
C1418 C1410 1.378 . S
C1418 C1413 1.350 . S
C1419 H1406 0.929 . S
C1419 C1411 1.433 . S
C1419 N1421 1.384 . S
N1420 C1416 1.427 . S
N1420 C1417 1.384 . S
N1421 C1413 1.427 . S
N1421 C1419 1.384 . S
H1422 C1428 0.930 . S
H1423 C1432 0.930 . S
H1424 C1437 0.929 . S
H1425 C1435 0.929 . S
H1426 C1430 0.929 . S
H1427 C1436 0.929 . S
C1428 H1422 0.930 . S
C1428 C1429 1.367 . S
C1428 C1436 1.378 . S
C1429 C1428 1.367 . S
C1429 C1437 1.433 . S
C1430 H1426 0.929 . S
C1430 C1432 1.378 . S
C1430 C1434 1.350 . S
C1431 C1434 1.463 . S
C1431 C1436 1.350 . S
C1431 N1439 1.427 . S
C1432 H1423 0.930 . S
C1432 C1430 1.378 . S
C1432 C1433 1.367 . S
C1433 C1432 1.367 . S
C1433 C1435 1.433 . S
C1434 C1430 1.350 . S
C1434 C1431 1.463 . S
C1434 N1438 1.427 . S
C1435 H1425 0.929 . S
C1435 C1433 1.433 . S
C1435 N1438 1.384 . S
C1436 H1427 0.929 . S
C1436 C1428 1.378 . S
C1436 C1431 1.350 . S
C1437 H1424 0.929 . S
C1437 C1429 1.433 . S
C1437 N1439 1.384 . S
N1438 C1434 1.427 . S
N1438 C1435 1.384 . S
N1439 C1431 1.427 . S
N1439 C1437 1.384 . S
H1440 C1446 0.930 . S
H1441 C1450 0.930 . S
H1442 C1455 0.929 . S
H1443 C1453 0.929 . S
H1444 C1448 0.929 . S
H1445 C1454 0.929 . S
C1446 H1440 0.930 . S
C1446 C1447 1.367 . S
C1446 C1454 1.378 . S
C1447 C1446 1.367 . S
C1447 C1455 1.433 . S
C1448 H1444 0.929 . S
C1448 C1450 1.378 . S
C1448 C1452 1.350 . S
C1449 C1452 1.463 . S
C1449 C1454 1.350 . S
C1449 N1457 1.427 . S
C1450 H1441 0.930 . S
C1450 C1448 1.378 . S
C1450 C1451 1.367 . S
C1451 C1450 1.367 . S
C1451 C1453 1.433 . S
C1452 C1448 1.350 . S
C1452 C1449 1.463 . S
C1452 N1456 1.427 . S
C1453 H1443 0.929 . S
C1453 C1451 1.433 . S
C1453 N1456 1.384 . S
C1454 H1445 0.929 . S
C1454 C1446 1.378 . S
C1454 C1449 1.350 . S
C1455 H1442 0.929 . S
C1455 C1447 1.433 . S
C1455 N1457 1.384 . S
N1456 C1452 1.427 . S
N1456 C1453 1.384 . S
N1457 C1449 1.427 . S
N1457 C1455 1.384 . S
H1458 C1464 0.930 . S
H1459 C1468 0.930 . S
H1460 C1473 0.929 . S
H1461 C1471 0.929 . S
H1462 C1466 0.929 . S
H1463 C1472 0.929 . S
C1464 H1458 0.930 . S
C1464 C1465 1.367 . S
C1464 C1472 1.378 . S
C1465 C1464 1.367 . S
C1465 C1473 1.433 . S
C1466 H1462 0.929 . S
C1466 C1468 1.378 . S
C1466 C1470 1.350 . S
C1467 C1470 1.463 . S
C1467 C1472 1.350 . S
C1467 N1475 1.427 . S
C1468 H1459 0.930 . S
C1468 C1466 1.378 . S
C1468 C1469 1.367 . S
C1469 C1468 1.367 . S
C1469 C1471 1.433 . S
C1470 C1466 1.350 . S
C1470 C1467 1.463 . S
C1470 N1474 1.427 . S
C1471 H1461 0.929 . S
C1471 C1469 1.433 . S
C1471 N1474 1.384 . S
C1472 H1463 0.929 . S
C1472 C1464 1.378 . S
C1472 C1467 1.350 . S
C1473 H1460 0.929 . S
C1473 C1465 1.433 . S
C1473 N1475 1.384 . S
N1474 C1470 1.427 . S
N1474 C1471 1.384 . S
N1475 C1467 1.427 . S
N1475 C1473 1.384 . S
H1476 C1482 0.930 . S
H1477 C1486 0.930 . S
H1478 C1491 0.929 . S
H1479 C1489 0.929 . S
H1480 C1484 0.929 . S
H1481 C1490 0.929 . S
C1482 H1476 0.930 . S
C1482 C1483 1.367 . S
C1482 C1490 1.378 . S
C1483 C1482 1.367 . S
C1483 C1491 1.433 . S
C1484 H1480 0.929 . S
C1484 C1486 1.378 . S
C1484 C1488 1.350 . S
C1485 C1488 1.463 . S
C1485 C1490 1.350 . S
C1485 N1493 1.427 . S
C1486 H1477 0.930 . S
C1486 C1484 1.378 . S
C1486 C1487 1.367 . S
C1487 C1486 1.367 . S
C1487 C1489 1.433 . S
C1488 C1484 1.350 . S
C1488 C1485 1.463 . S
C1488 N1492 1.427 . S
C1489 H1479 0.929 . S
C1489 C1487 1.433 . S
C1489 N1492 1.384 . S
C1490 H1481 0.929 . S
C1490 C1482 1.378 . S
C1490 C1485 1.350 . S
C1491 H1478 0.929 . S
C1491 C1483 1.433 . S
C1491 N1493 1.384 . S
N1492 C1488 1.427 . S
N1492 C1489 1.384 . S
N1493 C1485 1.427 . S
N1493 C1491 1.384 . S
H1494 C1500 0.930 . S
H1495 C1504 0.930 . S
H1496 C1509 0.929 . S
H1497 C1507 0.929 . S
H1498 C1502 0.929 . S
H1499 C1508 0.929 . S
C1500 H1494 0.930 . S
C1500 C1501 1.367 . S
C1500 C1508 1.378 . S
C1501 C1500 1.367 . S
C1501 C1509 1.433 . S
C1502 H1498 0.929 . S
C1502 C1504 1.378 . S
C1502 C1506 1.350 . S
C1503 C1506 1.463 . S
C1503 C1508 1.350 . S
C1503 N1511 1.427 . S
C1504 H1495 0.930 . S
C1504 C1502 1.378 . S
C1504 C1505 1.367 . S
C1505 C1504 1.367 . S
C1505 C1507 1.433 . S
C1506 C1502 1.350 . S
C1506 C1503 1.463 . S
C1506 N1510 1.427 . S
C1507 H1497 0.929 . S
C1507 C1505 1.433 . S
C1507 N1510 1.384 . S
C1508 H1499 0.929 . S
C1508 C1500 1.378 . S
C1508 C1503 1.350 . S
C1509 H1496 0.929 . S
C1509 C1501 1.433 . S
C1509 N1511 1.384 . S
N1510 C1506 1.427 . S
N1510 C1507 1.384 . S
N1511 C1503 1.427 . S
N1511 C1509 1.384 . S
H1512 C1518 0.930 . S
H1513 C1522 0.930 . S
H1514 C1527 0.929 . S
H1515 C1525 0.929 . S
H1516 C1520 0.929 . S
H1517 C1526 0.929 . S
C1518 H1512 0.930 . S
C1518 C1519 1.367 . S
C1518 C1526 1.378 . S
C1519 C1518 1.367 . S
C1519 C1527 1.433 . S
C1520 H1516 0.929 . S
C1520 C1522 1.378 . S
C1520 C1524 1.350 . S
C1521 C1524 1.463 . S
C1521 C1526 1.350 . S
C1521 N1529 1.427 . S
C1522 H1513 0.930 . S
C1522 C1520 1.378 . S
C1522 C1523 1.367 . S
C1523 C1522 1.367 . S
C1523 C1525 1.433 . S
C1524 C1520 1.350 . S
C1524 C1521 1.463 . S
C1524 N1528 1.427 . S
C1525 H1515 0.929 . S
C1525 C1523 1.433 . S
C1525 N1528 1.384 . S
C1526 H1517 0.929 . S
C1526 C1518 1.378 . S
C1526 C1521 1.350 . S
C1527 H1514 0.929 . S
C1527 C1519 1.433 . S
C1527 N1529 1.384 . S
N1528 C1524 1.427 . S
N1528 C1525 1.384 . S
N1529 C1521 1.427 . S
N1529 C1527 1.384 . S
H1530 C1536 0.930 . S
H1531 C1540 0.930 . S
H1532 C1545 0.929 . S
H1533 C1543 0.929 . S
H1534 C1538 0.929 . S
H1535 C1544 0.929 . S
C1536 H1530 0.930 . S
C1536 C1537 1.367 . S
C1536 C1544 1.378 . S
C1537 C1536 1.367 . S
C1537 C1545 1.433 . S
C1538 H1534 0.929 . S
C1538 C1540 1.378 . S
C1538 C1542 1.350 . S
C1539 C1542 1.463 . S
C1539 C1544 1.350 . S
C1539 N1547 1.427 . S
C1540 H1531 0.930 . S
C1540 C1538 1.378 . S
C1540 C1541 1.367 . S
C1541 C1540 1.367 . S
C1541 C1543 1.433 . S
C1542 C1538 1.350 . S
C1542 C1539 1.463 . S
C1542 N1546 1.427 . S
C1543 H1533 0.929 . S
C1543 C1541 1.433 . S
C1543 N1546 1.384 . S
C1544 H1535 0.929 . S
C1544 C1536 1.378 . S
C1544 C1539 1.350 . S
C1545 H1532 0.929 . S
C1545 C1537 1.433 . S
C1545 N1547 1.384 . S
N1546 C1542 1.427 . S
N1546 C1543 1.384 . S
N1547 C1539 1.427 . S
N1547 C1545 1.384 . S
H1548 C1554 0.930 . S
H1549 C1558 0.930 . S
H1550 C1563 0.929 . S
H1551 C1561 0.929 . S
H1552 C1556 0.929 . S
H1553 C1562 0.929 . S
C1554 H1548 0.930 . S
C1554 C1555 1.367 . S
C1554 C1562 1.378 . S
C1555 C1554 1.367 . S
C1555 C1563 1.433 . S
C1556 H1552 0.929 . S
C1556 C1558 1.378 . S
C1556 C1560 1.350 . S
C1557 C1560 1.463 . S
C1557 C1562 1.350 . S
C1557 N1565 1.427 . S
C1558 H1549 0.930 . S
C1558 C1556 1.378 . S
C1558 C1559 1.367 . S
C1559 C1558 1.367 . S
C1559 C1561 1.433 . S
C1560 C1556 1.350 . S
C1560 C1557 1.463 . S
C1560 N1564 1.427 . S
C1561 H1551 0.929 . S
C1561 C1559 1.433 . S
C1561 N1564 1.384 . S
C1562 H1553 0.929 . S
C1562 C1554 1.378 . S
C1562 C1557 1.350 . S
C1563 H1550 0.929 . S
C1563 C1555 1.433 . S
C1563 N1565 1.384 . S
N1564 C1560 1.427 . S
N1564 C1561 1.384 . S
N1565 C1557 1.427 . S
N1565 C1563 1.384 . S
H1566 C1572 0.930 . S
H1567 C1576 0.930 . S
H1568 C1581 0.929 . S
H1569 C1579 0.929 . S
H1570 C1574 0.929 . S
H1571 C1580 0.929 . S
C1572 H1566 0.930 . S
C1572 C1573 1.367 . S
C1572 C1580 1.378 . S
C1573 C1572 1.367 . S
C1573 C1581 1.433 . S
C1574 H1570 0.929 . S
C1574 C1576 1.378 . S
C1574 C1578 1.350 . S
C1575 C1578 1.463 . S
C1575 C1580 1.350 . S
C1575 N1583 1.427 . S
C1576 H1567 0.930 . S
C1576 C1574 1.378 . S
C1576 C1577 1.367 . S
C1577 C1576 1.367 . S
C1577 C1579 1.433 . S
C1578 C1574 1.350 . S
C1578 C1575 1.463 . S
C1578 N1582 1.427 . S
C1579 H1569 0.929 . S
C1579 C1577 1.433 . S
C1579 N1582 1.384 . S
C1580 H1571 0.929 . S
C1580 C1572 1.378 . S
C1580 C1575 1.350 . S
C1581 H1568 0.929 . S
C1581 C1573 1.433 . S
C1581 N1583 1.384 . S
N1582 C1578 1.427 . S
N1582 C1579 1.384 . S
N1583 C1575 1.427 . S
N1583 C1581 1.384 . S
H1584 C1590 0.930 . S
H1585 C1594 0.930 . S
H1586 C1599 0.929 . S
H1587 C1597 0.929 . S
H1588 C1592 0.929 . S
H1589 C1598 0.929 . S
C1590 H1584 0.930 . S
C1590 C1591 1.367 . S
C1590 C1598 1.378 . S
C1591 C1590 1.367 . S
C1591 C1599 1.433 . S
C1592 H1588 0.929 . S
C1592 C1594 1.378 . S
C1592 C1596 1.350 . S
C1593 C1596 1.463 . S
C1593 C1598 1.350 . S
C1593 N1601 1.427 . S
C1594 H1585 0.930 . S
C1594 C1592 1.378 . S
C1594 C1595 1.367 . S
C1595 C1594 1.367 . S
C1595 C1597 1.433 . S
C1596 C1592 1.350 . S
C1596 C1593 1.463 . S
C1596 N1600 1.427 . S
C1597 H1587 0.929 . S
C1597 C1595 1.433 . S
C1597 N1600 1.384 . S
C1598 H1589 0.929 . S
C1598 C1590 1.378 . S
C1598 C1593 1.350 . S
C1599 H1586 0.929 . S
C1599 C1591 1.433 . S
C1599 N1601 1.384 . S
N1600 C1596 1.427 . S
N1600 C1597 1.384 . S
N1601 C1593 1.427 . S
N1601 C1599 1.384 . S
H1602 C1608 0.930 . S
H1603 C1612 0.930 . S
H1604 C1617 0.929 . S
H1605 C1615 0.929 . S
H1606 C1610 0.929 . S
H1607 C1616 0.929 . S
C1608 H1602 0.930 . S
C1608 C1609 1.367 . S
C1608 C1616 1.378 . S
C1609 C1608 1.367 . S
C1609 C1617 1.433 . S
C1610 H1606 0.929 . S
C1610 C1612 1.378 . S
C1610 C1614 1.350 . S
C1611 C1614 1.463 . S
C1611 C1616 1.350 . S
C1611 N1619 1.427 . S
C1612 H1603 0.930 . S
C1612 C1610 1.378 . S
C1612 C1613 1.367 . S
C1613 C1612 1.367 . S
C1613 C1615 1.433 . S
C1614 C1610 1.350 . S
C1614 C1611 1.463 . S
C1614 N1618 1.427 . S
C1615 H1605 0.929 . S
C1615 C1613 1.433 . S
C1615 N1618 1.384 . S
C1616 H1607 0.929 . S
C1616 C1608 1.378 . S
C1616 C1611 1.350 . S
C1617 H1604 0.929 . S
C1617 C1609 1.433 . S
C1617 N1619 1.384 . S
N1618 C1614 1.427 . S
N1618 C1615 1.384 . S
N1619 C1611 1.427 . S
N1619 C1617 1.384 . S
H1620 C1626 0.930 . S
H1621 C1630 0.930 . S
H1622 C1635 0.929 . S
H1623 C1633 0.929 . S
H1624 C1628 0.929 . S
H1625 C1634 0.929 . S
C1626 H1620 0.930 . S
C1626 C1627 1.367 . S
C1626 C1634 1.378 . S
C1627 C1626 1.367 . S
C1627 C1635 1.433 . S
C1628 H1624 0.929 . S
C1628 C1630 1.378 . S
C1628 C1632 1.350 . S
C1629 C1632 1.463 . S
C1629 C1634 1.350 . S
C1629 N1637 1.427 . S
C1630 H1621 0.930 . S
C1630 C1628 1.378 . S
C1630 C1631 1.367 . S
C1631 C1630 1.367 . S
C1631 C1633 1.433 . S
C1632 C1628 1.350 . S
C1632 C1629 1.463 . S
C1632 N1636 1.427 . S
C1633 H1623 0.929 . S
C1633 C1631 1.433 . S
C1633 N1636 1.384 . S
C1634 H1625 0.929 . S
C1634 C1626 1.378 . S
C1634 C1629 1.350 . S
C1635 H1622 0.929 . S
C1635 C1627 1.433 . S
C1635 N1637 1.384 . S
N1636 C1632 1.427 . S
N1636 C1633 1.384 . S
N1637 C1629 1.427 . S
N1637 C1635 1.384 . S
H1638 C1644 0.930 . S
H1639 C1648 0.930 . S
H1640 C1653 0.929 . S
H1641 C1651 0.929 . S
H1642 C1646 0.929 . S
H1643 C1652 0.929 . S
C1644 H1638 0.930 . S
C1644 C1645 1.367 . S
C1644 C1652 1.378 . S
C1645 C1644 1.367 . S
C1645 C1653 1.433 . S
C1646 H1642 0.929 . S
C1646 C1648 1.378 . S
C1646 C1650 1.350 . S
C1647 C1650 1.463 . S
C1647 C1652 1.350 . S
C1647 N1655 1.427 . S
C1648 H1639 0.930 . S
C1648 C1646 1.378 . S
C1648 C1649 1.367 . S
C1649 C1648 1.367 . S
C1649 C1651 1.433 . S
C1650 C1646 1.350 . S
C1650 C1647 1.463 . S
C1650 N1654 1.427 . S
C1651 H1641 0.929 . S
C1651 C1649 1.433 . S
C1651 N1654 1.384 . S
C1652 H1643 0.929 . S
C1652 C1644 1.378 . S
C1652 C1647 1.350 . S
C1653 H1640 0.929 . S
C1653 C1645 1.433 . S
C1653 N1655 1.384 . S
N1654 C1650 1.427 . S
N1654 C1651 1.384 . S
N1655 C1647 1.427 . S
N1655 C1653 1.384 . S
H1656 C1662 0.930 . S
H1657 C1666 0.930 . S
H1658 C1671 0.929 . S
H1659 C1669 0.929 . S
H1660 C1664 0.929 . S
H1661 C1670 0.929 . S
C1662 H1656 0.930 . S
C1662 C1663 1.367 . S
C1662 C1670 1.378 . S
C1663 C1662 1.367 . S
C1663 C1671 1.433 . S
C1664 H1660 0.929 . S
C1664 C1666 1.378 . S
C1664 C1668 1.350 . S
C1665 C1668 1.463 . S
C1665 C1670 1.350 . S
C1665 N1673 1.427 . S
C1666 H1657 0.930 . S
C1666 C1664 1.378 . S
C1666 C1667 1.367 . S
C1667 C1666 1.367 . S
C1667 C1669 1.433 . S
C1668 C1664 1.350 . S
C1668 C1665 1.463 . S
C1668 N1672 1.427 . S
C1669 H1659 0.929 . S
C1669 C1667 1.433 . S
C1669 N1672 1.384 . S
C1670 H1661 0.929 . S
C1670 C1662 1.378 . S
C1670 C1665 1.350 . S
C1671 H1658 0.929 . S
C1671 C1663 1.433 . S
C1671 N1673 1.384 . S
N1672 C1668 1.427 . S
N1672 C1669 1.384 . S
N1673 C1665 1.427 . S
N1673 C1671 1.384 . S
H1674 C1680 0.930 . S
H1675 C1684 0.930 . S
H1676 C1689 0.929 . S
H1677 C1687 0.929 . S
H1678 C1682 0.929 . S
H1679 C1688 0.929 . S
C1680 H1674 0.930 . S
C1680 C1681 1.367 . S
C1680 C1688 1.378 . S
C1681 C1680 1.367 . S
C1681 C1689 1.433 . S
C1682 H1678 0.929 . S
C1682 C1684 1.378 . S
C1682 C1686 1.350 . S
C1683 C1686 1.463 . S
C1683 C1688 1.350 . S
C1683 N1691 1.427 . S
C1684 H1675 0.930 . S
C1684 C1682 1.378 . S
C1684 C1685 1.367 . S
C1685 C1684 1.367 . S
C1685 C1687 1.433 . S
C1686 C1682 1.350 . S
C1686 C1683 1.463 . S
C1686 N1690 1.427 . S
C1687 H1677 0.929 . S
C1687 C1685 1.433 . S
C1687 N1690 1.384 . S
C1688 H1679 0.929 . S
C1688 C1680 1.378 . S
C1688 C1683 1.350 . S
C1689 H1676 0.929 . S
C1689 C1681 1.433 . S
C1689 N1691 1.384 . S
N1690 C1686 1.427 . S
N1690 C1687 1.384 . S
N1691 C1683 1.427 . S
N1691 C1689 1.384 . S
H1692 C1698 0.930 . S
H1693 C1702 0.930 . S
H1694 C1707 0.929 . S
H1695 C1705 0.929 . S
H1696 C1700 0.929 . S
H1697 C1706 0.929 . S
C1698 H1692 0.930 . S
C1698 C1699 1.367 . S
C1698 C1706 1.378 . S
C1699 C1698 1.367 . S
C1699 C1707 1.433 . S
C1700 H1696 0.929 . S
C1700 C1702 1.378 . S
C1700 C1704 1.350 . S
C1701 C1704 1.463 . S
C1701 C1706 1.350 . S
C1701 N1709 1.427 . S
C1702 H1693 0.930 . S
C1702 C1700 1.378 . S
C1702 C1703 1.367 . S
C1703 C1702 1.367 . S
C1703 C1705 1.433 . S
C1704 C1700 1.350 . S
C1704 C1701 1.463 . S
C1704 N1708 1.427 . S
C1705 H1695 0.929 . S
C1705 C1703 1.433 . S
C1705 N1708 1.384 . S
C1706 H1697 0.929 . S
C1706 C1698 1.378 . S
C1706 C1701 1.350 . S
C1707 H1694 0.929 . S
C1707 C1699 1.433 . S
C1707 N1709 1.384 . S
N1708 C1704 1.427 . S
N1708 C1705 1.384 . S
N1709 C1701 1.427 . S
N1709 C1707 1.384 . S
H1710 C1716 0.930 . S
H1711 C1720 0.930 . S
H1712 C1725 0.929 . S
H1713 C1723 0.929 . S
H1714 C1718 0.929 . S
H1715 C1724 0.929 . S
C1716 H1710 0.930 . S
C1716 C1717 1.367 . S
C1716 C1724 1.378 . S
C1717 C1716 1.367 . S
C1717 C1725 1.433 . S
C1718 H1714 0.929 . S
C1718 C1720 1.378 . S
C1718 C1722 1.350 . S
C1719 C1722 1.463 . S
C1719 C1724 1.350 . S
C1719 N1727 1.427 . S
C1720 H1711 0.930 . S
C1720 C1718 1.378 . S
C1720 C1721 1.367 . S
C1721 C1720 1.367 . S
C1721 C1723 1.433 . S
C1722 C1718 1.350 . S
C1722 C1719 1.463 . S
C1722 N1726 1.427 . S
C1723 H1713 0.929 . S
C1723 C1721 1.433 . S
C1723 N1726 1.384 . S
C1724 H1715 0.929 . S
C1724 C1716 1.378 . S
C1724 C1719 1.350 . S
C1725 H1712 0.929 . S
C1725 C1717 1.433 . S
C1725 N1727 1.384 . S
N1726 C1722 1.427 . S
N1726 C1723 1.384 . S
N1727 C1719 1.427 . S
N1727 C1725 1.384 . S
C871 C544 1.238 . S
C875 C4 1.222 . S
C889 C446 1.377 . S
C893 C50 1.380 . S
C907 C472 1.320 . S
C911 C86 1.301 . S
C925 C518 1.260 . S
C929 C112 1.287 . S
C943 C508 1.255 . S
C947 C40 1.251 . S
C961 C76 1.167 . S
C965 C554 1.132 . S
C979 C436 1.344 . S
C983 C122 1.318 . S
C997 C482 1.244 . S
C1001 C14 1.248 . S
C1015 C662 1.426 . S
C1019 C158 1.422 . S
C1033 C184 1.139 . S
C1037 C688 1.131 . S
C1051 C230 1.433 . S
C1055 C590 1.422 . S
C1069 C616 1.145 . S
C1073 C256 1.151 . S
C1087 C796 1.092 . S
C1091 C292 1.104 . S
C1105 C338 1.389 . S
C1109 C832 1.416 . S
C1123 C364 1.122 . S
C1127 C724 1.121 . S
C1141 C410 1.434 . S
C1145 C760 1.474 . S
C1159 C626 1.239 . S
C1163 C400 1.266 . S
C1177 C842 1.350 . S
C1181 C194 1.353 . S
C1195 C220 1.343 . S
C1199 C734 1.323 . S
C1213 C770 1.287 . S
C1217 C266 1.256 . S
C1231 C806 1.201 . S
C1235 C148 1.232 . S
C1249 C328 1.194 . S
C1253 C698 1.167 . S
C1267 C580 1.326 . S
C1271 C374 1.307 . S
C1285 C652 1.227 . S
C1289 C302 1.192 . S
C1303 C3 0.898 . S
C1307 C147 0.880 . S
C1321 C182 0.917 . S
C1325 C38 0.901 . S
C1339 C74 0.937 . S
C1343 C219 0.965 . S
C1357 C111 0.849 . S
C1361 C254 0.848 . S
C1375 C290 0.868 . S
C1379 C39 0.876 . S
C1393 C327 0.732 . S
C1397 C75 0.748 . S
C1411 C362 0.937 . S
C1415 C110 0.939 . S
C1429 C2 0.817 . S
C1433 C399 0.824 . S
C1447 C398 1.031 . S
C1451 C146 1.016 . S
C1465 C183 0.724 . S
C1469 C291 0.740 . S
C1483 C218 1.032 . S
C1487 C326 1.040 . S
C1501 C363 0.764 . S
C1505 C255 0.763 . S
C1519 C579 0.950 . S
C1523 C435 0.947 . S
C1537 C614 0.932 . S
C1541 C470 0.935 . S
C1555 C507 0.858 . S
C1559 C651 0.855 . S
C1573 C542 0.847 . S
C1577 C686 0.830 . S
C1591 C471 0.897 . S
C1595 C722 0.875 . S
C1609 C506 0.897 . S
C1613 C758 0.888 . S
C1627 C794 0.801 . S
C1631 C543 0.814 . S
C1645 C434 0.976 . S
C1649 C830 0.988 . S
C1663 C578 0.933 . S
C1667 C831 0.964 . S
C1681 C723 0.706 . S
C1685 C615 0.721 . S
C1699 C650 0.967 . S
C1703 C759 0.997 . S
C1717 C795 0.710 . S
C1721 C687 0.724 . S
