# Generated by pormake.
# Topology soh, (5)-cn, num edge types: 1
# Building blocks:
#     Node 0, Type 0, BuildingBlock: BEQFEK_clean_sbu_0, # of connection points: 5
#     Node 1, Type 0, BuildingBlock: BEQFEK_clean_sbu_0, # of connection points: 5
#     Node 2, Type 0, BuildingBlock: BEQFEK_clean_sbu_0, # of connection points: 5
#     Node 3, Type 0, BuildingBlock: BEQFEK_clean_sbu_0, # of connection points: 5
#     Node 4, Type 0, BuildingBlock: BEQFEK_clean_sbu_0, # of connection points: 5
#     Node 5, Type 0, BuildingBlock: BEQFEK_clean_sbu_0, # of connection points: 5
#     Node 6, Type 0, BuildingBlock: BEQFEK_clean_sbu_0, # of connection points: 5
#     Node 7, Type 0, BuildingBlock: BEQFEK_clean_sbu_0, # of connection points: 5
#     Node 8, Type 0, BuildingBlock: BEQFEK_clean_sbu_0, # of connection points: 5
#     Node 9, Type 0, BuildingBlock: BEQFEK_clean_sbu_0, # of connection points: 5
#     Node 10, Type 0, BuildingBlock: BEQFEK_clean_sbu_0, # of connection points: 5
#     Node 11, Type 0, BuildingBlock: BEQFEK_clean_sbu_0, # of connection points: 5
#     Node 12, Type 0, BuildingBlock: BEQFEK_clean_sbu_0, # of connection points: 5
#     Node 13, Type 0, BuildingBlock: BEQFEK_clean_sbu_0, # of connection points: 5
#     Node 14, Type 0, BuildingBlock: BEQFEK_clean_sbu_0, # of connection points: 5
#     Node 15, Type 0, BuildingBlock: BEQFEK_clean_sbu_0, # of connection points: 5
#     Node 16, Type 0, BuildingBlock: BEQFEK_clean_sbu_0, # of connection points: 5
#     Node 17, Type 0, BuildingBlock: BEQFEK_clean_sbu_0, # of connection points: 5
#     Node 18, Type 0, BuildingBlock: BEQFEK_clean_sbu_0, # of connection points: 5
#     Node 19, Type 0, BuildingBlock: BEQFEK_clean_sbu_0, # of connection points: 5
#     Node 20, Type 0, BuildingBlock: BEQFEK_clean_sbu_0, # of connection points: 5
#     Node 21, Type 0, BuildingBlock: BEQFEK_clean_sbu_0, # of connection points: 5
#     Node 22, Type 0, BuildingBlock: BEQFEK_clean_sbu_0, # of connection points: 5
#     Node 23, Type 0, BuildingBlock: BEQFEK_clean_sbu_0, # of connection points: 5
#     Node 24, Type 0, BuildingBlock: BEQFEK_clean_sbu_0, # of connection points: 5
#     Node 25, Type 0, BuildingBlock: BEQFEK_clean_sbu_0, # of connection points: 5
#     Node 26, Type 0, BuildingBlock: BEQFEK_clean_sbu_0, # of connection points: 5
#     Node 27, Type 0, BuildingBlock: BEQFEK_clean_sbu_0, # of connection points: 5
#     Node 28, Type 0, BuildingBlock: BEQFEK_clean_sbu_0, # of connection points: 5
#     Node 29, Type 0, BuildingBlock: BEQFEK_clean_sbu_0, # of connection points: 5
#     Node 30, Type 0, BuildingBlock: BEQFEK_clean_sbu_0, # of connection points: 5
#     Node 31, Type 0, BuildingBlock: BEQFEK_clean_sbu_0, # of connection points: 5
#     Edge 32, Type (0, 0), BuildingBlock: AJUNOK_clean_linker_0, # of connection points: 2
#     Edge 33, Type (0, 0), BuildingBlock: AJUNOK_clean_linker_0, # of connection points: 2
#     Edge 34, Type (0, 0), BuildingBlock: AJUNOK_clean_linker_0, # of connection points: 2
#     Edge 35, Type (0, 0), BuildingBlock: AJUNOK_clean_linker_0, # of connection points: 2
#     Edge 36, Type (0, 0), BuildingBlock: AJUNOK_clean_linker_0, # of connection points: 2
#     Edge 37, Type (0, 0), BuildingBlock: AJUNOK_clean_linker_0, # of connection points: 2
#     Edge 38, Type (0, 0), BuildingBlock: AJUNOK_clean_linker_0, # of connection points: 2
#     Edge 39, Type (0, 0), BuildingBlock: AJUNOK_clean_linker_0, # of connection points: 2
#     Edge 40, Type (0, 0), BuildingBlock: AJUNOK_clean_linker_0, # of connection points: 2
#     Edge 41, Type (0, 0), BuildingBlock: AJUNOK_clean_linker_0, # of connection points: 2
#     Edge 42, Type (0, 0), BuildingBlock: AJUNOK_clean_linker_0, # of connection points: 2
#     Edge 43, Type (0, 0), BuildingBlock: AJUNOK_clean_linker_0, # of connection points: 2
#     Edge 44, Type (0, 0), BuildingBlock: AJUNOK_clean_linker_0, # of connection points: 2
#     Edge 45, Type (0, 0), BuildingBlock: AJUNOK_clean_linker_0, # of connection points: 2
#     Edge 46, Type (0, 0), BuildingBlock: AJUNOK_clean_linker_0, # of connection points: 2
#     Edge 47, Type (0, 0), BuildingBlock: AJUNOK_clean_linker_0, # of connection points: 2
#     Edge 48, Type (0, 0), BuildingBlock: AJUNOK_clean_linker_0, # of connection points: 2
#     Edge 49, Type (0, 0), BuildingBlock: AJUNOK_clean_linker_0, # of connection points: 2
#     Edge 50, Type (0, 0), BuildingBlock: AJUNOK_clean_linker_0, # of connection points: 2
#     Edge 51, Type (0, 0), BuildingBlock: AJUNOK_clean_linker_0, # of connection points: 2
#     Edge 52, Type (0, 0), BuildingBlock: AJUNOK_clean_linker_0, # of connection points: 2
#     Edge 53, Type (0, 0), BuildingBlock: AJUNOK_clean_linker_0, # of connection points: 2
#     Edge 54, Type (0, 0), BuildingBlock: AJUNOK_clean_linker_0, # of connection points: 2
#     Edge 55, Type (0, 0), BuildingBlock: AJUNOK_clean_linker_0, # of connection points: 2
#     Edge 56, Type (0, 0), BuildingBlock: AJUNOK_clean_linker_0, # of connection points: 2
#     Edge 57, Type (0, 0), BuildingBlock: AJUNOK_clean_linker_0, # of connection points: 2
#     Edge 58, Type (0, 0), BuildingBlock: AJUNOK_clean_linker_0, # of connection points: 2
#     Edge 59, Type (0, 0), BuildingBlock: AJUNOK_clean_linker_0, # of connection points: 2
#     Edge 60, Type (0, 0), BuildingBlock: AJUNOK_clean_linker_0, # of connection points: 2
#     Edge 61, Type (0, 0), BuildingBlock: AJUNOK_clean_linker_0, # of connection points: 2
#     Edge 62, Type (0, 0), BuildingBlock: AJUNOK_clean_linker_0, # of connection points: 2
#     Edge 63, Type (0, 0), BuildingBlock: AJUNOK_clean_linker_0, # of connection points: 2
#     Edge 64, Type (0, 0), BuildingBlock: AJUNOK_clean_linker_0, # of connection points: 2
#     Edge 65, Type (0, 0), BuildingBlock: AJUNOK_clean_linker_0, # of connection points: 2
#     Edge 66, Type (0, 0), BuildingBlock: AJUNOK_clean_linker_0, # of connection points: 2
#     Edge 67, Type (0, 0), BuildingBlock: AJUNOK_clean_linker_0, # of connection points: 2
#     Edge 68, Type (0, 0), BuildingBlock: AJUNOK_clean_linker_0, # of connection points: 2
#     Edge 69, Type (0, 0), BuildingBlock: AJUNOK_clean_linker_0, # of connection points: 2
#     Edge 70, Type (0, 0), BuildingBlock: AJUNOK_clean_linker_0, # of connection points: 2
#     Edge 71, Type (0, 0), BuildingBlock: AJUNOK_clean_linker_0, # of connection points: 2
#     Edge 72, Type (0, 0), BuildingBlock: AJUNOK_clean_linker_0, # of connection points: 2
#     Edge 73, Type (0, 0), BuildingBlock: AJUNOK_clean_linker_0, # of connection points: 2
#     Edge 74, Type (0, 0), BuildingBlock: AJUNOK_clean_linker_0, # of connection points: 2
#     Edge 75, Type (0, 0), BuildingBlock: AJUNOK_clean_linker_0, # of connection points: 2
#     Edge 76, Type (0, 0), BuildingBlock: AJUNOK_clean_linker_0, # of connection points: 2
#     Edge 77, Type (0, 0), BuildingBlock: AJUNOK_clean_linker_0, # of connection points: 2
#     Edge 78, Type (0, 0), BuildingBlock: AJUNOK_clean_linker_0, # of connection points: 2
#     Edge 79, Type (0, 0), BuildingBlock: AJUNOK_clean_linker_0, # of connection points: 2
#     Edge 80, Type (0, 0), BuildingBlock: AJUNOK_clean_linker_0, # of connection points: 2
#     Edge 81, Type (0, 0), BuildingBlock: AJUNOK_clean_linker_0, # of connection points: 2
#     Edge 82, Type (0, 0), BuildingBlock: AJUNOK_clean_linker_0, # of connection points: 2
#     Edge 83, Type (0, 0), BuildingBlock: AJUNOK_clean_linker_0, # of connection points: 2
#     Edge 84, Type (0, 0), BuildingBlock: AJUNOK_clean_linker_0, # of connection points: 2
#     Edge 85, Type (0, 0), BuildingBlock: AJUNOK_clean_linker_0, # of connection points: 2
#     Edge 86, Type (0, 0), BuildingBlock: AJUNOK_clean_linker_0, # of connection points: 2
#     Edge 87, Type (0, 0), BuildingBlock: AJUNOK_clean_linker_0, # of connection points: 2
#     Edge 88, Type (0, 0), BuildingBlock: AJUNOK_clean_linker_0, # of connection points: 2
#     Edge 89, Type (0, 0), BuildingBlock: AJUNOK_clean_linker_0, # of connection points: 2
#     Edge 90, Type (0, 0), BuildingBlock: AJUNOK_clean_linker_0, # of connection points: 2
#     Edge 91, Type (0, 0), BuildingBlock: AJUNOK_clean_linker_0, # of connection points: 2
#     Edge 92, Type (0, 0), BuildingBlock: AJUNOK_clean_linker_0, # of connection points: 2
#     Edge 93, Type (0, 0), BuildingBlock: AJUNOK_clean_linker_0, # of connection points: 2
#     Edge 94, Type (0, 0), BuildingBlock: AJUNOK_clean_linker_0, # of connection points: 2
#     Edge 95, Type (0, 0), BuildingBlock: AJUNOK_clean_linker_0, # of connection points: 2
#     Edge 96, Type (0, 0), BuildingBlock: AJUNOK_clean_linker_0, # of connection points: 2
#     Edge 97, Type (0, 0), BuildingBlock: AJUNOK_clean_linker_0, # of connection points: 2
#     Edge 98, Type (0, 0), BuildingBlock: AJUNOK_clean_linker_0, # of connection points: 2
#     Edge 99, Type (0, 0), BuildingBlock: AJUNOK_clean_linker_0, # of connection points: 2
#     Edge 100, Type (0, 0), BuildingBlock: AJUNOK_clean_linker_0, # of connection points: 2
#     Edge 101, Type (0, 0), BuildingBlock: AJUNOK_clean_linker_0, # of connection points: 2
#     Edge 102, Type (0, 0), BuildingBlock: AJUNOK_clean_linker_0, # of connection points: 2
#     Edge 103, Type (0, 0), BuildingBlock: AJUNOK_clean_linker_0, # of connection points: 2
#     Edge 104, Type (0, 0), BuildingBlock: AJUNOK_clean_linker_0, # of connection points: 2
#     Edge 105, Type (0, 0), BuildingBlock: AJUNOK_clean_linker_0, # of connection points: 2
#     Edge 106, Type (0, 0), BuildingBlock: AJUNOK_clean_linker_0, # of connection points: 2
#     Edge 107, Type (0, 0), BuildingBlock: AJUNOK_clean_linker_0, # of connection points: 2
#     Edge 108, Type (0, 0), BuildingBlock: AJUNOK_clean_linker_0, # of connection points: 2
#     Edge 109, Type (0, 0), BuildingBlock: AJUNOK_clean_linker_0, # of connection points: 2
#     Edge 110, Type (0, 0), BuildingBlock: AJUNOK_clean_linker_0, # of connection points: 2
#     Edge 111, Type (0, 0), BuildingBlock: AJUNOK_clean_linker_0, # of connection points: 2
# Relax obj value: 0.489
# Max RMSD: 0.192
# Mean RMSD: 0.192
data_MOF--net-soh--node1-BEQFEK_clean_sbu_0--edge1-AJUNOK_clean_linker_0
_symmetry_space_group_name_H-M    P1
_symmetry_Int_Tables_number       1
_symmetry_cell_setting            triclinic
loop_
_symmetry_equiv_pos_as_xyz
'x, y, z'
_cell_length_a     57.467918
_cell_length_b     31.621245
_cell_length_c     37.235266
_cell_angle_alpha  90.011454
_cell_angle_beta   89.744197
_cell_angle_gamma 89.9535
loop_
_atom_site_label
_atom_site_type_symbol
_atom_site_fract_x
_atom_site_fract_y
_atom_site_fract_z
_atom_type_partial_charge
Co0 Co 0.29813 0.31413 0.18866 0.0
Co1 Co 0.28426 0.38621 0.23758 0.0
C2 C 0.33562 0.36955 0.21667 0.0
O3 O 0.33026 0.33605 0.19955 0.0
O4 O 0.31968 0.39181 0.23142 0.0
C5 C 0.32079 0.24024 0.15858 0.0
O6 O 0.34013 0.2595 0.16762 0.0
C7 C 0.2877 0.41183 0.30962 0.0
C8 C 0.25739 0.45339 0.31856 0.0
C9 C 0.27468 0.43107 0.33648 0.0
N10 N 0.27808 0.42099 0.27782 0.0
N11 N 0.26039 0.44702 0.28302 0.0
C12 C 0.30622 0.37866 0.31423 0.0
H13 H 0.30894 0.36017 0.28942 0.0
H14 H 0.30166 0.35639 0.33612 0.0
H15 H 0.32288 0.39431 0.32112 0.0
C16 C 0.28012 0.26061 0.25358 0.0
N17 N 0.28276 0.29738 0.2344 0.0
N18 N 0.27403 0.32852 0.25333 0.0
C19 C 0.26427 0.3119 0.28395 0.0
C20 C 0.26829 0.2679 0.28626 0.0
C21 C 0.29071 0.21937 0.24282 0.0
H22 H 0.3071 0.22472 0.22782 0.0
H23 H 0.29438 0.19945 0.26667 0.0
H24 H 0.27824 0.20217 0.22556 0.0
O25 O 0.28197 0.36006 0.15425 0.0
O26 O 0.27034 0.41085 0.19097 0.0
H27 H 0.23414 0.31645 0.31804 0.0
H28 H 0.2588 0.34535 0.33327 0.0
C29 C 0.24897 0.33637 0.30905 0.0
H30 H 0.24223 0.36522 0.29577 0.0
H31 H 0.24916 0.45706 0.26289 0.0
O32 O 0.30149 0.25952 0.16249 0.0
C33 C 0.2725 0.39676 0.15881 0.0
Co34 Co 0.96781 0.98436 0.18956 0.0
Co35 Co 0.98391 0.91393 0.23814 0.0
C36 C 0.93173 0.92846 0.22042 0.0
O37 O 0.93619 0.96182 0.20249 0.0
O38 O 0.94834 0.90733 0.23449 0.0
C39 C 0.94427 0.05734 0.16 0.0
O40 O 0.92509 0.03836 0.17045 0.0
C41 C 0.98245 0.88602 0.31018 0.0
C42 C 0.01537 0.85102 0.31706 0.0
C43 C 0.99692 0.86882 0.33597 0.0
N44 N 0.99206 0.87945 0.27776 0.0
N45 N 0.01136 0.85725 0.28178 0.0
C46 C 0.96255 0.91597 0.31658 0.0
H47 H 0.96038 0.93801 0.29379 0.0
H48 H 0.96506 0.93475 0.34142 0.0
H49 H 0.94626 0.89745 0.3195 0.0
C50 C 0.98601 0.03943 0.25358 0.0
N51 N 0.98377 1.00254 0.2344 0.0
N52 N 0.99342 0.972 0.25282 0.0
C53 C 1.00332 0.98921 0.2829 0.0
C54 C 0.99848 0.03275 0.28562 0.0
C55 C 0.97445 0.08005 0.24371 0.0
H56 H 0.98654 0.09872 0.22674 0.0
H57 H 0.95822 0.07384 0.22875 0.0
H58 H 0.97034 0.099 0.26802 0.0
O59 O 0.98354 0.93846 0.15428 0.0
O60 O 0.99743 0.88976 0.19084 0.0
H61 H 0.03318 0.98661 0.31722 0.0
H62 H 1.00887 0.95579 0.33137 0.0
C63 C 0.01898 0.9657 0.30765 0.0
H64 H 0.02659 0.93773 0.29407 0.0
H65 H 0.02296 0.85024 0.26096 0.0
O66 O 0.96363 0.03813 0.163 0.0
C67 C 0.99406 0.90273 0.15864 0.0
Co68 Co 0.29512 0.9808 0.12817 0.0
Co69 Co 0.28457 0.90811 0.07689 0.0
C70 C 0.33375 0.92222 0.09689 0.0
O71 O 0.32699 0.95362 0.11611 0.0
O72 O 0.31907 0.90094 0.07871 0.0
C73 C 0.31895 0.05762 0.13925 0.0
O74 O 0.33247 0.04067 0.11462 0.0
C75 C 0.28114 0.86115 1.01004 0.0
C76 C 0.24319 0.86371 1.00328 0.0
C77 C 0.26374 0.85846 0.98389 0.0
N78 N 0.27127 0.8716 0.04163 0.0
N79 N 0.24849 0.87063 0.03783 0.0
C80 C 0.3068 0.85418 1.0058 0.0
H81 H 0.3135 0.83711 1.02966 0.0
H82 H 0.31603 0.88493 1.00451 0.0
H83 H 0.31068 0.83527 0.98138 0.0
C84 C 0.27255 0.0345 0.06745 0.0
N85 N 0.27845 0.99704 0.08371 0.0
N86 N 0.27683 0.96664 0.05999 0.0
C87 C 0.2716 0.98461 1.02751 0.0
C88 C 0.26778 0.02852 1.03061 0.0
C89 C 0.27123 0.07574 0.08676 0.0
H90 H 0.26693 0.07029 0.11541 0.0
H91 H 0.28827 0.09199 0.08457 0.0
H92 H 0.25779 0.09643 0.07461 0.0
O93 O 0.27866 0.93919 0.1644 0.0
O94 O 0.2727 0.88609 0.12703 0.0
H95 H 0.2593 0.9448 0.98594 0.0
H96 H 0.27909 0.98506 0.97058 0.0
C97 C 0.27524 0.96255 0.99267 0.0
H98 H 0.29023 0.941 0.99509 0.0
H99 H 0.2367 0.88022 0.05761 0.0
O100 O 0.30199 0.03604 0.15158 0.0
C101 C 0.27188 0.90099 0.15908 0.0
Co102 Co 0.97175 0.31522 0.12762 0.0
Co103 Co 0.9844 0.38662 0.07634 0.0
C104 C 0.93434 0.37326 0.09395 0.0
O105 O 0.94028 0.3419 0.11366 0.0
O106 O 0.94979 0.39441 0.07703 0.0
C107 C 0.94687 0.2395 0.13976 0.0
O108 O 0.9334 0.25646 0.11528 0.0
C109 C 0.98859 0.43397 1.00993 0.0
C110 C 0.02652 0.43029 1.00266 0.0
C111 C 1.00601 0.43639 0.98363 0.0
N112 N 0.99832 0.42275 0.04126 0.0
N113 N 0.02112 0.42306 0.03721 0.0
C114 C 0.96299 0.44145 1.00594 0.0
H115 H 0.9536 0.41084 1.00496 0.0
H116 H 0.95924 0.46021 0.98144 0.0
H117 H 0.9564 0.45892 1.02976 0.0
C118 C 0.99521 0.26019 0.06785 0.0
N119 N 0.98938 0.29793 0.08381 0.0
N120 N 0.99202 0.32812 0.06008 0.0
C121 C 0.9979 0.30991 1.0279 0.0
C122 C 1.00108 0.26591 1.03126 0.0
C123 C 0.99532 0.21892 0.08717 0.0
H124 H 0.99945 0.22418 0.11585 0.0
H125 H 0.97791 0.20411 0.08486 0.0
H126 H 1.00838 0.19712 0.07525 0.0
O127 O 0.98742 0.35735 0.16446 0.0
O128 O 0.99635 0.40795 0.12618 0.0
H129 H 0.0115 0.34948 0.98683 0.0
H130 H 0.99187 0.30958 0.97063 0.0
C131 C 0.9953 0.33202 0.99288 0.0
H132 H 0.9804 0.35391 0.99466 0.0
H133 H 0.0328 0.41289 0.05678 0.0
O134 O 0.96413 0.26064 0.1514 0.0
C135 C 0.99568 0.39453 0.15872 0.0
Co136 Co 0.7194 0.73672 0.88025 0.0
Co137 Co 0.7349 0.66556 0.83094 0.0
C138 C 0.68335 0.67908 0.85118 0.0
O139 O 0.68795 0.7128 0.86824 0.0
O140 O 0.69982 0.65805 0.83679 0.0
C141 C 0.69499 0.81264 0.89147 0.0
O142 O 0.68459 0.79841 0.86256 0.0
C143 C 0.72933 0.64186 0.75899 0.0
C144 C 0.76127 0.60681 0.74519 0.0
C145 C 0.74239 0.6278 0.73027 0.0
N146 N 0.74058 0.63229 0.78945 0.0
N147 N 0.75927 0.60984 0.78126 0.0
C148 C 0.70649 0.66482 0.75766 0.0
H149 H 0.70793 0.69573 0.77158 0.0
H150 H 0.70032 0.66944 0.72977 0.0
H151 H 0.69313 0.6457 0.77177 0.0
C152 C 0.74067 0.79213 0.81807 0.0
N153 N 0.73618 0.7548 0.8356 0.0
N154 N 0.74505 0.7239 0.81645 0.0
C155 C 0.75648 0.74118 0.78744 0.0
C156 C 0.75285 0.78527 0.78563 0.0
C157 C 0.73584 0.8348 0.83344 0.0
H158 H 0.73799 0.83439 0.86299 0.0
H159 H 0.71783 0.8436 0.82671 0.0
H160 H 0.74764 0.85896 0.82172 0.0
O161 O 0.73596 0.69081 0.91486 0.0
O162 O 0.74858 0.64089 0.8777 0.0
H163 H 0.79211 0.72936 0.77581 0.0
H164 H 0.77397 0.72626 0.73742 0.0
C165 C 0.77484 0.71847 0.76635 0.0
H166 H 0.77418 0.68421 0.77082 0.0
H167 H 0.77185 0.60055 0.79979 0.0
O168 O 0.71092 0.79019 0.9059 0.0
C169 C 0.74594 0.65446 0.91001 0.0
Co170 Co 0.04922 0.06198 0.87917 0.0
Co171 Co 0.0357 0.1345 0.83019 0.0
C172 C 0.0865 0.11914 0.85022 0.0
O173 O 0.0812 0.08564 0.86726 0.0
O174 O 0.07054 0.14083 0.83554 0.0
C175 C 0.07332 0.98591 0.8889 0.0
O176 O 0.08237 0.99901 0.85842 0.0
C177 C 0.04186 0.16065 0.75915 0.0
C178 C 0.01285 0.20418 0.74767 0.0
C179 C 0.03083 0.18166 0.73132 0.0
N180 N 0.0307 0.16956 0.78992 0.0
N181 N 0.01378 0.19672 0.78332 0.0
C182 C 0.05977 0.12603 0.75602 0.0
H183 H 0.05959 0.10494 0.7796 0.0
H184 H 0.05694 0.10626 0.73186 0.0
H185 H 0.07734 0.1404 0.75443 0.0
C186 C 0.0266 1.00837 0.81694 0.0
N187 N 0.03189 0.04521 0.83472 0.0
N188 N 0.02511 0.07702 0.8147 0.0
C189 C 0.01522 0.06109 0.78405 0.0
C190 C 0.01656 1.01665 0.78316 0.0
C191 C 0.03206 0.9653 0.83074 0.0
H192 H 0.0323 0.96512 0.86043 0.0
H193 H 0.04912 0.95574 0.81959 0.0
H194 H 0.0191 0.94181 0.82167 0.0
O195 O 0.03283 0.10696 0.91454 0.0
O196 O 0.02251 0.15872 0.87758 0.0
H197 H 0.98742 0.06905 0.74622 0.0
H198 H 0.01397 0.09464 0.73422 0.0
C199 C 1.00238 0.08712 0.75709 0.0
H200 H 0.99593 0.11678 0.76945 0.0
H201 H 1.00172 0.20701 0.80237 0.0
O202 O 0.0578 1.00848 0.90437 0.0
C203 C 0.02394 0.14411 0.90968 0.0
Co204 Co 0.721 0.06445 0.93955 0.0
Co205 Co 0.73501 0.13654 0.99008 0.0
C206 C 0.68421 0.12206 0.97255 0.0
O207 O 0.6899 0.08993 0.95381 0.0
O208 O 0.69991 0.14391 0.98797 0.0
C209 C 0.69696 0.98836 0.93348 0.0
O210 O 0.69051 1.00104 0.96562 0.0
C211 C 0.7354 0.17659 0.05977 0.0
C212 C 0.77259 0.19034 0.06616 0.0
C213 C 0.75223 0.18441 0.08597 0.0
N214 N 0.74585 0.17346 1.0275 0.0
N215 N 0.76789 0.18417 1.03117 0.0
C216 C 0.7096 0.17297 0.06452 0.0
H217 H 0.70073 0.18987 0.04238 0.0
H218 H 0.70438 0.1392 0.0634 0.0
H219 H 0.70379 0.18759 0.09014 0.0
C220 C 0.74445 1.00869 0.99908 0.0
N221 N 0.73875 0.04652 0.98305 0.0
N222 N 0.74356 0.07725 1.00559 0.0
C223 C 0.75179 0.05918 0.03657 0.0
C224 C 0.75179 1.01483 0.03477 0.0
C225 C 0.74468 0.96691 0.98044 0.0
H226 H 0.74012 0.96988 0.9518 0.0
H227 H 0.73303 0.94471 0.99481 0.0
H228 H 0.76245 0.95335 0.98166 0.0
O229 O 0.7367 0.10818 0.90331 0.0
O230 O 0.74749 0.15896 0.94048 0.0
H231 H 0.77357 0.10759 0.05677 0.0
H232 H 0.77146 0.0627 0.08583 0.0
C233 C 0.76158 0.08325 0.06716 0.0
H234 H 0.74694 0.09755 0.08184 0.0
H235 H 0.78028 0.18207 1.0107 0.0
O236 O 0.71084 1.01146 0.91519 0.0
C237 C 0.74571 0.14512 0.90812 0.0
Co238 Co 0.04875 0.73533 0.93878 0.0
Co239 Co 0.03418 0.66416 0.98873 0.0
C240 C 0.08533 0.67834 0.97093 0.0
O241 O 0.07995 0.71078 0.95259 0.0
O242 O 0.06937 0.65646 0.98578 0.0
C243 C 0.07343 0.8106 0.93126 0.0
O244 O 0.08132 0.7966 0.96209 0.0
C245 C 0.03588 0.63484 0.06028 0.0
C246 C 1.0027 0.60088 0.06792 0.0
C247 C 0.02145 0.61786 0.08641 0.0
N248 N 0.02589 0.6292 1.02814 0.0
N249 N 1.00646 0.60749 1.03257 0.0
C250 C 0.05615 0.66404 0.06622 0.0
H251 H 0.05738 0.68794 0.04461 0.0
H252 H 0.05487 0.68089 0.09226 0.0
H253 H 0.07244 0.64519 0.06606 0.0
C254 C 0.02536 0.79139 0.99888 0.0
N255 N 0.0309 0.75376 0.98232 0.0
N256 N 0.02445 0.72275 1.00356 0.0
C257 C 0.01469 0.74013 0.03386 0.0
C258 C 0.01588 0.78451 1.03341 0.0
C259 C 0.02847 0.83391 0.98219 0.0
H260 H 0.0307 0.83141 0.95278 0.0
H261 H 0.04353 0.84966 0.99473 0.0
H262 H 0.01305 0.854 0.9874 0.0
O263 O 0.03295 0.69044 0.90318 0.0
O264 O 0.02137 0.64017 0.94055 0.0
H265 H 0.98761 0.73542 0.07369 0.0
H266 H 0.01372 0.70723 0.08334 0.0
C267 C 1.00165 0.7158 0.06163 0.0
H268 H 0.99382 0.68714 0.0497 0.0
H269 H 0.99462 0.60118 1.01209 0.0
O270 O 0.05866 0.78825 0.91411 0.0
C271 C 0.02358 0.65372 0.90816 0.0
Co272 Co 0.29845 0.8164 0.69026 0.0
Co273 Co 0.28194 0.88687 0.73968 0.0
C274 C 0.3342 0.87301 0.72045 0.0
O275 O 0.32961 0.83951 0.70291 0.0
O276 O 0.31772 0.89447 0.73489 0.0
C277 C 0.32252 0.74305 0.66325 0.0
O278 O 0.341 0.76276 0.67529 0.0
C279 C 0.28214 0.91148 0.81307 0.0
C280 C 0.24962 0.94777 0.81963 0.0
C281 C 0.2671 0.92767 0.83886 0.0
N282 N 0.27358 0.92023 0.7804 0.0
N283 N 0.25454 0.94327 0.78436 0.0
C284 C 0.30168 0.88082 0.81936 0.0
H285 H 0.30643 0.86374 0.79447 0.0
H286 H 0.29693 0.85737 0.8403 0.0
H287 H 0.31714 0.89848 0.82889 0.0
C288 C 0.28064 0.76088 0.75363 0.0
N289 N 0.28263 0.79816 0.73501 0.0
N290 N 0.27268 0.82817 0.75381 0.0
C291 C 0.2626 0.81 0.78349 0.0
C292 C 0.26768 0.76651 0.78553 0.0
C293 C 0.29335 0.7214 0.74357 0.0
H294 H 0.3108 0.72942 0.7329 0.0
H295 H 0.29542 0.70003 0.76697 0.0
H296 H 0.28334 0.70468 0.72258 0.0
O297 O 0.28298 0.86292 0.65598 0.0
O298 O 0.26799 0.91113 0.69245 0.0
H299 H 0.23987 0.86192 0.7963 0.0
H300 H 0.23139 0.81154 0.81507 0.0
C301 C 0.24639 0.83227 0.80843 0.0
H302 H 0.25557 0.83871 0.83381 0.0
H303 H 0.24367 0.95205 0.7633 0.0
O304 O 0.30303 0.76224 0.66372 0.0
C305 C 0.27208 0.89832 0.66031 0.0
Co306 Co 0.96928 0.48265 0.69092 0.0
Co307 Co 0.98552 0.41261 0.74005 0.0
C308 C 0.93312 0.42783 0.72234 0.0
O309 O 0.93768 0.46071 0.70383 0.0
O310 O 0.94967 0.40679 0.73686 0.0
C311 C 0.94704 0.55756 0.66281 0.0
O312 O 0.92764 0.53945 0.67343 0.0
C313 C 0.98616 0.387 0.81313 0.0
C314 C 0.01868 0.35032 0.81767 0.0
C315 C 1.00151 0.37016 0.83793 0.0
N316 N 0.99423 0.37875 0.77999 0.0
N317 N 0.01327 0.35552 0.78272 0.0
C318 C 0.9668 0.4177 0.82074 0.0
H319 H 0.96203 0.43578 0.79644 0.0
H320 H 0.97173 0.44028 0.8422 0.0
H321 H 0.95129 0.39991 0.83012 0.0
C322 C 0.98681 0.53805 0.75466 0.0
N323 N 0.98505 0.50098 0.73567 0.0
N324 N 0.99542 0.47105 0.75386 0.0
C325 C 1.00568 0.48918 0.78331 0.0
C326 C 1.00035 0.5326 0.78582 0.0
C327 C 0.97269 0.57657 0.74674 0.0
H328 H 0.95627 0.56769 0.73331 0.0
H329 H 0.9685 0.59408 0.77179 0.0
H330 H 0.98286 0.59784 0.72914 0.0
O331 O 0.98481 0.43619 0.65601 0.0
O332 O 0.99842 0.387 0.69252 0.0
H333 H 0.03691 0.48741 0.81441 0.0
H334 H 0.01278 0.45986 0.83333 0.0
C335 C 0.02192 0.4667 0.80785 0.0
H336 H 0.02842 0.43715 0.79539 0.0
H337 H 0.02382 0.34703 0.76102 0.0
O338 O 0.96591 0.53663 0.66428 0.0
C339 C 0.99508 0.40025 0.6604 0.0
Co340 Co 0.29858 0.48436 0.62885 0.0
Co341 Co 0.28486 0.4116 0.58045 0.0
C342 C 0.3361 0.4281 0.60063 0.0
O343 O 0.33058 0.46157 0.61769 0.0
O344 O 0.32027 0.40572 0.58602 0.0
C345 C 0.3222 0.55909 0.65316 0.0
O346 O 0.3406 0.53914 0.64084 0.0
C347 C 0.28811 0.38518 0.50859 0.0
C348 C 0.25781 0.34355 0.50056 0.0
C349 C 0.27503 0.3657 0.48212 0.0
N350 N 0.27858 0.37636 0.54064 0.0
N351 N 0.2609 0.35028 0.53599 0.0
C352 C 0.3066 0.41828 0.50338 0.0
H353 H 0.30943 0.43693 0.52805 0.0
H354 H 0.30195 0.44044 0.48151 0.0
H355 H 0.32324 0.40256 0.49616 0.0
C356 C 0.2801 0.53721 0.56414 0.0
N357 N 0.28304 0.5005 0.58325 0.0
N358 N 0.27456 0.46915 0.56445 0.0
C359 C 0.26469 0.48555 0.53394 0.0
C360 C 0.26838 0.52964 0.53153 0.0
C361 C 0.29023 0.57866 0.57515 0.0
H362 H 0.27981 0.59154 0.59771 0.0
H363 H 0.30837 0.57392 0.58422 0.0
H364 H 0.29022 0.60182 0.5528 0.0
O365 O 0.28237 0.43887 0.66395 0.0
O366 O 0.27101 0.38767 0.62757 0.0
H367 H 0.23458 0.48049 0.50028 0.0
H368 H 0.25937 0.45185 0.48479 0.0
C369 C 0.2495 0.4608 0.50913 0.0
H370 H 0.24288 0.43192 0.52259 0.0
H371 H 0.24973 0.34046 0.55642 0.0
O372 O 0.30274 0.53978 0.65384 0.0
C373 C 0.27304 0.40202 0.65965 0.0
Co374 Co 0.97046 0.81617 0.62762 0.0
Co375 Co 0.98536 0.88783 0.57825 0.0
C376 C 0.93363 0.87068 0.59649 0.0
O377 O 0.93874 0.83802 0.61493 0.0
O378 O 0.94977 0.89279 0.58195 0.0
C379 C 0.94772 0.74169 0.65602 0.0
O380 O 0.92843 0.7606 0.64613 0.0
C381 C 0.98258 0.92917 0.51033 0.0
C382 C 0.01955 0.94 0.49827 0.0
C383 C 0.99794 0.93603 0.48176 0.0
N384 N 0.99486 0.92511 0.5407 0.0
N385 N 0.01682 0.93393 0.53375 0.0
C386 C 0.95696 0.93813 0.51121 0.0
H387 H 0.9471 0.90814 0.5137 0.0
H388 H 0.9514 0.95589 0.48699 0.0
H389 H 0.9527 0.95744 0.53527 0.0
C390 C 0.9887 0.76133 0.56402 0.0
N391 N 0.98631 0.79884 0.5823 0.0
N392 N 0.99457 0.82941 0.56215 0.0
C393 C 1.00354 0.81146 0.53145 0.0
C394 C 0.99985 0.76742 0.53071 0.0
C395 C 0.97794 0.72068 0.5758 0.0
H396 H 0.98912 0.70621 0.59652 0.0
H397 H 0.96044 0.72672 0.58719 0.0
H398 H 0.97631 0.69807 0.55316 0.0
O399 O 0.98557 0.86192 0.66304 0.0
O400 O 0.99837 0.91116 0.62606 0.0
H401 H 0.02853 0.85797 0.5163 0.0
H402 H 0.02741 0.81327 0.4866 0.0
C403 C 0.01676 0.83497 0.50339 0.0
H404 H 1.00426 0.85125 0.48578 0.0
H405 H 0.0303 0.9305 0.55221 0.0
O406 O 0.96682 0.76183 0.65376 0.0
C407 C 0.99546 0.89811 0.65833 0.0
Co408 Co 0.72115 0.23329 0.37848 0.0
Co409 Co 0.7364 0.16266 0.3278 0.0
C410 C 0.68526 0.17439 0.34536 0.0
O411 O 0.69045 0.20667 0.36414 0.0
O412 O 0.70133 0.15353 0.32965 0.0
C413 C 0.69556 0.30765 0.38544 0.0
O414 O 0.68918 0.29463 0.35347 0.0
C415 C 0.7377 0.13099 0.25621 0.0
C416 C 0.77231 0.10107 0.25197 0.0
C417 C 0.75382 0.11569 0.23149 0.0
N418 N 0.74668 0.12731 0.28928 0.0
N419 N 0.76698 0.10785 0.28684 0.0
C420 C 0.71626 0.15659 0.24838 0.0
H421 H 0.71347 0.18096 0.26931 0.0
H422 H 0.71721 0.17266 0.222 0.0
H423 H 0.70096 0.13521 0.24836 0.0
C424 C 0.74507 0.29056 0.31976 0.0
N425 N 0.7392 0.25249 0.33529 0.0
N426 N 0.74503 0.22206 0.31296 0.0
C427 C 0.75428 0.24044 0.28267 0.0
C428 C 0.75382 0.28473 0.28458 0.0
C429 C 0.74467 0.33201 0.33899 0.0
H430 H 0.73666 0.32949 0.36572 0.0
H431 H 0.73608 0.3564 0.32224 0.0
H432 H 0.76278 0.34231 0.34384 0.0
O433 O 0.73724 0.18996 0.41441 0.0
O434 O 0.74869 0.13952 0.37712 0.0
H435 H 0.78035 0.23711 0.24123 0.0
H436 H 0.75398 0.20948 0.23206 0.0
C437 C 0.76654 0.21717 0.25348 0.0
H438 H 0.77477 0.1884 0.26439 0.0
H439 H 0.77824 0.10334 0.30839 0.0
O440 O 0.71 0.2854 0.40329 0.0
C441 C 0.74658 0.15326 0.40952 0.0
Co442 Co 0.04788 0.56513 0.37736 0.0
Co443 Co 0.03314 0.63675 0.32805 0.0
C444 C 0.08467 0.62138 0.34732 0.0
O445 O 0.07961 0.5884 0.36543 0.0
O446 O 0.06855 0.64272 0.33216 0.0
C447 C 0.0715 0.49185 0.40577 0.0
O448 O 0.09049 0.51137 0.39523 0.0
C449 C 0.03602 0.67858 0.26031 0.0
C450 C 0.99907 0.68953 0.24866 0.0
C451 C 0.02072 0.68572 0.23193 0.0
N452 N 0.02369 0.67426 0.29077 0.0
N453 N 1.00173 0.68316 0.28408 0.0
C454 C 0.06165 0.68726 0.2609 0.0
H455 H 0.07144 0.6572 0.26368 0.0
H456 H 0.06734 0.70458 0.23645 0.0
H457 H 0.06586 0.70693 0.28469 0.0
C458 C 0.02997 0.51027 0.31345 0.0
N459 N 0.03246 0.54772 0.33176 0.0
N460 N 0.02433 0.57839 0.31168 0.0
C461 C 0.01534 0.56063 0.28104 0.0
C462 C 0.01896 0.51655 0.28014 0.0
C463 C 0.04008 0.46925 0.32555 0.0
H464 H 0.02807 0.45477 0.34534 0.0
H465 H 0.0572 0.4747 0.33816 0.0
H466 H 0.04235 0.44695 0.3028 0.0
O467 O 0.03189 0.6098 0.41313 0.0
O468 O 0.01971 0.65909 0.37587 0.0
H469 H 0.99011 0.60718 0.26716 0.0
H470 H 0.99097 0.56274 0.23717 0.0
C471 C 1.00177 0.58433 0.25364 0.0
H472 H 0.01403 0.60085 0.23564 0.0
H473 H 0.98822 0.67959 0.30264 0.0
O474 O 0.05205 0.51086 0.40332 0.0
C475 C 0.02204 0.64596 0.4082 0.0
Co476 Co 0.71755 0.55999 0.43774 0.0
Co477 Co 0.73411 0.63208 0.48415 0.0
C478 C 0.68192 0.61794 0.46683 0.0
O479 O 0.68634 0.58348 0.45071 0.0
O480 O 0.69863 0.63987 0.47942 0.0
C481 C 0.69307 0.48384 0.42613 0.0
O482 O 0.68173 0.4984 0.45421 0.0
C483 C 0.72914 0.66161 0.55487 0.0
C484 C 0.76008 0.70099 0.56469 0.0
C485 C 0.74147 0.6813 0.58174 0.0
N486 N 0.74024 0.66788 0.52358 0.0
N487 N 0.75835 0.6927 0.52922 0.0
C488 C 0.70823 0.63362 0.55932 0.0
H489 H 0.69295 0.64963 0.54732 0.0
H490 H 0.71087 0.60333 0.5449 0.0
H491 H 0.70405 0.62737 0.58791 0.0
C492 C 0.73872 0.50621 0.50108 0.0
N493 N 0.73472 0.54293 0.48233 0.0
N494 N 0.74421 0.57423 0.50018 0.0
C495 C 0.75568 0.55762 0.52933 0.0
C496 C 0.75173 0.51376 0.53237 0.0
C497 C 0.73106 0.46344 0.48926 0.0
H498 H 0.73295 0.4603 0.45978 0.0
H499 H 0.71265 0.45942 0.49716 0.0
H500 H 0.74137 0.43821 0.5025 0.0
O501 O 0.73302 0.60592 0.4016 0.0
O502 O 0.74844 0.65467 0.43703 0.0
H503 H 0.79036 0.57797 0.53839 0.0
H504 H 0.77431 0.56791 0.57876 0.0
C505 C 0.77303 0.5813 0.55132 0.0
H506 H 0.76911 0.61521 0.55239 0.0
H507 H 0.77062 0.70065 0.50964 0.0
O508 O 0.70944 0.50607 0.41254 0.0
C509 C 0.7443 0.6411 0.40524 0.0
Co510 Co 0.04704 0.23285 0.43976 0.0
Co511 Co 0.03473 0.16035 0.48928 0.0
C512 C 0.0854 0.17749 0.46711 0.0
O513 O 0.07945 0.21053 0.44996 0.0
O514 O 0.06985 0.15498 0.48226 0.0
C515 C 0.07024 0.30911 0.42254 0.0
O516 O 0.08558 0.29224 0.44423 0.0
C517 C 0.04183 0.13344 0.55991 0.0
C518 C 0.01332 0.08891 0.57182 0.0
C519 C 0.03114 0.11185 0.58786 0.0
N520 N 0.03056 0.12459 0.52939 0.0
N521 N 0.01397 0.0968 0.53621 0.0
C522 C 0.05956 0.1683 0.56275 0.0
H523 H 0.05918 0.18947 0.53923 0.0
H524 H 0.05676 0.18791 0.58706 0.0
H525 H 0.07721 0.15416 0.56391 0.0
C526 C 0.02707 0.2863 0.50369 0.0
N527 N 0.03117 0.24916 0.48563 0.0
N528 N 0.0241 0.21777 0.50591 0.0
C529 C 0.01448 0.23445 0.53674 0.0
C530 C 0.01667 0.27895 0.53751 0.0
C531 C 0.03193 0.32896 0.48838 0.0
H532 H 0.02547 0.32993 0.46048 0.0
H533 H 0.05096 0.33467 0.48837 0.0
H534 H 0.02322 0.35432 0.50407 0.0
O535 O 0.03081 0.18704 0.40519 0.0
O536 O 0.02019 0.13623 0.44267 0.0
H537 H 0.98731 0.22379 0.5756 0.0
H538 H 0.01549 0.20657 0.58901 0.0
C539 C 1.0035 0.20862 0.56585 0.0
H540 H 0.99901 0.17672 0.55594 0.0
H541 H 1.00191 0.08634 0.51741 0.0
O542 O 0.05214 0.28787 0.41445 0.0
C543 C 0.02162 0.15019 0.41032 0.0
Co544 Co 0.79967 0.31511 0.68933 0.0
Co545 Co 0.78282 0.38636 0.73788 0.0
C546 C 0.83512 0.37192 0.72202 0.0
O547 O 0.83055 0.33901 0.70361 0.0
O548 O 0.81858 0.39366 0.73602 0.0
C549 C 0.82505 0.24214 0.66376 0.0
O550 O 0.84324 0.26251 0.67602 0.0
C551 C 0.78118 0.42141 0.80885 0.0
C552 C 0.74616 0.44991 0.81166 0.0
C553 C 0.76499 0.43818 0.83262 0.0
N554 N 0.7722 0.42241 0.77565 0.0
N555 N 0.75159 0.4409 0.77721 0.0
C556 C 0.80282 0.39733 0.81825 0.0
H557 H 0.8048 0.36938 0.80052 0.0
H558 H 0.80276 0.38685 0.84667 0.0
H559 H 0.81811 0.41814 0.81386 0.0
C560 C 0.78068 0.2598 0.75204 0.0
N561 N 0.78302 0.29726 0.73373 0.0
N562 N 0.77401 0.32762 0.75331 0.0
C563 C 0.76457 0.30959 0.7836 0.0
C564 C 0.76863 0.26565 0.78479 0.0
C565 C 0.79259 0.21986 0.74104 0.0
H566 H 0.81043 0.22709 0.73158 0.0
H567 H 0.79377 0.19708 0.7636 0.0
H568 H 0.78267 0.20519 0.71887 0.0
O569 O 0.78468 0.36011 0.65311 0.0
O570 O 0.7702 0.40932 0.68893 0.0
H571 H 0.73784 0.31267 0.82397 0.0
H572 H 0.76349 0.34304 0.83264 0.0
C573 C 0.75125 0.33322 0.81141 0.0
H574 H 0.74263 0.36107 0.7994 0.0
H575 H 0.74026 0.44334 0.75548 0.0
O576 O 0.80537 0.26071 0.66372 0.0
C577 C 0.77403 0.39576 0.65696 0.0
Co578 Co 0.46887 0.98782 0.68753 0.0
Co579 Co 0.48298 0.91674 0.73745 0.0
C580 C 0.43196 0.93063 0.7182 0.0
O581 O 0.43711 0.96379 0.70059 0.0
O582 O 0.44809 0.9093 0.73284 0.0
C583 C 0.44352 0.06243 0.67625 0.0
O584 O 0.43329 0.04771 0.70524 0.0
C585 C 0.47763 0.8897 0.80876 0.0
C586 C 0.50729 0.84725 0.81925 0.0
C587 C 0.48914 0.86871 0.83617 0.0
N588 N 0.4887 0.8818 0.77769 0.0
N589 N 0.50603 0.85529 0.78372 0.0
C590 C 0.45912 0.92315 0.81248 0.0
H591 H 0.45913 0.94501 0.78939 0.0
H592 H 0.4614 0.94219 0.8372 0.0
H593 H 0.4418 0.90771 0.81337 0.0
C594 C 0.49275 0.04351 0.74816 0.0
N595 N 0.48673 1.00613 0.73158 0.0
N596 N 0.49288 0.97491 0.75279 0.0
C597 C 0.50266 0.99176 0.78323 0.0
C598 C 0.5023 0.03624 0.78258 0.0
C599 C 0.49072 0.08618 0.73127 0.0
H600 H 0.48097 0.08512 0.70617 0.0
H601 H 0.48287 0.10902 0.75045 0.0
H602 H 0.5083 0.09763 0.72393 0.0
O603 O 0.48463 0.94207 0.65225 0.0
O604 O 0.49677 0.89253 0.68981 0.0
H605 H 0.52968 0.98425 0.82247 0.0
H606 H 0.50247 0.96098 0.83441 0.0
C607 C 0.51458 0.96648 0.8117 0.0
H608 H 0.52083 0.93597 0.80074 0.0
H609 H 0.51804 0.84575 0.76436 0.0
O610 O 0.4598 0.04077 0.66169 0.0
C611 C 0.49437 0.90567 0.65734 0.0
Co612 Co 0.80093 0.98463 0.62829 0.0
Co613 Co 0.7832 0.91362 0.58058 0.0
C614 C 0.83586 0.92736 0.59678 0.0
O615 O 0.83183 0.96079 0.6148 0.0
O616 O 0.81897 0.90654 0.58305 0.0
C617 C 0.82561 0.0582 0.65381 0.0
O618 O 0.84408 0.03823 0.6417 0.0
C619 C 0.78387 0.88133 0.50938 0.0
C620 C 0.74694 0.86633 0.50093 0.0
C621 C 0.76737 0.87594 0.48251 0.0
N622 N 0.77323 0.87892 0.54152 0.0
N623 N 0.75137 0.86785 0.5364 0.0
C624 C 0.80977 0.88417 0.50538 0.0
H625 H 0.8181 0.86178 0.52433 0.0
H626 H 0.81573 0.91643 0.51259 0.0
H627 H 0.81545 0.87586 0.47773 0.0
C628 C 0.78341 0.03928 0.5644 0.0
N629 N 0.78493 1.00233 0.58357 0.0
N630 N 0.77415 0.97253 0.5658 0.0
C631 C 0.7638 0.99087 0.53645 0.0
C632 C 0.76964 0.03404 0.53342 0.0
C633 C 0.79747 0.07769 0.57277 0.0
H634 H 0.81457 0.06829 0.58374 0.0
H635 H 0.80036 0.09727 0.54843 0.0
H636 H 0.78801 0.09689 0.59296 0.0
O637 O 0.78541 0.93954 0.66444 0.0
O638 O 0.77068 0.89011 0.62919 0.0
H639 H 0.73235 0.99345 0.50566 0.0
H640 H 0.75375 0.95746 0.48943 0.0
C641 C 0.74566 0.97005 0.51409 0.0
H642 H 0.73693 0.94472 0.52953 0.0
H643 H 0.7388 0.86673 0.5567 0.0
O644 O 0.80608 0.03921 0.65374 0.0
C645 C 0.7747 0.90389 0.66098 0.0
Co646 Co 0.47119 0.31446 0.6313 0.0
Co647 Co 0.48493 0.38493 0.57985 0.0
C648 C 0.43425 0.37219 0.59955 0.0
O649 O 0.4398 0.34027 0.61852 0.0
O650 O 0.45 0.3927 0.58294 0.0
C651 C 0.44603 0.23997 0.63966 0.0
O652 O 0.43852 0.25356 0.60844 0.0
C653 C 0.48341 0.41492 0.50832 0.0
C654 C 0.51676 0.44847 0.50104 0.0
C655 C 0.49802 0.43182 0.48228 0.0
N656 N 0.49337 0.42016 0.54055 0.0
N657 N 0.51289 0.44166 0.53634 0.0
C658 C 0.46289 0.38632 0.50235 0.0
H659 H 0.46167 0.36211 0.52371 0.0
H660 H 0.46383 0.36982 0.47614 0.0
H661 H 0.44674 0.40556 0.50308 0.0
C662 C 0.49472 0.25753 0.57147 0.0
N663 N 0.48879 0.29544 0.58731 0.0
N664 N 0.49452 0.32605 0.56514 0.0
C665 C 0.50397 0.30809 0.53478 0.0
C666 C 0.50372 0.26372 0.53641 0.0
C667 C 0.49281 0.21556 0.58967 0.0
H668 H 0.48669 0.21873 0.61752 0.0
H669 H 0.4815 0.19422 0.57382 0.0
H670 H 0.51016 0.20078 0.59161 0.0
O671 O 0.48761 0.35849 0.66672 0.0
O672 O 0.49697 0.40947 0.62849 0.0
H673 H 0.52984 0.31297 0.49308 0.0
H674 H 0.50278 0.33835 0.48391 0.0
C675 C 0.51561 0.332 0.50528 0.0
H676 H 0.52312 0.36169 0.51568 0.0
H677 H 0.52469 0.44769 0.55691 0.0
O678 O 0.46097 0.26209 0.65662 0.0
C679 C 0.49587 0.39587 0.66101 0.0
Co680 Co 0.22058 0.73139 0.37797 0.0
Co681 Co 0.23393 0.65889 0.32728 0.0
C682 C 0.18307 0.67516 0.34663 0.0
O683 O 0.18889 0.70718 0.36547 0.0
O684 O 0.19862 0.65313 0.33062 0.0
C685 C 0.19639 0.80761 0.39775 0.0
O686 O 0.1797 0.79 0.37906 0.0
C687 C 0.23449 0.61952 0.2576 0.0
C688 C 0.26989 0.59263 0.25489 0.0
C689 C 0.25076 0.60262 0.23389 0.0
N690 N 0.24392 0.62089 0.29049 0.0
N691 N 0.2647 0.60304 0.28909 0.0
C692 C 0.21221 0.64165 0.24828 0.0
H693 H 0.21039 0.6711 0.26423 0.0
H694 H 0.21113 0.64942 0.21931 0.0
H695 H 0.1974 0.62071 0.25538 0.0
C696 C 0.24075 0.7857 0.31543 0.0
N697 N 0.23677 0.74801 0.33267 0.0
N698 N 0.24313 0.71715 0.31119 0.0
C699 C 0.25186 0.73485 0.28025 0.0
C700 C 0.25025 0.7793 0.28092 0.0
C701 C 0.23641 0.82785 0.33201 0.0
H702 H 0.2174 0.83364 0.33349 0.0
H703 H 0.2447 0.85366 0.31636 0.0
H704 H 0.24372 0.82774 0.35941 0.0
O705 O 0.23641 0.6866 0.4136 0.0
O706 O 0.24674 0.63622 0.37576 0.0
H707 H 0.26994 0.68167 0.25929 0.0
H708 H 0.27284 0.72818 0.23222 0.0
C709 C 0.26071 0.70989 0.24926 0.0
H710 H 0.24585 0.70075 0.23217 0.0
H711 H 0.27629 0.60221 0.31057 0.0
O712 O 0.21503 0.78669 0.40319 0.0
C713 C 0.24529 0.64963 0.40822 0.0
Co714 Co 0.5487 0.06525 0.37867 0.0
Co715 Co 0.53668 0.13759 0.32831 0.0
C716 C 0.58651 0.12265 0.34459 0.0
O717 O 0.58017 0.09055 0.36313 0.0
O718 O 0.57134 0.14572 0.32916 0.0
C719 C 0.56988 0.98659 0.38051 0.0
O720 O 0.57501 0.99931 0.34784 0.0
C721 C 0.53415 0.18373 0.26115 0.0
C722 C 0.49675 0.17651 0.2507 0.0
C723 C 0.51785 0.1838 0.23328 0.0
N724 N 0.52337 0.17286 0.29195 0.0
N725 N 0.50082 0.17084 0.28583 0.0
C726 C 0.55914 0.19698 0.25995 0.0
H727 H 0.563 0.21687 0.28376 0.0
H728 H 0.57059 0.16882 0.26168 0.0
H729 H 0.56303 0.21535 0.23523 0.0
C730 C 0.52267 1.01172 0.32146 0.0
N731 N 0.52977 0.04915 0.33649 0.0
N732 N 0.52911 0.07865 0.31195 0.0
C733 C 0.52396 0.05975 0.27984 0.0
C734 C 0.51906 1.01629 0.28397 0.0
C735 C 0.51659 0.97376 0.34348 0.0
H736 H 0.51269 0.98321 0.37159 0.0
H737 H 0.53135 0.95159 0.34393 0.0
H738 H 0.5014 0.95711 0.33179 0.0
O739 O 0.53421 0.1078 0.41589 0.0
O740 O 0.52437 0.1594 0.37895 0.0
H741 H 0.51208 0.09535 0.23512 0.0
H742 H 0.53419 0.05716 0.22413 0.0
C743 C 0.52833 0.08036 0.24463 0.0
H744 H 0.54222 0.10396 0.2481 0.0
H745 H 0.48861 0.16009 0.30454 0.0
O746 O 0.55802 1.01079 0.401 0.0
C747 C 0.52582 0.14514 0.41127 0.0
Co748 Co 0.22075 0.06559 0.44013 0.0
Co749 Co 0.23496 0.13755 0.49021 0.0
C750 C 0.18377 0.12299 0.47036 0.0
O751 O 0.18915 0.09022 0.45206 0.0
O752 O 0.1996 0.14417 0.4864 0.0
C753 C 0.19641 0.99097 0.41515 0.0
O754 O 0.17804 1.01016 0.42847 0.0
C755 C 0.23568 0.17441 0.56054 0.0
C756 C 0.27061 0.20322 0.56282 0.0
C757 C 0.25176 0.19166 0.58404 0.0
N758 N 0.24484 0.17473 0.52735 0.0
N759 N 0.26535 0.19353 0.52854 0.0
C760 C 0.21402 0.15044 0.57022 0.0
H761 H 0.21187 0.12277 0.55224 0.0
H762 H 0.21415 0.13957 0.59853 0.0
H763 H 0.19878 0.1715 0.56643 0.0
C764 C 0.23943 1.01105 0.50369 0.0
N765 N 0.23635 0.04853 0.48567 0.0
N766 N 0.24386 0.07934 0.50618 0.0
C767 C 0.25275 0.06168 0.5369 0.0
C768 C 0.24997 1.01767 0.53721 0.0
C769 C 0.23131 0.96919 0.49037 0.0
H770 H 0.24207 0.96033 0.46686 0.0
H771 H 0.21285 0.97149 0.48217 0.0
H772 H 0.23306 0.94427 0.51119 0.0
O773 O 0.23686 0.11046 0.40446 0.0
O774 O 0.24809 0.16025 0.44204 0.0
H775 H 0.27295 0.11397 0.55513 0.0
H776 H 0.27751 0.06555 0.57971 0.0
C777 C 0.26432 0.08554 0.56613 0.0
H778 H 0.25101 0.09419 0.5864 0.0
H779 H 0.27676 0.19563 0.50674 0.0
O780 O 0.21582 1.01046 0.41475 0.0
C781 C 0.24618 0.14709 0.40963 0.0
Co782 Co 0.54865 0.7367 0.43712 0.0
Co783 Co 0.53312 0.66639 0.48766 0.0
C784 C 0.58462 0.67857 0.46878 0.0
O785 O 0.57982 0.71094 0.44986 0.0
O786 O 0.56832 0.65853 0.48468 0.0
C787 C 0.57423 0.81118 0.42269 0.0
O788 O 0.58612 0.79684 0.45016 0.0
C789 C 0.53422 0.63898 0.55996 0.0
C790 C 0.50117 0.6046 0.56757 0.0
C791 C 0.51969 0.62226 0.58615 0.0
N792 N 0.52455 0.63236 0.5277 0.0
N793 N 0.50517 0.61048 0.53217 0.0
C794 C 0.55427 0.66867 0.56581 0.0
H795 H 0.55617 0.69102 0.54316 0.0
H796 H 0.55213 0.68721 0.59089 0.0
H797 H 0.57055 0.64997 0.56779 0.0
C798 C 0.52777 0.79345 0.49902 0.0
N799 N 0.53173 0.75581 0.48148 0.0
N800 N 0.52356 0.72514 0.50161 0.0
C801 C 0.5136 0.74276 0.53165 0.0
C802 C 0.51667 0.78687 0.53248 0.0
C803 C 0.53603 0.83522 0.48555 0.0
H804 H 0.53355 0.83736 0.45613 0.0
H805 H 0.55471 0.83798 0.49194 0.0
H806 H 0.52685 0.86186 0.49871 0.0
O807 O 0.53199 0.69225 0.40187 0.0
O808 O 0.52106 0.64162 0.43945 0.0
H809 H 0.49131 0.69069 0.54531 0.0
H810 H 0.48468 0.73955 0.5683 0.0
C811 C 0.49893 0.71911 0.55796 0.0
H812 H 0.50973 0.71008 0.58111 0.0
H813 H 0.49354 0.60346 0.51159 0.0
O814 O 0.55729 0.78934 0.41071 0.0
C815 C 0.52296 0.65533 0.40707 0.0
Co816 Co 0.79838 0.8145 0.18967 0.0
Co817 Co 0.78191 0.88419 0.23945 0.0
C818 C 0.83407 0.87072 0.22215 0.0
O819 O 0.82942 0.83824 0.20322 0.0
O820 O 0.81761 0.89176 0.2371 0.0
C821 C 0.82274 0.7411 0.16341 0.0
O822 O 0.84121 0.75949 0.17696 0.0
C823 C 0.78061 0.91814 0.31062 0.0
C824 C 0.74564 0.94676 0.31413 0.0
C825 C 0.76457 0.93466 0.33471 0.0
N826 N 0.77146 0.91964 0.27756 0.0
N827 N 0.75087 0.93818 0.27954 0.0
C828 C 0.8023 0.89391 0.31949 0.0
H829 H 0.80408 0.86605 0.3016 0.0
H830 H 0.80246 0.88327 0.34787 0.0
H831 H 0.81757 0.91466 0.31487 0.0
C832 C 0.77963 0.75764 0.25167 0.0
N833 N 0.7821 0.79552 0.23406 0.0
N834 N 0.77294 0.82537 0.25407 0.0
C835 C 0.76311 0.80651 0.28373 0.0
C836 C 0.76721 0.76269 0.28401 0.0
C837 C 0.78997 0.71701 0.23901 0.0
H838 H 0.78077 0.70704 0.21446 0.0
H839 H 0.80863 0.72171 0.23262 0.0
H840 H 0.78819 0.69163 0.25942 0.0
O841 O 0.78284 0.85922 0.15416 0.0
O842 O 0.76914 0.90774 0.19117 0.0
H843 H 0.74215 0.85807 0.30223 0.0
H844 H 0.73744 0.80893 0.32577 0.0
C845 C 0.75074 0.82948 0.31296 0.0
H846 H 0.76357 0.83802 0.3338 0.0
H847 H 0.73945 0.94098 0.25796 0.0
O848 O 0.80359 0.76122 0.16304 0.0
C849 C 0.77244 0.89492 0.15884 0.0
Co850 Co 0.47205 0.48321 0.18941 0.0
Co851 Co 0.48321 0.41179 0.24091 0.0
C852 C 0.43382 0.42481 0.22149 0.0
O853 O 0.44024 0.45675 0.20278 0.0
O854 O 0.44884 0.40336 0.23875 0.0
C855 C 0.45089 0.56131 0.18807 0.0
O856 O 0.44463 0.54664 0.21967 0.0
C857 C 0.48461 0.36647 0.30838 0.0
C858 C 0.52201 0.37163 0.31951 0.0
C859 C 0.50066 0.36551 0.33655 0.0
N860 N 0.49582 0.37657 0.27777 0.0
N861 N 0.51833 0.37743 0.28429 0.0
C862 C 0.45949 0.35391 0.309 0.0
H863 H 0.45574 0.33386 0.28525 0.0
H864 H 0.44829 0.38236 0.30676 0.0
H865 H 0.45516 0.33589 0.33372 0.0
C866 C 0.49734 0.53744 0.24784 0.0
N867 N 0.49025 0.50009 0.23248 0.0
N868 N 0.49067 0.47059 0.25702 0.0
C869 C 0.49559 0.48928 0.28926 0.0
C870 C 0.50098 0.53256 0.28526 0.0
C871 C 0.50243 0.57656 0.22674 0.0
H872 H 0.50269 0.5697 0.19751 0.0
H873 H 0.48916 0.60086 0.23248 0.0
H874 H 0.51949 0.58972 0.235 0.0
O875 O 0.48753 0.44073 0.15277 0.0
O876 O 0.49605 0.38971 0.19106 0.0
H877 H 0.50484 0.4515 0.33402 0.0
H878 H 0.48452 0.49303 0.34461 0.0
C879 C 0.4896 0.4692 0.32412 0.0
H880 H 0.47476 0.44768 0.31982 0.0
H881 H 0.53086 0.38739 0.26578 0.0
O882 O 0.46301 0.53785 0.1673 0.0
C883 C 0.49555 0.40331 0.15848 0.0
Co884 Co 0.80073 0.48322 0.12655 0.0
Co885 Co 0.7833 0.41305 0.07875 0.0
C886 C 0.83607 0.4275 0.09564 0.0
O887 O 0.83177 0.46072 0.11378 0.0
O888 O 0.81936 0.40628 0.0817 0.0
C889 C 0.82325 0.55745 0.15501 0.0
O890 O 0.84277 0.53897 0.14533 0.0
C891 C 0.78408 0.38304 1.007 0.0
C892 C 0.74723 0.36747 0.99838 0.0
C893 C 0.76754 0.37828 0.98009 0.0
N894 N 0.77356 0.37911 0.03912 0.0
N895 N 0.75176 0.36777 0.03384 0.0
C896 C 0.80993 0.38697 1.003 0.0
H897 H 0.81854 0.36441 1.0215 0.0
H898 H 0.81551 0.41925 1.01085 0.0
H899 H 0.81568 0.3796 0.97519 0.0
C900 C 0.78422 0.53819 0.06235 0.0
N901 N 0.78528 0.50137 0.08175 0.0
N902 N 0.77391 0.47198 0.06445 0.0
C903 C 0.7633 0.49069 0.03549 0.0
C904 C 0.76968 0.5336 1.03221 0.0
C905 C 0.80024 0.57472 0.06822 0.0
H906 H 0.81594 0.56446 0.08298 0.0
H907 H 0.80562 0.5887 0.04213 0.0
H908 H 0.79112 0.59957 0.08362 0.0
O909 O 0.78522 0.43806 0.16197 0.0
O910 O 0.77035 0.38897 0.12682 0.0
H911 H 0.73628 0.44463 1.02911 0.0
H912 H 0.73115 0.49415 1.00664 0.0
C913 C 0.74464 0.47047 1.01377 0.0
H914 H 0.75209 0.45865 0.98835 0.0
H915 H 0.73926 0.36564 0.05417 0.0
O916 O 0.80431 0.53696 0.15283 0.0
C917 C 0.77449 0.40247 0.15866 0.0
Co918 Co 0.47016 0.814 0.13123 0.0
Co919 Co 0.48302 0.88643 0.0815 0.0
C920 C 0.43225 0.86941 0.10245 0.0
O921 O 0.43806 0.8367 0.12018 0.0
O922 O 0.44784 0.89157 0.08705 0.0
C923 C 0.44655 0.73779 0.14837 0.0
O924 O 0.43303 0.75122 0.12243 0.0
C925 C 0.47723 0.91144 1.00989 0.0
C926 C 0.50588 0.95582 0.99839 0.0
C927 C 0.4883 0.93258 0.98201 0.0
N928 N 0.48796 0.92103 0.04074 0.0
N929 N 0.50469 0.94862 0.03408 0.0
C930 C 0.45958 0.87648 1.00688 0.0
H931 H 0.45968 0.8557 1.03066 0.0
H932 H 0.46274 0.85663 0.9828 0.0
H933 H 0.44193 0.89051 1.00517 0.0
C934 C 0.4906 0.76031 0.06754 0.0
N935 N 0.48661 0.79728 0.08592 0.0
N936 N 0.49415 0.82881 0.06618 0.0
C937 C 0.50401 0.81237 0.03549 0.0
C938 C 0.50177 0.768 0.0343 0.0
C939 C 0.48075 0.71882 0.07891 0.0
H940 H 0.46161 0.72097 0.07676 0.0
H941 H 0.48642 0.69237 0.06152 0.0
H942 H 0.48559 0.71221 0.10714 0.0
O943 O 0.48671 0.85931 0.16572 0.0
O944 O 0.49601 0.91176 0.12884 0.0
H945 H 0.53219 0.82013 0.9981 0.0
H946 H 0.50535 0.84327 0.98445 0.0
C947 C 0.51674 0.83787 1.0079 0.0
H948 H 0.52247 0.86848 1.01927 0.0
H949 H 0.51642 0.9595 0.05316 0.0
O950 O 0.46383 0.76033 0.15801 0.0
C951 C 0.49507 0.89684 0.16092 0.0
Co952 Co 0.22074 0.23241 0.87941 0.0
Co953 Co 0.23588 0.16182 0.82904 0.0
C954 C 0.18414 0.17692 0.84946 0.0
O955 O 0.18922 0.20909 0.86849 0.0
O956 O 0.20023 0.1562 0.83332 0.0
C957 C 0.19793 0.30685 0.90742 0.0
O958 O 0.17869 0.28786 0.89746 0.0
C959 C 0.23391 0.1316 0.7576 0.0
C960 C 0.27059 0.11579 0.74724 0.0
C961 C 0.25007 0.12693 0.72993 0.0
N962 N 0.24487 0.12748 0.78919 0.0
N963 N 0.26656 0.11589 0.78289 0.0
C964 C 0.20798 0.13477 0.75482 0.0
H965 H 0.19984 0.11201 0.77376 0.0
H966 H 0.20217 0.16688 0.76289 0.0
H967 H 0.20192 0.12719 0.72729 0.0
C968 C 0.23695 0.2876 0.81491 0.0
N969 N 0.23548 0.25039 0.83372 0.0
N970 N 0.24565 0.22056 0.81498 0.0
C971 C 0.25576 0.2391 0.78543 0.0
C972 C 0.25024 0.28246 0.78329 0.0
C973 C 0.22303 0.32606 0.82403 0.0
H974 H 0.23294 0.34563 0.84323 0.0
H975 H 0.20623 0.31676 0.83633 0.0
H976 H 0.21952 0.34532 0.79974 0.0
O977 O 0.23749 0.18746 0.91381 0.0
O978 O 0.24826 0.13663 0.87645 0.0
H979 H 0.28216 0.1922 0.77704 0.0
H980 H 0.28731 0.24162 0.7545 0.0
C981 C 0.27373 0.21841 0.76238 0.0
H982 H 0.2656 0.20715 0.73741 0.0
H983 H 0.27933 0.11361 0.80263 0.0
O984 O 0.21704 0.28666 0.90558 0.0
C985 C 0.24651 0.15056 0.90869 0.0
Co986 Co 0.54677 0.56676 0.87891 0.0
Co987 Co 0.53586 0.63928 0.82794 0.0
C988 C 0.58525 0.62405 0.84618 0.0
O989 O 0.5785 0.59221 0.86473 0.0
O990 O 0.57042 0.64677 0.82966 0.0
C991 C 0.56768 0.48767 0.88105 0.0
O992 O 0.57292 0.50036 0.84842 0.0
C993 C 0.53411 0.6852 0.7606 0.0
C994 C 0.49664 0.6801 0.74999 0.0
C995 C 0.51787 0.68646 0.73267 0.0
N996 N 0.52311 0.67473 0.79129 0.0
N997 N 0.50056 0.6739 0.78509 0.0
C998 C 0.55923 0.69777 0.75972 0.0
H999 H 0.57043 0.66929 0.76148 0.0
H1000 H 0.56339 0.71621 0.73515 0.0
H1001 H 0.56314 0.71742 0.78366 0.0
C1002 C 0.52132 0.51358 0.82017 0.0
N1003 N 0.52838 0.55071 0.83589 0.0
N1004 N 0.52804 0.58054 0.8116 0.0
C1005 C 0.52321 0.5622 0.77916 0.0
C1006 C 0.51778 0.51886 0.78278 0.0
C1007 C 0.5165 0.47405 0.84083 0.0
H1008 H 0.5163 0.4804 0.87014 0.0
H1009 H 0.52993 0.45019 0.83462 0.0
H1010 H 0.4995 0.46068 0.8325 0.0
O1011 O 0.53198 0.61007 0.91562 0.0
O1012 O 0.52342 0.66182 0.87807 0.0
H1013 H 0.5141 0.60041 0.73457 0.0
H1014 H 0.53443 0.55899 0.72386 0.0
C1015 C 0.52932 0.58264 0.74447 0.0
H1016 H 0.54415 0.60414 0.74894 0.0
H1017 H 0.48814 0.66373 0.80372 0.0
O1018 O 0.55588 0.51207 0.90151 0.0
C1019 C 0.52423 0.64783 0.91051 0.0
Co1020 Co 0.21899 0.56617 0.94046 0.0
Co1021 Co 0.23565 0.63643 0.98927 0.0
C1022 C 0.18322 0.62199 0.97075 0.0
O1023 O 0.18757 0.58884 0.9525 0.0
O1024 O 0.19988 0.64265 0.98531 0.0
C1025 C 0.19674 0.49099 0.91336 0.0
O1026 O 0.17742 0.50908 0.92442 0.0
C1027 C 0.2335 0.66535 0.06094 0.0
C1028 C 0.27015 0.68089 0.07124 0.0
C1029 C 0.24961 0.66926 0.08853 0.0
N1030 N 0.2445 0.67032 1.02932 0.0
N1031 N 0.26617 0.68173 0.03563 0.0
C1032 C 0.20757 0.66197 0.06395 0.0
H1033 H 0.19939 0.68514 0.04551 0.0
H1034 H 0.20186 0.63002 0.05541 0.0
H1035 H 0.20147 0.66885 0.09167 0.0
C1036 C 0.23543 0.51117 1.00477 0.0
N1037 N 0.23415 0.54813 0.98561 0.0
N1038 N 0.24512 0.57768 1.00336 0.0
C1039 C 0.25555 0.55913 1.0325 0.0
C1040 C 0.24944 0.5161 0.03548 0.0
C1041 C 0.2207 0.47339 0.99707 0.0
H1042 H 0.20401 0.48335 0.98499 0.0
H1043 H 0.21701 0.45529 1.02199 0.0
H1044 H 0.23007 0.4524 0.97817 0.0
O1045 O 0.23517 0.61172 0.90566 0.0
O1046 O 0.24884 0.66101 0.94187 0.0
H1047 H 0.28797 0.55564 0.06057 0.0
H1048 H 0.26707 0.59037 0.0799 0.0
C1049 C 0.27431 0.57925 0.05411 0.0
H1050 H 0.28243 0.60549 0.03895 0.0
H1051 H 0.27899 0.6845 1.01582 0.0
O1052 O 0.21558 0.51202 0.91418 0.0
C1053 C 0.24552 0.64763 0.90978 0.0
Co1054 Co 0.55095 0.23613 0.93907 0.0
Co1055 Co 0.53398 0.16501 0.98765 0.0
C1056 C 0.5862 0.17821 0.97069 0.0
O1057 O 0.58192 0.21179 0.95308 0.0
O1058 O 0.56948 0.15706 0.98452 0.0
C1059 C 0.57569 0.31212 0.92301 0.0
O1060 O 0.58894 0.2983 0.94915 0.0
C1061 C 0.53494 0.1379 0.06009 0.0
C1062 C 0.50202 0.10309 0.06751 0.0
C1063 C 0.52039 0.12108 0.08621 0.0
N1064 N 0.52544 0.13098 1.02775 0.0
N1065 N 0.50613 0.10888 1.03212 0.0
C1066 C 0.55486 0.16782 0.06607 0.0
H1067 H 0.55709 0.1896 0.0431 0.0
H1068 H 0.55232 0.18689 0.09078 0.0
H1069 H 0.57114 0.14926 0.06895 0.0
C1070 C 0.52999 0.29161 1.00132 0.0
N1071 N 0.53354 0.25438 0.98303 0.0
N1072 N 0.52452 0.22356 1.00208 0.0
C1073 C 0.51426 0.24078 1.03204 0.0
C1074 C 0.51807 0.28465 0.03399 0.0
C1075 C 0.53986 0.33297 0.98973 0.0
H1076 H 0.53652 0.33797 0.96076 0.0
H1077 H 0.5588 0.33199 0.99454 0.0
H1078 H 0.53255 0.35983 1.00516 0.0
O1079 O 0.53537 0.1905 0.90363 0.0
O1080 O 0.52104 0.14118 0.93957 0.0
H1081 H 0.48436 0.23771 0.0667 0.0
H1082 H 0.50885 0.20764 0.08092 0.0
C1083 C 0.49876 0.21708 0.05715 0.0
H1084 H 0.49136 0.1889 0.04379 0.0
H1085 H 0.49461 0.10161 1.01146 0.0
O1086 O 0.55869 0.28938 0.91248 0.0
C1087 C 0.52484 0.15464 0.90751 0.0
C1088 C 0.29508 0.40834 0.39234 0.0
C1089 C 0.27415 0.41749 0.37459 0.0
C1090 C 0.29517 0.3882 0.42571 0.0
C1091 C 0.27433 0.37905 0.44397 0.0
H1092 H 0.31164 0.41608 0.38009 0.0
H1093 H 0.31179 0.38051 0.43757 0.0
S1094 S 0.21461 0.39811 0.40995 0.0
N1095 N 0.23186 0.41537 0.37758 0.0
N1096 N 0.23202 0.38094 0.44193 0.0
C1097 C 0.25318 0.38862 0.42686 0.0
C1098 C 0.2531 0.4078 0.39217 0.0
C1099 C 0.0156 0.92377 0.42111 0.0
C1100 C 0.99585 0.92061 0.44369 0.0
C1101 C 0.0165 0.90407 0.38747 0.0
C1102 C 0.99724 0.88212 0.37395 0.0
H1103 H 0.03087 0.94103 0.42967 0.0
H1104 H 0.03206 0.90772 0.37125 0.0
S1105 S 0.94151 0.86178 0.42067 0.0
N1106 N 0.95702 0.8893 0.4495 0.0
N1107 N 0.95809 0.8573 0.38467 0.0
C1108 C 0.97737 0.87866 0.39545 0.0
C1109 C 0.97674 0.89688 0.43053 0.0
C1110 C 0.28551 0.91081 0.89762 0.0
C1111 C 0.26548 0.91222 0.87638 0.0
C1112 C 0.28551 0.89059 0.93104 0.0
C1113 C 0.26538 0.87071 0.945 0.0
H1114 H 0.30144 0.92557 0.8883 0.0
H1115 H 0.30132 0.89287 0.94616 0.0
S1116 S 0.2084 0.86379 0.89835 0.0
N1117 N 0.22492 0.89175 0.87089 0.0
N1118 N 0.225 0.85216 0.93302 0.0
C1119 C 0.24528 0.8712 0.9233 0.0
C1120 C 0.2452 0.89271 0.88954 0.0
C1121 C 0.98403 0.40447 0.93133 0.0
C1122 C 1.00417 0.42454 0.94476 0.0
C1123 C 0.98377 0.38503 0.89763 0.0
C1124 C 1.00355 0.38461 0.87558 0.0
H1125 H 0.9684 0.40145 0.94702 0.0
H1126 H 0.96782 0.37019 0.88867 0.0
S1127 S 0.06062 0.43339 0.89614 0.0
N1128 N 0.04435 0.4439 0.93168 0.0
N1129 N 0.04393 0.4059 0.8688 0.0
C1130 C 0.02387 0.40416 0.88823 0.0
C1131 C 0.02406 0.42482 0.92237 0.0
C1132 C 0.74356 0.61292 0.66492 0.0
C1133 C 0.74082 0.64235 0.69267 0.0
C1134 C 0.74322 0.62587 0.62907 0.0
C1135 C 0.74097 0.66883 0.61975 0.0
H1136 H 0.74574 0.57962 0.67094 0.0
H1137 H 0.74463 0.60197 0.60852 0.0
S1138 S 0.73299 0.75861 0.68191 0.0
N1139 N 0.73502 0.71675 0.7082 0.0
N1140 N 0.73564 0.74064 0.6405 0.0
C1141 C 0.73833 0.69864 0.64702 0.0
C1142 C 0.73796 0.6855 0.68361 0.0
C1143 C 0.01056 0.15686 0.67632 0.0
C1144 C 0.03147 0.16811 0.69329 0.0
C1145 C 0.01064 0.13614 0.64311 0.0
C1146 C 0.03166 0.12538 0.62588 0.0
H1147 H 0.99396 0.16308 0.68919 0.0
H1148 H 0.99411 0.12953 0.63045 0.0
S1149 S 0.09111 0.14732 0.65922 0.0
N1150 N 0.07369 0.16963 0.68908 0.0
N1151 N 0.07387 0.1247 0.62956 0.0
C1152 C 0.05265 0.13526 0.64311 0.0
C1153 C 0.05256 0.15864 0.67579 0.0
C1154 C 0.73557 0.12378 0.1715 0.0
C1155 C 0.75504 0.12905 0.19339 0.0
C1156 C 0.73419 0.14322 0.13788 0.0
C1157 C 0.7522 0.16939 0.12435 0.0
H1158 H 0.72099 0.10496 0.1808 0.0
H1159 H 0.7191 0.13537 0.12243 0.0
S1160 S 0.80783 0.19164 0.1715 0.0
N1161 N 0.79356 0.15991 0.19901 0.0
N1162 N 0.79063 0.19847 0.1366 0.0
C1163 C 0.77204 0.17437 0.14622 0.0
C1164 C 0.77366 0.15347 0.18021 0.0
C1165 C 1.00332 0.67463 0.17126 0.0
C1166 C 0.0229 0.67058 0.19379 0.0
C1167 C 1.00226 0.6546 0.13779 0.0
C1168 C 0.02124 0.63157 0.12431 0.0
H1169 H 0.98825 0.69264 0.17983 0.0
H1170 H 0.98679 0.65881 0.12165 0.0
S1171 S 0.07661 0.60933 0.17072 0.0
N1172 N 0.06132 0.63762 0.19956 0.0
N1173 N 0.06012 0.60538 0.13481 0.0
C1174 C 0.04104 0.62753 0.14565 0.0
C1175 C 0.04177 0.64595 0.18064 0.0
C1176 C 0.75042 0.3809 0.91863 0.0
C1177 C 0.76771 0.39503 0.94249 0.0
C1178 C 0.7483 0.39791 0.88408 0.0
C1179 C 0.76408 0.42829 0.87129 0.0
H1180 H 0.73828 0.35647 0.92672 0.0
H1181 H 0.73479 0.38579 0.86672 0.0
S1182 S 0.80945 0.48283 0.92368 0.0
N1183 N 0.79781 0.44867 0.95202 0.0
N1184 N 0.79572 0.4756 0.88537 0.0
C1185 C 0.78075 0.44421 0.89482 0.0
C1186 C 0.78221 0.42865 0.93074 0.0
C1187 C 0.50893 0.9106 0.92604 0.0
C1188 C 0.48784 0.91974 0.94374 0.0
C1189 C 0.50919 0.89182 0.89198 0.0
C1190 C 0.48838 0.88083 0.87458 0.0
H1191 H 0.52542 0.91718 0.93887 0.0
H1192 H 0.52583 0.88686 0.87886 0.0
S1193 S 0.42857 0.89765 0.90954 0.0
N1194 N 0.44562 0.91918 0.94004 0.0
N1195 N 0.4462 0.87759 0.87883 0.0
C1196 C 0.46723 0.88854 0.89251 0.0
C1197 C 0.46693 0.90999 0.92616 0.0
C1198 C 0.75043 0.87742 0.42093 0.0
C1199 C 0.76772 0.89185 0.44466 0.0
C1200 C 0.74828 0.89406 0.38625 0.0
C1201 C 0.76394 0.92454 0.37331 0.0
H1202 H 0.73827 0.85312 0.42927 0.0
H1203 H 0.73476 0.88177 0.369 0.0
S1204 S 0.80967 0.97906 0.42496 0.0
N1205 N 0.79807 0.94519 0.45358 0.0
N1206 N 0.79574 0.97173 0.38685 0.0
C1207 C 0.78074 0.94051 0.3966 0.0
C1208 C 0.78231 0.92517 0.43257 0.0
C1209 C 0.51717 0.37522 0.39778 0.0
C1210 C 0.49747 0.37757 0.37532 0.0
C1211 C 0.5178 0.39533 0.43126 0.0
C1212 C 0.49853 0.41795 0.44437 0.0
H1213 H 0.53268 0.35864 0.38894 0.0
H1214 H 0.53329 0.392 0.44749 0.0
S1215 S 0.44234 0.43436 0.39851 0.0
N1216 N 0.45765 0.40472 0.37068 0.0
N1217 N 0.45943 0.44259 0.43321 0.0
C1218 C 0.47871 0.42066 0.42291 0.0
C1219 C 0.47788 0.39999 0.3888 0.0
C1220 C 0.26826 0.64387 0.18373 0.0
C1221 C 0.25201 0.61368 0.19544 0.0
C1222 C 0.26641 0.66277 0.1499 0.0
C1223 C 0.24902 0.6506 0.12547 0.0
H1224 H 0.28196 0.65444 0.20143 0.0
H1225 H 0.27889 0.68706 0.14281 0.0
S1226 S 0.2064 0.56319 0.14071 0.0
N1227 N 0.22004 0.56804 0.17938 0.0
N1228 N 0.21845 0.59841 0.11375 0.0
C1229 C 0.23415 0.61686 0.13586 0.0
C1230 C 0.23532 0.59941 0.1712 0.0
C1231 C 0.5005 0.15588 0.13812 0.0
C1232 C 0.51999 0.13456 0.12426 0.0
C1233 C 0.50104 0.17489 0.1721 0.0
C1234 C 0.52088 0.17262 0.19429 0.0
H1235 H 0.48488 0.15897 0.12216 0.0
H1236 H 0.48539 0.19058 0.18148 0.0
S1237 S 0.57647 0.11844 0.16938 0.0
N1238 N 0.55942 0.1111 0.1345 0.0
N1239 N 0.56092 0.14646 0.19808 0.0
C1240 C 0.54065 0.15139 0.18011 0.0
C1241 C 0.53996 0.13205 0.14543 0.0
C1242 C 0.26916 0.15101 0.63441 0.0
C1243 C 0.25294 0.18105 0.62252 0.0
C1244 C 0.26714 0.1325 0.66841 0.0
C1245 C 0.24959 0.14494 0.69276 0.0
H1246 H 0.28292 0.1402 0.6167 0.0
H1247 H 0.27961 0.1083 0.6757 0.0
S1248 S 0.2069 0.232 0.67673 0.0
N1249 N 0.22074 0.22666 0.63811 0.0
N1250 N 0.21886 0.19718 0.704 0.0
C1251 C 0.23471 0.17848 0.68206 0.0
C1252 C 0.23605 0.19546 0.64658 0.0
C1253 C 0.50013 0.65798 0.63786 0.0
C1254 C 0.51941 0.63591 0.62414 0.0
C1255 C 0.50092 0.67753 0.67159 0.0
C1256 C 0.52079 0.67501 0.69371 0.0
H1257 H 0.48451 0.6613 0.62193 0.0
H1258 H 0.48542 0.69377 0.68088 0.0
S1259 S 0.57593 0.61922 0.66897 0.0
N1260 N 0.5587 0.61167 0.63433 0.0
N1261 N 0.56067 0.64804 0.69747 0.0
C1262 C 0.54036 0.65308 0.67964 0.0
C1263 C 0.53941 0.63319 0.6452 0.0
C1264 C 0.36679 0.42647 0.21816 0.0
C1265 C 0.36067 0.38321 0.219 0.0
C1266 C 0.39032 0.43979 0.21874 0.0
C1267 C 0.40879 0.41054 0.22139 0.0
H1268 H 0.3533 0.45028 0.21621 0.0
H1269 H 0.39405 0.47332 0.2174 0.0
S1270 S 0.40226 0.29367 0.22559 0.0
N1271 N 0.37527 0.31131 0.22284 0.0
N1272 N 0.41903 0.33605 0.22529 0.0
C1273 C 0.40283 0.36726 0.22301 0.0
C1274 C 0.37897 0.35371 0.22145 0.0
C1275 C 0.88816 0.94212 0.22232 0.0
C1276 C 0.90694 0.91329 0.22368 0.0
C1277 C 0.86474 0.92839 0.22351 0.0
C1278 C 0.85895 0.88508 0.22504 0.0
H1279 H 0.89158 0.97571 0.22017 0.0
H1280 H 0.85104 0.95186 0.22189 0.0
S1281 S 0.90129 0.79648 0.23007 0.0
N1282 N 0.91779 0.83916 0.22807 0.0
N1283 N 0.87413 0.81354 0.22896 0.0
C1284 C 0.87752 0.85599 0.22684 0.0
C1285 C 0.90134 0.86999 0.22654 0.0
C1286 C 0.37703 0.93821 0.10033 0.0
C1287 C 0.35883 0.90851 0.09732 0.0
C1288 C 0.40064 0.92546 0.1011 0.0
C1289 C 0.40711 0.88237 0.10016 0.0
H1290 H 0.37302 0.97165 0.10174 0.0
H1291 H 0.41394 0.94958 0.10326 0.0
S1292 S 0.36632 0.79187 0.09271 0.0
N1293 N 0.3492 0.83384 0.09301 0.0
N1294 N 0.39314 0.81014 0.09587 0.0
C1295 C 0.38908 0.85243 0.09742 0.0
C1296 C 0.36513 0.8654 0.09562 0.0
C1297 C 0.89087 0.35748 0.09559 0.0
C1298 C 0.90924 0.3869 0.09211 0.0
C1299 C 0.86724 0.37034 0.09497 0.0
C1300 C 0.86095 0.41333 0.09191 0.0
H1301 H 0.89477 0.32419 0.09885 0.0
H1302 H 0.85384 0.34657 0.09821 0.0
S1303 S 0.90209 0.50308 0.08167 0.0
N1304 N 0.9191 0.46113 0.08455 0.0
N1305 N 0.87519 0.48509 0.08459 0.0
C1306 C 0.87913 0.44291 0.08814 0.0
C1307 C 0.90306 0.4298 0.08791 0.0
C1308 C 0.6401 0.69329 0.84656 0.0
C1309 C 0.65858 0.66401 0.84848 0.0
C1310 C 0.61666 0.68002 0.84472 0.0
C1311 C 0.61048 0.63683 0.84588 0.0
H1312 H 0.64377 0.72689 0.84624 0.0
H1313 H 0.60321 0.70397 0.84331 0.0
S1314 S 0.65208 0.54716 0.85088 0.0
N1315 N 0.6689 0.58951 0.85066 0.0
N1316 N 0.62505 0.56481 0.84883 0.0
C1317 C 0.62877 0.60721 0.84789 0.0
C1318 C 0.65269 0.6207 0.84872 0.0
C1319 C 0.13008 0.10531 0.84811 0.0
C1320 C 0.11133 0.13417 0.84852 0.0
C1321 C 0.15349 0.11922 0.84702 0.0
C1322 C 0.15922 0.16263 0.84742 0.0
H1323 H 0.12666 0.07163 0.84845 0.0
H1324 H 0.16722 0.09573 0.84694 0.0
S1325 S 0.11679 0.25127 0.84836 0.0
N1326 N 0.10037 0.20844 0.84852 0.0
N1327 N 0.14396 0.23426 0.84779 0.0
C1328 C 0.14063 0.19172 0.84778 0.0
C1329 C 0.11687 0.17762 0.84797 0.0
C1330 C 0.62957 0.19215 0.97454 0.0
C1331 C 0.61097 0.16302 0.97381 0.0
C1332 C 0.65303 0.17871 0.97554 0.0
C1333 C 0.65909 0.13547 0.97468 0.0
H1334 H 0.62598 0.22579 0.97428 0.0
H1335 H 0.66657 0.20252 0.97579 0.0
S1336 S 0.61721 0.04608 0.97329 0.0
N1337 N 0.60048 0.08859 0.97348 0.0
N1338 N 0.64428 0.06354 0.97384 0.0
C1339 C 0.64068 0.10601 0.97421 0.0
C1340 C 0.61678 0.11967 0.9742 0.0
C1341 C 0.11639 0.62159 0.97358 0.0
C1342 C 0.11039 0.66484 0.97353 0.0
C1343 C 0.13984 0.60813 0.9731 0.0
C1344 C 0.15847 0.63724 0.97371 0.0
H1345 H 0.10283 0.59783 0.97278 0.0
H1346 H 0.14342 0.57451 0.97213 0.0
S1347 S 0.15232 0.75414 0.97591 0.0
N1348 N 0.12523 0.73674 0.97505 0.0
N1349 N 0.16902 0.71159 0.97562 0.0
C1350 C 0.15269 0.68056 0.97498 0.0
C1351 C 0.12881 0.69427 0.97447 0.0
C1352 C 0.38832 0.9446 0.71873 0.0
C1353 C 0.40707 0.91577 0.72072 0.0
C1354 C 0.36487 0.93089 0.7202 0.0
C1355 C 0.35908 0.88762 0.72268 0.0
H1356 H 0.39178 0.97812 0.71607 0.0
H1357 H 0.35118 0.95432 0.71818 0.0
S1358 S 0.40137 0.7991 0.72917 0.0
N1359 N 0.41787 0.84171 0.72634 0.0
N1360 N 0.37423 0.8162 0.72783 0.0
C1361 C 0.37764 0.85858 0.7249 0.0
C1362 C 0.40144 0.87254 0.72428 0.0
C1363 C 0.88964 0.44226 0.72373 0.0
C1364 C 0.90824 0.41307 0.72547 0.0
C1365 C 0.86613 0.42899 0.72429 0.0
C1366 C 0.86007 0.38579 0.72554 0.0
H1367 H 0.89327 0.47578 0.72169 0.0
H1368 H 0.8526 0.45274 0.72237 0.0
S1369 S 0.90187 0.29637 0.73125 0.0
N1370 N 0.91863 0.33875 0.72981 0.0
N1371 N 0.87483 0.31395 0.72962 0.0
C1372 C 0.87847 0.35634 0.72774 0.0
C1373 C 0.90237 0.36989 0.72807 0.0
C1374 C 0.36725 0.37113 0.59988 0.0
C1375 C 0.36118 0.41439 0.59869 0.0
C1376 C 0.39076 0.35772 0.60022 0.0
C1377 C 0.40932 0.38686 0.59819 0.0
H1378 H 0.35372 0.34739 0.60154 0.0
H1379 H 0.39442 0.32417 0.6019 0.0
S1380 S 0.403 0.50367 0.59327 0.0
N1381 N 0.37595 0.4862 0.59504 0.0
N1382 N 0.41973 0.4612 0.59434 0.0
C1383 C 0.40345 0.43012 0.5961 0.0
C1384 C 0.37957 0.44379 0.59672 0.0
C1385 C 0.87923 0.94104 0.59364 0.0
C1386 C 0.86057 0.91199 0.59332 0.0
C1387 C 0.90267 0.92752 0.59316 0.0
C1388 C 0.90862 0.88426 0.59347 0.0
H1389 H 0.8757 0.97468 0.59451 0.0
H1390 H 0.91625 0.95125 0.59384 0.0
S1391 S 0.86661 0.79508 0.59144 0.0
N1392 N 0.84994 0.83767 0.59168 0.0
N1393 N 0.89371 0.8124 0.59213 0.0
C1394 C 0.89017 0.85487 0.5926 0.0
C1395 C 0.8663 0.86865 0.59214 0.0
C1396 C 0.61836 0.17776 0.34605 0.0
C1397 C 0.61176 0.13497 0.34283 0.0
C1398 C 0.64198 0.19011 0.34669 0.0
C1399 C 0.66021 0.16044 0.34296 0.0
H1400 H 0.60512 0.20192 0.34914 0.0
H1401 H 0.64599 0.22334 0.3501 0.0
S1402 S 0.65235 0.04456 0.33154 0.0
N1403 N 0.62552 0.06297 0.33504 0.0
N1404 N 0.66966 0.08609 0.3346 0.0
C1405 C 0.6538 0.11765 0.33856 0.0
C1406 C 0.62973 0.10497 0.33896 0.0
C1407 C 0.15159 0.61912 0.34487 0.0
C1408 C 0.15789 0.66224 0.34469 0.0
C1409 C 0.12803 0.60623 0.3456 0.0
C1410 C 0.10961 0.63581 0.34504 0.0
H1411 H 0.16499 0.59503 0.34552 0.0
H1412 H 0.12421 0.57271 0.34656 0.0
S1413 S 0.11658 0.75257 0.34272 0.0
N1414 N 0.14354 0.73446 0.3432 0.0
N1415 N 0.09959 0.71046 0.34334 0.0
C1416 C 0.1157 0.67899 0.34379 0.0
C1417 C 0.13967 0.69211 0.34397 0.0
C1418 C 0.65165 0.67656 0.46826 0.0
C1419 C 0.65711 0.63307 0.46983 0.0
C1420 C 0.62833 0.69103 0.46812 0.0
C1421 C 0.60935 0.66281 0.47068 0.0
H1422 H 0.66551 0.69962 0.46599 0.0
H1423 H 0.62514 0.7247 0.46598 0.0
S1424 S 0.61405 0.54586 0.4771 0.0
N1425 N 0.64132 0.56204 0.47469 0.0
N1426 N 0.59792 0.58908 0.47573 0.0
C1427 C 0.61462 0.61936 0.47335 0.0
C1428 C 0.6383 0.60459 0.47257 0.0
C1429 C 0.14039 0.10822 0.46981 0.0
C1430 C 0.15882 0.13763 0.4714 0.0
C1431 C 0.11685 0.12129 0.46929 0.0
C1432 C 0.11058 0.16447 0.4691 0.0
H1433 H 0.14417 0.07466 0.46911 0.0
H1434 H 0.10344 0.09728 0.46814 0.0
S1435 S 0.15199 0.25448 0.47304 0.0
N1436 N 0.1689 0.21221 0.47347 0.0
N1437 N 0.12503 0.23659 0.47112 0.0
C1438 C 0.12883 0.1942 0.47064 0.0
C1439 C 0.15277 0.18088 0.47217 0.0
C1440 C 0.30036 0.12628 0.15622 0.0
C1441 C 0.32048 0.10367 0.14639 0.0
C1442 C 0.3004 0.17048 0.15797 0.0
C1443 C 0.32086 0.19393 0.15203 0.0
H1444 H 0.28419 0.10992 0.16159 0.0
H1445 H 0.28423 0.18625 0.16467 0.0
S1446 S 0.37863 0.14975 0.12744 0.0
N1447 N 0.36156 0.10795 0.13088 0.0
N1448 N 0.36201 0.19101 0.13664 0.0
C1449 C 0.3413 0.17169 0.14309 0.0
C1450 C 0.34105 0.12662 0.13993 0.0
C1451 C 0.96484 0.12671 0.15873 0.0
C1452 C 0.94426 0.10354 0.15332 0.0
C1453 C 0.96506 0.17083 0.1569 0.0
C1454 C 0.94504 0.19365 0.14731 0.0
H1455 H 0.98097 0.11077 0.16514 0.0
H1456 H 0.98131 0.18695 0.16199 0.0
S1457 S 0.88658 0.14838 0.12998 0.0
N1458 N 0.90304 0.10691 0.13898 0.0
N1459 N 0.90386 0.18994 0.13278 0.0
C1460 C 0.92432 0.17101 0.14144 0.0
C1461 C 0.92387 0.12599 0.14483 0.0
C1462 C 0.69533 0.91166 0.9486 0.0
C1463 C 0.69287 0.94403 0.92296 0.0
C1464 C 0.69548 0.86902 0.9384 0.0
C1465 C 0.69158 0.85719 0.9026 0.0
H1466 H 0.69819 0.91926 0.97654 0.0
H1467 H 0.69895 0.84519 0.95859 0.0
S1468 S 0.6783 0.93009 0.82701 0.0
N1469 N 0.6837 0.96168 0.86129 0.0
N1470 N 0.6808 0.88146 0.84269 0.0
C1471 C 0.68638 0.88927 0.87749 0.0
C1472 C 0.68779 0.93276 0.88751 0.0
C1473 C 0.07694 0.90925 0.87426 0.0
C1474 C 0.07708 0.94172 0.90012 0.0
C1475 C 0.0764 0.86666 0.88445 0.0
C1476 C 0.07763 0.85503 0.92073 0.0
H1477 H 0.07622 0.91657 0.84596 0.0
H1478 H 0.07467 0.84272 0.86381 0.0
S1479 S 0.08482 0.92826 0.99802 0.0
N1480 N 0.08164 0.9597 0.96297 0.0
N1481 N 0.08379 0.87954 0.98211 0.0
C1482 C 0.08071 0.88722 0.94655 0.0
C1483 C 0.07967 0.93065 0.93626 0.0
C1484 C 0.30216 0.67335 0.65809 0.0
C1485 C 0.32311 0.69641 0.65829 0.0
C1486 C 0.30209 0.62909 0.65861 0.0
C1487 C 0.32295 0.60577 0.65772 0.0
H1488 H 0.28555 0.68954 0.6585 0.0
H1489 H 0.28543 0.61311 0.65898 0.0
S1490 S 0.38267 0.65071 0.65684 0.0
N1491 N 0.3654 0.69243 0.65752 0.0
N1492 N 0.36527 0.60922 0.65682 0.0
C1493 C 0.34408 0.62835 0.65737 0.0
C1494 C 0.34416 0.67357 0.65777 0.0
C1495 C 0.927 0.62764 0.65786 0.0
C1496 C 0.94785 0.6043 0.65861 0.0
C1497 C 0.92709 0.67197 0.65836 0.0
C1498 C 0.94802 0.69494 0.66044 0.0
H1499 H 0.91037 0.61157 0.65701 0.0
H1500 H 0.91055 0.68831 0.65684 0.0
S1501 S 1.00755 0.64904 0.66432 0.0
N1502 N 0.9902 0.60778 0.66049 0.0
N1503 N 0.99023 0.69064 0.66525 0.0
C1504 C 0.96902 0.67196 0.66218 0.0
C1505 C 0.96898 0.62688 0.66 0.0
C1506 C 0.69482 0.42693 0.37969 0.0
C1507 C 0.69007 0.43916 0.41522 0.0
C1508 C 0.69481 0.38418 0.36979 0.0
C1509 C 0.69144 0.35212 0.39551 0.0
H1510 H 0.69886 0.45051 0.35951 0.0
H1511 H 0.69859 0.37616 0.34212 0.0
S1512 S 0.67532 0.36715 0.49092 0.0
N1513 N 0.67836 0.41559 0.47503 0.0
N1514 N 0.68108 0.33516 0.45696 0.0
C1515 C 0.68574 0.36379 0.43069 0.0
C1516 C 0.68438 0.40738 0.4404 0.0
C1517 C 0.0509 0.3781 0.40932 0.0
C1518 C 0.07145 0.35513 0.41535 0.0
C1519 C 0.05097 0.42231 0.4087 0.0
C1520 C 0.0718 0.44546 0.4117 0.0
H1521 H 0.03442 0.362 0.40621 0.0
H1522 H 0.0345 0.43835 0.4052 0.0
S1523 S 0.13067 0.40022 0.42596 0.0
N1524 N 0.11332 0.35868 0.42425 0.0
N1525 N 0.11369 0.44184 0.42039 0.0
C1526 C 0.09262 0.42285 0.41679 0.0
C1527 C 0.09241 0.37774 0.41891 0.0
C1528 C 0.80529 0.12798 0.65789 0.0
C1529 C 0.82622 0.10486 0.65847 0.0
C1530 C 0.80523 0.1722 0.65727 0.0
C1531 C 0.82605 0.19549 0.65901 0.0
H1532 H 0.78868 0.11187 0.65694 0.0
H1533 H 0.78857 0.18815 0.65628 0.0
S1534 S 0.88572 0.15036 0.66211 0.0
N1535 N 0.86847 0.10867 0.6607 0.0
N1536 N 0.86833 0.19194 0.66151 0.0
C1537 C 0.84717 0.17286 0.6601 0.0
C1538 C 0.84725 0.12762 0.65966 0.0
C1539 C 0.44222 0.12093 0.63123 0.0
C1540 C 0.44084 0.10764 0.66711 0.0
C1541 C 0.44228 0.16407 0.62254 0.0
C1542 C 0.4422 0.19531 0.64954 0.0
H1543 H 0.44354 0.09787 0.60979 0.0
H1544 H 0.44354 0.17291 0.59451 0.0
S1545 S 0.43719 0.17713 0.74744 0.0
N1546 N 0.43728 0.12924 0.72973 0.0
N1547 N 0.43936 0.21021 0.71328 0.0
C1548 C 0.44021 0.1825 0.6854 0.0
C1549 C 0.43904 0.13866 0.69421 0.0
C1550 C 0.21641 0.87672 0.40892 0.0
C1551 C 0.19559 0.85393 0.40469 0.0
C1552 C 0.21656 0.921 0.40947 0.0
C1553 C 0.19577 0.94452 0.40877 0.0
H1554 H 0.2329 0.86044 0.41087 0.0
H1555 H 0.23321 0.93676 0.41118 0.0
S1556 S 0.13625 0.90016 0.39993 0.0
N1557 N 0.15346 0.85832 0.39971 0.0
N1558 N 0.15359 0.94147 0.40413 0.0
C1559 C 0.1747 0.92215 0.40557 0.0
C1560 C 0.17463 0.87698 0.40315 0.0
C1561 C 0.57107 0.90979 0.36539 0.0
C1562 C 0.57438 0.94228 0.3907 0.0
C1563 C 0.57167 0.86719 0.37567 0.0
C1564 C 0.57711 0.85561 0.41106 0.0
H1565 H 0.56683 0.91725 0.33782 0.0
H1566 H 0.56749 0.84321 0.35594 0.0
S1567 S 0.59264 0.92895 0.48519 0.0
N1568 N 0.58587 0.96031 0.45136 0.0
N1569 N 0.58977 0.88022 0.4699 0.0
C1570 C 0.58297 0.88784 0.4356 0.0
C1571 C 0.58094 0.93123 0.42562 0.0
C1572 C 0.84329 0.62701 0.16297 0.0
C1573 C 0.82249 0.60411 0.15903 0.0
C1574 C 0.84337 0.67134 0.1629 0.0
C1575 C 0.82273 0.6946 0.15787 0.0
H1576 H 0.8597 0.61059 0.16624 0.0
H1577 H 0.85975 0.68742 0.16721 0.0
S1578 S 0.76363 0.64977 0.14428 0.0
N1579 N 0.78049 0.60825 0.1507 0.0
N1580 N 0.78109 0.69105 0.14614 0.0
C1581 C 0.80191 0.67201 0.15247 0.0
C1582 C 0.80164 0.62699 0.1545 0.0
C1583 C 0.44456 0.6185 0.14314 0.0
C1584 C 0.44684 0.60623 0.17915 0.0
C1585 C 0.44293 0.66125 0.13374 0.0
C1586 C 0.44495 0.69328 0.1598 0.0
H1587 H 0.44415 0.59492 0.12204 0.0
H1588 H 0.441 0.66912 0.10566 0.0
S1589 S 0.44829 0.67805 0.25815 0.0
N1590 N 0.44769 0.62961 0.24157 0.0
N1591 N 0.44735 0.71013 0.22318 0.0
C1592 C 0.44643 0.68156 0.19596 0.0
C1593 C 0.44669 0.63796 0.20581 0.0
C1594 C 0.17713 0.37638 0.91055 0.0
C1595 C 0.19819 0.35363 0.9114 0.0
C1596 C 0.17685 0.4207 0.9099 0.0
C1597 C 0.19763 0.44423 0.90935 0.0
H1598 H 0.16062 0.35986 0.91018 0.0
H1599 H 0.16015 0.4366 0.91002 0.0
S1600 S 0.25761 0.40008 0.91103 0.0
N1601 N 0.24049 0.35831 0.91294 0.0
N1602 N 0.24001 0.44119 0.9087 0.0
C1603 C 0.21887 0.42188 0.9095 0.0
C1604 C 0.21914 0.3768 0.91159 0.0
C1605 C 0.5711 0.36818 0.87637 0.0
C1606 C 0.57721 0.35687 0.91154 0.0
C1607 C 0.56953 0.41076 0.86619 0.0
C1608 C 0.57246 0.44347 0.89144 0.0
H1609 H 0.56733 0.34396 0.85666 0.0
H1610 H 0.56511 0.41793 0.83864 0.0
S1611 S 0.59172 0.4311 0.98555 0.0
N1612 N 0.58975 0.38224 0.97019 0.0
N1613 N 0.58401 0.46207 0.95194 0.0
C1614 C 0.57946 0.43275 0.92624 0.0
C1615 C 0.5825 0.38946 0.93606 0.0
C1616 C 0.24794 0.16753 0.34141 0.0
C1617 C 0.25313 0.17684 0.37789 0.0
C1618 C 0.25288 0.19628 0.31244 0.0
C1619 C 0.26316 0.23669 0.31778 0.0
H1620 H 0.23963 0.13778 0.33502 0.0
H1621 H 0.2482 0.18687 0.28547 0.0
S1622 S 0.28234 0.27634 0.40702 0.0
N1623 N 0.27059 0.23002 0.41646 0.0
N1624 N 0.27989 0.28228 0.36317 0.0
C1625 C 0.26889 0.24593 0.35393 0.0
C1626 C 0.26394 0.21678 0.38335 0.0
C1627 C 0.01926 0.13157 0.34188 0.0
C1628 C 0.0142 0.1214 0.37833 0.0
C1629 C 0.01396 0.10375 0.3125 0.0
C1630 C 1.00342 0.06352 0.31738 0.0
H1631 H 0.02781 0.16123 0.33585 0.0
H1632 H 0.01865 0.11365 0.2856 0.0
S1633 S 0.98399 1.02227 0.40622 0.0
N1634 N 0.99626 0.06792 0.4163 0.0
N1635 N 0.98632 1.0173 0.36223 0.0
C1636 C 0.99766 0.05353 0.35346 0.0
C1637 C 1.00299 0.08174 0.38331 0.0
C1638 C 0.27133 0.10229 0.99849 0.0
C1639 C 0.26163 0.06089 1.00037 0.0
C1640 C 0.26634 0.1313 0.96978 0.0
C1641 C 0.25183 0.12048 0.94043 0.0
H1642 H 0.28332 0.1124 1.01908 0.0
H1643 H 0.27443 0.1622 0.97022 0.0
S1644 S 0.21971 1.01879 0.93307 0.0
N1645 N 0.23429 1.01378 0.97092 0.0
N1646 N 0.22677 0.06565 0.91682 0.0
C1647 C 0.24182 0.07965 0.94224 0.0
C1648 C 0.2462 0.05083 0.97191 0.0
C1649 C 1.00277 0.16353 0.96995 0.0
C1650 C 0.01837 0.17383 0.94161 0.0
C1651 C 0.99739 0.19253 0.99858 0.0
C1652 C 1.00768 0.23336 1.00132 0.0
H1653 H 0.99412 0.13313 0.96959 0.0
H1654 H 0.9846 0.18294 1.01836 0.0
S1655 S 0.0523 0.27379 0.93692 0.0
N1656 N 0.04503 0.22744 0.91995 0.0
N1657 N 0.03663 0.27929 0.97389 0.0
C1658 C 0.02415 0.24284 0.97392 0.0
C1659 C 0.029 0.21404 0.94435 0.0
C1660 C 0.78076 0.81901 0.73758 0.0
C1661 C 0.75866 0.81719 0.7548 0.0
C1662 C 0.78578 0.84727 0.70837 0.0
C1663 C 0.76907 0.87567 0.69398 0.0
H1664 H 0.79458 0.7986 0.74685 0.0
H1665 H 0.80304 0.84648 0.69661 0.0
S1666 S 0.70811 0.88337 0.72707 0.0
N1667 N 0.71966 0.84684 0.75323 0.0
N1668 N 0.72904 0.89875 0.69946 0.0
C1669 C 0.74693 0.87412 0.7107 0.0
C1670 C 0.74183 0.8456 0.74058 0.0
C1671 C 0.99765 0.94897 0.75502 0.0
C1672 C 0.01148 0.98597 0.75134 0.0
C1673 C 0.99317 0.92058 0.72576 0.0
C1674 C 1.00195 0.92728 0.69047 0.0
H1675 H 0.9896 0.94214 0.78068 0.0
H1676 H 0.98216 0.89344 0.73083 0.0
S1677 S 0.03975 1.0186 0.66553 0.0
N1678 N 0.03455 0.0262 0.70869 0.0
N1679 N 0.02569 0.97497 0.65456 0.0
C1680 C 0.0158 0.96425 0.68648 0.0
C1681 C 0.02056 0.99279 0.71634 0.0
C1682 C 0.77533 0.9181 0.09158 0.0
C1683 C 0.76573 0.92369 0.12655 0.0
C1684 C 0.77074 0.94652 0.06233 0.0
C1685 C 0.75609 0.98254 0.06579 0.0
H1686 H 0.78711 0.89194 0.08682 0.0
H1687 H 0.77943 0.94063 0.03701 0.0
S1688 S 0.72458 1.01054 0.15023 0.0
N1689 N 0.7397 0.96822 0.16154 0.0
N1690 N 0.73064 1.01948 0.10752 0.0
C1691 C 0.74584 0.98764 0.10031 0.0
C1692 C 0.75071 0.95911 0.13011 0.0
C1693 C 0.99713 0.85291 0.06144 0.0
C1694 C 0.011 0.81589 0.06494 0.0
C1695 C 0.99235 0.881 0.09091 0.0
C1696 C 1.00089 0.87402 0.12622 0.0
H1697 H 0.98917 0.85989 0.03587 0.0
H1698 H 0.98128 0.90809 0.08601 0.0
S1699 S 0.0389 0.78287 0.15063 0.0
N1700 N 0.03405 0.77569 0.1074 0.0
N1701 N 0.02461 0.82626 0.16183 0.0
C1702 C 0.0149 0.83723 0.12996 0.0
C1703 C 0.01996 0.80902 0.09992 0.0
C1704 C 0.26589 0.74596 0.8531 0.0
C1705 C 0.26232 0.73494 0.81658 0.0
C1706 C 0.26102 0.71772 0.88223 0.0
C1707 C 0.2521 0.6762 0.87721 0.0
H1708 H 0.27283 0.77685 0.85948 0.0
H1709 H 0.26414 0.72902 0.90923 0.0
S1710 S 0.23877 0.63093 0.78721 0.0
N1711 N 0.24864 0.67871 0.77771 0.0
N1712 N 0.23975 0.62642 0.83138 0.0
C1713 C 0.24846 0.66474 0.84076 0.0
C1714 C 0.25348 0.69356 0.81105 0.0
C1715 C 1.00875 0.58238 0.88196 0.0
C1716 C 0.01674 0.62443 0.87617 0.0
C1717 C 1.00364 0.55361 0.85332 0.0
C1718 C 1.00602 0.56456 0.81651 0.0
H1719 H 1.00655 0.57109 0.90922 0.0
H1720 H 0.99743 0.52239 0.86036 0.0
S1721 S 0.02679 0.66983 0.78504 0.0
N1722 N 0.02691 0.67458 0.82923 0.0
N1723 N 0.01759 0.62141 0.77649 0.0
C1724 C 0.01391 0.60646 0.81021 0.0
C1725 C 0.01919 0.63581 0.83942 0.0
C1726 C 0.2522 0.60065 0.50533 0.0
C1727 C 0.26296 0.5606 0.49999 0.0
C1728 C 0.24707 0.62921 0.47638 0.0
C1729 C 0.2524 0.61997 0.43985 0.0
H1730 H 0.24733 0.60995 0.53232 0.0
H1731 H 0.23846 0.65873 0.48281 0.0
S1732 S 0.28252 0.52119 0.41056 0.0
N1733 N 0.28012 0.51532 0.45446 0.0
N1734 N 0.27034 0.56715 0.40117 0.0
C1735 C 0.26356 0.58031 0.43434 0.0
C1736 C 0.26879 0.5514 0.46377 0.0
C1737 C 0.01602 0.69603 0.50511 0.0
C1738 C 1.00454 0.73536 0.49969 0.0
C1739 C 0.0211 0.66711 0.47631 0.0
C1740 C 0.01488 0.67528 0.44002 0.0
H1741 H 0.02162 0.68776 0.53193 0.0
H1742 H 0.03041 0.6383 0.4826 0.0
S1743 S 0.98238 0.77112 0.41107 0.0
N1744 N 0.98563 0.77851 0.45463 0.0
N1745 N 0.99509 0.7257 0.40169 0.0
C1746 C 1.00281 0.71393 0.43461 0.0
C1747 C 0.99771 0.74325 0.46381 0.0
C1748 C 0.75458 0.33762 0.18891 0.0
C1749 C 0.76843 0.37463 0.19191 0.0
C1750 C 0.75 0.30994 0.21855 0.0
C1751 C 0.75898 0.31676 0.2536 0.0
H1752 H 0.74718 0.32956 0.16311 0.0
H1753 H 0.73912 0.28259 0.21379 0.0
S1754 S 0.7981 0.40672 0.27641 0.0
N1755 N 0.79187 0.41507 0.23376 0.0
N1756 N 0.78408 0.36321 0.28797 0.0
C1757 C 0.77312 0.35336 0.25692 0.0
C1758 C 0.7776 0.38189 0.22676 0.0
C1759 C 1.00311 0.44468 0.25524 0.0
C1760 C 0.01395 0.48448 0.24925 0.0
C1761 C 0.9978 0.41567 0.2267 0.0
C1762 C 1.00303 0.42427 0.19003 0.0
H1763 H 0.9982 0.43604 0.28237 0.0
H1764 H 0.98907 0.38641 0.23352 0.0
S1765 S 0.03354 0.52139 0.1592 0.0
N1766 N 0.0313 0.52846 0.20299 0.0
N1767 N 0.02115 0.47558 0.15053 0.0
C1768 C 0.01439 0.46342 0.18393 0.0
C1769 C 0.01984 0.49278 0.2129 0.0
C1770 C 0.74543 0.43292 0.61258 0.0
C1771 C 0.76846 0.42432 0.62413 0.0
C1772 C 0.74037 0.4606 0.583 0.0
C1773 C 0.75789 0.4827 0.56349 0.0
H1774 H 0.73104 0.41797 0.62649 0.0
H1775 H 0.72233 0.46537 0.57575 0.0
S1776 S 0.82117 0.47245 0.58257 0.0
N1777 N 0.80898 0.44103 0.61271 0.0
N1778 N 0.79964 0.49274 0.55886 0.0
C1779 C 0.78095 0.4745 0.57498 0.0
C1780 C 0.78612 0.4457 0.60457 0.0
C1781 C 0.98422 0.34187 0.6146 0.0
C1782 C 1.00081 0.37103 0.62807 0.0
C1783 C 0.98921 0.31302 0.58583 0.0
C1784 C 0.01126 0.31092 0.56846 0.0
H1785 H 0.96701 0.34119 0.62655 0.0
H1786 H 0.97534 0.2926 0.57678 0.0
S1787 S 0.06128 0.37991 0.59302 0.0
N1788 N 0.0405 0.3954 0.62092 0.0
N1789 N 0.04992 0.34192 0.56819 0.0
C1790 C 0.02796 0.34015 0.58166 0.0
C1791 C 0.02282 0.3696 0.61091 0.0
C1792 C 0.76222 0.21507 0.8812 0.0
C1793 C 0.75257 0.17414 0.87585 0.0
C1794 C 0.76734 0.24362 0.85232 0.0
C1795 C 0.76321 0.23365 0.81569 0.0
H1796 H 0.76579 0.2256 0.90829 0.0
H1797 H 0.77485 0.27398 0.85899 0.0
S1798 S 0.7373 0.1318 0.78553 0.0
N1799 N 0.73881 0.12621 0.82957 0.0
N1800 N 0.74793 0.17914 0.77648 0.0
C1801 C 0.75355 0.19292 0.80986 0.0
C1802 C 0.74838 0.16372 0.83929 0.0
C1803 C 0.49993 0.06096 0.8492 0.0
C1804 C 0.50826 0.06773 0.81365 0.0
C1805 C 0.50487 0.08899 0.87849 0.0
C1806 C 0.51846 0.12631 0.87464 0.0
H1807 H 0.4892 0.03355 0.8546 0.0
H1808 H 0.4979 0.08101 0.90468 0.0
S1809 S 0.54659 0.15816 0.78847 0.0
N1810 N 0.53261 0.11434 0.77785 0.0
N1811 N 0.54102 0.16674 0.8314 0.0
C1812 C 0.52705 0.13337 0.83931 0.0
C1813 C 0.5222 0.10453 0.80952 0.0
C1814 C 0.76476 0.05316 0.46581 0.0
C1815 C 0.76393 0.06565 0.50242 0.0
C1816 C 0.75987 0.08137 0.43669 0.0
C1817 C 0.75337 0.12436 0.4418 0.0
H1818 H 0.76938 1.02094 0.45934 0.0
H1819 H 0.76091 0.06884 0.40966 0.0
S1820 S 0.74681 0.17384 0.53216 0.0
N1821 N 0.75486 0.12492 0.5415 0.0
N1822 N 0.74579 0.17704 0.48792 0.0
C1823 C 0.75217 0.13724 0.47835 0.0
C1824 C 0.75736 0.10847 0.50803 0.0
C1825 C 0.50038 0.23818 0.47017 0.0
C1826 C 0.5093 0.23186 0.50536 0.0
C1827 C 0.50537 0.21043 0.44062 0.0
C1828 C 0.51945 0.17371 0.44399 0.0
H1829 H 0.48923 0.26515 0.46521 0.0
H1830 H 0.498 0.218 0.41469 0.0
S1831 S 0.54966 0.14376 0.52859 0.0
N1832 N 0.5352 0.18694 0.53982 0.0
N1833 N 0.54331 0.13454 0.48611 0.0
C1834 C 0.52863 0.1671 0.47892 0.0
C1835 C 0.52391 0.19586 0.50883 0.0
C1836 C 0.27736 0.81275 0.2323 0.0
C1837 C 0.25562 0.81186 0.25058 0.0
C1838 C 0.28222 0.84112 0.20329 0.0
C1839 C 0.26595 0.87147 0.19092 0.0
H1840 H 0.29104 0.79144 0.24067 0.0
H1841 H 0.29917 0.83943 0.19051 0.0
S1842 S 0.20648 0.88433 0.22903 0.0
N1843 N 0.21756 0.84527 0.253 0.0
N1844 N 0.227 0.89884 0.20035 0.0
C1845 C 0.24435 0.87174 0.20933 0.0
C1846 C 0.23921 0.84229 0.2385 0.0
C1847 C 0.4994 0.99623 0.22345 0.0
C1848 C 0.51265 0.98373 0.25384 0.0
C1849 C 0.49439 0.96861 0.19406 0.0
C1850 C 0.50148 0.92567 0.19312 0.0
H1851 H 0.4926 0.02808 0.22213 0.0
H1852 H 0.48433 0.98108 0.17193 0.0
S1853 S 0.53706 0.87503 0.26436 0.0
N1854 N 0.53368 0.92396 0.27903 0.0
N1855 N 0.52275 0.87217 0.22605 0.0
C1856 C 0.51429 0.91214 0.22346 0.0
C1857 C 0.52012 0.94077 0.25298 0.0
C1858 C 0.246 0.9536 0.6276 0.0
C1859 C 0.26592 0.92694 0.62778 0.0
C1860 C 0.24084 0.98188 0.59855 0.0
C1861 C 0.25538 0.9859 0.56783 0.0
H1862 H 0.23412 0.95264 0.65024 0.0
H1863 H 0.22527 1.00109 0.60034 0.0
S1864 S 0.31116 0.92797 0.55584 0.0
N1865 N 0.30108 0.90966 0.59446 0.0
N1866 N 0.29163 0.96219 0.54123 0.0
C1867 C 0.27553 0.9602 0.56797 0.0
C1868 C 0.2807 0.93114 0.59731 0.0
C1869 C 0.4943 0.88474 0.58931 0.0
C1870 C 0.50136 0.87648 0.62522 0.0
C1871 C 0.49922 0.85656 0.55994 0.0
C1872 C 0.51173 0.81809 0.56414 0.0
H1873 H 0.48434 0.91305 0.58377 0.0
H1874 H 0.49259 0.86475 0.53368 0.0
S1875 S 0.5355 0.78111 0.65163 0.0
N1876 N 0.52225 0.82582 0.66215 0.0
N1877 N 0.53189 0.77493 0.60798 0.0
C1878 C 0.51918 0.8098 0.59975 0.0
C1879 C 0.51401 0.83818 0.62967 0.0
C1880 C 0.73368 0.68517 0.34879 0.0
C1881 C 0.75083 0.66917 0.37258 0.0
C1882 C 0.73895 0.71487 0.32077 0.0
C1883 C 0.76181 0.72996 0.31404 0.0
H1884 H 0.71575 0.67562 0.35252 0.0
H1885 H 0.72484 0.72625 0.30418 0.0
S1886 S 0.81354 0.69771 0.36711 0.0
N1887 N 0.79199 0.67157 0.38651 0.0
N1888 N 0.80183 0.72497 0.3339 0.0
C1889 C 0.77915 0.71359 0.33714 0.0
C1890 C 0.77371 0.68416 0.36616 0.0
C1891 C 0.49967 0.60793 0.31558 0.0
C1892 C 0.50755 0.56517 0.31528 0.0
C1893 C 0.50474 0.63699 0.34431 0.0
C1894 C 0.5175 0.62505 0.37531 0.0
H1895 H 0.489 0.61915 0.29375 0.0
H1896 H 0.49805 0.66893 0.34251 0.0
S1897 S 0.54494 0.51939 0.38719 0.0
N1898 N 0.53168 0.51538 0.34811 0.0
N1899 N 0.5392 0.56748 0.40202 0.0
C1900 C 0.52578 0.58285 0.37504 0.0
C1901 C 0.52136 0.55388 0.3454 0.0
C1902 C 0.75873 0.5821 0.93636 0.0
C1903 C 0.75285 0.62531 0.942 0.0
C1904 C 0.76377 0.55343 0.96504 0.0
C1905 C 0.76382 0.56567 1.00169 0.0
H1906 H 0.7591 0.56972 0.90925 0.0
H1907 H 0.76781 0.52107 0.95817 0.0
S1908 S 0.74883 0.67437 1.03281 0.0
N1909 N 0.74688 0.67797 0.98865 0.0
N1910 N 0.75643 0.62505 0.04149 0.0
C1911 C 0.75798 0.60875 1.00785 0.0
C1912 C 0.75252 0.63797 0.97861 0.0
C1913 C 0.50597 0.71637 0.93794 0.0
C1914 C 0.51786 0.67729 0.94271 0.0
C1915 C 0.50101 0.74492 0.96698 0.0
C1916 C 0.5077 0.73683 1.00303 0.0
H1917 H 0.50032 0.72521 0.91128 0.0
H1918 H 0.49153 0.77365 0.96099 0.0
S1919 S 0.5415 0.64186 1.03079 0.0
N1920 N 0.53723 0.63404 0.98746 0.0
N1921 N 0.52886 0.68739 0.04052 0.0
C1922 C 0.52011 0.69848 1.00804 0.0
C1923 C 0.52489 0.66913 0.97861 0.0
C1924 C 0.25443 0.30231 0.71585 0.0
C1925 C 0.25579 0.31436 0.75248 0.0
C1926 C 0.25929 0.33066 0.68684 0.0
C1927 C 0.26624 0.37336 0.69206 0.0
H1928 H 0.24939 0.27036 0.70927 0.0
H1929 H 0.25786 0.31844 0.65977 0.0
S1930 S 0.27402 0.42169 0.7825 0.0
N1931 N 0.26566 0.37291 0.79174 0.0
N1932 N 0.27468 0.42536 0.73825 0.0
C1933 C 0.26788 0.38586 0.72862 0.0
C1934 C 0.26274 0.35692 0.75824 0.0
C1935 C 0.51923 0.44362 0.75226 0.0
C1936 C 0.51139 0.4864 0.75252 0.0
C1937 C 0.51416 0.41454 0.72358 0.0
C1938 C 0.50149 0.42646 0.6925 0.0
H1939 H 0.52988 0.43233 0.7741 0.0
H1940 H 0.52076 0.38254 0.72547 0.0
S1941 S 0.47432 0.53233 0.68028 0.0
N1942 N 0.48749 0.53633 0.71943 0.0
N1943 N 0.47998 0.48415 0.66557 0.0
C1944 C 0.49331 0.46874 0.69264 0.0
C1945 C 0.49771 0.49776 0.72227 0.0
C1946 C 0.25956 0.46862 0.13179 0.0
C1947 C 0.26569 0.42549 0.12655 0.0
C1948 C 0.25469 0.49691 0.10281 0.0
C1949 C 0.25513 0.48434 0.06624 0.0
H1950 H 0.25883 0.48122 0.15882 0.0
H1951 H 0.25038 0.52923 0.10938 0.0
S1952 S 0.27105 0.37568 0.03617 0.0
N1953 N 0.27246 0.37249 0.0804 0.0
N1954 N 0.26332 0.42481 1.02697 0.0
C1955 C 0.26128 0.44134 0.06047 0.0
C1956 C 0.2665 0.41248 0.09004 0.0
C1957 C 0.50142 0.35476 0.06127 0.0
C1958 C 0.51296 0.3154 0.06582 0.0
C1959 C 0.49649 0.38293 0.09057 0.0
C1960 C 0.50257 0.37376 0.12674 0.0
H1961 H 0.49565 0.36376 0.03471 0.0
H1962 H 0.48732 0.41203 0.08473 0.0
S1963 S 0.5342 0.27604 0.15411 0.0
N1964 N 0.53132 0.27044 0.11027 0.0
N1965 N 0.5216 0.32147 0.16436 0.0
C1966 C 0.51426 0.33458 0.13158 0.0
C1967 C 0.51947 0.30617 0.10171 0.0
loop_
_geom_bond_atom_site_label_1
_geom_bond_atom_site_label_2
_geom_bond_distance
_geom_bond_site_symmetry_2
_ccdc_geom_bond_type
Co0 O3 1.970 . S
Co0 N17 1.989 . S
Co0 O25 1.967 . S
Co0 O32 1.920 . S
Co1 O4 1.966 . S
Co1 N10 2.022 . S
Co1 N18 1.993 . S
Co1 O26 1.941 . S
C2 O3 1.258 . S
C2 O4 1.263 . S
O3 Co0 1.970 . S
O3 C2 1.258 . S
O4 Co1 1.966 . S
O4 C2 1.263 . S
C5 O6 1.235 . S
C5 O32 1.289 . S
O6 C5 1.235 . S
C7 C9 1.400 . S
C7 N10 1.351 . S
C7 C12 1.501 . S
C8 C9 1.387 . S
C8 N11 1.341 . S
C9 C7 1.400 . S
C9 C8 1.387 . S
N10 Co1 2.022 . S
N10 C7 1.351 . S
N10 N11 1.365 . S
N11 C8 1.341 . S
N11 N10 1.365 . S
N11 H31 0.862 . S
C12 C7 1.501 . S
C12 H13 0.961 . S
C12 H14 0.961 . S
C12 H15 0.960 . S
H13 C12 0.961 . S
H14 C12 0.961 . S
H15 C12 0.960 . S
C16 N17 1.342 . S
C16 C20 1.401 . S
C16 C21 1.499 . S
N17 Co0 1.989 . S
N17 C16 1.342 . S
N17 N18 1.388 . S
N18 Co1 1.993 . S
N18 N17 1.388 . S
N18 C19 1.346 . S
C19 N18 1.346 . S
C19 C20 1.396 . S
C19 C29 1.510 . S
C20 C16 1.401 . S
C20 C19 1.396 . S
C21 C16 1.499 . S
C21 H22 0.959 . S
C21 H23 0.960 . S
C21 H24 0.961 . S
H22 C21 0.959 . S
H23 C21 0.960 . S
H24 C21 0.961 . S
O25 Co0 1.967 . S
O25 C33 1.258 . S
O26 Co1 1.941 . S
O26 C33 1.266 . S
H27 C29 0.959 . S
H28 C29 0.961 . S
C29 C19 1.510 . S
C29 H27 0.959 . S
C29 H28 0.961 . S
C29 H30 0.960 . S
H30 C29 0.960 . S
H31 N11 0.862 . S
O32 Co0 1.920 . S
O32 C5 1.289 . S
C33 O25 1.258 . S
C33 O26 1.266 . S
Co34 O37 1.972 . S
Co34 N51 1.988 1_565 S
Co34 O59 1.970 . S
Co34 O66 1.918 1_565 S
Co35 O38 1.966 . S
Co35 N44 2.022 . S
Co35 N52 1.993 . S
Co35 O60 1.941 . S
C36 O37 1.258 . S
C36 O38 1.263 . S
O37 Co34 1.972 . S
O37 C36 1.258 . S
O38 Co35 1.966 . S
O38 C36 1.263 . S
C39 O40 1.235 . S
C39 O66 1.289 . S
O40 C39 1.235 . S
C41 C43 1.400 . S
C41 N44 1.351 . S
C41 C46 1.501 . S
C42 C43 1.387 . S
C42 N45 1.341 . S
C43 C41 1.400 . S
C43 C42 1.387 . S
N44 Co35 2.022 . S
N44 C41 1.351 . S
N44 N45 1.365 . S
N45 C42 1.341 . S
N45 N44 1.365 . S
N45 H65 0.906 . S
C46 C41 1.501 . S
C46 H47 0.961 . S
C46 H48 0.961 . S
C46 H49 0.960 . S
H47 C46 0.961 . S
H48 C46 0.961 . S
H49 C46 0.960 . S
C50 N51 1.342 . S
C50 C54 1.401 . S
C50 C55 1.499 . S
N51 Co34 1.988 1_545 S
N51 C50 1.342 . S
N51 N52 1.388 1_545 S
N52 Co35 1.993 . S
N52 N51 1.388 1_565 S
N52 C53 1.346 1_565 S
C53 N52 1.346 1_545 S
C53 C54 1.396 . S
C53 C63 1.510 1_545 S
C54 C50 1.401 . S
C54 C53 1.396 . S
C55 C50 1.499 . S
C55 H56 0.959 . S
C55 H57 0.960 . S
C55 H58 0.961 . S
H56 C55 0.959 . S
H57 C55 0.960 . S
H58 C55 0.961 . S
O59 Co34 1.970 . S
O59 C67 1.258 . S
O60 Co35 1.941 . S
O60 C67 1.266 . S
H61 C63 0.959 . S
H62 C63 0.972 . S
C63 C53 1.510 1_565 S
C63 H61 0.959 . S
C63 H62 0.972 . S
C63 H64 0.960 . S
H64 C63 0.960 . S
H65 N45 0.906 . S
O66 Co34 1.918 1_545 S
O66 C39 1.289 . S
C67 O59 1.258 . S
C67 O60 1.266 . S
Co68 O71 1.972 . S
Co68 N85 1.988 1_565 S
Co68 O93 1.970 . S
Co68 O100 1.918 1_565 S
Co69 O72 1.966 . S
Co69 N78 2.022 1_554 S
Co69 N86 1.990 1_554 S
Co69 O94 1.941 . S
C70 O71 1.258 . S
C70 O72 1.263 . S
O71 Co68 1.972 . S
O71 C70 1.258 . S
O72 Co69 1.966 . S
O72 C70 1.263 . S
C73 O74 1.235 . S
C73 O100 1.289 . S
O74 C73 1.235 . S
C75 C77 1.400 . S
C75 N78 1.351 . S
C75 C80 1.501 . S
C76 C77 1.387 . S
C76 N79 1.341 . S
C77 C75 1.400 . S
C77 C76 1.387 . S
N78 Co69 2.022 1_556 S
N78 C75 1.351 . S
N78 N79 1.365 . S
N79 C76 1.341 . S
N79 N78 1.365 . S
N79 H99 0.862 . S
C80 C75 1.501 . S
C80 H81 0.961 . S
C80 H82 0.961 . S
C80 H83 0.960 . S
H81 C80 0.961 . S
H82 C80 0.961 . S
H83 C80 0.960 . S
C84 N85 1.342 . S
C84 C88 1.401 1_554 S
C84 C89 1.499 . S
N85 Co68 1.988 1_545 S
N85 C84 1.342 . S
N85 N86 1.379 1_544 S
N86 Co69 1.990 1_556 S
N86 N85 1.379 1_566 S
N86 C87 1.355 1_565 S
C87 N86 1.355 1_545 S
C87 C88 1.396 . S
C87 C97 1.510 1_545 S
C88 C84 1.401 1_556 S
C88 C87 1.396 . S
C89 C84 1.499 . S
C89 H90 0.959 . S
C89 H91 0.960 . S
C89 H92 0.961 . S
H90 C89 0.959 . S
H91 C89 0.960 . S
H92 C89 0.961 . S
O93 Co68 1.970 . S
O93 C101 1.258 . S
O94 Co69 1.941 . S
O94 C101 1.266 . S
H95 C97 0.959 . S
H96 C97 0.972 . S
C97 C87 1.510 1_565 S
C97 H95 0.959 . S
C97 H96 0.972 . S
C97 H98 0.960 . S
H98 C97 0.960 . S
H99 N79 0.862 . S
O100 Co68 1.918 1_545 S
O100 C73 1.289 . S
C101 O93 1.258 . S
C101 O94 1.266 . S
Co102 O105 1.970 . S
Co102 N119 1.989 . S
Co102 O127 1.967 . S
Co102 O134 1.920 . S
Co103 O106 1.966 . S
Co103 N112 2.022 1_554 S
Co103 N120 1.990 1_554 S
Co103 O128 1.941 . S
C104 O105 1.258 . S
C104 O106 1.263 . S
O105 Co102 1.970 . S
O105 C104 1.258 . S
O106 Co103 1.966 . S
O106 C104 1.263 . S
C107 O108 1.235 . S
C107 O134 1.289 . S
O108 C107 1.235 . S
C109 C111 1.400 . S
C109 N112 1.351 . S
C109 C114 1.501 . S
C110 C111 1.387 . S
C110 N113 1.341 . S
C111 C109 1.400 . S
C111 C110 1.387 . S
N112 Co103 2.022 1_556 S
N112 C109 1.351 . S
N112 N113 1.365 . S
N113 C110 1.341 . S
N113 N112 1.365 . S
N113 H133 0.906 . S
C114 C109 1.501 . S
C114 H115 0.961 . S
C114 H116 0.961 . S
C114 H117 0.960 . S
H115 C114 0.961 . S
H116 C114 0.961 . S
H117 C114 0.960 . S
C118 N119 1.342 . S
C118 C122 1.401 1_554 S
C118 C123 1.499 . S
N119 Co102 1.989 . S
N119 C118 1.342 . S
N119 N120 1.379 1_554 S
N120 Co103 1.990 1_556 S
N120 N119 1.379 1_556 S
N120 C121 1.355 . S
C121 N120 1.355 . S
C121 C122 1.396 . S
C121 C131 1.510 . S
C122 C118 1.401 1_556 S
C122 C121 1.396 . S
C123 C118 1.499 . S
C123 H124 0.959 . S
C123 H125 0.960 . S
C123 H126 0.961 . S
H124 C123 0.959 . S
H125 C123 0.960 . S
H126 C123 0.961 . S
O127 Co102 1.967 . S
O127 C135 1.258 . S
O128 Co103 1.941 . S
O128 C135 1.266 . S
H129 C131 0.959 . S
H130 C131 0.961 . S
C131 C121 1.510 . S
C131 H129 0.959 . S
C131 H130 0.961 . S
C131 H132 0.960 . S
H132 C131 0.960 . S
H133 N113 0.906 . S
O134 Co102 1.920 . S
O134 C107 1.289 . S
C135 O127 1.258 . S
C135 O128 1.266 . S
Co136 O139 1.970 . S
Co136 N153 1.989 . S
Co136 O161 1.967 . S
Co136 O168 1.920 . S
Co137 O140 1.966 . S
Co137 N146 2.022 . S
Co137 N154 1.993 . S
Co137 O162 1.941 . S
C138 O139 1.258 . S
C138 O140 1.263 . S
O139 Co136 1.970 . S
O139 C138 1.258 . S
O140 Co137 1.966 . S
O140 C138 1.263 . S
C141 O142 1.235 . S
C141 O168 1.289 . S
O142 C141 1.235 . S
C143 C145 1.400 . S
C143 N146 1.351 . S
C143 C148 1.501 . S
C144 C145 1.387 . S
C144 N147 1.341 . S
C145 C143 1.400 . S
C145 C144 1.387 . S
N146 Co137 2.022 . S
N146 C143 1.351 . S
N146 N147 1.365 . S
N147 C144 1.341 . S
N147 N146 1.365 . S
N147 H167 0.862 . S
C148 C143 1.501 . S
C148 H149 0.961 . S
C148 H150 0.961 . S
C148 H151 0.960 . S
H149 C148 0.961 . S
H150 C148 0.961 . S
H151 C148 0.960 . S
C152 N153 1.342 . S
C152 C156 1.401 . S
C152 C157 1.499 . S
N153 Co136 1.989 . S
N153 C152 1.342 . S
N153 N154 1.388 . S
N154 Co137 1.993 . S
N154 N153 1.388 . S
N154 C155 1.346 . S
C155 N154 1.346 . S
C155 C156 1.396 . S
C155 C165 1.510 . S
C156 C152 1.401 . S
C156 C155 1.396 . S
C157 C152 1.499 . S
C157 H158 0.959 . S
C157 H159 0.960 . S
C157 H160 0.961 . S
H158 C157 0.959 . S
H159 C157 0.960 . S
H160 C157 0.961 . S
O161 Co136 1.967 . S
O161 C169 1.258 . S
O162 Co137 1.941 . S
O162 C169 1.266 . S
H163 C165 0.959 . S
H164 C165 0.961 . S
C165 C155 1.510 . S
C165 H163 0.959 . S
C165 H164 0.961 . S
C165 H166 0.960 . S
H166 C165 0.960 . S
H167 N147 0.862 . S
O168 Co136 1.920 . S
O168 C141 1.289 . S
C169 O161 1.258 . S
C169 O162 1.266 . S
Co170 O173 1.972 . S
Co170 N187 1.988 1_545 S
Co170 O195 1.970 . S
Co170 O202 1.918 1_545 S
Co171 O174 1.966 . S
Co171 N180 2.022 . S
Co171 N188 1.993 . S
Co171 O196 1.941 . S
C172 O173 1.258 . S
C172 O174 1.263 . S
O173 Co170 1.972 . S
O173 C172 1.258 . S
O174 Co171 1.966 . S
O174 C172 1.263 . S
C175 O176 1.235 . S
C175 O202 1.289 . S
O176 C175 1.235 . S
C177 C179 1.400 . S
C177 N180 1.351 . S
C177 C182 1.501 . S
C178 C179 1.387 . S
C178 N181 1.341 . S
C179 C177 1.400 . S
C179 C178 1.387 . S
N180 Co171 2.022 . S
N180 C177 1.351 . S
N180 N181 1.365 . S
N181 C178 1.341 . S
N181 N180 1.365 . S
N181 H201 0.906 . S
C182 C177 1.501 . S
C182 H183 0.961 . S
C182 H184 0.961 . S
C182 H185 0.960 . S
H183 C182 0.961 . S
H184 C182 0.961 . S
H185 C182 0.960 . S
C186 N187 1.342 . S
C186 C190 1.401 . S
C186 C191 1.499 . S
N187 Co170 1.988 1_565 S
N187 C186 1.342 . S
N187 N188 1.388 1_565 S
N188 Co171 1.993 . S
N188 N187 1.388 1_545 S
N188 C189 1.346 1_545 S
C189 N188 1.346 1_565 S
C189 C190 1.396 . S
C189 C199 1.510 1_565 S
C190 C186 1.401 . S
C190 C189 1.396 . S
C191 C186 1.499 . S
C191 H192 0.959 . S
C191 H193 0.960 . S
C191 H194 0.961 . S
H192 C191 0.959 . S
H193 C191 0.960 . S
H194 C191 0.961 . S
O195 Co170 1.970 . S
O195 C203 1.258 . S
O196 Co171 1.941 . S
O196 C203 1.266 . S
H197 C199 0.959 . S
H198 C199 0.972 . S
C199 C189 1.510 1_545 S
C199 H197 0.959 . S
C199 H198 0.972 . S
C199 H200 0.960 . S
H200 C199 0.960 . S
H201 N181 0.906 . S
O202 Co170 1.918 1_565 S
O202 C175 1.289 . S
C203 O195 1.258 . S
C203 O196 1.266 . S
Co204 O207 1.972 . S
Co204 N221 1.988 1_545 S
Co204 O229 1.970 . S
Co204 O236 1.918 1_545 S
Co205 O208 1.966 . S
Co205 N214 2.022 1_556 S
Co205 N222 1.990 1_556 S
Co205 O230 1.941 . S
C206 O207 1.258 . S
C206 O208 1.263 . S
O207 Co204 1.972 . S
O207 C206 1.258 . S
O208 Co205 1.966 . S
O208 C206 1.263 . S
C209 O210 1.235 . S
C209 O236 1.289 . S
O210 C209 1.235 . S
C211 C213 1.400 . S
C211 N214 1.351 . S
C211 C216 1.501 . S
C212 C213 1.387 . S
C212 N215 1.341 . S
C213 C211 1.400 . S
C213 C212 1.387 . S
N214 Co205 2.022 1_554 S
N214 C211 1.351 . S
N214 N215 1.365 . S
N215 C212 1.341 . S
N215 N214 1.365 . S
N215 H235 0.862 . S
C216 C211 1.501 . S
C216 H217 0.961 . S
C216 H218 0.961 . S
C216 H219 0.960 . S
H217 C216 0.961 . S
H218 C216 0.961 . S
H219 C216 0.960 . S
C220 N221 1.342 . S
C220 C224 1.401 1_556 S
C220 C225 1.499 . S
N221 Co204 1.988 1_565 S
N221 C220 1.342 . S
N221 N222 1.379 1_566 S
N222 Co205 1.990 1_554 S
N222 N221 1.379 1_544 S
N222 C223 1.355 1_545 S
C223 N222 1.355 1_565 S
C223 C224 1.396 . S
C223 C233 1.510 1_565 S
C224 C220 1.401 1_554 S
C224 C223 1.396 . S
C225 C220 1.499 . S
C225 H226 0.959 . S
C225 H227 0.960 . S
C225 H228 0.961 . S
H226 C225 0.959 . S
H227 C225 0.960 . S
H228 C225 0.961 . S
O229 Co204 1.970 . S
O229 C237 1.258 . S
O230 Co205 1.941 . S
O230 C237 1.266 . S
H231 C233 0.959 . S
H232 C233 0.972 . S
C233 C223 1.510 1_545 S
C233 H231 0.959 . S
C233 H232 0.972 . S
C233 H234 0.960 . S
H234 C233 0.960 . S
H235 N215 0.862 . S
O236 Co204 1.918 1_565 S
O236 C209 1.289 . S
C237 O229 1.258 . S
C237 O230 1.266 . S
Co238 O241 1.970 . S
Co238 N255 1.989 . S
Co238 O263 1.967 . S
Co238 O270 1.920 . S
Co239 O242 1.966 . S
Co239 N248 2.022 1_556 S
Co239 N256 1.990 1_556 S
Co239 O264 1.941 . S
C240 O241 1.258 . S
C240 O242 1.263 . S
O241 Co238 1.970 . S
O241 C240 1.258 . S
O242 Co239 1.966 . S
O242 C240 1.263 . S
C243 O244 1.235 . S
C243 O270 1.289 . S
O244 C243 1.235 . S
C245 C247 1.400 . S
C245 N248 1.351 . S
C245 C250 1.501 . S
C246 C247 1.387 . S
C246 N249 1.341 . S
C247 C245 1.400 . S
C247 C246 1.387 . S
N248 Co239 2.022 1_554 S
N248 C245 1.351 . S
N248 N249 1.365 . S
N249 C246 1.341 . S
N249 N248 1.365 . S
N249 H269 0.906 . S
C250 C245 1.501 . S
C250 H251 0.961 . S
C250 H252 0.961 . S
C250 H253 0.960 . S
H251 C250 0.961 . S
H252 C250 0.961 . S
H253 C250 0.960 . S
C254 N255 1.342 . S
C254 C258 1.401 1_556 S
C254 C259 1.499 . S
N255 Co238 1.989 . S
N255 C254 1.342 . S
N255 N256 1.379 1_556 S
N256 Co239 1.990 1_554 S
N256 N255 1.379 1_554 S
N256 C257 1.355 . S
C257 N256 1.355 . S
C257 C258 1.396 . S
C257 C267 1.510 . S
C258 C254 1.401 1_554 S
C258 C257 1.396 . S
C259 C254 1.499 . S
C259 H260 0.959 . S
C259 H261 0.960 . S
C259 H262 0.961 . S
H260 C259 0.959 . S
H261 C259 0.960 . S
H262 C259 0.961 . S
O263 Co238 1.967 . S
O263 C271 1.258 . S
O264 Co239 1.941 . S
O264 C271 1.266 . S
H265 C267 0.959 . S
H266 C267 0.961 . S
C267 C257 1.510 . S
C267 H265 0.959 . S
C267 H266 0.961 . S
C267 H268 0.960 . S
H268 C267 0.960 . S
H269 N249 0.906 . S
O270 Co238 1.920 . S
O270 C243 1.289 . S
C271 O263 1.258 . S
C271 O264 1.266 . S
Co272 O275 1.970 . S
Co272 N289 1.989 . S
Co272 O297 1.967 . S
Co272 O304 1.920 . S
Co273 O276 1.966 . S
Co273 N282 2.022 . S
Co273 N290 1.993 . S
Co273 O298 1.941 . S
C274 O275 1.258 . S
C274 O276 1.263 . S
O275 Co272 1.970 . S
O275 C274 1.258 . S
O276 Co273 1.966 . S
O276 C274 1.263 . S
C277 O278 1.235 . S
C277 O304 1.289 . S
O278 C277 1.235 . S
C279 C281 1.400 . S
C279 N282 1.351 . S
C279 C284 1.501 . S
C280 C281 1.387 . S
C280 N283 1.341 . S
C281 C279 1.400 . S
C281 C280 1.387 . S
N282 Co273 2.022 . S
N282 C279 1.351 . S
N282 N283 1.365 . S
N283 C280 1.341 . S
N283 N282 1.365 . S
N283 H303 0.862 . S
C284 C279 1.501 . S
C284 H285 0.961 . S
C284 H286 0.961 . S
C284 H287 0.960 . S
H285 C284 0.961 . S
H286 C284 0.961 . S
H287 C284 0.960 . S
C288 N289 1.342 . S
C288 C292 1.401 . S
C288 C293 1.499 . S
N289 Co272 1.989 . S
N289 C288 1.342 . S
N289 N290 1.388 . S
N290 Co273 1.993 . S
N290 N289 1.388 . S
N290 C291 1.346 . S
C291 N290 1.346 . S
C291 C292 1.396 . S
C291 C301 1.510 . S
C292 C288 1.401 . S
C292 C291 1.396 . S
C293 C288 1.499 . S
C293 H294 0.959 . S
C293 H295 0.960 . S
C293 H296 0.961 . S
H294 C293 0.959 . S
H295 C293 0.960 . S
H296 C293 0.961 . S
O297 Co272 1.967 . S
O297 C305 1.258 . S
O298 Co273 1.941 . S
O298 C305 1.266 . S
H299 C301 0.959 . S
H300 C301 0.961 . S
C301 C291 1.510 . S
C301 H299 0.959 . S
C301 H300 0.961 . S
C301 H302 0.960 . S
H302 C301 0.960 . S
H303 N283 0.862 . S
O304 Co272 1.920 . S
O304 C277 1.289 . S
C305 O297 1.258 . S
C305 O298 1.266 . S
Co306 O309 1.970 . S
Co306 N323 1.989 . S
Co306 O331 1.967 . S
Co306 O338 1.920 . S
Co307 O310 1.966 . S
Co307 N316 2.022 . S
Co307 N324 1.993 . S
Co307 O332 1.941 . S
C308 O309 1.258 . S
C308 O310 1.263 . S
O309 Co306 1.970 . S
O309 C308 1.258 . S
O310 Co307 1.966 . S
O310 C308 1.263 . S
C311 O312 1.235 . S
C311 O338 1.289 . S
O312 C311 1.235 . S
C313 C315 1.400 . S
C313 N316 1.351 . S
C313 C318 1.501 . S
C314 C315 1.387 . S
C314 N317 1.341 . S
C315 C313 1.400 . S
C315 C314 1.387 . S
N316 Co307 2.022 . S
N316 C313 1.351 . S
N316 N317 1.365 . S
N317 C314 1.341 . S
N317 N316 1.365 . S
N317 H337 0.906 . S
C318 C313 1.501 . S
C318 H319 0.961 . S
C318 H320 0.961 . S
C318 H321 0.960 . S
H319 C318 0.961 . S
H320 C318 0.961 . S
H321 C318 0.960 . S
C322 N323 1.342 . S
C322 C326 1.401 . S
C322 C327 1.499 . S
N323 Co306 1.989 . S
N323 C322 1.342 . S
N323 N324 1.388 . S
N324 Co307 1.993 . S
N324 N323 1.388 . S
N324 C325 1.346 . S
C325 N324 1.346 . S
C325 C326 1.396 . S
C325 C335 1.510 . S
C326 C322 1.401 . S
C326 C325 1.396 . S
C327 C322 1.499 . S
C327 H328 0.959 . S
C327 H329 0.960 . S
C327 H330 0.961 . S
H328 C327 0.959 . S
H329 C327 0.960 . S
H330 C327 0.961 . S
O331 Co306 1.967 . S
O331 C339 1.258 . S
O332 Co307 1.941 . S
O332 C339 1.266 . S
H333 C335 0.959 . S
H334 C335 0.961 . S
C335 C325 1.510 . S
C335 H333 0.959 . S
C335 H334 0.961 . S
C335 H336 0.960 . S
H336 C335 0.960 . S
H337 N317 0.906 . S
O338 Co306 1.920 . S
O338 C311 1.289 . S
C339 O331 1.258 . S
C339 O332 1.266 . S
Co340 O343 1.970 . S
Co340 N357 1.989 . S
Co340 O365 1.967 . S
Co340 O372 1.920 . S
Co341 O344 1.966 . S
Co341 N350 2.022 . S
Co341 N358 1.993 . S
Co341 O366 1.941 . S
C342 O343 1.258 . S
C342 O344 1.263 . S
O343 Co340 1.970 . S
O343 C342 1.258 . S
O344 Co341 1.966 . S
O344 C342 1.263 . S
C345 O346 1.235 . S
C345 O372 1.289 . S
O346 C345 1.235 . S
C347 C349 1.400 . S
C347 N350 1.351 . S
C347 C352 1.501 . S
C348 C349 1.387 . S
C348 N351 1.341 . S
C349 C347 1.400 . S
C349 C348 1.387 . S
N350 Co341 2.022 . S
N350 C347 1.351 . S
N350 N351 1.365 . S
N351 C348 1.341 . S
N351 N350 1.365 . S
N351 H371 0.862 . S
C352 C347 1.501 . S
C352 H353 0.961 . S
C352 H354 0.961 . S
C352 H355 0.960 . S
H353 C352 0.961 . S
H354 C352 0.961 . S
H355 C352 0.960 . S
C356 N357 1.342 . S
C356 C360 1.401 . S
C356 C361 1.499 . S
N357 Co340 1.989 . S
N357 C356 1.342 . S
N357 N358 1.388 . S
N358 Co341 1.993 . S
N358 N357 1.388 . S
N358 C359 1.346 . S
C359 N358 1.346 . S
C359 C360 1.396 . S
C359 C369 1.510 . S
C360 C356 1.401 . S
C360 C359 1.396 . S
C361 C356 1.499 . S
C361 H362 0.959 . S
C361 H363 0.960 . S
C361 H364 0.961 . S
H362 C361 0.959 . S
H363 C361 0.960 . S
H364 C361 0.961 . S
O365 Co340 1.967 . S
O365 C373 1.258 . S
O366 Co341 1.941 . S
O366 C373 1.266 . S
H367 C369 0.959 . S
H368 C369 0.961 . S
C369 C359 1.510 . S
C369 H367 0.959 . S
C369 H368 0.961 . S
C369 H370 0.960 . S
H370 C369 0.960 . S
H371 N351 0.862 . S
O372 Co340 1.920 . S
O372 C345 1.289 . S
C373 O365 1.258 . S
C373 O366 1.266 . S
Co374 O377 1.970 . S
Co374 N391 1.989 . S
Co374 O399 1.967 . S
Co374 O406 1.920 . S
Co375 O378 1.966 . S
Co375 N384 2.022 . S
Co375 N392 1.993 . S
Co375 O400 1.941 . S
C376 O377 1.258 . S
C376 O378 1.263 . S
O377 Co374 1.970 . S
O377 C376 1.258 . S
O378 Co375 1.966 . S
O378 C376 1.263 . S
C379 O380 1.235 . S
C379 O406 1.289 . S
O380 C379 1.235 . S
C381 C383 1.400 . S
C381 N384 1.351 . S
C381 C386 1.501 . S
C382 C383 1.387 . S
C382 N385 1.341 . S
C383 C381 1.400 . S
C383 C382 1.387 . S
N384 Co375 2.022 . S
N384 C381 1.351 . S
N384 N385 1.365 . S
N385 C382 1.341 . S
N385 N384 1.365 . S
N385 H405 0.906 . S
C386 C381 1.501 . S
C386 H387 0.961 . S
C386 H388 0.961 . S
C386 H389 0.960 . S
H387 C386 0.961 . S
H388 C386 0.961 . S
H389 C386 0.960 . S
C390 N391 1.342 . S
C390 C394 1.401 . S
C390 C395 1.499 . S
N391 Co374 1.989 . S
N391 C390 1.342 . S
N391 N392 1.388 . S
N392 Co375 1.993 . S
N392 N391 1.388 . S
N392 C393 1.346 . S
C393 N392 1.346 . S
C393 C394 1.396 . S
C393 C403 1.510 . S
C394 C390 1.401 . S
C394 C393 1.396 . S
C395 C390 1.499 . S
C395 H396 0.959 . S
C395 H397 0.960 . S
C395 H398 0.961 . S
H396 C395 0.959 . S
H397 C395 0.960 . S
H398 C395 0.961 . S
O399 Co374 1.967 . S
O399 C407 1.258 . S
O400 Co375 1.941 . S
O400 C407 1.266 . S
H401 C403 0.959 . S
H402 C403 0.961 . S
C403 C393 1.510 . S
C403 H401 0.959 . S
C403 H402 0.961 . S
C403 H404 0.960 . S
H404 C403 0.960 . S
H405 N385 0.906 . S
O406 Co374 1.920 . S
O406 C379 1.289 . S
C407 O399 1.258 . S
C407 O400 1.266 . S
Co408 O411 1.970 . S
Co408 N425 1.989 . S
Co408 O433 1.967 . S
Co408 O440 1.920 . S
Co409 O412 1.966 . S
Co409 N418 2.022 . S
Co409 N426 1.993 . S
Co409 O434 1.941 . S
C410 O411 1.258 . S
C410 O412 1.263 . S
O411 Co408 1.970 . S
O411 C410 1.258 . S
O412 Co409 1.966 . S
O412 C410 1.263 . S
C413 O414 1.235 . S
C413 O440 1.289 . S
O414 C413 1.235 . S
C415 C417 1.400 . S
C415 N418 1.351 . S
C415 C420 1.501 . S
C416 C417 1.387 . S
C416 N419 1.341 . S
C417 C415 1.400 . S
C417 C416 1.387 . S
N418 Co409 2.022 . S
N418 C415 1.351 . S
N418 N419 1.365 . S
N419 C416 1.341 . S
N419 N418 1.365 . S
N419 H439 0.862 . S
C420 C415 1.501 . S
C420 H421 0.961 . S
C420 H422 0.961 . S
C420 H423 0.960 . S
H421 C420 0.961 . S
H422 C420 0.961 . S
H423 C420 0.960 . S
C424 N425 1.342 . S
C424 C428 1.401 . S
C424 C429 1.499 . S
N425 Co408 1.989 . S
N425 C424 1.342 . S
N425 N426 1.388 . S
N426 Co409 1.993 . S
N426 N425 1.388 . S
N426 C427 1.346 . S
C427 N426 1.346 . S
C427 C428 1.396 . S
C427 C437 1.510 . S
C428 C424 1.401 . S
C428 C427 1.396 . S
C429 C424 1.499 . S
C429 H430 0.959 . S
C429 H431 0.960 . S
C429 H432 0.961 . S
H430 C429 0.959 . S
H431 C429 0.960 . S
H432 C429 0.961 . S
O433 Co408 1.967 . S
O433 C441 1.258 . S
O434 Co409 1.941 . S
O434 C441 1.266 . S
H435 C437 0.959 . S
H436 C437 0.961 . S
C437 C427 1.510 . S
C437 H435 0.959 . S
C437 H436 0.961 . S
C437 H438 0.960 . S
H438 C437 0.960 . S
H439 N419 0.862 . S
O440 Co408 1.920 . S
O440 C413 1.289 . S
C441 O433 1.258 . S
C441 O434 1.266 . S
Co442 O445 1.970 . S
Co442 N459 1.989 . S
Co442 O467 1.967 . S
Co442 O474 1.920 . S
Co443 O446 1.966 . S
Co443 N452 2.022 . S
Co443 N460 1.993 . S
Co443 O468 1.941 . S
C444 O445 1.258 . S
C444 O446 1.263 . S
O445 Co442 1.970 . S
O445 C444 1.258 . S
O446 Co443 1.966 . S
O446 C444 1.263 . S
C447 O448 1.235 . S
C447 O474 1.289 . S
O448 C447 1.235 . S
C449 C451 1.400 . S
C449 N452 1.351 . S
C449 C454 1.501 . S
C450 C451 1.387 . S
C450 N453 1.341 . S
C451 C449 1.400 . S
C451 C450 1.387 . S
N452 Co443 2.022 . S
N452 C449 1.351 . S
N452 N453 1.365 . S
N453 C450 1.341 . S
N453 N452 1.365 . S
N453 H473 0.906 . S
C454 C449 1.501 . S
C454 H455 0.961 . S
C454 H456 0.961 . S
C454 H457 0.960 . S
H455 C454 0.961 . S
H456 C454 0.961 . S
H457 C454 0.960 . S
C458 N459 1.342 . S
C458 C462 1.401 . S
C458 C463 1.499 . S
N459 Co442 1.989 . S
N459 C458 1.342 . S
N459 N460 1.388 . S
N460 Co443 1.993 . S
N460 N459 1.388 . S
N460 C461 1.346 . S
C461 N460 1.346 . S
C461 C462 1.396 . S
C461 C471 1.510 . S
C462 C458 1.401 . S
C462 C461 1.396 . S
C463 C458 1.499 . S
C463 H464 0.959 . S
C463 H465 0.960 . S
C463 H466 0.961 . S
H464 C463 0.959 . S
H465 C463 0.960 . S
H466 C463 0.961 . S
O467 Co442 1.967 . S
O467 C475 1.258 . S
O468 Co443 1.941 . S
O468 C475 1.266 . S
H469 C471 0.959 . S
H470 C471 0.961 . S
C471 C461 1.510 . S
C471 H469 0.959 . S
C471 H470 0.961 . S
C471 H472 0.960 . S
H472 C471 0.960 . S
H473 N453 0.906 . S
O474 Co442 1.920 . S
O474 C447 1.289 . S
C475 O467 1.258 . S
C475 O468 1.266 . S
Co476 O479 1.970 . S
Co476 N493 1.989 . S
Co476 O501 1.967 . S
Co476 O508 1.920 . S
Co477 O480 1.966 . S
Co477 N486 2.022 . S
Co477 N494 1.993 . S
Co477 O502 1.941 . S
C478 O479 1.258 . S
C478 O480 1.263 . S
O479 Co476 1.970 . S
O479 C478 1.258 . S
O480 Co477 1.966 . S
O480 C478 1.263 . S
C481 O482 1.235 . S
C481 O508 1.289 . S
O482 C481 1.235 . S
C483 C485 1.400 . S
C483 N486 1.351 . S
C483 C488 1.501 . S
C484 C485 1.387 . S
C484 N487 1.341 . S
C485 C483 1.400 . S
C485 C484 1.387 . S
N486 Co477 2.022 . S
N486 C483 1.351 . S
N486 N487 1.365 . S
N487 C484 1.341 . S
N487 N486 1.365 . S
N487 H507 0.862 . S
C488 C483 1.501 . S
C488 H489 0.961 . S
C488 H490 0.961 . S
C488 H491 0.960 . S
H489 C488 0.961 . S
H490 C488 0.961 . S
H491 C488 0.960 . S
C492 N493 1.342 . S
C492 C496 1.401 . S
C492 C497 1.499 . S
N493 Co476 1.989 . S
N493 C492 1.342 . S
N493 N494 1.388 . S
N494 Co477 1.993 . S
N494 N493 1.388 . S
N494 C495 1.346 . S
C495 N494 1.346 . S
C495 C496 1.396 . S
C495 C505 1.510 . S
C496 C492 1.401 . S
C496 C495 1.396 . S
C497 C492 1.499 . S
C497 H498 0.959 . S
C497 H499 0.960 . S
C497 H500 0.961 . S
H498 C497 0.959 . S
H499 C497 0.960 . S
H500 C497 0.961 . S
O501 Co476 1.967 . S
O501 C509 1.258 . S
O502 Co477 1.941 . S
O502 C509 1.266 . S
H503 C505 0.959 . S
H504 C505 0.961 . S
C505 C495 1.510 . S
C505 H503 0.959 . S
C505 H504 0.961 . S
C505 H506 0.960 . S
H506 C505 0.960 . S
H507 N487 0.862 . S
O508 Co476 1.920 . S
O508 C481 1.289 . S
C509 O501 1.258 . S
C509 O502 1.266 . S
Co510 O513 1.970 . S
Co510 N527 1.989 . S
Co510 O535 1.967 . S
Co510 O542 1.920 . S
Co511 O514 1.966 . S
Co511 N520 2.022 . S
Co511 N528 1.993 . S
Co511 O536 1.941 . S
C512 O513 1.258 . S
C512 O514 1.263 . S
O513 Co510 1.970 . S
O513 C512 1.258 . S
O514 Co511 1.966 . S
O514 C512 1.263 . S
C515 O516 1.235 . S
C515 O542 1.289 . S
O516 C515 1.235 . S
C517 C519 1.400 . S
C517 N520 1.351 . S
C517 C522 1.501 . S
C518 C519 1.387 . S
C518 N521 1.341 . S
C519 C517 1.400 . S
C519 C518 1.387 . S
N520 Co511 2.022 . S
N520 C517 1.351 . S
N520 N521 1.365 . S
N521 C518 1.341 . S
N521 N520 1.365 . S
N521 H541 0.906 . S
C522 C517 1.501 . S
C522 H523 0.961 . S
C522 H524 0.961 . S
C522 H525 0.960 . S
H523 C522 0.961 . S
H524 C522 0.961 . S
H525 C522 0.960 . S
C526 N527 1.342 . S
C526 C530 1.401 . S
C526 C531 1.499 . S
N527 Co510 1.989 . S
N527 C526 1.342 . S
N527 N528 1.388 . S
N528 Co511 1.993 . S
N528 N527 1.388 . S
N528 C529 1.346 . S
C529 N528 1.346 . S
C529 C530 1.396 . S
C529 C539 1.510 . S
C530 C526 1.401 . S
C530 C529 1.396 . S
C531 C526 1.499 . S
C531 H532 0.959 . S
C531 H533 0.960 . S
C531 H534 0.961 . S
H532 C531 0.959 . S
H533 C531 0.960 . S
H534 C531 0.961 . S
O535 Co510 1.967 . S
O535 C543 1.258 . S
O536 Co511 1.941 . S
O536 C543 1.266 . S
H537 C539 0.959 . S
H538 C539 0.961 . S
C539 C529 1.510 . S
C539 H537 0.959 . S
C539 H538 0.961 . S
C539 H540 0.960 . S
H540 C539 0.960 . S
H541 N521 0.906 . S
O542 Co510 1.920 . S
O542 C515 1.289 . S
C543 O535 1.258 . S
C543 O536 1.266 . S
Co544 O547 1.970 . S
Co544 N561 1.989 . S
Co544 O569 1.967 . S
Co544 O576 1.920 . S
Co545 O548 1.966 . S
Co545 N554 2.022 . S
Co545 N562 1.993 . S
Co545 O570 1.941 . S
C546 O547 1.258 . S
C546 O548 1.263 . S
O547 Co544 1.970 . S
O547 C546 1.258 . S
O548 Co545 1.966 . S
O548 C546 1.263 . S
C549 O550 1.235 . S
C549 O576 1.289 . S
O550 C549 1.235 . S
C551 C553 1.400 . S
C551 N554 1.351 . S
C551 C556 1.501 . S
C552 C553 1.387 . S
C552 N555 1.341 . S
C553 C551 1.400 . S
C553 C552 1.387 . S
N554 Co545 2.022 . S
N554 C551 1.351 . S
N554 N555 1.365 . S
N555 C552 1.341 . S
N555 N554 1.365 . S
N555 H575 0.862 . S
C556 C551 1.501 . S
C556 H557 0.961 . S
C556 H558 0.961 . S
C556 H559 0.960 . S
H557 C556 0.961 . S
H558 C556 0.961 . S
H559 C556 0.960 . S
C560 N561 1.342 . S
C560 C564 1.401 . S
C560 C565 1.499 . S
N561 Co544 1.989 . S
N561 C560 1.342 . S
N561 N562 1.388 . S
N562 Co545 1.993 . S
N562 N561 1.388 . S
N562 C563 1.346 . S
C563 N562 1.346 . S
C563 C564 1.396 . S
C563 C573 1.510 . S
C564 C560 1.401 . S
C564 C563 1.396 . S
C565 C560 1.499 . S
C565 H566 0.959 . S
C565 H567 0.960 . S
C565 H568 0.961 . S
H566 C565 0.959 . S
H567 C565 0.960 . S
H568 C565 0.961 . S
O569 Co544 1.967 . S
O569 C577 1.258 . S
O570 Co545 1.941 . S
O570 C577 1.266 . S
H571 C573 0.959 . S
H572 C573 0.961 . S
C573 C563 1.510 . S
C573 H571 0.959 . S
C573 H572 0.961 . S
C573 H574 0.960 . S
H574 C573 0.960 . S
H575 N555 0.862 . S
O576 Co544 1.920 . S
O576 C549 1.289 . S
C577 O569 1.258 . S
C577 O570 1.266 . S
Co578 O581 1.972 . S
Co578 N595 1.988 1_565 S
Co578 O603 1.970 . S
Co578 O610 1.918 1_565 S
Co579 O582 1.966 . S
Co579 N588 2.022 . S
Co579 N596 1.993 . S
Co579 O604 1.941 . S
C580 O581 1.258 . S
C580 O582 1.263 . S
O581 Co578 1.972 . S
O581 C580 1.258 . S
O582 Co579 1.966 . S
O582 C580 1.263 . S
C583 O584 1.235 . S
C583 O610 1.289 . S
O584 C583 1.235 . S
C585 C587 1.400 . S
C585 N588 1.351 . S
C585 C590 1.501 . S
C586 C587 1.387 . S
C586 N589 1.341 . S
C587 C585 1.400 . S
C587 C586 1.387 . S
N588 Co579 2.022 . S
N588 C585 1.351 . S
N588 N589 1.365 . S
N589 C586 1.341 . S
N589 N588 1.365 . S
N589 H609 0.862 . S
C590 C585 1.501 . S
C590 H591 0.961 . S
C590 H592 0.961 . S
C590 H593 0.960 . S
H591 C590 0.961 . S
H592 C590 0.961 . S
H593 C590 0.960 . S
C594 N595 1.342 . S
C594 C598 1.401 . S
C594 C599 1.499 . S
N595 Co578 1.988 1_545 S
N595 C594 1.342 . S
N595 N596 1.388 1_545 S
N596 Co579 1.993 . S
N596 N595 1.388 1_565 S
N596 C597 1.346 1_565 S
C597 N596 1.346 1_545 S
C597 C598 1.396 . S
C597 C607 1.510 1_545 S
C598 C594 1.401 . S
C598 C597 1.396 . S
C599 C594 1.499 . S
C599 H600 0.959 . S
C599 H601 0.960 . S
C599 H602 0.961 . S
H600 C599 0.959 . S
H601 C599 0.960 . S
H602 C599 0.961 . S
O603 Co578 1.970 . S
O603 C611 1.258 . S
O604 Co579 1.941 . S
O604 C611 1.266 . S
H605 C607 0.959 . S
H606 C607 0.972 . S
C607 C597 1.510 1_565 S
C607 H605 0.959 . S
C607 H606 0.972 . S
C607 H608 0.960 . S
H608 C607 0.960 . S
H609 N589 0.862 . S
O610 Co578 1.918 1_545 S
O610 C583 1.289 . S
C611 O603 1.258 . S
C611 O604 1.266 . S
Co612 O615 1.972 . S
Co612 N629 1.988 1_565 S
Co612 O637 1.970 . S
Co612 O644 1.918 1_565 S
Co613 O616 1.966 . S
Co613 N622 2.022 . S
Co613 N630 1.993 . S
Co613 O638 1.941 . S
C614 O615 1.258 . S
C614 O616 1.263 . S
O615 Co612 1.972 . S
O615 C614 1.258 . S
O616 Co613 1.966 . S
O616 C614 1.263 . S
C617 O618 1.235 . S
C617 O644 1.289 . S
O618 C617 1.235 . S
C619 C621 1.400 . S
C619 N622 1.351 . S
C619 C624 1.501 . S
C620 C621 1.387 . S
C620 N623 1.341 . S
C621 C619 1.400 . S
C621 C620 1.387 . S
N622 Co613 2.022 . S
N622 C619 1.351 . S
N622 N623 1.365 . S
N623 C620 1.341 . S
N623 N622 1.365 . S
N623 H643 0.862 . S
C624 C619 1.501 . S
C624 H625 0.961 . S
C624 H626 0.961 . S
C624 H627 0.960 . S
H625 C624 0.961 . S
H626 C624 0.961 . S
H627 C624 0.960 . S
C628 N629 1.342 . S
C628 C632 1.401 . S
C628 C633 1.499 . S
N629 Co612 1.988 1_545 S
N629 C628 1.342 . S
N629 N630 1.388 1_545 S
N630 Co613 1.993 . S
N630 N629 1.388 1_565 S
N630 C631 1.346 1_565 S
C631 N630 1.346 1_545 S
C631 C632 1.396 . S
C631 C641 1.510 1_545 S
C632 C628 1.401 . S
C632 C631 1.396 . S
C633 C628 1.499 . S
C633 H634 0.959 . S
C633 H635 0.960 . S
C633 H636 0.961 . S
H634 C633 0.959 . S
H635 C633 0.960 . S
H636 C633 0.961 . S
O637 Co612 1.970 . S
O637 C645 1.258 . S
O638 Co613 1.941 . S
O638 C645 1.266 . S
H639 C641 0.959 . S
H640 C641 0.972 . S
C641 C631 1.510 1_565 S
C641 H639 0.959 . S
C641 H640 0.972 . S
C641 H642 0.960 . S
H642 C641 0.960 . S
H643 N623 0.862 . S
O644 Co612 1.918 1_545 S
O644 C617 1.289 . S
C645 O637 1.258 . S
C645 O638 1.266 . S
Co646 O649 1.970 . S
Co646 N663 1.989 . S
Co646 O671 1.967 . S
Co646 O678 1.920 . S
Co647 O650 1.966 . S
Co647 N656 2.022 . S
Co647 N664 1.993 . S
Co647 O672 1.941 . S
C648 O649 1.258 . S
C648 O650 1.263 . S
O649 Co646 1.970 . S
O649 C648 1.258 . S
O650 Co647 1.966 . S
O650 C648 1.263 . S
C651 O652 1.235 . S
C651 O678 1.289 . S
O652 C651 1.235 . S
C653 C655 1.400 . S
C653 N656 1.351 . S
C653 C658 1.501 . S
C654 C655 1.387 . S
C654 N657 1.341 . S
C655 C653 1.400 . S
C655 C654 1.387 . S
N656 Co647 2.022 . S
N656 C653 1.351 . S
N656 N657 1.365 . S
N657 C654 1.341 . S
N657 N656 1.365 . S
N657 H677 0.862 . S
C658 C653 1.501 . S
C658 H659 0.961 . S
C658 H660 0.961 . S
C658 H661 0.960 . S
H659 C658 0.961 . S
H660 C658 0.961 . S
H661 C658 0.960 . S
C662 N663 1.342 . S
C662 C666 1.401 . S
C662 C667 1.499 . S
N663 Co646 1.989 . S
N663 C662 1.342 . S
N663 N664 1.388 . S
N664 Co647 1.993 . S
N664 N663 1.388 . S
N664 C665 1.346 . S
C665 N664 1.346 . S
C665 C666 1.396 . S
C665 C675 1.510 . S
C666 C662 1.401 . S
C666 C665 1.396 . S
C667 C662 1.499 . S
C667 H668 0.959 . S
C667 H669 0.960 . S
C667 H670 0.961 . S
H668 C667 0.959 . S
H669 C667 0.960 . S
H670 C667 0.961 . S
O671 Co646 1.967 . S
O671 C679 1.258 . S
O672 Co647 1.941 . S
O672 C679 1.266 . S
H673 C675 0.959 . S
H674 C675 0.961 . S
C675 C665 1.510 . S
C675 H673 0.959 . S
C675 H674 0.961 . S
C675 H676 0.960 . S
H676 C675 0.960 . S
H677 N657 0.862 . S
O678 Co646 1.920 . S
O678 C651 1.289 . S
C679 O671 1.258 . S
C679 O672 1.266 . S
Co680 O683 1.970 . S
Co680 N697 1.989 . S
Co680 O705 1.967 . S
Co680 O712 1.920 . S
Co681 O684 1.966 . S
Co681 N690 2.022 . S
Co681 N698 1.993 . S
Co681 O706 1.941 . S
C682 O683 1.258 . S
C682 O684 1.263 . S
O683 Co680 1.970 . S
O683 C682 1.258 . S
O684 Co681 1.966 . S
O684 C682 1.263 . S
C685 O686 1.235 . S
C685 O712 1.289 . S
O686 C685 1.235 . S
C687 C689 1.400 . S
C687 N690 1.351 . S
C687 C692 1.501 . S
C688 C689 1.387 . S
C688 N691 1.341 . S
C689 C687 1.400 . S
C689 C688 1.387 . S
N690 Co681 2.022 . S
N690 C687 1.351 . S
N690 N691 1.365 . S
N691 C688 1.341 . S
N691 N690 1.365 . S
N691 H711 0.862 . S
C692 C687 1.501 . S
C692 H693 0.961 . S
C692 H694 0.961 . S
C692 H695 0.960 . S
H693 C692 0.961 . S
H694 C692 0.961 . S
H695 C692 0.960 . S
C696 N697 1.342 . S
C696 C700 1.401 . S
C696 C701 1.499 . S
N697 Co680 1.989 . S
N697 C696 1.342 . S
N697 N698 1.388 . S
N698 Co681 1.993 . S
N698 N697 1.388 . S
N698 C699 1.346 . S
C699 N698 1.346 . S
C699 C700 1.396 . S
C699 C709 1.510 . S
C700 C696 1.401 . S
C700 C699 1.396 . S
C701 C696 1.499 . S
C701 H702 0.959 . S
C701 H703 0.960 . S
C701 H704 0.961 . S
H702 C701 0.959 . S
H703 C701 0.960 . S
H704 C701 0.961 . S
O705 Co680 1.967 . S
O705 C713 1.258 . S
O706 Co681 1.941 . S
O706 C713 1.266 . S
H707 C709 0.959 . S
H708 C709 0.961 . S
C709 C699 1.510 . S
C709 H707 0.959 . S
C709 H708 0.961 . S
C709 H710 0.960 . S
H710 C709 0.960 . S
H711 N691 0.862 . S
O712 Co680 1.920 . S
O712 C685 1.289 . S
C713 O705 1.258 . S
C713 O706 1.266 . S
Co714 O717 1.972 . S
Co714 N731 1.988 1_545 S
Co714 O739 1.970 . S
Co714 O746 1.918 1_545 S
Co715 O718 1.966 . S
Co715 N724 2.022 . S
Co715 N732 1.993 . S
Co715 O740 1.941 . S
C716 O717 1.258 . S
C716 O718 1.263 . S
O717 Co714 1.972 . S
O717 C716 1.258 . S
O718 Co715 1.966 . S
O718 C716 1.263 . S
C719 O720 1.235 . S
C719 O746 1.289 . S
O720 C719 1.235 . S
C721 C723 1.400 . S
C721 N724 1.351 . S
C721 C726 1.501 . S
C722 C723 1.387 . S
C722 N725 1.341 . S
C723 C721 1.400 . S
C723 C722 1.387 . S
N724 Co715 2.022 . S
N724 C721 1.351 . S
N724 N725 1.365 . S
N725 C722 1.341 . S
N725 N724 1.365 . S
N725 H745 0.862 . S
C726 C721 1.501 . S
C726 H727 0.961 . S
C726 H728 0.961 . S
C726 H729 0.960 . S
H727 C726 0.961 . S
H728 C726 0.961 . S
H729 C726 0.960 . S
C730 N731 1.342 . S
C730 C734 1.401 . S
C730 C735 1.499 . S
N731 Co714 1.988 1_565 S
N731 C730 1.342 . S
N731 N732 1.388 1_565 S
N732 Co715 1.993 . S
N732 N731 1.388 1_545 S
N732 C733 1.346 1_545 S
C733 N732 1.346 1_565 S
C733 C734 1.396 . S
C733 C743 1.510 1_565 S
C734 C730 1.401 . S
C734 C733 1.396 . S
C735 C730 1.499 . S
C735 H736 0.959 . S
C735 H737 0.960 . S
C735 H738 0.961 . S
H736 C735 0.959 . S
H737 C735 0.960 . S
H738 C735 0.961 . S
O739 Co714 1.970 . S
O739 C747 1.258 . S
O740 Co715 1.941 . S
O740 C747 1.266 . S
H741 C743 0.959 . S
H742 C743 0.972 . S
C743 C733 1.510 1_545 S
C743 H741 0.959 . S
C743 H742 0.972 . S
C743 H744 0.960 . S
H744 C743 0.960 . S
H745 N725 0.862 . S
O746 Co714 1.918 1_565 S
O746 C719 1.289 . S
C747 O739 1.258 . S
C747 O740 1.266 . S
Co748 O751 1.972 . S
Co748 N765 1.988 1_545 S
Co748 O773 1.970 . S
Co748 O780 1.918 1_545 S
Co749 O752 1.966 . S
Co749 N758 2.022 . S
Co749 N766 1.993 . S
Co749 O774 1.941 . S
C750 O751 1.258 . S
C750 O752 1.263 . S
O751 Co748 1.972 . S
O751 C750 1.258 . S
O752 Co749 1.966 . S
O752 C750 1.263 . S
C753 O754 1.235 . S
C753 O780 1.289 . S
O754 C753 1.235 . S
C755 C757 1.400 . S
C755 N758 1.351 . S
C755 C760 1.501 . S
C756 C757 1.387 . S
C756 N759 1.341 . S
C757 C755 1.400 . S
C757 C756 1.387 . S
N758 Co749 2.022 . S
N758 C755 1.351 . S
N758 N759 1.365 . S
N759 C756 1.341 . S
N759 N758 1.365 . S
N759 H779 0.862 . S
C760 C755 1.501 . S
C760 H761 0.961 . S
C760 H762 0.961 . S
C760 H763 0.960 . S
H761 C760 0.961 . S
H762 C760 0.961 . S
H763 C760 0.960 . S
C764 N765 1.342 . S
C764 C768 1.401 . S
C764 C769 1.499 . S
N765 Co748 1.988 1_565 S
N765 C764 1.342 . S
N765 N766 1.388 1_565 S
N766 Co749 1.993 . S
N766 N765 1.388 1_545 S
N766 C767 1.346 1_545 S
C767 N766 1.346 1_565 S
C767 C768 1.396 . S
C767 C777 1.510 1_565 S
C768 C764 1.401 . S
C768 C767 1.396 . S
C769 C764 1.499 . S
C769 H770 0.959 . S
C769 H771 0.960 . S
C769 H772 0.961 . S
H770 C769 0.959 . S
H771 C769 0.960 . S
H772 C769 0.961 . S
O773 Co748 1.970 . S
O773 C781 1.258 . S
O774 Co749 1.941 . S
O774 C781 1.266 . S
H775 C777 0.959 . S
H776 C777 0.972 . S
C777 C767 1.510 1_545 S
C777 H775 0.959 . S
C777 H776 0.972 . S
C777 H778 0.960 . S
H778 C777 0.960 . S
H779 N759 0.862 . S
O780 Co748 1.918 1_565 S
O780 C753 1.289 . S
C781 O773 1.258 . S
C781 O774 1.266 . S
Co782 O785 1.970 . S
Co782 N799 1.989 . S
Co782 O807 1.967 . S
Co782 O814 1.920 . S
Co783 O786 1.966 . S
Co783 N792 2.022 . S
Co783 N800 1.993 . S
Co783 O808 1.941 . S
C784 O785 1.258 . S
C784 O786 1.263 . S
O785 Co782 1.970 . S
O785 C784 1.258 . S
O786 Co783 1.966 . S
O786 C784 1.263 . S
C787 O788 1.235 . S
C787 O814 1.289 . S
O788 C787 1.235 . S
C789 C791 1.400 . S
C789 N792 1.351 . S
C789 C794 1.501 . S
C790 C791 1.387 . S
C790 N793 1.341 . S
C791 C789 1.400 . S
C791 C790 1.387 . S
N792 Co783 2.022 . S
N792 C789 1.351 . S
N792 N793 1.365 . S
N793 C790 1.341 . S
N793 N792 1.365 . S
N793 H813 0.862 . S
C794 C789 1.501 . S
C794 H795 0.961 . S
C794 H796 0.961 . S
C794 H797 0.960 . S
H795 C794 0.961 . S
H796 C794 0.961 . S
H797 C794 0.960 . S
C798 N799 1.342 . S
C798 C802 1.401 . S
C798 C803 1.499 . S
N799 Co782 1.989 . S
N799 C798 1.342 . S
N799 N800 1.388 . S
N800 Co783 1.993 . S
N800 N799 1.388 . S
N800 C801 1.346 . S
C801 N800 1.346 . S
C801 C802 1.396 . S
C801 C811 1.510 . S
C802 C798 1.401 . S
C802 C801 1.396 . S
C803 C798 1.499 . S
C803 H804 0.959 . S
C803 H805 0.960 . S
C803 H806 0.961 . S
H804 C803 0.959 . S
H805 C803 0.960 . S
H806 C803 0.961 . S
O807 Co782 1.967 . S
O807 C815 1.258 . S
O808 Co783 1.941 . S
O808 C815 1.266 . S
H809 C811 0.959 . S
H810 C811 0.961 . S
C811 C801 1.510 . S
C811 H809 0.959 . S
C811 H810 0.961 . S
C811 H812 0.960 . S
H812 C811 0.960 . S
H813 N793 0.862 . S
O814 Co782 1.920 . S
O814 C787 1.289 . S
C815 O807 1.258 . S
C815 O808 1.266 . S
Co816 O819 1.970 . S
Co816 N833 1.989 . S
Co816 O841 1.967 . S
Co816 O848 1.920 . S
Co817 O820 1.966 . S
Co817 N826 2.022 . S
Co817 N834 1.993 . S
Co817 O842 1.941 . S
C818 O819 1.258 . S
C818 O820 1.263 . S
O819 Co816 1.970 . S
O819 C818 1.258 . S
O820 Co817 1.966 . S
O820 C818 1.263 . S
C821 O822 1.235 . S
C821 O848 1.289 . S
O822 C821 1.235 . S
C823 C825 1.400 . S
C823 N826 1.351 . S
C823 C828 1.501 . S
C824 C825 1.387 . S
C824 N827 1.341 . S
C825 C823 1.400 . S
C825 C824 1.387 . S
N826 Co817 2.022 . S
N826 C823 1.351 . S
N826 N827 1.365 . S
N827 C824 1.341 . S
N827 N826 1.365 . S
N827 H847 0.862 . S
C828 C823 1.501 . S
C828 H829 0.961 . S
C828 H830 0.961 . S
C828 H831 0.960 . S
H829 C828 0.961 . S
H830 C828 0.961 . S
H831 C828 0.960 . S
C832 N833 1.342 . S
C832 C836 1.401 . S
C832 C837 1.499 . S
N833 Co816 1.989 . S
N833 C832 1.342 . S
N833 N834 1.388 . S
N834 Co817 1.993 . S
N834 N833 1.388 . S
N834 C835 1.346 . S
C835 N834 1.346 . S
C835 C836 1.396 . S
C835 C845 1.510 . S
C836 C832 1.401 . S
C836 C835 1.396 . S
C837 C832 1.499 . S
C837 H838 0.959 . S
C837 H839 0.960 . S
C837 H840 0.961 . S
H838 C837 0.959 . S
H839 C837 0.960 . S
H840 C837 0.961 . S
O841 Co816 1.967 . S
O841 C849 1.258 . S
O842 Co817 1.941 . S
O842 C849 1.266 . S
H843 C845 0.959 . S
H844 C845 0.961 . S
C845 C835 1.510 . S
C845 H843 0.959 . S
C845 H844 0.961 . S
C845 H846 0.960 . S
H846 C845 0.960 . S
H847 N827 0.862 . S
O848 Co816 1.920 . S
O848 C821 1.289 . S
C849 O841 1.258 . S
C849 O842 1.266 . S
Co850 O853 1.970 . S
Co850 N867 1.989 . S
Co850 O875 1.967 . S
Co850 O882 1.920 . S
Co851 O854 1.966 . S
Co851 N860 2.022 . S
Co851 N868 1.993 . S
Co851 O876 1.941 . S
C852 O853 1.258 . S
C852 O854 1.263 . S
O853 Co850 1.970 . S
O853 C852 1.258 . S
O854 Co851 1.966 . S
O854 C852 1.263 . S
C855 O856 1.235 . S
C855 O882 1.289 . S
O856 C855 1.235 . S
C857 C859 1.400 . S
C857 N860 1.351 . S
C857 C862 1.501 . S
C858 C859 1.387 . S
C858 N861 1.341 . S
C859 C857 1.400 . S
C859 C858 1.387 . S
N860 Co851 2.022 . S
N860 C857 1.351 . S
N860 N861 1.365 . S
N861 C858 1.341 . S
N861 N860 1.365 . S
N861 H881 0.862 . S
C862 C857 1.501 . S
C862 H863 0.961 . S
C862 H864 0.961 . S
C862 H865 0.960 . S
H863 C862 0.961 . S
H864 C862 0.961 . S
H865 C862 0.960 . S
C866 N867 1.342 . S
C866 C870 1.401 . S
C866 C871 1.499 . S
N867 Co850 1.989 . S
N867 C866 1.342 . S
N867 N868 1.388 . S
N868 Co851 1.993 . S
N868 N867 1.388 . S
N868 C869 1.346 . S
C869 N868 1.346 . S
C869 C870 1.396 . S
C869 C879 1.510 . S
C870 C866 1.401 . S
C870 C869 1.396 . S
C871 C866 1.499 . S
C871 H872 0.959 . S
C871 H873 0.960 . S
C871 H874 0.961 . S
H872 C871 0.959 . S
H873 C871 0.960 . S
H874 C871 0.961 . S
O875 Co850 1.967 . S
O875 C883 1.258 . S
O876 Co851 1.941 . S
O876 C883 1.266 . S
H877 C879 0.959 . S
H878 C879 0.961 . S
C879 C869 1.510 . S
C879 H877 0.959 . S
C879 H878 0.961 . S
C879 H880 0.960 . S
H880 C879 0.960 . S
H881 N861 0.862 . S
O882 Co850 1.920 . S
O882 C855 1.289 . S
C883 O875 1.258 . S
C883 O876 1.266 . S
Co884 O887 1.970 . S
Co884 N901 1.989 . S
Co884 O909 1.967 . S
Co884 O916 1.920 . S
Co885 O888 1.966 . S
Co885 N894 2.022 1_554 S
Co885 N902 1.990 1_554 S
Co885 O910 1.941 . S
C886 O887 1.258 . S
C886 O888 1.263 . S
O887 Co884 1.970 . S
O887 C886 1.258 . S
O888 Co885 1.966 . S
O888 C886 1.263 . S
C889 O890 1.235 . S
C889 O916 1.289 . S
O890 C889 1.235 . S
C891 C893 1.400 . S
C891 N894 1.351 . S
C891 C896 1.501 . S
C892 C893 1.387 . S
C892 N895 1.341 . S
C893 C891 1.400 . S
C893 C892 1.387 . S
N894 Co885 2.022 1_556 S
N894 C891 1.351 . S
N894 N895 1.365 . S
N895 C892 1.341 . S
N895 N894 1.365 . S
N895 H915 0.862 . S
C896 C891 1.501 . S
C896 H897 0.961 . S
C896 H898 0.961 . S
C896 H899 0.960 . S
H897 C896 0.961 . S
H898 C896 0.961 . S
H899 C896 0.960 . S
C900 N901 1.342 . S
C900 C904 1.401 1_554 S
C900 C905 1.499 . S
N901 Co884 1.989 . S
N901 C900 1.342 . S
N901 N902 1.379 1_554 S
N902 Co885 1.990 1_556 S
N902 N901 1.379 1_556 S
N902 C903 1.355 . S
C903 N902 1.355 . S
C903 C904 1.396 . S
C903 C913 1.510 . S
C904 C900 1.401 1_556 S
C904 C903 1.396 . S
C905 C900 1.499 . S
C905 H906 0.959 . S
C905 H907 0.960 . S
C905 H908 0.961 . S
H906 C905 0.959 . S
H907 C905 0.960 . S
H908 C905 0.961 . S
O909 Co884 1.967 . S
O909 C917 1.258 . S
O910 Co885 1.941 . S
O910 C917 1.266 . S
H911 C913 0.959 . S
H912 C913 0.961 . S
C913 C903 1.510 . S
C913 H911 0.959 . S
C913 H912 0.961 . S
C913 H914 0.960 . S
H914 C913 0.960 . S
H915 N895 0.862 . S
O916 Co884 1.920 . S
O916 C889 1.289 . S
C917 O909 1.258 . S
C917 O910 1.266 . S
Co918 O921 1.970 . S
Co918 N935 1.989 . S
Co918 O943 1.967 . S
Co918 O950 1.920 . S
Co919 O922 1.966 . S
Co919 N928 2.022 1_554 S
Co919 N936 1.990 1_554 S
Co919 O944 1.941 . S
C920 O921 1.258 . S
C920 O922 1.263 . S
O921 Co918 1.970 . S
O921 C920 1.258 . S
O922 Co919 1.966 . S
O922 C920 1.263 . S
C923 O924 1.235 . S
C923 O950 1.289 . S
O924 C923 1.235 . S
C925 C927 1.400 . S
C925 N928 1.351 . S
C925 C930 1.501 . S
C926 C927 1.387 . S
C926 N929 1.341 . S
C927 C925 1.400 . S
C927 C926 1.387 . S
N928 Co919 2.022 1_556 S
N928 C925 1.351 . S
N928 N929 1.365 . S
N929 C926 1.341 . S
N929 N928 1.365 . S
N929 H949 0.862 . S
C930 C925 1.501 . S
C930 H931 0.961 . S
C930 H932 0.961 . S
C930 H933 0.960 . S
H931 C930 0.961 . S
H932 C930 0.961 . S
H933 C930 0.960 . S
C934 N935 1.342 . S
C934 C938 1.401 1_554 S
C934 C939 1.499 . S
N935 Co918 1.989 . S
N935 C934 1.342 . S
N935 N936 1.379 1_554 S
N936 Co919 1.990 1_556 S
N936 N935 1.379 1_556 S
N936 C937 1.355 . S
C937 N936 1.355 . S
C937 C938 1.396 . S
C937 C947 1.510 . S
C938 C934 1.401 1_556 S
C938 C937 1.396 . S
C939 C934 1.499 . S
C939 H940 0.959 . S
C939 H941 0.960 . S
C939 H942 0.961 . S
H940 C939 0.959 . S
H941 C939 0.960 . S
H942 C939 0.961 . S
O943 Co918 1.967 . S
O943 C951 1.258 . S
O944 Co919 1.941 . S
O944 C951 1.266 . S
H945 C947 0.959 . S
H946 C947 0.961 . S
C947 C937 1.510 . S
C947 H945 0.959 . S
C947 H946 0.961 . S
C947 H948 0.960 . S
H948 C947 0.960 . S
H949 N929 0.862 . S
O950 Co918 1.920 . S
O950 C923 1.289 . S
C951 O943 1.258 . S
C951 O944 1.266 . S
Co952 O955 1.970 . S
Co952 N969 1.989 . S
Co952 O977 1.967 . S
Co952 O984 1.920 . S
Co953 O956 1.966 . S
Co953 N962 2.022 . S
Co953 N970 1.993 . S
Co953 O978 1.941 . S
C954 O955 1.258 . S
C954 O956 1.263 . S
O955 Co952 1.970 . S
O955 C954 1.258 . S
O956 Co953 1.966 . S
O956 C954 1.263 . S
C957 O958 1.235 . S
C957 O984 1.289 . S
O958 C957 1.235 . S
C959 C961 1.400 . S
C959 N962 1.351 . S
C959 C964 1.501 . S
C960 C961 1.387 . S
C960 N963 1.341 . S
C961 C959 1.400 . S
C961 C960 1.387 . S
N962 Co953 2.022 . S
N962 C959 1.351 . S
N962 N963 1.365 . S
N963 C960 1.341 . S
N963 N962 1.365 . S
N963 H983 0.862 . S
C964 C959 1.501 . S
C964 H965 0.961 . S
C964 H966 0.961 . S
C964 H967 0.960 . S
H965 C964 0.961 . S
H966 C964 0.961 . S
H967 C964 0.960 . S
C968 N969 1.342 . S
C968 C972 1.401 . S
C968 C973 1.499 . S
N969 Co952 1.989 . S
N969 C968 1.342 . S
N969 N970 1.388 . S
N970 Co953 1.993 . S
N970 N969 1.388 . S
N970 C971 1.346 . S
C971 N970 1.346 . S
C971 C972 1.396 . S
C971 C981 1.510 . S
C972 C968 1.401 . S
C972 C971 1.396 . S
C973 C968 1.499 . S
C973 H974 0.959 . S
C973 H975 0.960 . S
C973 H976 0.961 . S
H974 C973 0.959 . S
H975 C973 0.960 . S
H976 C973 0.961 . S
O977 Co952 1.967 . S
O977 C985 1.258 . S
O978 Co953 1.941 . S
O978 C985 1.266 . S
H979 C981 0.959 . S
H980 C981 0.961 . S
C981 C971 1.510 . S
C981 H979 0.959 . S
C981 H980 0.961 . S
C981 H982 0.960 . S
H982 C981 0.960 . S
H983 N963 0.862 . S
O984 Co952 1.920 . S
O984 C957 1.289 . S
C985 O977 1.258 . S
C985 O978 1.266 . S
Co986 O989 1.970 . S
Co986 N1003 1.989 . S
Co986 O1011 1.967 . S
Co986 O1018 1.920 . S
Co987 O990 1.966 . S
Co987 N996 2.022 . S
Co987 N1004 1.993 . S
Co987 O1012 1.941 . S
C988 O989 1.258 . S
C988 O990 1.263 . S
O989 Co986 1.970 . S
O989 C988 1.258 . S
O990 Co987 1.966 . S
O990 C988 1.263 . S
C991 O992 1.235 . S
C991 O1018 1.289 . S
O992 C991 1.235 . S
C993 C995 1.400 . S
C993 N996 1.351 . S
C993 C998 1.501 . S
C994 C995 1.387 . S
C994 N997 1.341 . S
C995 C993 1.400 . S
C995 C994 1.387 . S
N996 Co987 2.022 . S
N996 C993 1.351 . S
N996 N997 1.365 . S
N997 C994 1.341 . S
N997 N996 1.365 . S
N997 H1017 0.862 . S
C998 C993 1.501 . S
C998 H999 0.961 . S
C998 H1000 0.961 . S
C998 H1001 0.960 . S
H999 C998 0.961 . S
H1000 C998 0.961 . S
H1001 C998 0.960 . S
C1002 N1003 1.342 . S
C1002 C1006 1.401 . S
C1002 C1007 1.499 . S
N1003 Co986 1.989 . S
N1003 C1002 1.342 . S
N1003 N1004 1.388 . S
N1004 Co987 1.993 . S
N1004 N1003 1.388 . S
N1004 C1005 1.346 . S
C1005 N1004 1.346 . S
C1005 C1006 1.396 . S
C1005 C1015 1.510 . S
C1006 C1002 1.401 . S
C1006 C1005 1.396 . S
C1007 C1002 1.499 . S
C1007 H1008 0.959 . S
C1007 H1009 0.960 . S
C1007 H1010 0.961 . S
H1008 C1007 0.959 . S
H1009 C1007 0.960 . S
H1010 C1007 0.961 . S
O1011 Co986 1.967 . S
O1011 C1019 1.258 . S
O1012 Co987 1.941 . S
O1012 C1019 1.266 . S
H1013 C1015 0.959 . S
H1014 C1015 0.961 . S
C1015 C1005 1.510 . S
C1015 H1013 0.959 . S
C1015 H1014 0.961 . S
C1015 H1016 0.960 . S
H1016 C1015 0.960 . S
H1017 N997 0.862 . S
O1018 Co986 1.920 . S
O1018 C991 1.289 . S
C1019 O1011 1.258 . S
C1019 O1012 1.266 . S
Co1020 O1023 1.970 . S
Co1020 N1037 1.989 . S
Co1020 O1045 1.967 . S
Co1020 O1052 1.920 . S
Co1021 O1024 1.966 . S
Co1021 N1030 2.022 1_556 S
Co1021 N1038 1.990 1_556 S
Co1021 O1046 1.941 . S
C1022 O1023 1.258 . S
C1022 O1024 1.263 . S
O1023 Co1020 1.970 . S
O1023 C1022 1.258 . S
O1024 Co1021 1.966 . S
O1024 C1022 1.263 . S
C1025 O1026 1.235 . S
C1025 O1052 1.289 . S
O1026 C1025 1.235 . S
C1027 C1029 1.400 . S
C1027 N1030 1.351 . S
C1027 C1032 1.501 . S
C1028 C1029 1.387 . S
C1028 N1031 1.341 . S
C1029 C1027 1.400 . S
C1029 C1028 1.387 . S
N1030 Co1021 2.022 1_554 S
N1030 C1027 1.351 . S
N1030 N1031 1.365 . S
N1031 C1028 1.341 . S
N1031 N1030 1.365 . S
N1031 H1051 0.862 . S
C1032 C1027 1.501 . S
C1032 H1033 0.961 . S
C1032 H1034 0.961 . S
C1032 H1035 0.960 . S
H1033 C1032 0.961 . S
H1034 C1032 0.961 . S
H1035 C1032 0.960 . S
C1036 N1037 1.342 . S
C1036 C1040 1.401 1_556 S
C1036 C1041 1.499 . S
N1037 Co1020 1.989 . S
N1037 C1036 1.342 . S
N1037 N1038 1.379 1_556 S
N1038 Co1021 1.990 1_554 S
N1038 N1037 1.379 1_554 S
N1038 C1039 1.355 . S
C1039 N1038 1.355 . S
C1039 C1040 1.396 . S
C1039 C1049 1.510 . S
C1040 C1036 1.401 1_554 S
C1040 C1039 1.396 . S
C1041 C1036 1.499 . S
C1041 H1042 0.959 . S
C1041 H1043 0.960 . S
C1041 H1044 0.961 . S
H1042 C1041 0.959 . S
H1043 C1041 0.960 . S
H1044 C1041 0.961 . S
O1045 Co1020 1.967 . S
O1045 C1053 1.258 . S
O1046 Co1021 1.941 . S
O1046 C1053 1.266 . S
H1047 C1049 0.959 . S
H1048 C1049 0.961 . S
C1049 C1039 1.510 . S
C1049 H1047 0.959 . S
C1049 H1048 0.961 . S
C1049 H1050 0.960 . S
H1050 C1049 0.960 . S
H1051 N1031 0.862 . S
O1052 Co1020 1.920 . S
O1052 C1025 1.289 . S
C1053 O1045 1.258 . S
C1053 O1046 1.266 . S
Co1054 O1057 1.970 . S
Co1054 N1071 1.989 . S
Co1054 O1079 1.967 . S
Co1054 O1086 1.920 . S
Co1055 O1058 1.966 . S
Co1055 N1064 2.022 1_556 S
Co1055 N1072 1.990 1_556 S
Co1055 O1080 1.941 . S
C1056 O1057 1.258 . S
C1056 O1058 1.263 . S
O1057 Co1054 1.970 . S
O1057 C1056 1.258 . S
O1058 Co1055 1.966 . S
O1058 C1056 1.263 . S
C1059 O1060 1.235 . S
C1059 O1086 1.289 . S
O1060 C1059 1.235 . S
C1061 C1063 1.400 . S
C1061 N1064 1.351 . S
C1061 C1066 1.501 . S
C1062 C1063 1.387 . S
C1062 N1065 1.341 . S
C1063 C1061 1.400 . S
C1063 C1062 1.387 . S
N1064 Co1055 2.022 1_554 S
N1064 C1061 1.351 . S
N1064 N1065 1.365 . S
N1065 C1062 1.341 . S
N1065 N1064 1.365 . S
N1065 H1085 0.862 . S
C1066 C1061 1.501 . S
C1066 H1067 0.961 . S
C1066 H1068 0.961 . S
C1066 H1069 0.960 . S
H1067 C1066 0.961 . S
H1068 C1066 0.961 . S
H1069 C1066 0.960 . S
C1070 N1071 1.342 . S
C1070 C1074 1.401 1_556 S
C1070 C1075 1.499 . S
N1071 Co1054 1.989 . S
N1071 C1070 1.342 . S
N1071 N1072 1.379 1_556 S
N1072 Co1055 1.990 1_554 S
N1072 N1071 1.379 1_554 S
N1072 C1073 1.355 . S
C1073 N1072 1.355 . S
C1073 C1074 1.396 . S
C1073 C1083 1.510 . S
C1074 C1070 1.401 1_554 S
C1074 C1073 1.396 . S
C1075 C1070 1.499 . S
C1075 H1076 0.959 . S
C1075 H1077 0.960 . S
C1075 H1078 0.961 . S
H1076 C1075 0.959 . S
H1077 C1075 0.960 . S
H1078 C1075 0.961 . S
O1079 Co1054 1.967 . S
O1079 C1087 1.258 . S
O1080 Co1055 1.941 . S
O1080 C1087 1.266 . S
H1081 C1083 0.959 . S
H1082 C1083 0.961 . S
C1083 C1073 1.510 . S
C1083 H1081 0.959 . S
C1083 H1082 0.961 . S
C1083 H1084 0.960 . S
H1084 C1083 0.960 . S
H1085 N1065 0.862 . S
O1086 Co1054 1.920 . S
O1086 C1059 1.289 . S
C1087 O1079 1.258 . S
C1087 O1080 1.266 . S
C1088 C1089 1.369 . S
C1088 C1090 1.419 . S
C1088 H1092 0.930 . S
C1089 C1088 1.369 . S
C1089 C1098 1.429 . S
C1090 C1088 1.419 . S
C1090 C1091 1.363 . S
C1090 H1093 0.929 . S
C1091 C1090 1.363 . S
C1091 C1097 1.428 . S
H1092 C1088 0.930 . S
H1093 C1090 0.929 . S
S1094 N1095 1.613 . S
S1094 N1096 1.610 . S
N1095 S1094 1.613 . S
N1095 C1098 1.350 . S
N1096 S1094 1.610 . S
N1096 C1097 1.351 . S
C1097 C1091 1.428 . S
C1097 N1096 1.351 . S
C1097 C1098 1.434 . S
C1098 C1089 1.429 . S
C1098 N1095 1.350 . S
C1098 C1097 1.434 . S
C1099 C1100 1.369 . S
C1099 C1101 1.419 . S
C1099 H1103 0.930 . S
C1100 C1099 1.369 . S
C1100 C1109 1.429 . S
C1101 C1099 1.419 . S
C1101 C1102 1.363 . S
C1101 H1104 0.929 . S
C1102 C1101 1.363 . S
C1102 C1108 1.428 . S
H1103 C1099 0.930 . S
H1104 C1101 0.929 . S
S1105 N1106 1.613 . S
S1105 N1107 1.610 . S
N1106 S1105 1.613 . S
N1106 C1109 1.350 . S
N1107 S1105 1.610 . S
N1107 C1108 1.351 . S
C1108 C1102 1.428 . S
C1108 N1107 1.351 . S
C1108 C1109 1.434 . S
C1109 C1100 1.429 . S
C1109 N1106 1.350 . S
C1109 C1108 1.434 . S
C1110 C1111 1.369 . S
C1110 C1112 1.419 . S
C1110 H1114 0.930 . S
C1111 C1110 1.369 . S
C1111 C1120 1.429 . S
C1112 C1110 1.419 . S
C1112 C1113 1.363 . S
C1112 H1115 0.929 . S
C1113 C1112 1.363 . S
C1113 C1119 1.428 . S
H1114 C1110 0.930 . S
H1115 C1112 0.929 . S
S1116 N1117 1.613 . S
S1116 N1118 1.610 . S
N1117 S1116 1.613 . S
N1117 C1120 1.350 . S
N1118 S1116 1.610 . S
N1118 C1119 1.351 . S
C1119 C1113 1.428 . S
C1119 N1118 1.351 . S
C1119 C1120 1.434 . S
C1120 C1111 1.429 . S
C1120 N1117 1.350 . S
C1120 C1119 1.434 . S
C1121 C1122 1.369 . S
C1121 C1123 1.419 . S
C1121 H1125 0.930 . S
C1122 C1121 1.369 . S
C1122 C1131 1.429 . S
C1123 C1121 1.419 . S
C1123 C1124 1.363 . S
C1123 H1126 0.929 . S
C1124 C1123 1.363 . S
C1124 C1130 1.428 . S
H1125 C1121 0.930 . S
H1126 C1123 0.929 . S
S1127 N1128 1.613 . S
S1127 N1129 1.610 . S
N1128 S1127 1.613 . S
N1128 C1131 1.350 . S
N1129 S1127 1.610 . S
N1129 C1130 1.351 . S
C1130 C1124 1.428 . S
C1130 N1129 1.351 . S
C1130 C1131 1.434 . S
C1131 C1122 1.429 . S
C1131 N1128 1.350 . S
C1131 C1130 1.434 . S
C1132 C1133 1.369 . S
C1132 C1134 1.419 . S
C1132 H1136 0.930 . S
C1133 C1132 1.369 . S
C1133 C1142 1.429 . S
C1134 C1132 1.419 . S
C1134 C1135 1.363 . S
C1134 H1137 0.929 . S
C1135 C1134 1.363 . S
C1135 C1141 1.428 . S
H1136 C1132 0.930 . S
H1137 C1134 0.929 . S
S1138 N1139 1.613 . S
S1138 N1140 1.610 . S
N1139 S1138 1.613 . S
N1139 C1142 1.350 . S
N1140 S1138 1.610 . S
N1140 C1141 1.351 . S
C1141 C1135 1.428 . S
C1141 N1140 1.351 . S
C1141 C1142 1.434 . S
C1142 C1133 1.429 . S
C1142 N1139 1.350 . S
C1142 C1141 1.434 . S
C1143 C1144 1.369 . S
C1143 C1145 1.419 . S
C1143 H1147 0.930 . S
C1144 C1143 1.369 . S
C1144 C1153 1.429 . S
C1145 C1143 1.419 . S
C1145 C1146 1.363 . S
C1145 H1148 0.929 . S
C1146 C1145 1.363 . S
C1146 C1152 1.428 . S
H1147 C1143 0.930 . S
H1148 C1145 0.929 . S
S1149 N1150 1.613 . S
S1149 N1151 1.610 . S
N1150 S1149 1.613 . S
N1150 C1153 1.350 . S
N1151 S1149 1.610 . S
N1151 C1152 1.351 . S
C1152 C1146 1.428 . S
C1152 N1151 1.351 . S
C1152 C1153 1.434 . S
C1153 C1144 1.429 . S
C1153 N1150 1.350 . S
C1153 C1152 1.434 . S
C1154 C1155 1.369 . S
C1154 C1156 1.419 . S
C1154 H1158 0.930 . S
C1155 C1154 1.369 . S
C1155 C1164 1.429 . S
C1156 C1154 1.419 . S
C1156 C1157 1.363 . S
C1156 H1159 0.929 . S
C1157 C1156 1.363 . S
C1157 C1163 1.428 . S
H1158 C1154 0.930 . S
H1159 C1156 0.929 . S
S1160 N1161 1.613 . S
S1160 N1162 1.610 . S
N1161 S1160 1.613 . S
N1161 C1164 1.350 . S
N1162 S1160 1.610 . S
N1162 C1163 1.351 . S
C1163 C1157 1.428 . S
C1163 N1162 1.351 . S
C1163 C1164 1.434 . S
C1164 C1155 1.429 . S
C1164 N1161 1.350 . S
C1164 C1163 1.434 . S
C1165 C1166 1.369 . S
C1165 C1167 1.419 . S
C1165 H1169 0.930 . S
C1166 C1165 1.369 . S
C1166 C1175 1.429 . S
C1167 C1165 1.419 . S
C1167 C1168 1.363 . S
C1167 H1170 0.929 . S
C1168 C1167 1.363 . S
C1168 C1174 1.428 . S
H1169 C1165 0.930 . S
H1170 C1167 0.929 . S
S1171 N1172 1.613 . S
S1171 N1173 1.610 . S
N1172 S1171 1.613 . S
N1172 C1175 1.350 . S
N1173 S1171 1.610 . S
N1173 C1174 1.351 . S
C1174 C1168 1.428 . S
C1174 N1173 1.351 . S
C1174 C1175 1.434 . S
C1175 C1166 1.429 . S
C1175 N1172 1.350 . S
C1175 C1174 1.434 . S
C1176 C1177 1.369 . S
C1176 C1178 1.419 . S
C1176 H1180 0.930 . S
C1177 C1176 1.369 . S
C1177 C1186 1.429 . S
C1178 C1176 1.419 . S
C1178 C1179 1.363 . S
C1178 H1181 0.929 . S
C1179 C1178 1.363 . S
C1179 C1185 1.428 . S
H1180 C1176 0.930 . S
H1181 C1178 0.929 . S
S1182 N1183 1.613 . S
S1182 N1184 1.610 . S
N1183 S1182 1.613 . S
N1183 C1186 1.350 . S
N1184 S1182 1.610 . S
N1184 C1185 1.351 . S
C1185 C1179 1.428 . S
C1185 N1184 1.351 . S
C1185 C1186 1.434 . S
C1186 C1177 1.429 . S
C1186 N1183 1.350 . S
C1186 C1185 1.434 . S
C1187 C1188 1.369 . S
C1187 C1189 1.419 . S
C1187 H1191 0.930 . S
C1188 C1187 1.369 . S
C1188 C1197 1.429 . S
C1189 C1187 1.419 . S
C1189 C1190 1.363 . S
C1189 H1192 0.929 . S
C1190 C1189 1.363 . S
C1190 C1196 1.428 . S
H1191 C1187 0.930 . S
H1192 C1189 0.929 . S
S1193 N1194 1.613 . S
S1193 N1195 1.610 . S
N1194 S1193 1.613 . S
N1194 C1197 1.350 . S
N1195 S1193 1.610 . S
N1195 C1196 1.351 . S
C1196 C1190 1.428 . S
C1196 N1195 1.351 . S
C1196 C1197 1.434 . S
C1197 C1188 1.429 . S
C1197 N1194 1.350 . S
C1197 C1196 1.434 . S
C1198 C1199 1.369 . S
C1198 C1200 1.419 . S
C1198 H1202 0.930 . S
C1199 C1198 1.369 . S
C1199 C1208 1.429 . S
C1200 C1198 1.419 . S
C1200 C1201 1.363 . S
C1200 H1203 0.929 . S
C1201 C1200 1.363 . S
C1201 C1207 1.428 . S
H1202 C1198 0.930 . S
H1203 C1200 0.929 . S
S1204 N1205 1.613 . S
S1204 N1206 1.610 . S
N1205 S1204 1.613 . S
N1205 C1208 1.350 . S
N1206 S1204 1.610 . S
N1206 C1207 1.351 . S
C1207 C1201 1.428 . S
C1207 N1206 1.351 . S
C1207 C1208 1.434 . S
C1208 C1199 1.429 . S
C1208 N1205 1.350 . S
C1208 C1207 1.434 . S
C1209 C1210 1.369 . S
C1209 C1211 1.419 . S
C1209 H1213 0.930 . S
C1210 C1209 1.369 . S
C1210 C1219 1.429 . S
C1211 C1209 1.419 . S
C1211 C1212 1.363 . S
C1211 H1214 0.929 . S
C1212 C1211 1.363 . S
C1212 C1218 1.428 . S
H1213 C1209 0.930 . S
H1214 C1211 0.929 . S
S1215 N1216 1.613 . S
S1215 N1217 1.610 . S
N1216 S1215 1.613 . S
N1216 C1219 1.350 . S
N1217 S1215 1.610 . S
N1217 C1218 1.351 . S
C1218 C1212 1.428 . S
C1218 N1217 1.351 . S
C1218 C1219 1.434 . S
C1219 C1210 1.429 . S
C1219 N1216 1.350 . S
C1219 C1218 1.434 . S
C1220 C1221 1.369 . S
C1220 C1222 1.419 . S
C1220 H1224 0.930 . S
C1221 C1220 1.369 . S
C1221 C1230 1.429 . S
C1222 C1220 1.419 . S
C1222 C1223 1.363 . S
C1222 H1225 0.929 . S
C1223 C1222 1.363 . S
C1223 C1229 1.428 . S
H1224 C1220 0.930 . S
H1225 C1222 0.929 . S
S1226 N1227 1.613 . S
S1226 N1228 1.610 . S
N1227 S1226 1.613 . S
N1227 C1230 1.350 . S
N1228 S1226 1.610 . S
N1228 C1229 1.351 . S
C1229 C1223 1.428 . S
C1229 N1228 1.351 . S
C1229 C1230 1.434 . S
C1230 C1221 1.429 . S
C1230 N1227 1.350 . S
C1230 C1229 1.434 . S
C1231 C1232 1.369 . S
C1231 C1233 1.419 . S
C1231 H1235 0.930 . S
C1232 C1231 1.369 . S
C1232 C1241 1.429 . S
C1233 C1231 1.419 . S
C1233 C1234 1.363 . S
C1233 H1236 0.929 . S
C1234 C1233 1.363 . S
C1234 C1240 1.428 . S
H1235 C1231 0.930 . S
H1236 C1233 0.929 . S
S1237 N1238 1.613 . S
S1237 N1239 1.610 . S
N1238 S1237 1.613 . S
N1238 C1241 1.350 . S
N1239 S1237 1.610 . S
N1239 C1240 1.351 . S
C1240 C1234 1.428 . S
C1240 N1239 1.351 . S
C1240 C1241 1.434 . S
C1241 C1232 1.429 . S
C1241 N1238 1.350 . S
C1241 C1240 1.434 . S
C1242 C1243 1.369 . S
C1242 C1244 1.419 . S
C1242 H1246 0.930 . S
C1243 C1242 1.369 . S
C1243 C1252 1.429 . S
C1244 C1242 1.419 . S
C1244 C1245 1.363 . S
C1244 H1247 0.929 . S
C1245 C1244 1.363 . S
C1245 C1251 1.428 . S
H1246 C1242 0.930 . S
H1247 C1244 0.929 . S
S1248 N1249 1.613 . S
S1248 N1250 1.610 . S
N1249 S1248 1.613 . S
N1249 C1252 1.350 . S
N1250 S1248 1.610 . S
N1250 C1251 1.351 . S
C1251 C1245 1.428 . S
C1251 N1250 1.351 . S
C1251 C1252 1.434 . S
C1252 C1243 1.429 . S
C1252 N1249 1.350 . S
C1252 C1251 1.434 . S
C1253 C1254 1.369 . S
C1253 C1255 1.419 . S
C1253 H1257 0.930 . S
C1254 C1253 1.369 . S
C1254 C1263 1.429 . S
C1255 C1253 1.419 . S
C1255 C1256 1.363 . S
C1255 H1258 0.929 . S
C1256 C1255 1.363 . S
C1256 C1262 1.428 . S
H1257 C1253 0.930 . S
H1258 C1255 0.929 . S
S1259 N1260 1.613 . S
S1259 N1261 1.610 . S
N1260 S1259 1.613 . S
N1260 C1263 1.350 . S
N1261 S1259 1.610 . S
N1261 C1262 1.351 . S
C1262 C1256 1.428 . S
C1262 N1261 1.351 . S
C1262 C1263 1.434 . S
C1263 C1254 1.429 . S
C1263 N1260 1.350 . S
C1263 C1262 1.434 . S
C1264 C1265 1.369 . S
C1264 C1266 1.419 . S
C1264 H1268 0.930 . S
C1265 C1264 1.369 . S
C1265 C1274 1.429 . S
C1266 C1264 1.419 . S
C1266 C1267 1.363 . S
C1266 H1269 0.929 . S
C1267 C1266 1.363 . S
C1267 C1273 1.428 . S
H1268 C1264 0.930 . S
H1269 C1266 0.929 . S
S1270 N1271 1.613 . S
S1270 N1272 1.610 . S
N1271 S1270 1.613 . S
N1271 C1274 1.350 . S
N1272 S1270 1.610 . S
N1272 C1273 1.351 . S
C1273 C1267 1.428 . S
C1273 N1272 1.351 . S
C1273 C1274 1.434 . S
C1274 C1265 1.429 . S
C1274 N1271 1.350 . S
C1274 C1273 1.434 . S
C1275 C1276 1.369 . S
C1275 C1277 1.419 . S
C1275 H1279 0.930 . S
C1276 C1275 1.369 . S
C1276 C1285 1.429 . S
C1277 C1275 1.419 . S
C1277 C1278 1.363 . S
C1277 H1280 0.929 . S
C1278 C1277 1.363 . S
C1278 C1284 1.428 . S
H1279 C1275 0.930 . S
H1280 C1277 0.929 . S
S1281 N1282 1.613 . S
S1281 N1283 1.610 . S
N1282 S1281 1.613 . S
N1282 C1285 1.350 . S
N1283 S1281 1.610 . S
N1283 C1284 1.351 . S
C1284 C1278 1.428 . S
C1284 N1283 1.351 . S
C1284 C1285 1.434 . S
C1285 C1276 1.429 . S
C1285 N1282 1.350 . S
C1285 C1284 1.434 . S
C1286 C1287 1.369 . S
C1286 C1288 1.419 . S
C1286 H1290 0.930 . S
C1287 C1286 1.369 . S
C1287 C1296 1.429 . S
C1288 C1286 1.419 . S
C1288 C1289 1.363 . S
C1288 H1291 0.929 . S
C1289 C1288 1.363 . S
C1289 C1295 1.428 . S
H1290 C1286 0.930 . S
H1291 C1288 0.929 . S
S1292 N1293 1.613 . S
S1292 N1294 1.610 . S
N1293 S1292 1.613 . S
N1293 C1296 1.350 . S
N1294 S1292 1.610 . S
N1294 C1295 1.351 . S
C1295 C1289 1.428 . S
C1295 N1294 1.351 . S
C1295 C1296 1.434 . S
C1296 C1287 1.429 . S
C1296 N1293 1.350 . S
C1296 C1295 1.434 . S
C1297 C1298 1.369 . S
C1297 C1299 1.419 . S
C1297 H1301 0.930 . S
C1298 C1297 1.369 . S
C1298 C1307 1.429 . S
C1299 C1297 1.419 . S
C1299 C1300 1.363 . S
C1299 H1302 0.929 . S
C1300 C1299 1.363 . S
C1300 C1306 1.428 . S
H1301 C1297 0.930 . S
H1302 C1299 0.929 . S
S1303 N1304 1.613 . S
S1303 N1305 1.610 . S
N1304 S1303 1.613 . S
N1304 C1307 1.350 . S
N1305 S1303 1.610 . S
N1305 C1306 1.351 . S
C1306 C1300 1.428 . S
C1306 N1305 1.351 . S
C1306 C1307 1.434 . S
C1307 C1298 1.429 . S
C1307 N1304 1.350 . S
C1307 C1306 1.434 . S
C1308 C1309 1.369 . S
C1308 C1310 1.419 . S
C1308 H1312 0.930 . S
C1309 C1308 1.369 . S
C1309 C1318 1.429 . S
C1310 C1308 1.419 . S
C1310 C1311 1.363 . S
C1310 H1313 0.929 . S
C1311 C1310 1.363 . S
C1311 C1317 1.428 . S
H1312 C1308 0.930 . S
H1313 C1310 0.929 . S
S1314 N1315 1.613 . S
S1314 N1316 1.610 . S
N1315 S1314 1.613 . S
N1315 C1318 1.350 . S
N1316 S1314 1.610 . S
N1316 C1317 1.351 . S
C1317 C1311 1.428 . S
C1317 N1316 1.351 . S
C1317 C1318 1.434 . S
C1318 C1309 1.429 . S
C1318 N1315 1.350 . S
C1318 C1317 1.434 . S
C1319 C1320 1.369 . S
C1319 C1321 1.419 . S
C1319 H1323 0.930 . S
C1320 C1319 1.369 . S
C1320 C1329 1.429 . S
C1321 C1319 1.419 . S
C1321 C1322 1.363 . S
C1321 H1324 0.929 . S
C1322 C1321 1.363 . S
C1322 C1328 1.428 . S
H1323 C1319 0.930 . S
H1324 C1321 0.929 . S
S1325 N1326 1.613 . S
S1325 N1327 1.610 . S
N1326 S1325 1.613 . S
N1326 C1329 1.350 . S
N1327 S1325 1.610 . S
N1327 C1328 1.351 . S
C1328 C1322 1.428 . S
C1328 N1327 1.351 . S
C1328 C1329 1.434 . S
C1329 C1320 1.429 . S
C1329 N1326 1.350 . S
C1329 C1328 1.434 . S
C1330 C1331 1.369 . S
C1330 C1332 1.419 . S
C1330 H1334 0.930 . S
C1331 C1330 1.369 . S
C1331 C1340 1.429 . S
C1332 C1330 1.419 . S
C1332 C1333 1.363 . S
C1332 H1335 0.929 . S
C1333 C1332 1.363 . S
C1333 C1339 1.428 . S
H1334 C1330 0.930 . S
H1335 C1332 0.929 . S
S1336 N1337 1.613 . S
S1336 N1338 1.610 . S
N1337 S1336 1.613 . S
N1337 C1340 1.350 . S
N1338 S1336 1.610 . S
N1338 C1339 1.351 . S
C1339 C1333 1.428 . S
C1339 N1338 1.351 . S
C1339 C1340 1.434 . S
C1340 C1331 1.429 . S
C1340 N1337 1.350 . S
C1340 C1339 1.434 . S
C1341 C1342 1.369 . S
C1341 C1343 1.419 . S
C1341 H1345 0.930 . S
C1342 C1341 1.369 . S
C1342 C1351 1.429 . S
C1343 C1341 1.419 . S
C1343 C1344 1.363 . S
C1343 H1346 0.929 . S
C1344 C1343 1.363 . S
C1344 C1350 1.428 . S
H1345 C1341 0.930 . S
H1346 C1343 0.929 . S
S1347 N1348 1.613 . S
S1347 N1349 1.610 . S
N1348 S1347 1.613 . S
N1348 C1351 1.350 . S
N1349 S1347 1.610 . S
N1349 C1350 1.351 . S
C1350 C1344 1.428 . S
C1350 N1349 1.351 . S
C1350 C1351 1.434 . S
C1351 C1342 1.429 . S
C1351 N1348 1.350 . S
C1351 C1350 1.434 . S
C1352 C1353 1.369 . S
C1352 C1354 1.419 . S
C1352 H1356 0.930 . S
C1353 C1352 1.369 . S
C1353 C1362 1.429 . S
C1354 C1352 1.419 . S
C1354 C1355 1.363 . S
C1354 H1357 0.929 . S
C1355 C1354 1.363 . S
C1355 C1361 1.428 . S
H1356 C1352 0.930 . S
H1357 C1354 0.929 . S
S1358 N1359 1.613 . S
S1358 N1360 1.610 . S
N1359 S1358 1.613 . S
N1359 C1362 1.350 . S
N1360 S1358 1.610 . S
N1360 C1361 1.351 . S
C1361 C1355 1.428 . S
C1361 N1360 1.351 . S
C1361 C1362 1.434 . S
C1362 C1353 1.429 . S
C1362 N1359 1.350 . S
C1362 C1361 1.434 . S
C1363 C1364 1.369 . S
C1363 C1365 1.419 . S
C1363 H1367 0.930 . S
C1364 C1363 1.369 . S
C1364 C1373 1.429 . S
C1365 C1363 1.419 . S
C1365 C1366 1.363 . S
C1365 H1368 0.929 . S
C1366 C1365 1.363 . S
C1366 C1372 1.428 . S
H1367 C1363 0.930 . S
H1368 C1365 0.929 . S
S1369 N1370 1.613 . S
S1369 N1371 1.610 . S
N1370 S1369 1.613 . S
N1370 C1373 1.350 . S
N1371 S1369 1.610 . S
N1371 C1372 1.351 . S
C1372 C1366 1.428 . S
C1372 N1371 1.351 . S
C1372 C1373 1.434 . S
C1373 C1364 1.429 . S
C1373 N1370 1.350 . S
C1373 C1372 1.434 . S
C1374 C1375 1.369 . S
C1374 C1376 1.419 . S
C1374 H1378 0.930 . S
C1375 C1374 1.369 . S
C1375 C1384 1.429 . S
C1376 C1374 1.419 . S
C1376 C1377 1.363 . S
C1376 H1379 0.929 . S
C1377 C1376 1.363 . S
C1377 C1383 1.428 . S
H1378 C1374 0.930 . S
H1379 C1376 0.929 . S
S1380 N1381 1.613 . S
S1380 N1382 1.610 . S
N1381 S1380 1.613 . S
N1381 C1384 1.350 . S
N1382 S1380 1.610 . S
N1382 C1383 1.351 . S
C1383 C1377 1.428 . S
C1383 N1382 1.351 . S
C1383 C1384 1.434 . S
C1384 C1375 1.429 . S
C1384 N1381 1.350 . S
C1384 C1383 1.434 . S
C1385 C1386 1.369 . S
C1385 C1387 1.419 . S
C1385 H1389 0.930 . S
C1386 C1385 1.369 . S
C1386 C1395 1.429 . S
C1387 C1385 1.419 . S
C1387 C1388 1.363 . S
C1387 H1390 0.929 . S
C1388 C1387 1.363 . S
C1388 C1394 1.428 . S
H1389 C1385 0.930 . S
H1390 C1387 0.929 . S
S1391 N1392 1.613 . S
S1391 N1393 1.610 . S
N1392 S1391 1.613 . S
N1392 C1395 1.350 . S
N1393 S1391 1.610 . S
N1393 C1394 1.351 . S
C1394 C1388 1.428 . S
C1394 N1393 1.351 . S
C1394 C1395 1.434 . S
C1395 C1386 1.429 . S
C1395 N1392 1.350 . S
C1395 C1394 1.434 . S
C1396 C1397 1.369 . S
C1396 C1398 1.419 . S
C1396 H1400 0.930 . S
C1397 C1396 1.369 . S
C1397 C1406 1.429 . S
C1398 C1396 1.419 . S
C1398 C1399 1.363 . S
C1398 H1401 0.929 . S
C1399 C1398 1.363 . S
C1399 C1405 1.428 . S
H1400 C1396 0.930 . S
H1401 C1398 0.929 . S
S1402 N1403 1.613 . S
S1402 N1404 1.610 . S
N1403 S1402 1.613 . S
N1403 C1406 1.350 . S
N1404 S1402 1.610 . S
N1404 C1405 1.351 . S
C1405 C1399 1.428 . S
C1405 N1404 1.351 . S
C1405 C1406 1.434 . S
C1406 C1397 1.429 . S
C1406 N1403 1.350 . S
C1406 C1405 1.434 . S
C1407 C1408 1.369 . S
C1407 C1409 1.419 . S
C1407 H1411 0.930 . S
C1408 C1407 1.369 . S
C1408 C1417 1.429 . S
C1409 C1407 1.419 . S
C1409 C1410 1.363 . S
C1409 H1412 0.929 . S
C1410 C1409 1.363 . S
C1410 C1416 1.428 . S
H1411 C1407 0.930 . S
H1412 C1409 0.929 . S
S1413 N1414 1.613 . S
S1413 N1415 1.610 . S
N1414 S1413 1.613 . S
N1414 C1417 1.350 . S
N1415 S1413 1.610 . S
N1415 C1416 1.351 . S
C1416 C1410 1.428 . S
C1416 N1415 1.351 . S
C1416 C1417 1.434 . S
C1417 C1408 1.429 . S
C1417 N1414 1.350 . S
C1417 C1416 1.434 . S
C1418 C1419 1.369 . S
C1418 C1420 1.419 . S
C1418 H1422 0.930 . S
C1419 C1418 1.369 . S
C1419 C1428 1.429 . S
C1420 C1418 1.419 . S
C1420 C1421 1.363 . S
C1420 H1423 0.929 . S
C1421 C1420 1.363 . S
C1421 C1427 1.428 . S
H1422 C1418 0.930 . S
H1423 C1420 0.929 . S
S1424 N1425 1.613 . S
S1424 N1426 1.610 . S
N1425 S1424 1.613 . S
N1425 C1428 1.350 . S
N1426 S1424 1.610 . S
N1426 C1427 1.351 . S
C1427 C1421 1.428 . S
C1427 N1426 1.351 . S
C1427 C1428 1.434 . S
C1428 C1419 1.429 . S
C1428 N1425 1.350 . S
C1428 C1427 1.434 . S
C1429 C1430 1.369 . S
C1429 C1431 1.419 . S
C1429 H1433 0.930 . S
C1430 C1429 1.369 . S
C1430 C1439 1.429 . S
C1431 C1429 1.419 . S
C1431 C1432 1.363 . S
C1431 H1434 0.929 . S
C1432 C1431 1.363 . S
C1432 C1438 1.428 . S
H1433 C1429 0.930 . S
H1434 C1431 0.929 . S
S1435 N1436 1.613 . S
S1435 N1437 1.610 . S
N1436 S1435 1.613 . S
N1436 C1439 1.350 . S
N1437 S1435 1.610 . S
N1437 C1438 1.351 . S
C1438 C1432 1.428 . S
C1438 N1437 1.351 . S
C1438 C1439 1.434 . S
C1439 C1430 1.429 . S
C1439 N1436 1.350 . S
C1439 C1438 1.434 . S
C1440 C1441 1.369 . S
C1440 C1442 1.419 . S
C1440 H1444 0.930 . S
C1441 C1440 1.369 . S
C1441 C1450 1.429 . S
C1442 C1440 1.419 . S
C1442 C1443 1.363 . S
C1442 H1445 0.929 . S
C1443 C1442 1.363 . S
C1443 C1449 1.428 . S
H1444 C1440 0.930 . S
H1445 C1442 0.929 . S
S1446 N1447 1.613 . S
S1446 N1448 1.610 . S
N1447 S1446 1.613 . S
N1447 C1450 1.350 . S
N1448 S1446 1.610 . S
N1448 C1449 1.351 . S
C1449 C1443 1.428 . S
C1449 N1448 1.351 . S
C1449 C1450 1.434 . S
C1450 C1441 1.429 . S
C1450 N1447 1.350 . S
C1450 C1449 1.434 . S
C1451 C1452 1.369 . S
C1451 C1453 1.419 . S
C1451 H1455 0.930 . S
C1452 C1451 1.369 . S
C1452 C1461 1.429 . S
C1453 C1451 1.419 . S
C1453 C1454 1.363 . S
C1453 H1456 0.929 . S
C1454 C1453 1.363 . S
C1454 C1460 1.428 . S
H1455 C1451 0.930 . S
H1456 C1453 0.929 . S
S1457 N1458 1.613 . S
S1457 N1459 1.610 . S
N1458 S1457 1.613 . S
N1458 C1461 1.350 . S
N1459 S1457 1.610 . S
N1459 C1460 1.351 . S
C1460 C1454 1.428 . S
C1460 N1459 1.351 . S
C1460 C1461 1.434 . S
C1461 C1452 1.429 . S
C1461 N1458 1.350 . S
C1461 C1460 1.434 . S
C1462 C1463 1.369 . S
C1462 C1464 1.419 . S
C1462 H1466 0.930 . S
C1463 C1462 1.369 . S
C1463 C1472 1.429 . S
C1464 C1462 1.419 . S
C1464 C1465 1.363 . S
C1464 H1467 0.929 . S
C1465 C1464 1.363 . S
C1465 C1471 1.428 . S
H1466 C1462 0.930 . S
H1467 C1464 0.929 . S
S1468 N1469 1.613 . S
S1468 N1470 1.610 . S
N1469 S1468 1.613 . S
N1469 C1472 1.350 . S
N1470 S1468 1.610 . S
N1470 C1471 1.351 . S
C1471 C1465 1.428 . S
C1471 N1470 1.351 . S
C1471 C1472 1.434 . S
C1472 C1463 1.429 . S
C1472 N1469 1.350 . S
C1472 C1471 1.434 . S
C1473 C1474 1.369 . S
C1473 C1475 1.419 . S
C1473 H1477 0.930 . S
C1474 C1473 1.369 . S
C1474 C1483 1.429 . S
C1475 C1473 1.419 . S
C1475 C1476 1.363 . S
C1475 H1478 0.929 . S
C1476 C1475 1.363 . S
C1476 C1482 1.428 . S
H1477 C1473 0.930 . S
H1478 C1475 0.929 . S
S1479 N1480 1.613 . S
S1479 N1481 1.610 . S
N1480 S1479 1.613 . S
N1480 C1483 1.350 . S
N1481 S1479 1.610 . S
N1481 C1482 1.351 . S
C1482 C1476 1.428 . S
C1482 N1481 1.351 . S
C1482 C1483 1.434 . S
C1483 C1474 1.429 . S
C1483 N1480 1.350 . S
C1483 C1482 1.434 . S
C1484 C1485 1.369 . S
C1484 C1486 1.419 . S
C1484 H1488 0.930 . S
C1485 C1484 1.369 . S
C1485 C1494 1.429 . S
C1486 C1484 1.419 . S
C1486 C1487 1.363 . S
C1486 H1489 0.929 . S
C1487 C1486 1.363 . S
C1487 C1493 1.428 . S
H1488 C1484 0.930 . S
H1489 C1486 0.929 . S
S1490 N1491 1.613 . S
S1490 N1492 1.610 . S
N1491 S1490 1.613 . S
N1491 C1494 1.350 . S
N1492 S1490 1.610 . S
N1492 C1493 1.351 . S
C1493 C1487 1.428 . S
C1493 N1492 1.351 . S
C1493 C1494 1.434 . S
C1494 C1485 1.429 . S
C1494 N1491 1.350 . S
C1494 C1493 1.434 . S
C1495 C1496 1.369 . S
C1495 C1497 1.419 . S
C1495 H1499 0.930 . S
C1496 C1495 1.369 . S
C1496 C1505 1.429 . S
C1497 C1495 1.419 . S
C1497 C1498 1.363 . S
C1497 H1500 0.929 . S
C1498 C1497 1.363 . S
C1498 C1504 1.428 . S
H1499 C1495 0.930 . S
H1500 C1497 0.929 . S
S1501 N1502 1.613 . S
S1501 N1503 1.610 . S
N1502 S1501 1.613 . S
N1502 C1505 1.350 . S
N1503 S1501 1.610 . S
N1503 C1504 1.351 . S
C1504 C1498 1.428 . S
C1504 N1503 1.351 . S
C1504 C1505 1.434 . S
C1505 C1496 1.429 . S
C1505 N1502 1.350 . S
C1505 C1504 1.434 . S
C1506 C1507 1.369 . S
C1506 C1508 1.419 . S
C1506 H1510 0.930 . S
C1507 C1506 1.369 . S
C1507 C1516 1.429 . S
C1508 C1506 1.419 . S
C1508 C1509 1.363 . S
C1508 H1511 0.929 . S
C1509 C1508 1.363 . S
C1509 C1515 1.428 . S
H1510 C1506 0.930 . S
H1511 C1508 0.929 . S
S1512 N1513 1.613 . S
S1512 N1514 1.610 . S
N1513 S1512 1.613 . S
N1513 C1516 1.350 . S
N1514 S1512 1.610 . S
N1514 C1515 1.351 . S
C1515 C1509 1.428 . S
C1515 N1514 1.351 . S
C1515 C1516 1.434 . S
C1516 C1507 1.429 . S
C1516 N1513 1.350 . S
C1516 C1515 1.434 . S
C1517 C1518 1.369 . S
C1517 C1519 1.419 . S
C1517 H1521 0.930 . S
C1518 C1517 1.369 . S
C1518 C1527 1.429 . S
C1519 C1517 1.419 . S
C1519 C1520 1.363 . S
C1519 H1522 0.929 . S
C1520 C1519 1.363 . S
C1520 C1526 1.428 . S
H1521 C1517 0.930 . S
H1522 C1519 0.929 . S
S1523 N1524 1.613 . S
S1523 N1525 1.610 . S
N1524 S1523 1.613 . S
N1524 C1527 1.350 . S
N1525 S1523 1.610 . S
N1525 C1526 1.351 . S
C1526 C1520 1.428 . S
C1526 N1525 1.351 . S
C1526 C1527 1.434 . S
C1527 C1518 1.429 . S
C1527 N1524 1.350 . S
C1527 C1526 1.434 . S
C1528 C1529 1.369 . S
C1528 C1530 1.419 . S
C1528 H1532 0.930 . S
C1529 C1528 1.369 . S
C1529 C1538 1.429 . S
C1530 C1528 1.419 . S
C1530 C1531 1.363 . S
C1530 H1533 0.929 . S
C1531 C1530 1.363 . S
C1531 C1537 1.428 . S
H1532 C1528 0.930 . S
H1533 C1530 0.929 . S
S1534 N1535 1.613 . S
S1534 N1536 1.610 . S
N1535 S1534 1.613 . S
N1535 C1538 1.350 . S
N1536 S1534 1.610 . S
N1536 C1537 1.351 . S
C1537 C1531 1.428 . S
C1537 N1536 1.351 . S
C1537 C1538 1.434 . S
C1538 C1529 1.429 . S
C1538 N1535 1.350 . S
C1538 C1537 1.434 . S
C1539 C1540 1.369 . S
C1539 C1541 1.419 . S
C1539 H1543 0.930 . S
C1540 C1539 1.369 . S
C1540 C1549 1.429 . S
C1541 C1539 1.419 . S
C1541 C1542 1.363 . S
C1541 H1544 0.929 . S
C1542 C1541 1.363 . S
C1542 C1548 1.428 . S
H1543 C1539 0.930 . S
H1544 C1541 0.929 . S
S1545 N1546 1.613 . S
S1545 N1547 1.610 . S
N1546 S1545 1.613 . S
N1546 C1549 1.350 . S
N1547 S1545 1.610 . S
N1547 C1548 1.351 . S
C1548 C1542 1.428 . S
C1548 N1547 1.351 . S
C1548 C1549 1.434 . S
C1549 C1540 1.429 . S
C1549 N1546 1.350 . S
C1549 C1548 1.434 . S
C1550 C1551 1.369 . S
C1550 C1552 1.419 . S
C1550 H1554 0.930 . S
C1551 C1550 1.369 . S
C1551 C1560 1.429 . S
C1552 C1550 1.419 . S
C1552 C1553 1.363 . S
C1552 H1555 0.929 . S
C1553 C1552 1.363 . S
C1553 C1559 1.428 . S
H1554 C1550 0.930 . S
H1555 C1552 0.929 . S
S1556 N1557 1.613 . S
S1556 N1558 1.610 . S
N1557 S1556 1.613 . S
N1557 C1560 1.350 . S
N1558 S1556 1.610 . S
N1558 C1559 1.351 . S
C1559 C1553 1.428 . S
C1559 N1558 1.351 . S
C1559 C1560 1.434 . S
C1560 C1551 1.429 . S
C1560 N1557 1.350 . S
C1560 C1559 1.434 . S
C1561 C1562 1.369 . S
C1561 C1563 1.419 . S
C1561 H1565 0.930 . S
C1562 C1561 1.369 . S
C1562 C1571 1.429 . S
C1563 C1561 1.419 . S
C1563 C1564 1.363 . S
C1563 H1566 0.929 . S
C1564 C1563 1.363 . S
C1564 C1570 1.428 . S
H1565 C1561 0.930 . S
H1566 C1563 0.929 . S
S1567 N1568 1.613 . S
S1567 N1569 1.610 . S
N1568 S1567 1.613 . S
N1568 C1571 1.350 . S
N1569 S1567 1.610 . S
N1569 C1570 1.351 . S
C1570 C1564 1.428 . S
C1570 N1569 1.351 . S
C1570 C1571 1.434 . S
C1571 C1562 1.429 . S
C1571 N1568 1.350 . S
C1571 C1570 1.434 . S
C1572 C1573 1.369 . S
C1572 C1574 1.419 . S
C1572 H1576 0.930 . S
C1573 C1572 1.369 . S
C1573 C1582 1.429 . S
C1574 C1572 1.419 . S
C1574 C1575 1.363 . S
C1574 H1577 0.929 . S
C1575 C1574 1.363 . S
C1575 C1581 1.428 . S
H1576 C1572 0.930 . S
H1577 C1574 0.929 . S
S1578 N1579 1.613 . S
S1578 N1580 1.610 . S
N1579 S1578 1.613 . S
N1579 C1582 1.350 . S
N1580 S1578 1.610 . S
N1580 C1581 1.351 . S
C1581 C1575 1.428 . S
C1581 N1580 1.351 . S
C1581 C1582 1.434 . S
C1582 C1573 1.429 . S
C1582 N1579 1.350 . S
C1582 C1581 1.434 . S
C1583 C1584 1.369 . S
C1583 C1585 1.419 . S
C1583 H1587 0.930 . S
C1584 C1583 1.369 . S
C1584 C1593 1.429 . S
C1585 C1583 1.419 . S
C1585 C1586 1.363 . S
C1585 H1588 0.929 . S
C1586 C1585 1.363 . S
C1586 C1592 1.428 . S
H1587 C1583 0.930 . S
H1588 C1585 0.929 . S
S1589 N1590 1.613 . S
S1589 N1591 1.610 . S
N1590 S1589 1.613 . S
N1590 C1593 1.350 . S
N1591 S1589 1.610 . S
N1591 C1592 1.351 . S
C1592 C1586 1.428 . S
C1592 N1591 1.351 . S
C1592 C1593 1.434 . S
C1593 C1584 1.429 . S
C1593 N1590 1.350 . S
C1593 C1592 1.434 . S
C1594 C1595 1.369 . S
C1594 C1596 1.419 . S
C1594 H1598 0.930 . S
C1595 C1594 1.369 . S
C1595 C1604 1.429 . S
C1596 C1594 1.419 . S
C1596 C1597 1.363 . S
C1596 H1599 0.929 . S
C1597 C1596 1.363 . S
C1597 C1603 1.428 . S
H1598 C1594 0.930 . S
H1599 C1596 0.929 . S
S1600 N1601 1.613 . S
S1600 N1602 1.610 . S
N1601 S1600 1.613 . S
N1601 C1604 1.350 . S
N1602 S1600 1.610 . S
N1602 C1603 1.351 . S
C1603 C1597 1.428 . S
C1603 N1602 1.351 . S
C1603 C1604 1.434 . S
C1604 C1595 1.429 . S
C1604 N1601 1.350 . S
C1604 C1603 1.434 . S
C1605 C1606 1.369 . S
C1605 C1607 1.419 . S
C1605 H1609 0.930 . S
C1606 C1605 1.369 . S
C1606 C1615 1.429 . S
C1607 C1605 1.419 . S
C1607 C1608 1.363 . S
C1607 H1610 0.929 . S
C1608 C1607 1.363 . S
C1608 C1614 1.428 . S
H1609 C1605 0.930 . S
H1610 C1607 0.929 . S
S1611 N1612 1.613 . S
S1611 N1613 1.610 . S
N1612 S1611 1.613 . S
N1612 C1615 1.350 . S
N1613 S1611 1.610 . S
N1613 C1614 1.351 . S
C1614 C1608 1.428 . S
C1614 N1613 1.351 . S
C1614 C1615 1.434 . S
C1615 C1606 1.429 . S
C1615 N1612 1.350 . S
C1615 C1614 1.434 . S
C1616 C1617 1.369 . S
C1616 C1618 1.419 . S
C1616 H1620 0.930 . S
C1617 C1616 1.369 . S
C1617 C1626 1.429 . S
C1618 C1616 1.419 . S
C1618 C1619 1.363 . S
C1618 H1621 0.929 . S
C1619 C1618 1.363 . S
C1619 C1625 1.428 . S
H1620 C1616 0.930 . S
H1621 C1618 0.929 . S
S1622 N1623 1.613 . S
S1622 N1624 1.610 . S
N1623 S1622 1.613 . S
N1623 C1626 1.350 . S
N1624 S1622 1.610 . S
N1624 C1625 1.351 . S
C1625 C1619 1.428 . S
C1625 N1624 1.351 . S
C1625 C1626 1.434 . S
C1626 C1617 1.429 . S
C1626 N1623 1.350 . S
C1626 C1625 1.434 . S
C1627 C1628 1.369 . S
C1627 C1629 1.419 . S
C1627 H1631 0.930 . S
C1628 C1627 1.369 . S
C1628 C1637 1.429 1_455 S
C1629 C1627 1.419 . S
C1629 C1630 1.363 1_455 S
C1629 H1632 0.929 . S
C1630 C1629 1.363 1_655 S
C1630 C1636 1.428 . S
H1631 C1627 0.930 . S
H1632 C1629 0.929 . S
S1633 N1634 1.613 . S
S1633 N1635 1.610 . S
N1634 S1633 1.613 . S
N1634 C1637 1.350 . S
N1635 S1633 1.610 . S
N1635 C1636 1.351 . S
C1636 C1630 1.428 . S
C1636 N1635 1.351 . S
C1636 C1637 1.434 . S
C1637 C1628 1.429 1_655 S
C1637 N1634 1.350 . S
C1637 C1636 1.434 . S
C1638 C1639 1.369 . S
C1638 C1640 1.419 . S
C1638 H1642 0.930 . S
C1639 C1638 1.369 . S
C1639 C1648 1.429 . S
C1640 C1638 1.419 . S
C1640 C1641 1.363 . S
C1640 H1643 0.929 . S
C1641 C1640 1.363 . S
C1641 C1647 1.428 . S
H1642 C1638 0.930 . S
H1643 C1640 0.929 . S
S1644 N1645 1.613 . S
S1644 N1646 1.610 . S
N1645 S1644 1.613 . S
N1645 C1648 1.350 . S
N1646 S1644 1.610 . S
N1646 C1647 1.351 . S
C1647 C1641 1.428 . S
C1647 N1646 1.351 . S
C1647 C1648 1.434 . S
C1648 C1639 1.429 . S
C1648 N1645 1.350 . S
C1648 C1647 1.434 . S
C1649 C1650 1.369 . S
C1649 C1651 1.415 1_455 S
C1649 H1653 0.930 . S
C1650 C1649 1.369 . S
C1650 C1659 1.429 . S
C1651 C1649 1.415 1_655 S
C1651 C1652 1.364 . S
C1651 H1654 0.932 . S
C1652 C1651 1.364 . S
C1652 C1658 1.428 1_655 S
H1653 C1649 0.930 . S
H1654 C1651 0.932 . S
S1655 N1656 1.613 . S
S1655 N1657 1.610 . S
N1656 S1655 1.613 . S
N1656 C1659 1.350 . S
N1657 S1655 1.610 . S
N1657 C1658 1.351 . S
C1658 C1652 1.428 1_455 S
C1658 N1657 1.351 . S
C1658 C1659 1.434 . S
C1659 C1650 1.429 . S
C1659 N1656 1.350 . S
C1659 C1658 1.434 . S
C1660 C1661 1.369 . S
C1660 C1662 1.419 . S
C1660 H1664 0.930 . S
C1661 C1660 1.369 . S
C1661 C1670 1.429 . S
C1662 C1660 1.419 . S
C1662 C1663 1.363 . S
C1662 H1665 0.929 . S
C1663 C1662 1.363 . S
C1663 C1669 1.428 . S
H1664 C1660 0.930 . S
H1665 C1662 0.929 . S
S1666 N1667 1.613 . S
S1666 N1668 1.610 . S
N1667 S1666 1.613 . S
N1667 C1670 1.350 . S
N1668 S1666 1.610 . S
N1668 C1669 1.351 . S
C1669 C1663 1.428 . S
C1669 N1668 1.351 . S
C1669 C1670 1.434 . S
C1670 C1661 1.429 . S
C1670 N1667 1.350 . S
C1670 C1669 1.434 . S
C1671 C1672 1.369 1_655 S
C1671 C1673 1.419 . S
C1671 H1675 0.930 . S
C1672 C1671 1.369 1_455 S
C1672 C1681 1.429 . S
C1673 C1671 1.419 . S
C1673 C1674 1.363 . S
C1673 H1676 0.929 . S
C1674 C1673 1.363 . S
C1674 C1680 1.428 1_655 S
H1675 C1671 0.930 . S
H1676 C1673 0.929 . S
S1677 N1678 1.613 . S
S1677 N1679 1.610 . S
N1678 S1677 1.613 . S
N1678 C1681 1.350 . S
N1679 S1677 1.610 . S
N1679 C1680 1.351 . S
C1680 C1674 1.428 1_455 S
C1680 N1679 1.351 . S
C1680 C1681 1.434 . S
C1681 C1672 1.429 . S
C1681 N1678 1.350 . S
C1681 C1680 1.434 . S
C1682 C1683 1.369 . S
C1682 C1684 1.419 . S
C1682 H1686 0.930 . S
C1683 C1682 1.369 . S
C1683 C1692 1.429 . S
C1684 C1682 1.419 . S
C1684 C1685 1.363 . S
C1684 H1687 0.929 . S
C1685 C1684 1.363 . S
C1685 C1691 1.428 . S
H1686 C1682 0.930 . S
H1687 C1684 0.929 . S
S1688 N1689 1.613 . S
S1688 N1690 1.610 . S
N1689 S1688 1.613 . S
N1689 C1692 1.350 . S
N1690 S1688 1.610 . S
N1690 C1691 1.351 . S
C1691 C1685 1.428 . S
C1691 N1690 1.351 . S
C1691 C1692 1.434 . S
C1692 C1683 1.429 . S
C1692 N1689 1.350 . S
C1692 C1691 1.434 . S
C1693 C1694 1.369 1_655 S
C1693 C1695 1.419 . S
C1693 H1697 0.930 . S
C1694 C1693 1.369 1_455 S
C1694 C1703 1.429 . S
C1695 C1693 1.419 . S
C1695 C1696 1.363 . S
C1695 H1698 0.929 . S
C1696 C1695 1.363 . S
C1696 C1702 1.428 1_655 S
H1697 C1693 0.930 . S
H1698 C1695 0.929 . S
S1699 N1700 1.613 . S
S1699 N1701 1.610 . S
N1700 S1699 1.613 . S
N1700 C1703 1.350 . S
N1701 S1699 1.610 . S
N1701 C1702 1.351 . S
C1702 C1696 1.428 1_455 S
C1702 N1701 1.351 . S
C1702 C1703 1.434 . S
C1703 C1694 1.429 . S
C1703 N1700 1.350 . S
C1703 C1702 1.434 . S
C1704 C1705 1.369 . S
C1704 C1706 1.419 . S
C1704 H1708 0.930 . S
C1705 C1704 1.369 . S
C1705 C1714 1.429 . S
C1706 C1704 1.419 . S
C1706 C1707 1.363 . S
C1706 H1709 0.929 . S
C1707 C1706 1.363 . S
C1707 C1713 1.428 . S
H1708 C1704 0.930 . S
H1709 C1706 0.929 . S
S1710 N1711 1.613 . S
S1710 N1712 1.610 . S
N1711 S1710 1.613 . S
N1711 C1714 1.350 . S
N1712 S1710 1.610 . S
N1712 C1713 1.351 . S
C1713 C1707 1.428 . S
C1713 N1712 1.351 . S
C1713 C1714 1.434 . S
C1714 C1705 1.429 . S
C1714 N1711 1.350 . S
C1714 C1713 1.434 . S
C1715 C1716 1.369 1_655 S
C1715 C1717 1.419 . S
C1715 H1719 0.930 . S
C1716 C1715 1.369 1_455 S
C1716 C1725 1.429 . S
C1717 C1715 1.419 . S
C1717 C1718 1.363 . S
C1717 H1720 0.929 . S
C1718 C1717 1.363 . S
C1718 C1724 1.428 1_655 S
H1719 C1715 0.930 . S
H1720 C1717 0.929 . S
S1721 N1722 1.613 . S
S1721 N1723 1.610 . S
N1722 S1721 1.613 . S
N1722 C1725 1.350 . S
N1723 S1721 1.610 . S
N1723 C1724 1.351 . S
C1724 C1718 1.428 1_455 S
C1724 N1723 1.351 . S
C1724 C1725 1.434 . S
C1725 C1716 1.429 . S
C1725 N1722 1.350 . S
C1725 C1724 1.434 . S
C1726 C1727 1.369 . S
C1726 C1728 1.419 . S
C1726 H1730 0.930 . S
C1727 C1726 1.369 . S
C1727 C1736 1.429 . S
C1728 C1726 1.419 . S
C1728 C1729 1.363 . S
C1728 H1731 0.929 . S
C1729 C1728 1.363 . S
C1729 C1735 1.428 . S
H1730 C1726 0.930 . S
H1731 C1728 0.929 . S
S1732 N1733 1.613 . S
S1732 N1734 1.610 . S
N1733 S1732 1.613 . S
N1733 C1736 1.350 . S
N1734 S1732 1.610 . S
N1734 C1735 1.351 . S
C1735 C1729 1.428 . S
C1735 N1734 1.351 . S
C1735 C1736 1.434 . S
C1736 C1727 1.429 . S
C1736 N1733 1.350 . S
C1736 C1735 1.434 . S
C1737 C1738 1.369 1_455 S
C1737 C1739 1.419 . S
C1737 H1741 0.930 . S
C1738 C1737 1.369 1_655 S
C1738 C1747 1.429 . S
C1739 C1737 1.419 . S
C1739 C1740 1.363 . S
C1739 H1742 0.929 . S
C1740 C1739 1.363 . S
C1740 C1746 1.428 1_455 S
H1741 C1737 0.930 . S
H1742 C1739 0.929 . S
S1743 N1744 1.613 . S
S1743 N1745 1.610 . S
N1744 S1743 1.613 . S
N1744 C1747 1.350 . S
N1745 S1743 1.610 . S
N1745 C1746 1.351 . S
C1746 C1740 1.428 1_655 S
C1746 N1745 1.351 . S
C1746 C1747 1.434 . S
C1747 C1738 1.429 . S
C1747 N1744 1.350 . S
C1747 C1746 1.434 . S
C1748 C1749 1.369 . S
C1748 C1750 1.419 . S
C1748 H1752 0.930 . S
C1749 C1748 1.369 . S
C1749 C1758 1.429 . S
C1750 C1748 1.419 . S
C1750 C1751 1.363 . S
C1750 H1753 0.929 . S
C1751 C1750 1.363 . S
C1751 C1757 1.428 . S
H1752 C1748 0.930 . S
H1753 C1750 0.929 . S
S1754 N1755 1.613 . S
S1754 N1756 1.610 . S
N1755 S1754 1.613 . S
N1755 C1758 1.350 . S
N1756 S1754 1.610 . S
N1756 C1757 1.351 . S
C1757 C1751 1.428 . S
C1757 N1756 1.351 . S
C1757 C1758 1.434 . S
C1758 C1749 1.429 . S
C1758 N1755 1.350 . S
C1758 C1757 1.434 . S
C1759 C1760 1.369 1_655 S
C1759 C1761 1.419 . S
C1759 H1763 0.930 . S
C1760 C1759 1.369 1_455 S
C1760 C1769 1.429 . S
C1761 C1759 1.419 . S
C1761 C1762 1.363 . S
C1761 H1764 0.929 . S
C1762 C1761 1.363 . S
C1762 C1768 1.428 1_655 S
H1763 C1759 0.930 . S
H1764 C1761 0.929 . S
S1765 N1766 1.613 . S
S1765 N1767 1.610 . S
N1766 S1765 1.613 . S
N1766 C1769 1.350 . S
N1767 S1765 1.610 . S
N1767 C1768 1.351 . S
C1768 C1762 1.428 1_455 S
C1768 N1767 1.351 . S
C1768 C1769 1.434 . S
C1769 C1760 1.429 . S
C1769 N1766 1.350 . S
C1769 C1768 1.434 . S
C1770 C1771 1.369 . S
C1770 C1772 1.419 . S
C1770 H1774 0.930 . S
C1771 C1770 1.369 . S
C1771 C1780 1.429 . S
C1772 C1770 1.419 . S
C1772 C1773 1.363 . S
C1772 H1775 0.929 . S
C1773 C1772 1.363 . S
C1773 C1779 1.428 . S
H1774 C1770 0.930 . S
H1775 C1772 0.929 . S
S1776 N1777 1.613 . S
S1776 N1778 1.610 . S
N1777 S1776 1.613 . S
N1777 C1780 1.350 . S
N1778 S1776 1.610 . S
N1778 C1779 1.351 . S
C1779 C1773 1.428 . S
C1779 N1778 1.351 . S
C1779 C1780 1.434 . S
C1780 C1771 1.429 . S
C1780 N1777 1.350 . S
C1780 C1779 1.434 . S
C1781 C1782 1.369 . S
C1781 C1783 1.419 . S
C1781 H1785 0.930 . S
C1782 C1781 1.369 . S
C1782 C1791 1.429 1_655 S
C1783 C1781 1.419 . S
C1783 C1784 1.363 1_655 S
C1783 H1786 0.929 . S
C1784 C1783 1.363 1_455 S
C1784 C1790 1.428 . S
H1785 C1781 0.930 . S
H1786 C1783 0.929 . S
S1787 N1788 1.613 . S
S1787 N1789 1.610 . S
N1788 S1787 1.613 . S
N1788 C1791 1.350 . S
N1789 S1787 1.610 . S
N1789 C1790 1.351 . S
C1790 C1784 1.428 . S
C1790 N1789 1.351 . S
C1790 C1791 1.434 . S
C1791 C1782 1.429 1_455 S
C1791 N1788 1.350 . S
C1791 C1790 1.434 . S
C1792 C1793 1.369 . S
C1792 C1794 1.419 . S
C1792 H1796 0.930 . S
C1793 C1792 1.369 . S
C1793 C1802 1.429 . S
C1794 C1792 1.419 . S
C1794 C1795 1.363 . S
C1794 H1797 0.929 . S
C1795 C1794 1.363 . S
C1795 C1801 1.428 . S
H1796 C1792 0.930 . S
H1797 C1794 0.929 . S
S1798 N1799 1.613 . S
S1798 N1800 1.610 . S
N1799 S1798 1.613 . S
N1799 C1802 1.350 . S
N1800 S1798 1.610 . S
N1800 C1801 1.351 . S
C1801 C1795 1.428 . S
C1801 N1800 1.351 . S
C1801 C1802 1.434 . S
C1802 C1793 1.429 . S
C1802 N1799 1.350 . S
C1802 C1801 1.434 . S
C1803 C1804 1.369 . S
C1803 C1805 1.419 . S
C1803 H1807 0.930 . S
C1804 C1803 1.369 . S
C1804 C1813 1.429 . S
C1805 C1803 1.419 . S
C1805 C1806 1.363 . S
C1805 H1808 0.929 . S
C1806 C1805 1.363 . S
C1806 C1812 1.428 . S
H1807 C1803 0.930 . S
H1808 C1805 0.929 . S
S1809 N1810 1.613 . S
S1809 N1811 1.610 . S
N1810 S1809 1.613 . S
N1810 C1813 1.350 . S
N1811 S1809 1.610 . S
N1811 C1812 1.351 . S
C1812 C1806 1.428 . S
C1812 N1811 1.351 . S
C1812 C1813 1.434 . S
C1813 C1804 1.429 . S
C1813 N1810 1.350 . S
C1813 C1812 1.434 . S
C1814 C1815 1.369 . S
C1814 C1816 1.419 . S
C1814 H1818 0.930 . S
C1815 C1814 1.369 . S
C1815 C1824 1.429 . S
C1816 C1814 1.419 . S
C1816 C1817 1.363 . S
C1816 H1819 0.929 . S
C1817 C1816 1.363 . S
C1817 C1823 1.428 . S
H1818 C1814 0.930 . S
H1819 C1816 0.929 . S
S1820 N1821 1.613 . S
S1820 N1822 1.610 . S
N1821 S1820 1.613 . S
N1821 C1824 1.350 . S
N1822 S1820 1.610 . S
N1822 C1823 1.351 . S
C1823 C1817 1.428 . S
C1823 N1822 1.351 . S
C1823 C1824 1.434 . S
C1824 C1815 1.429 . S
C1824 N1821 1.350 . S
C1824 C1823 1.434 . S
C1825 C1826 1.369 . S
C1825 C1827 1.419 . S
C1825 H1829 0.930 . S
C1826 C1825 1.369 . S
C1826 C1835 1.429 . S
C1827 C1825 1.419 . S
C1827 C1828 1.363 . S
C1827 H1830 0.929 . S
C1828 C1827 1.363 . S
C1828 C1834 1.428 . S
H1829 C1825 0.930 . S
H1830 C1827 0.929 . S
S1831 N1832 1.613 . S
S1831 N1833 1.610 . S
N1832 S1831 1.613 . S
N1832 C1835 1.350 . S
N1833 S1831 1.610 . S
N1833 C1834 1.351 . S
C1834 C1828 1.428 . S
C1834 N1833 1.351 . S
C1834 C1835 1.434 . S
C1835 C1826 1.429 . S
C1835 N1832 1.350 . S
C1835 C1834 1.434 . S
C1836 C1837 1.369 . S
C1836 C1838 1.419 . S
C1836 H1840 0.930 . S
C1837 C1836 1.369 . S
C1837 C1846 1.429 . S
C1838 C1836 1.419 . S
C1838 C1839 1.363 . S
C1838 H1841 0.929 . S
C1839 C1838 1.363 . S
C1839 C1845 1.428 . S
H1840 C1836 0.930 . S
H1841 C1838 0.929 . S
S1842 N1843 1.613 . S
S1842 N1844 1.610 . S
N1843 S1842 1.613 . S
N1843 C1846 1.350 . S
N1844 S1842 1.610 . S
N1844 C1845 1.351 . S
C1845 C1839 1.428 . S
C1845 N1844 1.351 . S
C1845 C1846 1.434 . S
C1846 C1837 1.429 . S
C1846 N1843 1.350 . S
C1846 C1845 1.434 . S
C1847 C1848 1.369 . S
C1847 C1849 1.419 . S
C1847 H1851 0.930 . S
C1848 C1847 1.369 . S
C1848 C1857 1.429 . S
C1849 C1847 1.419 . S
C1849 C1850 1.363 . S
C1849 H1852 0.929 . S
C1850 C1849 1.363 . S
C1850 C1856 1.428 . S
H1851 C1847 0.930 . S
H1852 C1849 0.929 . S
S1853 N1854 1.613 . S
S1853 N1855 1.610 . S
N1854 S1853 1.613 . S
N1854 C1857 1.350 . S
N1855 S1853 1.610 . S
N1855 C1856 1.351 . S
C1856 C1850 1.428 . S
C1856 N1855 1.351 . S
C1856 C1857 1.434 . S
C1857 C1848 1.429 . S
C1857 N1854 1.350 . S
C1857 C1856 1.434 . S
C1858 C1859 1.369 . S
C1858 C1860 1.419 . S
C1858 H1862 0.930 . S
C1859 C1858 1.369 . S
C1859 C1868 1.429 . S
C1860 C1858 1.419 . S
C1860 C1861 1.363 . S
C1860 H1863 0.929 . S
C1861 C1860 1.363 . S
C1861 C1867 1.428 . S
H1862 C1858 0.930 . S
H1863 C1860 0.929 . S
S1864 N1865 1.613 . S
S1864 N1866 1.610 . S
N1865 S1864 1.613 . S
N1865 C1868 1.350 . S
N1866 S1864 1.610 . S
N1866 C1867 1.351 . S
C1867 C1861 1.428 . S
C1867 N1866 1.351 . S
C1867 C1868 1.434 . S
C1868 C1859 1.429 . S
C1868 N1865 1.350 . S
C1868 C1867 1.434 . S
C1869 C1870 1.369 . S
C1869 C1871 1.419 . S
C1869 H1873 0.930 . S
C1870 C1869 1.369 . S
C1870 C1879 1.429 . S
C1871 C1869 1.419 . S
C1871 C1872 1.363 . S
C1871 H1874 0.929 . S
C1872 C1871 1.363 . S
C1872 C1878 1.428 . S
H1873 C1869 0.930 . S
H1874 C1871 0.929 . S
S1875 N1876 1.613 . S
S1875 N1877 1.610 . S
N1876 S1875 1.613 . S
N1876 C1879 1.350 . S
N1877 S1875 1.610 . S
N1877 C1878 1.351 . S
C1878 C1872 1.428 . S
C1878 N1877 1.351 . S
C1878 C1879 1.434 . S
C1879 C1870 1.429 . S
C1879 N1876 1.350 . S
C1879 C1878 1.434 . S
C1880 C1881 1.369 . S
C1880 C1882 1.419 . S
C1880 H1884 0.930 . S
C1881 C1880 1.369 . S
C1881 C1890 1.429 . S
C1882 C1880 1.419 . S
C1882 C1883 1.363 . S
C1882 H1885 0.929 . S
C1883 C1882 1.363 . S
C1883 C1889 1.428 . S
H1884 C1880 0.930 . S
H1885 C1882 0.929 . S
S1886 N1887 1.613 . S
S1886 N1888 1.610 . S
N1887 S1886 1.613 . S
N1887 C1890 1.350 . S
N1888 S1886 1.610 . S
N1888 C1889 1.351 . S
C1889 C1883 1.428 . S
C1889 N1888 1.351 . S
C1889 C1890 1.434 . S
C1890 C1881 1.429 . S
C1890 N1887 1.350 . S
C1890 C1889 1.434 . S
C1891 C1892 1.369 . S
C1891 C1893 1.419 . S
C1891 H1895 0.930 . S
C1892 C1891 1.369 . S
C1892 C1901 1.429 . S
C1893 C1891 1.419 . S
C1893 C1894 1.363 . S
C1893 H1896 0.929 . S
C1894 C1893 1.363 . S
C1894 C1900 1.428 . S
H1895 C1891 0.930 . S
H1896 C1893 0.929 . S
S1897 N1898 1.613 . S
S1897 N1899 1.610 . S
N1898 S1897 1.613 . S
N1898 C1901 1.350 . S
N1899 S1897 1.610 . S
N1899 C1900 1.351 . S
C1900 C1894 1.428 . S
C1900 N1899 1.351 . S
C1900 C1901 1.434 . S
C1901 C1892 1.429 . S
C1901 N1898 1.350 . S
C1901 C1900 1.434 . S
C1902 C1903 1.369 . S
C1902 C1904 1.419 . S
C1902 H1906 0.930 . S
C1903 C1902 1.369 . S
C1903 C1912 1.429 . S
C1904 C1902 1.419 . S
C1904 C1905 1.363 . S
C1904 H1907 0.929 . S
C1905 C1904 1.363 . S
C1905 C1911 1.428 . S
H1906 C1902 0.930 . S
H1907 C1904 0.929 . S
S1908 N1909 1.613 . S
S1908 N1910 1.610 . S
N1909 S1908 1.613 . S
N1909 C1912 1.350 . S
N1910 S1908 1.610 . S
N1910 C1911 1.351 . S
C1911 C1905 1.428 . S
C1911 N1910 1.351 . S
C1911 C1912 1.434 . S
C1912 C1903 1.429 . S
C1912 N1909 1.350 . S
C1912 C1911 1.434 . S
C1913 C1914 1.369 . S
C1913 C1915 1.419 . S
C1913 H1917 0.930 . S
C1914 C1913 1.369 . S
C1914 C1923 1.429 . S
C1915 C1913 1.419 . S
C1915 C1916 1.363 . S
C1915 H1918 0.929 . S
C1916 C1915 1.363 . S
C1916 C1922 1.428 . S
H1917 C1913 0.930 . S
H1918 C1915 0.929 . S
S1919 N1920 1.613 . S
S1919 N1921 1.610 . S
N1920 S1919 1.613 . S
N1920 C1923 1.350 . S
N1921 S1919 1.610 . S
N1921 C1922 1.351 . S
C1922 C1916 1.428 . S
C1922 N1921 1.351 . S
C1922 C1923 1.434 . S
C1923 C1914 1.429 . S
C1923 N1920 1.350 . S
C1923 C1922 1.434 . S
C1924 C1925 1.369 . S
C1924 C1926 1.419 . S
C1924 H1928 0.930 . S
C1925 C1924 1.369 . S
C1925 C1934 1.429 . S
C1926 C1924 1.419 . S
C1926 C1927 1.363 . S
C1926 H1929 0.929 . S
C1927 C1926 1.363 . S
C1927 C1933 1.428 . S
H1928 C1924 0.930 . S
H1929 C1926 0.929 . S
S1930 N1931 1.613 . S
S1930 N1932 1.610 . S
N1931 S1930 1.613 . S
N1931 C1934 1.350 . S
N1932 S1930 1.610 . S
N1932 C1933 1.351 . S
C1933 C1927 1.428 . S
C1933 N1932 1.351 . S
C1933 C1934 1.434 . S
C1934 C1925 1.429 . S
C1934 N1931 1.350 . S
C1934 C1933 1.434 . S
C1935 C1936 1.369 . S
C1935 C1937 1.419 . S
C1935 H1939 0.930 . S
C1936 C1935 1.369 . S
C1936 C1945 1.429 . S
C1937 C1935 1.419 . S
C1937 C1938 1.363 . S
C1937 H1940 0.929 . S
C1938 C1937 1.363 . S
C1938 C1944 1.428 . S
H1939 C1935 0.930 . S
H1940 C1937 0.929 . S
S1941 N1942 1.613 . S
S1941 N1943 1.610 . S
N1942 S1941 1.613 . S
N1942 C1945 1.350 . S
N1943 S1941 1.610 . S
N1943 C1944 1.351 . S
C1944 C1938 1.428 . S
C1944 N1943 1.351 . S
C1944 C1945 1.434 . S
C1945 C1936 1.429 . S
C1945 N1942 1.350 . S
C1945 C1944 1.434 . S
C1946 C1947 1.369 . S
C1946 C1948 1.419 . S
C1946 H1950 0.930 . S
C1947 C1946 1.369 . S
C1947 C1956 1.429 . S
C1948 C1946 1.419 . S
C1948 C1949 1.363 . S
C1948 H1951 0.929 . S
C1949 C1948 1.363 . S
C1949 C1955 1.428 . S
H1950 C1946 0.930 . S
H1951 C1948 0.929 . S
S1952 N1953 1.613 . S
S1952 N1954 1.610 . S
N1953 S1952 1.613 . S
N1953 C1956 1.350 . S
N1954 S1952 1.610 . S
N1954 C1955 1.351 . S
C1955 C1949 1.428 . S
C1955 N1954 1.351 . S
C1955 C1956 1.434 . S
C1956 C1947 1.429 . S
C1956 N1953 1.350 . S
C1956 C1955 1.434 . S
C1957 C1958 1.369 . S
C1957 C1959 1.419 . S
C1957 H1961 0.930 . S
C1958 C1957 1.369 . S
C1958 C1967 1.429 . S
C1959 C1957 1.419 . S
C1959 C1960 1.363 . S
C1959 H1962 0.929 . S
C1960 C1959 1.363 . S
C1960 C1966 1.428 . S
H1961 C1957 0.930 . S
H1962 C1959 0.929 . S
S1963 N1964 1.613 . S
S1963 N1965 1.610 . S
N1964 S1963 1.613 . S
N1964 C1967 1.350 . S
N1965 S1963 1.610 . S
N1965 C1966 1.351 . S
C1966 C1960 1.428 . S
C1966 N1965 1.351 . S
C1966 C1967 1.434 . S
C1967 C1958 1.429 . S
C1967 N1964 1.350 . S
C1967 C1966 1.434 . S
C1089 C9 0.538 . S
C1091 C349 0.532 . S
C1100 C383 0.533 . S
C1102 C43 0.553 . S
C1111 C281 0.528 . S
C1113 C77 0.540 . S
C1122 C111 0.554 . S
C1124 C315 0.533 . S
C1133 C145 0.532 . S
C1135 C485 0.551 . S
C1144 C179 0.553 . S
C1146 C519 0.552 . S
C1155 C417 0.529 . S
C1157 C213 0.548 . S
C1166 C451 0.535 . S
C1168 C247 0.553 . S
C1177 C893 0.534 . S
C1179 C553 0.553 . S
C1188 C927 0.544 . S
C1190 C587 0.554 . S
C1199 C621 0.535 . S
C1201 C825 0.554 . S
C1210 C859 0.536 . S
C1212 C655 0.554 . S
C1221 C689 0.558 . S
C1223 C1029 0.540 . S
C1232 C1063 0.555 . S
C1234 C723 0.536 . S
C1243 C757 0.556 . S
C1245 C961 0.536 . S
C1254 C791 0.555 . S
C1256 C995 0.535 . S
C1265 C2 1.874 . S
C1267 C852 1.869 . S
C1276 C36 1.869 . S
C1278 C818 1.873 . S
C1287 C70 1.870 . S
C1289 C920 1.873 . S
C1298 C104 1.868 . S
C1300 C886 1.873 . S
C1309 C138 1.870 . S
C1311 C988 1.873 . S
C1320 C172 1.870 . S
C1322 C954 1.871 . S
C1331 C1056 1.868 . S
C1333 C206 1.873 . S
C1342 C240 1.873 . S
C1344 C1022 1.871 . S
C1353 C580 1.870 . S
C1355 C274 1.873 . S
C1364 C308 1.868 . S
C1366 C546 1.873 . S
C1375 C342 1.874 . S
C1377 C648 1.869 . S
C1386 C614 1.869 . S
C1388 C376 1.874 . S
C1397 C716 1.872 . S
C1399 C410 1.869 . S
C1408 C682 1.874 . S
C1410 C444 1.870 . S
C1419 C478 1.874 . S
C1421 C784 1.869 . S
C1430 C750 1.869 . S
C1432 C512 1.871 . S
C1441 C73 0.754 . S
C1443 C5 0.737 . S
C1452 C39 0.740 . S
C1454 C107 0.749 . S
C1463 C209 0.756 . S
C1465 C141 0.736 . S
C1474 C175 0.752 . S
C1476 C243 0.738 . S
C1485 C277 0.753 . S
C1487 C345 0.738 . S
C1496 C311 0.735 . S
C1498 C379 0.752 . S
C1507 C481 0.734 . S
C1509 C413 0.754 . S
C1518 C515 0.749 . S
C1520 C447 0.740 . S
C1529 C617 0.749 . S
C1531 C549 0.741 . S
C1540 C583 0.733 . S
C1542 C651 0.754 . S
C1551 C685 0.745 . S
C1553 C753 0.743 . S
C1562 C719 0.756 . S
C1564 C787 0.736 . S
C1573 C889 0.735 . S
C1575 C821 0.752 . S
C1584 C855 0.733 . S
C1586 C923 0.753 . S
C1595 C957 0.755 . S
C1597 C1025 0.738 . S
C1606 C1059 0.737 . S
C1608 C991 0.751 . S
C1617 C781 2.438 . S
C1619 C20 2.416 . S
C1628 C543 2.439 . S
C1630 C54 2.415 . S
C1639 C88 2.415 . S
C1641 C985 2.439 . S
C1650 C203 2.438 . S
C1652 C122 2.416 . S
C1661 C156 2.414 . S
C1663 C645 2.440 . S
C1672 C190 2.414 . S
C1674 C407 2.439 . S
C1683 C849 2.440 . S
C1685 C224 2.415 . S
C1694 C258 2.414 . S
C1696 C67 2.440 . S
C1705 C292 2.415 . S
C1707 C1053 2.438 . S
C1716 C271 2.437 . S
C1718 C326 2.418 . S
C1727 C360 2.415 . S
C1729 C713 2.440 . S
C1738 C394 2.414 . S
C1740 C475 2.440 . S
C1749 C917 2.439 . S
C1751 C428 2.417 . S
C1760 C462 2.414 . S
C1762 C135 2.439 . S
C1771 C577 2.437 . S
C1773 C496 2.417 . S
C1782 C339 2.439 . S
C1784 C530 2.417 . S
C1793 C237 2.439 . S
C1795 C564 2.417 . S
C1804 C598 2.416 . S
C1806 C1087 2.439 . S
C1815 C632 2.418 . S
C1817 C441 2.438 . S
C1826 C666 2.418 . S
C1828 C747 2.438 . S
C1837 C700 2.414 . S
C1839 C101 2.440 . S
C1848 C734 2.416 . S
C1850 C951 2.439 . S
C1859 C305 2.439 . S
C1861 C768 2.415 . S
C1870 C611 2.440 . S
C1872 C802 2.415 . S
C1881 C509 2.440 . S
C1883 C836 2.415 . S
C1892 C870 2.417 . S
C1894 C815 2.438 . S
C1903 C169 2.437 . S
C1905 C904 2.418 . S
C1914 C1019 2.438 . S
C1916 C938 2.417 . S
C1925 C972 2.418 . S
C1927 C373 2.437 . S
C1936 C1006 2.418 . S
C1938 C679 2.437 . S
C1947 C33 2.438 . S
C1949 C1040 2.417 . S
C1958 C1074 2.414 . S
C1960 C883 2.439 . S
