# Generated by pormake.
# Topology vbk, (5)-cn, num edge types: 1
# Building blocks:
#     Node 0, Type 0, BuildingBlock: XOMCOT_clean_sbu_0, # of connection points: 5
#     Node 1, Type 0, BuildingBlock: XOMCOT_clean_sbu_0, # of connection points: 5
#     Node 2, Type 0, BuildingBlock: XOMCOT_clean_sbu_0, # of connection points: 5
#     Node 3, Type 0, BuildingBlock: XOMCOT_clean_sbu_0, # of connection points: 5
#     Node 4, Type 0, BuildingBlock: XOMCOT_clean_sbu_0, # of connection points: 5
#     Node 5, Type 0, BuildingBlock: XOMCOT_clean_sbu_0, # of connection points: 5
#     Node 6, Type 0, BuildingBlock: XOMCOT_clean_sbu_0, # of connection points: 5
#     Node 7, Type 0, BuildingBlock: XOMCOT_clean_sbu_0, # of connection points: 5
#     Node 8, Type 0, BuildingBlock: XOMCOT_clean_sbu_0, # of connection points: 5
#     Node 9, Type 0, BuildingBlock: XOMCOT_clean_sbu_0, # of connection points: 5
#     Node 10, Type 0, BuildingBlock: XOMCOT_clean_sbu_0, # of connection points: 5
#     Node 11, Type 0, BuildingBlock: XOMCOT_clean_sbu_0, # of connection points: 5
#     Node 12, Type 0, BuildingBlock: XOMCOT_clean_sbu_0, # of connection points: 5
#     Node 13, Type 0, BuildingBlock: XOMCOT_clean_sbu_0, # of connection points: 5
#     Node 14, Type 0, BuildingBlock: XOMCOT_clean_sbu_0, # of connection points: 5
#     Node 15, Type 0, BuildingBlock: XOMCOT_clean_sbu_0, # of connection points: 5
#     Edge 16, Type (0, 0), BuildingBlock: EZIPEK_clean_linker_0, # of connection points: 2
#     Edge 17, Type (0, 0), BuildingBlock: EZIPEK_clean_linker_0, # of connection points: 2
#     Edge 18, Type (0, 0), BuildingBlock: EZIPEK_clean_linker_0, # of connection points: 2
#     Edge 19, Type (0, 0), BuildingBlock: EZIPEK_clean_linker_0, # of connection points: 2
#     Edge 20, Type (0, 0), BuildingBlock: EZIPEK_clean_linker_0, # of connection points: 2
#     Edge 21, Type (0, 0), BuildingBlock: EZIPEK_clean_linker_0, # of connection points: 2
#     Edge 22, Type (0, 0), BuildingBlock: EZIPEK_clean_linker_0, # of connection points: 2
#     Edge 23, Type (0, 0), BuildingBlock: EZIPEK_clean_linker_0, # of connection points: 2
#     Edge 24, Type (0, 0), BuildingBlock: EZIPEK_clean_linker_0, # of connection points: 2
#     Edge 25, Type (0, 0), BuildingBlock: EZIPEK_clean_linker_0, # of connection points: 2
#     Edge 26, Type (0, 0), BuildingBlock: EZIPEK_clean_linker_0, # of connection points: 2
#     Edge 27, Type (0, 0), BuildingBlock: EZIPEK_clean_linker_0, # of connection points: 2
#     Edge 28, Type (0, 0), BuildingBlock: EZIPEK_clean_linker_0, # of connection points: 2
#     Edge 29, Type (0, 0), BuildingBlock: EZIPEK_clean_linker_0, # of connection points: 2
#     Edge 30, Type (0, 0), BuildingBlock: EZIPEK_clean_linker_0, # of connection points: 2
#     Edge 31, Type (0, 0), BuildingBlock: EZIPEK_clean_linker_0, # of connection points: 2
#     Edge 32, Type (0, 0), BuildingBlock: EZIPEK_clean_linker_0, # of connection points: 2
#     Edge 33, Type (0, 0), BuildingBlock: EZIPEK_clean_linker_0, # of connection points: 2
#     Edge 34, Type (0, 0), BuildingBlock: EZIPEK_clean_linker_0, # of connection points: 2
#     Edge 35, Type (0, 0), BuildingBlock: EZIPEK_clean_linker_0, # of connection points: 2
#     Edge 36, Type (0, 0), BuildingBlock: EZIPEK_clean_linker_0, # of connection points: 2
#     Edge 37, Type (0, 0), BuildingBlock: EZIPEK_clean_linker_0, # of connection points: 2
#     Edge 38, Type (0, 0), BuildingBlock: EZIPEK_clean_linker_0, # of connection points: 2
#     Edge 39, Type (0, 0), BuildingBlock: EZIPEK_clean_linker_0, # of connection points: 2
#     Edge 40, Type (0, 0), BuildingBlock: EZIPEK_clean_linker_0, # of connection points: 2
#     Edge 41, Type (0, 0), BuildingBlock: EZIPEK_clean_linker_0, # of connection points: 2
#     Edge 42, Type (0, 0), BuildingBlock: EZIPEK_clean_linker_0, # of connection points: 2
#     Edge 43, Type (0, 0), BuildingBlock: EZIPEK_clean_linker_0, # of connection points: 2
#     Edge 44, Type (0, 0), BuildingBlock: EZIPEK_clean_linker_0, # of connection points: 2
#     Edge 45, Type (0, 0), BuildingBlock: EZIPEK_clean_linker_0, # of connection points: 2
#     Edge 46, Type (0, 0), BuildingBlock: EZIPEK_clean_linker_0, # of connection points: 2
#     Edge 47, Type (0, 0), BuildingBlock: EZIPEK_clean_linker_0, # of connection points: 2
#     Edge 48, Type (0, 0), BuildingBlock: EZIPEK_clean_linker_0, # of connection points: 2
#     Edge 49, Type (0, 0), BuildingBlock: EZIPEK_clean_linker_0, # of connection points: 2
#     Edge 50, Type (0, 0), BuildingBlock: EZIPEK_clean_linker_0, # of connection points: 2
#     Edge 51, Type (0, 0), BuildingBlock: EZIPEK_clean_linker_0, # of connection points: 2
#     Edge 52, Type (0, 0), BuildingBlock: EZIPEK_clean_linker_0, # of connection points: 2
#     Edge 53, Type (0, 0), BuildingBlock: EZIPEK_clean_linker_0, # of connection points: 2
#     Edge 54, Type (0, 0), BuildingBlock: EZIPEK_clean_linker_0, # of connection points: 2
#     Edge 55, Type (0, 0), BuildingBlock: EZIPEK_clean_linker_0, # of connection points: 2
# Relax obj value: 0.113
# Max RMSD: 0.183
# Mean RMSD: 0.183
data_MOF--net-vbk--node1-XOMCOT_clean_sbu_0--edge1-EZIPEK_clean_linker_0
_symmetry_space_group_name_H-M    P1
_symmetry_Int_Tables_number       1
_symmetry_cell_setting            triclinic
loop_
_symmetry_equiv_pos_as_xyz
'x, y, z'
_cell_length_a     52.610398
_cell_length_b     36.421373
_cell_length_c     19.75493
_cell_angle_alpha  90.025795
_cell_angle_beta   90.316984
_cell_angle_gamma 89.913417
loop_
_atom_site_label
_atom_site_type_symbol
_atom_site_fract_x
_atom_site_fract_y
_atom_site_fract_z
_atom_type_partial_charge
Co0 Co 0.14881 0.13642 0.10352 0.0
C1 C 0.09084 0.14816 0.08012 0.0
C2 C 0.10091 0.10495 0.14855 0.0
C3 C 0.07492 0.10652 0.14428 0.0
N4 N 0.1114 0.13033 0.10728 0.0
N5 N 0.06854 0.13353 0.10133 0.0
H6 H 0.09157 0.17196 0.04785 0.0
H7 H 0.1114 0.08659 0.18131 0.0
C8 C 0.13396 0.18748 0.21481 0.0
O9 O 0.11812 0.20272 0.17156 0.0
N10 N 0.18582 0.14054 0.10753 0.0
C11 C 0.20258 0.14855 0.05832 0.0
C12 C 0.22686 0.14904 0.08625 0.0
C13 C 0.20018 0.13558 0.16411 0.0
N14 N 0.22523 0.14089 0.15276 0.0
C15 C 0.13443 0.18061 0.99237 0.0
C16 C 0.16382 0.24146 0.02016 0.0
C17 C 0.15159 0.2388 0.95677 0.0
C18 C 0.13592 0.20858 0.94482 0.0
C19 C 0.16074 0.21324 0.0685 0.0
N20 N 0.14633 0.18293 0.05387 0.0
H21 H 0.12448 0.15591 0.97788 0.0
H22 H 0.17141 0.2145 0.11527 0.0
H23 H 0.19752 0.15428 1.00624 0.0
H24 H 0.1924 0.12884 0.21315 0.0
O25 O 0.15086 0.10635 0.02321 0.0
O26 O 0.15265 0.08407 0.12684 0.0
O27 O 0.14755 0.16014 0.19638 0.0
C28 C 0.15261 0.07786 0.06164 0.0
H29 H 0.06159 0.08943 0.17141 0.0
H30 H 0.2443 0.15554 0.06008 0.0
H31 H 0.17659 0.26406 0.03081 0.0
H32 H 0.1265 0.20508 0.89632 0.0
Co33 Co 0.38772 0.87961 0.60931 0.0
C34 C 0.44579 0.86978 0.5928 0.0
C35 C 0.43425 0.91213 0.66136 0.0
C36 C 0.46029 0.91093 0.66101 0.0
N37 N 0.42474 0.88687 0.61796 0.0
N38 N 0.46759 0.88443 0.61813 0.0
H39 H 0.44564 0.84656 0.55899 0.0
H40 H 0.42297 0.92991 0.69309 0.0
C41 C 0.40099 0.83251 0.72918 0.0
O42 O 0.41864 0.81717 0.69188 0.0
N43 N 0.35096 0.87415 0.60761 0.0
C44 C 0.33538 0.86198 0.55809 0.0
C45 C 0.3108 0.86057 0.58314 0.0
C46 C 0.33568 0.88055 0.66127 0.0
N47 N 0.31119 0.87206 0.64815 0.0
C48 C 0.40272 0.83208 0.50261 0.0
C49 C 0.37878 0.76889 0.54539 0.0
C50 C 0.3901 0.76945 0.48118 0.0
C51 C 0.40244 0.80135 0.46053 0.0
C52 C 0.37952 0.80054 0.58639 0.0
N53 N 0.39169 0.83165 0.56514 0.0
H54 H 0.41138 0.85687 0.48368 0.0
H55 H 0.36923 0.80051 0.63338 0.0
H56 H 0.34149 0.85374 0.50814 0.0
H57 H 0.34248 0.89025 0.70989 0.0
O58 O 0.38666 0.90809 0.52652 0.0
O59 O 0.38274 0.93221 0.62824 0.0
O60 O 0.38741 0.85851 0.70466 0.0
C61 C 0.38369 0.93726 0.56285 0.0
H62 H 0.47301 0.92774 0.69111 0.0
H63 H 0.29408 0.85094 0.5564 0.0
H64 H 0.3685 0.74487 0.56226 0.0
H65 H 0.41101 0.80299 0.41086 0.0
Co66 Co 0.15404 0.87781 0.88403 0.0
C67 C 0.09641 0.87025 0.91276 0.0
C68 C 0.1064 0.89661 0.81973 0.0
C69 C 0.0804 0.89531 0.82343 0.0
N70 N 0.11682 0.88105 0.87542 0.0
N71 N 0.07411 0.87883 0.88169 0.0
H72 H 0.09726 0.85624 0.96066 0.0
H73 H 0.11716 0.90838 0.77872 0.0
C74 C 0.14104 0.82635 0.77026 0.0
O75 O 0.1218 0.81476 0.80648 0.0
N76 N 0.19097 0.87594 0.88511 0.0
C77 C 0.20724 0.86679 0.93536 0.0
C78 C 0.23164 0.86552 0.90915 0.0
C79 C 0.20563 0.88045 0.82965 0.0
N80 N 0.23044 0.87408 0.84273 0.0
C81 C 0.14226 0.83274 0.99681 0.0
C82 C 0.16839 0.77056 0.95747 0.0
C83 C 0.15701 0.77155 0.02153 0.0
C84 C 0.14371 0.80296 0.04066 0.0
C85 C 0.16634 0.80127 0.91458 0.0
N86 N 0.15274 0.83155 0.93376 0.0
H87 H 0.13362 0.8576 0.0154 0.0
H88 H 0.17679 0.80147 0.86765 0.0
H89 H 0.2017 0.8603 0.98663 0.0
H90 H 0.19821 0.88717 0.77997 0.0
O91 O 0.15393 0.90946 0.96257 0.0
O92 O 0.15602 0.92984 0.85755 0.0
O93 O 0.1554 0.85199 0.79277 0.0
C94 C 0.15531 0.93724 0.92229 0.0
H95 H 0.06703 0.90569 0.7862 0.0
H96 H 0.24881 0.85797 0.93621 0.0
H97 H 0.17962 0.74708 0.94215 0.0
H98 H 0.13545 0.80511 0.09064 0.0
Co99 Co 0.38348 0.13996 0.3939 0.0
C100 C 0.44136 0.14706 0.42287 0.0
C101 C 0.4306 0.11974 0.33119 0.0
C102 C 0.45659 0.12086 0.33418 0.0
N103 N 0.42062 0.13535 0.38715 0.0
N104 N 0.46344 0.13789 0.3917 0.0
H105 H 0.44094 0.16227 0.46958 0.0
H106 H 0.41951 0.10828 0.29007 0.0
C107 C 0.37165 0.18765 0.26815 0.0
O108 O 0.34875 0.19629 0.28835 0.0
N109 N 0.34626 0.14305 0.3928 0.0
C110 C 0.3304 0.15714 0.43955 0.0
C111 C 0.30583 0.15668 0.41379 0.0
C112 C 0.33088 0.13276 0.34066 0.0
N113 N 0.30625 0.14202 0.35099 0.0
C114 C 0.39666 0.18003 0.51203 0.0
C115 C 0.37319 0.24596 0.48367 0.0
C116 C 0.38346 0.2404 0.5487 0.0
C117 C 0.39631 0.20748 0.56106 0.0
C118 C 0.37524 0.21817 0.43413 0.0
N119 N 0.38634 0.18505 0.44901 0.0
H120 H 0.40471 0.15391 0.5263 0.0
H121 H 0.36647 0.22295 0.38602 0.0
H122 H 0.3363 0.16823 0.48792 0.0
H123 H 0.33787 0.12112 0.29391 0.0
O124 O 0.38193 0.10645 0.46997 0.0
O125 O 0.38075 0.08837 0.36366 0.0
O126 O 0.38614 0.16682 0.3036 0.0
C127 C 0.38081 0.0795 0.42776 0.0
H128 H 0.4696 0.11024 0.29664 0.0
H129 H 0.28912 0.16794 0.43793 0.0
H130 H 0.36281 0.2709 0.47208 0.0
H131 H 0.40446 0.20183 0.61049 0.0
Co132 Co 0.88824 0.87013 0.90635 0.0
C133 C 0.94686 0.8656 0.92462 0.0
C134 C 0.93332 0.89724 0.84055 0.0
C135 C 0.95937 0.89794 0.83996 0.0
N136 N 0.92503 0.87758 0.89403 0.0
N137 N 0.96788 0.87816 0.89267 0.0
H138 H 0.94798 0.84743 0.96746 0.0
H139 H 0.92106 0.90979 0.80301 0.0
C140 C 0.90068 0.81788 0.79413 0.0
O141 O 0.9187 0.80444 0.83322 0.0
N142 N 0.85151 0.86423 0.91011 0.0
C143 C 0.83623 0.85299 0.96058 0.0
C144 C 0.8115 0.85094 0.93586 0.0
C145 C 0.83593 0.86921 0.85611 0.0
N146 N 0.81152 0.86098 0.87005 0.0
C147 C 0.90553 0.8283 0.0183 0.0
C148 C 0.87989 0.76377 0.99233 0.0
C149 C 0.89307 0.76759 0.05412 0.0
C150 C 0.90655 0.80003 0.06546 0.0
C151 C 0.88032 0.79256 0.94445 0.0
N152 N 0.89314 0.8245 0.95777 0.0
H153 H 0.914 0.85417 0.0323 0.0
H154 H 0.86903 0.79002 0.89897 0.0
H155 H 0.84261 0.84604 1.01113 0.0
H156 H 0.84245 0.8778 0.80672 0.0
O157 O 0.88786 0.90221 0.98447 0.0
O158 O 0.88258 0.92171 0.87986 0.0
O159 O 0.8871 0.8447 0.81491 0.0
C160 C 0.88411 0.92965 0.9443 0.0
H161 H 0.97126 0.91137 0.80292 0.0
H162 H 0.79493 0.842 0.96351 0.0
H163 H 0.86863 0.73948 0.98235 0.0
H164 H 0.91651 0.80452 0.11291 0.0
Co165 Co 0.64871 0.12855 0.41969 0.0
C166 C 0.59155 0.1426 0.42485 0.0
C167 C 0.60068 0.0861 0.40754 0.0
C168 C 0.57477 0.08968 0.40694 0.0
N169 N 0.61165 0.11901 0.42067 0.0
N170 N 0.56894 0.12504 0.41793 0.0
H171 H 0.59325 0.17195 0.43185 0.0
H172 H 0.61048 0.06057 0.39831 0.0
C173 C 0.65524 0.17347 0.28928 0.0
O174 O 0.6778 0.18492 0.30766 0.0
N175 N 0.68557 0.13582 0.41419 0.0
C176 C 0.70152 0.14936 0.46177 0.0
C177 C 0.72606 0.1489 0.4368 0.0
C178 C 0.70093 0.1254 0.36257 0.0
N179 N 0.72556 0.13422 0.37414 0.0
C180 C 0.63024 0.17191 0.52695 0.0
C181 C 0.65905 0.23409 0.50695 0.0
C182 C 0.64592 0.22996 0.56811 0.0
C183 C 0.63024 0.19938 0.57581 0.0
C184 C 0.65742 0.20654 0.45716 0.0
N185 N 0.64388 0.17507 0.46846 0.0
H186 H 0.62043 0.14669 0.53863 0.0
H187 H 0.66916 0.20933 0.41345 0.0
H188 H 0.69574 0.15923 0.511 0.0
H189 H 0.69408 0.11286 0.3163 0.0
O190 O 0.65404 0.10009 0.50074 0.0
O191 O 0.65444 0.07647 0.39797 0.0
O192 O 0.6425 0.15125 0.32631 0.0
C193 C 0.65574 0.07111 0.46353 0.0
H194 H 0.56111 0.0679 0.39873 0.0
H195 H 0.74289 0.15926 0.46204 0.0
H196 H 0.67167 0.25719 0.49952 0.0
H197 H 0.61994 0.19501 0.62248 0.0
Co198 Co 0.88478 0.12836 0.13066 0.0
C199 C 0.94022 0.13909 0.0861 0.0
C200 C 0.9349 0.11087 0.18035 0.0
C201 C 0.96047 0.11423 0.1695 0.0
N202 N 0.92195 0.1265 0.12881 0.0
N203 N 0.96395 0.13197 0.11066 0.0
H204 H 0.9364 0.15354 0.03928 0.0
H205 H 0.92619 0.09828 0.22401 0.0
C206 C 0.88219 0.18068 0.25049 0.0
O207 O 0.86932 0.20405 0.2131 0.0
N208 N 0.84717 0.12812 0.13819 0.0
C209 C 0.83035 0.11338 0.09361 0.0
C210 C 0.8064 0.11262 0.12178 0.0
C211 C 0.83272 0.1354 0.19363 0.0
N212 N 0.80798 0.12644 0.18469 0.0
C213 C 0.86829 0.17985 0.03139 0.0
C214 C 0.90414 0.23378 0.0539 0.0
C215 C 0.88822 0.23636 0.99684 0.0
C216 C 0.86976 0.20946 0.987 0.0
C217 C 0.90192 0.20347 0.09769 0.0
N218 N 0.88428 0.17658 0.08587 0.0
H219 H 0.85536 0.15817 0.01843 0.0
H220 H 0.91536 0.20059 0.13848 0.0
H221 H 0.83514 0.10229 0.04454 0.0
H222 H 0.83986 0.14562 0.24086 0.0
O223 O 0.88327 0.09981 0.04809 0.0
O224 O 0.88471 0.07551 0.15048 0.0
O225 O 0.88845 0.1493 0.22649 0.0
C226 C 0.88382 0.07043 0.08498 0.0
H227 H 0.97553 0.10498 0.203 0.0
H228 H 0.78931 0.10163 0.09878 0.0
H229 H 0.91894 0.25391 0.0625 0.0
H230 H 0.85743 0.21023 0.94288 0.0
Co231 Co 0.65341 0.86897 0.63469 0.0
C232 C 0.59563 0.86641 0.6056 0.0
C233 C 0.60674 0.88999 0.70061 0.0
C234 C 0.5807 0.89052 0.69669 0.0
N235 N 0.61645 0.87503 0.64379 0.0
N236 N 0.5737 0.87579 0.63715 0.0
H237 H 0.59593 0.85345 0.55664 0.0
H238 H 0.61802 0.89978 0.74282 0.0
C239 C 0.64053 0.81894 0.75088 0.0
O240 O 0.62213 0.80492 0.71384 0.0
N241 N 0.69022 0.86399 0.63312 0.0
C242 C 0.70577 0.85213 0.58368 0.0
C243 C 0.73036 0.85027 0.60938 0.0
C244 C 0.7055 0.86946 0.68758 0.0
N245 N 0.72999 0.86097 0.67485 0.0
C246 C 0.63953 0.82604 0.52059 0.0
C247 C 0.65906 0.75912 0.56055 0.0
C248 C 0.64834 0.76259 0.49551 0.0
C249 C 0.6384 0.79646 0.47623 0.0
C250 C 0.65982 0.78986 0.60401 0.0
N251 N 0.64956 0.82277 0.58433 0.0
H252 H 0.63275 0.85211 0.50217 0.0
H253 H 0.66947 0.78739 0.65203 0.0
H254 H 0.69964 0.84443 0.53329 0.0
H255 H 0.69868 0.87837 0.73651 0.0
O256 O 0.6542 0.90078 0.55628 0.0
O257 O 0.65761 0.92059 0.66147 0.0
O258 O 0.65433 0.84465 0.72707 0.0
C259 C 0.6569 0.92827 0.59691 0.0
H260 H 0.56778 0.90071 0.73484 0.0
H261 H 0.74706 0.84083 0.58275 0.0
H262 H 0.66752 0.7334 0.5765 0.0
H263 H 0.63046 0.80038 0.42599 0.0
Co264 Co 0.652 0.62953 0.13291 0.0
C265 C 0.5946 0.64299 0.11371 0.0
C266 C 0.60413 0.59941 0.18203 0.0
C267 C 0.57814 0.60215 0.1787 0.0
N268 N 0.61482 0.62438 0.14034 0.0
N269 N 0.57218 0.62938 0.13573 0.0
H270 H 0.59568 0.66656 0.08098 0.0
H271 H 0.61452 0.58055 0.21409 0.0
C272 C 0.6397 0.67879 0.25024 0.0
O273 O 0.62188 0.69392 0.21271 0.0
N274 N 0.68889 0.63336 0.13201 0.0
C275 C 0.70458 0.64396 0.08199 0.0
C276 C 0.72921 0.64512 0.10737 0.0
C277 C 0.70416 0.62775 0.18648 0.0
N278 N 0.72878 0.63511 0.17317 0.0
C279 C 0.63772 0.67439 0.02271 0.0
C280 C 0.66097 0.73901 0.06103 0.0
C281 C 0.64911 0.73672 0.99721 0.0
C282 C 0.63721 0.7041 0.97887 0.0
C283 C 0.66086 0.70823 0.10433 0.0
N284 N 0.64888 0.67649 0.08528 0.0
H285 H 0.62887 0.6493 1.00572 0.0
H286 H 0.6712 0.70952 0.1515 0.0
H287 H 0.6985 0.65132 0.03138 0.0
H288 H 0.6973 0.61946 0.2357 0.0
O289 O 0.6524 0.59982 0.05187 0.0
O290 O 0.65559 0.57699 0.1548 0.0
O291 O 0.65286 0.65219 0.22682 0.0
C292 C 0.65425 0.57108 0.0896 0.0
H293 H 0.56456 0.58575 0.20637 0.0
H294 H 0.74602 0.65357 0.08022 0.0
H295 H 0.67089 0.76375 0.07607 0.0
H296 H 0.6282 0.70119 0.92968 0.0
Co297 Co 0.88466 0.36822 0.63064 0.0
C298 C 0.94005 0.36074 0.58059 0.0
C299 C 0.93536 0.3822 0.68091 0.0
C300 C 0.96083 0.38102 0.66716 0.0
N301 N 0.92202 0.36934 0.62747 0.0
N302 N 0.96397 0.3676 0.60442 0.0
H303 H 0.93586 0.34996 0.53069 0.0
H304 H 0.92699 0.39231 0.7272 0.0
C305 C 0.88243 0.31691 0.75131 0.0
O306 O 0.86986 0.29326 0.71389 0.0
N307 N 0.84694 0.36961 0.63997 0.0
C308 C 0.8302 0.38546 0.59643 0.0
C309 C 0.80635 0.38686 0.62517 0.0
C310 C 0.83248 0.36231 0.69554 0.0
N311 N 0.80781 0.37237 0.68758 0.0
C312 C 0.86632 0.31483 0.53701 0.0
C313 C 0.90469 0.26372 0.55249 0.0
C314 C 0.88757 0.26007 0.49816 0.0
C315 C 0.8678 0.28539 0.49214 0.0
C316 C 0.90247 0.29381 0.59678 0.0
N317 N 0.88364 0.31943 0.5882 0.0
H318 H 0.85229 0.33549 0.52645 0.0
H319 H 0.91679 0.29763 0.63518 0.0
H320 H 0.83493 0.39656 0.54739 0.0
H321 H 0.83958 0.35115 0.74212 0.0
O322 O 0.88271 0.39508 0.54653 0.0
O323 O 0.88541 0.42137 0.64705 0.0
O324 O 0.88845 0.34834 0.72719 0.0
C325 C 0.88409 0.42517 0.58122 0.0
H326 H 0.97606 0.3897 0.70059 0.0
H327 H 0.78939 0.39871 0.60282 0.0
H328 H 0.92043 0.24476 0.55821 0.0
H329 H 0.85445 0.28371 0.45029 0.0
Co330 Co 0.64745 0.36936 0.9224 0.0
C331 C 0.5907 0.3683 0.96018 0.0
C332 C 0.59915 0.38435 0.8582 0.0
C333 C 0.57328 0.38501 0.86608 0.0
N334 N 0.61036 0.37392 0.91662 0.0
N335 N 0.56777 0.37495 0.92978 0.0
H336 H 0.59303 0.35946 0.01214 0.0
H337 H 0.60928 0.39115 0.8124 0.0
C338 C 0.66011 0.3136 0.81705 0.0
O339 O 0.6773 0.30139 0.85996 0.0
N340 N 0.68505 0.36642 0.92085 0.0
C341 C 0.70222 0.35732 0.9693 0.0
C342 C 0.7264 0.35789 0.94202 0.0
C343 C 0.69952 0.37333 0.86521 0.0
N344 N 0.72466 0.36765 0.87646 0.0
C345 C 0.65171 0.32581 0.04201 0.0
C346 C 0.62834 0.26288 0.995 0.0
C347 C 0.63802 0.2636 0.06134 0.0
C348 C 0.64937 0.29574 0.08486 0.0
C349 C 0.63112 0.29397 0.95332 0.0
N350 N 0.64396 0.32434 0.97593 0.0
H351 H 0.65965 0.35057 0.06301 0.0
H352 H 0.62262 0.29367 0.90345 0.0
H353 H 0.6981 0.35056 0.02104 0.0
H354 H 0.69167 0.38129 0.81663 0.0
O355 O 0.64864 0.40295 0.99781 0.0
O356 O 0.65045 0.42036 0.89086 0.0
O357 O 0.64624 0.34113 0.83345 0.0
C358 C 0.65059 0.42945 0.95491 0.0
H359 H 0.55939 0.39234 0.82772 0.0
H360 H 0.74393 0.35107 0.9681 0.0
H361 H 0.6187 0.23873 0.97588 0.0
H362 H 0.65636 0.29765 0.13645 0.0
Co363 Co 0.88764 0.62583 0.40725 0.0
C364 C 0.94554 0.6248 0.43834 0.0
C365 C 0.93405 0.6044 0.34131 0.0
C366 C 0.96001 0.60245 0.34534 0.0
N367 N 0.92459 0.61876 0.39889 0.0
N368 N 0.96734 0.61536 0.40605 0.0
H369 H 0.94549 0.63603 0.4887 0.0
H370 H 0.9226 0.59542 0.29894 0.0
C371 C 0.90269 0.67885 0.29721 0.0
O372 O 0.92206 0.68862 0.33533 0.0
N373 N 0.85086 0.63132 0.40785 0.0
C374 C 0.835 0.64114 0.45814 0.0
C375 C 0.81049 0.64326 0.43205 0.0
C376 C 0.83584 0.62733 0.35245 0.0
N377 N 0.81119 0.63456 0.36565 0.0
C378 C 0.90243 0.66691 0.52358 0.0
C379 C 0.88003 0.73296 0.48967 0.0
C380 C 0.89239 0.72953 0.5526 0.0
C381 C 0.90366 0.69605 0.56906 0.0
C382 C 0.87942 0.70279 0.44497 0.0
N383 N 0.89145 0.67064 0.4611 0.0
H384 H 0.90944 0.64065 0.54046 0.0
H385 H 0.86829 0.70464 0.39899 0.0
H386 H 0.84085 0.64697 0.5096 0.0
H387 H 0.84288 0.61986 0.30293 0.0
O388 O 0.88633 0.59265 0.48327 0.0
O389 O 0.88309 0.57472 0.37689 0.0
O390 O 0.88742 0.6538 0.31749 0.0
C391 C 0.88367 0.56589 0.44106 0.0
H392 H 0.97267 0.59225 0.30657 0.0
H393 H 0.79355 0.65106 0.45937 0.0
H394 H 0.87021 0.75811 0.4764 0.0
H395 H 0.91247 0.69194 0.61821 0.0
Co396 Co 0.38321 0.38408 0.90114 0.0
C397 C 0.43898 0.37716 0.94638 0.0
C398 C 0.43309 0.39746 0.84546 0.0
C399 C 0.45878 0.39548 0.85738 0.0
N400 N 0.42044 0.38611 0.90073 0.0
N401 N 0.46266 0.3827 0.92045 0.0
H402 H 0.43534 0.36658 0.99657 0.0
H403 H 0.42409 0.40653 0.79901 0.0
C404 C 0.37053 0.32938 0.7931 0.0
O405 O 0.3526 0.31844 0.83437 0.0
N406 N 0.3456 0.38371 0.89503 0.0
C407 C 0.32769 0.37599 0.94184 0.0
C408 C 0.30389 0.37733 0.91191 0.0
C409 C 0.33193 0.39077 0.83761 0.0
N410 N 0.30656 0.3863 0.84627 0.0
C411 C 0.37607 0.33992 0.01842 0.0
C412 C 0.39893 0.27629 0.97317 0.0
C413 C 0.38861 0.2773 0.03846 0.0
C414 C 0.37742 0.30969 0.06105 0.0
C415 C 0.39715 0.30758 0.93163 0.0
N416 N 0.38462 0.3384 0.95329 0.0
H417 H 0.36853 0.36493 0.03921 0.0
H418 H 0.40633 0.30717 0.88288 0.0
H419 H 0.33104 0.36957 0.99421 0.0
H420 H 0.34049 0.39741 0.78947 0.0
O421 O 0.3821 0.41678 0.97804 0.0
O422 O 0.3822 0.43596 0.87227 0.0
O423 O 0.38482 0.35633 0.81094 0.0
C424 C 0.38163 0.44413 0.93678 0.0
H425 H 0.47365 0.40264 0.82209 0.0
H426 H 0.28598 0.3712 0.93611 0.0
H427 H 0.40849 0.25187 0.955 0.0
H428 H 0.36999 0.31176 0.11198 0.0
Co429 Co 0.15177 0.63802 0.38363 0.0
C430 C 0.0959 0.62245 0.41698 0.0
C431 C 0.10057 0.64947 0.32187 0.0
C432 C 0.07515 0.64465 0.33243 0.0
N433 N 0.11411 0.63633 0.37501 0.0
N434 N 0.07202 0.62798 0.39224 0.0
H435 H 0.09986 0.60993 0.46558 0.0
H436 H 0.10796 0.66237 0.27762 0.0
C437 C 0.15094 0.69153 0.26525 0.0
O438 O 0.14047 0.71661 0.30379 0.0
N439 N 0.18904 0.63842 0.38583 0.0
C440 C 0.20527 0.64521 0.43749 0.0
C441 C 0.22983 0.64677 0.41231 0.0
C442 C 0.20408 0.63544 0.33044 0.0
N443 N 0.22892 0.6409 0.34486 0.0
C444 C 0.13215 0.69013 0.47778 0.0
C445 C 0.1706 0.74134 0.47125 0.0
C446 C 0.15236 0.7443 0.52249 0.0
C447 C 0.13253 0.71906 0.52359 0.0
C448 C 0.16911 0.71213 0.42458 0.0
N449 N 0.15021 0.68632 0.42875 0.0
H450 H 0.11842 0.66914 0.48686 0.0
H451 H 0.18402 0.7092 0.38794 0.0
H452 H 0.19959 0.65031 0.4892 0.0
H453 H 0.19703 0.63045 0.27974 0.0
O454 O 0.15054 0.60977 0.46645 0.0
O455 O 0.15316 0.58522 0.36449 0.0
O456 O 0.15477 0.65902 0.28787 0.0
C457 C 0.15195 0.58028 0.43003 0.0
H458 H 0.05989 0.65364 0.29932 0.0
H459 H 0.2469 0.65312 0.4408 0.0
H460 H 0.18655 0.76007 0.46968 0.0
H461 H 0.11847 0.7199 0.5635 0.0
Co462 Co 0.38721 0.6439 0.11622 0.0
C463 C 0.44514 0.65118 0.09863 0.0
C464 C 0.43311 0.61478 0.17732 0.0
C465 C 0.45911 0.61547 0.17744 0.0
N466 N 0.42396 0.63663 0.12751 0.0
N467 N 0.4667 0.63816 0.12811 0.0
H468 H 0.44525 0.67112 0.05836 0.0
H469 H 0.42161 0.59924 0.21214 0.0
C470 C 0.38542 0.66057 0.26513 0.0
O471 O 0.38188 0.62544 0.27653 0.0
N472 N 0.35029 0.64988 0.11276 0.0
C473 C 0.33523 0.66476 0.06452 0.0
C474 C 0.3104 0.66559 0.08806 0.0
C475 C 0.33432 0.64132 0.16405 0.0
N476 N 0.31 0.65107 0.15093 0.0
C477 C 0.40229 0.68539 1.00157 0.0
C478 C 0.38377 0.75312 0.04037 0.0
C479 C 0.39401 0.7489 0.97519 0.0
C480 C 0.40366 0.71472 0.9567 0.0
C481 C 0.383 0.72276 0.08467 0.0
N482 N 0.39215 0.68927 0.06478 0.0
H483 H 0.40947 0.65918 0.98479 0.0
H484 H 0.37404 0.72587 0.13341 0.0
H485 H 0.34184 0.67517 0.01648 0.0
H486 H 0.34036 0.62898 0.21112 0.0
O487 O 0.38636 0.61169 0.03839 0.0
O488 O 0.38198 0.59188 0.14269 0.0
O489 O 0.38785 0.67225 0.20452 0.0
C490 C 0.3834 0.58414 0.07813 0.0
H491 H 0.47162 0.60061 0.21147 0.0
H492 H 0.29404 0.6769 0.0619 0.0
H493 H 0.37577 0.77918 0.0559 0.0
H494 H 0.41152 0.7104 0.90673 0.0
Co495 Co 0.14775 0.37865 0.60214 0.0
C496 C 0.09154 0.36802 0.56381 0.0
C497 C 0.09858 0.392 0.66146 0.0
C498 C 0.07281 0.38872 0.6528 0.0
N499 N 0.11057 0.37921 0.60616 0.0
N500 N 0.06821 0.37365 0.59182 0.0
H501 H 0.09457 0.35592 0.51446 0.0
H502 H 0.1081 0.40282 0.70582 0.0
C503 C 0.16284 0.32424 0.70873 0.0
O504 O 0.18042 0.31356 0.66608 0.0
N505 N 0.18537 0.37992 0.60495 0.0
C506 C 0.20287 0.37455 0.556 0.0
C507 C 0.22699 0.37711 0.58392 0.0
C508 C 0.19951 0.38704 0.6615 0.0
N509 N 0.22486 0.38473 0.65033 0.0
C510 C 0.15398 0.33626 0.48205 0.0
C511 C 0.13273 0.27127 0.5256 0.0
C512 C 0.14084 0.27415 0.45814 0.0
C513 C 0.15153 0.30716 0.43695 0.0
C514 C 0.13531 0.3016 0.56951 0.0
N515 N 0.14671 0.33334 0.54817 0.0
H516 H 0.16099 0.36174 0.46209 0.0
H517 H 0.12736 0.29984 0.61967 0.0
H518 H 0.19899 0.36887 0.50355 0.0
H519 H 0.19138 0.39249 0.71066 0.0
O520 O 0.14703 0.41211 0.52649 0.0
O521 O 0.14812 0.43022 0.63288 0.0
O522 O 0.1478 0.35048 0.6917 0.0
C523 C 0.14761 0.43907 0.5687 0.0
H524 H 0.05837 0.39652 0.68895 0.0
H525 H 0.24477 0.37283 0.55774 0.0
H526 H 0.12388 0.24629 0.54349 0.0
H527 H 0.15753 0.31075 0.38496 0.0
C528 C 0.25632 0.10757 0.22613 0.0
C529 C 0.24568 0.14109 0.2027 0.0
C530 C 0.27602 0.17529 0.27444 0.0
C531 C 0.28563 0.14172 0.30129 0.0
N532 N 0.28299 0.07612 0.30919 0.0
N533 N 0.24293 0.20669 0.21003 0.0
C534 C 0.27526 0.10787 0.27862 0.0
C535 C 0.25491 0.17491 0.22843 0.0
N536 N 0.24865 0.07551 0.19667 0.0
N537 N 0.28771 0.20753 0.29102 0.0
H538 H 0.22773 0.20719 0.17591 0.0
H539 H 0.24663 0.23207 0.23215 0.0
H540 H 0.30288 0.209 0.32496 0.0
H541 H 0.2837 0.23248 0.26764 0.0
H542 H 0.25707 0.05015 0.2062 0.0
H543 H 0.2348 0.07479 0.15868 0.0
H544 H 0.27475 0.05063 0.30008 0.0
H545 H 0.29659 0.07577 0.34783 0.0
C546 C 0.25948 0.83958 0.76701 0.0
C547 C 0.25091 0.87348 0.79392 0.0
C548 C 0.2804 0.90644 0.71915 0.0
C549 C 0.29036 0.87247 0.69606 0.0
N550 N 0.29201 0.80668 0.7044 0.0
N551 N 0.25461 0.93894 0.80193 0.0
C552 C 0.28053 0.83898 0.72164 0.0
C553 C 0.2618 0.90689 0.77161 0.0
N554 N 0.24691 0.80809 0.78354 0.0
N555 N 0.28823 0.93816 0.68901 0.0
H556 H 0.24091 0.93981 0.83991 0.0
H557 H 0.26333 0.9641 0.79311 0.0
H558 H 0.30145 0.93829 0.64989 0.0
H559 H 0.28029 0.9638 0.69869 0.0
H560 H 0.25034 0.78283 0.76066 0.0
H561 H 0.23157 0.80784 0.81679 0.0
H562 H 0.28758 0.78154 0.72634 0.0
H563 H 0.30756 0.80546 0.67197 0.0
C564 C 0.76024 0.82702 0.74942 0.0
C565 C 0.75085 0.86078 0.72335 0.0
C566 C 0.77998 0.89448 0.7992 0.0
C567 C 0.79041 0.86078 0.82234 0.0
N568 N 0.79261 0.79504 0.81549 0.0
N569 N 0.75351 0.92639 0.71645 0.0
C570 C 0.78103 0.82702 0.79641 0.0
C571 C 0.7612 0.89448 0.74657 0.0
N572 N 0.74869 0.79504 0.73044 0.0
N573 N 0.78766 0.92639 0.82927 0.0
H574 H 0.73995 0.92695 0.67771 0.0
H575 H 0.76175 0.95184 0.72599 0.0
H576 H 0.80125 0.92692 0.86794 0.0
H577 H 0.77939 0.95185 0.81977 0.0
H578 H 0.75272 0.7696 0.75189 0.0
H579 H 0.73354 0.79429 0.69624 0.0
H580 H 0.78861 0.76958 0.79411 0.0
H581 H 0.80772 0.79429 0.84985 0.0
C582 C 0.75349 0.16387 0.28897 0.0
C583 C 0.74652 0.13227 0.32669 0.0
C584 C 0.78157 0.09762 0.27407 0.0
C585 C 0.78763 0.12864 0.23385 0.0
N586 N 0.77855 0.19003 0.19745 0.0
N587 N 0.75249 0.06869 0.35368 0.0
C588 C 0.77336 0.16149 0.24001 0.0
C589 C 0.76021 0.09898 0.31868 0.0
N590 N 0.74126 0.1963 0.30104 0.0
N591 N 0.79671 0.0672 0.27024 0.0
H592 H 0.7376 0.06962 0.38831 0.0
H593 H 0.75988 0.04248 0.3467 0.0
H594 H 0.81219 0.06564 0.23756 0.0
H595 H 0.79497 0.04438 0.30146 0.0
H596 H 0.74667 0.22136 0.28047 0.0
H597 H 0.72633 0.19857 0.33525 0.0
H598 H 0.76756 0.21371 0.19381 0.0
H599 H 0.79333 0.18905 0.16247 0.0
C600 C 0.76033 0.66867 0.24424 0.0
C601 C 0.74981 0.635 0.22118 0.0
C602 C 0.7787 0.60124 0.29776 0.0
C603 C 0.79027 0.63475 0.31746 0.0
N604 N 0.79483 0.69982 0.30337 0.0
N605 N 0.75082 0.56915 0.21875 0.0
C606 C 0.78179 0.66835 0.28894 0.0
C607 C 0.7595 0.60121 0.2462 0.0
N608 N 0.74914 0.70092 0.22519 0.0
N609 N 0.78583 0.56959 0.3297 0.0
H610 H 0.73702 0.56858 0.18062 0.0
H611 H 0.75848 0.54348 0.22977 0.0
H612 H 0.79998 0.56905 0.36695 0.0
H613 H 0.77671 0.54452 0.3229 0.0
H614 H 0.75411 0.72637 0.24519 0.0
H615 H 0.73332 0.70193 0.1932 0.0
H616 H 0.79146 0.72478 0.2793 0.0
H617 H 0.81042 0.70027 0.33625 0.0
C618 C 0.77366 0.33775 0.74647 0.0
C619 C 0.78738 0.37083 0.73697 0.0
C620 C 0.75839 0.40242 0.8161 0.0
C621 C 0.7454 0.36894 0.82795 0.0
N622 N 0.74205 0.30388 0.81085 0.0
N623 N 0.79497 0.43363 0.76725 0.0
C624 C 0.75348 0.33633 0.79483 0.0
C625 C 0.78026 0.40295 0.77307 0.0
N626 N 0.77958 0.30801 0.70745 0.0
N627 N 0.74949 0.43374 0.84578 0.0
H628 H 0.81098 0.43448 0.73636 0.0
H629 H 0.79247 0.45733 0.79585 0.0
H630 H 0.734 0.43367 0.87854 0.0
H631 H 0.75636 0.45989 0.83541 0.0
H632 H 0.76899 0.28392 0.7062 0.0
H633 H 0.79446 0.30834 0.67275 0.0
H634 H 0.74831 0.27836 0.79406 0.0
H635 H 0.72699 0.30232 0.84477 0.0
C636 C 0.25599 0.41925 0.72168 0.0
C637 C 0.24544 0.38535 0.69999 0.0
C638 C 0.27692 0.35225 0.77029 0.0
C639 C 0.28653 0.38615 0.79504 0.0
N640 N 0.28399 0.45179 0.80017 0.0
N641 N 0.24415 0.31962 0.70709 0.0
C642 C 0.27574 0.41967 0.77207 0.0
C643 C 0.25553 0.35185 0.72526 0.0
N644 N 0.24744 0.45094 0.69249 0.0
N645 N 0.28882 0.32042 0.78878 0.0
H646 H 0.22918 0.3185 0.67246 0.0
H647 H 0.24842 0.29432 0.72881 0.0
H648 H 0.30401 0.3199 0.82277 0.0
H649 H 0.28484 0.29489 0.76765 0.0
H650 H 0.25555 0.47659 0.70078 0.0
H651 H 0.23299 0.45106 0.65615 0.0
H652 H 0.27561 0.47721 0.79102 0.0
H653 H 0.29854 0.45261 0.83627 0.0
C654 C 0.25973 0.67847 0.27915 0.0
C655 C 0.24956 0.64361 0.29639 0.0
C656 C 0.27732 0.61453 0.21147 0.0
C657 C 0.28872 0.64896 0.19754 0.0
N658 N 0.29221 0.71351 0.2203 0.0
N659 N 0.25019 0.57808 0.28494 0.0
C660 C 0.28021 0.68093 0.23191 0.0
C661 C 0.25877 0.61152 0.2639 0.0
N662 N 0.24919 0.70931 0.30666 0.0
N663 N 0.28379 0.58498 0.17267 0.0
H664 H 0.23676 0.57531 0.32327 0.0
H665 H 0.25756 0.55316 0.26828 0.0
H666 H 0.2969 0.58693 0.13346 0.0
H667 H 0.27487 0.55956 0.17536 0.0
H668 H 0.25368 0.73591 0.29182 0.0
H669 H 0.23453 0.7083 0.34187 0.0
H670 H 0.28911 0.73727 0.24834 0.0
H671 H 0.30655 0.71633 0.18451 0.0
C672 C 1.0019 0.11882 0.04142 0.0
C673 C 0.98882 0.14246 0.08627 0.0
C674 C 0.02945 0.1695 0.123 0.0
C675 C 0.04259 0.14306 0.08387 0.0
N676 N 0.04243 0.09881 0.99443 0.0
N677 N 0.98874 0.19598 0.15631 0.0
C678 C 0.02902 0.12006 0.03857 0.0
C679 C 1.00229 0.17009 0.12191 0.0
N680 N 0.98827 0.09381 1.00496 0.0
N681 N 0.04309 0.19234 0.16409 0.0
H682 H 0.96889 0.1963 0.15546 0.0
H683 H 0.99681 0.21827 0.18131 0.0
H684 H 0.06291 0.19284 0.16355 0.0
H685 H 0.03508 0.21012 0.19926 0.0
H686 H 0.99625 0.07304 0.97581 0.0
H687 H 0.96846 0.09393 1.00482 0.0
H688 H 0.03422 0.08233 0.95732 0.0
H689 H 0.06224 0.09976 0.99237 0.0
C690 C 0.53259 0.84384 0.64737 0.0
C691 C 0.54757 0.87104 0.61551 0.0
C692 C 0.50892 0.89803 0.56568 0.0
C693 C 0.49385 0.87457 0.60614 0.0
N694 N 0.49066 0.82497 0.68538 0.0
N695 N 0.55071 0.92407 0.54415 0.0
C696 C 0.50553 0.84683 0.6459 0.0
C697 C 0.53594 0.89772 0.57329 0.0
N698 N 0.54455 0.81558 0.67991 0.0
N699 N 0.49705 0.92108 0.52111 0.0
H700 H 0.57048 0.92399 0.54849 0.0
H701 H 0.54351 0.94674 0.51836 0.0
H702 H 0.4773 0.92154 0.51567 0.0
H703 H 0.50657 0.9374 0.48627 0.0
H704 H 0.53514 0.79315 0.70052 0.0
H705 H 0.56434 0.81335 0.68148 0.0
H706 H 0.49776 0.80674 0.72137 0.0
H707 H 0.47087 0.82632 0.68389 0.0
C708 C 1.00752 0.84296 0.87476 0.0
C709 C 0.99447 0.87188 0.90776 0.0
C710 C 0.03525 0.90006 0.93977 0.0
C711 C 0.04823 0.87243 0.90305 0.0
N712 N 0.04804 0.81407 0.84742 0.0
N713 N 0.99497 0.92377 0.98215 0.0
C714 C 0.03466 0.84247 0.87498 0.0
C715 C 1.00818 0.89888 0.94439 0.0
N716 N 0.99373 0.81727 0.84018 0.0
N717 N 0.04893 0.9284 0.96673 0.0
H718 H 0.97517 0.92329 0.98507 0.0
H719 H 1.0034 0.94316 0.01371 0.0
H720 H 0.06875 0.92901 0.9652 0.0
H721 H 0.04092 0.95159 0.98875 0.0
H722 H 1.00164 0.79723 0.80921 0.0
H723 H 0.97391 0.81683 0.84107 0.0
H724 H 0.03982 0.79001 0.82932 0.0
H725 H 0.06788 0.81373 0.84707 0.0
C726 C 0.52745 0.12416 0.47481 0.0
C727 C 0.54317 0.13873 0.42339 0.0
C728 C 0.50537 0.16526 0.36876 0.0
C729 C 0.48957 0.14429 0.41193 0.0
N730 N 0.4855 0.10238 0.50536 0.0
N731 N 0.54734 0.17298 0.32009 0.0
C732 C 0.50054 0.12401 0.46592 0.0
C733 C 0.53226 0.16003 0.3707 0.0
N734 N 0.53857 0.10981 0.53149 0.0
N735 N 0.49436 0.18969 0.3252 0.0
H736 H 0.56699 0.16946 0.32018 0.0
H737 H 0.54029 0.18529 0.27627 0.0
H738 H 0.47471 0.19382 0.32379 0.0
H739 H 0.50463 0.208 0.29559 0.0
H740 H 0.52838 0.10121 0.57364 0.0
H741 H 0.55827 0.10992 0.53848 0.0
H742 H 0.49263 0.08368 0.54051 0.0
H743 H 0.46581 0.10138 0.49987 0.0
C744 C 0.50602 0.62309 0.0665 0.0
C745 C 0.49304 0.64567 0.11338 0.0
C746 C 0.53374 0.66549 0.16256 0.0
C747 C 0.54658 0.64076 0.1192 0.0
N748 N 0.54652 0.60224 0.02098 0.0
N749 N 0.49367 0.69395 0.19543 0.0
C750 C 0.53313 0.62189 0.06762 0.0
C751 C 0.50679 0.66908 0.15746 0.0
N752 N 0.49218 0.60117 0.02408 0.0
N753 N 0.54739 0.68386 0.21079 0.0
H754 H 0.47393 0.69645 0.19193 0.0
H755 H 0.50217 0.71355 0.22642 0.0
H756 H 0.56716 0.68209 0.21381 0.0
H757 H 0.53935 0.6999 0.24863 0.0
H758 H 0.49999 0.58105 0.99309 0.0
H759 H 0.4724 0.60262 0.02147 0.0
H760 H 0.53839 0.58934 0.97917 0.0
H761 H 0.56633 0.60111 0.02184 0.0
C762 C 0.03048 0.33312 0.58881 0.0
C763 C 0.04274 0.36568 0.56719 0.0
C764 C 1.00106 0.39432 0.54584 0.0
C765 C 0.98882 0.36318 0.57377 0.0
N766 N 0.99068 0.30022 0.60758 0.0
N767 N 0.04048 0.42299 0.50878 0.0
C768 C 1.00327 0.3314 0.58944 0.0
C769 C 0.02811 0.39466 0.53932 0.0
N770 N 0.0451 0.30493 0.61267 0.0
N771 N 0.98676 0.42446 0.53032 0.0
H772 H 0.06021 0.42303 0.50403 0.0
H773 H 0.03141 0.44448 0.4837 0.0
H774 H 0.96702 0.4243 0.53435 0.0
H775 H 0.99425 0.44968 0.51591 0.0
H776 H 0.03791 0.28136 0.63517 0.0
H777 H 0.06492 0.30573 0.61067 0.0
H778 H 0.9995 0.27515 0.61701 0.0
H779 H 0.97086 0.29913 0.60873 0.0
C780 C 0.50197 0.40691 0.97306 0.0
C781 C 0.48784 0.37643 0.949 0.0
C782 C 0.52754 0.34047 0.94137 0.0
C783 C 0.54186 0.37263 0.95476 0.0
N784 N 0.54357 0.43525 0.99064 0.0
N785 N 0.48613 0.31326 0.91606 0.0
C786 C 0.5292 0.40531 0.97442 0.0
C787 C 0.50036 0.34258 0.93653 0.0
N788 N 0.48904 0.4377 0.99222 0.0
N789 N 0.54032 0.30833 0.93101 0.0
H790 H 0.46632 0.3144 0.91384 0.0
H791 H 0.49363 0.28822 0.90057 0.0
H792 H 0.56011 0.30686 0.93417 0.0
H793 H 0.53162 0.28304 0.92347 0.0
H794 H 0.49749 0.46107 0.01241 0.0
H795 H 0.4692 0.43887 0.99102 0.0
H796 H 0.53627 0.46121 1.00071 0.0
H797 H 0.56335 0.43376 0.99367 0.0
C798 C 1.00563 0.65266 0.43439 0.0
C799 C 0.99364 0.61794 0.4279 0.0
C800 C 0.0355 0.58799 0.42093 0.0
C801 C 0.04734 0.62282 0.42295 0.0
N802 N 0.04501 0.68635 0.45293 0.0
N803 N 0.99678 0.55244 0.43584 0.0
C804 C 0.03269 0.65442 0.43784 0.0
C805 C 1.00862 0.58551 0.42882 0.0
N806 N 0.99139 0.68398 0.43156 0.0
N807 N 0.0498 0.55772 0.40685 0.0
H808 H 0.97713 0.55052 0.44211 0.0
H809 H 1.00644 0.52765 0.44159 0.0
H810 H 0.06947 0.55918 0.40205 0.0
H811 H 0.04219 0.53186 0.39719 0.0
H812 H 0.9992 0.71017 0.42833 0.0
H813 H 0.97164 0.68379 0.42834 0.0
H814 H 0.0358 0.71003 0.4694 0.0
H815 H 0.06483 0.68774 0.45501 0.0
C816 C 0.13166 0.02958 0.98932 0.0
C817 C 0.15278 0.04056 0.03001 0.0
C818 C 0.17706 0.98735 0.9882 0.0
C819 C 0.15537 0.97511 0.95138 0.0
N820 N 0.11102 0.98191 0.92341 0.0
N821 N 0.19481 0.0285 0.07334 0.0
C822 C 0.13246 0.99565 0.9534 0.0
C823 C 0.17523 0.01887 0.0312 0.0
N824 N 0.11078 0.05185 0.98437 0.0
N825 N 0.19967 0.96937 0.98001 0.0
H826 H 0.19439 0.05194 0.1036 0.0
H827 H 0.21074 0.01217 0.08206 0.0
H828 H 0.20165 0.94692 0.94767 0.0
H829 H 0.21688 0.97834 1.00017 0.0
H830 H 0.09641 0.04829 0.94855 0.0
H831 H 0.10829 0.0752 0.01399 0.0
H832 H 0.09289 0.9926 0.93075 0.0
H833 H 0.11113 0.95825 0.89397 0.0
C834 C 0.36018 0.99514 0.52811 0.0
C835 C 0.38301 0.97421 0.52957 0.0
C836 C 0.40386 0.02089 0.45848 0.0
C837 C 0.38072 0.04095 0.45416 0.0
N838 N 0.33599 0.04518 0.4769 0.0
N839 N 0.42587 0.96487 0.48991 0.0
C840 C 0.35863 0.02745 0.4869 0.0
C841 C 0.40456 0.98639 0.49261 0.0
N842 N 0.33999 0.98414 0.56633 0.0
N843 N 0.4256 0.03573 0.43285 0.0
H844 H 0.42825 0.94116 0.51872 0.0
H845 H 0.44078 0.96941 0.45652 0.0
H846 H 0.42565 0.05984 0.40488 0.0
H847 H 0.44374 0.02548 0.44254 0.0
H848 H 0.32366 0.99977 0.57348 0.0
H849 H 0.34017 0.96004 0.59473 0.0
H850 H 0.31857 0.03544 0.4938 0.0
H851 H 0.3343 0.06849 0.44651 0.0
C852 C 0.86321 0.97462 0.02403 0.0
C853 C 0.88182 0.96758 0.9734 0.0
C854 C 0.90327 0.0253 1.00378 0.0
C855 C 0.88398 0.03342 0.05171 0.0
N856 N 0.8439 0.01784 0.10243 0.0
N857 N 0.91687 0.98966 0.90681 0.0
C858 C 0.86354 0.00851 0.06074 0.0
C859 C 0.90091 0.99411 0.9605 0.0
N860 N 0.84514 0.94869 0.03707 0.0
N861 N 0.92471 0.0464 1.00232 0.0
H862 H 0.91602 0.96715 0.87452 0.0
H863 H 0.92934 0.00988 0.89025 0.0
H864 H 0.92754 0.06848 0.03499 0.0
H865 H 0.94076 0.03979 0.97425 0.0
H866 H 0.83327 0.94931 0.07902 0.0
H867 H 0.84251 0.92564 1.00659 0.0
H868 H 0.82688 1.00341 0.10497 0.0
H869 H 0.84397 0.04141 0.1323 0.0
C870 C 0.63681 0.02519 0.54502 0.0
C871 C 0.65597 0.03404 0.49661 0.0
C872 C 0.67815 0.97635 0.52525 0.0
C873 C 0.65789 0.96631 0.56884 0.0
N874 N 0.61598 0.9785 0.61175 0.0
N875 N 0.69404 0.01676 0.43709 0.0
C876 C 0.63683 0.99014 0.57683 0.0
C877 C 0.67633 0.00909 0.4854 0.0
N878 N 0.61844 0.05022 0.56148 0.0
N879 N 0.69961 0.95513 0.52411 0.0
H880 H 0.69425 0.04124 0.40987 0.0
H881 H 0.7077 0.99807 0.42089 0.0
H882 H 0.7017 0.93164 0.5538 0.0
H883 H 0.71616 0.96232 0.49881 0.0
H884 H 0.60674 0.04753 0.60355 0.0
H885 H 0.6155 0.07481 0.53606 0.0
H886 H 0.5985 0.99197 0.61073 0.0
H887 H 0.61546 0.95377 0.63789 0.0
C888 C 0.63114 0.52431 0.01822 0.0
C889 C 0.65298 0.53391 0.05757 0.0
C890 C 0.67496 0.47879 0.0155 0.0
C891 C 0.6525 0.46784 0.98066 0.0
N892 N 0.60847 0.47802 0.95317 0.0
N893 N 0.69503 0.51921 0.09803 0.0
C894 C 0.63046 0.4902 0.98272 0.0
C895 C 0.67468 0.5107 0.05769 0.0
N896 N 0.61097 0.54795 0.0145 0.0
N897 N 0.69682 0.45917 1.00608 0.0
H898 H 0.69588 0.543 0.1273 0.0
H899 H 0.71041 0.50175 0.10617 0.0
H900 H 0.69767 0.43651 0.97391 0.0
H901 H 0.71454 0.46699 0.02471 0.0
H902 H 0.59615 0.54533 0.97974 0.0
H903 H 0.60947 0.57141 0.04428 0.0
H904 H 0.5908 0.49029 0.96014 0.0
H905 H 0.60759 0.45421 0.92398 0.0
C906 C 0.86426 0.48737 0.55649 0.0
C907 C 0.88408 0.46149 0.54527 0.0
C908 C 0.9023 0.50258 0.45851 0.0
C909 C 0.88194 0.52758 0.46781 0.0
N910 N 0.84083 0.54043 0.51467 0.0
N911 N 0.91993 0.44215 0.47774 0.0
C912 C 0.86217 0.51896 0.51385 0.0
C913 C 0.90235 0.46836 0.49363 0.0
N914 N 0.84732 0.48183 0.60771 0.0
N915 N 0.92241 0.51233 0.41893 0.0
H916 H 0.92253 0.41831 0.50579 0.0
H917 H 0.9312 0.44314 0.4346 0.0
H918 H 0.9226 0.53616 0.38995 0.0
H919 H 0.93955 0.49801 0.41783 0.0
H920 H 0.83434 0.50158 0.62365 0.0
H921 H 0.84718 0.45834 0.6377 0.0
H922 H 0.82453 0.5341 0.54186 0.0
H923 H 0.83845 0.56284 0.48241 0.0
C924 C 0.35886 0.49446 1.00004 0.0
C925 C 0.38095 0.48221 0.96525 0.0
C926 C 0.40535 0.53292 0.01609 0.0
C927 C 0.383 0.54633 0.04817 0.0
N928 N 0.33784 0.54261 0.06452 0.0
N929 N 0.42432 0.49228 0.93256 0.0
C930 C 0.35958 0.52769 0.03871 0.0
C931 C 0.4039 0.50233 0.97091 0.0
N932 N 0.33715 0.47399 0.99638 0.0
N933 N 0.42823 0.54883 0.0308 0.0
H934 H 0.42387 0.47 0.89949 0.0
H935 H 0.44094 0.50757 0.92888 0.0
H936 H 0.42998 0.57089 0.06395 0.0
H937 H 0.44568 0.53842 0.01533 0.0
H938 H 0.32136 0.4783 0.02689 0.0
H939 H 0.33526 0.45165 0.96378 0.0
H940 H 0.31966 0.53318 0.05308 0.0
H941 H 0.33794 0.56593 0.09513 0.0
C942 C 0.13117 0.51875 0.45229 0.0
C943 C 0.1517 0.54328 0.46379 0.0
C944 C 0.16905 0.5005 0.54999 0.0
C945 C 0.14756 0.47747 0.5416 0.0
N946 N 0.10559 0.46872 0.49571 0.0
N947 N 0.18928 0.55901 0.52823 0.0
C948 C 0.12794 0.4878 0.49568 0.0
C949 C 0.17024 0.53466 0.51444 0.0
N950 N 0.11474 0.52468 0.39963 0.0
N951 N 0.18904 0.48883 0.58894 0.0
H952 H 0.19264 0.58205 0.49862 0.0
H953 H 0.20115 0.55714 0.57045 0.0
H954 H 0.18861 0.46464 0.61701 0.0
H955 H 0.20664 0.50183 0.59031 0.0
H956 H 0.10141 0.50539 0.38358 0.0
H957 H 0.11555 0.54766 0.3684 0.0
H958 H 0.08947 0.47691 0.46887 0.0
H959 H 0.10234 0.44684 0.52856 0.0
C960 C 0.15425 0.3221 0.83648 0.0
C961 C 0.16001 0.30381 0.77445 0.0
C962 C 0.16769 0.24726 0.8389 0.0
C963 C 0.15751 0.26347 0.89807 0.0
N964 N 0.13783 0.31596 0.95065 0.0
N965 N 0.16482 0.24516 0.71753 0.0
C966 C 0.1499 0.30088 0.89632 0.0
C967 C 0.16479 0.26533 0.77588 0.0
N968 N 0.15406 0.35955 0.83959 0.0
N969 N 0.18017 0.2144 0.84274 0.0
H970 H 0.16002 0.25604 0.67044 0.0
H971 H 0.16618 0.21659 0.71731 0.0
H972 H 0.18338 0.20084 0.88856 0.0
H973 H 0.18973 0.20296 0.80168 0.0
H974 H 0.15226 0.37396 0.88489 0.0
H975 H 0.15844 0.37624 0.79854 0.0
H976 H 0.12942 0.34188 0.94933 0.0
H977 H 0.13451 0.30142 0.99518 0.0
C978 C 0.40652 0.71121 0.4268 0.0
C979 C 0.38732 0.7385 0.43185 0.0
C980 C 0.36735 0.7155 0.3273 0.0
C981 C 0.38595 0.68713 0.32319 0.0
N982 N 0.42216 0.65588 0.37199 0.0
N983 N 0.34707 0.76288 0.39466 0.0
C984 C 0.40509 0.6842 0.37426 0.0
C985 C 0.36703 0.73945 0.38436 0.0
N986 N 0.42665 0.71209 0.47086 0.0
N987 N 0.35022 0.72024 0.27587 0.0
H988 H 0.34634 0.78128 0.43509 0.0
H989 H 0.33024 0.76206 0.36674 0.0
H990 H 0.34831 0.702 0.23572 0.0
H991 H 0.33901 0.74365 0.27055 0.0
H992 H 0.44292 0.69606 0.46579 0.0
H993 H 0.4277 0.73045 0.51133 0.0
H994 H 0.43457 0.64938 0.41139 0.0
H995 H 0.42331 0.63757 0.33158 0.0
C996 C 0.14254 0.71376 0.07968 0.0
C997 C 0.16079 0.74214 0.07298 0.0
C998 C 0.178 0.72785 0.18548 0.0
C999 C 0.15818 0.70199 0.19486 0.0
N1000 N 0.12821 0.66063 0.14332 0.0
N1001 N 0.19993 0.76983 0.10992 0.0
C1002 C 0.1426 0.69168 0.13929 0.0
C1003 C 0.18001 0.74685 0.12277 0.0
N1004 N 0.1245 0.70914 0.03043 0.0
N1005 N 0.19449 0.73466 0.23751 0.0
H1006 H 0.20169 0.78407 0.06437 0.0
H1007 H 0.21564 0.77286 0.14159 0.0
H1008 H 0.1949 0.71837 0.28074 0.0
H1009 H 0.20749 0.75614 0.23841 0.0
H1010 H 0.10879 0.69204 0.03555 0.0
H1011 H 0.12473 0.72385 0.9851 0.0
H1012 H 0.11762 0.65015 0.10309 0.0
H1013 H 0.12928 0.64297 0.18471 0.0
C1014 C 0.38191 0.32507 0.66678 0.0
C1015 C 0.37473 0.30798 0.72882 0.0
C1016 C 0.36697 0.25095 0.66601 0.0
C1017 C 0.3784 0.26574 0.60728 0.0
N1018 N 0.40073 0.31634 0.55591 0.0
N1019 N 0.36869 0.25005 0.78741 0.0
C1020 C 0.38701 0.30273 0.60867 0.0
C1021 C 0.36957 0.26961 0.72847 0.0
N1022 N 0.38271 0.36243 0.66172 0.0
N1023 N 0.35332 0.21912 0.66236 0.0
H1024 H 0.37338 0.26123 0.83434 0.0
H1025 H 0.36684 0.22155 0.78835 0.0
H1026 H 0.34987 0.20547 0.61676 0.0
H1027 H 0.34303 0.20894 0.70322 0.0
H1028 H 0.38561 0.37597 0.61594 0.0
H1029 H 0.37769 0.37995 0.7011 0.0
H1030 H 0.4096 0.34189 0.5575 0.0
H1031 H 0.40511 0.3008 0.51319 0.0
C1032 C 0.88818 0.73594 0.23509 0.0
C1033 C 0.89754 0.69934 0.23271 0.0
C1034 C 0.90188 0.70521 0.10883 0.0
C1035 C 0.89088 0.74083 0.11164 0.0
N1036 N 0.86565 0.78393 0.17497 0.0
N1037 N 0.90827 0.64652 0.16479 0.0
C1038 C 0.8813 0.75397 0.17404 0.0
C1039 C 0.90255 0.68301 0.16863 0.0
N1040 N 0.88708 0.75453 0.29498 0.0
N1041 N 0.91294 0.6933 0.05043 0.0
H1042 H 0.90943 0.62978 0.20738 0.0
H1043 H 0.9097 0.63235 0.11916 0.0
H1044 H 0.91287 0.70869 1.00596 0.0
H1045 H 0.92378 0.6694 0.04747 0.0
H1046 H 0.88243 0.78231 0.29815 0.0
H1047 H 0.89386 0.74372 0.34022 0.0
H1048 H 0.85638 0.7928 0.21852 0.0
H1049 H 0.85975 0.79723 0.13076 0.0
C1050 C 0.64533 0.29137 0.63025 0.0
C1051 C 0.65138 0.25339 0.62868 0.0
C1052 C 0.65888 0.25455 0.75081 0.0
C1053 C 0.65608 0.2934 0.75181 0.0
N1054 N 0.65261 0.34953 0.68644 0.0
N1055 N 0.67214 0.20244 0.68454 0.0
C1056 C 0.65094 0.31216 0.68982 0.0
C1057 C 0.66086 0.2362 0.68802 0.0
N1058 N 0.63363 0.30745 0.57599 0.0
N1059 N 0.65812 0.23455 0.80928 0.0
H1060 H 0.67507 0.1887 0.63886 0.0
H1061 H 0.68118 0.19028 0.72599 0.0
H1062 H 0.65409 0.24601 0.85629 0.0
H1063 H 0.65807 0.20592 0.80961 0.0
H1064 H 0.62647 0.33414 0.57727 0.0
H1065 H 0.62914 0.29309 0.53185 0.0
H1066 H 0.65129 0.36398 0.64104 0.0
H1067 H 0.65812 0.36582 0.72726 0.0
C1068 C 0.90946 0.25689 0.88962 0.0
C1069 C 0.89203 0.2644 0.94262 0.0
C1070 C 0.87498 0.31679 0.87779 0.0
C1071 C 0.8898 0.3058 0.82165 0.0
N1072 N 0.92777 0.27642 0.78287 0.0
N1073 N 0.8593 0.30239 0.99054 0.0
C1074 C 0.90913 0.27915 0.83038 0.0
C1075 C 0.87539 0.29511 0.93812 0.0
N1076 N 0.92526 0.22713 0.89426 0.0
N1077 N 0.86134 0.34862 0.87385 0.0
H1078 H 0.86012 0.28804 0.03623 0.0
H1079 H 0.84471 0.32166 0.98855 0.0
H1080 H 0.86288 0.36627 0.83258 0.0
H1081 H 0.85084 0.35963 0.91343 0.0
H1082 H 0.93608 0.21729 0.85419 0.0
H1083 H 0.92667 0.21089 0.93758 0.0
H1084 H 0.94366 0.25953 0.78751 0.0
H1085 H 0.92882 0.29475 0.74252 0.0
C1086 C 0.67008 0.72877 0.4012 0.0
C1087 C 0.64863 0.73247 0.44399 0.0
C1088 C 0.62353 0.69332 0.36699 0.0
C1089 C 0.64408 0.69299 0.32057 0.0
N1090 N 0.68883 0.7027 0.30016 0.0
N1091 N 0.60539 0.71763 0.47103 0.0
C1092 C 0.66802 0.70803 0.34006 0.0
C1093 C 0.62561 0.71394 0.42832 0.0
N1094 N 0.69186 0.74759 0.41658 0.0
N1095 N 0.60238 0.67275 0.35313 0.0
H1096 H 0.6069 0.7307 0.51791 0.0
H1097 H 0.58703 0.70888 0.45989 0.0
H1098 H 0.60071 0.65645 0.30989 0.0
H1099 H 0.58731 0.66925 0.3863 0.0
H1100 H 0.70707 0.75075 0.38367 0.0
H1101 H 0.69442 0.76179 0.46194 0.0
H1102 H 0.70735 0.70844 0.31541 0.0
H1103 H 0.68802 0.69021 0.25301 0.0
C1104 C 0.62808 0.78764 0.93286 0.0
C1105 C 0.65019 0.76646 0.94547 0.0
C1106 C 0.6688 0.78857 0.83923 0.0
C1107 C 0.64501 0.80469 0.82107 0.0
N1108 N 0.60237 0.82205 0.85238 0.0
N1109 N 0.69166 0.74579 0.91161 0.0
C1110 C 0.62482 0.8052 0.86879 0.0
C1111 C 0.6708 0.76735 0.89962 0.0
N1112 N 0.6103 0.79087 0.98273 0.0
N1113 N 0.68951 0.79296 0.79872 0.0
H1114 H 0.69431 0.73116 0.95647 0.0
H1115 H 0.70572 0.74071 0.87591 0.0
H1116 H 0.68886 0.80563 0.75172 0.0
H1117 H 0.7079 0.78639 0.81411 0.0
H1118 H 0.59455 0.80809 0.97997 0.0
H1119 H 0.61254 0.77836 0.02994 0.0
H1120 H 0.58583 0.81967 0.88061 0.0
H1121 H 0.59997 0.83781 0.80881 0.0
C1122 C 0.87477 0.18027 0.37712 0.0
C1123 C 0.88939 0.1918 0.32098 0.0
C1124 C 0.90838 0.24105 0.38919 0.0
C1125 C 0.89134 0.23273 0.44263 0.0
N1126 N 0.85959 0.19336 0.49102 0.0
N1127 N 0.92728 0.22158 0.28321 0.0
C1128 C 0.87517 0.20156 0.43799 0.0
C1129 C 0.90842 0.21875 0.33005 0.0
N1130 N 0.86141 0.14826 0.37265 0.0
N1131 N 0.92341 0.2716 0.39311 0.0
H1132 H 0.92881 0.20291 0.24351 0.0
H1133 H 0.94301 0.23868 0.28846 0.0
H1134 H 0.92444 0.28825 0.43596 0.0
H1135 H 0.93375 0.28178 0.35249 0.0
H1136 H 0.8509 0.13698 0.41187 0.0
H1137 H 0.86311 0.13079 0.33114 0.0
H1138 H 0.8454 0.17354 0.48944 0.0
H1139 H 0.86049 0.20738 0.53706 0.0
C1140 C 0.65941 0.18106 0.16431 0.0
C1141 C 0.645 0.18733 0.22371 0.0
C1142 C 0.619 0.23242 0.16199 0.0
C1143 C 0.63673 0.23158 0.10823 0.0
N1144 N 0.67346 0.20451 0.05578 0.0
N1145 N 0.61059 0.21856 0.27995 0.0
C1146 C 0.65654 0.20512 0.10799 0.0
C1147 C 0.62419 0.21222 0.22235 0.0
N1148 N 0.67587 0.15203 0.16226 0.0
N1149 N 0.59746 0.25312 0.15532 0.0
H1150 H 0.61362 0.20411 0.32478 0.0
H1151 H 0.59718 0.23943 0.28461 0.0
H1152 H 0.59348 0.26816 0.11153 0.0
H1153 H 0.5826 0.25272 0.18989 0.0
H1154 H 0.68553 0.14394 0.11888 0.0
H1155 H 0.67794 0.1338 0.20268 0.0
H1156 H 0.69019 0.1892 0.05636 0.0
H1157 H 0.67133 0.22079 0.01268 0.0
C1158 C 0.87127 0.76116 0.6507 0.0
C1159 C 0.89198 0.75904 0.6052 0.0
C1160 C 0.91695 0.80028 0.67848 0.0
C1161 C 0.89649 0.80151 0.72534 0.0
N1162 N 0.85205 0.79018 0.74798 0.0
N1163 N 0.93221 0.78194 0.56717 0.0
C1164 C 0.87292 0.78448 0.70857 0.0
C1165 C 0.9141 0.78045 0.61646 0.0
N1166 N 0.85057 0.73904 0.64085 0.0
N1167 N 0.93922 0.81783 0.69378 0.0
H1168 H 0.93042 0.76777 0.52145 0.0
H1169 H 0.94794 0.79919 0.56874 0.0
H1170 H 0.94123 0.8353 0.73532 0.0
H1171 H 0.95597 0.81445 0.66677 0.0
H1172 H 0.83644 0.73514 0.67679 0.0
H1173 H 0.84819 0.72264 0.59801 0.0
H1174 H 0.83375 0.78275 0.73324 0.0
H1175 H 0.85248 0.80485 0.79302 0.0
C1176 C 0.36876 0.2206 0.08676 0.0
C1177 C 0.38938 0.24556 0.08577 0.0
C1178 C 0.40193 0.22689 0.20051 0.0
C1179 C 0.38057 0.20305 0.20275 0.0
N1180 N 0.34845 0.16902 0.14224 0.0
N1181 N 0.42951 0.26502 0.13157 0.0
C1182 C 0.36557 0.19721 0.14374 0.0
C1183 C 0.40741 0.24589 0.13928 0.0
N1184 N 0.35151 0.22067 0.03478 0.0
N1185 N 0.41584 0.23358 0.25788 0.0
H1186 H 0.43371 0.27928 0.08718 0.0
H1187 H 0.44457 0.26392 0.16594 0.0
H1188 H 0.41247 0.22063 0.30394 0.0
H1189 H 0.4297 0.25387 0.26129 0.0
H1190 H 0.33428 0.20668 0.03623 0.0
H1191 H 0.35396 0.23628 0.99103 0.0
H1192 H 0.33842 0.16125 0.09899 0.0
H1193 H 0.34609 0.15104 0.18281 0.0
C1194 C 0.14514 0.82613 0.64237 0.0
C1195 C 0.14727 0.8073 0.70538 0.0
C1196 C 0.16198 0.75237 0.64493 0.0
C1197 C 0.15548 0.76889 0.58239 0.0
N1198 N 0.14004 0.8211 0.52014 0.0
N1199 N 0.15455 0.75008 0.76508 0.0
C1200 C 0.14715 0.8059 0.58055 0.0
C1201 C 0.15496 0.7698 0.7063 0.0
N1202 N 0.14076 0.8631 0.64146 0.0
N1203 N 0.17483 0.71972 0.64543 0.0
H1204 H 0.14904 0.76102 0.81126 0.0
H1205 H 0.15728 0.72176 0.76695 0.0
H1206 H 0.18032 0.70638 0.60106 0.0
H1207 H 0.18237 0.70799 0.68926 0.0
H1208 H 0.14161 0.87895 0.59768 0.0
H1209 H 0.13802 0.87851 0.68523 0.0
H1210 H 0.1309 0.84637 0.51586 0.0
H1211 H 0.14212 0.80734 0.47416 0.0
C1212 C 0.41783 0.81789 0.84605 0.0
C1213 C 0.39696 0.81862 0.79985 0.0
C1214 C 0.3719 0.78082 0.87859 0.0
C1215 C 0.3932 0.77846 0.92269 0.0
N1216 N 0.43427 0.80032 0.95714 0.0
N1217 N 0.35212 0.80817 0.77988 0.0
C1218 C 0.41548 0.79898 0.90914 0.0
C1219 C 0.37329 0.80276 0.81891 0.0
N1220 N 0.44002 0.83498 0.82895 0.0
N1221 N 0.35081 0.76008 0.89162 0.0
H1222 H 0.35236 0.82162 0.73367 0.0
H1223 H 0.33383 0.80171 0.79563 0.0
H1224 H 0.34861 0.74504 0.93612 0.0
H1225 H 0.33605 0.75607 0.85714 0.0
H1226 H 0.45702 0.83207 0.85554 0.0
H1227 H 0.44164 0.85185 0.78652 0.0
H1228 H 0.45039 0.8167 0.95377 0.0
H1229 H 0.43279 0.78681 1.00354 0.0
C1230 C 0.15992 0.21247 0.31383 0.0
C1231 C 0.13597 0.2029 0.28499 0.0
C1232 C 0.11441 0.235 0.37819 0.0
C1233 C 0.13835 0.24383 0.40739 0.0
N1234 N 0.18315 0.23115 0.41454 0.0
N1235 N 0.09098 0.19486 0.30239 0.0
C1236 C 0.16082 0.22896 0.37913 0.0
C1237 C 0.11336 0.21093 0.32132 0.0
N1238 N 0.18172 0.20873 0.27727 0.0
N1239 N 0.09276 0.25101 0.40221 0.0
H1240 H 0.08984 0.17572 0.26317 0.0
H1241 H 0.0743 0.19727 0.33026 0.0
H1242 H 0.09261 0.26854 0.44393 0.0
H1243 H 0.07523 0.24892 0.37773 0.0
H1244 H 0.1992 0.21901 0.29338 0.0
H1245 H 0.18206 0.19882 0.22798 0.0
H1246 H 0.19975 0.2179 0.39951 0.0
H1247 H 0.18425 0.24302 0.46259 0.0
loop_
_geom_bond_atom_site_label_1
_geom_bond_atom_site_label_2
_geom_bond_distance
_geom_bond_site_symmetry_2
_ccdc_geom_bond_type
Co0 N4 2.148 . S
Co0 N10 2.128 . S
Co0 N20 2.194 . S
Co0 O25 2.351 . S
Co0 O26 2.155 . S
Co0 O27 2.096 . S
C1 N4 1.301 . S
C1 N5 1.328 . S
C1 H6 0.930 . S
C2 C3 1.333 . S
C2 N4 1.317 . S
C2 H7 0.930 . S
C3 C2 1.333 . S
C3 N5 1.350 . S
C3 H29 0.931 . S
N4 Co0 2.148 . S
N4 C1 1.301 . S
N4 C2 1.317 . S
N5 C1 1.328 . S
N5 C3 1.350 . S
H6 C1 0.930 . S
H7 C2 0.930 . S
C8 O9 1.224 . S
C8 O27 1.247 . S
O9 C8 1.224 . S
N10 Co0 2.128 . S
N10 C11 1.355 . S
N10 C13 1.311 . S
C11 N10 1.355 . S
C11 C12 1.363 . S
C11 H23 0.929 . S
C12 C11 1.363 . S
C12 N14 1.375 . S
C12 H30 0.931 . S
C13 N10 1.311 . S
C13 N14 1.347 . S
C13 H24 0.929 . S
N14 C12 1.375 . S
N14 C13 1.347 . S
C15 C18 1.365 . S
C15 N20 1.328 1_556 S
C15 H21 0.929 . S
C16 C17 1.362 . S
C16 C19 1.378 1_556 S
C16 H31 0.929 . S
C17 C16 1.362 . S
C17 C18 1.366 . S
C18 C15 1.365 . S
C18 C17 1.366 . S
C18 H32 0.930 . S
C19 C16 1.378 1_554 S
C19 N20 1.315 . S
C19 H22 0.930 . S
N20 Co0 2.194 . S
N20 C15 1.328 1_554 S
N20 C19 1.315 . S
H21 C15 0.929 . S
H22 C19 0.930 . S
H23 C11 0.929 . S
H24 C13 0.929 . S
O25 Co0 2.351 . S
O25 C28 1.244 . S
O26 Co0 2.155 . S
O26 C28 1.240 . S
O27 Co0 2.096 . S
O27 C8 1.247 . S
C28 O25 1.244 . S
C28 O26 1.240 . S
H29 C3 0.931 . S
H30 C12 0.931 . S
H31 C16 0.929 . S
H32 C18 0.930 . S
Co33 N37 2.148 . S
Co33 N43 2.128 . S
Co33 N53 2.194 . S
Co33 O58 2.351 . S
Co33 O59 2.155 . S
Co33 O60 2.096 . S
C34 N37 1.301 . S
C34 N38 1.328 . S
C34 H39 0.930 . S
C35 C36 1.333 . S
C35 N37 1.317 . S
C35 H40 0.930 . S
C36 C35 1.333 . S
C36 N38 1.350 . S
C36 H62 0.931 . S
N37 Co33 2.148 . S
N37 C34 1.301 . S
N37 C35 1.317 . S
N38 C34 1.328 . S
N38 C36 1.350 . S
H39 C34 0.930 . S
H40 C35 0.930 . S
C41 O42 1.224 . S
C41 O60 1.247 . S
O42 C41 1.224 . S
N43 Co33 2.128 . S
N43 C44 1.355 . S
N43 C46 1.311 . S
C44 N43 1.355 . S
C44 C45 1.363 . S
C44 H56 0.929 . S
C45 C44 1.363 . S
C45 N47 1.375 . S
C45 H63 0.931 . S
C46 N43 1.311 . S
C46 N47 1.347 . S
C46 H57 0.929 . S
N47 C45 1.375 . S
N47 C46 1.347 . S
C48 C51 1.365 . S
C48 N53 1.328 . S
C48 H54 0.929 . S
C49 C50 1.362 . S
C49 C52 1.378 . S
C49 H64 0.929 . S
C50 C49 1.362 . S
C50 C51 1.366 . S
C51 C48 1.365 . S
C51 C50 1.366 . S
C51 H65 0.930 . S
C52 C49 1.378 . S
C52 N53 1.315 . S
C52 H55 0.930 . S
N53 Co33 2.194 . S
N53 C48 1.328 . S
N53 C52 1.315 . S
H54 C48 0.929 . S
H55 C52 0.930 . S
H56 C44 0.929 . S
H57 C46 0.929 . S
O58 Co33 2.351 . S
O58 C61 1.244 . S
O59 Co33 2.155 . S
O59 C61 1.240 . S
O60 Co33 2.096 . S
O60 C41 1.247 . S
C61 O58 1.244 . S
C61 O59 1.240 . S
H62 C36 0.931 . S
H63 C45 0.931 . S
H64 C49 0.929 . S
H65 C51 0.930 . S
Co66 N70 2.148 . S
Co66 N76 2.128 . S
Co66 N86 2.194 . S
Co66 O91 2.351 . S
Co66 O92 2.155 . S
Co66 O93 2.096 . S
C67 N70 1.301 . S
C67 N71 1.328 . S
C67 H72 0.930 . S
C68 C69 1.333 . S
C68 N70 1.317 . S
C68 H73 0.930 . S
C69 C68 1.333 . S
C69 N71 1.350 . S
C69 H95 0.931 . S
N70 Co66 2.148 . S
N70 C67 1.301 . S
N70 C68 1.317 . S
N71 C67 1.328 . S
N71 C69 1.350 . S
H72 C67 0.930 . S
H73 C68 0.930 . S
C74 O75 1.224 . S
C74 O93 1.247 . S
O75 C74 1.224 . S
N76 Co66 2.128 . S
N76 C77 1.355 . S
N76 C79 1.311 . S
C77 N76 1.355 . S
C77 C78 1.363 . S
C77 H89 0.929 . S
C78 C77 1.363 . S
C78 N80 1.375 . S
C78 H96 0.931 . S
C79 N76 1.311 . S
C79 N80 1.347 . S
C79 H90 0.929 . S
N80 C78 1.375 . S
N80 C79 1.347 . S
C81 C84 1.365 . S
C81 N86 1.328 1_554 S
C81 H87 0.929 . S
C82 C83 1.362 . S
C82 C85 1.378 1_554 S
C82 H97 0.929 . S
C83 C82 1.362 . S
C83 C84 1.366 . S
C84 C81 1.365 . S
C84 C83 1.366 . S
C84 H98 0.930 . S
C85 C82 1.378 1_556 S
C85 N86 1.315 . S
C85 H88 0.930 . S
N86 Co66 2.194 . S
N86 C81 1.328 1_556 S
N86 C85 1.315 . S
H87 C81 0.929 . S
H88 C85 0.930 . S
H89 C77 0.929 . S
H90 C79 0.929 . S
O91 Co66 2.351 . S
O91 C94 1.244 . S
O92 Co66 2.155 . S
O92 C94 1.240 . S
O93 Co66 2.096 . S
O93 C74 1.247 . S
C94 O91 1.244 . S
C94 O92 1.240 . S
H95 C69 0.931 . S
H96 C78 0.931 . S
H97 C82 0.929 . S
H98 C84 0.930 . S
Co99 N103 2.148 . S
Co99 N109 2.128 . S
Co99 N119 2.194 . S
Co99 O124 2.351 . S
Co99 O125 2.155 . S
Co99 O126 2.096 . S
C100 N103 1.301 . S
C100 N104 1.328 . S
C100 H105 0.930 . S
C101 C102 1.333 . S
C101 N103 1.317 . S
C101 H106 0.930 . S
C102 C101 1.333 . S
C102 N104 1.350 . S
C102 H128 0.931 . S
N103 Co99 2.148 . S
N103 C100 1.301 . S
N103 C101 1.317 . S
N104 C100 1.328 . S
N104 C102 1.350 . S
H105 C100 0.930 . S
H106 C101 0.930 . S
C107 O108 1.224 . S
C107 O126 1.247 . S
O108 C107 1.224 . S
N109 Co99 2.128 . S
N109 C110 1.355 . S
N109 C112 1.311 . S
C110 N109 1.355 . S
C110 C111 1.363 . S
C110 H122 0.929 . S
C111 C110 1.363 . S
C111 N113 1.375 . S
C111 H129 0.931 . S
C112 N109 1.311 . S
C112 N113 1.347 . S
C112 H123 0.929 . S
N113 C111 1.375 . S
N113 C112 1.347 . S
C114 C117 1.365 . S
C114 N119 1.328 . S
C114 H120 0.929 . S
C115 C116 1.362 . S
C115 C118 1.378 . S
C115 H130 0.929 . S
C116 C115 1.362 . S
C116 C117 1.366 . S
C117 C114 1.365 . S
C117 C116 1.366 . S
C117 H131 0.930 . S
C118 C115 1.378 . S
C118 N119 1.315 . S
C118 H121 0.930 . S
N119 Co99 2.194 . S
N119 C114 1.328 . S
N119 C118 1.315 . S
H120 C114 0.929 . S
H121 C118 0.930 . S
H122 C110 0.929 . S
H123 C112 0.929 . S
O124 Co99 2.351 . S
O124 C127 1.244 . S
O125 Co99 2.155 . S
O125 C127 1.240 . S
O126 Co99 2.096 . S
O126 C107 1.247 . S
C127 O124 1.244 . S
C127 O125 1.240 . S
H128 C102 0.931 . S
H129 C111 0.931 . S
H130 C115 0.929 . S
H131 C117 0.930 . S
Co132 N136 2.148 . S
Co132 N142 2.128 . S
Co132 N152 2.194 . S
Co132 O157 2.351 . S
Co132 O158 2.155 . S
Co132 O159 2.096 . S
C133 N136 1.301 . S
C133 N137 1.328 . S
C133 H138 0.930 . S
C134 C135 1.333 . S
C134 N136 1.317 . S
C134 H139 0.930 . S
C135 C134 1.333 . S
C135 N137 1.350 . S
C135 H161 0.931 . S
N136 Co132 2.148 . S
N136 C133 1.301 . S
N136 C134 1.317 . S
N137 C133 1.328 . S
N137 C135 1.350 . S
H138 C133 0.930 . S
H139 C134 0.930 . S
C140 O141 1.224 . S
C140 O159 1.247 . S
O141 C140 1.224 . S
N142 Co132 2.128 . S
N142 C143 1.355 . S
N142 C145 1.311 . S
C143 N142 1.355 . S
C143 C144 1.363 . S
C143 H155 0.929 . S
C144 C143 1.363 . S
C144 N146 1.375 . S
C144 H162 0.931 . S
C145 N142 1.311 . S
C145 N146 1.347 . S
C145 H156 0.929 . S
N146 C144 1.375 . S
N146 C145 1.347 . S
C147 C150 1.365 . S
C147 N152 1.328 1_554 S
C147 H153 0.929 . S
C148 C149 1.362 . S
C148 C151 1.378 1_554 S
C148 H163 0.929 . S
C149 C148 1.362 . S
C149 C150 1.366 . S
C150 C147 1.365 . S
C150 C149 1.366 . S
C150 H164 0.930 . S
C151 C148 1.378 1_556 S
C151 N152 1.315 . S
C151 H154 0.930 . S
N152 Co132 2.194 . S
N152 C147 1.328 1_556 S
N152 C151 1.315 . S
H153 C147 0.929 . S
H154 C151 0.930 . S
H155 C143 0.929 . S
H156 C145 0.929 . S
O157 Co132 2.351 . S
O157 C160 1.244 . S
O158 Co132 2.155 . S
O158 C160 1.240 . S
O159 Co132 2.096 . S
O159 C140 1.247 . S
C160 O157 1.244 . S
C160 O158 1.240 . S
H161 C135 0.931 . S
H162 C144 0.931 . S
H163 C148 0.929 . S
H164 C150 0.930 . S
Co165 N169 2.148 . S
Co165 N175 2.128 . S
Co165 N185 2.194 . S
Co165 O190 2.351 . S
Co165 O191 2.155 . S
Co165 O192 2.096 . S
C166 N169 1.301 . S
C166 N170 1.328 . S
C166 H171 0.930 . S
C167 C168 1.333 . S
C167 N169 1.317 . S
C167 H172 0.930 . S
C168 C167 1.333 . S
C168 N170 1.350 . S
C168 H194 0.931 . S
N169 Co165 2.148 . S
N169 C166 1.301 . S
N169 C167 1.317 . S
N170 C166 1.328 . S
N170 C168 1.350 . S
H171 C166 0.930 . S
H172 C167 0.930 . S
C173 O174 1.224 . S
C173 O192 1.247 . S
O174 C173 1.224 . S
N175 Co165 2.128 . S
N175 C176 1.355 . S
N175 C178 1.311 . S
C176 N175 1.355 . S
C176 C177 1.363 . S
C176 H188 0.929 . S
C177 C176 1.363 . S
C177 N179 1.375 . S
C177 H195 0.931 . S
C178 N175 1.311 . S
C178 N179 1.347 . S
C178 H189 0.929 . S
N179 C177 1.375 . S
N179 C178 1.347 . S
C180 C183 1.365 . S
C180 N185 1.328 . S
C180 H186 0.929 . S
C181 C182 1.362 . S
C181 C184 1.378 . S
C181 H196 0.929 . S
C182 C181 1.362 . S
C182 C183 1.366 . S
C183 C180 1.365 . S
C183 C182 1.366 . S
C183 H197 0.930 . S
C184 C181 1.378 . S
C184 N185 1.315 . S
C184 H187 0.930 . S
N185 Co165 2.194 . S
N185 C180 1.328 . S
N185 C184 1.315 . S
H186 C180 0.929 . S
H187 C184 0.930 . S
H188 C176 0.929 . S
H189 C178 0.929 . S
O190 Co165 2.351 . S
O190 C193 1.244 . S
O191 Co165 2.155 . S
O191 C193 1.240 . S
O192 Co165 2.096 . S
O192 C173 1.247 . S
C193 O190 1.244 . S
C193 O191 1.240 . S
H194 C168 0.931 . S
H195 C177 0.931 . S
H196 C181 0.929 . S
H197 C183 0.930 . S
Co198 N202 2.148 . S
Co198 N208 2.128 . S
Co198 N218 2.194 . S
Co198 O223 2.351 . S
Co198 O224 2.155 . S
Co198 O225 2.096 . S
C199 N202 1.301 . S
C199 N203 1.328 . S
C199 H204 0.930 . S
C200 C201 1.333 . S
C200 N202 1.317 . S
C200 H205 0.930 . S
C201 C200 1.333 . S
C201 N203 1.350 . S
C201 H227 0.931 . S
N202 Co198 2.148 . S
N202 C199 1.301 . S
N202 C200 1.317 . S
N203 C199 1.328 . S
N203 C201 1.350 . S
H204 C199 0.930 . S
H205 C200 0.930 . S
C206 O207 1.224 . S
C206 O225 1.247 . S
O207 C206 1.224 . S
N208 Co198 2.128 . S
N208 C209 1.355 . S
N208 C211 1.311 . S
C209 N208 1.355 . S
C209 C210 1.363 . S
C209 H221 0.929 . S
C210 C209 1.363 . S
C210 N212 1.375 . S
C210 H228 0.931 . S
C211 N208 1.311 . S
C211 N212 1.347 . S
C211 H222 0.929 . S
N212 C210 1.375 . S
N212 C211 1.347 . S
C213 C216 1.365 . S
C213 N218 1.328 1_556 S
C213 H219 0.929 . S
C214 C215 1.362 . S
C214 C217 1.378 1_556 S
C214 H229 0.929 . S
C215 C214 1.362 . S
C215 C216 1.366 . S
C216 C213 1.365 . S
C216 C215 1.366 . S
C216 H230 0.930 . S
C217 C214 1.378 1_554 S
C217 N218 1.315 . S
C217 H220 0.930 . S
N218 Co198 2.194 . S
N218 C213 1.328 1_554 S
N218 C217 1.315 . S
H219 C213 0.929 . S
H220 C217 0.930 . S
H221 C209 0.929 . S
H222 C211 0.929 . S
O223 Co198 2.351 . S
O223 C226 1.244 . S
O224 Co198 2.155 . S
O224 C226 1.240 . S
O225 Co198 2.096 . S
O225 C206 1.247 . S
C226 O223 1.244 . S
C226 O224 1.240 . S
H227 C201 0.931 . S
H228 C210 0.931 . S
H229 C214 0.929 . S
H230 C216 0.930 . S
Co231 N235 2.148 . S
Co231 N241 2.128 . S
Co231 N251 2.194 . S
Co231 O256 2.351 . S
Co231 O257 2.155 . S
Co231 O258 2.096 . S
C232 N235 1.301 . S
C232 N236 1.328 . S
C232 H237 0.930 . S
C233 C234 1.333 . S
C233 N235 1.317 . S
C233 H238 0.930 . S
C234 C233 1.333 . S
C234 N236 1.350 . S
C234 H260 0.931 . S
N235 Co231 2.148 . S
N235 C232 1.301 . S
N235 C233 1.317 . S
N236 C232 1.328 . S
N236 C234 1.350 . S
H237 C232 0.930 . S
H238 C233 0.930 . S
C239 O240 1.224 . S
C239 O258 1.247 . S
O240 C239 1.224 . S
N241 Co231 2.128 . S
N241 C242 1.355 . S
N241 C244 1.311 . S
C242 N241 1.355 . S
C242 C243 1.363 . S
C242 H254 0.929 . S
C243 C242 1.363 . S
C243 N245 1.375 . S
C243 H261 0.931 . S
C244 N241 1.311 . S
C244 N245 1.347 . S
C244 H255 0.929 . S
N245 C243 1.375 . S
N245 C244 1.347 . S
C246 C249 1.365 . S
C246 N251 1.328 . S
C246 H252 0.929 . S
C247 C248 1.362 . S
C247 C250 1.378 . S
C247 H262 0.929 . S
C248 C247 1.362 . S
C248 C249 1.366 . S
C249 C246 1.365 . S
C249 C248 1.366 . S
C249 H263 0.930 . S
C250 C247 1.378 . S
C250 N251 1.315 . S
C250 H253 0.930 . S
N251 Co231 2.194 . S
N251 C246 1.328 . S
N251 C250 1.315 . S
H252 C246 0.929 . S
H253 C250 0.930 . S
H254 C242 0.929 . S
H255 C244 0.929 . S
O256 Co231 2.351 . S
O256 C259 1.244 . S
O257 Co231 2.155 . S
O257 C259 1.240 . S
O258 Co231 2.096 . S
O258 C239 1.247 . S
C259 O256 1.244 . S
C259 O257 1.240 . S
H260 C234 0.931 . S
H261 C243 0.931 . S
H262 C247 0.929 . S
H263 C249 0.930 . S
Co264 N268 2.148 . S
Co264 N274 2.128 . S
Co264 N284 2.194 . S
Co264 O289 2.351 . S
Co264 O290 2.155 . S
Co264 O291 2.096 . S
C265 N268 1.301 . S
C265 N269 1.328 . S
C265 H270 0.930 . S
C266 C267 1.333 . S
C266 N268 1.317 . S
C266 H271 0.930 . S
C267 C266 1.333 . S
C267 N269 1.350 . S
C267 H293 0.931 . S
N268 Co264 2.148 . S
N268 C265 1.301 . S
N268 C266 1.317 . S
N269 C265 1.328 . S
N269 C267 1.350 . S
H270 C265 0.930 . S
H271 C266 0.930 . S
C272 O273 1.224 . S
C272 O291 1.247 . S
O273 C272 1.224 . S
N274 Co264 2.128 . S
N274 C275 1.355 . S
N274 C277 1.311 . S
C275 N274 1.355 . S
C275 C276 1.363 . S
C275 H287 0.929 . S
C276 C275 1.363 . S
C276 N278 1.375 . S
C276 H294 0.931 . S
C277 N274 1.311 . S
C277 N278 1.347 . S
C277 H288 0.929 . S
N278 C276 1.375 . S
N278 C277 1.347 . S
C279 C282 1.365 . S
C279 N284 1.328 1_556 S
C279 H285 0.929 . S
C280 C281 1.362 . S
C280 C283 1.378 1_556 S
C280 H295 0.929 . S
C281 C280 1.362 . S
C281 C282 1.366 . S
C282 C279 1.365 . S
C282 C281 1.366 . S
C282 H296 0.930 . S
C283 C280 1.378 1_554 S
C283 N284 1.315 . S
C283 H286 0.930 . S
N284 Co264 2.194 . S
N284 C279 1.328 1_554 S
N284 C283 1.315 . S
H285 C279 0.929 . S
H286 C283 0.930 . S
H287 C275 0.929 . S
H288 C277 0.929 . S
O289 Co264 2.351 . S
O289 C292 1.244 . S
O290 Co264 2.155 . S
O290 C292 1.240 . S
O291 Co264 2.096 . S
O291 C272 1.247 . S
C292 O289 1.244 . S
C292 O290 1.240 . S
H293 C267 0.931 . S
H294 C276 0.931 . S
H295 C280 0.929 . S
H296 C282 0.930 . S
Co297 N301 2.148 . S
Co297 N307 2.128 . S
Co297 N317 2.194 . S
Co297 O322 2.351 . S
Co297 O323 2.155 . S
Co297 O324 2.096 . S
C298 N301 1.301 . S
C298 N302 1.328 . S
C298 H303 0.930 . S
C299 C300 1.333 . S
C299 N301 1.317 . S
C299 H304 0.930 . S
C300 C299 1.333 . S
C300 N302 1.350 . S
C300 H326 0.931 . S
N301 Co297 2.148 . S
N301 C298 1.301 . S
N301 C299 1.317 . S
N302 C298 1.328 . S
N302 C300 1.350 . S
H303 C298 0.930 . S
H304 C299 0.930 . S
C305 O306 1.224 . S
C305 O324 1.247 . S
O306 C305 1.224 . S
N307 Co297 2.128 . S
N307 C308 1.355 . S
N307 C310 1.311 . S
C308 N307 1.355 . S
C308 C309 1.363 . S
C308 H320 0.929 . S
C309 C308 1.363 . S
C309 N311 1.375 . S
C309 H327 0.931 . S
C310 N307 1.311 . S
C310 N311 1.347 . S
C310 H321 0.929 . S
N311 C309 1.375 . S
N311 C310 1.347 . S
C312 C315 1.365 . S
C312 N317 1.328 . S
C312 H318 0.929 . S
C313 C314 1.362 . S
C313 C316 1.378 . S
C313 H328 0.929 . S
C314 C313 1.362 . S
C314 C315 1.366 . S
C315 C312 1.365 . S
C315 C314 1.366 . S
C315 H329 0.930 . S
C316 C313 1.378 . S
C316 N317 1.315 . S
C316 H319 0.930 . S
N317 Co297 2.194 . S
N317 C312 1.328 . S
N317 C316 1.315 . S
H318 C312 0.929 . S
H319 C316 0.930 . S
H320 C308 0.929 . S
H321 C310 0.929 . S
O322 Co297 2.351 . S
O322 C325 1.244 . S
O323 Co297 2.155 . S
O323 C325 1.240 . S
O324 Co297 2.096 . S
O324 C305 1.247 . S
C325 O322 1.244 . S
C325 O323 1.240 . S
H326 C300 0.931 . S
H327 C309 0.931 . S
H328 C313 0.929 . S
H329 C315 0.930 . S
Co330 N334 2.148 . S
Co330 N340 2.128 . S
Co330 N350 2.194 . S
Co330 O355 2.351 . S
Co330 O356 2.155 . S
Co330 O357 2.096 . S
C331 N334 1.301 . S
C331 N335 1.328 . S
C331 H336 0.930 . S
C332 C333 1.333 . S
C332 N334 1.317 . S
C332 H337 0.930 . S
C333 C332 1.333 . S
C333 N335 1.350 . S
C333 H359 0.931 . S
N334 Co330 2.148 . S
N334 C331 1.301 . S
N334 C332 1.317 . S
N335 C331 1.328 . S
N335 C333 1.350 . S
H336 C331 0.930 . S
H337 C332 0.930 . S
C338 O339 1.224 . S
C338 O357 1.247 . S
O339 C338 1.224 . S
N340 Co330 2.128 . S
N340 C341 1.355 . S
N340 C343 1.311 . S
C341 N340 1.355 . S
C341 C342 1.363 . S
C341 H353 0.929 . S
C342 C341 1.363 . S
C342 N344 1.375 . S
C342 H360 0.931 . S
C343 N340 1.311 . S
C343 N344 1.347 . S
C343 H354 0.929 . S
N344 C342 1.375 . S
N344 C343 1.347 . S
C345 C348 1.365 . S
C345 N350 1.328 1_554 S
C345 H351 0.929 . S
C346 C347 1.362 . S
C346 C349 1.378 1_554 S
C346 H361 0.929 . S
C347 C346 1.362 . S
C347 C348 1.366 . S
C348 C345 1.365 . S
C348 C347 1.366 . S
C348 H362 0.930 . S
C349 C346 1.378 1_556 S
C349 N350 1.315 . S
C349 H352 0.930 . S
N350 Co330 2.194 . S
N350 C345 1.328 1_556 S
N350 C349 1.315 . S
H351 C345 0.929 . S
H352 C349 0.930 . S
H353 C341 0.929 . S
H354 C343 0.929 . S
O355 Co330 2.351 . S
O355 C358 1.244 . S
O356 Co330 2.155 . S
O356 C358 1.240 . S
O357 Co330 2.096 . S
O357 C338 1.247 . S
C358 O355 1.244 . S
C358 O356 1.240 . S
H359 C333 0.931 . S
H360 C342 0.931 . S
H361 C346 0.929 . S
H362 C348 0.930 . S
Co363 N367 2.148 . S
Co363 N373 2.128 . S
Co363 N383 2.194 . S
Co363 O388 2.351 . S
Co363 O389 2.155 . S
Co363 O390 2.096 . S
C364 N367 1.301 . S
C364 N368 1.328 . S
C364 H369 0.930 . S
C365 C366 1.333 . S
C365 N367 1.317 . S
C365 H370 0.930 . S
C366 C365 1.333 . S
C366 N368 1.350 . S
C366 H392 0.931 . S
N367 Co363 2.148 . S
N367 C364 1.301 . S
N367 C365 1.317 . S
N368 C364 1.328 . S
N368 C366 1.350 . S
H369 C364 0.930 . S
H370 C365 0.930 . S
C371 O372 1.224 . S
C371 O390 1.247 . S
O372 C371 1.224 . S
N373 Co363 2.128 . S
N373 C374 1.355 . S
N373 C376 1.311 . S
C374 N373 1.355 . S
C374 C375 1.363 . S
C374 H386 0.929 . S
C375 C374 1.363 . S
C375 N377 1.375 . S
C375 H393 0.931 . S
C376 N373 1.311 . S
C376 N377 1.347 . S
C376 H387 0.929 . S
N377 C375 1.375 . S
N377 C376 1.347 . S
C378 C381 1.365 . S
C378 N383 1.328 . S
C378 H384 0.929 . S
C379 C380 1.362 . S
C379 C382 1.378 . S
C379 H394 0.929 . S
C380 C379 1.362 . S
C380 C381 1.366 . S
C381 C378 1.365 . S
C381 C380 1.366 . S
C381 H395 0.930 . S
C382 C379 1.378 . S
C382 N383 1.315 . S
C382 H385 0.930 . S
N383 Co363 2.194 . S
N383 C378 1.328 . S
N383 C382 1.315 . S
H384 C378 0.929 . S
H385 C382 0.930 . S
H386 C374 0.929 . S
H387 C376 0.929 . S
O388 Co363 2.351 . S
O388 C391 1.244 . S
O389 Co363 2.155 . S
O389 C391 1.240 . S
O390 Co363 2.096 . S
O390 C371 1.247 . S
C391 O388 1.244 . S
C391 O389 1.240 . S
H392 C366 0.931 . S
H393 C375 0.931 . S
H394 C379 0.929 . S
H395 C381 0.930 . S
Co396 N400 2.148 . S
Co396 N406 2.128 . S
Co396 N416 2.194 . S
Co396 O421 2.351 . S
Co396 O422 2.155 . S
Co396 O423 2.096 . S
C397 N400 1.301 . S
C397 N401 1.328 . S
C397 H402 0.930 . S
C398 C399 1.333 . S
C398 N400 1.317 . S
C398 H403 0.930 . S
C399 C398 1.333 . S
C399 N401 1.350 . S
C399 H425 0.931 . S
N400 Co396 2.148 . S
N400 C397 1.301 . S
N400 C398 1.317 . S
N401 C397 1.328 . S
N401 C399 1.350 . S
H402 C397 0.930 . S
H403 C398 0.930 . S
C404 O405 1.224 . S
C404 O423 1.247 . S
O405 C404 1.224 . S
N406 Co396 2.128 . S
N406 C407 1.355 . S
N406 C409 1.311 . S
C407 N406 1.355 . S
C407 C408 1.363 . S
C407 H419 0.929 . S
C408 C407 1.363 . S
C408 N410 1.375 . S
C408 H426 0.931 . S
C409 N406 1.311 . S
C409 N410 1.347 . S
C409 H420 0.929 . S
N410 C408 1.375 . S
N410 C409 1.347 . S
C411 C414 1.365 . S
C411 N416 1.328 1_554 S
C411 H417 0.929 . S
C412 C413 1.362 . S
C412 C415 1.378 1_554 S
C412 H427 0.929 . S
C413 C412 1.362 . S
C413 C414 1.366 . S
C414 C411 1.365 . S
C414 C413 1.366 . S
C414 H428 0.930 . S
C415 C412 1.378 1_556 S
C415 N416 1.315 . S
C415 H418 0.930 . S
N416 Co396 2.194 . S
N416 C411 1.328 1_556 S
N416 C415 1.315 . S
H417 C411 0.929 . S
H418 C415 0.930 . S
H419 C407 0.929 . S
H420 C409 0.929 . S
O421 Co396 2.351 . S
O421 C424 1.244 . S
O422 Co396 2.155 . S
O422 C424 1.240 . S
O423 Co396 2.096 . S
O423 C404 1.247 . S
C424 O421 1.244 . S
C424 O422 1.240 . S
H425 C399 0.931 . S
H426 C408 0.931 . S
H427 C412 0.929 . S
H428 C414 0.930 . S
Co429 N433 2.148 . S
Co429 N439 2.128 . S
Co429 N449 2.194 . S
Co429 O454 2.351 . S
Co429 O455 2.155 . S
Co429 O456 2.096 . S
C430 N433 1.301 . S
C430 N434 1.328 . S
C430 H435 0.930 . S
C431 C432 1.333 . S
C431 N433 1.317 . S
C431 H436 0.930 . S
C432 C431 1.333 . S
C432 N434 1.350 . S
C432 H458 0.931 . S
N433 Co429 2.148 . S
N433 C430 1.301 . S
N433 C431 1.317 . S
N434 C430 1.328 . S
N434 C432 1.350 . S
H435 C430 0.930 . S
H436 C431 0.930 . S
C437 O438 1.224 . S
C437 O456 1.247 . S
O438 C437 1.224 . S
N439 Co429 2.128 . S
N439 C440 1.355 . S
N439 C442 1.311 . S
C440 N439 1.355 . S
C440 C441 1.363 . S
C440 H452 0.929 . S
C441 C440 1.363 . S
C441 N443 1.375 . S
C441 H459 0.931 . S
C442 N439 1.311 . S
C442 N443 1.347 . S
C442 H453 0.929 . S
N443 C441 1.375 . S
N443 C442 1.347 . S
C444 C447 1.365 . S
C444 N449 1.328 . S
C444 H450 0.929 . S
C445 C446 1.362 . S
C445 C448 1.378 . S
C445 H460 0.929 . S
C446 C445 1.362 . S
C446 C447 1.366 . S
C447 C444 1.365 . S
C447 C446 1.366 . S
C447 H461 0.930 . S
C448 C445 1.378 . S
C448 N449 1.315 . S
C448 H451 0.930 . S
N449 Co429 2.194 . S
N449 C444 1.328 . S
N449 C448 1.315 . S
H450 C444 0.929 . S
H451 C448 0.930 . S
H452 C440 0.929 . S
H453 C442 0.929 . S
O454 Co429 2.351 . S
O454 C457 1.244 . S
O455 Co429 2.155 . S
O455 C457 1.240 . S
O456 Co429 2.096 . S
O456 C437 1.247 . S
C457 O454 1.244 . S
C457 O455 1.240 . S
H458 C432 0.931 . S
H459 C441 0.931 . S
H460 C445 0.929 . S
H461 C447 0.930 . S
Co462 N466 2.148 . S
Co462 N472 2.128 . S
Co462 N482 2.194 . S
Co462 O487 2.351 . S
Co462 O488 2.155 . S
Co462 O489 2.096 . S
C463 N466 1.301 . S
C463 N467 1.328 . S
C463 H468 0.930 . S
C464 C465 1.333 . S
C464 N466 1.317 . S
C464 H469 0.930 . S
C465 C464 1.333 . S
C465 N467 1.350 . S
C465 H491 0.931 . S
N466 Co462 2.148 . S
N466 C463 1.301 . S
N466 C464 1.317 . S
N467 C463 1.328 . S
N467 C465 1.350 . S
H468 C463 0.930 . S
H469 C464 0.930 . S
C470 O471 1.224 . S
C470 O489 1.247 . S
O471 C470 1.224 . S
N472 Co462 2.128 . S
N472 C473 1.355 . S
N472 C475 1.311 . S
C473 N472 1.355 . S
C473 C474 1.363 . S
C473 H485 0.929 . S
C474 C473 1.363 . S
C474 N476 1.375 . S
C474 H492 0.931 . S
C475 N472 1.311 . S
C475 N476 1.347 . S
C475 H486 0.929 . S
N476 C474 1.375 . S
N476 C475 1.347 . S
C477 C480 1.365 . S
C477 N482 1.328 1_556 S
C477 H483 0.929 . S
C478 C479 1.362 . S
C478 C481 1.378 1_556 S
C478 H493 0.929 . S
C479 C478 1.362 . S
C479 C480 1.366 . S
C480 C477 1.365 . S
C480 C479 1.366 . S
C480 H494 0.930 . S
C481 C478 1.378 1_554 S
C481 N482 1.315 . S
C481 H484 0.930 . S
N482 Co462 2.194 . S
N482 C477 1.328 1_554 S
N482 C481 1.315 . S
H483 C477 0.929 . S
H484 C481 0.930 . S
H485 C473 0.929 . S
H486 C475 0.929 . S
O487 Co462 2.351 . S
O487 C490 1.244 . S
O488 Co462 2.155 . S
O488 C490 1.240 . S
O489 Co462 2.096 . S
O489 C470 1.247 . S
C490 O487 1.244 . S
C490 O488 1.240 . S
H491 C465 0.931 . S
H492 C474 0.931 . S
H493 C478 0.929 . S
H494 C480 0.930 . S
Co495 N499 2.148 . S
Co495 N505 2.128 . S
Co495 N515 2.194 . S
Co495 O520 2.351 . S
Co495 O521 2.155 . S
Co495 O522 2.096 . S
C496 N499 1.301 . S
C496 N500 1.328 . S
C496 H501 0.930 . S
C497 C498 1.333 . S
C497 N499 1.317 . S
C497 H502 0.930 . S
C498 C497 1.333 . S
C498 N500 1.350 . S
C498 H524 0.931 . S
N499 Co495 2.148 . S
N499 C496 1.301 . S
N499 C497 1.317 . S
N500 C496 1.328 . S
N500 C498 1.350 . S
H501 C496 0.930 . S
H502 C497 0.930 . S
C503 O504 1.224 . S
C503 O522 1.247 . S
O504 C503 1.224 . S
N505 Co495 2.128 . S
N505 C506 1.355 . S
N505 C508 1.311 . S
C506 N505 1.355 . S
C506 C507 1.363 . S
C506 H518 0.929 . S
C507 C506 1.363 . S
C507 N509 1.375 . S
C507 H525 0.931 . S
C508 N505 1.311 . S
C508 N509 1.347 . S
C508 H519 0.929 . S
N509 C507 1.375 . S
N509 C508 1.347 . S
C510 C513 1.365 . S
C510 N515 1.328 . S
C510 H516 0.929 . S
C511 C512 1.362 . S
C511 C514 1.378 . S
C511 H526 0.929 . S
C512 C511 1.362 . S
C512 C513 1.366 . S
C513 C510 1.365 . S
C513 C512 1.366 . S
C513 H527 0.930 . S
C514 C511 1.378 . S
C514 N515 1.315 . S
C514 H517 0.930 . S
N515 Co495 2.194 . S
N515 C510 1.328 . S
N515 C514 1.315 . S
H516 C510 0.929 . S
H517 C514 0.930 . S
H518 C506 0.929 . S
H519 C508 0.929 . S
O520 Co495 2.351 . S
O520 C523 1.244 . S
O521 Co495 2.155 . S
O521 C523 1.240 . S
O522 Co495 2.096 . S
O522 C503 1.247 . S
C523 O520 1.244 . S
C523 O521 1.240 . S
H524 C498 0.931 . S
H525 C507 0.931 . S
H526 C511 0.929 . S
H527 C513 0.930 . S
C528 C529 1.363 . S
C528 C534 1.379 . S
C528 N536 1.356 . S
C529 C528 1.363 . S
C529 C535 1.363 . S
C530 C531 1.363 . S
C530 C535 1.379 . S
C530 N537 1.356 . S
C531 C530 1.363 . S
C531 C534 1.363 . S
N532 C534 1.356 . S
N532 H544 0.984 . S
N532 H545 0.985 . S
N533 C535 1.356 . S
N533 H538 0.984 . S
N533 H539 0.985 . S
C534 C528 1.379 . S
C534 C531 1.363 . S
C534 N532 1.356 . S
C535 C529 1.363 . S
C535 C530 1.379 . S
C535 N533 1.356 . S
N536 C528 1.356 . S
N536 H542 0.984 . S
N536 H543 0.984 . S
N537 C530 1.356 . S
N537 H540 0.984 . S
N537 H541 0.985 . S
H538 N533 0.984 . S
H539 N533 0.985 . S
H540 N537 0.984 . S
H541 N537 0.985 . S
H542 N536 0.984 . S
H543 N536 0.984 . S
H544 N532 0.984 . S
H545 N532 0.985 . S
C546 C547 1.363 . S
C546 C552 1.379 . S
C546 N554 1.356 . S
C547 C546 1.363 . S
C547 C553 1.363 . S
C548 C549 1.363 . S
C548 C553 1.379 . S
C548 N555 1.356 . S
C549 C548 1.363 . S
C549 C552 1.363 . S
N550 C552 1.356 . S
N550 H562 0.984 . S
N550 H563 0.985 . S
N551 C553 1.356 . S
N551 H556 0.984 . S
N551 H557 0.985 . S
C552 C546 1.379 . S
C552 C549 1.363 . S
C552 N550 1.356 . S
C553 C547 1.363 . S
C553 C548 1.379 . S
C553 N551 1.356 . S
N554 C546 1.356 . S
N554 H560 0.984 . S
N554 H561 0.984 . S
N555 C548 1.356 . S
N555 H558 0.984 . S
N555 H559 0.985 . S
H556 N551 0.984 . S
H557 N551 0.985 . S
H558 N555 0.984 . S
H559 N555 0.985 . S
H560 N554 0.984 . S
H561 N554 0.984 . S
H562 N550 0.984 . S
H563 N550 0.985 . S
C564 C565 1.363 . S
C564 C570 1.379 . S
C564 N572 1.356 . S
C565 C564 1.363 . S
C565 C571 1.363 . S
C566 C567 1.363 . S
C566 C571 1.379 . S
C566 N573 1.356 . S
C567 C566 1.363 . S
C567 C570 1.363 . S
N568 C570 1.356 . S
N568 H580 0.984 . S
N568 H581 0.985 . S
N569 C571 1.356 . S
N569 H574 0.984 . S
N569 H575 0.985 . S
C570 C564 1.379 . S
C570 C567 1.363 . S
C570 N568 1.356 . S
C571 C565 1.363 . S
C571 C566 1.379 . S
C571 N569 1.356 . S
N572 C564 1.356 . S
N572 H578 0.984 . S
N572 H579 0.984 . S
N573 C566 1.356 . S
N573 H576 0.984 . S
N573 H577 0.985 . S
H574 N569 0.984 . S
H575 N569 0.985 . S
H576 N573 0.984 . S
H577 N573 0.985 . S
H578 N572 0.984 . S
H579 N572 0.984 . S
H580 N568 0.984 . S
H581 N568 0.985 . S
C582 C583 1.363 . S
C582 C588 1.379 . S
C582 N590 1.356 . S
C583 C582 1.363 . S
C583 C589 1.363 . S
C584 C585 1.363 . S
C584 C589 1.379 . S
C584 N591 1.356 . S
C585 C584 1.363 . S
C585 C588 1.363 . S
N586 C588 1.356 . S
N586 H598 0.984 . S
N586 H599 0.985 . S
N587 C589 1.356 . S
N587 H592 0.984 . S
N587 H593 0.985 . S
C588 C582 1.379 . S
C588 C585 1.363 . S
C588 N586 1.356 . S
C589 C583 1.363 . S
C589 C584 1.379 . S
C589 N587 1.356 . S
N590 C582 1.356 . S
N590 H596 0.984 . S
N590 H597 0.984 . S
N591 C584 1.356 . S
N591 H594 0.984 . S
N591 H595 0.985 . S
H592 N587 0.984 . S
H593 N587 0.985 . S
H594 N591 0.984 . S
H595 N591 0.985 . S
H596 N590 0.984 . S
H597 N590 0.984 . S
H598 N586 0.984 . S
H599 N586 0.985 . S
C600 C601 1.363 . S
C600 C606 1.379 . S
C600 N608 1.356 . S
C601 C600 1.363 . S
C601 C607 1.363 . S
C602 C603 1.363 . S
C602 C607 1.379 . S
C602 N609 1.356 . S
C603 C602 1.363 . S
C603 C606 1.363 . S
N604 C606 1.356 . S
N604 H616 0.984 . S
N604 H617 0.985 . S
N605 C607 1.356 . S
N605 H610 0.984 . S
N605 H611 0.985 . S
C606 C600 1.379 . S
C606 C603 1.363 . S
C606 N604 1.356 . S
C607 C601 1.363 . S
C607 C602 1.379 . S
C607 N605 1.356 . S
N608 C600 1.356 . S
N608 H614 0.984 . S
N608 H615 0.984 . S
N609 C602 1.356 . S
N609 H612 0.984 . S
N609 H613 0.985 . S
H610 N605 0.984 . S
H611 N605 0.985 . S
H612 N609 0.984 . S
H613 N609 0.985 . S
H614 N608 0.984 . S
H615 N608 0.984 . S
H616 N604 0.984 . S
H617 N604 0.985 . S
C618 C619 1.363 . S
C618 C624 1.379 . S
C618 N626 1.356 . S
C619 C618 1.363 . S
C619 C625 1.363 . S
C620 C621 1.363 . S
C620 C625 1.379 . S
C620 N627 1.356 . S
C621 C620 1.363 . S
C621 C624 1.363 . S
N622 C624 1.356 . S
N622 H634 0.984 . S
N622 H635 0.985 . S
N623 C625 1.356 . S
N623 H628 0.984 . S
N623 H629 0.985 . S
C624 C618 1.379 . S
C624 C621 1.363 . S
C624 N622 1.356 . S
C625 C619 1.363 . S
C625 C620 1.379 . S
C625 N623 1.356 . S
N626 C618 1.356 . S
N626 H632 0.984 . S
N626 H633 0.984 . S
N627 C620 1.356 . S
N627 H630 0.984 . S
N627 H631 0.985 . S
H628 N623 0.984 . S
H629 N623 0.985 . S
H630 N627 0.984 . S
H631 N627 0.985 . S
H632 N626 0.984 . S
H633 N626 0.984 . S
H634 N622 0.984 . S
H635 N622 0.985 . S
C636 C637 1.363 . S
C636 C642 1.379 . S
C636 N644 1.356 . S
C637 C636 1.363 . S
C637 C643 1.363 . S
C638 C639 1.363 . S
C638 C643 1.379 . S
C638 N645 1.356 . S
C639 C638 1.363 . S
C639 C642 1.363 . S
N640 C642 1.356 . S
N640 H652 0.984 . S
N640 H653 0.985 . S
N641 C643 1.356 . S
N641 H646 0.984 . S
N641 H647 0.985 . S
C642 C636 1.379 . S
C642 C639 1.363 . S
C642 N640 1.356 . S
C643 C637 1.363 . S
C643 C638 1.379 . S
C643 N641 1.356 . S
N644 C636 1.356 . S
N644 H650 0.984 . S
N644 H651 0.984 . S
N645 C638 1.356 . S
N645 H648 0.984 . S
N645 H649 0.985 . S
H646 N641 0.984 . S
H647 N641 0.985 . S
H648 N645 0.984 . S
H649 N645 0.985 . S
H650 N644 0.984 . S
H651 N644 0.984 . S
H652 N640 0.984 . S
H653 N640 0.985 . S
C654 C655 1.363 . S
C654 C660 1.379 . S
C654 N662 1.356 . S
C655 C654 1.363 . S
C655 C661 1.363 . S
C656 C657 1.363 . S
C656 C661 1.379 . S
C656 N663 1.356 . S
C657 C656 1.363 . S
C657 C660 1.363 . S
N658 C660 1.356 . S
N658 H670 0.984 . S
N658 H671 0.985 . S
N659 C661 1.356 . S
N659 H664 0.984 . S
N659 H665 0.985 . S
C660 C654 1.379 . S
C660 C657 1.363 . S
C660 N658 1.356 . S
C661 C655 1.363 . S
C661 C656 1.379 . S
C661 N659 1.356 . S
N662 C654 1.356 . S
N662 H668 0.984 . S
N662 H669 0.984 . S
N663 C656 1.356 . S
N663 H666 0.984 . S
N663 H667 0.985 . S
H664 N659 0.984 . S
H665 N659 0.985 . S
H666 N663 0.984 . S
H667 N663 0.985 . S
H668 N662 0.984 . S
H669 N662 0.984 . S
H670 N658 0.984 . S
H671 N658 0.985 . S
C672 C673 1.363 . S
C672 C678 1.379 1_655 S
C672 N680 1.356 1_554 S
C673 C672 1.363 . S
C673 C679 1.363 . S
C674 C675 1.363 . S
C674 C679 1.379 1_455 S
C674 N681 1.356 . S
C675 C674 1.363 . S
C675 C678 1.363 . S
N676 C678 1.356 1_556 S
N676 H688 0.984 . S
N676 H689 0.985 . S
N677 C679 1.356 . S
N677 H682 0.984 . S
N677 H683 0.985 . S
C678 C672 1.379 1_455 S
C678 C675 1.363 . S
C678 N676 1.356 1_554 S
C679 C673 1.363 . S
C679 C674 1.379 1_655 S
C679 N677 1.356 . S
N680 C672 1.356 1_556 S
N680 H686 0.984 . S
N680 H687 0.984 . S
N681 C674 1.356 . S
N681 H684 0.984 . S
N681 H685 0.985 . S
H682 N677 0.984 . S
H683 N677 0.985 . S
H684 N681 0.984 . S
H685 N681 0.985 . S
H686 N680 0.984 . S
H687 N680 0.984 . S
H688 N676 0.984 . S
H689 N676 0.985 . S
C690 C691 1.363 . S
C690 C696 1.379 . S
C690 N698 1.356 . S
C691 C690 1.363 . S
C691 C697 1.363 . S
C692 C693 1.363 . S
C692 C697 1.379 . S
C692 N699 1.356 . S
C693 C692 1.363 . S
C693 C696 1.363 . S
N694 C696 1.356 . S
N694 H706 0.984 . S
N694 H707 0.985 . S
N695 C697 1.356 . S
N695 H700 0.984 . S
N695 H701 0.985 . S
C696 C690 1.379 . S
C696 C693 1.363 . S
C696 N694 1.356 . S
C697 C691 1.363 . S
C697 C692 1.379 . S
C697 N695 1.356 . S
N698 C690 1.356 . S
N698 H704 0.984 . S
N698 H705 0.984 . S
N699 C692 1.356 . S
N699 H702 0.984 . S
N699 H703 0.985 . S
H700 N695 0.984 . S
H701 N695 0.985 . S
H702 N699 0.984 . S
H703 N699 0.985 . S
H704 N698 0.984 . S
H705 N698 0.984 . S
H706 N694 0.984 . S
H707 N694 0.985 . S
C708 C709 1.363 . S
C708 C714 1.379 1_655 S
C708 N716 1.356 . S
C709 C708 1.363 . S
C709 C715 1.363 . S
C710 C711 1.363 . S
C710 C715 1.379 1_455 S
C710 N717 1.356 1_556 S
C711 C710 1.363 . S
C711 C714 1.363 . S
N712 C714 1.356 . S
N712 H724 0.984 . S
N712 H725 0.985 . S
N713 C715 1.356 1_554 S
N713 H718 0.984 . S
N713 H719 0.985 . S
C714 C708 1.379 1_455 S
C714 C711 1.363 . S
C714 N712 1.356 . S
C715 C709 1.363 . S
C715 C710 1.379 1_655 S
C715 N713 1.356 1_556 S
N716 C708 1.356 . S
N716 H722 0.984 . S
N716 H723 0.984 . S
N717 C710 1.356 1_554 S
N717 H720 0.984 . S
N717 H721 0.985 . S
H718 N713 0.984 . S
H719 N713 0.985 . S
H720 N717 0.984 . S
H721 N717 0.985 . S
H722 N716 0.984 . S
H723 N716 0.984 . S
H724 N712 0.984 . S
H725 N712 0.985 . S
C726 C727 1.363 . S
C726 C732 1.379 . S
C726 N734 1.356 . S
C727 C726 1.363 . S
C727 C733 1.363 . S
C728 C729 1.363 . S
C728 C733 1.379 . S
C728 N735 1.356 . S
C729 C728 1.363 . S
C729 C732 1.363 . S
N730 C732 1.356 . S
N730 H742 0.984 . S
N730 H743 0.985 . S
N731 C733 1.356 . S
N731 H736 0.984 . S
N731 H737 0.985 . S
C732 C726 1.379 . S
C732 C729 1.363 . S
C732 N730 1.356 . S
C733 C727 1.363 . S
C733 C728 1.379 . S
C733 N731 1.356 . S
N734 C726 1.356 . S
N734 H740 0.984 . S
N734 H741 0.984 . S
N735 C728 1.356 . S
N735 H738 0.984 . S
N735 H739 0.985 . S
H736 N731 0.984 . S
H737 N731 0.985 . S
H738 N735 0.984 . S
H739 N735 0.985 . S
H740 N734 0.984 . S
H741 N734 0.984 . S
H742 N730 0.984 . S
H743 N730 0.985 . S
C744 C745 1.363 1_556 S
C744 C750 1.379 . S
C744 N752 1.356 . S
C745 C744 1.363 1_554 S
C745 C751 1.363 . S
C746 C747 1.363 . S
C746 C751 1.379 . S
C746 N753 1.356 . S
C747 C746 1.363 . S
C747 C750 1.363 1_554 S
N748 C750 1.356 . S
N748 H760 0.984 . S
N748 H761 0.985 . S
N749 C751 1.356 . S
N749 H754 0.984 . S
N749 H755 0.985 . S
C750 C744 1.379 . S
C750 C747 1.363 1_556 S
C750 N748 1.356 . S
C751 C745 1.363 . S
C751 C746 1.379 . S
C751 N749 1.356 . S
N752 C744 1.356 . S
N752 H758 0.984 . S
N752 H759 0.984 . S
N753 C746 1.356 . S
N753 H756 0.984 . S
N753 H757 0.985 . S
H754 N749 0.984 . S
H755 N749 0.985 . S
H756 N753 0.984 . S
H757 N753 0.985 . S
H758 N752 0.984 . S
H759 N752 0.984 . S
H760 N748 0.984 . S
H761 N748 0.985 . S
C762 C763 1.363 . S
C762 C768 1.379 1_455 S
C762 N770 1.356 . S
C763 C762 1.363 . S
C763 C769 1.363 . S
C764 C765 1.363 . S
C764 C769 1.379 1_655 S
C764 N771 1.356 . S
C765 C764 1.363 . S
C765 C768 1.363 . S
N766 C768 1.356 . S
N766 H778 0.984 . S
N766 H779 0.985 . S
N767 C769 1.356 . S
N767 H772 0.984 . S
N767 H773 0.985 . S
C768 C762 1.379 1_655 S
C768 C765 1.363 . S
C768 N766 1.356 . S
C769 C763 1.363 . S
C769 C764 1.379 1_455 S
C769 N767 1.356 . S
N770 C762 1.356 . S
N770 H776 0.984 . S
N770 H777 0.984 . S
N771 C764 1.356 . S
N771 H774 0.984 . S
N771 H775 0.985 . S
H772 N767 0.984 . S
H773 N767 0.985 . S
H774 N771 0.984 . S
H775 N771 0.985 . S
H776 N770 0.984 . S
H777 N770 0.984 . S
H778 N766 0.984 . S
H779 N766 0.985 . S
C780 C781 1.363 . S
C780 C786 1.379 . S
C780 N788 1.356 . S
C781 C780 1.363 . S
C781 C787 1.363 1_556 S
C782 C783 1.363 1_554 S
C782 C787 1.379 . S
C782 N789 1.356 . S
C783 C782 1.363 1_556 S
C783 C786 1.363 . S
N784 C786 1.356 . S
N784 H796 0.984 . S
N784 H797 0.985 . S
N785 C787 1.356 . S
N785 H790 0.984 . S
N785 H791 0.985 . S
C786 C780 1.379 . S
C786 C783 1.363 . S
C786 N784 1.356 . S
C787 C781 1.363 1_554 S
C787 C782 1.379 . S
C787 N785 1.356 . S
N788 C780 1.356 . S
N788 H794 0.984 . S
N788 H795 0.984 . S
N789 C782 1.356 . S
N789 H792 0.984 . S
N789 H793 0.985 . S
H790 N785 0.984 . S
H791 N785 0.985 . S
H792 N789 0.984 . S
H793 N789 0.985 . S
H794 N788 0.984 . S
H795 N788 0.984 . S
H796 N784 0.984 . S
H797 N784 0.985 . S
C798 C799 1.363 . S
C798 C804 1.379 1_655 S
C798 N806 1.356 . S
C799 C798 1.363 . S
C799 C805 1.363 . S
C800 C801 1.363 . S
C800 C805 1.379 1_455 S
C800 N807 1.356 . S
C801 C800 1.363 . S
C801 C804 1.363 . S
N802 C804 1.356 . S
N802 H814 0.984 . S
N802 H815 0.985 . S
N803 C805 1.356 . S
N803 H808 0.984 . S
N803 H809 0.985 . S
C804 C798 1.379 1_455 S
C804 C801 1.363 . S
C804 N802 1.356 . S
C805 C799 1.363 . S
C805 C800 1.379 1_655 S
C805 N803 1.356 . S
N806 C798 1.356 . S
N806 H812 0.984 . S
N806 H813 0.984 . S
N807 C800 1.356 . S
N807 H810 0.984 . S
N807 H811 0.985 . S
H808 N803 0.984 . S
H809 N803 0.985 . S
H810 N807 0.984 . S
H811 N807 0.985 . S
H812 N806 0.984 . S
H813 N806 0.984 . S
H814 N802 0.984 . S
H815 N802 0.985 . S
C816 C817 1.363 1_556 S
C816 C822 1.379 1_545 S
C816 N824 1.356 . S
C817 C816 1.363 1_554 S
C817 C823 1.363 . S
C818 C819 1.363 1_554 S
C818 C823 1.379 1_565 S
C818 N825 1.356 . S
C819 C818 1.363 1_556 S
C819 C822 1.363 . S
N820 C822 1.356 . S
N820 H832 0.989 . S
N820 H833 0.985 . S
N821 C823 1.356 . S
N821 H826 0.984 . S
N821 H827 0.989 . S
C822 C816 1.379 1_565 S
C822 C819 1.363 . S
C822 N820 1.356 . S
C823 C817 1.363 . S
C823 C818 1.379 1_545 S
C823 N821 1.356 . S
N824 C816 1.356 . S
N824 H830 0.984 . S
N824 H831 0.984 1_556 S
N825 C818 1.356 . S
N825 H828 0.984 1_554 S
N825 H829 0.985 . S
H826 N821 0.984 . S
H827 N821 0.989 . S
H828 N825 0.984 1_556 S
H829 N825 0.985 . S
H830 N824 0.984 . S
H831 N824 0.984 1_554 S
H832 N820 0.989 . S
H833 N820 0.985 . S
C834 C835 1.363 . S
C834 C840 1.379 1_565 S
C834 N842 1.356 . S
C835 C834 1.363 . S
C835 C841 1.363 . S
C836 C837 1.363 . S
C836 C841 1.379 1_545 S
C836 N843 1.356 . S
C837 C836 1.363 . S
C837 C840 1.363 . S
N838 C840 1.356 . S
N838 H850 0.984 . S
N838 H851 0.985 . S
N839 C841 1.356 . S
N839 H844 0.984 . S
N839 H845 0.985 . S
C840 C834 1.379 1_545 S
C840 C837 1.363 . S
C840 N838 1.356 . S
C841 C835 1.363 . S
C841 C836 1.379 1_565 S
C841 N839 1.356 . S
N842 C834 1.356 . S
N842 H848 0.984 1_565 S
N842 H849 0.984 . S
N843 C836 1.356 . S
N843 H846 0.984 . S
N843 H847 0.985 1_545 S
H844 N839 0.984 . S
H845 N839 0.985 . S
H846 N843 0.984 . S
H847 N843 0.985 1_565 S
H848 N842 0.984 1_545 S
H849 N842 0.984 . S
H850 N838 0.984 . S
H851 N838 0.985 . S
C852 C853 1.363 1_554 S
C852 C858 1.379 . S
C852 N860 1.356 . S
C853 C852 1.363 1_556 S
C853 C859 1.363 1_565 S
C854 C855 1.363 1_556 S
C854 C859 1.379 . S
C854 N861 1.356 . S
C855 C854 1.363 1_554 S
C855 C858 1.363 1_545 S
N856 C858 1.356 1_545 S
N856 H868 0.984 1_545 S
N856 H869 0.985 . S
N857 C859 1.356 1_565 S
N857 H862 0.984 . S
N857 H863 0.985 1_565 S
C858 C852 1.379 . S
C858 C855 1.363 1_565 S
C858 N856 1.356 1_565 S
C859 C853 1.363 1_545 S
C859 C854 1.379 . S
C859 N857 1.356 1_545 S
N860 C852 1.356 . S
N860 H866 0.984 . S
N860 H867 0.984 1_554 S
N861 C854 1.356 . S
N861 H864 0.984 1_556 S
N861 H865 0.985 . S
H862 N857 0.984 . S
H863 N857 0.985 1_545 S
H864 N861 0.984 1_554 S
H865 N861 0.985 . S
H866 N860 0.984 . S
H867 N860 0.984 1_556 S
H868 N856 0.984 1_565 S
H869 N856 0.985 . S
C870 C871 1.363 . S
C870 C876 1.359 1_545 S
C870 N878 1.356 . S
C871 C870 1.363 . S
C871 C877 1.383 . S
C872 C873 1.363 . S
C872 C877 1.359 1_565 S
C872 N879 1.356 . S
C873 C872 1.363 . S
C873 C876 1.383 . S
N874 C876 1.363 . S
N874 H886 0.984 1_565 S
N874 H887 0.985 . S
N875 C877 1.363 . S
N875 H880 0.984 . S
N875 H881 0.985 1_545 S
C876 C870 1.359 1_565 S
C876 C873 1.383 . S
C876 N874 1.363 . S
C877 C871 1.383 . S
C877 C872 1.359 1_545 S
C877 N875 1.363 . S
N878 C870 1.356 . S
N878 H884 0.984 . S
N878 H885 0.984 . S
N879 C872 1.356 . S
N879 H882 0.984 . S
N879 H883 0.985 . S
H880 N875 0.984 . S
H881 N875 0.985 1_565 S
H882 N879 0.984 . S
H883 N879 0.985 . S
H884 N878 0.984 . S
H885 N878 0.984 . S
H886 N874 0.984 1_545 S
H887 N874 0.985 . S
C888 C889 1.361 1_556 S
C888 C894 1.381 . S
C888 N896 1.356 1_556 S
C889 C888 1.361 1_554 S
C889 C895 1.363 . S
C890 C891 1.361 1_554 S
C890 C895 1.381 . S
C890 N897 1.356 1_554 S
C891 C890 1.361 1_556 S
C891 C894 1.363 . S
N892 C894 1.356 . S
N892 H904 0.984 . S
N892 H905 0.985 . S
N893 C895 1.356 . S
N893 H898 0.984 . S
N893 H899 0.985 . S
C894 C888 1.381 . S
C894 C891 1.363 . S
C894 N892 1.356 . S
C895 C889 1.363 . S
C895 C890 1.381 . S
C895 N893 1.356 . S
N896 C888 1.356 1_554 S
N896 H902 0.984 1_554 S
N896 H903 0.984 . S
N897 C890 1.356 1_556 S
N897 H900 0.984 . S
N897 H901 0.985 1_556 S
H898 N893 0.984 . S
H899 N893 0.985 . S
H900 N897 0.984 . S
H901 N897 0.985 1_554 S
H902 N896 0.984 1_556 S
H903 N896 0.984 . S
H904 N892 0.984 . S
H905 N892 0.985 . S
C906 C907 1.363 . S
C906 C912 1.379 . S
C906 N914 1.356 . S
C907 C906 1.363 . S
C907 C913 1.363 . S
C908 C909 1.363 . S
C908 C913 1.379 . S
C908 N915 1.356 . S
C909 C908 1.363 . S
C909 C912 1.363 . S
N910 C912 1.356 . S
N910 H922 0.984 . S
N910 H923 0.985 . S
N911 C913 1.356 . S
N911 H916 0.984 . S
N911 H917 0.985 . S
C912 C906 1.379 . S
C912 C909 1.363 . S
C912 N910 1.356 . S
C913 C907 1.363 . S
C913 C908 1.379 . S
C913 N911 1.356 . S
N914 C906 1.356 . S
N914 H920 0.984 . S
N914 H921 0.984 . S
N915 C908 1.356 . S
N915 H918 0.984 . S
N915 H919 0.985 . S
H916 N911 0.984 . S
H917 N911 0.985 . S
H918 N915 0.984 . S
H919 N915 0.985 . S
H920 N914 0.984 . S
H921 N914 0.984 . S
H922 N910 0.984 . S
H923 N910 0.985 . S
C924 C925 1.363 . S
C924 C930 1.379 1_556 S
C924 N932 1.356 . S
C925 C924 1.363 . S
C925 C931 1.363 . S
C926 C927 1.363 . S
C926 C931 1.379 1_554 S
C926 N933 1.356 . S
C927 C926 1.363 . S
C927 C930 1.363 . S
N928 C930 1.356 . S
N928 H940 0.984 . S
N928 H941 0.985 . S
N929 C931 1.356 . S
N929 H934 0.984 . S
N929 H935 0.985 . S
C930 C924 1.379 1_554 S
C930 C927 1.363 . S
C930 N928 1.356 . S
C931 C925 1.363 . S
C931 C926 1.379 1_556 S
C931 N929 1.356 . S
N932 C924 1.356 . S
N932 H938 0.984 . S
N932 H939 0.984 . S
N933 C926 1.356 . S
N933 H936 0.984 . S
N933 H937 0.985 . S
H934 N929 0.984 . S
H935 N929 0.985 . S
H936 N933 0.984 . S
H937 N933 0.985 . S
H938 N932 0.984 . S
H939 N932 0.984 . S
H940 N928 0.984 . S
H941 N928 0.985 . S
C942 C943 1.363 . S
C942 C948 1.379 . S
C942 N950 1.356 . S
C943 C942 1.363 . S
C943 C949 1.363 . S
C944 C945 1.363 . S
C944 C949 1.379 . S
C944 N951 1.356 . S
C945 C944 1.363 . S
C945 C948 1.363 . S
N946 C948 1.356 . S
N946 H958 0.984 . S
N946 H959 0.985 . S
N947 C949 1.356 . S
N947 H952 0.984 . S
N947 H953 0.985 . S
C948 C942 1.379 . S
C948 C945 1.363 . S
C948 N946 1.356 . S
C949 C943 1.363 . S
C949 C944 1.379 . S
C949 N947 1.356 . S
N950 C942 1.356 . S
N950 H956 0.984 . S
N950 H957 0.984 . S
N951 C944 1.356 . S
N951 H954 0.984 . S
N951 H955 0.985 . S
H952 N947 0.984 . S
H953 N947 0.985 . S
H954 N951 0.984 . S
H955 N951 0.985 . S
H956 N950 0.984 . S
H957 N950 0.984 . S
H958 N946 0.984 . S
H959 N946 0.985 . S
C960 C961 1.363 . S
C960 C966 1.379 . S
C960 N968 1.356 . S
C961 C960 1.363 . S
C961 C967 1.363 . S
C962 C963 1.363 . S
C962 C967 1.379 . S
C962 N969 1.356 . S
C963 C962 1.363 . S
C963 C966 1.363 . S
N964 C966 1.356 . S
N964 H976 0.984 . S
N964 H977 0.985 . S
N965 C967 1.356 . S
N965 H970 0.984 . S
N965 H971 0.985 . S
C966 C960 1.379 . S
C966 C963 1.363 . S
C966 N964 1.356 . S
C967 C961 1.363 . S
C967 C962 1.379 . S
C967 N965 1.356 . S
N968 C960 1.356 . S
N968 H974 0.984 . S
N968 H975 0.984 . S
N969 C962 1.356 . S
N969 H972 0.984 . S
N969 H973 0.985 . S
H970 N965 0.984 . S
H971 N965 0.985 . S
H972 N969 0.984 . S
H973 N969 0.985 . S
H974 N968 0.984 . S
H975 N968 0.984 . S
H976 N964 0.984 . S
H977 N964 0.985 . S
C978 C979 1.363 . S
C978 C984 1.379 . S
C978 N986 1.356 . S
C979 C978 1.363 . S
C979 C985 1.363 . S
C980 C981 1.363 . S
C980 C985 1.379 . S
C980 N987 1.356 . S
C981 C980 1.363 . S
C981 C984 1.363 . S
N982 C984 1.356 . S
N982 H994 0.984 . S
N982 H995 0.985 . S
N983 C985 1.356 . S
N983 H988 0.984 . S
N983 H989 0.985 . S
C984 C978 1.379 . S
C984 C981 1.363 . S
C984 N982 1.356 . S
C985 C979 1.363 . S
C985 C980 1.379 . S
C985 N983 1.356 . S
N986 C978 1.356 . S
N986 H992 0.984 . S
N986 H993 0.984 . S
N987 C980 1.356 . S
N987 H990 0.984 . S
N987 H991 0.985 . S
H988 N983 0.984 . S
H989 N983 0.985 . S
H990 N987 0.984 . S
H991 N987 0.985 . S
H992 N986 0.984 . S
H993 N986 0.984 . S
H994 N982 0.984 . S
H995 N982 0.985 . S
C996 C997 1.363 . S
C996 C1002 1.379 . S
C996 N1004 1.356 . S
C997 C996 1.363 . S
C997 C1003 1.363 . S
C998 C999 1.363 . S
C998 C1003 1.379 . S
C998 N1005 1.356 . S
C999 C998 1.363 . S
C999 C1002 1.363 . S
N1000 C1002 1.356 . S
N1000 H1012 0.984 . S
N1000 H1013 0.985 . S
N1001 C1003 1.356 . S
N1001 H1006 0.984 . S
N1001 H1007 0.985 . S
C1002 C996 1.379 . S
C1002 C999 1.363 . S
C1002 N1000 1.356 . S
C1003 C997 1.363 . S
C1003 C998 1.379 . S
C1003 N1001 1.356 . S
N1004 C996 1.356 . S
N1004 H1010 0.984 . S
N1004 H1011 0.984 . S
N1005 C998 1.356 . S
N1005 H1008 0.984 . S
N1005 H1009 0.985 . S
H1006 N1001 0.984 . S
H1007 N1001 0.985 . S
H1008 N1005 0.984 . S
H1009 N1005 0.985 . S
H1010 N1004 0.984 . S
H1011 N1004 0.984 . S
H1012 N1000 0.984 . S
H1013 N1000 0.985 . S
C1014 C1015 1.363 . S
C1014 C1020 1.379 . S
C1014 N1022 1.356 . S
C1015 C1014 1.363 . S
C1015 C1021 1.363 . S
C1016 C1017 1.363 . S
C1016 C1021 1.379 . S
C1016 N1023 1.356 . S
C1017 C1016 1.363 . S
C1017 C1020 1.363 . S
N1018 C1020 1.356 . S
N1018 H1030 0.984 . S
N1018 H1031 0.985 . S
N1019 C1021 1.356 . S
N1019 H1024 0.984 . S
N1019 H1025 0.985 . S
C1020 C1014 1.379 . S
C1020 C1017 1.363 . S
C1020 N1018 1.356 . S
C1021 C1015 1.363 . S
C1021 C1016 1.379 . S
C1021 N1019 1.356 . S
N1022 C1014 1.356 . S
N1022 H1028 0.984 . S
N1022 H1029 0.984 . S
N1023 C1016 1.356 . S
N1023 H1026 0.984 . S
N1023 H1027 0.985 . S
H1024 N1019 0.984 . S
H1025 N1019 0.985 . S
H1026 N1023 0.984 . S
H1027 N1023 0.985 . S
H1028 N1022 0.984 . S
H1029 N1022 0.984 . S
H1030 N1018 0.984 . S
H1031 N1018 0.985 . S
C1032 C1033 1.363 . S
C1032 C1038 1.379 . S
C1032 N1040 1.356 . S
C1033 C1032 1.363 . S
C1033 C1039 1.363 . S
C1034 C1035 1.363 . S
C1034 C1039 1.379 . S
C1034 N1041 1.356 . S
C1035 C1034 1.363 . S
C1035 C1038 1.363 . S
N1036 C1038 1.356 . S
N1036 H1048 0.984 . S
N1036 H1049 0.985 . S
N1037 C1039 1.356 . S
N1037 H1042 0.984 . S
N1037 H1043 0.985 . S
C1038 C1032 1.379 . S
C1038 C1035 1.363 . S
C1038 N1036 1.356 . S
C1039 C1033 1.363 . S
C1039 C1034 1.379 . S
C1039 N1037 1.356 . S
N1040 C1032 1.356 . S
N1040 H1046 0.984 . S
N1040 H1047 0.984 . S
N1041 C1034 1.356 . S
N1041 H1044 0.984 . S
N1041 H1045 0.985 . S
H1042 N1037 0.984 . S
H1043 N1037 0.985 . S
H1044 N1041 0.984 . S
H1045 N1041 0.985 . S
H1046 N1040 0.984 . S
H1047 N1040 0.984 . S
H1048 N1036 0.984 . S
H1049 N1036 0.985 . S
C1050 C1051 1.363 . S
C1050 C1056 1.379 . S
C1050 N1058 1.356 . S
C1051 C1050 1.363 . S
C1051 C1057 1.363 . S
C1052 C1053 1.363 . S
C1052 C1057 1.379 . S
C1052 N1059 1.356 . S
C1053 C1052 1.363 . S
C1053 C1056 1.363 . S
N1054 C1056 1.356 . S
N1054 H1066 0.984 . S
N1054 H1067 0.985 . S
N1055 C1057 1.356 . S
N1055 H1060 0.984 . S
N1055 H1061 0.985 . S
C1056 C1050 1.379 . S
C1056 C1053 1.363 . S
C1056 N1054 1.356 . S
C1057 C1051 1.363 . S
C1057 C1052 1.379 . S
C1057 N1055 1.356 . S
N1058 C1050 1.356 . S
N1058 H1064 0.984 . S
N1058 H1065 0.984 . S
N1059 C1052 1.356 . S
N1059 H1062 0.984 . S
N1059 H1063 0.985 . S
H1060 N1055 0.984 . S
H1061 N1055 0.985 . S
H1062 N1059 0.984 . S
H1063 N1059 0.985 . S
H1064 N1058 0.984 . S
H1065 N1058 0.984 . S
H1066 N1054 0.984 . S
H1067 N1054 0.985 . S
C1068 C1069 1.363 . S
C1068 C1074 1.379 . S
C1068 N1076 1.356 . S
C1069 C1068 1.363 . S
C1069 C1075 1.363 . S
C1070 C1071 1.363 . S
C1070 C1075 1.379 . S
C1070 N1077 1.356 . S
C1071 C1070 1.363 . S
C1071 C1074 1.363 . S
N1072 C1074 1.356 . S
N1072 H1084 0.984 . S
N1072 H1085 0.985 . S
N1073 C1075 1.356 . S
N1073 H1078 0.984 . S
N1073 H1079 0.985 . S
C1074 C1068 1.379 . S
C1074 C1071 1.363 . S
C1074 N1072 1.356 . S
C1075 C1069 1.363 . S
C1075 C1070 1.379 . S
C1075 N1073 1.356 . S
N1076 C1068 1.356 . S
N1076 H1082 0.984 . S
N1076 H1083 0.984 . S
N1077 C1070 1.356 . S
N1077 H1080 0.984 . S
N1077 H1081 0.985 . S
H1078 N1073 0.984 . S
H1079 N1073 0.985 . S
H1080 N1077 0.984 . S
H1081 N1077 0.985 . S
H1082 N1076 0.984 . S
H1083 N1076 0.984 . S
H1084 N1072 0.984 . S
H1085 N1072 0.985 . S
C1086 C1087 1.363 . S
C1086 C1092 1.379 . S
C1086 N1094 1.356 . S
C1087 C1086 1.363 . S
C1087 C1093 1.363 . S
C1088 C1089 1.363 . S
C1088 C1093 1.379 . S
C1088 N1095 1.356 . S
C1089 C1088 1.363 . S
C1089 C1092 1.363 . S
N1090 C1092 1.356 . S
N1090 H1102 0.984 . S
N1090 H1103 0.985 . S
N1091 C1093 1.356 . S
N1091 H1096 0.984 . S
N1091 H1097 0.985 . S
C1092 C1086 1.379 . S
C1092 C1089 1.363 . S
C1092 N1090 1.356 . S
C1093 C1087 1.363 . S
C1093 C1088 1.379 . S
C1093 N1091 1.356 . S
N1094 C1086 1.356 . S
N1094 H1100 0.984 . S
N1094 H1101 0.984 . S
N1095 C1088 1.356 . S
N1095 H1098 0.984 . S
N1095 H1099 0.985 . S
H1096 N1091 0.984 . S
H1097 N1091 0.985 . S
H1098 N1095 0.984 . S
H1099 N1095 0.985 . S
H1100 N1094 0.984 . S
H1101 N1094 0.984 . S
H1102 N1090 0.984 . S
H1103 N1090 0.985 . S
C1104 C1105 1.363 . S
C1104 C1110 1.379 . S
C1104 N1112 1.356 . S
C1105 C1104 1.363 . S
C1105 C1111 1.363 . S
C1106 C1107 1.363 . S
C1106 C1111 1.379 . S
C1106 N1113 1.356 . S
C1107 C1106 1.363 . S
C1107 C1110 1.363 . S
N1108 C1110 1.356 . S
N1108 H1120 0.984 . S
N1108 H1121 0.985 . S
N1109 C1111 1.356 . S
N1109 H1114 0.984 . S
N1109 H1115 0.985 . S
C1110 C1104 1.379 . S
C1110 C1107 1.363 . S
C1110 N1108 1.356 . S
C1111 C1105 1.363 . S
C1111 C1106 1.379 . S
C1111 N1109 1.356 . S
N1112 C1104 1.356 . S
N1112 H1118 0.984 . S
N1112 H1119 0.984 . S
N1113 C1106 1.356 . S
N1113 H1116 0.984 . S
N1113 H1117 0.985 . S
H1114 N1109 0.984 . S
H1115 N1109 0.985 . S
H1116 N1113 0.984 . S
H1117 N1113 0.985 . S
H1118 N1112 0.984 . S
H1119 N1112 0.984 . S
H1120 N1108 0.984 . S
H1121 N1108 0.985 . S
C1122 C1123 1.363 . S
C1122 C1128 1.379 . S
C1122 N1130 1.356 . S
C1123 C1122 1.363 . S
C1123 C1129 1.363 . S
C1124 C1125 1.363 . S
C1124 C1129 1.379 . S
C1124 N1131 1.356 . S
C1125 C1124 1.363 . S
C1125 C1128 1.363 . S
N1126 C1128 1.356 . S
N1126 H1138 0.984 . S
N1126 H1139 0.985 . S
N1127 C1129 1.356 . S
N1127 H1132 0.984 . S
N1127 H1133 0.985 . S
C1128 C1122 1.379 . S
C1128 C1125 1.363 . S
C1128 N1126 1.356 . S
C1129 C1123 1.363 . S
C1129 C1124 1.379 . S
C1129 N1127 1.356 . S
N1130 C1122 1.356 . S
N1130 H1136 0.984 . S
N1130 H1137 0.984 . S
N1131 C1124 1.356 . S
N1131 H1134 0.984 . S
N1131 H1135 0.985 . S
H1132 N1127 0.984 . S
H1133 N1127 0.985 . S
H1134 N1131 0.984 . S
H1135 N1131 0.985 . S
H1136 N1130 0.984 . S
H1137 N1130 0.984 . S
H1138 N1126 0.984 . S
H1139 N1126 0.985 . S
C1140 C1141 1.363 . S
C1140 C1146 1.379 . S
C1140 N1148 1.356 . S
C1141 C1140 1.363 . S
C1141 C1147 1.363 . S
C1142 C1143 1.363 . S
C1142 C1147 1.379 . S
C1142 N1149 1.356 . S
C1143 C1142 1.363 . S
C1143 C1146 1.363 . S
N1144 C1146 1.356 . S
N1144 H1156 0.984 . S
N1144 H1157 0.985 . S
N1145 C1147 1.356 . S
N1145 H1150 0.984 . S
N1145 H1151 0.985 . S
C1146 C1140 1.379 . S
C1146 C1143 1.363 . S
C1146 N1144 1.356 . S
C1147 C1141 1.363 . S
C1147 C1142 1.379 . S
C1147 N1145 1.356 . S
N1148 C1140 1.356 . S
N1148 H1154 0.984 . S
N1148 H1155 0.984 . S
N1149 C1142 1.356 . S
N1149 H1152 0.984 . S
N1149 H1153 0.985 . S
H1150 N1145 0.984 . S
H1151 N1145 0.985 . S
H1152 N1149 0.984 . S
H1153 N1149 0.985 . S
H1154 N1148 0.984 . S
H1155 N1148 0.984 . S
H1156 N1144 0.984 . S
H1157 N1144 0.985 . S
C1158 C1159 1.363 . S
C1158 C1164 1.379 . S
C1158 N1166 1.356 . S
C1159 C1158 1.363 . S
C1159 C1165 1.363 . S
C1160 C1161 1.363 . S
C1160 C1165 1.379 . S
C1160 N1167 1.356 . S
C1161 C1160 1.363 . S
C1161 C1164 1.363 . S
N1162 C1164 1.356 . S
N1162 H1174 0.984 . S
N1162 H1175 0.985 . S
N1163 C1165 1.356 . S
N1163 H1168 0.984 . S
N1163 H1169 0.985 . S
C1164 C1158 1.379 . S
C1164 C1161 1.363 . S
C1164 N1162 1.356 . S
C1165 C1159 1.363 . S
C1165 C1160 1.379 . S
C1165 N1163 1.356 . S
N1166 C1158 1.356 . S
N1166 H1172 0.984 . S
N1166 H1173 0.984 . S
N1167 C1160 1.356 . S
N1167 H1170 0.984 . S
N1167 H1171 0.985 . S
H1168 N1163 0.984 . S
H1169 N1163 0.985 . S
H1170 N1167 0.984 . S
H1171 N1167 0.985 . S
H1172 N1166 0.984 . S
H1173 N1166 0.984 . S
H1174 N1162 0.984 . S
H1175 N1162 0.985 . S
C1176 C1177 1.363 . S
C1176 C1182 1.379 . S
C1176 N1184 1.356 . S
C1177 C1176 1.363 . S
C1177 C1183 1.363 . S
C1178 C1179 1.363 . S
C1178 C1183 1.379 . S
C1178 N1185 1.356 . S
C1179 C1178 1.363 . S
C1179 C1182 1.363 . S
N1180 C1182 1.356 . S
N1180 H1192 0.984 . S
N1180 H1193 0.985 . S
N1181 C1183 1.356 . S
N1181 H1186 0.984 . S
N1181 H1187 0.985 . S
C1182 C1176 1.379 . S
C1182 C1179 1.363 . S
C1182 N1180 1.356 . S
C1183 C1177 1.363 . S
C1183 C1178 1.379 . S
C1183 N1181 1.356 . S
N1184 C1176 1.356 . S
N1184 H1190 0.984 . S
N1184 H1191 0.984 . S
N1185 C1178 1.356 . S
N1185 H1188 0.984 . S
N1185 H1189 0.985 . S
H1186 N1181 0.984 . S
H1187 N1181 0.985 . S
H1188 N1185 0.984 . S
H1189 N1185 0.985 . S
H1190 N1184 0.984 . S
H1191 N1184 0.984 . S
H1192 N1180 0.984 . S
H1193 N1180 0.985 . S
C1194 C1195 1.363 . S
C1194 C1200 1.379 . S
C1194 N1202 1.356 . S
C1195 C1194 1.363 . S
C1195 C1201 1.363 . S
C1196 C1197 1.363 . S
C1196 C1201 1.379 . S
C1196 N1203 1.356 . S
C1197 C1196 1.363 . S
C1197 C1200 1.363 . S
N1198 C1200 1.356 . S
N1198 H1210 0.984 . S
N1198 H1211 0.985 . S
N1199 C1201 1.356 . S
N1199 H1204 0.984 . S
N1199 H1205 0.985 . S
C1200 C1194 1.379 . S
C1200 C1197 1.363 . S
C1200 N1198 1.356 . S
C1201 C1195 1.363 . S
C1201 C1196 1.379 . S
C1201 N1199 1.356 . S
N1202 C1194 1.356 . S
N1202 H1208 0.984 . S
N1202 H1209 0.984 . S
N1203 C1196 1.356 . S
N1203 H1206 0.984 . S
N1203 H1207 0.985 . S
H1204 N1199 0.984 . S
H1205 N1199 0.985 . S
H1206 N1203 0.984 . S
H1207 N1203 0.985 . S
H1208 N1202 0.984 . S
H1209 N1202 0.984 . S
H1210 N1198 0.984 . S
H1211 N1198 0.985 . S
C1212 C1213 1.363 . S
C1212 C1218 1.379 . S
C1212 N1220 1.356 . S
C1213 C1212 1.363 . S
C1213 C1219 1.363 . S
C1214 C1215 1.363 . S
C1214 C1219 1.379 . S
C1214 N1221 1.356 . S
C1215 C1214 1.363 . S
C1215 C1218 1.363 . S
N1216 C1218 1.356 . S
N1216 H1228 0.984 . S
N1216 H1229 0.985 . S
N1217 C1219 1.356 . S
N1217 H1222 0.984 . S
N1217 H1223 0.985 . S
C1218 C1212 1.379 . S
C1218 C1215 1.363 . S
C1218 N1216 1.356 . S
C1219 C1213 1.363 . S
C1219 C1214 1.379 . S
C1219 N1217 1.356 . S
N1220 C1212 1.356 . S
N1220 H1226 0.984 . S
N1220 H1227 0.984 . S
N1221 C1214 1.356 . S
N1221 H1224 0.984 . S
N1221 H1225 0.985 . S
H1222 N1217 0.984 . S
H1223 N1217 0.985 . S
H1224 N1221 0.984 . S
H1225 N1221 0.985 . S
H1226 N1220 0.984 . S
H1227 N1220 0.984 . S
H1228 N1216 0.984 . S
H1229 N1216 0.985 . S
C1230 C1231 1.363 . S
C1230 C1236 1.379 . S
C1230 N1238 1.356 . S
C1231 C1230 1.363 . S
C1231 C1237 1.363 . S
C1232 C1233 1.363 . S
C1232 C1237 1.379 . S
C1232 N1239 1.356 . S
C1233 C1232 1.363 . S
C1233 C1236 1.363 . S
N1234 C1236 1.356 . S
N1234 H1246 0.984 . S
N1234 H1247 0.985 . S
N1235 C1237 1.356 . S
N1235 H1240 0.984 . S
N1235 H1241 0.985 . S
C1236 C1230 1.379 . S
C1236 C1233 1.363 . S
C1236 N1234 1.356 . S
C1237 C1231 1.363 . S
C1237 C1232 1.379 . S
C1237 N1235 1.356 . S
N1238 C1230 1.356 . S
N1238 H1244 0.984 . S
N1238 H1245 0.984 . S
N1239 C1232 1.356 . S
N1239 H1242 0.984 . S
N1239 H1243 0.985 . S
H1240 N1235 0.984 . S
H1241 N1235 0.985 . S
H1242 N1239 0.984 . S
H1243 N1239 0.985 . S
H1244 N1238 0.984 . S
H1245 N1238 0.984 . S
H1246 N1234 0.984 . S
H1247 N1234 0.985 . S
C529 N14 1.903 . S
C531 N113 1.903 . S
C547 N80 1.903 . S
C549 N47 1.903 . S
C565 N245 1.903 . S
C567 N146 1.903 . S
C583 N179 1.903 . S
C585 N212 1.903 . S
C601 N278 1.903 . S
C603 N377 1.903 . S
C619 N311 1.903 . S
C621 N344 1.903 . S
C637 N509 1.903 . S
C639 N410 1.903 . S
C655 N443 1.903 . S
C657 N476 1.903 . S
C673 N203 1.612 . S
C675 N5 1.612 . S
C691 N236 1.612 . S
C693 N38 1.612 . S
C709 N137 1.612 . S
C711 N71 1.612 . S
C727 N170 1.612 . S
C729 N104 1.612 . S
C745 N467 1.612 . S
C747 N269 1.612 . S
C763 N500 1.612 . S
C765 N302 1.612 . S
C781 N401 1.612 . S
C783 N335 1.612 . S
C799 N368 1.612 . S
C801 N434 1.612 . S
C817 C28 1.648 . S
C819 C94 1.648 . S
C835 C61 1.648 . S
C837 C127 1.648 . S
C853 C160 1.648 . S
C855 C226 1.648 . S
C871 C193 1.648 . S
C873 C259 1.648 . S
C889 C292 1.648 . S
C891 C358 1.648 . S
C907 C325 1.648 . S
C909 C391 1.648 . S
C925 C424 1.648 . S
C927 C490 1.648 . S
C943 C457 1.648 . S
C945 C523 1.648 . S
C961 C503 1.186 . S
C963 C17 1.190 . S
C979 C50 1.190 . S
C981 C470 1.187 . S
C997 C83 1.190 . S
C999 C437 1.186 . S
C1015 C404 1.187 . S
C1017 C116 1.190 . S
C1033 C371 1.186 . S
C1035 C149 1.190 . S
C1051 C182 1.190 . S
C1053 C338 1.187 . S
C1069 C215 1.190 . S
C1071 C305 1.186 . S
C1087 C248 1.190 . S
C1089 C272 1.187 . S
C1105 C281 1.190 . S
C1107 C239 1.186 . S
C1123 C206 1.187 . S
C1125 C314 1.190 . S
C1141 C173 1.186 . S
C1143 C347 1.190 . S
C1159 C380 1.190 . S
C1161 C140 1.187 . S
C1177 C413 1.190 . S
C1179 C107 1.186 . S
C1195 C74 1.187 . S
C1197 C446 1.190 . S
C1213 C41 1.186 . S
C1215 C479 1.190 . S
C1231 C8 1.187 . S
C1233 C512 1.190 . S
