# Generated by pormake.
# Topology gsi, (4)-cn, num edge types: 1
# Building blocks:
#     Node 0, Type 0, BuildingBlock: AZAVOO_clean_sbu_0, # of connection points: 4
#     Node 1, Type 0, BuildingBlock: AZAVOO_clean_sbu_0, # of connection points: 4
#     Node 2, Type 0, BuildingBlock: AZAVOO_clean_sbu_0, # of connection points: 4
#     Node 3, Type 0, BuildingBlock: AZAVOO_clean_sbu_0, # of connection points: 4
#     Node 4, Type 0, BuildingBlock: AZAVOO_clean_sbu_0, # of connection points: 4
#     Node 5, Type 0, BuildingBlock: AZAVOO_clean_sbu_0, # of connection points: 4
#     Node 6, Type 0, BuildingBlock: AZAVOO_clean_sbu_0, # of connection points: 4
#     Node 7, Type 0, BuildingBlock: AZAVOO_clean_sbu_0, # of connection points: 4
#     Node 8, Type 0, BuildingBlock: AZAVOO_clean_sbu_0, # of connection points: 4
#     Node 9, Type 0, BuildingBlock: AZAVOO_clean_sbu_0, # of connection points: 4
#     Node 10, Type 0, BuildingBlock: AZAVOO_clean_sbu_0, # of connection points: 4
#     Node 11, Type 0, BuildingBlock: AZAVOO_clean_sbu_0, # of connection points: 4
#     Node 12, Type 0, BuildingBlock: AZAVOO_clean_sbu_0, # of connection points: 4
#     Node 13, Type 0, BuildingBlock: AZAVOO_clean_sbu_0, # of connection points: 4
#     Node 14, Type 0, BuildingBlock: AZAVOO_clean_sbu_0, # of connection points: 4
#     Node 15, Type 0, BuildingBlock: AZAVOO_clean_sbu_0, # of connection points: 4
#     Edge 16, Type (0, 0), BuildingBlock: UVAHIK_clean_linker_0, # of connection points: 2
#     Edge 17, Type (0, 0), BuildingBlock: UVAHIK_clean_linker_0, # of connection points: 2
#     Edge 18, Type (0, 0), BuildingBlock: UVAHIK_clean_linker_0, # of connection points: 2
#     Edge 19, Type (0, 0), BuildingBlock: UVAHIK_clean_linker_0, # of connection points: 2
#     Edge 20, Type (0, 0), BuildingBlock: UVAHIK_clean_linker_0, # of connection points: 2
#     Edge 21, Type (0, 0), BuildingBlock: UVAHIK_clean_linker_0, # of connection points: 2
#     Edge 22, Type (0, 0), BuildingBlock: UVAHIK_clean_linker_0, # of connection points: 2
#     Edge 23, Type (0, 0), BuildingBlock: UVAHIK_clean_linker_0, # of connection points: 2
#     Edge 24, Type (0, 0), BuildingBlock: UVAHIK_clean_linker_0, # of connection points: 2
#     Edge 25, Type (0, 0), BuildingBlock: UVAHIK_clean_linker_0, # of connection points: 2
#     Edge 26, Type (0, 0), BuildingBlock: UVAHIK_clean_linker_0, # of connection points: 2
#     Edge 27, Type (0, 0), BuildingBlock: UVAHIK_clean_linker_0, # of connection points: 2
#     Edge 28, Type (0, 0), BuildingBlock: UVAHIK_clean_linker_0, # of connection points: 2
#     Edge 29, Type (0, 0), BuildingBlock: UVAHIK_clean_linker_0, # of connection points: 2
#     Edge 30, Type (0, 0), BuildingBlock: UVAHIK_clean_linker_0, # of connection points: 2
#     Edge 31, Type (0, 0), BuildingBlock: UVAHIK_clean_linker_0, # of connection points: 2
#     Edge 32, Type (0, 0), BuildingBlock: UVAHIK_clean_linker_0, # of connection points: 2
#     Edge 33, Type (0, 0), BuildingBlock: UVAHIK_clean_linker_0, # of connection points: 2
#     Edge 34, Type (0, 0), BuildingBlock: UVAHIK_clean_linker_0, # of connection points: 2
#     Edge 35, Type (0, 0), BuildingBlock: UVAHIK_clean_linker_0, # of connection points: 2
#     Edge 36, Type (0, 0), BuildingBlock: UVAHIK_clean_linker_0, # of connection points: 2
#     Edge 37, Type (0, 0), BuildingBlock: UVAHIK_clean_linker_0, # of connection points: 2
#     Edge 38, Type (0, 0), BuildingBlock: UVAHIK_clean_linker_0, # of connection points: 2
#     Edge 39, Type (0, 0), BuildingBlock: UVAHIK_clean_linker_0, # of connection points: 2
#     Edge 40, Type (0, 0), BuildingBlock: UVAHIK_clean_linker_0, # of connection points: 2
#     Edge 41, Type (0, 0), BuildingBlock: UVAHIK_clean_linker_0, # of connection points: 2
#     Edge 42, Type (0, 0), BuildingBlock: UVAHIK_clean_linker_0, # of connection points: 2
#     Edge 43, Type (0, 0), BuildingBlock: UVAHIK_clean_linker_0, # of connection points: 2
#     Edge 44, Type (0, 0), BuildingBlock: UVAHIK_clean_linker_0, # of connection points: 2
#     Edge 45, Type (0, 0), BuildingBlock: UVAHIK_clean_linker_0, # of connection points: 2
#     Edge 46, Type (0, 0), BuildingBlock: UVAHIK_clean_linker_0, # of connection points: 2
#     Edge 47, Type (0, 0), BuildingBlock: UVAHIK_clean_linker_0, # of connection points: 2
# Relax obj value: 0.021
# Max RMSD: 0.029
# Mean RMSD: 0.026
data_MOF--net-gsi--node1-AZAVOO_clean_sbu_0--edge1-UVAHIK_clean_linker_0
_symmetry_space_group_name_H-M    P1
_symmetry_Int_Tables_number       1
_symmetry_cell_setting            triclinic
loop_
_symmetry_equiv_pos_as_xyz
'x, y, z'
_cell_length_a     55.616381
_cell_length_b     55.396103
_cell_length_c     54.239706
_cell_angle_alpha  90.038247
_cell_angle_beta   89.977947
_cell_angle_gamma 89.935816
loop_
_atom_site_label
_atom_site_type_symbol
_atom_site_fract_x
_atom_site_fract_y
_atom_site_fract_z
_atom_type_partial_charge
Mg0 Mg 0.15002 0.14512 0.14727 0.0
O1 O 0.17271 0.16662 0.17544 0.0
O2 O 0.20708 0.14604 0.17983 0.0
Mg3 Mg 0.20643 0.11212 0.15614 0.0
C4 C 0.19362 0.16406 0.18494 0.0
C5 C 0.10189 0.16859 0.14037 0.0
O6 O 0.09793 0.14521 0.14071 0.0
O7 O 0.17408 0.15868 0.11631 0.0
O8 O 0.20739 0.1367 0.12195 0.0
O9 O 0.13343 0.12309 0.17693 0.0
O10 O 0.16706 0.11323 0.15772 0.0
C11 C 0.19532 0.15248 0.10999 0.0
C12 C 0.15145 0.10847 0.17459 0.0
O13 O 0.12341 0.17604 0.14252 0.0
Mg14 Mg 0.85147 0.3543 0.14272 0.0
O15 O 0.82814 0.33347 0.17088 0.0
O16 O 0.79446 0.355 0.17603 0.0
Mg17 Mg 0.79545 0.38811 0.15131 0.0
C18 C 0.80756 0.33668 0.18093 0.0
C19 C 0.89896 0.33024 0.13452 0.0
O20 O 0.90263 0.35356 0.13213 0.0
O21 O 0.82759 0.34066 0.11157 0.0
O22 O 0.79407 0.36219 0.11821 0.0
O23 O 0.86742 0.3763 0.17289 0.0
O24 O 0.83474 0.38654 0.15223 0.0
C25 C 0.80601 0.34644 0.10606 0.0
C26 C 0.84962 0.39106 0.16981 0.0
O27 O 0.87772 0.32295 0.13895 0.0
Mg28 Mg 0.14742 0.85134 0.34054 0.0
O29 O 0.16993 0.83014 0.31193 0.0
O30 O 0.2043 0.85064 0.30755 0.0
Mg31 Mg 0.204 0.884 0.33205 0.0
C32 C 0.19073 0.83281 0.3022 0.0
C33 C 0.09924 0.82787 0.34708 0.0
O34 O 0.09518 0.85124 0.34693 0.0
O35 O 0.17135 0.83721 0.37129 0.0
O36 O 0.20483 0.8589 0.36587 0.0
O37 O 0.13094 0.87376 0.31116 0.0
O38 O 0.16459 0.88328 0.33047 0.0
C39 C 0.19264 0.84312 0.37766 0.0
C40 C 0.14906 0.88821 0.31357 0.0
O41 O 0.12078 0.82046 0.3449 0.0
Mg42 Mg 0.84957 0.6418 0.34511 0.0
O43 O 0.82611 0.66242 0.31701 0.0
O44 O 0.79225 0.64111 0.3126 0.0
Mg45 Mg 0.79359 0.60798 0.3374 0.0
C46 C 0.80538 0.65928 0.30731 0.0
C47 C 0.89698 0.66587 0.35299 0.0
O48 O 0.90071 0.64255 0.35541 0.0
O49 O 0.82587 0.65557 0.37629 0.0
O50 O 0.79258 0.63354 0.37091 0.0
O51 O 0.86548 0.61979 0.31501 0.0
O52 O 0.83291 0.60948 0.33583 0.0
C53 C 0.8046 0.6495 0.38265 0.0
C54 C 0.84776 0.60498 0.31819 0.0
O55 O 0.87572 0.67317 0.34864 0.0
Mg56 Mg 0.34883 0.855 0.64328 0.0
O57 O 0.32568 0.83493 0.67206 0.0
O58 O 0.29215 0.85665 0.67732 0.0
Mg59 Mg 0.29318 0.88944 0.65212 0.0
C60 C 0.30523 0.83835 0.68231 0.0
C61 C 0.38773 0.81781 0.65781 0.0
O62 O 0.38468 0.82959 0.67862 0.0
O63 O 0.32433 0.84122 0.61275 0.0
O64 O 0.29109 0.86319 0.61928 0.0
O65 O 0.36544 0.87744 0.67274 0.0
O66 O 0.33252 0.88762 0.6525 0.0
C67 C 0.30279 0.84715 0.60728 0.0
C68 C 0.34771 0.89229 0.66975 0.0
O69 O 0.37431 0.82292 0.63957 0.0
Mg70 Mg 0.86421 0.85217 0.86375 0.0
O71 O 0.83309 0.83506 0.84238 0.0
O72 O 0.79896 0.85381 0.85276 0.0
Mg73 Mg 0.80847 0.88323 0.8809 0.0
C74 C 0.81035 0.83773 0.84053 0.0
C75 C 0.91252 0.84052 0.83815 0.0
O76 O 0.91732 0.86147 0.8484 0.0
O77 O 0.86347 0.88489 0.83796 0.0
O78 O 0.8301 0.90329 0.85136 0.0
O79 O 0.85706 0.82687 0.89516 0.0
O80 O 0.84078 0.86307 0.89129 0.0
C81 C 0.84863 0.90253 0.83743 0.0
C82 C 0.84219 0.84307 0.90319 0.0
O83 O 0.89136 0.83207 0.83997 0.0
Mg84 Mg 0.14039 0.64339 0.86289 0.0
O85 O 0.17006 0.66181 0.84024 0.0
O86 O 0.20507 0.64333 0.84747 0.0
Mg87 Mg 0.19753 0.61201 0.87376 0.0
C88 C 0.19271 0.65976 0.83691 0.0
C89 C 0.11344 0.68741 0.84099 0.0
O90 O 0.13228 0.69787 0.85092 0.0
O91 O 0.1393 0.61209 0.83528 0.0
O92 O 0.17434 0.59423 0.84401 0.0
O93 O 0.14983 0.66706 0.89502 0.0
O94 O 0.16594 0.63127 0.88787 0.0
C95 C 0.15475 0.59533 0.83177 0.0
C96 C 0.16553 0.65075 0.90077 0.0
O97 O 0.11168 0.66455 0.84204 0.0
Mg98 Mg 0.86223 0.14201 0.63017 0.0
O99 O 0.83136 0.16059 0.65071 0.0
O100 O 0.79685 0.14246 0.64075 0.0
Mg101 Mg 0.80595 0.11174 0.61395 0.0
C102 C 0.80855 0.15864 0.65246 0.0
C103 C 0.9115 0.15796 0.64911 0.0
O104 O 0.91695 0.141 0.63309 0.0
O105 O 0.86073 0.11027 0.657 0.0
O106 O 0.82683 0.09234 0.64462 0.0
O107 O 0.8559 0.16653 0.59811 0.0
O108 O 0.83868 0.13088 0.60282 0.0
C109 C 0.8454 0.09317 0.65848 0.0
C110 C 0.84061 0.1506 0.59047 0.0
O111 O 0.88948 0.16228 0.6535 0.0
Mg112 Mg 0.13814 0.35579 0.62632 0.0
O113 O 0.16775 0.3369 0.64873 0.0
O114 O 0.20271 0.35556 0.64177 0.0
Mg115 Mg 0.19505 0.38743 0.61626 0.0
C116 C 0.19041 0.33893 0.65205 0.0
C117 C 0.08806 0.33668 0.63981 0.0
O118 O 0.08332 0.3516 0.62161 0.0
O119 O 0.13693 0.38649 0.65433 0.0
O120 O 0.17217 0.4045 0.64691 0.0
O121 O 0.14746 0.33232 0.59425 0.0
O122 O 0.16376 0.36803 0.60149 0.0
C123 C 0.15237 0.40296 0.65877 0.0
C124 C 0.16338 0.34846 0.58867 0.0
O125 O 0.10966 0.33458 0.6471 0.0
Mg126 Mg 0.64069 0.14414 0.36195 0.0
O127 O 0.67069 0.16214 0.33939 0.0
O128 O 0.70551 0.14351 0.34721 0.0
Mg129 Mg 0.69753 0.11255 0.37379 0.0
C130 C 0.69336 0.1599 0.33631 0.0
C131 C 0.61406 0.18809 0.33944 0.0
O132 O 0.63289 0.19858 0.34938 0.0
O133 O 0.6397 0.11256 0.33465 0.0
O134 O 0.67456 0.09461 0.34398 0.0
O135 O 0.64993 0.16806 0.39397 0.0
O136 O 0.6659 0.13212 0.38732 0.0
C137 C 0.65511 0.09569 0.3315 0.0
C138 C 0.66545 0.15169 0.40007 0.0
O139 O 0.61224 0.16524 0.34065 0.0
Mg140 Mg 0.64552 0.64811 0.648 0.0
O141 O 0.66954 0.66794 0.67619 0.0
O142 O 0.70272 0.64564 0.68112 0.0
Mg143 Mg 0.70047 0.61256 0.65633 0.0
C144 C 0.69009 0.66427 0.68611 0.0
C145 C 0.60511 0.68037 0.62789 0.0
O146 O 0.60579 0.66286 0.61155 0.0
O147 O 0.66978 0.6611 0.61684 0.0
O148 O 0.70255 0.63839 0.62322 0.0
O149 O 0.62882 0.62642 0.67791 0.0
O150 O 0.66117 0.61521 0.65718 0.0
C151 C 0.69111 0.65456 0.61117 0.0
C152 C 0.64607 0.61102 0.67466 0.0
O153 O 0.62065 0.68058 0.64506 0.0
Mg154 Mg 0.64615 0.35376 0.84132 0.0
O155 O 0.66976 0.33376 0.8129 0.0
O156 O 0.7033 0.35554 0.8084 0.0
Mg157 Mg 0.70136 0.38883 0.83302 0.0
C158 C 0.69044 0.33716 0.80318 0.0
C159 C 0.60768 0.31602 0.82703 0.0
O160 O 0.6104 0.32771 0.80615 0.0
O161 O 0.67062 0.34051 0.87208 0.0
O162 O 0.70329 0.36344 0.86657 0.0
O163 O 0.62933 0.3759 0.81173 0.0
O164 O 0.66204 0.38652 0.83205 0.0
C165 C 0.69175 0.34714 0.87833 0.0
C166 C 0.64678 0.39104 0.81482 0.0
O167 O 0.62113 0.32141 0.84515 0.0
Mg168 Mg 0.35108 0.14484 0.84268 0.0
O169 O 0.32659 0.16435 0.81471 0.0
O170 O 0.29326 0.14221 0.81049 0.0
Mg171 Mg 0.29571 0.1097 0.836 0.0
C172 C 0.30594 0.16066 0.80507 0.0
C173 C 0.3919 0.17744 0.8614 0.0
O174 O 0.39145 0.16041 0.87825 0.0
O175 O 0.32755 0.15859 0.87411 0.0
O176 O 0.29441 0.13626 0.86858 0.0
O177 O 0.3669 0.12263 0.81264 0.0
O178 O 0.33501 0.11194 0.83435 0.0
C179 C 0.30622 0.15247 0.88019 0.0
C180 C 0.34958 0.10749 0.81646 0.0
O181 O 0.37612 0.17719 0.84446 0.0
Mg182 Mg 0.36484 0.35255 0.36364 0.0
O183 O 0.33361 0.33552 0.34237 0.0
O184 O 0.2995 0.35422 0.35292 0.0
Mg185 Mg 0.30918 0.38368 0.38096 0.0
C186 C 0.31085 0.33817 0.34062 0.0
C187 C 0.41302 0.34092 0.33776 0.0
O188 O 0.41784 0.3619 0.34793 0.0
O189 O 0.36401 0.38522 0.33782 0.0
O190 O 0.33062 0.4036 0.35117 0.0
O191 O 0.35777 0.32728 0.39508 0.0
O192 O 0.34152 0.3635 0.39125 0.0
C193 C 0.34912 0.4028 0.33719 0.0
C194 C 0.34295 0.3435 0.40315 0.0
O195 O 0.3919 0.33242 0.33975 0.0
Mg196 Mg 0.3636 0.64136 0.129 0.0
O197 O 0.3318 0.65926 0.14871 0.0
O198 O 0.29799 0.64035 0.1377 0.0
Mg199 Mg 0.30845 0.60995 0.11106 0.0
C200 C 0.30899 0.65677 0.14978 0.0
C201 C 0.41207 0.65743 0.14963 0.0
O202 O 0.41795 0.64019 0.13409 0.0
O203 O 0.36202 0.60949 0.15564 0.0
O204 O 0.32888 0.59086 0.14222 0.0
O205 O 0.35764 0.66596 0.09695 0.0
O206 O 0.341 0.62994 0.10094 0.0
C207 C 0.34703 0.59205 0.15661 0.0
C208 C 0.34281 0.64981 0.08883 0.0
O209 O 0.38994 0.66196 0.15314 0.0
Mg210 Mg 0.63895 0.85432 0.12817 0.0
O211 O 0.6688 0.83538 0.15024 0.0
O212 O 0.70361 0.85426 0.14302 0.0
Mg213 Mg 0.69566 0.88616 0.11766 0.0
C214 C 0.69149 0.83751 0.15335 0.0
C215 C 0.58897 0.8354 0.14191 0.0
O216 O 0.58429 0.85045 0.12381 0.0
O217 O 0.63789 0.88497 0.15624 0.0
O218 O 0.67298 0.90316 0.1485 0.0
O219 O 0.64802 0.83098 0.09592 0.0
O220 O 0.66432 0.86668 0.10315 0.0
C221 C 0.65329 0.90152 0.16054 0.0
C222 C 0.66385 0.84717 0.09024 0.0
O223 O 0.61057 0.83309 0.1491 0.0
C224 C 0.18924 0.20273 0.20917 0.0
C225 C 0.20336 0.18299 0.20152 0.0
C226 C 0.19918 0.22097 0.22389 0.0
C227 C 0.25743 0.24838 0.23915 0.0
H228 H 0.22628 0.27157 0.29859 0.0
C229 C 0.309 0.30279 0.31186 0.0
C230 C 0.29725 0.32191 0.32395 0.0
C231 C 0.29631 0.28729 0.29631 0.0
C232 C 0.23505 0.26557 0.28184 0.0
H233 H 0.23895 0.16688 0.20381 0.0
H234 H 0.25607 0.19853 0.2292 0.0
H235 H 0.20587 0.24196 0.27249 0.0
H236 H 0.26281 0.33972 0.329 0.0
H237 H 0.24072 0.31281 0.30152 0.0
H238 H 0.28657 0.27182 0.24828 0.0
C239 C 0.2374 0.20003 0.22368 0.0
C240 C 0.22336 0.2486 0.26694 0.0
C241 C 0.22748 0.18178 0.20923 0.0
C242 C 0.27244 0.32515 0.32004 0.0
C243 C 0.25973 0.30965 0.30438 0.0
C244 C 0.26902 0.2654 0.2539 0.0
C245 C 0.22348 0.21993 0.23097 0.0
C246 C 0.23466 0.23949 0.24571 0.0
C247 C 0.27153 0.29055 0.2923 0.0
C248 C 0.25822 0.27386 0.2757 0.0
H249 H 0.17059 0.20421 0.2036 0.0
H250 H 0.18806 0.23616 0.22925 0.0
H251 H 0.26637 0.24202 0.22263 0.0
H252 H 0.32805 0.29961 0.31452 0.0
H253 H 0.3059 0.2725 0.28769 0.0
C254 C 0.81121 0.29761 0.20448 0.0
C255 C 0.79775 0.31815 0.19791 0.0
C256 C 0.80111 0.27969 0.21947 0.0
C257 C 0.74238 0.25508 0.2376 0.0
H258 H 0.77624 0.2277 0.29344 0.0
C259 C 0.69381 0.19708 0.30996 0.0
C260 C 0.706 0.17708 0.31985 0.0
C261 C 0.70579 0.21348 0.29476 0.0
C262 C 0.76666 0.2349 0.2777 0.0
H263 H 0.76326 0.33609 0.2025 0.0
H264 H 0.74587 0.305 0.22842 0.0
H265 H 0.79621 0.25768 0.26752 0.0
H266 H 0.74041 0.15856 0.3213 0.0
H267 H 0.76115 0.18694 0.2944 0.0
H268 H 0.71291 0.23236 0.24751 0.0
C269 C 0.7641 0.30261 0.2218 0.0
C270 C 0.7781 0.25209 0.26289 0.0
C271 C 0.77418 0.32052 0.20704 0.0
C272 C 0.73046 0.17382 0.31408 0.0
C273 C 0.74241 0.19018 0.29876 0.0
C274 C 0.73101 0.23783 0.25226 0.0
C275 C 0.77732 0.28188 0.22797 0.0
C276 C 0.76593 0.26259 0.2429 0.0
C277 C 0.73023 0.21022 0.28892 0.0
C278 C 0.74287 0.22775 0.27269 0.0
H279 H 0.82942 0.29521 0.19781 0.0
H280 H 0.81169 0.26385 0.22391 0.0
H281 H 0.73271 0.26254 0.22202 0.0
H282 H 0.67502 0.20027 0.31413 0.0
H283 H 0.69593 0.22894 0.28787 0.0
C284 C 0.30571 0.69488 0.17445 0.0
C285 C 0.29483 0.67397 0.1649 0.0
C286 C 0.29228 0.71161 0.18792 0.0
C287 C 0.23807 0.71875 0.22555 0.0
H288 H 0.24676 0.78672 0.21108 0.0
C289 C 0.1862 0.7943 0.27778 0.0
C290 C 0.19999 0.81451 0.28459 0.0
C291 C 0.19559 0.7769 0.26164 0.0
C292 C 0.24424 0.76783 0.2155 0.0
H293 H 0.26128 0.6541 0.16247 0.0
H294 H 0.23788 0.68334 0.1863 0.0
H295 H 0.26763 0.75656 0.18634 0.0
H296 H 0.23452 0.83218 0.27962 0.0
H297 H 0.25083 0.80194 0.2521 0.0
H298 H 0.21519 0.73005 0.25519 0.0
C299 C 0.25683 0.68671 0.18323 0.0
C300 C 0.25619 0.75057 0.2013 0.0
C301 C 0.27023 0.67003 0.16951 0.0
C302 C 0.22326 0.81697 0.27476 0.0
C303 C 0.23261 0.79965 0.25876 0.0
C304 C 0.22621 0.73606 0.23993 0.0
C305 C 0.26769 0.70777 0.19236 0.0
C306 C 0.25356 0.72587 0.20642 0.0
C307 C 0.21895 0.77939 0.25197 0.0
C308 C 0.22953 0.76083 0.23535 0.0
H309 H 0.32459 0.69852 0.17129 0.0
H310 H 0.3012 0.72754 0.19503 0.0
H311 H 0.2358 0.69982 0.22998 0.0
H312 H 0.1682 0.79184 0.28498 0.0
H313 H 0.18453 0.76159 0.25663 0.0
C314 C 0.77234 0.67491 0.28036 0.0
C315 C 0.79572 0.6775 0.28987 0.0
C316 C 0.76266 0.69225 0.2646 0.0
C317 C 0.76886 0.75601 0.24611 0.0
H318 H 0.72753 0.73607 0.19225 0.0
C319 C 0.72869 0.82289 0.17492 0.0
C320 C 0.70427 0.81969 0.16898 0.0
C321 C 0.74091 0.80579 0.18914 0.0
C322 C 0.73888 0.74192 0.20733 0.0
H323 H 0.82738 0.70035 0.28988 0.0
H324 H 0.81052 0.73057 0.26198 0.0
H325 H 0.74766 0.70563 0.21723 0.0
H326 H 0.67355 0.79597 0.17354 0.0
H327 H 0.69489 0.76618 0.19833 0.0
H328 H 0.76003 0.79236 0.23606 0.0
C329 C 0.79958 0.7152 0.26707 0.0
C330 C 0.75042 0.72449 0.22166 0.0
C331 C 0.80929 0.69781 0.28296 0.0
C332 C 0.69234 0.79904 0.17773 0.0
C333 C 0.7046 0.78187 0.19181 0.0
C334 C 0.7574 0.77348 0.23166 0.0
C335 C 0.7761 0.71264 0.25777 0.0
C336 C 0.76528 0.73129 0.24146 0.0
C337 C 0.72903 0.78502 0.19759 0.0
C338 C 0.74204 0.76659 0.21232 0.0
H339 H 0.76126 0.6596 0.28532 0.0
H340 H 0.74438 0.68989 0.25817 0.0
H341 H 0.77994 0.76189 0.26139 0.0
H342 H 0.73846 0.83859 0.16851 0.0
H343 H 0.75977 0.80862 0.19316 0.0
C344 C 0.30904 0.79943 0.70605 0.0
C345 C 0.29557 0.81999 0.69957 0.0
C346 C 0.29903 0.78155 0.72115 0.0
C347 C 0.24039 0.75701 0.73958 0.0
H348 H 0.2748 0.72882 0.79465 0.0
C349 C 0.19268 0.69739 0.81122 0.0
C350 C 0.20509 0.67728 0.82062 0.0
C351 C 0.20443 0.71416 0.79625 0.0
C352 C 0.26506 0.73626 0.77912 0.0
H353 H 0.26119 0.83806 0.7045 0.0
H354 H 0.24394 0.80702 0.73063 0.0
H355 H 0.29448 0.75923 0.76902 0.0
H356 H 0.23962 0.65898 0.82142 0.0
H357 H 0.25996 0.68799 0.79491 0.0
H358 H 0.21106 0.73406 0.74938 0.0
C359 C 0.26211 0.80459 0.72384 0.0
C360 C 0.27634 0.7537 0.76449 0.0
C361 C 0.2721 0.82246 0.70896 0.0
C362 C 0.22952 0.6743 0.81458 0.0
C363 C 0.24124 0.69103 0.79949 0.0
C364 C 0.22918 0.73951 0.75406 0.0
C365 C 0.27531 0.78381 0.72986 0.0
C366 C 0.26399 0.76446 0.74476 0.0
C367 C 0.22885 0.71118 0.79016 0.0
C368 C 0.24125 0.7291 0.77419 0.0
H369 H 0.32716 0.79696 0.69919 0.0
H370 H 0.3096 0.76567 0.72545 0.0
H371 H 0.23058 0.76466 0.7242 0.0
H372 H 0.17391 0.70037 0.81561 0.0
H373 H 0.19442 0.72967 0.78975 0.0
C374 C 0.68706 0.70309 0.71021 0.0
C375 C 0.70041 0.6827 0.70291 0.0
C376 C 0.69758 0.72097 0.72496 0.0
C377 C 0.75666 0.74605 0.74082 0.0
H378 H 0.72517 0.77193 0.7989 0.0
C379 C 0.80838 0.80172 0.8126 0.0
C380 C 0.79677 0.82135 0.82397 0.0
C381 C 0.79564 0.786 0.79731 0.0
C382 C 0.73407 0.76517 0.78253 0.0
H383 H 0.73518 0.665 0.70588 0.0
H384 H 0.75332 0.69606 0.73137 0.0
H385 H 0.70428 0.74231 0.77325 0.0
H386 H 0.76258 0.83989 0.82793 0.0
H387 H 0.74045 0.81265 0.80086 0.0
H388 H 0.78636 0.76882 0.74982 0.0
C389 C 0.73482 0.69833 0.72554 0.0
C390 C 0.7221 0.74818 0.76788 0.0
C391 C 0.72432 0.68044 0.71104 0.0
C392 C 0.77209 0.82492 0.81955 0.0
C393 C 0.75936 0.80922 0.80413 0.0
C394 C 0.76853 0.76311 0.75531 0.0
C395 C 0.72169 0.7189 0.73245 0.0
C396 C 0.73346 0.73816 0.74712 0.0
C397 C 0.77099 0.78955 0.79283 0.0
C398 C 0.75757 0.77259 0.77658 0.0
H399 H 0.6686 0.7054 0.7043 0.0
H400 H 0.68705 0.73668 0.72999 0.0
H401 H 0.76568 0.73897 0.72465 0.0
H402 H 0.82731 0.79828 0.81569 0.0
H403 H 0.80511 0.7708 0.78931 0.0
C404 C 0.68715 0.29833 0.77917 0.0
C405 C 0.7006 0.31867 0.78631 0.0
C406 C 0.69754 0.28033 0.76446 0.0
C407 C 0.7565 0.25478 0.74872 0.0
H408 H 0.7245 0.22773 0.69156 0.0
C409 C 0.80722 0.19584 0.67875 0.0
C410 C 0.79527 0.17599 0.66826 0.0
C411 C 0.79478 0.21242 0.69336 0.0
C412 C 0.73355 0.23483 0.70768 0.0
H413 H 0.73539 0.3362 0.78301 0.0
H414 H 0.75332 0.30491 0.75757 0.0
H415 H 0.70398 0.2582 0.71654 0.0
H416 H 0.76076 0.15799 0.6651 0.0
H417 H 0.73914 0.18672 0.69103 0.0
H418 H 0.78596 0.23146 0.74018 0.0
C419 C 0.73485 0.30277 0.76352 0.0
C420 C 0.72179 0.25232 0.72193 0.0
C421 C 0.72447 0.32079 0.778 0.0
C422 C 0.77053 0.17311 0.67282 0.0
C423 C 0.75809 0.18967 0.68758 0.0
C424 C 0.76816 0.23724 0.73463 0.0
C425 C 0.72163 0.28222 0.75683 0.0
C426 C 0.73332 0.26271 0.74238 0.0
C427 C 0.77007 0.20953 0.69804 0.0
C428 C 0.75699 0.22728 0.71372 0.0
H429 H 0.66871 0.29614 0.7852 0.0
H430 H 0.68695 0.26463 0.75961 0.0
H431 H 0.76565 0.26214 0.76467 0.0
H432 H 0.82622 0.19877 0.67549 0.0
H433 H 0.80451 0.22774 0.70071 0.0
C434 C 0.19059 0.30103 0.67737 0.0
C435 C 0.2029 0.32122 0.66807 0.0
C436 C 0.20246 0.28414 0.69212 0.0
C437 C 0.26324 0.26194 0.70857 0.0
H438 H 0.22946 0.23339 0.76386 0.0
C439 C 0.30875 0.19945 0.78105 0.0
C440 C 0.29563 0.17884 0.78799 0.0
C441 C 0.29826 0.21713 0.76606 0.0
C442 C 0.23907 0.24107 0.74836 0.0
H443 H 0.23739 0.33953 0.66723 0.0
H444 H 0.25792 0.3103 0.69333 0.0
H445 H 0.2095 0.26391 0.73887 0.0
H446 H 0.26133 0.16049 0.78405 0.0
H447 H 0.24324 0.1912 0.75804 0.0
H448 H 0.2929 0.23911 0.71834 0.0
C449 C 0.23919 0.3073 0.68884 0.0
C450 C 0.22762 0.25852 0.734 0.0
C451 C 0.22735 0.32415 0.67399 0.0
C452 C 0.27199 0.17613 0.77921 0.0
C453 C 0.26151 0.19382 0.7644 0.0
C454 C 0.27476 0.24454 0.72306 0.0
C455 C 0.2269 0.28707 0.69806 0.0
C456 C 0.23946 0.26903 0.71378 0.0
C457 C 0.27441 0.21463 0.75787 0.0
C458 C 0.26269 0.23376 0.74296 0.0
H459 H 0.1718 0.29809 0.67307 0.0
H460 H 0.19252 0.26857 0.69857 0.0
H461 H 0.2728 0.26944 0.69296 0.0
H462 H 0.327 0.20212 0.78746 0.0
H463 H 0.3086 0.23305 0.76139 0.0
C464 C 0.17346 0.92178 0.2952 0.0
C465 C 0.15142 0.9097 0.29767 0.0
C466 C 0.17513 0.94273 0.28094 0.0
C467 C 0.1414 0.97879 0.23406 0.0
H468 H 0.18323 0.03044 0.25617 0.0
C469 C 0.13269 0.07723 0.20139 0.0
C470 C 0.15339 0.08671 0.19015 0.0
C471 C 0.13377 0.05552 0.21436 0.0
C472 C 0.17161 0.01606 0.24978 0.0
H473 H 0.1138 0.91011 0.28726 0.0
H474 H 0.11635 0.94702 0.26339 0.0
H475 H 0.18249 0.9923 0.27873 0.0
H476 H 0.19164 0.08136 0.18454 0.0
H477 H 0.19362 0.04367 0.20799 0.0
H478 H 0.12976 0.00319 0.20584 0.0
C479 C 0.13265 0.94003 0.27165 0.0
C480 C 0.17126 0.99414 0.26254 0.0
C481 C 0.13111 0.91888 0.2855 0.0
C482 C 0.17538 0.07448 0.19288 0.0
C483 C 0.17656 0.05298 0.20634 0.0
C484 C 0.14141 0.00084 0.22167 0.0
C485 C 0.15467 0.9523 0.26919 0.0
C486 C 0.156 0.97525 0.25495 0.0
C487 C 0.15566 0.04315 0.21677 0.0
C488 C 0.1564 0.01966 0.22952 0.0
H489 H 0.18947 0.91509 0.3042 0.0
H490 H 0.19249 0.95136 0.27912 0.0
H491 H 0.12987 0.96454 0.22723 0.0
H492 H 0.11547 0.0862 0.19952 0.0
H493 H 0.11747 0.04829 0.22241 0.0
C494 C 0.86047 0.41507 0.20726 0.0
C495 C 0.84622 0.41215 0.1861 0.0
C496 C 0.8581 0.43568 0.22192 0.0
C497 C 0.83963 0.49892 0.2184 0.0
H498 H 0.83993 0.49565 0.28983 0.0
C499 C 0.85884 0.58102 0.2808 0.0
C500 C 0.84456 0.58382 0.30197 0.0
C501 C 0.85683 0.56033 0.26624 0.0
C502 C 0.83961 0.49683 0.2699 0.0
H503 H 0.81813 0.42838 0.16383 0.0
H504 H 0.81403 0.46437 0.18943 0.0
H505 H 0.84019 0.45837 0.26571 0.0
H506 H 0.81673 0.5673 0.32433 0.0
H507 H 0.81327 0.5311 0.29888 0.0
H508 H 0.83929 0.53736 0.22258 0.0
C509 C 0.82707 0.45074 0.19462 0.0
C510 C 0.83998 0.47552 0.25612 0.0
C511 C 0.82931 0.43006 0.18008 0.0
C512 C 0.82793 0.5657 0.30808 0.0
C513 C 0.82606 0.54491 0.29363 0.0
C514 C 0.83946 0.52022 0.23217 0.0
C515 C 0.84158 0.45385 0.21556 0.0
C516 C 0.84013 0.47636 0.23024 0.0
C517 C 0.84063 0.54194 0.27268 0.0
C518 C 0.8396 0.51938 0.25805 0.0
H519 H 0.87367 0.40157 0.21237 0.0
H520 H 0.86968 0.43771 0.23784 0.0
H521 H 0.83995 0.50011 0.19847 0.0
H522 H 0.87182 0.59468 0.27562 0.0
H523 H 0.86845 0.55842 0.25032 0.0
C524 C 0.30816 0.16782 0.92347 0.0
C525 C 0.29483 0.16347 0.90199 0.0
C526 C 0.29647 0.17429 0.94535 0.0
C527 C 0.23613 0.16829 0.97362 0.0
H528 H 0.2666 0.20154 0.02819 0.0
C529 C 0.1914 0.17268 0.06883 0.0
C530 C 0.20604 0.16278 0.08737 0.0
C531 C 0.20131 0.17942 0.04617 0.0
C532 C 0.25783 0.19239 0.013 0.0
H533 H 0.25932 0.16463 0.88569 0.0
H534 H 0.23906 0.1773 0.92332 0.0
H535 H 0.28557 0.20208 0.98751 0.0
H536 H 0.24277 0.15386 0.09737 0.0
H537 H 0.26003 0.16585 0.05793 0.0
H538 H 0.20854 0.15847 -0.00085 0.0
C539 C 0.25833 0.17458 0.92383 0.0
C540 C 0.26874 0.19253 0.98975 0.0
C541 C 0.26993 0.16751 0.90219 0.0
C542 C 0.23098 0.16121 0.08336 0.0
C543 C 0.24091 0.16827 0.06087 0.0
C544 C 0.22509 0.1685 -0.00331 0.0
C545 C 0.27127 0.17704 0.94598 0.0
C546 C 0.25833 0.17993 0.96988 0.0
C547 C 0.22609 0.17677 0.04181 0.0
C548 C 0.2361 0.18002 0.01675 0.0
H549 H 0.3274 0.16473 0.92376 0.0
H550 H 0.3071 0.17579 0.962 0.0
H551 H 0.22772 0.15791 0.95908 0.0
H552 H 0.17213 0.17416 0.07137 0.0
H553 H 0.18953 0.18604 0.03177 0.0
C554 C 0.76963 0.33107 0.08456 0.0
C555 C 0.79444 0.33554 0.08433 0.0
C556 C 0.7578 0.32397 0.06308 0.0
C557 C 0.76748 0.30671 -0.00316 0.0
H558 H 0.70651 0.33981 0.98876 0.0
C559 C 0.72789 0.33864 0.9043 0.0
C560 C 0.70295 0.33667 0.90061 0.0
C561 C 0.73824 0.33139 0.92654 0.0
C562 C 0.72327 0.33004 0.99086 0.0
H563 H 0.82665 0.33503 0.06195 0.0
H564 H 0.80592 0.32395 0.024 0.0
H565 H 0.72627 0.34033 0.02852 0.0
H566 H 0.66947 0.32441 0.91686 0.0
H567 H 0.6876 0.31224 0.95603 0.0
H568 H 0.76494 0.29803 0.95835 0.0
C569 C 0.79555 0.32511 0.04085 0.0
C570 C 0.73465 0.33023 0.01375 0.0
C571 C 0.80749 0.33162 0.06256 0.0
C572 C 0.68873 0.3262 0.91917 0.0
C573 C 0.69906 0.31929 0.94158 0.0
C574 C 0.75622 0.30687 0.97377 0.0
C575 C 0.77041 0.32191 0.04068 0.0
C576 C 0.75714 0.31896 0.01699 0.0
C577 C 0.72383 0.32233 0.94564 0.0
C578 C 0.73422 0.31892 0.97051 0.0
H579 H 0.75925 0.3336 0.10128 0.0
H580 H 0.7386 0.3209 0.06392 0.0
H581 H 0.78452 0.29743 -0.0013 0.0
H582 H 0.73936 0.34643 0.89026 0.0
H583 H 0.75735 0.33413 0.92926 0.0
C584 C 0.26609 0.83259 0.58562 0.0
C585 C 0.29107 0.83608 0.5857 0.0
C586 C 0.25438 0.82505 0.56422 0.0
C587 C 0.26469 0.80438 0.49908 0.0
H588 H 0.20501 0.839 0.4881 0.0
C589 C 0.22805 0.83394 0.40445 0.0
C590 C 0.20313 0.83268 0.40032 0.0
C591 C 0.23774 0.82708 0.42713 0.0
C592 C 0.2214 0.8288 0.49103 0.0
H593 H 0.32361 0.83341 0.56396 0.0
H594 H 0.30315 0.82154 0.52615 0.0
H595 H 0.22398 0.8407 0.52823 0.0
H596 H 0.16898 0.82196 0.41623 0.0
H597 H 0.18594 0.81048 0.45615 0.0
H598 H 0.26266 0.79408 0.46097 0.0
C599 C 0.29253 0.82382 0.54272 0.0
C600 C 0.23232 0.82967 0.51414 0.0
C601 C 0.30431 0.83079 0.56435 0.0
C602 C 0.18825 0.82319 0.41888 0.0
C603 C 0.19791 0.81668 0.44172 0.0
C604 C 0.25392 0.80386 0.47577 0.0
C605 C 0.2673 0.82151 0.54219 0.0
C606 C 0.25437 0.81787 0.5184 0.0
C607 C 0.22266 0.81913 0.44623 0.0
C608 C 0.23239 0.81644 0.47146 0.0
H609 H 0.25553 0.83617 0.60201 0.0
H610 H 0.23506 0.82272 0.56482 0.0
H611 H 0.28138 0.79465 0.50175 0.0
H612 H 0.24002 0.84097 0.39043 0.0
H613 H 0.25686 0.82934 0.43019 0.0
C614 C 0.72787 0.66855 0.58936 0.0
C615 C 0.70291 0.66498 0.58933 0.0
C616 C 0.73981 0.67506 0.56775 0.0
C617 C 0.73039 0.69226 0.50148 0.0
H618 H 0.79021 0.65712 0.49323 0.0
C619 C 0.76879 0.65903 0.40877 0.0
C620 C 0.79377 0.66024 0.40502 0.0
C621 C 0.7587 0.66655 0.43105 0.0
C622 C 0.77378 0.66744 0.49537 0.0
H623 H 0.6706 0.66648 0.56716 0.0
H624 H 0.69149 0.67656 0.52901 0.0
H625 H 0.77057 0.65738 0.53307 0.0
H626 H 0.82764 0.67142 0.42122 0.0
H627 H 0.80995 0.68407 0.46048 0.0
H628 H 0.7331 0.70073 0.46297 0.0
C629 C 0.70191 0.67514 0.54579 0.0
C630 C 0.76248 0.66771 0.5183 0.0
C631 C 0.68988 0.66922 0.56763 0.0
C632 C 0.80833 0.67022 0.42358 0.0
C633 C 0.79825 0.67741 0.44604 0.0
C634 C 0.74157 0.69164 0.47837 0.0
C635 C 0.72715 0.67742 0.54542 0.0
C636 C 0.74039 0.67976 0.52163 0.0
C637 C 0.77341 0.67513 0.45015 0.0
C638 C 0.76316 0.67888 0.47505 0.0
H639 H 0.73826 0.66574 0.60601 0.0
H640 H 0.75912 0.67744 0.56844 0.0
H641 H 0.71367 0.70211 0.5034 0.0
H642 H 0.75707 0.65164 0.39472 0.0
H643 H 0.73952 0.66442 0.43381 0.0
C644 C 0.91619 0.28826 0.13569 0.0
C645 C 0.9195 0.31328 0.13314 0.0
C646 C 0.93596 0.27259 0.13522 0.0
C647 C 0.0013 0.2716 0.14604 0.0
H648 H 0.99949 0.21136 0.1097 0.0
C649 C 0.08516 0.21057 0.13621 0.0
C650 C 0.08144 0.18557 0.13817 0.0
C651 C 0.06558 0.22638 0.13451 0.0
C652 C 1.00021 0.228 0.12016 0.0
H653 H 0.94614 0.3414 0.12766 0.0
H654 H 0.98042 0.31414 0.12681 0.0
H655 H 0.96463 0.23813 0.10906 0.0
H656 H 0.05421 0.15756 0.13988 0.0
H657 H 0.02025 0.18502 0.13741 0.0
H658 H 0.03667 0.26139 0.15748 0.0
C659 C 0.96262 0.30663 0.12944 0.0
C660 C 0.98022 0.24332 0.11977 0.0
C661 C 0.94292 0.32224 0.12979 0.0
C662 C 0.05776 0.17672 0.13827 0.0
C663 C 0.03823 0.19247 0.13668 0.0
C664 C 0.02122 0.25623 0.14654 0.0
C665 C 0.95941 0.28166 0.13233 0.0
C666 C 0.98055 0.26529 0.13271 0.0
C667 C 0.04186 0.2175 0.13481 0.0
C668 C 0.02092 0.2342 0.13366 0.0
H669 H 0.89838 0.28079 0.1383 0.0
H670 H 0.93294 0.25342 0.13767 0.0
H671 H 0.00197 0.28825 0.15648 0.0
H672 H 0.10319 0.21794 0.13598 0.0
H673 H 0.06903 0.24553 0.13277 0.0
C674 C 0.94095 0.67386 0.35748 0.0
C675 C 0.91749 0.68282 0.3543 0.0
C676 C 0.96061 0.68948 0.3578 0.0
C677 C 0.97802 0.75275 0.36773 0.0
H678 H 0.03439 0.73498 0.32965 0.0
C679 C 0.05515 0.81962 0.34919 0.0
C680 C 0.07886 0.81083 0.3492 0.0
C681 C 0.0357 0.8038 0.35076 0.0
C682 C 0.01896 0.74006 0.34068 0.0
H683 H 0.89625 0.71531 0.34936 0.0
H684 H 0.93073 0.7427 0.34994 0.0
H685 H 0.9998 0.70805 0.33067 0.0
H686 H 0.10078 0.7785 0.35117 0.0
H687 H 0.06676 0.75081 0.35434 0.0
H688 H 0.99718 0.7847 0.37787 0.0
C689 C 0.93382 0.72353 0.35229 0.0
C690 C 0.9991 0.72465 0.34121 0.0
C691 C 0.91409 0.70785 0.35185 0.0
C692 C 0.08272 0.78582 0.35101 0.0
C693 C 0.06321 0.76996 0.3527 0.0
C694 C 0.99793 0.76812 0.36732 0.0
C695 C 0.9573 0.71446 0.35504 0.0
C696 C 0.97839 0.73086 0.35466 0.0
C697 C 0.03946 0.77878 0.35251 0.0
C698 C 0.0186 0.76202 0.35368 0.0
H699 H 0.94423 0.65469 0.35952 0.0
H700 H 0.97843 0.68198 0.36032 0.0
H701 H 0.96244 0.75785 0.37855 0.0
H702 H 0.05151 0.83877 0.3477 0.0
H703 H 0.01769 0.81121 0.35013 0.0
C704 C 0.58065 0.71238 0.64887 0.0
C705 C 0.5845 0.6973 0.6284 0.0
C706 C 0.55964 0.72611 0.65076 0.0
C707 C 0.49709 0.72774 0.6276 0.0
H708 H 0.49645 0.79089 0.65844 0.0
C709 C 0.4127 0.78946 0.63226 0.0
C710 C 0.40864 0.80152 0.65471 0.0
C711 C 0.43383 0.77622 0.62855 0.0
C712 C 0.49633 0.77317 0.64998 0.0
H713 H 0.56987 0.68578 0.59324 0.0
H714 H 0.53351 0.7102 0.59625 0.0
H715 H 0.53464 0.77028 0.65174 0.0
H716 H 0.42321 0.80836 0.69117 0.0
H717 H 0.45997 0.78529 0.68466 0.0
H718 H 0.45871 0.73082 0.6257 0.0
C719 C 0.54642 0.71093 0.61117 0.0
C720 C 0.51822 0.76135 0.64614 0.0
C721 C 0.56737 0.69708 0.60935 0.0
C722 C 0.42578 0.79938 0.67362 0.0
C723 C 0.44695 0.78632 0.66985 0.0
C724 C 0.4752 0.73965 0.63129 0.0
C725 C 0.54205 0.72523 0.63214 0.0
C726 C 0.51887 0.73839 0.63508 0.0
C727 C 0.45139 0.77494 0.64715 0.0
C728 C 0.47459 0.76239 0.64272 0.0
H729 H 0.59344 0.71291 0.66392 0.0
H730 H 0.5568 0.73671 0.66729 0.0
H731 H 0.49685 0.7099 0.61942 0.0
H732 H 0.39984 0.79073 0.61732 0.0
H733 H 0.4368 0.76768 0.61084 0.0
C734 C 0.83301 0.05374 0.67679 0.0
C735 C 0.84889 0.07348 0.67663 0.0
C736 C 0.83551 0.03536 0.69409 0.0
C737 C 0.83386 0.00932 0.7425 0.0
H738 H 0.89492 0.98076 0.76108 0.0
C739 C 0.83953 0.94447 0.82368 0.0
C740 C 0.85251 0.92294 0.82027 0.0
C741 C 0.8416 0.96339 0.80694 0.0
C742 C 0.87775 0.98851 0.75595 0.0
H743 H 0.88031 0.08896 0.69429 0.0
H744 H 0.88446 0.05674 0.72492 0.0
H745 H 0.89378 0.01255 0.72961 0.0
H746 H 0.87867 0.9048 0.79707 0.0
H747 H 0.88193 0.93795 0.76732 0.0
H748 H 0.81766 0.98521 0.76821 0.0
C749 C 0.8702 0.05557 0.71139 0.0
C750 C 0.87713 0.00684 0.73816 0.0
C751 C 0.86772 0.07407 0.69395 0.0
C752 C 0.86836 0.92113 0.80014 0.0
C753 C 0.87032 0.94014 0.7832 0.0
C754 C 0.83448 0.99115 0.76019 0.0
C755 C 0.85387 0.0362 0.71182 0.0
C756 C 0.85511 0.0173 0.73116 0.0
C757 C 0.85653 0.96125 0.78619 0.0
C758 C 0.8564 0.98053 0.76719 0.0
H759 H 0.81847 0.05246 0.66358 0.0
H760 H 0.82293 0.02045 0.69361 0.0
H761 H 0.81664 0.01721 0.73776 0.0
H762 H 0.82749 0.94671 0.83922 0.0
H763 H 0.83118 0.97963 0.81011 0.0
C764 C 0.16886 0.56041 0.80671 0.0
C765 C 0.15002 0.57591 0.81363 0.0
C766 C 0.16464 0.54084 0.79125 0.0
C767 C 0.12373 0.51563 0.74501 0.0
H768 H 0.15869 0.45702 0.76098 0.0
C769 C 0.12415 0.42703 0.68549 0.0
C770 C 0.14771 0.42083 0.67844 0.0
C771 C 0.12023 0.4448 0.70348 0.0
C772 C 0.14865 0.47319 0.75642 0.0
H773 H 0.112 0.58343 0.80898 0.0
H774 H 0.10457 0.54879 0.78176 0.0
H775 H 0.15919 0.49084 0.78969 0.0
H776 H 0.18554 0.42786 0.68503 0.0
H777 H 0.17867 0.45824 0.71667 0.0
H778 H 0.11365 0.49778 0.71138 0.0
C779 C 0.12263 0.55199 0.78845 0.0
C780 C 0.14904 0.4926 0.77274 0.0
C781 C 0.12689 0.57179 0.804 0.0
C782 C 0.16719 0.43231 0.68998 0.0
C783 C 0.16328 0.44961 0.70818 0.0
C784 C 0.12318 0.49601 0.7287 0.0
C785 C 0.14143 0.53606 0.78234 0.0
C786 C 0.1374 0.51438 0.76679 0.0
C787 C 0.13982 0.4561 0.71502 0.0
C788 C 0.13637 0.47498 0.73394 0.0
H789 H 0.18699 0.56321 0.81341 0.0
H790 H 0.17968 0.52936 0.7863 0.0
H791 H 0.11459 0.53217 0.73994 0.0
H792 H 0.10882 0.41853 0.67679 0.0
H793 H 0.10199 0.44958 0.70851 0.0
C794 C 0.68647 0.81935 0.06189 0.0
C795 C 0.68252 0.84262 0.07144 0.0
C796 C 0.70526 0.81515 0.0452 0.0
C797 C 0.76262 0.84215 0.02446 0.0
H798 H 0.75302 0.80514 0.96454 0.0
C799 C 0.81623 0.8585 0.93689 0.0
C800 C 0.82622 0.8387 0.9244 0.0
C801 C 0.80066 0.85499 0.95664 0.0
C802 C 0.75606 0.81512 0.98144 0.0
H803 H 0.69439 0.87988 0.07018 0.0
H804 H 0.72674 0.87269 0.0411 0.0
H805 H 0.72114 0.80657 -0.00425 0.0
H806 H 0.82773 0.79963 0.92263 0.0
H807 H 0.7997 0.79345 0.95719 0.0
H808 H 0.79697 0.85168 0.00965 0.0
C809 C 0.71588 0.85751 0.04693 0.0
C810 C 0.73786 0.81596 -0.00073 0.0
C811 C 0.69723 0.86166 0.06353 0.0
C812 C 0.82034 0.81519 0.93206 0.0
C813 C 0.8043 0.81166 0.95168 0.0
C814 C 0.78064 0.84144 0.00663 0.0
C815 C 0.72036 0.83417 0.03784 0.0
C816 C 0.74068 0.83017 0.02057 0.0
C817 C 0.79446 0.83159 0.96416 0.0
C818 C 0.77723 0.82855 0.98465 0.0
H819 H 0.6754 0.80431 0.06767 0.0
H820 H 0.70827 0.79698 0.03848 0.0
H821 H 0.76558 0.85273 0.04098 0.0
H822 H 0.82048 0.87682 0.93143 0.0
H823 H 0.79308 0.87065 0.96579 0.0
C824 C 0.18883 0.67811 0.92903 0.0
C825 C 0.1841 0.6549 0.91972 0.0
C826 C 0.20765 0.68173 0.94582 0.0
C827 C 0.26381 0.65255 0.96713 0.0
H828 H 0.25531 0.69023 0.02679 0.0
C829 C 0.31668 0.63477 0.05506 0.0
C830 C 0.3271 0.65436 0.06746 0.0
C831 C 0.3013 0.63862 0.0352 0.0
C832 C 0.25805 0.68003 0.00998 0.0
H833 H 0.19453 0.61719 0.92157 0.0
H834 H 0.22687 0.62341 0.95079 0.0
H835 H 0.22361 0.69003 -0.00461 0.0
H836 H 0.32961 0.6934 0.06898 0.0
H837 H 0.30198 0.70017 0.03428 0.0
H838 H 0.29763 0.64159 0.98221 0.0
C839 C 0.21665 0.63895 0.94468 0.0
C840 C 0.23996 0.67991 0.99203 0.0
C841 C 0.198 0.63537 0.92801 0.0
C842 C 0.32187 0.67798 0.05961 0.0
C843 C 0.30605 0.68186 0.03991 0.0
C844 C 0.2817 0.65253 0.98508 0.0
C845 C 0.22197 0.66219 0.95349 0.0
C846 C 0.24235 0.6655 0.97081 0.0
C847 C 0.29574 0.66216 0.02752 0.0
C848 C 0.27867 0.66566 0.00697 0.0
H849 H 0.17837 0.69349 0.92295 0.0
H850 H 0.21131 0.69983 0.95235 0.0
H851 H 0.26645 0.64177 0.95067 0.0
H852 H 0.32043 0.61638 0.06066 0.0
H853 H 0.29335 0.62314 0.02611 0.0
C854 C 0.68851 0.17904 0.42854 0.0
C855 C 0.68373 0.15582 0.41932 0.0
C856 C 0.70705 0.1826 0.44568 0.0
C857 C 0.76246 0.15292 0.46835 0.0
H858 H 0.75346 0.19143 0.52739 0.0
C859 C 0.81373 0.13555 0.55732 0.0
C860 C 0.82472 0.15514 0.56923 0.0
C861 C 0.79844 0.13937 0.53738 0.0
C862 C 0.75633 0.18098 0.51075 0.0
H863 H 0.69372 0.11802 0.42167 0.0
H864 H 0.72553 0.12411 0.45151 0.0
H865 H 0.72228 0.19126 0.49542 0.0
H866 H 0.82822 0.19412 0.56986 0.0
H867 H 0.80072 0.20083 0.53502 0.0
H868 H 0.79586 0.14169 0.48419 0.0
C869 C 0.71561 0.13972 0.44507 0.0
C870 C 0.73855 0.18088 0.49248 0.0
C871 C 0.69726 0.13621 0.42804 0.0
C872 C 0.82004 0.1787 0.56089 0.0
C873 C 0.8043 0.18256 0.54111 0.0
C874 C 0.78004 0.15287 0.48663 0.0
C875 C 0.72101 0.16297 0.45381 0.0
C876 C 0.74111 0.16619 0.47148 0.0
C877 C 0.79353 0.16286 0.52914 0.0
C878 C 0.77681 0.16631 0.50829 0.0
H879 H 0.67833 0.19449 0.42214 0.0
H880 H 0.71078 0.20071 0.45213 0.0
H881 H 0.76525 0.14192 0.45208 0.0
H882 H 0.81705 0.1172 0.5633 0.0
H883 H 0.79013 0.12391 0.52861 0.0
C884 C 0.18624 0.32043 0.56073 0.0
C885 C 0.18226 0.34376 0.57013 0.0
C886 C 0.20521 0.31609 0.54431 0.0
C887 C 0.26292 0.34275 0.52414 0.0
H888 H 0.25368 0.30576 0.46415 0.0
C889 C 0.31714 0.35897 0.43695 0.0
C890 C 0.32702 0.33915 0.42439 0.0
C891 C 0.30155 0.35548 0.45668 0.0
C892 C 0.25663 0.31572 0.48107 0.0
H893 H 0.1943 0.38097 0.56888 0.0
H894 H 0.22699 0.37351 0.54026 0.0
H895 H 0.22154 0.30733 0.49505 0.0
H896 H 0.32834 0.30008 0.4225 0.0
H897 H 0.30025 0.29394 0.45701 0.0
H898 H 0.29744 0.35213 0.50964 0.0
C899 C 0.21599 0.35841 0.54602 0.0
C900 C 0.23827 0.31665 0.49873 0.0
C901 C 0.19715 0.36271 0.56235 0.0
C902 C 0.32103 0.31566 0.43199 0.0
C903 C 0.30496 0.31214 0.45158 0.0
C904 C 0.28109 0.34195 0.50649 0.0
C905 C 0.22048 0.33502 0.53707 0.0
C906 C 0.24096 0.33087 0.52005 0.0
C907 C 0.2952 0.33208 0.46411 0.0
C908 C 0.27782 0.32907 0.48447 0.0
H909 H 0.17503 0.30546 0.56643 0.0
H910 H 0.20822 0.29789 0.5377 0.0
H911 H 0.26577 0.35333 0.54068 0.0
H912 H 0.3215 0.37728 0.43156 0.0
H913 H 0.29403 0.37114 0.46586 0.0
C914 C 0.09485 0.72755 0.83175 0.0
C915 C 0.0934 0.70223 0.83127 0.0
C916 C 0.07502 0.74167 0.82529 0.0
C917 C 0.00925 0.73839 0.82455 0.0
H918 H 0.01443 0.80134 0.79377 0.0
C919 C 0.92766 0.80178 0.81984 0.0
C920 C 0.93221 0.8254 0.82811 0.0
C921 C 0.94667 0.78631 0.81386 0.0
C922 C 0.0127 0.7838 0.80239 0.0
H923 H 0.07038 0.67188 0.82225 0.0
H924 H 0.03579 0.69659 0.81077 0.0
H925 H 0.04936 0.77458 0.7947 0.0
H926 H 0.96022 0.85177 0.83503 0.0
H927 H 0.9933 0.82477 0.8249 0.0
H928 H 0.97292 0.74783 0.83301 0.0
C929 C 0.05218 0.7055 0.81655 0.0
C930 C 0.0327 0.76848 0.80293 0.0
C931 C 0.07204 0.69135 0.82302 0.0
C932 C 0.95608 0.83366 0.82882 0.0
C933 C 0.97507 0.8182 0.82286 0.0
C934 C 0.98929 0.75368 0.824 0.0
C935 C 0.05326 0.73082 0.81816 0.0
C936 C 0.03135 0.74582 0.81453 0.0
C937 C 0.97063 0.79413 0.81599 0.0
C938 C 0.99091 0.77679 0.81343 0.0
H939 H 0.11106 0.73652 0.83794 0.0
H940 H 0.07643 0.7611 0.827 0.0
H941 H 0.00765 0.72123 0.83396 0.0
H942 H 0.90946 0.79491 0.81887 0.0
H943 H 0.94263 0.768 0.80823 0.0
C944 C 0.046 0.32089 0.63915 0.0
C945 C 0.06902 0.32081 0.64978 0.0
C946 C 0.02867 0.30423 0.64665 0.0
C947 C 0.99146 0.2724 0.67053 0.0
H948 H 0.01429 0.20663 0.67768 0.0
C949 C 0.92465 0.1935 0.67445 0.0
C950 C 0.93046 0.17416 0.65873 0.0
C951 C 0.94197 0.21082 0.68049 0.0
C952 C 0.0076 0.2249 0.67577 0.0
H953 H 0.0915 0.30401 0.67759 0.0
H954 H 0.06106 0.27515 0.69101 0.0
H955 H 0.04315 0.23943 0.67439 0.0
H956 H 0.95936 0.15702 0.63831 0.0
H957 H 0.98924 0.18732 0.64829 0.0
H958 H 0.95597 0.25773 0.67013 0.0
C959 C 0.05658 0.28779 0.6765 0.0
C960 C 0.02416 0.24379 0.67421 0.0
C961 C 0.07398 0.30441 0.66889 0.0
C962 C 0.95425 0.17173 0.6504 0.0
C963 C 0.97149 0.18908 0.6563 0.0
C964 C 0.97491 0.2535 0.67189 0.0
C965 C 0.03387 0.28716 0.66509 0.0
C966 C 0.01631 0.26769 0.67079 0.0
C967 C 0.96541 0.20921 0.67086 0.0
C968 C 0.98279 0.22943 0.67375 0.0
H969 H 0.04156 0.33327 0.62438 0.0
H970 H 0.01155 0.30409 0.63715 0.0
H971 H 0.98476 0.29064 0.66841 0.0
H972 H 0.90652 0.19577 0.68138 0.0
H973 H 0.93679 0.22584 0.69213 0.0
C974 C 0.59548 0.22821 0.33012 0.0
C975 C 0.59404 0.20289 0.32967 0.0
C976 C 0.57561 0.24233 0.32373 0.0
C977 C 0.50985 0.23895 0.32337 0.0
H978 H 0.51474 0.30197 0.2927 0.0
C979 C 0.42812 0.30221 0.31935 0.0
C980 C 0.43267 0.32583 0.3276 0.0
C981 C 0.44712 0.28678 0.31322 0.0
C982 C 0.51309 0.28441 0.3013 0.0
H983 H 0.57101 0.17253 0.32073 0.0
H984 H 0.53637 0.19721 0.30937 0.0
H985 H 0.54972 0.27526 0.29335 0.0
H986 H 0.46068 0.35225 0.33434 0.0
H987 H 0.49374 0.32532 0.32397 0.0
H988 H 0.47356 0.24831 0.33209 0.0
C989 C 0.55277 0.20613 0.31507 0.0
C990 C 0.53311 0.26912 0.30168 0.0
C991 C 0.57266 0.192 0.32147 0.0
C992 C 0.45654 0.33413 0.32816 0.0
C993 C 0.47552 0.31871 0.32204 0.0
C994 C 0.48986 0.25421 0.32299 0.0
C995 C 0.55383 0.23145 0.31669 0.0
C996 C 0.53188 0.24643 0.31323 0.0
C997 C 0.47108 0.29464 0.31518 0.0
C998 C 0.49138 0.27734 0.31245 0.0
H999 H 0.61169 0.2372 0.33625 0.0
H1000 H 0.57701 0.26175 0.32544 0.0
H1001 H 0.50833 0.22177 0.33275 0.0
H1002 H 0.40993 0.2953 0.3185 0.0
H1003 H 0.44308 0.26846 0.30759 0.0
C1004 C 0.66542 0.57149 0.6849 0.0
C1005 C 0.64839 0.58945 0.69047 0.0
C1006 C 0.66653 0.55032 0.69882 0.0
C1007 C 0.62914 0.51238 0.73914 0.0
H1008 H 0.68984 0.48191 0.75565 0.0
C1009 C 0.66624 0.43051 0.80464 0.0
C1010 C 0.64903 0.41274 0.79918 0.0
C1011 C 0.66719 0.45184 0.79096 0.0
C1012 C 0.67275 0.49027 0.7513 0.0
H1013 H 0.61961 0.59959 0.71542 0.0
H1014 H 0.62176 0.56277 0.73992 0.0
H1015 H 0.68972 0.52051 0.73398 0.0
H1016 H 0.61979 0.40307 0.77466 0.0
H1017 H 0.62166 0.44014 0.75057 0.0
H1018 H 0.61216 0.48245 0.75685 0.0
C1019 C 0.634 0.56488 0.72454 0.0
C1020 C 0.67268 0.51226 0.73869 0.0
C1021 C 0.63286 0.58604 0.71059 0.0
C1022 C 0.63318 0.41647 0.77939 0.0
C1023 C 0.63415 0.43778 0.76569 0.0
C1024 C 0.62922 0.49042 0.75173 0.0
C1025 C 0.65064 0.54665 0.71861 0.0
C1026 C 0.65086 0.52355 0.73246 0.0
C1027 C 0.65095 0.45584 0.77153 0.0
C1028 C 0.65101 0.47908 0.75791 0.0
H1029 H 0.67751 0.57347 0.66938 0.0
H1030 H 0.67936 0.53652 0.69359 0.0
H1031 H 0.61202 0.52044 0.73434 0.0
H1032 H 0.67858 0.42827 0.8199 0.0
H1033 H 0.68017 0.46551 0.7961 0.0
C1034 C 0.32994 0.06794 0.80718 0.0
C1035 C 0.34632 0.08611 0.80055 0.0
C1036 C 0.32779 0.04707 0.79289 0.0
C1037 C 0.33976 0.02211 0.73122 0.0
H1038 H 0.34071 0.96045 0.76509 0.0
C1039 C 0.32791 0.93161 0.67995 0.0
C1040 C 0.34476 0.9136 0.68584 0.0
C1041 C 0.32612 0.95246 0.69433 0.0
C1042 C 0.34044 0.97754 0.7554 0.0
H1043 H 0.37293 0.09692 0.77349 0.0
H1044 H 0.36911 0.06047 0.74849 0.0
H1045 H 0.3413 0.99783 0.78899 0.0
H1046 H 0.37258 0.90303 0.7117 0.0
H1047 H 0.36939 0.93943 0.73686 0.0
H1048 H 0.33935 0.00182 0.69763 0.0
C1049 C 0.35787 0.06244 0.76468 0.0
C1050 C 0.34056 0.99892 0.76906 0.0
C1051 C 0.36014 0.08323 0.77907 0.0
C1052 C 0.35942 0.9166 0.7067 0.0
C1053 C 0.35751 0.93736 0.72118 0.0
C1054 C 0.33945 0.00074 0.71757 0.0
C1055 C 0.34186 0.04404 0.77161 0.0
C1056 C 0.34046 0.02141 0.7571 0.0
C1057 C 0.34103 0.95562 0.71497 0.0
C1058 C 0.34003 0.97824 0.72952 0.0
H1059 H 0.31909 0.06958 0.82368 0.0
H1060 H 0.31515 0.03327 0.79853 0.0
H1061 H 0.33949 0.03921 0.72154 0.0
H1062 H 0.31642 0.92986 0.66394 0.0
H1063 H 0.31311 0.96615 0.68926 0.0
C1064 C 0.416 0.20884 0.8392 0.0
C1065 C 0.41245 0.19436 0.86015 0.0
C1066 C 0.43691 0.22259 0.83669 0.0
C1067 C 0.49966 0.22525 0.85918 0.0
H1068 H 0.49943 0.28765 0.82688 0.0
C1069 C 0.58323 0.28768 0.85299 0.0
C1070 C 0.58705 0.29946 0.83037 0.0
C1071 C 0.5623 0.27423 0.85694 0.0
C1072 C 0.4998 0.27013 0.83573 0.0
H1073 H 0.42751 0.1839 0.89545 0.0
H1074 H 0.46369 0.20835 0.89135 0.0
H1075 H 0.46151 0.26688 0.83428 0.0
H1076 H 0.57231 0.30556 0.79385 0.0
H1077 H 0.53591 0.28211 0.80078 0.0
H1078 H 0.53801 0.22871 0.86078 0.0
C1079 C 0.45063 0.2086 0.87655 0.0
C1080 C 0.47807 0.25822 0.83998 0.0
C1081 C 0.42978 0.19473 0.87899 0.0
C1082 C 0.56991 0.29681 0.81153 0.0
C1083 C 0.54895 0.28352 0.81554 0.0
C1084 C 0.52139 0.23725 0.85507 0.0
C1085 C 0.45469 0.22232 0.85514 0.0
C1086 C 0.47772 0.23554 0.85161 0.0
C1087 C 0.54472 0.27244 0.83842 0.0
C1088 C 0.5217 0.25973 0.84313 0.0
H1089 H 0.40305 0.20891 0.82429 0.0
H1090 H 0.43951 0.23273 0.81984 0.0
H1091 H 0.50014 0.20763 0.8678 0.0
H1092 H 0.59609 0.28935 0.86789 0.0
H1093 H 0.55949 0.26595 0.8748 0.0
C1094 C 0.36857 0.57352 0.19288 0.0
C1095 C 0.35043 0.57241 0.17483 0.0
C1096 C 0.37088 0.55509 0.21042 0.0
C1097 C 0.37807 0.50668 0.23764 0.0
H1098 H 0.3181 0.4836 0.26544 0.0
C1099 C 0.36935 0.42138 0.30018 0.0
C1100 C 0.35286 0.42304 0.31978 0.0
C1101 C 0.37133 0.4402 0.28302 0.0
C1102 C 0.33505 0.48995 0.25804 0.0
H1103 H 0.32114 0.55054 0.16057 0.0
H1104 H 0.32533 0.51866 0.19079 0.0
H1105 H 0.31739 0.51534 0.23467 0.0
H1106 H 0.3266 0.44637 0.33751 0.0
H1107 H 0.33029 0.47895 0.308 0.0
H1108 H 0.39566 0.48128 0.2615 0.0
C1109 C 0.33747 0.53392 0.19175 0.0
C1110 C 0.33462 0.50796 0.24017 0.0
C1111 C 0.33513 0.55222 0.17435 0.0
C1112 C 0.33918 0.44424 0.32241 0.0
C1113 C 0.34124 0.46296 0.30544 0.0
C1114 C 0.3785 0.4885 0.2556 0.0
C1115 C 0.35509 0.53528 0.21022 0.0
C1116 C 0.35607 0.51648 0.22966 0.0
C1117 C 0.3569 0.46096 0.28524 0.0
C1118 C 0.35696 0.48002 0.26602 0.0
H1119 H 0.38071 0.58877 0.19373 0.0
H1120 H 0.38457 0.55668 0.22453 0.0
H1121 H 0.39489 0.5128 0.22975 0.0
H1122 H 0.38021 0.40532 0.2977 0.0
H1123 H 0.38351 0.43812 0.26758 0.0
C1124 C 0.66944 0.06069 0.3067 0.0
C1125 C 0.6505 0.07613 0.3135 0.0
C1126 C 0.66534 0.04095 0.29144 0.0
C1127 C 0.62448 0.01492 0.2456 0.0
H1128 H 0.65983 0.95672 0.26224 0.0
C1129 C 0.62509 0.92569 0.18718 0.0
C1130 C 0.64865 0.91945 0.18014 0.0
C1131 C 0.62117 0.94362 0.20499 0.0
C1132 C 0.64969 0.97277 0.2575 0.0
H1133 H 0.61244 0.08336 0.3088 0.0
H1134 H 0.6052 0.04842 0.28195 0.0
H1135 H 0.66023 0.99092 0.29048 0.0
H1136 H 0.68648 0.92659 0.18661 0.0
H1137 H 0.67962 0.95726 0.21796 0.0
H1138 H 0.61438 0.99657 0.21226 0.0
C1139 C 0.62325 0.0518 0.28857 0.0
C1140 C 0.65001 0.9924 0.27355 0.0
C1141 C 0.6274 0.07178 0.30391 0.0
C1142 C 0.66813 0.93105 0.19156 0.0
C1143 C 0.66423 0.94852 0.20959 0.0
C1144 C 0.62398 0.99508 0.22956 0.0
C1145 C 0.64215 0.03592 0.28261 0.0
C1146 C 0.63822 0.01403 0.26735 0.0
C1147 C 0.64077 0.95507 0.21637 0.0
C1148 C 0.6373 0.9742 0.23504 0.0
H1149 H 0.68755 0.06368 0.31337 0.0
H1150 H 0.68044 0.02952 0.28659 0.0
H1151 H 0.61522 0.03133 0.24034 0.0
H1152 H 0.60976 0.9171 0.17857 0.0
H1153 H 0.60293 0.94844 0.20998 0.0
C1154 C 0.54682 0.81985 0.14116 0.0
C1155 C 0.5698 0.81968 0.15188 0.0
C1156 C 0.52937 0.80333 0.14866 0.0
C1157 C 0.49183 0.77178 0.17229 0.0
H1158 H 0.51433 0.706 0.18031 0.0
C1159 C 0.42467 0.69314 0.17504 0.0
C1160 C 0.43081 0.67365 0.15967 0.0
C1161 C 0.44189 0.71044 0.18143 0.0
C1162 C 0.50772 0.72427 0.17814 0.0
H1163 H 0.59206 0.80291 0.1799 0.0
H1164 H 0.56137 0.77433 0.19337 0.0
H1165 H 0.54333 0.73866 0.17719 0.0
H1166 H 0.46019 0.65622 0.14023 0.0
H1167 H 0.48989 0.68649 0.15075 0.0
H1168 H 0.45631 0.75724 0.17139 0.0
C1169 C 0.55703 0.7869 0.17875 0.0
C1170 C 0.52437 0.74309 0.17669 0.0
C1171 C 0.57458 0.80336 0.17111 0.0
C1172 C 0.45481 0.67105 0.15204 0.0
C1173 C 0.47195 0.68839 0.15827 0.0
C1174 C 0.47519 0.75295 0.1735 0.0
C1175 C 0.53437 0.78634 0.16724 0.0
C1176 C 0.51666 0.767 0.17293 0.0
C1177 C 0.46558 0.70867 0.17248 0.0
C1178 C 0.48296 0.72886 0.17564 0.0
H1179 H 0.54253 0.83217 0.1263 0.0
H1180 H 0.5123 0.80324 0.13907 0.0
H1181 H 0.48522 0.79003 0.16994 0.0
H1182 H 0.40636 0.69553 0.18143 0.0
H1183 H 0.43646 0.72557 0.1928 0.0
loop_
_geom_bond_atom_site_label_1
_geom_bond_atom_site_label_2
_geom_bond_distance
_geom_bond_site_symmetry_2
_ccdc_geom_bond_type
Mg0 O1 2.028 . S
Mg0 O7 1.986 . S
Mg0 O9 2.114 . S
Mg0 O10 2.251 . S
Mg0 O13 2.010 . S
O1 Mg0 2.028 . S
O1 C4 1.250 . S
O2 Mg3 2.028 . S
O2 C4 1.248 . S
Mg3 O2 2.028 . S
Mg3 O8 2.032 . S
Mg3 O10 2.079 . S
C4 O1 1.250 . S
C4 O2 1.248 . S
C5 O6 1.264 . S
C5 O13 1.249 . S
O6 C5 1.264 . S
O7 Mg0 1.986 . S
O7 C11 1.246 . S
O8 Mg3 2.032 . S
O8 C11 1.259 . S
O9 Mg0 2.114 . S
O9 C12 1.252 . S
O10 Mg0 2.251 . S
O10 Mg3 2.079 . S
O10 C12 1.273 . S
C11 O7 1.246 . S
C11 O8 1.259 . S
C12 O9 1.252 . S
C12 O10 1.273 . S
O13 Mg0 2.010 . S
O13 C5 1.249 . S
Mg14 O15 2.028 . S
Mg14 O21 1.986 . S
Mg14 O23 2.114 . S
Mg14 O24 2.251 . S
Mg14 O27 2.010 . S
O15 Mg14 2.028 . S
O15 C18 1.250 . S
O16 Mg17 2.028 . S
O16 C18 1.248 . S
Mg17 O16 2.028 . S
Mg17 O22 2.032 . S
Mg17 O24 2.079 . S
C18 O15 1.250 . S
C18 O16 1.248 . S
C19 O20 1.264 . S
C19 O27 1.249 . S
O20 C19 1.264 . S
O21 Mg14 1.986 . S
O21 C25 1.246 . S
O22 Mg17 2.032 . S
O22 C25 1.259 . S
O23 Mg14 2.114 . S
O23 C26 1.252 . S
O24 Mg14 2.251 . S
O24 Mg17 2.079 . S
O24 C26 1.273 . S
C25 O21 1.246 . S
C25 O22 1.259 . S
C26 O23 1.252 . S
C26 O24 1.273 . S
O27 Mg14 2.010 . S
O27 C19 1.249 . S
Mg28 O29 2.028 . S
Mg28 O35 1.986 . S
Mg28 O37 2.114 . S
Mg28 O38 2.251 . S
Mg28 O41 2.010 . S
O29 Mg28 2.028 . S
O29 C32 1.250 . S
O30 Mg31 2.028 . S
O30 C32 1.248 . S
Mg31 O30 2.028 . S
Mg31 O36 2.032 . S
Mg31 O38 2.079 . S
C32 O29 1.250 . S
C32 O30 1.248 . S
C33 O34 1.264 . S
C33 O41 1.249 . S
O34 C33 1.264 . S
O35 Mg28 1.986 . S
O35 C39 1.246 . S
O36 Mg31 2.032 . S
O36 C39 1.259 . S
O37 Mg28 2.114 . S
O37 C40 1.252 . S
O38 Mg28 2.251 . S
O38 Mg31 2.079 . S
O38 C40 1.273 . S
C39 O35 1.246 . S
C39 O36 1.259 . S
C40 O37 1.252 . S
C40 O38 1.273 . S
O41 Mg28 2.010 . S
O41 C33 1.249 . S
Mg42 O43 2.028 . S
Mg42 O49 1.986 . S
Mg42 O51 2.114 . S
Mg42 O52 2.251 . S
Mg42 O55 2.010 . S
O43 Mg42 2.028 . S
O43 C46 1.250 . S
O44 Mg45 2.028 . S
O44 C46 1.248 . S
Mg45 O44 2.028 . S
Mg45 O50 2.032 . S
Mg45 O52 2.079 . S
C46 O43 1.250 . S
C46 O44 1.248 . S
C47 O48 1.264 . S
C47 O55 1.249 . S
O48 C47 1.264 . S
O49 Mg42 1.986 . S
O49 C53 1.246 . S
O50 Mg45 2.032 . S
O50 C53 1.259 . S
O51 Mg42 2.114 . S
O51 C54 1.252 . S
O52 Mg42 2.251 . S
O52 Mg45 2.079 . S
O52 C54 1.273 . S
C53 O49 1.246 . S
C53 O50 1.259 . S
C54 O51 1.252 . S
C54 O52 1.273 . S
O55 Mg42 2.010 . S
O55 C47 1.249 . S
Mg56 O57 2.028 . S
Mg56 O63 1.986 . S
Mg56 O65 2.114 . S
Mg56 O66 2.251 . S
Mg56 O69 2.010 . S
O57 Mg56 2.028 . S
O57 C60 1.250 . S
O58 Mg59 2.028 . S
O58 C60 1.248 . S
Mg59 O58 2.028 . S
Mg59 O64 2.032 . S
Mg59 O66 2.079 . S
C60 O57 1.250 . S
C60 O58 1.248 . S
C61 O62 1.264 . S
C61 O69 1.249 . S
O62 C61 1.264 . S
O63 Mg56 1.986 . S
O63 C67 1.246 . S
O64 Mg59 2.032 . S
O64 C67 1.259 . S
O65 Mg56 2.114 . S
O65 C68 1.252 . S
O66 Mg56 2.251 . S
O66 Mg59 2.079 . S
O66 C68 1.273 . S
C67 O63 1.246 . S
C67 O64 1.259 . S
C68 O65 1.252 . S
C68 O66 1.273 . S
O69 Mg56 2.010 . S
O69 C61 1.249 . S
Mg70 O71 2.028 . S
Mg70 O77 1.986 . S
Mg70 O79 2.114 . S
Mg70 O80 2.251 . S
Mg70 O83 2.010 . S
O71 Mg70 2.028 . S
O71 C74 1.250 . S
O72 Mg73 2.028 . S
O72 C74 1.248 . S
Mg73 O72 2.028 . S
Mg73 O78 2.032 . S
Mg73 O80 2.079 . S
C74 O71 1.250 . S
C74 O72 1.248 . S
C75 O76 1.264 . S
C75 O83 1.249 . S
O76 C75 1.264 . S
O77 Mg70 1.986 . S
O77 C81 1.246 . S
O78 Mg73 2.032 . S
O78 C81 1.259 . S
O79 Mg70 2.114 . S
O79 C82 1.252 . S
O80 Mg70 2.251 . S
O80 Mg73 2.079 . S
O80 C82 1.273 . S
C81 O77 1.246 . S
C81 O78 1.259 . S
C82 O79 1.252 . S
C82 O80 1.273 . S
O83 Mg70 2.010 . S
O83 C75 1.249 . S
Mg84 O85 2.028 . S
Mg84 O91 1.986 . S
Mg84 O93 2.114 . S
Mg84 O94 2.251 . S
Mg84 O97 2.010 . S
O85 Mg84 2.028 . S
O85 C88 1.250 . S
O86 Mg87 2.028 . S
O86 C88 1.248 . S
Mg87 O86 2.028 . S
Mg87 O92 2.032 . S
Mg87 O94 2.079 . S
C88 O85 1.250 . S
C88 O86 1.248 . S
C89 O90 1.264 . S
C89 O97 1.249 . S
O90 C89 1.264 . S
O91 Mg84 1.986 . S
O91 C95 1.246 . S
O92 Mg87 2.032 . S
O92 C95 1.259 . S
O93 Mg84 2.114 . S
O93 C96 1.252 . S
O94 Mg84 2.251 . S
O94 Mg87 2.079 . S
O94 C96 1.273 . S
C95 O91 1.246 . S
C95 O92 1.259 . S
C96 O93 1.252 . S
C96 O94 1.273 . S
O97 Mg84 2.010 . S
O97 C89 1.249 . S
Mg98 O99 2.028 . S
Mg98 O105 1.986 . S
Mg98 O107 2.114 . S
Mg98 O108 2.251 . S
Mg98 O111 2.010 . S
O99 Mg98 2.028 . S
O99 C102 1.250 . S
O100 Mg101 2.028 . S
O100 C102 1.248 . S
Mg101 O100 2.028 . S
Mg101 O106 2.032 . S
Mg101 O108 2.079 . S
C102 O99 1.250 . S
C102 O100 1.248 . S
C103 O104 1.264 . S
C103 O111 1.249 . S
O104 C103 1.264 . S
O105 Mg98 1.986 . S
O105 C109 1.246 . S
O106 Mg101 2.032 . S
O106 C109 1.259 . S
O107 Mg98 2.114 . S
O107 C110 1.252 . S
O108 Mg98 2.251 . S
O108 Mg101 2.079 . S
O108 C110 1.273 . S
C109 O105 1.246 . S
C109 O106 1.259 . S
C110 O107 1.252 . S
C110 O108 1.273 . S
O111 Mg98 2.010 . S
O111 C103 1.249 . S
Mg112 O113 2.028 . S
Mg112 O119 1.986 . S
Mg112 O121 2.114 . S
Mg112 O122 2.251 . S
Mg112 O125 2.010 . S
O113 Mg112 2.028 . S
O113 C116 1.250 . S
O114 Mg115 2.028 . S
O114 C116 1.248 . S
Mg115 O114 2.028 . S
Mg115 O120 2.032 . S
Mg115 O122 2.079 . S
C116 O113 1.250 . S
C116 O114 1.248 . S
C117 O118 1.264 . S
C117 O125 1.249 . S
O118 C117 1.264 . S
O119 Mg112 1.986 . S
O119 C123 1.246 . S
O120 Mg115 2.032 . S
O120 C123 1.259 . S
O121 Mg112 2.114 . S
O121 C124 1.252 . S
O122 Mg112 2.251 . S
O122 Mg115 2.079 . S
O122 C124 1.273 . S
C123 O119 1.246 . S
C123 O120 1.259 . S
C124 O121 1.252 . S
C124 O122 1.273 . S
O125 Mg112 2.010 . S
O125 C117 1.249 . S
Mg126 O127 2.028 . S
Mg126 O133 1.986 . S
Mg126 O135 2.114 . S
Mg126 O136 2.251 . S
Mg126 O139 2.010 . S
O127 Mg126 2.028 . S
O127 C130 1.250 . S
O128 Mg129 2.028 . S
O128 C130 1.248 . S
Mg129 O128 2.028 . S
Mg129 O134 2.032 . S
Mg129 O136 2.079 . S
C130 O127 1.250 . S
C130 O128 1.248 . S
C131 O132 1.264 . S
C131 O139 1.249 . S
O132 C131 1.264 . S
O133 Mg126 1.986 . S
O133 C137 1.246 . S
O134 Mg129 2.032 . S
O134 C137 1.259 . S
O135 Mg126 2.114 . S
O135 C138 1.252 . S
O136 Mg126 2.251 . S
O136 Mg129 2.079 . S
O136 C138 1.273 . S
C137 O133 1.246 . S
C137 O134 1.259 . S
C138 O135 1.252 . S
C138 O136 1.273 . S
O139 Mg126 2.010 . S
O139 C131 1.249 . S
Mg140 O141 2.028 . S
Mg140 O147 1.986 . S
Mg140 O149 2.114 . S
Mg140 O150 2.251 . S
Mg140 O153 2.010 . S
O141 Mg140 2.028 . S
O141 C144 1.250 . S
O142 Mg143 2.028 . S
O142 C144 1.248 . S
Mg143 O142 2.028 . S
Mg143 O148 2.032 . S
Mg143 O150 2.079 . S
C144 O141 1.250 . S
C144 O142 1.248 . S
C145 O146 1.264 . S
C145 O153 1.249 . S
O146 C145 1.264 . S
O147 Mg140 1.986 . S
O147 C151 1.246 . S
O148 Mg143 2.032 . S
O148 C151 1.259 . S
O149 Mg140 2.114 . S
O149 C152 1.252 . S
O150 Mg140 2.251 . S
O150 Mg143 2.079 . S
O150 C152 1.273 . S
C151 O147 1.246 . S
C151 O148 1.259 . S
C152 O149 1.252 . S
C152 O150 1.273 . S
O153 Mg140 2.010 . S
O153 C145 1.249 . S
Mg154 O155 2.028 . S
Mg154 O161 1.986 . S
Mg154 O163 2.114 . S
Mg154 O164 2.251 . S
Mg154 O167 2.010 . S
O155 Mg154 2.028 . S
O155 C158 1.250 . S
O156 Mg157 2.028 . S
O156 C158 1.248 . S
Mg157 O156 2.028 . S
Mg157 O162 2.032 . S
Mg157 O164 2.079 . S
C158 O155 1.250 . S
C158 O156 1.248 . S
C159 O160 1.264 . S
C159 O167 1.249 . S
O160 C159 1.264 . S
O161 Mg154 1.986 . S
O161 C165 1.246 . S
O162 Mg157 2.032 . S
O162 C165 1.259 . S
O163 Mg154 2.114 . S
O163 C166 1.252 . S
O164 Mg154 2.251 . S
O164 Mg157 2.079 . S
O164 C166 1.273 . S
C165 O161 1.246 . S
C165 O162 1.259 . S
C166 O163 1.252 . S
C166 O164 1.273 . S
O167 Mg154 2.010 . S
O167 C159 1.249 . S
Mg168 O169 2.028 . S
Mg168 O175 1.986 . S
Mg168 O177 2.114 . S
Mg168 O178 2.251 . S
Mg168 O181 2.010 . S
O169 Mg168 2.028 . S
O169 C172 1.250 . S
O170 Mg171 2.028 . S
O170 C172 1.248 . S
Mg171 O170 2.028 . S
Mg171 O176 2.032 . S
Mg171 O178 2.079 . S
C172 O169 1.250 . S
C172 O170 1.248 . S
C173 O174 1.264 . S
C173 O181 1.249 . S
O174 C173 1.264 . S
O175 Mg168 1.986 . S
O175 C179 1.246 . S
O176 Mg171 2.032 . S
O176 C179 1.259 . S
O177 Mg168 2.114 . S
O177 C180 1.252 . S
O178 Mg168 2.251 . S
O178 Mg171 2.079 . S
O178 C180 1.273 . S
C179 O175 1.246 . S
C179 O176 1.259 . S
C180 O177 1.252 . S
C180 O178 1.273 . S
O181 Mg168 2.010 . S
O181 C173 1.249 . S
Mg182 O183 2.028 . S
Mg182 O189 1.986 . S
Mg182 O191 2.114 . S
Mg182 O192 2.251 . S
Mg182 O195 2.010 . S
O183 Mg182 2.028 . S
O183 C186 1.250 . S
O184 Mg185 2.028 . S
O184 C186 1.248 . S
Mg185 O184 2.028 . S
Mg185 O190 2.032 . S
Mg185 O192 2.079 . S
C186 O183 1.250 . S
C186 O184 1.248 . S
C187 O188 1.264 . S
C187 O195 1.249 . S
O188 C187 1.264 . S
O189 Mg182 1.986 . S
O189 C193 1.246 . S
O190 Mg185 2.032 . S
O190 C193 1.259 . S
O191 Mg182 2.114 . S
O191 C194 1.252 . S
O192 Mg182 2.251 . S
O192 Mg185 2.079 . S
O192 C194 1.273 . S
C193 O189 1.246 . S
C193 O190 1.259 . S
C194 O191 1.252 . S
C194 O192 1.273 . S
O195 Mg182 2.010 . S
O195 C187 1.249 . S
Mg196 O197 2.028 . S
Mg196 O203 1.986 . S
Mg196 O205 2.114 . S
Mg196 O206 2.251 . S
Mg196 O209 2.010 . S
O197 Mg196 2.028 . S
O197 C200 1.250 . S
O198 Mg199 2.028 . S
O198 C200 1.248 . S
Mg199 O198 2.028 . S
Mg199 O204 2.032 . S
Mg199 O206 2.079 . S
C200 O197 1.250 . S
C200 O198 1.248 . S
C201 O202 1.264 . S
C201 O209 1.249 . S
O202 C201 1.264 . S
O203 Mg196 1.986 . S
O203 C207 1.246 . S
O204 Mg199 2.032 . S
O204 C207 1.259 . S
O205 Mg196 2.114 . S
O205 C208 1.252 . S
O206 Mg196 2.251 . S
O206 Mg199 2.079 . S
O206 C208 1.273 . S
C207 O203 1.246 . S
C207 O204 1.259 . S
C208 O205 1.252 . S
C208 O206 1.273 . S
O209 Mg196 2.010 . S
O209 C201 1.249 . S
Mg210 O211 2.028 . S
Mg210 O217 1.986 . S
Mg210 O219 2.114 . S
Mg210 O220 2.251 . S
Mg210 O223 2.010 . S
O211 Mg210 2.028 . S
O211 C214 1.250 . S
O212 Mg213 2.028 . S
O212 C214 1.248 . S
Mg213 O212 2.028 . S
Mg213 O218 2.032 . S
Mg213 O220 2.079 . S
C214 O211 1.250 . S
C214 O212 1.248 . S
C215 O216 1.264 . S
C215 O223 1.249 . S
O216 C215 1.264 . S
O217 Mg210 1.986 . S
O217 C221 1.246 . S
O218 Mg213 2.032 . S
O218 C221 1.259 . S
O219 Mg210 2.114 . S
O219 C222 1.252 . S
O220 Mg210 2.251 . S
O220 Mg213 2.079 . S
O220 C222 1.273 . S
C221 O217 1.246 . S
C221 O218 1.259 . S
C222 O219 1.252 . S
C222 O220 1.273 . S
O223 Mg210 2.010 . S
O223 C215 1.249 . S
C224 C225 1.349 . S
C224 C226 1.327 . S
C224 H249 0.950 . S
C225 C224 1.349 . S
C225 C241 1.349 . S
C226 C224 1.327 . S
C226 C245 1.429 . S
C226 H250 0.950 . S
C227 C244 1.574 . S
C227 C246 1.368 . S
C227 H251 0.949 . S
H228 C232 0.949 . S
C229 C230 1.349 . S
C229 C231 1.327 . S
C229 H252 0.950 . S
C230 C229 1.349 . S
C230 C242 1.349 . S
C231 C229 1.327 . S
C231 C247 1.429 . S
C231 H253 0.950 . S
C232 H228 0.949 . S
C232 C240 1.574 . S
C232 C248 1.368 . S
H233 C241 0.950 . S
H234 C239 0.950 . S
H235 C240 0.949 . S
H236 C242 0.950 . S
H237 C243 0.950 . S
H238 C244 0.949 . S
C239 H234 0.950 . S
C239 C241 1.327 . S
C239 C245 1.429 . S
C240 C232 1.574 . S
C240 H235 0.949 . S
C240 C246 1.368 . S
C241 C225 1.349 . S
C241 H233 0.950 . S
C241 C239 1.327 . S
C242 C230 1.349 . S
C242 H236 0.950 . S
C242 C243 1.327 . S
C243 H237 0.950 . S
C243 C242 1.327 . S
C243 C247 1.429 . S
C244 C227 1.574 . S
C244 H238 0.949 . S
C244 C248 1.368 . S
C245 C226 1.429 . S
C245 C239 1.429 . S
C245 C246 1.523 . S
C246 C227 1.368 . S
C246 C240 1.368 . S
C246 C245 1.523 . S
C247 C231 1.429 . S
C247 C243 1.429 . S
C247 C248 1.523 . S
C248 C232 1.368 . S
C248 C244 1.368 . S
C248 C247 1.523 . S
H249 C224 0.950 . S
H250 C226 0.950 . S
H251 C227 0.949 . S
H252 C229 0.950 . S
H253 C231 0.950 . S
C254 C255 1.349 . S
C254 C256 1.327 . S
C254 H279 0.950 . S
C255 C254 1.349 . S
C255 C271 1.349 . S
C256 C254 1.327 . S
C256 C275 1.429 . S
C256 H280 0.950 . S
C257 C274 1.574 . S
C257 C276 1.368 . S
C257 H281 0.949 . S
H258 C262 0.949 . S
C259 C260 1.349 . S
C259 C261 1.327 . S
C259 H282 0.950 . S
C260 C259 1.349 . S
C260 C272 1.349 . S
C261 C259 1.327 . S
C261 C277 1.429 . S
C261 H283 0.950 . S
C262 H258 0.949 . S
C262 C270 1.574 . S
C262 C278 1.368 . S
H263 C271 0.950 . S
H264 C269 0.950 . S
H265 C270 0.949 . S
H266 C272 0.950 . S
H267 C273 0.950 . S
H268 C274 0.949 . S
C269 H264 0.950 . S
C269 C271 1.327 . S
C269 C275 1.429 . S
C270 C262 1.574 . S
C270 H265 0.949 . S
C270 C276 1.368 . S
C271 C255 1.349 . S
C271 H263 0.950 . S
C271 C269 1.327 . S
C272 C260 1.349 . S
C272 H266 0.950 . S
C272 C273 1.327 . S
C273 H267 0.950 . S
C273 C272 1.327 . S
C273 C277 1.429 . S
C274 C257 1.574 . S
C274 H268 0.949 . S
C274 C278 1.368 . S
C275 C256 1.429 . S
C275 C269 1.429 . S
C275 C276 1.523 . S
C276 C257 1.368 . S
C276 C270 1.368 . S
C276 C275 1.523 . S
C277 C261 1.429 . S
C277 C273 1.429 . S
C277 C278 1.523 . S
C278 C262 1.368 . S
C278 C274 1.368 . S
C278 C277 1.523 . S
H279 C254 0.950 . S
H280 C256 0.950 . S
H281 C257 0.949 . S
H282 C259 0.950 . S
H283 C261 0.950 . S
C284 C285 1.349 . S
C284 C286 1.327 . S
C284 H309 0.950 . S
C285 C284 1.349 . S
C285 C301 1.349 . S
C286 C284 1.327 . S
C286 C305 1.429 . S
C286 H310 0.950 . S
C287 C304 1.574 . S
C287 C306 1.368 . S
C287 H311 0.949 . S
H288 C292 0.949 . S
C289 C290 1.349 . S
C289 C291 1.327 . S
C289 H312 0.950 . S
C290 C289 1.349 . S
C290 C302 1.349 . S
C291 C289 1.327 . S
C291 C307 1.429 . S
C291 H313 0.950 . S
C292 H288 0.949 . S
C292 C300 1.574 . S
C292 C308 1.368 . S
H293 C301 0.950 . S
H294 C299 0.950 . S
H295 C300 0.949 . S
H296 C302 0.950 . S
H297 C303 0.950 . S
H298 C304 0.949 . S
C299 H294 0.950 . S
C299 C301 1.327 . S
C299 C305 1.429 . S
C300 C292 1.574 . S
C300 H295 0.949 . S
C300 C306 1.368 . S
C301 C285 1.349 . S
C301 H293 0.950 . S
C301 C299 1.327 . S
C302 C290 1.349 . S
C302 H296 0.950 . S
C302 C303 1.327 . S
C303 H297 0.950 . S
C303 C302 1.327 . S
C303 C307 1.429 . S
C304 C287 1.574 . S
C304 H298 0.949 . S
C304 C308 1.368 . S
C305 C286 1.429 . S
C305 C299 1.429 . S
C305 C306 1.523 . S
C306 C287 1.368 . S
C306 C300 1.368 . S
C306 C305 1.523 . S
C307 C291 1.429 . S
C307 C303 1.429 . S
C307 C308 1.523 . S
C308 C292 1.368 . S
C308 C304 1.368 . S
C308 C307 1.523 . S
H309 C284 0.950 . S
H310 C286 0.950 . S
H311 C287 0.949 . S
H312 C289 0.950 . S
H313 C291 0.950 . S
C314 C315 1.349 . S
C314 C316 1.327 . S
C314 H339 0.950 . S
C315 C314 1.349 . S
C315 C331 1.349 . S
C316 C314 1.327 . S
C316 C335 1.429 . S
C316 H340 0.950 . S
C317 C334 1.574 . S
C317 C336 1.368 . S
C317 H341 0.949 . S
H318 C322 0.949 . S
C319 C320 1.349 . S
C319 C321 1.327 . S
C319 H342 0.950 . S
C320 C319 1.349 . S
C320 C332 1.349 . S
C321 C319 1.327 . S
C321 C337 1.429 . S
C321 H343 0.950 . S
C322 H318 0.949 . S
C322 C330 1.574 . S
C322 C338 1.368 . S
H323 C331 0.950 . S
H324 C329 0.950 . S
H325 C330 0.949 . S
H326 C332 0.950 . S
H327 C333 0.950 . S
H328 C334 0.949 . S
C329 H324 0.950 . S
C329 C331 1.327 . S
C329 C335 1.429 . S
C330 C322 1.574 . S
C330 H325 0.949 . S
C330 C336 1.368 . S
C331 C315 1.349 . S
C331 H323 0.950 . S
C331 C329 1.327 . S
C332 C320 1.349 . S
C332 H326 0.950 . S
C332 C333 1.327 . S
C333 H327 0.950 . S
C333 C332 1.327 . S
C333 C337 1.429 . S
C334 C317 1.574 . S
C334 H328 0.949 . S
C334 C338 1.368 . S
C335 C316 1.429 . S
C335 C329 1.429 . S
C335 C336 1.523 . S
C336 C317 1.368 . S
C336 C330 1.368 . S
C336 C335 1.523 . S
C337 C321 1.429 . S
C337 C333 1.429 . S
C337 C338 1.523 . S
C338 C322 1.368 . S
C338 C334 1.368 . S
C338 C337 1.523 . S
H339 C314 0.950 . S
H340 C316 0.950 . S
H341 C317 0.949 . S
H342 C319 0.950 . S
H343 C321 0.950 . S
C344 C345 1.349 . S
C344 C346 1.327 . S
C344 H369 0.950 . S
C345 C344 1.349 . S
C345 C361 1.349 . S
C346 C344 1.327 . S
C346 C365 1.429 . S
C346 H370 0.950 . S
C347 C364 1.574 . S
C347 C366 1.368 . S
C347 H371 0.949 . S
H348 C352 0.949 . S
C349 C350 1.349 . S
C349 C351 1.327 . S
C349 H372 0.950 . S
C350 C349 1.349 . S
C350 C362 1.349 . S
C351 C349 1.327 . S
C351 C367 1.429 . S
C351 H373 0.950 . S
C352 H348 0.949 . S
C352 C360 1.574 . S
C352 C368 1.368 . S
H353 C361 0.950 . S
H354 C359 0.950 . S
H355 C360 0.949 . S
H356 C362 0.950 . S
H357 C363 0.950 . S
H358 C364 0.949 . S
C359 H354 0.950 . S
C359 C361 1.327 . S
C359 C365 1.429 . S
C360 C352 1.574 . S
C360 H355 0.949 . S
C360 C366 1.368 . S
C361 C345 1.349 . S
C361 H353 0.950 . S
C361 C359 1.327 . S
C362 C350 1.349 . S
C362 H356 0.950 . S
C362 C363 1.327 . S
C363 H357 0.950 . S
C363 C362 1.327 . S
C363 C367 1.429 . S
C364 C347 1.574 . S
C364 H358 0.949 . S
C364 C368 1.368 . S
C365 C346 1.429 . S
C365 C359 1.429 . S
C365 C366 1.523 . S
C366 C347 1.368 . S
C366 C360 1.368 . S
C366 C365 1.523 . S
C367 C351 1.429 . S
C367 C363 1.429 . S
C367 C368 1.523 . S
C368 C352 1.368 . S
C368 C364 1.368 . S
C368 C367 1.523 . S
H369 C344 0.950 . S
H370 C346 0.950 . S
H371 C347 0.949 . S
H372 C349 0.950 . S
H373 C351 0.950 . S
C374 C375 1.349 . S
C374 C376 1.327 . S
C374 H399 0.950 . S
C375 C374 1.349 . S
C375 C391 1.349 . S
C376 C374 1.327 . S
C376 C395 1.429 . S
C376 H400 0.950 . S
C377 C394 1.574 . S
C377 C396 1.368 . S
C377 H401 0.949 . S
H378 C382 0.949 . S
C379 C380 1.349 . S
C379 C381 1.327 . S
C379 H402 0.950 . S
C380 C379 1.349 . S
C380 C392 1.349 . S
C381 C379 1.327 . S
C381 C397 1.429 . S
C381 H403 0.950 . S
C382 H378 0.949 . S
C382 C390 1.574 . S
C382 C398 1.368 . S
H383 C391 0.950 . S
H384 C389 0.950 . S
H385 C390 0.949 . S
H386 C392 0.950 . S
H387 C393 0.950 . S
H388 C394 0.949 . S
C389 H384 0.950 . S
C389 C391 1.327 . S
C389 C395 1.429 . S
C390 C382 1.574 . S
C390 H385 0.949 . S
C390 C396 1.368 . S
C391 C375 1.349 . S
C391 H383 0.950 . S
C391 C389 1.327 . S
C392 C380 1.349 . S
C392 H386 0.950 . S
C392 C393 1.327 . S
C393 H387 0.950 . S
C393 C392 1.327 . S
C393 C397 1.429 . S
C394 C377 1.574 . S
C394 H388 0.949 . S
C394 C398 1.368 . S
C395 C376 1.429 . S
C395 C389 1.429 . S
C395 C396 1.523 . S
C396 C377 1.368 . S
C396 C390 1.368 . S
C396 C395 1.523 . S
C397 C381 1.429 . S
C397 C393 1.429 . S
C397 C398 1.523 . S
C398 C382 1.368 . S
C398 C394 1.368 . S
C398 C397 1.523 . S
H399 C374 0.950 . S
H400 C376 0.950 . S
H401 C377 0.949 . S
H402 C379 0.950 . S
H403 C381 0.950 . S
C404 C405 1.349 . S
C404 C406 1.327 . S
C404 H429 0.950 . S
C405 C404 1.349 . S
C405 C421 1.349 . S
C406 C404 1.327 . S
C406 C425 1.429 . S
C406 H430 0.950 . S
C407 C424 1.574 . S
C407 C426 1.368 . S
C407 H431 0.949 . S
H408 C412 0.949 . S
C409 C410 1.349 . S
C409 C411 1.327 . S
C409 H432 0.950 . S
C410 C409 1.349 . S
C410 C422 1.349 . S
C411 C409 1.327 . S
C411 C427 1.429 . S
C411 H433 0.950 . S
C412 H408 0.949 . S
C412 C420 1.574 . S
C412 C428 1.368 . S
H413 C421 0.950 . S
H414 C419 0.950 . S
H415 C420 0.949 . S
H416 C422 0.950 . S
H417 C423 0.950 . S
H418 C424 0.949 . S
C419 H414 0.950 . S
C419 C421 1.327 . S
C419 C425 1.429 . S
C420 C412 1.574 . S
C420 H415 0.949 . S
C420 C426 1.368 . S
C421 C405 1.349 . S
C421 H413 0.950 . S
C421 C419 1.327 . S
C422 C410 1.349 . S
C422 H416 0.950 . S
C422 C423 1.327 . S
C423 H417 0.950 . S
C423 C422 1.327 . S
C423 C427 1.429 . S
C424 C407 1.574 . S
C424 H418 0.949 . S
C424 C428 1.368 . S
C425 C406 1.429 . S
C425 C419 1.429 . S
C425 C426 1.523 . S
C426 C407 1.368 . S
C426 C420 1.368 . S
C426 C425 1.523 . S
C427 C411 1.429 . S
C427 C423 1.429 . S
C427 C428 1.523 . S
C428 C412 1.368 . S
C428 C424 1.368 . S
C428 C427 1.523 . S
H429 C404 0.950 . S
H430 C406 0.950 . S
H431 C407 0.949 . S
H432 C409 0.950 . S
H433 C411 0.950 . S
C434 C435 1.349 . S
C434 C436 1.327 . S
C434 H459 0.950 . S
C435 C434 1.349 . S
C435 C451 1.349 . S
C436 C434 1.327 . S
C436 C455 1.429 . S
C436 H460 0.950 . S
C437 C454 1.574 . S
C437 C456 1.368 . S
C437 H461 0.949 . S
H438 C442 0.949 . S
C439 C440 1.349 . S
C439 C441 1.327 . S
C439 H462 0.950 . S
C440 C439 1.349 . S
C440 C452 1.349 . S
C441 C439 1.327 . S
C441 C457 1.429 . S
C441 H463 0.950 . S
C442 H438 0.949 . S
C442 C450 1.574 . S
C442 C458 1.368 . S
H443 C451 0.950 . S
H444 C449 0.950 . S
H445 C450 0.949 . S
H446 C452 0.950 . S
H447 C453 0.950 . S
H448 C454 0.949 . S
C449 H444 0.950 . S
C449 C451 1.327 . S
C449 C455 1.429 . S
C450 C442 1.574 . S
C450 H445 0.949 . S
C450 C456 1.368 . S
C451 C435 1.349 . S
C451 H443 0.950 . S
C451 C449 1.327 . S
C452 C440 1.349 . S
C452 H446 0.950 . S
C452 C453 1.327 . S
C453 H447 0.950 . S
C453 C452 1.327 . S
C453 C457 1.429 . S
C454 C437 1.574 . S
C454 H448 0.949 . S
C454 C458 1.368 . S
C455 C436 1.429 . S
C455 C449 1.429 . S
C455 C456 1.523 . S
C456 C437 1.368 . S
C456 C450 1.368 . S
C456 C455 1.523 . S
C457 C441 1.429 . S
C457 C453 1.429 . S
C457 C458 1.523 . S
C458 C442 1.368 . S
C458 C454 1.368 . S
C458 C457 1.523 . S
H459 C434 0.950 . S
H460 C436 0.950 . S
H461 C437 0.949 . S
H462 C439 0.950 . S
H463 C441 0.950 . S
C464 C465 1.349 . S
C464 C466 1.327 . S
C464 H489 0.950 . S
C465 C464 1.349 . S
C465 C481 1.349 . S
C466 C464 1.327 . S
C466 C485 1.429 . S
C466 H490 0.950 . S
C467 C484 1.574 1_565 S
C467 C486 1.368 . S
C467 H491 0.949 . S
H468 C472 0.949 . S
C469 C470 1.349 . S
C469 C471 1.327 . S
C469 H492 0.950 . S
C470 C469 1.349 . S
C470 C482 1.349 . S
C471 C469 1.327 . S
C471 C487 1.429 . S
C471 H493 0.950 . S
C472 H468 0.949 . S
C472 C480 1.574 1_545 S
C472 C488 1.368 . S
H473 C481 0.950 . S
H474 C479 0.950 . S
H475 C480 0.949 . S
H476 C482 0.950 . S
H477 C483 0.950 . S
H478 C484 0.949 . S
C479 H474 0.950 . S
C479 C481 1.327 . S
C479 C485 1.429 . S
C480 C472 1.574 1_565 S
C480 H475 0.949 . S
C480 C486 1.368 . S
C481 C465 1.349 . S
C481 H473 0.950 . S
C481 C479 1.327 . S
C482 C470 1.349 . S
C482 H476 0.950 . S
C482 C483 1.327 . S
C483 H477 0.950 . S
C483 C482 1.327 . S
C483 C487 1.429 . S
C484 C467 1.574 1_545 S
C484 H478 0.949 . S
C484 C488 1.368 . S
C485 C466 1.429 . S
C485 C479 1.429 . S
C485 C486 1.523 . S
C486 C467 1.368 . S
C486 C480 1.368 . S
C486 C485 1.523 . S
C487 C471 1.429 . S
C487 C483 1.429 . S
C487 C488 1.523 . S
C488 C472 1.368 . S
C488 C484 1.368 . S
C488 C487 1.523 . S
H489 C464 0.950 . S
H490 C466 0.950 . S
H491 C467 0.949 . S
H492 C469 0.950 . S
H493 C471 0.950 . S
C494 C495 1.349 . S
C494 C496 1.327 . S
C494 H519 0.950 . S
C495 C494 1.349 . S
C495 C511 1.349 . S
C496 C494 1.327 . S
C496 C515 1.429 . S
C496 H520 0.950 . S
C497 C514 1.574 . S
C497 C516 1.368 . S
C497 H521 0.949 . S
H498 C502 0.949 . S
C499 C500 1.349 . S
C499 C501 1.327 . S
C499 H522 0.950 . S
C500 C499 1.349 . S
C500 C512 1.349 . S
C501 C499 1.327 . S
C501 C517 1.429 . S
C501 H523 0.950 . S
C502 H498 0.949 . S
C502 C510 1.574 . S
C502 C518 1.368 . S
H503 C511 0.950 . S
H504 C509 0.950 . S
H505 C510 0.949 . S
H506 C512 0.950 . S
H507 C513 0.950 . S
H508 C514 0.949 . S
C509 H504 0.950 . S
C509 C511 1.327 . S
C509 C515 1.429 . S
C510 C502 1.574 . S
C510 H505 0.949 . S
C510 C516 1.368 . S
C511 C495 1.349 . S
C511 H503 0.950 . S
C511 C509 1.327 . S
C512 C500 1.349 . S
C512 H506 0.950 . S
C512 C513 1.327 . S
C513 H507 0.950 . S
C513 C512 1.327 . S
C513 C517 1.429 . S
C514 C497 1.574 . S
C514 H508 0.949 . S
C514 C518 1.368 . S
C515 C496 1.429 . S
C515 C509 1.429 . S
C515 C516 1.523 . S
C516 C497 1.368 . S
C516 C510 1.368 . S
C516 C515 1.523 . S
C517 C501 1.429 . S
C517 C513 1.429 . S
C517 C518 1.523 . S
C518 C502 1.368 . S
C518 C514 1.368 . S
C518 C517 1.523 . S
H519 C494 0.950 . S
H520 C496 0.950 . S
H521 C497 0.949 . S
H522 C499 0.950 . S
H523 C501 0.950 . S
C524 C525 1.349 . S
C524 C526 1.327 . S
C524 H549 0.950 . S
C525 C524 1.349 . S
C525 C541 1.349 . S
C526 C524 1.327 . S
C526 C545 1.429 . S
C526 H550 0.950 . S
C527 C544 1.574 1_556 S
C527 C546 1.368 . S
C527 H551 0.949 . S
H528 C532 0.949 . S
C529 C530 1.349 . S
C529 C531 1.327 . S
C529 H552 0.950 . S
C530 C529 1.349 . S
C530 C542 1.349 . S
C531 C529 1.327 . S
C531 C547 1.429 . S
C531 H553 0.950 . S
C532 H528 0.949 . S
C532 C540 1.574 1_554 S
C532 C548 1.368 . S
H533 C541 0.950 . S
H534 C539 0.950 . S
H535 C540 0.949 . S
H536 C542 0.950 . S
H537 C543 0.950 . S
H538 C544 0.949 . S
C539 H534 0.950 . S
C539 C541 1.327 . S
C539 C545 1.429 . S
C540 C532 1.574 1_556 S
C540 H535 0.949 . S
C540 C546 1.368 . S
C541 C525 1.349 . S
C541 H533 0.950 . S
C541 C539 1.327 . S
C542 C530 1.349 . S
C542 H536 0.950 . S
C542 C543 1.327 . S
C543 H537 0.950 . S
C543 C542 1.327 . S
C543 C547 1.429 . S
C544 C527 1.574 1_554 S
C544 H538 0.949 . S
C544 C548 1.368 . S
C545 C526 1.429 . S
C545 C539 1.429 . S
C545 C546 1.523 . S
C546 C527 1.368 . S
C546 C540 1.368 . S
C546 C545 1.523 . S
C547 C531 1.429 . S
C547 C543 1.429 . S
C547 C548 1.523 . S
C548 C532 1.368 . S
C548 C544 1.368 . S
C548 C547 1.523 . S
H549 C524 0.950 . S
H550 C526 0.950 . S
H551 C527 0.949 . S
H552 C529 0.950 . S
H553 C531 0.950 . S
C554 C555 1.349 . S
C554 C556 1.327 . S
C554 H579 0.950 . S
C555 C554 1.349 . S
C555 C571 1.349 . S
C556 C554 1.327 . S
C556 C575 1.429 . S
C556 H580 0.950 . S
C557 C574 1.574 1_554 S
C557 C576 1.368 . S
C557 H581 0.949 . S
H558 C562 0.949 . S
C559 C560 1.349 . S
C559 C561 1.327 . S
C559 H582 0.950 . S
C560 C559 1.349 . S
C560 C572 1.349 . S
C561 C559 1.327 . S
C561 C577 1.429 . S
C561 H583 0.950 . S
C562 H558 0.949 . S
C562 C570 1.574 1_556 S
C562 C578 1.368 . S
H563 C571 0.950 . S
H564 C569 0.950 . S
H565 C570 0.949 . S
H566 C572 0.950 . S
H567 C573 0.950 . S
H568 C574 0.949 . S
C569 H564 0.950 . S
C569 C571 1.327 . S
C569 C575 1.429 . S
C570 C562 1.574 1_554 S
C570 H565 0.949 . S
C570 C576 1.368 . S
C571 C555 1.349 . S
C571 H563 0.950 . S
C571 C569 1.327 . S
C572 C560 1.349 . S
C572 H566 0.950 . S
C572 C573 1.327 . S
C573 H567 0.950 . S
C573 C572 1.327 . S
C573 C577 1.429 . S
C574 C557 1.574 1_556 S
C574 H568 0.949 . S
C574 C578 1.368 . S
C575 C556 1.429 . S
C575 C569 1.429 . S
C575 C576 1.523 . S
C576 C557 1.368 . S
C576 C570 1.368 . S
C576 C575 1.523 . S
C577 C561 1.429 . S
C577 C573 1.429 . S
C577 C578 1.523 . S
C578 C562 1.368 . S
C578 C574 1.368 . S
C578 C577 1.523 . S
H579 C554 0.950 . S
H580 C556 0.950 . S
H581 C557 0.949 . S
H582 C559 0.950 . S
H583 C561 0.950 . S
C584 C585 1.349 . S
C584 C586 1.327 . S
C584 H609 0.950 . S
C585 C584 1.349 . S
C585 C601 1.349 . S
C586 C584 1.327 . S
C586 C605 1.429 . S
C586 H610 0.950 . S
C587 C604 1.574 . S
C587 C606 1.368 . S
C587 H611 0.949 . S
H588 C592 0.949 . S
C589 C590 1.349 . S
C589 C591 1.327 . S
C589 H612 0.950 . S
C590 C589 1.349 . S
C590 C602 1.349 . S
C591 C589 1.327 . S
C591 C607 1.429 . S
C591 H613 0.950 . S
C592 H588 0.949 . S
C592 C600 1.574 . S
C592 C608 1.368 . S
H593 C601 0.950 . S
H594 C599 0.950 . S
H595 C600 0.949 . S
H596 C602 0.950 . S
H597 C603 0.950 . S
H598 C604 0.949 . S
C599 H594 0.950 . S
C599 C601 1.327 . S
C599 C605 1.429 . S
C600 C592 1.574 . S
C600 H595 0.949 . S
C600 C606 1.368 . S
C601 C585 1.349 . S
C601 H593 0.950 . S
C601 C599 1.327 . S
C602 C590 1.349 . S
C602 H596 0.950 . S
C602 C603 1.327 . S
C603 H597 0.950 . S
C603 C602 1.327 . S
C603 C607 1.429 . S
C604 C587 1.574 . S
C604 H598 0.949 . S
C604 C608 1.368 . S
C605 C586 1.429 . S
C605 C599 1.429 . S
C605 C606 1.523 . S
C606 C587 1.368 . S
C606 C600 1.368 . S
C606 C605 1.523 . S
C607 C591 1.429 . S
C607 C603 1.429 . S
C607 C608 1.523 . S
C608 C592 1.368 . S
C608 C604 1.368 . S
C608 C607 1.523 . S
H609 C584 0.950 . S
H610 C586 0.950 . S
H611 C587 0.949 . S
H612 C589 0.950 . S
H613 C591 0.950 . S
C614 C615 1.349 . S
C614 C616 1.327 . S
C614 H639 0.950 . S
C615 C614 1.349 . S
C615 C631 1.349 . S
C616 C614 1.327 . S
C616 C635 1.429 . S
C616 H640 0.950 . S
C617 C634 1.574 . S
C617 C636 1.368 . S
C617 H641 0.949 . S
H618 C622 0.949 . S
C619 C620 1.349 . S
C619 C621 1.327 . S
C619 H642 0.950 . S
C620 C619 1.349 . S
C620 C632 1.349 . S
C621 C619 1.327 . S
C621 C637 1.429 . S
C621 H643 0.950 . S
C622 H618 0.949 . S
C622 C630 1.574 . S
C622 C638 1.368 . S
H623 C631 0.950 . S
H624 C629 0.950 . S
H625 C630 0.949 . S
H626 C632 0.950 . S
H627 C633 0.950 . S
H628 C634 0.949 . S
C629 H624 0.950 . S
C629 C631 1.327 . S
C629 C635 1.429 . S
C630 C622 1.574 . S
C630 H625 0.949 . S
C630 C636 1.368 . S
C631 C615 1.349 . S
C631 H623 0.950 . S
C631 C629 1.327 . S
C632 C620 1.349 . S
C632 H626 0.950 . S
C632 C633 1.327 . S
C633 H627 0.950 . S
C633 C632 1.327 . S
C633 C637 1.429 . S
C634 C617 1.574 . S
C634 H628 0.949 . S
C634 C638 1.368 . S
C635 C616 1.429 . S
C635 C629 1.429 . S
C635 C636 1.523 . S
C636 C617 1.368 . S
C636 C630 1.368 . S
C636 C635 1.523 . S
C637 C621 1.429 . S
C637 C633 1.429 . S
C637 C638 1.523 . S
C638 C622 1.368 . S
C638 C634 1.368 . S
C638 C637 1.523 . S
H639 C614 0.950 . S
H640 C616 0.950 . S
H641 C617 0.949 . S
H642 C619 0.950 . S
H643 C621 0.950 . S
C644 C645 1.349 . S
C644 C646 1.327 . S
C644 H669 0.950 . S
C645 C644 1.349 . S
C645 C661 1.349 . S
C646 C644 1.327 . S
C646 C665 1.429 . S
C646 H670 0.950 . S
C647 C664 1.574 1_655 S
C647 C666 1.368 . S
C647 H671 0.949 . S
H648 C652 0.949 . S
C649 C650 1.349 . S
C649 C651 1.327 . S
C649 H672 0.950 . S
C650 C649 1.349 . S
C650 C662 1.349 . S
C651 C649 1.327 . S
C651 C667 1.429 . S
C651 H673 0.950 . S
C652 H648 0.949 . S
C652 C660 1.574 1_455 S
C652 C668 1.368 . S
H653 C661 0.950 . S
H654 C659 0.950 . S
H655 C660 0.949 . S
H656 C662 0.950 . S
H657 C663 0.950 . S
H658 C664 0.949 . S
C659 H654 0.950 . S
C659 C661 1.327 . S
C659 C665 1.429 . S
C660 C652 1.574 1_655 S
C660 H655 0.949 . S
C660 C666 1.368 . S
C661 C645 1.349 . S
C661 H653 0.950 . S
C661 C659 1.327 . S
C662 C650 1.349 . S
C662 H656 0.950 . S
C662 C663 1.327 . S
C663 H657 0.950 . S
C663 C662 1.327 . S
C663 C667 1.429 . S
C664 C647 1.574 1_455 S
C664 H658 0.949 . S
C664 C668 1.368 . S
C665 C646 1.429 . S
C665 C659 1.429 . S
C665 C666 1.523 . S
C666 C647 1.368 . S
C666 C660 1.368 . S
C666 C665 1.523 . S
C667 C651 1.429 . S
C667 C663 1.429 . S
C667 C668 1.523 . S
C668 C652 1.368 . S
C668 C664 1.368 . S
C668 C667 1.523 . S
H669 C644 0.950 . S
H670 C646 0.950 . S
H671 C647 0.949 . S
H672 C649 0.950 . S
H673 C651 0.950 . S
C674 C675 1.349 . S
C674 C676 1.327 . S
C674 H699 0.950 . S
C675 C674 1.349 . S
C675 C691 1.349 . S
C676 C674 1.327 . S
C676 C695 1.429 . S
C676 H700 0.950 . S
C677 C694 1.574 1_655 S
C677 C696 1.368 . S
C677 H701 0.949 . S
H678 C682 0.949 . S
C679 C680 1.349 . S
C679 C681 1.327 . S
C679 H702 0.950 . S
C680 C679 1.349 . S
C680 C692 1.349 . S
C681 C679 1.327 . S
C681 C697 1.429 . S
C681 H703 0.950 . S
C682 H678 0.949 . S
C682 C690 1.574 1_455 S
C682 C698 1.368 . S
H683 C691 0.950 . S
H684 C689 0.950 . S
H685 C690 0.949 . S
H686 C692 0.950 . S
H687 C693 0.950 . S
H688 C694 0.949 . S
C689 H684 0.950 . S
C689 C691 1.327 . S
C689 C695 1.429 . S
C690 C682 1.574 1_655 S
C690 H685 0.949 . S
C690 C696 1.368 . S
C691 C675 1.349 . S
C691 H683 0.950 . S
C691 C689 1.327 . S
C692 C680 1.349 . S
C692 H686 0.950 . S
C692 C693 1.327 . S
C693 H687 0.950 . S
C693 C692 1.327 . S
C693 C697 1.429 . S
C694 C677 1.574 1_455 S
C694 H688 0.949 . S
C694 C698 1.368 . S
C695 C676 1.429 . S
C695 C689 1.429 . S
C695 C696 1.523 . S
C696 C677 1.368 . S
C696 C690 1.368 . S
C696 C695 1.523 . S
C697 C681 1.429 . S
C697 C693 1.429 . S
C697 C698 1.523 . S
C698 C682 1.368 . S
C698 C694 1.368 . S
C698 C697 1.523 . S
H699 C674 0.950 . S
H700 C676 0.950 . S
H701 C677 0.949 . S
H702 C679 0.950 . S
H703 C681 0.950 . S
C704 C705 1.349 . S
C704 C706 1.327 . S
C704 H729 0.950 . S
C705 C704 1.349 . S
C705 C721 1.349 . S
C706 C704 1.327 . S
C706 C725 1.429 . S
C706 H730 0.950 . S
C707 C724 1.574 . S
C707 C726 1.368 . S
C707 H731 0.949 . S
H708 C712 0.949 . S
C709 C710 1.349 . S
C709 C711 1.327 . S
C709 H732 0.950 . S
C710 C709 1.349 . S
C710 C722 1.349 . S
C711 C709 1.327 . S
C711 C727 1.429 . S
C711 H733 0.950 . S
C712 H708 0.949 . S
C712 C720 1.574 . S
C712 C728 1.368 . S
H713 C721 0.950 . S
H714 C719 0.950 . S
H715 C720 0.949 . S
H716 C722 0.950 . S
H717 C723 0.950 . S
H718 C724 0.949 . S
C719 H714 0.950 . S
C719 C721 1.327 . S
C719 C725 1.429 . S
C720 C712 1.574 . S
C720 H715 0.949 . S
C720 C726 1.368 . S
C721 C705 1.349 . S
C721 H713 0.950 . S
C721 C719 1.327 . S
C722 C710 1.349 . S
C722 H716 0.950 . S
C722 C723 1.327 . S
C723 H717 0.950 . S
C723 C722 1.327 . S
C723 C727 1.429 . S
C724 C707 1.574 . S
C724 H718 0.949 . S
C724 C728 1.368 . S
C725 C706 1.429 . S
C725 C719 1.429 . S
C725 C726 1.523 . S
C726 C707 1.368 . S
C726 C720 1.368 . S
C726 C725 1.523 . S
C727 C711 1.429 . S
C727 C723 1.429 . S
C727 C728 1.523 . S
C728 C712 1.368 . S
C728 C724 1.368 . S
C728 C727 1.523 . S
H729 C704 0.950 . S
H730 C706 0.950 . S
H731 C707 0.949 . S
H732 C709 0.950 . S
H733 C711 0.950 . S
C734 C735 1.349 . S
C734 C736 1.327 . S
C734 H759 0.950 . S
C735 C734 1.349 . S
C735 C751 1.349 . S
C736 C734 1.327 . S
C736 C755 1.429 . S
C736 H760 0.950 . S
C737 C754 1.590 . S
C737 C756 1.368 . S
C737 H761 0.949 . S
H738 C742 0.949 . S
C739 C740 1.349 . S
C739 C741 1.327 . S
C739 H762 0.950 . S
C740 C739 1.349 . S
C740 C752 1.349 . S
C741 C739 1.327 . S
C741 C757 1.429 . S
C741 H763 0.950 . S
C742 H738 0.949 . S
C742 C750 1.590 . S
C742 C758 1.368 . S
H743 C751 0.950 . S
H744 C749 0.950 . S
H745 C750 0.949 . S
H746 C752 0.950 . S
H747 C753 0.950 . S
H748 C754 0.949 . S
C749 H744 0.950 . S
C749 C751 1.327 . S
C749 C755 1.429 . S
C750 C742 1.590 . S
C750 H745 0.949 . S
C750 C756 1.352 1_565 S
C751 C735 1.349 . S
C751 H743 0.950 . S
C751 C749 1.327 . S
C752 C740 1.349 . S
C752 H746 0.950 . S
C752 C753 1.327 . S
C753 H747 0.950 . S
C753 C752 1.327 . S
C753 C757 1.429 . S
C754 C737 1.590 . S
C754 H748 0.949 . S
C754 C758 1.352 1_545 S
C755 C736 1.429 . S
C755 C749 1.429 . S
C755 C756 1.523 . S
C756 C737 1.368 . S
C756 C750 1.352 1_545 S
C756 C755 1.523 . S
C757 C741 1.429 . S
C757 C753 1.429 . S
C757 C758 1.523 . S
C758 C742 1.368 . S
C758 C754 1.352 1_565 S
C758 C757 1.523 . S
H759 C734 0.950 . S
H760 C736 0.950 . S
H761 C737 0.949 . S
H762 C739 0.950 . S
H763 C741 0.950 . S
C764 C765 1.349 . S
C764 C766 1.327 . S
C764 H789 0.950 . S
C765 C764 1.349 . S
C765 C781 1.349 . S
C766 C764 1.327 . S
C766 C785 1.429 . S
C766 H790 0.950 . S
C767 C784 1.574 . S
C767 C786 1.368 . S
C767 H791 0.949 . S
H768 C772 0.949 . S
C769 C770 1.349 . S
C769 C771 1.327 . S
C769 H792 0.950 . S
C770 C769 1.349 . S
C770 C782 1.349 . S
C771 C769 1.327 . S
C771 C787 1.429 . S
C771 H793 0.950 . S
C772 H768 0.949 . S
C772 C780 1.574 . S
C772 C788 1.368 . S
H773 C781 0.950 . S
H774 C779 0.950 . S
H775 C780 0.949 . S
H776 C782 0.950 . S
H777 C783 0.950 . S
H778 C784 0.949 . S
C779 H774 0.950 . S
C779 C781 1.327 . S
C779 C785 1.429 . S
C780 C772 1.574 . S
C780 H775 0.949 . S
C780 C786 1.368 . S
C781 C765 1.349 . S
C781 H773 0.950 . S
C781 C779 1.327 . S
C782 C770 1.349 . S
C782 H776 0.950 . S
C782 C783 1.327 . S
C783 H777 0.950 . S
C783 C782 1.327 . S
C783 C787 1.429 . S
C784 C767 1.574 . S
C784 H778 0.949 . S
C784 C788 1.368 . S
C785 C766 1.429 . S
C785 C779 1.429 . S
C785 C786 1.523 . S
C786 C767 1.368 . S
C786 C780 1.368 . S
C786 C785 1.523 . S
C787 C771 1.429 . S
C787 C783 1.429 . S
C787 C788 1.523 . S
C788 C772 1.368 . S
C788 C784 1.368 . S
C788 C787 1.523 . S
H789 C764 0.950 . S
H790 C766 0.950 . S
H791 C767 0.949 . S
H792 C769 0.950 . S
H793 C771 0.950 . S
C794 C795 1.349 . S
C794 C796 1.327 . S
C794 H819 0.950 . S
C795 C794 1.349 . S
C795 C811 1.349 . S
C796 C794 1.327 . S
C796 C815 1.429 . S
C796 H820 0.950 . S
C797 C814 1.574 1_554 S
C797 C816 1.368 . S
C797 H821 0.949 . S
H798 C802 0.949 . S
C799 C800 1.349 . S
C799 C801 1.327 . S
C799 H822 0.950 . S
C800 C799 1.349 . S
C800 C812 1.349 . S
C801 C799 1.327 . S
C801 C817 1.429 . S
C801 H823 0.950 . S
C802 H798 0.949 . S
C802 C810 1.574 1_556 S
C802 C818 1.368 . S
H803 C811 0.950 . S
H804 C809 0.950 . S
H805 C810 0.949 . S
H806 C812 0.950 . S
H807 C813 0.950 . S
H808 C814 0.949 . S
C809 H804 0.950 . S
C809 C811 1.327 . S
C809 C815 1.429 . S
C810 C802 1.574 1_554 S
C810 H805 0.949 . S
C810 C816 1.368 . S
C811 C795 1.349 . S
C811 H803 0.950 . S
C811 C809 1.327 . S
C812 C800 1.349 . S
C812 H806 0.950 . S
C812 C813 1.327 . S
C813 H807 0.950 . S
C813 C812 1.327 . S
C813 C817 1.429 . S
C814 C797 1.574 1_556 S
C814 H808 0.949 . S
C814 C818 1.368 . S
C815 C796 1.429 . S
C815 C809 1.429 . S
C815 C816 1.523 . S
C816 C797 1.368 . S
C816 C810 1.368 . S
C816 C815 1.523 . S
C817 C801 1.429 . S
C817 C813 1.429 . S
C817 C818 1.523 . S
C818 C802 1.368 . S
C818 C814 1.368 . S
C818 C817 1.523 . S
H819 C794 0.950 . S
H820 C796 0.950 . S
H821 C797 0.949 . S
H822 C799 0.950 . S
H823 C801 0.950 . S
C824 C825 1.349 . S
C824 C826 1.327 . S
C824 H849 0.950 . S
C825 C824 1.349 . S
C825 C841 1.349 . S
C826 C824 1.327 . S
C826 C845 1.429 . S
C826 H850 0.950 . S
C827 C844 1.574 1_556 S
C827 C846 1.368 . S
C827 H851 0.949 . S
H828 C832 0.949 . S
C829 C830 1.349 . S
C829 C831 1.327 . S
C829 H852 0.950 . S
C830 C829 1.349 . S
C830 C842 1.349 . S
C831 C829 1.327 . S
C831 C847 1.429 . S
C831 H853 0.950 . S
C832 H828 0.949 . S
C832 C840 1.574 1_554 S
C832 C848 1.368 . S
H833 C841 0.950 . S
H834 C839 0.950 . S
H835 C840 0.949 . S
H836 C842 0.950 . S
H837 C843 0.950 . S
H838 C844 0.949 . S
C839 H834 0.950 . S
C839 C841 1.327 . S
C839 C845 1.429 . S
C840 C832 1.574 1_556 S
C840 H835 0.949 . S
C840 C846 1.368 . S
C841 C825 1.349 . S
C841 H833 0.950 . S
C841 C839 1.327 . S
C842 C830 1.349 . S
C842 H836 0.950 . S
C842 C843 1.327 . S
C843 H837 0.950 . S
C843 C842 1.327 . S
C843 C847 1.429 . S
C844 C827 1.574 1_554 S
C844 H838 0.949 . S
C844 C848 1.368 . S
C845 C826 1.429 . S
C845 C839 1.429 . S
C845 C846 1.523 . S
C846 C827 1.368 . S
C846 C840 1.368 . S
C846 C845 1.523 . S
C847 C831 1.429 . S
C847 C843 1.429 . S
C847 C848 1.523 . S
C848 C832 1.368 . S
C848 C844 1.368 . S
C848 C847 1.523 . S
H849 C824 0.950 . S
H850 C826 0.950 . S
H851 C827 0.949 . S
H852 C829 0.950 . S
H853 C831 0.950 . S
C854 C855 1.349 . S
C854 C856 1.327 . S
C854 H879 0.950 . S
C855 C854 1.349 . S
C855 C871 1.349 . S
C856 C854 1.327 . S
C856 C875 1.429 . S
C856 H880 0.950 . S
C857 C874 1.574 . S
C857 C876 1.368 . S
C857 H881 0.949 . S
H858 C862 0.949 . S
C859 C860 1.349 . S
C859 C861 1.327 . S
C859 H882 0.950 . S
C860 C859 1.349 . S
C860 C872 1.349 . S
C861 C859 1.327 . S
C861 C877 1.429 . S
C861 H883 0.950 . S
C862 H858 0.949 . S
C862 C870 1.574 . S
C862 C878 1.368 . S
H863 C871 0.950 . S
H864 C869 0.950 . S
H865 C870 0.949 . S
H866 C872 0.950 . S
H867 C873 0.950 . S
H868 C874 0.949 . S
C869 H864 0.950 . S
C869 C871 1.327 . S
C869 C875 1.429 . S
C870 C862 1.574 . S
C870 H865 0.949 . S
C870 C876 1.368 . S
C871 C855 1.349 . S
C871 H863 0.950 . S
C871 C869 1.327 . S
C872 C860 1.349 . S
C872 H866 0.950 . S
C872 C873 1.327 . S
C873 H867 0.950 . S
C873 C872 1.327 . S
C873 C877 1.429 . S
C874 C857 1.574 . S
C874 H868 0.949 . S
C874 C878 1.368 . S
C875 C856 1.429 . S
C875 C869 1.429 . S
C875 C876 1.523 . S
C876 C857 1.368 . S
C876 C870 1.368 . S
C876 C875 1.523 . S
C877 C861 1.429 . S
C877 C873 1.429 . S
C877 C878 1.523 . S
C878 C862 1.368 . S
C878 C874 1.368 . S
C878 C877 1.523 . S
H879 C854 0.950 . S
H880 C856 0.950 . S
H881 C857 0.949 . S
H882 C859 0.950 . S
H883 C861 0.950 . S
C884 C885 1.349 . S
C884 C886 1.327 . S
C884 H909 0.950 . S
C885 C884 1.349 . S
C885 C901 1.349 . S
C886 C884 1.327 . S
C886 C905 1.429 . S
C886 H910 0.950 . S
C887 C904 1.574 . S
C887 C906 1.368 . S
C887 H911 0.949 . S
H888 C892 0.949 . S
C889 C890 1.349 . S
C889 C891 1.327 . S
C889 H912 0.950 . S
C890 C889 1.349 . S
C890 C902 1.349 . S
C891 C889 1.327 . S
C891 C907 1.429 . S
C891 H913 0.950 . S
C892 H888 0.949 . S
C892 C900 1.574 . S
C892 C908 1.368 . S
H893 C901 0.950 . S
H894 C899 0.950 . S
H895 C900 0.949 . S
H896 C902 0.950 . S
H897 C903 0.950 . S
H898 C904 0.949 . S
C899 H894 0.950 . S
C899 C901 1.327 . S
C899 C905 1.429 . S
C900 C892 1.574 . S
C900 H895 0.949 . S
C900 C906 1.368 . S
C901 C885 1.349 . S
C901 H893 0.950 . S
C901 C899 1.327 . S
C902 C890 1.349 . S
C902 H896 0.950 . S
C902 C903 1.327 . S
C903 H897 0.950 . S
C903 C902 1.327 . S
C903 C907 1.429 . S
C904 C887 1.574 . S
C904 H898 0.949 . S
C904 C908 1.368 . S
C905 C886 1.429 . S
C905 C899 1.429 . S
C905 C906 1.523 . S
C906 C887 1.368 . S
C906 C900 1.368 . S
C906 C905 1.523 . S
C907 C891 1.429 . S
C907 C903 1.429 . S
C907 C908 1.523 . S
C908 C892 1.368 . S
C908 C904 1.368 . S
C908 C907 1.523 . S
H909 C884 0.950 . S
H910 C886 0.950 . S
H911 C887 0.949 . S
H912 C889 0.950 . S
H913 C891 0.950 . S
C914 C915 1.349 . S
C914 C916 1.327 . S
C914 H939 0.950 . S
C915 C914 1.349 . S
C915 C931 1.349 . S
C916 C914 1.327 . S
C916 C935 1.429 . S
C916 H940 0.950 . S
C917 C934 1.574 1_455 S
C917 C936 1.368 . S
C917 H941 0.949 . S
H918 C922 0.949 . S
C919 C920 1.349 . S
C919 C921 1.327 . S
C919 H942 0.950 . S
C920 C919 1.349 . S
C920 C932 1.349 . S
C921 C919 1.327 . S
C921 C937 1.429 . S
C921 H943 0.950 . S
C922 H918 0.949 . S
C922 C930 1.574 1_655 S
C922 C938 1.368 . S
H923 C931 0.950 . S
H924 C929 0.950 . S
H925 C930 0.949 . S
H926 C932 0.950 . S
H927 C933 0.950 . S
H928 C934 0.949 . S
C929 H924 0.950 . S
C929 C931 1.327 . S
C929 C935 1.429 . S
C930 C922 1.574 1_455 S
C930 H925 0.949 . S
C930 C936 1.368 . S
C931 C915 1.349 . S
C931 H923 0.950 . S
C931 C929 1.327 . S
C932 C920 1.349 . S
C932 H926 0.950 . S
C932 C933 1.327 . S
C933 H927 0.950 . S
C933 C932 1.327 . S
C933 C937 1.429 . S
C934 C917 1.574 1_655 S
C934 H928 0.949 . S
C934 C938 1.368 . S
C935 C916 1.429 . S
C935 C929 1.429 . S
C935 C936 1.523 . S
C936 C917 1.368 . S
C936 C930 1.368 . S
C936 C935 1.523 . S
C937 C921 1.429 . S
C937 C933 1.429 . S
C937 C938 1.523 . S
C938 C922 1.368 . S
C938 C934 1.368 . S
C938 C937 1.523 . S
H939 C914 0.950 . S
H940 C916 0.950 . S
H941 C917 0.949 . S
H942 C919 0.950 . S
H943 C921 0.950 . S
C944 C945 1.349 . S
C944 C946 1.327 . S
C944 H969 0.950 . S
C945 C944 1.349 . S
C945 C961 1.349 . S
C946 C944 1.327 . S
C946 C965 1.429 . S
C946 H970 0.950 . S
C947 C964 1.574 1_455 S
C947 C966 1.368 . S
C947 H971 0.949 . S
H948 C952 0.949 . S
C949 C950 1.349 . S
C949 C951 1.327 . S
C949 H972 0.950 . S
C950 C949 1.349 . S
C950 C962 1.349 . S
C951 C949 1.327 . S
C951 C967 1.429 . S
C951 H973 0.950 . S
C952 H948 0.949 . S
C952 C960 1.574 1_655 S
C952 C968 1.368 . S
H953 C961 0.950 . S
H954 C959 0.950 . S
H955 C960 0.949 . S
H956 C962 0.950 . S
H957 C963 0.950 . S
H958 C964 0.949 . S
C959 H954 0.950 . S
C959 C961 1.327 . S
C959 C965 1.429 . S
C960 C952 1.574 1_455 S
C960 H955 0.949 . S
C960 C966 1.368 . S
C961 C945 1.349 . S
C961 H953 0.950 . S
C961 C959 1.327 . S
C962 C950 1.349 . S
C962 H956 0.950 . S
C962 C963 1.327 . S
C963 H957 0.950 . S
C963 C962 1.327 . S
C963 C967 1.429 . S
C964 C947 1.574 1_655 S
C964 H958 0.949 . S
C964 C968 1.368 . S
C965 C946 1.429 . S
C965 C959 1.429 . S
C965 C966 1.523 . S
C966 C947 1.368 . S
C966 C960 1.368 . S
C966 C965 1.523 . S
C967 C951 1.429 . S
C967 C963 1.429 . S
C967 C968 1.523 . S
C968 C952 1.368 . S
C968 C964 1.368 . S
C968 C967 1.523 . S
H969 C944 0.950 . S
H970 C946 0.950 . S
H971 C947 0.949 . S
H972 C949 0.950 . S
H973 C951 0.950 . S
C974 C975 1.349 . S
C974 C976 1.327 . S
C974 H999 0.950 . S
C975 C974 1.349 . S
C975 C991 1.349 . S
C976 C974 1.327 . S
C976 C995 1.429 . S
C976 H1000 0.950 . S
C977 C994 1.574 . S
C977 C996 1.368 . S
C977 H1001 0.949 . S
H978 C982 0.949 . S
C979 C980 1.349 . S
C979 C981 1.327 . S
C979 H1002 0.950 . S
C980 C979 1.349 . S
C980 C992 1.349 . S
C981 C979 1.327 . S
C981 C997 1.429 . S
C981 H1003 0.950 . S
C982 H978 0.949 . S
C982 C990 1.574 . S
C982 C998 1.368 . S
H983 C991 0.950 . S
H984 C989 0.950 . S
H985 C990 0.949 . S
H986 C992 0.950 . S
H987 C993 0.950 . S
H988 C994 0.949 . S
C989 H984 0.950 . S
C989 C991 1.327 . S
C989 C995 1.429 . S
C990 C982 1.574 . S
C990 H985 0.949 . S
C990 C996 1.368 . S
C991 C975 1.349 . S
C991 H983 0.950 . S
C991 C989 1.327 . S
C992 C980 1.349 . S
C992 H986 0.950 . S
C992 C993 1.327 . S
C993 H987 0.950 . S
C993 C992 1.327 . S
C993 C997 1.429 . S
C994 C977 1.574 . S
C994 H988 0.949 . S
C994 C998 1.368 . S
C995 C976 1.429 . S
C995 C989 1.429 . S
C995 C996 1.523 . S
C996 C977 1.368 . S
C996 C990 1.368 . S
C996 C995 1.523 . S
C997 C981 1.429 . S
C997 C993 1.429 . S
C997 C998 1.523 . S
C998 C982 1.368 . S
C998 C994 1.368 . S
C998 C997 1.523 . S
H999 C974 0.950 . S
H1000 C976 0.950 . S
H1001 C977 0.949 . S
H1002 C979 0.950 . S
H1003 C981 0.950 . S
C1004 C1005 1.349 . S
C1004 C1006 1.327 . S
C1004 H1029 0.950 . S
C1005 C1004 1.349 . S
C1005 C1021 1.349 . S
C1006 C1004 1.327 . S
C1006 C1025 1.429 . S
C1006 H1030 0.950 . S
C1007 C1024 1.574 . S
C1007 C1026 1.368 . S
C1007 H1031 0.949 . S
H1008 C1012 0.949 . S
C1009 C1010 1.349 . S
C1009 C1011 1.327 . S
C1009 H1032 0.950 . S
C1010 C1009 1.349 . S
C1010 C1022 1.349 . S
C1011 C1009 1.327 . S
C1011 C1027 1.429 . S
C1011 H1033 0.950 . S
C1012 H1008 0.949 . S
C1012 C1020 1.574 . S
C1012 C1028 1.368 . S
H1013 C1021 0.950 . S
H1014 C1019 0.950 . S
H1015 C1020 0.949 . S
H1016 C1022 0.950 . S
H1017 C1023 0.950 . S
H1018 C1024 0.949 . S
C1019 H1014 0.950 . S
C1019 C1021 1.327 . S
C1019 C1025 1.429 . S
C1020 C1012 1.574 . S
C1020 H1015 0.949 . S
C1020 C1026 1.368 . S
C1021 C1005 1.349 . S
C1021 H1013 0.950 . S
C1021 C1019 1.327 . S
C1022 C1010 1.349 . S
C1022 H1016 0.950 . S
C1022 C1023 1.327 . S
C1023 H1017 0.950 . S
C1023 C1022 1.327 . S
C1023 C1027 1.429 . S
C1024 C1007 1.574 . S
C1024 H1018 0.949 . S
C1024 C1028 1.368 . S
C1025 C1006 1.429 . S
C1025 C1019 1.429 . S
C1025 C1026 1.523 . S
C1026 C1007 1.368 . S
C1026 C1020 1.368 . S
C1026 C1025 1.523 . S
C1027 C1011 1.429 . S
C1027 C1023 1.429 . S
C1027 C1028 1.523 . S
C1028 C1012 1.368 . S
C1028 C1024 1.368 . S
C1028 C1027 1.523 . S
H1029 C1004 0.950 . S
H1030 C1006 0.950 . S
H1031 C1007 0.949 . S
H1032 C1009 0.950 . S
H1033 C1011 0.950 . S
C1034 C1035 1.349 . S
C1034 C1036 1.327 . S
C1034 H1059 0.950 . S
C1035 C1034 1.349 . S
C1035 C1051 1.349 . S
C1036 C1034 1.327 . S
C1036 C1055 1.429 . S
C1036 H1060 0.950 . S
C1037 C1054 1.539 1_545 S
C1037 C1056 1.368 . S
C1037 H1061 0.949 . S
H1038 C1042 0.949 . S
C1039 C1040 1.349 . S
C1039 C1041 1.327 . S
C1039 H1062 0.950 . S
C1040 C1039 1.349 . S
C1040 C1052 1.349 . S
C1041 C1039 1.327 . S
C1041 C1057 1.429 . S
C1041 H1063 0.950 . S
C1042 H1038 0.949 . S
C1042 C1050 1.539 1_565 S
C1042 C1058 1.368 . S
H1043 C1051 0.950 . S
H1044 C1049 0.950 . S
H1045 C1050 0.952 . S
H1046 C1052 0.950 . S
H1047 C1053 0.950 . S
H1048 C1054 0.952 . S
C1049 H1044 0.950 . S
C1049 C1051 1.327 . S
C1049 C1055 1.429 . S
C1050 C1042 1.539 1_545 S
C1050 H1045 0.952 . S
C1050 C1056 1.400 . S
C1051 C1035 1.349 . S
C1051 H1043 0.950 . S
C1051 C1049 1.327 . S
C1052 C1040 1.349 . S
C1052 H1046 0.950 . S
C1052 C1053 1.327 . S
C1053 H1047 0.950 . S
C1053 C1052 1.327 . S
C1053 C1057 1.429 . S
C1054 C1037 1.539 1_565 S
C1054 H1048 0.952 . S
C1054 C1058 1.400 . S
C1055 C1036 1.429 . S
C1055 C1049 1.429 . S
C1055 C1056 1.523 . S
C1056 C1037 1.368 . S
C1056 C1050 1.400 . S
C1056 C1055 1.523 . S
C1057 C1041 1.429 . S
C1057 C1053 1.429 . S
C1057 C1058 1.523 . S
C1058 C1042 1.368 . S
C1058 C1054 1.400 . S
C1058 C1057 1.523 . S
H1059 C1034 0.950 . S
H1060 C1036 0.950 . S
H1061 C1037 0.949 . S
H1062 C1039 0.950 . S
H1063 C1041 0.950 . S
C1064 C1065 1.349 . S
C1064 C1066 1.327 . S
C1064 H1089 0.950 . S
C1065 C1064 1.349 . S
C1065 C1081 1.349 . S
C1066 C1064 1.327 . S
C1066 C1085 1.429 . S
C1066 H1090 0.950 . S
C1067 C1084 1.574 . S
C1067 C1086 1.368 . S
C1067 H1091 0.949 . S
H1068 C1072 0.949 . S
C1069 C1070 1.349 . S
C1069 C1071 1.327 . S
C1069 H1092 0.950 . S
C1070 C1069 1.349 . S
C1070 C1082 1.349 . S
C1071 C1069 1.327 . S
C1071 C1087 1.429 . S
C1071 H1093 0.950 . S
C1072 H1068 0.949 . S
C1072 C1080 1.574 . S
C1072 C1088 1.368 . S
H1073 C1081 0.950 . S
H1074 C1079 0.950 . S
H1075 C1080 0.949 . S
H1076 C1082 0.950 . S
H1077 C1083 0.950 . S
H1078 C1084 0.949 . S
C1079 H1074 0.950 . S
C1079 C1081 1.327 . S
C1079 C1085 1.429 . S
C1080 C1072 1.574 . S
C1080 H1075 0.949 . S
C1080 C1086 1.368 . S
C1081 C1065 1.349 . S
C1081 H1073 0.950 . S
C1081 C1079 1.327 . S
C1082 C1070 1.349 . S
C1082 H1076 0.950 . S
C1082 C1083 1.327 . S
C1083 H1077 0.950 . S
C1083 C1082 1.327 . S
C1083 C1087 1.429 . S
C1084 C1067 1.574 . S
C1084 H1078 0.949 . S
C1084 C1088 1.368 . S
C1085 C1066 1.429 . S
C1085 C1079 1.429 . S
C1085 C1086 1.523 . S
C1086 C1067 1.368 . S
C1086 C1080 1.368 . S
C1086 C1085 1.523 . S
C1087 C1071 1.429 . S
C1087 C1083 1.429 . S
C1087 C1088 1.523 . S
C1088 C1072 1.368 . S
C1088 C1084 1.368 . S
C1088 C1087 1.523 . S
H1089 C1064 0.950 . S
H1090 C1066 0.950 . S
H1091 C1067 0.949 . S
H1092 C1069 0.950 . S
H1093 C1071 0.950 . S
C1094 C1095 1.349 . S
C1094 C1096 1.327 . S
C1094 H1119 0.950 . S
C1095 C1094 1.349 . S
C1095 C1111 1.349 . S
C1096 C1094 1.327 . S
C1096 C1115 1.429 . S
C1096 H1120 0.950 . S
C1097 C1114 1.574 . S
C1097 C1116 1.368 . S
C1097 H1121 0.949 . S
H1098 C1102 0.949 . S
C1099 C1100 1.349 . S
C1099 C1101 1.327 . S
C1099 H1122 0.950 . S
C1100 C1099 1.349 . S
C1100 C1112 1.349 . S
C1101 C1099 1.327 . S
C1101 C1117 1.429 . S
C1101 H1123 0.950 . S
C1102 H1098 0.949 . S
C1102 C1110 1.574 . S
C1102 C1118 1.368 . S
H1103 C1111 0.950 . S
H1104 C1109 0.950 . S
H1105 C1110 0.949 . S
H1106 C1112 0.950 . S
H1107 C1113 0.950 . S
H1108 C1114 0.949 . S
C1109 H1104 0.950 . S
C1109 C1111 1.327 . S
C1109 C1115 1.429 . S
C1110 C1102 1.574 . S
C1110 H1105 0.949 . S
C1110 C1116 1.368 . S
C1111 C1095 1.349 . S
C1111 H1103 0.950 . S
C1111 C1109 1.327 . S
C1112 C1100 1.349 . S
C1112 H1106 0.950 . S
C1112 C1113 1.327 . S
C1113 H1107 0.950 . S
C1113 C1112 1.327 . S
C1113 C1117 1.429 . S
C1114 C1097 1.574 . S
C1114 H1108 0.949 . S
C1114 C1118 1.368 . S
C1115 C1096 1.429 . S
C1115 C1109 1.429 . S
C1115 C1116 1.523 . S
C1116 C1097 1.368 . S
C1116 C1110 1.368 . S
C1116 C1115 1.523 . S
C1117 C1101 1.429 . S
C1117 C1113 1.429 . S
C1117 C1118 1.523 . S
C1118 C1102 1.368 . S
C1118 C1114 1.368 . S
C1118 C1117 1.523 . S
H1119 C1094 0.950 . S
H1120 C1096 0.950 . S
H1121 C1097 0.949 . S
H1122 C1099 0.950 . S
H1123 C1101 0.950 . S
C1124 C1125 1.349 . S
C1124 C1126 1.327 . S
C1124 H1149 0.950 . S
C1125 C1124 1.349 . S
C1125 C1141 1.349 . S
C1126 C1124 1.327 . S
C1126 C1145 1.429 . S
C1126 H1150 0.950 . S
C1127 C1144 1.574 1_545 S
C1127 C1146 1.368 . S
C1127 H1151 0.949 . S
H1128 C1132 0.949 . S
C1129 C1130 1.349 . S
C1129 C1131 1.327 . S
C1129 H1152 0.950 . S
C1130 C1129 1.349 . S
C1130 C1142 1.349 . S
C1131 C1129 1.327 . S
C1131 C1147 1.429 . S
C1131 H1153 0.950 . S
C1132 H1128 0.949 . S
C1132 C1140 1.574 1_565 S
C1132 C1148 1.368 . S
H1133 C1141 0.950 . S
H1134 C1139 0.950 . S
H1135 C1140 0.949 . S
H1136 C1142 0.950 . S
H1137 C1143 0.950 . S
H1138 C1144 0.949 . S
C1139 H1134 0.950 . S
C1139 C1141 1.327 . S
C1139 C1145 1.429 . S
C1140 C1132 1.574 1_545 S
C1140 H1135 0.949 . S
C1140 C1146 1.368 . S
C1141 C1125 1.349 . S
C1141 H1133 0.950 . S
C1141 C1139 1.327 . S
C1142 C1130 1.349 . S
C1142 H1136 0.950 . S
C1142 C1143 1.327 . S
C1143 H1137 0.950 . S
C1143 C1142 1.327 . S
C1143 C1147 1.429 . S
C1144 C1127 1.574 1_565 S
C1144 H1138 0.949 . S
C1144 C1148 1.368 . S
C1145 C1126 1.429 . S
C1145 C1139 1.429 . S
C1145 C1146 1.523 . S
C1146 C1127 1.368 . S
C1146 C1140 1.368 . S
C1146 C1145 1.523 . S
C1147 C1131 1.429 . S
C1147 C1143 1.429 . S
C1147 C1148 1.523 . S
C1148 C1132 1.368 . S
C1148 C1144 1.368 . S
C1148 C1147 1.523 . S
H1149 C1124 0.950 . S
H1150 C1126 0.950 . S
H1151 C1127 0.949 . S
H1152 C1129 0.950 . S
H1153 C1131 0.950 . S
C1154 C1155 1.349 . S
C1154 C1156 1.327 . S
C1154 H1179 0.950 . S
C1155 C1154 1.349 . S
C1155 C1171 1.349 . S
C1156 C1154 1.327 . S
C1156 C1175 1.429 . S
C1156 H1180 0.950 . S
C1157 C1174 1.574 . S
C1157 C1176 1.368 . S
C1157 H1181 0.949 . S
H1158 C1162 0.949 . S
C1159 C1160 1.349 . S
C1159 C1161 1.327 . S
C1159 H1182 0.950 . S
C1160 C1159 1.349 . S
C1160 C1172 1.349 . S
C1161 C1159 1.327 . S
C1161 C1177 1.429 . S
C1161 H1183 0.950 . S
C1162 H1158 0.949 . S
C1162 C1170 1.574 . S
C1162 C1178 1.368 . S
H1163 C1171 0.950 . S
H1164 C1169 0.950 . S
H1165 C1170 0.949 . S
H1166 C1172 0.950 . S
H1167 C1173 0.950 . S
H1168 C1174 0.949 . S
C1169 H1164 0.950 . S
C1169 C1171 1.327 . S
C1169 C1175 1.429 . S
C1170 C1162 1.574 . S
C1170 H1165 0.949 . S
C1170 C1176 1.368 . S
C1171 C1155 1.349 . S
C1171 H1163 0.950 . S
C1171 C1169 1.327 . S
C1172 C1160 1.349 . S
C1172 H1166 0.950 . S
C1172 C1173 1.327 . S
C1173 H1167 0.950 . S
C1173 C1172 1.327 . S
C1173 C1177 1.429 . S
C1174 C1157 1.574 . S
C1174 H1168 0.949 . S
C1174 C1178 1.368 . S
C1175 C1156 1.429 . S
C1175 C1169 1.429 . S
C1175 C1176 1.523 . S
C1176 C1157 1.368 . S
C1176 C1170 1.368 . S
C1176 C1175 1.523 . S
C1177 C1161 1.429 . S
C1177 C1173 1.429 . S
C1177 C1178 1.523 . S
C1178 C1162 1.368 . S
C1178 C1174 1.368 . S
C1178 C1177 1.523 . S
H1179 C1154 0.950 . S
H1180 C1156 0.950 . S
H1181 C1157 0.949 . S
H1182 C1159 0.950 . S
H1183 C1161 0.950 . S
C225 C4 1.111 . S
C230 C186 1.110 . S
C255 C18 1.111 . S
C260 C130 1.110 . S
C285 C200 1.110 . S
C290 C32 1.111 . S
C315 C46 1.111 . S
C320 C214 1.110 . S
C345 C60 1.111 . S
C350 C88 1.110 . S
C375 C144 1.111 . S
C380 C74 1.110 . S
C405 C158 1.111 . S
C410 C102 1.110 . S
C435 C116 1.110 . S
C440 C172 1.111 . S
C465 C40 1.535 . S
C470 C12 1.535 . S
C495 C26 1.535 . S
C500 C54 1.535 . S
C525 C179 1.470 . S
C530 C11 1.470 . S
C555 C25 1.470 . S
C560 C165 1.470 . S
C585 C67 1.470 . S
C590 C39 1.470 . S
C615 C151 1.470 . S
C620 C53 1.470 . S
C645 C19 1.397 . S
C650 C5 1.397 . S
C675 C47 1.397 . S
C680 C33 1.397 . S
C705 C145 1.397 . S
C710 C61 1.397 . S
C735 C109 1.545 . S
C740 C81 1.545 . S
C765 C95 1.545 . S
C770 C123 1.545 . S
C795 C222 1.520 . S
C800 C82 1.520 . S
C825 C96 1.520 . S
C830 C208 1.520 . S
C855 C138 1.520 . S
C860 C110 1.520 . S
C885 C124 1.520 . S
C890 C194 1.520 . S
C915 C89 1.339 . S
C920 C75 1.339 . S
C945 C117 1.339 . S
C950 C103 1.339 . S
C975 C131 1.339 . S
C980 C187 1.339 . S
C1005 C152 1.535 . S
C1010 C166 1.535 . S
C1035 C180 1.535 . S
C1040 C68 1.535 . S
C1065 C173 1.397 . S
C1070 C159 1.397 . S
C1095 C207 1.545 . S
C1100 C193 1.545 . S
C1125 C137 1.545 . S
C1130 C221 1.545 . S
C1155 C215 1.339 . S
C1160 C201 1.339 . S
